# Generated by pormake.
# Topology ukp, (4)-cn, num edge types: 1
# Building blocks:
#     Node 0, Type 0, BuildingBlock: NAWXER_clean_sbu_0, # of connection points: 4
#     Node 1, Type 0, BuildingBlock: NAWXER_clean_sbu_0, # of connection points: 4
#     Node 2, Type 0, BuildingBlock: NAWXER_clean_sbu_0, # of connection points: 4
#     Node 3, Type 0, BuildingBlock: NAWXER_clean_sbu_0, # of connection points: 4
#     Node 4, Type 0, BuildingBlock: NAWXER_clean_sbu_0, # of connection points: 4
#     Node 5, Type 0, BuildingBlock: NAWXER_clean_sbu_0, # of connection points: 4
#     Node 6, Type 0, BuildingBlock: NAWXER_clean_sbu_0, # of connection points: 4
#     Node 7, Type 0, BuildingBlock: NAWXER_clean_sbu_0, # of connection points: 4
#     Node 8, Type 0, BuildingBlock: NAWXER_clean_sbu_0, # of connection points: 4
#     Node 9, Type 0, BuildingBlock: NAWXER_clean_sbu_0, # of connection points: 4
#     Node 10, Type 0, BuildingBlock: NAWXER_clean_sbu_0, # of connection points: 4
#     Node 11, Type 0, BuildingBlock: NAWXER_clean_sbu_0, # of connection points: 4
#     Node 12, Type 0, BuildingBlock: NAWXER_clean_sbu_0, # of connection points: 4
#     Node 13, Type 0, BuildingBlock: NAWXER_clean_sbu_0, # of connection points: 4
#     Node 14, Type 0, BuildingBlock: NAWXER_clean_sbu_0, # of connection points: 4
#     Node 15, Type 0, BuildingBlock: NAWXER_clean_sbu_0, # of connection points: 4
#     Node 16, Type 0, BuildingBlock: NAWXER_clean_sbu_0, # of connection points: 4
#     Node 17, Type 0, BuildingBlock: NAWXER_clean_sbu_0, # of connection points: 4
#     Node 18, Type 0, BuildingBlock: NAWXER_clean_sbu_0, # of connection points: 4
#     Node 19, Type 0, BuildingBlock: NAWXER_clean_sbu_0, # of connection points: 4
#     Node 20, Type 0, BuildingBlock: NAWXER_clean_sbu_0, # of connection points: 4
#     Node 21, Type 0, BuildingBlock: NAWXER_clean_sbu_0, # of connection points: 4
#     Node 22, Type 0, BuildingBlock: NAWXER_clean_sbu_0, # of connection points: 4
#     Node 23, Type 0, BuildingBlock: NAWXER_clean_sbu_0, # of connection points: 4
#     Node 24, Type 0, BuildingBlock: NAWXER_clean_sbu_0, # of connection points: 4
#     Node 25, Type 0, BuildingBlock: NAWXER_clean_sbu_0, # of connection points: 4
#     Node 26, Type 0, BuildingBlock: NAWXER_clean_sbu_0, # of connection points: 4
#     Node 27, Type 0, BuildingBlock: NAWXER_clean_sbu_0, # of connection points: 4
#     Node 28, Type 0, BuildingBlock: NAWXER_clean_sbu_0, # of connection points: 4
#     Node 29, Type 0, BuildingBlock: NAWXER_clean_sbu_0, # of connection points: 4
#     Node 30, Type 0, BuildingBlock: NAWXER_clean_sbu_0, # of connection points: 4
#     Node 31, Type 0, BuildingBlock: NAWXER_clean_sbu_0, # of connection points: 4
#     Node 32, Type 0, BuildingBlock: NAWXER_clean_sbu_0, # of connection points: 4
#     Node 33, Type 0, BuildingBlock: NAWXER_clean_sbu_0, # of connection points: 4
#     Node 34, Type 0, BuildingBlock: NAWXER_clean_sbu_0, # of connection points: 4
#     Node 35, Type 0, BuildingBlock: NAWXER_clean_sbu_0, # of connection points: 4
#     Node 36, Type 0, BuildingBlock: NAWXER_clean_sbu_0, # of connection points: 4
#     Node 37, Type 0, BuildingBlock: NAWXER_clean_sbu_0, # of connection points: 4
#     Node 38, Type 0, BuildingBlock: NAWXER_clean_sbu_0, # of connection points: 4
#     Node 39, Type 0, BuildingBlock: NAWXER_clean_sbu_0, # of connection points: 4
#     Node 40, Type 0, BuildingBlock: NAWXER_clean_sbu_0, # of connection points: 4
#     Node 41, Type 0, BuildingBlock: NAWXER_clean_sbu_0, # of connection points: 4
#     Node 42, Type 0, BuildingBlock: NAWXER_clean_sbu_0, # of connection points: 4
#     Node 43, Type 0, BuildingBlock: NAWXER_clean_sbu_0, # of connection points: 4
#     Node 44, Type 0, BuildingBlock: NAWXER_clean_sbu_0, # of connection points: 4
#     Node 45, Type 0, BuildingBlock: NAWXER_clean_sbu_0, # of connection points: 4
#     Node 46, Type 0, BuildingBlock: NAWXER_clean_sbu_0, # of connection points: 4
#     Node 47, Type 0, BuildingBlock: NAWXER_clean_sbu_0, # of connection points: 4
#     Edge 48, Type (0, 0), BuildingBlock: KIFKEQ_clean_linker_1, # of connection points: 2
#     Edge 49, Type (0, 0), BuildingBlock: KIFKEQ_clean_linker_1, # of connection points: 2
#     Edge 50, Type (0, 0), BuildingBlock: KIFKEQ_clean_linker_1, # of connection points: 2
#     Edge 51, Type (0, 0), BuildingBlock: KIFKEQ_clean_linker_1, # of connection points: 2
#     Edge 52, Type (0, 0), BuildingBlock: KIFKEQ_clean_linker_1, # of connection points: 2
#     Edge 53, Type (0, 0), BuildingBlock: KIFKEQ_clean_linker_1, # of connection points: 2
#     Edge 54, Type (0, 0), BuildingBlock: KIFKEQ_clean_linker_1, # of connection points: 2
#     Edge 55, Type (0, 0), BuildingBlock: KIFKEQ_clean_linker_1, # of connection points: 2
#     Edge 56, Type (0, 0), BuildingBlock: KIFKEQ_clean_linker_1, # of connection points: 2
#     Edge 57, Type (0, 0), BuildingBlock: KIFKEQ_clean_linker_1, # of connection points: 2
#     Edge 58, Type (0, 0), BuildingBlock: KIFKEQ_clean_linker_1, # of connection points: 2
#     Edge 59, Type (0, 0), BuildingBlock: KIFKEQ_clean_linker_1, # of connection points: 2
#     Edge 60, Type (0, 0), BuildingBlock: KIFKEQ_clean_linker_1, # of connection points: 2
#     Edge 61, Type (0, 0), BuildingBlock: KIFKEQ_clean_linker_1, # of connection points: 2
#     Edge 62, Type (0, 0), BuildingBlock: KIFKEQ_clean_linker_1, # of connection points: 2
#     Edge 63, Type (0, 0), BuildingBlock: KIFKEQ_clean_linker_1, # of connection points: 2
#     Edge 64, Type (0, 0), BuildingBlock: KIFKEQ_clean_linker_1, # of connection points: 2
#     Edge 65, Type (0, 0), BuildingBlock: KIFKEQ_clean_linker_1, # of connection points: 2
#     Edge 66, Type (0, 0), BuildingBlock: KIFKEQ_clean_linker_1, # of connection points: 2
#     Edge 67, Type (0, 0), BuildingBlock: KIFKEQ_clean_linker_1, # of connection points: 2
#     Edge 68, Type (0, 0), BuildingBlock: KIFKEQ_clean_linker_1, # of connection points: 2
#     Edge 69, Type (0, 0), BuildingBlock: KIFKEQ_clean_linker_1, # of connection points: 2
#     Edge 70, Type (0, 0), BuildingBlock: KIFKEQ_clean_linker_1, # of connection points: 2
#     Edge 71, Type (0, 0), BuildingBlock: KIFKEQ_clean_linker_1, # of connection points: 2
#     Edge 72, Type (0, 0), BuildingBlock: KIFKEQ_clean_linker_1, # of connection points: 2
#     Edge 73, Type (0, 0), BuildingBlock: KIFKEQ_clean_linker_1, # of connection points: 2
#     Edge 74, Type (0, 0), BuildingBlock: KIFKEQ_clean_linker_1, # of connection points: 2
#     Edge 75, Type (0, 0), BuildingBlock: KIFKEQ_clean_linker_1, # of connection points: 2
#     Edge 76, Type (0, 0), BuildingBlock: KIFKEQ_clean_linker_1, # of connection points: 2
#     Edge 77, Type (0, 0), BuildingBlock: KIFKEQ_clean_linker_1, # of connection points: 2
#     Edge 78, Type (0, 0), BuildingBlock: KIFKEQ_clean_linker_1, # of connection points: 2
#     Edge 79, Type (0, 0), BuildingBlock: KIFKEQ_clean_linker_1, # of connection points: 2
#     Edge 80, Type (0, 0), BuildingBlock: KIFKEQ_clean_linker_1, # of connection points: 2
#     Edge 81, Type (0, 0), BuildingBlock: KIFKEQ_clean_linker_1, # of connection points: 2
#     Edge 82, Type (0, 0), BuildingBlock: KIFKEQ_clean_linker_1, # of connection points: 2
#     Edge 83, Type (0, 0), BuildingBlock: KIFKEQ_clean_linker_1, # of connection points: 2
#     Edge 84, Type (0, 0), BuildingBlock: KIFKEQ_clean_linker_1, # of connection points: 2
#     Edge 85, Type (0, 0), BuildingBlock: KIFKEQ_clean_linker_1, # of connection points: 2
#     Edge 86, Type (0, 0), BuildingBlock: KIFKEQ_clean_linker_1, # of connection points: 2
#     Edge 87, Type (0, 0), BuildingBlock: KIFKEQ_clean_linker_1, # of connection points: 2
#     Edge 88, Type (0, 0), BuildingBlock: KIFKEQ_clean_linker_1, # of connection points: 2
#     Edge 89, Type (0, 0), BuildingBlock: KIFKEQ_clean_linker_1, # of connection points: 2
#     Edge 90, Type (0, 0), BuildingBlock: KIFKEQ_clean_linker_1, # of connection points: 2
#     Edge 91, Type (0, 0), BuildingBlock: KIFKEQ_clean_linker_1, # of connection points: 2
#     Edge 92, Type (0, 0), BuildingBlock: KIFKEQ_clean_linker_1, # of connection points: 2
#     Edge 93, Type (0, 0), BuildingBlock: KIFKEQ_clean_linker_1, # of connection points: 2
#     Edge 94, Type (0, 0), BuildingBlock: KIFKEQ_clean_linker_1, # of connection points: 2
#     Edge 95, Type (0, 0), BuildingBlock: KIFKEQ_clean_linker_1, # of connection points: 2
#     Edge 96, Type (0, 0), BuildingBlock: KIFKEQ_clean_linker_1, # of connection points: 2
#     Edge 97, Type (0, 0), BuildingBlock: KIFKEQ_clean_linker_1, # of connection points: 2
#     Edge 98, Type (0, 0), BuildingBlock: KIFKEQ_clean_linker_1, # of connection points: 2
#     Edge 99, Type (0, 0), BuildingBlock: KIFKEQ_clean_linker_1, # of connection points: 2
#     Edge 100, Type (0, 0), BuildingBlock: KIFKEQ_clean_linker_1, # of connection points: 2
#     Edge 101, Type (0, 0), BuildingBlock: KIFKEQ_clean_linker_1, # of connection points: 2
#     Edge 102, Type (0, 0), BuildingBlock: KIFKEQ_clean_linker_1, # of connection points: 2
#     Edge 103, Type (0, 0), BuildingBlock: KIFKEQ_clean_linker_1, # of connection points: 2
#     Edge 104, Type (0, 0), BuildingBlock: KIFKEQ_clean_linker_1, # of connection points: 2
#     Edge 105, Type (0, 0), BuildingBlock: KIFKEQ_clean_linker_1, # of connection points: 2
#     Edge 106, Type (0, 0), BuildingBlock: KIFKEQ_clean_linker_1, # of connection points: 2
#     Edge 107, Type (0, 0), BuildingBlock: KIFKEQ_clean_linker_1, # of connection points: 2
#     Edge 108, Type (0, 0), BuildingBlock: KIFKEQ_clean_linker_1, # of connection points: 2
#     Edge 109, Type (0, 0), BuildingBlock: KIFKEQ_clean_linker_1, # of connection points: 2
#     Edge 110, Type (0, 0), BuildingBlock: KIFKEQ_clean_linker_1, # of connection points: 2
#     Edge 111, Type (0, 0), BuildingBlock: KIFKEQ_clean_linker_1, # of connection points: 2
#     Edge 112, Type (0, 0), BuildingBlock: KIFKEQ_clean_linker_1, # of connection points: 2
#     Edge 113, Type (0, 0), BuildingBlock: KIFKEQ_clean_linker_1, # of connection points: 2
#     Edge 114, Type (0, 0), BuildingBlock: KIFKEQ_clean_linker_1, # of connection points: 2
#     Edge 115, Type (0, 0), BuildingBlock: KIFKEQ_clean_linker_1, # of connection points: 2
#     Edge 116, Type (0, 0), BuildingBlock: KIFKEQ_clean_linker_1, # of connection points: 2
#     Edge 117, Type (0, 0), BuildingBlock: KIFKEQ_clean_linker_1, # of connection points: 2
#     Edge 118, Type (0, 0), BuildingBlock: KIFKEQ_clean_linker_1, # of connection points: 2
#     Edge 119, Type (0, 0), BuildingBlock: KIFKEQ_clean_linker_1, # of connection points: 2
#     Edge 120, Type (0, 0), BuildingBlock: KIFKEQ_clean_linker_1, # of connection points: 2
#     Edge 121, Type (0, 0), BuildingBlock: KIFKEQ_clean_linker_1, # of connection points: 2
#     Edge 122, Type (0, 0), BuildingBlock: KIFKEQ_clean_linker_1, # of connection points: 2
#     Edge 123, Type (0, 0), BuildingBlock: KIFKEQ_clean_linker_1, # of connection points: 2
#     Edge 124, Type (0, 0), BuildingBlock: KIFKEQ_clean_linker_1, # of connection points: 2
#     Edge 125, Type (0, 0), BuildingBlock: KIFKEQ_clean_linker_1, # of connection points: 2
#     Edge 126, Type (0, 0), BuildingBlock: KIFKEQ_clean_linker_1, # of connection points: 2
#     Edge 127, Type (0, 0), BuildingBlock: KIFKEQ_clean_linker_1, # of connection points: 2
#     Edge 128, Type (0, 0), BuildingBlock: KIFKEQ_clean_linker_1, # of connection points: 2
#     Edge 129, Type (0, 0), BuildingBlock: KIFKEQ_clean_linker_1, # of connection points: 2
#     Edge 130, Type (0, 0), BuildingBlock: KIFKEQ_clean_linker_1, # of connection points: 2
#     Edge 131, Type (0, 0), BuildingBlock: KIFKEQ_clean_linker_1, # of connection points: 2
#     Edge 132, Type (0, 0), BuildingBlock: KIFKEQ_clean_linker_1, # of connection points: 2
#     Edge 133, Type (0, 0), BuildingBlock: KIFKEQ_clean_linker_1, # of connection points: 2
#     Edge 134, Type (0, 0), BuildingBlock: KIFKEQ_clean_linker_1, # of connection points: 2
#     Edge 135, Type (0, 0), BuildingBlock: KIFKEQ_clean_linker_1, # of connection points: 2
#     Edge 136, Type (0, 0), BuildingBlock: KIFKEQ_clean_linker_1, # of connection points: 2
#     Edge 137, Type (0, 0), BuildingBlock: KIFKEQ_clean_linker_1, # of connection points: 2
#     Edge 138, Type (0, 0), BuildingBlock: KIFKEQ_clean_linker_1, # of connection points: 2
#     Edge 139, Type (0, 0), BuildingBlock: KIFKEQ_clean_linker_1, # of connection points: 2
#     Edge 140, Type (0, 0), BuildingBlock: KIFKEQ_clean_linker_1, # of connection points: 2
#     Edge 141, Type (0, 0), BuildingBlock: KIFKEQ_clean_linker_1, # of connection points: 2
#     Edge 142, Type (0, 0), BuildingBlock: KIFKEQ_clean_linker_1, # of connection points: 2
#     Edge 143, Type (0, 0), BuildingBlock: KIFKEQ_clean_linker_1, # of connection points: 2
# Relax obj value: 0.179
# Max RMSD: 0.216
# Mean RMSD: 0.216
data_MOF--net-ukp--node1-NAWXER_clean_sbu_0--edge1-KIFKEQ_clean_linker_1
_symmetry_space_group_name_H-M    P1
_symmetry_Int_Tables_number       1
_symmetry_cell_setting            triclinic
loop_
_symmetry_equiv_pos_as_xyz
'x, y, z'
_cell_length_a     62.563411
_cell_length_b     62.624938
_cell_length_c     62.48426
_cell_angle_alpha  90.044151
_cell_angle_beta   90.118937
_cell_angle_gamma 90.123893
loop_
_atom_site_label
_atom_site_type_symbol
_atom_site_fract_x
_atom_site_fract_y
_atom_site_fract_z
_atom_type_partial_charge
C0 C 0.22668 0.27999 0.33475 0.0
C1 C 0.20105 0.24248 0.39833 0.0
O2 O 0.23718 0.28599 0.35152 0.0
Zn3 Zn 0.23674 0.27701 0.38633 0.0
O4 O 0.21249 0.26556 0.33653 0.0
Zn5 Zn 0.21619 0.26144 0.36655 0.0
O6 O 0.20528 0.29328 0.37828 0.0
O7 O 0.23215 0.30374 0.39871 0.0
O8 O 0.19742 0.23998 0.37857 0.0
O9 O 0.21527 0.25616 0.404 0.0
O10 O 0.26483 0.26709 0.39235 0.0
O11 O 0.24923 0.24889 0.3666 0.0
C12 C 0.21418 0.30756 0.39023 0.0
C13 C 0.26599 0.25311 0.37784 0.0
C14 C 1.01485 0.91032 0.63917 0.0
C15 C 0.97722 0.93885 0.57506 0.0
O16 O 1.00369 0.92693 0.64345 0.0
Zn17 Zn 0.98169 0.94723 0.62639 0.0
O18 O 1.01397 0.9027 0.62034 0.0
Zn19 Zn 0.99474 0.9237 0.60668 0.0
O20 O 1.01219 0.95411 0.60785 0.0
O21 O 0.9941 0.97498 0.62976 0.0
O22 O 0.98951 0.92265 0.57568 0.0
O23 O 0.97311 0.94887 0.59253 0.0
O24 O 0.95445 0.94296 0.63977 0.0
O25 O 0.9625 0.91651 0.61809 0.0
C26 C 1.00965 0.97235 0.617 0.0
C27 C 0.94909 0.92566 0.63064 0.0
C28 C 0.29726 0.75907 0.87953 0.0
C29 C 0.35131 0.7067 0.89786 0.0
O30 O 0.31536 0.76398 0.8711 0.0
Zn31 Zn 0.34814 0.75199 0.87314 0.0
O32 O 0.29668 0.74459 0.89369 0.0
Zn33 Zn 0.32622 0.73585 0.89208 0.0
O34 O 0.34464 0.75897 0.91022 0.0
O35 O 0.36605 0.77356 0.88661 0.0
O36 O 0.33281 0.70938 0.90572 0.0
O37 O 0.35934 0.72134 0.88588 0.0
O38 O 0.35262 0.7468 0.84299 0.0
O39 O 0.3286 0.72589 0.85842 0.0
C40 C 0.35971 0.77218 0.9058 0.0
C41 C 0.33924 0.7315 0.84176 0.0
C42 C 0.54306 0.04193 0.12118 0.0
C43 C 0.59807 0.09607 0.12713 0.0
O44 O 0.53667 0.05936 0.11235 0.0
Zn45 Zn 0.54886 0.09248 0.11104 0.0
O46 O 0.55988 0.04227 0.13247 0.0
Zn47 Zn 0.56788 0.0714 0.12706 0.0
O48 O 0.548 0.09022 0.14873 0.0
O49 O 0.52931 0.11009 0.12683 0.0
O50 O 0.59634 0.07774 0.13549 0.0
O51 O 0.58168 0.10425 0.11772 0.0
O52 O 0.54739 0.09676 0.08091 0.0
O53 O 0.57057 0.07228 0.0914 0.0
C54 C 0.53364 0.10456 0.1458 0.0
C55 C 0.56137 0.08286 0.07625 0.0
C56 C 0.20976 0.72006 0.17478 0.0
C57 C 0.17083 0.76434 0.12213 0.0
O58 O 0.21508 0.72205 0.15518 0.0
Zn59 Zn 0.19243 0.74292 0.14813 0.0
O60 O 0.19449 0.7313 0.18233 0.0
Zn61 Zn 0.17121 0.75417 0.17273 0.0
O62 O 0.14637 0.73686 0.1809 0.0
O63 O 0.16519 0.72292 0.15447 0.0
O64 O 0.1633 0.76584 0.14119 0.0
O65 O 0.18754 0.75323 0.11903 0.0
O66 O 0.20414 0.77001 0.16521 0.0
O67 O 0.18058 0.77908 0.18967 0.0
C68 C 0.14949 0.72174 0.16759 0.0
C69 C 0.19862 0.7821 0.18079 0.0
C70 C 0.50005 0.95466 0.44322 0.0
C71 C 0.55991 0.90786 0.42143 0.0
O72 O 0.50452 0.93693 0.45223 0.0
Zn73 Zn 0.52763 0.92884 0.43225 0.0
O74 O 0.51061 0.96061 0.42676 0.0
Zn75 Zn 0.53676 0.95133 0.40738 0.0
O76 O 0.52285 0.94824 0.37931 0.0
O77 O 0.51045 0.92487 0.40259 0.0
O78 O 0.55758 0.92458 0.40989 0.0
O79 O 0.54621 0.90368 0.4359 0.0
O80 O 0.54941 0.95284 0.44183 0.0
O81 O 0.55611 0.97518 0.41533 0.0
C82 C 0.50985 0.93322 0.38383 0.0
C83 C 0.55884 0.96946 0.43474 0.0
C84 C 0.3637 0.31913 0.6561 0.0
C85 C 0.32563 0.25566 0.68512 0.0
O86 O 0.37064 0.30786 0.67162 0.0
Zn87 Zn 0.34769 0.2859 0.67135 0.0
O88 O 0.34621 0.3139 0.64681 0.0
Zn89 Zn 0.32134 0.2911 0.64839 0.0
O90 O 0.29674 0.30855 0.65887 0.0
O91 O 0.32215 0.30399 0.68295 0.0
O92 O 0.31716 0.26502 0.66908 0.0
O93 O 0.34375 0.26207 0.69213 0.0
O94 O 0.35159 0.27008 0.64124 0.0
O95 O 0.32357 0.27625 0.62064 0.0
C96 C 0.3039 0.31139 0.67782 0.0
C97 C 0.3417 0.26737 0.62343 0.0
C98 C 0.02298 0.09099 0.8795 0.0
C99 C 0.9704 0.05318 0.92648 0.0
O100 O 1.01098 0.07563 0.8734 0.0
Zn101 Zn 0.99604 0.06962 0.90071 0.0
O102 O 0.02266 0.09673 0.89921 0.0
Zn103 Zn 1.00705 0.0888 0.92849 0.0
O104 O 0.02823 0.07431 0.94706 0.0
O105 O 0.01927 0.05454 0.91922 0.0
O106 O 0.98224 0.06745 0.93485 0.0
O107 O 0.97245 0.04855 0.90664 0.0
O108 O 0.97922 0.09815 0.90627 0.0
O109 O 0.99081 0.11493 0.93529 0.0
C110 C 0.02975 0.05689 0.93656 0.0
C111 C 0.97795 0.11372 0.91944 0.0
C112 C 0.39284 0.21536 0.25808 0.0
C113 C 0.40136 0.15508 0.30772 0.0
O114 O 0.38129 0.19857 0.25817 0.0
Zn115 Zn 0.39778 0.1821 0.27913 0.0
O116 O 0.41017 0.21572 0.26902 0.0
Zn117 Zn 0.42711 0.19635 0.29136 0.0
O118 O 0.45367 0.188 0.27677 0.0
O119 O 0.42571 0.17202 0.26244 0.0
O120 O 0.41703 0.16825 0.30742 0.0
O121 O 0.38655 0.15666 0.29377 0.0
O122 O 0.39446 0.2032 0.30528 0.0
O123 O 0.42563 0.21604 0.31623 0.0
C124 C 0.44596 0.17526 0.26285 0.0
C125 C 0.40532 0.21486 0.31803 0.0
C126 C 0.08098 0.09976 0.54899 0.0
C127 C 0.11307 0.15463 0.50318 0.0
O128 O 0.07242 0.11819 0.55204 0.0
Zn129 Zn 0.07604 0.15058 0.53837 0.0
O130 O 0.0957 0.09771 0.53513 0.0
Zn131 Zn 0.09603 0.12715 0.52658 0.0
O132 O 0.10671 0.14194 0.55668 0.0
O133 O 0.08273 0.16681 0.56325 0.0
O134 O 0.11669 0.13481 0.50482 0.0
O135 O 0.09827 0.16284 0.51474 0.0
O136 O 0.04786 0.15538 0.52679 0.0
O137 O 0.06447 0.12841 0.51163 0.0
C138 C 0.09956 0.15696 0.56874 0.0
C139 C 0.04756 0.13984 0.51378 0.0
C140 C 0.17812 0.8295 0.74041 0.0
C141 C 0.15171 0.86937 0.8039 0.0
O142 O 0.18549 0.84752 0.74656 0.0
Zn143 Zn 0.16463 0.85238 0.76996 0.0
O144 O 0.16182 0.82156 0.74989 0.0
Zn145 Zn 0.1408 0.82769 0.77584 0.0
O146 O 0.11319 0.83068 0.76091 0.0
O147 O 0.13487 0.85731 0.75307 0.0
O148 O 0.14119 0.85251 0.79897 0.0
O149 O 0.16662 0.87569 0.79152 0.0
O150 O 0.17474 0.82667 0.78959 0.0
O151 O 0.14871 0.80338 0.79476 0.0
C152 C 0.11673 0.84792 0.75068 0.0
C153 C 0.16797 0.80936 0.79798 0.0
C154 C 0.47901 0.90614 0.06812 0.0
C155 C 0.4351 0.86207 0.01855 0.0
O156 O 0.48194 0.88621 0.06501 0.0
Zn157 Zn 0.45781 0.88229 0.04462 0.0
O158 O 0.46368 0.91569 0.05869 0.0
Zn159 Zn 0.4385 0.91025 0.03679 0.0
O160 O 0.41429 0.91701 0.05552 0.0
O161 O 0.43127 0.88752 0.06488 0.0
O162 O 0.42916 0.88163 0.02012 0.0
O163 O 0.45096 0.85563 0.02961 0.0
O164 O 0.46979 0.90135 0.01972 0.0
O165 O 0.44927 0.92949 1.0143 0.0
C166 C 0.41626 0.90102 0.06796 0.0
C167 C 0.46606 0.91884 1.00992 0.0
C168 C 0.39209 0.88116 0.28409 0.0
C169 C 0.32807 0.85329 0.24598 0.0
O170 O 0.39628 0.86499 0.27228 0.0
Zn171 Zn 0.37897 0.84393 0.25158 0.0
O172 O 0.37304 0.88815 0.28453 0.0
Zn173 Zn 0.35944 0.86784 0.26451 0.0
O174 O 0.35941 0.83771 0.28173 0.0
O175 O 0.38223 0.81668 0.26513 0.0
O176 O 0.32872 0.86951 0.25832 0.0
O177 O 0.34538 0.84292 0.24228 0.0
O178 O 0.39263 0.84734 0.22462 0.0
O179 O 0.37232 0.87488 0.23275 0.0
C180 C 0.36875 0.81955 0.28001 0.0
C181 C 0.38467 0.86523 0.21947 0.0
C182 C 0.47868 0.14245 0.51562 0.0
C183 C 0.42462 0.14472 0.46055 0.0
O184 O 0.46219 0.13165 0.52161 0.0
Zn185 Zn 0.42933 0.1272 0.509 0.0
O186 O 0.4773 0.15424 0.49923 0.0
Zn187 Zn 0.44896 0.14626 0.49109 0.0
O188 O 0.4289 0.16482 0.51236 0.0
O189 O 0.40935 0.14076 0.52855 0.0
O190 O 0.44141 0.15574 0.46321 0.0
O191 O 0.41777 0.13318 0.47613 0.0
O192 O 0.42851 0.09668 0.50915 0.0
O193 O 0.4519 0.11089 0.48677 0.0
C194 C 0.41412 0.1602 0.5258 0.0
C195 C 0.44295 0.09426 0.49508 0.0
C196 C 0.12613 0.17618 0.78704 0.0
C197 C 0.18956 0.20434 0.75037 0.0
O198 O 0.12048 0.19132 0.77444 0.0
Zn199 Zn 0.13754 0.2123 0.75264 0.0
O200 O 0.1458 0.17176 0.78843 0.0
Zn201 Zn 0.15775 0.19194 0.76786 0.0
O202 O 0.15645 0.2249 0.78115 0.0
O203 O 0.13111 0.24033 0.76227 0.0
O204 O 0.18798 0.18976 0.76441 0.0
O205 O 0.17251 0.21409 0.74401 0.0
O206 O 0.12429 0.20649 0.72622 0.0
O207 O 0.1468 0.18122 0.73574 0.0
C208 C 0.14521 0.24156 0.77673 0.0
C209 C 0.13356 0.18907 0.72205 0.0
C210 C 0.11728 0.89442 0.95843 0.0
C211 C 0.07251 0.91038 0.02249 0.0
O212 O 0.12208 0.90873 0.97221 0.0
Zn213 Zn 0.0988 0.90287 0.99313 0.0
O214 O 0.10126 0.88216 0.96191 0.0
Zn215 Zn 0.07614 0.87707 0.98398 0.0
O216 O 0.0508 0.88594 0.9665 0.0
O217 O 0.07323 0.91216 0.97409 0.0
O218 O 0.06737 0.89417 1.01128 0.0
O219 O 0.0896 0.9207 1.01807 0.0
O220 O 0.10606 0.8726 1.00688 0.0
O221 O 0.08196 0.84884 0.99673 0.0
C222 C 0.05614 0.90561 0.96519 0.0
C223 C 0.09871 0.85347 1.00747 0.0
C224 C 0.2671 0.34887 0.19557 0.0
C225 C 0.32186 0.36644 0.14163 0.0
O226 O 0.26781 0.34091 0.17679 0.0
Zn227 Zn 0.29138 0.35876 0.16597 0.0
O228 O 0.27995 0.36398 0.20066 0.0
Zn229 Zn 0.30617 0.38149 0.18811 0.0
O230 O 0.2952 0.41105 0.18693 0.0
O231 O 0.27797 0.39009 0.16436 0.0
O232 O 0.32283 0.3776 0.15877 0.0
O233 O 0.30616 0.35378 0.13867 0.0
O234 O 0.31541 0.34642 0.18594 0.0
O235 O 0.32863 0.37046 0.20813 0.0
C236 C 0.28054 0.40854 0.17294 0.0
C237 C 0.32841 0.35135 0.2009 0.0
C238 C 0.80751 0.18664 0.84457 0.0
C239 C 0.769 0.12215 0.86508 0.0
O240 O 0.8138 0.17006 0.83426 0.0
Zn241 Zn 0.80614 0.13616 0.8327 0.0
O242 O 0.7925 0.18494 0.85817 0.0
Zn243 Zn 0.78857 0.15468 0.85423 0.0
O244 O 0.81917 0.14358 0.8665 0.0
O245 O 0.83334 0.12429 0.8407 0.0
O246 O 0.76699 0.14128 0.87136 0.0
O247 O 0.783 0.11781 0.85073 0.0
O248 O 0.79762 0.13362 0.80289 0.0
O249 O 0.77641 0.15449 0.82161 0.0
C250 C 0.83481 0.13248 0.85926 0.0
C251 C 0.7817 0.14614 0.8036 0.0
C252 C 0.11225 0.51113 0.10606 0.0
C253 C 0.1326 0.56789 0.15676 0.0
O254 O 0.10414 0.51409 0.1245 0.0
Zn255 Zn 0.12356 0.53691 0.13383 0.0
O256 O 0.12835 0.5224 0.10025 0.0
Zn257 Zn 0.14777 0.54804 0.11179 0.0
O258 O 0.17637 0.53538 0.11438 0.0
O259 O 0.15394 0.52128 0.13757 0.0
O260 O 0.14445 0.56679 0.14011 0.0
O261 O 0.11876 0.55333 0.16019 0.0
O262 O 0.11399 0.56126 0.11226 0.0
O263 O 0.1402 0.57044 0.09054 0.0
C264 C 0.17271 0.52202 0.12928 0.0
C265 C 0.12105 0.57298 0.09709 0.0
C266 C 0.75327 0.88512 0.3162 0.0
C267 C 0.70646 0.88198 0.38042 0.0
O268 O 0.75682 0.87243 0.33182 0.0
Zn269 Zn 0.73375 0.88302 0.35103 0.0
O270 O 0.73863 0.89919 0.31794 0.0
Zn271 Zn 0.71437 0.91001 0.33842 0.0
O272 O 0.72503 0.93894 0.34675 0.0
O273 O 0.74533 0.91346 0.35998 0.0
O274 O 0.70286 0.89708 0.36719 0.0
O275 O 0.72263 0.86987 0.37774 0.0
O276 O 0.70807 0.87432 0.33155 0.0
O277 O 0.68961 0.90191 0.31958 0.0
C278 C 0.7414 0.93338 0.35762 0.0
C279 C 0.69262 0.88172 0.32061 0.0
C280 C 0.92411 1.0125 0.0725 0.0
C281 C 0.92216 0.96608 0.13716 0.0
O282 O 0.93518 1.01581 0.08938 0.0
Zn283 Zn 0.92333 0.99254 0.10762 0.0
O284 O 0.91007 0.99769 0.0725 0.0
Zn285 Zn 0.89869 0.97274 0.09178 0.0
O286 O 0.86861 0.98119 0.09762 0.0
O287 O 0.89136 1.00139 0.11553 0.0
O288 O 0.90878 0.96185 0.12225 0.0
O289 O 0.93441 0.98235 0.13558 0.0
O290 O 0.93513 0.9672 0.08943 0.0
O291 O 0.90953 0.94851 0.07379 0.0
C292 C 0.87203 0.99616 0.11109 0.0
C293 C 0.9294 0.95182 0.07739 0.0
C294 C 0.28077 0.6631 0.70882 0.0
C295 C 0.22001 0.64491 0.6646 0.0
O296 O 0.28292 0.67158 0.69018 0.0
Zn297 Zn 0.2649 0.67016 0.65975 0.0
O298 O 0.26576 0.64984 0.71196 0.0
Zn299 Zn 0.25305 0.65168 0.68449 0.0
O300 O 0.27519 0.6342 0.6648 0.0
O301 O 0.28413 0.65622 0.63907 0.0
O302 O 0.2264 0.63733 0.68226 0.0
O303 O 0.23262 0.65714 0.65389 0.0
O304 O 0.25919 0.70073 0.65678 0.0
O305 O 0.24347 0.68531 0.68435 0.0
C306 C 0.28586 0.63797 0.64771 0.0
C307 C 0.24713 0.70211 0.67313 0.0
C308 C 0.16107 0.51673 0.43274 0.0
C309 C 0.10389 0.4667 0.4513 0.0
O310 O 0.16743 0.50377 0.44727 0.0
Zn311 Zn 0.15287 0.47823 0.46525 0.0
O312 O 0.14195 0.51542 0.42618 0.0
Zn313 Zn 0.1322 0.49128 0.44298 0.0
O314 O 0.12783 0.50254 0.47585 0.0
O315 O 0.15342 0.48726 0.49455 0.0
O316 O 0.10366 0.48148 0.43734 0.0
O317 O 0.12084 0.46368 0.4626 0.0
O318 O 0.17064 0.45456 0.45922 0.0
O319 O 0.14999 0.46319 0.43194 0.0
C320 C 0.13708 0.49917 0.49393 0.0
C321 C 0.16402 0.45079 0.4404 0.0
C322 C 0.4096 0.50779 0.98306 0.0
C323 C 0.39937 0.56115 0.92619 0.0
O324 O 0.42082 0.50918 0.96609 0.0
Zn325 Zn 0.40456 0.53191 0.95193 0.0
O326 O 0.39285 0.51932 0.98498 0.0
Zn327 Zn 0.37645 0.54413 0.96873 0.0
O328 O 0.34868 0.53162 0.96057 0.0
O329 O 0.37514 0.51743 0.9422 0.0
O330 O 0.38504 0.56077 0.94072 0.0
O331 O 0.41433 0.54736 0.92624 0.0
O332 O 0.41053 0.55615 0.97458 0.0
O333 O 0.38084 0.56741 0.99001 0.0
C334 C 0.35509 0.5186 0.94627 0.0
C335 C 0.40111 0.56838 0.98786 0.0
C336 C 0.66332 0.81276 0.88146 0.0
C337 C 0.71734 0.75928 0.86909 0.0
O338 O 0.65587 0.79821 0.86896 0.0
Zn339 Zn 0.66702 0.76669 0.85849 0.0
O340 O 0.68087 0.80948 0.89106 0.0
Zn341 Zn 0.68838 0.78309 0.87792 0.0
O342 O 0.68855 0.79141 0.84376 0.0
O343 O 0.6648 0.77085 0.82754 0.0
O344 O 0.71742 0.77517 0.88167 0.0
O345 O 0.69977 0.75376 0.85979 0.0
O346 O 0.64837 0.74544 0.87247 0.0
O347 O 0.67121 0.75896 0.89544 0.0
C348 C 0.67891 0.78554 0.82652 0.0
C349 C 0.656 0.74584 0.8913 0.0
C350 C 0.51652 0.40917 0.1688 0.0
C351 C 0.47176 0.45119 0.11876 0.0
O352 O 0.50452 0.42493 0.17325 0.0
Zn353 Zn 0.49349 0.43144 0.14464 0.0
O354 O 0.5181 0.40308 0.14923 0.0
Zn355 Zn 0.50571 0.41269 0.11846 0.0
O356 O 0.53015 0.42431 0.10233 0.0
O357 O 0.51999 0.44552 0.12853 0.0
O358 O 0.48323 0.43669 0.11022 0.0
O359 O 0.47234 0.45419 0.13897 0.0
O360 O 0.47412 0.40452 0.13601 0.0
O361 O 0.48874 0.38836 0.10823 0.0
C362 C 0.53214 0.44187 0.11249 0.0
C363 C 0.47352 0.38991 0.12166 0.0
C364 C 0.80534 0.25409 0.37122 0.0
C365 C 0.87465 0.21638 0.36677 0.0
O366 O 0.82014 0.25922 0.35815 0.0
Zn367 Zn 0.84236 0.23964 0.36903 0.0
O368 O 0.80923 0.24048 0.38598 0.0
Zn369 Zn 0.83379 0.22007 0.39712 0.0
O370 O 0.84207 0.23254 0.42519 0.0
O371 O 0.85136 0.25364 0.39858 0.0
O372 O 0.86313 0.21199 0.38302 0.0
O373 O 0.86919 0.23158 0.35432 0.0
O374 O 0.8265 0.21096 0.3624 0.0
O375 O 0.81931 0.19206 0.3914 0.0
C376 C 0.85048 0.24995 0.41873 0.0
C377 C 0.81876 0.19427 0.37105 0.0
C378 C 1.01019 0.59595 0.6624 0.0
C379 C 0.05573 0.54701 0.6208 0.0
O380 O 1.01746 0.5779 0.66818 0.0
Zn381 Zn 0.03294 0.57009 0.6423 0.0
O382 O 1.01445 0.60285 0.64353 0.0
Zn383 Zn 0.03198 0.59235 0.61589 0.0
O384 O 1.01056 0.58715 0.59335 0.0
O385 O 1.00864 0.56344 0.61937 0.0
O386 O 0.05021 0.56408 0.6111 0.0
O387 O 0.04938 0.54343 0.63985 0.0
O388 O 0.05896 0.59207 0.64085 0.0
O389 O 0.05538 0.61342 0.61305 0.0
C390 C 1.00203 0.57045 0.6013 0.0
C391 C 0.06628 0.60716 0.62912 0.0
C392 C 0.65497 0.2299 0.66868 0.0
C393 C 0.70818 0.28653 0.68225 0.0
O394 O 0.65324 0.24497 0.68223 0.0
Zn395 Zn 0.6797 0.26018 0.67481 0.0
O396 O 0.67112 0.22936 0.65615 0.0
Zn397 Zn 0.6999 0.24658 0.65035 0.0
O398 O 0.72106 0.22437 0.65866 0.0
O399 O 0.70242 0.2374 0.68557 0.0
O400 O 0.71305 0.27374 0.66696 0.0
O401 O 0.68998 0.28481 0.69122 0.0
O402 O 0.67425 0.27299 0.64338 0.0
O403 O 0.69591 0.25687 0.62083 0.0
C404 C 0.71705 0.22496 0.67867 0.0
C405 C 0.68123 0.27051 0.62423 0.0
C406 C 1.01314 0.49081 0.93464 0.0
C407 C 0.06694 0.43788 0.91748 0.0
O408 O 1.00876 0.47273 0.94338 0.0
Zn409 Zn 0.02209 0.44045 0.94269 0.0
O410 O 0.02854 0.49208 0.9215 0.0
Zn411 Zn 0.03779 0.46314 0.92387 0.0
O412 O 1.01344 0.44628 0.90653 0.0
O413 O 1.00013 0.42278 0.92892 0.0
O414 O 0.06395 0.45636 0.90977 0.0
O415 O 0.05262 0.42975 0.92976 0.0
O416 O 0.02758 0.43701 0.97322 0.0
O417 O 0.04696 0.46198 0.95753 0.0
C418 C 1.0002 0.43114 0.91042 0.0
C419 C 0.04181 0.45154 0.97446 0.0
C420 C 0.81769 0.84954 0.17654 0.0
C421 C 0.85337 0.79606 0.13 0.0
O422 O 0.81673 0.85057 0.15612 0.0
Zn423 Zn 0.83379 0.82407 0.15094 0.0
O424 O 0.8273 0.83408 0.18553 0.0
Zn425 Zn 0.84447 0.80634 0.17963 0.0
O426 O 0.87151 0.81608 0.19321 0.0
O427 O 0.8633 0.83427 0.16403 0.0
O428 O 0.85447 0.79276 0.15022 0.0
O429 O 0.84302 0.81219 0.12311 0.0
O430 O 0.81132 0.80155 0.16236 0.0
O431 O 0.82342 0.78584 0.19152 0.0
C432 C 0.87588 0.83082 0.17978 0.0
C433 C 0.80847 0.78851 0.17784 0.0
C434 C 0.4739 0.55357 0.39126 0.0
C435 C 0.52192 0.59811 0.34645 0.0
O436 O 0.47572 0.55124 0.37104 0.0
Zn437 Zn 0.49824 0.5735 0.36763 0.0
O438 O 0.48512 0.56753 0.40103 0.0
Zn439 Zn 0.50854 0.59125 0.39569 0.0
O440 O 0.49152 0.61546 0.40577 0.0
O441 O 0.47953 0.60061 0.37589 0.0
O442 O 0.52222 0.60283 0.36644 0.0
O443 O 0.51118 0.58195 0.34023 0.0
O444 O 0.52272 0.55799 0.38526 0.0
O445 O 0.53111 0.57824 0.41293 0.0
C446 C 0.47798 0.61484 0.39052 0.0
C447 C 0.53325 0.56083 0.40259 0.0
C448 C 0.91401 0.68329 0.75976 0.0
C449 C 0.85625 0.70855 0.80566 0.0
O450 O 0.91964 0.70103 0.76841 0.0
Zn451 Zn 0.90427 0.723 0.79045 0.0
O452 O 0.89562 0.67596 0.76385 0.0
Zn453 Zn 0.88518 0.69739 0.78341 0.0
O454 O 0.87803 0.72679 0.76553 0.0
O455 O 0.90275 0.74966 0.77584 0.0
O456 O 0.85715 0.69195 0.79398 0.0
O457 O 0.87233 0.72144 0.80637 0.0
O458 O 0.92291 0.72399 0.81417 0.0
O459 O 0.90369 0.69451 0.81332 0.0
C460 C 0.88607 0.74572 0.76503 0.0
C461 C 0.91736 0.70661 0.82288 0.0
C462 C 0.5426 0.62497 0.03014 0.0
C463 C 0.6054 0.63776 0.07408 0.0
O464 O 0.55871 0.61443 0.02287 0.0
Zn465 Zn 0.59329 0.61288 0.03047 0.0
O466 O 0.54558 0.63864 0.04483 0.0
Zn467 Zn 0.57549 0.63342 0.04885 0.0
O468 O 0.58971 0.64938 0.02137 0.0
O469 O 0.60882 0.62448 1.00601 0.0
O470 O 0.58771 0.64752 0.07333 0.0
O471 O 0.60987 0.62418 0.05933 0.0
O472 O 0.59581 0.58263 0.03459 0.0
O473 O 0.57515 0.59892 0.05811 0.0
C474 C 0.60253 0.64368 1.00641 0.0
C475 C 0.58363 0.58161 0.05083 0.0
C476 C 0.61322 0.33573 0.2767 0.0
C477 C 0.66107 0.3015 0.3302 0.0
O478 O 0.60746 0.3228 0.29134 0.0
Zn479 Zn 0.63561 0.31643 0.30425 0.0
O480 O 0.63318 0.33974 0.27426 0.0
Zn481 Zn 0.66305 0.33049 0.28795 0.0
O482 O 0.67733 0.31184 0.26661 0.0
O483 O 0.65037 0.29548 0.28213 0.0
O484 O 0.66983 0.31244 0.31543 0.0
O485 O 0.64079 0.29888 0.33038 0.0
O486 O 0.64614 0.34646 0.31691 0.0
O487 O 0.67495 0.35729 0.29954 0.0
C488 C 0.6662 0.29495 0.26925 0.0
C489 C 0.66137 0.35995 0.31453 0.0
C490 C 0.94024 0.43669 0.54058 0.0
C491 C 0.91253 0.36882 0.51104 0.0
O492 O 0.95273 0.42078 0.5441 0.0
Zn493 Zn 0.9525 0.38614 0.53811 0.0
O494 O 0.92239 0.43351 0.53128 0.0
Zn495 Zn 0.92624 0.40301 0.52697 0.0
O496 O 0.9236 0.39209 0.56007 0.0
O497 O 0.9535 0.37469 0.56629 0.0
O498 O 0.90452 0.38741 0.51064 0.0
O499 O 0.93029 0.36606 0.52092 0.0
O500 O 0.97813 0.38275 0.52216 0.0
O501 O 0.95461 0.40369 0.50633 0.0
C502 C 0.93572 0.38165 0.57297 0.0
C503 C 0.97328 0.39515 0.50688 0.0
C504 C 0.8991 0.37937 0.79383 0.0
C505 C 0.83865 0.35293 0.75024 0.0
O506 O 0.90326 0.36167 0.78448 0.0
Zn507 Zn 0.8879 0.34104 0.76198 0.0
O508 O 0.88163 0.38873 0.78949 0.0
Zn509 Zn 0.86914 0.36724 0.77009 0.0
O510 O 0.86546 0.33879 0.79024 0.0
O511 O 0.88823 0.3151 0.77738 0.0
O512 O 0.83951 0.37028 0.76087 0.0
O513 O 0.85532 0.341 0.74928 0.0
O514 O 0.90523 0.34116 0.73709 0.0
O515 O 0.88566 0.37021 0.7394 0.0
C516 C 0.87399 0.32013 0.79089 0.0
C517 C 0.89893 0.35855 0.72893 0.0
C518 C 0.9594 0.68663 0.97776 0.0
C519 C 1.0026 0.6641 0.03754 0.0
O520 O 0.94846 0.67436 0.99008 0.0
Zn521 Zn 0.95377 0.65945 0.0213 0.0
O522 O 0.97739 0.6936 0.98409 0.0
Zn523 Zn 0.97837 0.67863 1.01053 0.0
O524 O 0.97739 0.64541 0.99855 0.0
O525 O 0.94899 0.63027 1.01315 0.0
O526 O 1.00572 0.67938 0.02462 0.0
O527 O 0.98391 0.6556 0.03859 0.0
O528 O 0.933 0.67151 0.04057 0.0
O529 O 0.95593 0.69602 0.03054 0.0
C530 C 0.96519 0.62901 1.00095 0.0
C531 C 0.93907 0.6908 0.04101 0.0
C532 C 0.60997 0.6953 0.25144 0.0
C533 C 0.66039 0.74053 0.20918 0.0
O534 O 0.60406 0.71007 0.23867 0.0
Zn535 Zn 0.63267 0.72007 0.22912 0.0
O536 O 0.62995 0.6922 0.25459 0.0
Zn537 Zn 0.66016 0.70407 0.2449 0.0
O538 O 0.67202 0.71973 0.27003 0.0
O539 O 0.64422 0.73628 0.25611 0.0
O540 O 0.66821 0.72708 0.22225 0.0
O541 O 0.64011 0.74239 0.20732 0.0
O542 O 0.64468 0.69313 0.2129 0.0
O543 O 0.67248 0.67913 0.2297 0.0
C544 C 0.65918 0.73556 0.26999 0.0
C545 C 0.65943 0.67911 0.21395 0.0
C546 C 0.64256 0.40858 0.46101 0.0
C547 C 0.59626 0.42779 0.52257 0.0
O548 O 0.64681 0.42302 0.47477 0.0
Zn549 Zn 0.62248 0.41816 0.49439 0.0
O550 O 0.62616 0.39665 0.46362 0.0
Zn551 Zn 0.59999 0.39292 0.48473 0.0
O552 O 0.5759 0.40144 0.46533 0.0
O553 O 0.59759 0.42783 0.4743 0.0
O554 O 0.59056 0.41144 0.51165 0.0
O555 O 0.61402 0.43699 0.51841 0.0
O556 O 0.62789 0.38824 0.5098 0.0
O557 O 0.60467 0.36453 0.49784 0.0
C558 C 0.58099 0.4212 0.46449 0.0
C559 C 0.62033 0.36918 0.5101 0.0
C560 C 0.7953 0.86838 0.71214 0.0
C561 C 0.75007 0.92558 0.68081 0.0
O562 O 0.79337 0.88686 0.72061 0.0
Zn563 Zn 0.77251 0.89791 0.69904 0.0
O564 O 0.78469 0.86396 0.69526 0.0
Zn565 Zn 0.76299 0.8764 0.67295 0.0
O566 O 0.782 0.8744 0.64783 0.0
O567 O 0.79279 0.8981 0.67181 0.0
O568 O 0.75006 0.90788 0.67044 0.0
O569 O 0.76029 0.92685 0.69844 0.0
O570 O 0.74593 0.87819 0.70615 0.0
O571 O 0.73861 0.85705 0.67886 0.0
C572 C 0.79541 0.88857 0.65389 0.0
C573 C 0.73474 0.86314 0.69794 0.0
C574 C 0.27282 0.64512 0.30113 0.0
C575 C 0.32692 0.63045 0.35461 0.0
O576 O 0.26875 0.65487 0.31877 0.0
Zn577 Zn 0.28213 0.65557 0.35101 0.0
O578 O 0.28753 0.63121 0.30071 0.0
Zn579 Zn 0.29723 0.63493 0.32972 0.0
O580 O 0.27386 0.61898 0.3494 0.0
O581 O 0.26028 0.64412 0.36973 0.0
O582 O 0.32353 0.6213 0.33679 0.0
O583 O 0.31272 0.64317 0.36216 0.0
O584 O 0.28836 0.6857 0.35325 0.0
O585 O 0.30727 0.66842 0.32895 0.0
C586 C 0.26079 0.62467 0.36412 0.0
C587 C 0.3026 0.68585 0.33873 0.0
C588 C 0.60822 0.03299 0.5734 0.0
C589 C 0.61658 0.08559 0.63171 0.0
O590 O 0.59623 0.03432 0.58982 0.0
Zn591 Zn 0.61249 0.05656 0.6052 0.0
O592 O 0.62517 0.04441 0.57244 0.0
Zn593 Zn 0.64118 0.06877 0.58985 0.0
O594 O 0.66831 0.05526 0.59776 0.0
O595 O 0.64134 0.04129 0.61563 0.0
O596 O 0.63178 0.08547 0.61802 0.0
O597 O 0.60178 0.07162 0.63055 0.0
O598 O 0.60777 0.0813 0.58284 0.0
O599 O 0.63822 0.09209 0.56854 0.0
C600 C 0.66144 0.04204 0.61163 0.0
C601 C 0.61793 0.09349 0.57007 0.0
C602 C 0.20064 0.38278 0.81853 0.0
C603 C 0.25567 0.42518 0.85709 0.0
O604 O 0.20355 0.40272 0.81531 0.0
Zn605 Zn 0.22774 0.40558 0.8359 0.0
O606 O 0.21232 0.37281 0.83189 0.0
Zn607 Zn 0.23787 0.37703 0.85326 0.0
O608 O 0.22248 0.36932 0.87963 0.0
O609 O 0.21122 0.39932 0.86476 0.0
O610 O 0.25527 0.40522 0.86173 0.0
O611 O 0.2429 0.43227 0.84287 0.0
O612 O 0.25016 0.38654 0.81907 0.0
O613 O 0.25789 0.3581 0.83842 0.0
C614 C 0.21005 0.38543 0.8797 0.0
C615 C 0.25972 0.36861 0.82105 0.0
C616 C 0.39204 0.52851 0.59091 0.0
C617 C 0.45627 0.48723 0.57273 0.0
O618 O 0.38725 0.51399 0.57719 0.0
Zn619 Zn 0.40481 0.488 0.56213 0.0
O620 O 0.41104 0.52932 0.59787 0.0
Zn621 Zn 0.42387 0.50594 0.58184 0.0
O622 O 0.42373 0.51511 0.54746 0.0
O623 O 0.40057 0.49322 0.53232 0.0
O624 O 0.45414 0.50275 0.58567 0.0
O625 O 0.43958 0.47978 0.56308 0.0
O626 O 0.39108 0.46262 0.5719 0.0
O627 O 0.41228 0.47604 0.59656 0.0
C628 C 0.414 0.50828 0.53057 0.0
C629 C 0.39948 0.46117 0.59029 0.0
C630 C 0.72465 0.15325 0.21874 0.0
C631 C 0.76914 0.09426 0.18746 0.0
O632 O 0.72122 0.13364 0.2234 0.0
Zn633 Zn 0.74586 0.12151 0.20639 0.0
O634 O 0.7406 0.15807 0.20706 0.0
Zn635 Zn 0.76637 0.14549 0.19006 0.0
O636 O 0.75682 0.1559 0.16163 0.0
O637 O 0.7357 0.13116 0.17565 0.0
O638 O 0.77459 0.11341 0.18279 0.0
O639 O 0.75405 0.09117 0.20086 0.0
O640 O 0.77111 0.13261 0.22536 0.0
O641 O 0.7899 0.15694 0.20818 0.0
C642 C 0.74024 0.14399 0.16043 0.0
C643 C 0.78646 0.14604 0.22508 0.0
C644 C 0.60309 0.02981 0.93473 0.0
C645 C 0.62526 0.96588 0.89452 0.0
O646 O 0.5951 0.02441 0.91672 0.0
Zn647 Zn 0.61368 0.99934 0.91213 0.0
O648 O 0.618 0.01867 0.94308 0.0
Zn649 Zn 0.63602 0.99086 0.93806 0.0
O650 O 0.66508 1.00243 0.93655 0.0
O651 O 0.64474 1.01324 0.90972 0.0
O652 O 0.63501 0.96913 0.91225 0.0
O653 O 0.61146 0.97929 0.88788 0.0
O654 O 0.60114 0.97972 0.93616 0.0
O655 O 0.62461 0.9733 0.96184 0.0
C656 C 0.66273 1.01354 0.91962 0.0
C657 C 0.60593 0.97095 0.95393 0.0
C658 C 0.85785 0.03002 0.41808 0.0
C659 C 0.91364 0.07204 0.45589 0.0
O660 O 0.85505 0.043 0.43351 0.0
Zn661 Zn 0.88482 0.05223 0.4377 0.0
O662 O 0.87685 0.0273 0.41081 0.0
Zn663 Zn 0.90879 0.03884 0.41685 0.0
O664 O 0.92448 1.0133 0.42618 0.0
O665 O 0.90053 0.02406 0.44969 0.0
O666 O 0.92027 0.06005 0.44076 0.0
O667 O 0.89367 0.07317 0.45985 0.0
O668 O 0.89117 0.07075 0.40981 0.0
O669 O 0.9168 0.05537 0.39121 0.0
C670 C 0.91545 1.01109 0.44432 0.0
C671 C 0.90377 0.07076 0.3937 0.0
H672 H 0.11555 0.19851 0.50064 0.0
H673 H 0.14017 0.14095 0.47177 0.0
H674 H 0.13725 0.21999 0.47606 0.0
H675 H 0.16165 0.16233 0.4473 0.0
H676 H 0.17621 0.20732 0.39101 0.0
H677 H 0.15521 0.18678 0.41655 0.0
H678 H 0.1763 0.22831 0.46757 0.0
H679 H 0.19757 0.24898 0.44187 0.0
C680 C 0.12553 0.19042 0.48906 0.0
C681 C 0.12601 0.16796 0.48819 0.0
C682 C 0.13809 0.20275 0.47507 0.0
C683 C 0.15119 0.19291 0.45965 0.0
C684 C 0.15161 0.17046 0.4588 0.0
C685 C 0.13932 0.15818 0.47293 0.0
C686 C 0.17647 0.21211 0.40767 0.0
C687 C 0.18868 0.22982 0.41434 0.0
C688 C 0.16446 0.20024 0.42235 0.0
C689 C 0.16405 0.20583 0.44415 0.0
C690 C 0.17613 0.22364 0.45087 0.0
C691 C 0.18844 0.23539 0.43617 0.0
H692 H 0.11497 0.88842 0.73422 0.0
H693 H 0.0821 0.8278 0.73197 0.0
H694 H 0.08997 0.90289 0.70793 0.0
H695 H 0.05715 0.84229 0.70534 0.0
H696 H 0.03434 0.8708 0.63919 0.0
H697 H 0.05782 0.85548 0.66662 0.0
H698 H 0.0511 0.9126 0.70461 0.0
H699 H 0.02749 0.92779 0.67743 0.0
C700 C 0.10235 0.87816 0.72819 0.0
C701 C 0.1006 0.8569 0.73536 0.0
C702 C 0.08793 0.88652 0.71312 0.0
C703 C 0.07148 0.8738 0.70441 0.0
C704 C 0.06969 0.85253 0.71155 0.0
C705 C 0.08392 0.84426 0.72696 0.0
C706 C 0.03779 0.88008 0.65342 0.0
C707 C 0.02894 0.90059 0.65599 0.0
C708 C 0.05119 0.87122 0.66923 0.0
C709 C 0.05646 0.88278 0.68789 0.0
C710 C 0.04759 0.90327 0.69042 0.0
C711 C 0.03393 0.91196 0.67483 0.0
H712 H 0.39415 0.86564 1.00375 0.0
H713 H 0.45012 0.82577 0.99889 0.0
H714 H 0.37571 0.84318 0.97748 0.0
H715 H 0.43176 0.80357 0.97214 0.0
H716 H 0.39938 0.79059 0.90489 0.0
H717 H 0.41742 0.81088 0.93312 0.0
H718 H 0.36231 0.80341 0.9738 0.0
H719 H 0.34436 0.78257 0.9457 0.0
C720 C 0.40251 0.85203 0.99713 0.0
C721 C 0.42364 0.84753 1.00346 0.0
C722 C 0.39189 0.83912 0.98214 0.0
C723 C 0.40227 0.82162 0.97268 0.0
C724 C 0.42336 0.817 0.97907 0.0
C725 C 0.43384 0.82965 0.99447 0.0
C726 C 0.39106 0.79325 0.91984 0.0
C727 C 0.37035 0.78498 0.92297 0.0
C728 C 0.40149 0.80476 0.93608 0.0
C729 C 0.39134 0.80871 0.95573 0.0
C730 C 0.37054 0.80066 0.95881 0.0
C731 C 0.36028 0.78871 0.94273 0.0
H732 H 0.49014 0.17389 0.26075 0.0
H733 H 0.43319 0.15158 0.22847 0.0
H734 H 0.51219 0.15625 0.23348 0.0
H735 H 0.45505 0.13418 0.20154 0.0
H736 H 0.49854 0.13009 0.14339 0.0
H737 H 0.47864 0.14669 0.17225 0.0
H738 H 0.52169 0.11897 0.2185 0.0
H739 H 0.54187 0.10208 0.18931 0.0
C740 C 0.48231 0.16522 0.24792 0.0
C741 C 0.45983 0.16431 0.24681 0.0
C742 C 0.49496 0.15501 0.23237 0.0
C743 C 0.4854 0.1439 0.21522 0.0
C744 C 0.46297 0.14281 0.21434 0.0
C745 C 0.4504 0.15277 0.2299 0.0
C746 C 0.50388 0.12745 0.15967 0.0
C747 C 0.52184 0.11461 0.16394 0.0
C748 C 0.49235 0.13694 0.17627 0.0
C749 C 0.49845 0.13409 0.19774 0.0
C750 C 0.51662 0.12156 0.20213 0.0
C751 C 0.5281 0.11178 0.18542 0.0
H752 H 0.13039 0.7811 0.12108 0.0
H753 H 0.18663 0.77293 0.08201 0.0
H754 H 0.11288 0.80022 0.0918 0.0
H755 H 0.16914 0.7923 0.05282 0.0
H756 H 0.14019 0.85363 0.02076 0.0
H757 H 0.15727 0.83049 0.04707 0.0
H758 H 0.09863 0.79474 0.05369 0.0
H759 H 0.08149 0.81787 0.02696 0.0
C760 C 0.13903 0.78333 0.10624 0.0
C761 C 0.16001 0.77552 0.104 0.0
C762 C 0.1289 0.79416 0.08938 0.0
C763 C 0.13957 0.79781 0.06992 0.0
C764 C 0.16049 0.78987 0.06762 0.0
C765 C 0.1705 0.77872 0.08435 0.0
C766 C 0.13097 0.84066 0.02758 0.0
C767 C 0.10943 0.83762 0.0217 0.0
C768 C 0.14082 0.82733 0.04264 0.0
C769 C 0.12934 0.81078 0.05258 0.0
C770 C 0.1079 0.80743 0.04643 0.0
C771 C 0.09812 0.82057 0.031 0.0
H772 H 0.47284 0.91184 0.3926 0.0
H773 H 0.50837 0.93892 0.34002 0.0
H774 H 0.44448 0.90108 0.36797 0.0
H775 H 0.47998 0.92768 0.31519 0.0
H776 H 0.43537 0.87801 0.27865 0.0
H777 H 0.46382 0.8917 0.30185 0.0
H778 H 0.41656 0.91932 0.34365 0.0
H779 H 0.38802 0.90597 0.32021 0.0
C780 C 0.4747 0.9154 0.37575 0.0
C781 C 0.49301 0.92621 0.36833 0.0
C782 C 0.45831 0.90936 0.36164 0.0
C783 C 0.45988 0.91358 0.33961 0.0
C784 C 0.47829 0.92414 0.33207 0.0
C785 C 0.49455 0.93061 0.34629 0.0
C786 C 0.43101 0.88718 0.29268 0.0
C787 C 0.40934 0.89084 0.29755 0.0
C788 C 0.44736 0.8951 0.30592 0.0
C789 C 0.4425 0.90654 0.32465 0.0
C790 C 0.42085 0.91045 0.32941 0.0
C791 C 0.40449 0.90289 0.31591 0.0
H792 H 0.32222 0.24506 0.59058 0.0
H793 H 0.38394 0.25819 0.61871 0.0
H794 H 0.3391 0.22012 0.56537 0.0
H795 H 0.40069 0.23369 0.5935 0.0
H796 H 0.42613 0.20202 0.53214 0.0
H797 H 0.40807 0.22917 0.5538 0.0
H798 H 0.35815 0.18402 0.56883 0.0
H799 H 0.37626 0.15683 0.54748 0.0
C800 C 0.33938 0.24286 0.59121 0.0
C801 C 0.35169 0.2536 0.60673 0.0
C802 C 0.34904 0.22848 0.57687 0.0
C803 C 0.37128 0.22489 0.57741 0.0
C804 C 0.38359 0.23618 0.59248 0.0
C805 C 0.37393 0.25017 0.60703 0.0
C806 C 0.41125 0.19791 0.53997 0.0
C807 C 0.40275 0.17717 0.53812 0.0
C808 C 0.40092 0.21346 0.55243 0.0
C809 C 0.38162 0.2088 0.56305 0.0
C810 C 0.37285 0.18823 0.56073 0.0
C811 C 0.38335 0.17259 0.54859 0.0
H812 H 0.0852 0.18751 0.79846 0.0
H813 H 0.13057 0.13594 0.80351 0.0
H814 H 0.05937 0.16668 0.81943 0.0
H815 H 0.10458 0.115 0.82391 0.0
H816 H 0.04183 0.0772 0.84191 0.0
H817 H 0.0661 0.0975 0.81849 0.0
H818 H 0.05915 0.15272 0.85913 0.0
H819 H 0.03557 0.13246 0.8827 0.0
C820 C 0.08962 0.1717 0.80389 0.0
C821 C 0.11005 0.1635 0.79939 0.0
C822 C 0.07483 0.15978 0.81593 0.0
C823 C 0.07987 0.13912 0.82329 0.0
C824 C 0.1001 0.13075 0.81835 0.0
C825 C 0.11506 0.14285 0.80678 0.0
C826 C 0.04543 0.09369 0.84576 0.0
C827 C 0.03681 0.10313 0.86426 0.0
C828 C 0.05938 0.10529 0.83241 0.0
C829 C 0.06454 0.12677 0.83692 0.0
C830 C 0.05543 0.1363 0.85509 0.0
C831 C 0.04198 0.1246 0.86867 0.0
H832 H 0.24189 0.40504 0.15309 0.0
H833 H 0.28532 0.45214 0.17901 0.0
H834 H 0.21692 0.43316 0.14331 0.0
H835 H 0.26017 0.48056 0.16876 0.0
H836 H 0.21629 0.52308 0.12209 0.0
H837 H 0.24314 0.49677 0.13339 0.0
H838 H 0.19375 0.45969 0.164 0.0
H839 H 0.16712 0.4859 0.15312 0.0
C840 C 0.24621 0.42143 0.15664 0.0
C841 C 0.2657 0.42624 0.1669 0.0
C842 C 0.23178 0.43757 0.15109 0.0
C843 C 0.23647 0.45913 0.15529 0.0
C844 C 0.2561 0.46411 0.16523 0.0
C845 C 0.27046 0.44783 0.17119 0.0
C846 C 0.21119 0.50938 0.13134 0.0
C847 C 0.18947 0.50665 0.13661 0.0
C848 C 0.2266 0.49437 0.13791 0.0
C849 C 0.22059 0.47606 0.14953 0.0
C850 C 0.19893 0.47349 0.15494 0.0
C851 C 0.18365 0.48862 0.14874 0.0
H852 H 0.73201 0.12766 0.88727 0.0
H853 H 0.77394 0.07851 0.86316 0.0
H854 H 0.70781 0.10037 0.90093 0.0
H855 H 0.74963 0.05106 0.87731 0.0
H856 H 0.70587 1.01367 0.92947 0.0
H857 H 0.73311 0.03904 0.91659 0.0
H858 H 0.68497 0.07172 0.87961 0.0
H859 H 0.65809 0.04655 0.89193 0.0
C860 C 0.73618 0.11103 0.88503 0.0
C861 C 0.75487 0.10528 0.87399 0.0
C862 C 0.72228 0.09541 0.89285 0.0
C863 C 0.72685 0.07364 0.89015 0.0
C864 C 0.74581 0.06776 0.87968 0.0
C865 C 0.75961 0.08345 0.87148 0.0
C866 C 0.70119 0.02621 0.9185 0.0
C867 C 0.6798 0.02806 0.91175 0.0
C868 C 0.71676 0.04063 0.91108 0.0
C869 C 0.71107 0.05737 0.8972 0.0
C870 C 0.68977 0.05906 0.89041 0.0
C871 C 0.67439 0.04454 0.89744 0.0
H872 H 0.77973 0.92467 0.37617 0.0
H873 H 0.73872 0.97777 0.36018 0.0
H874 H 0.80631 0.94908 0.39024 0.0
H875 H 0.76584 1.00255 0.37466 0.0
H876 H 0.81444 0.03417 0.42563 0.0
H877 H 0.7852 1.01246 0.41071 0.0
H878 H 0.83095 0.9761 0.37428 0.0
H879 H 0.85992 0.99757 0.38895 0.0
C880 C 0.77626 0.9416 0.37568 0.0
C881 C 0.75694 0.94914 0.36687 0.0
C882 C 0.79168 0.95566 0.38371 0.0
C883 C 0.78838 0.97782 0.38343 0.0
C884 C 0.76888 0.98554 0.37514 0.0
C885 C 0.75338 0.97135 0.36678 0.0
C886 C 0.81823 0.0216 0.41436 0.0
C887 C 0.83965 0.01759 0.40866 0.0
C888 C 0.80144 1.00926 0.4057 0.0
C889 C 0.8057 0.99242 0.39138 0.0
C890 C 0.82706 0.98874 0.38544 0.0
C891 C 0.84373 1.00115 0.39386 0.0
H892 H 0.83091 1.00479 0.09707 0.0
H893 H 0.87306 1.01302 0.1512 0.0
H894 H 0.80341 0.02594 0.11558 0.0
H895 H 0.84555 0.03346 0.16978 0.0
H896 H 0.78382 0.05594 0.20386 0.0
H897 H 0.80671 0.02965 0.18559 0.0
H898 H 0.80252 0.06633 0.12734 0.0
H899 H 0.78037 0.09272 0.14565 0.0
C900 C 0.83419 1.0108 0.113 0.0
C901 C 0.85427 1.00731 0.12255 0.0
C902 C 0.81847 0.02295 0.1236 0.0
C903 C 0.82223 0.03135 0.14424 0.0
C904 C 0.842 0.0271 0.15404 0.0
C905 C 0.85784 1.01549 0.14327 0.0
C906 C 0.78751 0.05814 0.18707 0.0
C907 C 0.78029 0.07643 0.17623 0.0
C908 C 0.8007 0.04318 0.17663 0.0
C909 C 0.80645 0.04586 0.15495 0.0
C910 C 0.7983 0.06363 0.14393 0.0
C911 C 0.78566 0.0788 0.15448 0.0
H912 H 0.30256 0.63526 0.60701 0.0
H913 H 0.30264 0.60309 0.66808 0.0
H914 H 0.32727 0.60835 0.59284 0.0
H915 H 0.32764 0.5766 0.65405 0.0
H916 H 0.39316 0.55202 0.62781 0.0
H917 H 0.36699 0.57775 0.64097 0.0
H918 H 0.328 0.56684 0.58501 0.0
H919 H 0.35405 0.54056 0.57198 0.0
C920 C 0.30781 0.62247 0.61742 0.0
C921 C 0.30054 0.6214 0.63872 0.0
C922 C 0.32191 0.60699 0.60925 0.0
C923 C 0.3295 0.59032 0.62231 0.0
C924 C 0.32223 0.58928 0.64359 0.0
C925 C 0.3078 0.60445 0.6516 0.0
C926 C 0.379 0.55501 0.61828 0.0
C927 C 0.37576 0.54413 0.59881 0.0
C928 C 0.36393 0.56974 0.6259 0.0
C929 C 0.34537 0.5744 0.61408 0.0
C930 C 0.34218 0.5637 0.59448 0.0
C931 C 0.35705 0.54857 0.58706 0.0
H932 H 0.22533 0.63243 0.38849 0.0
H933 H 0.26361 0.58096 0.36326 0.0
H934 H 0.20152 0.60648 0.40536 0.0
H935 H 0.23985 0.555 0.3804 0.0
H936 H 0.20488 0.51774 0.4349 0.0
H937 H 0.22916 0.54366 0.41844 0.0
H938 H 0.17512 0.57801 0.3929 0.0
H939 H 0.15086 0.55204 0.40909 0.0
C940 C 0.22871 0.61559 0.38658 0.0
C941 C 0.24639 0.6088 0.37447 0.0
C942 C 0.215 0.60071 0.39618 0.0
C943 C 0.2188 0.57867 0.39423 0.0
C944 C 0.23659 0.57187 0.38233 0.0
C945 C 0.25012 0.58675 0.37241 0.0
C946 C 0.19817 0.53085 0.42583 0.0
C947 C 0.1759 0.53279 0.42333 0.0
C948 C 0.2121 0.54562 0.41629 0.0
C949 C 0.20407 0.56289 0.40436 0.0
C950 C 0.1818 0.56498 0.40212 0.0
C951 C 0.16791 0.55003 0.41133 0.0
H952 H 0.3111 0.5219 0.94306 0.0
H953 H 0.36465 0.48485 0.92046 0.0
H954 H 0.28691 0.50015 0.92092 0.0
H955 H 0.34068 0.46337 0.89856 0.0
H956 H 0.28937 0.41378 0.88232 0.0
H957 H 0.3124 0.43653 0.90396 0.0
H958 H 0.27839 0.49218 0.88178 0.0
H959 H 0.2551 0.46923 0.85991 0.0
C960 C 0.31771 0.50909 0.93349 0.0
C961 C 0.33986 0.50512 0.93367 0.0
C962 C 0.30387 0.49675 0.92066 0.0
C963 C 0.31182 0.47996 0.90794 0.0
C964 C 0.33393 0.47598 0.90828 0.0
C965 C 0.34772 0.4884 0.92084 0.0
C966 C 0.28679 0.43087 0.88189 0.0
C967 C 0.27038 0.43962 0.86922 0.0
C968 C 0.30008 0.44395 0.89431 0.0
C969 C 0.29731 0.46623 0.89466 0.0
C970 C 0.28087 0.47508 0.88203 0.0
C971 C 0.26766 0.46194 0.86933 0.0
H972 H 0.63907 0.64173 0.98252 0.0
H973 H 0.58314 0.68065 0.99255 0.0
H974 H 0.65165 0.66674 0.95519 0.0
H975 H 0.59549 0.70537 0.96461 0.0
H976 H 0.61662 0.72629 0.89382 0.0
H977 H 0.6033 0.70239 0.92198 0.0
H978 H 0.66357 0.70778 0.95514 0.0
H979 H 0.67667 0.73214 0.92744 0.0
C980 C 0.6294 0.65558 0.97885 0.0
C981 C 0.61008 0.65915 0.98982 0.0
C982 C 0.63666 0.66995 0.96321 0.0
C983 C 0.62458 0.68804 0.95768 0.0
C984 C 0.60513 0.69153 0.96843 0.0
C985 C 0.59812 0.67743 0.98451 0.0
C986 C 0.62701 0.72244 0.90715 0.0
C987 C 0.64774 0.73119 0.90832 0.0
C988 C 0.61933 0.70882 0.92333 0.0
C989 C 0.63237 0.70316 0.94081 0.0
C990 C 0.65314 0.71175 0.94187 0.0
C991 C 0.66062 0.72578 0.92601 0.0
H992 H 0.61707 0.37461 0.25758 0.0
H993 H 0.57367 0.32129 0.26335 0.0
H994 H 0.59228 0.39214 0.23295 0.0
H995 H 0.54907 0.33866 0.23799 0.0
H996 H 0.53156 0.3681 0.16866 0.0
H997 H 0.55312 0.35016 0.19606 0.0
H998 H 0.552 0.40722 0.23469 0.0
H999 H 0.52985 0.425 0.20762 0.0
C1000 C 0.60221 0.36662 0.25361 0.0
C1001 C 0.59738 0.34652 0.26247 0.0
C1002 C 0.58797 0.37673 0.23955 0.0
C1003 C 0.56872 0.3668 0.2335 0.0
C1004 C 0.56381 0.34669 0.24233 0.0
C1005 C 0.57784 0.33679 0.2569 0.0
C1006 C 0.53574 0.37678 0.18308 0.0
C1007 C 0.52896 0.39803 0.1859 0.0
C1008 C 0.548 0.36644 0.19882 0.0
C1009 C 0.55426 0.37725 0.21755 0.0
C1010 C 0.54745 0.39847 0.22042 0.0
C1011 C 0.53472 0.40863 0.20493 0.0
H1012 H 0.923 0.32615 0.51202 0.0
H1013 H 0.87815 0.37027 0.48376 0.0
H1014 H 0.90705 0.29692 0.49135 0.0
H1015 H 0.8623 0.34112 0.46318 0.0
H1016 H 0.86062 0.29115 0.40937 0.0
H1017 H 0.87437 0.31884 0.43286 0.0
H1018 H 0.87319 0.27488 0.48599 0.0
H1019 H 0.85917 0.24677 0.46222 0.0
C1020 C 0.90965 0.32963 0.50154 0.0
C1021 C 0.90198 0.35068 0.49952 0.0
C1022 C 0.90042 0.31281 0.48977 0.0
C1023 C 0.88345 0.31663 0.47547 0.0
C1024 C 0.87551 0.3376 0.47383 0.0
C1025 C 0.88456 0.35434 0.48573 0.0
C1026 C 0.86322 0.28724 0.42605 0.0
C1027 C 0.85875 0.26659 0.43382 0.0
C1028 C 0.871 0.30327 0.4396 0.0
C1029 C 0.8748 0.29922 0.46139 0.0
C1030 C 0.87051 0.27854 0.46926 0.0
C1031 C 0.86239 0.26245 0.45567 0.0
H1032 H 0.90929 0.64224 0.74572 0.0
H1033 H 0.95213 0.69625 0.74181 0.0
H1034 H 0.93307 0.6216 0.7229 0.0
H1035 H 0.97601 0.67545 0.71874 0.0
H1036 H 0.99837 0.63784 0.65796 0.0
H1037 H 0.97603 0.65921 0.68176 0.0
H1038 H 0.9694 0.60526 0.72417 0.0
H1039 H 0.99182 0.58385 0.70042 0.0
C1040 C 0.92379 0.64976 0.73998 0.0
C1041 C 0.92874 0.67098 0.74563 0.0
C1042 C 0.93751 0.63783 0.72699 0.0
C1043 C 0.9565 0.6468 0.71902 0.0
C1044 C 0.96144 0.66808 0.7245 0.0
C1045 C 0.9478 0.67998 0.73779 0.0
C1046 C 0.9922 0.63051 0.67238 0.0
C1047 C 0.99687 0.60905 0.67719 0.0
C1048 C 0.9795 0.64284 0.68611 0.0
C1049 C 0.97087 0.63398 0.70488 0.0
C1050 C 0.97562 0.61255 0.70975 0.0
C1051 C 0.98856 0.60029 0.69617 0.0
H1052 H 0.64582 0.3777 0.54443 0.0
H1053 H 0.61559 0.32511 0.51131 0.0
H1054 H 0.66024 0.35311 0.57083 0.0
H1055 H 0.63052 0.30023 0.53793 0.0
H1056 H 0.68376 0.2643 0.58045 0.0
H1057 H 0.66864 0.28688 0.552 0.0
H1058 H 0.64338 0.32961 0.59979 0.0
H1059 H 0.65804 0.30714 0.62801 0.0
C1060 C 0.64233 0.36084 0.54264 0.0
C1061 C 0.62944 0.35347 0.52565 0.0
C1062 C 0.65057 0.34673 0.55791 0.0
C1063 C 0.6465 0.3247 0.55658 0.0
C1064 C 0.63402 0.31712 0.53936 0.0
C1065 C 0.62539 0.33137 0.52417 0.0
C1066 C 0.67494 0.27849 0.58485 0.0
C1067 C 0.67221 0.28389 0.60658 0.0
C1068 C 0.66616 0.29134 0.56856 0.0
C1069 C 0.65484 0.31009 0.57361 0.0
C1070 C 0.65212 0.31538 0.59531 0.0
C1071 C 0.66051 0.30242 0.61152 0.0
H1072 H 0.90032 0.41948 0.81208 0.0
H1073 H 0.93164 0.35811 0.81358 0.0
H1074 H 0.92447 0.43232 0.84034 0.0
H1075 H 0.9554 0.37083 0.84184 0.0
H1076 H 0.97663 0.3941 0.90904 0.0
H1077 H 0.9521 0.38216 0.88086 0.0
H1078 H 0.96458 0.43992 0.84537 0.0
H1079 H 0.98929 0.45176 0.87336 0.0
C1080 C 0.91234 0.40876 0.81837 0.0
C1081 C 0.91404 0.38778 0.81047 0.0
C1082 C 0.9262 0.41612 0.83452 0.0
C1083 C 0.94179 0.40255 0.84343 0.0
C1084 C 0.94344 0.38162 0.83551 0.0
C1085 C 0.92989 0.37439 0.81917 0.0
C1086 C 0.97414 0.40426 0.89525 0.0
C1087 C 0.98503 0.42385 0.89347 0.0
C1088 C 0.96014 0.39739 0.87905 0.0
C1089 C 0.95638 0.41009 0.86085 0.0
C1090 C 0.967 0.42983 0.85924 0.0
C1091 C 0.98127 0.43653 0.87524 0.0
H1092 H 0.86866 0.75672 0.13986 0.0
H1093 H 0.86438 0.8013 0.08733 0.0
H1094 H 0.88909 0.73242 0.11773 0.0
H1095 H 0.88503 0.77654 0.06485 0.0
H1096 H 0.94395 0.73466 0.04217 0.0
H1097 H 0.92242 0.76061 0.06218 0.0
H1098 H 0.88354 0.7092 0.08676 0.0
H1099 H 0.90492 0.68348 0.06711 0.0
C1100 C 0.87196 0.76133 0.12349 0.0
C1101 C 0.86476 0.78103 0.11542 0.0
C1102 C 0.88366 0.74727 0.11073 0.0
C1103 C 0.8887 0.75242 0.08944 0.0
C1104 C 0.88154 0.77213 0.08123 0.0
C1105 C 0.86955 0.78623 0.09404 0.0
C1106 C 0.93082 0.72892 0.05188 0.0
C1107 C 0.92633 0.70691 0.05312 0.0
C1108 C 0.91837 0.74382 0.0632 0.0
C1109 C 0.90127 0.73701 0.07618 0.0
C1110 C 0.89673 0.71503 0.07718 0.0
C1111 C 0.90901 0.70024 0.06582 0.0
H1112 H 0.53362 0.63979 0.35194 0.0
H1113 H 0.53564 0.58867 0.3056 0.0
H1114 H 0.5523 0.66327 0.32694 0.0
H1115 H 0.55485 0.61217 0.28071 0.0
H1116 H 0.61543 0.65344 0.26082 0.0
H1117 H 0.59246 0.63 0.28188 0.0
H1118 H 0.54693 0.68111 0.2892 0.0
H1119 H 0.56987 0.70462 0.26748 0.0
C1120 C 0.53808 0.63352 0.33642 0.0
C1121 C 0.53323 0.61224 0.33087 0.0
C1122 C 0.54862 0.64709 0.32201 0.0
C1123 C 0.55502 0.63965 0.3018 0.0
C1124 C 0.55015 0.61839 0.29618 0.0
C1125 C 0.53915 0.60492 0.31043 0.0
C1126 C 0.60037 0.65965 0.26666 0.0
C1127 C 0.5945 0.68094 0.26248 0.0
C1128 C 0.58716 0.64615 0.27866 0.0
C1129 C 0.56788 0.65365 0.28728 0.0
C1130 C 0.56174 0.67487 0.28283 0.0
C1131 C 0.57479 0.68829 0.27031 0.0
H1132 H 0.73449 0.96131 0.70143 0.0
H1133 H 0.73975 0.93222 0.63901 0.0
H1134 H 0.71437 0.99107 0.68555 0.0
H1135 H 0.72015 0.96193 0.62325 0.0
H1136 H 0.70162 0.02903 0.59953 0.0
H1137 H 0.72437 1.00234 0.61699 0.0
H1138 H 0.6774 0.99468 0.66685 0.0
H1139 H 0.65453 0.021 0.6493 0.0
C1140 C 0.73153 0.96134 0.68434 0.0
C1141 C 0.73864 0.9443 0.67154 0.0
C1142 C 0.71996 0.97833 0.67526 0.0
C1143 C 0.71572 0.9789 0.6531 0.0
C1144 C 0.7233 0.96211 0.6403 0.0
C1145 C 0.73442 0.94498 0.6494 0.0
C1146 C 0.69624 0.0218 0.61431 0.0
C1147 C 0.67618 0.0271 0.62292 0.0
C1148 C 0.70923 1.00645 0.62427 0.0
C1149 C 0.70269 0.99636 0.64332 0.0
C1150 C 0.68299 1.00224 0.65231 0.0
C1151 C 0.66983 0.01725 0.64215 0.0
H1152 H 0.25465 0.30697 0.20025 0.0
H1153 H 0.25219 0.3686 0.23111 0.0
H1154 H 0.24307 0.29 0.23363 0.0
H1155 H 0.24044 0.35182 0.26417 0.0
H1156 H 0.25323 0.31353 0.32519 0.0
H1157 H 0.25932 0.32999 0.29037 0.0
H1158 H 0.21513 0.28553 0.26123 0.0
H1159 H 0.2092 0.26888 0.29604 0.0
C1160 C 0.2509 0.31695 0.2139 0.0
C1161 C 0.25445 0.3391 0.21308 0.0
C1162 C 0.24441 0.30723 0.23309 0.0
C1163 C 0.24135 0.31951 0.25176 0.0
C1164 C 0.24324 0.34181 0.25031 0.0
C1165 C 0.24973 0.35146 0.23126 0.0
C1166 C 0.24482 0.30724 0.31138 0.0
C1167 C 0.23071 0.2899 0.31349 0.0
C1168 C 0.24817 0.31678 0.2914 0.0
C1169 C 0.23755 0.30921 0.27297 0.0
C1170 C 0.22363 0.29171 0.27503 0.0
C1171 C 0.22018 0.28223 0.29504 0.0
H1172 H 0.95466 0.99098 0.44653 0.0
H1173 H 0.89436 0.99657 0.47948 0.0
H1174 H 0.96936 0.97122 0.47707 0.0
H1175 H 0.90875 0.97659 0.50953 0.0
H1176 H 0.94869 0.97124 0.56998 0.0
H1177 H 0.93374 0.9855 0.53722 0.0
H1178 H 0.96898 0.93908 0.50038 0.0
H1179 H 0.98441 0.92481 0.5336 0.0
C1180 C 0.94437 0.98753 0.46001 0.0
C1181 C 0.92338 0.99557 0.4606 0.0
C1182 C 0.9528 0.9762 0.47756 0.0
C1183 C 0.9404 0.97264 0.49604 0.0
C1184 C 0.919 0.97949 0.49589 0.0
C1185 C 0.91066 0.99084 0.47852 0.0
C1186 C 0.95327 0.9639 0.55497 0.0
C1187 C 0.96777 0.94676 0.55457 0.0
C1188 C 0.94452 0.97204 0.53608 0.0
C1189 C 0.94991 0.96336 0.51603 0.0
C1190 C 0.96449 0.94623 0.5155 0.0
C1191 C 0.97325 0.93797 0.53456 0.0
H1192 H 0.33069 0.68944 0.83642 0.0
H1193 H 0.33931 0.74803 0.80123 0.0
H1194 H 0.32129 0.6709 0.80352 0.0
H1195 H 0.32838 0.72995 0.7683 0.0
H1196 H 0.31531 0.69054 0.70908 0.0
H1197 H 0.33348 0.7055 0.7404 0.0
H1198 H 0.29211 0.66847 0.7816 0.0
H1199 H 0.27511 0.65287 0.75068 0.0
C1200 C 0.3305 0.69835 0.82156 0.0
C1201 C 0.3355 0.72018 0.82136 0.0
C1202 C 0.32494 0.68778 0.80266 0.0
C1203 C 0.32354 0.69894 0.78314 0.0
C1204 C 0.32942 0.72069 0.78287 0.0
C1205 C 0.33556 0.73114 0.80177 0.0
C1206 C 0.31048 0.68532 0.72486 0.0
C1207 C 0.29376 0.67048 0.72732 0.0
C1208 C 0.32074 0.69406 0.74287 0.0
C1209 C 0.31433 0.68833 0.76372 0.0
C1210 C 0.29798 0.67304 0.76597 0.0
C1211 C 0.28802 0.66413 0.74809 0.0
H1212 H 0.56138 0.03565 0.94612 0.0
H1213 H 0.62512 0.06018 0.95581 0.0
H1214 H 0.55006 0.05232 0.97979 0.0
H1215 H 0.61394 0.07674 0.98927 0.0
H1216 H 0.59622 0.06209 0.06017 0.0
H1217 H 0.60456 0.055 0.02268 0.0
H1218 H 0.54654 0.08677 1.00325 0.0
H1219 H 0.53824 0.09413 0.04082 0.0
C1220 C 0.57262 0.0456 0.95481 0.0
C1221 C 0.59408 0.04672 0.94838 0.0
C1222 C 0.56624 0.05491 0.97422 0.0
C1223 C 0.58129 0.06535 0.98738 0.0
C1224 C 0.60212 0.06844 0.97966 0.0
C1225 C 0.60843 0.05924 0.96035 0.0
C1226 C 0.58529 0.06766 0.04793 0.0
C1227 C 0.56662 0.07871 0.05349 0.0
C1228 C 0.59013 0.06374 0.02644 0.0
C1229 C 0.57627 0.07053 1.01003 0.0
C1230 C 0.55751 0.08142 1.01556 0.0
C1231 C 0.55283 0.08566 0.03706 0.0
H1232 H 0.25215 0.70823 0.17925 0.0
H1233 H 0.18867 0.696 0.20328 0.0
H1234 H 0.26716 0.68677 0.20869 0.0
H1235 H 0.20339 0.67458 0.23211 0.0
H1236 H 0.23807 0.67101 0.29682 0.0
H1237 H 0.22336 0.68589 0.26402 0.0
H1238 H 0.2693 0.65044 0.22681 0.0
H1239 H 0.2842 0.6355 0.25982 0.0
C1240 C 0.24144 0.70051 0.19045 0.0
C1241 C 0.21932 0.70402 0.18923 0.0
C1242 C 0.24997 0.68827 0.20729 0.0
C1243 C 0.23645 0.67936 0.22299 0.0
C1244 C 0.21427 0.68165 0.22064 0.0
C1245 C 0.20585 0.69386 0.20406 0.0
C1246 C 0.24487 0.66611 0.28167 0.0
C1247 C 0.26225 0.65198 0.28099 0.0
C1248 C 0.23641 0.67462 0.26282 0.0
C1249 C 0.24516 0.66933 0.24277 0.0
C1250 C 0.26232 0.65492 0.242 0.0
C1251 C 0.27068 0.64622 0.26092 0.0
H1252 H 0.63435 1.01651 0.54296 0.0
H1253 H 0.56769 0.02392 0.55893 0.0
H1254 H 0.62449 1.00325 0.50759 0.0
H1255 H 0.55775 1.01058 0.52332 0.0
H1256 H 0.54844 1.00848 0.45059 0.0
H1257 H 0.56072 0.02327 0.48489 0.0
H1258 H 0.60663 0.97218 0.4904 0.0
H1259 H 0.59418 0.95747 0.45634 0.0
C1260 C 0.61754 1.01491 0.53905 0.0
C1261 C 0.60179 0.02109 0.55385 0.0
C1262 C 0.6119 1.00739 0.51872 0.0
C1263 C 0.59035 1.00612 0.5125 0.0
C1264 C 0.57452 1.0117 0.52751 0.0
C1265 C 0.58018 0.01898 0.54803 0.0
C1266 C 0.56179 1.00103 0.45872 0.0
C1267 C 0.57084 0.98223 0.45054 0.0
C1268 C 0.5685 1.00918 0.47858 0.0
C1269 C 0.58449 0.99875 0.49052 0.0
C1270 C 0.59439 0.98068 0.4816 0.0
C1271 C 0.58746 0.97239 0.46197 0.0
H1272 H 0.29204 0.28834 0.71155 0.0
H1273 H 0.28838 0.35193 0.68563 0.0
H1274 H 0.28217 0.30146 0.74649 0.0
H1275 H 0.27679 0.36535 0.72062 0.0
H1276 H 0.28285 0.38776 0.78952 0.0
H1277 H 0.29021 0.37387 0.75384 0.0
H1278 H 0.25939 0.31441 0.77112 0.0
H1279 H 0.25367 0.32794 0.80711 0.0
C1280 C 0.28809 0.30511 0.7132 0.0
C1281 C 0.29071 0.31906 0.69581 0.0
C1282 C 0.28242 0.31274 0.73339 0.0
C1283 C 0.27886 0.33466 0.73684 0.0
C1284 C 0.27994 0.34845 0.71892 0.0
C1285 C 0.28603 0.34076 0.69864 0.0
C1286 C 0.27834 0.37146 0.7858 0.0
C1287 C 0.26826 0.35873 0.8013 0.0
C1288 C 0.28208 0.3636 0.76513 0.0
C1289 C 0.27523 0.34297 0.75914 0.0
C1290 C 0.26538 0.33018 0.77493 0.0
C1291 C 0.26218 0.33786 0.79576 0.0
H1292 H 0.96355 0.02122 0.05548 0.0
H1293 H 0.89614 0.02385 0.04124 0.0
H1294 H 0.97161 0.02813 1.01768 0.0
H1295 H 0.90411 0.03096 1.00364 0.0
H1296 H 0.933 0.06682 0.94314 0.0
H1297 H 0.92075 0.05823 0.97926 0.0
H1298 H 0.96723 1.00753 0.98286 0.0
H1299 H 0.97902 1.01593 0.94647 0.0
C1300 C 0.95047 0.02401 0.04445 0.0
C1301 C 0.92921 0.02234 0.05146 0.0
C1302 C 0.95506 0.02751 0.02269 0.0
C1303 C 0.93849 0.02975 1.00751 0.0
C1304 C 0.91726 0.02928 1.01481 0.0
C1305 C 0.9127 0.0254 0.03642 0.0
C1306 C 0.93964 0.05297 0.95113 0.0
C1307 C 0.95654 0.04164 0.94167 0.0
C1308 C 0.93294 0.04832 0.97205 0.0
C1309 C 0.94333 0.03251 0.9842 0.0
C1310 C 0.95912 0.02008 0.97412 0.0
C1311 C 0.96552 0.0245 0.95305 0.0
H1312 H 0.39516 0.20232 0.3582 0.0
H1313 H 0.38467 0.25174 0.31143 0.0
H1314 H 0.36104 0.21112 0.37526 0.0
H1315 H 0.35049 0.26033 0.32815 0.0
H1316 H 0.28007 0.24063 0.33843 0.0
H1317 H 0.31719 0.23458 0.32771 0.0
H1318 H 0.33764 0.24173 0.39331 0.0
H1319 H 0.30056 0.24815 0.40403 0.0
C1320 C 0.38621 0.21596 0.35243 0.0
C1321 C 0.39282 0.22676 0.33386 0.0
C1322 C 0.36648 0.22071 0.36191 0.0
C1323 C 0.35293 0.23606 0.35269 0.0
C1324 C 0.36049 0.24821 0.33538 0.0
C1325 C 0.3803 0.24367 0.32614 0.0
C1326 C 0.2924 0.24041 0.35063 0.0
C1327 C 0.28738 0.2448 0.37207 0.0
C1328 C 0.31368 0.23729 0.34446 0.0
C1329 C 0.33032 0.23811 0.35965 0.0
C1330 C 0.32516 0.24117 0.38127 0.0
C1331 C 0.30394 0.24472 0.38739 0.0
H1332 H 1.00047 1.01454 0.62201 0.0
H1333 H 0.04864 0.97213 0.59699 0.0
H1334 H 0.01921 0.04489 0.60701 0.0
H1335 H 0.06834 1.00272 0.58301 0.0
H1336 H 0.08288 0.05785 0.53716 0.0
H1337 H 0.06757 0.0272 0.55549 0.0
H1338 H 0.04727 0.06843 0.60718 0.0
H1339 H 0.06142 0.09918 0.58799 0.0
C1340 C 1.01543 1.01175 0.61378 0.0
C1341 C 0.023 0.99088 0.61063 0.0
C1342 C 0.02632 0.02926 0.6052 0.0
C1343 C 0.04538 0.02648 0.59357 0.0
C1344 C 0.05349 1.0056 0.59136 0.0
C1345 C 0.04232 0.98801 0.59958 0.0
C1346 C 0.07523 0.0603 0.5525 0.0
C1347 C 0.07319 0.08094 0.56105 0.0
C1348 C 0.06655 0.04266 0.56317 0.0
C1349 C 0.05599 0.04513 0.58292 0.0
C1350 C 0.05474 0.0658 0.5918 0.0
C1351 C 0.06299 0.08348 0.58088 0.0
H1352 H 0.16651 0.79716 0.84029 0.0
H1353 H 0.20567 0.795 0.78368 0.0
H1354 H 0.1972 0.78545 0.86196 0.0
H1355 H 0.23596 0.78285 0.80486 0.0
H1356 H 0.29246 0.78943 0.84835 0.0
H1357 H 0.2598 0.79952 0.82974 0.0
H1358 H 0.22327 0.7576 0.87063 0.0
H1359 H 0.25598 0.74787 0.88966 0.0
C1360 C 0.18144 0.79338 0.83241 0.0
C1361 C 0.18369 0.79673 0.81031 0.0
C1362 C 0.19909 0.78687 0.8448 0.0
C1363 C 0.21928 0.78368 0.83527 0.0
C1364 C 0.22093 0.78574 0.81292 0.0
C1365 C 0.20345 0.79234 0.80068 0.0
C1366 C 0.27745 0.7826 0.85364 0.0
C1367 C 0.27697 0.76775 0.87049 0.0
C1368 C 0.25868 0.78819 0.84277 0.0
C1369 C 0.23885 0.77902 0.84832 0.0
C1370 C 0.23819 0.76498 0.86587 0.0
C1371 C 0.25701 0.75941 0.8768 0.0
H1372 H 0.51827 0.03169 0.08654 0.0
H1373 H 0.54528 1.00472 0.14411 0.0
H1374 H 0.50587 0.99622 0.0757 0.0
H1375 H 0.53246 0.96926 0.13339 0.0
H1376 H 0.47933 0.91685 0.11048 0.0
H1377 H 0.49539 0.94955 0.12535 0.0
H1378 H 0.52637 0.9615 0.06489 0.0
H1379 H 0.51073 0.92875 0.05035 0.0
C1380 C 0.5212 0.01829 0.09709 0.0
C1381 C 0.53274 0.02108 0.11621 0.0
C1382 C 0.51431 0.99793 0.09077 0.0
C1383 C 0.51845 0.97991 0.10358 0.0
C1384 C 0.5291 0.98281 0.12317 0.0
C1385 C 0.53639 1.00313 0.1293 0.0
C1386 C 0.49052 0.92588 0.10084 0.0
C1387 C 0.49438 0.91992 0.07951 0.0
C1388 C 0.49945 0.94475 0.1092 0.0
C1389 C 0.51187 0.95824 0.09616 0.0
C1390 C 0.51671 0.95155 0.07525 0.0
C1391 C 0.50811 0.93259 0.06706 0.0
H1392 H 0.32326 0.82203 0.21609 0.0
H1393 H 0.28666 0.86706 0.25335 0.0
H1394 H 0.29065 0.80817 0.20039 0.0
H1395 H 0.25358 0.85316 0.23719 0.0
H1396 H 0.20048 0.80058 0.22092 0.0
H1397 H 0.23067 0.82035 0.23647 0.0
H1398 H 0.26302 0.81827 0.17553 0.0
H1399 H 0.23333 0.79832 0.16027 0.0
C1400 C 0.30824 0.82914 0.22086 0.0
C1401 C 0.30771 0.84576 0.23601 0.0
C1402 C 0.28944 0.82124 0.21168 0.0
C1403 C 0.26939 0.82965 0.2173 0.0
C1404 C 0.26873 0.84627 0.23251 0.0
C1405 C 0.2877 0.85431 0.24168 0.0
C1406 C 0.21386 0.80476 0.21076 0.0
C1407 C 0.21456 0.79762 0.18941 0.0
C1408 C 0.23118 0.8161 0.21968 0.0
C1409 C 0.24953 0.82056 0.20739 0.0
C1410 C 0.24945 0.81466 0.18566 0.0
C1411 C 0.23231 0.80331 0.17685 0.0
H1412 H 0.49257 0.96393 0.48562 0.0
H1413 H 0.47495 0.982 0.42135 0.0
H1414 H 0.47669 0.99714 0.49922 0.0
H1415 H 0.45919 1.01486 0.43478 0.0
H1416 H 0.46782 0.08282 0.461 0.0
H1417 H 0.47794 0.04694 0.44976 0.0
H1418 H 0.44291 0.02015 0.50281 0.0
H1419 H 0.43268 0.05614 0.51412 0.0
C1420 C 0.48457 0.97455 0.47454 0.0
C1421 C 0.48504 0.97041 0.45243 0.0
C1422 C 0.47565 0.99365 0.48227 0.0
C1423 C 0.46717 1.00886 0.46798 0.0
C1424 C 0.46607 1.00374 0.44613 0.0
C1425 C 0.47488 0.98478 0.43848 0.0
C1426 C 0.46225 0.06932 0.47029 0.0
C1427 C 0.44936 0.0724 0.48839 0.0
C1428 C 0.46793 0.04872 0.46377 0.0
C1429 C 0.46105 0.03066 0.47529 0.0
C1430 C 0.44847 0.03372 0.49363 0.0
C1431 C 0.44256 0.05435 0.50001 0.0
H1432 H 0.19919 0.22634 0.71364 0.0
H1433 H 0.22868 0.19526 0.7678 0.0
H1434 H 0.23463 0.23482 0.6994 0.0
H1435 H 0.26409 0.20404 0.75367 0.0
H1436 H 0.31937 0.25248 0.72857 0.0
H1437 H 0.28691 0.23827 0.74555 0.0
H1438 H 0.2661 0.21304 0.6847 0.0
H1439 H 0.29838 0.22691 0.66793 0.0
C1440 C 0.2132 0.22138 0.72254 0.0
C1441 C 0.21104 0.21002 0.74179 0.0
C1442 C 0.23352 0.22612 0.71433 0.0
C1443 C 0.25219 0.21995 0.72535 0.0
C1444 C 0.25005 0.209 0.74483 0.0
C1445 C 0.22973 0.20392 0.75284 0.0
C1446 C 0.30839 0.24296 0.71909 0.0
C1447 C 0.31151 0.24072 0.69692 0.0
C1448 C 0.28963 0.2351 0.72874 0.0
C1449 C 0.2737 0.22501 0.71633 0.0
C1450 C 0.27783 0.22114 0.6946 0.0
C1451 C 0.2965 0.22881 0.68507 0.0
H1452 H 0.05507 0.92386 0.92574 0.0
H1453 H 0.02869 0.92787 0.98912 0.0
H1454 H 0.04879 0.96186 0.92057 0.0
H1455 H 0.02434 0.96602 0.98522 0.0
H1456 H 1.01175 0.03606 0.96951 0.0
H1457 H 1.01215 0.99764 0.97422 0.0
H1458 H 0.06439 0.99313 0.92907 0.0
H1459 H 0.06221 0.03145 0.92307 0.0
C1460 C 0.04696 0.93273 0.9382 0.0
C1461 C 0.04201 0.92278 0.95767 0.0
C1462 C 0.04414 0.95481 0.93566 0.0
C1463 C 0.03698 0.96765 0.95282 0.0
C1464 C 0.02995 0.95714 0.97149 0.0
C1465 C 0.03211 0.93499 0.97369 0.0
C1466 C 0.02392 0.02689 0.96131 0.0
C1467 C 0.03731 0.03685 0.94631 0.0
C1468 C 0.024 1.00463 0.96375 0.0
C1469 C 0.03791 0.9917 0.95161 0.0
C1470 C 0.05272 1.0021 0.9381 0.0
C1471 C 0.0521 0.02428 0.93516 0.0
H1472 H 0.34648 0.34598 0.24124 0.0
H1473 H 0.341 0.31663 0.17887 0.0
H1474 H 0.36335 0.31312 0.25488 0.0
H1475 H 0.35728 0.28427 0.19241 0.0
H1476 H 0.35819 0.22179 0.23157 0.0
H1477 H 0.34463 0.25594 0.21821 0.0
H1478 H 0.39638 0.28906 0.24979 0.0
H1479 H 0.41006 0.25514 0.26298 0.0
C1480 C 0.34924 0.33278 0.23039 0.0
C1481 C 0.34218 0.33386 0.20907 0.0
C1482 C 0.35875 0.31394 0.23818 0.0
C1483 C 0.36117 0.29594 0.22479 0.0
C1484 C 0.35515 0.2976 0.20326 0.0
C1485 C 0.34592 0.31627 0.19551 0.0
C1486 C 0.36681 0.23631 0.23545 0.0
C1487 C 0.38533 0.2356 0.24817 0.0
C1488 C 0.35904 0.25588 0.22785 0.0
C1489 C 0.36943 0.27522 0.23303 0.0
C1490 C 0.38792 0.27451 0.2457 0.0
C1491 C 0.39585 0.25496 0.25304 0.0
H1492 H 0.83984 0.19457 0.8168 0.0
H1493 H 0.79882 0.22569 0.86282 0.0
H1494 H 0.85675 0.22835 0.80879 0.0
H1495 H 0.8163 0.25986 0.855 0.0
H1496 H 0.83402 0.31698 0.80811 0.0
H1497 H 0.81852 0.28544 0.82515 0.0
H1498 H 0.8803 0.25472 0.82396 0.0
H1499 H 0.8955 0.28584 0.80627 0.0
C1500 C 0.83454 0.20861 0.82539 0.0
C1501 C 0.81793 0.20742 0.84042 0.0
C1502 C 0.84443 0.22801 0.82095 0.0
C1503 C 0.83807 0.24678 0.83146 0.0
C1504 C 0.82152 0.24567 0.84662 0.0
C1505 C 0.81156 0.22612 0.8511 0.0
C1506 C 0.84435 0.30368 0.81201 0.0
C1507 C 0.86584 0.30363 0.80556 0.0
C1508 C 0.83549 0.28563 0.8218 0.0
C1509 C 0.84809 0.26741 0.82544 0.0
C1510 C 0.87005 0.26828 0.82081 0.0
C1511 C 0.87879 0.28613 0.81079 0.0
H1512 H 0.04528 0.67306 0.03266 0.0
H1513 H 1.00183 0.63164 0.06679 0.0
H1514 H 0.07564 0.65313 0.04706 0.0
H1515 H 0.03208 0.61175 0.08099 0.0
H1516 H 0.08916 0.59195 0.1188 0.0
H1517 H 0.06201 0.61612 0.10562 0.0
H1518 H 0.0922 0.61661 0.04354 0.0
H1519 H 0.11998 0.5922 0.05702 0.0
C1520 C 0.04218 0.65992 0.0435 0.0
C1521 C 0.02105 0.65404 0.04867 0.0
C1522 C 0.05961 0.64836 0.05153 0.0
C1523 C 0.05633 0.6308 0.06512 0.0
C1524 C 0.03523 0.62533 0.07075 0.0
C1525 C 0.01784 0.63676 0.06261 0.0
C1526 C 0.09016 0.59721 0.10231 0.0
C1527 C 0.10654 0.5898 0.08881 0.0
C1528 C 0.0745 0.61107 0.09476 0.0
C1529 C 0.07462 0.61797 0.07342 0.0
C1530 C 0.09165 0.61155 0.0601 0.0
C1531 C 0.10754 0.59758 0.06776 0.0
H1532 H 0.62936 0.76133 0.2879 0.0
H1533 H 0.6973 0.75561 0.27807 0.0
H1534 H 0.63392 0.79864 0.29839 0.0
H1535 H 0.70196 0.79307 0.28857 0.0
H1536 H 0.70123 0.8647 0.28202 0.0
H1537 H 0.69264 0.82798 0.27182 0.0
H1538 H 0.6495 0.82332 0.32544 0.0
H1539 H 0.65823 0.86009 0.33553 0.0
C1540 C 0.64539 0.76788 0.2887 0.0
C1541 C 0.66301 0.7554 0.28247 0.0
C1542 C 0.64797 0.78934 0.29453 0.0
C1543 C 0.66824 0.79904 0.29393 0.0
C1544 C 0.68605 0.78623 0.28882 0.0
C1545 C 0.68348 0.76462 0.28326 0.0
C1546 C 0.68898 0.85623 0.29086 0.0
C1547 C 0.67983 0.86557 0.30912 0.0
C1548 C 0.68452 0.83495 0.28542 0.0
C1549 C 0.67076 0.82247 0.2981 0.0
C1550 C 0.66017 0.83241 0.3153 0.0
C1551 C 0.66481 0.85367 0.32084 0.0
H1552 H 0.0541 0.94991 0.02278 0.0
H1553 H 0.05084 0.88778 0.05215 0.0
H1554 H 0.0179 0.95768 0.03547 0.0
H1555 H 1.01477 0.89521 0.06456 0.0
H1556 H 0.95502 0.92368 0.09743 0.0
H1557 H 0.99159 0.91505 0.0872 0.0
H1558 H 0.98184 0.94643 0.02642 0.0
H1559 H 0.94525 0.95532 0.03708 0.0
C1560 C 0.04607 0.93833 0.03285 0.0
C1561 C 0.05556 0.91843 0.0369 0.0
C1562 C 0.02504 0.9425 0.03961 0.0
C1563 C 1.01309 0.92691 0.05071 0.0
C1564 C 0.02333 0.90767 0.05615 0.0
C1565 C 0.04419 0.90348 0.04927 0.0
C1566 C 0.96038 0.92777 0.08146 0.0
C1567 C 0.94697 0.93943 0.06773 0.0
C1568 C 0.98151 0.92314 0.07569 0.0
C1569 C 0.98995 0.93031 0.05608 0.0
C1570 C 0.9761 0.94098 0.04182 0.0
C1571 C 0.9549 0.94555 0.04762 0.0
H1572 H 0.25908 0.74315 0.66194 0.0
H1573 H 0.21327 0.70791 0.69965 0.0
H1574 H 0.24332 0.77688 0.67459 0.0
H1575 H 0.19763 0.7412 0.71195 0.0
H1576 H 0.15955 0.80042 0.71432 0.0
H1577 H 0.17683 0.77142 0.69515 0.0
H1578 H 0.23868 0.7974 0.71149 0.0
H1579 H 0.22119 0.82679 0.73089 0.0
C1580 C 0.24558 0.74258 0.67275 0.0
C1581 C 0.2374 0.72279 0.67972 0.0
C1582 C 0.23667 0.76188 0.68008 0.0
C1583 C 0.21913 0.76173 0.69415 0.0
C1584 C 0.21094 0.74192 0.7009 0.0
C1585 C 0.21999 0.72279 0.6939 0.0
C1586 C 0.17685 0.80032 0.71341 0.0
C1587 C 0.18899 0.81585 0.72429 0.0
C1588 C 0.18675 0.78359 0.70251 0.0
C1589 C 0.20912 0.78184 0.70216 0.0
C1590 C 0.22139 0.79831 0.71149 0.0
C1591 C 0.21139 0.8152 0.72251 0.0
H1592 H 1.01038 0.37456 0.4973 0.0
H1593 H 0.9749 0.43203 0.48359 0.0
H1594 H 0.0416 0.38955 0.47954 0.0
H1595 H 1.00634 0.44739 0.46649 0.0
H1596 H 0.09851 0.43593 0.48166 0.0
H1597 H 0.06614 0.41652 0.49045 0.0
H1598 H 0.03288 0.44801 0.43868 0.0
H1599 H 0.06535 0.46802 0.43022 0.0
C1600 C 1.00915 0.39026 0.49014 0.0
C1601 C 0.99026 0.4022 0.49202 0.0
C1602 C 0.0271 0.39895 0.48012 0.0
C1603 C 0.02668 0.41988 0.47201 0.0
C1604 C 1.00726 0.43119 0.47246 0.0
C1605 C 0.98919 0.42239 0.48229 0.0
C1606 C 0.08439 0.43861 0.47198 0.0
C1607 C 0.08453 0.45364 0.45531 0.0
C1608 C 0.0658 0.4273 0.47691 0.0
C1609 C 0.04684 0.43061 0.46523 0.0
C1610 C 0.04712 0.44522 0.44815 0.0
C1611 C 0.06576 0.45663 0.44324 0.0
H1612 H 0.42457 0.55555 0.02134 0.0
H1613 H 0.41156 0.61016 0.98154 0.0
H1614 H 0.45863 0.57138 0.03218 0.0
H1615 H 0.44563 0.62635 0.99272 0.0
H1616 H 0.50663 0.64965 0.03371 0.0
H1617 H 0.46948 0.63899 0.02681 0.0
H1618 H 0.49115 0.5771 1.0058 0.0
H1619 H 0.52822 0.58781 1.01222 0.0
C1620 C 0.42845 0.57153 1.0159 0.0
C1621 C 0.41515 0.58191 1.00108 0.0
C1622 C 0.44814 0.5804 0.02176 0.0
C1623 C 0.45492 0.59993 1.01302 0.0
C1624 C 0.44077 0.61129 0.99974 0.0
C1625 C 0.42111 0.60222 0.99361 0.0
C1626 C 0.50347 0.63387 0.02732 0.0
C1627 C 0.52041 0.61959 0.02346 0.0
C1628 C 0.48221 0.62779 0.02343 0.0
C1629 C 0.47742 0.60713 1.01609 0.0
C1630 C 0.49437 0.59304 1.01176 0.0
C1631 C 0.51561 0.59926 1.01521 0.0
H1632 H 0.66633 0.77473 0.78538 0.0
H1633 H 0.70388 0.82071 0.82084 0.0
H1634 H 0.67578 0.793 0.75187 0.0
H1635 H 0.71323 0.83864 0.78778 0.0
H1636 H 0.71225 0.87976 0.73092 0.0
H1637 H 0.69581 0.86048 0.76041 0.0
H1638 H 0.70819 0.80072 0.72833 0.0
H1639 H 0.72449 0.82026 0.69839 0.0
C1640 C 0.67653 0.78871 0.78607 0.0
C1641 C 0.68428 0.79625 0.80588 0.0
C1642 C 0.682 0.79912 0.76686 0.0
C1643 C 0.69507 0.81746 0.7671 0.0
C1644 C 0.70279 0.82485 0.78694 0.0
C1645 C 0.69753 0.81441 0.80597 0.0
C1646 C 0.71095 0.86253 0.72983 0.0
C1647 C 0.7198 0.85156 0.71234 0.0
C1648 C 0.7017 0.85145 0.74686 0.0
C1649 C 0.70115 0.829 0.74704 0.0
C1650 C 0.70838 0.81801 0.72874 0.0
C1651 C 0.71762 0.8292 0.71152 0.0
H1652 H 0.48394 0.4863 0.097 0.0
H1653 H 0.43162 0.4423 0.10536 0.0
H1654 H 0.46802 0.49894 0.06355 0.0
H1655 H 0.41567 0.45461 0.07181 0.0
H1656 H 0.3861 0.49547 1.01753 0.0
H1657 H 0.39925 0.48402 0.05236 0.0
H1658 H 0.4637 0.48335 0.02776 0.0
H1659 H 0.45052 0.49521 0.99285 0.0
C1660 C 0.4685 0.48006 0.09213 0.0
C1661 C 0.45858 0.46392 0.1041 0.0
C1662 C 0.45964 0.48689 0.07272 0.0
C1663 C 0.44074 0.47754 0.06478 0.0
C1664 C 0.43016 0.46227 0.07748 0.0
C1665 C 0.43909 0.45541 0.09687 0.0
C1666 C 0.40306 0.49249 0.0194 0.0
C1667 C 0.41726 0.49624 1.00235 0.0
C1668 C 0.41059 0.48597 0.03943 0.0
C1669 C 0.43257 0.48312 0.04302 0.0
C1670 C 0.4467 0.48586 0.02568 0.0
C1671 C 0.43913 0.49228 1.00554 0.0
H1672 H 0.78166 0.19675 0.34966 0.0
H1673 H 0.83865 0.1588 0.356 0.0
H1674 H 0.77678 0.18367 0.31316 0.0
H1675 H 0.83361 0.14529 0.31943 0.0
H1676 H 0.79886 0.11751 0.25537 0.0
H1677 H 0.80586 0.12497 0.29326 0.0
H1678 H 0.80219 0.19252 0.28041 0.0
H1679 H 0.79567 0.18506 0.24241 0.0
C1680 C 0.7924 0.18456 0.34371 0.0
C1681 C 0.81019 0.17835 0.35594 0.0
C1682 C 0.78994 0.17751 0.32259 0.0
C1683 C 0.80511 0.16388 0.31326 0.0
C1684 C 0.82171 0.15587 0.32617 0.0
C1685 C 0.82433 0.1632 0.34729 0.0
C1686 C 0.80036 0.13397 0.26052 0.0
C1687 C 0.79697 0.15072 0.24586 0.0
C1688 C 0.80418 0.13821 0.28224 0.0
C1689 C 0.80414 0.15929 0.28986 0.0
C1690 C 0.802 0.17608 0.275 0.0
C1691 C 0.79864 0.17185 0.25319 0.0
H1692 H 0.09891 0.54597 0.62007 0.0
H1693 H 0.04254 0.5175 0.59238 0.0
H1694 H 0.12022 0.53316 0.58988 0.0
H1695 H 0.0637 0.50443 0.56228 0.0
H1696 H 0.09803 0.51796 0.4992 0.0
H1697 H 0.07953 0.52518 0.53269 0.0
H1698 H 0.13437 0.50294 0.56825 0.0
H1699 H 0.15304 0.49584 0.53468 0.0
C1700 C 0.09137 0.53591 0.60811 0.0
C1701 C 0.06925 0.53218 0.60877 0.0
C1702 C 0.10348 0.52881 0.59067 0.0
C1703 C 0.09356 0.51814 0.57348 0.0
C1704 C 0.07174 0.51294 0.57509 0.0
C1705 C 0.05969 0.51998 0.59253 0.0
C1706 C 0.10629 0.51486 0.51413 0.0
C1707 C 0.12705 0.50634 0.5142 0.0
C1708 C 0.09556 0.5187 0.53335 0.0
C1709 C 0.10532 0.51423 0.55315 0.0
C1710 C 0.12638 0.50647 0.55328 0.0
C1711 C 0.13709 0.50248 0.53402 0.0
H1712 H 0.73661 0.18534 0.67433 0.0
H1713 H 0.7241 0.23569 0.71979 0.0
H1714 H 0.75158 0.16333 0.70342 0.0
H1715 H 0.73917 0.21434 0.74825 0.0
H1716 H 0.74355 0.1668 0.79992 0.0
H1717 H 0.72852 0.18365 0.76827 0.0
H1718 H 0.78083 0.15973 0.73024 0.0
H1719 H 0.79562 0.14221 0.76201 0.0
C1720 C 0.73736 0.19181 0.69039 0.0
C1721 C 0.7289 0.21213 0.69479 0.0
C1722 C 0.74586 0.17922 0.70706 0.0
C1723 C 0.74607 0.18682 0.72835 0.0
C1724 C 0.73861 0.20759 0.73229 0.0
C1725 C 0.7301 0.21995 0.71586 0.0
C1726 C 0.75171 0.16481 0.78477 0.0
C1727 C 0.77091 0.15331 0.78361 0.0
C1728 C 0.74317 0.17464 0.76659 0.0
C1729 C 0.75373 0.17354 0.74673 0.0
C1730 C 0.77228 0.16095 0.74524 0.0
C1731 C 0.78076 0.15091 0.76348 0.0
H1732 H 0.07525 0.47866 0.98066 0.0
H1733 H 0.0321 0.43725 1.01516 0.0
H1734 H 0.09197 0.48928 1.01399 0.0
H1735 H 0.04926 0.44784 0.04896 0.0
H1736 H 0.07044 0.49737 0.10348 0.0
H1737 H 0.05333 0.47996 0.07267 0.0
H1738 H 0.11476 0.47489 0.04172 0.0
H1739 H 0.1316 0.49257 0.07202 0.0
C1740 C 0.0694 0.47165 0.99537 0.0
C1741 C 0.05231 0.45704 0.99514 0.0
C1742 C 0.07914 0.47765 1.01456 0.0
C1743 C 0.07214 0.46927 0.03421 0.0
C1744 C 0.05501 0.45463 0.03411 0.0
C1745 C 0.04527 0.44848 1.01475 0.0
C1746 C 0.0803 0.49205 0.0903 0.0
C1747 C 0.10233 0.49661 0.09007 0.0
C1748 C 0.07051 0.48209 0.07263 0.0
C1749 C 0.0826 0.47644 0.0545 0.0
C1750 C 0.10486 0.47953 0.05513 0.0
C1751 C 0.11455 0.48956 0.0726 0.0
H1752 H 0.73968 0.9022 0.27872 0.0
H1753 H 0.79011 0.86309 0.30508 0.0
H1754 H 0.75494 0.89867 0.24327 0.0
H1755 H 0.80563 0.85975 0.26906 0.0
H1756 H 0.83799 0.87346 0.20579 0.0
H1757 H 0.82277 0.88392 0.24018 0.0
H1758 H 0.75978 0.86806 0.21673 0.0
H1759 H 0.7752 0.8572 0.18236 0.0
C1760 C 0.7542 0.89297 0.27705 0.0
C1761 C 0.76375 0.88299 0.29492 0.0
C1762 C 0.76284 0.89089 0.25659 0.0
C1763 C 0.78148 0.87903 0.25334 0.0
C1764 C 0.79132 0.86922 0.27115 0.0
C1765 C 0.78242 0.87102 0.29174 0.0
C1766 C 0.82076 0.87327 0.20763 0.0
C1767 C 0.80771 0.86491 0.19126 0.0
C1768 C 0.81213 0.87877 0.22749 0.0
C1769 C 0.79018 0.87633 0.23133 0.0
C1770 C 0.7768 0.87006 0.21424 0.0
C1771 C 0.78552 0.86426 0.19439 0.0
H1772 H 0.39062 0.50554 0.49358 0.0
H1773 H 0.45147 0.52713 0.51822 0.0
H1774 H 0.40256 0.5132 0.45705 0.0
H1775 H 0.46347 0.53443 0.48171 0.0
H1776 H 0.48766 0.52114 0.41552 0.0
H1777 H 0.47134 0.5099 0.44915 0.0
H1778 H 0.41488 0.54632 0.43384 0.0
H1779 H 0.43153 0.55786 0.4002 0.0
C1780 C 0.40645 0.51216 0.49123 0.0
C1781 C 0.42009 0.51579 0.50885 0.0
C1782 C 0.41327 0.51649 0.4703 0.0
C1783 C 0.43405 0.52408 0.4665 0.0
C1784 C 0.44747 0.52826 0.48414 0.0
C1785 C 0.44051 0.52433 0.50507 0.0
C1786 C 0.47131 0.5258 0.4188 0.0
C1787 C 0.4606 0.53984 0.40495 0.0
C1788 C 0.46215 0.51975 0.43827 0.0
C1789 C 0.44199 0.52754 0.44429 0.0
C1790 C 0.43042 0.54004 0.42959 0.0
C1791 C 0.43977 0.54635 0.41016 0.0
H1792 H 0.75706 0.77628 0.87327 0.0
H1793 H 0.72413 0.71983 0.85102 0.0
H1794 H 0.7904 0.76262 0.85955 0.0
H1795 H 0.75801 0.70514 0.83853 0.0
H1796 H 0.81569 0.69745 0.79452 0.0
H1797 H 0.78256 0.7079 0.81168 0.0
H1798 H 0.81874 0.74018 0.86125 0.0
H1799 H 0.8518 0.73099 0.84292 0.0
C1800 C 0.75706 0.7606 0.86593 0.0
C1801 C 0.7379 0.74917 0.86318 0.0
C1802 C 0.77635 0.75262 0.85813 0.0
C1803 C 0.7772 0.73267 0.84776 0.0
C1804 C 0.75808 0.72078 0.8459 0.0
C1805 C 0.73862 0.72906 0.85327 0.0
C1806 C 0.81651 0.70671 0.80915 0.0
C1807 C 0.83631 0.71355 0.8173 0.0
C1808 C 0.79745 0.71259 0.81917 0.0
C1809 C 0.79767 0.72505 0.83796 0.0
C1810 C 0.81768 0.73111 0.84654 0.0
C1811 C 0.83673 0.72571 0.83615 0.0
H1812 H 0.54687 0.4486 0.07153 0.0
H1813 H 0.54656 0.47638 0.13476 0.0
H1814 H 0.56118 0.48198 0.05705 0.0
H1815 H 0.56124 0.50941 0.1205 0.0
H1816 H 0.55691 0.57298 0.08453 0.0
H1817 H 0.54766 0.5383 0.09957 0.0
H1818 H 0.59014 0.5075 0.05478 0.0
H1819 H 0.59905 0.5422 0.03943 0.0
C1820 C 0.55048 0.46157 0.08244 0.0
C1821 C 0.54547 0.4598 0.1043 0.0
C1822 C 0.55862 0.48079 0.07413 0.0
C1823 C 0.56201 0.49865 0.08751 0.0
C1824 C 0.55831 0.49628 0.10958 0.0
C1825 C 0.55011 0.47719 0.11782 0.0
C1826 C 0.56439 0.55885 0.07795 0.0
C1827 C 0.57873 0.56049 0.06074 0.0
C1828 C 0.55918 0.53889 0.08667 0.0
C1829 C 0.5682 0.51996 0.07849 0.0
C1830 C 0.58269 0.52163 0.06139 0.0
C1831 C 0.5879 0.54161 0.05266 0.0
H1832 H 0.68579 0.32392 0.3571 0.0
H1833 H 0.67164 0.25974 0.33646 0.0
H1834 H 0.72102 0.31253 0.36942 0.0
H1835 H 0.70685 0.24811 0.34927 0.0
H1836 H 0.7696 0.23521 0.38704 0.0
H1837 H 0.73245 0.24568 0.3823 0.0
H1838 H 0.75259 0.29998 0.34492 0.0
H1839 H 0.79012 0.28929 0.34933 0.0
C1840 C 0.68978 0.30709 0.35634 0.0
C1841 C 0.67583 0.29261 0.3462 0.0
C1842 C 0.71012 0.30069 0.36296 0.0
C1843 C 0.71684 0.27956 0.35988 0.0
C1844 C 0.70208 0.26453 0.35182 0.0
C1845 C 0.68175 0.27106 0.34486 0.0
C1846 C 0.76623 0.24953 0.37792 0.0
C1847 C 0.78293 0.26152 0.36865 0.0
C1848 C 0.74488 0.25541 0.37515 0.0
C1849 C 0.73961 0.27367 0.36338 0.0
C1850 C 0.75623 0.28592 0.35431 0.0
C1851 C 0.77769 0.27978 0.35673 0.0
H1852 H 0.9672 0.54872 0.61556 0.0
H1853 H 1.00572 0.55906 0.55935 0.0
H1854 H 0.94983 0.51823 0.59811 0.0
H1855 H 0.98881 0.52807 0.54212 0.0
H1856 H 0.98091 0.45188 0.54422 0.0
H1857 H 0.99258 0.48743 0.55554 0.0
H1858 H 0.92684 0.50651 0.56323 0.0
H1859 H 0.91504 0.47098 0.55123 0.0
C1860 C 0.97141 0.5449 0.59919 0.0
C1861 C 0.9876 0.55645 0.58871 0.0
C1862 C 0.96153 0.5274 0.58924 0.0
C1863 C 0.96807 0.52069 0.56883 0.0
C1864 C 0.98348 0.53289 0.55788 0.0
C1865 C 0.99297 0.55077 0.56763 0.0
C1866 C 0.96892 0.46368 0.54817 0.0
C1867 C 0.94705 0.45857 0.54692 0.0
C1868 C 0.97561 0.4841 0.55447 0.0
C1869 C 0.96062 0.49978 0.56015 0.0
C1870 C 0.93873 0.49475 0.55887 0.0
C1871 C 0.932 0.47444 0.552 0.0
H1872 H 0.83356 0.31936 0.72293 0.0
H1873 H 0.79822 0.37034 0.75305 0.0
H1874 H 0.80102 0.30655 0.70603 0.0
H1875 H 0.76535 0.35748 0.73578 0.0
H1876 H 0.74531 0.29811 0.66276 0.0
H1877 H 0.77572 0.3167 0.67835 0.0
H1878 H 0.7403 0.32622 0.7368 0.0
H1879 H 0.70949 0.30774 0.72097 0.0
C1880 C 0.81886 0.32797 0.72586 0.0
C1881 C 0.8186 0.34594 0.73936 0.0
C1882 C 0.80015 0.32068 0.71601 0.0
C1883 C 0.78052 0.33106 0.71938 0.0
C1884 C 0.78017 0.34905 0.7329 0.0
C1885 C 0.79903 0.35649 0.74269 0.0
C1886 C 0.7438 0.30443 0.67883 0.0
C1887 C 0.72497 0.30121 0.69067 0.0
C1888 C 0.76135 0.315 0.68783 0.0
C1889 C 0.76066 0.32261 0.709 0.0
C1890 C 0.74138 0.32059 0.72044 0.0
C1891 C 0.72371 0.30999 0.71137 0.0
H1892 H 1.00069 0.61981 0.9774 0.0
H1893 H 0.94109 0.59243 0.99904 0.0
H1894 H 1.00966 0.5864 0.95984 0.0
H1895 H 0.94979 0.55906 0.98085 0.0
H1896 H 1.01472 0.53032 0.91619 0.0
H1897 H 1.00085 0.56368 0.93053 0.0
H1898 H 0.9737 0.52941 0.98402 0.0
H1899 H 0.98699 0.49597 0.96928 0.0
C1900 C 0.98937 0.60672 0.97823 0.0
C1901 C 0.9702 0.60879 0.9897 0.0
C1902 C 0.99444 0.58756 0.96798 0.0
C1903 C 0.98041 0.56999 0.96881 0.0
C1904 C 0.96109 0.57216 0.98008 0.0
C1905 C 0.95606 0.59133 0.99044 0.0
C1906 C 1.00549 0.52986 0.93083 0.0
C1907 C 1.00208 0.51049 0.94166 0.0
C1908 C 0.99768 0.54903 0.93916 0.0
C1909 C 0.98644 0.54933 0.95864 0.0
C1910 C 0.98215 0.52981 0.96892 0.0
C1911 C 0.98982 0.5106 0.96048 0.0
H1912 H 0.67954 0.73274 0.17109 0.0
H1913 H 0.67921 0.77597 0.2247 0.0
H1914 H 0.71605 0.74381 0.16242 0.0
H1915 H 0.71569 0.78708 0.21622 0.0
H1916 H 0.78845 0.77631 0.2151 0.0
H1917 H 0.75046 0.76785 0.21973 0.0
H1918 H 0.74081 0.77289 0.15151 0.0
H1919 H 0.77862 0.78128 0.14691 0.0
C1920 C 0.68681 0.74556 0.18022 0.0
C1921 C 0.67621 0.75403 0.19811 0.0
C1922 C 0.70792 0.75163 0.17554 0.0
C1923 C 0.71902 0.76601 0.18891 0.0
C1924 C 0.7078 0.77568 0.20582 0.0
C1925 C 0.68665 0.76977 0.21033 0.0
C1926 C 0.77832 0.77514 0.20107 0.0
C1927 C 0.78665 0.77937 0.18064 0.0
C1928 C 0.75645 0.77065 0.20373 0.0
C1929 C 0.74245 0.77003 0.186 0.0
C1930 C 0.75104 0.77326 0.1655 0.0
C1931 C 0.77278 0.77801 0.16289 0.0
H1932 H 0.55818 0.53005 0.38434 0.0
H1933 H 0.52656 0.54725 0.44301 0.0
H1934 H 0.56643 0.4949 0.399 0.0
H1935 H 0.53278 0.51179 0.45708 0.0
H1936 H 0.56548 0.45434 0.48601 0.0
H1937 H 0.55503 0.48834 0.47155 0.0
H1938 H 0.55524 0.46127 0.40774 0.0
H1939 H 0.56771 0.42726 0.42266 0.0
C1940 C 0.55336 0.52637 0.40057 0.0
C1941 C 0.54244 0.54164 0.41283 0.0
C1942 C 0.55757 0.50598 0.40885 0.0
C1943 C 0.55024 0.50002 0.42934 0.0
C1944 C 0.53935 0.51557 0.44154 0.0
C1945 C 0.53583 0.53613 0.43353 0.0
C1946 C 0.56265 0.45548 0.46891 0.0
C1947 C 0.5672 0.43808 0.45549 0.0
C1948 C 0.55661 0.47516 0.46049 0.0
C1949 C 0.55442 0.47808 0.43826 0.0
C1950 C 0.5573 0.46004 0.42488 0.0
C1951 C 0.56388 0.44028 0.43341 0.0
H1952 H 0.82182 0.86858 0.74809 0.0
H1953 H 0.80139 0.82929 0.69484 0.0
H1954 H 0.84462 0.83904 0.76061 0.0
H1955 H 0.82394 0.80072 0.70691 0.0
H1956 H 0.84631 0.74482 0.74678 0.0
H1957 H 0.82479 0.77514 0.73552 0.0
H1958 H 0.87699 0.81794 0.75032 0.0
H1959 H 0.89849 0.78758 0.76196 0.0
C1960 C 0.82217 0.85381 0.73908 0.0
C1961 C 0.80959 0.85138 0.72058 0.0
C1962 C 0.83528 0.83694 0.74615 0.0
C1963 C 0.8359 0.81741 0.73485 0.0
C1964 C 0.82353 0.81528 0.71628 0.0
C1965 C 0.81062 0.83189 0.7093 0.0
C1966 C 0.85336 0.76062 0.74732 0.0
C1967 C 0.87421 0.76368 0.75511 0.0
C1968 C 0.84098 0.77806 0.74095 0.0
C1969 C 0.84914 0.79903 0.74212 0.0
C1970 C 0.87012 0.80207 0.74954 0.0
C1971 C 0.88253 0.7846 0.75592 0.0
H1972 H 0.32937 0.69208 0.30503 0.0
H1973 H 0.30106 0.72492 0.35876 0.0
H1974 H 0.34695 0.7248 0.29412 0.0
H1975 H 0.31937 0.75777 0.34821 0.0
H1976 H 0.33281 0.81652 0.30456 0.0
H1977 H 0.31814 0.78452 0.32108 0.0
H1978 H 0.3745 0.7493 0.30252 0.0
H1979 H 0.38874 0.78113 0.28525 0.0
C1980 C 0.32709 0.70626 0.31469 0.0
C1981 C 0.31374 0.70587 0.33274 0.0
C1982 C 0.33737 0.72505 0.30853 0.0
C1983 C 0.33477 0.74398 0.32035 0.0
C1984 C 0.3216 0.74356 0.3386 0.0
C1985 C 0.31114 0.72471 0.34469 0.0
C1986 C 0.34224 0.80204 0.30434 0.0
C1987 C 0.36183 0.8013 0.29337 0.0
C1988 C 0.33385 0.78366 0.31389 0.0
C1989 C 0.34495 0.76418 0.31287 0.0
C1990 C 0.36522 0.76387 0.30313 0.0
C1991 C 0.3735 0.78217 0.29338 0.0
H1992 H 0.51298 0.16965 0.516 0.0
H1993 H 0.49291 0.10688 0.53639 0.0
H1994 H 0.54984 0.16141 0.52664 0.0
H1995 H 0.52979 0.09855 0.54645 0.0
H1996 H 0.59894 0.08162 0.53349 0.0
H1997 H 0.56502 0.09599 0.52049 0.0
H1998 H 0.57074 0.14881 0.56447 0.0
H1999 H 0.60456 0.13402 0.57788 0.0
C2000 C 0.51637 0.15423 0.52306 0.0
C2001 C 0.5 0.13894 0.52545 0.0
C2002 C 0.53746 0.14953 0.52904 0.0
C2003 C 0.54266 0.12925 0.53701 0.0
C2004 C 0.52621 0.11423 0.54008 0.0
C2005 C 0.50506 0.11909 0.53457 0.0
C2006 C 0.59357 0.09693 0.53951 0.0
C2007 C 0.60468 0.10706 0.55623 0.0
C2008 C 0.57395 0.10491 0.5324 0.0
C2009 C 0.56516 0.12332 0.54171 0.0
C2010 C 0.57722 0.13462 0.557 0.0
C2011 C 0.59674 0.12638 0.56441 0.0
H2012 H 0.20998 0.36182 0.78233 0.0
H2013 H 0.16033 0.3709 0.82909 0.0
H2014 H 0.19477 0.32712 0.77282 0.0
H2015 H 0.14474 0.33628 0.81933 0.0
H2016 H 0.11858 0.27567 0.78142 0.0
H2017 H 0.12865 0.3128 0.78854 0.0
H2018 H 0.19426 0.29343 0.79708 0.0
H2019 H 0.18415 0.25622 0.79029 0.0
C2020 C 0.19501 0.35699 0.78959 0.0
C2021 C 0.18596 0.36936 0.80599 0.0
C2022 C 0.18661 0.33688 0.78455 0.0
C2023 C 0.16882 0.3288 0.79565 0.0
C2024 C 0.15846 0.34208 0.81052 0.0
C2025 C 0.16711 0.3621 0.81581 0.0
C2026 C 0.13508 0.27928 0.7853 0.0
C2027 C 0.15056 0.26298 0.78542 0.0
C2028 C 0.14083 0.30056 0.78925 0.0
C2029 C 0.16228 0.30607 0.79294 0.0
C2030 C 0.17764 0.28968 0.7939 0.0
C2031 C 0.17181 0.26833 0.79036 0.0
H2032 H 0.49515 0.50327 0.58545 0.0
H2033 H 0.46667 0.45149 0.54961 0.0
H2034 H 0.53076 0.48955 0.57719 0.0
H2035 H 0.50222 0.43785 0.54137 0.0
H2036 H 0.56596 0.40657 0.54501 0.0
H2037 H 0.53294 0.42112 0.55943 0.0
H2038 H 0.55511 0.48493 0.54556 0.0
H2039 H 0.58844 0.47023 0.53111 0.0
C2040 C 0.49645 0.48889 0.5759 0.0
C2041 C 0.47796 0.47845 0.56826 0.0
C2042 C 0.51691 0.48111 0.57108 0.0
C2043 C 0.51942 0.46253 0.55872 0.0
C2044 C 0.50091 0.45202 0.55122 0.0
C2045 C 0.48049 0.45991 0.55585 0.0
C2046 C 0.56409 0.42376 0.54559 0.0
C2047 C 0.57987 0.43723 0.5369 0.0
C2048 C 0.54502 0.43209 0.55363 0.0
C2049 C 0.54111 0.45416 0.55322 0.0
C2050 C 0.55758 0.46783 0.54612 0.0
C2051 C 0.57679 0.45944 0.53801 0.0
H2052 H 0.64735 0.25615 0.27615 0.0
H2053 H 0.69971 0.28553 0.24204 0.0
H2054 H 0.65894 0.22107 0.26413 0.0
H2055 H 0.7113 0.25021 0.22999 0.0
H2056 H 0.71483 0.18752 0.19493 0.0
H2057 H 0.69955 0.22119 0.20636 0.0
H2058 H 0.68871 0.19496 0.2693 0.0
H2059 H 0.70421 0.16072 0.2576 0.0
C2060 C 0.66126 0.25522 0.26589 0.0
C2061 C 0.67251 0.27387 0.25996 0.0
C2062 C 0.668 0.23496 0.25919 0.0
C2063 C 0.68607 0.23268 0.24614 0.0
C2064 C 0.69715 0.25133 0.23987 0.0
C2065 C 0.69052 0.27164 0.24676 0.0
C2066 C 0.70885 0.18872 0.21115 0.0
C2067 C 0.71079 0.17137 0.22537 0.0
C2068 C 0.70029 0.20819 0.21776 0.0
C2069 C 0.69331 0.21105 0.23888 0.0
C2070 C 0.69398 0.19333 0.25288 0.0
C2071 C 0.70269 0.17364 0.24619 0.0
H2072 H 0.49231 0.89664 0.98409 0.0
H2073 H 0.48102 0.95995 1.00875 0.0
H2074 H 0.52774 0.90731 0.97243 0.0
H2075 H 0.51659 0.97104 0.99648 0.0
H2076 H 0.58956 0.97686 0.99415 0.0
H2077 H 0.55416 0.96475 1.0062 0.0
H2078 H 0.5469 0.92847 0.94774 0.0
H2079 H 0.58211 0.94008 0.93626 0.0
C2080 C 0.49715 0.91313 0.98626 0.0
C2081 C 0.48379 0.92754 0.99704 0.0
C2082 C 0.51757 0.91923 0.97973 0.0
C2083 C 0.5252 0.93997 0.98377 0.0
C2084 C 0.51136 0.95481 0.99349 0.0
C2085 C 0.49079 0.94866 1.00003 0.0
C2086 C 0.58069 0.96556 0.98443 0.0
C2087 C 0.58867 0.959 0.96453 0.0
C2088 C 0.56023 0.95904 0.99102 0.0
C2089 C 0.54751 0.94587 0.97779 0.0
C2090 C 0.5562 0.93845 0.95845 0.0
C2091 C 0.57648 0.94495 0.95192 0.0
H2092 H 1.00722 0.15554 0.52089 0.0
H2093 H 0.04146 0.10842 0.48396 0.0
H2094 H 0.97329 0.14034 0.50873 0.0
H2095 H 1.0077 0.09367 0.47139 0.0
H2096 H 0.94847 0.05452 0.47353 0.0
H2097 H 0.98001 0.07268 0.48724 0.0
H2098 H 0.94863 0.13352 0.47884 0.0
H2099 H 0.91652 0.11492 0.46557 0.0
C2100 C 1.00755 0.14222 0.50983 0.0
C2101 C 0.02713 0.13308 0.50356 0.0
C2102 C 0.98805 0.13351 0.50286 0.0
C2103 C 0.98768 0.11548 0.48944 0.0
C2104 C 1.00731 0.10717 0.48223 0.0
C2105 C 0.02674 0.11578 0.48925 0.0
C2106 C 0.94812 0.07176 0.47512 0.0
C2107 C 0.93006 0.08332 0.46863 0.0
C2108 C 0.96633 0.08222 0.48266 0.0
C2109 C 0.96717 0.10463 0.4836 0.0
C2110 C 0.94858 0.11624 0.47828 0.0
C2111 C 0.93013 0.10564 0.47084 0.0
H2112 H 0.19819 0.42638 0.4508 0.0
H2113 H 0.14603 0.43051 0.40557 0.0
H2114 H 0.20863 0.39237 0.43567 0.0
H2115 H 0.15684 0.3961 0.39002 0.0
H2116 H 0.17183 0.32038 0.39198 0.0
H2117 H 0.15888 0.35645 0.40106 0.0
H2118 H 0.22403 0.37937 0.40228 0.0
H2119 H 0.23675 0.34385 0.39396 0.0
C2120 C 0.18909 0.42014 0.43741 0.0
C2121 C 0.17135 0.43123 0.42933 0.0
C2122 C 0.19512 0.40063 0.42867 0.0
C2123 C 0.18363 0.39158 0.41156 0.0
C2124 C 0.16594 0.40266 0.40326 0.0
C2125 C 0.15992 0.42243 0.41199 0.0
C2126 C 0.18323 0.33327 0.39397 0.0
C2127 C 0.20528 0.32924 0.39283 0.0
C2128 C 0.17587 0.35387 0.39906 0.0
C2129 C 0.1905 0.37062 0.40282 0.0
C2130 C 0.21239 0.36672 0.40007 0.0
C2131 C 0.21967 0.34632 0.3953 0.0
H2132 H 0.92883 0.8938 0.60772 0.0
H2133 H 0.91861 0.93953 0.65844 0.0
H2134 H 0.89084 0.88403 0.60888 0.0
H2135 H 0.88113 0.92962 0.6598 0.0
H2136 H 0.81262 0.92713 0.64548 0.0
H2137 H 0.84995 0.93477 0.63766 0.0
H2138 H 0.86233 0.86725 0.63118 0.0
H2139 H 0.82449 0.85971 0.63847 0.0
C2140 C 0.91859 0.90155 0.61931 0.0
C2141 C 0.9268 0.91757 0.63289 0.0
C2142 C 0.89681 0.89597 0.61993 0.0
C2143 C 0.88278 0.90636 0.6341 0.0
C2144 C 0.89127 0.92172 0.64823 0.0
C2145 C 0.91289 0.92727 0.6476 0.0
C2146 C 0.82315 0.91397 0.64159 0.0
C2147 C 0.81564 0.89286 0.64245 0.0
C2148 C 0.84464 0.9183 0.63745 0.0
C2149 C 0.85934 0.9016 0.63442 0.0
C2150 C 0.85149 0.8805 0.6335 0.0
C2151 C 0.82977 0.87616 0.63747 0.0
H2152 H 0.3911 0.69448 0.88336 0.0
H2153 H 0.33579 0.67118 0.91756 0.0
H2154 H 0.40659 0.65843 0.88426 0.0
H2155 H 0.35106 0.63561 0.91816 0.0
H2156 H 0.42846 0.59336 0.92376 0.0
H2157 H 0.4193 0.63015 0.91388 0.0
H2158 H 0.35894 0.60806 0.8886 0.0
H2159 H 0.36803 0.57157 0.89865 0.0
C2160 C 0.38234 0.68179 0.89121 0.0
C2161 C 0.36215 0.68575 0.90034 0.0
C2162 C 0.39118 0.66118 0.89163 0.0
C2163 C 0.3798 0.64415 0.90084 0.0
C2164 C 0.35998 0.64831 0.91049 0.0
C2165 C 0.35132 0.6688 0.91033 0.0
C2166 C 0.41384 0.59626 0.91491 0.0
C2167 C 0.39902 0.57966 0.91174 0.0
C2168 C 0.40848 0.61734 0.9095 0.0
C2169 C 0.3882 0.62197 0.90094 0.0
C2170 C 0.37453 0.60497 0.8955 0.0
C2171 C 0.37986 0.58404 0.90092 0.0
H2172 H 0.70831 0.17287 0.15775 0.0
H2173 H 0.73415 0.11692 0.12732 0.0
H2174 H 0.67271 0.16372 0.1444 0.0
H2175 H 0.69879 0.10798 0.1134 0.0
H2176 H 0.63606 0.07831 0.138 0.0
H2177 H 0.67124 0.09425 0.138 0.0
H2178 H 0.64464 0.15395 0.11614 0.0
H2179 H 0.60872 0.13769 0.116 0.0
C2180 C 0.70665 0.15944 0.14693 0.0
C2181 C 0.72405 0.14571 0.1434 0.0
C2182 C 0.68616 0.15404 0.13946 0.0
C2183 C 0.68279 0.13479 0.12833 0.0
C2184 C 0.70076 0.1227 0.12231 0.0
C2185 C 0.72115 0.12803 0.1299 0.0
C2186 C 0.63752 0.09484 0.13309 0.0
C2187 C 0.61941 0.10671 0.1271 0.0
C2188 C 0.65787 0.10393 0.13282 0.0
C2189 C 0.66091 0.1253 0.1267 0.0
C2190 C 0.64286 0.13739 0.12079 0.0
C2191 C 0.6223 0.12811 0.12077 0.0
H2192 H 0.14057 0.69396 0.13552 0.0
H2193 H 0.13525 0.70168 0.20395 0.0
H2194 H 0.13323 0.65583 0.13921 0.0
H2195 H 0.128 0.66318 0.20756 0.0
H2196 H 0.09784 0.58987 0.17157 0.0
H2197 H 0.09659 0.62861 0.17795 0.0
H2198 H 0.16516 0.63182 0.17238 0.0
H2199 H 0.16647 0.59338 0.16586 0.0
C2200 C 0.13702 0.68766 0.15127 0.0
C2201 C 0.1384 0.70086 0.16942 0.0
C2202 C 0.13291 0.66583 0.15337 0.0
C2203 C 0.13014 0.65666 0.17365 0.0
C2204 C 0.12991 0.66998 0.19175 0.0
C2205 C 0.13389 0.692 0.18964 0.0
C2206 C 0.11271 0.59867 0.17281 0.0
C2207 C 0.13229 0.58855 0.16834 0.0
C2208 C 0.11195 0.62085 0.17627 0.0
C2209 C 0.13078 0.63308 0.17558 0.0
C2210 C 0.15045 0.62267 0.17308 0.0
C2211 C 0.1512 0.60066 0.16947 0.0
H2212 H 0.6929 0.90492 0.41473 0.0
H2213 H 0.67849 0.84929 0.37674 0.0
H2214 H 0.65626 0.90503 0.42846 0.0
H2215 H 0.64161 0.84977 0.38986 0.0
H2216 H 0.57839 0.8942 0.38463 0.0
H2217 H 0.61497 0.88137 0.37991 0.0
H2218 H 0.62463 0.8833 0.44826 0.0
H2219 H 0.58755 0.89542 0.45301 0.0
C2220 C 0.68223 0.89202 0.41026 0.0
C2221 C 0.68875 0.87674 0.39515 0.0
C2222 C 0.66116 0.89219 0.41794 0.0
C2223 C 0.64599 0.87748 0.41015 0.0
C2224 C 0.65294 0.86126 0.39621 0.0
C2225 C 0.67415 0.86079 0.38895 0.0
C2226 C 0.58806 0.89111 0.39869 0.0
C2227 C 0.58001 0.89551 0.41919 0.0
C2228 C 0.60903 0.88377 0.396 0.0
C2229 C 0.62271 0.88128 0.41372 0.0
C2230 C 0.61444 0.88496 0.43433 0.0
C2231 C 0.59318 0.89172 0.43706 0.0
H2232 H 0.42257 0.4447 0.62442 0.0
H2233 H 0.3666 0.43332 0.58547 0.0
H2234 H 0.41719 0.40988 0.64195 0.0
H2235 H 0.36111 0.39927 0.60296 0.0
H2236 H 0.36899 0.33071 0.61504 0.0
H2237 H 0.37952 0.36538 0.6012 0.0
H2238 H 0.39259 0.38728 0.66547 0.0
H2239 H 0.38244 0.35184 0.67938 0.0
C2240 C 0.40896 0.43498 0.61984 0.0
C2241 C 0.39518 0.44171 0.60332 0.0
C2242 C 0.4059 0.41503 0.62986 0.0
C2243 C 0.38902 0.40149 0.62351 0.0
C2244 C 0.37467 0.4089 0.60784 0.0
C2245 C 0.37775 0.42858 0.59787 0.0
C2246 C 0.37457 0.34274 0.62622 0.0
C2247 C 0.37479 0.33858 0.64829 0.0
C2248 C 0.38041 0.36273 0.61831 0.0
C2249 C 0.38633 0.37938 0.63224 0.0
C2250 C 0.38803 0.37485 0.65429 0.0
C2251 C 0.38232 0.35455 0.66227 0.0
H2252 H 0.94352 0.11613 0.94562 0.0
H2253 H 0.9692 0.13949 0.88613 0.0
H2254 H 0.90723 0.12338 0.93276 0.0
H2255 H 0.93313 0.147 0.87333 0.0
H2256 H 0.87273 0.11601 0.84557 0.0
H2257 H 0.90735 0.11785 0.86321 0.0
H2258 H 0.87861 0.14899 0.91762 0.0
H2259 H 0.84364 0.14726 0.89985 0.0
C2260 C 0.94146 0.12412 0.93038 0.0
C2261 C 0.95914 0.12753 0.91696 0.0
C2262 C 0.92066 0.12797 0.92286 0.0
C2263 C 0.91733 0.13522 0.90181 0.0
C2264 C 0.93519 0.14099 0.88946 0.0
C2265 C 0.95587 0.13711 0.89693 0.0
C2266 C 0.87365 0.12312 0.86136 0.0
C2267 C 0.85534 0.13149 0.87124 0.0
C2268 C 0.89359 0.12442 0.87137 0.0
C2269 C 0.89581 0.13399 0.89163 0.0
C2270 C 0.87743 0.14168 0.90195 0.0
C2271 C 0.85741 0.1406 0.89178 0.0
H2272 H 0.39714 0.11436 0.44374 0.0
H2273 H 0.4307 0.17262 0.4279 0.0
H2274 H 0.38686 0.11021 0.40582 0.0
H2275 H 0.42057 0.16829 0.39052 0.0
H2276 H 0.4319 0.13249 0.32828 0.0
H2277 H 0.43282 0.1263 0.36684 0.0
H2278 H 0.36693 0.14555 0.37161 0.0
H2279 H 0.3659 0.15165 0.3328 0.0
C2280 C 0.40189 0.12649 0.43235 0.0
C2281 C 0.41488 0.14375 0.43884 0.0
C2282 C 0.39607 0.12404 0.4107 0.0
C2283 C 0.40314 0.13884 0.39537 0.0
C2284 C 0.41507 0.15661 0.40208 0.0
C2285 C 0.42083 0.15906 0.4235 0.0
C2286 C 0.41724 0.13418 0.33733 0.0
C2287 C 0.39881 0.14242 0.3275 0.0
C2288 C 0.41782 0.13078 0.35941 0.0
C2289 C 0.39997 0.13553 0.3721 0.0
C2290 C 0.38079 0.14152 0.36208 0.0
C2291 C 0.38017 0.14482 0.33984 0.0
H2292 H 0.12553 0.13102 0.59301 0.0
H2293 H 0.09465 0.19263 0.59291 0.0
H2294 H 0.13521 0.13604 0.6308 0.0
H2295 H 0.10457 0.19775 0.63015 0.0
H2296 H 0.16158 0.16704 0.69615 0.0
H2297 H 0.15607 0.15828 0.65808 0.0
H2298 H 0.09097 0.18065 0.66256 0.0
H2299 H 0.09659 0.18965 0.69993 0.0
C2300 C 0.12126 0.14582 0.60088 0.0
C2301 C 0.10909 0.16133 0.59005 0.0
C2302 C 0.12677 0.14866 0.62252 0.0
C2303 C 0.12019 0.16705 0.63362 0.0
C2304 C 0.10934 0.18311 0.62226 0.0
C2305 C 0.10378 0.18025 0.60084 0.0
C2306 C 0.146 0.16955 0.68902 0.0
C2307 C 0.12957 0.17921 0.70089 0.0
C2308 C 0.14286 0.16466 0.66725 0.0
C2309 C 0.12326 0.16935 0.65716 0.0
C2310 C 0.10647 0.17747 0.66962 0.0
C2311 C 0.10962 0.18245 0.69112 0.0
H2312 H 0.13842 0.92552 0.93474 0.0
H2313 H 0.11976 0.85912 0.93365 0.0
H2314 H 0.14844 0.92305 0.89662 0.0
H2315 H 0.12956 0.85678 0.89616 0.0
H2316 H 0.11526 0.86685 0.82705 0.0
H2317 H 0.11027 0.875 0.8647 0.0
H2318 H 0.17387 0.90151 0.86794 0.0
H2319 H 0.17903 0.8932 0.82969 0.0
C2320 C 0.13701 0.9103 0.9266 0.0
C2321 C 0.12809 0.89257 0.93724 0.0
C2322 C 0.14265 0.90893 0.90476 0.0
C2323 C 0.13933 0.88983 0.89324 0.0
C2324 C 0.13187 0.87184 0.90439 0.0
C2325 C 0.12636 0.87318 0.92598 0.0
C2326 C 0.12812 0.87479 0.83556 0.0
C2327 C 0.14763 0.87916 0.82529 0.0
C2328 C 0.12528 0.87936 0.85724 0.0
C2329 C 0.14183 0.88848 0.86946 0.0
C2330 C 0.16085 0.89441 0.85896 0.0
C2331 C 0.16375 0.88974 0.83704 0.0
H2332 H 0.39983 0.8645 0.08371 0.0
H2333 H 0.40567 0.9318 0.09727 0.0
H2334 H 0.38961 0.85783 0.12068 0.0
H2335 H 0.39581 0.92508 0.13472 0.0
H2336 H 0.36578 0.89997 0.2 0.0
H2337 H 0.36876 0.91058 0.16227 0.0
H2338 H 0.41412 0.8598 0.15182 0.0
H2339 H 0.41116 0.84922 0.189 0.0
C2340 C 0.39824 0.87796 0.0945 0.0
C2341 C 0.40356 0.89864 0.08768 0.0
C2342 C 0.39264 0.87413 0.11573 0.0
C2343 C 0.39251 0.89084 0.13075 0.0
C2344 C 0.39585 0.91187 0.12352 0.0
C2345 C 0.40134 0.91575 0.10207 0.0
C2346 C 0.37655 0.89125 0.18966 0.0
C2347 C 0.3881 0.87362 0.19751 0.0
C2348 C 0.37821 0.89731 0.16807 0.0
C2349 C 0.39129 0.88572 0.15397 0.0
C2350 C 0.40343 0.8687 0.16211 0.0
C2351 C 0.40187 0.86274 0.18354 0.0
H2352 H 0.44865 0.38882 0.08601 0.0
H2353 H 0.45149 0.36717 0.15142 0.0
H2354 H 0.41048 0.37961 0.08457 0.0
H2355 H 0.41365 0.35709 0.14969 0.0
H2356 H 0.34662 0.33168 0.13499 0.0
H2357 H 0.38472 0.33223 0.1257 0.0
H2358 H 0.38035 0.39946 0.11155 0.0
H2359 H 0.34254 0.39907 0.12175 0.0
C2360 C 0.44138 0.38108 0.09969 0.0
C2361 C 0.4531 0.37832 0.11871 0.0
C2362 C 0.41951 0.37602 0.09892 0.0
C2363 C 0.40916 0.36754 0.11697 0.0
C2364 C 0.42129 0.36333 0.13545 0.0
C2365 C 0.44295 0.369 0.13643 0.0
C2366 C 0.35357 0.34632 0.12891 0.0
C2367 C 0.34153 0.36525 0.12864 0.0
C2368 C 0.37542 0.34668 0.12384 0.0
C2369 C 0.38545 0.36587 0.11786 0.0
C2370 C 0.37296 0.3844 0.11584 0.0
C2371 C 0.3513 0.38416 0.12152 0.0
H2372 H 0.89252 0.9568 0.16708 0.0
H2373 H 0.95442 0.93785 0.14392 0.0
H2374 H 0.88832 0.92239 0.18474 0.0
H2375 H 0.95035 0.90314 0.16158 0.0
H2376 H 0.88024 0.85898 0.21267 0.0
H2377 H 0.89807 0.89377 0.20998 0.0
H2378 H 0.92611 0.87442 0.14994 0.0
H2379 H 0.90823 0.83998 0.15273 0.0
C2380 C 0.90576 0.94567 0.16681 0.0
C2381 C 0.92396 0.95016 0.15449 0.0
C2382 C 0.90334 0.92582 0.17686 0.0
C2383 C 0.9189 0.90979 0.17445 0.0
C2384 C 0.93799 0.91503 0.16367 0.0
C2385 C 0.9405 0.93505 0.15382 0.0
C2386 C 0.89121 0.86178 0.19957 0.0
C2387 C 0.89313 0.84665 0.18307 0.0
C2388 C 0.90116 0.88185 0.19782 0.0
C2389 C 0.91337 0.88708 0.17961 0.0
C2390 C 0.91706 0.871 0.1643 0.0
C2391 C 0.9069 0.85113 0.16592 0.0
H2392 H 0.18731 0.63315 0.69022 0.0
H2393 H 0.2013 0.64898 0.62447 0.0
H2394 H 0.15034 0.62694 0.68105 0.0
H2395 H 0.16381 0.64159 0.61486 0.0
H2396 H 0.08862 0.64088 0.61052 0.0
H2397 H 0.1258 0.65166 0.61796 0.0
H2398 H 0.13116 0.60019 0.66365 0.0
H2399 H 0.09462 0.59026 0.65709 0.0
C2400 C 0.18255 0.635 0.67364 0.0
C2401 C 0.19745 0.64115 0.65801 0.0
C2402 C 0.16122 0.63137 0.66834 0.0
C2403 C 0.15402 0.63325 0.64709 0.0
C2404 C 0.16874 0.63999 0.6314 0.0
C2405 C 0.19025 0.64404 0.63685 0.0
C2406 C 0.09776 0.63213 0.62234 0.0
C2407 C 0.0884 0.61495 0.63347 0.0
C2408 C 0.11911 0.63816 0.62646 0.0
C2409 C 0.1315 0.62703 0.64169 0.0
C2410 C 0.1221 0.60965 0.65234 0.0
C2411 C 0.10096 0.60386 0.64846 0.0
H2412 H 0.59558 0.93654 0.881 0.0
H2413 H 0.66338 0.94794 0.88628 0.0
H2414 H 0.60242 0.89818 0.87599 0.0
H2415 H 0.67024 0.91005 0.881 0.0
H2416 H 0.67274 0.84444 0.9097 0.0
H2417 H 0.66197 0.8816 0.9081 0.0
H2418 H 0.62135 0.86787 0.85389 0.0
H2419 H 0.6322 0.83018 0.85544 0.0
C2420 C 0.61194 0.93099 0.88005 0.0
C2421 C 0.62898 0.94515 0.88396 0.0
C2422 C 0.61585 0.90903 0.87741 0.0
C2423 C 0.63684 0.90107 0.87868 0.0
C2424 C 0.65387 0.91564 0.88046 0.0
C2425 C 0.64998 0.93738 0.88319 0.0
C2426 C 0.6613 0.84916 0.89756 0.0
C2427 C 0.65351 0.83431 0.88258 0.0
C2428 C 0.65526 0.87055 0.89653 0.0
C2429 C 0.64124 0.87778 0.88051 0.0
C2430 C 0.63231 0.86278 0.8663 0.0
C2431 C 0.63846 0.84121 0.86727 0.0
H2432 H 0.90918 0.20173 0.38864 0.0
H2433 H 0.8711 0.19079 0.33217 0.0
H2434 H 0.92088 0.16455 0.38801 0.0
H2435 H 0.88224 0.15339 0.33184 0.0
H2436 H 0.86997 0.09133 0.37613 0.0
H2437 H 0.86938 0.1276 0.36183 0.0
H2438 H 0.93795 0.13148 0.36851 0.0
H2439 H 0.93854 0.09468 0.38223 0.0
C2440 C 0.9044 0.19172 0.37531 0.0
C2441 C 0.88956 0.19933 0.36023 0.0
C2442 C 0.9109 0.17031 0.37506 0.0
C2443 C 0.90228 0.15593 0.36002 0.0
C2444 C 0.88915 0.16406 0.34364 0.0
C2445 C 0.88306 0.18561 0.3436 0.0
C2446 C 0.885 0.09961 0.37371 0.0
C2447 C 0.90431 0.0901 0.38005 0.0
C2448 C 0.88469 0.12041 0.36551 0.0
C2449 C 0.90363 0.13246 0.36401 0.0
C2450 C 0.92312 0.12257 0.36938 0.0
C2451 C 0.92348 0.10147 0.37707 0.0
H2452 H 0.64607 0.20303 0.70169 0.0
H2453 H 0.63299 0.21398 0.63485 0.0
H2454 H 0.63126 0.16677 0.69852 0.0
H2455 H 0.61749 0.1782 0.63183 0.0
H2456 H 0.64654 0.09998 0.65965 0.0
H2457 H 0.64938 0.13635 0.67373 0.0
H2458 H 0.58751 0.15121 0.64712 0.0
H2459 H 0.58436 0.11447 0.63371 0.0
C2460 C 0.63907 0.19805 0.68662 0.0
C2461 C 0.64038 0.21134 0.66856 0.0
C2462 C 0.63077 0.17728 0.68476 0.0
C2463 C 0.62316 0.16971 0.66495 0.0
C2464 C 0.62295 0.18369 0.64736 0.0
C2465 C 0.63178 0.20417 0.64907 0.0
C2466 C 0.63309 0.1107 0.6578 0.0
C2467 C 0.61508 0.10434 0.64595 0.0
C2468 C 0.63473 0.13154 0.66578 0.0
C2469 C 0.61868 0.14662 0.66148 0.0
C2470 C 0.60005 0.13987 0.65077 0.0
C2471 C 0.59816 0.11882 0.64329 0.0
H2472 H 0.10103 0.45282 0.89501 0.0
H2473 H 0.08018 0.39844 0.93213 0.0
H2474 H 0.13627 0.43718 0.89168 0.0
H2475 H 0.11594 0.38261 0.92861 0.0
H2476 H 0.17707 0.35773 0.88636 0.0
H2477 H 0.14136 0.36837 0.89858 0.0
H2478 H 0.16649 0.42989 0.91723 0.0
H2479 H 0.20181 0.41937 0.90472 0.0
C2480 C 0.10389 0.43744 0.90239 0.0
C2481 C 0.08771 0.42696 0.91392 0.0
C2482 C 0.12422 0.42856 0.90065 0.0
C2483 C 0.12903 0.40887 0.91028 0.0
C2484 C 0.11272 0.39789 0.92117 0.0
C2485 C 0.09227 0.40693 0.92312 0.0
C2486 C 0.17512 0.37306 0.89415 0.0
C2487 C 0.19217 0.3877 0.89479 0.0
C2488 C 0.15465 0.37925 0.90093 0.0
C2489 C 0.15106 0.40015 0.90837 0.0
C2490 C 0.16868 0.41384 0.91117 0.0
C2491 C 0.18898 0.40772 0.90433 0.0
H2492 H 0.34192 0.65111 0.39064 0.0
H2493 H 0.36076 0.6069 0.34098 0.0
H2494 H 0.37922 0.65306 0.40298 0.0
H2495 H 0.39759 0.60916 0.35311 0.0
H2496 H 0.46137 0.63696 0.35759 0.0
H2497 H 0.42332 0.64325 0.3521 0.0
H2498 H 0.4108 0.62489 0.41742 0.0
H2499 H 0.44918 0.61866 0.42296 0.0
C2500 C 0.35388 0.64156 0.38259 0.0
C2501 C 0.34836 0.62897 0.36468 0.0
C2502 C 0.37518 0.64278 0.38961 0.0
C2503 C 0.39126 0.63167 0.37865 0.0
C2504 C 0.38554 0.61827 0.36154 0.0
C2505 C 0.36437 0.61685 0.3547 0.0
C2506 C 0.45064 0.63537 0.3711 0.0
C2507 C 0.45815 0.6274 0.39069 0.0
C2508 C 0.42886 0.63871 0.36789 0.0
C2509 C 0.41417 0.63406 0.3842 0.0
C2510 C 0.42185 0.62855 0.40461 0.0
C2511 C 0.44381 0.62523 0.40784 0.0
H2512 H 0.98278 0.70439 0.9457 0.0
H2513 H 0.92089 0.67672 0.95897 0.0
H2514 H 0.97353 0.70723 0.90818 0.0
H2515 H 0.91114 0.6805 0.92125 0.0
H2516 H 0.90793 0.67196 0.84841 0.0
H2517 H 0.91795 0.66689 0.88597 0.0
H2518 H 0.95226 0.72688 0.88483 0.0
H2519 H 0.94322 0.73137 0.84754 0.0
C2520 C 0.96699 0.69929 0.94068 0.0
C2521 C 0.95252 0.69046 0.9554 0.0
C2522 C 0.96165 0.70095 0.91908 0.0
C2523 C 0.94154 0.69415 0.91159 0.0
C2524 C 0.92689 0.68559 0.92637 0.0
C2525 C 0.93236 0.68368 0.94804 0.0
C2526 C 0.91791 0.68383 0.85615 0.0
C2527 C 0.92485 0.70199 0.8449 0.0
C2528 C 0.92344 0.68108 0.87774 0.0
C2529 C 0.93591 0.69649 0.88852 0.0
C2530 C 0.94301 0.71445 0.87707 0.0
C2531 C 0.9377 0.71707 0.85559 0.0
H2532 H 0.6134 0.67522 0.09446 0.0
H2533 H 0.62912 0.6082 0.09614 0.0
H2534 H 0.63324 0.68083 0.12772 0.0
H2535 H 0.64845 0.61372 0.13012 0.0
H2536 H 0.63997 0.64115 0.20524 0.0
H2537 H 0.63192 0.62811 0.16905 0.0
H2538 H 0.67366 0.67617 0.14264 0.0
H2539 H 0.68209 0.68874 0.17878 0.0
C2540 C 0.62138 0.66174 0.1018 0.0
C2541 C 0.61982 0.64131 0.09264 0.0
C2542 C 0.6328 0.66496 0.12081 0.0
C2543 C 0.64246 0.64772 0.13147 0.0
C2544 C 0.64124 0.62729 0.12217 0.0
C2545 C 0.6303 0.62417 0.10272 0.0
C2546 C 0.64846 0.64797 0.19177 0.0
C2547 C 0.66211 0.66556 0.19484 0.0
C2548 C 0.64369 0.64067 0.17104 0.0
C2549 C 0.65206 0.65123 0.15303 0.0
C2550 C 0.66702 0.66771 0.15622 0.0
C2551 C 0.67208 0.67471 0.17692 0.0
H2552 H 0.69673 0.36415 0.33956 0.0
H2553 H 0.6329 0.38837 0.33075 0.0
H2554 H 0.69783 0.37988 0.37555 0.0
H2555 H 0.63426 0.40477 0.36631 0.0
H2556 H 0.64625 0.43864 0.42978 0.0
H2557 H 0.65532 0.43203 0.39209 0.0
H2558 H 0.67251 0.36724 0.4078 0.0
H2559 H 0.66269 0.37365 0.44517 0.0
C2560 C 0.6834 0.37381 0.34486 0.0
C2561 C 0.66487 0.37538 0.33219 0.0
C2562 C 0.68393 0.38259 0.36556 0.0
C2563 C 0.66613 0.39358 0.37377 0.0
C2564 C 0.64831 0.39664 0.36037 0.0
C2565 C 0.64756 0.38735 0.33995 0.0
C2566 C 0.65279 0.42327 0.42529 0.0
C2567 C 0.65416 0.40676 0.44046 0.0
C2568 C 0.65777 0.41943 0.4037 0.0
C2569 C 0.66469 0.39913 0.39698 0.0
C2570 C 0.66752 0.38311 0.4125 0.0
C2571 C 0.66198 0.38679 0.43391 0.0
H2572 H 0.92498 0.33558 0.70287 0.0
H2573 H 0.88705 0.39314 0.70436 0.0
H2574 H 0.933 0.34165 0.66554 0.0
H2575 H 0.89584 0.39974 0.66674 0.0
H2576 H 0.89754 0.39069 0.5929 0.0
H2577 H 0.88898 0.3865 0.6309 0.0
H2578 H 0.95304 0.36358 0.64271 0.0
H2579 H 0.96121 0.36694 0.60501 0.0
C2580 C 0.91861 0.34979 0.69533 0.0
C2581 C 0.9054 0.36392 0.70672 0.0
C2582 C 0.92332 0.35333 0.67383 0.0
C2583 C 0.91517 0.37125 0.66303 0.0
C2584 C 0.9022 0.38563 0.67446 0.0
C2585 C 0.89735 0.382 0.69609 0.0
C2586 C 0.90971 0.38462 0.60365 0.0
C2587 C 0.92997 0.37889 0.59584 0.0
C2588 C 0.90488 0.38242 0.62547 0.0
C2589 C 0.92027 0.37457 0.63994 0.0
C2590 C 0.9406 0.36921 0.63206 0.0
C2591 C 0.94532 0.3712 0.61034 0.0
loop_
_geom_bond_atom_site_label_1
_geom_bond_atom_site_label_2
_geom_bond_distance
_geom_bond_site_symmetry_2
_ccdc_geom_bond_type
C0 O2 1.247 . S
C0 O4 1.258 . S
C1 O8 1.247 . S
C1 O9 1.258 . S
O2 C0 1.247 . S
O2 Zn3 2.028 . S
Zn3 O2 2.028 . S
Zn3 O7 2.035 . S
Zn3 O9 2.035 . S
Zn3 O10 2.028 . S
O4 C0 1.258 . S
O4 Zn5 2.035 . S
Zn5 O4 2.035 . S
Zn5 O6 2.028 . S
Zn5 O8 2.028 . S
Zn5 O11 2.035 . S
O6 Zn5 2.028 . S
O6 C12 1.247 . S
O7 Zn3 2.035 . S
O7 C12 1.258 . S
O8 C1 1.247 . S
O8 Zn5 2.028 . S
O9 C1 1.258 . S
O9 Zn3 2.035 . S
O10 Zn3 2.028 . S
O10 C13 1.247 . S
O11 Zn5 2.035 . S
O11 C13 1.258 . S
C12 O6 1.247 . S
C12 O7 1.258 . S
C13 O10 1.247 . S
C13 O11 1.258 . S
C14 O16 1.245 1_455 S
C14 O18 1.258 . S
C15 O22 1.247 . S
C15 O23 1.258 . S
O16 C14 1.245 1_655 S
O16 Zn17 2.028 . S
Zn17 O16 2.028 . S
Zn17 O21 2.035 . S
Zn17 O23 2.035 . S
Zn17 O24 2.028 . S
O18 C14 1.258 . S
O18 Zn19 2.035 1_455 S
Zn19 O18 2.035 1_655 S
Zn19 O20 2.028 1_655 S
Zn19 O22 2.028 . S
Zn19 O25 2.035 . S
O20 Zn19 2.028 1_455 S
O20 C26 1.247 . S
O21 Zn17 2.035 . S
O21 C26 1.258 1_655 S
O22 C15 1.247 . S
O22 Zn19 2.028 . S
O23 C15 1.258 . S
O23 Zn17 2.035 . S
O24 Zn17 2.028 . S
O24 C27 1.247 . S
O25 Zn19 2.035 . S
O25 C27 1.258 . S
C26 O20 1.247 . S
C26 O21 1.258 1_455 S
C27 O24 1.247 . S
C27 O25 1.258 . S
C28 O30 1.247 . S
C28 O32 1.258 . S
C29 O36 1.247 . S
C29 O37 1.258 . S
O30 C28 1.247 . S
O30 Zn31 2.028 . S
Zn31 O30 2.028 . S
Zn31 O35 2.035 . S
Zn31 O37 2.035 . S
Zn31 O38 2.028 . S
O32 C28 1.258 . S
O32 Zn33 2.035 . S
Zn33 O32 2.035 . S
Zn33 O34 2.028 . S
Zn33 O36 2.028 . S
Zn33 O39 2.035 . S
O34 Zn33 2.028 . S
O34 C40 1.247 . S
O35 Zn31 2.035 . S
O35 C40 1.258 . S
O36 C29 1.247 . S
O36 Zn33 2.028 . S
O37 C29 1.258 . S
O37 Zn31 2.035 . S
O38 Zn31 2.028 . S
O38 C41 1.247 . S
O39 Zn33 2.035 . S
O39 C41 1.258 . S
C40 O34 1.247 . S
C40 O35 1.258 . S
C41 O38 1.247 . S
C41 O39 1.258 . S
C42 O44 1.247 . S
C42 O46 1.258 . S
C43 O50 1.247 . S
C43 O51 1.258 . S
O44 C42 1.247 . S
O44 Zn45 2.028 . S
Zn45 O44 2.028 . S
Zn45 O49 2.035 . S
Zn45 O51 2.035 . S
Zn45 O52 2.028 . S
O46 C42 1.258 . S
O46 Zn47 2.035 . S
Zn47 O46 2.035 . S
Zn47 O48 2.028 . S
Zn47 O50 2.028 . S
Zn47 O53 2.035 . S
O48 Zn47 2.028 . S
O48 C54 1.247 . S
O49 Zn45 2.035 . S
O49 C54 1.258 . S
O50 C43 1.247 . S
O50 Zn47 2.028 . S
O51 C43 1.258 . S
O51 Zn45 2.035 . S
O52 Zn45 2.028 . S
O52 C55 1.247 . S
O53 Zn47 2.035 . S
O53 C55 1.258 . S
C54 O48 1.247 . S
C54 O49 1.258 . S
C55 O52 1.247 . S
C55 O53 1.258 . S
C56 O58 1.247 . S
C56 O60 1.258 . S
C57 O64 1.247 . S
C57 O65 1.258 . S
O58 C56 1.247 . S
O58 Zn59 2.028 . S
Zn59 O58 2.028 . S
Zn59 O63 2.035 . S
Zn59 O65 2.035 . S
Zn59 O66 2.028 . S
O60 C56 1.258 . S
O60 Zn61 2.035 . S
Zn61 O60 2.035 . S
Zn61 O62 2.028 . S
Zn61 O64 2.028 . S
Zn61 O67 2.035 . S
O62 Zn61 2.028 . S
O62 C68 1.247 . S
O63 Zn59 2.035 . S
O63 C68 1.258 . S
O64 C57 1.247 . S
O64 Zn61 2.028 . S
O65 C57 1.258 . S
O65 Zn59 2.035 . S
O66 Zn59 2.028 . S
O66 C69 1.247 . S
O67 Zn61 2.035 . S
O67 C69 1.258 . S
C68 O62 1.247 . S
C68 O63 1.258 . S
C69 O66 1.247 . S
C69 O67 1.258 . S
C70 O72 1.247 . S
C70 O74 1.258 . S
C71 O78 1.247 . S
C71 O79 1.258 . S
O72 C70 1.247 . S
O72 Zn73 2.028 . S
Zn73 O72 2.028 . S
Zn73 O77 2.035 . S
Zn73 O79 2.035 . S
Zn73 O80 2.028 . S
O74 C70 1.258 . S
O74 Zn75 2.035 . S
Zn75 O74 2.035 . S
Zn75 O76 2.028 . S
Zn75 O78 2.028 . S
Zn75 O81 2.035 . S
O76 Zn75 2.028 . S
O76 C82 1.247 . S
O77 Zn73 2.035 . S
O77 C82 1.258 . S
O78 C71 1.247 . S
O78 Zn75 2.028 . S
O79 C71 1.258 . S
O79 Zn73 2.035 . S
O80 Zn73 2.028 . S
O80 C83 1.247 . S
O81 Zn75 2.035 . S
O81 C83 1.258 . S
C82 O76 1.247 . S
C82 O77 1.258 . S
C83 O80 1.247 . S
C83 O81 1.258 . S
C84 O86 1.247 . S
C84 O88 1.258 . S
C85 O92 1.247 . S
C85 O93 1.258 . S
O86 C84 1.247 . S
O86 Zn87 2.028 . S
Zn87 O86 2.028 . S
Zn87 O91 2.035 . S
Zn87 O93 2.035 . S
Zn87 O94 2.028 . S
O88 C84 1.258 . S
O88 Zn89 2.035 . S
Zn89 O88 2.035 . S
Zn89 O90 2.028 . S
Zn89 O92 2.028 . S
Zn89 O95 2.035 . S
O90 Zn89 2.028 . S
O90 C96 1.247 . S
O91 Zn87 2.035 . S
O91 C96 1.258 . S
O92 C85 1.247 . S
O92 Zn89 2.028 . S
O93 C85 1.258 . S
O93 Zn87 2.035 . S
O94 Zn87 2.028 . S
O94 C97 1.247 . S
O95 Zn89 2.035 . S
O95 C97 1.258 . S
C96 O90 1.247 . S
C96 O91 1.258 . S
C97 O94 1.247 . S
C97 O95 1.258 . S
C98 O100 1.246 1_455 S
C98 O102 1.258 . S
C99 O106 1.247 . S
C99 O107 1.258 . S
O100 C98 1.246 1_655 S
O100 Zn101 2.028 . S
Zn101 O100 2.028 . S
Zn101 O105 2.035 . S
Zn101 O107 2.035 . S
Zn101 O108 2.028 . S
O102 C98 1.258 . S
O102 Zn103 2.035 1_455 S
Zn103 O102 2.035 1_655 S
Zn103 O104 2.028 1_655 S
Zn103 O106 2.028 . S
Zn103 O109 2.035 . S
O104 Zn103 2.028 1_455 S
O104 C110 1.247 . S
O105 Zn101 2.035 . S
O105 C110 1.258 1_655 S
O106 C99 1.247 . S
O106 Zn103 2.028 . S
O107 C99 1.258 . S
O107 Zn101 2.035 . S
O108 Zn101 2.028 . S
O108 C111 1.247 . S
O109 Zn103 2.035 . S
O109 C111 1.258 . S
C110 O104 1.247 . S
C110 O105 1.258 1_455 S
C111 O108 1.247 . S
C111 O109 1.258 . S
C112 O114 1.247 . S
C112 O116 1.258 . S
C113 O120 1.247 . S
C113 O121 1.258 . S
O114 C112 1.247 . S
O114 Zn115 2.028 . S
Zn115 O114 2.028 . S
Zn115 O119 2.035 . S
Zn115 O121 2.035 . S
Zn115 O122 2.028 . S
O116 C112 1.258 . S
O116 Zn117 2.035 . S
Zn117 O116 2.035 . S
Zn117 O118 2.028 . S
Zn117 O120 2.028 . S
Zn117 O123 2.035 . S
O118 Zn117 2.028 . S
O118 C124 1.247 . S
O119 Zn115 2.035 . S
O119 C124 1.258 . S
O120 C113 1.247 . S
O120 Zn117 2.028 . S
O121 C113 1.258 . S
O121 Zn115 2.035 . S
O122 Zn115 2.028 . S
O122 C125 1.247 . S
O123 Zn117 2.035 . S
O123 C125 1.258 . S
C124 O118 1.247 . S
C124 O119 1.258 . S
C125 O122 1.247 . S
C125 O123 1.258 . S
C126 O128 1.247 . S
C126 O130 1.258 . S
C127 O134 1.247 . S
C127 O135 1.258 . S
O128 C126 1.247 . S
O128 Zn129 2.028 . S
Zn129 O128 2.028 . S
Zn129 O133 2.035 . S
Zn129 O135 2.035 . S
Zn129 O136 2.028 . S
O130 C126 1.258 . S
O130 Zn131 2.035 . S
Zn131 O130 2.035 . S
Zn131 O132 2.028 . S
Zn131 O134 2.028 . S
Zn131 O137 2.035 . S
O132 Zn131 2.028 . S
O132 C138 1.247 . S
O133 Zn129 2.035 . S
O133 C138 1.258 . S
O134 C127 1.247 . S
O134 Zn131 2.028 . S
O135 C127 1.258 . S
O135 Zn129 2.035 . S
O136 Zn129 2.028 . S
O136 C139 1.247 . S
O137 Zn131 2.035 . S
O137 C139 1.258 . S
C138 O132 1.247 . S
C138 O133 1.258 . S
C139 O136 1.247 . S
C139 O137 1.258 . S
C140 O142 1.247 . S
C140 O144 1.258 . S
C141 O148 1.247 . S
C141 O149 1.258 . S
O142 C140 1.247 . S
O142 Zn143 2.028 . S
Zn143 O142 2.028 . S
Zn143 O147 2.035 . S
Zn143 O149 2.035 . S
Zn143 O150 2.028 . S
O144 C140 1.258 . S
O144 Zn145 2.035 . S
Zn145 O144 2.035 . S
Zn145 O146 2.028 . S
Zn145 O148 2.028 . S
Zn145 O151 2.035 . S
O146 Zn145 2.028 . S
O146 C152 1.247 . S
O147 Zn143 2.035 . S
O147 C152 1.258 . S
O148 C141 1.247 . S
O148 Zn145 2.028 . S
O149 C141 1.258 . S
O149 Zn143 2.035 . S
O150 Zn143 2.028 . S
O150 C153 1.247 . S
O151 Zn145 2.035 . S
O151 C153 1.258 . S
C152 O146 1.247 . S
C152 O147 1.258 . S
C153 O150 1.247 . S
C153 O151 1.258 . S
C154 O156 1.247 . S
C154 O158 1.258 . S
C155 O162 1.247 . S
C155 O163 1.256 1_556 S
O156 C154 1.247 . S
O156 Zn157 2.028 . S
Zn157 O156 2.028 . S
Zn157 O161 2.035 . S
Zn157 O163 2.035 . S
Zn157 O164 2.028 . S
O158 C154 1.258 . S
O158 Zn159 2.035 . S
Zn159 O158 2.035 . S
Zn159 O160 2.028 . S
Zn159 O162 2.028 1_554 S
Zn159 O165 2.035 1_554 S
O160 Zn159 2.028 . S
O160 C166 1.247 . S
O161 Zn157 2.035 . S
O161 C166 1.258 . S
O162 C155 1.247 . S
O162 Zn159 2.028 1_556 S
O163 C155 1.256 1_554 S
O163 Zn157 2.035 . S
O164 Zn157 2.028 . S
O164 C167 1.247 1_554 S
O165 Zn159 2.035 1_556 S
O165 C167 1.258 . S
C166 O160 1.247 . S
C166 O161 1.258 . S
C167 O164 1.247 1_556 S
C167 O165 1.258 . S
C168 O170 1.247 . S
C168 O172 1.258 . S
C169 O176 1.247 . S
C169 O177 1.258 . S
O170 C168 1.247 . S
O170 Zn171 2.028 . S
Zn171 O170 2.028 . S
Zn171 O175 2.035 . S
Zn171 O177 2.035 . S
Zn171 O178 2.028 . S
O172 C168 1.258 . S
O172 Zn173 2.035 . S
Zn173 O172 2.035 . S
Zn173 O174 2.028 . S
Zn173 O176 2.028 . S
Zn173 O179 2.035 . S
O174 Zn173 2.028 . S
O174 C180 1.247 . S
O175 Zn171 2.035 . S
O175 C180 1.258 . S
O176 C169 1.247 . S
O176 Zn173 2.028 . S
O177 C169 1.258 . S
O177 Zn171 2.035 . S
O178 Zn171 2.028 . S
O178 C181 1.247 . S
O179 Zn173 2.035 . S
O179 C181 1.258 . S
C180 O174 1.247 . S
C180 O175 1.258 . S
C181 O178 1.247 . S
C181 O179 1.258 . S
C182 O184 1.247 . S
C182 O186 1.258 . S
C183 O190 1.247 . S
C183 O191 1.258 . S
O184 C182 1.247 . S
O184 Zn185 2.028 . S
Zn185 O184 2.028 . S
Zn185 O189 2.035 . S
Zn185 O191 2.035 . S
Zn185 O192 2.028 . S
O186 C182 1.258 . S
O186 Zn187 2.035 . S
Zn187 O186 2.035 . S
Zn187 O188 2.028 . S
Zn187 O190 2.028 . S
Zn187 O193 2.035 . S
O188 Zn187 2.028 . S
O188 C194 1.247 . S
O189 Zn185 2.035 . S
O189 C194 1.258 . S
O190 C183 1.247 . S
O190 Zn187 2.028 . S
O191 C183 1.258 . S
O191 Zn185 2.035 . S
O192 Zn185 2.028 . S
O192 C195 1.247 . S
O193 Zn187 2.035 . S
O193 C195 1.258 . S
C194 O188 1.247 . S
C194 O189 1.258 . S
C195 O192 1.247 . S
C195 O193 1.258 . S
C196 O198 1.247 . S
C196 O200 1.258 . S
C197 O204 1.247 . S
C197 O205 1.258 . S
O198 C196 1.247 . S
O198 Zn199 2.028 . S
Zn199 O198 2.028 . S
Zn199 O203 2.035 . S
Zn199 O205 2.035 . S
Zn199 O206 2.028 . S
O200 C196 1.258 . S
O200 Zn201 2.035 . S
Zn201 O200 2.035 . S
Zn201 O202 2.028 . S
Zn201 O204 2.028 . S
Zn201 O207 2.035 . S
O202 Zn201 2.028 . S
O202 C208 1.247 . S
O203 Zn199 2.035 . S
O203 C208 1.258 . S
O204 C197 1.247 . S
O204 Zn201 2.028 . S
O205 C197 1.258 . S
O205 Zn199 2.035 . S
O206 Zn199 2.028 . S
O206 C209 1.247 . S
O207 Zn201 2.035 . S
O207 C209 1.258 . S
C208 O202 1.247 . S
C208 O203 1.258 . S
C209 O206 1.247 . S
C209 O207 1.258 . S
C210 O212 1.247 . S
C210 O214 1.258 . S
C211 O218 1.247 1_554 S
C211 O219 1.258 . S
O212 C210 1.247 . S
O212 Zn213 2.028 . S
Zn213 O212 2.028 . S
Zn213 O217 2.035 . S
Zn213 O219 2.035 1_556 S
Zn213 O220 2.028 1_556 S
O214 C210 1.258 . S
O214 Zn215 2.035 . S
Zn215 O214 2.035 . S
Zn215 O216 2.028 . S
Zn215 O218 2.028 . S
Zn215 O221 2.035 . S
O216 Zn215 2.028 . S
O216 C222 1.247 . S
O217 Zn213 2.035 . S
O217 C222 1.258 . S
O218 C211 1.247 1_556 S
O218 Zn215 2.028 . S
O219 C211 1.258 . S
O219 Zn213 2.035 1_554 S
O220 Zn213 2.028 1_554 S
O220 C223 1.247 . S
O221 Zn215 2.035 . S
O221 C223 1.256 1_556 S
C222 O216 1.247 . S
C222 O217 1.258 . S
C223 O220 1.247 . S
C223 O221 1.256 1_554 S
C224 O226 1.247 . S
C224 O228 1.258 . S
C225 O232 1.247 . S
C225 O233 1.258 . S
O226 C224 1.247 . S
O226 Zn227 2.028 . S
Zn227 O226 2.028 . S
Zn227 O231 2.035 . S
Zn227 O233 2.035 . S
Zn227 O234 2.028 . S
O228 C224 1.258 . S
O228 Zn229 2.035 . S
Zn229 O228 2.035 . S
Zn229 O230 2.028 . S
Zn229 O232 2.028 . S
Zn229 O235 2.035 . S
O230 Zn229 2.028 . S
O230 C236 1.247 . S
O231 Zn227 2.035 . S
O231 C236 1.258 . S
O232 C225 1.247 . S
O232 Zn229 2.028 . S
O233 C225 1.258 . S
O233 Zn227 2.035 . S
O234 Zn227 2.028 . S
O234 C237 1.247 . S
O235 Zn229 2.035 . S
O235 C237 1.258 . S
C236 O230 1.247 . S
C236 O231 1.258 . S
C237 O234 1.247 . S
C237 O235 1.258 . S
C238 O240 1.247 . S
C238 O242 1.258 . S
C239 O246 1.247 . S
C239 O247 1.258 . S
O240 C238 1.247 . S
O240 Zn241 2.028 . S
Zn241 O240 2.028 . S
Zn241 O245 2.035 . S
Zn241 O247 2.035 . S
Zn241 O248 2.028 . S
O242 C238 1.258 . S
O242 Zn243 2.035 . S
Zn243 O242 2.035 . S
Zn243 O244 2.028 . S
Zn243 O246 2.028 . S
Zn243 O249 2.035 . S
O244 Zn243 2.028 . S
O244 C250 1.247 . S
O245 Zn241 2.035 . S
O245 C250 1.258 . S
O246 C239 1.247 . S
O246 Zn243 2.028 . S
O247 C239 1.258 . S
O247 Zn241 2.035 . S
O248 Zn241 2.028 . S
O248 C251 1.247 . S
O249 Zn243 2.035 . S
O249 C251 1.258 . S
C250 O244 1.247 . S
C250 O245 1.258 . S
C251 O248 1.247 . S
C251 O249 1.258 . S
C252 O254 1.247 . S
C252 O256 1.258 . S
C253 O260 1.247 . S
C253 O261 1.258 . S
O254 C252 1.247 . S
O254 Zn255 2.028 . S
Zn255 O254 2.028 . S
Zn255 O259 2.035 . S
Zn255 O261 2.035 . S
Zn255 O262 2.028 . S
O256 C252 1.258 . S
O256 Zn257 2.035 . S
Zn257 O256 2.035 . S
Zn257 O258 2.028 . S
Zn257 O260 2.028 . S
Zn257 O263 2.035 . S
O258 Zn257 2.028 . S
O258 C264 1.247 . S
O259 Zn255 2.035 . S
O259 C264 1.258 . S
O260 C253 1.247 . S
O260 Zn257 2.028 . S
O261 C253 1.258 . S
O261 Zn255 2.035 . S
O262 Zn255 2.028 . S
O262 C265 1.247 . S
O263 Zn257 2.035 . S
O263 C265 1.258 . S
C264 O258 1.247 . S
C264 O259 1.258 . S
C265 O262 1.247 . S
C265 O263 1.258 . S
C266 O268 1.247 . S
C266 O270 1.258 . S
C267 O274 1.247 . S
C267 O275 1.258 . S
O268 C266 1.247 . S
O268 Zn269 2.028 . S
Zn269 O268 2.028 . S
Zn269 O273 2.035 . S
Zn269 O275 2.035 . S
Zn269 O276 2.028 . S
O270 C266 1.258 . S
O270 Zn271 2.035 . S
Zn271 O270 2.035 . S
Zn271 O272 2.028 . S
Zn271 O274 2.028 . S
Zn271 O277 2.035 . S
O272 Zn271 2.028 . S
O272 C278 1.247 . S
O273 Zn269 2.035 . S
O273 C278 1.258 . S
O274 C267 1.247 . S
O274 Zn271 2.028 . S
O275 C267 1.258 . S
O275 Zn269 2.035 . S
O276 Zn269 2.028 . S
O276 C279 1.247 . S
O277 Zn271 2.035 . S
O277 C279 1.258 . S
C278 O272 1.247 . S
C278 O273 1.258 . S
C279 O276 1.247 . S
C279 O277 1.258 . S
C280 O282 1.247 . S
C280 O284 1.258 1_545 S
C281 O288 1.247 . S
C281 O289 1.258 . S
O282 C280 1.247 . S
O282 Zn283 2.028 1_545 S
Zn283 O282 2.028 1_565 S
Zn283 O287 2.035 1_565 S
Zn283 O289 2.035 . S
Zn283 O290 2.028 . S
O284 C280 1.258 1_565 S
O284 Zn285 2.035 . S
Zn285 O284 2.035 . S
Zn285 O286 2.028 . S
Zn285 O288 2.028 . S
Zn285 O291 2.035 . S
O286 Zn285 2.028 . S
O286 C292 1.246 1_565 S
O287 Zn283 2.035 1_545 S
O287 C292 1.258 . S
O288 C281 1.247 . S
O288 Zn285 2.028 . S
O289 C281 1.258 . S
O289 Zn283 2.035 . S
O290 Zn283 2.028 . S
O290 C293 1.247 . S
O291 Zn285 2.035 . S
O291 C293 1.258 . S
C292 O286 1.246 1_545 S
C292 O287 1.258 . S
C293 O290 1.247 . S
C293 O291 1.258 . S
C294 O296 1.247 . S
C294 O298 1.258 . S
C295 O302 1.247 . S
C295 O303 1.258 . S
O296 C294 1.247 . S
O296 Zn297 2.028 . S
Zn297 O296 2.028 . S
Zn297 O301 2.035 . S
Zn297 O303 2.035 . S
Zn297 O304 2.028 . S
O298 C294 1.258 . S
O298 Zn299 2.035 . S
Zn299 O298 2.035 . S
Zn299 O300 2.028 . S
Zn299 O302 2.028 . S
Zn299 O305 2.035 . S
O300 Zn299 2.028 . S
O300 C306 1.247 . S
O301 Zn297 2.035 . S
O301 C306 1.258 . S
O302 C295 1.247 . S
O302 Zn299 2.028 . S
O303 C295 1.258 . S
O303 Zn297 2.035 . S
O304 Zn297 2.028 . S
O304 C307 1.247 . S
O305 Zn299 2.035 . S
O305 C307 1.258 . S
C306 O300 1.247 . S
C306 O301 1.258 . S
C307 O304 1.247 . S
C307 O305 1.258 . S
C308 O310 1.247 . S
C308 O312 1.258 . S
C309 O316 1.247 . S
C309 O317 1.258 . S
O310 C308 1.247 . S
O310 Zn311 2.028 . S
Zn311 O310 2.028 . S
Zn311 O315 2.035 . S
Zn311 O317 2.035 . S
Zn311 O318 2.028 . S
O312 C308 1.258 . S
O312 Zn313 2.035 . S
Zn313 O312 2.035 . S
Zn313 O314 2.028 . S
Zn313 O316 2.028 . S
Zn313 O319 2.035 . S
O314 Zn313 2.028 . S
O314 C320 1.247 . S
O315 Zn311 2.035 . S
O315 C320 1.258 . S
O316 C309 1.247 . S
O316 Zn313 2.028 . S
O317 C309 1.258 . S
O317 Zn311 2.035 . S
O318 Zn311 2.028 . S
O318 C321 1.247 . S
O319 Zn313 2.035 . S
O319 C321 1.258 . S
C320 O314 1.247 . S
C320 O315 1.258 . S
C321 O318 1.247 . S
C321 O319 1.258 . S
C322 O324 1.247 . S
C322 O326 1.258 . S
C323 O330 1.247 . S
C323 O331 1.258 . S
O324 C322 1.247 . S
O324 Zn325 2.028 . S
Zn325 O324 2.028 . S
Zn325 O329 2.035 . S
Zn325 O331 2.035 . S
Zn325 O332 2.028 . S
O326 C322 1.258 . S
O326 Zn327 2.035 . S
Zn327 O326 2.035 . S
Zn327 O328 2.028 . S
Zn327 O330 2.028 . S
Zn327 O333 2.035 . S
O328 Zn327 2.028 . S
O328 C334 1.247 . S
O329 Zn325 2.035 . S
O329 C334 1.258 . S
O330 C323 1.247 . S
O330 Zn327 2.028 . S
O331 C323 1.258 . S
O331 Zn325 2.035 . S
O332 Zn325 2.028 . S
O332 C335 1.247 . S
O333 Zn327 2.035 . S
O333 C335 1.258 . S
C334 O328 1.247 . S
C334 O329 1.258 . S
C335 O332 1.247 . S
C335 O333 1.258 . S
C336 O338 1.247 . S
C336 O340 1.258 . S
C337 O344 1.247 . S
C337 O345 1.258 . S
O338 C336 1.247 . S
O338 Zn339 2.028 . S
Zn339 O338 2.028 . S
Zn339 O343 2.035 . S
Zn339 O345 2.035 . S
Zn339 O346 2.028 . S
O340 C336 1.258 . S
O340 Zn341 2.035 . S
Zn341 O340 2.035 . S
Zn341 O342 2.028 . S
Zn341 O344 2.028 . S
Zn341 O347 2.035 . S
O342 Zn341 2.028 . S
O342 C348 1.247 . S
O343 Zn339 2.035 . S
O343 C348 1.258 . S
O344 C337 1.247 . S
O344 Zn341 2.028 . S
O345 C337 1.258 . S
O345 Zn339 2.035 . S
O346 Zn339 2.028 . S
O346 C349 1.247 . S
O347 Zn341 2.035 . S
O347 C349 1.258 . S
C348 O342 1.247 . S
C348 O343 1.258 . S
C349 O346 1.247 . S
C349 O347 1.258 . S
C350 O352 1.247 . S
C350 O354 1.258 . S
C351 O358 1.247 . S
C351 O359 1.258 . S
O352 C350 1.247 . S
O352 Zn353 2.028 . S
Zn353 O352 2.028 . S
Zn353 O357 2.035 . S
Zn353 O359 2.035 . S
Zn353 O360 2.028 . S
O354 C350 1.258 . S
O354 Zn355 2.035 . S
Zn355 O354 2.035 . S
Zn355 O356 2.028 . S
Zn355 O358 2.028 . S
Zn355 O361 2.035 . S
O356 Zn355 2.028 . S
O356 C362 1.247 . S
O357 Zn353 2.035 . S
O357 C362 1.258 . S
O358 C351 1.247 . S
O358 Zn355 2.028 . S
O359 C351 1.258 . S
O359 Zn353 2.035 . S
O360 Zn353 2.028 . S
O360 C363 1.247 . S
O361 Zn355 2.035 . S
O361 C363 1.258 . S
C362 O356 1.247 . S
C362 O357 1.258 . S
C363 O360 1.247 . S
C363 O361 1.258 . S
C364 O366 1.247 . S
C364 O368 1.258 . S
C365 O372 1.247 . S
C365 O373 1.258 . S
O366 C364 1.247 . S
O366 Zn367 2.028 . S
Zn367 O366 2.028 . S
Zn367 O371 2.035 . S
Zn367 O373 2.035 . S
Zn367 O374 2.028 . S
O368 C364 1.258 . S
O368 Zn369 2.035 . S
Zn369 O368 2.035 . S
Zn369 O370 2.028 . S
Zn369 O372 2.028 . S
Zn369 O375 2.035 . S
O370 Zn369 2.028 . S
O370 C376 1.247 . S
O371 Zn367 2.035 . S
O371 C376 1.258 . S
O372 C365 1.247 . S
O372 Zn369 2.028 . S
O373 C365 1.258 . S
O373 Zn367 2.035 . S
O374 Zn367 2.028 . S
O374 C377 1.247 . S
O375 Zn369 2.035 . S
O375 C377 1.258 . S
C376 O370 1.247 . S
C376 O371 1.258 . S
C377 O374 1.247 . S
C377 O375 1.258 . S
C378 O380 1.246 1_655 S
C378 O382 1.258 . S
C379 O386 1.247 . S
C379 O387 1.258 . S
O380 C378 1.246 1_455 S
O380 Zn381 2.028 . S
Zn381 O380 2.028 . S
Zn381 O385 2.035 . S
Zn381 O387 2.035 . S
Zn381 O388 2.028 . S
O382 C378 1.258 . S
O382 Zn383 2.035 1_655 S
Zn383 O382 2.035 1_455 S
Zn383 O384 2.028 1_455 S
Zn383 O386 2.028 . S
Zn383 O389 2.035 . S
O384 Zn383 2.028 1_655 S
O384 C390 1.247 . S
O385 Zn381 2.035 . S
O385 C390 1.258 1_455 S
O386 C379 1.247 . S
O386 Zn383 2.028 . S
O387 C379 1.258 . S
O387 Zn381 2.035 . S
O388 Zn381 2.028 . S
O388 C391 1.247 . S
O389 Zn383 2.035 . S
O389 C391 1.258 . S
C390 O384 1.247 . S
C390 O385 1.258 1_655 S
C391 O388 1.247 . S
C391 O389 1.258 . S
C392 O394 1.247 . S
C392 O396 1.258 . S
C393 O400 1.247 . S
C393 O401 1.258 . S
O394 C392 1.247 . S
O394 Zn395 2.028 . S
Zn395 O394 2.028 . S
Zn395 O399 2.035 . S
Zn395 O401 2.035 . S
Zn395 O402 2.028 . S
O396 C392 1.258 . S
O396 Zn397 2.035 . S
Zn397 O396 2.035 . S
Zn397 O398 2.028 . S
Zn397 O400 2.028 . S
Zn397 O403 2.035 . S
O398 Zn397 2.028 . S
O398 C404 1.247 . S
O399 Zn395 2.035 . S
O399 C404 1.258 . S
O400 C393 1.247 . S
O400 Zn397 2.028 . S
O401 C393 1.258 . S
O401 Zn395 2.035 . S
O402 Zn395 2.028 . S
O402 C405 1.247 . S
O403 Zn397 2.035 . S
O403 C405 1.258 . S
C404 O398 1.247 . S
C404 O399 1.258 . S
C405 O402 1.247 . S
C405 O403 1.258 . S
C406 O408 1.247 . S
C406 O410 1.258 1_655 S
C407 O414 1.247 . S
C407 O415 1.258 . S
O408 C406 1.247 . S
O408 Zn409 2.028 1_655 S
Zn409 O408 2.028 1_455 S
Zn409 O413 2.035 1_455 S
Zn409 O415 2.035 . S
Zn409 O416 2.028 . S
O410 C406 1.258 1_455 S
O410 Zn411 2.035 . S
Zn411 O410 2.035 . S
Zn411 O412 2.028 . S
Zn411 O414 2.028 . S
Zn411 O417 2.035 . S
O412 Zn411 2.028 . S
O412 C418 1.246 1_455 S
O413 Zn409 2.035 1_655 S
O413 C418 1.258 . S
O414 C407 1.247 . S
O414 Zn411 2.028 . S
O415 C407 1.258 . S
O415 Zn409 2.035 . S
O416 Zn409 2.028 . S
O416 C419 1.247 . S
O417 Zn411 2.035 . S
O417 C419 1.258 . S
C418 O412 1.246 1_655 S
C418 O413 1.258 . S
C419 O416 1.247 . S
C419 O417 1.258 . S
C420 O422 1.247 . S
C420 O424 1.258 . S
C421 O428 1.247 . S
C421 O429 1.258 . S
O422 C420 1.247 . S
O422 Zn423 2.028 . S
Zn423 O422 2.028 . S
Zn423 O427 2.035 . S
Zn423 O429 2.035 . S
Zn423 O430 2.028 . S
O424 C420 1.258 . S
O424 Zn425 2.035 . S
Zn425 O424 2.035 . S
Zn425 O426 2.028 . S
Zn425 O428 2.028 . S
Zn425 O431 2.035 . S
O426 Zn425 2.028 . S
O426 C432 1.247 . S
O427 Zn423 2.035 . S
O427 C432 1.258 . S
O428 C421 1.247 . S
O428 Zn425 2.028 . S
O429 C421 1.258 . S
O429 Zn423 2.035 . S
O430 Zn423 2.028 . S
O430 C433 1.247 . S
O431 Zn425 2.035 . S
O431 C433 1.258 . S
C432 O426 1.247 . S
C432 O427 1.258 . S
C433 O430 1.247 . S
C433 O431 1.258 . S
C434 O436 1.247 . S
C434 O438 1.258 . S
C435 O442 1.247 . S
C435 O443 1.258 . S
O436 C434 1.247 . S
O436 Zn437 2.028 . S
Zn437 O436 2.028 . S
Zn437 O441 2.035 . S
Zn437 O443 2.035 . S
Zn437 O444 2.028 . S
O438 C434 1.258 . S
O438 Zn439 2.035 . S
Zn439 O438 2.035 . S
Zn439 O440 2.028 . S
Zn439 O442 2.028 . S
Zn439 O445 2.035 . S
O440 Zn439 2.028 . S
O440 C446 1.247 . S
O441 Zn437 2.035 . S
O441 C446 1.258 . S
O442 C435 1.247 . S
O442 Zn439 2.028 . S
O443 C435 1.258 . S
O443 Zn437 2.035 . S
O444 Zn437 2.028 . S
O444 C447 1.247 . S
O445 Zn439 2.035 . S
O445 C447 1.258 . S
C446 O440 1.247 . S
C446 O441 1.258 . S
C447 O444 1.247 . S
C447 O445 1.258 . S
C448 O450 1.247 . S
C448 O452 1.258 . S
C449 O456 1.247 . S
C449 O457 1.258 . S
O450 C448 1.247 . S
O450 Zn451 2.028 . S
Zn451 O450 2.028 . S
Zn451 O455 2.035 . S
Zn451 O457 2.035 . S
Zn451 O458 2.028 . S
O452 C448 1.258 . S
O452 Zn453 2.035 . S
Zn453 O452 2.035 . S
Zn453 O454 2.028 . S
Zn453 O456 2.028 . S
Zn453 O459 2.035 . S
O454 Zn453 2.028 . S
O454 C460 1.247 . S
O455 Zn451 2.035 . S
O455 C460 1.258 . S
O456 C449 1.247 . S
O456 Zn453 2.028 . S
O457 C449 1.258 . S
O457 Zn451 2.035 . S
O458 Zn451 2.028 . S
O458 C461 1.247 . S
O459 Zn453 2.035 . S
O459 C461 1.258 . S
C460 O454 1.247 . S
C460 O455 1.258 . S
C461 O458 1.247 . S
C461 O459 1.258 . S
C462 O464 1.247 . S
C462 O466 1.258 1_556 S
C463 O470 1.247 . S
C463 O471 1.258 . S
O464 C462 1.247 . S
O464 Zn465 2.028 1_556 S
Zn465 O464 2.028 1_554 S
Zn465 O469 2.035 1_554 S
Zn465 O471 2.035 . S
Zn465 O472 2.028 . S
O466 C462 1.258 1_554 S
O466 Zn467 2.035 . S
Zn467 O466 2.035 . S
Zn467 O468 2.028 . S
Zn467 O470 2.028 . S
Zn467 O473 2.035 . S
O468 Zn467 2.028 . S
O468 C474 1.246 1_554 S
O469 Zn465 2.035 1_556 S
O469 C474 1.258 . S
O470 C463 1.247 . S
O470 Zn467 2.028 . S
O471 C463 1.258 . S
O471 Zn465 2.035 . S
O472 Zn465 2.028 . S
O472 C475 1.247 . S
O473 Zn467 2.035 . S
O473 C475 1.258 . S
C474 O468 1.246 1_556 S
C474 O469 1.258 . S
C475 O472 1.247 . S
C475 O473 1.258 . S
C476 O478 1.247 . S
C476 O480 1.258 . S
C477 O484 1.247 . S
C477 O485 1.258 . S
O478 C476 1.247 . S
O478 Zn479 2.028 . S
Zn479 O478 2.028 . S
Zn479 O483 2.035 . S
Zn479 O485 2.035 . S
Zn479 O486 2.028 . S
O480 C476 1.258 . S
O480 Zn481 2.035 . S
Zn481 O480 2.035 . S
Zn481 O482 2.028 . S
Zn481 O484 2.028 . S
Zn481 O487 2.035 . S
O482 Zn481 2.028 . S
O482 C488 1.247 . S
O483 Zn479 2.035 . S
O483 C488 1.258 . S
O484 C477 1.247 . S
O484 Zn481 2.028 . S
O485 C477 1.258 . S
O485 Zn479 2.035 . S
O486 Zn479 2.028 . S
O486 C489 1.247 . S
O487 Zn481 2.035 . S
O487 C489 1.258 . S
C488 O482 1.247 . S
C488 O483 1.258 . S
C489 O486 1.247 . S
C489 O487 1.258 . S
C490 O492 1.247 . S
C490 O494 1.258 . S
C491 O498 1.247 . S
C491 O499 1.258 . S
O492 C490 1.247 . S
O492 Zn493 2.028 . S
Zn493 O492 2.028 . S
Zn493 O497 2.035 . S
Zn493 O499 2.035 . S
Zn493 O500 2.028 . S
O494 C490 1.258 . S
O494 Zn495 2.035 . S
Zn495 O494 2.035 . S
Zn495 O496 2.028 . S
Zn495 O498 2.028 . S
Zn495 O501 2.035 . S
O496 Zn495 2.028 . S
O496 C502 1.247 . S
O497 Zn493 2.035 . S
O497 C502 1.258 . S
O498 C491 1.247 . S
O498 Zn495 2.028 . S
O499 C491 1.258 . S
O499 Zn493 2.035 . S
O500 Zn493 2.028 . S
O500 C503 1.247 . S
O501 Zn495 2.035 . S
O501 C503 1.258 . S
C502 O496 1.247 . S
C502 O497 1.258 . S
C503 O500 1.247 . S
C503 O501 1.258 . S
C504 O506 1.247 . S
C504 O508 1.258 . S
C505 O512 1.247 . S
C505 O513 1.258 . S
O506 C504 1.247 . S
O506 Zn507 2.028 . S
Zn507 O506 2.028 . S
Zn507 O511 2.035 . S
Zn507 O513 2.035 . S
Zn507 O514 2.028 . S
O508 C504 1.258 . S
O508 Zn509 2.035 . S
Zn509 O508 2.035 . S
Zn509 O510 2.028 . S
Zn509 O512 2.028 . S
Zn509 O515 2.035 . S
O510 Zn509 2.028 . S
O510 C516 1.247 . S
O511 Zn507 2.035 . S
O511 C516 1.258 . S
O512 C505 1.247 . S
O512 Zn509 2.028 . S
O513 C505 1.258 . S
O513 Zn507 2.035 . S
O514 Zn507 2.028 . S
O514 C517 1.247 . S
O515 Zn509 2.035 . S
O515 C517 1.258 . S
C516 O510 1.247 . S
C516 O511 1.258 . S
C517 O514 1.247 . S
C517 O515 1.258 . S
C518 O520 1.247 . S
C518 O522 1.258 . S
C519 O526 1.247 1_554 S
C519 O527 1.258 . S
O520 C518 1.247 . S
O520 Zn521 2.028 . S
Zn521 O520 2.028 . S
Zn521 O525 2.035 . S
Zn521 O527 2.035 1_556 S
Zn521 O528 2.028 1_556 S
O522 C518 1.258 . S
O522 Zn523 2.035 . S
Zn523 O522 2.035 . S
Zn523 O524 2.028 . S
Zn523 O526 2.028 . S
Zn523 O529 2.035 . S
O524 Zn523 2.028 . S
O524 C530 1.247 . S
O525 Zn521 2.035 . S
O525 C530 1.258 . S
O526 C519 1.247 1_556 S
O526 Zn523 2.028 . S
O527 C519 1.258 . S
O527 Zn521 2.035 1_554 S
O528 Zn521 2.028 1_554 S
O528 C531 1.247 . S
O529 Zn523 2.035 . S
O529 C531 1.255 1_556 S
C530 O524 1.247 . S
C530 O525 1.258 . S
C531 O528 1.247 . S
C531 O529 1.255 1_554 S
C532 O534 1.247 . S
C532 O536 1.258 . S
C533 O540 1.247 . S
C533 O541 1.258 . S
O534 C532 1.247 . S
O534 Zn535 2.028 . S
Zn535 O534 2.028 . S
Zn535 O539 2.035 . S
Zn535 O541 2.035 . S
Zn535 O542 2.028 . S
O536 C532 1.258 . S
O536 Zn537 2.035 . S
Zn537 O536 2.035 . S
Zn537 O538 2.028 . S
Zn537 O540 2.028 . S
Zn537 O543 2.035 . S
O538 Zn537 2.028 . S
O538 C544 1.247 . S
O539 Zn535 2.035 . S
O539 C544 1.258 . S
O540 C533 1.247 . S
O540 Zn537 2.028 . S
O541 C533 1.258 . S
O541 Zn535 2.035 . S
O542 Zn535 2.028 . S
O542 C545 1.247 . S
O543 Zn537 2.035 . S
O543 C545 1.258 . S
C544 O538 1.247 . S
C544 O539 1.258 . S
C545 O542 1.247 . S
C545 O543 1.258 . S
C546 O548 1.247 . S
C546 O550 1.258 . S
C547 O554 1.247 . S
C547 O555 1.258 . S
O548 C546 1.247 . S
O548 Zn549 2.028 . S
Zn549 O548 2.028 . S
Zn549 O553 2.035 . S
Zn549 O555 2.035 . S
Zn549 O556 2.028 . S
O550 C546 1.258 . S
O550 Zn551 2.035 . S
Zn551 O550 2.035 . S
Zn551 O552 2.028 . S
Zn551 O554 2.028 . S
Zn551 O557 2.035 . S
O552 Zn551 2.028 . S
O552 C558 1.247 . S
O553 Zn549 2.035 . S
O553 C558 1.258 . S
O554 C547 1.247 . S
O554 Zn551 2.028 . S
O555 C547 1.258 . S
O555 Zn549 2.035 . S
O556 Zn549 2.028 . S
O556 C559 1.247 . S
O557 Zn551 2.035 . S
O557 C559 1.258 . S
C558 O552 1.247 . S
C558 O553 1.258 . S
C559 O556 1.247 . S
C559 O557 1.258 . S
C560 O562 1.247 . S
C560 O564 1.258 . S
C561 O568 1.247 . S
C561 O569 1.258 . S
O562 C560 1.247 . S
O562 Zn563 2.028 . S
Zn563 O562 2.028 . S
Zn563 O567 2.035 . S
Zn563 O569 2.035 . S
Zn563 O570 2.028 . S
O564 C560 1.258 . S
O564 Zn565 2.035 . S
Zn565 O564 2.035 . S
Zn565 O566 2.028 . S
Zn565 O568 2.028 . S
Zn565 O571 2.035 . S
O566 Zn565 2.028 . S
O566 C572 1.247 . S
O567 Zn563 2.035 . S
O567 C572 1.258 . S
O568 C561 1.247 . S
O568 Zn565 2.028 . S
O569 C561 1.258 . S
O569 Zn563 2.035 . S
O570 Zn563 2.028 . S
O570 C573 1.247 . S
O571 Zn565 2.035 . S
O571 C573 1.258 . S
C572 O566 1.247 . S
C572 O567 1.258 . S
C573 O570 1.247 . S
C573 O571 1.258 . S
C574 O576 1.247 . S
C574 O578 1.258 . S
C575 O582 1.247 . S
C575 O583 1.258 . S
O576 C574 1.247 . S
O576 Zn577 2.028 . S
Zn577 O576 2.028 . S
Zn577 O581 2.035 . S
Zn577 O583 2.035 . S
Zn577 O584 2.028 . S
O578 C574 1.258 . S
O578 Zn579 2.035 . S
Zn579 O578 2.035 . S
Zn579 O580 2.028 . S
Zn579 O582 2.028 . S
Zn579 O585 2.035 . S
O580 Zn579 2.028 . S
O580 C586 1.247 . S
O581 Zn577 2.035 . S
O581 C586 1.258 . S
O582 C575 1.247 . S
O582 Zn579 2.028 . S
O583 C575 1.258 . S
O583 Zn577 2.035 . S
O584 Zn577 2.028 . S
O584 C587 1.247 . S
O585 Zn579 2.035 . S
O585 C587 1.258 . S
C586 O580 1.247 . S
C586 O581 1.258 . S
C587 O584 1.247 . S
C587 O585 1.258 . S
C588 O590 1.247 . S
C588 O592 1.258 1_565 S
C589 O596 1.247 . S
C589 O597 1.258 . S
O590 C588 1.247 . S
O590 Zn591 2.028 1_565 S
Zn591 O590 2.028 1_545 S
Zn591 O595 2.035 1_545 S
Zn591 O597 2.035 . S
Zn591 O598 2.028 . S
O592 C588 1.258 1_545 S
O592 Zn593 2.035 . S
Zn593 O592 2.035 . S
Zn593 O594 2.028 . S
Zn593 O596 2.028 . S
Zn593 O599 2.035 . S
O594 Zn593 2.028 . S
O594 C600 1.246 1_545 S
O595 Zn591 2.035 1_565 S
O595 C600 1.258 . S
O596 C589 1.247 . S
O596 Zn593 2.028 . S
O597 C589 1.258 . S
O597 Zn591 2.035 . S
O598 Zn591 2.028 . S
O598 C601 1.247 . S
O599 Zn593 2.035 . S
O599 C601 1.258 . S
C600 O594 1.246 1_565 S
C600 O595 1.258 . S
C601 O598 1.247 . S
C601 O599 1.258 . S
C602 O604 1.247 . S
C602 O606 1.258 . S
C603 O610 1.247 . S
C603 O611 1.258 . S
O604 C602 1.247 . S
O604 Zn605 2.028 . S
Zn605 O604 2.028 . S
Zn605 O609 2.035 . S
Zn605 O611 2.035 . S
Zn605 O612 2.028 . S
O606 C602 1.258 . S
O606 Zn607 2.035 . S
Zn607 O606 2.035 . S
Zn607 O608 2.028 . S
Zn607 O610 2.028 . S
Zn607 O613 2.035 . S
O608 Zn607 2.028 . S
O608 C614 1.247 . S
O609 Zn605 2.035 . S
O609 C614 1.258 . S
O610 C603 1.247 . S
O610 Zn607 2.028 . S
O611 C603 1.258 . S
O611 Zn605 2.035 . S
O612 Zn605 2.028 . S
O612 C615 1.247 . S
O613 Zn607 2.035 . S
O613 C615 1.258 . S
C614 O608 1.247 . S
C614 O609 1.258 . S
C615 O612 1.247 . S
C615 O613 1.258 . S
C616 O618 1.247 . S
C616 O620 1.258 . S
C617 O624 1.247 . S
C617 O625 1.258 . S
O618 C616 1.247 . S
O618 Zn619 2.028 . S
Zn619 O618 2.028 . S
Zn619 O623 2.035 . S
Zn619 O625 2.035 . S
Zn619 O626 2.028 . S
O620 C616 1.258 . S
O620 Zn621 2.035 . S
Zn621 O620 2.035 . S
Zn621 O622 2.028 . S
Zn621 O624 2.028 . S
Zn621 O627 2.035 . S
O622 Zn621 2.028 . S
O622 C628 1.247 . S
O623 Zn619 2.035 . S
O623 C628 1.258 . S
O624 C617 1.247 . S
O624 Zn621 2.028 . S
O625 C617 1.258 . S
O625 Zn619 2.035 . S
O626 Zn619 2.028 . S
O626 C629 1.247 . S
O627 Zn621 2.035 . S
O627 C629 1.258 . S
C628 O622 1.247 . S
C628 O623 1.258 . S
C629 O626 1.247 . S
C629 O627 1.258 . S
C630 O632 1.247 . S
C630 O634 1.258 . S
C631 O638 1.247 . S
C631 O639 1.258 . S
O632 C630 1.247 . S
O632 Zn633 2.028 . S
Zn633 O632 2.028 . S
Zn633 O637 2.035 . S
Zn633 O639 2.035 . S
Zn633 O640 2.028 . S
O634 C630 1.258 . S
O634 Zn635 2.035 . S
Zn635 O634 2.035 . S
Zn635 O636 2.028 . S
Zn635 O638 2.028 . S
Zn635 O641 2.035 . S
O636 Zn635 2.028 . S
O636 C642 1.247 . S
O637 Zn633 2.035 . S
O637 C642 1.258 . S
O638 C631 1.247 . S
O638 Zn635 2.028 . S
O639 C631 1.258 . S
O639 Zn633 2.035 . S
O640 Zn633 2.028 . S
O640 C643 1.247 . S
O641 Zn635 2.035 . S
O641 C643 1.258 . S
C642 O636 1.247 . S
C642 O637 1.258 . S
C643 O640 1.247 . S
C643 O641 1.258 . S
C644 O646 1.247 . S
C644 O648 1.258 1_545 S
C645 O652 1.247 . S
C645 O653 1.258 . S
O646 C644 1.247 . S
O646 Zn647 2.028 1_545 S
Zn647 O646 2.028 1_565 S
Zn647 O651 2.035 1_565 S
Zn647 O653 2.035 . S
Zn647 O654 2.028 . S
O648 C644 1.258 1_565 S
O648 Zn649 2.035 . S
Zn649 O648 2.035 . S
Zn649 O650 2.028 . S
Zn649 O652 2.028 . S
Zn649 O655 2.035 . S
O650 Zn649 2.028 . S
O650 C656 1.245 1_565 S
O651 Zn647 2.035 1_545 S
O651 C656 1.258 . S
O652 C645 1.247 . S
O652 Zn649 2.028 . S
O653 C645 1.258 . S
O653 Zn647 2.035 . S
O654 Zn647 2.028 . S
O654 C657 1.247 . S
O655 Zn649 2.035 . S
O655 C657 1.258 . S
C656 O650 1.245 1_545 S
C656 O651 1.258 . S
C657 O654 1.247 . S
C657 O655 1.258 . S
C658 O660 1.246 1_565 S
C658 O662 1.258 . S
C659 O666 1.247 . S
C659 O667 1.258 . S
O660 C658 1.246 1_545 S
O660 Zn661 2.028 . S
Zn661 O660 2.028 . S
Zn661 O665 2.035 . S
Zn661 O667 2.035 . S
Zn661 O668 2.028 . S
O662 C658 1.258 . S
O662 Zn663 2.035 1_565 S
Zn663 O662 2.035 1_545 S
Zn663 O664 2.028 1_545 S
Zn663 O666 2.028 . S
Zn663 O669 2.035 . S
O664 Zn663 2.028 1_565 S
O664 C670 1.247 . S
O665 Zn661 2.035 . S
O665 C670 1.258 1_545 S
O666 C659 1.247 . S
O666 Zn663 2.028 . S
O667 C659 1.258 . S
O667 Zn661 2.035 . S
O668 Zn661 2.028 . S
O668 C671 1.247 . S
O669 Zn663 2.035 . S
O669 C671 1.258 . S
C670 O664 1.247 . S
C670 O665 1.258 1_565 S
C671 O668 1.247 . S
C671 O669 1.258 . S
H672 C680 0.950 . S
H673 C685 0.950 . S
H674 C682 0.950 . S
H675 C684 0.950 . S
H676 C686 0.950 . S
H677 C688 0.950 . S
H678 C690 0.950 . S
H679 C691 0.950 . S
C680 H672 0.950 . S
C680 C681 1.386 . S
C680 C682 1.391 . S
C681 C680 1.386 . S
C681 C685 1.393 . S
C682 H674 0.950 . S
C682 C680 1.391 . S
C682 C683 1.400 . S
C683 C682 1.400 . S
C683 C684 1.398 . S
C683 C689 1.491 . S
C684 H675 0.950 . S
C684 C683 1.398 . S
C684 C685 1.391 . S
C685 H673 0.950 . S
C685 C681 1.393 . S
C685 C684 1.391 . S
C686 H676 0.950 . S
C686 C687 1.386 . S
C686 C688 1.391 . S
C687 C686 1.386 . S
C687 C691 1.393 . S
C688 H677 0.950 . S
C688 C686 1.391 . S
C688 C689 1.400 . S
C689 C683 1.491 . S
C689 C688 1.400 . S
C689 C690 1.398 . S
C690 H678 0.950 . S
C690 C689 1.398 . S
C690 C691 1.391 . S
C691 H679 0.950 . S
C691 C687 1.393 . S
C691 C690 1.391 . S
H692 C700 0.950 . S
H693 C705 0.950 . S
H694 C702 0.950 . S
H695 C704 0.950 . S
H696 C706 0.950 . S
H697 C708 0.950 . S
H698 C710 0.950 . S
H699 C711 0.950 . S
C700 H692 0.950 . S
C700 C701 1.386 . S
C700 C702 1.391 . S
C701 C700 1.386 . S
C701 C705 1.393 . S
C702 H694 0.950 . S
C702 C700 1.391 . S
C702 C703 1.400 . S
C703 C702 1.400 . S
C703 C704 1.398 . S
C703 C709 1.491 . S
C704 H695 0.950 . S
C704 C703 1.398 . S
C704 C705 1.391 . S
C705 H693 0.950 . S
C705 C701 1.393 . S
C705 C704 1.391 . S
C706 H696 0.950 . S
C706 C707 1.386 . S
C706 C708 1.391 . S
C707 C706 1.386 . S
C707 C711 1.393 . S
C708 H697 0.950 . S
C708 C706 1.391 . S
C708 C709 1.400 . S
C709 C703 1.491 . S
C709 C708 1.400 . S
C709 C710 1.398 . S
C710 H698 0.950 . S
C710 C709 1.398 . S
C710 C711 1.391 . S
C711 H699 0.950 . S
C711 C707 1.393 . S
C711 C710 1.391 . S
H712 C720 0.950 . S
H713 C725 0.950 . S
H714 C722 0.950 . S
H715 C724 0.950 . S
H716 C726 0.950 . S
H717 C728 0.950 . S
H718 C730 0.950 . S
H719 C731 0.950 . S
C720 H712 0.950 . S
C720 C721 1.386 . S
C720 C722 1.391 . S
C721 C720 1.386 . S
C721 C725 1.393 . S
C722 H714 0.950 . S
C722 C720 1.391 . S
C722 C723 1.400 . S
C723 C722 1.400 . S
C723 C724 1.398 . S
C723 C729 1.491 . S
C724 H715 0.950 . S
C724 C723 1.398 . S
C724 C725 1.391 . S
C725 H713 0.950 . S
C725 C721 1.393 . S
C725 C724 1.391 . S
C726 H716 0.950 . S
C726 C727 1.386 . S
C726 C728 1.391 . S
C727 C726 1.386 . S
C727 C731 1.393 . S
C728 H717 0.950 . S
C728 C726 1.391 . S
C728 C729 1.400 . S
C729 C723 1.491 . S
C729 C728 1.400 . S
C729 C730 1.398 . S
C730 H718 0.950 . S
C730 C729 1.398 . S
C730 C731 1.391 . S
C731 H719 0.950 . S
C731 C727 1.393 . S
C731 C730 1.391 . S
H732 C740 0.950 . S
H733 C745 0.950 . S
H734 C742 0.950 . S
H735 C744 0.950 . S
H736 C746 0.950 . S
H737 C748 0.950 . S
H738 C750 0.950 . S
H739 C751 0.950 . S
C740 H732 0.950 . S
C740 C741 1.386 . S
C740 C742 1.391 . S
C741 C740 1.386 . S
C741 C745 1.393 . S
C742 H734 0.950 . S
C742 C740 1.391 . S
C742 C743 1.400 . S
C743 C742 1.400 . S
C743 C744 1.398 . S
C743 C749 1.491 . S
C744 H735 0.950 . S
C744 C743 1.398 . S
C744 C745 1.391 . S
C745 H733 0.950 . S
C745 C741 1.393 . S
C745 C744 1.391 . S
C746 H736 0.950 . S
C746 C747 1.386 . S
C746 C748 1.391 . S
C747 C746 1.386 . S
C747 C751 1.393 . S
C748 H737 0.950 . S
C748 C746 1.391 . S
C748 C749 1.400 . S
C749 C743 1.491 . S
C749 C748 1.400 . S
C749 C750 1.398 . S
C750 H738 0.950 . S
C750 C749 1.398 . S
C750 C751 1.391 . S
C751 H739 0.950 . S
C751 C747 1.393 . S
C751 C750 1.391 . S
H752 C760 0.950 . S
H753 C765 0.950 . S
H754 C762 0.950 . S
H755 C764 0.950 . S
H756 C766 0.950 . S
H757 C768 0.950 . S
H758 C770 0.950 . S
H759 C771 0.950 . S
C760 H752 0.950 . S
C760 C761 1.386 . S
C760 C762 1.391 . S
C761 C760 1.386 . S
C761 C765 1.393 . S
C762 H754 0.950 . S
C762 C760 1.391 . S
C762 C763 1.400 . S
C763 C762 1.400 . S
C763 C764 1.398 . S
C763 C769 1.491 . S
C764 H755 0.950 . S
C764 C763 1.398 . S
C764 C765 1.391 . S
C765 H753 0.950 . S
C765 C761 1.393 . S
C765 C764 1.391 . S
C766 H756 0.950 . S
C766 C767 1.386 . S
C766 C768 1.391 . S
C767 C766 1.386 . S
C767 C771 1.393 . S
C768 H757 0.950 . S
C768 C766 1.391 . S
C768 C769 1.400 . S
C769 C763 1.491 . S
C769 C768 1.400 . S
C769 C770 1.398 . S
C770 H758 0.950 . S
C770 C769 1.398 . S
C770 C771 1.391 . S
C771 H759 0.950 . S
C771 C767 1.393 . S
C771 C770 1.391 . S
H772 C780 0.950 . S
H773 C785 0.950 . S
H774 C782 0.950 . S
H775 C784 0.950 . S
H776 C786 0.950 . S
H777 C788 0.950 . S
H778 C790 0.950 . S
H779 C791 0.950 . S
C780 H772 0.950 . S
C780 C781 1.386 . S
C780 C782 1.391 . S
C781 C780 1.386 . S
C781 C785 1.393 . S
C782 H774 0.950 . S
C782 C780 1.391 . S
C782 C783 1.400 . S
C783 C782 1.400 . S
C783 C784 1.398 . S
C783 C789 1.491 . S
C784 H775 0.950 . S
C784 C783 1.398 . S
C784 C785 1.391 . S
C785 H773 0.950 . S
C785 C781 1.393 . S
C785 C784 1.391 . S
C786 H776 0.950 . S
C786 C787 1.386 . S
C786 C788 1.391 . S
C787 C786 1.386 . S
C787 C791 1.393 . S
C788 H777 0.950 . S
C788 C786 1.391 . S
C788 C789 1.400 . S
C789 C783 1.491 . S
C789 C788 1.400 . S
C789 C790 1.398 . S
C790 H778 0.950 . S
C790 C789 1.398 . S
C790 C791 1.391 . S
C791 H779 0.950 . S
C791 C787 1.393 . S
C791 C790 1.391 . S
H792 C800 0.950 . S
H793 C805 0.950 . S
H794 C802 0.950 . S
H795 C804 0.950 . S
H796 C806 0.950 . S
H797 C808 0.950 . S
H798 C810 0.950 . S
H799 C811 0.950 . S
C800 H792 0.950 . S
C800 C801 1.386 . S
C800 C802 1.391 . S
C801 C800 1.386 . S
C801 C805 1.393 . S
C802 H794 0.950 . S
C802 C800 1.391 . S
C802 C803 1.400 . S
C803 C802 1.400 . S
C803 C804 1.398 . S
C803 C809 1.491 . S
C804 H795 0.950 . S
C804 C803 1.398 . S
C804 C805 1.391 . S
C805 H793 0.950 . S
C805 C801 1.393 . S
C805 C804 1.391 . S
C806 H796 0.950 . S
C806 C807 1.386 . S
C806 C808 1.391 . S
C807 C806 1.386 . S
C807 C811 1.393 . S
C808 H797 0.950 . S
C808 C806 1.391 . S
C808 C809 1.400 . S
C809 C803 1.491 . S
C809 C808 1.400 . S
C809 C810 1.398 . S
C810 H798 0.950 . S
C810 C809 1.398 . S
C810 C811 1.391 . S
C811 H799 0.950 . S
C811 C807 1.393 . S
C811 C810 1.391 . S
H812 C820 0.950 . S
H813 C825 0.950 . S
H814 C822 0.950 . S
H815 C824 0.950 . S
H816 C826 0.950 . S
H817 C828 0.950 . S
H818 C830 0.950 . S
H819 C831 0.950 . S
C820 H812 0.950 . S
C820 C821 1.386 . S
C820 C822 1.391 . S
C821 C820 1.386 . S
C821 C825 1.393 . S
C822 H814 0.950 . S
C822 C820 1.391 . S
C822 C823 1.400 . S
C823 C822 1.400 . S
C823 C824 1.398 . S
C823 C829 1.491 . S
C824 H815 0.950 . S
C824 C823 1.398 . S
C824 C825 1.391 . S
C825 H813 0.950 . S
C825 C821 1.393 . S
C825 C824 1.391 . S
C826 H816 0.950 . S
C826 C827 1.386 . S
C826 C828 1.391 . S
C827 C826 1.386 . S
C827 C831 1.393 . S
C828 H817 0.950 . S
C828 C826 1.391 . S
C828 C829 1.400 . S
C829 C823 1.491 . S
C829 C828 1.400 . S
C829 C830 1.398 . S
C830 H818 0.950 . S
C830 C829 1.398 . S
C830 C831 1.391 . S
C831 H819 0.950 . S
C831 C827 1.393 . S
C831 C830 1.391 . S
H832 C840 0.950 . S
H833 C845 0.950 . S
H834 C842 0.950 . S
H835 C844 0.950 . S
H836 C846 0.950 . S
H837 C848 0.950 . S
H838 C850 0.950 . S
H839 C851 0.950 . S
C840 H832 0.950 . S
C840 C841 1.386 . S
C840 C842 1.391 . S
C841 C840 1.386 . S
C841 C845 1.393 . S
C842 H834 0.950 . S
C842 C840 1.391 . S
C842 C843 1.400 . S
C843 C842 1.400 . S
C843 C844 1.398 . S
C843 C849 1.491 . S
C844 H835 0.950 . S
C844 C843 1.398 . S
C844 C845 1.391 . S
C845 H833 0.950 . S
C845 C841 1.393 . S
C845 C844 1.391 . S
C846 H836 0.950 . S
C846 C847 1.386 . S
C846 C848 1.391 . S
C847 C846 1.386 . S
C847 C851 1.393 . S
C848 H837 0.950 . S
C848 C846 1.391 . S
C848 C849 1.400 . S
C849 C843 1.491 . S
C849 C848 1.400 . S
C849 C850 1.398 . S
C850 H838 0.950 . S
C850 C849 1.398 . S
C850 C851 1.391 . S
C851 H839 0.950 . S
C851 C847 1.393 . S
C851 C850 1.391 . S
H852 C860 0.950 . S
H853 C865 0.950 . S
H854 C862 0.950 . S
H855 C864 0.950 . S
H856 C866 0.950 . S
H857 C868 0.950 . S
H858 C870 0.950 . S
H859 C871 0.950 . S
C860 H852 0.950 . S
C860 C861 1.386 . S
C860 C862 1.391 . S
C861 C860 1.386 . S
C861 C865 1.393 . S
C862 H854 0.950 . S
C862 C860 1.391 . S
C862 C863 1.400 . S
C863 C862 1.400 . S
C863 C864 1.398 . S
C863 C869 1.491 . S
C864 H855 0.950 . S
C864 C863 1.398 . S
C864 C865 1.391 . S
C865 H853 0.950 . S
C865 C861 1.393 . S
C865 C864 1.391 . S
C866 H856 0.950 . S
C866 C867 1.386 . S
C866 C868 1.391 . S
C867 C866 1.386 . S
C867 C871 1.393 . S
C868 H857 0.950 . S
C868 C866 1.391 . S
C868 C869 1.400 . S
C869 C863 1.491 . S
C869 C868 1.400 . S
C869 C870 1.398 . S
C870 H858 0.950 . S
C870 C869 1.398 . S
C870 C871 1.391 . S
C871 H859 0.950 . S
C871 C867 1.393 . S
C871 C870 1.391 . S
H872 C880 0.950 . S
H873 C885 0.950 . S
H874 C882 0.950 . S
H875 C884 0.950 . S
H876 C886 0.950 . S
H877 C888 0.950 . S
H878 C890 0.950 . S
H879 C891 0.950 . S
C880 H872 0.950 . S
C880 C881 1.386 . S
C880 C882 1.391 . S
C881 C880 1.386 . S
C881 C885 1.393 . S
C882 H874 0.950 . S
C882 C880 1.391 . S
C882 C883 1.400 . S
C883 C882 1.400 . S
C883 C884 1.398 . S
C883 C889 1.491 . S
C884 H875 0.950 . S
C884 C883 1.398 . S
C884 C885 1.391 . S
C885 H873 0.950 . S
C885 C881 1.393 . S
C885 C884 1.391 . S
C886 H876 0.950 . S
C886 C887 1.386 . S
C886 C888 1.391 . S
C887 C886 1.386 . S
C887 C891 1.393 . S
C888 H877 0.950 . S
C888 C886 1.391 . S
C888 C889 1.400 . S
C889 C883 1.491 . S
C889 C888 1.400 . S
C889 C890 1.398 . S
C890 H878 0.950 . S
C890 C889 1.398 . S
C890 C891 1.391 . S
C891 H879 0.950 . S
C891 C887 1.393 . S
C891 C890 1.391 . S
H892 C900 0.950 . S
H893 C905 0.950 . S
H894 C902 0.950 . S
H895 C904 0.950 . S
H896 C906 0.950 . S
H897 C908 0.950 . S
H898 C910 0.950 . S
H899 C911 0.950 . S
C900 H892 0.950 . S
C900 C901 1.386 . S
C900 C902 1.391 . S
C901 C900 1.386 . S
C901 C905 1.393 . S
C902 H894 0.950 . S
C902 C900 1.391 . S
C902 C903 1.400 . S
C903 C902 1.400 . S
C903 C904 1.398 . S
C903 C909 1.491 . S
C904 H895 0.950 . S
C904 C903 1.398 . S
C904 C905 1.391 . S
C905 H893 0.950 . S
C905 C901 1.393 . S
C905 C904 1.391 . S
C906 H896 0.950 . S
C906 C907 1.386 . S
C906 C908 1.391 . S
C907 C906 1.386 . S
C907 C911 1.393 . S
C908 H897 0.950 . S
C908 C906 1.391 . S
C908 C909 1.400 . S
C909 C903 1.491 . S
C909 C908 1.400 . S
C909 C910 1.398 . S
C910 H898 0.950 . S
C910 C909 1.398 . S
C910 C911 1.391 . S
C911 H899 0.950 . S
C911 C907 1.393 . S
C911 C910 1.391 . S
H912 C920 0.950 . S
H913 C925 0.950 . S
H914 C922 0.950 . S
H915 C924 0.950 . S
H916 C926 0.950 . S
H917 C928 0.950 . S
H918 C930 0.950 . S
H919 C931 0.950 . S
C920 H912 0.950 . S
C920 C921 1.386 . S
C920 C922 1.391 . S
C921 C920 1.386 . S
C921 C925 1.393 . S
C922 H914 0.950 . S
C922 C920 1.391 . S
C922 C923 1.400 . S
C923 C922 1.400 . S
C923 C924 1.398 . S
C923 C929 1.491 . S
C924 H915 0.950 . S
C924 C923 1.398 . S
C924 C925 1.391 . S
C925 H913 0.950 . S
C925 C921 1.393 . S
C925 C924 1.391 . S
C926 H916 0.950 . S
C926 C927 1.386 . S
C926 C928 1.391 . S
C927 C926 1.386 . S
C927 C931 1.393 . S
C928 H917 0.950 . S
C928 C926 1.391 . S
C928 C929 1.400 . S
C929 C923 1.491 . S
C929 C928 1.400 . S
C929 C930 1.398 . S
C930 H918 0.950 . S
C930 C929 1.398 . S
C930 C931 1.391 . S
C931 H919 0.950 . S
C931 C927 1.393 . S
C931 C930 1.391 . S
H932 C940 0.950 . S
H933 C945 0.950 . S
H934 C942 0.950 . S
H935 C944 0.950 . S
H936 C946 0.950 . S
H937 C948 0.950 . S
H938 C950 0.950 . S
H939 C951 0.950 . S
C940 H932 0.950 . S
C940 C941 1.386 . S
C940 C942 1.391 . S
C941 C940 1.386 . S
C941 C945 1.393 . S
C942 H934 0.950 . S
C942 C940 1.391 . S
C942 C943 1.400 . S
C943 C942 1.400 . S
C943 C944 1.398 . S
C943 C949 1.491 . S
C944 H935 0.950 . S
C944 C943 1.398 . S
C944 C945 1.391 . S
C945 H933 0.950 . S
C945 C941 1.393 . S
C945 C944 1.391 . S
C946 H936 0.950 . S
C946 C947 1.386 . S
C946 C948 1.391 . S
C947 C946 1.386 . S
C947 C951 1.393 . S
C948 H937 0.950 . S
C948 C946 1.391 . S
C948 C949 1.400 . S
C949 C943 1.491 . S
C949 C948 1.400 . S
C949 C950 1.398 . S
C950 H938 0.950 . S
C950 C949 1.398 . S
C950 C951 1.391 . S
C951 H939 0.950 . S
C951 C947 1.393 . S
C951 C950 1.391 . S
H952 C960 0.950 . S
H953 C965 0.950 . S
H954 C962 0.950 . S
H955 C964 0.950 . S
H956 C966 0.950 . S
H957 C968 0.950 . S
H958 C970 0.950 . S
H959 C971 0.950 . S
C960 H952 0.950 . S
C960 C961 1.386 . S
C960 C962 1.391 . S
C961 C960 1.386 . S
C961 C965 1.393 . S
C962 H954 0.950 . S
C962 C960 1.391 . S
C962 C963 1.400 . S
C963 C962 1.400 . S
C963 C964 1.398 . S
C963 C969 1.491 . S
C964 H955 0.950 . S
C964 C963 1.398 . S
C964 C965 1.391 . S
C965 H953 0.950 . S
C965 C961 1.393 . S
C965 C964 1.391 . S
C966 H956 0.950 . S
C966 C967 1.386 . S
C966 C968 1.391 . S
C967 C966 1.386 . S
C967 C971 1.393 . S
C968 H957 0.950 . S
C968 C966 1.391 . S
C968 C969 1.400 . S
C969 C963 1.491 . S
C969 C968 1.400 . S
C969 C970 1.398 . S
C970 H958 0.950 . S
C970 C969 1.398 . S
C970 C971 1.391 . S
C971 H959 0.950 . S
C971 C967 1.393 . S
C971 C970 1.391 . S
H972 C980 0.950 . S
H973 C985 0.950 . S
H974 C982 0.950 . S
H975 C984 0.950 . S
H976 C986 0.950 . S
H977 C988 0.950 . S
H978 C990 0.950 . S
H979 C991 0.950 . S
C980 H972 0.950 . S
C980 C981 1.386 . S
C980 C982 1.391 . S
C981 C980 1.386 . S
C981 C985 1.393 . S
C982 H974 0.950 . S
C982 C980 1.391 . S
C982 C983 1.400 . S
C983 C982 1.400 . S
C983 C984 1.398 . S
C983 C989 1.491 . S
C984 H975 0.950 . S
C984 C983 1.398 . S
C984 C985 1.391 . S
C985 H973 0.950 . S
C985 C981 1.393 . S
C985 C984 1.391 . S
C986 H976 0.950 . S
C986 C987 1.386 . S
C986 C988 1.391 . S
C987 C986 1.386 . S
C987 C991 1.393 . S
C988 H977 0.950 . S
C988 C986 1.391 . S
C988 C989 1.400 . S
C989 C983 1.491 . S
C989 C988 1.400 . S
C989 C990 1.398 . S
C990 H978 0.950 . S
C990 C989 1.398 . S
C990 C991 1.391 . S
C991 H979 0.950 . S
C991 C987 1.393 . S
C991 C990 1.391 . S
H992 C1000 0.950 . S
H993 C1005 0.950 . S
H994 C1002 0.950 . S
H995 C1004 0.950 . S
H996 C1006 0.950 . S
H997 C1008 0.950 . S
H998 C1010 0.950 . S
H999 C1011 0.950 . S
C1000 H992 0.950 . S
C1000 C1001 1.386 . S
C1000 C1002 1.391 . S
C1001 C1000 1.386 . S
C1001 C1005 1.393 . S
C1002 H994 0.950 . S
C1002 C1000 1.391 . S
C1002 C1003 1.400 . S
C1003 C1002 1.400 . S
C1003 C1004 1.398 . S
C1003 C1009 1.491 . S
C1004 H995 0.950 . S
C1004 C1003 1.398 . S
C1004 C1005 1.391 . S
C1005 H993 0.950 . S
C1005 C1001 1.393 . S
C1005 C1004 1.391 . S
C1006 H996 0.950 . S
C1006 C1007 1.386 . S
C1006 C1008 1.391 . S
C1007 C1006 1.386 . S
C1007 C1011 1.393 . S
C1008 H997 0.950 . S
C1008 C1006 1.391 . S
C1008 C1009 1.400 . S
C1009 C1003 1.491 . S
C1009 C1008 1.400 . S
C1009 C1010 1.398 . S
C1010 H998 0.950 . S
C1010 C1009 1.398 . S
C1010 C1011 1.391 . S
C1011 H999 0.950 . S
C1011 C1007 1.393 . S
C1011 C1010 1.391 . S
H1012 C1020 0.950 . S
H1013 C1025 0.950 . S
H1014 C1022 0.950 . S
H1015 C1024 0.950 . S
H1016 C1026 0.950 . S
H1017 C1028 0.950 . S
H1018 C1030 0.950 . S
H1019 C1031 0.950 . S
C1020 H1012 0.950 . S
C1020 C1021 1.386 . S
C1020 C1022 1.391 . S
C1021 C1020 1.386 . S
C1021 C1025 1.393 . S
C1022 H1014 0.950 . S
C1022 C1020 1.391 . S
C1022 C1023 1.400 . S
C1023 C1022 1.400 . S
C1023 C1024 1.398 . S
C1023 C1029 1.491 . S
C1024 H1015 0.950 . S
C1024 C1023 1.398 . S
C1024 C1025 1.391 . S
C1025 H1013 0.950 . S
C1025 C1021 1.393 . S
C1025 C1024 1.391 . S
C1026 H1016 0.950 . S
C1026 C1027 1.386 . S
C1026 C1028 1.391 . S
C1027 C1026 1.386 . S
C1027 C1031 1.393 . S
C1028 H1017 0.950 . S
C1028 C1026 1.391 . S
C1028 C1029 1.400 . S
C1029 C1023 1.491 . S
C1029 C1028 1.400 . S
C1029 C1030 1.398 . S
C1030 H1018 0.950 . S
C1030 C1029 1.398 . S
C1030 C1031 1.391 . S
C1031 H1019 0.950 . S
C1031 C1027 1.393 . S
C1031 C1030 1.391 . S
H1032 C1040 0.950 . S
H1033 C1045 0.950 . S
H1034 C1042 0.950 . S
H1035 C1044 0.950 . S
H1036 C1046 0.950 . S
H1037 C1048 0.950 . S
H1038 C1050 0.950 . S
H1039 C1051 0.950 . S
C1040 H1032 0.950 . S
C1040 C1041 1.386 . S
C1040 C1042 1.391 . S
C1041 C1040 1.386 . S
C1041 C1045 1.393 . S
C1042 H1034 0.950 . S
C1042 C1040 1.391 . S
C1042 C1043 1.400 . S
C1043 C1042 1.400 . S
C1043 C1044 1.398 . S
C1043 C1049 1.491 . S
C1044 H1035 0.950 . S
C1044 C1043 1.398 . S
C1044 C1045 1.391 . S
C1045 H1033 0.950 . S
C1045 C1041 1.393 . S
C1045 C1044 1.391 . S
C1046 H1036 0.950 . S
C1046 C1047 1.386 . S
C1046 C1048 1.391 . S
C1047 C1046 1.386 . S
C1047 C1051 1.393 . S
C1048 H1037 0.950 . S
C1048 C1046 1.391 . S
C1048 C1049 1.400 . S
C1049 C1043 1.491 . S
C1049 C1048 1.400 . S
C1049 C1050 1.398 . S
C1050 H1038 0.950 . S
C1050 C1049 1.398 . S
C1050 C1051 1.391 . S
C1051 H1039 0.950 . S
C1051 C1047 1.393 . S
C1051 C1050 1.391 . S
H1052 C1060 0.950 . S
H1053 C1065 0.950 . S
H1054 C1062 0.950 . S
H1055 C1064 0.950 . S
H1056 C1066 0.950 . S
H1057 C1068 0.950 . S
H1058 C1070 0.950 . S
H1059 C1071 0.950 . S
C1060 H1052 0.950 . S
C1060 C1061 1.386 . S
C1060 C1062 1.391 . S
C1061 C1060 1.386 . S
C1061 C1065 1.393 . S
C1062 H1054 0.950 . S
C1062 C1060 1.391 . S
C1062 C1063 1.400 . S
C1063 C1062 1.400 . S
C1063 C1064 1.398 . S
C1063 C1069 1.491 . S
C1064 H1055 0.950 . S
C1064 C1063 1.398 . S
C1064 C1065 1.391 . S
C1065 H1053 0.950 . S
C1065 C1061 1.393 . S
C1065 C1064 1.391 . S
C1066 H1056 0.950 . S
C1066 C1067 1.386 . S
C1066 C1068 1.391 . S
C1067 C1066 1.386 . S
C1067 C1071 1.393 . S
C1068 H1057 0.950 . S
C1068 C1066 1.391 . S
C1068 C1069 1.400 . S
C1069 C1063 1.491 . S
C1069 C1068 1.400 . S
C1069 C1070 1.398 . S
C1070 H1058 0.950 . S
C1070 C1069 1.398 . S
C1070 C1071 1.391 . S
C1071 H1059 0.950 . S
C1071 C1067 1.393 . S
C1071 C1070 1.391 . S
H1072 C1080 0.950 . S
H1073 C1085 0.950 . S
H1074 C1082 0.950 . S
H1075 C1084 0.950 . S
H1076 C1086 0.999 . S
H1077 C1088 0.950 . S
H1078 C1090 0.950 . S
H1079 C1091 0.950 . S
C1080 H1072 0.950 . S
C1080 C1081 1.386 . S
C1080 C1082 1.391 . S
C1081 C1080 1.386 . S
C1081 C1085 1.393 . S
C1082 H1074 0.950 . S
C1082 C1080 1.391 . S
C1082 C1083 1.400 . S
C1083 C1082 1.400 . S
C1083 C1084 1.398 . S
C1083 C1089 1.491 . S
C1084 H1075 0.950 . S
C1084 C1083 1.398 . S
C1084 C1085 1.391 . S
C1085 H1073 0.950 . S
C1085 C1081 1.393 . S
C1085 C1084 1.391 . S
C1086 H1076 0.999 . S
C1086 C1087 1.386 . S
C1086 C1088 1.391 . S
C1087 C1086 1.386 . S
C1087 C1091 1.393 . S
C1088 H1077 0.950 . S
C1088 C1086 1.391 . S
C1088 C1089 1.400 . S
C1089 C1083 1.491 . S
C1089 C1088 1.400 . S
C1089 C1090 1.398 . S
C1090 H1078 0.950 . S
C1090 C1089 1.398 . S
C1090 C1091 1.391 . S
C1091 H1079 0.950 . S
C1091 C1087 1.393 . S
C1091 C1090 1.391 . S
H1092 C1100 0.950 . S
H1093 C1105 0.950 . S
H1094 C1102 0.950 . S
H1095 C1104 0.950 . S
H1096 C1106 0.950 . S
H1097 C1108 0.950 . S
H1098 C1110 0.950 . S
H1099 C1111 0.950 . S
C1100 H1092 0.950 . S
C1100 C1101 1.386 . S
C1100 C1102 1.391 . S
C1101 C1100 1.386 . S
C1101 C1105 1.393 . S
C1102 H1094 0.950 . S
C1102 C1100 1.391 . S
C1102 C1103 1.400 . S
C1103 C1102 1.400 . S
C1103 C1104 1.398 . S
C1103 C1109 1.491 . S
C1104 H1095 0.950 . S
C1104 C1103 1.398 . S
C1104 C1105 1.391 . S
C1105 H1093 0.950 . S
C1105 C1101 1.393 . S
C1105 C1104 1.391 . S
C1106 H1096 0.950 . S
C1106 C1107 1.386 . S
C1106 C1108 1.391 . S
C1107 C1106 1.386 . S
C1107 C1111 1.393 . S
C1108 H1097 0.950 . S
C1108 C1106 1.391 . S
C1108 C1109 1.400 . S
C1109 C1103 1.491 . S
C1109 C1108 1.400 . S
C1109 C1110 1.398 . S
C1110 H1098 0.950 . S
C1110 C1109 1.398 . S
C1110 C1111 1.391 . S
C1111 H1099 0.950 . S
C1111 C1107 1.393 . S
C1111 C1110 1.391 . S
H1112 C1120 0.950 . S
H1113 C1125 0.950 . S
H1114 C1122 0.950 . S
H1115 C1124 0.950 . S
H1116 C1126 0.950 . S
H1117 C1128 0.950 . S
H1118 C1130 0.950 . S
H1119 C1131 0.950 . S
C1120 H1112 0.950 . S
C1120 C1121 1.386 . S
C1120 C1122 1.391 . S
C1121 C1120 1.386 . S
C1121 C1125 1.393 . S
C1122 H1114 0.950 . S
C1122 C1120 1.391 . S
C1122 C1123 1.400 . S
C1123 C1122 1.400 . S
C1123 C1124 1.398 . S
C1123 C1129 1.491 . S
C1124 H1115 0.950 . S
C1124 C1123 1.398 . S
C1124 C1125 1.391 . S
C1125 H1113 0.950 . S
C1125 C1121 1.393 . S
C1125 C1124 1.391 . S
C1126 H1116 0.950 . S
C1126 C1127 1.386 . S
C1126 C1128 1.391 . S
C1127 C1126 1.386 . S
C1127 C1131 1.393 . S
C1128 H1117 0.950 . S
C1128 C1126 1.391 . S
C1128 C1129 1.400 . S
C1129 C1123 1.491 . S
C1129 C1128 1.400 . S
C1129 C1130 1.398 . S
C1130 H1118 0.950 . S
C1130 C1129 1.398 . S
C1130 C1131 1.391 . S
C1131 H1119 0.950 . S
C1131 C1127 1.393 . S
C1131 C1130 1.391 . S
H1132 C1140 0.950 . S
H1133 C1145 0.950 . S
H1134 C1142 0.950 . S
H1135 C1144 0.950 . S
H1136 C1146 0.950 . S
H1137 C1148 0.950 . S
H1138 C1150 0.950 . S
H1139 C1151 0.950 . S
C1140 H1132 0.950 . S
C1140 C1141 1.386 . S
C1140 C1142 1.391 . S
C1141 C1140 1.386 . S
C1141 C1145 1.393 . S
C1142 H1134 0.950 . S
C1142 C1140 1.391 . S
C1142 C1143 1.400 . S
C1143 C1142 1.400 . S
C1143 C1144 1.398 . S
C1143 C1149 1.491 . S
C1144 H1135 0.950 . S
C1144 C1143 1.398 . S
C1144 C1145 1.391 . S
C1145 H1133 0.950 . S
C1145 C1141 1.393 . S
C1145 C1144 1.391 . S
C1146 H1136 0.950 . S
C1146 C1147 1.386 . S
C1146 C1148 1.391 . S
C1147 C1146 1.386 . S
C1147 C1151 1.393 . S
C1148 H1137 0.950 . S
C1148 C1146 1.391 . S
C1148 C1149 1.400 . S
C1149 C1143 1.491 . S
C1149 C1148 1.400 . S
C1149 C1150 1.398 . S
C1150 H1138 0.950 . S
C1150 C1149 1.398 . S
C1150 C1151 1.391 . S
C1151 H1139 0.950 . S
C1151 C1147 1.393 . S
C1151 C1150 1.391 . S
H1152 C1160 0.950 . S
H1153 C1165 0.950 . S
H1154 C1162 0.950 . S
H1155 C1164 0.950 . S
H1156 C1166 0.950 . S
H1157 C1168 0.950 . S
H1158 C1170 0.950 . S
H1159 C1171 0.950 . S
C1160 H1152 0.950 . S
C1160 C1161 1.386 . S
C1160 C1162 1.391 . S
C1161 C1160 1.386 . S
C1161 C1165 1.393 . S
C1162 H1154 0.950 . S
C1162 C1160 1.391 . S
C1162 C1163 1.400 . S
C1163 C1162 1.400 . S
C1163 C1164 1.398 . S
C1163 C1169 1.491 . S
C1164 H1155 0.950 . S
C1164 C1163 1.398 . S
C1164 C1165 1.391 . S
C1165 H1153 0.950 . S
C1165 C1161 1.393 . S
C1165 C1164 1.391 . S
C1166 H1156 0.950 . S
C1166 C1167 1.386 . S
C1166 C1168 1.391 . S
C1167 C1166 1.386 . S
C1167 C1171 1.393 . S
C1168 H1157 0.950 . S
C1168 C1166 1.391 . S
C1168 C1169 1.400 . S
C1169 C1163 1.491 . S
C1169 C1168 1.400 . S
C1169 C1170 1.398 . S
C1170 H1158 0.950 . S
C1170 C1169 1.398 . S
C1170 C1171 1.391 . S
C1171 H1159 0.950 . S
C1171 C1167 1.393 . S
C1171 C1170 1.391 . S
H1172 C1180 0.950 . S
H1173 C1185 0.950 . S
H1174 C1182 0.950 . S
H1175 C1184 0.950 . S
H1176 C1186 0.950 . S
H1177 C1188 0.950 . S
H1178 C1190 0.950 . S
H1179 C1191 0.950 . S
C1180 H1172 0.950 . S
C1180 C1181 1.386 . S
C1180 C1182 1.391 . S
C1181 C1180 1.386 . S
C1181 C1185 1.393 . S
C1182 H1174 0.950 . S
C1182 C1180 1.391 . S
C1182 C1183 1.400 . S
C1183 C1182 1.400 . S
C1183 C1184 1.398 . S
C1183 C1189 1.491 . S
C1184 H1175 0.950 . S
C1184 C1183 1.398 . S
C1184 C1185 1.391 . S
C1185 H1173 0.950 . S
C1185 C1181 1.393 . S
C1185 C1184 1.391 . S
C1186 H1176 0.950 . S
C1186 C1187 1.386 . S
C1186 C1188 1.391 . S
C1187 C1186 1.386 . S
C1187 C1191 1.393 . S
C1188 H1177 0.950 . S
C1188 C1186 1.391 . S
C1188 C1189 1.400 . S
C1189 C1183 1.491 . S
C1189 C1188 1.400 . S
C1189 C1190 1.398 . S
C1190 H1178 0.950 . S
C1190 C1189 1.398 . S
C1190 C1191 1.391 . S
C1191 H1179 0.950 . S
C1191 C1187 1.393 . S
C1191 C1190 1.391 . S
H1192 C1200 0.950 . S
H1193 C1205 0.950 . S
H1194 C1202 0.950 . S
H1195 C1204 0.950 . S
H1196 C1206 0.950 . S
H1197 C1208 0.950 . S
H1198 C1210 0.950 . S
H1199 C1211 0.950 . S
C1200 H1192 0.950 . S
C1200 C1201 1.386 . S
C1200 C1202 1.391 . S
C1201 C1200 1.386 . S
C1201 C1205 1.393 . S
C1202 H1194 0.950 . S
C1202 C1200 1.391 . S
C1202 C1203 1.400 . S
C1203 C1202 1.400 . S
C1203 C1204 1.398 . S
C1203 C1209 1.491 . S
C1204 H1195 0.950 . S
C1204 C1203 1.398 . S
C1204 C1205 1.391 . S
C1205 H1193 0.950 . S
C1205 C1201 1.393 . S
C1205 C1204 1.391 . S
C1206 H1196 0.950 . S
C1206 C1207 1.386 . S
C1206 C1208 1.391 . S
C1207 C1206 1.386 . S
C1207 C1211 1.393 . S
C1208 H1197 0.950 . S
C1208 C1206 1.391 . S
C1208 C1209 1.400 . S
C1209 C1203 1.491 . S
C1209 C1208 1.400 . S
C1209 C1210 1.398 . S
C1210 H1198 0.950 . S
C1210 C1209 1.398 . S
C1210 C1211 1.391 . S
C1211 H1199 0.950 . S
C1211 C1207 1.393 . S
C1211 C1210 1.391 . S
H1212 C1220 0.950 . S
H1213 C1225 0.950 . S
H1214 C1222 0.950 . S
H1215 C1224 0.950 1_554 S
H1216 C1226 0.950 . S
H1217 C1228 0.950 . S
H1218 C1230 0.950 . S
H1219 C1231 0.950 . S
C1220 H1212 0.950 . S
C1220 C1221 1.386 . S
C1220 C1222 1.391 . S
C1221 C1220 1.386 . S
C1221 C1225 1.393 . S
C1222 H1214 0.950 . S
C1222 C1220 1.391 . S
C1222 C1223 1.397 . S
C1223 C1222 1.397 . S
C1223 C1224 1.397 . S
C1223 C1229 1.494 1_556 S
C1224 H1215 0.950 1_556 S
C1224 C1223 1.397 . S
C1224 C1225 1.391 . S
C1225 H1213 0.950 . S
C1225 C1221 1.393 . S
C1225 C1224 1.391 . S
C1226 H1216 0.950 . S
C1226 C1227 1.386 . S
C1226 C1228 1.391 . S
C1227 C1226 1.386 . S
C1227 C1231 1.393 . S
C1228 H1217 0.950 . S
C1228 C1226 1.391 . S
C1228 C1229 1.400 . S
C1229 C1223 1.494 1_554 S
C1229 C1228 1.400 . S
C1229 C1230 1.398 . S
C1230 H1218 0.950 . S
C1230 C1229 1.398 . S
C1230 C1231 1.391 . S
C1231 H1219 0.950 . S
C1231 C1227 1.393 . S
C1231 C1230 1.391 . S
H1232 C1240 0.950 . S
H1233 C1245 0.950 . S
H1234 C1242 0.950 . S
H1235 C1244 0.950 . S
H1236 C1246 0.950 . S
H1237 C1248 0.950 . S
H1238 C1250 0.950 . S
H1239 C1251 0.950 . S
C1240 H1232 0.950 . S
C1240 C1241 1.386 . S
C1240 C1242 1.391 . S
C1241 C1240 1.386 . S
C1241 C1245 1.393 . S
C1242 H1234 0.950 . S
C1242 C1240 1.391 . S
C1242 C1243 1.400 . S
C1243 C1242 1.400 . S
C1243 C1244 1.398 . S
C1243 C1249 1.491 . S
C1244 H1235 0.950 . S
C1244 C1243 1.398 . S
C1244 C1245 1.391 . S
C1245 H1233 0.950 . S
C1245 C1241 1.393 . S
C1245 C1244 1.391 . S
C1246 H1236 0.950 . S
C1246 C1247 1.386 . S
C1246 C1248 1.391 . S
C1247 C1246 1.386 . S
C1247 C1251 1.393 . S
C1248 H1237 0.950 . S
C1248 C1246 1.391 . S
C1248 C1249 1.400 . S
C1249 C1243 1.491 . S
C1249 C1248 1.400 . S
C1249 C1250 1.398 . S
C1250 H1238 0.950 . S
C1250 C1249 1.398 . S
C1250 C1251 1.391 . S
C1251 H1239 0.950 . S
C1251 C1247 1.393 . S
C1251 C1250 1.391 . S
H1252 C1260 0.950 . S
H1253 C1265 0.950 . S
H1254 C1262 0.950 . S
H1255 C1264 0.950 . S
H1256 C1266 0.950 . S
H1257 C1268 0.950 . S
H1258 C1270 0.950 . S
H1259 C1271 0.950 . S
C1260 H1252 0.950 . S
C1260 C1261 1.386 . S
C1260 C1262 1.391 . S
C1261 C1260 1.386 . S
C1261 C1265 1.393 . S
C1262 H1254 0.950 . S
C1262 C1260 1.391 . S
C1262 C1263 1.400 . S
C1263 C1262 1.400 . S
C1263 C1264 1.398 . S
C1263 C1269 1.491 . S
C1264 H1255 0.950 . S
C1264 C1263 1.398 . S
C1264 C1265 1.391 . S
C1265 H1253 0.950 . S
C1265 C1261 1.393 . S
C1265 C1264 1.391 . S
C1266 H1256 0.950 . S
C1266 C1267 1.386 . S
C1266 C1268 1.391 . S
C1267 C1266 1.386 . S
C1267 C1271 1.393 . S
C1268 H1257 0.950 . S
C1268 C1266 1.391 . S
C1268 C1269 1.400 . S
C1269 C1263 1.491 . S
C1269 C1268 1.400 . S
C1269 C1270 1.398 . S
C1270 H1258 0.950 . S
C1270 C1269 1.398 . S
C1270 C1271 1.391 . S
C1271 H1259 0.950 . S
C1271 C1267 1.393 . S
C1271 C1270 1.391 . S
H1272 C1280 0.950 . S
H1273 C1285 0.950 . S
H1274 C1282 0.950 . S
H1275 C1284 0.950 . S
H1276 C1286 0.950 . S
H1277 C1288 0.950 . S
H1278 C1290 0.950 . S
H1279 C1291 0.950 . S
C1280 H1272 0.950 . S
C1280 C1281 1.386 . S
C1280 C1282 1.391 . S
C1281 C1280 1.386 . S
C1281 C1285 1.393 . S
C1282 H1274 0.950 . S
C1282 C1280 1.391 . S
C1282 C1283 1.400 . S
C1283 C1282 1.400 . S
C1283 C1284 1.398 . S
C1283 C1289 1.491 . S
C1284 H1275 0.950 . S
C1284 C1283 1.398 . S
C1284 C1285 1.391 . S
C1285 H1273 0.950 . S
C1285 C1281 1.393 . S
C1285 C1284 1.391 . S
C1286 H1276 0.950 . S
C1286 C1287 1.386 . S
C1286 C1288 1.391 . S
C1287 C1286 1.386 . S
C1287 C1291 1.393 . S
C1288 H1277 0.950 . S
C1288 C1286 1.391 . S
C1288 C1289 1.400 . S
C1289 C1283 1.491 . S
C1289 C1288 1.400 . S
C1289 C1290 1.398 . S
C1290 H1278 0.950 . S
C1290 C1289 1.398 . S
C1290 C1291 1.391 . S
C1291 H1279 0.950 . S
C1291 C1287 1.393 . S
C1291 C1290 1.391 . S
H1292 C1300 0.950 . S
H1293 C1305 0.950 . S
H1294 C1302 0.950 . S
H1295 C1304 0.950 1_556 S
H1296 C1306 0.950 . S
H1297 C1308 0.950 . S
H1298 C1310 0.950 . S
H1299 C1311 0.950 . S
C1300 H1292 0.950 . S
C1300 C1301 1.386 . S
C1300 C1302 1.391 . S
C1301 C1300 1.386 . S
C1301 C1305 1.393 . S
C1302 H1294 0.950 . S
C1302 C1300 1.391 . S
C1302 C1303 1.396 . S
C1303 C1302 1.396 . S
C1303 C1304 1.397 . S
C1303 C1309 1.496 1_554 S
C1304 H1295 0.950 1_554 S
C1304 C1303 1.397 . S
C1304 C1305 1.391 . S
C1305 H1293 0.950 . S
C1305 C1301 1.393 . S
C1305 C1304 1.391 . S
C1306 H1296 0.950 . S
C1306 C1307 1.386 . S
C1306 C1308 1.391 . S
C1307 C1306 1.386 . S
C1307 C1311 1.393 . S
C1308 H1297 0.950 . S
C1308 C1306 1.391 . S
C1308 C1309 1.400 . S
C1309 C1303 1.496 1_556 S
C1309 C1308 1.400 . S
C1309 C1310 1.398 . S
C1310 H1298 0.950 . S
C1310 C1309 1.398 . S
C1310 C1311 1.391 . S
C1311 H1299 0.950 . S
C1311 C1307 1.393 . S
C1311 C1310 1.391 . S
H1312 C1320 0.950 . S
H1313 C1325 0.950 . S
H1314 C1322 0.950 . S
H1315 C1324 0.950 . S
H1316 C1326 0.950 . S
H1317 C1328 0.950 . S
H1318 C1330 0.950 . S
H1319 C1331 0.950 . S
C1320 H1312 0.950 . S
C1320 C1321 1.386 . S
C1320 C1322 1.391 . S
C1321 C1320 1.386 . S
C1321 C1325 1.393 . S
C1322 H1314 0.950 . S
C1322 C1320 1.391 . S
C1322 C1323 1.400 . S
C1323 C1322 1.400 . S
C1323 C1324 1.398 . S
C1323 C1329 1.491 . S
C1324 H1315 0.950 . S
C1324 C1323 1.398 . S
C1324 C1325 1.391 . S
C1325 H1313 0.950 . S
C1325 C1321 1.393 . S
C1325 C1324 1.391 . S
C1326 H1316 0.950 . S
C1326 C1327 1.386 . S
C1326 C1328 1.391 . S
C1327 C1326 1.386 . S
C1327 C1331 1.393 . S
C1328 H1317 0.950 . S
C1328 C1326 1.391 . S
C1328 C1329 1.400 . S
C1329 C1323 1.491 . S
C1329 C1328 1.400 . S
C1329 C1330 1.398 . S
C1330 H1318 0.950 . S
C1330 C1329 1.398 . S
C1330 C1331 1.391 . S
C1331 H1319 0.950 . S
C1331 C1327 1.393 . S
C1331 C1330 1.391 . S
H1332 C1340 0.950 1_655 S
H1333 C1345 0.950 . S
H1334 C1342 0.950 1_545 S
H1335 C1344 0.950 . S
H1336 C1346 0.950 . S
H1337 C1348 0.950 . S
H1338 C1350 0.950 . S
H1339 C1351 0.950 . S
C1340 H1332 0.950 1_455 S
C1340 C1341 1.386 . S
C1340 C1342 1.391 . S
C1341 C1340 1.386 . S
C1341 C1345 1.393 . S
C1342 H1334 0.950 1_565 S
C1342 C1340 1.391 . S
C1342 C1343 1.400 . S
C1343 C1342 1.400 . S
C1343 C1344 1.398 . S
C1343 C1349 1.491 1_565 S
C1344 H1335 0.950 . S
C1344 C1343 1.398 . S
C1344 C1345 1.391 . S
C1345 H1333 0.950 . S
C1345 C1341 1.393 . S
C1345 C1344 1.391 . S
C1346 H1336 0.950 . S
C1346 C1347 1.386 . S
C1346 C1348 1.391 . S
C1347 C1346 1.386 . S
C1347 C1351 1.393 . S
C1348 H1337 0.950 . S
C1348 C1346 1.391 . S
C1348 C1349 1.400 . S
C1349 C1343 1.491 1_545 S
C1349 C1348 1.400 . S
C1349 C1350 1.398 . S
C1350 H1338 0.950 . S
C1350 C1349 1.398 . S
C1350 C1351 1.391 . S
C1351 H1339 0.950 . S
C1351 C1347 1.393 . S
C1351 C1350 1.391 . S
H1352 C1360 0.950 . S
H1353 C1365 0.950 . S
H1354 C1362 0.950 . S
H1355 C1364 0.950 . S
H1356 C1366 0.950 . S
H1357 C1368 0.950 . S
H1358 C1370 0.950 . S
H1359 C1371 0.950 . S
C1360 H1352 0.950 . S
C1360 C1361 1.386 . S
C1360 C1362 1.391 . S
C1361 C1360 1.386 . S
C1361 C1365 1.393 . S
C1362 H1354 0.950 . S
C1362 C1360 1.391 . S
C1362 C1363 1.400 . S
C1363 C1362 1.400 . S
C1363 C1364 1.398 . S
C1363 C1369 1.491 . S
C1364 H1355 0.950 . S
C1364 C1363 1.398 . S
C1364 C1365 1.391 . S
C1365 H1353 0.950 . S
C1365 C1361 1.393 . S
C1365 C1364 1.391 . S
C1366 H1356 0.950 . S
C1366 C1367 1.386 . S
C1366 C1368 1.391 . S
C1367 C1366 1.386 . S
C1367 C1371 1.393 . S
C1368 H1357 0.950 . S
C1368 C1366 1.391 . S
C1368 C1369 1.400 . S
C1369 C1363 1.491 . S
C1369 C1368 1.400 . S
C1369 C1370 1.398 . S
C1370 H1358 0.950 . S
C1370 C1369 1.398 . S
C1370 C1371 1.391 . S
C1371 H1359 0.950 . S
C1371 C1367 1.393 . S
C1371 C1370 1.391 . S
H1372 C1380 0.950 . S
H1373 C1385 0.950 . S
H1374 C1382 0.950 1_565 S
H1375 C1384 0.950 . S
H1376 C1386 0.950 . S
H1377 C1388 0.950 . S
H1378 C1390 0.950 . S
H1379 C1391 0.950 . S
C1380 H1372 0.950 . S
C1380 C1381 1.386 . S
C1380 C1382 1.391 . S
C1381 C1380 1.386 . S
C1381 C1385 1.393 . S
C1382 H1374 0.950 1_545 S
C1382 C1380 1.391 . S
C1382 C1383 1.402 1_545 S
C1383 C1382 1.402 1_565 S
C1383 C1384 1.402 1_565 S
C1383 C1389 1.485 . S
C1384 H1375 0.950 . S
C1384 C1383 1.402 1_545 S
C1384 C1385 1.391 . S
C1385 H1373 0.950 . S
C1385 C1381 1.393 . S
C1385 C1384 1.391 . S
C1386 H1376 0.950 . S
C1386 C1387 1.386 . S
C1386 C1388 1.391 . S
C1387 C1386 1.386 . S
C1387 C1391 1.393 . S
C1388 H1377 0.950 . S
C1388 C1386 1.391 . S
C1388 C1389 1.400 . S
C1389 C1383 1.485 . S
C1389 C1388 1.400 . S
C1389 C1390 1.398 . S
C1390 H1378 0.950 . S
C1390 C1389 1.398 . S
C1390 C1391 1.391 . S
C1391 H1379 0.950 . S
C1391 C1387 1.393 . S
C1391 C1390 1.391 . S
H1392 C1400 0.950 . S
H1393 C1405 0.950 . S
H1394 C1402 0.950 . S
H1395 C1404 0.950 . S
H1396 C1406 0.950 . S
H1397 C1408 0.950 . S
H1398 C1410 0.950 . S
H1399 C1411 0.950 . S
C1400 H1392 0.950 . S
C1400 C1401 1.386 . S
C1400 C1402 1.391 . S
C1401 C1400 1.386 . S
C1401 C1405 1.393 . S
C1402 H1394 0.950 . S
C1402 C1400 1.391 . S
C1402 C1403 1.400 . S
C1403 C1402 1.400 . S
C1403 C1404 1.398 . S
C1403 C1409 1.491 . S
C1404 H1395 0.950 . S
C1404 C1403 1.398 . S
C1404 C1405 1.391 . S
C1405 H1393 0.950 . S
C1405 C1401 1.393 . S
C1405 C1404 1.391 . S
C1406 H1396 0.950 . S
C1406 C1407 1.386 . S
C1406 C1408 1.391 . S
C1407 C1406 1.386 . S
C1407 C1411 1.393 . S
C1408 H1397 0.950 . S
C1408 C1406 1.391 . S
C1408 C1409 1.400 . S
C1409 C1403 1.491 . S
C1409 C1408 1.400 . S
C1409 C1410 1.398 . S
C1410 H1398 0.950 . S
C1410 C1409 1.398 . S
C1410 C1411 1.391 . S
C1411 H1399 0.950 . S
C1411 C1407 1.393 . S
C1411 C1410 1.391 . S
H1412 C1420 0.950 . S
H1413 C1425 0.950 . S
H1414 C1422 0.950 . S
H1415 C1424 0.950 1_545 S
H1416 C1426 0.950 . S
H1417 C1428 0.950 . S
H1418 C1430 0.950 . S
H1419 C1431 0.950 . S
C1420 H1412 0.950 . S
C1420 C1421 1.386 . S
C1420 C1422 1.391 . S
C1421 C1420 1.386 . S
C1421 C1425 1.393 . S
C1422 H1414 0.950 . S
C1422 C1420 1.391 . S
C1422 C1423 1.401 . S
C1423 C1422 1.401 . S
C1423 C1424 1.398 . S
C1423 C1429 1.490 1_565 S
C1424 H1415 0.950 1_565 S
C1424 C1423 1.398 . S
C1424 C1425 1.391 . S
C1425 H1413 0.950 . S
C1425 C1421 1.393 . S
C1425 C1424 1.391 . S
C1426 H1416 0.950 . S
C1426 C1427 1.386 . S
C1426 C1428 1.391 . S
C1427 C1426 1.386 . S
C1427 C1431 1.393 . S
C1428 H1417 0.950 . S
C1428 C1426 1.391 . S
C1428 C1429 1.400 . S
C1429 C1423 1.490 1_545 S
C1429 C1428 1.400 . S
C1429 C1430 1.398 . S
C1430 H1418 0.950 . S
C1430 C1429 1.398 . S
C1430 C1431 1.391 . S
C1431 H1419 0.950 . S
C1431 C1427 1.393 . S
C1431 C1430 1.391 . S
H1432 C1440 0.950 . S
H1433 C1445 0.950 . S
H1434 C1442 0.950 . S
H1435 C1444 0.950 . S
H1436 C1446 0.950 . S
H1437 C1448 0.950 . S
H1438 C1450 0.950 . S
H1439 C1451 0.950 . S
C1440 H1432 0.950 . S
C1440 C1441 1.386 . S
C1440 C1442 1.391 . S
C1441 C1440 1.386 . S
C1441 C1445 1.393 . S
C1442 H1434 0.950 . S
C1442 C1440 1.391 . S
C1442 C1443 1.400 . S
C1443 C1442 1.400 . S
C1443 C1444 1.398 . S
C1443 C1449 1.491 . S
C1444 H1435 0.950 . S
C1444 C1443 1.398 . S
C1444 C1445 1.391 . S
C1445 H1433 0.950 . S
C1445 C1441 1.393 . S
C1445 C1444 1.391 . S
C1446 H1436 0.950 . S
C1446 C1447 1.386 . S
C1446 C1448 1.391 . S
C1447 C1446 1.386 . S
C1447 C1451 1.393 . S
C1448 H1437 0.950 . S
C1448 C1446 1.391 . S
C1448 C1449 1.400 . S
C1449 C1443 1.491 . S
C1449 C1448 1.400 . S
C1449 C1450 1.398 . S
C1450 H1438 0.950 . S
C1450 C1449 1.398 . S
C1450 C1451 1.391 . S
C1451 H1439 0.950 . S
C1451 C1447 1.393 . S
C1451 C1450 1.391 . S
H1452 C1460 0.950 . S
H1453 C1465 0.950 . S
H1454 C1462 0.950 . S
H1455 C1464 0.950 . S
H1456 C1466 0.950 . S
H1457 C1468 0.950 . S
H1458 C1470 0.950 1_565 S
H1459 C1471 0.950 . S
C1460 H1452 0.950 . S
C1460 C1461 1.386 . S
C1460 C1462 1.391 . S
C1461 C1460 1.386 . S
C1461 C1465 1.393 . S
C1462 H1454 0.950 . S
C1462 C1460 1.391 . S
C1462 C1463 1.400 . S
C1463 C1462 1.400 . S
C1463 C1464 1.398 . S
C1463 C1469 1.487 1_565 S
C1464 H1455 0.950 . S
C1464 C1463 1.398 . S
C1464 C1465 1.391 . S
C1465 H1453 0.950 . S
C1465 C1461 1.393 . S
C1465 C1464 1.391 . S
C1466 H1456 0.950 . S
C1466 C1467 1.386 . S
C1466 C1468 1.391 . S
C1467 C1466 1.386 . S
C1467 C1471 1.393 . S
C1468 H1457 0.950 . S
C1468 C1466 1.391 . S
C1468 C1469 1.404 . S
C1469 C1463 1.487 1_545 S
C1469 C1468 1.404 . S
C1469 C1470 1.399 . S
C1470 H1458 0.950 1_545 S
C1470 C1469 1.399 . S
C1470 C1471 1.391 . S
C1471 H1459 0.950 . S
C1471 C1467 1.393 . S
C1471 C1470 1.391 . S
H1472 C1480 0.950 . S
H1473 C1485 0.950 . S
H1474 C1482 0.950 . S
H1475 C1484 0.950 . S
H1476 C1486 0.950 . S
H1477 C1488 0.950 . S
H1478 C1490 0.950 . S
H1479 C1491 0.950 . S
C1480 H1472 0.950 . S
C1480 C1481 1.386 . S
C1480 C1482 1.391 . S
C1481 C1480 1.386 . S
C1481 C1485 1.393 . S
C1482 H1474 0.950 . S
C1482 C1480 1.391 . S
C1482 C1483 1.400 . S
C1483 C1482 1.400 . S
C1483 C1484 1.398 . S
C1483 C1489 1.491 . S
C1484 H1475 0.950 . S
C1484 C1483 1.398 . S
C1484 C1485 1.391 . S
C1485 H1473 0.950 . S
C1485 C1481 1.393 . S
C1485 C1484 1.391 . S
C1486 H1476 0.950 . S
C1486 C1487 1.386 . S
C1486 C1488 1.391 . S
C1487 C1486 1.386 . S
C1487 C1491 1.393 . S
C1488 H1477 0.950 . S
C1488 C1486 1.391 . S
C1488 C1489 1.400 . S
C1489 C1483 1.491 . S
C1489 C1488 1.400 . S
C1489 C1490 1.398 . S
C1490 H1478 0.950 . S
C1490 C1489 1.398 . S
C1490 C1491 1.391 . S
C1491 H1479 0.950 . S
C1491 C1487 1.393 . S
C1491 C1490 1.391 . S
H1492 C1500 0.950 . S
H1493 C1505 0.950 . S
H1494 C1502 0.950 . S
H1495 C1504 0.950 . S
H1496 C1506 0.950 . S
H1497 C1508 0.950 . S
H1498 C1510 0.950 . S
H1499 C1511 0.950 . S
C1500 H1492 0.950 . S
C1500 C1501 1.386 . S
C1500 C1502 1.391 . S
C1501 C1500 1.386 . S
C1501 C1505 1.393 . S
C1502 H1494 0.950 . S
C1502 C1500 1.391 . S
C1502 C1503 1.400 . S
C1503 C1502 1.400 . S
C1503 C1504 1.398 . S
C1503 C1509 1.491 . S
C1504 H1495 0.950 . S
C1504 C1503 1.398 . S
C1504 C1505 1.391 . S
C1505 H1493 0.950 . S
C1505 C1501 1.393 . S
C1505 C1504 1.391 . S
C1506 H1496 0.950 . S
C1506 C1507 1.386 . S
C1506 C1508 1.391 . S
C1507 C1506 1.386 . S
C1507 C1511 1.393 . S
C1508 H1497 0.950 . S
C1508 C1506 1.391 . S
C1508 C1509 1.400 . S
C1509 C1503 1.491 . S
C1509 C1508 1.400 . S
C1509 C1510 1.398 . S
C1510 H1498 0.950 . S
C1510 C1509 1.398 . S
C1510 C1511 1.391 . S
C1511 H1499 0.950 . S
C1511 C1507 1.393 . S
C1511 C1510 1.391 . S
H1512 C1520 0.950 . S
H1513 C1525 0.950 . S
H1514 C1522 0.950 1_455 S
H1515 C1524 0.950 . S
H1516 C1526 0.950 . S
H1517 C1528 0.950 . S
H1518 C1530 0.950 . S
H1519 C1531 0.950 . S
C1520 H1512 0.950 . S
C1520 C1521 1.386 . S
C1520 C1522 1.391 . S
C1521 C1520 1.386 . S
C1521 C1525 1.393 . S
C1522 H1514 0.950 1_655 S
C1522 C1520 1.391 . S
C1522 C1523 1.403 . S
C1523 C1522 1.403 . S
C1523 C1524 1.408 . S
C1523 C1529 1.479 1_655 S
C1524 H1515 0.950 . S
C1524 C1523 1.408 . S
C1524 C1525 1.391 . S
C1525 H1513 0.950 . S
C1525 C1521 1.393 . S
C1525 C1524 1.391 . S
C1526 H1516 0.950 . S
C1526 C1527 1.386 . S
C1526 C1528 1.391 . S
C1527 C1526 1.386 . S
C1527 C1531 1.393 . S
C1528 H1517 0.950 . S
C1528 C1526 1.391 . S
C1528 C1529 1.400 . S
C1529 C1523 1.479 1_455 S
C1529 C1528 1.400 . S
C1529 C1530 1.398 . S
C1530 H1518 0.950 . S
C1530 C1529 1.398 . S
C1530 C1531 1.391 . S
C1531 H1519 0.950 . S
C1531 C1527 1.393 . S
C1531 C1530 1.391 . S
H1532 C1540 0.950 . S
H1533 C1545 0.950 . S
H1534 C1542 0.950 . S
H1535 C1544 0.950 . S
H1536 C1546 0.950 . S
H1537 C1548 0.950 . S
H1538 C1550 0.950 . S
H1539 C1551 0.950 . S
C1540 H1532 0.950 . S
C1540 C1541 1.386 . S
C1540 C1542 1.391 . S
C1541 C1540 1.386 . S
C1541 C1545 1.393 . S
C1542 H1534 0.950 . S
C1542 C1540 1.391 . S
C1542 C1543 1.400 . S
C1543 C1542 1.400 . S
C1543 C1544 1.398 . S
C1543 C1549 1.491 . S
C1544 H1535 0.950 . S
C1544 C1543 1.398 . S
C1544 C1545 1.391 . S
C1545 H1533 0.950 . S
C1545 C1541 1.393 . S
C1545 C1544 1.391 . S
C1546 H1536 0.950 . S
C1546 C1547 1.386 . S
C1546 C1548 1.391 . S
C1547 C1546 1.386 . S
C1547 C1551 1.393 . S
C1548 H1537 0.950 . S
C1548 C1546 1.391 . S
C1548 C1549 1.400 . S
C1549 C1543 1.491 . S
C1549 C1548 1.400 . S
C1549 C1550 1.398 . S
C1550 H1538 0.950 . S
C1550 C1549 1.398 . S
C1550 C1551 1.391 . S
C1551 H1539 0.950 . S
C1551 C1547 1.393 . S
C1551 C1550 1.391 . S
H1552 C1560 0.950 . S
H1553 C1565 0.950 1_556 S
H1554 C1562 0.950 . S
H1555 C1564 0.950 1_655 S
H1556 C1566 0.950 . S
H1557 C1568 0.950 . S
H1558 C1570 0.950 . S
H1559 C1571 0.950 . S
C1560 H1552 0.950 . S
C1560 C1561 1.386 . S
C1560 C1562 1.391 . S
C1561 C1560 1.386 . S
C1561 C1565 1.393 . S
C1562 H1554 0.950 . S
C1562 C1560 1.391 . S
C1562 C1563 1.402 . S
C1563 C1562 1.402 . S
C1563 C1564 1.398 . S
C1563 C1569 1.489 1_455 S
C1564 H1555 0.950 1_455 S
C1564 C1563 1.398 . S
C1564 C1565 1.391 . S
C1565 H1553 0.950 1_554 S
C1565 C1561 1.393 . S
C1565 C1564 1.391 . S
C1566 H1556 0.950 . S
C1566 C1567 1.386 . S
C1566 C1568 1.391 . S
C1567 C1566 1.386 . S
C1567 C1571 1.393 . S
C1568 H1557 0.950 . S
C1568 C1566 1.391 . S
C1568 C1569 1.400 . S
C1569 C1563 1.489 1_655 S
C1569 C1568 1.400 . S
C1569 C1570 1.398 . S
C1570 H1558 0.950 . S
C1570 C1569 1.398 . S
C1570 C1571 1.391 . S
C1571 H1559 0.950 . S
C1571 C1567 1.393 . S
C1571 C1570 1.391 . S
H1572 C1580 0.950 . S
H1573 C1585 0.950 . S
H1574 C1582 0.950 . S
H1575 C1584 0.950 . S
H1576 C1586 0.950 . S
H1577 C1588 0.950 . S
H1578 C1590 0.950 . S
H1579 C1591 0.950 . S
C1580 H1572 0.950 . S
C1580 C1581 1.386 . S
C1580 C1582 1.391 . S
C1581 C1580 1.386 . S
C1581 C1585 1.393 . S
C1582 H1574 0.950 . S
C1582 C1580 1.391 . S
C1582 C1583 1.400 . S
C1583 C1582 1.400 . S
C1583 C1584 1.398 . S
C1583 C1589 1.491 . S
C1584 H1575 0.950 . S
C1584 C1583 1.398 . S
C1584 C1585 1.391 . S
C1585 H1573 0.950 . S
C1585 C1581 1.393 . S
C1585 C1584 1.391 . S
C1586 H1576 0.950 . S
C1586 C1587 1.386 . S
C1586 C1588 1.391 . S
C1587 C1586 1.386 . S
C1587 C1591 1.393 . S
C1588 H1577 0.950 . S
C1588 C1586 1.391 . S
C1588 C1589 1.400 . S
C1589 C1583 1.491 . S
C1589 C1588 1.400 . S
C1589 C1590 1.398 . S
C1590 H1578 0.950 . S
C1590 C1589 1.398 . S
C1590 C1591 1.391 . S
C1591 H1579 0.950 . S
C1591 C1587 1.393 . S
C1591 C1590 1.391 . S
H1592 C1600 0.950 . S
H1593 C1605 0.950 . S
H1594 C1602 0.950 . S
H1595 C1604 0.960 . S
H1596 C1606 0.950 . S
H1597 C1608 0.950 . S
H1598 C1610 0.950 . S
H1599 C1611 0.950 . S
C1600 H1592 0.950 . S
C1600 C1601 1.386 . S
C1600 C1602 1.391 . S
C1601 C1600 1.386 . S
C1601 C1605 1.393 . S
C1602 H1594 0.950 . S
C1602 C1600 1.391 . S
C1602 C1603 1.409 . S
C1603 C1602 1.409 . S
C1603 C1604 1.404 . S
C1603 C1609 1.477 1_655 S
C1604 H1595 0.960 . S
C1604 C1603 1.404 . S
C1604 C1605 1.391 . S
C1605 H1593 0.950 . S
C1605 C1601 1.393 . S
C1605 C1604 1.391 . S
C1606 H1596 0.950 . S
C1606 C1607 1.386 . S
C1606 C1608 1.391 . S
C1607 C1606 1.386 . S
C1607 C1611 1.393 . S
C1608 H1597 0.950 . S
C1608 C1606 1.391 . S
C1608 C1609 1.400 . S
C1609 C1603 1.477 1_455 S
C1609 C1608 1.400 . S
C1609 C1610 1.398 . S
C1610 H1598 0.950 . S
C1610 C1609 1.398 . S
C1610 C1611 1.391 . S
C1611 H1599 0.950 . S
C1611 C1607 1.393 . S
C1611 C1610 1.391 . S
H1612 C1620 0.950 . S
H1613 C1625 0.950 . S
H1614 C1622 0.950 . S
H1615 C1624 0.950 . S
H1616 C1626 0.950 1_554 S
H1617 C1628 0.950 . S
H1618 C1630 0.950 . S
H1619 C1631 0.950 . S
C1620 H1612 0.950 . S
C1620 C1621 1.386 . S
C1620 C1622 1.391 . S
C1621 C1620 1.386 . S
C1621 C1625 1.393 . S
C1622 H1614 0.950 . S
C1622 C1620 1.391 . S
C1622 C1623 1.400 . S
C1623 C1622 1.400 . S
C1623 C1624 1.398 . S
C1623 C1629 1.491 . S
C1624 H1615 0.950 . S
C1624 C1623 1.398 . S
C1624 C1625 1.391 . S
C1625 H1613 0.950 . S
C1625 C1621 1.393 . S
C1625 C1624 1.391 . S
C1626 H1616 0.950 1_556 S
C1626 C1627 1.386 . S
C1626 C1628 1.391 . S
C1627 C1626 1.386 . S
C1627 C1631 1.393 . S
C1628 H1617 0.950 . S
C1628 C1626 1.391 . S
C1628 C1629 1.400 . S
C1629 C1623 1.491 . S
C1629 C1628 1.400 . S
C1629 C1630 1.398 . S
C1630 H1618 0.950 . S
C1630 C1629 1.398 . S
C1630 C1631 1.391 . S
C1631 H1619 0.950 . S
C1631 C1627 1.393 . S
C1631 C1630 1.391 . S
H1632 C1640 0.950 . S
H1633 C1645 0.950 . S
H1634 C1642 0.950 . S
H1635 C1644 0.950 . S
H1636 C1646 0.950 . S
H1637 C1648 0.950 . S
H1638 C1650 0.950 . S
H1639 C1651 0.950 . S
C1640 H1632 0.950 . S
C1640 C1641 1.386 . S
C1640 C1642 1.391 . S
C1641 C1640 1.386 . S
C1641 C1645 1.393 . S
C1642 H1634 0.950 . S
C1642 C1640 1.391 . S
C1642 C1643 1.400 . S
C1643 C1642 1.400 . S
C1643 C1644 1.398 . S
C1643 C1649 1.491 . S
C1644 H1635 0.950 . S
C1644 C1643 1.398 . S
C1644 C1645 1.391 . S
C1645 H1633 0.950 . S
C1645 C1641 1.393 . S
C1645 C1644 1.391 . S
C1646 H1636 0.950 . S
C1646 C1647 1.386 . S
C1646 C1648 1.391 . S
C1647 C1646 1.386 . S
C1647 C1651 1.393 . S
C1648 H1637 0.950 . S
C1648 C1646 1.391 . S
C1648 C1649 1.400 . S
C1649 C1643 1.491 . S
C1649 C1648 1.400 . S
C1649 C1650 1.398 . S
C1650 H1638 0.950 . S
C1650 C1649 1.398 . S
C1650 C1651 1.391 . S
C1651 H1639 0.950 . S
C1651 C1647 1.393 . S
C1651 C1650 1.391 . S
H1652 C1660 0.950 . S
H1653 C1665 0.950 . S
H1654 C1662 0.950 . S
H1655 C1664 0.950 . S
H1656 C1666 0.950 . S
H1657 C1668 0.950 1_554 S
H1658 C1670 0.950 . S
H1659 C1671 0.950 . S
C1660 H1652 0.950 . S
C1660 C1661 1.386 . S
C1660 C1662 1.391 . S
C1661 C1660 1.386 . S
C1661 C1665 1.393 . S
C1662 H1654 0.950 . S
C1662 C1660 1.391 . S
C1662 C1663 1.400 . S
C1663 C1662 1.400 . S
C1663 C1664 1.398 . S
C1663 C1669 1.484 1_554 S
C1664 H1655 0.950 . S
C1664 C1663 1.398 . S
C1664 C1665 1.391 . S
C1665 H1653 0.950 . S
C1665 C1661 1.393 . S
C1665 C1664 1.391 . S
C1666 H1656 0.950 . S
C1666 C1667 1.386 . S
C1666 C1668 1.391 . S
C1667 C1666 1.386 . S
C1667 C1671 1.393 . S
C1668 H1657 0.950 1_556 S
C1668 C1666 1.391 . S
C1668 C1669 1.401 . S
C1669 C1663 1.484 1_556 S
C1669 C1668 1.401 . S
C1669 C1670 1.404 . S
C1670 H1658 0.950 . S
C1670 C1669 1.404 . S
C1670 C1671 1.391 . S
C1671 H1659 0.950 . S
C1671 C1667 1.393 . S
C1671 C1670 1.391 . S
H1672 C1680 0.950 . S
H1673 C1685 0.950 . S
H1674 C1682 0.950 . S
H1675 C1684 0.950 . S
H1676 C1686 0.950 . S
H1677 C1688 0.950 . S
H1678 C1690 0.950 . S
H1679 C1691 0.950 . S
C1680 H1672 0.950 . S
C1680 C1681 1.386 . S
C1680 C1682 1.391 . S
C1681 C1680 1.386 . S
C1681 C1685 1.393 . S
C1682 H1674 0.950 . S
C1682 C1680 1.391 . S
C1682 C1683 1.400 . S
C1683 C1682 1.400 . S
C1683 C1684 1.398 . S
C1683 C1689 1.491 . S
C1684 H1675 0.950 . S
C1684 C1683 1.398 . S
C1684 C1685 1.391 . S
C1685 H1673 0.950 . S
C1685 C1681 1.393 . S
C1685 C1684 1.391 . S
C1686 H1676 0.950 . S
C1686 C1687 1.386 . S
C1686 C1688 1.391 . S
C1687 C1686 1.386 . S
C1687 C1691 1.393 . S
C1688 H1677 0.950 . S
C1688 C1686 1.391 . S
C1688 C1689 1.400 . S
C1689 C1683 1.491 . S
C1689 C1688 1.400 . S
C1689 C1690 1.398 . S
C1690 H1678 0.950 . S
C1690 C1689 1.398 . S
C1690 C1691 1.391 . S
C1691 H1679 0.950 . S
C1691 C1687 1.393 . S
C1691 C1690 1.391 . S
H1692 C1700 0.950 . S
H1693 C1705 0.950 . S
H1694 C1702 0.950 . S
H1695 C1704 0.950 . S
H1696 C1706 0.950 . S
H1697 C1708 0.950 . S
H1698 C1710 0.950 . S
H1699 C1711 0.950 . S
C1700 H1692 0.950 . S
C1700 C1701 1.386 . S
C1700 C1702 1.391 . S
C1701 C1700 1.386 . S
C1701 C1705 1.393 . S
C1702 H1694 0.950 . S
C1702 C1700 1.391 . S
C1702 C1703 1.400 . S
C1703 C1702 1.400 . S
C1703 C1704 1.398 . S
C1703 C1709 1.491 . S
C1704 H1695 0.950 . S
C1704 C1703 1.398 . S
C1704 C1705 1.391 . S
C1705 H1693 0.950 . S
C1705 C1701 1.393 . S
C1705 C1704 1.391 . S
C1706 H1696 0.950 . S
C1706 C1707 1.386 . S
C1706 C1708 1.391 . S
C1707 C1706 1.386 . S
C1707 C1711 1.393 . S
C1708 H1697 0.950 . S
C1708 C1706 1.391 . S
C1708 C1709 1.400 . S
C1709 C1703 1.491 . S
C1709 C1708 1.400 . S
C1709 C1710 1.398 . S
C1710 H1698 0.950 . S
C1710 C1709 1.398 . S
C1710 C1711 1.391 . S
C1711 H1699 0.950 . S
C1711 C1707 1.393 . S
C1711 C1710 1.391 . S
H1712 C1720 0.950 . S
H1713 C1725 0.950 . S
H1714 C1722 0.950 . S
H1715 C1724 0.950 . S
H1716 C1726 0.950 . S
H1717 C1728 0.950 . S
H1718 C1730 0.950 . S
H1719 C1731 0.950 . S
C1720 H1712 0.950 . S
C1720 C1721 1.386 . S
C1720 C1722 1.391 . S
C1721 C1720 1.386 . S
C1721 C1725 1.393 . S
C1722 H1714 0.950 . S
C1722 C1720 1.391 . S
C1722 C1723 1.400 . S
C1723 C1722 1.400 . S
C1723 C1724 1.398 . S
C1723 C1729 1.491 . S
C1724 H1715 0.950 . S
C1724 C1723 1.398 . S
C1724 C1725 1.391 . S
C1725 H1713 0.950 . S
C1725 C1721 1.393 . S
C1725 C1724 1.391 . S
C1726 H1716 0.950 . S
C1726 C1727 1.386 . S
C1726 C1728 1.391 . S
C1727 C1726 1.386 . S
C1727 C1731 1.393 . S
C1728 H1717 0.950 . S
C1728 C1726 1.391 . S
C1728 C1729 1.400 . S
C1729 C1723 1.491 . S
C1729 C1728 1.400 . S
C1729 C1730 1.398 . S
C1730 H1718 0.950 . S
C1730 C1729 1.398 . S
C1730 C1731 1.391 . S
C1731 H1719 0.950 . S
C1731 C1727 1.393 . S
C1731 C1730 1.391 . S
H1732 C1740 0.950 . S
H1733 C1745 0.950 . S
H1734 C1742 0.950 . S
H1735 C1744 0.950 . S
H1736 C1746 0.950 . S
H1737 C1748 0.950 . S
H1738 C1750 0.950 1_556 S
H1739 C1751 0.950 . S
C1740 H1732 0.950 . S
C1740 C1741 1.386 . S
C1740 C1742 1.391 . S
C1741 C1740 1.386 . S
C1741 C1745 1.393 . S
C1742 H1734 0.950 . S
C1742 C1740 1.391 . S
C1742 C1743 1.400 . S
C1743 C1742 1.400 . S
C1743 C1744 1.398 . S
C1743 C1749 1.487 1_556 S
C1744 H1735 0.950 . S
C1744 C1743 1.398 . S
C1744 C1745 1.391 . S
C1745 H1733 0.950 . S
C1745 C1741 1.393 . S
C1745 C1744 1.391 . S
C1746 H1736 0.950 . S
C1746 C1747 1.386 . S
C1746 C1748 1.391 . S
C1747 C1746 1.386 . S
C1747 C1751 1.393 . S
C1748 H1737 0.950 . S
C1748 C1746 1.391 . S
C1748 C1749 1.403 . S
C1749 C1743 1.487 1_554 S
C1749 C1748 1.403 . S
C1749 C1750 1.399 . S
C1750 H1738 0.950 1_554 S
C1750 C1749 1.399 . S
C1750 C1751 1.391 . S
C1751 H1739 0.950 . S
C1751 C1747 1.393 . S
C1751 C1750 1.391 . S
H1752 C1760 0.950 . S
H1753 C1765 0.950 . S
H1754 C1762 0.950 . S
H1755 C1764 0.950 . S
H1756 C1766 0.950 . S
H1757 C1768 0.950 . S
H1758 C1770 0.950 . S
H1759 C1771 0.950 . S
C1760 H1752 0.950 . S
C1760 C1761 1.386 . S
C1760 C1762 1.391 . S
C1761 C1760 1.386 . S
C1761 C1765 1.393 . S
C1762 H1754 0.950 . S
C1762 C1760 1.391 . S
C1762 C1763 1.400 . S
C1763 C1762 1.400 . S
C1763 C1764 1.398 . S
C1763 C1769 1.491 . S
C1764 H1755 0.950 . S
C1764 C1763 1.398 . S
C1764 C1765 1.391 . S
C1765 H1753 0.950 . S
C1765 C1761 1.393 . S
C1765 C1764 1.391 . S
C1766 H1756 0.950 . S
C1766 C1767 1.386 . S
C1766 C1768 1.391 . S
C1767 C1766 1.386 . S
C1767 C1771 1.393 . S
C1768 H1757 0.950 . S
C1768 C1766 1.391 . S
C1768 C1769 1.400 . S
C1769 C1763 1.491 . S
C1769 C1768 1.400 . S
C1769 C1770 1.398 . S
C1770 H1758 0.950 . S
C1770 C1769 1.398 . S
C1770 C1771 1.391 . S
C1771 H1759 0.950 . S
C1771 C1767 1.393 . S
C1771 C1770 1.391 . S
H1772 C1780 0.950 . S
H1773 C1785 0.950 . S
H1774 C1782 0.950 . S
H1775 C1784 0.950 . S
H1776 C1786 0.950 . S
H1777 C1788 0.950 . S
H1778 C1790 0.950 . S
H1779 C1791 0.950 . S
C1780 H1772 0.950 . S
C1780 C1781 1.386 . S
C1780 C1782 1.391 . S
C1781 C1780 1.386 . S
C1781 C1785 1.393 . S
C1782 H1774 0.950 . S
C1782 C1780 1.391 . S
C1782 C1783 1.400 . S
C1783 C1782 1.400 . S
C1783 C1784 1.398 . S
C1783 C1789 1.491 . S
C1784 H1775 0.950 . S
C1784 C1783 1.398 . S
C1784 C1785 1.391 . S
C1785 H1773 0.950 . S
C1785 C1781 1.393 . S
C1785 C1784 1.391 . S
C1786 H1776 0.950 . S
C1786 C1787 1.386 . S
C1786 C1788 1.391 . S
C1787 C1786 1.386 . S
C1787 C1791 1.393 . S
C1788 H1777 0.950 . S
C1788 C1786 1.391 . S
C1788 C1789 1.400 . S
C1789 C1783 1.491 . S
C1789 C1788 1.400 . S
C1789 C1790 1.398 . S
C1790 H1778 0.950 . S
C1790 C1789 1.398 . S
C1790 C1791 1.391 . S
C1791 H1779 0.950 . S
C1791 C1787 1.393 . S
C1791 C1790 1.391 . S
H1792 C1800 0.950 . S
H1793 C1805 0.950 . S
H1794 C1802 0.950 . S
H1795 C1804 0.950 . S
H1796 C1806 0.950 . S
H1797 C1808 0.950 . S
H1798 C1810 0.950 . S
H1799 C1811 0.950 . S
C1800 H1792 0.950 . S
C1800 C1801 1.386 . S
C1800 C1802 1.391 . S
C1801 C1800 1.386 . S
C1801 C1805 1.393 . S
C1802 H1794 0.950 . S
C1802 C1800 1.391 . S
C1802 C1803 1.400 . S
C1803 C1802 1.400 . S
C1803 C1804 1.398 . S
C1803 C1809 1.491 . S
C1804 H1795 0.950 . S
C1804 C1803 1.398 . S
C1804 C1805 1.391 . S
C1805 H1793 0.950 . S
C1805 C1801 1.393 . S
C1805 C1804 1.391 . S
C1806 H1796 0.950 . S
C1806 C1807 1.386 . S
C1806 C1808 1.391 . S
C1807 C1806 1.386 . S
C1807 C1811 1.393 . S
C1808 H1797 0.950 . S
C1808 C1806 1.391 . S
C1808 C1809 1.400 . S
C1809 C1803 1.491 . S
C1809 C1808 1.400 . S
C1809 C1810 1.398 . S
C1810 H1798 0.950 . S
C1810 C1809 1.398 . S
C1810 C1811 1.391 . S
C1811 H1799 0.950 . S
C1811 C1807 1.393 . S
C1811 C1810 1.391 . S
H1812 C1820 0.950 . S
H1813 C1825 0.950 . S
H1814 C1822 0.950 . S
H1815 C1824 0.950 . S
H1816 C1826 0.950 . S
H1817 C1828 0.950 . S
H1818 C1830 0.950 . S
H1819 C1831 0.950 . S
C1820 H1812 0.950 . S
C1820 C1821 1.386 . S
C1820 C1822 1.391 . S
C1821 C1820 1.386 . S
C1821 C1825 1.393 . S
C1822 H1814 0.950 . S
C1822 C1820 1.391 . S
C1822 C1823 1.400 . S
C1823 C1822 1.400 . S
C1823 C1824 1.398 . S
C1823 C1829 1.491 . S
C1824 H1815 0.950 . S
C1824 C1823 1.398 . S
C1824 C1825 1.391 . S
C1825 H1813 0.950 . S
C1825 C1821 1.393 . S
C1825 C1824 1.391 . S
C1826 H1816 0.950 . S
C1826 C1827 1.386 . S
C1826 C1828 1.391 . S
C1827 C1826 1.386 . S
C1827 C1831 1.393 . S
C1828 H1817 0.950 . S
C1828 C1826 1.391 . S
C1828 C1829 1.400 . S
C1829 C1823 1.491 . S
C1829 C1828 1.400 . S
C1829 C1830 1.398 . S
C1830 H1818 0.950 . S
C1830 C1829 1.398 . S
C1830 C1831 1.391 . S
C1831 H1819 0.950 . S
C1831 C1827 1.393 . S
C1831 C1830 1.391 . S
H1832 C1840 0.950 . S
H1833 C1845 0.950 . S
H1834 C1842 0.950 . S
H1835 C1844 0.950 . S
H1836 C1846 0.950 . S
H1837 C1848 0.950 . S
H1838 C1850 0.950 . S
H1839 C1851 0.950 . S
C1840 H1832 0.950 . S
C1840 C1841 1.386 . S
C1840 C1842 1.391 . S
C1841 C1840 1.386 . S
C1841 C1845 1.393 . S
C1842 H1834 0.950 . S
C1842 C1840 1.391 . S
C1842 C1843 1.400 . S
C1843 C1842 1.400 . S
C1843 C1844 1.398 . S
C1843 C1849 1.491 . S
C1844 H1835 0.950 . S
C1844 C1843 1.398 . S
C1844 C1845 1.391 . S
C1845 H1833 0.950 . S
C1845 C1841 1.393 . S
C1845 C1844 1.391 . S
C1846 H1836 0.950 . S
C1846 C1847 1.386 . S
C1846 C1848 1.391 . S
C1847 C1846 1.386 . S
C1847 C1851 1.393 . S
C1848 H1837 0.950 . S
C1848 C1846 1.391 . S
C1848 C1849 1.400 . S
C1849 C1843 1.491 . S
C1849 C1848 1.400 . S
C1849 C1850 1.398 . S
C1850 H1838 0.950 . S
C1850 C1849 1.398 . S
C1850 C1851 1.391 . S
C1851 H1839 0.950 . S
C1851 C1847 1.393 . S
C1851 C1850 1.391 . S
H1852 C1860 0.950 . S
H1853 C1865 0.950 1_455 S
H1854 C1862 0.950 . S
H1855 C1864 0.950 . S
H1856 C1866 0.950 . S
H1857 C1868 0.950 . S
H1858 C1870 0.950 . S
H1859 C1871 0.950 . S
C1860 H1852 0.950 . S
C1860 C1861 1.386 . S
C1860 C1862 1.391 . S
C1861 C1860 1.386 . S
C1861 C1865 1.393 . S
C1862 H1854 0.950 . S
C1862 C1860 1.391 . S
C1862 C1863 1.400 . S
C1863 C1862 1.400 . S
C1863 C1864 1.398 . S
C1863 C1869 1.491 . S
C1864 H1855 0.950 . S
C1864 C1863 1.398 . S
C1864 C1865 1.391 . S
C1865 H1853 0.950 1_655 S
C1865 C1861 1.393 . S
C1865 C1864 1.391 . S
C1866 H1856 0.950 . S
C1866 C1867 1.386 . S
C1866 C1868 1.391 . S
C1867 C1866 1.386 . S
C1867 C1871 1.393 . S
C1868 H1857 0.950 . S
C1868 C1866 1.391 . S
C1868 C1869 1.400 . S
C1869 C1863 1.491 . S
C1869 C1868 1.400 . S
C1869 C1870 1.398 . S
C1870 H1858 0.950 . S
C1870 C1869 1.398 . S
C1870 C1871 1.391 . S
C1871 H1859 0.950 . S
C1871 C1867 1.393 . S
C1871 C1870 1.391 . S
H1872 C1880 0.950 . S
H1873 C1885 0.950 . S
H1874 C1882 0.950 . S
H1875 C1884 0.950 . S
H1876 C1886 0.950 . S
H1877 C1888 0.950 . S
H1878 C1890 0.950 . S
H1879 C1891 0.950 . S
C1880 H1872 0.950 . S
C1880 C1881 1.386 . S
C1880 C1882 1.391 . S
C1881 C1880 1.386 . S
C1881 C1885 1.393 . S
C1882 H1874 0.950 . S
C1882 C1880 1.391 . S
C1882 C1883 1.400 . S
C1883 C1882 1.400 . S
C1883 C1884 1.398 . S
C1883 C1889 1.491 . S
C1884 H1875 0.950 . S
C1884 C1883 1.398 . S
C1884 C1885 1.391 . S
C1885 H1873 0.950 . S
C1885 C1881 1.393 . S
C1885 C1884 1.391 . S
C1886 H1876 0.950 . S
C1886 C1887 1.386 . S
C1886 C1888 1.391 . S
C1887 C1886 1.386 . S
C1887 C1891 1.393 . S
C1888 H1877 0.950 . S
C1888 C1886 1.391 . S
C1888 C1889 1.400 . S
C1889 C1883 1.491 . S
C1889 C1888 1.400 . S
C1889 C1890 1.398 . S
C1890 H1878 0.950 . S
C1890 C1889 1.398 . S
C1890 C1891 1.391 . S
C1891 H1879 0.950 . S
C1891 C1887 1.393 . S
C1891 C1890 1.391 . S
H1892 C1900 0.950 . S
H1893 C1905 0.950 . S
H1894 C1902 0.950 . S
H1895 C1904 0.950 . S
H1896 C1906 0.950 . S
H1897 C1908 0.950 . S
H1898 C1910 0.950 . S
H1899 C1911 0.950 1_455 S
C1900 H1892 0.950 . S
C1900 C1901 1.386 . S
C1900 C1902 1.391 . S
C1901 C1900 1.386 . S
C1901 C1905 1.393 . S
C1902 H1894 0.950 . S
C1902 C1900 1.391 . S
C1902 C1903 1.400 . S
C1903 C1902 1.400 . S
C1903 C1904 1.398 . S
C1903 C1909 1.491 . S
C1904 H1895 0.950 . S
C1904 C1903 1.398 . S
C1904 C1905 1.391 . S
C1905 H1893 0.950 . S
C1905 C1901 1.393 . S
C1905 C1904 1.391 . S
C1906 H1896 0.950 . S
C1906 C1907 1.386 . S
C1906 C1908 1.391 . S
C1907 C1906 1.386 . S
C1907 C1911 1.393 . S
C1908 H1897 0.950 . S
C1908 C1906 1.391 . S
C1908 C1909 1.400 . S
C1909 C1903 1.491 . S
C1909 C1908 1.400 . S
C1909 C1910 1.398 . S
C1910 H1898 0.950 . S
C1910 C1909 1.398 . S
C1910 C1911 1.391 . S
C1911 H1899 0.950 1_655 S
C1911 C1907 1.393 . S
C1911 C1910 1.391 . S
H1912 C1920 0.950 . S
H1913 C1925 0.950 . S
H1914 C1922 0.950 . S
H1915 C1924 0.950 . S
H1916 C1926 0.950 . S
H1917 C1928 0.950 . S
H1918 C1930 0.950 . S
H1919 C1931 0.950 . S
C1920 H1912 0.950 . S
C1920 C1921 1.386 . S
C1920 C1922 1.391 . S
C1921 C1920 1.386 . S
C1921 C1925 1.393 . S
C1922 H1914 0.950 . S
C1922 C1920 1.391 . S
C1922 C1923 1.400 . S
C1923 C1922 1.400 . S
C1923 C1924 1.398 . S
C1923 C1929 1.491 . S
C1924 H1915 0.950 . S
C1924 C1923 1.398 . S
C1924 C1925 1.391 . S
C1925 H1913 0.950 . S
C1925 C1921 1.393 . S
C1925 C1924 1.391 . S
C1926 H1916 0.950 . S
C1926 C1927 1.386 . S
C1926 C1928 1.391 . S
C1927 C1926 1.386 . S
C1927 C1931 1.393 . S
C1928 H1917 0.950 . S
C1928 C1926 1.391 . S
C1928 C1929 1.400 . S
C1929 C1923 1.491 . S
C1929 C1928 1.400 . S
C1929 C1930 1.398 . S
C1930 H1918 0.950 . S
C1930 C1929 1.398 . S
C1930 C1931 1.391 . S
C1931 H1919 0.950 . S
C1931 C1927 1.393 . S
C1931 C1930 1.391 . S
H1932 C1940 0.950 . S
H1933 C1945 0.950 . S
H1934 C1942 0.950 . S
H1935 C1944 0.950 . S
H1936 C1946 0.950 . S
H1937 C1948 0.950 . S
H1938 C1950 0.950 . S
H1939 C1951 0.950 . S
C1940 H1932 0.950 . S
C1940 C1941 1.386 . S
C1940 C1942 1.391 . S
C1941 C1940 1.386 . S
C1941 C1945 1.393 . S
C1942 H1934 0.950 . S
C1942 C1940 1.391 . S
C1942 C1943 1.400 . S
C1943 C1942 1.400 . S
C1943 C1944 1.398 . S
C1943 C1949 1.491 . S
C1944 H1935 0.950 . S
C1944 C1943 1.398 . S
C1944 C1945 1.391 . S
C1945 H1933 0.950 . S
C1945 C1941 1.393 . S
C1945 C1944 1.391 . S
C1946 H1936 0.950 . S
C1946 C1947 1.386 . S
C1946 C1948 1.391 . S
C1947 C1946 1.386 . S
C1947 C1951 1.393 . S
C1948 H1937 0.950 . S
C1948 C1946 1.391 . S
C1948 C1949 1.400 . S
C1949 C1943 1.491 . S
C1949 C1948 1.400 . S
C1949 C1950 1.398 . S
C1950 H1938 0.950 . S
C1950 C1949 1.398 . S
C1950 C1951 1.391 . S
C1951 H1939 0.950 . S
C1951 C1947 1.393 . S
C1951 C1950 1.391 . S
H1952 C1960 0.950 . S
H1953 C1965 0.950 . S
H1954 C1962 0.950 . S
H1955 C1964 0.950 . S
H1956 C1966 0.950 . S
H1957 C1968 0.950 . S
H1958 C1970 0.950 . S
H1959 C1971 0.950 . S
C1960 H1952 0.950 . S
C1960 C1961 1.386 . S
C1960 C1962 1.391 . S
C1961 C1960 1.386 . S
C1961 C1965 1.393 . S
C1962 H1954 0.950 . S
C1962 C1960 1.391 . S
C1962 C1963 1.400 . S
C1963 C1962 1.400 . S
C1963 C1964 1.398 . S
C1963 C1969 1.491 . S
C1964 H1955 0.950 . S
C1964 C1963 1.398 . S
C1964 C1965 1.391 . S
C1965 H1953 0.950 . S
C1965 C1961 1.393 . S
C1965 C1964 1.391 . S
C1966 H1956 0.950 . S
C1966 C1967 1.386 . S
C1966 C1968 1.391 . S
C1967 C1966 1.386 . S
C1967 C1971 1.393 . S
C1968 H1957 0.950 . S
C1968 C1966 1.391 . S
C1968 C1969 1.400 . S
C1969 C1963 1.491 . S
C1969 C1968 1.400 . S
C1969 C1970 1.398 . S
C1970 H1958 0.950 . S
C1970 C1969 1.398 . S
C1970 C1971 1.391 . S
C1971 H1959 0.950 . S
C1971 C1967 1.393 . S
C1971 C1970 1.391 . S
H1972 C1980 0.950 . S
H1973 C1985 0.950 . S
H1974 C1982 0.950 . S
H1975 C1984 0.950 . S
H1976 C1986 0.950 . S
H1977 C1988 0.950 . S
H1978 C1990 0.950 . S
H1979 C1991 0.950 . S
C1980 H1972 0.950 . S
C1980 C1981 1.386 . S
C1980 C1982 1.391 . S
C1981 C1980 1.386 . S
C1981 C1985 1.393 . S
C1982 H1974 0.950 . S
C1982 C1980 1.391 . S
C1982 C1983 1.400 . S
C1983 C1982 1.400 . S
C1983 C1984 1.398 . S
C1983 C1989 1.491 . S
C1984 H1975 0.950 . S
C1984 C1983 1.398 . S
C1984 C1985 1.391 . S
C1985 H1973 0.950 . S
C1985 C1981 1.393 . S
C1985 C1984 1.391 . S
C1986 H1976 0.950 . S
C1986 C1987 1.386 . S
C1986 C1988 1.391 . S
C1987 C1986 1.386 . S
C1987 C1991 1.393 . S
C1988 H1977 0.950 . S
C1988 C1986 1.391 . S
C1988 C1989 1.400 . S
C1989 C1983 1.491 . S
C1989 C1988 1.400 . S
C1989 C1990 1.398 . S
C1990 H1978 0.950 . S
C1990 C1989 1.398 . S
C1990 C1991 1.391 . S
C1991 H1979 0.950 . S
C1991 C1987 1.393 . S
C1991 C1990 1.391 . S
H1992 C2000 0.950 . S
H1993 C2005 0.950 . S
H1994 C2002 0.950 . S
H1995 C2004 0.950 . S
H1996 C2006 0.950 . S
H1997 C2008 0.950 . S
H1998 C2010 0.950 . S
H1999 C2011 0.950 . S
C2000 H1992 0.950 . S
C2000 C2001 1.386 . S
C2000 C2002 1.391 . S
C2001 C2000 1.386 . S
C2001 C2005 1.393 . S
C2002 H1994 0.950 . S
C2002 C2000 1.391 . S
C2002 C2003 1.400 . S
C2003 C2002 1.400 . S
C2003 C2004 1.398 . S
C2003 C2009 1.491 . S
C2004 H1995 0.950 . S
C2004 C2003 1.398 . S
C2004 C2005 1.391 . S
C2005 H1993 0.950 . S
C2005 C2001 1.393 . S
C2005 C2004 1.391 . S
C2006 H1996 0.950 . S
C2006 C2007 1.386 . S
C2006 C2008 1.391 . S
C2007 C2006 1.386 . S
C2007 C2011 1.393 . S
C2008 H1997 0.950 . S
C2008 C2006 1.391 . S
C2008 C2009 1.400 . S
C2009 C2003 1.491 . S
C2009 C2008 1.400 . S
C2009 C2010 1.398 . S
C2010 H1998 0.950 . S
C2010 C2009 1.398 . S
C2010 C2011 1.391 . S
C2011 H1999 0.950 . S
C2011 C2007 1.393 . S
C2011 C2010 1.391 . S
H2012 C2020 0.950 . S
H2013 C2025 0.950 . S
H2014 C2022 0.950 . S
H2015 C2024 0.950 . S
H2016 C2026 0.950 . S
H2017 C2028 0.950 . S
H2018 C2030 0.950 . S
H2019 C2031 0.950 . S
C2020 H2012 0.950 . S
C2020 C2021 1.386 . S
C2020 C2022 1.391 . S
C2021 C2020 1.386 . S
C2021 C2025 1.393 . S
C2022 H2014 0.950 . S
C2022 C2020 1.391 . S
C2022 C2023 1.400 . S
C2023 C2022 1.400 . S
C2023 C2024 1.398 . S
C2023 C2029 1.491 . S
C2024 H2015 0.950 . S
C2024 C2023 1.398 . S
C2024 C2025 1.391 . S
C2025 H2013 0.950 . S
C2025 C2021 1.393 . S
C2025 C2024 1.391 . S
C2026 H2016 0.950 . S
C2026 C2027 1.386 . S
C2026 C2028 1.391 . S
C2027 C2026 1.386 . S
C2027 C2031 1.393 . S
C2028 H2017 0.950 . S
C2028 C2026 1.391 . S
C2028 C2029 1.400 . S
C2029 C2023 1.491 . S
C2029 C2028 1.400 . S
C2029 C2030 1.398 . S
C2030 H2018 0.950 . S
C2030 C2029 1.398 . S
C2030 C2031 1.391 . S
C2031 H2019 0.950 . S
C2031 C2027 1.393 . S
C2031 C2030 1.391 . S
H2032 C2040 0.950 . S
H2033 C2045 0.950 . S
H2034 C2042 0.950 . S
H2035 C2044 0.950 . S
H2036 C2046 0.950 . S
H2037 C2048 0.950 . S
H2038 C2050 0.950 . S
H2039 C2051 0.950 . S
C2040 H2032 0.950 . S
C2040 C2041 1.386 . S
C2040 C2042 1.391 . S
C2041 C2040 1.386 . S
C2041 C2045 1.393 . S
C2042 H2034 0.950 . S
C2042 C2040 1.391 . S
C2042 C2043 1.400 . S
C2043 C2042 1.400 . S
C2043 C2044 1.398 . S
C2043 C2049 1.491 . S
C2044 H2035 0.950 . S
C2044 C2043 1.398 . S
C2044 C2045 1.391 . S
C2045 H2033 0.950 . S
C2045 C2041 1.393 . S
C2045 C2044 1.391 . S
C2046 H2036 0.950 . S
C2046 C2047 1.386 . S
C2046 C2048 1.391 . S
C2047 C2046 1.386 . S
C2047 C2051 1.393 . S
C2048 H2037 0.950 . S
C2048 C2046 1.391 . S
C2048 C2049 1.400 . S
C2049 C2043 1.491 . S
C2049 C2048 1.400 . S
C2049 C2050 1.398 . S
C2050 H2038 0.950 . S
C2050 C2049 1.398 . S
C2050 C2051 1.391 . S
C2051 H2039 0.950 . S
C2051 C2047 1.393 . S
C2051 C2050 1.391 . S
H2052 C2060 0.950 . S
H2053 C2065 0.950 . S
H2054 C2062 0.950 . S
H2055 C2064 0.950 . S
H2056 C2066 0.950 . S
H2057 C2068 0.950 . S
H2058 C2070 0.950 . S
H2059 C2071 0.950 . S
C2060 H2052 0.950 . S
C2060 C2061 1.386 . S
C2060 C2062 1.391 . S
C2061 C2060 1.386 . S
C2061 C2065 1.393 . S
C2062 H2054 0.950 . S
C2062 C2060 1.391 . S
C2062 C2063 1.400 . S
C2063 C2062 1.400 . S
C2063 C2064 1.398 . S
C2063 C2069 1.491 . S
C2064 H2055 0.950 . S
C2064 C2063 1.398 . S
C2064 C2065 1.391 . S
C2065 H2053 0.950 . S
C2065 C2061 1.393 . S
C2065 C2064 1.391 . S
C2066 H2056 0.950 . S
C2066 C2067 1.386 . S
C2066 C2068 1.391 . S
C2067 C2066 1.386 . S
C2067 C2071 1.393 . S
C2068 H2057 0.950 . S
C2068 C2066 1.391 . S
C2068 C2069 1.400 . S
C2069 C2063 1.491 . S
C2069 C2068 1.400 . S
C2069 C2070 1.398 . S
C2070 H2058 0.950 . S
C2070 C2069 1.398 . S
C2070 C2071 1.391 . S
C2071 H2059 0.950 . S
C2071 C2067 1.393 . S
C2071 C2070 1.391 . S
H2072 C2080 0.950 . S
H2073 C2085 0.950 1_554 S
H2074 C2082 0.950 . S
H2075 C2084 0.979 . S
H2076 C2086 0.950 . S
H2077 C2088 0.950 . S
H2078 C2090 0.950 . S
H2079 C2091 0.950 . S
C2080 H2072 0.950 . S
C2080 C2081 1.386 . S
C2080 C2082 1.391 . S
C2081 C2080 1.386 . S
C2081 C2085 1.393 . S
C2082 H2074 0.950 . S
C2082 C2080 1.391 . S
C2082 C2083 1.400 . S
C2083 C2082 1.400 . S
C2083 C2084 1.398 . S
C2083 C2089 1.491 . S
C2084 H2075 0.979 . S
C2084 C2083 1.398 . S
C2084 C2085 1.391 . S
C2085 H2073 0.950 1_556 S
C2085 C2081 1.393 . S
C2085 C2084 1.391 . S
C2086 H2076 0.950 . S
C2086 C2087 1.386 . S
C2086 C2088 1.391 . S
C2087 C2086 1.386 . S
C2087 C2091 1.393 . S
C2088 H2077 0.950 . S
C2088 C2086 1.391 . S
C2088 C2089 1.400 . S
C2089 C2083 1.491 . S
C2089 C2088 1.400 . S
C2089 C2090 1.398 . S
C2090 H2078 0.950 . S
C2090 C2089 1.398 . S
C2090 C2091 1.391 . S
C2091 H2079 0.950 . S
C2091 C2087 1.393 . S
C2091 C2090 1.391 . S
H2092 C2100 0.950 . S
H2093 C2105 0.950 . S
H2094 C2102 0.950 1_655 S
H2095 C2104 0.950 . S
H2096 C2106 0.950 . S
H2097 C2108 0.950 . S
H2098 C2110 0.950 . S
H2099 C2111 0.950 . S
C2100 H2092 0.950 . S
C2100 C2101 1.386 . S
C2100 C2102 1.391 . S
C2101 C2100 1.386 . S
C2101 C2105 1.393 . S
C2102 H2094 0.950 1_455 S
C2102 C2100 1.391 . S
C2102 C2103 1.399 . S
C2103 C2102 1.399 . S
C2103 C2104 1.395 . S
C2103 C2109 1.495 1_455 S
C2104 H2095 0.950 . S
C2104 C2103 1.395 . S
C2104 C2105 1.391 . S
C2105 H2093 0.950 . S
C2105 C2101 1.393 . S
C2105 C2104 1.391 . S
C2106 H2096 0.950 . S
C2106 C2107 1.386 . S
C2106 C2108 1.391 . S
C2107 C2106 1.386 . S
C2107 C2111 1.393 . S
C2108 H2097 0.950 . S
C2108 C2106 1.391 . S
C2108 C2109 1.400 . S
C2109 C2103 1.495 1_655 S
C2109 C2108 1.400 . S
C2109 C2110 1.398 . S
C2110 H2098 0.950 . S
C2110 C2109 1.398 . S
C2110 C2111 1.391 . S
C2111 H2099 0.950 . S
C2111 C2107 1.393 . S
C2111 C2110 1.391 . S
H2112 C2120 0.950 . S
H2113 C2125 0.950 . S
H2114 C2122 0.950 . S
H2115 C2124 0.950 . S
H2116 C2126 0.950 . S
H2117 C2128 0.950 . S
H2118 C2130 0.950 . S
H2119 C2131 0.950 . S
C2120 H2112 0.950 . S
C2120 C2121 1.386 . S
C2120 C2122 1.391 . S
C2121 C2120 1.386 . S
C2121 C2125 1.393 . S
C2122 H2114 0.950 . S
C2122 C2120 1.391 . S
C2122 C2123 1.400 . S
C2123 C2122 1.400 . S
C2123 C2124 1.398 . S
C2123 C2129 1.491 . S
C2124 H2115 0.950 . S
C2124 C2123 1.398 . S
C2124 C2125 1.391 . S
C2125 H2113 0.950 . S
C2125 C2121 1.393 . S
C2125 C2124 1.391 . S
C2126 H2116 0.950 . S
C2126 C2127 1.386 . S
C2126 C2128 1.391 . S
C2127 C2126 1.386 . S
C2127 C2131 1.393 . S
C2128 H2117 0.950 . S
C2128 C2126 1.391 . S
C2128 C2129 1.400 . S
C2129 C2123 1.491 . S
C2129 C2128 1.400 . S
C2129 C2130 1.398 . S
C2130 H2118 0.950 . S
C2130 C2129 1.398 . S
C2130 C2131 1.391 . S
C2131 H2119 0.950 . S
C2131 C2127 1.393 . S
C2131 C2130 1.391 . S
H2132 C2140 0.950 . S
H2133 C2145 0.950 . S
H2134 C2142 0.950 . S
H2135 C2144 0.950 . S
H2136 C2146 0.950 . S
H2137 C2148 0.950 . S
H2138 C2150 0.950 . S
H2139 C2151 0.950 . S
C2140 H2132 0.950 . S
C2140 C2141 1.386 . S
C2140 C2142 1.391 . S
C2141 C2140 1.386 . S
C2141 C2145 1.393 . S
C2142 H2134 0.950 . S
C2142 C2140 1.391 . S
C2142 C2143 1.400 . S
C2143 C2142 1.400 . S
C2143 C2144 1.398 . S
C2143 C2149 1.491 . S
C2144 H2135 0.950 . S
C2144 C2143 1.398 . S
C2144 C2145 1.391 . S
C2145 H2133 0.950 . S
C2145 C2141 1.393 . S
C2145 C2144 1.391 . S
C2146 H2136 0.950 . S
C2146 C2147 1.386 . S
C2146 C2148 1.391 . S
C2147 C2146 1.386 . S
C2147 C2151 1.393 . S
C2148 H2137 0.950 . S
C2148 C2146 1.391 . S
C2148 C2149 1.400 . S
C2149 C2143 1.491 . S
C2149 C2148 1.400 . S
C2149 C2150 1.398 . S
C2150 H2138 0.950 . S
C2150 C2149 1.398 . S
C2150 C2151 1.391 . S
C2151 H2139 0.950 . S
C2151 C2147 1.393 . S
C2151 C2150 1.391 . S
H2152 C2160 0.950 . S
H2153 C2165 0.950 . S
H2154 C2162 0.950 . S
H2155 C2164 0.950 . S
H2156 C2166 0.950 . S
H2157 C2168 0.950 . S
H2158 C2170 0.950 . S
H2159 C2171 0.950 . S
C2160 H2152 0.950 . S
C2160 C2161 1.386 . S
C2160 C2162 1.391 . S
C2161 C2160 1.386 . S
C2161 C2165 1.393 . S
C2162 H2154 0.950 . S
C2162 C2160 1.391 . S
C2162 C2163 1.400 . S
C2163 C2162 1.400 . S
C2163 C2164 1.398 . S
C2163 C2169 1.491 . S
C2164 H2155 0.950 . S
C2164 C2163 1.398 . S
C2164 C2165 1.391 . S
C2165 H2153 0.950 . S
C2165 C2161 1.393 . S
C2165 C2164 1.391 . S
C2166 H2156 0.950 . S
C2166 C2167 1.386 . S
C2166 C2168 1.391 . S
C2167 C2166 1.386 . S
C2167 C2171 1.393 . S
C2168 H2157 0.950 . S
C2168 C2166 1.391 . S
C2168 C2169 1.400 . S
C2169 C2163 1.491 . S
C2169 C2168 1.400 . S
C2169 C2170 1.398 . S
C2170 H2158 0.950 . S
C2170 C2169 1.398 . S
C2170 C2171 1.391 . S
C2171 H2159 0.950 . S
C2171 C2167 1.393 . S
C2171 C2170 1.391 . S
H2172 C2180 0.950 . S
H2173 C2185 0.950 . S
H2174 C2182 0.950 . S
H2175 C2184 0.950 . S
H2176 C2186 0.950 . S
H2177 C2188 0.950 . S
H2178 C2190 0.950 . S
H2179 C2191 0.950 . S
C2180 H2172 0.950 . S
C2180 C2181 1.386 . S
C2180 C2182 1.391 . S
C2181 C2180 1.386 . S
C2181 C2185 1.393 . S
C2182 H2174 0.950 . S
C2182 C2180 1.391 . S
C2182 C2183 1.400 . S
C2183 C2182 1.400 . S
C2183 C2184 1.398 . S
C2183 C2189 1.491 . S
C2184 H2175 0.950 . S
C2184 C2183 1.398 . S
C2184 C2185 1.391 . S
C2185 H2173 0.950 . S
C2185 C2181 1.393 . S
C2185 C2184 1.391 . S
C2186 H2176 0.950 . S
C2186 C2187 1.386 . S
C2186 C2188 1.391 . S
C2187 C2186 1.386 . S
C2187 C2191 1.393 . S
C2188 H2177 0.950 . S
C2188 C2186 1.391 . S
C2188 C2189 1.400 . S
C2189 C2183 1.491 . S
C2189 C2188 1.400 . S
C2189 C2190 1.398 . S
C2190 H2178 0.950 . S
C2190 C2189 1.398 . S
C2190 C2191 1.391 . S
C2191 H2179 0.950 . S
C2191 C2187 1.393 . S
C2191 C2190 1.391 . S
H2192 C2200 0.950 . S
H2193 C2205 0.950 . S
H2194 C2202 0.950 . S
H2195 C2204 0.950 . S
H2196 C2206 0.950 . S
H2197 C2208 0.950 . S
H2198 C2210 0.950 . S
H2199 C2211 0.950 . S
C2200 H2192 0.950 . S
C2200 C2201 1.386 . S
C2200 C2202 1.391 . S
C2201 C2200 1.386 . S
C2201 C2205 1.393 . S
C2202 H2194 0.950 . S
C2202 C2200 1.391 . S
C2202 C2203 1.400 . S
C2203 C2202 1.400 . S
C2203 C2204 1.398 . S
C2203 C2209 1.491 . S
C2204 H2195 0.950 . S
C2204 C2203 1.398 . S
C2204 C2205 1.391 . S
C2205 H2193 0.950 . S
C2205 C2201 1.393 . S
C2205 C2204 1.391 . S
C2206 H2196 0.950 . S
C2206 C2207 1.386 . S
C2206 C2208 1.391 . S
C2207 C2206 1.386 . S
C2207 C2211 1.393 . S
C2208 H2197 0.950 . S
C2208 C2206 1.391 . S
C2208 C2209 1.400 . S
C2209 C2203 1.491 . S
C2209 C2208 1.400 . S
C2209 C2210 1.398 . S
C2210 H2198 0.950 . S
C2210 C2209 1.398 . S
C2210 C2211 1.391 . S
C2211 H2199 0.950 . S
C2211 C2207 1.393 . S
C2211 C2210 1.391 . S
H2212 C2220 0.950 . S
H2213 C2225 0.950 . S
H2214 C2222 0.950 . S
H2215 C2224 0.950 . S
H2216 C2226 0.950 . S
H2217 C2228 0.950 . S
H2218 C2230 0.950 . S
H2219 C2231 0.950 . S
C2220 H2212 0.950 . S
C2220 C2221 1.386 . S
C2220 C2222 1.391 . S
C2221 C2220 1.386 . S
C2221 C2225 1.393 . S
C2222 H2214 0.950 . S
C2222 C2220 1.391 . S
C2222 C2223 1.400 . S
C2223 C2222 1.400 . S
C2223 C2224 1.398 . S
C2223 C2229 1.491 . S
C2224 H2215 0.950 . S
C2224 C2223 1.398 . S
C2224 C2225 1.391 . S
C2225 H2213 0.950 . S
C2225 C2221 1.393 . S
C2225 C2224 1.391 . S
C2226 H2216 0.950 . S
C2226 C2227 1.386 . S
C2226 C2228 1.391 . S
C2227 C2226 1.386 . S
C2227 C2231 1.393 . S
C2228 H2217 0.950 . S
C2228 C2226 1.391 . S
C2228 C2229 1.400 . S
C2229 C2223 1.491 . S
C2229 C2228 1.400 . S
C2229 C2230 1.398 . S
C2230 H2218 0.950 . S
C2230 C2229 1.398 . S
C2230 C2231 1.391 . S
C2231 H2219 0.950 . S
C2231 C2227 1.393 . S
C2231 C2230 1.391 . S
H2232 C2240 0.950 . S
H2233 C2245 0.950 . S
H2234 C2242 0.950 . S
H2235 C2244 0.950 . S
H2236 C2246 0.950 . S
H2237 C2248 0.950 . S
H2238 C2250 0.950 . S
H2239 C2251 0.950 . S
C2240 H2232 0.950 . S
C2240 C2241 1.386 . S
C2240 C2242 1.391 . S
C2241 C2240 1.386 . S
C2241 C2245 1.393 . S
C2242 H2234 0.950 . S
C2242 C2240 1.391 . S
C2242 C2243 1.400 . S
C2243 C2242 1.400 . S
C2243 C2244 1.398 . S
C2243 C2249 1.491 . S
C2244 H2235 0.950 . S
C2244 C2243 1.398 . S
C2244 C2245 1.391 . S
C2245 H2233 0.950 . S
C2245 C2241 1.393 . S
C2245 C2244 1.391 . S
C2246 H2236 0.950 . S
C2246 C2247 1.386 . S
C2246 C2248 1.391 . S
C2247 C2246 1.386 . S
C2247 C2251 1.393 . S
C2248 H2237 0.950 . S
C2248 C2246 1.391 . S
C2248 C2249 1.400 . S
C2249 C2243 1.491 . S
C2249 C2248 1.400 . S
C2249 C2250 1.398 . S
C2250 H2238 0.950 . S
C2250 C2249 1.398 . S
C2250 C2251 1.391 . S
C2251 H2239 0.950 . S
C2251 C2247 1.393 . S
C2251 C2250 1.391 . S
H2252 C2260 0.950 . S
H2253 C2265 0.950 . S
H2254 C2262 0.950 . S
H2255 C2264 0.950 . S
H2256 C2266 0.950 . S
H2257 C2268 0.950 . S
H2258 C2270 0.950 . S
H2259 C2271 0.950 . S
C2260 H2252 0.950 . S
C2260 C2261 1.386 . S
C2260 C2262 1.391 . S
C2261 C2260 1.386 . S
C2261 C2265 1.393 . S
C2262 H2254 0.950 . S
C2262 C2260 1.391 . S
C2262 C2263 1.400 . S
C2263 C2262 1.400 . S
C2263 C2264 1.398 . S
C2263 C2269 1.491 . S
C2264 H2255 0.950 . S
C2264 C2263 1.398 . S
C2264 C2265 1.391 . S
C2265 H2253 0.950 . S
C2265 C2261 1.393 . S
C2265 C2264 1.391 . S
C2266 H2256 0.950 . S
C2266 C2267 1.386 . S
C2266 C2268 1.391 . S
C2267 C2266 1.386 . S
C2267 C2271 1.393 . S
C2268 H2257 0.950 . S
C2268 C2266 1.391 . S
C2268 C2269 1.400 . S
C2269 C2263 1.491 . S
C2269 C2268 1.400 . S
C2269 C2270 1.398 . S
C2270 H2258 0.950 . S
C2270 C2269 1.398 . S
C2270 C2271 1.391 . S
C2271 H2259 0.950 . S
C2271 C2267 1.393 . S
C2271 C2270 1.391 . S
H2272 C2280 0.950 . S
H2273 C2285 0.950 . S
H2274 C2282 0.950 . S
H2275 C2284 0.950 . S
H2276 C2286 0.950 . S
H2277 C2288 0.950 . S
H2278 C2290 0.950 . S
H2279 C2291 0.950 . S
C2280 H2272 0.950 . S
C2280 C2281 1.386 . S
C2280 C2282 1.391 . S
C2281 C2280 1.386 . S
C2281 C2285 1.393 . S
C2282 H2274 0.950 . S
C2282 C2280 1.391 . S
C2282 C2283 1.400 . S
C2283 C2282 1.400 . S
C2283 C2284 1.398 . S
C2283 C2289 1.491 . S
C2284 H2275 0.950 . S
C2284 C2283 1.398 . S
C2284 C2285 1.391 . S
C2285 H2273 0.950 . S
C2285 C2281 1.393 . S
C2285 C2284 1.391 . S
C2286 H2276 0.950 . S
C2286 C2287 1.386 . S
C2286 C2288 1.391 . S
C2287 C2286 1.386 . S
C2287 C2291 1.393 . S
C2288 H2277 0.950 . S
C2288 C2286 1.391 . S
C2288 C2289 1.400 . S
C2289 C2283 1.491 . S
C2289 C2288 1.400 . S
C2289 C2290 1.398 . S
C2290 H2278 0.950 . S
C2290 C2289 1.398 . S
C2290 C2291 1.391 . S
C2291 H2279 0.950 . S
C2291 C2287 1.393 . S
C2291 C2290 1.391 . S
H2292 C2300 0.950 . S
H2293 C2305 0.950 . S
H2294 C2302 0.950 . S
H2295 C2304 0.950 . S
H2296 C2306 0.950 . S
H2297 C2308 0.950 . S
H2298 C2310 0.950 . S
H2299 C2311 0.950 . S
C2300 H2292 0.950 . S
C2300 C2301 1.386 . S
C2300 C2302 1.391 . S
C2301 C2300 1.386 . S
C2301 C2305 1.393 . S
C2302 H2294 0.950 . S
C2302 C2300 1.391 . S
C2302 C2303 1.400 . S
C2303 C2302 1.400 . S
C2303 C2304 1.398 . S
C2303 C2309 1.491 . S
C2304 H2295 0.950 . S
C2304 C2303 1.398 . S
C2304 C2305 1.391 . S
C2305 H2293 0.950 . S
C2305 C2301 1.393 . S
C2305 C2304 1.391 . S
C2306 H2296 0.950 . S
C2306 C2307 1.386 . S
C2306 C2308 1.391 . S
C2307 C2306 1.386 . S
C2307 C2311 1.393 . S
C2308 H2297 0.950 . S
C2308 C2306 1.391 . S
C2308 C2309 1.400 . S
C2309 C2303 1.491 . S
C2309 C2308 1.400 . S
C2309 C2310 1.398 . S
C2310 H2298 0.950 . S
C2310 C2309 1.398 . S
C2310 C2311 1.391 . S
C2311 H2299 0.950 . S
C2311 C2307 1.393 . S
C2311 C2310 1.391 . S
H2312 C2320 0.950 . S
H2313 C2325 0.950 . S
H2314 C2322 0.950 . S
H2315 C2324 0.950 . S
H2316 C2326 0.950 . S
H2317 C2328 0.950 . S
H2318 C2330 0.950 . S
H2319 C2331 0.950 . S
C2320 H2312 0.950 . S
C2320 C2321 1.386 . S
C2320 C2322 1.391 . S
C2321 C2320 1.386 . S
C2321 C2325 1.393 . S
C2322 H2314 0.950 . S
C2322 C2320 1.391 . S
C2322 C2323 1.400 . S
C2323 C2322 1.400 . S
C2323 C2324 1.398 . S
C2323 C2329 1.491 . S
C2324 H2315 0.950 . S
C2324 C2323 1.398 . S
C2324 C2325 1.391 . S
C2325 H2313 0.950 . S
C2325 C2321 1.393 . S
C2325 C2324 1.391 . S
C2326 H2316 0.950 . S
C2326 C2327 1.386 . S
C2326 C2328 1.391 . S
C2327 C2326 1.386 . S
C2327 C2331 1.393 . S
C2328 H2317 0.950 . S
C2328 C2326 1.391 . S
C2328 C2329 1.400 . S
C2329 C2323 1.491 . S
C2329 C2328 1.400 . S
C2329 C2330 1.398 . S
C2330 H2318 0.950 . S
C2330 C2329 1.398 . S
C2330 C2331 1.391 . S
C2331 H2319 0.950 . S
C2331 C2327 1.393 . S
C2331 C2330 1.391 . S
H2332 C2340 0.950 . S
H2333 C2345 0.950 . S
H2334 C2342 0.950 . S
H2335 C2344 0.950 . S
H2336 C2346 0.950 . S
H2337 C2348 0.950 . S
H2338 C2350 0.950 . S
H2339 C2351 0.950 . S
C2340 H2332 0.950 . S
C2340 C2341 1.386 . S
C2340 C2342 1.391 . S
C2341 C2340 1.386 . S
C2341 C2345 1.393 . S
C2342 H2334 0.950 . S
C2342 C2340 1.391 . S
C2342 C2343 1.400 . S
C2343 C2342 1.400 . S
C2343 C2344 1.398 . S
C2343 C2349 1.491 . S
C2344 H2335 0.950 . S
C2344 C2343 1.398 . S
C2344 C2345 1.391 . S
C2345 H2333 0.950 . S
C2345 C2341 1.393 . S
C2345 C2344 1.391 . S
C2346 H2336 0.950 . S
C2346 C2347 1.386 . S
C2346 C2348 1.391 . S
C2347 C2346 1.386 . S
C2347 C2351 1.393 . S
C2348 H2337 0.950 . S
C2348 C2346 1.391 . S
C2348 C2349 1.400 . S
C2349 C2343 1.491 . S
C2349 C2348 1.400 . S
C2349 C2350 1.398 . S
C2350 H2338 0.950 . S
C2350 C2349 1.398 . S
C2350 C2351 1.391 . S
C2351 H2339 0.950 . S
C2351 C2347 1.393 . S
C2351 C2350 1.391 . S
H2352 C2360 0.950 . S
H2353 C2365 0.950 . S
H2354 C2362 0.950 . S
H2355 C2364 0.950 . S
H2356 C2366 0.950 . S
H2357 C2368 0.950 . S
H2358 C2370 0.950 . S
H2359 C2371 0.950 . S
C2360 H2352 0.950 . S
C2360 C2361 1.386 . S
C2360 C2362 1.391 . S
C2361 C2360 1.386 . S
C2361 C2365 1.393 . S
C2362 H2354 0.950 . S
C2362 C2360 1.391 . S
C2362 C2363 1.400 . S
C2363 C2362 1.400 . S
C2363 C2364 1.398 . S
C2363 C2369 1.491 . S
C2364 H2355 0.950 . S
C2364 C2363 1.398 . S
C2364 C2365 1.391 . S
C2365 H2353 0.950 . S
C2365 C2361 1.393 . S
C2365 C2364 1.391 . S
C2366 H2356 0.950 . S
C2366 C2367 1.386 . S
C2366 C2368 1.391 . S
C2367 C2366 1.386 . S
C2367 C2371 1.393 . S
C2368 H2357 0.950 . S
C2368 C2366 1.391 . S
C2368 C2369 1.400 . S
C2369 C2363 1.491 . S
C2369 C2368 1.400 . S
C2369 C2370 1.398 . S
C2370 H2358 0.950 . S
C2370 C2369 1.398 . S
C2370 C2371 1.391 . S
C2371 H2359 0.950 . S
C2371 C2367 1.393 . S
C2371 C2370 1.391 . S
H2372 C2380 0.950 . S
H2373 C2385 0.950 . S
H2374 C2382 0.950 . S
H2375 C2384 0.950 . S
H2376 C2386 0.950 . S
H2377 C2388 0.950 . S
H2378 C2390 0.950 . S
H2379 C2391 0.950 . S
C2380 H2372 0.950 . S
C2380 C2381 1.386 . S
C2380 C2382 1.391 . S
C2381 C2380 1.386 . S
C2381 C2385 1.393 . S
C2382 H2374 0.950 . S
C2382 C2380 1.391 . S
C2382 C2383 1.400 . S
C2383 C2382 1.400 . S
C2383 C2384 1.398 . S
C2383 C2389 1.491 . S
C2384 H2375 0.950 . S
C2384 C2383 1.398 . S
C2384 C2385 1.391 . S
C2385 H2373 0.950 . S
C2385 C2381 1.393 . S
C2385 C2384 1.391 . S
C2386 H2376 0.950 . S
C2386 C2387 1.386 . S
C2386 C2388 1.391 . S
C2387 C2386 1.386 . S
C2387 C2391 1.393 . S
C2388 H2377 0.950 . S
C2388 C2386 1.391 . S
C2388 C2389 1.400 . S
C2389 C2383 1.491 . S
C2389 C2388 1.400 . S
C2389 C2390 1.398 . S
C2390 H2378 0.950 . S
C2390 C2389 1.398 . S
C2390 C2391 1.391 . S
C2391 H2379 0.950 . S
C2391 C2387 1.393 . S
C2391 C2390 1.391 . S
H2392 C2400 0.950 . S
H2393 C2405 0.950 . S
H2394 C2402 0.950 . S
H2395 C2404 0.950 . S
H2396 C2406 0.950 . S
H2397 C2408 0.950 . S
H2398 C2410 0.950 . S
H2399 C2411 0.950 . S
C2400 H2392 0.950 . S
C2400 C2401 1.386 . S
C2400 C2402 1.391 . S
C2401 C2400 1.386 . S
C2401 C2405 1.393 . S
C2402 H2394 0.950 . S
C2402 C2400 1.391 . S
C2402 C2403 1.400 . S
C2403 C2402 1.400 . S
C2403 C2404 1.398 . S
C2403 C2409 1.491 . S
C2404 H2395 0.950 . S
C2404 C2403 1.398 . S
C2404 C2405 1.391 . S
C2405 H2393 0.950 . S
C2405 C2401 1.393 . S
C2405 C2404 1.391 . S
C2406 H2396 0.950 . S
C2406 C2407 1.386 . S
C2406 C2408 1.391 . S
C2407 C2406 1.386 . S
C2407 C2411 1.393 . S
C2408 H2397 0.950 . S
C2408 C2406 1.391 . S
C2408 C2409 1.400 . S
C2409 C2403 1.491 . S
C2409 C2408 1.400 . S
C2409 C2410 1.398 . S
C2410 H2398 0.950 . S
C2410 C2409 1.398 . S
C2410 C2411 1.391 . S
C2411 H2399 0.950 . S
C2411 C2407 1.393 . S
C2411 C2410 1.391 . S
H2412 C2420 0.950 . S
H2413 C2425 0.950 . S
H2414 C2422 0.950 . S
H2415 C2424 0.950 . S
H2416 C2426 0.950 . S
H2417 C2428 0.950 . S
H2418 C2430 0.950 . S
H2419 C2431 0.950 . S
C2420 H2412 0.950 . S
C2420 C2421 1.386 . S
C2420 C2422 1.391 . S
C2421 C2420 1.386 . S
C2421 C2425 1.393 . S
C2422 H2414 0.950 . S
C2422 C2420 1.391 . S
C2422 C2423 1.400 . S
C2423 C2422 1.400 . S
C2423 C2424 1.398 . S
C2423 C2429 1.491 . S
C2424 H2415 0.950 . S
C2424 C2423 1.398 . S
C2424 C2425 1.391 . S
C2425 H2413 0.950 . S
C2425 C2421 1.393 . S
C2425 C2424 1.391 . S
C2426 H2416 0.950 . S
C2426 C2427 1.386 . S
C2426 C2428 1.391 . S
C2427 C2426 1.386 . S
C2427 C2431 1.393 . S
C2428 H2417 0.950 . S
C2428 C2426 1.391 . S
C2428 C2429 1.400 . S
C2429 C2423 1.491 . S
C2429 C2428 1.400 . S
C2429 C2430 1.398 . S
C2430 H2418 0.950 . S
C2430 C2429 1.398 . S
C2430 C2431 1.391 . S
C2431 H2419 0.950 . S
C2431 C2427 1.393 . S
C2431 C2430 1.391 . S
H2432 C2440 0.950 . S
H2433 C2445 0.950 . S
H2434 C2442 0.950 . S
H2435 C2444 0.950 . S
H2436 C2446 0.950 . S
H2437 C2448 0.950 . S
H2438 C2450 0.950 . S
H2439 C2451 0.950 . S
C2440 H2432 0.950 . S
C2440 C2441 1.386 . S
C2440 C2442 1.391 . S
C2441 C2440 1.386 . S
C2441 C2445 1.393 . S
C2442 H2434 0.950 . S
C2442 C2440 1.391 . S
C2442 C2443 1.400 . S
C2443 C2442 1.400 . S
C2443 C2444 1.398 . S
C2443 C2449 1.491 . S
C2444 H2435 0.950 . S
C2444 C2443 1.398 . S
C2444 C2445 1.391 . S
C2445 H2433 0.950 . S
C2445 C2441 1.393 . S
C2445 C2444 1.391 . S
C2446 H2436 0.950 . S
C2446 C2447 1.386 . S
C2446 C2448 1.391 . S
C2447 C2446 1.386 . S
C2447 C2451 1.393 . S
C2448 H2437 0.950 . S
C2448 C2446 1.391 . S
C2448 C2449 1.400 . S
C2449 C2443 1.491 . S
C2449 C2448 1.400 . S
C2449 C2450 1.398 . S
C2450 H2438 0.950 . S
C2450 C2449 1.398 . S
C2450 C2451 1.391 . S
C2451 H2439 0.950 . S
C2451 C2447 1.393 . S
C2451 C2450 1.391 . S
H2452 C2460 0.950 . S
H2453 C2465 0.950 . S
H2454 C2462 0.950 . S
H2455 C2464 0.950 . S
H2456 C2466 0.950 . S
H2457 C2468 0.950 . S
H2458 C2470 0.950 . S
H2459 C2471 0.950 . S
C2460 H2452 0.950 . S
C2460 C2461 1.386 . S
C2460 C2462 1.391 . S
C2461 C2460 1.386 . S
C2461 C2465 1.393 . S
C2462 H2454 0.950 . S
C2462 C2460 1.391 . S
C2462 C2463 1.400 . S
C2463 C2462 1.400 . S
C2463 C2464 1.398 . S
C2463 C2469 1.491 . S
C2464 H2455 0.950 . S
C2464 C2463 1.398 . S
C2464 C2465 1.391 . S
C2465 H2453 0.950 . S
C2465 C2461 1.393 . S
C2465 C2464 1.391 . S
C2466 H2456 0.950 . S
C2466 C2467 1.386 . S
C2466 C2468 1.391 . S
C2467 C2466 1.386 . S
C2467 C2471 1.393 . S
C2468 H2457 0.950 . S
C2468 C2466 1.391 . S
C2468 C2469 1.400 . S
C2469 C2463 1.491 . S
C2469 C2468 1.400 . S
C2469 C2470 1.398 . S
C2470 H2458 0.950 . S
C2470 C2469 1.398 . S
C2470 C2471 1.391 . S
C2471 H2459 0.950 . S
C2471 C2467 1.393 . S
C2471 C2470 1.391 . S
H2472 C2480 0.950 . S
H2473 C2485 0.950 . S
H2474 C2482 0.950 . S
H2475 C2484 0.950 . S
H2476 C2486 0.950 . S
H2477 C2488 0.950 . S
H2478 C2490 0.950 . S
H2479 C2491 0.950 . S
C2480 H2472 0.950 . S
C2480 C2481 1.386 . S
C2480 C2482 1.391 . S
C2481 C2480 1.386 . S
C2481 C2485 1.393 . S
C2482 H2474 0.950 . S
C2482 C2480 1.391 . S
C2482 C2483 1.400 . S
C2483 C2482 1.400 . S
C2483 C2484 1.398 . S
C2483 C2489 1.491 . S
C2484 H2475 0.950 . S
C2484 C2483 1.398 . S
C2484 C2485 1.391 . S
C2485 H2473 0.950 . S
C2485 C2481 1.393 . S
C2485 C2484 1.391 . S
C2486 H2476 0.950 . S
C2486 C2487 1.386 . S
C2486 C2488 1.391 . S
C2487 C2486 1.386 . S
C2487 C2491 1.393 . S
C2488 H2477 0.950 . S
C2488 C2486 1.391 . S
C2488 C2489 1.400 . S
C2489 C2483 1.491 . S
C2489 C2488 1.400 . S
C2489 C2490 1.398 . S
C2490 H2478 0.950 . S
C2490 C2489 1.398 . S
C2490 C2491 1.391 . S
C2491 H2479 0.950 . S
C2491 C2487 1.393 . S
C2491 C2490 1.391 . S
H2492 C2500 0.950 . S
H2493 C2505 0.950 . S
H2494 C2502 0.950 . S
H2495 C2504 0.950 . S
H2496 C2506 0.950 . S
H2497 C2508 0.950 . S
H2498 C2510 0.950 . S
H2499 C2511 0.950 . S
C2500 H2492 0.950 . S
C2500 C2501 1.386 . S
C2500 C2502 1.391 . S
C2501 C2500 1.386 . S
C2501 C2505 1.393 . S
C2502 H2494 0.950 . S
C2502 C2500 1.391 . S
C2502 C2503 1.400 . S
C2503 C2502 1.400 . S
C2503 C2504 1.398 . S
C2503 C2509 1.491 . S
C2504 H2495 0.950 . S
C2504 C2503 1.398 . S
C2504 C2505 1.391 . S
C2505 H2493 0.950 . S
C2505 C2501 1.393 . S
C2505 C2504 1.391 . S
C2506 H2496 0.950 . S
C2506 C2507 1.386 . S
C2506 C2508 1.391 . S
C2507 C2506 1.386 . S
C2507 C2511 1.393 . S
C2508 H2497 0.950 . S
C2508 C2506 1.391 . S
C2508 C2509 1.400 . S
C2509 C2503 1.491 . S
C2509 C2508 1.400 . S
C2509 C2510 1.398 . S
C2510 H2498 0.950 . S
C2510 C2509 1.398 . S
C2510 C2511 1.391 . S
C2511 H2499 0.950 . S
C2511 C2507 1.393 . S
C2511 C2510 1.391 . S
H2512 C2520 0.950 . S
H2513 C2525 0.950 . S
H2514 C2522 0.950 . S
H2515 C2524 0.950 . S
H2516 C2526 0.950 . S
H2517 C2528 0.950 . S
H2518 C2530 0.950 . S
H2519 C2531 0.950 . S
C2520 H2512 0.950 . S
C2520 C2521 1.386 . S
C2520 C2522 1.391 . S
C2521 C2520 1.386 . S
C2521 C2525 1.393 . S
C2522 H2514 0.950 . S
C2522 C2520 1.391 . S
C2522 C2523 1.400 . S
C2523 C2522 1.400 . S
C2523 C2524 1.398 . S
C2523 C2529 1.491 . S
C2524 H2515 0.950 . S
C2524 C2523 1.398 . S
C2524 C2525 1.391 . S
C2525 H2513 0.950 . S
C2525 C2521 1.393 . S
C2525 C2524 1.391 . S
C2526 H2516 0.950 . S
C2526 C2527 1.386 . S
C2526 C2528 1.391 . S
C2527 C2526 1.386 . S
C2527 C2531 1.393 . S
C2528 H2517 0.950 . S
C2528 C2526 1.391 . S
C2528 C2529 1.400 . S
C2529 C2523 1.491 . S
C2529 C2528 1.400 . S
C2529 C2530 1.398 . S
C2530 H2518 0.950 . S
C2530 C2529 1.398 . S
C2530 C2531 1.391 . S
C2531 H2519 0.950 . S
C2531 C2527 1.393 . S
C2531 C2530 1.391 . S
H2532 C2540 0.950 . S
H2533 C2545 0.950 . S
H2534 C2542 0.950 . S
H2535 C2544 0.950 . S
H2536 C2546 0.950 . S
H2537 C2548 0.950 . S
H2538 C2550 0.950 . S
H2539 C2551 0.950 . S
C2540 H2532 0.950 . S
C2540 C2541 1.386 . S
C2540 C2542 1.391 . S
C2541 C2540 1.386 . S
C2541 C2545 1.393 . S
C2542 H2534 0.950 . S
C2542 C2540 1.391 . S
C2542 C2543 1.400 . S
C2543 C2542 1.400 . S
C2543 C2544 1.398 . S
C2543 C2549 1.491 . S
C2544 H2535 0.950 . S
C2544 C2543 1.398 . S
C2544 C2545 1.391 . S
C2545 H2533 0.950 . S
C2545 C2541 1.393 . S
C2545 C2544 1.391 . S
C2546 H2536 0.950 . S
C2546 C2547 1.386 . S
C2546 C2548 1.391 . S
C2547 C2546 1.386 . S
C2547 C2551 1.393 . S
C2548 H2537 0.950 . S
C2548 C2546 1.391 . S
C2548 C2549 1.400 . S
C2549 C2543 1.491 . S
C2549 C2548 1.400 . S
C2549 C2550 1.398 . S
C2550 H2538 0.950 . S
C2550 C2549 1.398 . S
C2550 C2551 1.391 . S
C2551 H2539 0.950 . S
C2551 C2547 1.393 . S
C2551 C2550 1.391 . S
H2552 C2560 0.950 . S
H2553 C2565 0.950 . S
H2554 C2562 0.950 . S
H2555 C2564 0.950 . S
H2556 C2566 0.950 . S
H2557 C2568 0.950 . S
H2558 C2570 0.950 . S
H2559 C2571 0.950 . S
C2560 H2552 0.950 . S
C2560 C2561 1.386 . S
C2560 C2562 1.391 . S
C2561 C2560 1.386 . S
C2561 C2565 1.393 . S
C2562 H2554 0.950 . S
C2562 C2560 1.391 . S
C2562 C2563 1.400 . S
C2563 C2562 1.400 . S
C2563 C2564 1.398 . S
C2563 C2569 1.491 . S
C2564 H2555 0.950 . S
C2564 C2563 1.398 . S
C2564 C2565 1.391 . S
C2565 H2553 0.950 . S
C2565 C2561 1.393 . S
C2565 C2564 1.391 . S
C2566 H2556 0.950 . S
C2566 C2567 1.386 . S
C2566 C2568 1.391 . S
C2567 C2566 1.386 . S
C2567 C2571 1.393 . S
C2568 H2557 0.950 . S
C2568 C2566 1.391 . S
C2568 C2569 1.400 . S
C2569 C2563 1.491 . S
C2569 C2568 1.400 . S
C2569 C2570 1.398 . S
C2570 H2558 0.950 . S
C2570 C2569 1.398 . S
C2570 C2571 1.391 . S
C2571 H2559 0.950 . S
C2571 C2567 1.393 . S
C2571 C2570 1.391 . S
H2572 C2580 0.950 . S
H2573 C2585 0.950 . S
H2574 C2582 0.950 . S
H2575 C2584 0.950 . S
H2576 C2586 0.950 . S
H2577 C2588 0.950 . S
H2578 C2590 0.950 . S
H2579 C2591 0.950 . S
C2580 H2572 0.950 . S
C2580 C2581 1.386 . S
C2580 C2582 1.391 . S
C2581 C2580 1.386 . S
C2581 C2585 1.393 . S
C2582 H2574 0.950 . S
C2582 C2580 1.391 . S
C2582 C2583 1.400 . S
C2583 C2582 1.400 . S
C2583 C2584 1.398 . S
C2583 C2589 1.491 . S
C2584 H2575 0.950 . S
C2584 C2583 1.398 . S
C2584 C2585 1.391 . S
C2585 H2573 0.950 . S
C2585 C2581 1.393 . S
C2585 C2584 1.391 . S
C2586 H2576 0.950 . S
C2586 C2587 1.386 . S
C2586 C2588 1.391 . S
C2587 C2586 1.386 . S
C2587 C2591 1.393 . S
C2588 H2577 0.950 . S
C2588 C2586 1.391 . S
C2588 C2589 1.400 . S
C2589 C2583 1.491 . S
C2589 C2588 1.400 . S
C2589 C2590 1.398 . S
C2590 H2578 0.950 . S
C2590 C2589 1.398 . S
C2590 C2591 1.391 . S
C2591 H2579 0.950 . S
C2591 C2587 1.393 . S
C2591 C2590 1.391 . S
C681 C127 2.215 . S
C687 C1 2.215 . S
C701 C152 2.210 . S
C707 C14 2.218 . S
C721 C155 2.213 . S
C727 C40 2.218 . S
C741 C124 2.216 . S
C747 C54 2.215 . S
C761 C57 2.209 . S
C767 C223 2.218 . S
C781 C82 2.215 . S
C787 C168 2.210 . S
C801 C97 2.217 . S
C807 C194 2.211 . S
C821 C196 2.217 . S
C827 C98 2.211 . S
C841 C236 2.214 . S
C847 C264 2.211 . S
C861 C239 2.213 . S
C867 C656 2.212 . S
C881 C278 2.215 . S
C887 C658 2.211 . S
C901 C292 2.217 . S
C907 C631 2.209 . S
C921 C306 2.210 . S
C927 C616 2.217 . S
C941 C586 2.215 . S
C947 C308 2.210 . S
C961 C334 2.215 . S
C967 C603 2.215 . S
C981 C474 2.211 . S
C987 C349 2.217 . S
C1001 C476 2.210 . S
C1007 C350 2.217 . S
C1021 C491 2.214 . S
C1027 C376 2.216 . S
C1041 C448 2.211 . S
C1047 C378 2.219 . S
C1061 C559 2.210 . S
C1067 C405 2.214 . S
C1081 C504 2.210 . S
C1087 C418 2.216 . S
C1101 C421 2.212 . S
C1107 C531 2.214 . S
C1121 C435 2.210 . S
C1127 C532 2.218 . S
C1141 C561 2.217 . S
C1147 C600 2.212 . S
C1161 C224 1.136 . S
C1167 C0 1.163 . S
C1181 C670 1.140 . S
C1187 C15 1.165 . S
C1201 C41 1.160 . S
C1207 C294 1.137 . S
C1221 C644 1.136 . S
C1227 C55 1.162 . S
C1241 C56 1.161 . S
C1247 C574 1.137 . S
C1261 C588 1.162 . S
C1267 C83 1.173 . S
C1281 C96 1.165 . S
C1287 C615 1.137 . S
C1301 C280 1.136 . S
C1307 C99 1.162 . S
C1321 C125 1.174 . S
C1327 C13 1.159 . S
C1341 C26 1.148 . S
C1347 C126 1.164 . S
C1361 C153 1.162 . S
C1367 C28 1.145 . S
C1381 C42 1.141 . S
C1387 C154 1.162 . S
C1401 C169 1.169 . S
C1407 C69 1.156 . S
C1421 C70 1.140 . S
C1427 C195 1.165 . S
C1441 C197 1.165 . S
C1447 C85 1.149 . S
C1461 C222 1.168 . S
C1467 C110 1.154 . S
C1481 C237 1.166 . S
C1487 C112 1.152 . S
C1501 C238 1.163 . S
C1507 C516 1.143 . S
C1521 C519 1.160 . S
C1527 C265 1.172 . S
C1541 C544 1.162 . S
C1547 C279 1.174 . S
C1561 C211 1.141 . S
C1567 C293 1.167 . S
C1581 C307 1.169 . S
C1587 C140 1.146 . S
C1601 C503 1.158 . S
C1607 C309 1.174 . S
C1621 C335 1.171 . S
C1627 C462 1.151 . S
C1641 C348 1.172 . S
C1647 C573 1.150 . S
C1661 C351 1.170 . S
C1667 C322 1.148 . S
C1681 C377 1.163 . S
C1687 C643 1.144 . S
C1701 C379 1.174 . S
C1707 C320 1.162 . S
C1721 C404 1.163 . S
C1727 C251 1.142 . S
C1741 C419 1.167 . S
C1747 C252 1.153 . S
C1761 C266 1.142 . S
C1767 C420 1.167 . S
C1781 C628 1.162 . S
C1787 C434 1.174 . S
C1801 C337 1.142 . S
C1807 C449 1.162 . S
C1821 C362 1.137 . S
C1827 C475 1.163 . S
C1841 C477 1.167 . S
C1847 C364 1.154 . S
C1861 C390 1.159 . S
C1867 C490 1.174 . S
C1881 C505 1.160 . S
C1887 C393 1.136 . S
C1901 C530 1.161 . S
C1907 C406 1.135 . S
C1921 C533 1.166 . S
C1927 C433 1.150 . S
C1941 C447 1.156 . S
C1947 C558 1.169 . S
C1961 C560 1.173 . S
C1967 C460 1.161 . S
C1981 C587 1.173 . S
C1987 C180 1.162 . S
C2001 C182 1.162 . S
C2007 C601 1.173 . S
C2021 C602 1.161 . S
C2027 C208 1.137 . S
C2041 C617 1.166 . S
C2047 C547 1.140 . S
C2061 C488 1.161 . S
C2067 C630 1.172 . S
C2081 C167 1.152 . S
C2087 C657 1.172 . S
C2101 C139 1.142 . S
C2107 C659 1.162 . S
C2121 C321 1.544 . S
C2127 C12 1.552 . S
C2141 C27 1.566 . S
C2147 C572 1.563 . S
C2161 C29 1.555 . S
C2167 C323 1.548 . S
C2181 C642 1.568 . S
C2187 C43 1.567 . S
C2201 C68 1.545 . S
C2207 C253 1.540 . S
C2221 C267 1.554 . S
C2227 C71 1.561 . S
C2241 C629 1.567 . S
C2247 C84 1.565 . S
C2261 C111 1.566 . S
C2267 C250 1.563 . S
C2281 C183 1.560 . S
C2287 C113 1.565 . S
C2301 C138 1.559 . S
C2307 C209 1.550 . S
C2321 C210 1.569 . S
C2327 C141 1.566 . S
C2341 C166 1.546 . S
C2347 C181 1.540 . S
C2361 C363 1.559 . S
C2367 C225 1.551 . S
C2381 C281 1.544 . S
C2387 C432 1.542 . S
C2401 C295 1.551 . S
C2407 C391 1.544 . S
C2421 C645 1.563 . S
C2427 C336 1.568 . S
C2441 C365 1.543 . S
C2447 C671 1.550 . S
C2461 C392 1.567 . S
C2467 C589 1.567 . S
C2481 C407 1.539 . S
C2487 C614 1.543 . S
C2501 C575 1.559 . S
C2507 C446 1.566 . S
C2521 C518 1.545 . S
C2527 C461 1.549 . S
C2541 C463 1.541 . S
C2547 C545 1.546 . S
C2561 C489 1.560 . S
C2567 C546 1.555 . S
C2581 C517 1.557 . S
C2587 C502 1.552 . S
