# Generated by pormake.
# Topology lhb, (8)-cn, num edge types: 1
# Building blocks:
#     Node 0, Type 0, BuildingBlock: TAGTUT_clean_sbu_1, # of connection points: 8
#     Node 1, Type 0, BuildingBlock: TAGTUT_clean_sbu_1, # of connection points: 8
#     Node 2, Type 0, BuildingBlock: TAGTUT_clean_sbu_1, # of connection points: 8
#     Node 3, Type 0, BuildingBlock: TAGTUT_clean_sbu_1, # of connection points: 8
#     Node 4, Type 0, BuildingBlock: TAGTUT_clean_sbu_1, # of connection points: 8
#     Node 5, Type 0, BuildingBlock: TAGTUT_clean_sbu_1, # of connection points: 8
#     Node 6, Type 0, BuildingBlock: TAGTUT_clean_sbu_1, # of connection points: 8
#     Node 7, Type 0, BuildingBlock: TAGTUT_clean_sbu_1, # of connection points: 8
#     Edge 8, Type (0, 0), BuildingBlock: EZIPEK_clean_linker_0, # of connection points: 2
#     Edge 9, Type (0, 0), BuildingBlock: EZIPEK_clean_linker_0, # of connection points: 2
#     Edge 10, Type (0, 0), BuildingBlock: EZIPEK_clean_linker_0, # of connection points: 2
#     Edge 11, Type (0, 0), BuildingBlock: EZIPEK_clean_linker_0, # of connection points: 2
#     Edge 12, Type (0, 0), BuildingBlock: EZIPEK_clean_linker_0, # of connection points: 2
#     Edge 13, Type (0, 0), BuildingBlock: EZIPEK_clean_linker_0, # of connection points: 2
#     Edge 14, Type (0, 0), BuildingBlock: EZIPEK_clean_linker_0, # of connection points: 2
#     Edge 15, Type (0, 0), BuildingBlock: EZIPEK_clean_linker_0, # of connection points: 2
#     Edge 16, Type (0, 0), BuildingBlock: EZIPEK_clean_linker_0, # of connection points: 2
#     Edge 17, Type (0, 0), BuildingBlock: EZIPEK_clean_linker_0, # of connection points: 2
#     Edge 18, Type (0, 0), BuildingBlock: EZIPEK_clean_linker_0, # of connection points: 2
#     Edge 19, Type (0, 0), BuildingBlock: EZIPEK_clean_linker_0, # of connection points: 2
#     Edge 20, Type (0, 0), BuildingBlock: EZIPEK_clean_linker_0, # of connection points: 2
#     Edge 21, Type (0, 0), BuildingBlock: EZIPEK_clean_linker_0, # of connection points: 2
#     Edge 22, Type (0, 0), BuildingBlock: EZIPEK_clean_linker_0, # of connection points: 2
#     Edge 23, Type (0, 0), BuildingBlock: EZIPEK_clean_linker_0, # of connection points: 2
#     Edge 24, Type (0, 0), BuildingBlock: EZIPEK_clean_linker_0, # of connection points: 2
#     Edge 25, Type (0, 0), BuildingBlock: EZIPEK_clean_linker_0, # of connection points: 2
#     Edge 26, Type (0, 0), BuildingBlock: EZIPEK_clean_linker_0, # of connection points: 2
#     Edge 27, Type (0, 0), BuildingBlock: EZIPEK_clean_linker_0, # of connection points: 2
#     Edge 28, Type (0, 0), BuildingBlock: EZIPEK_clean_linker_0, # of connection points: 2
#     Edge 29, Type (0, 0), BuildingBlock: EZIPEK_clean_linker_0, # of connection points: 2
#     Edge 30, Type (0, 0), BuildingBlock: EZIPEK_clean_linker_0, # of connection points: 2
#     Edge 31, Type (0, 0), BuildingBlock: EZIPEK_clean_linker_0, # of connection points: 2
#     Edge 32, Type (0, 0), BuildingBlock: EZIPEK_clean_linker_0, # of connection points: 2
#     Edge 33, Type (0, 0), BuildingBlock: EZIPEK_clean_linker_0, # of connection points: 2
#     Edge 34, Type (0, 0), BuildingBlock: EZIPEK_clean_linker_0, # of connection points: 2
#     Edge 35, Type (0, 0), BuildingBlock: EZIPEK_clean_linker_0, # of connection points: 2
#     Edge 36, Type (0, 0), BuildingBlock: EZIPEK_clean_linker_0, # of connection points: 2
#     Edge 37, Type (0, 0), BuildingBlock: EZIPEK_clean_linker_0, # of connection points: 2
#     Edge 38, Type (0, 0), BuildingBlock: EZIPEK_clean_linker_0, # of connection points: 2
#     Edge 39, Type (0, 0), BuildingBlock: EZIPEK_clean_linker_0, # of connection points: 2
# Relax obj value: 0.058
# Max RMSD: 0.155
# Mean RMSD: 0.155
data_MOF--net-lhb--node1-TAGTUT_clean_sbu_1--edge1-EZIPEK_clean_linker_0
_symmetry_space_group_name_H-M    P1
_symmetry_Int_Tables_number       1
_symmetry_cell_setting            triclinic
loop_
_symmetry_equiv_pos_as_xyz
'x, y, z'
_cell_length_a     26.111868
_cell_length_b     11.148386
_cell_length_c     46.438543
_cell_angle_alpha  93.083524
_cell_angle_beta   90.459113
_cell_angle_gamma 89.940844
loop_
_atom_site_label
_atom_site_type_symbol
_atom_site_fract_x
_atom_site_fract_y
_atom_site_fract_z
_atom_type_partial_charge
C0 C 0.06354 -0.01208 0.10405 0.0
C1 C 0.12605 0.03475 0.02271 0.0
C2 C 0.94313 0.13893 0.98851 0.0
Mg3 Mg 0.07645 0.81753 0.04876 0.0
O4 O 0.01463 0.88319 0.03825 0.0
Mg5 Mg 0.00293 0.0592 0.04441 0.0
Mg6 Mg 0.98289 0.86626 0.99847 0.0
O7 O 0.94967 0.8583 0.96024 0.0
Mg8 Mg 0.88845 0.9412 0.95314 0.0
Mg9 Mg 0.95349 0.68571 0.95114 0.0
C10 C 0.02077 0.60176 0.01179 0.0
C11 C 0.06684 0.7993 0.94881 0.0
O12 O 0.03497 0.05445 0.08931 0.0
O13 O 0.0819 0.88748 0.09387 0.0
O14 O 0.0859 0.09849 0.0285 0.0
O15 O 0.12845 0.92216 0.02621 0.0
O16 O 0.05476 0.63871 0.03053 0.0
O17 O 0.99126 0.672 0.99815 0.0
C18 C 0.89926 0.89656 0.0486 0.0
O19 O 0.91009 0.85059 0.02367 0.0
O20 O 0.92571 -0.01578 0.06008 0.0
O21 O 0.92584 0.73899 0.90348 0.0
O22 O 0.89133 0.92448 0.90899 0.0
O23 O 0.86946 0.66392 0.9683 0.0
C24 C 0.90771 0.83641 0.89321 0.0
O25 O 0.82751 0.83879 0.96772 0.0
O26 O 0.90655 0.11625 0.97071 0.0
C27 C 0.82899 0.728 0.97286 0.0
O28 O 0.97114 0.05851 -0.00108 0.0
O29 O 0.05839 0.86694 0.97171 0.0
O30 O 0.03352 0.72574 0.93797 0.0
C31 C 0.3472 0.16965 0.14747 0.0
C32 C 0.41643 0.05486 0.22854 0.0
C33 C 0.22029 0.9374 0.25992 0.0
Mg34 Mg 0.35977 0.27437 0.20896 0.0
O35 O 0.29724 0.1937 0.2119 0.0
Mg36 Mg 0.2936 0.02059 0.20232 0.0
Mg37 Mg 0.26074 0.20341 0.24874 0.0
O38 O 0.22445 0.22336 0.28665 0.0
Mg39 Mg 0.16243 0.15535 0.2955 0.0
Mg40 Mg 0.23608 0.39815 0.29337 0.0
C41 C 0.30197 0.47659 0.24053 0.0
C42 C 0.33949 0.23407 0.30141 0.0
O43 O 0.32594 0.0736 0.15633 0.0
O44 O 0.36322 0.25517 0.1644 0.0
O45 O 0.37776 -0.00955 0.22002 0.0
O46 O 0.41658 0.16886 0.22799 0.0
O47 O 0.34094 0.45175 0.22496 0.0
O48 O 0.27174 0.39728 0.24923 0.0
C49 C 0.17996 0.13576 0.19807 0.0
O50 O 0.18725 0.20407 0.22089 0.0
O51 O 0.21419 0.06419 0.18761 0.0
O52 O 0.20171 0.39103 0.33707 0.0
O53 O 0.15577 0.22247 0.34079 0.0
O54 O 0.15357 0.43812 0.27488 0.0
C55 C 0.17341 0.32332 0.35134 0.0
O56 O 0.11071 0.2622 0.27239 0.0
O57 O 0.18492 -0.02421 0.27737 0.0
C58 C 0.11339 0.37454 0.2685 0.0
O59 O 0.25233 0.00705 0.24811 0.0
O60 O 0.3321 0.18746 0.27604 0.0
O61 O 0.31178 0.32136 0.31172 0.0
C62 C 0.84955 0.6852 0.14964 0.0
C63 C 0.92124 0.5745 0.23162 0.0
C64 C 0.73033 0.45884 0.26522 0.0
Mg65 Mg 0.86455 0.78888 0.21101 0.0
O66 O 0.80153 0.70961 0.21395 0.0
Mg67 Mg 0.79818 0.53564 0.20535 0.0
Mg68 Mg 0.76219 0.72461 0.24993 0.0
O69 O 0.72356 0.7481 0.28668 0.0
Mg70 Mg 0.66593 0.67052 0.29905 0.0
Mg71 Mg 0.73276 0.92354 0.29273 0.0
C72 C 0.80329 -0.0069 0.24072 0.0
C73 C 0.83694 0.76908 0.30494 0.0
O74 O 0.8268 0.592 0.15905 0.0
O75 O 0.86965 0.76682 0.16632 0.0
O76 O 0.88281 0.51001 0.22281 0.0
O77 O 0.92104 0.68841 0.23137 0.0
O78 O 0.84369 0.96535 0.22659 0.0
O79 O 0.77083 0.91725 0.24876 0.0
C80 C 0.68376 0.64306 0.1984 0.0
O81 O 0.69036 0.71832 0.22004 0.0
O82 O 0.71821 0.56798 0.19007 0.0
O83 O 0.69777 0.92183 0.33681 0.0
O84 O 0.65987 0.74549 0.34386 0.0
O85 O 0.64943 0.94614 0.27318 0.0
C86 C 0.67351 0.85205 0.35269 0.0
O87 O 0.6105 0.76546 0.275 0.0
O88 O 0.69604 0.49214 0.28391 0.0
C89 C 0.61059 0.87568 0.26855 0.0
O90 O 0.75707 0.53107 0.25107 0.0
O91 O 0.831 0.71617 0.28004 0.0
O92 O 0.80955 0.86063 0.31304 0.0
C93 C 0.10462 0.63609 0.60026 0.0
C94 C 0.14277 0.73141 0.51645 0.0
C95 C 0.95692 0.81942 0.4965 0.0
Mg96 Mg 0.10339 0.49554 0.54076 0.0
O97 O 0.03738 0.55543 0.53944 0.0
Mg98 Mg 0.0276 0.73121 0.54828 0.0
Mg99 Mg 0.99458 0.5427 0.50311 0.0
O100 O 0.9539 0.53876 0.46721 0.0
Mg101 Mg 0.89597 0.63207 0.46093 0.0
Mg102 Mg 0.9548 0.36761 0.45602 0.0
C103 C 0.03805 0.28208 0.50797 0.0
C104 C 0.06848 0.47001 0.44928 0.0
O105 O 0.07398 0.71289 0.58994 0.0
O106 O 0.11871 0.53989 0.58606 0.0
O107 O 0.10194 0.78449 0.52538 0.0
O108 O 0.14938 0.61847 0.51828 0.0
O109 O 0.07836 0.32054 0.52181 0.0
O110 O 1.00022 0.34845 0.5009 0.0
C111 C 0.92648 0.56673 0.56001 0.0
O112 O 0.92832 0.52661 0.53378 0.0
O113 O 0.95691 0.65117 0.56933 0.0
O114 O 0.92226 0.42285 0.40994 0.0
O115 O 0.89644 0.61547 0.41613 0.0
O116 O 0.87112 0.35265 0.47465 0.0
C117 C 0.90739 0.52343 0.39998 0.0
O118 O 0.83496 0.53621 0.47762 0.0
O119 O 0.91946 0.80202 0.47903 0.0
C120 C 0.83337 0.42375 0.4809 0.0
O121 O 0.98397 0.73548 0.50598 0.0
O122 O 0.06384 0.54053 0.472 0.0
O123 O 0.03294 0.39935 0.44002 0.0
C124 C 0.41114 0.78145 0.66025 0.0
C125 C 0.46638 0.57483 0.73365 0.0
C126 C 0.26023 0.43558 0.7439 0.0
Mg127 Mg 0.41234 0.80961 0.72693 0.0
O128 O 0.34975 0.72952 0.72086 0.0
Mg129 Mg 0.34812 0.57299 0.69971 0.0
Mg130 Mg 0.30506 0.70434 0.75363 0.0
O131 O 0.25986 0.68942 0.78833 0.0
Mg132 Mg 0.19592 0.62057 0.78731 0.0
Mg133 Mg 0.26643 0.85855 0.80386 0.0
C134 C 0.34411 -0.01479 0.76075 0.0
C135 C 0.36543 0.68308 0.81321 0.0
O136 O 0.38642 0.68122 0.66155 0.0
O137 O 0.42471 0.83993 0.68332 0.0
O138 O 0.42993 0.52246 0.71895 0.0
O139 O 0.46541 0.68583 0.74133 0.0
O140 O 0.39013 0.96663 0.75253 0.0
O141 O 0.31293 0.89892 0.76419 0.0
C142 C 0.23482 0.68956 0.69596 0.0
O143 O 0.23819 0.73286 0.72204 0.0
O144 O 0.2707 0.62855 0.68368 0.0
O145 O 0.22045 0.81485 0.84258 0.0
O146 O 0.17453 0.64714 0.83325 0.0
O147 O 0.18973 0.91486 0.78112 0.0
C148 C 0.18842 0.73674 0.85016 0.0
O149 O 0.15161 0.74251 0.76535 0.0
O150 O 0.22294 0.46657 0.76075 0.0
C151 C 0.15341 0.85651 0.76773 0.0
O152 O 0.29845 0.50701 0.73998 0.0
O153 O 0.36898 0.66406 0.78582 0.0
O154 O 0.33591 0.76525 0.82428 0.0
C155 C 0.91205 0.27798 0.658 0.0
C156 C 0.96659 0.06549 0.72985 0.0
C157 C 0.76202 0.92678 0.73884 0.0
Mg158 Mg 0.91503 0.30185 0.72458 0.0
O159 O 0.85227 0.22304 0.71845 0.0
Mg160 Mg 0.84869 0.06852 0.6964 0.0
Mg161 Mg 0.8078 0.19455 0.75084 0.0
O162 O 0.76049 0.17728 0.78388 0.0
Mg163 Mg 0.69557 0.11761 0.77807 0.0
Mg164 Mg 0.76834 0.33987 0.8025 0.0
C165 C 0.84825 0.47527 0.76009 0.0
C166 C 0.86697 0.15128 0.80911 0.0
O167 O 0.8857 0.1801 0.65904 0.0
O168 O 0.92798 0.33257 0.68107 0.0
O169 O 0.93023 0.01626 0.71454 0.0
O170 O 0.96631 0.17529 0.7386 0.0
O171 O 0.89368 0.45796 0.75075 0.0
O172 O 0.81813 0.38748 0.76425 0.0
C173 C 0.73674 0.18942 0.69413 0.0
O174 O 0.74188 0.23244 0.72007 0.0
O175 O 0.77115 0.12583 0.68128 0.0
O176 O 0.7137 0.28673 0.83756 0.0
O177 O 0.6725 0.1173 0.82276 0.0
O178 O 0.69589 0.41786 0.77975 0.0
C179 C 0.6813 0.20344 0.84159 0.0
O180 O 0.65358 0.25852 0.75975 0.0
O181 O 0.72154 0.96121 0.75246 0.0
C182 C 0.65833 0.37136 0.76499 0.0
O183 O 0.80095 -0.00265 0.73651 0.0
O184 O 0.8709 0.14333 0.78167 0.0
O185 O 0.83482 0.22426 0.82173 0.0
C186 C 0.60238 0.16039 0.60126 0.0
C187 C 0.64103 0.23211 0.51617 0.0
C188 C 0.45542 0.32981 0.49666 0.0
Mg189 Mg 0.60065 0.00711 0.54291 0.0
O190 O 0.53512 0.06885 0.54154 0.0
Mg191 Mg 0.52573 0.24531 0.54918 0.0
Mg192 Mg 0.49341 0.05451 0.50499 0.0
O193 O 0.45348 0.04767 0.46875 0.0
Mg194 Mg 0.39546 0.13908 0.46142 0.0
Mg195 Mg 0.45606 0.87602 0.45817 0.0
C196 C 0.53604 0.79239 0.51172 0.0
C197 C 0.56884 -0.01347 0.45156 0.0
O198 O 0.56944 0.23146 0.59103 0.0
O199 O 0.61817 0.065 0.5873 0.0
O200 O 0.60306 0.29208 0.52701 0.0
O201 O 0.64479 0.11841 0.51705 0.0
O202 O 0.5757 0.82941 0.52629 0.0
O203 O 0.49997 0.86064 0.50328 0.0
C204 C 0.42519 0.0787 0.56205 0.0
O205 O 0.42712 0.03607 0.53598 0.0
O206 O 0.45445 0.16696 0.57043 0.0
O207 O 0.42463 0.92638 0.41184 0.0
O208 O 0.39544 0.11672 0.41661 0.0
O209 O 0.372 0.85998 0.4762 0.0
C210 C 0.40776 0.02365 0.40115 0.0
O211 O 0.33537 0.0432 0.47858 0.0
O212 O 0.41852 0.31071 0.47886 0.0
C213 C 0.33401 0.93093 0.48212 0.0
O214 O 0.48231 0.24701 0.50683 0.0
O215 O 0.56301 0.05667 0.4742 0.0
O216 O 0.5346 0.91182 0.44247 0.0
C217 C 0.57844 0.50097 0.0987 0.0
C218 C 0.6397 0.53228 0.01639 0.0
C219 C 0.43772 0.6527 0.99149 0.0
Mg220 Mg 0.5827 0.32491 0.0457 0.0
O221 O 0.52968 0.40673 0.02879 0.0
Mg222 Mg 0.51814 0.57806 0.03836 0.0
Mg223 Mg 0.48159 0.38181 0.99515 0.0
O224 O 0.43257 0.36789 0.96358 0.0
Mg225 Mg 0.36993 0.45088 0.96697 0.0
Mg226 Mg 0.43279 0.19442 0.9548 0.0
C227 C 0.51479 0.11617 0.01126 0.0
C228 C 0.54133 0.29786 0.93566 0.0
O229 O 0.5588 0.57461 0.0817 0.0
O230 O 0.58579 0.39025 0.09101 0.0
O231 O 0.59851 0.59707 0.01634 0.0
O232 O 0.64114 0.42909 0.0272 0.0
O233 O 0.55144 0.15062 0.02867 0.0
O234 O 0.48663 0.18718 0.99706 0.0
C235 C 0.41641 0.422 0.05376 0.0
O236 O 0.42041 0.37041 0.02882 0.0
O237 O 0.44504 0.51173 0.06165 0.0
O238 O 0.39487 0.26691 0.91165 0.0
O239 O 0.35476 0.44246 0.9233 0.0
O240 O 0.35317 0.17266 0.97704 0.0
C241 C 0.37302 0.36615 0.90482 0.0
O242 O 0.31765 0.35061 0.98946 0.0
O243 O 0.39327 0.62518 0.98182 0.0
C244 C 0.31708 0.23668 0.98848 0.0
O245 O 0.47299 0.57673 0.99567 0.0
O246 O 0.54248 0.37509 0.95742 0.0
O247 O 0.50699 0.21716 0.93352 0.0
C248 C 0.11422 0.15014 0.13017 0.0
C249 C 0.08393 0.04385 0.13131 0.0
C250 C 0.09755 0.04361 0.18348 0.0
C251 C 0.1323 0.13976 0.18131 0.0
N252 N 0.16009 0.31063 0.15689 0.0
N253 N 0.03697 0.90538 0.15916 0.0
C254 C 0.135 0.20302 0.15606 0.0
C255 C 0.07208 -0.00411 0.15815 0.0
N256 N 0.12651 0.19502 0.10424 0.0
N257 N 0.09117 -0.00379 0.20971 0.0
H258 H 0.01797 0.86973 0.14079 0.0
H259 H 0.02477 0.86892 0.17807 0.0
H260 H 0.10851 0.03512 0.2283 0.0
H261 H 0.06972 0.91987 0.21318 0.0
H262 H 0.1525 0.26441 0.10196 0.0
H263 H 0.11389 0.15791 0.08442 0.0
H264 H 0.1603 0.36801 0.13994 0.0
H265 H 0.17693 0.34701 0.17587 0.0
C266 C 0.86953 0.70182 0.06899 0.0
C267 C 0.86439 0.82916 0.06755 0.0
C268 C 0.82292 0.83512 0.1146 0.0
C269 C 0.84331 0.7192 0.11931 0.0
N270 N 0.88131 0.53614 0.1003 0.0
N271 N 0.82507 0.01162 0.08604 0.0
C272 C 0.86424 0.64956 0.09612 0.0
C273 C 0.83669 0.89367 0.08933 0.0
N274 N 0.87822 0.63065 0.0447 0.0
N275 N 0.79091 0.88864 0.13457 0.0
H276 H 0.83122 0.0523 0.06662 0.0
H277 H 0.81042 0.06899 0.10238 0.0
H278 H 0.77982 0.84601 0.15299 0.0
H279 H 0.77187 -0.03071 0.13178 0.0
H280 H 0.87879 0.5372 0.0444 0.0
H281 H 0.87693 0.66275 0.02417 0.0
H282 H 0.90174 0.4856 0.08492 0.0
H283 H 0.87713 0.49465 0.11972 0.0
C284 C 0.10938 0.53792 0.40615 0.0
C285 C 0.11372 0.47132 0.43083 0.0
C286 C 0.16778 0.32218 0.40537 0.0
C287 C 0.155 0.37592 0.37922 0.0
N288 N 0.11583 0.53935 0.35428 0.0
N289 N 0.16117 0.33287 0.45788 0.0
C290 C 0.12755 0.48709 0.37953 0.0
C291 C 0.14791 0.3737 0.43167 0.0
N292 N 0.08638 0.64809 0.40851 0.0
N293 N 0.19772 0.22144 0.40483 0.0
H294 H 0.14715 0.37425 0.47696 0.0
H295 H 0.1876 0.26482 0.46098 0.0
H296 H 0.21424 0.18476 0.38596 0.0
H297 H 0.2055 0.17235 0.42278 0.0
H298 H 0.08452 0.70774 0.39208 0.0
H299 H 0.07297 0.68397 0.42828 0.0
H300 H 0.09428 0.61718 0.35294 0.0
H301 H 0.12509 0.5022 0.33395 0.0
C302 C 0.82549 0.61973 0.34309 0.0
C303 C 0.8592 0.69358 0.3276 0.0
C304 C 0.93179 0.60965 0.35367 0.0
C305 C 0.89752 0.53835 0.36903 0.0
N306 N 0.81601 0.44365 0.37141 0.0
N307 N 0.94545 0.73363 0.31285 0.0
C308 C 0.84589 0.53133 0.36078 0.0
C309 C 0.91285 0.67977 0.331 0.0
N310 N 0.77385 0.63669 0.34192 0.0
N311 N 0.98192 0.61532 0.36201 0.0
H312 H 0.93251 0.78838 0.29677 0.0
H313 H 0.98472 0.71701 0.31249 0.0
H314 H 0.99672 0.55994 0.3775 0.0
H315 H 0.00753 0.67765 0.35447 0.0
H316 H 0.74759 0.58864 0.35347 0.0
H317 H 0.75735 0.70763 0.33185 0.0
H318 H 0.77841 0.42655 0.36479 0.0
H319 H 0.83126 0.37949 0.38464 0.0
C320 C 0.11957 0.59788 0.65231 0.0
C321 C 0.1294 0.66756 0.62831 0.0
C322 C 0.19124 0.78958 0.6569 0.0
C323 C 0.18838 0.7064 0.6786 0.0
N324 N 0.14759 0.54003 0.69971 0.0
N325 N 0.1761 0.82684 0.60677 0.0
C326 C 0.15097 0.61443 0.67738 0.0
C327 C 0.16473 0.76481 0.63052 0.0
N328 N 0.08051 0.51619 0.65092 0.0
N329 N 0.22085 0.88993 0.66144 0.0
H330 H 0.15893 0.80879 0.58669 0.0
H331 H 0.20546 0.88974 0.60622 0.0
H332 H 0.24093 0.90769 0.68074 0.0
H333 H 0.22159 0.96015 0.64755 0.0
H334 H 0.0692 0.46689 0.66815 0.0
H335 H 0.05701 0.50285 0.63274 0.0
H336 H 0.12562 0.46216 0.69927 0.0
H337 H 0.16803 0.5566 0.71889 0.0
C338 C 0.92122 0.47364 0.63284 0.0
C339 C 0.91554 0.34559 0.63055 0.0
C340 C 0.89873 0.36344 0.57835 0.0
C341 C 0.90206 0.49156 0.58223 0.0
N342 N 0.88944 0.6602 0.61552 0.0
N343 N 0.89665 0.16942 0.59959 0.0
C344 C 0.90242 0.54252 0.6105 0.0
C345 C 0.90293 0.29087 0.60289 0.0
N346 N 0.94928 0.53065 0.65443 0.0
N347 N 0.89336 0.30995 0.55136 0.0
H348 H 0.9116 0.11029 0.6141 0.0
H349 H 0.87756 0.12735 0.58204 0.0
H350 H 0.88098 0.35584 0.53374 0.0
H351 H 0.8999 0.21901 0.54649 0.0
H352 H 0.95487 0.62344 0.65566 0.0
H353 H 0.97488 0.48616 0.66742 0.0
H354 H 0.88757 0.70056 0.63627 0.0
H355 H 0.87569 0.71181 0.59898 0.0
C356 C 0.17013 0.68528 0.90129 0.0
C357 C 0.16298 0.7628 0.8783 0.0
C358 C 0.10974 0.89771 0.90939 0.0
C359 C 0.11268 0.81353 0.93099 0.0
N360 N 0.15694 0.65259 0.95222 0.0
N361 N 0.13367 0.95416 0.86168 0.0
C362 C 0.14688 0.7154 0.92838 0.0
C363 C 0.13584 0.87367 0.88292 0.0
N364 N 0.19862 0.58294 0.89708 0.0
N365 N 0.07869 -0.00406 0.91362 0.0
H366 H 0.14603 0.93522 0.84067 0.0
H367 H 0.12061 0.04199 0.86477 0.0
H368 H 0.06007 0.01553 0.93308 0.0
H369 H 0.07056 0.05777 0.89825 0.0
H370 H 0.20166 0.51688 0.912 0.0
H371 H 0.21807 0.56139 0.87796 0.0
H372 H 0.18344 0.58307 0.95295 0.0
H373 H 0.14116 0.67837 0.97223 0.0
C374 C 0.84922 0.94798 0.82803 0.0
C375 C 0.88437 0.04425 0.82475 0.0
C376 C 0.94724 0.93687 0.85327 0.0
C377 C 0.90783 0.86035 0.86227 0.0
N378 N 0.82303 0.78248 0.85658 0.0
N379 N 0.96996 0.1213 0.83039 0.0
C380 C 0.85975 0.86065 0.84842 0.0
C381 C 0.93485 0.03485 0.83578 0.0
N382 N 0.80629 0.93864 0.8112 0.0
N383 N 0.99597 0.91728 0.86264 0.0
H384 H 0.96177 0.19141 0.81705 0.0
H385 H 0.00634 0.12609 0.83968 0.0
H386 H 0.00462 0.84607 0.87559 0.0
H387 H 0.02767 0.96334 0.85557 0.0
H388 H 0.78031 0.86813 0.81158 0.0
H389 H 0.79984 -0.00554 0.79444 0.0
H390 H 0.78451 0.78882 0.85092 0.0
H391 H 0.83148 0.71405 0.87039 0.0
C392 C 0.6508 0.12612 0.67713 0.0
C393 C 0.69029 0.21264 0.67758 0.0
C394 C 0.65502 0.2965 0.63438 0.0
C395 C 0.62439 0.19149 0.62999 0.0
N396 N 0.58827 0.01199 0.64822 0.0
N397 N 0.73046 0.38365 0.65788 0.0
C398 C 0.62021 0.1087 0.65194 0.0
C399 C 0.69197 0.3004 0.65684 0.0
N400 N 0.64342 0.06028 0.70066 0.0
N401 N 0.64932 0.39169 0.61729 0.0
H402 H 0.75636 0.39265 0.67512 0.0
H403 H 0.73803 0.4397 0.64119 0.0
H404 H 0.62275 0.39414 0.60055 0.0
H405 H 0.66763 0.47378 0.62151 0.0
H406 H 0.61311 0.00082 0.70267 0.0
H407 H 0.66509 0.0753 0.71943 0.0
H408 H 0.58794 0.9408 0.66184 0.0
H409 H 0.56298 0.00114 0.63076 0.0
C410 C 0.40961 0.04883 0.6138 0.0
C411 C 0.40352 0.00227 0.5852 0.0
C412 C 0.39859 0.79912 0.60498 0.0
C413 C 0.4159 0.8476 0.63246 0.0
N414 N 0.46155 0.01901 0.65525 0.0
N415 N 0.38699 0.82452 0.55385 0.0
C416 C 0.42818 -0.02726 0.63478 0.0
C417 C 0.39569 0.87496 0.58086 0.0
N418 N 0.40097 0.16755 0.62061 0.0
N419 N 0.3862 0.68043 0.60131 0.0
H420 H 0.37521 0.87347 0.53663 0.0
H421 H 0.39063 0.73293 0.54857 0.0
H422 H 0.39948 0.61591 0.61492 0.0
H423 H 0.36395 0.64565 0.58411 0.0
H424 H 0.40394 0.20414 0.64172 0.0
H425 H 0.38558 0.22432 0.60558 0.0
H426 H 0.47215 0.10941 0.65645 0.0
H427 H 0.48534 0.96496 0.6672 0.0
C428 C 0.6297 0.31856 0.91378 0.0
C429 C 0.57657 0.29987 0.91028 0.0
C430 C 0.59186 0.23525 0.85935 0.0
C431 C 0.64499 0.22617 0.86555 0.0
N432 N 0.71385 0.24722 0.90038 0.0
N433 N 0.5061 0.2527 0.87708 0.0
C434 C 0.66371 0.26463 0.89323 0.0
C435 C 0.55748 0.2613 0.88227 0.0
N436 N 0.64808 0.3959 0.93497 0.0
N437 N 0.57412 0.2286 0.83145 0.0
H438 H 0.47934 0.29344 0.89069 0.0
H439 H 0.49018 0.20386 0.85946 0.0
H440 H 0.59737 0.21776 0.81342 0.0
H441 H 0.5366 0.24875 0.82565 0.0
H442 H 0.68567 0.42673 0.93443 0.0
H443 H 0.62479 0.44369 0.94959 0.0
H444 H 0.72748 0.26309 0.92139 0.0
H445 H 0.7399 0.20501 0.88622 0.0
C446 C 0.34773 0.39815 0.85401 0.0
C447 C 0.38305 0.41797 0.87666 0.0
C448 C 0.41585 0.59879 0.85418 0.0
C449 C 0.3787 0.5821 0.83206 0.0
N450 N 0.317 0.44999 0.80748 0.0
N451 N 0.4567 0.52419 0.89685 0.0
C452 C 0.34756 0.4761 0.83079 0.0
C453 C 0.41953 0.51342 0.87597 0.0
N454 N 0.31159 0.31025 0.85585 0.0
N455 N 0.44596 0.69918 0.85494 0.0
H456 H 0.4583 0.46918 0.91428 0.0
H457 H 0.48787 0.58192 0.89611 0.0
H458 H 0.4456 0.75908 0.83842 0.0
H459 H 0.47002 0.72574 0.87207 0.0
H460 H 0.27874 0.30435 0.84302 0.0
H461 H 0.31291 0.2472 0.87167 0.0
H462 H 0.2982 0.36849 0.80372 0.0
H463 H 0.3135 0.50632 0.79074 0.0
C464 C 0.63378 0.64834 0.12675 0.0
C465 C 0.59806 0.55201 0.12676 0.0
C466 C 0.6018 0.55854 0.1796 0.0
C467 C 0.63928 0.64962 0.17894 0.0
N468 N 0.67453 0.81292 0.15439 0.0
N469 N 0.5381 0.4364 0.15318 0.0
C470 C 0.6487 0.70652 0.15327 0.0
C471 C 0.57867 0.5136 0.15327 0.0
N472 N 0.65688 0.67748 0.10175 0.0
N473 N 0.58999 0.51349 0.20545 0.0
H474 H 0.52019 0.40395 0.1342 0.0
H475 H 0.51988 0.41126 0.17177 0.0
H476 H 0.60466 0.55221 0.22478 0.0
H477 H 0.5672 0.43808 0.20769 0.0
H478 H 0.68655 0.7397 0.10109 0.0
H479 H 0.65056 0.63 0.0821 0.0
H480 H 0.67896 0.86455 0.13653 0.0
H481 H 0.68667 0.85426 0.17398 0.0
C482 C 0.40892 0.18173 0.10902 0.0
C483 C 0.35708 0.18793 0.11678 0.0
C484 C 0.34117 0.33443 0.07985 0.0
C485 C 0.3948 0.34523 0.07608 0.0
N486 N 0.48038 0.27574 0.08663 0.0
N487 N 0.27223 0.26363 0.1096 0.0
C488 C 0.42881 0.26684 0.09038 0.0
C489 C 0.32245 0.26047 0.10167 0.0
N490 N 0.43923 0.0971 0.12096 0.0
N491 N 0.30838 0.39459 0.06268 0.0
H492 H 0.25774 0.20606 0.12458 0.0
H493 H 0.24573 0.32473 0.10214 0.0
H494 H 0.3212 0.45305 0.04747 0.0
H495 H 0.26894 0.38092 0.06222 0.0
H496 H 0.47784 0.08377 0.11659 0.0
H497 H 0.42402 0.03322 0.13416 0.0
H498 H 0.50767 0.23062 0.09836 0.0
H499 H 0.49657 0.33426 0.07275 0.0
C500 C 0.65044 0.90214 0.4334 0.0
C501 C 0.61353 -0.00548 0.43283 0.0
C502 C 0.62365 0.00829 0.38113 0.0
C503 C 0.65592 0.90504 0.38079 0.0
N504 N 0.71215 0.77686 0.40682 0.0
N505 N 0.58083 0.16559 0.4099 0.0
C506 C 0.6734 0.85919 0.4071 0.0
C507 C 0.60621 0.05856 0.40788 0.0
N508 N 0.66176 0.8542 0.45912 0.0
N509 N 0.60632 0.05277 0.35592 0.0
H510 H 0.56438 0.19844 0.42914 0.0
H511 H 0.58014 0.22556 0.39346 0.0
H512 H 0.61633 0.0174 0.33554 0.0
H513 H 0.5788 0.12002 0.35501 0.0
H514 H 0.6847 0.77892 0.46139 0.0
H515 H 0.64662 0.89063 0.47843 0.0
H516 H 0.72869 0.74382 0.42524 0.0
H517 H 0.73038 0.7476 0.38788 0.0
C518 C 0.35969 -0.00695 0.35556 0.0
C519 C 0.40387 0.03732 0.36974 0.0
C520 C 0.41542 0.18389 0.33244 0.0
C521 C 0.36557 0.15684 0.32216 0.0
N522 N 0.2896 0.03315 0.32377 0.0
N523 N 0.47699 0.16759 0.37142 0.0
C524 C 0.33805 0.0588 0.3332 0.0
C525 C 0.43339 0.1288 0.35759 0.0
N526 N 0.33783 0.88951 0.36398 0.0
N527 N 0.44509 0.26212 0.3183 0.0
H528 H 0.49158 0.12379 0.38899 0.0
H529 H 0.49711 0.24397 0.36626 0.0
H530 H 0.4321 0.30343 0.29995 0.0
H531 H 0.48351 0.27834 0.32324 0.0
H532 H 0.3076 0.84658 0.35293 0.0
H533 H 0.35341 0.84049 0.38045 0.0
H534 H 0.2641 -0.01701 0.33532 0.0
H535 H 0.27406 0.06759 0.30538 0.0
C536 C 0.9869 0.41397 0.02962 0.0
C537 C 0.01154 0.47382 0.00744 0.0
C538 C 0.9919 0.31001 0.97253 0.0
C539 C 0.96053 0.26051 0.99368 0.0
N540 N 0.9243 0.26432 0.04113 0.0
N541 N 0.04406 0.47722 0.95933 0.0
C542 C 0.95719 0.31177 0.02198 0.0
C543 C 0.01611 0.42087 0.97929 0.0
N544 N 0.99229 0.45353 0.05784 0.0
N545 N 1.00031 0.24828 0.94669 0.0
H546 H 0.06739 0.55024 0.96522 0.0
H547 H 0.04393 0.4533 0.93736 0.0
H548 H 0.98216 0.16758 0.94052 0.0
H549 H 0.02735 0.27295 0.93178 0.0
H550 H 0.98191 0.40194 0.0749 0.0
H551 H 0.01181 0.53144 0.06458 0.0
H552 H 0.91774 0.30159 0.06177 0.0
H553 H 0.90026 0.19195 0.03548 0.0
C554 C 0.28329 0.65077 0.27269 0.0
C555 C 0.28455 0.59914 0.24437 0.0
C556 C 0.22977 0.75726 0.22719 0.0
C557 C 0.22872 0.80837 0.25564 0.0
N558 N 0.23571 0.77666 0.30658 0.0
N559 N 0.25166 0.58624 0.1954 0.0
C560 C 0.24966 0.74702 0.27885 0.0
C561 C 0.25587 0.64769 0.22165 0.0
N562 N 0.3147 0.60845 0.29353 0.0
N563 N 0.20484 0.81334 0.2058 0.0
H564 H 0.27135 0.5067 0.19018 0.0
H565 H 0.22659 0.61015 0.17914 0.0
H566 H 0.17965 0.88388 0.21056 0.0
H567 H 0.20911 0.79108 0.18389 0.0
H568 H 0.31853 0.65034 0.31405 0.0
H569 H 0.34063 0.53849 0.28926 0.0
H570 H 0.24625 0.7258 0.32385 0.0
H571 H 0.20813 0.84134 0.31187 0.0
C572 C 0.7516 0.16295 0.22744 0.0
C573 C 0.78966 0.1169 0.24571 0.0
C574 C 0.78382 0.29036 0.27901 0.0
C575 C 0.74384 0.33362 0.26154 0.0
N576 N 0.68329 0.30748 0.22249 0.0
N577 N 0.83979 0.12488 0.28952 0.0
C578 C 0.7257 0.26859 0.23669 0.0
C579 C 0.80539 0.17732 0.27169 0.0
N580 N 0.74096 0.10584 0.20123 0.0
N581 N 0.80199 0.35958 0.30197 0.0
H582 H 0.85865 0.04468 0.28375 0.0
H583 H 0.84813 0.1575 0.31046 0.0
H584 H 0.78448 0.43966 0.30887 0.0
H585 H 0.83519 0.34048 0.31338 0.0
H586 H 0.71653 0.14012 0.18588 0.0
H587 H 0.75986 0.02783 0.19377 0.0
H588 H 0.66531 0.25921 0.20547 0.0
H589 H 0.66332 0.38427 0.2296 0.0
C590 C 0.00776 -0.02235 0.47664 0.0
C591 C 0.97874 0.93714 0.49991 0.0
C592 C 0.00617 0.10587 0.53127 0.0
C593 C 0.02849 0.15479 0.50674 0.0
N594 N 0.05455 0.14078 0.4572 0.0
N595 N 0.95203 0.95021 0.54945 0.0
C596 C 0.03092 0.09105 0.47979 0.0
C597 C 0.97888 -0.003 0.52746 0.0
N598 N 0.01508 0.90531 0.4522 0.0
N599 N 0.01005 0.16567 0.55775 0.0
H600 H 0.92988 0.87255 0.54667 0.0
H601 H 0.95019 -0.01182 0.57031 0.0
H602 H 0.02876 0.24776 0.56115 0.0
H603 H 0.99729 0.13243 0.57689 0.0
H604 H 0.04068 0.92464 0.43603 0.0
H605 H 0.99846 0.82071 0.44872 0.0
H606 H 0.05153 0.10789 0.43585 0.0
H607 H 0.07648 0.21821 0.46008 0.0
C608 C 0.27935 0.14411 0.77056 0.0
C609 C 0.3201 0.09917 0.7534 0.0
C610 C 0.30589 0.2594 0.72011 0.0
C611 C 0.26691 0.30454 0.7384 0.0
N612 N 0.19683 0.23861 0.76748 0.0
N613 N 0.35244 0.0819 0.70418 0.0
C614 C 0.24664 0.22934 0.75908 0.0
C615 C 0.32826 0.1472 0.72577 0.0
N616 N 0.27269 0.10898 0.79794 0.0
N617 N 0.3196 0.32093 0.69683 0.0
H618 H 0.36224 -0.00787 0.70568 0.0
H619 H 0.35585 0.11088 0.68333 0.0
H620 H 0.29777 0.39305 0.69021 0.0
H621 H 0.35213 0.30051 0.68466 0.0
H622 H 0.24356 0.1435 0.81122 0.0
H623 H 0.29982 0.05677 0.80814 0.0
H624 H 0.18071 0.18065 0.78181 0.0
H625 H 0.1707 0.29248 0.75695 0.0
C626 C 0.82956 0.63203 0.72431 0.0
C627 C 0.82317 0.58805 0.75247 0.0
C628 C 0.75228 0.72603 0.75942 0.0
C629 C 0.77084 0.79514 0.73685 0.0
N630 N 0.82299 0.80347 0.69467 0.0
N631 N 0.77925 0.60418 0.79805 0.0
C632 C 0.80866 0.74529 0.71838 0.0
C633 C 0.78474 0.63851 0.7705 0.0
N634 N 0.85051 0.56178 0.70246 0.0
N635 N 0.70335 0.73871 0.76921 0.0
H636 H 0.80479 0.54546 0.80744 0.0
H637 H 0.75249 0.64364 0.81217 0.0
H638 H 0.67581 0.78767 0.75844 0.0
H639 H 0.68837 0.68499 0.78481 0.0
H640 H 0.85189 0.58777 0.68126 0.0
H641 H 0.85901 0.47144 0.70438 0.0
H642 H 0.85515 0.77881 0.68259 0.0
H643 H 0.80275 0.87751 0.68775 0.0
C644 C 0.50042 0.61607 0.53322 0.0
C645 C 0.52567 0.66557 0.5097 0.0
C646 C 0.50683 0.49081 0.47833 0.0
C647 C 0.47586 0.44876 0.50064 0.0
N648 N 0.44258 0.46264 0.54887 0.0
N649 N 0.55637 0.65447 0.46102 0.0
C650 C 0.47283 0.50831 0.52815 0.0
C651 C 0.5303 0.6036 0.48262 0.0
N652 N 0.50239 0.67352 0.56002 0.0
N653 N 0.5154 0.4206 0.4537 0.0
H654 H 0.57828 0.73165 0.4648 0.0
H655 H 0.55543 0.62285 0.43952 0.0
H656 H 0.49785 0.33765 0.44923 0.0
H657 H 0.5424 0.44033 0.43829 0.0
H658 H 0.48831 0.63793 0.57861 0.0
H659 H 0.52132 0.75486 0.56429 0.0
H660 H 0.43686 0.50329 0.56923 0.0
H661 H 0.42077 0.38481 0.54525 0.0
C662 C 0.44874 0.8301 0.02384 0.0
C663 C 0.45154 0.77672 0.99578 0.0
C664 C 0.50631 0.93502 0.97977 0.0
C665 C 0.50289 -0.01009 0.00775 0.0
N666 N 0.48175 -0.01904 0.05814 0.0
N667 N 0.47472 0.78003 0.94571 0.0
C668 C 0.4773 0.93502 0.03039 0.0
C669 C 0.47803 0.82962 0.97326 0.0
N670 N 0.41722 0.78232 0.04364 0.0
N671 N 0.53837 -0.01805 0.96012 0.0
H672 H 0.45282 0.70374 0.94038 0.0
H673 H 0.48988 0.81886 0.92778 0.0
H674 H 0.56144 0.0566 0.96528 0.0
H675 H 0.54563 0.94228 0.93977 0.0
H676 H 0.40934 0.82335 0.06378 0.0
H677 H 0.39498 0.706 0.03884 0.0
H678 H 0.46869 0.93697 0.07584 0.0
H679 H 0.50324 0.05696 0.0639 0.0
C680 C 0.26658 0.11718 0.02213 0.0
C681 C 0.26893 0.17948 0.99648 0.0
C682 C 0.17677 0.1493 0.98786 0.0
C683 C 0.17391 0.09318 0.01442 0.0
N684 N 0.21321 0.04177 0.05947 0.0
N685 N 0.22739 0.26258 0.95528 0.0
C686 C 0.21809 0.08177 0.03227 0.0
C687 C 0.22425 0.19812 0.97948 0.0
N688 N 0.31071 0.09133 0.03664 0.0
N689 N 0.13472 0.15096 0.9701 0.0
H690 H 0.26204 0.28955 0.94666 0.0
H691 H 0.19569 0.2939 0.94422 0.0
H692 H 0.09905 0.1181 0.97578 0.0
H693 H 0.13545 0.17833 0.94905 0.0
H694 H 0.31228 0.03457 0.0537 0.0
H695 H 0.34676 0.12006 0.03037 0.0
H696 H 0.24276 0.04366 0.07466 0.0
H697 H 0.17834 0.01583 0.06794 0.0
C698 C 0.76618 0.5576 0.97582 0.0
C699 C 0.78224 0.67463 0.98511 0.0
C700 C 0.70383 0.70112 0.01377 0.0
C701 C 0.68895 0.58085 0.0057 0.0
N702 N 0.71608 0.38412 0.98551 0.0
N703 N 0.77313 0.84294 0.01991 0.0
C704 C 0.72354 0.50539 0.98919 0.0
C705 C 0.75289 0.74254 0.00592 0.0
N706 N 0.78886 0.49881 0.95264 0.0
N707 N 0.67241 0.77606 0.02988 0.0
H708 H 0.80972 0.87481 0.01623 0.0
H709 H 0.75614 0.88728 0.0377 0.0
H710 H 0.64083 0.74812 0.04121 0.0
H711 H 0.67737 0.86896 0.03152 0.0
H712 H 0.77658 0.4158 0.94392 0.0
H713 H 0.81595 0.53796 0.93977 0.0
H714 H 0.74503 0.32566 0.9783 0.0
H715 H 0.68192 0.34031 0.98935 0.0
C716 C 0.06167 0.48187 0.23196 0.0
C717 C 0.06541 0.43303 0.25942 0.0
C718 C 0.97301 0.46283 0.26703 0.0
C719 C 0.96971 0.5172 0.24023 0.0
N720 N 0.01025 0.58763 0.1977 0.0
N721 N 0.02748 0.39398 0.30527 0.0
C722 C 0.01396 0.52966 0.22288 0.0
C723 C 0.02177 0.42788 0.27753 0.0
N724 N 0.10315 0.47776 0.21412 0.0
N725 N 0.92947 0.44433 0.28238 0.0
H726 H 0.06242 0.36722 0.31384 0.0
H727 H 0.99875 0.40124 0.32066 0.0
H728 H 0.89341 0.47392 0.27604 0.0
H729 H 0.92826 0.39307 0.30044 0.0
H730 H 0.10179 0.49909 0.1926 0.0
H731 H 0.13893 0.4462 0.22038 0.0
H732 H 0.0417 0.61422 0.18599 0.0
H733 H 0.97541 0.61414 0.18891 0.0
C734 C 0.25998 0.92981 0.51594 0.0
C735 C 0.28417 0.88235 0.49048 0.0
C736 C 0.20942 0.75701 0.47885 0.0
C737 C 0.1857 0.80118 0.50472 0.0
N738 N 0.18164 0.95918 0.54267 0.0
N739 N 0.27622 0.77855 0.44365 0.0
C740 C 0.20871 0.89688 0.52167 0.0
C741 C 0.25741 0.80332 0.47078 0.0
N742 N 0.28645 0.00421 0.53513 0.0
N743 N 0.1853 0.67128 0.46174 0.0
H744 H 0.31067 0.81293 0.43647 0.0
H745 H 0.25578 0.73251 0.42721 0.0
H746 H 0.14706 0.65038 0.46484 0.0
H747 H 0.20313 0.62077 0.44518 0.0
H748 H 0.27387 0.02682 0.55595 0.0
H749 H 0.32299 0.03651 0.53124 0.0
H750 H 0.19485 0.03789 0.55331 0.0
H751 H 0.1438 0.9418 0.54765 0.0
C752 C 0.76626 0.40373 0.51854 0.0
C753 C 0.78412 0.37525 0.49019 0.0
C754 C 0.70126 0.28441 0.47742 0.0
C755 C 0.68692 0.29556 0.5067 0.0
N756 N 0.70998 0.34591 0.55634 0.0
N757 N 0.76968 0.2828 0.44253 0.0
C758 C 0.72043 0.35033 0.52764 0.0
C759 C 0.75202 0.3132 0.46959 0.0
N760 N 0.79226 0.48328 0.53665 0.0
N761 N 0.6655 0.25127 0.45702 0.0
H762 H 0.80572 0.30757 0.4354 0.0
H763 H 0.7499 0.22612 0.42776 0.0
H764 H 0.62763 0.2352 0.46252 0.0
H765 H 0.6719 0.25314 0.43495 0.0
H766 H 0.77789 0.51562 0.55646 0.0
H767 H 0.82599 0.5252 0.5309 0.0
H768 H 0.73606 0.37262 0.57255 0.0
H769 H 0.67726 0.3051 0.56393 0.0
C770 C 0.01272 0.92277 0.75982 0.0
C771 C 0.01323 -0.0015 0.73643 0.0
C772 C 0.10704 -0.01351 0.73388 0.0
C773 C 0.10669 0.91803 0.75863 0.0
N774 N 0.0612 0.83294 0.79779 0.0
N775 N 0.05903 0.10909 0.70152 0.0
C776 C 0.05998 0.88926 0.77231 0.0
C777 C 0.05996 0.03198 0.72347 0.0
N778 N 0.96699 0.88376 0.77009 0.0
N779 N 0.15206 0.00422 0.71986 0.0
H780 H 0.02508 0.13669 0.69186 0.0
H781 H 0.0915 0.14943 0.69352 0.0
H782 H 0.18738 -0.02466 0.72756 0.0
H783 H 0.15448 0.04217 0.69994 0.0
H784 H 0.96361 0.81949 0.78539 0.0
H785 H 0.93168 0.90902 0.76167 0.0
H786 H 0.02905 0.81669 0.81003 0.0
H787 H 0.09515 0.80952 0.80803 0.0
C788 C 0.57569 0.46779 0.77884 0.0
C789 C 0.61357 0.44492 0.75757 0.0
C790 C 0.55282 0.49594 0.7196 0.0
C791 C 0.51397 0.51076 0.74076 0.0
N792 N 0.48542 0.49306 0.78942 0.0
N793 N 0.64338 0.4646 0.70951 0.0
C794 C 0.52471 0.4924 0.77014 0.0
C795 C 0.60348 0.46603 0.72834 0.0
N796 N 0.58901 0.46986 0.80738 0.0
N797 N 0.54084 0.50834 0.69119 0.0
H798 H 0.68091 0.44734 0.71604 0.0
H799 H 0.64054 0.49144 0.68846 0.0
H800 H 0.50429 0.53162 0.6842 0.0
H801 H 0.56582 0.48814 0.67427 0.0
H802 H 0.56453 0.49807 0.82399 0.0
H803 H 0.62617 0.45304 0.81447 0.0
H804 H 0.48949 0.46872 0.81065 0.0
H805 H 0.44742 0.50622 0.78324 0.0
C806 C 0.5569 0.9631 0.22959 0.0
C807 C 0.56135 0.92425 0.25807 0.0
C808 C 0.46852 0.94978 0.26498 0.0
C809 C 0.46478 -0.00245 0.23743 0.0
N810 N 0.50468 0.0576 0.19375 0.0
N811 N 0.52349 0.89698 0.3046 0.0
C812 C 0.50884 0.00642 0.2198 0.0
C813 C 0.51764 0.92148 0.2762 0.0
N814 N 0.5981 0.95422 0.2116 0.0
N815 N 0.42507 0.93104 0.28039 0.0
H816 H 0.5586 0.87497 0.31374 0.0
H817 H 0.49454 0.90811 0.3198 0.0
H818 H 0.3886 0.95391 0.27319 0.0
H819 H 0.42449 0.88455 0.29923 0.0
H820 H 0.59611 0.9674 0.18961 0.0
H821 H 0.63415 0.92603 0.21829 0.0
H822 H 0.53594 0.08133 0.18151 0.0
H823 H 0.46963 0.08163 0.18477 0.0
loop_
_geom_bond_atom_site_label_1
_geom_bond_atom_site_label_2
_geom_bond_distance
_geom_bond_site_symmetry_2
_ccdc_geom_bond_type
C0 O12 1.241 1_565 S
C0 O13 1.280 . S
C1 O14 1.277 . S
C1 O15 1.245 . S
C2 O26 1.241 1_554 S
C2 O28 1.301 1_655 S
Mg3 O4 1.926 . S
Mg3 O13 1.984 . S
Mg3 O15 1.988 1_565 S
Mg3 O16 2.061 . S
O4 Mg3 1.926 . S
O4 Mg5 1.986 1_565 S
O4 Mg6 1.916 1_565 S
Mg5 O4 1.986 1_545 S
Mg5 O12 2.042 . S
Mg5 O14 2.041 . S
Mg5 O20 2.038 1_455 S
Mg5 O28 2.238 . S
Mg6 O4 1.916 1_545 S
Mg6 O7 1.918 1_454 S
Mg6 O17 2.098 1_444 S
Mg6 O19 2.078 1_445 S
Mg6 O28 2.114 . S
Mg6 O29 2.080 1_554 S
O7 Mg6 1.918 1_656 S
O7 Mg8 1.926 . S
O7 Mg9 1.986 1_545 S
Mg8 O7 1.926 . S
Mg8 O22 1.984 . S
Mg8 O25 1.988 1_545 S
Mg8 O26 2.061 . S
Mg9 O7 1.986 1_565 S
Mg9 O17 2.238 . S
Mg9 O21 2.042 . S
Mg9 O23 2.041 . S
Mg9 O30 2.038 1_655 S
C10 O16 1.247 . S
C10 O17 1.289 1_454 S
C11 O29 1.245 1_565 S
C11 O30 1.274 . S
O12 C0 1.241 1_545 S
O12 Mg5 2.042 . S
O13 C0 1.280 . S
O13 Mg3 1.984 . S
O14 C1 1.277 . S
O14 Mg5 2.041 . S
O15 C1 1.245 . S
O15 Mg3 1.988 1_545 S
O16 Mg3 2.061 . S
O16 C10 1.247 . S
O17 Mg6 2.098 1_666 S
O17 Mg9 2.238 . S
O17 C10 1.289 1_656 S
C18 O19 1.245 1_545 S
C18 O20 1.274 . S
O19 Mg6 2.078 1_665 S
O19 C18 1.245 1_565 S
O20 Mg5 2.038 1_655 S
O20 C18 1.274 . S
O21 Mg9 2.042 . S
O21 C24 1.241 1_565 S
O22 Mg8 1.984 . S
O22 C24 1.280 . S
O23 Mg9 2.041 . S
O23 C27 1.277 . S
C24 O21 1.241 1_545 S
C24 O22 1.280 . S
O25 Mg8 1.988 1_565 S
O25 C27 1.245 . S
O26 C2 1.241 1_556 S
O26 Mg8 2.061 . S
C27 O23 1.277 . S
C27 O25 1.245 . S
O28 C2 1.301 1_455 S
O28 Mg5 2.238 . S
O28 Mg6 2.114 . S
O29 Mg6 2.080 1_556 S
O29 C11 1.245 1_545 S
O30 Mg9 2.038 1_455 S
O30 C11 1.274 . S
C31 O43 1.241 . S
C31 O44 1.280 . S
C32 O45 1.277 . S
C32 O46 1.245 . S
C33 O57 1.247 . S
C33 O59 1.289 1_565 S
Mg34 O35 1.926 . S
Mg34 O44 1.984 . S
Mg34 O46 1.988 . S
Mg34 O47 2.061 . S
O35 Mg34 1.926 . S
O35 Mg36 1.986 . S
O35 Mg37 1.917 . S
Mg36 O35 1.986 . S
Mg36 O43 2.042 . S
Mg36 O45 2.041 . S
Mg36 O51 2.038 . S
Mg36 O59 2.238 . S
Mg37 O35 1.917 . S
Mg37 O38 1.917 . S
Mg37 O48 2.106 . S
Mg37 O50 2.079 . S
Mg37 O59 2.106 . S
Mg37 O60 2.079 . S
O38 Mg37 1.917 . S
O38 Mg39 1.926 . S
O38 Mg40 1.986 . S
Mg39 O38 1.926 . S
Mg39 O53 1.984 . S
Mg39 O56 1.988 . S
Mg39 O57 2.061 1_545 S
Mg40 O38 1.986 . S
Mg40 O48 2.238 . S
Mg40 O52 2.042 . S
Mg40 O54 2.041 . S
Mg40 O61 2.038 . S
C41 O47 1.247 . S
C41 O48 1.289 . S
C42 O60 1.245 . S
C42 O61 1.274 . S
O43 C31 1.241 . S
O43 Mg36 2.042 . S
O44 C31 1.280 . S
O44 Mg34 1.984 . S
O45 C32 1.277 . S
O45 Mg36 2.041 . S
O46 C32 1.245 . S
O46 Mg34 1.988 . S
O47 Mg34 2.061 . S
O47 C41 1.247 . S
O48 Mg37 2.106 . S
O48 Mg40 2.238 . S
O48 C41 1.289 . S
C49 O50 1.245 . S
C49 O51 1.274 . S
O50 Mg37 2.079 . S
O50 C49 1.245 . S
O51 Mg36 2.038 . S
O51 C49 1.274 . S
O52 Mg40 2.042 . S
O52 C55 1.241 . S
O53 Mg39 1.984 . S
O53 C55 1.280 . S
O54 Mg40 2.041 . S
O54 C58 1.277 . S
C55 O52 1.241 . S
C55 O53 1.280 . S
O56 Mg39 1.988 . S
O56 C58 1.245 . S
O57 C33 1.247 . S
O57 Mg39 2.061 1_565 S
C58 O54 1.277 . S
C58 O56 1.245 . S
O59 C33 1.289 1_545 S
O59 Mg36 2.238 . S
O59 Mg37 2.106 . S
O60 Mg37 2.079 . S
O60 C42 1.245 . S
O61 Mg40 2.038 . S
O61 C42 1.274 . S
C62 O74 1.241 . S
C62 O75 1.280 . S
C63 O76 1.277 . S
C63 O77 1.245 . S
C64 O88 1.247 . S
C64 O90 1.289 . S
Mg65 O66 1.926 . S
Mg65 O75 1.984 . S
Mg65 O77 1.988 . S
Mg65 O78 2.061 1_565 S
O66 Mg65 1.926 . S
O66 Mg67 1.986 . S
O66 Mg68 1.917 . S
Mg67 O66 1.986 . S
Mg67 O74 2.042 . S
Mg67 O76 2.041 . S
Mg67 O82 2.038 . S
Mg67 O90 2.238 . S
Mg68 O66 1.917 . S
Mg68 O69 1.917 . S
Mg68 O79 2.106 . S
Mg68 O81 2.079 . S
Mg68 O90 2.106 . S
Mg68 O91 2.079 . S
O69 Mg68 1.917 . S
O69 Mg70 1.926 . S
O69 Mg71 1.986 . S
Mg70 O69 1.926 . S
Mg70 O84 1.984 . S
Mg70 O87 1.988 . S
Mg70 O88 2.061 . S
Mg71 O69 1.986 . S
Mg71 O79 2.238 . S
Mg71 O83 2.042 . S
Mg71 O85 2.041 . S
Mg71 O92 2.038 . S
C72 O78 1.247 . S
C72 O79 1.289 1_545 S
C73 O91 1.245 . S
C73 O92 1.274 . S
O74 C62 1.241 . S
O74 Mg67 2.042 . S
O75 C62 1.280 . S
O75 Mg65 1.984 . S
O76 C63 1.277 . S
O76 Mg67 2.041 . S
O77 C63 1.245 . S
O77 Mg65 1.988 . S
O78 Mg65 2.061 1_545 S
O78 C72 1.247 . S
O79 Mg68 2.106 . S
O79 Mg71 2.238 . S
O79 C72 1.289 1_565 S
C80 O81 1.245 . S
C80 O82 1.274 . S
O81 Mg68 2.079 . S
O81 C80 1.245 . S
O82 Mg67 2.038 . S
O82 C80 1.274 . S
O83 Mg71 2.042 . S
O83 C86 1.241 . S
O84 Mg70 1.984 . S
O84 C86 1.280 . S
O85 Mg71 2.041 . S
O85 C89 1.277 . S
C86 O83 1.241 . S
C86 O84 1.280 . S
O87 Mg70 1.988 . S
O87 C89 1.245 . S
O88 C64 1.247 . S
O88 Mg70 2.061 . S
C89 O85 1.277 . S
C89 O87 1.245 . S
O90 C64 1.289 . S
O90 Mg67 2.238 . S
O90 Mg68 2.106 . S
O91 Mg68 2.079 . S
O91 C73 1.245 . S
O92 Mg71 2.038 . S
O92 C73 1.274 . S
C93 O105 1.241 . S
C93 O106 1.280 . S
C94 O107 1.277 . S
C94 O108 1.245 . S
C95 O119 1.247 . S
C95 O121 1.289 1_655 S
Mg96 O97 1.926 . S
Mg96 O106 1.984 . S
Mg96 O108 1.988 . S
Mg96 O109 2.061 . S
O97 Mg96 1.926 . S
O97 Mg98 1.986 . S
O97 Mg99 1.917 . S
Mg98 O97 1.986 . S
Mg98 O105 2.042 . S
Mg98 O107 2.041 . S
Mg98 O113 2.038 1_455 S
Mg98 O121 2.238 . S
Mg99 O97 1.917 . S
Mg99 O100 1.917 1_455 S
Mg99 O110 2.106 1_455 S
Mg99 O112 2.079 1_455 S
Mg99 O121 2.106 . S
Mg99 O122 2.079 . S
O100 Mg99 1.917 1_655 S
O100 Mg101 1.926 . S
O100 Mg102 1.986 . S
Mg101 O100 1.926 . S
Mg101 O115 1.984 . S
Mg101 O118 1.988 . S
Mg101 O119 2.061 . S
Mg102 O100 1.986 . S
Mg102 O110 2.238 . S
Mg102 O114 2.042 . S
Mg102 O116 2.041 . S
Mg102 O123 2.038 1_655 S
C103 O109 1.247 . S
C103 O110 1.289 1_455 S
C104 O122 1.245 . S
C104 O123 1.274 . S
O105 C93 1.241 . S
O105 Mg98 2.042 . S
O106 C93 1.280 . S
O106 Mg96 1.984 . S
O107 C94 1.277 . S
O107 Mg98 2.041 . S
O108 C94 1.245 . S
O108 Mg96 1.988 . S
O109 Mg96 2.061 . S
O109 C103 1.247 . S
O110 Mg99 2.106 1_655 S
O110 Mg102 2.238 . S
O110 C103 1.289 1_655 S
C111 O112 1.245 . S
C111 O113 1.274 . S
O112 Mg99 2.079 1_655 S
O112 C111 1.245 . S
O113 Mg98 2.038 1_655 S
O113 C111 1.274 . S
O114 Mg102 2.042 . S
O114 C117 1.241 . S
O115 Mg101 1.984 . S
O115 C117 1.280 . S
O116 Mg102 2.041 . S
O116 C120 1.277 . S
C117 O114 1.241 . S
C117 O115 1.280 . S
O118 Mg101 1.988 . S
O118 C120 1.245 . S
O119 C95 1.247 . S
O119 Mg101 2.061 . S
C120 O116 1.277 . S
C120 O118 1.245 . S
O121 C95 1.289 1_455 S
O121 Mg98 2.238 . S
O121 Mg99 2.106 . S
O122 Mg99 2.079 . S
O122 C104 1.245 . S
O123 Mg102 2.038 1_455 S
O123 C104 1.274 . S
C124 O136 1.241 . S
C124 O137 1.280 . S
C125 O138 1.277 . S
C125 O139 1.245 . S
C126 O150 1.247 . S
C126 O152 1.289 . S
Mg127 O128 1.926 . S
Mg127 O137 1.984 . S
Mg127 O139 1.988 . S
Mg127 O140 2.061 1_565 S
O128 Mg127 1.926 . S
O128 Mg129 1.986 . S
O128 Mg130 1.917 . S
Mg129 O128 1.986 . S
Mg129 O136 2.042 . S
Mg129 O138 2.041 . S
Mg129 O144 2.038 . S
Mg129 O152 2.238 . S
Mg130 O128 1.917 . S
Mg130 O131 1.917 . S
Mg130 O141 2.106 . S
Mg130 O143 2.079 . S
Mg130 O152 2.106 . S
Mg130 O153 2.079 . S
O131 Mg130 1.917 . S
O131 Mg132 1.926 . S
O131 Mg133 1.986 . S
Mg132 O131 1.926 . S
Mg132 O146 1.984 . S
Mg132 O149 1.988 . S
Mg132 O150 2.061 . S
Mg133 O131 1.986 . S
Mg133 O141 2.238 . S
Mg133 O145 2.042 . S
Mg133 O147 2.041 . S
Mg133 O154 2.038 . S
C134 O140 1.247 . S
C134 O141 1.289 1_545 S
C135 O153 1.245 . S
C135 O154 1.274 . S
O136 C124 1.241 . S
O136 Mg129 2.042 . S
O137 C124 1.280 . S
O137 Mg127 1.984 . S
O138 C125 1.277 . S
O138 Mg129 2.041 . S
O139 C125 1.245 . S
O139 Mg127 1.988 . S
O140 Mg127 2.061 1_545 S
O140 C134 1.247 . S
O141 Mg130 2.106 . S
O141 Mg133 2.238 . S
O141 C134 1.289 1_565 S
C142 O143 1.245 . S
C142 O144 1.274 . S
O143 Mg130 2.079 . S
O143 C142 1.245 . S
O144 Mg129 2.038 . S
O144 C142 1.274 . S
O145 Mg133 2.042 . S
O145 C148 1.241 . S
O146 Mg132 1.984 . S
O146 C148 1.280 . S
O147 Mg133 2.041 . S
O147 C151 1.277 . S
C148 O145 1.241 . S
C148 O146 1.280 . S
O149 Mg132 1.988 . S
O149 C151 1.245 . S
O150 C126 1.247 . S
O150 Mg132 2.061 . S
C151 O147 1.277 . S
C151 O149 1.245 . S
O152 C126 1.289 . S
O152 Mg129 2.238 . S
O152 Mg130 2.106 . S
O153 Mg130 2.079 . S
O153 C135 1.245 . S
O154 Mg133 2.038 . S
O154 C135 1.274 . S
C155 O167 1.241 . S
C155 O168 1.280 . S
C156 O169 1.277 . S
C156 O170 1.245 . S
C157 O181 1.247 . S
C157 O183 1.289 1_565 S
Mg158 O159 1.926 . S
Mg158 O168 1.984 . S
Mg158 O170 1.988 . S
Mg158 O171 2.061 . S
O159 Mg158 1.926 . S
O159 Mg160 1.986 . S
O159 Mg161 1.917 . S
Mg160 O159 1.986 . S
Mg160 O167 2.042 . S
Mg160 O169 2.041 . S
Mg160 O175 2.038 . S
Mg160 O183 2.238 . S
Mg161 O159 1.917 . S
Mg161 O162 1.917 . S
Mg161 O172 2.106 . S
Mg161 O174 2.079 . S
Mg161 O183 2.106 . S
Mg161 O184 2.079 . S
O162 Mg161 1.917 . S
O162 Mg163 1.926 . S
O162 Mg164 1.986 . S
Mg163 O162 1.926 . S
Mg163 O177 1.984 . S
Mg163 O180 1.988 . S
Mg163 O181 2.061 1_545 S
Mg164 O162 1.986 . S
Mg164 O172 2.238 . S
Mg164 O176 2.042 . S
Mg164 O178 2.041 . S
Mg164 O185 2.038 . S
C165 O171 1.247 . S
C165 O172 1.289 . S
C166 O184 1.245 . S
C166 O185 1.274 . S
O167 C155 1.241 . S
O167 Mg160 2.042 . S
O168 C155 1.280 . S
O168 Mg158 1.984 . S
O169 C156 1.277 . S
O169 Mg160 2.041 . S
O170 C156 1.245 . S
O170 Mg158 1.988 . S
O171 Mg158 2.061 . S
O171 C165 1.247 . S
O172 Mg161 2.106 . S
O172 Mg164 2.238 . S
O172 C165 1.289 . S
C173 O174 1.245 . S
C173 O175 1.274 . S
O174 Mg161 2.079 . S
O174 C173 1.245 . S
O175 Mg160 2.038 . S
O175 C173 1.274 . S
O176 Mg164 2.042 . S
O176 C179 1.241 . S
O177 Mg163 1.984 . S
O177 C179 1.280 . S
O178 Mg164 2.041 . S
O178 C182 1.277 . S
C179 O176 1.241 . S
C179 O177 1.280 . S
O180 Mg163 1.988 . S
O180 C182 1.245 . S
O181 C157 1.247 . S
O181 Mg163 2.061 1_565 S
C182 O178 1.277 . S
C182 O180 1.245 . S
O183 C157 1.289 1_545 S
O183 Mg160 2.238 . S
O183 Mg161 2.106 . S
O184 Mg161 2.079 . S
O184 C166 1.245 . S
O185 Mg164 2.038 . S
O185 C166 1.274 . S
C186 O198 1.241 1_565 S
C186 O199 1.280 . S
C187 O200 1.277 . S
C187 O201 1.245 . S
C188 O212 1.247 . S
C188 O214 1.289 . S
Mg189 O190 1.926 . S
Mg189 O199 1.984 . S
Mg189 O201 1.988 1_565 S
Mg189 O202 2.061 . S
O190 Mg189 1.926 . S
O190 Mg191 1.986 1_565 S
O190 Mg192 1.916 1_565 S
Mg191 O190 1.986 1_545 S
Mg191 O198 2.042 . S
Mg191 O200 2.041 . S
Mg191 O206 2.038 . S
Mg191 O214 2.238 . S
Mg192 O190 1.916 1_545 S
Mg192 O193 1.917 . S
Mg192 O203 2.101 1_545 S
Mg192 O205 2.078 1_545 S
Mg192 O214 2.112 . S
Mg192 O215 2.079 . S
O193 Mg192 1.917 . S
O193 Mg194 1.926 . S
O193 Mg195 1.986 1_545 S
Mg194 O193 1.926 . S
Mg194 O208 1.984 . S
Mg194 O211 1.988 1_545 S
Mg194 O212 2.061 . S
Mg195 O193 1.986 1_565 S
Mg195 O203 2.238 . S
Mg195 O207 2.042 . S
Mg195 O209 2.041 . S
Mg195 O216 2.038 . S
C196 O202 1.247 . S
C196 O203 1.289 . S
C197 O215 1.245 1_565 S
C197 O216 1.274 . S
O198 C186 1.241 1_545 S
O198 Mg191 2.042 . S
O199 C186 1.280 . S
O199 Mg189 1.984 . S
O200 C187 1.277 . S
O200 Mg191 2.041 . S
O201 C187 1.245 . S
O201 Mg189 1.988 1_545 S
O202 Mg189 2.061 . S
O202 C196 1.247 . S
O203 Mg192 2.101 1_565 S
O203 Mg195 2.238 . S
O203 C196 1.289 . S
C204 O205 1.245 1_545 S
C204 O206 1.274 . S
O205 Mg192 2.078 1_565 S
O205 C204 1.245 1_565 S
O206 Mg191 2.038 . S
O206 C204 1.274 . S
O207 Mg195 2.042 . S
O207 C210 1.241 1_565 S
O208 Mg194 1.984 . S
O208 C210 1.280 . S
O209 Mg195 2.041 . S
O209 C213 1.277 . S
C210 O207 1.241 1_545 S
C210 O208 1.280 . S
O211 Mg194 1.988 1_565 S
O211 C213 1.245 . S
O212 C188 1.247 . S
O212 Mg194 2.061 . S
C213 O209 1.277 . S
C213 O211 1.245 . S
O214 C188 1.289 . S
O214 Mg191 2.238 . S
O214 Mg192 2.112 . S
O215 Mg192 2.079 . S
O215 C197 1.245 1_545 S
O216 Mg195 2.038 . S
O216 C197 1.274 . S
C217 O229 1.241 . S
C217 O230 1.280 . S
C218 O231 1.277 . S
C218 O232 1.245 . S
C219 O243 1.241 1_554 S
C219 O245 1.301 . S
Mg220 O221 1.926 . S
Mg220 O230 1.984 . S
Mg220 O232 1.988 . S
Mg220 O233 2.061 . S
O221 Mg220 1.926 . S
O221 Mg222 1.986 . S
O221 Mg223 1.917 . S
Mg222 O221 1.986 . S
Mg222 O229 2.042 . S
Mg222 O231 2.041 . S
Mg222 O237 2.038 . S
Mg222 O245 2.238 . S
Mg223 O221 1.917 . S
Mg223 O224 1.917 1_554 S
Mg223 O234 2.106 1_554 S
Mg223 O236 2.079 . S
Mg223 O245 2.106 . S
Mg223 O246 2.079 1_554 S
O224 Mg223 1.917 1_556 S
O224 Mg225 1.926 . S
O224 Mg226 1.986 . S
Mg225 O224 1.926 . S
Mg225 O239 1.984 . S
Mg225 O242 1.988 . S
Mg225 O243 2.061 . S
Mg226 O224 1.986 . S
Mg226 O234 2.238 . S
Mg226 O238 2.042 . S
Mg226 O240 2.041 . S
Mg226 O247 2.038 . S
C227 O233 1.247 . S
C227 O234 1.289 1_554 S
C228 O246 1.245 . S
C228 O247 1.274 . S
O229 C217 1.241 . S
O229 Mg222 2.042 . S
O230 C217 1.280 . S
O230 Mg220 1.984 . S
O231 C218 1.277 . S
O231 Mg222 2.041 . S
O232 C218 1.245 . S
O232 Mg220 1.988 . S
O233 Mg220 2.061 . S
O233 C227 1.247 . S
O234 Mg223 2.106 1_556 S
O234 Mg226 2.238 . S
O234 C227 1.289 1_556 S
C235 O236 1.245 . S
C235 O237 1.274 . S
O236 Mg223 2.079 . S
O236 C235 1.245 . S
O237 Mg222 2.038 . S
O237 C235 1.274 . S
O238 Mg226 2.042 . S
O238 C241 1.241 . S
O239 Mg225 1.984 . S
O239 C241 1.280 . S
O240 Mg226 2.041 . S
O240 C244 1.277 . S
C241 O238 1.241 . S
C241 O239 1.280 . S
O242 Mg225 1.988 . S
O242 C244 1.245 . S
O243 C219 1.241 1_556 S
O243 Mg225 2.061 . S
C244 O240 1.277 . S
C244 O242 1.245 . S
O245 C219 1.301 . S
O245 Mg222 2.238 . S
O245 Mg223 2.106 . S
O246 Mg223 2.079 1_556 S
O246 C228 1.245 . S
O247 Mg226 2.038 . S
O247 C228 1.274 . S
C248 C249 1.363 . S
C248 C254 1.379 . S
C248 N256 1.356 . S
C249 C248 1.363 . S
C249 C255 1.363 . S
C250 C251 1.363 . S
C250 C255 1.379 . S
C250 N257 1.356 . S
C251 C250 1.363 . S
C251 C254 1.363 . S
N252 C254 1.356 . S
N252 H264 0.984 . S
N252 H265 0.985 . S
N253 C255 1.356 1_565 S
N253 H258 0.984 . S
N253 H259 0.985 . S
C254 C248 1.379 . S
C254 C251 1.363 . S
C254 N252 1.356 . S
C255 C249 1.363 . S
C255 C250 1.379 . S
C255 N253 1.356 1_545 S
N256 C248 1.356 . S
N256 H262 0.984 . S
N256 H263 0.984 . S
N257 C250 1.356 . S
N257 H260 0.984 . S
N257 H261 0.985 . S
H258 N253 0.984 . S
H259 N253 0.985 . S
H260 N257 0.984 . S
H261 N257 0.985 . S
H262 N256 0.984 . S
H263 N256 0.984 . S
H264 N252 0.984 . S
H265 N252 0.985 . S
C266 C267 1.363 . S
C266 C272 1.379 . S
C266 N274 1.356 . S
C267 C266 1.363 . S
C267 C273 1.363 1_565 S
C268 C269 1.363 . S
C268 C273 1.379 1_565 S
C268 N275 1.356 . S
C269 C268 1.363 . S
C269 C272 1.363 . S
N270 C272 1.356 . S
N270 H282 0.984 . S
N270 H283 0.985 . S
N271 C273 1.356 . S
N271 H276 0.984 . S
N271 H277 0.985 . S
C272 C266 1.379 . S
C272 C269 1.363 . S
C272 N270 1.356 . S
C273 C267 1.363 1_545 S
C273 C268 1.379 1_545 S
C273 N271 1.356 . S
N274 C266 1.356 . S
N274 H280 0.984 . S
N274 H281 0.984 . S
N275 C268 1.356 . S
N275 H278 0.984 . S
N275 H279 0.985 1_565 S
H276 N271 0.984 . S
H277 N271 0.985 . S
H278 N275 0.984 . S
H279 N275 0.985 1_545 S
H280 N274 0.984 . S
H281 N274 0.984 . S
H282 N270 0.984 . S
H283 N270 0.985 . S
C284 C285 1.363 . S
C284 C290 1.379 . S
C284 N292 1.356 . S
C285 C284 1.363 . S
C285 C291 1.363 . S
C286 C287 1.363 . S
C286 C291 1.379 . S
C286 N293 1.356 . S
C287 C286 1.363 . S
C287 C290 1.363 . S
N288 C290 1.356 . S
N288 H300 0.984 . S
N288 H301 0.985 . S
N289 C291 1.356 . S
N289 H294 0.984 . S
N289 H295 0.985 . S
C290 C284 1.379 . S
C290 C287 1.363 . S
C290 N288 1.356 . S
C291 C285 1.363 . S
C291 C286 1.379 . S
C291 N289 1.356 . S
N292 C284 1.356 . S
N292 H298 0.984 . S
N292 H299 0.984 . S
N293 C286 1.356 . S
N293 H296 0.984 . S
N293 H297 0.985 . S
H294 N289 0.984 . S
H295 N289 0.985 . S
H296 N293 0.984 . S
H297 N293 0.985 . S
H298 N292 0.984 . S
H299 N292 0.984 . S
H300 N288 0.984 . S
H301 N288 0.985 . S
C302 C303 1.363 . S
C302 C308 1.379 . S
C302 N310 1.356 . S
C303 C302 1.363 . S
C303 C309 1.363 . S
C304 C305 1.363 . S
C304 C309 1.379 . S
C304 N311 1.356 . S
C305 C304 1.363 . S
C305 C308 1.363 . S
N306 C308 1.356 . S
N306 H318 0.984 . S
N306 H319 0.985 . S
N307 C309 1.356 . S
N307 H312 0.984 . S
N307 H313 0.985 . S
C308 C302 1.379 . S
C308 C305 1.363 . S
C308 N306 1.356 . S
C309 C303 1.363 . S
C309 C304 1.379 . S
C309 N307 1.356 . S
N310 C302 1.356 . S
N310 H316 0.984 . S
N310 H317 0.984 . S
N311 C304 1.356 . S
N311 H314 0.984 . S
N311 H315 0.985 . S
H312 N307 0.984 . S
H313 N307 0.985 . S
H314 N311 0.984 . S
H315 N311 0.985 . S
H316 N310 0.984 . S
H317 N310 0.984 . S
H318 N306 0.984 . S
H319 N306 0.985 . S
C320 C321 1.363 . S
C320 C326 1.379 . S
C320 N328 1.356 . S
C321 C320 1.363 . S
C321 C327 1.363 . S
C322 C323 1.363 . S
C322 C327 1.379 . S
C322 N329 1.356 . S
C323 C322 1.363 . S
C323 C326 1.363 . S
N324 C326 1.356 . S
N324 H336 0.984 . S
N324 H337 0.985 . S
N325 C327 1.356 . S
N325 H330 0.984 . S
N325 H331 0.985 . S
C326 C320 1.379 . S
C326 C323 1.363 . S
C326 N324 1.356 . S
C327 C321 1.363 . S
C327 C322 1.379 . S
C327 N325 1.356 . S
N328 C320 1.356 . S
N328 H334 0.984 . S
N328 H335 0.984 . S
N329 C322 1.356 . S
N329 H332 0.984 . S
N329 H333 0.985 . S
H330 N325 0.984 . S
H331 N325 0.985 . S
H332 N329 0.984 . S
H333 N329 0.985 . S
H334 N328 0.984 . S
H335 N328 0.984 . S
H336 N324 0.984 . S
H337 N324 0.985 . S
C338 C339 1.363 . S
C338 C344 1.379 . S
C338 N346 1.356 . S
C339 C338 1.363 . S
C339 C345 1.363 . S
C340 C341 1.363 . S
C340 C345 1.379 . S
C340 N347 1.356 . S
C341 C340 1.363 . S
C341 C344 1.363 . S
N342 C344 1.356 . S
N342 H354 0.984 . S
N342 H355 0.985 . S
N343 C345 1.356 . S
N343 H348 0.984 . S
N343 H349 0.985 . S
C344 C338 1.379 . S
C344 C341 1.363 . S
C344 N342 1.356 . S
C345 C339 1.363 . S
C345 C340 1.379 . S
C345 N343 1.356 . S
N346 C338 1.356 . S
N346 H352 0.984 . S
N346 H353 0.984 . S
N347 C340 1.356 . S
N347 H350 0.984 . S
N347 H351 0.985 . S
H348 N343 0.984 . S
H349 N343 0.985 . S
H350 N347 0.984 . S
H351 N347 0.985 . S
H352 N346 0.984 . S
H353 N346 0.984 . S
H354 N342 0.984 . S
H355 N342 0.985 . S
C356 C357 1.363 . S
C356 C362 1.379 . S
C356 N364 1.356 . S
C357 C356 1.363 . S
C357 C363 1.363 . S
C358 C359 1.363 . S
C358 C363 1.379 . S
C358 N365 1.356 1_565 S
C359 C358 1.363 . S
C359 C362 1.363 . S
N360 C362 1.356 . S
N360 H372 0.984 . S
N360 H373 0.985 . S
N361 C363 1.356 . S
N361 H366 0.984 . S
N361 H367 0.985 . S
C362 C356 1.379 . S
C362 C359 1.363 . S
C362 N360 1.356 . S
C363 C357 1.363 . S
C363 C358 1.379 . S
C363 N361 1.356 . S
N364 C356 1.356 . S
N364 H370 0.984 . S
N364 H371 0.984 . S
N365 C358 1.356 1_545 S
N365 H368 0.984 . S
N365 H369 0.985 . S
H366 N361 0.984 . S
H367 N361 0.985 . S
H368 N365 0.984 . S
H369 N365 0.985 . S
H370 N364 0.984 . S
H371 N364 0.984 . S
H372 N360 0.984 . S
H373 N360 0.985 . S
C374 C375 1.363 . S
C374 C380 1.379 . S
C374 N382 1.356 . S
C375 C374 1.363 . S
C375 C381 1.363 . S
C376 C377 1.363 . S
C376 C381 1.379 . S
C376 N383 1.356 . S
C377 C376 1.363 . S
C377 C380 1.363 . S
N378 C380 1.356 . S
N378 H390 0.984 . S
N378 H391 0.985 . S
N379 C381 1.356 . S
N379 H384 0.984 . S
N379 H385 0.985 . S
C380 C374 1.379 . S
C380 C377 1.363 . S
C380 N378 1.356 . S
C381 C375 1.363 . S
C381 C376 1.379 . S
C381 N379 1.356 . S
N382 C374 1.356 . S
N382 H388 0.984 . S
N382 H389 0.984 . S
N383 C376 1.356 . S
N383 H386 0.984 . S
N383 H387 0.985 . S
H384 N379 0.984 . S
H385 N379 0.985 . S
H386 N383 0.984 . S
H387 N383 0.985 . S
H388 N382 0.984 . S
H389 N382 0.984 . S
H390 N378 0.984 . S
H391 N378 0.985 . S
C392 C393 1.363 . S
C392 C398 1.379 1_545 S
C392 N400 1.356 . S
C393 C392 1.363 . S
C393 C399 1.363 . S
C394 C395 1.363 . S
C394 C399 1.379 . S
C394 N401 1.356 . S
C395 C394 1.363 . S
C395 C398 1.363 1_545 S
N396 C398 1.356 . S
N396 H408 0.984 . S
N396 H409 0.985 . S
N397 C399 1.356 . S
N397 H402 0.984 . S
N397 H403 0.985 . S
C398 C392 1.379 1_565 S
C398 C395 1.363 1_565 S
C398 N396 1.356 . S
C399 C393 1.363 . S
C399 C394 1.379 . S
C399 N397 1.356 . S
N400 C392 1.356 . S
N400 H406 0.984 1_545 S
N400 H407 0.984 . S
N401 C394 1.356 . S
N401 H404 0.984 . S
N401 H405 0.985 . S
H402 N397 0.984 . S
H403 N397 0.985 . S
H404 N401 0.984 . S
H405 N401 0.985 . S
H406 N400 0.984 1_565 S
H407 N400 0.984 . S
H408 N396 0.984 . S
H409 N396 0.985 . S
C410 C411 1.363 . S
C410 C416 1.379 . S
C410 N418 1.356 1_565 S
C411 C410 1.363 . S
C411 C417 1.363 . S
C412 C413 1.363 . S
C412 C417 1.379 . S
C412 N419 1.356 . S
C413 C412 1.363 . S
C413 C416 1.363 . S
N414 C416 1.356 . S
N414 H426 0.984 . S
N414 H427 0.985 . S
N415 C417 1.356 . S
N415 H420 0.984 . S
N415 H421 0.985 . S
C416 C410 1.379 . S
C416 C413 1.363 . S
C416 N414 1.356 . S
C417 C411 1.363 . S
C417 C412 1.379 . S
C417 N415 1.356 . S
N418 C410 1.356 1_545 S
N418 H424 0.984 . S
N418 H425 0.984 . S
N419 C412 1.356 . S
N419 H422 0.984 . S
N419 H423 0.985 . S
H420 N415 0.984 . S
H421 N415 0.985 . S
H422 N419 0.984 . S
H423 N419 0.985 . S
H424 N418 0.984 . S
H425 N418 0.984 . S
H426 N414 0.984 . S
H427 N414 0.985 . S
C428 C429 1.363 . S
C428 C434 1.379 . S
C428 N436 1.356 . S
C429 C428 1.363 . S
C429 C435 1.363 . S
C430 C431 1.363 . S
C430 C435 1.379 . S
C430 N437 1.356 . S
C431 C430 1.363 . S
C431 C434 1.363 . S
N432 C434 1.356 . S
N432 H444 0.984 . S
N432 H445 0.985 . S
N433 C435 1.356 . S
N433 H438 0.984 . S
N433 H439 0.985 . S
C434 C428 1.379 . S
C434 C431 1.363 . S
C434 N432 1.356 . S
C435 C429 1.363 . S
C435 C430 1.379 . S
C435 N433 1.356 . S
N436 C428 1.356 . S
N436 H442 0.984 . S
N436 H443 0.984 . S
N437 C430 1.356 . S
N437 H440 0.984 . S
N437 H441 0.985 . S
H438 N433 0.984 . S
H439 N433 0.985 . S
H440 N437 0.984 . S
H441 N437 0.985 . S
H442 N436 0.984 . S
H443 N436 0.984 . S
H444 N432 0.984 . S
H445 N432 0.985 . S
C446 C447 1.363 . S
C446 C452 1.379 . S
C446 N454 1.356 . S
C447 C446 1.363 . S
C447 C453 1.363 . S
C448 C449 1.363 . S
C448 C453 1.379 . S
C448 N455 1.356 . S
C449 C448 1.363 . S
C449 C452 1.363 . S
N450 C452 1.356 . S
N450 H462 0.984 . S
N450 H463 0.985 . S
N451 C453 1.356 . S
N451 H456 0.984 . S
N451 H457 0.985 . S
C452 C446 1.379 . S
C452 C449 1.363 . S
C452 N450 1.356 . S
C453 C447 1.363 . S
C453 C448 1.379 . S
C453 N451 1.356 . S
N454 C446 1.356 . S
N454 H460 0.984 . S
N454 H461 0.984 . S
N455 C448 1.356 . S
N455 H458 0.984 . S
N455 H459 0.985 . S
H456 N451 0.984 . S
H457 N451 0.985 . S
H458 N455 0.984 . S
H459 N455 0.985 . S
H460 N454 0.984 . S
H461 N454 0.984 . S
H462 N450 0.984 . S
H463 N450 0.985 . S
C464 C465 1.363 . S
C464 C470 1.379 . S
C464 N472 1.356 . S
C465 C464 1.363 . S
C465 C471 1.363 . S
C466 C467 1.363 . S
C466 C471 1.379 . S
C466 N473 1.356 . S
C467 C466 1.363 . S
C467 C470 1.363 . S
N468 C470 1.356 . S
N468 H480 0.984 . S
N468 H481 0.985 . S
N469 C471 1.356 . S
N469 H474 0.984 . S
N469 H475 0.985 . S
C470 C464 1.379 . S
C470 C467 1.363 . S
C470 N468 1.356 . S
C471 C465 1.363 . S
C471 C466 1.379 . S
C471 N469 1.356 . S
N472 C464 1.356 . S
N472 H478 0.984 . S
N472 H479 0.984 . S
N473 C466 1.356 . S
N473 H476 0.984 . S
N473 H477 0.985 . S
H474 N469 0.984 . S
H475 N469 0.985 . S
H476 N473 0.984 . S
H477 N473 0.985 . S
H478 N472 0.984 . S
H479 N472 0.984 . S
H480 N468 0.984 . S
H481 N468 0.985 . S
C482 C483 1.363 . S
C482 C488 1.379 . S
C482 N490 1.356 . S
C483 C482 1.363 . S
C483 C489 1.363 . S
C484 C485 1.363 . S
C484 C489 1.379 . S
C484 N491 1.356 . S
C485 C484 1.363 . S
C485 C488 1.363 . S
N486 C488 1.356 . S
N486 H498 0.984 . S
N486 H499 0.985 . S
N487 C489 1.356 . S
N487 H492 0.984 . S
N487 H493 0.985 . S
C488 C482 1.379 . S
C488 C485 1.363 . S
C488 N486 1.356 . S
C489 C483 1.363 . S
C489 C484 1.379 . S
C489 N487 1.356 . S
N490 C482 1.356 . S
N490 H496 0.984 . S
N490 H497 0.984 . S
N491 C484 1.356 . S
N491 H494 0.984 . S
N491 H495 0.985 . S
H492 N487 0.984 . S
H493 N487 0.985 . S
H494 N491 0.984 . S
H495 N491 0.985 . S
H496 N490 0.984 . S
H497 N490 0.984 . S
H498 N486 0.984 . S
H499 N486 0.985 . S
C500 C501 1.363 . S
C500 C506 1.379 . S
C500 N508 1.356 . S
C501 C500 1.363 . S
C501 C507 1.363 . S
C502 C503 1.363 . S
C502 C507 1.379 . S
C502 N509 1.356 . S
C503 C502 1.363 . S
C503 C506 1.363 . S
N504 C506 1.356 . S
N504 H516 0.984 . S
N504 H517 0.985 . S
N505 C507 1.356 1_545 S
N505 H510 0.984 . S
N505 H511 0.985 . S
C506 C500 1.379 . S
C506 C503 1.363 . S
C506 N504 1.356 . S
C507 C501 1.363 . S
C507 C502 1.379 . S
C507 N505 1.356 1_565 S
N508 C500 1.356 . S
N508 H514 0.984 . S
N508 H515 0.984 . S
N509 C502 1.356 . S
N509 H512 0.984 . S
N509 H513 0.985 . S
H510 N505 0.984 . S
H511 N505 0.985 . S
H512 N509 0.984 . S
H513 N509 0.985 . S
H514 N508 0.984 . S
H515 N508 0.984 . S
H516 N504 0.984 . S
H517 N504 0.985 . S
C518 C519 1.363 . S
C518 C524 1.379 . S
C518 N526 1.356 . S
C519 C518 1.363 . S
C519 C525 1.363 . S
C520 C521 1.363 . S
C520 C525 1.379 . S
C520 N527 1.356 . S
C521 C520 1.363 . S
C521 C524 1.363 . S
N522 C524 1.356 . S
N522 H534 0.984 . S
N522 H535 0.985 . S
N523 C525 1.356 1_565 S
N523 H528 0.984 . S
N523 H529 0.985 . S
C524 C518 1.379 . S
C524 C521 1.363 . S
C524 N522 1.356 . S
C525 C519 1.363 . S
C525 C520 1.379 . S
C525 N523 1.356 1_545 S
N526 C518 1.356 . S
N526 H532 0.984 . S
N526 H533 0.984 . S
N527 C520 1.356 . S
N527 H530 0.984 . S
N527 H531 0.985 . S
H528 N523 0.984 . S
H529 N523 0.985 . S
H530 N527 0.984 . S
H531 N527 0.985 . S
H532 N526 0.984 . S
H533 N526 0.984 . S
H534 N522 0.984 . S
H535 N522 0.985 . S
C536 C537 1.363 . S
C536 C542 1.379 . S
C536 N544 1.356 . S
C537 C536 1.363 . S
C537 C543 1.363 1_454 S
C538 C539 1.365 . S
C538 C543 1.379 . S
C538 N545 1.356 . S
C539 C538 1.365 . S
C539 C542 1.361 1_656 S
N540 C542 1.356 . S
N540 H552 0.984 . S
N540 H553 0.985 . S
N541 C543 1.356 . S
N541 H546 0.984 . S
N541 H547 0.985 . S
C542 C536 1.379 . S
C542 C539 1.361 1_454 S
C542 N540 1.356 . S
C543 C537 1.363 1_656 S
C543 C538 1.379 . S
C543 N541 1.356 . S
N544 C536 1.356 . S
N544 H550 0.984 . S
N544 H551 0.984 . S
N545 C538 1.356 . S
N545 H548 0.984 . S
N545 H549 0.985 . S
H546 N541 0.984 . S
H547 N541 0.985 . S
H548 N545 0.984 . S
H549 N545 0.985 . S
H550 N544 0.984 . S
H551 N544 0.984 . S
H552 N540 0.984 . S
H553 N540 0.985 . S
C554 C555 1.363 . S
C554 C560 1.379 . S
C554 N562 1.356 . S
C555 C554 1.363 . S
C555 C561 1.363 . S
C556 C557 1.363 . S
C556 C561 1.379 . S
C556 N563 1.356 . S
C557 C556 1.363 . S
C557 C560 1.363 . S
N558 C560 1.356 . S
N558 H570 0.984 . S
N558 H571 0.985 . S
N559 C561 1.356 . S
N559 H564 0.984 . S
N559 H565 0.985 . S
C560 C554 1.379 . S
C560 C557 1.363 . S
C560 N558 1.356 . S
C561 C555 1.363 . S
C561 C556 1.379 . S
C561 N559 1.356 . S
N562 C554 1.356 . S
N562 H568 0.984 . S
N562 H569 0.984 . S
N563 C556 1.356 . S
N563 H566 0.984 1_565 S
N563 H567 0.985 . S
H564 N559 0.984 . S
H565 N559 0.985 . S
H566 N563 0.984 1_545 S
H567 N563 0.985 . S
H568 N562 0.984 . S
H569 N562 0.984 . S
H570 N558 0.984 . S
H571 N558 0.985 . S
C572 C573 1.363 . S
C572 C578 1.379 . S
C572 N580 1.356 . S
C573 C572 1.363 . S
C573 C579 1.363 . S
C574 C575 1.363 . S
C574 C579 1.379 . S
C574 N581 1.356 . S
C575 C574 1.363 . S
C575 C578 1.363 . S
N576 C578 1.356 . S
N576 H588 0.984 . S
N576 H589 0.985 . S
N577 C579 1.356 . S
N577 H582 0.984 1_545 S
N577 H583 0.985 . S
C578 C572 1.379 . S
C578 C575 1.363 . S
C578 N576 1.356 . S
C579 C573 1.363 . S
C579 C574 1.379 . S
C579 N577 1.356 . S
N580 C572 1.356 . S
N580 H586 0.984 . S
N580 H587 0.984 . S
N581 C574 1.356 . S
N581 H584 0.984 . S
N581 H585 0.985 . S
H582 N577 0.984 1_565 S
H583 N577 0.985 . S
H584 N581 0.984 . S
H585 N581 0.985 . S
H586 N580 0.984 . S
H587 N580 0.984 . S
H588 N576 0.984 . S
H589 N576 0.985 . S
C590 C591 1.361 1_455 S
C590 C596 1.379 1_565 S
C590 N598 1.356 . S
C591 C590 1.361 1_655 S
C591 C597 1.364 . S
C592 C593 1.363 1_655 S
C592 C597 1.379 1_545 S
C592 N599 1.356 . S
C593 C592 1.363 1_455 S
C593 C596 1.363 . S
N594 C596 1.356 . S
N594 H606 0.984 . S
N594 H607 0.985 . S
N595 C597 1.356 . S
N595 H600 0.984 . S
N595 H601 0.985 . S
C596 C590 1.379 1_545 S
C596 C593 1.363 . S
C596 N594 1.356 . S
C597 C591 1.364 . S
C597 C592 1.379 1_565 S
C597 N595 1.356 . S
N598 C590 1.356 . S
N598 H604 0.984 . S
N598 H605 0.984 . S
N599 C592 1.356 . S
N599 H602 0.984 . S
N599 H603 0.985 . S
H600 N595 0.984 . S
H601 N595 0.985 . S
H602 N599 0.984 . S
H603 N599 0.985 . S
H604 N598 0.984 . S
H605 N598 0.984 . S
H606 N594 0.984 . S
H607 N594 0.985 . S
C608 C609 1.363 . S
C608 C614 1.379 . S
C608 N616 1.356 . S
C609 C608 1.363 . S
C609 C615 1.363 . S
C610 C611 1.363 . S
C610 C615 1.379 . S
C610 N617 1.356 . S
C611 C610 1.363 . S
C611 C614 1.363 . S
N612 C614 1.356 . S
N612 H624 0.984 . S
N612 H625 0.985 . S
N613 C615 1.356 . S
N613 H618 0.984 . S
N613 H619 0.985 . S
C614 C608 1.379 . S
C614 C611 1.363 . S
C614 N612 1.356 . S
C615 C609 1.363 . S
C615 C610 1.379 . S
C615 N613 1.356 . S
N616 C608 1.356 . S
N616 H622 0.984 . S
N616 H623 0.984 1_545 S
N617 C610 1.356 . S
N617 H620 0.984 . S
N617 H621 0.985 . S
H618 N613 0.984 . S
H619 N613 0.985 . S
H620 N617 0.984 . S
H621 N617 0.985 . S
H622 N616 0.984 . S
H623 N616 0.984 1_565 S
H624 N612 0.984 . S
H625 N612 0.985 . S
C626 C627 1.363 . S
C626 C632 1.379 . S
C626 N634 1.356 . S
C627 C626 1.363 . S
C627 C633 1.363 . S
C628 C629 1.363 . S
C628 C633 1.379 . S
C628 N635 1.356 . S
C629 C628 1.363 . S
C629 C632 1.363 . S
N630 C632 1.356 . S
N630 H642 0.984 . S
N630 H643 0.985 1_565 S
N631 C633 1.356 . S
N631 H636 0.984 . S
N631 H637 0.985 . S
C632 C626 1.379 . S
C632 C629 1.363 . S
C632 N630 1.356 . S
C633 C627 1.363 . S
C633 C628 1.379 . S
C633 N631 1.356 . S
N634 C626 1.356 . S
N634 H640 0.984 . S
N634 H641 0.984 . S
N635 C628 1.356 . S
N635 H638 0.984 . S
N635 H639 0.985 . S
H636 N631 0.984 . S
H637 N631 0.985 . S
H638 N635 0.984 . S
H639 N635 0.985 . S
H640 N634 0.984 . S
H641 N634 0.984 . S
H642 N630 0.984 . S
H643 N630 0.985 1_545 S
C644 C645 1.363 . S
C644 C650 1.379 . S
C644 N652 1.356 . S
C645 C644 1.363 . S
C645 C651 1.363 . S
C646 C647 1.363 . S
C646 C651 1.379 . S
C646 N653 1.356 . S
C647 C646 1.363 . S
C647 C650 1.363 . S
N648 C650 1.356 . S
N648 H660 0.984 . S
N648 H661 0.985 . S
N649 C651 1.356 . S
N649 H654 0.984 . S
N649 H655 0.985 . S
C650 C644 1.379 . S
C650 C647 1.363 . S
C650 N648 1.356 . S
C651 C645 1.363 . S
C651 C646 1.379 . S
C651 N649 1.356 . S
N652 C644 1.356 . S
N652 H658 0.984 . S
N652 H659 0.984 . S
N653 C646 1.356 . S
N653 H656 0.984 . S
N653 H657 0.985 . S
H654 N649 0.984 . S
H655 N649 0.985 . S
H656 N653 0.984 . S
H657 N653 0.985 . S
H658 N652 0.984 . S
H659 N652 0.984 . S
H660 N648 0.984 . S
H661 N648 0.985 . S
C662 C663 1.363 1_554 S
C662 C668 1.379 1_565 S
C662 N670 1.356 . S
C663 C662 1.363 1_556 S
C663 C669 1.363 . S
C664 C665 1.363 1_556 S
C664 C669 1.379 1_545 S
C664 N671 1.356 . S
C665 C664 1.363 1_554 S
C665 C668 1.363 . S
N666 C668 1.356 . S
N666 H678 0.984 . S
N666 H679 0.985 . S
N667 C669 1.356 . S
N667 H672 0.984 . S
N667 H673 0.985 . S
C668 C662 1.379 1_545 S
C668 C665 1.363 . S
C668 N666 1.356 . S
C669 C663 1.363 . S
C669 C664 1.379 1_565 S
C669 N667 1.356 . S
N670 C662 1.356 . S
N670 H676 0.984 . S
N670 H677 0.984 . S
N671 C664 1.356 . S
N671 H674 0.984 . S
N671 H675 0.985 . S
H672 N667 0.984 . S
H673 N667 0.985 . S
H674 N671 0.984 . S
H675 N671 0.985 . S
H676 N670 0.984 . S
H677 N670 0.984 . S
H678 N666 0.984 . S
H679 N666 0.985 . S
C680 C681 1.363 1_554 S
C680 C686 1.379 . S
C680 N688 1.356 . S
C681 C680 1.363 1_556 S
C681 C687 1.363 . S
C682 C683 1.363 1_556 S
C682 C687 1.379 . S
C682 N689 1.356 . S
C683 C682 1.363 1_554 S
C683 C686 1.363 . S
N684 C686 1.356 . S
N684 H696 0.984 . S
N684 H697 0.985 . S
N685 C687 1.356 . S
N685 H690 0.984 . S
N685 H691 0.985 . S
C686 C680 1.379 . S
C686 C683 1.363 . S
C686 N684 1.356 . S
C687 C681 1.363 . S
C687 C682 1.379 . S
C687 N685 1.356 . S
N688 C680 1.356 . S
N688 H694 0.984 . S
N688 H695 0.984 . S
N689 C682 1.356 . S
N689 H692 0.984 . S
N689 H693 0.985 . S
H690 N685 0.984 . S
H691 N685 0.985 . S
H692 N689 0.984 . S
H693 N689 0.985 . S
H694 N688 0.984 . S
H695 N688 0.984 . S
H696 N684 0.984 . S
H697 N684 0.985 . S
C698 C699 1.363 . S
C698 C704 1.379 . S
C698 N706 1.356 . S
C699 C698 1.363 . S
C699 C705 1.363 1_556 S
C700 C701 1.363 . S
C700 C705 1.379 . S
C700 N707 1.356 . S
C701 C700 1.363 . S
C701 C704 1.363 1_554 S
N702 C704 1.356 . S
N702 H714 0.984 . S
N702 H715 0.985 . S
N703 C705 1.356 . S
N703 H708 0.984 . S
N703 H709 0.985 . S
C704 C698 1.379 . S
C704 C701 1.363 1_556 S
C704 N702 1.356 . S
C705 C699 1.363 1_554 S
C705 C700 1.379 . S
C705 N703 1.356 . S
N706 C698 1.356 . S
N706 H712 0.984 . S
N706 H713 0.984 . S
N707 C700 1.356 . S
N707 H710 0.984 . S
N707 H711 0.985 . S
H708 N703 0.984 . S
H709 N703 0.985 . S
H710 N707 0.984 . S
H711 N707 0.985 . S
H712 N706 0.984 . S
H713 N706 0.984 . S
H714 N702 0.984 . S
H715 N702 0.985 . S
C716 C717 1.363 . S
C716 C722 1.379 1_455 S
C716 N724 1.356 . S
C717 C716 1.363 . S
C717 C723 1.363 . S
C718 C719 1.363 . S
C718 C723 1.379 1_655 S
C718 N725 1.356 . S
C719 C718 1.363 . S
C719 C722 1.363 . S
N720 C722 1.356 . S
N720 H732 0.984 . S
N720 H733 0.985 . S
N721 C723 1.356 . S
N721 H726 0.984 . S
N721 H727 0.985 . S
C722 C716 1.379 1_655 S
C722 C719 1.363 . S
C722 N720 1.356 . S
C723 C717 1.363 . S
C723 C718 1.379 1_455 S
C723 N721 1.356 . S
N724 C716 1.356 . S
N724 H730 0.984 . S
N724 H731 0.984 . S
N725 C718 1.356 . S
N725 H728 0.984 . S
N725 H729 0.985 . S
H726 N721 0.984 . S
H727 N721 0.985 . S
H728 N725 0.984 . S
H729 N725 0.985 . S
H730 N724 0.984 . S
H731 N724 0.984 . S
H732 N720 0.984 . S
H733 N720 0.985 . S
C734 C735 1.363 . S
C734 C740 1.379 . S
C734 N742 1.356 . S
C735 C734 1.363 . S
C735 C741 1.363 . S
C736 C737 1.363 . S
C736 C741 1.379 . S
C736 N743 1.356 . S
C737 C736 1.363 . S
C737 C740 1.363 . S
N738 C740 1.356 . S
N738 H750 0.984 . S
N738 H751 0.985 . S
N739 C741 1.356 . S
N739 H744 0.984 . S
N739 H745 0.985 . S
C740 C734 1.379 . S
C740 C737 1.363 . S
C740 N738 1.356 . S
C741 C735 1.363 . S
C741 C736 1.379 . S
C741 N739 1.356 . S
N742 C734 1.356 . S
N742 H748 0.984 . S
N742 H749 0.984 . S
N743 C736 1.356 . S
N743 H746 0.984 . S
N743 H747 0.985 . S
H744 N739 0.984 . S
H745 N739 0.985 . S
H746 N743 0.984 . S
H747 N743 0.985 . S
H748 N742 0.984 . S
H749 N742 0.984 . S
H750 N738 0.984 . S
H751 N738 0.985 . S
C752 C753 1.363 . S
C752 C758 1.379 . S
C752 N760 1.356 . S
C753 C752 1.363 . S
C753 C759 1.363 . S
C754 C755 1.363 . S
C754 C759 1.379 . S
C754 N761 1.356 . S
C755 C754 1.363 . S
C755 C758 1.363 . S
N756 C758 1.356 . S
N756 H768 0.984 . S
N756 H769 0.985 . S
N757 C759 1.356 . S
N757 H762 0.984 . S
N757 H763 0.985 . S
C758 C752 1.379 . S
C758 C755 1.363 . S
C758 N756 1.356 . S
C759 C753 1.363 . S
C759 C754 1.379 . S
C759 N757 1.356 . S
N760 C752 1.356 . S
N760 H766 0.984 . S
N760 H767 0.984 . S
N761 C754 1.356 . S
N761 H764 0.984 . S
N761 H765 0.985 . S
H762 N757 0.984 . S
H763 N757 0.985 . S
H764 N761 0.984 . S
H765 N761 0.985 . S
H766 N760 0.984 . S
H767 N760 0.984 . S
H768 N756 0.984 . S
H769 N756 0.985 . S
C770 C771 1.363 . S
C770 C776 1.379 1_655 S
C770 N778 1.356 . S
C771 C770 1.363 . S
C771 C777 1.363 1_545 S
C772 C773 1.363 . S
C772 C777 1.379 1_455 S
C772 N779 1.356 . S
C773 C772 1.363 . S
C773 C776 1.363 1_565 S
N774 C776 1.356 . S
N774 H786 0.984 . S
N774 H787 0.985 . S
N775 C777 1.356 . S
N775 H780 0.984 . S
N775 H781 0.985 . S
C776 C770 1.379 1_455 S
C776 C773 1.363 1_545 S
C776 N774 1.356 . S
C777 C771 1.363 1_565 S
C777 C772 1.379 1_655 S
C777 N775 1.356 . S
N778 C770 1.356 . S
N778 H784 0.984 . S
N778 H785 0.984 . S
N779 C772 1.356 . S
N779 H782 0.984 . S
N779 H783 0.985 . S
H780 N775 0.984 . S
H781 N775 0.985 . S
H782 N779 0.984 . S
H783 N779 0.985 . S
H784 N778 0.984 . S
H785 N778 0.984 . S
H786 N774 0.984 . S
H787 N774 0.985 . S
C788 C789 1.363 . S
C788 C794 1.379 . S
C788 N796 1.356 . S
C789 C788 1.363 . S
C789 C795 1.363 . S
C790 C791 1.363 . S
C790 C795 1.379 . S
C790 N797 1.356 . S
C791 C790 1.363 . S
C791 C794 1.363 . S
N792 C794 1.356 . S
N792 H804 0.984 . S
N792 H805 0.985 . S
N793 C795 1.356 . S
N793 H798 0.984 . S
N793 H799 0.985 . S
C794 C788 1.379 . S
C794 C791 1.363 . S
C794 N792 1.356 . S
C795 C789 1.363 . S
C795 C790 1.379 . S
C795 N793 1.356 . S
N796 C788 1.356 . S
N796 H802 0.984 . S
N796 H803 0.984 . S
N797 C790 1.356 . S
N797 H800 0.984 . S
N797 H801 0.985 . S
H798 N793 0.984 . S
H799 N793 0.985 . S
H800 N797 0.984 . S
H801 N797 0.985 . S
H802 N796 0.984 . S
H803 N796 0.984 . S
H804 N792 0.984 . S
H805 N792 0.985 . S
C806 C807 1.363 1_545 S
C806 C812 1.379 . S
C806 N814 1.356 . S
C807 C806 1.363 1_565 S
C807 C813 1.363 . S
C808 C809 1.363 1_565 S
C808 C813 1.379 . S
C808 N815 1.356 . S
C809 C808 1.363 1_545 S
C809 C812 1.363 . S
N810 C812 1.356 . S
N810 H822 0.984 . S
N810 H823 0.985 . S
N811 C813 1.356 . S
N811 H816 0.984 . S
N811 H817 0.985 . S
C812 C806 1.379 . S
C812 C809 1.363 . S
C812 N810 1.356 . S
C813 C807 1.363 . S
C813 C808 1.379 . S
C813 N811 1.356 . S
N814 C806 1.356 . S
N814 H820 0.984 . S
N814 H821 0.984 1_545 S
N815 C808 1.356 . S
N815 H818 0.984 1_565 S
N815 H819 0.985 . S
H816 N811 0.984 . S
H817 N811 0.985 . S
H818 N815 0.984 1_545 S
H819 N815 0.985 . S
H820 N814 0.984 . S
H821 N814 0.984 1_565 S
H822 N810 0.984 . S
H823 N810 0.985 . S
C249 C0 1.583 1_545 S
C251 C49 1.622 . S
C267 C18 1.797 1_565 S
C269 C62 1.789 . S
C285 C104 1.622 . S
C287 C55 1.583 . S
C303 C73 1.797 . S
C305 C117 1.789 . S
C321 C93 1.583 . S
C323 C142 1.622 . S
C339 C155 1.789 . S
C341 C111 1.796 . S
C357 C148 1.583 . S
C359 C11 1.622 . S
C375 C166 1.796 . S
C377 C24 1.789 . S
C393 C173 1.622 . S
C395 C186 1.583 1_545 S
C411 C204 1.796 1_565 S
C413 C124 1.789 . S
C429 C228 1.622 . S
C431 C179 1.583 . S
C447 C241 1.789 . S
C449 C135 1.796 . S
C465 C217 1.583 . S
C467 C80 1.622 . S
C483 C31 1.789 . S
C485 C235 1.797 . S
C501 C197 1.622 . S
C503 C86 1.582 . S
C519 C210 1.789 . S
C521 C42 1.797 . S
C537 C10 0.961 . S
C539 C2 0.958 1_556 S
C555 C41 0.961 . S
C557 C33 0.961 . S
C573 C72 0.961 . S
C575 C64 0.961 . S
C591 C95 0.962 . S
C593 C103 0.961 . S
C609 C134 0.961 . S
C611 C126 0.961 . S
C627 C165 0.961 . S
C629 C157 0.961 . S
C645 C196 0.961 . S
C647 C188 0.961 . S
C663 C219 0.957 1_556 S
C665 C227 0.961 . S
C681 C244 1.464 . S
C683 C1 1.464 . S
C699 C27 1.464 . S
C701 C218 1.464 . S
C717 C58 1.464 . S
C719 C63 1.464 . S
C735 C213 1.464 . S
C737 C94 1.464 . S
C753 C120 1.464 . S
C755 C187 1.464 . S
C771 C156 1.464 . S
C773 C151 1.464 . S
C789 C182 1.464 . S
C791 C125 1.464 . S
C807 C89 1.464 . S
C809 C32 1.464 . S
