# Generated by pormake.
# Topology wio, (6)-cn, num edge types: 1
# Building blocks:
#     Node 0, Type 0, BuildingBlock: BETDAH_clean_sbu_0, # of connection points: 6
#     Node 1, Type 0, BuildingBlock: BETDAH_clean_sbu_0, # of connection points: 6
#     Node 2, Type 0, BuildingBlock: BETDAH_clean_sbu_0, # of connection points: 6
#     Node 3, Type 0, BuildingBlock: BETDAH_clean_sbu_0, # of connection points: 6
#     Node 4, Type 0, BuildingBlock: BETDAH_clean_sbu_0, # of connection points: 6
#     Node 5, Type 0, BuildingBlock: BETDAH_clean_sbu_0, # of connection points: 6
#     Node 6, Type 0, BuildingBlock: BETDAH_clean_sbu_0, # of connection points: 6
#     Node 7, Type 0, BuildingBlock: BETDAH_clean_sbu_0, # of connection points: 6
#     Node 8, Type 0, BuildingBlock: BETDAH_clean_sbu_0, # of connection points: 6
#     Node 9, Type 0, BuildingBlock: BETDAH_clean_sbu_0, # of connection points: 6
#     Node 10, Type 0, BuildingBlock: BETDAH_clean_sbu_0, # of connection points: 6
#     Node 11, Type 0, BuildingBlock: BETDAH_clean_sbu_0, # of connection points: 6
#     Node 12, Type 0, BuildingBlock: BETDAH_clean_sbu_0, # of connection points: 6
#     Node 13, Type 0, BuildingBlock: BETDAH_clean_sbu_0, # of connection points: 6
#     Node 14, Type 0, BuildingBlock: BETDAH_clean_sbu_0, # of connection points: 6
#     Node 15, Type 0, BuildingBlock: BETDAH_clean_sbu_0, # of connection points: 6
#     Node 16, Type 0, BuildingBlock: BETDAH_clean_sbu_0, # of connection points: 6
#     Node 17, Type 0, BuildingBlock: BETDAH_clean_sbu_0, # of connection points: 6
#     Node 18, Type 0, BuildingBlock: BETDAH_clean_sbu_0, # of connection points: 6
#     Node 19, Type 0, BuildingBlock: BETDAH_clean_sbu_0, # of connection points: 6
#     Node 20, Type 0, BuildingBlock: BETDAH_clean_sbu_0, # of connection points: 6
#     Node 21, Type 0, BuildingBlock: BETDAH_clean_sbu_0, # of connection points: 6
#     Node 22, Type 0, BuildingBlock: BETDAH_clean_sbu_0, # of connection points: 6
#     Node 23, Type 0, BuildingBlock: BETDAH_clean_sbu_0, # of connection points: 6
#     Node 24, Type 0, BuildingBlock: BETDAH_clean_sbu_0, # of connection points: 6
#     Node 25, Type 0, BuildingBlock: BETDAH_clean_sbu_0, # of connection points: 6
#     Node 26, Type 0, BuildingBlock: BETDAH_clean_sbu_0, # of connection points: 6
#     Node 27, Type 0, BuildingBlock: BETDAH_clean_sbu_0, # of connection points: 6
#     Node 28, Type 0, BuildingBlock: BETDAH_clean_sbu_0, # of connection points: 6
#     Node 29, Type 0, BuildingBlock: BETDAH_clean_sbu_0, # of connection points: 6
#     Node 30, Type 0, BuildingBlock: BETDAH_clean_sbu_0, # of connection points: 6
#     Node 31, Type 0, BuildingBlock: BETDAH_clean_sbu_0, # of connection points: 6
#     Edge 32, Type (0, 0), BuildingBlock: UVAHIK_clean_linker_0, # of connection points: 2
#     Edge 33, Type (0, 0), BuildingBlock: UVAHIK_clean_linker_0, # of connection points: 2
#     Edge 34, Type (0, 0), BuildingBlock: UVAHIK_clean_linker_0, # of connection points: 2
#     Edge 35, Type (0, 0), BuildingBlock: UVAHIK_clean_linker_0, # of connection points: 2
#     Edge 36, Type (0, 0), BuildingBlock: UVAHIK_clean_linker_0, # of connection points: 2
#     Edge 37, Type (0, 0), BuildingBlock: UVAHIK_clean_linker_0, # of connection points: 2
#     Edge 38, Type (0, 0), BuildingBlock: UVAHIK_clean_linker_0, # of connection points: 2
#     Edge 39, Type (0, 0), BuildingBlock: UVAHIK_clean_linker_0, # of connection points: 2
#     Edge 40, Type (0, 0), BuildingBlock: UVAHIK_clean_linker_0, # of connection points: 2
#     Edge 41, Type (0, 0), BuildingBlock: UVAHIK_clean_linker_0, # of connection points: 2
#     Edge 42, Type (0, 0), BuildingBlock: UVAHIK_clean_linker_0, # of connection points: 2
#     Edge 43, Type (0, 0), BuildingBlock: UVAHIK_clean_linker_0, # of connection points: 2
#     Edge 44, Type (0, 0), BuildingBlock: UVAHIK_clean_linker_0, # of connection points: 2
#     Edge 45, Type (0, 0), BuildingBlock: UVAHIK_clean_linker_0, # of connection points: 2
#     Edge 46, Type (0, 0), BuildingBlock: UVAHIK_clean_linker_0, # of connection points: 2
#     Edge 47, Type (0, 0), BuildingBlock: UVAHIK_clean_linker_0, # of connection points: 2
#     Edge 48, Type (0, 0), BuildingBlock: UVAHIK_clean_linker_0, # of connection points: 2
#     Edge 49, Type (0, 0), BuildingBlock: UVAHIK_clean_linker_0, # of connection points: 2
#     Edge 50, Type (0, 0), BuildingBlock: UVAHIK_clean_linker_0, # of connection points: 2
#     Edge 51, Type (0, 0), BuildingBlock: UVAHIK_clean_linker_0, # of connection points: 2
#     Edge 52, Type (0, 0), BuildingBlock: UVAHIK_clean_linker_0, # of connection points: 2
#     Edge 53, Type (0, 0), BuildingBlock: UVAHIK_clean_linker_0, # of connection points: 2
#     Edge 54, Type (0, 0), BuildingBlock: UVAHIK_clean_linker_0, # of connection points: 2
#     Edge 55, Type (0, 0), BuildingBlock: UVAHIK_clean_linker_0, # of connection points: 2
#     Edge 56, Type (0, 0), BuildingBlock: UVAHIK_clean_linker_0, # of connection points: 2
#     Edge 57, Type (0, 0), BuildingBlock: UVAHIK_clean_linker_0, # of connection points: 2
#     Edge 58, Type (0, 0), BuildingBlock: UVAHIK_clean_linker_0, # of connection points: 2
#     Edge 59, Type (0, 0), BuildingBlock: UVAHIK_clean_linker_0, # of connection points: 2
#     Edge 60, Type (0, 0), BuildingBlock: UVAHIK_clean_linker_0, # of connection points: 2
#     Edge 61, Type (0, 0), BuildingBlock: UVAHIK_clean_linker_0, # of connection points: 2
#     Edge 62, Type (0, 0), BuildingBlock: UVAHIK_clean_linker_0, # of connection points: 2
#     Edge 63, Type (0, 0), BuildingBlock: UVAHIK_clean_linker_0, # of connection points: 2
#     Edge 64, Type (0, 0), BuildingBlock: UVAHIK_clean_linker_0, # of connection points: 2
#     Edge 65, Type (0, 0), BuildingBlock: UVAHIK_clean_linker_0, # of connection points: 2
#     Edge 66, Type (0, 0), BuildingBlock: UVAHIK_clean_linker_0, # of connection points: 2
#     Edge 67, Type (0, 0), BuildingBlock: UVAHIK_clean_linker_0, # of connection points: 2
#     Edge 68, Type (0, 0), BuildingBlock: UVAHIK_clean_linker_0, # of connection points: 2
#     Edge 69, Type (0, 0), BuildingBlock: UVAHIK_clean_linker_0, # of connection points: 2
#     Edge 70, Type (0, 0), BuildingBlock: UVAHIK_clean_linker_0, # of connection points: 2
#     Edge 71, Type (0, 0), BuildingBlock: UVAHIK_clean_linker_0, # of connection points: 2
#     Edge 72, Type (0, 0), BuildingBlock: UVAHIK_clean_linker_0, # of connection points: 2
#     Edge 73, Type (0, 0), BuildingBlock: UVAHIK_clean_linker_0, # of connection points: 2
#     Edge 74, Type (0, 0), BuildingBlock: UVAHIK_clean_linker_0, # of connection points: 2
#     Edge 75, Type (0, 0), BuildingBlock: UVAHIK_clean_linker_0, # of connection points: 2
#     Edge 76, Type (0, 0), BuildingBlock: UVAHIK_clean_linker_0, # of connection points: 2
#     Edge 77, Type (0, 0), BuildingBlock: UVAHIK_clean_linker_0, # of connection points: 2
#     Edge 78, Type (0, 0), BuildingBlock: UVAHIK_clean_linker_0, # of connection points: 2
#     Edge 79, Type (0, 0), BuildingBlock: UVAHIK_clean_linker_0, # of connection points: 2
#     Edge 80, Type (0, 0), BuildingBlock: UVAHIK_clean_linker_0, # of connection points: 2
#     Edge 81, Type (0, 0), BuildingBlock: UVAHIK_clean_linker_0, # of connection points: 2
#     Edge 82, Type (0, 0), BuildingBlock: UVAHIK_clean_linker_0, # of connection points: 2
#     Edge 83, Type (0, 0), BuildingBlock: UVAHIK_clean_linker_0, # of connection points: 2
#     Edge 84, Type (0, 0), BuildingBlock: UVAHIK_clean_linker_0, # of connection points: 2
#     Edge 85, Type (0, 0), BuildingBlock: UVAHIK_clean_linker_0, # of connection points: 2
#     Edge 86, Type (0, 0), BuildingBlock: UVAHIK_clean_linker_0, # of connection points: 2
#     Edge 87, Type (0, 0), BuildingBlock: UVAHIK_clean_linker_0, # of connection points: 2
#     Edge 88, Type (0, 0), BuildingBlock: UVAHIK_clean_linker_0, # of connection points: 2
#     Edge 89, Type (0, 0), BuildingBlock: UVAHIK_clean_linker_0, # of connection points: 2
#     Edge 90, Type (0, 0), BuildingBlock: UVAHIK_clean_linker_0, # of connection points: 2
#     Edge 91, Type (0, 0), BuildingBlock: UVAHIK_clean_linker_0, # of connection points: 2
#     Edge 92, Type (0, 0), BuildingBlock: UVAHIK_clean_linker_0, # of connection points: 2
#     Edge 93, Type (0, 0), BuildingBlock: UVAHIK_clean_linker_0, # of connection points: 2
#     Edge 94, Type (0, 0), BuildingBlock: UVAHIK_clean_linker_0, # of connection points: 2
#     Edge 95, Type (0, 0), BuildingBlock: UVAHIK_clean_linker_0, # of connection points: 2
#     Edge 96, Type (0, 0), BuildingBlock: UVAHIK_clean_linker_0, # of connection points: 2
#     Edge 97, Type (0, 0), BuildingBlock: UVAHIK_clean_linker_0, # of connection points: 2
#     Edge 98, Type (0, 0), BuildingBlock: UVAHIK_clean_linker_0, # of connection points: 2
#     Edge 99, Type (0, 0), BuildingBlock: UVAHIK_clean_linker_0, # of connection points: 2
#     Edge 100, Type (0, 0), BuildingBlock: UVAHIK_clean_linker_0, # of connection points: 2
#     Edge 101, Type (0, 0), BuildingBlock: UVAHIK_clean_linker_0, # of connection points: 2
#     Edge 102, Type (0, 0), BuildingBlock: UVAHIK_clean_linker_0, # of connection points: 2
#     Edge 103, Type (0, 0), BuildingBlock: UVAHIK_clean_linker_0, # of connection points: 2
#     Edge 104, Type (0, 0), BuildingBlock: UVAHIK_clean_linker_0, # of connection points: 2
#     Edge 105, Type (0, 0), BuildingBlock: UVAHIK_clean_linker_0, # of connection points: 2
#     Edge 106, Type (0, 0), BuildingBlock: UVAHIK_clean_linker_0, # of connection points: 2
#     Edge 107, Type (0, 0), BuildingBlock: UVAHIK_clean_linker_0, # of connection points: 2
#     Edge 108, Type (0, 0), BuildingBlock: UVAHIK_clean_linker_0, # of connection points: 2
#     Edge 109, Type (0, 0), BuildingBlock: UVAHIK_clean_linker_0, # of connection points: 2
#     Edge 110, Type (0, 0), BuildingBlock: UVAHIK_clean_linker_0, # of connection points: 2
#     Edge 111, Type (0, 0), BuildingBlock: UVAHIK_clean_linker_0, # of connection points: 2
#     Edge 112, Type (0, 0), BuildingBlock: UVAHIK_clean_linker_0, # of connection points: 2
#     Edge 113, Type (0, 0), BuildingBlock: UVAHIK_clean_linker_0, # of connection points: 2
#     Edge 114, Type (0, 0), BuildingBlock: UVAHIK_clean_linker_0, # of connection points: 2
#     Edge 115, Type (0, 0), BuildingBlock: UVAHIK_clean_linker_0, # of connection points: 2
#     Edge 116, Type (0, 0), BuildingBlock: UVAHIK_clean_linker_0, # of connection points: 2
#     Edge 117, Type (0, 0), BuildingBlock: UVAHIK_clean_linker_0, # of connection points: 2
#     Edge 118, Type (0, 0), BuildingBlock: UVAHIK_clean_linker_0, # of connection points: 2
#     Edge 119, Type (0, 0), BuildingBlock: UVAHIK_clean_linker_0, # of connection points: 2
#     Edge 120, Type (0, 0), BuildingBlock: UVAHIK_clean_linker_0, # of connection points: 2
#     Edge 121, Type (0, 0), BuildingBlock: UVAHIK_clean_linker_0, # of connection points: 2
#     Edge 122, Type (0, 0), BuildingBlock: UVAHIK_clean_linker_0, # of connection points: 2
#     Edge 123, Type (0, 0), BuildingBlock: UVAHIK_clean_linker_0, # of connection points: 2
#     Edge 124, Type (0, 0), BuildingBlock: UVAHIK_clean_linker_0, # of connection points: 2
#     Edge 125, Type (0, 0), BuildingBlock: UVAHIK_clean_linker_0, # of connection points: 2
#     Edge 126, Type (0, 0), BuildingBlock: UVAHIK_clean_linker_0, # of connection points: 2
#     Edge 127, Type (0, 0), BuildingBlock: UVAHIK_clean_linker_0, # of connection points: 2
# Relax obj value: 0.189
# Max RMSD: 0.228
# Mean RMSD: 0.228
data_MOF--net-wio--node1-BETDAH_clean_sbu_0--edge1-UVAHIK_clean_linker_0
_symmetry_space_group_name_H-M    P1
_symmetry_Int_Tables_number       1
_symmetry_cell_setting            triclinic
loop_
_symmetry_equiv_pos_as_xyz
'x, y, z'
_cell_length_a     75.607075
_cell_length_b     75.617069
_cell_length_c     68.662892
_cell_angle_alpha  89.976425
_cell_angle_beta   89.999899
_cell_angle_gamma 90.005216
loop_
_atom_site_label
_atom_site_type_symbol
_atom_site_fract_x
_atom_site_fract_y
_atom_site_fract_z
_atom_type_partial_charge
Ho0 Ho 0.15285 0.12022 0.27779 0.0
Ho1 Ho 0.11351 0.12796 0.28586 0.0
C2 C 0.12787 0.13647 0.24313 0.0
C3 C 0.18351 0.11084 0.26425 0.0
C4 C 0.19569 0.11398 0.24767 0.0
C5 C 0.19084 0.11029 0.22832 0.0
C6 C 0.20325 0.11184 0.21322 0.0
C7 C 0.22075 0.11718 0.21713 0.0
C8 C 0.22539 0.12128 0.23645 0.0
C9 C 0.21303 0.11964 0.25151 0.0
C10 C 0.14611 0.15027 0.29761 0.0
C11 C 0.13692 0.10534 0.31779 0.0
C12 C 0.08446 0.14036 0.30067 0.0
C13 C 0.07242 0.1386 0.31751 0.0
C14 C 0.06298 0.15352 0.32368 0.0
C15 C 0.05034 0.15219 0.33848 0.0
C16 C 0.0468 0.13585 0.34748 0.0
C17 C 0.05674 0.12096 0.34171 0.0
C18 C 0.06943 0.12232 0.32684 0.0
C19 C 0.11997 0.09665 0.26823 0.0
O20 O 0.14277 0.1286 0.24833 0.0
O21 O 0.11504 0.13979 0.25577 0.0
O22 O 0.18128 0.12385 0.27654 0.0
O23 O 0.16886 0.10215 0.26086 0.0
O24 O 0.1596 0.1401 0.30073 0.0
O25 O 0.13723 0.14454 0.28331 0.0
O26 O 0.12263 0.11515 0.31432 0.0
O27 O 0.14967 0.10366 0.30466 0.0
O28 O 0.085 0.12725 0.28826 0.0
O29 O 0.10004 0.14726 0.30393 0.0
O30 O 0.1056 0.1058 0.26567 0.0
O31 O 0.12918 0.10393 0.28119 0.0
H32 H 0.17756 0.10593 0.22485 0.0
H33 H 0.19916 0.10879 0.19849 0.0
H34 H 0.23876 0.12522 0.24006 0.0
H35 H 0.21717 0.12241 0.26631 0.0
H36 H 0.06513 0.16623 0.31676 0.0
H37 H 0.04323 0.164 0.34277 0.0
H38 H 0.05432 0.10815 0.34823 0.0
H39 H 0.07661 0.11061 0.32236 0.0
Ho40 Ho 0.13433 0.90244 0.52738 0.0
Ho41 Ho 0.12592 0.86332 0.53572 0.0
C42 C 0.11785 0.87756 0.49291 0.0
C43 C 0.14414 0.93307 0.51411 0.0
C44 C 0.14297 0.94465 0.49681 0.0
C45 C 0.12756 0.9458 0.48543 0.0
C46 C 0.12648 0.95809 0.47014 0.0
C47 C 0.14081 0.96937 0.46589 0.0
C48 C 0.15633 0.96781 0.47708 0.0
C49 C 0.15737 0.95561 0.49235 0.0
C50 C 0.10436 0.89624 0.54756 0.0
C51 C 0.14904 0.88656 0.56748 0.0
C52 C 0.11315 0.83475 0.55126 0.0
C53 C 0.11599 0.82264 0.56788 0.0
C54 C 0.10126 0.81466 0.57667 0.0
C55 C 0.10344 0.80218 0.59154 0.0
C56 C 0.12045 0.79734 0.59795 0.0
C57 C 0.13521 0.8057 0.5894 0.0
C58 C 0.133 0.81825 0.57455 0.0
C59 C 0.15743 0.869 0.51814 0.0
O60 O 0.12644 0.89211 0.4979 0.0
O61 O 0.11385 0.8651 0.50577 0.0
O62 O 0.12962 0.93047 0.52405 0.0
O63 O 0.15377 0.91878 0.5126 0.0
O64 O 0.11491 0.90943 0.55071 0.0
O65 O 0.10975 0.88729 0.53316 0.0
O66 O 0.13933 0.87222 0.56394 0.0
O67 O 0.15054 0.89944 0.55449 0.0
O68 O 0.12509 0.83478 0.53747 0.0
O69 O 0.10733 0.85062 0.55531 0.0
O70 O 0.14806 0.85474 0.51583 0.0
O71 O 0.15023 0.87849 0.53091 0.0
H72 H 0.11629 0.93743 0.48854 0.0
H73 H 0.11442 0.95877 0.46167 0.0
H74 H 0.16754 0.9764 0.47445 0.0
H75 H 0.16934 0.95501 0.501 0.0
H76 H 0.08802 0.81782 0.57173 0.0
H77 H 0.09179 0.79591 0.59757 0.0
H78 H 0.14848 0.80248 0.59415 0.0
H79 H 0.14458 0.82433 0.56809 0.0
Ho80 Ho 0.35265 0.88367 0.77678 0.0
Ho81 Ho 0.39164 0.87544 0.78597 0.0
C82 C 0.37808 0.86704 0.74286 0.0
C83 C 0.32252 0.89374 0.76245 0.0
C84 C 0.31016 0.89017 0.74612 0.0
C85 C 0.31447 0.89443 0.72674 0.0
C86 C 0.30185 0.89265 0.7119 0.0
C87 C 0.28466 0.88655 0.71608 0.0
C88 C 0.28057 0.88185 0.73538 0.0
C89 C 0.29314 0.88371 0.75021 0.0
C90 C 0.35854 0.8532 0.79622 0.0
C91 C 0.3679 0.89828 0.81727 0.0
C92 C 0.42018 0.86253 0.80143 0.0
C93 C 0.43241 0.86464 0.81804 0.0
C94 C 0.44188 0.84983 0.82449 0.0
C95 C 0.45464 0.85146 0.83912 0.0
C96 C 0.45827 0.86798 0.84765 0.0
C97 C 0.4483 0.88276 0.84159 0.0
C98 C 0.43549 0.8811 0.82688 0.0
C99 C 0.38603 0.907 0.76847 0.0
O100 O 0.36312 0.87503 0.74757 0.0
O101 O 0.39056 0.86363 0.75589 0.0
O102 O 0.32407 0.8815 0.77579 0.0
O103 O 0.3376 0.90141 0.75843 0.0
O104 O 0.345 0.86337 0.79898 0.0
O105 O 0.36788 0.8591 0.78238 0.0
O106 O 0.38208 0.88822 0.81424 0.0
O107 O 0.35557 0.90022 0.8037 0.0
O108 O 0.42016 0.87498 0.78821 0.0
O109 O 0.40431 0.85657 0.80526 0.0
O110 O 0.4004 0.89777 0.76641 0.0
O111 O 0.37639 0.89969 0.78102 0.0
H112 H 0.32745 0.89946 0.72305 0.0
H113 H 0.30552 0.89618 0.69716 0.0
H114 H 0.26743 0.87731 0.73919 0.0
H115 H 0.28937 0.88052 0.76503 0.0
H116 H 0.43964 0.83699 0.81793 0.0
H117 H 0.46177 0.83974 0.84365 0.0
H118 H 0.45079 0.8957 0.84775 0.0
H119 H 0.42827 0.89272 0.82216 0.0
Ho120 Ho 0.37004 0.10171 0.02659 0.0
Ho121 Ho 0.3784 0.14069 0.03602 0.0
C122 C 0.38702 0.12725 0.99289 0.0
C123 C 0.35986 0.07171 1.01207 0.0
C124 C 0.36357 0.05929 0.99585 0.0
C125 C 0.36021 0.0638 0.97631 0.0
C126 C 0.36208 0.05117 0.96152 0.0
C127 C 0.36738 0.03376 0.9659 0.0
C128 C 0.37119 0.02944 0.98538 0.0
C129 C 0.36923 0.04203 1.00016 0.0
C130 C 0.40044 0.10743 0.0462 0.0
C131 C 0.35523 0.1169 0.06706 0.0
C132 C 0.39127 0.169 0.05199 0.0
C133 C 0.38855 0.18083 0.06883 0.0
C134 C 0.40298 0.19045 0.07604 0.0
C135 C 0.40076 0.20253 0.09127 0.0
C136 C 0.38399 0.2053 0.09963 0.0
C137 C 0.36957 0.19535 0.09258 0.0
C138 C 0.37183 0.18319 0.07735 0.0
C139 C 0.34687 0.13524 0.01839 0.0
O140 O 0.37893 0.11229 0.99749 0.0
O141 O 0.3904 0.13966 1.00601 0.0
O142 O 0.37187 0.07311 0.02567 0.0
O143 O 0.35247 0.08688 1.00783 0.0
O144 O 0.39025 0.09388 0.04881 0.0
O145 O 0.39461 0.11685 0.03239 0.0
O146 O 0.3654 0.13103 0.06415 0.0
O147 O 0.3533 0.10463 0.05341 0.0
O148 O 0.37917 0.16919 0.03838 0.0
O149 O 0.39707 0.15307 0.05574 0.0
O150 O 0.35609 0.14965 0.01652 0.0
O151 O 0.35416 0.12552 0.03088 0.0
H152 H 0.35582 0.07698 0.97246 0.0
H153 H 0.35925 0.055 0.94664 0.0
H154 H 0.37509 0.01614 0.98933 0.0
H155 H 0.37172 0.03812 0.01509 0.0
H156 H 0.41598 0.18884 0.06964 0.0
H157 H 0.41211 0.21007 0.09611 0.0
H158 H 0.35652 0.19696 0.09885 0.0
H159 H 0.36052 0.17581 0.0721 0.0
Ho160 Ho 0.15309 0.88383 0.24978 0.0
Ho161 Ho 0.11387 0.87602 0.24162 0.0
C162 C 0.12826 0.8671 0.28418 0.0
C163 C 0.18369 0.89327 0.26342 0.0
C164 C 0.19591 0.89004 0.27995 0.0
C165 C 0.19125 0.89406 0.29929 0.0
C166 C 0.20373 0.89247 0.3143 0.0
C167 C 0.22109 0.88676 0.31034 0.0
C168 C 0.22553 0.88232 0.29106 0.0
C169 C 0.21311 0.884 0.27606 0.0
C170 C 0.14648 0.85377 0.2299 0.0
C171 C 0.13725 0.89894 0.20986 0.0
C172 C 0.08481 0.86423 0.22627 0.0
C173 C 0.07209 0.86812 0.21036 0.0
C174 C 0.07685 0.86687 0.19059 0.0
C175 C 0.06415 0.86931 0.17593 0.0
C176 C 0.04644 0.87311 0.18069 0.0
C177 C 0.04181 0.87456 0.20048 0.0
C178 C 0.05445 0.87204 0.21509 0.0
C179 C 0.12012 0.90746 0.25916 0.0
O180 O 0.14299 0.87538 0.27916 0.0
O181 O 0.11562 0.86355 0.27138 0.0
O182 O 0.18154 0.88039 0.25096 0.0
O183 O 0.16898 0.90183 0.26693 0.0
O184 O 0.15994 0.86398 0.22683 0.0
O185 O 0.13755 0.85943 0.24419 0.0
O186 O 0.12294 0.88915 0.21329 0.0
O187 O 0.14999 0.90052 0.223 0.0
O188 O 0.08522 0.87529 0.2409 0.0
O189 O 0.10055 0.85849 0.22148 0.0
O190 O 0.10574 0.89832 0.26153 0.0
O191 O 0.12942 0.90013 0.24633 0.0
H192 H 0.17809 0.89874 0.30279 0.0
H193 H 0.1998 0.8958 0.32902 0.0
H194 H 0.23881 0.8781 0.28741 0.0
H195 H 0.21711 0.88098 0.26128 0.0
H196 H 0.09032 0.86381 0.18642 0.0
H197 H 0.06823 0.86828 0.16085 0.0
H198 H 0.02827 0.87722 0.20472 0.0
H199 H 0.05035 0.87286 0.23019 0.0
Ho200 Ho 0.37012 0.90229 0.50068 0.0
Ho201 Ho 0.37826 0.86316 0.49181 0.0
C202 C 0.38649 0.87689 0.5348 0.0
C203 C 0.3603 0.93282 0.51419 0.0
C204 C 0.36167 0.94439 0.53146 0.0
C205 C 0.34713 0.95497 0.53644 0.0
C206 C 0.34827 0.96711 0.55174 0.0
C207 C 0.36403 0.969 0.56244 0.0
C208 C 0.37853 0.95813 0.55764 0.0
C209 C 0.37735 0.9459 0.54232 0.0
C210 C 0.40011 0.89606 0.48054 0.0
C211 C 0.35551 0.88687 0.46027 0.0
C212 C 0.39094 0.8346 0.4762 0.0
C213 C 0.38829 0.82283 0.45929 0.0
C214 C 0.40268 0.81304 0.45228 0.0
C215 C 0.4005 0.80103 0.43698 0.0
C216 C 0.38381 0.79849 0.42835 0.0
C217 C 0.36943 0.80861 0.4352 0.0
C218 C 0.37166 0.82071 0.4505 0.0
C219 C 0.34677 0.86893 0.50939 0.0
O220 O 0.37812 0.89166 0.53008 0.0
O221 O 0.39028 0.86454 0.52175 0.0
O222 O 0.37465 0.93036 0.5039 0.0
O223 O 0.35084 0.91843 0.51594 0.0
O224 O 0.38973 0.9094 0.47753 0.0
O225 O 0.39455 0.887 0.49478 0.0
O226 O 0.36527 0.87253 0.46358 0.0
O227 O 0.35388 0.89953 0.47351 0.0
O228 O 0.37859 0.83465 0.48954 0.0
O229 O 0.39713 0.85041 0.4726 0.0
O230 O 0.35602 0.85458 0.51156 0.0
O231 O 0.35409 0.8785 0.49676 0.0
H232 H 0.33494 0.9541 0.52819 0.0
H233 H 0.33692 0.97539 0.55481 0.0
H234 H 0.3908 0.95907 0.56573 0.0
H235 H 0.38875 0.93783 0.5388 0.0
H236 H 0.41562 0.81447 0.45889 0.0
H237 H 0.41181 0.79335 0.43229 0.0
H238 H 0.35644 0.80719 0.42873 0.0
H239 H 0.36037 0.82823 0.45559 0.0
Ho240 Ho 0.35345 0.11958 0.75121 0.0
Ho241 Ho 0.39239 0.12785 0.74164 0.0
C242 C 0.37909 0.13647 0.78482 0.0
C243 C 0.32349 0.10941 0.76591 0.0
C244 C 0.311 0.11319 0.78207 0.0
C245 C 0.31509 0.10901 0.80153 0.0
C246 C 0.30232 0.11089 0.8162 0.0
C247 C 0.28519 0.11701 0.81177 0.0
C248 C 0.28132 0.12164 0.79239 0.0
C249 C 0.29404 0.11968 0.77773 0.0
C250 C 0.35915 0.15004 0.73166 0.0
C251 C 0.36842 0.10481 0.71066 0.0
C252 C 0.42066 0.14058 0.72541 0.0
C253 C 0.43262 0.13764 0.70869 0.0
C254 C 0.44068 0.1523 0.69986 0.0
C255 C 0.45307 0.15002 0.68492 0.0
C256 C 0.45772 0.13297 0.67847 0.0
C257 C 0.44927 0.11829 0.68706 0.0
C258 C 0.4368 0.1206 0.70199 0.0
C259 C 0.38695 0.09627 0.7592 0.0
O260 O 0.36409 0.12846 0.78026 0.0
O261 O 0.39151 0.13981 0.77168 0.0
O262 O 0.32485 0.12129 0.75215 0.0
O263 O 0.33871 0.10214 0.77022 0.0
O264 O 0.34555 0.13989 0.72915 0.0
O265 O 0.36863 0.14416 0.74541 0.0
O266 O 0.38267 0.1148 0.71358 0.0
O267 O 0.35615 0.10296 0.72431 0.0
O268 O 0.42089 0.12881 0.73938 0.0
O269 O 0.40469 0.14623 0.72149 0.0
O270 O 0.40138 0.10547 0.76101 0.0
O271 O 0.37718 0.10361 0.74678 0.0
H272 H 0.32801 0.10394 0.80541 0.0
H273 H 0.30582 0.10741 0.831 0.0
H274 H 0.26823 0.12617 0.78838 0.0
H275 H 0.29042 0.12279 0.76285 0.0
H276 H 0.43768 0.16556 0.70483 0.0
H277 H 0.45942 0.16162 0.67887 0.0
H278 H 0.45233 0.10499 0.68228 0.0
H279 H 0.43066 0.10907 0.70848 0.0
Ho280 Ho 0.13422 0.10179 0.99975 0.0
Ho281 Ho 0.12622 0.1409 0.99142 0.0
C282 C 0.11763 0.12674 0.03419 0.0
C283 C 0.14387 0.07134 0.0136 0.0
C284 C 0.14046 0.05908 0.03005 0.0
C285 C 0.14415 0.06375 0.04946 0.0
C286 C 0.14242 0.05126 0.06444 0.0
C287 C 0.13692 0.03385 0.06037 0.0
C288 C 0.13279 0.02939 0.04101 0.0
C289 C 0.13461 0.04183 0.02605 0.0
C290 C 0.10395 0.10814 0.98011 0.0
C291 C 0.14909 0.11749 0.95971 0.0
C292 C 0.11402 0.16969 0.97584 0.0
C293 C 0.11666 0.1816 0.95891 0.0
C294 C 0.1023 0.18513 0.94655 0.0
C295 C 0.10375 0.19762 0.9316 0.0
C296 C 0.11962 0.20697 0.92864 0.0
C297 C 0.13421 0.20302 0.94065 0.0
C298 C 0.13274 0.1905 0.95565 0.0
C299 C 0.15765 0.13487 1.00901 0.0
O300 O 0.1257 0.11191 0.02911 0.0
O301 O 0.1142 0.13945 0.02144 0.0
O302 O 0.13123 0.07329 1.00079 0.0
O303 O 0.15212 0.08617 0.01733 0.0
O304 O 0.1142 0.09471 0.97705 0.0
O305 O 0.1097 0.11717 0.99428 0.0
O306 O 0.13915 0.1317 0.96305 0.0
O307 O 0.15087 0.10488 0.97296 0.0
O308 O 0.12622 0.16945 0.98935 0.0
O309 O 0.10751 0.15399 0.9723 0.0
O310 O 0.14837 0.14917 1.01144 0.0
O311 O 0.15041 0.12551 0.99615 0.0
H312 H 0.14866 0.07695 0.05306 0.0
H313 H 0.1455 0.0552 0.07922 0.0
H314 H 0.12873 0.01608 0.03729 0.0
H315 H 0.13184 0.03782 1.01121 0.0
H316 H 0.08976 0.17848 0.94874 0.0
H317 H 0.09235 0.2001 0.92245 0.0
H318 H 0.14659 0.21004 0.9389 0.0
H319 H 0.14406 0.18811 0.96494 0.0
Ho320 Ho 0.89101 0.87615 0.74192 0.0
Ho321 Ho 0.85132 0.88298 0.74896 0.0
C322 C 0.86764 0.89798 0.70916 0.0
C323 C 0.92072 0.8651 0.72743 0.0
C324 C 0.93329 0.86882 0.71134 0.0
C325 C 0.9284 0.8673 0.69163 0.0
C326 C 0.94098 0.86966 0.67682 0.0
C327 C 0.95871 0.87365 0.68138 0.0
C328 C 0.96346 0.87537 0.7011 0.0
C329 C 0.95093 0.87294 0.71586 0.0
C330 C 0.88326 0.90747 0.75889 0.0
C331 C 0.87603 0.86742 0.78422 0.0
C332 C 0.82019 0.89178 0.76158 0.0
C333 C 0.80815 0.8893 0.77839 0.0
C334 C 0.81301 0.89397 0.79749 0.0
C335 C 0.80073 0.89271 0.81275 0.0
C336 C 0.78338 0.88669 0.80926 0.0
C337 C 0.77874 0.8817 0.7902 0.0
C338 C 0.79095 0.88305 0.77498 0.0
C339 C 0.85921 0.85323 0.72919 0.0
O340 O 0.88221 0.88879 0.71321 0.0
O341 O 0.85443 0.89917 0.7218 0.0
O342 O 0.91967 0.87684 0.74136 0.0
O343 O 0.90531 0.85833 0.72294 0.0
O344 O 0.89782 0.89881 0.76207 0.0
O345 O 0.87462 0.89972 0.74584 0.0
O346 O 0.86124 0.87536 0.77876 0.0
O347 O 0.88894 0.86392 0.77174 0.0
O348 O 0.82316 0.87792 0.75068 0.0
O349 O 0.83434 0.90153 0.76404 0.0
O350 O 0.84556 0.8631 0.72575 0.0
O351 O 0.86761 0.85905 0.7438 0.0
H352 H 0.91491 0.86412 0.68762 0.0
H353 H 0.93681 0.86842 0.66179 0.0
H354 H 0.977 0.87818 0.70519 0.0
H355 H 0.95512 0.87398 0.73091 0.0
H356 H 0.8262 0.8988 0.8006 0.0
H357 H 0.80481 0.89648 0.82729 0.0
H358 H 0.76546 0.87724 0.7869 0.0
H359 H 0.78682 0.8795 0.76038 0.0
Ho360 Ho 0.87842 0.14099 0.49201 0.0
Ho361 Ho 0.87072 0.10173 0.49997 0.0
C362 C 0.85534 0.11771 0.46028 0.0
C363 C 0.89015 0.17007 0.47658 0.0
C364 C 0.8863 0.18261 0.46045 0.0
C365 C 0.88865 0.17794 0.44078 0.0
C366 C 0.88622 0.19051 0.42597 0.0
C367 C 0.88135 0.20802 0.43047 0.0
C368 C 0.87883 0.21256 0.45014 0.0
C369 C 0.88134 0.20005 0.46492 0.0
C370 C 0.84714 0.13473 0.50976 0.0
C371 C 0.88723 0.1265 0.53456 0.0
C372 C 0.8617 0.07089 0.51334 0.0
C373 C 0.86486 0.05867 0.5299 0.0
C374 C 0.85986 0.06293 0.54907 0.0
C375 C 0.86142 0.05038 0.56403 0.0
C376 C 0.86805 0.03333 0.56018 0.0
C377 C 0.87344 0.0293 0.54108 0.0
C378 C 0.8718 0.04179 0.52614 0.0
C379 C 0.90062 0.10867 0.47988 0.0
O380 O 0.86511 0.13202 0.46375 0.0
O381 O 0.85386 0.10488 0.47333 0.0
O382 O 0.87891 0.16963 0.49105 0.0
O383 O 0.89614 0.15435 0.47206 0.0
O384 O 0.85633 0.14908 0.51213 0.0
O385 O 0.85432 0.12539 0.49684 0.0
O386 O 0.879 0.11178 0.52944 0.0
O387 O 0.8908 0.1392 0.52183 0.0
O388 O 0.8748 0.07338 0.50122 0.0
O389 O 0.85273 0.08539 0.51666 0.0
O390 O 0.89034 0.09531 0.47659 0.0
O391 O 0.89504 0.11733 0.49439 0.0
H392 H 0.89255 0.16464 0.4368 0.0
H393 H 0.88809 0.18649 0.41097 0.0
H394 H 0.87535 0.22595 0.45421 0.0
H395 H 0.87968 0.20412 0.47993 0.0
H396 H 0.85446 0.07583 0.55248 0.0
H397 H 0.85734 0.05401 0.57861 0.0
H398 H 0.87838 0.01626 0.53749 0.0
H399 H 0.87557 0.03807 0.51148 0.0
Ho400 Ho 0.61316 0.12751 0.24141 0.0
Ho401 Ho 0.65263 0.12039 0.24985 0.0
C402 C 0.63724 0.10566 0.2094 0.0
C403 C 0.58409 0.13928 0.22604 0.0
C404 C 0.57218 0.13641 0.20923 0.0
C405 C 0.56399 0.15109 0.20058 0.0
C406 C 0.55162 0.14886 0.18561 0.0
C407 C 0.54711 0.13185 0.17894 0.0
C408 C 0.55569 0.11715 0.18734 0.0
C409 C 0.56813 0.1194 0.2023 0.0
C410 C 0.62022 0.09604 0.25842 0.0
C411 C 0.62703 0.13611 0.28429 0.0
C412 C 0.68324 0.11107 0.26352 0.0
C413 C 0.69539 0.11416 0.28015 0.0
C414 C 0.69092 0.1094 0.29934 0.0
C415 C 0.70336 0.11099 0.3144 0.0
C416 C 0.72052 0.1174 0.31063 0.0
C417 C 0.72478 0.12251 0.29149 0.0
C418 C 0.71239 0.12085 0.27646 0.0
C419 C 0.64549 0.1505 0.23032 0.0
O420 O 0.62267 0.11501 0.21295 0.0
O421 O 0.65002 0.10425 0.22254 0.0
O422 O 0.58463 0.12694 0.23939 0.0
O423 O 0.59967 0.14602 0.22235 0.0
O424 O 0.60562 0.10478 0.26114 0.0
O425 O 0.62931 0.10383 0.24575 0.0
O426 O 0.64212 0.12843 0.27932 0.0
O427 O 0.61435 0.13935 0.27144 0.0
O428 O 0.68099 0.12418 0.25135 0.0
O429 O 0.66863 0.10223 0.26672 0.0
O430 O 0.6593 0.14072 0.22736 0.0
O431 O 0.63659 0.14443 0.24443 0.0
H432 H 0.56687 0.16432 0.20572 0.0
H433 H 0.54518 0.16047 0.1797 0.0
H434 H 0.55273 0.10387 0.18239 0.0
H435 H 0.57436 0.10786 0.20864 0.0
H436 H 0.67792 0.1042 0.3027 0.0
H437 H 0.69957 0.10712 0.329 0.0
H438 H 0.7379 0.12727 0.28796 0.0
H439 H 0.71627 0.12443 0.26179 0.0
Ho440 Ho 0.6266 0.86294 0.99128 0.0
Ho441 Ho 0.63443 0.90219 1.00007 0.0
C442 C 0.64945 0.88676 0.95986 0.0
C443 C 0.61417 0.83426 0.97561 0.0
C444 C 0.61693 0.82236 0.95881 0.0
C445 C 0.60252 0.81268 0.95162 0.0
C446 C 0.60478 0.80047 0.93651 0.0
C447 C 0.62157 0.7976 0.92823 0.0
C448 C 0.63597 0.80761 0.93524 0.0
C449 C 0.63367 0.8199 0.95035 0.0
C450 C 0.65788 0.86887 1.00914 0.0
C451 C 0.61836 0.8767 0.03424 0.0
C452 C 0.64358 0.93299 1.01343 0.0
C453 C 0.64261 0.94446 0.03085 0.0
C454 C 0.65724 0.95505 0.03549 0.0
C455 C 0.65636 0.96727 0.05075 0.0
C456 C 0.64078 0.96924 0.06175 0.0
C457 C 0.62622 0.9583 0.05734 0.0
C458 C 0.62713 0.946 0.04206 0.0
C459 C 0.60469 0.89553 0.97963 0.0
O460 O 0.63985 0.87231 0.9632 0.0
O461 O 0.6508 0.89956 0.97297 0.0
O462 O 0.62642 0.83441 0.98906 0.0
O463 O 0.60796 0.85005 0.97188 0.0
O464 O 0.6487 0.85446 1.01119 0.0
O465 O 0.65066 0.87846 0.99645 0.0
O466 O 0.62675 0.89144 0.0295 0.0
O467 O 0.61451 0.86435 0.0212 0.0
O468 O 0.62889 0.93001 1.00395 0.0
O469 O 0.65372 0.91901 0.01444 0.0
O470 O 0.61505 0.90887 0.9765 0.0
O471 O 0.61019 0.8867 0.99405 0.0
H472 H 0.5895 0.81434 0.95797 0.0
H473 H 0.59343 0.7929 0.93172 0.0
H474 H 0.64903 0.80594 0.92904 0.0
H475 H 0.64498 0.8273 0.95558 0.0
H476 H 0.66926 0.95418 0.02696 0.0
H477 H 0.66776 0.97558 0.0535 0.0
H478 H 0.61409 0.95929 0.06566 0.0
H479 H 0.61566 0.93794 0.03882 0.0
Ho480 Ho 0.89071 0.12806 0.78627 0.0
Ho481 Ho 0.85105 0.12099 0.77864 0.0
C482 C 0.86704 0.10612 0.81871 0.0
C483 C 0.92 0.13983 0.80113 0.0
C484 C 0.93192 0.13713 0.81795 0.0
C485 C 0.94145 0.15161 0.82522 0.0
C486 C 0.95366 0.14941 0.84035 0.0
C487 C 0.95667 0.13262 0.84858 0.0
C488 C 0.94681 0.11815 0.84149 0.0
C489 C 0.93452 0.12039 0.82637 0.0
C490 C 0.8833 0.09672 0.76924 0.0
C491 C 0.87619 0.13646 0.74362 0.0
C492 C 0.82016 0.1119 0.76556 0.0
C493 C 0.80815 0.11448 0.74872 0.0
C494 C 0.8132 0.1103 0.72955 0.0
C495 C 0.80096 0.1116 0.71424 0.0
C496 C 0.78347 0.11718 0.71776 0.0
C497 C 0.77863 0.12169 0.73691 0.0
C498 C 0.79081 0.1203 0.75217 0.0
C499 C 0.85857 0.1509 0.79827 0.0
O500 O 0.88166 0.11533 0.81484 0.0
O501 O 0.85396 0.10491 0.80592 0.0
O502 O 0.91925 0.1272 0.78814 0.0
O503 O 0.90451 0.1468 0.80475 0.0
O504 O 0.89788 0.10542 0.76626 0.0
O505 O 0.87445 0.10445 0.78215 0.0
O506 O 0.86124 0.12873 0.74899 0.0
O507 O 0.88908 0.13983 0.75618 0.0
O508 O 0.82282 0.12558 0.77681 0.0
O509 O 0.83449 0.10246 0.76296 0.0
O510 O 0.84487 0.14106 0.80153 0.0
O511 O 0.8672 0.14498 0.78388 0.0
H512 H 0.93967 0.16463 0.81892 0.0
H513 H 0.96111 0.16081 0.84522 0.0
H514 H 0.94859 0.10509 0.84765 0.0
H515 H 0.92722 0.10903 0.8211 0.0
H516 H 0.8265 0.10581 0.7264 0.0
H517 H 0.8052 0.10822 0.69964 0.0
H518 H 0.76525 0.1258 0.74024 0.0
H519 H 0.78653 0.12346 0.76683 0.0
Ho520 Ho 0.62662 0.14108 0.53584 0.0
Ho521 Ho 0.63473 0.10201 0.52635 0.0
C522 C 0.64975 0.11707 0.56678 0.0
C523 C 0.61397 0.1694 0.55202 0.0
C524 C 0.61682 0.18139 0.56875 0.0
C525 C 0.60211 0.18938 0.57754 0.0
C526 C 0.6043 0.20183 0.59243 0.0
C527 C 0.6213 0.20662 0.59889 0.0
C528 C 0.63605 0.19824 0.59035 0.0
C529 C 0.63384 0.18572 0.57546 0.0
C530 C 0.65807 0.13553 0.51819 0.0
C531 C 0.61801 0.12772 0.49266 0.0
C532 C 0.64454 0.07188 0.51181 0.0
C533 C 0.64084 0.05951 0.49551 0.0
C534 C 0.64553 0.06356 0.47618 0.0
C535 C 0.6437 0.05089 0.46142 0.0
C536 C 0.63712 0.03388 0.46561 0.0
C537 C 0.63199 0.03005 0.48485 0.0
C538 C 0.6339 0.04268 0.4996 0.0
C539 C 0.60441 0.10804 0.54606 0.0
O540 O 0.63971 0.1313 0.56388 0.0
O541 O 0.65153 0.10477 0.55315 0.0
O542 O 0.62582 0.16958 0.53814 0.0
O543 O 0.60823 0.15347 0.5559 0.0
O544 O 0.64897 0.15002 0.51645 0.0
O545 O 0.65077 0.12573 0.53061 0.0
O546 O 0.62597 0.1127 0.49727 0.0
O547 O 0.61468 0.14016 0.50577 0.0
O548 O 0.63242 0.07345 0.52528 0.0
O549 O 0.65222 0.08694 0.50774 0.0
O550 O 0.61452 0.09443 0.54872 0.0
O551 O 0.6103 0.11733 0.53218 0.0
H552 H 0.58887 0.18628 0.57256 0.0
H553 H 0.59264 0.20811 0.59844 0.0
H554 H 0.64933 0.20141 0.59513 0.0
H555 H 0.64541 0.17965 0.569 0.0
H556 H 0.65096 0.07639 0.47249 0.0
H557 H 0.64757 0.05437 0.44673 0.0
H558 H 0.62708 0.01705 0.48868 0.0
H559 H 0.63039 0.03908 0.51438 0.0
Ho560 Ho 0.6124 0.87612 0.28533 0.0
Ho561 Ho 0.65208 0.88261 0.27772 0.0
C562 C 0.63624 0.89759 0.31778 0.0
C563 C 0.58277 0.86465 0.29962 0.0
C564 C 0.57092 0.86631 0.31665 0.0
C565 C 0.56117 0.85148 0.32255 0.0
C566 C 0.54864 0.85281 0.33746 0.0
C567 C 0.54549 0.86906 0.34684 0.0
C568 C 0.55576 0.88382 0.34135 0.0
C569 C 0.56834 0.88246 0.32638 0.0
C570 C 0.62024 0.90729 0.26808 0.0
C571 C 0.62676 0.86758 0.24267 0.0
C572 C 0.68324 0.89114 0.26496 0.0
C573 C 0.69529 0.88852 0.24817 0.0
C574 C 0.69073 0.89376 0.22916 0.0
C575 C 0.70307 0.89244 0.21397 0.0
C576 C 0.7202 0.8858 0.21743 0.0
C577 C 0.72453 0.88021 0.23638 0.0
C578 C 0.71226 0.88161 0.25154 0.0
C579 C 0.64406 0.85292 0.29755 0.0
O580 O 0.62166 0.88828 0.31406 0.0
O581 O 0.6492 0.89887 0.30485 0.0
O582 O 0.58399 0.87826 0.28793 0.0
O583 O 0.59794 0.85671 0.30235 0.0
O584 O 0.60567 0.8986 0.26494 0.0
O585 O 0.62895 0.89956 0.28112 0.0
O586 O 0.64189 0.87498 0.24797 0.0
O587 O 0.61383 0.86449 0.25525 0.0
O588 O 0.68021 0.87736 0.27598 0.0
O589 O 0.66915 0.90095 0.26244 0.0
O590 O 0.65779 0.86268 0.30097 0.0
O591 O 0.63565 0.85887 0.28303 0.0
H592 H 0.56299 0.83888 0.31532 0.0
H593 H 0.54128 0.84108 0.34153 0.0
H594 H 0.55365 0.89656 0.34816 0.0
H595 H 0.57576 0.8941 0.32212 0.0
H596 H 0.67775 0.89912 0.22607 0.0
H597 H 0.69922 0.89668 0.19951 0.0
H598 H 0.73763 0.87525 0.23967 0.0
H599 H 0.71617 0.87762 0.26608 0.0
Ho600 Ho 0.87829 0.86333 0.03608 0.0
Ho601 Ho 0.87009 0.90252 0.02789 0.0
C602 C 0.85504 0.88655 0.06778 0.0
C603 C 0.89096 0.83469 0.05161 0.0
C604 C 0.88818 0.82255 0.06824 0.0
C605 C 0.90291 0.81431 0.07672 0.0
C606 C 0.90077 0.80181 0.09157 0.0
C607 C 0.8838 0.7972 0.0983 0.0
C608 C 0.86904 0.80581 0.09006 0.0
C609 C 0.87121 0.81839 0.07521 0.0
C610 C 0.84698 0.86909 0.01827 0.0
C611 C 0.8863 0.87763 0.99329 0.0
C612 C 0.86084 0.93341 0.01485 0.0
C613 C 0.86173 0.9449 0.99744 0.0
C614 C 0.84745 0.95615 0.99343 0.0
C615 C 0.84832 0.96833 0.97812 0.0
C616 C 0.86357 0.96959 0.96643 0.0
C617 C 0.87777 0.95801 0.97023 0.0
C618 C 0.87685 0.94576 0.98557 0.0
C619 C 0.89986 0.89597 0.04832 0.0
O620 O 0.86467 0.87215 0.0642 0.0
O621 O 0.85375 0.89955 0.05491 0.0
O622 O 0.87894 0.83478 0.03791 0.0
O623 O 0.89689 0.85052 0.05561 0.0
O624 O 0.85632 0.85481 0.01602 0.0
O625 O 0.85405 0.87861 0.03111 0.0
O626 O 0.87769 0.89216 0.99834 0.0
O627 O 0.89036 0.86516 1.00612 0.0
O628 O 0.87562 0.93035 0.02412 0.0
O629 O 0.85067 0.91946 0.01389 0.0
O630 O 0.8893 0.90912 0.0516 0.0
O631 O 0.89455 0.88725 0.03373 0.0
H632 H 0.91612 0.81728 0.07155 0.0
H633 H 0.91242 0.79534 0.09735 0.0
H634 H 0.85579 0.80279 0.09505 0.0
H635 H 0.85963 0.82466 0.069 0.0
H636 H 0.8357 0.9558 1.00247 0.0
H637 H 0.83722 0.97713 0.97583 0.0
H638 H 0.88962 0.95845 0.96138 0.0
H639 H 0.88804 0.93717 0.98832 0.0
Ho640 Ho 0.6521 0.62031 0.77656 0.0
Ho641 Ho 0.61311 0.6282 0.78582 0.0
C642 C 0.6266 0.63714 0.74286 0.0
C643 C 0.68229 0.61048 0.76217 0.0
C644 C 0.69461 0.61395 0.74577 0.0
C645 C 0.69016 0.60984 0.7264 0.0
C646 C 0.70276 0.61148 0.71151 0.0
C647 C 0.72006 0.6173 0.71564 0.0
C648 C 0.72429 0.62185 0.73495 0.0
C649 C 0.71174 0.62013 0.74982 0.0
C650 C 0.64602 0.65062 0.79625 0.0
C651 C 0.63707 0.60534 0.81697 0.0
C652 C 0.58438 0.64009 0.80184 0.0
C653 C 0.57184 0.63619 0.81795 0.0
C654 C 0.57653 0.63853 0.83762 0.0
C655 C 0.56396 0.63614 0.85243 0.0
C656 C 0.54643 0.63133 0.84791 0.0
C657 C 0.54188 0.62881 0.82824 0.0
C658 C 0.5544 0.63127 0.81348 0.0
C659 C 0.61888 0.5967 0.76822 0.0
O660 O 0.6415 0.62895 0.74742 0.0
O661 O 0.61424 0.64059 0.756 0.0
O662 O 0.68064 0.62287 0.77533 0.0
O663 O 0.66728 0.60261 0.75831 0.0
O664 O 0.65961 0.64049 0.79893 0.0
O665 O 0.63672 0.64478 0.78235 0.0
O666 O 0.62278 0.61525 0.81396 0.0
O667 O 0.64944 0.60362 0.80342 0.0
O668 O 0.58449 0.62917 0.78709 0.0
O669 O 0.60025 0.64566 0.8064 0.0
O670 O 0.60446 0.60584 0.76626 0.0
O671 O 0.6285 0.60405 0.78076 0.0
H672 H 0.67708 0.60503 0.72276 0.0
H673 H 0.69899 0.60807 0.69677 0.0
H674 H 0.73751 0.62616 0.73873 0.0
H675 H 0.7156 0.62319 0.76463 0.0
H676 H 0.58983 0.64242 0.84161 0.0
H677 H 0.56798 0.63802 0.86742 0.0
H678 H 0.52848 0.62537 0.82417 0.0
H679 H 0.55031 0.62963 0.79846 0.0
Ho680 Ho 0.63417 0.40178 0.02632 0.0
Ho681 Ho 0.62574 0.36283 0.0358 0.0
C682 C 0.61724 0.37626 0.99264 0.0
C683 C 0.64448 0.43174 1.01179 0.0
C684 C 0.64086 0.44418 0.99556 0.0
C685 C 0.64409 0.4396 0.97602 0.0
C686 C 0.64231 0.45224 0.9612 0.0
C687 C 0.63723 0.46971 0.96557 0.0
C688 C 0.63356 0.4741 0.98506 0.0
C689 C 0.63542 0.4615 0.99985 0.0
C690 C 0.60368 0.39612 0.04582 0.0
C691 C 0.64875 0.38666 0.06692 0.0
C692 C 0.61284 0.33457 0.05187 0.0
C693 C 0.61564 0.3226 0.06861 0.0
C694 C 0.60088 0.31479 0.0775 0.0
C695 C 0.603 0.3024 0.09245 0.0
C696 C 0.61999 0.29749 0.09886 0.0
C697 C 0.63479 0.3057 0.09023 0.0
C698 C 0.63263 0.31817 0.07528 0.0
C699 C 0.65739 0.36822 0.01838 0.0
O700 O 0.62536 0.39119 0.99722 0.0
O701 O 0.61379 0.36387 1.00577 0.0
O702 O 0.63242 0.43038 0.02536 0.0
O703 O 0.65183 0.41654 1.0076 0.0
O704 O 0.61387 0.40967 0.04842 0.0
O705 O 0.60956 0.38667 0.03207 0.0
O706 O 0.6386 0.37253 0.06398 0.0
O707 O 0.65078 0.39889 0.05325 0.0
O708 O 0.62472 0.33433 0.03802 0.0
O709 O 0.6072 0.35053 0.05576 0.0
O710 O 0.64818 0.35381 0.01652 0.0
O711 O 0.65003 0.37797 0.03078 0.0
H712 H 0.64831 0.42636 0.97218 0.0
H713 H 0.64504 0.44836 0.94632 0.0
H714 H 0.62983 0.48745 0.989 0.0
H715 H 0.63304 0.46546 0.01479 0.0
H716 H 0.58765 0.31799 0.07255 0.0
H717 H 0.59132 0.29623 0.09855 0.0
H718 H 0.64805 0.30243 0.09498 0.0
H719 H 0.64424 0.32413 0.06875 0.0
Ho720 Ho 0.85144 0.38386 0.27705 0.0
Ho721 Ho 0.89052 0.37553 0.28551 0.0
C722 C 0.87634 0.36703 0.24272 0.0
C723 C 0.82113 0.39384 0.2631 0.0
C724 C 0.80876 0.39043 0.24675 0.0
C725 C 0.81344 0.39376 0.22725 0.0
C726 C 0.80087 0.39206 0.21235 0.0
C727 C 0.78337 0.38693 0.21659 0.0
C728 C 0.7789 0.38317 0.23604 0.0
C729 C 0.79142 0.38497 0.25092 0.0
C730 C 0.85753 0.35351 0.29662 0.0
C731 C 0.86723 0.39862 0.31715 0.0
C732 C 0.9191 0.36283 0.30108 0.0
C733 C 0.93118 0.36591 0.31765 0.0
C734 C 0.94048 0.35153 0.32549 0.0
C735 C 0.95277 0.35406 0.34047 0.0
C736 C 0.95606 0.37106 0.34795 0.0
C737 C 0.94643 0.38544 0.34029 0.0
C738 C 0.93407 0.38288 0.32531 0.0
C739 C 0.88478 0.40709 0.26805 0.0
O740 O 0.86157 0.37523 0.24773 0.0
O741 O 0.88898 0.36349 0.25552 0.0
O742 O 0.82288 0.38134 0.27611 0.0
O743 O 0.8361 0.40177 0.25919 0.0
O744 O 0.84411 0.36379 0.2996 0.0
O745 O 0.86665 0.35925 0.28251 0.0
O746 O 0.88146 0.3887 0.31379 0.0
O747 O 0.8546 0.40039 0.30391 0.0
O748 O 0.91906 0.37468 0.28719 0.0
O749 O 0.90323 0.35708 0.30524 0.0
O750 O 0.89909 0.3978 0.26577 0.0
O751 O 0.87529 0.39982 0.28077 0.0
H752 H 0.82671 0.39798 0.22353 0.0
H753 H 0.80482 0.39485 0.1975 0.0
H754 H 0.76553 0.37941 0.23989 0.0
H755 H 0.7874 0.38249 0.26582 0.0
H756 H 0.93846 0.33833 0.31976 0.0
H757 H 0.96004 0.34272 0.34582 0.0
H758 H 0.94845 0.39868 0.34587 0.0
H759 H 0.92693 0.39416 0.31958 0.0
Ho760 Ho 0.87031 0.60154 0.52652 0.0
Ho761 Ho 0.87878 0.64051 0.53571 0.0
C762 C 0.8869 0.62696 0.49259 0.0
C763 C 0.85998 0.57126 0.51281 0.0
C764 C 0.8615 0.55953 0.4957 0.0
C765 C 0.84706 0.54882 0.49078 0.0
C766 C 0.84829 0.53661 0.47556 0.0
C767 C 0.86407 0.5348 0.46486 0.0
C768 C 0.8785 0.5458 0.46962 0.0
C769 C 0.87722 0.55809 0.48488 0.0
C770 C 0.90052 0.60735 0.54643 0.0
C771 C 0.8558 0.61681 0.56709 0.0
C772 C 0.89181 0.66875 0.55164 0.0
C773 C 0.88903 0.6808 0.56832 0.0
C774 C 0.90383 0.68812 0.57761 0.0
C775 C 0.90178 0.70057 0.5925 0.0
C776 C 0.88482 0.70604 0.59843 0.0
C777 C 0.86996 0.69832 0.5894 0.0
C778 C 0.87204 0.68578 0.57451 0.0
C779 C 0.84711 0.63514 0.51836 0.0
O780 O 0.87847 0.6122 0.49721 0.0
O781 O 0.89074 0.63921 0.50572 0.0
O782 O 0.87408 0.57333 0.5236 0.0
O783 O 0.85106 0.58592 0.51058 0.0
O784 O 0.89009 0.59401 0.54931 0.0
O785 O 0.89492 0.6166 0.53236 0.0
O786 O 0.86562 0.63114 0.56386 0.0
O787 O 0.85413 0.60424 0.55376 0.0
O788 O 0.88 0.66901 0.53772 0.0
O789 O 0.89735 0.65277 0.55565 0.0
O790 O 0.85639 0.6495 0.51635 0.0
O791 O 0.85447 0.62541 0.53079 0.0
H792 H 0.83485 0.54964 0.49901 0.0
H793 H 0.837 0.52824 0.47253 0.0
H794 H 0.89077 0.54491 0.46155 0.0
H795 H 0.88854 0.56627 0.48836 0.0
H796 H 0.91706 0.68448 0.57303 0.0
H797 H 0.91351 0.70635 0.59893 0.0
H798 H 0.85671 0.70203 0.59377 0.0
H799 H 0.86039 0.68022 0.56767 0.0
Ho800 Ho 0.65114 0.38403 0.75079 0.0
Ho801 Ho 0.61211 0.37589 0.74149 0.0
C802 C 0.62561 0.36725 0.78458 0.0
C803 C 0.68127 0.39403 0.76517 0.0
C804 C 0.69365 0.39041 0.78146 0.0
C805 C 0.68921 0.39419 0.80092 0.0
C806 C 0.70183 0.39238 0.81575 0.0
C807 C 0.71914 0.38672 0.81148 0.0
C808 C 0.72337 0.38249 0.79209 0.0
C809 C 0.7108 0.38439 0.77727 0.0
C810 C 0.64522 0.35368 0.73117 0.0
C811 C 0.636 0.3988 0.7103 0.0
C812 C 0.5837 0.36324 0.72551 0.0
C813 C 0.57171 0.36612 0.70881 0.0
C814 C 0.56375 0.35142 0.69997 0.0
C815 C 0.55132 0.35364 0.68507 0.0
C816 C 0.54652 0.37065 0.67867 0.0
C817 C 0.55487 0.38539 0.68724 0.0
C818 C 0.56738 0.38315 0.70214 0.0
C819 C 0.61777 0.40743 0.75901 0.0
O820 O 0.64059 0.37528 0.77993 0.0
O821 O 0.61316 0.36388 0.7715 0.0
O822 O 0.67971 0.38182 0.75181 0.0
O823 O 0.66619 0.40169 0.76923 0.0
O824 O 0.6588 0.36382 0.72852 0.0
O825 O 0.63587 0.35953 0.74502 0.0
O826 O 0.62174 0.38885 0.71334 0.0
O827 O 0.64837 0.40063 0.72384 0.0
O828 O 0.5836 0.37513 0.73935 0.0
O829 O 0.5996 0.35744 0.72159 0.0
O830 O 0.60333 0.39827 0.76096 0.0
O831 O 0.62743 0.40008 0.74651 0.0
H832 H 0.6761 0.39887 0.80468 0.0
H833 H 0.69806 0.39554 0.83056 0.0
H834 H 0.73661 0.37831 0.78821 0.0
H835 H 0.71466 0.38158 0.76239 0.0
H836 H 0.56686 0.33817 0.70492 0.0
H837 H 0.54504 0.342 0.67901 0.0
H838 H 0.55169 0.39867 0.6825 0.0
H839 H 0.57345 0.39471 0.70864 0.0
Ho840 Ho 0.86966 0.403 0.99993 0.0
Ho841 Ho 0.87834 0.36402 0.99125 0.0
C842 C 0.88675 0.3781 0.03411 0.0
C843 C 0.85943 0.43315 0.01403 0.0
C844 C 0.86289 0.44545 0.03042 0.0
C845 C 0.85988 0.44058 0.04992 0.0
C846 C 0.86167 0.45305 0.06491 0.0
C847 C 0.86656 0.47062 0.06074 0.0
C848 C 0.86999 0.47529 0.04127 0.0
C849 C 0.86811 0.46288 0.02631 0.0
C850 C 0.90007 0.39725 0.98033 0.0
C851 C 0.85499 0.38724 0.95977 0.0
C852 C 0.89133 0.33566 0.97554 0.0
C853 C 0.88852 0.32358 0.95891 0.0
C854 C 0.90328 0.3159 0.94989 0.0
C855 C 0.90115 0.30346 0.93501 0.0
C856 C 0.88416 0.29836 0.92882 0.0
C857 C 0.86935 0.30642 0.93758 0.0
C858 C 0.87151 0.31895 0.95245 0.0
C859 C 0.84674 0.36938 1.00876 0.0
O860 O 0.87842 0.39283 0.02918 0.0
O861 O 0.89038 0.36554 0.02124 0.0
O862 O 0.87185 0.43158 1.0009 0.0
O863 O 0.85168 0.41809 0.01795 0.0
O864 O 0.88969 0.4106 0.97741 0.0
O865 O 0.89437 0.38802 0.99437 0.0
O866 O 0.86512 0.37314 0.963 0.0
O867 O 0.85306 0.39975 0.97312 0.0
O868 O 0.87948 0.3355 0.98942 0.0
O869 O 0.89693 0.3516 0.97147 0.0
O870 O 0.85615 0.35514 1.01093 0.0
O871 O 0.85392 0.37901 0.99609 0.0
H872 H 0.85587 0.42724 0.0536 0.0
H873 H 0.85914 0.44895 0.07976 0.0
H874 H 0.87357 0.48873 0.03749 0.0
H875 H 0.87034 0.46703 1.01141 0.0
H876 H 0.91652 0.31927 0.95468 0.0
H877 H 0.91284 0.29741 0.92879 0.0
H878 H 0.85609 0.30299 0.93299 0.0
H879 H 0.8599 0.3248 0.95908 0.0
Ho880 Ho 0.85295 0.62027 0.25091 0.0
Ho881 Ho 0.89208 0.62772 0.2417 0.0
C882 C 0.87859 0.6369 0.2846 0.0
C883 C 0.82256 0.61085 0.26517 0.0
C884 C 0.81034 0.61428 0.28165 0.0
C885 C 0.8148 0.60993 0.30097 0.0
C886 C 0.80227 0.61155 0.31591 0.0
C887 C 0.78502 0.61759 0.31191 0.0
C888 C 0.78078 0.62237 0.29267 0.0
C889 C 0.79327 0.62066 0.27774 0.0
C890 C 0.8594 0.65029 0.23084 0.0
C891 C 0.86791 0.60503 0.2106 0.0
C892 C 0.92098 0.63923 0.2257 0.0
C893 C 0.93341 0.63524 0.20952 0.0
C894 C 0.9288 0.63802 0.18989 0.0
C895 C 0.94131 0.63555 0.17505 0.0
C896 C 0.95871 0.63023 0.17946 0.0
C897 C 0.96318 0.62727 0.19909 0.0
C898 C 0.95073 0.6298 0.2139 0.0
C899 C 0.88588 0.59634 0.25946 0.0
O900 O 0.86361 0.62886 0.28004 0.0
O901 O 0.89101 0.64019 0.27146 0.0
O902 O 0.82448 0.62346 0.2523 0.0
O903 O 0.8374 0.60258 0.26883 0.0
O904 O 0.84574 0.64025 0.22822 0.0
O905 O 0.8686 0.64452 0.24487 0.0
O906 O 0.88229 0.61481 0.2136 0.0
O907 O 0.8555 0.60346 0.22413 0.0
O908 O 0.9207 0.6282 0.24036 0.0
O909 O 0.9052 0.64512 0.22123 0.0
O910 O 0.90041 0.60533 0.26141 0.0
O911 O 0.87639 0.60377 0.24686 0.0
H912 H 0.82784 0.60495 0.3045 0.0
H913 H 0.80605 0.60796 0.33061 0.0
H914 H 0.7676 0.62685 0.28898 0.0
H915 H 0.7894 0.62392 0.26297 0.0
H916 H 0.9156 0.64232 0.18598 0.0
H917 H 0.93734 0.63778 0.16009 0.0
H918 H 0.9765 0.62343 0.20309 0.0
H919 H 0.95477 0.62782 0.22888 0.0
Ho920 Ho 0.63443 0.60183 0.5008 0.0
Ho921 Ho 0.6265 0.64094 0.4919 0.0
C922 C 0.61811 0.62727 0.53489 0.0
C923 C 0.64403 0.57122 0.51428 0.0
C924 C 0.64276 0.55968 0.53161 0.0
C925 C 0.65735 0.54917 0.53658 0.0
C926 C 0.65626 0.53698 0.55184 0.0
C927 C 0.64049 0.53496 0.56251 0.0
C928 C 0.62596 0.54581 0.55777 0.0
C929 C 0.62709 0.55809 0.54248 0.0
C930 C 0.60468 0.60812 0.48024 0.0
C931 C 0.64934 0.61725 0.46052 0.0
C932 C 0.61396 0.66969 0.4766 0.0
C933 C 0.6155 0.68136 0.4594 0.0
C934 C 0.60008 0.68893 0.45172 0.0
C935 C 0.60103 0.70135 0.43666 0.0
C936 C 0.61746 0.70654 0.42893 0.0
C937 C 0.63291 0.69844 0.43618 0.0
C938 C 0.63194 0.68597 0.4513 0.0
C939 C 0.65773 0.63505 0.50999 0.0
O940 O 0.62634 0.61242 0.53018 0.0
O941 O 0.61451 0.63968 0.52186 0.0
O942 O 0.62958 0.57384 0.50423 0.0
O943 O 0.65371 0.58547 0.5158 0.0
O944 O 0.61512 0.59479 0.47734 0.0
O945 O 0.61008 0.61715 0.49457 0.0
O946 O 0.63951 0.63157 0.46371 0.0
O947 O 0.65087 0.60461 0.47379 0.0
O948 O 0.62719 0.66939 0.48886 0.0
O949 O 0.60695 0.65408 0.47386 0.0
O950 O 0.64836 0.64932 0.51224 0.0
O951 O 0.65062 0.62556 0.49714 0.0
H952 H 0.66952 0.5501 0.52831 0.0
H953 H 0.66764 0.52873 0.55487 0.0
H954 H 0.61369 0.54477 0.56583 0.0
H955 H 0.61565 0.56611 0.53898 0.0
H956 H 0.58726 0.68552 0.45769 0.0
H957 H 0.58885 0.70703 0.43121 0.0
H958 H 0.64579 0.70218 0.43066 0.0
H959 H 0.64405 0.68027 0.45694 0.0
Ho960 Ho 0.3911 0.37587 0.24114 0.0
Ho961 Ho 0.35162 0.38323 0.24882 0.0
C962 C 0.36755 0.39783 0.20865 0.0
C963 C 0.42026 0.36393 0.22613 0.0
C964 C 0.4323 0.36679 0.20942 0.0
C965 C 0.44063 0.35213 0.20092 0.0
C966 C 0.45303 0.35436 0.18598 0.0
C967 C 0.45744 0.37136 0.17918 0.0
C968 C 0.44874 0.38605 0.18744 0.0
C969 C 0.43626 0.38379 0.20237 0.0
C970 C 0.38403 0.4074 0.25793 0.0
C971 C 0.37661 0.36759 0.28384 0.0
C972 C 0.32088 0.39265 0.26206 0.0
C973 C 0.30874 0.38982 0.27876 0.0
C974 C 0.31333 0.39461 0.2979 0.0
C975 C 0.30092 0.39321 0.31302 0.0
C976 C 0.28369 0.38694 0.30936 0.0
C977 C 0.27932 0.38179 0.29028 0.0
C978 C 0.29166 0.38328 0.27518 0.0
C979 C 0.35881 0.353 0.22959 0.0
O980 O 0.38205 0.38846 0.21249 0.0
O981 O 0.35458 0.39926 0.22154 0.0
O982 O 0.41967 0.37626 0.23948 0.0
O983 O 0.40468 0.35728 0.22227 0.0
O984 O 0.39854 0.39859 0.26093 0.0
O985 O 0.37507 0.39966 0.24511 0.0
O986 O 0.36173 0.37543 0.27847 0.0
O987 O 0.38947 0.36413 0.27127 0.0
O988 O 0.32327 0.37928 0.25028 0.0
O989 O 0.33541 0.40167 0.26506 0.0
O990 O 0.34517 0.36292 0.22628 0.0
O991 O 0.36755 0.35902 0.24386 0.0
H992 H 0.43782 0.3389 0.20615 0.0
H993 H 0.45957 0.34276 0.18018 0.0
H994 H 0.4516 0.39931 0.18239 0.0
H995 H 0.42991 0.39532 0.20858 0.0
H996 H 0.32639 0.39969 0.30117 0.0
H997 H 0.30481 0.3971 0.32759 0.0
H998 H 0.26614 0.37713 0.28684 0.0
H999 H 0.28771 0.37966 0.26055 0.0
Ho1000 Ho 0.37846 0.64149 0.9918 0.0
Ho1001 Ho 0.36994 0.60242 1.00037 0.0
C1002 C 0.35524 0.6182 0.96024 0.0
C1003 C 0.3913 0.66997 0.97608 0.0
C1004 C 0.38842 0.68195 0.95936 0.0
C1005 C 0.40284 0.69141 0.95184 0.0
C1006 C 0.40048 0.70362 0.93674 0.0
C1007 C 0.3836 0.70669 0.92879 0.0
C1008 C 0.36918 0.69691 0.93615 0.0
C1009 C 0.37158 0.68463 0.95125 0.0
C1010 C 0.34691 0.63598 1.00924 0.0
C1011 C 0.38679 0.62734 0.03469 0.0
C1012 C 0.35997 0.57213 0.0144 0.0
C1013 C 0.36353 0.5597 0.03069 0.0
C1014 C 0.35916 0.56386 0.05007 0.0
C1015 C 0.36094 0.55117 0.06484 0.0
C1016 C 0.36717 0.53405 0.0606 0.0
C1017 C 0.37198 0.5301 0.04129 0.0
C1018 C 0.37011 0.54273 0.02653 0.0
C1019 C 0.40035 0.60847 0.98087 0.0
O1020 O 0.36536 0.63231 0.9635 0.0
O1021 O 0.35329 0.60567 0.97358 0.0
O1022 O 0.37931 0.67002 0.98981 0.0
O1023 O 0.3971 0.65407 0.97215 0.0
O1024 O 0.35623 0.65028 1.01141 0.0
O1025 O 0.3541 0.62634 0.99659 0.0
O1026 O 0.3786 0.61257 0.02966 0.0
O1027 O 0.39036 0.64 0.02189 0.0
O1028 O 0.37229 0.57386 1.00118 0.0
O1029 O 0.35217 0.58713 0.01846 0.0
O1030 O 0.39004 0.59508 0.97784 0.0
O1031 O 0.39459 0.61754 0.99498 0.0
H1032 H 0.41594 0.68958 0.95791 0.0
H1033 H 0.41185 0.71102 0.93165 0.0
H1034 H 0.35604 0.69874 0.93021 0.0
H1035 H 0.36026 0.67738 0.95673 0.0
H1036 H 0.35403 0.5768 0.05381 0.0
H1037 H 0.35732 0.55473 0.07959 0.0
H1038 H 0.37662 0.51701 0.03743 0.0
H1039 H 0.37339 0.53907 1.01171 0.0
Ho1040 Ho 0.11344 0.62789 0.74163 0.0
Ho1041 Ho 0.15274 0.62036 0.74973 0.0
C1042 C 0.13694 0.60505 0.7099 0.0
C1043 C 0.08432 0.63946 0.72617 0.0
C1044 C 0.0717 0.63551 0.71015 0.0
C1045 C 0.07636 0.63751 0.69042 0.0
C1046 C 0.06372 0.63505 0.6757 0.0
C1047 C 0.04615 0.63049 0.68035 0.0
C1048 C 0.04163 0.62829 0.70008 0.0
C1049 C 0.05422 0.63082 0.71476 0.0
C1050 C 0.11986 0.59659 0.75932 0.0
C1051 C 0.12781 0.63692 0.78416 0.0
C1052 C 0.18351 0.61135 0.76328 0.0
C1053 C 0.19568 0.61463 0.77984 0.0
C1054 C 0.19109 0.61043 0.79915 0.0
C1055 C 0.20356 0.61211 0.81418 0.0
C1056 C 0.22084 0.61808 0.81024 0.0
C1057 C 0.22521 0.6227 0.79099 0.0
C1058 C 0.2128 0.62093 0.77599 0.0
C1059 C 0.14579 0.65027 0.72966 0.0
O1060 O 0.12254 0.61468 0.71339 0.0
O1061 O 0.14977 0.60362 0.72297 0.0
O1062 O 0.08479 0.62836 0.74077 0.0
O1063 O 0.10004 0.64537 0.72149 0.0
O1064 O 0.10543 0.60566 0.76165 0.0
O1065 O 0.12917 0.60388 0.74645 0.0
O1066 O 0.14257 0.62871 0.77913 0.0
O1067 O 0.11514 0.6404 0.77138 0.0
O1068 O 0.18112 0.62432 0.75099 0.0
O1069 O 0.16896 0.60249 0.76669 0.0
O1070 O 0.15929 0.64011 0.72654 0.0
O1071 O 0.13704 0.64461 0.74408 0.0
H1072 H 0.08969 0.64118 0.68633 0.0
H1073 H 0.06772 0.63667 0.66066 0.0
H1074 H 0.0282 0.62504 0.70426 0.0
H1075 H 0.05017 0.62943 0.72982 0.0
H1076 H 0.178 0.60555 0.80263 0.0
H1077 H 0.19968 0.60864 0.82887 0.0
H1078 H 0.23842 0.62712 0.78735 0.0
H1079 H 0.21675 0.6241 0.76122 0.0
Ho1080 Ho 0.12541 0.36429 0.49049 0.0
Ho1081 Ho 0.13355 0.4035 0.49872 0.0
C1082 C 0.14858 0.38763 0.45877 0.0
C1083 C 0.11279 0.33569 0.47487 0.0
C1084 C 0.11583 0.32345 0.45841 0.0
C1085 C 0.10119 0.31574 0.44916 0.0
C1086 C 0.10351 0.30315 0.43444 0.0
C1087 C 0.12058 0.29791 0.42863 0.0
C1088 C 0.13527 0.30598 0.43764 0.0
C1089 C 0.13292 0.31865 0.45235 0.0
C1090 C 0.15677 0.37008 0.50819 0.0
C1091 C 0.11737 0.37853 0.53328 0.0
C1092 C 0.14287 0.43429 0.51193 0.0
C1093 C 0.14198 0.44563 0.52945 0.0
C1094 C 0.12669 0.44673 0.54104 0.0
C1095 C 0.12582 0.45885 0.55649 0.0
C1096 C 0.14024 0.47003 0.56071 0.0
C1097 C 0.15564 0.4685 0.54933 0.0
C1098 C 0.15647 0.45647 0.53389 0.0
C1099 C 0.10366 0.39693 0.47851 0.0
O1100 O 0.13904 0.37318 0.46238 0.0
O1101 O 0.14982 0.40064 0.47162 0.0
O1102 O 0.12448 0.33575 0.48892 0.0
O1103 O 0.10711 0.35156 0.47058 0.0
O1104 O 0.14749 0.35575 0.51041 0.0
O1105 O 0.14962 0.37962 0.49541 0.0
O1106 O 0.126 0.39305 0.52826 0.0
O1107 O 0.11328 0.3661 0.52043 0.0
O1108 O 0.12811 0.43133 0.50258 0.0
O1109 O 0.15301 0.42031 0.51281 0.0
O1110 O 0.11414 0.41015 0.4752 0.0
O1111 O 0.10912 0.38817 0.49301 0.0
H1112 H 0.08789 0.31921 0.45363 0.0
H1113 H 0.0919 0.29711 0.42805 0.0
H1114 H 0.1486 0.30247 0.43336 0.0
H1115 H 0.14445 0.3245 0.45916 0.0
H1116 H 0.11533 0.43845 0.53796 0.0
H1117 H 0.11383 0.4595 0.5651 0.0
H1118 H 0.16692 0.47701 0.55195 0.0
H1119 H 0.16836 0.45592 0.52509 0.0
Ho1120 Ho 0.39084 0.62835 0.28643 0.0
Ho1121 Ho 0.35138 0.62097 0.27862 0.0
C1122 C 0.36721 0.60636 0.31883 0.0
C1123 C 0.41996 0.64029 0.30152 0.0
C1124 C 0.43213 0.63729 0.31809 0.0
C1125 C 0.43986 0.65195 0.32727 0.0
C1126 C 0.45241 0.64966 0.34204 0.0
C1127 C 0.45759 0.63262 0.34798 0.0
C1128 C 0.4495 0.61791 0.33905 0.0
C1129 C 0.43686 0.62022 0.32428 0.0
C1130 C 0.38382 0.5968 0.26964 0.0
C1131 C 0.37643 0.63671 0.24372 0.0
C1132 C 0.32069 0.61152 0.26526 0.0
C1133 C 0.30857 0.61447 0.24859 0.0
C1134 C 0.31351 0.61071 0.22928 0.0
C1135 C 0.30118 0.61226 0.2141 0.0
C1136 C 0.28368 0.61768 0.21788 0.0
C1137 C 0.27895 0.6218 0.23717 0.0
C1138 C 0.29122 0.62016 0.25231 0.0
C1139 C 0.35851 0.65124 0.29782 0.0
O1140 O 0.38173 0.61574 0.31504 0.0
O1141 O 0.35427 0.60493 0.3059 0.0
O1142 O 0.41941 0.62818 0.28791 0.0
O1143 O 0.40434 0.64674 0.30559 0.0
O1144 O 0.39834 0.60561 0.26671 0.0
O1145 O 0.37483 0.60454 0.28241 0.0
O1146 O 0.36155 0.62882 0.24901 0.0
O1147 O 0.38924 0.64018 0.25634 0.0
O1148 O 0.323 0.62477 0.27721 0.0
O1149 O 0.33528 0.60262 0.26214 0.0
O1150 O 0.34485 0.64133 0.30108 0.0
O1151 O 0.36729 0.64519 0.28361 0.0
H1152 H 0.43645 0.66524 0.32269 0.0
H1153 H 0.45847 0.66129 0.34838 0.0
H1154 H 0.45297 0.60459 0.34342 0.0
H1155 H 0.431 0.60867 0.31754 0.0
H1156 H 0.3268 0.60633 0.22591 0.0
H1157 H 0.30534 0.60918 0.19939 0.0
H1158 H 0.26557 0.62579 0.24068 0.0
H1159 H 0.28702 0.623 0.26707 0.0
Ho1160 Ho 0.12612 0.64086 0.03597 0.0
Ho1161 Ho 0.13521 0.60199 0.02686 0.0
C1162 C 0.14981 0.61763 0.06714 0.0
C1163 C 0.11281 0.66892 0.05206 0.0
C1164 C 0.11578 0.68112 0.06856 0.0
C1165 C 0.10115 0.68929 0.07731 0.0
C1166 C 0.10348 0.70182 0.09209 0.0
C1167 C 0.12054 0.70652 0.09845 0.0
C1168 C 0.1352 0.69797 0.08994 0.0
C1169 C 0.13285 0.68536 0.07517 0.0
C1170 C 0.15778 0.63601 0.01856 0.0
C1171 C 0.11776 0.62694 0.99294 0.0
C1172 C 0.14601 0.57218 1.01239 0.0
C1173 C 0.14192 0.55904 0.997 0.0
C1174 C 0.14209 0.56343 0.97709 0.0
C1175 C 0.14001 0.55026 0.96288 0.0
C1176 C 0.13774 0.53241 0.96826 0.0
C1177 C 0.137 0.52822 0.98822 0.0
C1178 C 0.13913 0.54135 1.00237 0.0
C1179 C 0.10446 0.60734 0.046 0.0
O1180 O 0.13938 0.63157 0.06416 0.0
O1181 O 0.152 0.6054 0.05353 0.0
O1182 O 0.12429 0.66934 0.03782 0.0
O1183 O 0.10772 0.65284 0.05633 0.0
O1184 O 0.14835 0.65028 0.01671 0.0
O1185 O 0.15068 0.6261 0.031 0.0
O1186 O 0.12608 0.61219 0.99777 0.0
O1187 O 0.11418 0.63947 1.00587 0.0
O1188 O 0.13495 0.57331 0.02698 0.0
O1189 O 0.15214 0.58762 1.00699 0.0
O1190 O 0.11473 0.59387 0.04872 0.0
O1191 O 0.11036 0.61674 0.03224 0.0
H1192 H 0.08787 0.68624 0.07241 0.0
H1193 H 0.0919 0.70824 0.09809 0.0
H1194 H 0.14852 0.70106 0.09465 0.0
H1195 H 0.14435 0.67913 0.06873 0.0
H1196 H 0.14424 0.57696 0.97245 0.0
H1197 H 0.14078 0.554 0.94768 0.0
H1198 H 0.13492 0.51472 0.99297 0.0
H1199 H 0.13897 0.53759 0.0176 0.0
Ho1200 Ho 0.11213 0.37638 0.7848 0.0
Ho1201 Ho 0.15161 0.38356 0.77769 0.0
C1202 C 0.13526 0.399 0.81709 0.0
C1203 C 0.08294 0.36446 0.79973 0.0
C1204 C 0.07107 0.36727 0.81659 0.0
C1205 C 0.06272 0.35261 0.82509 0.0
C1206 C 0.05042 0.35484 0.84013 0.0
C1207 C 0.04611 0.37184 0.84699 0.0
C1208 C 0.05484 0.38652 0.83875 0.0
C1209 C 0.06723 0.38426 0.82373 0.0
C1210 C 0.11908 0.40755 0.76715 0.0
C1211 C 0.12697 0.36796 0.74239 0.0
C1212 C 0.18302 0.39161 0.76526 0.0
C1213 C 0.19506 0.38891 0.74848 0.0
C1214 C 0.19014 0.39324 0.7293 0.0
C1215 C 0.20241 0.39181 0.71405 0.0
C1216 C 0.2198 0.38593 0.71763 0.0
C1217 C 0.22449 0.38125 0.73677 0.0
C1218 C 0.21228 0.38278 0.75199 0.0
C1219 C 0.14373 0.35394 0.79779 0.0
O1220 O 0.12086 0.38946 0.81328 0.0
O1221 O 0.14836 0.40031 0.80434 0.0
O1222 O 0.08359 0.37697 0.78658 0.0
O1223 O 0.09846 0.35755 0.80333 0.0
O1224 O 0.10466 0.39851 0.76444 0.0
O1225 O 0.12812 0.40028 0.78029 0.0
O1226 O 0.14173 0.37595 0.74788 0.0
O1227 O 0.11407 0.3644 0.75486 0.0
O1228 O 0.17966 0.37779 0.77607 0.0
O1229 O 0.16914 0.40169 0.76274 0.0
O1230 O 0.15692 0.36424 0.80175 0.0
O1231 O 0.13563 0.3595 0.7829 0.0
H1232 H 0.06544 0.33939 0.81979 0.0
H1233 H 0.04385 0.34326 0.84593 0.0
H1234 H 0.05205 0.39978 0.84385 0.0
H1235 H 0.07359 0.3958 0.81752 0.0
H1236 H 0.17693 0.39796 0.72612 0.0
H1237 H 0.19829 0.39532 0.69945 0.0
H1238 H 0.23779 0.3769 0.74014 0.0
H1239 H 0.21644 0.37948 0.76665 0.0
Ho1240 Ho 0.37713 0.36265 0.53561 0.0
Ho1241 Ho 0.36915 0.40185 0.52721 0.0
C1242 C 0.35383 0.38604 0.56705 0.0
C1243 C 0.38906 0.33379 0.55135 0.0
C1244 C 0.3853 0.32123 0.5675 0.0
C1245 C 0.38844 0.32569 0.58711 0.0
C1246 C 0.3862 0.31308 0.60191 0.0
C1247 C 0.38078 0.29572 0.59749 0.0
C1248 C 0.37746 0.29139 0.5779 0.0
C1249 C 0.37975 0.30395 0.56312 0.0
C1250 C 0.34581 0.3686 0.51781 0.0
C1251 C 0.38608 0.37697 0.49296 0.0
C1252 C 0.35972 0.43241 0.51342 0.0
C1253 C 0.36319 0.44474 0.49703 0.0
C1254 C 0.35868 0.44051 0.47771 0.0
C1255 C 0.36042 0.45314 0.46287 0.0
C1256 C 0.36675 0.47025 0.46698 0.0
C1257 C 0.37168 0.47426 0.48623 0.0
C1258 C 0.36985 0.46169 0.50106 0.0
C1259 C 0.39918 0.39533 0.54724 0.0
O1260 O 0.36375 0.37179 0.56377 0.0
O1261 O 0.35225 0.39872 0.55382 0.0
O1262 O 0.37794 0.33402 0.53676 0.0
O1263 O 0.3948 0.34961 0.55585 0.0
O1264 O 0.35501 0.35423 0.51566 0.0
O1265 O 0.35297 0.37809 0.53061 0.0
O1266 O 0.37782 0.39172 0.49793 0.0
O1267 O 0.38955 0.36432 0.50578 0.0
O1268 O 0.37235 0.43033 0.52622 0.0
O1269 O 0.35139 0.41763 0.50963 0.0
O1270 O 0.38892 0.40877 0.55025 0.0
O1271 O 0.39356 0.38643 0.53292 0.0
H1272 H 0.39284 0.33885 0.59103 0.0
H1273 H 0.3887 0.31695 0.61684 0.0
H1274 H 0.37353 0.27812 0.57387 0.0
H1275 H 0.3775 0.30001 0.54816 0.0
H1276 H 0.35349 0.42757 0.47408 0.0
H1277 H 0.3567 0.44953 0.44816 0.0
H1278 H 0.3764 0.48735 0.49 0.0
H1279 H 0.37325 0.46539 0.51584 0.0
C1280 C 0.24684 0.13161 0.20062 0.0
C1281 C 0.23433 0.11785 0.20134 0.0
C1282 C 0.26011 0.13177 0.18637 0.0
C1283 C 0.27234 0.11224 0.13841 0.0
H1284 H 0.31965 0.12735 0.15256 0.0
C1285 C 0.3315 0.10205 0.08669 0.0
C1286 C 0.34335 0.11624 0.08433 0.0
C1287 C 0.31877 0.10225 0.10146 0.0
C1288 C 0.30648 0.12324 0.14831 0.0
H1289 H 0.22608 0.09341 0.18758 0.0
H1290 H 0.2492 0.0936 0.16286 0.0
H1291 H 0.29612 0.1279 0.17689 0.0
H1292 H 0.35139 0.14155 0.09626 0.0
H1293 H 0.32919 0.14186 0.12215 0.0
H1294 H 0.28273 0.10746 0.10989 0.0
C1295 C 0.24861 0.10448 0.17309 0.0
C1296 C 0.29294 0.12359 0.16226 0.0
C1297 C 0.23531 0.10436 0.18729 0.0
C1298 C 0.34255 0.13037 0.09765 0.0
C1299 C 0.32981 0.13053 0.11252 0.0
C1300 C 0.28588 0.11183 0.1245 0.0
C1301 C 0.26127 0.11813 0.17247 0.0
C1302 C 0.27568 0.11804 0.15753 0.0
C1303 C 0.31753 0.11663 0.11437 0.0
C1304 C 0.30315 0.11725 0.12927 0.0
H1305 H 0.24634 0.14235 0.21104 0.0
H1306 H 0.26938 0.14268 0.18617 0.0
H1307 H 0.25918 0.10819 0.13406 0.0
H1308 H 0.33172 0.09089 0.0768 0.0
H1309 H 0.30978 0.09116 0.10268 0.0
C1310 C 0.15252 0.08333 0.33905 0.0
C1311 C 0.13745 0.09368 0.33525 0.0
C1312 C 0.15252 0.07082 0.35406 0.0
C1313 C 0.12222 0.0434 0.38367 0.0
H1314 H 0.16434 0.03482 0.41444 0.0
C1315 C 0.12405 0.99324 0.44796 0.0
C1316 C 0.13954 0.98314 0.45033 0.0
C1317 C 0.12332 0.00694 0.43422 0.0
C1318 C 0.15252 0.03688 0.40584 0.0
H1319 H 0.11067 0.09926 0.34477 0.0
H1320 H 0.11075 0.07754 0.37116 0.0
H1321 H 0.16403 0.0589 0.39089 0.0
H1322 H 0.16616 0.97916 0.43942 0.0
H1323 H 0.16487 0.00292 0.41549 0.0
H1324 H 0.11075 0.02127 0.39857 0.0
C1325 C 0.12251 0.07897 0.3623 0.0
C1326 C 0.15233 0.05075 0.39233 0.0
C1327 C 0.12253 0.09156 0.34728 0.0
C1328 C 0.15412 0.98686 0.43827 0.0
C1329 C 0.15339 1.00053 0.42455 0.0
C1330 C 0.1224 0.0295 0.3972 0.0
C1331 C 0.13744 0.06827 0.36573 0.0
C1332 C 0.13724 0.05412 0.38093 0.0
C1333 C 0.13806 0.01092 0.42249 0.0
C1334 C 0.13762 0.02596 0.40835 0.0
H1335 H 0.16425 0.08453 0.3301 0.0
H1336 H 0.16419 0.06272 0.35607 0.0
H1337 H 0.11045 0.04542 0.37496 0.0
H1338 H 0.11264 0.99091 0.45715 0.0
H1339 H 0.11135 0.01475 0.43319 0.0
C1340 C 0.26908 0.89961 0.68704 0.0
C1341 C 0.27082 0.88578 0.7006 0.0
C1342 C 0.25561 0.89935 0.67305 0.0
C1343 C 0.21202 0.87872 0.66204 0.0
H1344 H 0.22116 0.89688 0.61021 0.0
C1345 C 0.16229 0.87236 0.59739 0.0
C1346 C 0.16086 0.88699 0.5848 0.0
C1347 C 0.17508 0.87209 0.61221 0.0
C1348 C 0.21831 0.89193 0.62468 0.0
H1349 H 0.25992 0.86059 0.70972 0.0
H1350 H 0.23657 0.85999 0.68517 0.0
H1351 H 0.24493 0.89626 0.6341 0.0
H1352 H 0.17136 0.91313 0.57858 0.0
H1353 H 0.1934 0.91266 0.60434 0.0
H1354 H 0.18538 0.87425 0.65242 0.0
C1355 C 0.2454 0.87126 0.6856 0.0
C1356 C 0.23197 0.89159 0.63842 0.0
C1357 C 0.25884 0.87157 0.69965 0.0
C1358 C 0.17209 0.90156 0.58788 0.0
C1359 C 0.18487 0.90126 0.60258 0.0
C1360 C 0.19836 0.87899 0.64823 0.0
C1361 C 0.24353 0.8852 0.67215 0.0
C1362 C 0.22901 0.88509 0.65735 0.0
C1363 C 0.18678 0.8864 0.61471 0.0
C1364 C 0.2013 0.88573 0.62942 0.0
H1365 H 0.27787 0.91092 0.68754 0.0
H1366 H 0.25445 0.91048 0.66321 0.0
H1367 H 0.20915 0.87384 0.67652 0.0
H1368 H 0.15393 0.86087 0.59544 0.0
H1369 H 0.17622 0.8604 0.62124 0.0
C1370 C 0.35296 0.92182 0.83703 0.0
C1371 C 0.36724 0.9101 0.83458 0.0
C1372 C 0.35317 0.93458 0.85174 0.0
C1373 C 0.37422 0.94729 0.89833 0.0
H1374 H 0.3592 0.99444 0.88347 0.0
C1375 C 0.38201 0.00745 0.95006 0.0
C1376 C 0.36821 0.01993 0.95041 0.0
C1377 C 0.38233 0.99402 0.93601 0.0
C1378 C 0.36324 0.98133 0.88799 0.0
H1379 H 0.39269 0.90226 0.84634 0.0
H1380 H 0.393 0.92453 0.87217 0.0
H1381 H 0.35858 0.9707 0.85957 0.0
H1382 H 0.34384 0.02791 0.93628 0.0
H1383 H 0.34431 0.0045 0.91194 0.0
H1384 H 0.37873 0.9579 0.92683 0.0
C1385 C 0.38161 0.92379 0.86263 0.0
C1386 C 0.36289 0.96768 0.87424 0.0
C1387 C 0.38144 0.91101 0.8478 0.0
C1388 C 0.35483 0.01872 0.93625 0.0
C1389 C 0.35511 0.00526 0.92227 0.0
C1390 C 0.37449 0.96094 0.91214 0.0
C1391 C 0.36764 0.93597 0.86451 0.0
C1392 C 0.36829 0.95046 0.87924 0.0
C1393 C 0.36883 0.99267 0.92197 0.0
C1394 C 0.36893 0.97815 0.90718 0.0
H1395 H 0.34173 0.92149 0.82722 0.0
H1396 H 0.34203 0.94351 0.853 0.0
H1397 H 0.37832 0.93416 0.90272 0.0
H1398 H 0.39264 0.00812 0.9606 0.0
H1399 H 0.39328 0.98479 0.93606 0.0
C1400 C 0.34301 0.87323 0.4297 0.0
C1401 C 0.34382 0.88749 0.44284 0.0
C1402 C 0.33052 0.8731 0.41458 0.0
C1403 C 0.29949 0.9022 0.38693 0.0
H1404 H 0.27506 0.85823 0.37602 0.0
C1405 C 0.23615 0.89982 0.33975 0.0
C1406 C 0.23478 0.88609 0.32601 0.0
C1407 C 0.24963 0.89975 0.35373 0.0
C1408 C 0.28186 0.87058 0.37874 0.0
H1409 H 0.33233 0.913 0.44995 0.0
H1410 H 0.31062 0.91266 0.42392 0.0
H1411 H 0.29877 0.85874 0.40011 0.0
H1412 H 0.24629 0.86125 0.31665 0.0
H1413 H 0.26986 0.86118 0.34096 0.0
H1414 H 0.28243 0.91407 0.36572 0.0
C1415 C 0.31973 0.90166 0.42506 0.0
C1416 C 0.29553 0.87087 0.39253 0.0
C1417 C 0.33219 0.90181 0.4401 0.0
C1418 C 0.24704 0.87212 0.32688 0.0
C1419 C 0.26047 0.872 0.34094 0.0
C1420 C 0.28579 0.90191 0.37321 0.0
C1421 C 0.31853 0.88721 0.41222 0.0
C1422 C 0.30448 0.88671 0.3969 0.0
C1423 C 0.26206 0.88591 0.35443 0.0
C1424 C 0.27674 0.88612 0.36899 0.0
H1425 H 0.35172 0.86198 0.43133 0.0
H1426 H 0.33019 0.86187 0.40481 0.0
H1427 H 0.30625 0.91458 0.38962 0.0
H1428 H 0.22705 0.91088 0.3394 0.0
H1429 H 0.25031 0.91057 0.36404 0.0
C1430 C 0.35103 0.98571 0.59077 0.0
C1431 C 0.36534 0.98262 0.57813 0.0
C1432 C 0.35183 0.99909 0.60481 0.0
C1433 C 0.37518 0.04083 0.61684 0.0
H1434 H 0.35467 0.03322 0.66789 0.0
C1435 C 0.38225 0.09093 0.68093 0.0
C1436 C 0.3676 0.09298 0.69337 0.0
C1437 C 0.38215 0.07804 0.66623 0.0
C1438 C 0.36027 0.03567 0.65363 0.0
H1439 H 0.39182 0.99123 0.57056 0.0
H1440 H 0.39335 0.01437 0.59531 0.0
H1441 H 0.35455 0.00933 0.64415 0.0
H1442 H 0.34103 0.08358 0.69941 0.0
H1443 H 0.34078 0.06145 0.67374 0.0
H1444 H 0.38089 0.06722 0.6264 0.0
C1445 C 0.3814 0.00655 0.59418 0.0
C1446 C 0.36022 0.02193 0.63999 0.0
C1447 C 0.38061 0.99311 0.58014 0.0
C1448 C 0.35262 0.08233 0.69023 0.0
C1449 C 0.35252 0.06949 0.67558 0.0
C1450 C 0.37523 0.0546 0.63051 0.0
C1451 C 0.36697 0.00979 0.60664 0.0
C1452 C 0.36757 0.02433 0.62136 0.0
C1453 C 0.36741 0.0669 0.66364 0.0
C1454 C 0.36766 0.05225 0.64904 0.0
H1455 H 0.33913 0.97779 0.5898 0.0
H1456 H 0.34039 1.00128 0.614 0.0
H1457 H 0.38076 0.04325 0.60256 0.0
H1458 H 0.39405 0.09883 0.68296 0.0
H1459 H 0.39388 0.07637 0.65738 0.0
C1460 C 0.16179 0.13136 0.92933 0.0
C1461 C 0.16081 0.11698 0.9423 0.0
C1462 C 0.17433 0.13153 0.91426 0.0
C1463 C 0.20513 0.10235 0.88642 0.0
H1464 H 0.23035 0.14604 0.8763 0.0
C1465 C 0.26925 0.10403 0.84065 0.0
C1466 C 0.27116 0.11782 0.82704 0.0
C1467 C 0.25549 0.10425 0.85429 0.0
C1468 C 0.22332 0.13377 0.87879 0.0
H1469 H 0.17204 0.09128 0.94915 0.0
H1470 H 0.19381 0.09169 0.92321 0.0
H1471 H 0.20635 0.14567 0.90008 0.0
H1472 H 0.26026 0.14291 0.81755 0.0
H1473 H 0.23619 0.14324 0.84128 0.0
H1474 H 0.22224 0.09041 0.86533 0.0
C1475 C 0.18481 0.10276 0.92444 0.0
C1476 C 0.2095 0.13356 0.8924 0.0
C1477 C 0.17231 0.10259 0.93944 0.0
C1478 C 0.2591 0.132 0.82769 0.0
C1479 C 0.24539 0.13226 0.84141 0.0
C1480 C 0.21898 0.10255 0.87289 0.0
C1481 C 0.18618 0.11732 0.91177 0.0
C1482 C 0.20028 0.11781 0.89651 0.0
C1483 C 0.24329 0.1183 0.85477 0.0
C1484 C 0.22834 0.11823 0.86898 0.0
H1485 H 0.15318 0.14268 0.93107 0.0
H1486 H 0.1748 0.14286 0.90461 0.0
H1487 H 0.19816 0.09004 0.8889 0.0
H1488 H 0.27816 0.09282 0.84047 0.0
H1489 H 0.25443 0.09339 0.86451 0.0
C1490 C 0.15204 0.92243 0.18986 0.0
C1491 C 0.13772 0.9108 0.19255 0.0
C1492 C 0.15172 0.93518 0.17511 0.0
C1493 C 0.13017 0.94787 0.12877 0.0
H1494 H 0.14586 0.99495 0.14306 0.0
C1495 C 0.12225 0.00781 0.07673 0.0
C1496 C 0.13616 0.02017 0.07603 0.0
C1497 C 0.12199 0.99448 0.0909 0.0
C1498 C 0.14163 0.98185 0.1387 0.0
H1499 H 0.11208 0.90309 0.1812 0.0
H1500 H 0.11158 0.92533 0.15532 0.0
H1501 H 0.14657 0.9713 0.16711 0.0
H1502 H 0.16077 0.02803 0.08971 0.0
H1503 H 0.16042 0.00479 0.11427 0.0
H1504 H 0.12539 0.95839 0.10028 0.0
C1505 C 0.12308 0.92454 0.1647 0.0
C1506 C 0.14203 0.96827 0.15254 0.0
C1507 C 0.12335 0.91179 0.17956 0.0
C1508 C 0.1497 0.01894 0.09 0.0
C1509 C 0.14949 0.00557 0.10411 0.0
C1510 C 0.12985 0.96146 0.11487 0.0
C1511 C 0.13711 0.93663 0.16255 0.0
C1512 C 0.13639 0.95107 0.14774 0.0
C1513 C 0.13567 0.99309 0.10473 0.0
C1514 C 0.13565 0.97864 0.11962 0.0
H1515 H 0.16339 0.92205 0.19948 0.0
H1516 H 0.16291 0.94402 0.17365 0.0
H1517 H 0.12589 0.93476 0.12453 0.0
H1518 H 0.11148 0.0085 0.06635 0.0
H1519 H 0.11096 0.98535 0.09111 0.0
C1520 C 0.76851 0.90007 0.83864 0.0
C1521 C 0.76992 0.88612 0.82518 0.0
C1522 C 0.75518 0.90006 0.85283 0.0
C1523 C 0.72354 0.87078 0.87874 0.0
H1524 H 0.69862 0.91458 0.88911 0.0
C1525 C 0.66227 0.87309 0.92947 0.0
C1526 C 0.66122 0.88742 0.94249 0.0
C1527 C 0.67482 0.87301 0.91442 0.0
C1528 C 0.70553 0.90226 0.88656 0.0
H1529 H 0.75869 0.86092 0.81657 0.0
H1530 H 0.73541 0.86095 0.84117 0.0
H1531 H 0.72237 0.91412 0.86512 0.0
H1532 H 0.67236 0.91314 0.94945 0.0
H1533 H 0.69417 0.91288 0.92349 0.0
H1534 H 0.70683 0.85895 0.9003 0.0
C1535 C 0.74463 0.87191 0.8408 0.0
C1536 C 0.7192 0.902 0.8728 0.0
C1537 C 0.75789 0.87197 0.82656 0.0
C1538 C 0.67268 0.90186 0.93969 0.0
C1539 C 0.68521 0.90177 0.92469 0.0
C1540 C 0.7099 0.87105 0.89256 0.0
C1541 C 0.74297 0.88604 0.854 0.0
C1542 C 0.72842 0.88628 0.86873 0.0
C1543 C 0.68663 0.88725 0.91199 0.0
C1544 C 0.70074 0.88681 0.89672 0.0
H1545 H 0.77743 0.91126 0.83792 0.0
H1546 H 0.75446 0.91105 0.8629 0.0
H1547 H 0.73048 0.85849 0.87616 0.0
H1548 H 0.65369 0.86174 0.93115 0.0
H1549 H 0.67532 0.86171 0.90474 0.0
C1550 C 0.88312 0.00781 0.5771 0.0
C1551 C 0.8687 0.01952 0.57573 0.0
C1552 C 0.88326 0.99425 0.59102 0.0
C1553 C 0.85321 0.96747 0.62174 0.0
H1554 H 0.89588 0.95584 0.65031 0.0
C1555 C 0.85264 0.92079 0.68837 0.0
C1556 C 0.86723 0.90964 0.69168 0.0
C1557 C 0.85289 0.9333 0.67337 0.0
C1558 C 0.88391 0.9587 0.64225 0.0
H1559 H 0.84315 0.0261 0.5881 0.0
H1560 H 0.8435 0.00263 0.6125 0.0
H1561 H 0.89636 0.97975 0.62645 0.0
H1562 H 0.89338 0.90262 0.68123 0.0
H1563 H 0.89368 0.92425 0.65477 0.0
H1564 H 0.84074 0.94645 0.63746 0.0
C1565 C 0.85465 0.00384 0.60268 0.0
C1566 C 0.88417 0.97248 0.62859 0.0
C1567 C 0.85454 0.01745 0.58884 0.0
C1568 C 0.8819 0.91097 0.67914 0.0
C1569 C 0.88213 0.92351 0.66407 0.0
C1570 C 0.85296 0.95367 0.63533 0.0
C1571 C 0.86895 0.99197 0.60387 0.0
C1572 C 0.86879 0.97714 0.61825 0.0
C1573 C 0.86772 0.93502 0.66115 0.0
C1574 C 0.86826 0.94915 0.6459 0.0
H1575 H 0.89431 0.0091 0.56737 0.0
H1576 H 0.89445 0.98531 0.59141 0.0
H1577 H 0.8412 0.97045 0.61379 0.0
H1578 H 0.84112 0.92025 0.69774 0.0
H1579 H 0.84163 0.94203 0.67179 0.0
C1580 C 0.736 0.10417 0.33972 0.0
C1581 C 0.73421 0.11813 0.32631 0.0
C1582 C 0.7495 0.10434 0.35369 0.0
C1583 C 0.78108 0.13391 0.37925 0.0
H1584 H 0.80644 0.0903 0.3893 0.0
C1585 C 0.84245 0.13167 0.43003 0.0
C1586 C 0.84353 0.11724 0.44293 0.0
C1587 C 0.82991 0.13182 0.41496 0.0
C1588 C 0.7994 0.10257 0.38684 0.0
H1589 H 0.74499 0.1435 0.31758 0.0
H1590 H 0.76859 0.14373 0.34182 0.0
H1591 H 0.78258 0.09065 0.36545 0.0
H1592 H 0.83245 0.09145 0.44964 0.0
H1593 H 0.81067 0.09182 0.42369 0.0
H1594 H 0.79779 0.14579 0.40079 0.0
C1595 C 0.75952 0.13265 0.34157 0.0
C1596 C 0.78568 0.10276 0.37315 0.0
C1597 C 0.74607 0.13244 0.32753 0.0
C1598 C 0.8321 0.10279 0.44 0.0
C1599 C 0.8196 0.10296 0.42499 0.0
C1600 C 0.79479 0.13371 0.393 0.0
C1601 C 0.76153 0.11851 0.35471 0.0
C1602 C 0.77626 0.11841 0.36923 0.0
C1603 C 0.81815 0.11756 0.41239 0.0
C1604 C 0.80409 0.118 0.39707 0.0
H1605 H 0.72723 0.09286 0.33912 0.0
H1606 H 0.75049 0.09333 0.36373 0.0
H1607 H 0.774 0.14615 0.37678 0.0
H1608 H 0.85102 0.14302 0.43181 0.0
H1609 H 0.82938 0.14319 0.40537 0.0
C1610 C 0.62436 0.99348 0.07945 0.0
C1611 C 0.63967 0.98307 0.07726 0.0
C1612 C 0.62377 0.0072 0.09316 0.0
C1613 C 0.65321 0.03657 0.12197 0.0
H1614 H 0.6109 0.04586 0.15217 0.0
C1615 C 0.65299 0.08348 0.18845 0.0
C1616 C 0.63796 0.09398 0.19196 0.0
C1617 C 0.65306 0.07088 0.17354 0.0
C1618 C 0.62276 0.04363 0.14366 0.0
H1619 H 0.66612 0.9786 0.08845 0.0
H1620 H 0.66507 0.00239 0.11234 0.0
H1621 H 0.6111 0.02169 0.12863 0.0
H1622 H 0.61134 0.09972 0.18199 0.0
H1623 H 0.61156 0.07788 0.15577 0.0
H1624 H 0.66491 0.05842 0.13704 0.0
C1625 C 0.65363 1.00022 0.10316 0.0
C1626 C 0.62288 0.02972 0.13016 0.0
C1627 C 0.65422 0.98653 0.08946 0.0
C1628 C 0.62317 0.09191 0.17972 0.0
C1629 C 0.62323 0.07925 0.16479 0.0
C1630 C 0.65309 0.05046 0.13545 0.0
C1631 C 0.63848 0.01089 0.10507 0.0
C1632 C 0.63816 0.02591 0.11923 0.0
C1633 C 0.6381 0.06839 0.16167 0.0
C1634 C 0.63791 0.05413 0.14659 0.0
H1635 H 0.61299 0.99138 0.07014 0.0
H1636 H 0.61194 0.01523 0.09405 0.0
H1637 H 0.66511 0.03429 0.11356 0.0
H1638 H 0.66462 0.08461 0.19759 0.0
H1639 H 0.66467 0.06266 0.17176 0.0
C1640 C 0.76909 0.10411 0.68791 0.0
C1641 C 0.77008 0.11777 0.70176 0.0
C1642 C 0.7559 0.10416 0.67357 0.0
C1643 C 0.71178 0.12347 0.66219 0.0
H1644 H 0.72211 0.10686 0.61003 0.0
C1645 C 0.66251 0.13043 0.59738 0.0
C1646 C 0.66163 0.11632 0.58405 0.0
C1647 C 0.67521 0.1305 0.61229 0.0
C1648 C 0.71892 0.11136 0.62458 0.0
H1649 H 0.75823 0.14252 0.71091 0.0
H1650 H 0.7354 0.14272 0.68584 0.0
H1651 H 0.74553 0.10753 0.63436 0.0
H1652 H 0.6731 0.0909 0.57652 0.0
H1653 H 0.69497 0.09099 0.60248 0.0
H1654 H 0.68516 0.1274 0.6523 0.0
C1655 C 0.74456 0.13173 0.6863 0.0
C1656 C 0.73239 0.11174 0.63858 0.0
C1657 C 0.75771 0.13164 0.70067 0.0
C1658 C 0.67338 0.10205 0.58642 0.0
C1659 C 0.68607 0.10215 0.60124 0.0
C1660 C 0.69831 0.12314 0.64816 0.0
C1661 C 0.74336 0.11791 0.67263 0.0
C1662 C 0.72902 0.11775 0.65761 0.0
C1663 C 0.68737 0.1165 0.61418 0.0
C1664 C 0.70168 0.117 0.62919 0.0
H1665 H 0.77821 0.09308 0.68847 0.0
H1666 H 0.75528 0.09316 0.6635 0.0
H1667 H 0.70857 0.12792 0.67675 0.0
H1668 H 0.65374 0.14168 0.59599 0.0
H1669 H 0.67587 0.14182 0.62192 0.0
C1670 C 0.65031 0.01785 0.43693 0.0
C1671 C 0.63632 0.01994 0.45024 0.0
C1672 C 0.64998 0.00429 0.42305 0.0
C1673 C 0.62871 0.96103 0.412 0.0
H1674 H 0.64766 0.96954 0.3604 0.0
C1675 C 0.62213 0.91106 0.34762 0.0
C1676 C 0.63681 0.90936 0.33514 0.0
C1677 C 0.62199 0.9239 0.36238 0.0
C1678 C 0.64249 0.96686 0.37481 0.0
H1679 H 0.61079 0.00956 0.45898 0.0
H1680 H 0.61011 0.98607 0.43463 0.0
H1681 H 0.6472 0.99344 0.38411 0.0
H1682 H 0.66315 0.91941 0.32908 0.0
H1683 H 0.6629 0.94152 0.35475 0.0
H1684 H 0.62388 0.93442 0.40251 0.0
C1685 C 0.62154 0.99469 0.43518 0.0
C1686 C 0.64223 0.98059 0.38845 0.0
C1687 C 0.6219 0.00821 0.44913 0.0
C1688 C 0.65156 0.92035 0.3383 0.0
C1689 C 0.65138 0.93318 0.35295 0.0
C1690 C 0.6289 0.94728 0.39829 0.0
C1691 C 0.63562 0.99247 0.42199 0.0
C1692 C 0.63545 0.97787 0.4073 0.0
C1693 C 0.63647 0.93538 0.36494 0.0
C1694 C 0.63592 0.94999 0.37956 0.0
H1695 H 0.66177 0.02642 0.43756 0.0
H1696 H 0.66122 0.00286 0.4134 0.0
H1697 H 0.6236 0.95832 0.42642 0.0
H1698 H 0.61052 0.9029 0.3456 0.0
H1699 H 0.61026 0.92527 0.3713 0.0
C1700 C 0.83212 0.90165 0.0883 0.0
C1701 C 0.84315 0.88696 0.08506 0.0
C1702 C 0.81934 0.90139 0.10303 0.0
C1703 C 0.80568 0.87865 0.14843 0.0
H1704 H 0.7594 0.89721 0.13514 0.0
C1705 C 0.74539 0.8708 0.1999 0.0
C1706 C 0.73375 0.88523 0.20161 0.0
C1707 C 0.75868 0.87068 0.18568 0.0
C1708 C 0.77229 0.89216 0.13922 0.0
H1709 H 0.84972 0.86065 0.09539 0.0
H1710 H 0.82743 0.86023 0.12118 0.0
H1711 H 0.78306 0.89788 0.11109 0.0
H1712 H 0.72707 0.9109 0.18961 0.0
H1713 H 0.75023 0.91076 0.16493 0.0
H1714 H 0.79493 0.87303 0.17662 0.0
C1715 C 0.82872 0.872 0.11229 0.0
C1716 C 0.78588 0.89254 0.12539 0.0
C1717 C 0.84151 0.87223 0.09747 0.0
C1718 C 0.73561 0.89945 0.18854 0.0
C1719 C 0.74893 0.89936 0.17437 0.0
C1720 C 0.79208 0.87832 0.16231 0.0
C1721 C 0.81724 0.88645 0.115 0.0
C1722 C 0.80279 0.88586 0.12982 0.0
C1723 C 0.76073 0.88502 0.17279 0.0
C1724 C 0.77519 0.88512 0.15792 0.0
H1725 H 0.83301 0.91329 0.07914 0.0
H1726 H 0.81099 0.91289 0.10493 0.0
H1727 H 0.81857 0.87355 0.15242 0.0
H1728 H 0.7442 0.85952 0.20952 0.0
H1729 H 0.76727 0.85926 0.18471 0.0
C1730 C 0.85117 0.08449 0.8402 0.0
C1731 C 0.8665 0.09435 0.83609 0.0
C1732 C 0.85117 0.07159 0.8548 0.0
C1733 C 0.87549 0.05515 0.89823 0.0
H1734 H 0.85163 0.01118 0.8858 0.0
C1735 C 0.88034 0.99303 0.94783 0.0
C1736 C 0.8647 0.98329 0.95078 0.0
C1737 C 0.88104 0.00655 0.93386 0.0
C1738 C 0.8582 0.02342 0.88963 0.0
H1739 H 0.89374 0.09873 0.84477 0.0
H1740 H 0.89375 0.07617 0.87028 0.0
H1741 H 0.85173 0.03521 0.86222 0.0
H1742 H 0.83769 0.9799 0.94083 0.0
H1743 H 0.83883 0.00353 0.91676 0.0
H1744 H 0.88194 0.04329 0.92569 0.0
C1745 C 0.88166 0.07851 0.86222 0.0
C1746 C 0.85824 0.03725 0.87609 0.0
C1747 C 0.88166 0.09146 0.84756 0.0
C1748 C 0.8499 0.98723 0.93913 0.0
C1749 C 0.85062 1.00069 0.92515 0.0
C1750 C 0.87544 0.04129 0.91181 0.0
C1751 C 0.86652 0.06813 0.86574 0.0
C1752 C 0.86677 0.05337 0.88023 0.0
C1753 C 0.86616 0.01063 0.92239 0.0
C1754 C 0.8667 0.02526 0.90774 0.0
H1755 H 0.83919 0.0864 0.83179 0.0
H1756 H 0.83914 0.06418 0.85737 0.0
H1757 H 0.88205 0.06741 0.90201 0.0
H1758 H 0.89195 0.9905 0.95664 0.0
H1759 H 0.8933 0.01376 0.932 0.0
C1760 C 0.74612 0.63192 0.69926 0.0
C1761 C 0.73387 0.61793 0.70011 0.0
C1762 C 0.75956 0.63207 0.68521 0.0
C1763 C 0.7727 0.61187 0.63789 0.0
H1764 H 0.81956 0.62819 0.6522 0.0
C1765 C 0.83245 0.60178 0.58709 0.0
C1766 C 0.84396 0.6162 0.5844 0.0
C1767 C 0.81965 0.602 0.60179 0.0
C1768 C 0.80651 0.62374 0.64792 0.0
H1769 H 0.72634 0.59303 0.68684 0.0
H1770 H 0.74976 0.59321 0.66249 0.0
H1771 H 0.79577 0.62877 0.67625 0.0
H1772 H 0.85136 0.64194 0.5957 0.0
H1773 H 0.82904 0.64229 0.62146 0.0
H1774 H 0.78345 0.60672 0.60962 0.0
C1775 C 0.74881 0.60428 0.67243 0.0
C1776 C 0.79283 0.62411 0.6617 0.0
C1777 C 0.73534 0.60417 0.68643 0.0
C1778 C 0.84279 0.63058 0.59735 0.0
C1779 C 0.82998 0.63077 0.61215 0.0
C1780 C 0.78637 0.61144 0.62416 0.0
C1781 C 0.76118 0.61819 0.67166 0.0
C1782 C 0.77573 0.61812 0.6569 0.0
C1783 C 0.81801 0.61664 0.61428 0.0
C1784 C 0.80348 0.61729 0.629 0.0
H1785 H 0.74526 0.64285 0.70941 0.0
H1786 H 0.76861 0.64317 0.68488 0.0
H1787 H 0.75966 0.60748 0.63349 0.0
H1788 H 0.83297 0.59041 0.5775 0.0
H1789 H 0.81091 0.59074 0.60324 0.0
C1790 C 0.65198 0.58157 0.83646 0.0
C1791 C 0.63781 0.59347 0.83424 0.0
C1792 C 0.6518 0.56879 0.85116 0.0
C1793 C 0.63109 0.55628 0.89804 0.0
H1794 H 0.64544 0.50896 0.88303 0.0
C1795 C 0.62284 0.49618 0.94977 0.0
C1796 C 0.63649 0.48353 0.95006 0.0
C1797 C 0.62261 0.50961 0.93571 0.0
C1798 C 0.64159 0.52212 0.88759 0.0
H1799 H 0.6126 0.60159 0.8464 0.0
H1800 H 0.61234 0.57928 0.87219 0.0
H1801 H 0.64615 0.53273 0.85912 0.0
H1802 H 0.66068 0.47526 0.93579 0.0
H1803 H 0.66038 0.49868 0.91143 0.0
H1804 H 0.62667 0.54569 0.92657 0.0
C1805 C 0.62362 0.5799 0.86248 0.0
C1806 C 0.642 0.53578 0.87383 0.0
C1807 C 0.62376 0.59269 0.84767 0.0
C1808 C 0.64981 0.48459 0.93582 0.0
C1809 C 0.64963 0.49805 0.92182 0.0
C1810 C 0.63076 0.54262 0.91185 0.0
C1811 C 0.63747 0.56755 0.86414 0.0
C1812 C 0.63683 0.55305 0.87889 0.0
C1813 C 0.63606 0.51081 0.9216 0.0
C1814 C 0.63607 0.52535 0.90683 0.0
H1815 H 0.66309 0.58178 0.82648 0.0
H1816 H 0.66285 0.55973 0.85225 0.0
H1817 H 0.62718 0.56945 0.90248 0.0
H1818 H 0.61224 0.49563 0.96037 0.0
H1819 H 0.61178 0.51898 0.93583 0.0
C1820 C 0.67246 0.40144 0.08662 0.0
C1821 C 0.66046 0.38738 0.08432 0.0
C1822 C 0.68492 0.40133 0.10168 0.0
C1823 C 0.70829 0.37076 0.13519 0.0
H1824 H 0.72255 0.41429 0.16056 0.0
C1825 C 0.75697 0.37253 0.20067 0.0
C1826 C 0.76961 0.38619 0.20101 0.0
C1827 C 0.7435 0.37237 0.18666 0.0
C1828 C 0.71886 0.40203 0.15348 0.0
H1829 H 0.65187 0.36238 0.0966 0.0
H1830 H 0.67339 0.36235 0.12314 0.0
H1831 H 0.69872 0.41479 0.13669 0.0
H1832 H 0.77795 0.41037 0.18672 0.0
H1833 H 0.7546 0.40999 0.16219 0.0
H1834 H 0.72845 0.35803 0.15208 0.0
C1835 C 0.67337 0.37334 0.11302 0.0
C1836 C 0.70516 0.40232 0.13977 0.0
C1837 C 0.66089 0.37343 0.09789 0.0
C1838 C 0.76856 0.39955 0.1868 0.0
C1839 C 0.75503 0.39945 0.17287 0.0
C1840 C 0.72196 0.37048 0.14897 0.0
C1841 C 0.68572 0.38718 0.11496 0.0
C1842 C 0.69975 0.38671 0.13031 0.0
C1843 C 0.74223 0.38593 0.1727 0.0
C1844 C 0.72751 0.38613 0.1582 0.0
H1845 H 0.67262 0.41239 0.07644 0.0
H1846 H 0.69431 0.41211 0.10248 0.0
H1847 H 0.70472 0.35853 0.12801 0.0
H1848 H 0.75747 0.36193 0.21128 0.0
H1849 H 0.73383 0.36181 0.18706 0.0
C1850 C 0.8511 0.51798 0.43661 0.0
C1851 C 0.86544 0.52119 0.44918 0.0
C1852 C 0.85193 0.50458 0.4226 0.0
C1853 C 0.8755 0.46297 0.41053 0.0
H1854 H 0.85433 0.47026 0.35975 0.0
C1855 C 0.88171 0.41264 0.34644 0.0
C1856 C 0.86677 0.41045 0.33445 0.0
C1857 C 0.88188 0.42559 0.36109 0.0
C1858 C 0.86013 0.4679 0.37394 0.0
H1859 H 0.892 0.51277 0.45666 0.0
H1860 H 0.89359 0.4896 0.43194 0.0
H1861 H 0.85442 0.49426 0.38334 0.0
H1862 H 0.83999 0.41962 0.32919 0.0
H1863 H 0.84023 0.44185 0.35473 0.0
H1864 H 0.88122 0.43656 0.40101 0.0
C1865 C 0.88159 0.49734 0.4331 0.0
C1866 C 0.86019 0.48171 0.38749 0.0
C1867 C 0.88077 0.51079 0.44712 0.0
C1868 C 0.85179 0.42099 0.33801 0.0
C1869 C 0.85196 0.43388 0.35258 0.0
C1870 C 0.87546 0.44914 0.39693 0.0
C1871 C 0.86714 0.49399 0.42072 0.0
C1872 C 0.86774 0.47941 0.40604 0.0
C1873 C 0.86713 0.43664 0.36405 0.0
C1874 C 0.86762 0.45138 0.37851 0.0
H1875 H 0.83915 0.52583 0.43761 0.0
H1876 H 0.84047 0.5023 0.41348 0.0
H1877 H 0.88125 0.46064 0.42474 0.0
H1878 H 0.89351 0.40482 0.34408 0.0
H1879 H 0.8938 0.42737 0.36959 0.0
C1880 C 0.74525 0.37197 0.8276 0.0
C1881 C 0.73298 0.38594 0.82697 0.0
C1882 C 0.75871 0.37168 0.84163 0.0
C1883 C 0.77177 0.3914 0.88922 0.0
H1884 H 0.81873 0.37549 0.8747 0.0
C1885 C 0.83152 0.40199 0.93974 0.0
C1886 C 0.84312 0.38765 0.94249 0.0
C1887 C 0.81871 0.40162 0.92507 0.0
C1888 C 0.80565 0.37982 0.87903 0.0
H1889 H 0.72539 0.41066 0.84059 0.0
H1890 H 0.74883 0.41025 0.8649 0.0
H1891 H 0.79491 0.37495 0.85066 0.0
H1892 H 0.85069 0.36191 0.93132 0.0
H1893 H 0.82833 0.36132 0.90557 0.0
H1894 H 0.78253 0.39642 0.9175 0.0
C1895 C 0.7479 0.3993 0.85481 0.0
C1896 C 0.79196 0.37947 0.86526 0.0
C1897 C 0.73442 0.39954 0.84084 0.0
C1898 C 0.84203 0.37321 0.92962 0.0
C1899 C 0.82921 0.37287 0.91484 0.0
C1900 C 0.78545 0.39182 0.90292 0.0
C1901 C 0.76029 0.3854 0.85538 0.0
C1902 C 0.77483 0.38534 0.87014 0.0
C1903 C 0.81715 0.38692 0.91266 0.0
C1904 C 0.8026 0.38613 0.898 0.0
H1905 H 0.74441 0.36116 0.81729 0.0
H1906 H 0.76778 0.3606 0.8418 0.0
H1907 H 0.75872 0.39567 0.89367 0.0
H1908 H 0.83199 0.41341 0.94925 0.0
H1909 H 0.80989 0.41282 0.92357 0.0
C1910 C 0.88099 0.59248 0.17975 0.0
C1911 C 0.86706 0.59318 0.19333 0.0
C1912 C 0.881 0.57977 0.16486 0.0
C1913 C 0.86252 0.53573 0.15332 0.0
H1914 H 0.87731 0.54615 0.10051 0.0
C1915 C 0.85426 0.48507 0.09087 0.0
C1916 C 0.86743 0.48424 0.07644 0.0
C1917 C 0.85454 0.49838 0.10504 0.0
C1918 C 0.87337 0.54293 0.11525 0.0
H1919 H 0.84186 0.58141 0.20131 0.0
H1920 H 0.84188 0.5595 0.17541 0.0
H1921 H 0.87702 0.56968 0.12484 0.0
H1922 H 0.89152 0.49655 0.06598 0.0
H1923 H 0.89217 0.51961 0.09081 0.0
H1924 H 0.85902 0.509 0.14389 0.0
C1925 C 0.85294 0.56856 0.17643 0.0
C1926 C 0.87317 0.55646 0.12919 0.0
C1927 C 0.85288 0.58127 0.19121 0.0
C1928 C 0.88104 0.49693 0.07672 0.0
C1929 C 0.88137 0.5102 0.09094 0.0
C1930 C 0.8628 0.5222 0.13943 0.0
C1931 C 0.86713 0.56742 0.16327 0.0
C1932 C 0.86763 0.55306 0.14838 0.0
C1933 C 0.86806 0.5112 0.10523 0.0
C1934 C 0.86814 0.5256 0.12015 0.0
H1935 H 0.89214 0.60139 0.18093 0.0
H1936 H 0.89218 0.57922 0.15502 0.0
H1937 H 0.85851 0.53255 0.16805 0.0
H1938 H 0.84343 0.47569 0.09092 0.0
H1939 H 0.8439 0.49885 0.11557 0.0
C1940 C 0.76968 0.60436 0.34105 0.0
C1941 C 0.77125 0.61822 0.32749 0.0
C1942 C 0.75623 0.60447 0.35506 0.0
C1943 C 0.71239 0.62457 0.36599 0.0
H1944 H 0.72165 0.60677 0.41794 0.0
C1945 C 0.66249 0.63106 0.43035 0.0
C1946 C 0.66121 0.61664 0.44324 0.0
C1947 C 0.67531 0.63122 0.41557 0.0
C1948 C 0.71877 0.61161 0.40344 0.0
H1949 H 0.7601 0.64333 0.31847 0.0
H1950 H 0.73678 0.64365 0.34303 0.0
H1951 H 0.74544 0.60749 0.39407 0.0
H1952 H 0.67202 0.59075 0.45006 0.0
H1953 H 0.6941 0.59103 0.42432 0.0
H1954 H 0.6857 0.6288 0.37553 0.0
C1955 C 0.74572 0.63247 0.34257 0.0
C1956 C 0.73244 0.61202 0.38971 0.0
C1957 C 0.75915 0.63232 0.3285 0.0
C1958 C 0.67263 0.60215 0.44051 0.0
C1959 C 0.68543 0.60235 0.42582 0.0
C1960 C 0.69872 0.62422 0.37978 0.0
C1961 C 0.744 0.61849 0.35598 0.0
C1962 C 0.72945 0.61842 0.37075 0.0
C1963 C 0.68718 0.61702 0.41338 0.0
C1964 C 0.7017 0.61763 0.39865 0.0
H1965 H 0.77857 0.59314 0.3405 0.0
H1966 H 0.75518 0.59333 0.3649 0.0
H1967 H 0.70949 0.62935 0.35148 0.0
H1968 H 0.65399 0.64247 0.43203 0.0
H1969 H 0.67632 0.64278 0.4063 0.0
C1970 C 0.6517 0.42124 0.68967 0.0
C1971 C 0.63678 0.4105 0.6929 0.0
C1972 C 0.65183 0.43378 0.67471 0.0
C1973 C 0.62171 0.4605 0.64413 0.0
H1974 H 0.66443 0.47024 0.61481 0.0
C1975 C 0.62395 0.51063 0.57987 0.0
C1976 C 0.63919 0.52117 0.57804 0.0
C1977 C 0.62323 0.49691 0.5936 0.0
C1978 C 0.65243 0.46785 0.62301 0.0
H1979 H 0.61045 0.40429 0.6824 0.0
H1980 H 0.61077 0.42607 0.65609 0.0
H1981 H 0.66411 0.44613 0.63833 0.0
H1982 H 0.66536 0.52595 0.58985 0.0
H1983 H 0.66408 0.50217 0.61376 0.0
H1984 H 0.61007 0.48232 0.62885 0.0
C1985 C 0.6223 0.42491 0.66537 0.0
C1986 C 0.65223 0.45397 0.63649 0.0
C1987 C 0.62218 0.41229 0.68035 0.0
C1988 C 0.65353 0.5179 0.5906 0.0
C1989 C 0.65281 0.50422 0.6043 0.0
C1990 C 0.6219 0.4744 0.63062 0.0
C1991 C 0.63705 0.43599 0.66251 0.0
C1992 C 0.63692 0.45018 0.64736 0.0
C1993 C 0.63773 0.49339 0.60585 0.0
C1994 C 0.63732 0.47836 0.61998 0.0
H1995 H 0.66319 0.4203 0.69905 0.0
H1996 H 0.66335 0.44218 0.67313 0.0
H1997 H 0.60975 0.45816 0.65243 0.0
H1998 H 0.61274 0.5126 0.57029 0.0
H1999 H 0.61147 0.48875 0.59422 0.0
C2000 C 0.16201 0.37342 0.42896 0.0
C2001 C 0.16049 0.38807 0.4415 0.0
C2002 C 0.17482 0.37319 0.41416 0.0
C2003 C 0.21791 0.39334 0.40136 0.0
H2004 H 0.20869 0.37458 0.34984 0.0
C2005 C 0.26843 0.40036 0.33846 0.0
C2006 C 0.27009 0.38634 0.32513 0.0
C2007 C 0.25508 0.40026 0.3526 0.0
C2008 C 0.21158 0.37965 0.36423 0.0
H2009 H 0.1709 0.41425 0.44768 0.0
H2010 H 0.19296 0.41384 0.42192 0.0
H2011 H 0.18502 0.3751 0.37402 0.0
H2012 H 0.25922 0.36094 0.31668 0.0
H2013 H 0.2361 0.36065 0.34145 0.0
H2014 H 0.24446 0.39778 0.39173 0.0
C2015 C 0.18448 0.40241 0.42371 0.0
C2016 C 0.19797 0.37998 0.3781 0.0
C2017 C 0.17168 0.40267 0.43841 0.0
C2018 C 0.25819 0.37208 0.32652 0.0
C2019 C 0.24488 0.37194 0.34072 0.0
C2020 C 0.23152 0.39295 0.38754 0.0
C2021 C 0.18645 0.38755 0.4116 0.0
C2022 C 0.20092 0.38693 0.39681 0.0
C2023 C 0.24304 0.38609 0.35388 0.0
C2024 C 0.22855 0.38618 0.36874 0.0
H2025 H 0.15369 0.36191 0.43093 0.0
H2026 H 0.17601 0.36148 0.40516 0.0
H2027 H 0.22077 0.39847 0.41574 0.0
H2028 H 0.27717 0.41169 0.33763 0.0
H2029 H 0.25395 0.41153 0.36224 0.0
C2030 C 0.3524 0.42065 0.18805 0.0
C2031 C 0.36708 0.40959 0.19126 0.0
C2032 C 0.35268 0.43348 0.17339 0.0
C2033 C 0.37515 0.44743 0.12803 0.0
H2034 H 0.35732 0.49374 0.14227 0.0
C2035 C 0.38226 0.50822 0.07694 0.0
C2036 C 0.36797 0.52012 0.076 0.0
C2037 C 0.38261 0.49471 0.09092 0.0
C2038 C 0.36215 0.48086 0.13791 0.0
H2039 H 0.39336 0.40298 0.18087 0.0
H2040 H 0.39377 0.42534 0.15511 0.0
H2041 H 0.35677 0.46984 0.16601 0.0
H2042 H 0.34275 0.52692 0.08899 0.0
H2043 H 0.34326 0.50337 0.11318 0.0
H2044 H 0.38037 0.45841 0.09984 0.0
C2045 C 0.38203 0.42404 0.16402 0.0
C2046 C 0.36185 0.46712 0.15157 0.0
C2047 C 0.38179 0.41121 0.17881 0.0
C2048 C 0.35411 0.51821 0.08949 0.0
C2049 C 0.35441 0.50466 0.1034 0.0
C2050 C 0.37537 0.46117 0.11429 0.0
C2051 C 0.36761 0.43559 0.16142 0.0
C2052 C 0.36825 0.4502 0.1468 0.0
C2053 C 0.36864 0.49267 0.10429 0.0
C2054 C 0.3688 0.47807 0.11902 0.0
H2055 H 0.34078 0.41979 0.19724 0.0
H2056 H 0.34121 0.44189 0.17155 0.0
H2057 H 0.38005 0.43453 0.1238 0.0
H2058 H 0.39327 0.50943 0.06694 0.0
H2059 H 0.39394 0.48597 0.09134 0.0
C2060 C 0.24664 0.63295 0.82684 0.0
C2061 C 0.23453 0.61884 0.82591 0.0
C2062 C 0.26009 0.63316 0.84088 0.0
C2063 C 0.28576 0.60334 0.87297 0.0
H2064 H 0.2984 0.6465 0.90006 0.0
C2065 C 0.33195 0.6034 0.93997 0.0
C2066 C 0.34354 0.61772 0.94281 0.0
C2067 C 0.31952 0.60359 0.92489 0.0
C2068 C 0.29525 0.63437 0.89242 0.0
H2069 H 0.22709 0.59391 0.83921 0.0
H2070 H 0.25037 0.59438 0.86382 0.0
H2071 H 0.27468 0.64693 0.87597 0.0
H2072 H 0.35139 0.64333 0.9315 0.0
H2073 H 0.32989 0.64353 0.90492 0.0
H2074 H 0.3063 0.59076 0.88933 0.0
C2075 C 0.24957 0.60523 0.85356 0.0
C2076 C 0.28159 0.63462 0.87863 0.0
C2077 C 0.23607 0.60507 0.83959 0.0
C2078 C 0.3427 0.63206 0.92977 0.0
C2079 C 0.33024 0.63224 0.91462 0.0
C2080 C 0.29945 0.60311 0.88669 0.0
C2081 C 0.26185 0.6192 0.8543 0.0
C2082 C 0.27657 0.61907 0.86882 0.0
C2083 C 0.31832 0.6181 0.91213 0.0
C2084 C 0.30432 0.61859 0.89674 0.0
H2085 H 0.24576 0.64386 0.81666 0.0
H2086 H 0.26936 0.64408 0.84093 0.0
H2087 H 0.2825 0.59119 0.86543 0.0
H2088 H 0.33211 0.59213 0.94973 0.0
H2089 H 0.31046 0.59256 0.92366 0.0
C2090 C 0.15252 0.58285 0.68884 0.0
C2091 C 0.13751 0.59333 0.69249 0.0
C2092 C 0.15255 0.57037 0.67381 0.0
C2093 C 0.12227 0.54329 0.64382 0.0
H2094 H 0.16443 0.5347 0.61312 0.0
C2095 C 0.12372 0.49381 0.579 0.0
C2096 C 0.13915 0.48365 0.57642 0.0
C2097 C 0.12313 0.50736 0.59291 0.0
C2098 C 0.15259 0.53676 0.62171 0.0
H2099 H 0.11087 0.59916 0.68268 0.0
H2100 H 0.11098 0.57748 0.65629 0.0
H2101 H 0.16422 0.55855 0.63695 0.0
H2102 H 0.16581 0.47943 0.58709 0.0
H2103 H 0.16475 0.50291 0.61135 0.0
H2104 H 0.11069 0.5214 0.62865 0.0
C2105 C 0.12268 0.57879 0.66528 0.0
C2106 C 0.15247 0.55049 0.63537 0.0
C2107 C 0.12267 0.59135 0.68031 0.0
C2108 C 0.15381 0.48717 0.58842 0.0
C2109 C 0.15322 0.50069 0.60233 0.0
C2110 C 0.1224 0.52952 0.63015 0.0
C2111 C 0.13755 0.56798 0.66198 0.0
C2112 C 0.13735 0.55389 0.64672 0.0
C2113 C 0.13794 0.51112 0.60463 0.0
C2114 C 0.13761 0.52598 0.619 0.0
H2115 H 0.1642 0.58395 0.69791 0.0
H2116 H 0.16417 0.56219 0.67188 0.0
H2117 H 0.11048 0.54533 0.65249 0.0
H2118 H 0.11225 0.49164 0.56986 0.0
H2119 H 0.11121 0.51522 0.5941 0.0
C2120 C 0.16244 0.63137 0.09765 0.0
C2121 C 0.16165 0.61715 0.08446 0.0
C2122 C 0.17513 0.63161 0.11257 0.0
C2123 C 0.21898 0.61285 0.12486 0.0
H2124 H 0.2086 0.62898 0.17719 0.0
C2125 C 0.2692 0.605 0.18791 0.0
C2126 C 0.2702 0.61846 0.202 0.0
C2127 C 0.25597 0.60523 0.17363 0.0
C2128 C 0.21181 0.62466 0.16258 0.0
H2129 H 0.17324 0.5917 0.07722 0.0
H2130 H 0.19509 0.59212 0.10316 0.0
H2131 H 0.18516 0.62855 0.15273 0.0
H2132 H 0.2583 0.64302 0.21167 0.0
H2133 H 0.23539 0.64355 0.18666 0.0
H2134 H 0.2456 0.60906 0.13456 0.0
C2135 C 0.18614 0.60323 0.10181 0.0
C2136 C 0.19833 0.62438 0.14856 0.0
C2137 C 0.17346 0.60295 0.08699 0.0
C2138 C 0.25778 0.6323 0.20123 0.0
C2139 C 0.24459 0.63257 0.1869 0.0
C2140 C 0.23245 0.61318 0.13884 0.0
C2141 C 0.18737 0.61769 0.11459 0.0
C2142 C 0.20171 0.61835 0.12955 0.0
C2143 C 0.2434 0.61897 0.17297 0.0
C2144 C 0.22906 0.619 0.15794 0.0
H2145 H 0.15362 0.64256 0.09612 0.0
H2146 H 0.17575 0.643 0.12211 0.0
H2147 H 0.22216 0.60845 0.11027 0.0
H2148 H 0.27835 0.59399 0.18824 0.0
H2149 H 0.25535 0.59437 0.16338 0.0
C2150 C 0.12078 0.41246 0.8467 0.0
C2151 C 0.13566 0.41064 0.83456 0.0
C2152 C 0.12071 0.42484 0.86192 0.0
C2153 C 0.15057 0.45279 0.89223 0.0
H2154 H 0.10832 0.48076 0.90088 0.0
C2155 C 0.14529 0.50177 0.9565 0.0
C2156 C 0.13686 0.5181 0.95325 0.0
C2157 C 0.14473 0.48835 0.9425 0.0
C2158 C 0.12027 0.47316 0.89858 0.0
H2159 H 0.16231 0.42022 0.82933 0.0
H2160 H 0.16214 0.4417 0.85558 0.0
H2161 H 0.10827 0.45775 0.87596 0.0
H2162 H 0.12105 0.53294 0.93256 0.0
H2163 H 0.1204 0.50966 0.90793 0.0
H2164 H 0.16275 0.46848 0.9144 0.0
C2165 C 0.15055 0.43349 0.85354 0.0
C2166 C 0.12017 0.45978 0.88445 0.0
C2167 C 0.15061 0.42117 0.83837 0.0
C2168 C 0.12782 0.52061 0.93554 0.0
C2169 C 0.12727 0.50716 0.92149 0.0
C2170 C 0.15067 0.46616 0.90632 0.0
C2171 C 0.13555 0.43566 0.86541 0.0
C2172 C 0.13535 0.44945 0.88102 0.0
C2173 C 0.13577 0.49085 0.92475 0.0
C2174 C 0.13554 0.47656 0.90969 0.0
H2175 H 0.10901 0.40462 0.8442 0.0
H2176 H 0.10901 0.42597 0.87092 0.0
H2177 H 0.16245 0.44503 0.89018 0.0
H2178 H 0.15261 0.49939 0.9698 0.0
H2179 H 0.15125 0.47593 0.94568 0.0
C2180 C 0.33034 0.40091 0.58699 0.0
C2181 C 0.34192 0.38655 0.58431 0.0
C2182 C 0.31763 0.40068 0.60177 0.0
C2183 C 0.305 0.37908 0.64818 0.0
H2184 H 0.25804 0.39554 0.63447 0.0
C2185 C 0.24536 0.37115 0.70053 0.0
C2186 C 0.23323 0.38522 0.70169 0.0
C2187 C 0.25854 0.37093 0.6862 0.0
C2188 C 0.27111 0.39109 0.63867 0.0
H2189 H 0.34949 0.36088 0.59568 0.0
H2190 H 0.32729 0.3605 0.62157 0.0
H2191 H 0.28152 0.39614 0.61021 0.0
H2192 H 0.22557 0.41015 0.68858 0.0
H2193 H 0.24855 0.40986 0.66369 0.0
H2194 H 0.29461 0.37414 0.67669 0.0
C2195 C 0.32811 0.37199 0.61219 0.0
C2196 C 0.2846 0.39143 0.62472 0.0
C2197 C 0.34085 0.37219 0.59731 0.0
C2198 C 0.2345 0.39897 0.68796 0.0
C2199 C 0.24772 0.39879 0.67366 0.0
C2200 C 0.2915 0.3788 0.66218 0.0
C2201 C 0.31612 0.3861 0.61436 0.0
C2202 C 0.30176 0.3855 0.6293 0.0
C2203 C 0.26001 0.38482 0.67264 0.0
C2204 C 0.27436 0.38485 0.65764 0.0
H2205 H 0.33079 0.41227 0.57736 0.0
H2206 H 0.30887 0.41193 0.60325 0.0
H2207 H 0.31808 0.37459 0.65229 0.0
H2208 H 0.24463 0.36021 0.71069 0.0
H2209 H 0.26751 0.35979 0.68567 0.0
C2210 C 0.35361 0.48604 0.4381 0.0
C2211 C 0.36753 0.48412 0.45152 0.0
C2212 C 0.3539 0.49957 0.42416 0.0
C2213 C 0.3749 0.54301 0.41317 0.0
H2214 H 0.35618 0.53437 0.36149 0.0
C2215 C 0.38139 0.59296 0.34869 0.0
C2216 C 0.3667 0.5946 0.33622 0.0
C2217 C 0.38159 0.58012 0.36347 0.0
C2218 C 0.36129 0.53708 0.37592 0.0
H2219 H 0.39292 0.49473 0.4604 0.0
H2220 H 0.39355 0.51816 0.43596 0.0
H2221 H 0.35671 0.51047 0.38524 0.0
H2222 H 0.34039 0.58445 0.33019 0.0
H2223 H 0.34074 0.56234 0.35589 0.0
H2224 H 0.37962 0.56964 0.40365 0.0
C2225 C 0.38219 0.50945 0.43646 0.0
C2226 C 0.36158 0.52335 0.38959 0.0
C2227 C 0.38186 0.49596 0.45046 0.0
C2228 C 0.35199 0.58356 0.3394 0.0
C2229 C 0.35223 0.57073 0.35407 0.0
C2230 C 0.37468 0.55675 0.39944 0.0
C2231 C 0.36816 0.51152 0.42318 0.0
C2232 C 0.36829 0.52612 0.40846 0.0
C2233 C 0.36715 0.56859 0.36605 0.0
C2234 C 0.36775 0.55399 0.38068 0.0
H2235 H 0.34223 0.47737 0.43868 0.0
H2236 H 0.3427 0.50088 0.41444 0.0
H2237 H 0.37994 0.54576 0.42761 0.0
H2238 H 0.39298 0.60116 0.34664 0.0
H2239 H 0.39332 0.5788 0.37239 0.0
C2240 C 0.1118 0.28244 0.39745 0.0
C2241 C 0.12294 0.28358 0.41385 0.0
C2242 C 0.1134 0.26842 0.3842 0.0
C2243 C 0.13048 0.22258 0.3808 0.0
H2244 H 0.12702 0.22964 0.32498 0.0
C2245 C 0.15188 0.16868 0.32694 0.0
C2246 C 0.14193 0.16582 0.30996 0.0
C2247 C 0.14839 0.18308 0.33906 0.0
C2248 C 0.12776 0.22739 0.34054 0.0
H2249 H 0.14463 0.27077 0.42895 0.0
H2250 H 0.14761 0.24656 0.40578 0.0
H2251 H 0.12359 0.25485 0.34699 0.0
H2252 H 0.12062 0.17606 0.29216 0.0
H2253 H 0.11431 0.20135 0.31358 0.0
H2254 H 0.13468 0.19522 0.37447 0.0
C2255 C 0.13747 0.25642 0.40325 0.0
C2256 C 0.12584 0.24186 0.35317 0.0
C2257 C 0.13592 0.27046 0.41643 0.0
C2258 C 0.12842 0.17785 0.30524 0.0
C2259 C 0.12491 0.19239 0.31744 0.0
C2260 C 0.13236 0.20817 0.36822 0.0
C2261 C 0.12613 0.25509 0.38705 0.0
C2262 C 0.12743 0.23968 0.37347 0.0
C2263 C 0.13481 0.19511 0.33459 0.0
C2264 C 0.13132 0.21038 0.34789 0.0
H2265 H 0.10177 0.2924 0.39486 0.0
H2266 H 0.10439 0.26781 0.37197 0.0
H2267 H 0.13135 0.22029 0.39634 0.0
H2268 H 0.16245 0.15973 0.33096 0.0
H2269 H 0.15656 0.18489 0.35186 0.0
C2270 C 0.08531 0.90324 0.57607 0.0
C2271 C 0.08845 0.89269 0.55959 0.0
C2272 C 0.07038 0.90058 0.58765 0.0
C2273 C 0.0361 0.86805 0.60114 0.0
H2274 H 0.01229 0.90973 0.62105 0.0
C2275 C 0.97285 0.86428 0.64965 0.0
C2276 C 0.97231 0.87579 0.66575 0.0
C2277 C 0.98607 0.86594 0.63543 0.0
C2278 C 0.01884 0.89793 0.61577 0.0
H2279 H 0.07834 0.87095 0.54235 0.0
H2280 H 0.05202 0.86618 0.56277 0.0
H2281 H 0.03688 0.91305 0.59849 0.0
H2282 H 0.98512 0.89836 0.67918 0.0
H2283 H 0.00818 0.90114 0.65463 0.0
H2284 H 0.01808 0.85295 0.61868 0.0
C2285 C 0.06127 0.8765 0.56673 0.0
C2286 C 0.03297 0.89983 0.6028 0.0
C2287 C 0.0763 0.87924 0.55502 0.0
C2288 C 0.9852 0.88915 0.66711 0.0
C2289 C 0.99834 0.89086 0.65288 0.0
C2290 C 0.02191 0.86614 0.61418 0.0
C2291 C 0.05805 0.88729 0.58311 0.0
C2292 C 0.04202 0.88495 0.59557 0.0
C2293 C 0.99902 0.87926 0.63687 0.0
C2294 C 0.01329 0.88108 0.62193 0.0
H2295 H 0.09446 0.91364 0.5801 0.0
H2296 H 0.06858 0.9089 0.60033 0.0
H2297 H 0.04282 0.85631 0.59598 0.0
H2298 H 0.96324 0.85374 0.64823 0.0
H2299 H 0.98609 0.85687 0.62324 0.0
C2300 C 0.37619 0.82565 0.80409 0.0
C2301 C 0.36204 0.83715 0.80807 0.0
C2302 C 0.37908 0.81064 0.81579 0.0
C2303 C 0.3558 0.78078 0.85031 0.0
H2304 H 0.40267 0.76887 0.86897 0.0
C2305 C 0.36635 0.73182 0.91385 0.0
C2306 C 0.38104 0.72043 0.91335 0.0
C2307 C 0.36432 0.74519 0.8999 0.0
C2308 C 0.38951 0.77183 0.86369 0.0
H2309 H 0.33986 0.84192 0.82739 0.0
H2310 H 0.34482 0.81599 0.84754 0.0
H2311 H 0.39886 0.79354 0.84634 0.0
H2312 H 0.40492 0.71401 0.89735 0.0
H2313 H 0.40133 0.73723 0.87297 0.0
H2314 H 0.34637 0.75921 0.8676 0.0
C2315 C 0.35363 0.81835 0.83538 0.0
C2316 C 0.38734 0.786 0.85069 0.0
C2317 C 0.35084 0.8333 0.82385 0.0
C2318 C 0.39356 0.72267 0.89837 0.0
C2319 C 0.39151 0.73604 0.88438 0.0
C2320 C 0.35796 0.76662 0.86321 0.0
C2321 C 0.36774 0.80676 0.83153 0.0
C2322 C 0.37041 0.79083 0.84408 0.0
C2323 C 0.3769 0.74755 0.88499 0.0
C2324 C 0.37481 0.76208 0.87034 0.0
H2325 H 0.38495 0.82819 0.79193 0.0
H2326 H 0.39002 0.80194 0.81235 0.0
H2327 H 0.3426 0.7839 0.84523 0.0
H2328 H 0.3566 0.73071 0.92534 0.0
H2329 H 0.35305 0.75396 0.90111 0.0
C2330 C 0.4278 0.12515 0.05464 0.0
C2331 C 0.41603 0.11124 0.05865 0.0
C2332 C 0.44227 0.12843 0.06701 0.0
C2333 C 0.45811 0.11923 0.11741 0.0
H2334 H 0.50455 0.13039 0.09689 0.0
C2335 C 0.52033 0.11596 0.1658 0.0
C2336 C 0.53297 0.12951 0.16393 0.0
C2337 C 0.50642 0.1144 0.15245 0.0
C2338 C 0.49162 0.12747 0.10288 0.0
H2339 H 0.41039 0.08968 0.07854 0.0
H2340 H 0.43546 0.09517 0.09973 0.0
H2341 H 0.47953 0.12704 0.0746 0.0
H2342 H 0.54107 0.15171 0.14601 0.0
H2343 H 0.5167 0.14908 0.12283 0.0
H2344 H 0.47012 0.1195 0.14562 0.0
C2345 C 0.43347 0.10384 0.08736 0.0
C2346 C 0.47726 0.12558 0.09008 0.0
C2347 C 0.41913 0.10059 0.07507 0.0
C2348 C 0.53149 0.14123 0.14805 0.0
C2349 C 0.5176 0.13962 0.13464 0.0
C2350 C 0.47242 0.12107 0.13015 0.0
C2351 C 0.4452 0.11786 0.08363 0.0
C2352 C 0.46035 0.12119 0.09717 0.0
C2353 C 0.50474 0.12631 0.13679 0.0
C2354 C 0.48943 0.12499 0.12307 0.0
H2355 H 0.42582 0.13349 0.04199 0.0
H2356 H 0.45099 0.13939 0.06372 0.0
H2357 H 0.44522 0.11625 0.12347 0.0
H2358 H 0.52091 0.10679 0.17791 0.0
H2359 H 0.49693 0.10382 0.15443 0.0
C2360 C 0.12837 0.82658 0.22177 0.0
C2361 C 0.14235 0.83822 0.21754 0.0
C2362 C 0.12486 0.81209 0.20952 0.0
C2363 C 0.13345 0.79594 0.15913 0.0
H2364 H 0.12262 0.7496 0.18011 0.0
C2365 C 0.13642 0.73347 0.11115 0.0
C2366 C 0.12296 0.72078 0.11331 0.0
C2367 C 0.13806 0.74747 0.12437 0.0
C2368 C 0.12545 0.76249 0.17399 0.0
H2369 H 0.16373 0.84363 0.19734 0.0
H2370 H 0.15782 0.81853 0.17635 0.0
H2371 H 0.12615 0.77475 0.20219 0.0
H2372 H 0.101 0.71266 0.13158 0.0
H2373 H 0.10376 0.73719 0.15452 0.0
H2374 H 0.1329 0.78378 0.13101 0.0
C2375 C 0.1493 0.82063 0.18882 0.0
C2376 C 0.12743 0.77693 0.18666 0.0
C2377 C 0.15278 0.83499 0.20098 0.0
C2378 C 0.11141 0.72229 0.12932 0.0
C2379 C 0.11309 0.73627 0.1426 0.0
C2380 C 0.1315 0.78155 0.14651 0.0
C2381 C 0.13524 0.80901 0.19279 0.0
C2382 C 0.13172 0.79381 0.17941 0.0
C2383 C 0.12631 0.74919 0.14017 0.0
C2384 C 0.12771 0.76457 0.15376 0.0
H2385 H 0.12016 0.82869 0.23449 0.0
H2386 H 0.11388 0.80345 0.21298 0.0
H2387 H 0.13634 0.80879 0.15294 0.0
H2388 H 0.14546 0.73287 0.09893 0.0
H2389 H 0.14857 0.757 0.12218 0.0
C2390 C 0.53321 0.88095 0.37855 0.0
C2391 C 0.53106 0.87065 0.36164 0.0
C2392 C 0.51946 0.88251 0.39217 0.0
C2393 C 0.47079 0.87835 0.3962 0.0
H2394 H 0.47945 0.87877 0.45188 0.0
C2395 C 0.41783 0.90145 0.45057 0.0
C2396 C 0.41548 0.89189 0.46792 0.0
C2397 C 0.43207 0.89789 0.43823 0.0
C2398 C 0.4768 0.87852 0.43638 0.0
H2399 H 0.51255 0.85406 0.34585 0.0
H2400 H 0.48883 0.85656 0.3696 0.0
H2401 H 0.50414 0.87432 0.4293 0.0
H2402 H 0.42643 0.87123 0.48613 0.0
H2403 H 0.45152 0.86491 0.4644 0.0
H2404 H 0.44353 0.88248 0.40317 0.0
C2405 C 0.5011 0.86353 0.37233 0.0
C2406 C 0.49097 0.87617 0.42342 0.0
C2407 C 0.51482 0.86193 0.35878 0.0
C2408 C 0.42786 0.87874 0.47279 0.0
C2409 C 0.44226 0.87521 0.46041 0.0
C2410 C 0.45669 0.88077 0.40911 0.0
C2411 C 0.50316 0.87391 0.38917 0.0
C2412 C 0.48816 0.87613 0.40314 0.0
C2413 C 0.44446 0.8847 0.44289 0.0
C2414 C 0.45949 0.88104 0.42936 0.0
H2415 H 0.54557 0.88774 0.38132 0.0
H2416 H 0.52147 0.89075 0.40488 0.0
H2417 H 0.4681 0.87857 0.38072 0.0
H2418 H 0.40858 0.91172 0.44642 0.0
H2419 H 0.43347 0.90567 0.42506 0.0
C2420 C 0.39128 0.28072 0.62831 0.0
C2421 C 0.37886 0.28205 0.6131 0.0
C2422 C 0.38975 0.26747 0.64254 0.0
C2423 C 0.35729 0.23619 0.66421 0.0
H2424 H 0.39876 0.21023 0.68119 0.0
C2425 C 0.35122 0.16976 0.704 0.0
C2426 C 0.36255 0.16603 0.71969 0.0
C2427 C 0.35383 0.18469 0.69238 0.0
C2428 C 0.38708 0.21751 0.67682 0.0
H2429 H 0.35487 0.27059 0.60127 0.0
H2430 H 0.35234 0.24746 0.62578 0.0
H2431 H 0.40202 0.23486 0.65834 0.0
H2432 H 0.38558 0.17511 0.73553 0.0
H2433 H 0.3903 0.20139 0.71501 0.0
H2434 H 0.34231 0.21879 0.68242 0.0
C2435 C 0.36322 0.25672 0.62685 0.0
C2436 C 0.38894 0.23164 0.6637 0.0
C2437 C 0.36478 0.2699 0.61263 0.0
C2438 C 0.37669 0.1776 0.72346 0.0
C2439 C 0.37939 0.1926 0.7117 0.0
C2440 C 0.35544 0.22211 0.67727 0.0
C2441 C 0.3757 0.25527 0.64199 0.0
C2442 C 0.37401 0.24098 0.65696 0.0
C2443 C 0.36788 0.19639 0.69608 0.0
C2444 C 0.37025 0.21236 0.6835 0.0
H2445 H 0.4024 0.28973 0.62905 0.0
H2446 H 0.39953 0.26687 0.65404 0.0
H2447 H 0.34554 0.24331 0.65974 0.0
H2448 H 0.34025 0.16108 0.70059 0.0
H2449 H 0.34491 0.18693 0.6803 0.0
C2450 C 0.08389 0.10056 0.95261 0.0
C2451 C 0.08783 0.1117 0.96841 0.0
C2452 C 0.06884 0.10335 0.94124 0.0
C2453 C 0.03637 0.13694 0.92616 0.0
H2454 H 0.00935 0.0959 0.90993 0.0
C2455 C 0.97282 0.14289 0.87876 0.0
C2456 C 0.97045 0.1302 0.86398 0.0
C2457 C 0.98624 0.14096 0.8927 0.0
C2458 C 0.01682 0.10751 0.91412 0.0
H2459 H 0.07895 0.13454 0.98471 0.0
H2460 H 0.05255 0.13964 0.96452 0.0
H2461 H 0.03421 0.09225 0.93209 0.0
H2462 H 0.98059 0.10558 0.8523 0.0
H2463 H 0.00394 0.10224 0.87644 0.0
H2464 H 0.01915 0.15216 0.90786 0.0
C2465 C 0.06124 0.12873 0.96097 0.0
C2466 C 0.03108 0.10542 0.92691 0.0
C2467 C 0.07633 0.12582 0.97254 0.0
C2468 C 0.98179 0.11546 0.86364 0.0
C2469 C 0.99522 0.11355 0.87753 0.0
C2470 C 0.02211 0.13904 0.91326 0.0
C2471 C 0.05726 0.11742 0.94525 0.0
C2472 C 0.04121 0.12005 0.93289 0.0
C2473 C 0.99769 0.12629 0.89225 0.0
C2474 C 0.01228 0.1243 0.90684 0.0
H2475 H 0.09249 0.0896 0.94896 0.0
H2476 H 0.0664 0.09456 0.92908 0.0
H2477 H 0.04397 0.14847 0.93033 0.0
H2478 H 0.9642 0.1543 0.87965 0.0
H2479 H 0.98752 0.15091 0.90395 0.0
C2480 C 0.87761 0.82607 0.7218 0.0
C2481 C 0.86395 0.83785 0.71688 0.0
C2482 C 0.8815 0.81158 0.70967 0.0
C2483 C 0.87502 0.79579 0.65885 0.0
H2484 H 0.8824 0.7489 0.68018 0.0
C2485 C 0.8701 0.73374 0.6107 0.0
C2486 C 0.88275 0.72032 0.61328 0.0
C2487 C 0.86887 0.74777 0.62391 0.0
C2488 C 0.88056 0.76195 0.67398 0.0
H2489 H 0.84362 0.84365 0.69552 0.0
H2490 H 0.85022 0.81864 0.67471 0.0
H2491 H 0.87915 0.77418 0.70217 0.0
H2492 H 0.90367 0.71092 0.63227 0.0
H2493 H 0.90161 0.73551 0.65524 0.0
H2494 H 0.87621 0.78367 0.63074 0.0
C2495 C 0.85817 0.82057 0.68766 0.0
C2496 C 0.87874 0.77644 0.6866 0.0
C2497 C 0.85429 0.83488 0.69972 0.0
C2498 C 0.89389 0.72112 0.6297 0.0
C2499 C 0.89261 0.73514 0.64298 0.0
C2500 C 0.8768 0.78136 0.64629 0.0
C2501 C 0.87184 0.80874 0.69237 0.0
C2502 C 0.87561 0.7935 0.67917 0.0
C2503 C 0.88023 0.74878 0.64011 0.0
C2504 C 0.87929 0.76419 0.65367 0.0
H2505 H 0.88522 0.828 0.735 0.0
H2506 H 0.89215 0.80274 0.71369 0.0
H2507 H 0.87302 0.80879 0.65258 0.0
H2508 H 0.86141 0.73368 0.59816 0.0
H2509 H 0.85899 0.75789 0.62138 0.0
C2510 C 0.01623 0.14341 0.35939 0.0
C2511 C 0.03228 0.13432 0.36218 0.0
C2512 C 0.00244 0.14191 0.37286 0.0
C2513 C 0.99184 0.12886 0.4237 0.0
H2514 H 0.94443 0.12337 0.40306 0.0
C2515 C 0.92827 0.1263 0.47248 0.0
C2516 C 0.91602 0.11309 0.46742 0.0
C2517 C 0.94276 0.12996 0.46027 0.0
C2518 C 0.95758 0.12487 0.4091 0.0
H2519 H 0.04637 0.11666 0.38163 0.0
H2520 H 0.02214 0.11385 0.40507 0.0
H2521 H 0.96917 0.12723 0.38081 0.0
H2522 H 0.90938 0.09337 0.4457 0.0
H2523 H 0.93438 0.0997 0.42462 0.0
H2524 H 0.98011 0.12611 0.45204 0.0
C2525 C 0.02034 0.12229 0.39248 0.0
C2526 C 0.97178 0.12725 0.39632 0.0
C2527 C 0.03416 0.12374 0.37893 0.0
C2528 C 0.91854 0.10367 0.45001 0.0
C2529 C 0.93284 0.10738 0.43783 0.0
C2530 C 0.97756 0.12657 0.43653 0.0
C2531 C 0.00423 0.13126 0.38954 0.0
C2532 C 0.98913 0.12915 0.4034 0.0
C2533 C 0.94514 0.12058 0.44272 0.0
C2534 C 0.96027 0.12433 0.42936 0.0
H2535 H 0.01418 0.1515 0.34657 0.0
H2536 H 0.99032 0.14915 0.37019 0.0
H2537 H 0.005 0.13046 0.42967 0.0
H2538 H 0.92668 0.13373 0.48585 0.0
H2539 H 0.95196 0.14027 0.46442 0.0
C2540 C 0.63534 0.2703 0.11162 0.0
C2541 C 0.62218 0.28329 0.1138 0.0
C2542 C 0.63671 0.2563 0.12488 0.0
C2543 C 0.62417 0.24169 0.1746 0.0
H2544 H 0.63369 0.19512 0.15347 0.0
C2545 C 0.62713 0.17759 0.22246 0.0
C2546 C 0.64105 0.16596 0.21798 0.0
C2547 C 0.62342 0.19206 0.21024 0.0
C2548 C 0.63116 0.20805 0.15967 0.0
H2549 H 0.6005 0.29197 0.13214 0.0
H2550 H 0.60281 0.26745 0.1552 0.0
H2551 H 0.63043 0.22017 0.13153 0.0
H2552 H 0.66208 0.16051 0.19736 0.0
H2553 H 0.65582 0.18554 0.17642 0.0
H2554 H 0.6251 0.22946 0.20281 0.0
C2555 C 0.6121 0.26812 0.14321 0.0
C2556 C 0.62932 0.22244 0.14705 0.0
C2557 C 0.61067 0.2821 0.12988 0.0
C2558 C 0.6512 0.16915 0.2012 0.0
C2559 C 0.64751 0.18347 0.18906 0.0
C2560 C 0.62605 0.22723 0.18727 0.0
C2561 C 0.62499 0.25491 0.14074 0.0
C2562 C 0.62609 0.23952 0.15433 0.0
C2563 C 0.63353 0.19509 0.19329 0.0
C2564 C 0.62987 0.21028 0.17997 0.0
H2565 H 0.64432 0.27066 0.09934 0.0
H2566 H 0.64698 0.24652 0.12267 0.0
H2567 H 0.62176 0.25466 0.18072 0.0
H2568 H 0.61917 0.17552 0.23538 0.0
H2569 H 0.61252 0.20073 0.2139 0.0
C2570 C 0.47105 0.88062 0.87873 0.0
C2571 C 0.47286 0.86978 0.86219 0.0
C2572 C 0.48493 0.88227 0.89219 0.0
C2573 C 0.53347 0.87723 0.89603 0.0
H2574 H 0.52516 0.87886 0.95174 0.0
C2575 C 0.58699 0.90058 0.94959 0.0
C2576 C 0.58931 0.89125 0.9671 0.0
C2577 C 0.57267 0.89698 0.93739 0.0
C2578 C 0.52771 0.87827 0.93624 0.0
H2579 H 0.49089 0.85236 0.84682 0.0
H2580 H 0.51485 0.85505 0.87027 0.0
H2581 H 0.50026 0.87445 0.92944 0.0
H2582 H 0.57828 0.87093 0.9857 0.0
H2583 H 0.55301 0.86456 0.96424 0.0
H2584 H 0.56085 0.881 0.90272 0.0
C2585 C 0.50275 0.86235 0.87286 0.0
C2586 C 0.51342 0.87595 0.92344 0.0
C2587 C 0.4889 0.86065 0.85949 0.0
C2588 C 0.57685 0.87827 0.97224 0.0
C2589 C 0.56236 0.87471 0.96002 0.0
C2590 C 0.54769 0.87964 0.90878 0.0
C2591 C 0.501 0.87323 0.88935 0.0
C2592 C 0.51612 0.87546 0.90315 0.0
C2593 C 0.56017 0.88399 0.94237 0.0
C2594 C 0.54501 0.88034 0.92903 0.0
H2595 H 0.45886 0.88774 0.88136 0.0
H2596 H 0.48318 0.89089 0.90463 0.0
H2597 H 0.53607 0.87709 0.88052 0.0
H2598 H 0.59631 0.91071 0.94522 0.0
H2599 H 0.57128 0.90458 0.9241 0.0
C2600 C 0.8933 0.28306 0.8977 0.0
C2601 C 0.88198 0.2841 0.91395 0.0
C2602 C 0.89191 0.26904 0.88443 0.0
C2603 C 0.87538 0.22311 0.88103 0.0
H2604 H 0.87848 0.23009 0.82517 0.0
C2605 C 0.8533 0.16942 0.82756 0.0
C2606 C 0.86313 0.16638 0.81052 0.0
C2607 C 0.85704 0.18379 0.83958 0.0
C2608 C 0.87786 0.22788 0.84074 0.0
H2609 H 0.8602 0.27119 0.92879 0.0
H2610 H 0.8576 0.24697 0.90558 0.0
H2611 H 0.8818 0.25539 0.84712 0.0
H2612 H 0.88449 0.17624 0.79255 0.0
H2613 H 0.89124 0.20155 0.81383 0.0
H2614 H 0.87137 0.19571 0.87479 0.0
C2615 C 0.8677 0.2569 0.90318 0.0
C2616 C 0.87972 0.24238 0.85333 0.0
C2617 C 0.86904 0.27093 0.91637 0.0
C2618 C 0.87679 0.1782 0.80567 0.0
C2619 C 0.88055 0.19272 0.81779 0.0
C2620 C 0.87357 0.20866 0.86851 0.0
C2621 C 0.87923 0.25565 0.88715 0.0
C2622 C 0.87819 0.24022 0.87363 0.0
C2623 C 0.87076 0.19561 0.83498 0.0
C2624 C 0.87445 0.21087 0.84818 0.0
H2625 H 0.90331 0.29306 0.89526 0.0
H2626 H 0.90104 0.26847 0.8723 0.0
H2627 H 0.87458 0.22085 0.89658 0.0
H2628 H 0.84262 0.16063 0.83168 0.0
H2629 H 0.84897 0.18575 0.85243 0.0
C2630 C 0.47325 0.14219 0.64748 0.0
C2631 C 0.47187 0.13061 0.66349 0.0
C2632 C 0.48716 0.14058 0.6341 0.0
C2633 C 0.53249 0.12237 0.62986 0.0
H2634 H 0.52538 0.12778 0.57424 0.0
C2635 C 0.58576 0.10148 0.57501 0.0
C2636 C 0.58887 0.11201 0.5585 0.0
C2637 C 0.57143 0.10484 0.58727 0.0
C2638 C 0.52765 0.12648 0.58975 0.0
H2639 H 0.48411 0.10813 0.67774 0.0
H2640 H 0.50812 0.10514 0.6543 0.0
H2641 H 0.50032 0.13115 0.59648 0.0
H2642 H 0.57915 0.13419 0.54167 0.0
H2643 H 0.55397 0.14027 0.56334 0.0
H2644 H 0.55972 0.11767 0.62326 0.0
C2645 C 0.49854 0.11562 0.6522 0.0
C2646 C 0.51326 0.12838 0.60251 0.0
C2647 C 0.48461 0.11718 0.66553 0.0
C2648 C 0.57714 0.12593 0.55438 0.0
C2649 C 0.56268 0.12932 0.56672 0.0
C2650 C 0.54682 0.12051 0.61716 0.0
C2651 C 0.50013 0.1274 0.63641 0.0
C2652 C 0.51545 0.12609 0.62273 0.0
C2653 C 0.55973 0.11886 0.58342 0.0
C2654 C 0.54457 0.12226 0.5969 0.0
H2655 H 0.46358 0.15257 0.64532 0.0
H2656 H 0.48798 0.14993 0.62219 0.0
H2657 H 0.53479 0.12096 0.64535 0.0
H2658 H 0.59447 0.09057 0.57856 0.0
H2659 H 0.56942 0.09626 0.59971 0.0
C2660 C 0.64733 0.83563 0.32811 0.0
C2661 C 0.63901 0.83772 0.30996 0.0
C2662 C 0.64324 0.82133 0.34012 0.0
C2663 C 0.62648 0.7759 0.34004 0.0
H2664 H 0.62108 0.78421 0.39547 0.0
C2665 C 0.63031 0.72003 0.39832 0.0
C2666 C 0.61843 0.72095 0.41407 0.0
C2667 C 0.63135 0.73385 0.38472 0.0
C2668 C 0.62239 0.78162 0.38002 0.0
H2669 H 0.61991 0.82637 0.29007 0.0
H2670 H 0.61279 0.801 0.31118 0.0
H2671 H 0.62479 0.80919 0.37345 0.0
H2672 H 0.59843 0.73728 0.42783 0.0
H2673 H 0.60011 0.76115 0.40413 0.0
H2674 H 0.62422 0.74825 0.34674 0.0
C2675 C 0.62248 0.81057 0.31605 0.0
C2676 C 0.62465 0.79596 0.36741 0.0
C2677 C 0.62646 0.82511 0.30403 0.0
C2678 C 0.60757 0.73598 0.41578 0.0
C2679 C 0.60867 0.74979 0.40228 0.0
C2680 C 0.62434 0.7615 0.35273 0.0
C2681 C 0.63082 0.80858 0.33428 0.0
C2682 C 0.62692 0.79329 0.3473 0.0
C2683 C 0.62065 0.74898 0.38664 0.0
C2684 C 0.62239 0.76419 0.37291 0.0
H2685 H 0.65707 0.84511 0.33309 0.0
H2686 H 0.65008 0.82009 0.35392 0.0
H2687 H 0.62831 0.7734 0.32464 0.0
H2688 H 0.63877 0.7086 0.39645 0.0
H2689 H 0.64083 0.73285 0.37295 0.0
C2690 C 0.91893 0.90271 0.07687 0.0
C2691 C 0.91581 0.89236 0.06025 0.0
C2692 C 0.93394 0.90003 0.08831 0.0
C2693 C 0.96856 0.86768 0.10111 0.0
H2694 H 0.99221 0.90936 0.12126 0.0
C2695 C 0.03216 0.86395 0.14899 0.0
C2696 C 0.03272 0.87531 0.16522 0.0
C2697 C 0.01883 0.86565 0.13491 0.0
C2698 C 0.9857 0.89756 0.11591 0.0
H2699 H 0.926 0.87092 0.04261 0.0
H2700 H 0.95246 0.86611 0.0628 0.0
H2701 H 0.96742 0.9127 0.09896 0.0
H2702 H 0.01983 0.89763 0.17904 0.0
H2703 H 0.99658 0.90048 0.15472 0.0
H2704 H 0.9868 0.85256 0.11833 0.0
C2705 C 0.94313 0.8763 0.06698 0.0
C2706 C 0.97147 0.89947 0.10308 0.0
C2707 C 0.92803 0.87905 0.0554 0.0
C2708 C 0.01974 0.88854 0.16685 0.0
C2709 C 0.00649 0.89029 0.15276 0.0
C2710 C 0.98285 0.86576 0.114 0.0
C2711 C 0.94635 0.88691 0.08348 0.0
C2712 C 0.96248 0.88459 0.09578 0.0
C2713 C 0.0058 0.87885 0.13662 0.0
C2714 C 0.99141 0.8807 0.12183 0.0
H2715 H 0.90972 0.91299 0.08111 0.0
H2716 H 0.93574 0.90821 0.10111 0.0
H2717 H 0.96188 0.85594 0.09587 0.0
H2718 H 0.04184 0.8535 0.14736 0.0
H2719 H 0.0188 0.8567 0.1226 0.0
C2720 C 0.62804 0.67785 0.80449 0.0
C2721 C 0.64254 0.66668 0.80807 0.0
C2722 C 0.62518 0.69289 0.81614 0.0
C2723 C 0.64884 0.72345 0.84961 0.0
H2724 H 0.60223 0.7347 0.86955 0.0
C2725 C 0.63893 0.77269 0.91301 0.0
C2726 C 0.62404 0.78384 0.91281 0.0
C2727 C 0.64087 0.75926 0.89912 0.0
C2728 C 0.61531 0.73193 0.8639 0.0
H2729 H 0.66534 0.6625 0.82666 0.0
H2730 H 0.66043 0.68846 0.84674 0.0
H2731 H 0.60592 0.70992 0.84706 0.0
H2732 H 0.59972 0.78977 0.89737 0.0
H2733 H 0.60316 0.76643 0.87312 0.0
H2734 H 0.6583 0.74531 0.86641 0.0
C2735 C 0.65133 0.68585 0.83491 0.0
C2736 C 0.61741 0.71769 0.85099 0.0
C2737 C 0.65409 0.67086 0.82342 0.0
C2738 C 0.61124 0.78129 0.89817 0.0
C2739 C 0.6132 0.76787 0.88425 0.0
C2740 C 0.64674 0.73767 0.86244 0.0
C2741 C 0.63689 0.69712 0.83143 0.0
C2742 C 0.63426 0.7131 0.84392 0.0
C2743 C 0.62801 0.75659 0.88457 0.0
C2744 C 0.63 0.74198 0.87002 0.0
H2745 H 0.61897 0.67501 0.79269 0.0
H2746 H 0.61398 0.70134 0.81299 0.0
H2747 H 0.66196 0.72053 0.84416 0.0
H2748 H 0.6489 0.77402 0.92423 0.0
H2749 H 0.65231 0.75068 0.9001 0.0
C2750 C 0.57641 0.3783 0.05442 0.0
C2751 C 0.58811 0.3923 0.05831 0.0
C2752 C 0.56199 0.37498 0.06686 0.0
C2753 C 0.54621 0.38436 0.11726 0.0
H2754 H 0.49982 0.37265 0.09701 0.0
C2755 C 0.48408 0.38737 0.16586 0.0
C2756 C 0.47156 0.3737 0.16413 0.0
C2757 C 0.49796 0.38897 0.15246 0.0
C2758 C 0.51273 0.37573 0.10293 0.0
H2759 H 0.59365 0.414 0.07802 0.0
H2760 H 0.56865 0.40847 0.09931 0.0
H2761 H 0.52474 0.37608 0.07459 0.0
H2762 H 0.4636 0.35133 0.14642 0.0
H2763 H 0.48789 0.35403 0.12315 0.0
H2764 H 0.53429 0.38417 0.14551 0.0
C2765 C 0.57067 0.39974 0.087 0.0
C2766 C 0.52704 0.37766 0.09006 0.0
C2767 C 0.58497 0.40302 0.07466 0.0
C2768 C 0.4731 0.3619 0.14835 0.0
C2769 C 0.48695 0.36355 0.13488 0.0
C2770 C 0.53195 0.38248 0.13007 0.0
C2771 C 0.55902 0.38562 0.08342 0.0
C2772 C 0.54394 0.38226 0.09704 0.0
C2773 C 0.4997 0.37698 0.13688 0.0
C2774 C 0.51496 0.37836 0.12309 0.0
H2775 H 0.57842 0.3699 0.04184 0.0
H2776 H 0.55333 0.36395 0.06367 0.0
H2777 H 0.55909 0.38749 0.12325 0.0
H2778 H 0.48345 0.3966 0.17789 0.0
H2779 H 0.50736 0.39964 0.15432 0.0
C2780 C 0.87501 0.32578 0.30425 0.0
C2781 C 0.86113 0.33752 0.30852 0.0
C2782 C 0.87789 0.31076 0.31594 0.0
C2783 C 0.85461 0.2816 0.35128 0.0
H2784 H 0.90157 0.26827 0.36851 0.0
C2785 C 0.8653 0.23401 0.41579 0.0
C2786 C 0.87915 0.22162 0.41484 0.0
C2787 C 0.86349 0.24713 0.40155 0.0
C2788 C 0.88838 0.27165 0.36363 0.0
H2789 H 0.8395 0.34277 0.32843 0.0
H2790 H 0.84446 0.3169 0.3486 0.0
H2791 H 0.89795 0.2929 0.34572 0.0
H2792 H 0.90199 0.21344 0.39801 0.0
H2793 H 0.89869 0.23624 0.37299 0.0
H2794 H 0.84497 0.26058 0.36923 0.0
C2795 C 0.85304 0.31902 0.33618 0.0
C2796 C 0.88631 0.28578 0.35054 0.0
C2797 C 0.85024 0.33395 0.32463 0.0
C2798 C 0.89107 0.22265 0.39912 0.0
C2799 C 0.8893 0.23585 0.38488 0.0
C2800 C 0.85667 0.26753 0.3643 0.0
C2801 C 0.86681 0.30713 0.33198 0.0
C2802 C 0.86936 0.29115 0.34448 0.0
C2803 C 0.87548 0.24829 0.38592 0.0
C2804 C 0.87354 0.26253 0.37094 0.0
H2805 H 0.88356 0.32815 0.29185 0.0
H2806 H 0.88857 0.30184 0.31223 0.0
H2807 H 0.84138 0.28509 0.3466 0.0
H2808 H 0.85577 0.23354 0.42755 0.0
H2809 H 0.85281 0.25658 0.403 0.0
C2810 C 0.91972 0.60005 0.57475 0.0
C2811 C 0.91642 0.61085 0.5585 0.0
C2812 C 0.9346 0.60275 0.58641 0.0
C2813 C 0.96827 0.63571 0.6006 0.0
H2814 H 0.99283 0.5942 0.61986 0.0
C2815 C 0.03157 0.64005 0.64892 0.0
C2816 C 0.03247 0.6283 0.66481 0.0
C2817 C 0.0183 0.63832 0.63477 0.0
C2818 C 0.98606 0.60595 0.61477 0.0
H2819 H 0.92619 0.63305 0.54174 0.0
H2820 H 0.9524 0.6379 0.56229 0.0
H2821 H 0.96828 0.59074 0.59727 0.0
H2822 H 0.02022 0.60526 0.67792 0.0
H2823 H 0.99706 0.60236 0.6535 0.0
H2824 H 0.98603 0.65089 0.61835 0.0
C2825 C 0.94332 0.62735 0.56602 0.0
C2826 C 0.97196 0.60397 0.60178 0.0
C2827 C 0.92835 0.62457 0.55423 0.0
C2828 C 0.01987 0.61466 0.66602 0.0
C2829 C 0.00667 0.61288 0.65186 0.0
C2830 C 0.98243 0.6377 0.61365 0.0
C2831 C 0.94669 0.61635 0.58219 0.0
C2832 C 0.96266 0.61878 0.59476 0.0
C2833 C 0.00565 0.62471 0.63605 0.0
C2834 C 0.99133 0.62281 0.62116 0.0
H2835 H 0.91075 0.58943 0.57855 0.0
H2836 H 0.93653 0.59424 0.59892 0.0
H2837 H 0.96135 0.6474 0.59561 0.0
H2838 H 0.04094 0.65082 0.64761 0.0
H2839 H 0.01802 0.64758 0.62274 0.0
C2840 C 0.65201 0.33495 0.70233 0.0
C2841 C 0.64136 0.33809 0.71874 0.0
C2842 C 0.64876 0.32059 0.69008 0.0
C2843 C 0.62716 0.27677 0.68749 0.0
H2844 H 0.63313 0.28382 0.63193 0.0
C2845 C 0.61191 0.22221 0.62979 0.0
C2846 C 0.62356 0.22083 0.61385 0.0
C2847 C 0.61343 0.23616 0.64314 0.0
C2848 C 0.63159 0.28154 0.64741 0.0
H2849 H 0.61907 0.32836 0.73538 0.0
H2850 H 0.61318 0.30313 0.71373 0.0
H2851 H 0.63625 0.30878 0.65399 0.0
H2852 H 0.64607 0.23311 0.59969 0.0
H2853 H 0.6489 0.25717 0.62307 0.0
H2854 H 0.62253 0.24944 0.68078 0.0
C2855 C 0.62414 0.31185 0.71043 0.0
C2856 C 0.63335 0.29589 0.6601 0.0
C2857 C 0.62742 0.32634 0.72276 0.0
C2858 C 0.63696 0.23361 0.61185 0.0
C2859 C 0.63844 0.24757 0.62515 0.0
C2860 C 0.62536 0.26236 0.67474 0.0
C2861 C 0.63473 0.30887 0.69383 0.0
C2862 C 0.63144 0.29369 0.68035 0.0
C2863 C 0.62658 0.24916 0.64087 0.0
C2864 C 0.6278 0.26452 0.65454 0.0
H2865 H 0.66293 0.34367 0.69886 0.0
H2866 H 0.65743 0.31857 0.67773 0.0
H2867 H 0.62573 0.27454 0.70299 0.0
H2868 H 0.60155 0.21252 0.63193 0.0
H2869 H 0.60402 0.23698 0.65499 0.0
C2870 C 0.91866 0.40386 0.95132 0.0
C2871 C 0.91564 0.39337 0.96789 0.0
C2872 C 0.93296 0.40051 0.93901 0.0
C2873 C 0.97671 0.37862 0.93622 0.0
H2874 H 0.96932 0.38448 0.88069 0.0
C2875 C 0.03051 0.36245 0.87789 0.0
C2876 C 0.03203 0.37421 0.86206 0.0
C2877 C 0.01669 0.36415 0.89139 0.0
C2878 C 0.97169 0.38296 0.89616 0.0
H2879 H 0.92556 0.37133 0.98479 0.0
H2880 H 0.95063 0.36522 0.96298 0.0
H2881 H 0.94455 0.38792 0.90297 0.0
H2882 H 0.02012 0.39708 0.84823 0.0
H2883 H 0.99624 0.40017 0.87182 0.0
H2884 H 0.00394 0.37363 0.92926 0.0
C2885 C 0.94188 0.37614 0.95961 0.0
C2886 C 0.95745 0.38492 0.90898 0.0
C2887 C 0.92747 0.37954 0.97203 0.0
C2888 C 0.0195 0.38788 0.8603 0.0
C2889 C 0.00565 0.38951 0.87372 0.0
C2890 C 0.991 0.3766 0.92334 0.0
C2891 C 0.94472 0.38653 0.94282 0.0
C2892 C 0.95978 0.38307 0.92922 0.0
C2893 C 0.00395 0.37757 0.88935 0.0
C2894 C 0.98872 0.379 0.90315 0.0
H2895 H 0.90989 0.41471 0.94776 0.0
H2896 H 0.93488 0.40906 0.92652 0.0
H2897 H 0.97906 0.37723 0.9517 0.0
H2898 H 0.04001 0.35188 0.87983 0.0
H2899 H 0.01576 0.35467 0.90317 0.0
C2900 C 0.89341 0.78138 0.12899 0.0
C2901 C 0.88156 0.78296 0.11325 0.0
C2902 C 0.89189 0.76742 0.14235 0.0
C2903 C 0.87318 0.72228 0.14685 0.0
H2904 H 0.87987 0.72909 0.20234 0.0
C2905 C 0.85263 0.6691 0.20205 0.0
C2906 C 0.86341 0.66579 0.21832 0.0
C2907 C 0.85598 0.68341 0.18975 0.0
C2908 C 0.87821 0.7269 0.18686 0.0
H2909 H 0.85871 0.77101 0.09945 0.0
H2910 H 0.85588 0.74693 0.12282 0.0
H2911 H 0.88312 0.75418 0.18011 0.0
H2912 H 0.88608 0.67511 0.23461 0.0
H2913 H 0.89212 0.70027 0.21287 0.0
H2914 H 0.86822 0.69509 0.15348 0.0
C2915 C 0.8665 0.75638 0.12474 0.0
C2916 C 0.88004 0.74131 0.1741 0.0
C2917 C 0.86798 0.77036 0.11145 0.0
C2918 C 0.8776 0.67728 0.22212 0.0
C2919 C 0.88097 0.69173 0.20973 0.0
C2920 C 0.87138 0.70792 0.15955 0.0
C2921 C 0.87854 0.7546 0.14027 0.0
C2922 C 0.87729 0.73923 0.15394 0.0
C2923 C 0.87024 0.6949 0.19329 0.0
C2924 C 0.87359 0.71006 0.17977 0.0
H2925 H 0.90392 0.79094 0.13099 0.0
H2926 H 0.90145 0.76646 0.15404 0.0
H2927 H 0.8714 0.72004 0.13139 0.0
H2928 H 0.84152 0.66058 0.19874 0.0
H2929 H 0.84719 0.68558 0.17752 0.0
C2930 C 0.58667 0.60208 0.45062 0.0
C2931 C 0.58922 0.61207 0.46764 0.0
C2932 C 0.57233 0.60537 0.43833 0.0
C2933 C 0.52776 0.62558 0.43644 0.0
H2934 H 0.53514 0.62184 0.3807 0.0
C2935 C 0.473 0.64147 0.37917 0.0
C2936 C 0.47189 0.63029 0.36282 0.0
C2937 C 0.48697 0.63987 0.39249 0.0
C2938 C 0.53277 0.62275 0.39622 0.0
H2939 H 0.57849 0.63321 0.48531 0.0
H2940 H 0.55336 0.6392 0.46358 0.0
H2941 H 0.56012 0.61865 0.40274 0.0
H2942 H 0.48471 0.60854 0.34785 0.0
H2943 H 0.50885 0.60558 0.37113 0.0
H2944 H 0.50032 0.62969 0.42979 0.0
C2945 C 0.56249 0.62872 0.45982 0.0
C2946 C 0.54714 0.62094 0.40891 0.0
C2947 C 0.57695 0.62539 0.4722 0.0
C2948 C 0.485 0.61728 0.36033 0.0
C2949 C 0.499 0.61574 0.37358 0.0
C2950 C 0.51335 0.62745 0.4237 0.0
C2951 C 0.56006 0.61877 0.44265 0.0
C2952 C 0.54482 0.62206 0.42921 0.0
C2953 C 0.50029 0.62711 0.38975 0.0
C2954 C 0.51563 0.62581 0.40342 0.0
H2955 H 0.59582 0.59164 0.44673 0.0
H2956 H 0.57076 0.59718 0.42551 0.0
H2957 H 0.52542 0.62637 0.45197 0.0
H2958 H 0.46305 0.65152 0.38168 0.0
H2959 H 0.48756 0.64892 0.40469 0.0
C2960 C 0.3943 0.22131 0.12985 0.0
C2961 C 0.38155 0.21895 0.11513 0.0
C2962 C 0.39237 0.23466 0.14385 0.0
C2963 C 0.3589 0.26492 0.16559 0.0
H2964 H 0.39971 0.2927 0.18097 0.0
C2965 C 0.35157 0.33245 0.20251 0.0
C2966 C 0.36262 0.33675 0.21826 0.0
C2967 C 0.3545 0.31723 0.19151 0.0
C2968 C 0.38824 0.28491 0.17704 0.0
H2969 H 0.3568 0.22897 0.10364 0.0
H2970 H 0.35344 0.25219 0.1279 0.0
H2971 H 0.40346 0.26773 0.15871 0.0
H2972 H 0.3855 0.32838 0.23486 0.0
H2973 H 0.39085 0.30163 0.21529 0.0
H2974 H 0.34363 0.28228 0.18355 0.0
C2975 C 0.36481 0.24353 0.12889 0.0
C2976 C 0.39036 0.27058 0.16427 0.0
C2977 C 0.36673 0.23017 0.11493 0.0
C2978 C 0.37683 0.32546 0.22272 0.0
C2979 C 0.37989 0.31019 0.21151 0.0
C2980 C 0.35678 0.27924 0.17825 0.0
C2981 C 0.37763 0.24601 0.14352 0.0
C2982 C 0.37566 0.26056 0.15812 0.0
C2983 C 0.36862 0.30584 0.19587 0.0
C2984 C 0.37135 0.28961 0.18388 0.0
H2985 H 0.40577 0.21276 0.13062 0.0
H2986 H 0.40237 0.23597 0.15504 0.0
H2987 H 0.34734 0.25729 0.16159 0.0
H2988 H 0.34055 0.3409 0.1986 0.0
H2989 H 0.34576 0.3145 0.17938 0.0
C2990 C 0.53182 0.64121 0.87918 0.0
C2991 C 0.53282 0.62922 0.86353 0.0
C2992 C 0.51859 0.63953 0.89339 0.0
C2993 C 0.48676 0.60712 0.91404 0.0
H2994 H 0.46141 0.64855 0.93218 0.0
C2995 C 0.42002 0.60113 0.95301 0.0
C2996 C 0.41642 0.612 0.96911 0.0
C2997 C 0.43505 0.60384 0.94161 0.0
C2998 C 0.46852 0.63687 0.92749 0.0
H2999 H 0.52083 0.60584 0.8509 0.0
H3000 H 0.49775 0.60305 0.87541 0.0
H3001 H 0.48617 0.65199 0.90952 0.0
H3002 H 0.42583 0.63433 0.9859 0.0
H3003 H 0.45231 0.63922 0.96576 0.0
H3004 H 0.46906 0.59197 0.93172 0.0
C3005 C 0.50724 0.6137 0.87683 0.0
C3006 C 0.48272 0.63884 0.91448 0.0
C3007 C 0.52039 0.61541 0.86261 0.0
C3008 C 0.42822 0.6258 0.97351 0.0
C3009 C 0.44334 0.6286 0.96196 0.0
C3010 C 0.47262 0.60516 0.92698 0.0
C3011 C 0.50611 0.62576 0.89239 0.0
C3012 C 0.49183 0.62394 0.90732 0.0
C3013 C 0.447 0.61752 0.94595 0.0
C3014 C 0.46308 0.61997 0.9336 0.0
H3015 H 0.54106 0.6521 0.88025 0.0
H3016 H 0.51822 0.64898 0.90524 0.0
H3017 H 0.4937 0.59538 0.90923 0.0
H3018 H 0.41115 0.59044 0.94912 0.0
H3019 H 0.43721 0.59526 0.9292 0.0
C3020 C 0.11116 0.78179 0.6289 0.0
C3021 C 0.1227 0.7831 0.61286 0.0
C3022 C 0.11268 0.76782 0.64223 0.0
C3023 C 0.13036 0.72229 0.64618 0.0
H3024 H 0.12564 0.72928 0.70189 0.0
C3025 C 0.1518 0.6689 0.70056 0.0
C3026 C 0.14154 0.66576 0.71726 0.0
C3027 C 0.14824 0.68323 0.68838 0.0
C3028 C 0.12674 0.72705 0.68636 0.0
H3029 H 0.14499 0.77067 0.59846 0.0
H3030 H 0.1478 0.74654 0.62178 0.0
H3031 H 0.12226 0.75444 0.67977 0.0
H3032 H 0.11957 0.67541 0.73447 0.0
H3033 H 0.11317 0.70064 0.71293 0.0
H3034 H 0.13488 0.695 0.65264 0.0
C3035 C 0.13744 0.75623 0.62397 0.0
C3036 C 0.12484 0.74149 0.67367 0.0
C3037 C 0.13597 0.77022 0.61071 0.0
C3038 C 0.12764 0.67746 0.72163 0.0
C3039 C 0.12406 0.69194 0.70936 0.0
C3040 C 0.13222 0.70791 0.65882 0.0
C3041 C 0.1257 0.75472 0.6398 0.0
C3042 C 0.12691 0.73933 0.65342 0.0
C3043 C 0.13429 0.69492 0.69249 0.0
C3044 C 0.13074 0.71011 0.67911 0.0
H3045 H 0.1009 0.79157 0.63115 0.0
H3046 H 0.10336 0.76705 0.65418 0.0
H3047 H 0.1316 0.72002 0.63067 0.0
H3048 H 0.16267 0.66021 0.69681 0.0
H3049 H 0.15664 0.68526 0.6758 0.0
C3050 C 0.97198 0.36162 0.37857 0.0
C3051 C 0.96989 0.37378 0.36321 0.0
C3052 C 0.98546 0.36378 0.39239 0.0
C3053 C 0.01682 0.39726 0.41219 0.0
H3054 H 0.04313 0.3563 0.43001 0.0
C3055 C 0.08397 0.40405 0.45055 0.0
C3056 C 0.08761 0.39331 0.46676 0.0
C3057 C 0.06891 0.40122 0.4392 0.0
C3058 C 0.03577 0.36784 0.42538 0.0
H3059 H 0.98054 0.39771 0.35036 0.0
H3060 H 0.00401 0.40145 0.37429 0.0
H3061 H 0.01819 0.35239 0.40777 0.0
H3062 H 0.07825 0.37111 0.48382 0.0
H3063 H 0.05181 0.36596 0.46374 0.0
H3064 H 0.03456 0.41273 0.42949 0.0
C3065 C 0.99503 0.39039 0.37592 0.0
C3066 C 0.02144 0.36562 0.41262 0.0
C3067 C 0.98154 0.38825 0.36216 0.0
C3068 C 0.07584 0.37953 0.47134 0.0
C3069 C 0.06074 0.37658 0.45983 0.0
C3070 C 0.03114 0.39948 0.42485 0.0
C3071 C 0.99724 0.37816 0.39121 0.0
C3072 C 0.01191 0.38033 0.40564 0.0
C3073 C 0.05704 0.38751 0.44369 0.0
C3074 C 0.04097 0.38484 0.43141 0.0
H3075 H 0.96312 0.35045 0.38001 0.0
H3076 H 0.98655 0.35425 0.4041 0.0
H3077 H 0.00958 0.40887 0.40753 0.0
H3078 H 0.0928 0.41473 0.44655 0.0
H3079 H 0.06668 0.40969 0.42672 0.0
C3080 C 0.39427 0.78244 0.39823 0.0
C3081 C 0.38138 0.78492 0.41277 0.0
C3082 C 0.39234 0.76915 0.38416 0.0
C3083 C 0.35876 0.7393 0.3619 0.0
H3084 H 0.39944 0.71113 0.34694 0.0
C3085 C 0.35116 0.67186 0.3248 0.0
C3086 C 0.36232 0.66748 0.30917 0.0
C3087 C 0.35411 0.68705 0.33584 0.0
C3088 C 0.388 0.71904 0.35075 0.0
H3089 H 0.35638 0.77516 0.42389 0.0
H3090 H 0.35303 0.75204 0.39952 0.0
H3091 H 0.40322 0.73601 0.36932 0.0
H3092 H 0.3854 0.67568 0.29282 0.0
H3093 H 0.3908 0.70238 0.31247 0.0
H3094 H 0.3435 0.72212 0.34372 0.0
C3095 C 0.36451 0.76057 0.39871 0.0
C3096 C 0.39015 0.73332 0.36359 0.0
C3097 C 0.36642 0.77386 0.41274 0.0
C3098 C 0.37665 0.67866 0.30487 0.0
C3099 C 0.37973 0.69391 0.31611 0.0
C3100 C 0.35662 0.72502 0.34917 0.0
C3101 C 0.37746 0.75796 0.38425 0.0
C3102 C 0.37549 0.74347 0.36959 0.0
C3103 C 0.36837 0.69833 0.33165 0.0
C3104 C 0.37114 0.71452 0.34369 0.0
H3105 H 0.40585 0.79085 0.39764 0.0
H3106 H 0.40246 0.76774 0.3731 0.0
H3107 H 0.34724 0.74704 0.36577 0.0
H3108 H 0.34004 0.6635 0.32859 0.0
H3109 H 0.34529 0.68985 0.34789 0.0
C3110 C 0.08458 0.59949 0.07355 0.0
C3111 C 0.08836 0.6107 0.05778 0.0
C3112 C 0.06958 0.60216 0.08502 0.0
C3113 C 0.03674 0.63554 0.10003 0.0
H3114 H 0.01084 0.59419 0.11752 0.0
C3115 C 0.97355 0.64029 0.1484 0.0
C3116 C 0.97228 0.62807 0.16381 0.0
C3117 C 0.98675 0.63858 0.13416 0.0
C3118 C 0.01799 0.60589 0.11293 0.0
H3119 H 0.07928 0.63355 0.04159 0.0
H3120 H 0.05289 0.63836 0.06186 0.0
H3121 H 0.0354 0.59072 0.09494 0.0
H3122 H 0.98375 0.60423 0.17599 0.0
H3123 H 0.0068 0.60137 0.15145 0.0
H3124 H 0.01939 0.65066 0.1183 0.0
C3125 C 0.06168 0.62751 0.06536 0.0
C3126 C 0.03209 0.6039 0.09993 0.0
C3127 C 0.07675 0.62476 0.05373 0.0
C3128 C 0.98441 0.61399 0.16447 0.0
C3129 C 0.99754 0.61224 0.15023 0.0
C3130 C 0.02259 0.63753 0.11309 0.0
C3131 C 0.05786 0.61614 0.08109 0.0
C3132 C 0.04187 0.61864 0.09357 0.0
C3133 C 0.99894 0.62453 0.1349 0.0
C3134 C 0.01322 0.62268 0.11997 0.0
H3135 H 0.09329 0.58859 0.07714 0.0
H3136 H 0.06729 0.59334 0.0972 0.0
H3137 H 0.04405 0.64716 0.09555 0.0
H3138 H 0.96455 0.6514 0.14752 0.0
H3139 H 0.98733 0.64821 0.1225 0.0
C3140 C 0.14421 0.33832 0.82966 0.0
C3141 C 0.13856 0.33878 0.81018 0.0
C3142 C 0.14029 0.32386 0.84155 0.0
C3143 C 0.13236 0.27659 0.84071 0.0
H3144 H 0.11386 0.28376 0.89281 0.0
C3145 C 0.1358 0.22345 0.902 0.0
C3146 C 0.12065 0.22129 0.91369 0.0
C3147 C 0.13678 0.23721 0.88834 0.0
C3148 C 0.11892 0.2815 0.87827 0.0
H3149 H 0.12428 0.32452 0.78783 0.0
H3150 H 0.11782 0.29873 0.80862 0.0
H3151 H 0.11702 0.30897 0.87081 0.0
H3152 H 0.09473 0.2321 0.92017 0.0
H3153 H 0.09646 0.25599 0.89638 0.0
H3154 H 0.13469 0.24915 0.84838 0.0
C3155 C 0.12514 0.30975 0.81465 0.0
C3156 C 0.1208 0.29595 0.86571 0.0
C3157 C 0.12875 0.32449 0.80282 0.0
C3158 C 0.10652 0.23321 0.91128 0.0
C3159 C 0.10757 0.24702 0.89777 0.0
C3160 C 0.13074 0.26214 0.85341 0.0
C3161 C 0.13091 0.30931 0.83416 0.0
C3162 C 0.12764 0.29369 0.84684 0.0
C3163 C 0.12273 0.24926 0.88618 0.0
C3164 C 0.12406 0.26444 0.87238 0.0
H3165 H 0.15175 0.34918 0.83574 0.0
H3166 H 0.145 0.32386 0.85645 0.0
H3167 H 0.13781 0.27449 0.82631 0.0
H3168 H 0.14688 0.21446 0.90336 0.0
H3169 H 0.14871 0.23865 0.87975 0.0
C3170 C 0.51942 0.38622 0.66592 0.0
C3171 C 0.53229 0.37294 0.66376 0.0
C3172 C 0.50542 0.38769 0.65269 0.0
C3173 C 0.49061 0.37505 0.60305 0.0
H3174 H 0.44413 0.38502 0.62417 0.0
C3175 C 0.42649 0.37741 0.55529 0.0
C3176 C 0.41472 0.39125 0.55961 0.0
C3177 C 0.44101 0.37397 0.56753 0.0
C3178 C 0.45703 0.38238 0.61797 0.0
H3179 H 0.54074 0.35114 0.64546 0.0
H3180 H 0.5162 0.35362 0.62247 0.0
H3181 H 0.4692 0.38184 0.64609 0.0
H3182 H 0.40907 0.41243 0.57995 0.0
H3183 H 0.43421 0.40664 0.60094 0.0
H3184 H 0.47834 0.37576 0.57486 0.0
C3185 C 0.51698 0.36293 0.63441 0.0
C3186 C 0.47144 0.38058 0.63057 0.0
C3187 C 0.53098 0.36141 0.64771 0.0
C3188 C 0.41782 0.4016 0.57624 0.0
C3189 C 0.4322 0.39818 0.5884 0.0
C3190 C 0.47614 0.37689 0.59039 0.0
C3191 C 0.50389 0.37595 0.63687 0.0
C3192 C 0.48848 0.37715 0.62329 0.0
C3193 C 0.44397 0.38427 0.58433 0.0
C3194 C 0.4592 0.38085 0.59768 0.0
H3195 H 0.51989 0.39523 0.67817 0.0
H3196 H 0.49574 0.39806 0.65489 0.0
H3197 H 0.50355 0.37249 0.59691 0.0
H3198 H 0.42448 0.36927 0.5425 0.0
H3199 H 0.44977 0.3631 0.56399 0.0
C3200 C 0.10626 0.068 0.25819 0.0
C3201 C 0.12124 0.07757 0.26405 0.0
C3202 C 0.10681 0.04954 0.25722 0.0
C3203 C 0.13331 0.01145 0.27584 0.0
H3204 H 0.10321 0.98476 0.24083 0.0
C3205 C 0.13703 0.93577 0.2594 0.0
C3206 C 0.12122 0.92659 0.2631 0.0
C3207 C 0.13755 0.9542 0.26058 0.0
C3208 C 0.1116 0.99212 0.25072 0.0
H3209 H 0.14874 0.07552 0.2725 0.0
H3210 H 0.15013 0.04352 0.26951 0.0
H3211 H 0.10385 0.01696 0.23863 0.0
H3212 H 0.09367 0.92939 0.27132 0.0
H3213 H 0.0945 0.96177 0.27276 0.0
H3214 H 0.14156 0.98632 0.28722 0.0
C3215 C 0.13769 0.05005 0.26648 0.0
C3216 C 0.11193 0.01057 0.24957 0.0
C3217 C 0.13701 0.06846 0.26789 0.0
C3218 C 0.10606 0.93613 0.26851 0.0
C3219 C 0.10648 0.9546 0.26923 0.0
C3220 C 0.13326 0.99298 0.27666 0.0
C3221 C 0.12246 0.04027 0.26169 0.0
C3222 C 0.12268 0.02053 0.26223 0.0
C3223 C 0.12217 0.96374 0.26503 0.0
C3224 C 0.12228 0.98323 0.26424 0.0
H3225 H 0.09387 0.07469 0.25529 0.0
H3226 H 0.09471 0.04258 0.25373 0.0
H3227 H 0.14146 0.01855 0.28617 0.0
H3228 H 0.14884 0.92875 0.255 0.0
H3229 H 0.14976 0.96105 0.25721 0.0
C3230 C 0.18601 0.88543 0.51803 0.0
C3231 C 0.17657 0.86983 0.51413 0.0
C3232 C 0.20444 0.88571 0.51668 0.0
C3233 C 0.24213 0.85926 0.52576 0.0
H3234 H 0.26855 0.88969 0.49088 0.0
C3235 C 0.31819 0.85471 0.51883 0.0
C3236 C 0.32763 0.86988 0.51333 0.0
C3237 C 0.2997 0.85499 0.51958 0.0
C3238 C 0.26145 0.88136 0.50104 0.0
H3239 H 0.17892 0.84236 0.50544 0.0
H3240 H 0.21131 0.84274 0.50374 0.0
H3241 H 0.23632 0.88978 0.48982 0.0
H3242 H 0.32527 0.89744 0.50522 0.0
H3243 H 0.29325 0.89839 0.50788 0.0
H3244 H 0.26697 0.85137 0.53774 0.0
C3245 C 0.20433 0.85477 0.50752 0.0
C3246 C 0.24298 0.8813 0.50022 0.0
C3247 C 0.18585 0.8546 0.50841 0.0
C3248 C 0.31834 0.88557 0.5096 0.0
C3249 C 0.29991 0.886 0.51079 0.0
C3250 C 0.26058 0.8596 0.52693 0.0
C3251 C 0.21373 0.87028 0.51187 0.0
C3252 C 0.23323 0.87016 0.51246 0.0
C3253 C 0.29027 0.87058 0.51523 0.0
C3254 C 0.27054 0.87059 0.51451 0.0
H3255 H 0.17922 0.89727 0.52273 0.0
H3256 H 0.21149 0.89778 0.52019 0.0
H3257 H 0.23477 0.85073 0.53552 0.0
H3258 H 0.32501 0.84237 0.52163 0.0
H3259 H 0.29286 0.84277 0.52281 0.0
C3260 C 0.36924 0.93534 0.76776 0.0
C3261 C 0.38504 0.92612 0.7644 0.0
C3262 C 0.36876 0.95377 0.76644 0.0
C3263 C 0.39524 0.99305 0.75036 0.0
H3264 H 0.36497 0.01753 0.78718 0.0
C3265 C 0.40127 0.0676 0.76808 0.0
C3266 C 0.38595 0.07716 0.76326 0.0
C3267 C 0.40082 0.04913 0.76892 0.0
C3268 C 0.37346 0.01081 0.77684 0.0
H3269 H 0.41266 0.9288 0.75657 0.0
H3270 H 0.41213 0.96093 0.75512 0.0
H3271 H 0.36484 0.98529 0.78612 0.0
H3272 H 0.35806 0.07505 0.75637 0.0
H3273 H 0.35713 0.04277 0.75875 0.0
H3274 H 0.40435 0.01877 0.7418 0.0
C3275 C 0.39989 0.95405 0.75818 0.0
C3276 C 0.37328 0.99234 0.77603 0.0
C3277 C 0.40025 0.93559 0.7591 0.0
C3278 C 0.37001 0.06801 0.76029 0.0
C3279 C 0.36948 0.04958 0.76158 0.0
C3280 C 0.39569 0.0115 0.7515 0.0
C3281 C 0.3842 0.96344 0.76217 0.0
C3282 C 0.38413 0.98318 0.76272 0.0
C3283 C 0.38497 0.04 0.76542 0.0
C3284 C 0.38478 0.02049 0.76471 0.0
H3285 H 0.35732 0.92836 0.7719 0.0
H3286 H 0.35631 0.96041 0.76908 0.0
H3287 H 0.40352 0.9866 0.73965 0.0
H3288 H 0.41376 0.07431 0.77033 0.0
H3289 H 0.4129 0.04195 0.77199 0.0
C3290 C 0.18617 0.14908 0.01862 0.0
C3291 C 0.17676 0.13388 1.01307 0.0
C3292 C 0.20464 0.14877 0.01947 0.0
C3293 C 0.2432 0.12172 0.02644 0.0
H3294 H 0.26714 0.15272 0.98995 0.0
C3295 C 0.31866 0.11829 0.01727 0.0
C3296 C 0.32778 0.13421 0.01424 0.0
C3297 C 0.30024 0.1177 0.01593 0.0
C3298 C 0.26076 0.14418 1.00047 0.0
H3299 H 0.17912 0.1063 1.00492 0.0
H3300 H 0.21142 0.10557 1.00733 0.0
H3301 H 0.23495 0.1532 0.99212 0.0
H3302 H 0.32492 0.16194 1.00701 0.0
H3303 H 0.29279 0.16121 1.00553 0.0
H3304 H 0.26878 0.11317 0.03554 0.0
C3305 C 0.20448 0.11773 1.01071 0.0
C3306 C 0.24231 0.14443 1.00161 0.0
C3307 C 0.18605 0.11814 1.0094 0.0
C3308 C 0.31822 0.14944 1.00926 0.0
C3309 C 0.29975 0.14897 1.00834 0.0
C3310 C 0.26166 0.12174 0.02564 0.0
C3311 C 0.21392 0.13315 0.01527 0.0
C3312 C 0.23342 0.13317 0.01456 0.0
C3313 C 0.29046 0.13315 1.012 0.0
C3314 C 0.27073 0.13292 1.01257 0.0
H3315 H 0.17935 0.16141 0.02143 0.0
H3316 H 0.21172 0.16079 0.0231 0.0
H3317 H 0.23655 0.11297 0.03658 0.0
H3318 H 0.32571 0.10635 0.02118 0.0
H3319 H 0.29369 0.10516 0.0183 0.0
C3320 C 0.86751 0.06828 0.77437 0.0
C3321 C 0.8812 0.07769 0.76524 0.0
C3322 C 0.8668 0.0499 0.7732 0.0
C3323 C 0.89561 0.01133 0.76358 0.0
H3324 H 0.85099 0.98612 0.76492 0.0
C3325 C 0.86759 0.93592 0.75336 0.0
C3326 C 0.88112 0.92651 0.76278 0.0
C3327 C 0.86689 0.9543 0.75446 0.0
C3328 C 0.86359 0.9929 0.76438 0.0
H3329 H 0.90426 0.07545 0.74671 0.0
H3330 H 0.90266 0.04324 0.74395 0.0
H3331 H 0.85102 0.01812 0.76236 0.0
H3332 H 0.90389 0.92877 0.78174 0.0
H3333 H 0.9023 0.96099 0.78436 0.0
H3334 H 0.90817 0.98604 0.76467 0.0
C3335 C 0.8928 0.05003 0.7526 0.0
C3336 C 0.86361 0.01133 0.76314 0.0
C3337 C 0.89363 0.06847 0.75399 0.0
C3338 C 0.89339 0.93575 0.77424 0.0
C3339 C 0.89257 0.9542 0.77555 0.0
C3340 C 0.89559 0.99287 0.76455 0.0
C3341 C 0.87962 0.04048 0.76261 0.0
C3342 C 0.87961 0.0208 0.76282 0.0
C3343 C 0.87956 0.96373 0.76527 0.0
C3344 C 0.87958 0.98341 0.765 0.0
H3345 H 0.85772 0.07503 0.78316 0.0
H3346 H 0.85659 0.04308 0.78131 0.0
H3347 H 0.9082 0.01815 0.7637 0.0
H3348 H 0.85793 0.92916 0.74441 0.0
H3349 H 0.85682 0.96112 0.74614 0.0
C3350 C 0.68679 0.14962 0.50913 0.0
C3351 C 0.67714 0.1344 0.51398 0.0
C3352 C 0.70525 0.14906 0.50825 0.0
C3353 C 0.74306 0.12163 0.52571 0.0
H3354 H 0.77014 0.15307 0.49252 0.0
C3355 C 0.81878 0.11795 0.51019 0.0
C3356 C 0.82805 0.13369 0.51388 0.0
C3357 C 0.80034 0.11754 0.51139 0.0
C3358 C 0.76267 0.14431 0.50192 0.0
H3359 H 0.67903 0.10649 0.52069 0.0
H3360 H 0.71106 0.10515 0.51789 0.0
H3361 H 0.73796 0.15268 0.49002 0.0
H3362 H 0.82543 0.16123 0.52221 0.0
H3363 H 0.79306 0.1606 0.52372 0.0
H3364 H 0.76806 0.1128 0.5369 0.0
C3365 C 0.70457 0.11774 0.51558 0.0
C3366 C 0.74424 0.1441 0.50058 0.0
C3367 C 0.68616 0.11841 0.51688 0.0
C3368 C 0.81862 0.14889 0.51939 0.0
C3369 C 0.80015 0.14858 0.52015 0.0
C3370 C 0.76152 0.12157 0.52671 0.0
C3371 C 0.71443 0.13317 0.51184 0.0
C3372 C 0.73414 0.13286 0.51257 0.0
C3373 C 0.7909 0.13297 0.51587 0.0
C3374 C 0.77142 0.13302 0.51496 0.0
H3375 H 0.68016 0.16217 0.50697 0.0
H3376 H 0.71229 0.16128 0.50557 0.0
H3377 H 0.73583 0.11307 0.53552 0.0
H3378 H 0.82572 0.10611 0.50574 0.0
H3379 H 0.79342 0.10539 0.50797 0.0
C3380 C 0.60957 0.0678 0.27347 0.0
C3381 C 0.62204 0.07693 0.26213 0.0
C3382 C 0.61009 0.04932 0.2746 0.0
C3383 C 0.62288 0.01128 0.2458 0.0
H3384 H 0.62221 0.98472 0.29411 0.0
C3385 C 0.61009 0.93546 0.25246 0.0
C3386 C 0.6222 0.92637 0.2643 0.0
C3387 C 0.61063 0.95394 0.25129 0.0
C3388 C 0.6224 0.99202 0.28053 0.0
H3389 H 0.64535 0.07406 0.24393 0.0
H3390 H 0.64599 0.04189 0.24564 0.0
H3391 H 0.622 0.01712 0.29506 0.0
H3392 H 0.64492 0.92933 0.28338 0.0
H3393 H 0.64559 0.96149 0.28158 0.0
H3394 H 0.62304 0.98618 0.23126 0.0
C3395 C 0.63581 0.04898 0.25354 0.0
C3396 C 0.62218 0.01048 0.28109 0.0
C3397 C 0.63547 0.06738 0.25267 0.0
C3398 C 0.63532 0.93597 0.27423 0.0
C3399 C 0.63567 0.95437 0.27331 0.0
C3400 C 0.62277 0.99282 0.24523 0.0
C3401 C 0.62294 0.03977 0.26419 0.0
C3402 C 0.6226 0.02025 0.26373 0.0
C3403 C 0.62313 0.96353 0.26216 0.0
C3404 C 0.62271 0.98305 0.2626 0.0
H3405 H 0.59911 0.07487 0.28092 0.0
H3406 H 0.60005 0.04246 0.28294 0.0
H3407 H 0.62307 0.01858 0.23222 0.0
H3408 H 0.59988 0.92835 0.24464 0.0
H3409 H 0.60085 0.96076 0.24255 0.0
C3410 C 0.68643 0.85471 0.01874 0.0
C3411 C 0.67697 0.86988 1.01329 0.0
C3412 C 0.7049 0.85505 0.01956 0.0
C3413 C 0.74303 0.8815 1.00104 0.0
H3414 H 0.76983 0.85087 0.03541 0.0
C3415 C 0.81846 0.88558 0.01775 0.0
C3416 C 0.82789 0.86994 0.01405 0.0
C3417 C 0.80005 0.88587 0.01634 0.0
C3418 C 0.76243 0.85939 0.02567 0.0
H3419 H 0.67926 0.8975 1.00541 0.0
H3420 H 0.71127 0.89853 1.00818 0.0
H3421 H 0.73763 0.85151 0.03777 0.0
H3422 H 0.82554 0.84241 1.00559 0.0
H3423 H 0.79316 0.8428 1.00377 0.0
H3424 H 0.76812 0.8899 0.98969 0.0
C3425 C 0.70463 0.8861 1.01099 0.0
C3426 C 0.74399 0.85973 0.02693 0.0
C3427 C 0.68621 0.88563 1.00973 0.0
C3428 C 0.81861 0.85468 1.00841 0.0
C3429 C 0.80014 0.85486 1.00746 0.0
C3430 C 0.76148 0.88143 1.00012 0.0
C3431 C 0.71429 0.87068 0.01533 0.0
C3432 C 0.734 0.87073 0.01455 0.0
C3433 C 0.79076 0.8704 1.01166 0.0
C3434 C 0.77128 0.87028 1.01232 0.0
H3435 H 0.67963 0.84233 0.02141 0.0
H3436 H 0.71177 0.84282 0.02271 0.0
H3437 H 0.73589 0.88982 0.99091 0.0
H3438 H 0.82526 0.89745 0.02237 0.0
H3439 H 0.79301 0.89796 0.01973 0.0
C3440 C 0.60468 0.56809 0.75898 0.0
C3441 C 0.6199 0.57757 0.76421 0.0
C3442 C 0.60505 0.54962 0.75811 0.0
C3443 C 0.63173 0.51133 0.77586 0.0
H3444 H 0.6005 0.48494 0.74178 0.0
C3445 C 0.63478 0.43566 0.7599 0.0
C3446 C 0.61885 0.42653 0.76308 0.0
C3447 C 0.63536 0.45408 0.76122 0.0
C3448 C 0.6092 0.49221 0.75143 0.0
H3449 H 0.64764 0.57537 0.77164 0.0
H3450 H 0.64866 0.5433 0.76889 0.0
H3451 H 0.60135 0.51711 0.73961 0.0
H3452 H 0.59114 0.42942 0.77057 0.0
H3453 H 0.59208 0.46178 0.77228 0.0
H3454 H 0.64005 0.48612 0.78697 0.0
C3455 C 0.6362 0.54993 0.76627 0.0
C3456 C 0.60967 0.51065 0.75029 0.0
C3457 C 0.63571 0.56836 0.76755 0.0
C3458 C 0.60361 0.43611 0.76815 0.0
C3459 C 0.60411 0.45458 0.76902 0.0
C3460 C 0.63153 0.49286 0.77667 0.0
C3461 C 0.62075 0.54025 0.76206 0.0
C3462 C 0.62083 0.52051 0.76261 0.0
C3463 C 0.61993 0.46369 0.76531 0.0
C3464 C 0.62015 0.48319 0.7646 0.0
H3465 H 0.59226 0.57485 0.75648 0.0
H3466 H 0.5928 0.54274 0.75509 0.0
H3467 H 0.64021 0.51836 0.78591 0.0
H3468 H 0.64666 0.42861 0.75578 0.0
H3469 H 0.64768 0.46088 0.75823 0.0
C3470 C 0.81818 0.38586 1.00938 0.0
C3471 C 0.82761 0.37015 1.0128 0.0
C3472 C 0.79975 0.38611 1.01072 0.0
C3473 C 0.762 0.35912 1.0016 0.0
H3474 H 0.73555 0.39034 0.03555 0.0
C3475 C 0.68608 0.354 1.00939 0.0
C3476 C 0.67651 0.36924 0.01433 0.0
C3477 C 0.70456 0.35448 1.00849 0.0
C3478 C 0.74266 0.38178 0.02564 0.0
H3479 H 0.82523 0.34248 0.02069 0.0
H3480 H 0.79286 0.34283 0.02242 0.0
H3481 H 0.76778 0.39065 0.03644 0.0
H3482 H 0.67856 0.39709 0.02123 0.0
H3483 H 0.71059 0.3983 0.01838 0.0
H3484 H 0.73715 0.35073 0.99007 0.0
C3485 C 0.79983 0.35495 0.01897 0.0
C3486 C 0.76113 0.38186 0.02636 0.0
C3487 C 0.81831 0.35479 0.01808 0.0
C3488 C 0.68563 0.38516 0.01735 0.0
C3489 C 0.70405 0.38575 0.01603 0.0
C3490 C 0.74355 0.3593 1.00054 0.0
C3491 C 0.79043 0.37056 0.01505 0.0
C3492 C 0.77091 0.37043 0.01447 0.0
C3493 C 0.71383 0.37031 1.01212 0.0
C3494 C 0.73357 0.37056 1.01265 0.0
H3495 H 0.82501 0.39782 1.0051 0.0
H3496 H 0.79272 0.39827 1.00756 0.0
H3497 H 0.76935 0.35036 0.99209 0.0
H3498 H 0.67939 0.34151 1.00714 0.0
H3499 H 0.71152 0.34224 1.0057 0.0
C3500 C 0.8687 0.56823 0.26016 0.0
C3501 C 0.88463 0.57724 0.26352 0.0
C3502 C 0.86798 0.54981 0.26144 0.0
C3503 C 0.89401 0.51014 0.27729 0.0
H3504 H 0.86331 0.48615 0.24052 0.0
C3505 C 0.89912 0.43565 0.25878 0.0
C3506 C 0.88385 0.42622 0.26407 0.0
C3507 C 0.89882 0.45413 0.25802 0.0
C3508 C 0.87191 0.49274 0.25084 0.0
H3509 H 0.91222 0.57417 0.27127 0.0
H3510 H 0.91127 0.54206 0.27264 0.0
H3511 H 0.86356 0.51838 0.2417 0.0
H3512 H 0.85617 0.42856 0.27187 0.0
H3513 H 0.85549 0.46086 0.26961 0.0
H3514 H 0.90285 0.48428 0.28568 0.0
C3515 C 0.89912 0.5491 0.26962 0.0
C3516 C 0.87196 0.5112 0.25173 0.0
C3517 C 0.89972 0.56756 0.26876 0.0
C3518 C 0.86807 0.4355 0.26758 0.0
C3519 C 0.86768 0.45394 0.26636 0.0
C3520 C 0.89424 0.4917 0.27607 0.0
C3521 C 0.8833 0.53992 0.26563 0.0
C3522 C 0.88297 0.52019 0.26502 0.0
C3523 C 0.88316 0.46339 0.26206 0.0
C3524 C 0.88318 0.48288 0.26287 0.0
H3525 H 0.85687 0.57538 0.25605 0.0
H3526 H 0.85543 0.54334 0.2588 0.0
H3527 H 0.90241 0.51646 0.28799 0.0
H3528 H 0.91148 0.42884 0.25611 0.0
H3529 H 0.91088 0.46122 0.25459 0.0
C3530 C 0.68632 0.61863 0.51035 0.0
C3531 C 0.67684 0.63423 0.51415 0.0
C3532 C 0.70475 0.61838 0.51177 0.0
C3533 C 0.74237 0.6451 0.50279 0.0
H3534 H 0.76891 0.61429 0.53715 0.0
C3535 C 0.81848 0.64956 0.5094 0.0
C3536 C 0.82793 0.6343 0.51458 0.0
C3537 C 0.79999 0.64931 0.5088 0.0
C3538 C 0.76178 0.62274 0.52714 0.0
H3539 H 0.67913 0.66172 0.52277 0.0
H3540 H 0.71152 0.6614 0.5246 0.0
H3541 H 0.73668 0.61414 0.5383 0.0
H3542 H 0.82557 0.60664 0.52229 0.0
H3543 H 0.79354 0.60578 0.51988 0.0
H3544 H 0.76718 0.65317 0.49087 0.0
C3545 C 0.70457 0.64934 0.52083 0.0
C3546 C 0.74331 0.62276 0.52801 0.0
C3547 C 0.68609 0.64948 0.51988 0.0
C3548 C 0.81863 0.61858 0.51816 0.0
C3549 C 0.8002 0.6182 0.51711 0.0
C3550 C 0.76082 0.64481 0.50158 0.0
C3551 C 0.71401 0.63385 0.51654 0.0
C3552 C 0.73351 0.63402 0.51594 0.0
C3553 C 0.79056 0.63368 0.51298 0.0
C3554 C 0.77082 0.63367 0.5138 0.0
H3555 H 0.67955 0.60676 0.50567 0.0
H3556 H 0.71182 0.60632 0.50831 0.0
H3557 H 0.73499 0.65373 0.49317 0.0
H3558 H 0.82531 0.66192 0.50673 0.0
H3559 H 0.79315 0.66158 0.50581 0.0
C3560 C 0.36835 0.56819 0.27496 0.0
C3561 C 0.38192 0.57772 0.26576 0.0
C3562 C 0.36776 0.54981 0.27374 0.0
C3563 C 0.39663 0.51134 0.26354 0.0
H3564 H 0.35206 0.48605 0.26488 0.0
C3565 C 0.36851 0.43598 0.25263 0.0
C3566 C 0.38208 0.42646 0.26185 0.0
C3567 C 0.36788 0.45436 0.25388 0.0
C3568 C 0.36465 0.49285 0.26433 0.0
H3569 H 0.40492 0.57567 0.24711 0.0
H3570 H 0.40353 0.54346 0.24427 0.0
H3571 H 0.35203 0.51807 0.26277 0.0
H3572 H 0.40503 0.42853 0.28057 0.0
H3573 H 0.40357 0.46074 0.28347 0.0
H3574 H 0.40924 0.48605 0.26415 0.0
C3575 C 0.39367 0.55015 0.25301 0.0
C3576 C 0.36463 0.51129 0.26336 0.0
C3577 C 0.39438 0.5686 0.25444 0.0
C3578 C 0.39449 0.43559 0.27322 0.0
C3579 C 0.39374 0.45404 0.27469 0.0
C3580 C 0.39665 0.49287 0.26423 0.0
C3581 C 0.38058 0.54049 0.26303 0.0
C3582 C 0.38062 0.5208 0.26305 0.0
C3583 C 0.38065 0.46369 0.26466 0.0
C3584 C 0.38065 0.48338 0.26467 0.0
H3585 H 0.35854 0.57486 0.28379 0.0
H3586 H 0.35762 0.5429 0.28187 0.0
H3587 H 0.40921 0.51819 0.26365 0.0
H3588 H 0.35874 0.42931 0.24375 0.0
H3589 H 0.35775 0.46126 0.24574 0.0
C3590 C 0.31859 0.61922 1.01009 0.0
C3591 C 0.32783 0.63502 1.01341 0.0
C3592 C 0.30017 0.61876 1.0114 0.0
C3593 C 0.26087 0.64521 0.02727 0.0
H3594 H 0.2366 0.615 0.99023 0.0
C3595 C 0.18625 0.65075 1.00975 0.0
C3596 C 0.17687 0.63527 0.01437 0.0
C3597 C 0.20472 0.6505 1.00885 0.0
C3598 C 0.24327 0.62347 1.00063 0.0
H3599 H 0.32518 0.66265 0.02117 0.0
H3600 H 0.29304 0.66215 0.02261 0.0
H3601 H 0.26883 0.61497 0.9914 0.0
H3602 H 0.17926 0.60732 0.0208 0.0
H3603 H 0.21154 0.60675 0.01834 0.0
H3604 H 0.2351 0.65416 0.0358 0.0
C3605 C 0.29992 0.6499 0.01958 0.0
C3606 C 0.26172 0.62335 1.0015 0.0
C3607 C 0.31838 0.65024 0.01868 0.0
C3608 C 0.18618 0.61938 0.01706 0.0
C3609 C 0.2046 0.61906 0.01572 0.0
C3610 C 0.24243 0.64559 0.02607 0.0
C3611 C 0.29052 0.63422 0.01558 0.0
C3612 C 0.27081 0.63416 0.01491 0.0
C3613 C 0.21401 0.6347 1.0121 0.0
C3614 C 0.23351 0.63469 1.01279 0.0
H3615 H 0.32556 0.60729 1.00596 0.0
H3616 H 0.29352 0.60631 1.00877 0.0
H3617 H 0.26728 0.65346 0.03804 0.0
H3618 H 0.1794 0.66319 1.00772 0.0
H3619 H 0.21178 0.66269 1.00595 0.0
C3620 C 0.10537 0.4363 0.75748 0.0
C3621 C 0.1204 0.42663 0.76307 0.0
C3622 C 0.10595 0.45476 0.7568 0.0
C3623 C 0.13305 0.49307 0.75011 0.0
H3624 H 0.1034 0.51674 0.78813 0.0
C3625 C 0.13694 0.56843 0.75985 0.0
C3626 C 0.1211 0.57751 0.76347 0.0
C3627 C 0.13759 0.55002 0.76112 0.0
C3628 C 0.11156 0.51044 0.7772 0.0
H3629 H 0.14797 0.42855 0.77146 0.0
H3630 H 0.14917 0.46085 0.76932 0.0
H3631 H 0.10261 0.48459 0.78548 0.0
H3632 H 0.09361 0.57458 0.77174 0.0
H3633 H 0.09442 0.54247 0.77307 0.0
H3634 H 0.14148 0.51872 0.74107 0.0
C3635 C 0.13694 0.4541 0.76579 0.0
C3636 C 0.11114 0.49202 0.77579 0.0
C3637 C 0.13626 0.43567 0.76692 0.0
C3638 C 0.10605 0.56791 0.76901 0.0
C3639 C 0.10657 0.54945 0.76986 0.0
C3640 C 0.13319 0.51153 0.75119 0.0
C3641 C 0.12167 0.46377 0.76122 0.0
C3642 C 0.12188 0.48323 0.76226 0.0
C3643 C 0.12228 0.54021 0.76556 0.0
C3644 C 0.12247 0.52049 0.76479 0.0
H3645 H 0.09295 0.42967 0.75455 0.0
H3646 H 0.09405 0.46204 0.75318 0.0
H3647 H 0.14141 0.48649 0.73956 0.0
H3648 H 0.14873 0.57552 0.75552 0.0
H3649 H 0.15006 0.54349 0.75824 0.0
C3650 C 0.18522 0.38666 0.50859 0.0
C3651 C 0.17586 0.37101 0.51237 0.0
C3652 C 0.20363 0.38703 0.50993 0.0
C3653 C 0.24275 0.36064 0.52653 0.0
H3654 H 0.26723 0.39005 0.48884 0.0
C3655 C 0.31726 0.35443 0.50826 0.0
C3656 C 0.32675 0.36966 0.51356 0.0
C3657 C 0.2988 0.35486 0.50732 0.0
C3658 C 0.2605 0.3818 0.49941 0.0
H3659 H 0.17831 0.34356 0.52095 0.0
H3660 H 0.21045 0.34387 0.5224 0.0
H3661 H 0.235 0.39026 0.48994 0.0
H3662 H 0.32455 0.39738 0.52118 0.0
H3663 H 0.29228 0.39829 0.51857 0.0
H3664 H 0.26847 0.35169 0.53526 0.0
C3665 C 0.20367 0.35609 0.51901 0.0
C3666 C 0.24204 0.38203 0.50025 0.0
C3667 C 0.1852 0.35585 0.51811 0.0
C3668 C 0.31756 0.38552 0.51688 0.0
C3669 C 0.29914 0.38603 0.51547 0.0
C3670 C 0.26118 0.36013 0.52536 0.0
C3671 C 0.21317 0.37161 0.51457 0.0
C3672 C 0.23288 0.37152 0.51391 0.0
C3673 C 0.28964 0.3706 0.51117 0.0
C3674 C 0.27016 0.37074 0.51184 0.0
H3675 H 0.17836 0.39851 0.50405 0.0
H3676 H 0.21036 0.39937 0.50695 0.0
H3677 H 0.23628 0.35263 0.53749 0.0
H3678 H 0.32401 0.34201 0.50574 0.0
H3679 H 0.29164 0.34283 0.50391 0.0
C3680 C 0.11434 0.11461 0.06796 0.0
C3681 C 0.11382 0.12927 0.05534 0.0
C3682 C 0.11376 0.11683 0.08816 0.0
C3683 C 0.10429 0.1484 0.12853 0.0
H3684 H 0.13799 0.11894 0.15608 0.0
C3685 C 0.10841 0.1425 0.2138 0.0
C3686 C 0.12535 0.14019 0.22195 0.0
C3687 C 0.10612 0.14306 0.19346 0.0
C3688 C 0.1286 0.12742 0.14868 0.0
H3689 H 0.1114 0.1578 0.05427 0.0
H3690 H 0.11047 0.16172 0.08973 0.0
H3691 H 0.13503 0.11615 0.12105 0.0
H3692 H 0.15325 0.13786 0.21495 0.0
H3693 H 0.14931 0.13917 0.17991 0.0
H3694 H 0.0981 0.1598 0.15642 0.0
C3695 C 0.11122 0.14845 0.08388 0.0
C3696 C 0.12671 0.12563 0.12852 0.0
C3697 C 0.11174 0.14621 0.06352 0.0
C3698 C 0.13997 0.13945 0.20929 0.0
C3699 C 0.1377 0.14007 0.18909 0.0
C3700 C 0.10613 0.15014 0.14885 0.0
C3701 C 0.11277 0.1338 0.09648 0.0
C3702 C 0.11451 0.13603 0.1181 0.0
C3703 C 0.12072 0.14134 0.18082 0.0
C3704 C 0.1184 0.13971 0.15919 0.0
H3705 H 0.11575 0.10132 0.06225 0.0
H3706 H 0.11451 0.10518 0.09731 0.0
H3707 H 0.09471 0.15659 0.12103 0.0
H3708 H 0.09684 0.14302 0.22308 0.0
H3709 H 0.09285 0.14402 0.18764 0.0
C3710 C 0.1149 0.88955 0.45906 0.0
C3711 C 0.11409 0.87497 0.47177 0.0
C3712 C 0.11433 0.88722 0.43887 0.0
C3713 C 0.10443 0.85555 0.39871 0.0
H3714 H 0.13862 0.88435 0.37104 0.0
C3715 C 0.10874 0.86106 0.31342 0.0
C3716 C 0.1257 0.86321 0.3053 0.0
C3717 C 0.10643 0.86052 0.33377 0.0
C3718 C 0.12909 0.87605 0.37847 0.0
H3719 H 0.11117 0.84649 0.47304 0.0
H3720 H 0.11027 0.84237 0.43761 0.0
H3721 H 0.13565 0.88737 0.40603 0.0
H3722 H 0.15362 0.86521 0.31229 0.0
H3723 H 0.14966 0.86391 0.34734 0.0
H3724 H 0.09812 0.84408 0.37089 0.0
C3725 C 0.11124 0.85567 0.44337 0.0
C3726 C 0.1272 0.87798 0.39861 0.0
C3727 C 0.11174 0.85802 0.46371 0.0
C3728 C 0.14032 0.86375 0.31796 0.0
C3729 C 0.13804 0.86314 0.33815 0.0
C3730 C 0.10628 0.85366 0.37841 0.0
C3731 C 0.11306 0.87022 0.43067 0.0
C3732 C 0.11482 0.86783 0.40907 0.0
C3733 C 0.12104 0.86209 0.34641 0.0
C3734 C 0.11872 0.86385 0.36802 0.0
H3735 H 0.1165 0.90284 0.46468 0.0
H3736 H 0.11529 0.8988 0.42964 0.0
H3737 H 0.09471 0.84755 0.40624 0.0
H3738 H 0.09717 0.8607 0.30413 0.0
H3739 H 0.09314 0.85973 0.33957 0.0
C3740 C 0.3668 0.86228 0.70887 0.0
C3741 C 0.38119 0.86319 0.72185 0.0
C3742 C 0.36953 0.86114 0.68874 0.0
C3743 C 0.40142 0.87383 0.65105 0.0
H3744 H 0.37253 0.84451 0.61736 0.0
C3745 C 0.39077 0.88811 0.56889 0.0
C3746 C 0.39034 0.87379 0.55581 0.0
C3747 C 0.39207 0.88529 0.58901 0.0
C3748 C 0.38085 0.85265 0.62654 0.0
H3749 H 0.4098 0.86323 0.72369 0.0
H3750 H 0.41458 0.86144 0.68842 0.0
H3751 H 0.37002 0.84155 0.65274 0.0
H3752 H 0.39132 0.84521 0.55376 0.0
H3753 H 0.3934 0.84026 0.58898 0.0
H3754 H 0.41187 0.88529 0.62486 0.0
C3755 C 0.40115 0.86154 0.69393 0.0
C3756 C 0.37931 0.85106 0.64683 0.0
C3757 C 0.39842 0.86239 0.71415 0.0
C3758 C 0.39176 0.85655 0.56337 0.0
C3759 C 0.39278 0.85371 0.58358 0.0
C3760 C 0.40278 0.8756 0.63076 0.0
C3761 C 0.38673 0.86114 0.68094 0.0
C3762 C 0.38944 0.86175 0.65937 0.0
C3763 C 0.39273 0.86805 0.59667 0.0
C3764 C 0.39238 0.86516 0.61823 0.0
H3765 H 0.35334 0.86291 0.71425 0.0
H3766 H 0.35811 0.861 0.67921 0.0
H3767 H 0.40932 0.88238 0.66024 0.0
H3768 H 0.38968 0.90157 0.56362 0.0
H3769 H 0.39185 0.89664 0.59862 0.0
C3770 C 0.36788 0.14152 0.81879 0.0
C3771 C 0.38225 0.14047 0.8058 0.0
C3772 C 0.37063 0.14277 0.83891 0.0
C3773 C 0.40255 0.13026 0.8767 0.0
H3774 H 0.37346 0.15956 0.9102 0.0
C3775 C 0.39175 0.11607 0.95884 0.0
C3776 C 0.39107 0.13039 0.97192 0.0
C3777 C 0.39316 0.11889 0.93874 0.0
C3778 C 0.38184 0.15143 0.90108 0.0
H3779 H 0.41086 0.14032 0.80393 0.0
H3780 H 0.41567 0.14232 0.8392 0.0
H3781 H 0.37104 0.1624 0.87481 0.0
H3782 H 0.39172 0.15898 0.97395 0.0
H3783 H 0.394 0.16393 0.93874 0.0
H3784 H 0.413 0.11893 0.90296 0.0
C3785 C 0.40224 0.14223 0.8337 0.0
C3786 C 0.38035 0.15295 0.88077 0.0
C3787 C 0.39949 0.14126 0.81348 0.0
C3788 C 0.39235 0.14764 0.96435 0.0
C3789 C 0.39349 0.15048 0.94415 0.0
C3790 C 0.40388 0.12857 0.89701 0.0
C3791 C 0.38783 0.14275 0.8467 0.0
C3792 C 0.39054 0.14225 0.8683 0.0
C3793 C 0.39367 0.13613 0.93106 0.0
C3794 C 0.3934 0.13898 0.90948 0.0
H3795 H 0.35441 0.1409 0.81343 0.0
H3796 H 0.35921 0.14299 0.84844 0.0
H3797 H 0.4105 0.1217 0.86757 0.0
H3798 H 0.39075 0.1026 0.96411 0.0
H3799 H 0.39311 0.10753 0.92913 0.0
C3800 C 0.89525 0.86136 0.81371 0.0
C3801 C 0.87839 0.86388 0.80545 0.0
C3802 C 0.89745 0.86088 0.83407 0.0
C3803 C 0.87494 0.87683 0.87876 0.0
H3804 H 0.90874 0.84759 0.90645 0.0
C3805 C 0.88926 0.88972 0.95949 0.0
C3806 C 0.88995 0.87508 0.97213 0.0
C3807 C 0.88974 0.88747 0.93928 0.0
C3808 C 0.89918 0.85579 0.89895 0.0
H3809 H 0.8505 0.86668 0.81228 0.0
H3810 H 0.85427 0.86547 0.84736 0.0
H3811 H 0.90532 0.84432 0.8711 0.0
H3812 H 0.89256 0.84656 0.97324 0.0
H3813 H 0.89329 0.84259 0.93778 0.0
H3814 H 0.86853 0.88815 0.90637 0.0
C3815 C 0.86591 0.86437 0.83825 0.0
C3816 C 0.89732 0.85402 0.87864 0.0
C3817 C 0.86373 0.86492 0.81803 0.0
C3818 C 0.89209 0.85814 0.96396 0.0
C3819 C 0.89249 0.85587 0.9436 0.0
C3820 C 0.87683 0.87863 0.89892 0.0
C3821 C 0.88283 0.86287 0.84663 0.0
C3822 C 0.8851 0.86449 0.86827 0.0
C3823 C 0.89079 0.87049 0.93098 0.0
C3824 C 0.889 0.86822 0.90936 0.0
H3825 H 0.90686 0.8606 0.8045 0.0
H3826 H 0.91069 0.85975 0.83994 0.0
H3827 H 0.86559 0.88534 0.87135 0.0
H3828 H 0.88782 0.903 0.96519 0.0
H3829 H 0.88889 0.8991 0.93012 0.0
C3830 C 0.86413 0.1389 0.70969 0.0
C3831 C 0.87871 0.13994 0.72239 0.0
C3832 C 0.86643 0.13944 0.68949 0.0
C3833 C 0.89803 0.14984 0.64933 0.0
H3834 H 0.86947 0.11567 0.62137 0.0
C3835 C 0.89298 0.14593 0.56396 0.0
C3836 C 0.89095 0.129 0.55573 0.0
C3837 C 0.89336 0.14815 0.58433 0.0
C3838 C 0.8777 0.1252 0.62889 0.0
H3839 H 0.90717 0.14317 0.72355 0.0
H3840 H 0.91123 0.14401 0.68813 0.0
H3841 H 0.86637 0.11841 0.65639 0.0
H3842 H 0.88898 0.10105 0.56259 0.0
H3843 H 0.89001 0.10486 0.59766 0.0
H3844 H 0.90953 0.15637 0.62157 0.0
C3845 C 0.89795 0.14289 0.69391 0.0
C3846 C 0.87573 0.12696 0.64904 0.0
C3847 C 0.89562 0.14241 0.71425 0.0
C3848 C 0.89035 0.11432 0.56833 0.0
C3849 C 0.8908 0.11652 0.58854 0.0
C3850 C 0.89997 0.14812 0.62902 0.0
C3851 C 0.88341 0.14092 0.68124 0.0
C3852 C 0.8858 0.13932 0.65961 0.0
C3853 C 0.89174 0.13348 0.5969 0.0
C3854 C 0.88988 0.13568 0.61852 0.0
H3855 H 0.85086 0.13717 0.71533 0.0
H3856 H 0.85485 0.13834 0.68028 0.0
H3857 H 0.90596 0.15956 0.65693 0.0
H3858 H 0.89337 0.15754 0.55473 0.0
H3859 H 0.89407 0.16141 0.5902 0.0
C3860 C 0.61346 0.14808 0.46392 0.0
C3861 C 0.61408 0.13086 0.47166 0.0
C3862 C 0.61257 0.15079 0.44367 0.0
C3863 C 0.60175 0.12886 0.39665 0.0
H3864 H 0.63597 0.16129 0.37439 0.0
C3865 C 0.60683 0.14108 0.31309 0.0
C3866 C 0.62404 0.13983 0.30538 0.0
C3867 C 0.60412 0.14207 0.33331 0.0
C3868 C 0.62629 0.15222 0.38037 0.0
H3869 H 0.61347 0.10301 0.46412 0.0
H3870 H 0.61152 0.10774 0.42908 0.0
H3871 H 0.63321 0.15883 0.40979 0.0
H3872 H 0.65188 0.13937 0.31301 0.0
H3873 H 0.64715 0.14147 0.34804 0.0
H3874 H 0.59507 0.12201 0.36723 0.0
C3875 C 0.6118 0.11917 0.43857 0.0
C3876 C 0.6246 0.15093 0.40068 0.0
C3877 C 0.61297 0.11647 0.45871 0.0
C3878 C 0.63844 0.14035 0.31837 0.0
C3879 C 0.63573 0.14161 0.33851 0.0
C3880 C 0.60328 0.13033 0.37634 0.0
C3881 C 0.61198 0.13635 0.43072 0.0
C3882 C 0.61252 0.139 0.40911 0.0
C3883 C 0.61854 0.14214 0.34631 0.0
C3884 C 0.61578 0.14181 0.36791 0.0
H3885 H 0.61445 0.15946 0.47342 0.0
H3886 H 0.6126 0.16421 0.43813 0.0
H3887 H 0.59224 0.11963 0.40262 0.0
H3888 H 0.59543 0.14057 0.30356 0.0
H3889 H 0.5907 0.1426 0.3388 0.0
C3890 C 0.61361 0.85645 0.06301 0.0
C3891 C 0.61459 0.87365 0.05527 0.0
C3892 C 0.61275 0.85375 0.08325 0.0
C3893 C 0.60236 0.8758 0.13022 0.0
H3894 H 0.63605 0.84283 0.15249 0.0
C3895 C 0.60678 0.863 0.21365 0.0
C3896 C 0.62394 0.86408 0.22152 0.0
C3897 C 0.60421 0.86216 0.19341 0.0
C3898 C 0.62652 0.85205 0.14651 0.0
H3899 H 0.61462 0.90151 0.06279 0.0
H3900 H 0.6127 0.89682 0.09785 0.0
H3901 H 0.63341 0.84542 0.11708 0.0
H3902 H 0.65184 0.8644 0.21417 0.0
H3903 H 0.64735 0.86256 0.17906 0.0
H3904 H 0.59568 0.88266 0.15964 0.0
C3905 C 0.61271 0.88539 0.08835 0.0
C3906 C 0.6249 0.85342 0.1262 0.0
C3907 C 0.61387 0.88807 0.06821 0.0
C3908 C 0.63844 0.86356 0.20867 0.0
C3909 C 0.63587 0.86244 0.18849 0.0
C3910 C 0.6038 0.87425 0.15053 0.0
C3911 C 0.61251 0.8682 0.09619 0.0
C3912 C 0.61301 0.86553 0.11778 0.0
C3913 C 0.61872 0.86209 0.18055 0.0
C3914 C 0.61611 0.86256 0.15895 0.0
H3915 H 0.6143 0.84505 0.05349 0.0
H3916 H 0.61249 0.84034 0.08879 0.0
H3917 H 0.593 0.88519 0.12424 0.0
H3918 H 0.59531 0.86351 0.22307 0.0
H3919 H 0.59083 0.86176 0.18779 0.0
C3920 C 0.6378 0.64207 0.70888 0.0
C3921 C 0.62344 0.64112 0.72189 0.0
C3922 C 0.63503 0.64325 0.68875 0.0
C3923 C 0.60309 0.63054 0.65114 0.0
H3924 H 0.63202 0.65978 0.61737 0.0
C3925 C 0.61376 0.61609 0.56902 0.0
C3926 C 0.61425 0.6304 0.5559 0.0
C3927 C 0.61244 0.61895 0.58913 0.0
C3928 C 0.62369 0.65166 0.62658 0.0
H3929 H 0.59483 0.64107 0.7238 0.0
H3930 H 0.58998 0.64293 0.68854 0.0
H3931 H 0.63451 0.6628 0.65274 0.0
H3932 H 0.61336 0.65898 0.55377 0.0
H3933 H 0.61124 0.66398 0.58897 0.0
H3934 H 0.59264 0.61904 0.62498 0.0
C3935 C 0.60342 0.64283 0.69401 0.0
C3936 C 0.62522 0.65329 0.64686 0.0
C3937 C 0.60619 0.64194 0.71424 0.0
C3938 C 0.61288 0.64765 0.56342 0.0
C3939 C 0.61183 0.65053 0.58361 0.0
C3940 C 0.60174 0.62873 0.63085 0.0
C3941 C 0.61782 0.64324 0.681 0.0
C3942 C 0.61508 0.64263 0.65942 0.0
C3943 C 0.61183 0.63621 0.59674 0.0
C3944 C 0.61216 0.63913 0.61829 0.0
H3945 H 0.65127 0.64143 0.71422 0.0
H3946 H 0.64643 0.64339 0.6792 0.0
H3947 H 0.59519 0.62201 0.66035 0.0
H3948 H 0.61482 0.60262 0.56378 0.0
H3949 H 0.61262 0.60762 0.59878 0.0
C3950 C 0.63686 0.36243 0.81858 0.0
C3951 C 0.62249 0.36328 0.80557 0.0
C3952 C 0.6341 0.36115 0.83871 0.0
C3953 C 0.60197 0.37327 0.87642 0.0
H3954 H 0.63126 0.34421 0.91 0.0
C3955 C 0.61249 0.38744 0.9586 0.0
C3956 C 0.61323 0.37311 0.97166 0.0
C3957 C 0.61114 0.38464 0.93848 0.0
C3958 C 0.62283 0.35228 0.90085 0.0
H3959 H 0.59388 0.36308 0.80367 0.0
H3960 H 0.58905 0.36105 0.83892 0.0
H3961 H 0.63382 0.34145 0.87461 0.0
H3962 H 0.61274 0.34451 0.97368 0.0
H3963 H 0.61059 0.3396 0.93846 0.0
H3964 H 0.59134 0.38446 0.90266 0.0
C3965 C 0.60248 0.36131 0.83345 0.0
C3966 C 0.6244 0.3508 0.88055 0.0
C3967 C 0.60525 0.3623 0.81322 0.0
C3968 C 0.61206 0.35586 0.96408 0.0
C3969 C 0.61099 0.35304 0.94387 0.0
C3970 C 0.60057 0.37492 0.89672 0.0
C3971 C 0.61689 0.36096 0.84647 0.0
C3972 C 0.61413 0.36141 0.86805 0.0
C3973 C 0.61076 0.36741 0.9308 0.0
C3974 C 0.61112 0.36459 0.90922 0.0
H3975 H 0.65032 0.36319 0.81324 0.0
H3976 H 0.6455 0.36107 0.84826 0.0
H3977 H 0.59396 0.38176 0.86727 0.0
H3978 H 0.6134 0.40091 0.96387 0.0
H3979 H 0.61115 0.39601 0.92889 0.0
C3980 C 0.89291 0.35847 0.06323 0.0
C3981 C 0.89063 0.37545 0.05521 0.0
C3982 C 0.89345 0.35606 0.08356 0.0
C3983 C 0.87763 0.37831 0.12836 0.0
H3984 H 0.90655 0.34421 0.15601 0.0
C3985 C 0.86434 0.36379 0.20891 0.0
C3986 C 0.87894 0.36321 0.2216 0.0
C3987 C 0.86666 0.36324 0.18872 0.0
C3988 C 0.89844 0.35384 0.14851 0.0
H3989 H 0.88839 0.40332 0.06238 0.0
H3990 H 0.88969 0.39917 0.0974 0.0
H3991 H 0.91 0.34778 0.12066 0.0
H3992 H 0.90747 0.36069 0.22282 0.0
H3993 H 0.91156 0.35982 0.18739 0.0
H3994 H 0.86621 0.38463 0.15594 0.0
C3995 C 0.89057 0.38761 0.08814 0.0
C3996 C 0.90031 0.35579 0.12821 0.0
C3997 C 0.88995 0.39 0.06796 0.0
C3998 C 0.89592 0.36108 0.21351 0.0
C3999 C 0.89826 0.3606 0.19317 0.0
C4000 C 0.87572 0.37632 0.14849 0.0
C4001 C 0.89174 0.37059 0.09629 0.0
C4002 C 0.88998 0.36815 0.11788 0.0
C4003 C 0.88367 0.36221 0.1805 0.0
C4004 C 0.88602 0.36404 0.15891 0.0
H4005 H 0.89337 0.34695 0.05387 0.0
H4006 H 0.89435 0.34274 0.08929 0.0
H4007 H 0.86923 0.38776 0.12096 0.0
H4008 H 0.85103 0.36524 0.21455 0.0
H4009 H 0.85506 0.36404 0.17951 0.0
C4010 C 0.86742 0.64195 0.31857 0.0
C4011 C 0.88178 0.64088 0.30557 0.0
C4012 C 0.87019 0.64312 0.3387 0.0
C4013 C 0.90205 0.63022 0.37636 0.0
H4014 H 0.8733 0.65965 0.41007 0.0
C4015 C 0.89125 0.61582 0.45846 0.0
C4016 C 0.89083 0.63011 0.47159 0.0
C4017 C 0.89261 0.6187 0.43836 0.0
C4018 C 0.88158 0.65148 0.40089 0.0
H4019 H 0.91038 0.6406 0.30367 0.0
H4020 H 0.91524 0.64245 0.33893 0.0
H4021 H 0.87083 0.66267 0.3747 0.0
H4022 H 0.89189 0.65868 0.47374 0.0
H4023 H 0.89407 0.66372 0.43854 0.0
H4024 H 0.91243 0.61868 0.40254 0.0
C4025 C 0.9018 0.64245 0.33345 0.0
C4026 C 0.88006 0.65311 0.38059 0.0
C4027 C 0.89903 0.64156 0.31323 0.0
C4028 C 0.89231 0.64737 0.46409 0.0
C4029 C 0.8934 0.65026 0.44389 0.0
C4030 C 0.90339 0.62842 0.39665 0.0
C4031 C 0.88741 0.64299 0.34646 0.0
C4032 C 0.89013 0.64237 0.36805 0.0
C4033 C 0.89333 0.63596 0.43075 0.0
C4034 C 0.89304 0.63889 0.40919 0.0
H4035 H 0.85395 0.6414 0.31323 0.0
H4036 H 0.85879 0.64336 0.34825 0.0
H4037 H 0.9099 0.62163 0.36716 0.0
H4038 H 0.8901 0.60235 0.46369 0.0
H4039 H 0.89238 0.60737 0.42871 0.0
C4040 C 0.39592 0.3615 0.31329 0.0
C4041 C 0.37905 0.36402 0.30507 0.0
C4042 C 0.39814 0.36093 0.33365 0.0
C4043 C 0.37571 0.3768 0.3784 0.0
H4044 H 0.40911 0.34711 0.4061 0.0
C4045 C 0.38972 0.38916 0.45927 0.0
C4046 C 0.39004 0.37446 0.47184 0.0
C4047 C 0.39037 0.387 0.43906 0.0
C4048 C 0.39967 0.35544 0.39859 0.0
H4049 H 0.35116 0.36677 0.31197 0.0
H4050 H 0.35497 0.36546 0.34703 0.0
H4051 H 0.40583 0.34406 0.37069 0.0
H4052 H 0.39219 0.3459 0.47282 0.0
H4053 H 0.39325 0.34208 0.43734 0.0
H4054 H 0.36929 0.38804 0.40605 0.0
C4055 C 0.3666 0.36439 0.33789 0.0
C4056 C 0.39789 0.3538 0.37825 0.0
C4057 C 0.3644 0.36501 0.31768 0.0
C4058 C 0.39201 0.35753 0.4636 0.0
C4059 C 0.3926 0.35534 0.44324 0.0
C4060 C 0.37753 0.37849 0.39858 0.0
C4061 C 0.38353 0.36287 0.34624 0.0
C4062 C 0.3858 0.36441 0.36789 0.0
C4063 C 0.39124 0.37005 0.43068 0.0
C4064 C 0.38955 0.3679 0.40903 0.0
H4065 H 0.40751 0.36077 0.30406 0.0
H4066 H 0.41138 0.35978 0.33952 0.0
H4067 H 0.36645 0.38541 0.371 0.0
H4068 H 0.3884 0.40244 0.46502 0.0
H4069 H 0.38977 0.39868 0.42995 0.0
C4070 C 0.36433 0.63933 0.20984 0.0
C4071 C 0.37893 0.64031 0.22251 0.0
C4072 C 0.3666 0.63996 0.18964 0.0
C4073 C 0.39804 0.65058 0.14943 0.0
H4074 H 0.36957 0.61631 0.1215 0.0
C4075 C 0.39255 0.64681 0.06406 0.0
C4076 C 0.39063 0.62987 0.05583 0.0
C4077 C 0.39304 0.649 0.08443 0.0
C4078 C 0.37778 0.62587 0.12901 0.0
H4079 H 0.40739 0.64358 0.22365 0.0
H4080 H 0.41138 0.6446 0.18821 0.0
H4081 H 0.36658 0.61895 0.15653 0.0
H4082 H 0.38897 0.60189 0.06266 0.0
H4083 H 0.39018 0.60567 0.09773 0.0
H4084 H 0.40938 0.65725 0.12164 0.0
C4085 C 0.39812 0.64344 0.19402 0.0
C4086 C 0.37587 0.62757 0.14917 0.0
C4087 C 0.39583 0.64286 0.21437 0.0
C4088 C 0.39025 0.61517 0.06841 0.0
C4089 C 0.39081 0.61735 0.08862 0.0
C4090 C 0.39991 0.64892 0.1291 0.0
C4091 C 0.38356 0.6415 0.18137 0.0
C4092 C 0.3859 0.63996 0.15974 0.0
C4093 C 0.39163 0.6343 0.09699 0.0
C4094 C 0.38985 0.63645 0.11862 0.0
H4095 H 0.35107 0.63755 0.21549 0.0
H4096 H 0.355 0.63889 0.18045 0.0
H4097 H 0.40594 0.66032 0.15703 0.0
H4098 H 0.39277 0.65843 0.05484 0.0
H4099 H 0.39366 0.66227 0.09032 0.0
C4100 C 0.10832 0.64318 0.8134 0.0
C4101 C 0.12526 0.64078 0.8053 0.0
C4102 C 0.10599 0.64377 0.83374 0.0
C4103 C 0.1283 0.6279 0.87851 0.0
H4104 H 0.09465 0.65727 0.90624 0.0
C4105 C 0.11404 0.61496 0.95919 0.0
C4106 C 0.11375 0.62958 0.97186 0.0
C4107 C 0.11339 0.61725 0.939 0.0
C4108 C 0.10416 0.64902 0.89872 0.0
H4109 H 0.15313 0.63835 0.81236 0.0
H4110 H 0.14914 0.6397 0.8474 0.0
H4111 H 0.09807 0.66055 0.87085 0.0
H4112 H 0.11161 0.65814 0.97303 0.0
H4113 H 0.11054 0.66218 0.93758 0.0
H4114 H 0.13464 0.6165 0.90611 0.0
C4115 C 0.13755 0.64065 0.83819 0.0
C4116 C 0.10601 0.6508 0.8784 0.0
C4117 C 0.13985 0.64001 0.818 0.0
C4118 C 0.11177 0.64657 0.96374 0.0
C4119 C 0.11118 0.64888 0.94339 0.0
C4120 C 0.12639 0.62607 0.89867 0.0
C4121 C 0.12056 0.64198 0.84642 0.0
C4122 C 0.1182 0.64031 0.86803 0.0
C4123 C 0.11254 0.63426 0.93074 0.0
C4124 C 0.11428 0.63654 0.90912 0.0
H4125 H 0.09677 0.64373 0.80409 0.0
H4126 H 0.09271 0.64479 0.83953 0.0
H4127 H 0.13763 0.61937 0.8711 0.0
H4128 H 0.11535 0.60164 0.96485 0.0
H4129 H 0.11398 0.60563 0.92981 0.0
C4130 C 0.13934 0.36555 0.70861 0.0
C4131 C 0.12465 0.36448 0.72115 0.0
C4132 C 0.13721 0.36505 0.68838 0.0
C4133 C 0.10592 0.3548 0.64788 0.0
H4134 H 0.13481 0.38897 0.62031 0.0
C4135 C 0.11147 0.35901 0.56259 0.0
C4136 C 0.11366 0.37596 0.55444 0.0
C4137 C 0.111 0.35672 0.58294 0.0
C4138 C 0.12649 0.37945 0.62771 0.0
H4139 H 0.09618 0.36122 0.72201 0.0
H4140 H 0.09243 0.36046 0.68655 0.0
H4141 H 0.13762 0.38612 0.65533 0.0
H4142 H 0.11579 0.40387 0.56139 0.0
H4143 H 0.11458 0.39994 0.59645 0.0
H4144 H 0.09461 0.34841 0.62001 0.0
C4145 C 0.10566 0.36156 0.69247 0.0
C4146 C 0.1283 0.37762 0.64788 0.0
C4147 C 0.10781 0.362 0.71283 0.0
C4148 C 0.11432 0.39058 0.56708 0.0
C4149 C 0.11376 0.38832 0.58728 0.0
C4150 C 0.10414 0.3566 0.62756 0.0
C4151 C 0.12031 0.36358 0.67996 0.0
C4152 C 0.11811 0.36525 0.65831 0.0
C4153 C 0.11266 0.37133 0.59557 0.0
C4154 C 0.11436 0.36904 0.6172 0.0
H4155 H 0.15256 0.36728 0.7144 0.0
H4156 H 0.14888 0.36617 0.67931 0.0
H4157 H 0.0979 0.34508 0.65537 0.0
H4158 H 0.11102 0.34745 0.5533 0.0
H4159 H 0.11016 0.34344 0.58876 0.0
loop_
_geom_bond_atom_site_label_1
_geom_bond_atom_site_label_2
_geom_bond_distance
_geom_bond_site_symmetry_2
_ccdc_geom_bond_type
Ho0 C3 2.811 . S
Ho0 O20 2.322 . S
Ho0 O22 2.378 . S
Ho0 O23 2.524 . S
Ho0 O24 2.381 . S
Ho0 O25 2.669 . S
Ho0 O27 2.346 . S
Ho0 O31 2.305 . S
Ho1 C12 2.811 . S
Ho1 O21 2.346 . S
Ho1 O25 2.305 . S
Ho1 O26 2.322 . S
Ho1 O28 2.378 . S
Ho1 O29 2.524 . S
Ho1 O30 2.381 . S
Ho1 O31 2.669 . S
C2 O20 1.259 . S
C2 O21 1.268 . S
C3 Ho0 2.811 . S
C3 C4 1.488 . S
C3 O22 1.215 . S
C3 O23 1.289 . S
C4 C3 1.488 . S
C4 C5 1.348 . S
C4 C9 1.413 . S
C5 C4 1.348 . S
C5 C6 1.442 . S
C5 H32 0.930 . S
C6 C5 1.442 . S
C6 C7 1.381 . S
C6 H33 0.931 . S
C7 C6 1.381 . S
C7 C8 1.321 . S
C8 C7 1.321 . S
C8 C9 1.403 . S
C8 H34 0.934 . S
C9 C4 1.413 . S
C9 C8 1.403 . S
C9 H35 0.930 . S
C10 O24 1.275 . S
C10 O25 1.256 . S
C11 O26 1.259 . S
C11 O27 1.268 . S
C12 Ho1 2.811 . S
C12 C13 1.488 . S
C12 O28 1.215 . S
C12 O29 1.289 . S
C13 C12 1.488 . S
C13 C14 1.348 . S
C13 C18 1.413 . S
C14 C13 1.348 . S
C14 C15 1.442 . S
C14 H36 0.930 . S
C15 C14 1.442 . S
C15 C16 1.381 . S
C15 H37 0.931 . S
C16 C15 1.381 . S
C16 C17 1.321 . S
C17 C16 1.321 . S
C17 C18 1.403 . S
C17 H38 0.934 . S
C18 C13 1.413 . S
C18 C17 1.403 . S
C18 H39 0.930 . S
C19 O30 1.275 . S
C19 O31 1.256 . S
O20 Ho0 2.322 . S
O20 C2 1.259 . S
O21 Ho1 2.346 . S
O21 C2 1.268 . S
O22 Ho0 2.378 . S
O22 C3 1.215 . S
O23 Ho0 2.524 . S
O23 C3 1.289 . S
O24 Ho0 2.381 . S
O24 C10 1.275 . S
O25 Ho0 2.669 . S
O25 Ho1 2.305 . S
O25 C10 1.256 . S
O26 Ho1 2.322 . S
O26 C11 1.259 . S
O27 Ho0 2.346 . S
O27 C11 1.268 . S
O28 Ho1 2.378 . S
O28 C12 1.215 . S
O29 Ho1 2.524 . S
O29 C12 1.289 . S
O30 Ho1 2.381 . S
O30 C19 1.275 . S
O31 Ho0 2.305 . S
O31 Ho1 2.669 . S
O31 C19 1.256 . S
H32 C5 0.930 . S
H33 C6 0.931 . S
H34 C8 0.934 . S
H35 C9 0.930 . S
H36 C14 0.930 . S
H37 C15 0.931 . S
H38 C17 0.934 . S
H39 C18 0.930 . S
Ho40 C43 2.811 . S
Ho40 O60 2.322 . S
Ho40 O62 2.378 . S
Ho40 O63 2.524 . S
Ho40 O64 2.381 . S
Ho40 O65 2.669 . S
Ho40 O67 2.346 . S
Ho40 O71 2.305 . S
Ho41 C52 2.811 . S
Ho41 O61 2.346 . S
Ho41 O65 2.305 . S
Ho41 O66 2.322 . S
Ho41 O68 2.378 . S
Ho41 O69 2.524 . S
Ho41 O70 2.381 . S
Ho41 O71 2.669 . S
C42 O60 1.259 . S
C42 O61 1.268 . S
C43 Ho40 2.811 . S
C43 C44 1.488 . S
C43 O62 1.215 . S
C43 O63 1.289 . S
C44 C43 1.488 . S
C44 C45 1.348 . S
C44 C49 1.413 . S
C45 C44 1.348 . S
C45 C46 1.442 . S
C45 H72 0.930 . S
C46 C45 1.442 . S
C46 C47 1.381 . S
C46 H73 0.931 . S
C47 C46 1.381 . S
C47 C48 1.321 . S
C48 C47 1.321 . S
C48 C49 1.403 . S
C48 H74 0.934 . S
C49 C44 1.413 . S
C49 C48 1.403 . S
C49 H75 0.930 . S
C50 O64 1.275 . S
C50 O65 1.256 . S
C51 O66 1.259 . S
C51 O67 1.268 . S
C52 Ho41 2.811 . S
C52 C53 1.488 . S
C52 O68 1.215 . S
C52 O69 1.289 . S
C53 C52 1.488 . S
C53 C54 1.348 . S
C53 C58 1.413 . S
C54 C53 1.348 . S
C54 C55 1.442 . S
C54 H76 0.930 . S
C55 C54 1.442 . S
C55 C56 1.381 . S
C55 H77 0.931 . S
C56 C55 1.381 . S
C56 C57 1.321 . S
C57 C56 1.321 . S
C57 C58 1.403 . S
C57 H78 0.934 . S
C58 C53 1.413 . S
C58 C57 1.403 . S
C58 H79 0.930 . S
C59 O70 1.275 . S
C59 O71 1.256 . S
O60 Ho40 2.322 . S
O60 C42 1.259 . S
O61 Ho41 2.346 . S
O61 C42 1.268 . S
O62 Ho40 2.378 . S
O62 C43 1.215 . S
O63 Ho40 2.524 . S
O63 C43 1.289 . S
O64 Ho40 2.381 . S
O64 C50 1.275 . S
O65 Ho40 2.669 . S
O65 Ho41 2.305 . S
O65 C50 1.256 . S
O66 Ho41 2.322 . S
O66 C51 1.259 . S
O67 Ho40 2.346 . S
O67 C51 1.268 . S
O68 Ho41 2.378 . S
O68 C52 1.215 . S
O69 Ho41 2.524 . S
O69 C52 1.289 . S
O70 Ho41 2.381 . S
O70 C59 1.275 . S
O71 Ho40 2.305 . S
O71 Ho41 2.669 . S
O71 C59 1.256 . S
H72 C45 0.930 . S
H73 C46 0.931 . S
H74 C48 0.934 . S
H75 C49 0.930 . S
H76 C54 0.930 . S
H77 C55 0.931 . S
H78 C57 0.934 . S
H79 C58 0.930 . S
Ho80 C83 2.811 . S
Ho80 O100 2.322 . S
Ho80 O102 2.378 . S
Ho80 O103 2.524 . S
Ho80 O104 2.381 . S
Ho80 O105 2.669 . S
Ho80 O107 2.346 . S
Ho80 O111 2.305 . S
Ho81 C92 2.811 . S
Ho81 O101 2.346 . S
Ho81 O105 2.305 . S
Ho81 O106 2.322 . S
Ho81 O108 2.378 . S
Ho81 O109 2.524 . S
Ho81 O110 2.381 . S
Ho81 O111 2.669 . S
C82 O100 1.259 . S
C82 O101 1.268 . S
C83 Ho80 2.811 . S
C83 C84 1.488 . S
C83 O102 1.215 . S
C83 O103 1.289 . S
C84 C83 1.488 . S
C84 C85 1.348 . S
C84 C89 1.413 . S
C85 C84 1.348 . S
C85 C86 1.442 . S
C85 H112 0.930 . S
C86 C85 1.442 . S
C86 C87 1.381 . S
C86 H113 0.931 . S
C87 C86 1.381 . S
C87 C88 1.321 . S
C88 C87 1.321 . S
C88 C89 1.403 . S
C88 H114 0.934 . S
C89 C84 1.413 . S
C89 C88 1.403 . S
C89 H115 0.930 . S
C90 O104 1.275 . S
C90 O105 1.256 . S
C91 O106 1.259 . S
C91 O107 1.268 . S
C92 Ho81 2.811 . S
C92 C93 1.488 . S
C92 O108 1.215 . S
C92 O109 1.289 . S
C93 C92 1.488 . S
C93 C94 1.348 . S
C93 C98 1.413 . S
C94 C93 1.348 . S
C94 C95 1.442 . S
C94 H116 0.930 . S
C95 C94 1.442 . S
C95 C96 1.381 . S
C95 H117 0.931 . S
C96 C95 1.381 . S
C96 C97 1.321 . S
C97 C96 1.321 . S
C97 C98 1.403 . S
C97 H118 0.934 . S
C98 C93 1.413 . S
C98 C97 1.403 . S
C98 H119 0.930 . S
C99 O110 1.275 . S
C99 O111 1.256 . S
O100 Ho80 2.322 . S
O100 C82 1.259 . S
O101 Ho81 2.346 . S
O101 C82 1.268 . S
O102 Ho80 2.378 . S
O102 C83 1.215 . S
O103 Ho80 2.524 . S
O103 C83 1.289 . S
O104 Ho80 2.381 . S
O104 C90 1.275 . S
O105 Ho80 2.669 . S
O105 Ho81 2.305 . S
O105 C90 1.256 . S
O106 Ho81 2.322 . S
O106 C91 1.259 . S
O107 Ho80 2.346 . S
O107 C91 1.268 . S
O108 Ho81 2.378 . S
O108 C92 1.215 . S
O109 Ho81 2.524 . S
O109 C92 1.289 . S
O110 Ho81 2.381 . S
O110 C99 1.275 . S
O111 Ho80 2.305 . S
O111 Ho81 2.669 . S
O111 C99 1.256 . S
H112 C85 0.930 . S
H113 C86 0.931 . S
H114 C88 0.934 . S
H115 C89 0.930 . S
H116 C94 0.930 . S
H117 C95 0.931 . S
H118 C97 0.934 . S
H119 C98 0.930 . S
Ho120 C123 2.773 1_554 S
Ho120 O140 2.322 . S
Ho120 O142 2.378 . S
Ho120 O143 2.524 1_554 S
Ho120 O144 2.381 . S
Ho120 O145 2.669 . S
Ho120 O147 2.346 . S
Ho120 O151 2.305 . S
Ho121 C132 2.811 . S
Ho121 O141 2.346 . S
Ho121 O145 2.305 . S
Ho121 O146 2.322 . S
Ho121 O148 2.378 . S
Ho121 O149 2.524 . S
Ho121 O150 2.381 . S
Ho121 O151 2.669 . S
C122 O140 1.259 1_556 S
C122 O141 1.268 1_556 S
C123 Ho120 2.773 1_556 S
C123 C124 1.526 . S
C123 O142 1.174 1_556 S
C123 O143 1.296 . S
C124 C123 1.526 . S
C124 C125 1.348 . S
C124 C129 1.413 . S
C125 C124 1.348 . S
C125 C126 1.442 . S
C125 H152 0.930 . S
C126 C125 1.442 . S
C126 C127 1.381 . S
C126 H153 0.931 . S
C127 C126 1.381 . S
C127 C128 1.321 . S
C128 C127 1.321 . S
C128 C129 1.403 . S
C128 H154 0.934 . S
C129 C124 1.413 . S
C129 C128 1.403 . S
C129 H155 0.930 . S
C130 O144 1.275 . S
C130 O145 1.256 . S
C131 O146 1.259 . S
C131 O147 1.268 . S
C132 Ho121 2.811 . S
C132 C133 1.488 . S
C132 O148 1.215 . S
C132 O149 1.289 . S
C133 C132 1.488 . S
C133 C134 1.348 . S
C133 C138 1.413 . S
C134 C133 1.348 . S
C134 C135 1.442 . S
C134 H156 0.930 . S
C135 C134 1.442 . S
C135 C136 1.381 . S
C135 H157 0.931 . S
C136 C135 1.381 . S
C136 C137 1.321 . S
C137 C136 1.321 . S
C137 C138 1.403 . S
C137 H158 0.934 . S
C138 C133 1.413 . S
C138 C137 1.403 . S
C138 H159 0.930 . S
C139 O150 1.275 . S
C139 O151 1.256 . S
O140 Ho120 2.322 . S
O140 C122 1.259 1_554 S
O141 Ho121 2.346 . S
O141 C122 1.268 1_554 S
O142 Ho120 2.378 . S
O142 C123 1.174 1_554 S
O143 Ho120 2.524 1_556 S
O143 C123 1.296 . S
O144 Ho120 2.381 . S
O144 C130 1.275 . S
O145 Ho120 2.669 . S
O145 Ho121 2.305 . S
O145 C130 1.256 . S
O146 Ho121 2.322 . S
O146 C131 1.259 . S
O147 Ho120 2.346 . S
O147 C131 1.268 . S
O148 Ho121 2.378 . S
O148 C132 1.215 . S
O149 Ho121 2.524 . S
O149 C132 1.289 . S
O150 Ho121 2.381 . S
O150 C139 1.275 . S
O151 Ho120 2.305 . S
O151 Ho121 2.669 . S
O151 C139 1.256 . S
H152 C125 0.930 . S
H153 C126 0.931 . S
H154 C128 0.934 . S
H155 C129 0.930 . S
H156 C134 0.930 . S
H157 C135 0.931 . S
H158 C137 0.934 . S
H159 C138 0.930 . S
Ho160 C163 2.811 . S
Ho160 O180 2.322 . S
Ho160 O182 2.378 . S
Ho160 O183 2.524 . S
Ho160 O184 2.381 . S
Ho160 O185 2.669 . S
Ho160 O187 2.346 . S
Ho160 O191 2.305 . S
Ho161 C172 2.811 . S
Ho161 O181 2.346 . S
Ho161 O185 2.305 . S
Ho161 O186 2.322 . S
Ho161 O188 2.378 . S
Ho161 O189 2.524 . S
Ho161 O190 2.381 . S
Ho161 O191 2.669 . S
C162 O180 1.259 . S
C162 O181 1.268 . S
C163 Ho160 2.811 . S
C163 C164 1.488 . S
C163 O182 1.215 . S
C163 O183 1.289 . S
C164 C163 1.488 . S
C164 C165 1.348 . S
C164 C169 1.413 . S
C165 C164 1.348 . S
C165 C166 1.442 . S
C165 H192 0.930 . S
C166 C165 1.442 . S
C166 C167 1.381 . S
C166 H193 0.931 . S
C167 C166 1.381 . S
C167 C168 1.321 . S
C168 C167 1.321 . S
C168 C169 1.403 . S
C168 H194 0.934 . S
C169 C164 1.413 . S
C169 C168 1.403 . S
C169 H195 0.930 . S
C170 O184 1.275 . S
C170 O185 1.256 . S
C171 O186 1.259 . S
C171 O187 1.268 . S
C172 Ho161 2.811 . S
C172 C173 1.488 . S
C172 O188 1.215 . S
C172 O189 1.289 . S
C173 C172 1.488 . S
C173 C174 1.348 . S
C173 C178 1.413 . S
C174 C173 1.348 . S
C174 C175 1.442 . S
C174 H196 0.930 . S
C175 C174 1.442 . S
C175 C176 1.381 . S
C175 H197 0.931 . S
C176 C175 1.381 . S
C176 C177 1.321 . S
C177 C176 1.321 . S
C177 C178 1.403 . S
C177 H198 0.934 . S
C178 C173 1.413 . S
C178 C177 1.403 . S
C178 H199 0.930 . S
C179 O190 1.275 . S
C179 O191 1.256 . S
O180 Ho160 2.322 . S
O180 C162 1.259 . S
O181 Ho161 2.346 . S
O181 C162 1.268 . S
O182 Ho160 2.378 . S
O182 C163 1.215 . S
O183 Ho160 2.524 . S
O183 C163 1.289 . S
O184 Ho160 2.381 . S
O184 C170 1.275 . S
O185 Ho160 2.669 . S
O185 Ho161 2.305 . S
O185 C170 1.256 . S
O186 Ho161 2.322 . S
O186 C171 1.259 . S
O187 Ho160 2.346 . S
O187 C171 1.268 . S
O188 Ho161 2.378 . S
O188 C172 1.215 . S
O189 Ho161 2.524 . S
O189 C172 1.289 . S
O190 Ho161 2.381 . S
O190 C179 1.275 . S
O191 Ho160 2.305 . S
O191 Ho161 2.669 . S
O191 C179 1.256 . S
H192 C165 0.930 . S
H193 C166 0.931 . S
H194 C168 0.934 . S
H195 C169 0.930 . S
H196 C174 0.930 . S
H197 C175 0.931 . S
H198 C177 0.934 . S
H199 C178 0.930 . S
Ho200 C203 2.811 . S
Ho200 O220 2.322 . S
Ho200 O222 2.378 . S
Ho200 O223 2.524 . S
Ho200 O224 2.381 . S
Ho200 O225 2.669 . S
Ho200 O227 2.346 . S
Ho200 O231 2.305 . S
Ho201 C212 2.811 . S
Ho201 O221 2.346 . S
Ho201 O225 2.305 . S
Ho201 O226 2.322 . S
Ho201 O228 2.378 . S
Ho201 O229 2.524 . S
Ho201 O230 2.381 . S
Ho201 O231 2.669 . S
C202 O220 1.259 . S
C202 O221 1.268 . S
C203 Ho200 2.811 . S
C203 C204 1.488 . S
C203 O222 1.215 . S
C203 O223 1.289 . S
C204 C203 1.488 . S
C204 C205 1.348 . S
C204 C209 1.413 . S
C205 C204 1.348 . S
C205 C206 1.442 . S
C205 H232 0.930 . S
C206 C205 1.442 . S
C206 C207 1.381 . S
C206 H233 0.931 . S
C207 C206 1.381 . S
C207 C208 1.321 . S
C208 C207 1.321 . S
C208 C209 1.403 . S
C208 H234 0.934 . S
C209 C204 1.413 . S
C209 C208 1.403 . S
C209 H235 0.930 . S
C210 O224 1.275 . S
C210 O225 1.256 . S
C211 O226 1.259 . S
C211 O227 1.268 . S
C212 Ho201 2.811 . S
C212 C213 1.488 . S
C212 O228 1.215 . S
C212 O229 1.289 . S
C213 C212 1.488 . S
C213 C214 1.348 . S
C213 C218 1.413 . S
C214 C213 1.348 . S
C214 C215 1.442 . S
C214 H236 0.930 . S
C215 C214 1.442 . S
C215 C216 1.381 . S
C215 H237 0.931 . S
C216 C215 1.381 . S
C216 C217 1.321 . S
C217 C216 1.321 . S
C217 C218 1.403 . S
C217 H238 0.934 . S
C218 C213 1.413 . S
C218 C217 1.403 . S
C218 H239 0.930 . S
C219 O230 1.275 . S
C219 O231 1.256 . S
O220 Ho200 2.322 . S
O220 C202 1.259 . S
O221 Ho201 2.346 . S
O221 C202 1.268 . S
O222 Ho200 2.378 . S
O222 C203 1.215 . S
O223 Ho200 2.524 . S
O223 C203 1.289 . S
O224 Ho200 2.381 . S
O224 C210 1.275 . S
O225 Ho200 2.669 . S
O225 Ho201 2.305 . S
O225 C210 1.256 . S
O226 Ho201 2.322 . S
O226 C211 1.259 . S
O227 Ho200 2.346 . S
O227 C211 1.268 . S
O228 Ho201 2.378 . S
O228 C212 1.215 . S
O229 Ho201 2.524 . S
O229 C212 1.289 . S
O230 Ho201 2.381 . S
O230 C219 1.275 . S
O231 Ho200 2.305 . S
O231 Ho201 2.669 . S
O231 C219 1.256 . S
H232 C205 0.930 . S
H233 C206 0.931 . S
H234 C208 0.934 . S
H235 C209 0.930 . S
H236 C214 0.930 . S
H237 C215 0.931 . S
H238 C217 0.934 . S
H239 C218 0.930 . S
Ho240 C243 2.811 . S
Ho240 O260 2.322 . S
Ho240 O262 2.378 . S
Ho240 O263 2.524 . S
Ho240 O264 2.381 . S
Ho240 O265 2.669 . S
Ho240 O267 2.346 . S
Ho240 O271 2.305 . S
Ho241 C252 2.811 . S
Ho241 O261 2.346 . S
Ho241 O265 2.305 . S
Ho241 O266 2.322 . S
Ho241 O268 2.378 . S
Ho241 O269 2.524 . S
Ho241 O270 2.381 . S
Ho241 O271 2.669 . S
C242 O260 1.259 . S
C242 O261 1.268 . S
C243 Ho240 2.811 . S
C243 C244 1.488 . S
C243 O262 1.215 . S
C243 O263 1.289 . S
C244 C243 1.488 . S
C244 C245 1.348 . S
C244 C249 1.413 . S
C245 C244 1.348 . S
C245 C246 1.442 . S
C245 H272 0.930 . S
C246 C245 1.442 . S
C246 C247 1.381 . S
C246 H273 0.931 . S
C247 C246 1.381 . S
C247 C248 1.321 . S
C248 C247 1.321 . S
C248 C249 1.403 . S
C248 H274 0.934 . S
C249 C244 1.413 . S
C249 C248 1.403 . S
C249 H275 0.930 . S
C250 O264 1.275 . S
C250 O265 1.256 . S
C251 O266 1.259 . S
C251 O267 1.268 . S
C252 Ho241 2.811 . S
C252 C253 1.488 . S
C252 O268 1.215 . S
C252 O269 1.289 . S
C253 C252 1.488 . S
C253 C254 1.348 . S
C253 C258 1.413 . S
C254 C253 1.348 . S
C254 C255 1.442 . S
C254 H276 0.930 . S
C255 C254 1.442 . S
C255 C256 1.381 . S
C255 H277 0.931 . S
C256 C255 1.381 . S
C256 C257 1.321 . S
C257 C256 1.321 . S
C257 C258 1.403 . S
C257 H278 0.934 . S
C258 C253 1.413 . S
C258 C257 1.403 . S
C258 H279 0.930 . S
C259 O270 1.275 . S
C259 O271 1.256 . S
O260 Ho240 2.322 . S
O260 C242 1.259 . S
O261 Ho241 2.346 . S
O261 C242 1.268 . S
O262 Ho240 2.378 . S
O262 C243 1.215 . S
O263 Ho240 2.524 . S
O263 C243 1.289 . S
O264 Ho240 2.381 . S
O264 C250 1.275 . S
O265 Ho240 2.669 . S
O265 Ho241 2.305 . S
O265 C250 1.256 . S
O266 Ho241 2.322 . S
O266 C251 1.259 . S
O267 Ho240 2.346 . S
O267 C251 1.268 . S
O268 Ho241 2.378 . S
O268 C252 1.215 . S
O269 Ho241 2.524 . S
O269 C252 1.289 . S
O270 Ho241 2.381 . S
O270 C259 1.275 . S
O271 Ho240 2.305 . S
O271 Ho241 2.669 . S
O271 C259 1.256 . S
H272 C245 0.930 . S
H273 C246 0.931 . S
H274 C248 0.934 . S
H275 C249 0.930 . S
H276 C254 0.930 . S
H277 C255 0.931 . S
H278 C257 0.934 . S
H279 C258 0.930 . S
Ho280 C283 2.773 1_556 S
Ho280 O300 2.322 . S
Ho280 O302 2.378 . S
Ho280 O303 2.524 1_556 S
Ho280 O304 2.381 . S
Ho280 O305 2.669 . S
Ho280 O307 2.346 . S
Ho280 O311 2.305 . S
Ho281 C292 2.811 . S
Ho281 O301 2.346 . S
Ho281 O305 2.305 . S
Ho281 O306 2.322 . S
Ho281 O308 2.378 . S
Ho281 O309 2.524 . S
Ho281 O310 2.381 . S
Ho281 O311 2.669 . S
C282 O300 1.259 1_554 S
C282 O301 1.268 1_554 S
C283 Ho280 2.773 1_554 S
C283 C284 1.526 . S
C283 O302 1.174 1_554 S
C283 O303 1.296 . S
C284 C283 1.526 . S
C284 C285 1.348 . S
C284 C289 1.413 . S
C285 C284 1.348 . S
C285 C286 1.442 . S
C285 H312 0.930 . S
C286 C285 1.442 . S
C286 C287 1.381 . S
C286 H313 0.931 . S
C287 C286 1.381 . S
C287 C288 1.321 . S
C288 C287 1.321 . S
C288 C289 1.403 . S
C288 H314 0.934 . S
C289 C284 1.413 . S
C289 C288 1.403 . S
C289 H315 0.930 . S
C290 O304 1.275 . S
C290 O305 1.256 . S
C291 O306 1.259 . S
C291 O307 1.268 . S
C292 Ho281 2.811 . S
C292 C293 1.488 . S
C292 O308 1.215 . S
C292 O309 1.289 . S
C293 C292 1.488 . S
C293 C294 1.348 . S
C293 C298 1.413 . S
C294 C293 1.348 . S
C294 C295 1.442 . S
C294 H316 0.930 . S
C295 C294 1.442 . S
C295 C296 1.381 . S
C295 H317 0.931 . S
C296 C295 1.381 . S
C296 C297 1.321 . S
C297 C296 1.321 . S
C297 C298 1.403 . S
C297 H318 0.934 . S
C298 C293 1.413 . S
C298 C297 1.403 . S
C298 H319 0.930 . S
C299 O310 1.275 . S
C299 O311 1.256 . S
O300 Ho280 2.322 . S
O300 C282 1.259 1_556 S
O301 Ho281 2.346 . S
O301 C282 1.268 1_556 S
O302 Ho280 2.378 . S
O302 C283 1.174 1_556 S
O303 Ho280 2.524 1_554 S
O303 C283 1.296 . S
O304 Ho280 2.381 . S
O304 C290 1.275 . S
O305 Ho280 2.669 . S
O305 Ho281 2.305 . S
O305 C290 1.256 . S
O306 Ho281 2.322 . S
O306 C291 1.259 . S
O307 Ho280 2.346 . S
O307 C291 1.268 . S
O308 Ho281 2.378 . S
O308 C292 1.215 . S
O309 Ho281 2.524 . S
O309 C292 1.289 . S
O310 Ho281 2.381 . S
O310 C299 1.275 . S
O311 Ho280 2.305 . S
O311 Ho281 2.669 . S
O311 C299 1.256 . S
H312 C285 0.930 . S
H313 C286 0.931 . S
H314 C288 0.934 . S
H315 C289 0.930 . S
H316 C294 0.930 . S
H317 C295 0.931 . S
H318 C297 0.934 . S
H319 C298 0.930 . S
Ho320 C323 2.811 . S
Ho320 O340 2.322 . S
Ho320 O342 2.378 . S
Ho320 O343 2.524 . S
Ho320 O344 2.381 . S
Ho320 O345 2.669 . S
Ho320 O347 2.346 . S
Ho320 O351 2.305 . S
Ho321 C332 2.811 . S
Ho321 O341 2.346 . S
Ho321 O345 2.305 . S
Ho321 O346 2.322 . S
Ho321 O348 2.378 . S
Ho321 O349 2.524 . S
Ho321 O350 2.381 . S
Ho321 O351 2.669 . S
C322 O340 1.259 . S
C322 O341 1.268 . S
C323 Ho320 2.811 . S
C323 C324 1.488 . S
C323 O342 1.215 . S
C323 O343 1.289 . S
C324 C323 1.488 . S
C324 C325 1.348 . S
C324 C329 1.413 . S
C325 C324 1.348 . S
C325 C326 1.442 . S
C325 H352 0.930 . S
C326 C325 1.442 . S
C326 C327 1.381 . S
C326 H353 0.931 . S
C327 C326 1.381 . S
C327 C328 1.321 . S
C328 C327 1.321 . S
C328 C329 1.403 . S
C328 H354 0.934 . S
C329 C324 1.413 . S
C329 C328 1.403 . S
C329 H355 0.930 . S
C330 O344 1.275 . S
C330 O345 1.256 . S
C331 O346 1.259 . S
C331 O347 1.268 . S
C332 Ho321 2.811 . S
C332 C333 1.488 . S
C332 O348 1.215 . S
C332 O349 1.289 . S
C333 C332 1.488 . S
C333 C334 1.348 . S
C333 C338 1.413 . S
C334 C333 1.348 . S
C334 C335 1.442 . S
C334 H356 0.930 . S
C335 C334 1.442 . S
C335 C336 1.381 . S
C335 H357 0.931 . S
C336 C335 1.381 . S
C336 C337 1.321 . S
C337 C336 1.321 . S
C337 C338 1.403 . S
C337 H358 0.934 . S
C338 C333 1.413 . S
C338 C337 1.403 . S
C338 H359 0.930 . S
C339 O350 1.275 . S
C339 O351 1.256 . S
O340 Ho320 2.322 . S
O340 C322 1.259 . S
O341 Ho321 2.346 . S
O341 C322 1.268 . S
O342 Ho320 2.378 . S
O342 C323 1.215 . S
O343 Ho320 2.524 . S
O343 C323 1.289 . S
O344 Ho320 2.381 . S
O344 C330 1.275 . S
O345 Ho320 2.669 . S
O345 Ho321 2.305 . S
O345 C330 1.256 . S
O346 Ho321 2.322 . S
O346 C331 1.259 . S
O347 Ho320 2.346 . S
O347 C331 1.268 . S
O348 Ho321 2.378 . S
O348 C332 1.215 . S
O349 Ho321 2.524 . S
O349 C332 1.289 . S
O350 Ho321 2.381 . S
O350 C339 1.275 . S
O351 Ho320 2.305 . S
O351 Ho321 2.669 . S
O351 C339 1.256 . S
H352 C325 0.930 . S
H353 C326 0.931 . S
H354 C328 0.934 . S
H355 C329 0.930 . S
H356 C334 0.930 . S
H357 C335 0.931 . S
H358 C337 0.934 . S
H359 C338 0.930 . S
Ho360 C363 2.811 . S
Ho360 O380 2.322 . S
Ho360 O382 2.378 . S
Ho360 O383 2.524 . S
Ho360 O384 2.381 . S
Ho360 O385 2.669 . S
Ho360 O387 2.346 . S
Ho360 O391 2.305 . S
Ho361 C372 2.811 . S
Ho361 O381 2.346 . S
Ho361 O385 2.305 . S
Ho361 O386 2.322 . S
Ho361 O388 2.378 . S
Ho361 O389 2.524 . S
Ho361 O390 2.381 . S
Ho361 O391 2.669 . S
C362 O380 1.259 . S
C362 O381 1.268 . S
C363 Ho360 2.811 . S
C363 C364 1.488 . S
C363 O382 1.215 . S
C363 O383 1.289 . S
C364 C363 1.488 . S
C364 C365 1.348 . S
C364 C369 1.413 . S
C365 C364 1.348 . S
C365 C366 1.442 . S
C365 H392 0.930 . S
C366 C365 1.442 . S
C366 C367 1.381 . S
C366 H393 0.931 . S
C367 C366 1.381 . S
C367 C368 1.321 . S
C368 C367 1.321 . S
C368 C369 1.403 . S
C368 H394 0.934 . S
C369 C364 1.413 . S
C369 C368 1.403 . S
C369 H395 0.930 . S
C370 O384 1.275 . S
C370 O385 1.256 . S
C371 O386 1.259 . S
C371 O387 1.268 . S
C372 Ho361 2.811 . S
C372 C373 1.488 . S
C372 O388 1.215 . S
C372 O389 1.289 . S
C373 C372 1.488 . S
C373 C374 1.348 . S
C373 C378 1.413 . S
C374 C373 1.348 . S
C374 C375 1.442 . S
C374 H396 0.930 . S
C375 C374 1.442 . S
C375 C376 1.381 . S
C375 H397 0.931 . S
C376 C375 1.381 . S
C376 C377 1.321 . S
C377 C376 1.321 . S
C377 C378 1.403 . S
C377 H398 0.934 . S
C378 C373 1.413 . S
C378 C377 1.403 . S
C378 H399 0.930 . S
C379 O390 1.275 . S
C379 O391 1.256 . S
O380 Ho360 2.322 . S
O380 C362 1.259 . S
O381 Ho361 2.346 . S
O381 C362 1.268 . S
O382 Ho360 2.378 . S
O382 C363 1.215 . S
O383 Ho360 2.524 . S
O383 C363 1.289 . S
O384 Ho360 2.381 . S
O384 C370 1.275 . S
O385 Ho360 2.669 . S
O385 Ho361 2.305 . S
O385 C370 1.256 . S
O386 Ho361 2.322 . S
O386 C371 1.259 . S
O387 Ho360 2.346 . S
O387 C371 1.268 . S
O388 Ho361 2.378 . S
O388 C372 1.215 . S
O389 Ho361 2.524 . S
O389 C372 1.289 . S
O390 Ho361 2.381 . S
O390 C379 1.275 . S
O391 Ho360 2.305 . S
O391 Ho361 2.669 . S
O391 C379 1.256 . S
H392 C365 0.930 . S
H393 C366 0.931 . S
H394 C368 0.934 . S
H395 C369 0.930 . S
H396 C374 0.930 . S
H397 C375 0.931 . S
H398 C377 0.934 . S
H399 C378 0.930 . S
Ho400 C403 2.811 . S
Ho400 O420 2.322 . S
Ho400 O422 2.378 . S
Ho400 O423 2.524 . S
Ho400 O424 2.381 . S
Ho400 O425 2.669 . S
Ho400 O427 2.346 . S
Ho400 O431 2.305 . S
Ho401 C412 2.811 . S
Ho401 O421 2.346 . S
Ho401 O425 2.305 . S
Ho401 O426 2.322 . S
Ho401 O428 2.378 . S
Ho401 O429 2.524 . S
Ho401 O430 2.381 . S
Ho401 O431 2.669 . S
C402 O420 1.259 . S
C402 O421 1.268 . S
C403 Ho400 2.811 . S
C403 C404 1.488 . S
C403 O422 1.215 . S
C403 O423 1.289 . S
C404 C403 1.488 . S
C404 C405 1.348 . S
C404 C409 1.413 . S
C405 C404 1.348 . S
C405 C406 1.442 . S
C405 H432 0.930 . S
C406 C405 1.442 . S
C406 C407 1.381 . S
C406 H433 0.931 . S
C407 C406 1.381 . S
C407 C408 1.321 . S
C408 C407 1.321 . S
C408 C409 1.403 . S
C408 H434 0.934 . S
C409 C404 1.413 . S
C409 C408 1.403 . S
C409 H435 0.930 . S
C410 O424 1.275 . S
C410 O425 1.256 . S
C411 O426 1.259 . S
C411 O427 1.268 . S
C412 Ho401 2.811 . S
C412 C413 1.488 . S
C412 O428 1.215 . S
C412 O429 1.289 . S
C413 C412 1.488 . S
C413 C414 1.348 . S
C413 C418 1.413 . S
C414 C413 1.348 . S
C414 C415 1.442 . S
C414 H436 0.930 . S
C415 C414 1.442 . S
C415 C416 1.381 . S
C415 H437 0.931 . S
C416 C415 1.381 . S
C416 C417 1.321 . S
C417 C416 1.321 . S
C417 C418 1.403 . S
C417 H438 0.934 . S
C418 C413 1.413 . S
C418 C417 1.403 . S
C418 H439 0.930 . S
C419 O430 1.275 . S
C419 O431 1.256 . S
O420 Ho400 2.322 . S
O420 C402 1.259 . S
O421 Ho401 2.346 . S
O421 C402 1.268 . S
O422 Ho400 2.378 . S
O422 C403 1.215 . S
O423 Ho400 2.524 . S
O423 C403 1.289 . S
O424 Ho400 2.381 . S
O424 C410 1.275 . S
O425 Ho400 2.669 . S
O425 Ho401 2.305 . S
O425 C410 1.256 . S
O426 Ho401 2.322 . S
O426 C411 1.259 . S
O427 Ho400 2.346 . S
O427 C411 1.268 . S
O428 Ho401 2.378 . S
O428 C412 1.215 . S
O429 Ho401 2.524 . S
O429 C412 1.289 . S
O430 Ho401 2.381 . S
O430 C419 1.275 . S
O431 Ho400 2.305 . S
O431 Ho401 2.669 . S
O431 C419 1.256 . S
H432 C405 0.930 . S
H433 C406 0.931 . S
H434 C408 0.934 . S
H435 C409 0.930 . S
H436 C414 0.930 . S
H437 C415 0.931 . S
H438 C417 0.934 . S
H439 C418 0.930 . S
Ho440 C443 2.811 . S
Ho440 O460 2.322 . S
Ho440 O462 2.378 . S
Ho440 O463 2.524 . S
Ho440 O464 2.381 . S
Ho440 O465 2.669 . S
Ho440 O467 2.346 . S
Ho440 O471 2.305 . S
Ho441 C452 2.773 1_556 S
Ho441 O461 2.346 . S
Ho441 O465 2.305 . S
Ho441 O466 2.322 . S
Ho441 O468 2.378 . S
Ho441 O469 2.524 1_556 S
Ho441 O470 2.381 . S
Ho441 O471 2.669 . S
C442 O460 1.259 . S
C442 O461 1.268 . S
C443 Ho440 2.811 . S
C443 C444 1.488 . S
C443 O462 1.215 . S
C443 O463 1.289 . S
C444 C443 1.488 . S
C444 C445 1.348 . S
C444 C449 1.413 . S
C445 C444 1.348 . S
C445 C446 1.442 . S
C445 H472 0.930 . S
C446 C445 1.442 . S
C446 C447 1.381 . S
C446 H473 0.931 . S
C447 C446 1.381 . S
C447 C448 1.321 . S
C448 C447 1.321 . S
C448 C449 1.403 . S
C448 H474 0.934 . S
C449 C444 1.413 . S
C449 C448 1.403 . S
C449 H475 0.930 . S
C450 O464 1.275 . S
C450 O465 1.256 . S
C451 O466 1.259 1_554 S
C451 O467 1.268 1_554 S
C452 Ho441 2.773 1_554 S
C452 C453 1.526 . S
C452 O468 1.174 1_554 S
C452 O469 1.296 . S
C453 C452 1.526 . S
C453 C454 1.348 . S
C453 C458 1.413 . S
C454 C453 1.348 . S
C454 C455 1.442 . S
C454 H476 0.930 . S
C455 C454 1.442 . S
C455 C456 1.381 . S
C455 H477 0.931 . S
C456 C455 1.381 . S
C456 C457 1.321 . S
C457 C456 1.321 . S
C457 C458 1.403 . S
C457 H478 0.934 . S
C458 C453 1.413 . S
C458 C457 1.403 . S
C458 H479 0.930 . S
C459 O470 1.275 . S
C459 O471 1.256 . S
O460 Ho440 2.322 . S
O460 C442 1.259 . S
O461 Ho441 2.346 . S
O461 C442 1.268 . S
O462 Ho440 2.378 . S
O462 C443 1.215 . S
O463 Ho440 2.524 . S
O463 C443 1.289 . S
O464 Ho440 2.381 . S
O464 C450 1.275 . S
O465 Ho440 2.669 . S
O465 Ho441 2.305 . S
O465 C450 1.256 . S
O466 Ho441 2.322 . S
O466 C451 1.259 1_556 S
O467 Ho440 2.346 . S
O467 C451 1.268 1_556 S
O468 Ho441 2.378 . S
O468 C452 1.174 1_556 S
O469 Ho441 2.524 1_554 S
O469 C452 1.296 . S
O470 Ho441 2.381 . S
O470 C459 1.275 . S
O471 Ho440 2.305 . S
O471 Ho441 2.669 . S
O471 C459 1.256 . S
H472 C445 0.930 . S
H473 C446 0.931 . S
H474 C448 0.934 . S
H475 C449 0.930 . S
H476 C454 0.930 . S
H477 C455 0.931 . S
H478 C457 0.934 . S
H479 C458 0.930 . S
Ho480 C483 2.811 . S
Ho480 O500 2.322 . S
Ho480 O502 2.378 . S
Ho480 O503 2.524 . S
Ho480 O504 2.381 . S
Ho480 O505 2.669 . S
Ho480 O507 2.346 . S
Ho480 O511 2.305 . S
Ho481 C492 2.811 . S
Ho481 O501 2.346 . S
Ho481 O505 2.305 . S
Ho481 O506 2.322 . S
Ho481 O508 2.378 . S
Ho481 O509 2.524 . S
Ho481 O510 2.381 . S
Ho481 O511 2.669 . S
C482 O500 1.259 . S
C482 O501 1.268 . S
C483 Ho480 2.811 . S
C483 C484 1.488 . S
C483 O502 1.215 . S
C483 O503 1.289 . S
C484 C483 1.488 . S
C484 C485 1.348 . S
C484 C489 1.413 . S
C485 C484 1.348 . S
C485 C486 1.442 . S
C485 H512 0.930 . S
C486 C485 1.442 . S
C486 C487 1.381 . S
C486 H513 0.931 . S
C487 C486 1.381 . S
C487 C488 1.321 . S
C488 C487 1.321 . S
C488 C489 1.403 . S
C488 H514 0.934 . S
C489 C484 1.413 . S
C489 C488 1.403 . S
C489 H515 0.930 . S
C490 O504 1.275 . S
C490 O505 1.256 . S
C491 O506 1.259 . S
C491 O507 1.268 . S
C492 Ho481 2.811 . S
C492 C493 1.488 . S
C492 O508 1.215 . S
C492 O509 1.289 . S
C493 C492 1.488 . S
C493 C494 1.348 . S
C493 C498 1.413 . S
C494 C493 1.348 . S
C494 C495 1.442 . S
C494 H516 0.930 . S
C495 C494 1.442 . S
C495 C496 1.381 . S
C495 H517 0.931 . S
C496 C495 1.381 . S
C496 C497 1.321 . S
C497 C496 1.321 . S
C497 C498 1.403 . S
C497 H518 0.934 . S
C498 C493 1.413 . S
C498 C497 1.403 . S
C498 H519 0.930 . S
C499 O510 1.275 . S
C499 O511 1.256 . S
O500 Ho480 2.322 . S
O500 C482 1.259 . S
O501 Ho481 2.346 . S
O501 C482 1.268 . S
O502 Ho480 2.378 . S
O502 C483 1.215 . S
O503 Ho480 2.524 . S
O503 C483 1.289 . S
O504 Ho480 2.381 . S
O504 C490 1.275 . S
O505 Ho480 2.669 . S
O505 Ho481 2.305 . S
O505 C490 1.256 . S
O506 Ho481 2.322 . S
O506 C491 1.259 . S
O507 Ho480 2.346 . S
O507 C491 1.268 . S
O508 Ho481 2.378 . S
O508 C492 1.215 . S
O509 Ho481 2.524 . S
O509 C492 1.289 . S
O510 Ho481 2.381 . S
O510 C499 1.275 . S
O511 Ho480 2.305 . S
O511 Ho481 2.669 . S
O511 C499 1.256 . S
H512 C485 0.930 . S
H513 C486 0.931 . S
H514 C488 0.934 . S
H515 C489 0.930 . S
H516 C494 0.930 . S
H517 C495 0.931 . S
H518 C497 0.934 . S
H519 C498 0.930 . S
Ho520 C523 2.811 . S
Ho520 O540 2.322 . S
Ho520 O542 2.378 . S
Ho520 O543 2.524 . S
Ho520 O544 2.381 . S
Ho520 O545 2.669 . S
Ho520 O547 2.346 . S
Ho520 O551 2.305 . S
Ho521 C532 2.811 . S
Ho521 O541 2.346 . S
Ho521 O545 2.305 . S
Ho521 O546 2.322 . S
Ho521 O548 2.378 . S
Ho521 O549 2.524 . S
Ho521 O550 2.381 . S
Ho521 O551 2.669 . S
C522 O540 1.259 . S
C522 O541 1.268 . S
C523 Ho520 2.811 . S
C523 C524 1.488 . S
C523 O542 1.215 . S
C523 O543 1.289 . S
C524 C523 1.488 . S
C524 C525 1.348 . S
C524 C529 1.413 . S
C525 C524 1.348 . S
C525 C526 1.442 . S
C525 H552 0.930 . S
C526 C525 1.442 . S
C526 C527 1.381 . S
C526 H553 0.931 . S
C527 C526 1.381 . S
C527 C528 1.321 . S
C528 C527 1.321 . S
C528 C529 1.403 . S
C528 H554 0.934 . S
C529 C524 1.413 . S
C529 C528 1.403 . S
C529 H555 0.930 . S
C530 O544 1.275 . S
C530 O545 1.256 . S
C531 O546 1.259 . S
C531 O547 1.268 . S
C532 Ho521 2.811 . S
C532 C533 1.488 . S
C532 O548 1.215 . S
C532 O549 1.289 . S
C533 C532 1.488 . S
C533 C534 1.348 . S
C533 C538 1.413 . S
C534 C533 1.348 . S
C534 C535 1.442 . S
C534 H556 0.930 . S
C535 C534 1.442 . S
C535 C536 1.381 . S
C535 H557 0.931 . S
C536 C535 1.381 . S
C536 C537 1.321 . S
C537 C536 1.321 . S
C537 C538 1.403 . S
C537 H558 0.934 . S
C538 C533 1.413 . S
C538 C537 1.403 . S
C538 H559 0.930 . S
C539 O550 1.275 . S
C539 O551 1.256 . S
O540 Ho520 2.322 . S
O540 C522 1.259 . S
O541 Ho521 2.346 . S
O541 C522 1.268 . S
O542 Ho520 2.378 . S
O542 C523 1.215 . S
O543 Ho520 2.524 . S
O543 C523 1.289 . S
O544 Ho520 2.381 . S
O544 C530 1.275 . S
O545 Ho520 2.669 . S
O545 Ho521 2.305 . S
O545 C530 1.256 . S
O546 Ho521 2.322 . S
O546 C531 1.259 . S
O547 Ho520 2.346 . S
O547 C531 1.268 . S
O548 Ho521 2.378 . S
O548 C532 1.215 . S
O549 Ho521 2.524 . S
O549 C532 1.289 . S
O550 Ho521 2.381 . S
O550 C539 1.275 . S
O551 Ho520 2.305 . S
O551 Ho521 2.669 . S
O551 C539 1.256 . S
H552 C525 0.930 . S
H553 C526 0.931 . S
H554 C528 0.934 . S
H555 C529 0.930 . S
H556 C534 0.930 . S
H557 C535 0.931 . S
H558 C537 0.934 . S
H559 C538 0.930 . S
Ho560 C563 2.811 . S
Ho560 O580 2.322 . S
Ho560 O582 2.378 . S
Ho560 O583 2.524 . S
Ho560 O584 2.381 . S
Ho560 O585 2.669 . S
Ho560 O587 2.346 . S
Ho560 O591 2.305 . S
Ho561 C572 2.811 . S
Ho561 O581 2.346 . S
Ho561 O585 2.305 . S
Ho561 O586 2.322 . S
Ho561 O588 2.378 . S
Ho561 O589 2.524 . S
Ho561 O590 2.381 . S
Ho561 O591 2.669 . S
C562 O580 1.259 . S
C562 O581 1.268 . S
C563 Ho560 2.811 . S
C563 C564 1.488 . S
C563 O582 1.215 . S
C563 O583 1.289 . S
C564 C563 1.488 . S
C564 C565 1.348 . S
C564 C569 1.413 . S
C565 C564 1.348 . S
C565 C566 1.442 . S
C565 H592 0.930 . S
C566 C565 1.442 . S
C566 C567 1.381 . S
C566 H593 0.931 . S
C567 C566 1.381 . S
C567 C568 1.321 . S
C568 C567 1.321 . S
C568 C569 1.403 . S
C568 H594 0.934 . S
C569 C564 1.413 . S
C569 C568 1.403 . S
C569 H595 0.930 . S
C570 O584 1.275 . S
C570 O585 1.256 . S
C571 O586 1.259 . S
C571 O587 1.268 . S
C572 Ho561 2.811 . S
C572 C573 1.488 . S
C572 O588 1.215 . S
C572 O589 1.289 . S
C573 C572 1.488 . S
C573 C574 1.348 . S
C573 C578 1.413 . S
C574 C573 1.348 . S
C574 C575 1.442 . S
C574 H596 0.930 . S
C575 C574 1.442 . S
C575 C576 1.381 . S
C575 H597 0.931 . S
C576 C575 1.381 . S
C576 C577 1.321 . S
C577 C576 1.321 . S
C577 C578 1.403 . S
C577 H598 0.934 . S
C578 C573 1.413 . S
C578 C577 1.403 . S
C578 H599 0.930 . S
C579 O590 1.275 . S
C579 O591 1.256 . S
O580 Ho560 2.322 . S
O580 C562 1.259 . S
O581 Ho561 2.346 . S
O581 C562 1.268 . S
O582 Ho560 2.378 . S
O582 C563 1.215 . S
O583 Ho560 2.524 . S
O583 C563 1.289 . S
O584 Ho560 2.381 . S
O584 C570 1.275 . S
O585 Ho560 2.669 . S
O585 Ho561 2.305 . S
O585 C570 1.256 . S
O586 Ho561 2.322 . S
O586 C571 1.259 . S
O587 Ho560 2.346 . S
O587 C571 1.268 . S
O588 Ho561 2.378 . S
O588 C572 1.215 . S
O589 Ho561 2.524 . S
O589 C572 1.289 . S
O590 Ho561 2.381 . S
O590 C579 1.275 . S
O591 Ho560 2.305 . S
O591 Ho561 2.669 . S
O591 C579 1.256 . S
H592 C565 0.930 . S
H593 C566 0.931 . S
H594 C568 0.934 . S
H595 C569 0.930 . S
H596 C574 0.930 . S
H597 C575 0.931 . S
H598 C577 0.934 . S
H599 C578 0.930 . S
Ho600 C603 2.811 . S
Ho600 O620 2.322 . S
Ho600 O622 2.378 . S
Ho600 O623 2.524 . S
Ho600 O624 2.381 . S
Ho600 O625 2.669 . S
Ho600 O627 2.346 . S
Ho600 O631 2.305 . S
Ho601 C612 2.773 1_554 S
Ho601 O621 2.346 . S
Ho601 O625 2.305 . S
Ho601 O626 2.322 . S
Ho601 O628 2.378 . S
Ho601 O629 2.524 1_554 S
Ho601 O630 2.381 . S
Ho601 O631 2.669 . S
C602 O620 1.259 . S
C602 O621 1.268 . S
C603 Ho600 2.811 . S
C603 C604 1.488 . S
C603 O622 1.215 . S
C603 O623 1.289 . S
C604 C603 1.488 . S
C604 C605 1.348 . S
C604 C609 1.413 . S
C605 C604 1.348 . S
C605 C606 1.442 . S
C605 H632 0.930 . S
C606 C605 1.442 . S
C606 C607 1.381 . S
C606 H633 0.931 . S
C607 C606 1.381 . S
C607 C608 1.321 . S
C608 C607 1.321 . S
C608 C609 1.403 . S
C608 H634 0.934 . S
C609 C604 1.413 . S
C609 C608 1.403 . S
C609 H635 0.930 . S
C610 O624 1.275 . S
C610 O625 1.256 . S
C611 O626 1.259 1_556 S
C611 O627 1.268 1_556 S
C612 Ho601 2.773 1_556 S
C612 C613 1.526 . S
C612 O628 1.174 1_556 S
C612 O629 1.296 . S
C613 C612 1.526 . S
C613 C614 1.348 . S
C613 C618 1.413 . S
C614 C613 1.348 . S
C614 C615 1.442 . S
C614 H636 0.930 . S
C615 C614 1.442 . S
C615 C616 1.381 . S
C615 H637 0.931 . S
C616 C615 1.381 . S
C616 C617 1.321 . S
C617 C616 1.321 . S
C617 C618 1.403 . S
C617 H638 0.934 . S
C618 C613 1.413 . S
C618 C617 1.403 . S
C618 H639 0.930 . S
C619 O630 1.275 . S
C619 O631 1.256 . S
O620 Ho600 2.322 . S
O620 C602 1.259 . S
O621 Ho601 2.346 . S
O621 C602 1.268 . S
O622 Ho600 2.378 . S
O622 C603 1.215 . S
O623 Ho600 2.524 . S
O623 C603 1.289 . S
O624 Ho600 2.381 . S
O624 C610 1.275 . S
O625 Ho600 2.669 . S
O625 Ho601 2.305 . S
O625 C610 1.256 . S
O626 Ho601 2.322 . S
O626 C611 1.259 1_554 S
O627 Ho600 2.346 . S
O627 C611 1.268 1_554 S
O628 Ho601 2.378 . S
O628 C612 1.174 1_554 S
O629 Ho601 2.524 1_556 S
O629 C612 1.296 . S
O630 Ho601 2.381 . S
O630 C619 1.275 . S
O631 Ho600 2.305 . S
O631 Ho601 2.669 . S
O631 C619 1.256 . S
H632 C605 0.930 . S
H633 C606 0.931 . S
H634 C608 0.934 . S
H635 C609 0.930 . S
H636 C614 0.930 . S
H637 C615 0.931 . S
H638 C617 0.934 . S
H639 C618 0.930 . S
Ho640 C643 2.811 . S
Ho640 O660 2.322 . S
Ho640 O662 2.378 . S
Ho640 O663 2.524 . S
Ho640 O664 2.381 . S
Ho640 O665 2.669 . S
Ho640 O667 2.346 . S
Ho640 O671 2.305 . S
Ho641 C652 2.811 . S
Ho641 O661 2.346 . S
Ho641 O665 2.305 . S
Ho641 O666 2.322 . S
Ho641 O668 2.378 . S
Ho641 O669 2.524 . S
Ho641 O670 2.381 . S
Ho641 O671 2.669 . S
C642 O660 1.259 . S
C642 O661 1.268 . S
C643 Ho640 2.811 . S
C643 C644 1.488 . S
C643 O662 1.215 . S
C643 O663 1.289 . S
C644 C643 1.488 . S
C644 C645 1.348 . S
C644 C649 1.413 . S
C645 C644 1.348 . S
C645 C646 1.442 . S
C645 H672 0.930 . S
C646 C645 1.442 . S
C646 C647 1.381 . S
C646 H673 0.931 . S
C647 C646 1.381 . S
C647 C648 1.321 . S
C648 C647 1.321 . S
C648 C649 1.403 . S
C648 H674 0.934 . S
C649 C644 1.413 . S
C649 C648 1.403 . S
C649 H675 0.930 . S
C650 O664 1.275 . S
C650 O665 1.256 . S
C651 O666 1.259 . S
C651 O667 1.268 . S
C652 Ho641 2.811 . S
C652 C653 1.488 . S
C652 O668 1.215 . S
C652 O669 1.289 . S
C653 C652 1.488 . S
C653 C654 1.348 . S
C653 C658 1.413 . S
C654 C653 1.348 . S
C654 C655 1.442 . S
C654 H676 0.930 . S
C655 C654 1.442 . S
C655 C656 1.381 . S
C655 H677 0.931 . S
C656 C655 1.381 . S
C656 C657 1.321 . S
C657 C656 1.321 . S
C657 C658 1.403 . S
C657 H678 0.934 . S
C658 C653 1.413 . S
C658 C657 1.403 . S
C658 H679 0.930 . S
C659 O670 1.275 . S
C659 O671 1.256 . S
O660 Ho640 2.322 . S
O660 C642 1.259 . S
O661 Ho641 2.346 . S
O661 C642 1.268 . S
O662 Ho640 2.378 . S
O662 C643 1.215 . S
O663 Ho640 2.524 . S
O663 C643 1.289 . S
O664 Ho640 2.381 . S
O664 C650 1.275 . S
O665 Ho640 2.669 . S
O665 Ho641 2.305 . S
O665 C650 1.256 . S
O666 Ho641 2.322 . S
O666 C651 1.259 . S
O667 Ho640 2.346 . S
O667 C651 1.268 . S
O668 Ho641 2.378 . S
O668 C652 1.215 . S
O669 Ho641 2.524 . S
O669 C652 1.289 . S
O670 Ho641 2.381 . S
O670 C659 1.275 . S
O671 Ho640 2.305 . S
O671 Ho641 2.669 . S
O671 C659 1.256 . S
H672 C645 0.930 . S
H673 C646 0.931 . S
H674 C648 0.934 . S
H675 C649 0.930 . S
H676 C654 0.930 . S
H677 C655 0.931 . S
H678 C657 0.934 . S
H679 C658 0.930 . S
Ho680 C683 2.773 1_554 S
Ho680 O700 2.322 . S
Ho680 O702 2.378 . S
Ho680 O703 2.524 1_554 S
Ho680 O704 2.381 . S
Ho680 O705 2.669 . S
Ho680 O707 2.346 . S
Ho680 O711 2.305 . S
Ho681 C692 2.811 . S
Ho681 O701 2.346 . S
Ho681 O705 2.305 . S
Ho681 O706 2.322 . S
Ho681 O708 2.378 . S
Ho681 O709 2.524 . S
Ho681 O710 2.381 . S
Ho681 O711 2.669 . S
C682 O700 1.259 1_556 S
C682 O701 1.268 1_556 S
C683 Ho680 2.773 1_556 S
C683 C684 1.526 . S
C683 O702 1.174 1_556 S
C683 O703 1.296 . S
C684 C683 1.526 . S
C684 C685 1.348 . S
C684 C689 1.413 . S
C685 C684 1.348 . S
C685 C686 1.442 . S
C685 H712 0.930 . S
C686 C685 1.442 . S
C686 C687 1.381 . S
C686 H713 0.931 . S
C687 C686 1.381 . S
C687 C688 1.321 . S
C688 C687 1.321 . S
C688 C689 1.403 . S
C688 H714 0.934 . S
C689 C684 1.413 . S
C689 C688 1.403 . S
C689 H715 0.930 . S
C690 O704 1.275 . S
C690 O705 1.256 . S
C691 O706 1.259 . S
C691 O707 1.268 . S
C692 Ho681 2.811 . S
C692 C693 1.488 . S
C692 O708 1.215 . S
C692 O709 1.289 . S
C693 C692 1.488 . S
C693 C694 1.348 . S
C693 C698 1.413 . S
C694 C693 1.348 . S
C694 C695 1.442 . S
C694 H716 0.930 . S
C695 C694 1.442 . S
C695 C696 1.381 . S
C695 H717 0.931 . S
C696 C695 1.381 . S
C696 C697 1.321 . S
C697 C696 1.321 . S
C697 C698 1.403 . S
C697 H718 0.934 . S
C698 C693 1.413 . S
C698 C697 1.403 . S
C698 H719 0.930 . S
C699 O710 1.275 . S
C699 O711 1.256 . S
O700 Ho680 2.322 . S
O700 C682 1.259 1_554 S
O701 Ho681 2.346 . S
O701 C682 1.268 1_554 S
O702 Ho680 2.378 . S
O702 C683 1.174 1_554 S
O703 Ho680 2.524 1_556 S
O703 C683 1.296 . S
O704 Ho680 2.381 . S
O704 C690 1.275 . S
O705 Ho680 2.669 . S
O705 Ho681 2.305 . S
O705 C690 1.256 . S
O706 Ho681 2.322 . S
O706 C691 1.259 . S
O707 Ho680 2.346 . S
O707 C691 1.268 . S
O708 Ho681 2.378 . S
O708 C692 1.215 . S
O709 Ho681 2.524 . S
O709 C692 1.289 . S
O710 Ho681 2.381 . S
O710 C699 1.275 . S
O711 Ho680 2.305 . S
O711 Ho681 2.669 . S
O711 C699 1.256 . S
H712 C685 0.930 . S
H713 C686 0.931 . S
H714 C688 0.934 . S
H715 C689 0.930 . S
H716 C694 0.930 . S
H717 C695 0.931 . S
H718 C697 0.934 . S
H719 C698 0.930 . S
Ho720 C723 2.811 . S
Ho720 O740 2.322 . S
Ho720 O742 2.378 . S
Ho720 O743 2.524 . S
Ho720 O744 2.381 . S
Ho720 O745 2.669 . S
Ho720 O747 2.346 . S
Ho720 O751 2.305 . S
Ho721 C732 2.811 . S
Ho721 O741 2.346 . S
Ho721 O745 2.305 . S
Ho721 O746 2.322 . S
Ho721 O748 2.378 . S
Ho721 O749 2.524 . S
Ho721 O750 2.381 . S
Ho721 O751 2.669 . S
C722 O740 1.259 . S
C722 O741 1.268 . S
C723 Ho720 2.811 . S
C723 C724 1.488 . S
C723 O742 1.215 . S
C723 O743 1.289 . S
C724 C723 1.488 . S
C724 C725 1.348 . S
C724 C729 1.413 . S
C725 C724 1.348 . S
C725 C726 1.442 . S
C725 H752 0.930 . S
C726 C725 1.442 . S
C726 C727 1.381 . S
C726 H753 0.931 . S
C727 C726 1.381 . S
C727 C728 1.321 . S
C728 C727 1.321 . S
C728 C729 1.403 . S
C728 H754 0.934 . S
C729 C724 1.413 . S
C729 C728 1.403 . S
C729 H755 0.930 . S
C730 O744 1.275 . S
C730 O745 1.256 . S
C731 O746 1.259 . S
C731 O747 1.268 . S
C732 Ho721 2.811 . S
C732 C733 1.488 . S
C732 O748 1.215 . S
C732 O749 1.289 . S
C733 C732 1.488 . S
C733 C734 1.348 . S
C733 C738 1.413 . S
C734 C733 1.348 . S
C734 C735 1.442 . S
C734 H756 0.930 . S
C735 C734 1.442 . S
C735 C736 1.381 . S
C735 H757 0.931 . S
C736 C735 1.381 . S
C736 C737 1.321 . S
C737 C736 1.321 . S
C737 C738 1.403 . S
C737 H758 0.934 . S
C738 C733 1.413 . S
C738 C737 1.403 . S
C738 H759 0.930 . S
C739 O750 1.275 . S
C739 O751 1.256 . S
O740 Ho720 2.322 . S
O740 C722 1.259 . S
O741 Ho721 2.346 . S
O741 C722 1.268 . S
O742 Ho720 2.378 . S
O742 C723 1.215 . S
O743 Ho720 2.524 . S
O743 C723 1.289 . S
O744 Ho720 2.381 . S
O744 C730 1.275 . S
O745 Ho720 2.669 . S
O745 Ho721 2.305 . S
O745 C730 1.256 . S
O746 Ho721 2.322 . S
O746 C731 1.259 . S
O747 Ho720 2.346 . S
O747 C731 1.268 . S
O748 Ho721 2.378 . S
O748 C732 1.215 . S
O749 Ho721 2.524 . S
O749 C732 1.289 . S
O750 Ho721 2.381 . S
O750 C739 1.275 . S
O751 Ho720 2.305 . S
O751 Ho721 2.669 . S
O751 C739 1.256 . S
H752 C725 0.930 . S
H753 C726 0.931 . S
H754 C728 0.934 . S
H755 C729 0.930 . S
H756 C734 0.930 . S
H757 C735 0.931 . S
H758 C737 0.934 . S
H759 C738 0.930 . S
Ho760 C763 2.811 . S
Ho760 O780 2.322 . S
Ho760 O782 2.378 . S
Ho760 O783 2.524 . S
Ho760 O784 2.381 . S
Ho760 O785 2.669 . S
Ho760 O787 2.346 . S
Ho760 O791 2.305 . S
Ho761 C772 2.811 . S
Ho761 O781 2.346 . S
Ho761 O785 2.305 . S
Ho761 O786 2.322 . S
Ho761 O788 2.378 . S
Ho761 O789 2.524 . S
Ho761 O790 2.381 . S
Ho761 O791 2.669 . S
C762 O780 1.259 . S
C762 O781 1.268 . S
C763 Ho760 2.811 . S
C763 C764 1.488 . S
C763 O782 1.215 . S
C763 O783 1.289 . S
C764 C763 1.488 . S
C764 C765 1.348 . S
C764 C769 1.413 . S
C765 C764 1.348 . S
C765 C766 1.442 . S
C765 H792 0.930 . S
C766 C765 1.442 . S
C766 C767 1.381 . S
C766 H793 0.931 . S
C767 C766 1.381 . S
C767 C768 1.321 . S
C768 C767 1.321 . S
C768 C769 1.403 . S
C768 H794 0.934 . S
C769 C764 1.413 . S
C769 C768 1.403 . S
C769 H795 0.930 . S
C770 O784 1.275 . S
C770 O785 1.256 . S
C771 O786 1.259 . S
C771 O787 1.268 . S
C772 Ho761 2.811 . S
C772 C773 1.488 . S
C772 O788 1.215 . S
C772 O789 1.289 . S
C773 C772 1.488 . S
C773 C774 1.348 . S
C773 C778 1.413 . S
C774 C773 1.348 . S
C774 C775 1.442 . S
C774 H796 0.930 . S
C775 C774 1.442 . S
C775 C776 1.381 . S
C775 H797 0.931 . S
C776 C775 1.381 . S
C776 C777 1.321 . S
C777 C776 1.321 . S
C777 C778 1.403 . S
C777 H798 0.934 . S
C778 C773 1.413 . S
C778 C777 1.403 . S
C778 H799 0.930 . S
C779 O790 1.275 . S
C779 O791 1.256 . S
O780 Ho760 2.322 . S
O780 C762 1.259 . S
O781 Ho761 2.346 . S
O781 C762 1.268 . S
O782 Ho760 2.378 . S
O782 C763 1.215 . S
O783 Ho760 2.524 . S
O783 C763 1.289 . S
O784 Ho760 2.381 . S
O784 C770 1.275 . S
O785 Ho760 2.669 . S
O785 Ho761 2.305 . S
O785 C770 1.256 . S
O786 Ho761 2.322 . S
O786 C771 1.259 . S
O787 Ho760 2.346 . S
O787 C771 1.268 . S
O788 Ho761 2.378 . S
O788 C772 1.215 . S
O789 Ho761 2.524 . S
O789 C772 1.289 . S
O790 Ho761 2.381 . S
O790 C779 1.275 . S
O791 Ho760 2.305 . S
O791 Ho761 2.669 . S
O791 C779 1.256 . S
H792 C765 0.930 . S
H793 C766 0.931 . S
H794 C768 0.934 . S
H795 C769 0.930 . S
H796 C774 0.930 . S
H797 C775 0.931 . S
H798 C777 0.934 . S
H799 C778 0.930 . S
Ho800 C803 2.811 . S
Ho800 O820 2.322 . S
Ho800 O822 2.378 . S
Ho800 O823 2.524 . S
Ho800 O824 2.381 . S
Ho800 O825 2.669 . S
Ho800 O827 2.346 . S
Ho800 O831 2.305 . S
Ho801 C812 2.811 . S
Ho801 O821 2.346 . S
Ho801 O825 2.305 . S
Ho801 O826 2.322 . S
Ho801 O828 2.378 . S
Ho801 O829 2.524 . S
Ho801 O830 2.381 . S
Ho801 O831 2.669 . S
C802 O820 1.259 . S
C802 O821 1.268 . S
C803 Ho800 2.811 . S
C803 C804 1.488 . S
C803 O822 1.215 . S
C803 O823 1.289 . S
C804 C803 1.488 . S
C804 C805 1.348 . S
C804 C809 1.413 . S
C805 C804 1.348 . S
C805 C806 1.442 . S
C805 H832 0.930 . S
C806 C805 1.442 . S
C806 C807 1.381 . S
C806 H833 0.931 . S
C807 C806 1.381 . S
C807 C808 1.321 . S
C808 C807 1.321 . S
C808 C809 1.403 . S
C808 H834 0.934 . S
C809 C804 1.413 . S
C809 C808 1.403 . S
C809 H835 0.930 . S
C810 O824 1.275 . S
C810 O825 1.256 . S
C811 O826 1.259 . S
C811 O827 1.268 . S
C812 Ho801 2.811 . S
C812 C813 1.488 . S
C812 O828 1.215 . S
C812 O829 1.289 . S
C813 C812 1.488 . S
C813 C814 1.348 . S
C813 C818 1.413 . S
C814 C813 1.348 . S
C814 C815 1.442 . S
C814 H836 0.930 . S
C815 C814 1.442 . S
C815 C816 1.381 . S
C815 H837 0.931 . S
C816 C815 1.381 . S
C816 C817 1.321 . S
C817 C816 1.321 . S
C817 C818 1.403 . S
C817 H838 0.934 . S
C818 C813 1.413 . S
C818 C817 1.403 . S
C818 H839 0.930 . S
C819 O830 1.275 . S
C819 O831 1.256 . S
O820 Ho800 2.322 . S
O820 C802 1.259 . S
O821 Ho801 2.346 . S
O821 C802 1.268 . S
O822 Ho800 2.378 . S
O822 C803 1.215 . S
O823 Ho800 2.524 . S
O823 C803 1.289 . S
O824 Ho800 2.381 . S
O824 C810 1.275 . S
O825 Ho800 2.669 . S
O825 Ho801 2.305 . S
O825 C810 1.256 . S
O826 Ho801 2.322 . S
O826 C811 1.259 . S
O827 Ho800 2.346 . S
O827 C811 1.268 . S
O828 Ho801 2.378 . S
O828 C812 1.215 . S
O829 Ho801 2.524 . S
O829 C812 1.289 . S
O830 Ho801 2.381 . S
O830 C819 1.275 . S
O831 Ho800 2.305 . S
O831 Ho801 2.669 . S
O831 C819 1.256 . S
H832 C805 0.930 . S
H833 C806 0.931 . S
H834 C808 0.934 . S
H835 C809 0.930 . S
H836 C814 0.930 . S
H837 C815 0.931 . S
H838 C817 0.934 . S
H839 C818 0.930 . S
Ho840 C843 2.773 1_556 S
Ho840 O860 2.322 . S
Ho840 O862 2.378 . S
Ho840 O863 2.524 1_556 S
Ho840 O864 2.381 . S
Ho840 O865 2.669 . S
Ho840 O867 2.346 . S
Ho840 O871 2.305 . S
Ho841 C852 2.811 . S
Ho841 O861 2.346 . S
Ho841 O865 2.305 . S
Ho841 O866 2.322 . S
Ho841 O868 2.378 . S
Ho841 O869 2.524 . S
Ho841 O870 2.381 . S
Ho841 O871 2.669 . S
C842 O860 1.259 1_554 S
C842 O861 1.268 1_554 S
C843 Ho840 2.773 1_554 S
C843 C844 1.526 . S
C843 O862 1.174 1_554 S
C843 O863 1.296 . S
C844 C843 1.526 . S
C844 C845 1.348 . S
C844 C849 1.413 . S
C845 C844 1.348 . S
C845 C846 1.442 . S
C845 H872 0.930 . S
C846 C845 1.442 . S
C846 C847 1.381 . S
C846 H873 0.931 . S
C847 C846 1.381 . S
C847 C848 1.321 . S
C848 C847 1.321 . S
C848 C849 1.403 . S
C848 H874 0.934 . S
C849 C844 1.413 . S
C849 C848 1.403 . S
C849 H875 0.930 . S
C850 O864 1.275 . S
C850 O865 1.256 . S
C851 O866 1.259 . S
C851 O867 1.268 . S
C852 Ho841 2.811 . S
C852 C853 1.488 . S
C852 O868 1.215 . S
C852 O869 1.289 . S
C853 C852 1.488 . S
C853 C854 1.348 . S
C853 C858 1.413 . S
C854 C853 1.348 . S
C854 C855 1.442 . S
C854 H876 0.930 . S
C855 C854 1.442 . S
C855 C856 1.381 . S
C855 H877 0.931 . S
C856 C855 1.381 . S
C856 C857 1.321 . S
C857 C856 1.321 . S
C857 C858 1.403 . S
C857 H878 0.934 . S
C858 C853 1.413 . S
C858 C857 1.403 . S
C858 H879 0.930 . S
C859 O870 1.275 . S
C859 O871 1.256 . S
O860 Ho840 2.322 . S
O860 C842 1.259 1_556 S
O861 Ho841 2.346 . S
O861 C842 1.268 1_556 S
O862 Ho840 2.378 . S
O862 C843 1.174 1_556 S
O863 Ho840 2.524 1_554 S
O863 C843 1.296 . S
O864 Ho840 2.381 . S
O864 C850 1.275 . S
O865 Ho840 2.669 . S
O865 Ho841 2.305 . S
O865 C850 1.256 . S
O866 Ho841 2.322 . S
O866 C851 1.259 . S
O867 Ho840 2.346 . S
O867 C851 1.268 . S
O868 Ho841 2.378 . S
O868 C852 1.215 . S
O869 Ho841 2.524 . S
O869 C852 1.289 . S
O870 Ho841 2.381 . S
O870 C859 1.275 . S
O871 Ho840 2.305 . S
O871 Ho841 2.669 . S
O871 C859 1.256 . S
H872 C845 0.930 . S
H873 C846 0.931 . S
H874 C848 0.934 . S
H875 C849 0.930 . S
H876 C854 0.930 . S
H877 C855 0.931 . S
H878 C857 0.934 . S
H879 C858 0.930 . S
Ho880 C883 2.811 . S
Ho880 O900 2.322 . S
Ho880 O902 2.378 . S
Ho880 O903 2.524 . S
Ho880 O904 2.381 . S
Ho880 O905 2.669 . S
Ho880 O907 2.346 . S
Ho880 O911 2.305 . S
Ho881 C892 2.811 . S
Ho881 O901 2.346 . S
Ho881 O905 2.305 . S
Ho881 O906 2.322 . S
Ho881 O908 2.378 . S
Ho881 O909 2.524 . S
Ho881 O910 2.381 . S
Ho881 O911 2.669 . S
C882 O900 1.259 . S
C882 O901 1.268 . S
C883 Ho880 2.811 . S
C883 C884 1.488 . S
C883 O902 1.215 . S
C883 O903 1.289 . S
C884 C883 1.488 . S
C884 C885 1.348 . S
C884 C889 1.413 . S
C885 C884 1.348 . S
C885 C886 1.442 . S
C885 H912 0.930 . S
C886 C885 1.442 . S
C886 C887 1.381 . S
C886 H913 0.931 . S
C887 C886 1.381 . S
C887 C888 1.321 . S
C888 C887 1.321 . S
C888 C889 1.403 . S
C888 H914 0.934 . S
C889 C884 1.413 . S
C889 C888 1.403 . S
C889 H915 0.930 . S
C890 O904 1.275 . S
C890 O905 1.256 . S
C891 O906 1.259 . S
C891 O907 1.268 . S
C892 Ho881 2.811 . S
C892 C893 1.488 . S
C892 O908 1.215 . S
C892 O909 1.289 . S
C893 C892 1.488 . S
C893 C894 1.348 . S
C893 C898 1.413 . S
C894 C893 1.348 . S
C894 C895 1.442 . S
C894 H916 0.930 . S
C895 C894 1.442 . S
C895 C896 1.381 . S
C895 H917 0.931 . S
C896 C895 1.381 . S
C896 C897 1.321 . S
C897 C896 1.321 . S
C897 C898 1.403 . S
C897 H918 0.934 . S
C898 C893 1.413 . S
C898 C897 1.403 . S
C898 H919 0.930 . S
C899 O910 1.275 . S
C899 O911 1.256 . S
O900 Ho880 2.322 . S
O900 C882 1.259 . S
O901 Ho881 2.346 . S
O901 C882 1.268 . S
O902 Ho880 2.378 . S
O902 C883 1.215 . S
O903 Ho880 2.524 . S
O903 C883 1.289 . S
O904 Ho880 2.381 . S
O904 C890 1.275 . S
O905 Ho880 2.669 . S
O905 Ho881 2.305 . S
O905 C890 1.256 . S
O906 Ho881 2.322 . S
O906 C891 1.259 . S
O907 Ho880 2.346 . S
O907 C891 1.268 . S
O908 Ho881 2.378 . S
O908 C892 1.215 . S
O909 Ho881 2.524 . S
O909 C892 1.289 . S
O910 Ho881 2.381 . S
O910 C899 1.275 . S
O911 Ho880 2.305 . S
O911 Ho881 2.669 . S
O911 C899 1.256 . S
H912 C885 0.930 . S
H913 C886 0.931 . S
H914 C888 0.934 . S
H915 C889 0.930 . S
H916 C894 0.930 . S
H917 C895 0.931 . S
H918 C897 0.934 . S
H919 C898 0.930 . S
Ho920 C923 2.811 . S
Ho920 O940 2.322 . S
Ho920 O942 2.378 . S
Ho920 O943 2.524 . S
Ho920 O944 2.381 . S
Ho920 O945 2.669 . S
Ho920 O947 2.346 . S
Ho920 O951 2.305 . S
Ho921 C932 2.811 . S
Ho921 O941 2.346 . S
Ho921 O945 2.305 . S
Ho921 O946 2.322 . S
Ho921 O948 2.378 . S
Ho921 O949 2.524 . S
Ho921 O950 2.381 . S
Ho921 O951 2.669 . S
C922 O940 1.259 . S
C922 O941 1.268 . S
C923 Ho920 2.811 . S
C923 C924 1.488 . S
C923 O942 1.215 . S
C923 O943 1.289 . S
C924 C923 1.488 . S
C924 C925 1.348 . S
C924 C929 1.413 . S
C925 C924 1.348 . S
C925 C926 1.442 . S
C925 H952 0.930 . S
C926 C925 1.442 . S
C926 C927 1.381 . S
C926 H953 0.931 . S
C927 C926 1.381 . S
C927 C928 1.321 . S
C928 C927 1.321 . S
C928 C929 1.403 . S
C928 H954 0.934 . S
C929 C924 1.413 . S
C929 C928 1.403 . S
C929 H955 0.930 . S
C930 O944 1.275 . S
C930 O945 1.256 . S
C931 O946 1.259 . S
C931 O947 1.268 . S
C932 Ho921 2.811 . S
C932 C933 1.488 . S
C932 O948 1.215 . S
C932 O949 1.289 . S
C933 C932 1.488 . S
C933 C934 1.348 . S
C933 C938 1.413 . S
C934 C933 1.348 . S
C934 C935 1.442 . S
C934 H956 0.930 . S
C935 C934 1.442 . S
C935 C936 1.381 . S
C935 H957 0.931 . S
C936 C935 1.381 . S
C936 C937 1.321 . S
C937 C936 1.321 . S
C937 C938 1.403 . S
C937 H958 0.934 . S
C938 C933 1.413 . S
C938 C937 1.403 . S
C938 H959 0.930 . S
C939 O950 1.275 . S
C939 O951 1.256 . S
O940 Ho920 2.322 . S
O940 C922 1.259 . S
O941 Ho921 2.346 . S
O941 C922 1.268 . S
O942 Ho920 2.378 . S
O942 C923 1.215 . S
O943 Ho920 2.524 . S
O943 C923 1.289 . S
O944 Ho920 2.381 . S
O944 C930 1.275 . S
O945 Ho920 2.669 . S
O945 Ho921 2.305 . S
O945 C930 1.256 . S
O946 Ho921 2.322 . S
O946 C931 1.259 . S
O947 Ho920 2.346 . S
O947 C931 1.268 . S
O948 Ho921 2.378 . S
O948 C932 1.215 . S
O949 Ho921 2.524 . S
O949 C932 1.289 . S
O950 Ho921 2.381 . S
O950 C939 1.275 . S
O951 Ho920 2.305 . S
O951 Ho921 2.669 . S
O951 C939 1.256 . S
H952 C925 0.930 . S
H953 C926 0.931 . S
H954 C928 0.934 . S
H955 C929 0.930 . S
H956 C934 0.930 . S
H957 C935 0.931 . S
H958 C937 0.934 . S
H959 C938 0.930 . S
Ho960 C963 2.811 . S
Ho960 O980 2.322 . S
Ho960 O982 2.378 . S
Ho960 O983 2.524 . S
Ho960 O984 2.381 . S
Ho960 O985 2.669 . S
Ho960 O987 2.346 . S
Ho960 O991 2.305 . S
Ho961 C972 2.811 . S
Ho961 O981 2.346 . S
Ho961 O985 2.305 . S
Ho961 O986 2.322 . S
Ho961 O988 2.378 . S
Ho961 O989 2.524 . S
Ho961 O990 2.381 . S
Ho961 O991 2.669 . S
C962 O980 1.259 . S
C962 O981 1.268 . S
C963 Ho960 2.811 . S
C963 C964 1.488 . S
C963 O982 1.215 . S
C963 O983 1.289 . S
C964 C963 1.488 . S
C964 C965 1.348 . S
C964 C969 1.413 . S
C965 C964 1.348 . S
C965 C966 1.442 . S
C965 H992 0.930 . S
C966 C965 1.442 . S
C966 C967 1.381 . S
C966 H993 0.931 . S
C967 C966 1.381 . S
C967 C968 1.321 . S
C968 C967 1.321 . S
C968 C969 1.403 . S
C968 H994 0.934 . S
C969 C964 1.413 . S
C969 C968 1.403 . S
C969 H995 0.930 . S
C970 O984 1.275 . S
C970 O985 1.256 . S
C971 O986 1.259 . S
C971 O987 1.268 . S
C972 Ho961 2.811 . S
C972 C973 1.488 . S
C972 O988 1.215 . S
C972 O989 1.289 . S
C973 C972 1.488 . S
C973 C974 1.348 . S
C973 C978 1.413 . S
C974 C973 1.348 . S
C974 C975 1.442 . S
C974 H996 0.930 . S
C975 C974 1.442 . S
C975 C976 1.381 . S
C975 H997 0.931 . S
C976 C975 1.381 . S
C976 C977 1.321 . S
C977 C976 1.321 . S
C977 C978 1.403 . S
C977 H998 0.934 . S
C978 C973 1.413 . S
C978 C977 1.403 . S
C978 H999 0.930 . S
C979 O990 1.275 . S
C979 O991 1.256 . S
O980 Ho960 2.322 . S
O980 C962 1.259 . S
O981 Ho961 2.346 . S
O981 C962 1.268 . S
O982 Ho960 2.378 . S
O982 C963 1.215 . S
O983 Ho960 2.524 . S
O983 C963 1.289 . S
O984 Ho960 2.381 . S
O984 C970 1.275 . S
O985 Ho960 2.669 . S
O985 Ho961 2.305 . S
O985 C970 1.256 . S
O986 Ho961 2.322 . S
O986 C971 1.259 . S
O987 Ho960 2.346 . S
O987 C971 1.268 . S
O988 Ho961 2.378 . S
O988 C972 1.215 . S
O989 Ho961 2.524 . S
O989 C972 1.289 . S
O990 Ho961 2.381 . S
O990 C979 1.275 . S
O991 Ho960 2.305 . S
O991 Ho961 2.669 . S
O991 C979 1.256 . S
H992 C965 0.930 . S
H993 C966 0.931 . S
H994 C968 0.934 . S
H995 C969 0.930 . S
H996 C974 0.930 . S
H997 C975 0.931 . S
H998 C977 0.934 . S
H999 C978 0.930 . S
Ho1000 C1003 2.811 . S
Ho1000 O1020 2.322 . S
Ho1000 O1022 2.378 . S
Ho1000 O1023 2.524 . S
Ho1000 O1024 2.381 . S
Ho1000 O1025 2.669 . S
Ho1000 O1027 2.346 . S
Ho1000 O1031 2.305 . S
Ho1001 C1012 2.773 1_556 S
Ho1001 O1021 2.346 . S
Ho1001 O1025 2.305 . S
Ho1001 O1026 2.322 . S
Ho1001 O1028 2.378 . S
Ho1001 O1029 2.524 1_556 S
Ho1001 O1030 2.381 . S
Ho1001 O1031 2.669 . S
C1002 O1020 1.259 . S
C1002 O1021 1.268 . S
C1003 Ho1000 2.811 . S
C1003 C1004 1.488 . S
C1003 O1022 1.215 . S
C1003 O1023 1.289 . S
C1004 C1003 1.488 . S
C1004 C1005 1.348 . S
C1004 C1009 1.413 . S
C1005 C1004 1.348 . S
C1005 C1006 1.442 . S
C1005 H1032 0.930 . S
C1006 C1005 1.442 . S
C1006 C1007 1.381 . S
C1006 H1033 0.931 . S
C1007 C1006 1.381 . S
C1007 C1008 1.321 . S
C1008 C1007 1.321 . S
C1008 C1009 1.403 . S
C1008 H1034 0.934 . S
C1009 C1004 1.413 . S
C1009 C1008 1.403 . S
C1009 H1035 0.930 . S
C1010 O1024 1.275 . S
C1010 O1025 1.256 . S
C1011 O1026 1.259 1_554 S
C1011 O1027 1.268 1_554 S
C1012 Ho1001 2.773 1_554 S
C1012 C1013 1.526 . S
C1012 O1028 1.174 1_554 S
C1012 O1029 1.296 . S
C1013 C1012 1.526 . S
C1013 C1014 1.348 . S
C1013 C1018 1.413 . S
C1014 C1013 1.348 . S
C1014 C1015 1.442 . S
C1014 H1036 0.930 . S
C1015 C1014 1.442 . S
C1015 C1016 1.381 . S
C1015 H1037 0.931 . S
C1016 C1015 1.381 . S
C1016 C1017 1.321 . S
C1017 C1016 1.321 . S
C1017 C1018 1.403 . S
C1017 H1038 0.934 . S
C1018 C1013 1.413 . S
C1018 C1017 1.403 . S
C1018 H1039 0.930 . S
C1019 O1030 1.275 . S
C1019 O1031 1.256 . S
O1020 Ho1000 2.322 . S
O1020 C1002 1.259 . S
O1021 Ho1001 2.346 . S
O1021 C1002 1.268 . S
O1022 Ho1000 2.378 . S
O1022 C1003 1.215 . S
O1023 Ho1000 2.524 . S
O1023 C1003 1.289 . S
O1024 Ho1000 2.381 . S
O1024 C1010 1.275 . S
O1025 Ho1000 2.669 . S
O1025 Ho1001 2.305 . S
O1025 C1010 1.256 . S
O1026 Ho1001 2.322 . S
O1026 C1011 1.259 1_556 S
O1027 Ho1000 2.346 . S
O1027 C1011 1.268 1_556 S
O1028 Ho1001 2.378 . S
O1028 C1012 1.174 1_556 S
O1029 Ho1001 2.524 1_554 S
O1029 C1012 1.296 . S
O1030 Ho1001 2.381 . S
O1030 C1019 1.275 . S
O1031 Ho1000 2.305 . S
O1031 Ho1001 2.669 . S
O1031 C1019 1.256 . S
H1032 C1005 0.930 . S
H1033 C1006 0.931 . S
H1034 C1008 0.934 . S
H1035 C1009 0.930 . S
H1036 C1014 0.930 . S
H1037 C1015 0.931 . S
H1038 C1017 0.934 . S
H1039 C1018 0.930 . S
Ho1040 C1043 2.811 . S
Ho1040 O1060 2.322 . S
Ho1040 O1062 2.378 . S
Ho1040 O1063 2.524 . S
Ho1040 O1064 2.381 . S
Ho1040 O1065 2.669 . S
Ho1040 O1067 2.346 . S
Ho1040 O1071 2.305 . S
Ho1041 C1052 2.811 . S
Ho1041 O1061 2.346 . S
Ho1041 O1065 2.305 . S
Ho1041 O1066 2.322 . S
Ho1041 O1068 2.378 . S
Ho1041 O1069 2.524 . S
Ho1041 O1070 2.381 . S
Ho1041 O1071 2.669 . S
C1042 O1060 1.259 . S
C1042 O1061 1.268 . S
C1043 Ho1040 2.811 . S
C1043 C1044 1.488 . S
C1043 O1062 1.215 . S
C1043 O1063 1.289 . S
C1044 C1043 1.488 . S
C1044 C1045 1.348 . S
C1044 C1049 1.413 . S
C1045 C1044 1.348 . S
C1045 C1046 1.442 . S
C1045 H1072 0.930 . S
C1046 C1045 1.442 . S
C1046 C1047 1.381 . S
C1046 H1073 0.931 . S
C1047 C1046 1.381 . S
C1047 C1048 1.321 . S
C1048 C1047 1.321 . S
C1048 C1049 1.403 . S
C1048 H1074 0.934 . S
C1049 C1044 1.413 . S
C1049 C1048 1.403 . S
C1049 H1075 0.930 . S
C1050 O1064 1.275 . S
C1050 O1065 1.256 . S
C1051 O1066 1.259 . S
C1051 O1067 1.268 . S
C1052 Ho1041 2.811 . S
C1052 C1053 1.488 . S
C1052 O1068 1.215 . S
C1052 O1069 1.289 . S
C1053 C1052 1.488 . S
C1053 C1054 1.348 . S
C1053 C1058 1.413 . S
C1054 C1053 1.348 . S
C1054 C1055 1.442 . S
C1054 H1076 0.930 . S
C1055 C1054 1.442 . S
C1055 C1056 1.381 . S
C1055 H1077 0.931 . S
C1056 C1055 1.381 . S
C1056 C1057 1.321 . S
C1057 C1056 1.321 . S
C1057 C1058 1.403 . S
C1057 H1078 0.934 . S
C1058 C1053 1.413 . S
C1058 C1057 1.403 . S
C1058 H1079 0.930 . S
C1059 O1070 1.275 . S
C1059 O1071 1.256 . S
O1060 Ho1040 2.322 . S
O1060 C1042 1.259 . S
O1061 Ho1041 2.346 . S
O1061 C1042 1.268 . S
O1062 Ho1040 2.378 . S
O1062 C1043 1.215 . S
O1063 Ho1040 2.524 . S
O1063 C1043 1.289 . S
O1064 Ho1040 2.381 . S
O1064 C1050 1.275 . S
O1065 Ho1040 2.669 . S
O1065 Ho1041 2.305 . S
O1065 C1050 1.256 . S
O1066 Ho1041 2.322 . S
O1066 C1051 1.259 . S
O1067 Ho1040 2.346 . S
O1067 C1051 1.268 . S
O1068 Ho1041 2.378 . S
O1068 C1052 1.215 . S
O1069 Ho1041 2.524 . S
O1069 C1052 1.289 . S
O1070 Ho1041 2.381 . S
O1070 C1059 1.275 . S
O1071 Ho1040 2.305 . S
O1071 Ho1041 2.669 . S
O1071 C1059 1.256 . S
H1072 C1045 0.930 . S
H1073 C1046 0.931 . S
H1074 C1048 0.934 . S
H1075 C1049 0.930 . S
H1076 C1054 0.930 . S
H1077 C1055 0.931 . S
H1078 C1057 0.934 . S
H1079 C1058 0.930 . S
Ho1080 C1083 2.811 . S
Ho1080 O1100 2.322 . S
Ho1080 O1102 2.378 . S
Ho1080 O1103 2.524 . S
Ho1080 O1104 2.381 . S
Ho1080 O1105 2.669 . S
Ho1080 O1107 2.346 . S
Ho1080 O1111 2.305 . S
Ho1081 C1092 2.811 . S
Ho1081 O1101 2.346 . S
Ho1081 O1105 2.305 . S
Ho1081 O1106 2.322 . S
Ho1081 O1108 2.378 . S
Ho1081 O1109 2.524 . S
Ho1081 O1110 2.381 . S
Ho1081 O1111 2.669 . S
C1082 O1100 1.259 . S
C1082 O1101 1.268 . S
C1083 Ho1080 2.811 . S
C1083 C1084 1.488 . S
C1083 O1102 1.215 . S
C1083 O1103 1.289 . S
C1084 C1083 1.488 . S
C1084 C1085 1.348 . S
C1084 C1089 1.413 . S
C1085 C1084 1.348 . S
C1085 C1086 1.442 . S
C1085 H1112 0.930 . S
C1086 C1085 1.442 . S
C1086 C1087 1.381 . S
C1086 H1113 0.931 . S
C1087 C1086 1.381 . S
C1087 C1088 1.321 . S
C1088 C1087 1.321 . S
C1088 C1089 1.403 . S
C1088 H1114 0.934 . S
C1089 C1084 1.413 . S
C1089 C1088 1.403 . S
C1089 H1115 0.930 . S
C1090 O1104 1.275 . S
C1090 O1105 1.256 . S
C1091 O1106 1.259 . S
C1091 O1107 1.268 . S
C1092 Ho1081 2.811 . S
C1092 C1093 1.488 . S
C1092 O1108 1.215 . S
C1092 O1109 1.289 . S
C1093 C1092 1.488 . S
C1093 C1094 1.348 . S
C1093 C1098 1.413 . S
C1094 C1093 1.348 . S
C1094 C1095 1.442 . S
C1094 H1116 0.930 . S
C1095 C1094 1.442 . S
C1095 C1096 1.381 . S
C1095 H1117 0.931 . S
C1096 C1095 1.381 . S
C1096 C1097 1.321 . S
C1097 C1096 1.321 . S
C1097 C1098 1.403 . S
C1097 H1118 0.934 . S
C1098 C1093 1.413 . S
C1098 C1097 1.403 . S
C1098 H1119 0.930 . S
C1099 O1110 1.275 . S
C1099 O1111 1.256 . S
O1100 Ho1080 2.322 . S
O1100 C1082 1.259 . S
O1101 Ho1081 2.346 . S
O1101 C1082 1.268 . S
O1102 Ho1080 2.378 . S
O1102 C1083 1.215 . S
O1103 Ho1080 2.524 . S
O1103 C1083 1.289 . S
O1104 Ho1080 2.381 . S
O1104 C1090 1.275 . S
O1105 Ho1080 2.669 . S
O1105 Ho1081 2.305 . S
O1105 C1090 1.256 . S
O1106 Ho1081 2.322 . S
O1106 C1091 1.259 . S
O1107 Ho1080 2.346 . S
O1107 C1091 1.268 . S
O1108 Ho1081 2.378 . S
O1108 C1092 1.215 . S
O1109 Ho1081 2.524 . S
O1109 C1092 1.289 . S
O1110 Ho1081 2.381 . S
O1110 C1099 1.275 . S
O1111 Ho1080 2.305 . S
O1111 Ho1081 2.669 . S
O1111 C1099 1.256 . S
H1112 C1085 0.930 . S
H1113 C1086 0.931 . S
H1114 C1088 0.934 . S
H1115 C1089 0.930 . S
H1116 C1094 0.930 . S
H1117 C1095 0.931 . S
H1118 C1097 0.934 . S
H1119 C1098 0.930 . S
Ho1120 C1123 2.811 . S
Ho1120 O1140 2.322 . S
Ho1120 O1142 2.378 . S
Ho1120 O1143 2.524 . S
Ho1120 O1144 2.381 . S
Ho1120 O1145 2.669 . S
Ho1120 O1147 2.346 . S
Ho1120 O1151 2.305 . S
Ho1121 C1132 2.811 . S
Ho1121 O1141 2.346 . S
Ho1121 O1145 2.305 . S
Ho1121 O1146 2.322 . S
Ho1121 O1148 2.378 . S
Ho1121 O1149 2.524 . S
Ho1121 O1150 2.381 . S
Ho1121 O1151 2.669 . S
C1122 O1140 1.259 . S
C1122 O1141 1.268 . S
C1123 Ho1120 2.811 . S
C1123 C1124 1.488 . S
C1123 O1142 1.215 . S
C1123 O1143 1.289 . S
C1124 C1123 1.488 . S
C1124 C1125 1.348 . S
C1124 C1129 1.413 . S
C1125 C1124 1.348 . S
C1125 C1126 1.442 . S
C1125 H1152 0.930 . S
C1126 C1125 1.442 . S
C1126 C1127 1.381 . S
C1126 H1153 0.931 . S
C1127 C1126 1.381 . S
C1127 C1128 1.321 . S
C1128 C1127 1.321 . S
C1128 C1129 1.403 . S
C1128 H1154 0.934 . S
C1129 C1124 1.413 . S
C1129 C1128 1.403 . S
C1129 H1155 0.930 . S
C1130 O1144 1.275 . S
C1130 O1145 1.256 . S
C1131 O1146 1.259 . S
C1131 O1147 1.268 . S
C1132 Ho1121 2.811 . S
C1132 C1133 1.488 . S
C1132 O1148 1.215 . S
C1132 O1149 1.289 . S
C1133 C1132 1.488 . S
C1133 C1134 1.348 . S
C1133 C1138 1.413 . S
C1134 C1133 1.348 . S
C1134 C1135 1.442 . S
C1134 H1156 0.930 . S
C1135 C1134 1.442 . S
C1135 C1136 1.381 . S
C1135 H1157 0.931 . S
C1136 C1135 1.381 . S
C1136 C1137 1.321 . S
C1137 C1136 1.321 . S
C1137 C1138 1.403 . S
C1137 H1158 0.934 . S
C1138 C1133 1.413 . S
C1138 C1137 1.403 . S
C1138 H1159 0.930 . S
C1139 O1150 1.275 . S
C1139 O1151 1.256 . S
O1140 Ho1120 2.322 . S
O1140 C1122 1.259 . S
O1141 Ho1121 2.346 . S
O1141 C1122 1.268 . S
O1142 Ho1120 2.378 . S
O1142 C1123 1.215 . S
O1143 Ho1120 2.524 . S
O1143 C1123 1.289 . S
O1144 Ho1120 2.381 . S
O1144 C1130 1.275 . S
O1145 Ho1120 2.669 . S
O1145 Ho1121 2.305 . S
O1145 C1130 1.256 . S
O1146 Ho1121 2.322 . S
O1146 C1131 1.259 . S
O1147 Ho1120 2.346 . S
O1147 C1131 1.268 . S
O1148 Ho1121 2.378 . S
O1148 C1132 1.215 . S
O1149 Ho1121 2.524 . S
O1149 C1132 1.289 . S
O1150 Ho1121 2.381 . S
O1150 C1139 1.275 . S
O1151 Ho1120 2.305 . S
O1151 Ho1121 2.669 . S
O1151 C1139 1.256 . S
H1152 C1125 0.930 . S
H1153 C1126 0.931 . S
H1154 C1128 0.934 . S
H1155 C1129 0.930 . S
H1156 C1134 0.930 . S
H1157 C1135 0.931 . S
H1158 C1137 0.934 . S
H1159 C1138 0.930 . S
Ho1160 C1163 2.811 . S
Ho1160 O1180 2.322 . S
Ho1160 O1182 2.378 . S
Ho1160 O1183 2.524 . S
Ho1160 O1184 2.381 . S
Ho1160 O1185 2.669 . S
Ho1160 O1187 2.346 . S
Ho1160 O1191 2.305 . S
Ho1161 C1172 2.773 1_554 S
Ho1161 O1181 2.346 . S
Ho1161 O1185 2.305 . S
Ho1161 O1186 2.322 . S
Ho1161 O1188 2.378 . S
Ho1161 O1189 2.524 1_554 S
Ho1161 O1190 2.381 . S
Ho1161 O1191 2.669 . S
C1162 O1180 1.259 . S
C1162 O1181 1.268 . S
C1163 Ho1160 2.811 . S
C1163 C1164 1.488 . S
C1163 O1182 1.215 . S
C1163 O1183 1.289 . S
C1164 C1163 1.488 . S
C1164 C1165 1.348 . S
C1164 C1169 1.413 . S
C1165 C1164 1.348 . S
C1165 C1166 1.442 . S
C1165 H1192 0.930 . S
C1166 C1165 1.442 . S
C1166 C1167 1.381 . S
C1166 H1193 0.931 . S
C1167 C1166 1.381 . S
C1167 C1168 1.321 . S
C1168 C1167 1.321 . S
C1168 C1169 1.403 . S
C1168 H1194 0.934 . S
C1169 C1164 1.413 . S
C1169 C1168 1.403 . S
C1169 H1195 0.930 . S
C1170 O1184 1.275 . S
C1170 O1185 1.256 . S
C1171 O1186 1.259 1_556 S
C1171 O1187 1.268 1_556 S
C1172 Ho1161 2.773 1_556 S
C1172 C1173 1.526 . S
C1172 O1188 1.174 1_556 S
C1172 O1189 1.296 . S
C1173 C1172 1.526 . S
C1173 C1174 1.348 . S
C1173 C1178 1.413 . S
C1174 C1173 1.348 . S
C1174 C1175 1.442 . S
C1174 H1196 0.930 . S
C1175 C1174 1.442 . S
C1175 C1176 1.381 . S
C1175 H1197 0.931 . S
C1176 C1175 1.381 . S
C1176 C1177 1.321 . S
C1177 C1176 1.321 . S
C1177 C1178 1.403 . S
C1177 H1198 0.934 . S
C1178 C1173 1.413 . S
C1178 C1177 1.403 . S
C1178 H1199 0.930 . S
C1179 O1190 1.275 . S
C1179 O1191 1.256 . S
O1180 Ho1160 2.322 . S
O1180 C1162 1.259 . S
O1181 Ho1161 2.346 . S
O1181 C1162 1.268 . S
O1182 Ho1160 2.378 . S
O1182 C1163 1.215 . S
O1183 Ho1160 2.524 . S
O1183 C1163 1.289 . S
O1184 Ho1160 2.381 . S
O1184 C1170 1.275 . S
O1185 Ho1160 2.669 . S
O1185 Ho1161 2.305 . S
O1185 C1170 1.256 . S
O1186 Ho1161 2.322 . S
O1186 C1171 1.259 1_554 S
O1187 Ho1160 2.346 . S
O1187 C1171 1.268 1_554 S
O1188 Ho1161 2.378 . S
O1188 C1172 1.174 1_554 S
O1189 Ho1161 2.524 1_556 S
O1189 C1172 1.296 . S
O1190 Ho1161 2.381 . S
O1190 C1179 1.275 . S
O1191 Ho1160 2.305 . S
O1191 Ho1161 2.669 . S
O1191 C1179 1.256 . S
H1192 C1165 0.930 . S
H1193 C1166 0.931 . S
H1194 C1168 0.934 . S
H1195 C1169 0.930 . S
H1196 C1174 0.930 . S
H1197 C1175 0.931 . S
H1198 C1177 0.934 . S
H1199 C1178 0.930 . S
Ho1200 C1203 2.811 . S
Ho1200 O1220 2.322 . S
Ho1200 O1222 2.378 . S
Ho1200 O1223 2.524 . S
Ho1200 O1224 2.381 . S
Ho1200 O1225 2.669 . S
Ho1200 O1227 2.346 . S
Ho1200 O1231 2.305 . S
Ho1201 C1212 2.811 . S
Ho1201 O1221 2.346 . S
Ho1201 O1225 2.305 . S
Ho1201 O1226 2.322 . S
Ho1201 O1228 2.378 . S
Ho1201 O1229 2.524 . S
Ho1201 O1230 2.381 . S
Ho1201 O1231 2.669 . S
C1202 O1220 1.259 . S
C1202 O1221 1.268 . S
C1203 Ho1200 2.811 . S
C1203 C1204 1.488 . S
C1203 O1222 1.215 . S
C1203 O1223 1.289 . S
C1204 C1203 1.488 . S
C1204 C1205 1.348 . S
C1204 C1209 1.413 . S
C1205 C1204 1.348 . S
C1205 C1206 1.442 . S
C1205 H1232 0.930 . S
C1206 C1205 1.442 . S
C1206 C1207 1.381 . S
C1206 H1233 0.931 . S
C1207 C1206 1.381 . S
C1207 C1208 1.321 . S
C1208 C1207 1.321 . S
C1208 C1209 1.403 . S
C1208 H1234 0.934 . S
C1209 C1204 1.413 . S
C1209 C1208 1.403 . S
C1209 H1235 0.930 . S
C1210 O1224 1.275 . S
C1210 O1225 1.256 . S
C1211 O1226 1.259 . S
C1211 O1227 1.268 . S
C1212 Ho1201 2.811 . S
C1212 C1213 1.488 . S
C1212 O1228 1.215 . S
C1212 O1229 1.289 . S
C1213 C1212 1.488 . S
C1213 C1214 1.348 . S
C1213 C1218 1.413 . S
C1214 C1213 1.348 . S
C1214 C1215 1.442 . S
C1214 H1236 0.930 . S
C1215 C1214 1.442 . S
C1215 C1216 1.381 . S
C1215 H1237 0.931 . S
C1216 C1215 1.381 . S
C1216 C1217 1.321 . S
C1217 C1216 1.321 . S
C1217 C1218 1.403 . S
C1217 H1238 0.934 . S
C1218 C1213 1.413 . S
C1218 C1217 1.403 . S
C1218 H1239 0.930 . S
C1219 O1230 1.275 . S
C1219 O1231 1.256 . S
O1220 Ho1200 2.322 . S
O1220 C1202 1.259 . S
O1221 Ho1201 2.346 . S
O1221 C1202 1.268 . S
O1222 Ho1200 2.378 . S
O1222 C1203 1.215 . S
O1223 Ho1200 2.524 . S
O1223 C1203 1.289 . S
O1224 Ho1200 2.381 . S
O1224 C1210 1.275 . S
O1225 Ho1200 2.669 . S
O1225 Ho1201 2.305 . S
O1225 C1210 1.256 . S
O1226 Ho1201 2.322 . S
O1226 C1211 1.259 . S
O1227 Ho1200 2.346 . S
O1227 C1211 1.268 . S
O1228 Ho1201 2.378 . S
O1228 C1212 1.215 . S
O1229 Ho1201 2.524 . S
O1229 C1212 1.289 . S
O1230 Ho1201 2.381 . S
O1230 C1219 1.275 . S
O1231 Ho1200 2.305 . S
O1231 Ho1201 2.669 . S
O1231 C1219 1.256 . S
H1232 C1205 0.930 . S
H1233 C1206 0.931 . S
H1234 C1208 0.934 . S
H1235 C1209 0.930 . S
H1236 C1214 0.930 . S
H1237 C1215 0.931 . S
H1238 C1217 0.934 . S
H1239 C1218 0.930 . S
Ho1240 C1243 2.811 . S
Ho1240 O1260 2.322 . S
Ho1240 O1262 2.378 . S
Ho1240 O1263 2.524 . S
Ho1240 O1264 2.381 . S
Ho1240 O1265 2.669 . S
Ho1240 O1267 2.346 . S
Ho1240 O1271 2.305 . S
Ho1241 C1252 2.811 . S
Ho1241 O1261 2.346 . S
Ho1241 O1265 2.305 . S
Ho1241 O1266 2.322 . S
Ho1241 O1268 2.378 . S
Ho1241 O1269 2.524 . S
Ho1241 O1270 2.381 . S
Ho1241 O1271 2.669 . S
C1242 O1260 1.259 . S
C1242 O1261 1.268 . S
C1243 Ho1240 2.811 . S
C1243 C1244 1.488 . S
C1243 O1262 1.215 . S
C1243 O1263 1.289 . S
C1244 C1243 1.488 . S
C1244 C1245 1.348 . S
C1244 C1249 1.413 . S
C1245 C1244 1.348 . S
C1245 C1246 1.442 . S
C1245 H1272 0.930 . S
C1246 C1245 1.442 . S
C1246 C1247 1.381 . S
C1246 H1273 0.931 . S
C1247 C1246 1.381 . S
C1247 C1248 1.321 . S
C1248 C1247 1.321 . S
C1248 C1249 1.403 . S
C1248 H1274 0.934 . S
C1249 C1244 1.413 . S
C1249 C1248 1.403 . S
C1249 H1275 0.930 . S
C1250 O1264 1.275 . S
C1250 O1265 1.256 . S
C1251 O1266 1.259 . S
C1251 O1267 1.268 . S
C1252 Ho1241 2.811 . S
C1252 C1253 1.488 . S
C1252 O1268 1.215 . S
C1252 O1269 1.289 . S
C1253 C1252 1.488 . S
C1253 C1254 1.348 . S
C1253 C1258 1.413 . S
C1254 C1253 1.348 . S
C1254 C1255 1.442 . S
C1254 H1276 0.930 . S
C1255 C1254 1.442 . S
C1255 C1256 1.381 . S
C1255 H1277 0.931 . S
C1256 C1255 1.381 . S
C1256 C1257 1.321 . S
C1257 C1256 1.321 . S
C1257 C1258 1.403 . S
C1257 H1278 0.934 . S
C1258 C1253 1.413 . S
C1258 C1257 1.403 . S
C1258 H1279 0.930 . S
C1259 O1270 1.275 . S
C1259 O1271 1.256 . S
O1260 Ho1240 2.322 . S
O1260 C1242 1.259 . S
O1261 Ho1241 2.346 . S
O1261 C1242 1.268 . S
O1262 Ho1240 2.378 . S
O1262 C1243 1.215 . S
O1263 Ho1240 2.524 . S
O1263 C1243 1.289 . S
O1264 Ho1240 2.381 . S
O1264 C1250 1.275 . S
O1265 Ho1240 2.669 . S
O1265 Ho1241 2.305 . S
O1265 C1250 1.256 . S
O1266 Ho1241 2.322 . S
O1266 C1251 1.259 . S
O1267 Ho1240 2.346 . S
O1267 C1251 1.268 . S
O1268 Ho1241 2.378 . S
O1268 C1252 1.215 . S
O1269 Ho1241 2.524 . S
O1269 C1252 1.289 . S
O1270 Ho1241 2.381 . S
O1270 C1259 1.275 . S
O1271 Ho1240 2.305 . S
O1271 Ho1241 2.669 . S
O1271 C1259 1.256 . S
H1272 C1245 0.930 . S
H1273 C1246 0.931 . S
H1274 C1248 0.934 . S
H1275 C1249 0.930 . S
H1276 C1254 0.930 . S
H1277 C1255 0.931 . S
H1278 C1257 0.934 . S
H1279 C1258 0.930 . S
C1280 C1281 1.349 . S
C1280 C1282 1.327 . S
C1280 H1305 0.950 . S
C1281 C1280 1.349 . S
C1281 C1297 1.349 . S
C1282 C1280 1.327 . S
C1282 C1301 1.429 . S
C1282 H1306 0.950 . S
C1283 C1300 1.574 . S
C1283 C1302 1.368 . S
C1283 H1307 0.949 . S
H1284 C1288 0.949 . S
C1285 C1286 1.349 . S
C1285 C1287 1.327 . S
C1285 H1308 0.950 . S
C1286 C1285 1.349 . S
C1286 C1298 1.349 . S
C1287 C1285 1.327 . S
C1287 C1303 1.429 . S
C1287 H1309 0.950 . S
C1288 H1284 0.949 . S
C1288 C1296 1.574 . S
C1288 C1304 1.368 . S
H1289 C1297 0.950 . S
H1290 C1295 0.950 . S
H1291 C1296 0.949 . S
H1292 C1298 0.950 . S
H1293 C1299 0.950 . S
H1294 C1300 0.949 . S
C1295 H1290 0.950 . S
C1295 C1297 1.327 . S
C1295 C1301 1.429 . S
C1296 C1288 1.574 . S
C1296 H1291 0.949 . S
C1296 C1302 1.368 . S
C1297 C1281 1.349 . S
C1297 H1289 0.950 . S
C1297 C1295 1.327 . S
C1298 C1286 1.349 . S
C1298 H1292 0.950 . S
C1298 C1299 1.327 . S
C1299 H1293 0.950 . S
C1299 C1298 1.327 . S
C1299 C1303 1.429 . S
C1300 C1283 1.574 . S
C1300 H1294 0.949 . S
C1300 C1304 1.368 . S
C1301 C1282 1.429 . S
C1301 C1295 1.429 . S
C1301 C1302 1.523 . S
C1302 C1283 1.368 . S
C1302 C1296 1.368 . S
C1302 C1301 1.523 . S
C1303 C1287 1.429 . S
C1303 C1299 1.429 . S
C1303 C1304 1.523 . S
C1304 C1288 1.368 . S
C1304 C1300 1.368 . S
C1304 C1303 1.523 . S
H1305 C1280 0.950 . S
H1306 C1282 0.950 . S
H1307 C1283 0.949 . S
H1308 C1285 0.950 . S
H1309 C1287 0.950 . S
C1310 C1311 1.349 . S
C1310 C1312 1.327 . S
C1310 H1335 0.950 . S
C1311 C1310 1.349 . S
C1311 C1327 1.349 . S
C1312 C1310 1.327 . S
C1312 C1331 1.429 . S
C1312 H1336 0.950 . S
C1313 C1330 1.574 . S
C1313 C1332 1.368 . S
C1313 H1337 0.949 . S
H1314 C1318 0.949 . S
C1315 C1316 1.349 . S
C1315 C1317 1.327 . S
C1315 H1338 0.950 . S
C1316 C1315 1.349 . S
C1316 C1328 1.349 . S
C1317 C1315 1.327 . S
C1317 C1333 1.429 1_565 S
C1317 H1339 0.950 . S
C1318 H1314 0.949 . S
C1318 C1326 1.574 . S
C1318 C1334 1.368 . S
H1319 C1327 0.950 . S
H1320 C1325 0.950 . S
H1321 C1326 0.949 . S
H1322 C1328 0.950 1_545 S
H1323 C1329 0.950 . S
H1324 C1330 0.949 . S
C1325 H1320 0.950 . S
C1325 C1327 1.327 . S
C1325 C1331 1.429 . S
C1326 C1318 1.574 . S
C1326 H1321 0.949 . S
C1326 C1332 1.368 . S
C1327 C1311 1.349 . S
C1327 H1319 0.950 . S
C1327 C1325 1.327 . S
C1328 C1316 1.349 . S
C1328 H1322 0.950 1_565 S
C1328 C1329 1.327 1_565 S
C1329 H1323 0.950 . S
C1329 C1328 1.327 1_545 S
C1329 C1333 1.429 . S
C1330 C1313 1.574 . S
C1330 H1324 0.949 . S
C1330 C1334 1.368 . S
C1331 C1312 1.429 . S
C1331 C1325 1.429 . S
C1331 C1332 1.523 . S
C1332 C1313 1.368 . S
C1332 C1326 1.368 . S
C1332 C1331 1.523 . S
C1333 C1317 1.429 1_545 S
C1333 C1329 1.429 . S
C1333 C1334 1.523 . S
C1334 C1318 1.368 . S
C1334 C1330 1.368 . S
C1334 C1333 1.523 . S
H1335 C1310 0.950 . S
H1336 C1312 0.950 . S
H1337 C1313 0.949 . S
H1338 C1315 0.950 . S
H1339 C1317 0.950 . S
C1340 C1341 1.349 . S
C1340 C1342 1.327 . S
C1340 H1365 0.950 . S
C1341 C1340 1.349 . S
C1341 C1357 1.349 . S
C1342 C1340 1.327 . S
C1342 C1361 1.429 . S
C1342 H1366 0.950 . S
C1343 C1360 1.574 . S
C1343 C1362 1.368 . S
C1343 H1367 0.949 . S
H1344 C1348 0.949 . S
C1345 C1346 1.349 . S
C1345 C1347 1.327 . S
C1345 H1368 0.950 . S
C1346 C1345 1.349 . S
C1346 C1358 1.349 . S
C1347 C1345 1.327 . S
C1347 C1363 1.429 . S
C1347 H1369 0.950 . S
C1348 H1344 0.949 . S
C1348 C1356 1.574 . S
C1348 C1364 1.368 . S
H1349 C1357 0.950 . S
H1350 C1355 0.950 . S
H1351 C1356 0.949 . S
H1352 C1358 0.950 . S
H1353 C1359 0.950 . S
H1354 C1360 0.949 . S
C1355 H1350 0.950 . S
C1355 C1357 1.327 . S
C1355 C1361 1.429 . S
C1356 C1348 1.574 . S
C1356 H1351 0.949 . S
C1356 C1362 1.368 . S
C1357 C1341 1.349 . S
C1357 H1349 0.950 . S
C1357 C1355 1.327 . S
C1358 C1346 1.349 . S
C1358 H1352 0.950 . S
C1358 C1359 1.327 . S
C1359 H1353 0.950 . S
C1359 C1358 1.327 . S
C1359 C1363 1.429 . S
C1360 C1343 1.574 . S
C1360 H1354 0.949 . S
C1360 C1364 1.368 . S
C1361 C1342 1.429 . S
C1361 C1355 1.429 . S
C1361 C1362 1.523 . S
C1362 C1343 1.368 . S
C1362 C1356 1.368 . S
C1362 C1361 1.523 . S
C1363 C1347 1.429 . S
C1363 C1359 1.429 . S
C1363 C1364 1.523 . S
C1364 C1348 1.368 . S
C1364 C1360 1.368 . S
C1364 C1363 1.523 . S
H1365 C1340 0.950 . S
H1366 C1342 0.950 . S
H1367 C1343 0.949 . S
H1368 C1345 0.950 . S
H1369 C1347 0.950 . S
C1370 C1371 1.349 . S
C1370 C1372 1.327 . S
C1370 H1395 0.950 . S
C1371 C1370 1.349 . S
C1371 C1387 1.349 . S
C1372 C1370 1.327 . S
C1372 C1391 1.429 . S
C1372 H1396 0.950 . S
C1373 C1390 1.574 . S
C1373 C1392 1.368 . S
C1373 H1397 0.949 . S
H1374 C1378 0.949 . S
C1375 C1376 1.349 . S
C1375 C1377 1.327 1_545 S
C1375 H1398 0.950 . S
C1376 C1375 1.349 . S
C1376 C1388 1.349 . S
C1377 C1375 1.327 1_565 S
C1377 C1393 1.429 . S
C1377 H1399 0.950 . S
C1378 H1374 0.949 . S
C1378 C1386 1.574 . S
C1378 C1394 1.368 . S
H1379 C1387 0.950 . S
H1380 C1385 0.950 . S
H1381 C1386 0.949 . S
H1382 C1388 0.950 . S
H1383 C1389 0.950 . S
H1384 C1390 0.949 . S
C1385 H1380 0.950 . S
C1385 C1387 1.327 . S
C1385 C1391 1.429 . S
C1386 C1378 1.574 . S
C1386 H1381 0.949 . S
C1386 C1392 1.368 . S
C1387 C1371 1.349 . S
C1387 H1379 0.950 . S
C1387 C1385 1.327 . S
C1388 C1376 1.349 . S
C1388 H1382 0.950 . S
C1388 C1389 1.327 . S
C1389 H1383 0.950 . S
C1389 C1388 1.327 . S
C1389 C1393 1.429 1_545 S
C1390 C1373 1.574 . S
C1390 H1384 0.949 . S
C1390 C1394 1.368 . S
C1391 C1372 1.429 . S
C1391 C1385 1.429 . S
C1391 C1392 1.523 . S
C1392 C1373 1.368 . S
C1392 C1386 1.368 . S
C1392 C1391 1.523 . S
C1393 C1377 1.429 . S
C1393 C1389 1.429 1_565 S
C1393 C1394 1.523 . S
C1394 C1378 1.368 . S
C1394 C1390 1.368 . S
C1394 C1393 1.523 . S
H1395 C1370 0.950 . S
H1396 C1372 0.950 . S
H1397 C1373 0.949 . S
H1398 C1375 0.950 . S
H1399 C1377 0.950 . S
C1400 C1401 1.349 . S
C1400 C1402 1.327 . S
C1400 H1425 0.950 . S
C1401 C1400 1.349 . S
C1401 C1417 1.349 . S
C1402 C1400 1.327 . S
C1402 C1421 1.429 . S
C1402 H1426 0.950 . S
C1403 C1420 1.574 . S
C1403 C1422 1.368 . S
C1403 H1427 0.949 . S
H1404 C1408 0.949 . S
C1405 C1406 1.349 . S
C1405 C1407 1.327 . S
C1405 H1428 0.950 . S
C1406 C1405 1.349 . S
C1406 C1418 1.349 . S
C1407 C1405 1.327 . S
C1407 C1423 1.429 . S
C1407 H1429 0.950 . S
C1408 H1404 0.949 . S
C1408 C1416 1.574 . S
C1408 C1424 1.368 . S
H1409 C1417 0.950 . S
H1410 C1415 0.950 . S
H1411 C1416 0.949 . S
H1412 C1418 0.950 . S
H1413 C1419 0.950 . S
H1414 C1420 0.949 . S
C1415 H1410 0.950 . S
C1415 C1417 1.327 . S
C1415 C1421 1.429 . S
C1416 C1408 1.574 . S
C1416 H1411 0.949 . S
C1416 C1422 1.368 . S
C1417 C1401 1.349 . S
C1417 H1409 0.950 . S
C1417 C1415 1.327 . S
C1418 C1406 1.349 . S
C1418 H1412 0.950 . S
C1418 C1419 1.327 . S
C1419 H1413 0.950 . S
C1419 C1418 1.327 . S
C1419 C1423 1.429 . S
C1420 C1403 1.574 . S
C1420 H1414 0.949 . S
C1420 C1424 1.368 . S
C1421 C1402 1.429 . S
C1421 C1415 1.429 . S
C1421 C1422 1.523 . S
C1422 C1403 1.368 . S
C1422 C1416 1.368 . S
C1422 C1421 1.523 . S
C1423 C1407 1.429 . S
C1423 C1419 1.429 . S
C1423 C1424 1.523 . S
C1424 C1408 1.368 . S
C1424 C1420 1.368 . S
C1424 C1423 1.523 . S
H1425 C1400 0.950 . S
H1426 C1402 0.950 . S
H1427 C1403 0.949 . S
H1428 C1405 0.950 . S
H1429 C1407 0.950 . S
C1430 C1431 1.349 . S
C1430 C1432 1.327 . S
C1430 H1455 0.950 . S
C1431 C1430 1.349 . S
C1431 C1447 1.412 . S
C1432 C1430 1.327 . S
C1432 C1451 1.429 1_565 S
C1432 H1456 0.950 . S
C1433 C1450 1.574 . S
C1433 C1452 1.368 . S
C1433 H1457 0.949 . S
H1434 C1438 0.949 . S
C1435 C1436 1.349 . S
C1435 C1437 1.327 . S
C1435 H1458 0.950 . S
C1436 C1435 1.349 . S
C1436 C1448 1.349 . S
C1437 C1435 1.327 . S
C1437 C1453 1.429 . S
C1437 H1459 0.950 . S
C1438 H1434 0.949 . S
C1438 C1446 1.574 . S
C1438 C1454 1.368 . S
H1439 C1447 0.936 1_545 S
H1440 C1445 0.950 . S
H1441 C1446 0.949 . S
H1442 C1448 0.950 . S
H1443 C1449 0.950 . S
H1444 C1450 0.949 . S
C1445 H1440 0.950 . S
C1445 C1447 1.281 1_545 S
C1445 C1451 1.429 . S
C1446 C1438 1.574 . S
C1446 H1441 0.949 . S
C1446 C1452 1.368 . S
C1447 C1431 1.412 . S
C1447 H1439 0.936 1_565 S
C1447 C1445 1.281 1_565 S
C1448 C1436 1.349 . S
C1448 H1442 0.950 . S
C1448 C1449 1.327 . S
C1449 H1443 0.950 . S
C1449 C1448 1.327 . S
C1449 C1453 1.429 . S
C1450 C1433 1.574 . S
C1450 H1444 0.949 . S
C1450 C1454 1.368 . S
C1451 C1432 1.429 1_545 S
C1451 C1445 1.429 . S
C1451 C1452 1.523 . S
C1452 C1433 1.368 . S
C1452 C1446 1.368 . S
C1452 C1451 1.523 . S
C1453 C1437 1.429 . S
C1453 C1449 1.429 . S
C1453 C1454 1.523 . S
C1454 C1438 1.368 . S
C1454 C1450 1.368 . S
C1454 C1453 1.523 . S
H1455 C1430 0.950 . S
H1456 C1432 0.950 . S
H1457 C1433 0.949 . S
H1458 C1435 0.950 . S
H1459 C1437 0.950 . S
C1460 C1461 1.349 . S
C1460 C1462 1.327 . S
C1460 H1485 0.950 . S
C1461 C1460 1.349 . S
C1461 C1477 1.349 . S
C1462 C1460 1.327 . S
C1462 C1481 1.429 . S
C1462 H1486 0.950 . S
C1463 C1480 1.574 . S
C1463 C1482 1.368 . S
C1463 H1487 0.949 . S
H1464 C1468 0.949 . S
C1465 C1466 1.349 . S
C1465 C1467 1.327 . S
C1465 H1488 0.950 . S
C1466 C1465 1.349 . S
C1466 C1478 1.349 . S
C1467 C1465 1.327 . S
C1467 C1483 1.429 . S
C1467 H1489 0.950 . S
C1468 H1464 0.949 . S
C1468 C1476 1.574 . S
C1468 C1484 1.368 . S
H1469 C1477 0.950 . S
H1470 C1475 0.950 . S
H1471 C1476 0.949 . S
H1472 C1478 0.950 . S
H1473 C1479 0.950 . S
H1474 C1480 0.949 . S
C1475 H1470 0.950 . S
C1475 C1477 1.327 . S
C1475 C1481 1.429 . S
C1476 C1468 1.574 . S
C1476 H1471 0.949 . S
C1476 C1482 1.368 . S
C1477 C1461 1.349 . S
C1477 H1469 0.950 . S
C1477 C1475 1.327 . S
C1478 C1466 1.349 . S
C1478 H1472 0.950 . S
C1478 C1479 1.327 . S
C1479 H1473 0.950 . S
C1479 C1478 1.327 . S
C1479 C1483 1.429 . S
C1480 C1463 1.574 . S
C1480 H1474 0.949 . S
C1480 C1484 1.368 . S
C1481 C1462 1.429 . S
C1481 C1475 1.429 . S
C1481 C1482 1.523 . S
C1482 C1463 1.368 . S
C1482 C1476 1.368 . S
C1482 C1481 1.523 . S
C1483 C1467 1.429 . S
C1483 C1479 1.429 . S
C1483 C1484 1.523 . S
C1484 C1468 1.368 . S
C1484 C1480 1.368 . S
C1484 C1483 1.523 . S
H1485 C1460 0.950 . S
H1486 C1462 0.950 . S
H1487 C1463 0.949 . S
H1488 C1465 0.950 . S
H1489 C1467 0.950 . S
C1490 C1491 1.349 . S
C1490 C1492 1.327 . S
C1490 H1515 0.950 . S
C1491 C1490 1.349 . S
C1491 C1507 1.349 . S
C1492 C1490 1.327 . S
C1492 C1511 1.429 . S
C1492 H1516 0.950 . S
C1493 C1510 1.574 . S
C1493 C1512 1.368 . S
C1493 H1517 0.949 . S
H1494 C1498 0.949 . S
C1495 C1496 1.349 . S
C1495 C1497 1.327 1_545 S
C1495 H1518 0.950 . S
C1496 C1495 1.349 . S
C1496 C1508 1.349 . S
C1497 C1495 1.327 1_565 S
C1497 C1513 1.429 . S
C1497 H1519 0.950 . S
C1498 H1494 0.949 . S
C1498 C1506 1.574 . S
C1498 C1514 1.368 . S
H1499 C1507 0.950 . S
H1500 C1505 0.950 . S
H1501 C1506 0.949 . S
H1502 C1508 0.950 . S
H1503 C1509 0.950 . S
H1504 C1510 0.949 . S
C1505 H1500 0.950 . S
C1505 C1507 1.327 . S
C1505 C1511 1.429 . S
C1506 C1498 1.574 . S
C1506 H1501 0.949 . S
C1506 C1512 1.368 . S
C1507 C1491 1.349 . S
C1507 H1499 0.950 . S
C1507 C1505 1.327 . S
C1508 C1496 1.349 . S
C1508 H1502 0.950 . S
C1508 C1509 1.327 . S
C1509 H1503 0.950 . S
C1509 C1508 1.327 . S
C1509 C1513 1.429 1_545 S
C1510 C1493 1.574 . S
C1510 H1504 0.949 . S
C1510 C1514 1.368 . S
C1511 C1492 1.429 . S
C1511 C1505 1.429 . S
C1511 C1512 1.523 . S
C1512 C1493 1.368 . S
C1512 C1506 1.368 . S
C1512 C1511 1.523 . S
C1513 C1497 1.429 . S
C1513 C1509 1.429 1_565 S
C1513 C1514 1.523 . S
C1514 C1498 1.368 . S
C1514 C1510 1.368 . S
C1514 C1513 1.523 . S
H1515 C1490 0.950 . S
H1516 C1492 0.950 . S
H1517 C1493 0.949 . S
H1518 C1495 0.950 . S
H1519 C1497 0.950 . S
C1520 C1521 1.349 . S
C1520 C1522 1.327 . S
C1520 H1545 0.950 . S
C1521 C1520 1.349 . S
C1521 C1537 1.349 . S
C1522 C1520 1.327 . S
C1522 C1541 1.429 . S
C1522 H1546 0.950 . S
C1523 C1540 1.574 . S
C1523 C1542 1.368 . S
C1523 H1547 0.949 . S
H1524 C1528 0.949 . S
C1525 C1526 1.349 . S
C1525 C1527 1.327 . S
C1525 H1548 0.950 . S
C1526 C1525 1.349 . S
C1526 C1538 1.349 . S
C1527 C1525 1.327 . S
C1527 C1543 1.429 . S
C1527 H1549 0.950 . S
C1528 H1524 0.949 . S
C1528 C1536 1.574 . S
C1528 C1544 1.368 . S
H1529 C1537 0.950 . S
H1530 C1535 0.950 . S
H1531 C1536 0.949 . S
H1532 C1538 0.950 . S
H1533 C1539 0.950 . S
H1534 C1540 0.949 . S
C1535 H1530 0.950 . S
C1535 C1537 1.327 . S
C1535 C1541 1.429 . S
C1536 C1528 1.574 . S
C1536 H1531 0.949 . S
C1536 C1542 1.368 . S
C1537 C1521 1.349 . S
C1537 H1529 0.950 . S
C1537 C1535 1.327 . S
C1538 C1526 1.349 . S
C1538 H1532 0.950 . S
C1538 C1539 1.327 . S
C1539 H1533 0.950 . S
C1539 C1538 1.327 . S
C1539 C1543 1.429 . S
C1540 C1523 1.574 . S
C1540 H1534 0.949 . S
C1540 C1544 1.368 . S
C1541 C1522 1.429 . S
C1541 C1535 1.429 . S
C1541 C1542 1.523 . S
C1542 C1523 1.368 . S
C1542 C1536 1.368 . S
C1542 C1541 1.523 . S
C1543 C1527 1.429 . S
C1543 C1539 1.429 . S
C1543 C1544 1.523 . S
C1544 C1528 1.368 . S
C1544 C1540 1.368 . S
C1544 C1543 1.523 . S
H1545 C1520 0.950 . S
H1546 C1522 0.950 . S
H1547 C1523 0.949 . S
H1548 C1525 0.950 . S
H1549 C1527 0.950 . S
C1550 C1551 1.349 . S
C1550 C1552 1.327 . S
C1550 H1575 0.950 . S
C1551 C1550 1.349 . S
C1551 C1567 1.349 . S
C1552 C1550 1.327 . S
C1552 C1571 1.429 1_545 S
C1552 H1576 0.950 . S
C1553 C1570 1.574 . S
C1553 C1572 1.368 . S
C1553 H1577 0.949 . S
H1554 C1558 0.949 . S
C1555 C1556 1.349 . S
C1555 C1557 1.327 . S
C1555 H1578 0.950 . S
C1556 C1555 1.349 . S
C1556 C1568 1.349 . S
C1557 C1555 1.327 . S
C1557 C1573 1.429 . S
C1557 H1579 0.950 . S
C1558 H1554 0.949 . S
C1558 C1566 1.574 . S
C1558 C1574 1.368 . S
H1559 C1567 0.950 . S
H1560 C1565 0.950 . S
H1561 C1566 0.949 . S
H1562 C1568 0.950 . S
H1563 C1569 0.950 . S
H1564 C1570 0.949 . S
C1565 H1560 0.950 . S
C1565 C1567 1.327 1_565 S
C1565 C1571 1.429 . S
C1566 C1558 1.574 . S
C1566 H1561 0.949 . S
C1566 C1572 1.368 . S
C1567 C1551 1.349 . S
C1567 H1559 0.950 . S
C1567 C1565 1.327 1_545 S
C1568 C1556 1.349 . S
C1568 H1562 0.950 . S
C1568 C1569 1.327 . S
C1569 H1563 0.950 . S
C1569 C1568 1.327 . S
C1569 C1573 1.429 . S
C1570 C1553 1.574 . S
C1570 H1564 0.949 . S
C1570 C1574 1.368 . S
C1571 C1552 1.429 1_565 S
C1571 C1565 1.429 . S
C1571 C1572 1.523 . S
C1572 C1553 1.368 . S
C1572 C1566 1.368 . S
C1572 C1571 1.523 . S
C1573 C1557 1.429 . S
C1573 C1569 1.429 . S
C1573 C1574 1.523 . S
C1574 C1558 1.368 . S
C1574 C1570 1.368 . S
C1574 C1573 1.523 . S
H1575 C1550 0.950 . S
H1576 C1552 0.950 . S
H1577 C1553 0.949 . S
H1578 C1555 0.950 . S
H1579 C1557 0.950 . S
C1580 C1581 1.349 . S
C1580 C1582 1.327 . S
C1580 H1605 0.950 . S
C1581 C1580 1.349 . S
C1581 C1597 1.349 . S
C1582 C1580 1.327 . S
C1582 C1601 1.429 . S
C1582 H1606 0.950 . S
C1583 C1600 1.574 . S
C1583 C1602 1.368 . S
C1583 H1607 0.949 . S
H1584 C1588 0.949 . S
C1585 C1586 1.349 . S
C1585 C1587 1.327 . S
C1585 H1608 0.950 . S
C1586 C1585 1.349 . S
C1586 C1598 1.349 . S
C1587 C1585 1.327 . S
C1587 C1603 1.429 . S
C1587 H1609 0.950 . S
C1588 H1584 0.949 . S
C1588 C1596 1.574 . S
C1588 C1604 1.368 . S
H1589 C1597 0.950 . S
H1590 C1595 0.950 . S
H1591 C1596 0.949 . S
H1592 C1598 0.950 . S
H1593 C1599 0.950 . S
H1594 C1600 0.949 . S
C1595 H1590 0.950 . S
C1595 C1597 1.327 . S
C1595 C1601 1.429 . S
C1596 C1588 1.574 . S
C1596 H1591 0.949 . S
C1596 C1602 1.368 . S
C1597 C1581 1.349 . S
C1597 H1589 0.950 . S
C1597 C1595 1.327 . S
C1598 C1586 1.349 . S
C1598 H1592 0.950 . S
C1598 C1599 1.327 . S
C1599 H1593 0.950 . S
C1599 C1598 1.327 . S
C1599 C1603 1.429 . S
C1600 C1583 1.574 . S
C1600 H1594 0.949 . S
C1600 C1604 1.368 . S
C1601 C1582 1.429 . S
C1601 C1595 1.429 . S
C1601 C1602 1.523 . S
C1602 C1583 1.368 . S
C1602 C1596 1.368 . S
C1602 C1601 1.523 . S
C1603 C1587 1.429 . S
C1603 C1599 1.429 . S
C1603 C1604 1.523 . S
C1604 C1588 1.368 . S
C1604 C1600 1.368 . S
C1604 C1603 1.523 . S
H1605 C1580 0.950 . S
H1606 C1582 0.950 . S
H1607 C1583 0.949 . S
H1608 C1585 0.950 . S
H1609 C1587 0.950 . S
C1610 C1611 1.349 . S
C1610 C1612 1.327 1_565 S
C1610 H1635 0.950 1_565 S
C1611 C1610 1.349 . S
C1611 C1627 1.349 . S
C1612 C1610 1.327 1_545 S
C1612 C1631 1.429 . S
C1612 H1636 0.950 . S
C1613 C1630 1.574 . S
C1613 C1632 1.368 . S
C1613 H1637 0.949 . S
H1614 C1618 0.949 . S
C1615 C1616 1.349 . S
C1615 C1617 1.327 . S
C1615 H1638 0.950 . S
C1616 C1615 1.349 . S
C1616 C1628 1.349 . S
C1617 C1615 1.327 . S
C1617 C1633 1.429 . S
C1617 H1639 0.950 . S
C1618 H1614 0.949 . S
C1618 C1626 1.574 . S
C1618 C1634 1.368 . S
H1619 C1627 0.950 . S
H1620 C1625 0.950 . S
H1621 C1626 0.949 . S
H1622 C1628 0.950 . S
H1623 C1629 0.950 . S
H1624 C1630 0.949 . S
C1625 H1620 0.950 . S
C1625 C1627 1.327 . S
C1625 C1631 1.429 1_565 S
C1626 C1618 1.574 . S
C1626 H1621 0.949 . S
C1626 C1632 1.368 . S
C1627 C1611 1.349 . S
C1627 H1619 0.950 . S
C1627 C1625 1.327 . S
C1628 C1616 1.349 . S
C1628 H1622 0.950 . S
C1628 C1629 1.327 . S
C1629 H1623 0.950 . S
C1629 C1628 1.327 . S
C1629 C1633 1.429 . S
C1630 C1613 1.574 . S
C1630 H1624 0.949 . S
C1630 C1634 1.368 . S
C1631 C1612 1.429 . S
C1631 C1625 1.429 1_545 S
C1631 C1632 1.523 . S
C1632 C1613 1.368 . S
C1632 C1626 1.368 . S
C1632 C1631 1.523 . S
C1633 C1617 1.429 . S
C1633 C1629 1.429 . S
C1633 C1634 1.523 . S
C1634 C1618 1.368 . S
C1634 C1630 1.368 . S
C1634 C1633 1.523 . S
H1635 C1610 0.950 1_545 S
H1636 C1612 0.950 . S
H1637 C1613 0.949 . S
H1638 C1615 0.950 . S
H1639 C1617 0.950 . S
C1640 C1641 1.349 . S
C1640 C1642 1.327 . S
C1640 H1665 0.950 . S
C1641 C1640 1.349 . S
C1641 C1657 1.349 . S
C1642 C1640 1.327 . S
C1642 C1661 1.429 . S
C1642 H1666 0.950 . S
C1643 C1660 1.574 . S
C1643 C1662 1.368 . S
C1643 H1667 0.949 . S
H1644 C1648 0.949 . S
C1645 C1646 1.349 . S
C1645 C1647 1.327 . S
C1645 H1668 0.950 . S
C1646 C1645 1.349 . S
C1646 C1658 1.349 . S
C1647 C1645 1.327 . S
C1647 C1663 1.429 . S
C1647 H1669 0.950 . S
C1648 H1644 0.949 . S
C1648 C1656 1.574 . S
C1648 C1664 1.368 . S
H1649 C1657 0.950 . S
H1650 C1655 0.950 . S
H1651 C1656 0.949 . S
H1652 C1658 0.950 . S
H1653 C1659 0.950 . S
H1654 C1660 0.949 . S
C1655 H1650 0.950 . S
C1655 C1657 1.327 . S
C1655 C1661 1.429 . S
C1656 C1648 1.574 . S
C1656 H1651 0.949 . S
C1656 C1662 1.368 . S
C1657 C1641 1.349 . S
C1657 H1649 0.950 . S
C1657 C1655 1.327 . S
C1658 C1646 1.349 . S
C1658 H1652 0.950 . S
C1658 C1659 1.327 . S
C1659 H1653 0.950 . S
C1659 C1658 1.327 . S
C1659 C1663 1.429 . S
C1660 C1643 1.574 . S
C1660 H1654 0.949 . S
C1660 C1664 1.368 . S
C1661 C1642 1.429 . S
C1661 C1655 1.429 . S
C1661 C1662 1.523 . S
C1662 C1643 1.368 . S
C1662 C1656 1.368 . S
C1662 C1661 1.523 . S
C1663 C1647 1.429 . S
C1663 C1659 1.429 . S
C1663 C1664 1.523 . S
C1664 C1648 1.368 . S
C1664 C1660 1.368 . S
C1664 C1663 1.523 . S
H1665 C1640 0.950 . S
H1666 C1642 0.950 . S
H1667 C1643 0.949 . S
H1668 C1645 0.950 . S
H1669 C1647 0.950 . S
C1670 C1671 1.349 . S
C1670 C1672 1.327 . S
C1670 H1695 0.950 . S
C1671 C1670 1.349 . S
C1671 C1687 1.349 . S
C1672 C1670 1.327 . S
C1672 C1691 1.429 1_545 S
C1672 H1696 0.950 . S
C1673 C1690 1.574 . S
C1673 C1692 1.368 . S
C1673 H1697 0.949 . S
H1674 C1678 0.949 . S
C1675 C1676 1.349 . S
C1675 C1677 1.327 . S
C1675 H1698 0.950 . S
C1676 C1675 1.349 . S
C1676 C1688 1.349 . S
C1677 C1675 1.327 . S
C1677 C1693 1.429 . S
C1677 H1699 0.950 . S
C1678 H1674 0.949 . S
C1678 C1686 1.574 . S
C1678 C1694 1.368 . S
H1679 C1687 0.950 . S
H1680 C1685 0.950 . S
H1681 C1686 0.949 . S
H1682 C1688 0.950 . S
H1683 C1689 0.950 . S
H1684 C1690 0.949 . S
C1685 H1680 0.950 . S
C1685 C1687 1.327 1_565 S
C1685 C1691 1.429 . S
C1686 C1678 1.574 . S
C1686 H1681 0.949 . S
C1686 C1692 1.368 . S
C1687 C1671 1.349 . S
C1687 H1679 0.950 . S
C1687 C1685 1.327 1_545 S
C1688 C1676 1.349 . S
C1688 H1682 0.950 . S
C1688 C1689 1.327 . S
C1689 H1683 0.950 . S
C1689 C1688 1.327 . S
C1689 C1693 1.429 . S
C1690 C1673 1.574 . S
C1690 H1684 0.949 . S
C1690 C1694 1.368 . S
C1691 C1672 1.429 1_565 S
C1691 C1685 1.429 . S
C1691 C1692 1.523 . S
C1692 C1673 1.368 . S
C1692 C1686 1.368 . S
C1692 C1691 1.523 . S
C1693 C1677 1.429 . S
C1693 C1689 1.429 . S
C1693 C1694 1.523 . S
C1694 C1678 1.368 . S
C1694 C1690 1.368 . S
C1694 C1693 1.523 . S
H1695 C1670 0.950 . S
H1696 C1672 0.950 . S
H1697 C1673 0.949 . S
H1698 C1675 0.950 . S
H1699 C1677 0.950 . S
C1700 C1701 1.349 . S
C1700 C1702 1.327 . S
C1700 H1725 0.950 . S
C1701 C1700 1.349 . S
C1701 C1717 1.349 . S
C1702 C1700 1.327 . S
C1702 C1721 1.429 . S
C1702 H1726 0.950 . S
C1703 C1720 1.574 . S
C1703 C1722 1.368 . S
C1703 H1727 0.949 . S
H1704 C1708 0.949 . S
C1705 C1706 1.349 . S
C1705 C1707 1.327 . S
C1705 H1728 0.950 . S
C1706 C1705 1.349 . S
C1706 C1718 1.349 . S
C1707 C1705 1.327 . S
C1707 C1723 1.429 . S
C1707 H1729 0.950 . S
C1708 H1704 0.949 . S
C1708 C1716 1.574 . S
C1708 C1724 1.368 . S
H1709 C1717 0.950 . S
H1710 C1715 0.950 . S
H1711 C1716 0.949 . S
H1712 C1718 0.950 . S
H1713 C1719 0.950 . S
H1714 C1720 0.949 . S
C1715 H1710 0.950 . S
C1715 C1717 1.327 . S
C1715 C1721 1.429 . S
C1716 C1708 1.574 . S
C1716 H1711 0.949 . S
C1716 C1722 1.368 . S
C1717 C1701 1.349 . S
C1717 H1709 0.950 . S
C1717 C1715 1.327 . S
C1718 C1706 1.349 . S
C1718 H1712 0.950 . S
C1718 C1719 1.327 . S
C1719 H1713 0.950 . S
C1719 C1718 1.327 . S
C1719 C1723 1.429 . S
C1720 C1703 1.574 . S
C1720 H1714 0.949 . S
C1720 C1724 1.368 . S
C1721 C1702 1.429 . S
C1721 C1715 1.429 . S
C1721 C1722 1.523 . S
C1722 C1703 1.368 . S
C1722 C1716 1.368 . S
C1722 C1721 1.523 . S
C1723 C1707 1.429 . S
C1723 C1719 1.429 . S
C1723 C1724 1.523 . S
C1724 C1708 1.368 . S
C1724 C1720 1.368 . S
C1724 C1723 1.523 . S
H1725 C1700 0.950 . S
H1726 C1702 0.950 . S
H1727 C1703 0.949 . S
H1728 C1705 0.950 . S
H1729 C1707 0.950 . S
C1730 C1731 1.349 . S
C1730 C1732 1.327 . S
C1730 H1755 0.950 . S
C1731 C1730 1.349 . S
C1731 C1747 1.349 . S
C1732 C1730 1.327 . S
C1732 C1751 1.429 . S
C1732 H1756 0.950 . S
C1733 C1750 1.574 . S
C1733 C1752 1.368 . S
C1733 H1757 0.949 . S
H1734 C1738 0.949 . S
C1735 C1736 1.381 . S
C1735 C1737 1.304 1_565 S
C1735 H1758 0.941 1_565 S
C1736 C1735 1.381 . S
C1736 C1748 1.349 . S
C1737 C1735 1.304 1_545 S
C1737 C1753 1.429 . S
C1737 H1759 0.950 . S
C1738 H1734 0.949 . S
C1738 C1746 1.574 . S
C1738 C1754 1.368 . S
H1739 C1747 0.950 . S
H1740 C1745 0.950 . S
H1741 C1746 0.949 . S
H1742 C1748 0.950 . S
H1743 C1749 0.950 . S
H1744 C1750 0.949 . S
C1745 H1740 0.950 . S
C1745 C1747 1.327 . S
C1745 C1751 1.429 . S
C1746 C1738 1.574 . S
C1746 H1741 0.949 . S
C1746 C1752 1.368 . S
C1747 C1731 1.349 . S
C1747 H1739 0.950 . S
C1747 C1745 1.327 . S
C1748 C1736 1.349 . S
C1748 H1742 0.950 . S
C1748 C1749 1.327 . S
C1749 H1743 0.950 . S
C1749 C1748 1.327 . S
C1749 C1753 1.429 1_565 S
C1750 C1733 1.574 . S
C1750 H1744 0.949 . S
C1750 C1754 1.368 . S
C1751 C1732 1.429 . S
C1751 C1745 1.429 . S
C1751 C1752 1.523 . S
C1752 C1733 1.368 . S
C1752 C1746 1.368 . S
C1752 C1751 1.523 . S
C1753 C1737 1.429 . S
C1753 C1749 1.429 1_545 S
C1753 C1754 1.523 . S
C1754 C1738 1.368 . S
C1754 C1750 1.368 . S
C1754 C1753 1.523 . S
H1755 C1730 0.950 . S
H1756 C1732 0.950 . S
H1757 C1733 0.949 . S
H1758 C1735 0.941 1_545 S
H1759 C1737 0.950 . S
C1760 C1761 1.349 . S
C1760 C1762 1.327 . S
C1760 H1785 0.950 . S
C1761 C1760 1.349 . S
C1761 C1777 1.349 . S
C1762 C1760 1.327 . S
C1762 C1781 1.429 . S
C1762 H1786 0.950 . S
C1763 C1780 1.574 . S
C1763 C1782 1.368 . S
C1763 H1787 0.949 . S
H1764 C1768 0.949 . S
C1765 C1766 1.349 . S
C1765 C1767 1.327 . S
C1765 H1788 0.950 . S
C1766 C1765 1.349 . S
C1766 C1778 1.349 . S
C1767 C1765 1.327 . S
C1767 C1783 1.429 . S
C1767 H1789 0.950 . S
C1768 H1764 0.949 . S
C1768 C1776 1.574 . S
C1768 C1784 1.368 . S
H1769 C1777 0.950 . S
H1770 C1775 0.950 . S
H1771 C1776 0.949 . S
H1772 C1778 0.950 . S
H1773 C1779 0.950 . S
H1774 C1780 0.949 . S
C1775 H1770 0.950 . S
C1775 C1777 1.327 . S
C1775 C1781 1.429 . S
C1776 C1768 1.574 . S
C1776 H1771 0.949 . S
C1776 C1782 1.368 . S
C1777 C1761 1.349 . S
C1777 H1769 0.950 . S
C1777 C1775 1.327 . S
C1778 C1766 1.349 . S
C1778 H1772 0.950 . S
C1778 C1779 1.327 . S
C1779 H1773 0.950 . S
C1779 C1778 1.327 . S
C1779 C1783 1.429 . S
C1780 C1763 1.574 . S
C1780 H1774 0.949 . S
C1780 C1784 1.368 . S
C1781 C1762 1.429 . S
C1781 C1775 1.429 . S
C1781 C1782 1.523 . S
C1782 C1763 1.368 . S
C1782 C1776 1.368 . S
C1782 C1781 1.523 . S
C1783 C1767 1.429 . S
C1783 C1779 1.429 . S
C1783 C1784 1.523 . S
C1784 C1768 1.368 . S
C1784 C1780 1.368 . S
C1784 C1783 1.523 . S
H1785 C1760 0.950 . S
H1786 C1762 0.950 . S
H1787 C1763 0.949 . S
H1788 C1765 0.950 . S
H1789 C1767 0.950 . S
C1790 C1791 1.349 . S
C1790 C1792 1.327 . S
C1790 H1815 0.950 . S
C1791 C1790 1.349 . S
C1791 C1807 1.349 . S
C1792 C1790 1.327 . S
C1792 C1811 1.429 . S
C1792 H1816 0.950 . S
C1793 C1810 1.574 . S
C1793 C1812 1.368 . S
C1793 H1817 0.949 . S
H1794 C1798 0.949 . S
C1795 C1796 1.349 . S
C1795 C1797 1.327 . S
C1795 H1818 0.950 . S
C1796 C1795 1.349 . S
C1796 C1808 1.349 . S
C1797 C1795 1.327 . S
C1797 C1813 1.429 . S
C1797 H1819 0.950 . S
C1798 H1794 0.949 . S
C1798 C1806 1.574 . S
C1798 C1814 1.368 . S
H1799 C1807 0.950 . S
H1800 C1805 0.950 . S
H1801 C1806 0.949 . S
H1802 C1808 0.950 . S
H1803 C1809 0.950 . S
H1804 C1810 0.949 . S
C1805 H1800 0.950 . S
C1805 C1807 1.327 . S
C1805 C1811 1.429 . S
C1806 C1798 1.574 . S
C1806 H1801 0.949 . S
C1806 C1812 1.368 . S
C1807 C1791 1.349 . S
C1807 H1799 0.950 . S
C1807 C1805 1.327 . S
C1808 C1796 1.349 . S
C1808 H1802 0.950 . S
C1808 C1809 1.327 . S
C1809 H1803 0.950 . S
C1809 C1808 1.327 . S
C1809 C1813 1.429 . S
C1810 C1793 1.574 . S
C1810 H1804 0.949 . S
C1810 C1814 1.368 . S
C1811 C1792 1.429 . S
C1811 C1805 1.429 . S
C1811 C1812 1.523 . S
C1812 C1793 1.368 . S
C1812 C1806 1.368 . S
C1812 C1811 1.523 . S
C1813 C1797 1.429 . S
C1813 C1809 1.429 . S
C1813 C1814 1.523 . S
C1814 C1798 1.368 . S
C1814 C1810 1.368 . S
C1814 C1813 1.523 . S
H1815 C1790 0.950 . S
H1816 C1792 0.950 . S
H1817 C1793 0.949 . S
H1818 C1795 0.950 . S
H1819 C1797 0.950 . S
C1820 C1821 1.349 . S
C1820 C1822 1.327 . S
C1820 H1845 0.950 . S
C1821 C1820 1.349 . S
C1821 C1837 1.349 . S
C1822 C1820 1.327 . S
C1822 C1841 1.429 . S
C1822 H1846 0.950 . S
C1823 C1840 1.574 . S
C1823 C1842 1.368 . S
C1823 H1847 0.949 . S
H1824 C1828 0.949 . S
C1825 C1826 1.349 . S
C1825 C1827 1.327 . S
C1825 H1848 0.950 . S
C1826 C1825 1.349 . S
C1826 C1838 1.349 . S
C1827 C1825 1.327 . S
C1827 C1843 1.429 . S
C1827 H1849 0.950 . S
C1828 H1824 0.949 . S
C1828 C1836 1.574 . S
C1828 C1844 1.368 . S
H1829 C1837 0.950 . S
H1830 C1835 0.950 . S
H1831 C1836 0.949 . S
H1832 C1838 0.950 . S
H1833 C1839 0.950 . S
H1834 C1840 0.949 . S
C1835 H1830 0.950 . S
C1835 C1837 1.327 . S
C1835 C1841 1.429 . S
C1836 C1828 1.574 . S
C1836 H1831 0.949 . S
C1836 C1842 1.368 . S
C1837 C1821 1.349 . S
C1837 H1829 0.950 . S
C1837 C1835 1.327 . S
C1838 C1826 1.349 . S
C1838 H1832 0.950 . S
C1838 C1839 1.327 . S
C1839 H1833 0.950 . S
C1839 C1838 1.327 . S
C1839 C1843 1.429 . S
C1840 C1823 1.574 . S
C1840 H1834 0.949 . S
C1840 C1844 1.368 . S
C1841 C1822 1.429 . S
C1841 C1835 1.429 . S
C1841 C1842 1.523 . S
C1842 C1823 1.368 . S
C1842 C1836 1.368 . S
C1842 C1841 1.523 . S
C1843 C1827 1.429 . S
C1843 C1839 1.429 . S
C1843 C1844 1.523 . S
C1844 C1828 1.368 . S
C1844 C1840 1.368 . S
C1844 C1843 1.523 . S
H1845 C1820 0.950 . S
H1846 C1822 0.950 . S
H1847 C1823 0.949 . S
H1848 C1825 0.950 . S
H1849 C1827 0.950 . S
C1850 C1851 1.349 . S
C1850 C1852 1.327 . S
C1850 H1875 0.950 . S
C1851 C1850 1.349 . S
C1851 C1867 1.349 . S
C1852 C1850 1.327 . S
C1852 C1871 1.429 . S
C1852 H1876 0.950 . S
C1853 C1870 1.574 . S
C1853 C1872 1.368 . S
C1853 H1877 0.949 . S
H1854 C1858 0.949 . S
C1855 C1856 1.349 . S
C1855 C1857 1.327 . S
C1855 H1878 0.950 . S
C1856 C1855 1.349 . S
C1856 C1868 1.349 . S
C1857 C1855 1.327 . S
C1857 C1873 1.429 . S
C1857 H1879 0.950 . S
C1858 H1854 0.949 . S
C1858 C1866 1.574 . S
C1858 C1874 1.368 . S
H1859 C1867 0.950 . S
H1860 C1865 0.950 . S
H1861 C1866 0.949 . S
H1862 C1868 0.950 . S
H1863 C1869 0.950 . S
H1864 C1870 0.949 . S
C1865 H1860 0.950 . S
C1865 C1867 1.327 . S
C1865 C1871 1.429 . S
C1866 C1858 1.574 . S
C1866 H1861 0.949 . S
C1866 C1872 1.368 . S
C1867 C1851 1.349 . S
C1867 H1859 0.950 . S
C1867 C1865 1.327 . S
C1868 C1856 1.349 . S
C1868 H1862 0.950 . S
C1868 C1869 1.327 . S
C1869 H1863 0.950 . S
C1869 C1868 1.327 . S
C1869 C1873 1.429 . S
C1870 C1853 1.574 . S
C1870 H1864 0.949 . S
C1870 C1874 1.368 . S
C1871 C1852 1.429 . S
C1871 C1865 1.429 . S
C1871 C1872 1.523 . S
C1872 C1853 1.368 . S
C1872 C1866 1.368 . S
C1872 C1871 1.523 . S
C1873 C1857 1.429 . S
C1873 C1869 1.429 . S
C1873 C1874 1.523 . S
C1874 C1858 1.368 . S
C1874 C1870 1.368 . S
C1874 C1873 1.523 . S
H1875 C1850 0.950 . S
H1876 C1852 0.950 . S
H1877 C1853 0.949 . S
H1878 C1855 0.950 . S
H1879 C1857 0.950 . S
C1880 C1881 1.349 . S
C1880 C1882 1.327 . S
C1880 H1905 0.950 . S
C1881 C1880 1.349 . S
C1881 C1897 1.349 . S
C1882 C1880 1.327 . S
C1882 C1901 1.429 . S
C1882 H1906 0.950 . S
C1883 C1900 1.574 . S
C1883 C1902 1.368 . S
C1883 H1907 0.949 . S
H1884 C1888 0.949 . S
C1885 C1886 1.349 . S
C1885 C1887 1.327 . S
C1885 H1908 0.950 . S
C1886 C1885 1.349 . S
C1886 C1898 1.349 . S
C1887 C1885 1.327 . S
C1887 C1903 1.429 . S
C1887 H1909 0.950 . S
C1888 H1884 0.949 . S
C1888 C1896 1.574 . S
C1888 C1904 1.368 . S
H1889 C1897 0.950 . S
H1890 C1895 0.950 . S
H1891 C1896 0.949 . S
H1892 C1898 0.950 . S
H1893 C1899 0.950 . S
H1894 C1900 0.949 . S
C1895 H1890 0.950 . S
C1895 C1897 1.327 . S
C1895 C1901 1.429 . S
C1896 C1888 1.574 . S
C1896 H1891 0.949 . S
C1896 C1902 1.368 . S
C1897 C1881 1.349 . S
C1897 H1889 0.950 . S
C1897 C1895 1.327 . S
C1898 C1886 1.349 . S
C1898 H1892 0.950 . S
C1898 C1899 1.327 . S
C1899 H1893 0.950 . S
C1899 C1898 1.327 . S
C1899 C1903 1.429 . S
C1900 C1883 1.574 . S
C1900 H1894 0.949 . S
C1900 C1904 1.368 . S
C1901 C1882 1.429 . S
C1901 C1895 1.429 . S
C1901 C1902 1.523 . S
C1902 C1883 1.368 . S
C1902 C1896 1.368 . S
C1902 C1901 1.523 . S
C1903 C1887 1.429 . S
C1903 C1899 1.429 . S
C1903 C1904 1.523 . S
C1904 C1888 1.368 . S
C1904 C1900 1.368 . S
C1904 C1903 1.523 . S
H1905 C1880 0.950 . S
H1906 C1882 0.950 . S
H1907 C1883 0.949 . S
H1908 C1885 0.950 . S
H1909 C1887 0.950 . S
C1910 C1911 1.349 . S
C1910 C1912 1.327 . S
C1910 H1935 0.950 . S
C1911 C1910 1.349 . S
C1911 C1927 1.349 . S
C1912 C1910 1.327 . S
C1912 C1931 1.429 . S
C1912 H1936 0.950 . S
C1913 C1930 1.574 . S
C1913 C1932 1.368 . S
C1913 H1937 0.949 . S
H1914 C1918 0.949 . S
C1915 C1916 1.349 . S
C1915 C1917 1.327 . S
C1915 H1938 0.950 . S
C1916 C1915 1.349 . S
C1916 C1928 1.349 . S
C1917 C1915 1.327 . S
C1917 C1933 1.429 . S
C1917 H1939 0.950 . S
C1918 H1914 0.949 . S
C1918 C1926 1.574 . S
C1918 C1934 1.368 . S
H1919 C1927 0.950 . S
H1920 C1925 0.950 . S
H1921 C1926 0.949 . S
H1922 C1928 0.950 . S
H1923 C1929 0.950 . S
H1924 C1930 0.949 . S
C1925 H1920 0.950 . S
C1925 C1927 1.327 . S
C1925 C1931 1.429 . S
C1926 C1918 1.574 . S
C1926 H1921 0.949 . S
C1926 C1932 1.368 . S
C1927 C1911 1.349 . S
C1927 H1919 0.950 . S
C1927 C1925 1.327 . S
C1928 C1916 1.349 . S
C1928 H1922 0.950 . S
C1928 C1929 1.327 . S
C1929 H1923 0.950 . S
C1929 C1928 1.327 . S
C1929 C1933 1.429 . S
C1930 C1913 1.574 . S
C1930 H1924 0.949 . S
C1930 C1934 1.368 . S
C1931 C1912 1.429 . S
C1931 C1925 1.429 . S
C1931 C1932 1.523 . S
C1932 C1913 1.368 . S
C1932 C1926 1.368 . S
C1932 C1931 1.523 . S
C1933 C1917 1.429 . S
C1933 C1929 1.429 . S
C1933 C1934 1.523 . S
C1934 C1918 1.368 . S
C1934 C1930 1.368 . S
C1934 C1933 1.523 . S
H1935 C1910 0.950 . S
H1936 C1912 0.950 . S
H1937 C1913 0.949 . S
H1938 C1915 0.950 . S
H1939 C1917 0.950 . S
C1940 C1941 1.349 . S
C1940 C1942 1.327 . S
C1940 H1965 0.950 . S
C1941 C1940 1.349 . S
C1941 C1957 1.349 . S
C1942 C1940 1.327 . S
C1942 C1961 1.429 . S
C1942 H1966 0.950 . S
C1943 C1960 1.574 . S
C1943 C1962 1.368 . S
C1943 H1967 0.949 . S
H1944 C1948 0.949 . S
C1945 C1946 1.349 . S
C1945 C1947 1.327 . S
C1945 H1968 0.950 . S
C1946 C1945 1.349 . S
C1946 C1958 1.349 . S
C1947 C1945 1.327 . S
C1947 C1963 1.429 . S
C1947 H1969 0.950 . S
C1948 H1944 0.949 . S
C1948 C1956 1.574 . S
C1948 C1964 1.368 . S
H1949 C1957 0.950 . S
H1950 C1955 0.950 . S
H1951 C1956 0.949 . S
H1952 C1958 0.950 . S
H1953 C1959 0.950 . S
H1954 C1960 0.949 . S
C1955 H1950 0.950 . S
C1955 C1957 1.327 . S
C1955 C1961 1.429 . S
C1956 C1948 1.574 . S
C1956 H1951 0.949 . S
C1956 C1962 1.368 . S
C1957 C1941 1.349 . S
C1957 H1949 0.950 . S
C1957 C1955 1.327 . S
C1958 C1946 1.349 . S
C1958 H1952 0.950 . S
C1958 C1959 1.327 . S
C1959 H1953 0.950 . S
C1959 C1958 1.327 . S
C1959 C1963 1.429 . S
C1960 C1943 1.574 . S
C1960 H1954 0.949 . S
C1960 C1964 1.368 . S
C1961 C1942 1.429 . S
C1961 C1955 1.429 . S
C1961 C1962 1.523 . S
C1962 C1943 1.368 . S
C1962 C1956 1.368 . S
C1962 C1961 1.523 . S
C1963 C1947 1.429 . S
C1963 C1959 1.429 . S
C1963 C1964 1.523 . S
C1964 C1948 1.368 . S
C1964 C1960 1.368 . S
C1964 C1963 1.523 . S
H1965 C1940 0.950 . S
H1966 C1942 0.950 . S
H1967 C1943 0.949 . S
H1968 C1945 0.950 . S
H1969 C1947 0.950 . S
C1970 C1971 1.349 . S
C1970 C1972 1.327 . S
C1970 H1995 0.950 . S
C1971 C1970 1.349 . S
C1971 C1987 1.349 . S
C1972 C1970 1.327 . S
C1972 C1991 1.429 . S
C1972 H1996 0.950 . S
C1973 C1990 1.574 . S
C1973 C1992 1.368 . S
C1973 H1997 0.949 . S
H1974 C1978 0.949 . S
C1975 C1976 1.349 . S
C1975 C1977 1.327 . S
C1975 H1998 0.950 . S
C1976 C1975 1.349 . S
C1976 C1988 1.349 . S
C1977 C1975 1.327 . S
C1977 C1993 1.429 . S
C1977 H1999 0.950 . S
C1978 H1974 0.949 . S
C1978 C1986 1.574 . S
C1978 C1994 1.368 . S
H1979 C1987 0.950 . S
H1980 C1985 0.950 . S
H1981 C1986 0.949 . S
H1982 C1988 0.950 . S
H1983 C1989 0.950 . S
H1984 C1990 0.949 . S
C1985 H1980 0.950 . S
C1985 C1987 1.327 . S
C1985 C1991 1.429 . S
C1986 C1978 1.574 . S
C1986 H1981 0.949 . S
C1986 C1992 1.368 . S
C1987 C1971 1.349 . S
C1987 H1979 0.950 . S
C1987 C1985 1.327 . S
C1988 C1976 1.349 . S
C1988 H1982 0.950 . S
C1988 C1989 1.327 . S
C1989 H1983 0.950 . S
C1989 C1988 1.327 . S
C1989 C1993 1.429 . S
C1990 C1973 1.574 . S
C1990 H1984 0.949 . S
C1990 C1994 1.368 . S
C1991 C1972 1.429 . S
C1991 C1985 1.429 . S
C1991 C1992 1.523 . S
C1992 C1973 1.368 . S
C1992 C1986 1.368 . S
C1992 C1991 1.523 . S
C1993 C1977 1.429 . S
C1993 C1989 1.429 . S
C1993 C1994 1.523 . S
C1994 C1978 1.368 . S
C1994 C1990 1.368 . S
C1994 C1993 1.523 . S
H1995 C1970 0.950 . S
H1996 C1972 0.950 . S
H1997 C1973 0.949 . S
H1998 C1975 0.950 . S
H1999 C1977 0.950 . S
C2000 C2001 1.349 . S
C2000 C2002 1.327 . S
C2000 H2025 0.950 . S
C2001 C2000 1.349 . S
C2001 C2017 1.349 . S
C2002 C2000 1.327 . S
C2002 C2021 1.429 . S
C2002 H2026 0.950 . S
C2003 C2020 1.574 . S
C2003 C2022 1.368 . S
C2003 H2027 0.949 . S
H2004 C2008 0.949 . S
C2005 C2006 1.349 . S
C2005 C2007 1.327 . S
C2005 H2028 0.950 . S
C2006 C2005 1.349 . S
C2006 C2018 1.349 . S
C2007 C2005 1.327 . S
C2007 C2023 1.429 . S
C2007 H2029 0.950 . S
C2008 H2004 0.949 . S
C2008 C2016 1.574 . S
C2008 C2024 1.368 . S
H2009 C2017 0.950 . S
H2010 C2015 0.950 . S
H2011 C2016 0.949 . S
H2012 C2018 0.950 . S
H2013 C2019 0.950 . S
H2014 C2020 0.949 . S
C2015 H2010 0.950 . S
C2015 C2017 1.327 . S
C2015 C2021 1.429 . S
C2016 C2008 1.574 . S
C2016 H2011 0.949 . S
C2016 C2022 1.368 . S
C2017 C2001 1.349 . S
C2017 H2009 0.950 . S
C2017 C2015 1.327 . S
C2018 C2006 1.349 . S
C2018 H2012 0.950 . S
C2018 C2019 1.327 . S
C2019 H2013 0.950 . S
C2019 C2018 1.327 . S
C2019 C2023 1.429 . S
C2020 C2003 1.574 . S
C2020 H2014 0.949 . S
C2020 C2024 1.368 . S
C2021 C2002 1.429 . S
C2021 C2015 1.429 . S
C2021 C2022 1.523 . S
C2022 C2003 1.368 . S
C2022 C2016 1.368 . S
C2022 C2021 1.523 . S
C2023 C2007 1.429 . S
C2023 C2019 1.429 . S
C2023 C2024 1.523 . S
C2024 C2008 1.368 . S
C2024 C2020 1.368 . S
C2024 C2023 1.523 . S
H2025 C2000 0.950 . S
H2026 C2002 0.950 . S
H2027 C2003 0.949 . S
H2028 C2005 0.950 . S
H2029 C2007 0.950 . S
C2030 C2031 1.349 . S
C2030 C2032 1.327 . S
C2030 H2055 0.950 . S
C2031 C2030 1.349 . S
C2031 C2047 1.349 . S
C2032 C2030 1.327 . S
C2032 C2051 1.429 . S
C2032 H2056 0.950 . S
C2033 C2050 1.574 . S
C2033 C2052 1.368 . S
C2033 H2057 0.949 . S
H2034 C2038 0.949 . S
C2035 C2036 1.349 . S
C2035 C2037 1.327 . S
C2035 H2058 0.950 . S
C2036 C2035 1.349 . S
C2036 C2048 1.349 . S
C2037 C2035 1.327 . S
C2037 C2053 1.429 . S
C2037 H2059 0.950 . S
C2038 H2034 0.949 . S
C2038 C2046 1.574 . S
C2038 C2054 1.368 . S
H2039 C2047 0.950 . S
H2040 C2045 0.950 . S
H2041 C2046 0.949 . S
H2042 C2048 0.950 . S
H2043 C2049 0.950 . S
H2044 C2050 0.949 . S
C2045 H2040 0.950 . S
C2045 C2047 1.327 . S
C2045 C2051 1.429 . S
C2046 C2038 1.574 . S
C2046 H2041 0.949 . S
C2046 C2052 1.368 . S
C2047 C2031 1.349 . S
C2047 H2039 0.950 . S
C2047 C2045 1.327 . S
C2048 C2036 1.349 . S
C2048 H2042 0.950 . S
C2048 C2049 1.327 . S
C2049 H2043 0.950 . S
C2049 C2048 1.327 . S
C2049 C2053 1.429 . S
C2050 C2033 1.574 . S
C2050 H2044 0.949 . S
C2050 C2054 1.368 . S
C2051 C2032 1.429 . S
C2051 C2045 1.429 . S
C2051 C2052 1.523 . S
C2052 C2033 1.368 . S
C2052 C2046 1.368 . S
C2052 C2051 1.523 . S
C2053 C2037 1.429 . S
C2053 C2049 1.429 . S
C2053 C2054 1.523 . S
C2054 C2038 1.368 . S
C2054 C2050 1.368 . S
C2054 C2053 1.523 . S
H2055 C2030 0.950 . S
H2056 C2032 0.950 . S
H2057 C2033 0.949 . S
H2058 C2035 0.950 . S
H2059 C2037 0.950 . S
C2060 C2061 1.349 . S
C2060 C2062 1.327 . S
C2060 H2085 0.950 . S
C2061 C2060 1.349 . S
C2061 C2077 1.349 . S
C2062 C2060 1.327 . S
C2062 C2081 1.429 . S
C2062 H2086 0.950 . S
C2063 C2080 1.574 . S
C2063 C2082 1.368 . S
C2063 H2087 0.949 . S
H2064 C2068 0.949 . S
C2065 C2066 1.349 . S
C2065 C2067 1.327 . S
C2065 H2088 0.950 . S
C2066 C2065 1.349 . S
C2066 C2078 1.349 . S
C2067 C2065 1.327 . S
C2067 C2083 1.429 . S
C2067 H2089 0.950 . S
C2068 H2064 0.949 . S
C2068 C2076 1.574 . S
C2068 C2084 1.368 . S
H2069 C2077 0.950 . S
H2070 C2075 0.950 . S
H2071 C2076 0.949 . S
H2072 C2078 0.950 . S
H2073 C2079 0.950 . S
H2074 C2080 0.949 . S
C2075 H2070 0.950 . S
C2075 C2077 1.327 . S
C2075 C2081 1.429 . S
C2076 C2068 1.574 . S
C2076 H2071 0.949 . S
C2076 C2082 1.368 . S
C2077 C2061 1.349 . S
C2077 H2069 0.950 . S
C2077 C2075 1.327 . S
C2078 C2066 1.349 . S
C2078 H2072 0.950 . S
C2078 C2079 1.327 . S
C2079 H2073 0.950 . S
C2079 C2078 1.327 . S
C2079 C2083 1.429 . S
C2080 C2063 1.574 . S
C2080 H2074 0.949 . S
C2080 C2084 1.368 . S
C2081 C2062 1.429 . S
C2081 C2075 1.429 . S
C2081 C2082 1.523 . S
C2082 C2063 1.368 . S
C2082 C2076 1.368 . S
C2082 C2081 1.523 . S
C2083 C2067 1.429 . S
C2083 C2079 1.429 . S
C2083 C2084 1.523 . S
C2084 C2068 1.368 . S
C2084 C2080 1.368 . S
C2084 C2083 1.523 . S
H2085 C2060 0.950 . S
H2086 C2062 0.950 . S
H2087 C2063 0.949 . S
H2088 C2065 0.950 . S
H2089 C2067 0.950 . S
C2090 C2091 1.349 . S
C2090 C2092 1.327 . S
C2090 H2115 0.950 . S
C2091 C2090 1.349 . S
C2091 C2107 1.349 . S
C2092 C2090 1.327 . S
C2092 C2111 1.429 . S
C2092 H2116 0.950 . S
C2093 C2110 1.574 . S
C2093 C2112 1.368 . S
C2093 H2117 0.949 . S
H2094 C2098 0.949 . S
C2095 C2096 1.349 . S
C2095 C2097 1.327 . S
C2095 H2118 0.950 . S
C2096 C2095 1.349 . S
C2096 C2108 1.349 . S
C2097 C2095 1.327 . S
C2097 C2113 1.429 . S
C2097 H2119 0.950 . S
C2098 H2094 0.949 . S
C2098 C2106 1.574 . S
C2098 C2114 1.368 . S
H2099 C2107 0.950 . S
H2100 C2105 0.950 . S
H2101 C2106 0.949 . S
H2102 C2108 0.950 . S
H2103 C2109 0.950 . S
H2104 C2110 0.949 . S
C2105 H2100 0.950 . S
C2105 C2107 1.327 . S
C2105 C2111 1.429 . S
C2106 C2098 1.574 . S
C2106 H2101 0.949 . S
C2106 C2112 1.368 . S
C2107 C2091 1.349 . S
C2107 H2099 0.950 . S
C2107 C2105 1.327 . S
C2108 C2096 1.349 . S
C2108 H2102 0.950 . S
C2108 C2109 1.327 . S
C2109 H2103 0.950 . S
C2109 C2108 1.327 . S
C2109 C2113 1.429 . S
C2110 C2093 1.574 . S
C2110 H2104 0.949 . S
C2110 C2114 1.368 . S
C2111 C2092 1.429 . S
C2111 C2105 1.429 . S
C2111 C2112 1.523 . S
C2112 C2093 1.368 . S
C2112 C2106 1.368 . S
C2112 C2111 1.523 . S
C2113 C2097 1.429 . S
C2113 C2109 1.429 . S
C2113 C2114 1.523 . S
C2114 C2098 1.368 . S
C2114 C2110 1.368 . S
C2114 C2113 1.523 . S
H2115 C2090 0.950 . S
H2116 C2092 0.950 . S
H2117 C2093 0.949 . S
H2118 C2095 0.950 . S
H2119 C2097 0.950 . S
C2120 C2121 1.349 . S
C2120 C2122 1.327 . S
C2120 H2145 0.950 . S
C2121 C2120 1.349 . S
C2121 C2137 1.349 . S
C2122 C2120 1.327 . S
C2122 C2141 1.429 . S
C2122 H2146 0.950 . S
C2123 C2140 1.574 . S
C2123 C2142 1.368 . S
C2123 H2147 0.949 . S
H2124 C2128 0.949 . S
C2125 C2126 1.349 . S
C2125 C2127 1.327 . S
C2125 H2148 0.950 . S
C2126 C2125 1.349 . S
C2126 C2138 1.349 . S
C2127 C2125 1.327 . S
C2127 C2143 1.429 . S
C2127 H2149 0.950 . S
C2128 H2124 0.949 . S
C2128 C2136 1.574 . S
C2128 C2144 1.368 . S
H2129 C2137 0.950 . S
H2130 C2135 0.950 . S
H2131 C2136 0.949 . S
H2132 C2138 0.950 . S
H2133 C2139 0.950 . S
H2134 C2140 0.949 . S
C2135 H2130 0.950 . S
C2135 C2137 1.327 . S
C2135 C2141 1.429 . S
C2136 C2128 1.574 . S
C2136 H2131 0.949 . S
C2136 C2142 1.368 . S
C2137 C2121 1.349 . S
C2137 H2129 0.950 . S
C2137 C2135 1.327 . S
C2138 C2126 1.349 . S
C2138 H2132 0.950 . S
C2138 C2139 1.327 . S
C2139 H2133 0.950 . S
C2139 C2138 1.327 . S
C2139 C2143 1.429 . S
C2140 C2123 1.574 . S
C2140 H2134 0.949 . S
C2140 C2144 1.368 . S
C2141 C2122 1.429 . S
C2141 C2135 1.429 . S
C2141 C2142 1.523 . S
C2142 C2123 1.368 . S
C2142 C2136 1.368 . S
C2142 C2141 1.523 . S
C2143 C2127 1.429 . S
C2143 C2139 1.429 . S
C2143 C2144 1.523 . S
C2144 C2128 1.368 . S
C2144 C2140 1.368 . S
C2144 C2143 1.523 . S
H2145 C2120 0.950 . S
H2146 C2122 0.950 . S
H2147 C2123 0.949 . S
H2148 C2125 0.950 . S
H2149 C2127 0.950 . S
C2150 C2151 1.349 . S
C2150 C2152 1.327 . S
C2150 H2175 0.950 . S
C2151 C2150 1.349 . S
C2151 C2167 1.349 . S
C2152 C2150 1.327 . S
C2152 C2171 1.429 . S
C2152 H2176 0.950 . S
C2153 C2170 1.574 . S
C2153 C2172 1.368 . S
C2153 H2177 0.949 . S
H2154 C2158 0.949 . S
C2155 C2156 1.349 . S
C2155 C2157 1.327 . S
C2155 H2178 0.950 . S
C2156 C2155 1.349 . S
C2156 C2168 1.349 . S
C2157 C2155 1.327 . S
C2157 C2173 1.429 . S
C2157 H2179 0.950 . S
C2158 H2154 0.949 . S
C2158 C2166 1.574 . S
C2158 C2174 1.368 . S
H2159 C2167 0.950 . S
H2160 C2165 0.950 . S
H2161 C2166 0.949 . S
H2162 C2168 0.950 . S
H2163 C2169 0.950 . S
H2164 C2170 0.949 . S
C2165 H2160 0.950 . S
C2165 C2167 1.327 . S
C2165 C2171 1.429 . S
C2166 C2158 1.574 . S
C2166 H2161 0.949 . S
C2166 C2172 1.368 . S
C2167 C2151 1.349 . S
C2167 H2159 0.950 . S
C2167 C2165 1.327 . S
C2168 C2156 1.349 . S
C2168 H2162 0.950 . S
C2168 C2169 1.327 . S
C2169 H2163 0.950 . S
C2169 C2168 1.327 . S
C2169 C2173 1.429 . S
C2170 C2153 1.574 . S
C2170 H2164 0.949 . S
C2170 C2174 1.368 . S
C2171 C2152 1.429 . S
C2171 C2165 1.429 . S
C2171 C2172 1.523 . S
C2172 C2153 1.368 . S
C2172 C2166 1.368 . S
C2172 C2171 1.523 . S
C2173 C2157 1.429 . S
C2173 C2169 1.429 . S
C2173 C2174 1.523 . S
C2174 C2158 1.368 . S
C2174 C2170 1.368 . S
C2174 C2173 1.523 . S
H2175 C2150 0.950 . S
H2176 C2152 0.950 . S
H2177 C2153 0.949 . S
H2178 C2155 0.950 . S
H2179 C2157 0.950 . S
C2180 C2181 1.349 . S
C2180 C2182 1.327 . S
C2180 H2205 0.950 . S
C2181 C2180 1.349 . S
C2181 C2197 1.349 . S
C2182 C2180 1.327 . S
C2182 C2201 1.429 . S
C2182 H2206 0.950 . S
C2183 C2200 1.574 . S
C2183 C2202 1.368 . S
C2183 H2207 0.949 . S
H2184 C2188 0.949 . S
C2185 C2186 1.349 . S
C2185 C2187 1.327 . S
C2185 H2208 0.950 . S
C2186 C2185 1.349 . S
C2186 C2198 1.349 . S
C2187 C2185 1.327 . S
C2187 C2203 1.429 . S
C2187 H2209 0.950 . S
C2188 H2184 0.949 . S
C2188 C2196 1.574 . S
C2188 C2204 1.368 . S
H2189 C2197 0.950 . S
H2190 C2195 0.950 . S
H2191 C2196 0.949 . S
H2192 C2198 0.950 . S
H2193 C2199 0.950 . S
H2194 C2200 0.949 . S
C2195 H2190 0.950 . S
C2195 C2197 1.327 . S
C2195 C2201 1.429 . S
C2196 C2188 1.574 . S
C2196 H2191 0.949 . S
C2196 C2202 1.368 . S
C2197 C2181 1.349 . S
C2197 H2189 0.950 . S
C2197 C2195 1.327 . S
C2198 C2186 1.349 . S
C2198 H2192 0.950 . S
C2198 C2199 1.327 . S
C2199 H2193 0.950 . S
C2199 C2198 1.327 . S
C2199 C2203 1.429 . S
C2200 C2183 1.574 . S
C2200 H2194 0.949 . S
C2200 C2204 1.368 . S
C2201 C2182 1.429 . S
C2201 C2195 1.429 . S
C2201 C2202 1.523 . S
C2202 C2183 1.368 . S
C2202 C2196 1.368 . S
C2202 C2201 1.523 . S
C2203 C2187 1.429 . S
C2203 C2199 1.429 . S
C2203 C2204 1.523 . S
C2204 C2188 1.368 . S
C2204 C2200 1.368 . S
C2204 C2203 1.523 . S
H2205 C2180 0.950 . S
H2206 C2182 0.950 . S
H2207 C2183 0.949 . S
H2208 C2185 0.950 . S
H2209 C2187 0.950 . S
C2210 C2211 1.349 . S
C2210 C2212 1.327 . S
C2210 H2235 0.950 . S
C2211 C2210 1.349 . S
C2211 C2227 1.349 . S
C2212 C2210 1.327 . S
C2212 C2231 1.429 . S
C2212 H2236 0.950 . S
C2213 C2230 1.574 . S
C2213 C2232 1.368 . S
C2213 H2237 0.949 . S
H2214 C2218 0.949 . S
C2215 C2216 1.349 . S
C2215 C2217 1.327 . S
C2215 H2238 0.950 . S
C2216 C2215 1.349 . S
C2216 C2228 1.349 . S
C2217 C2215 1.327 . S
C2217 C2233 1.429 . S
C2217 H2239 0.950 . S
C2218 H2214 0.949 . S
C2218 C2226 1.574 . S
C2218 C2234 1.368 . S
H2219 C2227 0.950 . S
H2220 C2225 0.950 . S
H2221 C2226 0.949 . S
H2222 C2228 0.950 . S
H2223 C2229 0.950 . S
H2224 C2230 0.949 . S
C2225 H2220 0.950 . S
C2225 C2227 1.327 . S
C2225 C2231 1.429 . S
C2226 C2218 1.574 . S
C2226 H2221 0.949 . S
C2226 C2232 1.368 . S
C2227 C2211 1.349 . S
C2227 H2219 0.950 . S
C2227 C2225 1.327 . S
C2228 C2216 1.349 . S
C2228 H2222 0.950 . S
C2228 C2229 1.327 . S
C2229 H2223 0.950 . S
C2229 C2228 1.327 . S
C2229 C2233 1.429 . S
C2230 C2213 1.574 . S
C2230 H2224 0.949 . S
C2230 C2234 1.368 . S
C2231 C2212 1.429 . S
C2231 C2225 1.429 . S
C2231 C2232 1.523 . S
C2232 C2213 1.368 . S
C2232 C2226 1.368 . S
C2232 C2231 1.523 . S
C2233 C2217 1.429 . S
C2233 C2229 1.429 . S
C2233 C2234 1.523 . S
C2234 C2218 1.368 . S
C2234 C2230 1.368 . S
C2234 C2233 1.523 . S
H2235 C2210 0.950 . S
H2236 C2212 0.950 . S
H2237 C2213 0.949 . S
H2238 C2215 0.950 . S
H2239 C2217 0.950 . S
C2240 C2241 1.349 . S
C2240 C2242 1.327 . S
C2240 H2265 0.950 . S
C2241 C2240 1.349 . S
C2241 C2257 1.349 . S
C2242 C2240 1.327 . S
C2242 C2261 1.429 . S
C2242 H2266 0.950 . S
C2243 C2260 1.574 . S
C2243 C2262 1.368 . S
C2243 H2267 0.949 . S
H2244 C2248 0.949 . S
C2245 C2246 1.349 . S
C2245 C2247 1.327 . S
C2245 H2268 0.950 . S
C2246 C2245 1.349 . S
C2246 C2258 1.349 . S
C2247 C2245 1.327 . S
C2247 C2263 1.429 . S
C2247 H2269 0.950 . S
C2248 H2244 0.949 . S
C2248 C2256 1.574 . S
C2248 C2264 1.368 . S
H2249 C2257 0.950 . S
H2250 C2255 0.950 . S
H2251 C2256 0.949 . S
H2252 C2258 0.950 . S
H2253 C2259 0.950 . S
H2254 C2260 0.949 . S
C2255 H2250 0.950 . S
C2255 C2257 1.327 . S
C2255 C2261 1.429 . S
C2256 C2248 1.574 . S
C2256 H2251 0.949 . S
C2256 C2262 1.368 . S
C2257 C2241 1.349 . S
C2257 H2249 0.950 . S
C2257 C2255 1.327 . S
C2258 C2246 1.349 . S
C2258 H2252 0.950 . S
C2258 C2259 1.327 . S
C2259 H2253 0.950 . S
C2259 C2258 1.327 . S
C2259 C2263 1.429 . S
C2260 C2243 1.574 . S
C2260 H2254 0.949 . S
C2260 C2264 1.368 . S
C2261 C2242 1.429 . S
C2261 C2255 1.429 . S
C2261 C2262 1.523 . S
C2262 C2243 1.368 . S
C2262 C2256 1.368 . S
C2262 C2261 1.523 . S
C2263 C2247 1.429 . S
C2263 C2259 1.429 . S
C2263 C2264 1.523 . S
C2264 C2248 1.368 . S
C2264 C2260 1.368 . S
C2264 C2263 1.523 . S
H2265 C2240 0.950 . S
H2266 C2242 0.950 . S
H2267 C2243 0.949 . S
H2268 C2245 0.950 . S
H2269 C2247 0.950 . S
C2270 C2271 1.349 . S
C2270 C2272 1.327 . S
C2270 H2295 0.950 . S
C2271 C2270 1.349 . S
C2271 C2287 1.349 . S
C2272 C2270 1.327 . S
C2272 C2291 1.429 . S
C2272 H2296 0.950 . S
C2273 C2290 1.574 . S
C2273 C2292 1.368 . S
C2273 H2297 0.949 . S
H2274 C2278 0.949 . S
C2275 C2276 1.349 . S
C2275 C2277 1.327 . S
C2275 H2298 0.950 . S
C2276 C2275 1.349 . S
C2276 C2288 1.349 . S
C2277 C2275 1.327 . S
C2277 C2293 1.429 1_655 S
C2277 H2299 0.950 1_655 S
C2278 H2274 0.949 . S
C2278 C2286 1.574 . S
C2278 C2294 1.368 . S
H2279 C2287 0.950 . S
H2280 C2285 0.950 . S
H2281 C2286 0.949 . S
H2282 C2288 0.950 . S
H2283 C2289 0.950 1_455 S
H2284 C2290 0.949 . S
C2285 H2280 0.950 . S
C2285 C2287 1.327 . S
C2285 C2291 1.429 . S
C2286 C2278 1.574 . S
C2286 H2281 0.949 . S
C2286 C2292 1.368 . S
C2287 C2271 1.349 . S
C2287 H2279 0.950 . S
C2287 C2285 1.327 . S
C2288 C2276 1.349 . S
C2288 H2282 0.950 . S
C2288 C2289 1.327 . S
C2289 H2283 0.950 1_655 S
C2289 C2288 1.327 . S
C2289 C2293 1.429 1_655 S
C2290 C2273 1.574 . S
C2290 H2284 0.949 . S
C2290 C2294 1.368 . S
C2291 C2272 1.429 . S
C2291 C2285 1.429 . S
C2291 C2292 1.523 . S
C2292 C2273 1.368 . S
C2292 C2286 1.368 . S
C2292 C2291 1.523 . S
C2293 C2277 1.429 1_455 S
C2293 C2289 1.429 1_455 S
C2293 C2294 1.523 . S
C2294 C2278 1.368 . S
C2294 C2290 1.368 . S
C2294 C2293 1.523 . S
H2295 C2270 0.950 . S
H2296 C2272 0.950 . S
H2297 C2273 0.949 . S
H2298 C2275 0.950 . S
H2299 C2277 0.950 1_455 S
C2300 C2301 1.349 . S
C2300 C2302 1.327 . S
C2300 H2325 0.950 . S
C2301 C2300 1.349 . S
C2301 C2317 1.349 . S
C2302 C2300 1.327 . S
C2302 C2321 1.429 . S
C2302 H2326 0.950 . S
C2303 C2320 1.574 . S
C2303 C2322 1.368 . S
C2303 H2327 0.949 . S
H2304 C2308 0.949 . S
C2305 C2306 1.349 . S
C2305 C2307 1.327 . S
C2305 H2328 0.950 . S
C2306 C2305 1.349 . S
C2306 C2318 1.349 . S
C2307 C2305 1.327 . S
C2307 C2323 1.429 . S
C2307 H2329 0.950 . S
C2308 H2304 0.949 . S
C2308 C2316 1.574 . S
C2308 C2324 1.368 . S
H2309 C2317 0.950 . S
H2310 C2315 0.950 . S
H2311 C2316 0.949 . S
H2312 C2318 0.950 . S
H2313 C2319 0.950 . S
H2314 C2320 0.949 . S
C2315 H2310 0.950 . S
C2315 C2317 1.327 . S
C2315 C2321 1.429 . S
C2316 C2308 1.574 . S
C2316 H2311 0.949 . S
C2316 C2322 1.368 . S
C2317 C2301 1.349 . S
C2317 H2309 0.950 . S
C2317 C2315 1.327 . S
C2318 C2306 1.349 . S
C2318 H2312 0.950 . S
C2318 C2319 1.327 . S
C2319 H2313 0.950 . S
C2319 C2318 1.327 . S
C2319 C2323 1.429 . S
C2320 C2303 1.574 . S
C2320 H2314 0.949 . S
C2320 C2324 1.368 . S
C2321 C2302 1.429 . S
C2321 C2315 1.429 . S
C2321 C2322 1.523 . S
C2322 C2303 1.368 . S
C2322 C2316 1.368 . S
C2322 C2321 1.523 . S
C2323 C2307 1.429 . S
C2323 C2319 1.429 . S
C2323 C2324 1.523 . S
C2324 C2308 1.368 . S
C2324 C2320 1.368 . S
C2324 C2323 1.523 . S
H2325 C2300 0.950 . S
H2326 C2302 0.950 . S
H2327 C2303 0.949 . S
H2328 C2305 0.950 . S
H2329 C2307 0.950 . S
C2330 C2331 1.349 . S
C2330 C2332 1.327 . S
C2330 H2355 0.950 . S
C2331 C2330 1.349 . S
C2331 C2347 1.349 . S
C2332 C2330 1.327 . S
C2332 C2351 1.429 . S
C2332 H2356 0.950 . S
C2333 C2350 1.574 . S
C2333 C2352 1.368 . S
C2333 H2357 0.949 . S
H2334 C2338 0.949 . S
C2335 C2336 1.349 . S
C2335 C2337 1.327 . S
C2335 H2358 0.950 . S
C2336 C2335 1.349 . S
C2336 C2348 1.349 . S
C2337 C2335 1.327 . S
C2337 C2353 1.429 . S
C2337 H2359 0.950 . S
C2338 H2334 0.949 . S
C2338 C2346 1.574 . S
C2338 C2354 1.368 . S
H2339 C2347 0.950 . S
H2340 C2345 0.950 . S
H2341 C2346 0.949 . S
H2342 C2348 0.950 . S
H2343 C2349 0.950 . S
H2344 C2350 0.949 . S
C2345 H2340 0.950 . S
C2345 C2347 1.327 . S
C2345 C2351 1.429 . S
C2346 C2338 1.574 . S
C2346 H2341 0.949 . S
C2346 C2352 1.368 . S
C2347 C2331 1.349 . S
C2347 H2339 0.950 . S
C2347 C2345 1.327 . S
C2348 C2336 1.349 . S
C2348 H2342 0.950 . S
C2348 C2349 1.327 . S
C2349 H2343 0.950 . S
C2349 C2348 1.327 . S
C2349 C2353 1.429 . S
C2350 C2333 1.574 . S
C2350 H2344 0.949 . S
C2350 C2354 1.368 . S
C2351 C2332 1.429 . S
C2351 C2345 1.429 . S
C2351 C2352 1.523 . S
C2352 C2333 1.368 . S
C2352 C2346 1.368 . S
C2352 C2351 1.523 . S
C2353 C2337 1.429 . S
C2353 C2349 1.429 . S
C2353 C2354 1.523 . S
C2354 C2338 1.368 . S
C2354 C2350 1.368 . S
C2354 C2353 1.523 . S
H2355 C2330 0.950 . S
H2356 C2332 0.950 . S
H2357 C2333 0.949 . S
H2358 C2335 0.950 . S
H2359 C2337 0.950 . S
C2360 C2361 1.349 . S
C2360 C2362 1.327 . S
C2360 H2385 0.950 . S
C2361 C2360 1.349 . S
C2361 C2377 1.349 . S
C2362 C2360 1.327 . S
C2362 C2381 1.429 . S
C2362 H2386 0.950 . S
C2363 C2380 1.574 . S
C2363 C2382 1.368 . S
C2363 H2387 0.949 . S
H2364 C2368 0.949 . S
C2365 C2366 1.349 . S
C2365 C2367 1.327 . S
C2365 H2388 0.950 . S
C2366 C2365 1.349 . S
C2366 C2378 1.349 . S
C2367 C2365 1.327 . S
C2367 C2383 1.429 . S
C2367 H2389 0.950 . S
C2368 H2364 0.949 . S
C2368 C2376 1.574 . S
C2368 C2384 1.368 . S
H2369 C2377 0.950 . S
H2370 C2375 0.950 . S
H2371 C2376 0.949 . S
H2372 C2378 0.950 . S
H2373 C2379 0.950 . S
H2374 C2380 0.949 . S
C2375 H2370 0.950 . S
C2375 C2377 1.327 . S
C2375 C2381 1.429 . S
C2376 C2368 1.574 . S
C2376 H2371 0.949 . S
C2376 C2382 1.368 . S
C2377 C2361 1.349 . S
C2377 H2369 0.950 . S
C2377 C2375 1.327 . S
C2378 C2366 1.349 . S
C2378 H2372 0.950 . S
C2378 C2379 1.327 . S
C2379 H2373 0.950 . S
C2379 C2378 1.327 . S
C2379 C2383 1.429 . S
C2380 C2363 1.574 . S
C2380 H2374 0.949 . S
C2380 C2384 1.368 . S
C2381 C2362 1.429 . S
C2381 C2375 1.429 . S
C2381 C2382 1.523 . S
C2382 C2363 1.368 . S
C2382 C2376 1.368 . S
C2382 C2381 1.523 . S
C2383 C2367 1.429 . S
C2383 C2379 1.429 . S
C2383 C2384 1.523 . S
C2384 C2368 1.368 . S
C2384 C2380 1.368 . S
C2384 C2383 1.523 . S
H2385 C2360 0.950 . S
H2386 C2362 0.950 . S
H2387 C2363 0.949 . S
H2388 C2365 0.950 . S
H2389 C2367 0.950 . S
C2390 C2391 1.349 . S
C2390 C2392 1.327 . S
C2390 H2415 0.950 . S
C2391 C2390 1.349 . S
C2391 C2407 1.349 . S
C2392 C2390 1.327 . S
C2392 C2411 1.429 . S
C2392 H2416 0.950 . S
C2393 C2410 1.574 . S
C2393 C2412 1.368 . S
C2393 H2417 0.949 . S
H2394 C2398 0.949 . S
C2395 C2396 1.349 . S
C2395 C2397 1.327 . S
C2395 H2418 0.950 . S
C2396 C2395 1.349 . S
C2396 C2408 1.349 . S
C2397 C2395 1.327 . S
C2397 C2413 1.429 . S
C2397 H2419 0.950 . S
C2398 H2394 0.949 . S
C2398 C2406 1.574 . S
C2398 C2414 1.368 . S
H2399 C2407 0.950 . S
H2400 C2405 0.950 . S
H2401 C2406 0.949 . S
H2402 C2408 0.950 . S
H2403 C2409 0.950 . S
H2404 C2410 0.949 . S
C2405 H2400 0.950 . S
C2405 C2407 1.327 . S
C2405 C2411 1.429 . S
C2406 C2398 1.574 . S
C2406 H2401 0.949 . S
C2406 C2412 1.368 . S
C2407 C2391 1.349 . S
C2407 H2399 0.950 . S
C2407 C2405 1.327 . S
C2408 C2396 1.349 . S
C2408 H2402 0.950 . S
C2408 C2409 1.327 . S
C2409 H2403 0.950 . S
C2409 C2408 1.327 . S
C2409 C2413 1.429 . S
C2410 C2393 1.574 . S
C2410 H2404 0.949 . S
C2410 C2414 1.368 . S
C2411 C2392 1.429 . S
C2411 C2405 1.429 . S
C2411 C2412 1.523 . S
C2412 C2393 1.368 . S
C2412 C2406 1.368 . S
C2412 C2411 1.523 . S
C2413 C2397 1.429 . S
C2413 C2409 1.429 . S
C2413 C2414 1.523 . S
C2414 C2398 1.368 . S
C2414 C2410 1.368 . S
C2414 C2413 1.523 . S
H2415 C2390 0.950 . S
H2416 C2392 0.950 . S
H2417 C2393 0.949 . S
H2418 C2395 0.950 . S
H2419 C2397 0.950 . S
C2420 C2421 1.349 . S
C2420 C2422 1.327 . S
C2420 H2445 0.950 . S
C2421 C2420 1.349 . S
C2421 C2437 1.349 . S
C2422 C2420 1.327 . S
C2422 C2441 1.429 . S
C2422 H2446 0.950 . S
C2423 C2440 1.574 . S
C2423 C2442 1.368 . S
C2423 H2447 0.949 . S
H2424 C2428 0.949 . S
C2425 C2426 1.349 . S
C2425 C2427 1.327 . S
C2425 H2448 0.950 . S
C2426 C2425 1.349 . S
C2426 C2438 1.349 . S
C2427 C2425 1.327 . S
C2427 C2443 1.429 . S
C2427 H2449 0.950 . S
C2428 H2424 0.949 . S
C2428 C2436 1.574 . S
C2428 C2444 1.368 . S
H2429 C2437 0.950 . S
H2430 C2435 0.950 . S
H2431 C2436 0.949 . S
H2432 C2438 0.950 . S
H2433 C2439 0.950 . S
H2434 C2440 0.949 . S
C2435 H2430 0.950 . S
C2435 C2437 1.327 . S
C2435 C2441 1.429 . S
C2436 C2428 1.574 . S
C2436 H2431 0.949 . S
C2436 C2442 1.368 . S
C2437 C2421 1.349 . S
C2437 H2429 0.950 . S
C2437 C2435 1.327 . S
C2438 C2426 1.349 . S
C2438 H2432 0.950 . S
C2438 C2439 1.327 . S
C2439 H2433 0.950 . S
C2439 C2438 1.327 . S
C2439 C2443 1.429 . S
C2440 C2423 1.574 . S
C2440 H2434 0.949 . S
C2440 C2444 1.368 . S
C2441 C2422 1.429 . S
C2441 C2435 1.429 . S
C2441 C2442 1.523 . S
C2442 C2423 1.368 . S
C2442 C2436 1.368 . S
C2442 C2441 1.523 . S
C2443 C2427 1.429 . S
C2443 C2439 1.429 . S
C2443 C2444 1.523 . S
C2444 C2428 1.368 . S
C2444 C2440 1.368 . S
C2444 C2443 1.523 . S
H2445 C2420 0.950 . S
H2446 C2422 0.950 . S
H2447 C2423 0.949 . S
H2448 C2425 0.950 . S
H2449 C2427 0.950 . S
C2450 C2451 1.349 . S
C2450 C2452 1.327 . S
C2450 H2475 0.950 . S
C2451 C2450 1.349 . S
C2451 C2467 1.349 . S
C2452 C2450 1.327 . S
C2452 C2471 1.429 . S
C2452 H2476 0.950 . S
C2453 C2470 1.574 . S
C2453 C2472 1.368 . S
C2453 H2477 0.949 . S
H2454 C2458 0.949 . S
C2455 C2456 1.349 . S
C2455 C2457 1.327 . S
C2455 H2478 0.950 . S
C2456 C2455 1.349 . S
C2456 C2468 1.349 . S
C2457 C2455 1.327 . S
C2457 C2473 1.429 1_655 S
C2457 H2479 0.950 . S
C2458 H2454 0.949 . S
C2458 C2466 1.574 . S
C2458 C2474 1.368 . S
H2459 C2467 0.950 . S
H2460 C2465 0.950 . S
H2461 C2466 0.949 . S
H2462 C2468 0.950 . S
H2463 C2469 0.950 . S
H2464 C2470 0.949 . S
C2465 H2460 0.950 . S
C2465 C2467 1.327 . S
C2465 C2471 1.429 . S
C2466 C2458 1.574 . S
C2466 H2461 0.949 . S
C2466 C2472 1.368 . S
C2467 C2451 1.349 . S
C2467 H2459 0.950 . S
C2467 C2465 1.327 . S
C2468 C2456 1.349 . S
C2468 H2462 0.950 . S
C2468 C2469 1.327 1_655 S
C2469 H2463 0.950 . S
C2469 C2468 1.327 1_455 S
C2469 C2473 1.429 . S
C2470 C2453 1.574 . S
C2470 H2464 0.949 . S
C2470 C2474 1.368 . S
C2471 C2452 1.429 . S
C2471 C2465 1.429 . S
C2471 C2472 1.523 . S
C2472 C2453 1.368 . S
C2472 C2466 1.368 . S
C2472 C2471 1.523 . S
C2473 C2457 1.429 1_455 S
C2473 C2469 1.429 . S
C2473 C2474 1.523 . S
C2474 C2458 1.368 . S
C2474 C2470 1.368 . S
C2474 C2473 1.523 . S
H2475 C2450 0.950 . S
H2476 C2452 0.950 . S
H2477 C2453 0.949 . S
H2478 C2455 0.950 . S
H2479 C2457 0.950 . S
C2480 C2481 1.349 . S
C2480 C2482 1.327 . S
C2480 H2505 0.950 . S
C2481 C2480 1.349 . S
C2481 C2497 1.349 . S
C2482 C2480 1.327 . S
C2482 C2501 1.429 . S
C2482 H2506 0.950 . S
C2483 C2500 1.574 . S
C2483 C2502 1.368 . S
C2483 H2507 0.949 . S
H2484 C2488 0.949 . S
C2485 C2486 1.349 . S
C2485 C2487 1.327 . S
C2485 H2508 0.950 . S
C2486 C2485 1.349 . S
C2486 C2498 1.349 . S
C2487 C2485 1.327 . S
C2487 C2503 1.429 . S
C2487 H2509 0.950 . S
C2488 H2484 0.949 . S
C2488 C2496 1.574 . S
C2488 C2504 1.368 . S
H2489 C2497 0.950 . S
H2490 C2495 0.950 . S
H2491 C2496 0.949 . S
H2492 C2498 0.950 . S
H2493 C2499 0.950 . S
H2494 C2500 0.949 . S
C2495 H2490 0.950 . S
C2495 C2497 1.327 . S
C2495 C2501 1.429 . S
C2496 C2488 1.574 . S
C2496 H2491 0.949 . S
C2496 C2502 1.368 . S
C2497 C2481 1.349 . S
C2497 H2489 0.950 . S
C2497 C2495 1.327 . S
C2498 C2486 1.349 . S
C2498 H2492 0.950 . S
C2498 C2499 1.327 . S
C2499 H2493 0.950 . S
C2499 C2498 1.327 . S
C2499 C2503 1.429 . S
C2500 C2483 1.574 . S
C2500 H2494 0.949 . S
C2500 C2504 1.368 . S
C2501 C2482 1.429 . S
C2501 C2495 1.429 . S
C2501 C2502 1.523 . S
C2502 C2483 1.368 . S
C2502 C2496 1.368 . S
C2502 C2501 1.523 . S
C2503 C2487 1.429 . S
C2503 C2499 1.429 . S
C2503 C2504 1.523 . S
C2504 C2488 1.368 . S
C2504 C2500 1.368 . S
C2504 C2503 1.523 . S
H2505 C2480 0.950 . S
H2506 C2482 0.950 . S
H2507 C2483 0.949 . S
H2508 C2485 0.950 . S
H2509 C2487 0.950 . S
C2510 C2511 1.349 . S
C2510 C2512 1.348 . S
C2510 H2535 0.950 . S
C2511 C2510 1.349 . S
C2511 C2527 1.349 . S
C2512 C2510 1.348 . S
C2512 C2531 1.421 1_455 S
C2512 H2536 0.937 1_455 S
C2513 C2530 1.574 . S
C2513 C2532 1.368 . S
C2513 H2537 0.949 . S
H2514 C2518 0.949 . S
C2515 C2516 1.349 . S
C2515 C2517 1.327 . S
C2515 H2538 0.950 . S
C2516 C2515 1.349 . S
C2516 C2528 1.349 . S
C2517 C2515 1.327 . S
C2517 C2533 1.429 . S
C2517 H2539 0.950 . S
C2518 H2514 0.949 . S
C2518 C2526 1.574 . S
C2518 C2534 1.368 . S
H2519 C2527 0.950 . S
H2520 C2525 0.950 . S
H2521 C2526 0.949 . S
H2522 C2528 0.950 . S
H2523 C2529 0.950 . S
H2524 C2530 0.949 . S
C2525 H2520 0.950 . S
C2525 C2527 1.327 . S
C2525 C2531 1.429 1_455 S
C2526 C2518 1.574 . S
C2526 H2521 0.949 . S
C2526 C2532 1.368 . S
C2527 C2511 1.349 . S
C2527 H2519 0.950 . S
C2527 C2525 1.327 . S
C2528 C2516 1.349 . S
C2528 H2522 0.950 . S
C2528 C2529 1.327 . S
C2529 H2523 0.950 . S
C2529 C2528 1.327 . S
C2529 C2533 1.429 . S
C2530 C2513 1.574 . S
C2530 H2524 0.949 . S
C2530 C2534 1.368 . S
C2531 C2512 1.421 1_655 S
C2531 C2525 1.429 1_655 S
C2531 C2532 1.523 . S
C2532 C2513 1.368 . S
C2532 C2526 1.368 . S
C2532 C2531 1.523 . S
C2533 C2517 1.429 . S
C2533 C2529 1.429 . S
C2533 C2534 1.523 . S
C2534 C2518 1.368 . S
C2534 C2530 1.368 . S
C2534 C2533 1.523 . S
H2535 C2510 0.950 . S
H2536 C2512 0.937 1_655 S
H2537 C2513 0.949 . S
H2538 C2515 0.950 . S
H2539 C2517 0.950 . S
C2540 C2541 1.349 . S
C2540 C2542 1.327 . S
C2540 H2565 0.950 . S
C2541 C2540 1.349 . S
C2541 C2557 1.349 . S
C2542 C2540 1.327 . S
C2542 C2561 1.429 . S
C2542 H2566 0.950 . S
C2543 C2560 1.574 . S
C2543 C2562 1.368 . S
C2543 H2567 0.949 . S
H2544 C2548 0.949 . S
C2545 C2546 1.349 . S
C2545 C2547 1.327 . S
C2545 H2568 0.950 . S
C2546 C2545 1.349 . S
C2546 C2558 1.349 . S
C2547 C2545 1.327 . S
C2547 C2563 1.429 . S
C2547 H2569 0.950 . S
C2548 H2544 0.949 . S
C2548 C2556 1.574 . S
C2548 C2564 1.368 . S
H2549 C2557 0.950 . S
H2550 C2555 0.950 . S
H2551 C2556 0.949 . S
H2552 C2558 0.950 . S
H2553 C2559 0.950 . S
H2554 C2560 0.949 . S
C2555 H2550 0.950 . S
C2555 C2557 1.327 . S
C2555 C2561 1.429 . S
C2556 C2548 1.574 . S
C2556 H2551 0.949 . S
C2556 C2562 1.368 . S
C2557 C2541 1.349 . S
C2557 H2549 0.950 . S
C2557 C2555 1.327 . S
C2558 C2546 1.349 . S
C2558 H2552 0.950 . S
C2558 C2559 1.327 . S
C2559 H2553 0.950 . S
C2559 C2558 1.327 . S
C2559 C2563 1.429 . S
C2560 C2543 1.574 . S
C2560 H2554 0.949 . S
C2560 C2564 1.368 . S
C2561 C2542 1.429 . S
C2561 C2555 1.429 . S
C2561 C2562 1.523 . S
C2562 C2543 1.368 . S
C2562 C2556 1.368 . S
C2562 C2561 1.523 . S
C2563 C2547 1.429 . S
C2563 C2559 1.429 . S
C2563 C2564 1.523 . S
C2564 C2548 1.368 . S
C2564 C2560 1.368 . S
C2564 C2563 1.523 . S
H2565 C2540 0.950 . S
H2566 C2542 0.950 . S
H2567 C2543 0.949 . S
H2568 C2545 0.950 . S
H2569 C2547 0.950 . S
C2570 C2571 1.349 . S
C2570 C2572 1.327 . S
C2570 H2595 0.950 . S
C2571 C2570 1.349 . S
C2571 C2587 1.349 . S
C2572 C2570 1.327 . S
C2572 C2591 1.429 . S
C2572 H2596 0.950 . S
C2573 C2590 1.574 . S
C2573 C2592 1.368 . S
C2573 H2597 0.949 . S
H2574 C2578 0.949 . S
C2575 C2576 1.349 . S
C2575 C2577 1.327 . S
C2575 H2598 0.950 . S
C2576 C2575 1.349 . S
C2576 C2588 1.349 . S
C2577 C2575 1.327 . S
C2577 C2593 1.429 . S
C2577 H2599 0.950 . S
C2578 H2574 0.949 . S
C2578 C2586 1.574 . S
C2578 C2594 1.368 . S
H2579 C2587 0.950 . S
H2580 C2585 0.950 . S
H2581 C2586 0.949 . S
H2582 C2588 0.950 . S
H2583 C2589 0.950 . S
H2584 C2590 0.949 . S
C2585 H2580 0.950 . S
C2585 C2587 1.327 . S
C2585 C2591 1.429 . S
C2586 C2578 1.574 . S
C2586 H2581 0.949 . S
C2586 C2592 1.368 . S
C2587 C2571 1.349 . S
C2587 H2579 0.950 . S
C2587 C2585 1.327 . S
C2588 C2576 1.349 . S
C2588 H2582 0.950 . S
C2588 C2589 1.327 . S
C2589 H2583 0.950 . S
C2589 C2588 1.327 . S
C2589 C2593 1.429 . S
C2590 C2573 1.574 . S
C2590 H2584 0.949 . S
C2590 C2594 1.368 . S
C2591 C2572 1.429 . S
C2591 C2585 1.429 . S
C2591 C2592 1.523 . S
C2592 C2573 1.368 . S
C2592 C2586 1.368 . S
C2592 C2591 1.523 . S
C2593 C2577 1.429 . S
C2593 C2589 1.429 . S
C2593 C2594 1.523 . S
C2594 C2578 1.368 . S
C2594 C2590 1.368 . S
C2594 C2593 1.523 . S
H2595 C2570 0.950 . S
H2596 C2572 0.950 . S
H2597 C2573 0.949 . S
H2598 C2575 0.950 . S
H2599 C2577 0.950 . S
C2600 C2601 1.349 . S
C2600 C2602 1.327 . S
C2600 H2625 0.950 . S
C2601 C2600 1.349 . S
C2601 C2617 1.349 . S
C2602 C2600 1.327 . S
C2602 C2621 1.429 . S
C2602 H2626 0.950 . S
C2603 C2620 1.574 . S
C2603 C2622 1.368 . S
C2603 H2627 0.949 . S
H2604 C2608 0.949 . S
C2605 C2606 1.349 . S
C2605 C2607 1.327 . S
C2605 H2628 0.950 . S
C2606 C2605 1.349 . S
C2606 C2618 1.349 . S
C2607 C2605 1.327 . S
C2607 C2623 1.429 . S
C2607 H2629 0.950 . S
C2608 H2604 0.949 . S
C2608 C2616 1.574 . S
C2608 C2624 1.368 . S
H2609 C2617 0.950 . S
H2610 C2615 0.950 . S
H2611 C2616 0.949 . S
H2612 C2618 0.950 . S
H2613 C2619 0.950 . S
H2614 C2620 0.949 . S
C2615 H2610 0.950 . S
C2615 C2617 1.327 . S
C2615 C2621 1.429 . S
C2616 C2608 1.574 . S
C2616 H2611 0.949 . S
C2616 C2622 1.368 . S
C2617 C2601 1.349 . S
C2617 H2609 0.950 . S
C2617 C2615 1.327 . S
C2618 C2606 1.349 . S
C2618 H2612 0.950 . S
C2618 C2619 1.327 . S
C2619 H2613 0.950 . S
C2619 C2618 1.327 . S
C2619 C2623 1.429 . S
C2620 C2603 1.574 . S
C2620 H2614 0.949 . S
C2620 C2624 1.368 . S
C2621 C2602 1.429 . S
C2621 C2615 1.429 . S
C2621 C2622 1.523 . S
C2622 C2603 1.368 . S
C2622 C2616 1.368 . S
C2622 C2621 1.523 . S
C2623 C2607 1.429 . S
C2623 C2619 1.429 . S
C2623 C2624 1.523 . S
C2624 C2608 1.368 . S
C2624 C2620 1.368 . S
C2624 C2623 1.523 . S
H2625 C2600 0.950 . S
H2626 C2602 0.950 . S
H2627 C2603 0.949 . S
H2628 C2605 0.950 . S
H2629 C2607 0.950 . S
C2630 C2631 1.349 . S
C2630 C2632 1.327 . S
C2630 H2655 0.950 . S
C2631 C2630 1.349 . S
C2631 C2647 1.349 . S
C2632 C2630 1.327 . S
C2632 C2651 1.429 . S
C2632 H2656 0.950 . S
C2633 C2650 1.574 . S
C2633 C2652 1.368 . S
C2633 H2657 0.949 . S
H2634 C2638 0.949 . S
C2635 C2636 1.349 . S
C2635 C2637 1.327 . S
C2635 H2658 0.950 . S
C2636 C2635 1.349 . S
C2636 C2648 1.349 . S
C2637 C2635 1.327 . S
C2637 C2653 1.429 . S
C2637 H2659 0.950 . S
C2638 H2634 0.949 . S
C2638 C2646 1.574 . S
C2638 C2654 1.368 . S
H2639 C2647 0.950 . S
H2640 C2645 0.950 . S
H2641 C2646 0.949 . S
H2642 C2648 0.950 . S
H2643 C2649 0.950 . S
H2644 C2650 0.949 . S
C2645 H2640 0.950 . S
C2645 C2647 1.327 . S
C2645 C2651 1.429 . S
C2646 C2638 1.574 . S
C2646 H2641 0.949 . S
C2646 C2652 1.368 . S
C2647 C2631 1.349 . S
C2647 H2639 0.950 . S
C2647 C2645 1.327 . S
C2648 C2636 1.349 . S
C2648 H2642 0.950 . S
C2648 C2649 1.327 . S
C2649 H2643 0.950 . S
C2649 C2648 1.327 . S
C2649 C2653 1.429 . S
C2650 C2633 1.574 . S
C2650 H2644 0.949 . S
C2650 C2654 1.368 . S
C2651 C2632 1.429 . S
C2651 C2645 1.429 . S
C2651 C2652 1.523 . S
C2652 C2633 1.368 . S
C2652 C2646 1.368 . S
C2652 C2651 1.523 . S
C2653 C2637 1.429 . S
C2653 C2649 1.429 . S
C2653 C2654 1.523 . S
C2654 C2638 1.368 . S
C2654 C2650 1.368 . S
C2654 C2653 1.523 . S
H2655 C2630 0.950 . S
H2656 C2632 0.950 . S
H2657 C2633 0.949 . S
H2658 C2635 0.950 . S
H2659 C2637 0.950 . S
C2660 C2661 1.349 . S
C2660 C2662 1.327 . S
C2660 H2685 0.950 . S
C2661 C2660 1.349 . S
C2661 C2677 1.349 . S
C2662 C2660 1.327 . S
C2662 C2681 1.429 . S
C2662 H2686 0.950 . S
C2663 C2680 1.574 . S
C2663 C2682 1.368 . S
C2663 H2687 0.949 . S
H2664 C2668 0.949 . S
C2665 C2666 1.349 . S
C2665 C2667 1.327 . S
C2665 H2688 0.950 . S
C2666 C2665 1.349 . S
C2666 C2678 1.349 . S
C2667 C2665 1.327 . S
C2667 C2683 1.429 . S
C2667 H2689 0.950 . S
C2668 H2664 0.949 . S
C2668 C2676 1.574 . S
C2668 C2684 1.368 . S
H2669 C2677 0.950 . S
H2670 C2675 0.950 . S
H2671 C2676 0.949 . S
H2672 C2678 0.950 . S
H2673 C2679 0.950 . S
H2674 C2680 0.949 . S
C2675 H2670 0.950 . S
C2675 C2677 1.327 . S
C2675 C2681 1.429 . S
C2676 C2668 1.574 . S
C2676 H2671 0.949 . S
C2676 C2682 1.368 . S
C2677 C2661 1.349 . S
C2677 H2669 0.950 . S
C2677 C2675 1.327 . S
C2678 C2666 1.349 . S
C2678 H2672 0.950 . S
C2678 C2679 1.327 . S
C2679 H2673 0.950 . S
C2679 C2678 1.327 . S
C2679 C2683 1.429 . S
C2680 C2663 1.574 . S
C2680 H2674 0.949 . S
C2680 C2684 1.368 . S
C2681 C2662 1.429 . S
C2681 C2675 1.429 . S
C2681 C2682 1.523 . S
C2682 C2663 1.368 . S
C2682 C2676 1.368 . S
C2682 C2681 1.523 . S
C2683 C2667 1.429 . S
C2683 C2679 1.429 . S
C2683 C2684 1.523 . S
C2684 C2668 1.368 . S
C2684 C2680 1.368 . S
C2684 C2683 1.523 . S
H2685 C2660 0.950 . S
H2686 C2662 0.950 . S
H2687 C2663 0.949 . S
H2688 C2665 0.950 . S
H2689 C2667 0.950 . S
C2690 C2691 1.349 . S
C2690 C2692 1.327 . S
C2690 H2715 0.950 . S
C2691 C2690 1.349 . S
C2691 C2707 1.349 . S
C2692 C2690 1.327 . S
C2692 C2711 1.429 . S
C2692 H2716 0.950 . S
C2693 C2710 1.574 . S
C2693 C2712 1.368 . S
C2693 H2717 0.949 . S
H2694 C2698 0.949 . S
C2695 C2696 1.349 . S
C2695 C2697 1.327 . S
C2695 H2718 0.950 . S
C2696 C2695 1.349 . S
C2696 C2708 1.349 . S
C2697 C2695 1.327 . S
C2697 C2713 1.429 1_455 S
C2697 H2719 0.950 . S
C2698 H2694 0.949 . S
C2698 C2706 1.574 . S
C2698 C2714 1.368 . S
H2699 C2707 0.950 . S
H2700 C2705 0.950 . S
H2701 C2706 0.949 . S
H2702 C2708 0.950 . S
H2703 C2709 0.950 . S
H2704 C2710 0.949 . S
C2705 H2700 0.950 . S
C2705 C2707 1.327 . S
C2705 C2711 1.429 . S
C2706 C2698 1.574 . S
C2706 H2701 0.949 . S
C2706 C2712 1.368 . S
C2707 C2691 1.349 . S
C2707 H2699 0.950 . S
C2707 C2705 1.327 . S
C2708 C2696 1.349 . S
C2708 H2702 0.950 . S
C2708 C2709 1.327 1_455 S
C2709 H2703 0.950 . S
C2709 C2708 1.327 1_655 S
C2709 C2713 1.429 . S
C2710 C2693 1.574 . S
C2710 H2704 0.949 . S
C2710 C2714 1.368 . S
C2711 C2692 1.429 . S
C2711 C2705 1.429 . S
C2711 C2712 1.523 . S
C2712 C2693 1.368 . S
C2712 C2706 1.368 . S
C2712 C2711 1.523 . S
C2713 C2697 1.429 1_655 S
C2713 C2709 1.429 . S
C2713 C2714 1.523 . S
C2714 C2698 1.368 . S
C2714 C2710 1.368 . S
C2714 C2713 1.523 . S
H2715 C2690 0.950 . S
H2716 C2692 0.950 . S
H2717 C2693 0.949 . S
H2718 C2695 0.950 . S
H2719 C2697 0.950 . S
C2720 C2721 1.349 . S
C2720 C2722 1.327 . S
C2720 H2745 0.950 . S
C2721 C2720 1.349 . S
C2721 C2737 1.349 . S
C2722 C2720 1.327 . S
C2722 C2741 1.429 . S
C2722 H2746 0.950 . S
C2723 C2740 1.574 . S
C2723 C2742 1.368 . S
C2723 H2747 0.949 . S
H2724 C2728 0.949 . S
C2725 C2726 1.349 . S
C2725 C2727 1.327 . S
C2725 H2748 0.950 . S
C2726 C2725 1.349 . S
C2726 C2738 1.349 . S
C2727 C2725 1.327 . S
C2727 C2743 1.429 . S
C2727 H2749 0.950 . S
C2728 H2724 0.949 . S
C2728 C2736 1.574 . S
C2728 C2744 1.368 . S
H2729 C2737 0.950 . S
H2730 C2735 0.950 . S
H2731 C2736 0.949 . S
H2732 C2738 0.950 . S
H2733 C2739 0.950 . S
H2734 C2740 0.949 . S
C2735 H2730 0.950 . S
C2735 C2737 1.327 . S
C2735 C2741 1.429 . S
C2736 C2728 1.574 . S
C2736 H2731 0.949 . S
C2736 C2742 1.368 . S
C2737 C2721 1.349 . S
C2737 H2729 0.950 . S
C2737 C2735 1.327 . S
C2738 C2726 1.349 . S
C2738 H2732 0.950 . S
C2738 C2739 1.327 . S
C2739 H2733 0.950 . S
C2739 C2738 1.327 . S
C2739 C2743 1.429 . S
C2740 C2723 1.574 . S
C2740 H2734 0.949 . S
C2740 C2744 1.368 . S
C2741 C2722 1.429 . S
C2741 C2735 1.429 . S
C2741 C2742 1.523 . S
C2742 C2723 1.368 . S
C2742 C2736 1.368 . S
C2742 C2741 1.523 . S
C2743 C2727 1.429 . S
C2743 C2739 1.429 . S
C2743 C2744 1.523 . S
C2744 C2728 1.368 . S
C2744 C2740 1.368 . S
C2744 C2743 1.523 . S
H2745 C2720 0.950 . S
H2746 C2722 0.950 . S
H2747 C2723 0.949 . S
H2748 C2725 0.950 . S
H2749 C2727 0.950 . S
C2750 C2751 1.349 . S
C2750 C2752 1.327 . S
C2750 H2775 0.950 . S
C2751 C2750 1.349 . S
C2751 C2767 1.349 . S
C2752 C2750 1.327 . S
C2752 C2771 1.429 . S
C2752 H2776 0.950 . S
C2753 C2770 1.574 . S
C2753 C2772 1.368 . S
C2753 H2777 0.949 . S
H2754 C2758 0.949 . S
C2755 C2756 1.349 . S
C2755 C2757 1.327 . S
C2755 H2778 0.950 . S
C2756 C2755 1.349 . S
C2756 C2768 1.349 . S
C2757 C2755 1.327 . S
C2757 C2773 1.429 . S
C2757 H2779 0.950 . S
C2758 H2754 0.949 . S
C2758 C2766 1.574 . S
C2758 C2774 1.368 . S
H2759 C2767 0.950 . S
H2760 C2765 0.950 . S
H2761 C2766 0.949 . S
H2762 C2768 0.950 . S
H2763 C2769 0.950 . S
H2764 C2770 0.949 . S
C2765 H2760 0.950 . S
C2765 C2767 1.327 . S
C2765 C2771 1.429 . S
C2766 C2758 1.574 . S
C2766 H2761 0.949 . S
C2766 C2772 1.368 . S
C2767 C2751 1.349 . S
C2767 H2759 0.950 . S
C2767 C2765 1.327 . S
C2768 C2756 1.349 . S
C2768 H2762 0.950 . S
C2768 C2769 1.327 . S
C2769 H2763 0.950 . S
C2769 C2768 1.327 . S
C2769 C2773 1.429 . S
C2770 C2753 1.574 . S
C2770 H2764 0.949 . S
C2770 C2774 1.368 . S
C2771 C2752 1.429 . S
C2771 C2765 1.429 . S
C2771 C2772 1.523 . S
C2772 C2753 1.368 . S
C2772 C2766 1.368 . S
C2772 C2771 1.523 . S
C2773 C2757 1.429 . S
C2773 C2769 1.429 . S
C2773 C2774 1.523 . S
C2774 C2758 1.368 . S
C2774 C2770 1.368 . S
C2774 C2773 1.523 . S
H2775 C2750 0.950 . S
H2776 C2752 0.950 . S
H2777 C2753 0.949 . S
H2778 C2755 0.950 . S
H2779 C2757 0.950 . S
C2780 C2781 1.349 . S
C2780 C2782 1.327 . S
C2780 H2805 0.950 . S
C2781 C2780 1.349 . S
C2781 C2797 1.349 . S
C2782 C2780 1.327 . S
C2782 C2801 1.429 . S
C2782 H2806 0.950 . S
C2783 C2800 1.574 . S
C2783 C2802 1.368 . S
C2783 H2807 0.949 . S
H2784 C2788 0.949 . S
C2785 C2786 1.349 . S
C2785 C2787 1.327 . S
C2785 H2808 0.950 . S
C2786 C2785 1.349 . S
C2786 C2798 1.349 . S
C2787 C2785 1.327 . S
C2787 C2803 1.429 . S
C2787 H2809 0.950 . S
C2788 H2784 0.949 . S
C2788 C2796 1.574 . S
C2788 C2804 1.368 . S
H2789 C2797 0.950 . S
H2790 C2795 0.950 . S
H2791 C2796 0.949 . S
H2792 C2798 0.950 . S
H2793 C2799 0.950 . S
H2794 C2800 0.949 . S
C2795 H2790 0.950 . S
C2795 C2797 1.327 . S
C2795 C2801 1.429 . S
C2796 C2788 1.574 . S
C2796 H2791 0.949 . S
C2796 C2802 1.368 . S
C2797 C2781 1.349 . S
C2797 H2789 0.950 . S
C2797 C2795 1.327 . S
C2798 C2786 1.349 . S
C2798 H2792 0.950 . S
C2798 C2799 1.327 . S
C2799 H2793 0.950 . S
C2799 C2798 1.327 . S
C2799 C2803 1.429 . S
C2800 C2783 1.574 . S
C2800 H2794 0.949 . S
C2800 C2804 1.368 . S
C2801 C2782 1.429 . S
C2801 C2795 1.429 . S
C2801 C2802 1.523 . S
C2802 C2783 1.368 . S
C2802 C2796 1.368 . S
C2802 C2801 1.523 . S
C2803 C2787 1.429 . S
C2803 C2799 1.429 . S
C2803 C2804 1.523 . S
C2804 C2788 1.368 . S
C2804 C2800 1.368 . S
C2804 C2803 1.523 . S
H2805 C2780 0.950 . S
H2806 C2782 0.950 . S
H2807 C2783 0.949 . S
H2808 C2785 0.950 . S
H2809 C2787 0.950 . S
C2810 C2811 1.349 . S
C2810 C2812 1.327 . S
C2810 H2835 0.950 . S
C2811 C2810 1.349 . S
C2811 C2827 1.349 . S
C2812 C2810 1.327 . S
C2812 C2831 1.429 . S
C2812 H2836 0.950 . S
C2813 C2830 1.574 . S
C2813 C2832 1.368 . S
C2813 H2837 0.949 . S
H2814 C2818 0.949 . S
C2815 C2816 1.349 . S
C2815 C2817 1.327 . S
C2815 H2838 0.950 . S
C2816 C2815 1.349 . S
C2816 C2828 1.349 . S
C2817 C2815 1.327 . S
C2817 C2833 1.429 1_455 S
C2817 H2839 0.940 1_455 S
C2818 H2814 0.949 . S
C2818 C2826 1.574 . S
C2818 C2834 1.368 . S
H2819 C2827 0.950 . S
H2820 C2825 0.950 . S
H2821 C2826 0.949 . S
H2822 C2828 0.950 . S
H2823 C2829 0.950 1_655 S
H2824 C2830 0.949 . S
C2825 H2820 0.950 . S
C2825 C2827 1.327 . S
C2825 C2831 1.429 . S
C2826 C2818 1.574 . S
C2826 H2821 0.949 . S
C2826 C2832 1.368 . S
C2827 C2811 1.349 . S
C2827 H2819 0.950 . S
C2827 C2825 1.327 . S
C2828 C2816 1.349 . S
C2828 H2822 0.950 . S
C2828 C2829 1.327 . S
C2829 H2823 0.950 1_455 S
C2829 C2828 1.327 . S
C2829 C2833 1.429 1_455 S
C2830 C2813 1.574 . S
C2830 H2824 0.949 . S
C2830 C2834 1.368 . S
C2831 C2812 1.429 . S
C2831 C2825 1.429 . S
C2831 C2832 1.523 . S
C2832 C2813 1.368 . S
C2832 C2826 1.368 . S
C2832 C2831 1.523 . S
C2833 C2817 1.429 1_655 S
C2833 C2829 1.429 1_655 S
C2833 C2834 1.523 . S
C2834 C2818 1.368 . S
C2834 C2830 1.368 . S
C2834 C2833 1.523 . S
H2835 C2810 0.950 . S
H2836 C2812 0.950 . S
H2837 C2813 0.949 . S
H2838 C2815 0.950 . S
H2839 C2817 0.940 1_655 S
C2840 C2841 1.349 . S
C2840 C2842 1.327 . S
C2840 H2865 0.950 . S
C2841 C2840 1.349 . S
C2841 C2857 1.349 . S
C2842 C2840 1.327 . S
C2842 C2861 1.429 . S
C2842 H2866 0.950 . S
C2843 C2860 1.574 . S
C2843 C2862 1.368 . S
C2843 H2867 0.949 . S
H2844 C2848 0.949 . S
C2845 C2846 1.349 . S
C2845 C2847 1.327 . S
C2845 H2868 0.950 . S
C2846 C2845 1.349 . S
C2846 C2858 1.349 . S
C2847 C2845 1.327 . S
C2847 C2863 1.429 . S
C2847 H2869 0.950 . S
C2848 H2844 0.949 . S
C2848 C2856 1.574 . S
C2848 C2864 1.368 . S
H2849 C2857 0.950 . S
H2850 C2855 0.950 . S
H2851 C2856 0.949 . S
H2852 C2858 0.950 . S
H2853 C2859 0.950 . S
H2854 C2860 0.949 . S
C2855 H2850 0.950 . S
C2855 C2857 1.327 . S
C2855 C2861 1.429 . S
C2856 C2848 1.574 . S
C2856 H2851 0.949 . S
C2856 C2862 1.368 . S
C2857 C2841 1.349 . S
C2857 H2849 0.950 . S
C2857 C2855 1.327 . S
C2858 C2846 1.349 . S
C2858 H2852 0.950 . S
C2858 C2859 1.327 . S
C2859 H2853 0.950 . S
C2859 C2858 1.327 . S
C2859 C2863 1.429 . S
C2860 C2843 1.574 . S
C2860 H2854 0.949 . S
C2860 C2864 1.368 . S
C2861 C2842 1.429 . S
C2861 C2855 1.429 . S
C2861 C2862 1.523 . S
C2862 C2843 1.368 . S
C2862 C2856 1.368 . S
C2862 C2861 1.523 . S
C2863 C2847 1.429 . S
C2863 C2859 1.429 . S
C2863 C2864 1.523 . S
C2864 C2848 1.368 . S
C2864 C2860 1.368 . S
C2864 C2863 1.523 . S
H2865 C2840 0.950 . S
H2866 C2842 0.950 . S
H2867 C2843 0.949 . S
H2868 C2845 0.950 . S
H2869 C2847 0.950 . S
C2870 C2871 1.349 . S
C2870 C2872 1.327 . S
C2870 H2895 0.950 . S
C2871 C2870 1.349 . S
C2871 C2887 1.349 . S
C2872 C2870 1.327 . S
C2872 C2891 1.429 . S
C2872 H2896 0.950 . S
C2873 C2890 1.574 . S
C2873 C2892 1.368 . S
C2873 H2897 0.949 . S
H2874 C2878 0.949 . S
C2875 C2876 1.349 . S
C2875 C2877 1.327 . S
C2875 H2898 0.950 . S
C2876 C2875 1.349 . S
C2876 C2888 1.349 . S
C2877 C2875 1.327 . S
C2877 C2893 1.429 1_455 S
C2877 H2899 0.950 . S
C2878 H2874 0.949 . S
C2878 C2886 1.574 . S
C2878 C2894 1.368 . S
H2879 C2887 0.950 . S
H2880 C2885 0.950 . S
H2881 C2886 0.949 . S
H2882 C2888 0.950 . S
H2883 C2889 0.950 . S
H2884 C2890 0.949 . S
C2885 H2880 0.950 . S
C2885 C2887 1.327 . S
C2885 C2891 1.429 . S
C2886 C2878 1.574 . S
C2886 H2881 0.949 . S
C2886 C2892 1.368 . S
C2887 C2871 1.349 . S
C2887 H2879 0.950 . S
C2887 C2885 1.327 . S
C2888 C2876 1.349 . S
C2888 H2882 0.950 . S
C2888 C2889 1.327 1_455 S
C2889 H2883 0.950 . S
C2889 C2888 1.327 1_655 S
C2889 C2893 1.429 . S
C2890 C2873 1.574 . S
C2890 H2884 0.949 . S
C2890 C2894 1.368 . S
C2891 C2872 1.429 . S
C2891 C2885 1.429 . S
C2891 C2892 1.523 . S
C2892 C2873 1.368 . S
C2892 C2886 1.368 . S
C2892 C2891 1.523 . S
C2893 C2877 1.429 1_655 S
C2893 C2889 1.429 . S
C2893 C2894 1.523 . S
C2894 C2878 1.368 . S
C2894 C2890 1.368 . S
C2894 C2893 1.523 . S
H2895 C2870 0.950 . S
H2896 C2872 0.950 . S
H2897 C2873 0.949 . S
H2898 C2875 0.950 . S
H2899 C2877 0.950 . S
C2900 C2901 1.349 . S
C2900 C2902 1.327 . S
C2900 H2925 0.950 . S
C2901 C2900 1.349 . S
C2901 C2917 1.349 . S
C2902 C2900 1.327 . S
C2902 C2921 1.429 . S
C2902 H2926 0.950 . S
C2903 C2920 1.574 . S
C2903 C2922 1.368 . S
C2903 H2927 0.949 . S
H2904 C2908 0.949 . S
C2905 C2906 1.349 . S
C2905 C2907 1.327 . S
C2905 H2928 0.950 . S
C2906 C2905 1.349 . S
C2906 C2918 1.349 . S
C2907 C2905 1.327 . S
C2907 C2923 1.429 . S
C2907 H2929 0.950 . S
C2908 H2904 0.949 . S
C2908 C2916 1.574 . S
C2908 C2924 1.368 . S
H2909 C2917 0.950 . S
H2910 C2915 0.950 . S
H2911 C2916 0.949 . S
H2912 C2918 0.950 . S
H2913 C2919 0.950 . S
H2914 C2920 0.949 . S
C2915 H2910 0.950 . S
C2915 C2917 1.327 . S
C2915 C2921 1.429 . S
C2916 C2908 1.574 . S
C2916 H2911 0.949 . S
C2916 C2922 1.368 . S
C2917 C2901 1.349 . S
C2917 H2909 0.950 . S
C2917 C2915 1.327 . S
C2918 C2906 1.349 . S
C2918 H2912 0.950 . S
C2918 C2919 1.327 . S
C2919 H2913 0.950 . S
C2919 C2918 1.327 . S
C2919 C2923 1.429 . S
C2920 C2903 1.574 . S
C2920 H2914 0.949 . S
C2920 C2924 1.368 . S
C2921 C2902 1.429 . S
C2921 C2915 1.429 . S
C2921 C2922 1.523 . S
C2922 C2903 1.368 . S
C2922 C2916 1.368 . S
C2922 C2921 1.523 . S
C2923 C2907 1.429 . S
C2923 C2919 1.429 . S
C2923 C2924 1.523 . S
C2924 C2908 1.368 . S
C2924 C2920 1.368 . S
C2924 C2923 1.523 . S
H2925 C2900 0.950 . S
H2926 C2902 0.950 . S
H2927 C2903 0.949 . S
H2928 C2905 0.950 . S
H2929 C2907 0.950 . S
C2930 C2931 1.349 . S
C2930 C2932 1.327 . S
C2930 H2955 0.950 . S
C2931 C2930 1.349 . S
C2931 C2947 1.349 . S
C2932 C2930 1.327 . S
C2932 C2951 1.429 . S
C2932 H2956 0.950 . S
C2933 C2950 1.574 . S
C2933 C2952 1.368 . S
C2933 H2957 0.949 . S
H2934 C2938 0.949 . S
C2935 C2936 1.349 . S
C2935 C2937 1.327 . S
C2935 H2958 0.950 . S
C2936 C2935 1.349 . S
C2936 C2948 1.349 . S
C2937 C2935 1.327 . S
C2937 C2953 1.429 . S
C2937 H2959 0.950 . S
C2938 H2934 0.949 . S
C2938 C2946 1.574 . S
C2938 C2954 1.368 . S
H2939 C2947 0.950 . S
H2940 C2945 0.950 . S
H2941 C2946 0.949 . S
H2942 C2948 0.950 . S
H2943 C2949 0.950 . S
H2944 C2950 0.949 . S
C2945 H2940 0.950 . S
C2945 C2947 1.327 . S
C2945 C2951 1.429 . S
C2946 C2938 1.574 . S
C2946 H2941 0.949 . S
C2946 C2952 1.368 . S
C2947 C2931 1.349 . S
C2947 H2939 0.950 . S
C2947 C2945 1.327 . S
C2948 C2936 1.349 . S
C2948 H2942 0.950 . S
C2948 C2949 1.327 . S
C2949 H2943 0.950 . S
C2949 C2948 1.327 . S
C2949 C2953 1.429 . S
C2950 C2933 1.574 . S
C2950 H2944 0.949 . S
C2950 C2954 1.368 . S
C2951 C2932 1.429 . S
C2951 C2945 1.429 . S
C2951 C2952 1.523 . S
C2952 C2933 1.368 . S
C2952 C2946 1.368 . S
C2952 C2951 1.523 . S
C2953 C2937 1.429 . S
C2953 C2949 1.429 . S
C2953 C2954 1.523 . S
C2954 C2938 1.368 . S
C2954 C2950 1.368 . S
C2954 C2953 1.523 . S
H2955 C2930 0.950 . S
H2956 C2932 0.950 . S
H2957 C2933 0.949 . S
H2958 C2935 0.950 . S
H2959 C2937 0.950 . S
C2960 C2961 1.349 . S
C2960 C2962 1.327 . S
C2960 H2985 0.950 . S
C2961 C2960 1.349 . S
C2961 C2977 1.349 . S
C2962 C2960 1.327 . S
C2962 C2981 1.429 . S
C2962 H2986 0.950 . S
C2963 C2980 1.574 . S
C2963 C2982 1.368 . S
C2963 H2987 0.949 . S
H2964 C2968 0.949 . S
C2965 C2966 1.349 . S
C2965 C2967 1.327 . S
C2965 H2988 0.950 . S
C2966 C2965 1.349 . S
C2966 C2978 1.349 . S
C2967 C2965 1.327 . S
C2967 C2983 1.429 . S
C2967 H2989 0.950 . S
C2968 H2964 0.949 . S
C2968 C2976 1.574 . S
C2968 C2984 1.368 . S
H2969 C2977 0.950 . S
H2970 C2975 0.950 . S
H2971 C2976 0.949 . S
H2972 C2978 0.950 . S
H2973 C2979 0.950 . S
H2974 C2980 0.949 . S
C2975 H2970 0.950 . S
C2975 C2977 1.327 . S
C2975 C2981 1.429 . S
C2976 C2968 1.574 . S
C2976 H2971 0.949 . S
C2976 C2982 1.368 . S
C2977 C2961 1.349 . S
C2977 H2969 0.950 . S
C2977 C2975 1.327 . S
C2978 C2966 1.349 . S
C2978 H2972 0.950 . S
C2978 C2979 1.327 . S
C2979 H2973 0.950 . S
C2979 C2978 1.327 . S
C2979 C2983 1.429 . S
C2980 C2963 1.574 . S
C2980 H2974 0.949 . S
C2980 C2984 1.368 . S
C2981 C2962 1.429 . S
C2981 C2975 1.429 . S
C2981 C2982 1.523 . S
C2982 C2963 1.368 . S
C2982 C2976 1.368 . S
C2982 C2981 1.523 . S
C2983 C2967 1.429 . S
C2983 C2979 1.429 . S
C2983 C2984 1.523 . S
C2984 C2968 1.368 . S
C2984 C2980 1.368 . S
C2984 C2983 1.523 . S
H2985 C2960 0.950 . S
H2986 C2962 0.950 . S
H2987 C2963 0.949 . S
H2988 C2965 0.950 . S
H2989 C2967 0.950 . S
C2990 C2991 1.349 . S
C2990 C2992 1.327 . S
C2990 H3015 0.950 . S
C2991 C2990 1.349 . S
C2991 C3007 1.349 . S
C2992 C2990 1.327 . S
C2992 C3011 1.429 . S
C2992 H3016 0.950 . S
C2993 C3010 1.574 . S
C2993 C3012 1.368 . S
C2993 H3017 0.949 . S
H2994 C2998 0.949 . S
C2995 C2996 1.349 . S
C2995 C2997 1.327 . S
C2995 H3018 0.950 . S
C2996 C2995 1.349 . S
C2996 C3008 1.349 . S
C2997 C2995 1.327 . S
C2997 C3013 1.429 . S
C2997 H3019 0.950 . S
C2998 H2994 0.949 . S
C2998 C3006 1.574 . S
C2998 C3014 1.368 . S
H2999 C3007 0.950 . S
H3000 C3005 0.950 . S
H3001 C3006 0.949 . S
H3002 C3008 0.950 . S
H3003 C3009 0.950 . S
H3004 C3010 0.949 . S
C3005 H3000 0.950 . S
C3005 C3007 1.327 . S
C3005 C3011 1.429 . S
C3006 C2998 1.574 . S
C3006 H3001 0.949 . S
C3006 C3012 1.368 . S
C3007 C2991 1.349 . S
C3007 H2999 0.950 . S
C3007 C3005 1.327 . S
C3008 C2996 1.349 . S
C3008 H3002 0.950 . S
C3008 C3009 1.327 . S
C3009 H3003 0.950 . S
C3009 C3008 1.327 . S
C3009 C3013 1.429 . S
C3010 C2993 1.574 . S
C3010 H3004 0.949 . S
C3010 C3014 1.368 . S
C3011 C2992 1.429 . S
C3011 C3005 1.429 . S
C3011 C3012 1.523 . S
C3012 C2993 1.368 . S
C3012 C3006 1.368 . S
C3012 C3011 1.523 . S
C3013 C2997 1.429 . S
C3013 C3009 1.429 . S
C3013 C3014 1.523 . S
C3014 C2998 1.368 . S
C3014 C3010 1.368 . S
C3014 C3013 1.523 . S
H3015 C2990 0.950 . S
H3016 C2992 0.950 . S
H3017 C2993 0.949 . S
H3018 C2995 0.950 . S
H3019 C2997 0.950 . S
C3020 C3021 1.349 . S
C3020 C3022 1.327 . S
C3020 H3045 0.950 . S
C3021 C3020 1.349 . S
C3021 C3037 1.349 . S
C3022 C3020 1.327 . S
C3022 C3041 1.429 . S
C3022 H3046 0.950 . S
C3023 C3040 1.574 . S
C3023 C3042 1.368 . S
C3023 H3047 0.949 . S
H3024 C3028 0.949 . S
C3025 C3026 1.349 . S
C3025 C3027 1.327 . S
C3025 H3048 0.950 . S
C3026 C3025 1.349 . S
C3026 C3038 1.349 . S
C3027 C3025 1.327 . S
C3027 C3043 1.429 . S
C3027 H3049 0.950 . S
C3028 H3024 0.949 . S
C3028 C3036 1.574 . S
C3028 C3044 1.368 . S
H3029 C3037 0.950 . S
H3030 C3035 0.950 . S
H3031 C3036 0.949 . S
H3032 C3038 0.950 . S
H3033 C3039 0.950 . S
H3034 C3040 0.949 . S
C3035 H3030 0.950 . S
C3035 C3037 1.327 . S
C3035 C3041 1.429 . S
C3036 C3028 1.574 . S
C3036 H3031 0.949 . S
C3036 C3042 1.368 . S
C3037 C3021 1.349 . S
C3037 H3029 0.950 . S
C3037 C3035 1.327 . S
C3038 C3026 1.349 . S
C3038 H3032 0.950 . S
C3038 C3039 1.327 . S
C3039 H3033 0.950 . S
C3039 C3038 1.327 . S
C3039 C3043 1.429 . S
C3040 C3023 1.574 . S
C3040 H3034 0.949 . S
C3040 C3044 1.368 . S
C3041 C3022 1.429 . S
C3041 C3035 1.429 . S
C3041 C3042 1.523 . S
C3042 C3023 1.368 . S
C3042 C3036 1.368 . S
C3042 C3041 1.523 . S
C3043 C3027 1.429 . S
C3043 C3039 1.429 . S
C3043 C3044 1.523 . S
C3044 C3028 1.368 . S
C3044 C3040 1.368 . S
C3044 C3043 1.523 . S
H3045 C3020 0.950 . S
H3046 C3022 0.950 . S
H3047 C3023 0.949 . S
H3048 C3025 0.950 . S
H3049 C3027 0.950 . S
C3050 C3051 1.349 . S
C3050 C3052 1.327 . S
C3050 H3075 0.950 . S
C3051 C3050 1.349 . S
C3051 C3067 1.349 . S
C3052 C3050 1.327 . S
C3052 C3071 1.429 1_655 S
C3052 H3076 0.950 . S
C3053 C3070 1.574 . S
C3053 C3072 1.368 . S
C3053 H3077 0.949 . S
H3054 C3058 0.949 . S
C3055 C3056 1.349 . S
C3055 C3057 1.327 . S
C3055 H3078 0.950 . S
C3056 C3055 1.349 . S
C3056 C3068 1.349 . S
C3057 C3055 1.327 . S
C3057 C3073 1.429 . S
C3057 H3079 0.950 . S
C3058 H3054 0.949 . S
C3058 C3066 1.574 . S
C3058 C3074 1.368 . S
H3059 C3067 0.950 . S
H3060 C3065 0.950 . S
H3061 C3066 0.949 . S
H3062 C3068 0.950 . S
H3063 C3069 0.950 . S
H3064 C3070 0.949 . S
C3065 H3060 0.950 . S
C3065 C3067 1.327 1_455 S
C3065 C3071 1.429 . S
C3066 C3058 1.574 . S
C3066 H3061 0.949 . S
C3066 C3072 1.368 . S
C3067 C3051 1.349 . S
C3067 H3059 0.950 . S
C3067 C3065 1.327 1_655 S
C3068 C3056 1.349 . S
C3068 H3062 0.950 . S
C3068 C3069 1.327 . S
C3069 H3063 0.950 . S
C3069 C3068 1.327 . S
C3069 C3073 1.429 . S
C3070 C3053 1.574 . S
C3070 H3064 0.949 . S
C3070 C3074 1.368 . S
C3071 C3052 1.429 1_455 S
C3071 C3065 1.429 . S
C3071 C3072 1.523 . S
C3072 C3053 1.368 . S
C3072 C3066 1.368 . S
C3072 C3071 1.523 . S
C3073 C3057 1.429 . S
C3073 C3069 1.429 . S
C3073 C3074 1.523 . S
C3074 C3058 1.368 . S
C3074 C3070 1.368 . S
C3074 C3073 1.523 . S
H3075 C3050 0.950 . S
H3076 C3052 0.950 . S
H3077 C3053 0.949 . S
H3078 C3055 0.950 . S
H3079 C3057 0.950 . S
C3080 C3081 1.349 . S
C3080 C3082 1.327 . S
C3080 H3105 0.950 . S
C3081 C3080 1.349 . S
C3081 C3097 1.349 . S
C3082 C3080 1.327 . S
C3082 C3101 1.429 . S
C3082 H3106 0.950 . S
C3083 C3100 1.574 . S
C3083 C3102 1.368 . S
C3083 H3107 0.949 . S
H3084 C3088 0.949 . S
C3085 C3086 1.349 . S
C3085 C3087 1.327 . S
C3085 H3108 0.950 . S
C3086 C3085 1.349 . S
C3086 C3098 1.349 . S
C3087 C3085 1.327 . S
C3087 C3103 1.429 . S
C3087 H3109 0.950 . S
C3088 H3084 0.949 . S
C3088 C3096 1.574 . S
C3088 C3104 1.368 . S
H3089 C3097 0.950 . S
H3090 C3095 0.950 . S
H3091 C3096 0.949 . S
H3092 C3098 0.950 . S
H3093 C3099 0.950 . S
H3094 C3100 0.949 . S
C3095 H3090 0.950 . S
C3095 C3097 1.327 . S
C3095 C3101 1.429 . S
C3096 C3088 1.574 . S
C3096 H3091 0.949 . S
C3096 C3102 1.368 . S
C3097 C3081 1.349 . S
C3097 H3089 0.950 . S
C3097 C3095 1.327 . S
C3098 C3086 1.349 . S
C3098 H3092 0.950 . S
C3098 C3099 1.327 . S
C3099 H3093 0.950 . S
C3099 C3098 1.327 . S
C3099 C3103 1.429 . S
C3100 C3083 1.574 . S
C3100 H3094 0.949 . S
C3100 C3104 1.368 . S
C3101 C3082 1.429 . S
C3101 C3095 1.429 . S
C3101 C3102 1.523 . S
C3102 C3083 1.368 . S
C3102 C3096 1.368 . S
C3102 C3101 1.523 . S
C3103 C3087 1.429 . S
C3103 C3099 1.429 . S
C3103 C3104 1.523 . S
C3104 C3088 1.368 . S
C3104 C3100 1.368 . S
C3104 C3103 1.523 . S
H3105 C3080 0.950 . S
H3106 C3082 0.950 . S
H3107 C3083 0.949 . S
H3108 C3085 0.950 . S
H3109 C3087 0.950 . S
C3110 C3111 1.349 . S
C3110 C3112 1.327 . S
C3110 H3135 0.950 . S
C3111 C3110 1.349 . S
C3111 C3127 1.349 . S
C3112 C3110 1.327 . S
C3112 C3131 1.429 . S
C3112 H3136 0.950 . S
C3113 C3130 1.574 . S
C3113 C3132 1.368 . S
C3113 H3137 0.949 . S
H3114 C3118 0.949 . S
C3115 C3116 1.349 . S
C3115 C3117 1.327 . S
C3115 H3138 0.950 . S
C3116 C3115 1.349 . S
C3116 C3128 1.349 . S
C3117 C3115 1.327 . S
C3117 C3133 1.429 1_655 S
C3117 H3139 0.950 . S
C3118 H3114 0.949 . S
C3118 C3126 1.574 . S
C3118 C3134 1.368 . S
H3119 C3127 0.950 . S
H3120 C3125 0.950 . S
H3121 C3126 0.949 . S
H3122 C3128 0.950 . S
H3123 C3129 0.950 . S
H3124 C3130 0.949 . S
C3125 H3120 0.950 . S
C3125 C3127 1.327 . S
C3125 C3131 1.429 . S
C3126 C3118 1.574 . S
C3126 H3121 0.949 . S
C3126 C3132 1.368 . S
C3127 C3111 1.349 . S
C3127 H3119 0.950 . S
C3127 C3125 1.327 . S
C3128 C3116 1.349 . S
C3128 H3122 0.950 . S
C3128 C3129 1.327 1_655 S
C3129 H3123 0.950 . S
C3129 C3128 1.327 1_455 S
C3129 C3133 1.429 . S
C3130 C3113 1.574 . S
C3130 H3124 0.949 . S
C3130 C3134 1.368 . S
C3131 C3112 1.429 . S
C3131 C3125 1.429 . S
C3131 C3132 1.523 . S
C3132 C3113 1.368 . S
C3132 C3126 1.368 . S
C3132 C3131 1.523 . S
C3133 C3117 1.429 1_455 S
C3133 C3129 1.429 . S
C3133 C3134 1.523 . S
C3134 C3118 1.368 . S
C3134 C3130 1.368 . S
C3134 C3133 1.523 . S
H3135 C3110 0.950 . S
H3136 C3112 0.950 . S
H3137 C3113 0.949 . S
H3138 C3115 0.950 . S
H3139 C3117 0.950 . S
C3140 C3141 1.349 . S
C3140 C3142 1.327 . S
C3140 H3165 0.950 . S
C3141 C3140 1.349 . S
C3141 C3157 1.349 . S
C3142 C3140 1.327 . S
C3142 C3161 1.429 . S
C3142 H3166 0.950 . S
C3143 C3160 1.574 . S
C3143 C3162 1.368 . S
C3143 H3167 0.949 . S
H3144 C3148 0.949 . S
C3145 C3146 1.349 . S
C3145 C3147 1.327 . S
C3145 H3168 0.950 . S
C3146 C3145 1.349 . S
C3146 C3158 1.349 . S
C3147 C3145 1.327 . S
C3147 C3163 1.429 . S
C3147 H3169 0.950 . S
C3148 H3144 0.949 . S
C3148 C3156 1.574 . S
C3148 C3164 1.368 . S
H3149 C3157 0.950 . S
H3150 C3155 0.950 . S
H3151 C3156 0.949 . S
H3152 C3158 0.950 . S
H3153 C3159 0.950 . S
H3154 C3160 0.949 . S
C3155 H3150 0.950 . S
C3155 C3157 1.327 . S
C3155 C3161 1.429 . S
C3156 C3148 1.574 . S
C3156 H3151 0.949 . S
C3156 C3162 1.368 . S
C3157 C3141 1.349 . S
C3157 H3149 0.950 . S
C3157 C3155 1.327 . S
C3158 C3146 1.349 . S
C3158 H3152 0.950 . S
C3158 C3159 1.327 . S
C3159 H3153 0.950 . S
C3159 C3158 1.327 . S
C3159 C3163 1.429 . S
C3160 C3143 1.574 . S
C3160 H3154 0.949 . S
C3160 C3164 1.368 . S
C3161 C3142 1.429 . S
C3161 C3155 1.429 . S
C3161 C3162 1.523 . S
C3162 C3143 1.368 . S
C3162 C3156 1.368 . S
C3162 C3161 1.523 . S
C3163 C3147 1.429 . S
C3163 C3159 1.429 . S
C3163 C3164 1.523 . S
C3164 C3148 1.368 . S
C3164 C3160 1.368 . S
C3164 C3163 1.523 . S
H3165 C3140 0.950 . S
H3166 C3142 0.950 . S
H3167 C3143 0.949 . S
H3168 C3145 0.950 . S
H3169 C3147 0.950 . S
C3170 C3171 1.349 . S
C3170 C3172 1.327 . S
C3170 H3195 0.950 . S
C3171 C3170 1.349 . S
C3171 C3187 1.349 . S
C3172 C3170 1.327 . S
C3172 C3191 1.429 . S
C3172 H3196 0.950 . S
C3173 C3190 1.574 . S
C3173 C3192 1.368 . S
C3173 H3197 0.949 . S
H3174 C3178 0.949 . S
C3175 C3176 1.349 . S
C3175 C3177 1.327 . S
C3175 H3198 0.950 . S
C3176 C3175 1.349 . S
C3176 C3188 1.349 . S
C3177 C3175 1.327 . S
C3177 C3193 1.429 . S
C3177 H3199 0.950 . S
C3178 H3174 0.949 . S
C3178 C3186 1.574 . S
C3178 C3194 1.368 . S
H3179 C3187 0.950 . S
H3180 C3185 0.950 . S
H3181 C3186 0.949 . S
H3182 C3188 0.950 . S
H3183 C3189 0.950 . S
H3184 C3190 0.949 . S
C3185 H3180 0.950 . S
C3185 C3187 1.327 . S
C3185 C3191 1.429 . S
C3186 C3178 1.574 . S
C3186 H3181 0.949 . S
C3186 C3192 1.368 . S
C3187 C3171 1.349 . S
C3187 H3179 0.950 . S
C3187 C3185 1.327 . S
C3188 C3176 1.349 . S
C3188 H3182 0.950 . S
C3188 C3189 1.327 . S
C3189 H3183 0.950 . S
C3189 C3188 1.327 . S
C3189 C3193 1.429 . S
C3190 C3173 1.574 . S
C3190 H3184 0.949 . S
C3190 C3194 1.368 . S
C3191 C3172 1.429 . S
C3191 C3185 1.429 . S
C3191 C3192 1.523 . S
C3192 C3173 1.368 . S
C3192 C3186 1.368 . S
C3192 C3191 1.523 . S
C3193 C3177 1.429 . S
C3193 C3189 1.429 . S
C3193 C3194 1.523 . S
C3194 C3178 1.368 . S
C3194 C3190 1.368 . S
C3194 C3193 1.523 . S
H3195 C3170 0.950 . S
H3196 C3172 0.950 . S
H3197 C3173 0.949 . S
H3198 C3175 0.950 . S
H3199 C3177 0.950 . S
C3200 C3201 1.349 . S
C3200 C3202 1.327 . S
C3200 H3225 0.950 . S
C3201 C3200 1.349 . S
C3201 C3217 1.349 . S
C3202 C3200 1.327 . S
C3202 C3221 1.429 . S
C3202 H3226 0.950 . S
C3203 C3220 1.574 1_545 S
C3203 C3222 1.368 . S
C3203 H3227 0.949 . S
H3204 C3208 0.949 . S
C3205 C3206 1.349 . S
C3205 C3207 1.327 . S
C3205 H3228 0.950 . S
C3206 C3205 1.349 . S
C3206 C3218 1.349 . S
C3207 C3205 1.327 . S
C3207 C3223 1.429 . S
C3207 H3229 0.950 . S
C3208 H3204 0.949 . S
C3208 C3216 1.574 1_565 S
C3208 C3224 1.368 . S
H3209 C3217 0.950 . S
H3210 C3215 0.950 . S
H3211 C3216 0.949 . S
H3212 C3218 0.950 . S
H3213 C3219 0.950 . S
H3214 C3220 0.949 . S
C3215 H3210 0.950 . S
C3215 C3217 1.327 . S
C3215 C3221 1.429 . S
C3216 C3208 1.574 1_545 S
C3216 H3211 0.949 . S
C3216 C3222 1.368 . S
C3217 C3201 1.349 . S
C3217 H3209 0.950 . S
C3217 C3215 1.327 . S
C3218 C3206 1.349 . S
C3218 H3212 0.950 . S
C3218 C3219 1.327 . S
C3219 H3213 0.950 . S
C3219 C3218 1.327 . S
C3219 C3223 1.429 . S
C3220 C3203 1.574 1_565 S
C3220 H3214 0.949 . S
C3220 C3224 1.368 . S
C3221 C3202 1.429 . S
C3221 C3215 1.429 . S
C3221 C3222 1.523 . S
C3222 C3203 1.368 . S
C3222 C3216 1.368 . S
C3222 C3221 1.523 . S
C3223 C3207 1.429 . S
C3223 C3219 1.429 . S
C3223 C3224 1.523 . S
C3224 C3208 1.368 . S
C3224 C3220 1.368 . S
C3224 C3223 1.523 . S
H3225 C3200 0.950 . S
H3226 C3202 0.950 . S
H3227 C3203 0.949 . S
H3228 C3205 0.950 . S
H3229 C3207 0.950 . S
C3230 C3231 1.349 . S
C3230 C3232 1.327 . S
C3230 H3255 0.950 . S
C3231 C3230 1.349 . S
C3231 C3247 1.349 . S
C3232 C3230 1.327 . S
C3232 C3251 1.429 . S
C3232 H3256 0.950 . S
C3233 C3250 1.574 . S
C3233 C3252 1.368 . S
C3233 H3257 0.949 . S
H3234 C3238 0.949 . S
C3235 C3236 1.349 . S
C3235 C3237 1.327 . S
C3235 H3258 0.950 . S
C3236 C3235 1.349 . S
C3236 C3248 1.349 . S
C3237 C3235 1.327 . S
C3237 C3253 1.429 . S
C3237 H3259 0.950 . S
C3238 H3234 0.949 . S
C3238 C3246 1.574 . S
C3238 C3254 1.368 . S
H3239 C3247 0.950 . S
H3240 C3245 0.950 . S
H3241 C3246 0.949 . S
H3242 C3248 0.950 . S
H3243 C3249 0.950 . S
H3244 C3250 0.949 . S
C3245 H3240 0.950 . S
C3245 C3247 1.327 . S
C3245 C3251 1.429 . S
C3246 C3238 1.574 . S
C3246 H3241 0.949 . S
C3246 C3252 1.368 . S
C3247 C3231 1.349 . S
C3247 H3239 0.950 . S
C3247 C3245 1.327 . S
C3248 C3236 1.349 . S
C3248 H3242 0.950 . S
C3248 C3249 1.327 . S
C3249 H3243 0.950 . S
C3249 C3248 1.327 . S
C3249 C3253 1.429 . S
C3250 C3233 1.574 . S
C3250 H3244 0.949 . S
C3250 C3254 1.368 . S
C3251 C3232 1.429 . S
C3251 C3245 1.429 . S
C3251 C3252 1.523 . S
C3252 C3233 1.368 . S
C3252 C3246 1.368 . S
C3252 C3251 1.523 . S
C3253 C3237 1.429 . S
C3253 C3249 1.429 . S
C3253 C3254 1.523 . S
C3254 C3238 1.368 . S
C3254 C3250 1.368 . S
C3254 C3253 1.523 . S
H3255 C3230 0.950 . S
H3256 C3232 0.950 . S
H3257 C3233 0.949 . S
H3258 C3235 0.950 . S
H3259 C3237 0.950 . S
C3260 C3261 1.349 . S
C3260 C3262 1.327 . S
C3260 H3285 0.950 . S
C3261 C3260 1.349 . S
C3261 C3277 1.349 . S
C3262 C3260 1.327 . S
C3262 C3281 1.429 . S
C3262 H3286 0.950 . S
C3263 C3280 1.574 1_565 S
C3263 C3282 1.368 . S
C3263 H3287 0.949 . S
H3264 C3268 0.949 . S
C3265 C3266 1.349 . S
C3265 C3267 1.327 . S
C3265 H3288 0.950 . S
C3266 C3265 1.349 . S
C3266 C3278 1.349 . S
C3267 C3265 1.327 . S
C3267 C3283 1.429 . S
C3267 H3289 0.950 . S
C3268 H3264 0.949 . S
C3268 C3276 1.574 1_545 S
C3268 C3284 1.368 . S
H3269 C3277 0.950 . S
H3270 C3275 0.950 . S
H3271 C3276 0.949 . S
H3272 C3278 0.950 . S
H3273 C3279 0.950 . S
H3274 C3280 0.949 . S
C3275 H3270 0.950 . S
C3275 C3277 1.327 . S
C3275 C3281 1.429 . S
C3276 C3268 1.574 1_565 S
C3276 H3271 0.949 . S
C3276 C3282 1.368 . S
C3277 C3261 1.349 . S
C3277 H3269 0.950 . S
C3277 C3275 1.327 . S
C3278 C3266 1.349 . S
C3278 H3272 0.950 . S
C3278 C3279 1.327 . S
C3279 H3273 0.950 . S
C3279 C3278 1.327 . S
C3279 C3283 1.429 . S
C3280 C3263 1.574 1_545 S
C3280 H3274 0.949 . S
C3280 C3284 1.368 . S
C3281 C3262 1.429 . S
C3281 C3275 1.429 . S
C3281 C3282 1.523 . S
C3282 C3263 1.368 . S
C3282 C3276 1.368 . S
C3282 C3281 1.523 . S
C3283 C3267 1.429 . S
C3283 C3279 1.429 . S
C3283 C3284 1.523 . S
C3284 C3268 1.368 . S
C3284 C3280 1.368 . S
C3284 C3283 1.523 . S
H3285 C3260 0.950 . S
H3286 C3262 0.950 . S
H3287 C3263 0.949 . S
H3288 C3265 0.950 . S
H3289 C3267 0.950 . S
C3290 C3291 1.349 . S
C3290 C3292 1.327 1_556 S
C3290 H3315 0.950 1_556 S
C3291 C3290 1.349 . S
C3291 C3307 1.349 . S
C3292 C3290 1.327 1_554 S
C3292 C3311 1.429 1_554 S
C3292 H3316 0.950 . S
C3293 C3310 1.574 . S
C3293 C3312 1.368 . S
C3293 H3317 0.949 . S
H3294 C3298 0.949 . S
C3295 C3296 1.349 . S
C3295 C3297 1.327 1_554 S
C3295 H3318 0.950 1_554 S
C3296 C3295 1.349 . S
C3296 C3308 1.349 . S
C3297 C3295 1.327 1_556 S
C3297 C3313 1.429 1_556 S
C3297 H3319 0.950 . S
C3298 H3294 0.949 . S
C3298 C3306 1.574 . S
C3298 C3314 1.368 . S
H3299 C3307 0.950 . S
H3300 C3305 0.950 . S
H3301 C3306 0.949 . S
H3302 C3308 0.950 . S
H3303 C3309 0.950 . S
H3304 C3310 0.949 . S
C3305 H3300 0.950 . S
C3305 C3307 1.327 . S
C3305 C3311 1.429 . S
C3306 C3298 1.574 . S
C3306 H3301 0.949 . S
C3306 C3312 1.368 1_554 S
C3307 C3291 1.349 . S
C3307 H3299 0.950 . S
C3307 C3305 1.327 . S
C3308 C3296 1.349 . S
C3308 H3302 0.950 . S
C3308 C3309 1.327 . S
C3309 H3303 0.950 . S
C3309 C3308 1.327 . S
C3309 C3313 1.429 . S
C3310 C3293 1.574 . S
C3310 H3304 0.949 . S
C3310 C3314 1.368 1_556 S
C3311 C3292 1.429 1_556 S
C3311 C3305 1.429 . S
C3311 C3312 1.523 . S
C3312 C3293 1.368 . S
C3312 C3306 1.368 1_556 S
C3312 C3311 1.523 . S
C3313 C3297 1.429 1_554 S
C3313 C3309 1.429 . S
C3313 C3314 1.523 . S
C3314 C3298 1.368 . S
C3314 C3310 1.368 1_554 S
C3314 C3313 1.523 . S
H3315 C3290 0.950 1_554 S
H3316 C3292 0.950 . S
H3317 C3293 0.949 . S
H3318 C3295 0.950 1_556 S
H3319 C3297 0.950 . S
C3320 C3321 1.349 . S
C3320 C3322 1.327 . S
C3320 H3345 0.950 . S
C3321 C3320 1.349 . S
C3321 C3337 1.349 . S
C3322 C3320 1.327 . S
C3322 C3341 1.429 . S
C3322 H3346 0.950 . S
C3323 C3340 1.574 1_545 S
C3323 C3342 1.368 . S
C3323 H3347 0.949 . S
H3324 C3328 0.949 . S
C3325 C3326 1.349 . S
C3325 C3327 1.327 . S
C3325 H3348 0.950 . S
C3326 C3325 1.349 . S
C3326 C3338 1.349 . S
C3327 C3325 1.327 . S
C3327 C3343 1.429 . S
C3327 H3349 0.950 . S
C3328 H3324 0.949 . S
C3328 C3336 1.574 1_565 S
C3328 C3344 1.368 . S
H3329 C3337 0.950 . S
H3330 C3335 0.950 . S
H3331 C3336 0.949 . S
H3332 C3338 0.950 . S
H3333 C3339 0.950 . S
H3334 C3340 0.949 . S
C3335 H3330 0.950 . S
C3335 C3337 1.327 . S
C3335 C3341 1.429 . S
C3336 C3328 1.574 1_545 S
C3336 H3331 0.949 . S
C3336 C3342 1.368 . S
C3337 C3321 1.349 . S
C3337 H3329 0.950 . S
C3337 C3335 1.327 . S
C3338 C3326 1.349 . S
C3338 H3332 0.950 . S
C3338 C3339 1.327 . S
C3339 H3333 0.950 . S
C3339 C3338 1.327 . S
C3339 C3343 1.429 . S
C3340 C3323 1.574 1_565 S
C3340 H3334 0.949 . S
C3340 C3344 1.368 . S
C3341 C3322 1.429 . S
C3341 C3335 1.429 . S
C3341 C3342 1.523 . S
C3342 C3323 1.368 . S
C3342 C3336 1.368 . S
C3342 C3341 1.523 . S
C3343 C3327 1.429 . S
C3343 C3339 1.429 . S
C3343 C3344 1.523 . S
C3344 C3328 1.368 . S
C3344 C3340 1.368 . S
C3344 C3343 1.523 . S
H3345 C3320 0.950 . S
H3346 C3322 0.950 . S
H3347 C3323 0.949 . S
H3348 C3325 0.950 . S
H3349 C3327 0.950 . S
C3350 C3351 1.349 . S
C3350 C3352 1.327 . S
C3350 H3375 0.950 . S
C3351 C3350 1.349 . S
C3351 C3367 1.349 . S
C3352 C3350 1.327 . S
C3352 C3371 1.429 . S
C3352 H3376 0.950 . S
C3353 C3370 1.574 . S
C3353 C3372 1.368 . S
C3353 H3377 0.949 . S
H3354 C3358 0.949 . S
C3355 C3356 1.349 . S
C3355 C3357 1.327 . S
C3355 H3378 0.950 . S
C3356 C3355 1.349 . S
C3356 C3368 1.349 . S
C3357 C3355 1.327 . S
C3357 C3373 1.429 . S
C3357 H3379 0.950 . S
C3358 H3354 0.949 . S
C3358 C3366 1.574 . S
C3358 C3374 1.368 . S
H3359 C3367 0.950 . S
H3360 C3365 0.950 . S
H3361 C3366 0.949 . S
H3362 C3368 0.950 . S
H3363 C3369 0.950 . S
H3364 C3370 0.949 . S
C3365 H3360 0.950 . S
C3365 C3367 1.327 . S
C3365 C3371 1.429 . S
C3366 C3358 1.574 . S
C3366 H3361 0.949 . S
C3366 C3372 1.368 . S
C3367 C3351 1.349 . S
C3367 H3359 0.950 . S
C3367 C3365 1.327 . S
C3368 C3356 1.349 . S
C3368 H3362 0.950 . S
C3368 C3369 1.327 . S
C3369 H3363 0.950 . S
C3369 C3368 1.327 . S
C3369 C3373 1.429 . S
C3370 C3353 1.574 . S
C3370 H3364 0.949 . S
C3370 C3374 1.368 . S
C3371 C3352 1.429 . S
C3371 C3365 1.429 . S
C3371 C3372 1.523 . S
C3372 C3353 1.368 . S
C3372 C3366 1.368 . S
C3372 C3371 1.523 . S
C3373 C3357 1.429 . S
C3373 C3369 1.429 . S
C3373 C3374 1.523 . S
C3374 C3358 1.368 . S
C3374 C3370 1.368 . S
C3374 C3373 1.523 . S
H3375 C3350 0.950 . S
H3376 C3352 0.950 . S
H3377 C3353 0.949 . S
H3378 C3355 0.950 . S
H3379 C3357 0.950 . S
C3380 C3381 1.349 . S
C3380 C3382 1.327 . S
C3380 H3405 0.950 . S
C3381 C3380 1.349 . S
C3381 C3397 1.349 . S
C3382 C3380 1.327 . S
C3382 C3401 1.429 . S
C3382 H3406 0.950 . S
C3383 C3400 1.574 1_545 S
C3383 C3402 1.368 . S
C3383 H3407 0.949 . S
H3384 C3388 0.949 . S
C3385 C3386 1.349 . S
C3385 C3387 1.327 . S
C3385 H3408 0.950 . S
C3386 C3385 1.349 . S
C3386 C3398 1.349 . S
C3387 C3385 1.327 . S
C3387 C3403 1.429 . S
C3387 H3409 0.950 . S
C3388 H3384 0.949 . S
C3388 C3396 1.574 1_565 S
C3388 C3404 1.368 . S
H3389 C3397 0.950 . S
H3390 C3395 0.950 . S
H3391 C3396 0.949 . S
H3392 C3398 0.950 . S
H3393 C3399 0.950 . S
H3394 C3400 0.949 . S
C3395 H3390 0.950 . S
C3395 C3397 1.327 . S
C3395 C3401 1.429 . S
C3396 C3388 1.574 1_545 S
C3396 H3391 0.949 . S
C3396 C3402 1.368 . S
C3397 C3381 1.349 . S
C3397 H3389 0.950 . S
C3397 C3395 1.327 . S
C3398 C3386 1.349 . S
C3398 H3392 0.950 . S
C3398 C3399 1.327 . S
C3399 H3393 0.950 . S
C3399 C3398 1.327 . S
C3399 C3403 1.429 . S
C3400 C3383 1.574 1_565 S
C3400 H3394 0.949 . S
C3400 C3404 1.368 . S
C3401 C3382 1.429 . S
C3401 C3395 1.429 . S
C3401 C3402 1.523 . S
C3402 C3383 1.368 . S
C3402 C3396 1.368 . S
C3402 C3401 1.523 . S
C3403 C3387 1.429 . S
C3403 C3399 1.429 . S
C3403 C3404 1.523 . S
C3404 C3388 1.368 . S
C3404 C3400 1.368 . S
C3404 C3403 1.523 . S
H3405 C3380 0.950 . S
H3406 C3382 0.950 . S
H3407 C3383 0.949 . S
H3408 C3385 0.950 . S
H3409 C3387 0.950 . S
C3410 C3411 1.349 . S
C3410 C3412 1.327 . S
C3410 H3435 0.950 . S
C3411 C3410 1.349 . S
C3411 C3427 1.349 . S
C3412 C3410 1.327 . S
C3412 C3431 1.429 . S
C3412 H3436 0.950 . S
C3413 C3430 1.574 . S
C3413 C3432 1.368 1_554 S
C3413 H3437 0.949 . S
H3414 C3418 0.949 . S
C3415 C3416 1.349 . S
C3415 C3417 1.327 . S
C3415 H3438 0.950 . S
C3416 C3415 1.349 . S
C3416 C3428 1.349 . S
C3417 C3415 1.327 . S
C3417 C3433 1.429 . S
C3417 H3439 0.950 . S
C3418 H3414 0.949 . S
C3418 C3426 1.574 . S
C3418 C3434 1.368 1_556 S
H3419 C3427 0.950 1_554 S
H3420 C3425 0.950 . S
H3421 C3426 0.949 . S
H3422 C3428 0.950 1_556 S
H3423 C3429 0.950 . S
H3424 C3430 0.949 . S
C3425 H3420 0.950 . S
C3425 C3427 1.327 1_554 S
C3425 C3431 1.429 1_554 S
C3426 C3418 1.574 . S
C3426 H3421 0.949 . S
C3426 C3432 1.368 . S
C3427 C3411 1.349 . S
C3427 H3419 0.950 1_556 S
C3427 C3425 1.327 1_556 S
C3428 C3416 1.349 . S
C3428 H3422 0.950 1_554 S
C3428 C3429 1.327 1_554 S
C3429 H3423 0.950 . S
C3429 C3428 1.327 1_556 S
C3429 C3433 1.429 1_556 S
C3430 C3413 1.574 . S
C3430 H3424 0.949 . S
C3430 C3434 1.368 . S
C3431 C3412 1.429 . S
C3431 C3425 1.429 1_556 S
C3431 C3432 1.523 . S
C3432 C3413 1.368 1_556 S
C3432 C3426 1.368 . S
C3432 C3431 1.523 . S
C3433 C3417 1.429 . S
C3433 C3429 1.429 1_554 S
C3433 C3434 1.523 . S
C3434 C3418 1.368 1_554 S
C3434 C3430 1.368 . S
C3434 C3433 1.523 . S
H3435 C3410 0.950 . S
H3436 C3412 0.950 . S
H3437 C3413 0.949 . S
H3438 C3415 0.950 . S
H3439 C3417 0.950 . S
C3440 C3441 1.349 . S
C3440 C3442 1.327 . S
C3440 H3465 0.950 . S
C3441 C3440 1.349 . S
C3441 C3457 1.349 . S
C3442 C3440 1.327 . S
C3442 C3461 1.429 . S
C3442 H3466 0.950 . S
C3443 C3460 1.574 . S
C3443 C3462 1.368 . S
C3443 H3467 0.949 . S
H3444 C3448 0.949 . S
C3445 C3446 1.349 . S
C3445 C3447 1.327 . S
C3445 H3468 0.950 . S
C3446 C3445 1.349 . S
C3446 C3458 1.349 . S
C3447 C3445 1.327 . S
C3447 C3463 1.429 . S
C3447 H3469 0.950 . S
C3448 H3444 0.949 . S
C3448 C3456 1.574 . S
C3448 C3464 1.368 . S
H3449 C3457 0.950 . S
H3450 C3455 0.950 . S
H3451 C3456 0.949 . S
H3452 C3458 0.950 . S
H3453 C3459 0.950 . S
H3454 C3460 0.949 . S
C3455 H3450 0.950 . S
C3455 C3457 1.327 . S
C3455 C3461 1.429 . S
C3456 C3448 1.574 . S
C3456 H3451 0.949 . S
C3456 C3462 1.368 . S
C3457 C3441 1.349 . S
C3457 H3449 0.950 . S
C3457 C3455 1.327 . S
C3458 C3446 1.349 . S
C3458 H3452 0.950 . S
C3458 C3459 1.327 . S
C3459 H3453 0.950 . S
C3459 C3458 1.327 . S
C3459 C3463 1.429 . S
C3460 C3443 1.574 . S
C3460 H3454 0.949 . S
C3460 C3464 1.368 . S
C3461 C3442 1.429 . S
C3461 C3455 1.429 . S
C3461 C3462 1.523 . S
C3462 C3443 1.368 . S
C3462 C3456 1.368 . S
C3462 C3461 1.523 . S
C3463 C3447 1.429 . S
C3463 C3459 1.429 . S
C3463 C3464 1.523 . S
C3464 C3448 1.368 . S
C3464 C3460 1.368 . S
C3464 C3463 1.523 . S
H3465 C3440 0.950 . S
H3466 C3442 0.950 . S
H3467 C3443 0.949 . S
H3468 C3445 0.950 . S
H3469 C3447 0.950 . S
C3470 C3471 1.349 . S
C3470 C3472 1.327 . S
C3470 H3495 0.950 . S
C3471 C3470 1.349 . S
C3471 C3487 1.349 . S
C3472 C3470 1.327 . S
C3472 C3491 1.429 . S
C3472 H3496 0.950 . S
C3473 C3490 1.574 . S
C3473 C3492 1.368 1_554 S
C3473 H3497 0.949 . S
H3474 C3478 0.949 . S
C3475 C3476 1.349 . S
C3475 C3477 1.327 . S
C3475 H3498 0.950 . S
C3476 C3475 1.349 . S
C3476 C3488 1.349 . S
C3477 C3475 1.327 . S
C3477 C3493 1.429 . S
C3477 H3499 0.950 . S
C3478 H3474 0.949 . S
C3478 C3486 1.574 . S
C3478 C3494 1.368 1_556 S
H3479 C3487 0.950 1_554 S
H3480 C3485 0.950 . S
H3481 C3486 0.949 . S
H3482 C3488 0.950 1_556 S
H3483 C3489 0.950 . S
H3484 C3490 0.949 . S
C3485 H3480 0.950 . S
C3485 C3487 1.327 1_554 S
C3485 C3491 1.429 1_554 S
C3486 C3478 1.574 . S
C3486 H3481 0.949 . S
C3486 C3492 1.368 . S
C3487 C3471 1.349 . S
C3487 H3479 0.950 1_556 S
C3487 C3485 1.327 1_556 S
C3488 C3476 1.349 . S
C3488 H3482 0.950 1_554 S
C3488 C3489 1.327 1_554 S
C3489 H3483 0.950 . S
C3489 C3488 1.327 1_556 S
C3489 C3493 1.429 1_556 S
C3490 C3473 1.574 . S
C3490 H3484 0.949 . S
C3490 C3494 1.368 . S
C3491 C3472 1.429 . S
C3491 C3485 1.429 1_556 S
C3491 C3492 1.523 . S
C3492 C3473 1.368 1_556 S
C3492 C3486 1.368 . S
C3492 C3491 1.523 . S
C3493 C3477 1.429 . S
C3493 C3489 1.429 1_554 S
C3493 C3494 1.523 . S
C3494 C3478 1.368 1_554 S
C3494 C3490 1.368 . S
C3494 C3493 1.523 . S
H3495 C3470 0.950 . S
H3496 C3472 0.950 . S
H3497 C3473 0.949 . S
H3498 C3475 0.950 . S
H3499 C3477 0.950 . S
C3500 C3501 1.349 . S
C3500 C3502 1.327 . S
C3500 H3525 0.950 . S
C3501 C3500 1.349 . S
C3501 C3517 1.349 . S
C3502 C3500 1.327 . S
C3502 C3521 1.429 . S
C3502 H3526 0.950 . S
C3503 C3520 1.574 . S
C3503 C3522 1.368 . S
C3503 H3527 0.949 . S
H3504 C3508 0.949 . S
C3505 C3506 1.349 . S
C3505 C3507 1.327 . S
C3505 H3528 0.950 . S
C3506 C3505 1.349 . S
C3506 C3518 1.349 . S
C3507 C3505 1.327 . S
C3507 C3523 1.429 . S
C3507 H3529 0.950 . S
C3508 H3504 0.949 . S
C3508 C3516 1.574 . S
C3508 C3524 1.368 . S
H3509 C3517 0.950 . S
H3510 C3515 0.950 . S
H3511 C3516 0.949 . S
H3512 C3518 0.950 . S
H3513 C3519 0.950 . S
H3514 C3520 0.949 . S
C3515 H3510 0.950 . S
C3515 C3517 1.327 . S
C3515 C3521 1.429 . S
C3516 C3508 1.574 . S
C3516 H3511 0.949 . S
C3516 C3522 1.368 . S
C3517 C3501 1.349 . S
C3517 H3509 0.950 . S
C3517 C3515 1.327 . S
C3518 C3506 1.349 . S
C3518 H3512 0.950 . S
C3518 C3519 1.327 . S
C3519 H3513 0.950 . S
C3519 C3518 1.327 . S
C3519 C3523 1.429 . S
C3520 C3503 1.574 . S
C3520 H3514 0.949 . S
C3520 C3524 1.368 . S
C3521 C3502 1.429 . S
C3521 C3515 1.429 . S
C3521 C3522 1.523 . S
C3522 C3503 1.368 . S
C3522 C3516 1.368 . S
C3522 C3521 1.523 . S
C3523 C3507 1.429 . S
C3523 C3519 1.429 . S
C3523 C3524 1.523 . S
C3524 C3508 1.368 . S
C3524 C3520 1.368 . S
C3524 C3523 1.523 . S
H3525 C3500 0.950 . S
H3526 C3502 0.950 . S
H3527 C3503 0.949 . S
H3528 C3505 0.950 . S
H3529 C3507 0.950 . S
C3530 C3531 1.349 . S
C3530 C3532 1.327 . S
C3530 H3555 0.950 . S
C3531 C3530 1.349 . S
C3531 C3547 1.349 . S
C3532 C3530 1.327 . S
C3532 C3551 1.429 . S
C3532 H3556 0.950 . S
C3533 C3550 1.574 . S
C3533 C3552 1.368 . S
C3533 H3557 0.949 . S
H3534 C3538 0.949 . S
C3535 C3536 1.349 . S
C3535 C3537 1.327 . S
C3535 H3558 0.950 . S
C3536 C3535 1.349 . S
C3536 C3548 1.349 . S
C3537 C3535 1.327 . S
C3537 C3553 1.429 . S
C3537 H3559 0.950 . S
C3538 H3534 0.949 . S
C3538 C3546 1.574 . S
C3538 C3554 1.368 . S
H3539 C3547 0.950 . S
H3540 C3545 0.950 . S
H3541 C3546 0.949 . S
H3542 C3548 0.950 . S
H3543 C3549 0.950 . S
H3544 C3550 0.949 . S
C3545 H3540 0.950 . S
C3545 C3547 1.327 . S
C3545 C3551 1.429 . S
C3546 C3538 1.574 . S
C3546 H3541 0.949 . S
C3546 C3552 1.368 . S
C3547 C3531 1.349 . S
C3547 H3539 0.950 . S
C3547 C3545 1.327 . S
C3548 C3536 1.349 . S
C3548 H3542 0.950 . S
C3548 C3549 1.327 . S
C3549 H3543 0.950 . S
C3549 C3548 1.327 . S
C3549 C3553 1.429 . S
C3550 C3533 1.574 . S
C3550 H3544 0.949 . S
C3550 C3554 1.368 . S
C3551 C3532 1.429 . S
C3551 C3545 1.429 . S
C3551 C3552 1.523 . S
C3552 C3533 1.368 . S
C3552 C3546 1.368 . S
C3552 C3551 1.523 . S
C3553 C3537 1.429 . S
C3553 C3549 1.429 . S
C3553 C3554 1.523 . S
C3554 C3538 1.368 . S
C3554 C3550 1.368 . S
C3554 C3553 1.523 . S
H3555 C3530 0.950 . S
H3556 C3532 0.950 . S
H3557 C3533 0.949 . S
H3558 C3535 0.950 . S
H3559 C3537 0.950 . S
C3560 C3561 1.349 . S
C3560 C3562 1.327 . S
C3560 H3585 0.950 . S
C3561 C3560 1.349 . S
C3561 C3577 1.349 . S
C3562 C3560 1.327 . S
C3562 C3581 1.429 . S
C3562 H3586 0.950 . S
C3563 C3580 1.574 . S
C3563 C3582 1.368 . S
C3563 H3587 0.949 . S
H3564 C3568 0.949 . S
C3565 C3566 1.349 . S
C3565 C3567 1.327 . S
C3565 H3588 0.950 . S
C3566 C3565 1.349 . S
C3566 C3578 1.349 . S
C3567 C3565 1.327 . S
C3567 C3583 1.429 . S
C3567 H3589 0.950 . S
C3568 H3564 0.949 . S
C3568 C3576 1.574 . S
C3568 C3584 1.368 . S
H3569 C3577 0.950 . S
H3570 C3575 0.950 . S
H3571 C3576 0.949 . S
H3572 C3578 0.950 . S
H3573 C3579 0.950 . S
H3574 C3580 0.949 . S
C3575 H3570 0.950 . S
C3575 C3577 1.327 . S
C3575 C3581 1.429 . S
C3576 C3568 1.574 . S
C3576 H3571 0.949 . S
C3576 C3582 1.368 . S
C3577 C3561 1.349 . S
C3577 H3569 0.950 . S
C3577 C3575 1.327 . S
C3578 C3566 1.349 . S
C3578 H3572 0.950 . S
C3578 C3579 1.327 . S
C3579 H3573 0.950 . S
C3579 C3578 1.327 . S
C3579 C3583 1.429 . S
C3580 C3563 1.574 . S
C3580 H3574 0.949 . S
C3580 C3584 1.368 . S
C3581 C3562 1.429 . S
C3581 C3575 1.429 . S
C3581 C3582 1.523 . S
C3582 C3563 1.368 . S
C3582 C3576 1.368 . S
C3582 C3581 1.523 . S
C3583 C3567 1.429 . S
C3583 C3579 1.429 . S
C3583 C3584 1.523 . S
C3584 C3568 1.368 . S
C3584 C3580 1.368 . S
C3584 C3583 1.523 . S
H3585 C3560 0.950 . S
H3586 C3562 0.950 . S
H3587 C3563 0.949 . S
H3588 C3565 0.950 . S
H3589 C3567 0.950 . S
C3590 C3591 1.349 . S
C3590 C3592 1.327 1_556 S
C3590 H3615 0.950 1_556 S
C3591 C3590 1.349 . S
C3591 C3607 1.349 . S
C3592 C3590 1.327 1_554 S
C3592 C3611 1.429 1_554 S
C3592 H3616 0.950 . S
C3593 C3610 1.574 . S
C3593 C3612 1.368 . S
C3593 H3617 0.949 . S
H3594 C3598 0.949 . S
C3595 C3596 1.349 . S
C3595 C3597 1.327 1_554 S
C3595 H3618 0.950 1_554 S
C3596 C3595 1.349 . S
C3596 C3608 1.349 . S
C3597 C3595 1.327 1_556 S
C3597 C3613 1.429 1_556 S
C3597 H3619 0.950 . S
C3598 H3594 0.949 . S
C3598 C3606 1.574 . S
C3598 C3614 1.368 . S
H3599 C3607 0.950 . S
H3600 C3605 0.950 . S
H3601 C3606 0.949 . S
H3602 C3608 0.950 . S
H3603 C3609 0.950 . S
H3604 C3610 0.949 . S
C3605 H3600 0.950 . S
C3605 C3607 1.327 . S
C3605 C3611 1.429 . S
C3606 C3598 1.574 . S
C3606 H3601 0.949 . S
C3606 C3612 1.368 1_554 S
C3607 C3591 1.349 . S
C3607 H3599 0.950 . S
C3607 C3605 1.327 . S
C3608 C3596 1.349 . S
C3608 H3602 0.950 . S
C3608 C3609 1.327 . S
C3609 H3603 0.950 . S
C3609 C3608 1.327 . S
C3609 C3613 1.429 . S
C3610 C3593 1.574 . S
C3610 H3604 0.949 . S
C3610 C3614 1.368 1_556 S
C3611 C3592 1.429 1_556 S
C3611 C3605 1.429 . S
C3611 C3612 1.523 . S
C3612 C3593 1.368 . S
C3612 C3606 1.368 1_556 S
C3612 C3611 1.523 . S
C3613 C3597 1.429 1_554 S
C3613 C3609 1.429 . S
C3613 C3614 1.523 . S
C3614 C3598 1.368 . S
C3614 C3610 1.368 1_554 S
C3614 C3613 1.523 . S
H3615 C3590 0.950 1_554 S
H3616 C3592 0.950 . S
H3617 C3593 0.949 . S
H3618 C3595 0.950 1_556 S
H3619 C3597 0.950 . S
C3620 C3621 1.349 . S
C3620 C3622 1.327 . S
C3620 H3645 0.950 . S
C3621 C3620 1.349 . S
C3621 C3637 1.349 . S
C3622 C3620 1.327 . S
C3622 C3641 1.429 . S
C3622 H3646 0.950 . S
C3623 C3640 1.574 . S
C3623 C3642 1.368 . S
C3623 H3647 0.949 . S
H3624 C3628 0.949 . S
C3625 C3626 1.349 . S
C3625 C3627 1.327 . S
C3625 H3648 0.950 . S
C3626 C3625 1.349 . S
C3626 C3638 1.349 . S
C3627 C3625 1.327 . S
C3627 C3643 1.429 . S
C3627 H3649 0.950 . S
C3628 H3624 0.949 . S
C3628 C3636 1.574 . S
C3628 C3644 1.368 . S
H3629 C3637 0.950 . S
H3630 C3635 0.950 . S
H3631 C3636 0.949 . S
H3632 C3638 0.950 . S
H3633 C3639 0.950 . S
H3634 C3640 0.949 . S
C3635 H3630 0.950 . S
C3635 C3637 1.327 . S
C3635 C3641 1.429 . S
C3636 C3628 1.574 . S
C3636 H3631 0.949 . S
C3636 C3642 1.368 . S
C3637 C3621 1.349 . S
C3637 H3629 0.950 . S
C3637 C3635 1.327 . S
C3638 C3626 1.349 . S
C3638 H3632 0.950 . S
C3638 C3639 1.327 . S
C3639 H3633 0.950 . S
C3639 C3638 1.327 . S
C3639 C3643 1.429 . S
C3640 C3623 1.574 . S
C3640 H3634 0.949 . S
C3640 C3644 1.368 . S
C3641 C3622 1.429 . S
C3641 C3635 1.429 . S
C3641 C3642 1.523 . S
C3642 C3623 1.368 . S
C3642 C3636 1.368 . S
C3642 C3641 1.523 . S
C3643 C3627 1.429 . S
C3643 C3639 1.429 . S
C3643 C3644 1.523 . S
C3644 C3628 1.368 . S
C3644 C3640 1.368 . S
C3644 C3643 1.523 . S
H3645 C3620 0.950 . S
H3646 C3622 0.950 . S
H3647 C3623 0.949 . S
H3648 C3625 0.950 . S
H3649 C3627 0.950 . S
C3650 C3651 1.349 . S
C3650 C3652 1.327 . S
C3650 H3675 0.950 . S
C3651 C3650 1.349 . S
C3651 C3667 1.349 . S
C3652 C3650 1.327 . S
C3652 C3671 1.429 . S
C3652 H3676 0.950 . S
C3653 C3670 1.574 . S
C3653 C3672 1.368 . S
C3653 H3677 0.949 . S
H3654 C3658 0.949 . S
C3655 C3656 1.349 . S
C3655 C3657 1.327 . S
C3655 H3678 0.950 . S
C3656 C3655 1.349 . S
C3656 C3668 1.349 . S
C3657 C3655 1.327 . S
C3657 C3673 1.429 . S
C3657 H3679 0.950 . S
C3658 H3654 0.949 . S
C3658 C3666 1.574 . S
C3658 C3674 1.368 . S
H3659 C3667 0.950 . S
H3660 C3665 0.950 . S
H3661 C3666 0.949 . S
H3662 C3668 0.950 . S
H3663 C3669 0.950 . S
H3664 C3670 0.949 . S
C3665 H3660 0.950 . S
C3665 C3667 1.327 . S
C3665 C3671 1.429 . S
C3666 C3658 1.574 . S
C3666 H3661 0.949 . S
C3666 C3672 1.368 . S
C3667 C3651 1.349 . S
C3667 H3659 0.950 . S
C3667 C3665 1.327 . S
C3668 C3656 1.349 . S
C3668 H3662 0.950 . S
C3668 C3669 1.327 . S
C3669 H3663 0.950 . S
C3669 C3668 1.327 . S
C3669 C3673 1.429 . S
C3670 C3653 1.574 . S
C3670 H3664 0.949 . S
C3670 C3674 1.368 . S
C3671 C3652 1.429 . S
C3671 C3665 1.429 . S
C3671 C3672 1.523 . S
C3672 C3653 1.368 . S
C3672 C3666 1.368 . S
C3672 C3671 1.523 . S
C3673 C3657 1.429 . S
C3673 C3669 1.429 . S
C3673 C3674 1.523 . S
C3674 C3658 1.368 . S
C3674 C3670 1.368 . S
C3674 C3673 1.523 . S
H3675 C3650 0.950 . S
H3676 C3652 0.950 . S
H3677 C3653 0.949 . S
H3678 C3655 0.950 . S
H3679 C3657 0.950 . S
C3680 C3681 1.349 . S
C3680 C3682 1.327 . S
C3680 H3705 0.950 . S
C3681 C3680 1.349 . S
C3681 C3697 1.349 . S
C3682 C3680 1.327 . S
C3682 C3701 1.429 . S
C3682 H3706 0.950 . S
C3683 C3700 1.574 . S
C3683 C3702 1.368 . S
C3683 H3707 0.949 . S
H3684 C3688 0.949 . S
C3685 C3686 1.349 . S
C3685 C3687 1.327 . S
C3685 H3708 0.950 . S
C3686 C3685 1.349 . S
C3686 C3698 1.349 . S
C3687 C3685 1.327 . S
C3687 C3703 1.429 . S
C3687 H3709 0.950 . S
C3688 H3684 0.949 . S
C3688 C3696 1.574 . S
C3688 C3704 1.368 . S
H3689 C3697 0.950 . S
H3690 C3695 0.950 . S
H3691 C3696 0.949 . S
H3692 C3698 0.950 . S
H3693 C3699 0.950 . S
H3694 C3700 0.949 . S
C3695 H3690 0.950 . S
C3695 C3697 1.327 . S
C3695 C3701 1.429 . S
C3696 C3688 1.574 . S
C3696 H3691 0.949 . S
C3696 C3702 1.368 . S
C3697 C3681 1.349 . S
C3697 H3689 0.950 . S
C3697 C3695 1.327 . S
C3698 C3686 1.349 . S
C3698 H3692 0.950 . S
C3698 C3699 1.327 . S
C3699 H3693 0.950 . S
C3699 C3698 1.327 . S
C3699 C3703 1.429 . S
C3700 C3683 1.574 . S
C3700 H3694 0.949 . S
C3700 C3704 1.368 . S
C3701 C3682 1.429 . S
C3701 C3695 1.429 . S
C3701 C3702 1.523 . S
C3702 C3683 1.368 . S
C3702 C3696 1.368 . S
C3702 C3701 1.523 . S
C3703 C3687 1.429 . S
C3703 C3699 1.429 . S
C3703 C3704 1.523 . S
C3704 C3688 1.368 . S
C3704 C3700 1.368 . S
C3704 C3703 1.523 . S
H3705 C3680 0.950 . S
H3706 C3682 0.950 . S
H3707 C3683 0.949 . S
H3708 C3685 0.950 . S
H3709 C3687 0.950 . S
C3710 C3711 1.349 . S
C3710 C3712 1.327 . S
C3710 H3735 0.950 . S
C3711 C3710 1.349 . S
C3711 C3727 1.349 . S
C3712 C3710 1.327 . S
C3712 C3731 1.429 . S
C3712 H3736 0.950 . S
C3713 C3730 1.574 . S
C3713 C3732 1.368 . S
C3713 H3737 0.949 . S
H3714 C3718 0.949 . S
C3715 C3716 1.349 . S
C3715 C3717 1.327 . S
C3715 H3738 0.950 . S
C3716 C3715 1.349 . S
C3716 C3728 1.349 . S
C3717 C3715 1.327 . S
C3717 C3733 1.429 . S
C3717 H3739 0.950 . S
C3718 H3714 0.949 . S
C3718 C3726 1.574 . S
C3718 C3734 1.368 . S
H3719 C3727 0.950 . S
H3720 C3725 0.950 . S
H3721 C3726 0.949 . S
H3722 C3728 0.950 . S
H3723 C3729 0.950 . S
H3724 C3730 0.949 . S
C3725 H3720 0.950 . S
C3725 C3727 1.327 . S
C3725 C3731 1.429 . S
C3726 C3718 1.574 . S
C3726 H3721 0.949 . S
C3726 C3732 1.368 . S
C3727 C3711 1.349 . S
C3727 H3719 0.950 . S
C3727 C3725 1.327 . S
C3728 C3716 1.349 . S
C3728 H3722 0.950 . S
C3728 C3729 1.327 . S
C3729 H3723 0.950 . S
C3729 C3728 1.327 . S
C3729 C3733 1.429 . S
C3730 C3713 1.574 . S
C3730 H3724 0.949 . S
C3730 C3734 1.368 . S
C3731 C3712 1.429 . S
C3731 C3725 1.429 . S
C3731 C3732 1.523 . S
C3732 C3713 1.368 . S
C3732 C3726 1.368 . S
C3732 C3731 1.523 . S
C3733 C3717 1.429 . S
C3733 C3729 1.429 . S
C3733 C3734 1.523 . S
C3734 C3718 1.368 . S
C3734 C3730 1.368 . S
C3734 C3733 1.523 . S
H3735 C3710 0.950 . S
H3736 C3712 0.950 . S
H3737 C3713 0.949 . S
H3738 C3715 0.950 . S
H3739 C3717 0.950 . S
C3740 C3741 1.349 . S
C3740 C3742 1.327 . S
C3740 H3765 0.950 . S
C3741 C3740 1.349 . S
C3741 C3757 1.349 . S
C3742 C3740 1.327 . S
C3742 C3761 1.429 . S
C3742 H3766 0.950 . S
C3743 C3760 1.574 . S
C3743 C3762 1.368 . S
C3743 H3767 0.949 . S
H3744 C3748 0.949 . S
C3745 C3746 1.349 . S
C3745 C3747 1.327 . S
C3745 H3768 0.950 . S
C3746 C3745 1.349 . S
C3746 C3758 1.349 . S
C3747 C3745 1.327 . S
C3747 C3763 1.429 . S
C3747 H3769 0.950 . S
C3748 H3744 0.949 . S
C3748 C3756 1.574 . S
C3748 C3764 1.368 . S
H3749 C3757 0.950 . S
H3750 C3755 0.950 . S
H3751 C3756 0.949 . S
H3752 C3758 0.950 . S
H3753 C3759 0.950 . S
H3754 C3760 0.949 . S
C3755 H3750 0.950 . S
C3755 C3757 1.327 . S
C3755 C3761 1.429 . S
C3756 C3748 1.574 . S
C3756 H3751 0.949 . S
C3756 C3762 1.368 . S
C3757 C3741 1.349 . S
C3757 H3749 0.950 . S
C3757 C3755 1.327 . S
C3758 C3746 1.349 . S
C3758 H3752 0.950 . S
C3758 C3759 1.327 . S
C3759 H3753 0.950 . S
C3759 C3758 1.327 . S
C3759 C3763 1.429 . S
C3760 C3743 1.574 . S
C3760 H3754 0.949 . S
C3760 C3764 1.368 . S
C3761 C3742 1.429 . S
C3761 C3755 1.429 . S
C3761 C3762 1.523 . S
C3762 C3743 1.368 . S
C3762 C3756 1.368 . S
C3762 C3761 1.523 . S
C3763 C3747 1.429 . S
C3763 C3759 1.429 . S
C3763 C3764 1.523 . S
C3764 C3748 1.368 . S
C3764 C3760 1.368 . S
C3764 C3763 1.523 . S
H3765 C3740 0.950 . S
H3766 C3742 0.950 . S
H3767 C3743 0.949 . S
H3768 C3745 0.950 . S
H3769 C3747 0.950 . S
C3770 C3771 1.349 . S
C3770 C3772 1.327 . S
C3770 H3795 0.950 . S
C3771 C3770 1.349 . S
C3771 C3787 1.349 . S
C3772 C3770 1.327 . S
C3772 C3791 1.429 . S
C3772 H3796 0.950 . S
C3773 C3790 1.574 . S
C3773 C3792 1.368 . S
C3773 H3797 0.949 . S
H3774 C3778 0.949 . S
C3775 C3776 1.349 . S
C3775 C3777 1.327 . S
C3775 H3798 0.950 . S
C3776 C3775 1.349 . S
C3776 C3788 1.349 . S
C3777 C3775 1.327 . S
C3777 C3793 1.429 . S
C3777 H3799 0.950 . S
C3778 H3774 0.949 . S
C3778 C3786 1.574 . S
C3778 C3794 1.368 . S
H3779 C3787 0.950 . S
H3780 C3785 0.950 . S
H3781 C3786 0.949 . S
H3782 C3788 0.950 . S
H3783 C3789 0.950 . S
H3784 C3790 0.949 . S
C3785 H3780 0.950 . S
C3785 C3787 1.327 . S
C3785 C3791 1.429 . S
C3786 C3778 1.574 . S
C3786 H3781 0.949 . S
C3786 C3792 1.368 . S
C3787 C3771 1.349 . S
C3787 H3779 0.950 . S
C3787 C3785 1.327 . S
C3788 C3776 1.349 . S
C3788 H3782 0.950 . S
C3788 C3789 1.327 . S
C3789 H3783 0.950 . S
C3789 C3788 1.327 . S
C3789 C3793 1.429 . S
C3790 C3773 1.574 . S
C3790 H3784 0.949 . S
C3790 C3794 1.368 . S
C3791 C3772 1.429 . S
C3791 C3785 1.429 . S
C3791 C3792 1.523 . S
C3792 C3773 1.368 . S
C3792 C3786 1.368 . S
C3792 C3791 1.523 . S
C3793 C3777 1.429 . S
C3793 C3789 1.429 . S
C3793 C3794 1.523 . S
C3794 C3778 1.368 . S
C3794 C3790 1.368 . S
C3794 C3793 1.523 . S
H3795 C3770 0.950 . S
H3796 C3772 0.950 . S
H3797 C3773 0.949 . S
H3798 C3775 0.950 . S
H3799 C3777 0.950 . S
C3800 C3801 1.349 . S
C3800 C3802 1.327 . S
C3800 H3825 0.950 . S
C3801 C3800 1.349 . S
C3801 C3817 1.349 . S
C3802 C3800 1.327 . S
C3802 C3821 1.429 . S
C3802 H3826 0.950 . S
C3803 C3820 1.574 . S
C3803 C3822 1.368 . S
C3803 H3827 0.949 . S
H3804 C3808 0.949 . S
C3805 C3806 1.349 . S
C3805 C3807 1.327 . S
C3805 H3828 0.950 . S
C3806 C3805 1.349 . S
C3806 C3818 1.349 . S
C3807 C3805 1.327 . S
C3807 C3823 1.429 . S
C3807 H3829 0.950 . S
C3808 H3804 0.949 . S
C3808 C3816 1.574 . S
C3808 C3824 1.368 . S
H3809 C3817 0.950 . S
H3810 C3815 0.950 . S
H3811 C3816 0.949 . S
H3812 C3818 0.950 . S
H3813 C3819 0.950 . S
H3814 C3820 0.949 . S
C3815 H3810 0.950 . S
C3815 C3817 1.327 . S
C3815 C3821 1.429 . S
C3816 C3808 1.574 . S
C3816 H3811 0.949 . S
C3816 C3822 1.368 . S
C3817 C3801 1.349 . S
C3817 H3809 0.950 . S
C3817 C3815 1.327 . S
C3818 C3806 1.349 . S
C3818 H3812 0.950 . S
C3818 C3819 1.327 . S
C3819 H3813 0.950 . S
C3819 C3818 1.327 . S
C3819 C3823 1.429 . S
C3820 C3803 1.574 . S
C3820 H3814 0.949 . S
C3820 C3824 1.368 . S
C3821 C3802 1.429 . S
C3821 C3815 1.429 . S
C3821 C3822 1.523 . S
C3822 C3803 1.368 . S
C3822 C3816 1.368 . S
C3822 C3821 1.523 . S
C3823 C3807 1.429 . S
C3823 C3819 1.429 . S
C3823 C3824 1.523 . S
C3824 C3808 1.368 . S
C3824 C3820 1.368 . S
C3824 C3823 1.523 . S
H3825 C3800 0.950 . S
H3826 C3802 0.950 . S
H3827 C3803 0.949 . S
H3828 C3805 0.950 . S
H3829 C3807 0.950 . S
C3830 C3831 1.349 . S
C3830 C3832 1.327 . S
C3830 H3855 0.950 . S
C3831 C3830 1.349 . S
C3831 C3847 1.349 . S
C3832 C3830 1.327 . S
C3832 C3851 1.429 . S
C3832 H3856 0.950 . S
C3833 C3850 1.574 . S
C3833 C3852 1.368 . S
C3833 H3857 0.949 . S
H3834 C3838 0.949 . S
C3835 C3836 1.349 . S
C3835 C3837 1.327 . S
C3835 H3858 0.950 . S
C3836 C3835 1.349 . S
C3836 C3848 1.349 . S
C3837 C3835 1.327 . S
C3837 C3853 1.429 . S
C3837 H3859 0.950 . S
C3838 H3834 0.949 . S
C3838 C3846 1.574 . S
C3838 C3854 1.368 . S
H3839 C3847 0.950 . S
H3840 C3845 0.950 . S
H3841 C3846 0.949 . S
H3842 C3848 0.950 . S
H3843 C3849 0.950 . S
H3844 C3850 0.949 . S
C3845 H3840 0.950 . S
C3845 C3847 1.327 . S
C3845 C3851 1.429 . S
C3846 C3838 1.574 . S
C3846 H3841 0.949 . S
C3846 C3852 1.368 . S
C3847 C3831 1.349 . S
C3847 H3839 0.950 . S
C3847 C3845 1.327 . S
C3848 C3836 1.349 . S
C3848 H3842 0.950 . S
C3848 C3849 1.327 . S
C3849 H3843 0.950 . S
C3849 C3848 1.327 . S
C3849 C3853 1.429 . S
C3850 C3833 1.574 . S
C3850 H3844 0.949 . S
C3850 C3854 1.368 . S
C3851 C3832 1.429 . S
C3851 C3845 1.429 . S
C3851 C3852 1.523 . S
C3852 C3833 1.368 . S
C3852 C3846 1.368 . S
C3852 C3851 1.523 . S
C3853 C3837 1.429 . S
C3853 C3849 1.429 . S
C3853 C3854 1.523 . S
C3854 C3838 1.368 . S
C3854 C3850 1.368 . S
C3854 C3853 1.523 . S
H3855 C3830 0.950 . S
H3856 C3832 0.950 . S
H3857 C3833 0.949 . S
H3858 C3835 0.950 . S
H3859 C3837 0.950 . S
C3860 C3861 1.349 . S
C3860 C3862 1.327 . S
C3860 H3885 0.950 . S
C3861 C3860 1.349 . S
C3861 C3877 1.349 . S
C3862 C3860 1.327 . S
C3862 C3881 1.429 . S
C3862 H3886 0.950 . S
C3863 C3880 1.574 . S
C3863 C3882 1.368 . S
C3863 H3887 0.949 . S
H3864 C3868 0.949 . S
C3865 C3866 1.349 . S
C3865 C3867 1.327 . S
C3865 H3888 0.950 . S
C3866 C3865 1.349 . S
C3866 C3878 1.349 . S
C3867 C3865 1.327 . S
C3867 C3883 1.429 . S
C3867 H3889 0.950 . S
C3868 H3864 0.949 . S
C3868 C3876 1.574 . S
C3868 C3884 1.368 . S
H3869 C3877 0.950 . S
H3870 C3875 0.950 . S
H3871 C3876 0.949 . S
H3872 C3878 0.950 . S
H3873 C3879 0.950 . S
H3874 C3880 0.949 . S
C3875 H3870 0.950 . S
C3875 C3877 1.327 . S
C3875 C3881 1.429 . S
C3876 C3868 1.574 . S
C3876 H3871 0.949 . S
C3876 C3882 1.368 . S
C3877 C3861 1.349 . S
C3877 H3869 0.950 . S
C3877 C3875 1.327 . S
C3878 C3866 1.349 . S
C3878 H3872 0.950 . S
C3878 C3879 1.327 . S
C3879 H3873 0.950 . S
C3879 C3878 1.327 . S
C3879 C3883 1.429 . S
C3880 C3863 1.574 . S
C3880 H3874 0.949 . S
C3880 C3884 1.368 . S
C3881 C3862 1.429 . S
C3881 C3875 1.429 . S
C3881 C3882 1.523 . S
C3882 C3863 1.368 . S
C3882 C3876 1.368 . S
C3882 C3881 1.523 . S
C3883 C3867 1.429 . S
C3883 C3879 1.429 . S
C3883 C3884 1.523 . S
C3884 C3868 1.368 . S
C3884 C3880 1.368 . S
C3884 C3883 1.523 . S
H3885 C3860 0.950 . S
H3886 C3862 0.950 . S
H3887 C3863 0.949 . S
H3888 C3865 0.950 . S
H3889 C3867 0.950 . S
C3890 C3891 1.349 . S
C3890 C3892 1.327 . S
C3890 H3915 0.950 . S
C3891 C3890 1.349 . S
C3891 C3907 1.349 . S
C3892 C3890 1.327 . S
C3892 C3911 1.429 . S
C3892 H3916 0.950 . S
C3893 C3910 1.574 . S
C3893 C3912 1.368 . S
C3893 H3917 0.949 . S
H3894 C3898 0.949 . S
C3895 C3896 1.349 . S
C3895 C3897 1.327 . S
C3895 H3918 0.950 . S
C3896 C3895 1.349 . S
C3896 C3908 1.349 . S
C3897 C3895 1.327 . S
C3897 C3913 1.429 . S
C3897 H3919 0.950 . S
C3898 H3894 0.949 . S
C3898 C3906 1.574 . S
C3898 C3914 1.368 . S
H3899 C3907 0.950 . S
H3900 C3905 0.950 . S
H3901 C3906 0.949 . S
H3902 C3908 0.950 . S
H3903 C3909 0.950 . S
H3904 C3910 0.949 . S
C3905 H3900 0.950 . S
C3905 C3907 1.327 . S
C3905 C3911 1.429 . S
C3906 C3898 1.574 . S
C3906 H3901 0.949 . S
C3906 C3912 1.368 . S
C3907 C3891 1.349 . S
C3907 H3899 0.950 . S
C3907 C3905 1.327 . S
C3908 C3896 1.349 . S
C3908 H3902 0.950 . S
C3908 C3909 1.327 . S
C3909 H3903 0.950 . S
C3909 C3908 1.327 . S
C3909 C3913 1.429 . S
C3910 C3893 1.574 . S
C3910 H3904 0.949 . S
C3910 C3914 1.368 . S
C3911 C3892 1.429 . S
C3911 C3905 1.429 . S
C3911 C3912 1.523 . S
C3912 C3893 1.368 . S
C3912 C3906 1.368 . S
C3912 C3911 1.523 . S
C3913 C3897 1.429 . S
C3913 C3909 1.429 . S
C3913 C3914 1.523 . S
C3914 C3898 1.368 . S
C3914 C3910 1.368 . S
C3914 C3913 1.523 . S
H3915 C3890 0.950 . S
H3916 C3892 0.950 . S
H3917 C3893 0.949 . S
H3918 C3895 0.950 . S
H3919 C3897 0.950 . S
C3920 C3921 1.349 . S
C3920 C3922 1.327 . S
C3920 H3945 0.950 . S
C3921 C3920 1.349 . S
C3921 C3937 1.349 . S
C3922 C3920 1.327 . S
C3922 C3941 1.429 . S
C3922 H3946 0.950 . S
C3923 C3940 1.574 . S
C3923 C3942 1.368 . S
C3923 H3947 0.949 . S
H3924 C3928 0.949 . S
C3925 C3926 1.349 . S
C3925 C3927 1.327 . S
C3925 H3948 0.950 . S
C3926 C3925 1.349 . S
C3926 C3938 1.349 . S
C3927 C3925 1.327 . S
C3927 C3943 1.429 . S
C3927 H3949 0.950 . S
C3928 H3924 0.949 . S
C3928 C3936 1.574 . S
C3928 C3944 1.368 . S
H3929 C3937 0.950 . S
H3930 C3935 0.950 . S
H3931 C3936 0.949 . S
H3932 C3938 0.950 . S
H3933 C3939 0.950 . S
H3934 C3940 0.949 . S
C3935 H3930 0.950 . S
C3935 C3937 1.327 . S
C3935 C3941 1.429 . S
C3936 C3928 1.574 . S
C3936 H3931 0.949 . S
C3936 C3942 1.368 . S
C3937 C3921 1.349 . S
C3937 H3929 0.950 . S
C3937 C3935 1.327 . S
C3938 C3926 1.349 . S
C3938 H3932 0.950 . S
C3938 C3939 1.327 . S
C3939 H3933 0.950 . S
C3939 C3938 1.327 . S
C3939 C3943 1.429 . S
C3940 C3923 1.574 . S
C3940 H3934 0.949 . S
C3940 C3944 1.368 . S
C3941 C3922 1.429 . S
C3941 C3935 1.429 . S
C3941 C3942 1.523 . S
C3942 C3923 1.368 . S
C3942 C3936 1.368 . S
C3942 C3941 1.523 . S
C3943 C3927 1.429 . S
C3943 C3939 1.429 . S
C3943 C3944 1.523 . S
C3944 C3928 1.368 . S
C3944 C3940 1.368 . S
C3944 C3943 1.523 . S
H3945 C3920 0.950 . S
H3946 C3922 0.950 . S
H3947 C3923 0.949 . S
H3948 C3925 0.950 . S
H3949 C3927 0.950 . S
C3950 C3951 1.349 . S
C3950 C3952 1.327 . S
C3950 H3975 0.950 . S
C3951 C3950 1.349 . S
C3951 C3967 1.349 . S
C3952 C3950 1.327 . S
C3952 C3971 1.429 . S
C3952 H3976 0.950 . S
C3953 C3970 1.574 . S
C3953 C3972 1.368 . S
C3953 H3977 0.949 . S
H3954 C3958 0.949 . S
C3955 C3956 1.349 . S
C3955 C3957 1.327 . S
C3955 H3978 0.950 . S
C3956 C3955 1.349 . S
C3956 C3968 1.349 . S
C3957 C3955 1.327 . S
C3957 C3973 1.429 . S
C3957 H3979 0.950 . S
C3958 H3954 0.949 . S
C3958 C3966 1.574 . S
C3958 C3974 1.368 . S
H3959 C3967 0.950 . S
H3960 C3965 0.950 . S
H3961 C3966 0.949 . S
H3962 C3968 0.950 . S
H3963 C3969 0.950 . S
H3964 C3970 0.949 . S
C3965 H3960 0.950 . S
C3965 C3967 1.327 . S
C3965 C3971 1.429 . S
C3966 C3958 1.574 . S
C3966 H3961 0.949 . S
C3966 C3972 1.368 . S
C3967 C3951 1.349 . S
C3967 H3959 0.950 . S
C3967 C3965 1.327 . S
C3968 C3956 1.349 . S
C3968 H3962 0.950 . S
C3968 C3969 1.327 . S
C3969 H3963 0.950 . S
C3969 C3968 1.327 . S
C3969 C3973 1.429 . S
C3970 C3953 1.574 . S
C3970 H3964 0.949 . S
C3970 C3974 1.368 . S
C3971 C3952 1.429 . S
C3971 C3965 1.429 . S
C3971 C3972 1.523 . S
C3972 C3953 1.368 . S
C3972 C3966 1.368 . S
C3972 C3971 1.523 . S
C3973 C3957 1.429 . S
C3973 C3969 1.429 . S
C3973 C3974 1.523 . S
C3974 C3958 1.368 . S
C3974 C3970 1.368 . S
C3974 C3973 1.523 . S
H3975 C3950 0.950 . S
H3976 C3952 0.950 . S
H3977 C3953 0.949 . S
H3978 C3955 0.950 . S
H3979 C3957 0.950 . S
C3980 C3981 1.349 . S
C3980 C3982 1.327 . S
C3980 H4005 0.950 . S
C3981 C3980 1.349 . S
C3981 C3997 1.349 . S
C3982 C3980 1.327 . S
C3982 C4001 1.429 . S
C3982 H4006 0.950 . S
C3983 C4000 1.574 . S
C3983 C4002 1.368 . S
C3983 H4007 0.949 . S
H3984 C3988 0.949 . S
C3985 C3986 1.349 . S
C3985 C3987 1.327 . S
C3985 H4008 0.950 . S
C3986 C3985 1.349 . S
C3986 C3998 1.349 . S
C3987 C3985 1.327 . S
C3987 C4003 1.429 . S
C3987 H4009 0.950 . S
C3988 H3984 0.949 . S
C3988 C3996 1.574 . S
C3988 C4004 1.368 . S
H3989 C3997 0.950 . S
H3990 C3995 0.950 . S
H3991 C3996 0.949 . S
H3992 C3998 0.950 . S
H3993 C3999 0.950 . S
H3994 C4000 0.949 . S
C3995 H3990 0.950 . S
C3995 C3997 1.327 . S
C3995 C4001 1.429 . S
C3996 C3988 1.574 . S
C3996 H3991 0.949 . S
C3996 C4002 1.368 . S
C3997 C3981 1.349 . S
C3997 H3989 0.950 . S
C3997 C3995 1.327 . S
C3998 C3986 1.349 . S
C3998 H3992 0.950 . S
C3998 C3999 1.327 . S
C3999 H3993 0.950 . S
C3999 C3998 1.327 . S
C3999 C4003 1.429 . S
C4000 C3983 1.574 . S
C4000 H3994 0.949 . S
C4000 C4004 1.368 . S
C4001 C3982 1.429 . S
C4001 C3995 1.429 . S
C4001 C4002 1.523 . S
C4002 C3983 1.368 . S
C4002 C3996 1.368 . S
C4002 C4001 1.523 . S
C4003 C3987 1.429 . S
C4003 C3999 1.429 . S
C4003 C4004 1.523 . S
C4004 C3988 1.368 . S
C4004 C4000 1.368 . S
C4004 C4003 1.523 . S
H4005 C3980 0.950 . S
H4006 C3982 0.950 . S
H4007 C3983 0.949 . S
H4008 C3985 0.950 . S
H4009 C3987 0.950 . S
C4010 C4011 1.349 . S
C4010 C4012 1.327 . S
C4010 H4035 0.950 . S
C4011 C4010 1.349 . S
C4011 C4027 1.349 . S
C4012 C4010 1.327 . S
C4012 C4031 1.429 . S
C4012 H4036 0.950 . S
C4013 C4030 1.574 . S
C4013 C4032 1.368 . S
C4013 H4037 0.949 . S
H4014 C4018 0.949 . S
C4015 C4016 1.349 . S
C4015 C4017 1.327 . S
C4015 H4038 0.950 . S
C4016 C4015 1.349 . S
C4016 C4028 1.349 . S
C4017 C4015 1.327 . S
C4017 C4033 1.429 . S
C4017 H4039 0.950 . S
C4018 H4014 0.949 . S
C4018 C4026 1.574 . S
C4018 C4034 1.368 . S
H4019 C4027 0.950 . S
H4020 C4025 0.950 . S
H4021 C4026 0.949 . S
H4022 C4028 0.950 . S
H4023 C4029 0.950 . S
H4024 C4030 0.949 . S
C4025 H4020 0.950 . S
C4025 C4027 1.327 . S
C4025 C4031 1.429 . S
C4026 C4018 1.574 . S
C4026 H4021 0.949 . S
C4026 C4032 1.368 . S
C4027 C4011 1.349 . S
C4027 H4019 0.950 . S
C4027 C4025 1.327 . S
C4028 C4016 1.349 . S
C4028 H4022 0.950 . S
C4028 C4029 1.327 . S
C4029 H4023 0.950 . S
C4029 C4028 1.327 . S
C4029 C4033 1.429 . S
C4030 C4013 1.574 . S
C4030 H4024 0.949 . S
C4030 C4034 1.368 . S
C4031 C4012 1.429 . S
C4031 C4025 1.429 . S
C4031 C4032 1.523 . S
C4032 C4013 1.368 . S
C4032 C4026 1.368 . S
C4032 C4031 1.523 . S
C4033 C4017 1.429 . S
C4033 C4029 1.429 . S
C4033 C4034 1.523 . S
C4034 C4018 1.368 . S
C4034 C4030 1.368 . S
C4034 C4033 1.523 . S
H4035 C4010 0.950 . S
H4036 C4012 0.950 . S
H4037 C4013 0.949 . S
H4038 C4015 0.950 . S
H4039 C4017 0.950 . S
C4040 C4041 1.349 . S
C4040 C4042 1.327 . S
C4040 H4065 0.950 . S
C4041 C4040 1.349 . S
C4041 C4057 1.349 . S
C4042 C4040 1.327 . S
C4042 C4061 1.429 . S
C4042 H4066 0.950 . S
C4043 C4060 1.574 . S
C4043 C4062 1.368 . S
C4043 H4067 0.949 . S
H4044 C4048 0.949 . S
C4045 C4046 1.349 . S
C4045 C4047 1.327 . S
C4045 H4068 0.950 . S
C4046 C4045 1.349 . S
C4046 C4058 1.349 . S
C4047 C4045 1.327 . S
C4047 C4063 1.429 . S
C4047 H4069 0.950 . S
C4048 H4044 0.949 . S
C4048 C4056 1.574 . S
C4048 C4064 1.368 . S
H4049 C4057 0.950 . S
H4050 C4055 0.950 . S
H4051 C4056 0.949 . S
H4052 C4058 0.950 . S
H4053 C4059 0.950 . S
H4054 C4060 0.949 . S
C4055 H4050 0.950 . S
C4055 C4057 1.327 . S
C4055 C4061 1.429 . S
C4056 C4048 1.574 . S
C4056 H4051 0.949 . S
C4056 C4062 1.368 . S
C4057 C4041 1.349 . S
C4057 H4049 0.950 . S
C4057 C4055 1.327 . S
C4058 C4046 1.349 . S
C4058 H4052 0.950 . S
C4058 C4059 1.327 . S
C4059 H4053 0.950 . S
C4059 C4058 1.327 . S
C4059 C4063 1.429 . S
C4060 C4043 1.574 . S
C4060 H4054 0.949 . S
C4060 C4064 1.368 . S
C4061 C4042 1.429 . S
C4061 C4055 1.429 . S
C4061 C4062 1.523 . S
C4062 C4043 1.368 . S
C4062 C4056 1.368 . S
C4062 C4061 1.523 . S
C4063 C4047 1.429 . S
C4063 C4059 1.429 . S
C4063 C4064 1.523 . S
C4064 C4048 1.368 . S
C4064 C4060 1.368 . S
C4064 C4063 1.523 . S
H4065 C4040 0.950 . S
H4066 C4042 0.950 . S
H4067 C4043 0.949 . S
H4068 C4045 0.950 . S
H4069 C4047 0.950 . S
C4070 C4071 1.349 . S
C4070 C4072 1.327 . S
C4070 H4095 0.950 . S
C4071 C4070 1.349 . S
C4071 C4087 1.349 . S
C4072 C4070 1.327 . S
C4072 C4091 1.429 . S
C4072 H4096 0.950 . S
C4073 C4090 1.574 . S
C4073 C4092 1.368 . S
C4073 H4097 0.949 . S
H4074 C4078 0.949 . S
C4075 C4076 1.349 . S
C4075 C4077 1.327 . S
C4075 H4098 0.950 . S
C4076 C4075 1.349 . S
C4076 C4088 1.349 . S
C4077 C4075 1.327 . S
C4077 C4093 1.429 . S
C4077 H4099 0.950 . S
C4078 H4074 0.949 . S
C4078 C4086 1.574 . S
C4078 C4094 1.368 . S
H4079 C4087 0.950 . S
H4080 C4085 0.950 . S
H4081 C4086 0.949 . S
H4082 C4088 0.950 . S
H4083 C4089 0.950 . S
H4084 C4090 0.949 . S
C4085 H4080 0.950 . S
C4085 C4087 1.327 . S
C4085 C4091 1.429 . S
C4086 C4078 1.574 . S
C4086 H4081 0.949 . S
C4086 C4092 1.368 . S
C4087 C4071 1.349 . S
C4087 H4079 0.950 . S
C4087 C4085 1.327 . S
C4088 C4076 1.349 . S
C4088 H4082 0.950 . S
C4088 C4089 1.327 . S
C4089 H4083 0.950 . S
C4089 C4088 1.327 . S
C4089 C4093 1.429 . S
C4090 C4073 1.574 . S
C4090 H4084 0.949 . S
C4090 C4094 1.368 . S
C4091 C4072 1.429 . S
C4091 C4085 1.429 . S
C4091 C4092 1.523 . S
C4092 C4073 1.368 . S
C4092 C4086 1.368 . S
C4092 C4091 1.523 . S
C4093 C4077 1.429 . S
C4093 C4089 1.429 . S
C4093 C4094 1.523 . S
C4094 C4078 1.368 . S
C4094 C4090 1.368 . S
C4094 C4093 1.523 . S
H4095 C4070 0.950 . S
H4096 C4072 0.950 . S
H4097 C4073 0.949 . S
H4098 C4075 0.950 . S
H4099 C4077 0.950 . S
C4100 C4101 1.349 . S
C4100 C4102 1.327 . S
C4100 H4125 0.950 . S
C4101 C4100 1.349 . S
C4101 C4117 1.349 . S
C4102 C4100 1.327 . S
C4102 C4121 1.429 . S
C4102 H4126 0.950 . S
C4103 C4120 1.574 . S
C4103 C4122 1.368 . S
C4103 H4127 0.949 . S
H4104 C4108 0.949 . S
C4105 C4106 1.349 . S
C4105 C4107 1.327 . S
C4105 H4128 0.950 . S
C4106 C4105 1.349 . S
C4106 C4118 1.349 . S
C4107 C4105 1.327 . S
C4107 C4123 1.429 . S
C4107 H4129 0.950 . S
C4108 H4104 0.949 . S
C4108 C4116 1.574 . S
C4108 C4124 1.368 . S
H4109 C4117 0.950 . S
H4110 C4115 0.950 . S
H4111 C4116 0.949 . S
H4112 C4118 0.950 . S
H4113 C4119 0.950 . S
H4114 C4120 0.949 . S
C4115 H4110 0.950 . S
C4115 C4117 1.327 . S
C4115 C4121 1.429 . S
C4116 C4108 1.574 . S
C4116 H4111 0.949 . S
C4116 C4122 1.368 . S
C4117 C4101 1.349 . S
C4117 H4109 0.950 . S
C4117 C4115 1.327 . S
C4118 C4106 1.349 . S
C4118 H4112 0.950 . S
C4118 C4119 1.327 . S
C4119 H4113 0.950 . S
C4119 C4118 1.327 . S
C4119 C4123 1.429 . S
C4120 C4103 1.574 . S
C4120 H4114 0.949 . S
C4120 C4124 1.368 . S
C4121 C4102 1.429 . S
C4121 C4115 1.429 . S
C4121 C4122 1.523 . S
C4122 C4103 1.368 . S
C4122 C4116 1.368 . S
C4122 C4121 1.523 . S
C4123 C4107 1.429 . S
C4123 C4119 1.429 . S
C4123 C4124 1.523 . S
C4124 C4108 1.368 . S
C4124 C4120 1.368 . S
C4124 C4123 1.523 . S
H4125 C4100 0.950 . S
H4126 C4102 0.950 . S
H4127 C4103 0.949 . S
H4128 C4105 0.950 . S
H4129 C4107 0.950 . S
C4130 C4131 1.349 . S
C4130 C4132 1.327 . S
C4130 H4155 0.950 . S
C4131 C4130 1.349 . S
C4131 C4147 1.349 . S
C4132 C4130 1.327 . S
C4132 C4151 1.429 . S
C4132 H4156 0.950 . S
C4133 C4150 1.574 . S
C4133 C4152 1.368 . S
C4133 H4157 0.949 . S
H4134 C4138 0.949 . S
C4135 C4136 1.349 . S
C4135 C4137 1.327 . S
C4135 H4158 0.950 . S
C4136 C4135 1.349 . S
C4136 C4148 1.349 . S
C4137 C4135 1.327 . S
C4137 C4153 1.429 . S
C4137 H4159 0.950 . S
C4138 H4134 0.949 . S
C4138 C4146 1.574 . S
C4138 C4154 1.368 . S
H4139 C4147 0.950 . S
H4140 C4145 0.950 . S
H4141 C4146 0.949 . S
H4142 C4148 0.950 . S
H4143 C4149 0.950 . S
H4144 C4150 0.949 . S
C4145 H4140 0.950 . S
C4145 C4147 1.327 . S
C4145 C4151 1.429 . S
C4146 C4138 1.574 . S
C4146 H4141 0.949 . S
C4146 C4152 1.368 . S
C4147 C4131 1.349 . S
C4147 H4139 0.950 . S
C4147 C4145 1.327 . S
C4148 C4136 1.349 . S
C4148 H4142 0.950 . S
C4148 C4149 1.327 . S
C4149 H4143 0.950 . S
C4149 C4148 1.327 . S
C4149 C4153 1.429 . S
C4150 C4133 1.574 . S
C4150 H4144 0.949 . S
C4150 C4154 1.368 . S
C4151 C4132 1.429 . S
C4151 C4145 1.429 . S
C4151 C4152 1.523 . S
C4152 C4133 1.368 . S
C4152 C4146 1.368 . S
C4152 C4151 1.523 . S
C4153 C4137 1.429 . S
C4153 C4149 1.429 . S
C4153 C4154 1.523 . S
C4154 C4138 1.368 . S
C4154 C4150 1.368 . S
C4154 C4153 1.523 . S
H4155 C4130 0.950 . S
H4156 C4132 0.950 . S
H4157 C4133 0.949 . S
H4158 C4135 0.950 . S
H4159 C4137 0.950 . S
C1281 C7 1.106 . S
C1286 C131 1.063 . S
C1311 C11 1.063 . S
C1316 C47 1.106 . S
C1341 C87 1.106 . S
C1346 C51 1.063 . S
C1371 C91 1.063 . S
C1376 C127 1.106 . S
C1401 C211 1.063 . S
C1406 C167 1.106 . S
C1431 C207 1.106 . S
C1436 C251 1.063 . S
C1461 C291 1.063 . S
C1466 C247 1.106 . S
C1491 C171 1.063 . S
C1496 C287 1.106 . S
C1521 C336 1.106 . S
C1526 C442 1.063 . S
C1551 C376 1.106 . S
C1556 C322 1.063 . S
C1581 C416 1.106 . S
C1586 C362 1.063 . S
C1611 C456 1.106 . S
C1616 C402 1.063 . S
C1641 C496 1.106 . S
C1646 C522 1.063 . S
C1671 C536 1.106 . S
C1676 C562 1.063 . S
C1701 C602 1.063 . S
C1706 C576 1.106 . S
C1731 C482 1.063 . S
C1736 C616 1.106 . S
C1761 C647 1.106 . S
C1766 C771 1.063 . S
C1791 C651 1.063 . S
C1796 C687 1.106 . S
C1821 C691 1.063 . S
C1826 C727 1.106 . S
C1851 C767 1.106 . S
C1856 C731 1.063 . S
C1881 C807 1.106 . S
C1886 C851 1.063 . S
C1911 C891 1.063 . S
C1916 C847 1.106 . S
C1941 C887 1.106 . S
C1946 C931 1.063 . S
C1971 C811 1.063 . S
C1976 C927 1.106 . S
C2001 C1082 1.063 . S
C2006 C976 1.106 . S
C2031 C962 1.063 . S
C2036 C1016 1.106 . S
C2061 C1056 1.106 . S
C2066 C1002 1.063 . S
C2091 C1042 1.063 . S
C2096 C1096 1.106 . S
C2121 C1162 1.063 . S
C2126 C1136 1.106 . S
C2151 C1202 1.063 . S
C2156 C1176 1.106 . S
C2181 C1242 1.063 . S
C2186 C1216 1.106 . S
C2211 C1256 1.106 . S
C2216 C1122 1.063 . S
C2241 C1087 1.569 . S
C2246 C10 1.534 . S
C2271 C50 1.534 . S
C2276 C327 1.569 . S
C2301 C90 1.534 . S
C2306 C1007 1.569 . S
C2331 C130 1.534 . S
C2336 C407 1.569 . S
C2361 C170 1.534 . S
C2366 C1167 1.569 . S
C2391 C567 1.569 . S
C2396 C210 1.534 . S
C2421 C1247 1.569 . S
C2426 C250 1.534 . S
C2451 C290 1.534 . S
C2456 C487 1.569 . S
C2481 C339 1.534 . S
C2486 C776 1.569 . S
C2511 C16 1.569 . S
C2516 C379 1.534 . S
C2541 C696 1.569 . S
C2546 C419 1.534 . S
C2571 C96 1.569 . S
C2576 C459 1.534 . S
C2601 C856 1.569 . S
C2606 C499 1.534 . S
C2631 C256 1.569 . S
C2636 C539 1.534 . S
C2661 C579 1.534 . S
C2666 C936 1.569 . S
C2691 C619 1.534 . S
C2696 C176 1.569 . S
C2721 C650 1.534 . S
C2726 C447 1.569 . S
C2751 C690 1.534 . S
C2756 C967 1.569 . S
C2781 C730 1.534 . S
C2786 C367 1.569 . S
C2811 C770 1.534 . S
C2816 C1047 1.569 . S
C2841 C810 1.534 . S
C2846 C527 1.569 . S
C2871 C850 1.534 . S
C2876 C1207 1.569 . S
C2901 C607 1.569 . S
C2906 C890 1.534 . S
C2931 C930 1.534 . S
C2936 C1127 1.569 . S
C2961 C136 1.569 . S
C2966 C979 1.534 . S
C2991 C656 1.569 . S
C2996 C1019 1.534 . S
C3021 C56 1.569 . S
C3026 C1059 1.534 . S
C3051 C736 1.569 . S
C3056 C1099 1.534 . S
C3081 C216 1.569 . S
C3086 C1139 1.534 . S
C3111 C1179 1.534 . S
C3116 C896 1.569 . S
C3141 C1219 1.534 . S
C3146 C296 1.569 . S
C3171 C816 1.569 . S
C3176 C1259 1.534 . S
C3201 C19 0.351 . S
C3206 C179 0.351 . S
C3231 C59 0.351 . S
C3236 C219 0.351 . S
C3261 C99 0.351 . S
C3266 C259 0.351 . S
C3291 C299 0.351 . S
C3296 C139 0.351 . S
C3321 C490 0.351 . S
C3326 C330 0.351 . S
C3351 C530 0.351 . S
C3356 C370 0.351 . S
C3381 C410 0.351 . S
C3386 C570 0.351 . S
C3411 C450 0.351 . S
C3416 C610 0.351 . S
C3441 C659 0.351 . S
C3446 C819 0.351 . S
C3471 C859 0.351 . S
C3476 C699 0.351 . S
C3501 C899 0.351 . S
C3506 C739 0.351 . S
C3531 C939 0.351 . S
C3536 C779 0.351 . S
C3561 C1130 0.351 . S
C3566 C970 0.351 . S
C3591 C1010 0.351 . S
C3596 C1170 0.351 . S
C3621 C1210 0.351 . S
C3626 C1050 0.351 . S
C3651 C1090 0.351 . S
C3656 C1250 0.351 . S
C3681 C282 2.816 . S
C3686 C2 2.816 . S
C3711 C42 2.816 . S
C3716 C162 2.816 . S
C3741 C82 2.816 . S
C3746 C202 2.816 . S
C3771 C242 2.816 . S
C3776 C122 2.816 . S
C3801 C331 2.816 . S
C3806 C611 2.816 . S
C3831 C491 2.816 . S
C3836 C371 2.816 . S
C3861 C531 2.816 . S
C3866 C411 2.816 . S
C3891 C451 2.816 . S
C3896 C571 2.816 . S
C3921 C642 2.816 . S
C3926 C922 2.816 . S
C3951 C802 2.816 . S
C3956 C682 2.816 . S
C3981 C842 2.816 . S
C3986 C722 2.816 . S
C4011 C882 2.816 . S
C4016 C762 2.816 . S
C4041 C971 2.816 . S
C4046 C1251 2.816 . S
C4071 C1131 2.816 . S
C4076 C1011 2.816 . S
C4101 C1051 2.816 . S
C4106 C1171 2.816 . S
C4131 C1211 2.816 . S
C4136 C1091 2.816 . S
