# Generated by pormake.
# Topology ukf, (4)-cn, num edge types: 1
# Building blocks:
#     Node 0, Type 0, BuildingBlock: QUQFOY_clean_sbu_1, # of connection points: 4
#     Node 1, Type 0, BuildingBlock: QUQFOY_clean_sbu_1, # of connection points: 4
#     Node 2, Type 0, BuildingBlock: QUQFOY_clean_sbu_1, # of connection points: 4
#     Node 3, Type 0, BuildingBlock: QUQFOY_clean_sbu_1, # of connection points: 4
#     Node 4, Type 0, BuildingBlock: QUQFOY_clean_sbu_1, # of connection points: 4
#     Node 5, Type 0, BuildingBlock: QUQFOY_clean_sbu_1, # of connection points: 4
#     Node 6, Type 0, BuildingBlock: QUQFOY_clean_sbu_1, # of connection points: 4
#     Node 7, Type 0, BuildingBlock: QUQFOY_clean_sbu_1, # of connection points: 4
#     Node 8, Type 0, BuildingBlock: QUQFOY_clean_sbu_1, # of connection points: 4
#     Node 9, Type 0, BuildingBlock: QUQFOY_clean_sbu_1, # of connection points: 4
#     Node 10, Type 0, BuildingBlock: QUQFOY_clean_sbu_1, # of connection points: 4
#     Node 11, Type 0, BuildingBlock: QUQFOY_clean_sbu_1, # of connection points: 4
#     Edge 12, Type (0, 0), BuildingBlock: OJICUG_clean_linker_0, # of connection points: 2
#     Edge 13, Type (0, 0), BuildingBlock: OJICUG_clean_linker_0, # of connection points: 2
#     Edge 14, Type (0, 0), BuildingBlock: OJICUG_clean_linker_0, # of connection points: 2
#     Edge 15, Type (0, 0), BuildingBlock: OJICUG_clean_linker_0, # of connection points: 2
#     Edge 16, Type (0, 0), BuildingBlock: OJICUG_clean_linker_0, # of connection points: 2
#     Edge 17, Type (0, 0), BuildingBlock: OJICUG_clean_linker_0, # of connection points: 2
#     Edge 18, Type (0, 0), BuildingBlock: OJICUG_clean_linker_0, # of connection points: 2
#     Edge 19, Type (0, 0), BuildingBlock: OJICUG_clean_linker_0, # of connection points: 2
#     Edge 20, Type (0, 0), BuildingBlock: OJICUG_clean_linker_0, # of connection points: 2
#     Edge 21, Type (0, 0), BuildingBlock: OJICUG_clean_linker_0, # of connection points: 2
#     Edge 22, Type (0, 0), BuildingBlock: OJICUG_clean_linker_0, # of connection points: 2
#     Edge 23, Type (0, 0), BuildingBlock: OJICUG_clean_linker_0, # of connection points: 2
#     Edge 24, Type (0, 0), BuildingBlock: OJICUG_clean_linker_0, # of connection points: 2
#     Edge 25, Type (0, 0), BuildingBlock: OJICUG_clean_linker_0, # of connection points: 2
#     Edge 26, Type (0, 0), BuildingBlock: OJICUG_clean_linker_0, # of connection points: 2
#     Edge 27, Type (0, 0), BuildingBlock: OJICUG_clean_linker_0, # of connection points: 2
#     Edge 28, Type (0, 0), BuildingBlock: OJICUG_clean_linker_0, # of connection points: 2
#     Edge 29, Type (0, 0), BuildingBlock: OJICUG_clean_linker_0, # of connection points: 2
#     Edge 30, Type (0, 0), BuildingBlock: OJICUG_clean_linker_0, # of connection points: 2
#     Edge 31, Type (0, 0), BuildingBlock: OJICUG_clean_linker_0, # of connection points: 2
#     Edge 32, Type (0, 0), BuildingBlock: OJICUG_clean_linker_0, # of connection points: 2
#     Edge 33, Type (0, 0), BuildingBlock: OJICUG_clean_linker_0, # of connection points: 2
#     Edge 34, Type (0, 0), BuildingBlock: OJICUG_clean_linker_0, # of connection points: 2
#     Edge 35, Type (0, 0), BuildingBlock: OJICUG_clean_linker_0, # of connection points: 2
# Relax obj value: 0.114
# Max RMSD: 0.128
# Mean RMSD: 0.128
data_MOF--net-ukf--node1-QUQFOY_clean_sbu_1--edge1-OJICUG_clean_linker_0
_symmetry_space_group_name_H-M    P1
_symmetry_Int_Tables_number       1
_symmetry_cell_setting            triclinic
loop_
_symmetry_equiv_pos_as_xyz
'x, y, z'
_cell_length_a     23.631076
_cell_length_b     23.629494
_cell_length_c     53.793843
_cell_angle_alpha  90.015667
_cell_angle_beta   89.998977
_cell_angle_gamma 120.03192
loop_
_atom_site_label
_atom_site_type_symbol
_atom_site_fract_x
_atom_site_fract_y
_atom_site_fract_z
_atom_type_partial_charge
O0 O 0.4671 0.33875 0.08408 0.0
Cd1 Cd 0.44818 0.24556 0.09218 0.0
Cd2 Cd 0.38412 0.22958 0.04645 0.0
O3 O 0.40602 0.32542 0.051 0.0
O4 O 0.49646 0.2633 0.12431 0.0
O5 O 0.38988 0.19867 0.12195 0.0
C6 C 0.44189 0.22715 0.13548 0.0
C7 C 0.28476 0.13573 0.03828 0.0
C8 C 0.44592 0.36208 0.06762 0.0
C9 C 0.49792 0.20781 0.04715 0.0
O10 O 0.4604 0.21981 0.03414 0.0
O11 O 0.49614 0.20934 0.07078 0.0
O12 O 0.31377 0.18031 1.02152 0.0
O13 O 0.30871 0.14821 0.06056 0.0
O14 O 0.12907 0.46508 0.41774 0.0
Cd15 Cd 0.20366 0.44706 0.42634 0.0
Cd16 Cd 0.15729 0.38313 0.38014 0.0
O17 O 0.08328 0.40508 0.38421 0.0
O18 O 0.2328 0.49532 0.45853 0.0
O19 O 0.1921 0.38894 0.45618 0.0
C20 C 0.21477 0.44088 0.46972 0.0
C21 C 0.15138 0.28385 0.37133 0.0
C22 C 0.08545 0.44429 0.40092 0.0
C23 C 0.2929 0.4976 0.38177 0.0
O24 O 0.24409 0.45966 0.3685 0.0
O25 O 0.28854 0.49594 0.40538 0.0
O26 O 0.13701 0.31407 0.35469 0.0
O27 O 0.16193 0.30657 0.3938 0.0
O28 O 0.66687 0.12907 0.75044 0.0
Cd29 Cd 0.7599 0.20364 0.75862 0.0
Cd30 Cd 0.77599 0.15593 0.71265 0.0
O31 O 0.68013 0.08193 0.71715 0.0
O32 O 0.74186 0.23389 0.79075 0.0
O33 O 0.80686 0.19244 0.7884 0.0
C34 C 0.77817 0.21572 0.80193 0.0
C35 C 0.86961 0.15027 0.70423 0.0
C36 C 0.64352 0.08479 0.73388 0.0
C37 C 0.7976 0.29155 0.71368 0.0
O38 O 0.78588 0.24223 0.70059 0.0
O39 O 0.79585 0.28796 0.73731 0.0
O40 O 0.82499 0.13509 0.68752 0.0
O41 O 0.85732 0.16149 0.72658 0.0
O42 O 0.54106 0.66548 0.08497 0.0
Cd43 Cd 0.55907 0.75817 0.09347 0.0
Cd44 Cd 0.62329 0.77575 0.04743 0.0
O45 O 0.60145 0.67983 0.05156 0.0
O46 O 0.51092 0.73936 0.12566 0.0
O47 O 0.6173 0.80505 0.12327 0.0
C48 C 0.56541 0.77589 0.13683 0.0
C49 C 0.72252 0.86926 0.03865 0.0
C50 C 0.56207 0.64271 0.06822 0.0
C51 C 0.50873 0.79658 0.04878 0.0
O52 O 0.54678 0.78573 0.0356 0.0
O53 O 0.51024 0.794 0.07239 0.0
O54 O 0.69248 0.82449 1.02204 0.0
O55 O 0.69967 0.85719 0.06109 0.0
O56 O 0.87676 0.5394 0.4171 0.0
Cd57 Cd 0.80244 0.55809 0.42536 0.0
Cd58 Cd 0.85002 0.62199 0.37946 0.0
O59 O 0.9239 0.59997 0.38384 0.0
O60 O 0.77224 0.5098 0.45749 0.0
O61 O 0.81391 0.61633 0.45516 0.0
C62 C 0.79056 0.56432 0.46869 0.0
C63 C 0.85583 0.72142 0.37123 0.0
C64 C 0.92097 0.56033 0.40051 0.0
C65 C 0.71431 0.50808 0.38047 0.0
O66 O 0.76362 0.54568 0.36737 0.0
O67 O 0.718 0.50986 0.4041 0.0
O68 O 0.87091 0.69207 0.35445 0.0
O69 O 0.84463 0.69773 0.39355 0.0
O70 O 0.34022 0.87614 0.7514 0.0
Cd71 Cd 0.24758 0.80148 0.76001 0.0
Cd72 Cd 0.2297 0.84816 0.71397 0.0
O73 O 0.32572 0.92219 0.71804 0.0
O74 O 0.26662 0.77224 0.79218 0.0
O75 O 0.20102 0.81299 0.78987 0.0
C76 C 0.23025 0.79029 0.80339 0.0
C77 C 0.13639 0.85414 0.70515 0.0
C78 C 0.36292 0.91991 0.73465 0.0
C79 C 0.20868 0.7126 0.71533 0.0
O80 O 0.21943 0.7615 0.70217 0.0
O81 O 0.2115 0.71673 0.73894 0.0
O82 O 0.1811 0.86865 0.68854 0.0
O83 O 0.14841 0.84341 0.7276 0.0
O84 O 0.66642 0.53984 0.62825 0.0
Cd85 Cd 0.75904 0.55779 0.6197 0.0
Cd86 Cd 0.77665 0.62186 0.66588 0.0
O87 O 0.68069 0.59993 0.66175 0.0
O88 O 0.74002 0.50963 0.58749 0.0
O89 O 0.80583 0.61601 0.58989 0.0
C90 C 0.77656 0.56411 0.57633 0.0
C91 C 0.87001 0.72111 0.67482 0.0
C92 C 0.64361 0.5607 0.64505 0.0
C93 C 0.79759 0.5073 0.66431 0.0
O94 O 0.7868 0.54532 0.67754 0.0
O95 O 0.79488 0.50886 0.6407 0.0
O96 O 0.82525 0.69077 0.6914 0.0
O97 O 0.85803 0.69853 0.65233 0.0
O98 O 0.13034 0.66571 0.96262 0.0
Cd99 Cd 0.20497 0.75864 0.95438 0.0
Cd100 Cd 0.15744 0.77504 1.00039 0.0
O101 O 0.08342 0.67916 0.99594 0.0
O102 O 0.23494 0.74038 0.92222 0.0
O103 O 0.19372 0.80558 0.9246 0.0
C104 C 0.21682 0.77674 0.91105 0.0
C105 C 0.15164 0.86856 1.00893 0.0
C106 C 0.08616 0.64246 0.97921 0.0
C107 C 0.29306 0.79651 0.99927 0.0
O108 O 0.24384 0.78503 1.01238 0.0
O109 O 0.28937 0.79454 0.97564 0.0
O110 O 0.13671 0.82394 0.02561 0.0
O111 O 0.16272 0.85634 0.98655 0.0
O112 O 0.46637 0.12854 0.29519 0.0
Cd113 Cd 0.44818 0.20298 0.28652 0.0
Cd114 Cd 0.38401 0.15657 0.33262 0.0
O115 O 0.40605 0.0826 0.32862 0.0
O116 O 0.49641 0.23203 0.25434 0.0
O117 O 0.39001 0.19119 0.25667 0.0
C118 C 0.44194 0.21385 0.24313 0.0
C119 C 0.28467 0.1506 0.34135 0.0
C120 C 0.44547 0.08488 0.31198 0.0
C121 C 0.49842 0.29223 0.33109 0.0
O122 O 0.46044 0.24339 0.34432 0.0
O123 O 0.49691 0.28792 0.30748 0.0
O124 O 0.31484 0.13623 0.35801 0.0
O125 O 0.30748 0.16118 0.3189 0.0
O126 O 0.33982 0.46599 0.62891 0.0
Cd127 Cd 0.24679 0.44737 0.62069 0.0
Cd128 Cd 0.23038 0.38323 0.66653 0.0
O129 O 0.32627 0.4052 0.6621 0.0
O130 O 0.26481 0.49559 0.58854 0.0
O131 O 0.19987 0.38906 0.59091 0.0
C132 C 0.22853 0.44103 0.57737 0.0
C133 C 0.13671 0.28383 0.67486 0.0
C134 C 0.36303 0.44491 0.64545 0.0
C135 C 0.20881 0.49725 0.66563 0.0
O136 O 0.22044 0.45954 0.67868 0.0
O137 O 0.21071 0.4956 0.642 0.0
O138 O 0.1813 0.31323 0.69159 0.0
O139 O 0.14907 0.30745 0.65253 0.0
O140 O 0.87732 0.33918 0.96167 0.0
Cd141 Cd 0.80259 0.24664 0.95298 0.0
Cd142 Cd 0.84891 0.22864 0.99919 0.0
O143 O 0.92291 0.3247 0.99518 0.0
O144 O 0.7737 0.26591 0.92077 0.0
O145 O 0.81412 0.20004 0.92314 0.0
C146 C 0.79165 0.22943 0.90959 0.0
C147 C 0.85511 0.13555 1.00825 0.0
C148 C 0.92088 0.36189 0.97851 0.0
C149 C 0.71331 0.20765 0.99753 0.0
O150 O 0.76203 0.21818 1.01077 0.0
O151 O 0.71769 0.2107 0.97393 0.0
O152 O 0.86923 0.18031 0.0248 0.0
O153 O 0.84463 0.14738 0.98573 0.0
O154 O 0.54084 0.87637 0.29604 0.0
Cd155 Cd 0.55941 0.80196 0.28779 0.0
Cd156 Cd 0.62299 0.84939 0.33381 0.0
O157 O 0.60105 0.92332 0.3294 0.0
O158 O 0.51114 0.77186 0.25565 0.0
O159 O 0.61762 0.81332 0.258 0.0
C160 C 0.56564 0.79008 0.24446 0.0
C161 C 0.72233 0.8551 0.34214 0.0
C162 C 0.56163 0.92051 0.31266 0.0
C163 C 0.50902 0.7137 0.33263 0.0
O164 O 0.54656 0.76294 0.34578 0.0
O165 O 0.51096 0.71748 0.309 0.0
O166 O 0.69289 0.87013 0.3589 0.0
O167 O 0.69879 0.84402 0.31979 0.0
C168 C 0.1892 0.98562 0.99844 0.0
C169 C 0.16774 0.93563 1.01629 0.0
H170 H 0.24169 0.08856 0.99145 0.0
C171 C 0.17343 0.95271 0.04162 0.0
H172 H 0.1852 0.97424 0.97879 0.0
C173 C 0.20644 0.01844 0.04892 0.0
C174 C 0.23389 0.06847 0.03105 0.0
H175 H 0.15712 0.91551 0.0559 0.0
H176 H 0.2145 0.02983 0.06856 0.0
C177 C 0.22164 0.05134 1.00575 0.0
C178 C 0.18954 0.20474 0.3816 0.0
C179 C 0.1675 0.23297 0.36386 0.0
H180 H 0.24258 0.15478 0.38835 0.0
C181 C 0.17267 0.22146 0.3385 0.0
H182 H 0.18596 0.2122 0.40127 0.0
C183 C 0.20571 0.18892 0.33104 0.0
C184 C 0.23378 0.16671 0.34879 0.0
H185 H 0.15588 0.2421 0.3243 0.0
H186 H 0.21333 0.1855 0.31137 0.0
C187 C 0.22207 0.17169 0.37414 0.0
C188 C 0.95379 0.17183 0.6716 0.0
C189 C 0.93673 0.16649 0.69692 0.0
H190 H 0.03084 0.21273 0.64464 0.0
C191 C 0.98677 0.18845 0.71477 0.0
H192 H 0.91655 0.15514 0.65731 0.0
C193 C 0.05248 0.22102 0.70746 0.0
C194 C 0.06954 0.23289 0.68214 0.0
H195 H 0.97543 0.18474 0.73442 0.0
H196 H 0.08972 0.24144 0.72175 0.0
C197 C 0.0195 0.20496 0.66429 0.0
C198 C 0.78509 0.95269 1.00577 0.0
C199 C 0.7733 0.93629 0.03114 0.0
H200 H 0.82108 0.029 0.97851 0.0
C201 C 0.80111 0.98683 0.04881 0.0
H202 H 0.76478 0.91506 0.99162 0.0
C203 C 0.83397 0.05234 0.04125 0.0
C204 C 0.83921 0.06871 1.01586 0.0
H205 H 0.79342 0.97601 0.0685 0.0
H206 H 0.85054 0.08996 0.05539 0.0
C207 C 0.81745 0.01821 0.99821 0.0
C208 C 0.78503 0.83341 0.37469 0.0
C209 C 0.77326 0.83887 0.34938 0.0
H210 H 0.82121 0.79239 0.40156 0.0
C211 C 0.80128 0.81701 0.33148 0.0
H212 H 0.76453 0.85003 0.38901 0.0
C213 C 0.83441 0.78441 0.33872 0.0
C214 C 0.83964 0.7724 0.36402 0.0
H215 H 0.79361 0.82082 0.31184 0.0
H216 H 0.85117 0.76405 0.32439 0.0
C217 C 0.8176 0.80025 0.38193 0.0
C218 C 0.95344 0.78327 0.70777 0.0
C219 C 0.93698 0.77193 0.68238 0.0
H220 H 0.02984 0.81903 0.735 0.0
C221 C 0.98745 0.8003 0.66471 0.0
H222 H 0.91586 0.76252 0.72192 0.0
C223 C 0.05298 0.83328 0.67226 0.0
C224 C 0.06944 0.83809 0.69763 0.0
H225 H 0.97658 0.79297 0.64502 0.0
H226 H 0.09056 0.85031 0.6581 0.0
C227 C 0.01898 0.81575 0.71531 0.0
C228 C 0.60245 0.19704 0.99622 0.0
C229 C 0.65316 0.19754 1.00999 0.0
H230 H 0.51326 0.19933 0.99718 0.0
C231 C 0.64847 0.19396 0.03609 0.0
H232 H 0.60434 0.19934 0.97611 0.0
C233 C 0.59626 0.194 0.04821 0.0
C234 C 0.54769 0.1977 0.03448 0.0
H235 H 0.6864 0.19359 0.04727 0.0
H236 H 0.59549 0.19385 0.06834 0.0
C237 C 0.55028 0.19716 1.00835 0.0
C238 C 0.40415 0.59736 0.38325 0.0
C239 C 0.35314 0.54771 0.36938 0.0
H240 H 0.49378 0.68854 0.3825 0.0
C241 C 0.3577 0.54949 0.34327 0.0
H242 H 0.40238 0.59726 0.40337 0.0
C243 C 0.4101 0.60186 0.33127 0.0
C244 C 0.459 0.65359 0.34512 0.0
H245 H 0.31952 0.51162 0.33201 0.0
H246 H 0.41078 0.60302 0.31113 0.0
C247 C 0.45652 0.64978 0.37124 0.0
C248 C 0.81063 0.4034 0.71492 0.0
C249 C 0.80763 0.35154 0.70112 0.0
H250 H 0.81043 0.49366 0.71408 0.0
C251 C 0.80877 0.3551 0.67499 0.0
H252 H 0.81029 0.40243 0.73505 0.0
C253 C 0.80883 0.40744 0.66293 0.0
C254 C 0.80766 0.45723 0.67675 0.0
H255 H 0.80715 0.31623 0.66378 0.0
H256 H 0.80704 0.40737 0.6428 0.0
C257 C 0.8106 0.45569 0.70285 0.0
C258 C 0.40474 0.8091 0.99807 0.0
C259 C 0.35306 0.80655 1.01184 0.0
H260 H 0.49482 0.80857 0.99896 0.0
C261 C 0.35678 0.80813 0.03797 0.0
H262 H 0.40363 0.8084 0.97793 0.0
C263 C 0.40908 0.80819 0.05006 0.0
C264 C 0.45869 0.80659 0.03628 0.0
H265 H 0.31805 0.80685 0.04916 0.0
H266 H 0.40913 0.80676 0.07019 0.0
C267 C 0.45699 0.80909 1.01016 0.0
C268 C 0.59822 0.40348 0.32972 0.0
C269 C 0.54846 0.35245 0.34354 0.0
H270 H 0.68945 0.49306 0.33057 0.0
C271 C 0.55007 0.35693 0.36965 0.0
H272 H 0.59824 0.40177 0.3096 0.0
C273 C 0.6024 0.40927 0.38171 0.0
C274 C 0.65424 0.45817 0.36792 0.0
H275 H 0.51212 0.31874 0.38087 0.0
H276 H 0.60343 0.40987 0.40184 0.0
C277 C 0.6506 0.45578 0.34179 0.0
C278 C 0.19585 0.59611 0.66454 0.0
C279 C 0.1987 0.54708 0.67826 0.0
H280 H 0.19614 0.68661 0.66551 0.0
C281 C 0.19735 0.54922 0.70439 0.0
H282 H 0.19636 0.59569 0.6444 0.0
C283 C 0.19725 0.60139 0.71654 0.0
C284 C 0.19859 0.65254 0.7028 0.0
H285 H 0.19884 0.51183 0.71555 0.0
H286 H 0.19889 0.6029 0.73666 0.0
C287 C 0.19583 0.64831 0.67668 0.0
C288 C 0.4991 0.24924 0.17633 0.0
C289 C 0.4401 0.22141 0.16298 0.0
H290 H 0.54574 0.269 0.21176 0.0
C291 C 0.38082 0.19122 0.17625 0.0
H292 H 0.5457 0.27301 0.16678 0.0
C293 C 0.38085 0.18934 0.20237 0.0
C294 C 0.44015 0.2173 0.21562 0.0
H295 H 0.33454 0.16966 0.1665 0.0
H296 H 0.33458 0.16567 0.21214 0.0
C297 C 0.49912 0.2471 0.20223 0.0
C298 C 0.19032 0.37986 0.51049 0.0
C299 C 0.21841 0.43914 0.49724 0.0
H300 H 0.17062 0.33362 0.54636 0.0
C301 C 0.24852 0.49814 0.51061 0.0
H302 H 0.16642 0.33357 0.50072 0.0
C303 C 0.25079 0.49817 0.53651 0.0
C304 C 0.22278 0.43919 0.54987 0.0
H305 H 0.27055 0.54475 0.50107 0.0
H306 H 0.27477 0.5448 0.54605 0.0
C307 C 0.19232 0.37989 0.53661 0.0
C308 C 0.81609 0.19275 0.86884 0.0
C309 C 0.78813 0.22408 0.88207 0.0
H310 H 0.83576 0.16607 0.83298 0.0
C311 C 0.75824 0.25312 0.86867 0.0
H312 H 0.83982 0.17024 0.87862 0.0
C313 C 0.75604 0.25085 0.84277 0.0
C314 C 0.78391 0.21973 0.82943 0.0
H315 H 0.73633 0.27782 0.87819 0.0
H316 H 0.73222 0.2736 0.83321 0.0
C317 C 0.81417 0.19076 0.84272 0.0
C318 C 0.5083 0.7528 0.17772 0.0
C319 C 0.56725 0.7815 0.16433 0.0
H320 H 0.46177 0.73267 0.21318 0.0
C321 C 0.62658 0.81267 0.17757 0.0
H322 H 0.46166 0.72825 0.1682 0.0
C323 C 0.62664 0.81479 0.20368 0.0
C324 C 0.56738 0.7861 0.21696 0.0
H325 H 0.67283 0.83492 0.16779 0.0
H326 H 0.67294 0.8393 0.21343 0.0
C327 C 0.50836 0.75519 0.20362 0.0
C328 C 0.81336 0.62527 0.53559 0.0
C329 C 0.78207 0.56595 0.54882 0.0
H330 H 0.84007 0.67164 0.49974 0.0
C331 C 0.75319 0.50699 0.53541 0.0
H332 H 0.83575 0.67153 0.54538 0.0
C333 C 0.75553 0.50705 0.50952 0.0
C334 C 0.78658 0.56607 0.49619 0.0
H335 H 0.72853 0.46035 0.54493 0.0
H336 H 0.73288 0.46045 0.49995 0.0
C337 C 0.81544 0.62533 0.50948 0.0
C338 C 0.25142 0.75421 0.87017 0.0
C339 C 0.22067 0.78241 0.88355 0.0
H340 H 0.27805 0.73427 0.83472 0.0
C341 C 0.19196 0.81297 0.87029 0.0
H342 H 0.27395 0.73013 0.87971 0.0
C343 C 0.19389 0.81492 0.84418 0.0
C344 C 0.22488 0.78666 0.83091 0.0
H345 H 0.16756 0.83482 0.88006 0.0
H346 H 0.17161 0.83891 0.83442 0.0
C347 C 0.25362 0.75643 0.84427 0.0
C348 C 0.51981 0.53622 0.09004 0.0
C349 C 0.53571 0.57135 0.06763 0.0
H350 H 0.47892 0.44249 0.10749 0.0
C351 C 0.5197 0.53695 0.04501 0.0
H352 H 0.53107 0.5615 0.10773 0.0
C353 C 0.48758 0.4684 0.04488 0.0
C354 C 0.47253 0.4335 0.06736 0.0
H355 H 0.53045 0.5629 0.02749 0.0
H356 H 0.47602 0.44284 0.02725 0.0
C357 C 0.48945 0.46815 0.0899 0.0
C358 C 0.98374 0.51702 0.4227 0.0
C359 C 0.96579 0.53377 0.40019 0.0
H360 H 0.03558 0.47553 0.44048 0.0
C361 C 0.98545 0.5186 0.37768 0.0
H362 H 0.96877 0.52764 0.44031 0.0
C363 C 0.02188 0.48652 0.37777 0.0
C364 C 0.04048 0.47066 0.40037 0.0
H365 H 0.97128 0.53003 0.36007 0.0
H366 H 0.03692 0.47567 0.36023 0.0
C367 C 0.02143 0.48668 0.42279 0.0
C368 C 0.53706 0.02027 0.71119 0.0
C369 C 0.57213 0.03981 0.73364 0.0
H370 H 0.44244 0.96881 0.69387 0.0
C371 C 0.53766 0.02163 0.75621 0.0
H372 H 0.56248 0.03463 0.69354 0.0
C373 C 0.4696 0.98383 0.7564 0.0
C374 C 0.43429 0.96493 0.73402 0.0
H375 H 0.56345 0.03651 0.77379 0.0
H376 H 0.44448 0.9695 0.77411 0.0
C377 C 0.46852 0.98374 0.71137 0.0
C378 C 0.53719 0.51841 0.62317 0.0
C379 C 0.57226 0.53438 0.64559 0.0
H380 H 0.44354 0.47757 0.60565 0.0
C381 C 0.53779 0.51853 0.66819 0.0
H382 H 0.56251 0.52956 0.60548 0.0
C383 C 0.46925 0.48651 0.66828 0.0
C384 C 0.43442 0.4714 0.64577 0.0
H385 H 0.56368 0.52934 0.68573 0.0
H386 H 0.44364 0.47509 0.68589 0.0
C387 C 0.46914 0.48815 0.62326 0.0
C388 C 0.02135 0.5361 1.00194 0.0
C389 C 0.04109 0.57108 0.97947 0.0
H390 H 0.96961 0.44155 1.01929 0.0
C391 C 0.023 0.53651 0.95691 0.0
H392 H 0.03562 0.56159 1.01958 0.0
C393 C 0.9851 0.46847 0.95675 0.0
C394 C 0.96598 0.43324 0.97914 0.0
H395 H 0.03802 0.56223 0.93933 0.0
H396 H 0.97086 0.44327 0.93904 0.0
C397 C 0.9847 0.46756 1.00177 0.0
C398 C 0.51875 0.98352 0.29038 0.0
C399 C 0.53512 0.96537 0.31293 0.0
H400 H 0.47752 0.03547 0.2725 0.0
C401 C 0.51954 0.9848 0.3354 0.0
H402 H 0.52969 0.96872 0.27279 0.0
C403 C 0.48742 0.02121 0.33524 0.0
C404 C 0.47193 0.03999 0.3126 0.0
H405 H 0.53066 0.97047 0.35304 0.0
H406 H 0.47624 0.03606 0.35275 0.0
C407 C 0.48838 0.02117 0.29021 0.0
loop_
_geom_bond_atom_site_label_1
_geom_bond_atom_site_label_2
_geom_bond_distance
_geom_bond_site_symmetry_2
_ccdc_geom_bond_type
O0 Cd1 2.223 . S
O0 C8 1.315 . S
Cd1 O0 2.223 . S
Cd1 O4 2.297 . S
Cd1 O5 2.439 . S
Cd1 O11 2.240 . S
Cd2 O3 2.240 . S
Cd2 O10 2.223 . S
Cd2 O12 2.297 . S
Cd2 O13 2.439 . S
O3 Cd2 2.240 . S
O3 C8 1.279 . S
O4 Cd1 2.297 . S
O4 C6 1.247 . S
O5 Cd1 2.439 . S
O5 C6 1.208 . S
C6 O4 1.247 . S
C6 O5 1.208 . S
C7 O12 1.247 . S
C7 O13 1.208 . S
C8 O0 1.315 . S
C8 O3 1.279 . S
C9 O10 1.315 . S
C9 O11 1.279 . S
O10 Cd2 2.223 . S
O10 C9 1.315 . S
O11 Cd1 2.240 . S
O11 C9 1.279 . S
O12 Cd2 2.297 . S
O12 C7 1.247 . S
O13 Cd2 2.439 . S
O13 C7 1.208 . S
O14 Cd15 2.223 . S
O14 C22 1.315 . S
Cd15 O14 2.223 . S
Cd15 O18 2.297 . S
Cd15 O19 2.439 . S
Cd15 O25 2.240 . S
Cd16 O17 2.240 . S
Cd16 O24 2.223 . S
Cd16 O26 2.297 . S
Cd16 O27 2.439 . S
O17 Cd16 2.240 . S
O17 C22 1.279 . S
O18 Cd15 2.297 . S
O18 C20 1.247 . S
O19 Cd15 2.439 . S
O19 C20 1.208 . S
C20 O18 1.247 . S
C20 O19 1.208 . S
C21 O26 1.247 . S
C21 O27 1.208 . S
C22 O14 1.315 . S
C22 O17 1.279 . S
C23 O24 1.315 . S
C23 O25 1.279 . S
O24 Cd16 2.223 . S
O24 C23 1.315 . S
O25 Cd15 2.240 . S
O25 C23 1.279 . S
O26 Cd16 2.297 . S
O26 C21 1.247 . S
O27 Cd16 2.439 . S
O27 C21 1.208 . S
O28 Cd29 2.223 . S
O28 C36 1.315 . S
Cd29 O28 2.223 . S
Cd29 O32 2.297 . S
Cd29 O33 2.439 . S
Cd29 O39 2.240 . S
Cd30 O31 2.240 . S
Cd30 O38 2.223 . S
Cd30 O40 2.297 . S
Cd30 O41 2.439 . S
O31 Cd30 2.240 . S
O31 C36 1.279 . S
O32 Cd29 2.297 . S
O32 C34 1.247 . S
O33 Cd29 2.439 . S
O33 C34 1.208 . S
C34 O32 1.247 . S
C34 O33 1.208 . S
C35 O40 1.247 . S
C35 O41 1.208 . S
C36 O28 1.315 . S
C36 O31 1.279 . S
C37 O38 1.315 . S
C37 O39 1.279 . S
O38 Cd30 2.223 . S
O38 C37 1.315 . S
O39 Cd29 2.240 . S
O39 C37 1.279 . S
O40 Cd30 2.297 . S
O40 C35 1.247 . S
O41 Cd30 2.439 . S
O41 C35 1.208 . S
O42 Cd43 2.223 . S
O42 C50 1.315 . S
Cd43 O42 2.223 . S
Cd43 O46 2.297 . S
Cd43 O47 2.439 . S
Cd43 O53 2.240 . S
Cd44 O45 2.240 . S
Cd44 O52 2.223 . S
Cd44 O54 2.297 . S
Cd44 O55 2.439 . S
O45 Cd44 2.240 . S
O45 C50 1.279 . S
O46 Cd43 2.297 . S
O46 C48 1.247 . S
O47 Cd43 2.439 . S
O47 C48 1.208 . S
C48 O46 1.247 . S
C48 O47 1.208 . S
C49 O54 1.247 . S
C49 O55 1.208 . S
C50 O42 1.315 . S
C50 O45 1.279 . S
C51 O52 1.315 . S
C51 O53 1.279 . S
O52 Cd44 2.223 . S
O52 C51 1.315 . S
O53 Cd43 2.240 . S
O53 C51 1.279 . S
O54 Cd44 2.297 . S
O54 C49 1.247 . S
O55 Cd44 2.439 . S
O55 C49 1.208 . S
O56 Cd57 2.223 . S
O56 C64 1.315 . S
Cd57 O56 2.223 . S
Cd57 O60 2.297 . S
Cd57 O61 2.439 . S
Cd57 O67 2.240 . S
Cd58 O59 2.240 . S
Cd58 O66 2.223 . S
Cd58 O68 2.297 . S
Cd58 O69 2.439 . S
O59 Cd58 2.240 . S
O59 C64 1.279 . S
O60 Cd57 2.297 . S
O60 C62 1.247 . S
O61 Cd57 2.439 . S
O61 C62 1.208 . S
C62 O60 1.247 . S
C62 O61 1.208 . S
C63 O68 1.247 . S
C63 O69 1.208 . S
C64 O56 1.315 . S
C64 O59 1.279 . S
C65 O66 1.315 . S
C65 O67 1.279 . S
O66 Cd58 2.223 . S
O66 C65 1.315 . S
O67 Cd57 2.240 . S
O67 C65 1.279 . S
O68 Cd58 2.297 . S
O68 C63 1.247 . S
O69 Cd58 2.439 . S
O69 C63 1.208 . S
O70 Cd71 2.223 . S
O70 C78 1.315 . S
Cd71 O70 2.223 . S
Cd71 O74 2.297 . S
Cd71 O75 2.439 . S
Cd71 O81 2.240 . S
Cd72 O73 2.240 . S
Cd72 O80 2.223 . S
Cd72 O82 2.297 . S
Cd72 O83 2.439 . S
O73 Cd72 2.240 . S
O73 C78 1.279 . S
O74 Cd71 2.297 . S
O74 C76 1.247 . S
O75 Cd71 2.439 . S
O75 C76 1.208 . S
C76 O74 1.247 . S
C76 O75 1.208 . S
C77 O82 1.247 . S
C77 O83 1.208 . S
C78 O70 1.315 . S
C78 O73 1.279 . S
C79 O80 1.315 . S
C79 O81 1.279 . S
O80 Cd72 2.223 . S
O80 C79 1.315 . S
O81 Cd71 2.240 . S
O81 C79 1.279 . S
O82 Cd72 2.297 . S
O82 C77 1.247 . S
O83 Cd72 2.439 . S
O83 C77 1.208 . S
O84 Cd85 2.223 . S
O84 C92 1.315 . S
Cd85 O84 2.223 . S
Cd85 O88 2.297 . S
Cd85 O89 2.439 . S
Cd85 O95 2.240 . S
Cd86 O87 2.240 . S
Cd86 O94 2.223 . S
Cd86 O96 2.297 . S
Cd86 O97 2.439 . S
O87 Cd86 2.240 . S
O87 C92 1.279 . S
O88 Cd85 2.297 . S
O88 C90 1.247 . S
O89 Cd85 2.439 . S
O89 C90 1.208 . S
C90 O88 1.247 . S
C90 O89 1.208 . S
C91 O96 1.247 . S
C91 O97 1.208 . S
C92 O84 1.315 . S
C92 O87 1.279 . S
C93 O94 1.315 . S
C93 O95 1.279 . S
O94 Cd86 2.223 . S
O94 C93 1.315 . S
O95 Cd85 2.240 . S
O95 C93 1.279 . S
O96 Cd86 2.297 . S
O96 C91 1.247 . S
O97 Cd86 2.439 . S
O97 C91 1.208 . S
O98 Cd99 2.223 . S
O98 C106 1.315 . S
Cd99 O98 2.223 . S
Cd99 O102 2.297 . S
Cd99 O103 2.439 . S
Cd99 O109 2.240 . S
Cd100 O101 2.240 . S
Cd100 O108 2.223 . S
Cd100 O110 2.297 . S
Cd100 O111 2.439 . S
O101 Cd100 2.240 . S
O101 C106 1.279 . S
O102 Cd99 2.297 . S
O102 C104 1.247 . S
O103 Cd99 2.439 . S
O103 C104 1.208 . S
C104 O102 1.247 . S
C104 O103 1.208 . S
C105 O110 1.247 . S
C105 O111 1.208 . S
C106 O98 1.315 . S
C106 O101 1.279 . S
C107 O108 1.315 . S
C107 O109 1.279 . S
O108 Cd100 2.223 . S
O108 C107 1.315 . S
O109 Cd99 2.240 . S
O109 C107 1.279 . S
O110 Cd100 2.297 . S
O110 C105 1.247 . S
O111 Cd100 2.439 . S
O111 C105 1.208 . S
O112 Cd113 2.223 . S
O112 C120 1.315 . S
Cd113 O112 2.223 . S
Cd113 O116 2.297 . S
Cd113 O117 2.439 . S
Cd113 O123 2.240 . S
Cd114 O115 2.240 . S
Cd114 O122 2.223 . S
Cd114 O124 2.297 . S
Cd114 O125 2.439 . S
O115 Cd114 2.240 . S
O115 C120 1.279 . S
O116 Cd113 2.297 . S
O116 C118 1.247 . S
O117 Cd113 2.439 . S
O117 C118 1.208 . S
C118 O116 1.247 . S
C118 O117 1.208 . S
C119 O124 1.247 . S
C119 O125 1.208 . S
C120 O112 1.315 . S
C120 O115 1.279 . S
C121 O122 1.315 . S
C121 O123 1.279 . S
O122 Cd114 2.223 . S
O122 C121 1.315 . S
O123 Cd113 2.240 . S
O123 C121 1.279 . S
O124 Cd114 2.297 . S
O124 C119 1.247 . S
O125 Cd114 2.439 . S
O125 C119 1.208 . S
O126 Cd127 2.223 . S
O126 C134 1.315 . S
Cd127 O126 2.223 . S
Cd127 O130 2.297 . S
Cd127 O131 2.439 . S
Cd127 O137 2.240 . S
Cd128 O129 2.240 . S
Cd128 O136 2.223 . S
Cd128 O138 2.297 . S
Cd128 O139 2.439 . S
O129 Cd128 2.240 . S
O129 C134 1.279 . S
O130 Cd127 2.297 . S
O130 C132 1.247 . S
O131 Cd127 2.439 . S
O131 C132 1.208 . S
C132 O130 1.247 . S
C132 O131 1.208 . S
C133 O138 1.247 . S
C133 O139 1.208 . S
C134 O126 1.315 . S
C134 O129 1.279 . S
C135 O136 1.315 . S
C135 O137 1.279 . S
O136 Cd128 2.223 . S
O136 C135 1.315 . S
O137 Cd127 2.240 . S
O137 C135 1.279 . S
O138 Cd128 2.297 . S
O138 C133 1.247 . S
O139 Cd128 2.439 . S
O139 C133 1.208 . S
O140 Cd141 2.223 . S
O140 C148 1.315 . S
Cd141 O140 2.223 . S
Cd141 O144 2.297 . S
Cd141 O145 2.439 . S
Cd141 O151 2.240 . S
Cd142 O143 2.240 . S
Cd142 O150 2.223 . S
Cd142 O152 2.297 . S
Cd142 O153 2.439 . S
O143 Cd142 2.240 . S
O143 C148 1.279 . S
O144 Cd141 2.297 . S
O144 C146 1.247 . S
O145 Cd141 2.439 . S
O145 C146 1.208 . S
C146 O144 1.247 . S
C146 O145 1.208 . S
C147 O152 1.247 . S
C147 O153 1.208 . S
C148 O140 1.315 . S
C148 O143 1.279 . S
C149 O150 1.315 . S
C149 O151 1.279 . S
O150 Cd142 2.223 . S
O150 C149 1.315 . S
O151 Cd141 2.240 . S
O151 C149 1.279 . S
O152 Cd142 2.297 . S
O152 C147 1.247 . S
O153 Cd142 2.439 . S
O153 C147 1.208 . S
O154 Cd155 2.223 . S
O154 C162 1.315 . S
Cd155 O154 2.223 . S
Cd155 O158 2.297 . S
Cd155 O159 2.439 . S
Cd155 O165 2.240 . S
Cd156 O157 2.240 . S
Cd156 O164 2.223 . S
Cd156 O166 2.297 . S
Cd156 O167 2.439 . S
O157 Cd156 2.240 . S
O157 C162 1.279 . S
O158 Cd155 2.297 . S
O158 C160 1.247 . S
O159 Cd155 2.439 . S
O159 C160 1.208 . S
C160 O158 1.247 . S
C160 O159 1.208 . S
C161 O166 1.247 . S
C161 O167 1.208 . S
C162 O154 1.315 . S
C162 O157 1.279 . S
C163 O164 1.315 . S
C163 O165 1.279 . S
O164 Cd156 2.223 . S
O164 C163 1.315 . S
O165 Cd155 2.240 . S
O165 C163 1.279 . S
O166 Cd156 2.297 . S
O166 C161 1.247 . S
O167 Cd156 2.439 . S
O167 C161 1.208 . S
C168 C169 1.387 . S
C168 H172 0.950 . S
C168 C177 1.390 1_566 S
C169 C168 1.387 . S
C169 C171 1.387 . S
H170 C177 0.950 . S
C171 C169 1.387 . S
C171 C173 1.390 1_566 S
C171 H175 0.950 . S
H172 C168 0.950 . S
C173 C171 1.390 1_544 S
C173 C174 1.387 . S
C173 H176 0.950 . S
C174 C173 1.387 . S
C174 C177 1.387 . S
H175 C171 0.950 . S
H176 C173 0.950 . S
C177 C168 1.390 1_544 S
C177 H170 0.950 . S
C177 C174 1.387 . S
C178 C179 1.387 . S
C178 H182 0.950 . S
C178 C187 1.390 . S
C179 C178 1.387 . S
C179 C181 1.387 . S
H180 C187 0.950 . S
C181 C179 1.387 . S
C181 C183 1.390 . S
C181 H185 0.950 . S
H182 C178 0.950 . S
C183 C181 1.390 . S
C183 C184 1.387 . S
C183 H186 0.950 . S
C184 C183 1.387 . S
C184 C187 1.387 . S
H185 C181 0.950 . S
H186 C183 0.950 . S
C187 C178 1.390 . S
C187 H180 0.950 . S
C187 C184 1.387 . S
C188 C189 1.387 . S
C188 H192 0.950 . S
C188 C197 1.390 . S
C189 C188 1.387 . S
C189 C191 1.387 1_655 S
H190 C197 0.950 . S
C191 C189 1.387 1_455 S
C191 C193 1.390 . S
C191 H195 0.950 . S
H192 C188 0.950 . S
C193 C191 1.390 . S
C193 C194 1.387 . S
C193 H196 0.950 . S
C194 C193 1.387 . S
C194 C197 1.387 1_455 S
H195 C191 0.950 . S
H196 C193 0.950 . S
C197 C188 1.390 . S
C197 H190 0.950 . S
C197 C194 1.387 1_655 S
C198 C199 1.387 . S
C198 H202 0.950 . S
C198 C207 1.390 1_564 S
C199 C198 1.387 . S
C199 C201 1.387 . S
H200 C207 0.950 . S
C201 C199 1.387 . S
C201 C203 1.390 1_564 S
C201 H205 0.950 . S
H202 C198 0.950 . S
C203 C201 1.390 1_546 S
C203 C204 1.387 . S
C203 H206 0.950 . S
C204 C203 1.387 . S
C204 C207 1.387 . S
H205 C201 0.950 . S
H206 C203 0.950 . S
C207 C198 1.390 1_546 S
C207 H200 0.950 . S
C207 C204 1.387 . S
C208 C209 1.387 . S
C208 H212 0.950 . S
C208 C217 1.390 . S
C209 C208 1.387 . S
C209 C211 1.387 . S
H210 C217 0.950 . S
C211 C209 1.387 . S
C211 C213 1.390 . S
C211 H215 0.950 . S
H212 C208 0.950 . S
C213 C211 1.390 . S
C213 C214 1.387 . S
C213 H216 0.950 . S
C214 C213 1.387 . S
C214 C217 1.387 . S
H215 C211 0.950 . S
H216 C213 0.950 . S
C217 C208 1.390 . S
C217 H210 0.950 . S
C217 C214 1.387 . S
C218 C219 1.387 . S
C218 H222 0.950 . S
C218 C227 1.377 1_655 S
C219 C218 1.387 . S
C219 C221 1.396 . S
H220 C227 0.954 . S
C221 C219 1.396 . S
C221 C223 1.377 1_655 S
C221 H225 0.954 . S
H222 C218 0.950 . S
C223 C221 1.377 1_455 S
C223 C224 1.387 . S
C223 H226 0.950 . S
C224 C223 1.387 . S
C224 C227 1.396 . S
H225 C221 0.954 . S
H226 C223 0.950 . S
C227 C218 1.377 1_455 S
C227 H220 0.954 . S
C227 C224 1.396 . S
C228 C229 1.387 . S
C228 H232 0.950 . S
C228 C237 1.390 1_556 S
C229 C228 1.387 . S
C229 C231 1.387 . S
H230 C237 0.950 . S
C231 C229 1.387 . S
C231 C233 1.390 1_556 S
C231 H235 0.950 . S
H232 C228 0.950 . S
C233 C231 1.390 1_554 S
C233 C234 1.387 . S
C233 H236 0.950 . S
C234 C233 1.387 . S
C234 C237 1.387 . S
H235 C231 0.950 . S
H236 C233 0.950 . S
C237 C228 1.390 1_554 S
C237 H230 0.950 . S
C237 C234 1.387 . S
C238 C239 1.387 . S
C238 H242 0.950 . S
C238 C247 1.390 . S
C239 C238 1.387 . S
C239 C241 1.387 . S
H240 C247 0.950 . S
C241 C239 1.387 . S
C241 C243 1.390 . S
C241 H245 0.950 . S
H242 C238 0.950 . S
C243 C241 1.390 . S
C243 C244 1.387 . S
C243 H246 0.950 . S
C244 C243 1.387 . S
C244 C247 1.387 . S
H245 C241 0.950 . S
H246 C243 0.950 . S
C247 C238 1.390 . S
C247 H240 0.950 . S
C247 C244 1.387 . S
C248 C249 1.387 . S
C248 H252 0.950 . S
C248 C257 1.390 . S
C249 C248 1.387 . S
C249 C251 1.387 . S
H250 C257 0.950 . S
C251 C249 1.387 . S
C251 C253 1.390 . S
C251 H255 0.950 . S
H252 C248 0.950 . S
C253 C251 1.390 . S
C253 C254 1.387 . S
C253 H256 0.950 . S
C254 C253 1.387 . S
C254 C257 1.387 . S
H255 C251 0.950 . S
H256 C253 0.950 . S
C257 C248 1.390 . S
C257 H250 0.950 . S
C257 C254 1.387 . S
C258 C259 1.387 . S
C258 H262 0.950 . S
C258 C267 1.390 1_556 S
C259 C258 1.387 . S
C259 C261 1.387 . S
H260 C267 0.950 . S
C261 C259 1.387 . S
C261 C263 1.390 1_556 S
C261 H265 0.950 . S
H262 C258 0.950 . S
C263 C261 1.390 1_554 S
C263 C264 1.387 . S
C263 H266 0.950 . S
C264 C263 1.387 . S
C264 C267 1.387 . S
H265 C261 0.950 . S
H266 C263 0.950 . S
C267 C258 1.390 1_554 S
C267 H260 0.950 . S
C267 C264 1.387 . S
C268 C269 1.387 . S
C268 H272 0.950 . S
C268 C277 1.390 . S
C269 C268 1.387 . S
C269 C271 1.387 . S
H270 C277 0.950 . S
C271 C269 1.387 . S
C271 C273 1.390 . S
C271 H275 0.950 . S
H272 C268 0.950 . S
C273 C271 1.390 . S
C273 C274 1.387 . S
C273 H276 0.950 . S
C274 C273 1.387 . S
C274 C277 1.387 . S
H275 C271 0.950 . S
H276 C273 0.950 . S
C277 C268 1.390 . S
C277 H270 0.950 . S
C277 C274 1.387 . S
C278 C279 1.387 . S
C278 H282 0.950 . S
C278 C287 1.390 . S
C279 C278 1.387 . S
C279 C281 1.387 . S
H280 C287 0.950 . S
C281 C279 1.387 . S
C281 C283 1.390 . S
C281 H285 0.950 . S
H282 C278 0.950 . S
C283 C281 1.390 . S
C283 C284 1.387 . S
C283 H286 0.950 . S
C284 C283 1.387 . S
C284 C287 1.387 . S
H285 C281 0.950 . S
H286 C283 0.950 . S
C287 C278 1.390 . S
C287 H280 0.950 . S
C287 C284 1.387 . S
C288 C289 1.387 . S
C288 H292 0.950 . S
C288 C297 1.390 . S
C289 C288 1.387 . S
C289 C291 1.387 . S
H290 C297 0.950 . S
C291 C289 1.387 . S
C291 C293 1.390 . S
C291 H295 0.950 . S
H292 C288 0.950 . S
C293 C291 1.390 . S
C293 C294 1.387 . S
C293 H296 0.950 . S
C294 C293 1.387 . S
C294 C297 1.387 . S
H295 C291 0.950 . S
H296 C293 0.950 . S
C297 C288 1.390 . S
C297 H290 0.950 . S
C297 C294 1.387 . S
C298 C299 1.387 . S
C298 H302 0.950 . S
C298 C307 1.390 . S
C299 C298 1.387 . S
C299 C301 1.387 . S
H300 C307 0.950 . S
C301 C299 1.387 . S
C301 C303 1.390 . S
C301 H305 0.950 . S
H302 C298 0.950 . S
C303 C301 1.390 . S
C303 C304 1.387 . S
C303 H306 0.950 . S
C304 C303 1.387 . S
C304 C307 1.387 . S
H305 C301 0.950 . S
H306 C303 0.950 . S
C307 C298 1.390 . S
C307 H300 0.950 . S
C307 C304 1.387 . S
C308 C309 1.387 . S
C308 H312 0.950 . S
C308 C317 1.390 . S
C309 C308 1.387 . S
C309 C311 1.387 . S
H310 C317 0.950 . S
C311 C309 1.387 . S
C311 C313 1.390 . S
C311 H315 0.950 . S
H312 C308 0.950 . S
C313 C311 1.390 . S
C313 C314 1.387 . S
C313 H316 0.950 . S
C314 C313 1.387 . S
C314 C317 1.387 . S
H315 C311 0.950 . S
H316 C313 0.950 . S
C317 C308 1.390 . S
C317 H310 0.950 . S
C317 C314 1.387 . S
C318 C319 1.387 . S
C318 H322 0.950 . S
C318 C327 1.390 . S
C319 C318 1.387 . S
C319 C321 1.387 . S
H320 C327 0.950 . S
C321 C319 1.387 . S
C321 C323 1.390 . S
C321 H325 0.950 . S
H322 C318 0.950 . S
C323 C321 1.390 . S
C323 C324 1.387 . S
C323 H326 0.950 . S
C324 C323 1.387 . S
C324 C327 1.387 . S
H325 C321 0.950 . S
H326 C323 0.950 . S
C327 C318 1.390 . S
C327 H320 0.950 . S
C327 C324 1.387 . S
C328 C329 1.387 . S
C328 H332 0.950 . S
C328 C337 1.390 . S
C329 C328 1.387 . S
C329 C331 1.387 . S
H330 C337 0.950 . S
C331 C329 1.387 . S
C331 C333 1.390 . S
C331 H335 0.950 . S
H332 C328 0.950 . S
C333 C331 1.390 . S
C333 C334 1.387 . S
C333 H336 0.950 . S
C334 C333 1.387 . S
C334 C337 1.387 . S
H335 C331 0.950 . S
H336 C333 0.950 . S
C337 C328 1.390 . S
C337 H330 0.950 . S
C337 C334 1.387 . S
C338 C339 1.387 . S
C338 H342 0.950 . S
C338 C347 1.390 . S
C339 C338 1.387 . S
C339 C341 1.387 . S
H340 C347 0.950 . S
C341 C339 1.387 . S
C341 C343 1.390 . S
C341 H345 0.950 . S
H342 C338 0.950 . S
C343 C341 1.390 . S
C343 C344 1.387 . S
C343 H346 0.950 . S
C344 C343 1.387 . S
C344 C347 1.387 . S
H345 C341 0.950 . S
H346 C343 0.950 . S
C347 C338 1.390 . S
C347 H340 0.950 . S
C347 C344 1.387 . S
C348 C349 1.387 . S
C348 H352 0.950 . S
C348 C357 1.390 . S
C349 C348 1.387 . S
C349 C351 1.387 . S
H350 C357 0.950 . S
C351 C349 1.387 . S
C351 C353 1.390 . S
C351 H355 0.950 . S
H352 C348 0.950 . S
C353 C351 1.390 . S
C353 C354 1.387 . S
C353 H356 0.950 . S
C354 C353 1.387 . S
C354 C357 1.387 . S
H355 C351 0.950 . S
H356 C353 0.950 . S
C357 C348 1.390 . S
C357 H350 0.950 . S
C357 C354 1.387 . S
C358 C359 1.387 . S
C358 H362 0.950 . S
C358 C367 1.390 1_655 S
C359 C358 1.387 . S
C359 C361 1.387 . S
H360 C367 0.950 . S
C361 C359 1.387 . S
C361 C363 1.390 1_655 S
C361 H365 0.950 . S
H362 C358 0.950 . S
C363 C361 1.390 1_455 S
C363 C364 1.387 . S
C363 H366 0.950 . S
C364 C363 1.387 . S
C364 C367 1.387 . S
H365 C361 0.950 . S
H366 C363 0.950 . S
C367 C358 1.390 1_455 S
C367 H360 0.950 . S
C367 C364 1.387 . S
C368 C369 1.387 . S
C368 H372 0.950 . S
C368 C377 1.390 1_545 S
C369 C368 1.387 . S
C369 C371 1.387 . S
H370 C377 0.950 . S
C371 C369 1.387 . S
C371 C373 1.390 1_545 S
C371 H375 0.950 . S
H372 C368 0.950 . S
C373 C371 1.390 1_565 S
C373 C374 1.387 . S
C373 H376 0.950 . S
C374 C373 1.387 . S
C374 C377 1.387 . S
H375 C371 0.950 . S
H376 C373 0.950 . S
C377 C368 1.390 1_565 S
C377 H370 0.950 . S
C377 C374 1.387 . S
C378 C379 1.387 . S
C378 H382 0.950 . S
C378 C387 1.390 . S
C379 C378 1.387 . S
C379 C381 1.387 . S
H380 C387 0.950 . S
C381 C379 1.387 . S
C381 C383 1.390 . S
C381 H385 0.950 . S
H382 C378 0.950 . S
C383 C381 1.390 . S
C383 C384 1.387 . S
C383 H386 0.950 . S
C384 C383 1.387 . S
C384 C387 1.387 . S
H385 C381 0.950 . S
H386 C383 0.950 . S
C387 C378 1.390 . S
C387 H380 0.950 . S
C387 C384 1.387 . S
C388 C389 1.387 . S
C388 H392 0.950 . S
C388 C397 1.390 1_455 S
C389 C388 1.387 . S
C389 C391 1.387 . S
H390 C397 0.950 . S
C391 C389 1.387 . S
C391 C393 1.390 1_455 S
C391 H395 0.950 . S
H392 C388 0.950 . S
C393 C391 1.390 1_655 S
C393 C394 1.387 . S
C393 H396 0.950 . S
C394 C393 1.387 . S
C394 C397 1.387 . S
H395 C391 0.950 . S
H396 C393 0.950 . S
C397 C388 1.390 1_655 S
C397 H390 0.950 . S
C397 C394 1.387 . S
C398 C399 1.387 . S
C398 H402 0.950 . S
C398 C407 1.390 1_565 S
C399 C398 1.387 . S
C399 C401 1.387 . S
H400 C407 0.950 . S
C401 C399 1.387 . S
C401 C403 1.390 1_565 S
C401 H405 0.950 . S
H402 C398 0.950 . S
C403 C401 1.390 1_545 S
C403 C404 1.387 . S
C403 H406 0.950 . S
C404 C403 1.387 . S
C404 C407 1.387 . S
H405 C401 0.950 . S
H406 C403 0.950 . S
C407 C398 1.390 1_545 S
C407 H400 0.950 . S
C407 C404 1.387 . S
C169 C105 1.284 . S
C174 C7 1.284 . S
C179 C21 1.283 . S
C184 C119 1.283 . S
C189 C35 1.282 . S
C194 C133 1.282 . S
C199 C49 1.284 . S
C204 C147 1.284 . S
C209 C161 1.283 . S
C214 C63 1.283 . S
C219 C91 1.282 . S
C224 C77 1.281 . S
C229 C149 1.693 . S
C234 C9 1.693 . S
C239 C23 1.694 . S
C244 C163 1.692 . S
C249 C37 1.694 . S
C254 C93 1.692 . S
C259 C107 1.693 . S
C264 C51 1.693 . S
C269 C121 1.694 . S
C274 C65 1.692 . S
C279 C135 1.693 . S
C284 C79 1.692 . S
C289 C6 1.713 . S
C294 C118 1.711 . S
C299 C20 1.713 . S
C304 C132 1.713 . S
C309 C146 1.713 . S
C314 C34 1.712 . S
C319 C48 1.713 . S
C324 C160 1.711 . S
C329 C90 1.713 . S
C334 C62 1.713 . S
C339 C104 1.712 . S
C344 C76 1.711 . S
C349 C50 1.354 . S
C354 C8 1.354 . S
C359 C64 1.354 . S
C364 C22 1.354 . S
C369 C36 1.352 . S
C374 C78 1.352 . S
C379 C92 1.354 . S
C384 C134 1.354 . S
C389 C106 1.352 . S
C394 C148 1.352 . S
C399 C162 1.354 . S
C404 C120 1.354 . S
