# Generated by pormake.
# Topology wjd, (6)-cn, num edge types: 1
# Building blocks:
#     Node 0, Type 0, BuildingBlock: KUMBUR_clean_sbu_0, # of connection points: 6
#     Node 1, Type 0, BuildingBlock: KUMBUR_clean_sbu_0, # of connection points: 6
#     Node 2, Type 0, BuildingBlock: KUMBUR_clean_sbu_0, # of connection points: 6
#     Node 3, Type 0, BuildingBlock: KUMBUR_clean_sbu_0, # of connection points: 6
#     Node 4, Type 0, BuildingBlock: KUMBUR_clean_sbu_0, # of connection points: 6
#     Node 5, Type 0, BuildingBlock: KUMBUR_clean_sbu_0, # of connection points: 6
#     Node 6, Type 0, BuildingBlock: KUMBUR_clean_sbu_0, # of connection points: 6
#     Node 7, Type 0, BuildingBlock: KUMBUR_clean_sbu_0, # of connection points: 6
#     Node 8, Type 0, BuildingBlock: KUMBUR_clean_sbu_0, # of connection points: 6
#     Node 9, Type 0, BuildingBlock: KUMBUR_clean_sbu_0, # of connection points: 6
#     Node 10, Type 0, BuildingBlock: KUMBUR_clean_sbu_0, # of connection points: 6
#     Node 11, Type 0, BuildingBlock: KUMBUR_clean_sbu_0, # of connection points: 6
#     Edge 12, Type (0, 0), BuildingBlock: KIFKEQ_clean_linker_1, # of connection points: 2
#     Edge 13, Type (0, 0), BuildingBlock: KIFKEQ_clean_linker_1, # of connection points: 2
#     Edge 14, Type (0, 0), BuildingBlock: KIFKEQ_clean_linker_1, # of connection points: 2
#     Edge 15, Type (0, 0), BuildingBlock: KIFKEQ_clean_linker_1, # of connection points: 2
#     Edge 16, Type (0, 0), BuildingBlock: KIFKEQ_clean_linker_1, # of connection points: 2
#     Edge 17, Type (0, 0), BuildingBlock: KIFKEQ_clean_linker_1, # of connection points: 2
#     Edge 18, Type (0, 0), BuildingBlock: KIFKEQ_clean_linker_1, # of connection points: 2
#     Edge 19, Type (0, 0), BuildingBlock: KIFKEQ_clean_linker_1, # of connection points: 2
#     Edge 20, Type (0, 0), BuildingBlock: KIFKEQ_clean_linker_1, # of connection points: 2
#     Edge 21, Type (0, 0), BuildingBlock: KIFKEQ_clean_linker_1, # of connection points: 2
#     Edge 22, Type (0, 0), BuildingBlock: KIFKEQ_clean_linker_1, # of connection points: 2
#     Edge 23, Type (0, 0), BuildingBlock: KIFKEQ_clean_linker_1, # of connection points: 2
#     Edge 24, Type (0, 0), BuildingBlock: KIFKEQ_clean_linker_1, # of connection points: 2
#     Edge 25, Type (0, 0), BuildingBlock: KIFKEQ_clean_linker_1, # of connection points: 2
#     Edge 26, Type (0, 0), BuildingBlock: KIFKEQ_clean_linker_1, # of connection points: 2
#     Edge 27, Type (0, 0), BuildingBlock: KIFKEQ_clean_linker_1, # of connection points: 2
#     Edge 28, Type (0, 0), BuildingBlock: KIFKEQ_clean_linker_1, # of connection points: 2
#     Edge 29, Type (0, 0), BuildingBlock: KIFKEQ_clean_linker_1, # of connection points: 2
#     Edge 30, Type (0, 0), BuildingBlock: KIFKEQ_clean_linker_1, # of connection points: 2
#     Edge 31, Type (0, 0), BuildingBlock: KIFKEQ_clean_linker_1, # of connection points: 2
#     Edge 32, Type (0, 0), BuildingBlock: KIFKEQ_clean_linker_1, # of connection points: 2
#     Edge 33, Type (0, 0), BuildingBlock: KIFKEQ_clean_linker_1, # of connection points: 2
#     Edge 34, Type (0, 0), BuildingBlock: KIFKEQ_clean_linker_1, # of connection points: 2
#     Edge 35, Type (0, 0), BuildingBlock: KIFKEQ_clean_linker_1, # of connection points: 2
#     Edge 36, Type (0, 0), BuildingBlock: KIFKEQ_clean_linker_1, # of connection points: 2
#     Edge 37, Type (0, 0), BuildingBlock: KIFKEQ_clean_linker_1, # of connection points: 2
#     Edge 38, Type (0, 0), BuildingBlock: KIFKEQ_clean_linker_1, # of connection points: 2
#     Edge 39, Type (0, 0), BuildingBlock: KIFKEQ_clean_linker_1, # of connection points: 2
#     Edge 40, Type (0, 0), BuildingBlock: KIFKEQ_clean_linker_1, # of connection points: 2
#     Edge 41, Type (0, 0), BuildingBlock: KIFKEQ_clean_linker_1, # of connection points: 2
#     Edge 42, Type (0, 0), BuildingBlock: KIFKEQ_clean_linker_1, # of connection points: 2
#     Edge 43, Type (0, 0), BuildingBlock: KIFKEQ_clean_linker_1, # of connection points: 2
#     Edge 44, Type (0, 0), BuildingBlock: KIFKEQ_clean_linker_1, # of connection points: 2
#     Edge 45, Type (0, 0), BuildingBlock: KIFKEQ_clean_linker_1, # of connection points: 2
#     Edge 46, Type (0, 0), BuildingBlock: KIFKEQ_clean_linker_1, # of connection points: 2
#     Edge 47, Type (0, 0), BuildingBlock: KIFKEQ_clean_linker_1, # of connection points: 2
# Relax obj value: 0.097
# Max RMSD: 0.214
# Mean RMSD: 0.214
data_MOF--net-wjd--node1-KUMBUR_clean_sbu_0--edge1-KIFKEQ_clean_linker_1
_symmetry_space_group_name_H-M    P1
_symmetry_Int_Tables_number       1
_symmetry_cell_setting            triclinic
loop_
_symmetry_equiv_pos_as_xyz
'x, y, z'
_cell_length_a     38.539183
_cell_length_b     38.505951
_cell_length_c     55.620811
_cell_angle_alpha  90.002791
_cell_angle_beta   89.964299
_cell_angle_gamma 119.96689
loop_
_atom_site_label
_atom_site_type_symbol
_atom_site_fract_x
_atom_site_fract_y
_atom_site_fract_z
_atom_type_partial_charge
Tb0 Tb 0.38135 0.19816 0.10936 0.0
C1 C 0.37486 0.06484 0.17416 0.0
C2 C 0.41381 0.04088 0.15324 0.0
C3 C 0.41025 0.03821 0.19689 0.0
C4 C 0.38921 0.05836 0.153 0.0
C5 C 0.38483 0.05456 0.1964 0.0
C6 C 0.42469 0.03133 0.17533 0.0
C7 C 0.34239 0.07569 0.21582 0.0
N8 N 0.35057 0.08079 0.17286 0.0
C9 C 0.33313 0.08506 0.19328 0.0
C10 C 0.36867 0.06071 0.2174 0.0
Tb11 Tb 0.33982 0.09849 0.13534 0.0
N12 N 0.37821 0.06831 0.13212 0.0
C13 C 0.3888 0.05893 0.11062 0.0
C14 C 0.42625 0.03304 0.13131 0.0
C15 C 0.41328 0.04169 0.1099 0.0
H16 H 0.31316 0.09706 0.19238 0.0
H17 H 0.42228 0.03525 0.0928 0.0
H18 H 0.44381 1.01816 0.1759 0.0
H19 H 0.32941 0.0802 0.23195 0.0
H20 H 0.37953 0.06549 0.09378 0.0
H21 H 0.31612 0.27573 0.15547 0.0
H22 H 0.44528 1.01977 0.1307 0.0
H23 H 0.40558 0.20269 0.05194 0.0
H24 H 0.35321 0.23978 0.15235 0.0
H25 H 0.38676 0.21987 0.01319 0.0
H26 H 0.41846 0.0303 0.2138 0.0
H27 H 0.28759 0.28882 0.11918 0.0
H28 H 0.27865 0.2835 0.07429 0.0
H29 H 0.37593 0.05357 0.23484 0.0
H30 H 0.29718 0.26726 0.03523 0.0
N31 N 0.34448 0.22978 0.11447 0.0
C32 C 0.34059 0.24425 0.1362 0.0
C33 C 0.3033 0.27216 0.11763 0.0
C34 C 0.30892 0.25911 0.09528 0.0
C35 C 0.31958 0.26504 0.13813 0.0
C36 C 0.33028 0.2382 0.09429 0.0
H37 H 0.33829 0.24423 0.01222 0.0
N38 N 0.36624 0.21469 0.07265 0.0
C39 C 0.3735 0.2226 0.02972 0.0
C40 C 0.34126 0.22988 0.0725 0.0
C41 C 0.38412 0.21295 0.05173 0.0
C42 C 0.34597 0.23612 0.02924 0.0
C43 C 0.33039 0.24106 0.05086 0.0
O44 O 0.4374 0.24226 0.09534 0.0
O45 O 0.39253 0.15114 0.12145 0.0
O46 O 0.38337 0.14081 0.16063 0.0
O47 O 0.3811 0.19808 0.14971 0.0
O48 O 0.4221 0.18211 0.09159 0.0
O49 O 0.41914 0.24871 0.13048 0.0
O50 O 0.2806 0.05863 0.14691 0.0
O51 O 0.3292 0.14587 0.12305 0.0
O52 O 0.34085 0.15331 0.08213 0.0
O53 O 0.33923 0.09531 0.09607 0.0
O54 O 0.29921 0.1152 0.15309 0.0
O55 O 0.30537 0.04549 0.1158 0.0
C56 C 0.41828 0.15449 0.1061 0.0
C57 C 0.45998 0.30883 0.10911 0.0
C58 C 0.5099 0.3807 0.1125 0.0
C59 C 0.49875 0.33985 0.11581 0.0
C60 C 0.48197 0.38976 0.10236 0.0
C61 C 0.43354 0.3193 0.09846 0.0
C62 C 0.4443 0.35931 0.09525 0.0
C63 C 0.38811 0.17644 0.16567 0.0
C64 C 0.44629 0.2658 0.11389 0.0
C65 C 0.30624 0.25883 0.05165 0.0
C66 C 0.29569 0.26807 0.07387 0.0
C67 C 0.30363 0.14275 0.13839 0.0
C68 C 0.25039 0.99027 0.13496 0.0
C69 C 0.20822 0.97039 0.13318 0.0
C70 C 0.18514 0.92842 0.13582 0.0
C71 C 0.20478 0.90674 0.14065 0.0
C72 C 0.26928 0.96807 0.14016 0.0
C73 C 0.24648 0.92651 0.14304 0.0
C74 C 0.33215 0.11531 0.07933 0.0
C75 C 0.27395 0.03349 0.12949 0.0
H76 H 0.51982 0.33234 0.12378 0.0
H77 H 0.48971 0.42061 0.09937 0.0
H78 H 0.40445 0.29658 0.0926 0.0
H79 H 0.42333 0.36674 0.08711 0.0
H80 H 0.19348 0.98738 0.12904 0.0
H81 H 0.18777 0.87448 0.14284 0.0
H82 H 0.3016 0.98276 0.14161 0.0
H83 H 0.26123 0.90948 0.1469 0.0
Tb84 Tb 0.79863 0.71811 0.3787 0.0
C85 C 0.92029 0.70607 0.44297 0.0
C86 C 0.98388 0.73615 0.42215 0.0
C87 C 0.98237 0.73581 0.46582 0.0
C88 C 0.94166 0.71677 0.42178 0.0
C89 C 0.94031 0.71449 0.46527 0.0
C90 C 1.00414 0.7465 0.44428 0.0
C91 C 0.87604 0.67501 0.48453 0.0
N92 N 0.87979 0.68416 0.44162 0.0
C93 C 0.85767 0.66665 0.46196 0.0
C94 C 0.91752 0.69953 0.48624 0.0
Tb95 Tb 0.85239 0.67147 0.40372 0.0
N96 N 0.92099 0.70619 0.40079 0.0
C97 C 0.941 0.71244 0.37945 0.0
C98 C 1.00438 0.74348 0.40032 0.0
C99 C 0.98281 0.7314 0.37889 0.0
H100 H 0.8256 0.64732 0.46079 0.0
H101 H 0.99836 0.73663 0.3619 0.0
H102 H 0.03656 0.76183 0.44492 0.0
H103 H 0.85823 0.6622 0.50058 0.0
H104 H 0.92502 0.70319 0.36266 0.0
H105 H 0.64766 0.62906 0.41319 0.0
H106 H 0.03674 0.75781 0.39982 0.0
H107 H 0.83165 0.75653 0.32415 0.0
H108 H 0.72057 0.66927 0.41591 0.0
H109 H 0.80355 0.75341 0.28413 0.0
H110 H 0.99832 0.74289 0.48278 0.0
H111 H 0.61406 0.6176 0.37377 0.0
H112 H 0.61975 0.63147 0.32937 0.0
H113 H 0.93176 0.70543 0.50372 0.0
H114 H 0.66214 0.66591 0.2943 0.0
N115 N 0.72977 0.68044 0.37823 0.0
C116 C 0.70699 0.66505 0.39851 0.0
C117 C 0.64641 0.63541 0.37482 0.0
C118 C 0.66953 0.65283 0.35427 0.0
C119 C 0.66525 0.64191 0.39708 0.0
C120 C 0.71157 0.67555 0.35665 0.0
H121 H 0.7305 0.71239 0.2775 0.0
N122 N 0.77527 0.71675 0.34046 0.0
C123 C 0.78394 0.73663 0.29887 0.0
C124 C 0.73517 0.69465 0.33707 0.0
C125 C 0.79975 0.73836 0.32176 0.0
C126 C 0.74277 0.71325 0.29513 0.0
C127 C 0.71778 0.69192 0.31434 0.0
O128 O 0.82163 0.7799 0.37217 0.0
O129 O 0.85505 0.72537 0.39145 0.0
O130 O 0.84893 0.71283 0.43094 0.0
O131 O 0.79064 0.71005 0.41755 0.0
O132 O 0.85773 0.75987 0.36316 0.0
O133 O 0.77847 0.74945 0.40022 0.0
O134 O 0.83273 0.61233 0.41549 0.0
O135 O 0.79585 0.66235 0.3898 0.0
O136 O 0.79843 0.67857 0.35102 0.0
O137 O 0.85357 0.67285 0.36301 0.0
O138 O 0.79423 0.63052 0.41952 0.0
O139 O 0.87277 0.63642 0.38566 0.0
C140 C 0.87918 0.75222 0.37735 0.0
C141 C 0.78184 0.80825 0.38389 0.0
C142 C 0.78725 0.87455 0.38299 0.0
C143 C 0.80505 0.85045 0.38581 0.0
C144 C 0.74609 0.85586 0.37787 0.0
C145 C 0.74097 0.79045 0.37836 0.0
C146 C 0.7233 0.81422 0.37536 0.0
C147 C 0.81738 0.7178 0.43455 0.0
C148 C 0.80033 0.78341 0.38911 0.0
C149 C 0.67606 0.66857 0.31164 0.0
C150 C 0.65195 0.64896 0.33159 0.0
C151 C 0.77206 0.63543 0.40425 0.0
C152 C 0.87977 0.58987 0.41066 0.0
C153 C 0.88282 0.5582 0.39948 0.0
C154 C 0.90664 0.54341 0.40997 0.0
C155 C 0.92657 0.56055 0.43171 0.0
C156 C 0.90002 0.60549 0.43241 0.0
C157 C 0.92327 0.59118 0.44273 0.0
C158 C 0.82751 0.67081 0.34628 0.0
C159 C 0.855 0.60624 0.40038 0.0
H160 H 0.83666 0.8644 0.39009 0.0
H161 H 0.73164 0.8736 0.37548 0.0
H162 H 0.72263 0.7582 0.37668 0.0
H163 H 0.69169 0.80026 0.37123 0.0
H164 H 0.86703 0.54541 0.38282 0.0
H165 H 0.94421 0.54961 0.44066 0.0
H166 H 0.89743 0.62839 0.44183 0.0
H167 H 0.93848 0.60361 0.45959 0.0
Tb168 Tb 0.85837 0.19984 0.10907 0.0
C169 C 0.98165 0.31345 0.18268 0.0
C170 C 1.01064 0.37976 0.1655 0.0
C171 C 1.00311 0.37117 0.20885 0.0
C172 C 0.99279 0.33786 0.16281 0.0
C173 C 0.98682 0.32965 0.20599 0.0
C174 C 1.01517 0.39624 0.18861 0.0
C175 C 0.96157 0.26294 0.22185 0.0
N176 N 0.966 0.2736 0.17908 0.0
C177 C 0.95747 0.24841 0.19835 0.0
C178 C 0.97571 0.30366 0.22568 0.0
Tb179 Tb 0.95444 0.2516 0.13988 0.0
N180 N 0.98749 0.32059 0.14087 0.0
C181 C 1.00255 0.34425 0.12088 0.0
C182 C 1.02408 0.40381 0.14495 0.0
C183 C 1.0206 0.38598 0.12259 0.0
H184 H 0.94574 0.21673 0.19576 0.0
H185 H 1.03153 0.40434 0.10659 0.0
H186 H 1.02846 0.42831 0.19104 0.0
H187 H 0.95336 0.24265 0.23698 0.0
H188 H 1.00004 0.33148 0.10332 0.0
H189 H 0.77381 0.05066 0.14646 0.0
H190 H 0.03791 0.43611 0.14621 0.0
H191 H 0.8619 0.22932 0.05283 0.0
H192 H 0.81092 0.12403 0.14756 0.0
H193 H 0.8484 0.19959 0.01219 0.0
H194 H 1.00714 0.38423 0.2266 0.0
H195 H 0.76503 1.01491 0.10809 0.0
H196 H 0.77596 1.01839 0.06336 0.0
H197 H 0.97824 0.31479 0.24383 0.0
H198 H 0.7971 0.0593 0.0265 0.0
N199 N 0.82561 0.13095 0.11017 0.0
C200 C 0.80817 0.10936 0.13061 0.0
C201 C 0.78216 0.04735 0.10846 0.0
C202 C 0.7982 0.06944 0.08738 0.0
C203 C 0.78681 0.06744 0.13012 0.0
C204 C 0.81957 0.11167 0.08884 0.0
H205 H 0.82326 0.127 0.00719 0.0
N206 N 0.84639 0.17449 0.07067 0.0
C207 C 0.84352 0.18091 0.0278 0.0
C208 C 0.83078 0.13443 0.06826 0.0
C209 C 0.85104 0.19762 0.05086 0.0
C210 C 0.82957 0.13999 0.02504 0.0
C211 C 0.82196 0.11598 0.04545 0.0
O212 O 0.81633 0.21457 0.09485 0.0
O213 O 0.90496 0.25518 0.12421 0.0
O214 O 0.90944 0.2524 0.16303 0.0
O215 O 0.8533 0.19449 0.14941 0.0
O216 O 0.87658 0.25973 0.09468 0.0
O217 O 0.80558 0.18448 0.12857 0.0
O218 O 0.99171 0.22951 0.15227 0.0
O219 O 0.90789 0.19593 0.12411 0.0
O220 O 0.90661 0.20792 0.08303 0.0
O221 O 0.96217 0.26145 0.10103 0.0
O222 O 0.93361 0.19179 0.15518 0.0
O223 O 1.00853 0.26919 0.12187 0.0
C224 C 0.90377 0.2804 0.1102 0.0
C225 C 0.74822 0.16932 0.10534 0.0
C226 C 0.67614 0.14713 0.10706 0.0
C227 C 0.71653 0.17586 0.11249 0.0
C228 C 0.66819 0.11234 0.09442 0.0
C229 C 0.7389 0.13472 0.09217 0.0
C230 C 0.69933 0.10641 0.0869 0.0
C231 C 0.87327 0.22152 0.16654 0.0
C232 C 0.79065 0.19737 0.11222 0.0
C233 C 0.80373 0.07406 0.04385 0.0
C234 C 0.79169 0.05078 0.06482 0.0
C235 C 0.9081 0.17112 0.1389 0.0
C236 C 0.06101 0.26633 0.14229 0.0
C237 C 0.08052 0.24379 0.13957 0.0
C238 C 0.1221 0.26163 0.14338 0.0
C239 C 0.14377 0.30208 0.15032 0.0
C240 C 0.08312 0.3065 0.14957 0.0
C241 C 0.12431 0.32417 0.1536 0.0
C242 C 0.94479 0.23768 0.08238 0.0
C243 C 1.01842 0.24816 0.13562 0.0
H244 H 0.72315 0.20269 0.12241 0.0
H245 H 0.63772 0.09003 0.08984 0.0
H246 H 0.76219 0.12942 0.08592 0.0
H247 H 0.69277 0.07975 0.07684 0.0
H248 H 0.06361 0.21277 0.13382 0.0
H249 H 0.17577 0.31647 0.15338 0.0
H250 H 0.06869 0.3243 0.15172 0.0
H251 H 0.14131 0.35527 0.15906 0.0
Tb252 Tb 0.338 0.09118 0.37746 0.0
C253 C 0.34813 0.22345 0.44158 0.0
C254 C 0.31546 0.2543 0.42072 0.0
C255 C 0.31558 0.25306 0.46439 0.0
C256 C 0.33613 0.23268 0.42039 0.0
C257 C 0.33891 0.23438 0.46386 0.0
C258 C 0.30408 0.26325 0.44282 0.0
C259 C 0.38183 0.21361 0.483 0.0
N260 N 0.37241 0.20748 0.44016 0.0
C261 C 0.39097 0.20435 0.4604 0.0
C262 C 0.35523 0.22818 0.48479 0.0
Tb263 Tb 0.38481 0.19189 0.40242 0.0
N264 N 0.34846 0.22417 0.39947 0.0
C265 C 0.34309 0.23879 0.37822 0.0
C266 C 0.30852 0.26783 0.3989 0.0
C267 C 0.32271 0.26033 0.3776 0.0
H268 H 0.41166 0.19319 0.45914 0.0
H269 H 0.31808 0.27122 0.36065 0.0
H270 H 0.28763 0.27927 0.44344 0.0
H271 H 0.39558 0.20983 0.499 0.0
H272 H 0.354 0.23369 0.36154 0.0
H273 H 0.42388 0.02459 0.41005 0.0
H274 H 0.29324 0.28499 0.39836 0.0
H275 H 0.30073 0.08929 0.32281 0.0
H276 H 0.38424 0.05795 0.41369 0.0
H277 H 0.30503 0.06715 0.28223 0.0
H278 H 0.30784 0.26137 0.48133 0.0
H279 H 0.43636 1.00499 0.37004 0.0
H280 H 0.42397 1.00011 0.32548 0.0
H281 H 0.34876 0.23602 0.50227 0.0
H282 H 0.39107 1.01112 0.29072 0.0
N283 N 0.3747 0.05899 0.37602 0.0
C284 C 0.38911 0.04984 0.39605 0.0
C285 C 0.41887 1.01985 0.37151 0.0
C286 C 0.40234 0.02729 0.35116 0.0
C287 C 0.41181 0.03078 0.39409 0.0
C288 C 0.37996 0.0469 0.35411 0.0
H289 H 0.34604 0.03539 0.27455 0.0
N290 N 0.33954 0.07094 0.33868 0.0
C291 C 0.32111 0.06295 0.29685 0.0
C292 C 0.36146 0.05283 0.33473 0.0
C293 C 0.31868 0.07537 0.32011 0.0
C294 C 0.34442 0.04521 0.29254 0.0
C295 C 0.36481 0.03974 0.31161 0.0
O296 O 0.27625 0.05268 0.37102 0.0
O297 O 0.33062 0.14035 0.39049 0.0
O298 O 0.34498 0.147 0.43006 0.0
O299 O 0.34663 0.09096 0.41623 0.0
O300 O 0.29632 0.10863 0.36212 0.0
O301 O 0.30673 0.03952 0.39886 0.0
O302 O 0.44179 0.23578 0.41532 0.0
O303 O 0.39309 0.14373 0.38927 0.0
O304 O 0.3793 0.13102 0.35058 0.0
O305 O 0.38251 0.19101 0.36184 0.0
O306 O 0.42775 0.17612 0.41746 0.0
O307 O 0.42068 0.24316 0.38125 0.0
C308 C 0.30378 0.13761 0.37636 0.0
C309 C 0.2475 0.98452 0.3827 0.0
C310 C 0.18078 0.92445 0.38181 0.0
C311 C 0.2054 0.96627 0.38454 0.0
C312 C 0.19882 0.90128 0.37686 0.0
C313 C 0.26471 0.96081 0.37734 0.0
C314 C 0.2404 0.91942 0.37442 0.0
C315 C 0.33958 0.11025 0.43342 0.0
C316 C 0.27275 0.02776 0.38788 0.0
C317 C 0.38794 1.02121 0.30836 0.0
C318 C 0.40672 1.015 0.32813 0.0
C319 C 0.4209 0.14738 0.40302 0.0
C320 C 0.46299 0.30281 0.40283 0.0
C321 C 0.50059 0.33451 0.39481 0.0
C322 C 0.51165 0.37512 0.39928 0.0
C323 C 0.48482 0.38323 0.41178 0.0
C324 C 0.43791 0.31247 0.41594 0.0
C325 C 0.44848 0.35217 0.42018 0.0
C326 C 0.38615 0.16745 0.34549 0.0
C327 C 0.44908 0.25992 0.39718 0.0
H328 H 0.19191 0.98442 0.38872 0.0
H329 H 0.18064 0.86912 0.37459 0.0
H330 H 0.2969 0.97417 0.37573 0.0
H331 H 0.25388 0.90125 0.37044 0.0
H332 H 0.52082 0.32773 0.38505 0.0
H333 H 0.49253 0.41384 0.41569 0.0
H334 H 0.41008 0.28934 0.42304 0.0
H335 H 0.42846 0.35889 0.43021 0.0
Tb336 Tb 0.85817 0.67112 0.10914 0.0
C337 C 0.74097 0.6834 0.18003 0.0
C338 C 0.67504 0.64359 0.16283 0.0
C339 C 0.6829 0.64982 0.20624 0.0
C340 C 0.71689 0.66781 0.16019 0.0
C341 C 0.72441 0.67483 0.20335 0.0
C342 C 0.65821 0.63431 0.18599 0.0
C343 C 0.79086 0.71757 0.21908 0.0
N344 N 0.78083 0.70723 0.1764 0.0
C345 C 0.80576 0.72552 0.19556 0.0
C346 C 0.75006 0.69174 0.223 0.0
Tb347 Tb 0.80329 0.71454 0.13736 0.0
N348 N 0.73449 0.6771 0.13823 0.0
C349 C 0.71126 0.66506 0.11799 0.0
C350 C 0.6514 0.62983 0.14215 0.0
C351 C 0.6696 0.64102 0.11962 0.0
H352 H 0.83747 0.74499 0.19297 0.0
H353 H 0.6516 0.63092 0.10346 0.0
H354 H 0.62616 0.61551 0.18841 0.0
H355 H 0.81092 0.73109 0.23417 0.0
H356 H 0.72446 0.67276 0.1004 0.0
H357 H 1.00638 0.7359 0.14776 0.0
H358 H 0.61916 0.61107 0.14337 0.0
H359 H 0.8287 0.64847 0.05238 0.0
H360 H 0.93305 0.70164 0.14853 0.0
H361 H 0.85917 0.66505 0.01199 0.0
H362 H 0.66959 0.64271 0.22401 0.0
H363 H 0.04277 0.75916 0.10924 0.0
H364 H 0.0402 0.76516 0.06436 0.0
H365 H 0.73863 0.68525 0.2412 0.0
H366 H 0.99998 0.747 0.02729 0.0
N367 N 0.92693 0.70631 0.11068 0.0
C368 C 0.9481 0.71184 0.13148 0.0
C369 C 1.01038 0.74456 0.10943 0.0
C370 C 0.98873 0.73796 0.08813 0.0
C371 C 0.98994 0.73127 0.13118 0.0
C372 C 0.94654 0.71804 0.08936 0.0
H373 H 0.93238 0.70927 0.00756 0.0
N374 N 0.88375 0.68507 0.07075 0.0
C375 C 0.87778 0.67749 0.02776 0.0
C376 C 0.92409 0.70768 0.06863 0.0
C377 C 0.86064 0.66811 0.0507 0.0
C378 C 0.91908 0.70258 0.02533 0.0
C379 C 0.94293 0.71714 0.04592 0.0
O380 O 0.83894 0.61245 0.0967 0.0
O381 O 0.80155 0.6608 0.12367 0.0
O382 O 0.8039 0.67155 0.16241 0.0
O383 O 0.86189 0.6722 0.14958 0.0
O384 O 0.79968 0.62964 0.09363 0.0
O385 O 0.8786 0.63582 0.12673 0.0
O386 O 0.82352 0.77472 0.14727 0.0
O387 O 0.85976 0.72343 0.12367 0.0
O388 O 0.85358 0.71362 0.08352 0.0
O389 O 0.79524 0.70962 0.09826 0.0
O390 O 0.86243 0.7567 0.15267 0.0
O391 O 0.78427 0.74793 0.11696 0.0
C392 C 0.77765 0.63431 0.10912 0.0
C393 C 0.88602 0.59015 0.10131 0.0
C394 C 0.91177 0.54281 0.10122 0.0
C395 C 0.88785 0.55739 0.11179 0.0
C396 C 0.93305 0.56136 0.08003 0.0
C397 C 0.90776 0.60741 0.0802 0.0
C398 C 0.93109 0.59327 0.06974 0.0
C399 C 0.83479 0.66637 0.16646 0.0
C400 C 0.86104 0.60604 0.11175 0.0
C401 C 0.98493 0.73911 0.04456 0.0
C402 C 1.00782 0.74938 0.06565 0.0
C403 C 0.88393 0.75025 0.13777 0.0
C404 C 0.78516 0.80451 0.13484 0.0
C405 C 0.80788 0.84673 0.13294 0.0
C406 C 0.78935 0.87026 0.13515 0.0
C407 C 0.74798 0.85101 0.13968 0.0
C408 C 0.74404 0.7861 0.13976 0.0
C409 C 0.72565 0.80932 0.1422 0.0
C410 C 0.8218 0.71848 0.08087 0.0
C411 C 0.80438 0.78031 0.1298 0.0
H412 H 0.871 0.54358 0.12802 0.0
H413 H 0.95075 0.55063 0.07094 0.0
H414 H 0.90629 0.6315 0.07143 0.0
H415 H 0.94743 0.60685 0.05335 0.0
H416 H 0.83966 0.86116 0.12904 0.0
H417 H 0.73301 0.86834 0.14154 0.0
H418 H 0.72606 0.75379 0.14132 0.0
H419 H 0.69385 0.79491 0.14584 0.0
Tb420 Tb 0.96296 0.25679 0.37724 0.0
C421 C 0.83016 0.14105 0.44408 0.0
C422 C 0.79524 0.07632 0.42458 0.0
C423 C 0.79781 0.08026 0.4682 0.0
C424 C 0.81851 0.11849 0.42334 0.0
C425 C 0.81911 0.12231 0.46678 0.0
C426 C 0.7858 0.05729 0.44711 0.0
C427 C 0.84597 0.18786 0.48475 0.0
N428 N 0.84951 0.18154 0.44192 0.0
C429 C 0.85552 0.20499 0.46181 0.0
C430 C 0.82818 0.14636 0.48729 0.0
Tb431 Tb 0.8633 0.20671 0.40346 0.0
N432 N 0.82818 0.13799 0.40193 0.0
C433 C 0.81346 0.1169 0.38102 0.0
C434 C 0.7812 0.05465 0.40318 0.0
C435 C 0.79017 0.07507 0.38132 0.0
H436 H 0.86897 0.23709 0.46 0.0
H437 H 0.77914 0.05862 0.36466 0.0
H438 H 0.76838 0.02491 0.44842 0.0
H439 H 0.852 0.20666 0.50044 0.0
H440 H 0.81987 0.13206 0.36392 0.0
H441 H 0.03363 0.40948 0.41006 0.0
H442 H 0.76286 1.02228 0.40335 0.0
H443 H 0.96398 0.22094 0.32276 0.0
H444 H 0.9983 0.33647 0.41361 0.0
H445 H 0.9881 0.24722 0.28231 0.0
H446 H 0.78934 0.06527 0.48547 0.0
H447 H 0.05421 0.44156 0.37011 0.0
H448 H 0.05933 0.4339 0.32559 0.0
H449 H 0.82026 0.13312 0.50506 0.0
H450 H 0.04778 0.38972 0.29087 0.0
N451 N 0.99671 0.32577 0.3759 0.0
C452 C 1.00663 0.34937 0.39597 0.0
C453 C 0.03834 0.40917 0.37153 0.0
C454 C 1.03027 0.3851 0.35115 0.0
C455 C 1.02688 0.39118 0.39408 0.0
C456 C 1.00933 0.34306 0.35403 0.0
H457 H 1.02272 0.32024 0.27483 0.0
N458 N 0.98366 0.2784 0.33854 0.0
C459 C 0.99237 0.26763 0.29687 0.0
C460 C 1.00288 0.31848 0.33465 0.0
C461 C 0.97883 0.25287 0.32002 0.0
C462 C 1.01158 0.3088 0.29265 0.0
C463 C 1.01706 0.33483 0.31163 0.0
O464 O 1.00025 0.23223 0.3702 0.0
O465 O 0.91299 0.20146 0.39076 0.0
O466 O 0.90806 0.20928 0.43029 0.0
O467 O 0.96435 0.26616 0.41607 0.0
O468 O 0.94331 0.19686 0.36227 0.0
O469 O 1.01424 0.27515 0.3986 0.0
O470 O 0.82516 0.22819 0.41488 0.0
O471 O 0.91166 0.26186 0.38884 0.0
O472 O 0.92333 0.25816 0.35016 0.0
O473 O 0.86223 0.20407 0.3628 0.0
O474 O 0.88233 0.26635 0.41812 0.0
O475 O 0.80741 0.1861 0.38602 0.0
C476 C 0.91438 0.1764 0.37677 0.0
C477 C 0.0685 0.27033 0.38188 0.0
C478 C 0.12835 0.2633 0.38109 0.0
C479 C 0.08659 0.24632 0.38385 0.0
C480 C 0.15162 0.30443 0.37595 0.0
C481 C 0.09231 0.31117 0.37632 0.0
C482 C 0.13364 0.32802 0.37337 0.0
C483 C 0.94512 0.2401 0.4334 0.0
C484 C 1.02536 0.25276 0.38718 0.0
C485 C 0.03688 0.37658 0.30844 0.0
C486 C 0.0434 0.4017 0.32818 0.0
C487 C 0.91001 0.28702 0.4028 0.0
C488 C 0.75532 0.18144 0.41149 0.0
C489 C 0.72012 0.1769 0.40018 0.0
C490 C 0.68196 0.15411 0.4114 0.0
C491 C 0.68013 0.1367 0.43397 0.0
C492 C 0.75162 0.16372 0.43408 0.0
C493 C 0.71451 0.14148 0.4451 0.0
C494 C 0.88613 0.22954 0.3458 0.0
C495 C 0.79602 0.20513 0.40044 0.0
H496 H 0.06838 0.21475 0.38818 0.0
H497 H 0.18374 0.31821 0.37366 0.0
H498 H 0.07908 0.33013 0.37463 0.0
H499 H 0.15188 0.3596 0.36925 0.0
H500 H 0.72238 0.19074 0.38286 0.0
H501 H 0.65193 0.11994 0.44344 0.0
H502 H 0.7775 0.16755 0.44361 0.0
H503 H 0.71246 0.12822 0.46259 0.0
Tb504 Tb 0.10714 0.32682 0.63439 0.0
C505 C 0.24251 0.33253 0.57449 0.0
C506 C 0.2708 0.29967 0.59767 0.0
C507 C 0.2733 0.2989 0.55404 0.0
C508 C 0.24962 0.32075 0.59639 0.0
C509 C 0.25512 0.32267 0.55303 0.0
C510 C 0.28139 0.28763 0.57637 0.0
C511 C 0.23702 0.36593 0.53172 0.0
N512 N 0.22697 0.35725 0.57447 0.0
C513 C 0.22602 0.37565 0.55358 0.0
C514 C 0.25111 0.33884 0.53139 0.0
Tb515 Tb 0.20851 0.37093 0.61101 0.0
N516 N 0.23979 0.33392 0.61649 0.0
C517 C 0.25268 0.32901 0.63849 0.0
C518 C 0.2824 0.2931 0.62025 0.0
C519 C 0.27361 0.30817 0.64071 0.0
H520 H 0.21537 0.39681 0.55368 0.0
H521 H 0.28307 0.30389 0.65824 0.0
H522 H 0.29715 0.27093 0.57698 0.0
H523 H 0.23495 0.37959 0.51519 0.0
H524 H 0.24668 0.34062 0.65457 0.0
H525 H 0.04678 0.41192 0.59191 0.0
H526 H 0.2991 0.27748 0.62203 0.0
H527 H 0.09881 0.29373 0.69051 0.0
H528 H 0.07794 0.36999 0.59286 0.0
H529 H 0.07497 0.30358 0.72955 0.0
H530 H 0.28288 0.29067 0.53775 0.0
H531 H 1.02627 0.43037 0.62973 0.0
H532 H 1.01876 0.42351 0.67466 0.0
H533 H 0.2603 0.33189 0.51449 0.0
H534 H 1.02603 0.39366 0.71214 0.0
N535 N 0.07673 0.36502 0.63116 0.0
C536 C 0.06931 0.3774 0.60966 0.0
C537 C 0.04008 0.41183 0.63032 0.0
C538 C 0.04561 0.39727 0.65215 0.0
C539 C 0.05154 0.4014 0.60896 0.0
C540 C 0.06395 0.37343 0.6519 0.0
H541 H 0.04651 0.34849 0.73273 0.0
N542 N 0.08474 0.33322 0.67148 0.0
C543 C 0.07286 0.31879 0.71373 0.0
C544 C 0.06793 0.35676 0.67283 0.0
C545 C 0.08628 0.31322 0.69146 0.0
C546 C 0.05692 0.34424 0.71548 0.0
C547 C 0.05389 0.36329 0.69483 0.0
O548 O 0.06778 0.26622 0.64344 0.0
O549 O 0.15594 0.31771 0.62313 0.0
O550 O 0.16566 0.33065 0.58283 0.0
O551 O 0.10702 0.32899 0.59515 0.0
O552 O 0.12357 0.28605 0.65224 0.0
O553 O 0.05552 0.29387 0.61344 0.0
O554 O 0.25251 0.42779 0.59787 0.0
O555 O 0.16043 0.38085 0.62236 0.0
O556 O 0.14618 0.36838 0.66148 0.0
O557 O 0.20617 0.37065 0.65155 0.0
O558 O 0.19291 0.41188 0.59318 0.0
O559 O 0.2589 0.40772 0.63249 0.0
C560 C 0.15244 0.2918 0.6383 0.0
C561 C 0.99995 0.2378 0.63149 0.0
C562 C 0.93873 0.17237 0.63338 0.0
C563 C 0.98054 0.19562 0.63056 0.0
C564 C 0.91663 0.19179 0.6375 0.0
C565 C 0.97744 0.25661 0.63604 0.0
C566 C 0.93597 0.23361 0.63905 0.0
C567 C 0.12798 0.32214 0.57901 0.0
C568 C 0.04309 0.26128 0.62611 0.0
C569 C 0.03676 0.38803 0.6954 0.0
C570 C 1.03265 0.40503 0.67407 0.0
C571 C 0.16443 0.40715 0.60722 0.0
C572 C 0.31907 0.44989 0.61139 0.0
C573 C 0.34985 0.48924 0.61735 0.0
C574 C 0.39073 0.50078 0.61378 0.0
C575 C 0.40006 0.47274 0.6041 0.0
C576 C 0.32986 0.42334 0.60123 0.0
C577 C 0.36986 0.43451 0.59773 0.0
C578 C 0.18225 0.37498 0.66727 0.0
C579 C 0.27599 0.43577 0.61636 0.0
H580 H 0.99778 0.18095 0.62696 0.0
H581 H 0.88442 0.17454 0.63977 0.0
H582 H 0.99181 0.28899 0.63689 0.0
H583 H 0.91868 0.24825 0.64239 0.0
H584 H 0.34216 0.51043 0.62496 0.0
H585 H 0.43093 0.48077 0.60093 0.0
H586 H 0.30741 0.39381 0.59599 0.0
H587 H 0.37748 0.4134 0.58997 0.0
Tb588 Tb 0.21571 0.8515 0.9022 0.0
C589 C 0.33297 0.99007 0.83455 0.0
C590 C 0.39906 1.01459 0.8512 0.0
C591 C 0.39135 1.02149 0.80841 0.0
C592 C 0.35709 0.99544 0.854 0.0
C593 C 0.34972 1.00343 0.81153 0.0
C594 C 0.416 0.02702 0.82824 0.0
C595 C 0.28321 0.9815 0.79659 0.0
N596 N 0.29298 0.97244 0.83837 0.0
C597 C 0.26804 0.96875 0.81976 0.0
C598 C 0.32422 0.99879 0.79242 0.0
Tb599 Tb 0.27069 0.95206 0.87703 0.0
N600 N 0.3395 0.98336 0.87584 0.0
C601 C 0.36281 0.99212 0.89596 0.0
C602 C 0.42274 1.02151 0.87162 0.0
C603 C 0.40451 1.01063 0.89414 0.0
H604 H 0.23621 0.95526 0.82238 0.0
H605 H 0.42255 1.01643 0.91015 0.0
H606 H 0.44814 0.04157 0.8257 0.0
H607 H 0.26321 0.97795 0.78194 0.0
H608 H 0.34965 0.98399 0.91355 0.0
H609 H 0.06985 0.7727 0.86034 0.0
H610 H 0.45505 0.03598 0.87026 0.0
H611 H 0.24099 0.85055 0.95902 0.0
H612 H 0.14322 0.80982 0.86128 0.0
H613 H 0.20819 0.83441 0.99885 0.0
H614 H 0.40479 0.03176 0.79084 0.0
H615 H 1.03122 0.75943 0.89799 0.0
H616 H 1.03122 0.76555 0.94303 0.0
H617 H 0.33594 1.009 0.77453 0.0
H618 H 0.06918 0.7835 0.98097 0.0
N619 N 0.14716 0.81966 0.89918 0.0
C620 C 0.12721 0.80498 0.87794 0.0
C621 C 0.06363 0.77645 0.89855 0.0
C622 C 0.08404 0.79006 0.92037 0.0
C623 C 0.08534 0.78367 0.87728 0.0
C624 C 0.1263 0.81145 0.92007 0.0
H625 H 0.13528 0.80863 1.002 0.0
N626 N 0.18762 0.8364 0.93992 0.0
C627 C 0.19075 0.83059 0.98281 0.0
C628 C 0.14743 0.82065 0.94128 0.0
C629 C 0.20919 0.83957 0.96022 0.0
C630 C 0.14964 0.81625 0.98452 0.0
C631 C 0.12723 0.81001 0.96355 0.0
O632 O 0.22882 0.8077 0.91538 0.0
O633 O 0.27235 0.89904 0.88887 0.0
O634 O 0.27106 0.91183 0.84999 0.0
O635 O 0.21424 0.85211 0.8616 0.0
O636 O 0.27413 0.86683 0.91741 0.0
O637 O 0.19999 0.79983 0.88138 0.0
O638 O 0.24773 0.99086 0.87069 0.0
O639 O 0.21398 0.90337 0.88996 0.0
O640 O 0.22089 0.89678 0.9296 0.0
O641 O 0.27912 0.95214 0.91585 0.0
O642 O 0.21182 0.93547 0.86163 0.0
O643 O 0.29179 1.00396 0.89825 0.0
C644 C 0.29616 0.89509 0.90275 0.0
C645 C 0.18303 0.74052 0.90329 0.0
C646 C 0.16061 0.66836 0.90097 0.0
C647 C 0.1899 0.70895 0.89632 0.0
C648 C 0.12496 0.66011 0.91263 0.0
C649 C 0.14754 0.73079 0.91555 0.0
C650 C 0.11869 0.69108 0.92 0.0
C651 C 0.24123 0.87546 0.84509 0.0
C652 C 0.21183 0.78331 0.89739 0.0
C653 C 0.08527 0.79159 0.96404 0.0
C654 C 0.06366 0.78138 0.94245 0.0
C655 C 0.19009 0.9065 0.87585 0.0
C656 C 0.28784 0.05901 0.88188 0.0
C657 C 0.26408 0.07738 0.88336 0.0
C658 C 0.28135 0.11911 0.88031 0.0
C659 C 0.32253 0.14213 0.87541 0.0
C660 C 0.32877 0.0825 0.87654 0.0
C661 C 0.34592 0.12385 0.87331 0.0
C662 C 0.25244 0.93336 0.93295 0.0
C663 C 0.26964 1.01589 0.88735 0.0
H664 H 0.21745 0.71581 0.88719 0.0
H665 H 0.10223 0.62949 0.91662 0.0
H666 H 0.142 0.75386 0.92177 0.0
H667 H 0.09138 0.68429 0.92936 0.0
H668 H 0.23244 0.05942 0.88751 0.0
H669 H 0.3365 0.17427 0.87294 0.0
H670 H 0.34752 0.06899 0.8752 0.0
H671 H 0.37757 0.14187 0.86936 0.0
Tb672 Tb 0.72456 0.79187 0.63683 0.0
C673 C 0.72088 0.91931 0.57269 0.0
C674 C 0.75326 0.98158 0.59478 0.0
C675 C 0.75477 0.98268 0.55112 0.0
C676 C 0.73223 0.93928 0.59427 0.0
C677 C 0.73107 0.9407 0.55081 0.0
C678 C 0.76564 1.00313 0.5731 0.0
C679 C 0.68819 0.87833 0.5304 0.0
N680 N 0.69625 0.87909 0.57331 0.0
C681 C 0.67818 0.85871 0.55263 0.0
C682 C 0.71526 0.91945 0.52944 0.0
Tb683 Tb 0.6819 0.84867 0.61038 0.0
N684 N 0.71872 0.91727 0.61472 0.0
C685 C 0.72322 0.93622 0.63629 0.0
C686 C 0.75944 1.00088 0.61695 0.0
C687 C 0.74402 0.97807 0.63776 0.0
H688 H 0.65705 0.82692 0.5532 0.0
H689 H 0.74797 0.99271 0.65497 0.0
H690 H 0.78229 0.03561 0.57313 0.0
H691 H 0.67478 0.86177 0.51406 0.0
H692 H 0.71125 0.91955 0.65267 0.0
H693 H 0.64195 0.64466 0.59634 0.0
H694 H 0.77501 0.03329 0.61813 0.0
H695 H 0.75267 0.8194 0.69345 0.0
H696 H 0.68424 0.71778 0.59632 0.0
H697 H 0.73803 0.78776 0.73343 0.0
H698 H 0.76324 0.99966 0.5345 0.0
H699 H 0.62031 0.60753 0.63478 0.0
H700 H 0.62318 0.60905 0.67997 0.0
H701 H 0.72244 0.93474 0.51224 0.0
H702 H 0.64947 0.64797 0.71731 0.0
N703 N 0.68651 0.72323 0.63458 0.0
C704 C 0.6755 0.70248 0.61336 0.0
C705 C 0.6391 0.63987 0.63493 0.0
C706 C 0.65203 0.66096 0.65658 0.0
C707 C 0.6513 0.66072 0.61322 0.0
C708 C 0.67628 0.70305 0.65575 0.0
H709 H 0.69233 0.71467 0.73741 0.0
N710 N 0.71507 0.76492 0.67472 0.0
C711 C 0.72464 0.76964 0.71758 0.0
C712 C 0.69114 0.72468 0.67659 0.0
C713 C 0.73298 0.78744 0.69479 0.0
C714 C 0.69879 0.7284 0.71977 0.0
C715 C 0.68207 0.70526 0.6991 0.0
O716 O 0.78423 0.81237 0.64779 0.0
O717 O 0.73437 0.84918 0.6239 0.0
O718 O 0.72261 0.84431 0.58325 0.0
O719 O 0.72461 0.7883 0.59754 0.0
O720 O 0.76521 0.84988 0.65382 0.0
O721 O 0.75863 0.77257 0.61751 0.0
O722 O 0.62535 0.83545 0.59657 0.0
O723 O 0.67151 0.79111 0.62304 0.0
O724 O 0.68133 0.79089 0.66229 0.0
O725 O 0.68241 0.84966 0.65081 0.0
O726 O 0.64123 0.79125 0.59324 0.0
O727 O 0.64448 0.86254 0.63109 0.0
C728 C 0.76011 0.87228 0.63889 0.0
C729 C 0.81434 0.77384 0.63664 0.0
C730 C 0.87994 0.77819 0.63792 0.0
C731 C 0.85646 0.79652 0.63483 0.0
C732 C 0.8608 0.73705 0.64322 0.0
C733 C 0.79589 0.73294 0.64233 0.0
C734 C 0.81912 0.71474 0.64564 0.0
C735 C 0.73162 0.81518 0.58065 0.0
C736 C 0.79044 0.79293 0.63076 0.0
C737 C 0.657 0.66347 0.70019 0.0
C738 C 0.64202 0.64133 0.67894 0.0
C739 C 0.64563 0.7681 0.60799 0.0
C740 C 0.60274 0.88003 0.60913 0.0
C741 C 0.56357 0.87192 0.61517 0.0
C742 C 0.55205 0.90117 0.61105 0.0
C743 C 0.57994 0.93802 0.60075 0.0
C744 C 0.62916 0.91682 0.59832 0.0
C745 C 0.618 0.94559 0.5943 0.0
C746 C 0.67617 0.82159 0.66707 0.0
C747 C 0.61684 0.85124 0.61471 0.0
H748 H 0.87087 0.82811 0.63031 0.0
H749 H 0.8782 0.72227 0.64571 0.0
H750 H 0.76359 0.71503 0.64382 0.0
H751 H 0.80474 0.68311 0.64986 0.0
H752 H 0.54251 0.84345 0.62327 0.0
H753 H 0.57192 0.96079 0.59718 0.0
H754 H 0.65856 0.9235 0.59299 0.0
H755 H 0.63899 0.97391 0.58606 0.0
Tb756 Tb 0.21055 0.37367 0.90431 0.0
C757 C 0.07567 0.36138 0.83839 0.0
C758 C 0.0513 0.40115 0.85786 0.0
C759 C 0.0478 0.39428 0.81435 0.0
C760 C 0.0693 0.37706 0.85902 0.0
C761 C 0.06473 0.36941 0.81577 0.0
C762 C 0.04106 0.41012 0.83538 0.0
C763 C 0.08654 0.32641 0.79788 0.0
N764 N 0.0922 0.33768 0.84059 0.0
C765 C 0.09661 0.31912 0.82076 0.0
C766 C 0.0708 0.35192 0.79534 0.0
Tb767 Tb 0.1106 0.32982 0.8786 0.0
N768 N 0.0798 0.36778 0.88031 0.0
C769 C 0.07055 0.37972 0.90138 0.0
C770 C 0.0436 0.41499 0.87932 0.0
C771 C 0.05287 0.40382 0.90118 0.0
H772 H 0.10915 0.29969 0.82234 0.0
H773 H 0.04654 0.41389 0.91792 0.0
H774 H 1.02746 0.4288 0.83409 0.0
H775 H 0.09106 0.31245 0.78221 0.0
H776 H 0.07755 0.37181 0.91854 0.0
H777 H 0.2895 0.30787 0.86069 0.0
H778 H 1.02994 0.43368 0.87922 0.0
H779 H 0.21256 0.39879 0.96149 0.0
H780 H 0.25253 0.34415 0.86251 0.0
H781 H 0.22908 0.3812 1.00085 0.0
H782 H 0.03937 0.40101 0.79713 0.0
H783 H 0.30298 0.28143 0.8978 0.0
H784 H 0.29732 0.27426 0.9428 0.0
H785 H 0.06302 0.35751 0.77762 0.0
H786 H 0.27968 0.29332 0.9812 0.0
N787 N 0.2426 0.33708 0.90045 0.0
C788 C 0.25726 0.33244 0.87899 0.0
C789 C 0.28594 0.29681 0.89877 0.0
C790 C 0.27246 0.30302 0.92081 0.0
C791 C 0.27859 0.31189 0.8778 0.0
C792 C 0.251 0.32387 0.92105 0.0
H793 H 0.25481 0.33388 1.00307 0.0
N794 N 0.22626 0.3598 0.94164 0.0
C795 C 0.23266 0.36786 0.98459 0.0
C796 C 0.242 0.33528 0.94251 0.0
C797 C 0.22342 0.37781 0.96224 0.0
C798 C 0.24696 0.34099 0.98578 0.0
C799 C 0.25292 0.32524 0.96452 0.0
O800 O 0.25408 0.43041 0.91779 0.0
O801 O 0.16314 0.38369 0.89156 0.0
O802 O 0.15221 0.37234 0.85257 0.0
O803 O 0.21036 0.37207 0.8639 0.0
O804 O 0.1941 0.41484 0.92104 0.0
O805 O 0.26167 0.41072 0.88335 0.0
O806 O 0.07117 0.26988 0.86824 0.0
O807 O 0.15863 0.3207 0.89131 0.0
O808 O 0.16578 0.33339 0.93158 0.0
O809 O 0.1078 0.33183 0.91784 0.0
O810 O 0.12771 0.28864 0.86196 0.0
O811 O 0.05829 0.29573 0.89893 0.0
C812 C 0.16632 0.41003 0.9064 0.0
C813 C 0.32111 0.4525 0.90514 0.0
C814 C 0.39319 0.50208 0.9023 0.0
C815 C 0.35255 0.49092 0.89806 0.0
C816 C 0.4016 0.47456 0.91369 0.0
C817 C 0.33101 0.42661 0.9171 0.0
C818 C 0.37076 0.43735 0.92117 0.0
C819 C 0.1881 0.37768 0.84766 0.0
C820 C 0.27824 0.43858 0.89961 0.0
C821 C 0.27138 0.30169 0.96448 0.0
C822 C 0.2814 0.29082 0.94262 0.0
C823 C 0.15574 0.29445 0.87661 0.0
C824 C 1.00304 0.24005 0.88023 0.0
C825 C 0.98335 0.19784 0.88189 0.0
C826 C 0.94149 0.17456 0.87894 0.0
C827 C 0.91974 0.19409 0.87394 0.0
C828 C 0.98078 0.25881 0.87486 0.0
C829 C 0.93934 0.23584 0.8717 0.0
C830 C 0.12818 0.32557 0.93468 0.0
C831 C 0.04623 0.26378 0.88568 0.0
H832 H 0.34554 0.51167 0.88913 0.0
H833 H 0.43225 0.48232 0.9174 0.0
H834 H 0.30803 0.39796 0.92336 0.0
H835 H 0.3777 0.41673 0.9303 0.0
H836 H 1.00042 0.18321 0.88612 0.0
H837 H 0.88758 0.17695 0.8715 0.0
H838 H 0.99534 0.29115 0.87345 0.0
H839 H 0.92227 0.25048 0.86769 0.0
Tb840 Tb 0.26052 0.94302 0.63573 0.0
C841 C 0.13279 0.81285 0.57148 0.0
C842 C 0.07079 0.78291 0.59382 0.0
C843 C 0.06929 0.78403 0.55018 0.0
C844 C 0.11305 0.80399 0.59314 0.0
C845 C 0.11122 0.802 0.54968 0.0
C846 C 0.04906 0.77426 0.57225 0.0
C847 C 0.17322 0.82098 0.52896 0.0
N848 N 0.17294 0.82813 0.57191 0.0
C849 C 0.19302 0.83027 0.55112 0.0
C850 C 0.1322 0.80739 0.52819 0.0
Tb851 Tb 0.20375 0.84394 0.60886 0.0
N852 N 0.13523 0.81208 0.61347 0.0
C853 C 0.11647 0.79722 0.63505 0.0
C854 C 0.0517 0.76941 0.61602 0.0
C855 C 0.07467 0.77627 0.63668 0.0
H856 H 0.22473 0.84057 0.55155 0.0
H857 H 0.0602 0.76527 0.6539 0.0
H858 H 1.01662 0.75868 0.57243 0.0
H859 H 0.18957 0.82404 0.51253 0.0
H860 H 0.13326 0.80154 0.65132 0.0
H861 H 0.40692 1.00863 0.59397 0.0
H862 H 1.01934 0.75264 0.61732 0.0
H863 H 0.23425 0.94271 0.69274 0.0
H864 H 0.33395 0.978 0.59456 0.0
H865 H 0.2666 0.95805 0.73253 0.0
H866 H 0.05217 0.77583 0.53363 0.0
H867 H 0.44472 0.02293 0.63205 0.0
H868 H 0.44403 0.02284 0.67727 0.0
H869 H 0.11677 0.79954 0.51106 0.0
H870 H 0.40585 1.00907 0.715 0.0
N871 N 0.32913 0.97387 0.63286 0.0
C872 C 0.34947 0.98408 0.61148 0.0
C873 C 0.41242 1.00953 0.63249 0.0
C874 C 0.39176 1.00082 0.65433 0.0
C875 C 0.3912 1.00154 0.61098 0.0
C876 C 0.3497 0.98321 0.65386 0.0
H877 H 0.33964 0.98457 0.73574 0.0
N878 N 0.28828 0.9598 0.67344 0.0
C879 C 0.28439 0.96327 0.71645 0.0
C880 C 0.3285 0.97587 0.67493 0.0
C881 C 0.26619 0.95477 0.6938 0.0
C882 C 0.32558 0.97822 0.71822 0.0
C883 C 0.3483 0.98533 0.69729 0.0
O884 O 0.24009 0.98188 0.64762 0.0
O885 O 0.20305 0.89573 0.62277 0.0
O886 O 0.2085 0.88923 0.58181 0.0
O887 O 0.26386 0.94733 0.5965 0.0
O888 O 0.20278 0.92514 0.65322 0.0
O889 O 0.27893 0.99661 0.61682 0.0
O890 O 0.21677 0.80062 0.5947 0.0
O891 O 0.26128 0.891 0.62144 0.0
O892 O 0.26196 0.90032 0.66063 0.0
O893 O 0.20299 0.84298 0.64925 0.0
O894 O 0.26112 0.86069 0.59158 0.0
O895 O 0.19035 0.79265 0.62945 0.0
C896 C 0.18018 0.89808 0.63813 0.0
C897 C 0.27779 0.05066 0.63665 0.0
C898 C 0.27334 0.11191 0.63821 0.0
C899 C 0.25511 0.07015 0.6349 0.0
C900 C 0.31438 0.13379 0.64369 0.0
C901 C 0.31857 0.07298 0.64249 0.0
C902 C 0.33667 0.11436 0.64604 0.0
C903 C 0.23748 0.92743 0.57943 0.0
C904 C 0.25881 1.00774 0.63057 0.0
C905 C 0.39005 1.00179 0.698 0.0
C906 C 0.41177 1.0096 0.67652 0.0
C907 C 0.28428 0.88822 0.60631 0.0
C908 C 0.17237 0.73351 0.60732 0.0
C909 C 0.17983 0.70224 0.61397 0.0
C910 C 0.15047 0.66155 0.60984 0.0
C911 C 0.11414 0.65291 0.59894 0.0
C912 C 0.13614 0.72348 0.59593 0.0
C913 C 0.10723 0.68363 0.59191 0.0
C914 C 0.23131 0.86447 0.66539 0.0
C915 C 0.20131 0.77631 0.61286 0.0
H916 H 0.22361 0.05304 0.63025 0.0
H917 H 0.32911 0.16593 0.64636 0.0
H918 H 0.33647 0.05855 0.64393 0.0
H919 H 0.36823 0.13152 0.65039 0.0
H920 H 0.20789 0.70942 0.62252 0.0
H921 H 0.09132 0.62219 0.59531 0.0
H922 H 0.13003 0.74642 0.59012 0.0
H923 H 0.07934 0.67654 0.5832 0.0
Tb924 Tb 0.68514 0.84635 0.90405 0.0
C925 C 0.70388 0.72495 0.84001 0.0
C926 C 0.66448 0.66135 0.86012 0.0
C927 C 0.67398 0.66318 0.81683 0.0
C928 C 0.68748 0.70356 0.86076 0.0
C929 C 0.69788 0.70512 0.81779 0.0
C930 C 0.65727 0.64131 0.83798 0.0
C931 C 0.74109 0.76944 0.79943 0.0
N932 N 0.7266 0.76534 0.84174 0.0
C933 C 0.74617 0.78769 0.82191 0.0
C934 C 0.71656 0.72798 0.79732 0.0
Tb935 Tb 0.73218 0.79286 0.87914 0.0
N936 N 0.69537 0.72411 0.88173 0.0
C937 C 0.68327 0.70368 0.90304 0.0
C938 C 0.65019 0.64055 0.88177 0.0
C939 C 0.66006 0.66182 0.90334 0.0
H940 H 0.76498 0.81978 0.82315 0.0
H941 H 0.64976 0.64601 0.92026 0.0
H942 H 0.63944 0.60892 0.83709 0.0
H943 H 0.75599 0.78738 0.78374 0.0
H944 H 0.69031 0.71924 0.91999 0.0
H945 H 0.74821 0.98942 0.85858 0.0
H946 H 0.63229 0.60814 0.88206 0.0
H947 H 0.66114 0.82396 0.96144 0.0
H948 H 0.71463 0.91618 0.86122 0.0
H949 H 0.67668 0.85929 1.00039 0.0
H950 H 0.66876 0.64737 0.79992 0.0
H951 H 0.77119 0.03057 0.89545 0.0
H952 H 0.77651 0.0336 0.94052 0.0
H953 H 0.71276 0.71389 0.77992 0.0
H954 H 0.75831 0.99803 0.97931 0.0
N955 N 0.71931 0.91483 0.89941 0.0
C956 C 0.72459 0.93332 0.87759 0.0
C957 C 0.75674 0.99823 0.89678 0.0
C958 C 0.75013 0.97929 0.91912 0.0
C959 C 0.74366 0.9751 0.87594 0.0
C960 C 0.73072 0.93705 0.91983 0.0
H961 H 0.72065 0.93294 1.00185 0.0
N962 N 0.69855 0.87663 0.94115 0.0
C963 C 0.68959 0.87595 0.98399 0.0
C964 C 0.72059 0.91721 0.94151 0.0
C965 C 0.68095 0.85602 0.96189 0.0
C966 C 0.71452 0.91749 0.98475 0.0
C967 C 0.72941 0.9388 0.96328 0.0
O968 O 0.62621 0.82627 0.91636 0.0
O969 O 0.67683 0.78943 0.89133 0.0
O970 O 0.69009 0.78972 0.85229 0.0
O971 O 0.68426 0.8451 0.86342 0.0
O972 O 0.64664 0.78888 0.92151 0.0
O973 O 0.6487 0.86466 0.88574 0.0
O974 O 0.79299 0.81584 0.8698 0.0
O975 O 0.73906 0.84951 0.89108 0.0
O976 O 0.72726 0.84537 0.93151 0.0
O977 O 0.73057 0.78962 0.9184 0.0
O978 O 0.77133 0.85105 0.86179 0.0
O979 O 0.76642 0.77495 0.89947 0.0
C980 C 0.65146 0.76614 0.90662 0.0
C981 C 0.60263 0.8723 0.9107 0.0
C982 C 0.5555 0.89823 0.90945 0.0
C983 C 0.57022 0.87393 0.89958 0.0
C984 C 0.57346 0.9201 0.93053 0.0
C985 C 0.61909 0.89446 0.93178 0.0
C986 C 0.60484 0.91818 0.94151 0.0
C987 C 0.68153 0.81813 0.84718 0.0
C988 C 0.61913 0.84736 0.90088 0.0
C989 C 0.75088 0.98089 0.96278 0.0
C990 C 0.76114 1.00113 0.94071 0.0
C991 C 0.76448 0.87305 0.87608 0.0
C992 C 0.82344 0.77779 0.88113 0.0
C993 C 0.86554 0.80101 0.88296 0.0
C994 C 0.88956 0.78326 0.87986 0.0
C995 C 0.87098 0.74215 0.87455 0.0
C996 C 0.8056 0.73694 0.87541 0.0
C997 C 0.82935 0.71931 0.87212 0.0
C998 C 0.73695 0.81687 0.93485 0.0
C999 C 0.79883 0.79622 0.88686 0.0
H1000 H 0.55679 0.8567 0.88342 0.0
H1001 H 0.56258 0.93818 0.939 0.0
H1002 H 0.64268 0.89313 0.94113 0.0
H1003 H 0.61794 0.93487 0.95787 0.0
H1004 H 0.8795 0.83258 0.88744 0.0
H1005 H 0.88877 0.72779 0.87202 0.0
H1006 H 0.77335 0.7186 0.87387 0.0
H1007 H 0.81541 0.68772 0.86787 0.0
H1008 H 0.17884 0.27404 0.10988 0.0
H1009 H 0.11369 0.19795 0.16961 0.0
H1010 H 0.21827 0.24034 0.10655 0.0
H1011 H 0.15407 0.16503 0.16695 0.0
H1012 H 0.27305 0.16288 0.17592 0.0
H1013 H 0.22476 0.18637 0.17553 0.0
H1014 H 0.21803 0.17638 0.09812 0.0
H1015 H 0.26662 0.15263 0.09871 0.0
C1016 C 0.17288 0.24988 0.1222 0.0
C1017 C 0.14335 0.23864 0.14005 0.0
C1018 C 0.19546 0.23056 0.12032 0.0
C1019 C 0.18996 0.20042 0.13676 0.0
C1020 C 0.15955 0.1885 0.15421 0.0
C1021 C 0.13626 0.20714 0.15568 0.0
C1022 C 0.26125 0.16577 0.15883 0.0
C1023 C 0.27478 0.15756 0.13728 0.0
C1024 C 0.23327 0.17886 0.15859 0.0
C1025 C 0.21757 0.18356 0.13678 0.0
C1026 C 0.22989 0.17366 0.11522 0.0
C1027 C 0.25789 0.16034 0.1155 0.0
H1028 H 0.13212 0.86433 0.41255 0.0
H1029 H 0.12917 0.93906 0.35582 0.0
H1030 H 0.05886 0.82704 0.4137 0.0
H1031 H 0.05572 0.90091 0.35631 0.0
H1032 H 0.93296 0.78603 0.34152 0.0
H1033 H 1.00506 0.83203 0.34437 0.0
H1034 H 0.99608 0.82922 0.42182 0.0
H1035 H 0.92344 0.78315 0.41876 0.0
C1036 C 0.11569 0.87287 0.40041 0.0
C1037 C 0.13633 0.90447 0.38402 0.0
C1038 C 0.07368 0.85151 0.40105 0.0
C1039 C 0.05121 0.86038 0.38479 0.0
C1040 C 0.072 0.89284 0.36886 0.0
C1041 C 0.11405 0.91488 0.36866 0.0
C1042 C 0.94645 0.79528 0.35915 0.0
C1043 C 0.92294 0.77975 0.37993 0.0
C1044 C 0.98773 0.82193 0.3608 0.0
C1045 C 1.00661 0.83425 0.38333 0.0
C1046 C 0.98269 0.81996 0.40418 0.0
C1047 C 0.94117 0.79338 0.40248 0.0
H1048 H 0.90171 0.12793 0.09777 0.0
H1049 H 0.88328 0.11648 0.17444 0.0
H1050 H 0.87761 0.05553 0.09494 0.0
H1051 H 0.85988 0.04485 0.17183 0.0
H1052 H 0.85184 0.9239 0.16284 0.0
H1053 H 0.88424 0.99729 0.16217 0.0
H1054 H 0.81185 0.99038 0.1012 0.0
H1055 H 0.77855 0.91705 0.10252 0.0
C1056 C 0.89211 0.10984 0.11394 0.0
C1057 C 0.89279 0.12745 0.1362 0.0
C1058 C 0.87863 0.0685 0.11239 0.0
C1059 C 0.86665 0.04423 0.13317 0.0
C1060 C 0.86903 0.06249 0.15548 0.0
C1061 C 0.88211 0.1035 0.15697 0.0
C1062 C 0.84321 0.93818 0.14917 0.0
C1063 C 0.81255 0.91479 0.13283 0.0
C1064 C 0.86156 0.98017 0.14885 0.0
C1065 C 0.85028 0.99985 0.13184 0.0
C1066 C 0.8211 0.97638 0.11465 0.0
C1067 C 0.80203 0.93436 0.11538 0.0
H1068 H 0.27064 0.15858 0.34071 0.0
H1069 H 0.27067 0.14801 0.41782 0.0
H1070 H 0.22338 0.18318 0.34368 0.0
H1071 H 0.22323 0.17301 0.42101 0.0
H1072 H 0.11507 0.19807 0.35449 0.0
H1073 H 0.15371 0.16319 0.35497 0.0
H1074 H 0.22475 0.23812 0.41377 0.0
H1075 H 0.18701 0.27371 0.41264 0.0
C1076 C 0.2605 0.16165 0.35834 0.0
C1077 C 0.27564 0.15311 0.37908 0.0
C1078 C 0.23311 0.17538 0.36006 0.0
C1079 C 0.21959 0.1804 0.3826 0.0
C1080 C 0.23341 0.17007 0.40338 0.0
C1081 C 0.26078 0.15606 0.40161 0.0
C1082 C 0.13869 0.20671 0.36765 0.0
C1083 C 0.14822 0.23874 0.38341 0.0
C1084 C 0.16101 0.18695 0.36786 0.0
C1085 C 0.19286 0.19822 0.38417 0.0
C1086 C 0.20076 0.22879 0.40084 0.0
C1087 C 0.17913 0.24921 0.40022 0.0
H1088 H 0.13143 0.93841 0.16274 0.0
H1089 H 0.13866 0.86941 0.10393 0.0
H1090 H 0.0581 0.898 0.16176 0.0
H1091 H 0.06543 0.82996 0.10226 0.0
H1092 H 0.92891 0.78405 0.09693 0.0
H1093 H 1.00151 0.83095 0.09466 0.0
H1094 H 1.00909 0.82736 0.172 0.0
H1095 H 0.93708 0.78056 0.17406 0.0
C1096 C 0.11724 0.91497 0.14938 0.0
C1097 C 0.14068 0.90683 0.13354 0.0
C1098 C 0.07529 0.89166 0.14887 0.0
C1099 C 0.05574 0.86019 0.13217 0.0
C1100 C 0.07932 0.85356 0.11551 0.0
C1101 C 0.12128 0.87617 0.11644 0.0
C1102 C 0.94636 0.79296 0.11333 0.0
C1103 C 0.92777 0.77743 0.13559 0.0
C1104 C 0.98783 0.82002 0.11209 0.0
C1105 C 1.01129 0.83289 0.13316 0.0
C1106 C 0.99209 0.81839 0.15543 0.0
C1107 C 0.95088 0.79127 0.15661 0.0
H1108 H 0.85405 0.92694 0.35766 0.0
H1109 H 0.77353 0.92279 0.41288 0.0
H1110 H 0.88801 1.00042 0.35781 0.0
H1111 H 0.80816 0.99617 0.41365 0.0
H1112 H 0.89307 0.12168 0.34147 0.0
H1113 H 0.86711 0.0496 0.34486 0.0
H1114 H 0.87412 0.06003 0.42221 0.0
H1115 H 0.90094 0.13279 0.41863 0.0
C1116 C 0.84409 0.94179 0.37012 0.0
C1117 C 0.811 0.91913 0.38515 0.0
C1118 C 0.86334 0.98386 0.37013 0.0
C1119 C 0.85051 1.00431 0.38553 0.0
C1120 C 0.81872 0.98155 0.40146 0.0
C1121 C 0.79885 0.93949 0.40102 0.0
C1122 C 0.88901 0.10854 0.3592 0.0
C1123 C 0.89748 0.13255 0.3798 0.0
C1124 C 0.87444 0.06727 0.36115 0.0
C1125 C 0.8683 0.04884 0.3838 0.0
C1126 C 0.87803 0.07314 0.40449 0.0
C1127 C 0.89306 0.1147 0.40249 0.0
H1128 H 0.28606 0.17127 0.60661 0.0
H1129 H 0.20852 0.10053 0.66449 0.0
H1130 H 0.25142 0.20985 0.60456 0.0
H1131 H 0.1746 0.14008 0.66313 0.0
H1132 H 0.16343 0.25716 0.59784 0.0
H1133 H 0.18744 0.20885 0.59608 0.0
H1134 H 0.19394 0.20976 0.67361 0.0
H1135 H 0.17017 0.25785 0.67517 0.0
C1136 C 0.26144 0.16395 0.61883 0.0
C1137 C 0.25007 0.13308 0.63579 0.0
C1138 C 0.24154 0.18603 0.61767 0.0
C1139 C 0.21062 0.17865 0.63395 0.0
C1140 C 0.19863 0.14698 0.65053 0.0
C1141 C 0.21786 0.12418 0.65126 0.0
C1142 C 0.17034 0.24715 0.61442 0.0
C1143 C 0.16662 0.26246 0.6366 0.0
C1144 C 0.18383 0.21933 0.61346 0.0
C1145 C 0.19299 0.20558 0.63471 0.0
C1146 C 0.18707 0.21944 0.6569 0.0
C1147 C 0.17379 0.24728 0.65781 0.0
H1148 H 0.14641 0.89655 0.91711 0.0
H1149 H 0.13641 0.88543 0.84 0.0
H1150 H 0.07406 0.87196 0.92004 0.0
H1151 H 0.06465 0.8612 0.84272 0.0
H1152 H 0.94196 0.84774 0.85302 0.0
H1153 H 1.01537 0.88193 0.85363 0.0
H1154 H 1.01041 0.80704 0.91282 0.0
H1155 H 0.93715 0.77206 0.91152 0.0
C1156 C 0.1286 0.88845 0.90085 0.0
C1157 C 0.14653 0.89113 0.87841 0.0
C1158 C 0.0873 0.87468 0.90247 0.0
C1159 C 0.06337 0.86432 0.88161 0.0
C1160 C 0.08202 0.86903 0.85915 0.0
C1161 C 0.12307 0.88254 0.85758 0.0
C1162 C 0.9567 0.83892 0.86626 0.0
C1163 C 0.93395 0.8071 0.88209 0.0
C1164 C 0.9987 0.8583 0.86655 0.0
C1165 C 1.01893 0.84684 0.88303 0.0
C1166 C 0.996 0.81645 0.89975 0.0
C1167 C 0.95402 0.79639 0.89903 0.0
H1168 H 0.79322 0.92587 0.67489 0.0
H1169 H 0.79524 0.91543 0.59783 0.0
H1170 H 0.84123 0.99758 0.67212 0.0
H1171 H 0.84357 0.98754 0.59485 0.0
H1172 H 0.94979 0.12078 0.66168 0.0
H1173 H 0.91074 0.04729 0.66168 0.0
H1174 H 0.8424 0.05068 0.60115 0.0
H1175 H 0.88047 0.12394 0.60181 0.0
C1176 C 0.8041 0.93907 0.65734 0.0
C1177 C 0.78934 0.91559 0.63651 0.0
C1178 C 0.83188 0.98008 0.65573 0.0
C1179 C 0.84611 0.99853 0.63324 0.0
C1180 C 0.83278 0.97446 0.61243 0.0
C1181 C 0.80497 0.93329 0.61408 0.0
C1182 C 0.92653 0.10564 0.64833 0.0
C1183 C 0.91782 0.12792 0.6319 0.0
C1184 C 0.90403 0.06362 0.64837 0.0
C1185 C 0.87288 0.04296 0.63166 0.0
C1186 C 0.86578 0.06544 0.61442 0.0
C1187 C 0.88755 0.10742 0.61478 0.0
H1188 H 0.16496 0.25967 0.9175 0.0
H1189 H 0.1769 0.26222 0.84041 0.0
H1190 H 0.18964 0.21197 0.92014 0.0
H1191 H 0.20152 0.2149 0.84283 0.0
H1192 H 0.21812 0.10735 0.85236 0.0
H1193 H 0.18287 0.14563 0.85284 0.0
H1194 H 0.25397 0.21351 0.91367 0.0
H1195 H 0.28996 0.17621 0.91252 0.0
C1196 C 0.17321 0.25024 0.90117 0.0
C1197 C 0.17071 0.26586 0.87883 0.0
C1198 C 0.18708 0.22276 0.90262 0.0
C1199 C 0.19792 0.20974 0.8817 0.0
C1200 C 0.19331 0.22398 0.85931 0.0
C1201 C 0.17958 0.25141 0.8579 0.0
C1202 C 0.22588 0.13028 0.86591 0.0
C1203 C 0.25692 0.13908 0.88228 0.0
C1204 C 0.20591 0.15238 0.86613 0.0
C1205 C 0.216 0.18324 0.88304 0.0
C1206 C 0.2456 0.19035 0.90025 0.0
C1207 C 0.26625 0.16899 0.89962 0.0
H1208 H 0.13528 0.88981 0.59779 0.0
H1209 H 0.1279 0.87727 0.6749 0.0
H1210 H 0.06306 0.86608 0.59604 0.0
H1211 H 0.05619 0.85378 0.67334 0.0
H1212 H 0.92639 0.76729 0.60523 0.0
H1213 H 0.99958 0.80168 0.60324 0.0
H1214 H 1.00672 0.87474 0.66401 0.0
H1215 H 0.93334 0.84116 0.66532 0.0
C1216 C 0.11808 0.88166 0.61431 0.0
C1217 C 0.13671 0.88374 0.63639 0.0
C1218 C 0.07684 0.86833 0.61336 0.0
C1219 C 0.05364 0.85772 0.63454 0.0
C1220 C 0.07299 0.86184 0.65668 0.0
C1221 C 0.11402 0.87495 0.65758 0.0
C1222 C 0.94373 0.79107 0.61794 0.0
C1223 C 0.9243 0.80147 0.63551 0.0
C1224 C 0.98566 0.8108 0.61682 0.0
C1225 C 1.00919 0.84051 0.63374 0.0
C1226 C 0.98958 0.85161 0.65091 0.0
C1227 C 0.94762 0.83258 0.65162 0.0
H1228 H 0.87958 0.12715 0.90898 0.0
H1229 H 0.95478 0.12148 0.85351 0.0
H1230 H 0.84079 0.05385 0.91033 0.0
H1231 H 0.91515 0.04802 0.85423 0.0
H1232 H 0.79849 0.92593 0.83977 0.0
H1233 H 0.84525 0.99803 0.84207 0.0
H1234 H 0.84313 0.99076 0.91956 0.0
H1235 H 0.79651 0.91813 0.9171 0.0
C1236 C 0.88786 0.11012 0.89714 0.0
C1237 C 0.92009 0.13001 0.88106 0.0
C1238 C 0.86567 0.06811 0.89793 0.0
C1239 C 0.87439 0.04493 0.88214 0.0
C1240 C 0.90729 0.06492 0.86644 0.0
C1241 C 0.93014 0.10695 0.8661 0.0
C1242 C 0.8081 0.93978 0.85729 0.0
C1243 C 0.79266 0.91677 0.87827 0.0
C1244 C 0.83512 0.98104 0.85862 0.0
C1245 C 0.8478 1.00037 0.881 0.0
C1246 C 0.83358 0.97697 0.90204 0.0
C1247 C 0.8067 0.93547 0.90067 0.0
H1248 H 0.37779 0.22508 0.32014 0.0
H1249 H 0.41448 0.13654 0.31216 0.0
H1250 H 0.38469 0.23667 0.27652 0.0
H1251 H 0.41846 0.14561 0.26932 0.0
H1252 H 0.44516 0.17595 0.19364 0.0
H1253 H 0.45218 0.18374 0.23702 0.0
H1254 H 0.35423 0.20825 0.23917 0.0
H1255 H 0.34952 0.20319 0.19524 0.0
C1256 C 0.38775 0.20846 0.3092 0.0
C1257 C 0.39535 0.17974 0.31977 0.0
C1258 C 0.3912 0.21466 0.2841 0.0
C1259 C 0.40225 0.19221 0.26902 0.0
C1260 C 0.41089 0.16443 0.27996 0.0
C1261 C 0.40803 0.15875 0.3048 0.0
C1262 C 0.42602 0.18428 0.20336 0.0
C1263 C 0.39709 0.18934 0.19108 0.0
C1264 C 0.42949 0.1881 0.22837 0.0
C1265 C 0.40308 0.19562 0.24203 0.0
C1266 C 0.37537 0.20273 0.22949 0.0
C1267 C 0.37263 0.1999 0.20426 0.0
H1268 H 0.89356 0.67803 0.3214 0.0
H1269 H 0.76943 0.64445 0.31228 0.0
H1270 H 0.89903 0.67112 0.27777 0.0
H1271 H 0.77527 0.63991 0.26949 0.0
H1272 H 0.77883 0.60861 0.19474 0.0
H1273 H 0.77984 0.60311 0.23824 0.0
H1274 H 0.9014 0.70247 0.23966 0.0
H1275 H 0.90073 0.70612 0.19559 0.0
C1276 C 0.86737 0.6687 0.31023 0.0
C1277 C 0.83109 0.66186 0.32052 0.0
C1278 C 0.87059 0.66522 0.28514 0.0
C1279 C 0.83756 0.65468 0.2698 0.0
C1280 C 0.80125 0.64705 0.2804 0.0
C1281 C 0.798 0.65016 0.3052 0.0
C1282 C 0.80625 0.62832 0.2043 0.0
C1283 C 0.83983 0.65741 0.19174 0.0
C1284 C 0.8067 0.62571 0.22937 0.0
C1285 C 0.84038 0.653 0.24284 0.0
C1286 C 0.87495 0.68072 0.23009 0.0
C1287 C 0.87471 0.68277 0.20478 0.0
H1288 H 0.84757 0.15552 0.1956 0.0
H1289 H 0.86901 0.27652 0.1945 0.0
H1290 H 0.84311 0.15489 0.23967 0.0
H1291 H 0.86248 0.27552 0.23801 0.0
H1292 H 0.91699 0.28735 0.31157 0.0
H1293 H 0.90546 0.28105 0.26884 0.0
H1294 H 0.81365 0.15714 0.27795 0.0
H1295 H 0.82694 0.16316 0.32148 0.0
C1296 C 0.84944 0.18127 0.20472 0.0
C1297 C 0.85825 0.21595 0.19162 0.0
C1298 C 0.84711 0.18106 0.23003 0.0
C1299 C 0.85323 0.21547 0.24269 0.0
C1300 C 0.85871 0.2488 0.22917 0.0
C1301 C 0.86177 0.24923 0.2041 0.0
C1302 C 0.89399 0.25868 0.30468 0.0
C1303 C 0.873 0.22572 0.32017 0.0
C1304 C 0.88702 0.25516 0.27994 0.0
C1305 C 0.85824 0.21864 0.2696 0.0
C1306 C 0.83621 0.18573 0.28513 0.0
C1307 C 0.84344 0.18926 0.31016 0.0
H1308 H 0.23906 0.36681 0.69359 0.0
H1309 H 0.15025 0.40332 0.70001 0.0
H1310 H 0.24934 0.37367 0.73724 0.0
H1311 H 0.15794 0.40715 0.74299 0.0
H1312 H 0.18634 0.43363 0.81918 0.0
H1313 H 0.19422 0.44023 0.77579 0.0
H1314 H 0.22104 0.34374 0.77447 0.0
H1315 H 0.21585 0.33951 0.81841 0.0
C1316 C 0.22202 0.37664 0.7042 0.0
C1317 C 0.19359 0.38417 0.69315 0.0
C1318 C 0.22747 0.38006 0.72936 0.0
C1319 C 0.20453 0.39098 0.74408 0.0
C1320 C 0.17707 0.3996 0.73268 0.0
C1321 C 0.17217 0.39682 0.70775 0.0
C1322 C 0.19516 0.41471 0.80963 0.0
C1323 C 0.20092 0.3864 0.82218 0.0
C1324 C 0.19902 0.41792 0.7846 0.0
C1325 C 0.20731 0.39183 0.77114 0.0
C1326 C 0.21495 0.36466 0.78395 0.0
C1327 C 0.21207 0.3622 0.80921 0.0
H1328 H 0.29965 0.906 0.81122 0.0
H1329 H 0.17473 0.81768 0.82025 0.0
H1330 H 0.29364 0.89618 0.76843 0.0
H1331 H 0.1691 0.80547 0.77669 0.0
H1332 H 0.16635 0.83841 0.69519 0.0
H1333 H 0.16659 0.83388 0.73916 0.0
H1334 H 0.28837 0.85666 0.73646 0.0
H1335 H 0.28855 0.86378 0.69303 0.0
C1336 C 0.27086 0.8837 0.80411 0.0
C1337 C 0.23757 0.86294 0.81937 0.0
C1338 C 0.26751 0.87761 0.7793 0.0
C1339 C 0.2309 0.84967 0.76868 0.0
C1340 C 0.19775 0.82755 0.78403 0.0
C1341 C 0.20104 0.83412 0.8091 0.0
C1342 C 0.19267 0.84132 0.70409 0.0
C1343 C 0.22736 0.8512 0.69074 0.0
C1344 C 0.19294 0.83884 0.72935 0.0
C1345 C 0.22779 0.8457 0.74172 0.0
C1346 C 0.26132 0.85248 0.72791 0.0
C1347 C 0.26131 0.85589 0.70288 0.0
H1348 H 0.62028 0.76407 0.69565 0.0
H1349 H 0.71431 0.88765 0.69624 0.0
H1350 H 0.61415 0.76535 0.73908 0.0
H1351 H 0.71038 0.88863 0.74021 0.0
H1352 H 0.68774 0.88289 0.82138 0.0
H1353 H 0.68012 0.88655 0.77776 0.0
H1354 H 0.64882 0.76233 0.77136 0.0
H1355 H 0.65363 0.75822 0.81427 0.0
C1356 C 0.63922 0.79182 0.70515 0.0
C1357 C 0.66742 0.82585 0.69254 0.0
C1358 C 0.63627 0.79247 0.7302 0.0
C1359 C 0.66245 0.82682 0.7436 0.0
C1360 C 0.68942 0.86164 0.73075 0.0
C1361 C 0.69168 0.86121 0.70548 0.0
C1362 C 0.67816 0.85619 0.81064 0.0
C1363 C 0.67152 0.82034 0.82147 0.0
C1364 C 0.67431 0.85837 0.78552 0.0
C1365 C 0.66377 0.82476 0.77064 0.0
C1366 C 0.65602 0.78878 0.78184 0.0
C1367 C 0.65933 0.78652 0.8067 0.0
H1368 H 0.3242 0.991 0.95017 0.0
H1369 H 0.19856 0.92859 0.96825 0.0
H1370 H 0.33861 0.03576 0.98377 0.0
H1371 H 0.21312 0.97448 1.00252 0.0
H1372 H 0.26697 0.04082 0.07585 0.0
H1373 H 0.24478 0.9957 0.04143 0.0
H1374 H 0.33281 0.09119 0.99707 0.0
H1375 H 0.356 0.13577 0.03199 0.0
C1376 C 0.29938 0.98673 0.96133 0.0
C1377 C 0.26002 0.9561 0.95612 0.0
C1378 C 0.30774 1.01298 0.98066 0.0
C1379 C 0.2771 1.00989 0.99577 0.0
C1380 C 0.23768 0.97815 0.9913 0.0
C1381 C 0.22924 0.95158 0.9717 0.0
C1382 C 0.28131 0.05242 0.05867 0.0
C1383 C 0.31341 0.09214 0.05682 0.0
C1384 C 0.26831 0.02643 0.03879 0.0
C1385 C 0.28718 0.03918 0.01629 0.0
C1386 C 0.31788 0.07974 0.01413 0.0
C1387 C 0.33083 0.1058 0.0341 0.0
H1388 H 0.87081 0.76906 0.46941 0.0
H1389 H 0.74494 0.69927 0.45277 0.0
H1390 H 0.85459 0.79896 0.50383 0.0
H1391 H 0.72898 0.72847 0.48635 0.0
H1392 H 0.70777 0.81025 0.53324 0.0
H1393 H 0.7325 0.78981 0.49857 0.0
H1394 H 0.82225 0.78652 0.54336 0.0
H1395 H 0.79823 0.80814 0.57763 0.0
C1396 C 0.83977 0.75963 0.47321 0.0
C1397 C 0.80933 0.73198 0.45796 0.0
C1398 C 0.83037 0.77696 0.49286 0.0
C1399 C 0.79036 0.76713 0.49766 0.0
C1400 C 0.76018 0.73815 0.48295 0.0
C1401 C 0.76946 0.72098 0.46362 0.0
C1402 C 0.73356 0.8065 0.53551 0.0
C1403 C 0.75095 0.81104 0.5583 0.0
C1404 C 0.74746 0.79401 0.51568 0.0
C1405 C 0.77918 0.78569 0.51805 0.0
C1406 C 0.79795 0.79256 0.5406 0.0
C1407 C 0.78393 0.8048 0.56038 0.0
H1408 H 0.06698 0.25006 0.94367 0.0
H1409 H 0.13694 0.36575 0.97668 0.0
H1410 H 1.02253 0.22632 0.97865 0.0
H1411 H 0.09172 0.3436 0.011 0.0
H1412 H 1.02481 0.29189 0.0786 0.0
H1413 H 0.06911 0.30868 0.04515 0.0
H1414 H 0.97087 0.22476 1.00072 0.0
H1415 H 0.92621 0.20502 0.03572 0.0
C1416 C 0.07333 0.27016 0.95875 0.0
C1417 C 0.10646 0.30931 0.95782 0.0
C1418 C 0.04727 0.25683 0.97872 0.0
C1419 C 0.05287 0.2826 0.99822 0.0
C1420 C 0.08638 0.32193 0.99706 0.0
C1421 C 0.11276 0.33492 0.97729 0.0
C1422 C 1.01199 0.27636 0.06193 0.0
C1423 C 0.97101 0.24697 0.06031 0.0
C1424 C 0.03793 0.28673 0.04225 0.0
C1425 C 1.02425 0.26912 0.01954 0.0
C1426 C 0.98323 0.23924 0.01774 0.0
C1427 C 0.95715 0.22809 0.03787 0.0
H1428 H 0.35551 0.0541 0.45113 0.0
H1429 H 0.28977 0.11434 0.46846 0.0
H1430 H 0.32529 1.00908 0.4847 0.0
H1431 H 0.25874 0.06835 0.50274 0.0
H1432 H 0.24663 1.00195 0.57619 0.0
H1433 H 0.26968 0.04747 0.54192 0.0
H1434 H 0.26367 0.95282 0.49735 0.0
H1435 H 0.24198 0.90777 0.53208 0.0
C1436 C 0.33447 0.05785 0.46214 0.0
C1437 C 0.32492 0.08786 0.45672 0.0
C1438 C 0.3167 0.03149 0.48144 0.0
C1439 C 0.28851 0.03393 0.49631 0.0
C1440 C 0.28012 0.06518 0.49168 0.0
C1441 C 0.29809 0.09183 0.4721 0.0
C1442 C 0.24968 0.99061 0.55899 0.0
C1443 C 0.24232 0.95097 0.55701 0.0
C1444 C 0.26276 1.01683 0.5392 0.0
C1445 C 0.26929 1.00441 0.51671 0.0
C1446 C 0.2598 0.96397 0.51442 0.0
C1447 C 0.24655 0.93766 0.53428 0.0
H1448 H 0.74919 0.70161 0.06356 0.0
H1449 H 0.87485 0.77019 0.04614 0.0
H1450 H 0.73321 0.73102 0.03013 0.0
H1451 H 0.85879 0.80076 0.01215 0.0
H1452 H 0.80534 0.81337 0.93894 0.0
H1453 H 0.8286 0.79138 0.9733 0.0
H1454 H 0.73493 0.78974 0.01681 0.0
H1455 H 0.71061 0.80976 0.98189 0.0
C1456 C 0.77367 0.72325 0.05264 0.0
C1457 C 0.81348 0.73371 0.05796 0.0
C1458 C 0.7644 0.74058 0.03338 0.0
C1459 C 0.79456 0.76936 0.0185 0.0
C1460 C 0.83452 0.77887 0.02315 0.0
C1461 C 0.84385 0.76122 0.04261 0.0
C1462 C 0.79001 0.80888 0.95594 0.0
C1463 C 0.75608 0.81362 0.95753 0.0
C1464 C 0.80358 0.79639 0.97581 0.0
C1465 C 0.78352 0.78797 0.99804 0.0
C1466 C 0.75088 0.79499 0.99997 0.0
C1467 C 0.73728 0.80744 0.98 0.0
H1468 H 0.14708 0.35021 0.53237 0.0
H1469 H 0.05721 0.25293 0.57447 0.0
H1470 H 0.10219 0.32687 0.49754 0.0
H1471 H 1.01173 0.23033 0.54022 0.0
H1472 H 0.94472 0.18606 0.46697 0.0
H1473 H 0.99155 0.20163 0.50078 0.0
H1474 H 0.04379 0.32794 0.48552 0.0
H1475 H 0.99796 0.31241 0.45226 0.0
C1476 C 0.11824 0.32319 0.53402 0.0
C1477 C 0.10602 0.30334 0.55622 0.0
C1478 C 0.09195 0.31011 0.51415 0.0
C1479 C 0.05259 0.2769 0.51594 0.0
C1480 C 0.04151 0.2558 0.53784 0.0
C1481 C 0.06771 0.26891 0.55762 0.0
C1482 C 0.96584 0.2171 0.47115 0.0
C1483 C 0.96765 0.24787 0.45662 0.0
C1484 C 0.99299 0.22616 0.49046 0.0
C1485 C 1.0226 0.26622 0.49573 0.0
C1486 C 1.0228 0.29673 0.48174 0.0
C1487 C 0.99598 0.28773 0.46264 0.0
H1488 H 0.66156 0.20598 0.09149 0.0
H1489 H 0.61099 0.09898 0.13488 0.0
H1490 H 0.5979 0.2059 0.0936 0.0
H1491 H 0.54751 0.09929 0.13743 0.0
H1492 H 0.45121 0.14404 0.14828 0.0
H1493 H 0.51465 0.1436 0.15201 0.0
H1494 H 0.52878 0.15334 0.07496 0.0
H1495 H 0.46511 0.15203 0.0712 0.0
C1496 C 0.6373 0.18325 0.10215 0.0
C1497 C 0.64145 0.15272 0.11317 0.0
C1498 C 0.60067 0.1829 0.10316 0.0
C1499 C 0.56747 0.15237 0.11554 0.0
C1500 C 0.57245 0.12328 0.12785 0.0
C1501 C 0.60884 0.12319 0.12644 0.0
C1502 C 0.4672 0.14476 0.13214 0.0
C1503 C 0.45261 0.14731 0.10938 0.0
C1504 C 0.50382 0.14501 0.13428 0.0
C1505 C 0.52718 0.14919 0.11378 0.0
C1506 C 0.51197 0.15079 0.09112 0.0
C1507 C 0.47525 0.14965 0.08897 0.0
H1508 H 0.72102 0.5865 0.43758 0.0
H1509 H 0.73102 0.6056 0.36087 0.0
H1510 H 0.66017 0.52228 0.43203 0.0
H1511 H 0.66846 0.54102 0.35531 0.0
H1512 H 0.52708 0.43969 0.37124 0.0
H1513 H 0.58984 0.50418 0.36898 0.0
H1514 H 0.64827 0.45534 0.41209 0.0
H1515 H 0.58573 0.39075 0.41398 0.0
C1516 C 0.70971 0.5773 0.41948 0.0
C1517 C 0.73091 0.60134 0.39971 0.0
C1518 C 0.67499 0.54023 0.41631 0.0
C1519 C 0.65988 0.52603 0.39322 0.0
C1520 C 0.67958 0.551 0.37334 0.0
C1521 C 0.71515 0.58816 0.37651 0.0
C1522 C 0.55375 0.44237 0.37952 0.0
C1523 C 0.55151 0.40997 0.39265 0.0
C1524 C 0.58965 0.47935 0.37826 0.0
C1525 C 0.62395 0.48507 0.39055 0.0
C1526 C 0.62227 0.45198 0.40254 0.0
C1527 C 0.58659 0.41482 0.40343 0.0
H1528 H 0.93537 0.34116 0.07848 0.0
H1529 H 0.89384 0.31378 0.1517 0.0
H1530 H 0.94059 0.40688 0.08211 0.0
H1531 H 0.89748 0.37944 0.15509 0.0
H1532 H 0.85149 0.4706 0.11945 0.0
H1533 H 0.85497 0.40943 0.12699 0.0
H1534 H 0.98128 0.47375 0.11114 0.0
H1535 H 0.97844 0.5349 0.10464 0.0
C1536 C 0.92832 0.34969 0.09557 0.0
C1537 C 0.91522 0.32274 0.11497 0.0
C1538 C 0.93105 0.38722 0.09762 0.0
C1539 C 0.91924 0.3983 0.11883 0.0
C1540 C 0.90676 0.37171 0.13851 0.0
C1541 C 0.90518 0.33439 0.13668 0.0
C1542 C 0.88025 0.47208 0.11838 0.0
C1543 C 0.91448 0.50772 0.11093 0.0
C1544 C 0.88222 0.43697 0.12264 0.0
C1545 C 0.91836 0.4367 0.11939 0.0
C1546 C 0.95296 0.47289 0.11358 0.0
C1547 C 0.95117 0.50791 0.10971 0.0
H1548 H 0.45504 0.12191 0.43531 0.0
H1549 H 0.46168 0.15476 0.36069 0.0
H1550 H 0.51717 0.11992 0.4312 0.0
H1551 H 0.52544 0.15454 0.35678 0.0
H1552 H 0.66629 0.21051 0.39088 0.0
H1553 H 0.5999 0.20312 0.38346 0.0
H1554 H 0.54378 0.07822 0.4027 0.0
H1555 H 0.60947 0.08498 0.4092 0.0
C1556 C 0.46936 0.12773 0.41784 0.0
C1557 C 0.4529 0.13745 0.39821 0.0
C1558 C 0.5051 0.12688 0.41552 0.0
C1559 C 0.52639 0.1373 0.39372 0.0
C1560 C 0.50971 0.1464 0.37381 0.0
C1561 C 0.473 0.146 0.37596 0.0
C1562 C 0.6399 0.18117 0.39263 0.0
C1563 C 0.64343 0.14854 0.40102 0.0
C1564 C 0.60183 0.17696 0.38846 0.0
C1565 C 0.56656 0.14013 0.39274 0.0
C1566 C 0.57029 0.107 0.3994 0.0
C1567 C 0.60807 0.11101 0.4032 0.0
H1568 H 0.58198 0.39444 0.09496 0.0
H1569 H 0.52954 0.44524 0.1416 0.0
H1570 H 0.64627 0.45734 0.09682 0.0
H1571 H 0.59403 0.50797 0.14381 0.0
H1572 H 0.73659 0.60214 0.15207 0.0
H1573 H 0.67206 0.5394 0.15654 0.0
H1574 H 0.66229 0.52716 0.07939 0.0
H1575 H 0.72528 0.58994 0.07496 0.0
C1576 C 0.58454 0.41856 0.10623 0.0
C1577 C 0.55072 0.41477 0.11819 0.0
C1578 C 0.62121 0.45475 0.10712 0.0
C1579 C 0.62516 0.48782 0.1203 0.0
C1580 C 0.59205 0.4831 0.13358 0.0
C1581 C 0.55517 0.44716 0.13232 0.0
C1582 C 0.71997 0.5867 0.13613 0.0
C1583 C 0.73579 0.60139 0.11313 0.0
C1584 C 0.68327 0.55052 0.13867 0.0
C1585 C 0.66247 0.52785 0.11829 0.0
C1586 C 0.67785 0.5434 0.09544 0.0
C1587 C 0.71378 0.57963 0.09292 0.0
H1588 H 0.975 0.53896 0.40548 0.0
H1589 H 0.84789 0.47031 0.39188 0.0
H1590 H 0.98046 0.47919 0.3991 0.0
H1591 H 0.85392 0.41043 0.38454 0.0
H1592 H 0.90054 0.31887 0.36037 0.0
H1593 H 0.90091 0.38296 0.35608 0.0
H1594 H 0.93962 0.41214 0.42969 0.0
H1595 H 0.93748 0.34797 0.43422 0.0
C1596 C 0.94828 0.51133 0.40054 0.0
C1597 C 0.9108 0.5095 0.39966 0.0
C1598 C 0.95156 0.47709 0.39679 0.0
C1599 C 0.91766 0.44005 0.39145 0.0
C1600 C 0.88066 0.43867 0.38848 0.0
C1601 C 0.87722 0.47303 0.39261 0.0
C1602 C 0.9102 0.33957 0.37536 0.0
C1603 C 0.91986 0.32882 0.39751 0.0
C1604 C 0.9099 0.37595 0.373 0.0
C1605 C 0.92019 0.40254 0.39259 0.0
C1606 C 0.9317 0.39244 0.41426 0.0
C1607 C 0.93077 0.35582 0.41681 0.0
H1608 H 0.21069 0.64919 0.59405 0.0
H1609 H 0.10335 0.59532 0.63717 0.0
H1610 H 0.2126 0.5865 0.5958 0.0
H1611 H 0.10548 0.53277 0.63921 0.0
H1612 H 0.15064 0.43765 0.64936 0.0
H1613 H 0.14893 0.50047 0.65345 0.0
H1614 H 0.16346 0.51806 0.57671 0.0
H1615 H 0.16368 0.45517 0.57258 0.0
C1616 C 0.18824 0.62439 0.60452 0.0
C1617 C 0.15697 0.62728 0.6155 0.0
C1618 C 0.18903 0.58832 0.60532 0.0
C1619 C 0.15891 0.55445 0.61745 0.0
C1620 C 0.12915 0.55823 0.62979 0.0
C1621 C 0.12798 0.59407 0.62863 0.0
C1622 C 0.15228 0.45436 0.63335 0.0
C1623 C 0.15666 0.44104 0.61057 0.0
C1624 C 0.15176 0.49058 0.6357 0.0
C1625 C 0.15687 0.5147 0.61543 0.0
C1626 C 0.16025 0.50069 0.59273 0.0
C1627 C 0.15997 0.46441 0.59035 0.0
H1628 H 0.33198 0.8941 0.85978 0.0
H1629 H 0.35358 0.91469 0.9359 0.0
H1630 H 0.39668 0.89595 0.85521 0.0
H1631 H 0.41821 0.91784 0.93121 0.0
H1632 H 0.5494 0.96538 0.90284 0.0
H1633 H 0.48843 0.96883 0.89672 0.0
H1634 H 0.42107 0.84085 0.88685 0.0
H1635 H 0.48212 0.83692 0.89384 0.0
C1636 C 0.35106 0.90029 0.87535 0.0
C1637 C 0.33807 0.90491 0.89817 0.0
C1638 C 0.38778 0.90087 0.87278 0.0
C1639 C 0.41226 0.90677 0.89292 0.0
C1640 C 0.39994 0.91318 0.91542 0.0
C1641 C 0.3631 0.91164 0.91807 0.0
C1642 C 0.52181 0.93792 0.89891 0.0
C1643 C 0.52071 0.90073 0.89924 0.0
C1644 C 0.48694 0.94005 0.89528 0.0
C1645 C 0.45008 0.90518 0.89131 0.0
C1646 C 0.44925 0.86827 0.88964 0.0
C1647 C 0.48425 0.86604 0.89357 0.0
H1648 H 0.61356 0.72665 0.65077 0.0
H1649 H 0.59885 0.71709 0.57376 0.0
H1650 H 0.55051 0.66279 0.65545 0.0
H1651 H 0.53566 0.65449 0.57841 0.0
H1652 H 0.40403 0.57186 0.59467 0.0
H1653 H 0.46684 0.63633 0.59549 0.0
H1654 H 0.518 0.58666 0.64405 0.0
H1655 H 0.45532 0.52213 0.64296 0.0
C1656 C 0.59745 0.71057 0.63485 0.0
C1657 C 0.61166 0.72666 0.61184 0.0
C1658 C 0.56107 0.6742 0.63753 0.0
C1659 C 0.5376 0.6539 0.6173 0.0
C1660 C 0.55248 0.66966 0.59438 0.0
C1661 C 0.58895 0.70535 0.59172 0.0
C1662 C 0.42826 0.57509 0.60606 0.0
C1663 C 0.42461 0.54198 0.61883 0.0
C1664 C 0.46443 0.61184 0.60632 0.0
C1665 C 0.49766 0.61653 0.61964 0.0
C1666 C 0.49306 0.58416 0.63368 0.0
C1667 C 0.45712 0.54724 0.63309 0.0
H1668 H 0.11384 0.60347 0.87265 0.0
H1669 H 0.21856 0.65358 0.91789 0.0
H1670 H 0.11351 0.53958 0.87115 0.0
H1671 H 0.21792 0.58956 0.91675 0.0
H1672 H 0.16316 0.45778 0.94036 0.0
H1673 H 0.16505 0.52158 0.93538 0.0
H1674 H 0.15612 0.50483 0.85849 0.0
H1675 H 0.15572 0.44108 0.86347 0.0
C1676 C 0.13749 0.60115 0.8817 0.0
C1677 C 0.16647 0.63372 0.89523 0.0
C1678 C 0.1372 0.56451 0.88089 0.0
C1679 C 0.16538 0.55928 0.89405 0.0
C1680 C 0.19556 0.59251 0.90658 0.0
C1681 C 0.19627 0.62935 0.90702 0.0
C1682 C 0.16102 0.46735 0.92236 0.0
C1683 C 0.1588 0.44398 0.90237 0.0
C1684 C 0.16253 0.50416 0.91951 0.0
C1685 C 0.1615 0.51874 0.89653 0.0
C1686 C 0.15719 0.49453 0.87645 0.0
C1687 C 0.15647 0.45776 0.8793 0.0
H1688 H 0.32604 0.89744 0.64893 0.0
H1689 H 0.33527 0.89301 0.57185 0.0
H1690 H 0.3902 0.89881 0.65328 0.0
H1691 H 0.39813 0.8928 0.57617 0.0
H1692 H 0.48076 0.84317 0.59244 0.0
H1693 H 0.41633 0.84163 0.59345 0.0
H1694 H 0.46665 0.94354 0.64117 0.0
H1695 H 0.5312 0.94539 0.63982 0.0
C1696 C 0.3421 0.89772 0.63292 0.0
C1697 C 0.32584 0.89592 0.60999 0.0
C1698 C 0.37866 0.898 0.63541 0.0
C1699 C 0.39895 0.89515 0.61507 0.0
C1700 C 0.38299 0.89428 0.59223 0.0
C1701 C 0.34714 0.89482 0.58975 0.0
C1702 C 0.47771 0.86447 0.60368 0.0
C1703 C 0.51098 0.8942 0.61616 0.0
C1704 C 0.44098 0.86394 0.60405 0.0
C1705 C 0.43645 0.89276 0.61721 0.0
C1706 C 0.46904 0.92089 0.63093 0.0
C1707 C 0.50596 0.92186 0.6302 0.0
H1708 H 0.60324 0.71593 0.94068 0.0
H1709 H 0.62061 0.72368 0.86383 0.0
H1710 H 0.53948 0.65415 0.93589 0.0
H1711 H 0.55674 0.66041 0.85905 0.0
H1712 H 0.45799 0.51989 0.87393 0.0
H1713 H 0.5217 0.58346 0.87207 0.0
H1714 H 0.4717 0.63853 0.91726 0.0
H1715 H 0.40788 0.57512 0.91879 0.0
C1716 C 0.59378 0.70397 0.92273 0.0
C1717 C 0.61729 0.72473 0.90269 0.0
C1718 C 0.55697 0.66872 0.91998 0.0
C1719 C 0.54252 0.65268 0.89708 0.0
C1720 C 0.5669 0.67213 0.87696 0.0
C1721 C 0.60371 0.70816 0.87969 0.0
C1722 C 0.46027 0.54598 0.88283 0.0
C1723 C 0.42776 0.54255 0.89638 0.0
C1724 C 0.49681 0.58235 0.8818 0.0
C1725 C 0.50201 0.61597 0.89474 0.0
C1726 C 0.46881 0.61308 0.90726 0.0
C1727 C 0.43206 0.5769 0.90793 0.0
loop_
_geom_bond_atom_site_label_1
_geom_bond_atom_site_label_2
_geom_bond_distance
_geom_bond_site_symmetry_2
_ccdc_geom_bond_type
Tb0 N31 2.660 . S
Tb0 N38 2.600 . S
Tb0 O44 2.546 . S
Tb0 O45 2.610 . S
Tb0 O47 2.320 . S
Tb0 O48 2.552 . S
Tb0 O49 2.413 . S
Tb0 O51 2.362 . S
Tb0 O52 2.421 . S
Tb0 C64 2.833 . S
C1 C4 1.432 . S
C1 C5 1.414 . S
C1 N8 1.359 . S
C2 C4 1.417 . S
C2 C6 1.432 . S
C2 C14 1.410 . S
C3 C5 1.444 . S
C3 C6 1.317 . S
C3 H26 0.929 1_545 S
C4 C1 1.432 . S
C4 C2 1.417 . S
C4 N12 1.360 . S
C5 C1 1.414 . S
C5 C3 1.444 . S
C5 C10 1.385 . S
C6 C2 1.432 . S
C6 C3 1.317 . S
C6 H18 0.930 1_545 S
C7 C9 1.392 . S
C7 C10 1.370 . S
C7 H19 0.931 . S
N8 C1 1.359 . S
N8 C9 1.327 . S
N8 Tb11 2.600 . S
C9 C7 1.392 . S
C9 N8 1.327 . S
C9 H16 0.930 . S
C10 C5 1.385 . S
C10 C7 1.370 . S
C10 H29 0.930 . S
Tb11 N8 2.600 . S
Tb11 N12 2.660 . S
Tb11 O45 2.362 . S
Tb11 O46 2.421 . S
Tb11 O50 2.546 . S
Tb11 O51 2.610 . S
Tb11 O53 2.320 . S
Tb11 O54 2.552 . S
Tb11 O55 2.413 . S
Tb11 C75 2.833 . S
N12 C4 1.360 . S
N12 Tb11 2.660 . S
N12 C13 1.305 . S
C13 N12 1.305 . S
C13 C15 1.407 . S
C13 H20 0.930 . S
C14 C2 1.410 . S
C14 C15 1.345 . S
C14 H22 0.930 . S
C15 C13 1.407 . S
C15 C14 1.345 . S
C15 H17 0.930 . S
H16 C9 0.930 . S
H17 C15 0.930 . S
H18 C6 0.930 1_565 S
H19 C7 0.931 . S
H20 C13 0.930 . S
H21 C35 0.930 . S
H22 C14 0.930 . S
H23 C41 0.930 . S
H24 C32 0.930 . S
H25 C39 0.931 . S
H26 C3 0.929 1_565 S
H27 C33 0.930 . S
H28 C66 0.930 . S
H29 C10 0.930 . S
H30 C65 0.929 . S
N31 Tb0 2.660 . S
N31 C32 1.305 . S
N31 C36 1.360 . S
C32 H24 0.930 . S
C32 N31 1.305 . S
C32 C35 1.407 . S
C33 H27 0.930 . S
C33 C34 1.410 . S
C33 C35 1.345 . S
C34 C33 1.410 . S
C34 C36 1.417 . S
C34 C66 1.432 . S
C35 H21 0.930 . S
C35 C32 1.407 . S
C35 C33 1.345 . S
C36 N31 1.360 . S
C36 C34 1.417 . S
C36 C40 1.432 . S
H37 C42 0.930 . S
N38 Tb0 2.600 . S
N38 C40 1.359 . S
N38 C41 1.327 . S
C39 H25 0.931 . S
C39 C41 1.392 . S
C39 C42 1.370 . S
C40 C36 1.432 . S
C40 N38 1.359 . S
C40 C43 1.414 . S
C41 H23 0.930 . S
C41 N38 1.327 . S
C41 C39 1.392 . S
C42 H37 0.930 . S
C42 C39 1.370 . S
C42 C43 1.385 . S
C43 C40 1.414 . S
C43 C42 1.385 . S
C43 C65 1.444 . S
O44 Tb0 2.546 . S
O44 C64 1.251 . S
O45 Tb0 2.610 . S
O45 Tb11 2.362 . S
O45 C56 1.283 . S
O46 Tb11 2.421 . S
O46 C63 1.262 . S
O47 Tb0 2.320 . S
O47 C63 1.260 . S
O48 Tb0 2.552 . S
O48 C56 1.243 . S
O49 Tb0 2.413 . S
O49 C64 1.256 . S
O50 Tb11 2.546 . S
O50 C75 1.251 . S
O51 Tb0 2.362 . S
O51 Tb11 2.610 . S
O51 C67 1.283 . S
O52 Tb0 2.421 . S
O52 C74 1.262 . S
O53 Tb11 2.320 . S
O53 C74 1.260 . S
O54 Tb11 2.552 . S
O54 C67 1.243 . S
O55 Tb11 2.413 . S
O55 C75 1.256 . S
C56 O45 1.283 . S
C56 O48 1.243 . S
C57 C59 1.382 . S
C57 C61 1.393 . S
C57 C64 1.500 . S
C58 C59 1.400 . S
C58 C60 1.384 . S
C59 C57 1.382 . S
C59 C58 1.400 . S
C59 H76 0.930 . S
C60 C58 1.384 . S
C60 C62 1.392 . S
C60 H77 0.931 . S
C61 C57 1.393 . S
C61 C62 1.401 . S
C61 H78 0.930 . S
C62 C60 1.392 . S
C62 C61 1.401 . S
C62 H79 0.930 . S
C63 O46 1.262 . S
C63 O47 1.260 . S
C64 Tb0 2.833 . S
C64 O44 1.251 . S
C64 O49 1.256 . S
C64 C57 1.500 . S
C65 H30 0.929 . S
C65 C43 1.444 . S
C65 C66 1.317 . S
C66 H28 0.930 . S
C66 C34 1.432 . S
C66 C65 1.317 . S
C67 O51 1.283 . S
C67 O54 1.243 . S
C68 C69 1.382 . S
C68 C72 1.393 . S
C68 C75 1.500 1_565 S
C69 C68 1.382 . S
C69 C70 1.400 . S
C69 H80 0.930 . S
C70 C69 1.400 . S
C70 C71 1.384 . S
C71 C70 1.384 . S
C71 C73 1.392 . S
C71 H81 0.931 . S
C72 C68 1.393 . S
C72 C73 1.401 . S
C72 H82 0.930 . S
C73 C71 1.392 . S
C73 C72 1.401 . S
C73 H83 0.930 . S
C74 O52 1.262 . S
C74 O53 1.260 . S
C75 Tb11 2.833 . S
C75 O50 1.251 . S
C75 O55 1.256 . S
C75 C68 1.500 1_545 S
H76 C59 0.930 . S
H77 C60 0.931 . S
H78 C61 0.930 . S
H79 C62 0.930 . S
H80 C69 0.930 . S
H81 C71 0.931 . S
H82 C72 0.930 . S
H83 C73 0.930 . S
Tb84 N115 2.660 . S
Tb84 N122 2.600 . S
Tb84 O128 2.546 . S
Tb84 O129 2.610 . S
Tb84 O131 2.320 . S
Tb84 O132 2.552 . S
Tb84 O133 2.413 . S
Tb84 O135 2.362 . S
Tb84 O136 2.421 . S
Tb84 C148 2.833 . S
C85 C88 1.432 . S
C85 C89 1.414 . S
C85 N92 1.359 . S
C86 C88 1.417 . S
C86 C90 1.432 1_655 S
C86 C98 1.410 . S
C87 C89 1.431 1_455 S
C87 C90 1.320 . S
C87 H110 0.939 . S
C88 C85 1.432 . S
C88 C86 1.417 . S
C88 N96 1.360 . S
C89 C85 1.414 . S
C89 C87 1.431 1_655 S
C89 C94 1.385 . S
C90 C86 1.432 1_455 S
C90 C87 1.320 . S
C90 H102 0.930 . S
C91 C93 1.392 . S
C91 C94 1.370 . S
C91 H103 0.931 . S
N92 C85 1.359 . S
N92 C93 1.327 . S
N92 Tb95 2.600 . S
C93 C91 1.392 . S
C93 N92 1.327 . S
C93 H100 0.930 . S
C94 C89 1.385 . S
C94 C91 1.370 . S
C94 H113 0.930 . S
Tb95 N92 2.600 . S
Tb95 N96 2.660 . S
Tb95 O129 2.362 . S
Tb95 O130 2.421 . S
Tb95 O134 2.546 . S
Tb95 O135 2.610 . S
Tb95 O137 2.320 . S
Tb95 O138 2.552 . S
Tb95 O139 2.413 . S
Tb95 C159 2.833 . S
N96 C88 1.360 . S
N96 Tb95 2.660 . S
N96 C97 1.305 . S
C97 N96 1.305 . S
C97 C99 1.407 . S
C97 H104 0.930 . S
C98 C86 1.410 . S
C98 C99 1.345 . S
C98 H106 0.930 1_655 S
C99 C97 1.407 . S
C99 C98 1.345 . S
C99 H101 0.930 . S
H100 C93 0.930 . S
H101 C99 0.930 . S
H102 C90 0.930 . S
H103 C91 0.931 . S
H104 C97 0.930 . S
H105 C119 0.930 . S
H106 C98 0.930 1_455 S
H107 C125 0.930 . S
H108 C116 0.930 . S
H109 C123 0.931 . S
H110 C87 0.939 . S
H111 C117 0.930 . S
H112 C150 0.930 . S
H113 C94 0.930 . S
H114 C149 0.929 . S
N115 Tb84 2.660 . S
N115 C116 1.305 . S
N115 C120 1.360 . S
C116 H108 0.930 . S
C116 N115 1.305 . S
C116 C119 1.407 . S
C117 H111 0.930 . S
C117 C118 1.410 . S
C117 C119 1.345 . S
C118 C117 1.410 . S
C118 C120 1.417 . S
C118 C150 1.432 . S
C119 H105 0.930 . S
C119 C116 1.407 . S
C119 C117 1.345 . S
C120 N115 1.360 . S
C120 C118 1.417 . S
C120 C124 1.432 . S
H121 C126 0.930 . S
N122 Tb84 2.600 . S
N122 C124 1.359 . S
N122 C125 1.327 . S
C123 H109 0.931 . S
C123 C125 1.392 . S
C123 C126 1.370 . S
C124 C120 1.432 . S
C124 N122 1.359 . S
C124 C127 1.414 . S
C125 H107 0.930 . S
C125 N122 1.327 . S
C125 C123 1.392 . S
C126 H121 0.930 . S
C126 C123 1.370 . S
C126 C127 1.385 . S
C127 C124 1.414 . S
C127 C126 1.385 . S
C127 C149 1.444 . S
O128 Tb84 2.546 . S
O128 C148 1.251 . S
O129 Tb84 2.610 . S
O129 Tb95 2.362 . S
O129 C140 1.283 . S
O130 Tb95 2.421 . S
O130 C147 1.262 . S
O131 Tb84 2.320 . S
O131 C147 1.260 . S
O132 Tb84 2.552 . S
O132 C140 1.243 . S
O133 Tb84 2.413 . S
O133 C148 1.256 . S
O134 Tb95 2.546 . S
O134 C159 1.251 . S
O135 Tb84 2.362 . S
O135 Tb95 2.610 . S
O135 C151 1.283 . S
O136 Tb84 2.421 . S
O136 C158 1.262 . S
O137 Tb95 2.320 . S
O137 C158 1.260 . S
O138 Tb95 2.552 . S
O138 C151 1.243 . S
O139 Tb95 2.413 . S
O139 C159 1.256 . S
C140 O129 1.283 . S
C140 O132 1.243 . S
C141 C143 1.382 . S
C141 C145 1.393 . S
C141 C148 1.500 . S
C142 C143 1.400 . S
C142 C144 1.384 . S
C143 C141 1.382 . S
C143 C142 1.400 . S
C143 H160 0.930 . S
C144 C142 1.384 . S
C144 C146 1.392 . S
C144 H161 0.931 . S
C145 C141 1.393 . S
C145 C146 1.401 . S
C145 H162 0.930 . S
C146 C144 1.392 . S
C146 C145 1.401 . S
C146 H163 0.930 . S
C147 O130 1.262 . S
C147 O131 1.260 . S
C148 Tb84 2.833 . S
C148 O128 1.251 . S
C148 O133 1.256 . S
C148 C141 1.500 . S
C149 H114 0.929 . S
C149 C127 1.444 . S
C149 C150 1.317 . S
C150 H112 0.930 . S
C150 C118 1.432 . S
C150 C149 1.317 . S
C151 O135 1.283 . S
C151 O138 1.243 . S
C152 C153 1.382 . S
C152 C156 1.393 . S
C152 C159 1.500 . S
C153 C152 1.382 . S
C153 C154 1.400 . S
C153 H164 0.930 . S
C154 C153 1.400 . S
C154 C155 1.384 . S
C155 C154 1.384 . S
C155 C157 1.392 . S
C155 H165 0.931 . S
C156 C152 1.393 . S
C156 C157 1.401 . S
C156 H166 0.930 . S
C157 C155 1.392 . S
C157 C156 1.401 . S
C157 H167 0.930 . S
C158 O136 1.262 . S
C158 O137 1.260 . S
C159 Tb95 2.833 . S
C159 O134 1.251 . S
C159 O139 1.256 . S
C159 C152 1.500 . S
H160 C143 0.930 . S
H161 C144 0.931 . S
H162 C145 0.930 . S
H163 C146 0.930 . S
H164 C153 0.930 . S
H165 C155 0.931 . S
H166 C156 0.930 . S
H167 C157 0.930 . S
Tb168 N199 2.660 . S
Tb168 N206 2.600 . S
Tb168 O212 2.546 . S
Tb168 O213 2.610 . S
Tb168 O215 2.320 . S
Tb168 O216 2.552 . S
Tb168 O217 2.413 . S
Tb168 O219 2.362 . S
Tb168 O220 2.421 . S
Tb168 C232 2.833 . S
C169 C172 1.432 . S
C169 C173 1.414 . S
C169 N176 1.359 . S
C170 C172 1.417 . S
C170 C174 1.432 . S
C170 C182 1.410 . S
C171 C173 1.444 . S
C171 C174 1.317 . S
C171 H194 0.929 1_655 S
C172 C169 1.432 . S
C172 C170 1.417 . S
C172 N180 1.360 . S
C173 C169 1.414 . S
C173 C171 1.444 . S
C173 C178 1.385 . S
C174 C170 1.432 . S
C174 C171 1.317 . S
C174 H186 0.930 1_655 S
C175 C177 1.392 . S
C175 C178 1.370 . S
C175 H187 0.931 . S
N176 C169 1.359 . S
N176 C177 1.327 . S
N176 Tb179 2.600 . S
C177 C175 1.392 . S
C177 N176 1.327 . S
C177 H184 0.930 . S
C178 C173 1.385 . S
C178 C175 1.370 . S
C178 H197 0.930 . S
Tb179 N176 2.600 . S
Tb179 N180 2.660 . S
Tb179 O213 2.362 . S
Tb179 O214 2.421 . S
Tb179 O218 2.546 . S
Tb179 O219 2.610 . S
Tb179 O221 2.320 . S
Tb179 O222 2.552 . S
Tb179 O223 2.413 . S
Tb179 C243 2.833 . S
N180 C172 1.360 . S
N180 Tb179 2.660 . S
N180 C181 1.305 . S
C181 N180 1.305 . S
C181 C183 1.407 . S
C181 H188 0.930 . S
C182 C170 1.410 . S
C182 C183 1.345 . S
C182 H190 0.930 . S
C183 C181 1.407 . S
C183 C182 1.345 . S
C183 H185 0.930 . S
H184 C177 0.930 . S
H185 C183 0.930 . S
H186 C174 0.930 1_455 S
H187 C175 0.931 . S
H188 C181 0.930 . S
H189 C203 0.930 . S
H190 C182 0.930 . S
H191 C209 0.930 . S
H192 C200 0.930 . S
H193 C207 0.931 . S
H194 C171 0.929 1_455 S
H195 C201 0.930 1_565 S
H196 C234 0.930 . S
H197 C178 0.930 . S
H198 C233 0.937 . S
N199 Tb168 2.660 . S
N199 C200 1.305 . S
N199 C204 1.360 . S
C200 H192 0.930 . S
C200 N199 1.305 . S
C200 C203 1.407 . S
C201 H195 0.930 1_545 S
C201 C202 1.410 . S
C201 C203 1.345 . S
C202 C201 1.410 . S
C202 C204 1.417 . S
C202 C234 1.432 1_545 S
C203 H189 0.930 . S
C203 C200 1.407 . S
C203 C201 1.345 . S
C204 N199 1.360 . S
C204 C202 1.417 . S
C204 C208 1.432 . S
H205 C210 0.930 . S
N206 Tb168 2.600 . S
N206 C208 1.359 . S
N206 C209 1.327 . S
C207 H193 0.931 . S
C207 C209 1.392 . S
C207 C210 1.370 . S
C208 C204 1.432 . S
C208 N206 1.359 . S
C208 C211 1.414 . S
C209 H191 0.930 . S
C209 N206 1.327 . S
C209 C207 1.392 . S
C210 H205 0.930 . S
C210 C207 1.370 . S
C210 C211 1.385 . S
C211 C208 1.414 . S
C211 C210 1.385 . S
C211 C233 1.432 1_545 S
O212 Tb168 2.546 . S
O212 C232 1.251 . S
O213 Tb168 2.610 . S
O213 Tb179 2.362 . S
O213 C224 1.283 . S
O214 Tb179 2.421 . S
O214 C231 1.262 . S
O215 Tb168 2.320 . S
O215 C231 1.260 . S
O216 Tb168 2.552 . S
O216 C224 1.243 . S
O217 Tb168 2.413 . S
O217 C232 1.256 . S
O218 Tb179 2.546 . S
O218 C243 1.251 . S
O219 Tb168 2.362 . S
O219 Tb179 2.610 . S
O219 C235 1.283 . S
O220 Tb168 2.421 . S
O220 C242 1.262 . S
O221 Tb179 2.320 . S
O221 C242 1.260 . S
O222 Tb179 2.552 . S
O222 C235 1.243 . S
O223 Tb179 2.413 . S
O223 C243 1.256 . S
C224 O213 1.283 . S
C224 O216 1.243 . S
C225 C227 1.382 . S
C225 C229 1.393 . S
C225 C232 1.500 . S
C226 C227 1.400 . S
C226 C228 1.384 . S
C227 C225 1.382 . S
C227 C226 1.400 . S
C227 H244 0.930 . S
C228 C226 1.384 . S
C228 C230 1.392 . S
C228 H245 0.931 . S
C229 C225 1.393 . S
C229 C230 1.401 . S
C229 H246 0.930 . S
C230 C228 1.392 . S
C230 C229 1.401 . S
C230 H247 0.930 . S
C231 O214 1.262 . S
C231 O215 1.260 . S
C232 Tb168 2.833 . S
C232 O212 1.251 . S
C232 O217 1.256 . S
C232 C225 1.500 . S
C233 H198 0.937 . S
C233 C211 1.432 1_565 S
C233 C234 1.322 . S
C234 H196 0.930 . S
C234 C202 1.432 1_565 S
C234 C233 1.322 . S
C235 O219 1.283 . S
C235 O222 1.243 . S
C236 C237 1.382 . S
C236 C240 1.393 . S
C236 C243 1.500 1_455 S
C237 C236 1.382 . S
C237 C238 1.400 . S
C237 H248 0.930 . S
C238 C237 1.400 . S
C238 C239 1.384 . S
C239 C238 1.384 . S
C239 C241 1.392 . S
C239 H249 0.931 . S
C240 C236 1.393 . S
C240 C241 1.401 . S
C240 H250 0.930 . S
C241 C239 1.392 . S
C241 C240 1.401 . S
C241 H251 0.930 . S
C242 O220 1.262 . S
C242 O221 1.260 . S
C243 Tb179 2.833 . S
C243 O218 1.251 . S
C243 O223 1.256 . S
C243 C236 1.500 1_655 S
H244 C227 0.930 . S
H245 C228 0.931 . S
H246 C229 0.930 . S
H247 C230 0.930 . S
H248 C237 0.930 . S
H249 C239 0.931 . S
H250 C240 0.930 . S
H251 C241 0.930 . S
Tb252 N283 2.660 . S
Tb252 N290 2.600 . S
Tb252 O296 2.546 . S
Tb252 O297 2.610 . S
Tb252 O299 2.320 . S
Tb252 O300 2.552 . S
Tb252 O301 2.413 . S
Tb252 O303 2.362 . S
Tb252 O304 2.421 . S
Tb252 C316 2.833 . S
C253 C256 1.432 . S
C253 C257 1.414 . S
C253 N260 1.359 . S
C254 C256 1.417 . S
C254 C258 1.432 . S
C254 C266 1.410 . S
C255 C257 1.444 . S
C255 C258 1.317 . S
C255 H278 0.929 . S
C256 C253 1.432 . S
C256 C254 1.417 . S
C256 N264 1.360 . S
C257 C253 1.414 . S
C257 C255 1.444 . S
C257 C262 1.385 . S
C258 C254 1.432 . S
C258 C255 1.317 . S
C258 H270 0.930 . S
C259 C261 1.392 . S
C259 C262 1.370 . S
C259 H271 0.931 . S
N260 C253 1.359 . S
N260 C261 1.327 . S
N260 Tb263 2.600 . S
C261 C259 1.392 . S
C261 N260 1.327 . S
C261 H268 0.930 . S
C262 C257 1.385 . S
C262 C259 1.370 . S
C262 H281 0.930 . S
Tb263 N260 2.600 . S
Tb263 N264 2.660 . S
Tb263 O297 2.362 . S
Tb263 O298 2.421 . S
Tb263 O302 2.546 . S
Tb263 O303 2.610 . S
Tb263 O305 2.320 . S
Tb263 O306 2.552 . S
Tb263 O307 2.413 . S
Tb263 C327 2.833 . S
N264 C256 1.360 . S
N264 Tb263 2.660 . S
N264 C265 1.305 . S
C265 N264 1.305 . S
C265 C267 1.407 . S
C265 H272 0.930 . S
C266 C254 1.410 . S
C266 C267 1.345 . S
C266 H274 0.930 . S
C267 C265 1.407 . S
C267 C266 1.345 . S
C267 H269 0.930 . S
H268 C261 0.930 . S
H269 C267 0.930 . S
H270 C258 0.930 . S
H271 C259 0.931 . S
H272 C265 0.930 . S
H273 C287 0.930 . S
H274 C266 0.930 . S
H275 C293 0.930 . S
H276 C284 0.930 . S
H277 C291 0.931 . S
H278 C255 0.929 . S
H279 C285 0.930 . S
H280 C318 0.930 1_565 S
H281 C262 0.930 . S
H282 C317 0.929 1_565 S
N283 Tb252 2.660 . S
N283 C284 1.305 . S
N283 C288 1.360 . S
C284 H276 0.930 . S
C284 N283 1.305 . S
C284 C287 1.407 . S
C285 H279 0.930 . S
C285 C286 1.410 . S
C285 C287 1.345 . S
C286 C285 1.410 . S
C286 C288 1.417 . S
C286 C318 1.432 . S
C287 H273 0.930 . S
C287 C284 1.407 . S
C287 C285 1.345 . S
C288 N283 1.360 . S
C288 C286 1.417 . S
C288 C292 1.432 . S
H289 C294 0.930 . S
N290 Tb252 2.600 . S
N290 C292 1.359 . S
N290 C293 1.327 . S
C291 H277 0.931 . S
C291 C293 1.392 . S
C291 C294 1.370 . S
C292 C288 1.432 . S
C292 N290 1.359 . S
C292 C295 1.414 . S
C293 H275 0.930 . S
C293 N290 1.327 . S
C293 C291 1.392 . S
C294 H289 0.930 . S
C294 C291 1.370 . S
C294 C295 1.385 . S
C295 C292 1.414 . S
C295 C294 1.385 . S
C295 C317 1.444 . S
O296 Tb252 2.546 . S
O296 C316 1.251 . S
O297 Tb252 2.610 . S
O297 Tb263 2.362 . S
O297 C308 1.283 . S
O298 Tb263 2.421 . S
O298 C315 1.262 . S
O299 Tb252 2.320 . S
O299 C315 1.260 . S
O300 Tb252 2.552 . S
O300 C308 1.243 . S
O301 Tb252 2.413 . S
O301 C316 1.256 . S
O302 Tb263 2.546 . S
O302 C327 1.251 . S
O303 Tb252 2.362 . S
O303 Tb263 2.610 . S
O303 C319 1.283 . S
O304 Tb252 2.421 . S
O304 C326 1.262 . S
O305 Tb263 2.320 . S
O305 C326 1.260 . S
O306 Tb263 2.552 . S
O306 C319 1.243 . S
O307 Tb263 2.413 . S
O307 C327 1.256 . S
C308 O297 1.283 . S
C308 O300 1.243 . S
C309 C311 1.382 . S
C309 C313 1.393 . S
C309 C316 1.500 1_565 S
C310 C311 1.400 . S
C310 C312 1.384 . S
C311 C309 1.382 . S
C311 C310 1.400 . S
C311 H328 0.930 . S
C312 C310 1.384 . S
C312 C314 1.392 . S
C312 H329 0.931 . S
C313 C309 1.393 . S
C313 C314 1.401 . S
C313 H330 0.930 . S
C314 C312 1.392 . S
C314 C313 1.401 . S
C314 H331 0.930 . S
C315 O298 1.262 . S
C315 O299 1.260 . S
C316 Tb252 2.833 . S
C316 O296 1.251 . S
C316 O301 1.256 . S
C316 C309 1.500 1_545 S
C317 H282 0.929 1_545 S
C317 C295 1.444 . S
C317 C318 1.317 . S
C318 H280 0.930 1_545 S
C318 C286 1.432 . S
C318 C317 1.317 . S
C319 O303 1.283 . S
C319 O306 1.243 . S
C320 C321 1.382 . S
C320 C324 1.393 . S
C320 C327 1.500 . S
C321 C320 1.382 . S
C321 C322 1.400 . S
C321 H332 0.930 . S
C322 C321 1.400 . S
C322 C323 1.384 . S
C323 C322 1.384 . S
C323 C325 1.392 . S
C323 H333 0.931 . S
C324 C320 1.393 . S
C324 C325 1.401 . S
C324 H334 0.930 . S
C325 C323 1.392 . S
C325 C324 1.401 . S
C325 H335 0.930 . S
C326 O304 1.262 . S
C326 O305 1.260 . S
C327 Tb263 2.833 . S
C327 O302 1.251 . S
C327 O307 1.256 . S
C327 C320 1.500 . S
H328 C311 0.930 . S
H329 C312 0.931 . S
H330 C313 0.930 . S
H331 C314 0.930 . S
H332 C321 0.930 . S
H333 C323 0.931 . S
H334 C324 0.930 . S
H335 C325 0.930 . S
Tb336 N367 2.660 . S
Tb336 N374 2.600 . S
Tb336 O380 2.546 . S
Tb336 O381 2.610 . S
Tb336 O383 2.320 . S
Tb336 O384 2.552 . S
Tb336 O385 2.413 . S
Tb336 O387 2.362 . S
Tb336 O388 2.421 . S
Tb336 C400 2.833 . S
C337 C340 1.432 . S
C337 C341 1.414 . S
C337 N344 1.359 . S
C338 C340 1.417 . S
C338 C342 1.432 . S
C338 C350 1.410 . S
C339 C341 1.444 . S
C339 C342 1.317 . S
C339 H362 0.929 . S
C340 C337 1.432 . S
C340 C338 1.417 . S
C340 N348 1.360 . S
C341 C337 1.414 . S
C341 C339 1.444 . S
C341 C346 1.385 . S
C342 C338 1.432 . S
C342 C339 1.317 . S
C342 H354 0.930 . S
C343 C345 1.392 . S
C343 C346 1.370 . S
C343 H355 0.931 . S
N344 C337 1.359 . S
N344 C345 1.327 . S
N344 Tb347 2.600 . S
C345 C343 1.392 . S
C345 N344 1.327 . S
C345 H352 0.930 . S
C346 C341 1.385 . S
C346 C343 1.370 . S
C346 H365 0.930 . S
Tb347 N344 2.600 . S
Tb347 N348 2.660 . S
Tb347 O381 2.362 . S
Tb347 O382 2.421 . S
Tb347 O386 2.546 . S
Tb347 O387 2.610 . S
Tb347 O389 2.320 . S
Tb347 O390 2.552 . S
Tb347 O391 2.413 . S
Tb347 C411 2.833 . S
N348 C340 1.360 . S
N348 Tb347 2.660 . S
N348 C349 1.305 . S
C349 N348 1.305 . S
C349 C351 1.407 . S
C349 H356 0.930 . S
C350 C338 1.410 . S
C350 C351 1.345 . S
C350 H358 0.930 . S
C351 C349 1.407 . S
C351 C350 1.345 . S
C351 H353 0.930 . S
H352 C345 0.930 . S
H353 C351 0.930 . S
H354 C342 0.930 . S
H355 C343 0.931 . S
H356 C349 0.930 . S
H357 C371 0.930 . S
H358 C350 0.930 . S
H359 C377 0.930 . S
H360 C368 0.930 . S
H361 C375 0.931 . S
H362 C339 0.929 . S
H363 C369 0.930 1_455 S
H364 C402 0.930 . S
H365 C346 0.930 . S
H366 C401 0.939 . S
N367 Tb336 2.660 . S
N367 C368 1.305 . S
N367 C372 1.360 . S
C368 H360 0.930 . S
C368 N367 1.305 . S
C368 C371 1.407 . S
C369 H363 0.930 1_655 S
C369 C370 1.410 . S
C369 C371 1.345 . S
C370 C369 1.410 . S
C370 C372 1.417 . S
C370 C402 1.432 1_655 S
C371 H357 0.930 . S
C371 C368 1.407 . S
C371 C369 1.345 . S
C372 N367 1.360 . S
C372 C370 1.417 . S
C372 C376 1.432 . S
H373 C378 0.930 . S
N374 Tb336 2.600 . S
N374 C376 1.359 . S
N374 C377 1.327 . S
C375 H361 0.931 . S
C375 C377 1.392 . S
C375 C378 1.370 . S
C376 C372 1.432 . S
C376 N374 1.359 . S
C376 C379 1.414 . S
C377 H359 0.930 . S
C377 N374 1.327 . S
C377 C375 1.392 . S
C378 H373 0.930 . S
C378 C375 1.370 . S
C378 C379 1.385 . S
C379 C376 1.414 . S
C379 C378 1.385 . S
C379 C401 1.431 1_655 S
O380 Tb336 2.546 . S
O380 C400 1.251 . S
O381 Tb336 2.610 . S
O381 Tb347 2.362 . S
O381 C392 1.283 . S
O382 Tb347 2.421 . S
O382 C399 1.262 . S
O383 Tb336 2.320 . S
O383 C399 1.260 . S
O384 Tb336 2.552 . S
O384 C392 1.243 . S
O385 Tb336 2.413 . S
O385 C400 1.256 . S
O386 Tb347 2.546 . S
O386 C411 1.251 . S
O387 Tb336 2.362 . S
O387 Tb347 2.610 . S
O387 C403 1.283 . S
O388 Tb336 2.421 . S
O388 C410 1.262 . S
O389 Tb347 2.320 . S
O389 C410 1.260 . S
O390 Tb347 2.552 . S
O390 C403 1.243 . S
O391 Tb347 2.413 . S
O391 C411 1.256 . S
C392 O381 1.283 . S
C392 O384 1.243 . S
C393 C395 1.382 . S
C393 C397 1.393 . S
C393 C400 1.500 . S
C394 C395 1.400 . S
C394 C396 1.384 . S
C395 C393 1.382 . S
C395 C394 1.400 . S
C395 H412 0.930 . S
C396 C394 1.384 . S
C396 C398 1.392 . S
C396 H413 0.931 . S
C397 C393 1.393 . S
C397 C398 1.401 . S
C397 H414 0.930 . S
C398 C396 1.392 . S
C398 C397 1.401 . S
C398 H415 0.930 . S
C399 O382 1.262 . S
C399 O383 1.260 . S
C400 Tb336 2.833 . S
C400 O380 1.251 . S
C400 O385 1.256 . S
C400 C393 1.500 . S
C401 H366 0.939 . S
C401 C379 1.431 1_455 S
C401 C402 1.320 . S
C402 H364 0.930 . S
C402 C370 1.432 1_455 S
C402 C401 1.320 . S
C403 O387 1.283 . S
C403 O390 1.243 . S
C404 C405 1.382 . S
C404 C408 1.393 . S
C404 C411 1.500 . S
C405 C404 1.382 . S
C405 C406 1.400 . S
C405 H416 0.930 . S
C406 C405 1.400 . S
C406 C407 1.384 . S
C407 C406 1.384 . S
C407 C409 1.392 . S
C407 H417 0.931 . S
C408 C404 1.393 . S
C408 C409 1.401 . S
C408 H418 0.930 . S
C409 C407 1.392 . S
C409 C408 1.401 . S
C409 H419 0.930 . S
C410 O388 1.262 . S
C410 O389 1.260 . S
C411 Tb347 2.833 . S
C411 O386 1.251 . S
C411 O391 1.256 . S
C411 C404 1.500 . S
H412 C395 0.930 . S
H413 C396 0.931 . S
H414 C397 0.930 . S
H415 C398 0.930 . S
H416 C405 0.930 . S
H417 C407 0.931 . S
H418 C408 0.930 . S
H419 C409 0.930 . S
Tb420 N451 2.660 . S
Tb420 N458 2.600 . S
Tb420 O464 2.546 . S
Tb420 O465 2.610 . S
Tb420 O467 2.320 . S
Tb420 O468 2.552 . S
Tb420 O469 2.413 . S
Tb420 O471 2.362 . S
Tb420 O472 2.421 . S
Tb420 C484 2.833 . S
C421 C424 1.432 . S
C421 C425 1.414 . S
C421 N428 1.359 . S
C422 C424 1.417 . S
C422 C426 1.432 1_545 S
C422 C434 1.410 . S
C423 C425 1.432 1_565 S
C423 C426 1.322 . S
C423 H446 0.937 . S
C424 C421 1.432 . S
C424 C422 1.417 . S
C424 N432 1.360 . S
C425 C421 1.414 . S
C425 C423 1.432 1_545 S
C425 C430 1.385 . S
C426 C422 1.432 1_565 S
C426 C423 1.322 . S
C426 H438 0.930 . S
C427 C429 1.392 . S
C427 C430 1.370 . S
C427 H439 0.931 . S
N428 C421 1.359 . S
N428 C429 1.327 . S
N428 Tb431 2.600 . S
C429 C427 1.392 . S
C429 N428 1.327 . S
C429 H436 0.930 . S
C430 C425 1.385 . S
C430 C427 1.370 . S
C430 H449 0.930 . S
Tb431 N428 2.600 . S
Tb431 N432 2.660 . S
Tb431 O465 2.362 . S
Tb431 O466 2.421 . S
Tb431 O470 2.546 . S
Tb431 O471 2.610 . S
Tb431 O473 2.320 . S
Tb431 O474 2.552 . S
Tb431 O475 2.413 . S
Tb431 C495 2.833 . S
N432 C424 1.360 . S
N432 Tb431 2.660 . S
N432 C433 1.305 . S
C433 N432 1.305 . S
C433 C435 1.407 . S
C433 H440 0.930 . S
C434 C422 1.410 . S
C434 C435 1.345 . S
C434 H442 0.930 1_545 S
C435 C433 1.407 . S
C435 C434 1.345 . S
C435 H437 0.930 . S
H436 C429 0.930 . S
H437 C435 0.930 . S
H438 C426 0.930 . S
H439 C427 0.931 . S
H440 C433 0.930 . S
H441 C455 0.930 . S
H442 C434 0.930 1_565 S
H443 C461 0.930 . S
H444 C452 0.930 . S
H445 C459 0.931 . S
H446 C423 0.937 . S
H447 C453 0.930 . S
H448 C486 0.930 1_455 S
H449 C430 0.930 . S
H450 C485 0.929 1_455 S
N451 Tb420 2.660 . S
N451 C452 1.305 . S
N451 C456 1.360 . S
C452 H444 0.930 . S
C452 N451 1.305 . S
C452 C455 1.407 . S
C453 H447 0.930 . S
C453 C454 1.410 . S
C453 C455 1.345 . S
C454 C453 1.410 . S
C454 C456 1.417 . S
C454 C486 1.432 . S
C455 H441 0.930 . S
C455 C452 1.407 . S
C455 C453 1.345 . S
C456 N451 1.360 . S
C456 C454 1.417 . S
C456 C460 1.432 . S
H457 C462 0.930 . S
N458 Tb420 2.600 . S
N458 C460 1.359 . S
N458 C461 1.327 . S
C459 H445 0.931 . S
C459 C461 1.392 . S
C459 C462 1.370 . S
C460 C456 1.432 . S
C460 N458 1.359 . S
C460 C463 1.414 . S
C461 H443 0.930 . S
C461 N458 1.327 . S
C461 C459 1.392 . S
C462 H457 0.930 . S
C462 C459 1.370 . S
C462 C463 1.385 . S
C463 C460 1.414 . S
C463 C462 1.385 . S
C463 C485 1.444 . S
O464 Tb420 2.546 . S
O464 C484 1.251 . S
O465 Tb420 2.610 . S
O465 Tb431 2.362 . S
O465 C476 1.283 . S
O466 Tb431 2.421 . S
O466 C483 1.262 . S
O467 Tb420 2.320 . S
O467 C483 1.260 . S
O468 Tb420 2.552 . S
O468 C476 1.243 . S
O469 Tb420 2.413 . S
O469 C484 1.256 . S
O470 Tb431 2.546 . S
O470 C495 1.251 . S
O471 Tb420 2.362 . S
O471 Tb431 2.610 . S
O471 C487 1.283 . S
O472 Tb420 2.421 . S
O472 C494 1.262 . S
O473 Tb431 2.320 . S
O473 C494 1.260 . S
O474 Tb431 2.552 . S
O474 C487 1.243 . S
O475 Tb431 2.413 . S
O475 C495 1.256 . S
C476 O465 1.283 . S
C476 O468 1.243 . S
C477 C479 1.382 . S
C477 C481 1.393 . S
C477 C484 1.500 1_455 S
C478 C479 1.400 . S
C478 C480 1.384 . S
C479 C477 1.382 . S
C479 C478 1.400 . S
C479 H496 0.930 . S
C480 C478 1.384 . S
C480 C482 1.392 . S
C480 H497 0.931 . S
C481 C477 1.393 . S
C481 C482 1.401 . S
C481 H498 0.930 . S
C482 C480 1.392 . S
C482 C481 1.401 . S
C482 H499 0.930 . S
C483 O466 1.262 . S
C483 O467 1.260 . S
C484 Tb420 2.833 . S
C484 O464 1.251 . S
C484 O469 1.256 . S
C484 C477 1.500 1_655 S
C485 H450 0.929 1_655 S
C485 C463 1.444 . S
C485 C486 1.317 . S
C486 H448 0.930 1_655 S
C486 C454 1.432 . S
C486 C485 1.317 . S
C487 O471 1.283 . S
C487 O474 1.243 . S
C488 C489 1.382 . S
C488 C492 1.393 . S
C488 C495 1.500 . S
C489 C488 1.382 . S
C489 C490 1.400 . S
C489 H500 0.930 . S
C490 C489 1.400 . S
C490 C491 1.384 . S
C491 C490 1.384 . S
C491 C493 1.392 . S
C491 H501 0.931 . S
C492 C488 1.393 . S
C492 C493 1.401 . S
C492 H502 0.930 . S
C493 C491 1.392 . S
C493 C492 1.401 . S
C493 H503 0.930 . S
C494 O472 1.262 . S
C494 O473 1.260 . S
C495 Tb431 2.833 . S
C495 O470 1.251 . S
C495 O475 1.256 . S
C495 C488 1.500 . S
H496 C479 0.930 . S
H497 C480 0.931 . S
H498 C481 0.930 . S
H499 C482 0.930 . S
H500 C489 0.930 . S
H501 C491 0.931 . S
H502 C492 0.930 . S
H503 C493 0.930 . S
Tb504 N535 2.660 . S
Tb504 N542 2.600 . S
Tb504 O548 2.546 . S
Tb504 O549 2.610 . S
Tb504 O551 2.320 . S
Tb504 O552 2.552 . S
Tb504 O553 2.413 . S
Tb504 O555 2.362 . S
Tb504 O556 2.421 . S
Tb504 C568 2.833 . S
C505 C508 1.432 . S
C505 C509 1.414 . S
C505 N512 1.359 . S
C506 C508 1.417 . S
C506 C510 1.432 . S
C506 C518 1.410 . S
C507 C509 1.444 . S
C507 C510 1.317 . S
C507 H530 0.929 . S
C508 C505 1.432 . S
C508 C506 1.417 . S
C508 N516 1.360 . S
C509 C505 1.414 . S
C509 C507 1.444 . S
C509 C514 1.385 . S
C510 C506 1.432 . S
C510 C507 1.317 . S
C510 H522 0.930 . S
C511 C513 1.392 . S
C511 C514 1.370 . S
C511 H523 0.931 . S
N512 C505 1.359 . S
N512 C513 1.327 . S
N512 Tb515 2.600 . S
C513 C511 1.392 . S
C513 N512 1.327 . S
C513 H520 0.930 . S
C514 C509 1.385 . S
C514 C511 1.370 . S
C514 H533 0.930 . S
Tb515 N512 2.600 . S
Tb515 N516 2.660 . S
Tb515 O549 2.362 . S
Tb515 O550 2.421 . S
Tb515 O554 2.546 . S
Tb515 O555 2.610 . S
Tb515 O557 2.320 . S
Tb515 O558 2.552 . S
Tb515 O559 2.413 . S
Tb515 C579 2.833 . S
N516 C508 1.360 . S
N516 Tb515 2.660 . S
N516 C517 1.305 . S
C517 N516 1.305 . S
C517 C519 1.407 . S
C517 H524 0.930 . S
C518 C506 1.410 . S
C518 C519 1.345 . S
C518 H526 0.930 . S
C519 C517 1.407 . S
C519 C518 1.345 . S
C519 H521 0.930 . S
H520 C513 0.930 . S
H521 C519 0.930 . S
H522 C510 0.930 . S
H523 C511 0.931 . S
H524 C517 0.930 . S
H525 C539 0.930 . S
H526 C518 0.930 . S
H527 C545 0.930 . S
H528 C536 0.930 . S
H529 C543 0.931 . S
H530 C507 0.929 . S
H531 C537 0.930 . S
H532 C570 0.930 1_655 S
H533 C514 0.930 . S
H534 C569 0.929 1_655 S
N535 Tb504 2.660 . S
N535 C536 1.305 . S
N535 C540 1.360 . S
C536 H528 0.930 . S
C536 N535 1.305 . S
C536 C539 1.407 . S
C537 H531 0.930 . S
C537 C538 1.410 . S
C537 C539 1.345 . S
C538 C537 1.410 . S
C538 C540 1.417 . S
C538 C570 1.432 . S
C539 H525 0.930 . S
C539 C536 1.407 . S
C539 C537 1.345 . S
C540 N535 1.360 . S
C540 C538 1.417 . S
C540 C544 1.432 . S
H541 C546 0.930 . S
N542 Tb504 2.600 . S
N542 C544 1.359 . S
N542 C545 1.327 . S
C543 H529 0.931 . S
C543 C545 1.392 . S
C543 C546 1.370 . S
C544 C540 1.432 . S
C544 N542 1.359 . S
C544 C547 1.414 . S
C545 H527 0.930 . S
C545 N542 1.327 . S
C545 C543 1.392 . S
C546 H541 0.930 . S
C546 C543 1.370 . S
C546 C547 1.385 . S
C547 C544 1.414 . S
C547 C546 1.385 . S
C547 C569 1.444 . S
O548 Tb504 2.546 . S
O548 C568 1.251 . S
O549 Tb504 2.610 . S
O549 Tb515 2.362 . S
O549 C560 1.283 . S
O550 Tb515 2.421 . S
O550 C567 1.262 . S
O551 Tb504 2.320 . S
O551 C567 1.260 . S
O552 Tb504 2.552 . S
O552 C560 1.243 . S
O553 Tb504 2.413 . S
O553 C568 1.256 . S
O554 Tb515 2.546 . S
O554 C579 1.251 . S
O555 Tb504 2.362 . S
O555 Tb515 2.610 . S
O555 C571 1.283 . S
O556 Tb504 2.421 . S
O556 C578 1.262 . S
O557 Tb515 2.320 . S
O557 C578 1.260 . S
O558 Tb515 2.552 . S
O558 C571 1.243 . S
O559 Tb515 2.413 . S
O559 C579 1.256 . S
C560 O549 1.283 . S
C560 O552 1.243 . S
C561 C563 1.382 . S
C561 C565 1.393 . S
C561 C568 1.500 1_655 S
C562 C563 1.400 . S
C562 C564 1.384 . S
C563 C561 1.382 . S
C563 C562 1.400 . S
C563 H580 0.930 . S
C564 C562 1.384 . S
C564 C566 1.392 . S
C564 H581 0.931 . S
C565 C561 1.393 . S
C565 C566 1.401 . S
C565 H582 0.930 . S
C566 C564 1.392 . S
C566 C565 1.401 . S
C566 H583 0.930 . S
C567 O550 1.262 . S
C567 O551 1.260 . S
C568 Tb504 2.833 . S
C568 O548 1.251 . S
C568 O553 1.256 . S
C568 C561 1.500 1_455 S
C569 H534 0.929 1_455 S
C569 C547 1.444 . S
C569 C570 1.317 . S
C570 H532 0.930 1_455 S
C570 C538 1.432 . S
C570 C569 1.317 . S
C571 O555 1.283 . S
C571 O558 1.243 . S
C572 C573 1.382 . S
C572 C576 1.393 . S
C572 C579 1.500 . S
C573 C572 1.382 . S
C573 C574 1.400 . S
C573 H584 0.930 . S
C574 C573 1.400 . S
C574 C575 1.384 . S
C575 C574 1.384 . S
C575 C577 1.392 . S
C575 H585 0.931 . S
C576 C572 1.393 . S
C576 C577 1.401 . S
C576 H586 0.930 . S
C577 C575 1.392 . S
C577 C576 1.401 . S
C577 H587 0.930 . S
C578 O556 1.262 . S
C578 O557 1.260 . S
C579 Tb515 2.833 . S
C579 O554 1.251 . S
C579 O559 1.256 . S
C579 C572 1.500 . S
H580 C563 0.930 . S
H581 C564 0.931 . S
H582 C565 0.930 . S
H583 C566 0.930 . S
H584 C573 0.930 . S
H585 C575 0.931 . S
H586 C576 0.930 . S
H587 C577 0.930 . S
Tb588 N619 2.660 . S
Tb588 N626 2.600 . S
Tb588 O632 2.546 . S
Tb588 O633 2.610 . S
Tb588 O635 2.320 . S
Tb588 O636 2.552 . S
Tb588 O637 2.413 . S
Tb588 O639 2.362 . S
Tb588 O640 2.421 . S
Tb588 C652 2.833 . S
C589 C592 1.432 . S
C589 C593 1.414 . S
C589 N596 1.359 . S
C590 C592 1.417 . S
C590 C594 1.432 . S
C590 C602 1.410 . S
C591 C593 1.444 . S
C591 C594 1.317 . S
C591 H614 0.929 1_565 S
C592 C589 1.432 . S
C592 C590 1.417 . S
C592 N600 1.360 . S
C593 C589 1.414 . S
C593 C591 1.444 . S
C593 C598 1.385 . S
C594 C590 1.432 . S
C594 C591 1.317 . S
C594 H606 0.930 1_565 S
C595 C597 1.392 . S
C595 C598 1.370 . S
C595 H607 0.931 . S
N596 C589 1.359 . S
N596 C597 1.327 . S
N596 Tb599 2.600 . S
C597 C595 1.392 . S
C597 N596 1.327 . S
C597 H604 0.930 . S
C598 C593 1.385 . S
C598 C595 1.370 . S
C598 H617 0.930 . S
Tb599 N596 2.600 . S
Tb599 N600 2.660 . S
Tb599 O633 2.362 . S
Tb599 O634 2.421 . S
Tb599 O638 2.546 . S
Tb599 O639 2.610 . S
Tb599 O641 2.320 . S
Tb599 O642 2.552 . S
Tb599 O643 2.413 . S
Tb599 C663 2.833 . S
N600 C592 1.360 . S
N600 Tb599 2.660 . S
N600 C601 1.305 . S
C601 N600 1.305 . S
C601 C603 1.407 . S
C601 H608 0.930 . S
C602 C590 1.410 . S
C602 C603 1.345 . S
C602 H610 0.930 . S
C603 C601 1.407 . S
C603 C602 1.345 . S
C603 H605 0.930 . S
H604 C597 0.930 . S
H605 C603 0.930 . S
H606 C594 0.930 1_545 S
H607 C595 0.931 . S
H608 C601 0.930 . S
H609 C623 0.930 . S
H610 C602 0.930 . S
H611 C629 0.930 . S
H612 C620 0.930 . S
H613 C627 0.931 . S
H614 C591 0.929 1_545 S
H615 C621 0.930 1_655 S
H616 C654 0.930 . S
H617 C598 0.930 . S
H618 C653 0.937 . S
N619 Tb588 2.660 . S
N619 C620 1.305 . S
N619 C624 1.360 . S
C620 H612 0.930 . S
C620 N619 1.305 . S
C620 C623 1.407 . S
C621 H615 0.930 1_455 S
C621 C622 1.410 . S
C621 C623 1.345 . S
C622 C621 1.410 . S
C622 C624 1.417 . S
C622 C654 1.432 1_455 S
C623 H609 0.930 . S
C623 C620 1.407 . S
C623 C621 1.345 . S
C624 N619 1.360 . S
C624 C622 1.417 . S
C624 C628 1.432 . S
H625 C630 0.930 . S
N626 Tb588 2.600 . S
N626 C628 1.359 . S
N626 C629 1.327 . S
C627 H613 0.931 . S
C627 C629 1.392 . S
C627 C630 1.370 . S
C628 C624 1.432 . S
C628 N626 1.359 . S
C628 C631 1.414 . S
C629 H611 0.930 . S
C629 N626 1.327 . S
C629 C627 1.392 . S
C630 H625 0.930 . S
C630 C627 1.370 . S
C630 C631 1.385 . S
C631 C628 1.414 . S
C631 C630 1.385 . S
C631 C653 1.432 1_455 S
O632 Tb588 2.546 . S
O632 C652 1.251 . S
O633 Tb588 2.610 . S
O633 Tb599 2.362 . S
O633 C644 1.283 . S
O634 Tb599 2.421 . S
O634 C651 1.262 . S
O635 Tb588 2.320 . S
O635 C651 1.260 . S
O636 Tb588 2.552 . S
O636 C644 1.243 . S
O637 Tb588 2.413 . S
O637 C652 1.256 . S
O638 Tb599 2.546 . S
O638 C663 1.251 . S
O639 Tb588 2.362 . S
O639 Tb599 2.610 . S
O639 C655 1.283 . S
O640 Tb588 2.421 . S
O640 C662 1.262 . S
O641 Tb599 2.320 . S
O641 C662 1.260 . S
O642 Tb599 2.552 . S
O642 C655 1.243 . S
O643 Tb599 2.413 . S
O643 C663 1.256 . S
C644 O633 1.283 . S
C644 O636 1.243 . S
C645 C647 1.382 . S
C645 C649 1.393 . S
C645 C652 1.500 . S
C646 C647 1.400 . S
C646 C648 1.384 . S
C647 C645 1.382 . S
C647 C646 1.400 . S
C647 H664 0.930 . S
C648 C646 1.384 . S
C648 C650 1.392 . S
C648 H665 0.931 . S
C649 C645 1.393 . S
C649 C650 1.401 . S
C649 H666 0.930 . S
C650 C648 1.392 . S
C650 C649 1.401 . S
C650 H667 0.930 . S
C651 O634 1.262 . S
C651 O635 1.260 . S
C652 Tb588 2.833 . S
C652 O632 1.251 . S
C652 O637 1.256 . S
C652 C645 1.500 . S
C653 H618 0.937 . S
C653 C631 1.432 1_655 S
C653 C654 1.322 . S
C654 H616 0.930 . S
C654 C622 1.432 1_655 S
C654 C653 1.322 . S
C655 O639 1.283 . S
C655 O642 1.243 . S
C656 C657 1.382 . S
C656 C660 1.393 . S
C656 C663 1.500 1_545 S
C657 C656 1.382 . S
C657 C658 1.400 . S
C657 H668 0.930 . S
C658 C657 1.400 . S
C658 C659 1.384 . S
C659 C658 1.384 . S
C659 C661 1.392 . S
C659 H669 0.931 . S
C660 C656 1.393 . S
C660 C661 1.401 . S
C660 H670 0.930 . S
C661 C659 1.392 . S
C661 C660 1.401 . S
C661 H671 0.930 . S
C662 O640 1.262 . S
C662 O641 1.260 . S
C663 Tb599 2.833 . S
C663 O638 1.251 . S
C663 O643 1.256 . S
C663 C656 1.500 1_565 S
H664 C647 0.930 . S
H665 C648 0.931 . S
H666 C649 0.930 . S
H667 C650 0.930 . S
H668 C657 0.930 . S
H669 C659 0.931 . S
H670 C660 0.930 . S
H671 C661 0.930 . S
Tb672 N703 2.660 . S
Tb672 N710 2.600 . S
Tb672 O716 2.546 . S
Tb672 O717 2.610 . S
Tb672 O719 2.320 . S
Tb672 O720 2.552 . S
Tb672 O721 2.413 . S
Tb672 O723 2.362 . S
Tb672 O724 2.421 . S
Tb672 C736 2.833 . S
C673 C676 1.432 . S
C673 C677 1.414 . S
C673 N680 1.359 . S
C674 C676 1.417 . S
C674 C678 1.432 1_565 S
C674 C686 1.410 . S
C675 C677 1.431 1_545 S
C675 C678 1.320 . S
C675 H698 0.939 . S
C676 C673 1.432 . S
C676 C674 1.417 . S
C676 N684 1.360 . S
C677 C673 1.414 . S
C677 C675 1.431 1_565 S
C677 C682 1.385 . S
C678 C674 1.432 1_545 S
C678 C675 1.320 . S
C678 H690 0.930 . S
C679 C681 1.392 . S
C679 C682 1.370 . S
C679 H691 0.931 . S
N680 C673 1.359 . S
N680 C681 1.327 . S
N680 Tb683 2.600 . S
C681 C679 1.392 . S
C681 N680 1.327 . S
C681 H688 0.930 . S
C682 C677 1.385 . S
C682 C679 1.370 . S
C682 H701 0.930 . S
Tb683 N680 2.600 . S
Tb683 N684 2.660 . S
Tb683 O717 2.362 . S
Tb683 O718 2.421 . S
Tb683 O722 2.546 . S
Tb683 O723 2.610 . S
Tb683 O725 2.320 . S
Tb683 O726 2.552 . S
Tb683 O727 2.413 . S
Tb683 C747 2.833 . S
N684 C676 1.360 . S
N684 Tb683 2.660 . S
N684 C685 1.305 . S
C685 N684 1.305 . S
C685 C687 1.407 . S
C685 H692 0.930 . S
C686 C674 1.410 . S
C686 C687 1.345 . S
C686 H694 0.930 1_565 S
C687 C685 1.407 . S
C687 C686 1.345 . S
C687 H689 0.930 . S
H688 C681 0.930 . S
H689 C687 0.930 . S
H690 C678 0.930 . S
H691 C679 0.931 . S
H692 C685 0.930 . S
H693 C707 0.930 . S
H694 C686 0.930 1_545 S
H695 C713 0.930 . S
H696 C704 0.930 . S
H697 C711 0.931 . S
H698 C675 0.939 . S
H699 C705 0.930 . S
H700 C738 0.930 . S
H701 C682 0.930 . S
H702 C737 0.929 . S
N703 Tb672 2.660 . S
N703 C704 1.305 . S
N703 C708 1.360 . S
C704 H696 0.930 . S
C704 N703 1.305 . S
C704 C707 1.407 . S
C705 H699 0.930 . S
C705 C706 1.410 . S
C705 C707 1.345 . S
C706 C705 1.410 . S
C706 C708 1.417 . S
C706 C738 1.432 . S
C707 H693 0.930 . S
C707 C704 1.407 . S
C707 C705 1.345 . S
C708 N703 1.360 . S
C708 C706 1.417 . S
C708 C712 1.432 . S
H709 C714 0.930 . S
N710 Tb672 2.600 . S
N710 C712 1.359 . S
N710 C713 1.327 . S
C711 H697 0.931 . S
C711 C713 1.392 . S
C711 C714 1.370 . S
C712 C708 1.432 . S
C712 N710 1.359 . S
C712 C715 1.414 . S
C713 H695 0.930 . S
C713 N710 1.327 . S
C713 C711 1.392 . S
C714 H709 0.930 . S
C714 C711 1.370 . S
C714 C715 1.385 . S
C715 C712 1.414 . S
C715 C714 1.385 . S
C715 C737 1.444 . S
O716 Tb672 2.546 . S
O716 C736 1.251 . S
O717 Tb672 2.610 . S
O717 Tb683 2.362 . S
O717 C728 1.283 . S
O718 Tb683 2.421 . S
O718 C735 1.262 . S
O719 Tb672 2.320 . S
O719 C735 1.260 . S
O720 Tb672 2.552 . S
O720 C728 1.243 . S
O721 Tb672 2.413 . S
O721 C736 1.256 . S
O722 Tb683 2.546 . S
O722 C747 1.251 . S
O723 Tb672 2.362 . S
O723 Tb683 2.610 . S
O723 C739 1.283 . S
O724 Tb672 2.421 . S
O724 C746 1.262 . S
O725 Tb683 2.320 . S
O725 C746 1.260 . S
O726 Tb683 2.552 . S
O726 C739 1.243 . S
O727 Tb683 2.413 . S
O727 C747 1.256 . S
C728 O717 1.283 . S
C728 O720 1.243 . S
C729 C731 1.382 . S
C729 C733 1.393 . S
C729 C736 1.500 . S
C730 C731 1.400 . S
C730 C732 1.384 . S
C731 C729 1.382 . S
C731 C730 1.400 . S
C731 H748 0.930 . S
C732 C730 1.384 . S
C732 C734 1.392 . S
C732 H749 0.931 . S
C733 C729 1.393 . S
C733 C734 1.401 . S
C733 H750 0.930 . S
C734 C732 1.392 . S
C734 C733 1.401 . S
C734 H751 0.930 . S
C735 O718 1.262 . S
C735 O719 1.260 . S
C736 Tb672 2.833 . S
C736 O716 1.251 . S
C736 O721 1.256 . S
C736 C729 1.500 . S
C737 H702 0.929 . S
C737 C715 1.444 . S
C737 C738 1.317 . S
C738 H700 0.930 . S
C738 C706 1.432 . S
C738 C737 1.317 . S
C739 O723 1.283 . S
C739 O726 1.243 . S
C740 C741 1.382 . S
C740 C744 1.393 . S
C740 C747 1.500 . S
C741 C740 1.382 . S
C741 C742 1.400 . S
C741 H752 0.930 . S
C742 C741 1.400 . S
C742 C743 1.384 . S
C743 C742 1.384 . S
C743 C745 1.392 . S
C743 H753 0.931 . S
C744 C740 1.393 . S
C744 C745 1.401 . S
C744 H754 0.930 . S
C745 C743 1.392 . S
C745 C744 1.401 . S
C745 H755 0.930 . S
C746 O724 1.262 . S
C746 O725 1.260 . S
C747 Tb683 2.833 . S
C747 O722 1.251 . S
C747 O727 1.256 . S
C747 C740 1.500 . S
H748 C731 0.930 . S
H749 C732 0.931 . S
H750 C733 0.930 . S
H751 C734 0.930 . S
H752 C741 0.930 . S
H753 C743 0.931 . S
H754 C744 0.930 . S
H755 C745 0.930 . S
Tb756 N787 2.660 . S
Tb756 N794 2.600 . S
Tb756 O800 2.546 . S
Tb756 O801 2.610 . S
Tb756 O803 2.320 . S
Tb756 O804 2.552 . S
Tb756 O805 2.413 . S
Tb756 O807 2.362 . S
Tb756 O808 2.421 . S
Tb756 C820 2.833 . S
C757 C760 1.432 . S
C757 C761 1.414 . S
C757 N764 1.359 . S
C758 C760 1.417 . S
C758 C762 1.432 . S
C758 C770 1.410 . S
C759 C761 1.444 . S
C759 C762 1.317 . S
C759 H782 0.929 1_455 S
C760 C757 1.432 . S
C760 C758 1.417 . S
C760 N768 1.360 . S
C761 C757 1.414 . S
C761 C759 1.444 . S
C761 C766 1.385 . S
C762 C758 1.432 . S
C762 C759 1.317 . S
C762 H774 0.930 1_455 S
C763 C765 1.392 . S
C763 C766 1.370 . S
C763 H775 0.931 . S
N764 C757 1.359 . S
N764 C765 1.327 . S
N764 Tb767 2.600 . S
C765 C763 1.392 . S
C765 N764 1.327 . S
C765 H772 0.930 . S
C766 C761 1.385 . S
C766 C763 1.370 . S
C766 H785 0.930 . S
Tb767 N764 2.600 . S
Tb767 N768 2.660 . S
Tb767 O801 2.362 . S
Tb767 O802 2.421 . S
Tb767 O806 2.546 . S
Tb767 O807 2.610 . S
Tb767 O809 2.320 . S
Tb767 O810 2.552 . S
Tb767 O811 2.413 . S
Tb767 C831 2.833 . S
N768 C760 1.360 . S
N768 Tb767 2.660 . S
N768 C769 1.305 . S
C769 N768 1.305 . S
C769 C771 1.407 . S
C769 H776 0.930 . S
C770 C758 1.410 . S
C770 C771 1.345 . S
C770 H778 0.930 . S
C771 C769 1.407 . S
C771 C770 1.345 . S
C771 H773 0.930 . S
H772 C765 0.930 . S
H773 C771 0.930 . S
H774 C762 0.930 1_655 S
H775 C763 0.931 . S
H776 C769 0.930 . S
H777 C791 0.930 . S
H778 C770 0.930 . S
H779 C797 0.930 . S
H780 C788 0.930 . S
H781 C795 0.931 . S
H782 C759 0.929 1_655 S
H783 C789 0.930 . S
H784 C822 0.930 . S
H785 C766 0.930 . S
H786 C821 0.929 . S
N787 Tb756 2.660 . S
N787 C788 1.305 . S
N787 C792 1.360 . S
C788 H780 0.930 . S
C788 N787 1.305 . S
C788 C791 1.407 . S
C789 H783 0.930 . S
C789 C790 1.410 . S
C789 C791 1.345 . S
C790 C789 1.410 . S
C790 C792 1.417 . S
C790 C822 1.432 . S
C791 H777 0.930 . S
C791 C788 1.407 . S
C791 C789 1.345 . S
C792 N787 1.360 . S
C792 C790 1.417 . S
C792 C796 1.432 . S
H793 C798 0.930 . S
N794 Tb756 2.600 . S
N794 C796 1.359 . S
N794 C797 1.327 . S
C795 H781 0.931 . S
C795 C797 1.392 . S
C795 C798 1.370 . S
C796 C792 1.432 . S
C796 N794 1.359 . S
C796 C799 1.414 . S
C797 H779 0.930 . S
C797 N794 1.327 . S
C797 C795 1.392 . S
C798 H793 0.930 . S
C798 C795 1.370 . S
C798 C799 1.385 . S
C799 C796 1.414 . S
C799 C798 1.385 . S
C799 C821 1.444 . S
O800 Tb756 2.546 . S
O800 C820 1.251 . S
O801 Tb756 2.610 . S
O801 Tb767 2.362 . S
O801 C812 1.283 . S
O802 Tb767 2.421 . S
O802 C819 1.262 . S
O803 Tb756 2.320 . S
O803 C819 1.260 . S
O804 Tb756 2.552 . S
O804 C812 1.243 . S
O805 Tb756 2.413 . S
O805 C820 1.256 . S
O806 Tb767 2.546 . S
O806 C831 1.251 . S
O807 Tb756 2.362 . S
O807 Tb767 2.610 . S
O807 C823 1.283 . S
O808 Tb756 2.421 . S
O808 C830 1.262 . S
O809 Tb767 2.320 . S
O809 C830 1.260 . S
O810 Tb767 2.552 . S
O810 C823 1.243 . S
O811 Tb767 2.413 . S
O811 C831 1.256 . S
C812 O801 1.283 . S
C812 O804 1.243 . S
C813 C815 1.382 . S
C813 C817 1.393 . S
C813 C820 1.500 . S
C814 C815 1.400 . S
C814 C816 1.384 . S
C815 C813 1.382 . S
C815 C814 1.400 . S
C815 H832 0.930 . S
C816 C814 1.384 . S
C816 C818 1.392 . S
C816 H833 0.931 . S
C817 C813 1.393 . S
C817 C818 1.401 . S
C817 H834 0.930 . S
C818 C816 1.392 . S
C818 C817 1.401 . S
C818 H835 0.930 . S
C819 O802 1.262 . S
C819 O803 1.260 . S
C820 Tb756 2.833 . S
C820 O800 1.251 . S
C820 O805 1.256 . S
C820 C813 1.500 . S
C821 H786 0.929 . S
C821 C799 1.444 . S
C821 C822 1.317 . S
C822 H784 0.930 . S
C822 C790 1.432 . S
C822 C821 1.317 . S
C823 O807 1.283 . S
C823 O810 1.243 . S
C824 C825 1.382 . S
C824 C828 1.393 . S
C824 C831 1.500 1_655 S
C825 C824 1.382 . S
C825 C826 1.400 . S
C825 H836 0.930 . S
C826 C825 1.400 . S
C826 C827 1.384 . S
C827 C826 1.384 . S
C827 C829 1.392 . S
C827 H837 0.931 . S
C828 C824 1.393 . S
C828 C829 1.401 . S
C828 H838 0.930 . S
C829 C827 1.392 . S
C829 C828 1.401 . S
C829 H839 0.930 . S
C830 O808 1.262 . S
C830 O809 1.260 . S
C831 Tb767 2.833 . S
C831 O806 1.251 . S
C831 O811 1.256 . S
C831 C824 1.500 1_455 S
H832 C815 0.930 . S
H833 C816 0.931 . S
H834 C817 0.930 . S
H835 C818 0.930 . S
H836 C825 0.930 . S
H837 C827 0.931 . S
H838 C828 0.930 . S
H839 C829 0.930 . S
Tb840 N871 2.660 . S
Tb840 N878 2.600 . S
Tb840 O884 2.546 . S
Tb840 O885 2.610 . S
Tb840 O887 2.320 . S
Tb840 O888 2.552 . S
Tb840 O889 2.413 . S
Tb840 O891 2.362 . S
Tb840 O892 2.421 . S
Tb840 C904 2.833 . S
C841 C844 1.432 . S
C841 C845 1.414 . S
C841 N848 1.359 . S
C842 C844 1.417 . S
C842 C846 1.432 1_455 S
C842 C854 1.410 . S
C843 C845 1.432 1_655 S
C843 C846 1.322 . S
C843 H866 0.937 . S
C844 C841 1.432 . S
C844 C842 1.417 . S
C844 N852 1.360 . S
C845 C841 1.414 . S
C845 C843 1.432 1_455 S
C845 C850 1.385 . S
C846 C842 1.432 1_655 S
C846 C843 1.322 . S
C846 H858 0.930 . S
C847 C849 1.392 . S
C847 C850 1.370 . S
C847 H859 0.931 . S
N848 C841 1.359 . S
N848 C849 1.327 . S
N848 Tb851 2.600 . S
C849 C847 1.392 . S
C849 N848 1.327 . S
C849 H856 0.930 . S
C850 C845 1.385 . S
C850 C847 1.370 . S
C850 H869 0.930 . S
Tb851 N848 2.600 . S
Tb851 N852 2.660 . S
Tb851 O885 2.362 . S
Tb851 O886 2.421 . S
Tb851 O890 2.546 . S
Tb851 O891 2.610 . S
Tb851 O893 2.320 . S
Tb851 O894 2.552 . S
Tb851 O895 2.413 . S
Tb851 C915 2.833 . S
N852 C844 1.360 . S
N852 Tb851 2.660 . S
N852 C853 1.305 . S
C853 N852 1.305 . S
C853 C855 1.407 . S
C853 H860 0.930 . S
C854 C842 1.410 . S
C854 C855 1.345 . S
C854 H862 0.930 1_455 S
C855 C853 1.407 . S
C855 C854 1.345 . S
C855 H857 0.930 . S
H856 C849 0.930 . S
H857 C855 0.930 . S
H858 C846 0.930 . S
H859 C847 0.931 . S
H860 C853 0.930 . S
H861 C875 0.930 . S
H862 C854 0.930 1_655 S
H863 C881 0.930 . S
H864 C872 0.930 . S
H865 C879 0.931 . S
H866 C843 0.937 . S
H867 C873 0.930 . S
H868 C906 0.930 1_545 S
H869 C850 0.930 . S
H870 C905 0.929 1_545 S
N871 Tb840 2.660 . S
N871 C872 1.305 . S
N871 C876 1.360 . S
C872 H864 0.930 . S
C872 N871 1.305 . S
C872 C875 1.407 . S
C873 H867 0.930 . S
C873 C874 1.410 . S
C873 C875 1.345 . S
C874 C873 1.410 . S
C874 C876 1.417 . S
C874 C906 1.432 . S
C875 H861 0.930 . S
C875 C872 1.407 . S
C875 C873 1.345 . S
C876 N871 1.360 . S
C876 C874 1.417 . S
C876 C880 1.432 . S
H877 C882 0.930 . S
N878 Tb840 2.600 . S
N878 C880 1.359 . S
N878 C881 1.327 . S
C879 H865 0.931 . S
C879 C881 1.392 . S
C879 C882 1.370 . S
C880 C876 1.432 . S
C880 N878 1.359 . S
C880 C883 1.414 . S
C881 H863 0.930 . S
C881 N878 1.327 . S
C881 C879 1.392 . S
C882 H877 0.930 . S
C882 C879 1.370 . S
C882 C883 1.385 . S
C883 C880 1.414 . S
C883 C882 1.385 . S
C883 C905 1.444 . S
O884 Tb840 2.546 . S
O884 C904 1.251 . S
O885 Tb840 2.610 . S
O885 Tb851 2.362 . S
O885 C896 1.283 . S
O886 Tb851 2.421 . S
O886 C903 1.262 . S
O887 Tb840 2.320 . S
O887 C903 1.260 . S
O888 Tb840 2.552 . S
O888 C896 1.243 . S
O889 Tb840 2.413 . S
O889 C904 1.256 . S
O890 Tb851 2.546 . S
O890 C915 1.251 . S
O891 Tb840 2.362 . S
O891 Tb851 2.610 . S
O891 C907 1.283 . S
O892 Tb840 2.421 . S
O892 C914 1.262 . S
O893 Tb851 2.320 . S
O893 C914 1.260 . S
O894 Tb851 2.552 . S
O894 C907 1.243 . S
O895 Tb851 2.413 . S
O895 C915 1.256 . S
C896 O885 1.283 . S
C896 O888 1.243 . S
C897 C899 1.382 . S
C897 C901 1.393 . S
C897 C904 1.500 1_545 S
C898 C899 1.400 . S
C898 C900 1.384 . S
C899 C897 1.382 . S
C899 C898 1.400 . S
C899 H916 0.930 . S
C900 C898 1.384 . S
C900 C902 1.392 . S
C900 H917 0.931 . S
C901 C897 1.393 . S
C901 C902 1.401 . S
C901 H918 0.930 . S
C902 C900 1.392 . S
C902 C901 1.401 . S
C902 H919 0.930 . S
C903 O886 1.262 . S
C903 O887 1.260 . S
C904 Tb840 2.833 . S
C904 O884 1.251 . S
C904 O889 1.256 . S
C904 C897 1.500 1_565 S
C905 H870 0.929 1_565 S
C905 C883 1.444 . S
C905 C906 1.317 . S
C906 H868 0.930 1_565 S
C906 C874 1.432 . S
C906 C905 1.317 . S
C907 O891 1.283 . S
C907 O894 1.243 . S
C908 C909 1.382 . S
C908 C912 1.393 . S
C908 C915 1.500 . S
C909 C908 1.382 . S
C909 C910 1.400 . S
C909 H920 0.930 . S
C910 C909 1.400 . S
C910 C911 1.384 . S
C911 C910 1.384 . S
C911 C913 1.392 . S
C911 H921 0.931 . S
C912 C908 1.393 . S
C912 C913 1.401 . S
C912 H922 0.930 . S
C913 C911 1.392 . S
C913 C912 1.401 . S
C913 H923 0.930 . S
C914 O892 1.262 . S
C914 O893 1.260 . S
C915 Tb851 2.833 . S
C915 O890 1.251 . S
C915 O895 1.256 . S
C915 C908 1.500 . S
H916 C899 0.930 . S
H917 C900 0.931 . S
H918 C901 0.930 . S
H919 C902 0.930 . S
H920 C909 0.930 . S
H921 C911 0.931 . S
H922 C912 0.930 . S
H923 C913 0.930 . S
Tb924 N955 2.660 . S
Tb924 N962 2.600 . S
Tb924 O968 2.546 . S
Tb924 O969 2.610 . S
Tb924 O971 2.320 . S
Tb924 O972 2.552 . S
Tb924 O973 2.413 . S
Tb924 O975 2.362 . S
Tb924 O976 2.421 . S
Tb924 C988 2.833 . S
C925 C928 1.432 . S
C925 C929 1.414 . S
C925 N932 1.359 . S
C926 C928 1.417 . S
C926 C930 1.432 . S
C926 C938 1.410 . S
C927 C929 1.444 . S
C927 C930 1.317 . S
C927 H950 0.929 . S
C928 C925 1.432 . S
C928 C926 1.417 . S
C928 N936 1.360 . S
C929 C925 1.414 . S
C929 C927 1.444 . S
C929 C934 1.385 . S
C930 C926 1.432 . S
C930 C927 1.317 . S
C930 H942 0.930 . S
C931 C933 1.392 . S
C931 C934 1.370 . S
C931 H943 0.931 . S
N932 C925 1.359 . S
N932 C933 1.327 . S
N932 Tb935 2.600 . S
C933 C931 1.392 . S
C933 N932 1.327 . S
C933 H940 0.930 . S
C934 C929 1.385 . S
C934 C931 1.370 . S
C934 H953 0.930 . S
Tb935 N932 2.600 . S
Tb935 N936 2.660 . S
Tb935 O969 2.362 . S
Tb935 O970 2.421 . S
Tb935 O974 2.546 . S
Tb935 O975 2.610 . S
Tb935 O977 2.320 . S
Tb935 O978 2.552 . S
Tb935 O979 2.413 . S
Tb935 C999 2.833 . S
N936 C928 1.360 . S
N936 Tb935 2.660 . S
N936 C937 1.305 . S
C937 N936 1.305 . S
C937 C939 1.407 . S
C937 H944 0.930 . S
C938 C926 1.410 . S
C938 C939 1.345 . S
C938 H946 0.930 . S
C939 C937 1.407 . S
C939 C938 1.345 . S
C939 H941 0.930 . S
H940 C933 0.930 . S
H941 C939 0.930 . S
H942 C930 0.930 . S
H943 C931 0.931 . S
H944 C937 0.930 . S
H945 C959 0.930 . S
H946 C938 0.930 . S
H947 C965 0.930 . S
H948 C956 0.930 . S
H949 C963 0.931 . S
H950 C927 0.929 . S
H951 C957 0.930 1_545 S
H952 C990 0.930 . S
H953 C934 0.930 . S
H954 C989 0.939 . S
N955 Tb924 2.660 . S
N955 C956 1.305 . S
N955 C960 1.360 . S
C956 H948 0.930 . S
C956 N955 1.305 . S
C956 C959 1.407 . S
C957 H951 0.930 1_565 S
C957 C958 1.410 . S
C957 C959 1.345 . S
C958 C957 1.410 . S
C958 C960 1.417 . S
C958 C990 1.432 1_565 S
C959 H945 0.930 . S
C959 C956 1.407 . S
C959 C957 1.345 . S
C960 N955 1.360 . S
C960 C958 1.417 . S
C960 C964 1.432 . S
H961 C966 0.930 . S
N962 Tb924 2.600 . S
N962 C964 1.359 . S
N962 C965 1.327 . S
C963 H949 0.931 . S
C963 C965 1.392 . S
C963 C966 1.370 . S
C964 C960 1.432 . S
C964 N962 1.359 . S
C964 C967 1.414 . S
C965 H947 0.930 . S
C965 N962 1.327 . S
C965 C963 1.392 . S
C966 H961 0.930 . S
C966 C963 1.370 . S
C966 C967 1.385 . S
C967 C964 1.414 . S
C967 C966 1.385 . S
C967 C989 1.431 1_565 S
O968 Tb924 2.546 . S
O968 C988 1.251 . S
O969 Tb924 2.610 . S
O969 Tb935 2.362 . S
O969 C980 1.283 . S
O970 Tb935 2.421 . S
O970 C987 1.262 . S
O971 Tb924 2.320 . S
O971 C987 1.260 . S
O972 Tb924 2.552 . S
O972 C980 1.243 . S
O973 Tb924 2.413 . S
O973 C988 1.256 . S
O974 Tb935 2.546 . S
O974 C999 1.251 . S
O975 Tb924 2.362 . S
O975 Tb935 2.610 . S
O975 C991 1.283 . S
O976 Tb924 2.421 . S
O976 C998 1.262 . S
O977 Tb935 2.320 . S
O977 C998 1.260 . S
O978 Tb935 2.552 . S
O978 C991 1.243 . S
O979 Tb935 2.413 . S
O979 C999 1.256 . S
C980 O969 1.283 . S
C980 O972 1.243 . S
C981 C983 1.382 . S
C981 C985 1.393 . S
C981 C988 1.500 . S
C982 C983 1.400 . S
C982 C984 1.384 . S
C983 C981 1.382 . S
C983 C982 1.400 . S
C983 H1000 0.930 . S
C984 C982 1.384 . S
C984 C986 1.392 . S
C984 H1001 0.931 . S
C985 C981 1.393 . S
C985 C986 1.401 . S
C985 H1002 0.930 . S
C986 C984 1.392 . S
C986 C985 1.401 . S
C986 H1003 0.930 . S
C987 O970 1.262 . S
C987 O971 1.260 . S
C988 Tb924 2.833 . S
C988 O968 1.251 . S
C988 O973 1.256 . S
C988 C981 1.500 . S
C989 H954 0.939 . S
C989 C967 1.431 1_545 S
C989 C990 1.320 . S
C990 H952 0.930 . S
C990 C958 1.432 1_545 S
C990 C989 1.320 . S
C991 O975 1.283 . S
C991 O978 1.243 . S
C992 C993 1.382 . S
C992 C996 1.393 . S
C992 C999 1.500 . S
C993 C992 1.382 . S
C993 C994 1.400 . S
C993 H1004 0.930 . S
C994 C993 1.400 . S
C994 C995 1.384 . S
C995 C994 1.384 . S
C995 C997 1.392 . S
C995 H1005 0.931 . S
C996 C992 1.393 . S
C996 C997 1.401 . S
C996 H1006 0.930 . S
C997 C995 1.392 . S
C997 C996 1.401 . S
C997 H1007 0.930 . S
C998 O976 1.262 . S
C998 O977 1.260 . S
C999 Tb935 2.833 . S
C999 O974 1.251 . S
C999 O979 1.256 . S
C999 C992 1.500 . S
H1000 C983 0.930 . S
H1001 C984 0.931 . S
H1002 C985 0.930 . S
H1003 C986 0.930 . S
H1004 C993 0.930 . S
H1005 C995 0.931 . S
H1006 C996 0.930 . S
H1007 C997 0.930 . S
H1008 C1016 0.950 . S
H1009 C1021 0.950 . S
H1010 C1018 0.950 . S
H1011 C1020 0.950 . S
H1012 C1022 0.950 . S
H1013 C1024 0.950 . S
H1014 C1026 0.950 . S
H1015 C1027 0.950 . S
C1016 H1008 0.950 . S
C1016 C1017 1.386 . S
C1016 C1018 1.391 . S
C1017 C1016 1.386 . S
C1017 C1021 1.393 . S
C1018 H1010 0.950 . S
C1018 C1016 1.391 . S
C1018 C1019 1.400 . S
C1019 C1018 1.400 . S
C1019 C1020 1.398 . S
C1019 C1025 1.491 . S
C1020 H1011 0.950 . S
C1020 C1019 1.398 . S
C1020 C1021 1.391 . S
C1021 H1009 0.950 . S
C1021 C1017 1.393 . S
C1021 C1020 1.391 . S
C1022 H1012 0.950 . S
C1022 C1023 1.386 . S
C1022 C1024 1.391 . S
C1023 C1022 1.386 . S
C1023 C1027 1.393 . S
C1024 H1013 0.950 . S
C1024 C1022 1.391 . S
C1024 C1025 1.400 . S
C1025 C1019 1.491 . S
C1025 C1024 1.400 . S
C1025 C1026 1.398 . S
C1026 H1014 0.950 . S
C1026 C1025 1.398 . S
C1026 C1027 1.391 . S
C1027 H1015 0.950 . S
C1027 C1023 1.393 . S
C1027 C1026 1.391 . S
H1028 C1036 0.950 . S
H1029 C1041 0.950 . S
H1030 C1038 0.950 . S
H1031 C1040 0.950 . S
H1032 C1042 0.950 . S
H1033 C1044 0.950 . S
H1034 C1046 0.950 . S
H1035 C1047 0.950 . S
C1036 H1028 0.950 . S
C1036 C1037 1.386 . S
C1036 C1038 1.391 . S
C1037 C1036 1.386 . S
C1037 C1041 1.393 . S
C1038 H1030 0.950 . S
C1038 C1036 1.391 . S
C1038 C1039 1.400 . S
C1039 C1038 1.400 . S
C1039 C1040 1.398 . S
C1039 C1045 1.491 1_455 S
C1040 H1031 0.950 . S
C1040 C1039 1.398 . S
C1040 C1041 1.391 . S
C1041 H1029 0.950 . S
C1041 C1037 1.393 . S
C1041 C1040 1.391 . S
C1042 H1032 0.950 . S
C1042 C1043 1.386 . S
C1042 C1044 1.391 . S
C1043 C1042 1.386 . S
C1043 C1047 1.393 . S
C1044 H1033 0.950 . S
C1044 C1042 1.391 . S
C1044 C1045 1.400 . S
C1045 C1039 1.491 1_655 S
C1045 C1044 1.400 . S
C1045 C1046 1.398 . S
C1046 H1034 0.950 . S
C1046 C1045 1.398 . S
C1046 C1047 1.391 . S
C1047 H1035 0.950 . S
C1047 C1043 1.393 . S
C1047 C1046 1.391 . S
H1048 C1056 0.950 . S
H1049 C1061 0.950 . S
H1050 C1058 0.950 . S
H1051 C1060 0.950 . S
H1052 C1062 0.950 . S
H1053 C1064 0.950 . S
H1054 C1066 0.950 . S
H1055 C1067 0.950 . S
C1056 H1048 0.950 . S
C1056 C1057 1.386 . S
C1056 C1058 1.391 . S
C1057 C1056 1.386 . S
C1057 C1061 1.393 . S
C1058 H1050 0.950 . S
C1058 C1056 1.391 . S
C1058 C1059 1.400 . S
C1059 C1058 1.400 . S
C1059 C1060 1.398 . S
C1059 C1065 1.491 1_545 S
C1060 H1051 0.950 . S
C1060 C1059 1.398 . S
C1060 C1061 1.391 . S
C1061 H1049 0.950 . S
C1061 C1057 1.393 . S
C1061 C1060 1.391 . S
C1062 H1052 0.950 . S
C1062 C1063 1.386 . S
C1062 C1064 1.391 . S
C1063 C1062 1.386 . S
C1063 C1067 1.393 . S
C1064 H1053 0.950 . S
C1064 C1062 1.391 . S
C1064 C1065 1.400 . S
C1065 C1059 1.491 1_565 S
C1065 C1064 1.400 . S
C1065 C1066 1.398 . S
C1066 H1054 0.950 . S
C1066 C1065 1.398 . S
C1066 C1067 1.391 . S
C1067 H1055 0.950 . S
C1067 C1063 1.393 . S
C1067 C1066 1.391 . S
H1068 C1076 0.950 . S
H1069 C1081 0.950 . S
H1070 C1078 0.950 . S
H1071 C1080 0.950 . S
H1072 C1082 0.950 . S
H1073 C1084 0.950 . S
H1074 C1086 0.950 . S
H1075 C1087 0.950 . S
C1076 H1068 0.950 . S
C1076 C1077 1.386 . S
C1076 C1078 1.391 . S
C1077 C1076 1.386 . S
C1077 C1081 1.393 . S
C1078 H1070 0.950 . S
C1078 C1076 1.391 . S
C1078 C1079 1.400 . S
C1079 C1078 1.400 . S
C1079 C1080 1.398 . S
C1079 C1085 1.491 . S
C1080 H1071 0.950 . S
C1080 C1079 1.398 . S
C1080 C1081 1.391 . S
C1081 H1069 0.950 . S
C1081 C1077 1.393 . S
C1081 C1080 1.391 . S
C1082 H1072 0.950 . S
C1082 C1083 1.386 . S
C1082 C1084 1.391 . S
C1083 C1082 1.386 . S
C1083 C1087 1.393 . S
C1084 H1073 0.950 . S
C1084 C1082 1.391 . S
C1084 C1085 1.400 . S
C1085 C1079 1.491 . S
C1085 C1084 1.400 . S
C1085 C1086 1.398 . S
C1086 H1074 0.950 . S
C1086 C1085 1.398 . S
C1086 C1087 1.391 . S
C1087 H1075 0.950 . S
C1087 C1083 1.393 . S
C1087 C1086 1.391 . S
H1088 C1096 0.950 . S
H1089 C1101 0.950 . S
H1090 C1098 0.950 . S
H1091 C1100 0.950 . S
H1092 C1102 0.950 . S
H1093 C1104 0.950 1_455 S
H1094 C1106 0.950 . S
H1095 C1107 0.950 . S
C1096 H1088 0.950 . S
C1096 C1097 1.386 . S
C1096 C1098 1.391 . S
C1097 C1096 1.386 . S
C1097 C1101 1.393 . S
C1098 H1090 0.950 . S
C1098 C1096 1.391 . S
C1098 C1099 1.400 . S
C1099 C1098 1.400 . S
C1099 C1100 1.398 . S
C1099 C1105 1.491 1_455 S
C1100 H1091 0.950 . S
C1100 C1099 1.398 . S
C1100 C1101 1.391 . S
C1101 H1089 0.950 . S
C1101 C1097 1.393 . S
C1101 C1100 1.391 . S
C1102 H1092 0.950 . S
C1102 C1103 1.386 . S
C1102 C1104 1.391 . S
C1103 C1102 1.386 . S
C1103 C1107 1.393 . S
C1104 H1093 0.950 1_655 S
C1104 C1102 1.391 . S
C1104 C1105 1.400 . S
C1105 C1099 1.491 1_655 S
C1105 C1104 1.400 . S
C1105 C1106 1.398 . S
C1106 H1094 0.950 . S
C1106 C1105 1.398 . S
C1106 C1107 1.391 . S
C1107 H1095 0.950 . S
C1107 C1103 1.393 . S
C1107 C1106 1.391 . S
H1108 C1116 0.950 . S
H1109 C1121 0.950 . S
H1110 C1118 0.950 . S
H1111 C1120 0.950 . S
H1112 C1122 0.950 . S
H1113 C1124 0.950 1_565 S
H1114 C1126 0.950 . S
H1115 C1127 0.950 . S
C1116 H1108 0.950 . S
C1116 C1117 1.386 . S
C1116 C1118 1.391 . S
C1117 C1116 1.386 . S
C1117 C1121 1.393 . S
C1118 H1110 0.950 . S
C1118 C1116 1.391 . S
C1118 C1119 1.400 . S
C1119 C1118 1.400 . S
C1119 C1120 1.398 . S
C1119 C1125 1.491 1_565 S
C1120 H1111 0.950 . S
C1120 C1119 1.398 . S
C1120 C1121 1.391 . S
C1121 H1109 0.950 . S
C1121 C1117 1.393 . S
C1121 C1120 1.391 . S
C1122 H1112 0.950 . S
C1122 C1123 1.386 . S
C1122 C1124 1.391 . S
C1123 C1122 1.386 . S
C1123 C1127 1.393 . S
C1124 H1113 0.950 1_545 S
C1124 C1122 1.391 . S
C1124 C1125 1.400 . S
C1125 C1119 1.491 1_545 S
C1125 C1124 1.400 . S
C1125 C1126 1.398 . S
C1126 H1114 0.950 . S
C1126 C1125 1.398 . S
C1126 C1127 1.391 . S
C1127 H1115 0.950 . S
C1127 C1123 1.393 . S
C1127 C1126 1.391 . S
H1128 C1136 0.950 . S
H1129 C1141 0.950 . S
H1130 C1138 0.950 . S
H1131 C1140 0.950 . S
H1132 C1142 0.950 . S
H1133 C1144 0.950 . S
H1134 C1146 0.950 . S
H1135 C1147 0.950 . S
C1136 H1128 0.950 . S
C1136 C1137 1.386 . S
C1136 C1138 1.391 . S
C1137 C1136 1.386 . S
C1137 C1141 1.393 . S
C1138 H1130 0.950 . S
C1138 C1136 1.391 . S
C1138 C1139 1.400 . S
C1139 C1138 1.400 . S
C1139 C1140 1.398 . S
C1139 C1145 1.491 . S
C1140 H1131 0.950 . S
C1140 C1139 1.398 . S
C1140 C1141 1.391 . S
C1141 H1129 0.950 . S
C1141 C1137 1.393 . S
C1141 C1140 1.391 . S
C1142 H1132 0.950 . S
C1142 C1143 1.386 . S
C1142 C1144 1.391 . S
C1143 C1142 1.386 . S
C1143 C1147 1.393 . S
C1144 H1133 0.950 . S
C1144 C1142 1.391 . S
C1144 C1145 1.400 . S
C1145 C1139 1.491 . S
C1145 C1144 1.400 . S
C1145 C1146 1.398 . S
C1146 H1134 0.950 . S
C1146 C1145 1.398 . S
C1146 C1147 1.391 . S
C1147 H1135 0.950 . S
C1147 C1143 1.393 . S
C1147 C1146 1.391 . S
H1148 C1156 0.950 . S
H1149 C1161 0.950 . S
H1150 C1158 0.950 1_655 S
H1151 C1160 0.950 . S
H1152 C1162 0.950 . S
H1153 C1164 0.950 . S
H1154 C1166 0.950 . S
H1155 C1167 0.950 . S
C1156 H1148 0.950 . S
C1156 C1157 1.386 . S
C1156 C1158 1.391 . S
C1157 C1156 1.386 . S
C1157 C1161 1.393 . S
C1158 H1150 0.950 1_455 S
C1158 C1156 1.391 . S
C1158 C1159 1.400 . S
C1159 C1158 1.400 . S
C1159 C1160 1.398 . S
C1159 C1165 1.491 1_455 S
C1160 H1151 0.950 . S
C1160 C1159 1.398 . S
C1160 C1161 1.391 . S
C1161 H1149 0.950 . S
C1161 C1157 1.393 . S
C1161 C1160 1.391 . S
C1162 H1152 0.950 . S
C1162 C1163 1.386 . S
C1162 C1164 1.391 . S
C1163 C1162 1.386 . S
C1163 C1167 1.393 . S
C1164 H1153 0.950 . S
C1164 C1162 1.391 . S
C1164 C1165 1.400 . S
C1165 C1159 1.491 1_655 S
C1165 C1164 1.400 . S
C1165 C1166 1.398 . S
C1166 H1154 0.950 . S
C1166 C1165 1.398 . S
C1166 C1167 1.391 . S
C1167 H1155 0.950 . S
C1167 C1163 1.393 . S
C1167 C1166 1.391 . S
H1168 C1176 0.950 . S
H1169 C1181 0.950 . S
H1170 C1178 0.950 1_545 S
H1171 C1180 0.950 . S
H1172 C1182 0.950 . S
H1173 C1184 0.950 . S
H1174 C1186 0.950 . S
H1175 C1187 0.950 . S
C1176 H1168 0.950 . S
C1176 C1177 1.386 . S
C1176 C1178 1.391 . S
C1177 C1176 1.386 . S
C1177 C1181 1.393 . S
C1178 H1170 0.950 1_565 S
C1178 C1176 1.391 . S
C1178 C1179 1.400 . S
C1179 C1178 1.400 . S
C1179 C1180 1.398 . S
C1179 C1185 1.491 1_565 S
C1180 H1171 0.950 . S
C1180 C1179 1.398 . S
C1180 C1181 1.391 . S
C1181 H1169 0.950 . S
C1181 C1177 1.393 . S
C1181 C1180 1.391 . S
C1182 H1172 0.950 . S
C1182 C1183 1.386 . S
C1182 C1184 1.391 . S
C1183 C1182 1.386 . S
C1183 C1187 1.393 . S
C1184 H1173 0.950 . S
C1184 C1182 1.391 . S
C1184 C1185 1.400 . S
C1185 C1179 1.491 1_545 S
C1185 C1184 1.400 . S
C1185 C1186 1.398 . S
C1186 H1174 0.950 . S
C1186 C1185 1.398 . S
C1186 C1187 1.391 . S
C1187 H1175 0.950 . S
C1187 C1183 1.393 . S
C1187 C1186 1.391 . S
H1188 C1196 0.950 . S
H1189 C1201 0.950 . S
H1190 C1198 0.950 . S
H1191 C1200 0.950 . S
H1192 C1202 0.950 . S
H1193 C1204 0.950 . S
H1194 C1206 0.950 . S
H1195 C1207 0.950 . S
C1196 H1188 0.950 . S
C1196 C1197 1.386 . S
C1196 C1198 1.391 . S
C1197 C1196 1.386 . S
C1197 C1201 1.393 . S
C1198 H1190 0.950 . S
C1198 C1196 1.391 . S
C1198 C1199 1.400 . S
C1199 C1198 1.400 . S
C1199 C1200 1.398 . S
C1199 C1205 1.491 . S
C1200 H1191 0.950 . S
C1200 C1199 1.398 . S
C1200 C1201 1.391 . S
C1201 H1189 0.950 . S
C1201 C1197 1.393 . S
C1201 C1200 1.391 . S
C1202 H1192 0.950 . S
C1202 C1203 1.386 . S
C1202 C1204 1.391 . S
C1203 C1202 1.386 . S
C1203 C1207 1.393 . S
C1204 H1193 0.950 . S
C1204 C1202 1.391 . S
C1204 C1205 1.400 . S
C1205 C1199 1.491 . S
C1205 C1204 1.400 . S
C1205 C1206 1.398 . S
C1206 H1194 0.950 . S
C1206 C1205 1.398 . S
C1206 C1207 1.391 . S
C1207 H1195 0.950 . S
C1207 C1203 1.393 . S
C1207 C1206 1.391 . S
H1208 C1216 0.950 . S
H1209 C1221 0.950 . S
H1210 C1218 0.950 . S
H1211 C1220 0.950 1_655 S
H1212 C1222 0.950 . S
H1213 C1224 0.950 . S
H1214 C1226 0.950 . S
H1215 C1227 0.950 . S
C1216 H1208 0.950 . S
C1216 C1217 1.386 . S
C1216 C1218 1.391 . S
C1217 C1216 1.386 . S
C1217 C1221 1.393 . S
C1218 H1210 0.950 . S
C1218 C1216 1.391 . S
C1218 C1219 1.400 . S
C1219 C1218 1.400 . S
C1219 C1220 1.398 . S
C1219 C1225 1.491 1_455 S
C1220 H1211 0.950 1_455 S
C1220 C1219 1.398 . S
C1220 C1221 1.391 . S
C1221 H1209 0.950 . S
C1221 C1217 1.393 . S
C1221 C1220 1.391 . S
C1222 H1212 0.950 . S
C1222 C1223 1.386 . S
C1222 C1224 1.391 . S
C1223 C1222 1.386 . S
C1223 C1227 1.393 . S
C1224 H1213 0.950 . S
C1224 C1222 1.391 . S
C1224 C1225 1.400 . S
C1225 C1219 1.491 1_655 S
C1225 C1224 1.400 . S
C1225 C1226 1.398 . S
C1226 H1214 0.950 . S
C1226 C1225 1.398 . S
C1226 C1227 1.391 . S
C1227 H1215 0.950 . S
C1227 C1223 1.393 . S
C1227 C1226 1.391 . S
H1228 C1236 0.950 . S
H1229 C1241 0.950 . S
H1230 C1238 0.950 . S
H1231 C1240 0.950 . S
H1232 C1242 0.950 . S
H1233 C1244 0.950 . S
H1234 C1246 0.950 1_545 S
H1235 C1247 0.950 . S
C1236 H1228 0.950 . S
C1236 C1237 1.386 . S
C1236 C1238 1.391 . S
C1237 C1236 1.386 . S
C1237 C1241 1.393 . S
C1238 H1230 0.950 . S
C1238 C1236 1.391 . S
C1238 C1239 1.400 . S
C1239 C1238 1.400 . S
C1239 C1240 1.398 . S
C1239 C1245 1.491 1_545 S
C1240 H1231 0.950 . S
C1240 C1239 1.398 . S
C1240 C1241 1.391 . S
C1241 H1229 0.950 . S
C1241 C1237 1.393 . S
C1241 C1240 1.391 . S
C1242 H1232 0.950 . S
C1242 C1243 1.386 . S
C1242 C1244 1.391 . S
C1243 C1242 1.386 . S
C1243 C1247 1.393 . S
C1244 H1233 0.950 . S
C1244 C1242 1.391 . S
C1244 C1245 1.400 . S
C1245 C1239 1.491 1_565 S
C1245 C1244 1.400 . S
C1245 C1246 1.398 . S
C1246 H1234 0.950 1_565 S
C1246 C1245 1.398 . S
C1246 C1247 1.391 . S
C1247 H1235 0.950 . S
C1247 C1243 1.393 . S
C1247 C1246 1.391 . S
H1248 C1256 0.950 . S
H1249 C1261 0.950 . S
H1250 C1258 0.950 . S
H1251 C1260 0.950 . S
H1252 C1262 0.950 . S
H1253 C1264 0.950 . S
H1254 C1266 0.950 . S
H1255 C1267 0.950 . S
C1256 H1248 0.950 . S
C1256 C1257 1.386 . S
C1256 C1258 1.391 . S
C1257 C1256 1.386 . S
C1257 C1261 1.393 . S
C1258 H1250 0.950 . S
C1258 C1256 1.391 . S
C1258 C1259 1.400 . S
C1259 C1258 1.400 . S
C1259 C1260 1.398 . S
C1259 C1265 1.491 . S
C1260 H1251 0.950 . S
C1260 C1259 1.398 . S
C1260 C1261 1.391 . S
C1261 H1249 0.950 . S
C1261 C1257 1.393 . S
C1261 C1260 1.391 . S
C1262 H1252 0.950 . S
C1262 C1263 1.386 . S
C1262 C1264 1.391 . S
C1263 C1262 1.386 . S
C1263 C1267 1.393 . S
C1264 H1253 0.950 . S
C1264 C1262 1.391 . S
C1264 C1265 1.400 . S
C1265 C1259 1.491 . S
C1265 C1264 1.400 . S
C1265 C1266 1.398 . S
C1266 H1254 0.950 . S
C1266 C1265 1.398 . S
C1266 C1267 1.391 . S
C1267 H1255 0.950 . S
C1267 C1263 1.393 . S
C1267 C1266 1.391 . S
H1268 C1276 0.950 . S
H1269 C1281 0.950 . S
H1270 C1278 0.950 . S
H1271 C1280 0.950 . S
H1272 C1282 0.950 . S
H1273 C1284 0.950 . S
H1274 C1286 0.950 . S
H1275 C1287 0.950 . S
C1276 H1268 0.950 . S
C1276 C1277 1.386 . S
C1276 C1278 1.391 . S
C1277 C1276 1.386 . S
C1277 C1281 1.393 . S
C1278 H1270 0.950 . S
C1278 C1276 1.391 . S
C1278 C1279 1.400 . S
C1279 C1278 1.400 . S
C1279 C1280 1.398 . S
C1279 C1285 1.491 . S
C1280 H1271 0.950 . S
C1280 C1279 1.398 . S
C1280 C1281 1.391 . S
C1281 H1269 0.950 . S
C1281 C1277 1.393 . S
C1281 C1280 1.391 . S
C1282 H1272 0.950 . S
C1282 C1283 1.386 . S
C1282 C1284 1.391 . S
C1283 C1282 1.386 . S
C1283 C1287 1.393 . S
C1284 H1273 0.950 . S
C1284 C1282 1.391 . S
C1284 C1285 1.400 . S
C1285 C1279 1.491 . S
C1285 C1284 1.400 . S
C1285 C1286 1.398 . S
C1286 H1274 0.950 . S
C1286 C1285 1.398 . S
C1286 C1287 1.391 . S
C1287 H1275 0.950 . S
C1287 C1283 1.393 . S
C1287 C1286 1.391 . S
H1288 C1296 0.950 . S
H1289 C1301 0.950 . S
H1290 C1298 0.950 . S
H1291 C1300 0.950 . S
H1292 C1302 0.950 . S
H1293 C1304 0.950 . S
H1294 C1306 0.950 . S
H1295 C1307 0.950 . S
C1296 H1288 0.950 . S
C1296 C1297 1.386 . S
C1296 C1298 1.391 . S
C1297 C1296 1.386 . S
C1297 C1301 1.393 . S
C1298 H1290 0.950 . S
C1298 C1296 1.391 . S
C1298 C1299 1.400 . S
C1299 C1298 1.400 . S
C1299 C1300 1.398 . S
C1299 C1305 1.491 . S
C1300 H1291 0.950 . S
C1300 C1299 1.398 . S
C1300 C1301 1.391 . S
C1301 H1289 0.950 . S
C1301 C1297 1.393 . S
C1301 C1300 1.391 . S
C1302 H1292 0.950 . S
C1302 C1303 1.386 . S
C1302 C1304 1.391 . S
C1303 C1302 1.386 . S
C1303 C1307 1.393 . S
C1304 H1293 0.950 . S
C1304 C1302 1.391 . S
C1304 C1305 1.400 . S
C1305 C1299 1.491 . S
C1305 C1304 1.400 . S
C1305 C1306 1.398 . S
C1306 H1294 0.950 . S
C1306 C1305 1.398 . S
C1306 C1307 1.391 . S
C1307 H1295 0.950 . S
C1307 C1303 1.393 . S
C1307 C1306 1.391 . S
H1308 C1316 0.950 . S
H1309 C1321 0.950 . S
H1310 C1318 0.950 . S
H1311 C1320 0.950 . S
H1312 C1322 0.950 . S
H1313 C1324 0.950 . S
H1314 C1326 0.950 . S
H1315 C1327 0.950 . S
C1316 H1308 0.950 . S
C1316 C1317 1.386 . S
C1316 C1318 1.391 . S
C1317 C1316 1.386 . S
C1317 C1321 1.393 . S
C1318 H1310 0.950 . S
C1318 C1316 1.391 . S
C1318 C1319 1.400 . S
C1319 C1318 1.400 . S
C1319 C1320 1.398 . S
C1319 C1325 1.491 . S
C1320 H1311 0.950 . S
C1320 C1319 1.398 . S
C1320 C1321 1.391 . S
C1321 H1309 0.950 . S
C1321 C1317 1.393 . S
C1321 C1320 1.391 . S
C1322 H1312 0.950 . S
C1322 C1323 1.386 . S
C1322 C1324 1.391 . S
C1323 C1322 1.386 . S
C1323 C1327 1.393 . S
C1324 H1313 0.950 . S
C1324 C1322 1.391 . S
C1324 C1325 1.400 . S
C1325 C1319 1.491 . S
C1325 C1324 1.400 . S
C1325 C1326 1.398 . S
C1326 H1314 0.950 . S
C1326 C1325 1.398 . S
C1326 C1327 1.391 . S
C1327 H1315 0.950 . S
C1327 C1323 1.393 . S
C1327 C1326 1.391 . S
H1328 C1336 0.950 . S
H1329 C1341 0.950 . S
H1330 C1338 0.950 . S
H1331 C1340 0.950 . S
H1332 C1342 0.950 . S
H1333 C1344 0.950 . S
H1334 C1346 0.950 . S
H1335 C1347 0.950 . S
C1336 H1328 0.950 . S
C1336 C1337 1.386 . S
C1336 C1338 1.391 . S
C1337 C1336 1.386 . S
C1337 C1341 1.393 . S
C1338 H1330 0.950 . S
C1338 C1336 1.391 . S
C1338 C1339 1.400 . S
C1339 C1338 1.400 . S
C1339 C1340 1.398 . S
C1339 C1345 1.491 . S
C1340 H1331 0.950 . S
C1340 C1339 1.398 . S
C1340 C1341 1.391 . S
C1341 H1329 0.950 . S
C1341 C1337 1.393 . S
C1341 C1340 1.391 . S
C1342 H1332 0.950 . S
C1342 C1343 1.386 . S
C1342 C1344 1.391 . S
C1343 C1342 1.386 . S
C1343 C1347 1.393 . S
C1344 H1333 0.950 . S
C1344 C1342 1.391 . S
C1344 C1345 1.400 . S
C1345 C1339 1.491 . S
C1345 C1344 1.400 . S
C1345 C1346 1.398 . S
C1346 H1334 0.950 . S
C1346 C1345 1.398 . S
C1346 C1347 1.391 . S
C1347 H1335 0.950 . S
C1347 C1343 1.393 . S
C1347 C1346 1.391 . S
H1348 C1356 0.950 . S
H1349 C1361 0.950 . S
H1350 C1358 0.950 . S
H1351 C1360 0.950 . S
H1352 C1362 0.950 . S
H1353 C1364 0.950 . S
H1354 C1366 0.950 . S
H1355 C1367 0.950 . S
C1356 H1348 0.950 . S
C1356 C1357 1.386 . S
C1356 C1358 1.391 . S
C1357 C1356 1.386 . S
C1357 C1361 1.393 . S
C1358 H1350 0.950 . S
C1358 C1356 1.391 . S
C1358 C1359 1.400 . S
C1359 C1358 1.400 . S
C1359 C1360 1.398 . S
C1359 C1365 1.491 . S
C1360 H1351 0.950 . S
C1360 C1359 1.398 . S
C1360 C1361 1.391 . S
C1361 H1349 0.950 . S
C1361 C1357 1.393 . S
C1361 C1360 1.391 . S
C1362 H1352 0.950 . S
C1362 C1363 1.386 . S
C1362 C1364 1.391 . S
C1363 C1362 1.386 . S
C1363 C1367 1.393 . S
C1364 H1353 0.950 . S
C1364 C1362 1.391 . S
C1364 C1365 1.400 . S
C1365 C1359 1.491 . S
C1365 C1364 1.400 . S
C1365 C1366 1.398 . S
C1366 H1354 0.950 . S
C1366 C1365 1.398 . S
C1366 C1367 1.391 . S
C1367 H1355 0.950 . S
C1367 C1363 1.393 . S
C1367 C1366 1.391 . S
H1368 C1376 0.950 . S
H1369 C1381 0.950 . S
H1370 C1378 0.950 . S
H1371 C1380 0.950 1_554 S
H1372 C1382 0.950 . S
H1373 C1384 0.950 . S
H1374 C1386 0.950 1_556 S
H1375 C1387 0.950 . S
C1376 H1368 0.950 . S
C1376 C1377 1.386 . S
C1376 C1378 1.391 . S
C1377 C1376 1.386 . S
C1377 C1381 1.393 . S
C1378 H1370 0.950 . S
C1378 C1376 1.391 . S
C1378 C1379 1.400 . S
C1379 C1378 1.400 . S
C1379 C1380 1.398 . S
C1379 C1385 1.491 1_566 S
C1380 H1371 0.950 1_556 S
C1380 C1379 1.398 . S
C1380 C1381 1.391 . S
C1381 H1369 0.950 . S
C1381 C1377 1.393 . S
C1381 C1380 1.391 . S
C1382 H1372 0.950 . S
C1382 C1383 1.386 . S
C1382 C1384 1.391 . S
C1383 C1382 1.386 . S
C1383 C1387 1.393 . S
C1384 H1373 0.950 . S
C1384 C1382 1.391 . S
C1384 C1385 1.400 . S
C1385 C1379 1.491 1_544 S
C1385 C1384 1.400 . S
C1385 C1386 1.398 . S
C1386 H1374 0.950 1_554 S
C1386 C1385 1.398 . S
C1386 C1387 1.391 . S
C1387 H1375 0.950 . S
C1387 C1383 1.393 . S
C1387 C1386 1.391 . S
H1388 C1396 0.950 . S
H1389 C1401 0.950 . S
H1390 C1398 0.950 . S
H1391 C1400 0.950 . S
H1392 C1402 0.950 . S
H1393 C1404 0.950 . S
H1394 C1406 0.950 . S
H1395 C1407 0.950 . S
C1396 H1388 0.950 . S
C1396 C1397 1.386 . S
C1396 C1398 1.391 . S
C1397 C1396 1.386 . S
C1397 C1401 1.393 . S
C1398 H1390 0.950 . S
C1398 C1396 1.391 . S
C1398 C1399 1.400 . S
C1399 C1398 1.400 . S
C1399 C1400 1.398 . S
C1399 C1405 1.491 . S
C1400 H1391 0.950 . S
C1400 C1399 1.398 . S
C1400 C1401 1.391 . S
C1401 H1389 0.950 . S
C1401 C1397 1.393 . S
C1401 C1400 1.391 . S
C1402 H1392 0.950 . S
C1402 C1403 1.386 . S
C1402 C1404 1.391 . S
C1403 C1402 1.386 . S
C1403 C1407 1.393 . S
C1404 H1393 0.950 . S
C1404 C1402 1.391 . S
C1404 C1405 1.400 . S
C1405 C1399 1.491 . S
C1405 C1404 1.400 . S
C1405 C1406 1.398 . S
C1406 H1394 0.950 . S
C1406 C1405 1.398 . S
C1406 C1407 1.391 . S
C1407 H1395 0.950 . S
C1407 C1403 1.393 . S
C1407 C1406 1.391 . S
H1408 C1416 0.950 . S
H1409 C1421 0.950 . S
H1410 C1418 0.950 1_655 S
H1411 C1420 0.950 . S
H1412 C1422 0.950 . S
H1413 C1424 0.950 1_455 S
H1414 C1426 0.950 . S
H1415 C1427 0.950 . S
C1416 H1408 0.950 . S
C1416 C1417 1.386 . S
C1416 C1418 1.391 . S
C1417 C1416 1.386 . S
C1417 C1421 1.393 . S
C1418 H1410 0.950 1_455 S
C1418 C1416 1.391 . S
C1418 C1419 1.400 . S
C1419 C1418 1.400 . S
C1419 C1420 1.398 1_556 S
C1419 C1425 1.491 1_456 S
C1420 H1411 0.950 . S
C1420 C1419 1.398 1_554 S
C1420 C1421 1.391 1_554 S
C1421 H1409 0.950 . S
C1421 C1417 1.393 . S
C1421 C1420 1.391 1_556 S
C1422 H1412 0.950 . S
C1422 C1423 1.386 . S
C1422 C1424 1.391 . S
C1423 C1422 1.386 . S
C1423 C1427 1.393 . S
C1424 H1413 0.950 1_655 S
C1424 C1422 1.391 . S
C1424 C1425 1.400 . S
C1425 C1419 1.491 1_654 S
C1425 C1424 1.400 . S
C1425 C1426 1.398 1_554 S
C1426 H1414 0.950 . S
C1426 C1425 1.398 1_556 S
C1426 C1427 1.391 1_556 S
C1427 H1415 0.950 . S
C1427 C1423 1.393 . S
C1427 C1426 1.391 1_554 S
H1428 C1436 0.950 . S
H1429 C1441 0.950 . S
H1430 C1438 0.950 . S
H1431 C1440 0.950 . S
H1432 C1442 0.950 . S
H1433 C1444 0.950 . S
H1434 C1446 0.950 . S
H1435 C1447 0.950 . S
C1436 H1428 0.950 . S
C1436 C1437 1.386 . S
C1436 C1438 1.391 . S
C1437 C1436 1.386 . S
C1437 C1441 1.393 . S
C1438 H1430 0.950 . S
C1438 C1436 1.391 . S
C1438 C1439 1.400 . S
C1439 C1438 1.400 . S
C1439 C1440 1.398 . S
C1439 C1445 1.491 1_545 S
C1440 H1431 0.950 . S
C1440 C1439 1.398 . S
C1440 C1441 1.391 . S
C1441 H1429 0.950 . S
C1441 C1437 1.393 . S
C1441 C1440 1.391 . S
C1442 H1432 0.950 . S
C1442 C1443 1.386 . S
C1442 C1444 1.391 . S
C1443 C1442 1.386 . S
C1443 C1447 1.393 . S
C1444 H1433 0.950 . S
C1444 C1442 1.391 . S
C1444 C1445 1.400 . S
C1445 C1439 1.491 1_565 S
C1445 C1444 1.400 . S
C1445 C1446 1.398 . S
C1446 H1434 0.950 . S
C1446 C1445 1.398 . S
C1446 C1447 1.391 . S
C1447 H1435 0.950 . S
C1447 C1443 1.393 . S
C1447 C1446 1.391 . S
H1448 C1456 0.950 . S
H1449 C1461 0.950 . S
H1450 C1458 0.950 . S
H1451 C1460 0.950 1_556 S
H1452 C1462 0.950 . S
H1453 C1464 0.950 . S
H1454 C1466 0.950 1_554 S
H1455 C1467 0.950 . S
C1456 H1448 0.950 . S
C1456 C1457 1.386 . S
C1456 C1458 1.391 . S
C1457 C1456 1.386 . S
C1457 C1461 1.393 . S
C1458 H1450 0.950 . S
C1458 C1456 1.391 . S
C1458 C1459 1.400 . S
C1459 C1458 1.400 . S
C1459 C1460 1.398 . S
C1459 C1465 1.491 1_554 S
C1460 H1451 0.950 1_554 S
C1460 C1459 1.398 . S
C1460 C1461 1.391 . S
C1461 H1449 0.950 . S
C1461 C1457 1.393 . S
C1461 C1460 1.391 . S
C1462 H1452 0.950 . S
C1462 C1463 1.386 . S
C1462 C1464 1.391 . S
C1463 C1462 1.386 . S
C1463 C1467 1.393 . S
C1464 H1453 0.950 . S
C1464 C1462 1.391 . S
C1464 C1465 1.400 . S
C1465 C1459 1.491 1_556 S
C1465 C1464 1.400 . S
C1465 C1466 1.398 . S
C1466 H1454 0.950 1_556 S
C1466 C1465 1.398 . S
C1466 C1467 1.391 . S
C1467 H1455 0.950 . S
C1467 C1463 1.393 . S
C1467 C1466 1.391 . S
H1468 C1476 0.950 . S
H1469 C1481 0.950 . S
H1470 C1478 0.950 . S
H1471 C1480 0.950 . S
H1472 C1482 0.950 . S
H1473 C1484 0.950 . S
H1474 C1486 0.950 . S
H1475 C1487 0.950 . S
C1476 H1468 0.950 . S
C1476 C1477 1.386 . S
C1476 C1478 1.391 . S
C1477 C1476 1.386 . S
C1477 C1481 1.393 . S
C1478 H1470 0.950 . S
C1478 C1476 1.391 . S
C1478 C1479 1.400 . S
C1479 C1478 1.400 . S
C1479 C1480 1.398 . S
C1479 C1485 1.491 1_455 S
C1480 H1471 0.950 . S
C1480 C1479 1.398 . S
C1480 C1481 1.391 . S
C1481 H1469 0.950 . S
C1481 C1477 1.393 . S
C1481 C1480 1.391 . S
C1482 H1472 0.950 . S
C1482 C1483 1.386 . S
C1482 C1484 1.391 . S
C1483 C1482 1.386 . S
C1483 C1487 1.393 . S
C1484 H1473 0.950 . S
C1484 C1482 1.391 . S
C1484 C1485 1.400 . S
C1485 C1479 1.491 1_655 S
C1485 C1484 1.400 . S
C1485 C1486 1.398 . S
C1486 H1474 0.950 . S
C1486 C1485 1.398 . S
C1486 C1487 1.391 . S
C1487 H1475 0.950 . S
C1487 C1483 1.393 . S
C1487 C1486 1.391 . S
H1488 C1496 0.950 . S
H1489 C1501 0.950 . S
H1490 C1498 0.950 . S
H1491 C1500 0.950 . S
H1492 C1502 0.950 . S
H1493 C1504 0.950 . S
H1494 C1506 0.950 . S
H1495 C1507 0.950 . S
C1496 H1488 0.950 . S
C1496 C1497 1.386 . S
C1496 C1498 1.391 . S
C1497 C1496 1.386 . S
C1497 C1501 1.393 . S
C1498 H1490 0.950 . S
C1498 C1496 1.391 . S
C1498 C1499 1.400 . S
C1499 C1498 1.400 . S
C1499 C1500 1.398 . S
C1499 C1505 1.491 . S
C1500 H1491 0.950 . S
C1500 C1499 1.398 . S
C1500 C1501 1.391 . S
C1501 H1489 0.950 . S
C1501 C1497 1.393 . S
C1501 C1500 1.391 . S
C1502 H1492 0.950 . S
C1502 C1503 1.386 . S
C1502 C1504 1.391 . S
C1503 C1502 1.386 . S
C1503 C1507 1.393 . S
C1504 H1493 0.950 . S
C1504 C1502 1.391 . S
C1504 C1505 1.400 . S
C1505 C1499 1.491 . S
C1505 C1504 1.400 . S
C1505 C1506 1.398 . S
C1506 H1494 0.950 . S
C1506 C1505 1.398 . S
C1506 C1507 1.391 . S
C1507 H1495 0.950 . S
C1507 C1503 1.393 . S
C1507 C1506 1.391 . S
H1508 C1516 0.950 . S
H1509 C1521 0.950 . S
H1510 C1518 0.950 . S
H1511 C1520 0.950 . S
H1512 C1522 0.950 . S
H1513 C1524 0.950 . S
H1514 C1526 0.950 . S
H1515 C1527 0.950 . S
C1516 H1508 0.950 . S
C1516 C1517 1.386 . S
C1516 C1518 1.391 . S
C1517 C1516 1.386 . S
C1517 C1521 1.393 . S
C1518 H1510 0.950 . S
C1518 C1516 1.391 . S
C1518 C1519 1.400 . S
C1519 C1518 1.400 . S
C1519 C1520 1.398 . S
C1519 C1525 1.491 . S
C1520 H1511 0.950 . S
C1520 C1519 1.398 . S
C1520 C1521 1.391 . S
C1521 H1509 0.950 . S
C1521 C1517 1.393 . S
C1521 C1520 1.391 . S
C1522 H1512 0.950 . S
C1522 C1523 1.386 . S
C1522 C1524 1.391 . S
C1523 C1522 1.386 . S
C1523 C1527 1.393 . S
C1524 H1513 0.950 . S
C1524 C1522 1.391 . S
C1524 C1525 1.400 . S
C1525 C1519 1.491 . S
C1525 C1524 1.400 . S
C1525 C1526 1.398 . S
C1526 H1514 0.950 . S
C1526 C1525 1.398 . S
C1526 C1527 1.391 . S
C1527 H1515 0.950 . S
C1527 C1523 1.393 . S
C1527 C1526 1.391 . S
H1528 C1536 0.950 . S
H1529 C1541 0.950 . S
H1530 C1538 0.950 . S
H1531 C1540 0.950 . S
H1532 C1542 0.950 . S
H1533 C1544 0.950 . S
H1534 C1546 0.950 . S
H1535 C1547 0.950 . S
C1536 H1528 0.950 . S
C1536 C1537 1.386 . S
C1536 C1538 1.391 . S
C1537 C1536 1.386 . S
C1537 C1541 1.393 . S
C1538 H1530 0.950 . S
C1538 C1536 1.391 . S
C1538 C1539 1.400 . S
C1539 C1538 1.400 . S
C1539 C1540 1.398 . S
C1539 C1545 1.491 . S
C1540 H1531 0.950 . S
C1540 C1539 1.398 . S
C1540 C1541 1.391 . S
C1541 H1529 0.950 . S
C1541 C1537 1.393 . S
C1541 C1540 1.391 . S
C1542 H1532 0.950 . S
C1542 C1543 1.386 . S
C1542 C1544 1.391 . S
C1543 C1542 1.386 . S
C1543 C1547 1.393 . S
C1544 H1533 0.950 . S
C1544 C1542 1.391 . S
C1544 C1545 1.400 . S
C1545 C1539 1.491 . S
C1545 C1544 1.400 . S
C1545 C1546 1.398 . S
C1546 H1534 0.950 . S
C1546 C1545 1.398 . S
C1546 C1547 1.391 . S
C1547 H1535 0.950 . S
C1547 C1543 1.393 . S
C1547 C1546 1.391 . S
H1548 C1556 0.950 . S
H1549 C1561 0.950 . S
H1550 C1558 0.950 . S
H1551 C1560 0.950 . S
H1552 C1562 0.950 . S
H1553 C1564 0.950 . S
H1554 C1566 0.950 . S
H1555 C1567 0.950 . S
C1556 H1548 0.950 . S
C1556 C1557 1.386 . S
C1556 C1558 1.391 . S
C1557 C1556 1.386 . S
C1557 C1561 1.393 . S
C1558 H1550 0.950 . S
C1558 C1556 1.391 . S
C1558 C1559 1.400 . S
C1559 C1558 1.400 . S
C1559 C1560 1.398 . S
C1559 C1565 1.491 . S
C1560 H1551 0.950 . S
C1560 C1559 1.398 . S
C1560 C1561 1.391 . S
C1561 H1549 0.950 . S
C1561 C1557 1.393 . S
C1561 C1560 1.391 . S
C1562 H1552 0.950 . S
C1562 C1563 1.386 . S
C1562 C1564 1.391 . S
C1563 C1562 1.386 . S
C1563 C1567 1.393 . S
C1564 H1553 0.950 . S
C1564 C1562 1.391 . S
C1564 C1565 1.400 . S
C1565 C1559 1.491 . S
C1565 C1564 1.400 . S
C1565 C1566 1.398 . S
C1566 H1554 0.950 . S
C1566 C1565 1.398 . S
C1566 C1567 1.391 . S
C1567 H1555 0.950 . S
C1567 C1563 1.393 . S
C1567 C1566 1.391 . S
H1568 C1576 0.950 . S
H1569 C1581 0.950 . S
H1570 C1578 0.950 . S
H1571 C1580 0.950 . S
H1572 C1582 0.950 . S
H1573 C1584 0.950 . S
H1574 C1586 0.950 . S
H1575 C1587 0.950 . S
C1576 H1568 0.950 . S
C1576 C1577 1.386 . S
C1576 C1578 1.391 . S
C1577 C1576 1.386 . S
C1577 C1581 1.393 . S
C1578 H1570 0.950 . S
C1578 C1576 1.391 . S
C1578 C1579 1.400 . S
C1579 C1578 1.400 . S
C1579 C1580 1.398 . S
C1579 C1585 1.491 . S
C1580 H1571 0.950 . S
C1580 C1579 1.398 . S
C1580 C1581 1.391 . S
C1581 H1569 0.950 . S
C1581 C1577 1.393 . S
C1581 C1580 1.391 . S
C1582 H1572 0.950 . S
C1582 C1583 1.386 . S
C1582 C1584 1.391 . S
C1583 C1582 1.386 . S
C1583 C1587 1.393 . S
C1584 H1573 0.950 . S
C1584 C1582 1.391 . S
C1584 C1585 1.400 . S
C1585 C1579 1.491 . S
C1585 C1584 1.400 . S
C1585 C1586 1.398 . S
C1586 H1574 0.950 . S
C1586 C1585 1.398 . S
C1586 C1587 1.391 . S
C1587 H1575 0.950 . S
C1587 C1583 1.393 . S
C1587 C1586 1.391 . S
H1588 C1596 0.950 . S
H1589 C1601 0.950 . S
H1590 C1598 0.950 . S
H1591 C1600 0.950 . S
H1592 C1602 0.950 . S
H1593 C1604 0.950 . S
H1594 C1606 0.950 . S
H1595 C1607 0.950 . S
C1596 H1588 0.950 . S
C1596 C1597 1.386 . S
C1596 C1598 1.391 . S
C1597 C1596 1.386 . S
C1597 C1601 1.393 . S
C1598 H1590 0.950 . S
C1598 C1596 1.391 . S
C1598 C1599 1.400 . S
C1599 C1598 1.400 . S
C1599 C1600 1.398 . S
C1599 C1605 1.491 . S
C1600 H1591 0.950 . S
C1600 C1599 1.398 . S
C1600 C1601 1.391 . S
C1601 H1589 0.950 . S
C1601 C1597 1.393 . S
C1601 C1600 1.391 . S
C1602 H1592 0.950 . S
C1602 C1603 1.386 . S
C1602 C1604 1.391 . S
C1603 C1602 1.386 . S
C1603 C1607 1.393 . S
C1604 H1593 0.950 . S
C1604 C1602 1.391 . S
C1604 C1605 1.400 . S
C1605 C1599 1.491 . S
C1605 C1604 1.400 . S
C1605 C1606 1.398 . S
C1606 H1594 0.950 . S
C1606 C1605 1.398 . S
C1606 C1607 1.391 . S
C1607 H1595 0.950 . S
C1607 C1603 1.393 . S
C1607 C1606 1.391 . S
H1608 C1616 0.950 . S
H1609 C1621 0.950 . S
H1610 C1618 0.950 . S
H1611 C1620 0.950 . S
H1612 C1622 0.950 . S
H1613 C1624 0.950 . S
H1614 C1626 0.950 . S
H1615 C1627 0.950 . S
C1616 H1608 0.950 . S
C1616 C1617 1.386 . S
C1616 C1618 1.391 . S
C1617 C1616 1.386 . S
C1617 C1621 1.393 . S
C1618 H1610 0.950 . S
C1618 C1616 1.391 . S
C1618 C1619 1.400 . S
C1619 C1618 1.400 . S
C1619 C1620 1.398 . S
C1619 C1625 1.491 . S
C1620 H1611 0.950 . S
C1620 C1619 1.398 . S
C1620 C1621 1.391 . S
C1621 H1609 0.950 . S
C1621 C1617 1.393 . S
C1621 C1620 1.391 . S
C1622 H1612 0.950 . S
C1622 C1623 1.386 . S
C1622 C1624 1.391 . S
C1623 C1622 1.386 . S
C1623 C1627 1.393 . S
C1624 H1613 0.950 . S
C1624 C1622 1.391 . S
C1624 C1625 1.400 . S
C1625 C1619 1.491 . S
C1625 C1624 1.400 . S
C1625 C1626 1.398 . S
C1626 H1614 0.950 . S
C1626 C1625 1.398 . S
C1626 C1627 1.391 . S
C1627 H1615 0.950 . S
C1627 C1623 1.393 . S
C1627 C1626 1.391 . S
H1628 C1636 0.950 . S
H1629 C1641 0.950 . S
H1630 C1638 0.950 . S
H1631 C1640 0.950 . S
H1632 C1642 0.950 . S
H1633 C1644 0.950 . S
H1634 C1646 0.950 . S
H1635 C1647 0.950 . S
C1636 H1628 0.950 . S
C1636 C1637 1.386 . S
C1636 C1638 1.391 . S
C1637 C1636 1.386 . S
C1637 C1641 1.393 . S
C1638 H1630 0.950 . S
C1638 C1636 1.391 . S
C1638 C1639 1.400 . S
C1639 C1638 1.400 . S
C1639 C1640 1.398 . S
C1639 C1645 1.491 . S
C1640 H1631 0.950 . S
C1640 C1639 1.398 . S
C1640 C1641 1.391 . S
C1641 H1629 0.950 . S
C1641 C1637 1.393 . S
C1641 C1640 1.391 . S
C1642 H1632 0.950 . S
C1642 C1643 1.386 . S
C1642 C1644 1.391 . S
C1643 C1642 1.386 . S
C1643 C1647 1.393 . S
C1644 H1633 0.950 . S
C1644 C1642 1.391 . S
C1644 C1645 1.400 . S
C1645 C1639 1.491 . S
C1645 C1644 1.400 . S
C1645 C1646 1.398 . S
C1646 H1634 0.950 . S
C1646 C1645 1.398 . S
C1646 C1647 1.391 . S
C1647 H1635 0.950 . S
C1647 C1643 1.393 . S
C1647 C1646 1.391 . S
H1648 C1656 0.950 . S
H1649 C1661 0.950 . S
H1650 C1658 0.950 . S
H1651 C1660 0.950 . S
H1652 C1662 0.950 . S
H1653 C1664 0.950 . S
H1654 C1666 0.950 . S
H1655 C1667 0.950 . S
C1656 H1648 0.950 . S
C1656 C1657 1.386 . S
C1656 C1658 1.391 . S
C1657 C1656 1.386 . S
C1657 C1661 1.393 . S
C1658 H1650 0.950 . S
C1658 C1656 1.391 . S
C1658 C1659 1.400 . S
C1659 C1658 1.400 . S
C1659 C1660 1.398 . S
C1659 C1665 1.491 . S
C1660 H1651 0.950 . S
C1660 C1659 1.398 . S
C1660 C1661 1.391 . S
C1661 H1649 0.950 . S
C1661 C1657 1.393 . S
C1661 C1660 1.391 . S
C1662 H1652 0.950 . S
C1662 C1663 1.386 . S
C1662 C1664 1.391 . S
C1663 C1662 1.386 . S
C1663 C1667 1.393 . S
C1664 H1653 0.950 . S
C1664 C1662 1.391 . S
C1664 C1665 1.400 . S
C1665 C1659 1.491 . S
C1665 C1664 1.400 . S
C1665 C1666 1.398 . S
C1666 H1654 0.950 . S
C1666 C1665 1.398 . S
C1666 C1667 1.391 . S
C1667 H1655 0.950 . S
C1667 C1663 1.393 . S
C1667 C1666 1.391 . S
H1668 C1676 0.950 . S
H1669 C1681 0.950 . S
H1670 C1678 0.950 . S
H1671 C1680 0.950 . S
H1672 C1682 0.950 . S
H1673 C1684 0.950 . S
H1674 C1686 0.950 . S
H1675 C1687 0.950 . S
C1676 H1668 0.950 . S
C1676 C1677 1.386 . S
C1676 C1678 1.391 . S
C1677 C1676 1.386 . S
C1677 C1681 1.393 . S
C1678 H1670 0.950 . S
C1678 C1676 1.391 . S
C1678 C1679 1.400 . S
C1679 C1678 1.400 . S
C1679 C1680 1.398 . S
C1679 C1685 1.491 . S
C1680 H1671 0.950 . S
C1680 C1679 1.398 . S
C1680 C1681 1.391 . S
C1681 H1669 0.950 . S
C1681 C1677 1.393 . S
C1681 C1680 1.391 . S
C1682 H1672 0.950 . S
C1682 C1683 1.386 . S
C1682 C1684 1.391 . S
C1683 C1682 1.386 . S
C1683 C1687 1.393 . S
C1684 H1673 0.950 . S
C1684 C1682 1.391 . S
C1684 C1685 1.400 . S
C1685 C1679 1.491 . S
C1685 C1684 1.400 . S
C1685 C1686 1.398 . S
C1686 H1674 0.950 . S
C1686 C1685 1.398 . S
C1686 C1687 1.391 . S
C1687 H1675 0.950 . S
C1687 C1683 1.393 . S
C1687 C1686 1.391 . S
H1688 C1696 0.950 . S
H1689 C1701 0.950 . S
H1690 C1698 0.950 . S
H1691 C1700 0.950 . S
H1692 C1702 0.950 . S
H1693 C1704 0.950 . S
H1694 C1706 0.950 . S
H1695 C1707 0.950 . S
C1696 H1688 0.950 . S
C1696 C1697 1.386 . S
C1696 C1698 1.391 . S
C1697 C1696 1.386 . S
C1697 C1701 1.393 . S
C1698 H1690 0.950 . S
C1698 C1696 1.391 . S
C1698 C1699 1.400 . S
C1699 C1698 1.400 . S
C1699 C1700 1.398 . S
C1699 C1705 1.491 . S
C1700 H1691 0.950 . S
C1700 C1699 1.398 . S
C1700 C1701 1.391 . S
C1701 H1689 0.950 . S
C1701 C1697 1.393 . S
C1701 C1700 1.391 . S
C1702 H1692 0.950 . S
C1702 C1703 1.386 . S
C1702 C1704 1.391 . S
C1703 C1702 1.386 . S
C1703 C1707 1.393 . S
C1704 H1693 0.950 . S
C1704 C1702 1.391 . S
C1704 C1705 1.400 . S
C1705 C1699 1.491 . S
C1705 C1704 1.400 . S
C1705 C1706 1.398 . S
C1706 H1694 0.950 . S
C1706 C1705 1.398 . S
C1706 C1707 1.391 . S
C1707 H1695 0.950 . S
C1707 C1703 1.393 . S
C1707 C1706 1.391 . S
H1708 C1716 0.950 . S
H1709 C1721 0.950 . S
H1710 C1718 0.950 . S
H1711 C1720 0.950 . S
H1712 C1722 0.950 . S
H1713 C1724 0.950 . S
H1714 C1726 0.950 . S
H1715 C1727 0.950 . S
C1716 H1708 0.950 . S
C1716 C1717 1.386 . S
C1716 C1718 1.391 . S
C1717 C1716 1.386 . S
C1717 C1721 1.393 . S
C1718 H1710 0.950 . S
C1718 C1716 1.391 . S
C1718 C1719 1.400 . S
C1719 C1718 1.400 . S
C1719 C1720 1.398 . S
C1719 C1725 1.491 . S
C1720 H1711 0.950 . S
C1720 C1719 1.398 . S
C1720 C1721 1.391 . S
C1721 H1709 0.950 . S
C1721 C1717 1.393 . S
C1721 C1720 1.391 . S
C1722 H1712 0.950 . S
C1722 C1723 1.386 . S
C1722 C1724 1.391 . S
C1723 C1722 1.386 . S
C1723 C1727 1.393 . S
C1724 H1713 0.950 . S
C1724 C1722 1.391 . S
C1724 C1725 1.400 . S
C1725 C1719 1.491 . S
C1725 C1724 1.400 . S
C1725 C1726 1.398 . S
C1726 H1714 0.950 . S
C1726 C1725 1.398 . S
C1726 C1727 1.391 . S
C1727 H1715 0.950 . S
C1727 C1723 1.393 . S
C1727 C1726 1.391 . S
C1017 C238 1.207 . S
C1023 C67 1.299 . S
C1037 C310 1.225 . S
C1043 C140 1.315 . S
C1057 C235 1.299 . S
C1063 C406 1.207 . S
C1077 C308 1.295 . S
C1083 C478 1.215 . S
C1097 C70 1.237 . S
C1103 C403 1.296 . S
C1117 C142 1.195 . S
C1123 C476 1.323 . S
C1137 C898 1.224 . S
C1143 C560 1.293 . S
C1157 C655 1.316 . S
C1163 C994 1.189 . S
C1177 C728 1.293 . S
C1183 C562 1.231 . S
C1197 C823 1.314 . S
C1203 C658 1.189 . S
C1217 C896 1.323 . S
C1223 C730 1.195 . S
C1237 C826 1.189 . S
C1243 C991 1.320 . S
C1257 C326 1.933 . S
C1263 C63 1.934 . S
C1277 C158 1.945 . S
C1283 C399 1.921 . S
C1297 C231 1.921 . S
C1303 C494 1.945 . S
C1317 C578 1.945 . S
C1323 C819 1.922 . S
C1337 C651 1.934 . S
C1343 C914 1.933 . S
C1357 C746 1.932 . S
C1363 C987 1.935 . S
C1377 C662 2.143 . S
C1383 C74 2.133 . S
C1397 C147 2.138 . S
C1403 C735 2.136 . S
C1417 C830 2.154 . S
C1423 C242 2.136 . S
C1437 C315 2.150 . S
C1443 C903 2.151 . S
C1457 C410 2.145 . S
C1463 C998 2.133 . S
C1477 C567 2.152 . S
C1483 C483 2.148 . S
C1497 C226 1.288 . S
C1503 C56 1.412 . S
C1517 C151 1.401 . S
C1523 C322 1.336 . S
C1537 C224 1.391 . S
C1543 C394 1.323 . S
C1557 C319 1.424 . S
C1563 C490 1.296 . S
C1577 C58 1.289 . S
C1583 C392 1.418 . S
C1597 C154 1.305 . S
C1603 C487 1.425 . S
C1617 C910 1.327 . S
C1623 C571 1.418 . S
C1637 C644 1.425 . S
C1643 C982 1.305 . S
C1657 C739 1.397 . S
C1663 C574 1.299 . S
C1677 C646 1.334 . S
C1683 C812 1.409 . S
C1697 C907 1.402 . S
C1703 C742 1.293 . S
C1717 C980 1.419 . S
C1723 C814 1.290 . S
