# Generated by pormake.
# Topology snw, (6)-cn, num edge types: 1
# Building blocks:
#     Node 0, Type 0, BuildingBlock: OJICUG_clean_sbu_0, # of connection points: 6
#     Node 1, Type 0, BuildingBlock: OJICUG_clean_sbu_0, # of connection points: 6
#     Node 2, Type 0, BuildingBlock: OJICUG_clean_sbu_0, # of connection points: 6
#     Node 3, Type 0, BuildingBlock: OJICUG_clean_sbu_0, # of connection points: 6
#     Node 4, Type 0, BuildingBlock: OJICUG_clean_sbu_0, # of connection points: 6
#     Node 5, Type 0, BuildingBlock: OJICUG_clean_sbu_0, # of connection points: 6
#     Node 6, Type 0, BuildingBlock: OJICUG_clean_sbu_0, # of connection points: 6
#     Node 7, Type 0, BuildingBlock: OJICUG_clean_sbu_0, # of connection points: 6
#     Edge 8, Type (0, 0), BuildingBlock: XUDNAN_clean_linker_2, # of connection points: 2
#     Edge 9, Type (0, 0), BuildingBlock: XUDNAN_clean_linker_2, # of connection points: 2
#     Edge 10, Type (0, 0), BuildingBlock: XUDNAN_clean_linker_2, # of connection points: 2
#     Edge 11, Type (0, 0), BuildingBlock: XUDNAN_clean_linker_2, # of connection points: 2
#     Edge 12, Type (0, 0), BuildingBlock: XUDNAN_clean_linker_2, # of connection points: 2
#     Edge 13, Type (0, 0), BuildingBlock: XUDNAN_clean_linker_2, # of connection points: 2
#     Edge 14, Type (0, 0), BuildingBlock: XUDNAN_clean_linker_2, # of connection points: 2
#     Edge 15, Type (0, 0), BuildingBlock: XUDNAN_clean_linker_2, # of connection points: 2
#     Edge 16, Type (0, 0), BuildingBlock: XUDNAN_clean_linker_2, # of connection points: 2
#     Edge 17, Type (0, 0), BuildingBlock: XUDNAN_clean_linker_2, # of connection points: 2
#     Edge 18, Type (0, 0), BuildingBlock: XUDNAN_clean_linker_2, # of connection points: 2
#     Edge 19, Type (0, 0), BuildingBlock: XUDNAN_clean_linker_2, # of connection points: 2
#     Edge 20, Type (0, 0), BuildingBlock: XUDNAN_clean_linker_2, # of connection points: 2
#     Edge 21, Type (0, 0), BuildingBlock: XUDNAN_clean_linker_2, # of connection points: 2
#     Edge 22, Type (0, 0), BuildingBlock: XUDNAN_clean_linker_2, # of connection points: 2
#     Edge 23, Type (0, 0), BuildingBlock: XUDNAN_clean_linker_2, # of connection points: 2
#     Edge 24, Type (0, 0), BuildingBlock: XUDNAN_clean_linker_2, # of connection points: 2
#     Edge 25, Type (0, 0), BuildingBlock: XUDNAN_clean_linker_2, # of connection points: 2
#     Edge 26, Type (0, 0), BuildingBlock: XUDNAN_clean_linker_2, # of connection points: 2
#     Edge 27, Type (0, 0), BuildingBlock: XUDNAN_clean_linker_2, # of connection points: 2
#     Edge 28, Type (0, 0), BuildingBlock: XUDNAN_clean_linker_2, # of connection points: 2
#     Edge 29, Type (0, 0), BuildingBlock: XUDNAN_clean_linker_2, # of connection points: 2
#     Edge 30, Type (0, 0), BuildingBlock: XUDNAN_clean_linker_2, # of connection points: 2
#     Edge 31, Type (0, 0), BuildingBlock: XUDNAN_clean_linker_2, # of connection points: 2
# Relax obj value: 0.000
# Max RMSD: 0.008
# Mean RMSD: 0.008
data_MOF--net-snw--node1-OJICUG_clean_sbu_0--edge1-XUDNAN_clean_linker_2
_symmetry_space_group_name_H-M    P1
_symmetry_Int_Tables_number       1
_symmetry_cell_setting            triclinic
loop_
_symmetry_equiv_pos_as_xyz
'x, y, z'
_cell_length_a     21.680126
_cell_length_b     21.678852
_cell_length_c     73.793445
_cell_angle_alpha  90.228621
_cell_angle_beta   89.827326
_cell_angle_gamma 89.921849
loop_
_atom_site_label
_atom_site_type_symbol
_atom_site_fract_x
_atom_site_fract_y
_atom_site_fract_z
_atom_type_partial_charge
Sc0 Sc 0.06554 0.21535 0.07353 0.0
Sc1 Sc 0.90617 0.24551 0.07195 0.0
Sc2 Sc 0.985 0.25365 0.11371 0.0
O3 O 0.9855 0.23796 0.08642 0.0
C4 C 0.07568 0.1375 0.10987 0.0
C5 C 0.97075 0.13268 0.05115 0.0
C6 C 0.86062 0.17622 0.1076 0.0
C7 C 0.00466 0.31271 0.04663 0.0
C8 C 0.11119 0.31753 0.10217 0.0
C9 C 0.89069 0.35621 0.10043 0.0
O10 O 0.08852 0.14636 0.09325 0.0
O11 O 0.92441 0.16518 0.05568 0.0
O12 O 0.90382 0.19804 0.11734 0.0
O13 O 0.05025 0.28275 0.05288 0.0
O14 O 0.066 0.31178 0.11304 0.0
O15 O 0.8776 0.32791 0.08586 0.0
O16 O 0.11679 0.28535 0.08782 0.0
O17 O 0.94947 0.30467 0.0521 0.0
O18 O 0.92931 0.33596 0.11188 0.0
O19 O 0.02484 0.14378 0.0569 0.0
O20 O 0.04002 0.17277 0.11891 0.0
O21 O 0.85571 0.18721 0.0907 0.0
Sc22 Sc 0.00755 0.83329 0.31841 0.0
Sc23 Sc 0.98182 0.67457 0.32395 0.0
Sc24 Sc 0.98398 0.77485 0.36227 0.0
O25 O 0.99083 0.76076 0.33491 0.0
C26 C 0.09459 0.86424 0.3519 0.0
C27 C 0.09368 0.72917 0.30105 0.0
C28 C 0.05936 0.64812 0.36004 0.0
C29 C 0.9131 0.75566 0.29429 0.0
C30 C 0.9116 0.89207 0.34664 0.0
C31 C 0.87807 0.67634 0.35482 0.0
O32 O 0.07758 0.86957 0.33558 0.0
O33 O 0.06194 0.68376 0.30662 0.0
O34 O 0.04187 0.6969 0.3682 0.0
O35 O 0.94107 0.80471 0.29879 0.0
O36 O 0.92476 0.85481 0.35936 0.0
O37 O 0.90082 0.65654 0.33999 0.0
O38 O 0.93674 0.88904 0.33104 0.0
O39 O 0.92125 0.70458 0.30237 0.0
O40 O 0.90265 0.71831 0.36444 0.0
O41 O 0.08029 0.78505 0.30452 0.0
O42 O 0.06563 0.83203 0.36348 0.0
O43 O 0.04193 0.63408 0.34409 0.0
Sc44 Sc 0.58397 0.75749 0.56932 0.0
Sc45 Sc 0.42207 0.77375 0.56937 0.0
Sc46 Sc 0.50416 0.78833 0.61027 0.0
O47 O 0.50352 0.77336 0.58295 0.0
C48 C 0.60542 0.68289 0.60612 0.0
C49 C 0.49342 0.66159 0.55019 0.0
C50 C 0.38687 0.70164 0.6055 0.0
C51 C 0.51057 0.84125 0.54119 0.0
C52 C 0.62203 0.86398 0.59718 0.0
C53 C 0.40297 0.88517 0.59722 0.0
O54 O 0.61716 0.69328 0.58949 0.0
O55 O 0.44489 0.69079 0.55476 0.0
O56 O 0.42942 0.72451 0.61521 0.0
O57 O 0.5605 0.8197 0.54758 0.0
O58 O 0.57979 0.85257 0.60867 0.0
O59 O 0.38948 0.85705 0.58259 0.0
O60 O 0.6287 0.83401 0.58246 0.0
O61 O 0.45766 0.82922 0.54772 0.0
O62 O 0.44293 0.86542 0.60832 0.0
O63 O 0.54738 0.67965 0.55437 0.0
O64 O 0.56588 0.71353 0.61512 0.0
O65 O 0.37885 0.71557 0.589 0.0
Sc66 Sc 0.51313 0.30491 0.82317 0.0
Sc67 Sc 0.49947 0.14427 0.81763 0.0
Sc68 Sc 0.50348 0.20575 0.86144 0.0
O69 O 0.50508 0.21869 0.83409 0.0
C70 C 0.60551 0.31031 0.85714 0.0
C71 C 0.60478 0.22312 0.79868 0.0
C72 C 0.58153 0.08851 0.84946 0.0
C73 C 0.42437 0.24261 0.79429 0.0
C74 C 0.42313 0.32932 0.85685 0.0
C75 C 0.39812 0.1142 0.8474 0.0
O76 O 0.58564 0.32996 0.84198 0.0
O77 O 0.57966 0.17222 0.80293 0.0
O78 O 0.56761 0.12901 0.86126 0.0
O79 O 0.44242 0.29081 0.80261 0.0
O80 O 0.44101 0.2817 0.86539 0.0
O81 O 0.41838 0.11134 0.83123 0.0
O82 O 0.44309 0.34335 0.84112 0.0
O83 O 0.44185 0.1889 0.79853 0.0
O84 O 0.425 0.14442 0.85994 0.0
O85 O 0.58482 0.27529 0.80424 0.0
O86 O 0.58094 0.26548 0.86552 0.0
O87 O 0.55847 0.08828 0.83374 0.0
Sc88 Sc 0.00586 0.70683 0.88979 0.0
Sc89 Sc 0.08122 0.74348 0.93082 0.0
Sc90 Sc 0.92131 0.71466 0.93062 0.0
O91 O 0.00278 0.72178 0.91707 0.0
C92 C 0.88199 0.78563 0.8947 0.0
C93 C 0.09738 0.82166 0.89474 0.0
C94 C 0.98314 0.82697 0.95209 0.0
C95 C 0.12972 0.64145 0.90234 0.0
C96 C 0.90867 0.60509 0.90178 0.0
C97 C 0.01558 0.64656 0.95698 0.0
O98 O 0.92685 0.76435 0.88545 0.0
O99 O 0.10763 0.81311 0.91151 0.0
O100 O 0.93743 0.79508 0.94688 0.0
O101 O 0.08545 0.64746 0.89125 0.0
O102 O 0.89461 0.63236 0.91646 0.0
O103 O 0.06255 0.67549 0.95114 0.0
O104 O 0.9483 0.62578 0.89066 0.0
O105 O 0.13426 0.67348 0.91677 0.0
O106 O 0.96134 0.65567 0.95098 0.0
O107 O 0.06293 0.78646 0.88539 0.0
O108 O 0.87377 0.7731 0.91139 0.0
O109 O 0.03824 0.81501 0.94722 0.0
Sc110 Sc 0.48295 0.75599 0.14088 0.0
Sc111 Sc 0.47813 0.81534 0.18498 0.0
Sc112 Sc 0.49798 0.65583 0.1786 0.0
O113 O 0.48607 0.74202 0.16813 0.0
C114 C 0.40635 0.63031 0.14551 0.0
C115 C 0.3742 0.84262 0.15625 0.0
C116 C 0.40944 0.71219 0.20845 0.0
C117 C 0.55565 0.87622 0.15264 0.0
C118 C 0.58857 0.65418 0.14414 0.0
C119 C 0.58883 0.74077 0.20219 0.0
O120 O 0.42162 0.67908 0.13707 0.0
O121 O 0.39359 0.84368 0.1725 0.0
O122 O 0.42734 0.66588 0.19925 0.0
O123 O 0.54557 0.83384 0.1411 0.0
O124 O 0.5706 0.63445 0.15949 0.0
O125 O 0.56209 0.79102 0.19812 0.0
O126 O 0.56163 0.69778 0.13582 0.0
O127 O 0.53119 0.87606 0.16825 0.0
O128 O 0.56923 0.68781 0.19724 0.0
O129 O 0.40318 0.81589 0.14335 0.0
O130 O 0.42876 0.6157 0.16087 0.0
O131 O 0.42604 0.76689 0.205 0.0
Sc132 Sc 0.48522 0.27668 0.38879 0.0
Sc133 Sc 0.57649 0.2697 0.42845 0.0
Sc134 Sc 0.41568 0.24573 0.4305 0.0
O135 O 0.49269 0.26425 0.41594 0.0
C136 C 0.36485 0.34717 0.40368 0.0
C137 C 0.58151 0.38047 0.39963 0.0
C138 C 0.48972 0.33469 0.45764 0.0
C139 C 0.61151 0.19953 0.39174 0.0
C140 C 0.39247 0.16621 0.39462 0.0
C141 C 0.51297 0.15393 0.44775 0.0
O142 O 0.40256 0.33299 0.39106 0.0
O143 O 0.6023 0.35219 0.41348 0.0
O144 O 0.44219 0.30562 0.45235 0.0
O145 O 0.56657 0.22245 0.38298 0.0
O146 O 0.37903 0.18237 0.41072 0.0
O147 O 0.56003 0.18755 0.44469 0.0
O148 O 0.4324 0.19417 0.38512 0.0
O149 O 0.62019 0.21024 0.40852 0.0
O150 O 0.45881 0.16828 0.44283 0.0
O151 O 0.53788 0.35957 0.38996 0.0
O152 O 0.366 0.3219 0.41917 0.0
O153 O 0.54194 0.32933 0.44985 0.0
Sc154 Sc 0.00285 0.28985 0.63799 0.0
Sc155 Sc 0.00727 0.34923 0.68277 0.0
Sc156 Sc 0.01274 0.18831 0.67471 0.0
O157 O 0.00728 0.27585 0.6652 0.0
C158 C 0.91716 0.17144 0.64219 0.0
C159 C 0.90818 0.39006 0.65322 0.0
C160 C 0.92363 0.25179 0.70396 0.0
C161 C 0.09425 0.39652 0.65068 0.0
C162 C 0.10074 0.18105 0.64014 0.0
C163 C 0.10688 0.2605 0.70056 0.0
O164 O 0.93575 0.21916 0.63391 0.0
O165 O 0.93194 0.39293 0.66893 0.0
O166 O 0.94574 0.20563 0.69548 0.0
O167 O 0.0706 0.3604 0.63909 0.0
O168 O 0.0822 0.16183 0.65541 0.0
O169 O 0.08222 0.31325 0.69866 0.0
O170 O 0.07716 0.2268 0.63203 0.0
O171 O 0.07606 0.39949 0.66709 0.0
O172 O 0.08715 0.21215 0.69267 0.0
O173 O 0.92872 0.3552 0.6407 0.0
O174 O 0.93916 0.15452 0.65737 0.0
O175 O 0.93993 0.30711 0.70072 0.0
H176 H 0.92131 0.3831 0.02742 0.0
H177 H 0.11773 0.35208 0.03508 0.0
H178 H 0.14077 0.43472 0.01345 0.0
H179 H 0.93021 0.41448 0.97936 0.0
H180 H 0.87152 0.47342 0.98003 0.0
H181 H 0.86979 0.41134 0.99618 0.0
H182 H 0.86912 0.49075 0.02253 0.0
H183 H 0.87113 0.55307 0.00647 0.0
H184 H 0.92931 0.5479 0.02379 0.0
H185 H 0.1436 0.52114 0.99171 0.0
H186 H 0.12595 0.6041 0.96973 0.0
H187 H 0.92784 0.57937 0.97549 0.0
C188 C 0.96916 0.39348 0.0245 0.0
C189 C 0.01761 0.36085 0.03298 0.0
C190 C 0.07964 0.37603 0.02875 0.0
C191 C 0.09335 0.42311 0.01651 0.0
C192 C 0.04464 0.45454 0.00852 0.0
C193 C 0.98381 0.44028 0.01221 0.0
C194 C 0.94038 0.48123 0.00157 0.0
C195 C 0.90064 0.44281 0.98851 0.0
C196 C 0.90012 0.52056 0.01436 0.0
C197 C 0.98649 0.52062 0.99139 0.0
C198 C 0.04629 0.50451 0.9957 0.0
C199 C 0.09699 0.53422 0.98817 0.0
C200 C 0.08638 0.58147 0.97572 0.0
C201 C 0.02546 0.59845 0.97084 0.0
C202 C 0.97494 0.56758 0.9789 0.0
H203 H 0.63383 0.66184 0.22843 0.0
H204 H 0.6722 0.83275 0.20007 0.0
H205 H 0.76263 0.85024 0.21939 0.0
H206 H 0.66973 0.71766 0.27192 0.0
H207 H 0.70565 0.64802 0.28001 0.0
H208 H 0.64752 0.64388 0.26267 0.0
H209 H 0.72333 0.5851 0.24159 0.0
H210 H 0.78162 0.58861 0.25893 0.0
H211 H 0.7977 0.61819 0.23662 0.0
H212 H 0.84152 0.85536 0.24278 0.0
H213 H 0.90947 0.84662 0.2691 0.0
H214 H 0.82303 0.67252 0.28342 0.0
C215 C 0.66226 0.70207 0.22608 0.0
C216 C 0.64621 0.74594 0.21276 0.0
C217 C 0.68359 0.79876 0.21026 0.0
C218 C 0.73518 0.80901 0.22111 0.0
C219 C 0.7489 0.76604 0.23443 0.0
C220 C 0.71404 0.71343 0.23698 0.0
C221 C 0.73736 0.67715 0.25316 0.0
C222 C 0.68706 0.67137 0.2678 0.0
C223 C 0.76144 0.61348 0.24721 0.0
C224 C 0.78968 0.7185 0.25944 0.0
C225 C 0.79542 0.76917 0.24828 0.0
C226 C 0.83808 0.8156 0.25155 0.0
C227 C 0.87624 0.8103 0.26665 0.0
C228 C 0.87169 0.75888 0.2784 0.0
C229 C 0.82797 0.71211 0.27463 0.0
H230 H 0.57649 0.6088 0.52633 0.0
H231 H 0.39249 0.58724 0.54884 0.0
H232 H 0.37501 0.4978 0.52884 0.0
H233 H 0.53575 0.57555 0.4811 0.0
H234 H 0.60534 0.53389 0.47556 0.0
H235 H 0.60654 0.59273 0.49283 0.0
H236 H 0.64995 0.51409 0.51587 0.0
H237 H 0.64919 0.455 0.49862 0.0
H238 H 0.60925 0.44288 0.51976 0.0
H239 H 0.37401 0.41616 0.50545 0.0
H240 H 0.38919 0.34549 0.47977 0.0
H241 H 0.57367 0.41886 0.47152 0.0
C242 C 0.53303 0.58445 0.52728 0.0
C243 C 0.48589 0.60489 0.53919 0.0
C244 C 0.42918 0.57257 0.53979 0.0
C245 C 0.41887 0.52155 0.52854 0.0
C246 C 0.46565 0.50337 0.51671 0.0
C247 C 0.52168 0.53354 0.51598 0.0
C248 C 0.56259 0.50637 0.50122 0.0
C249 C 0.57846 0.55504 0.48683 0.0
C250 C 0.62122 0.47789 0.50936 0.0
C251 C 0.52026 0.457 0.49362 0.0
C252 C 0.46485 0.45597 0.5029 0.0
C253 C 0.41737 0.41611 0.49814 0.0
C254 C 0.4265 0.37622 0.48344 0.0
C255 C 0.48271 0.37637 0.47354 0.0
C256 C 0.53036 0.41719 0.47885 0.0
H257 H 0.65509 0.31527 0.77721 0.0
H258 H 0.67741 0.12308 0.7925 0.0
H259 H 0.76233 0.11226 0.7707 0.0
H260 H 0.68228 0.29341 0.73018 0.0
H261 H 0.72517 0.36369 0.72693 0.0
H262 H 0.66817 0.35909 0.74468 0.0
H263 H 0.75019 0.3904 0.76843 0.0
H264 H 0.80739 0.39558 0.75073 0.0
H265 H 0.82075 0.34667 0.77002 0.0
H266 H 0.83831 0.1182 0.74631 0.0
H267 H 0.90791 0.14233 0.72111 0.0
H268 H 0.84118 0.33158 0.721 0.0
C269 C 0.67856 0.27128 0.77615 0.0
C270 C 0.65925 0.21997 0.78654 0.0
C271 C 0.69079 0.16296 0.78461 0.0
C272 C 0.73933 0.15629 0.7723 0.0
C273 C 0.75622 0.20705 0.76199 0.0
C274 C 0.72746 0.26364 0.7638 0.0
C275 C 0.75419 0.30983 0.75047 0.0
C276 C 0.70448 0.33284 0.73729 0.0
C277 C 0.78497 0.36381 0.76052 0.0
C278 C 0.80168 0.26982 0.7408 0.0
C279 C 0.80168 0.21077 0.74776 0.0
C280 C 0.83928 0.16439 0.74081 0.0
C281 C 0.87843 0.17861 0.72638 0.0
C282 C 0.88015 0.23891 0.71901 0.0
C283 C 0.84126 0.28522 0.72641 0.0
H284 H 0.32572 0.32052 0.7863 0.0
H285 H 0.44024 0.17325 0.76449 0.0
H286 H 0.37532 0.16781 0.73741 0.0
H287 H 0.18429 0.25875 0.77218 0.0
H288 H 0.14869 0.33082 0.76599 0.0
H289 H 0.20787 0.32949 0.78305 0.0
H290 H 0.27153 0.40927 0.76488 0.0
H291 H 0.21223 0.41125 0.74782 0.0
H292 H 0.29071 0.39361 0.74152 0.0
H293 H 0.294 0.16807 0.71475 0.0
H294 H 0.20123 0.17971 0.69591 0.0
H295 H 0.13763 0.32862 0.73083 0.0
C296 C 0.33766 0.28832 0.7756 0.0
C297 C 0.38774 0.24706 0.77752 0.0
C298 C 0.40164 0.20481 0.76338 0.0
C299 C 0.36527 0.20149 0.74788 0.0
C300 C 0.31512 0.24101 0.74658 0.0
C301 C 0.30131 0.28415 0.75986 0.0
C302 C 0.2422 0.31831 0.75525 0.0
C303 C 0.19286 0.30874 0.76999 0.0
C304 C 0.25495 0.38721 0.75218 0.0
C305 C 0.2246 0.28617 0.73766 0.0
C306 C 0.26769 0.24194 0.73297 0.0
C307 C 0.26026 0.2032 0.71805 0.0
C308 C 0.20723 0.20983 0.70753 0.0
C309 C 0.16252 0.25512 0.71189 0.0
C310 C 0.17162 0.29419 0.72707 0.0
H311 H 0.29651 0.65571 0.21355 0.0
H312 H 0.44427 0.7517 0.24124 0.0
H313 H 0.38333 0.7527 0.26945 0.0
H314 H 0.17821 0.74056 0.23241 0.0
H315 H 0.12357 0.67853 0.23486 0.0
H316 H 0.18237 0.67417 0.21766 0.0
H317 H 0.21985 0.56974 0.23054 0.0
H318 H 0.16074 0.57353 0.24776 0.0
H319 H 0.2404 0.56433 0.25414 0.0
H320 H 0.30302 0.7598 0.29259 0.0
H321 H 0.20678 0.76876 0.31035 0.0
H322 H 0.1087 0.66635 0.26895 0.0
C323 C 0.31647 0.67483 0.22578 0.0
C324 C 0.37511 0.70305 0.22542 0.0
C325 C 0.39944 0.72961 0.2414 0.0
C326 C 0.36534 0.73017 0.25747 0.0
C327 C 0.30685 0.70393 0.25735 0.0
C328 C 0.28249 0.67625 0.24203 0.0
C329 C 0.21586 0.65755 0.24524 0.0
C330 C 0.17247 0.68964 0.23175 0.0
C331 C 0.20881 0.58709 0.24437 0.0
C332 C 0.20613 0.6815 0.26442 0.0
C333 C 0.25966 0.7074 0.27115 0.0
C334 C 0.2612 0.73827 0.28773 0.0
C335 C 0.20644 0.7434 0.29767 0.0
C336 C 0.15118 0.71733 0.29108 0.0
C337 C 0.15107 0.68506 0.27442 0.0
H338 H 0.58655 0.12673 0.47713 0.0
H339 H 0.45169 0.04895 0.44024 0.0
H340 H 0.44647 0.95497 0.4587 0.0
H341 H 0.66344 0.9749 0.48931 0.0
H342 H 0.6731 -0.0018 0.5126 0.0
H343 H 0.6752 0.05509 0.49485 0.0
H344 H 0.58846 0.11629 0.51112 0.0
H345 H 0.58548 0.05934 0.52876 0.0
H346 H 0.51664 0.07831 0.51631 0.0
H347 H 0.44076 0.87966 0.48307 0.0
H348 H 0.44194 0.82044 0.51151 0.0
H349 H 0.58306 0.94168 0.53302 0.0
C350 C 0.55781 0.08883 0.47266 0.0
C351 C 0.51969 0.09473 0.45727 0.0
C352 C 0.48117 0.04516 0.45202 0.0
C353 C 0.47805 0.99153 0.46237 0.0
C354 C 0.51401 0.98796 0.4779 0.0
C355 C 0.55389 0.03464 0.48297 0.0
C356 C 0.58277 0.02087 0.50126 0.0
C357 C 0.6528 0.01171 0.49938 0.0
C358 C 0.56738 0.07173 0.51517 0.0
C359 C 0.55072 0.96073 0.5059 0.0
C360 C 0.51162 0.94264 0.49211 0.0
C361 C 0.47229 0.8923 0.49379 0.0
C362 C 0.47286 0.85934 0.51001 0.0
C363 C 0.51288 0.87645 0.52425 0.0
C364 C 0.55298 0.92721 0.52212 0.0
H365 H 0.05895 0.06366 0.03289 0.0
H366 H 0.86091 0.09122 0.03775 0.0
H367 H 0.84416 0.01918 0.01246 0.0
H368 H 0.06456 0.05559 0.98472 0.0
H369 H 0.12227 0.99574 0.98369 0.0
H370 H 0.11991 0.04785 0.00276 0.0
H371 H 0.11149 0.95552 0.0248 0.0
H372 H 0.11478 0.90308 0.00582 0.0
H373 H 0.05123 0.89934 0.02158 0.0
H374 H 0.84791 0.94895 0.98597 0.0
H375 H 0.87126 0.87558 0.96144 0.0
H376 H 0.06688 0.89061 0.97343 0.0
C377 C 0.01202 0.0539 0.02882 0.0
C378 C 0.9613 0.08348 0.03736 0.0
C379 C 0.90065 0.06952 0.03147 0.0
C380 C 0.89056 0.02871 0.01705 0.0
C381 C 0.94146 0.00181 0.00864 0.0
C382 C 0.00096 0.01301 0.0144 0.0
C383 C 0.0473 0.97763 0.00288 0.0
C384 C 0.09109 0.02186 0.99292 0.0
C385 C 0.08331 0.93112 0.01446 0.0
C386 C 0.00438 0.94515 0.98973 0.0
C387 C 0.9436 0.9602 0.9933 0.0
C388 C 0.89528 0.93643 0.9831 0.0
C389 C 0.90916 0.8948 0.96914 0.0
C390 C 0.97096 0.87694 0.96547 0.0
C391 C 0.01923 0.90346 0.97577 0.0
H392 H 0.33526 0.88351 0.12311 0.0
H393 H 0.2849 0.88078 0.18009 0.0
H394 H 0.1951 0.94702 0.17364 0.0
H395 H 0.30451 0.03786 0.11638 0.0
H396 H 0.27452 0.02955 0.09375 0.0
H397 H 0.32911 0.97436 0.10225 0.0
H398 H 0.25264 0.8855 0.09541 0.0
H399 H 0.19776 0.94053 0.08679 0.0
H400 H 0.17564 0.88855 0.10466 0.0
H401 H 0.11793 0.02204 0.16171 0.0
H402 H 0.05985 0.10182 0.14524 0.0
H403 H 0.1615 0.0566 0.09609 0.0
C404 C 0.30446 0.89547 0.13416 0.0
C405 C 0.31693 0.87673 0.15208 0.0
C406 C 0.27627 0.8946 0.16624 0.0
C407 C 0.22495 0.93194 0.16271 0.0
C408 C 0.21486 0.95088 0.14495 0.0
C409 C 0.25332 0.9331 0.13089 0.0
C410 C 0.23566 0.96441 0.11336 0.0
C411 C 0.28912 0.00388 0.10602 0.0
C412 C 0.21413 0.9169 0.09922 0.0
C413 C 0.18258 0.00412 0.1199 0.0
C414 C 0.17068 0.99492 0.13809 0.0
C415 C 0.12621 0.02907 0.1474 0.0
C416 C 0.09359 0.07445 0.13792 0.0
C417 C 0.106 0.08562 0.11934 0.0
C418 C 0.15042 0.04903 0.11023 0.0
H419 H 0.12049 0.92183 0.38423 0.0
H420 H 0.19552 0.88128 0.33092 0.0
H421 H 0.28598 0.94604 0.33754 0.0
H422 H 0.15836 0.07644 0.38425 0.0
H423 H 0.17827 0.0821 0.4079 0.0
H424 H 0.12436 0.02442 0.40045 0.0
H425 H 0.19184 0.9387 0.4147 0.0
H426 H 0.24584 0.99629 0.42235 0.0
H427 H 0.27215 0.93276 0.40851 0.0
H428 H 0.36082 0.02366 0.34807 0.0
H429 H 0.41735 0.10955 0.3622 0.0
H430 H 0.29395 0.10232 0.40868 0.0
C431 C 0.15697 0.92526 0.37423 0.0
C432 C 0.15144 0.89657 0.35712 0.0
C433 C 0.19907 0.90316 0.3441 0.0
C434 C 0.25072 0.93951 0.34776 0.0
C435 C 0.25402 0.96896 0.3645 0.0
C436 C 0.20875 0.96212 0.37759 0.0
C437 C 0.22086 0.00376 0.39373 0.0
C438 C 0.16728 0.04937 0.39675 0.0
C439 C 0.23343 0.96559 0.41084 0.0
C440 C 0.27862 0.03646 0.38732 0.0
C441 C 0.29737 0.01495 0.37055 0.0
C442 C 0.34725 0.04039 0.36133 0.0
C443 C 0.37882 0.08944 0.36944 0.0
C444 C 0.36015 0.11279 0.38656 0.0
C445 C 0.30974 0.08528 0.39566 0.0
H446 H 0.10733 0.09684 0.61257 0.0
H447 H 0.2171 0.19842 0.65147 0.0
H448 H 0.31049 0.14217 0.6414 0.0
H449 H 0.17646 0.95541 0.61988 0.0
H450 H 0.17439 0.92885 0.59671 0.0
H451 H 0.11835 0.98402 0.60462 0.0
H452 H 0.15 0.05905 0.57898 0.0
H453 H 0.20617 0.00388 0.57094 0.0
H454 H 0.22969 0.0813 0.57659 0.0
H455 H 0.38765 0.06771 0.6302 0.0
H456 H 0.4452 0.9775 0.61887 0.0
H457 H 0.28646 0.92169 0.58707 0.0
C458 C 0.15156 0.10822 0.61848 0.0
C459 C 0.15606 0.15233 0.63249 0.0
C460 C 0.21367 0.16518 0.64051 0.0
C461 C 0.26671 0.13368 0.63485 0.0
C462 C 0.26098 0.08951 0.62119 0.0
C463 C 0.20501 0.07672 0.61305 0.0
C464 C 0.2106 0.02256 0.60007 0.0
C465 C 0.1674 0.96959 0.60566 0.0
C466 C 0.1984 0.04294 0.58048 0.0
C467 C 0.27778 0.00549 0.60275 0.0
C468 C 0.30605 0.04544 0.61477 0.0
C469 C 0.36644 0.03668 0.62053 0.0
C470 C 0.39861 0.98511 0.6141 0.0
C471 C 0.37032 0.94276 0.60205 0.0
C472 C 0.30956 0.95392 0.596 0.0
H473 H 0.18579 0.89998 0.90841 0.0
H474 H 0.08164 0.85874 0.85962 0.0
H475 H 0.14108 0.93702 0.84303 0.0
H476 H 0.20295 0.06807 0.89995 0.0
H477 H 0.28016 0.0693 0.90894 0.0
H478 H 0.22449 0.01518 0.91764 0.0
H479 H 0.29923 0.92501 0.91032 0.0
H480 H 0.3549 0.97867 0.90154 0.0
H481 H 0.32826 0.91587 0.88754 0.0
H482 H 0.21888 0.00999 0.83082 0.0
H483 H 0.30863 0.07575 0.824 0.0
H484 H 0.36132 0.07181 0.88071 0.0
C485 C 0.17452 0.90824 0.89434 0.0
C486 C 0.12897 0.87303 0.88536 0.0
C487 C 0.11631 0.88493 0.86685 0.0
C488 C 0.14967 0.92952 0.85729 0.0
C489 C 0.19518 0.96228 0.86644 0.0
C490 C 0.20734 0.95269 0.88459 0.0
C491 C 0.26148 0.99127 0.89087 0.0
C492 C 0.24103 0.03878 0.9052 0.0
C493 C 0.31406 0.95024 0.89798 0.0
C494 C 0.2791 0.02235 0.87326 0.0
C495 C 0.23988 0.00538 0.85939 0.0
C496 C 0.24934 0.02449 0.84161 0.0
C497 C 0.30062 0.06155 0.83786 0.0
C498 C 0.34174 0.07915 0.85184 0.0
C499 C 0.3301 0.06 0.8698 0.0
H500 H 0.79976 0.86999 0.9095 0.0
H501 H 0.8642 0.79292 0.85836 0.0
H502 H 0.79397 0.86137 0.84187 0.0
H503 H 0.63931 0.88979 0.89616 0.0
H504 H 0.63 0.96211 0.908 0.0
H505 H 0.68408 0.9056 0.9162 0.0
H506 H 0.77152 0.98677 0.91483 0.0
H507 H 0.71777 0.04346 0.90657 0.0
H508 H 0.78678 0.02623 0.89383 0.0
H509 H 0.71941 0.93659 0.83069 0.0
H510 H 0.64306 0.01753 0.82498 0.0
H511 H 0.62562 0.05053 0.88294 0.0
C512 C 0.79862 0.86726 0.89485 0.0
C513 C 0.83757 0.82602 0.88524 0.0
C514 C 0.83518 0.82427 0.86605 0.0
C515 C 0.79529 0.86286 0.85653 0.0
C516 C 0.75813 0.90328 0.86634 0.0
C517 C 0.75921 0.9061 0.88503 0.0
C518 C 0.71504 0.95526 0.89203 0.0
C519 C 0.66408 0.92645 0.90379 0.0
C520 C 0.74988 0.00593 0.90243 0.0
C521 C 0.68931 0.97943 0.8743 0.0
C522 C 0.71486 0.94828 0.85973 0.0
C523 C 0.69885 0.96134 0.84195 0.0
C524 C 0.6552 0.00743 0.83889 0.0
C525 C 0.62798 0.04039 0.85351 0.0
C526 C 0.64565 0.02631 0.87149 0.0
H527 H 0.84244 0.08022 0.65663 0.0
H528 H 0.88806 0.17391 0.60638 0.0
H529 H 0.81622 0.107 0.58987 0.0
H530 H 0.82856 0.92891 0.63795 0.0
H531 H 0.7634 0.90705 0.65171 0.0
H532 H 0.8176 0.96325 0.66002 0.0
H533 H 0.72865 0.04151 0.66498 0.0
H534 H 0.67412 0.98543 0.65674 0.0
H535 H 0.67856 0.0604 0.64634 0.0
H536 H 0.7462 0.02643 0.57821 0.0
H537 H 0.67392 0.94074 0.57247 0.0
H538 H 0.66714 0.90202 0.63011 0.0
C539 C 0.83698 0.08682 0.64218 0.0
C540 C 0.87102 0.13243 0.63284 0.0
C541 C 0.86236 0.13969 0.61392 0.0
C542 C 0.82175 0.10174 0.60435 0.0
C543 C 0.78936 0.0571 0.61388 0.0
C544 C 0.7957 0.04978 0.63238 0.0
C545 C 0.75474 -0.00189 0.63921 0.0
C546 C 0.7934 0.94627 0.64772 0.0
C547 C 0.70613 0.02286 0.65261 0.0
C548 C 0.72533 0.97723 0.6216 0.0
C549 C 0.74645 0.01173 0.60717 0.0
C550 C 0.72865 -0.00053 0.5894 0.0
C551 C 0.68789 0.95062 0.58627 0.0
C552 C 0.66479 0.91526 0.60086 0.0
C553 C 0.68349 0.92903 0.61876 0.0
H554 H 0.86547 0.93292 0.3795 0.0
H555 H 0.85229 0.963 0.32148 0.0
H556 H 0.77533 0.04487 0.32684 0.0
H557 H 0.70492 0.95749 0.38995 0.0
H558 H 0.71975 0.99714 0.41101 0.0
H559 H 0.77365 0.94035 0.40268 0.0
H560 H 0.86155 0.02102 0.40417 0.0
H561 H 0.8079 0.0781 0.41247 0.0
H562 H 0.85301 0.09328 0.39242 0.0
H563 H 0.69819 0.1217 0.33827 0.0
H564 H 0.62809 0.19096 0.35509 0.0
H565 H 0.6931 0.11439 0.40588 0.0
C566 C 0.84629 0.95656 0.36791 0.0
C567 C 0.86501 0.94122 0.35004 0.0
C568 C 0.839 0.97381 0.33529 0.0
C569 C 0.7951 0.02041 0.33819 0.0
C570 C 0.77785 0.03441 0.35593 0.0
C571 C 0.80276 0.00373 0.37057 0.0
C572 C 0.77667 0.0285 0.38828 0.0
C573 C 0.74166 0.97785 0.39858 0.0
C574 C 0.82784 0.05692 0.40002 0.0
C575 C 0.73298 0.07763 0.38128 0.0
C576 C 0.73426 0.07997 0.36258 0.0
C577 C 0.69698 0.12049 0.35293 0.0
C578 C 0.65717 0.15961 0.36263 0.0
C579 C 0.6551 0.15845 0.38183 0.0
C580 C 0.69394 0.11694 0.39123 0.0
H581 H 0.61039 0.90575 0.11963 0.0
H582 H 0.60046 0.96204 0.1762 0.0
H583 H 0.67425 0.04505 0.17026 0.0
H584 H 0.77217 0.93424 0.1137 0.0
H585 H 0.76522 0.96409 0.09104 0.0
H586 H 0.70994 0.90896 0.09933 0.0
H587 H 0.62098 0.98459 0.09197 0.0
H588 H 0.67602 0.03996 0.08364 0.0
H589 H 0.62239 0.06161 0.10127 0.0
H590 H 0.7517 0.11845 0.15922 0.0
H591 H 0.82744 0.18221 0.14303 0.0
H592 H 0.78746 0.08372 0.09306 0.0
C593 C 0.62356 0.93571 0.13073 0.0
C594 C 0.59923 0.92708 0.14839 0.0
C595 C 0.61786 0.96748 0.16253 0.0
C596 C 0.65997 0.01494 0.15933 0.0
C597 C 0.68308 0.02207 0.14188 0.0
C598 C 0.66552 0.98406 0.12775 0.0
C599 C 0.69822 0.00232 0.11032 0.0
C600 C 0.7388 0.94924 0.10318 0.0
C601 C 0.65161 0.02338 0.09595 0.0
C602 C 0.73719 0.05596 0.11702 0.0
C603 C 0.72758 0.06614 0.1353 0.0
C604 C 0.75942 0.11132 0.14487 0.0
C605 C 0.80256 0.14714 0.13554 0.0
C606 C 0.81334 0.13809 0.11677 0.0
C607 C 0.77971 0.09213 0.10736 0.0
H608 H 0.86984 0.43154 0.62011 0.0
H609 H 0.82626 0.43872 0.67756 0.0
H610 H 0.73875 0.50815 0.6712 0.0
H611 H 0.84152 0.58857 0.61165 0.0
H612 H 0.80892 0.57677 0.58946 0.0
H613 H 0.86423 0.52265 0.59821 0.0
H614 H 0.78655 0.4334 0.59329 0.0
H615 H 0.73092 0.48731 0.5845 0.0
H616 H 0.71072 0.43838 0.60329 0.0
H617 H 0.65993 0.57965 0.65901 0.0
H618 H 0.59716 0.65389 0.64206 0.0
H619 H 0.69373 0.60349 0.59242 0.0
C620 C 0.84125 0.44694 0.63131 0.0
C621 C 0.85452 0.42958 0.64931 0.0
C622 C 0.8169 0.45162 0.66366 0.0
C623 C 0.76694 0.49072 0.66018 0.0
C624 C 0.75552 0.50747 0.64231 0.0
C625 C 0.79166 0.48659 0.6281 0.0
C626 C 0.77207 0.51517 0.61032 0.0
C627 C 0.82482 0.55304 0.60193 0.0
C628 C 0.74866 0.4656 0.59707 0.0
C629 C 0.71998 0.55627 0.61683 0.0
C630 C 0.71074 0.55032 0.63528 0.0
C631 C 0.66645 0.58456 0.64454 0.0
C632 C 0.63106 0.62672 0.63474 0.0
C633 C 0.64053 0.63482 0.61586 0.0
C634 C 0.68522 0.59842 0.60681 0.0
H635 H 0.86186 0.57142 0.86886 0.0
H636 H 0.87622 0.51337 0.92485 0.0
H637 H 0.80844 0.42448 0.9184 0.0
H638 H 0.70498 0.54293 0.8652 0.0
H639 H 0.7066 0.51657 0.842 0.0
H640 H 0.76456 0.56927 0.85 0.0
H641 H 0.85052 0.49337 0.83986 0.0
H642 H 0.79274 0.4405 0.83169 0.0
H643 H 0.84926 0.41494 0.84788 0.0
H644 H 0.73285 0.3483 0.90681 0.0
H645 H 0.6503 0.29144 0.89129 0.0
H646 H 0.67962 0.40183 0.84299 0.0
C647 C 0.8522 0.53874 0.87957 0.0
C648 C 0.87486 0.54829 0.89727 0.0
C649 C 0.85958 0.50622 0.91117 0.0
C650 C 0.82137 0.45562 0.90762 0.0
C651 C 0.79839 0.44823 0.89013 0.0
C652 C 0.81303 0.48862 0.87632 0.0
C653 C 0.77665 0.47406 0.85932 0.0
C654 C 0.73578 0.52897 0.85382 0.0
C655 C 0.81988 0.45454 0.84377 0.0
C656 C 0.73824 0.42022 0.86589 0.0
C657 C 0.75245 0.40545 0.88359 0.0
C658 C 0.72168 0.35898 0.89288 0.0
C659 C 0.6747 0.327 0.88392 0.0
C660 C 0.65821 0.34209 0.86588 0.0
C661 C 0.69107 0.38901 0.85674 0.0
H662 H 0.66774 0.56856 0.15872 0.0
H663 H 0.62892 0.66892 0.10919 0.0
H664 H 0.71112 0.61096 0.09349 0.0
H665 H 0.83732 0.55708 0.15168 0.0
H666 H 0.84048 0.4806 0.16113 0.0
H667 H 0.78328 0.53485 0.16908 0.0
H668 H 0.69684 0.4565 0.16151 0.0
H669 H 0.7536 0.40218 0.15353 0.0
H670 H 0.69155 0.42548 0.13886 0.0
H671 H 0.78671 0.53315 0.08213 0.0
H672 H 0.85422 0.44332 0.07627 0.0
H673 H 0.84822 0.39653 0.13333 0.0
C674 C 0.67714 0.57916 0.14465 0.0
C675 C 0.64165 0.62331 0.1352 0.0
C676 C 0.65546 0.63552 0.11677 0.0
C677 C 0.7022 0.6029 0.10772 0.0
C678 C 0.73539 0.55888 0.11734 0.0
C679 C 0.72403 0.54744 0.13545 0.0
C680 C 0.76392 0.49518 0.14236 0.0
C681 C 0.80893 0.51833 0.15692 0.0
C682 C 0.72409 0.44169 0.14947 0.0
C683 C 0.79771 0.47743 0.12512 0.0
C684 C 0.78084 0.51507 0.11087 0.0
C685 C 0.80137 0.50422 0.09324 0.0
C686 C 0.83944 0.45305 0.09003 0.0
C687 C 0.85694 0.41375 0.1044 0.0
C688 C 0.83681 0.4269 0.12221 0.0
H689 H 0.86196 0.61213 0.38601 0.0
H690 H 0.76832 0.67284 0.33747 0.0
H691 H 0.67502 0.61517 0.3467 0.0
H692 H 0.8106 0.46191 0.3834 0.0
H693 H 0.80254 0.44964 0.40744 0.0
H694 H 0.85697 0.50538 0.39916 0.0
H695 H 0.80537 0.5902 0.41889 0.0
H696 H 0.75069 0.53452 0.42728 0.0
H697 H 0.72377 0.60441 0.41676 0.0
H698 H 0.59732 0.54416 0.35929 0.0
H699 H 0.5422 0.45672 0.37267 0.0
H700 H 0.68841 0.43483 0.41232 0.0
C701 C 0.8209 0.61468 0.37772 0.0
C702 C 0.82108 0.64767 0.36129 0.0
C703 C 0.76807 0.64835 0.35024 0.0
C704 C 0.71503 0.61607 0.35543 0.0
C705 C 0.7164 0.58287 0.37157 0.0
C706 C 0.76804 0.58147 0.38251 0.0
C707 C 0.76039 0.53536 0.39776 0.0
C708 C 0.81059 0.48511 0.39687 0.0
C709 C 0.76002 0.56809 0.41627 0.0
C710 C 0.69733 0.50951 0.39328 0.0
C711 C 0.67229 0.53886 0.37841 0.0
C712 C 0.61612 0.52117 0.37104 0.0
C713 C 0.58529 0.47112 0.37874 0.0
C714 C 0.61107 0.43842 0.39353 0.0
C715 C 0.6672 0.45903 0.40114 0.0
H716 H 0.32051 0.38886 0.3709 0.0
H717 H 0.30199 0.41421 0.42909 0.0
H718 H 0.22246 0.49352 0.42409 0.0
H719 H 0.29912 0.5485 0.35841 0.0
H720 H 0.25477 0.53087 0.33844 0.0
H721 H 0.31155 0.47683 0.34646 0.0
H722 H 0.22816 0.39149 0.34791 0.0
H723 H 0.17109 0.4453 0.33993 0.0
H724 H 0.15878 0.40472 0.3609 0.0
H725 H 0.1467 0.57099 0.41305 0.0
H726 H 0.07575 0.63955 0.39658 0.0
H727 H 0.13911 0.56182 0.34547 0.0
C728 C 0.29996 0.41136 0.38258 0.0
C729 C 0.31767 0.39536 0.40039 0.0
C730 C 0.28911 0.42544 0.41531 0.0
C731 C 0.24396 0.4707 0.41263 0.0
C732 C 0.22735 0.48513 0.39494 0.0
C733 C 0.2541 0.45625 0.38015 0.0
C734 C 0.22653 0.47956 0.36258 0.0
C735 C 0.27594 0.5108 0.35078 0.0
C736 C 0.19422 0.42714 0.35222 0.0
C737 C 0.18032 0.52615 0.36985 0.0
C738 C 0.18199 0.52882 0.38855 0.0
C739 C 0.14475 0.56921 0.39841 0.0
C740 C 0.10469 0.60807 0.38891 0.0
C741 C 0.10165 0.60595 0.36974 0.0
C742 C 0.13991 0.56411 0.36013 0.0
H743 H 0.14991 0.36469 0.13511 0.0
H744 H 0.17794 0.37989 0.07701 0.0
H745 H 0.25434 0.46213 0.08205 0.0
H746 H 0.16611 0.5264 0.14605 0.0
H747 H 0.20825 0.51337 0.16671 0.0
H748 H 0.15413 0.45649 0.15873 0.0
H749 H 0.23992 0.37325 0.15922 0.0
H750 H 0.29425 0.42985 0.16724 0.0
H751 H 0.31066 0.38631 0.14692 0.0
H752 H 0.32418 0.54446 0.09294 0.0
H753 H 0.39148 0.61707 0.1092 0.0
H754 H 0.32547 0.54573 0.16063 0.0
C755 C 0.17211 0.38552 0.12348 0.0
C756 C 0.15786 0.36598 0.10565 0.0
C757 C 0.18835 0.39382 0.09078 0.0
C758 C 0.23161 0.44079 0.0935 0.0
C759 C 0.24467 0.45897 0.11118 0.0
C760 C 0.21656 0.43187 0.12597 0.0
C761 C 0.24111 0.45889 0.14356 0.0
C762 C 0.1893 0.49068 0.1544 0.0
C763 C 0.27341 0.4091 0.1549 0.0
C764 C 0.28704 0.50559 0.13629 0.0
C765 C 0.28756 0.50514 0.11756 0.0
C766 C 0.32453 0.54504 0.1076 0.0
C767 C 0.36241 0.58634 0.11699 0.0
C768 C 0.3639 0.58708 0.1362 0.0
C769 C 0.32568 0.54592 0.14596 0.0
H770 H 0.16739 0.59484 0.86931 0.0
H771 H 0.19866 0.57973 0.92722 0.0
H772 H 0.27517 0.49747 0.92163 0.0
H773 H 0.18258 0.43373 0.85826 0.0
H774 H 0.22335 0.44662 0.83729 0.0
H775 H 0.16993 0.50375 0.8457 0.0
H776 H 0.25584 0.58659 0.84461 0.0
H777 H 0.30947 0.52977 0.83614 0.0
H778 H 0.32739 0.57308 0.85634 0.0
H779 H 0.3444 0.41475 0.91013 0.0
H780 H 0.41047 0.34208 0.8933 0.0
H781 H 0.34076 0.41383 0.84243 0.0
C782 C 0.19033 0.57409 0.88079 0.0
C783 C 0.17692 0.59351 0.89872 0.0
C784 C 0.2084 0.56581 0.91338 0.0
C785 C 0.25171 0.51886 0.91035 0.0
C786 C 0.26372 0.50067 0.89256 0.0
C787 C 0.23469 0.52783 0.87799 0.0
C788 C 0.25792 0.50082 0.8602 0.0
C789 C 0.2053 0.46936 0.84975 0.0
C790 C 0.28954 0.55053 0.84864 0.0
C791 C 0.30418 0.45391 0.8671 0.0
C792 C 0.30607 0.45432 0.88582 0.0
C793 C 0.34367 0.41422 0.89546 0.0
C794 C 0.38082 0.37286 0.88575 0.0
C795 C 0.38092 0.3722 0.86653 0.0
C796 C 0.34201 0.41349 0.8571 0.0
H797 H 0.13476 0.51219 0.66209 0.0
H798 H 0.17558 0.3612 0.62502 0.0
H799 H 0.2599 0.42085 0.61169 0.0
H800 H 0.1584 0.63125 0.63091 0.0
H801 H 0.1952 0.68434 0.64631 0.0
H802 H 0.14185 0.62785 0.65485 0.0
H803 H 0.22526 0.58677 0.67678 0.0
H804 H 0.27887 0.64347 0.66837 0.0
H805 H 0.29909 0.56281 0.6679 0.0
H806 H 0.32935 0.49774 0.59964 0.0
H807 H 0.38774 0.58969 0.59037 0.0
H808 H 0.30913 0.6933 0.63526 0.0
C809 C 0.16245 0.49148 0.65145 0.0
C810 C 0.14827 0.43226 0.6445 0.0
C811 C 0.18499 0.4068 0.63041 0.0
C812 C 0.23336 0.4401 0.62279 0.0
C813 C 0.24505 0.49884 0.62947 0.0
C814 C 0.21143 0.52448 0.64356 0.0
C815 C 0.23225 0.59033 0.6472 0.0
C816 C 0.17873 0.63613 0.64466 0.0
C817 C 0.26056 0.59617 0.66619 0.0
C818 C 0.28104 0.59784 0.63253 0.0
C819 C 0.28755 0.544 0.62261 0.0
C820 C 0.32579 0.53987 0.60749 0.0
C821 C 0.35841 0.59227 0.60228 0.0
C822 C 0.35305 0.64784 0.61222 0.0
C823 C 0.31456 0.65074 0.62769 0.0
loop_
_geom_bond_atom_site_label_1
_geom_bond_atom_site_label_2
_geom_bond_distance
_geom_bond_site_symmetry_2
_ccdc_geom_bond_type
Sc0 O3 2.025 . S
Sc0 O10 2.105 . S
Sc0 O13 2.105 . S
Sc0 O16 2.105 . S
Sc0 O19 2.105 . S
Sc1 O3 2.025 1_655 S
Sc1 O11 2.105 . S
Sc1 O15 2.105 . S
Sc1 O17 2.105 . S
Sc1 O21 2.105 . S
Sc2 O3 2.025 . S
Sc2 O12 2.105 1_455 S
Sc2 O14 2.105 . S
Sc2 O18 2.105 1_455 S
Sc2 O20 2.105 . S
O3 Sc0 2.025 . S
O3 Sc1 2.025 1_455 S
O3 Sc2 2.025 . S
C4 O10 1.268 . S
C4 O20 1.268 . S
C5 O11 1.268 1_455 S
C5 O19 1.268 . S
C6 O12 1.268 . S
C6 O21 1.268 . S
C7 O13 1.268 . S
C7 O17 1.268 1_455 S
C8 O14 1.268 . S
C8 O16 1.268 . S
C9 O15 1.268 . S
C9 O18 1.268 . S
O10 Sc0 2.105 . S
O10 C4 1.268 . S
O11 Sc1 2.105 . S
O11 C5 1.268 1_655 S
O12 Sc2 2.105 1_655 S
O12 C6 1.268 . S
O13 Sc0 2.105 . S
O13 C7 1.268 . S
O14 Sc2 2.105 . S
O14 C8 1.268 . S
O15 Sc1 2.105 . S
O15 C9 1.268 . S
O16 Sc0 2.105 . S
O16 C8 1.268 . S
O17 Sc1 2.105 . S
O17 C7 1.268 1_655 S
O18 Sc2 2.105 1_655 S
O18 C9 1.268 . S
O19 Sc0 2.105 . S
O19 C5 1.268 . S
O20 Sc2 2.105 . S
O20 C4 1.268 . S
O21 Sc1 2.105 . S
O21 C6 1.268 . S
Sc22 O25 2.025 . S
Sc22 O32 2.105 . S
Sc22 O35 2.105 1_455 S
Sc22 O38 2.105 1_455 S
Sc22 O41 2.105 . S
Sc23 O25 2.025 . S
Sc23 O33 2.105 . S
Sc23 O37 2.105 1_455 S
Sc23 O39 2.105 1_455 S
Sc23 O43 2.105 . S
Sc24 O25 2.025 . S
Sc24 O34 2.105 . S
Sc24 O36 2.105 1_455 S
Sc24 O40 2.105 1_455 S
Sc24 O42 2.105 . S
O25 Sc22 2.025 . S
O25 Sc23 2.025 . S
O25 Sc24 2.025 . S
C26 O32 1.268 . S
C26 O42 1.268 . S
C27 O33 1.268 . S
C27 O41 1.268 . S
C28 O34 1.268 . S
C28 O43 1.268 . S
C29 O35 1.268 . S
C29 O39 1.268 . S
C30 O36 1.268 . S
C30 O38 1.268 . S
C31 O37 1.268 . S
C31 O40 1.268 . S
O32 Sc22 2.105 . S
O32 C26 1.268 . S
O33 Sc23 2.105 . S
O33 C27 1.268 . S
O34 Sc24 2.105 . S
O34 C28 1.268 . S
O35 Sc22 2.105 1_655 S
O35 C29 1.268 . S
O36 Sc24 2.105 1_655 S
O36 C30 1.268 . S
O37 Sc23 2.105 1_655 S
O37 C31 1.268 . S
O38 Sc22 2.105 1_655 S
O38 C30 1.268 . S
O39 Sc23 2.105 1_655 S
O39 C29 1.268 . S
O40 Sc24 2.105 1_655 S
O40 C31 1.268 . S
O41 Sc22 2.105 . S
O41 C27 1.268 . S
O42 Sc24 2.105 . S
O42 C26 1.268 . S
O43 Sc23 2.105 . S
O43 C28 1.268 . S
Sc44 O47 2.025 . S
Sc44 O54 2.105 . S
Sc44 O57 2.105 . S
Sc44 O60 2.105 . S
Sc44 O63 2.105 . S
Sc45 O47 2.025 . S
Sc45 O55 2.105 . S
Sc45 O59 2.105 . S
Sc45 O61 2.105 . S
Sc45 O65 2.105 . S
Sc46 O47 2.025 . S
Sc46 O56 2.105 . S
Sc46 O58 2.105 . S
Sc46 O62 2.105 . S
Sc46 O64 2.105 . S
O47 Sc44 2.025 . S
O47 Sc45 2.025 . S
O47 Sc46 2.025 . S
C48 O54 1.268 . S
C48 O64 1.268 . S
C49 O55 1.268 . S
C49 O63 1.268 . S
C50 O56 1.268 . S
C50 O65 1.268 . S
C51 O57 1.268 . S
C51 O61 1.268 . S
C52 O58 1.268 . S
C52 O60 1.268 . S
C53 O59 1.268 . S
C53 O62 1.268 . S
O54 Sc44 2.105 . S
O54 C48 1.268 . S
O55 Sc45 2.105 . S
O55 C49 1.268 . S
O56 Sc46 2.105 . S
O56 C50 1.268 . S
O57 Sc44 2.105 . S
O57 C51 1.268 . S
O58 Sc46 2.105 . S
O58 C52 1.268 . S
O59 Sc45 2.105 . S
O59 C53 1.268 . S
O60 Sc44 2.105 . S
O60 C52 1.268 . S
O61 Sc45 2.105 . S
O61 C51 1.268 . S
O62 Sc46 2.105 . S
O62 C53 1.268 . S
O63 Sc44 2.105 . S
O63 C49 1.268 . S
O64 Sc46 2.105 . S
O64 C48 1.268 . S
O65 Sc45 2.105 . S
O65 C50 1.268 . S
Sc66 O69 2.025 . S
Sc66 O76 2.105 . S
Sc66 O79 2.105 . S
Sc66 O82 2.105 . S
Sc66 O85 2.105 . S
Sc67 O69 2.025 . S
Sc67 O77 2.105 . S
Sc67 O81 2.105 . S
Sc67 O83 2.105 . S
Sc67 O87 2.105 . S
Sc68 O69 2.025 . S
Sc68 O78 2.105 . S
Sc68 O80 2.105 . S
Sc68 O84 2.105 . S
Sc68 O86 2.105 . S
O69 Sc66 2.025 . S
O69 Sc67 2.025 . S
O69 Sc68 2.025 . S
C70 O76 1.268 . S
C70 O86 1.268 . S
C71 O77 1.268 . S
C71 O85 1.268 . S
C72 O78 1.268 . S
C72 O87 1.268 . S
C73 O79 1.268 . S
C73 O83 1.268 . S
C74 O80 1.268 . S
C74 O82 1.268 . S
C75 O81 1.268 . S
C75 O84 1.268 . S
O76 Sc66 2.105 . S
O76 C70 1.268 . S
O77 Sc67 2.105 . S
O77 C71 1.268 . S
O78 Sc68 2.105 . S
O78 C72 1.268 . S
O79 Sc66 2.105 . S
O79 C73 1.268 . S
O80 Sc68 2.105 . S
O80 C74 1.268 . S
O81 Sc67 2.105 . S
O81 C75 1.268 . S
O82 Sc66 2.105 . S
O82 C74 1.268 . S
O83 Sc67 2.105 . S
O83 C73 1.268 . S
O84 Sc68 2.105 . S
O84 C75 1.268 . S
O85 Sc66 2.105 . S
O85 C71 1.268 . S
O86 Sc68 2.105 . S
O86 C70 1.268 . S
O87 Sc67 2.105 . S
O87 C72 1.268 . S
Sc88 O91 2.025 . S
Sc88 O98 2.105 1_455 S
Sc88 O101 2.105 . S
Sc88 O104 2.105 1_455 S
Sc88 O107 2.105 . S
Sc89 O91 2.025 . S
Sc89 O99 2.105 . S
Sc89 O103 2.105 . S
Sc89 O105 2.105 . S
Sc89 O109 2.105 . S
Sc90 O91 2.025 1_655 S
Sc90 O100 2.105 . S
Sc90 O102 2.105 . S
Sc90 O106 2.105 . S
Sc90 O108 2.105 . S
O91 Sc88 2.025 . S
O91 Sc89 2.025 . S
O91 Sc90 2.025 1_455 S
C92 O98 1.268 . S
C92 O108 1.268 . S
C93 O99 1.268 . S
C93 O107 1.268 . S
C94 O100 1.268 1_455 S
C94 O109 1.268 . S
C95 O101 1.268 . S
C95 O105 1.268 . S
C96 O102 1.268 . S
C96 O104 1.268 . S
C97 O103 1.268 . S
C97 O106 1.268 1_455 S
O98 Sc88 2.105 1_655 S
O98 C92 1.268 . S
O99 Sc89 2.105 . S
O99 C93 1.268 . S
O100 Sc90 2.105 . S
O100 C94 1.268 1_655 S
O101 Sc88 2.105 . S
O101 C95 1.268 . S
O102 Sc90 2.105 . S
O102 C96 1.268 . S
O103 Sc89 2.105 . S
O103 C97 1.268 . S
O104 Sc88 2.105 1_655 S
O104 C96 1.268 . S
O105 Sc89 2.105 . S
O105 C95 1.268 . S
O106 Sc90 2.105 . S
O106 C97 1.268 1_655 S
O107 Sc88 2.105 . S
O107 C93 1.268 . S
O108 Sc90 2.105 . S
O108 C92 1.268 . S
O109 Sc89 2.105 . S
O109 C94 1.268 . S
Sc110 O113 2.025 . S
Sc110 O120 2.105 . S
Sc110 O123 2.105 . S
Sc110 O126 2.105 . S
Sc110 O129 2.105 . S
Sc111 O113 2.025 . S
Sc111 O121 2.105 . S
Sc111 O125 2.105 . S
Sc111 O127 2.105 . S
Sc111 O131 2.105 . S
Sc112 O113 2.025 . S
Sc112 O122 2.105 . S
Sc112 O124 2.105 . S
Sc112 O128 2.105 . S
Sc112 O130 2.105 . S
O113 Sc110 2.025 . S
O113 Sc111 2.025 . S
O113 Sc112 2.025 . S
C114 O120 1.268 . S
C114 O130 1.268 . S
C115 O121 1.268 . S
C115 O129 1.268 . S
C116 O122 1.268 . S
C116 O131 1.268 . S
C117 O123 1.268 . S
C117 O127 1.268 . S
C118 O124 1.268 . S
C118 O126 1.268 . S
C119 O125 1.268 . S
C119 O128 1.268 . S
O120 Sc110 2.105 . S
O120 C114 1.268 . S
O121 Sc111 2.105 . S
O121 C115 1.268 . S
O122 Sc112 2.105 . S
O122 C116 1.268 . S
O123 Sc110 2.105 . S
O123 C117 1.268 . S
O124 Sc112 2.105 . S
O124 C118 1.268 . S
O125 Sc111 2.105 . S
O125 C119 1.268 . S
O126 Sc110 2.105 . S
O126 C118 1.268 . S
O127 Sc111 2.105 . S
O127 C117 1.268 . S
O128 Sc112 2.105 . S
O128 C119 1.268 . S
O129 Sc110 2.105 . S
O129 C115 1.268 . S
O130 Sc112 2.105 . S
O130 C114 1.268 . S
O131 Sc111 2.105 . S
O131 C116 1.268 . S
Sc132 O135 2.025 . S
Sc132 O142 2.105 . S
Sc132 O145 2.105 . S
Sc132 O148 2.105 . S
Sc132 O151 2.105 . S
Sc133 O135 2.025 . S
Sc133 O143 2.105 . S
Sc133 O147 2.105 . S
Sc133 O149 2.105 . S
Sc133 O153 2.105 . S
Sc134 O135 2.025 . S
Sc134 O144 2.105 . S
Sc134 O146 2.105 . S
Sc134 O150 2.105 . S
Sc134 O152 2.105 . S
O135 Sc132 2.025 . S
O135 Sc133 2.025 . S
O135 Sc134 2.025 . S
C136 O142 1.268 . S
C136 O152 1.268 . S
C137 O143 1.268 . S
C137 O151 1.268 . S
C138 O144 1.268 . S
C138 O153 1.268 . S
C139 O145 1.268 . S
C139 O149 1.268 . S
C140 O146 1.268 . S
C140 O148 1.268 . S
C141 O147 1.268 . S
C141 O150 1.268 . S
O142 Sc132 2.105 . S
O142 C136 1.268 . S
O143 Sc133 2.105 . S
O143 C137 1.268 . S
O144 Sc134 2.105 . S
O144 C138 1.268 . S
O145 Sc132 2.105 . S
O145 C139 1.268 . S
O146 Sc134 2.105 . S
O146 C140 1.268 . S
O147 Sc133 2.105 . S
O147 C141 1.268 . S
O148 Sc132 2.105 . S
O148 C140 1.268 . S
O149 Sc133 2.105 . S
O149 C139 1.268 . S
O150 Sc134 2.105 . S
O150 C141 1.268 . S
O151 Sc132 2.105 . S
O151 C137 1.268 . S
O152 Sc134 2.105 . S
O152 C136 1.268 . S
O153 Sc133 2.105 . S
O153 C138 1.268 . S
Sc154 O157 2.025 . S
Sc154 O164 2.105 1_455 S
Sc154 O167 2.105 . S
Sc154 O170 2.105 . S
Sc154 O173 2.105 1_455 S
Sc155 O157 2.025 . S
Sc155 O165 2.105 1_455 S
Sc155 O169 2.105 . S
Sc155 O171 2.105 . S
Sc155 O175 2.105 1_455 S
Sc156 O157 2.025 . S
Sc156 O166 2.105 1_455 S
Sc156 O168 2.105 . S
Sc156 O172 2.105 . S
Sc156 O174 2.105 1_455 S
O157 Sc154 2.025 . S
O157 Sc155 2.025 . S
O157 Sc156 2.025 . S
C158 O164 1.268 . S
C158 O174 1.268 . S
C159 O165 1.268 . S
C159 O173 1.268 . S
C160 O166 1.268 . S
C160 O175 1.268 . S
C161 O167 1.268 . S
C161 O171 1.268 . S
C162 O168 1.268 . S
C162 O170 1.268 . S
C163 O169 1.268 . S
C163 O172 1.268 . S
O164 Sc154 2.105 1_655 S
O164 C158 1.268 . S
O165 Sc155 2.105 1_655 S
O165 C159 1.268 . S
O166 Sc156 2.105 1_655 S
O166 C160 1.268 . S
O167 Sc154 2.105 . S
O167 C161 1.268 . S
O168 Sc156 2.105 . S
O168 C162 1.268 . S
O169 Sc155 2.105 . S
O169 C163 1.268 . S
O170 Sc154 2.105 . S
O170 C162 1.268 . S
O171 Sc155 2.105 . S
O171 C161 1.268 . S
O172 Sc156 2.105 . S
O172 C163 1.268 . S
O173 Sc154 2.105 1_655 S
O173 C159 1.268 . S
O174 Sc156 2.105 1_655 S
O174 C158 1.268 . S
O175 Sc155 2.105 1_655 S
O175 C160 1.268 . S
H176 C188 0.930 1_655 S
H177 C190 0.930 . S
H178 C191 0.930 1_556 S
H179 C195 0.959 . S
H180 C195 0.959 . S
H181 C195 0.961 . S
H182 C196 0.960 . S
H183 C196 0.961 . S
H184 C196 0.959 . S
H185 C199 0.929 . S
H186 C200 0.931 . S
H187 C202 0.930 . S
C188 H176 0.930 1_455 S
C188 C189 1.399 . S
C188 C193 1.399 . S
C189 C188 1.399 . S
C189 C190 1.376 . S
C190 H177 0.930 . S
C190 C189 1.376 . S
C190 C191 1.388 . S
C191 H178 0.930 1_554 S
C191 C190 1.388 . S
C191 C192 1.390 . S
C192 C191 1.390 . S
C192 C193 1.394 . S
C192 C198 1.465 1_554 S
C193 C188 1.399 . S
C193 C192 1.394 . S
C193 C194 1.516 . S
C194 C193 1.516 . S
C194 C195 1.502 1_455 S
C194 C196 1.561 . S
C194 C197 1.526 1_554 S
C195 H179 0.959 . S
C195 H180 0.959 . S
C195 H181 0.961 . S
C195 C194 1.502 1_655 S
C196 H182 0.960 . S
C196 H183 0.961 . S
C196 H184 0.959 . S
C196 C194 1.561 . S
C197 C194 1.526 1_556 S
C197 C198 1.396 . S
C197 C202 1.390 . S
C198 C192 1.465 1_556 S
C198 C197 1.396 . S
C198 C199 1.399 . S
C199 H185 0.929 . S
C199 C198 1.399 . S
C199 C200 1.385 . S
C200 H186 0.931 . S
C200 C199 1.385 . S
C200 C201 1.389 . S
C201 C200 1.389 . S
C201 C202 1.387 . S
C202 H187 0.930 . S
C202 C197 1.390 . S
C202 C201 1.387 . S
H203 C215 0.930 . S
H204 C217 0.930 . S
H205 C218 0.930 . S
H206 C222 0.959 . S
H207 C222 0.959 . S
H208 C222 0.961 . S
H209 C223 0.960 . S
H210 C223 0.961 . S
H211 C223 0.959 . S
H212 C226 0.929 . S
H213 C227 0.931 . S
H214 C229 0.930 . S
C215 H203 0.930 . S
C215 C216 1.399 . S
C215 C220 1.399 . S
C216 C215 1.399 . S
C216 C217 1.376 . S
C217 H204 0.930 . S
C217 C216 1.376 . S
C217 C218 1.388 . S
C218 H205 0.930 . S
C218 C217 1.388 . S
C218 C219 1.390 . S
C219 C218 1.390 . S
C219 C220 1.394 . S
C219 C225 1.465 . S
C220 C215 1.399 . S
C220 C219 1.394 . S
C220 C221 1.516 . S
C221 C220 1.516 . S
C221 C222 1.502 . S
C221 C223 1.561 . S
C221 C224 1.526 . S
C222 H206 0.959 . S
C222 H207 0.959 . S
C222 H208 0.961 . S
C222 C221 1.502 . S
C223 H209 0.960 . S
C223 H210 0.961 . S
C223 H211 0.959 . S
C223 C221 1.561 . S
C224 C221 1.526 . S
C224 C225 1.396 . S
C224 C229 1.390 . S
C225 C219 1.465 . S
C225 C224 1.396 . S
C225 C226 1.399 . S
C226 H212 0.929 . S
C226 C225 1.399 . S
C226 C227 1.385 . S
C227 H213 0.931 . S
C227 C226 1.385 . S
C227 C228 1.389 . S
C228 C227 1.389 . S
C228 C229 1.387 . S
C229 H214 0.930 . S
C229 C224 1.390 . S
C229 C228 1.387 . S
H230 C242 0.930 . S
H231 C244 0.930 . S
H232 C245 0.930 . S
H233 C249 0.959 . S
H234 C249 0.959 . S
H235 C249 0.961 . S
H236 C250 0.960 . S
H237 C250 0.961 . S
H238 C250 0.959 . S
H239 C253 0.929 . S
H240 C254 0.931 . S
H241 C256 0.930 . S
C242 H230 0.930 . S
C242 C243 1.399 . S
C242 C247 1.399 . S
C243 C242 1.399 . S
C243 C244 1.376 . S
C244 H231 0.930 . S
C244 C243 1.376 . S
C244 C245 1.388 . S
C245 H232 0.930 . S
C245 C244 1.388 . S
C245 C246 1.390 . S
C246 C245 1.390 . S
C246 C247 1.394 . S
C246 C252 1.465 . S
C247 C242 1.399 . S
C247 C246 1.394 . S
C247 C248 1.516 . S
C248 C247 1.516 . S
C248 C249 1.502 . S
C248 C250 1.561 . S
C248 C251 1.526 . S
C249 H233 0.959 . S
C249 H234 0.959 . S
C249 H235 0.961 . S
C249 C248 1.502 . S
C250 H236 0.960 . S
C250 H237 0.961 . S
C250 H238 0.959 . S
C250 C248 1.561 . S
C251 C248 1.526 . S
C251 C252 1.396 . S
C251 C256 1.390 . S
C252 C246 1.465 . S
C252 C251 1.396 . S
C252 C253 1.399 . S
C253 H239 0.929 . S
C253 C252 1.399 . S
C253 C254 1.385 . S
C254 H240 0.931 . S
C254 C253 1.385 . S
C254 C255 1.389 . S
C255 C254 1.389 . S
C255 C256 1.387 . S
C256 H241 0.930 . S
C256 C251 1.390 . S
C256 C255 1.387 . S
H257 C269 0.930 . S
H258 C271 0.930 . S
H259 C272 0.930 . S
H260 C276 0.959 . S
H261 C276 0.959 . S
H262 C276 0.961 . S
H263 C277 0.960 . S
H264 C277 0.961 . S
H265 C277 0.959 . S
H266 C280 0.929 . S
H267 C281 0.931 . S
H268 C283 0.930 . S
C269 H257 0.930 . S
C269 C270 1.399 . S
C269 C274 1.399 . S
C270 C269 1.399 . S
C270 C271 1.376 . S
C271 H258 0.930 . S
C271 C270 1.376 . S
C271 C272 1.388 . S
C272 H259 0.930 . S
C272 C271 1.388 . S
C272 C273 1.390 . S
C273 C272 1.390 . S
C273 C274 1.394 . S
C273 C279 1.465 . S
C274 C269 1.399 . S
C274 C273 1.394 . S
C274 C275 1.516 . S
C275 C274 1.516 . S
C275 C276 1.502 . S
C275 C277 1.561 . S
C275 C278 1.526 . S
C276 H260 0.959 . S
C276 H261 0.959 . S
C276 H262 0.961 . S
C276 C275 1.502 . S
C277 H263 0.960 . S
C277 H264 0.961 . S
C277 H265 0.959 . S
C277 C275 1.561 . S
C278 C275 1.526 . S
C278 C279 1.396 . S
C278 C283 1.390 . S
C279 C273 1.465 . S
C279 C278 1.396 . S
C279 C280 1.399 . S
C280 H266 0.929 . S
C280 C279 1.399 . S
C280 C281 1.385 . S
C281 H267 0.931 . S
C281 C280 1.385 . S
C281 C282 1.389 . S
C282 C281 1.389 . S
C282 C283 1.387 . S
C283 H268 0.930 . S
C283 C278 1.390 . S
C283 C282 1.387 . S
H284 C296 0.930 . S
H285 C298 0.930 . S
H286 C299 0.930 . S
H287 C303 0.959 . S
H288 C303 0.959 . S
H289 C303 0.961 . S
H290 C304 0.960 . S
H291 C304 0.961 . S
H292 C304 0.959 . S
H293 C307 0.929 . S
H294 C308 0.931 . S
H295 C310 0.930 . S
C296 H284 0.930 . S
C296 C297 1.399 . S
C296 C301 1.399 . S
C297 C296 1.399 . S
C297 C298 1.376 . S
C298 H285 0.930 . S
C298 C297 1.376 . S
C298 C299 1.388 . S
C299 H286 0.930 . S
C299 C298 1.388 . S
C299 C300 1.390 . S
C300 C299 1.390 . S
C300 C301 1.394 . S
C300 C306 1.465 . S
C301 C296 1.399 . S
C301 C300 1.394 . S
C301 C302 1.516 . S
C302 C301 1.516 . S
C302 C303 1.502 . S
C302 C304 1.561 . S
C302 C305 1.526 . S
C303 H287 0.959 . S
C303 H288 0.959 . S
C303 H289 0.961 . S
C303 C302 1.502 . S
C304 H290 0.960 . S
C304 H291 0.961 . S
C304 H292 0.959 . S
C304 C302 1.561 . S
C305 C302 1.526 . S
C305 C306 1.396 . S
C305 C310 1.390 . S
C306 C300 1.465 . S
C306 C305 1.396 . S
C306 C307 1.399 . S
C307 H293 0.929 . S
C307 C306 1.399 . S
C307 C308 1.385 . S
C308 H294 0.931 . S
C308 C307 1.385 . S
C308 C309 1.389 . S
C309 C308 1.389 . S
C309 C310 1.387 . S
C310 H295 0.930 . S
C310 C305 1.390 . S
C310 C309 1.387 . S
H311 C323 0.930 . S
H312 C325 0.930 . S
H313 C326 0.930 . S
H314 C330 0.959 . S
H315 C330 0.959 . S
H316 C330 0.961 . S
H317 C331 0.960 . S
H318 C331 0.961 . S
H319 C331 0.959 . S
H320 C334 0.929 . S
H321 C335 0.931 . S
H322 C337 0.930 . S
C323 H311 0.930 . S
C323 C324 1.399 . S
C323 C328 1.399 . S
C324 C323 1.399 . S
C324 C325 1.376 . S
C325 H312 0.930 . S
C325 C324 1.376 . S
C325 C326 1.388 . S
C326 H313 0.930 . S
C326 C325 1.388 . S
C326 C327 1.390 . S
C327 C326 1.390 . S
C327 C328 1.394 . S
C327 C333 1.465 . S
C328 C323 1.399 . S
C328 C327 1.394 . S
C328 C329 1.516 . S
C329 C328 1.516 . S
C329 C330 1.502 . S
C329 C331 1.561 . S
C329 C332 1.526 . S
C330 H314 0.959 . S
C330 H315 0.959 . S
C330 H316 0.961 . S
C330 C329 1.502 . S
C331 H317 0.960 . S
C331 H318 0.961 . S
C331 H319 0.959 . S
C331 C329 1.561 . S
C332 C329 1.526 . S
C332 C333 1.396 . S
C332 C337 1.390 . S
C333 C327 1.465 . S
C333 C332 1.396 . S
C333 C334 1.399 . S
C334 H320 0.929 . S
C334 C333 1.399 . S
C334 C335 1.385 . S
C335 H321 0.931 . S
C335 C334 1.385 . S
C335 C336 1.389 . S
C336 C335 1.389 . S
C336 C337 1.387 . S
C337 H322 0.930 . S
C337 C332 1.390 . S
C337 C336 1.387 . S
H338 C350 0.930 . S
H339 C352 0.930 . S
H340 C353 0.930 1_565 S
H341 C357 0.959 . S
H342 C357 0.959 . S
H343 C357 0.961 . S
H344 C358 0.960 . S
H345 C358 0.961 . S
H346 C358 0.959 . S
H347 C361 0.929 . S
H348 C362 0.931 . S
H349 C364 0.930 . S
C350 H338 0.930 . S
C350 C351 1.399 . S
C350 C355 1.399 . S
C351 C350 1.399 . S
C351 C352 1.376 . S
C352 H339 0.930 . S
C352 C351 1.376 . S
C352 C353 1.388 . S
C353 H340 0.930 1_545 S
C353 C352 1.388 . S
C353 C354 1.390 . S
C354 C353 1.390 . S
C354 C355 1.394 . S
C354 C360 1.465 1_545 S
C355 C350 1.399 . S
C355 C354 1.394 . S
C355 C356 1.516 . S
C356 C355 1.516 . S
C356 C357 1.502 . S
C356 C358 1.561 . S
C356 C359 1.526 1_545 S
C357 H341 0.959 . S
C357 H342 0.959 . S
C357 H343 0.961 . S
C357 C356 1.502 . S
C358 H344 0.960 . S
C358 H345 0.961 . S
C358 H346 0.959 . S
C358 C356 1.561 . S
C359 C356 1.526 1_565 S
C359 C360 1.396 . S
C359 C364 1.390 . S
C360 C354 1.465 1_565 S
C360 C359 1.396 . S
C360 C361 1.399 . S
C361 H347 0.929 . S
C361 C360 1.399 . S
C361 C362 1.385 . S
C362 H348 0.931 . S
C362 C361 1.385 . S
C362 C363 1.389 . S
C363 C362 1.389 . S
C363 C364 1.387 . S
C364 H349 0.930 . S
C364 C359 1.390 . S
C364 C363 1.387 . S
H365 C377 0.930 . S
H366 C379 0.930 . S
H367 C380 0.930 1_556 S
H368 C384 0.959 . S
H369 C384 0.959 . S
H370 C384 0.961 . S
H371 C385 0.960 . S
H372 C385 0.961 . S
H373 C385 0.959 . S
H374 C388 0.929 . S
H375 C389 0.931 . S
H376 C391 0.930 . S
C377 H365 0.930 . S
C377 C378 1.399 1_455 S
C377 C382 1.398 1_455 S
C378 C377 1.399 1_655 S
C378 C379 1.376 . S
C379 H366 0.930 . S
C379 C378 1.376 . S
C379 C380 1.388 . S
C380 H367 0.930 1_554 S
C380 C379 1.388 . S
C380 C381 1.390 . S
C381 C380 1.390 . S
C381 C382 1.397 . S
C381 C387 1.465 1_554 S
C382 C377 1.398 1_655 S
C382 C381 1.397 . S
C382 C383 1.515 1_645 S
C383 C382 1.515 1_465 S
C383 C384 1.502 . S
C383 C385 1.561 1_455 S
C383 C386 1.525 1_454 S
C384 H368 0.959 . S
C384 H369 0.959 . S
C384 H370 0.961 . S
C384 C383 1.502 . S
C385 H371 0.960 . S
C385 H372 0.961 . S
C385 H373 0.959 . S
C385 C383 1.561 1_655 S
C386 C383 1.525 1_656 S
C386 C387 1.398 1_565 S
C386 C391 1.389 1_655 S
C387 C381 1.465 1_556 S
C387 C386 1.398 1_545 S
C387 C388 1.399 . S
C388 H374 0.929 . S
C388 C387 1.399 . S
C388 C389 1.385 1_545 S
C389 H375 0.931 . S
C389 C388 1.385 1_565 S
C389 C390 1.389 . S
C390 C389 1.389 . S
C390 C391 1.387 1_655 S
C391 H376 0.930 . S
C391 C386 1.389 1_455 S
C391 C390 1.387 1_455 S
H392 C404 0.930 . S
H393 C406 0.930 . S
H394 C407 0.930 . S
H395 C411 0.959 . S
H396 C411 0.959 . S
H397 C411 0.961 . S
H398 C412 0.960 . S
H399 C412 0.961 . S
H400 C412 0.959 . S
H401 C415 0.929 . S
H402 C416 0.931 . S
H403 C418 0.930 . S
C404 H392 0.930 . S
C404 C405 1.399 . S
C404 C409 1.399 . S
C405 C404 1.399 . S
C405 C406 1.376 . S
C406 H393 0.930 . S
C406 C405 1.376 . S
C406 C407 1.388 . S
C407 H394 0.930 . S
C407 C406 1.388 . S
C407 C408 1.390 . S
C408 C407 1.390 . S
C408 C409 1.394 . S
C408 C414 1.465 . S
C409 C404 1.399 . S
C409 C408 1.394 . S
C409 C410 1.516 1_565 S
C410 C409 1.516 1_545 S
C410 C411 1.502 . S
C410 C412 1.561 . S
C410 C413 1.526 . S
C411 H395 0.959 . S
C411 H396 0.959 . S
C411 H397 0.961 . S
C411 C410 1.502 . S
C412 H398 0.960 . S
C412 H399 0.961 . S
C412 H400 0.959 . S
C412 C410 1.561 . S
C413 C410 1.526 . S
C413 C414 1.396 1_545 S
C413 C418 1.390 . S
C414 C408 1.465 . S
C414 C413 1.396 1_565 S
C414 C415 1.399 . S
C415 H401 0.929 . S
C415 C414 1.399 . S
C415 C416 1.385 1_565 S
C416 H402 0.931 . S
C416 C415 1.385 1_545 S
C416 C417 1.389 . S
C417 C416 1.389 . S
C417 C418 1.387 . S
C418 H403 0.930 . S
C418 C413 1.390 . S
C418 C417 1.387 . S
H419 C431 0.930 . S
H420 C433 0.930 . S
H421 C434 0.930 1_545 S
H422 C438 0.959 1_545 S
H423 C438 0.959 . S
H424 C438 0.961 . S
H425 C439 0.960 . S
H426 C439 0.961 . S
H427 C439 0.959 . S
H428 C442 0.929 . S
H429 C443 0.931 . S
H430 C445 0.930 . S
C431 H419 0.930 . S
C431 C432 1.399 . S
C431 C436 1.399 . S
C432 C431 1.399 . S
C432 C433 1.376 . S
C433 H420 0.930 . S
C433 C432 1.376 . S
C433 C434 1.388 . S
C434 H421 0.930 1_565 S
C434 C433 1.388 . S
C434 C435 1.390 . S
C435 C434 1.390 . S
C435 C436 1.394 . S
C435 C441 1.465 1_565 S
C436 C431 1.399 . S
C436 C435 1.394 . S
C436 C437 1.516 . S
C437 C436 1.516 . S
C437 C438 1.502 . S
C437 C439 1.561 . S
C437 C440 1.526 1_565 S
C438 H422 0.959 1_565 S
C438 H423 0.959 . S
C438 H424 0.961 . S
C438 C437 1.502 . S
C439 H425 0.960 . S
C439 H426 0.961 . S
C439 H427 0.959 . S
C439 C437 1.561 . S
C440 C437 1.526 1_545 S
C440 C441 1.396 . S
C440 C445 1.390 . S
C441 C435 1.465 1_545 S
C441 C440 1.396 . S
C441 C442 1.399 . S
C442 H428 0.929 . S
C442 C441 1.399 . S
C442 C443 1.385 . S
C443 H429 0.931 . S
C443 C442 1.385 . S
C443 C444 1.389 . S
C444 C443 1.389 . S
C444 C445 1.387 . S
C445 H430 0.930 . S
C445 C440 1.390 . S
C445 C444 1.387 . S
H446 C458 0.930 . S
H447 C460 0.930 . S
H448 C461 0.930 . S
H449 C465 0.959 1_565 S
H450 C465 0.959 . S
H451 C465 0.961 . S
H452 C466 0.960 . S
H453 C466 0.961 . S
H454 C466 0.959 . S
H455 C469 0.929 . S
H456 C470 0.931 . S
H457 C472 0.930 . S
C458 H446 0.930 . S
C458 C459 1.399 . S
C458 C463 1.399 . S
C459 C458 1.399 . S
C459 C460 1.376 . S
C460 H447 0.930 . S
C460 C459 1.376 . S
C460 C461 1.388 . S
C461 H448 0.930 . S
C461 C460 1.388 . S
C461 C462 1.390 . S
C462 C461 1.390 . S
C462 C463 1.394 . S
C462 C468 1.465 1_545 S
C463 C458 1.399 . S
C463 C462 1.394 . S
C463 C464 1.516 . S
C464 C463 1.516 . S
C464 C465 1.502 . S
C464 C466 1.561 . S
C464 C467 1.526 1_545 S
C465 H449 0.959 1_545 S
C465 H450 0.959 . S
C465 H451 0.961 . S
C465 C464 1.502 . S
C466 H452 0.960 . S
C466 H453 0.961 . S
C466 H454 0.959 . S
C466 C464 1.561 . S
C467 C464 1.526 1_565 S
C467 C468 1.396 . S
C467 C472 1.390 . S
C468 C462 1.465 1_565 S
C468 C467 1.396 . S
C468 C469 1.399 . S
C469 H455 0.929 . S
C469 C468 1.399 . S
C469 C470 1.385 . S
C470 H456 0.931 . S
C470 C469 1.385 . S
C470 C471 1.389 . S
C471 C470 1.389 . S
C471 C472 1.387 . S
C472 H457 0.930 . S
C472 C467 1.390 . S
C472 C471 1.387 . S
H473 C485 0.930 . S
H474 C487 0.930 . S
H475 C488 0.930 . S
H476 C492 0.959 . S
H477 C492 0.959 . S
H478 C492 0.961 . S
H479 C493 0.960 . S
H480 C493 0.961 . S
H481 C493 0.959 . S
H482 C496 0.929 . S
H483 C497 0.931 . S
H484 C499 0.930 . S
C485 H473 0.930 . S
C485 C486 1.399 . S
C485 C490 1.399 . S
C486 C485 1.399 . S
C486 C487 1.376 . S
C487 H474 0.930 . S
C487 C486 1.376 . S
C487 C488 1.388 . S
C488 H475 0.930 . S
C488 C487 1.388 . S
C488 C489 1.390 . S
C489 C488 1.390 . S
C489 C490 1.394 . S
C489 C495 1.471 . S
C490 C485 1.399 . S
C490 C489 1.394 . S
C490 C491 1.516 1_565 S
C491 C490 1.516 1_545 S
C491 C492 1.502 . S
C491 C493 1.561 . S
C491 C494 1.526 . S
C492 H476 0.959 . S
C492 H477 0.959 . S
C492 H478 0.961 . S
C492 C491 1.502 . S
C493 H479 0.960 . S
C493 H480 0.961 . S
C493 H481 0.959 . S
C493 C491 1.561 . S
C494 C491 1.526 . S
C494 C495 1.389 1_545 S
C494 C499 1.390 . S
C495 C489 1.471 . S
C495 C494 1.389 1_565 S
C495 C496 1.400 . S
C496 H482 0.929 . S
C496 C495 1.400 . S
C496 C497 1.385 1_565 S
C497 H483 0.931 . S
C497 C496 1.385 1_545 S
C497 C498 1.389 . S
C498 C497 1.389 . S
C498 C499 1.387 . S
C499 H484 0.930 . S
C499 C494 1.390 . S
C499 C498 1.387 . S
H500 C512 0.930 . S
H501 C514 0.930 . S
H502 C515 0.930 1_545 S
H503 C519 0.959 . S
H504 C519 0.959 . S
H505 C519 0.961 . S
H506 C520 0.960 . S
H507 C520 0.961 1_545 S
H508 C520 0.959 1_545 S
H509 C523 0.929 . S
H510 C524 0.931 . S
H511 C526 0.930 . S
C512 H500 0.930 . S
C512 C513 1.399 . S
C512 C517 1.399 . S
C513 C512 1.399 . S
C513 C514 1.376 . S
C514 H501 0.930 . S
C514 C513 1.376 . S
C514 C515 1.388 . S
C515 H502 0.930 1_565 S
C515 C514 1.388 . S
C515 C516 1.390 . S
C516 C515 1.390 . S
C516 C517 1.394 . S
C516 C522 1.465 1_565 S
C517 C512 1.399 . S
C517 C516 1.394 . S
C517 C518 1.516 . S
C518 C517 1.516 . S
C518 C519 1.502 . S
C518 C520 1.561 . S
C518 C521 1.526 1_565 S
C519 H503 0.959 . S
C519 H504 0.959 . S
C519 H505 0.961 . S
C519 C518 1.502 . S
C520 H506 0.960 . S
C520 H507 0.961 1_565 S
C520 H508 0.959 1_565 S
C520 C518 1.561 . S
C521 C518 1.526 1_545 S
C521 C522 1.396 . S
C521 C526 1.390 . S
C522 C516 1.465 1_545 S
C522 C521 1.396 . S
C522 C523 1.399 . S
C523 H509 0.929 . S
C523 C522 1.399 . S
C523 C524 1.385 . S
C524 H510 0.931 . S
C524 C523 1.385 . S
C524 C525 1.389 . S
C525 C524 1.389 . S
C525 C526 1.387 . S
C526 H511 0.930 . S
C526 C521 1.390 . S
C526 C525 1.387 . S
H527 C539 0.930 . S
H528 C541 0.930 . S
H529 C542 0.930 . S
H530 C546 0.959 . S
H531 C546 0.959 . S
H532 C546 0.961 . S
H533 C547 0.960 . S
H534 C547 0.961 . S
H535 C547 0.959 1_545 S
H536 C550 0.929 . S
H537 C551 0.931 . S
H538 C553 0.930 . S
C539 H527 0.930 . S
C539 C540 1.399 . S
C539 C544 1.399 . S
C540 C539 1.399 . S
C540 C541 1.376 . S
C541 H528 0.930 . S
C541 C540 1.376 . S
C541 C542 1.388 . S
C542 H529 0.930 . S
C542 C541 1.388 . S
C542 C543 1.390 . S
C543 C542 1.390 . S
C543 C544 1.394 . S
C543 C549 1.471 . S
C544 C539 1.399 . S
C544 C543 1.394 . S
C544 C545 1.516 1_545 S
C545 C544 1.516 1_565 S
C545 C546 1.502 . S
C545 C547 1.561 . S
C545 C548 1.526 . S
C546 H530 0.959 . S
C546 H531 0.959 . S
C546 H532 0.961 . S
C546 C545 1.502 . S
C547 H533 0.960 . S
C547 H534 0.961 . S
C547 H535 0.959 1_565 S
C547 C545 1.561 . S
C548 C545 1.526 . S
C548 C549 1.389 1_565 S
C548 C553 1.390 . S
C549 C543 1.471 . S
C549 C548 1.389 1_545 S
C549 C550 1.399 . S
C550 H536 0.929 . S
C550 C549 1.399 . S
C550 C551 1.385 1_545 S
C551 H537 0.931 . S
C551 C550 1.385 1_565 S
C551 C552 1.389 . S
C552 C551 1.389 . S
C552 C553 1.387 . S
C553 H538 0.930 . S
C553 C548 1.390 . S
C553 C552 1.387 . S
H554 C566 0.930 . S
H555 C568 0.930 . S
H556 C569 0.930 . S
H557 C573 0.959 . S
H558 C573 0.959 . S
H559 C573 0.961 . S
H560 C574 0.960 . S
H561 C574 0.961 . S
H562 C574 0.959 . S
H563 C577 0.929 . S
H564 C578 0.931 . S
H565 C580 0.930 . S
C566 H554 0.930 . S
C566 C567 1.399 . S
C566 C571 1.399 . S
C567 C566 1.399 . S
C567 C568 1.376 . S
C568 H555 0.930 . S
C568 C567 1.376 . S
C568 C569 1.388 . S
C569 H556 0.930 . S
C569 C568 1.388 . S
C569 C570 1.390 . S
C570 C569 1.390 . S
C570 C571 1.394 . S
C570 C576 1.465 1_565 S
C571 C566 1.399 . S
C571 C570 1.394 . S
C571 C572 1.516 1_565 S
C572 C571 1.516 1_545 S
C572 C573 1.502 1_545 S
C572 C574 1.561 . S
C572 C575 1.526 . S
C573 H557 0.959 . S
C573 H558 0.959 . S
C573 H559 0.961 . S
C573 C572 1.502 1_565 S
C574 H560 0.960 . S
C574 H561 0.961 . S
C574 H562 0.959 . S
C574 C572 1.561 . S
C575 C572 1.526 . S
C575 C576 1.396 . S
C575 C580 1.390 . S
C576 C570 1.465 1_545 S
C576 C575 1.396 . S
C576 C577 1.399 . S
C577 H563 0.929 . S
C577 C576 1.399 . S
C577 C578 1.385 . S
C578 H564 0.931 . S
C578 C577 1.385 . S
C578 C579 1.389 . S
C579 C578 1.389 . S
C579 C580 1.387 . S
C580 H565 0.930 . S
C580 C575 1.390 . S
C580 C579 1.387 . S
H581 C593 0.930 . S
H582 C595 0.930 . S
H583 C596 0.930 . S
H584 C600 0.959 . S
H585 C600 0.959 . S
H586 C600 0.961 . S
H587 C601 0.960 . S
H588 C601 0.961 . S
H589 C601 0.959 . S
H590 C604 0.929 . S
H591 C605 0.931 . S
H592 C607 0.930 . S
C593 H581 0.930 . S
C593 C594 1.399 . S
C593 C598 1.399 . S
C594 C593 1.399 . S
C594 C595 1.376 . S
C595 H582 0.930 . S
C595 C594 1.376 . S
C595 C596 1.388 1_565 S
C596 H583 0.930 . S
C596 C595 1.388 1_545 S
C596 C597 1.389 1_545 S
C597 C596 1.389 1_565 S
C597 C598 1.408 . S
C597 C603 1.454 1_565 S
C598 C593 1.399 . S
C598 C597 1.408 . S
C598 C599 1.516 . S
C599 C598 1.516 . S
C599 C600 1.502 . S
C599 C601 1.561 . S
C599 C602 1.526 1_565 S
C600 H584 0.959 . S
C600 H585 0.959 . S
C600 H586 0.961 . S
C600 C599 1.502 . S
C601 H587 0.960 . S
C601 H588 0.961 . S
C601 H589 0.959 . S
C601 C599 1.561 . S
C602 C599 1.526 1_545 S
C602 C603 1.396 . S
C602 C607 1.390 . S
C603 C597 1.454 1_545 S
C603 C602 1.396 . S
C603 C604 1.399 . S
C604 H590 0.929 . S
C604 C603 1.399 . S
C604 C605 1.385 . S
C605 H591 0.931 . S
C605 C604 1.385 . S
C605 C606 1.389 . S
C606 C605 1.389 . S
C606 C607 1.387 . S
C607 H592 0.930 . S
C607 C602 1.390 . S
C607 C606 1.387 . S
H608 C620 0.930 . S
H609 C622 0.930 . S
H610 C623 0.930 . S
H611 C627 0.959 . S
H612 C627 0.959 . S
H613 C627 0.961 . S
H614 C628 0.960 . S
H615 C628 0.961 . S
H616 C628 0.959 . S
H617 C631 0.929 . S
H618 C632 0.931 . S
H619 C634 0.930 . S
C620 H608 0.930 . S
C620 C621 1.399 . S
C620 C625 1.399 . S
C621 C620 1.399 . S
C621 C622 1.376 . S
C622 H609 0.930 . S
C622 C621 1.376 . S
C622 C623 1.388 . S
C623 H610 0.930 . S
C623 C622 1.388 . S
C623 C624 1.390 . S
C624 C623 1.390 . S
C624 C625 1.394 . S
C624 C630 1.465 . S
C625 C620 1.399 . S
C625 C624 1.394 . S
C625 C626 1.516 . S
C626 C625 1.516 . S
C626 C627 1.502 . S
C626 C628 1.561 . S
C626 C629 1.526 . S
C627 H611 0.959 . S
C627 H612 0.959 . S
C627 H613 0.961 . S
C627 C626 1.502 . S
C628 H614 0.960 . S
C628 H615 0.961 . S
C628 H616 0.959 . S
C628 C626 1.561 . S
C629 C626 1.526 . S
C629 C630 1.396 . S
C629 C634 1.390 . S
C630 C624 1.465 . S
C630 C629 1.396 . S
C630 C631 1.399 . S
C631 H617 0.929 . S
C631 C630 1.399 . S
C631 C632 1.385 . S
C632 H618 0.931 . S
C632 C631 1.385 . S
C632 C633 1.389 . S
C633 C632 1.389 . S
C633 C634 1.387 . S
C634 H619 0.930 . S
C634 C629 1.390 . S
C634 C633 1.387 . S
H635 C647 0.930 . S
H636 C649 0.930 . S
H637 C650 0.930 . S
H638 C654 0.959 . S
H639 C654 0.959 . S
H640 C654 0.961 . S
H641 C655 0.960 . S
H642 C655 0.961 . S
H643 C655 0.959 . S
H644 C658 0.929 . S
H645 C659 0.931 . S
H646 C661 0.930 . S
C647 H635 0.930 . S
C647 C648 1.399 . S
C647 C652 1.399 . S
C648 C647 1.399 . S
C648 C649 1.376 . S
C649 H636 0.930 . S
C649 C648 1.376 . S
C649 C650 1.388 . S
C650 H637 0.930 . S
C650 C649 1.388 . S
C650 C651 1.390 . S
C651 C650 1.390 . S
C651 C652 1.394 . S
C651 C657 1.465 . S
C652 C647 1.399 . S
C652 C651 1.394 . S
C652 C653 1.516 . S
C653 C652 1.516 . S
C653 C654 1.502 . S
C653 C655 1.561 . S
C653 C656 1.526 . S
C654 H638 0.959 . S
C654 H639 0.959 . S
C654 H640 0.961 . S
C654 C653 1.502 . S
C655 H641 0.960 . S
C655 H642 0.961 . S
C655 H643 0.959 . S
C655 C653 1.561 . S
C656 C653 1.526 . S
C656 C657 1.396 . S
C656 C661 1.390 . S
C657 C651 1.465 . S
C657 C656 1.396 . S
C657 C658 1.399 . S
C658 H644 0.929 . S
C658 C657 1.399 . S
C658 C659 1.385 . S
C659 H645 0.931 . S
C659 C658 1.385 . S
C659 C660 1.389 . S
C660 C659 1.389 . S
C660 C661 1.387 . S
C661 H646 0.930 . S
C661 C656 1.390 . S
C661 C660 1.387 . S
H662 C674 0.930 . S
H663 C676 0.930 . S
H664 C677 0.930 . S
H665 C681 0.959 . S
H666 C681 0.959 . S
H667 C681 0.961 . S
H668 C682 0.960 . S
H669 C682 0.961 . S
H670 C682 0.959 . S
H671 C685 0.929 . S
H672 C686 0.931 . S
H673 C688 0.930 . S
C674 H662 0.930 . S
C674 C675 1.399 . S
C674 C679 1.399 . S
C675 C674 1.399 . S
C675 C676 1.376 . S
C676 H663 0.930 . S
C676 C675 1.376 . S
C676 C677 1.388 . S
C677 H664 0.930 . S
C677 C676 1.388 . S
C677 C678 1.390 . S
C678 C677 1.390 . S
C678 C679 1.394 . S
C678 C684 1.465 . S
C679 C674 1.399 . S
C679 C678 1.394 . S
C679 C680 1.516 . S
C680 C679 1.516 . S
C680 C681 1.502 . S
C680 C682 1.561 . S
C680 C683 1.526 . S
C681 H665 0.959 . S
C681 H666 0.959 . S
C681 H667 0.961 . S
C681 C680 1.502 . S
C682 H668 0.960 . S
C682 H669 0.961 . S
C682 H670 0.959 . S
C682 C680 1.561 . S
C683 C680 1.526 . S
C683 C684 1.396 . S
C683 C688 1.390 . S
C684 C678 1.465 . S
C684 C683 1.396 . S
C684 C685 1.399 . S
C685 H671 0.929 . S
C685 C684 1.399 . S
C685 C686 1.385 . S
C686 H672 0.931 . S
C686 C685 1.385 . S
C686 C687 1.389 . S
C687 C686 1.389 . S
C687 C688 1.387 . S
C688 H673 0.930 . S
C688 C683 1.390 . S
C688 C687 1.387 . S
H689 C701 0.930 . S
H690 C703 0.930 . S
H691 C704 0.930 . S
H692 C708 0.959 . S
H693 C708 0.959 . S
H694 C708 0.961 . S
H695 C709 0.960 . S
H696 C709 0.961 . S
H697 C709 0.959 . S
H698 C712 0.929 . S
H699 C713 0.931 . S
H700 C715 0.930 . S
C701 H689 0.930 . S
C701 C702 1.399 . S
C701 C706 1.399 . S
C702 C701 1.399 . S
C702 C703 1.376 . S
C703 H690 0.930 . S
C703 C702 1.376 . S
C703 C704 1.388 . S
C704 H691 0.930 . S
C704 C703 1.388 . S
C704 C705 1.390 . S
C705 C704 1.390 . S
C705 C706 1.394 . S
C705 C711 1.465 . S
C706 C701 1.399 . S
C706 C705 1.394 . S
C706 C707 1.516 . S
C707 C706 1.516 . S
C707 C708 1.502 . S
C707 C709 1.561 . S
C707 C710 1.526 . S
C708 H692 0.959 . S
C708 H693 0.959 . S
C708 H694 0.961 . S
C708 C707 1.502 . S
C709 H695 0.960 . S
C709 H696 0.961 . S
C709 H697 0.959 . S
C709 C707 1.561 . S
C710 C707 1.526 . S
C710 C711 1.396 . S
C710 C715 1.390 . S
C711 C705 1.465 . S
C711 C710 1.396 . S
C711 C712 1.399 . S
C712 H698 0.929 . S
C712 C711 1.399 . S
C712 C713 1.385 . S
C713 H699 0.931 . S
C713 C712 1.385 . S
C713 C714 1.389 . S
C714 C713 1.389 . S
C714 C715 1.387 . S
C715 H700 0.930 . S
C715 C710 1.390 . S
C715 C714 1.387 . S
H716 C728 0.930 . S
H717 C730 0.930 . S
H718 C731 0.930 . S
H719 C735 0.959 . S
H720 C735 0.959 . S
H721 C735 0.961 . S
H722 C736 0.960 . S
H723 C736 0.961 . S
H724 C736 0.959 . S
H725 C739 0.929 . S
H726 C740 0.931 . S
H727 C742 0.930 . S
C728 H716 0.930 . S
C728 C729 1.399 . S
C728 C733 1.399 . S
C729 C728 1.399 . S
C729 C730 1.376 . S
C730 H717 0.930 . S
C730 C729 1.376 . S
C730 C731 1.388 . S
C731 H718 0.930 . S
C731 C730 1.388 . S
C731 C732 1.390 . S
C732 C731 1.390 . S
C732 C733 1.394 . S
C732 C738 1.465 . S
C733 C728 1.399 . S
C733 C732 1.394 . S
C733 C734 1.516 . S
C734 C733 1.516 . S
C734 C735 1.502 . S
C734 C736 1.561 . S
C734 C737 1.526 . S
C735 H719 0.959 . S
C735 H720 0.959 . S
C735 H721 0.961 . S
C735 C734 1.502 . S
C736 H722 0.960 . S
C736 H723 0.961 . S
C736 H724 0.959 . S
C736 C734 1.561 . S
C737 C734 1.526 . S
C737 C738 1.396 . S
C737 C742 1.390 . S
C738 C732 1.465 . S
C738 C737 1.396 . S
C738 C739 1.399 . S
C739 H725 0.929 . S
C739 C738 1.399 . S
C739 C740 1.385 . S
C740 H726 0.931 . S
C740 C739 1.385 . S
C740 C741 1.389 . S
C741 C740 1.389 . S
C741 C742 1.387 . S
C742 H727 0.930 . S
C742 C737 1.390 . S
C742 C741 1.387 . S
H743 C755 0.930 . S
H744 C757 0.930 . S
H745 C758 0.930 . S
H746 C762 0.959 . S
H747 C762 0.959 . S
H748 C762 0.961 . S
H749 C763 0.960 . S
H750 C763 0.961 . S
H751 C763 0.959 . S
H752 C766 0.929 . S
H753 C767 0.931 . S
H754 C769 0.930 . S
C755 H743 0.930 . S
C755 C756 1.399 . S
C755 C760 1.399 . S
C756 C755 1.399 . S
C756 C757 1.376 . S
C757 H744 0.930 . S
C757 C756 1.376 . S
C757 C758 1.388 . S
C758 H745 0.930 . S
C758 C757 1.388 . S
C758 C759 1.390 . S
C759 C758 1.390 . S
C759 C760 1.394 . S
C759 C765 1.465 . S
C760 C755 1.399 . S
C760 C759 1.394 . S
C760 C761 1.516 . S
C761 C760 1.516 . S
C761 C762 1.502 . S
C761 C763 1.561 . S
C761 C764 1.526 . S
C762 H746 0.959 . S
C762 H747 0.959 . S
C762 H748 0.961 . S
C762 C761 1.502 . S
C763 H749 0.960 . S
C763 H750 0.961 . S
C763 H751 0.959 . S
C763 C761 1.561 . S
C764 C761 1.526 . S
C764 C765 1.396 . S
C764 C769 1.390 . S
C765 C759 1.465 . S
C765 C764 1.396 . S
C765 C766 1.399 . S
C766 H752 0.929 . S
C766 C765 1.399 . S
C766 C767 1.385 . S
C767 H753 0.931 . S
C767 C766 1.385 . S
C767 C768 1.389 . S
C768 C767 1.389 . S
C768 C769 1.387 . S
C769 H754 0.930 . S
C769 C764 1.390 . S
C769 C768 1.387 . S
H770 C782 0.930 . S
H771 C784 0.930 . S
H772 C785 0.930 . S
H773 C789 0.959 . S
H774 C789 0.959 . S
H775 C789 0.961 . S
H776 C790 0.960 . S
H777 C790 0.961 . S
H778 C790 0.959 . S
H779 C793 0.929 . S
H780 C794 0.931 . S
H781 C796 0.930 . S
C782 H770 0.930 . S
C782 C783 1.399 . S
C782 C787 1.399 . S
C783 C782 1.399 . S
C783 C784 1.376 . S
C784 H771 0.930 . S
C784 C783 1.376 . S
C784 C785 1.388 . S
C785 H772 0.930 . S
C785 C784 1.388 . S
C785 C786 1.390 . S
C786 C785 1.390 . S
C786 C787 1.394 . S
C786 C792 1.465 . S
C787 C782 1.399 . S
C787 C786 1.394 . S
C787 C788 1.516 . S
C788 C787 1.516 . S
C788 C789 1.502 . S
C788 C790 1.561 . S
C788 C791 1.526 . S
C789 H773 0.959 . S
C789 H774 0.959 . S
C789 H775 0.961 . S
C789 C788 1.502 . S
C790 H776 0.960 . S
C790 H777 0.961 . S
C790 H778 0.959 . S
C790 C788 1.561 . S
C791 C788 1.526 . S
C791 C792 1.396 . S
C791 C796 1.390 . S
C792 C786 1.465 . S
C792 C791 1.396 . S
C792 C793 1.399 . S
C793 H779 0.929 . S
C793 C792 1.399 . S
C793 C794 1.385 . S
C794 H780 0.931 . S
C794 C793 1.385 . S
C794 C795 1.389 . S
C795 C794 1.389 . S
C795 C796 1.387 . S
C796 H781 0.930 . S
C796 C791 1.390 . S
C796 C795 1.387 . S
H797 C809 0.930 . S
H798 C811 0.930 . S
H799 C812 0.930 . S
H800 C816 0.959 . S
H801 C816 0.959 . S
H802 C816 0.961 . S
H803 C817 0.960 . S
H804 C817 0.961 . S
H805 C817 0.959 . S
H806 C820 0.929 . S
H807 C821 0.931 . S
H808 C823 0.930 . S
C809 H797 0.930 . S
C809 C810 1.399 . S
C809 C814 1.399 . S
C810 C809 1.399 . S
C810 C811 1.376 . S
C811 H798 0.930 . S
C811 C810 1.376 . S
C811 C812 1.388 . S
C812 H799 0.930 . S
C812 C811 1.388 . S
C812 C813 1.390 . S
C813 C812 1.390 . S
C813 C814 1.394 . S
C813 C819 1.465 . S
C814 C809 1.399 . S
C814 C813 1.394 . S
C814 C815 1.516 . S
C815 C814 1.516 . S
C815 C816 1.502 . S
C815 C817 1.561 . S
C815 C818 1.526 . S
C816 H800 0.959 . S
C816 H801 0.959 . S
C816 H802 0.961 . S
C816 C815 1.502 . S
C817 H803 0.960 . S
C817 H804 0.961 . S
C817 H805 0.959 . S
C817 C815 1.561 . S
C818 C815 1.526 . S
C818 C819 1.396 . S
C818 C823 1.390 . S
C819 C813 1.465 . S
C819 C818 1.396 . S
C819 C820 1.399 . S
C820 H806 0.929 . S
C820 C819 1.399 . S
C820 C821 1.385 . S
C821 H807 0.931 . S
C821 C820 1.385 . S
C821 C822 1.389 . S
C822 C821 1.389 . S
C822 C823 1.387 . S
C823 H808 0.930 . S
C823 C818 1.390 . S
C823 C822 1.387 . S
C189 C7 1.434 . S
C201 C97 1.481 . S
C216 C119 1.475 . S
C228 C29 1.447 . S
C243 C49 1.444 . S
C255 C138 1.475 . S
C270 C71 1.481 . S
C282 C160 1.437 . S
C297 C73 1.442 . S
C309 C163 1.463 . S
C324 C116 1.437 . S
C336 C27 1.469 . S
C351 C141 1.470 . S
C363 C51 1.438 . S
C378 C5 1.436 1_655 S
C390 C94 1.480 1_655 S
C405 C115 1.508 . S
C417 C4 1.514 . S
C432 C26 1.503 . S
C444 C140 1.479 . S
C459 C162 1.505 . S
C471 C53 1.481 . S
C486 C93 1.467 . S
C498 C75 1.476 . S
C513 C92 1.513 . S
C525 C72 1.517 . S
C540 C158 1.506 . S
C552 C52 1.513 . S
C567 C30 1.496 . S
C579 C139 1.489 . S
C594 C117 1.475 . S
C606 C6 1.472 . S
C621 C159 1.511 . S
C633 C48 1.492 . S
C648 C96 1.514 . S
C660 C70 1.513 . S
C675 C118 1.475 . S
C687 C9 1.498 . S
C702 C31 1.513 . S
C714 C137 1.496 . S
C729 C136 1.482 . S
C741 C28 1.473 . S
C756 C8 1.475 . S
C768 C114 1.469 . S
C783 C95 1.499 . S
C795 C74 1.489 . S
C810 C161 1.506 . S
C822 C50 1.511 . S
