# Generated by pormake.
# Topology snk, (6)-cn, num edge types: 1
# Building blocks:
#     Node 0, Type 0, BuildingBlock: KUMJIN_clean_sbu_0, # of connection points: 6
#     Node 1, Type 0, BuildingBlock: KUMJIN_clean_sbu_0, # of connection points: 6
#     Node 2, Type 0, BuildingBlock: KUMJIN_clean_sbu_0, # of connection points: 6
#     Node 3, Type 0, BuildingBlock: KUMJIN_clean_sbu_0, # of connection points: 6
#     Node 4, Type 0, BuildingBlock: KUMJIN_clean_sbu_0, # of connection points: 6
#     Node 5, Type 0, BuildingBlock: KUMJIN_clean_sbu_0, # of connection points: 6
#     Node 6, Type 0, BuildingBlock: KUMJIN_clean_sbu_0, # of connection points: 6
#     Node 7, Type 0, BuildingBlock: KUMJIN_clean_sbu_0, # of connection points: 6
#     Edge 8, Type (0, 0), BuildingBlock: UVAHIK_clean_linker_0, # of connection points: 2
#     Edge 9, Type (0, 0), BuildingBlock: UVAHIK_clean_linker_0, # of connection points: 2
#     Edge 10, Type (0, 0), BuildingBlock: UVAHIK_clean_linker_0, # of connection points: 2
#     Edge 11, Type (0, 0), BuildingBlock: UVAHIK_clean_linker_0, # of connection points: 2
#     Edge 12, Type (0, 0), BuildingBlock: UVAHIK_clean_linker_0, # of connection points: 2
#     Edge 13, Type (0, 0), BuildingBlock: UVAHIK_clean_linker_0, # of connection points: 2
#     Edge 14, Type (0, 0), BuildingBlock: UVAHIK_clean_linker_0, # of connection points: 2
#     Edge 15, Type (0, 0), BuildingBlock: UVAHIK_clean_linker_0, # of connection points: 2
#     Edge 16, Type (0, 0), BuildingBlock: UVAHIK_clean_linker_0, # of connection points: 2
#     Edge 17, Type (0, 0), BuildingBlock: UVAHIK_clean_linker_0, # of connection points: 2
#     Edge 18, Type (0, 0), BuildingBlock: UVAHIK_clean_linker_0, # of connection points: 2
#     Edge 19, Type (0, 0), BuildingBlock: UVAHIK_clean_linker_0, # of connection points: 2
#     Edge 20, Type (0, 0), BuildingBlock: UVAHIK_clean_linker_0, # of connection points: 2
#     Edge 21, Type (0, 0), BuildingBlock: UVAHIK_clean_linker_0, # of connection points: 2
#     Edge 22, Type (0, 0), BuildingBlock: UVAHIK_clean_linker_0, # of connection points: 2
#     Edge 23, Type (0, 0), BuildingBlock: UVAHIK_clean_linker_0, # of connection points: 2
#     Edge 24, Type (0, 0), BuildingBlock: UVAHIK_clean_linker_0, # of connection points: 2
#     Edge 25, Type (0, 0), BuildingBlock: UVAHIK_clean_linker_0, # of connection points: 2
#     Edge 26, Type (0, 0), BuildingBlock: UVAHIK_clean_linker_0, # of connection points: 2
#     Edge 27, Type (0, 0), BuildingBlock: UVAHIK_clean_linker_0, # of connection points: 2
#     Edge 28, Type (0, 0), BuildingBlock: UVAHIK_clean_linker_0, # of connection points: 2
#     Edge 29, Type (0, 0), BuildingBlock: UVAHIK_clean_linker_0, # of connection points: 2
#     Edge 30, Type (0, 0), BuildingBlock: UVAHIK_clean_linker_0, # of connection points: 2
#     Edge 31, Type (0, 0), BuildingBlock: UVAHIK_clean_linker_0, # of connection points: 2
# Relax obj value: 0.014
# Max RMSD: 0.072
# Mean RMSD: 0.067
data_MOF--net-snk--node1-KUMJIN_clean_sbu_0--edge1-UVAHIK_clean_linker_0
_symmetry_space_group_name_H-M    P1
_symmetry_Int_Tables_number       1
_symmetry_cell_setting            triclinic
loop_
_symmetry_equiv_pos_as_xyz
'x, y, z'
_cell_length_a     49.974496
_cell_length_b     49.956691
_cell_length_c     29.110438
_cell_angle_alpha  87.675677
_cell_angle_beta   87.740881
_cell_angle_gamma 89.951352
loop_
_atom_site_label
_atom_site_type_symbol
_atom_site_fract_x
_atom_site_fract_y
_atom_site_fract_z
_atom_type_partial_charge
Eu0 Eu 0.99975 0.98077 0.47178 0.0
C1 C 0.00923 0.09042 0.56533 0.0
C2 C 0.05584 0.10345 0.55584 0.0
C3 C 0.02126 0.13762 0.55912 0.0
C4 C 0.0359 0.08343 0.56017 0.0
C5 C 1.00162 0.1176 0.5658 0.0
C6 C 0.04833 0.13056 0.55419 0.0
C7 C 0.95611 0.10315 0.58364 0.0
N8 N 0.99084 0.0706 0.57241 0.0
C9 C 0.96469 0.0765 0.58328 0.0
C10 C 0.9746 0.1238 0.57431 0.0
Eu11 Eu 0.00654 0.02594 0.56867 0.0
N12 N 0.04246 0.05705 0.56226 0.0
C13 C 0.06867 0.0494 0.56362 0.0
C14 C 0.08274 0.09563 0.55466 0.0
C15 C 0.08917 0.06849 0.55926 0.0
H16 H 0.9503 0.06058 0.59022 0.0
H17 H 0.10991 0.06224 0.55918 0.0
H18 H 0.06334 0.14621 0.55031 0.0
H19 H 0.93526 0.10774 0.59108 0.0
H20 H 0.07399 0.02853 0.56694 0.0
H21 H 0.89649 0.94425 0.48357 0.0
H22 H 0.09866 0.11038 0.5512 0.0
H23 H 0.05591 0.94629 0.44888 0.0
H24 H 0.93232 0.97805 0.47478 0.0
H25 H 0.07104 0.89917 0.44745 0.0
H26 H 0.01579 0.15862 0.55894 0.0
H27 H 0.90789 0.89613 0.49141 0.0
H28 H 0.94328 0.86037 0.49131 0.0
H29 H 0.96793 0.14443 0.57485 0.0
H30 H 0.99081 0.84807 0.48136 0.0
N31 N 0.96393 0.94958 0.47879 0.0
C32 C 0.93768 0.95718 0.47801 0.0
C33 C 0.92376 0.91091 0.4875 0.0
C34 C 0.95067 0.90315 0.48558 0.0
C35 C 0.91725 0.93804 0.48298 0.0
C36 C 0.97055 0.92322 0.48071 0.0
H37 H 0.03854 0.86239 0.46427 0.0
N38 N 0.0155 0.93616 0.46749 0.0
C39 C 0.05023 0.9037 0.45538 0.0
C40 C 0.99719 0.91629 0.47492 0.0
C41 C 0.04159 0.93033 0.45605 0.0
C42 C 0.03183 0.883 0.46504 0.0
C43 C 0.00486 0.88913 0.4742 0.0
O44 O 0.01753 0.98112 0.40182 0.0
O45 O 0.01803 0.01841 0.49547 0.0
O46 O 0.98509 0.04835 0.51185 0.0
O47 O 0.96664 0.01253 0.47514 0.0
O48 O 0.04216 0.9956 0.4535 0.0
O49 O 0.97526 0.9891 0.41225 0.0
O50 O 0.98833 0.02565 0.63831 0.0
O51 O 0.98832 0.98818 0.54511 0.0
O52 O 0.02172 0.9584 0.52808 0.0
O53 O 0.03973 0.99428 0.56534 0.0
O54 O 0.96404 0.01127 0.58634 0.0
O55 O 0.03066 0.01774 0.62871 0.0
C56 C 0.04086 0.0175 0.47531 0.0
C57 C 0.98908 0.96822 0.34373 0.0
C58 C 0.98827 0.96136 0.2609 0.0
C59 C 0.99335 0.97787 0.29787 0.0
C60 C 0.97864 0.9352 0.27082 0.0
C61 C 0.97956 0.94206 0.35252 0.0
C62 C 0.97435 0.92569 0.31625 0.0
C63 C 0.96744 0.03829 0.48452 0.0
C64 C 0.99484 0.9854 0.38217 0.0
C65 C 0.9853 0.86906 0.48135 0.0
C66 C 0.95824 0.87606 0.48702 0.0
C67 C 0.96541 0.9892 0.56497 0.0
C68 C 0.01635 0.03884 0.69678 0.0
C69 C 0.0118 0.02937 0.74268 0.0
C70 C 0.01654 0.04606 0.77955 0.0
C71 C 0.02608 0.07224 0.76951 0.0
C72 C 0.02578 0.06502 0.68788 0.0
C73 C 0.03063 0.08158 0.72405 0.0
C74 C 0.03928 0.96857 0.55546 0.0
C75 C 0.0109 0.02149 0.65841 0.0
H76 H 1.00097 0.99801 0.29107 0.0
H77 H 0.97407 0.92212 0.24339 0.0
H78 H 0.97612 0.93428 0.38736 0.0
H79 H 0.9669 0.90555 0.32339 0.0
H80 H 0.00424 0.00922 0.74956 0.0
H81 H 0.03039 0.08546 0.79687 0.0
H82 H 0.02943 0.07268 0.65303 0.0
H83 H 0.03801 0.10174 0.71682 0.0
Eu84 Eu 0.27626 0.74591 0.71199 0.0
C85 C 0.17129 0.77451 0.82377 0.0
C86 C 0.16578 0.82228 0.80977 0.0
C87 C 0.12662 0.79381 0.82341 0.0
C88 C 0.18238 0.79952 0.81383 0.0
C89 C 0.14332 0.77145 0.82984 0.0
C90 C 0.13783 0.81918 0.81334 0.0
C91 C 0.15064 0.72496 0.8523 0.0
N92 N 0.18798 0.75339 0.83012 0.0
C93 C 0.17825 0.72904 0.84597 0.0
C94 C 0.13306 0.74617 0.84357 0.0
Eu95 Eu 0.23432 0.76155 0.81725 0.0
N96 N 0.20946 0.80184 0.81101 0.0
C97 C 0.22126 0.82652 0.80776 0.0
C98 C 0.17778 0.84753 0.80369 0.0
C99 C 0.20564 0.84968 0.80351 0.0
H100 H 0.19184 0.71258 0.85236 0.0
H101 H 0.21512 0.86916 0.79976 0.0
H102 H 0.12475 0.83638 0.80969 0.0
H103 H 0.14294 0.70548 0.86377 0.0
H104 H 0.24276 0.82848 0.80724 0.0
H105 H 0.29438 0.63812 0.73419 0.0
H106 H 0.16574 0.86549 0.80026 0.0
H107 H 0.31887 0.79259 0.66904 0.0
H108 H 0.26726 0.6789 0.7247 0.0
H109 H 0.36774 0.79895 0.65547 0.0
H110 H 0.10505 0.79182 0.8274 0.0
H111 H 0.34379 0.64124 0.73341 0.0
H112 H 0.38511 0.66973 0.72173 0.0
H113 H 0.11169 0.74299 0.84862 0.0
H114 H 0.40521 0.71367 0.70018 0.0
N115 N 0.3008 0.7053 0.71967 0.0
C116 C 0.28875 0.68073 0.72405 0.0
C117 C 0.33196 0.65929 0.72915 0.0
C118 C 0.34424 0.68431 0.72161 0.0
C119 C 0.30409 0.65745 0.72946 0.0
C120 C 0.32789 0.70719 0.7165 0.0
H121 H 0.39886 0.76188 0.67432 0.0
N122 N 0.32263 0.75281 0.6966 0.0
C123 C 0.36 0.78 0.66961 0.0
C124 C 0.33919 0.7318 0.70457 0.0
C125 C 0.33241 0.77634 0.67721 0.0
C126 C 0.3775 0.75907 0.68046 0.0
C127 C 0.36714 0.73439 0.69724 0.0
O128 O 0.27605 0.76201 0.64092 0.0
O129 O 0.24285 0.76967 0.7423 0.0
O130 O 0.20804 0.74204 0.76749 0.0
O131 O 0.24002 0.71858 0.72454 0.0
O132 O 0.26665 0.78945 0.6926 0.0
O133 O 0.26306 0.72135 0.65673 0.0
O134 O 0.23334 0.74472 0.8879 0.0
O135 O 0.26832 0.73833 0.78745 0.0
O136 O 0.30258 0.76841 0.7581 0.0
O137 O 0.27094 0.78854 0.80778 0.0
O138 O 0.24404 0.718 0.83593 0.0
O139 O 0.24591 0.7858 0.87397 0.0
C140 C 0.24583 0.79158 0.71978 0.0
C141 C 0.28465 0.73049 0.58407 0.0
C142 C 0.29197 0.72887 0.50055 0.0
C143 C 0.27651 0.73695 0.53921 0.0
C144 C 0.31557 0.71414 0.50772 0.0
C145 C 0.30826 0.71581 0.59017 0.0
C146 C 0.32359 0.7077 0.55219 0.0
C147 C 0.21497 0.72332 0.73856 0.0
C148 C 0.26873 0.73947 0.62428 0.0
C149 C 0.38365 0.71203 0.70504 0.0
C150 C 0.37221 0.68701 0.71728 0.0
C151 C 0.26537 0.71636 0.80982 0.0
C152 C 0.22381 0.77544 0.94585 0.0
C153 C 0.23198 0.76888 0.99067 0.0
C154 C 0.21629 0.77645 0.02942 0.0
C155 C 0.19242 0.79076 0.02238 0.0
C156 C 0.19993 0.78968 0.93989 0.0
C157 C 0.18436 0.79727 0.97796 0.0
C158 C 0.29554 0.78553 0.78991 0.0
C159 C 0.24014 0.76718 0.90559 0.0
H160 H 0.2584 0.74854 0.53449 0.0
H161 H 0.32769 0.70724 0.47889 0.0
H162 H 0.31482 0.71056 0.62425 0.0
H163 H 0.34174 0.69629 0.55725 0.0
H164 H 0.25031 0.75765 0.99526 0.0
H165 H 0.18011 0.79729 0.05126 0.0
H166 H 0.19336 0.79503 0.90588 0.0
H167 H 0.16601 0.80836 0.97301 0.0
Eu168 Eu 0.50991 0.98126 0.07699 0.0
C169 C 0.48145 0.08635 0.96249 0.0
C170 C 0.43369 0.09225 0.97563 0.0
C171 C 0.46233 0.13114 0.96015 0.0
C172 C 0.45637 0.07549 0.97253 0.0
C173 C 0.48467 0.11426 0.95527 0.0
C174 C 0.43688 0.12015 0.97033 0.0
C175 C 0.53138 0.10653 0.93526 0.0
N176 N 0.50256 0.0695 0.95769 0.0
C177 C 0.52713 0.07899 0.94251 0.0
C178 C 0.51012 0.12428 0.9422 0.0
Eu179 Eu 0.49408 0.02327 0.97169 0.0
N180 N 0.45397 0.04844 0.9773 0.0
C181 C 0.42927 0.03677 0.98236 0.0
C182 C 0.40844 0.08043 0.98312 0.0
C183 C 0.4062 0.05256 0.98597 0.0
H184 H 0.5436 0.06527 0.93733 0.0
H185 H 0.38673 0.0432 0.99108 0.0
H186 H 0.41974 0.13336 0.97309 0.0
H187 H 0.55102 0.11404 0.92435 0.0
H188 H 0.42721 0.01527 0.98473 0.0
H189 H 0.61737 0.9615 0.05696 0.0
H190 H 0.39054 0.0926 0.98596 0.0
H191 H 0.46171 0.9391 0.11622 0.0
H192 H 0.57694 0.98926 0.06528 0.0
H193 H 0.45447 0.89026 0.12862 0.0
H194 H 0.46442 0.15265 0.95514 0.0
H195 H 0.61353 0.91212 0.05801 0.0
H196 H 0.58435 0.87123 0.06888 0.0
H197 H 0.51343 0.1456 0.93638 0.0
H198 H 0.53992 0.85176 0.08851 0.0
N199 N 0.5501 0.95611 0.07004 0.0
C200 C 0.57483 0.96779 0.06605 0.0
C201 C 0.59564 0.92423 0.06179 0.0
C202 C 0.5704 0.91233 0.0687 0.0
C203 C 0.59789 0.95208 0.06131 0.0
C204 C 0.54775 0.92903 0.0732 0.0
H205 H 0.49145 0.85871 0.11178 0.0
N206 N 0.50197 0.93493 0.09134 0.0
C207 C 0.47377 0.8978 0.11586 0.0
C208 C 0.52286 0.91809 0.08422 0.0
C209 C 0.47792 0.92538 0.10894 0.0
C210 C 0.49467 0.88006 0.10616 0.0
C211 C 0.51976 0.89014 0.09099 0.0
O212 O 0.49402 0.98106 0.14817 0.0
O213 O 0.48627 0.01494 0.04695 0.0
O214 O 0.51418 0.04937 1.02087 0.0
O215 O 0.53755 0.01734 0.0642 0.0
O216 O 0.46657 0.99119 0.09685 0.0
O217 O 0.53468 0.99409 0.13225 0.0
O218 O 0.51059 0.02355 0.90089 0.0
O219 O 0.51751 0.98951 1.00173 0.0
O220 O 0.48848 0.95499 0.02933 0.0
O221 O 0.46679 0.98702 0.98273 0.0
O222 O 0.5375 0.01333 0.95227 0.0
O223 O 0.46955 0.01121 0.91564 0.0
C224 C 0.46451 0.01218 0.06997 0.0
C225 C 0.52566 0.97233 0.2049 0.0
C226 C 0.52752 0.96494 0.28841 0.0
C227 C 0.51931 0.98042 0.2498 0.0
C228 C 0.54228 0.94137 0.28114 0.0
C229 C 0.54035 0.94873 0.19871 0.0
C230 C 0.5486 0.93339 0.23663 0.0
C231 C 0.53307 0.04236 0.04943 0.0
C232 C 0.51662 0.98832 0.16475 0.0
C233 C 0.54195 0.8733 0.08399 0.0
C234 C 0.56724 0.88439 0.07283 0.0
C235 C 0.53935 0.99227 0.97903 0.0
C236 C 0.47965 0.03268 0.84306 0.0
C237 C 0.48673 0.02458 0.79843 0.0
C238 C 0.4791 0.04003 0.75939 0.0
C239 C 0.4642 0.06359 0.76595 0.0
C240 C 0.4648 0.05624 0.84852 0.0
C241 C 0.45716 0.07158 0.81018 0.0
C242 C 0.47085 0.96215 0.99849 0.0
C243 C 0.48803 0.01666 0.88367 0.0
H244 H 0.50771 0.99851 0.25459 0.0
H245 H 0.5493 0.92924 0.3099 0.0
H246 H 0.54552 0.94219 0.16462 0.0
H247 H 0.56003 0.91526 0.2315 0.0
H248 H 0.49841 0.00649 0.7942 0.0
H249 H 0.45761 0.0757 0.73683 0.0
H250 H 0.459 0.06275 0.88234 0.0
H251 H 0.44561 0.08969 0.81476 0.0
Eu252 Eu 0.27492 0.2586 0.32415 0.0
C253 C 0.16588 0.24744 0.23099 0.0
C254 C 0.15404 0.20049 0.24038 0.0
C255 C 0.11902 0.23425 0.23791 0.0
C256 C 0.17355 0.22092 0.23579 0.0
C257 C 0.13853 0.25439 0.23092 0.0
C258 C 0.12677 0.20734 0.24262 0.0
C259 C 0.15177 0.30024 0.21262 0.0
N260 N 0.1852 0.26633 0.2236 0.0
C261 C 0.17861 0.29232 0.2126 0.0
C262 C 0.13163 0.28125 0.22242 0.0
Eu263 Eu 0.23021 0.2517 0.22672 0.0
N264 N 0.20007 0.21499 0.23319 0.0
C265 C 0.20835 0.18897 0.23149 0.0
C266 C 0.16251 0.17378 0.24129 0.0
C267 C 0.18977 0.16801 0.23611 0.0
H268 H 0.19417 0.30707 0.20533 0.0
H269 H 0.1965 0.14742 0.23593 0.0
H270 H 0.11151 0.19194 0.24677 0.0
H271 H 0.14664 0.32097 0.20511 0.0
H272 H 0.22934 0.18416 0.22772 0.0
H273 H 0.31224 0.36158 0.30823 0.0
H274 H 0.14817 0.15751 0.24496 0.0
H275 H 0.30846 0.20339 0.35601 0.0
H276 H 0.27818 0.32604 0.31791 0.0
H277 H 0.35525 0.18832 0.36351 0.0
H278 H 0.0979 0.2392 0.23845 0.0
H279 H 0.36031 0.34978 0.30265 0.0
H280 H 0.3958 0.31419 0.30701 0.0
H281 H 0.11084 0.28741 0.22216 0.0
H282 H 0.40758 0.2669 0.32242 0.0
N283 N 0.30644 0.29416 0.31623 0.0
C284 C 0.29902 0.32049 0.31559 0.0
C285 C 0.34541 0.33404 0.30682 0.0
C286 C 0.35297 0.3071 0.31071 0.0
C287 C 0.31831 0.34077 0.31011 0.0
C288 C 0.33274 0.28739 0.31584 0.0
H289 H 0.39258 0.21994 0.34483 0.0
N290 N 0.31926 0.24294 0.33259 0.0
C291 C 0.35108 0.20875 0.35222 0.0
C292 C 0.33938 0.26088 0.3244 0.0
C293 C 0.32461 0.21736 0.34801 0.0
C294 C 0.37209 0.22663 0.34146 0.0
C295 C 0.36638 0.2532 0.32813 0.0
O296 O 0.2727 0.2416 0.39475 0.0
O297 O 0.23748 0.24005 0.29994 0.0
O298 O 0.20767 0.27314 0.28341 0.0
O299 O 0.2435 0.29187 0.31944 0.0
O300 O 0.26045 0.21605 0.3419 0.0
O301 O 0.26623 0.28395 0.38238 0.0
O302 O 0.22928 0.27025 0.15739 0.0
O303 O 0.26801 0.26987 0.2503 0.0
O304 O 0.29786 0.23527 0.27027 0.0
O305 O 0.26268 0.21934 0.22827 0.0
O306 O 0.24464 0.29425 0.2094 0.0
O307 O 0.23852 0.22812 0.16617 0.0
C308 C 0.23866 0.21712 0.31976 0.0
C309 C 0.28599 0.27039 0.45201 0.0
C310 C 0.29204 0.27306 0.53482 0.0
C311 C 0.27582 0.26736 0.49776 0.0
C312 C 0.31862 0.28148 0.52515 0.0
C313 C 0.31248 0.27894 0.44348 0.0
C314 C 0.32869 0.28439 0.47985 0.0
C315 C 0.21773 0.29098 0.31033 0.0
C316 C 0.26895 0.26464 0.41336 0.0
C317 C 0.38669 0.27246 0.32027 0.0
C318 C 0.37998 0.29938 0.31151 0.0
C319 C 0.26685 0.29281 0.23037 0.0
C320 C 0.21658 0.24203 0.09878 0.0
C321 C 0.22645 0.24477 0.05283 0.0
C322 C 0.20995 0.23895 1.01621 0.0
C323 C 0.18341 0.23061 0.02652 0.0
C324 C 0.1901 0.23363 0.10798 0.0
C325 C 0.17363 0.228 0.07205 0.0
C326 C 0.28809 0.21902 0.24013 0.0
C327 C 0.23398 0.24791 0.13687 0.0
H328 H 0.25525 0.26098 0.50437 0.0
H329 H 0.3318 0.28555 0.55269 0.0
H330 H 0.32065 0.28147 0.40875 0.0
H331 H 0.34916 0.29086 0.47289 0.0
H332 H 0.24701 0.25104 0.04573 0.0
H333 H 0.17002 0.22644 0.99933 0.0
H334 H 0.18213 0.23141 0.14288 0.0
H335 H 0.15317 0.22162 0.07951 0.0
Eu336 Eu 0.77572 0.24554 0.21313 0.0
C337 C 0.67067 0.27671 0.32385 0.0
C338 C 0.66772 0.32468 0.3097 0.0
C339 C 0.62709 0.29838 0.32321 0.0
C340 C 0.68309 0.30106 0.31396 0.0
C341 C 0.64259 0.27521 0.33016 0.0
C342 C 0.63965 0.32309 0.31291 0.0
C343 C 0.64753 0.22884 0.3554 0.0
N344 N 0.68623 0.25483 0.33103 0.0
C345 C 0.6753 0.23139 0.34874 0.0
C346 C 0.63104 0.25071 0.34521 0.0
Eu347 Eu 0.73295 0.2602 0.31829 0.0
N348 N 0.71026 0.30191 0.31179 0.0
C349 C 0.7233 0.32599 0.30908 0.0
C350 C 0.68105 0.34927 0.30406 0.0
C351 C 0.70894 0.34995 0.30464 0.0
H352 H 0.68806 0.21442 0.35626 0.0
H353 H 0.71944 0.36891 0.30132 0.0
H354 H 0.62752 0.34097 0.30907 0.0
H355 H 0.63887 0.21001 0.36822 0.0
H356 H 0.74484 0.32694 0.30913 0.0
H357 H 0.78905 0.13689 0.23226 0.0
H358 H 0.66999 0.36786 0.30054 0.0
H359 H 0.82095 0.29059 0.17313 0.0
H360 H 0.76379 0.17885 0.22268 0.0
H361 H 0.87025 0.29506 0.16331 0.0
H362 H 0.60546 0.29758 0.32728 0.0
H363 H 0.83843 0.13792 0.23492 0.0
H364 H 0.88099 0.16477 0.22739 0.0
H365 H 0.60955 0.24873 0.35056 0.0
H366 H 0.90324 0.20803 0.20881 0.0
N367 N 0.79838 0.20385 0.22082 0.0
C368 C 0.7853 0.17978 0.22351 0.0
C369 C 0.82744 0.1565 0.23058 0.0
C370 C 0.84083 0.18105 0.22488 0.0
C371 C 0.79958 0.15583 0.22895 0.0
C372 C 0.82554 0.20465 0.21953 0.0
H373 H 0.8994 0.25666 0.18383 0.0
N374 N 0.82256 0.25068 0.20088 0.0
C375 C 0.86148 0.2764 0.17668 0.0
C376 C 0.83805 0.22891 0.20939 0.0
C377 C 0.83366 0.27382 0.18221 0.0
C378 C 0.87786 0.25471 0.18846 0.0
C379 C 0.86618 0.23036 0.20397 0.0
O380 O 0.77731 0.26312 0.14291 0.0
O381 O 0.74203 0.26887 0.24354 0.0
O382 O 0.70642 0.23981 0.26952 0.0
O383 O 0.73833 0.21962 0.22073 0.0
O384 O 0.76634 0.2893 0.19526 0.0
O385 O 0.76411 0.22222 0.15536 0.0
O386 O 0.73097 0.24231 0.38826 0.0
O387 O 0.76685 0.23703 0.28808 0.0
O388 O 0.80178 0.26773 0.25976 0.0
O389 O 0.7703 0.28629 0.31155 0.0
O390 O 0.74187 0.21626 0.33494 0.0
O391 O 0.74523 0.28295 0.37639 0.0
C392 C 0.74515 0.29101 0.22177 0.0
C393 C 0.7868 0.23283 0.08433 0.0
C394 C 0.79416 0.23105 1.00088 0.0
C395 C 0.77842 0.23873 0.03947 0.0
C396 C 0.81835 0.21733 1.00814 0.0
C397 C 0.81097 0.21913 0.09057 0.0
C398 C 0.82663 0.21147 0.05266 0.0
C399 C 0.71344 0.22336 0.23664 0.0
C400 C 0.7703 0.24101 0.12438 0.0
C401 C 0.88158 0.20725 0.21216 0.0
C402 C 0.86891 0.18262 0.22267 0.0
C403 C 0.76345 0.21477 0.30935 0.0
C404 C 0.7223 0.2725 0.44734 0.0
C405 C 0.73063 0.26625 0.49213 0.0
C406 C 0.71506 0.27403 0.53087 0.0
C407 C 0.6911 0.28819 0.52384 0.0
C408 C 0.69838 0.28667 0.44136 0.0
C409 C 0.68289 0.29442 0.47941 0.0
C410 C 0.79472 0.28411 0.29261 0.0
C411 C 0.73856 0.26414 0.40711 0.0
H412 H 0.75983 0.24951 0.03471 0.0
H413 H 0.83072 0.21074 0.97938 0.0
H414 H 0.81766 0.21423 0.12469 0.0
H415 H 0.84521 0.2008 0.0578 0.0
H416 H 0.74903 0.25513 0.49674 0.0
H417 H 0.67888 0.29486 0.55272 0.0
H418 H 0.69173 0.29186 0.40734 0.0
H419 H 0.66449 0.30544 0.47445 0.0
Eu420 Eu 0.77599 0.75757 0.82491 0.0
C421 C 0.66731 0.7457 0.73067 0.0
C422 C 0.65564 0.69868 0.73973 0.0
C423 C 0.6205 0.73231 0.73691 0.0
C424 C 0.67509 0.71919 0.7355 0.0
C425 C 0.63994 0.75253 0.7303 0.0
C426 C 0.62834 0.70543 0.74159 0.0
C427 C 0.65303 0.79848 0.71243 0.0
N428 N 0.68657 0.76469 0.72357 0.0
C429 C 0.67991 0.79067 0.71265 0.0
C430 C 0.63295 0.77938 0.72187 0.0
Eu431 Eu 0.73159 0.7502 0.72687 0.0
N432 N 0.70164 0.71335 0.73325 0.0
C433 C 0.71003 0.68735 0.73166 0.0
C434 C 0.66421 0.672 0.74068 0.0
C435 C 0.6915 0.66633 0.73593 0.0
H436 H 0.69543 0.80549 0.70563 0.0
H437 H 0.69832 0.64576 0.73582 0.0
H438 H 0.61313 0.68996 0.74541 0.0
H439 H 0.64783 0.81919 0.705 0.0
H440 H 0.73104 0.6826 0.72821 0.0
H441 H 0.80889 0.86221 0.80842 0.0
H442 H 0.64992 0.65567 0.74407 0.0
H443 H 0.81201 0.70523 0.86106 0.0
H444 H 0.77651 0.8253 0.81886 0.0
H445 H 0.85952 0.69203 0.8673 0.0
H446 H 0.59937 0.73717 0.73719 0.0
H447 H 0.85737 0.85254 0.80116 0.0
H448 H 0.89442 0.81853 0.80427 0.0
H449 H 0.61214 0.78545 0.72141 0.0
H450 H 0.90833 0.77189 0.82016 0.0
N451 N 0.80602 0.79456 0.81604 0.0
C452 C 0.7975 0.82058 0.81583 0.0
C453 C 0.84319 0.83615 0.80569 0.0
C454 C 0.85194 0.80958 0.80923 0.0
C455 C 0.81586 0.84169 0.80994 0.0
C456 C 0.83261 0.789 0.81492 0.0
H457 H 0.89544 0.72464 0.84489 0.0
N458 N 0.82112 0.74433 0.83352 0.0
C459 C 0.85446 0.712 0.85465 0.0
C460 C 0.84043 0.76293 0.8238 0.0
C461 C 0.82762 0.71952 0.85115 0.0
C462 C 0.87467 0.73041 0.84178 0.0
C463 C 0.86777 0.75647 0.82724 0.0
O464 O 0.77454 0.74056 0.89552 0.0
O465 O 0.73893 0.73877 0.8001 0.0
O466 O 0.70847 0.7709 0.78362 0.0
O467 O 0.74385 0.79019 0.81991 0.0
O468 O 0.76136 0.71515 0.84363 0.0
O469 O 0.76589 0.78245 0.88322 0.0
O470 O 0.73055 0.76894 0.65769 0.0
O471 O 0.76961 0.7682 0.75047 0.0
O472 O 0.79829 0.73097 0.77486 0.0
O473 O 0.76407 0.71802 0.72739 0.0
O474 O 0.74597 0.79274 0.71003 0.0
O475 O 0.73967 0.72673 0.66614 0.0
C476 C 0.73986 0.71601 0.82063 0.0
C477 C 0.78651 0.77006 0.95252 0.0
C478 C 0.79265 0.77335 0.03517 0.0
C479 C 0.77657 0.76685 0.99836 0.0
C480 C 0.81886 0.78279 0.02516 0.0
C481 C 0.81263 0.77965 0.94361 0.0
C482 C 0.82869 0.78591 0.97973 0.0
C483 C 0.71812 0.78884 0.81073 0.0
C484 C 0.76965 0.76338 0.91417 0.0
C485 C 0.8872 0.77651 0.81832 0.0
C486 C 0.87928 0.80306 0.80931 0.0
C487 C 0.76832 0.79116 0.73057 0.0
C488 C 0.71768 0.74087 0.59894 0.0
C489 C 0.72749 0.7438 0.553 0.0
C490 C 0.711 0.73798 0.51638 0.0
C491 C 0.68452 0.72946 0.52667 0.0
C492 C 0.69126 0.73227 0.60814 0.0
C493 C 0.67479 0.72665 0.5722 0.0
C494 C 0.78862 0.71585 0.74292 0.0
C495 C 0.73513 0.74661 0.63701 0.0
H496 H 0.75628 0.75968 1.00521 0.0
H497 H 0.83194 0.78749 0.05251 0.0
H498 H 0.82061 0.78233 0.90876 0.0
H499 H 0.84888 0.79317 0.9725 0.0
H500 H 0.74801 0.75021 0.54588 0.0
H501 H 0.67115 0.72526 0.49946 0.0
H502 H 0.68336 0.72985 0.64303 0.0
H503 H 0.65438 0.72012 0.57967 0.0
Eu504 Eu 0.49991 0.48111 0.97402 0.0
C505 C 0.50951 0.59081 0.06703 0.0
C506 C 0.55612 0.60377 0.0571 0.0
C507 C 0.52156 0.63799 0.06011 0.0
C508 C 0.53617 0.58378 0.06187 0.0
C509 C 0.50192 0.61799 0.06717 0.0
C510 C 0.54863 0.63089 0.0551 0.0
C511 C 0.4564 0.60363 0.08526 0.0
N512 N 0.49111 0.57101 0.07438 0.0
C513 C 0.46497 0.57697 0.0852 0.0
C514 C 0.4749 0.62425 0.07566 0.0
Eu515 Eu 0.50677 0.52633 0.07085 0.0
N516 N 0.5427 0.5574 0.06423 0.0
C517 C 0.56891 0.54971 0.06548 0.0
C518 C 0.58301 0.59592 0.05576 0.0
C519 C 0.58942 0.56878 0.06067 0.0
H520 H 0.45056 0.56108 0.09229 0.0
H521 H 0.61015 0.56251 0.06049 0.0
H522 H 0.56365 0.64651 0.05085 0.0
H523 H 0.43556 0.60826 0.09267 0.0
H524 H 0.57419 0.52884 0.069 0.0
H525 H 0.39633 0.44547 0.9834 0.0
H526 H 0.59893 0.61064 0.05195 0.0
H527 H 0.55592 0.44607 0.95262 0.0
H528 H 0.43248 0.47895 0.97542 0.0
H529 H 0.57068 0.39882 0.95211 0.0
H530 H 0.51611 0.65899 0.05965 0.0
H531 H 0.40727 0.39727 0.99183 0.0
H532 H 0.44236 0.36121 0.99306 0.0
H533 H 0.46825 0.64489 0.07595 0.0
H534 H 0.48984 0.34849 0.9846 0.0
N535 N 0.46381 0.45023 0.98044 0.0
C536 C 0.43765 0.45805 0.97893 0.0
C537 C 0.42328 0.41191 0.98828 0.0
C538 C 0.45013 0.40392 0.9872 0.0
C539 C 0.41703 0.43909 0.98342 0.0
C540 C 0.47019 0.42381 0.98276 0.0
H541 H 0.53779 0.36235 0.96862 0.0
N542 N 0.51532 0.43634 0.97049 0.0
C543 C 0.54986 0.40355 0.95951 0.0
C544 C 0.49682 0.41664 0.97773 0.0
C545 C 0.54144 0.43025 0.95966 0.0
C546 C 0.53125 0.38303 0.969 0.0
C547 C 0.50426 0.38941 0.97746 0.0
O548 O 0.51803 0.48106 0.90435 0.0
O549 O 0.51844 0.51867 0.9977 0.0
O550 O 0.48556 0.54882 1.01382 0.0
O551 O 0.467 0.51309 0.97699 0.0
O552 O 0.54252 0.49545 0.95635 0.0
O553 O 0.47586 0.48972 0.91403 0.0
O554 O 0.48876 0.52629 0.14059 0.0
O555 O 0.48832 0.48879 0.04712 0.0
O556 O 0.52127 0.45869 0.03096 0.0
O557 O 0.53976 0.49445 0.06781 0.0
O558 O 0.4642 0.51177 0.08873 0.0
O559 O 0.53099 0.51794 0.13071 0.0
C560 C 0.54135 0.51746 0.97789 0.0
C561 C 0.48967 0.46851 0.84588 0.0
C562 C 0.48662 0.46233 0.76315 0.0
C563 C 0.49235 0.47866 0.80005 0.0
C564 C 0.47844 0.43569 0.77308 0.0
C565 C 0.48143 0.44193 0.85468 0.0
C566 C 0.47588 0.42564 0.81848 0.0
C567 C 0.46795 0.53886 0.98631 0.0
C568 C 0.49552 0.48567 0.88429 0.0
C569 C 0.4845 0.36952 0.98426 0.0
C570 C 0.45747 0.37676 0.98909 0.0
C571 C 0.46544 0.48982 0.06704 0.0
C572 C 0.51712 0.53907 0.19891 0.0
C573 C 0.5144 0.52896 0.24476 0.0
C574 C 0.52005 0.54533 0.28164 0.0
C575 C 0.52819 0.57198 0.27167 0.0
C576 C 0.5253 0.56566 0.19007 0.0
C577 C 0.53077 0.58199 0.22626 0.0
C578 C 0.53896 0.46871 0.05826 0.0
C579 C 0.51133 0.52185 0.16054 0.0
H580 H 0.49852 0.49928 0.79327 0.0
H581 H 0.47435 0.42243 0.74568 0.0
H582 H 0.4793 0.43375 0.88949 0.0
H583 H 0.46964 0.4051 0.82562 0.0
H584 H 0.50826 0.50833 0.25158 0.0
H585 H 0.53222 0.58527 0.29906 0.0
H586 H 0.52746 0.57382 0.15525 0.0
H587 H 0.53698 0.60254 0.21909 0.0
Eu588 Eu 0.00792 0.47992 0.57812 0.0
C589 C 0.97978 0.587 0.46724 0.0
C590 C 0.93182 0.59142 0.47967 0.0
C591 C 0.95938 0.63122 0.46598 0.0
C592 C 0.95499 0.57535 0.47643 0.0
C593 C 0.98217 0.61501 0.46043 0.0
C594 C 0.93424 0.61944 0.47571 0.0
C595 C 0.02878 0.6086 0.43812 0.0
N596 N 1.00129 0.57076 0.46158 0.0
C597 C 0.02538 0.58094 0.44546 0.0
C598 C 0.00719 0.62576 0.44645 0.0
Eu599 Eu 0.99429 0.52424 0.47423 0.0
N600 N 0.95335 0.54822 0.47932 0.0
C601 C 0.92893 0.53585 0.48199 0.0
C602 C 0.90685 0.57882 0.48533 0.0
C603 C 0.90539 0.55092 0.48576 0.0
H604 H 0.04214 0.56768 0.43937 0.0
H605 H 0.88614 0.54097 0.48917 0.0
H606 H 0.91671 0.63212 0.47868 0.0
H607 H 0.04805 0.61666 0.42629 0.0
H608 H 0.92743 0.51432 0.48255 0.0
H609 H 0.11673 0.46696 0.56516 0.0
H610 H 0.88858 0.59044 0.48821 0.0
H611 H 0.96193 0.43397 0.61105 0.0
H612 H 0.07459 0.49202 0.57345 0.0
H613 H 0.95741 0.38454 0.61754 0.0
H614 H 0.96085 0.65281 0.46145 0.0
H615 H 0.11593 0.41767 0.56007 0.0
H616 H 0.08914 0.37505 0.56363 0.0
H617 H 0.00985 0.64718 0.44068 0.0
H618 H 0.04563 0.35249 0.57772 0.0
N619 N 0.04974 0.45743 0.57217 0.0
C620 C 0.07375 0.47055 0.57151 0.0
C621 C 0.09727 0.42858 0.56385 0.0
C622 C 0.07271 0.41511 0.56736 0.0
C623 C 0.09781 0.45638 0.56683 0.0
C624 C 0.04901 0.43028 0.57202 0.0
H625 H 0.99644 0.35585 0.59887 0.0
N626 N 1.00261 0.43292 0.58723 0.0
C627 C 0.97639 0.39357 0.6065 0.0
C628 C 0.02461 0.41761 0.57962 0.0
C629 C 0.97899 0.42146 0.60289 0.0
C630 C 0.99844 0.37745 0.59577 0.0
C631 C 0.02311 0.38942 0.58314 0.0
O632 O 0.98955 0.47666 0.64771 0.0
O633 O 0.9846 0.5139 0.5484 0.0
O634 O 0.01327 0.55016 0.52564 0.0
O635 O 0.03382 0.51743 0.57221 0.0
O636 O 0.96389 0.48846 0.5946 0.0
O637 O 0.03005 0.49133 0.63742 0.0
O638 O 0.01223 0.52577 0.40428 0.0
O639 O 0.01756 0.49032 0.5041 0.0
O640 O 0.98783 0.45462 0.52753 0.0
O641 O 0.96762 0.48733 0.48017 0.0
O642 O 0.03844 0.51582 0.45839 0.0
O643 O 0.97144 0.51208 0.41617 0.0
C644 C 0.96227 0.51015 0.56927 0.0
C645 C 0.01931 0.4677 0.70749 0.0
C646 C 0.02333 0.46132 0.7908 0.0
C647 C 0.01502 0.47683 0.75231 0.0
C648 C 0.03572 0.43645 0.78351 0.0
C649 C 0.0318 0.44291 0.70124 0.0
C650 C 0.03989 0.42738 0.73907 0.0
C651 C 0.02968 0.54267 0.55841 0.0
C652 C 0.01108 0.48425 0.66746 0.0
C653 C 0.04642 0.37419 0.5758 0.0
C654 C 0.07119 0.38702 0.56786 0.0
C655 C 0.03998 0.49412 0.48368 0.0
C656 C 0.98222 0.5342 0.34463 0.0
C657 C 0.98668 0.52447 0.30023 0.0
C658 C 0.97841 0.53946 0.26111 0.0
C659 C 0.96596 0.56442 0.26734 0.0
C660 C 0.96965 0.55905 0.34977 0.0
C661 C 0.96165 0.57407 0.31132 0.0
C662 C 0.97117 0.46229 0.49545 0.0
C663 C 0.99038 0.51824 0.38543 0.0
H664 H 0.00565 0.49616 0.75706 0.0
H665 H 0.04195 0.4238 0.81225 0.0
H666 H 0.0354 0.43561 0.66716 0.0
H667 H 0.04944 0.40821 0.73393 0.0
H668 H 0.99611 0.50512 0.2963 0.0
H669 H 0.95979 0.57668 0.23809 0.0
H670 H 0.9659 0.56679 0.38346 0.0
H671 H 0.95205 0.59329 0.31564 0.0
C672 C 0.08679 0.03495 0.45519 0.0
C673 C 0.05945 0.04023 0.46331 0.0
C674 C 0.10465 0.05551 0.44081 0.0
C675 C 0.10864 0.12392 0.38464 0.0
H676 H 0.17996 0.12239 0.43233 0.0
C677 C 0.18972 0.20737 0.34014 0.0
C678 C 0.21612 0.19837 0.33217 0.0
C679 C 0.16938 0.18936 0.35605 0.0
C680 C 0.16024 0.12305 0.41819 0.0
H681 H 0.0291 0.0711 0.45993 0.0
H682 H 0.06036 0.10731 0.43529 0.0
H683 H 0.14698 0.08936 0.4609 0.0
H684 H 0.24197 0.16369 0.33595 0.0
H685 H 0.20681 0.13239 0.36301 0.0
H686 H 0.12216 0.15777 0.34183 0.0
C687 C 0.0681 0.08722 0.4405 0.0
C688 C 0.14123 0.104 0.43466 0.0
C689 C 0.05019 0.06654 0.45524 0.0
C690 C 0.22176 0.17116 0.34116 0.0
C691 C 0.20158 0.15325 0.35707 0.0
C692 C 0.12774 0.1431 0.36816 0.0
C693 C 0.09569 0.08203 0.4333 0.0
C694 C 0.11523 0.10379 0.41767 0.0
C695 C 0.17509 0.16203 0.36522 0.0
C696 C 0.15399 0.14268 0.3842 0.0
H697 H 0.09441 0.01476 0.46005 0.0
H698 H 0.12552 0.05043 0.43471 0.0
H699 H 0.08895 0.1244 0.3704 0.0
H700 H 0.18489 0.22838 0.33484 0.0
H701 H 0.14933 0.19698 0.36226 0.0
C702 C 0.08377 0.96112 0.59079 0.0
C703 C 0.05995 0.95055 0.57482 0.0
C704 C 0.10357 0.94414 0.60813 0.0
C705 C 0.14766 0.90132 0.61189 0.0
H706 H 0.12972 0.84643 0.70601 0.0
C707 C 0.22993 0.8372 0.69626 0.0
C708 C 0.22404 0.81032 0.7082 0.0
C709 C 0.20968 0.85477 0.68244 0.0
C710 C 0.13507 0.86136 0.67924 0.0
H711 H 0.03802 0.91383 0.56544 0.0
H712 H 0.0725 0.88421 0.59659 0.0
H713 H 0.0946 0.87557 0.67614 0.0
H714 H 0.19279 0.78023 0.71207 0.0
H715 H 0.1576 0.81048 0.68708 0.0
H716 H 0.18782 0.88675 0.61337 0.0
C717 C 0.07584 0.90565 0.59532 0.0
C718 C 0.11493 0.87812 0.66232 0.0
C719 C 0.0562 0.92261 0.57725 0.0
C720 C 0.19772 0.80108 0.7047 0.0
C721 C 0.17752 0.81851 0.69031 0.0
C722 C 0.16772 0.88431 0.62819 0.0
C723 C 0.0998 0.91625 0.61064 0.0
C724 C 0.12105 0.89831 0.62856 0.0
C725 C 0.18318 0.84564 0.67892 0.0
C726 C 0.16176 0.86408 0.66217 0.0
H727 H 0.08735 0.9825 0.58933 0.0
H728 H 0.12178 0.95285 0.61995 0.0
H729 H 0.15289 0.91654 0.58549 0.0
H730 H 0.25019 0.84467 0.69809 0.0
H731 H 0.21485 0.87554 0.6747 0.0
C732 C 0.33665 0.81343 0.78038 0.0
C733 C 0.31664 0.80128 0.80908 0.0
C734 C 0.35677 0.82827 0.79917 0.0
C735 C 0.39126 0.83904 0.90497 0.0
H736 H 0.39975 0.91204 0.85611 0.0
C737 C 0.44219 0.92149 1.00252 0.0
C738 C 0.45666 0.94109 0.97646 0.0
C739 C 0.42809 0.90201 0.98048 0.0
C740 C 0.3981 0.89155 0.86958 0.0
H741 H 0.30184 0.79441 0.87956 0.0
H742 H 0.33708 0.82055 0.9126 0.0
H743 H 0.36995 0.88176 0.81952 0.0
H744 H 0.46938 0.95536 0.90785 0.0
H745 H 0.4454 0.92096 0.86913 0.0
H746 H 0.41938 0.84884 0.9552 0.0
C747 C 0.3373 0.81845 0.87569 0.0
C748 C 0.38098 0.87429 0.84867 0.0
C749 C 0.31705 0.80386 0.85682 0.0
C750 C 0.45778 0.94062 0.92839 0.0
C751 C 0.44409 0.92097 0.90636 0.0
C752 C 0.40867 0.85624 0.92565 0.0
C753 C 0.35716 0.8309 0.84693 0.0
C754 C 0.37716 0.84808 0.86663 0.0
C755 C 0.42867 0.9018 0.93213 0.0
C756 C 0.41193 0.88278 0.90851 0.0
H757 H 0.33633 0.81213 0.7435 0.0
H758 H 0.3719 0.83785 0.77643 0.0
H759 H 0.38866 0.81876 0.91907 0.0
H760 H 0.44094 0.92182 0.03966 0.0
H761 H 0.41605 0.88773 1.00123 0.0
C762 C 0.42025 0.02805 0.10065 0.0
C763 C 0.44592 0.03409 0.08194 0.0
C764 C 0.40312 0.04847 0.11524 0.0
C765 C 0.36496 0.09469 0.12764 0.0
H766 H 0.39589 0.15975 0.17031 0.0
C767 C 0.2973 0.18229 0.18502 0.0
C768 C 0.30627 0.19894 0.21907 0.0
C769 C 0.31433 0.16317 0.16561 0.0
C770 C 0.38669 0.1416 0.15941 0.0
H771 H 0.47437 0.06615 0.06658 0.0
H772 H 0.44414 0.1018 0.08768 0.0
H773 H 0.42492 0.12437 0.14497 0.0
H774 H 0.34076 0.20909 0.25763 0.0
H775 H 0.36939 0.17445 0.22774 0.0
H776 H 0.32675 0.11098 0.14599 0.0
C777 C 0.43706 0.08139 0.09246 0.0
C778 C 0.40355 0.12132 0.1436 0.0
C779 C 0.45437 0.06088 0.07914 0.0
C780 C 0.33281 0.19617 0.23267 0.0
C781 C 0.34955 0.17651 0.21444 0.0
C782 C 0.3481 0.11463 0.14486 0.0
C783 C 0.41116 0.07556 0.11113 0.0
C784 C 0.39301 0.09748 0.12738 0.0
C785 C 0.34066 0.15965 0.18048 0.0
C786 C 0.35866 0.13846 0.16112 0.0
H787 H 0.41352 0.00744 0.10446 0.0
H788 H 0.38381 0.04278 0.13067 0.0
H789 H 0.35579 0.07708 0.11459 0.0
H790 H 0.27713 0.18408 0.17297 0.0
H791 H 0.30673 0.15134 0.13868 0.0
C792 C 0.91978 0.97185 0.58754 0.0
C793 C 0.94698 0.96647 0.57798 0.0
C794 C 0.90221 0.95151 0.60408 0.0
C795 C 0.89291 0.87748 0.61695 0.0
H796 H 0.83968 0.89699 0.71017 0.0
C797 C 0.8173 0.80022 0.7087 0.0
C798 C 0.79097 0.80949 0.71644 0.0
C799 C 0.83783 0.81801 0.69267 0.0
C800 C 0.85419 0.89115 0.68383 0.0
H801 H 0.97728 0.9355 0.57997 0.0
H802 H 0.94649 0.89969 0.60857 0.0
H803 H 0.87221 0.93007 0.68018 0.0
H804 H 0.76534 0.8443 0.71118 0.0
H805 H 0.80073 0.87513 0.6837 0.0
H806 H 0.87457 0.83846 0.62068 0.0
C807 C 0.93861 0.91965 0.60237 0.0
C808 C 0.87295 0.91023 0.66652 0.0
C809 C 0.95628 0.94014 0.58581 0.0
C810 C 0.78553 0.83666 0.70654 0.0
C811 C 0.80593 0.85438 0.69095 0.0
C812 C 0.87403 0.8583 0.63434 0.0
C813 C 0.91132 0.92512 0.6123 0.0
C814 C 0.89236 0.9039 0.63226 0.0
C815 C 0.83247 0.84547 0.68394 0.0
C816 C 0.85407 0.865 0.66752 0.0
H817 H 0.91207 0.99197 0.58235 0.0
H818 H 0.88136 0.95656 0.6105 0.0
H819 H 0.90743 0.87182 0.59048 0.0
H820 H 0.82198 0.77924 0.71487 0.0
H821 H 0.85797 0.81033 0.68781 0.0
C822 C 0.95145 0.08444 0.46214 0.0
C823 C 0.94725 0.05659 0.46441 0.0
C824 C 0.93238 0.10173 0.44327 0.0
C825 C 0.8721 0.10249 0.37084 0.0
H826 H 0.86051 0.17194 0.42303 0.0
C827 C 0.77983 0.16976 0.33569 0.0
C828 C 0.78535 0.19664 0.32301 0.0
C829 C 0.80026 0.15274 0.35068 0.0
C830 C 0.8637 0.15268 0.40788 0.0
H831 H 0.91957 0.02512 0.44897 0.0
H832 H 0.88597 0.05517 0.41761 0.0
H833 H 0.8945 0.14206 0.45411 0.0
H834 H 0.81604 0.22736 0.31889 0.0
H835 H 0.85169 0.19773 0.34572 0.0
H836 H 0.84047 0.11302 0.3257 0.0
C837 C 0.9043 0.06375 0.42912 0.0
C838 C 0.88328 0.13554 0.42552 0.0
C839 C 0.92354 0.04644 0.44744 0.0
C840 C 0.81141 0.20653 0.32726 0.0
C841 C 0.83173 0.18965 0.34298 0.0
C842 C 0.85223 0.1195 0.3537 0.0
C843 C 0.90844 0.09166 0.42665 0.0
C844 C 0.88777 0.11015 0.40731 0.0
C845 C 0.82639 0.16256 0.35467 0.0
C846 C 0.84782 0.14474 0.3721 0.0
H847 H 0.96965 0.09291 0.47445 0.0
H848 H 0.93663 0.123 0.44127 0.0
H849 H 0.87526 0.08341 0.35515 0.0
H850 H 0.75976 0.16186 0.33353 0.0
H851 H 0.79553 0.13203 0.36003 0.0
C852 C 0.66936 0.19988 0.23833 0.0
C853 C 0.69239 0.20924 0.21383 0.0
C854 C 0.65012 0.18549 0.21624 0.0
C855 C 0.64568 0.14221 0.11964 0.0
H856 H 0.56907 0.14716 0.14489 0.0
C857 C 0.57423 0.05695 0.08668 0.0
C858 C 0.55036 0.06356 0.06514 0.0
C859 C 0.59067 0.07704 0.10143 0.0
C860 C 0.59041 0.14582 0.13717 0.0
H861 H 0.71269 0.21265 0.14659 0.0
H862 H 0.67917 0.18757 0.10801 0.0
H863 H 0.59899 0.17999 0.17621 0.0
H864 H 0.52454 0.09629 0.04311 0.0
H865 H 0.5536 0.13147 0.06865 0.0
H866 H 0.63723 0.108 0.08101 0.0
C867 C 0.67621 0.1908 0.14444 0.0
C868 C 0.60746 0.16439 0.15534 0.0
C869 C 0.69544 0.20501 0.16657 0.0
C870 C 0.54304 0.09061 0.05905 0.0
C871 C 0.55948 0.11073 0.07397 0.0
C872 C 0.62868 0.12369 0.10163 0.0
C873 C 0.65369 0.18042 0.16929 0.0
C874 C 0.63525 0.16247 0.14718 0.0
C875 C 0.58346 0.10405 0.09505 0.0
C876 C 0.601 0.12507 0.11091 0.0
H877 H 0.66669 0.20268 0.27474 0.0
H878 H 0.63306 0.17739 0.2363 0.0
H879 H 0.66706 0.14009 0.11327 0.0
H880 H 0.58033 0.0363 0.09204 0.0
H881 H 0.60891 0.07144 0.1183 0.0
C882 C 0.67173 0.80408 0.83301 0.0
C883 C 0.69948 0.80877 0.83059 0.0
C884 C 0.65414 0.82294 0.85165 0.0
C885 C 0.65248 0.88361 0.9231 0.0
H886 H 0.58304 0.89413 0.8703 0.0
C887 C 0.58454 0.9758 0.95445 0.0
C888 C 0.55767 0.97025 0.96702 0.0
C889 C 0.60172 0.95526 0.94058 0.0
C890 C 0.60229 0.89123 0.88562 0.0
H891 H 0.73048 0.83709 0.84561 0.0
H892 H 0.69992 0.8703 0.87654 0.0
H893 H 0.61328 0.8602 0.84015 0.0
H894 H 0.52717 0.93936 0.97216 0.0
H895 H 0.5571 0.9035 0.94737 0.0
H896 H 0.6416 0.91549 0.96742 0.0
C897 C 0.69164 0.85176 0.86532 0.0
C898 C 0.61963 0.87168 0.86852 0.0
C899 C 0.70924 0.83274 0.84723 0.0
C900 C 0.54799 0.94402 0.96396 0.0
C901 C 0.56504 0.92358 0.94934 0.0
C902 C 0.63527 0.90344 0.93969 0.0
C903 C 0.66382 0.84714 0.86791 0.0
C904 C 0.64504 0.86761 0.8869 0.0
C905 C 0.59209 0.92899 0.93762 0.0
C906 C 0.61005 0.90747 0.92103 0.0
H907 H 0.66357 0.78566 0.82098 0.0
H908 H 0.63295 0.81834 0.85375 0.0
H909 H 0.67158 0.88077 0.93892 0.0
H910 H 0.59228 0.996 0.95572 0.0
H911 H 0.62241 0.96003 0.93117 0.0
C912 C 0.58725 0.53443 0.95624 0.0
C913 C 0.56005 0.54001 0.9653 0.0
C914 C 0.60507 0.55465 0.94013 0.0
C915 C 0.61491 0.62859 0.92841 0.0
H916 H 0.66855 0.60937 0.83567 0.0
C917 C 0.69086 0.70641 0.84045 0.0
C918 C 0.71721 0.69729 0.83242 0.0
C919 C 0.6703 0.68839 0.8553 0.0
C920 C 0.65393 0.61513 0.8619 0.0
H921 H 0.52999 0.5712 0.96271 0.0
H922 H 0.56121 0.60681 0.93494 0.0
H923 H 0.63577 0.57627 0.86471 0.0
H924 H 0.74287 0.66247 0.83598 0.0
H925 H 0.70741 0.63117 0.86148 0.0
H926 H 0.63338 0.66751 0.92568 0.0
C927 C 0.5689 0.58679 0.94121 0.0
C928 C 0.63503 0.59604 0.87865 0.0
C929 C 0.55098 0.56641 0.95732 0.0
C930 C 0.72265 0.66998 0.84074 0.0
C931 C 0.7022 0.65201 0.85522 0.0
C932 C 0.63394 0.64777 0.91165 0.0
C933 C 0.59621 0.58113 0.93189 0.0
C934 C 0.61543 0.60228 0.91265 0.0
C935 C 0.67565 0.66083 0.8627 0.0
C936 C 0.65403 0.64119 0.8786 0.0
H937 H 0.59477 0.51423 0.96151 0.0
H938 H 0.62592 0.54947 0.9341 0.0
H939 H 0.60027 0.63418 0.95474 0.0
H940 H 0.68618 0.72748 0.8357 0.0
H941 H 0.65018 0.69603 0.86049 0.0
C942 C 0.72873 0.33638 0.1974 0.0
C943 C 0.72321 0.30941 0.20942 0.0
C944 C 0.7082 0.35365 0.18363 0.0
C945 C 0.64399 0.35439 0.12866 0.0
H946 H 0.63305 0.42311 0.18367 0.0
C947 C 0.5552 0.42256 0.07993 0.0
C948 C 0.55932 0.45041 0.07782 0.0
C949 C 0.57457 0.40525 0.09779 0.0
C950 C 0.63603 0.40419 0.16737 0.0
H951 H 0.69236 0.27886 0.21335 0.0
H952 H 0.65658 0.30889 0.18887 0.0
H953 H 0.66836 0.39334 0.21084 0.0
H954 H 0.58713 0.4819 0.09272 0.0
H955 H 0.62122 0.45182 0.12238 0.0
H956 H 0.61247 0.36531 0.08411 0.0
C957 C 0.67661 0.31685 0.19121 0.0
C958 C 0.6562 0.3871 0.18318 0.0
C959 C 0.69703 0.29972 0.20568 0.0
C960 C 0.58322 0.46056 0.09413 0.0
C961 C 0.60275 0.44324 0.11146 0.0
C962 C 0.6241 0.3716 0.11236 0.0
C963 C 0.68196 0.344 0.18019 0.0
C964 C 0.66037 0.36204 0.16396 0.0
C965 C 0.59874 0.41531 0.11355 0.0
C966 C 0.61979 0.39678 0.13145 0.0
H967 H 0.74888 0.34415 0.19914 0.0
H968 H 0.71293 0.37442 0.17476 0.0
H969 H 0.64699 0.33528 0.11288 0.0
H970 H 0.53686 0.41409 0.06814 0.0
H971 H 0.57042 0.38396 0.09959 0.0
C972 C 0.95703 0.44163 0.42494 0.0
C973 C 0.95659 0.44162 0.47306 0.0
C974 C 0.9431 0.42212 0.40293 0.0
C975 C 0.90897 0.35676 0.42236 0.0
H976 H 0.8675 0.3823 0.31955 0.0
C977 C 0.81702 0.3026 0.35866 0.0
C978 C 0.81567 0.30038 0.31098 0.0
C979 C 0.83724 0.31772 0.37652 0.0
C980 C 0.87929 0.37484 0.34777 0.0
H981 H 0.94139 0.42191 0.53623 0.0
H982 H 0.91638 0.38799 0.49797 0.0
H983 H 0.89779 0.41281 0.35463 0.0
H984 H 0.8334 0.31261 0.24445 0.0
H985 H 0.86896 0.33907 0.2756 0.0
H986 H 0.88937 0.31903 0.41641 0.0
C987 C 0.92812 0.40247 0.47713 0.0
C988 C 0.89667 0.39223 0.36778 0.0
C989 C 0.94235 0.42184 0.49909 0.0
C990 C 0.83457 0.31352 0.2813 0.0
C991 C 0.85465 0.32883 0.29908 0.0
C992 C 0.89134 0.33943 0.40258 0.0
C993 C 0.92819 0.40259 0.42882 0.0
C994 C 0.91144 0.38345 0.40559 0.0
C995 C 0.85608 0.33104 0.34679 0.0
C996 C 0.8762 0.34848 0.36551 0.0
H997 H 0.96834 0.45659 0.40438 0.0
H998 H 0.94388 0.42242 0.36568 0.0
H999 H 0.92043 0.34937 0.45103 0.0
H1000 H 0.8026 0.29247 0.38208 0.0
H1001 H 0.8378 0.31949 0.41344 0.0
C1002 C 0.80471 0.68925 0.67621 0.0
C1003 C 0.80609 0.69501 0.72294 0.0
C1004 C 0.82096 0.66936 0.65721 0.0
C1005 C 0.85756 0.60798 0.68869 0.0
H1006 H 0.89794 0.62131 0.57347 0.0
C1007 C 0.91683 0.52482 0.59635 0.0
C1008 C 0.94319 0.53149 0.5818 0.0
C1009 C 0.89907 0.54464 0.61122 0.0
C1010 C 0.88675 0.61733 0.60566 0.0
H1011 H 0.82474 0.68361 0.78655 0.0
H1012 H 0.85321 0.64911 0.75365 0.0
H1013 H 0.86896 0.65644 0.60432 0.0
H1014 H 0.97207 0.56384 0.57407 0.0
H1015 H 0.94095 0.59852 0.59882 0.0
H1016 H 0.87541 0.56896 0.69023 0.0
C1017 C 0.83977 0.66016 0.73155 0.0
C1018 C 0.87005 0.63734 0.62314 0.0
C1019 C 0.82377 0.68024 0.75033 0.0
C1020 C 0.95164 0.55823 0.58341 0.0
C1021 C 0.93383 0.57809 0.59779 0.0
C1022 C 0.87397 0.58788 0.67094 0.0
C1023 C 0.83858 0.65449 0.68478 0.0
C1024 C 0.8555 0.63297 0.66511 0.0
C1025 C 0.90739 0.57149 0.61205 0.0
C1026 C 0.88894 0.59242 0.62949 0.0
H1027 H 0.7912 0.70028 0.65423 0.0
H1028 H 0.81943 0.66529 0.62114 0.0
H1029 H 0.8464 0.60393 0.72087 0.0
H1030 H 0.91 0.50425 0.59622 0.0
H1031 H 0.8788 0.53897 0.62203 0.0
C1032 C 0.31591 0.30188 0.20936 0.0
C1033 C 0.28954 0.31115 0.2166 0.0
C1034 C 0.33637 0.31951 0.19247 0.0
C1035 C 0.34586 0.38481 0.12686 0.0
H1036 H 0.41717 0.38397 0.17458 0.0
C1037 C 0.41947 0.47253 0.08733 0.0
C1038 C 0.4468 0.46716 0.07928 0.0
C1039 C 0.40157 0.45208 0.10214 0.0
C1040 C 0.39748 0.38429 0.16036 0.0
H1041 H 0.26393 0.34595 0.21085 0.0
H1042 H 0.29927 0.37655 0.1821 0.0
H1043 H 0.38385 0.35108 0.20459 0.0
H1044 H 0.47708 0.43623 0.08311 0.0
H1045 H 0.44575 0.40022 0.10861 0.0
H1046 H 0.35921 0.41792 0.08284 0.0
C1047 C 0.30438 0.35576 0.1892 0.0
C1048 C 0.37831 0.36538 0.17766 0.0
C1049 C 0.28408 0.33825 0.20607 0.0
C1050 C 0.456 0.44086 0.08777 0.0
C1051 C 0.43805 0.4203 0.10298 0.0
C1052 C 0.36493 0.4036 0.10962 0.0
C1053 C 0.33082 0.3467 0.18165 0.0
C1054 C 0.35204 0.36565 0.16167 0.0
C1055 C 0.41049 0.42559 0.11021 0.0
C1056 C 0.39093 0.404 0.12657 0.0
H1057 H 0.32062 0.28095 0.21604 0.0
H1058 H 0.35639 0.31167 0.18683 0.0
H1059 H 0.32614 0.38533 0.11272 0.0
H1060 H 0.41188 0.4927 0.08213 0.0
H1061 H 0.38072 0.45723 0.10819 0.0
C1062 C 0.42428 0.54738 0.94868 0.0
C1063 C 0.44805 0.55732 0.96577 0.0
C1064 C 0.40533 0.56484 0.92986 0.0
C1065 C 0.3853 0.63696 0.92469 0.0
H1066 H 0.34217 0.6142 0.82546 0.0
C1067 C 0.3136 0.70787 0.82559 0.0
C1068 C 0.28737 0.69817 0.8227 0.0
C1069 C 0.33398 0.69095 0.84102 0.0
C1070 C 0.35404 0.62075 0.85326 0.0
H1071 H 0.47085 0.59342 0.97555 0.0
H1072 H 0.43836 0.62376 0.94147 0.0
H1073 H 0.37663 0.5844 0.85549 0.0
H1074 H 0.26159 0.66365 0.83497 0.0
H1075 H 0.29743 0.63375 0.86086 0.0
H1076 H 0.36295 0.67361 0.9214 0.0
C1077 C 0.43382 0.60255 0.94376 0.0
C1078 C 0.37371 0.60363 0.87075 0.0
C1079 C 0.45259 0.58511 0.96314 0.0
C1080 C 0.28178 0.6714 0.83614 0.0
C1081 C 0.30225 0.65435 0.85078 0.0
C1082 C 0.36593 0.65421 0.90667 0.0
C1083 C 0.40982 0.5927 0.92699 0.0
C1084 C 0.38947 0.61135 0.9071 0.0
C1085 C 0.32851 0.664 0.85365 0.0
C1086 C 0.34992 0.64617 0.87113 0.0
H1087 H 0.42004 0.52611 0.95049 0.0
H1088 H 0.38694 0.55642 0.9183 0.0
H1089 H 0.39658 0.64354 0.95316 0.0
H1090 H 0.3183 0.72861 0.81658 0.0
H1091 H 0.35406 0.69889 0.8429 0.0
C1092 C 0.16667 0.71234 0.73123 0.0
C1093 C 0.19377 0.70637 0.72178 0.0
C1094 C 0.14665 0.69576 0.71635 0.0
C1095 C 0.13674 0.62726 0.67877 0.0
H1096 H 0.07114 0.65606 0.6298 0.0
C1097 C 0.04677 0.58957 0.56276 0.0
C1098 C 0.04439 0.56336 0.58163 0.0
C1099 C 0.06231 0.60838 0.58372 0.0
C1100 C 0.08943 0.64777 0.64316 0.0
H1101 H 0.22112 0.67913 0.68743 0.0
H1102 H 0.18624 0.65083 0.66023 0.0
H1103 H 0.10477 0.68652 0.65663 0.0
H1104 H 0.05418 0.5371 0.63993 0.0
H1105 H 0.07996 0.57006 0.67746 0.0
H1106 H 0.12245 0.58877 0.66305 0.0
C1107 C 0.18047 0.66774 0.68054 0.0
C1108 C 0.10851 0.66516 0.65902 0.0
C1109 C 0.20045 0.68409 0.69585 0.0
C1110 C 0.05622 0.55686 0.62358 0.0
C1111 C 0.07112 0.57577 0.64513 0.0
C1112 C 0.11794 0.60999 0.66242 0.0
C1113 C 0.1534 0.67318 0.69122 0.0
C1114 C 0.13247 0.65502 0.67646 0.0
C1115 C 0.07511 0.60143 0.62465 0.0
C1116 C 0.09414 0.62002 0.64421 0.0
H1117 H 0.16085 0.72977 0.75011 0.0
H1118 H 0.12594 0.7004 0.72515 0.0
H1119 H 0.1548 0.61884 0.69284 0.0
H1120 H 0.03728 0.59543 0.5313 0.0
H1121 H 0.06503 0.62799 0.56696 0.0
C1122 C 0.21002 0.33527 0.34608 0.0
C1123 C 0.1996 0.31142 0.32995 0.0
C1124 C 0.19295 0.35477 0.36404 0.0
C1125 C 0.12682 0.3648 0.41906 0.0
H1126 H 0.13532 0.43852 0.374 0.0
C1127 C 0.04946 0.44655 0.46484 0.0
C1128 C 0.05875 0.47266 0.47062 0.0
C1129 C 0.06693 0.42671 0.44928 0.0
C1130 C 0.13291 0.41815 0.38768 0.0
H1131 H 0.16307 0.28914 0.32086 0.0
H1132 H 0.13328 0.32314 0.35288 0.0
H1133 H 0.16525 0.40419 0.34442 0.0
H1134 H 0.09317 0.49886 0.46322 0.0
H1135 H 0.12409 0.46409 0.43765 0.0
H1136 H 0.09494 0.37871 0.46317 0.0
C1137 C 0.15467 0.32673 0.35134 0.0
C1138 C 0.15001 0.39846 0.37046 0.0
C1139 C 0.17173 0.30736 0.33274 0.0
C1140 C 0.08568 0.47874 0.45965 0.0
C1141 C 0.10328 0.45884 0.44462 0.0
C1142 C 0.10994 0.38457 0.43683 0.0
C1143 C 0.16511 0.35069 0.36695 0.0
C1144 C 0.14706 0.37156 0.38575 0.0
C1145 C 0.09412 0.43255 0.43894 0.0
C1146 C 0.11263 0.41152 0.42117 0.0
H1147 H 0.23137 0.33906 0.34439 0.0
H1148 H 0.20155 0.37297 0.3761 0.0
H1149 H 0.12432 0.34426 0.43187 0.0
H1150 H 0.02857 0.44154 0.47155 0.0
H1151 H 0.05893 0.40694 0.44442 0.0
C1152 C 0.0197 0.01065 0.84351 0.0
C1153 C 0.01186 0.03649 0.82847 0.0
C1154 C 0.01687 1.00248 0.89011 0.0
C1155 C 0.00967 0.03003 1.0066 0.0
H1156 H 0.98788 0.95767 0.04368 0.0
C1157 C 0.98488 0.99697 0.19729 0.0
C1158 C 0.99274 0.97108 0.21202 0.0
C1159 C 0.98752 0.00525 0.15071 0.0
C1160 C 0.99431 0.97788 0.03397 0.0
H1161 H 0.99374 0.07352 0.85059 0.0
H1162 H 0.98873 0.0593 0.93146 0.0
H1163 H 0.99127 0.97102 0.96219 0.0
H1164 H 0.01071 0.93409 0.1894 0.0
H1165 H 0.01543 0.94851 0.10861 0.0
H1166 H 0.01273 0.03689 0.07838 0.0
C1167 C 0.99766 0.04552 0.90752 0.0
C1168 C 0.99624 0.98554 0.98714 0.0
C1169 C 1.00049 0.05367 0.86104 0.0
C1170 C 0.00394 0.95397 0.17919 0.0
C1171 C 0.0066 0.96224 0.13275 0.0
C1172 C 0.00775 0.02238 0.05344 0.0
C1173 C 0.00609 0.01994 0.92283 0.0
C1174 C 0.00395 0.01172 0.97278 0.0
C1175 C 0.99814 0.98787 0.11772 0.0
C1176 C 1.00008 0.99617 0.06779 0.0
H1177 H 0.02879 0.997 0.8195 0.0
H1178 H 0.02383 0.98273 0.90066 0.0
H1179 H 0.0161 0.05024 0.99687 0.0
H1180 H 0.97593 0.01057 0.22153 0.0
H1181 H 0.98056 0.02505 0.14039 0.0
C1182 C 0.25684 0.73293 0.44079 0.0
C1183 C 0.28369 0.73545 0.45275 0.0
C1184 C 0.24951 0.73753 0.39516 0.0
C1185 C 0.2782 0.73983 0.27545 0.0
H1186 H 0.21172 0.77575 0.24713 0.0
C1187 C 0.25146 0.77258 0.08919 0.0
C1188 C 0.22464 0.76982 0.07719 0.0
C1189 C 0.25883 0.76794 0.13478 0.0
C1190 C 0.23022 0.7654 0.25442 0.0
H1191 H 0.32365 0.74595 0.42631 0.0
H1192 H 0.31089 0.7541 0.34709 0.0
H1193 H 0.22393 0.76924 0.32706 0.0
H1194 H 0.18479 0.75884 0.10359 0.0
H1195 H 0.19761 0.7507 0.18277 0.0
H1196 H 0.2845 0.73603 0.20279 0.0
C1197 C 0.29556 0.74794 0.37267 0.0
C1198 C 0.23722 0.76167 0.30033 0.0
C1199 C 0.30288 0.74332 0.41818 0.0
C1200 C 0.20553 0.76167 0.11172 0.0
C1201 C 0.21288 0.75704 0.15721 0.0
C1202 C 0.2712 0.74358 0.22954 0.0
C1203 C 0.26884 0.74483 0.36041 0.0
C1204 C 0.26131 0.74885 0.31148 0.0
C1205 C 0.23956 0.76039 0.16949 0.0
C1206 C 0.2471 0.75639 0.21839 0.0
H1207 H 0.2416 0.72662 0.46643 0.0
H1208 H 0.22879 0.73467 0.38694 0.0
H1209 H 0.29669 0.72947 0.28272 0.0
H1210 H 0.26665 0.77911 0.0636 0.0
H1211 H 0.27952 0.77097 0.14304 0.0
C1212 C 0.49419 0.05097 0.67734 0.0
C1213 C 0.4862 0.03174 0.7118 0.0
C1214 C 0.49908 0.04369 0.6319 0.0
C1215 C 0.51335 0.98556 0.55952 0.0
H1216 H 0.48704 0.03259 0.46205 0.0
C1217 C 0.51343 0.95391 0.37091 0.0
C1218 C 0.52105 0.97317 0.33627 0.0
C1219 C 0.5089 0.96117 0.41644 0.0
C1220 C 0.4948 0.01937 0.48877 0.0
H1221 H 0.47756 0.98958 0.72538 0.0
H1222 H 0.48614 0.97682 0.64601 0.0
H1223 H 0.48047 0.04468 0.54199 0.0
H1224 H 0.52953 0.01534 0.32251 0.0
H1225 H 0.52162 0.02807 0.40203 0.0
H1226 H 0.52767 0.96024 0.50629 0.0
C1227 C 0.48884 0.99756 0.65428 0.0
C1228 C 0.49104 0.02631 0.53468 0.0
C1229 C 0.48394 0.00486 0.69983 0.0
C1230 C 0.52342 1.00004 0.3482 0.0
C1231 C 0.51889 0.00733 0.39384 0.0
C1232 C 0.51712 0.97862 0.5136 0.0
C1233 C 0.49615 0.01695 0.6196 0.0
C1234 C 0.50027 0.0095 0.57069 0.0
C1235 C 0.51184 0.98792 0.42866 0.0
C1236 C 0.50786 0.99541 0.47759 0.0
H1237 H 0.49665 0.07177 0.68548 0.0
H1238 H 0.50525 0.05906 0.60638 0.0
H1239 H 0.52107 0.97233 0.58625 0.0
H1240 H 0.51092 0.93311 0.36282 0.0
H1241 H 0.50293 0.94579 0.44208 0.0
C1242 C 0.23572 0.2637 0.95138 0.0
C1243 C 0.21998 0.24164 0.96727 0.0
C1244 C 0.24362 0.26693 0.90473 0.0
C1245 C 0.22537 0.24589 0.78911 0.0
H1246 H 0.29601 0.27262 0.75172 0.0
C1247 C 0.266 0.24808 0.59912 0.0
C1248 C 0.28169 0.27024 0.58357 0.0
C1249 C 0.25796 0.24468 0.6457 0.0
C1250 C 0.27607 0.26543 0.76151 0.0
H1251 H 0.20126 0.20508 0.94669 0.0
H1252 H 0.21509 0.21065 0.86573 0.0
H1253 H 0.28375 0.26632 0.83331 0.0
H1254 H 0.30008 0.30686 0.6046 0.0
H1255 H 0.28603 0.30102 0.6854 0.0
H1256 H 0.2177 0.24498 0.71728 0.0
C1257 C 0.22082 0.22581 0.88902 0.0
C1258 C 0.26905 0.26181 0.80839 0.0
C1259 C 0.21293 0.22259 0.93554 0.0
C1260 C 0.28848 0.28926 0.6155 0.0
C1261 C 0.28046 0.28589 0.66193 0.0
C1262 C 0.2324 0.2495 0.74222 0.0
C1263 C 0.23603 0.24817 0.87284 0.0
C1264 C 0.2436 0.25199 0.82285 0.0
C1265 C 0.26538 0.26339 0.67782 0.0
C1266 C 0.25783 0.25937 0.72777 0.0
H1267 H 0.24127 0.2789 0.97473 0.0
H1268 H 0.2551 0.28454 0.89348 0.0
H1269 H 0.20543 0.23871 0.79891 0.0
H1270 H 0.26063 0.23291 0.57558 0.0
H1271 H 0.24655 0.22699 0.65673 0.0
C1272 C 0.80428 0.2451 0.91807 0.0
C1273 C 0.78549 0.23692 0.95309 0.0
C1274 C 0.79659 0.24919 0.87266 0.0
C1275 C 0.7376 0.26115 0.80139 0.0
H1276 H 0.78464 0.23559 0.70347 0.0
C1277 C 0.70481 0.25973 0.61352 0.0
C1278 C 0.72369 0.26784 0.57858 0.0
C1279 C 0.71245 0.25545 0.65892 0.0
C1280 C 0.7714 0.24312 0.73032 0.0
H1281 H 0.74372 0.22693 0.96765 0.0
H1282 H 0.73026 0.23413 0.88836 0.0
H1283 H 0.79746 0.22978 0.78319 0.0
H1284 H 0.76553 0.27749 0.56414 0.0
H1285 H 0.7789 0.27001 0.64342 0.0
H1286 H 0.71155 0.27452 0.74852 0.0
C1287 C 0.75095 0.23762 0.89616 0.0
C1288 C 0.77875 0.23979 0.77609 0.0
C1289 C 0.75865 0.23352 0.94167 0.0
C1290 C 0.75054 0.27096 0.59007 0.0
C1291 C 0.75819 0.26669 0.63557 0.0
C1292 C 0.73025 0.26448 0.75561 0.0
C1293 C 0.76988 0.24525 0.86099 0.0
C1294 C 0.76196 0.24879 0.81224 0.0
C1295 C 0.73918 0.25915 0.67068 0.0
C1296 C 0.74704 0.2555 0.71945 0.0
H1297 H 0.82501 0.24841 0.92576 0.0
H1298 H 0.8116 0.2556 0.84668 0.0
H1299 H 0.72436 0.26867 0.82825 0.0
H1300 H 0.68405 0.25664 0.60576 0.0
H1301 H 0.69737 0.2491 0.68482 0.0
C1302 C 0.73643 0.76311 0.45166 0.0
C1303 C 0.721 0.74083 0.46748 0.0
C1304 C 0.74432 0.76647 0.40504 0.0
C1305 C 0.72655 0.74502 0.28939 0.0
H1306 H 0.79669 0.77311 0.25214 0.0
C1307 C 0.7675 0.74767 0.09968 0.0
C1308 C 0.78251 0.77027 0.084 0.0
C1309 C 0.75952 0.74416 0.14625 0.0
C1310 C 0.7769 0.76552 0.26192 0.0
H1311 H 0.70282 0.70401 0.44688 0.0
H1312 H 0.71668 0.70974 0.36595 0.0
H1313 H 0.78447 0.76662 0.33372 0.0
H1314 H 0.79978 0.80749 0.10484 0.0
H1315 H 0.78591 0.80139 0.18568 0.0
H1316 H 0.71902 0.74388 0.21754 0.0
C1317 C 0.72216 0.725 0.38926 0.0
C1318 C 0.76989 0.7618 0.30877 0.0
C1319 C 0.71425 0.72168 0.43575 0.0
C1320 C 0.78873 0.78957 0.11583 0.0
C1321 C 0.7808 0.78605 0.16227 0.0
C1322 C 0.73358 0.74871 0.24253 0.0
C1323 C 0.73705 0.74758 0.37313 0.0
C1324 C 0.74461 0.75151 0.32317 0.0
C1325 C 0.76636 0.76317 0.17824 0.0
C1326 C 0.75883 0.75906 0.22816 0.0
H1327 H 0.74174 0.77839 0.47505 0.0
H1328 H 0.75554 0.78425 0.39383 0.0
H1329 H 0.70674 0.73748 0.29914 0.0
H1330 H 0.76259 0.73229 0.07624 0.0
H1331 H 0.74862 0.72617 0.15739 0.0
C1332 C 0.51122 0.48857 0.69861 0.0
C1333 C 0.48927 0.47263 0.7143 0.0
C1334 C 0.51446 0.49663 0.65201 0.0
C1335 C 0.4937 0.47842 0.53614 0.0
H1336 H 0.51994 0.54931 0.49895 0.0
C1337 C 0.49544 0.5191 0.34617 0.0
C1338 C 0.51738 0.53506 0.33051 0.0
C1339 C 0.49218 0.51105 0.39278 0.0
C1340 C 0.51289 0.5293 0.50868 0.0
H1341 H 0.45287 0.45376 0.69338 0.0
H1342 H 0.45844 0.46784 0.61252 0.0
H1343 H 0.51375 0.53689 0.58052 0.0
H1344 H 0.55374 0.55399 0.35147 0.0
H1345 H 0.54814 0.53993 0.43233 0.0
H1346 H 0.49284 0.47084 0.4643 0.0
C1347 C 0.47353 0.47361 0.63593 0.0
C1348 C 0.50933 0.52218 0.55555 0.0
C1349 C 0.47031 0.46557 0.68241 0.0
C1350 C 0.53631 0.54216 0.36242 0.0
C1351 C 0.53307 0.53413 0.4089 0.0
C1352 C 0.49726 0.48554 0.48926 0.0
C1353 C 0.49581 0.48899 0.61994 0.0
C1354 C 0.49966 0.49665 0.56996 0.0
C1355 C 0.51081 0.51873 0.42487 0.0
C1356 C 0.50693 0.51107 0.47486 0.0
H1357 H 0.52635 0.49415 0.72208 0.0
H1358 H 0.532 0.50825 0.64092 0.0
H1359 H 0.48665 0.45842 0.54588 0.0
H1360 H 0.48033 0.51349 0.32268 0.0
H1361 H 0.47465 0.49942 0.40385 0.0
C1362 C 0.99495 0.48282 0.8527 0.0
C1363 C 0.01915 0.47074 0.83854 0.0
C1364 C 0.99064 0.49028 0.8983 0.0
C1365 C 0.0147 0.4763 1.01599 0.0
H1366 H 0.97732 0.54205 0.04377 0.0
C1367 C 0.00692 0.5174 0.19995 0.0
C1368 C 0.98264 0.52946 0.21377 0.0
C1369 C 0.01134 0.50969 0.1545 0.0
C1370 C 0.98752 0.52345 0.03669 0.0
H1371 H 0.05823 0.45806 0.86097 0.0
H1372 H 0.0508 0.47116 0.94013 0.0
H1373 H 0.98517 0.5304 0.96388 0.0
H1374 H 0.94349 0.54166 0.19101 0.0
H1375 H 0.95112 0.52817 0.11215 0.0
H1376 H 0.01708 0.46938 0.08884 0.0
C1377 C 0.03486 0.47432 0.91635 0.0
C1378 C 0.99203 0.51677 0.99079 0.0
C1379 C 0.03914 0.46685 0.87087 0.0
C1380 C 0.96265 0.53294 0.18135 0.0
C1381 C 0.96704 0.52524 0.13604 0.0
C1382 C 0.01021 0.483 0.0619 0.0
C1383 C 0.01046 0.4859 0.93085 0.0
C1384 C 0.00567 0.4931 0.97979 0.0
C1385 C 0.99156 0.51381 0.1218 0.0
C1386 C 0.99651 0.50664 0.07289 0.0
H1387 H 0.97901 0.48585 0.82886 0.0
H1388 H 0.97149 0.49888 0.90829 0.0
H1389 H 0.0249 0.4577 1.00891 0.0
H1390 H 0.02284 0.51466 0.22389 0.0
H1391 H 0.03056 0.50117 0.14468 0.0
loop_
_geom_bond_atom_site_label_1
_geom_bond_atom_site_label_2
_geom_bond_distance
_geom_bond_site_symmetry_2
_ccdc_geom_bond_type
Eu0 N31 2.648 1_455 S
Eu0 N38 2.609 1_455 S
Eu0 O44 2.563 . S
Eu0 O45 2.615 1_565 S
Eu0 O47 2.332 1_465 S
Eu0 O48 2.570 1_565 S
Eu0 O49 2.417 1_455 S
Eu0 O51 2.377 1_455 S
Eu0 O52 2.439 . S
Eu0 C64 2.849 . S
C1 C4 1.429 . S
C1 C5 1.411 . S
C1 N8 1.377 . S
C2 C4 1.420 . S
C2 C6 1.423 . S
C2 C14 1.392 . S
C3 C5 1.420 . S
C3 C6 1.351 . S
C3 H26 0.931 . S
C4 C1 1.429 . S
C4 C2 1.420 . S
C4 N12 1.362 . S
C5 C1 1.411 . S
C5 C3 1.420 . S
C5 C10 1.395 . S
C6 C2 1.423 . S
C6 C3 1.351 . S
C6 H18 0.930 . S
C7 C9 1.400 . S
C7 C10 1.386 1_655 S
C7 H19 0.930 . S
N8 C1 1.377 . S
N8 C9 1.321 1_455 S
N8 Eu11 2.609 1_455 S
C9 C7 1.400 . S
C9 N8 1.321 1_655 S
C9 H16 0.930 . S
C10 C5 1.395 . S
C10 C7 1.386 1_455 S
C10 H29 0.931 . S
Eu11 N8 2.609 1_655 S
Eu11 N12 2.657 1_655 S
Eu11 O45 2.381 1_655 S
Eu11 O46 2.432 . S
Eu11 O50 2.558 . S
Eu11 O51 2.612 1_545 S
Eu11 O53 2.339 1_645 S
Eu11 O54 2.563 1_545 S
Eu11 O55 2.419 1_655 S
Eu11 C75 2.847 . S
N12 C4 1.362 . S
N12 Eu11 2.657 1_455 S
N12 C13 1.334 . S
C13 N12 1.334 . S
C13 C15 1.413 . S
C13 H20 0.929 . S
C14 C2 1.392 . S
C14 C15 1.367 . S
C14 H22 0.930 . S
C15 C13 1.413 . S
C15 C14 1.367 . S
C15 H17 0.930 . S
H16 C9 0.930 . S
H17 C15 0.930 . S
H18 C6 0.930 . S
H19 C7 0.930 . S
H20 C13 0.929 . S
H21 C35 0.930 . S
H22 C14 0.930 . S
H23 C41 0.930 . S
H24 C32 0.929 . S
H25 C39 0.930 . S
H26 C3 0.931 . S
H27 C33 0.930 . S
H28 C66 0.930 . S
H29 C10 0.931 . S
H30 C65 0.931 . S
N31 Eu0 2.648 1_655 S
N31 C32 1.334 . S
N31 C36 1.362 . S
C32 H24 0.929 . S
C32 N31 1.334 . S
C32 C35 1.413 . S
C33 H27 0.930 . S
C33 C34 1.392 . S
C33 C35 1.367 . S
C34 C33 1.392 . S
C34 C36 1.420 . S
C34 C66 1.423 . S
C35 H21 0.930 . S
C35 C32 1.413 . S
C35 C33 1.367 . S
C36 N31 1.362 . S
C36 C34 1.420 . S
C36 C40 1.429 . S
H37 C42 0.929 . S
N38 Eu0 2.609 1_655 S
N38 C40 1.377 . S
N38 C41 1.321 1_655 S
C39 H25 0.930 . S
C39 C41 1.400 . S
C39 C42 1.348 1_455 S
C40 C36 1.429 . S
C40 N38 1.377 . S
C40 C43 1.411 . S
C41 H23 0.930 . S
C41 N38 1.321 1_455 S
C41 C39 1.400 . S
C42 H37 0.929 . S
C42 C39 1.348 1_655 S
C42 C43 1.434 . S
C43 C40 1.411 . S
C43 C42 1.434 . S
C43 C65 1.420 . S
O44 Eu0 2.563 . S
O44 C64 1.257 . S
O45 Eu0 2.615 1_545 S
O45 Eu11 2.381 1_455 S
O45 C56 1.276 . S
O46 Eu11 2.432 . S
O46 C63 1.264 . S
O47 Eu0 2.332 1_645 S
O47 C63 1.254 . S
O48 Eu0 2.570 1_545 S
O48 C56 1.235 . S
O49 Eu0 2.417 1_655 S
O49 C64 1.249 1_655 S
O50 Eu11 2.558 . S
O50 C75 1.257 . S
O51 Eu0 2.377 1_655 S
O51 Eu11 2.612 1_565 S
O51 C67 1.276 . S
O52 Eu0 2.439 . S
O52 C74 1.264 . S
O53 Eu11 2.339 1_465 S
O53 C74 1.254 . S
O54 Eu11 2.563 1_565 S
O54 C67 1.235 . S
O55 Eu11 2.419 1_455 S
O55 C75 1.249 1_455 S
C56 O45 1.276 . S
C56 O48 1.235 . S
C57 C59 1.393 . S
C57 C61 1.395 . S
C57 C64 1.492 . S
C58 C59 1.392 . S
C58 C60 1.386 . S
C59 C57 1.393 . S
C59 C58 1.392 . S
C59 H76 0.930 1_465 S
C60 C58 1.386 . S
C60 C62 1.395 . S
C60 H77 0.930 . S
C61 C57 1.395 . S
C61 C62 1.379 . S
C61 H78 0.930 . S
C62 C60 1.395 . S
C62 C61 1.379 . S
C62 H79 0.930 . S
C63 O46 1.264 . S
C63 O47 1.254 . S
C64 Eu0 2.849 . S
C64 O44 1.257 . S
C64 O49 1.249 1_455 S
C64 C57 1.492 . S
C65 H30 0.931 . S
C65 C43 1.420 . S
C65 C66 1.351 . S
C66 H28 0.930 . S
C66 C34 1.423 . S
C66 C65 1.351 . S
C67 O51 1.276 . S
C67 O54 1.235 . S
C68 C69 1.393 . S
C68 C72 1.395 . S
C68 C75 1.492 . S
C69 C68 1.393 . S
C69 C70 1.392 . S
C69 H80 0.930 1_645 S
C70 C69 1.392 . S
C70 C71 1.386 . S
C71 C70 1.386 . S
C71 C73 1.395 . S
C71 H81 0.930 . S
C72 C68 1.395 . S
C72 C73 1.379 . S
C72 H82 0.930 . S
C73 C71 1.395 . S
C73 C72 1.379 . S
C73 H83 0.930 . S
C74 O52 1.264 . S
C74 O53 1.254 . S
C75 Eu11 2.847 . S
C75 O50 1.257 . S
C75 O55 1.249 1_655 S
C75 C68 1.492 . S
H76 C59 0.930 1_645 S
H77 C60 0.930 . S
H78 C61 0.930 . S
H79 C62 0.930 . S
H80 C69 0.930 1_465 S
H81 C71 0.930 . S
H82 C72 0.930 . S
H83 C73 0.930 . S
Eu84 N115 2.657 . S
Eu84 N122 2.609 . S
Eu84 O128 2.558 . S
Eu84 O129 2.612 . S
Eu84 O131 2.339 . S
Eu84 O132 2.563 . S
Eu84 O133 2.419 . S
Eu84 O135 2.380 . S
Eu84 O136 2.432 . S
Eu84 C148 2.848 . S
C85 C88 1.429 . S
C85 C89 1.411 . S
C85 N92 1.377 . S
C86 C88 1.420 . S
C86 C90 1.423 . S
C86 C98 1.392 . S
C87 C89 1.420 . S
C87 C90 1.351 . S
C87 H110 0.931 . S
C88 C85 1.429 . S
C88 C86 1.420 . S
C88 N96 1.362 . S
C89 C85 1.411 . S
C89 C87 1.420 . S
C89 C94 1.395 . S
C90 C86 1.423 . S
C90 C87 1.351 . S
C90 H102 0.930 . S
C91 C93 1.400 . S
C91 C94 1.386 . S
C91 H103 0.930 . S
N92 C85 1.377 . S
N92 C93 1.321 . S
N92 Eu95 2.609 . S
C93 C91 1.400 . S
C93 N92 1.321 . S
C93 H100 0.930 . S
C94 C89 1.395 . S
C94 C91 1.386 . S
C94 H113 0.930 . S
Eu95 N92 2.609 . S
Eu95 N96 2.657 . S
Eu95 O129 2.380 . S
Eu95 O130 2.432 . S
Eu95 O134 2.558 . S
Eu95 O135 2.612 . S
Eu95 O137 2.339 . S
Eu95 O138 2.563 . S
Eu95 O139 2.419 . S
Eu95 C159 2.848 . S
N96 C88 1.362 . S
N96 Eu95 2.657 . S
N96 C97 1.334 . S
C97 N96 1.334 . S
C97 C99 1.413 . S
C97 H104 0.929 . S
C98 C86 1.392 . S
C98 C99 1.367 . S
C98 H106 0.930 . S
C99 C97 1.413 . S
C99 C98 1.367 . S
C99 H101 0.930 . S
H100 C93 0.930 . S
H101 C99 0.930 . S
H102 C90 0.930 . S
H103 C91 0.930 . S
H104 C97 0.929 . S
H105 C119 0.930 . S
H106 C98 0.930 . S
H107 C125 0.930 . S
H108 C116 0.929 . S
H109 C123 0.930 . S
H110 C87 0.931 . S
H111 C117 0.930 . S
H112 C150 0.930 . S
H113 C94 0.930 . S
H114 C149 0.931 . S
N115 Eu84 2.657 . S
N115 C116 1.334 . S
N115 C120 1.362 . S
C116 H108 0.929 . S
C116 N115 1.334 . S
C116 C119 1.413 . S
C117 H111 0.930 . S
C117 C118 1.392 . S
C117 C119 1.367 . S
C118 C117 1.392 . S
C118 C120 1.420 . S
C118 C150 1.423 . S
C119 H105 0.930 . S
C119 C116 1.413 . S
C119 C117 1.367 . S
C120 N115 1.362 . S
C120 C118 1.420 . S
C120 C124 1.429 . S
H121 C126 0.930 . S
N122 Eu84 2.609 . S
N122 C124 1.377 . S
N122 C125 1.321 . S
C123 H109 0.930 . S
C123 C125 1.400 . S
C123 C126 1.386 . S
C124 C120 1.429 . S
C124 N122 1.377 . S
C124 C127 1.411 . S
C125 H107 0.930 . S
C125 N122 1.321 . S
C125 C123 1.400 . S
C126 H121 0.930 . S
C126 C123 1.386 . S
C126 C127 1.395 . S
C127 C124 1.411 . S
C127 C126 1.395 . S
C127 C149 1.420 . S
O128 Eu84 2.558 . S
O128 C148 1.257 . S
O129 Eu84 2.612 . S
O129 Eu95 2.380 . S
O129 C140 1.276 . S
O130 Eu95 2.432 . S
O130 C147 1.264 . S
O131 Eu84 2.339 . S
O131 C147 1.254 . S
O132 Eu84 2.563 . S
O132 C140 1.235 . S
O133 Eu84 2.419 . S
O133 C148 1.249 . S
O134 Eu95 2.558 . S
O134 C159 1.257 . S
O135 Eu84 2.380 . S
O135 Eu95 2.612 . S
O135 C151 1.276 . S
O136 Eu84 2.432 . S
O136 C158 1.264 . S
O137 Eu95 2.339 . S
O137 C158 1.254 . S
O138 Eu95 2.563 . S
O138 C151 1.235 . S
O139 Eu95 2.419 . S
O139 C159 1.249 . S
C140 O129 1.276 . S
C140 O132 1.235 . S
C141 C143 1.393 . S
C141 C145 1.395 . S
C141 C148 1.492 . S
C142 C143 1.392 . S
C142 C144 1.386 . S
C143 C141 1.393 . S
C143 C142 1.392 . S
C143 H160 0.930 . S
C144 C142 1.386 . S
C144 C146 1.395 . S
C144 H161 0.930 . S
C145 C141 1.395 . S
C145 C146 1.379 . S
C145 H162 0.930 . S
C146 C144 1.395 . S
C146 C145 1.379 . S
C146 H163 0.930 . S
C147 O130 1.264 . S
C147 O131 1.254 . S
C148 Eu84 2.848 . S
C148 O128 1.257 . S
C148 O133 1.249 . S
C148 C141 1.492 . S
C149 H114 0.931 . S
C149 C127 1.420 . S
C149 C150 1.351 . S
C150 H112 0.930 . S
C150 C118 1.423 . S
C150 C149 1.351 . S
C151 O135 1.276 . S
C151 O138 1.235 . S
C152 C153 1.393 . S
C152 C156 1.395 . S
C152 C159 1.492 . S
C153 C152 1.393 . S
C153 C154 1.392 1_556 S
C153 H164 0.930 . S
C154 C153 1.392 1_554 S
C154 C155 1.386 . S
C155 C154 1.386 . S
C155 C157 1.395 . S
C155 H165 0.930 . S
C156 C152 1.395 . S
C156 C157 1.379 1_556 S
C156 H166 0.930 . S
C157 C155 1.395 . S
C157 C156 1.379 1_554 S
C157 H167 0.930 . S
C158 O136 1.264 . S
C158 O137 1.254 . S
C159 Eu95 2.848 . S
C159 O134 1.257 . S
C159 O139 1.249 . S
C159 C152 1.492 . S
H160 C143 0.930 . S
H161 C144 0.930 . S
H162 C145 0.930 . S
H163 C146 0.930 . S
H164 C153 0.930 . S
H165 C155 0.930 . S
H166 C156 0.930 . S
H167 C157 0.930 . S
Eu168 N199 2.657 . S
Eu168 N206 2.609 . S
Eu168 O212 2.558 . S
Eu168 O213 2.612 1_565 S
Eu168 O215 2.339 1_565 S
Eu168 O216 2.563 1_565 S
Eu168 O217 2.419 . S
Eu168 O219 2.380 1_554 S
Eu168 O220 2.432 . S
Eu168 C232 2.848 . S
C169 C172 1.429 . S
C169 C173 1.411 . S
C169 N176 1.377 . S
C170 C172 1.420 . S
C170 C174 1.423 . S
C170 C182 1.392 . S
C171 C173 1.420 . S
C171 C174 1.351 . S
C171 H194 0.931 . S
C172 C169 1.429 . S
C172 C170 1.420 . S
C172 N180 1.362 . S
C173 C169 1.411 . S
C173 C171 1.420 . S
C173 C178 1.395 . S
C174 C170 1.423 . S
C174 C171 1.351 . S
C174 H186 0.930 . S
C175 C177 1.400 . S
C175 C178 1.386 . S
C175 H187 0.930 . S
N176 C169 1.377 . S
N176 C177 1.321 . S
N176 Eu179 2.609 . S
C177 C175 1.400 . S
C177 N176 1.321 . S
C177 H184 0.930 . S
C178 C173 1.395 . S
C178 C175 1.386 . S
C178 H197 0.930 . S
Eu179 N176 2.609 . S
Eu179 N180 2.657 . S
Eu179 O213 2.380 1_556 S
Eu179 O214 2.432 . S
Eu179 O218 2.558 . S
Eu179 O219 2.612 1_545 S
Eu179 O221 2.339 1_545 S
Eu179 O222 2.563 1_545 S
Eu179 O223 2.419 . S
Eu179 C243 2.848 . S
N180 C172 1.362 . S
N180 Eu179 2.657 . S
N180 C181 1.334 . S
C181 N180 1.334 . S
C181 C183 1.413 . S
C181 H188 0.929 . S
C182 C170 1.392 . S
C182 C183 1.367 . S
C182 H190 0.930 . S
C183 C181 1.413 . S
C183 C182 1.367 . S
C183 H185 0.930 . S
H184 C177 0.930 . S
H185 C183 0.930 . S
H186 C174 0.930 . S
H187 C175 0.930 . S
H188 C181 0.929 . S
H189 C203 0.930 . S
H190 C182 0.930 . S
H191 C209 0.930 . S
H192 C200 0.929 . S
H193 C207 0.930 . S
H194 C171 0.931 . S
H195 C201 0.930 . S
H196 C234 0.930 . S
H197 C178 0.930 . S
H198 C233 0.931 . S
N199 Eu168 2.657 . S
N199 C200 1.334 . S
N199 C204 1.362 . S
C200 H192 0.929 . S
C200 N199 1.334 . S
C200 C203 1.413 . S
C201 H195 0.930 . S
C201 C202 1.392 . S
C201 C203 1.367 . S
C202 C201 1.392 . S
C202 C204 1.420 . S
C202 C234 1.423 . S
C203 H189 0.930 . S
C203 C200 1.413 . S
C203 C201 1.367 . S
C204 N199 1.362 . S
C204 C202 1.420 . S
C204 C208 1.429 . S
H205 C210 0.930 . S
N206 Eu168 2.609 . S
N206 C208 1.377 . S
N206 C209 1.321 . S
C207 H193 0.930 . S
C207 C209 1.400 . S
C207 C210 1.386 . S
C208 C204 1.429 . S
C208 N206 1.377 . S
C208 C211 1.411 . S
C209 H191 0.930 . S
C209 N206 1.321 . S
C209 C207 1.400 . S
C210 H205 0.930 . S
C210 C207 1.386 . S
C210 C211 1.395 . S
C211 C208 1.411 . S
C211 C210 1.395 . S
C211 C233 1.420 . S
O212 Eu168 2.558 . S
O212 C232 1.257 . S
O213 Eu168 2.612 1_545 S
O213 Eu179 2.380 1_554 S
O213 C224 1.276 . S
O214 Eu179 2.432 . S
O214 C231 1.264 1_556 S
O215 Eu168 2.339 1_545 S
O215 C231 1.254 . S
O216 Eu168 2.563 1_545 S
O216 C224 1.235 . S
O217 Eu168 2.419 . S
O217 C232 1.249 . S
O218 Eu179 2.558 . S
O218 C243 1.257 . S
O219 Eu168 2.380 1_556 S
O219 Eu179 2.612 1_565 S
O219 C235 1.276 . S
O220 Eu168 2.432 . S
O220 C242 1.264 1_554 S
O221 Eu179 2.339 1_565 S
O221 C242 1.254 . S
O222 Eu179 2.563 1_565 S
O222 C235 1.235 . S
O223 Eu179 2.419 . S
O223 C243 1.249 . S
C224 O213 1.276 . S
C224 O216 1.235 . S
C225 C227 1.393 . S
C225 C229 1.395 . S
C225 C232 1.492 . S
C226 C227 1.392 . S
C226 C228 1.386 . S
C227 C225 1.393 . S
C227 C226 1.392 . S
C227 H244 0.930 1_565 S
C228 C226 1.386 . S
C228 C230 1.395 . S
C228 H245 0.930 . S
C229 C225 1.395 . S
C229 C230 1.379 . S
C229 H246 0.930 . S
C230 C228 1.395 . S
C230 C229 1.379 . S
C230 H247 0.930 . S
C231 O214 1.264 1_554 S
C231 O215 1.254 . S
C232 Eu168 2.848 . S
C232 O212 1.257 . S
C232 O217 1.249 . S
C232 C225 1.492 . S
C233 H198 0.931 . S
C233 C211 1.420 . S
C233 C234 1.351 . S
C234 H196 0.930 . S
C234 C202 1.423 . S
C234 C233 1.351 . S
C235 O219 1.276 . S
C235 O222 1.235 . S
C236 C237 1.393 . S
C236 C240 1.395 . S
C236 C243 1.492 . S
C237 C236 1.393 . S
C237 C238 1.392 . S
C237 H248 0.930 1_545 S
C238 C237 1.392 . S
C238 C239 1.386 . S
C239 C238 1.386 . S
C239 C241 1.395 . S
C239 H249 0.930 . S
C240 C236 1.395 . S
C240 C241 1.379 . S
C240 H250 0.930 . S
C241 C239 1.395 . S
C241 C240 1.379 . S
C241 H251 0.930 . S
C242 O220 1.264 1_556 S
C242 O221 1.254 . S
C243 Eu179 2.848 . S
C243 O218 1.257 . S
C243 O223 1.249 . S
C243 C236 1.492 . S
H244 C227 0.930 1_545 S
H245 C228 0.930 . S
H246 C229 0.930 . S
H247 C230 0.930 . S
H248 C237 0.930 1_565 S
H249 C239 0.930 . S
H250 C240 0.930 . S
H251 C241 0.930 . S
Eu252 N283 2.657 . S
Eu252 N290 2.609 . S
Eu252 O296 2.558 . S
Eu252 O297 2.612 . S
Eu252 O299 2.339 . S
Eu252 O300 2.563 . S
Eu252 O301 2.419 . S
Eu252 O303 2.380 . S
Eu252 O304 2.432 . S
Eu252 C316 2.848 . S
C253 C256 1.429 . S
C253 C257 1.411 . S
C253 N260 1.377 . S
C254 C256 1.420 . S
C254 C258 1.423 . S
C254 C266 1.392 . S
C255 C257 1.420 . S
C255 C258 1.351 . S
C255 H278 0.931 . S
C256 C253 1.429 . S
C256 C254 1.420 . S
C256 N264 1.362 . S
C257 C253 1.411 . S
C257 C255 1.420 . S
C257 C262 1.395 . S
C258 C254 1.423 . S
C258 C255 1.351 . S
C258 H270 0.930 . S
C259 C261 1.400 . S
C259 C262 1.386 . S
C259 H271 0.930 . S
N260 C253 1.377 . S
N260 C261 1.321 . S
N260 Eu263 2.609 . S
C261 C259 1.400 . S
C261 N260 1.321 . S
C261 H268 0.930 . S
C262 C257 1.395 . S
C262 C259 1.386 . S
C262 H281 0.930 . S
Eu263 N260 2.609 . S
Eu263 N264 2.657 . S
Eu263 O297 2.380 . S
Eu263 O298 2.432 . S
Eu263 O302 2.558 . S
Eu263 O303 2.612 . S
Eu263 O305 2.339 . S
Eu263 O306 2.563 . S
Eu263 O307 2.419 . S
Eu263 C327 2.848 . S
N264 C256 1.362 . S
N264 Eu263 2.657 . S
N264 C265 1.334 . S
C265 N264 1.334 . S
C265 C267 1.413 . S
C265 H272 0.929 . S
C266 C254 1.392 . S
C266 C267 1.367 . S
C266 H274 0.930 . S
C267 C265 1.413 . S
C267 C266 1.367 . S
C267 H269 0.930 . S
H268 C261 0.930 . S
H269 C267 0.930 . S
H270 C258 0.930 . S
H271 C259 0.930 . S
H272 C265 0.929 . S
H273 C287 0.930 . S
H274 C266 0.930 . S
H275 C293 0.930 . S
H276 C284 0.929 . S
H277 C291 0.930 . S
H278 C255 0.931 . S
H279 C285 0.930 . S
H280 C318 0.930 . S
H281 C262 0.930 . S
H282 C317 0.931 . S
N283 Eu252 2.657 . S
N283 C284 1.334 . S
N283 C288 1.362 . S
C284 H276 0.929 . S
C284 N283 1.334 . S
C284 C287 1.413 . S
C285 H279 0.930 . S
C285 C286 1.392 . S
C285 C287 1.367 . S
C286 C285 1.392 . S
C286 C288 1.420 . S
C286 C318 1.423 . S
C287 H273 0.930 . S
C287 C284 1.413 . S
C287 C285 1.367 . S
C288 N283 1.362 . S
C288 C286 1.420 . S
C288 C292 1.429 . S
H289 C294 0.930 . S
N290 Eu252 2.609 . S
N290 C292 1.377 . S
N290 C293 1.321 . S
C291 H277 0.930 . S
C291 C293 1.400 . S
C291 C294 1.386 . S
C292 C288 1.429 . S
C292 N290 1.377 . S
C292 C295 1.411 . S
C293 H275 0.930 . S
C293 N290 1.321 . S
C293 C291 1.400 . S
C294 H289 0.930 . S
C294 C291 1.386 . S
C294 C295 1.395 . S
C295 C292 1.411 . S
C295 C294 1.395 . S
C295 C317 1.420 . S
O296 Eu252 2.558 . S
O296 C316 1.257 . S
O297 Eu252 2.612 . S
O297 Eu263 2.380 . S
O297 C308 1.276 . S
O298 Eu263 2.432 . S
O298 C315 1.264 . S
O299 Eu252 2.339 . S
O299 C315 1.254 . S
O300 Eu252 2.563 . S
O300 C308 1.235 . S
O301 Eu252 2.419 . S
O301 C316 1.249 . S
O302 Eu263 2.558 . S
O302 C327 1.257 . S
O303 Eu252 2.380 . S
O303 Eu263 2.612 . S
O303 C319 1.276 . S
O304 Eu252 2.432 . S
O304 C326 1.264 . S
O305 Eu263 2.339 . S
O305 C326 1.254 . S
O306 Eu263 2.563 . S
O306 C319 1.235 . S
O307 Eu263 2.419 . S
O307 C327 1.249 . S
C308 O297 1.276 . S
C308 O300 1.235 . S
C309 C311 1.393 . S
C309 C313 1.395 . S
C309 C316 1.492 . S
C310 C311 1.392 . S
C310 C312 1.386 . S
C311 C309 1.393 . S
C311 C310 1.392 . S
C311 H328 0.930 . S
C312 C310 1.386 . S
C312 C314 1.395 . S
C312 H329 0.930 . S
C313 C309 1.395 . S
C313 C314 1.379 . S
C313 H330 0.930 . S
C314 C312 1.395 . S
C314 C313 1.379 . S
C314 H331 0.930 . S
C315 O298 1.264 . S
C315 O299 1.254 . S
C316 Eu252 2.848 . S
C316 O296 1.257 . S
C316 O301 1.249 . S
C316 C309 1.492 . S
C317 H282 0.931 . S
C317 C295 1.420 . S
C317 C318 1.351 . S
C318 H280 0.930 . S
C318 C286 1.423 . S
C318 C317 1.351 . S
C319 O303 1.276 . S
C319 O306 1.235 . S
C320 C321 1.393 . S
C320 C324 1.395 . S
C320 C327 1.492 . S
C321 C320 1.393 . S
C321 C322 1.392 1_554 S
C321 H332 0.930 . S
C322 C321 1.392 1_556 S
C322 C323 1.386 . S
C323 C322 1.386 . S
C323 C325 1.395 . S
C323 H333 0.930 . S
C324 C320 1.395 . S
C324 C325 1.379 1_554 S
C324 H334 0.930 . S
C325 C323 1.395 . S
C325 C324 1.379 1_556 S
C325 H335 0.930 . S
C326 O304 1.264 . S
C326 O305 1.254 . S
C327 Eu263 2.848 . S
C327 O302 1.257 . S
C327 O307 1.249 . S
C327 C320 1.492 . S
H328 C311 0.930 . S
H329 C312 0.930 . S
H330 C313 0.930 . S
H331 C314 0.930 . S
H332 C321 0.930 . S
H333 C323 0.930 . S
H334 C324 0.930 . S
H335 C325 0.930 . S
Eu336 N367 2.657 . S
Eu336 N374 2.609 . S
Eu336 O380 2.558 . S
Eu336 O381 2.612 . S
Eu336 O383 2.339 . S
Eu336 O384 2.563 . S
Eu336 O385 2.419 . S
Eu336 O387 2.380 . S
Eu336 O388 2.432 . S
Eu336 C400 2.848 . S
C337 C340 1.429 . S
C337 C341 1.411 . S
C337 N344 1.377 . S
C338 C340 1.420 . S
C338 C342 1.423 . S
C338 C350 1.392 . S
C339 C341 1.420 . S
C339 C342 1.351 . S
C339 H362 0.931 . S
C340 C337 1.429 . S
C340 C338 1.420 . S
C340 N348 1.362 . S
C341 C337 1.411 . S
C341 C339 1.420 . S
C341 C346 1.395 . S
C342 C338 1.423 . S
C342 C339 1.351 . S
C342 H354 0.930 . S
C343 C345 1.400 . S
C343 C346 1.386 . S
C343 H355 0.930 . S
N344 C337 1.377 . S
N344 C345 1.321 . S
N344 Eu347 2.609 . S
C345 C343 1.400 . S
C345 N344 1.321 . S
C345 H352 0.930 . S
C346 C341 1.395 . S
C346 C343 1.386 . S
C346 H365 0.930 . S
Eu347 N344 2.609 . S
Eu347 N348 2.657 . S
Eu347 O381 2.380 . S
Eu347 O382 2.432 . S
Eu347 O386 2.558 . S
Eu347 O387 2.612 . S
Eu347 O389 2.339 . S
Eu347 O390 2.563 . S
Eu347 O391 2.419 . S
Eu347 C411 2.848 . S
N348 C340 1.362 . S
N348 Eu347 2.657 . S
N348 C349 1.334 . S
C349 N348 1.334 . S
C349 C351 1.413 . S
C349 H356 0.929 . S
C350 C338 1.392 . S
C350 C351 1.367 . S
C350 H358 0.930 . S
C351 C349 1.413 . S
C351 C350 1.367 . S
C351 H353 0.930 . S
H352 C345 0.930 . S
H353 C351 0.930 . S
H354 C342 0.930 . S
H355 C343 0.930 . S
H356 C349 0.929 . S
H357 C371 0.930 . S
H358 C350 0.930 . S
H359 C377 0.930 . S
H360 C368 0.929 . S
H361 C375 0.930 . S
H362 C339 0.931 . S
H363 C369 0.930 . S
H364 C402 0.930 . S
H365 C346 0.930 . S
H366 C401 0.931 . S
N367 Eu336 2.657 . S
N367 C368 1.334 . S
N367 C372 1.362 . S
C368 H360 0.929 . S
C368 N367 1.334 . S
C368 C371 1.413 . S
C369 H363 0.930 . S
C369 C370 1.392 . S
C369 C371 1.367 . S
C370 C369 1.392 . S
C370 C372 1.420 . S
C370 C402 1.423 . S
C371 H357 0.930 . S
C371 C368 1.413 . S
C371 C369 1.367 . S
C372 N367 1.362 . S
C372 C370 1.420 . S
C372 C376 1.429 . S
H373 C378 0.930 . S
N374 Eu336 2.609 . S
N374 C376 1.377 . S
N374 C377 1.321 . S
C375 H361 0.930 . S
C375 C377 1.400 . S
C375 C378 1.386 . S
C376 C372 1.429 . S
C376 N374 1.377 . S
C376 C379 1.411 . S
C377 H359 0.930 . S
C377 N374 1.321 . S
C377 C375 1.400 . S
C378 H373 0.930 . S
C378 C375 1.386 . S
C378 C379 1.395 . S
C379 C376 1.411 . S
C379 C378 1.395 . S
C379 C401 1.420 . S
O380 Eu336 2.558 . S
O380 C400 1.257 . S
O381 Eu336 2.612 . S
O381 Eu347 2.380 . S
O381 C392 1.276 . S
O382 Eu347 2.432 . S
O382 C399 1.264 . S
O383 Eu336 2.339 . S
O383 C399 1.254 . S
O384 Eu336 2.563 . S
O384 C392 1.235 . S
O385 Eu336 2.419 . S
O385 C400 1.249 . S
O386 Eu347 2.558 . S
O386 C411 1.257 . S
O387 Eu336 2.380 . S
O387 Eu347 2.612 . S
O387 C403 1.276 . S
O388 Eu336 2.432 . S
O388 C410 1.264 . S
O389 Eu347 2.339 . S
O389 C410 1.254 . S
O390 Eu347 2.563 . S
O390 C403 1.235 . S
O391 Eu347 2.419 . S
O391 C411 1.249 . S
C392 O381 1.276 . S
C392 O384 1.235 . S
C393 C395 1.393 . S
C393 C397 1.395 . S
C393 C400 1.492 . S
C394 C395 1.392 1_556 S
C394 C396 1.386 . S
C395 C393 1.393 . S
C395 C394 1.392 1_554 S
C395 H412 0.930 . S
C396 C394 1.386 . S
C396 C398 1.395 . S
C396 H413 0.930 . S
C397 C393 1.395 . S
C397 C398 1.379 1_554 S
C397 H414 0.930 . S
C398 C396 1.395 . S
C398 C397 1.379 1_556 S
C398 H415 0.930 . S
C399 O382 1.264 . S
C399 O383 1.254 . S
C400 Eu336 2.848 . S
C400 O380 1.257 . S
C400 O385 1.249 . S
C400 C393 1.492 . S
C401 H366 0.931 . S
C401 C379 1.420 . S
C401 C402 1.351 . S
C402 H364 0.930 . S
C402 C370 1.423 . S
C402 C401 1.351 . S
C403 O387 1.276 . S
C403 O390 1.235 . S
C404 C405 1.393 . S
C404 C408 1.395 . S
C404 C411 1.492 . S
C405 C404 1.393 . S
C405 C406 1.392 . S
C405 H416 0.930 . S
C406 C405 1.392 . S
C406 C407 1.386 . S
C407 C406 1.386 . S
C407 C409 1.395 . S
C407 H417 0.930 . S
C408 C404 1.395 . S
C408 C409 1.379 . S
C408 H418 0.930 . S
C409 C407 1.395 . S
C409 C408 1.379 . S
C409 H419 0.930 . S
C410 O388 1.264 . S
C410 O389 1.254 . S
C411 Eu347 2.848 . S
C411 O386 1.257 . S
C411 O391 1.249 . S
C411 C404 1.492 . S
H412 C395 0.930 . S
H413 C396 0.930 . S
H414 C397 0.930 . S
H415 C398 0.930 . S
H416 C405 0.930 . S
H417 C407 0.930 . S
H418 C408 0.930 . S
H419 C409 0.930 . S
Eu420 N451 2.657 . S
Eu420 N458 2.609 . S
Eu420 O464 2.558 . S
Eu420 O465 2.612 . S
Eu420 O467 2.339 . S
Eu420 O468 2.563 . S
Eu420 O469 2.419 . S
Eu420 O471 2.380 . S
Eu420 O472 2.432 . S
Eu420 C484 2.848 . S
C421 C424 1.429 . S
C421 C425 1.411 . S
C421 N428 1.377 . S
C422 C424 1.420 . S
C422 C426 1.423 . S
C422 C434 1.392 . S
C423 C425 1.420 . S
C423 C426 1.351 . S
C423 H446 0.931 . S
C424 C421 1.429 . S
C424 C422 1.420 . S
C424 N432 1.362 . S
C425 C421 1.411 . S
C425 C423 1.420 . S
C425 C430 1.395 . S
C426 C422 1.423 . S
C426 C423 1.351 . S
C426 H438 0.930 . S
C427 C429 1.400 . S
C427 C430 1.386 . S
C427 H439 0.930 . S
N428 C421 1.377 . S
N428 C429 1.321 . S
N428 Eu431 2.609 . S
C429 C427 1.400 . S
C429 N428 1.321 . S
C429 H436 0.930 . S
C430 C425 1.395 . S
C430 C427 1.386 . S
C430 H449 0.930 . S
Eu431 N428 2.609 . S
Eu431 N432 2.657 . S
Eu431 O465 2.380 . S
Eu431 O466 2.432 . S
Eu431 O470 2.558 . S
Eu431 O471 2.612 . S
Eu431 O473 2.339 . S
Eu431 O474 2.563 . S
Eu431 O475 2.419 . S
Eu431 C495 2.848 . S
N432 C424 1.362 . S
N432 Eu431 2.657 . S
N432 C433 1.334 . S
C433 N432 1.334 . S
C433 C435 1.413 . S
C433 H440 0.929 . S
C434 C422 1.392 . S
C434 C435 1.367 . S
C434 H442 0.930 . S
C435 C433 1.413 . S
C435 C434 1.367 . S
C435 H437 0.930 . S
H436 C429 0.930 . S
H437 C435 0.930 . S
H438 C426 0.930 . S
H439 C427 0.930 . S
H440 C433 0.929 . S
H441 C455 0.930 . S
H442 C434 0.930 . S
H443 C461 0.930 . S
H444 C452 0.929 . S
H445 C459 0.930 . S
H446 C423 0.931 . S
H447 C453 0.930 . S
H448 C486 0.930 . S
H449 C430 0.930 . S
H450 C485 0.931 . S
N451 Eu420 2.657 . S
N451 C452 1.334 . S
N451 C456 1.362 . S
C452 H444 0.929 . S
C452 N451 1.334 . S
C452 C455 1.413 . S
C453 H447 0.930 . S
C453 C454 1.392 . S
C453 C455 1.367 . S
C454 C453 1.392 . S
C454 C456 1.420 . S
C454 C486 1.423 . S
C455 H441 0.930 . S
C455 C452 1.413 . S
C455 C453 1.367 . S
C456 N451 1.362 . S
C456 C454 1.420 . S
C456 C460 1.429 . S
H457 C462 0.930 . S
N458 Eu420 2.609 . S
N458 C460 1.377 . S
N458 C461 1.321 . S
C459 H445 0.930 . S
C459 C461 1.400 . S
C459 C462 1.386 . S
C460 C456 1.429 . S
C460 N458 1.377 . S
C460 C463 1.411 . S
C461 H443 0.930 . S
C461 N458 1.321 . S
C461 C459 1.400 . S
C462 H457 0.930 . S
C462 C459 1.386 . S
C462 C463 1.395 . S
C463 C460 1.411 . S
C463 C462 1.395 . S
C463 C485 1.420 . S
O464 Eu420 2.558 . S
O464 C484 1.257 . S
O465 Eu420 2.612 . S
O465 Eu431 2.380 . S
O465 C476 1.276 . S
O466 Eu431 2.432 . S
O466 C483 1.264 . S
O467 Eu420 2.339 . S
O467 C483 1.254 . S
O468 Eu420 2.563 . S
O468 C476 1.235 . S
O469 Eu420 2.419 . S
O469 C484 1.249 . S
O470 Eu431 2.558 . S
O470 C495 1.257 . S
O471 Eu420 2.380 . S
O471 Eu431 2.612 . S
O471 C487 1.276 . S
O472 Eu420 2.432 . S
O472 C494 1.264 . S
O473 Eu431 2.339 . S
O473 C494 1.254 . S
O474 Eu431 2.563 . S
O474 C487 1.235 . S
O475 Eu431 2.419 . S
O475 C495 1.249 . S
C476 O465 1.276 . S
C476 O468 1.235 . S
C477 C479 1.393 . S
C477 C481 1.395 . S
C477 C484 1.492 . S
C478 C479 1.392 1_554 S
C478 C480 1.386 . S
C479 C477 1.393 . S
C479 C478 1.392 1_556 S
C479 H496 0.930 . S
C480 C478 1.386 . S
C480 C482 1.395 . S
C480 H497 0.930 . S
C481 C477 1.395 . S
C481 C482 1.379 1_556 S
C481 H498 0.930 . S
C482 C480 1.395 . S
C482 C481 1.379 1_554 S
C482 H499 0.930 . S
C483 O466 1.264 . S
C483 O467 1.254 . S
C484 Eu420 2.848 . S
C484 O464 1.257 . S
C484 O469 1.249 . S
C484 C477 1.492 . S
C485 H450 0.931 . S
C485 C463 1.420 . S
C485 C486 1.351 . S
C486 H448 0.930 . S
C486 C454 1.423 . S
C486 C485 1.351 . S
C487 O471 1.276 . S
C487 O474 1.235 . S
C488 C489 1.393 . S
C488 C492 1.395 . S
C488 C495 1.492 . S
C489 C488 1.393 . S
C489 C490 1.392 . S
C489 H500 0.930 . S
C490 C489 1.392 . S
C490 C491 1.386 . S
C491 C490 1.386 . S
C491 C493 1.395 . S
C491 H501 0.930 . S
C492 C488 1.395 . S
C492 C493 1.379 . S
C492 H502 0.930 . S
C493 C491 1.395 . S
C493 C492 1.379 . S
C493 H503 0.930 . S
C494 O472 1.264 . S
C494 O473 1.254 . S
C495 Eu431 2.848 . S
C495 O470 1.257 . S
C495 O475 1.249 . S
C495 C488 1.492 . S
H496 C479 0.930 . S
H497 C480 0.930 . S
H498 C481 0.930 . S
H499 C482 0.930 . S
H500 C489 0.930 . S
H501 C491 0.930 . S
H502 C492 0.930 . S
H503 C493 0.930 . S
Eu504 N535 2.657 . S
Eu504 N542 2.609 . S
Eu504 O548 2.558 . S
Eu504 O549 2.612 . S
Eu504 O551 2.339 . S
Eu504 O552 2.563 . S
Eu504 O553 2.419 . S
Eu504 O555 2.380 1_556 S
Eu504 O556 2.432 . S
Eu504 C568 2.848 . S
C505 C508 1.429 . S
C505 C509 1.411 . S
C505 N512 1.377 . S
C506 C508 1.420 . S
C506 C510 1.423 . S
C506 C518 1.392 . S
C507 C509 1.420 . S
C507 C510 1.351 . S
C507 H530 0.931 . S
C508 C505 1.429 . S
C508 C506 1.420 . S
C508 N516 1.362 . S
C509 C505 1.411 . S
C509 C507 1.420 . S
C509 C514 1.395 . S
C510 C506 1.423 . S
C510 C507 1.351 . S
C510 H522 0.930 . S
C511 C513 1.400 . S
C511 C514 1.386 . S
C511 H523 0.930 . S
N512 C505 1.377 . S
N512 C513 1.321 . S
N512 Eu515 2.609 . S
C513 C511 1.400 . S
C513 N512 1.321 . S
C513 H520 0.930 . S
C514 C509 1.395 . S
C514 C511 1.386 . S
C514 H533 0.930 . S
Eu515 N512 2.609 . S
Eu515 N516 2.657 . S
Eu515 O549 2.380 1_554 S
Eu515 O550 2.432 . S
Eu515 O554 2.558 . S
Eu515 O555 2.612 . S
Eu515 O557 2.339 . S
Eu515 O558 2.563 . S
Eu515 O559 2.419 . S
Eu515 C579 2.848 . S
N516 C508 1.362 . S
N516 Eu515 2.657 . S
N516 C517 1.334 . S
C517 N516 1.334 . S
C517 C519 1.413 . S
C517 H524 0.929 . S
C518 C506 1.392 . S
C518 C519 1.367 . S
C518 H526 0.930 . S
C519 C517 1.413 . S
C519 C518 1.367 . S
C519 H521 0.930 . S
H520 C513 0.930 . S
H521 C519 0.930 . S
H522 C510 0.930 . S
H523 C511 0.930 . S
H524 C517 0.929 . S
H525 C539 0.930 . S
H526 C518 0.930 . S
H527 C545 0.930 . S
H528 C536 0.929 . S
H529 C543 0.930 . S
H530 C507 0.931 . S
H531 C537 0.930 . S
H532 C570 0.930 . S
H533 C514 0.930 . S
H534 C569 0.931 . S
N535 Eu504 2.657 . S
N535 C536 1.334 . S
N535 C540 1.362 . S
C536 H528 0.929 . S
C536 N535 1.334 . S
C536 C539 1.413 . S
C537 H531 0.930 . S
C537 C538 1.392 . S
C537 C539 1.367 . S
C538 C537 1.392 . S
C538 C540 1.420 . S
C538 C570 1.423 . S
C539 H525 0.930 . S
C539 C536 1.413 . S
C539 C537 1.367 . S
C540 N535 1.362 . S
C540 C538 1.420 . S
C540 C544 1.429 . S
H541 C546 0.930 . S
N542 Eu504 2.609 . S
N542 C544 1.377 . S
N542 C545 1.321 . S
C543 H529 0.930 . S
C543 C545 1.400 . S
C543 C546 1.386 . S
C544 C540 1.429 . S
C544 N542 1.377 . S
C544 C547 1.411 . S
C545 H527 0.930 . S
C545 N542 1.321 . S
C545 C543 1.400 . S
C546 H541 0.930 . S
C546 C543 1.386 . S
C546 C547 1.395 . S
C547 C544 1.411 . S
C547 C546 1.395 . S
C547 C569 1.420 . S
O548 Eu504 2.558 . S
O548 C568 1.257 . S
O549 Eu504 2.612 . S
O549 Eu515 2.380 1_556 S
O549 C560 1.276 . S
O550 Eu515 2.432 . S
O550 C567 1.264 1_554 S
O551 Eu504 2.339 . S
O551 C567 1.254 . S
O552 Eu504 2.563 . S
O552 C560 1.235 . S
O553 Eu504 2.419 . S
O553 C568 1.249 . S
O554 Eu515 2.558 . S
O554 C579 1.257 . S
O555 Eu504 2.380 1_554 S
O555 Eu515 2.612 . S
O555 C571 1.276 . S
O556 Eu504 2.432 . S
O556 C578 1.264 1_556 S
O557 Eu515 2.339 . S
O557 C578 1.254 . S
O558 Eu515 2.563 . S
O558 C571 1.235 . S
O559 Eu515 2.419 . S
O559 C579 1.249 . S
C560 O549 1.276 . S
C560 O552 1.235 . S
C561 C563 1.393 . S
C561 C565 1.395 . S
C561 C568 1.492 . S
C562 C563 1.392 . S
C562 C564 1.386 . S
C563 C561 1.393 . S
C563 C562 1.392 . S
C563 H580 0.930 . S
C564 C562 1.386 . S
C564 C566 1.395 . S
C564 H581 0.930 . S
C565 C561 1.395 . S
C565 C566 1.379 . S
C565 H582 0.930 . S
C566 C564 1.395 . S
C566 C565 1.379 . S
C566 H583 0.930 . S
C567 O550 1.264 1_556 S
C567 O551 1.254 . S
C568 Eu504 2.848 . S
C568 O548 1.257 . S
C568 O553 1.249 . S
C568 C561 1.492 . S
C569 H534 0.931 . S
C569 C547 1.420 . S
C569 C570 1.351 . S
C570 H532 0.930 . S
C570 C538 1.423 . S
C570 C569 1.351 . S
C571 O555 1.276 . S
C571 O558 1.235 . S
C572 C573 1.393 . S
C572 C576 1.395 . S
C572 C579 1.492 . S
C573 C572 1.393 . S
C573 C574 1.392 . S
C573 H584 0.930 . S
C574 C573 1.392 . S
C574 C575 1.386 . S
C575 C574 1.386 . S
C575 C577 1.395 . S
C575 H585 0.930 . S
C576 C572 1.395 . S
C576 C577 1.379 . S
C576 H586 0.930 . S
C577 C575 1.395 . S
C577 C576 1.379 . S
C577 H587 0.930 . S
C578 O556 1.264 1_554 S
C578 O557 1.254 . S
C579 Eu515 2.848 . S
C579 O554 1.257 . S
C579 O559 1.249 . S
C579 C572 1.492 . S
H580 C563 0.930 . S
H581 C564 0.930 . S
H582 C565 0.930 . S
H583 C566 0.930 . S
H584 C573 0.930 . S
H585 C575 0.930 . S
H586 C576 0.930 . S
H587 C577 0.930 . S
Eu588 N619 2.657 1_655 S
Eu588 N626 2.609 1_655 S
Eu588 O632 2.558 . S
Eu588 O633 2.612 . S
Eu588 O635 2.339 1_655 S
Eu588 O636 2.563 . S
Eu588 O637 2.419 1_655 S
Eu588 O639 2.381 1_655 S
Eu588 O640 2.431 . S
Eu588 C652 2.847 . S
C589 C592 1.429 . S
C589 C593 1.411 . S
C589 N596 1.377 . S
C590 C592 1.420 . S
C590 C594 1.423 . S
C590 C602 1.392 . S
C591 C593 1.420 . S
C591 C594 1.351 . S
C591 H614 0.931 . S
C592 C589 1.429 . S
C592 C590 1.420 . S
C592 N600 1.362 . S
C593 C589 1.411 . S
C593 C591 1.420 . S
C593 C598 1.435 . S
C594 C590 1.423 . S
C594 C591 1.351 . S
C594 H606 0.930 . S
C595 C597 1.400 . S
C595 C598 1.347 1_455 S
C595 H607 0.930 . S
N596 C589 1.377 . S
N596 C597 1.321 1_655 S
N596 Eu599 2.609 1_655 S
C597 C595 1.400 . S
C597 N596 1.321 1_455 S
C597 H604 0.930 . S
C598 C593 1.435 . S
C598 C595 1.347 1_655 S
C598 H617 0.929 . S
Eu599 N596 2.609 1_455 S
Eu599 N600 2.648 1_455 S
Eu599 O633 2.377 1_455 S
Eu599 O634 2.439 . S
Eu599 O638 2.563 . S
Eu599 O639 2.615 . S
Eu599 O641 2.332 1_455 S
Eu599 O642 2.570 . S
Eu599 O643 2.417 1_455 S
Eu599 C663 2.849 . S
N600 C592 1.362 . S
N600 Eu599 2.648 1_655 S
N600 C601 1.334 . S
C601 N600 1.334 . S
C601 C603 1.413 . S
C601 H608 0.929 . S
C602 C590 1.392 . S
C602 C603 1.367 . S
C602 H610 0.930 . S
C603 C601 1.413 . S
C603 C602 1.367 . S
C603 H605 0.930 . S
H604 C597 0.930 . S
H605 C603 0.930 . S
H606 C594 0.930 . S
H607 C595 0.930 . S
H608 C601 0.929 . S
H609 C623 0.930 . S
H610 C602 0.930 . S
H611 C629 0.930 . S
H612 C620 0.929 . S
H613 C627 0.930 . S
H614 C591 0.931 . S
H615 C621 0.930 . S
H616 C654 0.930 . S
H617 C598 0.929 . S
H618 C653 0.931 . S
N619 Eu588 2.657 1_455 S
N619 C620 1.334 . S
N619 C624 1.362 . S
C620 H612 0.929 . S
C620 N619 1.334 . S
C620 C623 1.413 . S
C621 H615 0.930 . S
C621 C622 1.392 . S
C621 C623 1.367 . S
C622 C621 1.392 . S
C622 C624 1.420 . S
C622 C654 1.423 . S
C623 H609 0.930 . S
C623 C620 1.413 . S
C623 C621 1.367 . S
C624 N619 1.362 . S
C624 C622 1.420 . S
C624 C628 1.429 . S
H625 C630 0.931 . S
N626 Eu588 2.609 1_455 S
N626 C628 1.377 . S
N626 C629 1.321 1_455 S
C627 H613 0.930 . S
C627 C629 1.400 . S
C627 C630 1.386 1_655 S
C628 C624 1.429 . S
C628 N626 1.377 . S
C628 C631 1.411 . S
C629 H611 0.930 . S
C629 N626 1.321 1_655 S
C629 C627 1.400 . S
C630 H625 0.931 . S
C630 C627 1.386 1_455 S
C630 C631 1.395 . S
C631 C628 1.411 . S
C631 C630 1.395 . S
C631 C653 1.420 . S
O632 Eu588 2.558 . S
O632 C652 1.257 . S
O633 Eu588 2.612 . S
O633 Eu599 2.377 1_655 S
O633 C644 1.276 . S
O634 Eu599 2.439 . S
O634 C651 1.264 . S
O635 Eu588 2.339 1_455 S
O635 C651 1.254 . S
O636 Eu588 2.563 . S
O636 C644 1.235 . S
O637 Eu588 2.419 1_455 S
O637 C652 1.249 1_455 S
O638 Eu599 2.563 . S
O638 C663 1.257 . S
O639 Eu588 2.381 1_455 S
O639 Eu599 2.615 . S
O639 C655 1.276 . S
O640 Eu588 2.431 . S
O640 C662 1.264 . S
O641 Eu599 2.332 1_655 S
O641 C662 1.254 . S
O642 Eu599 2.570 . S
O642 C655 1.235 . S
O643 Eu599 2.417 1_655 S
O643 C663 1.249 1_655 S
C644 O633 1.276 . S
C644 O636 1.235 . S
C645 C647 1.393 . S
C645 C649 1.395 . S
C645 C652 1.492 . S
C646 C647 1.392 . S
C646 C648 1.386 . S
C647 C645 1.393 . S
C647 C646 1.392 . S
C647 H664 0.930 1_655 S
C648 C646 1.386 . S
C648 C650 1.395 . S
C648 H665 0.930 . S
C649 C645 1.395 . S
C649 C650 1.379 . S
C649 H666 0.930 . S
C650 C648 1.395 . S
C650 C649 1.379 . S
C650 H667 0.930 . S
C651 O634 1.264 . S
C651 O635 1.254 . S
C652 Eu588 2.847 . S
C652 O632 1.257 . S
C652 O637 1.249 1_655 S
C652 C645 1.492 . S
C653 H618 0.931 . S
C653 C631 1.420 . S
C653 C654 1.351 . S
C654 H616 0.930 . S
C654 C622 1.423 . S
C654 C653 1.351 . S
C655 O639 1.276 . S
C655 O642 1.235 . S
C656 C657 1.393 . S
C656 C660 1.395 . S
C656 C663 1.492 . S
C657 C656 1.393 . S
C657 C658 1.392 . S
C657 H668 0.930 1_455 S
C658 C657 1.392 . S
C658 C659 1.386 . S
C659 C658 1.386 . S
C659 C661 1.395 . S
C659 H669 0.930 . S
C660 C656 1.395 . S
C660 C661 1.379 . S
C660 H670 0.930 . S
C661 C659 1.395 . S
C661 C660 1.379 . S
C661 H671 0.930 . S
C662 O640 1.264 . S
C662 O641 1.254 . S
C663 Eu599 2.849 . S
C663 O638 1.257 . S
C663 O643 1.249 1_455 S
C663 C656 1.492 . S
H664 C647 0.930 1_455 S
H665 C648 0.930 . S
H666 C649 0.930 . S
H667 C650 0.930 . S
H668 C657 0.930 1_655 S
H669 C659 0.930 . S
H670 C660 0.930 . S
H671 C661 0.930 . S
C672 C673 1.349 . S
C672 C674 1.327 . S
C672 H697 0.950 . S
C673 C672 1.349 . S
C673 C689 1.349 . S
C674 C672 1.327 . S
C674 C693 1.429 . S
C674 H698 0.950 . S
C675 C692 1.574 . S
C675 C694 1.368 . S
C675 H699 0.949 . S
H676 C680 0.949 . S
C677 C678 1.349 . S
C677 C679 1.327 . S
C677 H700 0.950 . S
C678 C677 1.349 . S
C678 C690 1.349 . S
C679 C677 1.327 . S
C679 C695 1.429 . S
C679 H701 0.950 . S
C680 H676 0.949 . S
C680 C688 1.574 . S
C680 C696 1.368 . S
H681 C689 0.950 . S
H682 C687 0.950 . S
H683 C688 0.949 . S
H684 C690 0.950 . S
H685 C691 0.950 . S
H686 C692 0.949 . S
C687 H682 0.950 . S
C687 C689 1.327 . S
C687 C693 1.429 . S
C688 C680 1.574 . S
C688 H683 0.949 . S
C688 C694 1.368 . S
C689 C673 1.349 . S
C689 H681 0.950 . S
C689 C687 1.327 . S
C690 C678 1.349 . S
C690 H684 0.950 . S
C690 C691 1.327 . S
C691 H685 0.950 . S
C691 C690 1.327 . S
C691 C695 1.429 . S
C692 C675 1.574 . S
C692 H686 0.949 . S
C692 C696 1.368 . S
C693 C674 1.429 . S
C693 C687 1.429 . S
C693 C694 1.523 . S
C694 C675 1.368 . S
C694 C688 1.368 . S
C694 C693 1.523 . S
C695 C679 1.429 . S
C695 C691 1.429 . S
C695 C696 1.523 . S
C696 C680 1.368 . S
C696 C692 1.368 . S
C696 C695 1.523 . S
H697 C672 0.950 . S
H698 C674 0.950 . S
H699 C675 0.949 . S
H700 C677 0.950 . S
H701 C679 0.950 . S
C702 C703 1.349 . S
C702 C704 1.327 . S
C702 H727 0.950 . S
C703 C702 1.349 . S
C703 C719 1.349 . S
C704 C702 1.327 . S
C704 C723 1.429 . S
C704 H728 0.950 . S
C705 C722 1.574 . S
C705 C724 1.368 . S
C705 H729 0.949 . S
H706 C710 0.949 . S
C707 C708 1.349 . S
C707 C709 1.327 . S
C707 H730 0.950 . S
C708 C707 1.349 . S
C708 C720 1.349 . S
C709 C707 1.327 . S
C709 C725 1.429 . S
C709 H731 0.950 . S
C710 H706 0.949 . S
C710 C718 1.574 . S
C710 C726 1.368 . S
H711 C719 0.950 . S
H712 C717 0.950 . S
H713 C718 0.949 . S
H714 C720 0.950 . S
H715 C721 0.950 . S
H716 C722 0.949 . S
C717 H712 0.950 . S
C717 C719 1.327 . S
C717 C723 1.429 . S
C718 C710 1.574 . S
C718 H713 0.949 . S
C718 C724 1.368 . S
C719 C703 1.349 . S
C719 H711 0.950 . S
C719 C717 1.327 . S
C720 C708 1.349 . S
C720 H714 0.950 . S
C720 C721 1.327 . S
C721 H715 0.950 . S
C721 C720 1.327 . S
C721 C725 1.429 . S
C722 C705 1.574 . S
C722 H716 0.949 . S
C722 C726 1.368 . S
C723 C704 1.429 . S
C723 C717 1.429 . S
C723 C724 1.523 . S
C724 C705 1.368 . S
C724 C718 1.368 . S
C724 C723 1.523 . S
C725 C709 1.429 . S
C725 C721 1.429 . S
C725 C726 1.523 . S
C726 C710 1.368 . S
C726 C722 1.368 . S
C726 C725 1.523 . S
H727 C702 0.950 . S
H728 C704 0.950 . S
H729 C705 0.949 . S
H730 C707 0.950 . S
H731 C709 0.950 . S
C732 C733 1.349 . S
C732 C734 1.327 . S
C732 H757 0.950 . S
C733 C732 1.349 . S
C733 C749 1.349 . S
C734 C732 1.327 . S
C734 C753 1.429 . S
C734 H758 0.950 . S
C735 C752 1.574 . S
C735 C754 1.368 . S
C735 H759 0.949 . S
H736 C740 0.949 . S
C737 C738 1.349 . S
C737 C739 1.327 . S
C737 H760 0.950 1_556 S
C738 C737 1.349 . S
C738 C750 1.349 . S
C739 C737 1.327 . S
C739 C755 1.429 . S
C739 H761 0.950 . S
C740 H736 0.949 . S
C740 C748 1.574 . S
C740 C756 1.368 . S
H741 C749 0.950 . S
H742 C747 0.950 . S
H743 C748 0.949 . S
H744 C750 0.950 . S
H745 C751 0.950 . S
H746 C752 0.949 . S
C747 H742 0.950 . S
C747 C749 1.327 . S
C747 C753 1.429 . S
C748 C740 1.574 . S
C748 H743 0.949 . S
C748 C754 1.368 . S
C749 C733 1.349 . S
C749 H741 0.950 . S
C749 C747 1.327 . S
C750 C738 1.349 . S
C750 H744 0.950 . S
C750 C751 1.327 . S
C751 H745 0.950 . S
C751 C750 1.327 . S
C751 C755 1.429 . S
C752 C735 1.574 . S
C752 H746 0.949 . S
C752 C756 1.368 . S
C753 C734 1.429 . S
C753 C747 1.429 . S
C753 C754 1.523 . S
C754 C735 1.368 . S
C754 C748 1.368 . S
C754 C753 1.523 . S
C755 C739 1.429 . S
C755 C751 1.429 . S
C755 C756 1.523 . S
C756 C740 1.368 . S
C756 C752 1.368 . S
C756 C755 1.523 . S
H757 C732 0.950 . S
H758 C734 0.950 . S
H759 C735 0.949 . S
H760 C737 0.950 1_554 S
H761 C739 0.950 . S
C762 C763 1.349 . S
C762 C764 1.327 . S
C762 H787 0.950 . S
C763 C762 1.349 . S
C763 C779 1.349 . S
C764 C762 1.327 . S
C764 C783 1.429 . S
C764 H788 0.950 . S
C765 C782 1.574 . S
C765 C784 1.368 . S
C765 H789 0.949 . S
H766 C770 0.949 . S
C767 C768 1.349 . S
C767 C769 1.327 . S
C767 H790 0.950 . S
C768 C767 1.349 . S
C768 C780 1.349 . S
C769 C767 1.327 . S
C769 C785 1.429 . S
C769 H791 0.950 . S
C770 H766 0.949 . S
C770 C778 1.574 . S
C770 C786 1.368 . S
H771 C779 0.932 1_556 S
H772 C777 0.950 . S
H773 C778 0.949 . S
H774 C780 0.950 . S
H775 C781 0.950 . S
H776 C782 0.949 . S
C777 H772 0.950 . S
C777 C779 1.327 . S
C777 C783 1.429 . S
C778 C770 1.574 . S
C778 H773 0.949 . S
C778 C784 1.368 . S
C779 C763 1.349 . S
C779 H771 0.932 1_554 S
C779 C777 1.327 . S
C780 C768 1.349 . S
C780 H774 0.950 . S
C780 C781 1.327 . S
C781 H775 0.950 . S
C781 C780 1.327 . S
C781 C785 1.429 . S
C782 C765 1.574 . S
C782 H776 0.949 . S
C782 C786 1.368 . S
C783 C764 1.429 . S
C783 C777 1.429 . S
C783 C784 1.523 . S
C784 C765 1.368 . S
C784 C778 1.368 . S
C784 C783 1.523 . S
C785 C769 1.429 . S
C785 C781 1.429 . S
C785 C786 1.523 . S
C786 C770 1.368 . S
C786 C782 1.368 . S
C786 C785 1.523 . S
H787 C762 0.950 . S
H788 C764 0.950 . S
H789 C765 0.949 . S
H790 C767 0.950 . S
H791 C769 0.950 . S
C792 C793 1.349 . S
C792 C794 1.327 . S
C792 H817 0.950 . S
C793 C792 1.349 . S
C793 C809 1.349 . S
C794 C792 1.327 . S
C794 C813 1.429 . S
C794 H818 0.950 . S
C795 C812 1.574 . S
C795 C814 1.368 . S
C795 H819 0.949 . S
H796 C800 0.949 . S
C797 C798 1.349 . S
C797 C799 1.327 . S
C797 H820 0.950 . S
C798 C797 1.349 . S
C798 C810 1.349 . S
C799 C797 1.327 . S
C799 C815 1.429 . S
C799 H821 0.950 . S
C800 H796 0.949 . S
C800 C808 1.574 . S
C800 C816 1.368 . S
H801 C809 0.950 . S
H802 C807 0.950 . S
H803 C808 0.949 . S
H804 C810 0.950 . S
H805 C811 0.950 . S
H806 C812 0.949 . S
C807 H802 0.950 . S
C807 C809 1.327 . S
C807 C813 1.429 . S
C808 C800 1.574 . S
C808 H803 0.949 . S
C808 C814 1.368 . S
C809 C793 1.349 . S
C809 H801 0.950 . S
C809 C807 1.327 . S
C810 C798 1.349 . S
C810 H804 0.950 . S
C810 C811 1.327 . S
C811 H805 0.950 . S
C811 C810 1.327 . S
C811 C815 1.429 . S
C812 C795 1.574 . S
C812 H806 0.949 . S
C812 C816 1.368 . S
C813 C794 1.429 . S
C813 C807 1.429 . S
C813 C814 1.523 . S
C814 C795 1.368 . S
C814 C808 1.368 . S
C814 C813 1.523 . S
C815 C799 1.429 . S
C815 C811 1.429 . S
C815 C816 1.523 . S
C816 C800 1.368 . S
C816 C812 1.368 . S
C816 C815 1.523 . S
H817 C792 0.950 . S
H818 C794 0.950 . S
H819 C795 0.949 . S
H820 C797 0.950 . S
H821 C799 0.950 . S
C822 C823 1.349 . S
C822 C824 1.327 . S
C822 H847 0.950 . S
C823 C822 1.349 . S
C823 C839 1.349 . S
C824 C822 1.327 . S
C824 C843 1.429 . S
C824 H848 0.950 . S
C825 C842 1.574 . S
C825 C844 1.368 . S
C825 H849 0.949 . S
H826 C830 0.949 . S
C827 C828 1.349 . S
C827 C829 1.327 . S
C827 H850 0.950 . S
C828 C827 1.349 . S
C828 C840 1.349 . S
C829 C827 1.327 . S
C829 C845 1.429 . S
C829 H851 0.950 . S
C830 H826 0.949 . S
C830 C838 1.574 . S
C830 C846 1.368 . S
H831 C839 0.950 . S
H832 C837 0.950 . S
H833 C838 0.949 . S
H834 C840 0.950 . S
H835 C841 0.950 . S
H836 C842 0.949 . S
C837 H832 0.950 . S
C837 C839 1.327 . S
C837 C843 1.429 . S
C838 C830 1.574 . S
C838 H833 0.949 . S
C838 C844 1.368 . S
C839 C823 1.349 . S
C839 H831 0.950 . S
C839 C837 1.327 . S
C840 C828 1.349 . S
C840 H834 0.950 . S
C840 C841 1.327 . S
C841 H835 0.950 . S
C841 C840 1.327 . S
C841 C845 1.429 . S
C842 C825 1.574 . S
C842 H836 0.949 . S
C842 C846 1.368 . S
C843 C824 1.429 . S
C843 C837 1.429 . S
C843 C844 1.523 . S
C844 C825 1.368 . S
C844 C838 1.368 . S
C844 C843 1.523 . S
C845 C829 1.429 . S
C845 C841 1.429 . S
C845 C846 1.523 . S
C846 C830 1.368 . S
C846 C842 1.368 . S
C846 C845 1.523 . S
H847 C822 0.950 . S
H848 C824 0.950 . S
H849 C825 0.949 . S
H850 C827 0.950 . S
H851 C829 0.950 . S
C852 C853 1.349 . S
C852 C854 1.327 . S
C852 H877 0.950 . S
C853 C852 1.349 . S
C853 C869 1.349 . S
C854 C852 1.327 . S
C854 C873 1.429 . S
C854 H878 0.950 . S
C855 C872 1.574 . S
C855 C874 1.368 . S
C855 H879 0.949 . S
H856 C860 0.949 . S
C857 C858 1.349 . S
C857 C859 1.327 . S
C857 H880 0.950 1_554 S
C858 C857 1.349 . S
C858 C870 1.349 . S
C859 C857 1.327 . S
C859 C875 1.429 . S
C859 H881 0.950 . S
C860 H856 0.949 . S
C860 C868 1.574 . S
C860 C876 1.368 . S
H861 C869 0.950 . S
H862 C867 0.950 . S
H863 C868 0.949 . S
H864 C870 0.950 . S
H865 C871 0.950 . S
H866 C872 0.949 . S
C867 H862 0.950 . S
C867 C869 1.327 . S
C867 C873 1.429 . S
C868 C860 1.574 . S
C868 H863 0.949 . S
C868 C874 1.368 . S
C869 C853 1.349 . S
C869 H861 0.950 . S
C869 C867 1.327 . S
C870 C858 1.349 . S
C870 H864 0.950 . S
C870 C871 1.327 . S
C871 H865 0.950 . S
C871 C870 1.327 . S
C871 C875 1.429 . S
C872 C855 1.574 . S
C872 H866 0.949 . S
C872 C876 1.368 . S
C873 C854 1.429 . S
C873 C867 1.429 . S
C873 C874 1.523 . S
C874 C855 1.368 . S
C874 C868 1.368 . S
C874 C873 1.523 . S
C875 C859 1.429 . S
C875 C871 1.429 . S
C875 C876 1.523 . S
C876 C860 1.368 . S
C876 C872 1.368 . S
C876 C875 1.523 . S
H877 C852 0.950 . S
H878 C854 0.950 . S
H879 C855 0.949 . S
H880 C857 0.950 1_556 S
H881 C859 0.950 . S
C882 C883 1.349 . S
C882 C884 1.327 . S
C882 H907 0.950 . S
C883 C882 1.349 . S
C883 C899 1.349 . S
C884 C882 1.327 . S
C884 C903 1.429 . S
C884 H908 0.950 . S
C885 C902 1.574 . S
C885 C904 1.368 . S
C885 H909 0.949 . S
H886 C890 0.949 . S
C887 C888 1.349 . S
C887 C889 1.327 . S
C887 H910 0.950 . S
C888 C887 1.349 . S
C888 C900 1.349 . S
C889 C887 1.327 . S
C889 C905 1.429 . S
C889 H911 0.950 . S
C890 H886 0.949 . S
C890 C898 1.574 . S
C890 C906 1.368 . S
H891 C899 0.950 . S
H892 C897 0.950 . S
H893 C898 0.949 . S
H894 C900 0.950 . S
H895 C901 0.950 . S
H896 C902 0.949 . S
C897 H892 0.950 . S
C897 C899 1.327 . S
C897 C903 1.429 . S
C898 C890 1.574 . S
C898 H893 0.949 . S
C898 C904 1.368 . S
C899 C883 1.349 . S
C899 H891 0.950 . S
C899 C897 1.327 . S
C900 C888 1.349 . S
C900 H894 0.950 . S
C900 C901 1.327 . S
C901 H895 0.950 . S
C901 C900 1.327 . S
C901 C905 1.429 . S
C902 C885 1.574 . S
C902 H896 0.949 . S
C902 C906 1.368 . S
C903 C884 1.429 . S
C903 C897 1.429 . S
C903 C904 1.523 . S
C904 C885 1.368 . S
C904 C898 1.368 . S
C904 C903 1.523 . S
C905 C889 1.429 . S
C905 C901 1.429 . S
C905 C906 1.523 . S
C906 C890 1.368 . S
C906 C902 1.368 . S
C906 C905 1.523 . S
H907 C882 0.950 . S
H908 C884 0.950 . S
H909 C885 0.949 . S
H910 C887 0.950 . S
H911 C889 0.950 . S
C912 C913 1.349 . S
C912 C914 1.327 . S
C912 H937 0.950 . S
C913 C912 1.349 . S
C913 C929 1.349 . S
C914 C912 1.327 . S
C914 C933 1.429 . S
C914 H938 0.950 . S
C915 C932 1.574 . S
C915 C934 1.368 . S
C915 H939 0.949 . S
H916 C920 0.949 . S
C917 C918 1.349 . S
C917 C919 1.327 . S
C917 H940 0.950 . S
C918 C917 1.349 . S
C918 C930 1.349 . S
C919 C917 1.327 . S
C919 C935 1.429 . S
C919 H941 0.950 . S
C920 H916 0.949 . S
C920 C928 1.574 . S
C920 C936 1.368 . S
H921 C929 0.931 1_554 S
H922 C927 0.950 . S
H923 C928 0.949 . S
H924 C930 0.950 . S
H925 C931 0.950 . S
H926 C932 0.949 . S
C927 H922 0.950 . S
C927 C929 1.327 . S
C927 C933 1.429 . S
C928 C920 1.574 . S
C928 H923 0.949 . S
C928 C934 1.368 . S
C929 C913 1.349 . S
C929 H921 0.931 1_556 S
C929 C927 1.327 . S
C930 C918 1.349 . S
C930 H924 0.950 . S
C930 C931 1.327 . S
C931 H925 0.950 . S
C931 C930 1.327 . S
C931 C935 1.429 . S
C932 C915 1.574 . S
C932 H926 0.949 . S
C932 C936 1.368 . S
C933 C914 1.429 . S
C933 C927 1.429 . S
C933 C934 1.523 . S
C934 C915 1.368 . S
C934 C928 1.368 . S
C934 C933 1.523 . S
C935 C919 1.429 . S
C935 C931 1.429 . S
C935 C936 1.523 . S
C936 C920 1.368 . S
C936 C932 1.368 . S
C936 C935 1.523 . S
H937 C912 0.950 . S
H938 C914 0.950 . S
H939 C915 0.949 . S
H940 C917 0.950 . S
H941 C919 0.950 . S
C942 C943 1.349 . S
C942 C944 1.327 . S
C942 H967 0.950 . S
C943 C942 1.349 . S
C943 C959 1.349 . S
C944 C942 1.327 . S
C944 C963 1.429 . S
C944 H968 0.950 . S
C945 C962 1.574 . S
C945 C964 1.368 . S
C945 H969 0.949 . S
H946 C950 0.949 . S
C947 C948 1.349 . S
C947 C949 1.327 . S
C947 H970 0.928 1_554 S
C948 C947 1.349 . S
C948 C960 1.349 . S
C949 C947 1.327 . S
C949 C965 1.429 . S
C949 H971 0.950 . S
C950 H946 0.949 . S
C950 C958 1.574 . S
C950 C966 1.368 . S
H951 C959 0.950 . S
H952 C957 0.950 . S
H953 C958 0.949 . S
H954 C960 0.950 . S
H955 C961 0.950 . S
H956 C962 0.949 . S
C957 H952 0.950 . S
C957 C959 1.327 . S
C957 C963 1.429 . S
C958 C950 1.574 . S
C958 H953 0.949 . S
C958 C964 1.368 . S
C959 C943 1.349 . S
C959 H951 0.950 . S
C959 C957 1.327 . S
C960 C948 1.349 . S
C960 H954 0.950 . S
C960 C961 1.327 . S
C961 H955 0.950 . S
C961 C960 1.327 . S
C961 C965 1.429 . S
C962 C945 1.574 . S
C962 H956 0.949 . S
C962 C966 1.368 . S
C963 C944 1.429 . S
C963 C957 1.429 . S
C963 C964 1.523 . S
C964 C945 1.368 . S
C964 C958 1.368 . S
C964 C963 1.523 . S
C965 C949 1.429 . S
C965 C961 1.429 . S
C965 C966 1.523 . S
C966 C950 1.368 . S
C966 C962 1.368 . S
C966 C965 1.523 . S
H967 C942 0.950 . S
H968 C944 0.950 . S
H969 C945 0.949 . S
H970 C947 0.928 1_556 S
H971 C949 0.950 . S
C972 C973 1.349 . S
C972 C974 1.327 . S
C972 H997 0.950 . S
C973 C972 1.349 . S
C973 C989 1.349 . S
C974 C972 1.327 . S
C974 C993 1.429 . S
C974 H998 0.950 . S
C975 C992 1.574 . S
C975 C994 1.368 . S
C975 H999 0.949 . S
H976 C980 0.949 . S
C977 C978 1.349 . S
C977 C979 1.327 . S
C977 H1000 0.950 . S
C978 C977 1.349 . S
C978 C990 1.349 . S
C979 C977 1.327 . S
C979 C995 1.429 . S
C979 H1001 0.950 . S
C980 H976 0.949 . S
C980 C988 1.574 . S
C980 C996 1.368 . S
H981 C989 0.950 . S
H982 C987 0.950 . S
H983 C988 0.949 . S
H984 C990 0.950 . S
H985 C991 0.950 . S
H986 C992 0.949 . S
C987 H982 0.950 . S
C987 C989 1.327 . S
C987 C993 1.429 . S
C988 C980 1.574 . S
C988 H983 0.949 . S
C988 C994 1.368 . S
C989 C973 1.349 . S
C989 H981 0.950 . S
C989 C987 1.327 . S
C990 C978 1.349 . S
C990 H984 0.950 . S
C990 C991 1.327 . S
C991 H985 0.950 . S
C991 C990 1.327 . S
C991 C995 1.429 . S
C992 C975 1.574 . S
C992 H986 0.949 . S
C992 C996 1.368 . S
C993 C974 1.429 . S
C993 C987 1.429 . S
C993 C994 1.523 . S
C994 C975 1.368 . S
C994 C988 1.368 . S
C994 C993 1.523 . S
C995 C979 1.429 . S
C995 C991 1.429 . S
C995 C996 1.523 . S
C996 C980 1.368 . S
C996 C992 1.368 . S
C996 C995 1.523 . S
H997 C972 0.950 . S
H998 C974 0.950 . S
H999 C975 0.949 . S
H1000 C977 0.950 . S
H1001 C979 0.950 . S
C1002 C1003 1.349 . S
C1002 C1004 1.327 . S
C1002 H1027 0.950 . S
C1003 C1002 1.349 . S
C1003 C1019 1.349 . S
C1004 C1002 1.327 . S
C1004 C1023 1.429 . S
C1004 H1028 0.950 . S
C1005 C1022 1.574 . S
C1005 C1024 1.368 . S
C1005 H1029 0.949 . S
H1006 C1010 0.949 . S
C1007 C1008 1.349 . S
C1007 C1009 1.327 . S
C1007 H1030 0.950 . S
C1008 C1007 1.349 . S
C1008 C1020 1.349 . S
C1009 C1007 1.327 . S
C1009 C1025 1.429 . S
C1009 H1031 0.950 . S
C1010 H1006 0.949 . S
C1010 C1018 1.574 . S
C1010 C1026 1.368 . S
H1011 C1019 0.950 . S
H1012 C1017 0.950 . S
H1013 C1018 0.949 . S
H1014 C1020 0.950 . S
H1015 C1021 0.950 . S
H1016 C1022 0.949 . S
C1017 H1012 0.950 . S
C1017 C1019 1.327 . S
C1017 C1023 1.429 . S
C1018 C1010 1.574 . S
C1018 H1013 0.949 . S
C1018 C1024 1.368 . S
C1019 C1003 1.349 . S
C1019 H1011 0.950 . S
C1019 C1017 1.327 . S
C1020 C1008 1.349 . S
C1020 H1014 0.950 . S
C1020 C1021 1.327 . S
C1021 H1015 0.950 . S
C1021 C1020 1.327 . S
C1021 C1025 1.429 . S
C1022 C1005 1.574 . S
C1022 H1016 0.949 . S
C1022 C1026 1.368 . S
C1023 C1004 1.429 . S
C1023 C1017 1.429 . S
C1023 C1024 1.523 . S
C1024 C1005 1.368 . S
C1024 C1018 1.368 . S
C1024 C1023 1.523 . S
C1025 C1009 1.429 . S
C1025 C1021 1.429 . S
C1025 C1026 1.523 . S
C1026 C1010 1.368 . S
C1026 C1022 1.368 . S
C1026 C1025 1.523 . S
H1027 C1002 0.950 . S
H1028 C1004 0.950 . S
H1029 C1005 0.949 . S
H1030 C1007 0.950 . S
H1031 C1009 0.950 . S
C1032 C1033 1.349 . S
C1032 C1034 1.327 . S
C1032 H1057 0.950 . S
C1033 C1032 1.349 . S
C1033 C1049 1.349 . S
C1034 C1032 1.327 . S
C1034 C1053 1.429 . S
C1034 H1058 0.950 . S
C1035 C1052 1.574 . S
C1035 C1054 1.368 . S
C1035 H1059 0.949 . S
H1036 C1040 0.949 . S
C1037 C1038 1.349 . S
C1037 C1039 1.327 . S
C1037 H1060 0.950 . S
C1038 C1037 1.349 . S
C1038 C1050 1.349 . S
C1039 C1037 1.327 . S
C1039 C1055 1.429 . S
C1039 H1061 0.950 . S
C1040 H1036 0.949 . S
C1040 C1048 1.574 . S
C1040 C1056 1.368 . S
H1041 C1049 0.950 . S
H1042 C1047 0.950 . S
H1043 C1048 0.949 . S
H1044 C1050 0.950 . S
H1045 C1051 0.950 . S
H1046 C1052 0.949 . S
C1047 H1042 0.950 . S
C1047 C1049 1.327 . S
C1047 C1053 1.429 . S
C1048 C1040 1.574 . S
C1048 H1043 0.949 . S
C1048 C1054 1.368 . S
C1049 C1033 1.349 . S
C1049 H1041 0.950 . S
C1049 C1047 1.327 . S
C1050 C1038 1.349 . S
C1050 H1044 0.950 . S
C1050 C1051 1.327 . S
C1051 H1045 0.950 . S
C1051 C1050 1.327 . S
C1051 C1055 1.429 . S
C1052 C1035 1.574 . S
C1052 H1046 0.949 . S
C1052 C1056 1.368 . S
C1053 C1034 1.429 . S
C1053 C1047 1.429 . S
C1053 C1054 1.523 . S
C1054 C1035 1.368 . S
C1054 C1048 1.368 . S
C1054 C1053 1.523 . S
C1055 C1039 1.429 . S
C1055 C1051 1.429 . S
C1055 C1056 1.523 . S
C1056 C1040 1.368 . S
C1056 C1052 1.368 . S
C1056 C1055 1.523 . S
H1057 C1032 0.950 . S
H1058 C1034 0.950 . S
H1059 C1035 0.949 . S
H1060 C1037 0.950 . S
H1061 C1039 0.950 . S
C1062 C1063 1.349 . S
C1062 C1064 1.327 . S
C1062 H1087 0.950 . S
C1063 C1062 1.349 . S
C1063 C1079 1.349 . S
C1064 C1062 1.327 . S
C1064 C1083 1.429 . S
C1064 H1088 0.950 . S
C1065 C1082 1.574 . S
C1065 C1084 1.368 . S
C1065 H1089 0.949 . S
H1066 C1070 0.949 . S
C1067 C1068 1.349 . S
C1067 C1069 1.327 . S
C1067 H1090 0.950 . S
C1068 C1067 1.349 . S
C1068 C1080 1.349 . S
C1069 C1067 1.327 . S
C1069 C1085 1.429 . S
C1069 H1091 0.950 . S
C1070 H1066 0.949 . S
C1070 C1078 1.574 . S
C1070 C1086 1.368 . S
H1071 C1079 0.950 . S
H1072 C1077 0.950 . S
H1073 C1078 0.949 . S
H1074 C1080 0.950 . S
H1075 C1081 0.950 . S
H1076 C1082 0.949 . S
C1077 H1072 0.950 . S
C1077 C1079 1.327 . S
C1077 C1083 1.429 . S
C1078 C1070 1.574 . S
C1078 H1073 0.949 . S
C1078 C1084 1.368 . S
C1079 C1063 1.349 . S
C1079 H1071 0.950 . S
C1079 C1077 1.327 . S
C1080 C1068 1.349 . S
C1080 H1074 0.950 . S
C1080 C1081 1.327 . S
C1081 H1075 0.950 . S
C1081 C1080 1.327 . S
C1081 C1085 1.429 . S
C1082 C1065 1.574 . S
C1082 H1076 0.949 . S
C1082 C1086 1.368 . S
C1083 C1064 1.429 . S
C1083 C1077 1.429 . S
C1083 C1084 1.523 . S
C1084 C1065 1.368 . S
C1084 C1078 1.368 . S
C1084 C1083 1.523 . S
C1085 C1069 1.429 . S
C1085 C1081 1.429 . S
C1085 C1086 1.523 . S
C1086 C1070 1.368 . S
C1086 C1082 1.368 . S
C1086 C1085 1.523 . S
H1087 C1062 0.950 . S
H1088 C1064 0.950 . S
H1089 C1065 0.949 . S
H1090 C1067 0.950 . S
H1091 C1069 0.950 . S
C1092 C1093 1.349 . S
C1092 C1094 1.327 . S
C1092 H1117 0.950 . S
C1093 C1092 1.349 . S
C1093 C1109 1.349 . S
C1094 C1092 1.327 . S
C1094 C1113 1.429 . S
C1094 H1118 0.950 . S
C1095 C1112 1.574 . S
C1095 C1114 1.368 . S
C1095 H1119 0.949 . S
H1096 C1100 0.949 . S
C1097 C1098 1.349 . S
C1097 C1099 1.327 . S
C1097 H1120 0.950 . S
C1098 C1097 1.349 . S
C1098 C1110 1.349 . S
C1099 C1097 1.327 . S
C1099 C1115 1.429 . S
C1099 H1121 0.950 . S
C1100 H1096 0.949 . S
C1100 C1108 1.574 . S
C1100 C1116 1.368 . S
H1101 C1109 0.950 . S
H1102 C1107 0.950 . S
H1103 C1108 0.949 . S
H1104 C1110 0.950 . S
H1105 C1111 0.950 . S
H1106 C1112 0.949 . S
C1107 H1102 0.950 . S
C1107 C1109 1.327 . S
C1107 C1113 1.429 . S
C1108 C1100 1.574 . S
C1108 H1103 0.949 . S
C1108 C1114 1.368 . S
C1109 C1093 1.349 . S
C1109 H1101 0.950 . S
C1109 C1107 1.327 . S
C1110 C1098 1.349 . S
C1110 H1104 0.950 . S
C1110 C1111 1.327 . S
C1111 H1105 0.950 . S
C1111 C1110 1.327 . S
C1111 C1115 1.429 . S
C1112 C1095 1.574 . S
C1112 H1106 0.949 . S
C1112 C1116 1.368 . S
C1113 C1094 1.429 . S
C1113 C1107 1.429 . S
C1113 C1114 1.523 . S
C1114 C1095 1.368 . S
C1114 C1108 1.368 . S
C1114 C1113 1.523 . S
C1115 C1099 1.429 . S
C1115 C1111 1.429 . S
C1115 C1116 1.523 . S
C1116 C1100 1.368 . S
C1116 C1112 1.368 . S
C1116 C1115 1.523 . S
H1117 C1092 0.950 . S
H1118 C1094 0.950 . S
H1119 C1095 0.949 . S
H1120 C1097 0.950 . S
H1121 C1099 0.950 . S
C1122 C1123 1.349 . S
C1122 C1124 1.327 . S
C1122 H1147 0.950 . S
C1123 C1122 1.349 . S
C1123 C1139 1.349 . S
C1124 C1122 1.327 . S
C1124 C1143 1.429 . S
C1124 H1148 0.950 . S
C1125 C1142 1.574 . S
C1125 C1144 1.368 . S
C1125 H1149 0.949 . S
H1126 C1130 0.949 . S
C1127 C1128 1.349 . S
C1127 C1129 1.327 . S
C1127 H1150 0.950 . S
C1128 C1127 1.349 . S
C1128 C1140 1.349 . S
C1129 C1127 1.327 . S
C1129 C1145 1.429 . S
C1129 H1151 0.950 . S
C1130 H1126 0.949 . S
C1130 C1138 1.574 . S
C1130 C1146 1.368 . S
H1131 C1139 0.950 . S
H1132 C1137 0.950 . S
H1133 C1138 0.949 . S
H1134 C1140 0.950 . S
H1135 C1141 0.950 . S
H1136 C1142 0.949 . S
C1137 H1132 0.950 . S
C1137 C1139 1.327 . S
C1137 C1143 1.429 . S
C1138 C1130 1.574 . S
C1138 H1133 0.949 . S
C1138 C1144 1.368 . S
C1139 C1123 1.349 . S
C1139 H1131 0.950 . S
C1139 C1137 1.327 . S
C1140 C1128 1.349 . S
C1140 H1134 0.950 . S
C1140 C1141 1.327 . S
C1141 H1135 0.950 . S
C1141 C1140 1.327 . S
C1141 C1145 1.429 . S
C1142 C1125 1.574 . S
C1142 H1136 0.949 . S
C1142 C1146 1.368 . S
C1143 C1124 1.429 . S
C1143 C1137 1.429 . S
C1143 C1144 1.523 . S
C1144 C1125 1.368 . S
C1144 C1138 1.368 . S
C1144 C1143 1.523 . S
C1145 C1129 1.429 . S
C1145 C1141 1.429 . S
C1145 C1146 1.523 . S
C1146 C1130 1.368 . S
C1146 C1142 1.368 . S
C1146 C1145 1.523 . S
H1147 C1122 0.950 . S
H1148 C1124 0.950 . S
H1149 C1125 0.949 . S
H1150 C1127 0.950 . S
H1151 C1129 0.950 . S
C1152 C1153 1.349 1_455 S
C1152 C1154 1.327 . S
C1152 H1177 0.950 . S
C1153 C1152 1.349 1_655 S
C1153 C1169 1.349 1_565 S
C1154 C1152 1.327 . S
C1154 C1173 1.429 1_455 S
C1154 H1178 0.950 . S
C1155 C1172 1.574 1_556 S
C1155 C1174 1.382 1_545 S
C1155 H1179 0.949 . S
H1156 C1160 0.949 . S
C1157 C1158 1.349 1_655 S
C1157 C1159 1.327 . S
C1157 H1180 0.950 . S
C1158 C1157 1.349 1_455 S
C1158 C1170 1.349 1_545 S
C1159 C1157 1.327 . S
C1159 C1175 1.429 1_655 S
C1159 H1181 0.950 . S
C1160 H1156 0.949 . S
C1160 C1168 1.574 1_554 S
C1160 C1176 1.388 1_565 S
H1161 C1169 0.950 . S
H1162 C1167 0.950 . S
H1163 C1168 0.949 . S
H1164 C1170 0.950 . S
H1165 C1171 0.950 . S
H1166 C1172 0.949 . S
C1167 H1162 0.950 . S
C1167 C1169 1.327 . S
C1167 C1173 1.429 1_545 S
C1168 C1160 1.574 1_556 S
C1168 H1163 0.949 . S
C1168 C1174 1.354 1_455 S
C1169 C1153 1.349 1_545 S
C1169 H1161 0.950 . S
C1169 C1167 1.327 . S
C1170 C1158 1.349 1_565 S
C1170 H1164 0.950 . S
C1170 C1171 1.327 . S
C1171 H1165 0.950 . S
C1171 C1170 1.327 . S
C1171 C1175 1.429 1_565 S
C1172 C1155 1.574 1_554 S
C1172 H1166 0.949 . S
C1172 C1176 1.349 1_655 S
C1173 C1154 1.429 1_655 S
C1173 C1167 1.429 1_565 S
C1173 C1174 1.523 . S
C1174 C1155 1.382 1_565 S
C1174 C1168 1.354 1_655 S
C1174 C1173 1.523 . S
C1175 C1159 1.429 1_455 S
C1175 C1171 1.429 1_545 S
C1175 C1176 1.524 . S
C1176 C1160 1.388 1_545 S
C1176 C1172 1.349 1_455 S
C1176 C1175 1.524 . S
H1177 C1152 0.950 . S
H1178 C1154 0.950 . S
H1179 C1155 0.949 . S
H1180 C1157 0.950 . S
H1181 C1159 0.950 . S
C1182 C1183 1.349 . S
C1182 C1184 1.327 . S
C1182 H1207 0.950 . S
C1183 C1182 1.349 . S
C1183 C1199 1.349 . S
C1184 C1182 1.327 . S
C1184 C1203 1.429 . S
C1184 H1208 0.950 . S
C1185 C1202 1.574 . S
C1185 C1204 1.368 . S
C1185 H1209 0.949 . S
H1186 C1190 0.949 . S
C1187 C1188 1.349 . S
C1187 C1189 1.327 . S
C1187 H1210 0.950 . S
C1188 C1187 1.349 . S
C1188 C1200 1.349 . S
C1189 C1187 1.327 . S
C1189 C1205 1.429 . S
C1189 H1211 0.950 . S
C1190 H1186 0.949 . S
C1190 C1198 1.574 . S
C1190 C1206 1.368 . S
H1191 C1199 0.950 . S
H1192 C1197 0.950 . S
H1193 C1198 0.949 . S
H1194 C1200 0.950 . S
H1195 C1201 0.950 . S
H1196 C1202 0.949 . S
C1197 H1192 0.950 . S
C1197 C1199 1.327 . S
C1197 C1203 1.429 . S
C1198 C1190 1.574 . S
C1198 H1193 0.949 . S
C1198 C1204 1.368 . S
C1199 C1183 1.349 . S
C1199 H1191 0.950 . S
C1199 C1197 1.327 . S
C1200 C1188 1.349 . S
C1200 H1194 0.950 . S
C1200 C1201 1.327 . S
C1201 H1195 0.950 . S
C1201 C1200 1.327 . S
C1201 C1205 1.429 . S
C1202 C1185 1.574 . S
C1202 H1196 0.949 . S
C1202 C1206 1.368 . S
C1203 C1184 1.429 . S
C1203 C1197 1.429 . S
C1203 C1204 1.523 . S
C1204 C1185 1.368 . S
C1204 C1198 1.368 . S
C1204 C1203 1.523 . S
C1205 C1189 1.429 . S
C1205 C1201 1.429 . S
C1205 C1206 1.523 . S
C1206 C1190 1.368 . S
C1206 C1202 1.368 . S
C1206 C1205 1.523 . S
H1207 C1182 0.950 . S
H1208 C1184 0.950 . S
H1209 C1185 0.949 . S
H1210 C1187 0.950 . S
H1211 C1189 0.950 . S
C1212 C1213 1.349 1_545 S
C1212 C1214 1.327 . S
C1212 H1237 0.950 . S
C1213 C1212 1.349 1_565 S
C1213 C1229 1.349 . S
C1214 C1212 1.327 . S
C1214 C1233 1.429 1_545 S
C1214 H1238 0.950 . S
C1215 C1232 1.574 . S
C1215 C1234 1.368 . S
C1215 H1239 0.949 . S
H1216 C1220 0.949 . S
C1217 C1218 1.349 1_565 S
C1217 C1219 1.327 . S
C1217 H1240 0.950 . S
C1218 C1217 1.349 1_545 S
C1218 C1230 1.349 . S
C1219 C1217 1.327 . S
C1219 C1235 1.429 1_565 S
C1219 H1241 0.950 . S
C1220 H1216 0.949 . S
C1220 C1228 1.574 . S
C1220 C1236 1.368 . S
H1221 C1229 0.950 . S
H1222 C1227 0.950 . S
H1223 C1228 0.949 . S
H1224 C1230 0.950 . S
H1225 C1231 0.950 . S
H1226 C1232 0.949 . S
C1227 H1222 0.950 . S
C1227 C1229 1.327 . S
C1227 C1233 1.429 . S
C1228 C1220 1.574 . S
C1228 H1223 0.949 . S
C1228 C1234 1.368 1_545 S
C1229 C1213 1.349 . S
C1229 H1221 0.950 . S
C1229 C1227 1.327 . S
C1230 C1218 1.349 . S
C1230 H1224 0.950 . S
C1230 C1231 1.327 . S
C1231 H1225 0.950 . S
C1231 C1230 1.327 . S
C1231 C1235 1.429 . S
C1232 C1215 1.574 . S
C1232 H1226 0.949 . S
C1232 C1236 1.368 1_565 S
C1233 C1214 1.429 1_565 S
C1233 C1227 1.429 . S
C1233 C1234 1.523 . S
C1234 C1215 1.368 . S
C1234 C1228 1.368 1_565 S
C1234 C1233 1.523 . S
C1235 C1219 1.429 1_545 S
C1235 C1231 1.429 . S
C1235 C1236 1.523 . S
C1236 C1220 1.368 . S
C1236 C1232 1.368 1_545 S
C1236 C1235 1.523 . S
H1237 C1212 0.950 . S
H1238 C1214 0.950 . S
H1239 C1215 0.949 . S
H1240 C1217 0.950 . S
H1241 C1219 0.950 . S
C1242 C1243 1.349 . S
C1242 C1244 1.327 . S
C1242 H1267 0.950 . S
C1243 C1242 1.349 . S
C1243 C1259 1.349 . S
C1244 C1242 1.327 . S
C1244 C1263 1.429 . S
C1244 H1268 0.950 . S
C1245 C1262 1.574 . S
C1245 C1264 1.368 . S
C1245 H1269 0.949 . S
H1246 C1250 0.949 . S
C1247 C1248 1.349 . S
C1247 C1249 1.327 . S
C1247 H1270 0.950 . S
C1248 C1247 1.349 . S
C1248 C1260 1.349 . S
C1249 C1247 1.327 . S
C1249 C1265 1.429 . S
C1249 H1271 0.950 . S
C1250 H1246 0.949 . S
C1250 C1258 1.574 . S
C1250 C1266 1.368 . S
H1251 C1259 0.950 . S
H1252 C1257 0.950 . S
H1253 C1258 0.949 . S
H1254 C1260 0.950 . S
H1255 C1261 0.950 . S
H1256 C1262 0.949 . S
C1257 H1252 0.950 . S
C1257 C1259 1.327 . S
C1257 C1263 1.429 . S
C1258 C1250 1.574 . S
C1258 H1253 0.949 . S
C1258 C1264 1.368 . S
C1259 C1243 1.349 . S
C1259 H1251 0.950 . S
C1259 C1257 1.327 . S
C1260 C1248 1.349 . S
C1260 H1254 0.950 . S
C1260 C1261 1.327 . S
C1261 H1255 0.950 . S
C1261 C1260 1.327 . S
C1261 C1265 1.429 . S
C1262 C1245 1.574 . S
C1262 H1256 0.949 . S
C1262 C1266 1.368 . S
C1263 C1244 1.429 . S
C1263 C1257 1.429 . S
C1263 C1264 1.523 . S
C1264 C1245 1.368 . S
C1264 C1258 1.368 . S
C1264 C1263 1.523 . S
C1265 C1249 1.429 . S
C1265 C1261 1.429 . S
C1265 C1266 1.523 . S
C1266 C1250 1.368 . S
C1266 C1262 1.368 . S
C1266 C1265 1.523 . S
H1267 C1242 0.950 . S
H1268 C1244 0.950 . S
H1269 C1245 0.949 . S
H1270 C1247 0.950 . S
H1271 C1249 0.950 . S
C1272 C1273 1.349 . S
C1272 C1274 1.327 . S
C1272 H1297 0.950 . S
C1273 C1272 1.349 . S
C1273 C1289 1.349 . S
C1274 C1272 1.327 . S
C1274 C1293 1.429 . S
C1274 H1298 0.950 . S
C1275 C1292 1.574 . S
C1275 C1294 1.368 . S
C1275 H1299 0.949 . S
H1276 C1280 0.949 . S
C1277 C1278 1.349 . S
C1277 C1279 1.327 . S
C1277 H1300 0.950 . S
C1278 C1277 1.349 . S
C1278 C1290 1.349 . S
C1279 C1277 1.327 . S
C1279 C1295 1.429 . S
C1279 H1301 0.950 . S
C1280 H1276 0.949 . S
C1280 C1288 1.574 . S
C1280 C1296 1.368 . S
H1281 C1289 0.950 . S
H1282 C1287 0.950 . S
H1283 C1288 0.949 . S
H1284 C1290 0.950 . S
H1285 C1291 0.950 . S
H1286 C1292 0.949 . S
C1287 H1282 0.950 . S
C1287 C1289 1.327 . S
C1287 C1293 1.429 . S
C1288 C1280 1.574 . S
C1288 H1283 0.949 . S
C1288 C1294 1.368 . S
C1289 C1273 1.349 . S
C1289 H1281 0.950 . S
C1289 C1287 1.327 . S
C1290 C1278 1.349 . S
C1290 H1284 0.950 . S
C1290 C1291 1.327 . S
C1291 H1285 0.950 . S
C1291 C1290 1.327 . S
C1291 C1295 1.429 . S
C1292 C1275 1.574 . S
C1292 H1286 0.949 . S
C1292 C1296 1.368 . S
C1293 C1274 1.429 . S
C1293 C1287 1.429 . S
C1293 C1294 1.523 . S
C1294 C1275 1.368 . S
C1294 C1288 1.368 . S
C1294 C1293 1.523 . S
C1295 C1279 1.429 . S
C1295 C1291 1.429 . S
C1295 C1296 1.523 . S
C1296 C1280 1.368 . S
C1296 C1292 1.368 . S
C1296 C1295 1.523 . S
H1297 C1272 0.950 . S
H1298 C1274 0.950 . S
H1299 C1275 0.949 . S
H1300 C1277 0.950 . S
H1301 C1279 0.950 . S
C1302 C1303 1.349 . S
C1302 C1304 1.327 . S
C1302 H1327 0.950 . S
C1303 C1302 1.349 . S
C1303 C1319 1.349 . S
C1304 C1302 1.327 . S
C1304 C1323 1.429 . S
C1304 H1328 0.950 . S
C1305 C1322 1.574 . S
C1305 C1324 1.368 . S
C1305 H1329 0.949 . S
H1306 C1310 0.949 . S
C1307 C1308 1.349 . S
C1307 C1309 1.327 . S
C1307 H1330 0.950 . S
C1308 C1307 1.349 . S
C1308 C1320 1.349 . S
C1309 C1307 1.327 . S
C1309 C1325 1.429 . S
C1309 H1331 0.950 . S
C1310 H1306 0.949 . S
C1310 C1318 1.574 . S
C1310 C1326 1.368 . S
H1311 C1319 0.950 . S
H1312 C1317 0.950 . S
H1313 C1318 0.949 . S
H1314 C1320 0.950 . S
H1315 C1321 0.950 . S
H1316 C1322 0.949 . S
C1317 H1312 0.950 . S
C1317 C1319 1.327 . S
C1317 C1323 1.429 . S
C1318 C1310 1.574 . S
C1318 H1313 0.949 . S
C1318 C1324 1.368 . S
C1319 C1303 1.349 . S
C1319 H1311 0.950 . S
C1319 C1317 1.327 . S
C1320 C1308 1.349 . S
C1320 H1314 0.950 . S
C1320 C1321 1.327 . S
C1321 H1315 0.950 . S
C1321 C1320 1.327 . S
C1321 C1325 1.429 . S
C1322 C1305 1.574 . S
C1322 H1316 0.949 . S
C1322 C1326 1.368 . S
C1323 C1304 1.429 . S
C1323 C1317 1.429 . S
C1323 C1324 1.523 . S
C1324 C1305 1.368 . S
C1324 C1318 1.368 . S
C1324 C1323 1.523 . S
C1325 C1309 1.429 . S
C1325 C1321 1.429 . S
C1325 C1326 1.523 . S
C1326 C1310 1.368 . S
C1326 C1322 1.368 . S
C1326 C1325 1.523 . S
H1327 C1302 0.950 . S
H1328 C1304 0.950 . S
H1329 C1305 0.949 . S
H1330 C1307 0.950 . S
H1331 C1309 0.950 . S
C1332 C1333 1.349 . S
C1332 C1334 1.327 . S
C1332 H1357 0.950 . S
C1333 C1332 1.349 . S
C1333 C1349 1.349 . S
C1334 C1332 1.327 . S
C1334 C1353 1.429 . S
C1334 H1358 0.950 . S
C1335 C1352 1.574 . S
C1335 C1354 1.368 . S
C1335 H1359 0.949 . S
H1336 C1340 0.949 . S
C1337 C1338 1.349 . S
C1337 C1339 1.327 . S
C1337 H1360 0.950 . S
C1338 C1337 1.349 . S
C1338 C1350 1.349 . S
C1339 C1337 1.327 . S
C1339 C1355 1.429 . S
C1339 H1361 0.950 . S
C1340 H1336 0.949 . S
C1340 C1348 1.574 . S
C1340 C1356 1.368 . S
H1341 C1349 0.950 . S
H1342 C1347 0.950 . S
H1343 C1348 0.949 . S
H1344 C1350 0.950 . S
H1345 C1351 0.950 . S
H1346 C1352 0.949 . S
C1347 H1342 0.950 . S
C1347 C1349 1.327 . S
C1347 C1353 1.429 . S
C1348 C1340 1.574 . S
C1348 H1343 0.949 . S
C1348 C1354 1.368 . S
C1349 C1333 1.349 . S
C1349 H1341 0.950 . S
C1349 C1347 1.327 . S
C1350 C1338 1.349 . S
C1350 H1344 0.950 . S
C1350 C1351 1.327 . S
C1351 H1345 0.950 . S
C1351 C1350 1.327 . S
C1351 C1355 1.429 . S
C1352 C1335 1.574 . S
C1352 H1346 0.949 . S
C1352 C1356 1.368 . S
C1353 C1334 1.429 . S
C1353 C1347 1.429 . S
C1353 C1354 1.523 . S
C1354 C1335 1.368 . S
C1354 C1348 1.368 . S
C1354 C1353 1.523 . S
C1355 C1339 1.429 . S
C1355 C1351 1.429 . S
C1355 C1356 1.523 . S
C1356 C1340 1.368 . S
C1356 C1352 1.368 . S
C1356 C1355 1.523 . S
H1357 C1332 0.950 . S
H1358 C1334 0.950 . S
H1359 C1335 0.949 . S
H1360 C1337 0.950 . S
H1361 C1339 0.950 . S
C1362 C1363 1.349 . S
C1362 C1364 1.327 . S
C1362 H1387 0.950 . S
C1363 C1362 1.349 . S
C1363 C1379 1.349 1_655 S
C1364 C1362 1.327 . S
C1364 C1383 1.429 . S
C1364 H1388 0.950 . S
C1365 C1382 1.574 1_556 S
C1365 C1384 1.356 1_455 S
C1365 H1389 0.949 . S
H1366 C1370 0.949 . S
C1367 C1368 1.349 . S
C1367 C1369 1.327 . S
C1367 H1390 0.950 . S
C1368 C1367 1.349 . S
C1368 C1380 1.349 1_455 S
C1369 C1367 1.327 . S
C1369 C1385 1.429 . S
C1369 H1391 0.950 . S
C1370 H1366 0.949 . S
C1370 C1378 1.574 1_554 S
C1370 C1386 1.351 1_655 S
H1371 C1379 0.950 . S
H1372 C1377 0.950 . S
H1373 C1378 0.949 . S
H1374 C1380 0.950 . S
H1375 C1381 0.950 . S
H1376 C1382 0.949 . S
C1377 H1372 0.950 . S
C1377 C1379 1.327 . S
C1377 C1383 1.429 1_455 S
C1378 C1370 1.574 1_556 S
C1378 H1373 0.949 . S
C1378 C1384 1.381 . S
C1379 C1363 1.349 1_455 S
C1379 H1371 0.950 . S
C1379 C1377 1.327 . S
C1380 C1368 1.349 1_655 S
C1380 H1374 0.950 . S
C1380 C1381 1.327 . S
C1381 H1375 0.950 . S
C1381 C1380 1.327 . S
C1381 C1385 1.429 1_655 S
C1382 C1365 1.574 1_554 S
C1382 H1376 0.949 . S
C1382 C1386 1.386 . S
C1383 C1364 1.429 . S
C1383 C1377 1.429 1_655 S
C1383 C1384 1.523 . S
C1384 C1365 1.356 1_655 S
C1384 C1378 1.381 . S
C1384 C1383 1.523 . S
C1385 C1369 1.429 . S
C1385 C1381 1.429 1_455 S
C1385 C1386 1.524 . S
C1386 C1370 1.351 1_455 S
C1386 C1382 1.386 . S
C1386 C1385 1.524 . S
H1387 C1362 0.950 . S
H1388 C1364 0.950 . S
H1389 C1365 0.949 . S
H1390 C1367 0.950 . S
H1391 C1369 0.950 . S
C673 C56 1.618 . S
C678 C308 1.612 . S
C703 C74 1.472 . S
C708 C140 1.457 . S
C733 C158 1.310 . S
C738 C242 1.315 . S
C763 C224 1.458 . S
C768 C326 1.468 . S
C793 C67 1.618 . S
C798 C487 1.625 . S
C823 C63 1.472 . S
C828 C403 1.459 . S
C853 C399 1.310 . S
C858 C231 1.304 . S
C883 C483 1.472 . S
C888 C235 1.463 . S
C913 C560 1.618 . S
C918 C476 1.619 . S
C943 C392 1.458 . S
C948 C578 1.470 . S
C973 C662 1.310 . S
C978 C410 1.313 . S
C1003 C494 1.472 . S
C1008 C644 1.461 . S
C1033 C319 1.618 . S
C1038 C571 1.618 . S
C1063 C567 1.472 . S
C1068 C151 1.459 . S
C1093 C147 1.310 . S
C1098 C651 1.307 . S
C1123 C315 1.472 . S
C1128 C655 1.455 . S
C1153 C70 1.535 1_565 S
C1158 C58 1.535 1_545 S
C1183 C142 1.532 . S
C1188 C154 1.532 . S
C1213 C238 1.532 1_565 S
C1218 C226 1.532 1_545 S
C1243 C322 1.535 . S
C1248 C310 1.535 . S
C1273 C394 1.532 . S
C1278 C406 1.532 . S
C1303 C490 1.535 . S
C1308 C478 1.535 . S
C1333 C562 1.535 . S
C1338 C574 1.535 . S
C1363 C646 1.532 . S
C1368 C658 1.532 . S
