# Generated by pormake.
# Topology ict, (4)-cn, num edge types: 1
# Building blocks:
#     Node 0, Type 0, BuildingBlock: CEKHIL_clean_sbu_0, # of connection points: 4
#     Node 1, Type 0, BuildingBlock: CEKHIL_clean_sbu_0, # of connection points: 4
#     Node 2, Type 0, BuildingBlock: CEKHIL_clean_sbu_0, # of connection points: 4
#     Node 3, Type 0, BuildingBlock: CEKHIL_clean_sbu_0, # of connection points: 4
#     Node 4, Type 0, BuildingBlock: CEKHIL_clean_sbu_0, # of connection points: 4
#     Node 5, Type 0, BuildingBlock: CEKHIL_clean_sbu_0, # of connection points: 4
#     Node 6, Type 0, BuildingBlock: CEKHIL_clean_sbu_0, # of connection points: 4
#     Node 7, Type 0, BuildingBlock: CEKHIL_clean_sbu_0, # of connection points: 4
#     Node 8, Type 0, BuildingBlock: CEKHIL_clean_sbu_0, # of connection points: 4
#     Node 9, Type 0, BuildingBlock: CEKHIL_clean_sbu_0, # of connection points: 4
#     Node 10, Type 0, BuildingBlock: CEKHIL_clean_sbu_0, # of connection points: 4
#     Node 11, Type 0, BuildingBlock: CEKHIL_clean_sbu_0, # of connection points: 4
#     Node 12, Type 0, BuildingBlock: CEKHIL_clean_sbu_0, # of connection points: 4
#     Node 13, Type 0, BuildingBlock: CEKHIL_clean_sbu_0, # of connection points: 4
#     Node 14, Type 0, BuildingBlock: CEKHIL_clean_sbu_0, # of connection points: 4
#     Node 15, Type 0, BuildingBlock: CEKHIL_clean_sbu_0, # of connection points: 4
#     Node 16, Type 0, BuildingBlock: CEKHIL_clean_sbu_0, # of connection points: 4
#     Node 17, Type 0, BuildingBlock: CEKHIL_clean_sbu_0, # of connection points: 4
#     Node 18, Type 0, BuildingBlock: CEKHIL_clean_sbu_0, # of connection points: 4
#     Node 19, Type 0, BuildingBlock: CEKHIL_clean_sbu_0, # of connection points: 4
#     Node 20, Type 0, BuildingBlock: CEKHIL_clean_sbu_0, # of connection points: 4
#     Node 21, Type 0, BuildingBlock: CEKHIL_clean_sbu_0, # of connection points: 4
#     Node 22, Type 0, BuildingBlock: CEKHIL_clean_sbu_0, # of connection points: 4
#     Node 23, Type 0, BuildingBlock: CEKHIL_clean_sbu_0, # of connection points: 4
#     Node 24, Type 0, BuildingBlock: CEKHIL_clean_sbu_0, # of connection points: 4
#     Node 25, Type 0, BuildingBlock: CEKHIL_clean_sbu_0, # of connection points: 4
#     Node 26, Type 0, BuildingBlock: CEKHIL_clean_sbu_0, # of connection points: 4
#     Node 27, Type 0, BuildingBlock: CEKHIL_clean_sbu_0, # of connection points: 4
#     Node 28, Type 0, BuildingBlock: CEKHIL_clean_sbu_0, # of connection points: 4
#     Node 29, Type 0, BuildingBlock: CEKHIL_clean_sbu_0, # of connection points: 4
#     Node 30, Type 0, BuildingBlock: CEKHIL_clean_sbu_0, # of connection points: 4
#     Node 31, Type 0, BuildingBlock: CEKHIL_clean_sbu_0, # of connection points: 4
#     Node 32, Type 0, BuildingBlock: CEKHIL_clean_sbu_0, # of connection points: 4
#     Node 33, Type 0, BuildingBlock: CEKHIL_clean_sbu_0, # of connection points: 4
#     Node 34, Type 0, BuildingBlock: CEKHIL_clean_sbu_0, # of connection points: 4
#     Node 35, Type 0, BuildingBlock: CEKHIL_clean_sbu_0, # of connection points: 4
#     Edge 36, Type (0, 0), BuildingBlock: AJUNOK_clean_linker_0, # of connection points: 2
#     Edge 37, Type (0, 0), BuildingBlock: AJUNOK_clean_linker_0, # of connection points: 2
#     Edge 38, Type (0, 0), BuildingBlock: AJUNOK_clean_linker_0, # of connection points: 2
#     Edge 39, Type (0, 0), BuildingBlock: AJUNOK_clean_linker_0, # of connection points: 2
#     Edge 40, Type (0, 0), BuildingBlock: AJUNOK_clean_linker_0, # of connection points: 2
#     Edge 41, Type (0, 0), BuildingBlock: AJUNOK_clean_linker_0, # of connection points: 2
#     Edge 42, Type (0, 0), BuildingBlock: AJUNOK_clean_linker_0, # of connection points: 2
#     Edge 43, Type (0, 0), BuildingBlock: AJUNOK_clean_linker_0, # of connection points: 2
#     Edge 44, Type (0, 0), BuildingBlock: AJUNOK_clean_linker_0, # of connection points: 2
#     Edge 45, Type (0, 0), BuildingBlock: AJUNOK_clean_linker_0, # of connection points: 2
#     Edge 46, Type (0, 0), BuildingBlock: AJUNOK_clean_linker_0, # of connection points: 2
#     Edge 47, Type (0, 0), BuildingBlock: AJUNOK_clean_linker_0, # of connection points: 2
#     Edge 48, Type (0, 0), BuildingBlock: AJUNOK_clean_linker_0, # of connection points: 2
#     Edge 49, Type (0, 0), BuildingBlock: AJUNOK_clean_linker_0, # of connection points: 2
#     Edge 50, Type (0, 0), BuildingBlock: AJUNOK_clean_linker_0, # of connection points: 2
#     Edge 51, Type (0, 0), BuildingBlock: AJUNOK_clean_linker_0, # of connection points: 2
#     Edge 52, Type (0, 0), BuildingBlock: AJUNOK_clean_linker_0, # of connection points: 2
#     Edge 53, Type (0, 0), BuildingBlock: AJUNOK_clean_linker_0, # of connection points: 2
#     Edge 54, Type (0, 0), BuildingBlock: AJUNOK_clean_linker_0, # of connection points: 2
#     Edge 55, Type (0, 0), BuildingBlock: AJUNOK_clean_linker_0, # of connection points: 2
#     Edge 56, Type (0, 0), BuildingBlock: AJUNOK_clean_linker_0, # of connection points: 2
#     Edge 57, Type (0, 0), BuildingBlock: AJUNOK_clean_linker_0, # of connection points: 2
#     Edge 58, Type (0, 0), BuildingBlock: AJUNOK_clean_linker_0, # of connection points: 2
#     Edge 59, Type (0, 0), BuildingBlock: AJUNOK_clean_linker_0, # of connection points: 2
#     Edge 60, Type (0, 0), BuildingBlock: AJUNOK_clean_linker_0, # of connection points: 2
#     Edge 61, Type (0, 0), BuildingBlock: AJUNOK_clean_linker_0, # of connection points: 2
#     Edge 62, Type (0, 0), BuildingBlock: AJUNOK_clean_linker_0, # of connection points: 2
#     Edge 63, Type (0, 0), BuildingBlock: AJUNOK_clean_linker_0, # of connection points: 2
#     Edge 64, Type (0, 0), BuildingBlock: AJUNOK_clean_linker_0, # of connection points: 2
#     Edge 65, Type (0, 0), BuildingBlock: AJUNOK_clean_linker_0, # of connection points: 2
#     Edge 66, Type (0, 0), BuildingBlock: AJUNOK_clean_linker_0, # of connection points: 2
#     Edge 67, Type (0, 0), BuildingBlock: AJUNOK_clean_linker_0, # of connection points: 2
#     Edge 68, Type (0, 0), BuildingBlock: AJUNOK_clean_linker_0, # of connection points: 2
#     Edge 69, Type (0, 0), BuildingBlock: AJUNOK_clean_linker_0, # of connection points: 2
#     Edge 70, Type (0, 0), BuildingBlock: AJUNOK_clean_linker_0, # of connection points: 2
#     Edge 71, Type (0, 0), BuildingBlock: AJUNOK_clean_linker_0, # of connection points: 2
#     Edge 72, Type (0, 0), BuildingBlock: AJUNOK_clean_linker_0, # of connection points: 2
#     Edge 73, Type (0, 0), BuildingBlock: AJUNOK_clean_linker_0, # of connection points: 2
#     Edge 74, Type (0, 0), BuildingBlock: AJUNOK_clean_linker_0, # of connection points: 2
#     Edge 75, Type (0, 0), BuildingBlock: AJUNOK_clean_linker_0, # of connection points: 2
#     Edge 76, Type (0, 0), BuildingBlock: AJUNOK_clean_linker_0, # of connection points: 2
#     Edge 77, Type (0, 0), BuildingBlock: AJUNOK_clean_linker_0, # of connection points: 2
#     Edge 78, Type (0, 0), BuildingBlock: AJUNOK_clean_linker_0, # of connection points: 2
#     Edge 79, Type (0, 0), BuildingBlock: AJUNOK_clean_linker_0, # of connection points: 2
#     Edge 80, Type (0, 0), BuildingBlock: AJUNOK_clean_linker_0, # of connection points: 2
#     Edge 81, Type (0, 0), BuildingBlock: AJUNOK_clean_linker_0, # of connection points: 2
#     Edge 82, Type (0, 0), BuildingBlock: AJUNOK_clean_linker_0, # of connection points: 2
#     Edge 83, Type (0, 0), BuildingBlock: AJUNOK_clean_linker_0, # of connection points: 2
#     Edge 84, Type (0, 0), BuildingBlock: AJUNOK_clean_linker_0, # of connection points: 2
#     Edge 85, Type (0, 0), BuildingBlock: AJUNOK_clean_linker_0, # of connection points: 2
#     Edge 86, Type (0, 0), BuildingBlock: AJUNOK_clean_linker_0, # of connection points: 2
#     Edge 87, Type (0, 0), BuildingBlock: AJUNOK_clean_linker_0, # of connection points: 2
#     Edge 88, Type (0, 0), BuildingBlock: AJUNOK_clean_linker_0, # of connection points: 2
#     Edge 89, Type (0, 0), BuildingBlock: AJUNOK_clean_linker_0, # of connection points: 2
#     Edge 90, Type (0, 0), BuildingBlock: AJUNOK_clean_linker_0, # of connection points: 2
#     Edge 91, Type (0, 0), BuildingBlock: AJUNOK_clean_linker_0, # of connection points: 2
#     Edge 92, Type (0, 0), BuildingBlock: AJUNOK_clean_linker_0, # of connection points: 2
#     Edge 93, Type (0, 0), BuildingBlock: AJUNOK_clean_linker_0, # of connection points: 2
#     Edge 94, Type (0, 0), BuildingBlock: AJUNOK_clean_linker_0, # of connection points: 2
#     Edge 95, Type (0, 0), BuildingBlock: AJUNOK_clean_linker_0, # of connection points: 2
#     Edge 96, Type (0, 0), BuildingBlock: AJUNOK_clean_linker_0, # of connection points: 2
#     Edge 97, Type (0, 0), BuildingBlock: AJUNOK_clean_linker_0, # of connection points: 2
#     Edge 98, Type (0, 0), BuildingBlock: AJUNOK_clean_linker_0, # of connection points: 2
#     Edge 99, Type (0, 0), BuildingBlock: AJUNOK_clean_linker_0, # of connection points: 2
#     Edge 100, Type (0, 0), BuildingBlock: AJUNOK_clean_linker_0, # of connection points: 2
#     Edge 101, Type (0, 0), BuildingBlock: AJUNOK_clean_linker_0, # of connection points: 2
#     Edge 102, Type (0, 0), BuildingBlock: AJUNOK_clean_linker_0, # of connection points: 2
#     Edge 103, Type (0, 0), BuildingBlock: AJUNOK_clean_linker_0, # of connection points: 2
#     Edge 104, Type (0, 0), BuildingBlock: AJUNOK_clean_linker_0, # of connection points: 2
#     Edge 105, Type (0, 0), BuildingBlock: AJUNOK_clean_linker_0, # of connection points: 2
#     Edge 106, Type (0, 0), BuildingBlock: AJUNOK_clean_linker_0, # of connection points: 2
#     Edge 107, Type (0, 0), BuildingBlock: AJUNOK_clean_linker_0, # of connection points: 2
# Relax obj value: 0.097
# Max RMSD: 0.122
# Mean RMSD: 0.122
data_MOF--net-ict--node1-CEKHIL_clean_sbu_0--edge1-AJUNOK_clean_linker_0
_symmetry_space_group_name_H-M    P1
_symmetry_Int_Tables_number       1
_symmetry_cell_setting            triclinic
loop_
_symmetry_equiv_pos_as_xyz
'x, y, z'
_cell_length_a     47.369933
_cell_length_b     47.393918
_cell_length_c     27.080234
_cell_angle_alpha  90.026202
_cell_angle_beta   89.949637
_cell_angle_gamma 119.94198
loop_
_atom_site_label
_atom_site_type_symbol
_atom_site_fract_x
_atom_site_fract_y
_atom_site_fract_z
_atom_type_partial_charge
Co0 Co 0.23693 0.2125 0.04936 0.0
O1 O 0.25218 0.22061 0.98192 0.0
O2 O 0.28411 0.23838 0.04735 0.0
C3 C 0.19675 0.22409 0.03429 0.0
O4 O 0.23051 0.21052 0.12507 0.0
Co5 Co 0.16714 0.16012 0.07827 0.0
O6 O 0.17706 0.18264 0.14287 0.0
C7 C 0.21413 0.14157 0.03862 0.0
C8 C 0.2815 0.23688 0.99944 0.0
C9 C 0.20655 0.20102 0.15578 0.0
O10 O 0.23813 0.1703 0.04779 0.0
O11 O 0.18431 0.13385 0.04487 0.0
O12 O 0.22599 0.24753 0.04446 0.0
O13 O 0.19313 0.19532 0.03326 0.0
Co14 Co 0.78695 0.02374 0.05288 0.0
O15 O 0.78068 0.03135 0.98468 0.0
O16 O 0.76316 0.047 0.04893 0.0
C17 C 0.77316 0.97099 0.04179 0.0
O18 O 0.78732 0.01959 0.12863 0.0
Co19 Co 0.83717 0.00338 0.08548 0.0
O20 O 0.81469 0.99397 0.1501 0.0
C21 C 0.8595 0.07095 0.05125 0.0
C22 C 0.76537 0.04577 1.0012 0.0
C23 C 0.79647 0.00571 0.16086 0.0
O24 O 0.83021 0.06612 0.0533 0.0
O25 O 0.86619 0.04821 0.05872 0.0
O26 O 0.75042 0.97847 0.04751 0.0
O27 O 0.80245 0.9952 0.0403 0.0
Co28 Co 0.97963 0.76747 0.04327 0.0
O29 O 0.97208 0.75289 0.97541 0.0
O30 O 0.95627 0.72037 0.04029 0.0
C31 C 0.03228 0.80583 0.02968 0.0
O32 O 0.98377 0.77261 0.11907 0.0
Co33 Co 1.00018 0.83743 0.07492 0.0
O34 O 0.01067 0.82558 0.13968 0.0
C35 C 0.93335 0.79339 0.03689 0.0
C36 C 0.95762 0.72338 0.99246 0.0
C37 C 0.9984 0.79569 0.15099 0.0
O38 O 0.9374 0.7686 0.0423 0.0
O39 O 0.95634 0.82263 0.04441 0.0
O40 O 0.02469 0.77589 0.03849 0.0
O41 O 0.00826 0.81129 0.02844 0.0
Co42 Co 0.21371 0.23111 0.47599 0.0
O43 O 0.22028 0.24493 0.54408 0.0
O44 O 0.23878 0.27828 0.48032 0.0
C45 C 0.22627 0.19158 0.49002 0.0
O46 O 0.21321 0.22618 0.40005 0.0
Co47 Co 0.16298 0.16159 0.44376 0.0
O48 O 0.18624 0.17311 0.37976 0.0
C49 C 0.14192 0.20725 0.48108 0.0
C50 C 0.2365 0.27461 0.52808 0.0
C51 C 0.2045 0.20289 0.36835 0.0
O52 O 0.1711 0.23147 0.47614 0.0
O53 O 0.13481 0.17772 0.47359 0.0
O54 O 0.24937 0.22123 0.48142 0.0
O55 O 0.19715 0.1871 0.49044 0.0
Co56 Co 0.76612 0.98196 0.47843 0.0
O57 O 0.75041 0.97203 0.54553 0.0
O58 O 0.71891 0.95849 0.47961 0.0
C59 C 0.80392 0.03411 0.4959 0.0
O60 O 0.7728 0.98878 0.40327 0.0
Co61 Co 0.83716 0.00433 0.44923 0.0
O62 O 0.82625 0.01787 0.38626 0.0
C63 C 0.79169 0.93483 0.47366 0.0
C64 C 0.72118 0.95837 0.52749 0.0
C65 C 0.7966 0.00509 0.37307 0.0
O66 O 0.76732 0.93982 0.47503 0.0
O67 O 0.82116 0.95775 0.46759 0.0
O68 O 0.77407 0.02664 0.48666 0.0
O69 O 0.80961 0.01023 0.49568 0.0
Co70 Co 0.02207 0.78513 0.46917 0.0
O71 O 0.03153 0.77878 0.53621 0.0
O72 O 0.04338 0.75915 0.4705 0.0
C73 C 0.97089 0.7739 0.48804 0.0
O74 O 0.01526 0.78545 0.39382 0.0
Co75 Co 1.00312 0.83648 0.44027 0.0
O76 O 0.98858 0.81239 0.37714 0.0
C77 C 0.07189 0.85685 0.46491 0.0
C78 C 0.04386 0.76191 0.51837 0.0
C79 C 0.99998 0.79432 0.36371 0.0
O80 O 0.06547 0.82702 0.46569 0.0
O81 O 0.05004 0.86495 0.45899 0.0
O82 O 0.97646 0.75028 0.47807 0.0
O83 O 0.99589 0.80274 0.48688 0.0
Co84 Co 0.76657 0.79151 0.96672 0.0
O85 O 0.75192 0.78217 0.0344 0.0
O86 O 0.71981 0.76215 0.96946 0.0
C87 C 0.81095 0.78563 0.97839 0.0
O88 O 0.7728 0.79444 0.89086 0.0
Co89 Co 0.83416 0.85079 0.94022 0.0
O90 O 0.82355 0.83435 0.87176 0.0
C91 C 0.78192 0.86002 0.98252 0.0
C92 C 0.72265 0.76425 0.01732 0.0
C93 C 0.7957 0.81099 0.85925 0.0
O94 O 0.76039 0.83095 0.96929 0.0
O95 O 0.81258 0.8708 0.97895 0.0
O96 O 0.78256 0.76006 0.97052 0.0
O97 O 0.81079 0.81262 0.98114 0.0
Co98 Co 0.21486 0.97798 0.96746 0.0
O99 O 0.22226 0.9722 0.03607 0.0
O100 O 0.24343 0.95988 0.97272 0.0
C101 C 0.22208 0.02883 0.97703 0.0
O102 O 0.21438 0.98121 0.89139 0.0
Co103 Co 0.15814 0.98809 0.93349 0.0
O104 O 0.17856 0.99657 0.86744 0.0
C105 C 0.1444 0.92304 0.9663 0.0
C106 C 0.24046 0.96074 0.02035 0.0
C107 C 0.20092 0.98999 0.85786 0.0
O108 O 0.17509 0.93259 0.96737 0.0
O109 O 0.13314 0.94204 0.9572 0.0
O110 O 0.24716 0.0248 0.97223 0.0
O111 O 0.19423 0.00241 0.97896 0.0
Co112 Co 0.02473 0.23587 0.9765 0.0
O113 O 0.03448 0.25218 0.0433 0.0
O114 O 0.04322 0.28281 0.97735 0.0
C115 C 0.97498 0.19317 0.99602 0.0
O116 O 0.01664 0.22783 0.90137 0.0
Co117 Co 0.01087 0.16639 0.94915 0.0
O118 O 0.99409 0.17416 0.88689 0.0
C119 C 0.07813 0.21861 0.97298 0.0
C120 C 0.04504 0.28105 0.02512 0.0
C121 C 1.00234 0.20284 0.87244 0.0
O122 O 0.0697 0.24062 0.97171 0.0
O123 O 0.05788 0.18813 0.96822 0.0
O124 O 0.9781 0.22158 0.98719 0.0
O125 O 1.00157 0.19217 0.99419 0.0
Co126 Co 0.79063 0.76916 0.54344 0.0
O127 O 0.78368 0.75233 0.47704 0.0
O128 O 0.76124 0.72221 0.54322 0.0
C129 C 0.78455 0.8122 0.52258 0.0
O130 O 0.79105 0.77835 0.61837 0.0
Co131 Co 0.84789 0.83809 0.56803 0.0
O132 O 0.82378 0.83207 0.63034 0.0
C133 C 0.8607 0.78403 0.54796 0.0
C134 C 0.76487 0.72368 0.49542 0.0
C135 C 0.80269 0.804 0.64612 0.0
O136 O 0.82998 0.76303 0.54872 0.0
O137 O 0.87215 0.81478 0.55167 0.0
O138 O 0.75902 0.78422 0.53249 0.0
O139 O 0.81193 0.81272 0.52419 0.0
Co140 Co 0.23635 0.01891 0.54158 0.0
O141 O 0.25257 0.02868 0.47469 0.0
O142 O 0.28319 0.03691 0.54048 0.0
C143 C 0.19371 0.96961 0.52132 0.0
O144 O 0.22871 0.01088 0.61668 0.0
Co145 Co 0.16766 0.00543 0.57106 0.0
O146 O 0.17513 0.98753 0.63246 0.0
C147 C 0.22005 0.07286 0.54862 0.0
C148 C 0.2814 0.03879 0.49274 0.0
C149 C 0.20402 0.99605 0.646 0.0
O150 O 0.24166 0.06394 0.54701 0.0
O151 O 0.18958 0.05299 0.5547 0.0
O152 O 0.22197 0.97251 0.5307 0.0
O153 O 0.19243 0.99606 0.52382 0.0
Co154 Co 0.9797 0.2143 0.55162 0.0
O155 O 0.97328 0.22196 0.48357 0.0
O156 O 0.96372 0.2448 0.54759 0.0
C157 C 0.02906 0.21849 0.53823 0.0
O158 O 0.98437 0.21345 0.62747 0.0
Co159 Co 0.98765 0.15532 0.5822 0.0
O160 O 0.99735 0.17532 0.64852 0.0
C161 C 0.92277 0.14505 0.55409 0.0
C162 C 0.96354 0.24143 0.49987 0.0
C163 C 0.99232 0.19853 0.65975 0.0
O164 O 0.93347 0.17597 0.55353 0.0
O165 O 0.94099 0.13258 0.56104 0.0
O166 O 0.02704 0.24463 0.5448 0.0
O167 O 1.00163 0.1917 0.53773 0.0
Co168 Co 0.90742 0.55154 0.37604 0.0
O169 O 0.92327 0.55954 0.30889 0.0
O170 O 0.9546 0.57803 0.37486 0.0
C171 C 0.86645 0.56191 0.35994 0.0
O172 O 0.90038 0.54985 0.45155 0.0
Co173 Co 0.83755 0.49812 0.40373 0.0
O174 O 0.84681 0.52078 0.46813 0.0
C175 C 0.88603 0.48063 0.36733 0.0
C176 C 0.95243 0.5761 0.32694 0.0
C177 C 0.87606 0.53977 0.48169 0.0
O178 O 0.90953 0.50978 0.37576 0.0
O179 O 0.856 0.47244 0.37246 0.0
O180 O 0.89545 0.58589 0.36992 0.0
O181 O 0.86366 0.53351 0.35923 0.0
Co182 Co 0.45458 0.35617 0.38039 0.0
O183 O 0.44855 0.36087 0.31085 0.0
O184 O 0.42928 0.37769 0.37126 0.0
C185 C 0.44285 0.30355 0.37529 0.0
O186 O 0.4541 0.3545 0.45671 0.0
Co187 Co 0.50762 0.34132 0.41806 0.0
O188 O 0.48676 0.33579 0.4834 0.0
C189 C 0.52621 0.40496 0.3726 0.0
C190 C 0.43221 0.37494 0.32399 0.0
C191 C 0.46572 0.34446 0.49134 0.0
O192 O 0.49691 0.39961 0.37847 0.0
O193 O 0.5342 0.38337 0.38183 0.0
O194 O 0.41937 0.31021 0.37783 0.0
O195 O 0.47176 0.32842 0.37262 0.0
Co196 Co 0.65421 0.10448 0.37969 0.0
O197 O 0.64668 0.09053 0.31124 0.0
O198 O 0.63276 0.05765 0.37555 0.0
C199 C 0.70647 0.14523 0.36911 0.0
O200 O 0.65865 0.10836 0.4555 0.0
Co201 Co 0.67074 0.17349 0.41387 0.0
O202 O 0.67886 0.1604 0.47928 0.0
C203 C 0.60435 0.12665 0.37873 0.0
C204 C 0.63343 0.06089 0.32787 0.0
C205 C 0.67014 0.1309 0.4887 0.0
O206 O 0.6106 0.10312 0.38084 0.0
O207 O 0.62605 0.1564 0.38619 0.0
O208 O 0.70012 0.1153 0.37373 0.0
O209 O 0.68144 0.14909 0.36777 0.0
Co210 Co 0.88218 0.57039 0.80222 0.0
O211 O 0.88672 0.58344 0.87043 0.0
O212 O 0.90797 0.61752 0.80792 0.0
C213 C 0.89316 0.52982 0.81768 0.0
O214 O 0.88365 0.56605 0.72644 0.0
Co215 Co 0.83082 0.50155 0.76803 0.0
O216 O 0.85454 0.51333 0.70449 0.0
C217 C 0.81053 0.54926 0.79682 0.0
C218 C 0.90376 0.61328 0.85545 0.0
C219 C 0.87414 0.54302 0.69409 0.0
O220 O 0.84046 0.5723 0.79854 0.0
O221 O 0.80217 0.51943 0.78899 0.0
O222 O 0.91686 0.55937 0.81052 0.0
O223 O 0.86428 0.52602 0.81627 0.0
Co224 Co 0.43445 0.31679 0.809 0.0
O225 O 0.42159 0.30846 0.8774 0.0
O226 O 0.38737 0.29588 0.81513 0.0
C227 C 0.47563 0.36785 0.82443 0.0
O228 O 0.43863 0.32279 0.73322 0.0
Co229 Co 0.50323 0.3338 0.77343 0.0
O230 O 0.49168 0.34868 0.71245 0.0
C231 C 0.45655 0.26794 0.81198 0.0
C232 C 0.39172 0.29592 0.86262 0.0
C233 C 0.46194 0.33823 0.70176 0.0
O234 O 0.43257 0.27318 0.80587 0.0
O235 O 0.48628 0.28978 0.80442 0.0
O236 O 0.44626 0.36279 0.81766 0.0
O237 O 0.47873 0.34244 0.82219 0.0
Co238 Co 0.68974 0.1214 0.80799 0.0
O239 O 0.69582 0.11567 0.87688 0.0
O240 O 0.71205 0.09671 0.81519 0.0
C241 C 0.63723 0.10912 0.81614 0.0
O242 O 0.68678 0.12131 0.73201 0.0
Co243 Co 0.67225 0.17329 0.77261 0.0
O244 O 0.66214 0.14942 0.70916 0.0
C245 C 0.73775 0.19324 0.81322 0.0
C246 C 0.71011 0.09977 0.86265 0.0
C247 C 0.67321 0.1305 0.69927 0.0
O248 O 0.73271 0.16401 0.80843 0.0
O249 O 0.71568 0.20073 0.80484 0.0
O250 O 0.64394 0.08573 0.81223 0.0
O251 O 0.662 0.13805 0.81787 0.0
Co252 Co 0.43728 0.12314 0.30867 0.0
O253 O 0.42314 0.11457 0.37648 0.0
O254 O 0.39052 0.09362 0.31227 0.0
C255 C 0.48146 0.11728 0.3218 0.0
O256 O 0.44328 0.1253 0.2329 0.0
Co257 Co 0.50483 0.1819 0.28123 0.0
O258 O 0.49453 0.16393 0.21358 0.0
C259 C 0.45251 0.19206 0.32107 0.0
C260 C 0.39383 0.09614 0.36009 0.0
C261 C 0.46646 0.14088 0.20132 0.0
O262 O 0.43098 0.16254 0.30999 0.0
O263 O 0.48318 0.20305 0.31697 0.0
O264 O 0.4532 0.0917 0.31331 0.0
O265 O 0.48144 0.14437 0.32337 0.0
Co266 Co 0.8892 0.31697 0.30428 0.0
O267 O 0.89529 0.31151 0.37338 0.0
O268 O 0.91719 0.29822 0.31216 0.0
C269 C 0.89664 0.36789 0.3131 0.0
O270 O 0.88945 0.32011 0.22817 0.0
Co271 Co 0.83309 0.32808 0.26853 0.0
O272 O 0.85673 0.33956 0.20482 0.0
C273 C 0.8191 0.26468 0.31029 0.0
C274 C 0.91335 0.2995 0.35957 0.0
C275 C 0.87802 0.33144 0.19515 0.0
O276 O 0.84898 0.27205 0.30412 0.0
O277 O 0.80895 0.28478 0.30257 0.0
O278 O 0.92179 0.36385 0.30913 0.0
O279 O 0.86886 0.34147 0.31414 0.0
Co280 Co 0.69132 0.57026 0.30581 0.0
O281 O 0.69768 0.58252 0.37482 0.0
O282 O 0.71005 0.61694 0.31287 0.0
C283 C 0.64034 0.52691 0.31621 0.0
O284 O 0.68742 0.56714 0.2296 0.0
Co285 Co 0.67905 0.50281 0.26963 0.0
O286 O 0.66964 0.51557 0.20494 0.0
C287 C 0.74497 0.55308 0.30283 0.0
C288 C 0.70937 0.6124 0.36035 0.0
C289 C 0.67731 0.54489 0.19584 0.0
O290 O 0.73639 0.57498 0.30406 0.0
O291 O 0.72502 0.52301 0.29374 0.0
O292 O 0.64446 0.55607 0.31195 0.0
O293 O 0.66673 0.52543 0.31647 0.0
Co294 Co 0.45718 0.10428 0.88283 0.0
O295 O 0.44859 0.08925 0.81523 0.0
O296 O 0.42891 0.05746 0.88061 0.0
C297 C 0.44941 0.14742 0.87144 0.0
O298 O 0.45922 0.11101 0.95863 0.0
Co299 Co 0.51578 0.17221 0.90794 0.0
O300 O 0.49674 0.16308 0.97496 0.0
C301 C 0.52643 0.12054 0.86867 0.0
C302 C 0.43111 0.06003 0.83272 0.0
C303 C 0.47392 0.13529 0.98876 0.0
O304 O 0.49729 0.09908 0.88169 0.0
O305 O 0.53702 0.15115 0.87138 0.0
O306 O 0.42448 0.11847 0.87809 0.0
O307 O 0.4771 0.1486 0.86802 0.0
Co308 Co 0.90404 0.35829 0.87664 0.0
O309 O 0.91614 0.3657 0.80766 0.0
O310 O 0.95062 0.37674 0.86925 0.0
C311 C 0.86054 0.30785 0.86497 0.0
O312 O 0.90111 0.35295 0.95247 0.0
Co313 Co 0.8371 0.34555 0.9158 0.0
O314 O 0.84851 0.32906 0.97527 0.0
C315 C 0.88723 0.41202 0.88441 0.0
C316 C 0.94599 0.37676 0.8219 0.0
C317 C 0.87819 0.33836 0.98473 0.0
O318 O 0.90894 0.40329 0.88053 0.0
O319 O 0.85731 0.39218 0.89475 0.0
O320 O 0.88963 0.31161 0.86846 0.0
O321 O 0.85922 0.33431 0.86636 0.0
Co322 Co 0.64864 0.55047 0.87829 0.0
O323 O 0.63841 0.55575 0.81111 0.0
O324 O 0.62924 0.57814 0.87606 0.0
C325 C 0.69853 0.55839 0.85802 0.0
O326 O 0.65685 0.55174 0.9536 0.0
Co327 Co 0.66423 0.49683 0.90866 0.0
O328 O 0.68057 0.52198 0.97052 0.0
C329 C 0.59642 0.47982 0.88387 0.0
C330 C 0.62736 0.57387 0.82842 0.0
C331 C 0.67143 0.54197 0.98364 0.0
O332 O 0.60422 0.51005 0.88418 0.0
O333 O 0.61722 0.4703 0.8895 0.0
O334 O 0.6948 0.58332 0.86685 0.0
O335 O 0.67255 0.53038 0.86109 0.0
Co336 Co 0.56656 0.88199 0.71464 0.0
O337 O 0.57993 0.88673 0.64651 0.0
O338 O 0.61355 0.90912 0.70931 0.0
C339 C 0.52436 0.89046 0.69871 0.0
O340 O 0.56185 0.88348 0.79031 0.0
Co341 Co 0.49791 0.82853 0.74842 0.0
O342 O 0.5095 0.85123 0.81272 0.0
C343 C 0.54766 0.8111 0.71856 0.0
C344 C 0.60963 0.90453 0.6618 0.0
C345 C 0.53883 0.87228 0.8229 0.0
O346 O 0.57023 0.84126 0.71887 0.0
O347 O 0.51751 0.80186 0.72556 0.0
O348 O 0.55341 0.91522 0.70556 0.0
O349 O 0.52222 0.86235 0.70074 0.0
Co350 Co 0.12216 0.68765 0.70933 0.0
O351 O 0.11698 0.69472 0.6405 0.0
O352 O 0.09336 0.70549 0.70223 0.0
C353 C 0.11611 0.63746 0.69764 0.0
O354 O 0.12083 0.68279 0.78528 0.0
Co355 Co 0.17839 0.67687 0.74537 0.0
O356 O 0.15451 0.66456 0.80878 0.0
C357 C 0.1921 0.74293 0.71686 0.0
C358 C 0.09808 0.70565 0.65483 0.0
C359 C 0.13264 0.67188 0.81836 0.0
O360 O 0.16145 0.7331 0.713 0.0
O361 O 0.20336 0.72388 0.72589 0.0
O362 O 0.09052 0.64075 0.70168 0.0
O363 O 0.1436 0.66424 0.69823 0.0
Co364 Co 0.31586 0.43278 0.70778 0.0
O365 O 0.30539 0.41584 0.64155 0.0
O366 O 0.29792 0.38588 0.70791 0.0
C367 C 0.36499 0.47544 0.68657 0.0
O368 O 0.32512 0.44208 0.7825 0.0
Co369 Co 0.32799 0.50182 0.73253 0.0
O370 O 0.3465 0.49586 0.79442 0.0
C371 C 0.26098 0.44812 0.71322 0.0
C372 C 0.29531 0.38721 0.66019 0.0
C373 C 0.33946 0.46775 0.81012 0.0
O374 O 0.27059 0.42703 0.71386 0.0
O375 O 0.28035 0.47886 0.7168 0.0
O376 O 0.36229 0.4473 0.6961 0.0
O377 O 0.33826 0.47626 0.68837 0.0
Co378 Co 0.54954 0.90635 0.14109 0.0
O379 O 0.55792 0.92009 0.209 0.0
O380 O 0.57852 0.95319 0.14521 0.0
C381 C 0.5562 0.86241 0.15163 0.0
O382 O 0.54745 0.90069 0.06528 0.0
Co383 Co 0.4909 0.83877 0.11312 0.0
O384 O 0.51318 0.84777 0.04831 0.0
C385 C 0.48031 0.89058 0.15362 0.0
C386 C 0.57597 0.94958 0.19298 0.0
C387 C 0.53466 0.87635 0.03497 0.0
O388 O 0.50985 0.91215 0.14279 0.0
O389 O 0.46922 0.85995 0.14883 0.0
O390 O 0.58155 0.89112 0.14502 0.0
O391 O 0.52887 0.86196 0.15448 0.0
Co392 Co 0.10626 0.64988 0.13792 0.0
O393 O 0.09365 0.64384 0.20668 0.0
O394 O 0.05939 0.63029 0.14424 0.0
C395 C 0.14885 0.7012 0.14793 0.0
O396 O 0.10999 0.65362 0.06183 0.0
Co397 Co 0.17438 0.66292 0.1037 0.0
O398 O 0.16281 0.67576 0.04073 0.0
C399 C 0.12605 0.59911 0.14573 0.0
C400 C 0.06376 0.63148 0.19181 0.0
C401 C 0.13333 0.66663 0.0298 0.0
O402 O 0.1029 0.60544 0.1382 0.0
O403 O 0.15611 0.61987 0.13808 0.0
O404 O 0.11949 0.69654 0.14299 0.0
O405 O 0.15084 0.67512 0.14905 0.0
Co406 Co 0.36023 0.45458 0.13109 0.0
O407 O 0.36472 0.44531 0.19921 0.0
O408 O 0.3809 0.42816 0.1352 0.0
C409 C 0.30806 0.44399 0.13787 0.0
O410 O 0.35852 0.45776 0.05507 0.0
Co411 Co 0.34781 0.51107 0.10374 0.0
O412 O 0.34678 0.49689 0.03475 0.0
C413 C 0.40993 0.52477 0.14852 0.0
C414 C 0.37847 0.42931 0.18293 0.0
C415 C 0.35256 0.47426 0.02287 0.0
O416 O 0.40426 0.49615 0.13595 0.0
O417 O 0.38867 0.53372 0.1438 0.0
O418 O 0.31386 0.42011 0.13187 0.0
O419 O 0.33343 0.47229 0.14323 0.0
Co420 Co 0.10211 0.45199 0.63768 0.0
O421 O 0.08605 0.44484 0.70458 0.0
O422 O 0.0548 0.42719 0.6384 0.0
C423 C 0.14122 0.43927 0.65489 0.0
O424 O 0.10951 0.45326 0.5623 0.0
Co425 Co 0.17297 0.50349 0.61135 0.0
O426 O 0.16286 0.4841 0.54458 0.0
C427 C 0.12607 0.52354 0.64578 0.0
C428 C 0.05689 0.42923 0.68634 0.0
C429 C 0.13363 0.46458 0.53162 0.0
O430 O 0.10199 0.49475 0.63717 0.0
O431 O 0.15583 0.53055 0.6418 0.0
O432 O 0.11183 0.41622 0.64456 0.0
O433 O 0.14555 0.46829 0.65535 0.0
Co434 Co 0.549 0.64926 0.63902 0.0
O435 O 0.55272 0.63958 0.70707 0.0
O436 O 0.57595 0.62907 0.64463 0.0
C437 C 0.55773 0.6997 0.65708 0.0
O438 O 0.55174 0.65682 0.56345 0.0
Co439 Co 0.49724 0.66646 0.60397 0.0
O440 O 0.52426 0.68254 0.54369 0.0
C441 C 0.47793 0.59837 0.63156 0.0
C442 C 0.57099 0.62814 0.69208 0.0
C443 C 0.54359 0.67222 0.53231 0.0
O444 O 0.50794 0.60531 0.63272 0.0
O445 O 0.46946 0.61983 0.6243 0.0
O446 O 0.58243 0.69527 0.65023 0.0
O447 O 0.52951 0.67406 0.6534 0.0
Co448 Co 0.35324 0.90537 0.64529 0.0
O449 O 0.36232 0.91926 0.7131 0.0
O450 O 0.37452 0.95261 0.64979 0.0
C451 C 0.302 0.86501 0.66208 0.0
O452 O 0.34634 0.89981 0.56967 0.0
Co453 Co 0.33504 0.83564 0.61342 0.0
O454 O 0.31983 0.84634 0.55206 0.0
C455 C 0.40319 0.88356 0.64139 0.0
C456 C 0.37468 0.94891 0.69744 0.0
C457 C 0.33064 0.87584 0.53936 0.0
O458 O 0.39677 0.90698 0.64114 0.0
O459 O 0.38141 0.85371 0.63466 0.0
O460 O 0.30756 0.89443 0.65444 0.0
O461 O 0.32711 0.86134 0.66061 0.0
Co462 Co 0.12749 0.43602 0.21146 0.0
O463 O 0.1194 0.42288 0.14303 0.0
O464 O 0.09999 0.38913 0.20627 0.0
C465 C 0.11852 0.47863 0.20356 0.0
O466 O 0.12904 0.4406 0.28763 0.0
Co467 Co 0.1849 0.50378 0.24056 0.0
O468 O 0.16511 0.4926 0.30714 0.0
C469 C 0.19732 0.45428 0.19677 0.0
C470 C 0.10222 0.39313 0.15858 0.0
C471 C 0.1428 0.46413 0.31923 0.0
O472 O 0.16828 0.43202 0.20876 0.0
O473 O 0.20743 0.48468 0.20206 0.0
O474 O 0.09402 0.44925 0.20869 0.0
O475 O 0.14659 0.48069 0.1996 0.0
Co476 Co 0.57114 0.69067 0.21083 0.0
O477 O 0.58279 0.69568 0.14161 0.0
O478 O 0.61805 0.71217 0.20303 0.0
C479 C 0.53036 0.63823 0.204 0.0
O480 O 0.56884 0.68864 0.2871 0.0
Co481 Co 0.50253 0.67463 0.24734 0.0
O482 O 0.51661 0.66632 0.31184 0.0
C483 C 0.54792 0.73935 0.2042 0.0
C484 C 0.61299 0.70952 0.15561 0.0
C485 C 0.54656 0.67661 0.32085 0.0
O486 O 0.57201 0.73404 0.20888 0.0
O487 O 0.51842 0.71758 0.21356 0.0
O488 O 0.56036 0.64463 0.20794 0.0
O489 O 0.52655 0.66323 0.20172 0.0
Co490 Co 0.31691 0.88763 0.21692 0.0
O491 O 0.31251 0.8944 0.14766 0.0
O492 O 0.29451 0.91216 0.20859 0.0
C493 C 0.36982 0.90044 0.21205 0.0
O494 O 0.31803 0.88693 0.2932 0.0
Co495 Co 0.33292 0.83492 0.25246 0.0
O496 O 0.33533 0.85296 0.31918 0.0
C497 C 0.26947 0.816 0.20608 0.0
C498 C 0.29768 0.90992 0.16125 0.0
C499 C 0.32672 0.87398 0.32768 0.0
O500 O 0.27401 0.84485 0.21361 0.0
O501 O 0.29154 0.80855 0.21459 0.0
O502 O 0.36261 0.9235 0.21542 0.0
O503 O 0.34534 0.87139 0.2085 0.0
C504 C 0.33181 0.26446 0.88124 0.0
C505 C 0.36411 0.28181 0.89836 0.0
C506 C 0.30543 0.25016 0.91423 0.0
C507 C 0.31017 0.25267 0.96581 0.0
H508 H 0.32677 0.26159 0.84199 0.0
H509 H 0.28109 0.23692 0.89897 0.0
S510 S 0.38993 0.29646 0.02995 0.0
N511 N 0.39933 0.30132 0.97067 0.0
N512 N 0.34981 0.27455 0.03236 0.0
C513 C 0.34233 0.27027 0.98349 0.0
C514 C 0.36924 0.28478 0.94989 0.0
C515 C 0.74022 0.07005 0.88217 0.0
C516 C 0.72386 0.08619 0.89882 0.0
C517 C 0.75358 0.0572 0.9155 0.0
C518 C 0.75113 0.0599 0.96696 0.0
H519 H 0.74282 0.0673 0.843 0.0
H520 H 0.76589 0.04499 0.90065 0.0
S521 S 0.71082 0.10003 0.02995 0.0
N522 N 0.70606 0.10424 0.97056 0.0
N523 N 0.73109 0.08013 0.03293 0.0
C524 C 0.73487 0.07603 0.98417 0.0
C525 C 0.72128 0.08914 0.95022 0.0
C526 C 0.94713 0.69962 0.90708 0.0
C527 C 0.94358 0.69482 0.9586 0.0
C528 C 0.93433 0.67324 0.87406 0.0
C529 C 0.91735 0.6409 0.89111 0.0
H530 H 0.95998 0.72402 0.89193 0.0
H531 H 0.93775 0.67831 0.83483 0.0
S532 S 0.90118 0.61491 0.02258 0.0
N533 N 0.92172 0.65506 0.02503 0.0
N534 N 0.89769 0.60559 0.96334 0.0
C535 C 0.91358 0.63572 0.9426 0.0
C536 C 0.92667 0.66261 0.97619 0.0
C537 C 0.28094 0.36168 0.57622 0.0
C538 C 0.28083 0.35787 0.62788 0.0
C539 C 0.26674 0.33474 0.54438 0.0
C540 C 0.25164 0.30274 0.56274 0.0
H541 H 0.29203 0.38576 0.55998 0.0
H542 H 0.26747 0.33912 0.50502 0.0
S543 S 0.24486 0.27922 0.69508 0.0
N544 N 0.26449 0.31941 0.69589 0.0
N545 N 0.23773 0.26877 0.63632 0.0
C546 C 0.25145 0.2985 0.61437 0.0
C547 C 0.26606 0.32602 0.64682 0.0
C548 C 0.66971 0.93442 0.64451 0.0
C549 C 0.63755 0.91817 0.62668 0.0
C550 C 0.69644 0.94705 0.61215 0.0
C551 C 0.69218 0.94411 0.56051 0.0
H552 H 0.67439 0.93734 0.68386 0.0
H553 H 0.72067 0.95937 0.62793 0.0
S554 S 0.61293 0.90377 0.49459 0.0
N555 N 0.60296 0.89981 0.55362 0.0
N556 N 0.65312 0.92363 0.49309 0.0
C557 C 0.66015 0.92793 0.54211 0.0
C558 C 0.63289 0.91496 0.57507 0.0
C559 C 0.05514 0.74903 0.60333 0.0
C560 C 0.0575 0.7467 0.55174 0.0
C561 C 0.06786 0.73531 0.63619 0.0
C562 C 0.08368 0.71878 0.61899 0.0
H563 H 0.04339 0.76165 0.61873 0.0
H564 H 0.06555 0.73806 0.67545 0.0
S565 S 0.09574 0.70505 0.48733 0.0
N566 N 0.07641 0.72593 0.48504 0.0
N567 N 0.10044 0.70029 0.54658 0.0
C568 C 0.08601 0.716 0.56745 0.0
C569 C 0.07291 0.72989 0.53394 0.0
C570 C 0.67274 0.73989 0.13598 0.0
C571 C 0.64033 0.72211 0.11936 0.0
C572 C 0.69901 0.75286 0.10274 0.0
C573 C 0.6941 0.7486 0.05132 0.0
H574 H 0.67799 0.74421 0.17507 0.0
H575 H 0.7234 0.76667 0.11768 0.0
S576 S 0.61401 0.70278 0.98847 0.0
N577 N 0.60483 0.70009 0.04775 0.0
N578 N 0.65414 0.72441 0.98548 0.0
C579 C 0.66183 0.73039 0.03414 0.0
C580 C 0.63501 0.7172 0.06805 0.0
C581 C 0.26504 0.93684 0.14039 0.0
C582 C 0.28431 0.92361 0.12455 0.0
C583 C 0.25128 0.94899 0.10652 0.0
C584 C 0.25624 0.94853 0.05527 0.0
H585 H 0.26018 0.93754 0.17934 0.0
H586 H 0.2364 0.9586 0.12077 0.0
S587 S 0.3058 0.9176 0.99441 0.0
N588 N 0.30833 0.91156 0.05387 0.0
N589 N 0.2826 0.93438 0.99047 0.0
C590 C 0.27585 0.93577 0.03891 0.0
C591 C 0.28982 0.92334 0.07342 0.0
C592 C 0.0719 0.33303 0.14164 0.0
C593 C 0.08689 0.36513 0.12361 0.0
C594 C 0.05832 0.3062 0.10951 0.0
C595 C 0.05896 0.31021 0.05786 0.0
H596 H 0.07092 0.32848 0.18098 0.0
H597 H 0.04735 0.28205 0.12549 0.0
S598 S 0.09466 0.38917 0.99146 0.0
N599 N 0.1011 0.39938 0.05037 0.0
N600 N 0.0755 0.349 0.99023 0.0
C601 C 0.07352 0.34216 0.03926 0.0
C602 C 0.08748 0.36955 0.07202 0.0
C603 C 0.73821 0.67226 0.37845 0.0
C604 C 0.72216 0.64004 0.39603 0.0
C605 C 0.75151 0.69887 0.41095 0.0
C606 C 0.74924 0.69456 0.4626 0.0
H607 H 0.74091 0.67711 0.33913 0.0
H608 H 0.76384 0.72311 0.3952 0.0
S609 S 0.70902 0.61516 0.52802 0.0
N610 N 0.70431 0.6053 0.4689 0.0
N611 N 0.72917 0.65535 0.52982 0.0
C612 C 0.73287 0.66248 0.48083 0.0
C613 C 0.71942 0.63527 0.44764 0.0
C614 C 0.30664 0.05206 0.40832 0.0
C615 C 0.31054 0.05232 0.45997 0.0
C616 C 0.33357 0.06558 0.37628 0.0
C617 C 0.3656 0.08013 0.39451 0.0
H618 H 0.28254 0.04155 0.39229 0.0
H619 H 0.3292 0.06511 0.33696 0.0
S620 S 0.38927 0.08608 0.52663 0.0
N621 N 0.3491 0.06753 0.5277 0.0
N622 N 0.39962 0.093 0.46781 0.0
C623 C 0.36987 0.08008 0.44607 0.0
C624 C 0.34241 0.06617 0.47867 0.0
C625 C 0.94162 0.26811 0.38007 0.0
C626 C 0.92756 0.28657 0.39612 0.0
C627 C 0.95348 0.25405 0.41387 0.0
C628 C 0.95199 0.25797 0.46525 0.0
H629 H 0.94298 0.26393 0.34103 0.0
H630 H 0.96363 0.2397 0.39942 0.0
S631 S 0.91906 0.30555 0.52666 0.0
N632 N 0.91391 0.30902 0.46713 0.0
N633 N 0.9363 0.28276 0.53041 0.0
C634 C 0.93867 0.277 0.48184 0.0
C635 C 0.92644 0.29122 0.44739 0.0
C636 C 0.00377 0.60218 0.2097 0.0
C637 C 0.036 0.61856 0.2273 0.0
C638 C 0.97712 0.58883 0.24221 0.0
C639 C 0.98145 0.59135 0.29385 0.0
H640 H 0.99897 0.59928 0.17038 0.0
H641 H 0.95286 0.57626 0.22652 0.0
S642 S 0.06088 0.63275 0.35927 0.0
N643 N 0.07073 0.63716 0.30015 0.0
N644 N 0.02069 0.61218 0.36104 0.0
C645 C 0.01354 0.60804 0.31205 0.0
C646 C 0.04076 0.62159 0.27889 0.0
C647 C 0.40229 0.4046 0.30288 0.0
C648 C 0.41807 0.38772 0.287 0.0
C649 C 0.38935 0.41756 0.26899 0.0
C650 C 0.39157 0.41422 0.21764 0.0
H651 H 0.40006 0.40813 0.34191 0.0
H652 H 0.37771 0.43056 0.28338 0.0
S653 S 0.42971 0.37134 0.15648 0.0
N654 N 0.43461 0.3678 0.21606 0.0
N655 N 0.41033 0.39211 0.15259 0.0
C656 C 0.40697 0.39708 0.20116 0.0
C657 C 0.4202 0.38387 0.23572 0.0
C658 C 0.60683 0.00985 0.21005 0.0
C659 C 0.59165 0.97763 0.22777 0.0
C660 C 0.62039 0.03657 0.24256 0.0
C661 C 0.61945 0.03221 0.29414 0.0
H662 H 0.60789 0.01453 0.17075 0.0
H663 H 0.63152 0.06084 0.22702 0.0
S664 S 0.58359 0.9528 0.35959 0.0
N665 N 0.5773 0.943 0.30056 0.0
N666 N 0.60268 0.99294 0.36125 0.0
C667 C 0.60475 1.00011 0.3123 0.0
C668 C 0.59091 0.97294 0.27927 0.0
C669 C 0.40506 0.00905 0.715 0.0
C670 C 0.38824 0.97683 0.73259 0.0
C671 C 0.41851 0.03566 0.74762 0.0
C672 C 0.41559 0.03124 0.79927 0.0
H673 H 0.40816 0.01382 0.67567 0.0
H674 H 0.43147 0.05994 0.73207 0.0
S675 S 0.37302 0.95181 0.86454 0.0
N676 N 0.36887 0.94207 0.80542 0.0
N677 N 0.39399 0.99196 0.86634 0.0
C678 C 0.3985 0.99917 0.81737 0.0
C679 C 0.3849 0.97204 0.78419 0.0
C680 C 0.03231 0.41704 0.77096 0.0
C681 C 0.02787 0.415 0.71936 0.0
C682 C 0.00577 0.40443 0.80357 0.0
C683 C 0.97353 0.3893 0.78611 0.0
H684 H 0.05659 0.42858 0.78658 0.0
H685 H 0.01068 0.40683 0.84287 0.0
S686 S 0.94833 0.37704 0.65429 0.0
N687 N 0.98852 0.39616 0.65231 0.0
N688 N 0.9386 0.37254 0.71346 0.0
C689 C 0.96862 0.38688 0.73456 0.0
C690 C 0.99575 0.39967 0.70127 0.0
C691 C 0.6147 0.58531 0.74326 0.0
C692 C 0.61307 0.58835 0.79486 0.0
C693 C 0.60125 0.59834 0.71039 0.0
C694 C 0.58536 0.61478 0.72764 0.0
H695 H 0.62653 0.57276 0.72791 0.0
H696 H 0.60318 0.59528 0.67111 0.0
S697 S 0.57441 0.62953 0.85936 0.0
N698 N 0.59433 0.60925 0.86157 0.0
N699 N 0.56892 0.63353 0.80015 0.0
C700 C 0.58351 0.618 0.77921 0.0
C701 C 0.5974 0.60488 0.81267 0.0
C702 C 0.24754 0.08385 0.01815 0.0
C703 C 0.22447 0.0609 0.98519 0.0
C704 C 0.2454 0.11115 0.03393 0.0
C705 C 0.22006 0.11611 0.01723 0.0
H706 H 0.26614 0.0797 0.03401 0.0
H707 H 0.26255 0.12739 0.06118 0.0
S708 S 0.15778 0.06669 0.92318 0.0
N709 N 0.17862 0.04769 0.93134 0.0
N710 N 0.1746 0.09847 0.96039 0.0
C711 C 0.19855 0.09465 0.98142 0.0
C712 C 0.20073 0.06715 0.96558 0.0
C713 C 0.94674 0.13793 0.03229 0.0
C714 C 0.94425 0.16362 0.01094 0.0
C715 C 0.91928 0.10895 0.04627 0.0
C716 C 0.88759 0.10378 0.03936 0.0
H717 H 0.9703 0.14001 0.0384 0.0
H718 H 0.92322 0.09024 0.06227 0.0
S719 S 0.86733 0.1638 0.98627 0.0
N720 N 0.90758 0.18272 0.98484 0.0
N721 N 0.8553 0.12756 0.01062 0.0
C722 C 0.8845 0.12954 0.019 0.0
C723 C 0.91292 0.15955 1.0049 0.0
C724 C 0.87053 0.81514 0.99318 0.0
C725 C 0.84153 0.78512 0.98876 0.0
C726 C 0.89956 0.8171 1.00838 0.0
C727 C 0.90139 0.78907 0.01996 0.0
H728 H 0.87091 0.83781 0.98574 0.0
H729 H 0.92075 0.84114 0.01132 0.0
S730 S 0.83279 0.70391 0.0114 0.0
N731 N 0.8165 0.72627 0.99506 0.0
N732 N 0.87154 0.7298 0.02339 0.0
C733 C 0.87281 0.75858 0.01416 0.0
C734 C 0.84284 0.75661 0.99861 0.0
C735 C 0.08521 0.18517 0.51222 0.0
C736 C 0.11481 0.2125 0.49772 0.0
C737 C 0.05849 0.18796 0.52692 0.0
C738 C 0.05975 0.21821 0.52795 0.0
H739 H 0.08228 0.16099 0.51202 0.0
H740 H 0.03636 0.16582 0.53673 0.0
S741 S 0.13172 0.29795 0.49639 0.0
N742 N 0.14424 0.27143 0.48758 0.0
N743 N 0.09348 0.27658 0.51512 0.0
C744 C 0.08937 0.24609 0.51516 0.0
C745 C 0.11696 0.24327 0.50008 0.0
C746 C 0.76022 0.84905 0.52448 0.0
C747 C 0.78325 0.84129 0.5058 0.0
C748 C 0.76183 0.87877 0.51214 0.0
C749 C 0.78643 0.90143 0.48058 0.0
H750 H 0.7418 0.83281 0.55034 0.0
H751 H 0.74469 0.88464 0.52912 0.0
S752 S 0.84861 0.88955 0.41502 0.0
N753 N 0.82863 0.85669 0.44948 0.0
N754 N 0.83142 0.91181 0.42604 0.0
C755 C 0.80806 0.8927 0.45922 0.0
C756 C 0.80655 0.86283 0.47192 0.0
C757 C 0.12645 0.88111 0.5076 0.0
C758 C 0.10571 0.88377 0.47288 0.0
C759 C 0.15604 0.90867 0.5219 0.0
C760 C 0.1655 0.93956 0.502 0.0
H761 H 0.11896 0.85806 0.52574 0.0
H762 H 0.17065 0.90611 0.55038 0.0
S763 S 0.12288 0.95815 0.40335 0.0
N764 N 0.09916 0.91891 0.41426 0.0
N765 N 0.15408 0.97027 0.44126 0.0
C766 C 0.14607 0.94191 0.46486 0.0
C767 C 0.11636 0.91411 0.45023 0.0
C768 C 0.78946 0.92992 0.05815 0.0
C769 C 0.7674 0.93754 0.03573 0.0
C770 C 0.79181 0.90301 0.04309 0.0
C771 C 0.77233 0.8826 1.00469 0.0
H772 H 0.8065 0.94601 0.08559 0.0
H773 H 0.81045 0.89925 0.05983 0.0
S774 S 0.70773 0.8895 0.93816 0.0
N775 N 0.72321 0.92071 0.97676 0.0
N776 N 0.72771 0.86971 0.9481 0.0
C777 C 0.74811 0.88813 0.98482 0.0
C778 C 0.74564 0.91577 1.00043 0.0
C779 C 0.12018 0.87406 0.02192 0.0
C780 C 0.12003 0.88871 0.9767 0.0
C781 C 0.09238 0.84523 0.03798 0.0
C782 C 0.06396 0.83042 1.00901 0.0
H783 H 0.14083 0.88624 0.04661 0.0
H784 H 0.09233 0.83588 0.0745 0.0
S785 S 0.05334 0.85635 0.88459 0.0
N786 N 0.09061 0.88407 0.90103 0.0
N787 N 0.03879 0.83022 0.93086 0.0
C788 C 0.06468 0.84344 0.96217 0.0
C789 C 0.09266 0.87252 0.94604 0.0
C790 C 0.15206 0.20902 0.97489 0.0
C791 C 0.17063 0.22916 0.01409 0.0
C792 C 0.12371 0.20825 0.95896 0.0
C793 C 0.11244 0.22742 0.98173 0.0
H794 H 0.15879 0.19262 0.95747 0.0
H795 H 0.10949 0.19107 0.93023 0.0
S796 S 0.1541 0.28711 0.08242 0.0
N797 N 0.17771 0.2712 0.07233 0.0
N798 N 0.12363 0.26944 0.04272 0.0
C799 C 0.13201 0.24959 0.01855 0.0
C800 C 0.16132 0.2505 0.03472 0.0
C801 C 0.91034 0.75216 0.4839 0.0
C802 C 0.94009 0.76904 0.50939 0.0
C803 C 0.883 0.75432 0.49931 0.0
C804 C 0.88489 0.77339 0.54052 0.0
H805 H 0.90887 0.73925 0.45011 0.0
H806 H 0.86122 0.74319 0.47673 0.0
S807 S 0.95551 0.81705 0.6244 0.0
N808 N 0.96839 0.80148 0.58131 0.0
N809 N 0.9174 0.80551 0.60998 0.0
C810 C 0.91365 0.78782 0.56847 0.0
C811 C 0.9412 0.78568 0.55291 0.0
C812 C 0.2487 0.15345 0.48361 0.0
C813 C 0.23212 0.16612 0.5105 0.0
C814 C 0.24746 0.12434 0.49865 0.0
C815 C 0.22959 0.10735 0.54083 0.0
H816 H 0.26065 0.16473 0.44917 0.0
H817 H 0.25837 0.11384 0.47519 0.0
S818 S 0.18716 0.13396 0.62806 0.0
N819 N 0.20128 0.16206 0.58448 0.0
N820 N 0.19888 0.1077 0.61239 0.0
C821 C 0.21542 0.12147 0.56996 0.0
C822 C 0.21669 0.1508 0.55483 0.0
C823 C 0.87288 0.12154 0.50072 0.0
C824 C 0.88792 0.12167 0.54566 0.0
C825 C 0.84357 0.09387 0.48588 0.0
C826 C 0.82873 0.06587 0.51576 0.0
H827 H 0.88514 0.14171 0.47523 0.0
H828 H 0.83392 0.09348 0.44947 0.0
S829 S 0.85575 0.05621 0.63978 0.0
N830 N 0.88371 0.09308 0.62207 0.0
N831 N 0.82897 0.04146 0.59437 0.0
C832 C 0.84214 0.06696 0.56235 0.0
C833 C 0.87167 0.09483 0.57732 0.0
C834 C 0.86783 0.42871 0.32219 0.0
C835 C 0.89261 0.45485 0.34887 0.0
C836 C 0.87061 0.40188 0.30823 0.0
C837 C 0.89833 0.39974 0.32003 0.0
H838 H 0.84547 0.42847 0.31285 0.0
H839 H 0.85019 0.38208 0.28934 0.0
S840 S 0.97181 0.46281 0.38499 0.0
N841 N 0.94719 0.47811 0.38315 0.0
N842 N 0.95237 0.42716 0.35678 0.0
C843 C 0.92432 0.42646 0.34396 0.0
C844 C 0.92148 0.45413 0.35839 0.0
C845 C 0.60665 0.46672 0.31577 0.0
C846 C 0.60843 0.49685 0.32393 0.0
C847 C 0.57945 0.43749 0.33004 0.0
C848 C 0.55251 0.43677 0.35333 0.0
H849 H 0.62695 0.46559 0.29951 0.0
H850 H 0.57999 0.4152 0.32363 0.0
S851 S 0.54339 0.50874 0.37915 0.0
N852 N 0.57985 0.52424 0.35359 0.0
N853 N 0.52823 0.46886 0.3805 0.0
C854 C 0.55296 0.46654 0.35919 0.0
C855 C 0.58101 0.49666 0.34451 0.0
C856 C 0.5342 0.14263 0.36562 0.0
C857 C 0.51099 0.11635 0.33745 0.0
C858 C 0.56325 0.14454 0.38033 0.0
C859 C 0.57098 0.12044 0.36726 0.0
H860 H 0.53008 0.16229 0.37649 0.0
H861 H 0.58013 0.16567 0.40157 0.0
S862 S 0.51784 0.04548 0.29566 0.0
N863 N 0.49672 0.0646 0.29885 0.0
N864 N 0.55219 0.06845 0.32587 0.0
C865 C 0.54756 0.09326 0.34046 0.0
C866 C 0.51743 0.09118 0.32566 0.0
C867 C 0.78681 0.57907 0.84256 0.0
C868 C 0.78391 0.55649 0.80609 0.0
C869 C 0.75946 0.58124 0.85792 0.0
C870 C 0.72856 0.56081 0.83726 0.0
H871 H 0.80984 0.59377 0.86126 0.0
H872 H 0.76214 0.5976 0.8878 0.0
S873 S 0.70949 0.50231 0.73434 0.0
N874 N 0.74862 0.51683 0.74526 0.0
N875 N 0.69765 0.52072 0.77411 0.0
C876 C 0.72603 0.54002 0.7984 0.0
C877 C 0.75361 0.53791 0.78278 0.0
C878 C 0.42339 0.17691 0.83174 0.0
C879 C 0.44696 0.17708 0.86371 0.0
C880 C 0.4253 0.20631 0.81641 0.0
C881 C 0.45088 0.23657 0.83265 0.0
H882 H 0.40455 0.15416 0.81631 0.0
H883 H 0.40777 0.20542 0.7899 0.0
S884 S 0.51451 0.24957 0.92423 0.0
N885 N 0.49363 0.2098 0.91607 0.0
N886 N 0.49707 0.26444 0.88811 0.0
C887 C 0.47288 0.23666 0.86753 0.0
C888 C 0.47098 0.20706 0.8828 0.0
C889 C 0.77093 0.24771 0.85168 0.0
C890 C 0.76982 0.22004 0.83055 0.0
C891 C 0.80033 0.275 0.86482 0.0
C892 C 0.83026 0.27616 0.85762 0.0
H893 H 0.74881 0.24871 0.85746 0.0
H894 H 0.79944 0.29577 0.87959 0.0
S895 S 0.84115 0.20922 0.80798 0.0
N896 N 0.80133 0.1945 0.80635 0.0
N897 N 0.85709 0.24634 0.83114 0.0
C898 C 0.82971 0.24813 0.83903 0.0
C899 C 0.79941 0.21997 0.82551 0.0
C900 C 0.42148 0.22251 0.317 0.0
C901 C 0.44279 0.21481 0.34203 0.0
C902 C 0.419 0.24994 0.33089 0.0
C903 C 0.43781 0.27026 0.37001 0.0
H904 H 0.40858 0.20882 0.28451 0.0
H905 H 0.40431 0.25667 0.30857 0.0
S906 S 0.49228 0.25666 0.45249 0.0
N907 N 0.47918 0.2268 0.41182 0.0
N908 N 0.47473 0.278 0.43729 0.0
C909 C 0.45688 0.26098 0.39758 0.0
C910 C 0.45928 0.23328 0.38376 0.0
C911 C 0.78755 0.2032 0.30887 0.0
C912 C 0.79526 0.23289 0.33169 0.0
C913 C 0.76 0.1738 0.32399 0.0
C914 C 0.73961 0.17349 0.3622 0.0
H915 H 0.8015 0.203 0.27729 0.0
H916 H 0.75337 0.15174 0.30344 0.0
S917 S 0.75335 0.24398 0.4392 0.0
N918 N 0.78322 0.25942 0.39841 0.0
N919 N 0.73196 0.20476 0.42643 0.0
C920 C 0.74888 0.20267 0.38753 0.0
C921 C 0.77664 0.23224 0.37239 0.0
C922 C 0.82 0.54485 0.30337 0.0
C923 C 0.83916 0.56575 0.34149 0.0
C924 C 0.79085 0.54296 0.28899 0.0
C925 C 0.77924 0.5617 0.3123 0.0
H926 H 0.82704 0.52885 0.2854 0.0
H927 H 0.77655 0.52551 0.26061 0.0
S928 S 0.82174 0.6226 0.41129 0.0
N929 N 0.84605 0.60768 0.39983 0.0
N930 N 0.79053 0.60389 0.37308 0.0
C931 C 0.79915 0.58439 0.34838 0.0
C932 C 0.82928 0.58645 0.36296 0.0
C933 C 0.59822 0.12786 0.79833 0.0
C934 C 0.60407 0.10448 0.82037 0.0
C935 C 0.57147 0.13091 0.81184 0.0
C936 C 0.5494 0.11085 0.84829 0.0
H937 H 0.61551 0.1453 0.77239 0.0
H938 H 0.56905 0.15044 0.79536 0.0
S939 S 0.55117 0.04265 0.91239 0.0
N940 N 0.58375 0.05837 0.87643 0.0
N941 N 0.53298 0.06416 0.90216 0.0
C942 C 0.55318 0.08536 0.86754 0.0
C943 C 0.58069 0.08217 0.85351 0.0
C944 C 0.91532 0.49129 0.81489 0.0
C945 C 0.898 0.50403 0.83958 0.0
C946 C 0.91422 0.46259 0.83189 0.0
C947 C 0.8958 0.44607 0.87397 0.0
H948 H 0.92801 0.5023 0.78077 0.0
H949 H 0.9259 0.45211 0.81013 0.0
S950 S 0.8514 0.47336 0.95617 0.0
N951 N 0.86577 0.50064 0.91143 0.0
N952 N 0.86382 0.44724 0.94331 0.0
C953 C 0.88079 0.46032 0.90092 0.0
C954 C 0.88182 0.48917 0.88368 0.0
C955 C 0.55186 0.42298 0.89505 0.0
C956 C 0.56228 0.45396 0.87492 0.0
C957 C 0.52293 0.39587 0.87982 0.0
C958 C 0.50288 0.39844 0.84402 0.0
H959 H 0.56695 0.41929 0.92137 0.0
H960 H 0.51675 0.37236 0.89523 0.0
S961 S 0.51717 0.47438 0.78298 0.0
N962 N 0.54899 0.48619 0.81971 0.0
N963 N 0.49388 0.4347 0.79144 0.0
C964 C 0.51158 0.42951 0.82591 0.0
C965 C 0.54147 0.45743 0.84134 0.0
C966 C 0.53622 0.72669 0.71058 0.0
C967 C 0.5602 0.72993 0.67682 0.0
C968 C 0.53404 0.75355 0.72618 0.0
C969 C 0.55556 0.78502 0.70844 0.0
H970 H 0.51825 0.70289 0.72426 0.0
H971 H 0.51439 0.74933 0.75111 0.0
S972 S 0.62465 0.80716 0.62252 0.0
N973 N 0.60764 0.76725 0.62881 0.0
N974 N 0.60332 0.8183 0.65765 0.0
C975 C 0.58101 0.78906 0.67684 0.0
C976 C 0.58336 0.76137 0.66109 0.0
C977 C 0.21502 0.79478 0.66768 0.0
C978 C 0.2164 0.77768 0.70935 0.0
C979 C 0.24212 0.82485 0.65388 0.0
C980 C 0.27106 0.83843 0.68159 0.0
H981 H 0.19388 0.78381 0.64375 0.0
H982 H 0.24121 0.83629 0.61977 0.0
S983 S 0.28472 0.80616 0.79827 0.0
N984 N 0.24743 0.77877 0.7814 0.0
N985 N 0.29797 0.83485 0.75561 0.0
C986 C 0.27158 0.82285 0.72535 0.0
C987 C 0.2443 0.79255 0.73925 0.0
C988 C 0.20925 0.41923 0.6641 0.0
C989 C 0.22618 0.43752 0.706 0.0
C990 C 0.17978 0.41728 0.64913 0.0
C991 C 0.16668 0.43353 0.67584 0.0
H992 H 0.22009 0.40865 0.64069 0.0
H993 H 0.16861 0.40514 0.61477 0.0
S994 S 0.19867 0.47938 0.79273 0.0
N995 N 0.22542 0.46828 0.77713 0.0
N996 N 0.17036 0.46449 0.74947 0.0
C997 C 0.18195 0.44929 0.72001 0.0
C998 C 0.21166 0.4513 0.73503 0.0
C999 C 0.42261 0.92415 0.16566 0.0
C1000 C 0.40325 0.90606 0.20605 0.0
C1001 C 0.44965 0.92137 0.15051 0.0
C1002 C 0.45783 0.90037 0.17539 0.0
H1003 H 0.41531 0.93839 0.14335 0.0
H1004 H 0.46261 0.93374 0.11722 0.0
S1005 S 0.41856 0.85283 0.28856 0.0
N1006 N 0.39699 0.87029 0.27428 0.0
N1007 N 0.44741 0.86508 0.24619 0.0
C1008 C 0.44037 0.88461 0.21826 0.0
C1009 C 0.41312 0.88743 0.23349 0.0
C1010 C 0.09463 0.53751 0.14825 0.0
C1011 C 0.11906 0.56751 0.1672 0.0
C1012 C 0.09271 0.50801 0.16304 0.0
C1013 C 0.11517 0.50786 0.19704 0.0
H1014 H 0.07832 0.53699 0.11981 0.0
H1015 H 0.07502 0.48555 0.14539 0.0
S1016 S 0.17916 0.57936 0.26436 0.0
N1017 N 0.16268 0.59464 0.22705 0.0
N1018 N 0.15932 0.53979 0.25393 0.0
C1019 C 0.13781 0.53746 0.21885 0.0
C1020 C 0.13966 0.56716 0.2042 0.0
C1021 C 0.47162 0.59999 0.21635 0.0
C1022 C 0.50172 0.60518 0.19877 0.0
C1023 C 0.44241 0.57269 0.20223 0.0
C1024 C 0.44186 0.5493 0.1696 0.0
H1025 H 0.47041 0.61803 0.23941 0.0
H1026 H 0.41988 0.57071 0.2154 0.0
S1027 S 0.5144 0.54932 0.11784 0.0
N1028 N 0.52971 0.5831 0.15096 0.0
N1029 N 0.47439 0.53136 0.12412 0.0
C1030 C 0.47192 0.55269 0.15482 0.0
C1031 C 0.50197 0.58076 0.16946 0.0
C1032 C 0.14397 0.60502 0.69772 0.0
C1033 C 0.11518 0.60601 0.68982 0.0
C1034 C 0.14651 0.57796 0.68448 0.0
C1035 C 0.12042 0.55033 0.66241 0.0
H1036 H 0.16527 0.62575 0.71331 0.0
H1037 H 0.16963 0.57912 0.69107 0.0
S1038 S 0.03847 0.53932 0.63711 0.0
N1039 N 0.05906 0.57621 0.66125 0.0
N1040 N 0.06378 0.52482 0.63617 0.0
C1041 C 0.09077 0.55017 0.65635 0.0
C1042 C 0.08817 0.57809 0.67008 0.0
C1043 C 0.39231 0.52696 0.63955 0.0
C1044 C 0.39531 0.5044 0.66948 0.0
C1045 C 0.41947 0.55616 0.6253 0.0
C1046 C 0.45107 0.56455 0.64072 0.0
H1047 H 0.36856 0.52231 0.62746 0.0
H1048 H 0.41539 0.57279 0.60304 0.0
S1049 S 0.47254 0.51287 0.71696 0.0
N1050 N 0.43246 0.49117 0.71173 0.0
N1051 N 0.48402 0.54683 0.68565 0.0
C1052 C 0.45476 0.54155 0.66885 0.0
C1053 C 0.42677 0.51133 0.68312 0.0
C1054 C 0.44513 0.86698 0.63465 0.0
C1055 C 0.4368 0.89004 0.6511 0.0
C1056 C 0.47394 0.86832 0.6494 0.0
C1057 C 0.49613 0.89296 0.68096 0.0
H1058 H 0.42871 0.84691 0.61121 0.0
H1059 H 0.47854 0.84933 0.63648 0.0
S1060 S 0.48768 0.96101 0.73166 0.0
N1061 N 0.45421 0.93964 0.69871 0.0
N1062 N 0.50916 0.94239 0.72582 0.0
C1063 C 0.48934 0.91741 0.6956 0.0
C1064 C 0.45951 0.91592 0.68078 0.0
C1065 C 0.22682 0.4222 0.19595 0.0
C1066 C 0.22059 0.44561 0.17452 0.0
C1067 C 0.25385 0.41939 0.18076 0.0
C1068 C 0.27516 0.43984 0.14372 0.0
H1069 H 0.21219 0.40765 0.22674 0.0
H1070 H 0.25944 0.40293 0.20055 0.0
S1071 S 0.26539 0.50012 0.06968 0.0
N1072 N 0.23499 0.4859 0.1096 0.0
N1073 N 0.28535 0.48063 0.08155 0.0
C1074 C 0.26734 0.46113 0.11939 0.0
C1075 C 0.24011 0.46399 0.13463 0.0
C1076 C 0.52818 0.80213 0.15409 0.0
C1077 C 0.55737 0.83191 0.15887 0.0
C1078 C 0.52612 0.77272 0.16735 0.0
C1079 C 0.55312 0.7714 0.18634 0.0
H1080 H 0.50623 0.80142 0.14111 0.0
H1081 H 0.50267 0.75077 0.16343 0.0
S1082 S 0.63628 0.8423 0.20237 0.0
N1083 N 0.61475 0.85834 0.18086 0.0
N1084 N 0.61091 0.80263 0.20599 0.0
C1085 C 0.58309 0.80082 0.189 0.0
C1086 C 0.58519 0.83113 0.17527 0.0
C1087 C 0.20895 0.73559 0.14806 0.0
C1088 C 0.17855 0.73335 0.15565 0.0
C1089 C 0.23787 0.76294 0.16281 0.0
C1090 C 0.238 0.78958 0.18608 0.0
H1091 H 0.21052 0.71551 0.13194 0.0
H1092 H 0.26038 0.76271 0.15687 0.0
S1093 S 0.16513 0.79758 0.21001 0.0
N1094 N 0.15027 0.76124 0.1844 0.0
N1095 N 0.20507 0.81317 0.21224 0.0
C1096 C 0.20796 0.78871 0.19122 0.0
C1097 C 0.17816 0.7605 0.17601 0.0
C1098 C 0.19438 0.21997 0.23514 0.0
C1099 C 0.21272 0.20876 0.20928 0.0
C1100 C 0.19436 0.22104 0.2871 0.0
C1101 C 0.21209 0.21021 0.31515 0.0
H1102 H 0.17878 0.22661 0.21506 0.0
H1103 H 0.17858 0.22821 0.30544 0.0
S1104 S 0.26489 0.17973 0.26568 0.0
N1105 N 0.25046 0.18833 0.21589 0.0
N1106 N 0.24935 0.18907 0.31341 0.0
C1107 C 0.23149 0.20016 0.28983 0.0
C1108 C 0.23214 0.19982 0.23692 0.0
C1109 C 0.8092 0.03538 0.24081 0.0
C1110 C 0.78961 0.00679 0.21389 0.0
C1111 C 0.80971 0.03509 0.29271 0.0
C1112 C 0.7902 0.00632 0.31961 0.0
H1113 H 0.82592 0.05761 0.22161 0.0
H1114 H 0.82662 0.05723 0.3119 0.0
S1115 S 0.73293 0.9255 0.26614 0.0
N1116 N 0.74924 0.94934 0.21757 0.0
N1117 N 0.74923 0.94894 0.31509 0.0
C1118 C 0.76892 0.97806 0.29305 0.0
C1119 C 0.76895 0.97823 0.24016 0.0
C1120 C 0.96963 0.77752 0.28356 0.0
C1121 C 0.99866 0.78718 0.31 0.0
C1122 C 0.96918 0.77752 0.23159 0.0
C1123 C 0.9979 0.78791 0.20413 0.0
H1124 H 0.94735 0.77132 0.30326 0.0
H1125 H 0.94663 0.77145 0.21287 0.0
S1126 S 0.07998 0.81437 0.25505 0.0
N1127 N 0.0565 0.80565 0.30439 0.0
N1128 N 0.05584 0.80685 0.20688 0.0
C1129 C 0.02679 0.79639 0.22992 0.0
C1130 C 0.02712 0.79564 0.28281 0.0
C1131 C 0.79734 0.83233 0.77509 0.0
C1132 C 0.7898 0.80538 0.80527 0.0
C1133 C 0.79901 0.83062 0.72364 0.0
C1134 C 0.79372 0.80196 0.69961 0.0
H1135 H 0.80336 0.8555 0.79163 0.0
H1136 H 0.80601 0.85261 0.70266 0.0
S1137 S 0.77057 0.72351 0.76179 0.0
N1138 N 0.77459 0.74832 0.80762 0.0
N1139 N 0.77815 0.74503 0.71048 0.0
C1140 C 0.78415 0.77409 0.72916 0.0
C1141 C 0.78217 0.77584 0.78205 0.0
C1142 C 0.23221 0.01759 0.72761 0.0
C1143 C 0.20877 0.99148 0.69913 0.0
C1144 C 0.23149 0.01621 0.77974 0.0
C1145 C 0.20779 0.98841 0.80487 0.0
H1146 H 0.24958 0.04011 0.70974 0.0
H1147 H 0.24825 0.03768 0.80043 0.0
S1148 S 0.14372 0.91223 0.74757 0.0
N1149 N 0.16312 0.93608 0.70021 0.0
N1150 N 0.16224 0.93342 0.79751 0.0
C1151 C 0.18585 0.96144 0.77675 0.0
C1152 C 0.18627 0.96296 0.72405 0.0
C1153 C 0.96887 0.17869 0.74273 0.0
C1154 C 0.99145 0.20458 0.71334 0.0
C1155 C 0.97135 0.17966 0.79432 0.0
C1156 C 0.99675 0.20649 0.81907 0.0
H1157 H 0.94999 0.15668 0.72548 0.0
H1158 H 0.95402 0.15838 0.81487 0.0
S1159 S 0.06085 0.28181 0.75901 0.0
N1160 N 0.03879 0.25884 0.71242 0.0
N1161 N 0.04371 0.26082 0.80981 0.0
C1162 C 0.01836 0.23356 0.79026 0.0
C1163 C 0.01571 0.23252 0.73729 0.0
C1164 C 0.85878 0.55376 0.56089 0.0
C1165 C 0.88142 0.54819 0.53517 0.0
C1166 C 0.85874 0.55521 0.61269 0.0
C1167 C 0.88112 0.55084 0.64096 0.0
H1168 H 0.83992 0.55551 0.54084 0.0
H1169 H 0.83966 0.55764 0.63086 0.0
S1170 S 0.94654 0.53734 0.59222 0.0
N1171 N 0.92818 0.54031 0.54222 0.0
N1172 N 0.92742 0.54214 0.63975 0.0
C1173 C 0.90487 0.54682 0.61592 0.0
C1174 C 0.90528 0.54585 0.56296 0.0
C1175 C 0.43866 0.31421 0.56849 0.0
C1176 C 0.45629 0.34417 0.54358 0.0
C1177 C 0.43751 0.31265 0.62046 0.0
C1178 C 0.45471 0.34094 0.64923 0.0
H1179 H 0.42744 0.29167 0.54768 0.0
H1180 H 0.42545 0.28896 0.63808 0.0
S1181 S 0.50243 0.42544 0.60199 0.0
N1182 N 0.4891 0.40284 0.55163 0.0
N1183 N 0.48789 0.3999 0.64905 0.0
C1184 C 0.47084 0.37113 0.62473 0.0
C1185 C 0.47141 0.37275 0.57194 0.0
C1186 C 0.64376 0.10575 0.62058 0.0
C1187 C 0.67341 0.12249 0.64652 0.0
C1188 C 0.643 0.10558 0.56861 0.0
C1189 C 0.67182 0.12289 0.54101 0.0
H1190 H 0.62091 0.09435 0.64064 0.0
H1191 H 0.6196 0.0941 0.55012 0.0
S1192 S 0.75565 0.16924 0.59111 0.0
N1193 N 0.73227 0.15499 0.64061 0.0
N1194 N 0.73079 0.15573 0.54318 0.0
C1195 C 0.70164 0.13832 0.56646 0.0
C1196 C 0.70246 0.13785 0.61921 0.0
C1197 C 0.46676 0.1619 0.11766 0.0
C1198 C 0.46042 0.13516 0.14749 0.0
C1199 C 0.46872 0.16055 0.06625 0.0
C1200 C 0.46477 0.13247 0.04205 0.0
H1201 H 0.47175 0.1847 0.13445 0.0
H1202 H 0.47484 0.18239 0.04537 0.0
S1203 S 0.44525 0.05476 0.10318 0.0
N1204 N 0.44799 0.07887 0.14932 0.0
N1205 N 0.45186 0.07628 0.05207 0.0
C1206 C 0.45637 0.10473 0.07115 0.0
C1207 C 0.45424 0.10612 0.12403 0.0
C1208 C 0.90381 0.362 0.11748 0.0
C1209 C 0.88643 0.33201 0.14235 0.0
C1210 C 0.90401 0.36366 0.06551 0.0
C1211 C 0.88605 0.33545 0.03681 0.0
H1212 H 0.91563 0.38448 0.1384 0.0
H1213 H 0.91599 0.38737 0.04797 0.0
S1214 S 0.83827 0.25095 0.08392 0.0
N1215 N 0.85285 0.27341 0.13421 0.0
N1216 N 0.8522 0.27658 0.03692 0.0
C1217 C 0.87005 0.30524 0.06119 0.0
C1218 C 0.87048 0.30351 0.11389 0.0
C1219 C 0.70431 0.55475 0.11423 0.0
C1220 C 0.67898 0.55355 0.14287 0.0
C1221 C 0.70273 0.55369 0.06245 0.0
C1222 C 0.6757 0.55133 0.03694 0.0
H1223 H 0.72461 0.55443 0.1321 0.0
H1224 H 0.7221 0.55291 0.04229 0.0
S1225 S 0.60393 0.54979 0.09496 0.0
N1226 N 0.62691 0.55177 0.14225 0.0
N1227 N 0.62396 0.55014 0.04471 0.0
C1228 C 0.65117 0.55233 0.06509 0.0
C1229 C 0.65274 0.55321 0.11812 0.0
C1230 C 0.54502 0.85527 0.95681 0.0
C1231 C 0.54368 0.88069 0.98167 0.0
C1232 C 0.54647 0.85449 0.90515 0.0
C1233 C 0.5466 0.87907 0.87604 0.0
H1234 H 0.54332 0.83487 0.9774 0.0
H1235 H 0.54548 0.83343 0.8877 0.0
S1236 S 0.54572 0.95221 0.92231 0.0
N1237 N 0.5448 0.9323 0.97298 0.0
N1238 N 0.54705 0.93049 0.87549 0.0
C1239 C 0.54715 0.90561 0.90016 0.0
C1240 C 0.54594 0.90657 0.95311 0.0
C1241 C 0.1491 0.6981 0.95108 0.0
C1242 C 0.12664 0.67002 0.97707 0.0
C1243 C 0.14855 0.69959 0.89936 0.0
C1244 C 0.12566 0.67301 0.8714 0.0
H1245 H 0.16845 0.7185 0.97076 0.0
H1246 H 0.16766 0.72089 0.88093 0.0
S1247 S 0.06016 0.59465 0.9211 0.0
N1248 N 0.07933 0.61581 0.97081 0.0
N1249 N 0.07884 0.61843 0.87329 0.0
C1250 C 0.10188 0.64549 0.89679 0.0
C1251 C 0.10215 0.64409 0.94974 0.0
C1252 C 0.37325 0.49571 0.93907 0.0
C1253 C 0.35369 0.46872 0.96908 0.0
C1254 C 0.36994 0.49413 0.8876 0.0
C1255 C 0.34649 0.46559 0.86348 0.0
H1256 H 0.39032 0.51884 0.95577 0.0
H1257 H 0.38496 0.51615 0.8667 0.0
S1258 S 0.29079 0.38714 0.92529 0.0
N1259 N 0.3116 0.41179 0.9712 0.0
N1260 N 0.30492 0.40872 0.87408 0.0
C1261 C 0.3281 0.43767 0.89287 0.0
C1262 C 0.33174 0.43929 0.94573 0.0
C1263 C 0.13077 0.48557 0.44927 0.0
C1264 C 0.12765 0.45945 0.47779 0.0
C1265 C 0.13335 0.48555 0.39772 0.0
C1266 C 0.13305 0.45944 0.37228 0.0
H1267 H 0.133 0.50704 0.46721 0.0
H1268 H 0.13712 0.50697 0.37772 0.0
S1269 S 0.12326 0.38409 0.42991 0.0
N1270 N 0.12267 0.40593 0.47712 0.0
N1271 N 0.12726 0.40569 0.37975 0.0
C1272 C 0.12796 0.4322 0.40013 0.0
C1273 C 0.12547 0.43233 0.45303 0.0
C1274 C 0.56169 0.70522 0.4017 0.0
C1275 C 0.55544 0.67779 0.37356 0.0
C1276 C 0.56055 0.70398 0.45358 0.0
C1277 C 0.55341 0.67535 0.47943 0.0
H1278 H 0.56511 0.72706 0.38345 0.0
H1279 H 0.5634 0.72506 0.47357 0.0
S1280 S 0.53766 0.59759 0.42267 0.0
N1281 N 0.54361 0.62175 0.37505 0.0
N1282 N 0.54226 0.61958 0.47257 0.0
C1283 C 0.54944 0.64848 0.45171 0.0
C1284 C 0.55012 0.64962 0.39876 0.0
C1285 C 0.29828 0.85793 0.4084 0.0
C1286 C 0.32457 0.88115 0.38032 0.0
C1287 C 0.29948 0.85819 0.46021 0.0
C1288 C 0.32709 0.88164 0.48617 0.0
H1289 H 0.27751 0.83809 0.39012 0.0
H1290 H 0.27932 0.83867 0.48005 0.0
S1291 S 0.40155 0.94913 0.42949 0.0
N1292 N 0.37825 0.92929 0.38184 0.0
N1293 N 0.38051 0.93011 0.47938 0.0
C1294 C 0.35266 0.90636 0.45852 0.0
C1295 C 0.35146 0.90593 0.40553 0.0
loop_
_geom_bond_atom_site_label_1
_geom_bond_atom_site_label_2
_geom_bond_distance
_geom_bond_site_symmetry_2
_ccdc_geom_bond_type
Co0 O1 2.216 1_554 S
Co0 O2 2.091 . S
Co0 O4 2.004 . S
Co0 O10 2.021 . S
Co0 O12 2.137 . S
Co0 O13 2.244 . S
O1 Co0 2.216 1_556 S
O1 C8 1.247 . S
O2 Co0 2.091 . S
O2 C8 1.261 1_554 S
C3 O12 1.247 . S
C3 O13 1.272 . S
O4 Co0 2.004 . S
O4 C9 1.259 . S
Co5 O6 2.061 . S
Co5 O11 2.052 . S
Co5 O13 2.135 . S
O6 Co5 2.061 . S
O6 C9 1.235 . S
C7 O10 1.238 . S
C7 O11 1.241 . S
C8 O1 1.247 . S
C8 O2 1.261 1_556 S
C9 O4 1.259 . S
C9 O6 1.235 . S
O10 Co0 2.021 . S
O10 C7 1.238 . S
O11 Co5 2.052 . S
O11 C7 1.241 . S
O12 Co0 2.137 . S
O12 C3 1.247 . S
O13 Co0 2.244 . S
O13 C3 1.272 . S
O13 Co5 2.135 . S
Co14 O15 2.216 1_554 S
Co14 O16 2.091 . S
Co14 O18 2.004 . S
Co14 O24 2.021 . S
Co14 O26 2.137 1_545 S
Co14 O27 2.244 1_545 S
O15 Co14 2.216 1_556 S
O15 C22 1.247 . S
O16 Co14 2.091 . S
O16 C22 1.261 1_554 S
C17 O26 1.247 . S
C17 O27 1.272 . S
O18 Co14 2.004 . S
O18 C23 1.259 . S
Co19 O20 2.061 . S
Co19 O25 2.052 . S
Co19 O27 2.135 1_545 S
O20 Co19 2.061 . S
O20 C23 1.235 . S
C21 O24 1.238 . S
C21 O25 1.241 . S
C22 O15 1.247 . S
C22 O16 1.261 1_556 S
C23 O18 1.259 . S
C23 O20 1.235 . S
O24 Co14 2.021 . S
O24 C21 1.238 . S
O25 Co19 2.052 . S
O25 C21 1.241 . S
O26 Co14 2.137 1_565 S
O26 C17 1.247 . S
O27 Co14 2.244 1_565 S
O27 C17 1.272 . S
O27 Co19 2.135 1_565 S
Co28 O29 2.216 1_554 S
Co28 O30 2.091 . S
Co28 O32 2.004 . S
Co28 O38 2.021 . S
Co28 O40 2.137 1_655 S
Co28 O41 2.244 1_655 S
O29 Co28 2.216 1_556 S
O29 C36 1.247 . S
O30 Co28 2.091 . S
O30 C36 1.261 1_554 S
C31 O40 1.247 . S
C31 O41 1.272 . S
O32 Co28 2.004 . S
O32 C37 1.259 . S
Co33 O34 2.061 . S
Co33 O39 2.052 . S
Co33 O41 2.135 1_655 S
O34 Co33 2.061 . S
O34 C37 1.235 . S
C35 O38 1.238 . S
C35 O39 1.241 . S
C36 O29 1.247 . S
C36 O30 1.261 1_556 S
C37 O32 1.259 . S
C37 O34 1.235 . S
O38 Co28 2.021 . S
O38 C35 1.238 . S
O39 Co33 2.052 . S
O39 C35 1.241 . S
O40 Co28 2.137 1_455 S
O40 C31 1.247 . S
O41 Co28 2.244 1_455 S
O41 C31 1.272 . S
O41 Co33 2.135 1_455 S
Co42 O43 2.216 . S
Co42 O44 2.091 . S
Co42 O46 2.004 . S
Co42 O52 2.021 . S
Co42 O54 2.137 . S
Co42 O55 2.244 . S
O43 Co42 2.216 . S
O43 C50 1.247 . S
O44 Co42 2.091 . S
O44 C50 1.261 . S
C45 O54 1.247 . S
C45 O55 1.272 . S
O46 Co42 2.004 . S
O46 C51 1.259 . S
Co47 O48 2.061 . S
Co47 O53 2.052 . S
Co47 O55 2.135 . S
O48 Co47 2.061 . S
O48 C51 1.235 . S
C49 O52 1.238 . S
C49 O53 1.241 . S
C50 O43 1.247 . S
C50 O44 1.261 . S
C51 O46 1.259 . S
C51 O48 1.235 . S
O52 Co42 2.021 . S
O52 C49 1.238 . S
O53 Co47 2.052 . S
O53 C49 1.241 . S
O54 Co42 2.137 . S
O54 C45 1.247 . S
O55 Co42 2.244 . S
O55 C45 1.272 . S
O55 Co47 2.135 . S
Co56 O57 2.216 . S
Co56 O58 2.091 . S
Co56 O60 2.004 . S
Co56 O66 2.021 . S
Co56 O68 2.137 1_565 S
Co56 O69 2.244 1_565 S
O57 Co56 2.216 . S
O57 C64 1.247 . S
O58 Co56 2.091 . S
O58 C64 1.261 . S
C59 O68 1.247 . S
C59 O69 1.272 . S
O60 Co56 2.004 . S
O60 C65 1.259 . S
Co61 O62 2.061 . S
Co61 O67 2.052 . S
Co61 O69 2.135 1_565 S
O62 Co61 2.061 . S
O62 C65 1.235 . S
C63 O66 1.238 . S
C63 O67 1.241 . S
C64 O57 1.247 . S
C64 O58 1.261 . S
C65 O60 1.259 . S
C65 O62 1.235 . S
O66 Co56 2.021 . S
O66 C63 1.238 . S
O67 Co61 2.052 . S
O67 C63 1.241 . S
O68 Co56 2.137 1_545 S
O68 C59 1.247 . S
O69 Co56 2.244 1_545 S
O69 C59 1.272 . S
O69 Co61 2.135 1_545 S
Co70 O71 2.216 . S
Co70 O72 2.091 . S
Co70 O74 2.004 . S
Co70 O80 2.021 . S
Co70 O82 2.137 1_455 S
Co70 O83 2.244 1_455 S
O71 Co70 2.216 . S
O71 C78 1.247 . S
O72 Co70 2.091 . S
O72 C78 1.261 . S
C73 O82 1.247 . S
C73 O83 1.272 . S
O74 Co70 2.004 . S
O74 C79 1.259 . S
Co75 O76 2.061 . S
Co75 O81 2.052 . S
Co75 O83 2.135 1_455 S
O76 Co75 2.061 . S
O76 C79 1.235 . S
C77 O80 1.238 . S
C77 O81 1.241 . S
C78 O71 1.247 . S
C78 O72 1.261 . S
C79 O74 1.259 . S
C79 O76 1.235 . S
O80 Co70 2.021 . S
O80 C77 1.238 . S
O81 Co75 2.052 . S
O81 C77 1.241 . S
O82 Co70 2.137 1_655 S
O82 C73 1.247 . S
O83 Co70 2.244 1_655 S
O83 C73 1.272 . S
O83 Co75 2.135 1_655 S
Co84 O85 2.216 1_556 S
Co84 O86 2.091 . S
Co84 O88 2.004 . S
Co84 O94 2.021 . S
Co84 O96 2.137 . S
Co84 O97 2.244 . S
O85 Co84 2.216 1_554 S
O85 C92 1.247 . S
O86 Co84 2.091 . S
O86 C92 1.261 1_556 S
C87 O96 1.247 . S
C87 O97 1.272 . S
O88 Co84 2.004 . S
O88 C93 1.259 . S
Co89 O90 2.061 . S
Co89 O95 2.052 . S
Co89 O97 2.135 . S
O90 Co89 2.061 . S
O90 C93 1.235 . S
C91 O94 1.238 . S
C91 O95 1.241 . S
C92 O85 1.247 . S
C92 O86 1.261 1_554 S
C93 O88 1.259 . S
C93 O90 1.235 . S
O94 Co84 2.021 . S
O94 C91 1.238 . S
O95 Co89 2.052 . S
O95 C91 1.241 . S
O96 Co84 2.137 . S
O96 C87 1.247 . S
O97 Co84 2.244 . S
O97 C87 1.272 . S
O97 Co89 2.135 . S
Co98 O99 2.216 1_556 S
Co98 O100 2.091 . S
Co98 O102 2.004 . S
Co98 O108 2.021 . S
Co98 O110 2.137 1_565 S
Co98 O111 2.244 1_565 S
O99 Co98 2.216 1_554 S
O99 C106 1.247 . S
O100 Co98 2.091 . S
O100 C106 1.261 1_556 S
C101 O110 1.247 . S
C101 O111 1.272 . S
O102 Co98 2.004 . S
O102 C107 1.259 . S
Co103 O104 2.061 . S
Co103 O109 2.052 . S
Co103 O111 2.135 1_565 S
O104 Co103 2.061 . S
O104 C107 1.235 . S
C105 O108 1.238 . S
C105 O109 1.241 . S
C106 O99 1.247 . S
C106 O100 1.261 1_554 S
C107 O102 1.259 . S
C107 O104 1.235 . S
O108 Co98 2.021 . S
O108 C105 1.238 . S
O109 Co103 2.052 . S
O109 C105 1.241 . S
O110 Co98 2.137 1_545 S
O110 C101 1.247 . S
O111 Co98 2.244 1_545 S
O111 C101 1.272 . S
O111 Co103 2.135 1_545 S
Co112 O113 2.216 1_556 S
Co112 O114 2.091 . S
Co112 O116 2.004 . S
Co112 O122 2.021 . S
Co112 O124 2.137 1_455 S
Co112 O125 2.244 1_455 S
O113 Co112 2.216 1_554 S
O113 C120 1.247 . S
O114 Co112 2.091 . S
O114 C120 1.261 1_556 S
C115 O124 1.247 . S
C115 O125 1.272 . S
O116 Co112 2.004 . S
O116 C121 1.259 . S
Co117 O118 2.061 . S
Co117 O123 2.052 . S
Co117 O125 2.135 1_455 S
O118 Co117 2.061 . S
O118 C121 1.235 . S
C119 O122 1.238 . S
C119 O123 1.241 . S
C120 O113 1.247 . S
C120 O114 1.261 1_554 S
C121 O116 1.259 . S
C121 O118 1.235 . S
O122 Co112 2.021 . S
O122 C119 1.238 . S
O123 Co117 2.052 . S
O123 C119 1.241 . S
O124 Co112 2.137 1_655 S
O124 C115 1.247 . S
O125 Co112 2.244 1_655 S
O125 C115 1.272 . S
O125 Co117 2.135 1_655 S
Co126 O127 2.216 . S
Co126 O128 2.091 . S
Co126 O130 2.004 . S
Co126 O136 2.021 . S
Co126 O138 2.137 . S
Co126 O139 2.244 . S
O127 Co126 2.216 . S
O127 C134 1.247 . S
O128 Co126 2.091 . S
O128 C134 1.261 . S
C129 O138 1.247 . S
C129 O139 1.272 . S
O130 Co126 2.004 . S
O130 C135 1.259 . S
Co131 O132 2.061 . S
Co131 O137 2.052 . S
Co131 O139 2.135 . S
O132 Co131 2.061 . S
O132 C135 1.235 . S
C133 O136 1.238 . S
C133 O137 1.241 . S
C134 O127 1.247 . S
C134 O128 1.261 . S
C135 O130 1.259 . S
C135 O132 1.235 . S
O136 Co126 2.021 . S
O136 C133 1.238 . S
O137 Co131 2.052 . S
O137 C133 1.241 . S
O138 Co126 2.137 . S
O138 C129 1.247 . S
O139 Co126 2.244 . S
O139 C129 1.272 . S
O139 Co131 2.135 . S
Co140 O141 2.216 . S
Co140 O142 2.091 . S
Co140 O144 2.004 . S
Co140 O150 2.021 . S
Co140 O152 2.137 1_545 S
Co140 O153 2.244 1_545 S
O141 Co140 2.216 . S
O141 C148 1.247 . S
O142 Co140 2.091 . S
O142 C148 1.261 . S
C143 O152 1.247 . S
C143 O153 1.272 . S
O144 Co140 2.004 . S
O144 C149 1.259 . S
Co145 O146 2.061 . S
Co145 O151 2.052 . S
Co145 O153 2.135 1_545 S
O146 Co145 2.061 . S
O146 C149 1.235 . S
C147 O150 1.238 . S
C147 O151 1.241 . S
C148 O141 1.247 . S
C148 O142 1.261 . S
C149 O144 1.259 . S
C149 O146 1.235 . S
O150 Co140 2.021 . S
O150 C147 1.238 . S
O151 Co145 2.052 . S
O151 C147 1.241 . S
O152 Co140 2.137 1_565 S
O152 C143 1.247 . S
O153 Co140 2.244 1_565 S
O153 C143 1.272 . S
O153 Co145 2.135 1_565 S
Co154 O155 2.216 . S
Co154 O156 2.091 . S
Co154 O158 2.004 . S
Co154 O164 2.021 . S
Co154 O166 2.137 1_655 S
Co154 O167 2.244 1_655 S
O155 Co154 2.216 . S
O155 C162 1.247 . S
O156 Co154 2.091 . S
O156 C162 1.261 . S
C157 O166 1.247 . S
C157 O167 1.272 . S
O158 Co154 2.004 . S
O158 C163 1.259 . S
Co159 O160 2.061 . S
Co159 O165 2.052 . S
Co159 O167 2.135 1_655 S
O160 Co159 2.061 . S
O160 C163 1.235 . S
C161 O164 1.238 . S
C161 O165 1.241 . S
C162 O155 1.247 . S
C162 O156 1.261 . S
C163 O158 1.259 . S
C163 O160 1.235 . S
O164 Co154 2.021 . S
O164 C161 1.238 . S
O165 Co159 2.052 . S
O165 C161 1.241 . S
O166 Co154 2.137 1_455 S
O166 C157 1.247 . S
O167 Co154 2.244 1_455 S
O167 C157 1.272 . S
O167 Co159 2.135 1_455 S
Co168 O169 2.216 . S
Co168 O170 2.091 . S
Co168 O172 2.004 . S
Co168 O178 2.021 . S
Co168 O180 2.137 . S
Co168 O181 2.244 . S
O169 Co168 2.216 . S
O169 C176 1.247 . S
O170 Co168 2.091 . S
O170 C176 1.261 . S
C171 O180 1.247 . S
C171 O181 1.272 . S
O172 Co168 2.004 . S
O172 C177 1.259 . S
Co173 O174 2.061 . S
Co173 O179 2.052 . S
Co173 O181 2.135 . S
O174 Co173 2.061 . S
O174 C177 1.235 . S
C175 O178 1.238 . S
C175 O179 1.241 . S
C176 O169 1.247 . S
C176 O170 1.261 . S
C177 O172 1.259 . S
C177 O174 1.235 . S
O178 Co168 2.021 . S
O178 C175 1.238 . S
O179 Co173 2.052 . S
O179 C175 1.241 . S
O180 Co168 2.137 . S
O180 C171 1.247 . S
O181 Co168 2.244 . S
O181 C171 1.272 . S
O181 Co173 2.135 . S
Co182 O183 2.216 . S
Co182 O184 2.091 . S
Co182 O186 2.004 . S
Co182 O192 2.021 . S
Co182 O194 2.137 . S
Co182 O195 2.244 . S
O183 Co182 2.216 . S
O183 C190 1.247 . S
O184 Co182 2.091 . S
O184 C190 1.261 . S
C185 O194 1.247 . S
C185 O195 1.272 . S
O186 Co182 2.004 . S
O186 C191 1.259 . S
Co187 O188 2.061 . S
Co187 O193 2.052 . S
Co187 O195 2.135 . S
O188 Co187 2.061 . S
O188 C191 1.235 . S
C189 O192 1.238 . S
C189 O193 1.241 . S
C190 O183 1.247 . S
C190 O184 1.261 . S
C191 O186 1.259 . S
C191 O188 1.235 . S
O192 Co182 2.021 . S
O192 C189 1.238 . S
O193 Co187 2.052 . S
O193 C189 1.241 . S
O194 Co182 2.137 . S
O194 C185 1.247 . S
O195 Co182 2.244 . S
O195 C185 1.272 . S
O195 Co187 2.135 . S
Co196 O197 2.216 . S
Co196 O198 2.091 . S
Co196 O200 2.004 . S
Co196 O206 2.021 . S
Co196 O208 2.137 . S
Co196 O209 2.244 . S
O197 Co196 2.216 . S
O197 C204 1.247 . S
O198 Co196 2.091 . S
O198 C204 1.261 . S
C199 O208 1.247 . S
C199 O209 1.272 . S
O200 Co196 2.004 . S
O200 C205 1.259 . S
Co201 O202 2.061 . S
Co201 O207 2.052 . S
Co201 O209 2.135 . S
O202 Co201 2.061 . S
O202 C205 1.235 . S
C203 O206 1.238 . S
C203 O207 1.241 . S
C204 O197 1.247 . S
C204 O198 1.261 . S
C205 O200 1.259 . S
C205 O202 1.235 . S
O206 Co196 2.021 . S
O206 C203 1.238 . S
O207 Co201 2.052 . S
O207 C203 1.241 . S
O208 Co196 2.137 . S
O208 C199 1.247 . S
O209 Co196 2.244 . S
O209 C199 1.272 . S
O209 Co201 2.135 . S
Co210 O211 2.216 . S
Co210 O212 2.091 . S
Co210 O214 2.004 . S
Co210 O220 2.021 . S
Co210 O222 2.137 . S
Co210 O223 2.244 . S
O211 Co210 2.216 . S
O211 C218 1.247 . S
O212 Co210 2.091 . S
O212 C218 1.261 . S
C213 O222 1.247 . S
C213 O223 1.272 . S
O214 Co210 2.004 . S
O214 C219 1.259 . S
Co215 O216 2.061 . S
Co215 O221 2.052 . S
Co215 O223 2.135 . S
O216 Co215 2.061 . S
O216 C219 1.235 . S
C217 O220 1.238 . S
C217 O221 1.241 . S
C218 O211 1.247 . S
C218 O212 1.261 . S
C219 O214 1.259 . S
C219 O216 1.235 . S
O220 Co210 2.021 . S
O220 C217 1.238 . S
O221 Co215 2.052 . S
O221 C217 1.241 . S
O222 Co210 2.137 . S
O222 C213 1.247 . S
O223 Co210 2.244 . S
O223 C213 1.272 . S
O223 Co215 2.135 . S
Co224 O225 2.216 . S
Co224 O226 2.091 . S
Co224 O228 2.004 . S
Co224 O234 2.021 . S
Co224 O236 2.137 . S
Co224 O237 2.244 . S
O225 Co224 2.216 . S
O225 C232 1.247 . S
O226 Co224 2.091 . S
O226 C232 1.261 . S
C227 O236 1.247 . S
C227 O237 1.272 . S
O228 Co224 2.004 . S
O228 C233 1.259 . S
Co229 O230 2.061 . S
Co229 O235 2.052 . S
Co229 O237 2.135 . S
O230 Co229 2.061 . S
O230 C233 1.235 . S
C231 O234 1.238 . S
C231 O235 1.241 . S
C232 O225 1.247 . S
C232 O226 1.261 . S
C233 O228 1.259 . S
C233 O230 1.235 . S
O234 Co224 2.021 . S
O234 C231 1.238 . S
O235 Co229 2.052 . S
O235 C231 1.241 . S
O236 Co224 2.137 . S
O236 C227 1.247 . S
O237 Co224 2.244 . S
O237 C227 1.272 . S
O237 Co229 2.135 . S
Co238 O239 2.216 . S
Co238 O240 2.091 . S
Co238 O242 2.004 . S
Co238 O248 2.021 . S
Co238 O250 2.137 . S
Co238 O251 2.244 . S
O239 Co238 2.216 . S
O239 C246 1.247 . S
O240 Co238 2.091 . S
O240 C246 1.261 . S
C241 O250 1.247 . S
C241 O251 1.272 . S
O242 Co238 2.004 . S
O242 C247 1.259 . S
Co243 O244 2.061 . S
Co243 O249 2.052 . S
Co243 O251 2.135 . S
O244 Co243 2.061 . S
O244 C247 1.235 . S
C245 O248 1.238 . S
C245 O249 1.241 . S
C246 O239 1.247 . S
C246 O240 1.261 . S
C247 O242 1.259 . S
C247 O244 1.235 . S
O248 Co238 2.021 . S
O248 C245 1.238 . S
O249 Co243 2.052 . S
O249 C245 1.241 . S
O250 Co238 2.137 . S
O250 C241 1.247 . S
O251 Co238 2.244 . S
O251 C241 1.272 . S
O251 Co243 2.135 . S
Co252 O253 2.216 . S
Co252 O254 2.091 . S
Co252 O256 2.004 . S
Co252 O262 2.021 . S
Co252 O264 2.137 . S
Co252 O265 2.244 . S
O253 Co252 2.216 . S
O253 C260 1.247 . S
O254 Co252 2.091 . S
O254 C260 1.261 . S
C255 O264 1.247 . S
C255 O265 1.272 . S
O256 Co252 2.004 . S
O256 C261 1.259 . S
Co257 O258 2.061 . S
Co257 O263 2.052 . S
Co257 O265 2.135 . S
O258 Co257 2.061 . S
O258 C261 1.235 . S
C259 O262 1.238 . S
C259 O263 1.241 . S
C260 O253 1.247 . S
C260 O254 1.261 . S
C261 O256 1.259 . S
C261 O258 1.235 . S
O262 Co252 2.021 . S
O262 C259 1.238 . S
O263 Co257 2.052 . S
O263 C259 1.241 . S
O264 Co252 2.137 . S
O264 C255 1.247 . S
O265 Co252 2.244 . S
O265 C255 1.272 . S
O265 Co257 2.135 . S
Co266 O267 2.216 . S
Co266 O268 2.091 . S
Co266 O270 2.004 . S
Co266 O276 2.021 . S
Co266 O278 2.137 . S
Co266 O279 2.244 . S
O267 Co266 2.216 . S
O267 C274 1.247 . S
O268 Co266 2.091 . S
O268 C274 1.261 . S
C269 O278 1.247 . S
C269 O279 1.272 . S
O270 Co266 2.004 . S
O270 C275 1.259 . S
Co271 O272 2.061 . S
Co271 O277 2.052 . S
Co271 O279 2.135 . S
O272 Co271 2.061 . S
O272 C275 1.235 . S
C273 O276 1.238 . S
C273 O277 1.241 . S
C274 O267 1.247 . S
C274 O268 1.261 . S
C275 O270 1.259 . S
C275 O272 1.235 . S
O276 Co266 2.021 . S
O276 C273 1.238 . S
O277 Co271 2.052 . S
O277 C273 1.241 . S
O278 Co266 2.137 . S
O278 C269 1.247 . S
O279 Co266 2.244 . S
O279 C269 1.272 . S
O279 Co271 2.135 . S
Co280 O281 2.216 . S
Co280 O282 2.091 . S
Co280 O284 2.004 . S
Co280 O290 2.021 . S
Co280 O292 2.137 . S
Co280 O293 2.244 . S
O281 Co280 2.216 . S
O281 C288 1.247 . S
O282 Co280 2.091 . S
O282 C288 1.261 . S
C283 O292 1.247 . S
C283 O293 1.272 . S
O284 Co280 2.004 . S
O284 C289 1.259 . S
Co285 O286 2.061 . S
Co285 O291 2.052 . S
Co285 O293 2.135 . S
O286 Co285 2.061 . S
O286 C289 1.235 . S
C287 O290 1.238 . S
C287 O291 1.241 . S
C288 O281 1.247 . S
C288 O282 1.261 . S
C289 O284 1.259 . S
C289 O286 1.235 . S
O290 Co280 2.021 . S
O290 C287 1.238 . S
O291 Co285 2.052 . S
O291 C287 1.241 . S
O292 Co280 2.137 . S
O292 C283 1.247 . S
O293 Co280 2.244 . S
O293 C283 1.272 . S
O293 Co285 2.135 . S
Co294 O295 2.216 . S
Co294 O296 2.091 . S
Co294 O298 2.004 . S
Co294 O304 2.021 . S
Co294 O306 2.137 . S
Co294 O307 2.244 . S
O295 Co294 2.216 . S
O295 C302 1.247 . S
O296 Co294 2.091 . S
O296 C302 1.261 . S
C297 O306 1.247 . S
C297 O307 1.272 . S
O298 Co294 2.004 . S
O298 C303 1.259 . S
Co299 O300 2.061 . S
Co299 O305 2.052 . S
Co299 O307 2.135 . S
O300 Co299 2.061 . S
O300 C303 1.235 . S
C301 O304 1.238 . S
C301 O305 1.241 . S
C302 O295 1.247 . S
C302 O296 1.261 . S
C303 O298 1.259 . S
C303 O300 1.235 . S
O304 Co294 2.021 . S
O304 C301 1.238 . S
O305 Co299 2.052 . S
O305 C301 1.241 . S
O306 Co294 2.137 . S
O306 C297 1.247 . S
O307 Co294 2.244 . S
O307 C297 1.272 . S
O307 Co299 2.135 . S
Co308 O309 2.216 . S
Co308 O310 2.091 . S
Co308 O312 2.004 . S
Co308 O318 2.021 . S
Co308 O320 2.137 . S
Co308 O321 2.244 . S
O309 Co308 2.216 . S
O309 C316 1.247 . S
O310 Co308 2.091 . S
O310 C316 1.261 . S
C311 O320 1.247 . S
C311 O321 1.272 . S
O312 Co308 2.004 . S
O312 C317 1.259 . S
Co313 O314 2.061 . S
Co313 O319 2.052 . S
Co313 O321 2.135 . S
O314 Co313 2.061 . S
O314 C317 1.235 . S
C315 O318 1.238 . S
C315 O319 1.241 . S
C316 O309 1.247 . S
C316 O310 1.261 . S
C317 O312 1.259 . S
C317 O314 1.235 . S
O318 Co308 2.021 . S
O318 C315 1.238 . S
O319 Co313 2.052 . S
O319 C315 1.241 . S
O320 Co308 2.137 . S
O320 C311 1.247 . S
O321 Co308 2.244 . S
O321 C311 1.272 . S
O321 Co313 2.135 . S
Co322 O323 2.216 . S
Co322 O324 2.091 . S
Co322 O326 2.004 . S
Co322 O332 2.021 . S
Co322 O334 2.137 . S
Co322 O335 2.244 . S
O323 Co322 2.216 . S
O323 C330 1.247 . S
O324 Co322 2.091 . S
O324 C330 1.261 . S
C325 O334 1.247 . S
C325 O335 1.272 . S
O326 Co322 2.004 . S
O326 C331 1.259 . S
Co327 O328 2.061 . S
Co327 O333 2.052 . S
Co327 O335 2.135 . S
O328 Co327 2.061 . S
O328 C331 1.235 . S
C329 O332 1.238 . S
C329 O333 1.241 . S
C330 O323 1.247 . S
C330 O324 1.261 . S
C331 O326 1.259 . S
C331 O328 1.235 . S
O332 Co322 2.021 . S
O332 C329 1.238 . S
O333 Co327 2.052 . S
O333 C329 1.241 . S
O334 Co322 2.137 . S
O334 C325 1.247 . S
O335 Co322 2.244 . S
O335 C325 1.272 . S
O335 Co327 2.135 . S
Co336 O337 2.216 . S
Co336 O338 2.091 . S
Co336 O340 2.004 . S
Co336 O346 2.021 . S
Co336 O348 2.137 . S
Co336 O349 2.244 . S
O337 Co336 2.216 . S
O337 C344 1.247 . S
O338 Co336 2.091 . S
O338 C344 1.261 . S
C339 O348 1.247 . S
C339 O349 1.272 . S
O340 Co336 2.004 . S
O340 C345 1.259 . S
Co341 O342 2.061 . S
Co341 O347 2.052 . S
Co341 O349 2.135 . S
O342 Co341 2.061 . S
O342 C345 1.235 . S
C343 O346 1.238 . S
C343 O347 1.241 . S
C344 O337 1.247 . S
C344 O338 1.261 . S
C345 O340 1.259 . S
C345 O342 1.235 . S
O346 Co336 2.021 . S
O346 C343 1.238 . S
O347 Co341 2.052 . S
O347 C343 1.241 . S
O348 Co336 2.137 . S
O348 C339 1.247 . S
O349 Co336 2.244 . S
O349 C339 1.272 . S
O349 Co341 2.135 . S
Co350 O351 2.216 . S
Co350 O352 2.091 . S
Co350 O354 2.004 . S
Co350 O360 2.021 . S
Co350 O362 2.137 . S
Co350 O363 2.244 . S
O351 Co350 2.216 . S
O351 C358 1.247 . S
O352 Co350 2.091 . S
O352 C358 1.261 . S
C353 O362 1.247 . S
C353 O363 1.272 . S
O354 Co350 2.004 . S
O354 C359 1.259 . S
Co355 O356 2.061 . S
Co355 O361 2.052 . S
Co355 O363 2.135 . S
O356 Co355 2.061 . S
O356 C359 1.235 . S
C357 O360 1.238 . S
C357 O361 1.241 . S
C358 O351 1.247 . S
C358 O352 1.261 . S
C359 O354 1.259 . S
C359 O356 1.235 . S
O360 Co350 2.021 . S
O360 C357 1.238 . S
O361 Co355 2.052 . S
O361 C357 1.241 . S
O362 Co350 2.137 . S
O362 C353 1.247 . S
O363 Co350 2.244 . S
O363 C353 1.272 . S
O363 Co355 2.135 . S
Co364 O365 2.216 . S
Co364 O366 2.091 . S
Co364 O368 2.004 . S
Co364 O374 2.021 . S
Co364 O376 2.137 . S
Co364 O377 2.244 . S
O365 Co364 2.216 . S
O365 C372 1.247 . S
O366 Co364 2.091 . S
O366 C372 1.261 . S
C367 O376 1.247 . S
C367 O377 1.272 . S
O368 Co364 2.004 . S
O368 C373 1.259 . S
Co369 O370 2.061 . S
Co369 O375 2.052 . S
Co369 O377 2.135 . S
O370 Co369 2.061 . S
O370 C373 1.235 . S
C371 O374 1.238 . S
C371 O375 1.241 . S
C372 O365 1.247 . S
C372 O366 1.261 . S
C373 O368 1.259 . S
C373 O370 1.235 . S
O374 Co364 2.021 . S
O374 C371 1.238 . S
O375 Co369 2.052 . S
O375 C371 1.241 . S
O376 Co364 2.137 . S
O376 C367 1.247 . S
O377 Co364 2.244 . S
O377 C367 1.272 . S
O377 Co369 2.135 . S
Co378 O379 2.216 . S
Co378 O380 2.091 . S
Co378 O382 2.004 . S
Co378 O388 2.021 . S
Co378 O390 2.137 . S
Co378 O391 2.244 . S
O379 Co378 2.216 . S
O379 C386 1.247 . S
O380 Co378 2.091 . S
O380 C386 1.261 . S
C381 O390 1.247 . S
C381 O391 1.272 . S
O382 Co378 2.004 . S
O382 C387 1.259 . S
Co383 O384 2.061 . S
Co383 O389 2.052 . S
Co383 O391 2.135 . S
O384 Co383 2.061 . S
O384 C387 1.235 . S
C385 O388 1.238 . S
C385 O389 1.241 . S
C386 O379 1.247 . S
C386 O380 1.261 . S
C387 O382 1.259 . S
C387 O384 1.235 . S
O388 Co378 2.021 . S
O388 C385 1.238 . S
O389 Co383 2.052 . S
O389 C385 1.241 . S
O390 Co378 2.137 . S
O390 C381 1.247 . S
O391 Co378 2.244 . S
O391 C381 1.272 . S
O391 Co383 2.135 . S
Co392 O393 2.216 . S
Co392 O394 2.091 . S
Co392 O396 2.004 . S
Co392 O402 2.021 . S
Co392 O404 2.137 . S
Co392 O405 2.244 . S
O393 Co392 2.216 . S
O393 C400 1.247 . S
O394 Co392 2.091 . S
O394 C400 1.261 . S
C395 O404 1.247 . S
C395 O405 1.272 . S
O396 Co392 2.004 . S
O396 C401 1.259 . S
Co397 O398 2.061 . S
Co397 O403 2.052 . S
Co397 O405 2.135 . S
O398 Co397 2.061 . S
O398 C401 1.235 . S
C399 O402 1.238 . S
C399 O403 1.241 . S
C400 O393 1.247 . S
C400 O394 1.261 . S
C401 O396 1.259 . S
C401 O398 1.235 . S
O402 Co392 2.021 . S
O402 C399 1.238 . S
O403 Co397 2.052 . S
O403 C399 1.241 . S
O404 Co392 2.137 . S
O404 C395 1.247 . S
O405 Co392 2.244 . S
O405 C395 1.272 . S
O405 Co397 2.135 . S
Co406 O407 2.216 . S
Co406 O408 2.091 . S
Co406 O410 2.004 . S
Co406 O416 2.021 . S
Co406 O418 2.137 . S
Co406 O419 2.244 . S
O407 Co406 2.216 . S
O407 C414 1.247 . S
O408 Co406 2.091 . S
O408 C414 1.261 . S
C409 O418 1.247 . S
C409 O419 1.272 . S
O410 Co406 2.004 . S
O410 C415 1.259 . S
Co411 O412 2.061 . S
Co411 O417 2.052 . S
Co411 O419 2.135 . S
O412 Co411 2.061 . S
O412 C415 1.235 . S
C413 O416 1.238 . S
C413 O417 1.241 . S
C414 O407 1.247 . S
C414 O408 1.261 . S
C415 O410 1.259 . S
C415 O412 1.235 . S
O416 Co406 2.021 . S
O416 C413 1.238 . S
O417 Co411 2.052 . S
O417 C413 1.241 . S
O418 Co406 2.137 . S
O418 C409 1.247 . S
O419 Co406 2.244 . S
O419 C409 1.272 . S
O419 Co411 2.135 . S
Co420 O421 2.216 . S
Co420 O422 2.091 . S
Co420 O424 2.004 . S
Co420 O430 2.021 . S
Co420 O432 2.137 . S
Co420 O433 2.244 . S
O421 Co420 2.216 . S
O421 C428 1.247 . S
O422 Co420 2.091 . S
O422 C428 1.261 . S
C423 O432 1.247 . S
C423 O433 1.272 . S
O424 Co420 2.004 . S
O424 C429 1.259 . S
Co425 O426 2.061 . S
Co425 O431 2.052 . S
Co425 O433 2.135 . S
O426 Co425 2.061 . S
O426 C429 1.235 . S
C427 O430 1.238 . S
C427 O431 1.241 . S
C428 O421 1.247 . S
C428 O422 1.261 . S
C429 O424 1.259 . S
C429 O426 1.235 . S
O430 Co420 2.021 . S
O430 C427 1.238 . S
O431 Co425 2.052 . S
O431 C427 1.241 . S
O432 Co420 2.137 . S
O432 C423 1.247 . S
O433 Co420 2.244 . S
O433 C423 1.272 . S
O433 Co425 2.135 . S
Co434 O435 2.216 . S
Co434 O436 2.091 . S
Co434 O438 2.004 . S
Co434 O444 2.021 . S
Co434 O446 2.137 . S
Co434 O447 2.244 . S
O435 Co434 2.216 . S
O435 C442 1.247 . S
O436 Co434 2.091 . S
O436 C442 1.261 . S
C437 O446 1.247 . S
C437 O447 1.272 . S
O438 Co434 2.004 . S
O438 C443 1.259 . S
Co439 O440 2.061 . S
Co439 O445 2.052 . S
Co439 O447 2.135 . S
O440 Co439 2.061 . S
O440 C443 1.235 . S
C441 O444 1.238 . S
C441 O445 1.241 . S
C442 O435 1.247 . S
C442 O436 1.261 . S
C443 O438 1.259 . S
C443 O440 1.235 . S
O444 Co434 2.021 . S
O444 C441 1.238 . S
O445 Co439 2.052 . S
O445 C441 1.241 . S
O446 Co434 2.137 . S
O446 C437 1.247 . S
O447 Co434 2.244 . S
O447 C437 1.272 . S
O447 Co439 2.135 . S
Co448 O449 2.216 . S
Co448 O450 2.091 . S
Co448 O452 2.004 . S
Co448 O458 2.021 . S
Co448 O460 2.137 . S
Co448 O461 2.244 . S
O449 Co448 2.216 . S
O449 C456 1.247 . S
O450 Co448 2.091 . S
O450 C456 1.261 . S
C451 O460 1.247 . S
C451 O461 1.272 . S
O452 Co448 2.004 . S
O452 C457 1.259 . S
Co453 O454 2.061 . S
Co453 O459 2.052 . S
Co453 O461 2.135 . S
O454 Co453 2.061 . S
O454 C457 1.235 . S
C455 O458 1.238 . S
C455 O459 1.241 . S
C456 O449 1.247 . S
C456 O450 1.261 . S
C457 O452 1.259 . S
C457 O454 1.235 . S
O458 Co448 2.021 . S
O458 C455 1.238 . S
O459 Co453 2.052 . S
O459 C455 1.241 . S
O460 Co448 2.137 . S
O460 C451 1.247 . S
O461 Co448 2.244 . S
O461 C451 1.272 . S
O461 Co453 2.135 . S
Co462 O463 2.216 . S
Co462 O464 2.091 . S
Co462 O466 2.004 . S
Co462 O472 2.021 . S
Co462 O474 2.137 . S
Co462 O475 2.244 . S
O463 Co462 2.216 . S
O463 C470 1.247 . S
O464 Co462 2.091 . S
O464 C470 1.261 . S
C465 O474 1.247 . S
C465 O475 1.272 . S
O466 Co462 2.004 . S
O466 C471 1.259 . S
Co467 O468 2.061 . S
Co467 O473 2.052 . S
Co467 O475 2.135 . S
O468 Co467 2.061 . S
O468 C471 1.235 . S
C469 O472 1.238 . S
C469 O473 1.241 . S
C470 O463 1.247 . S
C470 O464 1.261 . S
C471 O466 1.259 . S
C471 O468 1.235 . S
O472 Co462 2.021 . S
O472 C469 1.238 . S
O473 Co467 2.052 . S
O473 C469 1.241 . S
O474 Co462 2.137 . S
O474 C465 1.247 . S
O475 Co462 2.244 . S
O475 C465 1.272 . S
O475 Co467 2.135 . S
Co476 O477 2.216 . S
Co476 O478 2.091 . S
Co476 O480 2.004 . S
Co476 O486 2.021 . S
Co476 O488 2.137 . S
Co476 O489 2.244 . S
O477 Co476 2.216 . S
O477 C484 1.247 . S
O478 Co476 2.091 . S
O478 C484 1.261 . S
C479 O488 1.247 . S
C479 O489 1.272 . S
O480 Co476 2.004 . S
O480 C485 1.259 . S
Co481 O482 2.061 . S
Co481 O487 2.052 . S
Co481 O489 2.135 . S
O482 Co481 2.061 . S
O482 C485 1.235 . S
C483 O486 1.238 . S
C483 O487 1.241 . S
C484 O477 1.247 . S
C484 O478 1.261 . S
C485 O480 1.259 . S
C485 O482 1.235 . S
O486 Co476 2.021 . S
O486 C483 1.238 . S
O487 Co481 2.052 . S
O487 C483 1.241 . S
O488 Co476 2.137 . S
O488 C479 1.247 . S
O489 Co476 2.244 . S
O489 C479 1.272 . S
O489 Co481 2.135 . S
Co490 O491 2.216 . S
Co490 O492 2.091 . S
Co490 O494 2.004 . S
Co490 O500 2.021 . S
Co490 O502 2.137 . S
Co490 O503 2.244 . S
O491 Co490 2.216 . S
O491 C498 1.247 . S
O492 Co490 2.091 . S
O492 C498 1.261 . S
C493 O502 1.247 . S
C493 O503 1.272 . S
O494 Co490 2.004 . S
O494 C499 1.259 . S
Co495 O496 2.061 . S
Co495 O501 2.052 . S
Co495 O503 2.135 . S
O496 Co495 2.061 . S
O496 C499 1.235 . S
C497 O500 1.238 . S
C497 O501 1.241 . S
C498 O491 1.247 . S
C498 O492 1.261 . S
C499 O494 1.259 . S
C499 O496 1.235 . S
O500 Co490 2.021 . S
O500 C497 1.238 . S
O501 Co495 2.052 . S
O501 C497 1.241 . S
O502 Co490 2.137 . S
O502 C493 1.247 . S
O503 Co490 2.244 . S
O503 C493 1.272 . S
O503 Co495 2.135 . S
C504 C505 1.369 . S
C504 C506 1.419 . S
C504 H508 0.930 . S
C505 C504 1.369 . S
C505 C514 1.429 . S
C506 C504 1.419 . S
C506 C507 1.363 . S
C506 H509 0.929 . S
C507 C506 1.363 . S
C507 C513 1.428 . S
H508 C504 0.930 . S
H509 C506 0.929 . S
S510 N511 1.613 . S
S510 N512 1.610 . S
N511 S510 1.613 . S
N511 C514 1.350 . S
N512 S510 1.610 . S
N512 C513 1.351 . S
C513 C507 1.428 . S
C513 N512 1.351 . S
C513 C514 1.434 . S
C514 C505 1.429 . S
C514 N511 1.350 . S
C514 C513 1.434 . S
C515 C516 1.369 . S
C515 C517 1.419 . S
C515 H519 0.930 . S
C516 C515 1.369 . S
C516 C525 1.429 . S
C517 C515 1.419 . S
C517 C518 1.363 . S
C517 H520 0.929 . S
C518 C517 1.363 . S
C518 C524 1.428 . S
H519 C515 0.930 . S
H520 C517 0.929 . S
S521 N522 1.613 1_554 S
S521 N523 1.610 . S
N522 S521 1.613 1_556 S
N522 C525 1.350 . S
N523 S521 1.610 . S
N523 C524 1.351 1_554 S
C524 C518 1.428 . S
C524 N523 1.351 1_556 S
C524 C525 1.434 . S
C525 C516 1.429 . S
C525 N522 1.350 . S
C525 C524 1.434 . S
C526 C527 1.369 . S
C526 C528 1.419 . S
C526 H530 0.930 . S
C527 C526 1.369 . S
C527 C536 1.429 . S
C528 C526 1.419 . S
C528 C529 1.363 . S
C528 H531 0.929 . S
C529 C528 1.363 . S
C529 C535 1.428 . S
H530 C526 0.930 . S
H531 C528 0.929 . S
S532 N533 1.613 . S
S532 N534 1.610 1_554 S
N533 S532 1.613 . S
N533 C536 1.350 1_554 S
N534 S532 1.610 1_556 S
N534 C535 1.351 . S
C535 C529 1.428 . S
C535 N534 1.351 . S
C535 C536 1.434 . S
C536 C527 1.429 . S
C536 N533 1.350 1_556 S
C536 C535 1.434 . S
C537 C538 1.369 . S
C537 C539 1.419 . S
C537 H541 0.930 . S
C538 C537 1.369 . S
C538 C547 1.429 . S
C539 C537 1.419 . S
C539 C540 1.363 . S
C539 H542 0.929 . S
C540 C539 1.363 . S
C540 C546 1.428 . S
H541 C537 0.930 . S
H542 C539 0.929 . S
S543 N544 1.613 . S
S543 N545 1.610 . S
N544 S543 1.613 . S
N544 C547 1.350 . S
N545 S543 1.610 . S
N545 C546 1.351 . S
C546 C540 1.428 . S
C546 N545 1.351 . S
C546 C547 1.434 . S
C547 C538 1.429 . S
C547 N544 1.350 . S
C547 C546 1.434 . S
C548 C549 1.369 . S
C548 C550 1.419 . S
C548 H552 0.930 . S
C549 C548 1.369 . S
C549 C558 1.429 . S
C550 C548 1.419 . S
C550 C551 1.363 . S
C550 H553 0.929 . S
C551 C550 1.363 . S
C551 C557 1.428 . S
H552 C548 0.930 . S
H553 C550 0.929 . S
S554 N555 1.613 . S
S554 N556 1.610 . S
N555 S554 1.613 . S
N555 C558 1.350 . S
N556 S554 1.610 . S
N556 C557 1.351 . S
C557 C551 1.428 . S
C557 N556 1.351 . S
C557 C558 1.434 . S
C558 C549 1.429 . S
C558 N555 1.350 . S
C558 C557 1.434 . S
C559 C560 1.369 . S
C559 C561 1.419 . S
C559 H563 0.930 . S
C560 C559 1.369 . S
C560 C569 1.429 . S
C561 C559 1.419 . S
C561 C562 1.363 . S
C561 H564 0.929 . S
C562 C561 1.363 . S
C562 C568 1.428 . S
H563 C559 0.930 . S
H564 C561 0.929 . S
S565 N566 1.613 . S
S565 N567 1.610 . S
N566 S565 1.613 . S
N566 C569 1.350 . S
N567 S565 1.610 . S
N567 C568 1.351 . S
C568 C562 1.428 . S
C568 N567 1.351 . S
C568 C569 1.434 . S
C569 C560 1.429 . S
C569 N566 1.350 . S
C569 C568 1.434 . S
C570 C571 1.369 . S
C570 C572 1.419 . S
C570 H574 0.930 . S
C571 C570 1.369 . S
C571 C580 1.429 . S
C572 C570 1.419 . S
C572 C573 1.363 . S
C572 H575 0.929 . S
C573 C572 1.363 . S
C573 C579 1.428 . S
H574 C570 0.930 . S
H575 C572 0.929 . S
S576 N577 1.613 . S
S576 N578 1.610 . S
N577 S576 1.613 . S
N577 C580 1.350 . S
N578 S576 1.610 . S
N578 C579 1.351 . S
C579 C573 1.428 . S
C579 N578 1.351 . S
C579 C580 1.434 . S
C580 C571 1.429 . S
C580 N577 1.350 . S
C580 C579 1.434 . S
C581 C582 1.369 . S
C581 C583 1.419 . S
C581 H585 0.930 . S
C582 C581 1.369 . S
C582 C591 1.429 . S
C583 C581 1.419 . S
C583 C584 1.363 . S
C583 H586 0.929 . S
C584 C583 1.363 . S
C584 C590 1.428 . S
H585 C581 0.930 . S
H586 C583 0.929 . S
S587 N588 1.613 . S
S587 N589 1.610 . S
N588 S587 1.613 . S
N588 C591 1.350 . S
N589 S587 1.610 . S
N589 C590 1.351 . S
C590 C584 1.428 . S
C590 N589 1.351 . S
C590 C591 1.434 . S
C591 C582 1.429 . S
C591 N588 1.350 . S
C591 C590 1.434 . S
C592 C593 1.369 . S
C592 C594 1.419 . S
C592 H596 0.930 . S
C593 C592 1.369 . S
C593 C602 1.429 . S
C594 C592 1.419 . S
C594 C595 1.363 . S
C594 H597 0.929 . S
C595 C594 1.363 . S
C595 C601 1.428 . S
H596 C592 0.930 . S
H597 C594 0.929 . S
S598 N599 1.613 1_556 S
S598 N600 1.610 . S
N599 S598 1.613 1_554 S
N599 C602 1.350 . S
N600 S598 1.610 . S
N600 C601 1.351 1_556 S
C601 C595 1.428 . S
C601 N600 1.351 1_554 S
C601 C602 1.434 . S
C602 C593 1.429 . S
C602 N599 1.350 . S
C602 C601 1.434 . S
C603 C604 1.369 . S
C603 C605 1.419 . S
C603 H607 0.930 . S
C604 C603 1.369 . S
C604 C613 1.429 . S
C605 C603 1.419 . S
C605 C606 1.363 . S
C605 H608 0.929 . S
C606 C605 1.363 . S
C606 C612 1.428 . S
H607 C603 0.930 . S
H608 C605 0.929 . S
S609 N610 1.613 . S
S609 N611 1.610 . S
N610 S609 1.613 . S
N610 C613 1.350 . S
N611 S609 1.610 . S
N611 C612 1.351 . S
C612 C606 1.428 . S
C612 N611 1.351 . S
C612 C613 1.434 . S
C613 C604 1.429 . S
C613 N610 1.350 . S
C613 C612 1.434 . S
C614 C615 1.369 . S
C614 C616 1.419 . S
C614 H618 0.930 . S
C615 C614 1.369 . S
C615 C624 1.429 . S
C616 C614 1.419 . S
C616 C617 1.363 . S
C616 H619 0.929 . S
C617 C616 1.363 . S
C617 C623 1.428 . S
H618 C614 0.930 . S
H619 C616 0.929 . S
S620 N621 1.613 . S
S620 N622 1.610 . S
N621 S620 1.613 . S
N621 C624 1.350 . S
N622 S620 1.610 . S
N622 C623 1.351 . S
C623 C617 1.428 . S
C623 N622 1.351 . S
C623 C624 1.434 . S
C624 C615 1.429 . S
C624 N621 1.350 . S
C624 C623 1.434 . S
C625 C626 1.369 . S
C625 C627 1.419 . S
C625 H629 0.930 . S
C626 C625 1.369 . S
C626 C635 1.429 . S
C627 C625 1.419 . S
C627 C628 1.363 . S
C627 H630 0.929 . S
C628 C627 1.363 . S
C628 C634 1.428 . S
H629 C625 0.930 . S
H630 C627 0.929 . S
S631 N632 1.613 1_455 S
S631 N633 1.618 1_455 S
N632 S631 1.613 1_655 S
N632 C635 1.350 . S
N633 S631 1.618 1_655 S
N633 C634 1.365 . S
C634 C628 1.428 . S
C634 N633 1.365 . S
C634 C635 1.434 . S
C635 C626 1.429 . S
C635 N632 1.350 . S
C635 C634 1.434 . S
C636 C637 1.364 1_655 S
C636 C638 1.422 . S
C636 H640 0.931 . S
C637 C636 1.364 1_455 S
C637 C646 1.429 . S
C638 C636 1.422 . S
C638 C639 1.363 . S
C638 H641 0.929 . S
C639 C638 1.363 . S
C639 C645 1.428 1_655 S
H640 C636 0.931 . S
H641 C638 0.929 . S
S642 N643 1.613 . S
S642 N644 1.610 . S
N643 S642 1.613 . S
N643 C646 1.350 . S
N644 S642 1.610 . S
N644 C645 1.351 . S
C645 C639 1.428 1_455 S
C645 N644 1.351 . S
C645 C646 1.434 . S
C646 C637 1.429 . S
C646 N643 1.350 . S
C646 C645 1.434 . S
C647 C648 1.369 . S
C647 C649 1.419 . S
C647 H651 0.930 . S
C648 C647 1.369 . S
C648 C657 1.429 . S
C649 C647 1.419 . S
C649 C650 1.363 . S
C649 H652 0.929 . S
C650 C649 1.363 . S
C650 C656 1.428 . S
H651 C647 0.930 . S
H652 C649 0.929 . S
S653 N654 1.613 . S
S653 N655 1.610 . S
N654 S653 1.613 . S
N654 C657 1.350 . S
N655 S653 1.610 . S
N655 C656 1.351 . S
C656 C650 1.428 . S
C656 N655 1.351 . S
C656 C657 1.434 . S
C657 C648 1.429 . S
C657 N654 1.350 . S
C657 C656 1.434 . S
C658 C659 1.369 . S
C658 C660 1.419 1_565 S
C658 H662 0.930 . S
C659 C658 1.369 . S
C659 C668 1.429 . S
C660 C658 1.419 1_545 S
C660 C661 1.363 . S
C660 H663 0.929 . S
C661 C660 1.363 . S
C661 C667 1.428 . S
H662 C658 0.930 . S
H663 C660 0.929 . S
S664 N665 1.613 . S
S664 N666 1.610 1_565 S
N665 S664 1.613 . S
N665 C668 1.350 . S
N666 S664 1.610 1_545 S
N666 C667 1.351 . S
C667 C661 1.428 . S
C667 N666 1.351 . S
C667 C668 1.434 1_545 S
C668 C659 1.429 . S
C668 N665 1.350 . S
C668 C667 1.434 1_565 S
C669 C670 1.369 1_545 S
C669 C671 1.419 . S
C669 H673 0.930 . S
C670 C669 1.369 1_565 S
C670 C679 1.429 . S
C671 C669 1.419 . S
C671 C672 1.363 . S
C671 H674 0.929 . S
C672 C671 1.363 . S
C672 C678 1.428 1_545 S
H673 C669 0.930 . S
H674 C671 0.929 . S
S675 N676 1.613 . S
S675 N677 1.610 . S
N676 S675 1.613 . S
N676 C679 1.350 . S
N677 S675 1.610 . S
N677 C678 1.351 . S
C678 C672 1.428 1_565 S
C678 N677 1.351 . S
C678 C679 1.434 . S
C679 C670 1.429 . S
C679 N676 1.350 . S
C679 C678 1.434 . S
C680 C681 1.369 . S
C680 C682 1.419 1_455 S
C680 H684 0.930 . S
C681 C680 1.369 . S
C681 C690 1.429 . S
C682 C680 1.419 1_655 S
C682 C683 1.363 . S
C682 H685 0.929 . S
C683 C682 1.363 . S
C683 C689 1.428 . S
H684 C680 0.930 . S
H685 C682 0.929 . S
S686 N687 1.613 1_655 S
S686 N688 1.610 . S
N687 S686 1.613 1_455 S
N687 C690 1.350 . S
N688 S686 1.610 . S
N688 C689 1.351 . S
C689 C683 1.428 . S
C689 N688 1.351 . S
C689 C690 1.434 1_655 S
C690 C681 1.429 . S
C690 N687 1.350 . S
C690 C689 1.434 1_455 S
C691 C692 1.369 . S
C691 C693 1.419 . S
C691 H695 0.930 . S
C692 C691 1.369 . S
C692 C701 1.429 . S
C693 C691 1.419 . S
C693 C694 1.363 . S
C693 H696 0.929 . S
C694 C693 1.363 . S
C694 C700 1.428 . S
H695 C691 0.930 . S
H696 C693 0.929 . S
S697 N698 1.613 . S
S697 N699 1.610 . S
N698 S697 1.613 . S
N698 C701 1.350 . S
N699 S697 1.610 . S
N699 C700 1.351 . S
C700 C694 1.428 . S
C700 N699 1.351 . S
C700 C701 1.434 . S
C701 C692 1.429 . S
C701 N698 1.350 . S
C701 C700 1.434 . S
C702 C703 1.369 1_554 S
C702 C704 1.419 . S
C702 H706 0.930 . S
C703 C702 1.369 1_556 S
C703 C712 1.429 . S
C704 C702 1.419 . S
C704 C705 1.363 . S
C704 H707 0.929 . S
C705 C704 1.363 . S
C705 C711 1.428 1_554 S
H706 C702 0.930 . S
H707 C704 0.929 . S
S708 N709 1.613 . S
S708 N710 1.610 . S
N709 S708 1.613 . S
N709 C712 1.350 . S
N710 S708 1.610 . S
N710 C711 1.351 . S
C711 C705 1.428 1_556 S
C711 N710 1.351 . S
C711 C712 1.434 . S
C712 C703 1.429 . S
C712 N709 1.350 . S
C712 C711 1.434 . S
C713 C714 1.369 1_554 S
C713 C715 1.419 . S
C713 H717 0.930 . S
C714 C713 1.369 1_556 S
C714 C723 1.429 . S
C715 C713 1.419 . S
C715 C716 1.363 . S
C715 H718 0.929 . S
C716 C715 1.363 . S
C716 C722 1.428 . S
H717 C713 0.930 . S
H718 C715 0.929 . S
S719 N720 1.613 . S
S719 N721 1.610 1_556 S
N720 S719 1.613 . S
N720 C723 1.350 . S
N721 S719 1.610 1_554 S
N721 C722 1.351 . S
C722 C716 1.428 . S
C722 N721 1.351 . S
C722 C723 1.434 1_554 S
C723 C714 1.429 . S
C723 N720 1.350 . S
C723 C722 1.434 1_556 S
C724 C725 1.369 1_554 S
C724 C726 1.419 . S
C724 H728 0.930 . S
C725 C724 1.369 1_556 S
C725 C734 1.429 . S
C726 C724 1.419 . S
C726 C727 1.363 . S
C726 H729 0.929 . S
C727 C726 1.363 . S
C727 C733 1.428 . S
H728 C724 0.930 . S
H729 C726 0.929 . S
S730 N731 1.613 . S
S730 N732 1.610 1_556 S
N731 S730 1.613 . S
N731 C734 1.350 . S
N732 S730 1.610 1_554 S
N732 C733 1.351 . S
C733 C727 1.428 . S
C733 N732 1.351 . S
C733 C734 1.434 1_554 S
C734 C725 1.429 . S
C734 N731 1.350 . S
C734 C733 1.434 1_556 S
C735 C736 1.369 . S
C735 C737 1.419 . S
C735 H739 0.930 . S
C736 C735 1.369 . S
C736 C745 1.429 . S
C737 C735 1.419 . S
C737 C738 1.363 . S
C737 H740 0.929 . S
C738 C737 1.363 . S
C738 C744 1.428 . S
H739 C735 0.930 . S
H740 C737 0.929 . S
S741 N742 1.613 . S
S741 N743 1.610 . S
N742 S741 1.613 . S
N742 C745 1.350 . S
N743 S741 1.610 . S
N743 C744 1.351 . S
C744 C738 1.428 . S
C744 N743 1.351 . S
C744 C745 1.434 . S
C745 C736 1.429 . S
C745 N742 1.350 . S
C745 C744 1.434 . S
C746 C747 1.369 . S
C746 C748 1.419 . S
C746 H750 0.930 . S
C747 C746 1.369 . S
C747 C756 1.429 . S
C748 C746 1.419 . S
C748 C749 1.363 . S
C748 H751 0.929 . S
C749 C748 1.363 . S
C749 C755 1.428 . S
H750 C746 0.930 . S
H751 C748 0.929 . S
S752 N753 1.613 . S
S752 N754 1.610 . S
N753 S752 1.613 . S
N753 C756 1.350 . S
N754 S752 1.610 . S
N754 C755 1.351 . S
C755 C749 1.428 . S
C755 N754 1.351 . S
C755 C756 1.434 . S
C756 C747 1.429 . S
C756 N753 1.350 . S
C756 C755 1.434 . S
C757 C758 1.369 . S
C757 C759 1.419 . S
C757 H761 0.930 . S
C758 C757 1.369 . S
C758 C767 1.429 . S
C759 C757 1.419 . S
C759 C760 1.363 . S
C759 H762 0.929 . S
C760 C759 1.363 . S
C760 C766 1.428 . S
H761 C757 0.930 . S
H762 C759 0.929 . S
S763 N764 1.613 . S
S763 N765 1.610 . S
N764 S763 1.613 . S
N764 C767 1.350 . S
N765 S763 1.610 . S
N765 C766 1.351 . S
C766 C760 1.428 . S
C766 N765 1.351 . S
C766 C767 1.434 . S
C767 C758 1.429 . S
C767 N764 1.350 . S
C767 C766 1.434 . S
C768 C769 1.369 . S
C768 C770 1.419 1_554 S
C768 H772 0.930 . S
C769 C768 1.369 . S
C769 C778 1.429 1_554 S
C770 C768 1.419 1_556 S
C770 C771 1.363 . S
C770 H773 0.929 . S
C771 C770 1.363 . S
C771 C777 1.428 . S
H772 C768 0.930 . S
H773 C770 0.929 . S
S774 N775 1.613 . S
S774 N776 1.610 . S
N775 S774 1.613 . S
N775 C778 1.350 . S
N776 S774 1.610 . S
N776 C777 1.351 . S
C777 C771 1.428 . S
C777 N776 1.351 . S
C777 C778 1.434 . S
C778 C769 1.429 1_556 S
C778 N775 1.350 . S
C778 C777 1.434 . S
C779 C780 1.369 1_554 S
C779 C781 1.419 . S
C779 H783 0.930 . S
C780 C779 1.369 1_556 S
C780 C789 1.429 . S
C781 C779 1.419 . S
C781 C782 1.363 . S
C781 H784 0.929 . S
C782 C781 1.363 . S
C782 C788 1.428 1_554 S
H783 C779 0.930 . S
H784 C781 0.929 . S
S785 N786 1.613 . S
S785 N787 1.610 . S
N786 S785 1.613 . S
N786 C789 1.350 . S
N787 S785 1.610 . S
N787 C788 1.351 . S
C788 C782 1.428 1_556 S
C788 N787 1.351 . S
C788 C789 1.434 . S
C789 C780 1.429 . S
C789 N786 1.350 . S
C789 C788 1.434 . S
C790 C791 1.369 1_556 S
C790 C792 1.419 . S
C790 H794 0.930 . S
C791 C790 1.369 1_554 S
C791 C800 1.429 . S
C792 C790 1.419 . S
C792 C793 1.363 . S
C792 H795 0.929 . S
C793 C792 1.363 . S
C793 C799 1.428 1_556 S
H794 C790 0.930 . S
H795 C792 0.929 . S
S796 N797 1.613 . S
S796 N798 1.610 . S
N797 S796 1.613 . S
N797 C800 1.350 . S
N798 S796 1.610 . S
N798 C799 1.351 . S
C799 C793 1.428 1_554 S
C799 N798 1.351 . S
C799 C800 1.434 . S
C800 C791 1.429 . S
C800 N797 1.350 . S
C800 C799 1.434 . S
C801 C802 1.369 . S
C801 C803 1.419 . S
C801 H805 0.930 . S
C802 C801 1.369 . S
C802 C811 1.429 . S
C803 C801 1.419 . S
C803 C804 1.363 . S
C803 H806 0.929 . S
C804 C803 1.363 . S
C804 C810 1.428 . S
H805 C801 0.930 . S
H806 C803 0.929 . S
S807 N808 1.613 . S
S807 N809 1.610 . S
N808 S807 1.613 . S
N808 C811 1.350 . S
N809 S807 1.610 . S
N809 C810 1.351 . S
C810 C804 1.428 . S
C810 N809 1.351 . S
C810 C811 1.434 . S
C811 C802 1.429 . S
C811 N808 1.350 . S
C811 C810 1.434 . S
C812 C813 1.369 . S
C812 C814 1.419 . S
C812 H816 0.930 . S
C813 C812 1.369 . S
C813 C822 1.429 . S
C814 C812 1.419 . S
C814 C815 1.363 . S
C814 H817 0.929 . S
C815 C814 1.363 . S
C815 C821 1.428 . S
H816 C812 0.930 . S
H817 C814 0.929 . S
S818 N819 1.613 . S
S818 N820 1.610 . S
N819 S818 1.613 . S
N819 C822 1.350 . S
N820 S818 1.610 . S
N820 C821 1.351 . S
C821 C815 1.428 . S
C821 N820 1.351 . S
C821 C822 1.434 . S
C822 C813 1.429 . S
C822 N819 1.350 . S
C822 C821 1.434 . S
C823 C824 1.369 . S
C823 C825 1.419 . S
C823 H827 0.930 . S
C824 C823 1.369 . S
C824 C833 1.429 . S
C825 C823 1.419 . S
C825 C826 1.363 . S
C825 H828 0.929 . S
C826 C825 1.363 . S
C826 C832 1.428 . S
H827 C823 0.930 . S
H828 C825 0.929 . S
S829 N830 1.613 . S
S829 N831 1.610 . S
N830 S829 1.613 . S
N830 C833 1.350 . S
N831 S829 1.610 . S
N831 C832 1.351 . S
C832 C826 1.428 . S
C832 N831 1.351 . S
C832 C833 1.434 . S
C833 C824 1.429 . S
C833 N830 1.350 . S
C833 C832 1.434 . S
C834 C835 1.369 . S
C834 C836 1.419 . S
C834 H838 0.930 . S
C835 C834 1.369 . S
C835 C844 1.429 . S
C836 C834 1.419 . S
C836 C837 1.363 . S
C836 H839 0.929 . S
C837 C836 1.363 . S
C837 C843 1.428 . S
H838 C834 0.930 . S
H839 C836 0.929 . S
S840 N841 1.613 . S
S840 N842 1.610 . S
N841 S840 1.613 . S
N841 C844 1.350 . S
N842 S840 1.610 . S
N842 C843 1.351 . S
C843 C837 1.428 . S
C843 N842 1.351 . S
C843 C844 1.434 . S
C844 C835 1.429 . S
C844 N841 1.350 . S
C844 C843 1.434 . S
C845 C846 1.369 . S
C845 C847 1.419 . S
C845 H849 0.930 . S
C846 C845 1.369 . S
C846 C855 1.429 . S
C847 C845 1.419 . S
C847 C848 1.363 . S
C847 H850 0.929 . S
C848 C847 1.363 . S
C848 C854 1.428 . S
H849 C845 0.930 . S
H850 C847 0.929 . S
S851 N852 1.613 . S
S851 N853 1.610 . S
N852 S851 1.613 . S
N852 C855 1.350 . S
N853 S851 1.610 . S
N853 C854 1.351 . S
C854 C848 1.428 . S
C854 N853 1.351 . S
C854 C855 1.434 . S
C855 C846 1.429 . S
C855 N852 1.350 . S
C855 C854 1.434 . S
C856 C857 1.369 . S
C856 C858 1.419 . S
C856 H860 0.930 . S
C857 C856 1.369 . S
C857 C866 1.429 . S
C858 C856 1.419 . S
C858 C859 1.363 . S
C858 H861 0.929 . S
C859 C858 1.363 . S
C859 C865 1.428 . S
H860 C856 0.930 . S
H861 C858 0.929 . S
S862 N863 1.613 . S
S862 N864 1.610 . S
N863 S862 1.613 . S
N863 C866 1.350 . S
N864 S862 1.610 . S
N864 C865 1.351 . S
C865 C859 1.428 . S
C865 N864 1.351 . S
C865 C866 1.434 . S
C866 C857 1.429 . S
C866 N863 1.350 . S
C866 C865 1.434 . S
C867 C868 1.369 . S
C867 C869 1.419 . S
C867 H871 0.930 . S
C868 C867 1.369 . S
C868 C877 1.429 . S
C869 C867 1.419 . S
C869 C870 1.363 . S
C869 H872 0.929 . S
C870 C869 1.363 . S
C870 C876 1.428 . S
H871 C867 0.930 . S
H872 C869 0.929 . S
S873 N874 1.613 . S
S873 N875 1.610 . S
N874 S873 1.613 . S
N874 C877 1.350 . S
N875 S873 1.610 . S
N875 C876 1.351 . S
C876 C870 1.428 . S
C876 N875 1.351 . S
C876 C877 1.434 . S
C877 C868 1.429 . S
C877 N874 1.350 . S
C877 C876 1.434 . S
C878 C879 1.369 . S
C878 C880 1.419 . S
C878 H882 0.930 . S
C879 C878 1.369 . S
C879 C888 1.429 . S
C880 C878 1.419 . S
C880 C881 1.363 . S
C880 H883 0.929 . S
C881 C880 1.363 . S
C881 C887 1.428 . S
H882 C878 0.930 . S
H883 C880 0.929 . S
S884 N885 1.613 . S
S884 N886 1.610 . S
N885 S884 1.613 . S
N885 C888 1.350 . S
N886 S884 1.610 . S
N886 C887 1.351 . S
C887 C881 1.428 . S
C887 N886 1.351 . S
C887 C888 1.434 . S
C888 C879 1.429 . S
C888 N885 1.350 . S
C888 C887 1.434 . S
C889 C890 1.369 . S
C889 C891 1.419 . S
C889 H893 0.930 . S
C890 C889 1.369 . S
C890 C899 1.429 . S
C891 C889 1.419 . S
C891 C892 1.363 . S
C891 H894 0.929 . S
C892 C891 1.363 . S
C892 C898 1.428 . S
H893 C889 0.930 . S
H894 C891 0.929 . S
S895 N896 1.613 . S
S895 N897 1.610 . S
N896 S895 1.613 . S
N896 C899 1.350 . S
N897 S895 1.610 . S
N897 C898 1.351 . S
C898 C892 1.428 . S
C898 N897 1.351 . S
C898 C899 1.434 . S
C899 C890 1.429 . S
C899 N896 1.350 . S
C899 C898 1.434 . S
C900 C901 1.369 . S
C900 C902 1.419 . S
C900 H904 0.930 . S
C901 C900 1.369 . S
C901 C910 1.429 . S
C902 C900 1.419 . S
C902 C903 1.363 . S
C902 H905 0.929 . S
C903 C902 1.363 . S
C903 C909 1.428 . S
H904 C900 0.930 . S
H905 C902 0.929 . S
S906 N907 1.613 . S
S906 N908 1.610 . S
N907 S906 1.613 . S
N907 C910 1.350 . S
N908 S906 1.610 . S
N908 C909 1.351 . S
C909 C903 1.428 . S
C909 N908 1.351 . S
C909 C910 1.434 . S
C910 C901 1.429 . S
C910 N907 1.350 . S
C910 C909 1.434 . S
C911 C912 1.369 . S
C911 C913 1.419 . S
C911 H915 0.930 . S
C912 C911 1.369 . S
C912 C921 1.429 . S
C913 C911 1.419 . S
C913 C914 1.363 . S
C913 H916 0.929 . S
C914 C913 1.363 . S
C914 C920 1.428 . S
H915 C911 0.930 . S
H916 C913 0.929 . S
S917 N918 1.613 . S
S917 N919 1.610 . S
N918 S917 1.613 . S
N918 C921 1.350 . S
N919 S917 1.610 . S
N919 C920 1.351 . S
C920 C914 1.428 . S
C920 N919 1.351 . S
C920 C921 1.434 . S
C921 C912 1.429 . S
C921 N918 1.350 . S
C921 C920 1.434 . S
C922 C923 1.369 . S
C922 C924 1.419 . S
C922 H926 0.930 . S
C923 C922 1.369 . S
C923 C932 1.429 . S
C924 C922 1.419 . S
C924 C925 1.363 . S
C924 H927 0.929 . S
C925 C924 1.363 . S
C925 C931 1.428 . S
H926 C922 0.930 . S
H927 C924 0.929 . S
S928 N929 1.613 . S
S928 N930 1.610 . S
N929 S928 1.613 . S
N929 C932 1.350 . S
N930 S928 1.610 . S
N930 C931 1.351 . S
C931 C925 1.428 . S
C931 N930 1.351 . S
C931 C932 1.434 . S
C932 C923 1.429 . S
C932 N929 1.350 . S
C932 C931 1.434 . S
C933 C934 1.369 . S
C933 C935 1.419 . S
C933 H937 0.930 . S
C934 C933 1.369 . S
C934 C943 1.429 . S
C935 C933 1.419 . S
C935 C936 1.363 . S
C935 H938 0.929 . S
C936 C935 1.363 . S
C936 C942 1.428 . S
H937 C933 0.930 . S
H938 C935 0.929 . S
S939 N940 1.613 . S
S939 N941 1.610 . S
N940 S939 1.613 . S
N940 C943 1.350 . S
N941 S939 1.610 . S
N941 C942 1.351 . S
C942 C936 1.428 . S
C942 N941 1.351 . S
C942 C943 1.434 . S
C943 C934 1.429 . S
C943 N940 1.350 . S
C943 C942 1.434 . S
C944 C945 1.369 . S
C944 C946 1.419 . S
C944 H948 0.930 . S
C945 C944 1.369 . S
C945 C954 1.429 . S
C946 C944 1.419 . S
C946 C947 1.363 . S
C946 H949 0.929 . S
C947 C946 1.363 . S
C947 C953 1.428 . S
H948 C944 0.930 . S
H949 C946 0.929 . S
S950 N951 1.613 . S
S950 N952 1.610 . S
N951 S950 1.613 . S
N951 C954 1.350 . S
N952 S950 1.610 . S
N952 C953 1.351 . S
C953 C947 1.428 . S
C953 N952 1.351 . S
C953 C954 1.434 . S
C954 C945 1.429 . S
C954 N951 1.350 . S
C954 C953 1.434 . S
C955 C956 1.369 . S
C955 C957 1.419 . S
C955 H959 0.930 . S
C956 C955 1.369 . S
C956 C965 1.429 . S
C957 C955 1.419 . S
C957 C958 1.363 . S
C957 H960 0.929 . S
C958 C957 1.363 . S
C958 C964 1.428 . S
H959 C955 0.930 . S
H960 C957 0.929 . S
S961 N962 1.613 . S
S961 N963 1.610 . S
N962 S961 1.613 . S
N962 C965 1.350 . S
N963 S961 1.610 . S
N963 C964 1.351 . S
C964 C958 1.428 . S
C964 N963 1.351 . S
C964 C965 1.434 . S
C965 C956 1.429 . S
C965 N962 1.350 . S
C965 C964 1.434 . S
C966 C967 1.369 . S
C966 C968 1.419 . S
C966 H970 0.930 . S
C967 C966 1.369 . S
C967 C976 1.429 . S
C968 C966 1.419 . S
C968 C969 1.363 . S
C968 H971 0.929 . S
C969 C968 1.363 . S
C969 C975 1.428 . S
H970 C966 0.930 . S
H971 C968 0.929 . S
S972 N973 1.613 . S
S972 N974 1.610 . S
N973 S972 1.613 . S
N973 C976 1.350 . S
N974 S972 1.610 . S
N974 C975 1.351 . S
C975 C969 1.428 . S
C975 N974 1.351 . S
C975 C976 1.434 . S
C976 C967 1.429 . S
C976 N973 1.350 . S
C976 C975 1.434 . S
C977 C978 1.369 . S
C977 C979 1.419 . S
C977 H981 0.930 . S
C978 C977 1.369 . S
C978 C987 1.429 . S
C979 C977 1.419 . S
C979 C980 1.363 . S
C979 H982 0.929 . S
C980 C979 1.363 . S
C980 C986 1.428 . S
H981 C977 0.930 . S
H982 C979 0.929 . S
S983 N984 1.613 . S
S983 N985 1.610 . S
N984 S983 1.613 . S
N984 C987 1.350 . S
N985 S983 1.610 . S
N985 C986 1.351 . S
C986 C980 1.428 . S
C986 N985 1.351 . S
C986 C987 1.434 . S
C987 C978 1.429 . S
C987 N984 1.350 . S
C987 C986 1.434 . S
C988 C989 1.369 . S
C988 C990 1.419 . S
C988 H992 0.930 . S
C989 C988 1.369 . S
C989 C998 1.429 . S
C990 C988 1.419 . S
C990 C991 1.363 . S
C990 H993 0.929 . S
C991 C990 1.363 . S
C991 C997 1.428 . S
H992 C988 0.930 . S
H993 C990 0.929 . S
S994 N995 1.613 . S
S994 N996 1.610 . S
N995 S994 1.613 . S
N995 C998 1.350 . S
N996 S994 1.610 . S
N996 C997 1.351 . S
C997 C991 1.428 . S
C997 N996 1.351 . S
C997 C998 1.434 . S
C998 C989 1.429 . S
C998 N995 1.350 . S
C998 C997 1.434 . S
C999 C1000 1.369 . S
C999 C1001 1.419 . S
C999 H1003 0.930 . S
C1000 C999 1.369 . S
C1000 C1009 1.429 . S
C1001 C999 1.419 . S
C1001 C1002 1.363 . S
C1001 H1004 0.929 . S
C1002 C1001 1.363 . S
C1002 C1008 1.428 . S
H1003 C999 0.930 . S
H1004 C1001 0.929 . S
S1005 N1006 1.613 . S
S1005 N1007 1.610 . S
N1006 S1005 1.613 . S
N1006 C1009 1.350 . S
N1007 S1005 1.610 . S
N1007 C1008 1.351 . S
C1008 C1002 1.428 . S
C1008 N1007 1.351 . S
C1008 C1009 1.434 . S
C1009 C1000 1.429 . S
C1009 N1006 1.350 . S
C1009 C1008 1.434 . S
C1010 C1011 1.369 . S
C1010 C1012 1.419 . S
C1010 H1014 0.930 . S
C1011 C1010 1.369 . S
C1011 C1020 1.429 . S
C1012 C1010 1.419 . S
C1012 C1013 1.363 . S
C1012 H1015 0.929 . S
C1013 C1012 1.363 . S
C1013 C1019 1.428 . S
H1014 C1010 0.930 . S
H1015 C1012 0.929 . S
S1016 N1017 1.613 . S
S1016 N1018 1.610 . S
N1017 S1016 1.613 . S
N1017 C1020 1.350 . S
N1018 S1016 1.610 . S
N1018 C1019 1.351 . S
C1019 C1013 1.428 . S
C1019 N1018 1.351 . S
C1019 C1020 1.434 . S
C1020 C1011 1.429 . S
C1020 N1017 1.350 . S
C1020 C1019 1.434 . S
C1021 C1022 1.369 . S
C1021 C1023 1.419 . S
C1021 H1025 0.930 . S
C1022 C1021 1.369 . S
C1022 C1031 1.429 . S
C1023 C1021 1.419 . S
C1023 C1024 1.363 . S
C1023 H1026 0.929 . S
C1024 C1023 1.363 . S
C1024 C1030 1.428 . S
H1025 C1021 0.930 . S
H1026 C1023 0.929 . S
S1027 N1028 1.613 . S
S1027 N1029 1.610 . S
N1028 S1027 1.613 . S
N1028 C1031 1.350 . S
N1029 S1027 1.610 . S
N1029 C1030 1.351 . S
C1030 C1024 1.428 . S
C1030 N1029 1.351 . S
C1030 C1031 1.434 . S
C1031 C1022 1.429 . S
C1031 N1028 1.350 . S
C1031 C1030 1.434 . S
C1032 C1033 1.369 . S
C1032 C1034 1.419 . S
C1032 H1036 0.930 . S
C1033 C1032 1.369 . S
C1033 C1042 1.429 . S
C1034 C1032 1.419 . S
C1034 C1035 1.363 . S
C1034 H1037 0.929 . S
C1035 C1034 1.363 . S
C1035 C1041 1.428 . S
H1036 C1032 0.930 . S
H1037 C1034 0.929 . S
S1038 N1039 1.613 . S
S1038 N1040 1.610 . S
N1039 S1038 1.613 . S
N1039 C1042 1.350 . S
N1040 S1038 1.610 . S
N1040 C1041 1.351 . S
C1041 C1035 1.428 . S
C1041 N1040 1.351 . S
C1041 C1042 1.434 . S
C1042 C1033 1.429 . S
C1042 N1039 1.350 . S
C1042 C1041 1.434 . S
C1043 C1044 1.369 . S
C1043 C1045 1.419 . S
C1043 H1047 0.930 . S
C1044 C1043 1.369 . S
C1044 C1053 1.429 . S
C1045 C1043 1.419 . S
C1045 C1046 1.363 . S
C1045 H1048 0.929 . S
C1046 C1045 1.363 . S
C1046 C1052 1.428 . S
H1047 C1043 0.930 . S
H1048 C1045 0.929 . S
S1049 N1050 1.613 . S
S1049 N1051 1.610 . S
N1050 S1049 1.613 . S
N1050 C1053 1.350 . S
N1051 S1049 1.610 . S
N1051 C1052 1.351 . S
C1052 C1046 1.428 . S
C1052 N1051 1.351 . S
C1052 C1053 1.434 . S
C1053 C1044 1.429 . S
C1053 N1050 1.350 . S
C1053 C1052 1.434 . S
C1054 C1055 1.369 . S
C1054 C1056 1.419 . S
C1054 H1058 0.930 . S
C1055 C1054 1.369 . S
C1055 C1064 1.429 . S
C1056 C1054 1.419 . S
C1056 C1057 1.363 . S
C1056 H1059 0.929 . S
C1057 C1056 1.363 . S
C1057 C1063 1.428 . S
H1058 C1054 0.930 . S
H1059 C1056 0.929 . S
S1060 N1061 1.613 . S
S1060 N1062 1.610 . S
N1061 S1060 1.613 . S
N1061 C1064 1.350 . S
N1062 S1060 1.610 . S
N1062 C1063 1.351 . S
C1063 C1057 1.428 . S
C1063 N1062 1.351 . S
C1063 C1064 1.434 . S
C1064 C1055 1.429 . S
C1064 N1061 1.350 . S
C1064 C1063 1.434 . S
C1065 C1066 1.369 . S
C1065 C1067 1.419 . S
C1065 H1069 0.930 . S
C1066 C1065 1.369 . S
C1066 C1075 1.429 . S
C1067 C1065 1.419 . S
C1067 C1068 1.363 . S
C1067 H1070 0.929 . S
C1068 C1067 1.363 . S
C1068 C1074 1.428 . S
H1069 C1065 0.930 . S
H1070 C1067 0.929 . S
S1071 N1072 1.613 . S
S1071 N1073 1.610 . S
N1072 S1071 1.613 . S
N1072 C1075 1.350 . S
N1073 S1071 1.610 . S
N1073 C1074 1.351 . S
C1074 C1068 1.428 . S
C1074 N1073 1.351 . S
C1074 C1075 1.434 . S
C1075 C1066 1.429 . S
C1075 N1072 1.350 . S
C1075 C1074 1.434 . S
C1076 C1077 1.369 . S
C1076 C1078 1.419 . S
C1076 H1080 0.930 . S
C1077 C1076 1.369 . S
C1077 C1086 1.429 . S
C1078 C1076 1.419 . S
C1078 C1079 1.363 . S
C1078 H1081 0.929 . S
C1079 C1078 1.363 . S
C1079 C1085 1.428 . S
H1080 C1076 0.930 . S
H1081 C1078 0.929 . S
S1082 N1083 1.613 . S
S1082 N1084 1.610 . S
N1083 S1082 1.613 . S
N1083 C1086 1.350 . S
N1084 S1082 1.610 . S
N1084 C1085 1.351 . S
C1085 C1079 1.428 . S
C1085 N1084 1.351 . S
C1085 C1086 1.434 . S
C1086 C1077 1.429 . S
C1086 N1083 1.350 . S
C1086 C1085 1.434 . S
C1087 C1088 1.369 . S
C1087 C1089 1.419 . S
C1087 H1091 0.930 . S
C1088 C1087 1.369 . S
C1088 C1097 1.429 . S
C1089 C1087 1.419 . S
C1089 C1090 1.363 . S
C1089 H1092 0.929 . S
C1090 C1089 1.363 . S
C1090 C1096 1.428 . S
H1091 C1087 0.930 . S
H1092 C1089 0.929 . S
S1093 N1094 1.613 . S
S1093 N1095 1.610 . S
N1094 S1093 1.613 . S
N1094 C1097 1.350 . S
N1095 S1093 1.610 . S
N1095 C1096 1.351 . S
C1096 C1090 1.428 . S
C1096 N1095 1.351 . S
C1096 C1097 1.434 . S
C1097 C1088 1.429 . S
C1097 N1094 1.350 . S
C1097 C1096 1.434 . S
C1098 C1099 1.369 . S
C1098 C1100 1.419 . S
C1098 H1102 0.930 . S
C1099 C1098 1.369 . S
C1099 C1108 1.429 . S
C1100 C1098 1.419 . S
C1100 C1101 1.363 . S
C1100 H1103 0.929 . S
C1101 C1100 1.363 . S
C1101 C1107 1.428 . S
H1102 C1098 0.930 . S
H1103 C1100 0.929 . S
S1104 N1105 1.613 . S
S1104 N1106 1.610 . S
N1105 S1104 1.613 . S
N1105 C1108 1.350 . S
N1106 S1104 1.610 . S
N1106 C1107 1.351 . S
C1107 C1101 1.428 . S
C1107 N1106 1.351 . S
C1107 C1108 1.434 . S
C1108 C1099 1.429 . S
C1108 N1105 1.350 . S
C1108 C1107 1.434 . S
C1109 C1110 1.369 . S
C1109 C1111 1.419 . S
C1109 H1113 0.930 . S
C1110 C1109 1.369 . S
C1110 C1119 1.429 1_545 S
C1111 C1109 1.419 . S
C1111 C1112 1.363 1_545 S
C1111 H1114 0.929 . S
C1112 C1111 1.363 1_565 S
C1112 C1118 1.428 . S
H1113 C1109 0.930 . S
H1114 C1111 0.929 . S
S1115 N1116 1.613 . S
S1115 N1117 1.610 . S
N1116 S1115 1.613 . S
N1116 C1119 1.350 . S
N1117 S1115 1.610 . S
N1117 C1118 1.351 . S
C1118 C1112 1.428 . S
C1118 N1117 1.351 . S
C1118 C1119 1.434 . S
C1119 C1110 1.429 1_565 S
C1119 N1116 1.350 . S
C1119 C1118 1.434 . S
C1120 C1121 1.369 1_655 S
C1120 C1122 1.419 . S
C1120 H1124 0.930 . S
C1121 C1120 1.369 1_455 S
C1121 C1130 1.429 . S
C1122 C1120 1.419 . S
C1122 C1123 1.363 . S
C1122 H1125 0.929 . S
C1123 C1122 1.363 . S
C1123 C1129 1.428 1_655 S
H1124 C1120 0.930 . S
H1125 C1122 0.929 . S
S1126 N1127 1.613 . S
S1126 N1128 1.610 . S
N1127 S1126 1.613 . S
N1127 C1130 1.350 . S
N1128 S1126 1.610 . S
N1128 C1129 1.351 . S
C1129 C1123 1.428 1_455 S
C1129 N1128 1.351 . S
C1129 C1130 1.434 . S
C1130 C1121 1.429 . S
C1130 N1127 1.350 . S
C1130 C1129 1.434 . S
C1131 C1132 1.369 . S
C1131 C1133 1.419 . S
C1131 H1135 0.930 . S
C1132 C1131 1.369 . S
C1132 C1141 1.429 . S
C1133 C1131 1.419 . S
C1133 C1134 1.363 . S
C1133 H1136 0.929 . S
C1134 C1133 1.363 . S
C1134 C1140 1.428 . S
H1135 C1131 0.930 . S
H1136 C1133 0.929 . S
S1137 N1138 1.613 . S
S1137 N1139 1.610 . S
N1138 S1137 1.613 . S
N1138 C1141 1.350 . S
N1139 S1137 1.610 . S
N1139 C1140 1.351 . S
C1140 C1134 1.428 . S
C1140 N1139 1.351 . S
C1140 C1141 1.434 . S
C1141 C1132 1.429 . S
C1141 N1138 1.350 . S
C1141 C1140 1.434 . S
C1142 C1143 1.369 . S
C1142 C1144 1.419 . S
C1142 H1146 0.930 . S
C1143 C1142 1.369 . S
C1143 C1152 1.429 1_545 S
C1144 C1142 1.419 . S
C1144 C1145 1.363 1_545 S
C1144 H1147 0.929 . S
C1145 C1144 1.363 1_565 S
C1145 C1151 1.428 . S
H1146 C1142 0.930 . S
H1147 C1144 0.929 . S
S1148 N1149 1.613 . S
S1148 N1150 1.610 . S
N1149 S1148 1.613 . S
N1149 C1152 1.350 . S
N1150 S1148 1.610 . S
N1150 C1151 1.351 . S
C1151 C1145 1.428 . S
C1151 N1150 1.351 . S
C1151 C1152 1.434 . S
C1152 C1143 1.429 1_565 S
C1152 N1149 1.350 . S
C1152 C1151 1.434 . S
C1153 C1154 1.369 . S
C1153 C1155 1.419 . S
C1153 H1157 0.930 . S
C1154 C1153 1.369 . S
C1154 C1163 1.429 1_655 S
C1155 C1153 1.419 . S
C1155 C1156 1.363 1_655 S
C1155 H1158 0.929 . S
C1156 C1155 1.363 1_455 S
C1156 C1162 1.428 . S
H1157 C1153 0.930 . S
H1158 C1155 0.929 . S
S1159 N1160 1.613 . S
S1159 N1161 1.610 . S
N1160 S1159 1.613 . S
N1160 C1163 1.350 . S
N1161 S1159 1.610 . S
N1161 C1162 1.351 . S
C1162 C1156 1.428 . S
C1162 N1161 1.351 . S
C1162 C1163 1.434 . S
C1163 C1154 1.429 1_455 S
C1163 N1160 1.350 . S
C1163 C1162 1.434 . S
C1164 C1165 1.369 . S
C1164 C1166 1.419 . S
C1164 H1168 0.930 . S
C1165 C1164 1.369 . S
C1165 C1174 1.429 . S
C1166 C1164 1.419 . S
C1166 C1167 1.363 . S
C1166 H1169 0.929 . S
C1167 C1166 1.363 . S
C1167 C1173 1.428 . S
H1168 C1164 0.930 . S
H1169 C1166 0.929 . S
S1170 N1171 1.613 . S
S1170 N1172 1.610 . S
N1171 S1170 1.613 . S
N1171 C1174 1.350 . S
N1172 S1170 1.610 . S
N1172 C1173 1.351 . S
C1173 C1167 1.428 . S
C1173 N1172 1.351 . S
C1173 C1174 1.434 . S
C1174 C1165 1.429 . S
C1174 N1171 1.350 . S
C1174 C1173 1.434 . S
C1175 C1176 1.369 . S
C1175 C1177 1.419 . S
C1175 H1179 0.930 . S
C1176 C1175 1.369 . S
C1176 C1185 1.429 . S
C1177 C1175 1.419 . S
C1177 C1178 1.363 . S
C1177 H1180 0.929 . S
C1178 C1177 1.363 . S
C1178 C1184 1.428 . S
H1179 C1175 0.930 . S
H1180 C1177 0.929 . S
S1181 N1182 1.613 . S
S1181 N1183 1.610 . S
N1182 S1181 1.613 . S
N1182 C1185 1.350 . S
N1183 S1181 1.610 . S
N1183 C1184 1.351 . S
C1184 C1178 1.428 . S
C1184 N1183 1.351 . S
C1184 C1185 1.434 . S
C1185 C1176 1.429 . S
C1185 N1182 1.350 . S
C1185 C1184 1.434 . S
C1186 C1187 1.369 . S
C1186 C1188 1.419 . S
C1186 H1190 0.930 . S
C1187 C1186 1.369 . S
C1187 C1196 1.429 . S
C1188 C1186 1.419 . S
C1188 C1189 1.363 . S
C1188 H1191 0.929 . S
C1189 C1188 1.363 . S
C1189 C1195 1.428 . S
H1190 C1186 0.930 . S
H1191 C1188 0.929 . S
S1192 N1193 1.613 . S
S1192 N1194 1.610 . S
N1193 S1192 1.613 . S
N1193 C1196 1.350 . S
N1194 S1192 1.610 . S
N1194 C1195 1.351 . S
C1195 C1189 1.428 . S
C1195 N1194 1.351 . S
C1195 C1196 1.434 . S
C1196 C1187 1.429 . S
C1196 N1193 1.350 . S
C1196 C1195 1.434 . S
C1197 C1198 1.369 . S
C1197 C1199 1.419 . S
C1197 H1201 0.930 . S
C1198 C1197 1.369 . S
C1198 C1207 1.429 . S
C1199 C1197 1.419 . S
C1199 C1200 1.363 . S
C1199 H1202 0.929 . S
C1200 C1199 1.363 . S
C1200 C1206 1.428 . S
H1201 C1197 0.930 . S
H1202 C1199 0.929 . S
S1203 N1204 1.613 . S
S1203 N1205 1.610 . S
N1204 S1203 1.613 . S
N1204 C1207 1.350 . S
N1205 S1203 1.610 . S
N1205 C1206 1.351 . S
C1206 C1200 1.428 . S
C1206 N1205 1.351 . S
C1206 C1207 1.434 . S
C1207 C1198 1.429 . S
C1207 N1204 1.350 . S
C1207 C1206 1.434 . S
C1208 C1209 1.369 . S
C1208 C1210 1.419 . S
C1208 H1212 0.930 . S
C1209 C1208 1.369 . S
C1209 C1218 1.429 . S
C1210 C1208 1.419 . S
C1210 C1211 1.363 . S
C1210 H1213 0.929 . S
C1211 C1210 1.363 . S
C1211 C1217 1.428 . S
H1212 C1208 0.930 . S
H1213 C1210 0.929 . S
S1214 N1215 1.613 . S
S1214 N1216 1.610 . S
N1215 S1214 1.613 . S
N1215 C1218 1.350 . S
N1216 S1214 1.610 . S
N1216 C1217 1.351 . S
C1217 C1211 1.428 . S
C1217 N1216 1.351 . S
C1217 C1218 1.434 . S
C1218 C1209 1.429 . S
C1218 N1215 1.350 . S
C1218 C1217 1.434 . S
C1219 C1220 1.369 . S
C1219 C1221 1.419 . S
C1219 H1223 0.930 . S
C1220 C1219 1.369 . S
C1220 C1229 1.429 . S
C1221 C1219 1.419 . S
C1221 C1222 1.363 . S
C1221 H1224 0.929 . S
C1222 C1221 1.363 . S
C1222 C1228 1.428 . S
H1223 C1219 0.930 . S
H1224 C1221 0.929 . S
S1225 N1226 1.613 . S
S1225 N1227 1.610 . S
N1226 S1225 1.613 . S
N1226 C1229 1.350 . S
N1227 S1225 1.610 . S
N1227 C1228 1.351 . S
C1228 C1222 1.428 . S
C1228 N1227 1.351 . S
C1228 C1229 1.434 . S
C1229 C1220 1.429 . S
C1229 N1226 1.350 . S
C1229 C1228 1.434 . S
C1230 C1231 1.369 . S
C1230 C1232 1.419 . S
C1230 H1234 0.930 . S
C1231 C1230 1.369 . S
C1231 C1240 1.429 . S
C1232 C1230 1.419 . S
C1232 C1233 1.363 . S
C1232 H1235 0.929 . S
C1233 C1232 1.363 . S
C1233 C1239 1.428 . S
H1234 C1230 0.930 . S
H1235 C1232 0.929 . S
S1236 N1237 1.613 . S
S1236 N1238 1.610 . S
N1237 S1236 1.613 . S
N1237 C1240 1.350 . S
N1238 S1236 1.610 . S
N1238 C1239 1.351 . S
C1239 C1233 1.428 . S
C1239 N1238 1.351 . S
C1239 C1240 1.434 . S
C1240 C1231 1.429 . S
C1240 N1237 1.350 . S
C1240 C1239 1.434 . S
C1241 C1242 1.369 . S
C1241 C1243 1.419 . S
C1241 H1245 0.930 . S
C1242 C1241 1.369 . S
C1242 C1251 1.429 . S
C1243 C1241 1.419 . S
C1243 C1244 1.363 . S
C1243 H1246 0.929 . S
C1244 C1243 1.363 . S
C1244 C1250 1.428 . S
H1245 C1241 0.930 . S
H1246 C1243 0.929 . S
S1247 N1248 1.613 . S
S1247 N1249 1.610 . S
N1248 S1247 1.613 . S
N1248 C1251 1.350 . S
N1249 S1247 1.610 . S
N1249 C1250 1.351 . S
C1250 C1244 1.428 . S
C1250 N1249 1.351 . S
C1250 C1251 1.434 . S
C1251 C1242 1.429 . S
C1251 N1248 1.350 . S
C1251 C1250 1.434 . S
C1252 C1253 1.369 . S
C1252 C1254 1.419 . S
C1252 H1256 0.930 . S
C1253 C1252 1.369 . S
C1253 C1262 1.429 . S
C1254 C1252 1.419 . S
C1254 C1255 1.363 . S
C1254 H1257 0.929 . S
C1255 C1254 1.363 . S
C1255 C1261 1.428 . S
H1256 C1252 0.930 . S
H1257 C1254 0.929 . S
S1258 N1259 1.613 . S
S1258 N1260 1.610 . S
N1259 S1258 1.613 . S
N1259 C1262 1.350 . S
N1260 S1258 1.610 . S
N1260 C1261 1.351 . S
C1261 C1255 1.428 . S
C1261 N1260 1.351 . S
C1261 C1262 1.434 . S
C1262 C1253 1.429 . S
C1262 N1259 1.350 . S
C1262 C1261 1.434 . S
C1263 C1264 1.369 . S
C1263 C1265 1.419 . S
C1263 H1267 0.930 . S
C1264 C1263 1.369 . S
C1264 C1273 1.429 . S
C1265 C1263 1.419 . S
C1265 C1266 1.363 . S
C1265 H1268 0.929 . S
C1266 C1265 1.363 . S
C1266 C1272 1.428 . S
H1267 C1263 0.930 . S
H1268 C1265 0.929 . S
S1269 N1270 1.613 . S
S1269 N1271 1.610 . S
N1270 S1269 1.613 . S
N1270 C1273 1.350 . S
N1271 S1269 1.610 . S
N1271 C1272 1.351 . S
C1272 C1266 1.428 . S
C1272 N1271 1.351 . S
C1272 C1273 1.434 . S
C1273 C1264 1.429 . S
C1273 N1270 1.350 . S
C1273 C1272 1.434 . S
C1274 C1275 1.369 . S
C1274 C1276 1.419 . S
C1274 H1278 0.930 . S
C1275 C1274 1.369 . S
C1275 C1284 1.429 . S
C1276 C1274 1.419 . S
C1276 C1277 1.363 . S
C1276 H1279 0.929 . S
C1277 C1276 1.363 . S
C1277 C1283 1.428 . S
H1278 C1274 0.930 . S
H1279 C1276 0.929 . S
S1280 N1281 1.613 . S
S1280 N1282 1.610 . S
N1281 S1280 1.613 . S
N1281 C1284 1.350 . S
N1282 S1280 1.610 . S
N1282 C1283 1.351 . S
C1283 C1277 1.428 . S
C1283 N1282 1.351 . S
C1283 C1284 1.434 . S
C1284 C1275 1.429 . S
C1284 N1281 1.350 . S
C1284 C1283 1.434 . S
C1285 C1286 1.369 . S
C1285 C1287 1.419 . S
C1285 H1289 0.930 . S
C1286 C1285 1.369 . S
C1286 C1295 1.429 . S
C1287 C1285 1.419 . S
C1287 C1288 1.363 . S
C1287 H1290 0.929 . S
C1288 C1287 1.363 . S
C1288 C1294 1.428 . S
H1289 C1285 0.930 . S
H1290 C1287 0.929 . S
S1291 N1292 1.613 . S
S1291 N1293 1.610 . S
N1292 S1291 1.613 . S
N1292 C1295 1.350 . S
N1293 S1291 1.610 . S
N1293 C1294 1.351 . S
C1294 C1288 1.428 . S
C1294 N1293 1.351 . S
C1294 C1295 1.434 . S
C1295 C1286 1.429 . S
C1295 N1292 1.350 . S
C1295 C1294 1.434 . S
C505 C232 1.257 . S
C507 C8 1.255 . S
C516 C246 1.257 . S
C518 C22 1.254 . S
C527 C36 1.254 . S
C529 C218 1.257 . S
C538 C372 1.253 . S
C540 C50 1.255 . S
C549 C344 1.257 . S
C551 C64 1.255 . S
C560 C78 1.254 . S
C562 C358 1.255 . S
C571 C484 1.256 . S
C573 C92 1.254 . S
C582 C498 1.257 . S
C584 C106 1.256 . S
C593 C470 1.256 . S
C595 C120 1.254 . S
C604 C288 1.257 . S
C606 C134 1.255 . S
C615 C148 1.254 . S
C617 C260 1.256 . S
C626 C274 1.257 . S
C628 C162 1.256 . S
C637 C400 1.255 . S
C639 C176 1.254 . S
C648 C190 1.254 . S
C650 C414 1.255 . S
C659 C386 1.254 . S
C661 C204 1.255 . S
C670 C456 1.257 . S
C672 C302 1.255 . S
C681 C428 1.255 . S
C683 C316 1.257 . S
C692 C330 1.254 . S
C694 C442 1.255 . S
C703 C101 1.560 . S
C705 C7 1.552 . S
C714 C115 1.562 . S
C716 C21 1.555 . S
C725 C87 1.562 . S
C727 C35 1.555 . S
C736 C49 1.555 . S
C738 C157 1.562 . S
C747 C129 1.560 . S
C749 C63 1.552 . S
C758 C77 1.552 . S
C760 C143 1.560 . S
C769 C17 1.562 . S
C771 C91 1.555 . S
C780 C105 1.551 . S
C782 C31 1.559 . S
C791 C3 1.562 . S
C793 C119 1.554 . S
C802 C73 1.559 . S
C804 C133 1.552 . S
C813 C45 1.561 . S
C815 C147 1.554 . S
C824 C161 1.552 . S
C826 C59 1.560 . S
C835 C175 1.555 . S
C837 C269 1.562 . S
C846 C283 1.562 . S
C848 C189 1.555 . S
C857 C255 1.562 . S
C859 C203 1.554 . S
C868 C217 1.553 . S
C870 C325 1.560 . S
C879 C297 1.560 . S
C881 C231 1.552 . S
C890 C245 1.555 . S
C892 C311 1.561 . S
C901 C259 1.552 . S
C903 C185 1.560 . S
C912 C273 1.551 . S
C914 C199 1.560 . S
C923 C171 1.562 . S
C925 C287 1.554 . S
C934 C241 1.562 . S
C936 C301 1.555 . S
C945 C213 1.561 . S
C947 C315 1.554 . S
C956 C329 1.555 . S
C958 C227 1.562 . S
C967 C437 1.562 . S
C969 C343 1.555 . S
C978 C357 1.554 . S
C980 C451 1.560 . S
C989 C371 1.552 . S
C991 C423 1.560 . S
C1000 C493 1.561 . S
C1002 C385 1.553 . S
C1011 C399 1.552 . S
C1013 C465 1.561 . S
C1022 C479 1.562 . S
C1024 C413 1.555 . S
C1033 C353 1.562 . S
C1035 C427 1.555 . S
C1044 C367 1.561 . S
C1046 C441 1.554 . S
C1055 C455 1.555 . S
C1057 C339 1.562 . S
C1066 C469 1.553 . S
C1068 C409 1.561 . S
C1077 C381 1.562 . S
C1079 C483 1.555 . S
C1088 C395 1.562 . S
C1090 C497 1.554 . S
C1099 C9 1.541 . S
C1101 C51 1.541 . S
C1110 C23 1.541 . S
C1112 C65 1.543 . S
C1121 C79 1.542 . S
C1123 C37 1.541 . S
C1132 C93 1.543 . S
C1134 C135 1.545 . S
C1143 C149 1.541 . S
C1145 C107 1.541 . S
C1154 C163 1.544 . S
C1156 C121 1.545 . S
C1165 C177 1.544 . S
C1167 C219 1.542 . S
C1176 C191 1.544 . S
C1178 C233 1.542 . S
C1187 C247 1.541 . S
C1189 C205 1.542 . S
C1198 C261 1.544 . S
C1200 C303 1.545 1_554 S
C1209 C275 1.543 . S
C1211 C317 1.541 1_554 S
C1220 C289 1.544 . S
C1222 C331 1.545 1_554 S
C1231 C387 1.546 1_556 S
C1233 C345 1.544 . S
C1242 C401 1.545 1_556 S
C1244 C359 1.544 . S
C1253 C415 1.545 1_556 S
C1255 C373 1.545 . S
C1264 C429 1.545 . S
C1266 C471 1.545 . S
C1275 C485 1.541 . S
C1277 C443 1.543 . S
C1286 C499 1.543 . S
C1288 C457 1.545 . S
