# Generated by pormake.
# Topology wlm, (5)-cn, num edge types: 1
# Building blocks:
#     Node 0, Type 0, BuildingBlock: BEQFEK_clean_sbu_0, # of connection points: 5
#     Node 1, Type 0, BuildingBlock: BEQFEK_clean_sbu_0, # of connection points: 5
#     Node 2, Type 0, BuildingBlock: BEQFEK_clean_sbu_0, # of connection points: 5
#     Node 3, Type 0, BuildingBlock: BEQFEK_clean_sbu_0, # of connection points: 5
#     Node 4, Type 0, BuildingBlock: BEQFEK_clean_sbu_0, # of connection points: 5
#     Node 5, Type 0, BuildingBlock: BEQFEK_clean_sbu_0, # of connection points: 5
#     Node 6, Type 0, BuildingBlock: BEQFEK_clean_sbu_0, # of connection points: 5
#     Node 7, Type 0, BuildingBlock: BEQFEK_clean_sbu_0, # of connection points: 5
#     Node 8, Type 0, BuildingBlock: BEQFEK_clean_sbu_0, # of connection points: 5
#     Node 9, Type 0, BuildingBlock: BEQFEK_clean_sbu_0, # of connection points: 5
#     Node 10, Type 0, BuildingBlock: BEQFEK_clean_sbu_0, # of connection points: 5
#     Node 11, Type 0, BuildingBlock: BEQFEK_clean_sbu_0, # of connection points: 5
#     Node 12, Type 0, BuildingBlock: BEQFEK_clean_sbu_0, # of connection points: 5
#     Node 13, Type 0, BuildingBlock: BEQFEK_clean_sbu_0, # of connection points: 5
#     Node 14, Type 0, BuildingBlock: BEQFEK_clean_sbu_0, # of connection points: 5
#     Node 15, Type 0, BuildingBlock: BEQFEK_clean_sbu_0, # of connection points: 5
#     Node 16, Type 0, BuildingBlock: BEQFEK_clean_sbu_0, # of connection points: 5
#     Node 17, Type 0, BuildingBlock: BEQFEK_clean_sbu_0, # of connection points: 5
#     Node 18, Type 0, BuildingBlock: BEQFEK_clean_sbu_0, # of connection points: 5
#     Node 19, Type 0, BuildingBlock: BEQFEK_clean_sbu_0, # of connection points: 5
#     Node 20, Type 0, BuildingBlock: BEQFEK_clean_sbu_0, # of connection points: 5
#     Node 21, Type 0, BuildingBlock: BEQFEK_clean_sbu_0, # of connection points: 5
#     Node 22, Type 0, BuildingBlock: BEQFEK_clean_sbu_0, # of connection points: 5
#     Node 23, Type 0, BuildingBlock: BEQFEK_clean_sbu_0, # of connection points: 5
#     Node 24, Type 0, BuildingBlock: BEQFEK_clean_sbu_0, # of connection points: 5
#     Node 25, Type 0, BuildingBlock: BEQFEK_clean_sbu_0, # of connection points: 5
#     Node 26, Type 0, BuildingBlock: BEQFEK_clean_sbu_0, # of connection points: 5
#     Node 27, Type 0, BuildingBlock: BEQFEK_clean_sbu_0, # of connection points: 5
#     Node 28, Type 0, BuildingBlock: BEQFEK_clean_sbu_0, # of connection points: 5
#     Node 29, Type 0, BuildingBlock: BEQFEK_clean_sbu_0, # of connection points: 5
#     Node 30, Type 0, BuildingBlock: BEQFEK_clean_sbu_0, # of connection points: 5
#     Node 31, Type 0, BuildingBlock: BEQFEK_clean_sbu_0, # of connection points: 5
#     Node 32, Type 0, BuildingBlock: BEQFEK_clean_sbu_0, # of connection points: 5
#     Node 33, Type 0, BuildingBlock: BEQFEK_clean_sbu_0, # of connection points: 5
#     Node 34, Type 0, BuildingBlock: BEQFEK_clean_sbu_0, # of connection points: 5
#     Node 35, Type 0, BuildingBlock: BEQFEK_clean_sbu_0, # of connection points: 5
#     Edge 36, Type (0, 0), BuildingBlock: XIVTED_clean_linker_0, # of connection points: 2
#     Edge 37, Type (0, 0), BuildingBlock: XIVTED_clean_linker_0, # of connection points: 2
#     Edge 38, Type (0, 0), BuildingBlock: XIVTED_clean_linker_0, # of connection points: 2
#     Edge 39, Type (0, 0), BuildingBlock: XIVTED_clean_linker_0, # of connection points: 2
#     Edge 40, Type (0, 0), BuildingBlock: XIVTED_clean_linker_0, # of connection points: 2
#     Edge 41, Type (0, 0), BuildingBlock: XIVTED_clean_linker_0, # of connection points: 2
#     Edge 42, Type (0, 0), BuildingBlock: XIVTED_clean_linker_0, # of connection points: 2
#     Edge 43, Type (0, 0), BuildingBlock: XIVTED_clean_linker_0, # of connection points: 2
#     Edge 44, Type (0, 0), BuildingBlock: XIVTED_clean_linker_0, # of connection points: 2
#     Edge 45, Type (0, 0), BuildingBlock: XIVTED_clean_linker_0, # of connection points: 2
#     Edge 46, Type (0, 0), BuildingBlock: XIVTED_clean_linker_0, # of connection points: 2
#     Edge 47, Type (0, 0), BuildingBlock: XIVTED_clean_linker_0, # of connection points: 2
#     Edge 48, Type (0, 0), BuildingBlock: XIVTED_clean_linker_0, # of connection points: 2
#     Edge 49, Type (0, 0), BuildingBlock: XIVTED_clean_linker_0, # of connection points: 2
#     Edge 50, Type (0, 0), BuildingBlock: XIVTED_clean_linker_0, # of connection points: 2
#     Edge 51, Type (0, 0), BuildingBlock: XIVTED_clean_linker_0, # of connection points: 2
#     Edge 52, Type (0, 0), BuildingBlock: XIVTED_clean_linker_0, # of connection points: 2
#     Edge 53, Type (0, 0), BuildingBlock: XIVTED_clean_linker_0, # of connection points: 2
#     Edge 54, Type (0, 0), BuildingBlock: XIVTED_clean_linker_0, # of connection points: 2
#     Edge 55, Type (0, 0), BuildingBlock: XIVTED_clean_linker_0, # of connection points: 2
#     Edge 56, Type (0, 0), BuildingBlock: XIVTED_clean_linker_0, # of connection points: 2
#     Edge 57, Type (0, 0), BuildingBlock: XIVTED_clean_linker_0, # of connection points: 2
#     Edge 58, Type (0, 0), BuildingBlock: XIVTED_clean_linker_0, # of connection points: 2
#     Edge 59, Type (0, 0), BuildingBlock: XIVTED_clean_linker_0, # of connection points: 2
#     Edge 60, Type (0, 0), BuildingBlock: XIVTED_clean_linker_0, # of connection points: 2
#     Edge 61, Type (0, 0), BuildingBlock: XIVTED_clean_linker_0, # of connection points: 2
#     Edge 62, Type (0, 0), BuildingBlock: XIVTED_clean_linker_0, # of connection points: 2
#     Edge 63, Type (0, 0), BuildingBlock: XIVTED_clean_linker_0, # of connection points: 2
#     Edge 64, Type (0, 0), BuildingBlock: XIVTED_clean_linker_0, # of connection points: 2
#     Edge 65, Type (0, 0), BuildingBlock: XIVTED_clean_linker_0, # of connection points: 2
#     Edge 66, Type (0, 0), BuildingBlock: XIVTED_clean_linker_0, # of connection points: 2
#     Edge 67, Type (0, 0), BuildingBlock: XIVTED_clean_linker_0, # of connection points: 2
#     Edge 68, Type (0, 0), BuildingBlock: XIVTED_clean_linker_0, # of connection points: 2
#     Edge 69, Type (0, 0), BuildingBlock: XIVTED_clean_linker_0, # of connection points: 2
#     Edge 70, Type (0, 0), BuildingBlock: XIVTED_clean_linker_0, # of connection points: 2
#     Edge 71, Type (0, 0), BuildingBlock: XIVTED_clean_linker_0, # of connection points: 2
#     Edge 72, Type (0, 0), BuildingBlock: XIVTED_clean_linker_0, # of connection points: 2
#     Edge 73, Type (0, 0), BuildingBlock: XIVTED_clean_linker_0, # of connection points: 2
#     Edge 74, Type (0, 0), BuildingBlock: XIVTED_clean_linker_0, # of connection points: 2
#     Edge 75, Type (0, 0), BuildingBlock: XIVTED_clean_linker_0, # of connection points: 2
#     Edge 76, Type (0, 0), BuildingBlock: XIVTED_clean_linker_0, # of connection points: 2
#     Edge 77, Type (0, 0), BuildingBlock: XIVTED_clean_linker_0, # of connection points: 2
#     Edge 78, Type (0, 0), BuildingBlock: XIVTED_clean_linker_0, # of connection points: 2
#     Edge 79, Type (0, 0), BuildingBlock: XIVTED_clean_linker_0, # of connection points: 2
#     Edge 80, Type (0, 0), BuildingBlock: XIVTED_clean_linker_0, # of connection points: 2
#     Edge 81, Type (0, 0), BuildingBlock: XIVTED_clean_linker_0, # of connection points: 2
#     Edge 82, Type (0, 0), BuildingBlock: XIVTED_clean_linker_0, # of connection points: 2
#     Edge 83, Type (0, 0), BuildingBlock: XIVTED_clean_linker_0, # of connection points: 2
#     Edge 84, Type (0, 0), BuildingBlock: XIVTED_clean_linker_0, # of connection points: 2
#     Edge 85, Type (0, 0), BuildingBlock: XIVTED_clean_linker_0, # of connection points: 2
#     Edge 86, Type (0, 0), BuildingBlock: XIVTED_clean_linker_0, # of connection points: 2
#     Edge 87, Type (0, 0), BuildingBlock: XIVTED_clean_linker_0, # of connection points: 2
#     Edge 88, Type (0, 0), BuildingBlock: XIVTED_clean_linker_0, # of connection points: 2
#     Edge 89, Type (0, 0), BuildingBlock: XIVTED_clean_linker_0, # of connection points: 2
#     Edge 90, Type (0, 0), BuildingBlock: XIVTED_clean_linker_0, # of connection points: 2
#     Edge 91, Type (0, 0), BuildingBlock: XIVTED_clean_linker_0, # of connection points: 2
#     Edge 92, Type (0, 0), BuildingBlock: XIVTED_clean_linker_0, # of connection points: 2
#     Edge 93, Type (0, 0), BuildingBlock: XIVTED_clean_linker_0, # of connection points: 2
#     Edge 94, Type (0, 0), BuildingBlock: XIVTED_clean_linker_0, # of connection points: 2
#     Edge 95, Type (0, 0), BuildingBlock: XIVTED_clean_linker_0, # of connection points: 2
#     Edge 96, Type (0, 0), BuildingBlock: XIVTED_clean_linker_0, # of connection points: 2
#     Edge 97, Type (0, 0), BuildingBlock: XIVTED_clean_linker_0, # of connection points: 2
#     Edge 98, Type (0, 0), BuildingBlock: XIVTED_clean_linker_0, # of connection points: 2
#     Edge 99, Type (0, 0), BuildingBlock: XIVTED_clean_linker_0, # of connection points: 2
#     Edge 100, Type (0, 0), BuildingBlock: XIVTED_clean_linker_0, # of connection points: 2
#     Edge 101, Type (0, 0), BuildingBlock: XIVTED_clean_linker_0, # of connection points: 2
#     Edge 102, Type (0, 0), BuildingBlock: XIVTED_clean_linker_0, # of connection points: 2
#     Edge 103, Type (0, 0), BuildingBlock: XIVTED_clean_linker_0, # of connection points: 2
#     Edge 104, Type (0, 0), BuildingBlock: XIVTED_clean_linker_0, # of connection points: 2
#     Edge 105, Type (0, 0), BuildingBlock: XIVTED_clean_linker_0, # of connection points: 2
#     Edge 106, Type (0, 0), BuildingBlock: XIVTED_clean_linker_0, # of connection points: 2
#     Edge 107, Type (0, 0), BuildingBlock: XIVTED_clean_linker_0, # of connection points: 2
#     Edge 108, Type (0, 0), BuildingBlock: XIVTED_clean_linker_0, # of connection points: 2
#     Edge 109, Type (0, 0), BuildingBlock: XIVTED_clean_linker_0, # of connection points: 2
#     Edge 110, Type (0, 0), BuildingBlock: XIVTED_clean_linker_0, # of connection points: 2
#     Edge 111, Type (0, 0), BuildingBlock: XIVTED_clean_linker_0, # of connection points: 2
#     Edge 112, Type (0, 0), BuildingBlock: XIVTED_clean_linker_0, # of connection points: 2
#     Edge 113, Type (0, 0), BuildingBlock: XIVTED_clean_linker_0, # of connection points: 2
#     Edge 114, Type (0, 0), BuildingBlock: XIVTED_clean_linker_0, # of connection points: 2
#     Edge 115, Type (0, 0), BuildingBlock: XIVTED_clean_linker_0, # of connection points: 2
#     Edge 116, Type (0, 0), BuildingBlock: XIVTED_clean_linker_0, # of connection points: 2
#     Edge 117, Type (0, 0), BuildingBlock: XIVTED_clean_linker_0, # of connection points: 2
#     Edge 118, Type (0, 0), BuildingBlock: XIVTED_clean_linker_0, # of connection points: 2
#     Edge 119, Type (0, 0), BuildingBlock: XIVTED_clean_linker_0, # of connection points: 2
#     Edge 120, Type (0, 0), BuildingBlock: XIVTED_clean_linker_0, # of connection points: 2
#     Edge 121, Type (0, 0), BuildingBlock: XIVTED_clean_linker_0, # of connection points: 2
#     Edge 122, Type (0, 0), BuildingBlock: XIVTED_clean_linker_0, # of connection points: 2
#     Edge 123, Type (0, 0), BuildingBlock: XIVTED_clean_linker_0, # of connection points: 2
#     Edge 124, Type (0, 0), BuildingBlock: XIVTED_clean_linker_0, # of connection points: 2
#     Edge 125, Type (0, 0), BuildingBlock: XIVTED_clean_linker_0, # of connection points: 2
# Relax obj value: 0.054
# Max RMSD: 0.100
# Mean RMSD: 0.100
data_MOF--net-wlm--node1-BEQFEK_clean_sbu_0--edge1-XIVTED_clean_linker_0
_symmetry_space_group_name_H-M    P1
_symmetry_Int_Tables_number       1
_symmetry_cell_setting            triclinic
loop_
_symmetry_equiv_pos_as_xyz
'x, y, z'
_cell_length_a     129.40089
_cell_length_b     129.3938
_cell_length_c     19.444546
_cell_angle_alpha  89.992924
_cell_angle_beta   90.001718
_cell_angle_gamma 120.00849
loop_
_atom_site_label
_atom_site_type_symbol
_atom_site_fract_x
_atom_site_fract_y
_atom_site_fract_z
_atom_type_partial_charge
Co0 Co 0.1412 0.40016 0.30841 0.0
Co1 Co 0.13813 0.39321 0.15295 0.0
C2 C 0.16201 0.40422 0.22476 0.0
O3 O 0.15777 0.40523 0.28183 0.0
O4 O 0.15536 0.39965 0.17225 0.0
C5 C 0.14888 0.41139 0.4437 0.0
O6 O 0.15965 0.41803 0.41837 0.0
C7 C 0.14141 0.39697 0.00248 0.0
C8 C 0.12456 0.38164 0.96551 0.0
C9 C 0.13487 0.39167 0.94313 0.0
N10 N 0.13507 0.39048 0.05699 0.0
N11 N 0.12507 0.38128 0.03436 0.0
C12 C 0.1535 0.40788 0.0078 0.0
H13 H 0.15796 0.40789 0.05622 0.0
H14 H 0.15255 0.41594 0.00756 0.0
H15 H 0.15919 0.40839 0.96376 0.0
C16 C 0.12978 0.41385 0.26278 0.0
N17 N 0.13444 0.4068 0.24997 0.0
N18 N 0.13291 0.40373 0.18466 0.0
C19 C 0.12707 0.40866 0.15388 0.0
C20 C 0.12493 0.41524 0.2023 0.0
C21 C 0.12913 0.41827 0.33285 0.0
H22 H 0.12411 0.41053 0.36763 0.0
H23 H 0.13829 0.42367 0.35386 0.0
H24 H 0.12469 0.42371 0.33194 0.0
O25 O 0.13155 0.38255 0.30776 0.0
O26 O 0.12889 0.37742 0.19785 0.0
H27 H 0.11765 0.39739 0.06874 0.0
H28 H 0.11879 0.4119 0.06563 0.0
C29 C 0.12351 0.40703 0.0797 0.0
H30 H 0.13159 0.41042 0.04729 0.0
H31 H 0.11849 0.37487 0.06614 0.0
O32 O 0.14046 0.40421 0.40475 0.0
C33 C 0.12719 0.37461 0.26118 0.0
Co34 Co 0.59429 0.74043 0.31731 0.0
Co35 Co 0.60201 0.74383 0.1622 0.0
C36 C 0.5909 0.75708 0.22662 0.0
O37 O 0.5897 0.75206 0.28475 0.0
O38 O 0.59557 0.75473 0.17567 0.0
C39 C 0.58688 0.74224 0.45376 0.0
O40 O 0.58682 0.75164 0.4287 0.0
C41 C 0.598 0.74276 0.01371 0.0
C42 C 0.61353 0.74194 0.97324 0.0
C43 C 0.60317 0.74178 0.9533 0.0
N44 N 0.60497 0.74341 0.06667 0.0
N45 N 0.61431 0.74304 0.04214 0.0
C46 C 0.58615 0.742 0.02226 0.0
H47 H 0.5825 0.73864 0.07433 0.0
H48 H 0.57975 0.73608 0.98264 0.0
H49 H 0.58731 0.75105 0.01644 0.0
C50 C 0.58026 0.71525 0.27219 0.0
N51 N 0.5878 0.72689 0.25949 0.0
N52 N 0.59106 0.72824 0.19447 0.0
C53 C 0.58571 0.71746 0.16376 0.0
C54 C 0.57864 0.70891 0.21185 0.0
C55 C 0.5747 0.71042 0.34078 0.0
H56 H 0.57097 0.71585 0.36181 0.0
H57 H 0.56751 0.70095 0.33723 0.0
H58 H 0.58168 0.71116 0.37687 0.0
O59 O 0.6119 0.74813 0.31996 0.0
O60 O 0.61751 0.75031 0.21068 0.0
H61 H 0.58483 0.70563 0.08204 0.0
H62 H 0.58353 0.71827 0.05533 0.0
C63 C 0.58809 0.71523 0.09149 0.0
H64 H 0.5978 0.72032 0.0811 0.0
H65 H 0.62105 0.74325 0.0726 0.0
O66 O 0.58921 0.73587 0.41405 0.0
C67 C 0.62004 0.75152 0.27451 0.0
Co68 Co 0.25485 0.85275 0.30801 0.0
Co69 Co 0.25124 0.85658 0.1536 0.0
C70 C 0.238 0.83239 0.22272 0.0
O71 O 0.24324 0.83625 0.28026 0.0
O72 O 0.24021 0.83936 0.17166 0.0
C73 C 0.25793 0.84493 0.44407 0.0
O74 O 0.25299 0.83398 0.42016 0.0
C75 C 0.25279 0.85331 0.00517 0.0
C76 C 0.25208 0.86883 0.96363 0.0
C77 C 0.25327 0.85916 0.94391 0.0
N78 N 0.25154 0.85939 0.05758 0.0
N79 N 0.25105 0.8686 0.03237 0.0
C80 C 0.25336 0.84213 0.01502 0.0
H81 H 0.25073 0.83863 0.06782 0.0
H82 H 0.26266 0.84409 0.00709 0.0
H83 H 0.24744 0.83522 0.97758 0.0
C84 C 0.27996 0.86379 0.26258 0.0
N85 N 0.2683 0.85954 0.2499 0.0
N86 N 0.2669 0.86143 0.18498 0.0
C87 C 0.27769 0.86708 0.15433 0.0
C88 C 0.28629 0.86866 0.20237 0.0
C89 C 0.28486 0.86315 0.33115 0.0
H90 H 0.27946 0.85402 0.35249 0.0
H91 H 0.29432 0.86544 0.32742 0.0
H92 H 0.28415 0.86944 0.36704 0.0
O93 O 0.24701 0.86252 0.30839 0.0
O94 O 0.24492 0.86596 0.19915 0.0
H95 H 0.28938 0.87883 0.07472 0.0
H96 H 0.27752 0.8646 0.04563 0.0
C97 C 0.27989 0.87196 0.08268 0.0
H98 H 0.27427 0.87601 0.07213 0.0
H99 H 0.2502 0.87483 0.06222 0.0
O100 O 0.2597 0.85342 0.40416 0.0
C101 C 0.24367 0.86728 0.26286 0.0
Co102 Co 0.39839 0.14104 0.68528 0.0
Co103 Co 0.39196 0.13837 0.84154 0.0
C104 C 0.40223 0.16199 0.76928 0.0
O105 O 0.40302 0.15756 0.71235 0.0
O106 O 0.39806 0.15555 0.82299 0.0
C107 C 0.40926 0.14927 0.54999 0.0
O108 O 0.41514 0.16012 0.57535 0.0
C109 C 0.39428 0.14151 0.99297 0.0
C110 C 0.38183 0.12302 0.02625 0.0
C111 C 0.39001 0.13424 0.05077 0.0
N112 N 0.3891 0.13476 0.937 0.0
N113 N 0.38155 0.12377 0.95747 0.0
C114 C 0.40288 0.15465 0.99053 0.0
H115 H 0.40046 0.15878 0.94845 0.0
H116 H 0.41199 0.15622 0.98048 0.0
H117 H 0.40285 0.15903 0.03953 0.0
C118 C 0.41274 0.13029 0.73068 0.0
N119 N 0.40536 0.13458 0.74334 0.0
N120 N 0.40297 0.13376 0.8095 0.0
C121 C 0.40899 0.12913 0.84144 0.0
C122 C 0.41529 0.12668 0.79255 0.0
C123 C 0.41653 0.12898 0.66002 0.0
H124 H 0.40868 0.12501 0.62531 0.0
H125 H 0.42302 0.13794 0.63972 0.0
H126 H 0.42065 0.12325 0.65981 0.0
O127 O 0.3809 0.13106 0.68616 0.0
O128 O 0.37613 0.12883 0.79656 0.0
H129 H 0.40065 0.12019 0.9351 0.0
H130 H 0.4166 0.12615 0.93358 0.0
C131 C 0.4093 0.12777 0.91775 0.0
H132 H 0.4107 0.13601 0.94337 0.0
H133 H 0.37645 0.11669 0.92414 0.0
O134 O 0.40257 0.14059 0.58892 0.0
C135 C 0.37312 0.1268 0.73359 0.0
Co136 Co 0.85393 0.25598 0.68443 0.0
Co137 Co 0.85695 0.25262 0.84077 0.0
C138 C 0.83304 0.23964 0.77197 0.0
O139 O 0.83743 0.24451 0.71417 0.0
O140 O 0.83958 0.24195 0.82528 0.0
C141 C 0.84541 0.25787 0.54846 0.0
O142 O 0.83452 0.25238 0.57349 0.0
C143 C 0.85415 0.25135 0.99194 0.0
C144 C 0.87299 0.25935 0.02424 0.0
C145 C 0.86153 0.25505 0.04935 0.0
N146 N 0.861 0.25372 0.93563 0.0
N147 N 0.87222 0.25831 0.95543 0.0
C148 C 0.84081 0.24505 0.98996 0.0
H149 H 0.83754 0.23753 0.95317 0.0
H150 H 0.83788 0.2513 0.97174 0.0
H151 H 0.83683 0.24138 0.04093 0.0
C152 C 0.8654 0.28128 0.72702 0.0
N153 N 0.86092 0.26961 0.74085 0.0
N154 N 0.86178 0.26821 0.80717 0.0
C155 C 0.86653 0.27895 0.83811 0.0
C156 C 0.86912 0.2876 0.78833 0.0
C157 C 0.86671 0.28621 0.65587 0.0
H158 H 0.87032 0.28195 0.62129 0.0
H159 H 0.85779 0.28402 0.63623 0.0
H160 H 0.87275 0.29601 0.65459 0.0
O161 O 0.86355 0.24811 0.68493 0.0
O162 O 0.86596 0.24576 0.79535 0.0
H163 H 0.87579 0.28065 0.9322 0.0
H164 H 0.8686 0.2895 0.92891 0.0
C165 C 0.86774 0.28082 0.91432 0.0
H166 H 0.85979 0.27362 0.94045 0.0
H167 H 0.8794 0.26108 0.92165 0.0
O168 O 0.85418 0.2604 0.58776 0.0
C169 C 0.86777 0.24454 0.73233 0.0
Co170 Co 0.74056 0.5977 0.67346 0.0
Co171 Co 0.74135 0.60229 0.8324 0.0
C172 C 0.75566 0.59252 0.76934 0.0
O173 O 0.7515 0.59243 0.70982 0.0
O174 O 0.75261 0.59629 0.82167 0.0
C175 C 0.73427 0.58474 0.54047 0.0
O176 O 0.72887 0.57453 0.57352 0.0
C177 C 0.74018 0.598 0.98189 0.0
C178 C 0.73283 0.60915 0.01919 0.0
C179 C 0.73634 0.60117 0.04056 0.0
N180 N 0.73892 0.6038 0.92799 0.0
N181 N 0.73467 0.61056 0.95084 0.0
C182 C 0.74386 0.58876 0.97592 0.0
H183 H 0.74029 0.58361 0.92764 0.0
H184 H 0.74065 0.58256 0.02045 0.0
H185 H 0.75374 0.59328 0.97409 0.0
C186 C 0.71432 0.58416 0.70291 0.0
N187 N 0.72588 0.59049 0.72214 0.0
N188 N 0.72642 0.59181 0.78949 0.0
C189 C 0.71528 0.58593 0.81532 0.0
C190 C 0.70724 0.58105 0.76141 0.0
C191 C 0.71007 0.58226 0.63 0.0
H192 H 0.71674 0.58944 0.59658 0.0
H193 H 0.70869 0.57353 0.61186 0.0
H194 H 0.70142 0.58207 0.62602 0.0
O195 O 0.74815 0.61512 0.68054 0.0
O196 O 0.74855 0.61866 0.79232 0.0
H197 H 0.71284 0.59273 0.91044 0.0
H198 H 0.70329 0.57685 0.90024 0.0
C199 C 0.71236 0.58448 0.89047 0.0
H200 H 0.71885 0.58285 0.91859 0.0
H201 H 0.73269 0.61588 0.91936 0.0
O202 O 0.73897 0.59453 0.57335 0.0
C203 C 0.75074 0.62236 0.7304 0.0
Co204 Co 0.85151 0.595 0.68249 0.0
Co205 Co 0.85552 0.60232 0.83803 0.0
C206 C 0.83127 0.59129 0.77283 0.0
O207 O 0.83527 0.59029 0.71488 0.0
O208 O 0.83814 0.59585 0.82449 0.0
C209 C 0.84224 0.5876 0.54627 0.0
O210 O 0.83279 0.58752 0.57151 0.0
C211 C 0.8526 0.59826 0.9864 0.0
C212 C 0.86901 0.61374 0.02674 0.0
C213 C 0.85879 0.6034 0.04671 0.0
N214 N 0.85892 0.60522 0.93343 0.0
N215 N 0.86866 0.61453 0.95788 0.0
C216 C 0.84146 0.58644 0.97793 0.0
H217 H 0.84116 0.58277 0.92592 0.0
H218 H 0.84093 0.58004 0.01766 0.0
H219 H 0.83361 0.58767 0.98357 0.0
C220 C 0.86274 0.58102 0.72645 0.0
N221 N 0.85852 0.58844 0.73982 0.0
N222 N 0.86027 0.5915 0.80517 0.0
C223 C 0.86574 0.58614 0.83544 0.0
C224 C 0.86741 0.57929 0.78666 0.0
C225 C 0.86217 0.57569 0.65733 0.0
H226 H 0.85303 0.5719 0.63606 0.0
H227 H 0.86458 0.56859 0.66013 0.0
H228 H 0.86839 0.58282 0.62184 0.0
O229 O 0.8614 0.61262 0.6806 0.0
O230 O 0.86451 0.61789 0.79045 0.0
H231 H 0.8765 0.58502 0.91751 0.0
H232 H 0.86256 0.58378 0.94366 0.0
C233 C 0.87023 0.58835 0.90797 0.0
H234 H 0.87489 0.59805 0.91893 0.0
H235 H 0.8752 0.62126 0.92735 0.0
O236 O 0.85099 0.58999 0.58575 0.0
C237 C 0.866 0.62061 0.7269 0.0
Co238 Co 0.39911 0.25591 0.68327 0.0
Co239 Co 0.39205 0.25212 0.83826 0.0
C240 C 0.40241 0.23863 0.76614 0.0
O241 O 0.40366 0.24397 0.7091 0.0
O242 O 0.39794 0.2409 0.81844 0.0
C243 C 0.41014 0.25916 0.54784 0.0
O244 O 0.41621 0.25433 0.57239 0.0
C245 C 0.39667 0.25319 0.98715 0.0
C246 C 0.38079 0.25331 0.0279 0.0
C247 C 0.39139 0.25396 0.04802 0.0
N248 N 0.38956 0.25234 0.93435 0.0
N249 N 0.38006 0.25232 0.95914 0.0
C250 C 0.40809 0.25305 0.97834 0.0
H251 H 0.41574 0.26227 0.98299 0.0
H252 H 0.40891 0.24739 0.01841 0.0
H253 H 0.40858 0.24968 0.92695 0.0
C254 C 0.41367 0.28091 0.72995 0.0
N255 N 0.40613 0.26926 0.74218 0.0
N256 N 0.40304 0.26778 0.80743 0.0
C257 C 0.40846 0.27851 0.8388 0.0
C258 C 0.41543 0.28715 0.79084 0.0
C259 C 0.41903 0.28588 0.66114 0.0
H260 H 0.42272 0.28052 0.63882 0.0
H261 H 0.42621 0.29535 0.66479 0.0
H262 H 0.41193 0.28518 0.62608 0.0
O263 O 0.38152 0.24842 0.68382 0.0
O264 O 0.37632 0.24612 0.79362 0.0
H265 H 0.3964 0.27537 0.92219 0.0
H266 H 0.40917 0.29021 0.9208 0.0
C267 C 0.40609 0.28065 0.91129 0.0
H268 H 0.41084 0.27778 0.94705 0.0
H269 H 0.37317 0.25186 0.92895 0.0
O270 O 0.40329 0.26083 0.58723 0.0
C271 C 0.37356 0.24508 0.73021 0.0
Co272 Co 0.73916 0.14261 0.69082 0.0
Co273 Co 0.74372 0.13987 0.84553 0.0
C274 C 0.7564 0.16359 0.77138 0.0
O275 O 0.75089 0.15924 0.71512 0.0
O276 O 0.75451 0.15705 0.82422 0.0
C277 C 0.73561 0.15012 0.55562 0.0
O278 O 0.74041 0.16101 0.58026 0.0
C279 C 0.74275 0.14354 0.99432 0.0
C280 C 0.74367 0.12813 0.03575 0.0
C281 C 0.74241 0.13775 0.05556 0.0
N282 N 0.74393 0.13744 0.94178 0.0
N283 N 0.74458 0.12832 0.96697 0.0
C284 C 0.74213 0.1547 0.98471 0.0
H285 H 0.74508 0.1584 0.93251 0.0
H286 H 0.73277 0.15264 0.99089 0.0
H287 H 0.74778 0.16149 0.02342 0.0
C288 C 0.71431 0.13171 0.74073 0.0
N289 N 0.72605 0.13614 0.75151 0.0
N290 N 0.72784 0.13466 0.81648 0.0
C291 C 0.71722 0.12906 0.84903 0.0
C292 C 0.70832 0.1271 0.80223 0.0
C293 C 0.70903 0.13193 0.67268 0.0
H294 H 0.71436 0.14089 0.64906 0.0
H295 H 0.69962 0.12979 0.67794 0.0
H296 H 0.70942 0.12534 0.6379 0.0
O297 O 0.74703 0.13286 0.69081 0.0
O298 O 0.74994 0.13038 0.80035 0.0
H299 H 0.70605 0.11749 0.93093 0.0
H300 H 0.71785 0.13194 0.95752 0.0
C301 C 0.71545 0.12447 0.92128 0.0
H302 H 0.72126 0.12062 0.93136 0.0
H303 H 0.7454 0.12207 0.93704 0.0
O304 O 0.73395 0.1416 0.59502 0.0
C305 C 0.75076 0.12854 0.73686 0.0
Co306 Co 0.59668 0.85508 0.29312 0.0
Co307 Co 0.60305 0.85781 0.13679 0.0
C308 C 0.59223 0.83405 0.20756 0.0
O309 O 0.59165 0.83853 0.26482 0.0
O310 O 0.59649 0.84051 0.15397 0.0
C311 C 0.58589 0.84686 0.42874 0.0
O312 O 0.57999 0.83599 0.40356 0.0
C313 C 0.60098 0.85487 0.98542 0.0
C314 C 0.61295 0.87351 0.95277 0.0
C315 C 0.60507 0.86222 0.92789 0.0
N316 N 0.60596 0.86162 0.0416 0.0
N317 N 0.61324 0.87271 0.02154 0.0
C318 C 0.59286 0.84164 0.9875 0.0
H319 H 0.596 0.83771 0.02702 0.0
H320 H 0.58373 0.83962 0.00159 0.0
H321 H 0.59263 0.83744 0.93736 0.0
C322 C 0.58278 0.86639 0.24906 0.0
N323 N 0.58998 0.86191 0.23586 0.0
N324 N 0.59229 0.8627 0.1696 0.0
C325 C 0.58635 0.86746 0.13811 0.0
C326 C 0.58023 0.87008 0.18742 0.0
C327 C 0.57911 0.86777 0.31994 0.0
H328 H 0.58697 0.87148 0.35461 0.0
H329 H 0.57243 0.85885 0.33992 0.0
H330 H 0.57527 0.87374 0.32063 0.0
O331 O 0.61419 0.86473 0.29231 0.0
O332 O 0.61893 0.86698 0.18188 0.0
H333 H 0.59436 0.87644 0.04398 0.0
H334 H 0.57838 0.87009 0.04656 0.0
C335 C 0.58586 0.86872 0.06181 0.0
H336 H 0.58464 0.86054 0.03616 0.0
H337 H 0.61813 0.87981 0.05514 0.0
O338 O 0.59256 0.85551 0.38965 0.0
C339 C 0.62196 0.86889 0.24487 0.0
Co340 Co 0.14071 0.7403 0.30672 0.0
Co341 Co 0.13726 0.74386 0.15132 0.0
C342 C 0.16133 0.75656 0.21707 0.0
O343 O 0.15708 0.75151 0.27454 0.0
O344 O 0.15464 0.75451 0.16488 0.0
C345 C 0.14941 0.74365 0.44242 0.0
O346 O 0.15734 0.75404 0.41701 0.0
C347 C 0.14055 0.74404 0.00258 0.0
C348 C 0.12308 0.74072 0.96387 0.0
C349 C 0.13404 0.74236 0.94287 0.0
N350 N 0.13372 0.74336 0.05633 0.0
N351 N 0.12335 0.74151 0.03289 0.0
C352 C 0.1525 0.74496 0.0095 0.0
H353 H 0.15317 0.74121 0.05954 0.0
H354 H 0.15405 0.74015 0.96708 0.0
H355 H 0.15955 0.7545 0.00759 0.0
C356 C 0.12865 0.71499 0.26328 0.0
N357 N 0.13336 0.7267 0.24986 0.0
N358 N 0.13214 0.72817 0.18401 0.0
C359 C 0.12671 0.7174 0.1531 0.0
C360 C 0.12426 0.70869 0.20234 0.0
C361 C 0.12774 0.71002 0.33396 0.0
H362 H 0.12446 0.71436 0.37024 0.0
H363 H 0.13674 0.71209 0.35129 0.0
H364 H 0.12161 0.70023 0.33543 0.0
O365 O 0.13117 0.74838 0.30884 0.0
O366 O 0.1285 0.75073 0.19859 0.0
H367 H 0.11764 0.718 0.06254 0.0
H368 H 0.12132 0.70623 0.0617 0.0
C369 C 0.12442 0.71556 0.07737 0.0
H370 H 0.13277 0.72141 0.04914 0.0
H371 H 0.11633 0.74048 0.06419 0.0
O372 O 0.14151 0.73593 0.40286 0.0
C373 C 0.12688 0.75199 0.26191 0.0
Co374 Co 0.25528 0.40051 0.30704 0.0
Co375 Co 0.25188 0.39386 0.1517 0.0
C376 C 0.23847 0.40437 0.223 0.0
O377 O 0.24363 0.40538 0.28044 0.0
O378 O 0.24078 0.39995 0.1706 0.0
C379 C 0.25867 0.4116 0.44246 0.0
O380 O 0.25424 0.41802 0.41775 0.0
C381 C 0.25328 0.39859 0.00284 0.0
C382 C 0.25348 0.38272 0.96259 0.0
C383 C 0.25414 0.39331 0.94224 0.0
N384 N 0.25236 0.39148 0.05579 0.0
N385 N 0.2524 0.38199 0.0313 0.0
C386 C 0.2531 0.41 0.01116 0.0
H387 H 0.2496 0.41047 0.06219 0.0
H388 H 0.26232 0.41766 0.00707 0.0
H389 H 0.24753 0.41081 0.9705 0.0
C390 C 0.28042 0.41498 0.26309 0.0
N391 N 0.2688 0.40752 0.24961 0.0
N392 N 0.2675 0.4046 0.18411 0.0
C393 C 0.27833 0.41006 0.1538 0.0
C394 C 0.28683 0.41687 0.20279 0.0
C395 C 0.28517 0.42027 0.33234 0.0
H396 H 0.27981 0.42405 0.3536 0.0
H397 H 0.29467 0.4274 0.32977 0.0
H398 H 0.28426 0.41313 0.36769 0.0
O399 O 0.24755 0.38291 0.3055 0.0
O400 O 0.2455 0.37801 0.19528 0.0
H401 H 0.29022 0.41109 0.07218 0.0
H402 H 0.27782 0.4128 0.04581 0.0
C403 C 0.28063 0.40795 0.08114 0.0
H404 H 0.2754 0.3983 0.06916 0.0
H405 H 0.25189 0.37509 0.06169 0.0
O406 O 0.25999 0.40451 0.40328 0.0
C407 C 0.24423 0.37507 0.25841 0.0
Co408 Co 0.80949 0.73444 0.67325 0.0
Co409 Co 0.80539 0.7296 0.51433 0.0
C410 C 0.82947 0.73878 0.57796 0.0
O411 O 0.82559 0.73916 0.63759 0.0
O412 O 0.82255 0.73512 0.52601 0.0
C413 C 0.81694 0.74736 0.80599 0.0
O414 O 0.82303 0.75745 0.7724 0.0
C415 C 0.80894 0.73441 0.36558 0.0
C416 C 0.79087 0.72235 0.32481 0.0
C417 C 0.80229 0.73095 0.30556 0.0
N418 N 0.80177 0.7282 0.41824 0.0
N419 N 0.79102 0.72091 0.39333 0.0
C420 C 0.82164 0.74411 0.37365 0.0
H421 H 0.82283 0.74879 0.42336 0.0
H422 H 0.82441 0.75062 0.33071 0.0
H423 H 0.82745 0.74009 0.37366 0.0
C424 C 0.79798 0.74905 0.64237 0.0
N425 N 0.80251 0.74207 0.62362 0.0
N426 N 0.80139 0.74046 0.55647 0.0
C427 C 0.79652 0.7467 0.53033 0.0
C428 C 0.79423 0.75234 0.58373 0.0
C429 C 0.79698 0.75229 0.71495 0.0
H430 H 0.79534 0.74488 0.7501 0.0
H431 H 0.80545 0.76035 0.72974 0.0
H432 H 0.7897 0.75438 0.72056 0.0
O433 O 0.79922 0.71701 0.66629 0.0
O434 O 0.79586 0.71334 0.55473 0.0
H435 H 0.78641 0.73736 0.44174 0.0
H436 H 0.78966 0.75256 0.44601 0.0
C437 C 0.79328 0.74655 0.45627 0.0
H438 H 0.80128 0.74932 0.42381 0.0
H439 H 0.78369 0.71513 0.42343 0.0
O440 O 0.81092 0.73761 0.77356 0.0
C441 C 0.79436 0.70973 0.61682 0.0
Co442 Co 0.26096 0.07331 0.64784 0.0
Co443 Co 0.2682 0.07616 0.49225 0.0
C444 C 0.2576 0.08989 0.55628 0.0
O445 O 0.25652 0.085 0.6147 0.0
O446 O 0.26205 0.08733 0.50504 0.0
C447 C 0.2537 0.07544 0.78421 0.0
O448 O 0.25377 0.08489 0.75906 0.0
C449 C 0.26401 0.07489 0.34404 0.0
C450 C 0.27925 0.07356 0.3034 0.0
C451 C 0.26903 0.07369 0.28363 0.0
N452 N 0.27094 0.0754 0.39687 0.0
N453 N 0.28009 0.07471 0.37225 0.0
C454 C 0.25235 0.07453 0.35272 0.0
H455 H 0.24863 0.07116 0.40469 0.0
H456 H 0.24587 0.06878 0.31292 0.0
H457 H 0.25381 0.0837 0.34741 0.0
C458 C 0.24658 0.04806 0.60572 0.0
N459 N 0.25414 0.05963 0.59146 0.0
N460 N 0.25717 0.06072 0.52614 0.0
C461 C 0.25165 0.04983 0.49673 0.0
C462 C 0.24472 0.04148 0.54611 0.0
C463 C 0.24123 0.04351 0.6751 0.0
H464 H 0.23762 0.04906 0.6958 0.0
H465 H 0.23398 0.03405 0.67294 0.0
H466 H 0.24831 0.04434 0.71071 0.0
O467 O 0.27855 0.08075 0.64934 0.0
O468 O 0.28377 0.08256 0.53949 0.0
H469 H 0.26349 0.05218 0.4136 0.0
H470 H 0.25027 0.03767 0.41569 0.0
C471 C 0.25379 0.04733 0.42453 0.0
H472 H 0.24936 0.0505 0.38833 0.0
H473 H 0.28677 0.07476 0.40263 0.0
O474 O 0.25597 0.069 0.74471 0.0
C475 C 0.28651 0.0839 0.60302 0.0
Co476 Co 0.92178 0.18639 0.64447 0.0
Co477 Co 0.91862 0.1905 0.4894 0.0
C478 C 0.90527 0.16624 0.55317 0.0
O479 O 0.9103 0.17018 0.61108 0.0
O480 O 0.90758 0.17317 0.50185 0.0
C481 C 0.91795 0.17778 0.78034 0.0
O482 O 0.90739 0.17031 0.75495 0.0
C483 C 0.9184 0.18732 0.34056 0.0
C484 C 0.92215 0.20494 0.30212 0.0
C485 C 0.92019 0.19388 0.28092 0.0
N486 N 0.91929 0.19421 0.39446 0.0
N487 N 0.92141 0.20469 0.37119 0.0
C488 C 0.91716 0.17522 0.34721 0.0
H489 H 0.92092 0.17445 0.39696 0.0
H490 H 0.92178 0.17351 0.3044 0.0
H491 H 0.90756 0.16835 0.34577 0.0
C492 C 0.94714 0.19822 0.60231 0.0
N493 N 0.93547 0.19366 0.58825 0.0
N494 N 0.93416 0.19513 0.52253 0.0
C495 C 0.94499 0.20055 0.4923 0.0
C496 C 0.95358 0.20276 0.5419 0.0
C497 C 0.95196 0.19897 0.67326 0.0
H498 H 0.94761 0.20226 0.70941 0.0
H499 H 0.94975 0.18991 0.69024 0.0
H500 H 0.96176 0.20501 0.67546 0.0
O501 O 0.91404 0.19622 0.64738 0.0
O502 O 0.91205 0.19947 0.53751 0.0
H503 H 0.94484 0.21016 0.40317 0.0
H504 H 0.9563 0.20606 0.40153 0.0
C505 C 0.94699 0.20313 0.41689 0.0
H506 H 0.94102 0.19497 0.38753 0.0
H507 H 0.92263 0.21175 0.4026 0.0
O508 O 0.92597 0.18532 0.7406 0.0
C509 C 0.91071 0.20088 0.60106 0.0
Co510 Co 0.06499 0.47491 0.02823 0.0
Co511 Co 0.05793 0.47168 0.18359 0.0
C512 C 0.06905 0.49566 0.1125 0.0
O513 O 0.07011 0.49148 0.05532 0.0
O514 O 0.06439 0.48894 0.16469 0.0
C515 C 0.07616 0.48261 0.89269 0.0
O516 O 0.08277 0.49341 0.91778 0.0
C517 C 0.06166 0.47492 0.33412 0.0
C518 C 0.0464 0.45799 0.37092 0.0
C519 C 0.05638 0.46833 0.39339 0.0
N520 N 0.05519 0.46858 0.27953 0.0
N521 N 0.04603 0.45854 0.30207 0.0
C522 C 0.07251 0.48705 0.32898 0.0
H523 H 0.07244 0.49155 0.28089 0.0
H524 H 0.0806 0.48617 0.32871 0.0
H525 H 0.073 0.49268 0.37335 0.0
C526 C 0.07872 0.46353 0.07367 0.0
N527 N 0.07158 0.4681 0.08649 0.0
N528 N 0.06847 0.46649 0.15174 0.0
C529 C 0.07346 0.46071 0.18247 0.0
C530 C 0.08011 0.45867 0.13407 0.0
C531 C 0.08326 0.46303 0.0037 0.0
H532 H 0.07558 0.45803 0.96852 0.0
H533 H 0.08863 0.47223 0.98321 0.0
H534 H 0.08876 0.45866 0.00458 0.0
O535 O 0.04738 0.46531 0.02868 0.0
O536 O 0.04215 0.46248 0.13844 0.0
H537 H 0.06223 0.45125 0.26772 0.0
H538 H 0.07678 0.45248 0.27069 0.0
C539 C 0.07186 0.45715 0.25666 0.0
H540 H 0.07523 0.46524 0.28904 0.0
H541 H 0.03965 0.45194 0.27022 0.0
O542 O 0.06904 0.4742 0.93184 0.0
C543 C 0.03939 0.46088 0.07501 0.0
Co544 Co 0.51974 0.58957 0.01301 0.0
Co545 Co 0.52411 0.58625 0.16789 0.0
C546 C 0.4997 0.57314 0.10525 0.0
O547 O 0.50352 0.57815 0.04713 0.0
O548 O 0.50674 0.5754 0.15595 0.0
C549 C 0.51093 0.58592 0.87705 0.0
O550 O 0.50307 0.57554 0.90294 0.0
C551 C 0.52121 0.58613 0.31741 0.0
C552 C 0.53885 0.58971 0.35438 0.0
C553 C 0.52791 0.58794 0.37656 0.0
N554 N 0.52793 0.58685 0.26288 0.0
N555 N 0.53841 0.58886 0.28534 0.0
C556 C 0.50918 0.58506 0.31178 0.0
H557 H 0.50825 0.58861 0.26164 0.0
H558 H 0.50774 0.58996 0.35412 0.0
H559 H 0.50221 0.57551 0.31504 0.0
C560 C 0.53166 0.61492 0.05636 0.0
N561 N 0.5272 0.60324 0.06967 0.0
N562 N 0.52882 0.60185 0.13508 0.0
C563 C 0.53425 0.61263 0.1658 0.0
C564 C 0.53631 0.62128 0.11691 0.0
C565 C 0.5321 0.61982 0.98604 0.0
H566 H 0.53537 0.61564 0.94866 0.0
H567 H 0.52294 0.6175 0.9704 0.0
H568 H 0.538 0.62965 0.98428 0.0
O569 O 0.52942 0.58168 0.00944 0.0
O570 O 0.53291 0.57955 0.11868 0.0
H571 H 0.54378 0.6122 0.25467 0.0
H572 H 0.53989 0.62382 0.25719 0.0
C573 C 0.53685 0.61452 0.24125 0.0
H574 H 0.52865 0.6086 0.27047 0.0
H575 H 0.54537 0.58996 0.25337 0.0
O576 O 0.51872 0.59379 0.91651 0.0
C577 C 0.53413 0.57825 0.05483 0.0
Co578 Co 0.406 0.93051 0.01466 0.0
Co579 Co 0.40925 0.93714 0.1709 0.0
C580 C 0.42224 0.92612 0.10475 0.0
O581 O 0.41729 0.92546 0.04709 0.0
O582 O 0.42003 0.93055 0.15737 0.0
C583 C 0.40835 0.92344 0.87915 0.0
O584 O 0.41791 0.92383 0.90502 0.0
C585 C 0.40902 0.93381 0.31999 0.0
C586 C 0.40549 0.94786 0.35792 0.0
C587 C 0.40707 0.93853 0.3794 0.0
N588 N 0.40852 0.94002 0.26601 0.0
N589 N 0.40656 0.9485 0.28904 0.0
C590 C 0.41001 0.92281 0.31338 0.0
H591 H 0.40662 0.91855 0.26255 0.0
H592 H 0.40493 0.91632 0.35472 0.0
H593 H 0.41954 0.92532 0.31749 0.0
C594 C 0.38064 0.91697 0.05673 0.0
N595 N 0.39231 0.92403 0.07093 0.0
N596 N 0.39364 0.92655 0.13701 0.0
C597 C 0.38282 0.92103 0.16727 0.0
C598 C 0.37422 0.91484 0.11737 0.0
C599 C 0.37582 0.91307 0.98564 0.0
H600 H 0.38009 0.9208 0.95015 0.0
H601 H 0.3781 0.90632 0.96762 0.0
H602 H 0.366 0.90922 0.98374 0.0
O603 O 0.41394 0.94811 0.0139 0.0
O604 O 0.41613 0.95287 0.12454 0.0
H605 H 0.38318 0.93037 0.25883 0.0
H606 H 0.37148 0.91489 0.258 0.0
C607 C 0.38083 0.92122 0.24302 0.0
H608 H 0.38667 0.91868 0.271 0.0
H609 H 0.40561 0.9545 0.25749 0.0
O610 O 0.40169 0.9255 0.91799 0.0
C611 C 0.41745 0.9559 0.06145 0.0
Co612 Co 0.51788 0.92758 0.00846 0.0
Co613 Co 0.52205 0.93478 0.16329 0.0
C614 C 0.49785 0.9246 0.09555 0.0
O615 O 0.50155 0.92318 0.03755 0.0
O616 O 0.50489 0.92909 0.14657 0.0
C617 C 0.50964 0.91665 0.87245 0.0
O618 O 0.49876 0.91049 0.89723 0.0
C619 C 0.51905 0.93044 0.3127 0.0
C620 C 0.53524 0.94634 0.35154 0.0
C621 C 0.52524 0.93587 0.37289 0.0
N622 N 0.52523 0.93735 0.25906 0.0
N623 N 0.53486 0.94684 0.28271 0.0
C624 C 0.50738 0.91907 0.30542 0.0
H625 H 0.50346 0.9184 0.25399 0.0
H626 H 0.50883 0.91137 0.31145 0.0
H627 H 0.50101 0.91854 0.34545 0.0
C628 C 0.52828 0.91282 0.05198 0.0
N629 N 0.52438 0.92049 0.06554 0.0
N630 N 0.52635 0.92363 0.13067 0.0
C631 C 0.53169 0.91811 0.16061 0.0
C632 C 0.533 0.91103 0.11184 0.0
C633 C 0.52744 0.90735 0.98295 0.0
H634 H 0.53379 0.91433 0.94721 0.0
H635 H 0.51832 0.90384 0.962 0.0
H636 H 0.5295 0.9 0.98579 0.0
O637 O 0.52811 0.94517 0.00817 0.0
O638 O 0.53169 0.95042 0.1177 0.0
H639 H 0.54112 0.93022 0.24293 0.0
H640 H 0.54294 0.91731 0.24065 0.0
C641 C 0.53653 0.92051 0.23239 0.0
H642 H 0.52905 0.9159 0.26925 0.0
H643 H 0.54123 0.95362 0.25171 0.0
O644 O 0.51819 0.92342 0.91186 0.0
C645 C 0.53307 0.95314 0.0542 0.0
Co646 Co 0.06625 0.58888 0.02005 0.0
Co647 Co 0.059 0.58581 0.17569 0.0
C648 C 0.06987 0.57238 0.11105 0.0
O649 O 0.07086 0.57727 0.05271 0.0
O650 O 0.06539 0.57485 0.16248 0.0
C651 C 0.07382 0.5871 0.88375 0.0
O652 O 0.07413 0.57784 0.90896 0.0
C653 C 0.06318 0.58705 0.32393 0.0
C654 C 0.04781 0.58815 0.36459 0.0
C655 C 0.05812 0.58818 0.38435 0.0
N656 N 0.05621 0.58644 0.27111 0.0
N657 N 0.04697 0.58698 0.29575 0.0
C658 C 0.07494 0.58761 0.31521 0.0
H659 H 0.0786 0.59096 0.26313 0.0
H660 H 0.0814 0.59347 0.35482 0.0
H661 H 0.07364 0.5785 0.32087 0.0
C662 C 0.08047 0.61412 0.06316 0.0
N663 N 0.07294 0.60252 0.07688 0.0
N664 N 0.06988 0.60132 0.14221 0.0
C665 C 0.07536 0.61217 0.17215 0.0
C666 C 0.08229 0.6206 0.12316 0.0
C667 C 0.08585 0.61879 0.99399 0.0
H668 H 0.07876 0.61791 0.95827 0.0
H669 H 0.08957 0.61335 0.97318 0.0
H670 H 0.093 0.62829 0.99653 0.0
O671 O 0.04865 0.58126 0.01861 0.0
O672 O 0.0434 0.57923 0.12848 0.0
H673 H 0.06355 0.60959 0.25587 0.0
H674 H 0.07666 0.62419 0.25379 0.0
C675 C 0.07324 0.61455 0.24462 0.0
H676 H 0.07779 0.61145 0.28036 0.0
H677 H 0.04024 0.58683 0.26537 0.0
O678 O 0.07122 0.59331 0.92318 0.0
C679 C 0.04067 0.57794 0.06495 0.0
Co680 Co 0.40679 0.47567 0.0289 0.0
Co681 Co 0.41039 0.47296 0.18509 0.0
C682 C 0.42345 0.49668 0.11313 0.0
O683 O 0.4183 0.49228 0.05598 0.0
O684 O 0.42126 0.49017 0.16642 0.0
C685 C 0.4035 0.48345 0.89334 0.0
O686 O 0.40805 0.49433 0.91787 0.0
C687 C 0.41068 0.47628 0.33595 0.0
C688 C 0.40542 0.45804 0.3709 0.0
C689 C 0.40783 0.46914 0.39427 0.0
N690 N 0.40962 0.46954 0.28075 0.0
N691 N 0.40666 0.45872 0.30221 0.0
C692 C 0.41456 0.48927 0.33233 0.0
H693 H 0.4067 0.4903 0.32163 0.0
H694 H 0.4188 0.49388 0.38116 0.0
H695 H 0.42107 0.49359 0.29032 0.0
C696 C 0.38157 0.46421 0.07239 0.0
N697 N 0.39326 0.46889 0.0861 0.0
N698 N 0.39472 0.46799 0.15232 0.0
C699 C 0.38396 0.4629 0.18326 0.0
C700 C 0.37526 0.46025 0.13362 0.0
C701 C 0.3766 0.46275 0.00125 0.0
H702 H 0.38065 0.45883 0.96746 0.0
H703 H 0.37901 0.47166 0.98032 0.0
H704 H 0.36676 0.45691 0.00029 0.0
O705 O 0.41465 0.46601 0.03047 0.0
O706 O 0.41696 0.4636 0.14098 0.0
H707 H 0.38366 0.45384 0.27584 0.0
H708 H 0.37292 0.45888 0.2744 0.0
C709 C 0.38207 0.46113 0.25928 0.0
H710 H 0.38847 0.46944 0.28622 0.0
H711 H 0.40512 0.45168 0.26961 0.0
O712 O 0.40213 0.47503 0.93261 0.0
C713 C 0.41815 0.46174 0.07799 0.0
Co714 Co 0.26226 0.18742 0.62959 0.0
Co715 Co 0.26925 0.19082 0.47435 0.0
C716 C 0.25878 0.16689 0.54515 0.0
O717 O 0.2576 0.17098 0.60238 0.0
O718 O 0.26327 0.17363 0.49291 0.0
C719 C 0.25116 0.17944 0.76496 0.0
O720 O 0.24482 0.16863 0.73963 0.0
C721 C 0.26504 0.18763 0.32464 0.0
C722 C 0.28087 0.20392 0.28617 0.0
C723 C 0.27047 0.19388 0.26463 0.0
N724 N 0.27187 0.19384 0.37847 0.0
N725 N 0.28134 0.20351 0.355 0.0
C726 C 0.25375 0.17587 0.33147 0.0
H727 H 0.25324 0.17177 0.38214 0.0
H728 H 0.24598 0.17725 0.32713 0.0
H729 H 0.25318 0.16968 0.29022 0.0
C730 C 0.24777 0.19798 0.58432 0.0
N731 N 0.2553 0.19388 0.57147 0.0
N732 N 0.2583 0.19549 0.50607 0.0
C733 C 0.25281 0.20078 0.47518 0.0
C734 C 0.24592 0.20245 0.52369 0.0
C735 C 0.24247 0.19753 0.65339 0.0
H736 H 0.23872 0.18842 0.67516 0.0
H737 H 0.23534 0.19989 0.65036 0.0
H738 H 0.24961 0.20382 0.68858 0.0
O739 O 0.27984 0.19745 0.62909 0.0
O740 O 0.28499 0.20042 0.51926 0.0
H741 H 0.25161 0.21139 0.39257 0.0
H742 H 0.25041 0.19745 0.36714 0.0
C743 C 0.25498 0.20516 0.40245 0.0
H744 H 0.26467 0.20983 0.3913 0.0
H745 H 0.28805 0.20993 0.38616 0.0
O746 O 0.25814 0.18797 0.72601 0.0
C747 C 0.28778 0.20208 0.58264 0.0
Co748 Co 0.80743 0.07396 0.63193 0.0
Co749 Co 0.80406 0.07772 0.47709 0.0
C750 C 0.82807 0.09079 0.54803 0.0
O751 O 0.82398 0.08552 0.60524 0.0
O752 O 0.82128 0.08868 0.49614 0.0
C753 C 0.81508 0.07064 0.76772 0.0
O754 O 0.82598 0.07526 0.74341 0.0
C755 C 0.80745 0.0765 0.32813 0.0
C756 C 0.79153 0.07657 0.28771 0.0
C757 C 0.8014 0.07579 0.26743 0.0
N758 N 0.80127 0.07744 0.38107 0.0
N759 N 0.79183 0.07757 0.35648 0.0
C760 C 0.81896 0.07652 0.33649 0.0
H761 H 0.81727 0.06725 0.33256 0.0
H762 H 0.82538 0.08202 0.29576 0.0
H763 H 0.82296 0.08 0.38745 0.0
C764 C 0.79659 0.04891 0.58613 0.0
N765 N 0.80076 0.06056 0.57362 0.0
N766 N 0.79911 0.06201 0.50838 0.0
C767 C 0.79371 0.05125 0.4773 0.0
C768 C 0.79202 0.04263 0.52545 0.0
C769 C 0.79715 0.04399 0.65481 0.0
H770 H 0.79085 0.04474 0.69047 0.0
H771 H 0.80626 0.04936 0.67637 0.0
H772 H 0.79484 0.03452 0.65125 0.0
O773 O 0.7977 0.08185 0.63148 0.0
O774 O 0.79465 0.08408 0.52185 0.0
H775 H 0.78493 0.05443 0.39331 0.0
H776 H 0.78272 0.03954 0.39539 0.0
C777 C 0.78926 0.04909 0.4047 0.0
H778 H 0.7969 0.05187 0.36919 0.0
H779 H 0.78548 0.07813 0.38682 0.0
O780 O 0.80664 0.0691 0.72809 0.0
C781 C 0.79313 0.08528 0.58534 0.0
Co782 Co 0.9213 0.73198 0.63306 0.0
Co783 Co 0.91734 0.72566 0.47671 0.0
C784 C 0.9046 0.7365 0.54928 0.0
O785 O 0.90978 0.73706 0.60603 0.0
O786 O 0.90665 0.73224 0.49523 0.0
C787 C 0.92425 0.74297 0.76818 0.0
O788 O 0.91956 0.7491 0.7426 0.0
C789 C 0.91648 0.72795 0.32528 0.0
C790 C 0.92242 0.71541 0.29213 0.0
C791 C 0.91944 0.72363 0.26753 0.0
N792 N 0.91802 0.72275 0.3813 0.0
N793 N 0.92139 0.71515 0.36091 0.0
C794 C 0.91198 0.73657 0.32768 0.0
H795 H 0.9053 0.73406 0.36912 0.0
H796 H 0.91952 0.74565 0.33883 0.0
H797 H 0.90774 0.7367 0.27835 0.0
C798 C 0.94642 0.74587 0.58752 0.0
N799 N 0.93471 0.73867 0.57495 0.0
N800 N 0.93307 0.73636 0.50873 0.0
C801 C 0.94372 0.74227 0.47666 0.0
C802 C 0.95254 0.7484 0.52553 0.0
C803 C 0.95158 0.74957 0.65814 0.0
H804 H 0.9475 0.74173 0.69294 0.0
H805 H 0.94938 0.75626 0.67837 0.0
H806 H 0.9614 0.75343 0.65825 0.0
O807 O 0.91339 0.71448 0.63203 0.0
O808 O 0.91066 0.70977 0.52157 0.0
H809 H 0.94421 0.73406 0.38225 0.0
H810 H 0.95427 0.74998 0.38452 0.0
C811 C 0.94533 0.74269 0.40027 0.0
H812 H 0.93851 0.74418 0.37519 0.0
H813 H 0.92334 0.71003 0.39429 0.0
O814 O 0.92599 0.7361 0.72944 0.0
C815 C 0.90965 0.70671 0.58449 0.0
Co816 Co 0.47642 0.0678 0.97378 0.0
Co817 Co 0.47231 0.061 0.81773 0.0
C818 C 0.49652 0.0714 0.88266 0.0
O819 O 0.49258 0.07229 0.94104 0.0
O820 O 0.48964 0.06712 0.83081 0.0
C821 C 0.48591 0.07537 0.10996 0.0
O822 O 0.49551 0.07577 0.08458 0.0
C823 C 0.47527 0.06537 0.66973 0.0
C824 C 0.45865 0.05021 0.62884 0.0
C825 C 0.46903 0.06043 0.60929 0.0
N826 N 0.46883 0.0584 0.72239 0.0
N827 N 0.45896 0.0493 0.69763 0.0
C828 C 0.4866 0.077 0.67866 0.0
H829 H 0.48697 0.08068 0.73075 0.0
H830 H 0.48737 0.08353 0.63906 0.0
H831 H 0.49429 0.0755 0.6732 0.0
C832 C 0.4657 0.08236 0.93275 0.0
N833 N 0.46968 0.0748 0.91795 0.0
N834 N 0.46784 0.07194 0.85237 0.0
C835 C 0.46254 0.07757 0.82335 0.0
C836 C 0.46107 0.08439 0.87326 0.0
C837 C 0.46646 0.08758 0.00252 0.0
H838 H 0.47559 0.0911 0.02341 0.0
H839 H 0.4643 0.09486 0.0009 0.0
H840 H 0.46015 0.08044 0.03766 0.0
O841 O 0.46623 0.05019 0.97405 0.0
O842 O 0.4631 0.04532 0.86366 0.0
H843 H 0.45315 0.06594 0.73924 0.0
H844 H 0.45189 0.07916 0.74231 0.0
C845 C 0.458 0.07561 0.75095 0.0
H846 H 0.46566 0.08012 0.71516 0.0
H847 H 0.45233 0.0426 0.72788 0.0
O848 O 0.47705 0.07266 0.07079 0.0
C849 C 0.46155 0.04237 0.92686 0.0
Co850 Co 0.92809 0.4074 0.97179 0.0
Co851 Co 0.9352 0.41058 0.81684 0.0
C852 C 0.92462 0.42418 0.88524 0.0
O853 O 0.92336 0.41906 0.94309 0.0
O854 O 0.92919 0.4218 0.8339 0.0
C855 C 0.91709 0.40442 0.10772 0.0
O856 O 0.91068 0.40885 0.08277 0.0
C857 C 0.93083 0.40917 0.66741 0.0
C858 C 0.94684 0.40908 0.62871 0.0
C859 C 0.93632 0.40847 0.6073 0.0
N860 N 0.93777 0.40999 0.72109 0.0
N861 N 0.94733 0.40999 0.69753 0.0
C862 C 0.9194 0.40934 0.67452 0.0
H863 H 0.91871 0.41265 0.72572 0.0
H864 H 0.91176 0.40014 0.66899 0.0
H865 H 0.91876 0.41505 0.63409 0.0
C866 C 0.91361 0.38222 0.9284 0.0
N867 N 0.92117 0.39382 0.91479 0.0
N868 N 0.92428 0.39503 0.8496 0.0
C869 C 0.91886 0.38418 0.81967 0.0
C870 C 0.91187 0.37573 0.86853 0.0
C871 C 0.90813 0.37757 -0.00261 0.0
H872 H 0.90455 0.38313 0.01821 0.0
H873 H 0.90082 0.36814 0.99456 0.0
H874 H 0.91512 0.37825 0.03324 0.0
O875 O 0.94569 0.41504 0.97146 0.0
O876 O 0.95094 0.41687 0.86188 0.0
H877 H 0.9181 0.37219 0.73932 0.0
H878 H 0.91649 0.38458 0.71119 0.0
C879 C 0.92121 0.38179 0.74768 0.0
H880 H 0.9309 0.387 0.73672 0.0
H881 H 0.95414 0.41048 0.72858 0.0
O882 O 0.92403 0.40289 0.06844 0.0
C883 C 0.95367 0.41822 0.92534 0.0
Co884 Co 0.58843 0.52089 0.95391 0.0
Co885 Co 0.58367 0.52361 0.79941 0.0
C886 C 0.5712 0.49988 0.87363 0.0
O887 O 0.57679 0.50425 0.92965 0.0
O888 O 0.57296 0.50642 0.82092 0.0
C889 C 0.59198 0.51344 0.08929 0.0
O890 O 0.58711 0.50253 0.06481 0.0
C891 C 0.58458 0.51993 0.65057 0.0
C892 C 0.58353 0.53528 0.60917 0.0
C893 C 0.58487 0.5257 0.58933 0.0
N894 N 0.58337 0.52601 0.70315 0.0
N895 N 0.58263 0.53509 0.67797 0.0
C896 C 0.58529 0.50883 0.66016 0.0
H897 H 0.58235 0.50511 0.71234 0.0
H898 H 0.59467 0.51095 0.65405 0.0
H899 H 0.57967 0.50202 0.62141 0.0
C900 C 0.61322 0.53185 0.90311 0.0
N901 N 0.60147 0.52742 0.89279 0.0
N902 N 0.5996 0.52891 0.82796 0.0
C903 C 0.61019 0.53453 0.79505 0.0
C904 C 0.61914 0.53649 0.84146 0.0
C905 C 0.61857 0.53158 0.97082 0.0
H906 H 0.61318 0.52265 0.99462 0.0
H907 H 0.62793 0.5336 0.965 0.0
H908 H 0.61833 0.53824 0.00574 0.0
O909 O 0.58045 0.53053 0.95427 0.0
O910 O 0.5774 0.53303 0.84502 0.0
H911 H 0.60601 0.5429 0.71297 0.0
H912 H 0.62126 0.54615 0.71309 0.0
C913 C 0.61189 0.53913 0.72284 0.0
H914 H 0.60952 0.53167 0.68653 0.0
H915 H 0.58178 0.54131 0.70792 0.0
O916 O 0.59372 0.52196 0.04967 0.0
C917 C 0.57663 0.53483 0.90865 0.0
Co918 Co 0.73109 0.80757 0.38282 0.0
Co919 Co 0.72402 0.80527 0.53822 0.0
C920 C 0.73517 0.82882 0.46343 0.0
O921 O 0.73612 0.82425 0.40741 0.0
O922 O 0.7306 0.82245 0.51699 0.0
C923 C 0.74196 0.81515 0.24727 0.0
O924 O 0.74782 0.82608 0.27157 0.0
C925 C 0.72698 0.80901 0.68905 0.0
C926 C 0.71306 0.79126 0.72545 0.0
C927 C 0.72228 0.80215 0.74811 0.0
N928 N 0.72104 0.8023 0.63426 0.0
N929 N 0.71261 0.79178 0.65661 0.0
C930 C 0.73682 0.82173 0.68431 0.0
H931 H 0.73542 0.82617 0.63972 0.0
H932 H 0.74546 0.822 0.67725 0.0
H933 H 0.73724 0.82674 0.73152 0.0
C934 C 0.74495 0.79659 0.43326 0.0
N935 N 0.7376 0.801 0.44359 0.0
N936 N 0.73472 0.80005 0.50909 0.0
C937 C 0.74023 0.79503 0.54275 0.0
C938 C 0.74684 0.79264 0.49583 0.0
C939 C 0.74943 0.7956 0.36402 0.0
H940 H 0.74179 0.79108 0.32804 0.0
H941 H 0.75546 0.80469 0.34363 0.0
H942 H 0.75425 0.79053 0.36607 0.0
O943 O 0.71353 0.79799 0.38266 0.0
O944 O 0.70827 0.79591 0.4923 0.0
H945 H 0.73041 0.78642 0.63379 0.0
H946 H 0.74583 0.79005 0.63641 0.0
C947 C 0.73965 0.79312 0.6189 0.0
H948 H 0.74215 0.80161 0.64537 0.0
H949 H 0.7068 0.78481 0.62455 0.0
O950 O 0.73533 0.80659 0.28704 0.0
C951 C 0.70553 0.79391 0.42894 0.0
Co952 Co 0.18687 0.92203 0.35889 0.0
Co953 Co 0.19 0.91832 0.51461 0.0
C954 C 0.16606 0.90541 0.44421 0.0
O955 O 0.17028 0.91057 0.38685 0.0
O956 O 0.17274 0.90753 0.49666 0.0
C957 C 0.17907 0.92508 0.22256 0.0
O958 O 0.16811 0.92019 0.24622 0.0
C959 C 0.18679 0.918 0.6656 0.0
C960 C 0.205 0.92314 0.70037 0.0
C961 C 0.19393 0.92082 0.72386 0.0
N962 N 0.19349 0.919 0.61028 0.0
N963 N 0.2043 0.92189 0.63166 0.0
C964 C 0.17382 0.91422 0.66215 0.0
H965 H 0.17286 0.92211 0.65098 0.0
H966 H 0.16922 0.91007 0.71114 0.0
H967 H 0.16945 0.90766 0.62051 0.0
C968 C 0.19823 0.9472 0.40345 0.0
N969 N 0.19379 0.93551 0.41649 0.0
N970 N 0.1949 0.93401 0.4824 0.0
C971 C 0.1999 0.94472 0.51383 0.0
C972 C 0.20226 0.95344 0.4648 0.0
C973 C 0.19925 0.95222 0.33279 0.0
H974 H 0.20328 0.94845 0.29769 0.0
H975 H 0.19019 0.94952 0.31321 0.0
H976 H 0.20481 0.96208 0.33215 0.0
O977 O 0.19642 0.91407 0.35919 0.0
O978 O 0.19923 0.91172 0.46903 0.0
H979 H 0.20897 0.94483 0.60601 0.0
H980 H 0.20402 0.95565 0.60564 0.0
C981 C 0.20172 0.94651 0.58988 0.0
H982 H 0.19341 0.94012 0.61674 0.0
H983 H 0.21131 0.92338 0.59898 0.0
O984 O 0.18751 0.92677 0.26263 0.0
C985 C 0.20084 0.91053 0.40561 0.0
Co986 Co 0.0734 0.26317 0.36038 0.0
Co987 Co 0.07662 0.27013 0.51551 0.0
C988 C 0.09008 0.25946 0.44662 0.0
O989 O 0.08498 0.2583 0.38882 0.0
O990 O 0.08775 0.26402 0.49821 0.0
C991 C 0.07026 0.25209 0.22464 0.0
O992 O 0.07447 0.24551 0.24978 0.0
C993 C 0.0753 0.26582 0.66508 0.0
C994 C 0.07508 0.28177 0.70346 0.0
C995 C 0.07457 0.27131 0.72502 0.0
N996 N 0.07605 0.2727 0.61124 0.0
N997 N 0.07596 0.28223 0.63463 0.0
C998 C 0.07561 0.25445 0.65838 0.0
H999 H 0.06642 0.24675 0.6631 0.0
H1000 H 0.08123 0.25382 0.69949 0.0
H1001 H 0.0791 0.25383 0.60762 0.0
C1002 C 0.0482 0.24881 0.40366 0.0
N1003 N 0.05981 0.2563 0.41732 0.0
N1004 N 0.06105 0.2593 0.4827 0.0
C1005 C 0.05021 0.25385 0.51275 0.0
C1006 C 0.04174 0.24698 0.46374 0.0
C1007 C 0.0435 0.24347 0.33445 0.0
H1008 H 0.04446 0.25059 0.29876 0.0
H1009 H 0.04887 0.23967 0.31368 0.0
H1010 H 0.03399 0.23637 0.33691 0.0
O1011 O 0.08114 0.28077 0.36099 0.0
O1012 O 0.08301 0.2859 0.47078 0.0
H1013 H 0.05294 0.26568 0.59669 0.0
H1014 H 0.03824 0.25271 0.59426 0.0
C1015 C 0.04786 0.256 0.58524 0.0
H1016 H 0.05084 0.25133 0.62091 0.0
H1017 H 0.07638 0.289 0.60344 0.0
O1018 O 0.06889 0.25916 0.26374 0.0
C1019 C 0.08437 0.28871 0.40742 0.0
Co1020 Co 0.18652 0.26339 0.35307 0.0
Co1021 Co 0.19052 0.2703 0.50877 0.0
C1022 C 0.16627 0.25929 0.44517 0.0
O1023 O 0.1703 0.25843 0.38701 0.0
O1024 O 0.17314 0.26383 0.49679 0.0
C1025 C 0.17741 0.25783 0.21736 0.0
O1026 O 0.16926 0.25992 0.24324 0.0
C1027 C 0.18757 0.26715 0.65785 0.0
C1028 C 0.20524 0.28107 0.69543 0.0
C1029 C 0.19426 0.27189 0.71714 0.0
N1030 N 0.19433 0.27322 0.60367 0.0
N1031 N 0.20483 0.28161 0.62646 0.0
C1032 C 0.17549 0.25625 0.65164 0.0
H1033 H 0.17463 0.25178 0.60157 0.0
H1034 H 0.1739 0.24989 0.69408 0.0
H1035 H 0.16859 0.25894 0.65408 0.0
C1036 C 0.19851 0.24994 0.39347 0.0
N1037 N 0.19387 0.25694 0.40841 0.0
N1038 N 0.1953 0.25957 0.47434 0.0
C1039 C 0.20079 0.25417 0.50379 0.0
C1040 C 0.20308 0.24795 0.45348 0.0
C1041 C 0.1993 0.24605 0.32211 0.0
H1042 H 0.20262 0.25378 0.28663 0.0
H1043 H 0.19025 0.23924 0.3047 0.0
H1044 H 0.20534 0.24229 0.31936 0.0
O1045 O 0.19626 0.28097 0.35136 0.0
O1046 O 0.19938 0.28596 0.46161 0.0
H1047 H 0.21037 0.26379 0.59336 0.0
H1048 H 0.2064 0.24825 0.59367 0.0
C1049 C 0.20339 0.25461 0.57911 0.0
H1050 H 0.19521 0.25229 0.60868 0.0
H1051 H 0.21181 0.28752 0.59475 0.0
O1052 O 0.18549 0.25828 0.25651 0.0
C1053 C 0.20083 0.28885 0.39829 0.0
Co1054 Co 0.7336 0.92249 0.34428 0.0
Co1055 Co 0.72633 0.91967 0.49929 0.0
C1056 C 0.73715 0.9061 0.43684 0.0
O1057 O 0.7383 0.91099 0.37838 0.0
O1058 O 0.73257 0.9086 0.48753 0.0
C1059 C 0.73849 0.91868 0.20814 0.0
O1060 O 0.73553 0.90813 0.23327 0.0
C1061 C 0.72947 0.91967 0.64802 0.0
C1062 C 0.71551 0.92326 0.68682 0.0
C1063 C 0.7247 0.92142 0.70778 0.0
N1064 N 0.72339 0.92047 0.59426 0.0
N1065 N 0.71499 0.92251 0.61775 0.0
C1066 C 0.74039 0.91855 0.64113 0.0
H1067 H 0.74483 0.92224 0.59106 0.0
H1068 H 0.74677 0.9233 0.68354 0.0
H1069 H 0.73775 0.90898 0.64321 0.0
C1070 C 0.74711 0.94796 0.3849 0.0
N1071 N 0.74007 0.93631 0.39972 0.0
N1072 N 0.73726 0.93513 0.46539 0.0
C1073 C 0.74258 0.94601 0.49482 0.0
C1074 C 0.74893 0.95452 0.44475 0.0
C1075 C 0.75113 0.95264 0.31366 0.0
H1076 H 0.74343 0.94832 0.2779 0.0
H1077 H 0.75787 0.95029 0.29658 0.0
H1078 H 0.755 0.96246 0.31092 0.0
O1079 O 0.71601 0.91478 0.34149 0.0
O1080 O 0.71078 0.91308 0.4513 0.0
H1081 H 0.73268 0.94596 0.58306 0.0
H1082 H 0.74822 0.95753 0.58477 0.0
C1083 C 0.74191 0.94816 0.56993 0.0
H1084 H 0.74414 0.9423 0.6002 0.0
H1085 H 0.70907 0.92364 0.58649 0.0
O1086 O 0.73884 0.92661 0.24806 0.0
C1087 C 0.70804 0.91161 0.38776 0.0
Co1088 Co 0.07252 0.80994 0.34307 0.0
Co1089 Co 0.07534 0.8058 0.49898 0.0
C1090 C 0.08878 0.8301 0.43424 0.0
O1091 O 0.08399 0.82617 0.37576 0.0
O1092 O 0.08627 0.82317 0.48583 0.0
C1093 C 0.07427 0.81933 0.20682 0.0
O1094 O 0.08339 0.829 0.23213 0.0
C1095 C 0.07389 0.8087 0.64705 0.0
C1096 C 0.07285 0.79227 0.68794 0.0
C1097 C 0.07276 0.80252 0.70751 0.0
N1098 N 0.07457 0.80235 0.59437 0.0
N1099 N 0.07405 0.7926 0.61913 0.0
C1100 C 0.07331 0.81989 0.63815 0.0
H1101 H 0.06995 0.82017 0.58606 0.0
H1102 H 0.06746 0.82049 0.67775 0.0
H1103 H 0.08242 0.8277 0.64364 0.0
C1104 C 0.04721 0.79881 0.38449 0.0
N1105 N 0.05879 0.80293 0.39907 0.0
N1106 N 0.05987 0.80106 0.46451 0.0
C1107 C 0.04895 0.7956 0.49367 0.0
C1108 C 0.0406 0.79405 0.44399 0.0
C1109 C 0.04269 0.79961 0.315 0.0
H1110 H 0.04353 0.79336 0.27948 0.0
H1111 H 0.04824 0.80877 0.29432 0.0
H1112 H 0.03323 0.79739 0.31699 0.0
O1113 O 0.08025 0.80004 0.34257 0.0
O1114 O 0.08209 0.79687 0.45277 0.0
H1115 H 0.05146 0.78636 0.57765 0.0
H1116 H 0.03682 0.78473 0.57457 0.0
C1117 C 0.04645 0.79102 0.56601 0.0
H1118 H 0.04943 0.79865 0.6019 0.0
H1119 H 0.07427 0.78604 0.58887 0.0
O1120 O 0.06821 0.81046 0.24608 0.0
C1121 C 0.08353 0.79544 0.38946 0.0
Co1122 Co 0.92863 0.52083 0.97525 0.0
Co1123 Co 0.93576 0.52474 0.81972 0.0
C1124 C 0.92466 0.50053 0.88386 0.0
O1125 O 0.92371 0.50458 0.94173 0.0
O1126 O 0.92927 0.50737 0.8322 0.0
C1127 C 0.92301 0.51178 0.11097 0.0
O1128 O 0.92506 0.5036 0.08506 0.0
C1129 C 0.93277 0.52175 0.67047 0.0
C1130 C 0.94669 0.53945 0.63312 0.0
C1131 C 0.93753 0.52846 0.61124 0.0
N1132 N 0.9388 0.52851 0.72477 0.0
N1133 N 0.94719 0.53902 0.7021 0.0
C1134 C 0.92188 0.50967 0.67651 0.0
H1135 H 0.9174 0.50876 0.72663 0.0
H1136 H 0.91551 0.50811 0.63415 0.0
H1137 H 0.92457 0.50277 0.67374 0.0
C1138 C 0.91509 0.53264 0.93296 0.0
N1139 N 0.92224 0.52814 0.91904 0.0
N1140 N 0.92498 0.52955 0.85324 0.0
C1141 C 0.91951 0.53488 0.82287 0.0
C1142 C 0.91312 0.53709 0.87242 0.0
C1143 C 0.91092 0.53331 0.00377 0.0
H1144 H 0.91853 0.53664 0.04017 0.0
H1145 H 0.9041 0.52421 0.02053 0.0
H1146 H 0.90707 0.53927 0.00578 0.0
O1147 O 0.94621 0.53054 0.97744 0.0
O1148 O 0.95137 0.53359 0.86743 0.0
H1149 H 0.92909 0.54423 0.73268 0.0
H1150 H 0.91354 0.5402 0.73193 0.0
C1151 C 0.91992 0.53727 0.74728 0.0
H1152 H 0.91761 0.52902 0.71858 0.0
H1153 H 0.95306 0.546 0.73391 0.0
O1154 O 0.92348 0.51986 0.07178 0.0
C1155 C 0.95416 0.53506 0.9309 0.0
Co1156 Co 0.47508 0.40703 0.97874 0.0
Co1157 Co 0.47071 0.40994 0.82374 0.0
C1158 C 0.4951 0.42333 0.88617 0.0
O1159 O 0.49131 0.41845 0.94462 0.0
O1160 O 0.48805 0.4209 0.8354 0.0
C1161 C 0.4837 0.4109 0.11481 0.0
O1162 O 0.49118 0.42148 0.08955 0.0
C1163 C 0.4738 0.41001 0.67491 0.0
C1164 C 0.45622 0.40638 0.63646 0.0
C1165 C 0.46726 0.40827 0.61528 0.0
N1166 N 0.46694 0.40917 0.72882 0.0
N1167 N 0.45648 0.40711 0.70555 0.0
C1168 C 0.48586 0.41116 0.68148 0.0
H1169 H 0.48665 0.40746 0.7314 0.0
H1170 H 0.48749 0.40644 0.63888 0.0
H1171 H 0.49278 0.42074 0.67945 0.0
C1172 C 0.46318 0.38158 0.93763 0.0
N1173 N 0.46769 0.39323 0.92318 0.0
N1174 N 0.46608 0.39445 0.85753 0.0
C1175 C 0.46062 0.38359 0.82776 0.0
C1176 C 0.45852 0.37506 0.87757 0.0
C1177 C 0.46263 0.37685 0.00861 0.0
H1178 H 0.45926 0.38111 0.04489 0.0
H1179 H 0.47176 0.37925 0.02519 0.0
H1180 H 0.45674 0.36703 0.0111 0.0
O1181 O 0.46531 0.41485 0.98163 0.0
O1182 O 0.46185 0.41664 0.87183 0.0
H1183 H 0.45092 0.38369 0.73891 0.0
H1184 H 0.45496 0.37217 0.73738 0.0
C1185 C 0.45793 0.38151 0.75247 0.0
H1186 H 0.46607 0.38742 0.72273 0.0
H1187 H 0.44943 0.40595 0.73696 0.0
O1188 O 0.47618 0.4029 0.07494 0.0
C1189 C 0.46059 0.41811 0.93538 0.0
Co1190 Co 0.58736 0.06475 0.97818 0.0
Co1191 Co 0.58594 0.05939 0.81971 0.0
C1192 C 0.57185 0.06943 0.88333 0.0
O1193 O 0.57629 0.06988 0.94246 0.0
O1194 O 0.57466 0.06538 0.83132 0.0
C1195 C 0.59387 0.07779 0.11162 0.0
O1196 O 0.59906 0.08805 0.07901 0.0
C1197 C 0.58656 0.06333 0.66995 0.0
C1198 C 0.59388 0.0522 0.63203 0.0
C1199 C 0.59026 0.06011 0.61094 0.0
N1200 N 0.58801 0.05764 0.72379 0.0
N1201 N 0.59224 0.05088 0.70055 0.0
C1202 C 0.58287 0.07256 0.67619 0.0
H1203 H 0.58661 0.07782 0.72396 0.0
H1204 H 0.5859 0.07866 0.63121 0.0
H1205 H 0.573 0.06802 0.67923 0.0
C1206 C 0.61344 0.07838 0.94524 0.0
N1207 N 0.60183 0.07179 0.9276 0.0
N1208 N 0.60104 0.0701 0.86051 0.0
C1209 C 0.61209 0.07599 0.83322 0.0
C1210 C 0.62031 0.08128 0.88594 0.0
C1211 C 0.61796 0.0808 0.01761 0.0
H1212 H 0.61156 0.0737 0.05244 0.0
H1213 H 0.61911 0.08951 0.03428 0.0
H1214 H 0.62677 0.08131 0.02122 0.0
O1215 O 0.57978 0.04734 0.97257 0.0
O1216 O 0.57892 0.04312 0.86153 0.0
H1217 H 0.61418 0.06882 0.73861 0.0
H1218 H 0.62372 0.08475 0.74638 0.0
C1219 C 0.61471 0.07714 0.75772 0.0
H1220 H 0.60809 0.07862 0.73001 0.0
H1221 H 0.59436 0.04565 0.73187 0.0
O1222 O 0.58924 0.06805 0.07828 0.0
C1223 C 0.57699 0.03981 0.9242 0.0
H1224 H 0.10174 0.40495 0.16357 0.0
H1225 H 0.0702 0.43552 0.17293 0.0
H1226 H 0.13208 0.43877 0.21941 0.0
H1227 H 0.10374 0.46623 0.11712 0.0
H1228 H 0.08044 0.42416 0.19151 0.0
H1229 H 0.09006 0.41484 0.14511 0.0
C1230 C 0.10587 0.41447 0.17239 0.0
C1231 C 0.1178 0.42111 0.19318 0.0
C1232 C 0.08555 0.43331 0.17406 0.0
C1233 C 0.10454 0.43244 0.17365 0.0
C1234 C 0.07973 0.4398 0.16414 0.0
C1235 C 0.08619 0.45173 0.14331 0.0
C1236 C 0.09792 0.43886 0.16299 0.0
C1237 C 0.0985 0.45698 0.13278 0.0
C1238 C 0.0992 0.42009 0.16255 0.0
C1239 C 0.12284 0.4334 0.20377 0.0
N1240 N 0.10402 0.45052 0.14321 0.0
N1241 N 0.11619 0.43872 0.1934 0.0
H1242 H 0.52883 0.63681 0.07851 0.0
H1243 H 0.581 0.69191 0.28054 0.0
H1244 H 0.55772 0.63527 0.17909 0.0
H1245 H 0.56095 0.69661 0.11883 0.0
H1246 H 0.57053 0.67042 0.25651 0.0
H1247 H 0.53882 0.65832 0.1025 0.0
C1248 C 0.53732 0.64104 0.1052 0.0
C1249 C 0.54246 0.63432 0.12734 0.0
C1250 C 0.56839 0.67614 0.22642 0.0
C1251 C 0.55374 0.65869 0.15608 0.0
C1252 C 0.57428 0.68834 0.2405 0.0
C1253 C 0.57176 0.6959 0.20153 0.0
C1254 C 0.55986 0.67152 0.17351 0.0
C1255 C 0.5631 0.69097 0.14975 0.0
C1256 C 0.54297 0.65326 0.11913 0.0
C1257 C 0.5534 0.64015 0.16218 0.0
N1258 N 0.55741 0.67905 0.13721 0.0
N1259 N 0.55864 0.65199 0.17598 0.0
H1260 H 0.35879 0.89217 0.0734 0.0
H1261 H 0.30295 0.88784 0.27399 0.0
H1262 H 0.3601 0.92177 0.18298 0.0
H1263 H 0.29897 0.86414 0.10753 0.0
H1264 H 0.32451 0.89911 0.25251 0.0
H1265 H 0.3372 0.88055 0.09427 0.0
C1266 C 0.35449 0.89622 0.10147 0.0
C1267 C 0.36116 0.90787 0.12692 0.0
C1268 C 0.31892 0.89143 0.22076 0.0
C1269 C 0.33668 0.89467 0.152 0.0
C1270 C 0.30668 0.88498 0.23335 0.0
C1271 C 0.29931 0.87509 0.19247 0.0
C1272 C 0.32377 0.88787 0.16736 0.0
C1273 C 0.30445 0.87175 0.13995 0.0
C1274 C 0.34222 0.8896 0.11358 0.0
C1275 C 0.35525 0.91272 0.16346 0.0
N1276 N 0.31642 0.87812 0.12891 0.0
N1277 N 0.34335 0.90607 0.17536 0.0
H1278 H 0.44207 0.08196 0.94632 0.0
H1279 H 0.43781 0.13372 0.74606 0.0
H1280 H 0.46608 0.1023 0.78229 0.0
H1281 H 0.40897 0.10641 0.86512 0.0
H1282 H 0.44953 0.12388 0.76764 0.0
H1283 H 0.43115 0.09268 0.92817 0.0
C1284 C 0.44508 0.08879 0.90695 0.0
C1285 C 0.45492 0.09131 0.86565 0.0
C1286 C 0.44064 0.12005 0.78899 0.0
C1287 C 0.44252 0.1035 0.84416 0.0
C1288 C 0.43395 0.12562 0.77647 0.0
C1289 C 0.42245 0.12084 0.80398 0.0
C1290 C 0.43578 0.10971 0.82979 0.0
C1291 C 0.41787 0.11043 0.84371 0.0
C1292 C 0.43883 0.09483 0.89624 0.0
C1293 C 0.45847 0.10012 0.81487 0.0
N1294 N 0.42456 0.10523 0.85565 0.0
N1295 N 0.45226 0.10593 0.80546 0.0
H1296 H 0.86261 0.3033 0.73828 0.0
H1297 H 0.91394 0.35903 0.94237 0.0
H1298 H 0.88923 0.30142 0.86238 0.0
H1299 H 0.8945 0.363 0.77431 0.0
H1300 H 0.90321 0.33741 0.92355 0.0
H1301 H 0.8727 0.32491 0.75872 0.0
C1302 C 0.87062 0.30748 0.76947 0.0
C1303 C 0.87513 0.30064 0.79875 0.0
C1304 C 0.90126 0.343 0.89083 0.0
C1305 C 0.88653 0.32515 0.82335 0.0
C1306 C 0.90732 0.35528 0.90191 0.0
C1307 C 0.90503 0.36268 0.8598 0.0
C1308 C 0.89282 0.33812 0.83756 0.0
C1309 C 0.89649 0.35751 0.80757 0.0
C1310 C 0.87633 0.31976 0.78137 0.0
C1311 C 0.88541 0.30638 0.83959 0.0
N1312 N 0.89065 0.3455 0.79788 0.0
N1313 N 0.89075 0.31831 0.85089 0.0
H1314 H 0.63609 0.55562 0.91198 0.0
H1315 H 0.69105 0.56016 0.6992 0.0
H1316 H 0.63144 0.5323 0.74205 0.0
H1317 H 0.69366 0.58784 0.83385 0.0
H1318 H 0.66932 0.54925 0.71596 0.0
H1319 H 0.65754 0.56681 0.88856 0.0
C1320 C 0.63965 0.55283 0.87003 0.0
C1321 C 0.63211 0.54305 0.82902 0.0
C1322 C 0.67466 0.55774 0.74156 0.0
C1323 C 0.65651 0.55579 0.80137 0.0
C1324 C 0.68701 0.56397 0.73174 0.0
C1325 C 0.6941 0.57479 0.76601 0.0
C1326 C 0.66945 0.56239 0.78615 0.0
C1327 C 0.6885 0.57937 0.80776 0.0
C1328 C 0.65185 0.55925 0.85627 0.0
C1329 C 0.63705 0.53984 0.77465 0.0
N1330 N 0.67652 0.5731 0.81714 0.0
N1331 N 0.64898 0.54618 0.76244 0.0
H1332 H 0.89029 0.5297 0.91407 0.0
H1333 H 0.88686 0.58207 0.71718 0.0
H1334 H 0.92025 0.55832 0.80862 0.0
H1335 H 0.86226 0.56146 0.87827 0.0
H1336 H 0.89799 0.57164 0.73861 0.0
H1337 H 0.87873 0.53971 0.89253 0.0
C1338 C 0.89443 0.53813 0.88677 0.0
C1339 C 0.90618 0.5432 0.86266 0.0
C1340 C 0.89014 0.56937 0.76919 0.0
C1341 C 0.89304 0.55452 0.83682 0.0
C1342 C 0.88377 0.57525 0.7566 0.0
C1343 C 0.87369 0.57255 0.79608 0.0
C1344 C 0.88629 0.56068 0.82117 0.0
C1345 C 0.87004 0.56375 0.847 0.0
C1346 C 0.88784 0.5438 0.87426 0.0
C1347 C 0.91114 0.55406 0.82709 0.0
N1348 N 0.87634 0.55808 0.85811 0.0
N1349 N 0.90452 0.55933 0.81481 0.0
H1350 H 0.4128 0.30403 0.72274 0.0
H1351 H 0.4657 0.35943 0.91856 0.0
H1352 H 0.43315 0.29958 0.88361 0.0
H1353 H 0.43702 0.36111 0.81624 0.0
H1354 H 0.45537 0.33781 0.89766 0.0
H1355 H 0.42337 0.32555 0.74523 0.0
C1356 C 0.41959 0.30765 0.76236 0.0
C1357 C 0.42219 0.30015 0.80136 0.0
C1358 C 0.45134 0.34292 0.87999 0.0
C1359 C 0.43422 0.32459 0.82766 0.0
C1360 C 0.45719 0.3552 0.89212 0.0
C1361 C 0.4522 0.36199 0.8686 0.0
C1362 C 0.44052 0.33749 0.84349 0.0
C1363 C 0.44123 0.35617 0.83418 0.0
C1364 C 0.42554 0.31988 0.77556 0.0
C1365 C 0.43094 0.30516 0.85265 0.0
N1366 N 0.43578 0.34426 0.82216 0.0
N1367 N 0.4367 0.31712 0.86429 0.0
H1368 H 0.63626 0.10261 0.94478 0.0
H1369 H 0.69151 0.10784 0.73184 0.0
H1370 H 0.63411 0.07478 0.81322 0.0
H1371 H 0.69586 0.13128 0.90052 0.0
H1372 H 0.67007 0.09644 0.7553 0.0
H1373 H 0.65793 0.11393 0.9263 0.0
C1374 C 0.64039 0.09886 0.91252 0.0
C1375 C 0.63344 0.08785 0.87974 0.0
C1376 C 0.67569 0.10408 0.78725 0.0
C1377 C 0.65803 0.10072 0.85758 0.0
C1378 C 0.68788 0.11062 0.77347 0.0
C1379 C 0.69534 0.12049 0.81419 0.0
C1380 C 0.67095 0.10751 0.84189 0.0
C1381 C 0.69031 0.12368 0.86815 0.0
C1382 C 0.65271 0.10532 0.90172 0.0
C1383 C 0.63915 0.08337 0.83822 0.0
N1384 N 0.67839 0.11722 0.88042 0.0
N1385 N 0.6511 0.08986 0.82788 0.0
H1386 H 0.52831 0.89364 0.20592 0.0
H1387 H 0.58659 0.89024 0.11375 0.0
H1388 H 0.55187 0.91316 0.03856 0.0
H1389 H 0.55791 0.86342 0.23604 0.0
H1390 H 0.57465 0.89976 0.09252 0.0
H1391 H 0.53961 0.88328 0.22457 0.0
C1392 C 0.53583 0.89565 0.17292 0.0
C1393 C 0.5392 0.90418 0.12059 0.0
C1394 C 0.57094 0.89178 0.12387 0.0
C1395 C 0.55218 0.89258 0.14179 0.0
C1396 C 0.57774 0.88635 0.1359 0.0
C1397 C 0.57317 0.87603 0.17638 0.0
C1398 C 0.55954 0.88692 0.15323 0.0
C1399 C 0.56176 0.87144 0.20496 0.0
C1400 C 0.54225 0.88976 0.18344 0.0
C1401 C 0.54898 0.90655 0.07907 0.0
N1402 N 0.55532 0.87694 0.19297 0.0
N1403 N 0.55519 0.90083 0.09085 0.0
H1404 H 0.10021 0.63307 0.21446 0.0
H1405 H 0.10306 0.69494 0.13757 0.0
H1406 H 0.07981 0.63749 0.05382 0.0
H1407 H 0.13122 0.69292 0.24402 0.0
H1408 H 0.09319 0.67346 0.11563 0.0
H1409 H 0.11071 0.65469 0.23472 0.0
C1410 C 0.09804 0.63866 0.18325 0.0
C1411 C 0.08923 0.63363 0.13239 0.0
C1412 C 0.10154 0.67771 0.14366 0.0
C1413 C 0.10096 0.65815 0.15558 0.0
C1414 C 0.10716 0.68993 0.15613 0.0
C1415 C 0.11799 0.69565 0.19202 0.0
C1416 C 0.10672 0.67114 0.16817 0.0
C1417 C 0.12284 0.68879 0.21632 0.0
C1418 C 0.104 0.65094 0.19471 0.0
C1419 C 0.08664 0.64112 0.09318 0.0
N1420 N 0.11716 0.67685 0.20401 0.0
N1421 N 0.09243 0.65304 0.10594 0.0
H1422 H 0.36175 0.43944 0.20261 0.0
H1423 H 0.29939 0.43466 0.11067 0.0
H1424 H 0.35922 0.46651 0.08689 0.0
H1425 H 0.30367 0.41447 0.27324 0.0
H1426 H 0.32109 0.44549 0.09312 0.0
H1427 H 0.34017 0.4291 0.2212 0.0
C1428 C 0.35661 0.44321 0.1814 0.0
C1429 C 0.36221 0.45385 0.14356 0.0
C1430 C 0.31729 0.43874 0.13288 0.0
C1431 C 0.33757 0.44202 0.16359 0.0
C1432 C 0.30496 0.43258 0.14273 0.0
C1433 C 0.29987 0.42376 0.19356 0.0
C1434 C 0.3245 0.43592 0.17368 0.0
C1435 C 0.30734 0.42131 0.23392 0.0
C1436 C 0.34432 0.43732 0.19187 0.0
C1437 C 0.35518 0.45828 0.11603 0.0
N1438 N 0.3193 0.42732 0.22289 0.0
N1439 N 0.34319 0.45233 0.12646 0.0
H1440 H 0.73942 0.77138 0.55955 0.0
H1441 H 0.80206 0.77361 0.5197 0.0
H1442 H 0.77018 0.80064 0.46382 0.0
H1443 H 0.7723 0.74638 0.6333 0.0
H1444 H 0.79072 0.78387 0.49956 0.0
H1445 H 0.75135 0.76206 0.58674 0.0
C1446 C 0.74872 0.77582 0.54437 0.0
C1447 C 0.75388 0.78676 0.5097 0.0
C1448 C 0.7867 0.77572 0.52953 0.0
C1449 C 0.76758 0.7762 0.54013 0.0
C1450 C 0.79318 0.76993 0.54117 0.0
C1451 C 0.78807 0.75926 0.57855 0.0
C1452 C 0.775 0.77071 0.55502 0.0
C1453 C 0.77654 0.7547 0.60489 0.0
C1454 C 0.75553 0.77052 0.55987 0.0
C1455 C 0.7659 0.79214 0.49035 0.0
N1456 N 0.77034 0.76042 0.59229 0.0
N1457 N 0.77236 0.7868 0.50585 0.0
H1458 H 0.19498 0.96888 0.4215 0.0
H1459 H 0.24724 0.02488 0.61827 0.0
H1460 H 0.22304 0.96745 0.53292 0.0
H1461 H 0.22687 0.02865 0.45483 0.0
H1462 H 0.23658 0.00325 0.59927 0.0
H1463 H 0.20496 0.99046 0.44269 0.0
C1464 C 0.20328 0.97315 0.4501 0.0
C1465 C 0.20822 0.96646 0.47566 0.0
C1466 C 0.23441 0.0088 0.56767 0.0
C1467 C 0.21951 0.99093 0.50112 0.0
C1468 C 0.24042 0.02109 0.57885 0.0
C1469 C 0.23786 0.02843 0.53798 0.0
C1470 C 0.22574 0.00387 0.51565 0.0
C1471 C 0.22906 0.02319 0.48711 0.0
C1472 C 0.20893 0.98541 0.4624 0.0
C1473 C 0.21889 0.97232 0.5131 0.0
N1474 N 0.22328 0.01119 0.47733 0.0
N1475 N 0.22416 0.98422 0.52501 0.0
H1476 H 0.96934 0.19583 0.58403 0.0
H1477 H 0.02497 0.24949 0.39356 0.0
H1478 H 0.9674 0.22416 0.47904 0.0
H1479 H 0.02914 0.22905 0.55496 0.0
H1480 H 0.00335 0.23856 0.41291 0.0
H1481 H 0.991 0.20641 0.56472 0.0
C1482 C 0.97351 0.20431 0.55723 0.0
C1483 C 0.96665 0.20914 0.53269 0.0
C1484 C 0.00899 0.23645 0.44406 0.0
C1485 C 0.99121 0.22112 0.50947 0.0
C1486 C 0.02127 0.24261 0.43269 0.0
C1487 C 0.02871 0.24009 0.47276 0.0
C1488 C 0.00417 0.22764 0.49541 0.0
C1489 C 0.0236 0.23121 0.52327 0.0
C1490 C 0.98582 0.2103 0.54604 0.0
C1491 C 0.9724 0.22007 0.4978 0.0
N1492 N 0.0116 0.22525 0.53314 0.0
N1493 N 0.98435 0.22567 0.48683 0.0
H1494 H 0.22799 0.19707 0.43233 0.0
H1495 H 0.22455 0.25564 0.51532 0.0
H1496 H 0.24866 0.22198 0.59206 0.0
H1497 H 0.19631 0.22536 0.41002 0.0
H1498 H 0.23482 0.24432 0.53358 0.0
H1499 H 0.21738 0.20813 0.41338 0.0
C1500 C 0.23022 0.20485 0.46349 0.0
C1501 C 0.23911 0.20866 0.51392 0.0
C1502 C 0.22637 0.24013 0.50657 0.0
C1503 C 0.22723 0.22135 0.4923 0.0
C1504 C 0.22052 0.24657 0.49624 0.0
C1505 C 0.20955 0.24134 0.46178 0.0
C1506 C 0.22127 0.22843 0.48138 0.0
C1507 C 0.20479 0.22968 0.4367 0.0
C1508 C 0.22419 0.21113 0.45282 0.0
C1509 C 0.24176 0.21876 0.55308 0.0
N1510 N 0.21069 0.22359 0.44696 0.0
N1511 N 0.23589 0.22482 0.54118 0.0
H1512 H 0.7716 0.97052 0.40292 0.0
H1513 H 0.77269 0.0256 0.59422 0.0
H1514 H 0.74093 0.96817 0.5052 0.0
H1515 H 0.79747 0.03034 0.43259 0.0
H1516 H 0.76215 0.00403 0.57317 0.0
H1517 H 0.78239 0.9922 0.42191 0.0
C1518 C 0.76714 0.97461 0.42899 0.0
C1519 C 0.75543 0.96762 0.45302 0.0
C1520 C 0.7699 0.00978 0.54231 0.0
C1521 C 0.76768 0.99219 0.47592 0.0
C1522 C 0.77593 0.02203 0.55465 0.0
C1523 C 0.78592 0.02962 0.51507 0.0
C1524 C 0.77398 0.00513 0.49053 0.0
C1525 C 0.78976 0.02469 0.46394 0.0
C1526 C 0.77329 0.98692 0.44001 0.0
C1527 C 0.75004 0.97326 0.48692 0.0
N1528 N 0.7838 0.0127 0.4532 0.0
N1529 N 0.75624 0.98521 0.49784 0.0
H1530 H 0.96814 0.77078 0.57319 0.0
H1531 H 0.02399 0.77512 0.3706 0.0
H1532 H 0.96635 0.7421 0.4513 0.0
H1533 H 0.02775 0.79891 0.53608 0.0
H1534 H 0.00235 0.76419 0.38903 0.0
H1535 H 0.9897 0.78242 0.55162 0.0
C1536 C 0.97233 0.76694 0.54217 0.0
C1537 C 0.96554 0.75551 0.5139 0.0
C1538 C 0.0079 0.77182 0.42123 0.0
C1539 C 0.99 0.76875 0.48809 0.0
C1540 C 0.02019 0.77808 0.41038 0.0
C1541 C 0.02754 0.78787 0.45197 0.0
C1542 C 0.00296 0.77546 0.47374 0.0
C1543 C 0.0223 0.79134 0.50326 0.0
C1544 C 0.98458 0.77358 0.52964 0.0
C1545 C 0.97129 0.75096 0.47334 0.0
N1546 N 0.01029 0.78514 0.51278 0.0
N1547 N 0.9832 0.75761 0.46143 0.0
H1548 H 0.09298 0.30842 0.49086 0.0
H1549 H 0.11675 0.35488 0.1775 0.0
H1550 H 0.0887 0.29798 0.2771 0.0
H1551 H 0.12171 0.36531 0.39135 0.0
H1552 H 0.10577 0.33396 0.21294 0.0
H1553 H 0.10285 0.32933 0.45527 0.0
C1554 C 0.09408 0.31051 0.43646 0.0
C1555 C 0.09003 0.30141 0.38695 0.0
C1556 C 0.10924 0.34084 0.25209 0.0
C1557 C 0.10135 0.32534 0.34584 0.0
C1558 C 0.11552 0.35279 0.23188 0.0
C1559 C 0.12021 0.36189 0.28147 0.0
C1560 C 0.10764 0.33794 0.32241 0.0
C1561 C 0.11829 0.35862 0.35122 0.0
C1562 C 0.09972 0.32246 0.41617 0.0
C1563 C 0.0917 0.30468 0.31717 0.0
N1564 N 0.11219 0.34693 0.36956 0.0
N1565 N 0.09725 0.31637 0.29875 0.0
H1566 H 0.64003 0.75998 0.19361 0.0
H1567 H 0.68558 0.784 0.51129 0.0
H1568 H 0.62887 0.75595 0.406 0.0
H1569 H 0.69651 0.78799 0.29848 0.0
H1570 H 0.66473 0.77315 0.47418 0.0
H1571 H 0.66078 0.76973 0.23155 0.0
C1572 C 0.64193 0.76111 0.24822 0.0
C1573 C 0.63266 0.75716 0.29662 0.0
C1574 C 0.6717 0.77638 0.43566 0.0
C1575 C 0.65645 0.76835 0.34047 0.0
C1576 C 0.68361 0.78257 0.45683 0.0
C1577 C 0.69284 0.78696 0.40798 0.0
C1578 C 0.66898 0.77456 0.36516 0.0
C1579 C 0.68973 0.78481 0.33808 0.0
C1580 C 0.65379 0.76669 0.26988 0.0
C1581 C 0.6357 0.75887 0.36675 0.0
N1582 N 0.67808 0.7788 0.31883 0.0
N1583 N 0.64732 0.76435 0.38652 0.0
H1584 H 0.20634 0.90705 0.27505 0.0
H1585 H 0.23963 0.87204 0.39432 0.0
H1586 H 0.21115 0.90088 0.48796 0.0
H1587 H 0.23479 0.87844 0.18188 0.0
H1588 H 0.22976 0.88304 0.42979 0.0
H1589 H 0.21725 0.89708 0.24051 0.0
C1590 C 0.20971 0.90362 0.31468 0.0
C1591 C 0.20778 0.90478 0.38465 0.0
C1592 C 0.23088 0.88206 0.37543 0.0
C1593 C 0.22031 0.89331 0.34511 0.0
C1594 C 0.23652 0.87578 0.35504 0.0
C1595 C 0.23802 0.87427 0.28488 0.0
C1596 C 0.22668 0.88688 0.3254 0.0
C1597 C 0.23382 0.87935 0.23649 0.0
C1598 C 0.21595 0.89792 0.2948 0.0
C1599 C 0.2124 0.90018 0.43347 0.0
N1600 N 0.22832 0.8854 0.25767 0.0
N1601 N 0.21843 0.89461 0.41275 0.0
H1602 H 0.29583 0.08843 0.73344 0.0
H1603 H 0.36358 0.12032 0.60458 0.0
H1604 H 0.30617 0.09202 0.51968 0.0
H1605 H 0.35353 0.11696 0.81877 0.0
H1606 H 0.34255 0.10925 0.5732 0.0
H1607 H 0.31684 0.09816 0.76609 0.0
C1608 C 0.3025 0.09123 0.6933 0.0
C1609 C 0.2992 0.08944 0.6236 0.0
C1610 C 0.34493 0.1109 0.62709 0.0
C1611 C 0.32331 0.1006 0.66084 0.0
C1612 C 0.35696 0.11723 0.64515 0.0
C1613 C 0.36036 0.11964 0.71451 0.0
C1614 C 0.33618 0.10694 0.67866 0.0
C1615 C 0.35134 0.11535 0.76466 0.0
C1616 C 0.31451 0.09679 0.71206 0.0
C1617 C 0.30827 0.09324 0.57401 0.0
N1618 N 0.33967 0.10924 0.74571 0.0
N1619 N 0.3199 0.09867 0.5936 0.0
H1620 H 0.90615 0.2056 0.73153 0.0
H1621 H 0.87371 0.24096 0.60309 0.0
H1622 H 0.90221 0.21208 0.51779 0.0
H1623 H 0.87762 0.23478 0.81739 0.0
H1624 H 0.88463 0.23086 0.57152 0.0
H1625 H 0.89622 0.21669 0.76433 0.0
C1626 C 0.90323 0.20937 0.69143 0.0
C1627 C 0.905 0.20786 0.62169 0.0
C1628 C 0.88313 0.23172 0.62548 0.0
C1629 C 0.8936 0.22057 0.6591 0.0
C1630 C 0.87688 0.2375 0.64365 0.0
C1631 C 0.8747 0.2387 0.71312 0.0
C1632 C 0.88723 0.22707 0.67702 0.0
C1633 C 0.87907 0.23405 0.76322 0.0
C1634 C 0.89755 0.2157 0.71028 0.0
C1635 C 0.90103 0.21298 0.57214 0.0
N1636 N 0.88511 0.22841 0.74416 0.0
N1637 N 0.8955 0.21907 0.59182 0.0
H1638 H 0.78351 0.69099 0.52614 0.0
H1639 H 0.7589 0.64107 0.82167 0.0
H1640 H 0.78869 0.699 0.7433 0.0
H1641 H 0.75576 0.63317 0.60429 0.0
H1642 H 0.76886 0.66236 0.79415 0.0
H1643 H 0.77228 0.66973 0.554 0.0
C1644 C 0.78226 0.6883 0.57964 0.0
C1645 C 0.78711 0.69682 0.63238 0.0
C1646 C 0.76597 0.65595 0.75252 0.0
C1647 C 0.77427 0.67248 0.66467 0.0
C1648 C 0.76027 0.64379 0.76821 0.0
C1649 C 0.75652 0.63529 0.71529 0.0
C1650 C 0.76791 0.65965 0.68341 0.0
C1651 C 0.75853 0.63937 0.64691 0.0
C1652 C 0.77585 0.67615 0.59554 0.0
C1653 C 0.78517 0.69278 0.70083 0.0
N1654 N 0.76409 0.65123 0.63301 0.0
N1655 N 0.77893 0.68091 0.71494 0.0
H1656 H 0.87739 0.64027 0.81023 0.0
H1657 H 0.89978 0.68715 0.49905 0.0
H1658 H 0.87065 0.62994 0.59645 0.0
H1659 H 0.90617 0.6971 0.71347 0.0
H1660 H 0.88962 0.66612 0.53303 0.0
H1661 H 0.88851 0.66115 0.77502 0.0
C1662 C 0.87826 0.64238 0.75587 0.0
C1663 C 0.87303 0.63331 0.70628 0.0
C1664 C 0.89328 0.67292 0.57257 0.0
C1665 C 0.88577 0.65726 0.66555 0.0
C1666 C 0.89909 0.68493 0.5532 0.0
C1667 C 0.90381 0.69392 0.60344 0.0
C1668 C 0.89218 0.66989 0.64265 0.0
C1669 C 0.90265 0.6905 0.67285 0.0
C1670 C 0.88462 0.65432 0.73578 0.0
C1671 C 0.8745 0.63661 0.63655 0.0
N1672 N 0.89694 0.67877 0.69033 0.0
N1673 N 0.88071 0.64831 0.6183 0.0
H1674 H 0.30753 0.21311 0.49929 0.0
H1675 H 0.3538 0.23627 0.81345 0.0
H1676 H 0.29699 0.20747 0.71298 0.0
H1677 H 0.36437 0.24135 0.5998 0.0
H1678 H 0.33293 0.22653 0.77757 0.0
H1679 H 0.32841 0.22431 0.53511 0.0
C1680 C 0.30959 0.21425 0.55371 0.0
C1681 C 0.30047 0.20928 0.60315 0.0
C1682 C 0.33982 0.22981 0.73855 0.0
C1683 C 0.32438 0.2221 0.64452 0.0
C1684 C 0.35175 0.23538 0.75902 0.0
C1685 C 0.36088 0.2396 0.70962 0.0
C1686 C 0.33697 0.22842 0.66816 0.0
C1687 C 0.35765 0.23821 0.63979 0.0
C1688 C 0.32152 0.22065 0.57414 0.0
C1689 C 0.3037 0.21109 0.67296 0.0
N1690 N 0.34598 0.23271 0.6212 0.0
N1691 N 0.31538 0.21732 0.69151 0.0
H1692 H 0.7601 0.11797 0.81917 0.0
H1693 H 0.78218 0.09422 0.5029 0.0
H1694 H 0.75421 0.12297 0.60608 0.0
H1695 H 0.78817 0.08939 0.71609 0.0
H1696 H 0.7713 0.10418 0.5397 0.0
H1697 H 0.76982 0.10687 0.78235 0.0
C1698 C 0.76081 0.11671 0.76467 0.0
C1699 C 0.75635 0.12146 0.7157 0.0
C1700 C 0.77497 0.10091 0.5784 0.0
C1701 C 0.7675 0.10876 0.67315 0.0
C1702 C 0.78119 0.09521 0.55741 0.0
C1703 C 0.78615 0.09098 0.60642 0.0
C1704 C 0.7737 0.1024 0.6489 0.0
C1705 C 0.78454 0.09252 0.67638 0.0
C1706 C 0.76637 0.11037 0.74366 0.0
C1707 C 0.75753 0.11951 0.64574 0.0
N1708 N 0.77849 0.09813 0.69547 0.0
N1709 N 0.76301 0.11335 0.62661 0.0
H1710 H 0.68837 0.90348 0.47098 0.0
H1711 H 0.64155 0.87871 0.1596 0.0
H1712 H 0.69871 0.90671 0.25735 0.0
H1713 H 0.63154 0.87494 0.37398 0.0
H1714 H 0.66256 0.88964 0.19374 0.0
H1715 H 0.66749 0.89364 0.4357 0.0
C1716 C 0.68627 0.90215 0.41664 0.0
C1717 C 0.69534 0.90591 0.36712 0.0
C1718 C 0.65575 0.88644 0.23324 0.0
C1719 C 0.67139 0.89461 0.32631 0.0
C1720 C 0.64375 0.8802 0.21378 0.0
C1721 C 0.63474 0.87585 0.26395 0.0
C1722 C 0.65877 0.88835 0.30335 0.0
C1723 C 0.63815 0.87808 0.33341 0.0
C1724 C 0.67433 0.89652 0.39651 0.0
C1725 C 0.69204 0.90395 0.29741 0.0
N1726 N 0.64987 0.88414 0.35098 0.0
N1727 N 0.68034 0.89842 0.27912 0.0
H1728 H 0.12152 0.75619 0.39159 0.0
H1729 H 0.08805 0.79038 0.25975 0.0
H1730 H 0.1166 0.76126 0.17701 0.0
H1731 H 0.09233 0.78469 0.4743 0.0
H1732 H 0.09816 0.77942 0.22852 0.0
H1733 H 0.11055 0.7663 0.42279 0.0
C1734 C 0.11812 0.75941 0.35096 0.0
C1735 C 0.12002 0.75788 0.28149 0.0
C1736 C 0.09686 0.78054 0.28243 0.0
C1737 C 0.10744 0.7695 0.31704 0.0
C1738 C 0.09108 0.78681 0.30037 0.0
C1739 C 0.08935 0.7885 0.36984 0.0
C1740 C 0.10098 0.77593 0.33426 0.0
C1741 C 0.09347 0.78364 0.4201 0.0
C1742 C 0.11184 0.76518 0.36888 0.0
C1743 C 0.11538 0.76224 0.23121 0.0
N1744 N 0.09912 0.7776 0.40131 0.0
N1745 N 0.10933 0.76786 0.25 0.0
H1746 H 0.23522 0.35554 0.17326 0.0
H1747 H 0.21177 0.30839 0.48304 0.0
H1748 H 0.24014 0.36547 0.38791 0.0
H1749 H 0.20585 0.29841 0.26855 0.0
H1750 H 0.22288 0.32935 0.44901 0.0
H1751 H 0.22516 0.33455 0.20708 0.0
C1752 C 0.23423 0.35332 0.22748 0.0
C1753 C 0.23851 0.36231 0.27778 0.0
C1754 C 0.21917 0.32257 0.40939 0.0
C1755 C 0.22697 0.33827 0.31684 0.0
C1756 C 0.21282 0.31059 0.42879 0.0
C1757 C 0.20782 0.3016 0.37862 0.0
C1758 C 0.22056 0.32562 0.33929 0.0
C1759 C 0.20951 0.30501 0.30909 0.0
C1760 C 0.22847 0.34133 0.24676 0.0
C1761 C 0.23696 0.35887 0.34727 0.0
N1762 N 0.21571 0.31674 0.29153 0.0
N1763 N 0.2313 0.34714 0.36469 0.0
H1764 H 0.97349 0.42682 0.84271 0.0
H1765 H 0.01956 0.45035 0.15796 0.0
H1766 H 0.96279 0.42245 0.05603 0.0
H1767 H 0.03025 0.45553 0.94451 0.0
H1768 H -0.00131 0.43939 0.12169 0.0
H1769 H 0.99435 0.43664 0.87916 0.0
C1770 C 0.97551 0.42788 0.89719 0.0
C1771 C 0.96635 0.42383 0.94632 0.0
C1772 C 0.00561 0.4429 0.08281 0.0
C1773 C 0.99023 0.43509 0.98842 0.0
C1774 C 0.01754 0.44917 0.1035 0.0
C1775 C 0.0267 0.45392 0.05426 0.0
C1776 C 0.0028 0.44137 0.01237 0.0
C1777 C 0.02351 0.45206 0.98438 0.0
C1778 C 0.98743 0.4335 0.91798 0.0
C1779 C 0.96953 0.42545 0.01624 0.0
N1780 N 0.01184 0.44597 0.96558 0.0
N1781 N 0.98119 0.43097 0.03514 0.0
H1782 H 0.5736 0.54054 0.03986 0.0
H1783 H 0.53853 0.57393 0.92321 0.0
H1784 H 0.56678 0.54508 0.82769 0.0
H1785 H 0.54529 0.56931 0.13533 0.0
H1786 H 0.54934 0.56391 0.88725 0.0
H1787 H 0.56378 0.55157 0.07549 0.0
C1788 C 0.57007 0.54388 0.00065 0.0
C1789 C 0.571 0.54183 0.93056 0.0
C1790 C 0.54849 0.5651 0.94166 0.0
C1791 C 0.5597 0.55449 0.97129 0.0
C1792 C 0.54231 0.57084 0.96233 0.0
C1793 C 0.54096 0.57245 0.03253 0.0
C1794 C 0.55337 0.56092 0.99144 0.0
C1795 C 0.54608 0.56825 0.08069 0.0
C1796 C 0.56445 0.55018 0.02113 0.0
C1797 C 0.56626 0.54641 0.88226 0.0
N1798 N 0.55203 0.56266 0.05924 0.0
N1799 N 0.56079 0.55249 0.90356 0.0
H1800 H 0.42662 0.97527 0.14778 0.0
H1801 H 0.45038 0.02301 0.84112 0.0
H1802 H 0.42176 0.96575 0.93251 0.0
H1803 H 0.45636 0.03259 0.05615 0.0
H1804 H 0.43913 0.002 0.87387 0.0
H1805 H 0.43681 0.99633 0.11537 0.0
C1806 C 0.42766 0.97759 0.09371 0.0
C1807 C 0.42335 0.9687 0.04282 0.0
C1808 C 0.44288 0.0087 0.91389 0.0
C1809 C 0.43503 0.99282 0.00537 0.0
C1810 C 0.44931 0.02071 0.89523 0.0
C1811 C 0.45437 0.02961 0.94592 0.0
C1812 C 0.44149 0.00552 0.98377 0.0
C1813 C 0.45265 0.02606 0.01523 0.0
C1814 C 0.43349 0.98963 0.07524 0.0
C1815 C 0.42495 0.97227 0.97357 0.0
N1816 N 0.44638 0.0143 0.03207 0.0
N1817 N 0.43068 0.98405 0.95694 0.0
H1818 H 0.53795 0.96237 0.92346 0.0
H1819 H 0.57328 0.03007 0.05261 0.0
H1820 H 0.54469 0.97284 0.137 0.0
H1821 H 0.56766 0.02029 0.83778 0.0
H1822 H 0.56332 0.00907 0.08332 0.0
H1823 H 0.54926 0.98338 0.89031 0.0
C1824 C 0.54184 0.96907 0.96344 0.0
C1825 C 0.54031 0.96581 0.03325 0.0
C1826 C 0.56428 0.01148 0.02942 0.0
C1827 C 0.55326 0.9899 0.99543 0.0
C1828 C 0.56997 0.02351 0.0117 0.0
C1829 C 0.57128 0.02699 0.94235 0.0
C1830 C 0.55978 0.00278 0.97758 0.0
C1831 C 0.56684 0.01803 0.89186 0.0
C1832 C 0.5483 0.98107 0.94438 0.0
C1833 C 0.54559 0.9749 0.08261 0.0
N1834 N 0.56124 0.00632 0.91051 0.0
N1835 N 0.55179 0.98652 0.06273 0.0
H1836 H 0.96347 0.54023 0.06115 0.0
H1837 H 0.03141 0.57382 0.9345 0.0
H1838 H 0.9739 0.54562 0.84727 0.0
H1839 H 0.02093 0.56906 0.14826 0.0
H1840 H 0.01042 0.56391 0.90158 0.0
H1841 H 0.98447 0.55115 0.09385 0.0
C1842 C 0.97016 0.54373 0.02097 0.0
C1843 C 0.96688 0.54196 0.95126 0.0
C1844 C 0.01271 0.56506 0.95568 0.0
C1845 C 0.99101 0.55448 0.98857 0.0
C1846 C 0.02471 0.57072 0.97459 0.0
C1847 C 0.02797 0.57226 0.04434 0.0
C1848 C 0.00386 0.56086 0.0068 0.0
C1849 C 0.01886 0.56807 0.09388 0.0
C1850 C 0.98217 0.54997 0.03976 0.0
C1851 C 0.97599 0.54673 0.90162 0.0
N1852 N 0.00723 0.56254 0.07413 0.0
N1853 N 0.98762 0.55275 0.92126 0.0
H1854 H 0.44925 0.42646 0.85214 0.0
H1855 H 0.42765 0.45167 0.16338 0.0
H1856 H 0.45622 0.42306 0.0658 0.0
H1857 H 0.42167 0.45569 0.9489 0.0
H1858 H 0.43749 0.44051 0.12934 0.0
H1859 H 0.43844 0.43653 0.88738 0.0
C1860 C 0.44849 0.4278 0.90648 0.0
C1861 C 0.4537 0.42393 0.95602 0.0
C1862 C 0.434 0.44382 0.0898 0.0
C1863 C 0.44132 0.43549 0.99679 0.0
C1864 C 0.42837 0.45019 0.1092 0.0
C1865 C 0.42385 0.45467 0.05897 0.0
C1866 C 0.43511 0.44191 0.0197 0.0
C1867 C 0.42504 0.45245 0.98952 0.0
C1868 C 0.44231 0.43356 0.92659 0.0
C1869 C 0.45238 0.42591 0.02573 0.0
N1870 N 0.43057 0.44626 0.97202 0.0
N1871 N 0.44635 0.43157 0.044 0.0
H1872 H 0.17881 0.41307 0.32733 0.0
H1873 H 0.22574 0.40379 0.10905 0.0
H1874 H 0.17422 0.4029 0.11305 0.0
H1875 H 0.22955 0.41217 0.32589 0.0
H1876 H 0.20848 0.40662 0.10531 0.0
H1877 H 0.19895 0.41597 0.32318 0.0
C1878 C 0.18207 0.41157 0.27917 0.0
C1879 C 0.17472 0.40754 0.22073 0.0
C1880 C 0.21316 0.40796 0.15358 0.0
C1881 C 0.19776 0.4108 0.21581 0.0
C1882 C 0.22303 0.40634 0.15579 0.0
C1883 C 0.22899 0.40754 0.21817 0.0
C1884 C 0.20918 0.41075 0.21421 0.0
C1885 C 0.22515 0.411 0.27682 0.0
C1886 C 0.19358 0.41323 0.27689 0.0
C1887 C 0.17949 0.40587 0.15964 0.0
N1888 N 0.2154 0.41235 0.27356 0.0
N1889 N 0.19066 0.40738 0.159 0.0
H1890 H 0.58197 0.76563 0.32539 0.0
H1891 H 0.59297 0.82133 0.09658 0.0
H1892 H 0.59261 0.77016 0.11192 0.0
H1893 H 0.58371 0.81762 0.31211 0.0
H1894 H 0.58968 0.80109 0.09666 0.0
H1895 H 0.57938 0.78301 0.31662 0.0
C1896 C 0.58363 0.77018 0.27643 0.0
C1897 C 0.58772 0.76653 0.21962 0.0
C1898 C 0.58824 0.80465 0.14378 0.0
C1899 C 0.58482 0.78649 0.20941 0.0
C1900 C 0.5901 0.81623 0.14377 0.0
C1901 C 0.58878 0.82129 0.20466 0.0
C1902 C 0.5851 0.79807 0.20521 0.0
C1903 C 0.58498 0.81416 0.26409 0.0
C1904 C 0.58216 0.78012 0.27151 0.0
C1905 C 0.58961 0.77273 0.15736 0.0
N1906 N 0.58341 0.80297 0.26305 0.0
N1907 N 0.58827 0.78248 0.15416 0.0
H1908 H 0.22539 0.8208 0.10733 0.0
H1909 H 0.1783 0.76364 0.31809 0.0
H1910 H 0.22902 0.81513 0.32283 0.0
H1911 H 0.17353 0.77048 0.10636 0.0
H1912 H 0.19853 0.78068 0.31494 0.0
H1913 H 0.20812 0.80074 0.10075 0.0
C1914 C 0.22264 0.81531 0.15318 0.0
C1915 C 0.22855 0.81975 0.21609 0.0
C1916 C 0.19311 0.77838 0.26893 0.0
C1917 C 0.20874 0.79676 0.20881 0.0
C1918 C 0.18154 0.76864 0.27064 0.0
C1919 C 0.17411 0.76574 0.21273 0.0
C1920 C 0.19727 0.78532 0.20901 0.0
C1921 C 0.17887 0.77247 0.15251 0.0
C1922 C 0.21277 0.80384 0.14932 0.0
C1923 C 0.22466 0.81214 0.27345 0.0
N1924 N 0.1901 0.78203 0.15249 0.0
N1925 N 0.21491 0.80107 0.26861 0.0
H1926 H 0.41067 0.17845 0.66474 0.0
H1927 H 0.40195 0.22603 0.88031 0.0
H1928 H 0.40077 0.17444 0.87935 0.0
H1929 H 0.40967 0.22928 0.66268 0.0
H1930 H 0.4046 0.20867 0.88447 0.0
H1931 H 0.4134 0.19854 0.66684 0.0
C1932 C 0.4092 0.18182 0.71254 0.0
C1933 C 0.40534 0.17465 0.77179 0.0
C1934 C 0.40582 0.21324 0.8359 0.0
C1935 C 0.40841 0.19764 0.77435 0.0
C1936 C 0.40431 0.22317 0.83345 0.0
C1937 C 0.4054 0.22902 0.7708 0.0
C1938 C 0.40839 0.20908 0.77523 0.0
C1939 C 0.40862 0.22498 0.71199 0.0
C1940 C 0.41076 0.1933 0.71364 0.0
C1941 C 0.40367 0.17956 0.83229 0.0
N1942 N 0.40987 0.21517 0.7155 0.0
N1943 N 0.4051 0.1907 0.8318 0.0
H1944 H 0.76473 0.17991 0.66621 0.0
H1945 H 0.82003 0.22785 0.88628 0.0
H1946 H 0.7696 0.17626 0.88285 0.0
H1947 H 0.81684 0.23022 0.66655 0.0
H1948 H 0.79987 0.21077 0.88925 0.0
H1949 H 0.782 0.20005 0.66906 0.0
C1950 C 0.76934 0.18338 0.71457 0.0
C1951 C 0.76582 0.17629 0.77414 0.0
C1952 C 0.80354 0.21509 0.84046 0.0
C1953 C 0.78563 0.19933 0.7776 0.0
C1954 C 0.81508 0.22487 0.8387 0.0
C1955 C 0.82027 0.23037 0.77591 0.0
C1956 C 0.79712 0.21074 0.77894 0.0
C1957 C 0.81328 0.22619 0.71609 0.0
C1958 C 0.77921 0.19488 0.71611 0.0
C1959 C 0.77208 0.18132 0.83542 0.0
N1960 N 0.80212 0.21653 0.71897 0.0
N1961 N 0.78175 0.19248 0.83537 0.0
H1962 H 0.81386 0.58115 0.67441 0.0
H1963 H 0.76837 0.59368 0.88486 0.0
H1964 H 0.81974 0.59398 0.88387 0.0
H1965 H 0.76411 0.58353 0.67064 0.0
H1966 H 0.78534 0.59039 0.89177 0.0
H1967 H 0.79386 0.57849 0.67901 0.0
C1968 C 0.81092 0.5833 0.72167 0.0
C1969 C 0.81859 0.58802 0.77842 0.0
C1970 C 0.78061 0.58876 0.84347 0.0
C1971 C 0.79568 0.58504 0.78382 0.0
C1972 C 0.77089 0.59061 0.83947 0.0
C1973 C 0.76491 0.58907 0.77676 0.0
C1974 C 0.78438 0.58534 0.78433 0.0
C1975 C 0.76855 0.585 0.71984 0.0
C1976 C 0.79947 0.58178 0.72422 0.0
C1977 C 0.81419 0.59047 0.83854 0.0
N1978 N 0.77812 0.58341 0.72482 0.0
N1979 N 0.80307 0.58909 0.83936 0.0
H1980 H 0.89069 0.73559 0.44022 0.0
H1981 H 0.84704 0.74702 0.67605 0.0
H1982 H 0.89723 0.74532 0.65487 0.0
H1983 H 0.84052 0.73719 0.46152 0.0
H1984 H 0.86686 0.74931 0.66494 0.0
H1985 H 0.87382 0.73902 0.44278 0.0
C1986 C 0.88869 0.73859 0.4877 0.0
C1987 C 0.89532 0.74001 0.54766 0.0
C1988 C 0.86115 0.74678 0.6201 0.0
C1989 C 0.8759 0.74385 0.55108 0.0
C1990 C 0.84981 0.74547 0.62639 0.0
C1991 C 0.84202 0.74173 0.56988 0.0
C1992 C 0.8647 0.74427 0.55697 0.0
C1993 C 0.84617 0.73997 0.50668 0.0
C1994 C 0.87903 0.74053 0.48914 0.0
C1995 C 0.89231 0.74398 0.60755 0.0
N1996 N 0.85717 0.74112 0.50216 0.0
N1997 N 0.88274 0.74563 0.60792 0.0
H1998 H 0.26042 0.15496 0.43292 0.0
H1999 H 0.24804 0.09795 0.65387 0.0
H2000 H 0.24991 0.14992 0.64667 0.0
H2001 H 0.26023 0.10366 0.4431 0.0
H2002 H 0.2456 0.11541 0.64629 0.0
H2003 H 0.25737 0.13476 0.43024 0.0
C2004 C 0.25736 0.14958 0.47915 0.0
C2005 C 0.25561 0.15423 0.54046 0.0
C2006 C 0.2487 0.11278 0.60146 0.0
C2007 C 0.25213 0.1311 0.53769 0.0
C2008 C 0.25009 0.10279 0.60572 0.0
C2009 C 0.25455 0.09944 0.5494 0.0
C2010 C 0.25182 0.11951 0.54057 0.0
C2011 C 0.25691 0.10599 0.48813 0.0
C2012 C 0.25562 0.13804 0.47754 0.0
C2013 C 0.25151 0.14678 0.59847 0.0
N2014 N 0.25565 0.1158 0.48562 0.0
N2015 N 0.25004 0.13563 0.59583 0.0
H2016 H 0.89738 0.14886 0.65221 0.0
H2017 H 0.84008 0.10388 0.43465 0.0
H2018 H 0.89144 0.15478 0.44082 0.0
H2019 H 0.84507 0.09901 0.64944 0.0
H2020 H 0.86037 0.12082 0.43066 0.0
H2021 H 0.87988 0.12893 0.64633 0.0
C2022 C 0.89249 0.14593 0.60426 0.0
C2023 C 0.89578 0.1536 0.54725 0.0
C2024 C 0.85707 0.11598 0.47849 0.0
C2025 C 0.87567 0.1308 0.54041 0.0
C2026 C 0.84547 0.10629 0.48086 0.0
C2027 C 0.84078 0.10013 0.54282 0.0
C2028 C 0.86403 0.11956 0.53853 0.0
C2029 C 0.84825 0.10359 0.60075 0.0
C2030 C 0.88248 0.13454 0.60099 0.0
C2031 C 0.88916 0.14925 0.48632 0.0
N2032 N 0.85946 0.11315 0.59736 0.0
N2033 N 0.87934 0.13819 0.48478 0.0
H2034 H 0.06844 0.5594 0.2258 0.0
H2035 H 0.07868 0.51272 0.01167 0.0
H2036 H 0.07853 0.56374 0.01142 0.0
H2037 H 0.06718 0.50765 0.22368 0.0
H2038 H 0.08184 0.53294 0.01616 0.0
H2039 H 0.07113 0.54205 0.23127 0.0
C2040 C 0.07135 0.5568 0.18004 0.0
C2041 C 0.07305 0.56293 0.1177 0.0
C2042 C 0.07874 0.52745 0.06192 0.0
C2043 C 0.07609 0.54302 0.12361 0.0
C2044 C 0.07694 0.51589 0.05942 0.0
C2045 C 0.07247 0.50839 0.11705 0.0
C2046 C 0.07601 0.53153 0.12237 0.0
C2047 C 0.0705 0.51305 0.17769 0.0
C2048 C 0.07288 0.54688 0.18322 0.0
C2049 C 0.07695 0.55921 0.06035 0.0
N2050 N 0.07215 0.52427 0.1785 0.0
N2051 N 0.0782 0.54942 0.0645 0.0
H2052 H 0.43081 0.51348 0.01066 0.0
H2053 H 0.4882 0.56041 0.22065 0.0
H2054 H 0.43764 0.50893 0.22275 0.0
H2055 H 0.4823 0.56441 0.00603 0.0
H2056 H 0.46812 0.54318 0.22731 0.0
H2057 H 0.448 0.53367 0.01309 0.0
C2058 C 0.43582 0.51676 0.05801 0.0
C2059 C 0.43284 0.50941 0.11634 0.0
C2060 C 0.47117 0.5479 0.17892 0.0
C2061 C 0.45258 0.5325 0.11929 0.0
C2062 C 0.48265 0.55776 0.17508 0.0
C2063 C 0.48704 0.56376 0.11238 0.0
C2064 C 0.46403 0.54396 0.11959 0.0
C2065 C 0.47936 0.55998 0.05526 0.0
C2066 C 0.44565 0.52829 0.05932 0.0
C2067 C 0.43962 0.5142 0.17636 0.0
N2068 N 0.46829 0.55023 0.06004 0.0
N2069 N 0.44924 0.52539 0.17603 0.0
H2070 H 0.4867 0.92631 0.21121 0.0
H2071 H 0.4291 0.91598 0.00411 0.0
H2072 H 0.48038 0.91638 0.99672 0.0
H2073 H 0.4365 0.92824 0.21456 0.0
H2074 H 0.44616 0.91284 0.00651 0.0
H2075 H 0.46678 0.92386 0.21884 0.0
C2076 C 0.48109 0.9235 0.16582 0.0
C2077 C 0.48531 0.92174 0.10288 0.0
C2078 C 0.44399 0.91611 0.0524 0.0
C2079 C 0.46249 0.91895 0.11138 0.0
C2080 C 0.43423 0.91791 0.05112 0.0
C2081 C 0.43147 0.92259 0.10885 0.0
C2082 C 0.45109 0.91905 0.11174 0.0
C2083 C 0.43837 0.92475 0.16855 0.0
C2084 C 0.46971 0.92211 0.17028 0.0
C2085 C 0.47757 0.91797 0.04611 0.0
N2086 N 0.44794 0.9231 0.16816 0.0
N2087 N 0.46658 0.91683 0.05155 0.0
H2088 H 0.5587 0.06777 0.76885 0.0
H2089 H 0.51404 0.08131 0.98059 0.0
H2090 H 0.56377 0.07886 0.98155 0.0
H2091 H 0.5078 0.06845 0.77117 0.0
H2092 H 0.53392 0.08367 0.97522 0.0
H2093 H 0.54177 0.07114 0.76255 0.0
C2094 C 0.55636 0.07105 0.81401 0.0
C2095 C 0.56257 0.07286 0.87614 0.0
C2096 C 0.52825 0.08045 0.93018 0.0
C2097 C 0.54315 0.07667 0.86931 0.0
C2098 C 0.51688 0.07909 0.93318 0.0
C2099 C 0.50914 0.07446 0.87665 0.0
C2100 C 0.53191 0.07709 0.87037 0.0
C2101 C 0.5134 0.07191 0.81633 0.0
C2102 C 0.54667 0.07296 0.81037 0.0
C2103 C 0.55916 0.07719 0.93281 0.0
N2104 N 0.52445 0.07311 0.81508 0.0
N2105 N 0.5496 0.07882 0.92821 0.0
H2106 H 0.92621 0.43725 0.7707 0.0
H2107 H 0.91461 0.48321 0.98288 0.0
H2108 H 0.91588 0.43278 0.98468 0.0
H2109 H 0.92704 0.48884 0.77263 0.0
H2110 H 0.91174 0.46311 0.97821 0.0
H2111 H 0.92333 0.45448 0.76473 0.0
C2112 C 0.92323 0.43981 0.8163 0.0
C2113 C 0.92148 0.43367 0.87865 0.0
C2114 C 0.91498 0.4687 0.93285 0.0
C2115 C 0.9182 0.45342 0.87209 0.0
C2116 C 0.91661 0.48019 0.93543 0.0
C2117 C 0.92128 0.48782 0.87842 0.0
C2118 C 0.91807 0.46481 0.87297 0.0
C2119 C 0.92357 0.48334 0.81812 0.0
C2120 C 0.92158 0.44966 0.8128 0.0
C2121 C 0.91747 0.43732 0.93575 0.0
N2122 N 0.92208 0.47217 0.81726 0.0
N2123 N 0.9161 0.44704 0.93127 0.0
H2124 H 0.50649 0.43585 0.77003 0.0
H2125 H 0.5639 0.48333 0.97738 0.0
H2126 H 0.51256 0.43234 0.98503 0.0
H2127 H 0.5571 0.48737 0.76436 0.0
H2128 H 0.54675 0.46313 0.97616 0.0
H2129 H 0.52653 0.4531 0.76228 0.0
C2130 C 0.51207 0.43861 0.81546 0.0
C2131 C 0.50774 0.43273 0.87856 0.0
C2132 C 0.54908 0.4684 0.92948 0.0
C2133 C 0.53071 0.45257 0.87009 0.0
C2134 C 0.55889 0.47994 0.9301 0.0
C2135 C 0.56183 0.48715 0.8712 0.0
C2136 C 0.54214 0.46404 0.86964 0.0
C2137 C 0.55507 0.48221 0.81128 0.0
C2138 C 0.52353 0.44848 0.81099 0.0
C2139 C 0.51546 0.43667 0.93549 0.0
N2140 N 0.54547 0.47101 0.81229 0.0
N2141 N 0.52651 0.44643 0.93008 0.0
H2142 H 0.74578 0.89712 0.33872 0.0
H2143 H 0.73422 0.84174 0.5725 0.0
H2144 H 0.73544 0.89326 0.55255 0.0
H2145 H 0.7439 0.84503 0.35772 0.0
H2146 H 0.73763 0.86203 0.57035 0.0
H2147 H 0.74814 0.87961 0.34907 0.0
C2148 C 0.74415 0.8927 0.38809 0.0
C2149 C 0.74023 0.89658 0.44459 0.0
C2150 C 0.73913 0.85837 0.52384 0.0
C2151 C 0.74285 0.87647 0.4566 0.0
C2152 C 0.7372 0.84676 0.52503 0.0
C2153 C 0.73862 0.84158 0.46496 0.0
C2154 C 0.74244 0.86485 0.46202 0.0
C2155 C 0.74257 0.84859 0.40512 0.0
C2156 C 0.74549 0.88268 0.39391 0.0
C2157 C 0.73835 0.89053 0.50737 0.0
N2158 N 0.7442 0.85982 0.40498 0.0
N2159 N 0.73954 0.8807 0.51144 0.0
H2160 H 0.09695 0.84755 0.33541 0.0
H2161 H 0.15399 0.89174 0.55589 0.0
H2162 H 0.10225 0.84152 0.54775 0.0
H2163 H 0.14902 0.89775 0.34299 0.0
H2164 H 0.13368 0.87496 0.55877 0.0
H2165 H 0.11444 0.86746 0.34244 0.0
C2166 C 0.1017 0.85045 0.38379 0.0
C2167 C 0.09824 0.84275 0.44072 0.0
C2168 C 0.13697 0.88003 0.51161 0.0
C2169 C 0.11834 0.86554 0.4489 0.0
C2170 C 0.1486 0.88965 0.50992 0.0
C2171 C 0.15331 0.89612 0.44885 0.0
C2172 C 0.13 0.87675 0.45166 0.0
C2173 C 0.14583 0.89296 0.39104 0.0
C2174 C 0.1117 0.86183 0.38772 0.0
C2175 C 0.10467 0.84707 0.50225 0.0
N2176 N 0.13459 0.88341 0.39366 0.0
N2177 N 0.1145 0.85812 0.50442 0.0
H2178 H 0.14888 0.24927 0.34656 0.0
H2179 H 0.10314 0.26088 0.56086 0.0
H2180 H 0.15466 0.2616 0.55702 0.0
H2181 H 0.09855 0.25069 0.34663 0.0
H2182 H 0.1203 0.25789 0.56618 0.0
H2183 H 0.12879 0.24639 0.35196 0.0
C2184 C 0.14589 0.25125 0.39421 0.0
C2185 C 0.15357 0.25589 0.45105 0.0
C2186 C 0.11547 0.25619 0.5182 0.0
C2187 C 0.13056 0.25268 0.45736 0.0
C2188 C 0.10566 0.2579 0.51507 0.0
C2189 C 0.09951 0.25623 0.45283 0.0
C2190 C 0.11919 0.25283 0.45866 0.0
C2191 C 0.10311 0.25223 0.39548 0.0
C2192 C 0.13441 0.24961 0.39721 0.0
C2193 C 0.14912 0.25815 0.51164 0.0
N2194 N 0.11279 0.25079 0.3996 0.0
N2195 N 0.13796 0.25666 0.51291 0.0
H2196 H 0.12665 0.37746 0.83073 0.0
H2197 H 0.16434 0.42483 0.54737 0.0
H2198 H 0.14849 0.4145 0.88829 0.0
H2199 H 0.12859 0.39568 0.51095 0.0
H2200 H 0.1611 0.42089 0.67167 0.0
H2201 H 0.12988 0.38337 0.71025 0.0
C2202 C 0.13223 0.38682 0.81829 0.0
C2203 C 0.13753 0.39543 0.87024 0.0
C2204 C 0.15398 0.4155 0.63606 0.0
C2205 C 0.14129 0.40223 0.73213 0.0
C2206 C 0.1558 0.41772 0.56539 0.0
C2207 C 0.14677 0.41049 0.51866 0.0
C2208 C 0.14318 0.40585 0.65935 0.0
C2209 C 0.13585 0.40143 0.54482 0.0
C2210 C 0.13404 0.39018 0.7495 0.0
C2211 C 0.14464 0.40746 0.85061 0.0
N2212 N 0.13444 0.39926 0.61326 0.0
N2213 N 0.1464 0.41051 0.78291 0.0
H2214 H 0.58257 0.75442 0.55453 0.0
H2215 H 0.60454 0.72786 0.85337 0.0
H2216 H 0.59001 0.72571 0.52453 0.0
H2217 H 0.592 0.75261 0.8905 0.0
H2218 H 0.59831 0.72628 0.73346 0.0
H2219 H 0.58462 0.75299 0.67859 0.0
C2220 C 0.58448 0.74771 0.57403 0.0
C2221 C 0.58627 0.74027 0.52895 0.0
C2222 C 0.59677 0.73195 0.76795 0.0
C2223 C 0.58877 0.73869 0.67084 0.0
C2224 C 0.60038 0.73289 0.83631 0.0
C2225 C 0.59869 0.74029 0.88201 0.0
C2226 C 0.59161 0.73862 0.74469 0.0
C2227 C 0.59325 0.74661 0.85735 0.0
C2228 C 0.58567 0.74691 0.64491 0.0
C2229 C 0.58866 0.7317 0.55724 0.0
N2230 N 0.58999 0.74571 0.79015 0.0
N2231 N 0.58998 0.73125 0.62627 0.0
H2232 H 0.26202 0.84474 0.8911 0.0
H2233 H 0.26451 0.86597 0.50881 0.0
H2234 H 0.2486 0.86795 0.82881 0.0
H2235 H 0.25504 0.82943 0.54948 0.0
H2236 H 0.26429 0.86928 0.63173 0.0
H2237 H 0.26412 0.84108 0.77077 0.0
C2238 C 0.25925 0.8489 0.85317 0.0
C2239 C 0.25475 0.85644 0.8714 0.0
C2240 C 0.26236 0.86058 0.61365 0.0
C2241 C 0.25791 0.85277 0.73303 0.0
C2242 C 0.26254 0.85866 0.54353 0.0
C2243 C 0.2596 0.84733 0.51867 0.0
C2244 C 0.25942 0.85117 0.65954 0.0
C2245 C 0.25723 0.83827 0.56648 0.0
C2246 C 0.26064 0.84689 0.78407 0.0
C2247 C 0.25203 0.86202 0.81803 0.0
N2248 N 0.25714 0.84037 0.63503 0.0
N2249 N 0.25372 0.86013 0.75149 0.0
H2250 H 0.42133 0.16542 0.44635 0.0
H2251 H 0.37622 0.12371 0.16258 0.0
H2252 H 0.39533 0.12836 0.48273 0.0
H2253 H 0.41205 0.15043 0.10543 0.0
H2254 H 0.38211 0.12728 0.28324 0.0
H2255 H 0.41746 0.16196 0.32223 0.0
C2256 C 0.41494 0.15655 0.42834 0.0
C2257 C 0.40855 0.1472 0.47503 0.0
C2258 C 0.38865 0.13242 0.24414 0.0
C2259 C 0.40396 0.14332 0.33444 0.0
C2260 C 0.38529 0.13044 0.17535 0.0
C2261 C 0.39354 0.13703 0.12372 0.0
C2262 C 0.40033 0.14112 0.26167 0.0
C2263 C 0.40522 0.14554 0.14335 0.0
C2264 C 0.41274 0.15461 0.35774 0.0
C2265 C 0.4004 0.13588 0.44887 0.0
N2266 N 0.40826 0.14743 0.21101 0.0
N2267 N 0.39821 0.13431 0.38047 0.0
H2268 H 0.82913 0.2529 0.44428 0.0
H2269 H 0.87283 0.25286 0.16093 0.0
H2270 H 0.86655 0.26583 0.48182 0.0
H2271 H 0.84416 0.2591 0.10395 0.0
H2272 H 0.86892 0.25474 0.28172 0.0
H2273 H 0.83282 0.25273 0.32033 0.0
C2274 C 0.83811 0.25583 0.42655 0.0
C2275 C 0.84751 0.25926 0.47353 0.0
C2276 C 0.86342 0.25559 0.24267 0.0
C2277 C 0.85168 0.25883 0.33306 0.0
C2278 C 0.86561 0.25447 0.17384 0.0
C2279 C 0.85858 0.25545 0.12232 0.0
C2280 C 0.85409 0.25766 0.26027 0.0
C2281 C 0.84944 0.25771 0.14197 0.0
C2282 C 0.84019 0.25571 0.35604 0.0
C2283 C 0.85899 0.263 0.44772 0.0
N2284 N 0.84738 0.25864 0.20963 0.0
N2285 N 0.86071 0.26253 0.37938 0.0
H2286 H 0.75329 0.59924 0.46147 0.0
H2287 H 0.71729 0.59246 0.12704 0.0
H2288 H 0.71643 0.57145 0.44878 0.0
H2289 H 0.75376 0.60025 0.11473 0.0
H2290 H 0.71657 0.58639 0.24755 0.0
H2291 H 0.75372 0.6015 0.33623 0.0
C2292 C 0.74532 0.59354 0.43199 0.0
C2293 C 0.73481 0.58514 0.46495 0.0
C2294 C 0.72466 0.58928 0.21807 0.0
C2295 C 0.73515 0.58788 0.32265 0.0
C2296 C 0.7251 0.59281 0.14978 0.0
C2297 C 0.73559 0.5968 0.11139 0.0
C2298 C 0.73489 0.59014 0.24842 0.0
C2299 C 0.74549 0.59712 0.14276 0.0
C2300 C 0.74559 0.5948 0.36078 0.0
C2301 C 0.72471 0.57796 0.42484 0.0
N2302 N 0.74497 0.594 0.20997 0.0
N2303 N 0.72505 0.57965 0.35557 0.0
H2304 H 0.82573 0.58338 0.44581 0.0
H2305 H 0.87405 0.60461 0.1463 0.0
H2306 H 0.86175 0.59039 0.47537 0.0
H2307 H 0.83682 0.59244 0.10968 0.0
H2308 H 0.8694 0.59843 0.2663 0.0
H2309 H 0.82913 0.58525 0.32167 0.0
C2310 C 0.8343 0.58516 0.4262 0.0
C2311 C 0.84353 0.58689 0.47114 0.0
C2312 C 0.86221 0.59696 0.2319 0.0
C2313 C 0.8475 0.58917 0.32921 0.0
C2314 C 0.86487 0.60053 0.16351 0.0
C2315 C 0.85579 0.59893 0.11796 0.0
C2316 C 0.85039 0.59194 0.25532 0.0
C2317 C 0.84405 0.59362 0.14275 0.0
C2318 C 0.83624 0.58624 0.35528 0.0
C2319 C 0.85442 0.5891 0.44275 0.0
N2320 N 0.8417 0.5904 0.20999 0.0
N2321 N 0.85615 0.59032 0.37368 0.0
H2322 H 0.39572 0.26565 0.48188 0.0
H2323 H 0.41455 0.26303 0.10032 0.0
H2324 H 0.42286 0.25621 0.44339 0.0
H2325 H 0.37782 0.24885 0.16283 0.0
H2326 H 0.42035 0.26524 0.22092 0.0
H2327 H 0.39223 0.26523 0.35878 0.0
C2328 C 0.40108 0.26364 0.44759 0.0
C2329 C 0.40947 0.26076 0.47312 0.0
C2330 C 0.41103 0.26155 0.20762 0.0
C2331 C 0.4055 0.26035 0.3321 0.0
C2332 C 0.40762 0.26009 0.13852 0.0
C2333 C 0.39555 0.25536 0.12043 0.0
C2334 C 0.40239 0.25868 0.25865 0.0
C2335 C 0.38721 0.25247 0.17372 0.0
C2336 C 0.39902 0.26336 0.37739 0.0
C2337 C 0.41621 0.25835 0.42586 0.0
N2338 N 0.3908 0.25424 0.24024 0.0
N2339 N 0.41405 0.25815 0.3572 0.0
H2340 H 0.73288 0.15148 0.10799 0.0
H2341 H 0.72978 0.12942 0.48888 0.0
H2342 H 0.74748 0.1293 0.17065 0.0
H2343 H 0.73831 0.16577 0.45162 0.0
H2344 H 0.7306 0.12662 0.36571 0.0
H2345 H 0.73022 0.15468 0.22842 0.0
C2346 C 0.73581 0.14748 0.14612 0.0
C2347 C 0.74077 0.14034 0.12802 0.0
C2348 C 0.73218 0.13516 0.38459 0.0
C2349 C 0.73696 0.14344 0.26624 0.0
C2350 C 0.73166 0.13678 0.45484 0.0
C2351 C 0.73417 0.14793 0.48076 0.0
C2352 C 0.73505 0.14468 0.33966 0.0
C2353 C 0.73644 0.15708 0.4338 0.0
C2354 C 0.73409 0.14921 0.21519 0.0
C2355 C 0.74368 0.13491 0.18141 0.0
N2356 N 0.73688 0.15527 0.36513 0.0
N2357 N 0.74166 0.13651 0.24787 0.0
H2358 H 0.6188 0.87295 0.81619 0.0
H2359 H 0.57391 0.83075 0.53271 0.0
H2360 H 0.58315 0.84579 0.87332 0.0
H2361 H 0.59976 0.86783 0.49559 0.0
H2362 H 0.57777 0.83431 0.65677 0.0
H2363 H 0.61294 0.8693 0.69548 0.0
C2364 C 0.60978 0.86611 0.80336 0.0
C2365 C 0.60158 0.85942 0.85495 0.0
C2366 C 0.58246 0.84164 0.62111 0.0
C2367 C 0.59481 0.85523 0.71701 0.0
C2368 C 0.58026 0.83964 0.55055 0.0
C2369 C 0.58662 0.84897 0.50366 0.0
C2370 C 0.59119 0.85297 0.64422 0.0
C2371 C 0.59472 0.86032 0.52961 0.0
C2372 C 0.60643 0.86408 0.73456 0.0
C2373 C 0.58995 0.85077 0.83533 0.0
N2374 N 0.5969 0.86195 0.59799 0.0
N2375 N 0.58692 0.84884 0.76767 0.0
H2376 H 0.13197 0.72477 0.51418 0.0
H2377 H 0.15566 0.75611 0.87975 0.0
H2378 H 0.16474 0.75823 0.5417 0.0
H2379 H 0.11993 0.7271 0.84336 0.0
H2380 H 0.16061 0.75498 0.75959 0.0
H2381 H 0.12909 0.72334 0.63865 0.0
C2382 C 0.13864 0.73174 0.54642 0.0
C2383 C 0.14852 0.74173 0.51748 0.0
C2384 C 0.15173 0.74879 0.7781 0.0
C2385 C 0.14523 0.74018 0.65976 0.0
C2386 C 0.14892 0.74937 0.84673 0.0
C2387 C 0.1374 0.74161 0.87143 0.0
C2388 C 0.14293 0.74038 0.73408 0.0
C2389 C 0.1289 0.73327 0.82608 0.0
C2390 C 0.13697 0.73094 0.61744 0.0
C2391 C 0.15692 0.75045 0.56179 0.0
N2392 N 0.13184 0.73288 0.75952 0.0
N2393 N 0.15503 0.74952 0.63076 0.0
H2394 H 0.26341 0.41645 0.88972 0.0
H2395 H 0.26513 0.39714 0.50813 0.0
H2396 H 0.24879 0.37964 0.8278 0.0
H2397 H 0.25605 0.42454 0.5469 0.0
H2398 H 0.26496 0.39382 0.63123 0.0
H2399 H 0.2655 0.42219 0.76895 0.0
C2400 C 0.26035 0.4095 0.85158 0.0
C2401 C 0.25553 0.39743 0.86983 0.0
C2402 C 0.26311 0.40062 0.61268 0.0
C2403 C 0.25871 0.40418 0.73156 0.0
C2404 C 0.26325 0.40259 0.54247 0.0
C2405 C 0.26038 0.41101 0.51705 0.0
C2406 C 0.26027 0.40722 0.65807 0.0
C2407 C 0.25817 0.41787 0.56437 0.0
C2408 C 0.26175 0.41287 0.78243 0.0
C2409 C 0.25249 0.38904 0.81673 0.0
N2410 N 0.25809 0.41579 0.63305 0.0
N2411 N 0.25419 0.39258 0.75015 0.0
H2412 H 0.81288 0.76133 0.89473 0.0
H2413 H 0.82125 0.73239 0.23589 0.0
H2414 H 0.82054 0.73254 0.88784 0.0
H2415 H 0.79201 0.7392 0.21542 0.0
H2416 H 0.82651 0.73814 0.11475 0.0
H2417 H 0.81055 0.7589 0.02071 0.0
C2418 C 0.81429 0.75468 0.92003 0.0
C2419 C 0.81687 0.74709 0.88154 0.0
C2420 C 0.81905 0.73851 0.1373 0.0
C2421 C 0.81448 0.74446 0.02393 0.0
C2422 C 0.81608 0.73529 0.20609 0.0
C2423 C 0.80619 0.73533 0.23504 0.0
C2424 C 0.81224 0.74205 0.09815 0.0
C2425 C 0.79967 0.73902 0.19444 0.0
C2426 C 0.81291 0.75326 0.99138 0.0
C2427 C 0.8185 0.73851 0.9161 0.0
N2428 N 0.80284 0.7423 0.12789 0.0
N2429 N 0.81734 0.73745 0.98553 0.0
H2430 H 0.24989 0.08795 0.88513 0.0
H2431 H 0.26982 0.05949 0.18351 0.0
H2432 H 0.25592 0.05833 0.85455 0.0
H2433 H 0.25856 0.08523 0.22123 0.0
H2434 H 0.26375 0.05826 0.06351 0.0
H2435 H 0.25162 0.08622 0.00923 0.0
C2436 C 0.25142 0.08099 0.9045 0.0
C2437 C 0.25292 0.07338 0.85929 0.0
C2438 C 0.26245 0.06407 0.09815 0.0
C2439 C 0.25504 0.07143 0.00116 0.0
C2440 C 0.26596 0.06481 0.16655 0.0
C2441 C 0.26459 0.07239 0.2124 0.0
C2442 C 0.25771 0.07113 0.07503 0.0
C2443 C 0.25955 0.07908 0.18792 0.0
C2444 C 0.25242 0.08001 0.9754 0.0
C2445 C 0.25482 0.06447 0.88738 0.0
N2446 N 0.25638 0.07838 0.12067 0.0
N2447 N 0.25597 0.06384 0.95642 0.0
H2448 H 0.93723 0.19475 0.85179 0.0
H2449 H 0.90578 0.17237 0.21836 0.0
H2450 H 0.90288 0.16303 0.88004 0.0
H2451 H 0.9355 0.20764 0.18049 0.0
H2452 H 0.90651 0.1672 0.0981 0.0
H2453 H 0.93875 0.1978 0.97614 0.0
C2454 C 0.93008 0.18833 0.88417 0.0
C2455 C 0.91983 0.17871 0.85546 0.0
C2456 C 0.91294 0.17603 0.1163 0.0
C2457 C 0.9215 0.18219 -0.0024 0.0
C2458 C 0.91258 0.17895 0.18497 0.0
C2459 C 0.92067 0.1904 0.20932 0.0
C2460 C 0.92145 0.18463 0.07187 0.0
C2461 C 0.92908 0.19872 0.16352 0.0
C2462 C 0.93093 0.19011 0.95512 0.0
C2463 C 0.91088 0.17064 0.89996 0.0
N2464 N 0.92926 0.19567 0.09692 0.0
N2465 N 0.91188 0.17262 0.96885 0.0
H2466 H 0.08954 0.49803 0.78866 0.0
H2467 H 0.04219 0.46005 0.50585 0.0
H2468 H 0.06046 0.46227 0.82588 0.0
H2469 H 0.07921 0.48199 0.44813 0.0
H2470 H 0.04811 0.46334 0.62632 0.0
H2471 H 0.08559 0.4947 0.66443 0.0
C2472 C 0.08245 0.48946 0.77083 0.0
C2473 C 0.07525 0.48046 0.81777 0.0
C2474 C 0.05491 0.46751 0.58705 0.0
C2475 C 0.07058 0.47677 0.67714 0.0
C2476 C 0.05155 0.46567 0.51826 0.0
C2477 C 0.06015 0.47099 0.46627 0.0
C2478 C 0.06696 0.47481 0.60436 0.0
C2479 C 0.07217 0.47813 0.48585 0.0
C2480 C 0.08022 0.48759 0.7002 0.0
C2481 C 0.0662 0.46952 0.79185 0.0
N2482 N 0.07522 0.47993 0.55353 0.0
N2483 N 0.06401 0.46805 0.72343 0.0
H2484 H 0.49547 0.57135 0.77818 0.0
H2485 H 0.54223 0.6033 0.47521 0.0
H2486 H 0.52883 0.60426 0.80422 0.0
H2487 H 0.50648 0.57413 0.44185 0.0
H2488 H 0.53723 0.60413 0.59553 0.0
H2489 H 0.49882 0.57275 0.65409 0.0
C2490 C 0.50343 0.57895 0.75775 0.0
C2491 C 0.51195 0.58763 0.80171 0.0
C2492 C 0.53042 0.59763 0.56177 0.0
C2493 C 0.51591 0.58921 0.65984 0.0
C2494 C 0.5333 0.59712 0.49324 0.0
C2495 C 0.52472 0.58872 0.4485 0.0
C2496 C 0.51893 0.58954 0.58604 0.0
C2497 C 0.51329 0.58091 0.47431 0.0
C2498 C 0.50534 0.57974 0.68686 0.0
C2499 C 0.52206 0.59732 0.77232 0.0
N2500 N 0.51074 0.58145 0.54157 0.0
N2501 N 0.52383 0.59777 0.70328 0.0
H2502 H 0.39159 0.93761 0.47663 0.0
H2503 H 0.42145 0.92016 0.77991 0.0
H2504 H 0.42023 0.93017 0.44516 0.0
H2505 H 0.39098 0.92494 0.80711 0.0
H2506 H 0.41997 0.92187 0.65568 0.0
H2507 H 0.3903 0.93153 0.59661 0.0
C2508 C 0.39755 0.93461 0.49499 0.0
C2509 C 0.40595 0.93429 0.4509 0.0
C2510 C 0.41353 0.92242 0.68879 0.0
C2511 C 0.4046 0.92738 0.58814 0.0
C2512 C 0.41435 0.92142 0.75975 0.0
C2513 C 0.40643 0.92259 0.80403 0.0
C2514 C 0.40477 0.92468 0.66203 0.0
C2515 C 0.39736 0.92411 0.77497 0.0
C2516 C 0.39678 0.93108 0.56335 0.0
C2517 C 0.41346 0.93032 0.4771 0.0
N2518 N 0.39686 0.92526 0.70585 0.0
N2519 N 0.41266 0.92709 0.54424 0.0
H2520 H 0.49413 0.90357 0.76803 0.0
H2521 H 0.53342 0.95007 0.48546 0.0
H2522 H 0.53026 0.93182 0.80627 0.0
H2523 H 0.51121 0.91302 0.42849 0.0
H2524 H 0.52972 0.94427 0.60582 0.0
H2525 H 0.49777 0.90732 0.64374 0.0
C2526 C 0.50283 0.91044 0.75042 0.0
C2527 C 0.51186 0.91747 0.79762 0.0
C2528 C 0.5256 0.93744 0.56665 0.0
C2529 C 0.51591 0.9219 0.657 0.0
C2530 C 0.52767 0.94073 0.49782 0.0
C2531 C 0.52242 0.9321 0.44584 0.0
C2532 C 0.5181 0.92544 0.58415 0.0
C2533 C 0.51508 0.92011 0.46574 0.0
C2534 C 0.50488 0.91256 0.67978 0.0
C2535 C 0.52299 0.92623 0.77202 0.0
N2536 N 0.51305 0.91714 0.53349 0.0
N2537 N 0.52462 0.92832 0.70358 0.0
H2538 H 0.05709 0.60231 0.48405 0.0
H2539 H 0.07814 0.57492 0.78296 0.0
H2540 H 0.06896 0.57704 0.44705 0.0
H2541 H 0.07099 0.60382 0.81321 0.0
H2542 H 0.07632 0.57654 0.65884 0.0
H2543 H 0.06325 0.60376 0.60399 0.0
C2544 C 0.0611 0.59714 0.50116 0.0
C2545 C 0.06261 0.58962 0.45552 0.0
C2546 C 0.07529 0.58262 0.6926 0.0
C2547 C 0.0696 0.59113 0.59284 0.0
C2548 C 0.07634 0.58171 0.76351 0.0
C2549 C 0.07455 0.58914 0.80865 0.0
C2550 C 0.07234 0.59095 0.66673 0.0
C2551 C 0.07232 0.59782 0.78046 0.0
C2552 C 0.06466 0.59801 0.56953 0.0
C2553 C 0.06786 0.58313 0.48019 0.0
N2554 N 0.07113 0.59839 0.7114 0.0
N2555 N 0.07107 0.58395 0.54741 0.0
H2556 H 0.40092 0.48477 0.44564 0.0
H2557 H 0.39603 0.46226 0.82838 0.0
H2558 H 0.41111 0.45908 0.50818 0.0
H2559 H 0.40714 0.49923 0.78817 0.0
H2560 H 0.39622 0.45893 0.70551 0.0
H2561 H 0.39883 0.48854 0.56673 0.0
C2562 C 0.40304 0.48016 0.4845 0.0
C2563 C 0.40667 0.47193 0.46664 0.0
C2564 C 0.39853 0.46774 0.72364 0.0
C2565 C 0.40346 0.47562 0.60448 0.0
C2566 C 0.39838 0.46967 0.79375 0.0
C2567 C 0.40179 0.48112 0.81875 0.0
C2568 C 0.40195 0.47726 0.67792 0.0
C2569 C 0.40458 0.4903 0.77108 0.0
C2570 C 0.40163 0.48218 0.55351 0.0
C2571 C 0.40844 0.4656 0.51951 0.0
N2572 N 0.40467 0.48819 0.70255 0.0
N2573 N 0.40678 0.46755 0.58601 0.0
H2574 H 0.28467 0.20199 0.1521 0.0
H2575 H 0.23786 0.16383 0.86845 0.0
H2576 H 0.24759 0.18015 0.20938 0.0
H2577 H 0.26646 0.19988 0.83233 0.0
H2578 H 0.24162 0.16716 0.99288 0.0
H2579 H 0.2788 0.19861 0.03174 0.0
C2580 C 0.2753 0.19639 0.13975 0.0
C2581 C 0.26668 0.19115 0.19173 0.0
C2582 C 0.24692 0.17432 0.95728 0.0
C2583 C 0.25995 0.1872 0.0535 0.0
C2584 C 0.2448 0.17245 0.88656 0.0
C2585 C 0.25193 0.18154 0.8399 0.0
C2586 C 0.25637 0.18523 0.98068 0.0
C2587 C 0.26079 0.19256 0.86615 0.0
C2588 C 0.27198 0.19449 0.07094 0.0
C2589 C 0.25466 0.18399 0.17195 0.0
N2590 N 0.26287 0.19403 0.93464 0.0
N2591 N 0.25165 0.18214 0.10421 0.0
H2592 H 0.79428 0.06479 0.83312 0.0
H2593 H 0.81491 0.06612 0.21514 0.0
H2594 H 0.8305 0.07307 0.8726 0.0
H2595 H 0.79343 0.0815 0.1528 0.0
H2596 H 0.81856 0.06397 0.09445 0.0
H2597 H 0.79117 0.06523 0.95611 0.0
C2598 C 0.80155 0.06654 0.8676 0.0
C2599 C 0.81275 0.06909 0.84238 0.0
C2600 C 0.81315 0.06791 0.1078 0.0
C2601 C 0.80913 0.06952 0.98331 0.0
C2602 C 0.81119 0.06934 0.17691 0.0
C2603 C 0.80413 0.07439 0.19503 0.0
C2604 C 0.80768 0.07115 0.05678 0.0
C2605 C 0.79898 0.07763 0.14181 0.0
C2606 C 0.79976 0.06685 0.93775 0.0
C2607 C 0.82178 0.07119 0.8899 0.0
N2608 N 0.80079 0.07589 0.07524 0.0
N2609 N 0.81979 0.0714 0.95851 0.0
H2610 H 0.92044 0.75528 0.87152 0.0
H2611 H 0.91603 0.70979 0.15583 0.0
H2612 H 0.93081 0.72875 0.83586 0.0
H2613 H 0.92555 0.74573 0.21283 0.0
H2614 H 0.91851 0.71569 0.03517 0.0
H2615 H 0.91988 0.75139 0.99568 0.0
C2616 C 0.92274 0.74877 0.8897 0.0
C2617 C 0.92554 0.74224 0.84319 0.0
C2618 C 0.91995 0.72225 0.07422 0.0
C2619 C 0.92466 0.73762 0.98385 0.0
C2620 C 0.9185 0.71888 0.14301 0.0
C2621 C 0.92023 0.72717 0.19458 0.0
C2622 C 0.92311 0.73398 0.05662 0.0
C2623 C 0.92355 0.73888 0.1749 0.0
C2624 C 0.9224 0.74656 0.96033 0.0
C2625 C 0.92849 0.73393 0.86957 0.0
N2626 N 0.9248 0.74194 0.10723 0.0
N2627 N 0.92779 0.73174 0.93799 0.0
H2628 H 0.45406 0.05982 0.50962 0.0
H2629 H 0.50236 0.07949 0.21078 0.0
H2630 H 0.49102 0.07084 0.54681 0.0
H2631 H 0.46656 0.07308 0.18022 0.0
H2632 H 0.49896 0.07795 0.33495 0.0
H2633 H 0.45888 0.06587 0.3896 0.0
C2634 C 0.46322 0.06362 0.49253 0.0
C2635 C 0.47217 0.06492 0.5382 0.0
C2636 C 0.4919 0.07702 0.30109 0.0
C2637 C 0.47777 0.07176 0.40083 0.0
C2638 C 0.49384 0.07791 0.23016 0.0
C2639 C 0.48467 0.07624 0.18496 0.0
C2640 C 0.4807 0.07435 0.32688 0.0
C2641 C 0.47384 0.07429 0.21304 0.0
C2642 C 0.46599 0.06712 0.42412 0.0
C2643 C 0.48389 0.0699 0.5136 0.0
N2644 N 0.47212 0.07326 0.28211 0.0
N2645 N 0.48634 0.07305 0.44633 0.0
H2646 H 0.95055 0.41476 0.49483 0.0
H2647 H 0.90375 0.40649 0.2119 0.0
H2648 H 0.91342 0.39924 0.55175 0.0
H2649 H 0.93252 0.39938 0.17415 0.0
H2650 H 0.9075 0.4067 0.33624 0.0
H2651 H 0.94474 0.41251 0.37446 0.0
C2652 C 0.94118 0.41098 0.48244 0.0
C2653 C 0.93253 0.40745 0.53437 0.0
C2654 C 0.91284 0.40496 0.30029 0.0
C2655 C 0.92587 0.40495 0.39608 0.0
C2656 C 0.91073 0.40485 0.22962 0.0
C2657 C 0.91791 0.40304 0.18255 0.0
C2658 C 0.92233 0.40352 0.32323 0.0
C2659 C 0.92681 0.40091 0.2083 0.0
C2660 C 0.9379 0.40969 0.41361 0.0
C2661 C 0.92052 0.40258 0.51447 0.0
N2662 N 0.92889 0.4014 0.27676 0.0
N2663 N 0.91754 0.40156 0.44671 0.0
H2664 H 0.59756 0.5341 0.15587 0.0
H2665 H 0.59456 0.51212 0.53693 0.0
H2666 H 0.58937 0.49786 0.19346 0.0
H2667 H 0.57973 0.53409 0.47418 0.0
H2668 H 0.59727 0.50895 0.41653 0.0
H2669 H 0.59665 0.53689 0.279 0.0
C2670 C 0.59574 0.52676 0.18998 0.0
C2671 C 0.59336 0.51565 0.16415 0.0
C2672 C 0.59334 0.51437 0.42972 0.0
C2673 C 0.59237 0.51888 0.30522 0.0
C2674 C 0.59159 0.51608 0.49878 0.0
C2675 C 0.58654 0.52314 0.51685 0.0
C2676 C 0.59042 0.5201 0.37864 0.0
C2677 C 0.5836 0.52853 0.46344 0.0
C2678 C 0.59516 0.52837 0.2602 0.0
C2679 C 0.59114 0.50652 0.2112 0.0
N2680 N 0.58565 0.52696 0.39698 0.0
N2681 N 0.59065 0.50832 0.27984 0.0
H2682 H 0.72745 0.79423 0.18129 0.0
H2683 H 0.74509 0.81701 0.79934 0.0
H2684 H 0.75425 0.83093 0.14253 0.0
H2685 H 0.70884 0.79264 0.86252 0.0
H2686 H 0.75108 0.82044 0.92016 0.0
H2687 H 0.72354 0.79127 0.05839 0.0
C2688 C 0.73265 0.80164 0.14695 0.0
C2689 C 0.74108 0.81292 0.17242 0.0
C2690 C 0.74181 0.81446 0.90714 0.0
C2691 C 0.73662 0.8095 0.0316 0.0
C2692 C 0.73831 0.81264 0.8382 0.0
C2693 C 0.72631 0.80486 0.8205 0.0
C2694 C 0.73335 0.80813 0.95827 0.0
C2695 C 0.71815 0.79882 0.87362 0.0
C2696 C 0.73034 0.79994 0.07686 0.0
C2697 C 0.74759 0.82213 0.1251 0.0
N2698 N 0.72182 0.80054 0.94003 0.0
N2699 N 0.74519 0.82024 0.05662 0.0
H2700 H 0.17852 0.92803 0.77486 0.0
H2701 H 0.20033 0.93232 0.15877 0.0
H2702 H 0.20384 0.91739 0.83811 0.0
H2703 H 0.16352 0.92158 0.11635 0.0
H2704 H 0.20385 0.93215 0.03609 0.0
H2705 H 0.17464 0.93005 0.89582 0.0
C2706 C 0.18303 0.9258 0.81385 0.0
C2707 C 0.19117 0.92203 0.79621 0.0
C2708 C 0.19503 0.92992 0.05371 0.0
C2709 C 0.18736 0.92518 0.93399 0.0
C2710 C 0.19299 0.93007 0.1237 0.0
C2711 C 0.18153 0.92676 0.14803 0.0
C2712 C 0.18561 0.92662 0.00741 0.0
C2713 C 0.17245 0.92406 0.0998 0.0
C2714 C 0.18094 0.92716 0.8828 0.0
C2715 C 0.19738 0.92015 0.84927 0.0
N2716 N 0.17467 0.92399 0.03141 0.0
N2717 N 0.19537 0.92177 0.91575 0.0
H2718 H 0.07207 0.23855 0.12067 0.0
H2719 H 0.08114 0.2856 0.83723 0.0
H2720 H 0.0656 0.26777 0.15793 0.0
H2721 H 0.0651 0.24842 0.78056 0.0
H2722 H 0.07887 0.27981 0.95769 0.0
H2723 H 0.07238 0.24232 0.99628 0.0
C2724 C 0.07059 0.24564 0.10283 0.0
C2725 C 0.06893 0.25293 0.14978 0.0
C2726 C 0.07594 0.27295 0.91859 0.0
C2727 C 0.06954 0.25737 0.00907 0.0
C2728 C 0.07724 0.27623 0.84974 0.0
C2729 C 0.07357 0.26755 0.79792 0.0
C2730 C 0.07103 0.2609 0.9362 0.0
C2731 C 0.06855 0.25552 0.81787 0.0
C2732 C 0.07077 0.24776 0.03214 0.0
C2733 C 0.06701 0.26197 0.12388 0.0
N2734 N 0.06751 0.25254 0.88563 0.0
N2735 N 0.06755 0.26404 0.05541 0.0
H2736 H 0.20841 0.27056 0.81568 0.0
H2737 H 0.16184 0.25668 0.1183 0.0
H2738 H 0.17285 0.26447 0.78196 0.0
H2739 H 0.19519 0.25711 0.14505 0.0
H2740 H 0.16508 0.25824 0.99409 0.0
H2741 H 0.20335 0.26481 0.936 0.0
C2742 C 0.1995 0.26793 0.83364 0.0
C2743 C 0.191 0.26788 0.78887 0.0
C2744 C 0.17162 0.25785 0.02708 0.0
C2745 C 0.18514 0.26137 0.92637 0.0
C2746 C 0.16977 0.25695 0.09802 0.0
C2747 C 0.17834 0.25693 0.14217 0.0
C2748 C 0.18215 0.25885 0.00023 0.0
C2749 C 0.18839 0.25721 0.113 0.0
C2750 C 0.19659 0.26459 0.90217 0.0
C2751 C 0.17959 0.2644 0.81452 0.0
N2752 N 0.19009 0.25831 0.0439 0.0
N2753 N 0.17701 0.26136 0.88181 0.0
H2754 H 0.73195 0.90706 0.76954 0.0
H2755 H 0.74073 0.93799 0.13746 0.0
H2756 H 0.72611 0.93655 0.80896 0.0
H2757 H 0.73826 0.90375 0.10772 0.0
H2758 H 0.73922 0.93965 0.01322 0.0
H2759 H 0.73783 0.90767 0.88973 0.0
C2760 C 0.7321 0.91379 0.80324 0.0
C2761 C 0.72867 0.92185 0.77933 0.0
C2762 C 0.73911 0.93182 0.03389 0.0
C2763 C 0.73519 0.92249 0.91676 0.0
C2764 C 0.74003 0.93089 0.10478 0.0
C2765 C 0.73944 0.92063 0.13306 0.0
C2766 C 0.73765 0.92246 0.991 0.0
C2767 C 0.73861 0.91175 0.08817 0.0
C2768 C 0.73537 0.91408 0.87189 0.0
C2769 C 0.72868 0.93017 0.82557 0.0
N2770 N 0.73764 0.91283 0.01932 0.0
N2771 N 0.7319 0.93028 0.89214 0.0
H2772 H 0.05866 0.78739 0.80738 0.0
H2773 H 0.08638 0.83584 0.10592 0.0
H2774 H 0.08393 0.82453 0.7699 0.0
H2775 H 0.05748 0.79979 0.1366 0.0
H2776 H 0.08463 0.83242 0.98178 0.0
H2777 H 0.0573 0.79213 0.92737 0.0
C2778 C 0.06384 0.79657 0.82439 0.0
C2779 C 0.07134 0.8056 0.77863 0.0
C2780 C 0.07858 0.8253 0.01566 0.0
C2781 C 0.06995 0.8111 0.916 0.0
C2782 C 0.07956 0.82726 0.08657 0.0
C2783 C 0.07218 0.81803 0.1318 0.0
C2784 C 0.07021 0.81402 0.98991 0.0
C2785 C 0.06346 0.80712 0.10375 0.0
C2786 C 0.06303 0.79929 0.8928 0.0
C2787 C 0.07786 0.81734 0.80316 0.0
N2788 N 0.06282 0.80538 0.03469 0.0
N2789 N 0.0771 0.81975 0.87043 0.0
H2790 H 0.92165 0.49608 0.20978 0.0
H2791 H 0.93625 0.54272 0.51317 0.0
H2792 H 0.92266 0.52972 0.18365 0.0
H2793 H 0.93001 0.50707 0.54585 0.0
H2794 H 0.93041 0.53773 0.39292 0.0
H2795 H 0.92335 0.49931 0.33398 0.0
C2796 C 0.92208 0.50407 0.2302 0.0
C2797 C 0.92217 0.51272 0.18621 0.0
C2798 C 0.93017 0.53094 0.42651 0.0
C2799 C 0.92426 0.51652 0.32818 0.0
C2800 C 0.93357 0.53381 0.495 0.0
C2801 C 0.9335 0.52525 0.53949 0.0
C2802 C 0.92687 0.51949 0.40203 0.0
C2803 C 0.92995 0.51385 0.51355 0.0
C2804 C 0.92307 0.50592 0.30114 0.0
C2805 C 0.92265 0.52286 0.21557 0.0
N2806 N 0.92685 0.51131 0.4463 0.0
N2807 N 0.92383 0.52455 0.28467 0.0
H2808 H 0.48881 0.42271 0.55325 0.0
H2809 H 0.46672 0.39156 0.18579 0.0
H2810 H 0.45354 0.39308 0.51427 0.0
H2811 H 0.49833 0.42596 0.21497 0.0
H2812 H 0.46358 0.38996 0.31005 0.0
H2813 H 0.49406 0.4221 0.43302 0.0
C2814 C 0.48224 0.41595 0.51963 0.0
C2815 C 0.47077 0.40785 0.54366 0.0
C2816 C 0.47126 0.39781 0.28926 0.0
C2817 C 0.47663 0.40721 0.40622 0.0
C2818 C 0.4731 0.39871 0.21836 0.0
C2819 C 0.48272 0.409 0.18991 0.0
C2820 C 0.47912 0.40723 0.33198 0.0
C2821 C 0.49072 0.41793 0.23466 0.0
C2822 C 0.48521 0.41566 0.45096 0.0
C2823 C 0.46248 0.3995 0.49754 0.0
N2824 N 0.48869 0.41689 0.30352 0.0
N2825 N 0.46557 0.39938 0.43096 0.0
H2826 H 0.61161 0.0914 0.20328 0.0
H2827 H 0.57258 0.06063 0.53742 0.0
H2828 H 0.57508 0.06282 0.19084 0.0
H2829 H 0.60929 0.06924 0.52415 0.0
H2830 H 0.5735 0.06666 0.41656 0.0
H2831 H 0.61095 0.08855 0.32901 0.0
C2832 C 0.60341 0.0847 0.22726 0.0
C2833 C 0.5934 0.07729 0.1872 0.0
C2834 C 0.58137 0.06734 0.44056 0.0
C2835 C 0.59254 0.07415 0.32942 0.0
C2836 C 0.58086 0.06395 0.5092 0.0
C2837 C 0.59087 0.06444 0.54015 0.0
C2838 C 0.59203 0.07147 0.40349 0.0
C2839 C 0.60138 0.06869 0.50158 0.0
C2840 C 0.60307 0.08304 0.29851 0.0
C2841 C 0.58301 0.06864 0.22022 0.0
N2842 N 0.60172 0.07211 0.43511 0.0
N2843 N 0.58282 0.06734 0.28954 0.0
loop_
_geom_bond_atom_site_label_1
_geom_bond_atom_site_label_2
_geom_bond_distance
_geom_bond_site_symmetry_2
_ccdc_geom_bond_type
Co0 O3 1.970 . S
Co0 N17 1.989 . S
Co0 O25 1.967 . S
Co0 O32 1.920 . S
Co1 O4 1.966 . S
Co1 N10 2.022 . S
Co1 N18 1.993 . S
Co1 O26 1.941 . S
C2 O3 1.258 . S
C2 O4 1.263 . S
O3 Co0 1.970 . S
O3 C2 1.258 . S
O4 Co1 1.966 . S
O4 C2 1.263 . S
C5 O6 1.235 . S
C5 O32 1.289 . S
O6 C5 1.235 . S
C7 C9 1.400 1_554 S
C7 N10 1.351 . S
C7 C12 1.501 . S
C8 C9 1.387 . S
C8 N11 1.341 1_556 S
C9 C7 1.400 1_556 S
C9 C8 1.387 . S
N10 Co1 2.022 . S
N10 C7 1.351 . S
N10 N11 1.365 . S
N11 C8 1.341 1_554 S
N11 N10 1.365 . S
N11 H31 0.862 . S
C12 C7 1.501 . S
C12 H13 0.961 . S
C12 H14 0.961 . S
C12 H15 0.960 1_554 S
H13 C12 0.961 . S
H14 C12 0.961 . S
H15 C12 0.960 1_556 S
C16 N17 1.342 . S
C16 C20 1.401 . S
C16 C21 1.499 . S
N17 Co0 1.989 . S
N17 C16 1.342 . S
N17 N18 1.388 . S
N18 Co1 1.993 . S
N18 N17 1.388 . S
N18 C19 1.346 . S
C19 N18 1.346 . S
C19 C20 1.396 . S
C19 C29 1.510 . S
C20 C16 1.401 . S
C20 C19 1.396 . S
C21 C16 1.499 . S
C21 H22 0.959 . S
C21 H23 0.960 . S
C21 H24 0.961 . S
H22 C21 0.959 . S
H23 C21 0.960 . S
H24 C21 0.961 . S
O25 Co0 1.967 . S
O25 C33 1.258 . S
O26 Co1 1.941 . S
O26 C33 1.266 . S
H27 C29 0.959 . S
H28 C29 0.961 . S
C29 C19 1.510 . S
C29 H27 0.959 . S
C29 H28 0.961 . S
C29 H30 0.960 . S
H30 C29 0.960 . S
H31 N11 0.862 . S
O32 Co0 1.920 . S
O32 C5 1.289 . S
C33 O25 1.258 . S
C33 O26 1.266 . S
Co34 O37 1.970 . S
Co34 N51 1.989 . S
Co34 O59 1.967 . S
Co34 O66 1.920 . S
Co35 O38 1.966 . S
Co35 N44 2.022 . S
Co35 N52 1.993 . S
Co35 O60 1.941 . S
C36 O37 1.258 . S
C36 O38 1.263 . S
O37 Co34 1.970 . S
O37 C36 1.258 . S
O38 Co35 1.966 . S
O38 C36 1.263 . S
C39 O40 1.235 . S
C39 O66 1.289 . S
O40 C39 1.235 . S
C41 C43 1.400 1_554 S
C41 N44 1.351 . S
C41 C46 1.501 . S
C42 C43 1.387 . S
C42 N45 1.341 1_556 S
C43 C41 1.400 1_556 S
C43 C42 1.387 . S
N44 Co35 2.022 . S
N44 C41 1.351 . S
N44 N45 1.365 . S
N45 C42 1.341 1_554 S
N45 N44 1.365 . S
N45 H65 0.862 . S
C46 C41 1.501 . S
C46 H47 0.961 . S
C46 H48 0.961 . S
C46 H49 0.960 1_554 S
H47 C46 0.961 . S
H48 C46 0.961 . S
H49 C46 0.960 1_556 S
C50 N51 1.342 . S
C50 C54 1.401 . S
C50 C55 1.499 . S
N51 Co34 1.989 . S
N51 C50 1.342 . S
N51 N52 1.388 . S
N52 Co35 1.993 . S
N52 N51 1.388 . S
N52 C53 1.346 . S
C53 N52 1.346 . S
C53 C54 1.396 . S
C53 C63 1.510 . S
C54 C50 1.401 . S
C54 C53 1.396 . S
C55 C50 1.499 . S
C55 H56 0.959 . S
C55 H57 0.960 . S
C55 H58 0.961 . S
H56 C55 0.959 . S
H57 C55 0.960 . S
H58 C55 0.961 . S
O59 Co34 1.967 . S
O59 C67 1.258 . S
O60 Co35 1.941 . S
O60 C67 1.266 . S
H61 C63 0.959 . S
H62 C63 0.961 . S
C63 C53 1.510 . S
C63 H61 0.959 . S
C63 H62 0.961 . S
C63 H64 0.960 . S
H64 C63 0.960 . S
H65 N45 0.862 . S
O66 Co34 1.920 . S
O66 C39 1.289 . S
C67 O59 1.258 . S
C67 O60 1.266 . S
Co68 O71 1.970 . S
Co68 N85 1.989 . S
Co68 O93 1.967 . S
Co68 O100 1.920 . S
Co69 O72 1.966 . S
Co69 N78 2.022 . S
Co69 N86 1.993 . S
Co69 O94 1.941 . S
C70 O71 1.258 . S
C70 O72 1.263 . S
O71 Co68 1.970 . S
O71 C70 1.258 . S
O72 Co69 1.966 . S
O72 C70 1.263 . S
C73 O74 1.235 . S
C73 O100 1.289 . S
O74 C73 1.235 . S
C75 C77 1.400 1_554 S
C75 N78 1.351 . S
C75 C80 1.501 . S
C76 C77 1.387 . S
C76 N79 1.341 1_556 S
C77 C75 1.400 1_556 S
C77 C76 1.387 . S
N78 Co69 2.022 . S
N78 C75 1.351 . S
N78 N79 1.365 . S
N79 C76 1.341 1_554 S
N79 N78 1.365 . S
N79 H99 0.862 . S
C80 C75 1.501 . S
C80 H81 0.961 . S
C80 H82 0.961 . S
C80 H83 0.960 1_554 S
H81 C80 0.961 . S
H82 C80 0.961 . S
H83 C80 0.960 1_556 S
C84 N85 1.342 . S
C84 C88 1.401 . S
C84 C89 1.499 . S
N85 Co68 1.989 . S
N85 C84 1.342 . S
N85 N86 1.388 . S
N86 Co69 1.993 . S
N86 N85 1.388 . S
N86 C87 1.346 . S
C87 N86 1.346 . S
C87 C88 1.396 . S
C87 C97 1.510 . S
C88 C84 1.401 . S
C88 C87 1.396 . S
C89 C84 1.499 . S
C89 H90 0.959 . S
C89 H91 0.960 . S
C89 H92 0.961 . S
H90 C89 0.959 . S
H91 C89 0.960 . S
H92 C89 0.961 . S
O93 Co68 1.967 . S
O93 C101 1.258 . S
O94 Co69 1.941 . S
O94 C101 1.266 . S
H95 C97 0.959 . S
H96 C97 0.961 . S
C97 C87 1.510 . S
C97 H95 0.959 . S
C97 H96 0.961 . S
C97 H98 0.960 . S
H98 C97 0.960 . S
H99 N79 0.862 . S
O100 Co68 1.920 . S
O100 C73 1.289 . S
C101 O93 1.258 . S
C101 O94 1.266 . S
Co102 O105 1.970 . S
Co102 N119 1.989 . S
Co102 O127 1.967 . S
Co102 O134 1.920 . S
Co103 O106 1.966 . S
Co103 N112 2.022 . S
Co103 N120 1.993 . S
Co103 O128 1.941 . S
C104 O105 1.258 . S
C104 O106 1.263 . S
O105 Co102 1.970 . S
O105 C104 1.258 . S
O106 Co103 1.966 . S
O106 C104 1.263 . S
C107 O108 1.235 . S
C107 O134 1.289 . S
O108 C107 1.235 . S
C109 C111 1.400 1_556 S
C109 N112 1.351 . S
C109 C114 1.501 . S
C110 C111 1.387 . S
C110 N113 1.341 1_554 S
C111 C109 1.400 1_554 S
C111 C110 1.387 . S
N112 Co103 2.022 . S
N112 C109 1.351 . S
N112 N113 1.365 . S
N113 C110 1.341 1_556 S
N113 N112 1.365 . S
N113 H133 0.862 . S
C114 C109 1.501 . S
C114 H115 0.961 . S
C114 H116 0.961 . S
C114 H117 0.960 1_556 S
H115 C114 0.961 . S
H116 C114 0.961 . S
H117 C114 0.960 1_554 S
C118 N119 1.342 . S
C118 C122 1.401 . S
C118 C123 1.499 . S
N119 Co102 1.989 . S
N119 C118 1.342 . S
N119 N120 1.388 . S
N120 Co103 1.993 . S
N120 N119 1.388 . S
N120 C121 1.346 . S
C121 N120 1.346 . S
C121 C122 1.396 . S
C121 C131 1.510 . S
C122 C118 1.401 . S
C122 C121 1.396 . S
C123 C118 1.499 . S
C123 H124 0.959 . S
C123 H125 0.960 . S
C123 H126 0.961 . S
H124 C123 0.959 . S
H125 C123 0.960 . S
H126 C123 0.961 . S
O127 Co102 1.967 . S
O127 C135 1.258 . S
O128 Co103 1.941 . S
O128 C135 1.266 . S
H129 C131 0.959 . S
H130 C131 0.961 . S
C131 C121 1.510 . S
C131 H129 0.959 . S
C131 H130 0.961 . S
C131 H132 0.960 . S
H132 C131 0.960 . S
H133 N113 0.862 . S
O134 Co102 1.920 . S
O134 C107 1.289 . S
C135 O127 1.258 . S
C135 O128 1.266 . S
Co136 O139 1.970 . S
Co136 N153 1.989 . S
Co136 O161 1.967 . S
Co136 O168 1.920 . S
Co137 O140 1.966 . S
Co137 N146 2.022 . S
Co137 N154 1.993 . S
Co137 O162 1.941 . S
C138 O139 1.258 . S
C138 O140 1.263 . S
O139 Co136 1.970 . S
O139 C138 1.258 . S
O140 Co137 1.966 . S
O140 C138 1.263 . S
C141 O142 1.235 . S
C141 O168 1.289 . S
O142 C141 1.235 . S
C143 C145 1.400 1_556 S
C143 N146 1.351 . S
C143 C148 1.501 . S
C144 C145 1.387 . S
C144 N147 1.341 1_554 S
C145 C143 1.400 1_554 S
C145 C144 1.387 . S
N146 Co137 2.022 . S
N146 C143 1.351 . S
N146 N147 1.365 . S
N147 C144 1.341 1_556 S
N147 N146 1.365 . S
N147 H167 0.862 . S
C148 C143 1.501 . S
C148 H149 0.961 . S
C148 H150 0.961 . S
C148 H151 0.960 1_556 S
H149 C148 0.961 . S
H150 C148 0.961 . S
H151 C148 0.960 1_554 S
C152 N153 1.342 . S
C152 C156 1.401 . S
C152 C157 1.499 . S
N153 Co136 1.989 . S
N153 C152 1.342 . S
N153 N154 1.388 . S
N154 Co137 1.993 . S
N154 N153 1.388 . S
N154 C155 1.346 . S
C155 N154 1.346 . S
C155 C156 1.396 . S
C155 C165 1.510 . S
C156 C152 1.401 . S
C156 C155 1.396 . S
C157 C152 1.499 . S
C157 H158 0.959 . S
C157 H159 0.960 . S
C157 H160 0.961 . S
H158 C157 0.959 . S
H159 C157 0.960 . S
H160 C157 0.961 . S
O161 Co136 1.967 . S
O161 C169 1.258 . S
O162 Co137 1.941 . S
O162 C169 1.266 . S
H163 C165 0.959 . S
H164 C165 0.961 . S
C165 C155 1.510 . S
C165 H163 0.959 . S
C165 H164 0.961 . S
C165 H166 0.960 . S
H166 C165 0.960 . S
H167 N147 0.862 . S
O168 Co136 1.920 . S
O168 C141 1.289 . S
C169 O161 1.258 . S
C169 O162 1.266 . S
Co170 O173 1.970 . S
Co170 N187 1.989 . S
Co170 O195 1.967 . S
Co170 O202 1.920 . S
Co171 O174 1.966 . S
Co171 N180 2.022 . S
Co171 N188 1.993 . S
Co171 O196 1.941 . S
C172 O173 1.258 . S
C172 O174 1.263 . S
O173 Co170 1.970 . S
O173 C172 1.258 . S
O174 Co171 1.966 . S
O174 C172 1.263 . S
C175 O176 1.235 . S
C175 O202 1.289 . S
O176 C175 1.235 . S
C177 C179 1.400 1_556 S
C177 N180 1.351 . S
C177 C182 1.501 . S
C178 C179 1.387 . S
C178 N181 1.341 1_554 S
C179 C177 1.400 1_554 S
C179 C178 1.387 . S
N180 Co171 2.022 . S
N180 C177 1.351 . S
N180 N181 1.365 . S
N181 C178 1.341 1_556 S
N181 N180 1.365 . S
N181 H201 0.862 . S
C182 C177 1.501 . S
C182 H183 0.961 . S
C182 H184 0.961 . S
C182 H185 0.960 1_556 S
H183 C182 0.961 . S
H184 C182 0.961 . S
H185 C182 0.960 1_554 S
C186 N187 1.342 . S
C186 C190 1.401 . S
C186 C191 1.499 . S
N187 Co170 1.989 . S
N187 C186 1.342 . S
N187 N188 1.388 . S
N188 Co171 1.993 . S
N188 N187 1.388 . S
N188 C189 1.346 . S
C189 N188 1.346 . S
C189 C190 1.396 . S
C189 C199 1.510 . S
C190 C186 1.401 . S
C190 C189 1.396 . S
C191 C186 1.499 . S
C191 H192 0.959 . S
C191 H193 0.960 . S
C191 H194 0.961 . S
H192 C191 0.959 . S
H193 C191 0.960 . S
H194 C191 0.961 . S
O195 Co170 1.967 . S
O195 C203 1.258 . S
O196 Co171 1.941 . S
O196 C203 1.266 . S
H197 C199 0.959 . S
H198 C199 0.961 . S
C199 C189 1.510 . S
C199 H197 0.959 . S
C199 H198 0.961 . S
C199 H200 0.960 . S
H200 C199 0.960 . S
H201 N181 0.862 . S
O202 Co170 1.920 . S
O202 C175 1.289 . S
C203 O195 1.258 . S
C203 O196 1.266 . S
Co204 O207 1.970 . S
Co204 N221 1.989 . S
Co204 O229 1.967 . S
Co204 O236 1.920 . S
Co205 O208 1.966 . S
Co205 N214 2.022 . S
Co205 N222 1.993 . S
Co205 O230 1.941 . S
C206 O207 1.258 . S
C206 O208 1.263 . S
O207 Co204 1.970 . S
O207 C206 1.258 . S
O208 Co205 1.966 . S
O208 C206 1.263 . S
C209 O210 1.235 . S
C209 O236 1.289 . S
O210 C209 1.235 . S
C211 C213 1.400 1_556 S
C211 N214 1.351 . S
C211 C216 1.501 . S
C212 C213 1.387 . S
C212 N215 1.341 1_554 S
C213 C211 1.400 1_554 S
C213 C212 1.387 . S
N214 Co205 2.022 . S
N214 C211 1.351 . S
N214 N215 1.365 . S
N215 C212 1.341 1_556 S
N215 N214 1.365 . S
N215 H235 0.862 . S
C216 C211 1.501 . S
C216 H217 0.961 . S
C216 H218 0.961 . S
C216 H219 0.960 1_556 S
H217 C216 0.961 . S
H218 C216 0.961 . S
H219 C216 0.960 1_554 S
C220 N221 1.342 . S
C220 C224 1.401 . S
C220 C225 1.499 . S
N221 Co204 1.989 . S
N221 C220 1.342 . S
N221 N222 1.388 . S
N222 Co205 1.993 . S
N222 N221 1.388 . S
N222 C223 1.346 . S
C223 N222 1.346 . S
C223 C224 1.396 . S
C223 C233 1.510 . S
C224 C220 1.401 . S
C224 C223 1.396 . S
C225 C220 1.499 . S
C225 H226 0.959 . S
C225 H227 0.960 . S
C225 H228 0.961 . S
H226 C225 0.959 . S
H227 C225 0.960 . S
H228 C225 0.961 . S
O229 Co204 1.967 . S
O229 C237 1.258 . S
O230 Co205 1.941 . S
O230 C237 1.266 . S
H231 C233 0.959 . S
H232 C233 0.961 . S
C233 C223 1.510 . S
C233 H231 0.959 . S
C233 H232 0.961 . S
C233 H234 0.960 . S
H234 C233 0.960 . S
H235 N215 0.862 . S
O236 Co204 1.920 . S
O236 C209 1.289 . S
C237 O229 1.258 . S
C237 O230 1.266 . S
Co238 O241 1.970 . S
Co238 N255 1.989 . S
Co238 O263 1.967 . S
Co238 O270 1.920 . S
Co239 O242 1.966 . S
Co239 N248 2.022 . S
Co239 N256 1.993 . S
Co239 O264 1.941 . S
C240 O241 1.258 . S
C240 O242 1.263 . S
O241 Co238 1.970 . S
O241 C240 1.258 . S
O242 Co239 1.966 . S
O242 C240 1.263 . S
C243 O244 1.235 . S
C243 O270 1.289 . S
O244 C243 1.235 . S
C245 C247 1.400 1_556 S
C245 N248 1.351 . S
C245 C250 1.501 . S
C246 C247 1.387 . S
C246 N249 1.341 1_554 S
C247 C245 1.400 1_554 S
C247 C246 1.387 . S
N248 Co239 2.022 . S
N248 C245 1.351 . S
N248 N249 1.365 . S
N249 C246 1.341 1_556 S
N249 N248 1.365 . S
N249 H269 0.862 . S
C250 C245 1.501 . S
C250 H251 0.961 . S
C250 H252 0.961 . S
C250 H253 0.960 1_556 S
H251 C250 0.961 . S
H252 C250 0.961 . S
H253 C250 0.960 1_554 S
C254 N255 1.342 . S
C254 C258 1.401 . S
C254 C259 1.499 . S
N255 Co238 1.989 . S
N255 C254 1.342 . S
N255 N256 1.388 . S
N256 Co239 1.993 . S
N256 N255 1.388 . S
N256 C257 1.346 . S
C257 N256 1.346 . S
C257 C258 1.396 . S
C257 C267 1.510 . S
C258 C254 1.401 . S
C258 C257 1.396 . S
C259 C254 1.499 . S
C259 H260 0.959 . S
C259 H261 0.960 . S
C259 H262 0.961 . S
H260 C259 0.959 . S
H261 C259 0.960 . S
H262 C259 0.961 . S
O263 Co238 1.967 . S
O263 C271 1.258 . S
O264 Co239 1.941 . S
O264 C271 1.266 . S
H265 C267 0.959 . S
H266 C267 0.961 . S
C267 C257 1.510 . S
C267 H265 0.959 . S
C267 H266 0.961 . S
C267 H268 0.960 . S
H268 C267 0.960 . S
H269 N249 0.862 . S
O270 Co238 1.920 . S
O270 C243 1.289 . S
C271 O263 1.258 . S
C271 O264 1.266 . S
Co272 O275 1.970 . S
Co272 N289 1.989 . S
Co272 O297 1.967 . S
Co272 O304 1.920 . S
Co273 O276 1.966 . S
Co273 N282 2.022 . S
Co273 N290 1.993 . S
Co273 O298 1.941 . S
C274 O275 1.258 . S
C274 O276 1.263 . S
O275 Co272 1.970 . S
O275 C274 1.258 . S
O276 Co273 1.966 . S
O276 C274 1.263 . S
C277 O278 1.235 . S
C277 O304 1.289 . S
O278 C277 1.235 . S
C279 C281 1.400 1_556 S
C279 N282 1.351 . S
C279 C284 1.501 . S
C280 C281 1.387 . S
C280 N283 1.341 1_554 S
C281 C279 1.400 1_554 S
C281 C280 1.387 . S
N282 Co273 2.022 . S
N282 C279 1.351 . S
N282 N283 1.365 . S
N283 C280 1.341 1_556 S
N283 N282 1.365 . S
N283 H303 0.862 . S
C284 C279 1.501 . S
C284 H285 0.961 . S
C284 H286 0.961 . S
C284 H287 0.960 1_556 S
H285 C284 0.961 . S
H286 C284 0.961 . S
H287 C284 0.960 1_554 S
C288 N289 1.342 . S
C288 C292 1.401 . S
C288 C293 1.499 . S
N289 Co272 1.989 . S
N289 C288 1.342 . S
N289 N290 1.388 . S
N290 Co273 1.993 . S
N290 N289 1.388 . S
N290 C291 1.346 . S
C291 N290 1.346 . S
C291 C292 1.396 . S
C291 C301 1.510 . S
C292 C288 1.401 . S
C292 C291 1.396 . S
C293 C288 1.499 . S
C293 H294 0.959 . S
C293 H295 0.960 . S
C293 H296 0.961 . S
H294 C293 0.959 . S
H295 C293 0.960 . S
H296 C293 0.961 . S
O297 Co272 1.967 . S
O297 C305 1.258 . S
O298 Co273 1.941 . S
O298 C305 1.266 . S
H299 C301 0.959 . S
H300 C301 0.961 . S
C301 C291 1.510 . S
C301 H299 0.959 . S
C301 H300 0.961 . S
C301 H302 0.960 . S
H302 C301 0.960 . S
H303 N283 0.862 . S
O304 Co272 1.920 . S
O304 C277 1.289 . S
C305 O297 1.258 . S
C305 O298 1.266 . S
Co306 O309 1.970 . S
Co306 N323 1.989 . S
Co306 O331 1.967 . S
Co306 O338 1.920 . S
Co307 O310 1.966 . S
Co307 N316 2.022 . S
Co307 N324 1.993 . S
Co307 O332 1.941 . S
C308 O309 1.258 . S
C308 O310 1.263 . S
O309 Co306 1.970 . S
O309 C308 1.258 . S
O310 Co307 1.966 . S
O310 C308 1.263 . S
C311 O312 1.235 . S
C311 O338 1.289 . S
O312 C311 1.235 . S
C313 C315 1.400 1_554 S
C313 N316 1.351 . S
C313 C318 1.501 . S
C314 C315 1.387 . S
C314 N317 1.341 1_556 S
C315 C313 1.400 1_556 S
C315 C314 1.387 . S
N316 Co307 2.022 . S
N316 C313 1.351 . S
N316 N317 1.365 . S
N317 C314 1.341 1_554 S
N317 N316 1.365 . S
N317 H337 0.862 . S
C318 C313 1.501 . S
C318 H319 0.961 . S
C318 H320 0.961 . S
C318 H321 0.960 1_554 S
H319 C318 0.961 . S
H320 C318 0.961 . S
H321 C318 0.960 1_556 S
C322 N323 1.342 . S
C322 C326 1.401 . S
C322 C327 1.499 . S
N323 Co306 1.989 . S
N323 C322 1.342 . S
N323 N324 1.388 . S
N324 Co307 1.993 . S
N324 N323 1.388 . S
N324 C325 1.346 . S
C325 N324 1.346 . S
C325 C326 1.396 . S
C325 C335 1.510 . S
C326 C322 1.401 . S
C326 C325 1.396 . S
C327 C322 1.499 . S
C327 H328 0.959 . S
C327 H329 0.960 . S
C327 H330 0.961 . S
H328 C327 0.959 . S
H329 C327 0.960 . S
H330 C327 0.961 . S
O331 Co306 1.967 . S
O331 C339 1.258 . S
O332 Co307 1.941 . S
O332 C339 1.266 . S
H333 C335 0.959 . S
H334 C335 0.961 . S
C335 C325 1.510 . S
C335 H333 0.959 . S
C335 H334 0.961 . S
C335 H336 0.960 . S
H336 C335 0.960 . S
H337 N317 0.862 . S
O338 Co306 1.920 . S
O338 C311 1.289 . S
C339 O331 1.258 . S
C339 O332 1.266 . S
Co340 O343 1.970 . S
Co340 N357 1.989 . S
Co340 O365 1.967 . S
Co340 O372 1.920 . S
Co341 O344 1.966 . S
Co341 N350 2.022 . S
Co341 N358 1.993 . S
Co341 O366 1.941 . S
C342 O343 1.258 . S
C342 O344 1.263 . S
O343 Co340 1.970 . S
O343 C342 1.258 . S
O344 Co341 1.966 . S
O344 C342 1.263 . S
C345 O346 1.235 . S
C345 O372 1.289 . S
O346 C345 1.235 . S
C347 C349 1.400 1_554 S
C347 N350 1.351 . S
C347 C352 1.501 . S
C348 C349 1.387 . S
C348 N351 1.341 1_556 S
C349 C347 1.400 1_556 S
C349 C348 1.387 . S
N350 Co341 2.022 . S
N350 C347 1.351 . S
N350 N351 1.365 . S
N351 C348 1.341 1_554 S
N351 N350 1.365 . S
N351 H371 0.862 . S
C352 C347 1.501 . S
C352 H353 0.961 . S
C352 H354 0.961 . S
C352 H355 0.960 1_554 S
H353 C352 0.961 . S
H354 C352 0.961 . S
H355 C352 0.960 1_556 S
C356 N357 1.342 . S
C356 C360 1.401 . S
C356 C361 1.499 . S
N357 Co340 1.989 . S
N357 C356 1.342 . S
N357 N358 1.388 . S
N358 Co341 1.993 . S
N358 N357 1.388 . S
N358 C359 1.346 . S
C359 N358 1.346 . S
C359 C360 1.396 . S
C359 C369 1.510 . S
C360 C356 1.401 . S
C360 C359 1.396 . S
C361 C356 1.499 . S
C361 H362 0.959 . S
C361 H363 0.960 . S
C361 H364 0.961 . S
H362 C361 0.959 . S
H363 C361 0.960 . S
H364 C361 0.961 . S
O365 Co340 1.967 . S
O365 C373 1.258 . S
O366 Co341 1.941 . S
O366 C373 1.266 . S
H367 C369 0.959 . S
H368 C369 0.961 . S
C369 C359 1.510 . S
C369 H367 0.959 . S
C369 H368 0.961 . S
C369 H370 0.960 . S
H370 C369 0.960 . S
H371 N351 0.862 . S
O372 Co340 1.920 . S
O372 C345 1.289 . S
C373 O365 1.258 . S
C373 O366 1.266 . S
Co374 O377 1.970 . S
Co374 N391 1.989 . S
Co374 O399 1.967 . S
Co374 O406 1.920 . S
Co375 O378 1.966 . S
Co375 N384 2.022 . S
Co375 N392 1.993 . S
Co375 O400 1.941 . S
C376 O377 1.258 . S
C376 O378 1.263 . S
O377 Co374 1.970 . S
O377 C376 1.258 . S
O378 Co375 1.966 . S
O378 C376 1.263 . S
C379 O380 1.235 . S
C379 O406 1.289 . S
O380 C379 1.235 . S
C381 C383 1.400 1_554 S
C381 N384 1.351 . S
C381 C386 1.501 . S
C382 C383 1.387 . S
C382 N385 1.341 1_556 S
C383 C381 1.400 1_556 S
C383 C382 1.387 . S
N384 Co375 2.022 . S
N384 C381 1.351 . S
N384 N385 1.365 . S
N385 C382 1.341 1_554 S
N385 N384 1.365 . S
N385 H405 0.862 . S
C386 C381 1.501 . S
C386 H387 0.961 . S
C386 H388 0.961 . S
C386 H389 0.960 1_554 S
H387 C386 0.961 . S
H388 C386 0.961 . S
H389 C386 0.960 1_556 S
C390 N391 1.342 . S
C390 C394 1.401 . S
C390 C395 1.499 . S
N391 Co374 1.989 . S
N391 C390 1.342 . S
N391 N392 1.388 . S
N392 Co375 1.993 . S
N392 N391 1.388 . S
N392 C393 1.346 . S
C393 N392 1.346 . S
C393 C394 1.396 . S
C393 C403 1.510 . S
C394 C390 1.401 . S
C394 C393 1.396 . S
C395 C390 1.499 . S
C395 H396 0.959 . S
C395 H397 0.960 . S
C395 H398 0.961 . S
H396 C395 0.959 . S
H397 C395 0.960 . S
H398 C395 0.961 . S
O399 Co374 1.967 . S
O399 C407 1.258 . S
O400 Co375 1.941 . S
O400 C407 1.266 . S
H401 C403 0.959 . S
H402 C403 0.961 . S
C403 C393 1.510 . S
C403 H401 0.959 . S
C403 H402 0.961 . S
C403 H404 0.960 . S
H404 C403 0.960 . S
H405 N385 0.862 . S
O406 Co374 1.920 . S
O406 C379 1.289 . S
C407 O399 1.258 . S
C407 O400 1.266 . S
Co408 O411 1.970 . S
Co408 N425 1.989 . S
Co408 O433 1.967 . S
Co408 O440 1.920 . S
Co409 O412 1.966 . S
Co409 N418 2.022 . S
Co409 N426 1.993 . S
Co409 O434 1.941 . S
C410 O411 1.258 . S
C410 O412 1.263 . S
O411 Co408 1.970 . S
O411 C410 1.258 . S
O412 Co409 1.966 . S
O412 C410 1.263 . S
C413 O414 1.235 . S
C413 O440 1.289 . S
O414 C413 1.235 . S
C415 C417 1.400 . S
C415 N418 1.351 . S
C415 C420 1.501 . S
C416 C417 1.387 . S
C416 N419 1.341 . S
C417 C415 1.400 . S
C417 C416 1.387 . S
N418 Co409 2.022 . S
N418 C415 1.351 . S
N418 N419 1.365 . S
N419 C416 1.341 . S
N419 N418 1.365 . S
N419 H439 0.862 . S
C420 C415 1.501 . S
C420 H421 0.961 . S
C420 H422 0.961 . S
C420 H423 0.960 . S
H421 C420 0.961 . S
H422 C420 0.961 . S
H423 C420 0.960 . S
C424 N425 1.342 . S
C424 C428 1.401 . S
C424 C429 1.499 . S
N425 Co408 1.989 . S
N425 C424 1.342 . S
N425 N426 1.388 . S
N426 Co409 1.993 . S
N426 N425 1.388 . S
N426 C427 1.346 . S
C427 N426 1.346 . S
C427 C428 1.396 . S
C427 C437 1.510 . S
C428 C424 1.401 . S
C428 C427 1.396 . S
C429 C424 1.499 . S
C429 H430 0.959 . S
C429 H431 0.960 . S
C429 H432 0.961 . S
H430 C429 0.959 . S
H431 C429 0.960 . S
H432 C429 0.961 . S
O433 Co408 1.967 . S
O433 C441 1.258 . S
O434 Co409 1.941 . S
O434 C441 1.266 . S
H435 C437 0.959 . S
H436 C437 0.961 . S
C437 C427 1.510 . S
C437 H435 0.959 . S
C437 H436 0.961 . S
C437 H438 0.960 . S
H438 C437 0.960 . S
H439 N419 0.862 . S
O440 Co408 1.920 . S
O440 C413 1.289 . S
C441 O433 1.258 . S
C441 O434 1.266 . S
Co442 O445 1.970 . S
Co442 N459 1.989 . S
Co442 O467 1.967 . S
Co442 O474 1.920 . S
Co443 O446 1.966 . S
Co443 N452 2.022 . S
Co443 N460 1.993 . S
Co443 O468 1.941 . S
C444 O445 1.258 . S
C444 O446 1.263 . S
O445 Co442 1.970 . S
O445 C444 1.258 . S
O446 Co443 1.966 . S
O446 C444 1.263 . S
C447 O448 1.235 . S
C447 O474 1.289 . S
O448 C447 1.235 . S
C449 C451 1.400 . S
C449 N452 1.351 . S
C449 C454 1.501 . S
C450 C451 1.387 . S
C450 N453 1.341 . S
C451 C449 1.400 . S
C451 C450 1.387 . S
N452 Co443 2.022 . S
N452 C449 1.351 . S
N452 N453 1.365 . S
N453 C450 1.341 . S
N453 N452 1.365 . S
N453 H473 0.862 . S
C454 C449 1.501 . S
C454 H455 0.961 . S
C454 H456 0.961 . S
C454 H457 0.960 . S
H455 C454 0.961 . S
H456 C454 0.961 . S
H457 C454 0.960 . S
C458 N459 1.342 . S
C458 C462 1.401 . S
C458 C463 1.499 . S
N459 Co442 1.989 . S
N459 C458 1.342 . S
N459 N460 1.388 . S
N460 Co443 1.993 . S
N460 N459 1.388 . S
N460 C461 1.346 . S
C461 N460 1.346 . S
C461 C462 1.396 . S
C461 C471 1.510 . S
C462 C458 1.401 . S
C462 C461 1.396 . S
C463 C458 1.499 . S
C463 H464 0.959 . S
C463 H465 0.960 . S
C463 H466 0.961 . S
H464 C463 0.959 . S
H465 C463 0.960 . S
H466 C463 0.961 . S
O467 Co442 1.967 . S
O467 C475 1.258 . S
O468 Co443 1.941 . S
O468 C475 1.266 . S
H469 C471 0.959 . S
H470 C471 0.961 . S
C471 C461 1.510 . S
C471 H469 0.959 . S
C471 H470 0.961 . S
C471 H472 0.960 . S
H472 C471 0.960 . S
H473 N453 0.862 . S
O474 Co442 1.920 . S
O474 C447 1.289 . S
C475 O467 1.258 . S
C475 O468 1.266 . S
Co476 O479 1.970 . S
Co476 N493 1.989 . S
Co476 O501 1.967 . S
Co476 O508 1.920 . S
Co477 O480 1.966 . S
Co477 N486 2.022 . S
Co477 N494 1.993 . S
Co477 O502 1.941 . S
C478 O479 1.258 . S
C478 O480 1.263 . S
O479 Co476 1.970 . S
O479 C478 1.258 . S
O480 Co477 1.966 . S
O480 C478 1.263 . S
C481 O482 1.235 . S
C481 O508 1.289 . S
O482 C481 1.235 . S
C483 C485 1.400 . S
C483 N486 1.351 . S
C483 C488 1.501 . S
C484 C485 1.387 . S
C484 N487 1.341 . S
C485 C483 1.400 . S
C485 C484 1.387 . S
N486 Co477 2.022 . S
N486 C483 1.351 . S
N486 N487 1.365 . S
N487 C484 1.341 . S
N487 N486 1.365 . S
N487 H507 0.862 . S
C488 C483 1.501 . S
C488 H489 0.961 . S
C488 H490 0.961 . S
C488 H491 0.960 . S
H489 C488 0.961 . S
H490 C488 0.961 . S
H491 C488 0.960 . S
C492 N493 1.342 . S
C492 C496 1.401 . S
C492 C497 1.499 . S
N493 Co476 1.989 . S
N493 C492 1.342 . S
N493 N494 1.388 . S
N494 Co477 1.993 . S
N494 N493 1.388 . S
N494 C495 1.346 . S
C495 N494 1.346 . S
C495 C496 1.396 . S
C495 C505 1.510 . S
C496 C492 1.401 . S
C496 C495 1.396 . S
C497 C492 1.499 . S
C497 H498 0.959 . S
C497 H499 0.960 . S
C497 H500 0.961 . S
H498 C497 0.959 . S
H499 C497 0.960 . S
H500 C497 0.961 . S
O501 Co476 1.967 . S
O501 C509 1.258 . S
O502 Co477 1.941 . S
O502 C509 1.266 . S
H503 C505 0.959 . S
H504 C505 0.961 . S
C505 C495 1.510 . S
C505 H503 0.959 . S
C505 H504 0.961 . S
C505 H506 0.960 . S
H506 C505 0.960 . S
H507 N487 0.862 . S
O508 Co476 1.920 . S
O508 C481 1.289 . S
C509 O501 1.258 . S
C509 O502 1.266 . S
Co510 O513 1.970 . S
Co510 N527 1.989 . S
Co510 O535 1.967 . S
Co510 O542 1.920 1_554 S
Co511 O514 1.966 . S
Co511 N520 2.022 . S
Co511 N528 1.993 . S
Co511 O536 1.941 . S
C512 O513 1.258 . S
C512 O514 1.263 . S
O513 Co510 1.970 . S
O513 C512 1.258 . S
O514 Co511 1.966 . S
O514 C512 1.263 . S
C515 O516 1.235 . S
C515 O542 1.289 . S
O516 C515 1.235 . S
C517 C519 1.400 . S
C517 N520 1.351 . S
C517 C522 1.501 . S
C518 C519 1.387 . S
C518 N521 1.341 . S
C519 C517 1.400 . S
C519 C518 1.387 . S
N520 Co511 2.022 . S
N520 C517 1.351 . S
N520 N521 1.365 . S
N521 C518 1.341 . S
N521 N520 1.365 . S
N521 H541 0.862 . S
C522 C517 1.501 . S
C522 H523 0.961 . S
C522 H524 0.961 . S
C522 H525 0.960 . S
H523 C522 0.961 . S
H524 C522 0.961 . S
H525 C522 0.960 . S
C526 N527 1.342 . S
C526 C530 1.401 . S
C526 C531 1.499 1_554 S
N527 Co510 1.989 . S
N527 C526 1.342 . S
N527 N528 1.388 . S
N528 Co511 1.993 . S
N528 N527 1.388 . S
N528 C529 1.346 . S
C529 N528 1.346 . S
C529 C530 1.396 . S
C529 C539 1.510 . S
C530 C526 1.401 . S
C530 C529 1.396 . S
C531 C526 1.499 1_556 S
C531 H532 0.959 . S
C531 H533 0.960 . S
C531 H534 0.961 . S
H532 C531 0.959 . S
H533 C531 0.960 . S
H534 C531 0.961 . S
O535 Co510 1.967 . S
O535 C543 1.258 . S
O536 Co511 1.941 . S
O536 C543 1.266 . S
H537 C539 0.959 . S
H538 C539 0.961 . S
C539 C529 1.510 . S
C539 H537 0.959 . S
C539 H538 0.961 . S
C539 H540 0.960 . S
H540 C539 0.960 . S
H541 N521 0.862 . S
O542 Co510 1.920 1_556 S
O542 C515 1.289 . S
C543 O535 1.258 . S
C543 O536 1.266 . S
Co544 O547 1.970 . S
Co544 N561 1.989 . S
Co544 O569 1.967 . S
Co544 O576 1.920 1_554 S
Co545 O548 1.966 . S
Co545 N554 2.022 . S
Co545 N562 1.993 . S
Co545 O570 1.941 . S
C546 O547 1.258 . S
C546 O548 1.263 . S
O547 Co544 1.970 . S
O547 C546 1.258 . S
O548 Co545 1.966 . S
O548 C546 1.263 . S
C549 O550 1.235 . S
C549 O576 1.289 . S
O550 C549 1.235 . S
C551 C553 1.400 . S
C551 N554 1.351 . S
C551 C556 1.501 . S
C552 C553 1.387 . S
C552 N555 1.341 . S
C553 C551 1.400 . S
C553 C552 1.387 . S
N554 Co545 2.022 . S
N554 C551 1.351 . S
N554 N555 1.365 . S
N555 C552 1.341 . S
N555 N554 1.365 . S
N555 H575 0.862 . S
C556 C551 1.501 . S
C556 H557 0.961 . S
C556 H558 0.961 . S
C556 H559 0.960 . S
H557 C556 0.961 . S
H558 C556 0.961 . S
H559 C556 0.960 . S
C560 N561 1.342 . S
C560 C564 1.401 . S
C560 C565 1.499 1_554 S
N561 Co544 1.989 . S
N561 C560 1.342 . S
N561 N562 1.388 . S
N562 Co545 1.993 . S
N562 N561 1.388 . S
N562 C563 1.346 . S
C563 N562 1.346 . S
C563 C564 1.396 . S
C563 C573 1.510 . S
C564 C560 1.401 . S
C564 C563 1.396 . S
C565 C560 1.499 1_556 S
C565 H566 0.959 . S
C565 H567 0.960 . S
C565 H568 0.961 . S
H566 C565 0.959 . S
H567 C565 0.960 . S
H568 C565 0.961 . S
O569 Co544 1.967 . S
O569 C577 1.258 . S
O570 Co545 1.941 . S
O570 C577 1.266 . S
H571 C573 0.959 . S
H572 C573 0.961 . S
C573 C563 1.510 . S
C573 H571 0.959 . S
C573 H572 0.961 . S
C573 H574 0.960 . S
H574 C573 0.960 . S
H575 N555 0.862 . S
O576 Co544 1.920 1_556 S
O576 C549 1.289 . S
C577 O569 1.258 . S
C577 O570 1.266 . S
Co578 O581 1.970 . S
Co578 N595 1.989 . S
Co578 O603 1.967 . S
Co578 O610 1.920 1_554 S
Co579 O582 1.966 . S
Co579 N588 2.022 . S
Co579 N596 1.993 . S
Co579 O604 1.941 . S
C580 O581 1.258 . S
C580 O582 1.263 . S
O581 Co578 1.970 . S
O581 C580 1.258 . S
O582 Co579 1.966 . S
O582 C580 1.263 . S
C583 O584 1.235 . S
C583 O610 1.289 . S
O584 C583 1.235 . S
C585 C587 1.400 . S
C585 N588 1.351 . S
C585 C590 1.501 . S
C586 C587 1.387 . S
C586 N589 1.341 . S
C587 C585 1.400 . S
C587 C586 1.387 . S
N588 Co579 2.022 . S
N588 C585 1.351 . S
N588 N589 1.365 . S
N589 C586 1.341 . S
N589 N588 1.365 . S
N589 H609 0.862 . S
C590 C585 1.501 . S
C590 H591 0.961 . S
C590 H592 0.961 . S
C590 H593 0.960 . S
H591 C590 0.961 . S
H592 C590 0.961 . S
H593 C590 0.960 . S
C594 N595 1.342 . S
C594 C598 1.401 . S
C594 C599 1.499 1_554 S
N595 Co578 1.989 . S
N595 C594 1.342 . S
N595 N596 1.388 . S
N596 Co579 1.993 . S
N596 N595 1.388 . S
N596 C597 1.346 . S
C597 N596 1.346 . S
C597 C598 1.396 . S
C597 C607 1.510 . S
C598 C594 1.401 . S
C598 C597 1.396 . S
C599 C594 1.499 1_556 S
C599 H600 0.959 . S
C599 H601 0.960 . S
C599 H602 0.961 . S
H600 C599 0.959 . S
H601 C599 0.960 . S
H602 C599 0.961 . S
O603 Co578 1.967 . S
O603 C611 1.258 . S
O604 Co579 1.941 . S
O604 C611 1.266 . S
H605 C607 0.959 . S
H606 C607 0.961 . S
C607 C597 1.510 . S
C607 H605 0.959 . S
C607 H606 0.961 . S
C607 H608 0.960 . S
H608 C607 0.960 . S
H609 N589 0.862 . S
O610 Co578 1.920 1_556 S
O610 C583 1.289 . S
C611 O603 1.258 . S
C611 O604 1.266 . S
Co612 O615 1.970 . S
Co612 N629 1.989 . S
Co612 O637 1.967 . S
Co612 O644 1.920 1_554 S
Co613 O616 1.966 . S
Co613 N622 2.022 . S
Co613 N630 1.993 . S
Co613 O638 1.941 . S
C614 O615 1.258 . S
C614 O616 1.263 . S
O615 Co612 1.970 . S
O615 C614 1.258 . S
O616 Co613 1.966 . S
O616 C614 1.263 . S
C617 O618 1.235 . S
C617 O644 1.289 . S
O618 C617 1.235 . S
C619 C621 1.400 . S
C619 N622 1.351 . S
C619 C624 1.501 . S
C620 C621 1.387 . S
C620 N623 1.341 . S
C621 C619 1.400 . S
C621 C620 1.387 . S
N622 Co613 2.022 . S
N622 C619 1.351 . S
N622 N623 1.365 . S
N623 C620 1.341 . S
N623 N622 1.365 . S
N623 H643 0.862 . S
C624 C619 1.501 . S
C624 H625 0.961 . S
C624 H626 0.961 . S
C624 H627 0.960 . S
H625 C624 0.961 . S
H626 C624 0.961 . S
H627 C624 0.960 . S
C628 N629 1.342 . S
C628 C632 1.401 . S
C628 C633 1.499 1_554 S
N629 Co612 1.989 . S
N629 C628 1.342 . S
N629 N630 1.388 . S
N630 Co613 1.993 . S
N630 N629 1.388 . S
N630 C631 1.346 . S
C631 N630 1.346 . S
C631 C632 1.396 . S
C631 C641 1.510 . S
C632 C628 1.401 . S
C632 C631 1.396 . S
C633 C628 1.499 1_556 S
C633 H634 0.959 . S
C633 H635 0.960 . S
C633 H636 0.961 . S
H634 C633 0.959 . S
H635 C633 0.960 . S
H636 C633 0.961 . S
O637 Co612 1.967 . S
O637 C645 1.258 . S
O638 Co613 1.941 . S
O638 C645 1.266 . S
H639 C641 0.959 . S
H640 C641 0.961 . S
C641 C631 1.510 . S
C641 H639 0.959 . S
C641 H640 0.961 . S
C641 H642 0.960 . S
H642 C641 0.960 . S
H643 N623 0.862 . S
O644 Co612 1.920 1_556 S
O644 C617 1.289 . S
C645 O637 1.258 . S
C645 O638 1.266 . S
Co646 O649 1.970 . S
Co646 N663 1.989 . S
Co646 O671 1.967 . S
Co646 O678 1.920 1_554 S
Co647 O650 1.966 . S
Co647 N656 2.022 . S
Co647 N664 1.993 . S
Co647 O672 1.941 . S
C648 O649 1.258 . S
C648 O650 1.263 . S
O649 Co646 1.970 . S
O649 C648 1.258 . S
O650 Co647 1.966 . S
O650 C648 1.263 . S
C651 O652 1.235 . S
C651 O678 1.289 . S
O652 C651 1.235 . S
C653 C655 1.400 . S
C653 N656 1.351 . S
C653 C658 1.501 . S
C654 C655 1.387 . S
C654 N657 1.341 . S
C655 C653 1.400 . S
C655 C654 1.387 . S
N656 Co647 2.022 . S
N656 C653 1.351 . S
N656 N657 1.365 . S
N657 C654 1.341 . S
N657 N656 1.365 . S
N657 H677 0.862 . S
C658 C653 1.501 . S
C658 H659 0.961 . S
C658 H660 0.961 . S
C658 H661 0.960 . S
H659 C658 0.961 . S
H660 C658 0.961 . S
H661 C658 0.960 . S
C662 N663 1.342 . S
C662 C666 1.401 . S
C662 C667 1.499 1_554 S
N663 Co646 1.989 . S
N663 C662 1.342 . S
N663 N664 1.388 . S
N664 Co647 1.993 . S
N664 N663 1.388 . S
N664 C665 1.346 . S
C665 N664 1.346 . S
C665 C666 1.396 . S
C665 C675 1.510 . S
C666 C662 1.401 . S
C666 C665 1.396 . S
C667 C662 1.499 1_556 S
C667 H668 0.959 . S
C667 H669 0.960 . S
C667 H670 0.961 . S
H668 C667 0.959 . S
H669 C667 0.960 . S
H670 C667 0.961 . S
O671 Co646 1.967 . S
O671 C679 1.258 . S
O672 Co647 1.941 . S
O672 C679 1.266 . S
H673 C675 0.959 . S
H674 C675 0.961 . S
C675 C665 1.510 . S
C675 H673 0.959 . S
C675 H674 0.961 . S
C675 H676 0.960 . S
H676 C675 0.960 . S
H677 N657 0.862 . S
O678 Co646 1.920 1_556 S
O678 C651 1.289 . S
C679 O671 1.258 . S
C679 O672 1.266 . S
Co680 O683 1.970 . S
Co680 N697 1.989 . S
Co680 O705 1.967 . S
Co680 O712 1.920 1_554 S
Co681 O684 1.966 . S
Co681 N690 2.022 . S
Co681 N698 1.993 . S
Co681 O706 1.941 . S
C682 O683 1.258 . S
C682 O684 1.263 . S
O683 Co680 1.970 . S
O683 C682 1.258 . S
O684 Co681 1.966 . S
O684 C682 1.263 . S
C685 O686 1.235 . S
C685 O712 1.289 . S
O686 C685 1.235 . S
C687 C689 1.400 . S
C687 N690 1.351 . S
C687 C692 1.501 . S
C688 C689 1.387 . S
C688 N691 1.341 . S
C689 C687 1.400 . S
C689 C688 1.387 . S
N690 Co681 2.022 . S
N690 C687 1.351 . S
N690 N691 1.365 . S
N691 C688 1.341 . S
N691 N690 1.365 . S
N691 H711 0.862 . S
C692 C687 1.501 . S
C692 H693 0.961 . S
C692 H694 0.961 . S
C692 H695 0.960 . S
H693 C692 0.961 . S
H694 C692 0.961 . S
H695 C692 0.960 . S
C696 N697 1.342 . S
C696 C700 1.401 . S
C696 C701 1.499 1_554 S
N697 Co680 1.989 . S
N697 C696 1.342 . S
N697 N698 1.388 . S
N698 Co681 1.993 . S
N698 N697 1.388 . S
N698 C699 1.346 . S
C699 N698 1.346 . S
C699 C700 1.396 . S
C699 C709 1.510 . S
C700 C696 1.401 . S
C700 C699 1.396 . S
C701 C696 1.499 1_556 S
C701 H702 0.959 . S
C701 H703 0.960 . S
C701 H704 0.961 . S
H702 C701 0.959 . S
H703 C701 0.960 . S
H704 C701 0.961 . S
O705 Co680 1.967 . S
O705 C713 1.258 . S
O706 Co681 1.941 . S
O706 C713 1.266 . S
H707 C709 0.959 . S
H708 C709 0.961 . S
C709 C699 1.510 . S
C709 H707 0.959 . S
C709 H708 0.961 . S
C709 H710 0.960 . S
H710 C709 0.960 . S
H711 N691 0.862 . S
O712 Co680 1.920 1_556 S
O712 C685 1.289 . S
C713 O705 1.258 . S
C713 O706 1.266 . S
Co714 O717 1.970 . S
Co714 N731 1.989 . S
Co714 O739 1.967 . S
Co714 O746 1.920 . S
Co715 O718 1.966 . S
Co715 N724 2.022 . S
Co715 N732 1.993 . S
Co715 O740 1.941 . S
C716 O717 1.258 . S
C716 O718 1.263 . S
O717 Co714 1.970 . S
O717 C716 1.258 . S
O718 Co715 1.966 . S
O718 C716 1.263 . S
C719 O720 1.235 . S
C719 O746 1.289 . S
O720 C719 1.235 . S
C721 C723 1.400 . S
C721 N724 1.351 . S
C721 C726 1.501 . S
C722 C723 1.387 . S
C722 N725 1.341 . S
C723 C721 1.400 . S
C723 C722 1.387 . S
N724 Co715 2.022 . S
N724 C721 1.351 . S
N724 N725 1.365 . S
N725 C722 1.341 . S
N725 N724 1.365 . S
N725 H745 0.862 . S
C726 C721 1.501 . S
C726 H727 0.961 . S
C726 H728 0.961 . S
C726 H729 0.960 . S
H727 C726 0.961 . S
H728 C726 0.961 . S
H729 C726 0.960 . S
C730 N731 1.342 . S
C730 C734 1.401 . S
C730 C735 1.499 . S
N731 Co714 1.989 . S
N731 C730 1.342 . S
N731 N732 1.388 . S
N732 Co715 1.993 . S
N732 N731 1.388 . S
N732 C733 1.346 . S
C733 N732 1.346 . S
C733 C734 1.396 . S
C733 C743 1.510 . S
C734 C730 1.401 . S
C734 C733 1.396 . S
C735 C730 1.499 . S
C735 H736 0.959 . S
C735 H737 0.960 . S
C735 H738 0.961 . S
H736 C735 0.959 . S
H737 C735 0.960 . S
H738 C735 0.961 . S
O739 Co714 1.967 . S
O739 C747 1.258 . S
O740 Co715 1.941 . S
O740 C747 1.266 . S
H741 C743 0.959 . S
H742 C743 0.961 . S
C743 C733 1.510 . S
C743 H741 0.959 . S
C743 H742 0.961 . S
C743 H744 0.960 . S
H744 C743 0.960 . S
H745 N725 0.862 . S
O746 Co714 1.920 . S
O746 C719 1.289 . S
C747 O739 1.258 . S
C747 O740 1.266 . S
Co748 O751 1.970 . S
Co748 N765 1.989 . S
Co748 O773 1.967 . S
Co748 O780 1.920 . S
Co749 O752 1.966 . S
Co749 N758 2.022 . S
Co749 N766 1.993 . S
Co749 O774 1.941 . S
C750 O751 1.258 . S
C750 O752 1.263 . S
O751 Co748 1.970 . S
O751 C750 1.258 . S
O752 Co749 1.966 . S
O752 C750 1.263 . S
C753 O754 1.235 . S
C753 O780 1.289 . S
O754 C753 1.235 . S
C755 C757 1.400 . S
C755 N758 1.351 . S
C755 C760 1.501 . S
C756 C757 1.387 . S
C756 N759 1.341 . S
C757 C755 1.400 . S
C757 C756 1.387 . S
N758 Co749 2.022 . S
N758 C755 1.351 . S
N758 N759 1.365 . S
N759 C756 1.341 . S
N759 N758 1.365 . S
N759 H779 0.862 . S
C760 C755 1.501 . S
C760 H761 0.961 . S
C760 H762 0.961 . S
C760 H763 0.960 . S
H761 C760 0.961 . S
H762 C760 0.961 . S
H763 C760 0.960 . S
C764 N765 1.342 . S
C764 C768 1.401 . S
C764 C769 1.499 . S
N765 Co748 1.989 . S
N765 C764 1.342 . S
N765 N766 1.388 . S
N766 Co749 1.993 . S
N766 N765 1.388 . S
N766 C767 1.346 . S
C767 N766 1.346 . S
C767 C768 1.396 . S
C767 C777 1.510 . S
C768 C764 1.401 . S
C768 C767 1.396 . S
C769 C764 1.499 . S
C769 H770 0.959 . S
C769 H771 0.960 . S
C769 H772 0.961 . S
H770 C769 0.959 . S
H771 C769 0.960 . S
H772 C769 0.961 . S
O773 Co748 1.967 . S
O773 C781 1.258 . S
O774 Co749 1.941 . S
O774 C781 1.266 . S
H775 C777 0.959 . S
H776 C777 0.961 . S
C777 C767 1.510 . S
C777 H775 0.959 . S
C777 H776 0.961 . S
C777 H778 0.960 . S
H778 C777 0.960 . S
H779 N759 0.862 . S
O780 Co748 1.920 . S
O780 C753 1.289 . S
C781 O773 1.258 . S
C781 O774 1.266 . S
Co782 O785 1.970 . S
Co782 N799 1.989 . S
Co782 O807 1.967 . S
Co782 O814 1.920 . S
Co783 O786 1.966 . S
Co783 N792 2.022 . S
Co783 N800 1.993 . S
Co783 O808 1.941 . S
C784 O785 1.258 . S
C784 O786 1.263 . S
O785 Co782 1.970 . S
O785 C784 1.258 . S
O786 Co783 1.966 . S
O786 C784 1.263 . S
C787 O788 1.235 . S
C787 O814 1.289 . S
O788 C787 1.235 . S
C789 C791 1.400 . S
C789 N792 1.351 . S
C789 C794 1.501 . S
C790 C791 1.387 . S
C790 N793 1.341 . S
C791 C789 1.400 . S
C791 C790 1.387 . S
N792 Co783 2.022 . S
N792 C789 1.351 . S
N792 N793 1.365 . S
N793 C790 1.341 . S
N793 N792 1.365 . S
N793 H813 0.862 . S
C794 C789 1.501 . S
C794 H795 0.961 . S
C794 H796 0.961 . S
C794 H797 0.960 . S
H795 C794 0.961 . S
H796 C794 0.961 . S
H797 C794 0.960 . S
C798 N799 1.342 . S
C798 C802 1.401 . S
C798 C803 1.499 . S
N799 Co782 1.989 . S
N799 C798 1.342 . S
N799 N800 1.388 . S
N800 Co783 1.993 . S
N800 N799 1.388 . S
N800 C801 1.346 . S
C801 N800 1.346 . S
C801 C802 1.396 . S
C801 C811 1.510 . S
C802 C798 1.401 . S
C802 C801 1.396 . S
C803 C798 1.499 . S
C803 H804 0.959 . S
C803 H805 0.960 . S
C803 H806 0.961 . S
H804 C803 0.959 . S
H805 C803 0.960 . S
H806 C803 0.961 . S
O807 Co782 1.967 . S
O807 C815 1.258 . S
O808 Co783 1.941 . S
O808 C815 1.266 . S
H809 C811 0.959 . S
H810 C811 0.961 . S
C811 C801 1.510 . S
C811 H809 0.959 . S
C811 H810 0.961 . S
C811 H812 0.960 . S
H812 C811 0.960 . S
H813 N793 0.862 . S
O814 Co782 1.920 . S
O814 C787 1.289 . S
C815 O807 1.258 . S
C815 O808 1.266 . S
Co816 O819 1.970 . S
Co816 N833 1.989 . S
Co816 O841 1.967 . S
Co816 O848 1.920 1_556 S
Co817 O820 1.966 . S
Co817 N826 2.022 . S
Co817 N834 1.993 . S
Co817 O842 1.941 . S
C818 O819 1.258 . S
C818 O820 1.263 . S
O819 Co816 1.970 . S
O819 C818 1.258 . S
O820 Co817 1.966 . S
O820 C818 1.263 . S
C821 O822 1.235 . S
C821 O848 1.289 . S
O822 C821 1.235 . S
C823 C825 1.400 . S
C823 N826 1.351 . S
C823 C828 1.501 . S
C824 C825 1.387 . S
C824 N827 1.341 . S
C825 C823 1.400 . S
C825 C824 1.387 . S
N826 Co817 2.022 . S
N826 C823 1.351 . S
N826 N827 1.365 . S
N827 C824 1.341 . S
N827 N826 1.365 . S
N827 H847 0.862 . S
C828 C823 1.501 . S
C828 H829 0.961 . S
C828 H830 0.961 . S
C828 H831 0.960 . S
H829 C828 0.961 . S
H830 C828 0.961 . S
H831 C828 0.960 . S
C832 N833 1.342 . S
C832 C836 1.401 . S
C832 C837 1.499 1_556 S
N833 Co816 1.989 . S
N833 C832 1.342 . S
N833 N834 1.388 . S
N834 Co817 1.993 . S
N834 N833 1.388 . S
N834 C835 1.346 . S
C835 N834 1.346 . S
C835 C836 1.396 . S
C835 C845 1.510 . S
C836 C832 1.401 . S
C836 C835 1.396 . S
C837 C832 1.499 1_554 S
C837 H838 0.959 . S
C837 H839 0.960 . S
C837 H840 0.961 . S
H838 C837 0.959 . S
H839 C837 0.960 . S
H840 C837 0.961 . S
O841 Co816 1.967 . S
O841 C849 1.258 . S
O842 Co817 1.941 . S
O842 C849 1.266 . S
H843 C845 0.959 . S
H844 C845 0.961 . S
C845 C835 1.510 . S
C845 H843 0.959 . S
C845 H844 0.961 . S
C845 H846 0.960 . S
H846 C845 0.960 . S
H847 N827 0.862 . S
O848 Co816 1.920 1_554 S
O848 C821 1.289 . S
C849 O841 1.258 . S
C849 O842 1.266 . S
Co850 O853 1.970 . S
Co850 N867 1.989 . S
Co850 O875 1.967 . S
Co850 O882 1.920 1_556 S
Co851 O854 1.966 . S
Co851 N860 2.022 . S
Co851 N868 1.993 . S
Co851 O876 1.941 . S
C852 O853 1.258 . S
C852 O854 1.263 . S
O853 Co850 1.970 . S
O853 C852 1.258 . S
O854 Co851 1.966 . S
O854 C852 1.263 . S
C855 O856 1.235 . S
C855 O882 1.289 . S
O856 C855 1.235 . S
C857 C859 1.400 . S
C857 N860 1.351 . S
C857 C862 1.501 . S
C858 C859 1.387 . S
C858 N861 1.341 . S
C859 C857 1.400 . S
C859 C858 1.387 . S
N860 Co851 2.022 . S
N860 C857 1.351 . S
N860 N861 1.365 . S
N861 C858 1.341 . S
N861 N860 1.365 . S
N861 H881 0.862 . S
C862 C857 1.501 . S
C862 H863 0.961 . S
C862 H864 0.961 . S
C862 H865 0.960 . S
H863 C862 0.961 . S
H864 C862 0.961 . S
H865 C862 0.960 . S
C866 N867 1.342 . S
C866 C870 1.401 . S
C866 C871 1.499 1_556 S
N867 Co850 1.989 . S
N867 C866 1.342 . S
N867 N868 1.388 . S
N868 Co851 1.993 . S
N868 N867 1.388 . S
N868 C869 1.346 . S
C869 N868 1.346 . S
C869 C870 1.396 . S
C869 C879 1.510 . S
C870 C866 1.401 . S
C870 C869 1.396 . S
C871 C866 1.499 1_554 S
C871 H872 0.959 . S
C871 H873 0.960 . S
C871 H874 0.961 . S
H872 C871 0.959 . S
H873 C871 0.960 . S
H874 C871 0.961 . S
O875 Co850 1.967 . S
O875 C883 1.258 . S
O876 Co851 1.941 . S
O876 C883 1.266 . S
H877 C879 0.959 . S
H878 C879 0.961 . S
C879 C869 1.510 . S
C879 H877 0.959 . S
C879 H878 0.961 . S
C879 H880 0.960 . S
H880 C879 0.960 . S
H881 N861 0.862 . S
O882 Co850 1.920 1_554 S
O882 C855 1.289 . S
C883 O875 1.258 . S
C883 O876 1.266 . S
Co884 O887 1.970 . S
Co884 N901 1.989 . S
Co884 O909 1.967 . S
Co884 O916 1.920 1_556 S
Co885 O888 1.966 . S
Co885 N894 2.022 . S
Co885 N902 1.993 . S
Co885 O910 1.941 . S
C886 O887 1.258 . S
C886 O888 1.263 . S
O887 Co884 1.970 . S
O887 C886 1.258 . S
O888 Co885 1.966 . S
O888 C886 1.263 . S
C889 O890 1.235 . S
C889 O916 1.289 . S
O890 C889 1.235 . S
C891 C893 1.400 . S
C891 N894 1.351 . S
C891 C896 1.501 . S
C892 C893 1.387 . S
C892 N895 1.341 . S
C893 C891 1.400 . S
C893 C892 1.387 . S
N894 Co885 2.022 . S
N894 C891 1.351 . S
N894 N895 1.365 . S
N895 C892 1.341 . S
N895 N894 1.365 . S
N895 H915 0.862 . S
C896 C891 1.501 . S
C896 H897 0.961 . S
C896 H898 0.961 . S
C896 H899 0.960 . S
H897 C896 0.961 . S
H898 C896 0.961 . S
H899 C896 0.960 . S
C900 N901 1.342 . S
C900 C904 1.401 . S
C900 C905 1.499 1_556 S
N901 Co884 1.989 . S
N901 C900 1.342 . S
N901 N902 1.388 . S
N902 Co885 1.993 . S
N902 N901 1.388 . S
N902 C903 1.346 . S
C903 N902 1.346 . S
C903 C904 1.396 . S
C903 C913 1.510 . S
C904 C900 1.401 . S
C904 C903 1.396 . S
C905 C900 1.499 1_554 S
C905 H906 0.959 . S
C905 H907 0.960 . S
C905 H908 0.961 . S
H906 C905 0.959 . S
H907 C905 0.960 . S
H908 C905 0.961 . S
O909 Co884 1.967 . S
O909 C917 1.258 . S
O910 Co885 1.941 . S
O910 C917 1.266 . S
H911 C913 0.959 . S
H912 C913 0.961 . S
C913 C903 1.510 . S
C913 H911 0.959 . S
C913 H912 0.961 . S
C913 H914 0.960 . S
H914 C913 0.960 . S
H915 N895 0.862 . S
O916 Co884 1.920 1_554 S
O916 C889 1.289 . S
C917 O909 1.258 . S
C917 O910 1.266 . S
Co918 O921 1.970 . S
Co918 N935 1.989 . S
Co918 O943 1.967 . S
Co918 O950 1.920 . S
Co919 O922 1.966 . S
Co919 N928 2.022 . S
Co919 N936 1.993 . S
Co919 O944 1.941 . S
C920 O921 1.258 . S
C920 O922 1.263 . S
O921 Co918 1.970 . S
O921 C920 1.258 . S
O922 Co919 1.966 . S
O922 C920 1.263 . S
C923 O924 1.235 . S
C923 O950 1.289 . S
O924 C923 1.235 . S
C925 C927 1.400 . S
C925 N928 1.351 . S
C925 C930 1.501 . S
C926 C927 1.387 . S
C926 N929 1.341 . S
C927 C925 1.400 . S
C927 C926 1.387 . S
N928 Co919 2.022 . S
N928 C925 1.351 . S
N928 N929 1.365 . S
N929 C926 1.341 . S
N929 N928 1.365 . S
N929 H949 0.862 . S
C930 C925 1.501 . S
C930 H931 0.961 . S
C930 H932 0.961 . S
C930 H933 0.960 . S
H931 C930 0.961 . S
H932 C930 0.961 . S
H933 C930 0.960 . S
C934 N935 1.342 . S
C934 C938 1.401 . S
C934 C939 1.499 . S
N935 Co918 1.989 . S
N935 C934 1.342 . S
N935 N936 1.388 . S
N936 Co919 1.993 . S
N936 N935 1.388 . S
N936 C937 1.346 . S
C937 N936 1.346 . S
C937 C938 1.396 . S
C937 C947 1.510 . S
C938 C934 1.401 . S
C938 C937 1.396 . S
C939 C934 1.499 . S
C939 H940 0.959 . S
C939 H941 0.960 . S
C939 H942 0.961 . S
H940 C939 0.959 . S
H941 C939 0.960 . S
H942 C939 0.961 . S
O943 Co918 1.967 . S
O943 C951 1.258 . S
O944 Co919 1.941 . S
O944 C951 1.266 . S
H945 C947 0.959 . S
H946 C947 0.961 . S
C947 C937 1.510 . S
C947 H945 0.959 . S
C947 H946 0.961 . S
C947 H948 0.960 . S
H948 C947 0.960 . S
H949 N929 0.862 . S
O950 Co918 1.920 . S
O950 C923 1.289 . S
C951 O943 1.258 . S
C951 O944 1.266 . S
Co952 O955 1.970 . S
Co952 N969 1.989 . S
Co952 O977 1.967 . S
Co952 O984 1.920 . S
Co953 O956 1.966 . S
Co953 N962 2.022 . S
Co953 N970 1.993 . S
Co953 O978 1.941 . S
C954 O955 1.258 . S
C954 O956 1.263 . S
O955 Co952 1.970 . S
O955 C954 1.258 . S
O956 Co953 1.966 . S
O956 C954 1.263 . S
C957 O958 1.235 . S
C957 O984 1.289 . S
O958 C957 1.235 . S
C959 C961 1.400 . S
C959 N962 1.351 . S
C959 C964 1.501 . S
C960 C961 1.387 . S
C960 N963 1.341 . S
C961 C959 1.400 . S
C961 C960 1.387 . S
N962 Co953 2.022 . S
N962 C959 1.351 . S
N962 N963 1.365 . S
N963 C960 1.341 . S
N963 N962 1.365 . S
N963 H983 0.862 . S
C964 C959 1.501 . S
C964 H965 0.961 . S
C964 H966 0.961 . S
C964 H967 0.960 . S
H965 C964 0.961 . S
H966 C964 0.961 . S
H967 C964 0.960 . S
C968 N969 1.342 . S
C968 C972 1.401 . S
C968 C973 1.499 . S
N969 Co952 1.989 . S
N969 C968 1.342 . S
N969 N970 1.388 . S
N970 Co953 1.993 . S
N970 N969 1.388 . S
N970 C971 1.346 . S
C971 N970 1.346 . S
C971 C972 1.396 . S
C971 C981 1.510 . S
C972 C968 1.401 . S
C972 C971 1.396 . S
C973 C968 1.499 . S
C973 H974 0.959 . S
C973 H975 0.960 . S
C973 H976 0.961 . S
H974 C973 0.959 . S
H975 C973 0.960 . S
H976 C973 0.961 . S
O977 Co952 1.967 . S
O977 C985 1.258 . S
O978 Co953 1.941 . S
O978 C985 1.266 . S
H979 C981 0.959 . S
H980 C981 0.961 . S
C981 C971 1.510 . S
C981 H979 0.959 . S
C981 H980 0.961 . S
C981 H982 0.960 . S
H982 C981 0.960 . S
H983 N963 0.862 . S
O984 Co952 1.920 . S
O984 C957 1.289 . S
C985 O977 1.258 . S
C985 O978 1.266 . S
Co986 O989 1.970 . S
Co986 N1003 1.989 . S
Co986 O1011 1.967 . S
Co986 O1018 1.920 . S
Co987 O990 1.966 . S
Co987 N996 2.022 . S
Co987 N1004 1.993 . S
Co987 O1012 1.941 . S
C988 O989 1.258 . S
C988 O990 1.263 . S
O989 Co986 1.970 . S
O989 C988 1.258 . S
O990 Co987 1.966 . S
O990 C988 1.263 . S
C991 O992 1.235 . S
C991 O1018 1.289 . S
O992 C991 1.235 . S
C993 C995 1.400 . S
C993 N996 1.351 . S
C993 C998 1.501 . S
C994 C995 1.387 . S
C994 N997 1.341 . S
C995 C993 1.400 . S
C995 C994 1.387 . S
N996 Co987 2.022 . S
N996 C993 1.351 . S
N996 N997 1.365 . S
N997 C994 1.341 . S
N997 N996 1.365 . S
N997 H1017 0.862 . S
C998 C993 1.501 . S
C998 H999 0.961 . S
C998 H1000 0.961 . S
C998 H1001 0.960 . S
H999 C998 0.961 . S
H1000 C998 0.961 . S
H1001 C998 0.960 . S
C1002 N1003 1.342 . S
C1002 C1006 1.401 . S
C1002 C1007 1.499 . S
N1003 Co986 1.989 . S
N1003 C1002 1.342 . S
N1003 N1004 1.388 . S
N1004 Co987 1.993 . S
N1004 N1003 1.388 . S
N1004 C1005 1.346 . S
C1005 N1004 1.346 . S
C1005 C1006 1.396 . S
C1005 C1015 1.510 . S
C1006 C1002 1.401 . S
C1006 C1005 1.396 . S
C1007 C1002 1.499 . S
C1007 H1008 0.959 . S
C1007 H1009 0.960 . S
C1007 H1010 0.961 . S
H1008 C1007 0.959 . S
H1009 C1007 0.960 . S
H1010 C1007 0.961 . S
O1011 Co986 1.967 . S
O1011 C1019 1.258 . S
O1012 Co987 1.941 . S
O1012 C1019 1.266 . S
H1013 C1015 0.959 . S
H1014 C1015 0.961 . S
C1015 C1005 1.510 . S
C1015 H1013 0.959 . S
C1015 H1014 0.961 . S
C1015 H1016 0.960 . S
H1016 C1015 0.960 . S
H1017 N997 0.862 . S
O1018 Co986 1.920 . S
O1018 C991 1.289 . S
C1019 O1011 1.258 . S
C1019 O1012 1.266 . S
Co1020 O1023 1.970 . S
Co1020 N1037 1.989 . S
Co1020 O1045 1.967 . S
Co1020 O1052 1.920 . S
Co1021 O1024 1.966 . S
Co1021 N1030 2.022 . S
Co1021 N1038 1.993 . S
Co1021 O1046 1.941 . S
C1022 O1023 1.258 . S
C1022 O1024 1.263 . S
O1023 Co1020 1.970 . S
O1023 C1022 1.258 . S
O1024 Co1021 1.966 . S
O1024 C1022 1.263 . S
C1025 O1026 1.235 . S
C1025 O1052 1.289 . S
O1026 C1025 1.235 . S
C1027 C1029 1.400 . S
C1027 N1030 1.351 . S
C1027 C1032 1.501 . S
C1028 C1029 1.387 . S
C1028 N1031 1.341 . S
C1029 C1027 1.400 . S
C1029 C1028 1.387 . S
N1030 Co1021 2.022 . S
N1030 C1027 1.351 . S
N1030 N1031 1.365 . S
N1031 C1028 1.341 . S
N1031 N1030 1.365 . S
N1031 H1051 0.862 . S
C1032 C1027 1.501 . S
C1032 H1033 0.961 . S
C1032 H1034 0.961 . S
C1032 H1035 0.960 . S
H1033 C1032 0.961 . S
H1034 C1032 0.961 . S
H1035 C1032 0.960 . S
C1036 N1037 1.342 . S
C1036 C1040 1.401 . S
C1036 C1041 1.499 . S
N1037 Co1020 1.989 . S
N1037 C1036 1.342 . S
N1037 N1038 1.388 . S
N1038 Co1021 1.993 . S
N1038 N1037 1.388 . S
N1038 C1039 1.346 . S
C1039 N1038 1.346 . S
C1039 C1040 1.396 . S
C1039 C1049 1.510 . S
C1040 C1036 1.401 . S
C1040 C1039 1.396 . S
C1041 C1036 1.499 . S
C1041 H1042 0.959 . S
C1041 H1043 0.960 . S
C1041 H1044 0.961 . S
H1042 C1041 0.959 . S
H1043 C1041 0.960 . S
H1044 C1041 0.961 . S
O1045 Co1020 1.967 . S
O1045 C1053 1.258 . S
O1046 Co1021 1.941 . S
O1046 C1053 1.266 . S
H1047 C1049 0.959 . S
H1048 C1049 0.961 . S
C1049 C1039 1.510 . S
C1049 H1047 0.959 . S
C1049 H1048 0.961 . S
C1049 H1050 0.960 . S
H1050 C1049 0.960 . S
H1051 N1031 0.862 . S
O1052 Co1020 1.920 . S
O1052 C1025 1.289 . S
C1053 O1045 1.258 . S
C1053 O1046 1.266 . S
Co1054 O1057 1.970 . S
Co1054 N1071 1.989 . S
Co1054 O1079 1.967 . S
Co1054 O1086 1.920 . S
Co1055 O1058 1.966 . S
Co1055 N1064 2.022 . S
Co1055 N1072 1.993 . S
Co1055 O1080 1.941 . S
C1056 O1057 1.258 . S
C1056 O1058 1.263 . S
O1057 Co1054 1.970 . S
O1057 C1056 1.258 . S
O1058 Co1055 1.966 . S
O1058 C1056 1.263 . S
C1059 O1060 1.235 . S
C1059 O1086 1.289 . S
O1060 C1059 1.235 . S
C1061 C1063 1.400 . S
C1061 N1064 1.351 . S
C1061 C1066 1.501 . S
C1062 C1063 1.387 . S
C1062 N1065 1.341 . S
C1063 C1061 1.400 . S
C1063 C1062 1.387 . S
N1064 Co1055 2.022 . S
N1064 C1061 1.351 . S
N1064 N1065 1.365 . S
N1065 C1062 1.341 . S
N1065 N1064 1.365 . S
N1065 H1085 0.862 . S
C1066 C1061 1.501 . S
C1066 H1067 0.961 . S
C1066 H1068 0.961 . S
C1066 H1069 0.960 . S
H1067 C1066 0.961 . S
H1068 C1066 0.961 . S
H1069 C1066 0.960 . S
C1070 N1071 1.342 . S
C1070 C1074 1.401 . S
C1070 C1075 1.499 . S
N1071 Co1054 1.989 . S
N1071 C1070 1.342 . S
N1071 N1072 1.388 . S
N1072 Co1055 1.993 . S
N1072 N1071 1.388 . S
N1072 C1073 1.346 . S
C1073 N1072 1.346 . S
C1073 C1074 1.396 . S
C1073 C1083 1.510 . S
C1074 C1070 1.401 . S
C1074 C1073 1.396 . S
C1075 C1070 1.499 . S
C1075 H1076 0.959 . S
C1075 H1077 0.960 . S
C1075 H1078 0.961 . S
H1076 C1075 0.959 . S
H1077 C1075 0.960 . S
H1078 C1075 0.961 . S
O1079 Co1054 1.967 . S
O1079 C1087 1.258 . S
O1080 Co1055 1.941 . S
O1080 C1087 1.266 . S
H1081 C1083 0.959 . S
H1082 C1083 0.961 . S
C1083 C1073 1.510 . S
C1083 H1081 0.959 . S
C1083 H1082 0.961 . S
C1083 H1084 0.960 . S
H1084 C1083 0.960 . S
H1085 N1065 0.862 . S
O1086 Co1054 1.920 . S
O1086 C1059 1.289 . S
C1087 O1079 1.258 . S
C1087 O1080 1.266 . S
Co1088 O1091 1.970 . S
Co1088 N1105 1.989 . S
Co1088 O1113 1.967 . S
Co1088 O1120 1.920 . S
Co1089 O1092 1.966 . S
Co1089 N1098 2.022 . S
Co1089 N1106 1.993 . S
Co1089 O1114 1.941 . S
C1090 O1091 1.258 . S
C1090 O1092 1.263 . S
O1091 Co1088 1.970 . S
O1091 C1090 1.258 . S
O1092 Co1089 1.966 . S
O1092 C1090 1.263 . S
C1093 O1094 1.235 . S
C1093 O1120 1.289 . S
O1094 C1093 1.235 . S
C1095 C1097 1.400 . S
C1095 N1098 1.351 . S
C1095 C1100 1.501 . S
C1096 C1097 1.387 . S
C1096 N1099 1.341 . S
C1097 C1095 1.400 . S
C1097 C1096 1.387 . S
N1098 Co1089 2.022 . S
N1098 C1095 1.351 . S
N1098 N1099 1.365 . S
N1099 C1096 1.341 . S
N1099 N1098 1.365 . S
N1099 H1119 0.862 . S
C1100 C1095 1.501 . S
C1100 H1101 0.961 . S
C1100 H1102 0.961 . S
C1100 H1103 0.960 . S
H1101 C1100 0.961 . S
H1102 C1100 0.961 . S
H1103 C1100 0.960 . S
C1104 N1105 1.342 . S
C1104 C1108 1.401 . S
C1104 C1109 1.499 . S
N1105 Co1088 1.989 . S
N1105 C1104 1.342 . S
N1105 N1106 1.388 . S
N1106 Co1089 1.993 . S
N1106 N1105 1.388 . S
N1106 C1107 1.346 . S
C1107 N1106 1.346 . S
C1107 C1108 1.396 . S
C1107 C1117 1.510 . S
C1108 C1104 1.401 . S
C1108 C1107 1.396 . S
C1109 C1104 1.499 . S
C1109 H1110 0.959 . S
C1109 H1111 0.960 . S
C1109 H1112 0.961 . S
H1110 C1109 0.959 . S
H1111 C1109 0.960 . S
H1112 C1109 0.961 . S
O1113 Co1088 1.967 . S
O1113 C1121 1.258 . S
O1114 Co1089 1.941 . S
O1114 C1121 1.266 . S
H1115 C1117 0.959 . S
H1116 C1117 0.961 . S
C1117 C1107 1.510 . S
C1117 H1115 0.959 . S
C1117 H1116 0.961 . S
C1117 H1118 0.960 . S
H1118 C1117 0.960 . S
H1119 N1099 0.862 . S
O1120 Co1088 1.920 . S
O1120 C1093 1.289 . S
C1121 O1113 1.258 . S
C1121 O1114 1.266 . S
Co1122 O1125 1.970 . S
Co1122 N1139 1.989 . S
Co1122 O1147 1.967 . S
Co1122 O1154 1.920 1_556 S
Co1123 O1126 1.966 . S
Co1123 N1132 2.022 . S
Co1123 N1140 1.993 . S
Co1123 O1148 1.941 . S
C1124 O1125 1.258 . S
C1124 O1126 1.263 . S
O1125 Co1122 1.970 . S
O1125 C1124 1.258 . S
O1126 Co1123 1.966 . S
O1126 C1124 1.263 . S
C1127 O1128 1.235 . S
C1127 O1154 1.289 . S
O1128 C1127 1.235 . S
C1129 C1131 1.400 . S
C1129 N1132 1.351 . S
C1129 C1134 1.501 . S
C1130 C1131 1.387 . S
C1130 N1133 1.341 . S
C1131 C1129 1.400 . S
C1131 C1130 1.387 . S
N1132 Co1123 2.022 . S
N1132 C1129 1.351 . S
N1132 N1133 1.365 . S
N1133 C1130 1.341 . S
N1133 N1132 1.365 . S
N1133 H1153 0.862 . S
C1134 C1129 1.501 . S
C1134 H1135 0.961 . S
C1134 H1136 0.961 . S
C1134 H1137 0.960 . S
H1135 C1134 0.961 . S
H1136 C1134 0.961 . S
H1137 C1134 0.960 . S
C1138 N1139 1.342 . S
C1138 C1142 1.401 . S
C1138 C1143 1.499 1_556 S
N1139 Co1122 1.989 . S
N1139 C1138 1.342 . S
N1139 N1140 1.388 . S
N1140 Co1123 1.993 . S
N1140 N1139 1.388 . S
N1140 C1141 1.346 . S
C1141 N1140 1.346 . S
C1141 C1142 1.396 . S
C1141 C1151 1.510 . S
C1142 C1138 1.401 . S
C1142 C1141 1.396 . S
C1143 C1138 1.499 1_554 S
C1143 H1144 0.959 . S
C1143 H1145 0.960 . S
C1143 H1146 0.961 . S
H1144 C1143 0.959 . S
H1145 C1143 0.960 . S
H1146 C1143 0.961 . S
O1147 Co1122 1.967 . S
O1147 C1155 1.258 . S
O1148 Co1123 1.941 . S
O1148 C1155 1.266 . S
H1149 C1151 0.959 . S
H1150 C1151 0.961 . S
C1151 C1141 1.510 . S
C1151 H1149 0.959 . S
C1151 H1150 0.961 . S
C1151 H1152 0.960 . S
H1152 C1151 0.960 . S
H1153 N1133 0.862 . S
O1154 Co1122 1.920 1_554 S
O1154 C1127 1.289 . S
C1155 O1147 1.258 . S
C1155 O1148 1.266 . S
Co1156 O1159 1.970 . S
Co1156 N1173 1.989 . S
Co1156 O1181 1.967 . S
Co1156 O1188 1.920 1_556 S
Co1157 O1160 1.966 . S
Co1157 N1166 2.022 . S
Co1157 N1174 1.993 . S
Co1157 O1182 1.941 . S
C1158 O1159 1.258 . S
C1158 O1160 1.263 . S
O1159 Co1156 1.970 . S
O1159 C1158 1.258 . S
O1160 Co1157 1.966 . S
O1160 C1158 1.263 . S
C1161 O1162 1.235 . S
C1161 O1188 1.289 . S
O1162 C1161 1.235 . S
C1163 C1165 1.400 . S
C1163 N1166 1.351 . S
C1163 C1168 1.501 . S
C1164 C1165 1.387 . S
C1164 N1167 1.341 . S
C1165 C1163 1.400 . S
C1165 C1164 1.387 . S
N1166 Co1157 2.022 . S
N1166 C1163 1.351 . S
N1166 N1167 1.365 . S
N1167 C1164 1.341 . S
N1167 N1166 1.365 . S
N1167 H1187 0.862 . S
C1168 C1163 1.501 . S
C1168 H1169 0.961 . S
C1168 H1170 0.961 . S
C1168 H1171 0.960 . S
H1169 C1168 0.961 . S
H1170 C1168 0.961 . S
H1171 C1168 0.960 . S
C1172 N1173 1.342 . S
C1172 C1176 1.401 . S
C1172 C1177 1.499 1_556 S
N1173 Co1156 1.989 . S
N1173 C1172 1.342 . S
N1173 N1174 1.388 . S
N1174 Co1157 1.993 . S
N1174 N1173 1.388 . S
N1174 C1175 1.346 . S
C1175 N1174 1.346 . S
C1175 C1176 1.396 . S
C1175 C1185 1.510 . S
C1176 C1172 1.401 . S
C1176 C1175 1.396 . S
C1177 C1172 1.499 1_554 S
C1177 H1178 0.959 . S
C1177 H1179 0.960 . S
C1177 H1180 0.961 . S
H1178 C1177 0.959 . S
H1179 C1177 0.960 . S
H1180 C1177 0.961 . S
O1181 Co1156 1.967 . S
O1181 C1189 1.258 . S
O1182 Co1157 1.941 . S
O1182 C1189 1.266 . S
H1183 C1185 0.959 . S
H1184 C1185 0.961 . S
C1185 C1175 1.510 . S
C1185 H1183 0.959 . S
C1185 H1184 0.961 . S
C1185 H1186 0.960 . S
H1186 C1185 0.960 . S
H1187 N1167 0.862 . S
O1188 Co1156 1.920 1_554 S
O1188 C1161 1.289 . S
C1189 O1181 1.258 . S
C1189 O1182 1.266 . S
Co1190 O1193 1.970 . S
Co1190 N1207 1.989 . S
Co1190 O1215 1.967 . S
Co1190 O1222 1.920 1_556 S
Co1191 O1194 1.966 . S
Co1191 N1200 2.022 . S
Co1191 N1208 1.993 . S
Co1191 O1216 1.941 . S
C1192 O1193 1.258 . S
C1192 O1194 1.263 . S
O1193 Co1190 1.970 . S
O1193 C1192 1.258 . S
O1194 Co1191 1.966 . S
O1194 C1192 1.263 . S
C1195 O1196 1.235 . S
C1195 O1222 1.289 . S
O1196 C1195 1.235 . S
C1197 C1199 1.400 . S
C1197 N1200 1.351 . S
C1197 C1202 1.501 . S
C1198 C1199 1.387 . S
C1198 N1201 1.341 . S
C1199 C1197 1.400 . S
C1199 C1198 1.387 . S
N1200 Co1191 2.022 . S
N1200 C1197 1.351 . S
N1200 N1201 1.365 . S
N1201 C1198 1.341 . S
N1201 N1200 1.365 . S
N1201 H1221 0.862 . S
C1202 C1197 1.501 . S
C1202 H1203 0.961 . S
C1202 H1204 0.961 . S
C1202 H1205 0.960 . S
H1203 C1202 0.961 . S
H1204 C1202 0.961 . S
H1205 C1202 0.960 . S
C1206 N1207 1.342 . S
C1206 C1210 1.401 . S
C1206 C1211 1.499 1_556 S
N1207 Co1190 1.989 . S
N1207 C1206 1.342 . S
N1207 N1208 1.388 . S
N1208 Co1191 1.993 . S
N1208 N1207 1.388 . S
N1208 C1209 1.346 . S
C1209 N1208 1.346 . S
C1209 C1210 1.396 . S
C1209 C1219 1.510 . S
C1210 C1206 1.401 . S
C1210 C1209 1.396 . S
C1211 C1206 1.499 1_554 S
C1211 H1212 0.959 . S
C1211 H1213 0.960 . S
C1211 H1214 0.961 . S
H1212 C1211 0.959 . S
H1213 C1211 0.960 . S
H1214 C1211 0.961 . S
O1215 Co1190 1.967 . S
O1215 C1223 1.258 . S
O1216 Co1191 1.941 . S
O1216 C1223 1.266 . S
H1217 C1219 0.959 . S
H1218 C1219 0.961 . S
C1219 C1209 1.510 . S
C1219 H1217 0.959 . S
C1219 H1218 0.961 . S
C1219 H1220 0.960 . S
H1220 C1219 0.960 . S
H1221 N1201 0.862 . S
O1222 Co1190 1.920 1_554 S
O1222 C1195 1.289 . S
C1223 O1215 1.258 . S
C1223 O1216 1.266 . S
H1224 C1230 0.930 . S
H1225 C1234 0.930 . S
H1226 C1239 0.929 . S
H1227 C1237 0.929 . S
H1228 C1232 0.929 . S
H1229 C1238 0.929 . S
C1230 H1224 0.930 . S
C1230 C1231 1.367 . S
C1230 C1238 1.378 . S
C1231 C1230 1.367 . S
C1231 C1239 1.433 . S
C1232 H1228 0.929 . S
C1232 C1234 1.378 . S
C1232 C1236 1.350 . S
C1233 C1236 1.463 . S
C1233 C1238 1.350 . S
C1233 N1241 1.427 . S
C1234 H1225 0.930 . S
C1234 C1232 1.378 . S
C1234 C1235 1.367 . S
C1235 C1234 1.367 . S
C1235 C1237 1.433 . S
C1236 C1232 1.350 . S
C1236 C1233 1.463 . S
C1236 N1240 1.427 . S
C1237 H1227 0.929 . S
C1237 C1235 1.433 . S
C1237 N1240 1.384 . S
C1238 H1229 0.929 . S
C1238 C1230 1.378 . S
C1238 C1233 1.350 . S
C1239 H1226 0.929 . S
C1239 C1231 1.433 . S
C1239 N1241 1.384 . S
N1240 C1236 1.427 . S
N1240 C1237 1.384 . S
N1241 C1233 1.427 . S
N1241 C1239 1.384 . S
H1242 C1248 0.930 . S
H1243 C1252 0.930 . S
H1244 C1257 0.929 . S
H1245 C1255 0.929 . S
H1246 C1250 0.929 . S
H1247 C1256 0.929 . S
C1248 H1242 0.930 . S
C1248 C1249 1.367 . S
C1248 C1256 1.378 . S
C1249 C1248 1.367 . S
C1249 C1257 1.433 . S
C1250 H1246 0.929 . S
C1250 C1252 1.378 . S
C1250 C1254 1.350 . S
C1251 C1254 1.463 . S
C1251 C1256 1.350 . S
C1251 N1259 1.427 . S
C1252 H1243 0.930 . S
C1252 C1250 1.378 . S
C1252 C1253 1.367 . S
C1253 C1252 1.367 . S
C1253 C1255 1.433 . S
C1254 C1250 1.350 . S
C1254 C1251 1.463 . S
C1254 N1258 1.427 . S
C1255 H1245 0.929 . S
C1255 C1253 1.433 . S
C1255 N1258 1.384 . S
C1256 H1247 0.929 . S
C1256 C1248 1.378 . S
C1256 C1251 1.350 . S
C1257 H1244 0.929 . S
C1257 C1249 1.433 . S
C1257 N1259 1.384 . S
N1258 C1254 1.427 . S
N1258 C1255 1.384 . S
N1259 C1251 1.427 . S
N1259 C1257 1.384 . S
H1260 C1266 0.930 . S
H1261 C1270 0.930 . S
H1262 C1275 0.929 . S
H1263 C1273 0.929 . S
H1264 C1268 0.929 . S
H1265 C1274 0.929 . S
C1266 H1260 0.930 . S
C1266 C1267 1.367 . S
C1266 C1274 1.378 . S
C1267 C1266 1.367 . S
C1267 C1275 1.433 . S
C1268 H1264 0.929 . S
C1268 C1270 1.378 . S
C1268 C1272 1.350 . S
C1269 C1272 1.463 . S
C1269 C1274 1.350 . S
C1269 N1277 1.427 . S
C1270 H1261 0.930 . S
C1270 C1268 1.378 . S
C1270 C1271 1.367 . S
C1271 C1270 1.367 . S
C1271 C1273 1.433 . S
C1272 C1268 1.350 . S
C1272 C1269 1.463 . S
C1272 N1276 1.427 . S
C1273 H1263 0.929 . S
C1273 C1271 1.433 . S
C1273 N1276 1.384 . S
C1274 H1265 0.929 . S
C1274 C1266 1.378 . S
C1274 C1269 1.350 . S
C1275 H1262 0.929 . S
C1275 C1267 1.433 . S
C1275 N1277 1.384 . S
N1276 C1272 1.427 . S
N1276 C1273 1.384 . S
N1277 C1269 1.427 . S
N1277 C1275 1.384 . S
H1278 C1284 0.930 . S
H1279 C1288 0.930 . S
H1280 C1293 0.929 . S
H1281 C1291 0.929 . S
H1282 C1286 0.929 . S
H1283 C1292 0.929 . S
C1284 H1278 0.930 . S
C1284 C1285 1.367 . S
C1284 C1292 1.378 . S
C1285 C1284 1.367 . S
C1285 C1293 1.433 . S
C1286 H1282 0.929 . S
C1286 C1288 1.378 . S
C1286 C1290 1.350 . S
C1287 C1290 1.463 . S
C1287 C1292 1.350 . S
C1287 N1295 1.427 . S
C1288 H1279 0.930 . S
C1288 C1286 1.378 . S
C1288 C1289 1.367 . S
C1289 C1288 1.367 . S
C1289 C1291 1.433 . S
C1290 C1286 1.350 . S
C1290 C1287 1.463 . S
C1290 N1294 1.427 . S
C1291 H1281 0.929 . S
C1291 C1289 1.433 . S
C1291 N1294 1.384 . S
C1292 H1283 0.929 . S
C1292 C1284 1.378 . S
C1292 C1287 1.350 . S
C1293 H1280 0.929 . S
C1293 C1285 1.433 . S
C1293 N1295 1.384 . S
N1294 C1290 1.427 . S
N1294 C1291 1.384 . S
N1295 C1287 1.427 . S
N1295 C1293 1.384 . S
H1296 C1302 0.930 . S
H1297 C1306 0.930 . S
H1298 C1311 0.929 . S
H1299 C1309 0.929 . S
H1300 C1304 0.929 . S
H1301 C1310 0.929 . S
C1302 H1296 0.930 . S
C1302 C1303 1.367 . S
C1302 C1310 1.378 . S
C1303 C1302 1.367 . S
C1303 C1311 1.433 . S
C1304 H1300 0.929 . S
C1304 C1306 1.378 . S
C1304 C1308 1.350 . S
C1305 C1308 1.463 . S
C1305 C1310 1.350 . S
C1305 N1313 1.427 . S
C1306 H1297 0.930 . S
C1306 C1304 1.378 . S
C1306 C1307 1.367 . S
C1307 C1306 1.367 . S
C1307 C1309 1.433 . S
C1308 C1304 1.350 . S
C1308 C1305 1.463 . S
C1308 N1312 1.427 . S
C1309 H1299 0.929 . S
C1309 C1307 1.433 . S
C1309 N1312 1.384 . S
C1310 H1301 0.929 . S
C1310 C1302 1.378 . S
C1310 C1305 1.350 . S
C1311 H1298 0.929 . S
C1311 C1303 1.433 . S
C1311 N1313 1.384 . S
N1312 C1308 1.427 . S
N1312 C1309 1.384 . S
N1313 C1305 1.427 . S
N1313 C1311 1.384 . S
H1314 C1320 0.930 . S
H1315 C1324 0.930 . S
H1316 C1329 0.929 . S
H1317 C1327 0.929 . S
H1318 C1322 0.929 . S
H1319 C1328 0.929 . S
C1320 H1314 0.930 . S
C1320 C1321 1.367 . S
C1320 C1328 1.378 . S
C1321 C1320 1.367 . S
C1321 C1329 1.433 . S
C1322 H1318 0.929 . S
C1322 C1324 1.378 . S
C1322 C1326 1.350 . S
C1323 C1326 1.463 . S
C1323 C1328 1.350 . S
C1323 N1331 1.427 . S
C1324 H1315 0.930 . S
C1324 C1322 1.378 . S
C1324 C1325 1.367 . S
C1325 C1324 1.367 . S
C1325 C1327 1.433 . S
C1326 C1322 1.350 . S
C1326 C1323 1.463 . S
C1326 N1330 1.427 . S
C1327 H1317 0.929 . S
C1327 C1325 1.433 . S
C1327 N1330 1.384 . S
C1328 H1319 0.929 . S
C1328 C1320 1.378 . S
C1328 C1323 1.350 . S
C1329 H1316 0.929 . S
C1329 C1321 1.433 . S
C1329 N1331 1.384 . S
N1330 C1326 1.427 . S
N1330 C1327 1.384 . S
N1331 C1323 1.427 . S
N1331 C1329 1.384 . S
H1332 C1338 0.930 . S
H1333 C1342 0.930 . S
H1334 C1347 0.929 . S
H1335 C1345 0.929 . S
H1336 C1340 0.929 . S
H1337 C1346 0.929 . S
C1338 H1332 0.930 . S
C1338 C1339 1.367 . S
C1338 C1346 1.378 . S
C1339 C1338 1.367 . S
C1339 C1347 1.433 . S
C1340 H1336 0.929 . S
C1340 C1342 1.378 . S
C1340 C1344 1.350 . S
C1341 C1344 1.463 . S
C1341 C1346 1.350 . S
C1341 N1349 1.427 . S
C1342 H1333 0.930 . S
C1342 C1340 1.378 . S
C1342 C1343 1.367 . S
C1343 C1342 1.367 . S
C1343 C1345 1.433 . S
C1344 C1340 1.350 . S
C1344 C1341 1.463 . S
C1344 N1348 1.427 . S
C1345 H1335 0.929 . S
C1345 C1343 1.433 . S
C1345 N1348 1.384 . S
C1346 H1337 0.929 . S
C1346 C1338 1.378 . S
C1346 C1341 1.350 . S
C1347 H1334 0.929 . S
C1347 C1339 1.433 . S
C1347 N1349 1.384 . S
N1348 C1344 1.427 . S
N1348 C1345 1.384 . S
N1349 C1341 1.427 . S
N1349 C1347 1.384 . S
H1350 C1356 0.930 . S
H1351 C1360 0.930 . S
H1352 C1365 0.929 . S
H1353 C1363 0.929 . S
H1354 C1358 0.929 . S
H1355 C1364 0.929 . S
C1356 H1350 0.930 . S
C1356 C1357 1.367 . S
C1356 C1364 1.378 . S
C1357 C1356 1.367 . S
C1357 C1365 1.433 . S
C1358 H1354 0.929 . S
C1358 C1360 1.378 . S
C1358 C1362 1.350 . S
C1359 C1362 1.463 . S
C1359 C1364 1.350 . S
C1359 N1367 1.427 . S
C1360 H1351 0.930 . S
C1360 C1358 1.378 . S
C1360 C1361 1.367 . S
C1361 C1360 1.367 . S
C1361 C1363 1.433 . S
C1362 C1358 1.350 . S
C1362 C1359 1.463 . S
C1362 N1366 1.427 . S
C1363 H1353 0.929 . S
C1363 C1361 1.433 . S
C1363 N1366 1.384 . S
C1364 H1355 0.929 . S
C1364 C1356 1.378 . S
C1364 C1359 1.350 . S
C1365 H1352 0.929 . S
C1365 C1357 1.433 . S
C1365 N1367 1.384 . S
N1366 C1362 1.427 . S
N1366 C1363 1.384 . S
N1367 C1359 1.427 . S
N1367 C1365 1.384 . S
H1368 C1374 0.930 . S
H1369 C1378 0.930 . S
H1370 C1383 0.929 . S
H1371 C1381 0.929 . S
H1372 C1376 0.929 . S
H1373 C1382 0.929 . S
C1374 H1368 0.930 . S
C1374 C1375 1.367 . S
C1374 C1382 1.378 . S
C1375 C1374 1.367 . S
C1375 C1383 1.433 . S
C1376 H1372 0.929 . S
C1376 C1378 1.378 . S
C1376 C1380 1.350 . S
C1377 C1380 1.463 . S
C1377 C1382 1.350 . S
C1377 N1385 1.427 . S
C1378 H1369 0.930 . S
C1378 C1376 1.378 . S
C1378 C1379 1.367 . S
C1379 C1378 1.367 . S
C1379 C1381 1.433 . S
C1380 C1376 1.350 . S
C1380 C1377 1.463 . S
C1380 N1384 1.427 . S
C1381 H1371 0.929 . S
C1381 C1379 1.433 . S
C1381 N1384 1.384 . S
C1382 H1373 0.929 . S
C1382 C1374 1.378 . S
C1382 C1377 1.350 . S
C1383 H1370 0.929 . S
C1383 C1375 1.433 . S
C1383 N1385 1.384 . S
N1384 C1380 1.427 . S
N1384 C1381 1.384 . S
N1385 C1377 1.427 . S
N1385 C1383 1.384 . S
H1386 C1392 0.930 . S
H1387 C1396 0.930 . S
H1388 C1401 0.929 . S
H1389 C1399 0.929 . S
H1390 C1394 0.929 . S
H1391 C1400 0.929 . S
C1392 H1386 0.930 . S
C1392 C1393 1.367 . S
C1392 C1400 1.378 . S
C1393 C1392 1.367 . S
C1393 C1401 1.433 . S
C1394 H1390 0.929 . S
C1394 C1396 1.378 . S
C1394 C1398 1.350 . S
C1395 C1398 1.463 . S
C1395 C1400 1.350 . S
C1395 N1403 1.427 . S
C1396 H1387 0.930 . S
C1396 C1394 1.378 . S
C1396 C1397 1.367 . S
C1397 C1396 1.367 . S
C1397 C1399 1.433 . S
C1398 C1394 1.350 . S
C1398 C1395 1.463 . S
C1398 N1402 1.427 . S
C1399 H1389 0.929 . S
C1399 C1397 1.433 . S
C1399 N1402 1.384 . S
C1400 H1391 0.929 . S
C1400 C1392 1.378 . S
C1400 C1395 1.350 . S
C1401 H1388 0.929 . S
C1401 C1393 1.433 . S
C1401 N1403 1.384 . S
N1402 C1398 1.427 . S
N1402 C1399 1.384 . S
N1403 C1395 1.427 . S
N1403 C1401 1.384 . S
H1404 C1410 0.930 . S
H1405 C1414 0.930 . S
H1406 C1419 0.929 . S
H1407 C1417 0.929 . S
H1408 C1412 0.929 . S
H1409 C1418 0.929 . S
C1410 H1404 0.930 . S
C1410 C1411 1.367 . S
C1410 C1418 1.378 . S
C1411 C1410 1.367 . S
C1411 C1419 1.433 . S
C1412 H1408 0.929 . S
C1412 C1414 1.378 . S
C1412 C1416 1.350 . S
C1413 C1416 1.463 . S
C1413 C1418 1.350 . S
C1413 N1421 1.427 . S
C1414 H1405 0.930 . S
C1414 C1412 1.378 . S
C1414 C1415 1.367 . S
C1415 C1414 1.367 . S
C1415 C1417 1.433 . S
C1416 C1412 1.350 . S
C1416 C1413 1.463 . S
C1416 N1420 1.427 . S
C1417 H1407 0.929 . S
C1417 C1415 1.433 . S
C1417 N1420 1.384 . S
C1418 H1409 0.929 . S
C1418 C1410 1.378 . S
C1418 C1413 1.350 . S
C1419 H1406 0.929 . S
C1419 C1411 1.433 . S
C1419 N1421 1.384 . S
N1420 C1416 1.427 . S
N1420 C1417 1.384 . S
N1421 C1413 1.427 . S
N1421 C1419 1.384 . S
H1422 C1428 0.930 . S
H1423 C1432 0.930 . S
H1424 C1437 0.929 . S
H1425 C1435 0.929 . S
H1426 C1430 0.929 . S
H1427 C1436 0.929 . S
C1428 H1422 0.930 . S
C1428 C1429 1.367 . S
C1428 C1436 1.378 . S
C1429 C1428 1.367 . S
C1429 C1437 1.433 . S
C1430 H1426 0.929 . S
C1430 C1432 1.378 . S
C1430 C1434 1.350 . S
C1431 C1434 1.463 . S
C1431 C1436 1.350 . S
C1431 N1439 1.427 . S
C1432 H1423 0.930 . S
C1432 C1430 1.378 . S
C1432 C1433 1.367 . S
C1433 C1432 1.367 . S
C1433 C1435 1.433 . S
C1434 C1430 1.350 . S
C1434 C1431 1.463 . S
C1434 N1438 1.427 . S
C1435 H1425 0.929 . S
C1435 C1433 1.433 . S
C1435 N1438 1.384 . S
C1436 H1427 0.929 . S
C1436 C1428 1.378 . S
C1436 C1431 1.350 . S
C1437 H1424 0.929 . S
C1437 C1429 1.433 . S
C1437 N1439 1.384 . S
N1438 C1434 1.427 . S
N1438 C1435 1.384 . S
N1439 C1431 1.427 . S
N1439 C1437 1.384 . S
H1440 C1446 0.930 . S
H1441 C1450 0.930 . S
H1442 C1455 0.929 . S
H1443 C1453 0.929 . S
H1444 C1448 0.929 . S
H1445 C1454 0.929 . S
C1446 H1440 0.930 . S
C1446 C1447 1.367 . S
C1446 C1454 1.378 . S
C1447 C1446 1.367 . S
C1447 C1455 1.433 . S
C1448 H1444 0.929 . S
C1448 C1450 1.378 . S
C1448 C1452 1.350 . S
C1449 C1452 1.463 . S
C1449 C1454 1.350 . S
C1449 N1457 1.427 . S
C1450 H1441 0.930 . S
C1450 C1448 1.378 . S
C1450 C1451 1.367 . S
C1451 C1450 1.367 . S
C1451 C1453 1.433 . S
C1452 C1448 1.350 . S
C1452 C1449 1.463 . S
C1452 N1456 1.427 . S
C1453 H1443 0.929 . S
C1453 C1451 1.433 . S
C1453 N1456 1.384 . S
C1454 H1445 0.929 . S
C1454 C1446 1.378 . S
C1454 C1449 1.350 . S
C1455 H1442 0.929 . S
C1455 C1447 1.433 . S
C1455 N1457 1.384 . S
N1456 C1452 1.427 . S
N1456 C1453 1.384 . S
N1457 C1449 1.427 . S
N1457 C1455 1.384 . S
H1458 C1464 0.930 . S
H1459 C1468 0.930 . S
H1460 C1473 0.929 . S
H1461 C1471 0.929 . S
H1462 C1466 0.929 . S
H1463 C1472 0.929 . S
C1464 H1458 0.930 . S
C1464 C1465 1.367 . S
C1464 C1472 1.378 . S
C1465 C1464 1.367 . S
C1465 C1473 1.433 . S
C1466 H1462 0.929 . S
C1466 C1468 1.378 . S
C1466 C1470 1.350 . S
C1467 C1470 1.463 1_565 S
C1467 C1472 1.350 . S
C1467 N1475 1.427 . S
C1468 H1459 0.930 . S
C1468 C1466 1.378 . S
C1468 C1469 1.367 . S
C1469 C1468 1.367 . S
C1469 C1471 1.433 . S
C1470 C1466 1.350 . S
C1470 C1467 1.463 1_545 S
C1470 N1474 1.427 . S
C1471 H1461 0.929 . S
C1471 C1469 1.433 . S
C1471 N1474 1.384 . S
C1472 H1463 0.929 . S
C1472 C1464 1.378 . S
C1472 C1467 1.350 . S
C1473 H1460 0.929 . S
C1473 C1465 1.433 . S
C1473 N1475 1.384 . S
N1474 C1470 1.427 . S
N1474 C1471 1.384 . S
N1475 C1467 1.427 . S
N1475 C1473 1.384 . S
H1476 C1482 0.930 . S
H1477 C1486 0.930 . S
H1478 C1491 0.929 . S
H1479 C1489 0.929 . S
H1480 C1484 0.929 . S
H1481 C1490 0.929 . S
C1482 H1476 0.930 . S
C1482 C1483 1.367 . S
C1482 C1490 1.378 . S
C1483 C1482 1.367 . S
C1483 C1491 1.433 . S
C1484 H1480 0.929 . S
C1484 C1486 1.378 . S
C1484 C1488 1.350 . S
C1485 C1488 1.463 1_655 S
C1485 C1490 1.350 . S
C1485 N1493 1.427 . S
C1486 H1477 0.930 . S
C1486 C1484 1.378 . S
C1486 C1487 1.367 . S
C1487 C1486 1.367 . S
C1487 C1489 1.433 . S
C1488 C1484 1.350 . S
C1488 C1485 1.463 1_455 S
C1488 N1492 1.427 . S
C1489 H1479 0.929 . S
C1489 C1487 1.433 . S
C1489 N1492 1.384 . S
C1490 H1481 0.929 . S
C1490 C1482 1.378 . S
C1490 C1485 1.350 . S
C1491 H1478 0.929 . S
C1491 C1483 1.433 . S
C1491 N1493 1.384 . S
N1492 C1488 1.427 . S
N1492 C1489 1.384 . S
N1493 C1485 1.427 . S
N1493 C1491 1.384 . S
H1494 C1500 0.930 . S
H1495 C1504 0.930 . S
H1496 C1509 0.929 . S
H1497 C1507 0.929 . S
H1498 C1502 0.929 . S
H1499 C1508 0.929 . S
C1500 H1494 0.930 . S
C1500 C1501 1.367 . S
C1500 C1508 1.378 . S
C1501 C1500 1.367 . S
C1501 C1509 1.433 . S
C1502 H1498 0.929 . S
C1502 C1504 1.378 . S
C1502 C1506 1.350 . S
C1503 C1506 1.463 . S
C1503 C1508 1.350 . S
C1503 N1511 1.427 . S
C1504 H1495 0.930 . S
C1504 C1502 1.378 . S
C1504 C1505 1.367 . S
C1505 C1504 1.367 . S
C1505 C1507 1.433 . S
C1506 C1502 1.350 . S
C1506 C1503 1.463 . S
C1506 N1510 1.427 . S
C1507 H1497 0.929 . S
C1507 C1505 1.433 . S
C1507 N1510 1.384 . S
C1508 H1499 0.929 . S
C1508 C1500 1.378 . S
C1508 C1503 1.350 . S
C1509 H1496 0.929 . S
C1509 C1501 1.433 . S
C1509 N1511 1.384 . S
N1510 C1506 1.427 . S
N1510 C1507 1.384 . S
N1511 C1503 1.427 . S
N1511 C1509 1.384 . S
H1512 C1518 0.930 . S
H1513 C1522 0.930 . S
H1514 C1527 0.929 . S
H1515 C1525 0.929 . S
H1516 C1520 0.929 . S
H1517 C1526 0.929 . S
C1518 H1512 0.930 . S
C1518 C1519 1.367 . S
C1518 C1526 1.378 . S
C1519 C1518 1.367 . S
C1519 C1527 1.433 . S
C1520 H1516 0.929 . S
C1520 C1522 1.378 . S
C1520 C1524 1.350 . S
C1521 C1524 1.463 1_565 S
C1521 C1526 1.350 . S
C1521 N1529 1.427 . S
C1522 H1513 0.930 . S
C1522 C1520 1.378 . S
C1522 C1523 1.367 . S
C1523 C1522 1.367 . S
C1523 C1525 1.433 . S
C1524 C1520 1.350 . S
C1524 C1521 1.463 1_545 S
C1524 N1528 1.427 . S
C1525 H1515 0.929 . S
C1525 C1523 1.433 . S
C1525 N1528 1.384 . S
C1526 H1517 0.929 . S
C1526 C1518 1.378 . S
C1526 C1521 1.350 . S
C1527 H1514 0.929 . S
C1527 C1519 1.433 . S
C1527 N1529 1.384 . S
N1528 C1524 1.427 . S
N1528 C1525 1.384 . S
N1529 C1521 1.427 . S
N1529 C1527 1.384 . S
H1530 C1536 0.930 . S
H1531 C1540 0.930 . S
H1532 C1545 0.929 . S
H1533 C1543 0.929 . S
H1534 C1538 0.929 . S
H1535 C1544 0.929 . S
C1536 H1530 0.930 . S
C1536 C1537 1.367 . S
C1536 C1544 1.378 . S
C1537 C1536 1.367 . S
C1537 C1545 1.433 . S
C1538 H1534 0.929 . S
C1538 C1540 1.378 . S
C1538 C1542 1.350 . S
C1539 C1542 1.463 1_655 S
C1539 C1544 1.350 . S
C1539 N1547 1.427 . S
C1540 H1531 0.930 . S
C1540 C1538 1.378 . S
C1540 C1541 1.367 . S
C1541 C1540 1.367 . S
C1541 C1543 1.433 . S
C1542 C1538 1.350 . S
C1542 C1539 1.463 1_455 S
C1542 N1546 1.427 . S
C1543 H1533 0.929 . S
C1543 C1541 1.433 . S
C1543 N1546 1.384 . S
C1544 H1535 0.929 . S
C1544 C1536 1.378 . S
C1544 C1539 1.350 . S
C1545 H1532 0.929 . S
C1545 C1537 1.433 . S
C1545 N1547 1.384 . S
N1546 C1542 1.427 . S
N1546 C1543 1.384 . S
N1547 C1539 1.427 . S
N1547 C1545 1.384 . S
H1548 C1554 0.930 . S
H1549 C1558 0.930 . S
H1550 C1563 0.929 . S
H1551 C1561 0.929 . S
H1552 C1556 0.929 . S
H1553 C1562 0.929 . S
C1554 H1548 0.930 . S
C1554 C1555 1.367 . S
C1554 C1562 1.378 . S
C1555 C1554 1.367 . S
C1555 C1563 1.433 . S
C1556 H1552 0.929 . S
C1556 C1558 1.378 . S
C1556 C1560 1.350 . S
C1557 C1560 1.463 . S
C1557 C1562 1.350 . S
C1557 N1565 1.427 . S
C1558 H1549 0.930 . S
C1558 C1556 1.378 . S
C1558 C1559 1.367 . S
C1559 C1558 1.367 . S
C1559 C1561 1.433 . S
C1560 C1556 1.350 . S
C1560 C1557 1.463 . S
C1560 N1564 1.427 . S
C1561 H1551 0.929 . S
C1561 C1559 1.433 . S
C1561 N1564 1.384 . S
C1562 H1553 0.929 . S
C1562 C1554 1.378 . S
C1562 C1557 1.350 . S
C1563 H1550 0.929 . S
C1563 C1555 1.433 . S
C1563 N1565 1.384 . S
N1564 C1560 1.427 . S
N1564 C1561 1.384 . S
N1565 C1557 1.427 . S
N1565 C1563 1.384 . S
H1566 C1572 0.930 . S
H1567 C1576 0.930 . S
H1568 C1581 0.929 . S
H1569 C1579 0.929 . S
H1570 C1574 0.929 . S
H1571 C1580 0.929 . S
C1572 H1566 0.930 . S
C1572 C1573 1.367 . S
C1572 C1580 1.378 . S
C1573 C1572 1.367 . S
C1573 C1581 1.433 . S
C1574 H1570 0.929 . S
C1574 C1576 1.378 . S
C1574 C1578 1.350 . S
C1575 C1578 1.463 . S
C1575 C1580 1.350 . S
C1575 N1583 1.427 . S
C1576 H1567 0.930 . S
C1576 C1574 1.378 . S
C1576 C1577 1.367 . S
C1577 C1576 1.367 . S
C1577 C1579 1.433 . S
C1578 C1574 1.350 . S
C1578 C1575 1.463 . S
C1578 N1582 1.427 . S
C1579 H1569 0.929 . S
C1579 C1577 1.433 . S
C1579 N1582 1.384 . S
C1580 H1571 0.929 . S
C1580 C1572 1.378 . S
C1580 C1575 1.350 . S
C1581 H1568 0.929 . S
C1581 C1573 1.433 . S
C1581 N1583 1.384 . S
N1582 C1578 1.427 . S
N1582 C1579 1.384 . S
N1583 C1575 1.427 . S
N1583 C1581 1.384 . S
H1584 C1590 0.930 . S
H1585 C1594 0.930 . S
H1586 C1599 0.929 . S
H1587 C1597 0.929 . S
H1588 C1592 0.929 . S
H1589 C1598 0.929 . S
C1590 H1584 0.930 . S
C1590 C1591 1.367 . S
C1590 C1598 1.378 . S
C1591 C1590 1.367 . S
C1591 C1599 1.433 . S
C1592 H1588 0.929 . S
C1592 C1594 1.378 . S
C1592 C1596 1.350 . S
C1593 C1596 1.463 . S
C1593 C1598 1.350 . S
C1593 N1601 1.427 . S
C1594 H1585 0.930 . S
C1594 C1592 1.378 . S
C1594 C1595 1.367 . S
C1595 C1594 1.367 . S
C1595 C1597 1.433 . S
C1596 C1592 1.350 . S
C1596 C1593 1.463 . S
C1596 N1600 1.427 . S
C1597 H1587 0.929 . S
C1597 C1595 1.433 . S
C1597 N1600 1.384 . S
C1598 H1589 0.929 . S
C1598 C1590 1.378 . S
C1598 C1593 1.350 . S
C1599 H1586 0.929 . S
C1599 C1591 1.433 . S
C1599 N1601 1.384 . S
N1600 C1596 1.427 . S
N1600 C1597 1.384 . S
N1601 C1593 1.427 . S
N1601 C1599 1.384 . S
H1602 C1608 0.930 . S
H1603 C1612 0.930 . S
H1604 C1617 0.929 . S
H1605 C1615 0.929 . S
H1606 C1610 0.929 . S
H1607 C1616 0.929 . S
C1608 H1602 0.930 . S
C1608 C1609 1.367 . S
C1608 C1616 1.378 . S
C1609 C1608 1.367 . S
C1609 C1617 1.433 . S
C1610 H1606 0.929 . S
C1610 C1612 1.378 . S
C1610 C1614 1.350 . S
C1611 C1614 1.463 . S
C1611 C1616 1.350 . S
C1611 N1619 1.427 . S
C1612 H1603 0.930 . S
C1612 C1610 1.378 . S
C1612 C1613 1.367 . S
C1613 C1612 1.367 . S
C1613 C1615 1.433 . S
C1614 C1610 1.350 . S
C1614 C1611 1.463 . S
C1614 N1618 1.427 . S
C1615 H1605 0.929 . S
C1615 C1613 1.433 . S
C1615 N1618 1.384 . S
C1616 H1607 0.929 . S
C1616 C1608 1.378 . S
C1616 C1611 1.350 . S
C1617 H1604 0.929 . S
C1617 C1609 1.433 . S
C1617 N1619 1.384 . S
N1618 C1614 1.427 . S
N1618 C1615 1.384 . S
N1619 C1611 1.427 . S
N1619 C1617 1.384 . S
H1620 C1626 0.930 . S
H1621 C1630 0.930 . S
H1622 C1635 0.929 . S
H1623 C1633 0.929 . S
H1624 C1628 0.929 . S
H1625 C1634 0.929 . S
C1626 H1620 0.930 . S
C1626 C1627 1.367 . S
C1626 C1634 1.378 . S
C1627 C1626 1.367 . S
C1627 C1635 1.433 . S
C1628 H1624 0.929 . S
C1628 C1630 1.378 . S
C1628 C1632 1.350 . S
C1629 C1632 1.463 . S
C1629 C1634 1.350 . S
C1629 N1637 1.427 . S
C1630 H1621 0.930 . S
C1630 C1628 1.378 . S
C1630 C1631 1.367 . S
C1631 C1630 1.367 . S
C1631 C1633 1.433 . S
C1632 C1628 1.350 . S
C1632 C1629 1.463 . S
C1632 N1636 1.427 . S
C1633 H1623 0.929 . S
C1633 C1631 1.433 . S
C1633 N1636 1.384 . S
C1634 H1625 0.929 . S
C1634 C1626 1.378 . S
C1634 C1629 1.350 . S
C1635 H1622 0.929 . S
C1635 C1627 1.433 . S
C1635 N1637 1.384 . S
N1636 C1632 1.427 . S
N1636 C1633 1.384 . S
N1637 C1629 1.427 . S
N1637 C1635 1.384 . S
H1638 C1644 0.930 . S
H1639 C1648 0.930 . S
H1640 C1653 0.929 . S
H1641 C1651 0.929 . S
H1642 C1646 0.929 . S
H1643 C1652 0.929 . S
C1644 H1638 0.930 . S
C1644 C1645 1.367 . S
C1644 C1652 1.378 . S
C1645 C1644 1.367 . S
C1645 C1653 1.433 . S
C1646 H1642 0.929 . S
C1646 C1648 1.378 . S
C1646 C1650 1.350 . S
C1647 C1650 1.463 . S
C1647 C1652 1.350 . S
C1647 N1655 1.427 . S
C1648 H1639 0.930 . S
C1648 C1646 1.378 . S
C1648 C1649 1.367 . S
C1649 C1648 1.367 . S
C1649 C1651 1.433 . S
C1650 C1646 1.350 . S
C1650 C1647 1.463 . S
C1650 N1654 1.427 . S
C1651 H1641 0.929 . S
C1651 C1649 1.433 . S
C1651 N1654 1.384 . S
C1652 H1643 0.929 . S
C1652 C1644 1.378 . S
C1652 C1647 1.350 . S
C1653 H1640 0.929 . S
C1653 C1645 1.433 . S
C1653 N1655 1.384 . S
N1654 C1650 1.427 . S
N1654 C1651 1.384 . S
N1655 C1647 1.427 . S
N1655 C1653 1.384 . S
H1656 C1662 0.930 . S
H1657 C1666 0.930 . S
H1658 C1671 0.929 . S
H1659 C1669 0.929 . S
H1660 C1664 0.929 . S
H1661 C1670 0.929 . S
C1662 H1656 0.930 . S
C1662 C1663 1.367 . S
C1662 C1670 1.378 . S
C1663 C1662 1.367 . S
C1663 C1671 1.433 . S
C1664 H1660 0.929 . S
C1664 C1666 1.378 . S
C1664 C1668 1.350 . S
C1665 C1668 1.463 . S
C1665 C1670 1.350 . S
C1665 N1673 1.427 . S
C1666 H1657 0.930 . S
C1666 C1664 1.378 . S
C1666 C1667 1.367 . S
C1667 C1666 1.367 . S
C1667 C1669 1.433 . S
C1668 C1664 1.350 . S
C1668 C1665 1.463 . S
C1668 N1672 1.427 . S
C1669 H1659 0.929 . S
C1669 C1667 1.433 . S
C1669 N1672 1.384 . S
C1670 H1661 0.929 . S
C1670 C1662 1.378 . S
C1670 C1665 1.350 . S
C1671 H1658 0.929 . S
C1671 C1663 1.433 . S
C1671 N1673 1.384 . S
N1672 C1668 1.427 . S
N1672 C1669 1.384 . S
N1673 C1665 1.427 . S
N1673 C1671 1.384 . S
H1674 C1680 0.930 . S
H1675 C1684 0.930 . S
H1676 C1689 0.929 . S
H1677 C1687 0.929 . S
H1678 C1682 0.929 . S
H1679 C1688 0.929 . S
C1680 H1674 0.930 . S
C1680 C1681 1.367 . S
C1680 C1688 1.378 . S
C1681 C1680 1.367 . S
C1681 C1689 1.433 . S
C1682 H1678 0.929 . S
C1682 C1684 1.378 . S
C1682 C1686 1.350 . S
C1683 C1686 1.463 . S
C1683 C1688 1.350 . S
C1683 N1691 1.427 . S
C1684 H1675 0.930 . S
C1684 C1682 1.378 . S
C1684 C1685 1.367 . S
C1685 C1684 1.367 . S
C1685 C1687 1.433 . S
C1686 C1682 1.350 . S
C1686 C1683 1.463 . S
C1686 N1690 1.427 . S
C1687 H1677 0.929 . S
C1687 C1685 1.433 . S
C1687 N1690 1.384 . S
C1688 H1679 0.929 . S
C1688 C1680 1.378 . S
C1688 C1683 1.350 . S
C1689 H1676 0.929 . S
C1689 C1681 1.433 . S
C1689 N1691 1.384 . S
N1690 C1686 1.427 . S
N1690 C1687 1.384 . S
N1691 C1683 1.427 . S
N1691 C1689 1.384 . S
H1692 C1698 0.930 . S
H1693 C1702 0.930 . S
H1694 C1707 0.929 . S
H1695 C1705 0.929 . S
H1696 C1700 0.929 . S
H1697 C1706 0.929 . S
C1698 H1692 0.930 . S
C1698 C1699 1.367 . S
C1698 C1706 1.378 . S
C1699 C1698 1.367 . S
C1699 C1707 1.433 . S
C1700 H1696 0.929 . S
C1700 C1702 1.378 . S
C1700 C1704 1.350 . S
C1701 C1704 1.463 . S
C1701 C1706 1.350 . S
C1701 N1709 1.427 . S
C1702 H1693 0.930 . S
C1702 C1700 1.378 . S
C1702 C1703 1.367 . S
C1703 C1702 1.367 . S
C1703 C1705 1.433 . S
C1704 C1700 1.350 . S
C1704 C1701 1.463 . S
C1704 N1708 1.427 . S
C1705 H1695 0.929 . S
C1705 C1703 1.433 . S
C1705 N1708 1.384 . S
C1706 H1697 0.929 . S
C1706 C1698 1.378 . S
C1706 C1701 1.350 . S
C1707 H1694 0.929 . S
C1707 C1699 1.433 . S
C1707 N1709 1.384 . S
N1708 C1704 1.427 . S
N1708 C1705 1.384 . S
N1709 C1701 1.427 . S
N1709 C1707 1.384 . S
H1710 C1716 0.930 . S
H1711 C1720 0.930 . S
H1712 C1725 0.929 . S
H1713 C1723 0.929 . S
H1714 C1718 0.929 . S
H1715 C1724 0.929 . S
C1716 H1710 0.930 . S
C1716 C1717 1.367 . S
C1716 C1724 1.378 . S
C1717 C1716 1.367 . S
C1717 C1725 1.433 . S
C1718 H1714 0.929 . S
C1718 C1720 1.378 . S
C1718 C1722 1.350 . S
C1719 C1722 1.463 . S
C1719 C1724 1.350 . S
C1719 N1727 1.427 . S
C1720 H1711 0.930 . S
C1720 C1718 1.378 . S
C1720 C1721 1.367 . S
C1721 C1720 1.367 . S
C1721 C1723 1.433 . S
C1722 C1718 1.350 . S
C1722 C1719 1.463 . S
C1722 N1726 1.427 . S
C1723 H1713 0.929 . S
C1723 C1721 1.433 . S
C1723 N1726 1.384 . S
C1724 H1715 0.929 . S
C1724 C1716 1.378 . S
C1724 C1719 1.350 . S
C1725 H1712 0.929 . S
C1725 C1717 1.433 . S
C1725 N1727 1.384 . S
N1726 C1722 1.427 . S
N1726 C1723 1.384 . S
N1727 C1719 1.427 . S
N1727 C1725 1.384 . S
H1728 C1734 0.930 . S
H1729 C1738 0.930 . S
H1730 C1743 0.929 . S
H1731 C1741 0.929 . S
H1732 C1736 0.929 . S
H1733 C1742 0.929 . S
C1734 H1728 0.930 . S
C1734 C1735 1.367 . S
C1734 C1742 1.378 . S
C1735 C1734 1.367 . S
C1735 C1743 1.433 . S
C1736 H1732 0.929 . S
C1736 C1738 1.378 . S
C1736 C1740 1.350 . S
C1737 C1740 1.463 . S
C1737 C1742 1.350 . S
C1737 N1745 1.427 . S
C1738 H1729 0.930 . S
C1738 C1736 1.378 . S
C1738 C1739 1.367 . S
C1739 C1738 1.367 . S
C1739 C1741 1.433 . S
C1740 C1736 1.350 . S
C1740 C1737 1.463 . S
C1740 N1744 1.427 . S
C1741 H1731 0.929 . S
C1741 C1739 1.433 . S
C1741 N1744 1.384 . S
C1742 H1733 0.929 . S
C1742 C1734 1.378 . S
C1742 C1737 1.350 . S
C1743 H1730 0.929 . S
C1743 C1735 1.433 . S
C1743 N1745 1.384 . S
N1744 C1740 1.427 . S
N1744 C1741 1.384 . S
N1745 C1737 1.427 . S
N1745 C1743 1.384 . S
H1746 C1752 0.930 . S
H1747 C1756 0.930 . S
H1748 C1761 0.929 . S
H1749 C1759 0.929 . S
H1750 C1754 0.929 . S
H1751 C1760 0.929 . S
C1752 H1746 0.930 . S
C1752 C1753 1.367 . S
C1752 C1760 1.378 . S
C1753 C1752 1.367 . S
C1753 C1761 1.433 . S
C1754 H1750 0.929 . S
C1754 C1756 1.378 . S
C1754 C1758 1.350 . S
C1755 C1758 1.463 . S
C1755 C1760 1.350 . S
C1755 N1763 1.427 . S
C1756 H1747 0.930 . S
C1756 C1754 1.378 . S
C1756 C1757 1.367 . S
C1757 C1756 1.367 . S
C1757 C1759 1.433 . S
C1758 C1754 1.350 . S
C1758 C1755 1.463 . S
C1758 N1762 1.427 . S
C1759 H1749 0.929 . S
C1759 C1757 1.433 . S
C1759 N1762 1.384 . S
C1760 H1751 0.929 . S
C1760 C1752 1.378 . S
C1760 C1755 1.350 . S
C1761 H1748 0.929 . S
C1761 C1753 1.433 . S
C1761 N1763 1.384 . S
N1762 C1758 1.427 . S
N1762 C1759 1.384 . S
N1763 C1755 1.427 . S
N1763 C1761 1.384 . S
H1764 C1770 0.930 . S
H1765 C1774 0.930 . S
H1766 C1779 0.929 . S
H1767 C1777 0.929 . S
H1768 C1772 0.929 . S
H1769 C1778 0.929 . S
C1770 H1764 0.930 . S
C1770 C1771 1.367 . S
C1770 C1778 1.378 . S
C1771 C1770 1.367 . S
C1771 C1779 1.433 . S
C1772 H1768 0.929 . S
C1772 C1774 1.378 . S
C1772 C1776 1.350 . S
C1773 C1776 1.463 1_656 S
C1773 C1778 1.350 . S
C1773 N1781 1.427 1_556 S
C1774 H1765 0.930 . S
C1774 C1772 1.378 . S
C1774 C1775 1.367 . S
C1775 C1774 1.367 . S
C1775 C1777 1.433 . S
C1776 C1772 1.350 . S
C1776 C1773 1.463 1_454 S
C1776 N1780 1.427 1_554 S
C1777 H1767 0.929 . S
C1777 C1775 1.433 . S
C1777 N1780 1.384 1_554 S
C1778 H1769 0.929 . S
C1778 C1770 1.378 . S
C1778 C1773 1.350 . S
C1779 H1766 0.929 . S
C1779 C1771 1.433 . S
C1779 N1781 1.384 1_556 S
N1780 C1776 1.427 1_556 S
N1780 C1777 1.384 1_556 S
N1781 C1773 1.427 1_554 S
N1781 C1779 1.384 1_554 S
H1782 C1788 0.930 1_554 S
H1783 C1792 0.930 1_556 S
H1784 C1797 0.929 . S
H1785 C1795 0.929 . S
H1786 C1790 0.929 . S
H1787 C1796 0.929 . S
C1788 H1782 0.930 1_556 S
C1788 C1789 1.367 . S
C1788 C1796 1.378 1_556 S
C1789 C1788 1.367 . S
C1789 C1797 1.433 . S
C1790 H1786 0.929 . S
C1790 C1792 1.378 1_556 S
C1790 C1794 1.350 1_556 S
C1791 C1794 1.463 1_556 S
C1791 C1796 1.350 1_556 S
C1791 N1799 1.427 . S
C1792 H1783 0.930 1_554 S
C1792 C1790 1.378 1_554 S
C1792 C1793 1.367 . S
C1793 C1792 1.367 . S
C1793 C1795 1.433 . S
C1794 C1790 1.350 1_554 S
C1794 C1791 1.463 1_554 S
C1794 N1798 1.427 . S
C1795 H1785 0.929 . S
C1795 C1793 1.433 . S
C1795 N1798 1.384 . S
C1796 H1787 0.929 . S
C1796 C1788 1.378 1_554 S
C1796 C1791 1.350 1_554 S
C1797 H1784 0.929 . S
C1797 C1789 1.433 . S
C1797 N1799 1.384 . S
N1798 C1794 1.427 . S
N1798 C1795 1.384 . S
N1799 C1791 1.427 . S
N1799 C1797 1.384 . S
H1800 C1806 0.930 . S
H1801 C1810 0.930 . S
H1802 C1815 0.929 1_556 S
H1803 C1813 0.929 1_554 S
H1804 C1808 0.929 . S
H1805 C1814 0.929 . S
C1806 H1800 0.930 . S
C1806 C1807 1.367 . S
C1806 C1814 1.378 . S
C1807 C1806 1.367 . S
C1807 C1815 1.433 . S
C1808 H1804 0.929 . S
C1808 C1810 1.378 . S
C1808 C1812 1.350 . S
C1809 C1812 1.463 1_564 S
C1809 C1814 1.350 . S
C1809 N1817 1.427 1_554 S
C1810 H1801 0.930 . S
C1810 C1808 1.378 . S
C1810 C1811 1.367 . S
C1811 C1810 1.367 . S
C1811 C1813 1.433 . S
C1812 C1808 1.350 . S
C1812 C1809 1.463 1_546 S
C1812 N1816 1.427 1_556 S
C1813 H1803 0.929 1_556 S
C1813 C1811 1.433 . S
C1813 N1816 1.384 1_556 S
C1814 H1805 0.929 . S
C1814 C1806 1.378 . S
C1814 C1809 1.350 . S
C1815 H1802 0.929 1_554 S
C1815 C1807 1.433 . S
C1815 N1817 1.384 1_554 S
N1816 C1812 1.427 1_554 S
N1816 C1813 1.384 1_554 S
N1817 C1809 1.427 1_556 S
N1817 C1815 1.384 1_556 S
H1818 C1824 0.930 1_556 S
H1819 C1828 0.930 1_554 S
H1820 C1833 0.929 . S
H1821 C1831 0.929 . S
H1822 C1826 0.929 . S
H1823 C1832 0.929 . S
C1824 H1818 0.930 1_554 S
C1824 C1825 1.367 . S
C1824 C1832 1.378 1_554 S
C1825 C1824 1.367 . S
C1825 C1833 1.433 . S
C1826 H1822 0.929 . S
C1826 C1828 1.378 1_554 S
C1826 C1830 1.350 1_554 S
C1827 C1830 1.463 1_564 S
C1827 C1832 1.350 1_554 S
C1827 N1835 1.427 . S
C1828 H1819 0.930 1_556 S
C1828 C1826 1.378 1_556 S
C1828 C1829 1.367 . S
C1829 C1828 1.367 . S
C1829 C1831 1.433 . S
C1830 C1826 1.350 1_556 S
C1830 C1827 1.463 1_546 S
C1830 N1834 1.427 . S
C1831 H1821 0.929 . S
C1831 C1829 1.433 . S
C1831 N1834 1.384 . S
C1832 H1823 0.929 . S
C1832 C1824 1.378 1_556 S
C1832 C1827 1.350 1_556 S
C1833 H1820 0.929 . S
C1833 C1825 1.433 . S
C1833 N1835 1.384 . S
N1834 C1830 1.427 . S
N1834 C1831 1.384 . S
N1835 C1827 1.427 . S
N1835 C1833 1.384 . S
H1836 C1842 0.930 . S
H1837 C1846 0.930 . S
H1838 C1851 0.929 . S
H1839 C1849 0.929 . S
H1840 C1844 0.929 . S
H1841 C1850 0.929 . S
C1842 H1836 0.930 . S
C1842 C1843 1.367 1_554 S
C1842 C1850 1.378 . S
C1843 C1842 1.367 1_556 S
C1843 C1851 1.433 . S
C1844 H1840 0.929 . S
C1844 C1846 1.378 . S
C1844 C1848 1.350 1_556 S
C1845 C1848 1.463 1_656 S
C1845 C1850 1.350 1_556 S
C1845 N1853 1.427 . S
C1846 H1837 0.930 . S
C1846 C1844 1.378 . S
C1846 C1847 1.367 1_556 S
C1847 C1846 1.367 1_554 S
C1847 C1849 1.433 . S
C1848 C1844 1.350 1_554 S
C1848 C1845 1.463 1_454 S
C1848 N1852 1.427 . S
C1849 H1839 0.929 . S
C1849 C1847 1.433 . S
C1849 N1852 1.384 . S
C1850 H1841 0.929 . S
C1850 C1842 1.378 . S
C1850 C1845 1.350 1_554 S
C1851 H1838 0.929 . S
C1851 C1843 1.433 . S
C1851 N1853 1.384 . S
N1852 C1848 1.427 . S
N1852 C1849 1.384 . S
N1853 C1845 1.427 . S
N1853 C1851 1.384 . S
H1854 C1860 0.930 . S
H1855 C1864 0.930 . S
H1856 C1869 0.927 1_554 S
H1857 C1867 0.927 1_556 S
H1858 C1862 0.929 . S
H1859 C1868 0.929 . S
C1860 H1854 0.930 . S
C1860 C1861 1.367 . S
C1860 C1868 1.378 . S
C1861 C1860 1.367 . S
C1861 C1869 1.437 . S
C1862 H1858 0.929 . S
C1862 C1864 1.378 . S
C1862 C1866 1.350 . S
C1863 C1866 1.463 1_556 S
C1863 C1868 1.350 . S
C1863 N1871 1.427 1_556 S
C1864 H1855 0.930 . S
C1864 C1862 1.378 . S
C1864 C1865 1.367 . S
C1865 C1864 1.367 . S
C1865 C1867 1.437 . S
C1866 C1862 1.350 . S
C1866 C1863 1.463 1_554 S
C1866 N1870 1.427 1_554 S
C1867 H1857 0.927 1_554 S
C1867 C1865 1.437 . S
C1867 N1870 1.382 1_554 S
C1868 H1859 0.929 . S
C1868 C1860 1.378 . S
C1868 C1863 1.350 . S
C1869 H1856 0.927 1_556 S
C1869 C1861 1.437 . S
C1869 N1871 1.382 1_556 S
N1870 C1866 1.427 1_556 S
N1870 C1867 1.382 1_556 S
N1871 C1863 1.427 1_554 S
N1871 C1869 1.382 1_554 S
H1872 C1878 0.930 . S
H1873 C1882 0.930 . S
H1874 C1887 0.929 . S
H1875 C1885 0.929 . S
H1876 C1880 0.929 . S
H1877 C1886 0.929 . S
C1878 H1872 0.930 . S
C1878 C1879 1.367 . S
C1878 C1886 1.378 . S
C1879 C1878 1.367 . S
C1879 C1887 1.433 . S
C1880 H1876 0.929 . S
C1880 C1882 1.378 . S
C1880 C1884 1.350 . S
C1881 C1884 1.463 . S
C1881 C1886 1.350 . S
C1881 N1889 1.427 . S
C1882 H1873 0.930 . S
C1882 C1880 1.378 . S
C1882 C1883 1.367 . S
C1883 C1882 1.367 . S
C1883 C1885 1.433 . S
C1884 C1880 1.350 . S
C1884 C1881 1.463 . S
C1884 N1888 1.427 . S
C1885 H1875 0.929 . S
C1885 C1883 1.433 . S
C1885 N1888 1.384 . S
C1886 H1877 0.929 . S
C1886 C1878 1.378 . S
C1886 C1881 1.350 . S
C1887 H1874 0.929 . S
C1887 C1879 1.433 . S
C1887 N1889 1.384 . S
N1888 C1884 1.427 . S
N1888 C1885 1.384 . S
N1889 C1881 1.427 . S
N1889 C1887 1.384 . S
H1890 C1896 0.930 . S
H1891 C1900 0.930 . S
H1892 C1905 0.929 . S
H1893 C1903 0.929 . S
H1894 C1898 0.929 . S
H1895 C1904 0.929 . S
C1896 H1890 0.930 . S
C1896 C1897 1.367 . S
C1896 C1904 1.378 . S
C1897 C1896 1.367 . S
C1897 C1905 1.433 . S
C1898 H1894 0.929 . S
C1898 C1900 1.378 . S
C1898 C1902 1.350 . S
C1899 C1902 1.463 . S
C1899 C1904 1.350 . S
C1899 N1907 1.427 . S
C1900 H1891 0.930 . S
C1900 C1898 1.378 . S
C1900 C1901 1.367 . S
C1901 C1900 1.367 . S
C1901 C1903 1.433 . S
C1902 C1898 1.350 . S
C1902 C1899 1.463 . S
C1902 N1906 1.427 . S
C1903 H1893 0.929 . S
C1903 C1901 1.433 . S
C1903 N1906 1.384 . S
C1904 H1895 0.929 . S
C1904 C1896 1.378 . S
C1904 C1899 1.350 . S
C1905 H1892 0.929 . S
C1905 C1897 1.433 . S
C1905 N1907 1.384 . S
N1906 C1902 1.427 . S
N1906 C1903 1.384 . S
N1907 C1899 1.427 . S
N1907 C1905 1.384 . S
H1908 C1914 0.930 . S
H1909 C1918 0.930 . S
H1910 C1923 0.929 . S
H1911 C1921 0.929 . S
H1912 C1916 0.929 . S
H1913 C1922 0.929 . S
C1914 H1908 0.930 . S
C1914 C1915 1.367 . S
C1914 C1922 1.378 . S
C1915 C1914 1.367 . S
C1915 C1923 1.433 . S
C1916 H1912 0.929 . S
C1916 C1918 1.378 . S
C1916 C1920 1.350 . S
C1917 C1920 1.463 . S
C1917 C1922 1.350 . S
C1917 N1925 1.427 . S
C1918 H1909 0.930 . S
C1918 C1916 1.378 . S
C1918 C1919 1.367 . S
C1919 C1918 1.367 . S
C1919 C1921 1.433 . S
C1920 C1916 1.350 . S
C1920 C1917 1.463 . S
C1920 N1924 1.427 . S
C1921 H1911 0.929 . S
C1921 C1919 1.433 . S
C1921 N1924 1.384 . S
C1922 H1913 0.929 . S
C1922 C1914 1.378 . S
C1922 C1917 1.350 . S
C1923 H1910 0.929 . S
C1923 C1915 1.433 . S
C1923 N1925 1.384 . S
N1924 C1920 1.427 . S
N1924 C1921 1.384 . S
N1925 C1917 1.427 . S
N1925 C1923 1.384 . S
H1926 C1932 0.930 . S
H1927 C1936 0.930 . S
H1928 C1941 0.929 . S
H1929 C1939 0.929 . S
H1930 C1934 0.929 . S
H1931 C1940 0.929 . S
C1932 H1926 0.930 . S
C1932 C1933 1.367 . S
C1932 C1940 1.378 . S
C1933 C1932 1.367 . S
C1933 C1941 1.433 . S
C1934 H1930 0.929 . S
C1934 C1936 1.378 . S
C1934 C1938 1.350 . S
C1935 C1938 1.463 . S
C1935 C1940 1.350 . S
C1935 N1943 1.427 . S
C1936 H1927 0.930 . S
C1936 C1934 1.378 . S
C1936 C1937 1.367 . S
C1937 C1936 1.367 . S
C1937 C1939 1.433 . S
C1938 C1934 1.350 . S
C1938 C1935 1.463 . S
C1938 N1942 1.427 . S
C1939 H1929 0.929 . S
C1939 C1937 1.433 . S
C1939 N1942 1.384 . S
C1940 H1931 0.929 . S
C1940 C1932 1.378 . S
C1940 C1935 1.350 . S
C1941 H1928 0.929 . S
C1941 C1933 1.433 . S
C1941 N1943 1.384 . S
N1942 C1938 1.427 . S
N1942 C1939 1.384 . S
N1943 C1935 1.427 . S
N1943 C1941 1.384 . S
H1944 C1950 0.930 . S
H1945 C1954 0.930 . S
H1946 C1959 0.929 . S
H1947 C1957 0.929 . S
H1948 C1952 0.929 . S
H1949 C1958 0.929 . S
C1950 H1944 0.930 . S
C1950 C1951 1.367 . S
C1950 C1958 1.378 . S
C1951 C1950 1.367 . S
C1951 C1959 1.433 . S
C1952 H1948 0.929 . S
C1952 C1954 1.378 . S
C1952 C1956 1.350 . S
C1953 C1956 1.463 . S
C1953 C1958 1.350 . S
C1953 N1961 1.427 . S
C1954 H1945 0.930 . S
C1954 C1952 1.378 . S
C1954 C1955 1.367 . S
C1955 C1954 1.367 . S
C1955 C1957 1.433 . S
C1956 C1952 1.350 . S
C1956 C1953 1.463 . S
C1956 N1960 1.427 . S
C1957 H1947 0.929 . S
C1957 C1955 1.433 . S
C1957 N1960 1.384 . S
C1958 H1949 0.929 . S
C1958 C1950 1.378 . S
C1958 C1953 1.350 . S
C1959 H1946 0.929 . S
C1959 C1951 1.433 . S
C1959 N1961 1.384 . S
N1960 C1956 1.427 . S
N1960 C1957 1.384 . S
N1961 C1953 1.427 . S
N1961 C1959 1.384 . S
H1962 C1968 0.930 . S
H1963 C1972 0.930 . S
H1964 C1977 0.929 . S
H1965 C1975 0.929 . S
H1966 C1970 0.929 . S
H1967 C1976 0.929 . S
C1968 H1962 0.930 . S
C1968 C1969 1.367 . S
C1968 C1976 1.378 . S
C1969 C1968 1.367 . S
C1969 C1977 1.433 . S
C1970 H1966 0.929 . S
C1970 C1972 1.378 . S
C1970 C1974 1.350 . S
C1971 C1974 1.463 . S
C1971 C1976 1.350 . S
C1971 N1979 1.427 . S
C1972 H1963 0.930 . S
C1972 C1970 1.378 . S
C1972 C1973 1.367 . S
C1973 C1972 1.367 . S
C1973 C1975 1.433 . S
C1974 C1970 1.350 . S
C1974 C1971 1.463 . S
C1974 N1978 1.427 . S
C1975 H1965 0.929 . S
C1975 C1973 1.433 . S
C1975 N1978 1.384 . S
C1976 H1967 0.929 . S
C1976 C1968 1.378 . S
C1976 C1971 1.350 . S
C1977 H1964 0.929 . S
C1977 C1969 1.433 . S
C1977 N1979 1.384 . S
N1978 C1974 1.427 . S
N1978 C1975 1.384 . S
N1979 C1971 1.427 . S
N1979 C1977 1.384 . S
H1980 C1986 0.930 . S
H1981 C1990 0.930 . S
H1982 C1995 0.929 . S
H1983 C1993 0.929 . S
H1984 C1988 0.929 . S
H1985 C1994 0.929 . S
C1986 H1980 0.930 . S
C1986 C1987 1.367 . S
C1986 C1994 1.378 . S
C1987 C1986 1.367 . S
C1987 C1995 1.433 . S
C1988 H1984 0.929 . S
C1988 C1990 1.378 . S
C1988 C1992 1.350 . S
C1989 C1992 1.463 . S
C1989 C1994 1.350 . S
C1989 N1997 1.427 . S
C1990 H1981 0.930 . S
C1990 C1988 1.378 . S
C1990 C1991 1.367 . S
C1991 C1990 1.367 . S
C1991 C1993 1.433 . S
C1992 C1988 1.350 . S
C1992 C1989 1.463 . S
C1992 N1996 1.427 . S
C1993 H1983 0.929 . S
C1993 C1991 1.433 . S
C1993 N1996 1.384 . S
C1994 H1985 0.929 . S
C1994 C1986 1.378 . S
C1994 C1989 1.350 . S
C1995 H1982 0.929 . S
C1995 C1987 1.433 . S
C1995 N1997 1.384 . S
N1996 C1992 1.427 . S
N1996 C1993 1.384 . S
N1997 C1989 1.427 . S
N1997 C1995 1.384 . S
H1998 C2004 0.930 . S
H1999 C2008 0.930 . S
H2000 C2013 0.929 . S
H2001 C2011 0.929 . S
H2002 C2006 0.929 . S
H2003 C2012 0.929 . S
C2004 H1998 0.930 . S
C2004 C2005 1.367 . S
C2004 C2012 1.378 . S
C2005 C2004 1.367 . S
C2005 C2013 1.433 . S
C2006 H2002 0.929 . S
C2006 C2008 1.378 . S
C2006 C2010 1.350 . S
C2007 C2010 1.463 . S
C2007 C2012 1.350 . S
C2007 N2015 1.427 . S
C2008 H1999 0.930 . S
C2008 C2006 1.378 . S
C2008 C2009 1.367 . S
C2009 C2008 1.367 . S
C2009 C2011 1.433 . S
C2010 C2006 1.350 . S
C2010 C2007 1.463 . S
C2010 N2014 1.427 . S
C2011 H2001 0.929 . S
C2011 C2009 1.433 . S
C2011 N2014 1.384 . S
C2012 H2003 0.929 . S
C2012 C2004 1.378 . S
C2012 C2007 1.350 . S
C2013 H2000 0.929 . S
C2013 C2005 1.433 . S
C2013 N2015 1.384 . S
N2014 C2010 1.427 . S
N2014 C2011 1.384 . S
N2015 C2007 1.427 . S
N2015 C2013 1.384 . S
H2016 C2022 0.930 . S
H2017 C2026 0.930 . S
H2018 C2031 0.929 . S
H2019 C2029 0.929 . S
H2020 C2024 0.929 . S
H2021 C2030 0.929 . S
C2022 H2016 0.930 . S
C2022 C2023 1.367 . S
C2022 C2030 1.378 . S
C2023 C2022 1.367 . S
C2023 C2031 1.433 . S
C2024 H2020 0.929 . S
C2024 C2026 1.378 . S
C2024 C2028 1.350 . S
C2025 C2028 1.463 . S
C2025 C2030 1.350 . S
C2025 N2033 1.427 . S
C2026 H2017 0.930 . S
C2026 C2024 1.378 . S
C2026 C2027 1.367 . S
C2027 C2026 1.367 . S
C2027 C2029 1.433 . S
C2028 C2024 1.350 . S
C2028 C2025 1.463 . S
C2028 N2032 1.427 . S
C2029 H2019 0.929 . S
C2029 C2027 1.433 . S
C2029 N2032 1.384 . S
C2030 H2021 0.929 . S
C2030 C2022 1.378 . S
C2030 C2025 1.350 . S
C2031 H2018 0.929 . S
C2031 C2023 1.433 . S
C2031 N2033 1.384 . S
N2032 C2028 1.427 . S
N2032 C2029 1.384 . S
N2033 C2025 1.427 . S
N2033 C2031 1.384 . S
H2034 C2040 0.930 . S
H2035 C2044 0.930 . S
H2036 C2049 0.929 . S
H2037 C2047 0.929 . S
H2038 C2042 0.929 . S
H2039 C2048 0.929 . S
C2040 H2034 0.930 . S
C2040 C2041 1.367 . S
C2040 C2048 1.378 . S
C2041 C2040 1.367 . S
C2041 C2049 1.433 . S
C2042 H2038 0.929 . S
C2042 C2044 1.378 . S
C2042 C2046 1.350 . S
C2043 C2046 1.463 . S
C2043 C2048 1.350 . S
C2043 N2051 1.427 . S
C2044 H2035 0.930 . S
C2044 C2042 1.378 . S
C2044 C2045 1.367 . S
C2045 C2044 1.367 . S
C2045 C2047 1.433 . S
C2046 C2042 1.350 . S
C2046 C2043 1.463 . S
C2046 N2050 1.427 . S
C2047 H2037 0.929 . S
C2047 C2045 1.433 . S
C2047 N2050 1.384 . S
C2048 H2039 0.929 . S
C2048 C2040 1.378 . S
C2048 C2043 1.350 . S
C2049 H2036 0.929 . S
C2049 C2041 1.433 . S
C2049 N2051 1.384 . S
N2050 C2046 1.427 . S
N2050 C2047 1.384 . S
N2051 C2043 1.427 . S
N2051 C2049 1.384 . S
H2052 C2058 0.936 . S
H2053 C2062 0.930 . S
H2054 C2067 0.929 . S
H2055 C2065 0.923 1_556 S
H2056 C2060 0.929 . S
H2057 C2066 0.935 . S
C2058 H2052 0.936 . S
C2058 C2059 1.367 . S
C2058 C2066 1.378 . S
C2059 C2058 1.367 . S
C2059 C2067 1.433 . S
C2060 H2056 0.929 . S
C2060 C2062 1.378 . S
C2060 C2064 1.350 . S
C2061 C2064 1.463 . S
C2061 C2066 1.350 . S
C2061 N2069 1.427 . S
C2062 H2053 0.930 . S
C2062 C2060 1.378 . S
C2062 C2063 1.367 . S
C2063 C2062 1.367 . S
C2063 C2065 1.433 . S
C2064 C2060 1.350 . S
C2064 C2061 1.463 . S
C2064 N2068 1.427 . S
C2065 H2055 0.923 1_554 S
C2065 C2063 1.433 . S
C2065 N2068 1.384 . S
C2066 H2057 0.935 . S
C2066 C2058 1.378 . S
C2066 C2061 1.350 . S
C2067 H2054 0.929 . S
C2067 C2059 1.433 . S
C2067 N2069 1.384 . S
N2068 C2064 1.427 . S
N2068 C2065 1.384 . S
N2069 C2061 1.427 . S
N2069 C2067 1.384 . S
H2070 C2076 0.930 . S
H2071 C2080 0.930 . S
H2072 C2085 0.929 . S
H2073 C2083 0.929 . S
H2074 C2078 0.929 . S
H2075 C2084 0.929 . S
C2076 H2070 0.930 . S
C2076 C2077 1.367 . S
C2076 C2084 1.378 . S
C2077 C2076 1.367 . S
C2077 C2085 1.433 . S
C2078 H2074 0.929 . S
C2078 C2080 1.378 . S
C2078 C2082 1.350 . S
C2079 C2082 1.463 . S
C2079 C2084 1.350 . S
C2079 N2087 1.427 . S
C2080 H2071 0.930 . S
C2080 C2078 1.378 . S
C2080 C2081 1.367 . S
C2081 C2080 1.367 . S
C2081 C2083 1.433 . S
C2082 C2078 1.350 . S
C2082 C2079 1.463 . S
C2082 N2086 1.427 . S
C2083 H2073 0.929 . S
C2083 C2081 1.433 . S
C2083 N2086 1.384 . S
C2084 H2075 0.929 . S
C2084 C2076 1.378 . S
C2084 C2079 1.350 . S
C2085 H2072 0.929 . S
C2085 C2077 1.433 . S
C2085 N2087 1.384 . S
N2086 C2082 1.427 . S
N2086 C2083 1.384 . S
N2087 C2079 1.427 . S
N2087 C2085 1.384 . S
H2088 C2094 0.930 . S
H2089 C2098 0.930 . S
H2090 C2103 0.929 . S
H2091 C2101 0.929 . S
H2092 C2096 0.929 . S
H2093 C2102 0.929 . S
C2094 H2088 0.930 . S
C2094 C2095 1.367 . S
C2094 C2102 1.378 . S
C2095 C2094 1.367 . S
C2095 C2103 1.433 . S
C2096 H2092 0.929 . S
C2096 C2098 1.378 . S
C2096 C2100 1.350 . S
C2097 C2100 1.463 . S
C2097 C2102 1.350 . S
C2097 N2105 1.427 . S
C2098 H2089 0.930 . S
C2098 C2096 1.378 . S
C2098 C2099 1.367 . S
C2099 C2098 1.367 . S
C2099 C2101 1.433 . S
C2100 C2096 1.350 . S
C2100 C2097 1.463 . S
C2100 N2104 1.427 . S
C2101 H2091 0.929 . S
C2101 C2099 1.433 . S
C2101 N2104 1.384 . S
C2102 H2093 0.929 . S
C2102 C2094 1.378 . S
C2102 C2097 1.350 . S
C2103 H2090 0.929 . S
C2103 C2095 1.433 . S
C2103 N2105 1.384 . S
N2104 C2100 1.427 . S
N2104 C2101 1.384 . S
N2105 C2097 1.427 . S
N2105 C2103 1.384 . S
H2106 C2112 0.930 . S
H2107 C2116 0.930 . S
H2108 C2121 0.929 . S
H2109 C2119 0.929 . S
H2110 C2114 0.929 . S
H2111 C2120 0.929 . S
C2112 H2106 0.930 . S
C2112 C2113 1.367 . S
C2112 C2120 1.378 . S
C2113 C2112 1.367 . S
C2113 C2121 1.433 . S
C2114 H2110 0.929 . S
C2114 C2116 1.378 . S
C2114 C2118 1.350 . S
C2115 C2118 1.463 . S
C2115 C2120 1.350 . S
C2115 N2123 1.427 . S
C2116 H2107 0.930 . S
C2116 C2114 1.378 . S
C2116 C2117 1.367 . S
C2117 C2116 1.367 . S
C2117 C2119 1.433 . S
C2118 C2114 1.350 . S
C2118 C2115 1.463 . S
C2118 N2122 1.427 . S
C2119 H2109 0.929 . S
C2119 C2117 1.433 . S
C2119 N2122 1.384 . S
C2120 H2111 0.929 . S
C2120 C2112 1.378 . S
C2120 C2115 1.350 . S
C2121 H2108 0.929 . S
C2121 C2113 1.433 . S
C2121 N2123 1.384 . S
N2122 C2118 1.427 . S
N2122 C2119 1.384 . S
N2123 C2115 1.427 . S
N2123 C2121 1.384 . S
H2124 C2130 0.930 . S
H2125 C2134 0.930 . S
H2126 C2139 0.929 . S
H2127 C2137 0.929 . S
H2128 C2132 0.929 . S
H2129 C2138 0.929 . S
C2130 H2124 0.930 . S
C2130 C2131 1.367 . S
C2130 C2138 1.378 . S
C2131 C2130 1.367 . S
C2131 C2139 1.433 . S
C2132 H2128 0.929 . S
C2132 C2134 1.378 . S
C2132 C2136 1.350 . S
C2133 C2136 1.463 . S
C2133 C2138 1.350 . S
C2133 N2141 1.427 . S
C2134 H2125 0.930 . S
C2134 C2132 1.378 . S
C2134 C2135 1.367 . S
C2135 C2134 1.367 . S
C2135 C2137 1.433 . S
C2136 C2132 1.350 . S
C2136 C2133 1.463 . S
C2136 N2140 1.427 . S
C2137 H2127 0.929 . S
C2137 C2135 1.433 . S
C2137 N2140 1.384 . S
C2138 H2129 0.929 . S
C2138 C2130 1.378 . S
C2138 C2133 1.350 . S
C2139 H2126 0.929 . S
C2139 C2131 1.433 . S
C2139 N2141 1.384 . S
N2140 C2136 1.427 . S
N2140 C2137 1.384 . S
N2141 C2133 1.427 . S
N2141 C2139 1.384 . S
H2142 C2148 0.930 . S
H2143 C2152 0.930 . S
H2144 C2157 0.929 . S
H2145 C2155 0.929 . S
H2146 C2150 0.929 . S
H2147 C2156 0.929 . S
C2148 H2142 0.930 . S
C2148 C2149 1.367 . S
C2148 C2156 1.378 . S
C2149 C2148 1.367 . S
C2149 C2157 1.433 . S
C2150 H2146 0.929 . S
C2150 C2152 1.378 . S
C2150 C2154 1.350 . S
C2151 C2154 1.463 . S
C2151 C2156 1.350 . S
C2151 N2159 1.427 . S
C2152 H2143 0.930 . S
C2152 C2150 1.378 . S
C2152 C2153 1.367 . S
C2153 C2152 1.367 . S
C2153 C2155 1.433 . S
C2154 C2150 1.350 . S
C2154 C2151 1.463 . S
C2154 N2158 1.427 . S
C2155 H2145 0.929 . S
C2155 C2153 1.433 . S
C2155 N2158 1.384 . S
C2156 H2147 0.929 . S
C2156 C2148 1.378 . S
C2156 C2151 1.350 . S
C2157 H2144 0.929 . S
C2157 C2149 1.433 . S
C2157 N2159 1.384 . S
N2158 C2154 1.427 . S
N2158 C2155 1.384 . S
N2159 C2151 1.427 . S
N2159 C2157 1.384 . S
H2160 C2166 0.930 . S
H2161 C2170 0.930 . S
H2162 C2175 0.929 . S
H2163 C2173 0.929 . S
H2164 C2168 0.929 . S
H2165 C2174 0.929 . S
C2166 H2160 0.930 . S
C2166 C2167 1.367 . S
C2166 C2174 1.378 . S
C2167 C2166 1.367 . S
C2167 C2175 1.433 . S
C2168 H2164 0.929 . S
C2168 C2170 1.378 . S
C2168 C2172 1.350 . S
C2169 C2172 1.463 . S
C2169 C2174 1.350 . S
C2169 N2177 1.427 . S
C2170 H2161 0.930 . S
C2170 C2168 1.378 . S
C2170 C2171 1.367 . S
C2171 C2170 1.367 . S
C2171 C2173 1.433 . S
C2172 C2168 1.350 . S
C2172 C2169 1.463 . S
C2172 N2176 1.427 . S
C2173 H2163 0.929 . S
C2173 C2171 1.433 . S
C2173 N2176 1.384 . S
C2174 H2165 0.929 . S
C2174 C2166 1.378 . S
C2174 C2169 1.350 . S
C2175 H2162 0.929 . S
C2175 C2167 1.433 . S
C2175 N2177 1.384 . S
N2176 C2172 1.427 . S
N2176 C2173 1.384 . S
N2177 C2169 1.427 . S
N2177 C2175 1.384 . S
H2178 C2184 0.930 . S
H2179 C2188 0.930 . S
H2180 C2193 0.929 . S
H2181 C2191 0.929 . S
H2182 C2186 0.929 . S
H2183 C2192 0.929 . S
C2184 H2178 0.930 . S
C2184 C2185 1.367 . S
C2184 C2192 1.378 . S
C2185 C2184 1.367 . S
C2185 C2193 1.433 . S
C2186 H2182 0.929 . S
C2186 C2188 1.378 . S
C2186 C2190 1.350 . S
C2187 C2190 1.463 . S
C2187 C2192 1.350 . S
C2187 N2195 1.427 . S
C2188 H2179 0.930 . S
C2188 C2186 1.378 . S
C2188 C2189 1.367 . S
C2189 C2188 1.367 . S
C2189 C2191 1.433 . S
C2190 C2186 1.350 . S
C2190 C2187 1.463 . S
C2190 N2194 1.427 . S
C2191 H2181 0.929 . S
C2191 C2189 1.433 . S
C2191 N2194 1.384 . S
C2192 H2183 0.929 . S
C2192 C2184 1.378 . S
C2192 C2187 1.350 . S
C2193 H2180 0.929 . S
C2193 C2185 1.433 . S
C2193 N2195 1.384 . S
N2194 C2190 1.427 . S
N2194 C2191 1.384 . S
N2195 C2187 1.427 . S
N2195 C2193 1.384 . S
H2196 C2202 0.930 . S
H2197 C2206 0.930 . S
H2198 C2211 0.929 . S
H2199 C2209 0.929 . S
H2200 C2204 0.929 . S
H2201 C2210 0.929 . S
C2202 H2196 0.930 . S
C2202 C2203 1.367 . S
C2202 C2210 1.378 . S
C2203 C2202 1.367 . S
C2203 C2211 1.433 . S
C2204 H2200 0.929 . S
C2204 C2206 1.378 . S
C2204 C2208 1.350 . S
C2205 C2208 1.463 . S
C2205 C2210 1.350 . S
C2205 N2213 1.427 . S
C2206 H2197 0.930 . S
C2206 C2204 1.378 . S
C2206 C2207 1.367 . S
C2207 C2206 1.367 . S
C2207 C2209 1.433 . S
C2208 C2204 1.350 . S
C2208 C2205 1.463 . S
C2208 N2212 1.427 . S
C2209 H2199 0.929 . S
C2209 C2207 1.433 . S
C2209 N2212 1.384 . S
C2210 H2201 0.929 . S
C2210 C2202 1.378 . S
C2210 C2205 1.350 . S
C2211 H2198 0.929 . S
C2211 C2203 1.433 . S
C2211 N2213 1.384 . S
N2212 C2208 1.427 . S
N2212 C2209 1.384 . S
N2213 C2205 1.427 . S
N2213 C2211 1.384 . S
H2214 C2220 0.930 . S
H2215 C2224 0.930 . S
H2216 C2229 0.929 . S
H2217 C2227 0.929 . S
H2218 C2222 0.929 . S
H2219 C2228 0.929 . S
C2220 H2214 0.930 . S
C2220 C2221 1.367 . S
C2220 C2228 1.378 . S
C2221 C2220 1.367 . S
C2221 C2229 1.433 . S
C2222 H2218 0.929 . S
C2222 C2224 1.378 . S
C2222 C2226 1.350 . S
C2223 C2226 1.463 . S
C2223 C2228 1.350 . S
C2223 N2231 1.427 . S
C2224 H2215 0.930 . S
C2224 C2222 1.378 . S
C2224 C2225 1.367 . S
C2225 C2224 1.367 . S
C2225 C2227 1.433 . S
C2226 C2222 1.350 . S
C2226 C2223 1.463 . S
C2226 N2230 1.427 . S
C2227 H2217 0.929 . S
C2227 C2225 1.433 . S
C2227 N2230 1.384 . S
C2228 H2219 0.929 . S
C2228 C2220 1.378 . S
C2228 C2223 1.350 . S
C2229 H2216 0.929 . S
C2229 C2221 1.433 . S
C2229 N2231 1.384 . S
N2230 C2226 1.427 . S
N2230 C2227 1.384 . S
N2231 C2223 1.427 . S
N2231 C2229 1.384 . S
H2232 C2238 0.930 . S
H2233 C2242 0.930 . S
H2234 C2247 0.929 . S
H2235 C2245 0.929 . S
H2236 C2240 0.929 . S
H2237 C2246 0.929 . S
C2238 H2232 0.930 . S
C2238 C2239 1.367 . S
C2238 C2246 1.378 . S
C2239 C2238 1.367 . S
C2239 C2247 1.433 . S
C2240 H2236 0.929 . S
C2240 C2242 1.378 . S
C2240 C2244 1.350 . S
C2241 C2244 1.463 . S
C2241 C2246 1.350 . S
C2241 N2249 1.427 . S
C2242 H2233 0.930 . S
C2242 C2240 1.378 . S
C2242 C2243 1.367 . S
C2243 C2242 1.367 . S
C2243 C2245 1.433 . S
C2244 C2240 1.350 . S
C2244 C2241 1.463 . S
C2244 N2248 1.427 . S
C2245 H2235 0.929 . S
C2245 C2243 1.433 . S
C2245 N2248 1.384 . S
C2246 H2237 0.929 . S
C2246 C2238 1.378 . S
C2246 C2241 1.350 . S
C2247 H2234 0.929 . S
C2247 C2239 1.433 . S
C2247 N2249 1.384 . S
N2248 C2244 1.427 . S
N2248 C2245 1.384 . S
N2249 C2241 1.427 . S
N2249 C2247 1.384 . S
H2250 C2256 0.930 . S
H2251 C2260 0.930 . S
H2252 C2265 0.929 . S
H2253 C2263 0.929 . S
H2254 C2258 0.929 . S
H2255 C2264 0.929 . S
C2256 H2250 0.930 . S
C2256 C2257 1.367 . S
C2256 C2264 1.378 . S
C2257 C2256 1.367 . S
C2257 C2265 1.433 . S
C2258 H2254 0.929 . S
C2258 C2260 1.378 . S
C2258 C2262 1.350 . S
C2259 C2262 1.463 . S
C2259 C2264 1.350 . S
C2259 N2267 1.427 . S
C2260 H2251 0.930 . S
C2260 C2258 1.378 . S
C2260 C2261 1.367 . S
C2261 C2260 1.367 . S
C2261 C2263 1.433 . S
C2262 C2258 1.350 . S
C2262 C2259 1.463 . S
C2262 N2266 1.427 . S
C2263 H2253 0.929 . S
C2263 C2261 1.433 . S
C2263 N2266 1.384 . S
C2264 H2255 0.929 . S
C2264 C2256 1.378 . S
C2264 C2259 1.350 . S
C2265 H2252 0.929 . S
C2265 C2257 1.433 . S
C2265 N2267 1.384 . S
N2266 C2262 1.427 . S
N2266 C2263 1.384 . S
N2267 C2259 1.427 . S
N2267 C2265 1.384 . S
H2268 C2274 0.930 . S
H2269 C2278 0.930 . S
H2270 C2283 0.929 . S
H2271 C2281 0.929 . S
H2272 C2276 0.929 . S
H2273 C2282 0.929 . S
C2274 H2268 0.930 . S
C2274 C2275 1.367 . S
C2274 C2282 1.378 . S
C2275 C2274 1.367 . S
C2275 C2283 1.433 . S
C2276 H2272 0.929 . S
C2276 C2278 1.378 . S
C2276 C2280 1.350 . S
C2277 C2280 1.463 . S
C2277 C2282 1.350 . S
C2277 N2285 1.427 . S
C2278 H2269 0.930 . S
C2278 C2276 1.378 . S
C2278 C2279 1.367 . S
C2279 C2278 1.367 . S
C2279 C2281 1.433 . S
C2280 C2276 1.350 . S
C2280 C2277 1.463 . S
C2280 N2284 1.427 . S
C2281 H2271 0.929 . S
C2281 C2279 1.433 . S
C2281 N2284 1.384 . S
C2282 H2273 0.929 . S
C2282 C2274 1.378 . S
C2282 C2277 1.350 . S
C2283 H2270 0.929 . S
C2283 C2275 1.433 . S
C2283 N2285 1.384 . S
N2284 C2280 1.427 . S
N2284 C2281 1.384 . S
N2285 C2277 1.427 . S
N2285 C2283 1.384 . S
H2286 C2292 0.930 . S
H2287 C2296 0.930 . S
H2288 C2301 0.929 . S
H2289 C2299 0.929 . S
H2290 C2294 0.929 . S
H2291 C2300 0.929 . S
C2292 H2286 0.930 . S
C2292 C2293 1.367 . S
C2292 C2300 1.378 . S
C2293 C2292 1.367 . S
C2293 C2301 1.433 . S
C2294 H2290 0.929 . S
C2294 C2296 1.378 . S
C2294 C2298 1.350 . S
C2295 C2298 1.463 . S
C2295 C2300 1.350 . S
C2295 N2303 1.427 . S
C2296 H2287 0.930 . S
C2296 C2294 1.378 . S
C2296 C2297 1.367 . S
C2297 C2296 1.367 . S
C2297 C2299 1.433 . S
C2298 C2294 1.350 . S
C2298 C2295 1.463 . S
C2298 N2302 1.427 . S
C2299 H2289 0.929 . S
C2299 C2297 1.433 . S
C2299 N2302 1.384 . S
C2300 H2291 0.929 . S
C2300 C2292 1.378 . S
C2300 C2295 1.350 . S
C2301 H2288 0.929 . S
C2301 C2293 1.433 . S
C2301 N2303 1.384 . S
N2302 C2298 1.427 . S
N2302 C2299 1.384 . S
N2303 C2295 1.427 . S
N2303 C2301 1.384 . S
H2304 C2310 0.930 . S
H2305 C2314 0.930 . S
H2306 C2319 0.929 . S
H2307 C2317 0.929 . S
H2308 C2312 0.929 . S
H2309 C2318 0.929 . S
C2310 H2304 0.930 . S
C2310 C2311 1.367 . S
C2310 C2318 1.378 . S
C2311 C2310 1.367 . S
C2311 C2319 1.433 . S
C2312 H2308 0.929 . S
C2312 C2314 1.378 . S
C2312 C2316 1.350 . S
C2313 C2316 1.463 . S
C2313 C2318 1.350 . S
C2313 N2321 1.427 . S
C2314 H2305 0.930 . S
C2314 C2312 1.378 . S
C2314 C2315 1.367 . S
C2315 C2314 1.367 . S
C2315 C2317 1.433 . S
C2316 C2312 1.350 . S
C2316 C2313 1.463 . S
C2316 N2320 1.427 . S
C2317 H2307 0.929 . S
C2317 C2315 1.433 . S
C2317 N2320 1.384 . S
C2318 H2309 0.929 . S
C2318 C2310 1.378 . S
C2318 C2313 1.350 . S
C2319 H2306 0.929 . S
C2319 C2311 1.433 . S
C2319 N2321 1.384 . S
N2320 C2316 1.427 . S
N2320 C2317 1.384 . S
N2321 C2313 1.427 . S
N2321 C2319 1.384 . S
H2322 C2328 0.930 . S
H2323 C2332 0.930 . S
H2324 C2337 0.929 . S
H2325 C2335 0.929 . S
H2326 C2330 0.929 . S
H2327 C2336 0.929 . S
C2328 H2322 0.930 . S
C2328 C2329 1.367 . S
C2328 C2336 1.378 . S
C2329 C2328 1.367 . S
C2329 C2337 1.433 . S
C2330 H2326 0.929 . S
C2330 C2332 1.378 . S
C2330 C2334 1.350 . S
C2331 C2334 1.463 . S
C2331 C2336 1.350 . S
C2331 N2339 1.427 . S
C2332 H2323 0.930 . S
C2332 C2330 1.378 . S
C2332 C2333 1.367 . S
C2333 C2332 1.367 . S
C2333 C2335 1.433 . S
C2334 C2330 1.350 . S
C2334 C2331 1.463 . S
C2334 N2338 1.427 . S
C2335 H2325 0.929 . S
C2335 C2333 1.433 . S
C2335 N2338 1.384 . S
C2336 H2327 0.929 . S
C2336 C2328 1.378 . S
C2336 C2331 1.350 . S
C2337 H2324 0.929 . S
C2337 C2329 1.433 . S
C2337 N2339 1.384 . S
N2338 C2334 1.427 . S
N2338 C2335 1.384 . S
N2339 C2331 1.427 . S
N2339 C2337 1.384 . S
H2340 C2346 0.930 . S
H2341 C2350 0.930 . S
H2342 C2355 0.929 . S
H2343 C2353 0.929 . S
H2344 C2348 0.929 . S
H2345 C2354 0.929 . S
C2346 H2340 0.930 . S
C2346 C2347 1.367 . S
C2346 C2354 1.378 . S
C2347 C2346 1.367 . S
C2347 C2355 1.433 . S
C2348 H2344 0.929 . S
C2348 C2350 1.378 . S
C2348 C2352 1.350 . S
C2349 C2352 1.463 . S
C2349 C2354 1.350 . S
C2349 N2357 1.427 . S
C2350 H2341 0.930 . S
C2350 C2348 1.378 . S
C2350 C2351 1.367 . S
C2351 C2350 1.367 . S
C2351 C2353 1.433 . S
C2352 C2348 1.350 . S
C2352 C2349 1.463 . S
C2352 N2356 1.427 . S
C2353 H2343 0.929 . S
C2353 C2351 1.433 . S
C2353 N2356 1.384 . S
C2354 H2345 0.929 . S
C2354 C2346 1.378 . S
C2354 C2349 1.350 . S
C2355 H2342 0.929 . S
C2355 C2347 1.433 . S
C2355 N2357 1.384 . S
N2356 C2352 1.427 . S
N2356 C2353 1.384 . S
N2357 C2349 1.427 . S
N2357 C2355 1.384 . S
H2358 C2364 0.930 . S
H2359 C2368 0.930 . S
H2360 C2373 0.929 . S
H2361 C2371 0.929 . S
H2362 C2366 0.929 . S
H2363 C2372 0.929 . S
C2364 H2358 0.930 . S
C2364 C2365 1.367 . S
C2364 C2372 1.378 . S
C2365 C2364 1.367 . S
C2365 C2373 1.433 . S
C2366 H2362 0.929 . S
C2366 C2368 1.378 . S
C2366 C2370 1.350 . S
C2367 C2370 1.463 . S
C2367 C2372 1.350 . S
C2367 N2375 1.427 . S
C2368 H2359 0.930 . S
C2368 C2366 1.378 . S
C2368 C2369 1.367 . S
C2369 C2368 1.367 . S
C2369 C2371 1.433 . S
C2370 C2366 1.350 . S
C2370 C2367 1.463 . S
C2370 N2374 1.427 . S
C2371 H2361 0.929 . S
C2371 C2369 1.433 . S
C2371 N2374 1.384 . S
C2372 H2363 0.929 . S
C2372 C2364 1.378 . S
C2372 C2367 1.350 . S
C2373 H2360 0.929 . S
C2373 C2365 1.433 . S
C2373 N2375 1.384 . S
N2374 C2370 1.427 . S
N2374 C2371 1.384 . S
N2375 C2367 1.427 . S
N2375 C2373 1.384 . S
H2376 C2382 0.930 . S
H2377 C2386 0.930 . S
H2378 C2391 0.929 . S
H2379 C2389 0.929 . S
H2380 C2384 0.929 . S
H2381 C2390 0.929 . S
C2382 H2376 0.930 . S
C2382 C2383 1.367 . S
C2382 C2390 1.378 . S
C2383 C2382 1.367 . S
C2383 C2391 1.433 . S
C2384 H2380 0.929 . S
C2384 C2386 1.378 . S
C2384 C2388 1.350 . S
C2385 C2388 1.463 . S
C2385 C2390 1.350 . S
C2385 N2393 1.427 . S
C2386 H2377 0.930 . S
C2386 C2384 1.378 . S
C2386 C2387 1.367 . S
C2387 C2386 1.367 . S
C2387 C2389 1.433 . S
C2388 C2384 1.350 . S
C2388 C2385 1.463 . S
C2388 N2392 1.427 . S
C2389 H2379 0.929 . S
C2389 C2387 1.433 . S
C2389 N2392 1.384 . S
C2390 H2381 0.929 . S
C2390 C2382 1.378 . S
C2390 C2385 1.350 . S
C2391 H2378 0.929 . S
C2391 C2383 1.433 . S
C2391 N2393 1.384 . S
N2392 C2388 1.427 . S
N2392 C2389 1.384 . S
N2393 C2385 1.427 . S
N2393 C2391 1.384 . S
H2394 C2400 0.930 . S
H2395 C2404 0.930 . S
H2396 C2409 0.929 . S
H2397 C2407 0.929 . S
H2398 C2402 0.929 . S
H2399 C2408 0.929 . S
C2400 H2394 0.930 . S
C2400 C2401 1.367 . S
C2400 C2408 1.378 . S
C2401 C2400 1.367 . S
C2401 C2409 1.433 . S
C2402 H2398 0.929 . S
C2402 C2404 1.378 . S
C2402 C2406 1.350 . S
C2403 C2406 1.463 . S
C2403 C2408 1.350 . S
C2403 N2411 1.427 . S
C2404 H2395 0.930 . S
C2404 C2402 1.378 . S
C2404 C2405 1.367 . S
C2405 C2404 1.367 . S
C2405 C2407 1.433 . S
C2406 C2402 1.350 . S
C2406 C2403 1.463 . S
C2406 N2410 1.427 . S
C2407 H2397 0.929 . S
C2407 C2405 1.433 . S
C2407 N2410 1.384 . S
C2408 H2399 0.929 . S
C2408 C2400 1.378 . S
C2408 C2403 1.350 . S
C2409 H2396 0.929 . S
C2409 C2401 1.433 . S
C2409 N2411 1.384 . S
N2410 C2406 1.427 . S
N2410 C2407 1.384 . S
N2411 C2403 1.427 . S
N2411 C2409 1.384 . S
H2412 C2418 0.930 . S
H2413 C2422 0.930 . S
H2414 C2427 0.929 . S
H2415 C2425 0.929 . S
H2416 C2420 0.929 . S
H2417 C2426 0.929 . S
C2418 H2412 0.930 . S
C2418 C2419 1.367 . S
C2418 C2426 1.378 . S
C2419 C2418 1.367 . S
C2419 C2427 1.433 . S
C2420 H2416 0.929 . S
C2420 C2422 1.378 . S
C2420 C2424 1.350 . S
C2421 C2424 1.463 1_556 S
C2421 C2426 1.350 . S
C2421 N2429 1.427 . S
C2422 H2413 0.930 . S
C2422 C2420 1.378 . S
C2422 C2423 1.367 . S
C2423 C2422 1.367 . S
C2423 C2425 1.433 . S
C2424 C2420 1.350 . S
C2424 C2421 1.463 1_554 S
C2424 N2428 1.427 . S
C2425 H2415 0.929 . S
C2425 C2423 1.433 . S
C2425 N2428 1.384 . S
C2426 H2417 0.929 . S
C2426 C2418 1.378 . S
C2426 C2421 1.350 . S
C2427 H2414 0.929 . S
C2427 C2419 1.433 . S
C2427 N2429 1.384 . S
N2428 C2424 1.427 . S
N2428 C2425 1.384 . S
N2429 C2421 1.427 . S
N2429 C2427 1.384 . S
H2430 C2436 0.930 . S
H2431 C2440 0.930 . S
H2432 C2445 0.929 . S
H2433 C2443 0.929 . S
H2434 C2438 0.929 . S
H2435 C2444 0.929 . S
C2436 H2430 0.930 . S
C2436 C2437 1.367 . S
C2436 C2444 1.378 . S
C2437 C2436 1.367 . S
C2437 C2445 1.433 . S
C2438 H2434 0.929 . S
C2438 C2440 1.378 . S
C2438 C2442 1.350 . S
C2439 C2442 1.463 1_556 S
C2439 C2444 1.350 . S
C2439 N2447 1.427 . S
C2440 H2431 0.930 . S
C2440 C2438 1.378 . S
C2440 C2441 1.367 . S
C2441 C2440 1.367 . S
C2441 C2443 1.433 . S
C2442 C2438 1.350 . S
C2442 C2439 1.463 1_554 S
C2442 N2446 1.427 . S
C2443 H2433 0.929 . S
C2443 C2441 1.433 . S
C2443 N2446 1.384 . S
C2444 H2435 0.929 . S
C2444 C2436 1.378 . S
C2444 C2439 1.350 . S
C2445 H2432 0.929 . S
C2445 C2437 1.433 . S
C2445 N2447 1.384 . S
N2446 C2442 1.427 . S
N2446 C2443 1.384 . S
N2447 C2439 1.427 . S
N2447 C2445 1.384 . S
H2448 C2454 0.930 . S
H2449 C2458 0.930 . S
H2450 C2463 0.929 . S
H2451 C2461 0.929 . S
H2452 C2456 0.929 . S
H2453 C2462 0.929 . S
C2454 H2448 0.930 . S
C2454 C2455 1.367 . S
C2454 C2462 1.378 . S
C2455 C2454 1.367 . S
C2455 C2463 1.433 . S
C2456 H2452 0.929 . S
C2456 C2458 1.378 . S
C2456 C2460 1.350 . S
C2457 C2460 1.463 1_556 S
C2457 C2462 1.350 . S
C2457 N2465 1.427 . S
C2458 H2449 0.930 . S
C2458 C2456 1.378 . S
C2458 C2459 1.367 . S
C2459 C2458 1.367 . S
C2459 C2461 1.433 . S
C2460 C2456 1.350 . S
C2460 C2457 1.463 1_554 S
C2460 N2464 1.427 . S
C2461 H2451 0.929 . S
C2461 C2459 1.433 . S
C2461 N2464 1.384 . S
C2462 H2453 0.929 . S
C2462 C2454 1.378 . S
C2462 C2457 1.350 . S
C2463 H2450 0.929 . S
C2463 C2455 1.433 . S
C2463 N2465 1.384 . S
N2464 C2460 1.427 . S
N2464 C2461 1.384 . S
N2465 C2457 1.427 . S
N2465 C2463 1.384 . S
H2466 C2472 0.930 . S
H2467 C2476 0.930 . S
H2468 C2481 0.929 . S
H2469 C2479 0.929 . S
H2470 C2474 0.929 . S
H2471 C2480 0.929 . S
C2472 H2466 0.930 . S
C2472 C2473 1.367 . S
C2472 C2480 1.378 . S
C2473 C2472 1.367 . S
C2473 C2481 1.433 . S
C2474 H2470 0.929 . S
C2474 C2476 1.378 . S
C2474 C2478 1.350 . S
C2475 C2478 1.463 . S
C2475 C2480 1.350 . S
C2475 N2483 1.427 . S
C2476 H2467 0.930 . S
C2476 C2474 1.378 . S
C2476 C2477 1.367 . S
C2477 C2476 1.367 . S
C2477 C2479 1.433 . S
C2478 C2474 1.350 . S
C2478 C2475 1.463 . S
C2478 N2482 1.427 . S
C2479 H2469 0.929 . S
C2479 C2477 1.433 . S
C2479 N2482 1.384 . S
C2480 H2471 0.929 . S
C2480 C2472 1.378 . S
C2480 C2475 1.350 . S
C2481 H2468 0.929 . S
C2481 C2473 1.433 . S
C2481 N2483 1.384 . S
N2482 C2478 1.427 . S
N2482 C2479 1.384 . S
N2483 C2475 1.427 . S
N2483 C2481 1.384 . S
H2484 C2490 0.930 . S
H2485 C2494 0.930 . S
H2486 C2499 0.929 . S
H2487 C2497 0.929 . S
H2488 C2492 0.929 . S
H2489 C2498 0.929 . S
C2490 H2484 0.930 . S
C2490 C2491 1.367 . S
C2490 C2498 1.378 . S
C2491 C2490 1.367 . S
C2491 C2499 1.433 . S
C2492 H2488 0.929 . S
C2492 C2494 1.378 . S
C2492 C2496 1.350 . S
C2493 C2496 1.463 . S
C2493 C2498 1.350 . S
C2493 N2501 1.427 . S
C2494 H2485 0.930 . S
C2494 C2492 1.378 . S
C2494 C2495 1.367 . S
C2495 C2494 1.367 . S
C2495 C2497 1.433 . S
C2496 C2492 1.350 . S
C2496 C2493 1.463 . S
C2496 N2500 1.427 . S
C2497 H2487 0.929 . S
C2497 C2495 1.433 . S
C2497 N2500 1.384 . S
C2498 H2489 0.929 . S
C2498 C2490 1.378 . S
C2498 C2493 1.350 . S
C2499 H2486 0.929 . S
C2499 C2491 1.433 . S
C2499 N2501 1.384 . S
N2500 C2496 1.427 . S
N2500 C2497 1.384 . S
N2501 C2493 1.427 . S
N2501 C2499 1.384 . S
H2502 C2508 0.930 . S
H2503 C2512 0.930 . S
H2504 C2517 0.929 . S
H2505 C2515 0.929 . S
H2506 C2510 0.929 . S
H2507 C2516 0.929 . S
C2508 H2502 0.930 . S
C2508 C2509 1.367 . S
C2508 C2516 1.378 . S
C2509 C2508 1.367 . S
C2509 C2517 1.433 . S
C2510 H2506 0.929 . S
C2510 C2512 1.378 . S
C2510 C2514 1.350 . S
C2511 C2514 1.463 . S
C2511 C2516 1.350 . S
C2511 N2519 1.427 . S
C2512 H2503 0.930 . S
C2512 C2510 1.378 . S
C2512 C2513 1.367 . S
C2513 C2512 1.367 . S
C2513 C2515 1.433 . S
C2514 C2510 1.350 . S
C2514 C2511 1.463 . S
C2514 N2518 1.427 . S
C2515 H2505 0.929 . S
C2515 C2513 1.433 . S
C2515 N2518 1.384 . S
C2516 H2507 0.929 . S
C2516 C2508 1.378 . S
C2516 C2511 1.350 . S
C2517 H2504 0.929 . S
C2517 C2509 1.433 . S
C2517 N2519 1.384 . S
N2518 C2514 1.427 . S
N2518 C2515 1.384 . S
N2519 C2511 1.427 . S
N2519 C2517 1.384 . S
H2520 C2526 0.930 . S
H2521 C2530 0.930 . S
H2522 C2535 0.929 . S
H2523 C2533 0.929 . S
H2524 C2528 0.929 . S
H2525 C2534 0.929 . S
C2526 H2520 0.930 . S
C2526 C2527 1.367 . S
C2526 C2534 1.378 . S
C2527 C2526 1.367 . S
C2527 C2535 1.433 . S
C2528 H2524 0.929 . S
C2528 C2530 1.378 . S
C2528 C2532 1.350 . S
C2529 C2532 1.463 . S
C2529 C2534 1.350 . S
C2529 N2537 1.427 . S
C2530 H2521 0.930 . S
C2530 C2528 1.378 . S
C2530 C2531 1.367 . S
C2531 C2530 1.367 . S
C2531 C2533 1.433 . S
C2532 C2528 1.350 . S
C2532 C2529 1.463 . S
C2532 N2536 1.427 . S
C2533 H2523 0.929 . S
C2533 C2531 1.433 . S
C2533 N2536 1.384 . S
C2534 H2525 0.929 . S
C2534 C2526 1.378 . S
C2534 C2529 1.350 . S
C2535 H2522 0.929 . S
C2535 C2527 1.433 . S
C2535 N2537 1.384 . S
N2536 C2532 1.427 . S
N2536 C2533 1.384 . S
N2537 C2529 1.427 . S
N2537 C2535 1.384 . S
H2538 C2544 0.930 . S
H2539 C2548 0.930 . S
H2540 C2553 0.929 . S
H2541 C2551 0.929 . S
H2542 C2546 0.929 . S
H2543 C2552 0.929 . S
C2544 H2538 0.930 . S
C2544 C2545 1.367 . S
C2544 C2552 1.378 . S
C2545 C2544 1.367 . S
C2545 C2553 1.433 . S
C2546 H2542 0.929 . S
C2546 C2548 1.378 . S
C2546 C2550 1.350 . S
C2547 C2550 1.463 . S
C2547 C2552 1.350 . S
C2547 N2555 1.427 . S
C2548 H2539 0.930 . S
C2548 C2546 1.378 . S
C2548 C2549 1.367 . S
C2549 C2548 1.367 . S
C2549 C2551 1.433 . S
C2550 C2546 1.350 . S
C2550 C2547 1.463 . S
C2550 N2554 1.427 . S
C2551 H2541 0.929 . S
C2551 C2549 1.433 . S
C2551 N2554 1.384 . S
C2552 H2543 0.929 . S
C2552 C2544 1.378 . S
C2552 C2547 1.350 . S
C2553 H2540 0.929 . S
C2553 C2545 1.433 . S
C2553 N2555 1.384 . S
N2554 C2550 1.427 . S
N2554 C2551 1.384 . S
N2555 C2547 1.427 . S
N2555 C2553 1.384 . S
H2556 C2562 0.930 . S
H2557 C2566 0.930 . S
H2558 C2571 0.929 . S
H2559 C2569 0.929 . S
H2560 C2564 0.929 . S
H2561 C2570 0.929 . S
C2562 H2556 0.930 . S
C2562 C2563 1.367 . S
C2562 C2570 1.378 . S
C2563 C2562 1.367 . S
C2563 C2571 1.433 . S
C2564 H2560 0.929 . S
C2564 C2566 1.378 . S
C2564 C2568 1.350 . S
C2565 C2568 1.463 . S
C2565 C2570 1.350 . S
C2565 N2573 1.427 . S
C2566 H2557 0.930 . S
C2566 C2564 1.378 . S
C2566 C2567 1.367 . S
C2567 C2566 1.367 . S
C2567 C2569 1.433 . S
C2568 C2564 1.350 . S
C2568 C2565 1.463 . S
C2568 N2572 1.427 . S
C2569 H2559 0.929 . S
C2569 C2567 1.433 . S
C2569 N2572 1.384 . S
C2570 H2561 0.929 . S
C2570 C2562 1.378 . S
C2570 C2565 1.350 . S
C2571 H2558 0.929 . S
C2571 C2563 1.433 . S
C2571 N2573 1.384 . S
N2572 C2568 1.427 . S
N2572 C2569 1.384 . S
N2573 C2565 1.427 . S
N2573 C2571 1.384 . S
H2574 C2580 0.930 . S
H2575 C2584 0.930 . S
H2576 C2589 0.929 . S
H2577 C2587 0.929 . S
H2578 C2582 0.929 . S
H2579 C2588 0.929 . S
C2580 H2574 0.930 . S
C2580 C2581 1.367 . S
C2580 C2588 1.378 . S
C2581 C2580 1.367 . S
C2581 C2589 1.433 . S
C2582 H2578 0.929 . S
C2582 C2584 1.378 . S
C2582 C2586 1.350 . S
C2583 C2586 1.463 1_554 S
C2583 C2588 1.350 . S
C2583 N2591 1.427 . S
C2584 H2575 0.930 . S
C2584 C2582 1.378 . S
C2584 C2585 1.367 . S
C2585 C2584 1.367 . S
C2585 C2587 1.433 . S
C2586 C2582 1.350 . S
C2586 C2583 1.463 1_556 S
C2586 N2590 1.427 . S
C2587 H2577 0.929 . S
C2587 C2585 1.433 . S
C2587 N2590 1.384 . S
C2588 H2579 0.929 . S
C2588 C2580 1.378 . S
C2588 C2583 1.350 . S
C2589 H2576 0.929 . S
C2589 C2581 1.433 . S
C2589 N2591 1.384 . S
N2590 C2586 1.427 . S
N2590 C2587 1.384 . S
N2591 C2583 1.427 . S
N2591 C2589 1.384 . S
H2592 C2598 0.930 . S
H2593 C2602 0.930 . S
H2594 C2607 0.929 . S
H2595 C2605 0.929 . S
H2596 C2600 0.929 . S
H2597 C2606 0.929 . S
C2598 H2592 0.930 . S
C2598 C2599 1.367 . S
C2598 C2606 1.378 . S
C2599 C2598 1.367 . S
C2599 C2607 1.433 . S
C2600 H2596 0.929 . S
C2600 C2602 1.378 . S
C2600 C2604 1.350 . S
C2601 C2604 1.463 1_556 S
C2601 C2606 1.350 . S
C2601 N2609 1.427 . S
C2602 H2593 0.930 . S
C2602 C2600 1.378 . S
C2602 C2603 1.367 . S
C2603 C2602 1.367 . S
C2603 C2605 1.433 . S
C2604 C2600 1.350 . S
C2604 C2601 1.463 1_554 S
C2604 N2608 1.427 . S
C2605 H2595 0.929 . S
C2605 C2603 1.433 . S
C2605 N2608 1.384 . S
C2606 H2597 0.929 . S
C2606 C2598 1.378 . S
C2606 C2601 1.350 . S
C2607 H2594 0.929 . S
C2607 C2599 1.433 . S
C2607 N2609 1.384 . S
N2608 C2604 1.427 . S
N2608 C2605 1.384 . S
N2609 C2601 1.427 . S
N2609 C2607 1.384 . S
H2610 C2616 0.930 . S
H2611 C2620 0.930 . S
H2612 C2625 0.929 . S
H2613 C2623 0.929 . S
H2614 C2618 0.929 . S
H2615 C2624 0.929 . S
C2616 H2610 0.930 . S
C2616 C2617 1.367 . S
C2616 C2624 1.378 . S
C2617 C2616 1.367 . S
C2617 C2625 1.433 . S
C2618 H2614 0.929 . S
C2618 C2620 1.378 . S
C2618 C2622 1.350 . S
C2619 C2622 1.463 1_556 S
C2619 C2624 1.350 . S
C2619 N2627 1.427 . S
C2620 H2611 0.930 . S
C2620 C2618 1.378 . S
C2620 C2621 1.367 . S
C2621 C2620 1.367 . S
C2621 C2623 1.433 . S
C2622 C2618 1.350 . S
C2622 C2619 1.463 1_554 S
C2622 N2626 1.427 . S
C2623 H2613 0.929 . S
C2623 C2621 1.433 . S
C2623 N2626 1.384 . S
C2624 H2615 0.929 . S
C2624 C2616 1.378 . S
C2624 C2619 1.350 . S
C2625 H2612 0.929 . S
C2625 C2617 1.433 . S
C2625 N2627 1.384 . S
N2626 C2622 1.427 . S
N2626 C2623 1.384 . S
N2627 C2619 1.427 . S
N2627 C2625 1.384 . S
H2628 C2634 0.930 . S
H2629 C2638 0.930 . S
H2630 C2643 0.929 . S
H2631 C2641 0.929 . S
H2632 C2636 0.929 . S
H2633 C2642 0.929 . S
C2634 H2628 0.930 . S
C2634 C2635 1.367 . S
C2634 C2642 1.378 . S
C2635 C2634 1.367 . S
C2635 C2643 1.433 . S
C2636 H2632 0.929 . S
C2636 C2638 1.378 . S
C2636 C2640 1.350 . S
C2637 C2640 1.463 . S
C2637 C2642 1.350 . S
C2637 N2645 1.427 . S
C2638 H2629 0.930 . S
C2638 C2636 1.378 . S
C2638 C2639 1.367 . S
C2639 C2638 1.367 . S
C2639 C2641 1.433 . S
C2640 C2636 1.350 . S
C2640 C2637 1.463 . S
C2640 N2644 1.427 . S
C2641 H2631 0.929 . S
C2641 C2639 1.433 . S
C2641 N2644 1.384 . S
C2642 H2633 0.929 . S
C2642 C2634 1.378 . S
C2642 C2637 1.350 . S
C2643 H2630 0.929 . S
C2643 C2635 1.433 . S
C2643 N2645 1.384 . S
N2644 C2640 1.427 . S
N2644 C2641 1.384 . S
N2645 C2637 1.427 . S
N2645 C2643 1.384 . S
H2646 C2652 0.930 . S
H2647 C2656 0.930 . S
H2648 C2661 0.929 . S
H2649 C2659 0.929 . S
H2650 C2654 0.929 . S
H2651 C2660 0.929 . S
C2652 H2646 0.930 . S
C2652 C2653 1.367 . S
C2652 C2660 1.378 . S
C2653 C2652 1.367 . S
C2653 C2661 1.433 . S
C2654 H2650 0.929 . S
C2654 C2656 1.378 . S
C2654 C2658 1.350 . S
C2655 C2658 1.463 . S
C2655 C2660 1.350 . S
C2655 N2663 1.427 . S
C2656 H2647 0.930 . S
C2656 C2654 1.378 . S
C2656 C2657 1.367 . S
C2657 C2656 1.367 . S
C2657 C2659 1.433 . S
C2658 C2654 1.350 . S
C2658 C2655 1.463 . S
C2658 N2662 1.427 . S
C2659 H2649 0.929 . S
C2659 C2657 1.433 . S
C2659 N2662 1.384 . S
C2660 H2651 0.929 . S
C2660 C2652 1.378 . S
C2660 C2655 1.350 . S
C2661 H2648 0.929 . S
C2661 C2653 1.433 . S
C2661 N2663 1.384 . S
N2662 C2658 1.427 . S
N2662 C2659 1.384 . S
N2663 C2655 1.427 . S
N2663 C2661 1.384 . S
H2664 C2670 0.930 . S
H2665 C2674 0.930 . S
H2666 C2679 0.929 . S
H2667 C2677 0.929 . S
H2668 C2672 0.929 . S
H2669 C2678 0.929 . S
C2670 H2664 0.930 . S
C2670 C2671 1.367 . S
C2670 C2678 1.378 . S
C2671 C2670 1.367 . S
C2671 C2679 1.433 . S
C2672 H2668 0.929 . S
C2672 C2674 1.378 . S
C2672 C2676 1.350 . S
C2673 C2676 1.463 . S
C2673 C2678 1.350 . S
C2673 N2681 1.427 . S
C2674 H2665 0.930 . S
C2674 C2672 1.378 . S
C2674 C2675 1.367 . S
C2675 C2674 1.367 . S
C2675 C2677 1.433 . S
C2676 C2672 1.350 . S
C2676 C2673 1.463 . S
C2676 N2680 1.427 . S
C2677 H2667 0.929 . S
C2677 C2675 1.433 . S
C2677 N2680 1.384 . S
C2678 H2669 0.929 . S
C2678 C2670 1.378 . S
C2678 C2673 1.350 . S
C2679 H2666 0.929 . S
C2679 C2671 1.433 . S
C2679 N2681 1.384 . S
N2680 C2676 1.427 . S
N2680 C2677 1.384 . S
N2681 C2673 1.427 . S
N2681 C2679 1.384 . S
H2682 C2688 0.930 . S
H2683 C2692 0.930 . S
H2684 C2697 0.929 . S
H2685 C2695 0.929 . S
H2686 C2690 0.929 . S
H2687 C2696 0.929 . S
C2688 H2682 0.930 . S
C2688 C2689 1.367 . S
C2688 C2696 1.378 . S
C2689 C2688 1.367 . S
C2689 C2697 1.433 . S
C2690 H2686 0.929 . S
C2690 C2692 1.378 . S
C2690 C2694 1.350 . S
C2691 C2694 1.463 1_554 S
C2691 C2696 1.350 . S
C2691 N2699 1.427 . S
C2692 H2683 0.930 . S
C2692 C2690 1.378 . S
C2692 C2693 1.367 . S
C2693 C2692 1.367 . S
C2693 C2695 1.433 . S
C2694 C2690 1.350 . S
C2694 C2691 1.463 1_556 S
C2694 N2698 1.427 . S
C2695 H2685 0.929 . S
C2695 C2693 1.433 . S
C2695 N2698 1.384 . S
C2696 H2687 0.929 . S
C2696 C2688 1.378 . S
C2696 C2691 1.350 . S
C2697 H2684 0.929 . S
C2697 C2689 1.433 . S
C2697 N2699 1.384 . S
N2698 C2694 1.427 . S
N2698 C2695 1.384 . S
N2699 C2691 1.427 . S
N2699 C2697 1.384 . S
H2700 C2706 0.930 . S
H2701 C2710 0.930 . S
H2702 C2715 0.929 . S
H2703 C2713 0.929 . S
H2704 C2708 0.929 . S
H2705 C2714 0.929 . S
C2706 H2700 0.930 . S
C2706 C2707 1.367 . S
C2706 C2714 1.378 . S
C2707 C2706 1.367 . S
C2707 C2715 1.433 . S
C2708 H2704 0.929 . S
C2708 C2710 1.378 . S
C2708 C2712 1.350 . S
C2709 C2712 1.463 1_556 S
C2709 C2714 1.350 . S
C2709 N2717 1.427 . S
C2710 H2701 0.930 . S
C2710 C2708 1.378 . S
C2710 C2711 1.367 . S
C2711 C2710 1.367 . S
C2711 C2713 1.433 . S
C2712 C2708 1.350 . S
C2712 C2709 1.463 1_554 S
C2712 N2716 1.427 . S
C2713 H2703 0.929 . S
C2713 C2711 1.433 . S
C2713 N2716 1.384 . S
C2714 H2705 0.929 . S
C2714 C2706 1.378 . S
C2714 C2709 1.350 . S
C2715 H2702 0.929 . S
C2715 C2707 1.433 . S
C2715 N2717 1.384 . S
N2716 C2712 1.427 . S
N2716 C2713 1.384 . S
N2717 C2709 1.427 . S
N2717 C2715 1.384 . S
H2718 C2724 0.930 . S
H2719 C2728 0.930 . S
H2720 C2733 0.929 . S
H2721 C2731 0.929 . S
H2722 C2726 0.929 . S
H2723 C2732 0.929 . S
C2724 H2718 0.930 . S
C2724 C2725 1.367 . S
C2724 C2732 1.378 . S
C2725 C2724 1.367 . S
C2725 C2733 1.433 . S
C2726 H2722 0.929 . S
C2726 C2728 1.378 . S
C2726 C2730 1.350 . S
C2727 C2730 1.463 1_554 S
C2727 C2732 1.350 . S
C2727 N2735 1.427 . S
C2728 H2719 0.930 . S
C2728 C2726 1.378 . S
C2728 C2729 1.367 . S
C2729 C2728 1.367 . S
C2729 C2731 1.433 . S
C2730 C2726 1.350 . S
C2730 C2727 1.463 1_556 S
C2730 N2734 1.427 . S
C2731 H2721 0.929 . S
C2731 C2729 1.433 . S
C2731 N2734 1.384 . S
C2732 H2723 0.929 . S
C2732 C2724 1.378 . S
C2732 C2727 1.350 . S
C2733 H2720 0.929 . S
C2733 C2725 1.433 . S
C2733 N2735 1.384 . S
N2734 C2730 1.427 . S
N2734 C2731 1.384 . S
N2735 C2727 1.427 . S
N2735 C2733 1.384 . S
H2736 C2742 0.930 . S
H2737 C2746 0.930 . S
H2738 C2751 0.929 . S
H2739 C2749 0.929 . S
H2740 C2744 0.929 . S
H2741 C2750 0.929 . S
C2742 H2736 0.930 . S
C2742 C2743 1.367 . S
C2742 C2750 1.378 . S
C2743 C2742 1.367 . S
C2743 C2751 1.433 . S
C2744 H2740 0.929 . S
C2744 C2746 1.378 . S
C2744 C2748 1.350 . S
C2745 C2748 1.463 1_556 S
C2745 C2750 1.350 . S
C2745 N2753 1.427 . S
C2746 H2737 0.930 . S
C2746 C2744 1.378 . S
C2746 C2747 1.367 . S
C2747 C2746 1.367 . S
C2747 C2749 1.433 . S
C2748 C2744 1.350 . S
C2748 C2745 1.463 1_554 S
C2748 N2752 1.427 . S
C2749 H2739 0.929 . S
C2749 C2747 1.433 . S
C2749 N2752 1.384 . S
C2750 H2741 0.929 . S
C2750 C2742 1.378 . S
C2750 C2745 1.350 . S
C2751 H2738 0.929 . S
C2751 C2743 1.433 . S
C2751 N2753 1.384 . S
N2752 C2748 1.427 . S
N2752 C2749 1.384 . S
N2753 C2745 1.427 . S
N2753 C2751 1.384 . S
H2754 C2760 0.930 . S
H2755 C2764 0.930 . S
H2756 C2769 0.929 . S
H2757 C2767 0.929 . S
H2758 C2762 0.929 . S
H2759 C2768 0.929 . S
C2760 H2754 0.930 . S
C2760 C2761 1.367 . S
C2760 C2768 1.378 . S
C2761 C2760 1.367 . S
C2761 C2769 1.433 . S
C2762 H2758 0.929 . S
C2762 C2764 1.378 . S
C2762 C2766 1.350 . S
C2763 C2766 1.463 1_556 S
C2763 C2768 1.350 . S
C2763 N2771 1.427 . S
C2764 H2755 0.930 . S
C2764 C2762 1.378 . S
C2764 C2765 1.367 . S
C2765 C2764 1.367 . S
C2765 C2767 1.433 . S
C2766 C2762 1.350 . S
C2766 C2763 1.463 1_554 S
C2766 N2770 1.427 . S
C2767 H2757 0.929 . S
C2767 C2765 1.433 . S
C2767 N2770 1.384 . S
C2768 H2759 0.929 . S
C2768 C2760 1.378 . S
C2768 C2763 1.350 . S
C2769 H2756 0.929 . S
C2769 C2761 1.433 . S
C2769 N2771 1.384 . S
N2770 C2766 1.427 . S
N2770 C2767 1.384 . S
N2771 C2763 1.427 . S
N2771 C2769 1.384 . S
H2772 C2778 0.930 . S
H2773 C2782 0.930 . S
H2774 C2787 0.929 . S
H2775 C2785 0.929 . S
H2776 C2780 0.929 . S
H2777 C2786 0.929 . S
C2778 H2772 0.930 . S
C2778 C2779 1.367 . S
C2778 C2786 1.378 . S
C2779 C2778 1.367 . S
C2779 C2787 1.433 . S
C2780 H2776 0.929 . S
C2780 C2782 1.378 . S
C2780 C2784 1.350 . S
C2781 C2784 1.463 1_556 S
C2781 C2786 1.350 . S
C2781 N2789 1.427 . S
C2782 H2773 0.930 . S
C2782 C2780 1.378 . S
C2782 C2783 1.367 . S
C2783 C2782 1.367 . S
C2783 C2785 1.433 . S
C2784 C2780 1.350 . S
C2784 C2781 1.463 1_554 S
C2784 N2788 1.427 . S
C2785 H2775 0.929 . S
C2785 C2783 1.433 . S
C2785 N2788 1.384 . S
C2786 H2777 0.929 . S
C2786 C2778 1.378 . S
C2786 C2781 1.350 . S
C2787 H2774 0.929 . S
C2787 C2779 1.433 . S
C2787 N2789 1.384 . S
N2788 C2784 1.427 . S
N2788 C2785 1.384 . S
N2789 C2781 1.427 . S
N2789 C2787 1.384 . S
H2790 C2796 0.930 . S
H2791 C2800 0.930 . S
H2792 C2805 0.929 . S
H2793 C2803 0.929 . S
H2794 C2798 0.929 . S
H2795 C2804 0.929 . S
C2796 H2790 0.930 . S
C2796 C2797 1.367 . S
C2796 C2804 1.378 . S
C2797 C2796 1.367 . S
C2797 C2805 1.433 . S
C2798 H2794 0.929 . S
C2798 C2800 1.378 . S
C2798 C2802 1.350 . S
C2799 C2802 1.463 . S
C2799 C2804 1.350 . S
C2799 N2807 1.427 . S
C2800 H2791 0.930 . S
C2800 C2798 1.378 . S
C2800 C2801 1.367 . S
C2801 C2800 1.367 . S
C2801 C2803 1.433 . S
C2802 C2798 1.350 . S
C2802 C2799 1.463 . S
C2802 N2806 1.427 . S
C2803 H2793 0.929 . S
C2803 C2801 1.433 . S
C2803 N2806 1.384 . S
C2804 H2795 0.929 . S
C2804 C2796 1.378 . S
C2804 C2799 1.350 . S
C2805 H2792 0.929 . S
C2805 C2797 1.433 . S
C2805 N2807 1.384 . S
N2806 C2802 1.427 . S
N2806 C2803 1.384 . S
N2807 C2799 1.427 . S
N2807 C2805 1.384 . S
H2808 C2814 0.930 . S
H2809 C2818 0.930 . S
H2810 C2823 0.929 . S
H2811 C2821 0.929 . S
H2812 C2816 0.929 . S
H2813 C2822 0.929 . S
C2814 H2808 0.930 . S
C2814 C2815 1.367 . S
C2814 C2822 1.378 . S
C2815 C2814 1.367 . S
C2815 C2823 1.433 . S
C2816 H2812 0.929 . S
C2816 C2818 1.378 . S
C2816 C2820 1.350 . S
C2817 C2820 1.463 . S
C2817 C2822 1.350 . S
C2817 N2825 1.427 . S
C2818 H2809 0.930 . S
C2818 C2816 1.378 . S
C2818 C2819 1.367 . S
C2819 C2818 1.367 . S
C2819 C2821 1.433 . S
C2820 C2816 1.350 . S
C2820 C2817 1.463 . S
C2820 N2824 1.427 . S
C2821 H2811 0.929 . S
C2821 C2819 1.433 . S
C2821 N2824 1.384 . S
C2822 H2813 0.929 . S
C2822 C2814 1.378 . S
C2822 C2817 1.350 . S
C2823 H2810 0.929 . S
C2823 C2815 1.433 . S
C2823 N2825 1.384 . S
N2824 C2820 1.427 . S
N2824 C2821 1.384 . S
N2825 C2817 1.427 . S
N2825 C2823 1.384 . S
H2826 C2832 0.930 . S
H2827 C2836 0.930 . S
H2828 C2841 0.929 . S
H2829 C2839 0.929 . S
H2830 C2834 0.929 . S
H2831 C2840 0.929 . S
C2832 H2826 0.930 . S
C2832 C2833 1.367 . S
C2832 C2840 1.378 . S
C2833 C2832 1.367 . S
C2833 C2841 1.433 . S
C2834 H2830 0.929 . S
C2834 C2836 1.378 . S
C2834 C2838 1.350 . S
C2835 C2838 1.463 . S
C2835 C2840 1.350 . S
C2835 N2843 1.427 . S
C2836 H2827 0.930 . S
C2836 C2834 1.378 . S
C2836 C2837 1.367 . S
C2837 C2836 1.367 . S
C2837 C2839 1.433 . S
C2838 C2834 1.350 . S
C2838 C2835 1.463 . S
C2838 N2842 1.427 . S
C2839 H2829 0.929 . S
C2839 C2837 1.433 . S
C2839 N2842 1.384 . S
C2840 H2831 0.929 . S
C2840 C2832 1.378 . S
C2840 C2835 1.350 . S
C2841 H2828 0.929 . S
C2841 C2833 1.433 . S
C2841 N2843 1.384 . S
N2842 C2838 1.427 . S
N2842 C2839 1.384 . S
N2843 C2835 1.427 . S
N2843 C2841 1.384 . S
C1231 C20 1.496 . S
C1235 C530 1.496 . S
C1249 C564 1.499 . S
C1253 C54 1.500 . S
C1267 C598 1.499 . S
C1271 C88 1.499 . S
C1285 C836 1.499 . S
C1289 C122 1.498 . S
C1303 C156 1.499 . S
C1307 C870 1.500 . S
C1321 C904 1.500 . S
C1325 C190 1.499 . S
C1339 C1142 1.499 . S
C1343 C224 1.499 . S
C1357 C258 1.500 . S
C1361 C1176 1.499 . S
C1375 C1210 1.499 . S
C1379 C292 1.499 . S
C1393 C632 1.496 . S
C1397 C326 1.498 . S
C1411 C666 1.497 . S
C1415 C360 1.498 . S
C1429 C700 1.497 . S
C1433 C394 1.496 . S
C1447 C938 1.498 . S
C1451 C428 1.496 . S
C1465 C972 1.498 . S
C1469 C462 1.500 . S
C1483 C496 1.497 . S
C1487 C1006 1.499 . S
C1501 C734 1.496 . S
C1505 C1040 1.496 . S
C1519 C1074 1.498 . S
C1523 C768 1.500 . S
C1537 C802 1.498 . S
C1541 C1108 1.499 . S
C1555 C1019 1.490 . S
C1559 C33 1.492 . S
C1573 C67 1.491 . S
C1577 C951 1.493 . S
C1591 C985 1.489 . S
C1595 C101 1.489 . S
C1609 C475 1.491 . S
C1613 C135 1.489 . S
C1627 C509 1.490 . S
C1631 C169 1.492 . S
C1645 C441 1.491 . S
C1649 C203 1.493 . S
C1663 C237 1.493 . S
C1667 C815 1.491 . S
C1681 C747 1.492 . S
C1685 C271 1.492 . S
C1699 C305 1.493 . S
C1703 C781 1.491 . S
C1717 C1087 1.493 . S
C1721 C339 1.492 . S
C1735 C373 1.489 . S
C1739 C1121 1.490 . S
C1753 C407 1.493 . S
C1757 C1053 1.491 . S
C1771 C883 1.491 . S
C1775 C543 1.493 . S
C1789 C917 1.489 . S
C1793 C577 1.491 . S
C1807 C611 1.491 . S
C1811 C849 1.493 . S
C1825 C645 1.491 . S
C1829 C1223 1.489 . S
C1843 C1155 1.489 . S
C1847 C679 1.489 . S
C1861 C1189 1.493 . S
C1865 C713 1.492 . S
C1879 C2 1.484 . S
C1883 C376 1.486 . S
C1897 C36 1.484 . S
C1901 C308 1.486 . S
C1915 C70 1.487 . S
C1919 C342 1.484 . S
C1933 C104 1.484 . S
C1937 C240 1.487 . S
C1951 C274 1.486 . S
C1955 C138 1.484 . S
C1969 C206 1.484 . S
C1973 C172 1.486 . S
C1987 C784 1.484 . S
C1991 C410 1.486 . S
C2005 C716 1.484 . S
C2009 C444 1.486 . S
C2023 C478 1.484 . S
C2027 C750 1.486 . S
C2041 C648 1.486 . S
C2045 C512 1.484 . S
C2059 C682 1.484 . S
C2063 C546 1.486 . S
C2077 C614 1.486 . S
C2081 C580 1.484 . S
C2095 C1192 1.484 . S
C2099 C818 1.486 . S
C2113 C852 1.486 . S
C2117 C1124 1.483 . S
C2131 C1158 1.485 . S
C2135 C886 1.485 . S
C2149 C1056 1.484 . S
C2153 C920 1.486 . S
C2167 C1090 1.485 . S
C2171 C954 1.485 . S
C2185 C1022 1.486 . S
C2189 C988 1.484 . S
C2203 C9 1.335 . S
C2207 C5 1.393 . S
C2221 C39 1.393 . S
C2225 C43 1.337 . S
C2239 C77 1.345 . S
C2243 C73 1.393 . S
C2257 C107 1.393 . S
C2261 C111 1.335 . S
C2275 C141 1.393 . S
C2279 C145 1.335 . S
C2293 C175 1.393 . S
C2297 C179 1.345 . S
C2311 C209 1.393 . S
C2315 C213 1.339 . S
C2329 C243 1.393 . S
C2333 C247 1.347 . S
C2347 C281 1.351 . S
C2351 C277 1.394 . S
C2365 C315 1.335 . S
C2369 C311 1.394 . S
C2383 C345 1.396 . S
C2387 C349 1.345 . S
C2401 C383 1.347 . S
C2405 C379 1.393 . S
C2419 C413 1.395 . S
C2423 C417 1.343 . S
C2437 C447 1.393 . S
C2441 C451 1.338 . S
C2455 C481 1.395 . S
C2459 C485 1.349 . S
C2473 C515 1.394 . S
C2477 C519 1.335 . S
C2491 C549 1.393 . S
C2495 C553 1.338 . S
C2509 C587 1.335 . S
C2513 C583 1.393 . S
C2527 C617 1.394 . S
C2531 C621 1.335 . S
C2545 C655 1.339 . S
C2549 C651 1.393 . S
C2563 C689 1.350 . S
C2567 C685 1.394 . S
C2581 C723 1.335 . S
C2585 C719 1.394 . S
C2599 C753 1.393 . S
C2603 C757 1.347 . S
C2617 C787 1.394 . S
C2621 C791 1.335 . S
C2635 C825 1.338 . S
C2639 C821 1.393 . S
C2653 C859 1.341 . S
C2657 C855 1.395 . S
C2671 C889 1.394 . S
C2675 C893 1.351 . S
C2689 C923 1.394 . S
C2693 C927 1.351 . S
C2707 C961 1.348 . S
C2711 C957 1.393 . S
C2725 C991 1.395 . S
C2729 C995 1.339 . S
C2743 C1029 1.342 . S
C2747 C1025 1.393 . S
C2761 C1063 1.350 . S
C2765 C1059 1.395 . S
C2779 C1097 1.337 . S
C2783 C1093 1.393 . S
C2797 C1127 1.393 . S
C2801 C1131 1.340 . S
C2815 C1165 1.347 . S
C2819 C1161 1.396 . S
C2833 C1195 1.395 . S
C2837 C1199 1.344 . S
