# Generated by pormake.
# Topology wge, (5)-cn, num edge types: 1
# Building blocks:
#     Node 0, Type 0, BuildingBlock: XOMCOT_clean_sbu_1, # of connection points: 5
#     Node 1, Type 0, BuildingBlock: XOMCOT_clean_sbu_1, # of connection points: 5
#     Node 2, Type 0, BuildingBlock: XOMCOT_clean_sbu_1, # of connection points: 5
#     Node 3, Type 0, BuildingBlock: XOMCOT_clean_sbu_1, # of connection points: 5
#     Node 4, Type 0, BuildingBlock: XOMCOT_clean_sbu_1, # of connection points: 5
#     Node 5, Type 0, BuildingBlock: XOMCOT_clean_sbu_1, # of connection points: 5
#     Node 6, Type 0, BuildingBlock: XOMCOT_clean_sbu_1, # of connection points: 5
#     Node 7, Type 0, BuildingBlock: XOMCOT_clean_sbu_1, # of connection points: 5
#     Node 8, Type 0, BuildingBlock: XOMCOT_clean_sbu_1, # of connection points: 5
#     Node 9, Type 0, BuildingBlock: XOMCOT_clean_sbu_1, # of connection points: 5
#     Node 10, Type 0, BuildingBlock: XOMCOT_clean_sbu_1, # of connection points: 5
#     Node 11, Type 0, BuildingBlock: XOMCOT_clean_sbu_1, # of connection points: 5
#     Node 12, Type 0, BuildingBlock: XOMCOT_clean_sbu_1, # of connection points: 5
#     Node 13, Type 0, BuildingBlock: XOMCOT_clean_sbu_1, # of connection points: 5
#     Node 14, Type 0, BuildingBlock: XOMCOT_clean_sbu_1, # of connection points: 5
#     Node 15, Type 0, BuildingBlock: XOMCOT_clean_sbu_1, # of connection points: 5
#     Node 16, Type 0, BuildingBlock: XOMCOT_clean_sbu_1, # of connection points: 5
#     Node 17, Type 0, BuildingBlock: XOMCOT_clean_sbu_1, # of connection points: 5
#     Node 18, Type 0, BuildingBlock: XOMCOT_clean_sbu_1, # of connection points: 5
#     Node 19, Type 0, BuildingBlock: XOMCOT_clean_sbu_1, # of connection points: 5
#     Node 20, Type 0, BuildingBlock: XOMCOT_clean_sbu_1, # of connection points: 5
#     Node 21, Type 0, BuildingBlock: XOMCOT_clean_sbu_1, # of connection points: 5
#     Node 22, Type 0, BuildingBlock: XOMCOT_clean_sbu_1, # of connection points: 5
#     Node 23, Type 0, BuildingBlock: XOMCOT_clean_sbu_1, # of connection points: 5
#     Node 24, Type 0, BuildingBlock: XOMCOT_clean_sbu_1, # of connection points: 5
#     Node 25, Type 0, BuildingBlock: XOMCOT_clean_sbu_1, # of connection points: 5
#     Node 26, Type 0, BuildingBlock: XOMCOT_clean_sbu_1, # of connection points: 5
#     Node 27, Type 0, BuildingBlock: XOMCOT_clean_sbu_1, # of connection points: 5
#     Node 28, Type 0, BuildingBlock: XOMCOT_clean_sbu_1, # of connection points: 5
#     Node 29, Type 0, BuildingBlock: XOMCOT_clean_sbu_1, # of connection points: 5
#     Node 30, Type 0, BuildingBlock: XOMCOT_clean_sbu_1, # of connection points: 5
#     Node 31, Type 0, BuildingBlock: XOMCOT_clean_sbu_1, # of connection points: 5
#     Edge 32, Type (0, 0), BuildingBlock: OJICUG_clean_linker_0, # of connection points: 2
#     Edge 33, Type (0, 0), BuildingBlock: OJICUG_clean_linker_0, # of connection points: 2
#     Edge 34, Type (0, 0), BuildingBlock: OJICUG_clean_linker_0, # of connection points: 2
#     Edge 35, Type (0, 0), BuildingBlock: OJICUG_clean_linker_0, # of connection points: 2
#     Edge 36, Type (0, 0), BuildingBlock: OJICUG_clean_linker_0, # of connection points: 2
#     Edge 37, Type (0, 0), BuildingBlock: OJICUG_clean_linker_0, # of connection points: 2
#     Edge 38, Type (0, 0), BuildingBlock: OJICUG_clean_linker_0, # of connection points: 2
#     Edge 39, Type (0, 0), BuildingBlock: OJICUG_clean_linker_0, # of connection points: 2
#     Edge 40, Type (0, 0), BuildingBlock: OJICUG_clean_linker_0, # of connection points: 2
#     Edge 41, Type (0, 0), BuildingBlock: OJICUG_clean_linker_0, # of connection points: 2
#     Edge 42, Type (0, 0), BuildingBlock: OJICUG_clean_linker_0, # of connection points: 2
#     Edge 43, Type (0, 0), BuildingBlock: OJICUG_clean_linker_0, # of connection points: 2
#     Edge 44, Type (0, 0), BuildingBlock: OJICUG_clean_linker_0, # of connection points: 2
#     Edge 45, Type (0, 0), BuildingBlock: OJICUG_clean_linker_0, # of connection points: 2
#     Edge 46, Type (0, 0), BuildingBlock: OJICUG_clean_linker_0, # of connection points: 2
#     Edge 47, Type (0, 0), BuildingBlock: OJICUG_clean_linker_0, # of connection points: 2
#     Edge 48, Type (0, 0), BuildingBlock: OJICUG_clean_linker_0, # of connection points: 2
#     Edge 49, Type (0, 0), BuildingBlock: OJICUG_clean_linker_0, # of connection points: 2
#     Edge 50, Type (0, 0), BuildingBlock: OJICUG_clean_linker_0, # of connection points: 2
#     Edge 51, Type (0, 0), BuildingBlock: OJICUG_clean_linker_0, # of connection points: 2
#     Edge 52, Type (0, 0), BuildingBlock: OJICUG_clean_linker_0, # of connection points: 2
#     Edge 53, Type (0, 0), BuildingBlock: OJICUG_clean_linker_0, # of connection points: 2
#     Edge 54, Type (0, 0), BuildingBlock: OJICUG_clean_linker_0, # of connection points: 2
#     Edge 55, Type (0, 0), BuildingBlock: OJICUG_clean_linker_0, # of connection points: 2
#     Edge 56, Type (0, 0), BuildingBlock: OJICUG_clean_linker_0, # of connection points: 2
#     Edge 57, Type (0, 0), BuildingBlock: OJICUG_clean_linker_0, # of connection points: 2
#     Edge 58, Type (0, 0), BuildingBlock: OJICUG_clean_linker_0, # of connection points: 2
#     Edge 59, Type (0, 0), BuildingBlock: OJICUG_clean_linker_0, # of connection points: 2
#     Edge 60, Type (0, 0), BuildingBlock: OJICUG_clean_linker_0, # of connection points: 2
#     Edge 61, Type (0, 0), BuildingBlock: OJICUG_clean_linker_0, # of connection points: 2
#     Edge 62, Type (0, 0), BuildingBlock: OJICUG_clean_linker_0, # of connection points: 2
#     Edge 63, Type (0, 0), BuildingBlock: OJICUG_clean_linker_0, # of connection points: 2
#     Edge 64, Type (0, 0), BuildingBlock: OJICUG_clean_linker_0, # of connection points: 2
#     Edge 65, Type (0, 0), BuildingBlock: OJICUG_clean_linker_0, # of connection points: 2
#     Edge 66, Type (0, 0), BuildingBlock: OJICUG_clean_linker_0, # of connection points: 2
#     Edge 67, Type (0, 0), BuildingBlock: OJICUG_clean_linker_0, # of connection points: 2
#     Edge 68, Type (0, 0), BuildingBlock: OJICUG_clean_linker_0, # of connection points: 2
#     Edge 69, Type (0, 0), BuildingBlock: OJICUG_clean_linker_0, # of connection points: 2
#     Edge 70, Type (0, 0), BuildingBlock: OJICUG_clean_linker_0, # of connection points: 2
#     Edge 71, Type (0, 0), BuildingBlock: OJICUG_clean_linker_0, # of connection points: 2
#     Edge 72, Type (0, 0), BuildingBlock: OJICUG_clean_linker_0, # of connection points: 2
#     Edge 73, Type (0, 0), BuildingBlock: OJICUG_clean_linker_0, # of connection points: 2
#     Edge 74, Type (0, 0), BuildingBlock: OJICUG_clean_linker_0, # of connection points: 2
#     Edge 75, Type (0, 0), BuildingBlock: OJICUG_clean_linker_0, # of connection points: 2
#     Edge 76, Type (0, 0), BuildingBlock: OJICUG_clean_linker_0, # of connection points: 2
#     Edge 77, Type (0, 0), BuildingBlock: OJICUG_clean_linker_0, # of connection points: 2
#     Edge 78, Type (0, 0), BuildingBlock: OJICUG_clean_linker_0, # of connection points: 2
#     Edge 79, Type (0, 0), BuildingBlock: OJICUG_clean_linker_0, # of connection points: 2
#     Edge 80, Type (0, 0), BuildingBlock: OJICUG_clean_linker_0, # of connection points: 2
#     Edge 81, Type (0, 0), BuildingBlock: OJICUG_clean_linker_0, # of connection points: 2
#     Edge 82, Type (0, 0), BuildingBlock: OJICUG_clean_linker_0, # of connection points: 2
#     Edge 83, Type (0, 0), BuildingBlock: OJICUG_clean_linker_0, # of connection points: 2
#     Edge 84, Type (0, 0), BuildingBlock: OJICUG_clean_linker_0, # of connection points: 2
#     Edge 85, Type (0, 0), BuildingBlock: OJICUG_clean_linker_0, # of connection points: 2
#     Edge 86, Type (0, 0), BuildingBlock: OJICUG_clean_linker_0, # of connection points: 2
#     Edge 87, Type (0, 0), BuildingBlock: OJICUG_clean_linker_0, # of connection points: 2
#     Edge 88, Type (0, 0), BuildingBlock: OJICUG_clean_linker_0, # of connection points: 2
#     Edge 89, Type (0, 0), BuildingBlock: OJICUG_clean_linker_0, # of connection points: 2
#     Edge 90, Type (0, 0), BuildingBlock: OJICUG_clean_linker_0, # of connection points: 2
#     Edge 91, Type (0, 0), BuildingBlock: OJICUG_clean_linker_0, # of connection points: 2
#     Edge 92, Type (0, 0), BuildingBlock: OJICUG_clean_linker_0, # of connection points: 2
#     Edge 93, Type (0, 0), BuildingBlock: OJICUG_clean_linker_0, # of connection points: 2
#     Edge 94, Type (0, 0), BuildingBlock: OJICUG_clean_linker_0, # of connection points: 2
#     Edge 95, Type (0, 0), BuildingBlock: OJICUG_clean_linker_0, # of connection points: 2
#     Edge 96, Type (0, 0), BuildingBlock: OJICUG_clean_linker_0, # of connection points: 2
#     Edge 97, Type (0, 0), BuildingBlock: OJICUG_clean_linker_0, # of connection points: 2
#     Edge 98, Type (0, 0), BuildingBlock: OJICUG_clean_linker_0, # of connection points: 2
#     Edge 99, Type (0, 0), BuildingBlock: OJICUG_clean_linker_0, # of connection points: 2
#     Edge 100, Type (0, 0), BuildingBlock: OJICUG_clean_linker_0, # of connection points: 2
#     Edge 101, Type (0, 0), BuildingBlock: OJICUG_clean_linker_0, # of connection points: 2
#     Edge 102, Type (0, 0), BuildingBlock: OJICUG_clean_linker_0, # of connection points: 2
#     Edge 103, Type (0, 0), BuildingBlock: OJICUG_clean_linker_0, # of connection points: 2
#     Edge 104, Type (0, 0), BuildingBlock: OJICUG_clean_linker_0, # of connection points: 2
#     Edge 105, Type (0, 0), BuildingBlock: OJICUG_clean_linker_0, # of connection points: 2
#     Edge 106, Type (0, 0), BuildingBlock: OJICUG_clean_linker_0, # of connection points: 2
#     Edge 107, Type (0, 0), BuildingBlock: OJICUG_clean_linker_0, # of connection points: 2
#     Edge 108, Type (0, 0), BuildingBlock: OJICUG_clean_linker_0, # of connection points: 2
#     Edge 109, Type (0, 0), BuildingBlock: OJICUG_clean_linker_0, # of connection points: 2
#     Edge 110, Type (0, 0), BuildingBlock: OJICUG_clean_linker_0, # of connection points: 2
#     Edge 111, Type (0, 0), BuildingBlock: OJICUG_clean_linker_0, # of connection points: 2
# Relax obj value: 0.159
# Max RMSD: 0.151
# Mean RMSD: 0.151
data_MOF--net-wge--node1-XOMCOT_clean_sbu_1--edge1-OJICUG_clean_linker_0
_symmetry_space_group_name_H-M    P1
_symmetry_Int_Tables_number       1
_symmetry_cell_setting            triclinic
loop_
_symmetry_equiv_pos_as_xyz
'x, y, z'
_cell_length_a     51.277098
_cell_length_b     51.375394
_cell_length_c     31.357744
_cell_angle_alpha  89.97142
_cell_angle_beta   90.00781
_cell_angle_gamma 90.036285
loop_
_atom_site_label
_atom_site_type_symbol
_atom_site_fract_x
_atom_site_fract_y
_atom_site_fract_z
_atom_type_partial_charge
C0 C 0.20272 0.15127 0.01936 0.0
C1 C 0.18638 0.14911 0.98476 0.0
N2 N 0.19364 0.12798 0.96232 0.0
N3 N 0.22027 0.13175 0.01821 0.0
C4 C 0.21409 0.11774 0.98346 0.0
H5 H 0.20222 0.16633 0.04344 0.0
Co6 Co 0.24708 0.12651 0.05634 0.0
C7 C 0.29104 0.11549 0.99665 0.0
O8 O 0.30443 0.13314 0.01768 0.0
N9 N 0.27267 0.12081 0.09693 0.0
C10 C 0.29893 0.10003 0.14208 0.0
C11 C 0.29359 0.10486 0.09961 0.0
C12 C 0.26552 0.1248 0.13766 0.0
N13 N 0.28079 0.11226 0.16559 0.0
O14 O 0.23154 0.09356 0.07523 0.0
H15 H 0.30247 0.09473 0.07318 0.0
H16 H 0.24781 0.13488 0.14645 0.0
O17 O 0.26819 0.10928 0.01 0.0
C18 C 0.21272 0.09818 0.10105 0.0
O19 O 0.20471 0.12237 0.10467 0.0
N20 N 0.2605 0.16039 0.04221 0.0
C21 C 0.27104 0.2134 0.02741 0.0
C22 C 0.26756 0.19608 0.99322 0.0
C23 C 0.26227 0.16966 1.00128 0.0
C24 C 0.26354 0.17723 0.07551 0.0
C25 C 0.26922 0.20346 0.06889 0.0
H26 H 0.25855 0.15689 0.97458 0.0
H27 H 0.2602 0.17099 0.10772 0.0
H28 H 0.2249 0.1008 0.97315 0.0
H29 H 0.17052 0.1621 0.97669 0.0
H30 H 0.31324 0.0866 0.15457 0.0
H31 H 0.26842 0.20295 0.9606 0.0
H32 H 0.27076 0.21617 0.09633 0.0
C33 C 0.13948 0.95165 0.26934 0.0
C34 C 0.14068 0.9364 0.23334 0.0
N35 N 0.16038 0.94529 0.20894 0.0
N36 N 0.15836 0.9699 0.26737 0.0
C37 C 0.17096 0.96532 0.23055 0.0
H38 H 0.12528 0.95011 0.29473 0.0
Co39 Co 0.16351 0.9964 0.30607 0.0
C40 C 0.17413 0.04078 0.24717 0.0
O41 O 0.15636 0.05385 0.26845 0.0
N42 N 0.16909 0.02171 0.34706 0.0
C43 C 0.1896 0.04808 0.39233 0.0
C44 C 0.18486 0.04276 0.34986 0.0
C45 C 0.16513 1.01445 0.38774 0.0
N46 N 0.1775 0.0298 0.41575 0.0
O47 O 0.19663 0.98098 0.32464 0.0
H48 H 0.19493 0.05181 0.3235 0.0
H49 H 0.15515 0.99667 0.39646 0.0
O50 O 0.18059 1.01798 0.26018 0.0
C51 C 0.1921 0.96215 0.35046 0.0
O52 O 0.16789 0.95406 0.35421 0.0
N53 N 0.12947 1.00961 0.29228 0.0
C54 C 0.07632 0.02002 0.27783 0.0
C55 C 0.09365 1.01691 0.24354 0.0
C56 C 0.12013 1.01166 0.25142 0.0
C57 C 0.1126 1.01223 0.32568 0.0
C58 C 0.0863 1.01785 0.31925 0.0
H59 H 0.13292 1.00829 0.22459 0.0
H60 H 0.11889 1.00862 0.35779 0.0
H61 H 0.18742 0.97664 0.21947 0.0
H62 H 0.12753 0.92072 0.22501 0.0
H63 H 0.20286 0.06251 0.40491 0.0
H64 H 0.08675 1.01805 0.21095 0.0
H65 H 0.07357 1.01908 0.34674 0.0
C66 C 0.33751 0.88745 0.51942 0.0
C67 C 0.35388 0.88959 0.48486 0.0
N68 N 0.34659 0.91067 0.46227 0.0
N69 N 0.31993 0.90693 0.51812 0.0
C70 C 0.32609 0.9209 0.4833 0.0
H71 H 0.33802 0.87242 0.54358 0.0
Co72 Co 0.29308 0.91203 0.55621 0.0
C73 C 0.24911 0.92323 0.49665 0.0
O74 O 0.23573 0.90556 0.51767 0.0
N75 N 0.26747 0.91757 0.5968 0.0
C76 C 0.24137 0.93833 0.64214 0.0
C77 C 0.24664 0.93361 0.59963 0.0
C78 C 0.27464 0.9134 0.63749 0.0
N79 N 0.25946 0.92594 0.66554 0.0
O80 O 0.30858 0.94495 0.57537 0.0
H81 H 0.23782 0.94389 0.57329 0.0
H82 H 0.29232 0.90323 0.64617 0.0
O83 O 0.27198 0.92941 0.50996 0.0
C84 C 0.32737 0.94033 0.60125 0.0
O85 O 0.33544 0.91616 0.60481 0.0
N86 N 0.27967 0.87821 0.54174 0.0
C87 C 0.269 0.8253 0.5263 0.0
C88 C 0.27257 0.84277 0.49233 0.0
C89 C 0.27792 0.86913 0.50071 0.0
C90 C 0.27655 0.86121 0.57484 0.0
C91 C 0.27081 0.83503 0.5679 0.0
H92 H 0.28169 0.88202 0.47415 0.0
H93 H 0.27986 0.8673 0.60713 0.0
H94 H 0.31525 0.9378 0.47285 0.0
H95 H 0.36978 0.87663 0.47692 0.0
H96 H 0.22716 0.95182 0.65474 0.0
H97 H 0.27171 0.83606 0.45962 0.0
H98 H 0.2692 0.82219 0.59519 0.0
C99 C 0.40072 0.0869 0.76956 0.0
C100 C 0.39976 0.10211 0.73348 0.0
N101 N 0.38018 0.09325 0.70882 0.0
N102 N 0.3818 0.06869 0.76738 0.0
C103 C 0.36942 0.07327 0.73035 0.0
H104 H 0.41479 0.08841 0.79514 0.0
Co105 Co 0.37648 0.04225 0.80614 0.0
C106 C 0.36568 0.99781 0.74748 0.0
O107 O 0.38332 0.98469 0.76899 0.0
N108 N 0.37075 1.017 0.8472 0.0
C109 C 0.35007 0.99084 0.8926 0.0
C110 C 0.35478 0.99611 0.85009 0.0
C111 C 0.37484 0.02424 0.88784 0.0
N112 N 0.36239 1.009 0.91592 0.0
O113 O 0.34341 0.05781 0.82459 0.0
H114 H 0.34458 0.98717 0.82378 0.0
H115 H 0.38496 0.04194 0.8965 0.0
O116 O 0.35933 0.02069 0.76026 0.0
C117 C 0.34799 0.0766 0.85045 0.0
O118 O 0.37222 0.0846 0.85428 0.0
N119 N 0.41047 0.02886 0.79246 0.0
C120 C 0.46355 1.01811 0.77808 0.0
C121 C 0.44623 0.02126 0.74377 0.0
C122 C 0.41978 0.02668 0.75161 0.0
C123 C 0.42733 0.02622 0.82587 0.0
C124 C 0.4536 0.02043 0.81948 0.0
H125 H 0.40701 0.03007 0.72475 0.0
H126 H 0.42108 0.02994 0.85796 0.0
H127 H 0.35301 0.06196 0.71905 0.0
H128 H 0.41301 0.11774 0.72528 0.0
H129 H 0.33669 0.97655 0.90526 0.0
H130 H 0.45312 0.02001 0.71119 0.0
H131 H 0.46632 0.01918 0.84699 0.0
C132 C 0.20348 0.88748 0.98929 0.0
C133 C 0.18716 0.88955 0.02391 0.0
N134 N 0.1944 0.91069 0.04641 0.0
N135 N 0.22099 0.90706 0.99046 0.0
C136 C 0.21483 0.92101 0.02526 0.0
H137 H 0.20297 0.87245 0.96516 0.0
Co138 Co 0.24768 0.91235 0.95214 0.0
C139 C 0.2918 0.92364 0.01141 0.0
O140 O 0.30519 0.90607 0.99024 0.0
N141 N 0.27311 0.91807 0.91132 0.0
C142 C 0.29923 0.9387 0.86576 0.0
C143 C 0.29403 0.93401 0.90832 0.0
C144 C 0.26581 0.91395 0.8707 0.0
N145 N 0.281 0.92639 0.84251 0.0
O146 O 0.23202 0.94522 0.93325 0.0
H147 H 0.30301 0.9442 0.9346 0.0
H148 H 0.24807 0.9038 0.86215 0.0
O149 O 0.26888 0.92973 0.99827 0.0
C150 C 0.21315 0.94056 0.90754 0.0
O151 O 0.20508 0.91637 0.90408 0.0
N152 N 0.26125 0.87858 0.96635 0.0
C153 C 0.27231 0.82573 0.98142 0.0
C154 C 0.26876 0.84309 0.01552 0.0
C155 C 0.2632 0.86942 0.00732 0.0
C156 C 0.26433 0.86168 0.93313 0.0
C157 C 0.27028 0.83554 0.93988 0.0
H158 H 0.25946 0.88223 0.03397 0.0
H159 H 0.26085 0.86781 0.9009 0.0
H160 H 0.2256 0.93798 0.03559 0.0
H161 H 0.17131 0.87653 0.03193 0.0
H162 H 0.31353 0.95205 0.85303 0.0
H163 H 0.26978 0.8363 0.04817 0.0
H164 H 0.27186 0.82277 0.91252 0.0
C165 C 0.40134 0.95162 0.23911 0.0
C166 C 0.40014 0.93637 0.27512 0.0
N167 N 0.38046 0.94523 0.29954 0.0
N168 N 0.38248 0.96987 0.24109 0.0
C169 C 0.36988 0.96526 0.27792 0.0
H170 H 0.41554 0.95012 0.21372 0.0
Co171 Co 0.37737 0.99643 0.20245 0.0
C172 C 0.3667 0.04074 0.26137 0.0
O173 O 0.38447 0.05384 0.24009 0.0
N174 N 0.3718 0.02182 0.16155 0.0
C175 C 0.35088 0.04796 0.11644 0.0
C176 C 0.35574 0.04265 0.15887 0.0
C177 C 0.37582 1.0147 0.12083 0.0
N178 N 0.3632 0.02991 0.09292 0.0
O179 O 0.34425 0.98102 0.18377 0.0
H180 H 0.34553 0.05145 0.18527 0.0
H181 H 0.38593 0.99703 0.11203 0.0
O182 O 0.36026 1.01792 0.24837 0.0
C183 C 0.34882 0.96229 0.15782 0.0
O184 O 0.37305 0.95428 0.15404 0.0
N185 N 0.41141 1.00965 0.21635 0.0
C186 C 0.46459 0.01995 0.23095 0.0
C187 C 0.44721 1.01686 0.26519 0.0
C188 C 0.42072 1.01166 0.25724 0.0
C189 C 0.42833 1.01226 0.183 0.0
C190 C 0.45465 1.01782 0.18951 0.0
H191 H 0.40789 1.00829 0.28404 0.0
H192 H 0.42206 1.00868 0.15088 0.0
H193 H 0.35344 0.97657 0.28902 0.0
H194 H 0.4133 0.9207 0.28346 0.0
H195 H 0.33734 0.06217 0.10397 0.0
H196 H 0.45407 1.01798 0.2978 0.0
H197 H 0.4674 1.01904 0.16204 0.0
C198 C 0.33783 0.1511 0.48875 0.0
C199 C 0.3542 0.14894 0.52331 0.0
N200 N 0.34692 0.12781 0.54581 0.0
N201 N 0.32026 0.13158 0.48998 0.0
C202 C 0.32644 0.11758 0.52474 0.0
H203 H 0.33834 0.16616 0.46464 0.0
Co204 Co 0.29342 0.12637 0.4519 0.0
C205 C 0.24943 0.11523 0.51143 0.0
O206 O 0.23606 0.13283 0.49026 0.0
N207 N 0.26782 0.12069 0.41133 0.0
C208 C 0.24177 0.09964 0.36618 0.0
C209 C 0.24708 0.10448 0.40865 0.0
C210 C 0.2749 0.12483 0.3706 0.0
N211 N 0.25974 0.11214 0.34266 0.0
O212 O 0.30896 0.09347 0.43294 0.0
H213 H 0.23838 0.09415 0.43505 0.0
H214 H 0.29252 0.13509 0.3618 0.0
O215 O 0.27231 0.10906 0.49823 0.0
C216 C 0.32773 0.09816 0.40704 0.0
O217 O 0.33567 0.12238 0.40334 0.0
N218 N 0.28 0.16021 0.46616 0.0
C219 C 0.26953 0.21317 0.48132 0.0
C220 C 0.27303 0.19575 0.51539 0.0
C221 C 0.27828 0.16936 0.50715 0.0
C222 C 0.27692 0.17714 0.43297 0.0
C223 C 0.27127 0.20335 0.43978 0.0
H224 H 0.28202 0.15651 0.53377 0.0
H225 H 0.2802 0.17099 0.40071 0.0
H226 H 0.31561 0.10065 0.53512 0.0
H227 H 0.37009 0.16193 0.53132 0.0
H228 H 0.22765 0.08601 0.35369 0.0
H229 H 0.27221 0.20253 0.54805 0.0
H230 H 0.26969 0.21614 0.41242 0.0
C231 C 0.13976 0.0869 0.73872 0.0
C232 C 0.14079 0.10217 0.77471 0.0
N233 N 0.16037 0.09334 0.79938 0.0
N234 N 0.15863 0.06868 0.74097 0.0
C235 C 0.17107 0.0733 0.77794 0.0
H236 H 0.12566 0.08838 0.71318 0.0
Co237 Co 0.16382 0.04213 0.7024 0.0
C238 C 0.17474 0.99781 0.76116 0.0
O239 O 0.15709 0.98463 0.73972 0.0
N240 N 0.16942 1.01678 0.6615 0.0
C241 C 0.1904 0.99087 0.61616 0.0
C242 C 0.18567 0.99612 0.65865 0.0
C243 C 0.16516 0.02389 0.62082 0.0
N244 N 0.1778 1.0088 0.59278 0.0
O245 O 0.19686 0.05766 0.68361 0.0
H246 H 0.1961 0.98744 0.68496 0.0
H247 H 0.15487 0.04148 0.61212 0.0
O248 O 0.18105 0.02069 0.7483 0.0
C249 C 0.19225 0.07635 0.65756 0.0
O250 O 0.16801 0.08428 0.65368 0.0
N251 N 0.12986 0.02876 0.71649 0.0
C252 C 0.07684 1.018 0.73161 0.0
C253 C 0.0943 0.02129 0.76568 0.0
C254 C 0.12071 0.0267 0.75747 0.0
C255 C 0.11285 0.02597 0.6833 0.0
C256 C 0.08661 0.02017 0.69006 0.0
H257 H 0.1336 0.03018 0.78414 0.0
H258 H 0.11898 0.02955 0.6511 0.0
H259 H 0.18745 0.06199 0.78928 0.0
H260 H 0.12758 0.11782 0.78286 0.0
H261 H 0.20403 0.97682 0.60354 0.0
H262 H 0.08755 0.02014 0.79835 0.0
H263 H 0.07376 1.0188 0.66273 0.0
C264 C 0.83913 0.88654 0.98989 0.0
C265 C 0.85547 0.88878 0.02446 0.0
N266 N 0.84793 0.9097 0.04717 0.0
N267 N 0.82131 0.90581 0.99132 0.0
C268 C 0.82731 0.91974 0.02622 0.0
H269 H 0.83981 0.87158 0.96565 0.0
Co270 Co 0.79431 0.9107 0.95347 0.0
C271 C 0.7503 0.92097 0.01362 0.0
O272 O 0.73714 0.90306 0.99279 0.0
N273 N 0.76844 0.91603 0.91319 0.0
C274 C 0.74158 0.93655 0.86868 0.0
C275 C 0.74721 0.93161 0.91099 0.0
C276 C 0.77544 0.91235 0.87232 0.0
N277 N 0.75982 0.92479 0.84476 0.0
O278 O 0.80921 0.94399 0.93466 0.0
H279 H 0.7383 0.9415 0.93762 0.0
H280 H 0.79332 0.90271 0.86315 0.0
O281 O 0.77303 0.92747 1.0001 0.0
C282 C 0.82802 0.93971 0.90865 0.0
O283 O 0.83635 0.91565 0.90475 0.0
N284 N 0.78168 0.87653 0.96732 0.0
C285 C 0.77295 0.82303 0.98112 0.0
C286 C 0.77491 0.84042 0.01559 0.0
C287 C 0.77949 0.86704 0.00804 0.0
C288 C 0.78016 0.85969 0.93378 0.0
C289 C 0.77551 0.83322 0.93985 0.0
H290 H 0.78233 0.87982 0.03503 0.0
H291 H 0.78409 0.86621 0.90188 0.0
H292 H 0.81626 0.93646 0.03681 0.0
H293 H 0.87151 0.87597 0.03237 0.0
H294 H 0.72697 0.94979 0.85657 0.0
H295 H 0.77344 0.83349 0.04812 0.0
H296 H 0.77535 0.82062 0.91218 0.0
C297 C 0.90183 0.08578 0.73998 0.0
C298 C 0.89967 0.10211 0.77453 0.0
N299 N 0.87856 0.09478 0.79711 0.0
N300 N 0.88233 0.06818 0.74131 0.0
C301 C 0.86834 0.0743 0.77611 0.0
H302 H 0.91687 0.08633 0.71581 0.0
Co303 Co 0.87715 0.04141 0.70324 0.0
C304 C 0.8663 0.99739 0.76275 0.0
O305 O 0.88397 0.98415 0.74151 0.0
N306 N 0.87152 1.01588 0.66269 0.0
C307 C 0.85072 0.98972 0.61749 0.0
C308 C 0.85552 0.995 0.65997 0.0
C309 C 0.87556 0.02307 0.622 0.0
N310 N 0.863 1.00785 0.59403 0.0
O311 O 0.84406 0.05677 0.68442 0.0
H312 H 0.84534 0.98614 0.68637 0.0
H313 H 0.88567 0.04077 0.61326 0.0
O314 O 0.85999 0.02021 0.74961 0.0
C315 C 0.84854 0.0756 0.65857 0.0
O316 O 0.87273 0.08375 0.6548 0.0
N317 N 0.91114 0.02817 0.71733 0.0
C318 C 0.96423 1.01764 0.73214 0.0
C319 C 0.94686 0.02103 0.76632 0.0
C320 C 0.92041 0.02633 0.75826 0.0
C321 C 0.92804 0.02525 0.68404 0.0
C322 C 0.95431 0.01959 0.69066 0.0
H323 H 0.90759 0.02997 0.78497 0.0
H324 H 0.92181 0.02867 0.65184 0.0
H325 H 0.85142 0.06344 0.78656 0.0
H326 H 0.91264 0.11801 0.78247 0.0
H327 H 0.83727 0.97544 0.60495 0.0
H328 H 0.95372 0.02008 0.79895 0.0
H329 H 0.96706 1.01814 0.66322 0.0
C330 C 0.70234 0.15019 0.49003 0.0
C331 C 0.68592 0.1482 0.52455 0.0
N332 N 0.6931 0.12714 0.54729 0.0
N333 N 0.71986 0.13065 0.49152 0.0
C334 C 0.71359 0.11679 0.5264 0.0
H335 H 0.70192 0.16516 0.46576 0.0
Co336 Co 0.74674 0.12528 0.45361 0.0
C337 C 0.79076 0.11414 0.51289 0.0
O338 O 0.80417 0.13151 0.49125 0.0
N339 N 0.77237 0.11941 0.41325 0.0
C340 C 0.7974 0.09704 0.36835 0.0
C341 C 0.79234 0.10228 0.41074 0.0
C342 C 0.76549 0.12371 0.37247 0.0
N343 N 0.78004 0.11024 0.34469 0.0
O344 O 0.73116 0.09236 0.43476 0.0
H345 H 0.80043 0.09155 0.43723 0.0
H346 H 0.74819 0.13446 0.36357 0.0
O347 O 0.76775 0.10806 0.50011 0.0
C348 C 0.71261 0.09703 0.40846 0.0
O349 O 0.70473 0.12124 0.40453 0.0
N350 N 0.76025 0.15912 0.46775 0.0
C351 C 0.77079 0.21209 0.48282 0.0
C352 C 0.76733 0.19468 0.51692 0.0
C353 C 0.76205 0.16829 0.50872 0.0
C354 C 0.76333 0.17604 0.43455 0.0
C355 C 0.76901 0.20225 0.4413 0.0
H356 H 0.75832 0.15545 0.53537 0.0
H357 H 0.76 0.1699 0.40231 0.0
H358 H 0.72435 0.09987 0.53699 0.0
H359 H 0.67006 0.16124 0.53236 0.0
H360 H 0.81075 0.08262 0.35604 0.0
H361 H 0.76819 0.20148 0.54958 0.0
H362 H 0.77054 0.21503 0.41392 0.0
C363 C 0.63995 0.9505 0.23936 0.0
C364 C 0.64086 0.9353 0.27548 0.0
N365 N 0.66042 0.94415 0.30017 0.0
N366 N 0.65888 0.96869 0.24158 0.0
C367 C 0.67124 0.9641 0.27862 0.0
H368 H 0.62588 0.94901 0.21377 0.0
Co369 Co 0.66435 0.9952 0.203 0.0
C370 C 0.67516 0.03958 0.26167 0.0
O371 O 0.65776 0.05278 0.23976 0.0
N372 N 0.6703 0.02055 0.16218 0.0
C373 C 0.69197 0.04621 0.11721 0.0
C374 C 0.68702 0.04088 0.15961 0.0
C375 C 0.66601 1.01368 0.12141 0.0
N376 N 0.679 0.02866 0.0936 0.0
O377 O 0.6974 0.97954 0.18464 0.0
H378 H 0.69762 0.0492 0.18604 0.0
H379 H 0.65551 0.99625 0.11244 0.0
O380 O 0.68143 1.01663 0.24911 0.0
C381 C 0.69269 0.96096 0.15844 0.0
O382 O 0.66837 0.95332 0.15417 0.0
N383 N 0.63037 1.00867 0.21664 0.0
C384 C 0.57727 0.01944 0.23108 0.0
C385 C 0.59461 1.01626 0.26537 0.0
C386 C 0.62105 1.01083 0.25749 0.0
C387 C 0.61349 1.01136 0.18325 0.0
C388 C 0.58722 1.01715 0.18967 0.0
H389 H 0.63382 1.0074 0.28434 0.0
H390 H 0.61973 1.00767 0.15115 0.0
H391 H 0.68766 0.97537 0.28996 0.0
H392 H 0.62757 0.91971 0.28369 0.0
H393 H 0.70602 0.05995 0.10481 0.0
H394 H 0.58773 1.01749 0.29796 0.0
H395 H 0.57449 1.01843 0.16218 0.0
C396 C 0.83811 0.14847 0.02098 0.0
C397 C 0.85323 0.14747 0.98481 0.0
N398 N 0.84411 0.12808 0.96008 0.0
N399 N 0.81967 0.12978 0.0188 0.0
C400 C 0.82402 0.11749 0.98165 0.0
H401 H 0.83984 0.16243 0.04665 0.0
Co402 Co 0.79324 0.12459 0.05775 0.0
C403 C 0.74871 0.11537 0.99799 0.0
O404 O 0.73599 0.13367 0.0186 0.0
N405 N 0.76793 0.11901 0.09894 0.0
C406 C 0.73979 0.10081 0.14405 0.0
C407 C 0.74532 0.10554 0.10161 0.0
C408 C 0.77582 0.12162 0.13958 0.0
N409 N 0.75945 0.11054 0.16751 0.0
O410 O 0.80824 0.0911 0.07518 0.0
H411 H 0.73483 0.09724 0.07506 0.0
H412 H 0.79434 0.13017 0.14832 0.0
O413 O 0.77122 0.10831 0.01166 0.0
C414 C 0.82758 0.09513 0.10027 0.0
O415 O 0.8363 0.11909 0.10382 0.0
N416 N 0.78067 0.15896 0.04541 0.0
C417 C 0.77555 0.213 0.03426 0.0
C418 C 0.77583 0.19624 0.99891 0.0
C419 C 0.77873 0.16926 0.00515 0.0
C420 C 0.77955 0.17517 0.07982 0.0
C421 C 0.77657 0.20194 0.07501 0.0
H422 H 0.78097 0.15687 0.97753 0.0
H423 H 0.78279 0.16791 0.11149 0.0
H424 H 0.81252 0.10123 0.97035 0.0
H425 H 0.86902 0.16055 0.97664 0.0
H426 H 0.72381 0.08938 0.15651 0.0
H427 H 0.77547 0.204 0.9668 0.0
H428 H 0.77639 0.21407 0.10327 0.0
C429 C 0.63885 0.08659 0.77098 0.0
C430 C 0.63986 0.10182 0.73491 0.0
N431 N 0.65955 0.09306 0.71041 0.0
N432 N 0.65783 0.06847 0.76894 0.0
C433 C 0.67033 0.07315 0.73204 0.0
H434 H 0.62466 0.08799 0.79641 0.0
Co435 Co 0.6632 0.04185 0.8074 0.0
C436 C 0.67411 0.99775 0.74829 0.0
O437 O 0.65656 0.98444 0.76974 0.0
N438 N 0.66904 1.01636 0.8481 0.0
C439 C 0.69057 0.99045 0.89283 0.0
C440 C 0.68555 0.99587 0.85049 0.0
C441 C 0.66491 0.02321 0.88892 0.0
N442 N 0.67788 1.0081 0.91659 0.0
O443 O 0.69617 0.0575 0.82609 0.0
H444 H 0.69598 0.98745 0.82397 0.0
H445 H 0.65455 0.04067 0.89801 0.0
O446 O 0.6804 0.0206 0.7613 0.0
C447 C 0.69134 0.07605 0.85226 0.0
O448 O 0.66699 0.08364 0.85623 0.0
N449 N 0.62927 0.02839 0.79345 0.0
C450 C 0.57618 1.0178 0.77865 0.0
C451 C 0.59358 0.02108 0.74447 0.0
C452 C 0.62002 0.02642 0.75253 0.0
C453 C 0.61235 0.02555 0.82675 0.0
C454 C 0.58608 0.01986 0.82014 0.0
H455 H 0.63283 0.02995 0.72578 0.0
H456 H 0.61859 0.02907 0.85891 0.0
H457 H 0.6868 0.06193 0.72085 0.0
H458 H 0.62656 0.11736 0.72656 0.0
H459 H 0.7045 0.97655 0.90509 0.0
H460 H 0.58675 0.02001 0.71184 0.0
H461 H 0.5733 1.0185 0.84756 0.0
C462 C 0.70257 0.88707 0.5209 0.0
C463 C 0.68633 0.889 0.48614 0.0
N464 N 0.69358 0.91008 0.4635 0.0
N465 N 0.72004 0.90669 0.51966 0.0
C466 C 0.71392 0.92051 0.48467 0.0
H467 H 0.70204 0.87213 0.5452 0.0
Co468 Co 0.74664 0.91229 0.55805 0.0
C469 C 0.7909 0.92301 0.49881 0.0
O470 O 0.80422 0.90556 0.5204 0.0
N471 N 0.77199 0.91834 0.59886 0.0
C472 C 0.79834 0.93894 0.64407 0.0
C473 C 0.79306 0.93411 0.60159 0.0
C474 C 0.76465 0.91452 0.63954 0.0
N475 N 0.78 0.92692 0.66751 0.0
O476 O 0.731 0.9453 0.57602 0.0
H477 H 0.80217 0.94404 0.57515 0.0
H478 H 0.74686 0.90453 0.64827 0.0
O479 O 0.76796 0.92923 0.51167 0.0
C480 C 0.71207 0.9408 0.60168 0.0
O481 O 0.70393 0.91665 0.60544 0.0
N482 N 0.76015 0.87837 0.54488 0.0
C483 C 0.77083 0.82529 0.53157 0.0
C484 C 0.76774 0.84235 0.4969 0.0
C485 C 0.76234 0.8688 0.50422 0.0
C486 C 0.76279 0.86178 0.57863 0.0
C487 C 0.76853 0.83553 0.57276 0.0
H488 H 0.75886 0.88137 0.47714 0.0
H489 H 0.75904 0.86824 0.61058 0.0
H490 H 0.72468 0.93749 0.47426 0.0
H491 H 0.67053 0.87591 0.47813 0.0
H492 H 0.81285 0.95213 0.65663 0.0
H493 H 0.76896 0.83524 0.46446 0.0
H494 H 0.7697 0.82303 0.60053 0.0
C495 C 0.90106 0.95055 0.2713 0.0
C496 C 0.90017 0.9353 0.23528 0.0
N497 N 0.88053 0.944 0.2106 0.0
N498 N 0.88204 0.96862 0.26906 0.0
C499 C 0.86965 0.96391 0.23209 0.0
H500 H 0.9152 0.9492 0.29681 0.0
Co501 Co 0.87676 0.99525 0.30745 0.0
C502 C 0.86559 0.03913 0.24771 0.0
O503 O 0.88335 0.0526 0.26839 0.0
N504 N 0.87112 0.02067 0.3482 0.0
C505 C 0.85108 0.04728 0.39356 0.0
C506 C 0.85567 0.04192 0.35104 0.0
C507 C 0.87508 1.01336 0.38885 0.0
N508 N 0.86294 0.02883 0.41693 0.0
O509 O 0.84376 0.97968 0.32631 0.0
H510 H 0.84577 0.05116 0.32469 0.0
H511 H 0.88498 0.99554 0.39751 0.0
O512 O 0.85938 1.01641 0.26141 0.0
C513 C 0.84827 0.96087 0.35216 0.0
O514 O 0.87245 0.95272 0.35585 0.0
N515 N 0.91066 1.00871 0.2933 0.0
C516 C 0.96369 0.01954 0.2784 0.0
C517 C 0.94629 1.01613 0.24425 0.0
C518 C 0.91988 1.01066 0.25236 0.0
C519 C 0.92759 1.01164 0.32657 0.0
C520 C 0.95383 1.01746 0.3199 0.0
H521 H 0.90706 1.00705 0.22564 0.0
H522 H 0.92138 1.00814 0.35877 0.0
H523 H 0.85321 0.97512 0.22071 0.0
H524 H 0.91354 0.9198 0.22707 0.0
H525 H 0.83813 0.06195 0.40622 0.0
H526 H 0.95309 1.0172 0.21161 0.0
H527 H 0.96661 1.01893 0.34731 0.0
C528 C 0.70027 0.65249 0.5215 0.0
C529 C 0.68474 0.65048 0.48587 0.0
N530 N 0.69211 0.6291 0.46416 0.0
N531 N 0.71744 0.63262 0.52168 0.0
C532 C 0.71182 0.61858 0.48673 0.0
H533 H 0.69945 0.66763 0.54542 0.0
Co534 Co 0.74315 0.62662 0.56152 0.0
C535 C 0.78846 0.61503 0.50597 0.0
O536 O 0.80167 0.63162 0.52947 0.0
N537 N 0.76753 0.61988 0.60382 0.0
C538 C 0.78895 0.59445 0.64946 0.0
C539 C 0.78593 0.60113 0.60712 0.0
C540 C 0.75956 0.62385 0.64421 0.0
N541 N 0.77182 0.60845 0.67245 0.0
O542 O 0.72685 0.59394 0.57815 0.0
H543 H 0.79397 0.59024 0.58079 0.0
H544 H 0.74281 0.63569 0.65203 0.0
O545 O 0.76495 0.6095 0.51653 0.0
C546 C 0.70773 0.59841 0.60329 0.0
O547 O 0.69957 0.62255 0.60694 0.0
N548 N 0.75766 0.66023 0.54883 0.0
C549 C 0.7696 0.71291 0.53411 0.0
C550 C 0.7665 0.69554 0.49995 0.0
C551 C 0.76053 0.66931 0.50796 0.0
C552 C 0.76059 0.67705 0.58218 0.0
C553 C 0.76691 0.70316 0.57561 0.0
H554 H 0.7571 0.65654 0.48114 0.0
H555 H 0.75672 0.67088 0.61429 0.0
H556 H 0.72248 0.60134 0.47738 0.0
H557 H 0.66932 0.66372 0.47665 0.0
H558 H 0.80072 0.57862 0.66168 0.0
H559 H 0.76813 0.70226 0.46732 0.0
H560 H 0.76827 0.71594 0.60299 0.0
C561 C 0.63877 0.45092 0.77241 0.0
C562 C 0.63988 0.43564 0.73642 0.0
N563 N 0.65944 0.44455 0.71173 0.0
N564 N 0.65756 0.46926 0.77018 0.0
C565 C 0.67003 0.46466 0.73321 0.0
H566 H 0.62467 0.44937 0.79794 0.0
Co567 Co 0.66286 0.49599 0.80862 0.0
C568 C 0.67259 0.5404 0.75041 0.0
O569 O 0.65534 0.55331 0.77309 0.0
N570 N 0.66884 0.52168 0.84909 0.0
C571 C 0.69157 0.54725 0.8929 0.0
C572 C 0.68606 0.54166 0.85082 0.0
C573 C 0.66478 0.51527 0.89012 0.0
N574 N 0.67845 0.53016 0.91724 0.0
O575 O 0.69606 0.48073 0.82676 0.0
H576 H 0.69674 0.54946 0.82403 0.0
H577 H 0.65416 0.49805 0.89975 0.0
O578 O 0.67931 0.51746 0.76236 0.0
C579 C 0.69129 0.46237 0.85335 0.0
O580 O 0.66693 0.45491 0.85788 0.0
N581 N 0.62871 0.50904 0.79515 0.0
C582 C 0.57561 0.51952 0.78055 0.0
C583 C 0.59294 0.51625 0.74632 0.0
C584 C 0.61937 0.51094 0.75427 0.0
C585 C 0.61187 0.51184 0.82854 0.0
C586 C 0.58556 0.51747 0.82202 0.0
H587 H 0.63214 0.50744 0.72746 0.0
H588 H 0.6182 0.50842 0.86068 0.0
H589 H 0.68639 0.47604 0.72191 0.0
H590 H 0.62673 0.41992 0.7283 0.0
H591 H 0.70618 0.56077 0.90439 0.0
H592 H 0.58608 0.51733 0.7137 0.0
H593 H 0.57283 0.51885 0.84948 0.0
C594 C 0.83827 0.391 0.02345 0.0
C595 C 0.85454 0.3929 0.98878 0.0
N596 N 0.84645 0.41311 0.96482 0.0
N597 N 0.81998 0.40978 0.02096 0.0
C598 C 0.82558 0.42308 0.98519 0.0
H599 H 0.83937 0.37661 0.04859 0.0
Co600 Co 0.79312 0.41448 0.05916 0.0
C601 C 0.74885 0.42312 0.99877 0.0
O602 O 0.73624 0.40466 0.01924 0.0
N603 N 0.76753 0.41953 0.09991 0.0
C604 C 0.73908 0.43701 0.14516 0.0
C605 C 0.74461 0.43243 0.10267 0.0
C606 C 0.77556 0.4171 0.14052 0.0
N607 N 0.75902 0.42779 0.16854 0.0
O608 O 0.80727 0.44829 0.07667 0.0
H609 H 0.73388 0.44044 0.07614 0.0
H610 H 0.79428 0.40896 0.14911 0.0
O611 O 0.77126 0.43039 0.01262 0.0
C612 C 0.82676 0.44517 0.10175 0.0
O613 O 0.83658 0.42166 0.10537 0.0
N614 N 0.78119 0.37992 0.04653 0.0
C615 C 0.77603 0.32593 0.03484 0.0
C616 C 0.77655 0.34282 0.99964 0.0
C617 C 0.77949 0.36977 0.00615 0.0
C618 C 0.77994 0.36358 0.0808 0.0
C619 C 0.77698 0.33683 0.07571 0.0
H620 H 0.78188 0.38228 0.97869 0.0
H621 H 0.78299 0.37076 0.11257 0.0
H622 H 0.81411 0.43929 0.97366 0.0
H623 H 0.87094 0.38038 0.98172 0.0
H624 H 0.72282 0.44798 0.15769 0.0
H625 H 0.77629 0.33519 0.96746 0.0
H626 H 0.77664 0.32458 0.10385 0.0
C627 C 0.87988 0.59955 0.2848 0.0
C628 C 0.87883 0.6154 0.24951 0.0
N629 N 0.87439 0.60023 0.21544 0.0
N630 N 0.87541 0.57465 0.27295 0.0
C631 C 0.87248 0.57573 0.23023 0.0
H632 H 0.88357 0.60599 0.31699 0.0
Co633 Co 0.87366 0.5459 0.30885 0.0
C634 C 0.85982 0.50153 0.25133 0.0
O635 O 0.87553 0.4869 0.27402 0.0
N636 N 0.87209 0.51679 0.34734 0.0
C637 C 0.88571 0.48928 0.39776 0.0
C638 C 0.89126 0.5 0.35862 0.0
C639 C 0.85435 0.51405 0.37903 0.0
N640 N 0.86284 0.49899 0.41128 0.0
O641 O 0.84044 0.55899 0.33139 0.0
H642 H 0.90945 0.49733 0.34185 0.0
H643 H 0.83645 0.52489 0.38129 0.0
O644 O 0.85628 0.5253 0.26238 0.0
C645 C 0.84674 0.57308 0.36361 0.0
O646 O 0.8716 0.57452 0.37358 0.0
N647 N 0.90775 0.53693 0.29124 0.0
C648 C 0.96177 0.53411 0.27771 0.0
C649 C 0.94413 0.52624 0.24579 0.0
C650 C 0.91706 0.52828 0.25288 0.0
C651 C 0.92468 0.54506 0.32196 0.0
C652 C 0.95152 0.54336 0.31627 0.0
H653 H 0.90391 0.52387 0.22703 0.0
H654 H 0.91714 0.5529 0.35147 0.0
H655 H 0.86846 0.55908 0.21018 0.0
H656 H 0.88111 0.63634 0.24881 0.0
H657 H 0.89913 0.47807 0.4171 0.0
H658 H 0.95116 0.51957 0.21513 0.0
H659 H 0.96416 0.54945 0.34208 0.0
C660 C 0.70104 0.3867 0.49098 0.0
C661 C 0.68486 0.38887 0.52582 0.0
N662 N 0.69233 0.40993 0.54831 0.0
N663 N 0.7187 0.40614 0.49202 0.0
C664 C 0.71274 0.42011 0.52693 0.0
H665 H 0.70037 0.37165 0.46689 0.0
Co666 Co 0.74569 0.41142 0.45403 0.0
C667 C 0.78968 0.42166 0.51301 0.0
O668 O 0.80297 0.40447 0.49084 0.0
N669 N 0.77157 0.41744 0.41391 0.0
C670 C 0.79658 0.44074 0.37003 0.0
C671 C 0.79129 0.43495 0.41214 0.0
C672 C 0.76506 0.41341 0.37291 0.0
N673 N 0.77956 0.42746 0.34572 0.0
O674 O 0.7304 0.44447 0.4355 0.0
H675 H 0.79899 0.44565 0.43897 0.0
H676 H 0.74795 0.40254 0.36344 0.0
O677 O 0.76674 0.42808 0.50054 0.0
C678 C 0.71199 0.43977 0.40893 0.0
O679 O 0.70425 0.41551 0.40477 0.0
N680 N 0.75892 0.37742 0.46788 0.0
C681 C 0.76983 0.3245 0.4827 0.0
C682 C 0.76608 0.34176 0.51686 0.0
C683 C 0.76059 0.36811 0.5088 0.0
C684 C 0.76219 0.36063 0.43457 0.0
C685 C 0.76805 0.33444 0.4412 0.0
H686 H 0.75674 0.38084 0.53551 0.0
H687 H 0.75899 0.36691 0.40234 0.0
H688 H 0.72369 0.43697 0.53722 0.0
H689 H 0.66898 0.37592 0.53402 0.0
H690 H 0.80983 0.4556 0.35856 0.0
H691 H 0.76693 0.33489 0.54949 0.0
H692 H 0.7698 0.32176 0.41376 0.0
C693 C 0.90149 0.45014 0.74001 0.0
C694 C 0.90058 0.43592 0.77717 0.0
N695 N 0.88064 0.445 0.8008 0.0
N696 N 0.8822 0.46798 0.74055 0.0
C697 C 0.86965 0.46415 0.77764 0.0
H698 H 0.91566 0.44813 0.71468 0.0
Co699 Co 0.87602 0.49296 0.69961 0.0
C700 C 0.8656 0.53912 0.75426 0.0
O701 O 0.8825 0.55184 0.73056 0.0
N702 N 0.86917 0.51666 0.65635 0.0
C703 C 0.84476 0.53897 0.61034 0.0
C704 C 0.85142 0.53601 0.65273 0.0
C705 C 0.87246 0.50804 0.61617 0.0
N706 N 0.85773 0.52089 0.58767 0.0
O707 O 0.84288 0.4769 0.68468 0.0
H708 H 0.84128 0.54509 0.67896 0.0
H709 H 0.88354 0.49075 0.60866 0.0
O710 O 0.85965 0.5157 0.74408 0.0
C711 C 0.84697 0.45737 0.66025 0.0
O712 O 0.87102 0.44884 0.65663 0.0
N713 N 0.91012 0.50693 0.71034 0.0
C714 C 0.96408 0.51349 0.72181 0.0
C715 C 0.94709 0.51404 0.75687 0.0
C716 C 0.92016 0.51047 0.7505 0.0
C717 C 0.9265 0.50751 0.67607 0.0
C718 C 0.95324 0.51113 0.681 0.0
H719 H 0.90766 0.50881 0.77813 0.0
H720 H 0.91945 0.50332 0.6446 0.0
H721 H 0.85282 0.47526 0.78763 0.0
H722 H 0.91401 0.42074 0.78665 0.0
H723 H 0.82974 0.55167 0.59787 0.0
H724 H 0.95465 0.5155 0.78903 0.0
H725 H 0.96556 0.51074 0.65294 0.0
C726 C 0.84858 0.63217 0.97613 0.0
C727 C 0.86448 0.63121 0.01143 0.0
N728 N 0.84948 0.62536 0.04517 0.0
N729 N 0.82386 0.62626 0.98766 0.0
C730 C 0.82509 0.62251 0.03019 0.0
H731 H 0.85485 0.63681 0.94417 0.0
Co732 Co 0.79518 0.62367 0.95161 0.0
C733 C 0.75113 0.60889 0.00939 0.0
O734 O 0.73623 0.62445 0.98691 0.0
N735 N 0.76608 0.62116 0.91295 0.0
C736 C 0.73785 0.63382 0.86283 0.0
C737 C 0.74823 0.63946 0.90217 0.0
C738 C 0.76425 0.60367 0.88078 0.0
N739 N 0.74879 0.61169 0.84867 0.0
O740 O 0.80944 0.59098 0.92888 0.0
H741 H 0.74443 0.6572 0.91955 0.0
H742 H 0.77584 0.58629 0.87826 0.0
O743 O 0.77494 0.60559 0.99801 0.0
C744 C 0.82353 0.59774 0.89683 0.0
O745 O 0.82446 0.62264 0.88728 0.0
N746 N 0.78496 0.65736 0.96944 0.0
C747 C 0.77689 0.71062 0.98292 0.0
C748 C 0.77267 0.69263 0.01598 0.0
C749 C 0.777 0.66593 0.00867 0.0
C750 C 0.79092 0.67492 0.93831 0.0
C751 C 0.7864 0.70142 0.94391 0.0
H752 H 0.77454 0.65247 0.03478 0.0
H753 H 0.79879 0.66811 0.90832 0.0
H754 H 0.80864 0.6173 0.05001 0.0
H755 H 0.88531 0.63458 0.01239 0.0
H756 H 0.72588 0.64679 0.84393 0.0
H757 H 0.76605 0.69911 0.047 0.0
H758 H 0.79071 0.71472 0.91802 0.0
C759 C 0.64186 0.58758 0.23859 0.0
C760 C 0.64263 0.60302 0.27436 0.0
N761 N 0.66157 0.5939 0.30006 0.0
N762 N 0.66027 0.56895 0.24194 0.0
C763 C 0.67215 0.57347 0.27944 0.0
H764 H 0.62825 0.58924 0.21237 0.0
Co765 Co 0.66531 0.54228 0.20357 0.0
C766 C 0.67504 0.49768 0.26223 0.0
O767 O 0.65746 0.48479 0.24018 0.0
N768 N 0.67077 0.51691 0.16276 0.0
C769 C 0.69209 0.49119 0.11756 0.0
C770 C 0.68708 0.49629 0.16002 0.0
C771 C 0.66679 0.52417 0.12207 0.0
N772 N 0.67959 0.50916 0.09412 0.0
O773 O 0.69885 0.55697 0.18569 0.0
H774 H 0.69739 0.4876 0.18644 0.0
H775 H 0.65671 0.54188 0.11335 0.0
O776 O 0.68171 0.52055 0.24982 0.0
C777 C 0.69523 0.57577 0.15948 0.0
O778 O 0.6714 0.58476 0.1551 0.0
N779 N 0.63099 0.52956 0.21688 0.0
C780 C 0.57776 0.51931 0.23098 0.0
C781 C 0.59504 0.52227 0.26538 0.0
C782 C 0.62156 0.52745 0.25767 0.0
C783 C 0.61414 0.52717 0.18338 0.0
C784 C 0.5878 0.52164 0.18963 0.0
H785 H 0.63432 0.53065 0.2846 0.0
H786 H 0.62051 0.53084 0.15133 0.0
H787 H 0.68804 0.56182 0.29171 0.0
H788 H 0.62965 0.61902 0.28164 0.0
H789 H 0.70588 0.47726 0.10506 0.0
H790 H 0.58809 0.521 0.29792 0.0
H791 H 0.57511 0.52053 0.16207 0.0
C792 C 0.33901 0.38713 0.48837 0.0
C793 C 0.3555 0.38924 0.52281 0.0
N794 N 0.34853 0.41054 0.5451 0.0
N795 N 0.32165 0.40683 0.48953 0.0
C796 C 0.32812 0.4209 0.52406 0.0
H797 H 0.33923 0.37195 0.46448 0.0
Co798 Co 0.29458 0.41227 0.45196 0.0
C799 C 0.25123 0.42361 0.51255 0.0
O800 O 0.23745 0.40614 0.4918 0.0
N801 N 0.2687 0.41822 0.41195 0.0
C802 C 0.24249 0.43954 0.36739 0.0
C803 C 0.24806 0.43456 0.40974 0.0
C804 C 0.27547 0.41414 0.37107 0.0
N805 N 0.26021 0.42699 0.34349 0.0
O806 O 0.31022 0.44511 0.4329 0.0
H807 H 0.23961 0.44486 0.43636 0.0
H808 H 0.29297 0.40383 0.36188 0.0
O809 O 0.27401 0.42961 0.49871 0.0
C810 C 0.32882 0.44037 0.40674 0.0
O811 O 0.33657 0.41612 0.40277 0.0
N812 N 0.281 0.3785 0.46634 0.0
C813 C 0.2701 0.32559 0.48142 0.0
C814 C 0.27396 0.3429 0.51551 0.0
C815 C 0.27944 0.36926 0.5073 0.0
C816 C 0.2776 0.36166 0.43312 0.0
C817 C 0.27174 0.33548 0.43989 0.0
H818 H 0.28346 0.38201 0.53392 0.0
H819 H 0.28078 0.36786 0.40084 0.0
H820 H 0.3175 0.43796 0.53437 0.0
H821 H 0.3712 0.37608 0.53095 0.0
H822 H 0.22841 0.45331 0.35522 0.0
H823 H 0.27324 0.33606 0.54816 0.0
H824 H 0.26992 0.32277 0.4125 0.0
C825 C 0.40174 0.58739 0.23847 0.0
C826 C 0.40054 0.60264 0.27447 0.0
N827 N 0.38092 0.59371 0.29896 0.0
N828 N 0.38293 0.56907 0.24055 0.0
C829 C 0.37035 0.57364 0.2774 0.0
H830 H 0.41592 0.58893 0.21306 0.0
Co831 Co 0.37784 0.54243 0.20206 0.0
C832 C 0.36748 0.49813 0.26113 0.0
O833 O 0.38526 0.48513 0.23974 0.0
N834 N 0.37229 0.51694 0.16134 0.0
C835 C 0.35137 0.49054 0.11663 0.0
C836 C 0.35631 0.49602 0.15896 0.0
C837 C 0.37619 0.52396 0.12053 0.0
N838 N 0.36354 0.5086 0.09286 0.0
O839 O 0.34466 0.5577 0.1834 0.0
H840 H 0.34617 0.48724 0.18549 0.0
H841 H 0.3862 0.54165 0.11149 0.0
O842 O 0.36089 0.52091 0.24815 0.0
C843 C 0.34922 0.57641 0.15735 0.0
O844 O 0.37344 0.58441 0.15342 0.0
N845 N 0.41193 0.52938 0.21592 0.0
C846 C 0.46509 0.51911 0.23048 0.0
C847 C 0.44774 0.52225 0.26474 0.0
C848 C 0.42126 0.52745 0.2568 0.0
C849 C 0.42881 0.52675 0.18255 0.0
C850 C 0.45513 0.5212 0.18903 0.0
H851 H 0.40845 0.53085 0.28361 0.0
H852 H 0.4225 0.53027 0.15041 0.0
H853 H 0.35396 0.56227 0.28858 0.0
H854 H 0.41368 0.61835 0.28275 0.0
H855 H 0.33787 0.47622 0.10439 0.0
H856 H 0.45461 0.52115 0.29734 0.0
H857 H 0.46787 0.51995 0.16155 0.0
C858 C 0.20419 0.6516 0.98785 0.0
C859 C 0.18783 0.64968 0.02244 0.0
N860 N 0.195 0.62864 0.04521 0.0
N861 N 0.22166 0.632 0.98933 0.0
C862 C 0.21542 0.6182 0.02428 0.0
H863 H 0.20379 0.66656 0.96357 0.0
Co864 Co 0.24849 0.62674 0.95132 0.0
C865 C 0.29236 0.61545 0.01112 0.0
O866 O 0.3058 0.63314 0.99026 0.0
N867 N 0.27406 0.6211 0.91075 0.0
C868 C 0.30055 0.60084 0.86541 0.0
C869 C 0.29523 0.6055 0.90793 0.0
C870 C 0.26678 0.62508 0.87008 0.0
N871 N 0.28216 0.6128 0.84202 0.0
O872 O 0.23285 0.59386 0.93227 0.0
H873 H 0.30434 0.59551 0.93429 0.0
H874 H 0.24896 0.63502 0.86141 0.0
O875 O 0.26951 0.60931 0.99765 0.0
C876 C 0.21397 0.59846 0.90654 0.0
O877 O 0.20591 0.62264 0.90294 0.0
N878 N 0.26202 0.6605 0.96569 0.0
C879 C 0.27276 0.71339 0.98102 0.0
C880 C 0.26914 0.69596 0.01503 0.0
C881 C 0.26375 0.66961 0.00671 0.0
C882 C 0.26522 0.67745 0.93254 0.0
C883 C 0.271 0.70363 0.93943 0.0
H884 H 0.25992 0.65676 0.03329 0.0
H885 H 0.26195 0.67131 0.90025 0.0
H886 H 0.22616 0.60128 0.03492 0.0
H887 H 0.17203 0.66279 0.03031 0.0
H888 H 0.31509 0.58773 0.85279 0.0
H889 H 0.26997 0.7027 0.04772 0.0
H890 H 0.27265 0.71644 0.91211 0.0
C891 C 0.14153 0.45111 0.73822 0.0
C892 C 0.14201 0.43608 0.7745 0.0
N893 N 0.16104 0.44526 0.79997 0.0
N894 N 0.16022 0.46953 0.74104 0.0
C895 C 0.17196 0.46529 0.77873 0.0
H896 H 0.12793 0.44933 0.71201 0.0
Co897 Co 0.16577 0.49581 0.70202 0.0
C898 C 0.17504 0.54044 0.76125 0.0
O899 O 0.15691 0.55314 0.74015 0.0
N900 N 0.17169 0.52092 0.66075 0.0
C901 C 0.18999 0.54881 0.61538 0.0
C902 C 0.18541 0.54335 0.65789 0.0
C903 C 0.16888 0.51302 0.62017 0.0
N904 N 0.17994 0.52928 0.59208 0.0
O905 O 0.19932 0.48067 0.68514 0.0
H906 H 0.19389 0.55377 0.68435 0.0
H907 H 0.16009 0.49462 0.61157 0.0
O908 O 0.18199 0.51783 0.74812 0.0
C909 C 0.19536 0.46139 0.65997 0.0
O910 O 0.17137 0.45272 0.65608 0.0
N911 N 0.13135 0.50854 0.71381 0.0
C912 C 0.07721 0.51399 0.72429 0.0
C913 C 0.09386 0.51388 0.75983 0.0
C914 C 0.1209 0.5108 0.75393 0.0
C915 C 0.11522 0.50947 0.67922 0.0
C916 C 0.08841 0.51259 0.68368 0.0
H917 H 0.1332 0.50868 0.78172 0.0
H918 H 0.12256 0.50591 0.64772 0.0
H919 H 0.18802 0.47683 0.79068 0.0
H920 H 0.12881 0.42032 0.78222 0.0
H921 H 0.20146 0.56469 0.60273 0.0
H922 H 0.08596 0.5145 0.79183 0.0
H923 H 0.07634 0.51257 0.65531 0.0
C924 C 0.33808 0.6511 0.51905 0.0
C925 C 0.35442 0.64907 0.48445 0.0
N926 N 0.34718 0.62798 0.46185 0.0
N927 N 0.32055 0.63154 0.51775 0.0
C928 C 0.32673 0.61764 0.4829 0.0
H929 H 0.33856 0.66611 0.54323 0.0
Co930 Co 0.29373 0.62627 0.55584 0.0
C931 C 0.24974 0.61489 0.49652 0.0
O932 O 0.23626 0.63237 0.51773 0.0
N933 N 0.26818 0.62055 0.59642 0.0
C934 C 0.24268 0.59905 0.64183 0.0
C935 C 0.24778 0.60393 0.59931 0.0
C936 C 0.27527 0.62489 0.63708 0.0
N937 N 0.26043 0.61196 0.66517 0.0
O938 O 0.30929 0.59338 0.57487 0.0
H939 H 0.2393 0.59334 0.573 0.0
H940 H 0.29279 0.63538 0.64572 0.0
O941 O 0.27269 0.60889 0.50961 0.0
C942 C 0.328 0.59798 0.60091 0.0
O943 O 0.33609 0.62215 0.60459 0.0
N944 N 0.28021 0.66007 0.54146 0.0
C945 C 0.26928 0.71293 0.5261 0.0
C946 C 0.27284 0.69551 0.4921 0.0
C947 C 0.27832 0.66916 0.50044 0.0
C948 C 0.27712 0.67704 0.57457 0.0
C949 C 0.27124 0.70319 0.56768 0.0
H950 H 0.28208 0.65631 0.47386 0.0
H951 H 0.28054 0.67097 0.60684 0.0
H952 H 0.31594 0.60071 0.47245 0.0
H953 H 0.37028 0.66211 0.47649 0.0
H954 H 0.22894 0.58508 0.65447 0.0
H955 H 0.27188 0.70224 0.4594 0.0
H956 H 0.26964 0.716 0.59498 0.0
C957 C 0.14045 0.58937 0.2692 0.0
C958 C 0.14191 0.60455 0.23314 0.0
N959 N 0.16119 0.59508 0.20848 0.0
N960 N 0.15874 0.57057 0.26701 0.0
C961 C 0.17128 0.57475 0.23 0.0
H962 H 0.1264 0.5913 0.29473 0.0
Co963 Co 0.16302 0.54382 0.30551 0.0
C964 C 0.17237 0.49916 0.24653 0.0
O965 O 0.15415 0.48659 0.26769 0.0
N966 N 0.16774 0.51811 0.34625 0.0
C967 C 0.18864 0.49157 0.39075 0.0
C968 C 0.18356 0.49708 0.3485 0.0
C969 C 0.16402 0.52511 0.38712 0.0
N970 N 0.17672 0.50968 0.41468 0.0
O971 O 0.19665 0.55805 0.32415 0.0
H972 H 0.19364 0.48832 0.32192 0.0
H973 H 0.15439 0.54296 0.39626 0.0
O974 O 0.17935 0.52182 0.25948 0.0
C975 C 0.19248 0.57682 0.35023 0.0
O976 O 0.16843 0.58528 0.35418 0.0
N977 N 0.1285 0.53207 0.29185 0.0
C978 C 0.07454 0.52851 0.27771 0.0
C979 C 0.09206 0.5273 0.24344 0.0
C980 C 0.11901 0.52957 0.25112 0.0
C981 C 0.11146 0.53254 0.32527 0.0
C982 C 0.08463 0.53056 0.31898 0.0
H983 H 0.13205 0.53096 0.22413 0.0
H984 H 0.11819 0.53645 0.35704 0.0
H985 H 0.18729 0.56292 0.2187 0.0
H986 H 0.12917 0.62057 0.22494 0.0
H987 H 0.20217 0.47721 0.40277 0.0
H988 H 0.08494 0.52635 0.21096 0.0
H989 H 0.07172 0.53199 0.34624 0.0
C990 C 0.20201 0.38757 0.02071 0.0
C991 C 0.18561 0.38974 0.98619 0.0
N992 N 0.19274 0.41099 0.96386 0.0
N993 N 0.21948 0.40719 0.01958 0.0
C994 C 0.21317 0.42128 0.98498 0.0
H995 H 0.20164 0.37242 0.04467 0.0
Co996 Co 0.24641 0.41254 0.05741 0.0
C997 C 0.29018 0.4237 0.99746 0.0
O998 O 0.3037 0.40624 0.01869 0.0
N999 N 0.27213 0.41839 0.09772 0.0
C1000 C 0.29823 0.43969 0.14246 0.0
C1001 C 0.29276 0.43476 0.10009 0.0
C1002 C 0.26527 0.41425 0.13855 0.0
N1003 N 0.28047 0.42708 0.16624 0.0
O1004 O 0.23078 0.4454 0.07636 0.0
H1005 H 0.30125 0.44513 0.07354 0.0
H1006 H 0.24774 0.40391 0.14763 0.0
O1007 O 0.26732 0.42983 0.0108 0.0
C1008 C 0.21212 0.44062 0.10243 0.0
O1009 O 0.20443 0.41633 0.1064 0.0
N1010 N 0.25991 0.37873 0.04315 0.0
C1011 C 0.27069 0.32583 0.02797 0.0
C1012 C 0.26699 0.34321 0.99391 0.0
C1013 C 0.26158 0.36956 1.00216 0.0
C1014 C 0.26317 0.36183 0.07634 0.0
C1015 C 0.26897 0.33565 0.06952 0.0
H1016 H 0.25769 0.38237 0.97555 0.0
H1017 H 0.25994 0.36799 0.10861 0.0
H1018 H 0.22391 0.43829 0.97468 0.0
H1019 H 0.16984 0.37665 0.97801 0.0
H1020 H 0.31229 0.45346 0.15475 0.0
H1021 H 0.26779 0.33644 0.96125 0.0
H1022 H 0.27068 0.32289 0.09688 0.0
C1023 C 0.4 0.4509 0.77049 0.0
C1024 C 0.39948 0.43574 0.73436 0.0
N1025 N 0.38034 0.44475 0.70895 0.0
N1026 N 0.38124 0.46921 0.76762 0.0
C1027 C 0.36938 0.46476 0.73008 0.0
H1028 H 0.41371 0.44931 0.79658 0.0
Co1029 Co 0.37576 0.49569 0.80621 0.0
C1030 C 0.36529 0.5402 0.74758 0.0
O1031 O 0.38277 0.5533 0.76951 0.0
N1032 N 0.36989 0.52095 0.84711 0.0
C1033 C 0.34897 0.54697 0.89236 0.0
C1034 C 0.35371 0.54167 0.84988 0.0
C1035 C 0.37402 0.51381 0.88779 0.0
N1036 N 0.36148 0.529 0.91577 0.0
O1037 O 0.34257 0.4802 0.82429 0.0
H1038 H 0.3434 0.55042 0.82351 0.0
H1039 H 0.38422 0.49618 0.89656 0.0
O1040 O 0.35889 0.51727 0.76008 0.0
C1041 C 0.34698 0.46152 0.85043 0.0
O1042 O 0.37115 0.45346 0.85463 0.0
N1043 N 0.40982 0.50903 0.79292 0.0
C1044 C 0.46298 0.51969 0.7791 0.0
C1045 C 0.44577 0.51671 0.7446 0.0
C1046 C 0.41928 0.51132 0.75217 0.0
C1047 C 0.42659 0.5115 0.82649 0.0
C1048 C 0.45289 0.51724 0.82039 0.0
H1049 H 0.40659 0.50804 0.72517 0.0
H1050 H 0.42025 0.50765 0.85848 0.0
H1051 H 0.35327 0.4762 0.7181 0.0
H1052 H 0.41275 0.42006 0.72664 0.0
H1053 H 0.33544 0.56111 0.90497 0.0
H1054 H 0.45278 0.51805 0.7121 0.0
H1055 H 0.46553 0.51834 0.84801 0.0
C1056 C 0.20847 0.04611 0.18834 0.0
C1057 C 0.18389 0.05206 0.20611 0.0
H1058 H 0.23723 0.05597 0.14049 0.0
C1059 C 0.16813 0.07028 0.18483 0.0
H1060 H 0.22107 0.03208 0.20382 0.0
C1061 C 0.17702 0.08333 0.14861 0.0
C1062 C 0.20212 0.07888 0.13222 0.0
H1063 H 0.14889 0.07503 0.19679 0.0
H1064 H 0.1645 0.09797 0.13446 0.0
C1065 C 0.21759 0.05955 0.15178 0.0
C1066 C 0.20735 0.92626 0.39714 0.0
C1067 C 0.21151 0.95154 0.38148 0.0
H1068 H 0.21577 0.89788 0.44482 0.0
C1069 C 0.23047 0.96714 0.4018 0.0
H1070 H 0.19298 0.91366 0.38242 0.0
C1071 C 0.24382 0.95791 0.43841 0.0
C1072 C 0.23813 0.93311 0.45545 0.0
H1073 H 0.23378 0.98692 0.39112 0.0
H1074 H 0.2575 0.9706 0.45452 0.0
C1075 C 0.22031 0.91727 0.4334 0.0
C1076 C 0.3224 0.97898 0.65188 0.0
C1077 C 0.3379 0.95962 0.63251 0.0
H1078 H 0.31883 1.00652 0.70377 0.0
C1079 C 0.36295 0.95515 0.6491 0.0
H1080 H 0.3028 0.98258 0.64043 0.0
C1081 C 0.37177 0.96824 0.68532 0.0
C1082 C 0.35598 0.98651 0.7064 0.0
H1083 H 0.37549 0.94049 0.6351 0.0
H1084 H 0.39097 0.96347 0.69743 0.0
C1085 C 0.33146 0.99246 0.68845 0.0
C1086 C 0.30961 0.07165 0.90176 0.0
C1087 C 0.3286 0.08722 0.88147 0.0
H1088 H 0.28256 0.06818 0.95446 0.0
C1089 C 0.3328 0.11248 0.89716 0.0
H1090 H 0.30626 0.05189 0.89106 0.0
C1091 C 0.31986 0.12147 0.93342 0.0
C1092 C 0.302 0.10564 0.95544 0.0
H1093 H 0.34721 0.12506 0.88246 0.0
H1094 H 0.32444 0.14083 0.94487 0.0
C1095 C 0.29627 0.08086 0.93837 0.0
C1096 C 0.21807 0.97916 0.85675 0.0
C1097 C 0.20258 0.9598 0.87625 0.0
H1098 H 0.2216 1.00663 0.80472 0.0
C1099 C 0.17751 0.95529 0.85975 0.0
H1100 H 0.23768 0.98279 0.86814 0.0
C1101 C 0.16867 0.96831 0.82348 0.0
C1102 C 0.18445 0.98657 0.80227 0.0
H1103 H 0.16498 0.94063 0.87385 0.0
H1104 H 0.14946 0.96352 0.81143 0.0
C1105 C 0.20899 0.99258 0.82014 0.0
C1106 C 0.29705 0.95813 0.06992 0.0
C1107 C 0.30281 0.93343 0.05264 0.0
H1108 H 0.30701 0.987 0.11745 0.0
C1109 C 0.32073 0.9176 0.07449 0.0
H1110 H 0.28328 0.97081 0.05397 0.0
C1111 C 0.33369 0.92652 0.11079 0.0
C1112 C 0.32944 0.95171 0.12671 0.0
H1113 H 0.32534 0.89828 0.06288 0.0
H1114 H 0.34812 0.91394 0.12536 0.0
C1115 C 0.3104 0.96729 0.10657 0.0
C1116 C 0.32302 0.05947 0.35645 0.0
C1117 C 0.33843 0.07887 0.37599 0.0
H1118 H 0.31969 0.03193 0.30453 0.0
C1119 C 0.36355 0.08339 0.35971 0.0
H1120 H 0.30338 0.05584 0.36766 0.0
C1121 C 0.37253 0.07031 0.3236 0.0
C1122 C 0.35684 0.05201 0.30233 0.0
H1123 H 0.37601 0.09808 0.37386 0.0
H1124 H 0.39178 0.07511 0.31172 0.0
C1125 C 0.33224 0.04602 0.32 0.0
C1126 C 0.2074 0.11219 0.61064 0.0
C1127 C 0.21165 0.08698 0.62652 0.0
H1128 H 0.2158 0.1405 0.56283 0.0
C1129 C 0.23073 0.07144 0.60642 0.0
H1130 H 0.19293 0.12474 0.62517 0.0
C1131 C 0.24412 0.08066 0.56985 0.0
C1132 C 0.23837 0.10538 0.5526 0.0
H1133 H 0.23411 0.05171 0.61728 0.0
H1134 H 0.25791 0.06801 0.55393 0.0
C1135 C 0.22041 0.12117 0.57441 0.0
C1136 C 0.87264 0.9686 0.82585 0.0
C1137 C 0.85657 0.98627 0.80395 0.0
H1138 H 0.87656 0.94121 0.87662 0.0
C1139 C 0.83169 0.99163 0.82106 0.0
H1140 H 0.8921 0.96431 0.81436 0.0
C1141 C 0.82261 0.9781 0.85759 0.0
C1142 C 0.83843 0.95928 0.87774 0.0
H1143 H 0.81883 1.00519 0.80505 0.0
H1144 H 0.80277 0.98116 0.86833 0.0
C1145 C 0.86379 0.95546 0.86202 0.0
C1146 C 0.79628 0.07971 0.57143 0.0
C1147 C 0.80197 0.1044 0.554 0.0
H1148 H 0.8065 0.05086 0.61888 0.0
C1149 C 0.82006 0.12024 0.57547 0.0
H1150 H 0.7824 0.06703 0.55575 0.0
C1151 C 0.83325 0.11133 0.61156 0.0
C1152 C 0.82906 0.08614 0.62761 0.0
H1153 H 0.82463 0.13954 0.56371 0.0
H1154 H 0.84779 0.12391 0.62585 0.0
C1155 C 0.80986 0.07057 0.60787 0.0
C1156 C 0.67729 0.0822 0.36011 0.0
C1157 C 0.70224 0.07773 0.37709 0.0
H1158 H 0.64956 0.07389 0.31133 0.0
C1159 C 0.71786 0.05838 0.35794 0.0
H1160 H 0.66467 0.09687 0.37392 0.0
C1161 C 0.70902 0.04491 0.32123 0.0
C1162 C 0.6846 0.05086 0.30291 0.0
H1163 H 0.7374 0.05479 0.36968 0.0
H1164 H 0.72174 0.03086 0.30609 0.0
C1165 C 0.66869 0.06913 0.32375 0.0
C1166 C 0.74497 0.95584 0.07152 0.0
C1167 C 0.73908 0.93109 0.05449 0.0
H1168 H 0.73501 0.98505 0.11846 0.0
C1169 C 0.72083 0.91555 0.07624 0.0
H1170 H 0.75898 0.9683 0.05565 0.0
C1171 C 0.70771 0.9248 0.11216 0.0
C1172 C 0.71214 0.95003 0.12781 0.0
H1173 H 0.71608 0.89622 0.06484 0.0
H1174 H 0.69303 0.91245 0.12663 0.0
C1175 C 0.73148 0.96531 0.1078 0.0
C1176 C 0.86344 0.07917 0.1464 0.0
C1177 C 0.83789 0.07562 0.13132 0.0
H1178 H 0.89183 0.07066 0.19411 0.0
C1179 C 0.82183 0.05743 0.15254 0.0
H1180 H 0.8764 0.09294 0.13097 0.0
C1181 C 0.83085 0.04438 0.18954 0.0
C1182 C 0.85591 0.04962 0.20608 0.0
H1183 H 0.80185 0.05461 0.14231 0.0
H1184 H 0.81781 0.03137 0.20639 0.0
C1185 C 0.87223 0.06653 0.18308 0.0
C1186 C 0.70591 0.11188 0.89962 0.0
C1187 C 0.71061 0.08686 0.88332 0.0
H1188 H 0.71399 0.14011 0.94761 0.0
C1189 C 0.73009 0.0716 0.90295 0.0
H1190 H 0.69113 0.12422 0.88543 0.0
C1191 C 0.74348 0.08089 0.93947 0.0
C1192 C 0.73734 0.1054 0.95712 0.0
H1193 H 0.73385 0.05202 0.89175 0.0
H1194 H 0.75766 0.06845 0.95496 0.0
C1195 C 0.71893 0.12093 0.93577 0.0
C1196 C 0.70836 0.99249 0.68942 0.0
C1197 C 0.68368 0.98675 0.70699 0.0
H1198 H 0.73707 0.9825 0.64161 0.0
C1199 C 0.66767 0.9689 0.68535 0.0
H1200 H 0.72116 1.00622 0.7052 0.0
C1201 C 0.67641 0.95596 0.64897 0.0
C1202 C 0.70162 0.96016 0.63281 0.0
H1203 H 0.64835 0.96434 0.69719 0.0
H1204 H 0.66372 0.94157 0.63456 0.0
C1205 C 0.71735 0.97915 0.65271 0.0
C1206 C 0.79631 0.95718 0.43982 0.0
C1207 C 0.80205 0.93258 0.45754 0.0
H1208 H 0.80638 0.98578 0.39188 0.0
C1209 C 0.82005 0.91664 0.43612 0.0
H1210 H 0.78249 0.96993 0.45544 0.0
C1211 C 0.8331 0.92536 0.39977 0.0
C1212 C 0.82887 0.95047 0.38341 0.0
H1213 H 0.82463 0.89739 0.44808 0.0
H1214 H 0.84758 0.91271 0.38552 0.0
C1215 C 0.80976 0.96614 0.40313 0.0
C1216 C 0.70553 0.54617 0.69002 0.0
C1217 C 0.68133 0.55193 0.70914 0.0
H1218 H 0.73318 0.55635 0.64078 0.0
C1219 C 0.66501 0.57018 0.6891 0.0
H1220 H 0.71851 0.53213 0.7046 0.0
C1221 C 0.67305 0.58343 0.65261 0.0
C1222 C 0.69779 0.57912 0.63485 0.0
H1223 H 0.64602 0.57476 0.70224 0.0
H1224 H 0.66018 0.59808 0.63934 0.0
C1225 C 0.71379 0.55981 0.65322 0.0
C1226 C 0.70614 0.42648 0.9003 0.0
C1227 C 0.7107 0.45157 0.88414 0.0
H1228 H 0.71436 0.3982 0.94818 0.0
C1229 C 0.73009 0.46692 0.90384 0.0
H1230 H 0.69142 0.41409 0.88605 0.0
C1231 C 0.7435 0.45766 0.94035 0.0
C1232 C 0.73748 0.43306 0.95788 0.0
H1233 H 0.73371 0.48656 0.89277 0.0
H1234 H 0.75757 0.47017 0.95595 0.0
C1235 C 0.71919 0.41744 0.93643 0.0
C1236 C 0.82651 0.49569 0.19131 0.0
C1237 C 0.85153 0.49153 0.2087 0.0
H1238 H 0.79867 0.48428 0.14298 0.0
C1239 C 0.86898 0.4756 0.18613 0.0
H1240 H 0.81261 0.50786 0.20796 0.0
C1241 C 0.86132 0.46275 0.14899 0.0
C1242 C 0.83581 0.46509 0.13311 0.0
H1243 H 0.88855 0.47232 0.19804 0.0
H1244 H 0.87511 0.44968 0.13393 0.0
C1245 C 0.81863 0.48241 0.15385 0.0
C1246 C 0.82331 0.61738 0.45071 0.0
C1247 C 0.80072 0.60499 0.46595 0.0
H1248 H 0.85449 0.61759 0.4058 0.0
C1249 C 0.79093 0.58353 0.44279 0.0
H1250 H 0.83124 0.63428 0.4668 0.0
C1251 C 0.80451 0.57386 0.40681 0.0
C1252 C 0.82798 0.58563 0.39351 0.0
H1253 H 0.77341 0.57367 0.45338 0.0
H1254 H 0.79751 0.55644 0.39112 0.0
C1255 C 0.83659 0.60793 0.41522 0.0
C1256 C 0.70857 0.49224 0.32223 0.0
C1257 C 0.68433 0.48615 0.30337 0.0
H1258 H 0.73668 0.48242 0.3711 0.0
C1259 C 0.66844 0.4676 0.32366 0.0
H1260 H 0.72126 0.50652 0.30753 0.0
C1261 C 0.67691 0.45443 0.36003 0.0
C1262 C 0.70169 0.45909 0.37755 0.0
H1263 H 0.64944 0.4627 0.31085 0.0
H1264 H 0.66433 0.43957 0.37343 0.0
C1265 C 0.71727 0.47868 0.35894 0.0
C1266 C 0.83117 0.42227 0.61262 0.0
C1267 C 0.8275 0.44743 0.62898 0.0
H1268 H 0.82226 0.39474 0.56388 0.0
C1269 C 0.80896 0.4637 0.60914 0.0
H1270 H 0.84524 0.40921 0.62702 0.0
C1271 C 0.79552 0.45526 0.57224 0.0
C1272 C 0.80075 0.4306 0.55449 0.0
H1273 H 0.80606 0.48341 0.62044 0.0
H1274 H 0.78217 0.46844 0.55646 0.0
C1275 C 0.81813 0.41405 0.57601 0.0
C1276 C 0.83505 0.54142 0.81886 0.0
C1277 C 0.85545 0.55188 0.79386 0.0
H1278 H 0.80886 0.54739 0.87205 0.0
C1279 C 0.8668 0.57544 0.80707 0.0
H1280 H 0.82603 0.52316 0.80993 0.0
C1281 C 0.85739 0.58883 0.84251 0.0
C1282 C 0.83616 0.57938 0.86625 0.0
H1283 H 0.88285 0.584 0.78952 0.0
H1284 H 0.86629 0.60736 0.85042 0.0
C1285 C 0.82544 0.55509 0.85479 0.0
C1286 C 0.71251 0.61031 0.11201 0.0
C1287 C 0.71511 0.58492 0.12807 0.0
H1288 H 0.72181 0.63745 0.06276 0.0
C1289 C 0.73257 0.56787 0.10737 0.0
H1290 H 0.69929 0.62397 0.12701 0.0
C1291 C 0.74574 0.57574 0.06976 0.0
C1292 C 0.74135 0.60063 0.05222 0.0
H1293 H 0.73461 0.54798 0.11837 0.0
H1294 H 0.758 0.56191 0.05313 0.0
C1295 C 0.72529 0.61798 0.07478 0.0
C1296 C 0.37342 0.4683 0.32304 0.0
C1297 C 0.35774 0.48675 0.3021 0.0
H1298 H 0.37695 0.44033 0.373 0.0
C1299 C 0.33326 0.4928 0.32009 0.0
H1300 H 0.39259 0.46346 0.3109 0.0
C1301 C 0.32412 0.47925 0.35655 0.0
C1302 C 0.3395 0.45971 0.37572 0.0
H1303 H 0.32072 0.50699 0.30489 0.0
H1304 H 0.30455 0.48294 0.36803 0.0
C1305 C 0.36452 0.45513 0.35912 0.0
C1306 C 0.33389 0.61236 0.11088 0.0
C1307 C 0.32978 0.58704 0.1264 0.0
H1308 H 0.32549 0.64081 0.0633 0.0
C1309 C 0.31089 0.57144 0.10592 0.0
H1310 H 0.34822 0.62496 0.12572 0.0
C1311 C 0.29758 0.58069 0.06928 0.0
C1312 C 0.30323 0.60554 0.05238 0.0
H1313 H 0.30762 0.55163 0.11648 0.0
H1314 H 0.28397 0.56799 0.05303 0.0
C1315 C 0.32097 0.62139 0.07461 0.0
C1316 C 0.21868 0.55964 0.85622 0.0
C1317 C 0.2033 0.57913 0.8755 0.0
H1318 H 0.22201 0.53188 0.80463 0.0
C1319 C 0.17822 0.58362 0.85904 0.0
H1320 H 0.23829 0.55601 0.86758 0.0
C1321 C 0.16925 0.57041 0.82304 0.0
C1322 C 0.18491 0.55199 0.80204 0.0
H1323 H 0.16576 0.59838 0.87298 0.0
H1324 H 0.15002 0.57519 0.81104 0.0
C1325 C 0.20948 0.54605 0.81987 0.0
C1326 C 0.23282 0.46742 0.60735 0.0
C1327 C 0.21501 0.45119 0.62908 0.0
H1328 H 0.25853 0.47158 0.55305 0.0
C1329 C 0.21183 0.42553 0.61451 0.0
H1330 H 0.2353 0.48747 0.61716 0.0
C1331 C 0.22446 0.41676 0.57782 0.0
C1332 C 0.24097 0.43322 0.55432 0.0
H1333 H 0.19831 0.41248 0.63032 0.0
H1334 H 0.2206 0.39708 0.56711 0.0
C1335 C 0.24586 0.45842 0.57035 0.0
C1336 C 0.33149 0.54567 0.68796 0.0
C1337 C 0.35588 0.55161 0.7064 0.0
H1338 H 0.30318 0.55561 0.63945 0.0
C1339 C 0.3718 0.56997 0.68573 0.0
H1340 H 0.31877 0.53154 0.70296 0.0
C1341 C 0.36324 0.58314 0.64942 0.0
C1342 C 0.33832 0.57866 0.63232 0.0
H1343 H 0.39092 0.57474 0.69823 0.0
H1344 H 0.37587 0.59786 0.63573 0.0
C1345 C 0.32269 0.55922 0.65129 0.0
C1346 C 0.24394 0.58016 0.43859 0.0
C1347 C 0.23885 0.60518 0.45519 0.0
H1348 H 0.23331 0.55118 0.39164 0.0
C1349 C 0.22161 0.62139 0.43266 0.0
H1350 H 0.25716 0.56718 0.45513 0.0
C1351 C 0.20861 0.61257 0.39634 0.0
C1352 C 0.21212 0.58709 0.38114 0.0
H1353 H 0.21754 0.64093 0.44379 0.0
H1354 H 0.19465 0.62545 0.38125 0.0
C1355 C 0.23053 0.5711 0.40195 0.0
C1356 C 0.2069 0.49355 0.18812 0.0
C1357 C 0.18242 0.48737 0.20607 0.0
H1358 H 0.23584 0.4837 0.14059 0.0
C1359 C 0.16705 0.4685 0.18552 0.0
H1360 H 0.21921 0.50807 0.20302 0.0
C1361 C 0.17622 0.45515 0.14981 0.0
C1362 C 0.20121 0.45995 0.1332 0.0
H1363 H 0.1479 0.46351 0.19762 0.0
H1364 H 0.16398 0.44009 0.13619 0.0
C1365 C 0.2163 0.47983 0.15206 0.0
C1366 C 0.31841 0.41712 0.93373 0.0
C1367 C 0.30095 0.43327 0.95593 0.0
H1368 H 0.34545 0.41306 0.88243 0.0
C1369 C 0.29552 0.45808 0.93879 0.0
H1370 H 0.32274 0.39771 0.94525 0.0
C1371 C 0.30881 0.46705 0.90195 0.0
C1372 C 0.32746 0.45116 0.8815 0.0
H1373 H 0.28213 0.471 0.95503 0.0
H1374 H 0.30576 0.48685 0.89121 0.0
C1375 C 0.33131 0.42585 0.89724 0.0
C1376 C 0.24444 0.10815 0.26874 0.0
C1377 C 0.26499 0.10917 0.29804 0.0
H1378 H 0.23346 0.10824 0.20307 0.0
C1379 C 0.29089 0.10851 0.28314 0.0
H1380 H 0.22439 0.10834 0.27957 0.0
C1381 C 0.29614 0.10838 0.23953 0.0
C1382 C 0.27558 0.10921 0.21022 0.0
H1383 H 0.30712 0.10855 0.3052 0.0
H1384 H 0.31619 0.10874 0.2287 0.0
C1385 C 0.24969 0.10833 0.22513 0.0
C1386 C 0.1815 0.99877 0.47529 0.0
C1387 C 0.18052 0.02461 0.46037 0.0
H1388 H 0.18161 0.97353 0.52974 0.0
C1389 C 0.1813 0.04513 0.48964 0.0
H1390 H 0.18165 0.98257 0.45325 0.0
C1391 C 0.18123 0.0399 0.53324 0.0
C1392 C 0.18067 1.01405 0.54816 0.0
H1393 H 0.18087 0.06514 0.4788 0.0
H1394 H 0.18118 0.0561 0.55529 0.0
C1395 C 0.18171 0.99354 0.51889 0.0
C1396 C 0.24436 0.93003 0.73957 0.0
C1397 C 0.26482 0.92898 0.71013 0.0
H1398 H 0.23355 0.93014 0.80531 0.0
C1399 C 0.29076 0.92974 0.72486 0.0
H1400 H 0.22427 0.92977 0.72889 0.0
C1401 C 0.29613 0.93003 0.76843 0.0
C1402 C 0.27566 0.92925 0.79788 0.0
H1403 H 0.30693 0.92968 0.7027 0.0
H1404 H 0.31621 0.92976 0.77912 0.0
C1405 C 0.24972 0.93001 0.78314 0.0
C1406 C 0.35891 0.99364 0.98985 0.0
C1407 C 0.35957 1.01418 0.96057 0.0
H1408 H 0.35944 0.98264 0.05548 0.0
C1409 C 0.35878 0.04001 0.97548 0.0
H1410 H 0.3592 0.97363 0.979 0.0
C1411 C 0.35887 0.04522 0.01908 0.0
C1412 C 0.36005 0.02469 0.04834 0.0
H1413 H 0.35855 0.05622 0.95343 0.0
H1414 H 0.35912 0.06523 0.02992 0.0
C1415 C 0.35929 0.99885 0.03344 0.0
C1416 C 0.74917 0.93014 0.72751 0.0
C1417 C 0.775 0.92959 0.71225 0.0
H1418 H 0.72414 0.92917 0.78221 0.0
C1419 C 0.79569 0.93018 0.74131 0.0
H1420 H 0.73284 0.93044 0.70566 0.0
C1421 C 0.79066 0.92944 0.78495 0.0
C1422 C 0.76483 0.92835 0.80016 0.0
H1423 H 0.81569 0.93007 0.73023 0.0
H1424 H 0.80701 0.92925 0.80677 0.0
C1425 C 0.74414 0.92964 0.77116 0.0
C1426 C 0.85899 0.99781 0.47653 0.0
C1427 C 0.85997 0.02365 0.46158 0.0
H1428 H 0.859 0.97257 0.53098 0.0
C1429 C 0.85925 0.04417 0.49086 0.0
H1430 H 0.85877 0.9816 0.45452 0.0
C1431 C 0.85938 0.03894 0.53447 0.0
C1432 C 0.85999 1.01309 0.5494 0.0
H1433 H 0.85967 0.06418 0.48003 0.0
H1434 H 0.85946 0.05515 0.5565 0.0
C1435 C 0.85887 0.99258 0.52013 0.0
C1436 C 0.79516 0.10471 0.27099 0.0
C1437 C 0.77467 0.10722 0.30011 0.0
H1438 H 0.8063 0.10362 0.2055 0.0
C1439 C 0.7488 0.10798 0.28504 0.0
H1440 H 0.81517 0.10378 0.28194 0.0
C1441 C 0.74365 0.10787 0.2414 0.0
C1442 C 0.76429 0.10725 0.21222 0.0
H1443 H 0.73255 0.10912 0.30697 0.0
H1444 H 0.72368 0.10942 0.23046 0.0
C1445 C 0.79003 0.10485 0.22737 0.0
C1446 C 0.68192 0.03905 0.97618 0.0
C1447 C 0.68111 1.01323 0.96117 0.0
H1448 H 0.6822 0.06414 0.0308 0.0
C1449 C 0.68232 0.99264 0.9903 0.0
H1450 H 0.68169 0.05529 0.95421 0.0
C1451 C 0.6825 0.99776 0.03393 0.0
C1452 C 0.6818 0.02357 0.04896 0.0
H1453 H 0.68202 0.97266 0.97934 0.0
H1454 H 0.6827 0.98153 0.05593 0.0
C1455 C 0.68244 0.04417 0.0198 0.0
C1456 C 0.73924 0.60999 0.73067 0.0
C1457 C 0.76488 0.6051 0.71657 0.0
H1458 H 0.71385 0.61536 0.78435 0.0
C1459 C 0.78394 0.59836 0.74652 0.0
H1460 H 0.72381 0.61428 0.70822 0.0
C1461 C 0.77809 0.59866 0.78991 0.0
C1462 C 0.75297 0.60557 0.80435 0.0
H1463 H 0.80377 0.59441 0.73658 0.0
H1464 H 0.79384 0.59534 0.81205 0.0
C1465 C 0.73338 0.61031 0.77417 0.0
C1466 C 0.68321 0.49388 0.02023 0.0
C1467 C 0.68254 0.5144 0.0495 0.0
H1468 H 0.6824 0.48293 0.95458 0.0
C1469 C 0.68331 0.54025 0.03458 0.0
H1470 H 0.68288 0.47387 0.03109 0.0
C1471 C 0.68324 0.54548 0.99096 0.0
C1472 C 0.68199 0.52496 0.96174 0.0
H1473 H 0.68345 0.55644 0.05664 0.0
H1474 H 0.68296 0.56548 0.98006 0.0
C1475 C 0.68274 0.49911 0.97664 0.0
C1476 C 0.74835 0.43005 0.28609 0.0
C1477 C 0.77421 0.43092 0.30121 0.0
H1478 H 0.72325 0.42856 0.23152 0.0
C1479 C 0.79469 0.43374 0.27213 0.0
H1480 H 0.7321 0.42866 0.30798 0.0
C1481 C 0.78957 0.43371 0.22849 0.0
C1482 C 0.76383 0.4311 0.21327 0.0
H1483 H 0.81468 0.43476 0.28312 0.0
H1484 H 0.80583 0.43514 0.20665 0.0
C1485 C 0.7432 0.43026 0.24245 0.0
C1486 C 0.84863 0.5336 0.51346 0.0
C1487 C 0.85462 0.51427 0.54336 0.0
H1488 H 0.84674 0.54391 0.44791 0.0
C1489 C 0.85929 0.48868 0.52896 0.0
H1490 H 0.8449 0.55341 0.52353 0.0
C1491 C 0.86026 0.48314 0.48538 0.0
C1492 C 0.85622 0.50295 0.45542 0.0
H1493 H 0.86298 0.47304 0.55126 0.0
H1494 H 0.86523 0.46367 0.47499 0.0
C1495 C 0.84947 0.52803 0.46999 0.0
C1496 C 0.2961 0.43104 0.23995 0.0
C1497 C 0.27542 0.43011 0.2109 0.0
H1498 H 0.30737 0.43086 0.30549 0.0
C1499 C 0.24959 0.43087 0.22609 0.0
H1500 H 0.31611 0.43077 0.22888 0.0
C1501 C 0.24454 0.43102 0.26977 0.0
C1502 C 0.26522 0.43009 0.29882 0.0
H1503 H 0.23328 0.43089 0.20419 0.0
H1504 H 0.22454 0.43074 0.28085 0.0
C1505 C 0.29105 0.43087 0.28361 0.0
C1506 C 0.35847 0.54458 0.98956 0.0
C1507 C 0.35888 0.52396 0.96048 0.0
H1508 H 0.35957 0.55578 0.05506 0.0
C1509 C 0.35821 0.49817 0.97563 0.0
H1510 H 0.35869 0.56455 0.97851 0.0
C1511 C 0.35869 0.49309 0.01926 0.0
C1512 C 0.36012 0.5137 0.0483 0.0
H1513 H 0.35781 0.4819 0.95372 0.0
H1514 H 0.35902 0.47311 0.03026 0.0
C1515 C 0.35924 0.5395 0.03319 0.0
C1516 C 0.29185 0.60883 0.7244 0.0
C1517 C 0.26588 0.60913 0.70975 0.0
H1518 H 0.31735 0.60954 0.77857 0.0
C1519 C 0.24546 0.60799 0.73926 0.0
H1520 H 0.30798 0.60899 0.70217 0.0
C1521 C 0.25088 0.6084 0.78281 0.0
C1522 C 0.27682 0.60963 0.79746 0.0
H1523 H 0.22537 0.6079 0.72862 0.0
H1524 H 0.23473 0.60819 0.80502 0.0
C1525 C 0.29727 0.60892 0.76796 0.0
C1526 C 0.18069 0.5405 0.47465 0.0
C1527 C 0.18047 0.51475 0.45923 0.0
H1528 H 0.18088 0.5653 0.52956 0.0
C1529 C 0.18307 0.49409 0.48799 0.0
H1530 H 0.17963 0.55689 0.45304 0.0
C1531 C 0.18401 0.49898 0.53163 0.0
C1532 C 0.18248 0.52464 0.5472 0.0
H1533 H 0.18332 0.47415 0.47681 0.0
H1534 H 0.18537 0.4826 0.55323 0.0
C1535 C 0.18176 0.5454 0.51832 0.0
C1536 C 0.18542 0.09271 0.91112 0.0
C1537 C 0.18333 0.11906 0.92237 0.0
H1538 H 0.1794 0.06383 0.86328 0.0
C1539 C 0.17233 0.13668 0.8932 0.0
H1540 H 0.19326 0.07858 0.9333 0.0
C1541 C 0.16435 0.1282 0.85297 0.0
C1542 C 0.16735 0.102 0.84131 0.0
H1543 H 0.1707 0.15715 0.90087 0.0
H1544 H 0.15661 0.14223 0.83055 0.0
C1545 C 0.17755 0.08427 0.87101 0.0
C1546 C 0.17798 0.95436 0.13759 0.0
C1547 C 0.1676 0.93662 0.16713 0.0
H1548 H 0.19401 0.96007 0.07553 0.0
C1549 C 0.16468 0.91042 0.15543 0.0
H1550 H 0.1798 0.97481 0.14534 0.0
C1551 C 0.17286 0.90195 0.11532 0.0
C1552 C 0.18401 0.91958 0.0863 0.0
H1553 H 0.15681 0.89638 0.17773 0.0
H1554 H 0.17126 0.88148 0.10763 0.0
C1555 C 0.18607 0.94593 0.09759 0.0
C1556 C 0.37625 0.91039 0.3532 0.0
C1557 C 0.37328 0.93658 0.3414 0.0
H1558 H 0.36975 0.88148 0.40114 0.0
C1559 C 0.3629 0.95431 0.3709 0.0
H1560 H 0.38412 0.89635 0.33094 0.0
C1561 C 0.35485 0.9459 0.41095 0.0
C1562 C 0.35696 0.91957 0.42234 0.0
H1563 H 0.36105 0.97475 0.36308 0.0
H1564 H 0.3469 0.96003 0.43297 0.0
C1565 C 0.36812 0.90193 0.39336 0.0
C1566 C 0.37627 0.12808 0.65511 0.0
C1567 C 0.37323 0.10189 0.66686 0.0
H1568 H 0.36995 0.15701 0.60714 0.0
C1569 C 0.36299 0.08415 0.63723 0.0
H1570 H 0.38403 0.14212 0.67748 0.0
C1571 C 0.35512 0.09256 0.59709 0.0
C1572 C 0.35724 0.11891 0.58577 0.0
H1573 H 0.36111 0.06371 0.64502 0.0
H1574 H 0.34725 0.07843 0.57497 0.0
C1575 C 0.36829 0.13654 0.61487 0.0
C1576 C 0.85577 0.94484 0.09871 0.0
C1577 C 0.85811 0.91856 0.08723 0.0
H1578 H 0.86145 0.9736 0.14686 0.0
C1579 C 0.8692 0.90091 0.11628 0.0
H1580 H 0.84786 0.95898 0.07663 0.0
C1581 C 0.877 0.90931 0.15664 0.0
C1582 C 0.87374 0.93543 0.16855 0.0
H1583 H 0.87101 0.88049 0.10841 0.0
H1584 H 0.8848 0.89526 0.17898 0.0
C1585 C 0.86348 0.95319 0.13895 0.0
C1586 C 0.87895 0.12406 0.90635 0.0
C1587 C 0.85271 0.12108 0.91813 0.0
H1588 H 0.90788 0.11771 0.85836 0.0
C1589 C 0.8349 0.11086 0.88855 0.0
H1590 H 0.89306 0.1318 0.92867 0.0
C1591 C 0.84329 0.10296 0.84843 0.0
C1592 C 0.86968 0.10507 0.83707 0.0
H1593 H 0.81442 0.10901 0.89636 0.0
H1594 H 0.82911 0.0951 0.82634 0.0
C1595 C 0.88738 0.11608 0.86612 0.0
C1596 C 0.68468 0.09205 0.59876 0.0
C1597 C 0.68267 0.11836 0.58725 0.0
H1598 H 0.67853 0.06333 0.64685 0.0
C1599 C 0.67162 0.1361 0.61617 0.0
H1600 H 0.69254 0.07784 0.57677 0.0
C1601 C 0.66355 0.12775 0.65644 0.0
C1602 C 0.66651 0.10159 0.66839 0.0
H1603 H 0.67004 0.15654 0.60828 0.0
H1604 H 0.65579 0.14186 0.6787 0.0
C1605 C 0.67672 0.08375 0.63891 0.0
C1606 C 0.67739 0.95347 0.37181 0.0
C1607 C 0.6673 0.93562 0.34222 0.0
H1608 H 0.69302 0.9594 0.43408 0.0
C1609 C 0.66436 0.90944 0.35409 0.0
H1610 H 0.67918 0.97391 0.36392 0.0
C1611 C 0.67233 0.90109 0.39441 0.0
C1612 C 0.68327 0.91884 0.42345 0.0
H1613 H 0.65669 0.89532 0.33175 0.0
H1614 H 0.67077 0.88064 0.40225 0.0
C1615 C 0.68526 0.94518 0.412 0.0
C1616 C 0.67731 0.58506 0.37265 0.0
C1617 C 0.668 0.60274 0.34213 0.0
H1618 H 0.69158 0.57952 0.43588 0.0
C1619 C 0.66522 0.62907 0.35318 0.0
H1620 H 0.67898 0.56453 0.36538 0.0
C1621 C 0.67248 0.63769 0.39369 0.0
C1622 C 0.68255 0.62009 0.42376 0.0
H1623 H 0.65817 0.64308 0.33012 0.0
H1624 H 0.67102 0.65823 0.40092 0.0
C1625 C 0.68447 0.59363 0.41305 0.0
C1626 C 0.6711 0.40126 0.6176 0.0
C1627 C 0.68226 0.41884 0.58848 0.0
H1628 H 0.65534 0.3957 0.68022 0.0
C1629 C 0.68467 0.44513 0.59996 0.0
H1630 H 0.66923 0.38083 0.6098 0.0
C1631 C 0.67689 0.45355 0.64017 0.0
C1632 C 0.66647 0.43588 0.66978 0.0
H1633 H 0.69263 0.45925 0.57788 0.0
H1634 H 0.67895 0.47397 0.64798 0.0
C1635 C 0.66324 0.40973 0.65792 0.0
C1636 C 0.86869 0.40351 0.89687 0.0
C1637 C 0.85664 0.4214 0.92443 0.0
H1638 H 0.88555 0.39704 0.83533 0.0
C1639 C 0.85368 0.44735 0.91131 0.0
H1640 H 0.87097 0.38332 0.90597 0.0
C1641 C 0.86189 0.45511 0.871 0.0
C1642 C 0.87326 0.43709 0.84296 0.0
H1643 H 0.84499 0.46168 0.93222 0.0
H1644 H 0.85941 0.47528 0.86184 0.0
C1645 C 0.87697 0.41132 0.85645 0.0
C1646 C 0.88297 0.59599 0.13885 0.0
C1647 C 0.87004 0.60845 0.17252 0.0
H1648 H 0.88683 0.59242 0.07095 0.0
C1649 C 0.85147 0.62774 0.16379 0.0
H1650 H 0.8973 0.58101 0.1453 0.0
C1651 C 0.84505 0.63369 0.12169 0.0
C1652 C 0.85773 0.62099 0.08803 0.0
H1653 H 0.84119 0.6373 0.18954 0.0
H1654 H 0.82997 0.64791 0.11523 0.0
C1655 C 0.87712 0.60252 0.09674 0.0
C1656 C 0.35698 0.44575 0.59627 0.0
C1657 C 0.35882 0.41937 0.58512 0.0
H1658 H 0.36273 0.47454 0.64436 0.0
C1659 C 0.36929 0.40161 0.61459 0.0
H1660 H 0.34956 0.45996 0.57386 0.0
C1661 C 0.37686 0.40999 0.65508 0.0
C1662 C 0.37399 0.43621 0.66669 0.0
H1663 H 0.37071 0.38112 0.60697 0.0
H1664 H 0.38412 0.39585 0.67776 0.0
C1665 C 0.36445 0.45408 0.63665 0.0
C1666 C 0.3686 0.63688 0.39287 0.0
C1667 C 0.35755 0.61917 0.42188 0.0
H1668 H 0.38449 0.64258 0.33038 0.0
C1669 C 0.35551 0.59284 0.41048 0.0
H1670 H 0.37019 0.65733 0.40066 0.0
C1671 C 0.36352 0.5845 0.3704 0.0
C1672 C 0.37379 0.6023 0.34086 0.0
H1673 H 0.34764 0.57865 0.43253 0.0
H1674 H 0.36172 0.56405 0.36258 0.0
C1675 C 0.3767 0.62848 0.35267 0.0
C1676 C 0.17395 0.63792 0.11427 0.0
C1677 C 0.18466 0.62002 0.0853 0.0
H1678 H 0.15835 0.64395 0.17682 0.0
C1679 C 0.18637 0.59369 0.09682 0.0
H1680 H 0.17264 0.65838 0.10636 0.0
C1681 C 0.17834 0.58551 0.13701 0.0
C1682 C 0.1684 0.6035 0.1665 0.0
H1683 H 0.194 0.57938 0.07479 0.0
H1684 H 0.17985 0.56506 0.14491 0.0
C1685 C 0.16586 0.62971 0.15457 0.0
C1686 C 0.16449 0.4105 0.85387 0.0
C1687 C 0.16743 0.43672 0.84222 0.0
H1688 H 0.17054 0.38162 0.90201 0.0
C1689 C 0.17706 0.45457 0.87221 0.0
H1690 H 0.15718 0.39637 0.83123 0.0
C1691 C 0.18451 0.44622 0.9126 0.0
C1692 C 0.18256 0.41984 0.9238 0.0
H1693 H 0.17885 0.47503 0.86446 0.0
H1694 H 0.19199 0.46041 0.93498 0.0
C1695 C 0.17203 0.40211 0.89436 0.0
C1696 C 0.29177 0.25604 0.04716 0.0
C1697 C 0.27445 0.24201 0.02104 0.0
H1698 H 0.3046 0.29337 0.06905 0.0
C1699 C 0.25836 0.25596 0.99274 0.0
H1700 H 0.30476 0.24592 0.06879 0.0
C1701 C 0.25826 0.28331 0.9929 0.0
C1702 C 0.27425 0.29726 0.02137 0.0
H1703 H 0.24467 0.24578 0.97239 0.0
H1704 H 0.2445 0.29347 0.97266 0.0
C1705 C 0.29168 0.28325 0.04732 0.0
C1706 C 1.00628 1.00749 0.24305 0.0
C1707 C 0.99231 0.02318 0.27189 0.0
H1708 H 0.04388 0.99415 0.22223 0.0
C1709 C 1.00634 0.04035 0.29824 0.0
H1710 H 0.99611 0.99393 0.2225 0.0
C1711 C 0.03361 0.04047 0.2981 0.0
C1712 C 0.04765 0.02343 0.27158 0.0
H1713 H 0.99621 0.05305 0.32026 0.0
H1714 H 0.04374 0.05325 0.32002 0.0
C1715 C 0.03369 1.00762 0.2429 0.0
C1716 C 0.28166 0.75551 0.49113 0.0
C1717 C 0.26563 0.74149 0.51946 0.0
H1718 H 0.29533 0.79309 0.47099 0.0
C1719 C 0.24818 0.75542 0.54543 0.0
H1720 H 0.29544 0.74539 0.47089 0.0
C1721 C 0.24812 0.78264 0.5455 0.0
C1722 C 0.26551 0.79673 0.51959 0.0
H1723 H 0.23523 0.74524 0.56707 0.0
H1724 H 0.23512 0.79269 0.56717 0.0
C1725 C 0.2816 0.78286 0.4912 0.0
C1726 C 0.50626 0.03017 0.74309 0.0
C1727 C 0.49219 1.01449 0.77187 0.0
H1728 H 0.54392 0.04356 0.72262 0.0
C1729 C 0.50612 0.9974 0.79848 0.0
H1730 H 0.49615 0.04367 0.72235 0.0
C1731 C 0.53338 0.99733 0.79863 0.0
C1732 C 0.54753 1.01436 0.77218 0.0
H1733 H 0.4959 0.98472 0.82048 0.0
H1734 H 0.54343 0.98459 0.82072 0.0
C1735 C 0.53366 0.0301 0.74325 0.0
C1736 C 0.29345 0.7833 0.96187 0.0
C1737 C 0.27601 0.79718 0.98794 0.0
H1738 H 0.30654 0.74607 0.94004 0.0
C1739 C 0.26003 0.78313 0.01629 0.0
H1740 H 0.30635 0.79352 0.94022 0.0
C1741 C 0.26013 0.75578 0.01617 0.0
C1742 C 0.27621 0.74196 0.9877 0.0
H1743 H 0.24626 0.7932 0.03661 0.0
H1744 H 0.24643 0.74552 0.0364 0.0
C1745 C 0.29355 0.75609 0.96176 0.0
C1746 C 0.53468 0.04015 0.21072 0.0
C1747 C 0.54863 0.02307 0.23735 0.0
H1748 H 0.49736 0.053 0.18859 0.0
C1749 C 0.53456 1.00747 0.26624 0.0
H1750 H 0.54489 0.05278 0.18864 0.0
C1751 C 0.50716 1.00759 0.26621 0.0
C1752 C 0.49327 0.02333 0.23728 0.0
H1753 H 0.54467 0.99398 0.28701 0.0
H1754 H 0.49689 0.99419 0.28695 0.0
C1755 C 0.50742 0.04028 0.21069 0.0
C1756 C 0.28236 0.25561 0.51619 0.0
C1757 C 0.26618 0.24176 0.48789 0.0
H1758 H 0.29635 0.29305 0.5364 0.0
C1759 C 0.24881 0.25587 0.46199 0.0
H1760 H 0.29608 0.24537 0.53638 0.0
C1761 C 0.24895 0.28308 0.46201 0.0
C1762 C 0.26647 0.29701 0.48793 0.0
H1763 H 0.23576 0.24582 0.44038 0.0
H1764 H 0.23599 0.29327 0.44043 0.0
C1765 C 0.28251 0.28297 0.5162 0.0
C1766 C 0.03418 0.99713 0.71203 0.0
C1767 C 0.04822 1.01438 0.73822 0.0
H1768 H 0.99678 0.98417 0.69039 0.0
C1769 C 0.03427 0.03018 0.76691 0.0
H1770 H 0.04432 0.98436 0.69012 0.0
C1771 C 1.00687 0.03009 0.76705 0.0
C1772 C 0.99289 1.01418 0.73851 0.0
H1773 H 0.04447 0.0438 0.78734 0.0
H1774 H 0.99668 0.04365 0.78757 0.0
C1775 C 1.00692 0.99702 0.71219 0.0
C1776 C 0.75572 0.77943 0.95774 0.0
C1777 C 0.77028 0.79422 0.9871 0.0
H1778 H 0.74638 0.74152 0.93368 0.0
C1779 C 0.78434 0.78091 0.01901 0.0
H1780 H 0.74415 0.78889 0.93336 0.0
C1781 C 0.78519 0.75354 0.0196 0.0
C1782 C 0.77217 0.73902 0.98814 0.0
H1783 H 0.79592 0.79157 0.04201 0.0
H1784 H 0.79728 0.74382 0.04303 0.0
C1785 C 0.75683 0.75225 0.95803 0.0
C1786 C 0.79131 0.25487 0.46323 0.0
C1787 C 0.77408 0.2407 0.48932 0.0
H1788 H 0.80389 0.29231 0.44143 0.0
C1789 C 0.75793 0.2545 0.51769 0.0
H1790 H 0.80434 0.24487 0.44156 0.0
C1791 C 0.75766 0.28185 0.51761 0.0
C1792 C 0.77355 0.29593 0.48915 0.0
H1793 H 0.74431 0.24421 0.53802 0.0
H1794 H 0.74385 0.29188 0.5379 0.0
C1795 C 0.79104 0.28208 0.46314 0.0
C1796 C 0.79481 0.2558 0.05495 0.0
C1797 C 0.77691 0.24188 0.02983 0.0
H1798 H 0.80878 0.29287 0.07546 0.0
C1799 C 0.76004 0.25588 1.0028 0.0
H1800 H 0.8086 0.24566 0.07519 0.0
C1801 C 0.76016 0.28331 1.00294 0.0
C1802 C 0.77715 0.29707 0.03012 0.0
H1803 H 0.74613 0.24567 0.9829 0.0
H1804 H 0.74634 0.29372 0.98315 0.0
C1805 C 0.79493 0.28291 0.0551 0.0
C1806 C 0.75849 0.78261 0.49713 0.0
C1807 C 0.77416 0.79663 0.52595 0.0
H1808 H 0.7447 0.74509 0.47708 0.0
C1809 C 0.79086 0.78267 0.55324 0.0
H1810 H 0.74527 0.79273 0.4759 0.0
C1811 C 0.79049 0.75546 0.55399 0.0
C1812 C 0.77346 0.74142 0.5274 0.0
H1813 H 0.80353 0.79284 0.57529 0.0
H1814 H 0.80289 0.74539 0.57658 0.0
C1815 C 0.75815 0.75528 0.49784 0.0
C1816 C 0.53285 0.54002 0.80053 0.0
C1817 C 0.54697 0.52302 0.77407 0.0
H1818 H 0.49537 0.55276 0.82208 0.0
C1819 C 0.53311 0.50744 0.74489 0.0
H1820 H 0.54291 0.55265 0.82279 0.0
C1821 C 0.50572 0.50753 0.74446 0.0
C1822 C 0.49165 0.52319 0.77319 0.0
H1823 H 0.54335 0.49401 0.72423 0.0
H1824 H 0.4956 0.49415 0.72351 0.0
C1825 C 0.50559 0.54011 0.80009 0.0
C1826 C 0.03305 0.55286 0.28773 0.0
C1827 C 0.04591 0.53094 0.27133 0.0
H1828 H 0.99676 0.57143 0.3011 0.0
C1829 C 0.031 0.51101 0.25258 0.0
H1830 H 0.04409 0.56867 0.30179 0.0
C1831 C 1.00356 0.51237 0.25272 0.0
C1832 C 0.99069 0.53373 0.27147 0.0
H1833 H 0.04049 0.49391 0.23971 0.0
H1834 H 0.99246 0.4962 0.24003 0.0
C1835 C 1.00589 0.55433 0.28753 0.0
C1836 C 0.0341 0.53016 0.75409 0.0
C1837 C 0.04827 0.51272 0.72836 0.0
H1838 H 0.99609 0.54431 0.77215 0.0
C1839 C 0.03448 0.49436 0.704 0.0
H1840 H 0.04423 0.54443 0.77337 0.0
C1841 C 1.00732 0.49429 0.70329 0.0
C1842 C 0.99299 0.5126 0.72689 0.0
H1843 H 0.04477 0.48017 0.68477 0.0
H1844 H 0.99748 0.48001 0.6836 0.0
C1845 C 1.00662 0.53009 0.75336 0.0
C1846 C 0.50766 0.53136 0.26581 0.0
C1847 C 0.49375 0.51569 0.23682 0.0
H1848 H 0.5452 0.54483 0.28677 0.0
C1849 C 0.50786 0.49873 0.21024 0.0
H1850 H 0.49743 0.54476 0.28654 0.0
C1851 C 0.53512 0.49879 0.21036 0.0
C1852 C 0.54909 0.51579 0.23708 0.0
H1853 H 0.49778 0.48605 0.18811 0.0
H1854 H 0.54531 0.48615 0.1883 0.0
C1855 C 0.53506 0.5314 0.26594 0.0
loop_
_geom_bond_atom_site_label_1
_geom_bond_atom_site_label_2
_geom_bond_distance
_geom_bond_site_symmetry_2
_ccdc_geom_bond_type
C0 C1 1.351 1_554 S
C0 N3 1.368 . S
C0 H5 0.931 . S
C1 C0 1.351 1_556 S
C1 N2 1.373 . S
C1 H29 0.930 . S
N2 C1 1.373 . S
N2 C4 1.340 . S
N3 C0 1.368 . S
N3 C4 1.321 1_554 S
N3 Co6 2.135 . S
C4 N2 1.340 . S
C4 N3 1.321 1_556 S
C4 H28 0.930 . S
H5 C0 0.931 . S
Co6 N3 2.135 . S
Co6 N9 2.121 . S
Co6 O14 2.055 . S
Co6 O17 2.039 . S
Co6 N20 2.140 . S
C7 O8 1.227 1_554 S
C7 O17 1.265 . S
O8 C7 1.227 1_556 S
N9 Co6 2.121 . S
N9 C11 1.375 . S
N9 C12 1.313 . S
C10 C11 1.338 . S
C10 N13 1.377 . S
C10 H30 0.930 . S
C11 N9 1.375 . S
C11 C10 1.338 . S
C11 H15 0.931 . S
C12 N9 1.313 . S
C12 N13 1.344 . S
C12 H16 0.930 . S
N13 C10 1.377 . S
N13 C12 1.344 . S
O14 Co6 2.055 . S
O14 C18 1.253 . S
H15 C11 0.931 . S
H16 C12 0.930 . S
O17 Co6 2.039 . S
O17 C7 1.265 . S
C18 O14 1.253 . S
C18 O19 1.227 . S
O19 C18 1.227 . S
N20 Co6 2.140 . S
N20 C23 1.346 . S
N20 C24 1.345 . S
C21 C22 1.387 . S
C21 C25 1.391 . S
C22 C21 1.387 . S
C22 C23 1.369 . S
C22 H31 0.929 1_554 S
C23 N20 1.346 . S
C23 C22 1.369 . S
C23 H26 0.928 1_554 S
C24 N20 1.345 . S
C24 C25 1.371 . S
C24 H27 0.931 . S
C25 C21 1.391 . S
C25 C24 1.371 . S
C25 H32 0.930 . S
H26 C23 0.928 1_556 S
H27 C24 0.931 . S
H28 C4 0.930 . S
H29 C1 0.930 . S
H30 C10 0.930 . S
H31 C22 0.929 1_556 S
H32 C25 0.930 . S
C33 C34 1.351 . S
C33 N36 1.368 . S
C33 H38 0.931 . S
C34 C33 1.351 . S
C34 N35 1.373 . S
C34 H62 0.930 . S
N35 C34 1.373 . S
N35 C37 1.340 . S
N36 C33 1.368 . S
N36 C37 1.321 . S
N36 Co39 2.135 . S
C37 N35 1.340 . S
C37 N36 1.321 . S
C37 H61 0.930 . S
H38 C33 0.931 . S
Co39 N36 2.135 . S
Co39 N42 2.121 . S
Co39 O47 2.055 . S
Co39 O50 2.039 . S
Co39 N53 2.140 . S
C40 O41 1.227 . S
C40 O50 1.265 . S
O41 C40 1.227 . S
N42 Co39 2.121 . S
N42 C44 1.372 . S
N42 C45 1.313 . S
C43 C44 1.339 1_545 S
C43 N46 1.377 1_545 S
C43 H63 0.930 . S
C44 N42 1.372 . S
C44 C43 1.339 1_565 S
C44 H48 0.932 1_565 S
C45 N42 1.313 . S
C45 N46 1.344 . S
C45 H49 0.930 . S
N46 C43 1.377 1_565 S
N46 C45 1.344 . S
O47 Co39 2.055 . S
O47 C51 1.253 . S
H48 C44 0.932 1_545 S
H49 C45 0.930 . S
O50 Co39 2.039 . S
O50 C40 1.265 . S
C51 O47 1.253 . S
C51 O52 1.227 . S
O52 C51 1.227 . S
N53 Co39 2.140 . S
N53 C56 1.346 . S
N53 C57 1.345 . S
C54 C55 1.387 . S
C54 C58 1.391 . S
C55 C54 1.387 . S
C55 C56 1.369 . S
C55 H64 0.929 . S
C56 N53 1.346 . S
C56 C55 1.369 . S
C56 H59 0.928 . S
C57 N53 1.345 . S
C57 C58 1.371 . S
C57 H60 0.931 . S
C58 C54 1.391 . S
C58 C57 1.371 . S
C58 H65 0.930 . S
H59 C56 0.928 . S
H60 C57 0.931 . S
H61 C37 0.930 . S
H62 C34 0.930 . S
H63 C43 0.930 . S
H64 C55 0.929 . S
H65 C58 0.930 . S
C66 C67 1.351 . S
C66 N69 1.368 . S
C66 H71 0.931 . S
C67 C66 1.351 . S
C67 N68 1.373 . S
C67 H95 0.930 . S
N68 C67 1.373 . S
N68 C70 1.340 . S
N69 C66 1.368 . S
N69 C70 1.321 . S
N69 Co72 2.135 . S
C70 N68 1.340 . S
C70 N69 1.321 . S
C70 H94 0.930 . S
H71 C66 0.931 . S
Co72 N69 2.135 . S
Co72 N75 2.121 . S
Co72 O80 2.055 . S
Co72 O83 2.039 . S
Co72 N86 2.140 . S
C73 O74 1.227 . S
C73 O83 1.265 . S
O74 C73 1.227 . S
N75 Co72 2.121 . S
N75 C77 1.375 . S
N75 C78 1.313 . S
C76 C77 1.338 . S
C76 N79 1.377 . S
C76 H96 0.930 . S
C77 N75 1.375 . S
C77 C76 1.338 . S
C77 H81 0.931 . S
C78 N75 1.313 . S
C78 N79 1.344 . S
C78 H82 0.930 . S
N79 C76 1.377 . S
N79 C78 1.344 . S
O80 Co72 2.055 . S
O80 C84 1.253 . S
H81 C77 0.931 . S
H82 C78 0.930 . S
O83 Co72 2.039 . S
O83 C73 1.265 . S
C84 O80 1.253 . S
C84 O85 1.227 . S
O85 C84 1.227 . S
N86 Co72 2.140 . S
N86 C89 1.346 . S
N86 C90 1.345 . S
C87 C88 1.387 . S
C87 C91 1.391 . S
C88 C87 1.387 . S
C88 C89 1.369 . S
C88 H97 0.929 . S
C89 N86 1.346 . S
C89 C88 1.369 . S
C89 H92 0.928 . S
C90 N86 1.345 . S
C90 C91 1.371 . S
C90 H93 0.931 . S
C91 C87 1.391 . S
C91 C90 1.371 . S
C91 H98 0.930 . S
H92 C89 0.928 . S
H93 C90 0.931 . S
H94 C70 0.930 . S
H95 C67 0.930 . S
H96 C76 0.930 . S
H97 C88 0.929 . S
H98 C91 0.930 . S
C99 C100 1.351 . S
C99 N102 1.368 . S
C99 H104 0.931 . S
C100 C99 1.351 . S
C100 N101 1.373 . S
C100 H128 0.930 . S
N101 C100 1.373 . S
N101 C103 1.340 . S
N102 C99 1.368 . S
N102 C103 1.321 . S
N102 Co105 2.135 . S
C103 N101 1.340 . S
C103 N102 1.321 . S
C103 H127 0.930 . S
H104 C99 0.931 . S
Co105 N102 2.135 . S
Co105 N108 2.121 . S
Co105 O113 2.055 . S
Co105 O116 2.039 . S
Co105 N119 2.140 . S
C106 O107 1.227 . S
C106 O116 1.265 . S
O107 C106 1.227 . S
N108 Co105 2.121 . S
N108 C110 1.372 . S
N108 C111 1.313 . S
C109 C110 1.339 1_565 S
C109 N112 1.377 1_565 S
C109 H129 0.930 . S
C110 N108 1.372 . S
C110 C109 1.339 1_545 S
C110 H114 0.932 1_545 S
C111 N108 1.313 . S
C111 N112 1.344 . S
C111 H115 0.930 . S
N112 C109 1.377 1_545 S
N112 C111 1.344 . S
O113 Co105 2.055 . S
O113 C117 1.253 . S
H114 C110 0.932 1_565 S
H115 C111 0.930 . S
O116 Co105 2.039 . S
O116 C106 1.265 . S
C117 O113 1.253 . S
C117 O118 1.227 . S
O118 C117 1.227 . S
N119 Co105 2.140 . S
N119 C122 1.346 . S
N119 C123 1.345 . S
C120 C121 1.387 . S
C120 C124 1.391 . S
C121 C120 1.387 . S
C121 C122 1.369 . S
C121 H130 0.929 . S
C122 N119 1.346 . S
C122 C121 1.369 . S
C122 H125 0.928 . S
C123 N119 1.345 . S
C123 C124 1.371 . S
C123 H126 0.931 . S
C124 C120 1.391 . S
C124 C123 1.371 . S
C124 H131 0.930 . S
H125 C122 0.928 . S
H126 C123 0.931 . S
H127 C103 0.930 . S
H128 C100 0.930 . S
H129 C109 0.930 . S
H130 C121 0.929 . S
H131 C124 0.930 . S
C132 C133 1.351 1_556 S
C132 N135 1.368 . S
C132 H137 0.931 . S
C133 C132 1.351 1_554 S
C133 N134 1.373 . S
C133 H161 0.930 . S
N134 C133 1.373 . S
N134 C136 1.340 . S
N135 C132 1.368 . S
N135 C136 1.321 1_556 S
N135 Co138 2.135 . S
C136 N134 1.340 . S
C136 N135 1.321 1_554 S
C136 H160 0.930 . S
H137 C132 0.931 . S
Co138 N135 2.135 . S
Co138 N141 2.121 . S
Co138 O146 2.055 . S
Co138 O149 2.039 . S
Co138 N152 2.140 . S
C139 O140 1.227 1_556 S
C139 O149 1.265 . S
O140 C139 1.227 1_554 S
N141 Co138 2.121 . S
N141 C143 1.375 . S
N141 C144 1.313 . S
C142 C143 1.338 . S
C142 N145 1.377 . S
C142 H162 0.930 . S
C143 N141 1.375 . S
C143 C142 1.338 . S
C143 H147 0.931 . S
C144 N141 1.313 . S
C144 N145 1.344 . S
C144 H148 0.930 . S
N145 C142 1.377 . S
N145 C144 1.344 . S
O146 Co138 2.055 . S
O146 C150 1.253 . S
H147 C143 0.931 . S
H148 C144 0.930 . S
O149 Co138 2.039 . S
O149 C139 1.265 . S
C150 O146 1.253 . S
C150 O151 1.227 . S
O151 C150 1.227 . S
N152 Co138 2.140 . S
N152 C155 1.346 . S
N152 C156 1.345 . S
C153 C154 1.387 . S
C153 C157 1.391 . S
C154 C153 1.387 . S
C154 C155 1.369 . S
C154 H163 0.929 1_556 S
C155 N152 1.346 . S
C155 C154 1.369 . S
C155 H158 0.928 1_556 S
C156 N152 1.345 . S
C156 C157 1.371 . S
C156 H159 0.931 . S
C157 C153 1.391 . S
C157 C156 1.371 . S
C157 H164 0.930 . S
H158 C155 0.928 1_554 S
H159 C156 0.931 . S
H160 C136 0.930 . S
H161 C133 0.930 . S
H162 C142 0.930 . S
H163 C154 0.929 1_554 S
H164 C157 0.930 . S
C165 C166 1.351 . S
C165 N168 1.368 . S
C165 H170 0.931 . S
C166 C165 1.351 . S
C166 N167 1.373 . S
C166 H194 0.930 . S
N167 C166 1.373 . S
N167 C169 1.340 . S
N168 C165 1.368 . S
N168 C169 1.321 . S
N168 Co171 2.135 . S
C169 N167 1.340 . S
C169 N168 1.321 . S
C169 H193 0.930 . S
H170 C165 0.931 . S
Co171 N168 2.135 . S
Co171 N174 2.121 . S
Co171 O179 2.055 . S
Co171 O182 2.039 . S
Co171 N185 2.140 . S
C172 O173 1.227 . S
C172 O182 1.265 . S
O173 C172 1.227 . S
N174 Co171 2.121 . S
N174 C176 1.372 . S
N174 C177 1.313 . S
C175 C176 1.339 1_545 S
C175 N178 1.377 1_545 S
C175 H195 0.930 . S
C176 N174 1.372 . S
C176 C175 1.339 1_565 S
C176 H180 0.932 1_565 S
C177 N174 1.313 . S
C177 N178 1.344 . S
C177 H181 0.930 . S
N178 C175 1.377 1_565 S
N178 C177 1.344 . S
O179 Co171 2.055 . S
O179 C183 1.253 . S
H180 C176 0.932 1_545 S
H181 C177 0.930 . S
O182 Co171 2.039 . S
O182 C172 1.265 . S
C183 O179 1.253 . S
C183 O184 1.227 . S
O184 C183 1.227 . S
N185 Co171 2.140 . S
N185 C188 1.346 . S
N185 C189 1.345 . S
C186 C187 1.387 . S
C186 C190 1.391 . S
C187 C186 1.387 . S
C187 C188 1.369 . S
C187 H196 0.929 . S
C188 N185 1.346 . S
C188 C187 1.369 . S
C188 H191 0.928 . S
C189 N185 1.345 . S
C189 C190 1.371 . S
C189 H192 0.931 . S
C190 C186 1.391 . S
C190 C189 1.371 . S
C190 H197 0.930 . S
H191 C188 0.928 . S
H192 C189 0.931 . S
H193 C169 0.930 . S
H194 C166 0.930 . S
H195 C175 0.930 . S
H196 C187 0.929 . S
H197 C190 0.930 . S
C198 C199 1.351 . S
C198 N201 1.368 . S
C198 H203 0.931 . S
C199 C198 1.351 . S
C199 N200 1.373 . S
C199 H227 0.930 . S
N200 C199 1.373 . S
N200 C202 1.340 . S
N201 C198 1.368 . S
N201 C202 1.321 . S
N201 Co204 2.135 . S
C202 N200 1.340 . S
C202 N201 1.321 . S
C202 H226 0.930 . S
H203 C198 0.931 . S
Co204 N201 2.135 . S
Co204 N207 2.121 . S
Co204 O212 2.055 . S
Co204 O215 2.039 . S
Co204 N218 2.140 . S
C205 O206 1.227 . S
C205 O215 1.265 . S
O206 C205 1.227 . S
N207 Co204 2.121 . S
N207 C209 1.375 . S
N207 C210 1.313 . S
C208 C209 1.338 . S
C208 N211 1.377 . S
C208 H228 0.930 . S
C209 N207 1.375 . S
C209 C208 1.338 . S
C209 H213 0.931 . S
C210 N207 1.313 . S
C210 N211 1.344 . S
C210 H214 0.930 . S
N211 C208 1.377 . S
N211 C210 1.344 . S
O212 Co204 2.055 . S
O212 C216 1.253 . S
H213 C209 0.931 . S
H214 C210 0.930 . S
O215 Co204 2.039 . S
O215 C205 1.265 . S
C216 O212 1.253 . S
C216 O217 1.227 . S
O217 C216 1.227 . S
N218 Co204 2.140 . S
N218 C221 1.346 . S
N218 C222 1.345 . S
C219 C220 1.387 . S
C219 C223 1.391 . S
C220 C219 1.387 . S
C220 C221 1.369 . S
C220 H229 0.929 . S
C221 N218 1.346 . S
C221 C220 1.369 . S
C221 H224 0.928 . S
C222 N218 1.345 . S
C222 C223 1.371 . S
C222 H225 0.931 . S
C223 C219 1.391 . S
C223 C222 1.371 . S
C223 H230 0.930 . S
H224 C221 0.928 . S
H225 C222 0.931 . S
H226 C202 0.930 . S
H227 C199 0.930 . S
H228 C208 0.930 . S
H229 C220 0.929 . S
H230 C223 0.930 . S
C231 C232 1.351 . S
C231 N234 1.368 . S
C231 H236 0.931 . S
C232 C231 1.351 . S
C232 N233 1.373 . S
C232 H260 0.930 . S
N233 C232 1.373 . S
N233 C235 1.340 . S
N234 C231 1.368 . S
N234 C235 1.321 . S
N234 Co237 2.135 . S
C235 N233 1.340 . S
C235 N234 1.321 . S
C235 H259 0.930 . S
H236 C231 0.931 . S
Co237 N234 2.135 . S
Co237 N240 2.121 . S
Co237 O245 2.055 . S
Co237 O248 2.039 . S
Co237 N251 2.140 . S
C238 O239 1.227 . S
C238 O248 1.265 . S
O239 C238 1.227 . S
N240 Co237 2.121 . S
N240 C242 1.372 . S
N240 C243 1.313 . S
C241 C242 1.339 1_565 S
C241 N244 1.377 1_565 S
C241 H261 0.930 . S
C242 N240 1.372 . S
C242 C241 1.339 1_545 S
C242 H246 0.932 1_545 S
C243 N240 1.313 . S
C243 N244 1.344 . S
C243 H247 0.930 . S
N244 C241 1.377 1_545 S
N244 C243 1.344 . S
O245 Co237 2.055 . S
O245 C249 1.253 . S
H246 C242 0.932 1_565 S
H247 C243 0.930 . S
O248 Co237 2.039 . S
O248 C238 1.265 . S
C249 O245 1.253 . S
C249 O250 1.227 . S
O250 C249 1.227 . S
N251 Co237 2.140 . S
N251 C254 1.346 . S
N251 C255 1.345 . S
C252 C253 1.387 . S
C252 C256 1.391 . S
C253 C252 1.387 . S
C253 C254 1.369 . S
C253 H262 0.929 . S
C254 N251 1.346 . S
C254 C253 1.369 . S
C254 H257 0.928 . S
C255 N251 1.345 . S
C255 C256 1.371 . S
C255 H258 0.931 . S
C256 C252 1.391 . S
C256 C255 1.371 . S
C256 H263 0.930 . S
H257 C254 0.928 . S
H258 C255 0.931 . S
H259 C235 0.930 . S
H260 C232 0.930 . S
H261 C241 0.930 . S
H262 C253 0.929 . S
H263 C256 0.930 . S
C264 C265 1.351 1_556 S
C264 N267 1.368 . S
C264 H269 0.931 . S
C265 C264 1.351 1_554 S
C265 N266 1.373 . S
C265 H293 0.930 . S
N266 C265 1.373 . S
N266 C268 1.340 . S
N267 C264 1.368 . S
N267 C268 1.321 1_556 S
N267 Co270 2.135 . S
C268 N266 1.340 . S
C268 N267 1.321 1_554 S
C268 H292 0.930 . S
H269 C264 0.931 . S
Co270 N267 2.135 . S
Co270 N273 2.121 . S
Co270 O278 2.055 . S
Co270 O281 2.039 . S
Co270 N284 2.140 . S
C271 O272 1.227 1_556 S
C271 O281 1.265 . S
O272 C271 1.227 1_554 S
N273 Co270 2.121 . S
N273 C275 1.375 . S
N273 C276 1.313 . S
C274 C275 1.338 . S
C274 N277 1.377 . S
C274 H294 0.930 . S
C275 N273 1.375 . S
C275 C274 1.338 . S
C275 H279 0.931 . S
C276 N273 1.313 . S
C276 N277 1.344 . S
C276 H280 0.930 . S
N277 C274 1.377 . S
N277 C276 1.344 . S
O278 Co270 2.055 . S
O278 C282 1.253 . S
H279 C275 0.931 . S
H280 C276 0.930 . S
O281 Co270 2.039 . S
O281 C271 1.265 . S
C282 O278 1.253 . S
C282 O283 1.227 . S
O283 C282 1.227 . S
N284 Co270 2.140 . S
N284 C287 1.346 . S
N284 C288 1.345 . S
C285 C286 1.387 . S
C285 C289 1.391 . S
C286 C285 1.387 . S
C286 C287 1.369 . S
C286 H295 0.929 1_556 S
C287 N284 1.346 . S
C287 C286 1.369 . S
C287 H290 0.928 1_556 S
C288 N284 1.345 . S
C288 C289 1.371 . S
C288 H291 0.931 . S
C289 C285 1.391 . S
C289 C288 1.371 . S
C289 H296 0.930 . S
H290 C287 0.928 1_554 S
H291 C288 0.931 . S
H292 C268 0.930 . S
H293 C265 0.930 . S
H294 C274 0.930 . S
H295 C286 0.929 1_554 S
H296 C289 0.930 . S
C297 C298 1.351 . S
C297 N300 1.368 . S
C297 H302 0.931 . S
C298 C297 1.351 . S
C298 N299 1.373 . S
C298 H326 0.930 . S
N299 C298 1.373 . S
N299 C301 1.340 . S
N300 C297 1.368 . S
N300 C301 1.321 . S
N300 Co303 2.135 . S
C301 N299 1.340 . S
C301 N300 1.321 . S
C301 H325 0.930 . S
H302 C297 0.931 . S
Co303 N300 2.135 . S
Co303 N306 2.121 . S
Co303 O311 2.055 . S
Co303 O314 2.039 . S
Co303 N317 2.140 . S
C304 O305 1.227 . S
C304 O314 1.265 . S
O305 C304 1.227 . S
N306 Co303 2.121 . S
N306 C308 1.372 . S
N306 C309 1.313 . S
C307 C308 1.339 1_565 S
C307 N310 1.377 1_565 S
C307 H327 0.930 . S
C308 N306 1.372 . S
C308 C307 1.339 1_545 S
C308 H312 0.932 1_545 S
C309 N306 1.313 . S
C309 N310 1.344 . S
C309 H313 0.930 . S
N310 C307 1.377 1_545 S
N310 C309 1.344 . S
O311 Co303 2.055 . S
O311 C315 1.253 . S
H312 C308 0.932 1_565 S
H313 C309 0.930 . S
O314 Co303 2.039 . S
O314 C304 1.265 . S
C315 O311 1.253 . S
C315 O316 1.227 . S
O316 C315 1.227 . S
N317 Co303 2.140 . S
N317 C320 1.346 . S
N317 C321 1.345 . S
C318 C319 1.387 . S
C318 C322 1.391 . S
C319 C318 1.387 . S
C319 C320 1.369 . S
C319 H328 0.929 . S
C320 N317 1.346 . S
C320 C319 1.369 . S
C320 H323 0.928 . S
C321 N317 1.345 . S
C321 C322 1.371 . S
C321 H324 0.931 . S
C322 C318 1.391 . S
C322 C321 1.371 . S
C322 H329 0.930 . S
H323 C320 0.928 . S
H324 C321 0.931 . S
H325 C301 0.930 . S
H326 C298 0.930 . S
H327 C307 0.930 . S
H328 C319 0.929 . S
H329 C322 0.930 . S
C330 C331 1.351 . S
C330 N333 1.368 . S
C330 H335 0.931 . S
C331 C330 1.351 . S
C331 N332 1.373 . S
C331 H359 0.930 . S
N332 C331 1.373 . S
N332 C334 1.340 . S
N333 C330 1.368 . S
N333 C334 1.321 . S
N333 Co336 2.135 . S
C334 N332 1.340 . S
C334 N333 1.321 . S
C334 H358 0.930 . S
H335 C330 0.931 . S
Co336 N333 2.135 . S
Co336 N339 2.121 . S
Co336 O344 2.055 . S
Co336 O347 2.039 . S
Co336 N350 2.140 . S
C337 O338 1.227 . S
C337 O347 1.265 . S
O338 C337 1.227 . S
N339 Co336 2.121 . S
N339 C341 1.375 . S
N339 C342 1.313 . S
C340 C341 1.338 . S
C340 N343 1.377 . S
C340 H360 0.930 . S
C341 N339 1.375 . S
C341 C340 1.338 . S
C341 H345 0.931 . S
C342 N339 1.313 . S
C342 N343 1.344 . S
C342 H346 0.930 . S
N343 C340 1.377 . S
N343 C342 1.344 . S
O344 Co336 2.055 . S
O344 C348 1.253 . S
H345 C341 0.931 . S
H346 C342 0.930 . S
O347 Co336 2.039 . S
O347 C337 1.265 . S
C348 O344 1.253 . S
C348 O349 1.227 . S
O349 C348 1.227 . S
N350 Co336 2.140 . S
N350 C353 1.346 . S
N350 C354 1.345 . S
C351 C352 1.387 . S
C351 C355 1.391 . S
C352 C351 1.387 . S
C352 C353 1.369 . S
C352 H361 0.929 . S
C353 N350 1.346 . S
C353 C352 1.369 . S
C353 H356 0.928 . S
C354 N350 1.345 . S
C354 C355 1.371 . S
C354 H357 0.931 . S
C355 C351 1.391 . S
C355 C354 1.371 . S
C355 H362 0.930 . S
H356 C353 0.928 . S
H357 C354 0.931 . S
H358 C334 0.930 . S
H359 C331 0.930 . S
H360 C340 0.930 . S
H361 C352 0.929 . S
H362 C355 0.930 . S
C363 C364 1.351 . S
C363 N366 1.368 . S
C363 H368 0.931 . S
C364 C363 1.351 . S
C364 N365 1.373 . S
C364 H392 0.930 . S
N365 C364 1.373 . S
N365 C367 1.340 . S
N366 C363 1.368 . S
N366 C367 1.321 . S
N366 Co369 2.135 . S
C367 N365 1.340 . S
C367 N366 1.321 . S
C367 H391 0.930 . S
H368 C363 0.931 . S
Co369 N366 2.135 . S
Co369 N372 2.121 . S
Co369 O377 2.055 . S
Co369 O380 2.039 . S
Co369 N383 2.140 . S
C370 O371 1.227 . S
C370 O380 1.265 . S
O371 C370 1.227 . S
N372 Co369 2.121 . S
N372 C374 1.372 . S
N372 C375 1.313 . S
C373 C374 1.339 1_545 S
C373 N376 1.377 1_545 S
C373 H393 0.930 . S
C374 N372 1.372 . S
C374 C373 1.339 1_565 S
C374 H378 0.932 1_565 S
C375 N372 1.313 . S
C375 N376 1.344 . S
C375 H379 0.930 . S
N376 C373 1.377 1_565 S
N376 C375 1.344 . S
O377 Co369 2.055 . S
O377 C381 1.253 . S
H378 C374 0.932 1_545 S
H379 C375 0.930 . S
O380 Co369 2.039 . S
O380 C370 1.265 . S
C381 O377 1.253 . S
C381 O382 1.227 . S
O382 C381 1.227 . S
N383 Co369 2.140 . S
N383 C386 1.346 . S
N383 C387 1.345 . S
C384 C385 1.387 . S
C384 C388 1.391 . S
C385 C384 1.387 . S
C385 C386 1.369 . S
C385 H394 0.929 . S
C386 N383 1.346 . S
C386 C385 1.369 . S
C386 H389 0.928 . S
C387 N383 1.345 . S
C387 C388 1.371 . S
C387 H390 0.931 . S
C388 C384 1.391 . S
C388 C387 1.371 . S
C388 H395 0.930 . S
H389 C386 0.928 . S
H390 C387 0.931 . S
H391 C367 0.930 . S
H392 C364 0.930 . S
H393 C373 0.930 . S
H394 C385 0.929 . S
H395 C388 0.930 . S
C396 C397 1.351 1_554 S
C396 N399 1.368 . S
C396 H401 0.931 . S
C397 C396 1.351 1_556 S
C397 N398 1.373 . S
C397 H425 0.930 . S
N398 C397 1.373 . S
N398 C400 1.340 . S
N399 C396 1.368 . S
N399 C400 1.321 1_554 S
N399 Co402 2.135 . S
C400 N398 1.340 . S
C400 N399 1.321 1_556 S
C400 H424 0.930 . S
H401 C396 0.931 . S
Co402 N399 2.135 . S
Co402 N405 2.121 . S
Co402 O410 2.055 . S
Co402 O413 2.039 . S
Co402 N416 2.140 . S
C403 O404 1.227 1_554 S
C403 O413 1.265 . S
O404 C403 1.227 1_556 S
N405 Co402 2.121 . S
N405 C407 1.375 . S
N405 C408 1.313 . S
C406 C407 1.338 . S
C406 N409 1.377 . S
C406 H426 0.930 . S
C407 N405 1.375 . S
C407 C406 1.338 . S
C407 H411 0.931 . S
C408 N405 1.313 . S
C408 N409 1.344 . S
C408 H412 0.930 . S
N409 C406 1.377 . S
N409 C408 1.344 . S
O410 Co402 2.055 . S
O410 C414 1.253 . S
H411 C407 0.931 . S
H412 C408 0.930 . S
O413 Co402 2.039 . S
O413 C403 1.265 . S
C414 O410 1.253 . S
C414 O415 1.227 . S
O415 C414 1.227 . S
N416 Co402 2.140 . S
N416 C419 1.346 . S
N416 C420 1.345 . S
C417 C418 1.387 . S
C417 C421 1.391 . S
C418 C417 1.387 . S
C418 C419 1.369 . S
C418 H427 0.929 1_554 S
C419 N416 1.346 . S
C419 C418 1.369 . S
C419 H422 0.928 1_554 S
C420 N416 1.345 . S
C420 C421 1.371 . S
C420 H423 0.931 . S
C421 C417 1.391 . S
C421 C420 1.371 . S
C421 H428 0.930 . S
H422 C419 0.928 1_556 S
H423 C420 0.931 . S
H424 C400 0.930 . S
H425 C397 0.930 . S
H426 C406 0.930 . S
H427 C418 0.929 1_556 S
H428 C421 0.930 . S
C429 C430 1.351 . S
C429 N432 1.368 . S
C429 H434 0.931 . S
C430 C429 1.351 . S
C430 N431 1.373 . S
C430 H458 0.930 . S
N431 C430 1.373 . S
N431 C433 1.340 . S
N432 C429 1.368 . S
N432 C433 1.321 . S
N432 Co435 2.135 . S
C433 N431 1.340 . S
C433 N432 1.321 . S
C433 H457 0.930 . S
H434 C429 0.931 . S
Co435 N432 2.135 . S
Co435 N438 2.121 . S
Co435 O443 2.055 . S
Co435 O446 2.039 . S
Co435 N449 2.140 . S
C436 O437 1.227 . S
C436 O446 1.265 . S
O437 C436 1.227 . S
N438 Co435 2.121 . S
N438 C440 1.372 . S
N438 C441 1.313 . S
C439 C440 1.339 1_565 S
C439 N442 1.377 1_565 S
C439 H459 0.930 . S
C440 N438 1.372 . S
C440 C439 1.339 1_545 S
C440 H444 0.932 1_545 S
C441 N438 1.313 . S
C441 N442 1.344 . S
C441 H445 0.930 . S
N442 C439 1.377 1_545 S
N442 C441 1.344 . S
O443 Co435 2.055 . S
O443 C447 1.253 . S
H444 C440 0.932 1_565 S
H445 C441 0.930 . S
O446 Co435 2.039 . S
O446 C436 1.265 . S
C447 O443 1.253 . S
C447 O448 1.227 . S
O448 C447 1.227 . S
N449 Co435 2.140 . S
N449 C452 1.346 . S
N449 C453 1.345 . S
C450 C451 1.387 . S
C450 C454 1.391 . S
C451 C450 1.387 . S
C451 C452 1.369 . S
C451 H460 0.929 . S
C452 N449 1.346 . S
C452 C451 1.369 . S
C452 H455 0.928 . S
C453 N449 1.345 . S
C453 C454 1.371 . S
C453 H456 0.931 . S
C454 C450 1.391 . S
C454 C453 1.371 . S
C454 H461 0.930 . S
H455 C452 0.928 . S
H456 C453 0.931 . S
H457 C433 0.930 . S
H458 C430 0.930 . S
H459 C439 0.930 . S
H460 C451 0.929 . S
H461 C454 0.930 . S
C462 C463 1.351 . S
C462 N465 1.368 . S
C462 H467 0.931 . S
C463 C462 1.351 . S
C463 N464 1.373 . S
C463 H491 0.930 . S
N464 C463 1.373 . S
N464 C466 1.340 . S
N465 C462 1.368 . S
N465 C466 1.321 . S
N465 Co468 2.135 . S
C466 N464 1.340 . S
C466 N465 1.321 . S
C466 H490 0.930 . S
H467 C462 0.931 . S
Co468 N465 2.135 . S
Co468 N471 2.121 . S
Co468 O476 2.055 . S
Co468 O479 2.039 . S
Co468 N482 2.140 . S
C469 O470 1.227 . S
C469 O479 1.265 . S
O470 C469 1.227 . S
N471 Co468 2.121 . S
N471 C473 1.375 . S
N471 C474 1.313 . S
C472 C473 1.338 . S
C472 N475 1.377 . S
C472 H492 0.930 . S
C473 N471 1.375 . S
C473 C472 1.338 . S
C473 H477 0.931 . S
C474 N471 1.313 . S
C474 N475 1.344 . S
C474 H478 0.930 . S
N475 C472 1.377 . S
N475 C474 1.344 . S
O476 Co468 2.055 . S
O476 C480 1.253 . S
H477 C473 0.931 . S
H478 C474 0.930 . S
O479 Co468 2.039 . S
O479 C469 1.265 . S
C480 O476 1.253 . S
C480 O481 1.227 . S
O481 C480 1.227 . S
N482 Co468 2.140 . S
N482 C485 1.346 . S
N482 C486 1.345 . S
C483 C484 1.387 . S
C483 C487 1.391 . S
C484 C483 1.387 . S
C484 C485 1.369 . S
C484 H493 0.929 . S
C485 N482 1.346 . S
C485 C484 1.369 . S
C485 H488 0.928 . S
C486 N482 1.345 . S
C486 C487 1.371 . S
C486 H489 0.931 . S
C487 C483 1.391 . S
C487 C486 1.371 . S
C487 H494 0.930 . S
H488 C485 0.928 . S
H489 C486 0.931 . S
H490 C466 0.930 . S
H491 C463 0.930 . S
H492 C472 0.930 . S
H493 C484 0.929 . S
H494 C487 0.930 . S
C495 C496 1.351 . S
C495 N498 1.368 . S
C495 H500 0.931 . S
C496 C495 1.351 . S
C496 N497 1.373 . S
C496 H524 0.930 . S
N497 C496 1.373 . S
N497 C499 1.340 . S
N498 C495 1.368 . S
N498 C499 1.321 . S
N498 Co501 2.135 . S
C499 N497 1.340 . S
C499 N498 1.321 . S
C499 H523 0.930 . S
H500 C495 0.931 . S
Co501 N498 2.135 . S
Co501 N504 2.121 . S
Co501 O509 2.055 . S
Co501 O512 2.039 . S
Co501 N515 2.140 . S
C502 O503 1.227 . S
C502 O512 1.265 . S
O503 C502 1.227 . S
N504 Co501 2.121 . S
N504 C506 1.372 . S
N504 C507 1.313 . S
C505 C506 1.339 1_545 S
C505 N508 1.377 1_545 S
C505 H525 0.930 . S
C506 N504 1.372 . S
C506 C505 1.339 1_565 S
C506 H510 0.932 1_565 S
C507 N504 1.313 . S
C507 N508 1.344 . S
C507 H511 0.930 . S
N508 C505 1.377 1_565 S
N508 C507 1.344 . S
O509 Co501 2.055 . S
O509 C513 1.253 . S
H510 C506 0.932 1_545 S
H511 C507 0.930 . S
O512 Co501 2.039 . S
O512 C502 1.265 . S
C513 O509 1.253 . S
C513 O514 1.227 . S
O514 C513 1.227 . S
N515 Co501 2.140 . S
N515 C518 1.346 . S
N515 C519 1.345 . S
C516 C517 1.387 . S
C516 C520 1.391 . S
C517 C516 1.387 . S
C517 C518 1.369 . S
C517 H526 0.929 . S
C518 N515 1.346 . S
C518 C517 1.369 . S
C518 H521 0.928 . S
C519 N515 1.345 . S
C519 C520 1.371 . S
C519 H522 0.931 . S
C520 C516 1.391 . S
C520 C519 1.371 . S
C520 H527 0.930 . S
H521 C518 0.928 . S
H522 C519 0.931 . S
H523 C499 0.930 . S
H524 C496 0.930 . S
H525 C505 0.930 . S
H526 C517 0.929 . S
H527 C520 0.930 . S
C528 C529 1.351 . S
C528 N531 1.368 . S
C528 H533 0.931 . S
C529 C528 1.351 . S
C529 N530 1.373 . S
C529 H557 0.930 . S
N530 C529 1.373 . S
N530 C532 1.340 . S
N531 C528 1.368 . S
N531 C532 1.321 . S
N531 Co534 2.135 . S
C532 N530 1.340 . S
C532 N531 1.321 . S
C532 H556 0.930 . S
H533 C528 0.931 . S
Co534 N531 2.135 . S
Co534 N537 2.121 . S
Co534 O542 2.055 . S
Co534 O545 2.039 . S
Co534 N548 2.140 . S
C535 O536 1.227 . S
C535 O545 1.265 . S
O536 C535 1.227 . S
N537 Co534 2.121 . S
N537 C539 1.375 . S
N537 C540 1.313 . S
C538 C539 1.338 . S
C538 N541 1.377 . S
C538 H558 0.930 . S
C539 N537 1.375 . S
C539 C538 1.338 . S
C539 H543 0.931 . S
C540 N537 1.313 . S
C540 N541 1.344 . S
C540 H544 0.930 . S
N541 C538 1.377 . S
N541 C540 1.344 . S
O542 Co534 2.055 . S
O542 C546 1.253 . S
H543 C539 0.931 . S
H544 C540 0.930 . S
O545 Co534 2.039 . S
O545 C535 1.265 . S
C546 O542 1.253 . S
C546 O547 1.227 . S
O547 C546 1.227 . S
N548 Co534 2.140 . S
N548 C551 1.346 . S
N548 C552 1.345 . S
C549 C550 1.387 . S
C549 C553 1.391 . S
C550 C549 1.387 . S
C550 C551 1.369 . S
C550 H559 0.929 . S
C551 N548 1.346 . S
C551 C550 1.369 . S
C551 H554 0.928 . S
C552 N548 1.345 . S
C552 C553 1.371 . S
C552 H555 0.931 . S
C553 C549 1.391 . S
C553 C552 1.371 . S
C553 H560 0.930 . S
H554 C551 0.928 . S
H555 C552 0.931 . S
H556 C532 0.930 . S
H557 C529 0.930 . S
H558 C538 0.930 . S
H559 C550 0.929 . S
H560 C553 0.930 . S
C561 C562 1.351 . S
C561 N564 1.368 . S
C561 H566 0.931 . S
C562 C561 1.351 . S
C562 N563 1.373 . S
C562 H590 0.930 . S
N563 C562 1.373 . S
N563 C565 1.340 . S
N564 C561 1.368 . S
N564 C565 1.321 . S
N564 Co567 2.135 . S
C565 N563 1.340 . S
C565 N564 1.321 . S
C565 H589 0.930 . S
H566 C561 0.931 . S
Co567 N564 2.135 . S
Co567 N570 2.121 . S
Co567 O575 2.055 . S
Co567 O578 2.039 . S
Co567 N581 2.140 . S
C568 O569 1.227 . S
C568 O578 1.265 . S
O569 C568 1.227 . S
N570 Co567 2.121 . S
N570 C572 1.375 . S
N570 C573 1.313 . S
C571 C572 1.338 . S
C571 N574 1.377 . S
C571 H591 0.930 . S
C572 N570 1.375 . S
C572 C571 1.338 . S
C572 H576 0.931 . S
C573 N570 1.313 . S
C573 N574 1.344 . S
C573 H577 0.930 . S
N574 C571 1.377 . S
N574 C573 1.344 . S
O575 Co567 2.055 . S
O575 C579 1.253 . S
H576 C572 0.931 . S
H577 C573 0.930 . S
O578 Co567 2.039 . S
O578 C568 1.265 . S
C579 O575 1.253 . S
C579 O580 1.227 . S
O580 C579 1.227 . S
N581 Co567 2.140 . S
N581 C584 1.346 . S
N581 C585 1.345 . S
C582 C583 1.387 . S
C582 C586 1.391 . S
C583 C582 1.387 . S
C583 C584 1.369 . S
C583 H592 0.929 . S
C584 N581 1.346 . S
C584 C583 1.369 . S
C584 H587 0.928 . S
C585 N581 1.345 . S
C585 C586 1.371 . S
C585 H588 0.931 . S
C586 C582 1.391 . S
C586 C585 1.371 . S
C586 H593 0.930 . S
H587 C584 0.928 . S
H588 C585 0.931 . S
H589 C565 0.930 . S
H590 C562 0.930 . S
H591 C571 0.930 . S
H592 C583 0.929 . S
H593 C586 0.930 . S
C594 C595 1.351 1_554 S
C594 N597 1.368 . S
C594 H599 0.931 . S
C595 C594 1.351 1_556 S
C595 N596 1.373 . S
C595 H623 0.930 . S
N596 C595 1.373 . S
N596 C598 1.340 . S
N597 C594 1.368 . S
N597 C598 1.321 1_554 S
N597 Co600 2.135 . S
C598 N596 1.340 . S
C598 N597 1.321 1_556 S
C598 H622 0.930 . S
H599 C594 0.931 . S
Co600 N597 2.135 . S
Co600 N603 2.121 . S
Co600 O608 2.055 . S
Co600 O611 2.039 . S
Co600 N614 2.140 . S
C601 O602 1.227 1_554 S
C601 O611 1.265 . S
O602 C601 1.227 1_556 S
N603 Co600 2.121 . S
N603 C605 1.375 . S
N603 C606 1.313 . S
C604 C605 1.338 . S
C604 N607 1.377 . S
C604 H624 0.930 . S
C605 N603 1.375 . S
C605 C604 1.338 . S
C605 H609 0.931 . S
C606 N603 1.313 . S
C606 N607 1.344 . S
C606 H610 0.930 . S
N607 C604 1.377 . S
N607 C606 1.344 . S
O608 Co600 2.055 . S
O608 C612 1.253 . S
H609 C605 0.931 . S
H610 C606 0.930 . S
O611 Co600 2.039 . S
O611 C601 1.265 . S
C612 O608 1.253 . S
C612 O613 1.227 . S
O613 C612 1.227 . S
N614 Co600 2.140 . S
N614 C617 1.346 . S
N614 C618 1.345 . S
C615 C616 1.387 . S
C615 C619 1.391 . S
C616 C615 1.387 . S
C616 C617 1.369 . S
C616 H625 0.929 1_554 S
C617 N614 1.346 . S
C617 C616 1.369 . S
C617 H620 0.928 1_554 S
C618 N614 1.345 . S
C618 C619 1.371 . S
C618 H621 0.931 . S
C619 C615 1.391 . S
C619 C618 1.371 . S
C619 H626 0.930 . S
H620 C617 0.928 1_556 S
H621 C618 0.931 . S
H622 C598 0.930 . S
H623 C595 0.930 . S
H624 C604 0.930 . S
H625 C616 0.929 1_556 S
H626 C619 0.930 . S
C627 C628 1.351 . S
C627 N630 1.368 . S
C627 H632 0.931 . S
C628 C627 1.351 . S
C628 N629 1.373 . S
C628 H656 0.930 . S
N629 C628 1.373 . S
N629 C631 1.340 . S
N630 C627 1.368 . S
N630 C631 1.321 . S
N630 Co633 2.135 . S
C631 N629 1.340 . S
C631 N630 1.321 . S
C631 H655 0.930 . S
H632 C627 0.931 . S
Co633 N630 2.135 . S
Co633 N636 2.121 . S
Co633 O641 2.055 . S
Co633 O644 2.039 . S
Co633 N647 2.140 . S
C634 O635 1.227 . S
C634 O644 1.265 . S
O635 C634 1.227 . S
N636 Co633 2.121 . S
N636 C638 1.375 . S
N636 C639 1.313 . S
C637 C638 1.338 . S
C637 N640 1.377 . S
C637 H657 0.930 . S
C638 N636 1.375 . S
C638 C637 1.338 . S
C638 H642 0.931 . S
C639 N636 1.313 . S
C639 N640 1.344 . S
C639 H643 0.930 . S
N640 C637 1.377 . S
N640 C639 1.344 . S
O641 Co633 2.055 . S
O641 C645 1.253 . S
H642 C638 0.931 . S
H643 C639 0.930 . S
O644 Co633 2.039 . S
O644 C634 1.265 . S
C645 O641 1.253 . S
C645 O646 1.227 . S
O646 C645 1.227 . S
N647 Co633 2.140 . S
N647 C650 1.346 . S
N647 C651 1.345 . S
C648 C649 1.387 . S
C648 C652 1.391 . S
C649 C648 1.387 . S
C649 C650 1.369 . S
C649 H658 0.929 . S
C650 N647 1.346 . S
C650 C649 1.369 . S
C650 H653 0.928 . S
C651 N647 1.345 . S
C651 C652 1.371 . S
C651 H654 0.931 . S
C652 C648 1.391 . S
C652 C651 1.371 . S
C652 H659 0.930 . S
H653 C650 0.928 . S
H654 C651 0.931 . S
H655 C631 0.930 . S
H656 C628 0.930 . S
H657 C637 0.930 . S
H658 C649 0.929 . S
H659 C652 0.930 . S
C660 C661 1.351 . S
C660 N663 1.368 . S
C660 H665 0.931 . S
C661 C660 1.351 . S
C661 N662 1.373 . S
C661 H689 0.930 . S
N662 C661 1.373 . S
N662 C664 1.340 . S
N663 C660 1.368 . S
N663 C664 1.321 . S
N663 Co666 2.135 . S
C664 N662 1.340 . S
C664 N663 1.321 . S
C664 H688 0.930 . S
H665 C660 0.931 . S
Co666 N663 2.135 . S
Co666 N669 2.121 . S
Co666 O674 2.055 . S
Co666 O677 2.039 . S
Co666 N680 2.140 . S
C667 O668 1.227 . S
C667 O677 1.265 . S
O668 C667 1.227 . S
N669 Co666 2.121 . S
N669 C671 1.375 . S
N669 C672 1.313 . S
C670 C671 1.338 . S
C670 N673 1.377 . S
C670 H690 0.930 . S
C671 N669 1.375 . S
C671 C670 1.338 . S
C671 H675 0.931 . S
C672 N669 1.313 . S
C672 N673 1.344 . S
C672 H676 0.930 . S
N673 C670 1.377 . S
N673 C672 1.344 . S
O674 Co666 2.055 . S
O674 C678 1.253 . S
H675 C671 0.931 . S
H676 C672 0.930 . S
O677 Co666 2.039 . S
O677 C667 1.265 . S
C678 O674 1.253 . S
C678 O679 1.227 . S
O679 C678 1.227 . S
N680 Co666 2.140 . S
N680 C683 1.346 . S
N680 C684 1.345 . S
C681 C682 1.387 . S
C681 C685 1.391 . S
C682 C681 1.387 . S
C682 C683 1.369 . S
C682 H691 0.929 . S
C683 N680 1.346 . S
C683 C682 1.369 . S
C683 H686 0.928 . S
C684 N680 1.345 . S
C684 C685 1.371 . S
C684 H687 0.931 . S
C685 C681 1.391 . S
C685 C684 1.371 . S
C685 H692 0.930 . S
H686 C683 0.928 . S
H687 C684 0.931 . S
H688 C664 0.930 . S
H689 C661 0.930 . S
H690 C670 0.930 . S
H691 C682 0.929 . S
H692 C685 0.930 . S
C693 C694 1.351 . S
C693 N696 1.368 . S
C693 H698 0.931 . S
C694 C693 1.351 . S
C694 N695 1.373 . S
C694 H722 0.930 . S
N695 C694 1.373 . S
N695 C697 1.340 . S
N696 C693 1.368 . S
N696 C697 1.321 . S
N696 Co699 2.135 . S
C697 N695 1.340 . S
C697 N696 1.321 . S
C697 H721 0.930 . S
H698 C693 0.931 . S
Co699 N696 2.135 . S
Co699 N702 2.121 . S
Co699 O707 2.055 . S
Co699 O710 2.039 . S
Co699 N713 2.140 . S
C700 O701 1.227 . S
C700 O710 1.265 . S
O701 C700 1.227 . S
N702 Co699 2.121 . S
N702 C704 1.375 . S
N702 C705 1.313 . S
C703 C704 1.338 . S
C703 N706 1.377 . S
C703 H723 0.930 . S
C704 N702 1.375 . S
C704 C703 1.338 . S
C704 H708 0.931 . S
C705 N702 1.313 . S
C705 N706 1.344 . S
C705 H709 0.930 . S
N706 C703 1.377 . S
N706 C705 1.344 . S
O707 Co699 2.055 . S
O707 C711 1.253 . S
H708 C704 0.931 . S
H709 C705 0.930 . S
O710 Co699 2.039 . S
O710 C700 1.265 . S
C711 O707 1.253 . S
C711 O712 1.227 . S
O712 C711 1.227 . S
N713 Co699 2.140 . S
N713 C716 1.346 . S
N713 C717 1.345 . S
C714 C715 1.387 . S
C714 C718 1.391 . S
C715 C714 1.387 . S
C715 C716 1.369 . S
C715 H724 0.929 . S
C716 N713 1.346 . S
C716 C715 1.369 . S
C716 H719 0.928 . S
C717 N713 1.345 . S
C717 C718 1.371 . S
C717 H720 0.931 . S
C718 C714 1.391 . S
C718 C717 1.371 . S
C718 H725 0.930 . S
H719 C716 0.928 . S
H720 C717 0.931 . S
H721 C697 0.930 . S
H722 C694 0.930 . S
H723 C703 0.930 . S
H724 C715 0.929 . S
H725 C718 0.930 . S
C726 C727 1.351 1_556 S
C726 N729 1.368 . S
C726 H731 0.931 . S
C727 C726 1.351 1_554 S
C727 N728 1.373 . S
C727 H755 0.930 . S
N728 C727 1.373 . S
N728 C730 1.340 . S
N729 C726 1.368 . S
N729 C730 1.321 1_556 S
N729 Co732 2.135 . S
C730 N728 1.340 . S
C730 N729 1.321 1_554 S
C730 H754 0.930 . S
H731 C726 0.931 . S
Co732 N729 2.135 . S
Co732 N735 2.121 . S
Co732 O740 2.055 . S
Co732 O743 2.039 . S
Co732 N746 2.140 . S
C733 O734 1.227 1_556 S
C733 O743 1.265 . S
O734 C733 1.227 1_554 S
N735 Co732 2.121 . S
N735 C737 1.375 . S
N735 C738 1.313 . S
C736 C737 1.338 . S
C736 N739 1.377 . S
C736 H756 0.930 . S
C737 N735 1.375 . S
C737 C736 1.338 . S
C737 H741 0.931 . S
C738 N735 1.313 . S
C738 N739 1.344 . S
C738 H742 0.930 . S
N739 C736 1.377 . S
N739 C738 1.344 . S
O740 Co732 2.055 . S
O740 C744 1.253 . S
H741 C737 0.931 . S
H742 C738 0.930 . S
O743 Co732 2.039 . S
O743 C733 1.265 . S
C744 O740 1.253 . S
C744 O745 1.227 . S
O745 C744 1.227 . S
N746 Co732 2.140 . S
N746 C749 1.346 . S
N746 C750 1.345 . S
C747 C748 1.387 . S
C747 C751 1.391 . S
C748 C747 1.387 . S
C748 C749 1.369 . S
C748 H757 0.929 1_556 S
C749 N746 1.346 . S
C749 C748 1.369 . S
C749 H752 0.928 1_556 S
C750 N746 1.345 . S
C750 C751 1.371 . S
C750 H753 0.931 . S
C751 C747 1.391 . S
C751 C750 1.371 . S
C751 H758 0.930 . S
H752 C749 0.928 1_554 S
H753 C750 0.931 . S
H754 C730 0.930 . S
H755 C727 0.930 . S
H756 C736 0.930 . S
H757 C748 0.929 1_554 S
H758 C751 0.930 . S
C759 C760 1.351 . S
C759 N762 1.368 . S
C759 H764 0.931 . S
C760 C759 1.351 . S
C760 N761 1.373 . S
C760 H788 0.930 . S
N761 C760 1.373 . S
N761 C763 1.340 . S
N762 C759 1.368 . S
N762 C763 1.321 . S
N762 Co765 2.135 . S
C763 N761 1.340 . S
C763 N762 1.321 . S
C763 H787 0.930 . S
H764 C759 0.931 . S
Co765 N762 2.135 . S
Co765 N768 2.121 . S
Co765 O773 2.055 . S
Co765 O776 2.039 . S
Co765 N779 2.140 . S
C766 O767 1.227 . S
C766 O776 1.265 . S
O767 C766 1.227 . S
N768 Co765 2.121 . S
N768 C770 1.375 . S
N768 C771 1.313 . S
C769 C770 1.338 . S
C769 N772 1.377 . S
C769 H789 0.930 . S
C770 N768 1.375 . S
C770 C769 1.338 . S
C770 H774 0.931 . S
C771 N768 1.313 . S
C771 N772 1.344 . S
C771 H775 0.930 . S
N772 C769 1.377 . S
N772 C771 1.344 . S
O773 Co765 2.055 . S
O773 C777 1.253 . S
H774 C770 0.931 . S
H775 C771 0.930 . S
O776 Co765 2.039 . S
O776 C766 1.265 . S
C777 O773 1.253 . S
C777 O778 1.227 . S
O778 C777 1.227 . S
N779 Co765 2.140 . S
N779 C782 1.346 . S
N779 C783 1.345 . S
C780 C781 1.387 . S
C780 C784 1.391 . S
C781 C780 1.387 . S
C781 C782 1.369 . S
C781 H790 0.929 . S
C782 N779 1.346 . S
C782 C781 1.369 . S
C782 H785 0.928 . S
C783 N779 1.345 . S
C783 C784 1.371 . S
C783 H786 0.931 . S
C784 C780 1.391 . S
C784 C783 1.371 . S
C784 H791 0.930 . S
H785 C782 0.928 . S
H786 C783 0.931 . S
H787 C763 0.930 . S
H788 C760 0.930 . S
H789 C769 0.930 . S
H790 C781 0.929 . S
H791 C784 0.930 . S
C792 C793 1.351 . S
C792 N795 1.368 . S
C792 H797 0.931 . S
C793 C792 1.351 . S
C793 N794 1.373 . S
C793 H821 0.930 . S
N794 C793 1.373 . S
N794 C796 1.340 . S
N795 C792 1.368 . S
N795 C796 1.321 . S
N795 Co798 2.135 . S
C796 N794 1.340 . S
C796 N795 1.321 . S
C796 H820 0.930 . S
H797 C792 0.931 . S
Co798 N795 2.135 . S
Co798 N801 2.121 . S
Co798 O806 2.055 . S
Co798 O809 2.039 . S
Co798 N812 2.140 . S
C799 O800 1.227 . S
C799 O809 1.265 . S
O800 C799 1.227 . S
N801 Co798 2.121 . S
N801 C803 1.375 . S
N801 C804 1.313 . S
C802 C803 1.338 . S
C802 N805 1.377 . S
C802 H822 0.930 . S
C803 N801 1.375 . S
C803 C802 1.338 . S
C803 H807 0.931 . S
C804 N801 1.313 . S
C804 N805 1.344 . S
C804 H808 0.930 . S
N805 C802 1.377 . S
N805 C804 1.344 . S
O806 Co798 2.055 . S
O806 C810 1.253 . S
H807 C803 0.931 . S
H808 C804 0.930 . S
O809 Co798 2.039 . S
O809 C799 1.265 . S
C810 O806 1.253 . S
C810 O811 1.227 . S
O811 C810 1.227 . S
N812 Co798 2.140 . S
N812 C815 1.346 . S
N812 C816 1.345 . S
C813 C814 1.387 . S
C813 C817 1.391 . S
C814 C813 1.387 . S
C814 C815 1.369 . S
C814 H823 0.929 . S
C815 N812 1.346 . S
C815 C814 1.369 . S
C815 H818 0.928 . S
C816 N812 1.345 . S
C816 C817 1.371 . S
C816 H819 0.931 . S
C817 C813 1.391 . S
C817 C816 1.371 . S
C817 H824 0.930 . S
H818 C815 0.928 . S
H819 C816 0.931 . S
H820 C796 0.930 . S
H821 C793 0.930 . S
H822 C802 0.930 . S
H823 C814 0.929 . S
H824 C817 0.930 . S
C825 C826 1.351 . S
C825 N828 1.368 . S
C825 H830 0.931 . S
C826 C825 1.351 . S
C826 N827 1.373 . S
C826 H854 0.930 . S
N827 C826 1.373 . S
N827 C829 1.340 . S
N828 C825 1.368 . S
N828 C829 1.321 . S
N828 Co831 2.135 . S
C829 N827 1.340 . S
C829 N828 1.321 . S
C829 H853 0.930 . S
H830 C825 0.931 . S
Co831 N828 2.135 . S
Co831 N834 2.121 . S
Co831 O839 2.055 . S
Co831 O842 2.039 . S
Co831 N845 2.140 . S
C832 O833 1.227 . S
C832 O842 1.265 . S
O833 C832 1.227 . S
N834 Co831 2.121 . S
N834 C836 1.375 . S
N834 C837 1.313 . S
C835 C836 1.338 . S
C835 N838 1.377 . S
C835 H855 0.930 . S
C836 N834 1.375 . S
C836 C835 1.338 . S
C836 H840 0.931 . S
C837 N834 1.313 . S
C837 N838 1.344 . S
C837 H841 0.930 . S
N838 C835 1.377 . S
N838 C837 1.344 . S
O839 Co831 2.055 . S
O839 C843 1.253 . S
H840 C836 0.931 . S
H841 C837 0.930 . S
O842 Co831 2.039 . S
O842 C832 1.265 . S
C843 O839 1.253 . S
C843 O844 1.227 . S
O844 C843 1.227 . S
N845 Co831 2.140 . S
N845 C848 1.346 . S
N845 C849 1.345 . S
C846 C847 1.387 . S
C846 C850 1.391 . S
C847 C846 1.387 . S
C847 C848 1.369 . S
C847 H856 0.929 . S
C848 N845 1.346 . S
C848 C847 1.369 . S
C848 H851 0.928 . S
C849 N845 1.345 . S
C849 C850 1.371 . S
C849 H852 0.931 . S
C850 C846 1.391 . S
C850 C849 1.371 . S
C850 H857 0.930 . S
H851 C848 0.928 . S
H852 C849 0.931 . S
H853 C829 0.930 . S
H854 C826 0.930 . S
H855 C835 0.930 . S
H856 C847 0.929 . S
H857 C850 0.930 . S
C858 C859 1.351 1_556 S
C858 N861 1.368 . S
C858 H863 0.931 . S
C859 C858 1.351 1_554 S
C859 N860 1.373 . S
C859 H887 0.930 . S
N860 C859 1.373 . S
N860 C862 1.340 . S
N861 C858 1.368 . S
N861 C862 1.321 1_556 S
N861 Co864 2.135 . S
C862 N860 1.340 . S
C862 N861 1.321 1_554 S
C862 H886 0.930 . S
H863 C858 0.931 . S
Co864 N861 2.135 . S
Co864 N867 2.121 . S
Co864 O872 2.055 . S
Co864 O875 2.039 . S
Co864 N878 2.140 . S
C865 O866 1.227 1_556 S
C865 O875 1.265 . S
O866 C865 1.227 1_554 S
N867 Co864 2.121 . S
N867 C869 1.375 . S
N867 C870 1.313 . S
C868 C869 1.338 . S
C868 N871 1.377 . S
C868 H888 0.930 . S
C869 N867 1.375 . S
C869 C868 1.338 . S
C869 H873 0.931 . S
C870 N867 1.313 . S
C870 N871 1.344 . S
C870 H874 0.930 . S
N871 C868 1.377 . S
N871 C870 1.344 . S
O872 Co864 2.055 . S
O872 C876 1.253 . S
H873 C869 0.931 . S
H874 C870 0.930 . S
O875 Co864 2.039 . S
O875 C865 1.265 . S
C876 O872 1.253 . S
C876 O877 1.227 . S
O877 C876 1.227 . S
N878 Co864 2.140 . S
N878 C881 1.346 . S
N878 C882 1.345 . S
C879 C880 1.387 . S
C879 C883 1.391 . S
C880 C879 1.387 . S
C880 C881 1.369 . S
C880 H889 0.929 1_556 S
C881 N878 1.346 . S
C881 C880 1.369 . S
C881 H884 0.928 1_556 S
C882 N878 1.345 . S
C882 C883 1.371 . S
C882 H885 0.931 . S
C883 C879 1.391 . S
C883 C882 1.371 . S
C883 H890 0.930 . S
H884 C881 0.928 1_554 S
H885 C882 0.931 . S
H886 C862 0.930 . S
H887 C859 0.930 . S
H888 C868 0.930 . S
H889 C880 0.929 1_554 S
H890 C883 0.930 . S
C891 C892 1.351 . S
C891 N894 1.368 . S
C891 H896 0.931 . S
C892 C891 1.351 . S
C892 N893 1.373 . S
C892 H920 0.930 . S
N893 C892 1.373 . S
N893 C895 1.340 . S
N894 C891 1.368 . S
N894 C895 1.321 . S
N894 Co897 2.135 . S
C895 N893 1.340 . S
C895 N894 1.321 . S
C895 H919 0.930 . S
H896 C891 0.931 . S
Co897 N894 2.135 . S
Co897 N900 2.121 . S
Co897 O905 2.055 . S
Co897 O908 2.039 . S
Co897 N911 2.140 . S
C898 O899 1.227 . S
C898 O908 1.265 . S
O899 C898 1.227 . S
N900 Co897 2.121 . S
N900 C902 1.375 . S
N900 C903 1.313 . S
C901 C902 1.338 . S
C901 N904 1.377 . S
C901 H921 0.930 . S
C902 N900 1.375 . S
C902 C901 1.338 . S
C902 H906 0.931 . S
C903 N900 1.313 . S
C903 N904 1.344 . S
C903 H907 0.930 . S
N904 C901 1.377 . S
N904 C903 1.344 . S
O905 Co897 2.055 . S
O905 C909 1.253 . S
H906 C902 0.931 . S
H907 C903 0.930 . S
O908 Co897 2.039 . S
O908 C898 1.265 . S
C909 O905 1.253 . S
C909 O910 1.227 . S
O910 C909 1.227 . S
N911 Co897 2.140 . S
N911 C914 1.346 . S
N911 C915 1.345 . S
C912 C913 1.387 . S
C912 C916 1.391 . S
C913 C912 1.387 . S
C913 C914 1.369 . S
C913 H922 0.929 . S
C914 N911 1.346 . S
C914 C913 1.369 . S
C914 H917 0.928 . S
C915 N911 1.345 . S
C915 C916 1.371 . S
C915 H918 0.931 . S
C916 C912 1.391 . S
C916 C915 1.371 . S
C916 H923 0.930 . S
H917 C914 0.928 . S
H918 C915 0.931 . S
H919 C895 0.930 . S
H920 C892 0.930 . S
H921 C901 0.930 . S
H922 C913 0.929 . S
H923 C916 0.930 . S
C924 C925 1.351 . S
C924 N927 1.368 . S
C924 H929 0.931 . S
C925 C924 1.351 . S
C925 N926 1.373 . S
C925 H953 0.930 . S
N926 C925 1.373 . S
N926 C928 1.340 . S
N927 C924 1.368 . S
N927 C928 1.321 . S
N927 Co930 2.135 . S
C928 N926 1.340 . S
C928 N927 1.321 . S
C928 H952 0.930 . S
H929 C924 0.931 . S
Co930 N927 2.135 . S
Co930 N933 2.121 . S
Co930 O938 2.055 . S
Co930 O941 2.039 . S
Co930 N944 2.140 . S
C931 O932 1.227 . S
C931 O941 1.265 . S
O932 C931 1.227 . S
N933 Co930 2.121 . S
N933 C935 1.375 . S
N933 C936 1.313 . S
C934 C935 1.338 . S
C934 N937 1.377 . S
C934 H954 0.930 . S
C935 N933 1.375 . S
C935 C934 1.338 . S
C935 H939 0.931 . S
C936 N933 1.313 . S
C936 N937 1.344 . S
C936 H940 0.930 . S
N937 C934 1.377 . S
N937 C936 1.344 . S
O938 Co930 2.055 . S
O938 C942 1.253 . S
H939 C935 0.931 . S
H940 C936 0.930 . S
O941 Co930 2.039 . S
O941 C931 1.265 . S
C942 O938 1.253 . S
C942 O943 1.227 . S
O943 C942 1.227 . S
N944 Co930 2.140 . S
N944 C947 1.346 . S
N944 C948 1.345 . S
C945 C946 1.387 . S
C945 C949 1.391 . S
C946 C945 1.387 . S
C946 C947 1.369 . S
C946 H955 0.929 . S
C947 N944 1.346 . S
C947 C946 1.369 . S
C947 H950 0.928 . S
C948 N944 1.345 . S
C948 C949 1.371 . S
C948 H951 0.931 . S
C949 C945 1.391 . S
C949 C948 1.371 . S
C949 H956 0.930 . S
H950 C947 0.928 . S
H951 C948 0.931 . S
H952 C928 0.930 . S
H953 C925 0.930 . S
H954 C934 0.930 . S
H955 C946 0.929 . S
H956 C949 0.930 . S
C957 C958 1.351 . S
C957 N960 1.368 . S
C957 H962 0.931 . S
C958 C957 1.351 . S
C958 N959 1.373 . S
C958 H986 0.930 . S
N959 C958 1.373 . S
N959 C961 1.340 . S
N960 C957 1.368 . S
N960 C961 1.321 . S
N960 Co963 2.135 . S
C961 N959 1.340 . S
C961 N960 1.321 . S
C961 H985 0.930 . S
H962 C957 0.931 . S
Co963 N960 2.135 . S
Co963 N966 2.121 . S
Co963 O971 2.055 . S
Co963 O974 2.039 . S
Co963 N977 2.140 . S
C964 O965 1.227 . S
C964 O974 1.265 . S
O965 C964 1.227 . S
N966 Co963 2.121 . S
N966 C968 1.375 . S
N966 C969 1.313 . S
C967 C968 1.338 . S
C967 N970 1.377 . S
C967 H987 0.930 . S
C968 N966 1.375 . S
C968 C967 1.338 . S
C968 H972 0.931 . S
C969 N966 1.313 . S
C969 N970 1.344 . S
C969 H973 0.930 . S
N970 C967 1.377 . S
N970 C969 1.344 . S
O971 Co963 2.055 . S
O971 C975 1.253 . S
H972 C968 0.931 . S
H973 C969 0.930 . S
O974 Co963 2.039 . S
O974 C964 1.265 . S
C975 O971 1.253 . S
C975 O976 1.227 . S
O976 C975 1.227 . S
N977 Co963 2.140 . S
N977 C980 1.346 . S
N977 C981 1.345 . S
C978 C979 1.387 . S
C978 C982 1.391 . S
C979 C978 1.387 . S
C979 C980 1.369 . S
C979 H988 0.929 . S
C980 N977 1.346 . S
C980 C979 1.369 . S
C980 H983 0.928 . S
C981 N977 1.345 . S
C981 C982 1.371 . S
C981 H984 0.931 . S
C982 C978 1.391 . S
C982 C981 1.371 . S
C982 H989 0.930 . S
H983 C980 0.928 . S
H984 C981 0.931 . S
H985 C961 0.930 . S
H986 C958 0.930 . S
H987 C967 0.930 . S
H988 C979 0.929 . S
H989 C982 0.930 . S
C990 C991 1.351 1_554 S
C990 N993 1.368 . S
C990 H995 0.931 . S
C991 C990 1.351 1_556 S
C991 N992 1.373 . S
C991 H1019 0.930 . S
N992 C991 1.373 . S
N992 C994 1.340 . S
N993 C990 1.368 . S
N993 C994 1.321 1_554 S
N993 Co996 2.135 . S
C994 N992 1.340 . S
C994 N993 1.321 1_556 S
C994 H1018 0.930 . S
H995 C990 0.931 . S
Co996 N993 2.135 . S
Co996 N999 2.121 . S
Co996 O1004 2.055 . S
Co996 O1007 2.039 . S
Co996 N1010 2.140 . S
C997 O998 1.227 1_554 S
C997 O1007 1.265 . S
O998 C997 1.227 1_556 S
N999 Co996 2.121 . S
N999 C1001 1.375 . S
N999 C1002 1.313 . S
C1000 C1001 1.338 . S
C1000 N1003 1.377 . S
C1000 H1020 0.930 . S
C1001 N999 1.375 . S
C1001 C1000 1.338 . S
C1001 H1005 0.931 . S
C1002 N999 1.313 . S
C1002 N1003 1.344 . S
C1002 H1006 0.930 . S
N1003 C1000 1.377 . S
N1003 C1002 1.344 . S
O1004 Co996 2.055 . S
O1004 C1008 1.253 . S
H1005 C1001 0.931 . S
H1006 C1002 0.930 . S
O1007 Co996 2.039 . S
O1007 C997 1.265 . S
C1008 O1004 1.253 . S
C1008 O1009 1.227 . S
O1009 C1008 1.227 . S
N1010 Co996 2.140 . S
N1010 C1013 1.346 . S
N1010 C1014 1.345 . S
C1011 C1012 1.387 . S
C1011 C1015 1.391 . S
C1012 C1011 1.387 . S
C1012 C1013 1.369 . S
C1012 H1021 0.929 1_554 S
C1013 N1010 1.346 . S
C1013 C1012 1.369 . S
C1013 H1016 0.928 1_554 S
C1014 N1010 1.345 . S
C1014 C1015 1.371 . S
C1014 H1017 0.931 . S
C1015 C1011 1.391 . S
C1015 C1014 1.371 . S
C1015 H1022 0.930 . S
H1016 C1013 0.928 1_556 S
H1017 C1014 0.931 . S
H1018 C994 0.930 . S
H1019 C991 0.930 . S
H1020 C1000 0.930 . S
H1021 C1012 0.929 1_556 S
H1022 C1015 0.930 . S
C1023 C1024 1.351 . S
C1023 N1026 1.368 . S
C1023 H1028 0.931 . S
C1024 C1023 1.351 . S
C1024 N1025 1.373 . S
C1024 H1052 0.930 . S
N1025 C1024 1.373 . S
N1025 C1027 1.340 . S
N1026 C1023 1.368 . S
N1026 C1027 1.321 . S
N1026 Co1029 2.135 . S
C1027 N1025 1.340 . S
C1027 N1026 1.321 . S
C1027 H1051 0.930 . S
H1028 C1023 0.931 . S
Co1029 N1026 2.135 . S
Co1029 N1032 2.121 . S
Co1029 O1037 2.055 . S
Co1029 O1040 2.039 . S
Co1029 N1043 2.140 . S
C1030 O1031 1.227 . S
C1030 O1040 1.265 . S
O1031 C1030 1.227 . S
N1032 Co1029 2.121 . S
N1032 C1034 1.375 . S
N1032 C1035 1.313 . S
C1033 C1034 1.338 . S
C1033 N1036 1.377 . S
C1033 H1053 0.930 . S
C1034 N1032 1.375 . S
C1034 C1033 1.338 . S
C1034 H1038 0.931 . S
C1035 N1032 1.313 . S
C1035 N1036 1.344 . S
C1035 H1039 0.930 . S
N1036 C1033 1.377 . S
N1036 C1035 1.344 . S
O1037 Co1029 2.055 . S
O1037 C1041 1.253 . S
H1038 C1034 0.931 . S
H1039 C1035 0.930 . S
O1040 Co1029 2.039 . S
O1040 C1030 1.265 . S
C1041 O1037 1.253 . S
C1041 O1042 1.227 . S
O1042 C1041 1.227 . S
N1043 Co1029 2.140 . S
N1043 C1046 1.346 . S
N1043 C1047 1.345 . S
C1044 C1045 1.387 . S
C1044 C1048 1.391 . S
C1045 C1044 1.387 . S
C1045 C1046 1.369 . S
C1045 H1054 0.929 . S
C1046 N1043 1.346 . S
C1046 C1045 1.369 . S
C1046 H1049 0.928 . S
C1047 N1043 1.345 . S
C1047 C1048 1.371 . S
C1047 H1050 0.931 . S
C1048 C1044 1.391 . S
C1048 C1047 1.371 . S
C1048 H1055 0.930 . S
H1049 C1046 0.928 . S
H1050 C1047 0.931 . S
H1051 C1027 0.930 . S
H1052 C1024 0.930 . S
H1053 C1033 0.930 . S
H1054 C1045 0.929 . S
H1055 C1048 0.930 . S
C1056 C1057 1.387 . S
C1056 H1060 0.984 . S
C1056 C1065 1.390 . S
C1057 C1056 1.387 . S
C1057 C1059 1.387 . S
H1058 C1065 0.950 . S
C1059 C1057 1.387 . S
C1059 C1061 1.390 . S
C1059 H1063 0.950 . S
H1060 C1056 0.984 . S
C1061 C1059 1.390 . S
C1061 C1062 1.387 . S
C1061 H1064 0.950 . S
C1062 C1061 1.387 . S
C1062 C1065 1.387 . S
H1063 C1059 0.950 . S
H1064 C1061 0.950 . S
C1065 C1056 1.390 . S
C1065 H1058 0.950 . S
C1065 C1062 1.387 . S
C1066 C1067 1.387 . S
C1066 H1070 0.950 . S
C1066 C1075 1.390 . S
C1067 C1066 1.387 . S
C1067 C1069 1.387 . S
H1068 C1075 0.950 . S
C1069 C1067 1.387 . S
C1069 C1071 1.390 . S
C1069 H1073 0.950 . S
H1070 C1066 0.950 . S
C1071 C1069 1.390 . S
C1071 C1072 1.387 . S
C1071 H1074 0.950 . S
C1072 C1071 1.387 . S
C1072 C1075 1.387 . S
H1073 C1069 0.950 . S
H1074 C1071 0.950 . S
C1075 C1066 1.390 . S
C1075 H1068 0.950 . S
C1075 C1072 1.387 . S
C1076 C1077 1.387 . S
C1076 H1080 0.950 . S
C1076 C1085 1.390 . S
C1077 C1076 1.387 . S
C1077 C1079 1.387 . S
H1078 C1085 0.924 1_545 S
C1079 C1077 1.387 . S
C1079 C1081 1.390 . S
C1079 H1083 0.950 . S
H1080 C1076 0.950 . S
C1081 C1079 1.390 . S
C1081 C1082 1.387 . S
C1081 H1084 0.950 . S
C1082 C1081 1.387 . S
C1082 C1085 1.387 . S
H1083 C1079 0.950 . S
H1084 C1081 0.950 . S
C1085 C1076 1.390 . S
C1085 H1078 0.924 1_565 S
C1085 C1082 1.387 . S
C1086 C1087 1.387 . S
C1086 H1090 0.950 . S
C1086 C1095 1.390 . S
C1087 C1086 1.387 . S
C1087 C1089 1.387 . S
H1088 C1095 0.950 . S
C1089 C1087 1.387 . S
C1089 C1091 1.390 . S
C1089 H1093 0.950 . S
H1090 C1086 0.950 . S
C1091 C1089 1.390 . S
C1091 C1092 1.387 . S
C1091 H1094 0.950 . S
C1092 C1091 1.387 . S
C1092 C1095 1.387 . S
H1093 C1089 0.950 . S
H1094 C1091 0.950 . S
C1095 C1086 1.390 . S
C1095 H1088 0.950 . S
C1095 C1092 1.387 . S
C1096 C1097 1.387 . S
C1096 H1100 0.950 . S
C1096 C1105 1.390 . S
C1097 C1096 1.387 . S
C1097 C1099 1.387 . S
H1098 C1105 0.950 . S
C1099 C1097 1.387 . S
C1099 C1101 1.390 . S
C1099 H1103 0.950 . S
H1100 C1096 0.950 . S
C1101 C1099 1.390 . S
C1101 C1102 1.387 . S
C1101 H1104 0.950 . S
C1102 C1101 1.387 . S
C1102 C1105 1.387 . S
H1103 C1099 0.950 . S
H1104 C1101 0.950 . S
C1105 C1096 1.390 . S
C1105 H1098 0.950 . S
C1105 C1102 1.387 . S
C1106 C1107 1.387 . S
C1106 H1110 0.950 1_554 S
C1106 C1115 1.390 . S
C1107 C1106 1.387 . S
C1107 C1109 1.387 . S
H1108 C1115 0.950 . S
C1109 C1107 1.387 . S
C1109 C1111 1.390 . S
C1109 H1113 0.950 . S
H1110 C1106 0.950 1_556 S
C1111 C1109 1.390 . S
C1111 C1112 1.387 . S
C1111 H1114 0.950 . S
C1112 C1111 1.387 . S
C1112 C1115 1.387 . S
H1113 C1109 0.950 . S
H1114 C1111 0.950 . S
C1115 C1106 1.390 . S
C1115 H1108 0.950 . S
C1115 C1112 1.387 . S
C1116 C1117 1.387 . S
C1116 H1120 0.950 . S
C1116 C1125 1.390 . S
C1117 C1116 1.387 . S
C1117 C1119 1.387 . S
H1118 C1125 0.950 . S
C1119 C1117 1.387 . S
C1119 C1121 1.390 . S
C1119 H1123 0.950 . S
H1120 C1116 0.950 . S
C1121 C1119 1.390 . S
C1121 C1122 1.387 . S
C1121 H1124 0.950 . S
C1122 C1121 1.387 . S
C1122 C1125 1.387 . S
H1123 C1119 0.950 . S
H1124 C1121 0.950 . S
C1125 C1116 1.390 . S
C1125 H1118 0.950 . S
C1125 C1122 1.387 . S
C1126 C1127 1.387 . S
C1126 H1130 0.950 . S
C1126 C1135 1.390 . S
C1127 C1126 1.387 . S
C1127 C1129 1.387 . S
H1128 C1135 0.950 . S
C1129 C1127 1.387 . S
C1129 C1131 1.390 . S
C1129 H1133 0.950 . S
H1130 C1126 0.950 . S
C1131 C1129 1.390 . S
C1131 C1132 1.387 . S
C1131 H1134 0.950 . S
C1132 C1131 1.387 . S
C1132 C1135 1.387 . S
H1133 C1129 0.950 . S
H1134 C1131 0.950 . S
C1135 C1126 1.390 . S
C1135 H1128 0.950 . S
C1135 C1132 1.387 . S
C1136 C1137 1.387 . S
C1136 H1140 0.950 . S
C1136 C1145 1.390 . S
C1137 C1136 1.387 . S
C1137 C1139 1.387 . S
H1138 C1145 0.950 . S
C1139 C1137 1.387 . S
C1139 C1141 1.390 . S
C1139 H1143 0.950 . S
H1140 C1136 0.950 . S
C1141 C1139 1.390 . S
C1141 C1142 1.387 . S
C1141 H1144 0.950 . S
C1142 C1141 1.387 . S
C1142 C1145 1.387 . S
H1143 C1139 0.950 . S
H1144 C1141 0.950 . S
C1145 C1136 1.390 . S
C1145 H1138 0.950 . S
C1145 C1142 1.387 . S
C1146 C1147 1.387 . S
C1146 H1150 0.950 . S
C1146 C1155 1.390 . S
C1147 C1146 1.387 . S
C1147 C1149 1.387 . S
H1148 C1155 0.950 . S
C1149 C1147 1.387 . S
C1149 C1151 1.390 . S
C1149 H1153 0.950 . S
H1150 C1146 0.950 . S
C1151 C1149 1.390 . S
C1151 C1152 1.387 . S
C1151 H1154 0.950 . S
C1152 C1151 1.387 . S
C1152 C1155 1.387 . S
H1153 C1149 0.950 . S
H1154 C1151 0.950 . S
C1155 C1146 1.390 . S
C1155 H1148 0.950 . S
C1155 C1152 1.387 . S
C1156 C1157 1.387 . S
C1156 H1160 0.950 . S
C1156 C1165 1.390 . S
C1157 C1156 1.387 . S
C1157 C1159 1.387 . S
H1158 C1165 0.950 . S
C1159 C1157 1.387 . S
C1159 C1161 1.390 . S
C1159 H1163 0.950 . S
H1160 C1156 0.950 . S
C1161 C1159 1.390 . S
C1161 C1162 1.387 . S
C1161 H1164 0.950 . S
C1162 C1161 1.387 . S
C1162 C1165 1.387 . S
H1163 C1159 0.950 . S
H1164 C1161 0.950 . S
C1165 C1156 1.390 . S
C1165 H1158 0.950 . S
C1165 C1162 1.387 . S
C1166 C1167 1.387 . S
C1166 H1170 0.950 . S
C1166 C1175 1.390 . S
C1167 C1166 1.387 . S
C1167 C1169 1.387 . S
H1168 C1175 0.950 . S
C1169 C1167 1.387 . S
C1169 C1171 1.390 . S
C1169 H1173 0.950 . S
H1170 C1166 0.950 . S
C1171 C1169 1.390 . S
C1171 C1172 1.387 . S
C1171 H1174 0.950 . S
C1172 C1171 1.387 . S
C1172 C1175 1.387 . S
H1173 C1169 0.950 . S
H1174 C1171 0.950 . S
C1175 C1166 1.390 . S
C1175 H1168 0.950 . S
C1175 C1172 1.387 . S
C1176 C1177 1.387 . S
C1176 H1180 0.950 . S
C1176 C1185 1.390 . S
C1177 C1176 1.387 . S
C1177 C1179 1.387 . S
H1178 C1185 0.950 . S
C1179 C1177 1.387 . S
C1179 C1181 1.390 . S
C1179 H1183 0.950 . S
H1180 C1176 0.950 . S
C1181 C1179 1.390 . S
C1181 C1182 1.387 . S
C1181 H1184 0.950 . S
C1182 C1181 1.387 . S
C1182 C1185 1.387 . S
H1183 C1179 0.950 . S
H1184 C1181 0.950 . S
C1185 C1176 1.390 . S
C1185 H1178 0.950 . S
C1185 C1182 1.387 . S
C1186 C1187 1.387 . S
C1186 H1190 0.950 . S
C1186 C1195 1.390 . S
C1187 C1186 1.387 . S
C1187 C1189 1.387 . S
H1188 C1195 0.950 . S
C1189 C1187 1.387 . S
C1189 C1191 1.390 . S
C1189 H1193 0.950 . S
H1190 C1186 0.950 . S
C1191 C1189 1.390 . S
C1191 C1192 1.387 . S
C1191 H1194 0.950 . S
C1192 C1191 1.387 . S
C1192 C1195 1.387 . S
H1193 C1189 0.950 . S
H1194 C1191 0.950 . S
C1195 C1186 1.390 . S
C1195 H1188 0.950 . S
C1195 C1192 1.387 . S
C1196 C1197 1.387 . S
C1196 H1200 0.950 . S
C1196 C1205 1.390 . S
C1197 C1196 1.387 . S
C1197 C1199 1.387 . S
H1198 C1205 0.950 . S
C1199 C1197 1.387 . S
C1199 C1201 1.390 . S
C1199 H1203 0.950 . S
H1200 C1196 0.950 . S
C1201 C1199 1.390 . S
C1201 C1202 1.387 . S
C1201 H1204 0.950 . S
C1202 C1201 1.387 . S
C1202 C1205 1.387 . S
H1203 C1199 0.950 . S
H1204 C1201 0.950 . S
C1205 C1196 1.390 . S
C1205 H1198 0.950 . S
C1205 C1202 1.387 . S
C1206 C1207 1.387 . S
C1206 H1210 0.950 . S
C1206 C1215 1.390 . S
C1207 C1206 1.387 . S
C1207 C1209 1.387 . S
H1208 C1215 0.950 . S
C1209 C1207 1.387 . S
C1209 C1211 1.390 . S
C1209 H1213 0.950 . S
H1210 C1206 0.950 . S
C1211 C1209 1.390 . S
C1211 C1212 1.387 . S
C1211 H1214 0.950 . S
C1212 C1211 1.387 . S
C1212 C1215 1.387 . S
H1213 C1209 0.950 . S
H1214 C1211 0.950 . S
C1215 C1206 1.390 . S
C1215 H1208 0.950 . S
C1215 C1212 1.387 . S
C1216 C1217 1.387 . S
C1216 H1220 0.950 . S
C1216 C1225 1.390 . S
C1217 C1216 1.387 . S
C1217 C1219 1.387 . S
H1218 C1225 0.950 . S
C1219 C1217 1.387 . S
C1219 C1221 1.390 . S
C1219 H1223 0.950 . S
H1220 C1216 0.950 . S
C1221 C1219 1.390 . S
C1221 C1222 1.387 . S
C1221 H1224 0.950 . S
C1222 C1221 1.387 . S
C1222 C1225 1.387 . S
H1223 C1219 0.950 . S
H1224 C1221 0.950 . S
C1225 C1216 1.390 . S
C1225 H1218 0.950 . S
C1225 C1222 1.387 . S
C1226 C1227 1.387 . S
C1226 H1230 0.950 . S
C1226 C1235 1.390 . S
C1227 C1226 1.387 . S
C1227 C1229 1.387 . S
H1228 C1235 0.950 . S
C1229 C1227 1.387 . S
C1229 C1231 1.390 . S
C1229 H1233 0.950 . S
H1230 C1226 0.950 . S
C1231 C1229 1.390 . S
C1231 C1232 1.387 . S
C1231 H1234 0.950 . S
C1232 C1231 1.387 . S
C1232 C1235 1.387 . S
H1233 C1229 0.950 . S
H1234 C1231 0.950 . S
C1235 C1226 1.390 . S
C1235 H1228 0.950 . S
C1235 C1232 1.387 . S
C1236 C1237 1.387 . S
C1236 H1240 0.950 . S
C1236 C1245 1.390 . S
C1237 C1236 1.387 . S
C1237 C1239 1.387 . S
H1238 C1245 0.950 . S
C1239 C1237 1.387 . S
C1239 C1241 1.390 . S
C1239 H1243 0.950 . S
H1240 C1236 0.950 . S
C1241 C1239 1.390 . S
C1241 C1242 1.387 . S
C1241 H1244 0.950 . S
C1242 C1241 1.387 . S
C1242 C1245 1.387 . S
H1243 C1239 0.950 . S
H1244 C1241 0.950 . S
C1245 C1236 1.390 . S
C1245 H1238 0.950 . S
C1245 C1242 1.387 . S
C1246 C1247 1.387 . S
C1246 H1250 0.950 . S
C1246 C1255 1.390 . S
C1247 C1246 1.387 . S
C1247 C1249 1.387 . S
H1248 C1255 0.950 . S
C1249 C1247 1.387 . S
C1249 C1251 1.390 . S
C1249 H1253 0.950 . S
H1250 C1246 0.950 . S
C1251 C1249 1.390 . S
C1251 C1252 1.387 . S
C1251 H1254 0.950 . S
C1252 C1251 1.387 . S
C1252 C1255 1.387 . S
H1253 C1249 0.950 . S
H1254 C1251 0.950 . S
C1255 C1246 1.390 . S
C1255 H1248 0.950 . S
C1255 C1252 1.387 . S
C1256 C1257 1.387 . S
C1256 H1260 0.950 . S
C1256 C1265 1.390 . S
C1257 C1256 1.387 . S
C1257 C1259 1.387 . S
H1258 C1265 0.950 . S
C1259 C1257 1.387 . S
C1259 C1261 1.390 . S
C1259 H1263 0.950 . S
H1260 C1256 0.950 . S
C1261 C1259 1.390 . S
C1261 C1262 1.387 . S
C1261 H1264 0.950 . S
C1262 C1261 1.387 . S
C1262 C1265 1.387 . S
H1263 C1259 0.950 . S
H1264 C1261 0.950 . S
C1265 C1256 1.390 . S
C1265 H1258 0.950 . S
C1265 C1262 1.387 . S
C1266 C1267 1.387 . S
C1266 H1270 0.950 . S
C1266 C1275 1.390 . S
C1267 C1266 1.387 . S
C1267 C1269 1.387 . S
H1268 C1275 0.950 . S
C1269 C1267 1.387 . S
C1269 C1271 1.390 . S
C1269 H1273 0.950 . S
H1270 C1266 0.950 . S
C1271 C1269 1.390 . S
C1271 C1272 1.387 . S
C1271 H1274 0.950 . S
C1272 C1271 1.387 . S
C1272 C1275 1.387 . S
H1273 C1269 0.950 . S
H1274 C1271 0.950 . S
C1275 C1266 1.390 . S
C1275 H1268 0.950 . S
C1275 C1272 1.387 . S
C1276 C1277 1.387 . S
C1276 H1280 0.950 . S
C1276 C1285 1.390 . S
C1277 C1276 1.387 . S
C1277 C1279 1.387 . S
H1278 C1285 0.950 . S
C1279 C1277 1.387 . S
C1279 C1281 1.390 . S
C1279 H1283 0.950 . S
H1280 C1276 0.950 . S
C1281 C1279 1.390 . S
C1281 C1282 1.387 . S
C1281 H1284 0.950 . S
C1282 C1281 1.387 . S
C1282 C1285 1.387 . S
H1283 C1279 0.950 . S
H1284 C1281 0.950 . S
C1285 C1276 1.390 . S
C1285 H1278 0.950 . S
C1285 C1282 1.387 . S
C1286 C1287 1.387 . S
C1286 H1290 0.950 . S
C1286 C1295 1.390 . S
C1287 C1286 1.387 . S
C1287 C1289 1.387 . S
H1288 C1295 0.950 . S
C1289 C1287 1.387 . S
C1289 C1291 1.390 . S
C1289 H1293 0.950 . S
H1290 C1286 0.950 . S
C1291 C1289 1.390 . S
C1291 C1292 1.387 . S
C1291 H1294 0.950 . S
C1292 C1291 1.387 . S
C1292 C1295 1.387 . S
H1293 C1289 0.950 . S
H1294 C1291 0.950 . S
C1295 C1286 1.390 . S
C1295 H1288 0.950 . S
C1295 C1292 1.387 . S
C1296 C1297 1.387 . S
C1296 H1300 0.950 . S
C1296 C1305 1.390 . S
C1297 C1296 1.387 . S
C1297 C1299 1.387 . S
H1298 C1305 0.950 . S
C1299 C1297 1.387 . S
C1299 C1301 1.390 . S
C1299 H1303 0.950 . S
H1300 C1296 0.950 . S
C1301 C1299 1.390 . S
C1301 C1302 1.387 . S
C1301 H1304 0.950 . S
C1302 C1301 1.387 . S
C1302 C1305 1.387 . S
H1303 C1299 0.950 . S
H1304 C1301 0.950 . S
C1305 C1296 1.390 . S
C1305 H1298 0.950 . S
C1305 C1302 1.387 . S
C1306 C1307 1.387 . S
C1306 H1310 0.950 . S
C1306 C1315 1.390 . S
C1307 C1306 1.387 . S
C1307 C1309 1.387 . S
H1308 C1315 0.950 . S
C1309 C1307 1.387 . S
C1309 C1311 1.390 . S
C1309 H1313 0.950 . S
H1310 C1306 0.950 . S
C1311 C1309 1.390 . S
C1311 C1312 1.387 . S
C1311 H1314 0.950 . S
C1312 C1311 1.387 . S
C1312 C1315 1.387 . S
H1313 C1309 0.950 . S
H1314 C1311 0.950 . S
C1315 C1306 1.390 . S
C1315 H1308 0.950 . S
C1315 C1312 1.387 . S
C1316 C1317 1.387 . S
C1316 H1320 0.950 . S
C1316 C1325 1.390 . S
C1317 C1316 1.387 . S
C1317 C1319 1.387 . S
H1318 C1325 0.950 . S
C1319 C1317 1.387 . S
C1319 C1321 1.390 . S
C1319 H1323 0.950 . S
H1320 C1316 0.950 . S
C1321 C1319 1.390 . S
C1321 C1322 1.387 . S
C1321 H1324 0.950 . S
C1322 C1321 1.387 . S
C1322 C1325 1.387 . S
H1323 C1319 0.950 . S
H1324 C1321 0.950 . S
C1325 C1316 1.390 . S
C1325 H1318 0.950 . S
C1325 C1322 1.387 . S
C1326 C1327 1.387 . S
C1326 H1330 0.950 . S
C1326 C1335 1.390 . S
C1327 C1326 1.387 . S
C1327 C1329 1.387 . S
H1328 C1335 0.950 . S
C1329 C1327 1.387 . S
C1329 C1331 1.390 . S
C1329 H1333 0.950 . S
H1330 C1326 0.950 . S
C1331 C1329 1.390 . S
C1331 C1332 1.387 . S
C1331 H1334 0.950 . S
C1332 C1331 1.387 . S
C1332 C1335 1.387 . S
H1333 C1329 0.950 . S
H1334 C1331 0.950 . S
C1335 C1326 1.390 . S
C1335 H1328 0.950 . S
C1335 C1332 1.387 . S
C1336 C1337 1.387 . S
C1336 H1340 0.950 . S
C1336 C1345 1.390 . S
C1337 C1336 1.387 . S
C1337 C1339 1.387 . S
H1338 C1345 0.950 . S
C1339 C1337 1.387 . S
C1339 C1341 1.390 . S
C1339 H1343 0.950 . S
H1340 C1336 0.950 . S
C1341 C1339 1.390 . S
C1341 C1342 1.387 . S
C1341 H1344 0.950 . S
C1342 C1341 1.387 . S
C1342 C1345 1.387 . S
H1343 C1339 0.950 . S
H1344 C1341 0.950 . S
C1345 C1336 1.390 . S
C1345 H1338 0.950 . S
C1345 C1342 1.387 . S
C1346 C1347 1.387 . S
C1346 H1350 0.950 . S
C1346 C1355 1.390 . S
C1347 C1346 1.387 . S
C1347 C1349 1.387 . S
H1348 C1355 0.950 . S
C1349 C1347 1.387 . S
C1349 C1351 1.390 . S
C1349 H1353 0.950 . S
H1350 C1346 0.950 . S
C1351 C1349 1.390 . S
C1351 C1352 1.387 . S
C1351 H1354 0.950 . S
C1352 C1351 1.387 . S
C1352 C1355 1.387 . S
H1353 C1349 0.950 . S
H1354 C1351 0.950 . S
C1355 C1346 1.390 . S
C1355 H1348 0.950 . S
C1355 C1352 1.387 . S
C1356 C1357 1.387 . S
C1356 H1360 0.950 . S
C1356 C1365 1.390 . S
C1357 C1356 1.387 . S
C1357 C1359 1.387 . S
H1358 C1365 0.950 . S
C1359 C1357 1.387 . S
C1359 C1361 1.390 . S
C1359 H1363 0.950 . S
H1360 C1356 0.950 . S
C1361 C1359 1.390 . S
C1361 C1362 1.387 . S
C1361 H1364 0.950 . S
C1362 C1361 1.387 . S
C1362 C1365 1.387 . S
H1363 C1359 0.950 . S
H1364 C1361 0.950 . S
C1365 C1356 1.390 . S
C1365 H1358 0.950 . S
C1365 C1362 1.387 . S
C1366 C1367 1.387 . S
C1366 H1370 0.950 . S
C1366 C1375 1.390 . S
C1367 C1366 1.387 . S
C1367 C1369 1.387 . S
H1368 C1375 0.950 . S
C1369 C1367 1.387 . S
C1369 C1371 1.390 . S
C1369 H1373 0.950 . S
H1370 C1366 0.950 . S
C1371 C1369 1.390 . S
C1371 C1372 1.387 . S
C1371 H1374 0.950 . S
C1372 C1371 1.387 . S
C1372 C1375 1.387 . S
H1373 C1369 0.950 . S
H1374 C1371 0.950 . S
C1375 C1366 1.390 . S
C1375 H1368 0.950 . S
C1375 C1372 1.387 . S
C1376 C1377 1.387 . S
C1376 H1380 0.950 . S
C1376 C1385 1.390 . S
C1377 C1376 1.387 . S
C1377 C1379 1.387 . S
H1378 C1385 0.950 . S
C1379 C1377 1.387 . S
C1379 C1381 1.390 . S
C1379 H1383 0.950 . S
H1380 C1376 0.950 . S
C1381 C1379 1.390 . S
C1381 C1382 1.387 . S
C1381 H1384 0.950 . S
C1382 C1381 1.387 . S
C1382 C1385 1.387 . S
H1383 C1379 0.950 . S
H1384 C1381 0.950 . S
C1385 C1376 1.390 . S
C1385 H1378 0.950 . S
C1385 C1382 1.387 . S
C1386 C1387 1.387 . S
C1386 H1390 0.950 . S
C1386 C1395 1.390 1_565 S
C1387 C1386 1.387 . S
C1387 C1389 1.387 . S
H1388 C1395 0.950 . S
C1389 C1387 1.387 . S
C1389 C1391 1.390 1_565 S
C1389 H1393 0.950 . S
H1390 C1386 0.950 . S
C1391 C1389 1.390 1_545 S
C1391 C1392 1.387 . S
C1391 H1394 0.950 . S
C1392 C1391 1.387 . S
C1392 C1395 1.387 . S
H1393 C1389 0.950 . S
H1394 C1391 0.950 . S
C1395 C1386 1.390 1_545 S
C1395 H1388 0.950 . S
C1395 C1392 1.387 . S
C1396 C1397 1.387 . S
C1396 H1400 0.950 . S
C1396 C1405 1.390 . S
C1397 C1396 1.387 . S
C1397 C1399 1.387 . S
H1398 C1405 0.950 . S
C1399 C1397 1.387 . S
C1399 C1401 1.390 . S
C1399 H1403 0.950 . S
H1400 C1396 0.950 . S
C1401 C1399 1.390 . S
C1401 C1402 1.387 . S
C1401 H1404 0.950 . S
C1402 C1401 1.387 . S
C1402 C1405 1.387 . S
H1403 C1399 0.950 . S
H1404 C1401 0.950 . S
C1405 C1396 1.390 . S
C1405 H1398 0.950 . S
C1405 C1402 1.387 . S
C1406 C1407 1.387 . S
C1406 H1410 0.950 . S
C1406 C1415 1.390 1_546 S
C1407 C1406 1.387 . S
C1407 C1409 1.387 . S
H1408 C1415 0.950 . S
C1409 C1407 1.387 . S
C1409 C1411 1.390 1_546 S
C1409 H1413 0.950 . S
H1410 C1406 0.950 . S
C1411 C1409 1.390 1_564 S
C1411 C1412 1.387 . S
C1411 H1414 0.950 . S
C1412 C1411 1.387 . S
C1412 C1415 1.387 . S
H1413 C1409 0.950 . S
H1414 C1411 0.950 . S
C1415 C1406 1.390 1_564 S
C1415 H1408 0.950 . S
C1415 C1412 1.387 . S
C1416 C1417 1.387 . S
C1416 H1420 0.950 . S
C1416 C1425 1.390 . S
C1417 C1416 1.387 . S
C1417 C1419 1.387 . S
H1418 C1425 0.950 . S
C1419 C1417 1.387 . S
C1419 C1421 1.390 . S
C1419 H1423 0.950 . S
H1420 C1416 0.950 . S
C1421 C1419 1.390 . S
C1421 C1422 1.387 . S
C1421 H1424 0.950 . S
C1422 C1421 1.387 . S
C1422 C1425 1.387 . S
H1423 C1419 0.950 . S
H1424 C1421 0.950 . S
C1425 C1416 1.390 . S
C1425 H1418 0.950 . S
C1425 C1422 1.387 . S
C1426 C1427 1.387 . S
C1426 H1430 0.950 . S
C1426 C1435 1.390 1_565 S
C1427 C1426 1.387 . S
C1427 C1429 1.387 . S
H1428 C1435 0.950 . S
C1429 C1427 1.387 . S
C1429 C1431 1.390 1_565 S
C1429 H1433 0.950 . S
H1430 C1426 0.950 . S
C1431 C1429 1.390 1_545 S
C1431 C1432 1.387 . S
C1431 H1434 0.950 . S
C1432 C1431 1.387 . S
C1432 C1435 1.387 . S
H1433 C1429 0.950 . S
H1434 C1431 0.950 . S
C1435 C1426 1.390 1_545 S
C1435 H1428 0.950 . S
C1435 C1432 1.387 . S
C1436 C1437 1.387 . S
C1436 H1440 0.950 . S
C1436 C1445 1.390 . S
C1437 C1436 1.387 . S
C1437 C1439 1.387 . S
H1438 C1445 0.950 . S
C1439 C1437 1.387 . S
C1439 C1441 1.390 . S
C1439 H1443 0.950 . S
H1440 C1436 0.950 . S
C1441 C1439 1.390 . S
C1441 C1442 1.387 . S
C1441 H1444 0.950 . S
C1442 C1441 1.387 . S
C1442 C1445 1.387 . S
H1443 C1439 0.950 . S
H1444 C1441 0.950 . S
C1445 C1436 1.390 . S
C1445 H1438 0.950 . S
C1445 C1442 1.387 . S
C1446 C1447 1.387 . S
C1446 H1450 0.950 . S
C1446 C1455 1.390 1_546 S
C1447 C1446 1.387 . S
C1447 C1449 1.387 . S
H1448 C1455 0.950 . S
C1449 C1447 1.387 . S
C1449 C1451 1.390 1_546 S
C1449 H1453 0.950 . S
H1450 C1446 0.950 . S
C1451 C1449 1.390 1_564 S
C1451 C1452 1.387 . S
C1451 H1454 0.950 . S
C1452 C1451 1.387 . S
C1452 C1455 1.387 . S
H1453 C1449 0.950 . S
H1454 C1451 0.950 . S
C1455 C1446 1.390 1_564 S
C1455 H1448 0.950 . S
C1455 C1452 1.387 . S
C1456 C1457 1.387 . S
C1456 H1460 0.950 . S
C1456 C1465 1.390 . S
C1457 C1456 1.387 . S
C1457 C1459 1.387 . S
H1458 C1465 0.950 . S
C1459 C1457 1.387 . S
C1459 C1461 1.390 . S
C1459 H1463 0.950 . S
H1460 C1456 0.950 . S
C1461 C1459 1.390 . S
C1461 C1462 1.387 . S
C1461 H1464 0.950 . S
C1462 C1461 1.387 . S
C1462 C1465 1.387 . S
H1463 C1459 0.950 . S
H1464 C1461 0.950 . S
C1465 C1456 1.390 . S
C1465 H1458 0.950 . S
C1465 C1462 1.387 . S
C1466 C1467 1.387 . S
C1466 H1470 0.950 . S
C1466 C1475 1.390 1_554 S
C1467 C1466 1.387 . S
C1467 C1469 1.387 . S
H1468 C1475 0.950 . S
C1469 C1467 1.387 . S
C1469 C1471 1.390 1_554 S
C1469 H1473 0.950 . S
H1470 C1466 0.950 . S
C1471 C1469 1.390 1_556 S
C1471 C1472 1.387 . S
C1471 H1474 0.950 . S
C1472 C1471 1.387 . S
C1472 C1475 1.387 . S
H1473 C1469 0.950 . S
H1474 C1471 0.950 . S
C1475 C1466 1.390 1_556 S
C1475 H1468 0.950 . S
C1475 C1472 1.387 . S
C1476 C1477 1.387 . S
C1476 H1480 0.950 . S
C1476 C1485 1.390 . S
C1477 C1476 1.387 . S
C1477 C1479 1.387 . S
H1478 C1485 0.950 . S
C1479 C1477 1.387 . S
C1479 C1481 1.390 . S
C1479 H1483 0.950 . S
H1480 C1476 0.950 . S
C1481 C1479 1.390 . S
C1481 C1482 1.387 . S
C1481 H1484 0.950 . S
C1482 C1481 1.387 . S
C1482 C1485 1.387 . S
H1483 C1479 0.950 . S
H1484 C1481 0.950 . S
C1485 C1476 1.390 . S
C1485 H1478 0.950 . S
C1485 C1482 1.387 . S
C1486 C1487 1.387 . S
C1486 H1490 0.950 . S
C1486 C1495 1.390 . S
C1487 C1486 1.387 . S
C1487 C1489 1.387 . S
H1488 C1495 0.950 . S
C1489 C1487 1.387 . S
C1489 C1491 1.390 . S
C1489 H1493 0.950 . S
H1490 C1486 0.950 . S
C1491 C1489 1.390 . S
C1491 C1492 1.387 . S
C1491 H1494 0.950 . S
C1492 C1491 1.387 . S
C1492 C1495 1.387 . S
H1493 C1489 0.950 . S
H1494 C1491 0.950 . S
C1495 C1486 1.390 . S
C1495 H1488 0.950 . S
C1495 C1492 1.387 . S
C1496 C1497 1.387 . S
C1496 H1500 0.950 . S
C1496 C1505 1.390 . S
C1497 C1496 1.387 . S
C1497 C1499 1.387 . S
H1498 C1505 0.950 . S
C1499 C1497 1.387 . S
C1499 C1501 1.390 . S
C1499 H1503 0.950 . S
H1500 C1496 0.950 . S
C1501 C1499 1.390 . S
C1501 C1502 1.387 . S
C1501 H1504 0.950 . S
C1502 C1501 1.387 . S
C1502 C1505 1.387 . S
H1503 C1499 0.950 . S
H1504 C1501 0.950 . S
C1505 C1496 1.390 . S
C1505 H1498 0.950 . S
C1505 C1502 1.387 . S
C1506 C1507 1.387 . S
C1506 H1510 0.950 . S
C1506 C1515 1.390 1_556 S
C1507 C1506 1.387 . S
C1507 C1509 1.387 . S
H1508 C1515 0.950 . S
C1509 C1507 1.387 . S
C1509 C1511 1.390 1_556 S
C1509 H1513 0.950 . S
H1510 C1506 0.950 . S
C1511 C1509 1.390 1_554 S
C1511 C1512 1.387 . S
C1511 H1514 0.950 . S
C1512 C1511 1.387 . S
C1512 C1515 1.387 . S
H1513 C1509 0.950 . S
H1514 C1511 0.950 . S
C1515 C1506 1.390 1_554 S
C1515 H1508 0.950 . S
C1515 C1512 1.387 . S
C1516 C1517 1.387 . S
C1516 H1520 0.950 . S
C1516 C1525 1.390 . S
C1517 C1516 1.387 . S
C1517 C1519 1.387 . S
H1518 C1525 0.950 . S
C1519 C1517 1.387 . S
C1519 C1521 1.390 . S
C1519 H1523 0.950 . S
H1520 C1516 0.950 . S
C1521 C1519 1.390 . S
C1521 C1522 1.387 . S
C1521 H1524 0.950 . S
C1522 C1521 1.387 . S
C1522 C1525 1.387 . S
H1523 C1519 0.950 . S
H1524 C1521 0.950 . S
C1525 C1516 1.390 . S
C1525 H1518 0.950 . S
C1525 C1522 1.387 . S
C1526 C1527 1.387 . S
C1526 H1530 0.950 . S
C1526 C1535 1.390 . S
C1527 C1526 1.387 . S
C1527 C1529 1.387 . S
H1528 C1535 0.950 . S
C1529 C1527 1.387 . S
C1529 C1531 1.390 . S
C1529 H1533 0.950 . S
H1530 C1526 0.950 . S
C1531 C1529 1.390 . S
C1531 C1532 1.387 . S
C1531 H1534 0.950 . S
C1532 C1531 1.387 . S
C1532 C1535 1.387 . S
H1533 C1529 0.950 . S
H1534 C1531 0.950 . S
C1535 C1526 1.390 . S
C1535 H1528 0.950 . S
C1535 C1532 1.387 . S
C1536 C1537 1.387 . S
C1536 H1540 0.950 . S
C1536 C1545 1.390 . S
C1537 C1536 1.387 . S
C1537 C1539 1.387 . S
H1538 C1545 0.950 . S
C1539 C1537 1.387 . S
C1539 C1541 1.390 . S
C1539 H1543 0.950 . S
H1540 C1536 0.950 . S
C1541 C1539 1.390 . S
C1541 C1542 1.387 . S
C1541 H1544 0.950 . S
C1542 C1541 1.387 . S
C1542 C1545 1.387 . S
H1543 C1539 0.950 . S
H1544 C1541 0.950 . S
C1545 C1536 1.390 . S
C1545 H1538 0.950 . S
C1545 C1542 1.387 . S
C1546 C1547 1.387 . S
C1546 H1550 0.950 . S
C1546 C1555 1.390 . S
C1547 C1546 1.387 . S
C1547 C1549 1.387 . S
H1548 C1555 0.950 . S
C1549 C1547 1.387 . S
C1549 C1551 1.390 . S
C1549 H1553 0.950 . S
H1550 C1546 0.950 . S
C1551 C1549 1.390 . S
C1551 C1552 1.387 . S
C1551 H1554 0.950 . S
C1552 C1551 1.387 . S
C1552 C1555 1.387 . S
H1553 C1549 0.950 . S
H1554 C1551 0.950 . S
C1555 C1546 1.390 . S
C1555 H1548 0.950 . S
C1555 C1552 1.387 . S
C1556 C1557 1.387 . S
C1556 H1560 0.950 . S
C1556 C1565 1.390 . S
C1557 C1556 1.387 . S
C1557 C1559 1.387 . S
H1558 C1565 0.950 . S
C1559 C1557 1.387 . S
C1559 C1561 1.390 . S
C1559 H1563 0.950 . S
H1560 C1556 0.950 . S
C1561 C1559 1.390 . S
C1561 C1562 1.387 . S
C1561 H1564 0.950 . S
C1562 C1561 1.387 . S
C1562 C1565 1.387 . S
H1563 C1559 0.950 . S
H1564 C1561 0.950 . S
C1565 C1556 1.390 . S
C1565 H1558 0.950 . S
C1565 C1562 1.387 . S
C1566 C1567 1.387 . S
C1566 H1570 0.950 . S
C1566 C1575 1.390 . S
C1567 C1566 1.387 . S
C1567 C1569 1.387 . S
H1568 C1575 0.950 . S
C1569 C1567 1.387 . S
C1569 C1571 1.390 . S
C1569 H1573 0.950 . S
H1570 C1566 0.950 . S
C1571 C1569 1.390 . S
C1571 C1572 1.387 . S
C1571 H1574 0.950 . S
C1572 C1571 1.387 . S
C1572 C1575 1.387 . S
H1573 C1569 0.950 . S
H1574 C1571 0.950 . S
C1575 C1566 1.390 . S
C1575 H1568 0.950 . S
C1575 C1572 1.387 . S
C1576 C1577 1.387 . S
C1576 H1580 0.950 . S
C1576 C1585 1.390 . S
C1577 C1576 1.387 . S
C1577 C1579 1.387 . S
H1578 C1585 0.950 . S
C1579 C1577 1.387 . S
C1579 C1581 1.390 . S
C1579 H1583 0.950 . S
H1580 C1576 0.950 . S
C1581 C1579 1.390 . S
C1581 C1582 1.387 . S
C1581 H1584 0.950 . S
C1582 C1581 1.387 . S
C1582 C1585 1.387 . S
H1583 C1579 0.950 . S
H1584 C1581 0.950 . S
C1585 C1576 1.390 . S
C1585 H1578 0.950 . S
C1585 C1582 1.387 . S
C1586 C1587 1.387 . S
C1586 H1590 0.950 . S
C1586 C1595 1.390 . S
C1587 C1586 1.387 . S
C1587 C1589 1.387 . S
H1588 C1595 0.950 . S
C1589 C1587 1.387 . S
C1589 C1591 1.390 . S
C1589 H1593 0.950 . S
H1590 C1586 0.950 . S
C1591 C1589 1.390 . S
C1591 C1592 1.387 . S
C1591 H1594 0.950 . S
C1592 C1591 1.387 . S
C1592 C1595 1.387 . S
H1593 C1589 0.950 . S
H1594 C1591 0.950 . S
C1595 C1586 1.390 . S
C1595 H1588 0.950 . S
C1595 C1592 1.387 . S
C1596 C1597 1.387 . S
C1596 H1600 0.950 . S
C1596 C1605 1.390 . S
C1597 C1596 1.387 . S
C1597 C1599 1.387 . S
H1598 C1605 0.950 . S
C1599 C1597 1.387 . S
C1599 C1601 1.390 . S
C1599 H1603 0.950 . S
H1600 C1596 0.950 . S
C1601 C1599 1.390 . S
C1601 C1602 1.387 . S
C1601 H1604 0.950 . S
C1602 C1601 1.387 . S
C1602 C1605 1.387 . S
H1603 C1599 0.950 . S
H1604 C1601 0.950 . S
C1605 C1596 1.390 . S
C1605 H1598 0.950 . S
C1605 C1602 1.387 . S
C1606 C1607 1.387 . S
C1606 H1610 0.950 . S
C1606 C1615 1.390 . S
C1607 C1606 1.387 . S
C1607 C1609 1.387 . S
H1608 C1615 0.950 . S
C1609 C1607 1.387 . S
C1609 C1611 1.390 . S
C1609 H1613 0.950 . S
H1610 C1606 0.950 . S
C1611 C1609 1.390 . S
C1611 C1612 1.387 . S
C1611 H1614 0.950 . S
C1612 C1611 1.387 . S
C1612 C1615 1.387 . S
H1613 C1609 0.950 . S
H1614 C1611 0.950 . S
C1615 C1606 1.390 . S
C1615 H1608 0.950 . S
C1615 C1612 1.387 . S
C1616 C1617 1.387 . S
C1616 H1620 0.950 . S
C1616 C1625 1.390 . S
C1617 C1616 1.387 . S
C1617 C1619 1.387 . S
H1618 C1625 0.950 . S
C1619 C1617 1.387 . S
C1619 C1621 1.390 . S
C1619 H1623 0.950 . S
H1620 C1616 0.950 . S
C1621 C1619 1.390 . S
C1621 C1622 1.387 . S
C1621 H1624 0.950 . S
C1622 C1621 1.387 . S
C1622 C1625 1.387 . S
H1623 C1619 0.950 . S
H1624 C1621 0.950 . S
C1625 C1616 1.390 . S
C1625 H1618 0.950 . S
C1625 C1622 1.387 . S
C1626 C1627 1.387 . S
C1626 H1630 0.950 . S
C1626 C1635 1.390 . S
C1627 C1626 1.387 . S
C1627 C1629 1.387 . S
H1628 C1635 0.950 . S
C1629 C1627 1.387 . S
C1629 C1631 1.390 . S
C1629 H1633 0.950 . S
H1630 C1626 0.950 . S
C1631 C1629 1.390 . S
C1631 C1632 1.387 . S
C1631 H1634 0.950 . S
C1632 C1631 1.387 . S
C1632 C1635 1.387 . S
H1633 C1629 0.950 . S
H1634 C1631 0.950 . S
C1635 C1626 1.390 . S
C1635 H1628 0.950 . S
C1635 C1632 1.387 . S
C1636 C1637 1.387 . S
C1636 H1640 0.950 . S
C1636 C1645 1.390 . S
C1637 C1636 1.387 . S
C1637 C1639 1.387 . S
H1638 C1645 0.950 . S
C1639 C1637 1.387 . S
C1639 C1641 1.390 . S
C1639 H1643 0.950 . S
H1640 C1636 0.950 . S
C1641 C1639 1.390 . S
C1641 C1642 1.387 . S
C1641 H1644 0.950 . S
C1642 C1641 1.387 . S
C1642 C1645 1.387 . S
H1643 C1639 0.950 . S
H1644 C1641 0.950 . S
C1645 C1636 1.390 . S
C1645 H1638 0.950 . S
C1645 C1642 1.387 . S
C1646 C1647 1.387 . S
C1646 H1650 0.950 . S
C1646 C1655 1.390 . S
C1647 C1646 1.387 . S
C1647 C1649 1.387 . S
H1648 C1655 0.950 . S
C1649 C1647 1.387 . S
C1649 C1651 1.390 . S
C1649 H1653 0.950 . S
H1650 C1646 0.950 . S
C1651 C1649 1.390 . S
C1651 C1652 1.387 . S
C1651 H1654 0.950 . S
C1652 C1651 1.387 . S
C1652 C1655 1.387 . S
H1653 C1649 0.950 . S
H1654 C1651 0.950 . S
C1655 C1646 1.390 . S
C1655 H1648 0.950 . S
C1655 C1652 1.387 . S
C1656 C1657 1.387 . S
C1656 H1660 0.950 . S
C1656 C1665 1.390 . S
C1657 C1656 1.387 . S
C1657 C1659 1.387 . S
H1658 C1665 0.950 . S
C1659 C1657 1.387 . S
C1659 C1661 1.390 . S
C1659 H1663 0.950 . S
H1660 C1656 0.950 . S
C1661 C1659 1.390 . S
C1661 C1662 1.387 . S
C1661 H1664 0.950 . S
C1662 C1661 1.387 . S
C1662 C1665 1.387 . S
H1663 C1659 0.950 . S
H1664 C1661 0.950 . S
C1665 C1656 1.390 . S
C1665 H1658 0.950 . S
C1665 C1662 1.387 . S
C1666 C1667 1.387 . S
C1666 H1670 0.950 . S
C1666 C1675 1.390 . S
C1667 C1666 1.387 . S
C1667 C1669 1.387 . S
H1668 C1675 0.950 . S
C1669 C1667 1.387 . S
C1669 C1671 1.390 . S
C1669 H1673 0.950 . S
H1670 C1666 0.950 . S
C1671 C1669 1.390 . S
C1671 C1672 1.387 . S
C1671 H1674 0.950 . S
C1672 C1671 1.387 . S
C1672 C1675 1.387 . S
H1673 C1669 0.950 . S
H1674 C1671 0.950 . S
C1675 C1666 1.390 . S
C1675 H1668 0.950 . S
C1675 C1672 1.387 . S
C1676 C1677 1.387 . S
C1676 H1680 0.950 . S
C1676 C1685 1.390 . S
C1677 C1676 1.387 . S
C1677 C1679 1.387 . S
H1678 C1685 0.950 . S
C1679 C1677 1.387 . S
C1679 C1681 1.390 . S
C1679 H1683 0.950 . S
H1680 C1676 0.950 . S
C1681 C1679 1.390 . S
C1681 C1682 1.387 . S
C1681 H1684 0.950 . S
C1682 C1681 1.387 . S
C1682 C1685 1.387 . S
H1683 C1679 0.950 . S
H1684 C1681 0.950 . S
C1685 C1676 1.390 . S
C1685 H1678 0.950 . S
C1685 C1682 1.387 . S
C1686 C1687 1.387 . S
C1686 H1690 0.950 . S
C1686 C1695 1.390 . S
C1687 C1686 1.387 . S
C1687 C1689 1.387 . S
H1688 C1695 0.950 . S
C1689 C1687 1.387 . S
C1689 C1691 1.390 . S
C1689 H1693 0.950 . S
H1690 C1686 0.950 . S
C1691 C1689 1.390 . S
C1691 C1692 1.387 . S
C1691 H1694 0.950 . S
C1692 C1691 1.387 . S
C1692 C1695 1.387 . S
H1693 C1689 0.950 . S
H1694 C1691 0.950 . S
C1695 C1686 1.390 . S
C1695 H1688 0.950 . S
C1695 C1692 1.387 . S
C1696 C1697 1.387 . S
C1696 H1700 0.950 . S
C1696 C1705 1.390 . S
C1697 C1696 1.387 . S
C1697 C1699 1.387 . S
H1698 C1705 0.950 . S
C1699 C1697 1.387 . S
C1699 C1701 1.390 . S
C1699 H1703 0.950 1_554 S
H1700 C1696 0.950 . S
C1701 C1699 1.390 . S
C1701 C1702 1.387 . S
C1701 H1704 0.950 1_554 S
C1702 C1701 1.387 . S
C1702 C1705 1.387 . S
H1703 C1699 0.950 1_556 S
H1704 C1701 0.950 1_556 S
C1705 C1696 1.390 . S
C1705 H1698 0.950 . S
C1705 C1702 1.387 . S
C1706 C1707 1.387 . S
C1706 H1710 0.950 . S
C1706 C1715 1.390 1_655 S
C1707 C1706 1.387 . S
C1707 C1709 1.387 . S
H1708 C1715 0.950 . S
C1709 C1707 1.387 . S
C1709 C1711 1.390 1_655 S
C1709 H1713 0.950 . S
H1710 C1706 0.950 . S
C1711 C1709 1.390 1_455 S
C1711 C1712 1.387 . S
C1711 H1714 0.950 . S
C1712 C1711 1.387 . S
C1712 C1715 1.387 . S
H1713 C1709 0.950 . S
H1714 C1711 0.950 . S
C1715 C1706 1.390 1_455 S
C1715 H1708 0.950 . S
C1715 C1712 1.387 . S
C1716 C1717 1.387 . S
C1716 H1720 0.950 . S
C1716 C1725 1.390 . S
C1717 C1716 1.387 . S
C1717 C1719 1.387 . S
H1718 C1725 0.950 . S
C1719 C1717 1.387 . S
C1719 C1721 1.390 . S
C1719 H1723 0.950 . S
H1720 C1716 0.950 . S
C1721 C1719 1.390 . S
C1721 C1722 1.387 . S
C1721 H1724 0.950 . S
C1722 C1721 1.387 . S
C1722 C1725 1.387 . S
H1723 C1719 0.950 . S
H1724 C1721 0.950 . S
C1725 C1716 1.390 . S
C1725 H1718 0.950 . S
C1725 C1722 1.387 . S
C1726 C1727 1.387 . S
C1726 H1730 0.950 . S
C1726 C1735 1.390 . S
C1727 C1726 1.387 . S
C1727 C1729 1.387 . S
H1728 C1735 0.950 . S
C1729 C1727 1.387 . S
C1729 C1731 1.390 . S
C1729 H1733 0.950 . S
H1730 C1726 0.950 . S
C1731 C1729 1.390 . S
C1731 C1732 1.387 . S
C1731 H1734 0.950 . S
C1732 C1731 1.387 . S
C1732 C1735 1.387 . S
H1733 C1729 0.950 . S
H1734 C1731 0.950 . S
C1735 C1726 1.390 . S
C1735 H1728 0.950 . S
C1735 C1732 1.387 . S
C1736 C1737 1.387 . S
C1736 H1740 0.950 . S
C1736 C1745 1.390 . S
C1737 C1736 1.387 . S
C1737 C1739 1.387 . S
H1738 C1745 0.950 . S
C1739 C1737 1.387 . S
C1739 C1741 1.390 . S
C1739 H1743 0.950 1_556 S
H1740 C1736 0.950 . S
C1741 C1739 1.390 . S
C1741 C1742 1.387 . S
C1741 H1744 0.950 1_556 S
C1742 C1741 1.387 . S
C1742 C1745 1.387 . S
H1743 C1739 0.950 1_554 S
H1744 C1741 0.950 1_554 S
C1745 C1736 1.390 . S
C1745 H1738 0.950 . S
C1745 C1742 1.387 . S
C1746 C1747 1.387 . S
C1746 H1750 0.950 . S
C1746 C1755 1.390 . S
C1747 C1746 1.387 . S
C1747 C1749 1.387 . S
H1748 C1755 0.950 . S
C1749 C1747 1.387 . S
C1749 C1751 1.390 . S
C1749 H1753 0.950 . S
H1750 C1746 0.950 . S
C1751 C1749 1.390 . S
C1751 C1752 1.387 . S
C1751 H1754 0.950 . S
C1752 C1751 1.387 . S
C1752 C1755 1.387 . S
H1753 C1749 0.950 . S
H1754 C1751 0.950 . S
C1755 C1746 1.390 . S
C1755 H1748 0.950 . S
C1755 C1752 1.387 . S
C1756 C1757 1.387 . S
C1756 H1760 0.950 . S
C1756 C1765 1.390 . S
C1757 C1756 1.387 . S
C1757 C1759 1.387 . S
H1758 C1765 0.950 . S
C1759 C1757 1.387 . S
C1759 C1761 1.390 . S
C1759 H1763 0.950 . S
H1760 C1756 0.950 . S
C1761 C1759 1.390 . S
C1761 C1762 1.387 . S
C1761 H1764 0.950 . S
C1762 C1761 1.387 . S
C1762 C1765 1.387 . S
H1763 C1759 0.950 . S
H1764 C1761 0.950 . S
C1765 C1756 1.390 . S
C1765 H1758 0.950 . S
C1765 C1762 1.387 . S
C1766 C1767 1.387 . S
C1766 H1770 0.950 . S
C1766 C1775 1.390 1_455 S
C1767 C1766 1.387 . S
C1767 C1769 1.387 . S
H1768 C1775 0.950 . S
C1769 C1767 1.387 . S
C1769 C1771 1.390 1_455 S
C1769 H1773 0.950 . S
H1770 C1766 0.950 . S
C1771 C1769 1.390 1_655 S
C1771 C1772 1.387 . S
C1771 H1774 0.950 . S
C1772 C1771 1.387 . S
C1772 C1775 1.387 . S
H1773 C1769 0.950 . S
H1774 C1771 0.950 . S
C1775 C1766 1.390 1_655 S
C1775 H1768 0.950 . S
C1775 C1772 1.387 . S
C1776 C1777 1.387 . S
C1776 H1780 0.950 . S
C1776 C1785 1.390 . S
C1777 C1776 1.387 . S
C1777 C1779 1.387 . S
H1778 C1785 0.950 . S
C1779 C1777 1.387 . S
C1779 C1781 1.390 . S
C1779 H1783 0.950 1_556 S
H1780 C1776 0.950 . S
C1781 C1779 1.390 . S
C1781 C1782 1.387 . S
C1781 H1784 0.950 1_556 S
C1782 C1781 1.387 . S
C1782 C1785 1.387 . S
H1783 C1779 0.950 1_554 S
H1784 C1781 0.950 1_554 S
C1785 C1776 1.390 . S
C1785 H1778 0.950 . S
C1785 C1782 1.387 . S
C1786 C1787 1.387 . S
C1786 H1790 0.950 . S
C1786 C1795 1.390 . S
C1787 C1786 1.387 . S
C1787 C1789 1.387 . S
H1788 C1795 0.950 . S
C1789 C1787 1.387 . S
C1789 C1791 1.390 . S
C1789 H1793 0.950 . S
H1790 C1786 0.950 . S
C1791 C1789 1.390 . S
C1791 C1792 1.387 . S
C1791 H1794 0.950 . S
C1792 C1791 1.387 . S
C1792 C1795 1.387 . S
H1793 C1789 0.950 . S
H1794 C1791 0.950 . S
C1795 C1786 1.390 . S
C1795 H1788 0.950 . S
C1795 C1792 1.387 . S
C1796 C1797 1.387 . S
C1796 H1800 0.950 . S
C1796 C1805 1.390 . S
C1797 C1796 1.387 . S
C1797 C1799 1.387 . S
H1798 C1805 0.950 . S
C1799 C1797 1.387 . S
C1799 C1801 1.390 . S
C1799 H1803 0.950 1_554 S
H1800 C1796 0.950 . S
C1801 C1799 1.390 . S
C1801 C1802 1.387 . S
C1801 H1804 0.950 1_554 S
C1802 C1801 1.387 . S
C1802 C1805 1.387 . S
H1803 C1799 0.950 1_556 S
H1804 C1801 0.950 1_556 S
C1805 C1796 1.390 . S
C1805 H1798 0.950 . S
C1805 C1802 1.387 . S
C1806 C1807 1.387 . S
C1806 H1810 0.950 . S
C1806 C1815 1.390 . S
C1807 C1806 1.387 . S
C1807 C1809 1.387 . S
H1808 C1815 0.950 . S
C1809 C1807 1.387 . S
C1809 C1811 1.390 . S
C1809 H1813 0.950 . S
H1810 C1806 0.950 . S
C1811 C1809 1.390 . S
C1811 C1812 1.387 . S
C1811 H1814 0.950 . S
C1812 C1811 1.387 . S
C1812 C1815 1.387 . S
H1813 C1809 0.950 . S
H1814 C1811 0.950 . S
C1815 C1806 1.390 . S
C1815 H1808 0.950 . S
C1815 C1812 1.387 . S
C1816 C1817 1.387 . S
C1816 H1820 0.950 . S
C1816 C1825 1.390 . S
C1817 C1816 1.387 . S
C1817 C1819 1.387 . S
H1818 C1825 0.950 . S
C1819 C1817 1.387 . S
C1819 C1821 1.390 . S
C1819 H1823 0.950 . S
H1820 C1816 0.950 . S
C1821 C1819 1.390 . S
C1821 C1822 1.387 . S
C1821 H1824 0.950 . S
C1822 C1821 1.387 . S
C1822 C1825 1.387 . S
H1823 C1819 0.950 . S
H1824 C1821 0.950 . S
C1825 C1816 1.390 . S
C1825 H1818 0.950 . S
C1825 C1822 1.387 . S
C1826 C1827 1.387 . S
C1826 H1830 0.950 . S
C1826 C1835 1.390 1_455 S
C1827 C1826 1.387 . S
C1827 C1829 1.387 . S
H1828 C1835 0.950 . S
C1829 C1827 1.387 . S
C1829 C1831 1.390 1_455 S
C1829 H1833 0.950 . S
H1830 C1826 0.950 . S
C1831 C1829 1.390 1_655 S
C1831 C1832 1.387 . S
C1831 H1834 0.950 . S
C1832 C1831 1.387 . S
C1832 C1835 1.387 . S
H1833 C1829 0.950 . S
H1834 C1831 0.950 . S
C1835 C1826 1.390 1_655 S
C1835 H1828 0.950 . S
C1835 C1832 1.387 . S
C1836 C1837 1.387 . S
C1836 H1840 0.950 . S
C1836 C1845 1.390 1_455 S
C1837 C1836 1.387 . S
C1837 C1839 1.387 . S
H1838 C1845 0.950 . S
C1839 C1837 1.387 . S
C1839 C1841 1.390 1_455 S
C1839 H1843 0.950 . S
H1840 C1836 0.950 . S
C1841 C1839 1.390 1_655 S
C1841 C1842 1.387 . S
C1841 H1844 0.950 . S
C1842 C1841 1.387 . S
C1842 C1845 1.387 . S
H1843 C1839 0.950 . S
H1844 C1841 0.950 . S
C1845 C1836 1.390 1_655 S
C1845 H1838 0.950 . S
C1845 C1842 1.387 . S
C1846 C1847 1.387 . S
C1846 H1850 0.950 . S
C1846 C1855 1.390 . S
C1847 C1846 1.387 . S
C1847 C1849 1.387 . S
H1848 C1855 0.950 . S
C1849 C1847 1.387 . S
C1849 C1851 1.390 . S
C1849 H1853 0.950 . S
H1850 C1846 0.950 . S
C1851 C1849 1.390 . S
C1851 C1852 1.387 . S
C1851 H1854 0.950 . S
C1852 C1851 1.387 . S
C1852 C1855 1.387 . S
H1853 C1849 0.950 . S
H1854 C1851 0.950 . S
C1855 C1846 1.390 . S
C1855 H1848 0.950 . S
C1855 C1852 1.387 . S
C1057 C40 2.036 1_545 S
C1062 C18 2.022 . S
C1067 C51 2.022 . S
C1072 C73 2.035 . S
C1077 C84 2.022 . S
C1082 C106 2.035 1_565 S
C1087 C117 2.022 . S
C1092 C7 2.036 1_556 S
C1097 C150 2.021 . S
C1102 C238 2.035 1_565 S
C1107 C139 2.035 1_554 S
C1112 C183 2.021 . S
C1117 C216 2.021 . S
C1122 C172 2.035 1_545 S
C1127 C249 2.022 . S
C1132 C205 2.035 . S
C1137 C304 2.035 1_565 S
C1142 C282 2.021 . S
C1147 C337 2.035 . S
C1152 C315 2.022 . S
C1157 C348 2.021 . S
C1162 C370 2.035 1_545 S
C1167 C271 2.034 1_554 S
C1172 C381 2.021 . S
C1177 C414 2.021 . S
C1182 C502 2.035 1_545 S
C1187 C447 2.022 . S
C1192 C403 2.036 1_556 S
C1197 C436 2.034 1_565 S
C1202 C480 2.021 . S
C1207 C469 2.035 . S
C1212 C513 2.022 . S
C1217 C568 2.035 . S
C1222 C546 2.021 . S
C1227 C579 2.021 . S
C1232 C601 2.034 1_556 S
C1237 C634 2.036 . S
C1242 C612 2.022 . S
C1247 C535 2.035 . S
C1252 C645 2.021 . S
C1257 C766 2.035 . S
C1262 C678 2.022 . S
C1267 C711 2.022 . S
C1272 C667 2.035 . S
C1277 C700 2.035 . S
C1282 C744 2.021 . S
C1287 C777 2.021 . S
C1292 C733 2.034 1_554 S
C1297 C832 2.036 . S
C1302 C810 2.022 . S
C1307 C843 2.021 . S
C1312 C865 2.035 1_554 S
C1317 C876 2.022 . S
C1322 C898 2.035 . S
C1327 C909 2.022 . S
C1332 C799 2.035 . S
C1337 C1030 2.034 . S
C1342 C942 2.021 . S
C1347 C931 2.035 . S
C1352 C975 2.022 . S
C1357 C964 2.034 . S
C1362 C1008 2.021 . S
C1367 C997 2.036 1_556 S
C1372 C1041 2.022 . S
C1377 N211 0.996 . S
C1382 N13 0.996 . S
C1387 N46 0.996 . S
C1392 N244 0.996 . S
C1397 N79 0.996 . S
C1402 N145 0.996 . S
C1407 N112 0.996 . S
C1412 N178 0.996 . S
C1417 N475 0.996 . S
C1422 N277 0.996 . S
C1427 N508 0.996 . S
C1432 N310 0.996 . S
C1437 N343 0.996 . S
C1442 N409 0.996 . S
C1447 N442 0.996 . S
C1452 N376 0.996 . S
C1457 N541 0.996 . S
C1462 N739 0.996 . S
C1467 N772 0.996 . S
C1472 N574 0.996 . S
C1477 N673 0.996 . S
C1482 N607 0.996 . S
C1487 N706 0.996 . S
C1492 N640 0.996 . S
C1497 N1003 0.996 . S
C1502 N805 0.996 . S
C1507 N1036 0.996 . S
C1512 N838 0.996 . S
C1517 N937 0.996 . S
C1522 N871 0.996 . S
C1527 N970 0.996 . S
C1532 N904 0.996 . S
C1537 N2 0.987 . S
C1542 N233 0.988 . S
C1547 N35 0.988 . S
C1552 N134 0.988 . S
C1557 N167 0.986 . S
C1562 N68 0.987 . S
C1567 N101 0.987 . S
C1572 N200 0.986 . S
C1577 N266 0.987 . S
C1582 N497 0.986 . S
C1587 N398 0.988 . S
C1592 N299 0.988 . S
C1597 N332 0.987 . S
C1602 N431 0.986 . S
C1607 N365 0.986 . S
C1612 N464 0.987 . S
C1617 N761 0.988 . S
C1622 N530 0.987 . S
C1627 N662 0.987 . S
C1632 N563 0.986 . S
C1637 N596 0.987 . S
C1642 N695 0.986 . S
C1647 N629 0.987 . S
C1652 N728 0.986 . S
C1657 N794 0.987 . S
C1662 N1025 0.986 . S
C1667 N926 0.987 . S
C1672 N827 0.988 . S
C1677 N860 0.987 . S
C1682 N959 0.988 . S
C1687 N893 0.988 . S
C1692 N992 0.987 . S
C1697 C21 1.356 . S
C1702 C1011 1.354 . S
C1707 C516 1.356 . S
C1712 C54 1.355 . S
C1717 C945 1.355 . S
C1722 C87 1.354 . S
C1727 C120 1.355 . S
C1732 C450 1.357 . S
C1737 C153 1.356 . S
C1742 C879 1.354 . S
C1747 C384 1.355 . S
C1752 C186 1.357 . S
C1757 C219 1.354 . S
C1762 C813 1.355 . S
C1767 C252 1.356 . S
C1772 C318 1.355 . S
C1777 C285 1.354 . S
C1782 C747 1.356 . S
C1787 C351 1.354 . S
C1792 C681 1.355 . S
C1797 C417 1.354 . S
C1802 C615 1.356 . S
C1807 C483 1.355 . S
C1812 C549 1.354 . S
C1817 C582 1.357 . S
C1822 C1044 1.355 . S
C1827 C978 1.355 . S
C1832 C648 1.356 . S
C1837 C912 1.356 . S
C1842 C714 1.355 . S
C1847 C846 1.357 . S
C1852 C780 1.355 . S
