# Generated by pormake.
# Topology snk, (6)-cn, num edge types: 1
# Building blocks:
#     Node 0, Type 0, BuildingBlock: MIFKUJ_clean_sbu_0, # of connection points: 6
#     Node 1, Type 0, BuildingBlock: MIFKUJ_clean_sbu_0, # of connection points: 6
#     Node 2, Type 0, BuildingBlock: MIFKUJ_clean_sbu_0, # of connection points: 6
#     Node 3, Type 0, BuildingBlock: MIFKUJ_clean_sbu_0, # of connection points: 6
#     Node 4, Type 0, BuildingBlock: MIFKUJ_clean_sbu_0, # of connection points: 6
#     Node 5, Type 0, BuildingBlock: MIFKUJ_clean_sbu_0, # of connection points: 6
#     Node 6, Type 0, BuildingBlock: MIFKUJ_clean_sbu_0, # of connection points: 6
#     Node 7, Type 0, BuildingBlock: MIFKUJ_clean_sbu_0, # of connection points: 6
#     Edge 8, Type (0, 0), BuildingBlock: XIVTED_clean_linker_0, # of connection points: 2
#     Edge 9, Type (0, 0), BuildingBlock: XIVTED_clean_linker_0, # of connection points: 2
#     Edge 10, Type (0, 0), BuildingBlock: XIVTED_clean_linker_0, # of connection points: 2
#     Edge 11, Type (0, 0), BuildingBlock: XIVTED_clean_linker_0, # of connection points: 2
#     Edge 12, Type (0, 0), BuildingBlock: XIVTED_clean_linker_0, # of connection points: 2
#     Edge 13, Type (0, 0), BuildingBlock: XIVTED_clean_linker_0, # of connection points: 2
#     Edge 14, Type (0, 0), BuildingBlock: XIVTED_clean_linker_0, # of connection points: 2
#     Edge 15, Type (0, 0), BuildingBlock: XIVTED_clean_linker_0, # of connection points: 2
#     Edge 16, Type (0, 0), BuildingBlock: XIVTED_clean_linker_0, # of connection points: 2
#     Edge 17, Type (0, 0), BuildingBlock: XIVTED_clean_linker_0, # of connection points: 2
#     Edge 18, Type (0, 0), BuildingBlock: XIVTED_clean_linker_0, # of connection points: 2
#     Edge 19, Type (0, 0), BuildingBlock: XIVTED_clean_linker_0, # of connection points: 2
#     Edge 20, Type (0, 0), BuildingBlock: XIVTED_clean_linker_0, # of connection points: 2
#     Edge 21, Type (0, 0), BuildingBlock: XIVTED_clean_linker_0, # of connection points: 2
#     Edge 22, Type (0, 0), BuildingBlock: XIVTED_clean_linker_0, # of connection points: 2
#     Edge 23, Type (0, 0), BuildingBlock: XIVTED_clean_linker_0, # of connection points: 2
#     Edge 24, Type (0, 0), BuildingBlock: XIVTED_clean_linker_0, # of connection points: 2
#     Edge 25, Type (0, 0), BuildingBlock: XIVTED_clean_linker_0, # of connection points: 2
#     Edge 26, Type (0, 0), BuildingBlock: XIVTED_clean_linker_0, # of connection points: 2
#     Edge 27, Type (0, 0), BuildingBlock: XIVTED_clean_linker_0, # of connection points: 2
#     Edge 28, Type (0, 0), BuildingBlock: XIVTED_clean_linker_0, # of connection points: 2
#     Edge 29, Type (0, 0), BuildingBlock: XIVTED_clean_linker_0, # of connection points: 2
#     Edge 30, Type (0, 0), BuildingBlock: XIVTED_clean_linker_0, # of connection points: 2
#     Edge 31, Type (0, 0), BuildingBlock: XIVTED_clean_linker_0, # of connection points: 2
# Relax obj value: 0.034
# Max RMSD: 0.069
# Mean RMSD: 0.067
data_MOF--net-snk--node1-MIFKUJ_clean_sbu_0--edge1-XIVTED_clean_linker_0
_symmetry_space_group_name_H-M    P1
_symmetry_Int_Tables_number       1
_symmetry_cell_setting            triclinic
loop_
_symmetry_equiv_pos_as_xyz
'x, y, z'
_cell_length_a     42.146848
_cell_length_b     42.119412
_cell_length_c     18.612508
_cell_angle_alpha  97.682731
_cell_angle_beta   82.3833
_cell_angle_gamma 90.335912
loop_
_atom_site_label
_atom_site_type_symbol
_atom_site_fract_x
_atom_site_fract_y
_atom_site_fract_z
_atom_type_partial_charge
Zn0 Zn 1.00232 1.00546 0.41829 0.0
Zn1 Zn 0.013 0.01558 0.58913 0.0
C2 C 0.94062 0.0308 0.41894 0.0
O3 O 0.93645 1.00036 0.3961 0.0
C4 C 0.0723 0.98606 0.58803 0.0
O5 O 0.07784 0.01611 0.61183 0.0
O6 O 1.00505 0.9936 0.30858 0.0
O7 O 0.04485 0.02602 0.43325 0.0
O8 O 0.03269 0.05318 0.54347 0.0
C9 C 0.01012 0.01765 0.27394 0.0
O10 O 0.01412 0.04583 0.3112 0.0
O11 O 0.96755 0.03958 0.43803 0.0
C12 C 1.00172 1.00187 0.73341 0.0
O13 O 0.99567 0.97432 0.69585 0.0
O14 O 0.00918 0.02563 0.69914 0.0
O15 O 0.96928 1.00068 0.56814 0.0
O16 O 0.98668 0.96741 0.46987 0.0
O17 O 0.04506 0.97887 0.56849 0.0
C18 C 0.04951 0.04956 0.48088 0.0
C19 C 0.96712 0.97409 0.52811 0.0
Zn20 Zn 0.24933 0.7532 0.83807 0.0
Zn21 Zn 0.25967 0.76295 0.6679 0.0
C22 C 0.27768 0.69331 0.83725 0.0
O23 O 0.24745 0.68826 0.86001 0.0
C24 C 0.23341 0.82421 0.6674 0.0
O25 O 0.26368 0.82861 0.64372 0.0
O26 O 0.23865 0.75702 0.94782 0.0
O27 O 0.26504 0.79687 0.81787 0.0
O28 O 0.29772 0.77906 0.71897 0.0
C29 C 0.26221 0.76401 0.98306 0.0
O30 O 0.29007 0.7697 0.94651 0.0
O31 O 0.28557 0.72054 0.81846 0.0
C32 C 0.24797 0.75496 0.52285 0.0
O33 O 0.21967 0.75066 0.55907 0.0
O34 O 0.27171 0.76019 0.55843 0.0
O35 O 0.23965 0.72022 0.68304 0.0
O36 O 0.21168 0.73393 0.79162 0.0
O37 O 0.22511 0.79732 0.68745 0.0
C38 C 0.29136 0.79891 0.7769 0.0
C39 C 0.21568 0.71626 0.73003 0.0
Zn40 Zn 0.50948 1.00468 0.08014 0.0
Zn41 Zn 0.50129 0.00857 0.91424 0.0
C42 C 0.56919 0.03722 0.08614 0.0
O43 O 0.57903 0.00779 0.08739 0.0
C44 C 0.44 0.97773 0.91214 0.0
O45 O 0.43059 0.00704 0.9081 0.0
O46 O 0.50595 0.995 0.18365 0.0
O47 O 0.46536 0.01963 0.06693 0.0
O48 O 0.48524 0.0485 0.9823 0.0
C49 C 0.49917 0.01833 0.23417 0.0
O50 O 0.4936 0.04672 0.21627 0.0
O51 O 0.54004 0.04214 0.07941 0.0
C52 C 0.50766 0.99503 0.76084 0.0
O53 O 0.51284 0.96651 0.77852 0.0
O54 O 0.50249 0.0186 0.81138 0.0
O55 O 0.54486 0.99036 0.9191 0.0
O56 O 0.53026 0.9659 0.01556 0.0
O57 O 0.46904 0.97267 0.91956 0.0
C58 C 0.46446 0.04474 0.03638 0.0
C59 C 0.54854 0.96776 0.95621 0.0
Zn60 Zn 0.2541 0.25725 0.16875 0.0
Zn61 Zn 0.26165 0.2562 0.33404 0.0
C62 C 0.28627 0.31397 0.13382 0.0
O63 O 0.26052 0.31593 0.10179 0.0
C64 C 0.22981 0.19951 0.36915 0.0
O65 O 0.25592 0.19747 0.39985 0.0
O66 O 0.24478 0.25171 0.06322 0.0
O67 O 0.27249 0.21505 0.18588 0.0
O68 O 0.3013 0.23786 0.26843 0.0
C69 C 0.26839 0.24542 0.01306 0.0
O70 O 0.29671 0.24038 0.03192 0.0
O71 O 0.28891 0.291 0.1708 0.0
C72 C 0.24735 0.26808 0.48968 0.0
O73 O 0.21901 0.27301 0.47075 0.0
O74 O 0.27099 0.26186 0.43955 0.0
O75 O 0.24335 0.29835 0.31662 0.0
O76 O 0.21439 0.27548 0.23447 0.0
O77 O 0.22679 0.22254 0.33257 0.0
C78 C 0.29753 0.21551 0.21728 0.0
C79 C 0.21822 0.29785 0.28554 0.0
Zn80 Zn 0.75156 0.2508 0.33033 0.0
Zn81 Zn 0.76111 0.25971 0.15954 0.0
C82 C 0.77836 0.18971 0.33169 0.0
O83 O 0.7483 0.18504 0.35682 0.0
C84 C 0.73222 0.31939 0.1603 0.0
O85 O 0.76223 0.32459 0.13579 0.0
O86 O 0.7401 0.25386 0.44017 0.0
O87 O 0.77186 0.29329 0.31359 0.0
O88 O 0.79913 0.27881 0.2045 0.0
C89 C 0.76405 0.25908 0.47507 0.0
O90 O 0.79221 0.26325 0.43812 0.0
O91 O 0.78609 0.2165 0.31036 0.0
C92 C 0.74728 0.24868 0.01497 0.0
O93 O 0.7196 0.24297 0.05225 0.0
O94 O 0.77106 0.25573 0.04949 0.0
O95 O 0.74553 0.21624 0.18108 0.0
O96 O 0.71324 0.23453 0.2803 0.0
O97 O 0.72485 0.29228 0.18035 0.0
C98 C 0.79576 0.29663 0.26589 0.0
C99 C 0.71928 0.21453 0.22251 0.0
Zn100 Zn 0.75852 0.76288 0.66169 0.0
Zn101 Zn 0.75834 0.75127 0.83177 0.0
C102 C 0.79078 0.82313 0.66278 0.0
O103 O 0.76164 0.83318 0.65936 0.0
C104 C 0.72471 0.69538 0.8671 0.0
O105 O 0.75032 0.69286 0.8993 0.0
O106 O 0.75047 0.76134 0.55788 0.0
O107 O 0.77398 0.71853 0.66972 0.0
O108 O 0.7979 0.73266 0.76716 0.0
C109 C 0.7743 0.75591 0.50828 0.0
O110 O 0.80257 0.75056 0.52704 0.0
O111 O 0.79531 0.79384 0.66892 0.0
C112 C 0.74568 0.76392 0.98519 0.0
O113 O 0.71726 0.76933 0.96732 0.0
O114 O 0.76873 0.75609 0.9347 0.0
O115 O 0.7408 0.79483 0.82279 0.0
O116 O 0.71821 0.78137 0.72328 0.0
O117 O 0.72271 0.71835 0.82975 0.0
C118 C 0.79629 0.71456 0.70743 0.0
C119 C 0.71893 0.79892 0.78403 0.0
Zn120 Zn 0.49868 0.50264 0.91536 0.0
Zn121 Zn 0.5104 0.50921 0.08587 0.0
C122 C 0.43833 0.53071 0.9155 0.0
O123 O 0.43332 0.50071 0.89026 0.0
C124 C 0.57126 0.48214 0.08447 0.0
O125 O 0.57596 0.51233 0.10864 0.0
O126 O 0.50186 0.49166 0.80636 0.0
O127 O 0.54195 0.5206 0.93188 0.0
O128 O 0.52732 0.54802 0.04038 0.0
C129 C 0.50724 0.5154 0.77102 0.0
O130 O 0.51128 0.54379 0.80728 0.0
O131 O 0.46526 0.53809 0.93649 0.0
C132 C 0.50218 0.49647 0.23014 0.0
O133 O 0.49831 0.46805 0.19382 0.0
O134 O 0.50732 0.52025 0.19485 0.0
O135 O 0.46725 0.49076 0.06985 0.0
O136 O 0.48129 0.4639 0.96041 0.0
O137 O 0.54425 0.47416 0.06472 0.0
C138 C 0.54525 0.54461 0.97925 0.0
C139 C 0.46365 0.46705 0.02191 0.0
Zn140 Zn 0.01053 0.50231 0.58268 0.0
Zn141 Zn 1.00498 0.5071 0.41486 0.0
C142 C 0.06801 0.53425 0.61416 0.0
O143 O 0.07027 0.50871 0.64675 0.0
C144 C 0.94961 0.47345 0.37772 0.0
O145 O 0.94743 0.49917 0.34573 0.0
O146 O 1.0065 0.49268 0.68702 0.0
O147 O 0.96812 0.52185 0.57282 0.0
O148 O 0.98461 0.54646 0.47746 0.0
C149 C 1.0003 0.51628 0.7372 0.0
O150 O 0.99511 0.54464 0.71863 0.0
O151 O 0.04476 0.53663 0.57784 0.0
C152 C 0.01886 0.49303 0.26011 0.0
O153 O 0.02454 0.46481 0.27883 0.0
O154 O 0.01116 0.51636 0.3102 0.0
O155 O 0.0479 0.49064 0.43279 0.0
O156 O 0.02626 0.46195 0.51624 0.0
O157 O 0.97236 0.47121 0.41556 0.0
C158 C 0.96546 0.54464 0.53557 0.0
C159 C 0.04787 0.46551 0.46362 0.0
H160 H 0.07538 0.06302 0.34576 0.0
H161 H 0.21862 0.16558 0.48425 0.0
H162 H 0.08246 0.08798 0.57556 0.0
H163 H 0.18024 0.18319 0.28931 0.0
H164 H 0.17393 0.12997 0.51174 0.0
H165 H 0.11865 0.10035 0.3173 0.0
C166 C 0.08602 0.07635 0.39023 0.0
C167 C 0.07526 0.07245 0.46322 0.0
C168 C 0.1753 0.14163 0.46298 0.0
C169 C 0.12504 0.11465 0.43079 0.0
C170 C 0.20089 0.16177 0.44689 0.0
C171 C 0.20318 0.17729 0.38422 0.0
C172 C 0.15213 0.13638 0.41531 0.0
C173 C 0.17933 0.17171 0.33821 0.0
C174 C 0.11058 0.0977 0.37389 0.0
C175 C 0.08989 0.09039 0.51862 0.0
N176 N 0.15488 0.15143 0.35431 0.0
N177 N 0.11428 0.11046 0.50122 0.0
H178 H 0.0636 0.92105 0.583 0.0
H179 H 0.24365 0.88649 0.64679 0.0
H180 H 0.13494 0.99426 0.60704 0.0
H181 H 0.16831 0.81738 0.67129 0.0
H182 H 0.20462 0.92528 0.62429 0.0
H183 H 0.10242 0.88134 0.60466 0.0
C184 C 0.08751 0.9287 0.59196 0.0
C185 C 0.09605 0.96103 0.59326 0.0
C186 C 0.19653 0.90171 0.63498 0.0
C187 C 0.14037 0.91587 0.61861 0.0
C188 C 0.21882 0.87955 0.648 0.0
C189 C 0.20923 0.84866 0.6611 0.0
C190 C 0.16436 0.89291 0.63425 0.0
C191 C 0.17671 0.84101 0.66191 0.0
C192 C 0.10955 0.90609 0.60492 0.0
C193 C 0.12727 0.96964 0.60577 0.0
N194 N 0.15545 0.86293 0.64815 0.0
N195 N 0.14824 0.94723 0.61793 0.0
H196 H 0.35543 0.80303 0.72648 0.0
H197 H 0.37463 0.97941 0.93009 0.0
H198 H 0.27874 0.85354 0.87326 0.0
H199 H 0.45524 0.91466 0.86285 0.0
H200 H 0.33863 0.93541 0.89848 0.0
H201 H 0.39215 0.84583 0.76347 0.0
C202 C 0.3463 0.82314 0.76619 0.0
C203 C 0.31396 0.8247 0.7968 0.0
C204 C 0.36419 0.93078 0.89114 0.0
C205 C 0.3557 0.87369 0.8389 0.0
C206 C 0.38474 0.95587 0.90913 0.0
C207 C 0.41796 0.95066 0.89932 0.0
C208 C 0.37695 0.90038 0.86164 0.0
C209 C 0.42975 0.91967 0.87184 0.0
C210 C 0.36728 0.84742 0.78758 0.0
C211 C 0.30347 0.85126 0.84837 0.0
N212 N 0.40929 0.89575 0.85321 0.0
N213 N 0.3242 0.87477 0.86738 0.0
H214 H 0.40369 0.03637 0.10229 0.0
H215 H 0.36202 0.22049 0.22088 0.0
H216 H 0.46865 0.10928 0.03318 0.0
H217 H 0.28952 0.15347 0.15859 0.0
H218 H 0.40304 0.17868 0.17663 0.0
H219 H 0.3626 0.07801 0.14759 0.0
C220 C 0.4093 0.06115 0.09696 0.0
C221 C 0.4395 0.06947 0.0638 0.0
C222 C 0.37812 0.17323 0.17288 0.0
C223 C 0.39306 0.11698 0.11657 0.0
C224 C 0.35475 0.19692 0.1984 0.0
C225 C 0.3224 0.19037 0.19314 0.0
C226 C 0.36893 0.1426 0.14384 0.0
C227 C 0.31425 0.15951 0.16317 0.0
C228 C 0.38588 0.08478 0.12246 0.0
C229 C 0.44556 0.10189 0.05794 0.0
N230 N 0.33735 0.13663 0.14021 0.0
N231 N 0.42263 0.12456 0.08477 0.0
H232 H 0.91311 0.98744 0.6256 0.0
H233 H 0.85361 0.80686 0.61378 0.0
H234 H 0.96265 0.90969 0.48011 0.0
H235 H 0.79018 0.88854 0.68095 0.0
H236 H 0.89736 0.84326 0.5817 0.0
H237 H 0.87116 0.95046 0.66263 0.0
C238 C 0.9152 0.96256 0.60141 0.0
C239 C 0.94141 0.95167 0.54939 0.0
C240 C 0.87388 0.85314 0.6038 0.0
C241 C 0.89352 0.9091 0.59243 0.0
C242 C 0.84899 0.83245 0.62272 0.0
C243 C 0.8182 0.84472 0.6501 0.0
C244 C 0.86805 0.88633 0.61354 0.0
C245 C 0.8135 0.87806 0.65982 0.0
C246 C 0.89118 0.94149 0.62254 0.0
C247 C 0.94276 0.91914 0.51998 0.0
N248 N 0.83815 0.89769 0.64178 0.0
N249 N 0.91922 0.89892 0.54222 0.0
H250 H 0.8781 0.01987 0.40133 0.0
H251 H 0.84342 0.19765 0.32272 0.0
H252 H 0.94705 0.09573 0.41898 0.0
H253 H 0.76956 0.12787 0.35819 0.0
H254 H 0.88298 0.15937 0.34687 0.0
H255 H 0.8389 0.05825 0.37744 0.0
C256 C 0.88492 0.04468 0.40078 0.0
C257 C 0.91588 0.05462 0.41229 0.0
C258 C 0.85812 0.15244 0.34912 0.0
C259 C 0.87121 0.09865 0.38377 0.0
C260 C 0.83557 0.17416 0.33472 0.0
C261 C 0.80312 0.16593 0.33843 0.0
C262 C 0.84818 0.12219 0.3667 0.0
C263 C 0.7943 0.13527 0.35488 0.0
C264 C 0.86253 0.06658 0.38699 0.0
C265 C 0.92338 0.08708 0.41088 0.0
N266 N 0.81667 0.11454 0.36836 0.0
N267 N 0.90126 0.10791 0.39629 0.0
H268 H 0.6553 0.21081 0.27488 0.0
H269 H 0.63445 0.03573 0.06576 0.0
H270 H 0.73092 0.16027 0.12469 0.0
H271 H 0.55393 0.10001 0.13968 0.0
H272 H 0.67059 0.0794 0.09798 0.0
H273 H 0.61799 0.16852 0.23801 0.0
C274 C 0.66408 0.1908 0.23446 0.0
C275 C 0.69629 0.18907 0.20288 0.0
C276 C 0.64503 0.08403 0.10672 0.0
C277 C 0.65388 0.1407 0.1609 0.0
C278 C 0.62438 0.05911 0.08838 0.0
C279 C 0.59115 0.06427 0.09985 0.0
C280 C 0.63238 0.11424 0.13816 0.0
C281 C 0.57943 0.09507 0.12941 0.0
C282 C 0.64276 0.16682 0.21315 0.0
C283 C 0.70631 0.16268 0.15041 0.0
N284 N 0.60002 0.11885 0.14828 0.0
N285 N 0.68527 0.13949 0.13148 0.0
H286 H 0.70288 0.82958 0.92321 0.0
H287 H 0.57981 0.95281 0.81727 0.0
H288 H 0.67909 0.82626 0.70381 0.0
H289 H 0.57561 0.92739 0.03539 0.0
H290 H 0.62164 0.91192 0.77473 0.0
H291 H 0.66162 0.87097 0.96535 0.0
C292 C 0.68905 0.8376 0.88384 0.0
C293 C 0.69435 0.82432 0.80988 0.0
C294 C 0.61152 0.91532 0.83186 0.0
C295 C 0.64737 0.87193 0.85774 0.0
C296 C 0.58777 0.93872 0.85627 0.0
C297 C 0.57416 0.94346 0.93 0.0
C298 C 0.62214 0.89691 0.88174 0.0
C299 C 0.58531 0.92441 0.97803 0.0
C300 C 0.66544 0.86113 0.90803 0.0
C301 C 0.67566 0.83567 0.76138 0.0
N302 N 0.60878 0.9021 0.95315 0.0
N303 N 0.65311 0.85896 0.78608 0.0
H304 H 0.5751 0.58474 0.0769 0.0
H305 H 0.67665 0.67882 0.78289 0.0
H306 H 0.57325 0.55785 0.84551 0.0
H307 H 0.71076 0.66287 0.98385 0.0
H308 H 0.63181 0.64259 0.80977 0.0
H309 H 0.61832 0.62225 0.04877 0.0
C310 C 0.58361 0.5869 0.02025 0.0
C311 C 0.57064 0.5681 0.96346 0.0
C312 C 0.64922 0.6471 0.84773 0.0
C313 C 0.61962 0.61118 0.93108 0.0
C314 C 0.67467 0.66776 0.83257 0.0
C315 C 0.69754 0.67364 0.88095 0.0
C316 C 0.64625 0.63301 0.91258 0.0
C317 C 0.69386 0.65874 0.94466 0.0
C318 C 0.60832 0.60816 0.00428 0.0
C319 C 0.58269 0.57177 0.89095 0.0
N320 N 0.66859 0.63934 0.95892 0.0
N321 N 0.60637 0.59305 0.87678 0.0
H322 H 0.66712 0.3113 0.16677 0.0
H323 H 0.63372 0.49177 0.10383 0.0
H324 H 0.74087 0.38194 0.14062 0.0
H325 H 0.56391 0.41702 0.08023 0.0
H326 H 0.6723 0.45232 0.12535 0.0
H327 H 0.62761 0.35049 0.14582 0.0
C328 C 0.67494 0.33513 0.15749 0.0
C329 C 0.70735 0.34337 0.1554 0.0
C330 C 0.64862 0.44444 0.11504 0.0
C331 C 0.66242 0.38811 0.13088 0.0
C332 C 0.62658 0.46697 0.1026 0.0
C333 C 0.59556 0.45768 0.09003 0.0
C334 C 0.63958 0.41233 0.11577 0.0
C335 C 0.58765 0.42519 0.08918 0.0
C336 C 0.65244 0.35738 0.14493 0.0
C337 C 0.71617 0.3745 0.1425 0.0
N338 N 0.60946 0.40369 0.1024 0.0
N339 N 0.69388 0.39568 0.13077 0.0
H340 H 0.93228 0.42552 0.46179 0.0
H341 H 0.83596 0.3263 0.16834 0.0
H342 H 0.91697 0.46011 0.26097 0.0
H343 H 0.80943 0.32436 0.39974 0.0
H344 H 0.87421 0.36881 0.1964 0.0
H345 H 0.89513 0.38144 0.43515 0.0
C346 C 0.92118 0.4238 0.41218 0.0
C347 C 0.92749 0.44659 0.36377 0.0
C348 C 0.86003 0.35896 0.24091 0.0
C349 C 0.88579 0.39618 0.33246 0.0
C350 C 0.83833 0.33467 0.22498 0.0
C351 C 0.81943 0.32185 0.28179 0.0
C352 C 0.86339 0.37002 0.31408 0.0
C353 C 0.82341 0.3337 0.35428 0.0
C354 C 0.89998 0.39878 0.39717 0.0
C355 C 0.91252 0.44326 0.30016 0.0
N356 N 0.84511 0.35698 0.36841 0.0
N357 N 0.89258 0.41841 0.28607 0.0
H358 H 0.81257 0.68471 0.56751 0.0
H359 H 0.93306 0.5592 0.67323 0.0
H360 H 0.83575 0.68664 0.78706 0.0
H361 H 0.94028 0.58633 0.45612 0.0
H362 H 0.89171 0.6005 0.71506 0.0
H363 H 0.85381 0.64322 0.52475 0.0
C364 C 0.82624 0.67632 0.60676 0.0
C365 C 0.82077 0.68917 0.68098 0.0
C366 C 0.90239 0.59741 0.65831 0.0
C367 C 0.86767 0.64159 0.63248 0.0
C368 C 0.92589 0.57377 0.63428 0.0
C369 C 0.9402 0.56937 0.56106 0.0
C370 C 0.89268 0.61642 0.60855 0.0
C371 C 0.93 0.58904 0.51311 0.0
C372 C 0.84985 0.65279 0.58223 0.0
C373 C 0.8393 0.67751 0.72934 0.0
N374 N 0.90669 0.6116 0.53758 0.0
N375 N 0.86178 0.65422 0.70433 0.0
H376 H 0.33449 0.33089 0.21721 0.0
H377 H 0.43317 0.42756 0.92431 0.0
H378 H 0.29889 0.34748 0.01833 0.0
H379 H 0.43651 0.45293 0.15559 0.0
H380 H 0.39029 0.38971 0.95247 0.0
H381 H 0.37865 0.36786 0.19043 0.0
C382 C 0.33599 0.34227 0.16803 0.0
C383 C 0.31291 0.33633 0.12018 0.0
C384 C 0.40053 0.40355 0.99692 0.0
C385 C 0.36344 0.37782 0.08865 0.0
C386 C 0.42505 0.42501 0.98093 0.0
C387 C 0.43835 0.44347 0.0377 0.0
C388 C 0.38976 0.4 0.07009 0.0
C389 C 0.4268 0.43929 0.11017 0.0
C390 C 0.36106 0.36335 0.15293 0.0
C391 C 0.31597 0.35164 0.0571 0.0
N392 N 0.4033 0.41783 0.12434 0.0
N393 N 0.34089 0.37146 0.04286 0.0
H394 H 0.44641 0.59594 0.92573 0.0
H395 H 0.26808 0.63027 0.85015 0.0
H396 H 0.37645 0.52228 0.88976 0.0
H397 H 0.34253 0.70088 0.8385 0.0
H398 H 0.30704 0.5912 0.87148 0.0
H399 H 0.40793 0.63584 0.90349 0.0
C400 C 0.42286 0.58821 0.91399 0.0
C401 C 0.41461 0.55571 0.90965 0.0
C402 C 0.31497 0.61516 0.86385 0.0
C403 C 0.37068 0.60112 0.88357 0.0
C404 C 0.29272 0.6375 0.85153 0.0
C405 C 0.30206 0.66889 0.84246 0.0
C406 C 0.34685 0.62427 0.868 0.0
C407 C 0.33435 0.67687 0.84476 0.0
C408 C 0.40103 0.61094 0.9007 0.0
C409 C 0.38388 0.54703 0.89357 0.0
N410 N 0.35557 0.65475 0.85786 0.0
N411 N 0.36309 0.56956 0.88117 0.0
H412 H 0.17674 0.68475 0.82635 0.0
H413 H 0.08397 0.58266 0.53066 0.0
H414 H 0.20294 0.68849 0.59554 0.0
H415 H 0.10154 0.54765 0.72952 0.0
H416 H 0.11975 0.62786 0.55809 0.0
H417 H 0.14049 0.64055 0.79675 0.0
C418 C 0.1747 0.67643 0.76952 0.0
C419 C 0.19293 0.69024 0.71332 0.0
C420 C 0.11574 0.61015 0.5954 0.0
C421 C 0.15129 0.64011 0.67927 0.0
C422 C 0.09535 0.58447 0.57991 0.0
C423 C 0.08999 0.56128 0.62762 0.0
C424 C 0.13006 0.61301 0.65994 0.0
C425 C 0.10526 0.56479 0.69082 0.0
C426 C 0.15416 0.65116 0.75271 0.0
C427 C 0.18944 0.6784 0.64054 0.0
N428 N 0.12435 0.59029 0.70548 0.0
N429 N 0.16886 0.65415 0.62555 0.0
H430 H 0.22645 0.35983 0.34384 0.0
H431 H 0.04322 0.4011 0.46961 0.0
H432 H 0.15359 0.29287 0.28353 0.0
H433 H 0.10894 0.47309 0.39866 0.0
H434 H 0.08471 0.35991 0.42391 0.0
H435 H 0.18475 0.40102 0.38646 0.0
C436 C 0.20167 0.35382 0.33969 0.0
C437 C 0.19339 0.32299 0.30996 0.0
C438 C 0.08993 0.38475 0.41845 0.0
C439 C 0.14578 0.36962 0.35982 0.0
C440 C 0.06643 0.40823 0.44481 0.0
C441 C 0.07272 0.44049 0.43777 0.0
C442 C 0.12014 0.39377 0.38674 0.0
C443 C 0.10311 0.44844 0.40479 0.0
C444 C 0.17799 0.37731 0.3637 0.0
C445 C 0.16095 0.31644 0.30563 0.0
N446 N 0.12584 0.42526 0.38113 0.0
N447 N 0.13823 0.33949 0.3311 0.0
H448 H 0.98809 0.95486 0.82044 0.0
H449 H 0.02235 0.06459 0.18669 0.0
H450 H 0.01589 0.05397 0.82887 0.0
H451 H 0.99712 0.9648 0.17866 0.0
H452 H 0.01986 0.061 0.05589 0.0
H453 H 0.99052 0.95814 0.95148 0.0
C454 C 0.99459 0.97739 0.84986 0.0
C455 C 1.0018 1.00421 0.81347 0.0
C456 C 0.01492 0.03984 0.08255 0.0
C457 C 1.00475 0.00804 0.96385 0.0
C458 C 0.01636 0.04183 0.1574 0.0
C459 C 0.00991 0.01493 0.19387 0.0
C460 C 0.00689 0.01073 0.04348 0.0
C461 C 1.00232 0.98613 0.15282 0.0
C462 C 0.99604 0.97919 0.92476 0.0
C463 C 0.0101 0.03271 0.85459 0.0
N464 N 1.00096 0.98481 0.07981 0.0
N465 N 0.01138 0.03384 0.92752 0.0
H466 H 0.30146 0.76782 0.42989 0.0
H467 H 0.20925 0.75048 0.07632 0.0
H468 H 0.20163 0.74359 0.43357 0.0
H469 H 0.30867 0.77645 0.07211 0.0
H470 H 0.20606 0.74788 0.20756 0.0
H471 H 0.30491 0.77056 0.29844 0.0
C472 C 0.28033 0.76294 0.40307 0.0
C473 C 0.25123 0.75548 0.44286 0.0
C474 C 0.22856 0.75421 0.17794 0.0
C475 C 0.25492 0.75872 0.29265 0.0
C476 C 0.23036 0.75577 0.103 0.0
C477 C 0.25926 0.7637 0.0631 0.0
C478 C 0.25586 0.76058 0.21328 0.0
C479 C 0.28587 0.77024 0.10061 0.0
C480 C 0.28227 0.76459 0.32807 0.0
C481 C 0.22458 0.74947 0.40523 0.0
N482 N 0.28355 0.76848 0.17348 0.0
N483 N 0.22707 0.75125 0.33241 0.0
H484 H 0.4954 0.05 0.70461 0.0
H485 H 0.51108 0.96341 0.29079 0.0
H486 H 0.51735 0.94936 0.6409 0.0
H487 H 0.4878 0.0638 0.35435 0.0
H488 H 0.51312 0.95774 0.41904 0.0
H489 H 0.49259 0.05563 0.57655 0.0
C490 C 0.49971 0.0291 0.66371 0.0
C491 C 0.50664 0.99916 0.68353 0.0
C492 C 0.5075 0.981 0.40495 0.0
C493 C 0.50335 1.0054 0.5369 0.0
C494 C 0.50628 0.98424 0.33171 0.0
C495 C 0.49927 0.01413 0.31175 0.0
C496 C 0.50172 0.00785 0.45869 0.0
C497 C 0.49329 0.04029 0.36717 0.0
C498 C 0.49804 0.03232 0.5906 0.0
C499 C 0.51195 0.97291 0.62819 0.0
N500 N 0.49472 0.03655 0.43805 0.0
N501 N 0.51018 0.97664 0.55747 0.0
H502 H 0.31464 0.23463 0.89434 0.0
H503 H 0.20105 0.27878 0.60833 0.0
H504 H 0.21481 0.26064 0.95412 0.0
H505 H 0.30093 0.25296 0.54868 0.0
H506 H 0.20574 0.27261 0.73506 0.0
H507 H 0.30994 0.24079 0.76762 0.0
C508 C 0.29164 0.24146 0.88084 0.0
C509 C 0.26506 0.2471 0.93521 0.0
C510 C 0.22667 0.26838 0.69438 0.0
C511 C 0.25958 0.25444 0.78965 0.0
C512 C 0.22406 0.27199 0.62186 0.0
C513 C 0.25066 0.26641 0.56753 0.0
C514 C 0.25612 0.25906 0.71309 0.0
C515 C 0.2798 0.25759 0.58862 0.0
C516 C 0.28902 0.24507 0.80833 0.0
C517 C 0.23593 0.25597 0.91416 0.0
N518 N 0.28172 0.25413 0.65962 0.0
N519 N 0.234 0.25942 0.84315 0.0
H520 H 0.70042 0.23566 0.92719 0.0
H521 H 0.81079 0.27105 0.5631 0.0
H522 H 0.79961 0.26275 0.92034 0.0
H523 H 0.71113 0.24578 0.56944 0.0
H524 H 0.80698 0.26804 0.69375 0.0
H525 H 0.70396 0.2386 0.79632 0.0
C526 C 0.72302 0.24211 0.89815 0.0
C527 C 0.74979 0.24898 0.93494 0.0
C528 C 0.7859 0.2632 0.66675 0.0
C529 C 0.75392 0.25252 0.78476 0.0
C530 C 0.78802 0.26496 0.592 0.0
C531 C 0.76121 0.25864 0.55509 0.0
C532 C 0.75676 0.25501 0.70527 0.0
C533 C 0.73239 0.25089 0.59563 0.0
C534 C 0.72498 0.24385 0.82334 0.0
C535 C 0.77839 0.25722 0.8943 0.0
N536 N 0.73095 0.24923 0.66852 0.0
N537 N 0.77967 0.2588 0.82146 0.0
H538 H 0.82029 0.74561 0.38902 0.0
H539 H 0.70079 0.77747 0.10546 0.0
H540 H 0.71986 0.76869 0.45128 0.0
H541 H 0.80045 0.75139 0.04147 0.0
H542 H 0.70778 0.77582 0.23291 0.0
H543 H 0.81382 0.74859 0.26164 0.0
C544 C 0.79685 0.75124 0.37592 0.0
C545 C 0.77056 0.75688 0.43087 0.0
C546 C 0.72815 0.77053 0.19104 0.0
C547 C 0.76303 0.76044 0.28524 0.0
C548 C 0.72419 0.77153 0.11822 0.0
C549 C 0.75007 0.76451 0.06271 0.0
C550 C 0.7582 0.76245 0.20858 0.0
C551 C 0.77984 0.75696 0.08251 0.0
C552 C 0.79319 0.75297 0.30316 0.0
C553 C 0.74078 0.76412 0.41069 0.0
N554 N 0.78307 0.75606 0.15386 0.0
N555 N 0.73784 0.76571 0.3395 0.0
H556 H 0.4969 0.46101 0.67868 0.0
H557 H 0.51237 0.55087 0.32255 0.0
H558 H 0.51741 0.56169 0.68121 0.0
H559 H 0.49222 0.45011 0.31985 0.0
H560 H 0.51401 0.55541 0.45432 0.0
H561 H 0.49529 0.45645 0.5469 0.0
C562 C 0.50118 0.48212 0.65151 0.0
C563 C 0.50729 0.51177 0.691 0.0
C564 C 0.50918 0.53232 0.42488 0.0
C565 C 0.50534 0.50678 0.54038 0.0
C566 C 0.50818 0.52974 0.34968 0.0
C567 C 0.50216 0.50007 0.31014 0.0
C568 C 0.50413 0.50504 0.46075 0.0
C569 C 0.49697 0.47347 0.34811 0.0
C570 C 0.50019 0.47953 0.5763 0.0
C571 C 0.51259 0.53835 0.65298 0.0
N572 N 0.49811 0.47658 0.42125 0.0
N573 N 0.51145 0.53523 0.57984 0.0
H574 H 0.98908 0.56225 0.85634 0.0
H575 H 0.03155 0.44728 0.14072 0.0
H576 H 0.01553 0.4625 0.79483 0.0
H577 H 1.00384 0.54672 0.20212 0.0
H578 H 0.02673 0.45259 0.01357 0.0
H579 H 0.99452 0.55699 0.9831 0.0
C580 C 0.99589 0.53917 0.86949 0.0
C581 C 1.00184 0.51276 0.81475 0.0
C582 C 0.02179 0.47329 0.05478 0.0
C583 C 0.00832 0.50663 0.9601 0.0
C584 C 0.02464 0.47031 0.12746 0.0
C585 C 0.01808 0.4966 0.1823 0.0
C586 C 0.01229 0.50278 0.03661 0.0
C587 C 0.00916 0.52581 0.16174 0.0
C588 C 0.99907 0.53621 0.94197 0.0
C589 C 0.01064 0.48348 0.83519 0.0
N590 N 1.00646 0.52808 0.0906 0.0
N591 N 0.01367 0.48123 0.90619 0.0
loop_
_geom_bond_atom_site_label_1
_geom_bond_atom_site_label_2
_geom_bond_distance
_geom_bond_site_symmetry_2
_ccdc_geom_bond_type
Zn0 O6 1.969 1_545 S
Zn0 O7 1.965 1_655 S
Zn0 O11 2.024 . S
Zn0 O16 1.969 1_545 S
Zn1 O8 1.969 1_565 S
Zn1 O14 1.969 1_565 S
Zn1 O15 1.965 1_455 S
Zn1 O17 2.024 . S
C2 O3 1.229 . S
C2 O11 1.058 . S
O3 C2 1.229 . S
C4 O5 1.229 . S
C4 O17 1.058 . S
O5 C4 1.229 . S
O6 Zn0 1.969 1_565 S
O6 C9 1.267 1_565 S
O7 Zn0 1.965 1_455 S
O7 C18 1.260 . S
O8 Zn1 1.969 1_545 S
O8 C18 1.258 . S
C9 O6 1.267 1_545 S
C9 O10 1.235 . S
O10 C9 1.235 . S
O11 Zn0 2.024 . S
O11 C2 1.058 . S
C12 O13 1.228 . S
C12 O14 1.267 1_565 S
O13 C12 1.228 . S
O14 Zn1 1.969 1_545 S
O14 C12 1.267 1_545 S
O15 Zn1 1.965 1_655 S
O15 C19 1.260 . S
O16 Zn0 1.969 1_565 S
O16 C19 1.258 . S
O17 Zn1 2.024 . S
O17 C4 1.058 . S
C18 O7 1.260 . S
C18 O8 1.258 . S
C19 O15 1.260 . S
C19 O16 1.258 . S
Zn20 O26 1.969 . S
Zn20 O27 1.965 . S
Zn20 O31 2.024 . S
Zn20 O36 1.969 . S
Zn21 O28 1.969 . S
Zn21 O34 1.969 . S
Zn21 O35 1.965 . S
Zn21 O37 2.024 . S
C22 O23 1.229 . S
C22 O31 1.058 . S
O23 C22 1.229 . S
C24 O25 1.229 . S
C24 O37 1.058 . S
O25 C24 1.229 . S
O26 Zn20 1.969 . S
O26 C29 1.267 . S
O27 Zn20 1.965 . S
O27 C38 1.260 . S
O28 Zn21 1.969 . S
O28 C38 1.258 . S
C29 O26 1.267 . S
C29 O30 1.228 . S
O30 C29 1.228 . S
O31 Zn20 2.024 . S
O31 C22 1.058 . S
C32 O33 1.228 . S
C32 O34 1.267 . S
O33 C32 1.228 . S
O34 Zn21 1.969 . S
O34 C32 1.267 . S
O35 Zn21 1.965 . S
O35 C39 1.260 . S
O36 Zn20 1.969 . S
O36 C39 1.258 . S
O37 Zn21 2.024 . S
O37 C24 1.058 . S
C38 O27 1.260 . S
C38 O28 1.258 . S
C39 O35 1.260 . S
C39 O36 1.258 . S
Zn40 O46 1.969 1_545 S
Zn40 O47 1.965 . S
Zn40 O51 2.024 . S
Zn40 O56 1.969 1_545 S
Zn41 O48 1.969 1_565 S
Zn41 O54 1.969 1_565 S
Zn41 O55 1.965 . S
Zn41 O57 2.024 . S
C42 O43 1.229 . S
C42 O51 1.058 . S
O43 C42 1.229 . S
C44 O45 1.229 . S
C44 O57 1.058 . S
O45 C44 1.229 . S
O46 Zn40 1.969 1_565 S
O46 C49 1.267 1_565 S
O47 Zn40 1.965 . S
O47 C58 1.260 . S
O48 Zn41 1.969 1_545 S
O48 C58 1.258 1_556 S
C49 O46 1.267 1_545 S
C49 O50 1.228 . S
O50 C49 1.228 . S
O51 Zn40 2.024 . S
O51 C42 1.058 . S
C52 O53 1.228 . S
C52 O54 1.267 1_565 S
O53 C52 1.228 . S
O54 Zn41 1.969 1_545 S
O54 C52 1.267 1_545 S
O55 Zn41 1.965 . S
O55 C59 1.260 . S
O56 Zn40 1.969 1_565 S
O56 C59 1.258 1_554 S
O57 Zn41 2.024 . S
O57 C44 1.058 . S
C58 O47 1.260 . S
C58 O48 1.258 1_554 S
C59 O55 1.260 . S
C59 O56 1.258 1_556 S
Zn60 O66 1.969 . S
Zn60 O67 1.965 . S
Zn60 O71 2.024 . S
Zn60 O76 1.969 . S
Zn61 O68 1.969 . S
Zn61 O74 1.969 . S
Zn61 O75 1.965 . S
Zn61 O77 2.024 . S
C62 O63 1.229 . S
C62 O71 1.058 . S
O63 C62 1.229 . S
C64 O65 1.229 . S
C64 O77 1.058 . S
O65 C64 1.229 . S
O66 Zn60 1.969 . S
O66 C69 1.267 . S
O67 Zn60 1.965 . S
O67 C78 1.260 . S
O68 Zn61 1.969 . S
O68 C78 1.258 . S
C69 O66 1.267 . S
C69 O70 1.228 . S
O70 C69 1.228 . S
O71 Zn60 2.024 . S
O71 C62 1.058 . S
C72 O73 1.228 . S
C72 O74 1.267 . S
O73 C72 1.228 . S
O74 Zn61 1.969 . S
O74 C72 1.267 . S
O75 Zn61 1.965 . S
O75 C79 1.260 . S
O76 Zn60 1.969 . S
O76 C79 1.258 . S
O77 Zn61 2.024 . S
O77 C64 1.058 . S
C78 O67 1.260 . S
C78 O68 1.258 . S
C79 O75 1.260 . S
C79 O76 1.258 . S
Zn80 O86 1.969 . S
Zn80 O87 1.965 . S
Zn80 O91 2.024 . S
Zn80 O96 1.969 . S
Zn81 O88 1.969 . S
Zn81 O94 1.969 . S
Zn81 O95 1.965 . S
Zn81 O97 2.024 . S
C82 O83 1.229 . S
C82 O91 1.058 . S
O83 C82 1.229 . S
C84 O85 1.229 . S
C84 O97 1.058 . S
O85 C84 1.229 . S
O86 Zn80 1.969 . S
O86 C89 1.267 . S
O87 Zn80 1.965 . S
O87 C98 1.260 . S
O88 Zn81 1.969 . S
O88 C98 1.258 . S
C89 O86 1.267 . S
C89 O90 1.228 . S
O90 C89 1.228 . S
O91 Zn80 2.024 . S
O91 C82 1.058 . S
C92 O93 1.228 . S
C92 O94 1.267 . S
O93 C92 1.228 . S
O94 Zn81 1.969 . S
O94 C92 1.267 . S
O95 Zn81 1.965 . S
O95 C99 1.260 . S
O96 Zn80 1.969 . S
O96 C99 1.258 . S
O97 Zn81 2.024 . S
O97 C84 1.058 . S
C98 O87 1.260 . S
C98 O88 1.258 . S
C99 O95 1.260 . S
C99 O96 1.258 . S
Zn100 O106 1.969 . S
Zn100 O107 1.965 . S
Zn100 O111 2.024 . S
Zn100 O116 1.969 . S
Zn101 O108 1.969 . S
Zn101 O114 1.969 . S
Zn101 O115 1.965 . S
Zn101 O117 2.024 . S
C102 O103 1.229 . S
C102 O111 1.058 . S
O103 C102 1.229 . S
C104 O105 1.229 . S
C104 O117 1.058 . S
O105 C104 1.229 . S
O106 Zn100 1.969 . S
O106 C109 1.267 . S
O107 Zn100 1.965 . S
O107 C118 1.260 . S
O108 Zn101 1.969 . S
O108 C118 1.258 . S
C109 O106 1.267 . S
C109 O110 1.228 . S
O110 C109 1.228 . S
O111 Zn100 2.024 . S
O111 C102 1.058 . S
C112 O113 1.228 . S
C112 O114 1.267 . S
O113 C112 1.228 . S
O114 Zn101 1.969 . S
O114 C112 1.267 . S
O115 Zn101 1.965 . S
O115 C119 1.260 . S
O116 Zn100 1.969 . S
O116 C119 1.258 . S
O117 Zn101 2.024 . S
O117 C104 1.058 . S
C118 O107 1.260 . S
C118 O108 1.258 . S
C119 O115 1.260 . S
C119 O116 1.258 . S
Zn120 O126 1.969 . S
Zn120 O127 1.965 . S
Zn120 O131 2.024 . S
Zn120 O136 1.969 . S
Zn121 O128 1.969 . S
Zn121 O134 1.969 . S
Zn121 O135 1.965 . S
Zn121 O137 2.024 . S
C122 O123 1.229 . S
C122 O131 1.058 . S
O123 C122 1.229 . S
C124 O125 1.229 . S
C124 O137 1.058 . S
O125 C124 1.229 . S
O126 Zn120 1.969 . S
O126 C129 1.267 . S
O127 Zn120 1.965 . S
O127 C138 1.260 . S
O128 Zn121 1.969 . S
O128 C138 1.258 1_554 S
C129 O126 1.267 . S
C129 O130 1.228 . S
O130 C129 1.228 . S
O131 Zn120 2.024 . S
O131 C122 1.058 . S
C132 O133 1.228 . S
C132 O134 1.267 . S
O133 C132 1.228 . S
O134 Zn121 1.969 . S
O134 C132 1.267 . S
O135 Zn121 1.965 . S
O135 C139 1.260 . S
O136 Zn120 1.969 . S
O136 C139 1.258 1_556 S
O137 Zn121 2.024 . S
O137 C124 1.058 . S
C138 O127 1.260 . S
C138 O128 1.258 1_556 S
C139 O135 1.260 . S
C139 O136 1.258 1_554 S
Zn140 O146 1.969 . S
Zn140 O147 1.965 1_455 S
Zn140 O151 2.024 . S
Zn140 O156 1.969 . S
Zn141 O148 1.969 . S
Zn141 O154 1.969 . S
Zn141 O155 1.965 1_655 S
Zn141 O157 2.024 . S
C142 O143 1.229 . S
C142 O151 1.058 . S
O143 C142 1.229 . S
C144 O145 1.229 . S
C144 O157 1.058 . S
O145 C144 1.229 . S
O146 Zn140 1.969 . S
O146 C149 1.267 . S
O147 Zn140 1.965 1_655 S
O147 C158 1.260 . S
O148 Zn141 1.969 . S
O148 C158 1.258 . S
C149 O146 1.267 . S
C149 O150 1.233 . S
O150 C149 1.233 . S
O151 Zn140 2.024 . S
O151 C142 1.058 . S
C152 O153 1.231 . S
C152 O154 1.267 . S
O153 C152 1.231 . S
O154 Zn141 1.969 . S
O154 C152 1.267 . S
O155 Zn141 1.965 1_455 S
O155 C159 1.260 . S
O156 Zn140 1.969 . S
O156 C159 1.258 . S
O157 Zn141 2.024 . S
O157 C144 1.058 . S
C158 O147 1.260 . S
C158 O148 1.258 . S
C159 O155 1.260 . S
C159 O156 1.258 . S
H160 C166 0.930 . S
H161 C170 0.930 . S
H162 C175 0.929 . S
H163 C173 0.929 . S
H164 C168 0.929 . S
H165 C174 0.929 . S
C166 H160 0.930 . S
C166 C167 1.367 . S
C166 C174 1.378 . S
C167 C166 1.367 . S
C167 C175 1.433 . S
C168 H164 0.929 . S
C168 C170 1.378 . S
C168 C172 1.350 . S
C169 C172 1.463 . S
C169 C174 1.350 . S
C169 N177 1.427 . S
C170 H161 0.930 . S
C170 C168 1.378 . S
C170 C171 1.367 . S
C171 C170 1.367 . S
C171 C173 1.433 . S
C172 C168 1.350 . S
C172 C169 1.463 . S
C172 N176 1.427 . S
C173 H163 0.929 . S
C173 C171 1.433 . S
C173 N176 1.384 . S
C174 H165 0.929 . S
C174 C166 1.378 . S
C174 C169 1.350 . S
C175 H162 0.929 . S
C175 C167 1.433 . S
C175 N177 1.384 . S
N176 C172 1.427 . S
N176 C173 1.384 . S
N177 C169 1.427 . S
N177 C175 1.384 . S
H178 C184 0.930 . S
H179 C188 0.930 . S
H180 C193 0.929 . S
H181 C191 0.929 . S
H182 C186 0.929 . S
H183 C192 0.929 . S
C184 H178 0.930 . S
C184 C185 1.367 . S
C184 C192 1.378 . S
C185 C184 1.367 . S
C185 C193 1.433 . S
C186 H182 0.929 . S
C186 C188 1.378 . S
C186 C190 1.350 . S
C187 C190 1.463 . S
C187 C192 1.350 . S
C187 N195 1.427 . S
C188 H179 0.930 . S
C188 C186 1.378 . S
C188 C189 1.367 . S
C189 C188 1.367 . S
C189 C191 1.433 . S
C190 C186 1.350 . S
C190 C187 1.463 . S
C190 N194 1.427 . S
C191 H181 0.929 . S
C191 C189 1.433 . S
C191 N194 1.384 . S
C192 H183 0.929 . S
C192 C184 1.378 . S
C192 C187 1.350 . S
C193 H180 0.929 . S
C193 C185 1.433 . S
C193 N195 1.384 . S
N194 C190 1.427 . S
N194 C191 1.384 . S
N195 C187 1.427 . S
N195 C193 1.384 . S
H196 C202 0.930 . S
H197 C206 0.930 . S
H198 C211 0.929 . S
H199 C209 0.929 . S
H200 C204 0.929 . S
H201 C210 0.929 . S
C202 H196 0.930 . S
C202 C203 1.367 . S
C202 C210 1.378 . S
C203 C202 1.367 . S
C203 C211 1.433 . S
C204 H200 0.929 . S
C204 C206 1.378 . S
C204 C208 1.350 . S
C205 C208 1.463 . S
C205 C210 1.350 . S
C205 N213 1.427 . S
C206 H197 0.930 . S
C206 C204 1.378 . S
C206 C207 1.367 . S
C207 C206 1.367 . S
C207 C209 1.433 . S
C208 C204 1.350 . S
C208 C205 1.463 . S
C208 N212 1.427 . S
C209 H199 0.929 . S
C209 C207 1.433 . S
C209 N212 1.384 . S
C210 H201 0.929 . S
C210 C202 1.378 . S
C210 C205 1.350 . S
C211 H198 0.929 . S
C211 C203 1.433 . S
C211 N213 1.384 . S
N212 C208 1.427 . S
N212 C209 1.384 . S
N213 C205 1.427 . S
N213 C211 1.384 . S
H214 C220 0.930 . S
H215 C224 0.930 . S
H216 C229 0.929 . S
H217 C227 0.929 . S
H218 C222 0.929 . S
H219 C228 0.929 . S
C220 H214 0.930 . S
C220 C221 1.367 . S
C220 C228 1.378 . S
C221 C220 1.367 . S
C221 C229 1.433 . S
C222 H218 0.929 . S
C222 C224 1.378 . S
C222 C226 1.350 . S
C223 C226 1.463 . S
C223 C228 1.350 . S
C223 N231 1.427 . S
C224 H215 0.930 . S
C224 C222 1.378 . S
C224 C225 1.367 . S
C225 C224 1.367 . S
C225 C227 1.433 . S
C226 C222 1.350 . S
C226 C223 1.463 . S
C226 N230 1.427 . S
C227 H217 0.929 . S
C227 C225 1.433 . S
C227 N230 1.384 . S
C228 H219 0.929 . S
C228 C220 1.378 . S
C228 C223 1.350 . S
C229 H216 0.929 . S
C229 C221 1.433 . S
C229 N231 1.384 . S
N230 C226 1.427 . S
N230 C227 1.384 . S
N231 C223 1.427 . S
N231 C229 1.384 . S
H232 C238 0.930 . S
H233 C242 0.930 . S
H234 C247 0.929 . S
H235 C245 0.929 . S
H236 C240 0.929 . S
H237 C246 0.929 . S
C238 H232 0.930 . S
C238 C239 1.367 . S
C238 C246 1.378 . S
C239 C238 1.367 . S
C239 C247 1.433 . S
C240 H236 0.929 . S
C240 C242 1.378 . S
C240 C244 1.350 . S
C241 C244 1.463 . S
C241 C246 1.350 . S
C241 N249 1.427 . S
C242 H233 0.930 . S
C242 C240 1.378 . S
C242 C243 1.367 . S
C243 C242 1.367 . S
C243 C245 1.433 . S
C244 C240 1.350 . S
C244 C241 1.463 . S
C244 N248 1.427 . S
C245 H235 0.929 . S
C245 C243 1.433 . S
C245 N248 1.384 . S
C246 H237 0.929 . S
C246 C238 1.378 . S
C246 C241 1.350 . S
C247 H234 0.929 . S
C247 C239 1.433 . S
C247 N249 1.384 . S
N248 C244 1.427 . S
N248 C245 1.384 . S
N249 C241 1.427 . S
N249 C247 1.384 . S
H250 C256 0.930 . S
H251 C260 0.930 . S
H252 C265 0.929 . S
H253 C263 0.929 . S
H254 C258 0.929 . S
H255 C264 0.929 . S
C256 H250 0.930 . S
C256 C257 1.367 . S
C256 C264 1.378 . S
C257 C256 1.367 . S
C257 C265 1.433 . S
C258 H254 0.929 . S
C258 C260 1.378 . S
C258 C262 1.350 . S
C259 C262 1.463 . S
C259 C264 1.350 . S
C259 N267 1.427 . S
C260 H251 0.930 . S
C260 C258 1.378 . S
C260 C261 1.367 . S
C261 C260 1.367 . S
C261 C263 1.433 . S
C262 C258 1.350 . S
C262 C259 1.463 . S
C262 N266 1.427 . S
C263 H253 0.929 . S
C263 C261 1.433 . S
C263 N266 1.384 . S
C264 H255 0.929 . S
C264 C256 1.378 . S
C264 C259 1.350 . S
C265 H252 0.929 . S
C265 C257 1.433 . S
C265 N267 1.384 . S
N266 C262 1.427 . S
N266 C263 1.384 . S
N267 C259 1.427 . S
N267 C265 1.384 . S
H268 C274 0.930 . S
H269 C278 0.930 . S
H270 C283 0.929 . S
H271 C281 0.929 . S
H272 C276 0.929 . S
H273 C282 0.929 . S
C274 H268 0.930 . S
C274 C275 1.367 . S
C274 C282 1.378 . S
C275 C274 1.367 . S
C275 C283 1.433 . S
C276 H272 0.929 . S
C276 C278 1.378 . S
C276 C280 1.350 . S
C277 C280 1.463 . S
C277 C282 1.350 . S
C277 N285 1.427 . S
C278 H269 0.930 . S
C278 C276 1.378 . S
C278 C279 1.367 . S
C279 C278 1.367 . S
C279 C281 1.433 . S
C280 C276 1.350 . S
C280 C277 1.463 . S
C280 N284 1.427 . S
C281 H271 0.929 . S
C281 C279 1.433 . S
C281 N284 1.384 . S
C282 H273 0.929 . S
C282 C274 1.378 . S
C282 C277 1.350 . S
C283 H270 0.929 . S
C283 C275 1.433 . S
C283 N285 1.384 . S
N284 C280 1.427 . S
N284 C281 1.384 . S
N285 C277 1.427 . S
N285 C283 1.384 . S
H286 C292 0.930 . S
H287 C296 0.930 . S
H288 C301 0.929 . S
H289 C299 0.929 1_554 S
H290 C294 0.929 . S
H291 C300 0.929 . S
C292 H286 0.930 . S
C292 C293 1.367 . S
C292 C300 1.378 . S
C293 C292 1.367 . S
C293 C301 1.433 . S
C294 H290 0.929 . S
C294 C296 1.378 . S
C294 C298 1.350 . S
C295 C298 1.463 . S
C295 C300 1.350 . S
C295 N303 1.427 . S
C296 H287 0.930 . S
C296 C294 1.378 . S
C296 C297 1.367 . S
C297 C296 1.367 . S
C297 C299 1.433 . S
C298 C294 1.350 . S
C298 C295 1.463 . S
C298 N302 1.427 . S
C299 H289 0.929 1_556 S
C299 C297 1.433 . S
C299 N302 1.384 . S
C300 H291 0.929 . S
C300 C292 1.378 . S
C300 C295 1.350 . S
C301 H288 0.929 . S
C301 C293 1.433 . S
C301 N303 1.384 . S
N302 C298 1.427 . S
N302 C299 1.384 . S
N303 C295 1.427 . S
N303 C301 1.384 . S
H304 C310 0.930 . S
H305 C314 0.930 . S
H306 C319 0.929 . S
H307 C317 0.929 . S
H308 C312 0.929 . S
H309 C318 0.929 1_554 S
C310 H304 0.930 . S
C310 C311 1.367 1_554 S
C310 C318 1.378 1_554 S
C311 C310 1.367 1_556 S
C311 C319 1.433 . S
C312 H308 0.929 . S
C312 C314 1.378 . S
C312 C316 1.350 . S
C313 C316 1.463 . S
C313 C318 1.350 . S
C313 N321 1.427 . S
C314 H305 0.930 . S
C314 C312 1.378 . S
C314 C315 1.367 . S
C315 C314 1.367 . S
C315 C317 1.433 . S
C316 C312 1.350 . S
C316 C313 1.463 . S
C316 N320 1.427 . S
C317 H307 0.929 . S
C317 C315 1.433 . S
C317 N320 1.384 . S
C318 H309 0.929 1_556 S
C318 C310 1.378 1_556 S
C318 C313 1.350 . S
C319 H306 0.929 . S
C319 C311 1.433 . S
C319 N321 1.384 . S
N320 C316 1.427 . S
N320 C317 1.384 . S
N321 C313 1.427 . S
N321 C319 1.384 . S
H322 C328 0.930 . S
H323 C332 0.930 . S
H324 C337 0.929 . S
H325 C335 0.929 1_556 S
H326 C330 0.929 . S
H327 C336 0.929 . S
C328 H322 0.930 . S
C328 C329 1.367 . S
C328 C336 1.378 . S
C329 C328 1.367 . S
C329 C337 1.433 . S
C330 H326 0.929 . S
C330 C332 1.378 . S
C330 C334 1.350 . S
C331 C334 1.463 . S
C331 C336 1.350 . S
C331 N339 1.427 . S
C332 H323 0.930 . S
C332 C330 1.378 . S
C332 C333 1.367 . S
C333 C332 1.367 . S
C333 C335 1.433 . S
C334 C330 1.350 . S
C334 C331 1.463 . S
C334 N338 1.427 . S
C335 H325 0.929 1_554 S
C335 C333 1.433 . S
C335 N338 1.384 . S
C336 H327 0.929 . S
C336 C328 1.378 . S
C336 C331 1.350 . S
C337 H324 0.929 . S
C337 C329 1.433 . S
C337 N339 1.384 . S
N338 C334 1.427 . S
N338 C335 1.384 . S
N339 C331 1.427 . S
N339 C337 1.384 . S
H340 C346 0.930 . S
H341 C350 0.930 . S
H342 C355 0.929 . S
H343 C353 0.929 . S
H344 C348 0.929 . S
H345 C354 0.929 . S
C346 H340 0.930 . S
C346 C347 1.367 . S
C346 C354 1.378 . S
C347 C346 1.367 . S
C347 C355 1.433 . S
C348 H344 0.929 . S
C348 C350 1.378 . S
C348 C352 1.350 . S
C349 C352 1.463 . S
C349 C354 1.350 . S
C349 N357 1.427 . S
C350 H341 0.930 . S
C350 C348 1.378 . S
C350 C351 1.367 . S
C351 C350 1.367 . S
C351 C353 1.433 . S
C352 C348 1.350 . S
C352 C349 1.463 . S
C352 N356 1.427 . S
C353 H343 0.929 . S
C353 C351 1.433 . S
C353 N356 1.384 . S
C354 H345 0.929 . S
C354 C346 1.378 . S
C354 C349 1.350 . S
C355 H342 0.929 . S
C355 C347 1.433 . S
C355 N357 1.384 . S
N356 C352 1.427 . S
N356 C353 1.384 . S
N357 C349 1.427 . S
N357 C355 1.384 . S
H358 C364 0.930 . S
H359 C368 0.930 . S
H360 C373 0.929 . S
H361 C371 0.929 . S
H362 C366 0.929 . S
H363 C372 0.929 . S
C364 H358 0.930 . S
C364 C365 1.367 . S
C364 C372 1.378 . S
C365 C364 1.367 . S
C365 C373 1.433 . S
C366 H362 0.929 . S
C366 C368 1.378 . S
C366 C370 1.350 . S
C367 C370 1.463 . S
C367 C372 1.350 . S
C367 N375 1.427 . S
C368 H359 0.930 . S
C368 C366 1.378 . S
C368 C369 1.367 . S
C369 C368 1.367 . S
C369 C371 1.433 . S
C370 C366 1.350 . S
C370 C367 1.463 . S
C370 N374 1.427 . S
C371 H361 0.929 . S
C371 C369 1.433 . S
C371 N374 1.384 . S
C372 H363 0.929 . S
C372 C364 1.378 . S
C372 C367 1.350 . S
C373 H360 0.929 . S
C373 C365 1.433 . S
C373 N375 1.384 . S
N374 C370 1.427 . S
N374 C371 1.384 . S
N375 C367 1.427 . S
N375 C373 1.384 . S
H376 C382 0.930 . S
H377 C386 0.930 . S
H378 C391 0.929 . S
H379 C389 0.929 . S
H380 C384 0.929 1_556 S
H381 C390 0.929 . S
C382 H376 0.930 . S
C382 C383 1.367 . S
C382 C390 1.378 . S
C383 C382 1.367 . S
C383 C391 1.433 . S
C384 H380 0.929 1_554 S
C384 C386 1.378 1_554 S
C384 C388 1.350 . S
C385 C388 1.463 . S
C385 C390 1.350 . S
C385 N393 1.427 . S
C386 H377 0.930 . S
C386 C384 1.378 1_556 S
C386 C387 1.367 1_556 S
C387 C386 1.367 1_554 S
C387 C389 1.433 . S
C388 C384 1.350 . S
C388 C385 1.463 . S
C388 N392 1.427 . S
C389 H379 0.929 . S
C389 C387 1.433 . S
C389 N392 1.384 . S
C390 H381 0.929 . S
C390 C382 1.378 . S
C390 C385 1.350 . S
C391 H378 0.929 . S
C391 C383 1.433 . S
C391 N393 1.384 . S
N392 C388 1.427 . S
N392 C389 1.384 . S
N393 C385 1.427 . S
N393 C391 1.384 . S
H394 C400 0.930 1_554 S
H395 C404 0.930 . S
H396 C409 0.929 . S
H397 C407 0.929 . S
H398 C402 0.929 . S
H399 C408 0.929 . S
C400 H394 0.930 1_556 S
C400 C401 1.367 . S
C400 C408 1.378 . S
C401 C400 1.367 . S
C401 C409 1.433 . S
C402 H398 0.929 . S
C402 C404 1.378 . S
C402 C406 1.350 . S
C403 C406 1.463 . S
C403 C408 1.350 . S
C403 N411 1.427 . S
C404 H395 0.930 . S
C404 C402 1.378 . S
C404 C405 1.367 . S
C405 C404 1.367 . S
C405 C407 1.433 . S
C406 C402 1.350 . S
C406 C403 1.463 . S
C406 N410 1.427 . S
C407 H397 0.929 . S
C407 C405 1.433 . S
C407 N410 1.384 . S
C408 H399 0.929 . S
C408 C400 1.378 . S
C408 C403 1.350 . S
C409 H396 0.929 . S
C409 C401 1.433 . S
C409 N411 1.384 . S
N410 C406 1.427 . S
N410 C407 1.384 . S
N411 C403 1.427 . S
N411 C409 1.384 . S
H412 C418 0.930 . S
H413 C422 0.930 . S
H414 C427 0.929 . S
H415 C425 0.929 . S
H416 C420 0.929 . S
H417 C426 0.929 . S
C418 H412 0.930 . S
C418 C419 1.367 . S
C418 C426 1.378 . S
C419 C418 1.367 . S
C419 C427 1.433 . S
C420 H416 0.929 . S
C420 C422 1.378 . S
C420 C424 1.350 . S
C421 C424 1.463 . S
C421 C426 1.350 . S
C421 N429 1.427 . S
C422 H413 0.930 . S
C422 C420 1.378 . S
C422 C423 1.367 . S
C423 C422 1.367 . S
C423 C425 1.433 . S
C424 C420 1.350 . S
C424 C421 1.463 . S
C424 N428 1.427 . S
C425 H415 0.929 . S
C425 C423 1.433 . S
C425 N428 1.384 . S
C426 H417 0.929 . S
C426 C418 1.378 . S
C426 C421 1.350 . S
C427 H414 0.929 . S
C427 C419 1.433 . S
C427 N429 1.384 . S
N428 C424 1.427 . S
N428 C425 1.384 . S
N429 C421 1.427 . S
N429 C427 1.384 . S
H430 C436 0.930 . S
H431 C440 0.930 . S
H432 C445 0.929 . S
H433 C443 0.929 . S
H434 C438 0.929 . S
H435 C444 0.929 . S
C436 H430 0.930 . S
C436 C437 1.367 . S
C436 C444 1.378 . S
C437 C436 1.367 . S
C437 C445 1.433 . S
C438 H434 0.929 . S
C438 C440 1.378 . S
C438 C442 1.350 . S
C439 C442 1.463 . S
C439 C444 1.350 . S
C439 N447 1.427 . S
C440 H431 0.930 . S
C440 C438 1.378 . S
C440 C441 1.367 . S
C441 C440 1.367 . S
C441 C443 1.433 . S
C442 C438 1.350 . S
C442 C439 1.463 . S
C442 N446 1.427 . S
C443 H433 0.929 . S
C443 C441 1.433 . S
C443 N446 1.384 . S
C444 H435 0.929 . S
C444 C436 1.378 . S
C444 C439 1.350 . S
C445 H432 0.929 . S
C445 C437 1.433 . S
C445 N447 1.384 . S
N446 C442 1.427 . S
N446 C443 1.384 . S
N447 C439 1.427 . S
N447 C445 1.384 . S
H448 C454 0.930 . S
H449 C458 0.930 . S
H450 C463 0.929 . S
H451 C461 0.929 . S
H452 C456 0.929 . S
H453 C462 0.929 . S
C454 H448 0.930 . S
C454 C455 1.367 1_565 S
C454 C462 1.378 . S
C455 C454 1.367 1_545 S
C455 C463 1.433 1_455 S
C456 H452 0.929 . S
C456 C458 1.378 . S
C456 C460 1.356 . S
C457 C460 1.470 1_456 S
C457 C462 1.358 1_545 S
C457 N465 1.416 1_455 S
C458 H449 0.930 . S
C458 C456 1.378 . S
C458 C459 1.367 1_545 S
C459 C458 1.367 1_565 S
C459 C461 1.433 1_655 S
C460 C456 1.356 . S
C460 C457 1.470 1_654 S
C460 N464 1.418 1_645 S
C461 H451 0.929 . S
C461 C459 1.433 1_455 S
C461 N464 1.384 . S
C462 H453 0.929 . S
C462 C454 1.378 . S
C462 C457 1.358 1_565 S
C463 H450 0.929 . S
C463 C455 1.433 1_655 S
C463 N465 1.384 . S
N464 C460 1.418 1_465 S
N464 C461 1.384 . S
N465 C457 1.416 1_655 S
N465 C463 1.384 . S
H466 C472 0.930 . S
H467 C476 0.930 . S
H468 C481 0.929 . S
H469 C479 0.929 . S
H470 C474 0.929 . S
H471 C480 0.929 . S
C472 H466 0.930 . S
C472 C473 1.367 . S
C472 C480 1.378 . S
C473 C472 1.367 . S
C473 C481 1.433 . S
C474 H470 0.929 . S
C474 C476 1.378 . S
C474 C478 1.350 . S
C475 C478 1.463 . S
C475 C480 1.350 . S
C475 N483 1.427 . S
C476 H467 0.930 . S
C476 C474 1.378 . S
C476 C477 1.367 . S
C477 C476 1.367 . S
C477 C479 1.433 . S
C478 C474 1.350 . S
C478 C475 1.463 . S
C478 N482 1.427 . S
C479 H469 0.929 . S
C479 C477 1.433 . S
C479 N482 1.384 . S
C480 H471 0.929 . S
C480 C472 1.378 . S
C480 C475 1.350 . S
C481 H468 0.929 . S
C481 C473 1.433 . S
C481 N483 1.384 . S
N482 C478 1.427 . S
N482 C479 1.384 . S
N483 C475 1.427 . S
N483 C481 1.384 . S
H484 C490 0.930 . S
H485 C494 0.930 . S
H486 C499 0.929 . S
H487 C497 0.929 . S
H488 C492 0.929 . S
H489 C498 0.929 . S
C490 H484 0.930 . S
C490 C491 1.367 1_545 S
C490 C498 1.378 . S
C491 C490 1.367 1_565 S
C491 C499 1.433 . S
C492 H488 0.929 . S
C492 C494 1.378 . S
C492 C496 1.331 1_565 S
C493 C496 1.455 1_565 S
C493 C498 1.337 1_565 S
C493 N501 1.445 . S
C494 H485 0.930 . S
C494 C492 1.378 . S
C494 C495 1.367 1_565 S
C495 C494 1.367 1_545 S
C495 C497 1.433 . S
C496 C492 1.331 1_545 S
C496 C493 1.455 1_545 S
C496 N500 1.453 . S
C497 H487 0.929 . S
C497 C495 1.433 . S
C497 N500 1.384 . S
C498 H489 0.929 . S
C498 C490 1.378 . S
C498 C493 1.337 1_545 S
C499 H486 0.929 . S
C499 C491 1.433 . S
C499 N501 1.384 . S
N500 C496 1.453 . S
N500 C497 1.384 . S
N501 C493 1.445 . S
N501 C499 1.384 . S
H502 C508 0.930 . S
H503 C512 0.930 . S
H504 C517 0.929 . S
H505 C515 0.929 . S
H506 C510 0.929 . S
H507 C516 0.929 . S
C508 H502 0.930 . S
C508 C509 1.367 . S
C508 C516 1.378 . S
C509 C508 1.367 . S
C509 C517 1.433 . S
C510 H506 0.929 . S
C510 C512 1.378 . S
C510 C514 1.350 . S
C511 C514 1.463 . S
C511 C516 1.350 . S
C511 N519 1.427 . S
C512 H503 0.930 . S
C512 C510 1.378 . S
C512 C513 1.367 . S
C513 C512 1.367 . S
C513 C515 1.433 . S
C514 C510 1.350 . S
C514 C511 1.463 . S
C514 N518 1.427 . S
C515 H505 0.929 . S
C515 C513 1.433 . S
C515 N518 1.384 . S
C516 H507 0.929 . S
C516 C508 1.378 . S
C516 C511 1.350 . S
C517 H504 0.929 . S
C517 C509 1.433 . S
C517 N519 1.384 . S
N518 C514 1.427 . S
N518 C515 1.384 . S
N519 C511 1.427 . S
N519 C517 1.384 . S
H520 C526 0.930 . S
H521 C530 0.930 . S
H522 C535 0.929 . S
H523 C533 0.929 . S
H524 C528 0.929 . S
H525 C534 0.929 . S
C526 H520 0.930 . S
C526 C527 1.367 . S
C526 C534 1.378 . S
C527 C526 1.367 . S
C527 C535 1.433 . S
C528 H524 0.929 . S
C528 C530 1.378 . S
C528 C532 1.350 . S
C529 C532 1.463 . S
C529 C534 1.350 . S
C529 N537 1.427 . S
C530 H521 0.930 . S
C530 C528 1.378 . S
C530 C531 1.367 . S
C531 C530 1.367 . S
C531 C533 1.433 . S
C532 C528 1.350 . S
C532 C529 1.463 . S
C532 N536 1.427 . S
C533 H523 0.929 . S
C533 C531 1.433 . S
C533 N536 1.384 . S
C534 H525 0.929 . S
C534 C526 1.378 . S
C534 C529 1.350 . S
C535 H522 0.929 . S
C535 C527 1.433 . S
C535 N537 1.384 . S
N536 C532 1.427 . S
N536 C533 1.384 . S
N537 C529 1.427 . S
N537 C535 1.384 . S
H538 C544 0.930 . S
H539 C548 0.930 . S
H540 C553 0.929 . S
H541 C551 0.929 . S
H542 C546 0.929 . S
H543 C552 0.929 . S
C544 H538 0.930 . S
C544 C545 1.367 . S
C544 C552 1.378 . S
C545 C544 1.367 . S
C545 C553 1.433 . S
C546 H542 0.929 . S
C546 C548 1.378 . S
C546 C550 1.350 . S
C547 C550 1.463 . S
C547 C552 1.350 . S
C547 N555 1.427 . S
C548 H539 0.930 . S
C548 C546 1.378 . S
C548 C549 1.367 . S
C549 C548 1.367 . S
C549 C551 1.433 . S
C550 C546 1.350 . S
C550 C547 1.463 . S
C550 N554 1.427 . S
C551 H541 0.929 . S
C551 C549 1.433 . S
C551 N554 1.384 . S
C552 H543 0.929 . S
C552 C544 1.378 . S
C552 C547 1.350 . S
C553 H540 0.929 . S
C553 C545 1.433 . S
C553 N555 1.384 . S
N554 C550 1.427 . S
N554 C551 1.384 . S
N555 C547 1.427 . S
N555 C553 1.384 . S
H556 C562 0.930 . S
H557 C566 0.930 . S
H558 C571 0.929 . S
H559 C569 0.929 . S
H560 C564 0.929 . S
H561 C570 0.929 . S
C562 H556 0.930 . S
C562 C563 1.367 . S
C562 C570 1.378 . S
C563 C562 1.367 . S
C563 C571 1.433 . S
C564 H560 0.929 . S
C564 C566 1.378 . S
C564 C568 1.350 . S
C565 C568 1.463 . S
C565 C570 1.350 . S
C565 N573 1.427 . S
C566 H557 0.930 . S
C566 C564 1.378 . S
C566 C567 1.367 . S
C567 C566 1.367 . S
C567 C569 1.433 . S
C568 C564 1.350 . S
C568 C565 1.463 . S
C568 N572 1.427 . S
C569 H559 0.929 . S
C569 C567 1.433 . S
C569 N572 1.384 . S
C570 H561 0.929 . S
C570 C562 1.378 . S
C570 C565 1.350 . S
C571 H558 0.929 . S
C571 C563 1.433 . S
C571 N573 1.384 . S
N572 C568 1.427 . S
N572 C569 1.384 . S
N573 C565 1.427 . S
N573 C571 1.384 . S
H574 C580 0.930 . S
H575 C584 0.930 . S
H576 C589 0.929 . S
H577 C587 0.929 . S
H578 C582 0.929 . S
H579 C588 0.929 . S
C580 H574 0.930 . S
C580 C581 1.367 1_655 S
C580 C588 1.378 . S
C581 C580 1.367 1_455 S
C581 C589 1.433 . S
C582 H578 0.929 . S
C582 C584 1.378 . S
C582 C586 1.353 . S
C583 C586 1.462 1_656 S
C583 C588 1.348 . S
C583 N591 1.429 1_655 S
C584 H575 0.930 . S
C584 C582 1.378 . S
C584 C585 1.367 1_455 S
C585 C584 1.367 1_655 S
C585 C587 1.433 . S
C586 C582 1.353 . S
C586 C583 1.462 1_454 S
C586 N590 1.425 1_455 S
C587 H577 0.929 . S
C587 C585 1.433 . S
C587 N590 1.384 . S
C588 H579 0.929 . S
C588 C580 1.378 . S
C588 C583 1.348 . S
C589 H576 0.929 . S
C589 C581 1.433 . S
C589 N591 1.384 . S
N590 C586 1.425 1_655 S
N590 C587 1.384 . S
N591 C583 1.429 1_455 S
N591 C589 1.384 . S
C167 C18 1.499 . S
C171 C64 1.434 . S
C185 C4 1.012 . S
C189 C24 1.003 . S
C203 C38 1.502 . S
C207 C44 1.442 . S
C221 C58 2.004 . S
C225 C78 2.010 . S
C239 C19 1.496 . S
C243 C102 1.445 . S
C257 C2 1.000 . S
C261 C82 1.009 . S
C275 C99 1.502 . S
C279 C42 1.443 . S
C293 C119 2.007 . S
C297 C59 2.010 . S
C311 C138 1.498 . S
C315 C104 1.453 . S
C329 C84 1.000 . S
C333 C124 0.995 . S
C347 C144 1.452 . S
C351 C98 1.502 . S
C365 C118 2.010 . S
C369 C158 2.007 . S
C383 C62 1.453 . S
C387 C139 1.497 . S
C401 C122 1.021 . S
C405 C22 1.019 . S
C419 C39 1.497 . S
C423 C142 1.451 . S
C437 C79 2.004 . S
C441 C159 2.008 . S
C455 C12 1.453 1_545 S
C459 C9 1.453 1_565 S
C473 C32 1.462 . S
C477 C29 1.462 1_554 S
C491 C52 1.524 . S
C495 C49 1.524 . S
C509 C69 1.516 1_556 S
C513 C72 1.516 . S
C527 C92 1.461 1_556 S
C531 C89 1.461 . S
C545 C109 1.516 . S
C549 C112 1.516 1_554 S
C563 C129 1.466 . S
C567 C132 1.466 . S
C581 C149 1.518 . S
C585 C152 1.518 . S
