# Generated by pormake.
# Topology tfs, (6)-cn, num edge types: 1
# Building blocks:
#     Node 0, Type 0, BuildingBlock: GEDQOX_clean_sbu_0, # of connection points: 6
#     Node 1, Type 0, BuildingBlock: GEDQOX_clean_sbu_0, # of connection points: 6
#     Node 2, Type 0, BuildingBlock: GEDQOX_clean_sbu_0, # of connection points: 6
#     Node 3, Type 0, BuildingBlock: GEDQOX_clean_sbu_0, # of connection points: 6
#     Node 4, Type 0, BuildingBlock: GEDQOX_clean_sbu_0, # of connection points: 6
#     Node 5, Type 0, BuildingBlock: GEDQOX_clean_sbu_0, # of connection points: 6
#     Edge 6, Type (0, 0), BuildingBlock: TEMPAE_clean_linker_10, # of connection points: 2
#     Edge 7, Type (0, 0), BuildingBlock: TEMPAE_clean_linker_10, # of connection points: 2
#     Edge 8, Type (0, 0), BuildingBlock: TEMPAE_clean_linker_10, # of connection points: 2
#     Edge 9, Type (0, 0), BuildingBlock: TEMPAE_clean_linker_10, # of connection points: 2
#     Edge 10, Type (0, 0), BuildingBlock: TEMPAE_clean_linker_10, # of connection points: 2
#     Edge 11, Type (0, 0), BuildingBlock: TEMPAE_clean_linker_10, # of connection points: 2
#     Edge 12, Type (0, 0), BuildingBlock: TEMPAE_clean_linker_10, # of connection points: 2
#     Edge 13, Type (0, 0), BuildingBlock: TEMPAE_clean_linker_10, # of connection points: 2
#     Edge 14, Type (0, 0), BuildingBlock: TEMPAE_clean_linker_10, # of connection points: 2
#     Edge 15, Type (0, 0), BuildingBlock: TEMPAE_clean_linker_10, # of connection points: 2
#     Edge 16, Type (0, 0), BuildingBlock: TEMPAE_clean_linker_10, # of connection points: 2
#     Edge 17, Type (0, 0), BuildingBlock: TEMPAE_clean_linker_10, # of connection points: 2
#     Edge 18, Type (0, 0), BuildingBlock: TEMPAE_clean_linker_10, # of connection points: 2
#     Edge 19, Type (0, 0), BuildingBlock: TEMPAE_clean_linker_10, # of connection points: 2
#     Edge 20, Type (0, 0), BuildingBlock: TEMPAE_clean_linker_10, # of connection points: 2
#     Edge 21, Type (0, 0), BuildingBlock: TEMPAE_clean_linker_10, # of connection points: 2
#     Edge 22, Type (0, 0), BuildingBlock: TEMPAE_clean_linker_10, # of connection points: 2
#     Edge 23, Type (0, 0), BuildingBlock: TEMPAE_clean_linker_10, # of connection points: 2
# Relax obj value: 0.564
# Max RMSD: 0.434
# Mean RMSD: 0.354
data_MOF--net-tfs--node1-GEDQOX_clean_sbu_0--edge1-TEMPAE_clean_linker_10
_symmetry_space_group_name_H-M    P1
_symmetry_Int_Tables_number       1
_symmetry_cell_setting            triclinic
loop_
_symmetry_equiv_pos_as_xyz
'x, y, z'
_cell_length_a     47.584693
_cell_length_b     51.713841
_cell_length_c     13.095903
_cell_angle_alpha  97.05695
_cell_angle_beta   87.546894
_cell_angle_gamma 112.93641
loop_
_atom_site_label
_atom_site_type_symbol
_atom_site_fract_x
_atom_site_fract_y
_atom_site_fract_z
_atom_type_partial_charge
Nd0 Nd 0.23566 0.39607 0.01244 0.0
Nd1 Nd 0.29588 0.434 0.90784 0.0
C2 C 0.19309 0.36347 0.12852 0.0
C3 C 0.16716 0.33587 0.12215 0.0
C4 C 0.17152 0.31029 0.1147 0.0
C5 C 0.14658 0.28467 0.12031 0.0
C6 C 0.11694 0.28425 0.13326 0.0
C7 C 0.11271 0.30981 0.13695 0.0
C8 C 0.13751 0.33527 0.1317 0.0
C9 C 0.23997 0.38195 0.80474 0.0
C10 C 0.3 0.38763 0.03542 0.0
C11 C 0.33641 0.46271 0.77709 0.0
C12 C 0.34737 0.49263 0.7616 0.0
C13 C 0.3303 0.50827 0.80133 0.0
C14 C 0.34347 0.53763 0.81487 0.0
C15 C 0.37424 0.55201 0.78948 0.0
C16 C 0.39032 0.5363 0.73918 0.0
C17 C 0.37699 0.50672 0.72601 0.0
C18 C 0.29149 0.44871 0.11489 0.0
C19 C 0.2371 0.45433 0.93882 0.0
O20 O 0.2206 0.36355 0.12021 0.0
O21 O 0.18985 0.38332 0.08309 0.0
O22 O 0.21447 0.37865 0.85138 0.0
O23 O 0.2611 0.38988 0.86989 0.0
O24 O 0.27454 0.38741 0.08057 0.0
O25 O 0.30948 0.39902 0.94904 0.0
O26 O 0.30789 0.44734 0.75176 0.0
O27 O 0.34376 0.45831 0.86669 0.0
O28 O 0.31765 0.45328 0.07001 0.0
O29 O 0.27067 0.43972 0.04887 0.0
O30 O 0.26252 0.45613 0.88839 0.0
O31 O 0.22446 0.43508 0.00304 0.0
H32 H 0.1942 0.3101 0.10769 0.0
H33 H 0.15055 0.26535 0.11755 0.0
H34 H 0.09035 0.31047 0.14989 0.0
H35 H 0.13354 0.35468 0.13902 0.0
H36 H 0.30765 0.49779 0.83062 0.0
H37 H 0.33033 0.54873 0.85491 0.0
H38 H 0.41389 0.54675 0.71696 0.0
H39 H 0.39052 0.49491 0.69513 0.0
Nd40 Nd 0.84206 0.26122 0.8288 0.0
Nd41 Nd 0.78055 0.24538 0.9493 0.0
C42 C 0.88484 0.26598 0.68904 0.0
C43 C 0.9044 0.2512 0.64607 0.0
C44 C 0.89922 0.23758 0.54494 0.0
C45 C 0.91982 0.22673 0.49784 0.0
C46 C 0.9461 0.22963 0.55079 0.0
C47 C 0.95026 0.2416 0.65405 0.0
C48 C 0.92957 0.25228 0.70144 0.0
C49 C 0.8439 0.24853 0.02545 0.0
C50 C 0.79116 0.19564 0.80458 0.0
C51 C 0.73728 0.23729 0.08865 0.0
C52 C 0.71524 0.25043 0.11523 0.0
C53 C 0.72398 0.27971 0.11645 0.0
C54 C 0.70191 0.29087 0.10793 0.0
C55 C 0.67092 0.27283 0.09578 0.0
C56 C 0.66216 0.24399 0.10649 0.0
C57 C 0.6842 0.23293 0.11667 0.0
C58 C 0.77905 0.2583 0.75345 0.0
C59 C 0.82722 0.31347 0.94761 0.0
O60 O 0.85568 0.25326 0.66831 0.0
O61 O 0.89056 0.27889 0.7829 0.0
O62 O 0.86661 0.26726 -0.01696 0.0
O63 O 0.82265 0.23637 0.96128 0.0
O64 O 0.81303 0.21563 0.76029 0.0
O65 O 0.77918 0.20134 0.8929 0.0
O66 O 0.7661 0.25274 0.10981 0.0
O67 O 0.73305 0.22302 -0.00303 0.0
O68 O 0.75552 0.23969 0.79366 0.0
O69 O 0.79997 0.26976 0.81843 0.0
O70 O 0.80383 0.2945 -0.00778 0.0
O71 O 0.84306 0.30571 0.87326 0.0
H72 H 0.88002 0.23653 0.50054 0.0
H73 H 0.91637 0.21799 0.41766 0.0
H74 H 0.97044 0.2441 0.69618 0.0
H75 H 0.93409 0.26249 0.7797 0.0
H76 H 0.74785 0.29369 0.11566 0.0
H77 H 0.70932 0.31331 0.10283 0.0
H78 H 0.63857 0.22942 0.09724 0.0
H79 H 0.67707 0.21027 0.11557 0.0
Nd80 Nd 0.60381 0.86653 0.40715 0.0
Nd81 Nd 0.56638 0.8068 0.4792 0.0
C82 C 0.6412 0.91178 0.32473 0.0
C83 C 0.6557 0.94221 0.35875 0.0
C84 C 0.68548 0.95753 0.32704 0.0
C85 C 0.70087 0.98578 0.36673 0.0
C86 C 0.68662 0.9992 0.43847 0.0
C87 C 0.65644 0.98398 0.468 0.0
C88 C 0.64116 0.95565 0.42895 0.0
C89 C 0.59559 0.86629 0.61389 0.0
C90 C 0.63736 0.82411 0.4614 0.0
C91 C 0.52678 0.76194 0.55362 0.0
C92 C 0.49828 0.74226 0.50231 0.0
C93 C 0.49098 0.71309 0.49479 0.0
C94 C 0.47051 0.69486 0.41915 0.0
C95 C 0.45734 0.70568 0.34971 0.0
C96 C 0.4625 0.73449 0.36373 0.0
C97 C 0.48278 0.75264 0.43944 0.0
C98 C 0.57725 0.80733 0.27284 0.0
C99 C 0.53065 0.84737 0.42944 0.0
O100 O 0.65063 0.89575 0.37158 0.0
O101 O 0.61163 0.90106 0.31045 0.0
O102 O 0.5979 0.88781 0.56769 0.0
O103 O 0.59996 0.84784 0.55236 0.0
O104 O 0.63604 0.84151 0.39657 0.0
O105 O 0.61427 0.8125 0.52285 0.0
O106 O 0.52824 0.78751 0.58521 0.0
O107 O 0.55137 0.7619 0.50493 0.0
O108 O 0.57467 0.78593 0.31975 0.0
O109 O 0.57115 0.82531 0.33188 0.0
O110 O 0.53153 0.82763 0.48291 0.0
O111 O 0.55493 0.86336 0.38044 0.0
H112 H 0.6971 0.94742 0.27336 0.0
H113 H 0.72402 0.99708 0.34206 0.0
H114 H 0.64503 0.99369 0.52404 0.0
H115 H 0.6183 0.94408 0.45553 0.0
H116 H 0.50299 0.70472 0.54139 0.0
H117 H 0.46702 0.67271 0.40958 0.0
H118 H 0.45234 0.74327 0.31193 0.0
H119 H 0.48814 0.77508 0.4428 0.0
Nd120 Nd 0.88622 0.68147 0.58653 0.0
Nd121 Nd 0.90438 0.6362 0.68056 0.0
C122 C 0.87567 0.71801 0.48464 0.0
C123 C 0.8522 0.73004 0.48073 0.0
C124 C 0.8398 0.73014 0.38549 0.0
C125 C 0.81782 0.74171 0.37989 0.0
C126 C 0.80794 0.75365 0.46952 0.0
C127 C 0.82037 0.75348 0.56489 0.0
C128 C 0.84216 0.74171 0.57054 0.0
C129 C 0.89444 0.68903 0.79464 0.0
C130 C 0.95774 0.68645 0.58158 0.0
C131 C 0.9116 0.60149 0.80011 0.0
C132 C 0.89643 0.57182 0.82382 0.0
C133 C 0.88213 0.56593 0.91929 0.0
C134 C 0.86978 0.53822 0.9455 0.0
C135 C 0.87133 0.51572 0.87652 0.0
C136 C 0.88512 0.52158 0.78025 0.0
C137 C 0.89755 0.54925 0.7543 0.0
C138 C 0.89155 0.62581 0.47532 0.0
C139 C 0.83071 0.62727 0.66518 0.0
O140 O 0.86767 0.69128 0.45016 0.0
O141 O 0.89276 0.72542 0.5675 0.0
O142 O 0.87337 0.69388 0.75041 0.0
O143 O 0.9105 0.68132 0.72879 0.0
O144 O 0.93591 0.69003 0.53236 0.0
O145 O 0.9514 0.67038 0.65744 0.0
O146 O 0.89811 0.61884 0.83073 0.0
O147 O 0.92434 0.60565 0.70958 0.0
O148 O 0.91173 0.61854 0.51412 0.0
O149 O 0.87874 0.63608 0.54434 0.0
O150 O 0.85173 0.6196 0.70092 0.0
O151 O 0.83795 0.64919 0.612 0.0
H152 H 0.84722 0.72133 0.31519 0.0
H153 H 0.80887 0.74168 0.30519 0.0
H154 H 0.81293 0.76211 0.63548 0.0
H155 H 0.85111 0.74175 0.64525 0.0
H156 H 0.88083 0.58281 0.97442 0.0
H157 H 0.8591 0.53443 0.0199 0.0
H158 H 0.88715 0.50486 0.72582 0.0
H159 H 0.90853 0.55293 0.6803 0.0
Nd160 Nd 0.24892 0.82916 0.43667 0.0
Nd161 Nd 0.24189 0.76994 0.31018 0.0
C162 C 0.26351 0.87713 0.56038 0.0
C163 C 0.28112 0.907 0.54802 0.0
C164 C 0.28853 0.92744 0.634 0.0
C165 C 0.3054 0.95591 0.62232 0.0
C166 C 0.31513 0.96437 0.52425 0.0
C167 C 0.30767 0.94365 0.43835 0.0
C168 C 0.29089 0.91522 0.4502 0.0
C169 C 0.23686 0.82259 0.23119 0.0
C170 C 0.18151 0.77978 0.40024 0.0
C171 C 0.24173 0.72818 0.17198 0.0
C172 C 0.22905 0.69731 0.14679 0.0
C173 C 0.22643 0.68586 0.04325 0.0
C174 C 0.21945 0.65699 0.01705 0.0
C175 C 0.21517 0.63919 0.09425 0.0
C176 C 0.21602 0.65049 0.19798 0.0
C177 C 0.22286 0.67933 0.22409 0.0
C178 C 0.23335 0.76936 0.51729 0.0
C179 C 0.31116 0.8198 0.35372 0.0
O180 O 0.23788 0.8651 0.50879 0.0
O181 O 0.27918 0.86117 0.55541 0.0
O182 O 0.22718 0.83807 0.29687 0.0
O183 O 0.25401 0.814 0.27391 0.0
O184 O 0.19942 0.8002 0.46799 0.0
O185 O 0.19283 0.7689 0.31939 0.0
O186 O 0.26064 0.73838 0.25039 0.0
O187 O 0.22354 0.74155 0.16562 0.0
O188 O 0.22029 0.74703 0.45233 0.0
O189 O 0.2521 0.789 0.47208 0.0
O190 O 0.29408 0.79376 0.31416 0.0
O191 O 0.29929 0.8375 0.39951 0.0
H192 H 0.28132 0.92138 0.71015 0.0
H193 H 0.31109 0.97125 0.69019 0.0
H194 H 0.31441 0.94943 0.36164 0.0
H195 H 0.28539 0.89964 0.38294 0.0
H196 H 0.23121 0.69947 -0.01738 0.0
H197 H 0.21915 0.64894 0.93657 0.0
H198 H 0.2124 0.63716 0.25899 0.0
H199 H 0.2246 0.68775 0.30457 0.0
Nd200 Nd 0.47777 0.30608 0.50851 0.0
Nd201 Nd 0.50558 0.36936 0.62028 0.0
C202 C 0.45865 0.25868 0.38186 0.0
C203 C 0.44858 0.22855 0.39405 0.0
C204 C 0.4401 0.20827 0.30767 0.0
C205 C 0.42826 0.17945 0.31963 0.0
C206 C 0.42459 0.17046 0.4184 0.0
C207 C 0.43384 0.19102 0.50464 0.0
C208 C 0.44576 0.21979 0.49251 0.0
C209 C 0.45469 0.31361 0.70101 0.0
C210 C 0.44816 0.35093 0.46534 0.0
C211 C 0.52974 0.41754 0.74194 0.0
C212 C 0.55575 0.44459 0.73545 0.0
C213 C 0.57303 0.45872 0.82419 0.0
C214 C 0.60073 0.48176 0.81737 0.0
C215 C 0.61172 0.49108 0.72139 0.0
C216 C 0.5936 0.47758 0.63315 0.0
C217 C 0.56596 0.45447 0.64004 0.0
C218 C 0.52721 0.36263 0.42581 0.0
C219 C 0.52815 0.32027 0.68477 0.0
O220 O 0.4406 0.27083 0.42234 0.0
O221 O 0.48761 0.27424 0.3997 0.0
O222 O 0.45564 0.28974 0.66036 0.0
O223 O 0.46274 0.33106 0.63566 0.0
O224 O 0.45629 0.33014 0.42603 0.0
O225 O 0.46057 0.36711 0.55165 0.0
O226 O 0.53738 0.39597 0.74465 0.0
O227 O 0.5061 0.41161 0.68231 0.0
O228 O 0.52938 0.38675 0.47368 0.0
O229 O 0.51987 0.3449 0.49001 0.0
O230 O 0.52449 0.34427 0.71082 0.0
O231 O 0.51573 0.30318 0.60099 0.0
H232 H 0.44217 0.21472 0.23111 0.0
H233 H 0.42181 0.16421 0.25155 0.0
H234 H 0.43101 0.18491 0.5818 0.0
H235 H 0.45213 0.23523 0.56013 0.0
H236 H 0.56574 0.45113 0.8983 0.0
H237 H 0.6142 0.49138 0.88669 0.0
H238 H 0.60115 0.48446 0.55827 0.0
H239 H 0.55312 0.44373 0.57036 0.0
C240 C 0.41592 0.37831 0.43757 0.0
C241 C 0.42481 0.35567 0.40751 0.0
C242 C 0.39477 0.38306 0.37834 0.0
C243 C 0.38267 0.36498 0.28662 0.0
C244 C 0.39119 0.34188 0.25704 0.0
C245 C 0.41178 0.33731 0.31833 0.0
C246 C 0.38573 0.40769 0.41258 0.0
C247 C 0.37949 0.32256 0.15846 0.0
C248 C 0.30951 0.36196 0.17107 0.0
C249 C 0.32074 0.37956 0.09287 0.0
C250 C 0.32946 0.35679 0.23395 0.0
C251 C 0.36135 0.37028 0.2204 0.0
C252 C 0.37277 0.38796 0.14115 0.0
C253 C 0.35229 0.39202 0.07738 0.0
C254 C 0.31649 0.33684 0.3147 0.0
C255 C 0.40651 0.40238 0.12175 0.0
H256 H 0.42569 0.39246 0.50649 0.0
H257 H 0.41831 0.31965 0.29401 0.0
H258 H 0.3926 0.42266 0.35355 0.0
H259 H 0.36056 0.4001 0.42015 0.0
H260 H 0.39638 0.41925 0.48728 0.0
H261 H 0.38678 0.30447 0.15007 0.0
H262 H 0.35422 0.31414 0.15513 0.0
H263 H 0.38811 0.3347 0.09166 0.0
H264 H 0.2851 0.35231 0.18335 0.0
H265 H 0.36114 0.40585 0.01763 0.0
H266 H 0.32392 0.31889 0.30014 0.0
H267 H 0.29115 0.32816 0.31584 0.0
H268 H 0.32539 0.34791 0.39177 0.0
H269 H 0.41996 0.40905 0.19425 0.0
H270 H 0.41168 0.42125 0.08062 0.0
H271 H 0.41417 0.38737 0.07248 0.0
C272 C 0.06146 0.25365 0.1246 0.0
C273 C 0.09086 0.25855 0.1583 0.0
C274 C 0.03578 0.23804 0.17939 0.0
C275 C 0.03985 0.22659 0.2677 0.0
C276 C 0.06866 0.22624 0.28742 0.0
C277 C 0.09418 0.24279 0.23354 0.0
C278 C 1.00511 0.2377 0.15234 0.0
C279 C 0.0732 0.2118 0.3748 0.0
C280 C 0.99972 0.24872 0.49449 0.0
C281 C 0.97168 0.22573 0.49256 0.0
C282 C 1.0227 0.24849 0.42497 0.0
C283 C 1.01785 0.22419 0.35334 0.0
C284 C 0.99054 0.19989 0.35712 0.0
C285 C 0.9674 0.20116 0.42551 0.0
C286 C 0.05122 0.27518 0.42361 0.0
C287 C 0.98483 0.17301 0.2865 0.0
H288 H 0.05876 0.26471 0.0629 0.0
H289 H 0.11676 0.2457 0.25836 0.0
H290 H 0.98724 0.21615 0.15301 0.0
H291 H 0.9989 0.25205 0.21062 0.0
H292 H 1.00515 0.24468 0.0754 0.0
H293 H 0.09351 0.20626 0.3618 0.0
H294 H 0.07685 0.22621 0.4475 0.0
H295 H 0.05278 0.19231 0.38444 0.0
H296 H 1.00287 0.26782 0.5456 0.0
H297 H 0.9457 0.18327 0.42459 0.0
H298 H 0.05377 0.28306 0.34724 0.0
H299 H 0.07166 0.27077 0.43721 0.0
H300 H 0.05089 0.29233 0.48314 0.0
H301 H 0.9695 0.17166 0.2228 0.0
H302 H 0.97299 0.15434 0.32865 0.0
H303 H 1.00618 0.17179 0.25326 0.0
C304 C 0.75971 0.14392 0.80246 0.0
C305 C 0.7786 0.16659 0.75063 0.0
C306 C 0.74587 0.11665 0.75012 0.0
C307 C 0.75073 0.11203 0.64316 0.0
C308 C 0.77013 0.13475 0.59068 0.0
C309 C 0.78396 0.16174 0.64516 0.0
C310 C 0.72563 0.09287 0.80899 0.0
C311 C 0.77559 0.13077 0.47644 0.0
C312 C 0.73317 0.03653 0.52493 0.0
C313 C 0.70359 0.02856 0.48607 0.0
C314 C 0.74894 0.06375 0.57519 0.0
C315 C 0.73489 0.08353 0.58601 0.0
C316 C 0.7053 0.07581 0.54487 0.0
C317 C 0.68993 0.04834 0.49589 0.0
C318 C 0.78037 0.07114 0.61867 0.0
C319 C 0.68974 0.09645 0.55369 0.0
H320 H 0.75554 0.14751 0.88396 0.0
H321 H 0.79826 0.17921 0.60422 0.0
H322 H 0.70195 0.08454 0.77869 0.0
H323 H 0.73356 0.07519 0.79833 0.0
H324 H 0.72526 0.09971 0.89267 0.0
H325 H 0.75395 0.1253 0.43408 0.0
H326 H 0.79302 0.15007 0.4487 0.0
H327 H 0.78312 0.11299 0.457 0.0
H328 H 0.74366 0.02118 0.51851 0.0
H329 H 0.66719 0.04232 0.46501 0.0
H330 H 0.78019 0.07636 0.70339 0.0
H331 H 0.79701 0.09014 0.58694 0.0
H332 H 0.78842 0.05359 0.60137 0.0
H333 H 0.68627 0.10263 0.63594 0.0
H334 H 0.66724 0.08751 0.51393 0.0
H335 H 0.70438 0.116 0.52037 0.0
C336 C 0.78808 0.79183 0.52141 0.0
C337 C 0.78454 0.76598 0.46394 0.0
C338 C 0.76572 0.80326 0.51937 0.0
C339 C 0.739 0.78837 0.45909 0.0
C340 C 0.73551 0.76248 0.3997 0.0
C341 C 0.75835 0.75166 0.40254 0.0
C342 C 0.77048 0.83105 0.583 0.0
C343 C 0.70726 0.74578 0.3352 0.0
C344 C 0.66633 0.79965 0.53693 0.0
C345 C 0.66446 0.81662 0.46371 0.0
C346 C 0.69066 0.79073 0.53707 0.0
C347 C 0.71391 0.79902 0.46244 0.0
C348 C 0.71263 0.81675 0.3899 0.0
C349 C 0.6879 0.82532 0.39129 0.0
C350 C 0.6911 0.77189 0.61596 0.0
C351 C 0.73711 0.82626 0.30968 0.0
H352 H 0.80846 0.80322 0.56791 0.0
H353 H 0.7553 0.73155 0.3587 0.0
H354 H 0.76828 0.84616 0.53376 0.0
H355 H 0.7526 0.8278 0.6429 0.0
H356 H 0.79319 0.84072 0.62138 0.0
H357 H 0.68694 0.73914 0.38566 0.0
H358 H 0.70371 0.75917 0.28114 0.0
H359 H 0.70857 0.72663 0.29017 0.0
H360 H 0.64851 0.79295 0.59383 0.0
H361 H 0.68671 0.83845 0.33451 0.0
H362 H 0.71275 0.78155 0.6605 0.0
H363 H 0.68998 0.75124 0.5766 0.0
H364 H 0.67176 0.768 0.67061 0.0
H365 H 0.75988 0.83676 0.34717 0.0
H366 H 0.73361 0.84112 0.26203 0.0
H367 H 0.73736 0.80764 0.25821 0.0
C368 C 0.12872 0.74332 0.35838 0.0
C369 C 0.14805 0.76746 0.41975 0.0
C370 C 0.09743 0.73043 0.38056 0.0
C371 C 0.085 0.74203 0.46569 0.0
C372 C 0.10425 0.76676 0.52645 0.0
C373 C 0.13547 0.77907 0.50312 0.0
C374 C 0.07784 0.70391 0.31448 0.0
C375 C 0.09197 0.77996 0.61751 0.0
C376 C 0.99861 0.72069 0.48015 0.0
C377 C 0.99021 0.70065 0.55089 0.0
C378 C 0.02931 0.73434 0.45171 0.0
C379 C 0.05221 0.72762 0.49407 0.0
C380 C 0.04383 0.70723 0.56469 0.0
C381 C 1.01306 0.69413 0.59248 0.0
C382 C 0.03729 0.75614 0.37702 0.0
C383 C 0.06742 0.69921 0.61098 0.0
H384 H 0.13812 0.73407 0.29405 0.0
H385 H 0.1501 0.79768 0.55125 0.0
H386 H 0.06874 0.68605 0.36184 0.0
H387 H 0.05797 0.70671 0.28371 0.0
H388 H 0.09066 0.69812 0.24891 0.0
H389 H 0.10947 0.80009 0.65329 0.0
H390 H 0.07222 0.78416 0.59347 0.0
H391 H 0.08372 0.7651 0.67667 0.0
H392 H 0.98123 0.72594 0.44752 0.0
H393 H 1.00693 0.6786 0.6467 0.0
H394 H 0.04891 0.74995 0.30887 0.0
H395 H 0.05344 0.77682 0.41389 0.0
H396 H 1.01685 0.75889 0.3505 0.0
H397 H 0.07982 0.69146 0.54898 0.0
H398 H 0.05715 0.68256 0.66308 0.0
H399 H 0.08454 0.71804 0.65518 0.0
C400 C 0.32454 0.0158 0.5662 0.0
C401 C 0.33264 0.9947 0.51116 0.0
C402 C 0.3403 0.0444 0.55243 0.0
C403 C 0.36468 0.05212 0.48155 0.0
C404 C 0.37321 0.031 0.42657 0.0
C405 C 0.35714 1.00257 0.44218 0.0
C406 C 0.33055 0.06631 0.61264 0.0
C407 C 0.3991 0.0384 0.3504 0.0
C408 C 0.3846 0.12187 0.37226 0.0
C409 C 0.41009 0.13986 0.4319 0.0
C410 C 0.36988 0.09322 0.38677 0.0
C411 C 0.38076 0.08226 0.46319 0.0
C412 C 0.40665 0.10019 0.523 0.0
C413 C 0.42104 0.12874 0.5065 0.0
C414 C 0.34236 0.07477 0.32129 0.0
C415 C 0.41895 0.08927 0.6052 0.0
H416 H 0.30542 1.0099 0.61864 0.0
H417 H 0.36387 0.98647 0.40053 0.0
H418 H 0.3502 0.08263 0.65668 0.0
H419 H 0.32273 0.0772 0.55902 0.0
H420 H 0.3118 0.05695 0.66719 0.0
H421 H 0.40324 0.01954 0.3152 0.0
H422 H 0.39396 0.04866 0.28813 0.0
H423 H 0.42039 0.05377 0.38891 0.0
H424 H 0.37566 0.13032 0.31561 0.0
H425 H 0.44095 0.14238 0.552 0.0
H426 H 0.32204 0.06658 0.37089 0.0
H427 H 0.34608 0.05623 0.28083 0.0
H428 H 0.33732 0.08633 0.26312 0.0
H429 H 0.40118 0.08121 0.66405 0.0
H430 H 0.43954 0.10584 0.64403 0.0
H431 H 0.42484 0.07132 0.57106 0.0
C432 C 0.23134 0.59994 0.11902 0.0
C433 C 0.21301 0.60975 0.06695 0.0
C434 C 0.23176 0.57312 0.08971 0.0
C435 C 0.21319 0.55551 0.00663 0.0
C436 C 0.19409 0.56499 0.95505 0.0
C437 C 0.19437 0.59213 -0.01457 0.0
C438 C 0.25275 0.56395 0.14602 0.0
C439 C 0.17377 0.54667 0.86691 0.0
C440 C 0.24224 0.50058 0.88343 0.0
C441 C 0.22643 0.47773 0.93923 0.0
C442 C 0.23698 0.52562 0.90031 0.0
C443 C 0.21476 0.52758 0.97285 0.0
C444 C 0.19672 0.50367 0.02214 0.0
C445 C 0.20287 0.47906 0.00517 0.0
C446 C 0.25689 0.55064 0.84643 0.0
C447 C 0.17238 0.50474 0.09844 0.0
H448 H 0.24621 0.61367 0.18079 0.0
H449 H 0.18009 0.59964 0.94527 0.0
H450 H 0.23946 0.5438 0.17794 0.0
H451 H 0.2696 0.56008 0.09163 0.0
H452 H 0.26533 0.57998 0.21004 0.0
H453 H 0.15904 0.55651 0.83863 0.0
H454 H 0.18794 0.54273 0.80217 0.0
H455 H 0.15902 0.52581 0.89106 0.0
H456 H 0.2599 0.49955 0.83029 0.0
H457 H 0.19017 0.4614 0.04765 0.0
H458 H 0.27296 0.56688 0.90291 0.0
H459 H 0.24286 0.5605 0.81387 0.0
H460 H 0.27043 0.54469 0.78357 0.0
H461 H 0.18335 0.51794 0.17033 0.0
H462 H 0.15738 0.48337 0.11793 0.0
H463 H 0.15807 0.51461 0.06774 0.0
C464 C 0.55876 0.3301 0.84543 0.0
C465 C 0.54637 0.31239 0.75461 0.0
C466 C 0.57679 0.32366 0.91165 0.0
C467 C 0.58303 0.29911 0.8857 0.0
C468 C 0.56978 0.28058 0.79619 0.0
C469 C 0.55153 0.28742 0.73163 0.0
C470 C 0.59005 0.34381 0.00716 0.0
C471 C 0.5755 0.25388 0.7676 0.0
C472 C 0.65801 0.30029 0.97486 0.0
C473 C 0.64885 0.2827 0.05379 0.0
C474 C 0.63679 0.30622 0.92154 0.0
C475 C 0.60551 0.29408 0.94692 0.0
C476 C 0.5961 0.27683 0.02815 0.0
C477 C 0.61798 0.2717 0.08151 0.0
C478 C 0.64773 0.32437 0.83443 0.0
C479 C 0.56312 0.26294 0.05884 0.0
H480 H 0.55478 0.34933 0.86463 0.0
H481 H 0.54176 0.27342 0.6624 0.0
H482 H 0.61388 0.3579 -0.00825 0.0
H483 H 0.57689 0.35723 0.03021 0.0
H484 H 0.59053 0.33227 0.0727 0.0
H485 H 0.5628 0.24127 0.69716 0.0
H486 H 0.60025 0.25929 0.75449 0.0
H487 H 0.56864 0.2406 0.83195 0.0
H488 H 0.68165 0.30834 0.95082 0.0
H489 H 0.61069 0.2583 0.14305 0.0
H490 H 0.64075 0.34262 0.84771 0.0
H491 H 0.63702 0.31189 0.76108 0.0
H492 H 0.67292 0.33255 0.82553 0.0
H493 H 0.56 0.2725 0.13693 0.0
H494 H 0.55727 0.24014 0.06388 0.0
H495 H 0.54684 0.26483 0.00511 0.0
C496 C 0.45171 0.6975 0.15868 0.0
C497 C 0.44217 0.68785 0.2549 0.0
C498 C 0.44118 0.67952 0.06718 0.0
C499 C 0.42055 0.65133 0.07239 0.0
C500 C 0.40949 0.642 0.16916 0.0
C501 C 0.42063 0.66035 0.25942 0.0
C502 C 0.45365 0.69019 0.96571 0.0
C503 C 0.38707 0.61215 0.1777 0.0
C504 C 0.37538 0.60042 0.84981 0.0
C505 C 0.3905 0.58172 0.83574 0.0
C506 C 0.38612 0.62465 0.92165 0.0
C507 C 0.41288 0.6305 0.97883 0.0
C508 C 0.4302 0.61367 0.95568 0.0
C509 C 0.41872 0.58939 0.88481 0.0
C510 C 0.36724 0.64233 0.94308 0.0
C511 C 0.45932 0.61962 0.01322 0.0
H512 H 0.46871 0.71868 0.15499 0.0
H513 H 0.41312 0.65298 0.33375 0.0
H514 H 0.47027 0.6809 0.93606 0.0
H515 H 0.43516 0.68359 0.90754 0.0
H516 H 0.46543 0.71359 0.97337 0.0
H517 H 0.37866 0.60904 0.25753 0.0
H518 H 0.3672 0.60674 0.12607 0.0
H519 H 0.39816 0.59711 0.15298 0.0
H520 H 0.35395 0.59505 0.81019 0.0
H521 H 0.43065 0.57518 0.87525 0.0
H522 H 0.38199 0.66518 0.95418 0.0
H523 H 0.35425 0.63697 0.01519 0.0
H524 H 0.3507 0.63844 0.87995 0.0
H525 H 0.47424 0.64241 0.01854 0.0
H526 H 0.47226 0.60722 0.97593 0.0
H527 H 0.45372 0.61404 0.09285 0.0
C528 C 0.84433 0.46323 0.83314 0.0
C529 C 0.8599 0.48635 0.90552 0.0
C530 C 0.83659 0.43535 0.85477 0.0
C531 C 0.84454 0.43034 0.95136 0.0
C532 C 0.8587 0.45352 0.02696 0.0
C533 C 0.86624 0.48124 0.00313 0.0
C534 C 0.82132 0.41129 0.77204 0.0
C535 C 0.86743 0.44913 0.13096 0.0
C536 C 0.81019 0.35329 0.00549 0.0
C537 C 0.83309 0.34401 0.96739 0.0
C538 C 0.81404 0.38175 0.00571 0.0
C539 C 0.84144 0.40126 0.96743 0.0
C540 C 0.8653 0.39227 0.93539 0.0
C541 C 0.86082 0.36384 0.93574 0.0
C542 C 0.78814 0.39051 0.04132 0.0
C543 C 0.89501 0.41231 0.89491 0.0
H544 H 0.83879 0.46696 0.75832 0.0
H545 H 0.87839 0.49895 0.05946 0.0
H546 H 0.83735 0.40108 0.74482 0.0
H547 H 0.801 0.39498 0.80333 0.0
H548 H 0.81412 0.4185 0.70494 0.0
H549 H 0.87415 0.46872 0.18589 0.0
H550 H 0.84825 0.43213 0.16424 0.0
H551 H 0.88695 0.44238 0.12231 0.0
H552 H 0.78867 0.33811 0.02994 0.0
H553 H 0.87878 0.35691 0.90734 0.0
H554 H 0.77751 0.39426 0.97384 0.0
H555 H 0.79671 0.4106 0.09343 0.0
H556 H 0.77026 0.3741 0.08182 0.0
H557 H 0.89076 0.41891 0.82153 0.0
H558 H 0.91212 0.40258 0.88075 0.0
H559 H 0.90487 0.43168 0.95007 0.0
C560 C 0.35816 0.81099 0.2985 0.0
C561 C 0.34498 0.82879 0.35114 0.0
C562 C 0.38961 0.81738 0.30532 0.0
C563 C 0.40853 0.84219 0.36648 0.0
C564 C 0.39569 0.86099 0.41555 0.0
C565 C 0.36411 0.8541 0.40723 0.0
C566 C 0.4023 0.79677 0.2512 0.0
C567 C 0.41501 0.88766 0.48136 0.0
C568 C 0.47667 0.83586 0.48518 0.0
C569 C 0.50058 0.84942 0.41933 0.0
C570 C 0.447 0.83431 0.47077 0.0
C571 C 0.44079 0.84658 0.38811 0.0
C572 C 0.465 0.86129 0.32355 0.0
C573 C 0.49466 0.8626 0.34005 0.0
C574 C 0.42203 0.81855 0.54198 0.0
C575 C 0.45933 0.87464 0.23459 0.0
H576 H 0.34376 0.7915 0.25414 0.0
H577 H 0.3543 0.8681 0.44806 0.0
H578 H 0.42274 0.80802 0.20592 0.0
H579 H 0.40956 0.78661 0.30906 0.0
H580 H 0.3853 0.77995 0.19881 0.0
H581 H 0.40253 0.9017 0.50389 0.0
H582 H 0.42211 0.88207 0.55235 0.0
H583 H 0.43608 0.89956 0.44006 0.0
H584 H 0.48096 0.82577 0.54724 0.0
H585 H 0.51291 0.87303 0.28849 0.0
H586 H 0.40509 0.79951 0.49809 0.0
H587 H 0.4098 0.83203 0.57478 0.0
H588 H 0.43095 0.81174 0.6063 0.0
H589 H 0.44499 0.85786 0.17577 0.0
H590 H 0.48089 0.88757 0.19778 0.0
H591 H 0.44662 0.88822 0.26076 0.0
C592 C 0.775 0.61513 0.63513 0.0
C593 C 0.798 0.60956 0.68014 0.0
C594 C 0.74407 0.59747 0.6437 0.0
C595 C 0.7359 0.57371 0.69891 0.0
C596 C 0.75893 0.56844 0.74696 0.0
C597 C 0.78965 0.58634 0.73674 0.0
C598 C 0.7202 0.60381 0.59134 0.0
C599 C 0.7512 0.54344 0.80704 0.0
C600 C 0.65401 0.53699 0.78711 0.0
C601 C 0.64286 0.51337 0.7126 0.0
C602 C 0.68408 0.55708 0.78285 0.0
C603 C 0.70347 0.55351 0.70209 0.0
C604 C 0.69217 0.53004 0.62559 0.0
C605 C 0.6621 0.51027 0.63189 0.0
C606 C 0.69527 0.58185 0.86574 0.0
C607 C 0.7121 0.52542 0.53824 0.0
H608 H 0.78113 0.63301 0.59134 0.0
H609 H 0.80715 0.5818 0.77193 0.0
H610 H 0.70865 0.58641 0.53001 0.0
H611 H 0.70246 0.60504 0.64727 0.0
H612 H 0.7301 0.62395 0.55628 0.0
H613 H 0.77157 0.54326 0.84491 0.0
H614 H 0.73403 0.54361 0.86688 0.0
H615 H 0.74096 0.52352 0.75476 0.0
H616 H 0.63924 0.53975 0.84911 0.0
H617 H 0.65395 0.49187 0.57496 0.0
H618 H 0.704 0.60198 0.83067 0.0
H619 H 0.71452 0.58108 0.9084 0.0
H620 H 0.67707 0.5821 0.92146 0.0
H621 H 0.72151 0.54435 0.49626 0.0
H622 H 0.69951 0.50676 0.48267 0.0
H623 H 0.73174 0.5223 0.56929 0.0
C624 C 0.25976 0.37945 0.62795 0.0
C625 C 0.24568 0.39163 0.70337 0.0
C626 C 0.26798 0.39069 0.53407 0.0
C627 C 0.26452 0.41605 0.52057 0.0
C628 C 0.25115 0.42885 0.59863 0.0
C629 C 0.24019 0.41543 0.68667 0.0
C630 C 0.27961 0.37512 0.44893 0.0
C631 C 0.24869 0.45675 0.58963 0.0
C632 C 0.30875 0.45191 0.2954 0.0
C633 C 0.28523 0.44434 0.22332 0.0
C634 C 0.30221 0.44415 0.39543 0.0
C635 C 0.27176 0.42744 0.4207 0.0
C636 C 0.24795 0.42049 0.34867 0.0
C637 C 0.25495 0.42982 0.25201 0.0
C638 C 0.32767 0.4537 0.47374 0.0
C639 C 0.21537 0.4015 0.37021 0.0
H640 H 0.26374 0.36089 0.64174 0.0
H641 H 0.2285 0.42427 0.74449 0.0
H642 H 0.26559 0.37069 0.37837 0.0
H643 H 0.3034 0.38832 0.4296 0.0
H644 H 0.27892 0.35479 0.47063 0.0
H645 H 0.24034 0.46505 0.66169 0.0
H646 H 0.27134 0.47261 0.57093 0.0
H647 H 0.23287 0.45438 0.52616 0.0
H648 H 0.33212 0.46351 0.27332 0.0
H649 H 0.23667 0.4243 0.19679 0.0
H650 H 0.32222 0.46611 0.54127 0.0
H651 H 0.34999 0.46694 0.44206 0.0
H652 H 0.32987 0.43521 0.50188 0.0
H653 H 0.21381 0.37945 0.36793 0.0
H654 H 0.1991 0.40193 0.31277 0.0
H655 H 0.20788 0.4075 0.44747 0.0
C656 C 0.81356 0.27924 0.61462 0.0
C657 C 0.78466 0.26098 0.64374 0.0
C658 C 0.82305 0.27794 0.5129 0.0
C659 C 0.80201 0.25984 0.43689 0.0
C660 C 0.77146 0.24384 0.46423 0.0
C661 C 0.76335 0.24394 0.56852 0.0
C662 C 0.85611 0.29477 0.48864 0.0
C663 C 0.7474 0.2259 0.38533 0.0
C664 C 0.83371 0.2773 0.17396 0.0
C665 C 0.83721 0.25245 0.13419 0.0
C666 C 0.81995 0.27918 0.26921 0.0
C667 C 0.81289 0.25679 0.33075 0.0
C668 C 0.81884 0.23245 0.29373 0.0
C669 C 0.82963 0.23004 0.19333 0.0
C670 C 0.81228 0.30481 0.29991 0.0
C671 C 0.81378 0.2089 0.35905 0.0
H672 H 0.82978 0.29316 0.6726 0.0
H673 H 0.74072 0.23029 0.59096 0.0
H674 H 0.86579 0.28149 0.43795 0.0
H675 H 0.85779 0.31288 0.44807 0.0
H676 H 0.87048 0.3034 0.55913 0.0
H677 H 0.7254 0.228 0.40521 0.0
H678 H 0.75374 0.23161 0.30627 0.0
H679 H 0.74347 0.20333 0.38658 0.0
H680 H 0.83997 0.2947 0.12793 0.0
H681 H 0.83234 0.21079 0.16133 0.0
H682 H 0.83369 0.32392 0.31256 0.0
H683 H 0.79796 0.30316 0.36977 0.0
H684 H 0.79997 0.30814 0.23575 0.0
H685 H 0.82707 0.19599 0.33028 0.0
H686 H 0.78929 0.19471 0.35658 0.0
H687 H 0.82028 0.21727 0.44056 0.0
C688 C 0.61549 0.84082 0.17207 0.0
C689 C 0.59302 0.81381 0.17624 0.0
C690 C 0.62525 0.85133 0.07901 0.0
C691 C 0.61104 0.83448 -0.01125 0.0
C692 C 0.59138 0.80574 -0.00912 0.0
C693 C 0.58251 0.79552 0.08622 0.0
C694 C 0.64716 0.88179 0.0797 0.0
C695 C 0.57701 0.78699 0.89391 0.0
C696 C 0.58394 0.86796 0.79726 0.0
C697 C 0.60488 0.86894 0.71916 0.0
C698 C 0.5869 0.85824 0.88933 0.0
C699 C 0.61073 0.84865 0.89946 0.0
C700 C 0.6335 0.85223 0.82413 0.0
C701 C 0.63072 0.86322 0.73538 0.0
C702 C 0.56323 0.85616 0.97209 0.0
C703 C 0.65898 0.84198 0.83199 0.0
H704 H 0.62371 0.85475 0.24133 0.0
H705 H 0.5653 0.77444 0.09021 0.0
H706 H 0.66028 0.88573 0.0073 0.0
H707 H 0.63405 0.89558 0.08948 0.0
H708 H 0.6636 0.88809 0.14473 0.0
H709 H 0.56761 0.76427 0.90591 0.0
H710 H 0.55807 0.79233 0.86937 0.0
H711 H 0.59388 0.79045 0.83057 0.0
H712 H 0.56403 0.87236 0.78311 0.0
H713 H 0.64691 0.86424 0.67347 0.0
H714 H 0.5479 0.86673 0.95519 0.0
H715 H 0.57449 0.86594 0.0476 0.0
H716 H 0.54908 0.83361 0.97916 0.0
H717 H 0.66819 0.84649 0.91147 0.0
H718 H 0.67797 0.85172 0.77871 0.0
H719 H 0.6499 0.81873 0.81118 0.0
C720 C 0.90701 0.62261 0.2918 0.0
C721 C 0.88692 0.62663 0.36675 0.0
C722 C 0.90577 0.62929 0.19214 0.0
C723 C 0.88488 0.64143 0.17028 0.0
C724 C 0.86324 0.64363 0.24472 0.0
C725 C 0.86374 0.6349 0.34058 0.0
C726 C 0.92791 0.62439 0.11376 0.0
C727 C 0.84069 0.65673 0.22648 0.0
C728 C 0.91416 0.69151 0.9678 0.0
C729 C 0.89035 0.6799 0.8965 0.0
C730 C 0.91204 0.67983 0.05998 0.0
C731 C 0.8871 0.65419 0.07436 0.0
C732 C 0.86331 0.64221 0.00039 0.0
C733 C 0.86431 0.65652 0.9161 0.0
C734 C 0.93673 0.69492 0.14025 0.0
C735 C 0.83745 0.61375 0.00476 0.0
H736 H 0.92441 0.6154 0.31178 0.0
H737 H 0.8472 0.63655 0.39785 0.0
H738 H 0.92413 0.62835 0.03524 0.0
H739 H 0.95159 0.63819 0.13855 0.0
H740 H 0.92611 0.60224 0.11074 0.0
H741 H 0.83016 0.66213 0.29894 0.0
H742 H 0.85182 0.67621 0.18817 0.0
H743 H 0.82186 0.64155 0.17642 0.0
H744 H 0.93421 0.7098 0.95188 0.0
H745 H 0.84554 0.64817 0.862 0.0
H746 H 0.92759 0.69256 0.2195 0.0
H747 H 0.94795 0.71784 0.13201 0.0
H748 H 0.95453 0.68598 0.13021 0.0
H749 H 0.83867 0.60296 0.07152 0.0
H750 H 0.83759 0.59969 0.93366 0.0
H751 H 0.81527 0.6162 0.00541 0.0
C752 C 0.23432 0.80139 0.67258 0.0
C753 C 0.2212 0.77446 0.61866 0.0
C754 C 0.22419 0.80747 0.76994 0.0
C755 C 0.20148 0.78542 0.81672 0.0
C756 C 0.18577 0.75899 0.75873 0.0
C757 C 0.19594 0.7537 0.6593 0.0
C758 C 0.24073 0.83648 0.82732 0.0
C759 C 0.16025 0.73556 0.80448 0.0
C760 C 0.23714 0.79377 0.06912 0.0
C761 C 0.22417 0.81047 0.12878 0.0
C762 C 0.22615 0.78143 0.97114 0.0
C763 C 0.20279 0.78753 0.92938 0.0
C764 C 0.18804 0.80277 -0.00841 0.0
C765 C 0.199 0.8142 0.0917 0.0
C766 C 0.24189 0.76434 0.909 0.0
C767 C 0.16233 0.80879 0.95077 0.0
H768 H 0.25345 0.81754 0.64034 0.0
H769 H 0.18494 0.73315 0.61547 0.0
H770 H 0.22434 0.8443 0.86915 0.0
H771 H 0.25658 0.83531 0.8847 0.0
H772 H 0.25426 0.85214 0.77489 0.0
H773 H 0.14351 0.72192 0.74417 0.0
H774 H 0.16979 0.72212 0.83881 0.0
H775 H 0.14821 0.744 0.86576 0.0
H776 H 0.25655 0.7908 0.09822 0.0
H777 H 0.1885 0.82661 0.13935 0.0
H778 H 0.25621 0.77666 0.84878 0.0
H779 H 0.22486 0.74448 0.87022 0.0
H780 H 0.25683 0.75876 0.95748 0.0
H781 H 0.14566 0.809 0.01258 0.0
H782 H 0.15022 0.79302 0.88553 0.0
H783 H 0.17165 0.83002 0.92368 0.0
C784 C 0.49912 0.36992 0.28627 0.0
C785 C 0.51571 0.35534 0.32007 0.0
C786 C 0.48413 0.36148 0.19183 0.0
C787 C 0.48843 0.33978 0.12455 0.0
C788 C 0.50623 0.32562 0.1568 0.0
C789 C 0.51875 0.33295 0.25634 0.0
C790 C 0.46456 0.37664 0.16385 0.0
C791 C 0.51263 0.30299 0.08783 0.0
C792 C 0.44456 0.30129 0.88005 0.0
C793 C 0.45727 0.32173 0.81245 0.0
C794 C 0.45267 0.30756 -0.01552 0.0
C795 C 0.47638 0.33382 0.01843 0.0
C796 C 0.48864 0.35466 0.94988 0.0
C797 C 0.47686 0.34896 0.85028 0.0
C798 C 0.43656 0.28545 0.05555 0.0
C799 C 0.51562 0.38229 0.97626 0.0
H800 H 0.49642 0.38717 0.33604 0.0
H801 H 0.53147 0.32165 0.28326 0.0
H802 H 0.47846 0.39494 0.12294 0.0
H803 H 0.44519 0.36244 0.11352 0.0
H804 H 0.45556 0.38531 0.23344 0.0
H805 H 0.49667 0.28193 0.10683 0.0
H806 H 0.51043 0.30429 0.00487 0.0
H807 H 0.53599 0.30448 0.10239 0.0
H808 H 0.42866 0.28032 0.85114 0.0
H809 H 0.48541 0.36506 0.79895 0.0
H810 H 0.43898 0.29426 0.13782 0.0
H811 H 0.44584 0.26868 0.04411 0.0
H812 H 0.41187 0.27512 0.03603 0.0
H813 H 0.50935 0.40026 0.96437 0.0
H814 H 0.5346 0.38317 0.92316 0.0
H815 H 0.52489 0.38554 0.05491 0.0
loop_
_geom_bond_atom_site_label_1
_geom_bond_atom_site_label_2
_geom_bond_distance
_geom_bond_site_symmetry_2
_ccdc_geom_bond_type
Nd0 C2 2.836 1_556 S
Nd0 O20 2.500 1_556 S
Nd0 O21 2.492 . S
Nd0 O22 2.487 . S
Nd0 O23 2.682 . S
Nd0 O24 2.410 . S
Nd0 O29 2.414 1_556 S
Nd0 O31 2.424 . S
Nd1 C11 2.835 1_554 S
Nd1 O23 2.413 1_554 S
Nd1 O25 2.425 . S
Nd1 O26 2.498 1_554 S
Nd1 O27 2.492 . S
Nd1 O28 2.489 . S
Nd1 O29 2.683 . S
Nd1 O30 2.409 . S
C2 Nd0 2.836 1_554 S
C2 C3 1.498 . S
C2 O20 1.258 . S
C2 O21 1.239 1_554 S
C3 C2 1.498 . S
C3 C4 1.366 . S
C3 C8 1.407 . S
C4 C3 1.366 . S
C4 C5 1.392 . S
C4 H32 0.930 . S
C5 C4 1.392 . S
C5 C6 1.398 . S
C5 H33 0.929 . S
C6 C5 1.398 . S
C6 C7 1.352 . S
C7 C6 1.352 . S
C7 C8 1.384 . S
C7 H34 0.930 1_554 S
C8 C3 1.407 . S
C8 C7 1.384 . S
C8 H35 0.929 1_554 S
C9 O22 1.241 . S
C9 O23 1.273 . S
C10 O24 1.251 1_554 S
C10 O25 1.268 . S
C11 Nd1 2.835 1_556 S
C11 C12 1.498 . S
C11 O26 1.258 . S
C11 O27 1.239 1_556 S
C12 C11 1.498 . S
C12 C13 1.366 . S
C12 C17 1.407 . S
C13 C12 1.366 . S
C13 C14 1.392 . S
C13 H36 0.930 . S
C14 C13 1.392 . S
C14 C15 1.398 . S
C14 H37 0.929 . S
C15 C14 1.398 . S
C15 C16 1.352 . S
C16 C15 1.352 . S
C16 C17 1.384 . S
C16 H38 0.930 1_556 S
C17 C12 1.407 . S
C17 C16 1.384 . S
C17 H39 0.929 1_556 S
C18 O28 1.241 . S
C18 O29 1.273 . S
C19 O30 1.251 1_556 S
C19 O31 1.268 . S
O20 Nd0 2.500 1_554 S
O20 C2 1.258 . S
O21 Nd0 2.492 . S
O21 C2 1.239 1_556 S
O22 Nd0 2.487 . S
O22 C9 1.241 . S
O23 Nd0 2.682 . S
O23 Nd1 2.413 1_556 S
O23 C9 1.273 . S
O24 Nd0 2.410 . S
O24 C10 1.251 1_556 S
O25 Nd1 2.425 . S
O25 C10 1.268 . S
O26 Nd1 2.498 1_556 S
O26 C11 1.258 . S
O27 Nd1 2.492 . S
O27 C11 1.239 1_554 S
O28 Nd1 2.489 . S
O28 C18 1.241 . S
O29 Nd0 2.414 1_554 S
O29 Nd1 2.683 . S
O29 C18 1.273 . S
O30 Nd1 2.409 . S
O30 C19 1.251 1_554 S
O31 Nd0 2.424 . S
O31 C19 1.268 . S
H32 C4 0.930 . S
H33 C5 0.929 . S
H34 C7 0.930 1_556 S
H35 C8 0.929 1_556 S
H36 C13 0.930 . S
H37 C14 0.929 . S
H38 C16 0.930 1_554 S
H39 C17 0.929 1_554 S
Nd40 C42 2.836 1_554 S
Nd40 O60 2.500 1_554 S
Nd40 O61 2.492 . S
Nd40 O62 2.487 . S
Nd40 O63 2.682 . S
Nd40 O64 2.410 1_554 S
Nd40 O69 2.414 1_554 S
Nd40 O71 2.424 . S
Nd41 C51 2.836 1_556 S
Nd41 O63 2.414 1_556 S
Nd41 O65 2.424 . S
Nd41 O66 2.500 1_556 S
Nd41 O67 2.492 . S
Nd41 O68 2.487 . S
Nd41 O69 2.682 . S
Nd41 O70 2.410 1_556 S
C42 Nd40 2.836 1_556 S
C42 C43 1.498 . S
C42 O60 1.258 . S
C42 O61 1.239 1_556 S
C43 C42 1.498 . S
C43 C44 1.366 . S
C43 C48 1.407 . S
C44 C43 1.366 . S
C44 C45 1.392 . S
C44 H72 0.930 . S
C45 C44 1.392 . S
C45 C46 1.398 . S
C45 H73 0.929 . S
C46 C45 1.398 . S
C46 C47 1.352 . S
C47 C46 1.352 . S
C47 C48 1.384 . S
C47 H74 0.930 . S
C48 C43 1.407 . S
C48 C47 1.384 . S
C48 H75 0.929 1_556 S
C49 O62 1.241 . S
C49 O63 1.273 . S
C50 O64 1.251 . S
C50 O65 1.268 . S
C51 Nd41 2.836 1_554 S
C51 C52 1.498 . S
C51 O66 1.258 . S
C51 O67 1.239 1_554 S
C52 C51 1.498 . S
C52 C53 1.366 . S
C52 C57 1.407 . S
C53 C52 1.366 . S
C53 C54 1.392 . S
C53 H76 0.930 . S
C54 C53 1.392 . S
C54 C55 1.398 . S
C54 H77 0.929 . S
C55 C54 1.398 . S
C55 C56 1.352 . S
C56 C55 1.352 . S
C56 C57 1.384 . S
C56 H78 0.930 . S
C57 C52 1.407 . S
C57 C56 1.384 . S
C57 H79 0.929 1_554 S
C58 O68 1.241 . S
C58 O69 1.273 . S
C59 O70 1.251 . S
C59 O71 1.268 . S
O60 Nd40 2.500 1_556 S
O60 C42 1.258 . S
O61 Nd40 2.492 . S
O61 C42 1.239 1_554 S
O62 Nd40 2.487 . S
O62 C49 1.241 . S
O63 Nd40 2.682 . S
O63 Nd41 2.414 1_554 S
O63 C49 1.273 . S
O64 Nd40 2.410 1_556 S
O64 C50 1.251 . S
O65 Nd41 2.424 . S
O65 C50 1.268 . S
O66 Nd41 2.500 1_554 S
O66 C51 1.258 . S
O67 Nd41 2.492 . S
O67 C51 1.239 1_556 S
O68 Nd41 2.487 . S
O68 C58 1.241 . S
O69 Nd40 2.414 1_556 S
O69 Nd41 2.682 . S
O69 C58 1.273 . S
O70 Nd41 2.410 1_554 S
O70 C59 1.251 . S
O71 Nd40 2.424 . S
O71 C59 1.268 . S
H72 C44 0.930 . S
H73 C45 0.929 . S
H74 C47 0.930 . S
H75 C48 0.929 1_554 S
H76 C53 0.930 . S
H77 C54 0.929 . S
H78 C56 0.930 . S
H79 C57 0.929 1_556 S
Nd80 C82 2.836 . S
Nd80 O100 2.500 1_554 S
Nd80 O101 2.492 . S
Nd80 O102 2.487 . S
Nd80 O103 2.682 . S
Nd80 O104 2.410 . S
Nd80 O109 2.414 1_554 S
Nd80 O111 2.424 . S
Nd81 C91 2.836 . S
Nd81 O103 2.414 1_556 S
Nd81 O105 2.424 . S
Nd81 O106 2.500 1_556 S
Nd81 O107 2.492 . S
Nd81 O108 2.487 . S
Nd81 O109 2.682 . S
Nd81 O110 2.410 . S
C82 Nd80 2.836 . S
C82 C83 1.498 . S
C82 O100 1.258 1_554 S
C82 O101 1.239 . S
C83 C82 1.498 . S
C83 C84 1.366 . S
C83 C88 1.407 . S
C84 C83 1.366 . S
C84 C85 1.392 . S
C84 H112 0.930 1_554 S
C85 C84 1.392 . S
C85 C86 1.398 . S
C85 H113 0.929 1_554 S
C86 C85 1.398 . S
C86 C87 1.352 . S
C87 C86 1.352 . S
C87 C88 1.384 . S
C87 H114 0.930 1_565 S
C88 C83 1.407 . S
C88 C87 1.384 . S
C88 H115 0.929 . S
C89 O102 1.241 . S
C89 O103 1.273 . S
C90 O104 1.251 . S
C90 O105 1.268 1_554 S
C91 Nd81 2.836 . S
C91 C92 1.498 . S
C91 O106 1.258 1_556 S
C91 O107 1.239 . S
C92 C91 1.498 . S
C92 C93 1.366 . S
C92 C97 1.407 . S
C93 C92 1.366 . S
C93 C94 1.392 . S
C93 H116 0.930 1_556 S
C94 C93 1.392 . S
C94 C95 1.398 . S
C94 H117 0.929 1_556 S
C95 C94 1.398 . S
C95 C96 1.352 . S
C96 C95 1.352 . S
C96 C97 1.384 . S
C96 H118 0.930 . S
C97 C92 1.407 . S
C97 C96 1.384 . S
C97 H119 0.929 . S
C98 O108 1.241 . S
C98 O109 1.273 . S
C99 O110 1.251 . S
C99 O111 1.268 1_556 S
O100 Nd80 2.500 1_556 S
O100 C82 1.258 1_556 S
O101 Nd80 2.492 . S
O101 C82 1.239 . S
O102 Nd80 2.487 . S
O102 C89 1.241 . S
O103 Nd80 2.682 . S
O103 Nd81 2.414 1_554 S
O103 C89 1.273 . S
O104 Nd80 2.410 . S
O104 C90 1.251 . S
O105 Nd81 2.424 . S
O105 C90 1.268 1_556 S
O106 Nd81 2.500 1_554 S
O106 C91 1.258 1_554 S
O107 Nd81 2.492 . S
O107 C91 1.239 . S
O108 Nd81 2.487 . S
O108 C98 1.241 . S
O109 Nd80 2.414 1_556 S
O109 Nd81 2.682 . S
O109 C98 1.273 . S
O110 Nd81 2.410 . S
O110 C99 1.251 . S
O111 Nd80 2.424 . S
O111 C99 1.268 1_554 S
H112 C84 0.930 1_556 S
H113 C85 0.929 1_556 S
H114 C87 0.930 1_545 S
H115 C88 0.929 . S
H116 C93 0.930 1_554 S
H117 C94 0.929 1_554 S
H118 C96 0.930 . S
H119 C97 0.929 . S
Nd120 C122 2.836 . S
Nd120 O140 2.500 . S
Nd120 O141 2.492 . S
Nd120 O142 2.487 1_556 S
Nd120 O143 2.682 1_556 S
Nd120 O144 2.410 . S
Nd120 O149 2.414 . S
Nd120 O151 2.424 . S
Nd121 C131 2.836 . S
Nd121 O143 2.414 1_556 S
Nd121 O145 2.424 . S
Nd121 O146 2.500 1_556 S
Nd121 O147 2.492 . S
Nd121 O148 2.487 . S
Nd121 O149 2.682 . S
Nd121 O150 2.410 . S
C122 Nd120 2.836 . S
C122 C123 1.498 . S
C122 O140 1.258 . S
C122 O141 1.239 . S
C123 C122 1.498 . S
C123 C124 1.366 . S
C123 C128 1.407 . S
C124 C123 1.366 . S
C124 C125 1.392 . S
C124 H152 0.930 . S
C125 C124 1.392 . S
C125 C126 1.398 . S
C125 H153 0.929 . S
C126 C125 1.398 . S
C126 C127 1.352 . S
C127 C126 1.352 . S
C127 C128 1.384 . S
C127 H154 0.930 . S
C128 C123 1.407 . S
C128 C127 1.384 . S
C128 H155 0.929 1_556 S
C129 O142 1.241 . S
C129 O143 1.273 . S
C130 O144 1.251 . S
C130 O145 1.268 . S
C131 Nd121 2.836 . S
C131 C132 1.498 1_556 S
C131 O146 1.258 1_556 S
C131 O147 1.239 . S
C132 C131 1.498 1_554 S
C132 C133 1.366 . S
C132 C137 1.407 1_554 S
C133 C132 1.366 . S
C133 C134 1.392 . S
C133 H156 0.930 . S
C134 C133 1.392 . S
C134 C135 1.398 . S
C134 H157 0.929 . S
C135 C134 1.398 . S
C135 C136 1.352 1_554 S
C136 C135 1.352 1_556 S
C136 C137 1.384 . S
C136 H158 0.930 . S
C137 C132 1.407 1_556 S
C137 C136 1.384 . S
C137 H159 0.929 . S
C138 O148 1.241 . S
C138 O149 1.273 . S
C139 O150 1.251 . S
C139 O151 1.268 . S
O140 Nd120 2.500 . S
O140 C122 1.258 . S
O141 Nd120 2.492 . S
O141 C122 1.239 . S
O142 Nd120 2.487 1_554 S
O142 C129 1.241 . S
O143 Nd120 2.682 1_554 S
O143 Nd121 2.414 1_554 S
O143 C129 1.273 . S
O144 Nd120 2.410 . S
O144 C130 1.251 . S
O145 Nd121 2.424 . S
O145 C130 1.268 . S
O146 Nd121 2.500 1_554 S
O146 C131 1.258 1_554 S
O147 Nd121 2.492 . S
O147 C131 1.239 . S
O148 Nd121 2.487 . S
O148 C138 1.241 . S
O149 Nd120 2.414 . S
O149 Nd121 2.682 . S
O149 C138 1.273 . S
O150 Nd121 2.410 . S
O150 C139 1.251 . S
O151 Nd120 2.424 . S
O151 C139 1.268 . S
H152 C124 0.930 . S
H153 C125 0.929 . S
H154 C127 0.930 . S
H155 C128 0.929 1_554 S
H156 C133 0.930 . S
H157 C134 0.929 . S
H158 C136 0.930 . S
H159 C137 0.929 . S
Nd160 C162 2.836 . S
Nd160 O180 2.500 . S
Nd160 O181 2.492 . S
Nd160 O182 2.487 1_554 S
Nd160 O183 2.682 1_554 S
Nd160 O184 2.410 . S
Nd160 O189 2.414 . S
Nd160 O191 2.424 . S
Nd161 C171 2.836 1_554 S
Nd161 O183 2.414 1_554 S
Nd161 O185 2.424 . S
Nd161 O186 2.500 1_554 S
Nd161 O187 2.492 . S
Nd161 O188 2.487 . S
Nd161 O189 2.682 . S
Nd161 O190 2.410 . S
C162 Nd160 2.836 . S
C162 C163 1.498 . S
C162 O180 1.258 . S
C162 O181 1.239 . S
C163 C162 1.498 . S
C163 C164 1.366 . S
C163 C168 1.407 . S
C164 C163 1.366 . S
C164 C165 1.392 . S
C164 H192 0.930 . S
C165 C164 1.392 . S
C165 C166 1.398 . S
C165 H193 0.929 . S
C166 C165 1.398 . S
C166 C167 1.352 . S
C167 C166 1.352 . S
C167 C168 1.384 . S
C167 H194 0.930 . S
C168 C163 1.407 . S
C168 C167 1.384 . S
C168 H195 0.929 . S
C169 O182 1.241 . S
C169 O183 1.273 . S
C170 O184 1.251 . S
C170 O185 1.268 . S
C171 Nd161 2.836 1_556 S
C171 C172 1.498 . S
C171 O186 1.258 . S
C171 O187 1.239 1_556 S
C172 C171 1.498 . S
C172 C173 1.366 . S
C172 C177 1.407 . S
C173 C172 1.366 . S
C173 C174 1.392 . S
C173 H196 0.930 . S
C174 C173 1.392 . S
C174 C175 1.398 . S
C174 H197 0.929 . S
C175 C174 1.398 . S
C175 C176 1.352 . S
C176 C175 1.352 . S
C176 C177 1.384 . S
C176 H198 0.930 1_556 S
C177 C172 1.407 . S
C177 C176 1.384 . S
C177 H199 0.929 1_556 S
C178 O188 1.241 . S
C178 O189 1.273 . S
C179 O190 1.251 . S
C179 O191 1.268 . S
O180 Nd160 2.500 . S
O180 C162 1.258 . S
O181 Nd160 2.492 . S
O181 C162 1.239 . S
O182 Nd160 2.487 1_556 S
O182 C169 1.241 . S
O183 Nd160 2.682 1_556 S
O183 Nd161 2.414 1_556 S
O183 C169 1.273 . S
O184 Nd160 2.410 . S
O184 C170 1.251 . S
O185 Nd161 2.424 . S
O185 C170 1.268 . S
O186 Nd161 2.500 1_556 S
O186 C171 1.258 . S
O187 Nd161 2.492 . S
O187 C171 1.239 1_554 S
O188 Nd161 2.487 . S
O188 C178 1.241 . S
O189 Nd160 2.414 . S
O189 Nd161 2.682 . S
O189 C178 1.273 . S
O190 Nd161 2.410 . S
O190 C179 1.251 . S
O191 Nd160 2.424 . S
O191 C179 1.268 . S
H192 C164 0.930 . S
H193 C165 0.929 . S
H194 C167 0.930 . S
H195 C168 0.929 . S
H196 C173 0.930 . S
H197 C174 0.929 . S
H198 C176 0.930 1_554 S
H199 C177 0.929 1_554 S
Nd200 C202 2.836 . S
Nd200 O220 2.500 . S
Nd200 O221 2.492 . S
Nd200 O222 2.487 1_556 S
Nd200 O223 2.682 1_556 S
Nd200 O224 2.410 . S
Nd200 O229 2.414 . S
Nd200 O231 2.424 . S
Nd201 C211 2.836 1_556 S
Nd201 O223 2.414 1_556 S
Nd201 O225 2.424 . S
Nd201 O226 2.500 1_556 S
Nd201 O227 2.492 . S
Nd201 O228 2.487 . S
Nd201 O229 2.682 . S
Nd201 O230 2.410 . S
C202 Nd200 2.836 . S
C202 C203 1.498 . S
C202 O220 1.258 . S
C202 O221 1.239 . S
C203 C202 1.498 . S
C203 C204 1.366 . S
C203 C208 1.407 . S
C204 C203 1.366 . S
C204 C205 1.392 . S
C204 H232 0.930 . S
C205 C204 1.392 . S
C205 C206 1.398 . S
C205 H233 0.929 . S
C206 C205 1.398 . S
C206 C207 1.352 . S
C207 C206 1.352 . S
C207 C208 1.384 . S
C207 H234 0.930 . S
C208 C203 1.407 . S
C208 C207 1.384 . S
C208 H235 0.929 . S
C209 O222 1.241 . S
C209 O223 1.273 . S
C210 O224 1.251 . S
C210 O225 1.268 . S
C211 Nd201 2.836 1_554 S
C211 C212 1.498 . S
C211 O226 1.258 . S
C211 O227 1.239 1_554 S
C212 C211 1.498 . S
C212 C213 1.366 . S
C212 C217 1.407 . S
C213 C212 1.366 . S
C213 C214 1.392 . S
C213 H236 0.930 . S
C214 C213 1.392 . S
C214 C215 1.398 . S
C214 H237 0.929 . S
C215 C214 1.398 . S
C215 C216 1.352 . S
C216 C215 1.352 . S
C216 C217 1.384 . S
C216 H238 0.930 . S
C217 C212 1.407 . S
C217 C216 1.384 . S
C217 H239 0.929 1_554 S
C218 O228 1.241 . S
C218 O229 1.273 . S
C219 O230 1.251 1_554 S
C219 O231 1.268 1_554 S
O220 Nd200 2.500 . S
O220 C202 1.258 . S
O221 Nd200 2.492 . S
O221 C202 1.239 . S
O222 Nd200 2.487 1_554 S
O222 C209 1.241 . S
O223 Nd200 2.682 1_554 S
O223 Nd201 2.414 1_554 S
O223 C209 1.273 . S
O224 Nd200 2.410 . S
O224 C210 1.251 . S
O225 Nd201 2.424 . S
O225 C210 1.268 . S
O226 Nd201 2.500 1_554 S
O226 C211 1.258 . S
O227 Nd201 2.492 . S
O227 C211 1.239 1_556 S
O228 Nd201 2.487 . S
O228 C218 1.241 . S
O229 Nd200 2.414 . S
O229 Nd201 2.682 . S
O229 C218 1.273 . S
O230 Nd201 2.410 . S
O230 C219 1.251 1_556 S
O231 Nd200 2.424 . S
O231 C219 1.268 1_556 S
H232 C204 0.930 . S
H233 C205 0.929 . S
H234 C207 0.930 . S
H235 C208 0.929 . S
H236 C213 0.930 . S
H237 C214 0.929 . S
H238 C216 0.930 . S
H239 C217 0.929 1_556 S
C240 C241 1.391 . S
C240 C242 1.394 . S
C240 H256 0.931 . S
C241 C240 1.391 . S
C241 C245 1.376 . S
C242 C240 1.394 . S
C242 C243 1.369 . S
C242 C246 1.531 . S
C243 C242 1.369 . S
C243 C244 1.410 . S
C243 C251 1.503 . S
C244 C243 1.410 . S
C244 C245 1.392 . S
C244 C247 1.511 . S
C245 C241 1.376 . S
C245 C244 1.392 . S
C245 H257 0.929 . S
C246 C242 1.531 . S
C246 H258 0.960 . S
C246 H259 0.962 . S
C246 H260 0.960 . S
C247 C244 1.511 . S
C247 H261 0.961 . S
C247 H262 0.961 . S
C247 H263 0.961 . S
C248 C249 1.370 . S
C248 C250 1.363 . S
C248 H264 0.931 . S
C249 C248 1.370 . S
C249 C253 1.408 . S
C250 C248 1.363 . S
C250 C251 1.370 . S
C250 C254 1.524 . S
C251 C243 1.503 . S
C251 C250 1.370 . S
C251 C252 1.403 . S
C252 C251 1.403 . S
C252 C253 1.404 . S
C252 C255 1.539 . S
C253 C249 1.408 . S
C253 C252 1.404 . S
C253 H265 0.930 . S
C254 C250 1.524 . S
C254 H266 0.956 . S
C254 H267 0.961 . S
C254 H268 0.961 . S
C255 C252 1.539 . S
C255 H269 0.958 . S
C255 H270 0.961 . S
C255 H271 0.960 . S
H256 C240 0.931 . S
H257 C245 0.929 . S
H258 C246 0.960 . S
H259 C246 0.962 . S
H260 C246 0.960 . S
H261 C247 0.961 . S
H262 C247 0.961 . S
H263 C247 0.961 . S
H264 C248 0.931 . S
H265 C253 0.930 . S
H266 C254 0.956 . S
H267 C254 0.961 . S
H268 C254 0.961 . S
H269 C255 0.958 . S
H270 C255 0.961 . S
H271 C255 0.960 . S
C272 C273 1.391 . S
C272 C274 1.394 . S
C272 H288 0.931 . S
C273 C272 1.391 . S
C273 C277 1.376 . S
C274 C272 1.394 . S
C274 C275 1.369 . S
C274 C278 1.531 1_455 S
C275 C274 1.369 . S
C275 C276 1.410 . S
C275 C283 1.503 . S
C276 C275 1.410 . S
C276 C277 1.392 . S
C276 C279 1.511 . S
C277 C273 1.376 . S
C277 C276 1.392 . S
C277 H289 0.929 . S
C278 C274 1.531 1_655 S
C278 H290 0.960 . S
C278 H291 0.962 . S
C278 H292 0.960 . S
C279 C276 1.511 . S
C279 H293 0.961 . S
C279 H294 0.961 . S
C279 H295 0.961 . S
C280 C281 1.370 . S
C280 C282 1.360 . S
C280 H296 0.931 . S
C281 C280 1.370 . S
C281 C285 1.408 . S
C282 C280 1.360 . S
C282 C283 1.372 1_655 S
C282 C286 1.525 1_655 S
C283 C275 1.503 . S
C283 C282 1.372 1_455 S
C283 C284 1.403 1_455 S
C284 C283 1.403 1_655 S
C284 C285 1.404 . S
C284 C287 1.539 . S
C285 C281 1.408 . S
C285 C284 1.404 . S
C285 H297 0.930 . S
C286 C282 1.525 1_455 S
C286 H298 0.956 . S
C286 H299 0.961 . S
C286 H300 0.961 . S
C287 C284 1.539 . S
C287 H301 0.958 . S
C287 H302 0.961 . S
C287 H303 0.960 1_655 S
H288 C272 0.931 . S
H289 C277 0.929 . S
H290 C278 0.960 . S
H291 C278 0.962 . S
H292 C278 0.960 . S
H293 C279 0.961 . S
H294 C279 0.961 . S
H295 C279 0.961 . S
H296 C280 0.931 . S
H297 C285 0.930 . S
H298 C286 0.956 . S
H299 C286 0.961 . S
H300 C286 0.961 . S
H301 C287 0.958 . S
H302 C287 0.961 . S
H303 C287 0.960 1_455 S
C304 C305 1.391 . S
C304 C306 1.394 . S
C304 H320 0.931 . S
C305 C304 1.391 . S
C305 C309 1.376 . S
C306 C304 1.394 . S
C306 C307 1.369 . S
C306 C310 1.531 . S
C307 C306 1.369 . S
C307 C308 1.410 . S
C307 C315 1.503 . S
C308 C307 1.410 . S
C308 C309 1.392 . S
C308 C311 1.511 . S
C309 C305 1.376 . S
C309 C308 1.392 . S
C309 H321 0.929 . S
C310 C306 1.531 . S
C310 H322 0.960 . S
C310 H323 0.962 . S
C310 H324 0.960 . S
C311 C308 1.511 . S
C311 H325 0.961 . S
C311 H326 0.961 . S
C311 H327 0.961 . S
C312 C313 1.370 . S
C312 C314 1.363 . S
C312 H328 0.931 . S
C313 C312 1.370 . S
C313 C317 1.408 . S
C314 C312 1.363 . S
C314 C315 1.370 . S
C314 C318 1.524 . S
C315 C307 1.503 . S
C315 C314 1.370 . S
C315 C316 1.403 . S
C316 C315 1.403 . S
C316 C317 1.404 . S
C316 C319 1.539 . S
C317 C313 1.408 . S
C317 C316 1.404 . S
C317 H329 0.930 . S
C318 C314 1.524 . S
C318 H330 0.956 . S
C318 H331 0.961 . S
C318 H332 0.961 . S
C319 C316 1.539 . S
C319 H333 0.958 . S
C319 H334 0.961 . S
C319 H335 0.960 . S
H320 C304 0.931 . S
H321 C309 0.929 . S
H322 C310 0.960 . S
H323 C310 0.962 . S
H324 C310 0.960 . S
H325 C311 0.961 . S
H326 C311 0.961 . S
H327 C311 0.961 . S
H328 C312 0.931 . S
H329 C317 0.930 . S
H330 C318 0.956 . S
H331 C318 0.961 . S
H332 C318 0.961 . S
H333 C319 0.958 . S
H334 C319 0.961 . S
H335 C319 0.960 . S
C336 C337 1.391 . S
C336 C338 1.394 . S
C336 H352 0.931 . S
C337 C336 1.391 . S
C337 C341 1.376 . S
C338 C336 1.394 . S
C338 C339 1.369 . S
C338 C342 1.531 . S
C339 C338 1.369 . S
C339 C340 1.410 . S
C339 C347 1.503 . S
C340 C339 1.410 . S
C340 C341 1.392 . S
C340 C343 1.511 . S
C341 C337 1.376 . S
C341 C340 1.392 . S
C341 H353 0.929 . S
C342 C338 1.531 . S
C342 H354 0.960 . S
C342 H355 0.962 . S
C342 H356 0.960 . S
C343 C340 1.511 . S
C343 H357 0.961 . S
C343 H358 0.961 . S
C343 H359 0.961 . S
C344 C345 1.370 . S
C344 C346 1.363 . S
C344 H360 0.931 . S
C345 C344 1.370 . S
C345 C349 1.408 . S
C346 C344 1.363 . S
C346 C347 1.370 . S
C346 C350 1.524 . S
C347 C339 1.503 . S
C347 C346 1.370 . S
C347 C348 1.403 . S
C348 C347 1.403 . S
C348 C349 1.404 . S
C348 C351 1.539 . S
C349 C345 1.408 . S
C349 C348 1.404 . S
C349 H361 0.930 . S
C350 C346 1.524 . S
C350 H362 0.956 . S
C350 H363 0.961 . S
C350 H364 0.961 . S
C351 C348 1.539 . S
C351 H365 0.958 . S
C351 H366 0.961 . S
C351 H367 0.960 . S
H352 C336 0.931 . S
H353 C341 0.929 . S
H354 C342 0.960 . S
H355 C342 0.962 . S
H356 C342 0.960 . S
H357 C343 0.961 . S
H358 C343 0.961 . S
H359 C343 0.961 . S
H360 C344 0.931 . S
H361 C349 0.930 . S
H362 C350 0.956 . S
H363 C350 0.961 . S
H364 C350 0.961 . S
H365 C351 0.958 . S
H366 C351 0.961 . S
H367 C351 0.960 . S
C368 C369 1.391 . S
C368 C370 1.394 . S
C368 H384 0.931 . S
C369 C368 1.391 . S
C369 C373 1.376 . S
C370 C368 1.394 . S
C370 C371 1.369 . S
C370 C374 1.531 . S
C371 C370 1.369 . S
C371 C372 1.410 . S
C371 C379 1.503 . S
C372 C371 1.410 . S
C372 C373 1.392 . S
C372 C375 1.511 . S
C373 C369 1.376 . S
C373 C372 1.392 . S
C373 H385 0.929 . S
C374 C370 1.531 . S
C374 H386 0.960 1_455 S
C374 H387 0.962 . S
C374 H388 0.960 . S
C375 C372 1.511 . S
C375 H389 0.961 . S
C375 H390 0.961 . S
C375 H391 0.961 . S
C376 C377 1.370 . S
C376 C378 1.363 1_655 S
C376 H392 0.931 . S
C377 C376 1.370 . S
C377 C381 1.408 . S
C378 C376 1.363 1_455 S
C378 C379 1.370 . S
C378 C382 1.524 . S
C379 C371 1.503 . S
C379 C378 1.370 . S
C379 C380 1.403 1_455 S
C380 C379 1.403 1_655 S
C380 C381 1.404 . S
C380 C383 1.539 . S
C381 C377 1.408 . S
C381 C380 1.404 . S
C381 H393 0.930 . S
C382 C378 1.524 . S
C382 H394 0.956 . S
C382 H395 0.961 . S
C382 H396 0.961 . S
C383 C380 1.539 . S
C383 H397 0.958 . S
C383 H398 0.961 . S
C383 H399 0.960 1_655 S
H384 C368 0.931 . S
H385 C373 0.929 . S
H386 C374 0.960 1_655 S
H387 C374 0.962 . S
H388 C374 0.960 . S
H389 C375 0.961 . S
H390 C375 0.961 . S
H391 C375 0.961 . S
H392 C376 0.931 . S
H393 C381 0.930 . S
H394 C382 0.956 . S
H395 C382 0.961 . S
H396 C382 0.961 . S
H397 C383 0.958 . S
H398 C383 0.961 . S
H399 C383 0.960 1_455 S
C400 C401 1.391 . S
C400 C402 1.394 1_565 S
C400 H416 0.931 . S
C401 C400 1.391 . S
C401 C405 1.376 1_565 S
C402 C400 1.394 1_545 S
C402 C403 1.369 . S
C402 C406 1.531 . S
C403 C402 1.369 . S
C403 C404 1.410 . S
C403 C411 1.503 . S
C404 C403 1.410 . S
C404 C405 1.392 . S
C404 C407 1.511 . S
C405 C401 1.376 1_545 S
C405 C404 1.392 . S
C405 H417 0.930 . S
C406 C402 1.531 . S
C406 H418 0.960 . S
C406 H419 0.962 . S
C406 H420 0.960 1_545 S
C407 C404 1.511 . S
C407 H421 0.961 . S
C407 H422 0.961 . S
C407 H423 0.961 . S
C408 C409 1.370 . S
C408 C410 1.363 . S
C408 H424 0.931 . S
C409 C408 1.370 . S
C409 C413 1.408 . S
C410 C408 1.363 . S
C410 C411 1.370 . S
C410 C414 1.524 . S
C411 C403 1.503 . S
C411 C410 1.370 . S
C411 C412 1.403 . S
C412 C411 1.403 . S
C412 C413 1.404 . S
C412 C415 1.539 . S
C413 C409 1.408 . S
C413 C412 1.404 . S
C413 H425 0.930 . S
C414 C410 1.524 . S
C414 H426 0.956 . S
C414 H427 0.961 . S
C414 H428 0.961 . S
C415 C412 1.539 . S
C415 H429 0.958 . S
C415 H430 0.961 . S
C415 H431 0.960 . S
H416 C400 0.931 . S
H417 C405 0.930 . S
H418 C406 0.960 . S
H419 C406 0.962 . S
H420 C406 0.960 1_565 S
H421 C407 0.961 . S
H422 C407 0.961 . S
H423 C407 0.961 . S
H424 C408 0.931 . S
H425 C413 0.930 . S
H426 C414 0.956 . S
H427 C414 0.961 . S
H428 C414 0.961 . S
H429 C415 0.958 . S
H430 C415 0.961 . S
H431 C415 0.960 . S
C432 C433 1.391 . S
C432 C434 1.394 . S
C432 H448 0.931 . S
C433 C432 1.391 . S
C433 C437 1.376 . S
C434 C432 1.394 . S
C434 C435 1.369 . S
C434 C438 1.531 1_556 S
C435 C434 1.369 . S
C435 C436 1.410 . S
C435 C443 1.503 . S
C436 C435 1.410 . S
C436 C437 1.392 . S
C436 C439 1.511 . S
C437 C433 1.376 . S
C437 C436 1.392 . S
C437 H449 0.929 . S
C438 C434 1.531 1_554 S
C438 H450 0.960 . S
C438 H451 0.962 . S
C438 H452 0.960 . S
C439 C436 1.511 . S
C439 H453 0.961 . S
C439 H454 0.961 . S
C439 H455 0.961 . S
C440 C441 1.370 . S
C440 C442 1.363 . S
C440 H456 0.931 . S
C441 C440 1.370 . S
C441 C445 1.408 . S
C442 C440 1.363 . S
C442 C443 1.370 . S
C442 C446 1.524 . S
C443 C435 1.503 . S
C443 C442 1.370 . S
C443 C444 1.403 . S
C444 C443 1.403 . S
C444 C445 1.404 . S
C444 C447 1.539 1_556 S
C445 C441 1.408 . S
C445 C444 1.404 . S
C445 H457 0.930 1_556 S
C446 C442 1.524 . S
C446 H458 0.956 . S
C446 H459 0.961 . S
C446 H460 0.961 . S
C447 C444 1.539 1_554 S
C447 H461 0.958 . S
C447 H462 0.961 . S
C447 H463 0.960 . S
H448 C432 0.931 . S
H449 C437 0.929 . S
H450 C438 0.960 . S
H451 C438 0.962 . S
H452 C438 0.960 . S
H453 C439 0.961 . S
H454 C439 0.961 . S
H455 C439 0.961 . S
H456 C440 0.931 . S
H457 C445 0.930 1_554 S
H458 C446 0.956 . S
H459 C446 0.961 . S
H460 C446 0.961 . S
H461 C447 0.958 . S
H462 C447 0.961 . S
H463 C447 0.960 . S
C464 C465 1.391 . S
C464 C466 1.394 . S
C464 H480 0.931 . S
C465 C464 1.391 . S
C465 C469 1.376 1_554 S
C466 C464 1.394 . S
C466 C467 1.369 . S
C466 C470 1.531 . S
C467 C466 1.369 . S
C467 C468 1.410 1_554 S
C467 C475 1.503 . S
C468 C467 1.410 1_556 S
C468 C469 1.392 . S
C468 C471 1.511 . S
C469 C465 1.376 1_556 S
C469 C468 1.392 . S
C469 H481 0.929 . S
C470 C466 1.531 . S
C470 H482 0.960 . S
C470 H483 0.962 . S
C470 H484 0.960 . S
C471 C468 1.511 . S
C471 H485 0.961 . S
C471 H486 0.961 . S
C471 H487 0.961 . S
C472 C473 1.370 . S
C472 C474 1.363 . S
C472 H488 0.931 . S
C473 C472 1.370 . S
C473 C477 1.408 . S
C474 C472 1.363 . S
C474 C475 1.370 . S
C474 C478 1.524 . S
C475 C467 1.503 . S
C475 C474 1.370 . S
C475 C476 1.403 . S
C476 C475 1.403 . S
C476 C477 1.404 . S
C476 C479 1.539 . S
C477 C473 1.408 . S
C477 C476 1.404 . S
C477 H489 0.930 . S
C478 C474 1.524 . S
C478 H490 0.956 . S
C478 H491 0.961 . S
C478 H492 0.961 . S
C479 C476 1.539 . S
C479 H493 0.958 . S
C479 H494 0.961 1_554 S
C479 H495 0.960 1_554 S
H480 C464 0.931 . S
H481 C469 0.929 . S
H482 C470 0.960 . S
H483 C470 0.962 . S
H484 C470 0.960 . S
H485 C471 0.961 . S
H486 C471 0.961 . S
H487 C471 0.961 . S
H488 C472 0.931 . S
H489 C477 0.930 . S
H490 C478 0.956 . S
H491 C478 0.961 . S
H492 C478 0.961 . S
H493 C479 0.958 . S
H494 C479 0.961 1_556 S
H495 C479 0.960 1_556 S
C496 C497 1.391 . S
C496 C498 1.394 . S
C496 H512 0.931 . S
C497 C496 1.391 . S
C497 C501 1.376 . S
C498 C496 1.394 . S
C498 C499 1.369 . S
C498 C502 1.531 . S
C499 C498 1.369 . S
C499 C500 1.410 . S
C499 C507 1.503 . S
C500 C499 1.410 . S
C500 C501 1.392 . S
C500 C503 1.511 . S
C501 C497 1.376 . S
C501 C500 1.392 . S
C501 H513 0.929 . S
C502 C498 1.531 . S
C502 H514 0.960 . S
C502 H515 0.962 . S
C502 H516 0.960 . S
C503 C500 1.511 . S
C503 H517 0.961 . S
C503 H518 0.961 . S
C503 H519 0.961 . S
C504 C505 1.370 . S
C504 C506 1.363 . S
C504 H520 0.931 . S
C505 C504 1.370 . S
C505 C509 1.408 . S
C506 C504 1.363 . S
C506 C507 1.370 . S
C506 C510 1.524 . S
C507 C499 1.503 . S
C507 C506 1.370 . S
C507 C508 1.403 . S
C508 C507 1.403 . S
C508 C509 1.404 . S
C508 C511 1.539 1_556 S
C509 C505 1.408 . S
C509 C508 1.404 . S
C509 H521 0.930 1_556 S
C510 C506 1.524 . S
C510 H522 0.956 . S
C510 H523 0.961 . S
C510 H524 0.961 . S
C511 C508 1.539 1_554 S
C511 H525 0.958 . S
C511 H526 0.961 . S
C511 H527 0.960 . S
H512 C496 0.931 . S
H513 C501 0.929 . S
H514 C502 0.960 . S
H515 C502 0.962 . S
H516 C502 0.960 . S
H517 C503 0.961 . S
H518 C503 0.961 . S
H519 C503 0.961 . S
H520 C504 0.931 . S
H521 C509 0.930 1_554 S
H522 C510 0.956 . S
H523 C510 0.961 . S
H524 C510 0.961 . S
H525 C511 0.958 . S
H526 C511 0.961 . S
H527 C511 0.960 . S
C528 C529 1.391 1_556 S
C528 C530 1.394 . S
C528 H544 0.931 . S
C529 C528 1.391 1_554 S
C529 C533 1.376 . S
C530 C528 1.394 . S
C530 C531 1.369 1_556 S
C530 C534 1.531 . S
C531 C530 1.369 1_554 S
C531 C532 1.410 . S
C531 C539 1.503 . S
C532 C531 1.410 . S
C532 C533 1.392 . S
C532 C535 1.511 . S
C533 C529 1.376 . S
C533 C532 1.392 . S
C533 H545 0.929 . S
C534 C530 1.531 . S
C534 H546 0.960 . S
C534 H547 0.962 . S
C534 H548 0.960 . S
C535 C532 1.511 . S
C535 H549 0.961 . S
C535 H550 0.961 . S
C535 H551 0.961 . S
C536 C537 1.370 . S
C536 C538 1.363 . S
C536 H552 0.931 . S
C537 C536 1.370 . S
C537 C541 1.408 . S
C538 C536 1.363 . S
C538 C539 1.370 . S
C538 C542 1.524 . S
C539 C531 1.503 . S
C539 C538 1.370 . S
C539 C540 1.403 . S
C540 C539 1.403 . S
C540 C541 1.404 . S
C540 C543 1.539 1_554 S
C541 C537 1.408 . S
C541 C540 1.404 . S
C541 H553 0.930 1_554 S
C542 C538 1.524 . S
C542 H554 0.956 . S
C542 H555 0.961 . S
C542 H556 0.961 . S
C543 C540 1.539 1_556 S
C543 H557 0.958 . S
C543 H558 0.961 . S
C543 H559 0.960 . S
H544 C528 0.931 . S
H545 C533 0.929 . S
H546 C534 0.960 . S
H547 C534 0.962 . S
H548 C534 0.960 . S
H549 C535 0.961 . S
H550 C535 0.961 . S
H551 C535 0.961 . S
H552 C536 0.931 . S
H553 C541 0.930 1_556 S
H554 C542 0.956 . S
H555 C542 0.961 . S
H556 C542 0.961 . S
H557 C543 0.958 . S
H558 C543 0.961 . S
H559 C543 0.960 . S
C560 C561 1.391 1_554 S
C560 C562 1.394 . S
C560 H576 0.931 . S
C561 C560 1.391 1_556 S
C561 C565 1.376 . S
C562 C560 1.394 . S
C562 C563 1.369 1_554 S
C562 C566 1.531 . S
C563 C562 1.369 1_556 S
C563 C564 1.410 . S
C563 C571 1.503 . S
C564 C563 1.410 . S
C564 C565 1.392 . S
C564 C567 1.511 . S
C565 C561 1.376 . S
C565 C564 1.392 . S
C565 H577 0.929 . S
C566 C562 1.531 . S
C566 H578 0.960 . S
C566 H579 0.962 . S
C566 H580 0.960 . S
C567 C564 1.511 . S
C567 H581 0.961 . S
C567 H582 0.961 . S
C567 H583 0.961 . S
C568 C569 1.370 1_554 S
C568 C570 1.363 . S
C568 H584 0.931 . S
C569 C568 1.370 1_556 S
C569 C573 1.408 . S
C570 C568 1.363 . S
C570 C571 1.370 1_554 S
C570 C574 1.524 . S
C571 C563 1.503 . S
C571 C570 1.370 1_556 S
C571 C572 1.403 . S
C572 C571 1.403 . S
C572 C573 1.404 . S
C572 C575 1.539 . S
C573 C569 1.408 . S
C573 C572 1.404 . S
C573 H585 0.930 . S
C574 C570 1.524 . S
C574 H586 0.956 . S
C574 H587 0.961 . S
C574 H588 0.961 . S
C575 C572 1.539 . S
C575 H589 0.958 . S
C575 H590 0.961 . S
C575 H591 0.960 . S
H576 C560 0.931 . S
H577 C565 0.929 . S
H578 C566 0.960 . S
H579 C566 0.962 . S
H580 C566 0.960 . S
H581 C567 0.961 . S
H582 C567 0.961 . S
H583 C567 0.961 . S
H584 C568 0.931 . S
H585 C573 0.930 . S
H586 C574 0.956 . S
H587 C574 0.961 . S
H588 C574 0.961 . S
H589 C575 0.958 . S
H590 C575 0.961 . S
H591 C575 0.960 . S
C592 C593 1.391 . S
C592 C594 1.394 . S
C592 H608 0.931 . S
C593 C592 1.391 . S
C593 C597 1.376 . S
C594 C592 1.394 . S
C594 C595 1.369 . S
C594 C598 1.531 . S
C595 C594 1.369 . S
C595 C596 1.410 . S
C595 C603 1.503 . S
C596 C595 1.410 . S
C596 C597 1.393 . S
C596 C599 1.511 1_554 S
C597 C593 1.376 . S
C597 C596 1.393 . S
C597 H609 0.928 1_554 S
C598 C594 1.531 . S
C598 H610 0.960 . S
C598 H611 0.962 . S
C598 H612 0.960 . S
C599 C596 1.511 1_556 S
C599 H613 0.961 1_556 S
C599 H614 0.961 1_556 S
C599 H615 0.961 . S
C600 C601 1.370 . S
C600 C602 1.363 . S
C600 H616 0.931 . S
C601 C600 1.370 . S
C601 C605 1.408 . S
C602 C600 1.363 . S
C602 C603 1.370 . S
C602 C606 1.524 . S
C603 C595 1.503 . S
C603 C602 1.370 . S
C603 C604 1.403 1_554 S
C604 C603 1.403 1_556 S
C604 C605 1.404 1_556 S
C604 C607 1.539 . S
C605 C601 1.408 . S
C605 C604 1.404 1_554 S
C605 H617 0.930 1_554 S
C606 C602 1.524 . S
C606 H618 0.956 . S
C606 H619 0.961 . S
C606 H620 0.961 . S
C607 C604 1.539 . S
C607 H621 0.958 . S
C607 H622 0.961 . S
C607 H623 0.960 . S
H608 C592 0.931 . S
H609 C597 0.928 1_556 S
H610 C598 0.960 . S
H611 C598 0.962 . S
H612 C598 0.960 . S
H613 C599 0.961 1_554 S
H614 C599 0.961 1_554 S
H615 C599 0.961 . S
H616 C600 0.931 . S
H617 C605 0.930 1_556 S
H618 C606 0.956 . S
H619 C606 0.961 . S
H620 C606 0.961 . S
H621 C607 0.958 . S
H622 C607 0.961 . S
H623 C607 0.960 . S
C624 C625 1.391 . S
C624 C626 1.394 . S
C624 H640 0.931 . S
C625 C624 1.391 . S
C625 C629 1.376 . S
C626 C624 1.394 . S
C626 C627 1.369 . S
C626 C630 1.531 . S
C627 C626 1.369 . S
C627 C628 1.410 . S
C627 C635 1.503 . S
C628 C627 1.410 . S
C628 C629 1.392 . S
C628 C631 1.511 . S
C629 C625 1.376 . S
C629 C628 1.392 . S
C629 H641 0.929 . S
C630 C626 1.531 . S
C630 H642 0.960 . S
C630 H643 0.962 . S
C630 H644 0.960 . S
C631 C628 1.511 . S
C631 H645 0.961 . S
C631 H646 0.961 . S
C631 H647 0.961 . S
C632 C633 1.370 . S
C632 C634 1.363 . S
C632 H648 0.931 . S
C633 C632 1.370 . S
C633 C637 1.408 . S
C634 C632 1.363 . S
C634 C635 1.370 . S
C634 C638 1.524 . S
C635 C627 1.503 . S
C635 C634 1.370 . S
C635 C636 1.403 . S
C636 C635 1.403 . S
C636 C637 1.404 . S
C636 C639 1.539 . S
C637 C633 1.408 . S
C637 C636 1.404 . S
C637 H649 0.930 . S
C638 C634 1.524 . S
C638 H650 0.956 . S
C638 H651 0.961 . S
C638 H652 0.961 . S
C639 C636 1.539 . S
C639 H653 0.958 . S
C639 H654 0.961 . S
C639 H655 0.960 . S
H640 C624 0.931 . S
H641 C629 0.929 . S
H642 C630 0.960 . S
H643 C630 0.962 . S
H644 C630 0.960 . S
H645 C631 0.961 . S
H646 C631 0.961 . S
H647 C631 0.961 . S
H648 C632 0.931 . S
H649 C637 0.930 . S
H650 C638 0.956 . S
H651 C638 0.961 . S
H652 C638 0.961 . S
H653 C639 0.958 . S
H654 C639 0.961 . S
H655 C639 0.960 . S
C656 C657 1.391 . S
C656 C658 1.394 . S
C656 H672 0.931 . S
C657 C656 1.391 . S
C657 C661 1.376 . S
C658 C656 1.394 . S
C658 C659 1.369 . S
C658 C662 1.531 . S
C659 C658 1.369 . S
C659 C660 1.410 . S
C659 C667 1.503 . S
C660 C659 1.410 . S
C660 C661 1.392 . S
C660 C663 1.511 . S
C661 C657 1.376 . S
C661 C660 1.392 . S
C661 H673 0.929 . S
C662 C658 1.531 . S
C662 H674 0.960 . S
C662 H675 0.962 . S
C662 H676 0.960 . S
C663 C660 1.511 . S
C663 H677 0.961 . S
C663 H678 0.961 . S
C663 H679 0.961 . S
C664 C665 1.370 . S
C664 C666 1.363 . S
C664 H680 0.931 . S
C665 C664 1.370 . S
C665 C669 1.408 . S
C666 C664 1.363 . S
C666 C667 1.370 . S
C666 C670 1.524 . S
C667 C659 1.503 . S
C667 C666 1.370 . S
C667 C668 1.403 . S
C668 C667 1.403 . S
C668 C669 1.404 . S
C668 C671 1.539 . S
C669 C665 1.408 . S
C669 C668 1.404 . S
C669 H681 0.930 . S
C670 C666 1.524 . S
C670 H682 0.956 . S
C670 H683 0.961 . S
C670 H684 0.961 . S
C671 C668 1.539 . S
C671 H685 0.958 . S
C671 H686 0.961 . S
C671 H687 0.960 . S
H672 C656 0.931 . S
H673 C661 0.929 . S
H674 C662 0.960 . S
H675 C662 0.962 . S
H676 C662 0.960 . S
H677 C663 0.961 . S
H678 C663 0.961 . S
H679 C663 0.961 . S
H680 C664 0.931 . S
H681 C669 0.930 . S
H682 C670 0.956 . S
H683 C670 0.961 . S
H684 C670 0.961 . S
H685 C671 0.958 . S
H686 C671 0.961 . S
H687 C671 0.960 . S
C688 C689 1.391 . S
C688 C690 1.394 . S
C688 H704 0.931 . S
C689 C688 1.391 . S
C689 C693 1.376 . S
C690 C688 1.394 . S
C690 C691 1.369 . S
C690 C694 1.531 . S
C691 C690 1.369 . S
C691 C692 1.410 . S
C691 C699 1.503 . S
C692 C691 1.410 . S
C692 C693 1.392 . S
C692 C695 1.511 . S
C693 C689 1.376 . S
C693 C692 1.392 . S
C693 H705 0.929 . S
C694 C690 1.531 . S
C694 H706 0.960 . S
C694 H707 0.962 . S
C694 H708 0.960 . S
C695 C692 1.511 . S
C695 H709 0.961 . S
C695 H710 0.961 . S
C695 H711 0.961 . S
C696 C697 1.370 . S
C696 C698 1.363 . S
C696 H712 0.931 . S
C697 C696 1.370 . S
C697 C701 1.408 . S
C698 C696 1.363 . S
C698 C699 1.370 . S
C698 C702 1.524 . S
C699 C691 1.503 . S
C699 C698 1.370 . S
C699 C700 1.403 . S
C700 C699 1.403 . S
C700 C701 1.404 . S
C700 C703 1.539 . S
C701 C697 1.408 . S
C701 C700 1.404 . S
C701 H713 0.930 . S
C702 C698 1.524 . S
C702 H714 0.956 . S
C702 H715 0.961 . S
C702 H716 0.961 . S
C703 C700 1.539 . S
C703 H717 0.958 . S
C703 H718 0.961 . S
C703 H719 0.960 . S
H704 C688 0.931 . S
H705 C693 0.929 . S
H706 C694 0.960 . S
H707 C694 0.962 . S
H708 C694 0.960 . S
H709 C695 0.961 . S
H710 C695 0.961 . S
H711 C695 0.961 . S
H712 C696 0.931 . S
H713 C701 0.930 . S
H714 C702 0.956 . S
H715 C702 0.961 . S
H716 C702 0.961 . S
H717 C703 0.958 . S
H718 C703 0.961 . S
H719 C703 0.960 . S
C720 C721 1.391 . S
C720 C722 1.394 . S
C720 H736 0.931 . S
C721 C720 1.391 . S
C721 C725 1.376 . S
C722 C720 1.394 . S
C722 C723 1.369 . S
C722 C726 1.531 . S
C723 C722 1.369 . S
C723 C724 1.410 . S
C723 C731 1.503 . S
C724 C723 1.410 . S
C724 C725 1.392 . S
C724 C727 1.511 . S
C725 C721 1.376 . S
C725 C724 1.392 . S
C725 H737 0.929 . S
C726 C722 1.531 . S
C726 H738 0.960 . S
C726 H739 0.962 . S
C726 H740 0.960 . S
C727 C724 1.511 . S
C727 H741 0.961 . S
C727 H742 0.961 . S
C727 H743 0.961 . S
C728 C729 1.370 . S
C728 C730 1.363 . S
C728 H744 0.931 . S
C729 C728 1.370 . S
C729 C733 1.408 . S
C730 C728 1.363 . S
C730 C731 1.370 . S
C730 C734 1.524 . S
C731 C723 1.503 . S
C731 C730 1.370 . S
C731 C732 1.403 . S
C732 C731 1.403 . S
C732 C733 1.404 . S
C732 C735 1.539 . S
C733 C729 1.408 . S
C733 C732 1.404 . S
C733 H745 0.930 . S
C734 C730 1.524 . S
C734 H746 0.956 . S
C734 H747 0.961 . S
C734 H748 0.961 . S
C735 C732 1.539 . S
C735 H749 0.958 . S
C735 H750 0.961 . S
C735 H751 0.960 . S
H736 C720 0.931 . S
H737 C725 0.929 . S
H738 C726 0.960 . S
H739 C726 0.962 . S
H740 C726 0.960 . S
H741 C727 0.961 . S
H742 C727 0.961 . S
H743 C727 0.961 . S
H744 C728 0.931 . S
H745 C733 0.930 . S
H746 C734 0.956 . S
H747 C734 0.961 . S
H748 C734 0.961 . S
H749 C735 0.958 . S
H750 C735 0.961 . S
H751 C735 0.960 . S
C752 C753 1.391 . S
C752 C754 1.394 . S
C752 H768 0.931 . S
C753 C752 1.391 . S
C753 C757 1.376 . S
C754 C752 1.394 . S
C754 C755 1.369 . S
C754 C758 1.531 . S
C755 C754 1.369 . S
C755 C756 1.410 . S
C755 C763 1.503 . S
C756 C755 1.410 . S
C756 C757 1.392 . S
C756 C759 1.511 . S
C757 C753 1.376 . S
C757 C756 1.392 . S
C757 H769 0.929 . S
C758 C754 1.531 . S
C758 H770 0.960 . S
C758 H771 0.962 . S
C758 H772 0.960 . S
C759 C756 1.511 . S
C759 H773 0.961 . S
C759 H774 0.961 . S
C759 H775 0.961 . S
C760 C761 1.370 . S
C760 C762 1.363 . S
C760 H776 0.931 . S
C761 C760 1.370 . S
C761 C765 1.408 . S
C762 C760 1.363 . S
C762 C763 1.370 . S
C762 C766 1.524 . S
C763 C755 1.503 . S
C763 C762 1.370 . S
C763 C764 1.403 . S
C764 C763 1.403 . S
C764 C765 1.404 . S
C764 C767 1.539 . S
C765 C761 1.408 . S
C765 C764 1.404 . S
C765 H777 0.930 . S
C766 C762 1.524 . S
C766 H778 0.956 . S
C766 H779 0.961 . S
C766 H780 0.961 . S
C767 C764 1.539 . S
C767 H781 0.958 . S
C767 H782 0.961 . S
C767 H783 0.960 . S
H768 C752 0.931 . S
H769 C757 0.929 . S
H770 C758 0.960 . S
H771 C758 0.962 . S
H772 C758 0.960 . S
H773 C759 0.961 . S
H774 C759 0.961 . S
H775 C759 0.961 . S
H776 C760 0.931 . S
H777 C765 0.930 . S
H778 C766 0.956 . S
H779 C766 0.961 . S
H780 C766 0.961 . S
H781 C767 0.958 . S
H782 C767 0.961 . S
H783 C767 0.960 . S
C784 C785 1.391 . S
C784 C786 1.394 . S
C784 H800 0.931 . S
C785 C784 1.391 . S
C785 C789 1.376 . S
C786 C784 1.394 . S
C786 C787 1.369 . S
C786 C790 1.531 . S
C787 C786 1.369 . S
C787 C788 1.410 . S
C787 C795 1.503 . S
C788 C787 1.410 . S
C788 C789 1.392 . S
C788 C791 1.511 . S
C789 C785 1.376 . S
C789 C788 1.392 . S
C789 H801 0.929 . S
C790 C786 1.531 . S
C790 H802 0.960 . S
C790 H803 0.962 . S
C790 H804 0.960 . S
C791 C788 1.511 . S
C791 H805 0.961 . S
C791 H806 0.961 . S
C791 H807 0.961 . S
C792 C793 1.370 . S
C792 C794 1.363 . S
C792 H808 0.931 . S
C793 C792 1.370 . S
C793 C797 1.408 . S
C794 C792 1.363 . S
C794 C795 1.370 . S
C794 C798 1.524 . S
C795 C787 1.503 . S
C795 C794 1.370 . S
C795 C796 1.403 . S
C796 C795 1.403 . S
C796 C797 1.404 . S
C796 C799 1.539 . S
C797 C793 1.408 . S
C797 C796 1.404 . S
C797 H809 0.930 . S
C798 C794 1.524 . S
C798 H810 0.956 . S
C798 H811 0.961 . S
C798 H812 0.961 . S
C799 C796 1.539 . S
C799 H813 0.958 . S
C799 H814 0.961 . S
C799 H815 0.960 . S
H800 C784 0.931 . S
H801 C789 0.929 . S
H802 C790 0.960 . S
H803 C790 0.962 . S
H804 C790 0.960 . S
H805 C791 0.961 . S
H806 C791 0.961 . S
H807 C791 0.961 . S
H808 C792 0.931 . S
H809 C797 0.930 . S
H810 C798 0.956 . S
H811 C798 0.961 . S
H812 C798 0.961 . S
H813 C799 0.958 . S
H814 C799 0.961 . S
H815 C799 0.960 . S
C241 C210 2.852 . S
C249 C10 2.752 . S
C273 C6 2.209 . S
C281 C46 2.368 . S
C305 C50 3.691 . S
C313 C86 3.384 1_545 S
C337 C126 2.809 . S
C345 C90 2.970 . S
C369 C170 4.471 . S
C377 C130 4.367 . S
C401 C166 2.622 . S
C409 C206 2.554 . S
C433 C175 2.233 . S
C441 C19 2.304 . S
C465 C219 1.318 . S
C473 C55 1.302 . S
C497 C95 0.997 . S
C505 C15 0.994 . S
C529 C135 2.184 . S
C537 C59 2.107 . S
C561 C179 3.893 1_556 S
C569 C99 3.980 . S
C593 C139 3.169 1_554 S
C601 C215 3.122 . S
C625 C9 0.376 . S
C633 C18 0.478 . S
C657 C58 0.389 . S
C665 C49 0.329 . S
C689 C98 0.688 . S
C697 C89 0.534 . S
C721 C138 0.439 . S
C729 C129 0.415 . S
C753 C178 0.279 . S
C761 C169 0.423 . S
C785 C218 0.381 . S
C793 C209 0.429 . S
