# Generated by pormake.
# Topology sxb, (6)-cn, num edge types: 1
# Building blocks:
#     Node 0, Type 0, BuildingBlock: HISSIN_clean_sbu_0, # of connection points: 6
#     Node 1, Type 0, BuildingBlock: HISSIN_clean_sbu_0, # of connection points: 6
#     Node 2, Type 0, BuildingBlock: HISSIN_clean_sbu_0, # of connection points: 6
#     Node 3, Type 0, BuildingBlock: HISSIN_clean_sbu_0, # of connection points: 6
#     Edge 4, Type (0, 0), BuildingBlock: KIFKEQ_clean_linker_1, # of connection points: 2
#     Edge 5, Type (0, 0), BuildingBlock: KIFKEQ_clean_linker_1, # of connection points: 2
#     Edge 6, Type (0, 0), BuildingBlock: KIFKEQ_clean_linker_1, # of connection points: 2
#     Edge 7, Type (0, 0), BuildingBlock: KIFKEQ_clean_linker_1, # of connection points: 2
#     Edge 8, Type (0, 0), BuildingBlock: KIFKEQ_clean_linker_1, # of connection points: 2
#     Edge 9, Type (0, 0), BuildingBlock: KIFKEQ_clean_linker_1, # of connection points: 2
#     Edge 10, Type (0, 0), BuildingBlock: KIFKEQ_clean_linker_1, # of connection points: 2
#     Edge 11, Type (0, 0), BuildingBlock: KIFKEQ_clean_linker_1, # of connection points: 2
#     Edge 12, Type (0, 0), BuildingBlock: KIFKEQ_clean_linker_1, # of connection points: 2
#     Edge 13, Type (0, 0), BuildingBlock: KIFKEQ_clean_linker_1, # of connection points: 2
#     Edge 14, Type (0, 0), BuildingBlock: KIFKEQ_clean_linker_1, # of connection points: 2
#     Edge 15, Type (0, 0), BuildingBlock: KIFKEQ_clean_linker_1, # of connection points: 2
# Relax obj value: 0.405
# Max RMSD: 0.119
# Mean RMSD: 0.091
data_MOF--net-sxb--node1-HISSIN_clean_sbu_0--edge1-KIFKEQ_clean_linker_1
_symmetry_space_group_name_H-M    P1
_symmetry_Int_Tables_number       1
_symmetry_cell_setting            triclinic
loop_
_symmetry_equiv_pos_as_xyz
'x, y, z'
_cell_length_a     16.189253
_cell_length_b     35.682923
_cell_length_c     31.287949
_cell_angle_alpha  102.50503
_cell_angle_beta   97.039776
_cell_angle_gamma 63.11051
loop_
_atom_site_label
_atom_site_type_symbol
_atom_site_fract_x
_atom_site_fract_y
_atom_site_fract_z
_atom_type_partial_charge
Eu0 Eu 0.99684 1.08467 0.97378 0.0
Eu1 Eu 0.18794 0.09263 0.00022 0.0
C2 C 1.0707 0.0906 0.07527 0.0
C3 C 0.78049 0.11291 0.91005 0.0
C4 C 0.81565 0.13363 0.88911 0.0
C5 C 0.626 0.15726 0.88522 0.0
C6 C 0.75567 0.16764 0.86849 0.0
C7 C 0.68589 0.12373 0.90646 0.0
C8 C 0.65979 0.18094 0.86791 0.0
C9 C 0.84006 0.08619 0.94158 0.0
O10 O 0.23248 1.02029 0.98635 0.0
O11 O 1.09183 1.01964 0.99043 0.0
C12 C 0.18297 0.99962 0.98852 0.0
O13 O 1.08094 1.06043 0.9132 0.0
O14 O 0.3251 1.08224 0.98407 0.0
O15 O 0.26831 0.11856 0.04737 0.0
O16 O 0.14967 0.1046 0.93063 0.0
C17 C 0.1191 1.08154 0.90091 0.0
O18 O 0.96634 0.15181 0.96571 0.0
O19 O 1.07605 0.16078 0.0136 0.0
O20 O 0.15247 1.08138 0.06182 0.0
O21 O 0.91981 1.05631 0.92708 0.0
O22 O 0.8482 0.10769 0.97997 0.0
O23 O 0.99826 0.09773 0.04819 0.0
C24 C 0.3321 0.14837 0.00958 0.0
C25 C 0.29648 0.16229 0.96967 0.0
C26 C 0.35063 0.21353 0.03629 0.0
C27 C 0.28966 0.20086 0.9628 0.0
C28 C 0.35798 0.17456 0.04306 0.0
C29 C 0.31724 0.22696 -0.00418 0.0
C30 C 0.32831 0.1102 0.01829 0.0
C31 C 1.00006 0.17698 0.98988 0.0
H32 H 0.88888 0.12557 0.89146 0.0
H33 H 0.55224 0.16719 0.88619 0.0
H34 H 0.78351 0.1854 0.85578 0.0
H35 H 0.65753 0.10839 0.9227 0.0
H36 H 0.27336 0.14345 0.94359 0.0
H37 H 0.37201 0.23288 0.06255 0.0
H38 H 0.26579 0.20932 0.93082 0.0
H39 H 0.3828 0.16511 0.07461 0.0
Eu40 Eu 0.11682 1.04238 0.47574 0.0
Eu41 Eu 1.01834 0.14529 0.49934 0.0
C42 C 1.07694 0.09049 0.57697 0.0
C43 C 0.19263 0.92603 0.47748 0.0
C44 C 0.19172 0.92971 0.52307 0.0
C45 C 0.15005 0.8677 0.46699 0.0
C46 C 0.16735 0.90334 0.54043 0.0
C47 C 0.1755 0.89372 0.44969 0.0
C48 C 0.14192 0.87344 0.5125 0.0
C49 C 0.1982 0.95898 0.45851 0.0
O50 O 0.17381 0.12821 0.50783 0.0
O51 O 0.2312 1.06112 0.46635 0.0
C52 C 0.24361 0.09468 0.48721 0.0
O53 O 1.05839 1.06368 0.41146 0.0
O54 O 0.99186 0.20498 0.54458 0.0
O55 O 0.92822 0.20663 0.47959 0.0
O56 O 1.06073 0.12845 0.42886 0.0
C57 C 1.05602 0.09708 0.3995 0.0
O58 O 0.96835 1.05795 0.49227 0.0
O59 O 0.89516 0.12852 0.48545 0.0
O60 O 1.01966 0.12616 0.56363 0.0
O61 O 0.12291 0.98212 0.43821 0.0
O62 O 0.23562 0.98199 0.48319 0.0
O63 O 0.12816 1.05631 0.54947 0.0
C64 C 0.99691 0.25301 0.50698 0.0
C65 C 1.06681 0.23415 0.476 0.0
C66 C 1.05163 0.3066 0.53729 0.0
C67 C 0.13082 0.25025 0.47681 0.0
C68 C 0.9875 0.29022 0.53665 0.0
C69 C 0.1261 0.28546 0.50862 0.0
C70 C 0.95054 0.22816 0.51452 0.0
C71 C 0.89097 0.09315 0.48901 0.0
H72 H 0.20485 0.95441 0.54528 0.0
H73 H 0.13007 0.84537 0.4444 0.0
H74 H 0.16349 0.90799 0.57563 0.0
H75 H 0.17575 0.89049 0.41445 0.0
H76 H 1.07624 0.20505 0.45317 0.0
H77 H 1.0468 0.33385 0.56209 0.0
H78 H 0.18691 0.23383 0.45398 0.0
H79 H 0.93481 0.30475 0.56119 0.0
Eu80 Eu 0.4999 0.58216 0.97453 0.0
Eu81 Eu 0.68767 0.59168 0.00162 0.0
C82 C 0.5666 0.59297 0.07414 0.0
C83 C 0.35772 0.52546 0.96667 0.0
C84 C 0.39119 0.51331 0.0075 0.0
C85 C 0.33932 0.46002 0.94252 0.0
C86 C 0.39701 0.47549 0.01607 0.0
C87 C 0.33307 0.49821 0.934 0.0
C88 C 0.37046 0.44842 0.98391 0.0
C89 C 0.36146 0.56312 0.95651 0.0
O90 O 0.71842 0.52478 0.01056 0.0
O91 O 0.61569 0.51497 0.95897 0.0
C92 C 0.68904 0.49897 0.98431 0.0
O93 O 0.53157 0.59637 0.91382 0.0
O94 O 0.76291 0.62168 0.04739 0.0
O95 O 0.8366 0.56841 -0.00362 0.0
O96 O 0.68634 0.57869 0.92693 0.0
C97 C 0.61324 0.58695 0.90005 0.0
O98 O 0.45293 0.65479 0.99043 0.0
O99 O 0.59168 0.656 0.98369 0.0
O100 O 0.60415 0.61469 0.0625 0.0
O101 O 0.36258 0.59221 0.98993 0.0
O102 O 0.42271 0.55405 0.92778 0.0
O103 O 0.53796 0.56953 0.04388 0.0
C104 C 0.90155 0.56614 0.06699 0.0
C105 C 0.86588 0.54606 0.08856 0.0
C106 C 1.05515 0.52344 0.09412 0.0
C107 C 0.92527 0.51315 0.11071 0.0
C108 C 0.99585 0.5559 0.07142 0.0
C109 C 1.02109 0.50025 0.1121 0.0
C110 C 0.84324 0.59135 0.03409 0.0
C111 C 0.50084 0.67582 0.9869 0.0
H112 H 0.41313 0.53303 0.03305 0.0
H113 H 0.3187 0.43986 0.91692 0.0
H114 H 0.41909 0.46845 0.04869 0.0
H115 H 0.30979 0.5063 0.90182 0.0
H116 H 0.79289 0.55363 0.08552 0.0
H117 H 0.12888 0.51382 0.09376 0.0
H118 H 0.8972 0.49578 0.12394 0.0
H119 H 1.02463 0.57076 0.05472 0.0
Eu120 Eu 0.65378 0.53223 0.47634 0.0
Eu121 Eu 0.55443 0.63513 0.49762 0.0
C122 C 0.62013 0.58119 0.57475 0.0
C123 C 0.71156 0.41783 0.47805 0.0
C124 C 0.69751 0.42117 0.52245 0.0
C125 C 0.65414 0.36414 0.45864 0.0
C126 C 0.65912 0.39718 0.53461 0.0
C127 C 0.69345 0.3878 0.44654 0.0
C128 C 0.63291 0.36996 0.5026 0.0
C129 C 0.73291 0.44899 0.46364 0.0
O130 O 0.70297 0.62003 0.48279 0.0
O131 O 0.7758 0.54985 0.49033 0.0
C132 C 0.78006 0.5851 0.48656 0.0
O133 O 0.65329 0.55111 0.41202 0.0
O134 O 0.51076 0.69474 0.54542 0.0
O135 O 0.48069 0.69685 0.47665 0.0
O136 O 0.53193 0.61754 0.42473 0.0
C137 C 0.58904 0.58483 0.39768 0.0
O138 O 0.498 0.54873 0.47052 0.0
O139 O 0.4352 0.61913 0.50458 0.0
O140 O 0.62258 0.61282 0.56097 0.0
O141 O 0.67255 0.47097 0.4361 0.0
O142 O 0.76017 0.47277 0.49399 0.0
O143 O 0.61029 0.55047 0.54648 0.0
C144 C 0.54078 0.74282 0.51762 0.0
C145 C 0.61272 0.72826 0.48833 0.0
C146 C 0.59598 0.79281 0.56055 0.0
C147 C 0.67724 0.74474 0.49586 0.0
C148 C 0.53121 0.77602 0.55315 0.0
C149 C 0.67126 0.77602 0.53277 0.0
C150 C 0.48808 0.71804 0.51527 0.0
C151 C 0.42587 0.58391 0.48749 0.0
H152 H 0.71134 0.44393 0.54759 0.0
H153 H 0.63427 0.3437 0.43305 0.0
H154 H 0.64543 0.40167 0.56884 0.0
H155 H 0.70406 0.38467 0.41217 0.0
H156 H 0.62231 0.70247 0.46079 0.0
H157 H 0.59008 0.81719 0.58911 0.0
H158 H 0.73381 0.73199 0.47355 0.0
H159 H 0.47676 0.78731 0.57632 0.0
H160 H 0.32184 0.73421 0.01035 0.0
H161 H 0.57026 0.7255 0.96303 0.0
H162 H 0.24726 0.81123 0.0122 0.0
H163 H 0.49516 0.80179 0.96283 0.0
H164 H 0.36922 0.94699 0.00065 0.0
H165 H 0.44376 0.87048 0.00152 0.0
H166 H 0.17834 0.86743 0.97494 0.0
H167 H 0.1041 0.94398 0.97616 0.0
C168 C 0.36042 0.74857 -0.00012 0.0
C169 C 0.45255 0.72316 0.98667 0.0
C170 C 0.3173 0.79307 0.00067 0.0
C171 C 0.36429 0.81381 0.98773 0.0
C172 C 0.45624 0.78801 0.97405 0.0
C173 C 0.49955 0.74373 0.97379 0.0
C174 C 0.3267 0.93002 -0.00494 0.0
C175 C 0.2302 0.9522 0.98843 0.0
C176 C 0.36971 0.8857 -0.00477 0.0
C177 C 0.31803 0.8617 0.98823 0.0
C178 C 0.22141 0.88412 0.98137 0.0
C179 C 0.17843 0.92843 0.98173 0.0
H180 H 0.65667 0.43513 0.92937 0.0
H181 H 0.82817 0.45511 0.04021 0.0
H182 H 0.73136 0.35879 0.92996 0.0
H183 H 0.90023 0.37903 0.04237 0.0
H184 H 1.07328 0.23468 0.01616 0.0
H185 H 1.00146 0.3106 0.01362 0.0
H186 H 0.74856 0.30304 0.96096 0.0
H187 H 0.8229 0.22652 0.9614 0.0
C188 C 0.71015 0.4233 0.9541 0.0
C189 C 0.73623 0.45171 0.98459 0.0
C190 C 0.75282 0.37917 0.95477 0.0
C191 C 0.82265 0.36167 0.98631 0.0
C192 C 0.84842 0.39034 0.0169 0.0
C193 C 0.80637 0.43444 0.01591 0.0
C194 C 1.0022 0.24921 0.00411 0.0
C195 C 0.9541 0.22412 0.9892 0.0
C196 C 0.9603 0.29321 0.00288 0.0
C197 C 0.86802 0.31409 0.98728 0.0
C198 C 0.81994 0.28877 0.97253 0.0
C199 C 0.86247 0.24458 0.97311 0.0
H200 H 0.11808 0.36467 0.51581 0.0
H201 H 0.30882 0.23224 0.51479 0.0
H202 H 0.24846 0.38248 0.52146 0.0
H203 H 0.43926 0.24988 0.52177 0.0
H204 H 0.63565 0.29152 0.47038 0.0
H205 H 0.5152 0.27029 0.47702 0.0
H206 H 0.3727 0.38803 0.56767 0.0
H207 H 0.48968 0.41037 0.55892 0.0
C208 C 0.18797 0.33957 0.51739 0.0
C209 C 0.20381 0.2971 0.51425 0.0
C210 C 0.26266 0.34968 0.52093 0.0
C211 C 0.35439 0.31753 0.522 0.0
C212 C 0.36968 0.27524 0.52026 0.0
C213 C 0.29513 0.26514 0.51627 0.0
C214 C 0.57895 0.31269 0.49196 0.0
C215 C 0.57179 0.35282 0.51365 0.0
C216 C 0.5103 0.30037 0.49614 0.0
C217 C 0.4335 0.32784 0.52237 0.0
C218 C 0.4299 0.36659 0.54646 0.0
C219 C 0.49801 0.37905 0.542 0.0
H220 H 0.15542 0.79242 0.48573 0.0
H221 H 1.01584 0.90975 0.57746 0.0
H222 H 1.04693 0.76736 0.50052 0.0
H223 H 0.91174 0.88342 0.59454 0.0
H224 H 0.65704 0.85672 0.54781 0.0
H225 H 0.78373 0.87695 0.55389 0.0
H226 H 0.9821 0.74438 0.54736 0.0
H227 H 0.85482 0.72437 0.53962 0.0
C228 C 0.10319 0.81237 0.50991 0.0
C229 C 1.09328 0.85341 0.52968 0.0
C230 C 1.04151 0.7978 0.51883 0.0
C231 C 0.96939 0.8238 0.54816 0.0
C232 C 0.96512 0.86308 0.571 0.0
C233 C 1.02602 0.87786 0.56169 0.0
C234 C 0.72782 0.8322 0.54849 0.0
C235 C 0.74668 0.78911 0.54274 0.0
C236 C 0.80053 0.84366 0.55224 0.0
C237 C 0.89329 0.8122 0.55089 0.0
C238 C 0.91163 0.76928 0.54772 0.0
C239 C 0.83896 0.75784 0.54342 0.0
H240 H 0.45365 0.25285 0.02193 0.0
H241 H 0.19859 0.28547 0.94488 0.0
H242 H 0.50396 0.28651 0.97954 0.0
H243 H 0.25095 0.3186 0.90054 0.0
H244 H 0.49698 0.20499 0.8191 0.0
H245 H 0.36134 0.26747 0.84832 0.0
H246 H 0.53456 0.31959 0.92838 0.0
H247 H 0.67111 0.25633 0.89974 0.0
C248 C 0.40603 0.26892 -0.00287 0.0
C249 C 0.32504 0.26375 0.98478 0.0
C250 C 0.43506 0.28858 0.97232 0.0
C251 C 0.38468 0.30238 0.93405 0.0
C252 C 0.29381 0.30619 0.9283 0.0
C253 C 0.26422 0.28679 0.95349 0.0
C254 C 0.50635 0.23089 0.84102 0.0
C255 C 0.5938 0.22428 0.86008 0.0
C256 C 0.42809 0.26726 0.85791 0.0
C257 C 0.43832 0.29542 0.89514 0.0
C258 C 0.52519 0.29614 0.90238 0.0
C259 C 0.60398 0.25958 0.88593 0.0
H260 H 0.40966 1.0293 0.4535 0.0
H261 H 0.29569 0.16003 0.52134 0.0
H262 H 0.56106 1.02891 0.45389 0.0
H263 H 0.44754 0.15955 0.52257 0.0
H264 H 0.71496 0.16042 0.48621 0.0
H265 H 0.56351 0.16092 0.48554 0.0
H266 H 0.69701 1.0267 0.49223 0.0
H267 H 0.84858 1.02623 0.4922 0.0
C268 C 0.41641 1.05811 0.46869 0.0
C269 C 0.33837 0.09467 0.48739 0.0
C270 C 0.50457 1.05782 0.46923 0.0
C271 C 0.5194 0.09417 0.48834 0.0
C272 C 0.44093 0.13083 0.50688 0.0
C273 C 0.35282 0.13105 0.50648 0.0
C274 C 0.71263 0.13084 0.48756 0.0
C275 C 0.79618 0.09325 0.48922 0.0
C276 C 0.62456 0.13117 0.48745 0.0
C277 C 0.61515 0.09385 0.4888 0.0
C278 C 0.69898 1.05624 0.49049 0.0
C279 C 0.78714 1.05597 0.49078 0.0
H280 H 1.01092 0.42427 0.083 0.0
H281 H 0.18306 0.47796 0.16163 0.0
H282 H 0.14811 0.36051 0.05622 0.0
H283 H 0.3195 0.41489 0.13414 0.0
H284 H 0.48636 0.39203 0.0374 0.0
H285 H 0.43147 0.36133 0.08349 0.0
H286 H 0.17998 0.39192 0.00349 0.0
H287 H 0.23288 0.42317 0.95927 0.0
C288 C 1.07771 0.42152 0.09682 0.0
C289 C 1.08719 0.45746 0.12143 0.0
C290 C 0.15693 0.38464 0.08145 0.0
C291 C 0.24365 0.38553 0.08845 0.0
C292 C 0.25295 0.41481 0.12474 0.0
C293 C 0.17424 0.45151 0.14059 0.0
C294 C 0.42058 0.39082 0.02895 0.0
C295 C 0.36103 0.41274 -0.00335 0.0
C296 C 0.38956 0.3728 0.05514 0.0
C297 C 0.29845 0.37693 0.04941 0.0
C298 C 0.24908 0.38962 0.01058 0.0
C299 C 0.27959 0.40788 0.98474 0.0
H300 H 0.37519 0.5177 0.45684 0.0
H301 H 0.2584 0.65062 0.51784 0.0
H302 H 0.22356 0.51829 0.45607 0.0
H303 H 0.10713 0.65116 0.51807 0.0
H304 H 0.82136 0.65172 0.4813 0.0
H305 H 0.97238 0.65163 0.48111 0.0
H306 H 0.10698 0.51864 0.49314 0.0
H307 H 0.95601 0.51877 0.49237 0.0
C308 C 0.31748 0.54717 0.47034 0.0
C309 C 0.33111 0.58408 0.48738 0.0
C310 C 0.22943 0.54749 0.4702 0.0
C311 C 0.15027 0.58478 0.48707 0.0
C312 C 0.1642 0.62171 0.50407 0.0
C313 C 0.25229 0.62135 0.50425 0.0
C314 C 0.88297 0.62235 0.48383 0.0
C315 C 0.87447 0.58526 0.48672 0.0
C316 C 0.9708 0.6223 0.48403 0.0
C317 C 1.05477 0.58506 0.48702 0.0
C318 C 1.04584 0.54801 0.48999 0.0
C319 C 0.95807 0.54813 0.48987 0.0
H320 H 1.08449 0.15208 0.36078 0.0
H321 H 1.01435 1.04573 0.33068 0.0
H322 H 1.08082 0.15272 0.2826 0.0
H323 H 1.01042 1.04657 0.25257 0.0
H324 H 0.93139 0.08908 0.11665 0.0
H325 H 0.9212 0.09281 0.19527 0.0
H326 H 0.17947 0.10273 0.21952 0.0
H327 H 0.19006 0.09885 0.14175 0.0
C328 C 1.06777 0.129 0.33756 0.0
C329 C 1.05031 0.09869 0.35207 0.0
C330 C 1.06596 0.12929 0.29275 0.0
C331 C 1.04547 0.09963 0.26136 0.0
C332 C 1.02565 1.07005 0.2759 0.0
C333 C 1.02862 1.0694 0.32069 0.0
C334 C 0.98575 0.09216 0.13883 0.0
C335 C 1.06165 0.09348 0.12277 0.0
C336 C 0.98012 0.09414 0.18379 0.0
C337 C 1.0494 0.09824 0.21365 0.0
C338 C 0.12444 0.10008 0.19754 0.0
C339 C 0.13075 0.0975 0.15277 0.0
H340 H 0.15788 0.13387 0.86234 0.0
H341 H 1.08265 1.02909 0.83189 0.0
H342 H 0.15023 0.13591 0.78413 0.0
H343 H 1.07511 1.03119 0.75417 0.0
H344 H 0.16179 1.0198 0.61582 0.0
H345 H 0.17765 1.01708 0.69381 0.0
H346 H 1.02784 0.15455 0.72413 0.0
H347 H 1.01192 0.15742 0.64606 0.0
C348 C 0.14053 0.11106 0.83902 0.0
C349 C 0.12106 1.08127 0.85345 0.0
C350 C 0.13546 0.11244 0.79423 0.0
C351 C 0.11194 1.08373 0.76286 0.0
C352 C 1.09431 1.05347 0.77735 0.0
C353 C 1.09834 1.0524 0.82201 0.0
C354 C 0.13218 1.0495 0.63904 0.0
C355 C 1.08529 0.08883 0.62452 0.0
C356 C 0.14103 1.0479 0.68379 0.0
C357 C 0.10416 1.0856 0.71526 0.0
C358 C 1.05791 0.12496 0.7008 0.0
C359 C 1.04811 0.12655 0.65598 0.0
H360 H 0.66405 0.51809 0.3294 0.0
H361 H 0.49617 0.65464 0.35788 0.0
H362 H 0.65312 0.52062 0.25132 0.0
H363 H 0.48592 0.65709 0.27985 0.0
H364 H 0.53114 0.53866 0.11096 0.0
H365 H 0.53327 0.53671 0.18888 0.0
H366 H 0.59577 0.64517 0.2222 0.0
H367 H 0.59439 0.647 0.14458 0.0
C368 C 0.62473 0.54865 0.31905 0.0
C369 C 0.58109 0.58617 0.35003 0.0
C370 C 0.618 0.55003 0.27424 0.0
C371 C 0.56867 0.58905 0.25931 0.0
C372 C 0.52499 0.62655 0.29027 0.0
C373 C 0.53052 0.62509 0.335 0.0
C374 C 0.54471 0.56228 0.13491 0.0
C375 C 0.56242 0.59304 0.12143 0.0
C376 C 0.54653 0.56097 0.17955 0.0
C377 C 0.5647 0.59079 0.21179 0.0
C378 C 0.5807 0.622 0.19828 0.0
C379 C 0.58022 0.62292 0.15371 0.0
H380 H 0.59194 0.52735 0.61522 0.0
H381 H 0.66443 0.63295 0.6427 0.0
H382 H 0.5974 0.52737 0.69347 0.0
H383 H 0.6703 0.6327 0.72127 0.0
H384 H 0.75207 0.58871 0.85813 0.0
H385 H 0.76 0.58626 0.77949 0.0
H386 H 0.49986 0.57807 0.75638 0.0
H387 H 0.49146 0.58074 0.83401 0.0
C388 C 0.60949 0.55047 0.63788 0.0
C389 C 0.62711 0.58034 0.62252 0.0
C390 C 0.61237 0.55054 0.68282 0.0
C391 C 0.63397 0.58014 0.71369 0.0
C392 C 0.65408 0.6093 0.69836 0.0
C393 C 0.65008 0.60959 0.65333 0.0
C394 C 0.69679 0.58632 0.83619 0.0
C395 C 0.62111 0.58502 0.85255 0.0
C396 C 0.70109 0.58512 0.79121 0.0
C397 C 0.63072 0.58176 0.76161 0.0
C398 C 0.55574 0.58016 0.77809 0.0
C399 C 0.55074 0.582 0.82282 0.0
loop_
_geom_bond_atom_site_label_1
_geom_bond_atom_site_label_2
_geom_bond_distance
_geom_bond_site_symmetry_2
_ccdc_geom_bond_type
Eu0 C9 2.828 . S
Eu0 O11 2.392 1_655 S
Eu0 O13 2.418 . S
Eu0 O18 2.373 1_565 S
Eu0 O21 2.488 . S
Eu0 O22 2.471 1_556 S
Eu0 O23 2.349 1_556 S
Eu1 O10 2.373 1_545 S
Eu1 O14 2.488 . S
Eu1 O15 2.471 1_554 S
Eu1 O16 2.349 1_554 S
Eu1 O19 2.392 1_455 S
Eu1 O20 2.418 . S
Eu1 C30 2.828 . S
C2 O20 1.244 . S
C2 O23 1.265 1_445 S
C3 C4 1.379 1_556 S
C3 C7 1.382 . S
C3 C9 1.505 1_545 S
C4 C3 1.379 1_554 S
C4 C6 1.369 . S
C4 H32 0.930 . S
C5 C7 1.385 . S
C5 C8 1.382 1_556 S
C5 H33 0.930 . S
C6 C4 1.369 . S
C6 C8 1.392 . S
C6 H34 0.930 . S
C7 C3 1.382 . S
C7 C5 1.385 . S
C7 H35 0.921 1_545 S
C8 C5 1.382 1_554 S
C8 C6 1.392 . S
C9 Eu0 2.828 . S
C9 C3 1.505 1_565 S
C9 O21 1.249 . S
C9 O22 1.244 1_556 S
O10 Eu1 2.373 1_565 S
O10 C12 1.258 . S
O11 Eu0 2.392 1_455 S
O11 C12 1.241 1_556 S
C12 O10 1.258 . S
C12 O11 1.241 1_554 S
O13 Eu0 2.418 . S
O13 C17 1.244 . S
O14 Eu1 2.488 . S
O14 C30 1.249 . S
O15 Eu1 2.471 1_556 S
O15 C30 1.244 1_556 S
O16 Eu1 2.349 1_556 S
O16 C17 1.265 1_445 S
C17 O13 1.244 . S
C17 O16 1.265 1_665 S
O18 Eu0 2.373 1_545 S
O18 C31 1.258 1_556 S
O19 Eu1 2.392 1_655 S
O19 C31 1.241 . S
O20 Eu1 2.418 . S
O20 C2 1.244 . S
O21 Eu0 2.488 . S
O21 C9 1.249 . S
O22 Eu0 2.471 1_554 S
O22 C9 1.244 1_554 S
O23 Eu0 2.349 1_554 S
O23 C2 1.265 1_665 S
C24 C25 1.379 1_554 S
C24 C28 1.379 . S
C24 C30 1.505 1_565 S
C25 C24 1.379 1_556 S
C25 C27 1.369 . S
C25 H36 0.930 . S
C26 C28 1.384 . S
C26 C29 1.382 1_554 S
C26 H37 0.930 . S
C27 C25 1.369 . S
C27 C29 1.392 . S
C27 H38 0.930 . S
C28 C24 1.379 . S
C28 C26 1.384 . S
C28 H39 0.924 1_565 S
C29 C26 1.382 1_556 S
C29 C27 1.392 . S
C30 Eu1 2.828 . S
C30 O14 1.249 . S
C30 O15 1.244 1_554 S
C30 C24 1.505 1_545 S
C31 O18 1.258 1_554 S
C31 O19 1.241 . S
H32 C4 0.930 . S
H33 C5 0.930 . S
H34 C6 0.930 . S
H35 C7 0.921 1_565 S
H36 C25 0.930 . S
H37 C26 0.930 . S
H38 C27 0.930 . S
H39 C28 0.924 1_545 S
Eu40 C49 2.828 1_455 S
Eu40 O51 2.392 . S
Eu40 O53 2.418 1_455 S
Eu40 O58 2.373 1_455 S
Eu40 O61 2.488 1_455 S
Eu40 O62 2.471 1_455 S
Eu40 O63 2.349 . S
Eu41 O50 2.373 1_655 S
Eu41 O54 2.488 1_655 S
Eu41 O55 2.471 1_655 S
Eu41 O56 2.349 . S
Eu41 O59 2.392 . S
Eu41 O60 2.417 1_655 S
Eu41 C70 2.828 1_655 S
C42 O60 1.240 . S
C42 O63 1.265 1_545 S
C43 C44 1.379 . S
C43 C47 1.373 . S
C43 C49 1.505 . S
C44 C43 1.379 . S
C44 C46 1.369 . S
C44 H72 0.930 . S
C45 C47 1.383 . S
C45 C48 1.382 . S
C45 H73 0.930 . S
C46 C44 1.369 . S
C46 C48 1.392 . S
C46 H74 0.930 . S
C47 C43 1.373 . S
C47 C45 1.383 . S
C47 H75 0.931 . S
C48 C45 1.382 . S
C48 C46 1.392 . S
C49 Eu40 2.828 1_655 S
C49 C43 1.505 . S
C49 O61 1.249 . S
C49 O62 1.244 . S
O50 Eu41 2.373 1_455 S
O50 C52 1.258 1_545 S
O51 Eu40 2.392 . S
O51 C52 1.242 . S
C52 O50 1.258 1_565 S
C52 O51 1.242 . S
O53 Eu40 2.418 1_655 S
O53 C57 1.241 . S
O54 Eu41 2.488 1_455 S
O54 C70 1.249 . S
O55 Eu41 2.471 1_455 S
O55 C70 1.244 . S
O56 Eu41 2.349 . S
O56 C57 1.265 1_545 S
C57 O53 1.241 . S
C57 O56 1.265 1_565 S
O58 Eu40 2.373 1_655 S
O58 C71 1.258 1_565 S
O59 Eu41 2.392 . S
O59 C71 1.242 . S
O60 Eu41 2.417 1_455 S
O60 C42 1.240 . S
O61 Eu40 2.488 1_655 S
O61 C49 1.249 . S
O62 Eu40 2.471 1_655 S
O62 C49 1.244 . S
O63 Eu40 2.349 . S
O63 C42 1.265 1_565 S
C64 C65 1.379 . S
C64 C68 1.373 . S
C64 C70 1.505 . S
C65 C64 1.379 . S
C65 C67 1.369 . S
C65 H76 0.930 . S
C66 C68 1.383 . S
C66 C69 1.382 . S
C66 H77 0.930 . S
C67 C65 1.369 . S
C67 C69 1.392 . S
C67 H78 0.930 . S
C68 C64 1.373 . S
C68 C66 1.383 . S
C68 H79 0.931 . S
C69 C66 1.382 . S
C69 C67 1.392 . S
C70 Eu41 2.828 1_455 S
C70 O54 1.249 . S
C70 O55 1.244 . S
C70 C64 1.505 . S
C71 O58 1.258 1_545 S
C71 O59 1.242 . S
H72 C44 0.930 . S
H73 C45 0.930 . S
H74 C46 0.930 . S
H75 C47 0.931 . S
H76 C65 0.930 . S
H77 C66 0.930 . S
H78 C67 0.930 . S
H79 C68 0.931 . S
Eu80 C89 2.828 . S
Eu80 O91 2.392 . S
Eu80 O93 2.418 . S
Eu80 O98 2.373 . S
Eu80 O101 2.488 . S
Eu80 O102 2.471 1_556 S
Eu80 O103 2.349 1_556 S
Eu81 O90 2.373 . S
Eu81 O94 2.488 . S
Eu81 O95 2.471 1_554 S
Eu81 O96 2.349 1_554 S
Eu81 O99 2.392 . S
Eu81 O100 2.418 . S
Eu81 C110 2.828 . S
C82 O100 1.244 . S
C82 O103 1.265 . S
C83 C84 1.379 1_556 S
C83 C87 1.373 . S
C83 C89 1.505 . S
C84 C83 1.379 1_554 S
C84 C86 1.369 . S
C84 H112 0.930 . S
C85 C87 1.383 . S
C85 C88 1.382 1_556 S
C85 H113 0.930 . S
C86 C84 1.369 . S
C86 C88 1.392 . S
C86 H114 0.930 . S
C87 C83 1.373 . S
C87 C85 1.383 . S
C87 H115 0.931 . S
C88 C85 1.382 1_554 S
C88 C86 1.392 . S
C89 Eu80 2.828 . S
C89 C83 1.505 . S
C89 O101 1.249 . S
C89 O102 1.244 1_556 S
O90 Eu81 2.373 . S
O90 C92 1.258 . S
O91 Eu80 2.392 . S
O91 C92 1.241 1_556 S
C92 O90 1.258 . S
C92 O91 1.241 1_554 S
O93 Eu80 2.418 . S
O93 C97 1.244 . S
O94 Eu81 2.488 . S
O94 C110 1.249 . S
O95 Eu81 2.471 1_556 S
O95 C110 1.244 1_556 S
O96 Eu81 2.349 1_556 S
O96 C97 1.265 . S
C97 O93 1.244 . S
C97 O96 1.265 . S
O98 Eu80 2.373 . S
O98 C111 1.258 1_556 S
O99 Eu81 2.392 . S
O99 C111 1.241 . S
O100 Eu81 2.418 . S
O100 C82 1.244 . S
O101 Eu80 2.488 . S
O101 C89 1.249 . S
O102 Eu80 2.471 1_554 S
O102 C89 1.244 1_554 S
O103 Eu80 2.349 1_554 S
O103 C82 1.265 . S
C104 C105 1.379 1_554 S
C104 C108 1.373 . S
C104 C110 1.505 . S
C105 C104 1.379 1_556 S
C105 C107 1.369 . S
C105 H116 0.930 . S
C106 C108 1.383 . S
C106 C109 1.382 1_554 S
C106 H117 0.930 . S
C107 C105 1.369 . S
C107 C109 1.392 . S
C107 H118 0.930 . S
C108 C104 1.373 . S
C108 C106 1.383 . S
C108 H119 0.931 . S
C109 C106 1.382 1_556 S
C109 C107 1.392 . S
C110 Eu81 2.828 . S
C110 O94 1.249 . S
C110 O95 1.244 1_554 S
C110 C104 1.505 . S
C111 O98 1.258 1_554 S
C111 O99 1.241 . S
H112 C84 0.930 . S
H113 C85 0.930 . S
H114 C86 0.930 . S
H115 C87 0.931 . S
H116 C105 0.930 . S
H117 C106 0.930 . S
H118 C107 0.930 . S
H119 C108 0.931 . S
Eu120 C129 2.828 . S
Eu120 O131 2.392 . S
Eu120 O133 2.418 . S
Eu120 O138 2.373 . S
Eu120 O141 2.488 . S
Eu120 O142 2.471 . S
Eu120 O143 2.349 . S
Eu121 O130 2.373 . S
Eu121 O134 2.488 . S
Eu121 O135 2.471 . S
Eu121 O136 2.349 . S
Eu121 O139 2.392 . S
Eu121 O140 2.418 . S
Eu121 C150 2.828 . S
C122 O140 1.244 . S
C122 O143 1.265 . S
C123 C124 1.379 . S
C123 C127 1.373 . S
C123 C129 1.505 . S
C124 C123 1.379 . S
C124 C126 1.369 . S
C124 H152 0.930 . S
C125 C127 1.383 . S
C125 C128 1.382 . S
C125 H153 0.930 . S
C126 C124 1.369 . S
C126 C128 1.392 . S
C126 H154 0.930 . S
C127 C123 1.373 . S
C127 C125 1.383 . S
C127 H155 0.931 . S
C128 C125 1.382 . S
C128 C126 1.392 . S
C129 Eu120 2.828 . S
C129 C123 1.505 . S
C129 O141 1.249 . S
C129 O142 1.244 . S
O130 Eu121 2.373 . S
O130 C132 1.258 . S
O131 Eu120 2.392 . S
O131 C132 1.242 . S
C132 O130 1.258 . S
C132 O131 1.242 . S
O133 Eu120 2.418 . S
O133 C137 1.244 . S
O134 Eu121 2.488 . S
O134 C150 1.249 . S
O135 Eu121 2.471 . S
O135 C150 1.244 . S
O136 Eu121 2.349 . S
O136 C137 1.265 . S
C137 O133 1.244 . S
C137 O136 1.265 . S
O138 Eu120 2.373 . S
O138 C151 1.258 . S
O139 Eu121 2.392 . S
O139 C151 1.242 . S
O140 Eu121 2.418 . S
O140 C122 1.244 . S
O141 Eu120 2.488 . S
O141 C129 1.249 . S
O142 Eu120 2.471 . S
O142 C129 1.244 . S
O143 Eu120 2.349 . S
O143 C122 1.265 . S
C144 C145 1.379 . S
C144 C148 1.373 . S
C144 C150 1.505 . S
C145 C144 1.379 . S
C145 C147 1.369 . S
C145 H156 0.930 . S
C146 C148 1.383 . S
C146 C149 1.382 . S
C146 H157 0.930 . S
C147 C145 1.369 . S
C147 C149 1.392 . S
C147 H158 0.930 . S
C148 C144 1.373 . S
C148 C146 1.383 . S
C148 H159 0.931 . S
C149 C146 1.382 . S
C149 C147 1.392 . S
C150 Eu121 2.828 . S
C150 O134 1.249 . S
C150 O135 1.244 . S
C150 C144 1.505 . S
C151 O138 1.258 . S
C151 O139 1.242 . S
H152 C124 0.930 . S
H153 C125 0.930 . S
H154 C126 0.930 . S
H155 C127 0.931 . S
H156 C145 0.930 . S
H157 C146 0.930 . S
H158 C147 0.930 . S
H159 C148 0.931 . S
H160 C168 0.950 . S
H161 C173 0.950 . S
H162 C170 0.950 . S
H163 C172 0.950 . S
H164 C174 0.950 . S
H165 C176 0.950 . S
H166 C178 0.950 . S
H167 C179 0.950 . S
C168 H160 0.950 . S
C168 C169 1.402 . S
C168 C170 1.391 . S
C169 C168 1.402 . S
C169 C173 1.375 1_554 S
C170 H162 0.950 . S
C170 C168 1.391 . S
C170 C171 1.410 . S
C171 C170 1.410 . S
C171 C172 1.390 1_554 S
C171 C177 1.489 1_554 S
C172 H163 0.950 . S
C172 C171 1.390 1_556 S
C172 C173 1.391 . S
C173 H161 0.950 . S
C173 C169 1.375 1_556 S
C173 C172 1.391 . S
C174 H164 0.950 . S
C174 C175 1.397 . S
C174 C176 1.391 . S
C175 C174 1.397 . S
C175 C179 1.380 1_556 S
C176 H165 0.950 . S
C176 C174 1.391 . S
C176 C177 1.405 . S
C177 C171 1.489 1_556 S
C177 C176 1.405 . S
C177 C178 1.394 1_556 S
C178 H166 0.950 . S
C178 C177 1.394 1_554 S
C178 C179 1.391 . S
C179 H167 0.950 . S
C179 C175 1.380 1_554 S
C179 C178 1.391 . S
H180 C188 0.950 . S
H181 C193 0.950 . S
H182 C190 0.950 . S
H183 C192 0.950 . S
H184 C194 0.950 . S
H185 C196 0.950 . S
H186 C198 0.950 . S
H187 C199 0.950 . S
C188 H180 0.950 . S
C188 C189 1.386 . S
C188 C190 1.391 . S
C189 C188 1.386 . S
C189 C193 1.393 1_556 S
C190 H182 0.950 . S
C190 C188 1.391 . S
C190 C191 1.404 . S
C191 C190 1.404 . S
C191 C192 1.397 1_556 S
C191 C197 1.487 1_556 S
C192 H183 0.950 . S
C192 C191 1.397 1_554 S
C192 C193 1.391 . S
C193 H181 0.950 . S
C193 C189 1.393 1_554 S
C193 C192 1.391 . S
C194 H184 0.950 . S
C194 C195 1.386 . S
C194 C196 1.391 . S
C195 C194 1.386 . S
C195 C199 1.393 1_554 S
C196 H185 0.950 . S
C196 C194 1.391 . S
C196 C197 1.405 . S
C197 C191 1.487 1_554 S
C197 C196 1.405 . S
C197 C198 1.397 1_554 S
C198 H186 0.950 . S
C198 C197 1.397 1_556 S
C198 C199 1.391 . S
C199 H187 0.950 . S
C199 C195 1.393 1_556 S
C199 C198 1.391 . S
H200 C208 0.950 . S
H201 C213 0.950 . S
H202 C210 0.950 . S
H203 C212 0.950 . S
H204 C214 0.950 . S
H205 C216 0.950 . S
H206 C218 0.950 . S
H207 C219 0.950 . S
C208 H200 0.950 . S
C208 C209 1.386 . S
C208 C210 1.391 . S
C209 C208 1.386 . S
C209 C213 1.393 . S
C210 H202 0.950 . S
C210 C208 1.391 . S
C210 C211 1.400 . S
C211 C210 1.400 . S
C211 C212 1.398 . S
C211 C217 1.491 . S
C212 H203 0.950 . S
C212 C211 1.398 . S
C212 C213 1.391 . S
C213 H201 0.950 . S
C213 C209 1.393 . S
C213 C212 1.391 . S
C214 H204 0.950 . S
C214 C215 1.386 . S
C214 C216 1.391 . S
C215 C214 1.386 . S
C215 C219 1.393 . S
C216 H205 0.950 . S
C216 C214 1.391 . S
C216 C217 1.400 . S
C217 C211 1.491 . S
C217 C216 1.400 . S
C217 C218 1.398 . S
C218 H206 0.950 . S
C218 C217 1.398 . S
C218 C219 1.391 . S
C219 H207 0.950 . S
C219 C215 1.393 . S
C219 C218 1.391 . S
H220 C228 0.950 . S
H221 C233 0.950 . S
H222 C230 0.950 . S
H223 C232 0.950 . S
H224 C234 0.950 . S
H225 C236 0.950 . S
H226 C238 0.950 . S
H227 C239 0.950 . S
C228 H220 0.950 . S
C228 C229 1.386 . S
C228 C230 1.391 . S
C229 C228 1.386 . S
C229 C233 1.393 . S
C230 H222 0.950 . S
C230 C228 1.391 . S
C230 C231 1.400 . S
C231 C230 1.400 . S
C231 C232 1.398 . S
C231 C237 1.491 . S
C232 H223 0.950 . S
C232 C231 1.398 . S
C232 C233 1.391 . S
C233 H221 0.950 . S
C233 C229 1.393 . S
C233 C232 1.391 . S
C234 H224 0.950 . S
C234 C235 1.386 . S
C234 C236 1.391 . S
C235 C234 1.386 . S
C235 C239 1.393 . S
C236 H225 0.950 . S
C236 C234 1.391 . S
C236 C237 1.400 . S
C237 C231 1.491 . S
C237 C236 1.400 . S
C237 C238 1.398 . S
C238 H226 0.950 . S
C238 C237 1.398 . S
C238 C239 1.391 . S
C239 H227 0.950 . S
C239 C235 1.393 . S
C239 C238 1.391 . S
H240 C248 0.950 . S
H241 C253 0.950 . S
H242 C250 0.950 . S
H243 C252 0.950 1_545 S
H244 C254 0.950 . S
H245 C256 0.950 . S
H246 C258 0.950 1_565 S
H247 C259 0.950 . S
C248 H240 0.950 . S
C248 C249 1.386 1_554 S
C248 C250 1.391 . S
C249 C248 1.386 1_556 S
C249 C253 1.393 . S
C250 H242 0.950 . S
C250 C248 1.391 . S
C250 C251 1.400 1_554 S
C251 C250 1.400 1_556 S
C251 C252 1.398 . S
C251 C257 1.491 1_566 S
C252 H243 0.950 1_565 S
C252 C251 1.398 . S
C252 C253 1.391 . S
C253 H241 0.950 . S
C253 C249 1.393 . S
C253 C252 1.391 . S
C254 H244 0.950 . S
C254 C255 1.386 1_556 S
C254 C256 1.391 . S
C255 C254 1.386 1_554 S
C255 C259 1.393 . S
C256 H245 0.950 . S
C256 C254 1.391 . S
C256 C257 1.400 1_556 S
C257 C251 1.491 1_544 S
C257 C256 1.400 1_554 S
C257 C258 1.398 . S
C258 H246 0.950 1_545 S
C258 C257 1.398 . S
C258 C259 1.391 . S
C259 H247 0.950 . S
C259 C255 1.393 . S
C259 C258 1.391 . S
H260 C268 0.950 . S
H261 C273 0.950 . S
H262 C270 0.950 . S
H263 C272 0.950 . S
H264 C274 0.950 . S
H265 C276 0.950 . S
H266 C278 0.950 . S
H267 C279 0.950 . S
C268 H260 0.950 . S
C268 C269 1.386 . S
C268 C270 1.391 . S
C269 C268 1.386 . S
C269 C273 1.393 1_565 S
C270 H262 0.950 . S
C270 C268 1.391 . S
C270 C271 1.405 . S
C271 C270 1.405 . S
C271 C272 1.395 1_565 S
C271 C277 1.485 1_565 S
C272 H263 0.950 . S
C272 C271 1.395 1_545 S
C272 C273 1.391 . S
C273 H261 0.950 . S
C273 C269 1.393 1_545 S
C273 C272 1.391 . S
C274 H264 0.950 . S
C274 C275 1.386 . S
C274 C276 1.391 . S
C275 C274 1.386 . S
C275 C279 1.393 1_545 S
C276 H265 0.950 . S
C276 C274 1.391 . S
C276 C277 1.415 . S
C277 C271 1.485 1_545 S
C277 C276 1.415 . S
C277 C278 1.388 1_545 S
C278 H266 0.950 . S
C278 C277 1.388 1_565 S
C278 C279 1.391 . S
C279 H267 0.950 . S
C279 C275 1.393 1_565 S
C279 C278 1.391 . S
H280 C288 0.950 . S
H281 C293 0.950 . S
H282 C290 0.950 . S
H283 C292 0.950 1_455 S
H284 C294 0.950 . S
H285 C296 0.950 . S
H286 C298 0.950 1_655 S
H287 C299 0.950 . S
C288 H280 0.950 . S
C288 C289 1.386 . S
C288 C290 1.391 . S
C289 C288 1.386 . S
C289 C293 1.393 1_556 S
C290 H282 0.950 . S
C290 C288 1.391 . S
C290 C291 1.400 . S
C291 C290 1.400 . S
C291 C292 1.398 1_556 S
C291 C297 1.491 1_656 S
C292 H283 0.950 1_655 S
C292 C291 1.398 1_554 S
C292 C293 1.391 . S
C293 H281 0.950 . S
C293 C289 1.393 1_554 S
C293 C292 1.391 . S
C294 H284 0.950 . S
C294 C295 1.386 . S
C294 C296 1.391 . S
C295 C294 1.386 . S
C295 C299 1.393 1_554 S
C296 H285 0.950 . S
C296 C294 1.391 . S
C296 C297 1.400 . S
C297 C291 1.491 1_454 S
C297 C296 1.400 . S
C297 C298 1.398 1_554 S
C298 H286 0.950 1_455 S
C298 C297 1.398 1_556 S
C298 C299 1.391 . S
C299 H287 0.950 . S
C299 C295 1.393 1_556 S
C299 C298 1.391 . S
H300 C308 0.950 . S
H301 C313 0.950 . S
H302 C310 0.950 . S
H303 C312 0.950 . S
H304 C314 0.950 . S
H305 C316 0.950 . S
H306 C318 0.950 . S
H307 C319 0.950 . S
C308 H300 0.950 . S
C308 C309 1.386 . S
C308 C310 1.391 . S
C309 C308 1.386 . S
C309 C313 1.393 . S
C310 H302 0.950 . S
C310 C308 1.391 . S
C310 C311 1.400 . S
C311 C310 1.400 . S
C311 C312 1.398 . S
C311 C317 1.491 1_455 S
C312 H303 0.950 . S
C312 C311 1.398 . S
C312 C313 1.391 . S
C313 H301 0.950 . S
C313 C309 1.393 . S
C313 C312 1.391 . S
C314 H304 0.950 . S
C314 C315 1.386 . S
C314 C316 1.391 . S
C315 C314 1.386 . S
C315 C319 1.393 . S
C316 H305 0.950 . S
C316 C314 1.391 . S
C316 C317 1.400 . S
C317 C311 1.491 1_655 S
C317 C316 1.400 . S
C317 C318 1.398 . S
C318 H306 0.950 . S
C318 C317 1.398 . S
C318 C319 1.391 . S
C319 H307 0.950 . S
C319 C315 1.393 . S
C319 C318 1.391 . S
H320 C328 0.950 . S
H321 C333 0.950 . S
H322 C330 0.950 . S
H323 C332 0.950 . S
H324 C334 0.950 . S
H325 C336 0.950 . S
H326 C338 0.950 . S
H327 C339 0.950 . S
C328 H320 0.950 . S
C328 C329 1.386 . S
C328 C330 1.391 . S
C329 C328 1.386 . S
C329 C333 1.393 1_645 S
C330 H322 0.950 . S
C330 C328 1.391 . S
C330 C331 1.400 . S
C331 C330 1.400 . S
C331 C332 1.398 1_645 S
C331 C337 1.488 . S
C332 H323 0.950 . S
C332 C331 1.398 1_465 S
C332 C333 1.391 . S
C333 H321 0.950 . S
C333 C329 1.393 1_465 S
C333 C332 1.391 . S
C334 H324 0.950 . S
C334 C335 1.373 1_465 S
C334 C336 1.391 . S
C335 C334 1.373 1_645 S
C335 C339 1.404 . S
C336 H325 0.950 . S
C336 C334 1.391 . S
C336 C337 1.375 1_465 S
C337 C331 1.488 . S
C337 C336 1.375 1_645 S
C337 C338 1.427 . S
C338 H326 0.950 . S
C338 C337 1.427 . S
C338 C339 1.391 . S
C339 H327 0.950 . S
C339 C335 1.404 . S
C339 C338 1.391 . S
H340 C348 0.950 . S
H341 C353 0.950 . S
H342 C350 0.950 . S
H343 C352 0.950 . S
H344 C354 0.950 . S
H345 C356 0.950 . S
H346 C358 0.950 . S
H347 C359 0.950 . S
C348 H340 0.950 . S
C348 C349 1.398 1_655 S
C348 C350 1.391 . S
C349 C348 1.398 1_455 S
C349 C353 1.383 1_545 S
C350 H342 0.950 . S
C350 C348 1.391 . S
C350 C351 1.399 1_645 S
C351 C350 1.399 1_465 S
C351 C352 1.400 . S
C351 C357 1.490 . S
C352 H343 0.950 . S
C352 C351 1.400 . S
C352 C353 1.391 . S
C353 H341 0.950 . S
C353 C349 1.383 1_565 S
C353 C352 1.391 . S
C354 H344 0.950 . S
C354 C355 1.386 . S
C354 C356 1.391 . S
C355 C354 1.386 . S
C355 C359 1.393 1_465 S
C356 H345 0.950 . S
C356 C354 1.391 . S
C356 C357 1.400 . S
C357 C351 1.490 . S
C357 C356 1.400 . S
C357 C358 1.398 1_465 S
C358 H346 0.950 . S
C358 C357 1.398 1_645 S
C358 C359 1.391 . S
C359 H347 0.950 . S
C359 C355 1.393 1_645 S
C359 C358 1.391 . S
H360 C368 0.950 . S
H361 C373 0.950 . S
H362 C370 0.950 . S
H363 C372 0.950 . S
H364 C374 0.950 . S
H365 C376 0.950 . S
H366 C378 0.950 . S
H367 C379 0.950 . S
C368 H360 0.950 . S
C368 C369 1.386 . S
C368 C370 1.391 . S
C369 C368 1.386 . S
C369 C373 1.393 . S
C370 H362 0.950 . S
C370 C368 1.391 . S
C370 C371 1.400 . S
C371 C370 1.400 . S
C371 C372 1.398 . S
C371 C377 1.491 . S
C372 H363 0.950 . S
C372 C371 1.398 . S
C372 C373 1.391 . S
C373 H361 0.950 . S
C373 C369 1.393 . S
C373 C372 1.391 . S
C374 H364 0.950 . S
C374 C375 1.386 . S
C374 C376 1.391 . S
C375 C374 1.386 . S
C375 C379 1.393 . S
C376 H365 0.950 . S
C376 C374 1.391 . S
C376 C377 1.400 . S
C377 C371 1.491 . S
C377 C376 1.400 . S
C377 C378 1.398 . S
C378 H366 0.950 . S
C378 C377 1.398 . S
C378 C379 1.391 . S
C379 H367 0.950 . S
C379 C375 1.393 . S
C379 C378 1.391 . S
H380 C388 0.950 . S
H381 C393 0.950 . S
H382 C390 0.950 . S
H383 C392 0.950 . S
H384 C394 0.950 . S
H385 C396 0.950 . S
H386 C398 0.950 . S
H387 C399 0.950 . S
C388 H380 0.950 . S
C388 C389 1.386 . S
C388 C390 1.391 . S
C389 C388 1.386 . S
C389 C393 1.393 . S
C390 H382 0.950 . S
C390 C388 1.391 . S
C390 C391 1.400 . S
C391 C390 1.400 . S
C391 C392 1.398 . S
C391 C397 1.491 . S
C392 H383 0.950 . S
C392 C391 1.398 . S
C392 C393 1.391 . S
C393 H381 0.950 . S
C393 C389 1.393 . S
C393 C392 1.391 . S
C394 H384 0.950 . S
C394 C395 1.386 . S
C394 C396 1.391 . S
C395 C394 1.386 . S
C395 C399 1.393 . S
C396 H385 0.950 . S
C396 C394 1.391 . S
C396 C397 1.400 . S
C397 C391 1.491 . S
C397 C396 1.400 . S
C397 C398 1.398 . S
C398 H386 0.950 . S
C398 C397 1.398 . S
C398 C399 1.391 . S
C399 H387 0.950 . S
C399 C395 1.393 . S
C399 C398 1.391 . S
C169 C111 3.570 . S
C175 C12 3.569 1_556 S
C189 C92 3.572 1_556 S
C195 C31 3.573 . S
C209 C69 0.178 . S
C215 C128 0.177 . S
C229 C48 0.232 . S
C235 C149 0.233 . S
C249 C29 1.070 . S
C255 C8 1.070 . S
C269 C52 4.815 . S
C275 C71 4.815 . S
C289 C109 1.020 . S
C295 C88 1.020 . S
C309 C151 4.815 . S
C315 C132 4.815 . S
C329 C57 1.463 1_545 S
C335 C2 1.476 1_655 S
C349 C17 1.469 1_445 S
C355 C42 1.472 1_565 S
C369 C137 1.457 . S
C375 C82 1.468 . S
C389 C122 1.456 . S
C395 C97 1.455 . S
