# Generated by pormake.
# Topology ilc, (8)-cn, num edge types: 1
# Building blocks:
#     Node 0, Type 0, BuildingBlock: TAGTUT_clean_sbu_1, # of connection points: 8
#     Node 1, Type 0, BuildingBlock: TAGTUT_clean_sbu_1, # of connection points: 8
#     Node 2, Type 0, BuildingBlock: TAGTUT_clean_sbu_1, # of connection points: 8
#     Edge 3, Type (0, 0), BuildingBlock: XIVTED_clean_linker_0, # of connection points: 2
#     Edge 4, Type (0, 0), BuildingBlock: XIVTED_clean_linker_0, # of connection points: 2
#     Edge 5, Type (0, 0), BuildingBlock: XIVTED_clean_linker_0, # of connection points: 2
#     Edge 6, Type (0, 0), BuildingBlock: XIVTED_clean_linker_0, # of connection points: 2
#     Edge 7, Type (0, 0), BuildingBlock: XIVTED_clean_linker_0, # of connection points: 2
#     Edge 8, Type (0, 0), BuildingBlock: XIVTED_clean_linker_0, # of connection points: 2
#     Edge 9, Type (0, 0), BuildingBlock: XIVTED_clean_linker_0, # of connection points: 2
#     Edge 10, Type (0, 0), BuildingBlock: XIVTED_clean_linker_0, # of connection points: 2
#     Edge 11, Type (0, 0), BuildingBlock: XIVTED_clean_linker_0, # of connection points: 2
#     Edge 12, Type (0, 0), BuildingBlock: XIVTED_clean_linker_0, # of connection points: 2
#     Edge 13, Type (0, 0), BuildingBlock: XIVTED_clean_linker_0, # of connection points: 2
#     Edge 14, Type (0, 0), BuildingBlock: XIVTED_clean_linker_0, # of connection points: 2
# Relax obj value: 0.134
# Max RMSD: 0.140
# Mean RMSD: 0.140
data_MOF--net-ilc--node1-TAGTUT_clean_sbu_1--edge1-XIVTED_clean_linker_0
_symmetry_space_group_name_H-M    P1
_symmetry_Int_Tables_number       1
_symmetry_cell_setting            triclinic
loop_
_symmetry_equiv_pos_as_xyz
'x, y, z'
_cell_length_a     25.611668
_cell_length_b     28.18399
_cell_length_c     15.251335
_cell_angle_alpha  99.93536
_cell_angle_beta   85.195801
_cell_angle_gamma 134.78614
loop_
_atom_site_label
_atom_site_type_symbol
_atom_site_fract_x
_atom_site_fract_y
_atom_site_fract_z
_atom_type_partial_charge
C0 C 0.13621 0.96188 0.19823 0.0
C1 C 0.10773 0.09775 0.24222 0.0
C2 C 0.86738 0.91776 0.03733 0.0
Mg3 Mg 0.17639 0.07111 0.10081 0.0
O4 O 0.08253 0.99417 0.04447 0.0
Mg5 Mg 0.99804 0.93861 0.12256 0.0
Mg6 Mg 0.03794 1.01186 -0.02707 0.0
O7 O 0.99447 0.03093 0.90221 0.0
Mg8 Mg 0.90157 0.95552 0.84474 0.0
Mg9 Mg 0.08104 0.09118 0.82827 0.0
C10 C 0.21059 0.10711 0.90783 0.0
C11 C 0.11756 0.16752 0.03284 0.0
O12 O 0.06765 0.92812 0.18781 0.0
O13 O 0.18752 0.01796 0.16902 0.0
O14 O 0.05086 0.03382 0.22377 0.0
O15 O 0.16537 0.12744 0.19808 0.0
O16 O 0.23566 0.1137 -0.0169 0.0
O17 O 0.1418 0.07205 0.894 0.0
C18 C 0.95123 0.85319 0.9237 0.0
O19 O 0.9796 0.90693 0.89411 0.0
O20 O 0.95204 0.8516 0.00725 0.0
O21 O 1.01029 0.10115 0.7618 0.0
O22 O 0.8906 1.00947 0.77876 0.0
O23 O 1.03252 0.99944 0.72302 0.0
C24 C 0.94124 0.06579 0.74982 0.0
O25 O 0.91761 0.90443 0.74463 0.0
O26 O 0.84185 0.91057 0.96193 0.0
C27 C 0.97648 0.93548 0.70273 0.0
O28 O 0.9363 0.95417 0.05174 0.0
O29 O 0.09036 0.11225 0.05482 0.0
O30 O 0.12276 0.17513 0.95065 0.0
C31 C 0.78317 0.22943 0.42401 0.0
C32 C 0.80902 0.38488 0.50928 0.0
C33 C 0.53978 0.25689 0.40232 0.0
Mg34 Mg 0.85376 0.36718 0.36556 0.0
O35 O 0.74754 0.31692 0.35728 0.0
Mg36 Mg 0.65347 0.23592 0.41929 0.0
Mg37 Mg 0.7055 0.34661 0.30498 0.0
O38 O 0.66301 0.37596 0.25263 0.0
Mg39 Mg 0.55651 0.32507 0.2444 0.0
Mg40 Mg 0.75636 0.45589 0.18912 0.0
C41 C 0.87156 0.43674 0.2089 0.0
C42 C 0.77357 0.48965 0.41114 0.0
O43 O 0.72044 0.20952 0.44072 0.0
O44 O 0.83541 0.28267 0.38885 0.0
O45 O 0.76376 0.34467 0.44103 0.0
O46 O 0.87728 0.42766 0.49461 0.0
O47 O 0.89363 0.41781 0.25185 0.0
O48 O 0.81115 0.42119 0.22533 0.0
C49 C 0.63648 0.20317 0.19764 0.0
O50 O 0.65741 0.25897 0.19109 0.0
O51 O 0.63416 0.18843 0.27333 0.0
O52 O 0.68799 0.48017 0.16341 0.0
O53 O 0.57301 0.40769 0.21533 0.0
O54 O 0.64627 0.34676 0.16917 0.0
C55 C 0.62482 0.4598 0.1779 0.0
O56 O 0.5325 0.26275 0.11699 0.0
O57 O 0.51733 0.27565 0.3597 0.0
C58 C 0.60058 0.3056 0.10151 0.0
O59 O 0.59988 0.27207 0.38491 0.0
O60 O 0.75414 0.4346 0.41845 0.0
O61 O 0.77458 0.50348 0.33519 0.0
C62 C 0.46991 0.61341 0.81871 0.0
C63 C 0.45135 0.75616 0.88496 0.0
C64 C 0.20232 0.5896 0.70515 0.0
Mg65 Mg 0.5106 0.72617 0.73065 0.0
O66 O 0.41342 0.65593 0.68231 0.0
Mg67 Mg 0.332 0.59892 0.76373 0.0
Mg68 Mg 0.36974 0.6806 0.62504 0.0
O69 O 0.32479 0.70342 0.56678 0.0
Mg70 Mg 0.22751 0.63101 0.51693 0.0
Mg71 Mg 0.40454 0.75884 0.48338 0.0
C72 C 0.53451 0.76942 0.54306 0.0
C73 C 0.46396 0.8415 0.68408 0.0
O74 O 0.40202 0.58312 0.81632 0.0
O75 O 0.52049 0.66768 0.78545 0.0
O76 O 0.39104 0.69328 0.86865 0.0
O77 O 0.50742 0.78205 0.83911 0.0
O78 O 0.56241 0.77185 0.6119 0.0
O79 O 0.46589 0.73611 0.53584 0.0
C80 C 0.28048 0.52241 0.55823 0.0
O81 O 0.30827 0.57875 0.53921 0.0
O82 O 0.28017 0.51438 0.63905 0.0
O83 O 0.33583 0.77702 0.43856 0.0
O84 O 0.21729 0.69087 0.46743 0.0
O85 O 0.34279 0.66463 0.3773 0.0
C86 C 0.26826 0.74734 0.43904 0.0
O87 O 0.22798 0.57339 0.40695 0.0
O88 O 0.17478 0.58621 0.63508 0.0
C89 C 0.28313 0.6017 0.35861 0.0
O90 O 0.271 0.62259 0.71258 0.0
O91 O 0.43582 0.78648 0.70944 0.0
O92 O 0.45927 0.84446 0.60242 0.0
H93 H 0.86564 0.85696 0.57127 0.0
H94 H 0.2215 0.17655 0.36985 0.0
H95 H 0.0813 0.94097 0.61636 0.0
H96 H 1.00637 0.09563 0.3335 0.0
H97 H 0.17523 0.09971 0.47532 0.0
H98 H 0.91336 0.93445 0.46617 0.0
C99 C 0.92313 0.89003 0.556 0.0
C100 C 0.97357 0.90384 0.61377 0.0
C101 C 0.13771 0.09869 0.44475 0.0
C102 C 1.02751 0.98798 0.49269 0.0
C103 C 0.16453 0.14438 0.38713 0.0
C104 C 0.11326 0.13087 0.33142 0.0
C105 C 0.06115 0.04769 0.45321 0.0
C106 C 0.04473 0.09886 0.36677 0.0
C107 C 0.95072 0.93607 0.49865 0.0
C108 C 0.04325 0.93722 0.58114 0.0
N109 N 1.01753 0.05266 0.4203 0.0
N110 N 0.07111 0.98376 0.52787 0.0
H111 H 0.69307 0.26327 0.56062 0.0
H112 H 0.71581 0.4265 0.04837 0.0
H113 H 0.86905 0.47586 0.66332 0.0
H114 H 0.53973 0.2135 0.9481 0.0
H115 H 0.77045 0.44557 0.90701 0.0
H116 H 0.63737 0.2435 0.7019 0.0
C117 C 0.71938 0.30615 0.61231 0.0
C118 C 0.78329 0.37188 0.59876 0.0
C119 C 0.72009 0.3945 0.91557 0.0
C120 C 0.72118 0.3494 0.76234 0.0
C121 C 0.68911 0.38337 -0.00283 0.0
C122 C 0.62549 0.31783 0.01153 0.0
C123 C 0.68662 0.33945 0.84735 0.0
C124 C 0.59007 0.26465 0.9399 0.0
C125 C 0.68787 0.29461 0.69371 0.0
C126 C 0.81834 0.42469 0.67074 0.0
N127 N 0.62192 0.27646 0.86043 0.0
N128 N 0.78608 0.41245 0.74987 0.0
H129 H 0.36418 0.77707 0.95424 0.0
H130 H 0.3668 0.58284 0.26665 0.0
H131 H 0.55479 0.82133 0.02184 0.0
H132 H 0.17915 0.55096 0.23169 0.0
H133 H 0.43035 0.65974 0.15883 0.0
H134 H 0.29742 0.70425 0.06847 0.0
C135 C 0.39353 0.77438 -0.00307 0.0
C136 C 0.45938 0.79394 -0.02972 0.0
C137 C 0.37489 0.63567 0.17407 0.0
C138 C 0.38723 0.71523 0.10013 0.0
C139 C 0.33696 0.58905 0.23269 0.0
C140 C 0.27283 0.56976 0.26704 0.0
C141 C 0.34313 0.65555 0.14434 0.0
C142 C 0.23325 0.57241 0.21375 0.0
C143 C 0.35435 0.73058 0.0595 0.0
C144 C 0.49916 0.79805 0.0337 0.0
N145 N 0.27116 0.61973 0.1591 0.0
N146 N 0.46054 0.75354 0.09207 0.0
H147 H 0.13084 0.69747 0.42171 0.0
H148 H 0.27492 0.02064 0.24052 0.0
H149 H 0.36019 0.87157 0.3852 0.0
H150 H 0.04467 0.83985 0.25792 0.0
H151 H 0.30772 0.97059 0.30469 0.0
H152 H 0.09898 0.75218 0.37114 0.0
C153 C 0.17461 0.74723 0.40308 0.0
C154 C 0.24839 0.77987 0.40748 0.0
C155 C 0.25004 0.94193 0.29458 0.0
C156 C 0.21206 0.84287 0.34967 0.0
C157 C 0.23117 0.97047 0.25796 0.0
C158 C 0.15681 0.93404 0.2427 0.0
C159 C 0.1942 0.87646 0.31603 0.0
C160 C 0.10268 0.86961 0.26777 0.0
C161 C 0.15629 0.77846 0.37426 0.0
C162 C 0.30258 0.84435 0.38254 0.0
N163 N 0.12248 0.84273 0.30273 0.0
N164 N 0.28329 0.87372 0.35462 0.0
H165 H 0.34051 0.54115 0.39884 0.0
H166 H 0.04971 0.14867 0.18743 0.0
H167 H 0.16636 0.38278 0.5454 0.0
H168 H 0.23063 0.30685 0.04544 0.0
H169 H 0.0883 0.23353 0.31648 0.0
H170 H 0.2989 0.45645 0.26785 0.0
C171 C 0.29274 0.48829 0.4028 0.0
C172 C 0.25577 0.46903 0.4822 0.0
C173 C 0.11972 0.24995 0.25734 0.0
C174 C 0.2084 0.37122 0.33281 0.0
C175 C 0.09794 0.20153 0.18365 0.0
C176 C 0.13804 0.22072 0.1063 0.0
C177 C 0.18208 0.31856 0.25391 0.0
C178 C 0.19845 0.28989 0.10391 0.0
C179 C 0.26938 0.43994 0.32825 0.0
C180 C 0.19614 0.3998 0.48527 0.0
N181 N 0.21899 0.33638 0.17703 0.0
N182 N 0.17398 0.35329 0.41131 0.0
H183 H 0.49328 0.74045 0.36613 0.0
H184 H 0.90296 0.94289 0.21504 0.0
H185 H 0.68431 0.86557 0.54793 0.0
H186 H 0.71744 0.83156 0.02891 0.0
H187 H 0.82182 0.91162 0.33771 0.0
H188 H 0.57376 0.77491 0.24086 0.0
C189 C 0.55218 0.7762 0.37975 0.0
C190 C 0.58207 0.79972 0.46755 0.0
C191 C 0.79873 0.89373 0.27 0.0
C192 C 0.67402 0.83792 0.32508 0.0
C193 C 0.84503 0.91103 0.19979 0.0
C194 C 0.8172 0.89009 0.11142 0.0
C195 C 0.72394 0.85505 0.25182 0.0
C196 C 0.74148 0.84916 0.096 0.0
C197 C 0.59802 0.79526 0.30826 0.0
C198 C 0.65876 0.84553 0.4813 0.0
N199 N 0.69755 0.83324 0.16551 0.0
N200 N 0.70191 0.8626 0.41089 0.0
H201 H 0.69446 0.11996 0.51299 0.0
H202 H 1.0261 0.16858 0.64938 0.0
H203 H 0.91151 0.26036 0.41073 0.0
H204 H 0.80293 1.01304 0.7275 0.0
H205 H 0.98445 0.20122 0.55838 0.0
H206 H 0.73142 0.07605 0.58586 0.0
C207 C 0.74949 0.14098 0.50472 0.0
C208 C 0.80007 0.19453 0.4563 0.0
C209 C 0.94463 0.1599 0.59543 0.0
C210 C 0.84315 0.14518 0.5409 0.0
C211 C 0.96852 0.14159 0.64795 0.0
C212 C 0.91818 0.08842 0.69697 0.0
C213 C 0.86996 0.12507 0.5923 0.0
C214 C 0.84393 0.0546 0.69135 0.0
C215 C 0.7707 0.11605 0.54674 0.0
C216 C 0.87064 0.21948 0.44791 0.0
N217 N 0.82221 0.07368 0.64036 0.0
N218 N 0.89028 0.19513 0.4906 0.0
H219 H 0.77526 0.58841 0.42659 0.0
H220 H 0.97174 0.7691 0.91085 0.0
H221 H 0.81812 0.50223 0.57826 0.0
H222 H 0.84807 0.79517 0.79244 0.0
H223 H 0.92232 0.67412 0.79006 0.0
H224 H 0.81121 0.67056 0.55788 0.0
C225 C 0.79232 0.58676 0.48771 0.0
C226 C 0.79398 0.53848 0.49161 0.0
C227 C 0.90603 0.70072 0.79079 0.0
C228 C 0.83544 0.63276 0.64255 0.0
C229 C 0.93402 0.7546 0.8595 0.0
C230 C 0.91607 0.79144 0.85893 0.0
C231 C 0.86021 0.68427 0.72164 0.0
C232 C 0.86649 0.77052 0.79204 0.0
C233 C 0.8124 0.63345 0.56288 0.0
C234 C 0.81599 0.53852 0.57287 0.0
N235 N 0.84094 0.71887 0.72548 0.0
N236 N 0.83662 0.58542 0.64521 0.0
H237 H 0.39248 0.14867 0.39116 0.0
H238 H 0.36075 0.19581 0.91871 0.0
H239 H 0.5811 0.28222 0.57741 0.0
H240 H 0.17634 0.07463 0.72734 0.0
H241 H 0.44151 0.22258 0.79672 0.0
H242 H 0.31151 0.11034 0.51542 0.0
C243 C 0.41666 0.16825 0.4586 0.0
C244 C 0.49346 0.21837 0.47429 0.0
C245 C 0.38347 0.19043 0.7813 0.0
C246 C 0.40125 0.17689 0.61717 0.0
C247 C 0.3372 0.17546 0.85093 0.0
C248 C 0.26126 0.13285 0.8335 0.0
C249 C 0.35383 0.16252 0.69316 0.0
C250 C 0.23432 0.10803 0.74421 0.0
C251 C 0.37047 0.1471 0.52955 0.0
C252 C 0.52213 0.24278 0.56268 0.0
N253 N 0.28046 0.12296 0.67753 0.0
N254 N 0.47596 0.22252 0.63105 0.0
H255 H 0.49718 0.43034 0.18967 0.0
H256 H 0.60523 0.65786 0.82738 0.0
H257 H 0.70908 0.55966 0.07276 0.0
H258 H 0.38758 0.51569 0.9272 0.0
H259 H 0.64587 0.62655 0.92205 0.0
H260 H 0.45953 0.46803 0.10321 0.0
C261 C 0.53634 0.46741 0.14686 0.0
C262 C 0.60644 0.49141 0.13827 0.0
C263 C 0.58914 0.60197 0.92306 0.0
C264 C 0.56288 0.53414 0.03785 0.0
C265 C 0.56566 0.61958 0.86861 0.0
C266 C 0.49262 0.58924 0.86891 0.0
C267 C 0.53947 0.55374 -0.02124 0.0
C268 C 0.4442 0.54013 0.92416 0.0
C269 C 0.51446 0.48855 0.09697 0.0
C270 C 0.65451 0.53954 0.08166 0.0
N271 N 0.46856 0.5241 -0.02296 0.0
N272 N 0.63163 0.55888 0.03318 0.0
H273 H 0.55864 0.8908 0.82332 0.0
H274 H 0.61677 0.20558 0.0249 0.0
H275 H 0.45495 0.93356 0.69526 0.0
H276 H 0.61138 0.09067 0.18579 0.0
H277 H 0.58039 0.12233 0.8925 0.0
H278 H 0.60356 0.98146 0.94625 0.0
C279 C 0.54404 0.91833 0.82211 0.0
C280 C 0.49986 0.90233 0.75169 0.0
C281 C 0.58714 0.1156 0.95702 0.0
C282 C 0.55454 1.00895 0.88929 0.0
C283 C 0.6076 0.16283 0.03233 0.0
C284 C 0.61592 0.15459 0.11658 0.0
C285 C 0.57687 0.06081 0.96616 0.0
C286 C 0.6049 0.0989 0.12249 0.0
C287 C 0.57074 0.9709 0.89142 0.0
C288 C 0.48792 0.9437 0.74942 0.0
N289 N 0.58626 0.05439 0.04832 0.0
N290 N 0.51472 0.99508 0.81783 0.0
H291 H 0.24263 0.62398 0.8841 0.0
H292 H 0.83007 0.4151 0.03533 0.0
H293 H 0.05241 0.49628 0.70043 0.0
H294 H 1.01971 0.5406 0.21858 0.0
H295 H 0.91201 0.45272 0.9106 0.0
H296 H 0.16213 0.59572 0.00803 0.0
C297 C 0.18391 0.58897 0.86988 0.0
C298 C 0.1544 0.56257 0.78167 0.0
C299 C 0.93585 0.47302 -0.0218 0.0
C300 C 0.06221 0.53177 0.92275 0.0
C301 C 0.88912 0.45256 0.04923 0.0
C302 C 0.91835 0.47505 0.13701 0.0
C303 C 1.01199 0.51589 -0.00434 0.0
C304 C 0.99516 0.5222 0.15159 0.0
C305 C 0.13804 0.57366 0.94053 0.0
C306 C 0.07778 0.51816 0.76731 0.0
N307 N 0.03919 0.54038 0.08177 0.0
N308 N 1.03457 0.50455 0.83687 0.0
loop_
_geom_bond_atom_site_label_1
_geom_bond_atom_site_label_2
_geom_bond_distance
_geom_bond_site_symmetry_2
_ccdc_geom_bond_type
C0 O12 1.241 . S
C0 O13 1.280 . S
C1 O14 1.277 1_445 S
C1 O15 1.245 . S
C2 O26 1.247 1_554 S
C2 O28 1.289 . S
Mg3 O4 1.926 1_545 S
Mg3 O13 1.984 1_545 S
Mg3 O15 1.988 . S
Mg3 O16 2.061 . S
O4 Mg3 1.926 1_565 S
O4 Mg5 1.986 1_455 S
O4 Mg6 1.917 1_565 S
Mg5 O4 1.986 1_655 S
Mg5 O12 2.042 1_655 S
Mg5 O14 2.041 . S
Mg5 O20 2.038 . S
Mg5 O28 2.238 . S
Mg6 O4 1.917 1_545 S
Mg6 O7 1.917 1_454 S
Mg6 O17 2.106 1_554 S
Mg6 O19 2.079 1_444 S
Mg6 O28 2.106 1_445 S
Mg6 O29 2.079 . S
O7 Mg6 1.917 1_656 S
O7 Mg8 1.926 1_545 S
O7 Mg9 1.986 1_655 S
Mg8 O7 1.926 1_565 S
Mg8 O22 1.984 1_565 S
Mg8 O25 1.988 . S
Mg8 O26 2.061 . S
Mg9 O7 1.986 1_455 S
Mg9 O17 2.238 . S
Mg9 O21 2.042 1_455 S
Mg9 O23 2.041 . S
Mg9 O30 2.038 . S
C10 O16 1.247 1_556 S
C10 O17 1.289 . S
C11 O29 1.245 . S
C11 O30 1.274 1_554 S
O12 C0 1.241 . S
O12 Mg5 2.042 1_455 S
O13 C0 1.280 . S
O13 Mg3 1.984 1_565 S
O14 C1 1.277 1_665 S
O14 Mg5 2.041 . S
O15 C1 1.245 . S
O15 Mg3 1.988 . S
O16 Mg3 2.061 . S
O16 C10 1.247 1_554 S
O17 Mg6 2.106 1_556 S
O17 Mg9 2.238 . S
O17 C10 1.289 . S
C18 O19 1.245 . S
C18 O20 1.274 1_556 S
O19 Mg6 2.079 1_666 S
O19 C18 1.245 . S
O20 Mg5 2.038 . S
O20 C18 1.274 1_554 S
O21 Mg9 2.042 1_655 S
O21 C24 1.241 . S
O22 Mg8 1.984 1_545 S
O22 C24 1.280 . S
O23 Mg9 2.041 . S
O23 C27 1.277 1_445 S
C24 O21 1.241 . S
C24 O22 1.280 . S
O25 Mg8 1.988 . S
O25 C27 1.245 . S
O26 C2 1.247 1_556 S
O26 Mg8 2.061 . S
C27 O23 1.277 1_665 S
C27 O25 1.245 . S
O28 C2 1.289 . S
O28 Mg5 2.238 . S
O28 Mg6 2.106 1_665 S
O29 Mg6 2.079 . S
O29 C11 1.245 . S
O30 Mg9 2.038 . S
O30 C11 1.274 1_556 S
C31 O43 1.241 . S
C31 O44 1.280 . S
C32 O45 1.277 . S
C32 O46 1.245 . S
C33 O57 1.247 . S
C33 O59 1.289 . S
Mg34 O35 1.926 . S
Mg34 O44 1.984 . S
Mg34 O46 1.988 . S
Mg34 O47 2.061 . S
O35 Mg34 1.926 . S
O35 Mg36 1.986 . S
O35 Mg37 1.917 . S
Mg36 O35 1.986 . S
Mg36 O43 2.042 . S
Mg36 O45 2.041 . S
Mg36 O51 2.038 . S
Mg36 O59 2.238 . S
Mg37 O35 1.917 . S
Mg37 O38 1.917 . S
Mg37 O48 2.106 . S
Mg37 O50 2.079 . S
Mg37 O59 2.106 . S
Mg37 O60 2.079 . S
O38 Mg37 1.917 . S
O38 Mg39 1.926 . S
O38 Mg40 1.986 . S
Mg39 O38 1.926 . S
Mg39 O53 1.984 . S
Mg39 O56 1.988 . S
Mg39 O57 2.061 . S
Mg40 O38 1.986 . S
Mg40 O48 2.238 . S
Mg40 O52 2.042 . S
Mg40 O54 2.041 . S
Mg40 O61 2.038 . S
C41 O47 1.247 . S
C41 O48 1.289 . S
C42 O60 1.245 . S
C42 O61 1.274 . S
O43 C31 1.241 . S
O43 Mg36 2.042 . S
O44 C31 1.280 . S
O44 Mg34 1.984 . S
O45 C32 1.277 . S
O45 Mg36 2.041 . S
O46 C32 1.245 . S
O46 Mg34 1.988 . S
O47 Mg34 2.061 . S
O47 C41 1.247 . S
O48 Mg37 2.106 . S
O48 Mg40 2.238 . S
O48 C41 1.289 . S
C49 O50 1.245 . S
C49 O51 1.274 . S
O50 Mg37 2.079 . S
O50 C49 1.245 . S
O51 Mg36 2.038 . S
O51 C49 1.274 . S
O52 Mg40 2.042 . S
O52 C55 1.241 . S
O53 Mg39 1.984 . S
O53 C55 1.280 . S
O54 Mg40 2.041 . S
O54 C58 1.277 . S
C55 O52 1.241 . S
C55 O53 1.280 . S
O56 Mg39 1.988 . S
O56 C58 1.245 . S
O57 C33 1.247 . S
O57 Mg39 2.061 . S
C58 O54 1.277 . S
C58 O56 1.245 . S
O59 C33 1.289 . S
O59 Mg36 2.238 . S
O59 Mg37 2.106 . S
O60 Mg37 2.079 . S
O60 C42 1.245 . S
O61 Mg40 2.038 . S
O61 C42 1.274 . S
C62 O74 1.241 . S
C62 O75 1.280 . S
C63 O76 1.277 . S
C63 O77 1.245 . S
C64 O88 1.247 . S
C64 O90 1.289 . S
Mg65 O66 1.926 . S
Mg65 O75 1.984 . S
Mg65 O77 1.988 . S
Mg65 O78 2.061 . S
O66 Mg65 1.926 . S
O66 Mg67 1.986 . S
O66 Mg68 1.917 . S
Mg67 O66 1.986 . S
Mg67 O74 2.042 . S
Mg67 O76 2.041 . S
Mg67 O82 2.038 . S
Mg67 O90 2.238 . S
Mg68 O66 1.917 . S
Mg68 O69 1.917 . S
Mg68 O79 2.106 . S
Mg68 O81 2.079 . S
Mg68 O90 2.106 . S
Mg68 O91 2.079 . S
O69 Mg68 1.917 . S
O69 Mg70 1.926 . S
O69 Mg71 1.986 . S
Mg70 O69 1.926 . S
Mg70 O84 1.984 . S
Mg70 O87 1.988 . S
Mg70 O88 2.061 . S
Mg71 O69 1.986 . S
Mg71 O79 2.238 . S
Mg71 O83 2.042 . S
Mg71 O85 2.041 . S
Mg71 O92 2.038 . S
C72 O78 1.247 . S
C72 O79 1.289 . S
C73 O91 1.245 . S
C73 O92 1.274 . S
O74 C62 1.241 . S
O74 Mg67 2.042 . S
O75 C62 1.280 . S
O75 Mg65 1.984 . S
O76 C63 1.277 . S
O76 Mg67 2.041 . S
O77 C63 1.245 . S
O77 Mg65 1.988 . S
O78 Mg65 2.061 . S
O78 C72 1.247 . S
O79 Mg68 2.106 . S
O79 Mg71 2.238 . S
O79 C72 1.289 . S
C80 O81 1.245 . S
C80 O82 1.274 . S
O81 Mg68 2.079 . S
O81 C80 1.245 . S
O82 Mg67 2.038 . S
O82 C80 1.274 . S
O83 Mg71 2.042 . S
O83 C86 1.241 . S
O84 Mg70 1.984 . S
O84 C86 1.280 . S
O85 Mg71 2.041 . S
O85 C89 1.277 . S
C86 O83 1.241 . S
C86 O84 1.280 . S
O87 Mg70 1.988 . S
O87 C89 1.245 . S
O88 C64 1.247 . S
O88 Mg70 2.061 . S
C89 O85 1.277 . S
C89 O87 1.245 . S
O90 C64 1.289 . S
O90 Mg67 2.238 . S
O90 Mg68 2.106 . S
O91 Mg68 2.079 . S
O91 C73 1.245 . S
O92 Mg71 2.038 . S
O92 C73 1.274 . S
H93 C99 0.930 . S
H94 C103 0.930 . S
H95 C108 0.929 . S
H96 C106 0.929 . S
H97 C101 0.929 . S
H98 C107 0.929 . S
C99 H93 0.930 . S
C99 C100 1.367 . S
C99 C107 1.378 . S
C100 C99 1.367 . S
C100 C108 1.433 1_665 S
C101 H97 0.929 . S
C101 C103 1.378 . S
C101 C105 1.350 . S
C102 C105 1.463 1_665 S
C102 C107 1.350 . S
C102 N110 1.427 1_665 S
C103 H94 0.930 . S
C103 C101 1.378 . S
C103 C104 1.367 . S
C104 C103 1.367 . S
C104 C106 1.433 1_445 S
C105 C101 1.350 . S
C105 C102 1.463 1_445 S
C105 N109 1.427 1_445 S
C106 H96 0.929 . S
C106 C104 1.433 1_665 S
C106 N109 1.384 . S
C107 H98 0.929 . S
C107 C99 1.378 . S
C107 C102 1.350 . S
C108 H95 0.929 . S
C108 C100 1.433 1_445 S
C108 N110 1.384 . S
N109 C105 1.427 1_665 S
N109 C106 1.384 . S
N110 C102 1.427 1_445 S
N110 C108 1.384 . S
H111 C117 0.930 . S
H112 C121 0.930 . S
H113 C126 0.929 . S
H114 C124 0.931 . S
H115 C119 0.929 . S
H116 C125 0.929 . S
C117 H111 0.930 . S
C117 C118 1.367 . S
C117 C125 1.378 . S
C118 C117 1.367 . S
C118 C126 1.433 . S
C119 H115 0.929 . S
C119 C121 1.378 1_556 S
C119 C123 1.350 . S
C120 C123 1.463 . S
C120 C125 1.350 . S
C120 N128 1.427 . S
C121 H112 0.930 . S
C121 C119 1.378 1_554 S
C121 C122 1.367 . S
C122 C121 1.367 . S
C122 C124 1.437 . S
C123 C119 1.350 . S
C123 C120 1.463 . S
C123 N127 1.427 . S
C124 H114 0.931 . S
C124 C122 1.437 . S
C124 N127 1.377 1_554 S
C125 H116 0.929 . S
C125 C117 1.378 . S
C125 C120 1.350 . S
C126 H113 0.929 . S
C126 C118 1.433 . S
C126 N128 1.384 . S
N127 C123 1.427 . S
N127 C124 1.377 1_556 S
N128 C120 1.427 . S
N128 C126 1.384 . S
H129 C135 0.930 . S
H130 C139 0.930 . S
H131 C144 0.929 . S
H132 C142 0.929 . S
H133 C137 0.929 . S
H134 C143 0.929 . S
C135 H129 0.930 . S
C135 C136 1.367 . S
C135 C143 1.378 1_556 S
C136 C135 1.367 . S
C136 C144 1.433 . S
C137 H133 0.929 . S
C137 C139 1.378 . S
C137 C141 1.350 . S
C138 C141 1.463 . S
C138 C143 1.350 . S
C138 N146 1.427 . S
C139 H130 0.930 . S
C139 C137 1.378 . S
C139 C140 1.367 . S
C140 C139 1.367 . S
C140 C142 1.433 . S
C141 C137 1.350 . S
C141 C138 1.463 . S
C141 N145 1.427 . S
C142 H132 0.929 . S
C142 C140 1.433 . S
C142 N145 1.384 . S
C143 H134 0.929 . S
C143 C135 1.378 1_554 S
C143 C138 1.350 . S
C144 H131 0.929 . S
C144 C136 1.433 . S
C144 N146 1.384 1_556 S
N145 C141 1.427 . S
N145 C142 1.384 . S
N146 C138 1.427 . S
N146 C144 1.384 1_554 S
H147 C153 0.930 . S
H148 C157 0.930 . S
H149 C162 0.929 . S
H150 C160 0.929 . S
H151 C155 0.929 . S
H152 C161 0.929 . S
C153 H147 0.930 . S
C153 C154 1.367 . S
C153 C161 1.378 . S
C154 C153 1.367 . S
C154 C162 1.433 . S
C155 H151 0.929 . S
C155 C157 1.378 . S
C155 C159 1.350 . S
C156 C159 1.463 . S
C156 C161 1.350 . S
C156 N164 1.427 . S
C157 H148 0.930 . S
C157 C155 1.378 . S
C157 C158 1.367 . S
C158 C157 1.367 . S
C158 C160 1.433 . S
C159 C155 1.350 . S
C159 C156 1.463 . S
C159 N163 1.427 . S
C160 H150 0.929 . S
C160 C158 1.433 . S
C160 N163 1.384 . S
C161 H152 0.929 . S
C161 C153 1.378 . S
C161 C156 1.350 . S
C162 H149 0.929 . S
C162 C154 1.433 . S
C162 N164 1.384 . S
N163 C159 1.427 . S
N163 C160 1.384 . S
N164 C156 1.427 . S
N164 C162 1.384 . S
H165 C171 0.930 . S
H166 C175 0.930 . S
H167 C180 0.929 . S
H168 C178 0.929 . S
H169 C173 0.929 . S
H170 C179 0.929 . S
C171 H165 0.930 . S
C171 C172 1.367 . S
C171 C179 1.378 . S
C172 C171 1.367 . S
C172 C180 1.433 . S
C173 H169 0.929 . S
C173 C175 1.378 . S
C173 C177 1.350 . S
C174 C177 1.463 . S
C174 C179 1.350 . S
C174 N182 1.427 . S
C175 H166 0.930 . S
C175 C173 1.378 . S
C175 C176 1.367 . S
C176 C175 1.367 . S
C176 C178 1.433 . S
C177 C173 1.350 . S
C177 C174 1.463 . S
C177 N181 1.427 . S
C178 H168 0.929 . S
C178 C176 1.433 . S
C178 N181 1.384 . S
C179 H170 0.929 . S
C179 C171 1.378 . S
C179 C174 1.350 . S
C180 H167 0.929 . S
C180 C172 1.433 . S
C180 N182 1.384 . S
N181 C177 1.427 . S
N181 C178 1.384 . S
N182 C174 1.427 . S
N182 C180 1.384 . S
H183 C189 0.930 . S
H184 C193 0.930 . S
H185 C198 0.929 . S
H186 C196 0.929 . S
H187 C191 0.929 . S
H188 C197 0.929 . S
C189 H183 0.930 . S
C189 C190 1.367 . S
C189 C197 1.378 . S
C190 C189 1.367 . S
C190 C198 1.433 . S
C191 H187 0.929 . S
C191 C193 1.378 . S
C191 C195 1.350 . S
C192 C195 1.463 . S
C192 C197 1.350 . S
C192 N200 1.427 . S
C193 H184 0.930 . S
C193 C191 1.378 . S
C193 C194 1.367 . S
C194 C193 1.367 . S
C194 C196 1.433 . S
C195 C191 1.350 . S
C195 C192 1.463 . S
C195 N199 1.427 . S
C196 H186 0.929 . S
C196 C194 1.433 . S
C196 N199 1.384 . S
C197 H188 0.929 . S
C197 C189 1.378 . S
C197 C192 1.350 . S
C198 H185 0.929 . S
C198 C190 1.433 . S
C198 N200 1.384 . S
N199 C195 1.427 . S
N199 C196 1.384 . S
N200 C192 1.427 . S
N200 C198 1.384 . S
H201 C207 0.930 . S
H202 C211 0.930 . S
H203 C216 0.929 . S
H204 C214 0.929 . S
H205 C209 0.929 . S
H206 C215 0.929 . S
C207 H201 0.930 . S
C207 C208 1.367 . S
C207 C215 1.378 . S
C208 C207 1.367 . S
C208 C216 1.433 . S
C209 H205 0.929 . S
C209 C211 1.378 . S
C209 C213 1.350 . S
C210 C213 1.463 . S
C210 C215 1.350 . S
C210 N218 1.427 . S
C211 H202 0.930 . S
C211 C209 1.378 . S
C211 C212 1.367 . S
C212 C211 1.367 . S
C212 C214 1.433 . S
C213 C209 1.350 . S
C213 C210 1.463 . S
C213 N217 1.427 . S
C214 H204 0.929 . S
C214 C212 1.433 . S
C214 N217 1.384 . S
C215 H206 0.929 . S
C215 C207 1.378 . S
C215 C210 1.350 . S
C216 H203 0.929 . S
C216 C208 1.433 . S
C216 N218 1.384 . S
N217 C213 1.427 . S
N217 C214 1.384 . S
N218 C210 1.427 . S
N218 C216 1.384 . S
H219 C225 0.930 . S
H220 C229 0.930 . S
H221 C234 0.929 . S
H222 C232 0.929 . S
H223 C227 0.929 . S
H224 C233 0.929 . S
C225 H219 0.930 . S
C225 C226 1.367 . S
C225 C233 1.378 . S
C226 C225 1.367 . S
C226 C234 1.433 . S
C227 H223 0.929 . S
C227 C229 1.378 . S
C227 C231 1.350 . S
C228 C231 1.463 . S
C228 C233 1.350 . S
C228 N236 1.427 . S
C229 H220 0.930 . S
C229 C227 1.378 . S
C229 C230 1.367 . S
C230 C229 1.367 . S
C230 C232 1.433 . S
C231 C227 1.350 . S
C231 C228 1.463 . S
C231 N235 1.427 . S
C232 H222 0.929 . S
C232 C230 1.433 . S
C232 N235 1.384 . S
C233 H224 0.929 . S
C233 C225 1.378 . S
C233 C228 1.350 . S
C234 H221 0.929 . S
C234 C226 1.433 . S
C234 N236 1.384 . S
N235 C231 1.427 . S
N235 C232 1.384 . S
N236 C228 1.427 . S
N236 C234 1.384 . S
H237 C243 0.930 . S
H238 C247 0.930 . S
H239 C252 0.929 . S
H240 C250 0.929 . S
H241 C245 0.929 . S
H242 C251 0.929 . S
C243 H237 0.930 . S
C243 C244 1.367 . S
C243 C251 1.378 . S
C244 C243 1.367 . S
C244 C252 1.433 . S
C245 H241 0.929 . S
C245 C247 1.378 . S
C245 C249 1.350 . S
C246 C249 1.463 . S
C246 C251 1.350 . S
C246 N254 1.427 . S
C247 H238 0.930 . S
C247 C245 1.378 . S
C247 C248 1.367 . S
C248 C247 1.367 . S
C248 C250 1.433 . S
C249 C245 1.350 . S
C249 C246 1.463 . S
C249 N253 1.427 . S
C250 H240 0.929 . S
C250 C248 1.433 . S
C250 N253 1.384 . S
C251 H242 0.929 . S
C251 C243 1.378 . S
C251 C246 1.350 . S
C252 H239 0.929 . S
C252 C244 1.433 . S
C252 N254 1.384 . S
N253 C249 1.427 . S
N253 C250 1.384 . S
N254 C246 1.427 . S
N254 C252 1.384 . S
H255 C261 0.930 . S
H256 C265 0.930 . S
H257 C270 0.929 . S
H258 C268 0.929 . S
H259 C263 0.929 . S
H260 C269 0.929 . S
C261 H255 0.930 . S
C261 C262 1.367 . S
C261 C269 1.378 . S
C262 C261 1.367 . S
C262 C270 1.433 . S
C263 H259 0.929 . S
C263 C265 1.378 . S
C263 C267 1.350 . S
C264 C267 1.463 1_554 S
C264 C269 1.350 . S
C264 N272 1.427 1_554 S
C265 H256 0.930 . S
C265 C263 1.378 . S
C265 C266 1.367 . S
C266 C265 1.367 . S
C266 C268 1.433 . S
C267 C263 1.350 . S
C267 C264 1.463 1_556 S
C267 N271 1.427 1_556 S
C268 H258 0.929 . S
C268 C266 1.433 . S
C268 N271 1.384 1_556 S
C269 H260 0.929 . S
C269 C261 1.378 . S
C269 C264 1.350 . S
C270 H257 0.929 . S
C270 C262 1.433 . S
C270 N272 1.384 1_554 S
N271 C267 1.427 1_554 S
N271 C268 1.384 1_554 S
N272 C264 1.427 1_556 S
N272 C270 1.384 1_556 S
H273 C279 0.930 . S
H274 C283 0.930 . S
H275 C288 0.929 . S
H276 C286 0.929 . S
H277 C281 0.929 1_556 S
H278 C287 0.929 1_554 S
C279 H273 0.930 . S
C279 C280 1.367 . S
C279 C287 1.378 . S
C280 C279 1.367 . S
C280 C288 1.433 . S
C281 H277 0.929 1_554 S
C281 C283 1.378 . S
C281 C285 1.350 . S
C282 C285 1.463 1_566 S
C282 C287 1.350 . S
C282 N290 1.427 . S
C283 H274 0.930 . S
C283 C281 1.378 . S
C283 C284 1.367 . S
C284 C283 1.367 . S
C284 C286 1.433 . S
C285 C281 1.350 . S
C285 C282 1.463 1_544 S
C285 N289 1.427 . S
C286 H276 0.929 . S
C286 C284 1.433 . S
C286 N289 1.384 . S
C287 H278 0.929 1_556 S
C287 C279 1.378 . S
C287 C282 1.350 . S
C288 H275 0.929 . S
C288 C280 1.433 . S
C288 N290 1.384 . S
N289 C285 1.427 . S
N289 C286 1.384 . S
N290 C282 1.427 . S
N290 C288 1.384 . S
H291 C297 0.930 . S
H292 C301 0.930 . S
H293 C306 0.929 . S
H294 C304 0.929 . S
H295 C299 0.929 1_556 S
H296 C305 0.929 1_554 S
C297 H291 0.930 . S
C297 C298 1.367 . S
C297 C305 1.378 . S
C298 C297 1.367 . S
C298 C306 1.433 . S
C299 H295 0.929 1_554 S
C299 C301 1.378 . S
C299 C303 1.350 . S
C300 C303 1.463 1_456 S
C300 C305 1.350 . S
C300 N308 1.427 . S
C301 H292 0.930 . S
C301 C299 1.378 . S
C301 C302 1.367 . S
C302 C301 1.367 . S
C302 C304 1.433 . S
C303 C299 1.350 . S
C303 C300 1.463 1_654 S
C303 N307 1.427 . S
C304 H294 0.929 . S
C304 C302 1.433 . S
C304 N307 1.384 . S
C305 H296 0.929 1_556 S
C305 C297 1.378 . S
C305 C300 1.350 . S
C306 H293 0.929 . S
C306 C298 1.433 . S
C306 N308 1.384 . S
N307 C303 1.427 . S
N307 C304 1.384 . S
N308 C300 1.427 . S
N308 C306 1.384 . S
C100 C27 0.621 . S
C104 C1 0.621 . S
C118 C32 0.603 . S
C122 C58 0.603 . S
C136 C63 0.630 . S
C140 C89 0.630 . S
C154 C86 1.996 . S
C158 C0 1.995 . S
C172 C80 2.044 . S
C176 C11 2.042 . S
C190 C72 1.714 . S
C194 C2 1.714 . S
C208 C31 2.003 . S
C212 C24 2.003 . S
C226 C42 2.041 . S
C230 C18 2.043 . S
C244 C33 1.710 . S
C248 C10 1.710 . S
C262 C55 2.007 . S
C266 C62 2.007 . S
C280 C73 2.040 . S
C284 C49 2.040 . S
C298 C64 1.714 . S
C302 C41 1.714 . S
