# Generated by pormake.
# Topology can, (4)-cn, num edge types: 1
# Building blocks:
#     Node 0, Type 0, BuildingBlock: QUQFOY_clean_sbu_1, # of connection points: 4
#     Node 1, Type 0, BuildingBlock: QUQFOY_clean_sbu_1, # of connection points: 4
#     Node 2, Type 0, BuildingBlock: QUQFOY_clean_sbu_1, # of connection points: 4
#     Node 3, Type 0, BuildingBlock: QUQFOY_clean_sbu_1, # of connection points: 4
#     Node 4, Type 0, BuildingBlock: QUQFOY_clean_sbu_1, # of connection points: 4
#     Node 5, Type 0, BuildingBlock: QUQFOY_clean_sbu_1, # of connection points: 4
#     Node 6, Type 0, BuildingBlock: QUQFOY_clean_sbu_1, # of connection points: 4
#     Node 7, Type 0, BuildingBlock: QUQFOY_clean_sbu_1, # of connection points: 4
#     Node 8, Type 0, BuildingBlock: QUQFOY_clean_sbu_1, # of connection points: 4
#     Node 9, Type 0, BuildingBlock: QUQFOY_clean_sbu_1, # of connection points: 4
#     Node 10, Type 0, BuildingBlock: QUQFOY_clean_sbu_1, # of connection points: 4
#     Node 11, Type 0, BuildingBlock: QUQFOY_clean_sbu_1, # of connection points: 4
#     Edge 12, Type (0, 0), BuildingBlock: EZIPEK_clean_linker_0, # of connection points: 2
#     Edge 13, Type (0, 0), BuildingBlock: EZIPEK_clean_linker_0, # of connection points: 2
#     Edge 14, Type (0, 0), BuildingBlock: EZIPEK_clean_linker_0, # of connection points: 2
#     Edge 15, Type (0, 0), BuildingBlock: EZIPEK_clean_linker_0, # of connection points: 2
#     Edge 16, Type (0, 0), BuildingBlock: EZIPEK_clean_linker_0, # of connection points: 2
#     Edge 17, Type (0, 0), BuildingBlock: EZIPEK_clean_linker_0, # of connection points: 2
#     Edge 18, Type (0, 0), BuildingBlock: EZIPEK_clean_linker_0, # of connection points: 2
#     Edge 19, Type (0, 0), BuildingBlock: EZIPEK_clean_linker_0, # of connection points: 2
#     Edge 20, Type (0, 0), BuildingBlock: EZIPEK_clean_linker_0, # of connection points: 2
#     Edge 21, Type (0, 0), BuildingBlock: EZIPEK_clean_linker_0, # of connection points: 2
#     Edge 22, Type (0, 0), BuildingBlock: EZIPEK_clean_linker_0, # of connection points: 2
#     Edge 23, Type (0, 0), BuildingBlock: EZIPEK_clean_linker_0, # of connection points: 2
#     Edge 24, Type (0, 0), BuildingBlock: EZIPEK_clean_linker_0, # of connection points: 2
#     Edge 25, Type (0, 0), BuildingBlock: EZIPEK_clean_linker_0, # of connection points: 2
#     Edge 26, Type (0, 0), BuildingBlock: EZIPEK_clean_linker_0, # of connection points: 2
#     Edge 27, Type (0, 0), BuildingBlock: EZIPEK_clean_linker_0, # of connection points: 2
#     Edge 28, Type (0, 0), BuildingBlock: EZIPEK_clean_linker_0, # of connection points: 2
#     Edge 29, Type (0, 0), BuildingBlock: EZIPEK_clean_linker_0, # of connection points: 2
#     Edge 30, Type (0, 0), BuildingBlock: EZIPEK_clean_linker_0, # of connection points: 2
#     Edge 31, Type (0, 0), BuildingBlock: EZIPEK_clean_linker_0, # of connection points: 2
#     Edge 32, Type (0, 0), BuildingBlock: EZIPEK_clean_linker_0, # of connection points: 2
#     Edge 33, Type (0, 0), BuildingBlock: EZIPEK_clean_linker_0, # of connection points: 2
#     Edge 34, Type (0, 0), BuildingBlock: EZIPEK_clean_linker_0, # of connection points: 2
#     Edge 35, Type (0, 0), BuildingBlock: EZIPEK_clean_linker_0, # of connection points: 2
# Relax obj value: 0.088
# Max RMSD: 0.097
# Mean RMSD: 0.097
data_MOF--net-can--node1-QUQFOY_clean_sbu_1--edge1-EZIPEK_clean_linker_0
_symmetry_space_group_name_H-M    P1
_symmetry_Int_Tables_number       1
_symmetry_cell_setting            triclinic
loop_
_symmetry_equiv_pos_as_xyz
'x, y, z'
_cell_length_a     43.245621
_cell_length_b     43.271076
_cell_length_c     20.938235
_cell_angle_alpha  90.38154
_cell_angle_beta   89.750002
_cell_angle_gamma 119.83063
loop_
_atom_site_label
_atom_site_type_symbol
_atom_site_fract_x
_atom_site_fract_y
_atom_site_fract_z
_atom_type_partial_charge
O0 O 0.06775 0.39179 0.14132 0.0
Cd1 Cd 0.09426 0.41698 0.22365 0.0
Cd2 Cd 0.02695 0.38778 0.26746 0.0
O3 O 0.01299 0.3614 0.17986 0.0
O4 O 0.14485 0.43218 0.20437 0.0
O5 O 0.11375 0.393 0.2794 0.0
C6 C 0.14328 0.41074 0.24827 0.0
C7 C 0.01035 0.3635 0.36935 0.0
C8 C 0.03477 0.36998 0.13331 0.0
C9 C 0.06842 0.46716 0.25846 0.0
O10 O 0.03787 0.4398 0.26474 0.0
O11 O 0.09565 0.46419 0.24663 0.0
O12 O 0.98764 0.36491 0.33142 0.0
O13 O 0.04181 0.37294 0.34748 0.0
O14 O 0.66723 0.05783 0.64266 0.0
Cd15 Cd 0.67179 0.08568 0.72499 0.0
Cd16 Cd 0.63989 0.02131 0.77349 0.0
O17 O 0.65485 0.00726 0.68887 0.0
O18 O 0.70708 0.13602 0.70655 0.0
O19 O 0.71612 0.10361 0.77762 0.0
C20 C 0.72758 0.13352 0.7482 0.0
C21 C 0.64679 0.00535 0.87623 0.0
C22 C 0.66214 0.02636 0.63908 0.0
C23 C 0.59722 0.05796 0.76369 0.0
O24 O 0.59602 0.02812 0.76775 0.0
O25 O 0.62657 0.08629 0.75375 0.0
O26 O 0.62569 0.98179 0.83561 0.0
O27 O 0.66684 0.0376 0.85646 0.0
O28 O 0.60476 0.66299 0.14913 0.0
Cd29 Cd 0.57726 0.66694 0.22597 0.0
Cd30 Cd 0.61346 0.64218 0.2863 0.0
O31 O 0.64658 0.66143 0.2064 0.0
O32 O 0.5603 0.70032 0.20171 0.0
O33 O 0.6003 0.71194 0.2776 0.0
C34 C 0.58167 0.72189 0.24446 0.0
C35 C 0.63109 0.65392 0.39335 0.0
C36 C 0.63443 0.6637 0.15232 0.0
C37 C 0.53524 0.59313 0.26705 0.0
O38 O 0.56539 0.5952 0.2743 0.0
O39 O 0.53333 0.62083 0.25516 0.0
O40 O 0.63702 0.63235 0.35956 0.0
O41 O 0.61798 0.67128 0.36497 0.0
O42 O 0.93364 0.6026 0.65616 0.0
Cd43 Cd 0.90205 0.57688 0.73327 0.0
Cd44 Cd 0.96601 0.60544 0.7909 0.0
O45 O 0.98569 0.63238 0.70526 0.0
O46 O 0.85285 0.56399 0.70784 0.0
O47 O 0.88197 0.60135 0.78698 0.0
C48 C 0.85349 0.58486 0.75264 0.0
C49 C 0.98015 0.63131 0.89333 0.0
C50 C 0.96686 0.62472 0.65478 0.0
C51 C 0.92417 0.52558 0.77404 0.0
O52 O 0.95359 0.55279 0.7889 0.0
O53 O 0.89809 0.52877 0.755 0.0
O54 O 0.00226 0.62566 0.8607 0.0
O55 O 0.95096 0.62492 0.8654 0.0
O56 O 0.33039 0.94275 0.16297 0.0
Cd57 Cd 0.32533 0.91144 0.23976 0.0
Cd58 Cd 0.35669 0.97345 0.29821 0.0
O59 O 0.34224 0.99108 0.21806 0.0
O60 O 0.28945 0.86195 0.21605 0.0
O61 O 0.28149 0.8921 0.29427 0.0
C62 C 0.26955 0.86317 0.26089 0.0
C63 C 0.34899 0.98605 0.40346 0.0
C64 C 0.33589 0.9744 0.16512 0.0
C65 C 0.39961 0.93736 0.27595 0.0
O66 O 0.40052 0.96669 0.28691 0.0
O67 O 0.37045 0.90949 0.26261 0.0
O68 O 0.3718 0.01052 0.36632 0.0
O69 O 0.32837 0.95481 0.37949 0.0
O70 O 0.39394 0.33137 0.66093 0.0
Cd71 Cd 0.42134 0.3286 0.7383 0.0
Cd72 Cd 0.38486 0.35454 0.7963 0.0
O73 O 0.35387 0.33852 0.71467 0.0
O74 O 0.43855 0.29515 0.71512 0.0
O75 O 0.39882 0.28449 0.79153 0.0
C76 C 0.4174 0.27416 0.75851 0.0
C77 C 0.36322 0.34424 0.90038 0.0
C78 C 0.36582 0.33366 0.66218 0.0
C79 C 0.46328 0.40332 0.77937 0.0
O80 O 0.43324 0.40114 0.78871 0.0
O81 O 0.46536 0.37588 0.76492 0.0
O82 O 0.35953 0.36604 0.86375 0.0
O83 O 0.37664 0.32591 0.87635 0.0
O84 O 0.60504 0.93492 0.38108 0.0
Cd85 Cd 0.57889 0.90607 0.30121 0.0
Cd86 Cd 0.61127 0.97083 0.25213 0.0
O87 O 0.64068 0.9867 0.33558 0.0
O88 O 0.56184 0.85559 0.32427 0.0
O89 O 0.60126 0.88368 0.24766 0.0
C90 C 0.58272 0.85513 0.28068 0.0
C91 C 0.63262 0.97834 0.14815 0.0
C92 C 0.63021 0.967 0.38484 0.0
C93 C 0.53219 0.93537 0.26789 0.0
O94 O 0.56089 0.96469 0.25987 0.0
O95 O 0.53299 0.90689 0.27827 0.0
O96 O 0.63483 0.00487 0.1805 0.0
O97 O 0.62104 0.94814 0.17667 0.0
O98 O 0.6716 0.61415 0.8972 0.0
Cd99 Cd 0.66904 0.58573 0.81686 0.0
Cd100 Cd 0.63588 0.6191 0.77167 0.0
O101 O 0.65639 0.65051 0.85378 0.0
O102 O 0.70191 0.56738 0.83598 0.0
O103 O 0.71218 0.60658 0.75981 0.0
C104 C 0.72257 0.58797 0.79181 0.0
C105 C 0.64261 0.63985 0.66677 0.0
C106 C 0.66845 0.64173 0.90154 0.0
C107 C 0.59209 0.54025 0.78845 0.0
O108 O 0.5914 0.5691 0.78239 0.0
O109 O 0.62132 0.54066 0.79703 0.0
O110 O 0.62226 0.64404 0.70702 0.0
O111 O 0.66164 0.62659 0.68759 0.0
O112 O 0.06111 0.66693 0.40082 0.0
Cd113 Cd 0.09242 0.67384 0.32228 0.0
Cd114 Cd 0.02902 0.63951 0.26491 0.0
O115 O 0.00954 0.64698 0.35101 0.0
O116 O 0.14142 0.71101 0.34575 0.0
O117 O 0.11003 0.71796 0.26955 0.0
C118 C 0.1392 0.73066 0.30206 0.0
C119 C 0.01449 0.65035 0.16264 0.0
C120 C 0.02805 0.65671 0.40203 0.0
C121 C 0.07115 0.60147 0.27742 0.0
O122 O 0.04138 0.59925 0.26532 0.0
O123 O 0.09743 0.63069 0.29591 0.0
O124 O 0.99246 0.62307 0.19566 0.0
O125 O 0.04369 0.67336 0.1903 0.0
O126 O 0.39372 0.06507 0.90337 0.0
Cd127 Cd 0.41904 0.09022 0.82049 0.0
Cd128 Cd 0.38528 0.02308 0.77831 0.0
O129 O 0.35893 0.01081 0.86524 0.0
O130 O 0.43779 0.14156 0.83969 0.0
O131 O 0.39666 0.11199 0.76627 0.0
C132 C 0.41622 0.14128 0.79718 0.0
C133 C 0.36126 0.01146 0.6764 0.0
C134 C 0.36973 0.03284 0.91168 0.0
C135 C 0.46437 0.05868 0.78506 0.0
O136 O 0.43555 0.02917 0.78042 0.0
O137 O 0.46393 0.0874 0.79572 0.0
O138 O 0.35938 0.98616 0.71149 0.0
O139 O 0.37397 0.04289 0.70129 0.0
O140 O 0.32848 0.38724 0.40063 0.0
Cd141 Cd 0.3281 0.41215 0.31787 0.0
Cd142 Cd 0.36157 0.37854 0.27527 0.0
O143 O 0.34837 0.35265 0.36224 0.0
O144 O 0.29485 0.43037 0.3362 0.0
O145 O 0.28421 0.38913 0.26298 0.0
C146 C 0.27397 0.40856 0.29336 0.0
C147 C 0.34896 0.35444 0.17333 0.0
C148 C 0.33724 0.36354 0.4088 0.0
C149 C 0.40465 0.45756 0.28264 0.0
O150 O 0.40545 0.42875 0.27714 0.0
O151 O 0.37551 0.4571 0.29371 0.0
O152 O 0.37252 0.35257 0.20819 0.0
O153 O 0.33013 0.36702 0.19859 0.0
O154 O 0.9401 0.32805 0.88691 0.0
Cd155 Cd 0.90613 0.32117 0.81354 0.0
Cd156 Cd 0.96683 0.35438 0.7469 0.0
O157 O 0.98785 0.34338 0.82734 0.0
O158 O 0.85783 0.28356 0.83934 0.0
O159 O 0.88743 0.27794 0.75749 0.0
C160 C 0.85901 0.2647 0.79244 0.0
C161 C 0.98061 0.34757 0.64133 0.0
C162 C 0.97253 0.33624 0.88173 0.0
C163 C 0.92683 0.39374 0.77367 0.0
O164 O 0.95599 0.39576 0.75658 0.0
O165 O 0.90104 0.36467 0.7935 0.0
O166 O 0.00376 0.3722 0.67797 0.0
O167 O 0.9502 0.32493 0.66572 0.0
C168 C 0.02806 0.38804 1.02319 0.0
C169 C 0.02121 0.36029 0.06688 0.0
C170 C 0.98516 0.31573 0.98558 0.0
C171 C 0.99351 0.34356 0.9413 0.0
N172 N 0.02836 0.40602 0.91417 0.0
N173 N 0.99854 0.29797 0.08711 0.0
C174 C 0.01705 0.37956 0.95871 0.0
C175 C 0.00125 0.32412 0.04733 0.0
N176 N 0.04267 0.42249 0.04431 0.0
N177 N 0.96136 0.28136 0.96881 0.0
H178 H 0.01014 0.30338 0.13236 0.0
H179 H 0.98732 0.27134 0.07363 0.0
H180 H 0.95093 0.27415 0.92278 0.0
H181 H 0.95074 0.2603 1.00096 0.0
H182 H 0.04384 0.44304 1.01691 0.0
H183 H 0.0505 0.43026 0.0913 0.0
H184 H 0.04916 0.43183 0.92232 0.0
H185 H 0.0192 0.40201 0.86731 0.0
C186 C 0.67437 0.99484 0.47508 0.0
C187 C 0.64009 0.98335 0.44906 0.0
C188 C 0.61982 0.99528 0.55074 0.0
C189 C 0.65474 0.00927 0.57552 0.0
N190 N 0.71645 0.02646 0.56083 0.0
N191 N 0.58281 0.98018 0.45665 0.0
C192 C 0.68246 0.01025 0.53754 0.0
C193 C 0.61351 0.98562 0.48543 0.0
N194 N 0.69868 0.99016 0.44077 0.0
N195 N 0.59249 0.99093 0.58985 0.0
H196 H 0.57747 0.9741 0.40824 0.0
H197 H 0.56419 0.98523 0.47896 0.0
H198 H 0.59598 0.99851 0.63784 0.0
H199 H 0.5658 0.977 0.57628 0.0
H200 H 0.72289 0.99465 0.45923 0.0
H201 H 0.6936 0.97958 0.39458 0.0
H202 H 0.73858 0.03142 0.53344 0.0
H203 H 0.72277 0.03684 0.6071 0.0
C204 C 0.65548 0.6903 0.04342 0.0
C205 C 0.6538 0.66642 0.09163 0.0
C206 C 0.68337 0.64536 1.01814 0.0
C207 C 0.67381 0.65955 0.96594 0.0
N208 N 0.66161 0.70544 0.93081 0.0
N209 N 0.6651 0.61875 0.12178 0.0
C210 C 0.66333 0.68532 0.97905 0.0
C211 C 0.66813 0.64374 0.07882 0.0
N212 N 0.65092 0.7184 0.05991 0.0
N213 N 0.70762 0.63422 1.01008 0.0
H214 H 0.65227 0.61449 0.16564 0.0
H215 H 0.67233 0.59967 0.11068 0.0
H216 H 0.72176 0.63842 0.96746 0.0
H217 H 0.71713 0.62575 0.04794 0.0
H218 H 0.65424 0.73832 0.02839 0.0
H219 H 0.64727 0.72378 0.10714 0.0
H220 H 0.64879 0.72033 0.93492 0.0
H221 H 0.67415 0.70805 0.88696 0.0
C222 C 0.99591 0.61405 0.48961 0.0
C223 C 0.01027 0.64902 0.46502 0.0
C224 C 0.99642 0.66901 0.56581 0.0
C225 C 0.98426 0.63461 0.59145 0.0
N226 N 0.97905 0.57657 0.58327 0.0
N227 N 0.02845 0.71094 0.48057 0.0
C228 C 0.98579 0.60771 0.55479 0.0
C229 C 0.0118 0.67692 0.50344 0.0
N230 N 0.99188 0.58679 0.45055 0.0
N231 N 0.99238 0.69365 0.60042 0.0
H232 H 0.0386 0.71722 0.43422 0.0
H233 H 0.03396 0.73315 0.50831 0.0
H234 H 0.98207 0.6888 0.64674 0.0
H235 H 0.99722 0.71798 0.58219 0.0
H236 H 0.97768 0.56008 0.46357 0.0
H237 H 0.00029 0.59038 0.40308 0.0
H238 H 0.98339 0.55743 0.56117 0.0
H239 H 0.97234 0.5712 0.63143 0.0
C240 C 0.38771 0.02478 1.02068 0.0
C241 C 0.36005 0.01977 0.97807 0.0
C242 C 0.31549 0.9867 0.06087 0.0
C243 C 0.34343 0.99397 0.10431 0.0
N244 N 0.40634 0.0256 0.12951 0.0
N245 N 0.29822 0.00102 0.9598 0.0
C246 C 0.37956 0.01517 0.08561 0.0
C247 C 0.32402 0.00214 0.99877 0.0
N248 N 0.42146 0.03619 0.99825 0.0
N249 N 0.28093 0.96451 0.07868 0.0
H250 H 0.30374 0.01221 0.91429 0.0
H251 H 0.27198 0.99158 0.97424 0.0
H252 H 0.27388 0.95432 0.12481 0.0
H253 H 0.25953 0.9548 0.04715 0.0
H254 H 0.44149 0.03602 0.02541 0.0
H255 H 0.42874 0.04231 0.95059 0.0
H256 H 0.43272 0.04464 0.11998 0.0
H257 H 0.40211 0.01767 0.1771 0.0
C258 C 0.32418 0.31905 0.49687 0.0
C259 C 0.3418 0.35479 0.4751 0.0
C260 C 0.36727 0.37586 0.58149 0.0
C261 C 0.35309 0.34006 0.60117 0.0
N262 N 0.32058 0.27726 0.57769 0.0
N263 N 0.3864 0.41657 0.49294 0.0
C264 C 0.33215 0.31148 0.55889 0.0
C265 C 0.3648 0.38309 0.51653 0.0
N266 N 0.29926 0.29263 0.45899 0.0
N267 N 0.3837 0.40316 0.62466 0.0
H268 H 0.38682 0.42321 0.44514 0.0
H269 H 0.40676 0.43703 0.51925 0.0
H270 H 0.38769 0.39943 0.6724 0.0
H271 H 0.3907 0.42938 0.61448 0.0
H272 H 0.28302 0.26656 0.4743 0.0
H273 H 0.29287 0.29747 0.41353 0.0
H274 H 0.30861 0.25541 0.54696 0.0
H275 H 0.3247 0.27097 0.62376 0.0
C276 C 0.96102 0.62881 1.01003 0.0
C277 C 0.98795 0.64284 0.96192 0.0
C278 C 0.03362 0.66518 0.04577 0.0
C279 C 0.0067 0.65319 0.09384 0.0
N280 N 0.94572 0.63646 0.11797 0.0
N281 N 0.04893 0.68646 0.93735 0.0
C282 C 0.97072 0.63937 0.07468 0.0
C283 C 0.02393 0.66511 0.98094 0.0
N284 N 0.92676 0.60345 0.99607 0.0
N285 N 0.06788 0.67407 0.06001 0.0
H286 H 0.04239 0.6886 0.89029 0.0
H287 H 0.07497 0.70514 0.95016 0.0
H288 H 0.07648 0.67206 0.10525 0.0
H289 H 0.08706 0.67962 0.02482 0.0
H290 H 0.90758 0.59047 0.03139 0.0
H291 H 0.91818 0.59222 0.95107 0.0
H292 H 0.91967 0.62906 0.10497 0.0
H293 H 0.95225 0.64576 0.16484 0.0
C294 C 0.32131 0.98925 0.50835 0.0
C295 C 0.35096 0.99231 0.4735 0.0
C296 C 0.38762 0.01224 0.57028 0.0
C297 C 0.35735 0.00644 0.60628 0.0
N298 N 0.29451 0.98586 0.61247 0.0
N299 N 0.40962 0.99837 0.47432 0.0
C300 C 0.32385 0.99387 0.57615 0.0
C301 C 0.38343 0.00166 0.50524 0.0
N302 N 0.29127 0.98311 0.47643 0.0
N303 N 0.42061 0.02821 0.59812 0.0
H304 H 0.40727 0.98931 0.42735 0.0
H305 H 0.43215 0.00097 0.49717 0.0
H306 H 0.42491 0.03555 0.64619 0.0
H307 H 0.44415 0.03697 0.57236 0.0
H308 H 0.27002 0.98404 0.49799 0.0
H309 H 0.28865 0.97957 0.42702 0.0
H310 H 0.26862 0.97309 0.59465 0.0
H311 H 0.29593 0.99011 0.66176 0.0
C312 C 0.38078 0.37815 1.00292 0.0
C313 C 0.35859 0.34564 0.97034 0.0
C314 C 0.33019 0.31758 0.07205 0.0
C315 C 0.35021 0.351 0.10313 0.0
N316 N 0.39014 0.41454 0.09686 0.0
N317 N 0.3097 0.2853 0.97137 0.0
C318 C 0.37405 0.38173 0.06805 0.0
C319 C 0.33262 0.31547 1.00424 0.0
N320 N 0.40969 0.40504 0.97262 0.0
N321 N 0.30938 0.28791 0.10751 0.0
H322 H 0.31107 0.28299 0.92194 0.0
H323 H 0.2879 0.26354 0.99215 0.0
H324 H 0.30628 0.28901 0.15679 0.0
H325 H 0.29692 0.26213 0.08901 0.0
H326 H 0.42911 0.42769 0.99605 0.0
H327 H 0.4165 0.4033 0.92543 0.0
H328 H 0.40435 0.4383 0.07181 0.0
H329 H 0.38688 0.41844 0.14505 0.0
C330 C 0.99258 0.32433 0.53817 0.0
C331 C 0.98665 0.3497 0.57117 0.0
C332 C -0.00061 0.38491 0.47341 0.0
C333 C 0.00268 0.35831 0.43896 0.0
N334 N 0.99884 0.30091 0.43579 0.0
N335 N 0.97674 0.39986 0.56747 0.0
C336 C 0.99834 0.32747 0.47061 0.0
C337 C 0.98785 0.37875 0.53795 0.0
N338 N 0.99372 0.29795 0.57174 0.0
N339 N 0.00884 0.41689 0.44533 0.0
H340 H 0.96771 0.39614 0.61459 0.0
H341 H 0.97316 0.41886 0.54349 0.0
H342 H 0.01801 0.42294 0.39841 0.0
H343 H 0.01093 0.43873 0.47035 0.0
H344 H 0.00151 0.28073 0.55206 0.0
H345 H 0.98895 0.29469 0.6208 0.0
H346 H 0.99234 0.27617 0.45448 0.0
H347 H 0.00351 0.3028 0.38665 0.0
C348 C 0.60989 0.97899 0.97478 0.0
C349 C 0.64409 0.99649 0.94541 0.0
C350 C 0.67175 0.00152 0.05025 0.0
C351 C 0.63739 0.98125 0.07781 0.0
N352 N 0.57391 0.94352 0.06303 0.0
N353 N 0.70736 0.01884 0.95322 0.0
C354 C 0.60658 0.96741 0.03885 0.0
C355 C 0.67506 0.00625 0.98262 0.0
N356 N 0.58073 0.97588 0.94352 0.0
N357 N 0.70113 0.01648 0.08872 0.0
H358 H 0.71054 0.02176 0.90383 0.0
H359 H 0.73034 0.0233 0.97697 0.0
H360 H 0.69965 0.01196 0.13783 0.0
H361 H 0.72654 0.03486 0.07261 0.0
H362 H 0.5561 0.96692 0.96558 0.0
H363 H 0.58185 0.98615 0.89819 0.0
H364 H 0.55128 0.92984 0.03461 0.0
H365 H 0.56991 0.93472 0.11011 0.0
C366 C 0.66906 0.66862 0.49275 0.0
C367 C 0.63495 0.65486 0.46415 0.0
C368 C 0.60657 0.62949 0.56698 0.0
C369 C 0.6405 0.64583 0.59714 0.0
N370 N 0.70385 0.68607 0.59066 0.0
N371 N 0.57125 0.62902 0.47754 0.0
C372 C 0.67178 0.66682 0.56052 0.0
C373 C 0.60378 0.63779 0.50251 0.0
N374 N 0.69884 0.68324 0.45513 0.0
N375 N 0.57715 0.60385 0.59813 0.0
H376 H 0.56748 0.63363 0.43025 0.0
H377 H 0.54839 0.62011 0.50542 0.0
H378 H 0.57797 0.59502 0.64394 0.0
H379 H 0.55264 0.58827 0.57583 0.0
H380 H 0.72407 0.68994 0.47182 0.0
H381 H 0.69795 0.6869 0.40611 0.0
H382 H 0.72706 0.70455 0.56753 0.0
H383 H 0.70665 0.68591 0.64008 0.0
C384 C 0.06595 0.55065 0.21213 0.0
C385 C 0.07443 0.56915 0.27128 0.0
C386 C 0.08462 0.52332 0.31898 0.0
C387 C 0.07185 0.50285 0.26219 0.0
N388 N 0.04569 0.49444 0.15743 0.0
N389 N 0.08667 0.57076 0.38417 0.0
C390 C 0.0612 0.51579 0.20947 0.0
C391 C 0.08278 0.55511 0.32554 0.0
N392 N 0.06349 0.56688 0.15809 0.0
N393 N 0.09816 0.51222 0.36683 0.0
H394 H 0.08477 0.5936 0.39159 0.0
H395 H 0.08873 0.55945 0.42653 0.0
H396 H 0.09849 0.48828 0.3648 0.0
H397 H 0.11147 0.52792 0.40633 0.0
H398 H 0.06091 0.55616 0.11245 0.0
H399 H 0.06759 0.59278 0.15804 0.0
H400 H 0.03373 0.50087 0.12073 0.0
H401 H 0.04213 0.46889 0.15339 0.0
C402 C 0.52014 0.0735 0.72446 0.0
C403 C 0.49879 0.05932 0.7799 0.0
C404 C 0.54423 0.04851 0.82747 0.0
C405 C 0.56395 0.05951 0.76976 0.0
N406 N 0.5683 0.077 0.6594 0.0
N407 N 0.4877 0.02867 0.88066 0.0
C408 C 0.55141 0.07077 0.71722 0.0
C409 C 0.50997 0.04534 0.83032 0.0
N410 N 0.51045 0.08942 0.67863 0.0
N411 N 0.55895 0.04257 0.8804 0.0
H412 H 0.46285 0.02677 0.88569 0.0
H413 H 0.49262 0.01433 0.91496 0.0
H414 H 0.58439 0.04547 0.88051 0.0
H415 H 0.5475 0.03806 0.92567 0.0
H416 H 0.52693 0.10386 0.64081 0.0
H417 H 0.48681 0.09031 0.68058 0.0
H418 H 0.55821 0.08139 0.61751 0.0
H419 H 0.59096 0.07477 0.65181 0.0
C420 C 0.47816 0.54583 0.2181 0.0
C421 C 0.50214 0.55806 0.2706 0.0
C422 C 0.46399 0.50242 0.32751 0.0
C423 C 0.43826 0.49197 0.27808 0.0
N424 N 0.41873 0.5049 0.17911 0.0
N425 N 0.5154 0.55068 0.37944 0.0
C426 C 0.44463 0.51415 0.22435 0.0
C427 C 0.4945 0.537 0.32636 0.0
N428 N 0.48825 0.56338 0.16105 0.0
N429 N 0.45947 0.47924 0.3755 0.0
H430 H 0.53791 0.57592 0.38083 0.0
H431 H 0.5088 0.53836 0.42388 0.0
H432 H 0.43693 0.45416 0.3797 0.0
H433 H 0.47926 0.48371 0.40845 0.0
H434 H 0.47355 0.5537 0.11916 0.0
H435 H 0.51307 0.58595 0.1537 0.0
H436 H 0.42012 0.52199 0.14302 0.0
H437 H 0.39463 0.48091 0.17991 0.0
C438 C 0.9181 0.47197 0.71592 0.0
C439 C 0.92145 0.49014 0.77457 0.0
C440 C 0.92895 0.44524 0.83233 0.0
C441 C 0.92375 0.42619 0.77426 0.0
N442 N 0.90764 0.41753 0.66297 0.0
N443 N 0.92373 0.49141 0.88955 0.0
C444 C 0.91654 0.43838 0.71667 0.0
C445 C 0.92505 0.47598 0.83313 0.0
N446 N 0.91827 0.48763 0.65928 0.0
N447 N 0.93883 0.43463 0.8862 0.0
H448 H 0.92067 0.51384 0.89176 0.0
H449 H 0.92256 0.48035 0.93411 0.0
H450 H 0.94133 0.41187 0.88778 0.0
H451 H 0.94705 0.44965 0.9281 0.0
H452 H 0.92032 0.47781 0.6149 0.0
H453 H 0.91906 0.51205 0.65636 0.0
H454 H 0.89829 0.42302 0.62128 0.0
H455 H 0.9069 0.39306 0.66164 0.0
C456 C 0.44294 0.92243 0.32612 0.0
C457 C 0.43319 0.93632 0.27375 0.0
C458 C 0.48646 0.94613 0.2149 0.0
C459 C 0.49772 0.93494 0.26928 0.0
N460 N 0.49016 0.91859 0.38076 0.0
N461 N 0.44686 0.96518 0.17105 0.0
C462 C 0.47681 0.92453 0.32597 0.0
C463 C 0.45537 0.94938 0.21897 0.0
N464 N 0.41975 0.90711 0.3759 0.0
N465 N 0.50465 0.95217 0.15856 0.0
H466 H 0.4234 0.96646 0.17063 0.0
H467 H 0.46403 0.9791 0.13365 0.0
H468 H 0.52737 0.94982 0.1537 0.0
H469 H 0.49571 0.95659 0.11535 0.0
H470 H 0.42346 0.89278 0.41188 0.0
H471 H 0.39538 0.90653 0.37897 0.0
H472 H 0.47799 0.91492 0.42523 0.0
H473 H 0.5151 0.92046 0.38328 0.0
C474 C 0.54556 0.48532 0.84313 0.0
C475 C 0.5585 0.50569 0.78644 0.0
C476 C 0.5072 0.46018 0.72665 0.0
C477 C 0.49596 0.43854 0.78203 0.0
N478 N 0.50531 0.42814 0.89128 0.0
N479 N 0.55474 0.51135 0.67266 0.0
C480 C 0.51542 0.45044 0.83986 0.0
C481 C 0.54006 0.49291 0.72774 0.0
N482 N 0.56136 0.49992 0.90041 0.0
N483 N 0.48614 0.44963 0.67333 0.0
H484 H 0.5787 0.5355 0.67165 0.0
H485 H 0.54474 0.50162 0.62731 0.0
H486 H 0.4625 0.42527 0.66998 0.0
H487 H 0.49067 0.46592 0.63397 0.0
H488 H 0.55106 0.4881 0.94436 0.0
H489 H 0.58345 0.52542 0.90462 0.0
H490 H 0.52049 0.43355 0.93258 0.0
H491 H 0.48263 0.40291 0.89119 0.0
C492 C 0.19312 0.40203 0.20834 0.0
C493 C 0.17461 0.40635 0.26075 0.0
C494 C 0.21683 0.40309 0.33388 0.0
C495 C 0.23878 0.40551 0.28127 0.0
N496 N 0.25022 0.4136 0.16764 0.0
N497 N 0.17287 0.41727 0.37387 0.0
C498 C 0.22755 0.4065 0.21812 0.0
C499 C 0.18738 0.40839 0.32382 0.0
N500 N 0.17742 0.39254 0.14955 0.0
N501 N 0.22332 0.39456 0.39317 0.0
H502 H 0.15228 0.42296 0.3687 0.0
H503 H 0.18383 0.4226 0.41959 0.0
H504 H 0.24353 0.38864 0.40201 0.0
H505 H 0.20611 0.38931 0.43173 0.0
H506 H 0.18857 0.38593 0.1113 0.0
H507 H 0.15147 0.38722 0.14106 0.0
H508 H 0.24429 0.41813 0.12164 0.0
H509 H 0.27631 0.41871 0.17254 0.0
C510 C 0.81079 0.20561 0.83181 0.0
C511 C 0.82812 0.22882 0.77974 0.0
C512 C 0.78481 0.18381 0.70705 0.0
C513 C 0.76361 0.16433 0.76001 0.0
N514 N 0.75445 0.16044 0.87456 0.0
N515 N 0.82724 0.24204 0.66766 0.0
C516 C 0.77611 0.17599 0.82305 0.0
C517 C 0.8142 0.21844 0.71708 0.0
N518 N 0.82773 0.21129 0.88923 0.0
N519 N 0.77745 0.16899 0.64731 0.0
H520 H 0.84736 0.26844 0.67286 0.0
H521 H 0.81533 0.23642 0.62271 0.0
H522 H 0.75723 0.14291 0.63849 0.0
H523 H 0.79407 0.18104 0.60819 0.0
H524 H 0.81736 0.19331 0.9269 0.0
H525 H 0.85389 0.23168 0.89659 0.0
H526 H 0.76143 0.1706 0.92079 0.0
H527 H 0.72819 0.1398 0.87075 0.0
C528 C 0.58353 0.76975 0.31642 0.0
C529 C 0.58488 0.75738 0.2541 0.0
C530 C 0.58361 0.80869 0.20822 0.0
C531 C 0.58565 0.82271 0.27053 0.0
N532 N 0.59847 0.82129 0.38242 0.0
N533 N 0.59692 0.77089 0.14178 0.0
C534 C 0.58895 0.80468 0.32425 0.0
C535 C 0.58818 0.77861 0.20023 0.0
N536 N 0.57523 0.74776 0.36794 0.0
N537 N 0.57548 0.82269 0.15693 0.0
H538 H 0.60236 0.7502 0.13445 0.0
H539 H 0.6028 0.78753 0.10242 0.0
H540 H 0.57021 0.84365 0.16061 0.0
H541 H 0.57026 0.81096 0.11171 0.0
H542 H 0.57054 0.75468 0.41327 0.0
H543 H 0.5692 0.72131 0.36442 0.0
H544 H 0.60434 0.81036 0.42158 0.0
H545 H 0.60461 0.84762 0.38956 0.0
C546 C 0.80438 0.59383 0.71007 0.0
C547 C 0.82211 0.58955 0.76339 0.0
C548 C 0.77932 0.59382 0.83433 0.0
C549 C 0.7579 0.59096 0.78089 0.0
N550 N 0.74782 0.58207 0.66696 0.0
N551 N 0.82179 0.57864 0.87681 0.0
C552 C 0.76984 0.58948 0.71832 0.0
C553 C 0.80849 0.58787 0.82585 0.0
N554 N 0.82089 0.60318 0.65193 0.0
N555 N 0.77262 0.60335 0.89292 0.0
H556 H 0.8418 0.572 0.87287 0.0
H557 H 0.81016 0.57377 0.92203 0.0
H558 H 0.7528 0.61001 0.90053 0.0
H559 H 0.78948 0.60879 0.93195 0.0
H560 H 0.81024 0.60965 0.61309 0.0
H561 H 0.847 0.60859 0.64465 0.0
H562 H 0.75433 0.57727 0.62138 0.0
H563 H 0.72167 0.57697 0.67076 0.0
C564 C 0.21169 0.81366 0.21943 0.0
C565 C 0.23377 0.83193 0.27246 0.0
C566 C 0.18787 0.78893 0.34388 0.0
C567 C 0.16968 0.76691 0.29066 0.0
N568 N 0.1684 0.7564 0.17659 0.0
N569 N 0.24496 0.83292 0.38597 0.0
C570 C 0.18244 0.77879 0.2279 0.0
C571 C 0.22239 0.81872 0.33513 0.0
N572 N 0.21804 0.82987 0.16127 0.0
N573 N 0.1719 0.78194 0.40255 0.0
H574 H 0.27123 0.8535 0.3819 0.0
H575 H 0.23873 0.82163 0.43134 0.0
H576 H 0.14586 0.76141 0.41021 0.0
H577 H 0.18293 0.79907 0.44155 0.0
H578 H 0.20078 0.81872 0.12262 0.0
H579 H 0.23812 0.85613 0.1539 0.0
H580 H 0.17947 0.76307 0.13099 0.0
H581 H 0.14824 0.72995 0.18028 0.0
C582 C 0.41626 0.22746 0.83133 0.0
C583 C 0.41427 0.23883 0.76885 0.0
C584 C 0.41474 0.18661 0.72387 0.0
C585 C 0.41342 0.17366 0.78648 0.0
N586 N 0.40207 0.17703 0.89878 0.0
N587 N 0.4011 0.22361 0.65713 0.0
C588 C 0.41088 0.19264 0.83998 0.0
C589 C 0.41033 0.21671 0.71546 0.0
N590 N 0.42511 0.25028 0.88215 0.0
N591 N 0.42197 0.17151 0.67262 0.0
H592 H 0.39577 0.24431 0.64956 0.0
H593 H 0.39473 0.20635 0.61822 0.0
H594 H 0.4269 0.15035 0.67658 0.0
H595 H 0.42673 0.18242 0.62697 0.0
H596 H 0.43032 0.24413 0.92746 0.0
H597 H 0.43103 0.27665 0.87793 0.0
H598 H 0.39671 0.18864 0.93793 0.0
H599 H 0.396 0.15082 0.90665 0.0
loop_
_geom_bond_atom_site_label_1
_geom_bond_atom_site_label_2
_geom_bond_distance
_geom_bond_site_symmetry_2
_ccdc_geom_bond_type
O0 Cd1 2.223 . S
O0 C8 1.315 . S
Cd1 O0 2.223 . S
Cd1 O4 2.297 . S
Cd1 O5 2.439 . S
Cd1 O11 2.240 . S
Cd2 O3 2.240 1_655 S
Cd2 O10 2.223 . S
Cd2 O12 2.297 . S
Cd2 O13 2.439 1_655 S
O3 Cd2 2.240 1_455 S
O3 C8 1.279 . S
O4 Cd1 2.297 . S
O4 C6 1.247 . S
O5 Cd1 2.439 . S
O5 C6 1.208 . S
C6 O4 1.247 . S
C6 O5 1.208 . S
C7 O12 1.247 1_455 S
C7 O13 1.208 . S
C8 O0 1.315 . S
C8 O3 1.279 . S
C9 O10 1.315 1_455 S
C9 O11 1.279 . S
O10 Cd2 2.223 . S
O10 C9 1.315 1_655 S
O11 Cd1 2.240 . S
O11 C9 1.279 . S
O12 Cd2 2.297 . S
O12 C7 1.247 1_655 S
O13 Cd2 2.439 1_455 S
O13 C7 1.208 . S
O14 Cd15 2.223 . S
O14 C22 1.315 . S
Cd15 O14 2.223 . S
Cd15 O18 2.297 . S
Cd15 O19 2.439 . S
Cd15 O25 2.240 . S
Cd16 O17 2.240 1_565 S
Cd16 O24 2.223 . S
Cd16 O26 2.297 . S
Cd16 O27 2.439 1_565 S
O17 Cd16 2.240 1_545 S
O17 C22 1.279 . S
O18 Cd15 2.297 . S
O18 C20 1.247 . S
O19 Cd15 2.439 . S
O19 C20 1.208 . S
C20 O18 1.247 . S
C20 O19 1.208 . S
C21 O26 1.247 1_545 S
C21 O27 1.208 . S
C22 O14 1.315 . S
C22 O17 1.279 . S
C23 O24 1.315 1_545 S
C23 O25 1.279 . S
O24 Cd16 2.223 . S
O24 C23 1.315 1_565 S
O25 Cd15 2.240 . S
O25 C23 1.279 . S
O26 Cd16 2.297 . S
O26 C21 1.247 1_565 S
O27 Cd16 2.439 1_545 S
O27 C21 1.208 . S
O28 Cd29 2.223 . S
O28 C36 1.315 . S
Cd29 O28 2.223 . S
Cd29 O32 2.297 . S
Cd29 O33 2.439 . S
Cd29 O39 2.240 . S
Cd30 O31 2.240 . S
Cd30 O38 2.223 . S
Cd30 O40 2.297 . S
Cd30 O41 2.439 . S
O31 Cd30 2.240 . S
O31 C36 1.279 . S
O32 Cd29 2.297 . S
O32 C34 1.247 . S
O33 Cd29 2.439 . S
O33 C34 1.208 . S
C34 O32 1.247 . S
C34 O33 1.208 . S
C35 O40 1.247 . S
C35 O41 1.208 . S
C36 O28 1.315 . S
C36 O31 1.279 . S
C37 O38 1.315 . S
C37 O39 1.279 . S
O38 Cd30 2.223 . S
O38 C37 1.315 . S
O39 Cd29 2.240 . S
O39 C37 1.279 . S
O40 Cd30 2.297 . S
O40 C35 1.247 . S
O41 Cd30 2.439 . S
O41 C35 1.208 . S
O42 Cd43 2.223 . S
O42 C50 1.315 . S
Cd43 O42 2.223 . S
Cd43 O46 2.297 . S
Cd43 O47 2.439 . S
Cd43 O53 2.240 . S
Cd44 O45 2.240 1_455 S
Cd44 O52 2.223 . S
Cd44 O54 2.297 . S
Cd44 O55 2.439 1_455 S
O45 Cd44 2.240 1_655 S
O45 C50 1.279 . S
O46 Cd43 2.297 . S
O46 C48 1.247 . S
O47 Cd43 2.439 . S
O47 C48 1.208 . S
C48 O46 1.247 . S
C48 O47 1.208 . S
C49 O54 1.247 1_655 S
C49 O55 1.208 . S
C50 O42 1.315 . S
C50 O45 1.279 . S
C51 O52 1.315 1_655 S
C51 O53 1.279 . S
O52 Cd44 2.223 . S
O52 C51 1.315 1_455 S
O53 Cd43 2.240 . S
O53 C51 1.279 . S
O54 Cd44 2.297 . S
O54 C49 1.247 1_455 S
O55 Cd44 2.439 1_655 S
O55 C49 1.208 . S
O56 Cd57 2.223 . S
O56 C64 1.315 . S
Cd57 O56 2.223 . S
Cd57 O60 2.297 . S
Cd57 O61 2.439 . S
Cd57 O67 2.240 . S
Cd58 O59 2.240 1_545 S
Cd58 O66 2.223 . S
Cd58 O68 2.297 . S
Cd58 O69 2.439 1_545 S
O59 Cd58 2.240 1_565 S
O59 C64 1.279 . S
O60 Cd57 2.297 . S
O60 C62 1.247 . S
O61 Cd57 2.439 . S
O61 C62 1.208 . S
C62 O60 1.247 . S
C62 O61 1.208 . S
C63 O68 1.247 1_565 S
C63 O69 1.208 . S
C64 O56 1.315 . S
C64 O59 1.279 . S
C65 O66 1.315 1_565 S
C65 O67 1.279 . S
O66 Cd58 2.223 . S
O66 C65 1.315 1_545 S
O67 Cd57 2.240 . S
O67 C65 1.279 . S
O68 Cd58 2.297 . S
O68 C63 1.247 1_545 S
O69 Cd58 2.439 1_565 S
O69 C63 1.208 . S
O70 Cd71 2.223 . S
O70 C78 1.315 . S
Cd71 O70 2.223 . S
Cd71 O74 2.297 . S
Cd71 O75 2.439 . S
Cd71 O81 2.240 . S
Cd72 O73 2.240 . S
Cd72 O80 2.223 . S
Cd72 O82 2.297 . S
Cd72 O83 2.439 . S
O73 Cd72 2.240 . S
O73 C78 1.279 . S
O74 Cd71 2.297 . S
O74 C76 1.247 . S
O75 Cd71 2.439 . S
O75 C76 1.208 . S
C76 O74 1.247 . S
C76 O75 1.208 . S
C77 O82 1.247 . S
C77 O83 1.208 . S
C78 O70 1.315 . S
C78 O73 1.279 . S
C79 O80 1.315 . S
C79 O81 1.279 . S
O80 Cd72 2.223 . S
O80 C79 1.315 . S
O81 Cd71 2.240 . S
O81 C79 1.279 . S
O82 Cd72 2.297 . S
O82 C77 1.247 . S
O83 Cd72 2.439 . S
O83 C77 1.208 . S
O84 Cd85 2.223 . S
O84 C92 1.315 . S
Cd85 O84 2.223 . S
Cd85 O88 2.297 . S
Cd85 O89 2.439 . S
Cd85 O95 2.240 . S
Cd86 O87 2.240 1_545 S
Cd86 O94 2.223 . S
Cd86 O96 2.297 . S
Cd86 O97 2.439 1_545 S
O87 Cd86 2.240 1_565 S
O87 C92 1.279 . S
O88 Cd85 2.297 . S
O88 C90 1.247 . S
O89 Cd85 2.439 . S
O89 C90 1.208 . S
C90 O88 1.247 . S
C90 O89 1.208 . S
C91 O96 1.247 1_565 S
C91 O97 1.208 . S
C92 O84 1.315 . S
C92 O87 1.279 . S
C93 O94 1.315 1_565 S
C93 O95 1.279 . S
O94 Cd86 2.223 . S
O94 C93 1.315 1_545 S
O95 Cd85 2.240 . S
O95 C93 1.279 . S
O96 Cd86 2.297 . S
O96 C91 1.247 1_545 S
O97 Cd86 2.439 1_565 S
O97 C91 1.208 . S
O98 Cd99 2.223 . S
O98 C106 1.315 . S
Cd99 O98 2.223 . S
Cd99 O102 2.297 . S
Cd99 O103 2.439 . S
Cd99 O109 2.240 . S
Cd100 O101 2.240 . S
Cd100 O108 2.223 . S
Cd100 O110 2.297 . S
Cd100 O111 2.439 . S
O101 Cd100 2.240 . S
O101 C106 1.279 . S
O102 Cd99 2.297 . S
O102 C104 1.247 . S
O103 Cd99 2.439 . S
O103 C104 1.208 . S
C104 O102 1.247 . S
C104 O103 1.208 . S
C105 O110 1.247 . S
C105 O111 1.208 . S
C106 O98 1.315 . S
C106 O101 1.279 . S
C107 O108 1.315 . S
C107 O109 1.279 . S
O108 Cd100 2.223 . S
O108 C107 1.315 . S
O109 Cd99 2.240 . S
O109 C107 1.279 . S
O110 Cd100 2.297 . S
O110 C105 1.247 . S
O111 Cd100 2.439 . S
O111 C105 1.208 . S
O112 Cd113 2.223 . S
O112 C120 1.315 . S
Cd113 O112 2.223 . S
Cd113 O116 2.297 . S
Cd113 O117 2.439 . S
Cd113 O123 2.240 . S
Cd114 O115 2.240 1_655 S
Cd114 O122 2.223 . S
Cd114 O124 2.297 . S
Cd114 O125 2.439 1_655 S
O115 Cd114 2.240 1_455 S
O115 C120 1.279 . S
O116 Cd113 2.297 . S
O116 C118 1.247 . S
O117 Cd113 2.439 . S
O117 C118 1.208 . S
C118 O116 1.247 . S
C118 O117 1.208 . S
C119 O124 1.247 1_455 S
C119 O125 1.208 . S
C120 O112 1.315 . S
C120 O115 1.279 . S
C121 O122 1.315 1_455 S
C121 O123 1.279 . S
O122 Cd114 2.223 . S
O122 C121 1.315 1_655 S
O123 Cd113 2.240 . S
O123 C121 1.279 . S
O124 Cd114 2.297 . S
O124 C119 1.247 1_655 S
O125 Cd114 2.439 1_455 S
O125 C119 1.208 . S
O126 Cd127 2.223 . S
O126 C134 1.315 . S
Cd127 O126 2.223 . S
Cd127 O130 2.297 . S
Cd127 O131 2.439 . S
Cd127 O137 2.240 . S
Cd128 O129 2.240 1_565 S
Cd128 O136 2.223 . S
Cd128 O138 2.297 . S
Cd128 O139 2.439 1_565 S
O129 Cd128 2.240 1_545 S
O129 C134 1.279 . S
O130 Cd127 2.297 . S
O130 C132 1.247 . S
O131 Cd127 2.439 . S
O131 C132 1.208 . S
C132 O130 1.247 . S
C132 O131 1.208 . S
C133 O138 1.247 1_545 S
C133 O139 1.208 . S
C134 O126 1.315 . S
C134 O129 1.279 . S
C135 O136 1.315 1_545 S
C135 O137 1.279 . S
O136 Cd128 2.223 . S
O136 C135 1.315 1_565 S
O137 Cd127 2.240 . S
O137 C135 1.279 . S
O138 Cd128 2.297 . S
O138 C133 1.247 1_565 S
O139 Cd128 2.439 1_545 S
O139 C133 1.208 . S
O140 Cd141 2.223 . S
O140 C148 1.315 . S
Cd141 O140 2.223 . S
Cd141 O144 2.297 . S
Cd141 O145 2.439 . S
Cd141 O151 2.240 . S
Cd142 O143 2.240 . S
Cd142 O150 2.223 . S
Cd142 O152 2.297 . S
Cd142 O153 2.439 . S
O143 Cd142 2.240 . S
O143 C148 1.279 . S
O144 Cd141 2.297 . S
O144 C146 1.247 . S
O145 Cd141 2.439 . S
O145 C146 1.208 . S
C146 O144 1.247 . S
C146 O145 1.208 . S
C147 O152 1.247 . S
C147 O153 1.208 . S
C148 O140 1.315 . S
C148 O143 1.279 . S
C149 O150 1.315 . S
C149 O151 1.279 . S
O150 Cd142 2.223 . S
O150 C149 1.315 . S
O151 Cd141 2.240 . S
O151 C149 1.279 . S
O152 Cd142 2.297 . S
O152 C147 1.247 . S
O153 Cd142 2.439 . S
O153 C147 1.208 . S
O154 Cd155 2.223 . S
O154 C162 1.315 . S
Cd155 O154 2.223 . S
Cd155 O158 2.297 . S
Cd155 O159 2.439 . S
Cd155 O165 2.240 . S
Cd156 O157 2.240 1_455 S
Cd156 O164 2.223 . S
Cd156 O166 2.297 . S
Cd156 O167 2.439 1_455 S
O157 Cd156 2.240 1_655 S
O157 C162 1.279 . S
O158 Cd155 2.297 . S
O158 C160 1.247 . S
O159 Cd155 2.439 . S
O159 C160 1.208 . S
C160 O158 1.247 . S
C160 O159 1.208 . S
C161 O166 1.247 1_655 S
C161 O167 1.208 . S
C162 O154 1.315 . S
C162 O157 1.279 . S
C163 O164 1.315 1_655 S
C163 O165 1.279 . S
O164 Cd156 2.223 . S
O164 C163 1.315 1_455 S
O165 Cd155 2.240 . S
O165 C163 1.279 . S
O166 Cd156 2.297 . S
O166 C161 1.247 1_455 S
O167 Cd156 2.439 1_655 S
O167 C161 1.208 . S
C168 C169 1.363 . S
C168 C174 1.379 1_554 S
C168 N176 1.356 . S
C169 C168 1.363 . S
C169 C175 1.363 1_455 S
C170 C171 1.363 . S
C170 C175 1.379 1_556 S
C170 N177 1.356 . S
C171 C170 1.363 . S
C171 C174 1.363 1_655 S
N172 C174 1.356 . S
N172 H184 0.984 . S
N172 H185 0.985 . S
N173 C175 1.356 . S
N173 H178 0.984 . S
N173 H179 0.985 . S
C174 C168 1.379 1_556 S
C174 C171 1.363 1_455 S
C174 N172 1.356 . S
C175 C169 1.363 1_655 S
C175 C170 1.379 1_554 S
C175 N173 1.356 . S
N176 C168 1.356 . S
N176 H182 0.984 . S
N176 H183 0.984 . S
N177 C170 1.356 . S
N177 H180 0.984 . S
N177 H181 0.985 . S
H178 N173 0.984 . S
H179 N173 0.985 . S
H180 N177 0.984 . S
H181 N177 0.985 . S
H182 N176 0.984 . S
H183 N176 0.984 . S
H184 N172 0.984 . S
H185 N172 0.985 . S
C186 C187 1.363 1_545 S
C186 C192 1.379 . S
C186 N194 1.356 . S
C187 C186 1.363 1_565 S
C187 C193 1.363 . S
C188 C189 1.363 1_565 S
C188 C193 1.379 . S
C188 N195 1.356 . S
C189 C188 1.363 1_545 S
C189 C192 1.363 . S
N190 C192 1.356 . S
N190 H202 0.984 . S
N190 H203 0.985 . S
N191 C193 1.356 . S
N191 H196 0.984 . S
N191 H197 0.985 . S
C192 C186 1.379 . S
C192 C189 1.363 . S
C192 N190 1.356 . S
C193 C187 1.363 . S
C193 C188 1.379 . S
C193 N191 1.356 . S
N194 C186 1.356 . S
N194 H200 0.984 . S
N194 H201 0.984 . S
N195 C188 1.356 . S
N195 H198 0.984 . S
N195 H199 0.985 . S
H196 N191 0.984 . S
H197 N191 0.985 . S
H198 N195 0.984 . S
H199 N195 0.985 . S
H200 N194 0.984 . S
H201 N194 0.984 . S
H202 N190 0.984 . S
H203 N190 0.985 . S
C204 C205 1.363 . S
C204 C210 1.379 1_554 S
C204 N212 1.356 . S
C205 C204 1.363 . S
C205 C211 1.363 . S
C206 C207 1.363 . S
C206 C211 1.379 1_556 S
C206 N213 1.356 . S
C207 C206 1.363 . S
C207 C210 1.363 . S
N208 C210 1.356 . S
N208 H220 0.984 . S
N208 H221 0.985 . S
N209 C211 1.356 . S
N209 H214 0.984 . S
N209 H215 0.985 . S
C210 C204 1.379 1_556 S
C210 C207 1.363 . S
C210 N208 1.356 . S
C211 C205 1.363 . S
C211 C206 1.379 1_554 S
C211 N209 1.356 . S
N212 C204 1.356 . S
N212 H218 0.984 . S
N212 H219 0.984 . S
N213 C206 1.356 . S
N213 H216 0.984 . S
N213 H217 0.985 . S
H214 N209 0.984 . S
H215 N209 0.985 . S
H216 N213 0.984 . S
H217 N213 0.985 . S
H218 N212 0.984 . S
H219 N212 0.984 . S
H220 N208 0.984 . S
H221 N208 0.985 . S
C222 C223 1.363 1_655 S
C222 C228 1.379 . S
C222 N230 1.356 . S
C223 C222 1.363 1_455 S
C223 C229 1.363 . S
C224 C225 1.363 1_455 S
C224 C229 1.379 . S
C224 N231 1.356 . S
C225 C224 1.363 1_655 S
C225 C228 1.363 . S
N226 C228 1.356 . S
N226 H238 0.984 . S
N226 H239 0.985 . S
N227 C229 1.356 . S
N227 H232 0.984 . S
N227 H233 0.985 . S
C228 C222 1.379 . S
C228 C225 1.363 . S
C228 N226 1.356 . S
C229 C223 1.363 . S
C229 C224 1.379 . S
C229 N227 1.356 . S
N230 C222 1.356 . S
N230 H236 0.984 . S
N230 H237 0.984 . S
N231 C224 1.356 . S
N231 H234 0.984 . S
N231 H235 0.985 . S
H232 N227 0.984 . S
H233 N227 0.985 . S
H234 N231 0.984 . S
H235 N231 0.985 . S
H236 N230 0.984 . S
H237 N230 0.984 . S
H238 N226 0.984 . S
H239 N226 0.985 . S
C240 C241 1.363 . S
C240 C246 1.379 1_556 S
C240 N248 1.356 . S
C241 C240 1.363 . S
C241 C247 1.363 1_545 S
C242 C243 1.363 . S
C242 C247 1.379 1_554 S
C242 N249 1.356 . S
C243 C242 1.363 . S
C243 C246 1.363 1_565 S
N244 C246 1.356 . S
N244 H256 0.984 . S
N244 H257 0.985 . S
N245 C247 1.356 . S
N245 H250 0.984 . S
N245 H251 0.985 . S
C246 C240 1.379 1_554 S
C246 C243 1.363 1_545 S
C246 N244 1.356 . S
C247 C241 1.363 1_565 S
C247 C242 1.379 1_556 S
C247 N245 1.356 . S
N248 C240 1.356 . S
N248 H254 0.984 . S
N248 H255 0.984 . S
N249 C242 1.356 . S
N249 H252 0.984 . S
N249 H253 0.985 . S
H250 N245 0.984 . S
H251 N245 0.985 . S
H252 N249 0.984 . S
H253 N249 0.985 . S
H254 N248 0.984 . S
H255 N248 0.984 . S
H256 N244 0.984 . S
H257 N244 0.985 . S
C258 C259 1.363 . S
C258 C264 1.379 . S
C258 N266 1.356 . S
C259 C258 1.363 . S
C259 C265 1.363 . S
C260 C261 1.363 . S
C260 C265 1.379 . S
C260 N267 1.356 . S
C261 C260 1.363 . S
C261 C264 1.363 . S
N262 C264 1.356 . S
N262 H274 0.984 . S
N262 H275 0.985 . S
N263 C265 1.356 . S
N263 H268 0.984 . S
N263 H269 0.985 . S
C264 C258 1.379 . S
C264 C261 1.363 . S
C264 N262 1.356 . S
C265 C259 1.363 . S
C265 C260 1.379 . S
C265 N263 1.356 . S
N266 C258 1.356 . S
N266 H272 0.984 . S
N266 H273 0.984 . S
N267 C260 1.356 . S
N267 H270 0.984 . S
N267 H271 0.985 . S
H268 N263 0.984 . S
H269 N263 0.985 . S
H270 N267 0.984 . S
H271 N267 0.985 . S
H272 N266 0.984 . S
H273 N266 0.984 . S
H274 N262 0.984 . S
H275 N262 0.985 . S
C276 C277 1.363 . S
C276 C282 1.379 1_556 S
C276 N284 1.356 . S
C277 C276 1.363 . S
C277 C283 1.363 1_655 S
C278 C279 1.363 . S
C278 C283 1.379 1_554 S
C278 N285 1.356 . S
C279 C278 1.363 . S
C279 C282 1.363 1_455 S
N280 C282 1.356 . S
N280 H292 0.984 . S
N280 H293 0.985 . S
N281 C283 1.356 . S
N281 H286 0.984 . S
N281 H287 0.985 . S
C282 C276 1.379 1_554 S
C282 C279 1.363 1_655 S
C282 N280 1.356 . S
C283 C277 1.363 1_455 S
C283 C278 1.379 1_556 S
C283 N281 1.356 . S
N284 C276 1.356 . S
N284 H290 0.984 . S
N284 H291 0.984 . S
N285 C278 1.356 . S
N285 H288 0.984 . S
N285 H289 0.985 . S
H286 N281 0.984 . S
H287 N281 0.985 . S
H288 N285 0.984 . S
H289 N285 0.985 . S
H290 N284 0.984 . S
H291 N284 0.984 . S
H292 N280 0.984 . S
H293 N280 0.985 . S
C294 C295 1.363 . S
C294 C300 1.379 . S
C294 N302 1.356 . S
C295 C294 1.363 . S
C295 C301 1.363 1_565 S
C296 C297 1.363 . S
C296 C301 1.379 . S
C296 N303 1.356 . S
C297 C296 1.363 . S
C297 C300 1.363 1_545 S
N298 C300 1.356 . S
N298 H310 0.984 . S
N298 H311 0.985 . S
N299 C301 1.356 . S
N299 H304 0.984 . S
N299 H305 0.985 . S
C300 C294 1.379 . S
C300 C297 1.363 1_565 S
C300 N298 1.356 . S
C301 C295 1.363 1_545 S
C301 C296 1.379 . S
C301 N299 1.356 . S
N302 C294 1.356 . S
N302 H308 0.984 . S
N302 H309 0.984 . S
N303 C296 1.356 . S
N303 H306 0.984 . S
N303 H307 0.985 . S
H304 N299 0.984 . S
H305 N299 0.985 . S
H306 N303 0.984 . S
H307 N303 0.985 . S
H308 N302 0.984 . S
H309 N302 0.984 . S
H310 N298 0.984 . S
H311 N298 0.985 . S
C312 C313 1.363 . S
C312 C318 1.379 1_556 S
C312 N320 1.356 . S
C313 C312 1.363 . S
C313 C319 1.363 . S
C314 C315 1.363 . S
C314 C319 1.379 1_554 S
C314 N321 1.356 . S
C315 C314 1.363 . S
C315 C318 1.363 . S
N316 C318 1.356 . S
N316 H328 0.984 . S
N316 H329 0.985 . S
N317 C319 1.356 . S
N317 H322 0.984 . S
N317 H323 0.985 . S
C318 C312 1.379 1_554 S
C318 C315 1.363 . S
C318 N316 1.356 . S
C319 C313 1.363 . S
C319 C314 1.379 1_556 S
C319 N317 1.356 . S
N320 C312 1.356 . S
N320 H326 0.984 . S
N320 H327 0.984 . S
N321 C314 1.356 . S
N321 H324 0.984 . S
N321 H325 0.985 . S
H322 N317 0.984 . S
H323 N317 0.985 . S
H324 N321 0.984 . S
H325 N321 0.985 . S
H326 N320 0.984 . S
H327 N320 0.984 . S
H328 N316 0.984 . S
H329 N316 0.985 . S
C330 C331 1.363 1_455 S
C330 C336 1.379 . S
C330 N338 1.356 . S
C331 C330 1.363 1_655 S
C331 C337 1.363 . S
C332 C333 1.363 1_655 S
C332 C337 1.379 . S
C332 N339 1.356 . S
C333 C332 1.363 1_455 S
C333 C336 1.363 . S
N334 C336 1.356 . S
N334 H346 0.984 . S
N334 H347 0.985 . S
N335 C337 1.356 . S
N335 H340 0.984 . S
N335 H341 0.985 . S
C336 C330 1.379 . S
C336 C333 1.363 . S
C336 N334 1.356 . S
C337 C331 1.363 . S
C337 C332 1.379 . S
C337 N335 1.356 . S
N338 C330 1.356 . S
N338 H344 0.984 . S
N338 H345 0.984 1_455 S
N339 C332 1.356 . S
N339 H342 0.984 1_655 S
N339 H343 0.985 . S
H340 N335 0.984 . S
H341 N335 0.985 . S
H342 N339 0.984 1_455 S
H343 N339 0.985 . S
H344 N338 0.984 . S
H345 N338 0.984 1_655 S
H346 N334 0.984 . S
H347 N334 0.985 . S
C348 C349 1.363 1_565 S
C348 C354 1.379 1_556 S
C348 N356 1.356 . S
C349 C348 1.363 1_545 S
C349 C355 1.363 . S
C350 C351 1.363 1_545 S
C350 C355 1.379 1_554 S
C350 N357 1.356 . S
C351 C350 1.363 1_565 S
C351 C354 1.363 . S
N352 C354 1.356 . S
N352 H364 0.984 . S
N352 H365 0.985 . S
N353 C355 1.356 . S
N353 H358 0.984 . S
N353 H359 0.985 . S
C354 C348 1.379 1_554 S
C354 C351 1.363 . S
C354 N352 1.356 . S
C355 C349 1.363 . S
C355 C350 1.379 1_556 S
C355 N353 1.356 . S
N356 C348 1.356 . S
N356 H362 0.984 . S
N356 H363 0.984 . S
N357 C350 1.356 . S
N357 H360 0.984 . S
N357 H361 0.985 . S
H358 N353 0.984 . S
H359 N353 0.985 . S
H360 N357 0.984 . S
H361 N357 0.985 . S
H362 N356 0.984 . S
H363 N356 0.984 . S
H364 N352 0.984 . S
H365 N352 0.985 . S
C366 C367 1.363 . S
C366 C372 1.379 . S
C366 N374 1.356 . S
C367 C366 1.363 . S
C367 C373 1.363 . S
C368 C369 1.363 . S
C368 C373 1.379 . S
C368 N375 1.356 . S
C369 C368 1.363 . S
C369 C372 1.363 . S
N370 C372 1.356 . S
N370 H382 0.984 . S
N370 H383 0.985 . S
N371 C373 1.356 . S
N371 H376 0.984 . S
N371 H377 0.985 . S
C372 C366 1.379 . S
C372 C369 1.363 . S
C372 N370 1.356 . S
C373 C367 1.363 . S
C373 C368 1.379 . S
C373 N371 1.356 . S
N374 C366 1.356 . S
N374 H380 0.984 . S
N374 H381 0.984 . S
N375 C368 1.356 . S
N375 H378 0.984 . S
N375 H379 0.985 . S
H376 N371 0.984 . S
H377 N371 0.985 . S
H378 N375 0.984 . S
H379 N375 0.985 . S
H380 N374 0.984 . S
H381 N374 0.984 . S
H382 N370 0.984 . S
H383 N370 0.985 . S
C384 C385 1.363 . S
C384 C390 1.379 . S
C384 N392 1.356 . S
C385 C384 1.363 . S
C385 C391 1.363 . S
C386 C387 1.363 . S
C386 C391 1.379 . S
C386 N393 1.356 . S
C387 C386 1.363 . S
C387 C390 1.363 . S
N388 C390 1.356 . S
N388 H400 0.987 . S
N388 H401 0.985 . S
N389 C391 1.356 . S
N389 H394 0.984 . S
N389 H395 0.985 . S
C390 C384 1.379 . S
C390 C387 1.363 . S
C390 N388 1.356 . S
C391 C385 1.363 . S
C391 C386 1.379 . S
C391 N389 1.356 . S
N392 C384 1.356 . S
N392 H398 0.986 . S
N392 H399 0.984 . S
N393 C386 1.356 . S
N393 H396 0.984 . S
N393 H397 0.985 . S
H394 N389 0.984 . S
H395 N389 0.985 . S
H396 N393 0.984 . S
H397 N393 0.985 . S
H398 N392 0.986 . S
H399 N392 0.984 . S
H400 N388 0.987 . S
H401 N388 0.985 . S
C402 C403 1.363 . S
C402 C408 1.379 . S
C402 N410 1.356 . S
C403 C402 1.363 . S
C403 C409 1.363 . S
C404 C405 1.363 . S
C404 C409 1.379 . S
C404 N411 1.356 1_545 S
C405 C404 1.363 . S
C405 C408 1.363 . S
N406 C408 1.356 . S
N406 H418 0.984 . S
N406 H419 0.985 . S
N407 C409 1.356 1_565 S
N407 H412 0.984 . S
N407 H413 0.985 . S
C408 C402 1.379 . S
C408 C405 1.363 . S
C408 N406 1.356 . S
C409 C403 1.363 . S
C409 C404 1.379 . S
C409 N407 1.356 1_545 S
N410 C402 1.356 . S
N410 H416 0.984 . S
N410 H417 0.984 . S
N411 C404 1.356 1_565 S
N411 H414 0.984 . S
N411 H415 0.985 . S
H412 N407 0.984 . S
H413 N407 0.985 . S
H414 N411 0.984 . S
H415 N411 0.985 . S
H416 N410 0.984 . S
H417 N410 0.984 . S
H418 N406 0.984 . S
H419 N406 0.985 . S
C420 C421 1.363 . S
C420 C426 1.379 . S
C420 N428 1.356 . S
C421 C420 1.363 . S
C421 C427 1.363 . S
C422 C423 1.363 . S
C422 C427 1.379 . S
C422 N429 1.356 . S
C423 C422 1.363 . S
C423 C426 1.363 . S
N424 C426 1.356 . S
N424 H436 0.984 . S
N424 H437 0.985 . S
N425 C427 1.356 . S
N425 H430 0.984 . S
N425 H431 0.985 . S
C426 C420 1.379 . S
C426 C423 1.363 . S
C426 N424 1.356 . S
C427 C421 1.363 . S
C427 C422 1.379 . S
C427 N425 1.356 . S
N428 C420 1.356 . S
N428 H434 0.984 . S
N428 H435 0.984 . S
N429 C422 1.356 . S
N429 H432 0.984 . S
N429 H433 0.985 . S
H430 N425 0.984 . S
H431 N425 0.985 . S
H432 N429 0.984 . S
H433 N429 0.985 . S
H434 N428 0.984 . S
H435 N428 0.984 . S
H436 N424 0.984 . S
H437 N424 0.985 . S
C438 C439 1.363 . S
C438 C444 1.379 . S
C438 N446 1.356 . S
C439 C438 1.363 . S
C439 C445 1.363 . S
C440 C441 1.363 . S
C440 C445 1.379 . S
C440 N447 1.356 . S
C441 C440 1.363 . S
C441 C444 1.363 . S
N442 C444 1.356 . S
N442 H454 0.984 . S
N442 H455 0.985 . S
N443 C445 1.356 . S
N443 H448 0.984 . S
N443 H449 0.985 1_655 S
C444 C438 1.379 . S
C444 C441 1.363 . S
C444 N442 1.356 . S
C445 C439 1.363 . S
C445 C440 1.379 . S
C445 N443 1.356 . S
N446 C438 1.356 . S
N446 H452 0.984 . S
N446 H453 0.984 . S
N447 C440 1.356 . S
N447 H450 0.984 . S
N447 H451 0.985 1_655 S
H448 N443 0.984 . S
H449 N443 0.985 1_455 S
H450 N447 0.984 . S
H451 N447 0.985 1_455 S
H452 N446 0.984 . S
H453 N446 0.984 . S
H454 N442 0.984 . S
H455 N442 0.985 . S
C456 C457 1.363 . S
C456 C462 1.379 . S
C456 N464 1.356 . S
C457 C456 1.363 . S
C457 C463 1.363 . S
C458 C459 1.363 . S
C458 C463 1.379 . S
C458 N465 1.356 1_565 S
C459 C458 1.363 . S
C459 C462 1.363 . S
N460 C462 1.356 . S
N460 H472 0.984 . S
N460 H473 0.985 . S
N461 C463 1.356 1_545 S
N461 H466 0.984 . S
N461 H467 0.985 . S
C462 C456 1.379 . S
C462 C459 1.363 . S
C462 N460 1.356 . S
C463 C457 1.363 . S
C463 C458 1.379 . S
C463 N461 1.356 1_565 S
N464 C456 1.356 . S
N464 H470 0.984 . S
N464 H471 0.984 . S
N465 C458 1.356 1_545 S
N465 H468 0.984 . S
N465 H469 0.985 . S
H466 N461 0.984 . S
H467 N461 0.985 . S
H468 N465 0.984 . S
H469 N465 0.985 . S
H470 N464 0.984 . S
H471 N464 0.984 . S
H472 N460 0.984 . S
H473 N460 0.985 . S
C474 C475 1.363 . S
C474 C480 1.379 . S
C474 N482 1.356 . S
C475 C474 1.363 . S
C475 C481 1.363 . S
C476 C477 1.363 . S
C476 C481 1.379 . S
C476 N483 1.356 . S
C477 C476 1.363 . S
C477 C480 1.363 . S
N478 C480 1.356 . S
N478 H490 0.984 . S
N478 H491 0.985 . S
N479 C481 1.356 . S
N479 H484 0.984 . S
N479 H485 0.985 . S
C480 C474 1.379 . S
C480 C477 1.363 . S
C480 N478 1.356 . S
C481 C475 1.363 . S
C481 C476 1.379 . S
C481 N479 1.356 . S
N482 C474 1.356 . S
N482 H488 0.984 . S
N482 H489 0.984 . S
N483 C476 1.356 . S
N483 H486 0.984 . S
N483 H487 0.985 . S
H484 N479 0.984 . S
H485 N479 0.985 . S
H486 N483 0.984 . S
H487 N483 0.985 . S
H488 N482 0.984 . S
H489 N482 0.984 . S
H490 N478 0.984 . S
H491 N478 0.985 . S
C492 C493 1.363 . S
C492 C498 1.379 . S
C492 N500 1.356 . S
C493 C492 1.363 . S
C493 C499 1.363 . S
C494 C495 1.363 . S
C494 C499 1.379 . S
C494 N501 1.356 . S
C495 C494 1.363 . S
C495 C498 1.363 . S
N496 C498 1.356 . S
N496 H508 0.984 . S
N496 H509 0.985 . S
N497 C499 1.356 . S
N497 H502 0.984 . S
N497 H503 0.985 . S
C498 C492 1.379 . S
C498 C495 1.363 . S
C498 N496 1.356 . S
C499 C493 1.363 . S
C499 C494 1.379 . S
C499 N497 1.356 . S
N500 C492 1.356 . S
N500 H506 0.984 . S
N500 H507 0.984 . S
N501 C494 1.356 . S
N501 H504 0.984 . S
N501 H505 0.985 . S
H502 N497 0.984 . S
H503 N497 0.985 . S
H504 N501 0.984 . S
H505 N501 0.985 . S
H506 N500 0.984 . S
H507 N500 0.984 . S
H508 N496 0.984 . S
H509 N496 0.985 . S
C510 C511 1.363 . S
C510 C516 1.379 . S
C510 N518 1.356 . S
C511 C510 1.363 . S
C511 C517 1.363 . S
C512 C513 1.363 . S
C512 C517 1.379 . S
C512 N519 1.356 . S
C513 C512 1.363 . S
C513 C516 1.363 . S
N514 C516 1.356 . S
N514 H526 0.984 . S
N514 H527 0.985 . S
N515 C517 1.356 . S
N515 H520 0.984 . S
N515 H521 0.985 . S
C516 C510 1.379 . S
C516 C513 1.363 . S
C516 N514 1.356 . S
C517 C511 1.363 . S
C517 C512 1.379 . S
C517 N515 1.356 . S
N518 C510 1.356 . S
N518 H524 0.984 . S
N518 H525 0.984 . S
N519 C512 1.356 . S
N519 H522 0.984 . S
N519 H523 0.985 . S
H520 N515 0.984 . S
H521 N515 0.985 . S
H522 N519 0.984 . S
H523 N519 0.985 . S
H524 N518 0.984 . S
H525 N518 0.984 . S
H526 N514 0.984 . S
H527 N514 0.985 . S
C528 C529 1.363 . S
C528 C534 1.379 . S
C528 N536 1.356 . S
C529 C528 1.363 . S
C529 C535 1.363 . S
C530 C531 1.363 . S
C530 C535 1.379 . S
C530 N537 1.356 . S
C531 C530 1.363 . S
C531 C534 1.363 . S
N532 C534 1.356 . S
N532 H544 0.984 . S
N532 H545 0.985 . S
N533 C535 1.356 . S
N533 H538 0.984 . S
N533 H539 0.985 . S
C534 C528 1.379 . S
C534 C531 1.363 . S
C534 N532 1.356 . S
C535 C529 1.363 . S
C535 C530 1.379 . S
C535 N533 1.356 . S
N536 C528 1.356 . S
N536 H542 0.984 . S
N536 H543 0.984 . S
N537 C530 1.356 . S
N537 H540 0.984 . S
N537 H541 0.985 . S
H538 N533 0.984 . S
H539 N533 0.985 . S
H540 N537 0.984 . S
H541 N537 0.985 . S
H542 N536 0.984 . S
H543 N536 0.984 . S
H544 N532 0.984 . S
H545 N532 0.985 . S
C546 C547 1.363 . S
C546 C552 1.379 . S
C546 N554 1.356 . S
C547 C546 1.363 . S
C547 C553 1.363 . S
C548 C549 1.363 . S
C548 C553 1.379 . S
C548 N555 1.356 . S
C549 C548 1.363 . S
C549 C552 1.363 . S
N550 C552 1.356 . S
N550 H562 0.984 . S
N550 H563 0.985 . S
N551 C553 1.356 . S
N551 H556 0.984 . S
N551 H557 0.985 . S
C552 C546 1.379 . S
C552 C549 1.363 . S
C552 N550 1.356 . S
C553 C547 1.363 . S
C553 C548 1.379 . S
C553 N551 1.356 . S
N554 C546 1.356 . S
N554 H560 0.984 . S
N554 H561 0.984 . S
N555 C548 1.356 . S
N555 H558 0.984 . S
N555 H559 0.985 . S
H556 N551 0.984 . S
H557 N551 0.985 . S
H558 N555 0.984 . S
H559 N555 0.985 . S
H560 N554 0.984 . S
H561 N554 0.984 . S
H562 N550 0.984 . S
H563 N550 0.985 . S
C564 C565 1.363 . S
C564 C570 1.379 . S
C564 N572 1.356 . S
C565 C564 1.363 . S
C565 C571 1.363 . S
C566 C567 1.363 . S
C566 C571 1.379 . S
C566 N573 1.356 . S
C567 C566 1.363 . S
C567 C570 1.363 . S
N568 C570 1.356 . S
N568 H580 0.984 . S
N568 H581 0.985 . S
N569 C571 1.356 . S
N569 H574 0.984 . S
N569 H575 0.985 . S
C570 C564 1.379 . S
C570 C567 1.363 . S
C570 N568 1.356 . S
C571 C565 1.363 . S
C571 C566 1.379 . S
C571 N569 1.356 . S
N572 C564 1.356 . S
N572 H578 0.984 . S
N572 H579 0.984 . S
N573 C566 1.356 . S
N573 H576 0.984 . S
N573 H577 0.985 . S
H574 N569 0.984 . S
H575 N569 0.985 . S
H576 N573 0.984 . S
H577 N573 0.985 . S
H578 N572 0.984 . S
H579 N572 0.984 . S
H580 N568 0.984 . S
H581 N568 0.985 . S
C582 C583 1.363 . S
C582 C588 1.379 . S
C582 N590 1.356 . S
C583 C582 1.363 . S
C583 C589 1.363 . S
C584 C585 1.363 . S
C584 C589 1.379 . S
C584 N591 1.356 . S
C585 C584 1.363 . S
C585 C588 1.363 . S
N586 C588 1.356 . S
N586 H598 0.984 . S
N586 H599 0.985 . S
N587 C589 1.356 . S
N587 H592 0.984 . S
N587 H593 0.985 . S
C588 C582 1.379 . S
C588 C585 1.363 . S
C588 N586 1.356 . S
C589 C583 1.363 . S
C589 C584 1.379 . S
C589 N587 1.356 . S
N590 C582 1.356 . S
N590 H596 0.984 . S
N590 H597 0.984 . S
N591 C584 1.356 . S
N591 H594 0.984 . S
N591 H595 0.985 . S
H592 N587 0.984 . S
H593 N587 0.985 . S
H594 N591 0.984 . S
H595 N591 0.985 . S
H596 N590 0.984 . S
H597 N590 0.984 . S
H598 N586 0.984 . S
H599 N586 0.985 . S
C169 C8 1.828 . S
C171 C162 1.828 . S
C187 C92 1.828 . S
C189 C22 1.828 . S
C205 C36 1.828 . S
C207 C106 1.828 . S
C223 C120 1.828 . S
C225 C50 1.828 . S
C241 C134 1.828 . S
C243 C64 1.828 . S
C259 C148 1.828 . S
C261 C78 1.828 . S
C277 C49 1.105 . S
C279 C119 1.105 . S
C295 C63 1.105 . S
C297 C133 1.105 . S
C313 C77 1.105 . S
C315 C147 1.105 . S
C331 C161 1.105 . S
C333 C7 1.105 . S
C349 C21 1.105 . S
C351 C91 1.105 . S
C367 C35 1.105 . S
C369 C105 1.105 . S
C385 C121 1.729 . S
C387 C9 1.729 . S
C403 C135 1.729 . S
C405 C23 1.729 . S
C421 C37 1.729 . S
C423 C149 1.729 . S
C439 C51 1.729 . S
C441 C163 1.729 . S
C457 C65 1.729 . S
C459 C93 1.729 . S
C475 C107 1.729 . S
C477 C79 1.729 . S
C493 C6 1.710 . S
C495 C146 1.710 . S
C511 C160 1.710 . S
C513 C20 1.710 . S
C529 C34 1.710 . S
C531 C90 1.710 . S
C547 C48 1.710 . S
C549 C104 1.710 . S
C565 C62 1.710 . S
C567 C118 1.710 . S
C583 C76 1.710 . S
C585 C132 1.710 . S
