# Generated by pormake.
# Topology snp, (6)-cn, num edge types: 1
# Building blocks:
#     Node 0, Type 0, BuildingBlock: CIFDUS_clean_sbu_1, # of connection points: 6
#     Node 1, Type 0, BuildingBlock: CIFDUS_clean_sbu_1, # of connection points: 6
#     Node 2, Type 0, BuildingBlock: CIFDUS_clean_sbu_1, # of connection points: 6
#     Node 3, Type 0, BuildingBlock: CIFDUS_clean_sbu_1, # of connection points: 6
#     Edge 4, Type (0, 0), BuildingBlock: ZUJKAS_clean_linker_0, # of connection points: 2
#     Edge 5, Type (0, 0), BuildingBlock: ZUJKAS_clean_linker_0, # of connection points: 2
#     Edge 6, Type (0, 0), BuildingBlock: ZUJKAS_clean_linker_0, # of connection points: 2
#     Edge 7, Type (0, 0), BuildingBlock: ZUJKAS_clean_linker_0, # of connection points: 2
#     Edge 8, Type (0, 0), BuildingBlock: ZUJKAS_clean_linker_0, # of connection points: 2
#     Edge 9, Type (0, 0), BuildingBlock: ZUJKAS_clean_linker_0, # of connection points: 2
#     Edge 10, Type (0, 0), BuildingBlock: ZUJKAS_clean_linker_0, # of connection points: 2
#     Edge 11, Type (0, 0), BuildingBlock: ZUJKAS_clean_linker_0, # of connection points: 2
#     Edge 12, Type (0, 0), BuildingBlock: ZUJKAS_clean_linker_0, # of connection points: 2
#     Edge 13, Type (0, 0), BuildingBlock: ZUJKAS_clean_linker_0, # of connection points: 2
#     Edge 14, Type (0, 0), BuildingBlock: ZUJKAS_clean_linker_0, # of connection points: 2
#     Edge 15, Type (0, 0), BuildingBlock: ZUJKAS_clean_linker_0, # of connection points: 2
# Relax obj value: 0.543
# Max RMSD: 0.250
# Mean RMSD: 0.249
data_MOF--net-snp--node1-CIFDUS_clean_sbu_1--edge1-ZUJKAS_clean_linker_0
_symmetry_space_group_name_H-M    P1
_symmetry_Int_Tables_number       1
_symmetry_cell_setting            triclinic
loop_
_symmetry_equiv_pos_as_xyz
'x, y, z'
_cell_length_a     36.993444
_cell_length_b     37.006905
_cell_length_c     31.181566
_cell_angle_alpha  98.440367
_cell_angle_beta   98.456721
_cell_angle_gamma 92.701739
loop_
_atom_site_label
_atom_site_type_symbol
_atom_site_fract_x
_atom_site_fract_y
_atom_site_fract_z
_atom_type_partial_charge
O0 O 0.15722 -0.01916 0.09269 0.0
Mn1 Mn 0.21065 -0.01491 0.08942 0.0
O2 O 0.14283 0.03914 0.10469 0.0
Mn3 Mn 0.18558 0.05901 0.08927 0.0
O4 O 0.26733 -0.00951 0.08602 0.0
O5 O 0.21344 0.94112 0.1262 0.0
Mn6 Mn 0.24217 0.91406 0.09457 0.0
O7 O 0.19982 0.95056 0.02877 0.0
O8 O 0.28782 0.93646 0.09762 0.0
O9 O 0.21751 0.01969 0.15188 0.0
O10 O 0.22121 0.07531 0.13613 0.0
O11 O 0.2357 0.88773 0.13684 0.0
O12 O 0.219 0.89584 0.03844 0.0
C13 C 0.19607 0.05264 0.02504 0.0
C14 C 0.13595 0.00496 0.10451 0.0
C15 C 0.29337 -0.0312 0.09004 0.0
C16 C 0.21523 0.91353 0.14923 0.0
C17 C 0.20303 0.91685 0.01429 0.0
C18 C 0.22195 0.05451 0.16469 0.0
O19 O 0.20174 0.02643 0.04959 0.0
O20 O 0.18422 0.08269 0.04307 0.0
O21 O -0.00959 0.15522 0.59189 0.0
Mn22 Mn -0.0165 0.20793 0.58796 0.0
O23 O 0.93327 0.13006 0.58614 0.0
Mn24 Mn 0.90902 0.16916 0.56693 0.0
O25 O -0.0241 0.26358 0.58458 0.0
O26 O 0.03126 0.21841 0.63338 0.0
Mn27 Mn 0.05562 0.25218 0.6107 0.0
O28 O 0.01333 0.20238 0.53471 0.0
O29 O 0.03034 0.29374 0.61141 0.0
O30 O 0.95302 0.20855 0.64265 0.0
O31 O 0.89515 0.20065 0.61108 0.0
O32 O 0.08541 0.24646 0.66026 0.0
O33 O 0.06827 0.23225 0.55706 0.0
C34 C 0.91135 0.18613 0.50648 0.0
C35 C -0.03203 0.1296 0.59634 0.0
C36 C -0.00357 0.29344 0.59682 0.0
C37 C 0.06026 0.22208 0.66412 0.0
C38 C 0.0457 0.21168 0.52798 0.0
C39 C 0.91839 0.20618 0.64563 0.0
O40 O 0.93825 0.19382 0.53964 0.0
O41 O 0.88305 0.16682 0.51292 0.0
O42 O 0.74821 0.94211 0.06778 0.0
Mn43 Mn 0.73998 -0.02932 0.01326 0.0
O44 O 0.72279 0.88482 0.04596 0.0
Mn45 Mn 0.70044 0.89386 0.99138 0.0
O46 O 0.73622 -0.00088 0.95693 0.0
O47 O 0.75202 0.01748 0.05868 0.0
Mn48 Mn 0.77039 0.04973 0.02963 0.0
O49 O 0.7931 -0.03087 0.00848 0.0
O50 O 0.733 0.05602 0.98651 0.0
O51 O 0.68388 -0.02646 0.01688 0.0
O52 O 0.65724 0.91703 0.99173 0.0
O53 O 0.77243 0.07412 0.08521 0.0
O54 O 0.81033 0.02813 0.00776 0.0
C55 C 0.73373 0.89467 0.94027 0.0
C56 C 0.74139 0.90921 0.0749 0.0
C57 C 0.73421 0.03323 0.95259 0.0
C58 C 0.75866 0.0433 0.09273 0.0
C59 C 0.81445 -0.00621 0.99909 0.0
C60 C 0.65539 0.95082 0.00637 0.0
O61 O 0.73171 0.92235 0.9708 0.0
O62 O 0.71209 0.86651 0.94173 0.0
O63 O -0.03306 0.79275 0.50983 0.0
Mn64 Mn 0.96411 0.7387 0.51084 0.0
O65 O 0.90873 0.80897 0.50596 0.0
Mn66 Mn 0.88667 0.76898 0.52524 0.0
O67 O 0.95875 0.68209 0.51145 0.0
O68 O 0.00715 0.7374 0.47208 0.0
Mn69 Mn 0.03369 0.70654 0.50191 0.0
O70 O 0.00062 0.74747 0.57022 0.0
O71 O 0.0115 0.66035 0.49712 0.0
O72 O 0.92577 0.73433 0.452 0.0
O73 O 0.87004 0.74034 0.47151 0.0
O74 O 0.05978 0.71337 0.45998 0.0
O75 O 0.05429 0.72761 0.55828 0.0
C76 C 0.92716 0.74053 0.59298 0.0
C77 C 0.94189 0.81377 0.49957 0.0
C78 C -0.02089 0.6555 0.50455 0.0
C79 C 0.03483 0.73521 0.44902 0.0
C80 C 0.03421 0.74324 0.58389 0.0
C81 C 0.89074 0.73622 0.44209 0.0
O82 O 0.92364 0.7445 0.55181 0.0
O83 O 0.92343 0.74454 0.55333 0.0
H84 H 0.82949 0.9232 0.97434 0.0
H85 H 0.89103 0.90434 0.97655 0.0
H86 H 0.93121 0.01552 0.97695 0.0
H87 H 0.86912 0.03527 0.97472 0.0
H88 H -0.02426 0.9262 0.97194 0.0
H89 H 0.9104 -0.00437 0.1098 0.0
H90 H 0.88206 -0.02788 0.06118 0.0
H91 H 0.90812 0.01432 0.05993 0.0
C92 C 0.85101 0.94356 0.97257 0.0
C93 C 0.84571 -0.01872 0.97907 0.0
C94 C 0.88616 0.93244 0.97269 0.0
C95 C 0.91511 0.95926 0.98062 0.0
C96 C 0.90863 -0.00504 0.97303 0.0
H97 H 0.07841 0.0442 0.1238 0.0
H98 H 0.01687 0.01762 0.11956 0.0
C99 C 0.87333 0.00635 0.97286 0.0
C100 C 0.94394 0.95497 0.01612 0.0
H101 H 0.96534 -0.02871 0.12751 0.0
C102 C -0.02604 0.9362 0.00602 0.0
C103 C 0.9399 0.96685 0.06048 0.0
C104 C 0.90841 -0.01169 0.07362 0.0
C105 C 0.00269 0.93251 0.03907 0.0
C106 C -0.00018 0.94688 0.08342 0.0
C107 C -0.03284 0.96056 0.09361 0.0
C108 C 0.03261 0.96133 0.1145 0.0
C109 C 0.03676 0.91652 0.02506 0.0
C110 C 0.06172 0.93931 0.12114 0.0
C111 C 0.09655 0.95415 0.12012 0.0
C112 C 0.10225 -0.00833 0.11751 0.0
C113 C 0.07427 0.01498 0.12352 0.0
C114 C 0.03918 -0.00027 0.12222 0.0
H115 H 0.033 0.90574 0.98938 0.0
H116 H 0.05983 0.93786 0.03207 0.0
H117 H 0.04433 0.89352 0.04292 0.0
H118 H 0.057 0.90988 0.11822 0.0
H119 H 0.11785 0.93539 0.11635 0.0
H120 H 0.01079 0.83517 0.48834 0.0
H121 H 0.03157 0.89776 0.48931 0.0
H122 H 0.92001 0.92782 0.46982 0.0
H123 H 0.89814 0.86407 0.4663 0.0
H124 H 0.01356 -0.02117 0.47986 0.0
H125 H 0.95532 0.91432 0.60825 0.0
H126 H -0.02943 0.88466 0.56481 0.0
H127 H 0.93082 0.91036 0.55387 0.0
C128 C -0.00964 0.85447 0.48158 0.0
C129 C 0.9529 0.84592 0.48148 0.0
C130 C 0.00241 0.89026 0.4811 0.0
C131 C -0.02288 0.917 0.48364 0.0
C132 C 0.93972 0.90708 0.47024 0.0
H133 H 0.9311 0.07281 0.62083 0.0
H134 H 0.95528 0.01457 0.62813 0.0
C135 C 0.92732 0.8709 0.46958 0.0
C136 C -0.01228 0.94674 0.51997 0.0
H137 H -0.00434 0.96451 0.6313 0.0
C138 C 0.00888 -0.02334 0.51297 0.0
C139 C -0.01708 0.94196 0.56319 0.0
C140 C 0.95864 0.91117 0.57308 0.0
C141 C 0.0227 0.00431 0.54772 0.0
C142 C 0.01631 0.00043 0.59105 0.0
C143 C 3e-05 -0.03249 0.59828 0.0
C144 C 0.01129 0.0326 0.6229 0.0
C145 C 0.04154 0.03791 0.53618 0.0
C146 C 0.03586 0.06336 0.62932 0.0
C147 C 0.02177 0.09662 0.62293 0.0
C148 C -0.01653 0.09887 0.61479 0.0
C149 C 0.96042 0.0707 0.62318 0.0
C150 C -0.02533 0.03757 0.62871 0.0
H151 H 0.04705 0.03376 0.50177 0.0
H152 H 0.02387 0.06121 0.53956 0.0
H153 H 0.06826 0.04517 0.55771 0.0
H154 H 0.06491 0.06047 0.63002 0.0
H155 H 0.04061 0.11901 0.61972 0.0
H156 H 0.63288 0.02117 0.01929 0.0
H157 H 0.57266 0.03963 0.03588 0.0
H158 H 0.53621 0.92632 0.02911 0.0
H159 H 0.59534 0.90765 0.01226 0.0
H160 H 0.49525 0.00788 0.98178 0.0
H161 H 0.52352 -0.01517 0.15529 0.0
H162 H 0.55967 -0.00667 0.12403 0.0
H163 H 0.5355 0.94898 0.11546 0.0
C164 C 0.61193 0.00025 0.02113 0.0
C165 C 0.61896 0.96296 0.01435 0.0
C166 C 0.57762 0.01083 0.03053 0.0
C167 C 0.55025 -0.01571 0.03397 0.0
C168 C 0.55708 0.94718 0.02674 0.0
H169 H 0.34464 0.92211 0.07032 0.0
H170 H 0.40627 0.93574 0.05745 0.0
C171 C 0.59094 0.93661 0.0169 0.0
C172 C 0.5144 -0.00543 0.04575 0.0
H173 H 0.46073 -0.0128 0.12453 0.0
C174 C 0.48784 0.00457 0.01343 0.0
C175 C 0.50488 -0.01032 0.08688 0.0
C176 C 0.53243 -0.02114 0.12262 0.0
C177 C 0.45127 0.00747 0.02033 0.0
C178 C 0.44144 0.00079 0.06071 0.0
C179 C 0.46852 -0.00708 0.09386 0.0
C180 C 0.40274 -0.00562 0.06621 0.0
C181 C 0.42274 0.01461 0.98335 0.0
C182 C 0.37995 0.02306 0.07499 0.0
C183 C 0.34397 0.01537 0.08253 0.0
C184 C 0.33078 -0.02104 0.08181 0.0
C185 C 0.35385 0.9506 0.07214 0.0
C186 C 0.38921 0.95823 0.06445 0.0
H187 H 0.43499 0.02065 0.9545 0.0
H188 H 0.403 -0.00975 0.97291 0.0
H189 H 0.40711 0.03806 0.99481 0.0
H190 H 0.39014 0.05122 0.07659 0.0
H191 H 0.32683 0.03774 0.08957 0.0
H192 H 0.0165 0.35804 0.64967 0.0
H193 H 0.00456 0.41913 0.63292 0.0
H194 H 0.93486 0.37142 0.51266 0.0
H195 H 0.94628 0.30983 0.52981 0.0
H196 H 0.02458 0.44335 0.55965 0.0
H197 H 0.87563 0.45404 0.56287 0.0
H198 H 0.90137 0.42028 0.58798 0.0
H199 H 0.88736 0.41372 0.52956 0.0
C200 C -0.00221 0.36057 0.62024 0.0
C201 C -0.01783 0.32926 0.59107 0.0
C202 C -0.00885 0.39547 0.61062 0.0
C203 C -0.03119 0.39983 0.5716 0.0
C204 C 0.95169 0.36865 0.54333 0.0
H205 H 0.94362 0.59694 0.44792 0.0
H206 H 0.93861 0.53331 0.46262 0.0
C207 C 0.9581 0.33352 0.55319 0.0
C208 C -0.0337 0.43685 0.55913 0.0
H209 H 0.90689 0.5022 0.53761 0.0
C210 C -0.00117 0.45618 0.55479 0.0
C211 C 0.9327 0.4535 0.55279 0.0
C212 C 0.89726 0.43453 0.55886 0.0
C213 C -0.00135 0.49178 0.54444 0.0
C214 C 0.96509 0.50849 0.53848 0.0
C215 C 0.93248 0.48907 0.54205 0.0
C216 C 0.96387 0.54684 0.53063 0.0
C217 C 0.03436 0.51138 0.54013 0.0
C218 C -0.02145 0.57526 0.56442 0.0
C219 C -0.01915 0.61127 0.55626 0.0
C220 C -0.03155 0.61935 0.51426 0.0
C221 C 0.95253 0.5912 0.48076 0.0
C222 C 0.94994 0.55504 0.48905 0.0
H223 H 0.05636 0.49223 0.53658 0.0
H224 H 0.03086 0.52615 0.51142 0.0
H225 H 0.04341 0.53192 0.56997 0.0
H226 H -0.01063 0.56938 0.5967 0.0
H227 H -0.00603 0.63262 0.58221 0.0
H228 H 0.06827 0.24671 0.46388 0.0
H229 H 0.09623 0.21986 0.40076 0.0
H230 H 0.08484 0.11344 0.44016 0.0
H231 H 0.05497 0.13997 0.50136 0.0
H232 H 0.15785 0.18898 0.39939 0.0
H233 H 0.05036 0.08374 0.31325 0.0
H234 H 0.04174 0.11912 0.35611 0.0
H235 H 0.06303 0.07856 0.36958 0.0
C236 C 0.07094 0.21744 0.45825 0.0
C237 C 0.05881 0.1953 0.48703 0.0
C238 C 0.08713 0.20206 0.4223 0.0
C239 C 0.09229 0.16427 0.41474 0.0
C240 C 0.08014 0.14229 0.44379 0.0
H241 H 0.20101 0.01953 0.23098 0.0
H242 H 0.17174 0.04656 0.29275 0.0
C243 C 0.06317 0.15752 0.47905 0.0
C244 C 0.11263 0.1484 0.37867 0.0
H245 H 0.10985 0.07808 0.29309 0.0
C246 C 0.14714 0.16485 0.37602 0.0
C247 C 0.09903 0.11681 0.34783 0.0
C248 C 0.06136 0.09877 0.34649 0.0
C249 C 0.1687 0.15024 0.34476 0.0
C250 C 0.15534 0.11835 0.31425 0.0
C251 C 0.12062 0.10212 0.31658 0.0
C252 C 0.17621 0.10212 0.27886 0.0
C253 C 0.20612 0.16883 0.34589 0.0
C254 C 0.1892 0.12401 0.25041 0.0
C255 C 0.20709 0.10885 0.21613 0.0
C256 C 0.21155 0.07087 0.20783 0.0
C257 C 0.19895 0.04889 0.23662 0.0
C258 C 0.18164 0.06434 0.2717 0.0
H259 H 0.21715 0.18378 0.37916 0.0
H260 H 0.226 0.14891 0.33596 0.0
H261 H 0.20392 0.18927 0.32308 0.0
H262 H 0.18439 0.15283 0.25361 0.0
H263 H 0.21557 0.12687 0.19449 0.0
H264 H 0.95582 0.18515 0.72181 0.0
H265 H 0.92823 0.15551 0.77654 0.0
H266 H 0.82048 0.17181 0.71205 0.0
H267 H 0.84718 0.20204 0.65888 0.0
H268 H 0.84196 0.18953 0.81759 0.0
H269 H 0.85932 0.04918 0.73427 0.0
H270 H 0.89329 0.08635 0.73624 0.0
H271 H 0.84968 0.08551 0.70231 0.0
C272 C 0.92633 0.18353 0.72012 0.0
C273 C 0.90405 0.19658 0.68574 0.0
C274 C 0.9105 0.166 0.75108 0.0
C275 C 0.87209 0.16085 0.74816 0.0
C276 C 0.85005 0.17525 0.71519 0.0
H277 H 0.72157 0.01961 0.8603 0.0
H278 H 0.75465 0.04988 0.81016 0.0
C279 C 0.86564 0.19291 0.6848 0.0
C280 C 0.85416 0.14021 0.7785 0.0
H281 H 0.82475 0.05387 0.79236 0.0
C282 C 0.83861 0.15986 0.81241 0.0
C283 C 0.84874 0.10148 0.77115 0.0
C284 C 0.86355 0.07908 0.73409 0.0
C285 C 0.81809 0.14209 0.83908 0.0
C286 C 0.81309 0.10315 0.83234 0.0
C287 C 0.82842 0.08351 0.79802 0.0
C288 C 0.79337 0.08273 0.86175 0.0
C289 C 0.80102 0.16562 0.87341 0.0
C290 C 0.80426 0.08998 0.90734 0.0
C291 C 0.78476 0.07385 0.93561 0.0
C292 C 0.7545 0.04819 0.9197 0.0
C293 C 0.7446 0.03911 0.87388 0.0
C294 C 0.76365 0.05644 0.84521 0.0
H295 H 0.79687 0.19339 0.86484 0.0
H296 H 0.77419 0.15303 0.87764 0.0
H297 H 0.81964 0.16905 0.90527 0.0
H298 H 0.82775 0.10876 0.92142 0.0
H299 H 0.79352 0.08198 0.9705 0.0
H300 H 0.81881 0.74433 0.41089 0.0
H301 H 0.79491 0.77487 0.34956 0.0
H302 H 0.90241 0.78274 0.31289 0.0
H303 H 0.92714 0.75289 0.37523 0.0
H304 H 0.83078 0.85203 0.33629 0.0
H305 H 0.81965 0.73601 0.19833 0.0
H306 H 0.8162 0.72893 0.25374 0.0
H307 H 0.85983 0.74174 0.23991 0.0
C308 C 0.83747 0.75169 0.38937 0.0
C309 C 0.87509 0.74563 0.39824 0.0
C310 C 0.82366 0.76956 0.35441 0.0
C311 C 0.84681 0.7814 0.32673 0.0
C312 C 0.88397 0.77387 0.33384 0.0
H313 H 0.81094 0.89014 0.09554 0.0
H314 H 0.83658 0.86118 0.15828 0.0
C315 C 0.898 0.7563 0.36926 0.0
C316 C 0.83209 0.80234 0.29117 0.0
H317 H 0.80396 0.79355 0.18034 0.0
C318 C 0.82492 0.83928 0.30217 0.0
C319 C 0.82419 0.78572 0.24674 0.0
C320 C 0.83011 0.74587 0.23356 0.0
C321 C 0.81062 0.86004 0.2698 0.0
C322 C 0.80287 0.84342 0.22522 0.0
C323 C 0.80997 0.80644 0.21438 0.0
C324 C 0.78792 0.86391 0.18916 0.0
C325 C 0.8045 0.89983 0.2833 0.0
C326 C 0.75202 0.87548 0.18554 0.0
C327 C 0.73722 0.89179 0.14936 0.0
C328 C 0.75826 0.89748 0.11653 0.0
C329 C 0.7944 0.88681 0.12081 0.0
C330 C 0.80897 0.87002 0.15652 0.0
H331 H 0.81793 0.91033 0.31742 0.0
H332 H 0.81512 0.91684 0.26074 0.0
H333 H 0.77466 0.90309 0.28132 0.0
H334 H 0.73499 0.87073 0.20987 0.0
H335 H 0.70905 0.89911 0.14646 0.0
H336 H -0.00065 0.77717 0.64917 0.0
H337 H 0.02701 0.80567 0.72338 0.0
H338 H 0.13237 0.77058 0.69819 0.0
H339 H 0.10517 0.74208 0.62399 0.0
H340 H 0.07194 0.776 0.7953 0.0
H341 H 0.14557 0.88511 0.72982 0.0
H342 H 0.10708 0.85675 0.69774 0.0
H343 H 0.15149 0.83896 0.70579 0.0
C344 C 0.02839 0.77529 0.6594 0.0
C345 C 0.05015 0.75784 0.63018 0.0
C346 C 0.04409 0.79151 0.70192 0.0
C347 C 0.08183 0.79078 0.71593 0.0
C348 C 0.10328 0.77196 0.68769 0.0
H349 H 0.22854 0.86329 0.95912 0.0
H350 H 0.19864 0.83405 0.8859 0.0
C351 C 0.08764 0.75565 0.64527 0.0
C352 C 0.09925 0.81123 0.75913 0.0
H353 H 0.1602 0.88351 0.80614 0.0
C354 C 0.09111 0.79957 0.79771 0.0
C355 C 0.12402 0.84219 0.76215 0.0
C356 C 0.13244 0.85681 0.72175 0.0
C357 C 0.10792 0.81758 0.83925 0.0
C358 C 0.13317 0.84802 0.8421 0.0
C359 C 0.14089 0.86004 0.80365 0.0
C360 C 0.15215 0.86734 0.88497 0.0
C361 C 0.099 0.80401 0.88003 0.0
C362 C 0.13624 0.89632 0.90796 0.0
C363 C 0.15349 0.91343 0.94945 0.0
C364 C 0.18662 0.90139 0.96876 0.0
C365 C 0.20284 0.87286 0.94516 0.0
C366 C 0.18587 0.85618 0.90343 0.0
H367 H 0.07951 0.77933 0.87233 0.0
H368 H 0.12452 0.79734 0.89997 0.0
H369 H 0.08687 0.82598 0.90042 0.0
H370 H 0.11018 0.90522 0.89412 0.0
H371 H 0.14027 0.93515 0.96709 0.0
H372 H 0.74582 0.93197 0.87199 0.0
H373 H 0.78008 0.90986 0.81205 0.0
H374 H 0.81796 0.82279 0.88116 0.0
H375 H 0.78378 0.84441 0.94013 0.0
H376 H 0.85577 0.89225 0.80484 0.0
H377 H 0.76057 0.76757 0.765 0.0
H378 H 0.75133 0.80797 0.80062 0.0
H379 H 0.78271 0.77658 0.8211 0.0
C380 C 0.76251 0.90893 0.87499 0.0
C381 C 0.76227 0.89012 0.91103 0.0
C382 C 0.78182 0.896 0.84047 0.0
C383 C 0.80097 0.8639 0.84125 0.0
C384 C 0.80286 0.847 0.87893 0.0
H385 H 0.91748 0.71942 0.66952 0.0
H386 H 0.88643 0.74951 0.7279 0.0
C387 C 0.78362 0.85972 0.91303 0.0
C388 C 0.81708 0.84647 0.80213 0.0
H389 H 0.81256 0.76711 0.72842 0.0
C390 C 0.84601 0.86508 0.78784 0.0
C391 C 0.80476 0.81076 0.7798 0.0
C392 C 0.77293 0.7896 0.79205 0.0
C393 C 0.86334 0.84874 0.75294 0.0
C394 C 0.8511 0.81298 0.73075 0.0
C395 C 0.82205 0.79449 0.74497 0.0
C396 C 0.86873 0.79391 0.6937 0.0
C397 C 0.89564 0.86937 0.74113 0.0
C398 C 0.86874 0.80804 0.65407 0.0
C399 C 0.88618 0.79047 0.62014 0.0
C400 C 0.90403 0.75811 0.6249 0.0
C401 C 0.90355 0.7439 0.66433 0.0
C402 C 0.88588 0.76122 0.69796 0.0
H403 H 0.90669 0.89278 0.76703 0.0
H404 H 0.91792 0.85093 0.73572 0.0
H405 H 0.88699 0.88026 0.7102 0.0
H406 H 0.85547 0.83295 0.64946 0.0
H407 H 0.88675 0.80305 0.59106 0.0
H408 H 0.15678 0.95054 0.18141 0.0
H409 H 0.11617 0.92841 0.2303 0.0
H410 H 0.18617 0.84081 0.25064 0.0
H411 H 0.22447 0.86087 0.201 0.0
H412 H 0.07937 0.84771 0.2235 0.0
H413 H 0.17685 0.89464 0.37652 0.0
H414 H 0.17905 0.91369 0.32674 0.0
H415 H 0.19683 0.87004 0.33281 0.0
C416 C 0.16282 0.9261 0.19542 0.0
C417 C 0.19311 0.90677 0.18499 0.0
C418 C 0.13983 0.91357 0.22386 0.0
C419 C 0.14761 0.88236 0.24408 0.0
C420 C 0.17899 0.86459 0.23553 0.0
H421 H 0.09074 0.7291 0.4018 0.0
H422 H 0.1118 0.7683 0.354 0.0
C423 C 0.20111 0.87644 0.20678 0.0
C424 C 0.1243 0.86786 0.27481 0.0
H425 H 0.13006 0.84878 0.38001 0.0
C426 C 0.08996 0.84894 0.25803 0.0
C427 C 0.13815 0.86833 0.31983 0.0
C428 C 0.17463 0.88798 0.34027 0.0
C429 C 0.07018 0.82964 0.28447 0.0
C430 C 0.08455 0.82948 0.3292 0.0
C431 C 0.11837 0.84922 0.34611 0.0
C432 C 0.0682 0.80479 0.35715 0.0
C433 C 0.03509 0.80749 0.26385 0.0
C434 C 0.03561 0.81127 0.37509 0.0
C435 C 0.02298 0.7883 0.40353 0.0
C436 C 0.0428 0.7585 0.41481 0.0
C437 C 0.07446 0.75176 0.39505 0.0
C438 C 0.08691 0.7744 0.36728 0.0
H439 H 0.02811 0.8089 0.22827 0.0
H440 H 0.03753 0.77838 0.26815 0.0
H441 H 0.01227 0.81764 0.28069 0.0
H442 H 0.02037 0.83449 0.36789 0.0
H443 H -0.00175 0.79418 0.41711 0.0
H444 H 0.02024 0.16126 0.68356 0.0
H445 H 0.04153 0.12112 0.73795 0.0
H446 H 0.14095 0.19079 0.7789 0.0
H447 H 0.12071 0.2296 0.72572 0.0
H448 H 0.10993 0.08183 0.75041 0.0
H449 H 0.10288 0.18661 0.89418 0.0
H450 H 0.07967 0.19013 0.83998 0.0
H451 H 0.12773 0.20392 0.85543 0.0
C452 C 0.04665 0.16773 0.70403 0.0
C453 C 0.06881 0.19846 0.69925 0.0
C454 C 0.05885 0.14483 0.73525 0.0
C455 C 0.09301 0.15287 0.76301 0.0
C456 C 0.11446 0.18389 0.75855 0.0
H457 H 0.23551 0.09325 0.98058 0.0
H458 H 0.21127 0.11175 0.91054 0.0
C459 C 0.1026 0.20623 0.72764 0.0
C460 C 0.10717 0.13006 0.79733 0.0
H461 H 0.14186 0.13823 0.90669 0.0
C462 C 0.11628 0.09389 0.78473 0.0
C463 C 0.11598 0.14563 0.84227 0.0
C464 C 0.10574 0.18358 0.85888 0.0
C465 C 0.13509 0.07372 0.8154 0.0
C466 C 0.14494 0.08991 0.86004 0.0
C467 C 0.1349 0.12567 0.87258 0.0
C468 C 0.16549 0.07105 0.89499 0.0
C469 C 0.14559 0.0358 0.79951 0.0
C470 C 0.14975 0.04008 0.90866 0.0
C471 C 0.16415 0.02899 0.94889 0.0
C472 C 0.19451 0.04872 0.97643 0.0
C473 C 0.21261 0.07686 0.96001 0.0
C474 C 0.1983 0.08793 0.92006 0.0
H475 H 0.14337 0.03029 0.76318 0.0
H476 H 0.17405 0.0319 0.81431 0.0
H477 H 0.12704 0.01535 0.8097 0.0
H478 H 0.12433 0.02656 0.89045 0.0
H479 H 0.14885 0.0079 0.9608 0.0
H480 H 0.72008 0.07852 0.15111 0.0
H481 H 0.74813 0.1014 0.22672 0.0
H482 H 0.83155 0.02468 0.21539 0.0
H483 H 0.80346 0.00183 0.13941 0.0
H484 H 0.77892 0.08 0.30917 0.0
H485 H 0.88447 0.12645 0.21558 0.0
H486 H 0.83992 0.10636 0.18918 0.0
H487 H 0.87457 0.07775 0.20886 0.0
C488 C 0.743 0.06484 0.16562 0.0
C489 C 0.75976 0.03862 0.13913 0.0
C490 C 0.7594 0.07837 0.2088 0.0
C491 C 0.79285 0.06587 0.22614 0.0
C492 C 0.80624 0.03544 0.20227 0.0
H493 H 0.95497 0.15397 0.45089 0.0
H494 H 0.92757 0.12774 0.37573 0.0
C495 C 0.7897 0.02181 0.15903 0.0
C496 C 0.81642 0.0887 0.26454 0.0
H497 H 0.89523 0.14513 0.29221 0.0
C498 C 0.8044 0.09408 0.3055 0.0
C499 C 0.84948 0.10767 0.25969 0.0
C500 C 0.86287 0.10465 0.21594 0.0
C501 C 0.82485 0.11721 0.34179 0.0
C502 C 0.85787 0.13625 0.33686 0.0
C503 C 0.86992 0.13078 0.29597 0.0
C504 C 0.88069 0.16057 0.37462 0.0
C505 C 0.81121 0.12054 0.38544 0.0
C506 C 0.86596 0.19087 0.39676 0.0
C507 C 0.88206 0.20633 0.43941 0.0
C508 C 0.91274 0.19137 0.46074 0.0
C509 C 0.93125 0.16598 0.43546 0.0
C510 C 0.91513 0.15042 0.39266 0.0
H511 H 0.79071 0.09786 0.3864 0.0
H512 H 0.83422 0.12063 0.41272 0.0
H513 H 0.79795 0.14672 0.3912 0.0
H514 H 0.84004 0.20008 0.38295 0.0
H515 H 0.86721 0.22602 0.45797 0.0
loop_
_geom_bond_atom_site_label_1
_geom_bond_atom_site_label_2
_geom_bond_distance
_geom_bond_site_symmetry_2
_ccdc_geom_bond_type
O0 Mn1 2.163 . S
O0 C14 1.244 . S
Mn1 O0 2.163 . S
Mn1 O4 2.160 . S
Mn1 O5 2.221 1_545 S
Mn1 O7 2.163 1_545 S
Mn1 O9 2.160 . S
Mn1 O19 2.221 . S
O2 Mn3 2.087 . S
O2 C14 1.256 . S
Mn3 O2 2.087 . S
Mn3 O10 2.089 . S
Mn3 O19 2.290 . S
Mn3 O20 2.251 . S
O4 Mn1 2.160 . S
O4 C15 1.239 . S
O5 Mn1 2.221 1_565 S
O5 Mn6 2.290 . S
O5 C16 1.278 . S
Mn6 O5 2.290 . S
Mn6 O8 2.089 . S
Mn6 O11 2.251 . S
Mn6 O12 2.087 . S
O7 Mn1 2.163 1_565 S
O7 C17 1.244 1_554 S
O8 Mn6 2.089 . S
O8 C15 1.256 1_565 S
O9 Mn1 2.160 . S
O9 C18 1.239 . S
O10 Mn3 2.089 . S
O10 C18 1.256 . S
O11 Mn6 2.251 . S
O11 C16 1.241 . S
O12 Mn6 2.087 . S
O12 C17 1.256 1_554 S
C13 O19 1.278 . S
C13 O20 1.241 . S
C14 O0 1.244 . S
C14 O2 1.256 . S
C15 O4 1.239 . S
C15 O8 1.256 1_545 S
C16 O5 1.278 . S
C16 O11 1.241 . S
C17 O7 1.244 1_556 S
C17 O12 1.256 1_556 S
C18 O9 1.239 . S
C18 O10 1.256 . S
O19 Mn1 2.221 . S
O19 Mn3 2.290 . S
O19 C13 1.278 . S
O20 Mn3 2.251 . S
O20 C13 1.241 . S
O21 Mn22 2.163 . S
O21 C35 1.244 . S
Mn22 O21 2.163 . S
Mn22 O25 2.160 . S
Mn22 O26 2.221 . S
Mn22 O28 2.163 . S
Mn22 O30 2.160 1_455 S
Mn22 O40 2.221 1_455 S
O23 Mn24 2.087 . S
O23 C35 1.256 1_655 S
Mn24 O23 2.087 . S
Mn24 O31 2.089 . S
Mn24 O40 2.290 . S
Mn24 O41 2.251 . S
O25 Mn22 2.160 . S
O25 C36 1.239 . S
O26 Mn22 2.221 . S
O26 Mn27 2.290 . S
O26 C37 1.278 . S
Mn27 O26 2.290 . S
Mn27 O29 2.089 . S
Mn27 O32 2.251 . S
Mn27 O33 2.087 . S
O28 Mn22 2.163 . S
O28 C38 1.244 . S
O29 Mn27 2.089 . S
O29 C36 1.256 . S
O30 Mn22 2.160 1_655 S
O30 C39 1.239 . S
O31 Mn24 2.089 . S
O31 C39 1.256 . S
O32 Mn27 2.251 . S
O32 C37 1.241 . S
O33 Mn27 2.087 . S
O33 C38 1.256 . S
C34 O40 1.278 . S
C34 O41 1.241 . S
C35 O21 1.244 . S
C35 O23 1.256 1_455 S
C36 O25 1.239 . S
C36 O29 1.256 . S
C37 O26 1.278 . S
C37 O32 1.241 . S
C38 O28 1.244 . S
C38 O33 1.256 . S
C39 O30 1.239 . S
C39 O31 1.256 . S
O40 Mn22 2.221 1_655 S
O40 Mn24 2.290 . S
O40 C34 1.278 . S
O41 Mn24 2.251 . S
O41 C34 1.241 . S
O42 Mn43 2.163 1_565 S
O42 C56 1.244 . S
Mn43 O42 2.163 1_545 S
Mn43 O46 2.160 1_554 S
Mn43 O47 2.221 . S
Mn43 O49 2.163 1_545 S
Mn43 O51 2.160 . S
Mn43 O61 2.221 1_544 S
O44 Mn45 2.087 1_554 S
O44 C56 1.256 . S
Mn45 O44 2.087 1_556 S
Mn45 O52 2.089 1_556 S
Mn45 O61 2.290 . S
Mn45 O62 2.251 . S
O46 Mn43 2.160 1_556 S
O46 C57 1.239 . S
O47 Mn43 2.221 . S
O47 Mn48 2.290 . S
O47 C58 1.278 . S
Mn48 O47 2.290 . S
Mn48 O50 2.089 1_554 S
Mn48 O53 2.251 . S
Mn48 O54 2.087 . S
O49 Mn43 2.163 1_565 S
O49 C59 1.244 1_565 S
O50 Mn48 2.089 1_556 S
O50 C57 1.256 . S
O51 Mn43 2.160 . S
O51 C60 1.239 1_545 S
O52 Mn45 2.089 1_554 S
O52 C60 1.256 . S
O53 Mn48 2.251 . S
O53 C58 1.241 . S
O54 Mn48 2.087 . S
O54 C59 1.256 . S
C55 O61 1.278 . S
C55 O62 1.241 . S
C56 O42 1.244 . S
C56 O44 1.256 . S
C57 O46 1.239 . S
C57 O50 1.256 . S
C58 O47 1.278 . S
C58 O53 1.241 . S
C59 O49 1.244 1_545 S
C59 O54 1.256 . S
C60 O51 1.239 1_565 S
C60 O52 1.256 . S
O61 Mn43 2.221 1_566 S
O61 Mn45 2.290 . S
O61 C55 1.278 . S
O62 Mn45 2.251 . S
O62 C55 1.241 . S
O63 Mn64 2.163 1_455 S
O63 C77 1.244 1_455 S
Mn64 O63 2.163 1_655 S
Mn64 O67 2.160 . S
Mn64 O68 2.221 1_655 S
Mn64 O70 2.163 1_655 S
Mn64 O72 2.160 . S
Mn64 O82 2.221 . S
O65 Mn66 2.087 . S
O65 C77 1.256 . S
Mn66 O65 2.087 . S
Mn66 O73 2.089 . S
Mn66 O82 2.290 . S
Mn66 O83 2.251 . S
O67 Mn64 2.160 . S
O67 C78 1.239 1_655 S
O68 Mn64 2.221 1_455 S
O68 Mn69 2.290 . S
O68 C79 1.278 . S
Mn69 O68 2.290 . S
Mn69 O71 2.089 . S
Mn69 O74 2.251 . S
Mn69 O75 2.087 . S
O70 Mn64 2.163 1_455 S
O70 C80 1.244 . S
O71 Mn69 2.089 . S
O71 C78 1.256 . S
O72 Mn64 2.160 . S
O72 C81 1.239 . S
O73 Mn66 2.089 . S
O73 C81 1.256 . S
O74 Mn69 2.251 . S
O74 C79 1.241 . S
O75 Mn69 2.087 . S
O75 C80 1.256 . S
C76 O82 1.278 . S
C76 O83 1.241 . S
C77 O63 1.244 1_655 S
C77 O65 1.256 . S
C78 O67 1.239 1_455 S
C78 O71 1.256 . S
C79 O68 1.278 . S
C79 O74 1.241 . S
C80 O70 1.244 . S
C80 O75 1.256 . S
C81 O72 1.239 . S
C81 O73 1.256 . S
O82 Mn64 2.221 . S
O82 Mn66 2.290 . S
O82 C76 1.278 . S
O83 Mn66 2.251 . S
O83 C76 1.241 . S
H84 C92 0.929 . S
H85 C94 0.930 . S
H86 C96 0.930 . S
H87 C99 0.927 1_556 S
H88 C102 0.930 1_556 S
H89 C104 0.960 . S
H90 C104 0.960 . S
H91 C104 0.960 . S
C92 H84 0.929 . S
C92 C93 1.370 1_565 S
C92 C94 1.384 . S
C93 C92 1.370 1_545 S
C93 C99 1.399 . S
C94 H85 0.930 . S
C94 C92 1.384 . S
C94 C95 1.372 1_565 S
C95 C94 1.372 1_545 S
C95 C96 1.400 . S
C95 C100 1.490 . S
C96 H86 0.930 . S
C96 C95 1.400 . S
C96 C99 1.386 . S
H97 C113 0.930 . S
H98 C114 0.931 . S
C99 H87 0.927 1_554 S
C99 C93 1.399 . S
C99 C96 1.386 . S
C100 C95 1.490 . S
C100 C102 1.395 1_545 S
C100 C103 1.403 . S
H101 C107 0.930 . S
C102 H88 0.930 1_554 S
C102 C100 1.395 1_565 S
C102 C105 1.403 1_655 S
C103 C100 1.403 . S
C103 C104 1.524 . S
C103 C107 1.400 1_655 S
C104 H89 0.960 . S
C104 H90 0.960 . S
C104 H91 0.960 . S
C104 C103 1.524 . S
C105 C102 1.403 1_455 S
C105 C106 1.392 1_565 S
C105 C109 1.495 1_554 S
C106 C105 1.392 1_545 S
C106 C107 1.385 . S
C106 C108 1.478 . S
C107 H101 0.930 . S
C107 C103 1.400 1_455 S
C107 C106 1.385 . S
C108 C106 1.478 . S
C108 C110 1.381 1_545 S
C108 C114 1.383 . S
C109 C105 1.495 1_556 S
C109 H115 0.959 . S
C109 H116 0.961 . S
C109 H117 0.960 1_556 S
C110 C108 1.381 1_565 S
C110 C111 1.394 . S
C110 H118 0.930 . S
C111 C110 1.394 . S
C111 C112 1.383 1_565 S
C111 H119 0.929 . S
C112 C111 1.383 1_545 S
C112 C113 1.377 . S
C113 H97 0.930 . S
C113 C112 1.377 . S
C113 C114 1.379 . S
C114 H98 0.931 . S
C114 C108 1.383 . S
C114 C113 1.379 . S
H115 C109 0.959 . S
H116 C109 0.961 . S
H117 C109 0.960 1_554 S
H118 C110 0.930 . S
H119 C111 0.929 . S
H120 C128 0.929 . S
H121 C130 0.930 . S
H122 C132 0.930 . S
H123 C135 0.929 . S
H124 C138 0.930 . S
H125 C140 0.960 . S
H126 C140 0.960 . S
H127 C140 0.960 . S
C128 H120 0.929 . S
C128 C129 1.377 1_455 S
C128 C130 1.384 . S
C129 C128 1.377 1_655 S
C129 C135 1.390 . S
C130 H121 0.930 . S
C130 C128 1.384 . S
C130 C131 1.372 . S
C131 C130 1.372 . S
C131 C132 1.400 1_455 S
C131 C136 1.490 . S
C132 H122 0.930 . S
C132 C131 1.400 1_655 S
C132 C135 1.386 . S
H133 C149 0.930 . S
H134 C150 0.931 . S
C135 H123 0.929 . S
C135 C129 1.390 . S
C135 C132 1.386 . S
C136 C131 1.490 . S
C136 C138 1.395 . S
C136 C139 1.403 1_455 S
H137 C143 0.930 . S
C138 H124 0.930 . S
C138 C136 1.395 . S
C138 C141 1.403 1_565 S
C139 C136 1.403 1_655 S
C139 C140 1.524 . S
C139 C143 1.400 1_565 S
C140 H125 0.960 . S
C140 H126 0.960 . S
C140 H127 0.960 . S
C140 C139 1.524 . S
C141 C138 1.403 1_545 S
C141 C142 1.392 . S
C141 C145 1.495 . S
C142 C141 1.392 . S
C142 C143 1.385 1_455 S
C142 C144 1.478 . S
C143 H137 0.930 . S
C143 C139 1.400 1_545 S
C143 C142 1.385 1_655 S
C144 C142 1.478 . S
C144 C146 1.381 . S
C144 C150 1.383 1_455 S
C145 C141 1.495 . S
C145 H151 0.959 . S
C145 H152 0.961 . S
C145 H153 0.960 . S
C146 C144 1.381 . S
C146 C147 1.394 . S
C146 H154 0.930 . S
C147 C146 1.394 . S
C147 C148 1.383 . S
C147 H155 0.929 . S
C148 C147 1.383 . S
C148 C149 1.377 1_455 S
C149 H133 0.930 . S
C149 C148 1.377 1_655 S
C149 C150 1.379 . S
C150 H134 0.931 . S
C150 C144 1.383 1_655 S
C150 C149 1.379 . S
H151 C145 0.959 . S
H152 C145 0.961 . S
H153 C145 0.960 . S
H154 C146 0.930 . S
H155 C147 0.929 . S
H156 C164 0.929 . S
H157 C166 0.930 . S
H158 C168 0.930 . S
H159 C171 0.929 . S
H160 C174 0.930 1_556 S
H161 C176 0.960 . S
H162 C176 0.960 1_545 S
H163 C176 0.960 . S
C164 H156 0.929 . S
C164 C165 1.352 1_545 S
C164 C166 1.384 . S
C165 C164 1.352 1_565 S
C165 C171 1.413 . S
C166 H157 0.930 . S
C166 C164 1.384 . S
C166 C167 1.372 . S
C167 C166 1.372 . S
C167 C168 1.400 1_545 S
C167 C172 1.490 . S
C168 H158 0.930 . S
C168 C167 1.400 1_565 S
C168 C171 1.386 . S
H169 C185 0.930 . S
H170 C186 0.931 . S
C171 H159 0.929 . S
C171 C165 1.413 . S
C171 C168 1.386 . S
C172 C167 1.490 . S
C172 C174 1.395 . S
C172 C175 1.402 1_545 S
H173 C179 0.930 1_565 S
C174 H160 0.930 1_554 S
C174 C172 1.395 . S
C174 C177 1.403 . S
C175 C172 1.402 1_565 S
C175 C176 1.525 . S
C175 C179 1.400 1_565 S
C176 H161 0.960 . S
C176 H162 0.960 1_565 S
C176 H163 0.960 . S
C176 C175 1.525 . S
C177 C174 1.403 . S
C177 C178 1.392 . S
C177 C181 1.495 1_554 S
C178 C177 1.392 . S
C178 C179 1.385 . S
C178 C180 1.478 . S
C179 H173 0.930 1_545 S
C179 C175 1.400 1_545 S
C179 C178 1.385 . S
C180 C178 1.478 . S
C180 C182 1.381 . S
C180 C186 1.383 1_545 S
C181 C177 1.495 1_556 S
C181 H187 0.959 . S
C181 H188 0.961 . S
C181 H189 0.960 . S
C182 C180 1.381 . S
C182 C183 1.394 . S
C182 H190 0.930 . S
C183 C182 1.394 . S
C183 C184 1.383 . S
C183 H191 0.929 . S
C184 C183 1.383 . S
C184 C185 1.377 1_545 S
C185 H169 0.930 . S
C185 C184 1.377 1_565 S
C185 C186 1.379 . S
C186 H170 0.931 . S
C186 C180 1.383 1_565 S
C186 C185 1.379 . S
H187 C181 0.959 . S
H188 C181 0.961 . S
H189 C181 0.960 . S
H190 C182 0.930 . S
H191 C183 0.929 . S
H192 C200 0.929 . S
H193 C202 0.930 . S
H194 C204 0.930 . S
H195 C207 0.929 . S
H196 C210 0.930 . S
H197 C212 0.960 . S
H198 C212 0.960 . S
H199 C212 0.960 . S
C200 H192 0.929 . S
C200 C201 1.377 . S
C200 C202 1.384 . S
C201 C200 1.377 . S
C201 C207 1.390 1_455 S
C202 H193 0.930 . S
C202 C200 1.384 . S
C202 C203 1.372 . S
C203 C202 1.372 . S
C203 C204 1.400 1_455 S
C203 C208 1.490 . S
C204 H194 0.930 . S
C204 C203 1.400 1_655 S
C204 C207 1.386 . S
H205 C221 0.930 . S
H206 C222 0.931 . S
C207 H195 0.929 . S
C207 C201 1.390 1_655 S
C207 C204 1.386 . S
C208 C203 1.490 . S
C208 C210 1.395 . S
C208 C211 1.403 1_455 S
H209 C215 0.930 . S
C210 H196 0.930 . S
C210 C208 1.395 . S
C210 C213 1.403 . S
C211 C208 1.403 1_655 S
C211 C212 1.524 . S
C211 C215 1.400 . S
C212 H197 0.960 . S
C212 H198 0.960 . S
C212 H199 0.960 . S
C212 C211 1.524 . S
C213 C210 1.403 . S
C213 C214 1.392 . S
C213 C217 1.495 . S
C214 C213 1.392 . S
C214 C215 1.385 1_455 S
C214 C216 1.478 . S
C215 H209 0.930 . S
C215 C211 1.400 . S
C215 C214 1.385 1_655 S
C216 C214 1.478 . S
C216 C218 1.381 . S
C216 C222 1.383 1_455 S
C217 C213 1.495 . S
C217 H223 0.959 . S
C217 H224 0.961 . S
C217 H225 0.960 . S
C218 C216 1.381 . S
C218 C219 1.394 . S
C218 H226 0.930 . S
C219 C218 1.394 . S
C219 C220 1.383 . S
C219 H227 0.929 . S
C220 C219 1.383 . S
C220 C221 1.377 1_455 S
C221 H205 0.930 . S
C221 C220 1.377 1_655 S
C221 C222 1.379 . S
C222 H206 0.931 . S
C222 C216 1.383 1_655 S
C222 C221 1.379 . S
H223 C217 0.959 . S
H224 C217 0.961 . S
H225 C217 0.960 . S
H226 C218 0.930 . S
H227 C219 0.929 . S
H228 C236 0.929 . S
H229 C238 0.930 . S
H230 C240 0.930 . S
H231 C243 0.929 . S
H232 C246 0.930 . S
H233 C248 0.960 . S
H234 C248 0.960 . S
H235 C248 0.960 . S
C236 H228 0.929 . S
C236 C237 1.377 . S
C236 C238 1.384 . S
C237 C236 1.377 . S
C237 C243 1.390 . S
C238 H229 0.930 . S
C238 C236 1.384 . S
C238 C239 1.372 . S
C239 C238 1.372 . S
C239 C240 1.400 . S
C239 C244 1.490 . S
C240 H230 0.930 . S
C240 C239 1.400 . S
C240 C243 1.386 . S
H241 C257 0.930 . S
H242 C258 0.931 . S
C243 H231 0.929 . S
C243 C237 1.390 . S
C243 C240 1.386 . S
C244 C239 1.490 . S
C244 C246 1.395 . S
C244 C247 1.403 . S
H245 C251 0.930 . S
C246 H232 0.930 . S
C246 C244 1.395 . S
C246 C249 1.403 . S
C247 C244 1.403 . S
C247 C248 1.524 . S
C247 C251 1.400 . S
C248 H233 0.960 . S
C248 H234 0.960 . S
C248 H235 0.960 . S
C248 C247 1.524 . S
C249 C246 1.403 . S
C249 C250 1.392 . S
C249 C253 1.495 . S
C250 C249 1.392 . S
C250 C251 1.385 . S
C250 C252 1.478 . S
C251 H245 0.930 . S
C251 C247 1.400 . S
C251 C250 1.385 . S
C252 C250 1.478 . S
C252 C254 1.381 . S
C252 C258 1.383 . S
C253 C249 1.495 . S
C253 H259 0.959 . S
C253 H260 0.961 . S
C253 H261 0.960 . S
C254 C252 1.381 . S
C254 C255 1.394 . S
C254 H262 0.930 . S
C255 C254 1.394 . S
C255 C256 1.383 . S
C255 H263 0.929 . S
C256 C255 1.383 . S
C256 C257 1.377 . S
C257 H241 0.930 . S
C257 C256 1.377 . S
C257 C258 1.379 . S
C258 H242 0.931 . S
C258 C252 1.383 . S
C258 C257 1.379 . S
H259 C253 0.959 . S
H260 C253 0.961 . S
H261 C253 0.960 . S
H262 C254 0.930 . S
H263 C255 0.929 . S
H264 C272 0.929 . S
H265 C274 0.930 . S
H266 C276 0.930 . S
H267 C279 0.929 . S
H268 C282 0.930 . S
H269 C284 0.960 . S
H270 C284 0.960 . S
H271 C284 0.960 . S
C272 H264 0.929 . S
C272 C273 1.377 . S
C272 C274 1.384 . S
C273 C272 1.377 . S
C273 C279 1.390 . S
C274 H265 0.930 . S
C274 C272 1.384 . S
C274 C275 1.372 . S
C275 C274 1.372 . S
C275 C276 1.400 . S
C275 C280 1.490 . S
C276 H266 0.930 . S
C276 C275 1.400 . S
C276 C279 1.386 . S
H277 C293 0.930 . S
H278 C294 0.931 . S
C279 H267 0.929 . S
C279 C273 1.390 . S
C279 C276 1.386 . S
C280 C275 1.490 . S
C280 C282 1.395 . S
C280 C283 1.403 . S
H281 C287 0.930 . S
C282 H268 0.930 . S
C282 C280 1.395 . S
C282 C285 1.403 . S
C283 C280 1.403 . S
C283 C284 1.524 . S
C283 C287 1.400 . S
C284 H269 0.960 . S
C284 H270 0.960 . S
C284 H271 0.960 . S
C284 C283 1.524 . S
C285 C282 1.403 . S
C285 C286 1.392 . S
C285 C289 1.495 . S
C286 C285 1.392 . S
C286 C287 1.385 . S
C286 C288 1.478 . S
C287 H281 0.930 . S
C287 C283 1.400 . S
C287 C286 1.385 . S
C288 C286 1.478 . S
C288 C290 1.381 . S
C288 C294 1.383 . S
C289 C285 1.495 . S
C289 H295 0.959 . S
C289 H296 0.961 . S
C289 H297 0.960 . S
C290 C288 1.381 . S
C290 C291 1.394 . S
C290 H298 0.930 . S
C291 C290 1.394 . S
C291 C292 1.383 . S
C291 H299 0.929 . S
C292 C291 1.383 . S
C292 C293 1.377 . S
C293 H277 0.930 . S
C293 C292 1.377 . S
C293 C294 1.379 . S
C294 H278 0.931 . S
C294 C288 1.383 . S
C294 C293 1.379 . S
H295 C289 0.959 . S
H296 C289 0.961 . S
H297 C289 0.960 . S
H298 C290 0.930 . S
H299 C291 0.929 . S
H300 C308 0.929 . S
H301 C310 0.930 . S
H302 C312 0.930 . S
H303 C315 0.929 . S
H304 C318 0.930 . S
H305 C320 0.960 . S
H306 C320 0.960 . S
H307 C320 0.960 . S
C308 H300 0.929 . S
C308 C309 1.377 . S
C308 C310 1.384 . S
C309 C308 1.377 . S
C309 C315 1.390 . S
C310 H301 0.930 . S
C310 C308 1.384 . S
C310 C311 1.372 . S
C311 C310 1.372 . S
C311 C312 1.400 . S
C311 C316 1.490 . S
C312 H302 0.930 . S
C312 C311 1.400 . S
C312 C315 1.386 . S
H313 C329 0.930 . S
H314 C330 0.931 . S
C315 H303 0.929 . S
C315 C309 1.390 . S
C315 C312 1.386 . S
C316 C311 1.490 . S
C316 C318 1.395 . S
C316 C319 1.403 . S
H317 C323 0.930 . S
C318 H304 0.930 . S
C318 C316 1.395 . S
C318 C321 1.403 . S
C319 C316 1.403 . S
C319 C320 1.524 . S
C319 C323 1.400 . S
C320 H305 0.960 . S
C320 H306 0.960 . S
C320 H307 0.960 . S
C320 C319 1.524 . S
C321 C318 1.403 . S
C321 C322 1.392 . S
C321 C325 1.495 . S
C322 C321 1.392 . S
C322 C323 1.385 . S
C322 C324 1.478 . S
C323 H317 0.930 . S
C323 C319 1.400 . S
C323 C322 1.385 . S
C324 C322 1.478 . S
C324 C326 1.381 . S
C324 C330 1.383 . S
C325 C321 1.495 . S
C325 H331 0.959 . S
C325 H332 0.961 . S
C325 H333 0.960 . S
C326 C324 1.381 . S
C326 C327 1.394 . S
C326 H334 0.930 . S
C327 C326 1.394 . S
C327 C328 1.383 . S
C327 H335 0.929 . S
C328 C327 1.383 . S
C328 C329 1.377 . S
C329 H313 0.930 . S
C329 C328 1.377 . S
C329 C330 1.379 . S
C330 H314 0.931 . S
C330 C324 1.383 . S
C330 C329 1.379 . S
H331 C325 0.959 . S
H332 C325 0.961 . S
H333 C325 0.960 . S
H334 C326 0.930 . S
H335 C327 0.929 . S
H336 C344 0.929 . S
H337 C346 0.930 . S
H338 C348 0.930 . S
H339 C351 0.929 . S
H340 C354 0.930 . S
H341 C356 0.960 . S
H342 C356 0.960 . S
H343 C356 0.960 . S
C344 H336 0.929 . S
C344 C345 1.377 . S
C344 C346 1.384 . S
C345 C344 1.377 . S
C345 C351 1.390 . S
C346 H337 0.930 . S
C346 C344 1.384 . S
C346 C347 1.372 . S
C347 C346 1.372 . S
C347 C348 1.400 . S
C347 C352 1.490 . S
C348 H338 0.930 . S
C348 C347 1.400 . S
C348 C351 1.386 . S
H349 C365 0.930 . S
H350 C366 0.931 . S
C351 H339 0.929 . S
C351 C345 1.390 . S
C351 C348 1.386 . S
C352 C347 1.490 . S
C352 C354 1.395 . S
C352 C355 1.403 . S
H353 C359 0.930 . S
C354 H340 0.930 . S
C354 C352 1.395 . S
C354 C357 1.403 . S
C355 C352 1.403 . S
C355 C356 1.524 . S
C355 C359 1.400 . S
C356 H341 0.960 . S
C356 H342 0.960 . S
C356 H343 0.960 . S
C356 C355 1.524 . S
C357 C354 1.403 . S
C357 C358 1.392 . S
C357 C361 1.495 . S
C358 C357 1.392 . S
C358 C359 1.385 . S
C358 C360 1.478 . S
C359 H353 0.930 . S
C359 C355 1.400 . S
C359 C358 1.385 . S
C360 C358 1.478 . S
C360 C362 1.381 . S
C360 C366 1.383 . S
C361 C357 1.495 . S
C361 H367 0.959 . S
C361 H368 0.961 . S
C361 H369 0.960 . S
C362 C360 1.381 . S
C362 C363 1.394 . S
C362 H370 0.930 . S
C363 C362 1.394 . S
C363 C364 1.383 . S
C363 H371 0.929 . S
C364 C363 1.383 . S
C364 C365 1.377 . S
C365 H349 0.930 . S
C365 C364 1.377 . S
C365 C366 1.379 . S
C366 H350 0.931 . S
C366 C360 1.383 . S
C366 C365 1.379 . S
H367 C361 0.959 . S
H368 C361 0.961 . S
H369 C361 0.960 . S
H370 C362 0.930 . S
H371 C363 0.929 . S
H372 C380 0.929 . S
H373 C382 0.930 . S
H374 C384 0.930 . S
H375 C387 0.929 . S
H376 C390 0.930 . S
H377 C392 0.960 . S
H378 C392 0.960 . S
H379 C392 0.960 . S
C380 H372 0.929 . S
C380 C381 1.377 . S
C380 C382 1.384 . S
C381 C380 1.377 . S
C381 C387 1.390 . S
C382 H373 0.930 . S
C382 C380 1.384 . S
C382 C383 1.372 . S
C383 C382 1.372 . S
C383 C384 1.400 . S
C383 C388 1.490 . S
C384 H374 0.930 . S
C384 C383 1.400 . S
C384 C387 1.386 . S
H385 C401 0.930 . S
H386 C402 0.931 . S
C387 H375 0.929 . S
C387 C381 1.390 . S
C387 C384 1.386 . S
C388 C383 1.490 . S
C388 C390 1.395 . S
C388 C391 1.403 . S
H389 C395 0.930 . S
C390 H376 0.930 . S
C390 C388 1.395 . S
C390 C393 1.403 . S
C391 C388 1.403 . S
C391 C392 1.524 . S
C391 C395 1.400 . S
C392 H377 0.960 . S
C392 H378 0.960 . S
C392 H379 0.960 . S
C392 C391 1.524 . S
C393 C390 1.403 . S
C393 C394 1.392 . S
C393 C397 1.495 . S
C394 C393 1.392 . S
C394 C395 1.385 . S
C394 C396 1.478 . S
C395 H389 0.930 . S
C395 C391 1.400 . S
C395 C394 1.385 . S
C396 C394 1.478 . S
C396 C398 1.381 . S
C396 C402 1.383 . S
C397 C393 1.495 . S
C397 H403 0.959 . S
C397 H404 0.961 . S
C397 H405 0.960 . S
C398 C396 1.381 . S
C398 C399 1.394 . S
C398 H406 0.930 . S
C399 C398 1.394 . S
C399 C400 1.383 . S
C399 H407 0.929 . S
C400 C399 1.383 . S
C400 C401 1.377 . S
C401 H385 0.930 . S
C401 C400 1.377 . S
C401 C402 1.379 . S
C402 H386 0.931 . S
C402 C396 1.383 . S
C402 C401 1.379 . S
H403 C397 0.959 . S
H404 C397 0.961 . S
H405 C397 0.960 . S
H406 C398 0.930 . S
H407 C399 0.929 . S
H408 C416 0.929 . S
H409 C418 0.930 . S
H410 C420 0.930 . S
H411 C423 0.929 . S
H412 C426 0.930 . S
H413 C428 0.960 . S
H414 C428 0.960 . S
H415 C428 0.960 . S
C416 H408 0.929 . S
C416 C417 1.377 . S
C416 C418 1.384 . S
C417 C416 1.377 . S
C417 C423 1.390 . S
C418 H409 0.930 . S
C418 C416 1.384 . S
C418 C419 1.372 . S
C419 C418 1.372 . S
C419 C420 1.400 . S
C419 C424 1.490 . S
C420 H410 0.930 . S
C420 C419 1.400 . S
C420 C423 1.386 . S
H421 C437 0.930 . S
H422 C438 0.931 . S
C423 H411 0.929 . S
C423 C417 1.390 . S
C423 C420 1.386 . S
C424 C419 1.490 . S
C424 C426 1.395 . S
C424 C427 1.403 . S
H425 C431 0.930 . S
C426 H412 0.930 . S
C426 C424 1.395 . S
C426 C429 1.403 . S
C427 C424 1.403 . S
C427 C428 1.524 . S
C427 C431 1.400 . S
C428 H413 0.960 . S
C428 H414 0.960 . S
C428 H415 0.960 . S
C428 C427 1.524 . S
C429 C426 1.403 . S
C429 C430 1.392 . S
C429 C433 1.495 . S
C430 C429 1.392 . S
C430 C431 1.385 . S
C430 C432 1.478 . S
C431 H425 0.930 . S
C431 C427 1.400 . S
C431 C430 1.385 . S
C432 C430 1.478 . S
C432 C434 1.381 . S
C432 C438 1.383 . S
C433 C429 1.495 . S
C433 H439 0.959 . S
C433 H440 0.961 . S
C433 H441 0.960 . S
C434 C432 1.381 . S
C434 C435 1.394 . S
C434 H442 0.930 . S
C435 C434 1.394 . S
C435 C436 1.383 . S
C435 H443 0.929 . S
C436 C435 1.383 . S
C436 C437 1.377 . S
C437 H421 0.930 . S
C437 C436 1.377 . S
C437 C438 1.379 . S
C438 H422 0.931 . S
C438 C432 1.383 . S
C438 C437 1.379 . S
H439 C433 0.959 . S
H440 C433 0.961 . S
H441 C433 0.960 . S
H442 C434 0.930 . S
H443 C435 0.929 . S
H444 C452 0.929 . S
H445 C454 0.930 . S
H446 C456 0.930 . S
H447 C459 0.929 . S
H448 C462 0.930 . S
H449 C464 0.960 . S
H450 C464 0.960 . S
H451 C464 0.960 . S
C452 H444 0.929 . S
C452 C453 1.377 . S
C452 C454 1.384 . S
C453 C452 1.377 . S
C453 C459 1.390 . S
C454 H445 0.930 . S
C454 C452 1.384 . S
C454 C455 1.372 . S
C455 C454 1.372 . S
C455 C456 1.400 . S
C455 C460 1.490 . S
C456 H446 0.930 . S
C456 C455 1.400 . S
C456 C459 1.386 . S
H457 C473 0.930 . S
H458 C474 0.931 . S
C459 H447 0.929 . S
C459 C453 1.390 . S
C459 C456 1.386 . S
C460 C455 1.490 . S
C460 C462 1.395 . S
C460 C463 1.403 . S
H461 C467 0.930 . S
C462 H448 0.930 . S
C462 C460 1.395 . S
C462 C465 1.403 . S
C463 C460 1.403 . S
C463 C464 1.524 . S
C463 C467 1.400 . S
C464 H449 0.960 . S
C464 H450 0.960 . S
C464 H451 0.960 . S
C464 C463 1.524 . S
C465 C462 1.403 . S
C465 C466 1.392 . S
C465 C469 1.495 . S
C466 C465 1.392 . S
C466 C467 1.385 . S
C466 C468 1.478 . S
C467 H461 0.930 . S
C467 C463 1.400 . S
C467 C466 1.385 . S
C468 C466 1.478 . S
C468 C470 1.381 . S
C468 C474 1.383 . S
C469 C465 1.495 . S
C469 H475 0.959 . S
C469 H476 0.961 . S
C469 H477 0.960 . S
C470 C468 1.381 . S
C470 C471 1.394 . S
C470 H478 0.930 . S
C471 C470 1.394 . S
C471 C472 1.383 . S
C471 H479 0.929 . S
C472 C471 1.383 . S
C472 C473 1.377 . S
C473 H457 0.930 . S
C473 C472 1.377 . S
C473 C474 1.379 . S
C474 H458 0.931 . S
C474 C468 1.383 . S
C474 C473 1.379 . S
H475 C469 0.959 . S
H476 C469 0.961 . S
H477 C469 0.960 . S
H478 C470 0.930 . S
H479 C471 0.929 . S
H480 C488 0.929 . S
H481 C490 0.930 . S
H482 C492 0.930 . S
H483 C495 0.929 . S
H484 C498 0.930 . S
H485 C500 0.960 . S
H486 C500 0.960 . S
H487 C500 0.960 . S
C488 H480 0.929 . S
C488 C489 1.377 . S
C488 C490 1.384 . S
C489 C488 1.377 . S
C489 C495 1.390 . S
C490 H481 0.930 . S
C490 C488 1.384 . S
C490 C491 1.372 . S
C491 C490 1.372 . S
C491 C492 1.400 . S
C491 C496 1.490 . S
C492 H482 0.930 . S
C492 C491 1.400 . S
C492 C495 1.386 . S
H493 C509 0.930 . S
H494 C510 0.931 . S
C495 H483 0.929 . S
C495 C489 1.390 . S
C495 C492 1.386 . S
C496 C491 1.490 . S
C496 C498 1.395 . S
C496 C499 1.403 . S
H497 C503 0.930 . S
C498 H484 0.930 . S
C498 C496 1.395 . S
C498 C501 1.403 . S
C499 C496 1.403 . S
C499 C500 1.524 . S
C499 C503 1.400 . S
C500 H485 0.960 . S
C500 H486 0.960 . S
C500 H487 0.960 . S
C500 C499 1.524 . S
C501 C498 1.403 . S
C501 C502 1.392 . S
C501 C505 1.495 . S
C502 C501 1.392 . S
C502 C503 1.385 . S
C502 C504 1.478 . S
C503 H497 0.930 . S
C503 C499 1.400 . S
C503 C502 1.385 . S
C504 C502 1.478 . S
C504 C506 1.381 . S
C504 C510 1.383 . S
C505 C501 1.495 . S
C505 H511 0.959 . S
C505 H512 0.961 . S
C505 H513 0.960 . S
C506 C504 1.381 . S
C506 C507 1.394 . S
C506 H514 0.930 . S
C507 C506 1.394 . S
C507 C508 1.383 . S
C507 H515 0.929 . S
C508 C507 1.383 . S
C508 C509 1.377 . S
C509 H493 0.930 . S
C509 C508 1.377 . S
C509 C510 1.379 . S
C510 H494 0.931 . S
C510 C504 1.383 . S
C510 C509 1.379 . S
H511 C505 0.959 . S
H512 C505 0.961 . S
H513 C505 0.960 . S
H514 C506 0.930 . S
H515 C507 0.929 . S
C93 C59 1.073 . S
C112 C14 1.036 . S
C129 C77 1.027 . S
C148 C35 1.078 . S
C165 C60 0.764 . S
C184 C15 0.757 . S
C201 C36 0.745 . S
C220 C78 0.692 . S
C237 C38 1.289 . S
C256 C18 1.248 . S
C273 C39 1.469 . S
C292 C57 1.468 . S
C309 C81 1.224 . S
C328 C56 1.298 . S
C345 C80 1.080 . S
C364 C17 1.051 . S
C381 C55 1.309 . S
C400 C76 1.104 . S
C417 C16 1.783 . S
C436 C79 1.786 . S
C453 C37 1.315 . S
C472 C13 1.171 1_556 S
C489 C58 0.819 . S
C508 C34 0.755 . S
