# Generated by pormake.
# Topology vma, (5)-cn, num edge types: 1
# Building blocks:
#     Node 0, Type 0, BuildingBlock: XOMCOT_clean_sbu_1, # of connection points: 5
#     Node 1, Type 0, BuildingBlock: XOMCOT_clean_sbu_1, # of connection points: 5
#     Node 2, Type 0, BuildingBlock: XOMCOT_clean_sbu_1, # of connection points: 5
#     Node 3, Type 0, BuildingBlock: XOMCOT_clean_sbu_1, # of connection points: 5
#     Node 4, Type 0, BuildingBlock: XOMCOT_clean_sbu_1, # of connection points: 5
#     Node 5, Type 0, BuildingBlock: XOMCOT_clean_sbu_1, # of connection points: 5
#     Node 6, Type 0, BuildingBlock: XOMCOT_clean_sbu_1, # of connection points: 5
#     Node 7, Type 0, BuildingBlock: XOMCOT_clean_sbu_1, # of connection points: 5
#     Edge 8, Type (0, 0), BuildingBlock: KIFKEQ_clean_linker_1, # of connection points: 2
#     Edge 9, Type (0, 0), BuildingBlock: KIFKEQ_clean_linker_1, # of connection points: 2
#     Edge 10, Type (0, 0), BuildingBlock: KIFKEQ_clean_linker_1, # of connection points: 2
#     Edge 11, Type (0, 0), BuildingBlock: KIFKEQ_clean_linker_1, # of connection points: 2
#     Edge 12, Type (0, 0), BuildingBlock: KIFKEQ_clean_linker_1, # of connection points: 2
#     Edge 13, Type (0, 0), BuildingBlock: KIFKEQ_clean_linker_1, # of connection points: 2
#     Edge 14, Type (0, 0), BuildingBlock: KIFKEQ_clean_linker_1, # of connection points: 2
#     Edge 15, Type (0, 0), BuildingBlock: KIFKEQ_clean_linker_1, # of connection points: 2
#     Edge 16, Type (0, 0), BuildingBlock: KIFKEQ_clean_linker_1, # of connection points: 2
#     Edge 17, Type (0, 0), BuildingBlock: KIFKEQ_clean_linker_1, # of connection points: 2
#     Edge 18, Type (0, 0), BuildingBlock: KIFKEQ_clean_linker_1, # of connection points: 2
#     Edge 19, Type (0, 0), BuildingBlock: KIFKEQ_clean_linker_1, # of connection points: 2
#     Edge 20, Type (0, 0), BuildingBlock: KIFKEQ_clean_linker_1, # of connection points: 2
#     Edge 21, Type (0, 0), BuildingBlock: KIFKEQ_clean_linker_1, # of connection points: 2
#     Edge 22, Type (0, 0), BuildingBlock: KIFKEQ_clean_linker_1, # of connection points: 2
#     Edge 23, Type (0, 0), BuildingBlock: KIFKEQ_clean_linker_1, # of connection points: 2
#     Edge 24, Type (0, 0), BuildingBlock: KIFKEQ_clean_linker_1, # of connection points: 2
#     Edge 25, Type (0, 0), BuildingBlock: KIFKEQ_clean_linker_1, # of connection points: 2
#     Edge 26, Type (0, 0), BuildingBlock: KIFKEQ_clean_linker_1, # of connection points: 2
#     Edge 27, Type (0, 0), BuildingBlock: KIFKEQ_clean_linker_1, # of connection points: 2
# Relax obj value: 0.095
# Max RMSD: 0.173
# Mean RMSD: 0.170
data_MOF--net-vma--node1-XOMCOT_clean_sbu_1--edge1-KIFKEQ_clean_linker_1
_symmetry_space_group_name_H-M    P1
_symmetry_Int_Tables_number       1
_symmetry_cell_setting            triclinic
loop_
_symmetry_equiv_pos_as_xyz
'x, y, z'
_cell_length_a     41.116672
_cell_length_b     29.114086
_cell_length_c     36.609276
_cell_angle_alpha  89.845883
_cell_angle_beta   99.850739
_cell_angle_gamma 90.155349
loop_
_atom_site_label
_atom_site_type_symbol
_atom_site_fract_x
_atom_site_fract_y
_atom_site_fract_z
_atom_type_partial_charge
C0 C 0.36637 0.08982 0.30784 0.0
C1 C 0.39287 0.09107 0.28955 0.0
N2 N 0.42083 0.094 0.31479 0.0
N3 N 0.37719 0.09168 0.34467 0.0
C4 C 0.41055 0.09423 0.34814 0.0
H5 H 0.34068 0.08761 0.29506 0.0
Co6 Co 0.34847 0.09191 0.37972 0.0
C7 C 0.38593 0.03543 0.44099 0.0
O8 O 0.36084 0.00741 0.44045 0.0
N9 N 0.31862 0.09279 0.41546 0.0
C10 C 0.28165 0.07319 0.45127 0.0
C11 C 0.30094 0.05763 0.42674 0.0
C12 C 0.30901 0.12953 0.43383 0.0
N13 N 0.28656 0.11855 0.45549 0.0
O14 O 0.36092 0.1539 0.39159 0.0
H15 H 0.30117 0.02252 0.41737 0.0
H16 H 0.31814 0.16405 0.43169 0.0
O17 O 0.38401 0.06891 0.41802 0.0
C18 C 0.3405 0.17591 0.36774 0.0
O19 O 0.31882 0.15259 0.34438 0.0
N20 N 0.33339 0.03407 0.36296 0.0
C21 C 0.30289 0.96003 0.32262 0.0
C22 C 0.33594 0.95699 0.34071 0.0
C23 C 0.35104 -0.00503 0.36027 0.0
C24 C 0.30182 0.03792 0.34447 0.0
C25 C 0.28603 0.00138 0.32461 0.0
H26 H 0.37697 -0.0065 0.37211 0.0
H27 H 0.28894 0.07023 0.34464 0.0
H28 H 0.42689 0.09697 0.37455 0.0
H29 H 0.39149 0.08929 0.25981 0.0
H30 H 0.26446 0.05298 0.46401 0.0
H31 H 0.35011 0.92595 0.33933 0.0
H32 H 0.26108 0.0062 0.3099 0.0
C33 C 0.70543 0.08937 0.25781 0.0
C34 C 0.67947 0.09088 0.277 0.0
N35 N 0.65106 0.094 0.25247 0.0
N36 N 0.69378 0.09127 0.22115 0.0
C37 C 0.66054 0.09424 0.2187 0.0
H38 H 0.73127 0.08653 0.26982 0.0
Co39 Co 0.72111 0.08961 0.18473 0.0
C40 C 0.68033 0.04034 0.12214 0.0
O41 O 0.70563 0.01426 0.11891 0.0
N42 N 0.7498 0.08894 0.14748 0.0
C43 C 0.78709 0.06967 0.11221 0.0
C44 C 0.76836 0.05426 0.13743 0.0
C45 C 0.75788 0.12505 0.12705 0.0
N46 N 0.78076 0.1145 0.1058 0.0
O47 O 0.71244 0.1531 0.17545 0.0
H48 H 0.76847 0.01929 0.14733 0.0
H49 H 0.74776 0.15903 0.12817 0.0
O50 O 0.68321 0.0712 0.14732 0.0
C51 C 0.73662 0.17104 0.19731 0.0
O52 O 0.75815 0.14377 0.21727 0.0
N53 N 0.73252 0.02963 0.19924 0.0
C54 C 0.75506 0.95332 0.2418 0.0
C55 C 0.72212 0.95554 0.22365 0.0
C56 C 0.7112 -0.00564 0.20237 0.0
C57 C 0.76434 0.02801 0.21742 0.0
C58 C 0.77639 0.98968 0.23792 0.0
H59 H 0.68532 -0.00256 0.19068 0.0
H60 H 0.78029 0.05751 0.21694 0.0
H61 H 0.64367 0.09698 0.1927 0.0
H62 H 0.68152 0.08888 0.30681 0.0
H63 H 0.80391 0.04905 0.09947 0.0
H64 H 0.70484 0.92831 0.22693 0.0
H65 H 0.80168 0.98965 0.25241 0.0
C66 C 0.65303 0.9255 0.6032 0.0
C67 C 0.62771 0.94551 0.57955 0.0
N68 N 0.60158 0.9491 0.59703 0.0
N69 N 0.64324 0.91578 0.63567 0.0
C70 C 0.61157 0.93059 0.63116 0.0
H71 H 0.6774 0.91936 0.59708 0.0
Co72 Co 0.67312 0.89112 0.67501 0.0
C73 C 0.63461 0.8572 0.73335 0.0
O74 O 0.66205 0.85184 0.75716 0.0
N75 N 0.70543 0.86657 0.71333 0.0
C76 C 0.75226 0.85856 0.75368 0.0
C77 C 0.73024 0.88942 0.73496 0.0
C78 C 0.71311 0.82167 0.71976 0.0
N79 N 0.74152 0.81598 0.74389 0.0
O80 O 0.67247 0.83382 0.64813 0.0
H81 H 0.73348 0.92619 0.73595 0.0
H82 H 0.69907 0.79354 0.70559 0.0
O83 O 0.63582 0.87187 0.70043 0.0
C84 C 0.69779 0.83472 0.63211 0.0
O85 O 0.71797 0.87002 0.63842 0.0
N86 N 0.67655 0.94866 0.69789 0.0
C87 C 0.70091 0.03058 0.73048 0.0
C88 C 0.67741 0.00521 0.74568 0.0
C89 C 0.66535 0.9639 0.72879 0.0
C90 C 0.69709 0.9752 0.68122 0.0
C91 C 0.70964 0.01619 0.69708 0.0
H92 H 0.6486 0.94365 0.74178 0.0
H93 H 0.70584 0.96261 0.65691 0.0
H94 H 0.59652 0.92902 0.65264 0.0
H95 H 0.62852 0.95627 0.5514 0.0
H96 H 0.775 0.86685 0.77212 0.0
H97 H 0.67006 0.01569 0.77144 0.0
H98 H 0.72753 0.03521 0.68443 0.0
C99 C 0.40334 0.94541 0.96697 0.0
C100 C 0.42932 0.9609 0.99239 0.0
N101 N 0.45752 0.95134 0.97992 0.0
N102 N 0.4147 0.92603 0.93826 0.0
C103 C 0.44796 0.93033 0.94676 0.0
H104 H 0.37757 0.94874 0.96907 0.0
Co105 Co 0.38493 0.90247 0.89863 0.0
C106 C 0.42286 0.86939 0.84036 0.0
O107 O 0.396 0.87328 0.81543 0.0
N108 N 0.35268 0.87903 0.85963 0.0
C109 C 0.30992 0.87212 0.81346 0.0
C110 C 0.3307 0.90243 0.83465 0.0
C111 C 0.34437 0.83437 0.85291 0.0
N112 N 0.31843 0.82932 0.82511 0.0
O113 O 0.38286 0.84586 0.92615 0.0
H114 H 0.32916 0.93924 0.83177 0.0
H115 H 0.35719 0.80591 0.86799 0.0
O116 O 0.42201 0.8796 0.87438 0.0
C117 C 0.35738 0.84877 0.94177 0.0
O118 O 0.33891 0.88565 0.93513 0.0
N119 N 0.38439 0.95985 0.8753 0.0
C120 C 0.37137 0.04776 0.84609 0.0
C121 C 0.39667 0.02107 0.83566 0.0
C122 C 0.40322 0.97722 0.85113 0.0
C123 C 0.36096 0.98632 0.88701 0.0
C124 C 0.35384 0.03002 0.87261 0.0
H125 H 0.42328 0.95788 0.84349 0.0
H126 H 0.3466 0.97238 0.90658 0.0
H127 H 0.46475 0.9182 0.92921 0.0
H128 H 0.42743 0.97885 1.01778 0.0
H129 H 0.28949 0.88106 0.79185 0.0
H130 H 0.41128 0.03399 0.81588 0.0
H131 H 0.33387 0.04901 0.88127 0.0
C132 C 0.85927 0.60148 0.31484 0.0
C133 C 0.88497 0.60356 0.2952 0.0
N134 N 0.91364 0.59961 0.31919 0.0
N135 N 0.87146 0.59616 0.35114 0.0
C136 C 0.90466 0.59539 0.35298 0.0
H137 H 0.83326 0.6034 0.30338 0.0
Co138 Co 0.84547 0.59034 0.38837 0.0
C139 C 0.8888 0.53976 0.44776 0.0
O140 O 0.86431 0.51178 0.45072 0.0
N141 N 0.81848 0.58521 0.42692 0.0
C142 C 0.7823 0.56272 0.46277 0.0
C143 C 0.79962 0.54978 0.43553 0.0
C144 C 0.81245 0.61886 0.45055 0.0
N145 N 0.79025 0.6064 0.47209 0.0
O146 O 0.85274 0.65392 0.39904 0.0
H147 H 0.79831 0.51603 0.42323 0.0
H148 H 0.8233 0.65272 0.4514 0.0
O149 O 0.88448 0.57243 0.42403 0.0
C150 C 0.8269 0.67163 0.37995 0.0
O151 O 0.80433 0.64408 0.36196 0.0
N152 N 0.83526 0.53068 0.37219 0.0
C153 C 0.81345 0.4559 0.327 0.0
C154 C 0.84648 0.45871 0.34522 0.0
C155 C 0.85703 0.49678 0.36753 0.0
C156 C 0.8034 0.52864 0.35429 0.0
C157 C 0.79174 0.4911 0.33266 0.0
H158 H 0.88295 0.50043 0.37885 0.0
H159 H 0.78693 0.55705 0.35624 0.0
H160 H 0.92194 0.59085 0.37849 0.0
H161 H 0.88258 0.60801 0.26551 0.0
H162 H 0.76518 0.54151 0.47475 0.0
H163 H 0.86443 0.43308 0.34082 0.0
H164 H 0.766 0.49044 0.3198 0.0
C165 C 0.19791 0.5931 0.26198 0.0
C166 C 0.17209 0.59403 0.28144 0.0
N167 N 0.14349 0.59465 0.25706 0.0
N168 N 0.18586 0.59291 0.22538 0.0
C169 C 0.15265 0.59423 0.22321 0.0
H170 H 0.2239 0.59261 0.27373 0.0
Co171 Co 0.21161 0.59222 0.18757 0.0
C172 C 0.16982 0.53195 0.13238 0.0
O173 O 0.19457 0.50399 0.13123 0.0
N174 N 0.23818 0.59257 0.1487 0.0
C175 C 0.27213 0.5735 0.10942 0.0
C176 C 0.25425 0.55745 0.1353 0.0
C177 C 0.24703 0.62965 0.12994 0.0
N178 N 0.26776 0.61912 0.1062 0.0
O179 O 0.19772 0.6534 0.17548 0.0
H180 H 0.25419 0.52216 0.1444 0.0
H181 H 0.23857 0.66413 0.13341 0.0
O182 O 0.17389 0.56745 0.15314 0.0
C183 C 0.21845 0.67686 0.19783 0.0
O184 O 0.24284 0.65555 0.21902 0.0
N185 N 0.22774 0.53466 0.20443 0.0
C186 C 0.25728 0.46124 0.24674 0.0
C187 C 0.22315 0.46124 0.23294 0.0
C188 C 0.20877 0.49852 0.21209 0.0
C189 C 0.26067 0.5357 0.21834 0.0
C190 C 0.27609 0.49894 0.23859 0.0
H191 H 0.18224 0.49959 0.20403 0.0
H192 H 0.27502 0.56595 0.21439 0.0
H193 H 0.1355 0.59442 0.19728 0.0
H194 H 0.17436 0.59487 0.31132 0.0
H195 H 0.28808 0.55329 0.09512 0.0
H196 H 0.20734 0.43378 0.2396 0.0
H197 H 0.30244 0.50068 0.24835 0.0
C198 C 0.16836 0.46313 0.6102 0.0
C199 C 0.14351 0.48272 0.58513 0.0
N200 N 0.11472 0.46276 0.58917 0.0
N201 N 0.1554 0.43082 0.62993 0.0
C202 C 0.12267 0.43129 0.61648 0.0
H203 H 0.19422 0.47236 0.61426 0.0
Co204 Co 0.17946 0.39628 0.66829 0.0
C205 C 0.12606 0.3503 0.70012 0.0
O206 O 0.13833 0.30985 0.69438 0.0
N207 N 0.20372 0.36221 0.70713 0.0
C208 C 0.22541 0.33979 0.76419 0.0
C209 C 0.20236 0.36763 0.74349 0.0
C210 C 0.22759 0.33051 0.70642 0.0
N211 N 0.24118 0.31652 0.7408 0.0
O212 O 0.17294 0.342 0.63757 0.0
H213 H 0.18599 0.39102 0.75433 0.0
H214 H 0.23559 0.31869 0.68143 0.0
O215 O 0.1397 0.3865 0.68989 0.0
C216 C 0.19563 0.3456 0.61775 0.0
O217 O 0.21546 0.38134 0.62342 0.0
N218 N 0.18944 0.44988 0.69546 0.0
C219 C 0.21284 0.53286 0.72723 0.0
C220 C 0.17941 0.52083 0.72471 0.0
C221 C 0.16802 0.47908 0.70819 0.0
C222 C 0.22197 0.4608 0.69831 0.0
C223 C 0.23423 0.50193 0.71426 0.0
H224 H 0.14202 0.47109 0.70445 0.0
H225 H 0.23839 0.43766 0.68727 0.0
H226 H 0.10502 0.40895 0.62644 0.0
H227 H 0.14635 0.51039 0.56612 0.0
H228 H 0.23008 0.3366 0.7941 0.0
H229 H 0.16209 0.54423 0.73399 0.0
H230 H 0.26022 0.50976 0.71592 0.0
C231 C 0.90335 0.46849 0.94069 0.0
C232 C 0.92497 0.48518 0.9706 0.0
N233 N 0.94872 0.45362 0.98061 0.0
N234 N 0.91366 0.42681 0.93141 0.0
C235 C 0.94059 0.41797 0.95721 0.0
H236 H 0.88206 0.48641 0.92599 0.0
Co237 Co 0.89421 0.38992 0.8915 0.0
C238 C 0.96574 0.39824 0.87798 0.0
O239 O 0.97237 0.43456 0.89914 0.0
N240 N 0.87444 0.35315 0.85207 0.0
C241 C 0.8624 0.32158 0.79623 0.0
C242 C 0.88157 0.35363 0.81744 0.0
C243 C 0.85055 0.32099 0.85109 0.0
N244 N 0.84296 0.30091 0.8175 0.0
O245 O 0.89955 0.33668 0.92372 0.0
H246 H 0.89965 0.37588 0.80816 0.0
H247 H 0.83937 0.31165 0.87469 0.0
O248 O 0.93713 0.37941 0.87442 0.0
C249 C 0.87441 0.33778 0.94003 0.0
O250 O 0.85425 0.37295 0.93333 0.0
N251 N 0.88431 0.44204 0.8613 0.0
C252 C 0.85743 0.52033 0.82388 0.0
C253 C 0.89144 0.51177 0.82838 0.0
C254 C 0.90444 0.47205 0.84696 0.0
C255 C 0.85115 0.44965 0.85649 0.0
C256 C 0.83716 0.48828 0.83764 0.0
H257 H 0.93053 0.4666 0.85016 0.0
H258 H 0.83551 0.42592 0.86831 0.0
H259 H 0.95506 0.38693 0.95746 0.0
H260 H 0.92432 0.51903 0.98262 0.0
H261 H 0.86279 0.31418 0.76736 0.0
H262 H 0.90783 0.53578 0.81794 0.0
H263 H 0.81084 0.49392 0.8352 0.0
H264 H 0.17494 0.25454 0.60954 0.0
H265 H 0.23263 0.35782 0.56457 0.0
H266 H 0.19286 0.19733 0.56773 0.0
H267 H 0.25133 0.30167 0.52488 0.0
H268 H 0.26567 0.20454 0.43683 0.0
H269 H 0.23731 0.25683 0.47241 0.0
H270 H 0.24098 0.15445 0.55879 0.0
H271 H 0.26818 0.10144 0.52189 0.0
C272 C 0.19105 0.26512 0.59055 0.0
C273 C 0.20237 0.31071 0.5905 0.0
C274 C 0.20164 0.23234 0.56687 0.0
C275 C 0.2236 0.2447 0.5427 0.0
C276 C 0.23398 0.29066 0.5423 0.0
C277 C 0.22342 0.32302 0.56557 0.0
C278 C 0.2605 0.19333 0.46343 0.0
C279 C 0.26963 0.14923 0.4768 0.0
C280 C 0.24418 0.22326 0.48396 0.0
C281 C 0.23716 0.21032 0.51894 0.0
C282 C 0.24559 0.16561 0.5319 0.0
C283 C 0.26144 0.13532 0.51093 0.0
H284 H 0.75807 0.1974 0.07763 0.0
H285 H 0.83856 0.10166 0.07979 0.0
H286 H 0.78336 0.24819 0.03807 0.0
H287 H 0.86299 0.15171 0.03837 0.0
H288 H 0.91199 0.28073 0.99145 0.0
H289 H 0.89071 0.22495 1.03236 0.0
H290 H 0.79138 0.25126 0.97569 0.0
H291 H 0.81238 0.30714 0.93645 0.0
C292 C 0.78112 0.18695 0.06979 0.0
C293 C 0.79593 0.14491 0.08203 0.0
C294 C 0.79553 0.216 0.04654 0.0
C295 C 0.82509 0.20389 1.03443 0.0
C296 C 0.8403 0.1623 0.04712 0.0
C297 C 0.82594 0.13323 0.07059 0.0
C298 C 0.88572 0.27387 0.98761 0.0
C299 C 0.86382 0.29861 0.96112 0.0
C300 C 0.87346 0.24205 1.01101 0.0
C301 C 0.83915 0.23434 1.008 0.0
C302 C 0.81776 0.25729 0.97984 0.0
C303 C 0.82987 0.28912 0.95703 0.0
H304 H 0.68408 0.74141 0.63215 0.0
H305 H 0.73001 0.84662 0.5749 0.0
H306 H 0.7058 0.68239 0.59459 0.0
H307 H 0.75089 0.78883 0.53753 0.0
H308 H 0.81896 0.67939 0.51069 0.0
H309 H 0.7939 0.73151 0.54956 0.0
H310 H 0.70409 0.65138 0.53036 0.0
H311 H 0.72934 0.5989 0.49134 0.0
C312 C 0.69821 0.75191 0.61114 0.0
C313 C 0.70568 0.7985 0.60673 0.0
C314 C 0.71073 0.71824 0.58973 0.0
C315 C 0.73079 0.73085 0.56365 0.0
C316 C 0.73648 0.7777 0.55811 0.0
C317 C 0.72425 0.81092 0.5794 0.0
C318 C 0.79387 0.67285 0.51461 0.0
C319 C 0.77612 0.6352 0.49744 0.0
C320 C 0.77943 0.70276 0.53695 0.0
C321 C 0.74674 0.69607 0.54265 0.0
C322 C 0.72933 0.65744 0.52669 0.0
C323 C 0.74385 0.62735 0.50431 0.0
H324 H 0.38255 0.7609 0.95697 0.0
H325 H 0.30897 0.8554 0.98296 0.0
H326 H 0.3635 0.70331 0.99809 0.0
H327 H 0.29001 0.79873 1.02271 0.0
H328 H 0.28265 0.70887 0.12002 0.0
H329 H 0.30777 0.76211 0.08171 0.0
H330 H 0.31449 0.65388 1.00295 0.0
H331 H 0.2893 0.60031 0.04158 0.0
C332 C 0.3625 0.76944 0.97142 0.0
C333 C 0.34742 0.81285 0.96667 0.0
C334 C 0.35145 0.73645 0.99479 0.0
C335 C 0.32539 0.74653 1.01404 0.0
C336 C 0.31053 0.78994 1.00906 0.0
C337 C 0.32135 0.82246 0.98585 0.0
C338 C 0.28917 0.6964 0.09443 0.0
C339 C 0.28341 0.65039 0.0837 0.0
C340 C 0.30377 0.72692 0.07246 0.0
C341 C 0.31293 0.71245 0.03898 0.0
C342 C 0.30805 0.66612 1.02868 0.0
C343 C 0.29347 0.63545 0.05079 0.0
H344 H 0.59322 0.07145 0.20753 0.0
H345 H 0.63292 0.12059 0.31738 0.0
H346 H 0.53788 0.07212 0.22319 0.0
H347 H 0.57779 0.12101 0.33298 0.0
H348 H 0.47808 0.06994 0.36018 0.0
H349 H 0.53378 0.07045 0.34514 0.0
H350 H 0.49532 0.12372 0.23618 0.0
H351 H 0.44004 0.12341 0.25115 0.0
C352 C 0.59025 0.08278 0.23489 0.0
C353 C 0.61788 0.09573 0.26113 0.0
C354 C 0.5584 0.08313 0.24394 0.0
C355 C 0.55319 0.09643 0.2795 0.0
C356 C 0.58077 0.10972 0.30559 0.0
C357 C 0.61255 0.10949 0.29654 0.0
C358 C 0.48151 0.08216 0.33316 0.0
C359 C 0.45425 0.09619 0.30687 0.0
C360 C 0.51353 0.08244 0.32447 0.0
C361 C 0.51919 0.09675 0.28924 0.0
C362 C 0.49198 0.11148 0.26326 0.0
C363 C 0.4601 0.1113 0.27195 0.0
H364 H 0.57181 0.88111 0.69865 0.0
H365 H 0.62523 0.82498 0.80081 0.0
H366 H 0.52126 0.88122 0.7255 0.0
H367 H 0.57493 0.82447 0.82726 0.0
H368 H 0.48698 0.88232 0.87677 0.0
H369 H 0.53762 0.87691 0.85028 0.0
H370 H 0.48068 0.832 0.74627 0.0
H371 H 0.43041 0.83794 0.77239 0.0
C372 C 0.57275 0.86828 0.7266 0.0
C373 C 0.60275 0.85327 0.74749 0.0
C374 C 0.54372 0.86824 0.74206 0.0
C375 C 0.54395 0.85318 0.7788 0.0
C376 C 0.57382 0.83715 0.79923 0.0
C377 C 0.60271 0.83713 0.78382 0.0
C378 C 0.48534 0.87073 0.84845 0.0
C379 C 0.4545 0.86084 0.82678 0.0
C380 C 0.5144 0.86762 0.83316 0.0
C381 C 0.51331 0.8545 0.79585 0.0
C382 C 0.48253 0.84319 0.77474 0.0
C383 C 0.45364 0.84627 0.78994 0.0
H384 H 0.08724 0.62476 0.21314 0.0
H385 H 0.12393 0.56599 0.32071 0.0
H386 H 1.03173 0.62652 0.22818 0.0
H387 H 0.06859 0.56777 0.33568 0.0
H388 H 0.97134 0.62038 0.36484 0.0
H389 H 1.02678 0.61968 0.34965 0.0
H390 H 0.98688 0.57687 0.23809 0.0
H391 H 0.93156 0.57757 0.25322 0.0
C392 C 0.08354 0.61187 0.23987 0.0
C393 C 0.11035 0.59537 0.26567 0.0
C394 C 0.0516 0.61288 0.24854 0.0
C395 C 0.04553 0.59741 0.28325 0.0
C396 C 0.07231 0.58078 0.30896 0.0
C397 C 0.10419 0.57974 0.3003 0.0
C398 C 0.97432 0.61047 0.33715 0.0
C399 C 0.9467 0.59913 0.31032 0.0
C400 C 1.00623 0.61006 0.3284 0.0
C401 C 1.01146 0.59827 0.29256 0.0
C402 C 0.98386 0.58692 0.26577 0.0
C403 C 0.95199 0.58731 0.27452 0.0
H404 H 0.09701 0.42881 0.72001 0.0
H405 H 0.09449 0.28128 0.73209 0.0
H406 H 0.058 0.43663 0.76259 0.0
H407 H 0.05496 0.2893 0.77472 0.0
H408 H 0.95943 0.33103 0.82389 0.0
H409 H 0.99642 0.31696 0.77908 0.0
H410 H 0.06209 0.42294 0.83068 0.0
H411 H 1.02572 0.43686 0.87515 0.0
C412 C 0.08808 0.39796 0.73155 0.0
C413 C 0.09939 0.35445 0.72287 0.0
C414 C 0.06571 0.40248 0.75612 0.0
C415 C 0.05369 0.36362 0.7725 0.0
C416 C 0.06373 0.31991 0.76258 0.0
C417 C 0.08645 0.31538 0.73818 0.0
C418 C 0.98195 0.35095 0.8259 0.0
C419 C 0.98936 0.38535 0.85306 0.0
C420 C 1.00313 0.34287 0.80022 0.0
C421 C 1.03195 0.36935 0.80094 0.0
C422 C 0.03978 0.40257 0.82884 0.0
C423 C 1.01892 0.41032 0.85456 0.0
H424 H 0.19061 0.71813 0.24985 0.0
H425 H 0.2439 0.74459 0.1604 0.0
H426 H 0.20755 0.79243 0.27681 0.0
H427 H 0.2602 0.82011 0.18643 0.0
H428 H 0.32878 0.90054 0.27718 0.0
H429 H 0.30041 0.83889 0.23964 0.0
H430 H 0.20964 0.87344 0.27768 0.0
H431 H 0.23849 0.93287 0.31706 0.0
C432 C 0.20433 0.74124 0.23482 0.0
C433 C 0.2156 0.72627 0.20289 0.0
C434 C 0.21433 0.78374 0.25038 0.0
C435 C 0.23587 0.81192 0.23421 0.0
C436 C 0.24424 0.79875 0.20003 0.0
C437 C 0.23436 0.75601 0.18463 0.0
C438 C 0.3029 0.89456 0.27793 0.0
C439 C 0.28602 0.92157 0.30031 0.0
C440 C 0.2864 0.85984 0.25575 0.0
C441 C 0.25257 0.85149 0.25525 0.0
C442 C 0.23568 0.87874 0.27745 0.0
C443 C 0.25223 0.91309 0.29986 0.0
H444 H 0.80777 0.89791 0.23993 0.0
H445 H 0.73019 0.92592 0.30238 0.0
H446 H 0.82901 0.83747 0.28375 0.0
H447 H 0.75228 0.86734 0.34766 0.0
H448 H 0.76912 0.71422 0.37847 0.0
H449 H 0.75367 0.78799 0.35062 0.0
H450 H 0.85591 0.81552 0.34357 0.0
H451 H 0.87101 0.73958 0.37031 0.0
C452 C 0.79543 0.89107 0.26327 0.0
C453 C 0.76698 0.91554 0.26747 0.0
C454 C 0.80789 0.85707 0.28879 0.0
C455 C 0.79248 0.84743 0.31947 0.0
C456 C 0.76448 0.87313 0.32408 0.0
C457 C 0.75167 0.9065 0.29813 0.0
C458 C 0.78844 0.73669 0.37203 0.0
C459 C 0.82113 0.72123 0.37603 0.0
C460 C 0.77962 0.77925 0.35613 0.0
C461 C 0.8034 0.80753 0.344 0.0
C462 C 0.83683 0.79403 0.35172 0.0
C463 C 0.84565 0.751 0.36762 0.0
H464 H 0.67758 0.11268 0.75228 0.0
H465 H 0.76648 0.03388 0.75378 0.0
H466 H 0.71109 0.17957 0.77674 0.0
H467 H 0.79973 0.09962 0.77857 0.0
H468 H 0.84689 0.23724 0.76489 0.0
H469 H 0.81057 0.17213 0.74817 0.0
H470 H 0.75247 0.2114 0.83072 0.0
H471 H 0.78859 0.27802 0.84692 0.0
C472 C 0.70419 0.10952 0.75864 0.0
C473 C 0.71963 0.06867 0.75075 0.0
C474 C 0.72333 0.14759 0.77259 0.0
C475 C 0.75804 0.14502 0.77881 0.0
C476 C 0.7731 0.10301 0.77317 0.0
C477 C 0.75412 0.06535 0.75918 0.0
C478 C 0.82619 0.23254 0.77922 0.0
C479 C 0.8207 0.26295 0.80724 0.0
C480 C 0.80557 0.19481 0.76996 0.0
C481 C 0.7789 0.18634 0.78846 0.0
C482 C 0.77286 0.21711 0.81601 0.0
C483 C 0.79369 0.25497 0.82546 0.0
H484 H 0.24777 0.23536 0.70746 0.0
H485 H 0.29224 0.32255 0.79726 0.0
H486 H 0.28636 0.174 0.73052 0.0
H487 H 0.3321 0.26261 0.81948 0.0
H488 H 0.35572 0.12574 0.88019 0.0
H489 H 0.32938 0.19402 0.85129 0.0
H490 H 0.33994 0.14188 0.74341 0.0
H491 H 0.36468 0.07175 0.77264 0.0
C492 C 0.26646 0.24166 0.73159 0.0
C493 C 0.26682 0.28316 0.75102 0.0
C494 C 0.28874 0.20669 0.74476 0.0
C495 C 0.31217 0.21295 0.7773 0.0
C496 C 0.31385 0.25594 0.79503 0.0
C497 C 0.29118 0.2904 0.78228 0.0
C498 C 0.35264 0.12894 0.85031 0.0
C499 C 0.36174 0.09296 0.82868 0.0
C500 C 0.33787 0.16851 0.83364 0.0
C501 C 0.33218 0.17356 0.79483 0.0
C502 C 0.34335 0.13885 0.77331 0.0
C503 C 0.35796 0.09891 0.79007 0.0
H504 H 0.76805 0.45974 0.26242 0.0
H505 H 0.83211 0.36542 0.33242 0.0
H506 H 0.74639 0.39622 0.22203 0.0
H507 H 0.81162 0.3028 0.29065 0.0
H508 H 0.79422 0.21144 0.19274 0.0
H509 H 0.81255 0.28609 0.21851 0.0
H510 H 0.7134 0.31604 0.23516 0.0
H511 H 0.69499 0.24043 0.20948 0.0
C512 C 0.77748 0.42558 0.26939 0.0
C513 C 0.80167 0.41772 0.30111 0.0
C514 C 0.76519 0.38942 0.24599 0.0
C515 C 0.77747 0.34497 0.25327 0.0
C516 C 0.80207 0.33709 0.28432 0.0
C517 C 0.81391 0.37299 0.30812 0.0
C518 C 0.77609 0.23473 0.2006 0.0
C519 C 0.74331 0.22046 0.19946 0.0
C520 C 0.78663 0.27717 0.21552 0.0
C521 C 0.76448 0.30609 0.22938 0.0
C522 C 0.73085 0.29406 0.22458 0.0
C523 C 0.72027 0.25116 0.20968 0.0
H524 H 0.30844 0.46631 0.30617 0.0
H525 H 0.24188 0.36964 0.24187 0.0
H526 H 0.33396 0.40328 0.34508 0.0
H527 H 0.26629 0.30772 0.28214 0.0
H528 H 0.28709 0.21996 0.3811 0.0
H529 H 0.26956 0.29589 0.35778 0.0
H530 H 0.36517 0.31891 0.32743 0.0
H531 H 0.38288 0.2422 0.35128 0.0
C532 C 0.29933 0.43178 0.30007 0.0
C533 C 0.27298 0.42319 0.27069 0.0
C534 C 0.31385 0.39591 0.32261 0.0
C535 C 0.30179 0.35108 0.31668 0.0
C536 C 0.27564 0.34233 0.28747 0.0
C537 C 0.26155 0.37787 0.26457 0.0
C538 C 0.30499 0.24228 0.3715 0.0
C539 C 0.33641 0.22578 0.36841 0.0
C540 C 0.29483 0.28541 0.35773 0.0
C541 C 0.31592 0.31265 0.34046 0.0
C542 C 0.34862 0.29836 0.34087 0.0
C543 C 0.35883 0.25482 0.35474 0.0
H544 H 0.20357 0.5762 0.79109 0.0
H545 H 0.25101 0.5916 0.69526 0.0
H546 H 0.22796 0.6493 0.81562 0.0
H547 H 0.27559 0.66371 0.71977 0.0
H548 H 0.28677 0.81268 0.75549 0.0
H549 H 0.25834 0.74237 0.7323 0.0
H550 H 0.28508 0.67992 0.84037 0.0
H551 H 0.31297 0.75094 0.86387 0.0
C552 C 0.21897 0.59539 0.77522 0.0
C553 C 0.22557 0.57822 0.74143 0.0
C554 C 0.23314 0.63689 0.78935 0.0
C555 C 0.25373 0.66213 0.76962 0.0
C556 C 0.25963 0.64528 0.73546 0.0
C557 C 0.24577 0.60382 0.72157 0.0
C558 C 0.28636 0.78412 0.77439 0.0
C559 C 0.30221 0.78732 0.81146 0.0
C560 C 0.27028 0.74374 0.76105 0.0
C561 C 0.26952 0.70563 0.78451 0.0
C562 C 0.28503 0.70889 0.82174 0.0
C563 C 0.30136 0.74929 0.83505 0.0
H564 H 0.71472 0.73287 0.75313 0.0
H565 H 0.80753 0.80314 0.75549 0.0
H566 H 0.7441 0.66106 0.76968 0.0
H567 H 0.83706 0.73138 0.77074 0.0
H568 H 0.87908 0.60738 0.84075 0.0
H569 H 0.85145 0.67902 0.81982 0.0
H570 H 0.77573 0.60258 0.74826 0.0
H571 H 0.80291 0.53094 0.77048 0.0
C572 C 0.74141 0.73275 0.75687 0.0
C573 C 0.75884 0.77358 0.75342 0.0
C574 C 0.75832 0.6916 0.76611 0.0
C575 C 0.79306 0.69027 0.77159 0.0
C576 C 0.81039 0.73116 0.76751 0.0
C577 C 0.79348 0.77235 0.75875 0.0
C578 C 0.85682 0.60607 0.8201 0.0
C579 C 0.84306 0.56372 0.80729 0.0
C580 C 0.84094 0.64711 0.80803 0.0
C581 C 0.81112 0.64672 0.78251 0.0
C582 C 0.79818 0.60424 0.76857 0.0
C583 C 0.81386 0.5632 0.78102 0.0
H584 H 0.40326 0.95716 0.4804 0.0
H585 H 0.438 0.09404 0.46215 0.0
H586 H 0.45418 0.94116 0.5227 0.0
H587 H 0.48851 0.07895 0.50606 0.0
H588 H 0.59002 0.01449 0.5439 0.0
H589 H 0.53724 0.03788 0.50947 0.0
H590 H 0.48771 0.95368 0.58067 0.0
H591 H 0.54131 0.92775 0.61382 0.0
C592 C 0.42165 0.98412 0.48582 0.0
C593 C 0.4167 0.02677 0.46763 0.0
C594 C 0.45081 0.97508 0.51048 0.0
C595 C 0.47568 0.00867 0.51803 0.0
C596 C 0.47027 0.05185 0.50051 0.0
C597 C 0.44125 0.06065 0.47538 0.0
C598 C 0.56793 0.00073 0.55222 0.0
C599 C 0.56997 0.96829 0.58107 0.0
C600 C 0.53745 0.01482 0.53275 0.0
C601 C 0.50795 -0.00255 0.54186 0.0
C602 C 0.5099 0.96707 0.57227 0.0
C603 C 0.5406 0.9526 0.59165 0.0
H604 H 0.66772 0.98234 0.06291 0.0
H605 H 0.61965 0.07633 0.12763 0.0
H606 H 0.61437 0.96148 1.02678 0.0
H607 H 0.56623 0.05561 0.09118 0.0
H608 H 0.47754 0.96157 0.05379 0.0
H609 H 0.5313 0.98621 0.08569 0.0
H610 H 0.56693 -0.00916 0.98143 0.0
H611 H 0.51244 0.96653 0.94907 0.0
C612 C 0.6458 -0.00112 0.06928 0.0
C613 C 0.64798 0.03074 0.09847 0.0
C614 C 0.61522 0.98707 0.04835 0.0
C615 C 0.58603 0.00661 0.05623 0.0
C616 C 0.58826 0.03944 0.08475 0.0
C617 C 0.61889 0.0515 0.10555 0.0
C618 C 0.49661 0.96827 0.03744 0.0
C619 C 0.49041 0.96265 0.99869 0.0
C620 C 0.52751 0.98249 0.05583 0.0
C621 C 0.55327 -0.00878 0.03609 0.0
C622 C 0.54754 0.98436 0.99744 0.0
C623 C 0.51639 0.97027 0.9789 0.0
H624 H 0.05638 0.45458 0.61379 0.0
H625 H 0.09941 0.49714 0.5195 0.0
H626 H 1.00182 0.47536 0.58069 0.0
H627 H 0.04487 0.51743 0.48615 0.0
H628 H 0.94606 0.5893 0.44944 0.0
H629 H 1.00068 0.57188 0.48452 0.0
H630 H 0.96112 0.45087 0.52987 0.0
H631 H 0.90667 0.46884 0.49576 0.0
C632 C 0.05416 0.46789 0.58584 0.0
C633 C 0.0823 0.47411 0.56931 0.0
C634 C 1.02286 0.47988 0.56682 0.0
C635 C 1.01885 0.49815 0.53068 0.0
C636 C 0.04703 0.50427 0.51416 0.0
C637 C 0.07833 0.49248 0.53325 0.0
C638 C 0.94902 0.55912 0.46705 0.0
C639 C 0.92193 0.53052 0.46975 0.0
C640 C 0.98039 0.54894 0.487 0.0
C641 C 0.9854 0.50989 0.51007 0.0
C642 C 0.95818 0.48159 0.5129 0.0
C643 C 0.9269 0.49181 0.49309 0.0
H644 H 0.14989 0.44955 0.10128 0.0
H645 H 0.11457 0.58625 0.11778 0.0
H646 H 0.0958 0.42824 0.06804 0.0
H647 H 0.06049 0.56557 0.08283 0.0
H648 H 0.9587 0.50414 0.04357 0.0
H649 H 1.0116 0.52211 0.08248 0.0
H650 H 0.06147 0.43967 1.01105 0.0
H651 H 1.00875 0.42079 0.9733 0.0
C652 C 0.13062 0.47529 0.09747 0.0
C653 C 0.13665 0.51975 0.11193 0.0
C654 C 0.09953 0.46309 0.07819 0.0
C655 C 0.07365 0.4952 0.07232 0.0
C656 C 0.07962 0.53967 0.08714 0.0
C657 C 0.11071 0.55171 0.10693 0.0
C658 C 0.98102 0.48959 0.03653 0.0
C659 C 0.97949 0.46084 1.0055 0.0
C660 C 1.01139 0.50013 0.05863 0.0
C661 C 0.04101 0.48254 0.04997 0.0
C662 C 0.03928 0.45321 1.01917 0.0
C663 C 1.00894 0.44229 0.9974 0.0
loop_
_geom_bond_atom_site_label_1
_geom_bond_atom_site_label_2
_geom_bond_distance
_geom_bond_site_symmetry_2
_ccdc_geom_bond_type
C0 C1 1.351 . S
C0 N3 1.368 . S
C0 H5 0.931 . S
C1 C0 1.351 . S
C1 N2 1.373 . S
C1 H29 0.930 . S
N2 C1 1.373 . S
N2 C4 1.340 . S
N3 C0 1.368 . S
N3 C4 1.321 . S
N3 Co6 2.135 . S
C4 N2 1.340 . S
C4 N3 1.321 . S
C4 H28 0.930 . S
H5 C0 0.931 . S
Co6 N3 2.135 . S
Co6 N9 2.121 . S
Co6 O14 2.055 . S
Co6 O17 2.039 . S
Co6 N20 2.140 . S
C7 O8 1.227 . S
C7 O17 1.265 . S
O8 C7 1.227 . S
N9 Co6 2.121 . S
N9 C11 1.375 . S
N9 C12 1.313 . S
C10 C11 1.338 . S
C10 N13 1.377 . S
C10 H30 0.930 . S
C11 N9 1.375 . S
C11 C10 1.338 . S
C11 H15 0.931 . S
C12 N9 1.313 . S
C12 N13 1.344 . S
C12 H16 0.930 . S
N13 C10 1.377 . S
N13 C12 1.344 . S
O14 Co6 2.055 . S
O14 C18 1.253 . S
H15 C11 0.931 . S
H16 C12 0.930 . S
O17 Co6 2.039 . S
O17 C7 1.265 . S
C18 O14 1.253 . S
C18 O19 1.227 . S
O19 C18 1.227 . S
N20 Co6 2.140 . S
N20 C23 1.346 . S
N20 C24 1.345 . S
C21 C22 1.386 1_565 S
C21 C25 1.391 1_565 S
C22 C21 1.386 1_545 S
C22 C23 1.387 . S
C22 H31 0.913 1_545 S
C23 N20 1.346 . S
C23 C22 1.387 . S
C23 H26 0.928 . S
C24 N20 1.345 . S
C24 C25 1.371 . S
C24 H27 0.931 . S
C25 C21 1.391 1_545 S
C25 C24 1.371 . S
C25 H32 0.930 . S
H26 C23 0.928 . S
H27 C24 0.931 . S
H28 C4 0.930 . S
H29 C1 0.930 . S
H30 C10 0.930 . S
H31 C22 0.913 1_565 S
H32 C25 0.930 . S
C33 C34 1.351 . S
C33 N36 1.368 . S
C33 H38 0.931 . S
C34 C33 1.351 . S
C34 N35 1.373 . S
C34 H62 0.930 . S
N35 C34 1.373 . S
N35 C37 1.340 . S
N36 C33 1.368 . S
N36 C37 1.321 . S
N36 Co39 2.135 . S
C37 N35 1.340 . S
C37 N36 1.321 . S
C37 H61 0.930 . S
H38 C33 0.931 . S
Co39 N36 2.135 . S
Co39 N42 2.121 . S
Co39 O47 2.055 . S
Co39 O50 2.039 . S
Co39 N53 2.140 . S
C40 O41 1.227 . S
C40 O50 1.265 . S
O41 C40 1.227 . S
N42 Co39 2.121 . S
N42 C44 1.375 . S
N42 C45 1.313 . S
C43 C44 1.338 . S
C43 N46 1.377 . S
C43 H63 0.930 . S
C44 N42 1.375 . S
C44 C43 1.338 . S
C44 H48 0.931 . S
C45 N42 1.313 . S
C45 N46 1.344 . S
C45 H49 0.930 . S
N46 C43 1.377 . S
N46 C45 1.344 . S
O47 Co39 2.055 . S
O47 C51 1.253 . S
H48 C44 0.931 . S
H49 C45 0.930 . S
O50 Co39 2.039 . S
O50 C40 1.265 . S
C51 O47 1.253 . S
C51 O52 1.227 . S
O52 C51 1.227 . S
N53 Co39 2.140 . S
N53 C56 1.346 . S
N53 C57 1.345 . S
C54 C55 1.386 1_565 S
C54 C58 1.391 1_565 S
C55 C54 1.386 1_545 S
C55 C56 1.387 . S
C55 H64 0.913 1_545 S
C56 N53 1.346 . S
C56 C55 1.387 . S
C56 H59 0.928 . S
C57 N53 1.345 . S
C57 C58 1.371 . S
C57 H60 0.931 . S
C58 C54 1.391 1_545 S
C58 C57 1.371 . S
C58 H65 0.930 . S
H59 C56 0.928 . S
H60 C57 0.931 . S
H61 C37 0.930 . S
H62 C34 0.930 . S
H63 C43 0.930 . S
H64 C55 0.913 1_565 S
H65 C58 0.930 . S
C66 C67 1.351 . S
C66 N69 1.368 . S
C66 H71 0.931 . S
C67 C66 1.351 . S
C67 N68 1.373 . S
C67 H95 0.930 . S
N68 C67 1.373 . S
N68 C70 1.340 . S
N69 C66 1.368 . S
N69 C70 1.321 . S
N69 Co72 2.135 . S
C70 N68 1.340 . S
C70 N69 1.321 . S
C70 H94 0.930 . S
H71 C66 0.931 . S
Co72 N69 2.135 . S
Co72 N75 2.121 . S
Co72 O80 2.055 . S
Co72 O83 2.039 . S
Co72 N86 2.140 . S
C73 O74 1.227 . S
C73 O83 1.265 . S
O74 C73 1.227 . S
N75 Co72 2.121 . S
N75 C77 1.375 . S
N75 C78 1.313 . S
C76 C77 1.338 . S
C76 N79 1.377 . S
C76 H96 0.930 . S
C77 N75 1.375 . S
C77 C76 1.338 . S
C77 H81 0.931 . S
C78 N75 1.313 . S
C78 N79 1.344 . S
C78 H82 0.930 . S
N79 C76 1.377 . S
N79 C78 1.344 . S
O80 Co72 2.055 . S
O80 C84 1.253 . S
H81 C77 0.931 . S
H82 C78 0.930 . S
O83 Co72 2.039 . S
O83 C73 1.265 . S
C84 O80 1.253 . S
C84 O85 1.227 . S
O85 C84 1.227 . S
N86 Co72 2.140 . S
N86 C89 1.346 . S
N86 C90 1.345 . S
C87 C88 1.387 . S
C87 C91 1.391 1_545 S
C88 C87 1.387 . S
C88 C89 1.369 1_545 S
C88 H97 0.929 . S
C89 N86 1.346 . S
C89 C88 1.369 1_565 S
C89 H92 0.928 . S
C90 N86 1.345 . S
C90 C91 1.371 . S
C90 H93 0.931 . S
C91 C87 1.391 1_565 S
C91 C90 1.371 . S
C91 H98 0.930 . S
H92 C89 0.928 . S
H93 C90 0.931 . S
H94 C70 0.930 . S
H95 C67 0.930 . S
H96 C76 0.930 . S
H97 C88 0.929 . S
H98 C91 0.930 . S
C99 C100 1.351 . S
C99 N102 1.368 . S
C99 H104 0.931 . S
C100 C99 1.351 . S
C100 N101 1.373 . S
C100 H128 0.930 . S
N101 C100 1.373 . S
N101 C103 1.340 . S
N102 C99 1.368 . S
N102 C103 1.321 . S
N102 Co105 2.135 . S
C103 N101 1.340 . S
C103 N102 1.321 . S
C103 H127 0.930 . S
H104 C99 0.931 . S
Co105 N102 2.135 . S
Co105 N108 2.121 . S
Co105 O113 2.055 . S
Co105 O116 2.039 . S
Co105 N119 2.140 . S
C106 O107 1.227 . S
C106 O116 1.265 . S
O107 C106 1.227 . S
N108 Co105 2.121 . S
N108 C110 1.375 . S
N108 C111 1.313 . S
C109 C110 1.338 . S
C109 N112 1.377 . S
C109 H129 0.930 . S
C110 N108 1.375 . S
C110 C109 1.338 . S
C110 H114 0.931 . S
C111 N108 1.313 . S
C111 N112 1.344 . S
C111 H115 0.930 . S
N112 C109 1.377 . S
N112 C111 1.344 . S
O113 Co105 2.055 . S
O113 C117 1.253 . S
H114 C110 0.931 . S
H115 C111 0.930 . S
O116 Co105 2.039 . S
O116 C106 1.265 . S
C117 O113 1.253 . S
C117 O118 1.227 . S
O118 C117 1.227 . S
N119 Co105 2.140 . S
N119 C122 1.346 . S
N119 C123 1.345 . S
C120 C121 1.387 . S
C120 C124 1.391 1_545 S
C121 C120 1.387 . S
C121 C122 1.369 1_545 S
C121 H130 0.929 . S
C122 N119 1.346 . S
C122 C121 1.369 1_565 S
C122 H125 0.928 . S
C123 N119 1.345 . S
C123 C124 1.371 . S
C123 H126 0.931 . S
C124 C120 1.391 1_565 S
C124 C123 1.371 . S
C124 H131 0.930 . S
H125 C122 0.928 . S
H126 C123 0.931 . S
H127 C103 0.930 . S
H128 C100 0.930 . S
H129 C109 0.930 . S
H130 C121 0.929 . S
H131 C124 0.930 . S
C132 C133 1.351 . S
C132 N135 1.368 . S
C132 H137 0.931 . S
C133 C132 1.351 . S
C133 N134 1.373 . S
C133 H161 0.930 . S
N134 C133 1.373 . S
N134 C136 1.340 . S
N135 C132 1.368 . S
N135 C136 1.321 . S
N135 Co138 2.135 . S
C136 N134 1.340 . S
C136 N135 1.321 . S
C136 H160 0.930 . S
H137 C132 0.931 . S
Co138 N135 2.135 . S
Co138 N141 2.121 . S
Co138 O146 2.055 . S
Co138 O149 2.039 . S
Co138 N152 2.140 . S
C139 O140 1.227 . S
C139 O149 1.265 . S
O140 C139 1.227 . S
N141 Co138 2.121 . S
N141 C143 1.375 . S
N141 C144 1.313 . S
C142 C143 1.338 . S
C142 N145 1.377 . S
C142 H162 0.930 . S
C143 N141 1.375 . S
C143 C142 1.338 . S
C143 H147 0.931 . S
C144 N141 1.313 . S
C144 N145 1.344 . S
C144 H148 0.930 . S
N145 C142 1.377 . S
N145 C144 1.344 . S
O146 Co138 2.055 . S
O146 C150 1.253 . S
H147 C143 0.931 . S
H148 C144 0.930 . S
O149 Co138 2.039 . S
O149 C139 1.265 . S
C150 O146 1.253 . S
C150 O151 1.227 . S
O151 C150 1.227 . S
N152 Co138 2.140 . S
N152 C155 1.346 . S
N152 C156 1.345 . S
C153 C154 1.387 . S
C153 C157 1.391 . S
C154 C153 1.387 . S
C154 C155 1.369 . S
C154 H163 0.929 . S
C155 N152 1.346 . S
C155 C154 1.369 . S
C155 H158 0.928 . S
C156 N152 1.345 . S
C156 C157 1.371 . S
C156 H159 0.931 . S
C157 C153 1.391 . S
C157 C156 1.371 . S
C157 H164 0.930 . S
H158 C155 0.928 . S
H159 C156 0.931 . S
H160 C136 0.930 . S
H161 C133 0.930 . S
H162 C142 0.930 . S
H163 C154 0.929 . S
H164 C157 0.930 . S
C165 C166 1.351 . S
C165 N168 1.368 . S
C165 H170 0.931 . S
C166 C165 1.351 . S
C166 N167 1.373 . S
C166 H194 0.930 . S
N167 C166 1.373 . S
N167 C169 1.340 . S
N168 C165 1.368 . S
N168 C169 1.321 . S
N168 Co171 2.135 . S
C169 N167 1.340 . S
C169 N168 1.321 . S
C169 H193 0.930 . S
H170 C165 0.931 . S
Co171 N168 2.135 . S
Co171 N174 2.121 . S
Co171 O179 2.055 . S
Co171 O182 2.039 . S
Co171 N185 2.140 . S
C172 O173 1.227 . S
C172 O182 1.265 . S
O173 C172 1.227 . S
N174 Co171 2.121 . S
N174 C176 1.375 . S
N174 C177 1.313 . S
C175 C176 1.338 . S
C175 N178 1.377 . S
C175 H195 0.930 . S
C176 N174 1.375 . S
C176 C175 1.338 . S
C176 H180 0.931 . S
C177 N174 1.313 . S
C177 N178 1.344 . S
C177 H181 0.930 . S
N178 C175 1.377 . S
N178 C177 1.344 . S
O179 Co171 2.055 . S
O179 C183 1.253 . S
H180 C176 0.931 . S
H181 C177 0.930 . S
O182 Co171 2.039 . S
O182 C172 1.265 . S
C183 O179 1.253 . S
C183 O184 1.227 . S
O184 C183 1.227 . S
N185 Co171 2.140 . S
N185 C188 1.346 . S
N185 C189 1.345 . S
C186 C187 1.387 . S
C186 C190 1.391 . S
C187 C186 1.387 . S
C187 C188 1.369 . S
C187 H196 0.929 . S
C188 N185 1.346 . S
C188 C187 1.369 . S
C188 H191 0.928 . S
C189 N185 1.345 . S
C189 C190 1.371 . S
C189 H192 0.931 . S
C190 C186 1.391 . S
C190 C189 1.371 . S
C190 H197 0.930 . S
H191 C188 0.928 . S
H192 C189 0.931 . S
H193 C169 0.930 . S
H194 C166 0.930 . S
H195 C175 0.930 . S
H196 C187 0.929 . S
H197 C190 0.930 . S
C198 C199 1.351 . S
C198 N201 1.368 . S
C198 H203 0.931 . S
C199 C198 1.351 . S
C199 N200 1.373 . S
C199 H227 0.930 . S
N200 C199 1.373 . S
N200 C202 1.340 . S
N201 C198 1.368 . S
N201 C202 1.321 . S
N201 Co204 2.135 . S
C202 N200 1.340 . S
C202 N201 1.321 . S
C202 H226 0.930 . S
H203 C198 0.931 . S
Co204 N201 2.135 . S
Co204 N207 2.121 . S
Co204 O212 2.055 . S
Co204 O215 2.039 . S
Co204 N218 2.140 . S
C205 O206 1.227 . S
C205 O215 1.265 . S
O206 C205 1.227 . S
N207 Co204 2.121 . S
N207 C209 1.375 . S
N207 C210 1.313 . S
C208 C209 1.338 . S
C208 N211 1.377 . S
C208 H228 0.930 . S
C209 N207 1.375 . S
C209 C208 1.338 . S
C209 H213 0.931 . S
C210 N207 1.313 . S
C210 N211 1.344 . S
C210 H214 0.930 . S
N211 C208 1.377 . S
N211 C210 1.344 . S
O212 Co204 2.055 . S
O212 C216 1.253 . S
H213 C209 0.931 . S
H214 C210 0.930 . S
O215 Co204 2.039 . S
O215 C205 1.265 . S
C216 O212 1.253 . S
C216 O217 1.227 . S
O217 C216 1.227 . S
N218 Co204 2.140 . S
N218 C221 1.346 . S
N218 C222 1.345 . S
C219 C220 1.387 . S
C219 C223 1.391 . S
C220 C219 1.387 . S
C220 C221 1.369 . S
C220 H229 0.929 . S
C221 N218 1.346 . S
C221 C220 1.369 . S
C221 H224 0.928 . S
C222 N218 1.345 . S
C222 C223 1.371 . S
C222 H225 0.931 . S
C223 C219 1.391 . S
C223 C222 1.371 . S
C223 H230 0.930 . S
H224 C221 0.928 . S
H225 C222 0.931 . S
H226 C202 0.930 . S
H227 C199 0.930 . S
H228 C208 0.930 . S
H229 C220 0.929 . S
H230 C223 0.930 . S
C231 C232 1.351 . S
C231 N234 1.368 . S
C231 H236 0.931 . S
C232 C231 1.351 . S
C232 N233 1.373 . S
C232 H260 0.930 . S
N233 C232 1.373 . S
N233 C235 1.340 . S
N234 C231 1.368 . S
N234 C235 1.321 . S
N234 Co237 2.135 . S
C235 N233 1.340 . S
C235 N234 1.321 . S
C235 H259 0.930 . S
H236 C231 0.931 . S
Co237 N234 2.135 . S
Co237 N240 2.121 . S
Co237 O245 2.055 . S
Co237 O248 2.039 . S
Co237 N251 2.140 . S
C238 O239 1.227 . S
C238 O248 1.265 . S
O239 C238 1.227 . S
N240 Co237 2.121 . S
N240 C242 1.375 . S
N240 C243 1.313 . S
C241 C242 1.338 . S
C241 N244 1.377 . S
C241 H261 0.930 . S
C242 N240 1.375 . S
C242 C241 1.338 . S
C242 H246 0.931 . S
C243 N240 1.313 . S
C243 N244 1.344 . S
C243 H247 0.930 . S
N244 C241 1.377 . S
N244 C243 1.344 . S
O245 Co237 2.055 . S
O245 C249 1.253 . S
H246 C242 0.931 . S
H247 C243 0.930 . S
O248 Co237 2.039 . S
O248 C238 1.265 . S
C249 O245 1.253 . S
C249 O250 1.227 . S
O250 C249 1.227 . S
N251 Co237 2.140 . S
N251 C254 1.346 . S
N251 C255 1.345 . S
C252 C253 1.387 . S
C252 C256 1.391 . S
C253 C252 1.387 . S
C253 C254 1.369 . S
C253 H262 0.929 . S
C254 N251 1.346 . S
C254 C253 1.369 . S
C254 H257 0.928 . S
C255 N251 1.345 . S
C255 C256 1.371 . S
C255 H258 0.931 . S
C256 C252 1.391 . S
C256 C255 1.371 . S
C256 H263 0.930 . S
H257 C254 0.928 . S
H258 C255 0.931 . S
H259 C235 0.930 . S
H260 C232 0.930 . S
H261 C241 0.930 . S
H262 C253 0.929 . S
H263 C256 0.930 . S
H264 C272 0.950 . S
H265 C277 0.950 . S
H266 C274 0.950 . S
H267 C276 0.950 . S
H268 C278 0.950 . S
H269 C280 0.950 . S
H270 C282 0.950 . S
H271 C283 0.950 . S
C272 H264 0.950 . S
C272 C273 1.386 . S
C272 C274 1.391 . S
C273 C272 1.386 . S
C273 C277 1.393 . S
C274 H266 0.950 . S
C274 C272 1.391 . S
C274 C275 1.400 . S
C275 C274 1.400 . S
C275 C276 1.398 . S
C275 C281 1.491 . S
C276 H267 0.950 . S
C276 C275 1.398 . S
C276 C277 1.391 . S
C277 H265 0.950 . S
C277 C273 1.393 . S
C277 C276 1.391 . S
C278 H268 0.950 . S
C278 C279 1.386 . S
C278 C280 1.391 . S
C279 C278 1.386 . S
C279 C283 1.393 . S
C280 H269 0.950 . S
C280 C278 1.391 . S
C280 C281 1.400 . S
C281 C275 1.491 . S
C281 C280 1.400 . S
C281 C282 1.398 . S
C282 H270 0.950 . S
C282 C281 1.398 . S
C282 C283 1.391 . S
C283 H271 0.950 . S
C283 C279 1.393 . S
C283 C282 1.391 . S
H284 C292 0.950 . S
H285 C297 0.950 . S
H286 C294 0.950 1_556 S
H287 C296 0.950 . S
H288 C298 0.950 . S
H289 C300 0.950 1_554 S
H290 C302 0.950 . S
H291 C303 0.950 . S
C292 H284 0.950 . S
C292 C293 1.386 . S
C292 C294 1.391 . S
C293 C292 1.386 . S
C293 C297 1.393 . S
C294 H286 0.950 1_554 S
C294 C292 1.391 . S
C294 C295 1.400 . S
C295 C294 1.400 . S
C295 C296 1.398 . S
C295 C301 1.491 1_554 S
C296 H287 0.950 . S
C296 C295 1.398 . S
C296 C297 1.391 . S
C297 H285 0.950 . S
C297 C293 1.393 . S
C297 C296 1.391 . S
C298 H288 0.950 . S
C298 C299 1.386 . S
C298 C300 1.391 . S
C299 C298 1.386 . S
C299 C303 1.393 . S
C300 H289 0.950 1_556 S
C300 C298 1.391 . S
C300 C301 1.400 . S
C301 C295 1.491 1_556 S
C301 C300 1.400 . S
C301 C302 1.398 . S
C302 H290 0.950 . S
C302 C301 1.398 . S
C302 C303 1.391 . S
C303 H291 0.950 . S
C303 C299 1.393 . S
C303 C302 1.391 . S
H304 C312 0.950 . S
H305 C317 0.950 . S
H306 C314 0.950 . S
H307 C316 0.950 . S
H308 C318 0.950 . S
H309 C320 0.950 . S
H310 C322 0.950 . S
H311 C323 0.950 . S
C312 H304 0.950 . S
C312 C313 1.386 . S
C312 C314 1.391 . S
C313 C312 1.386 . S
C313 C317 1.393 . S
C314 H306 0.950 . S
C314 C312 1.391 . S
C314 C315 1.400 . S
C315 C314 1.400 . S
C315 C316 1.398 . S
C315 C321 1.491 . S
C316 H307 0.950 . S
C316 C315 1.398 . S
C316 C317 1.391 . S
C317 H305 0.950 . S
C317 C313 1.393 . S
C317 C316 1.391 . S
C318 H308 0.950 . S
C318 C319 1.386 . S
C318 C320 1.391 . S
C319 C318 1.386 . S
C319 C323 1.393 . S
C320 H309 0.950 . S
C320 C318 1.391 . S
C320 C321 1.400 . S
C321 C315 1.491 . S
C321 C320 1.400 . S
C321 C322 1.398 . S
C322 H310 0.950 . S
C322 C321 1.398 . S
C322 C323 1.391 . S
C323 H311 0.950 . S
C323 C319 1.393 . S
C323 C322 1.391 . S
H324 C332 0.950 . S
H325 C337 0.950 . S
H326 C334 0.950 . S
H327 C336 0.950 1_554 S
H328 C338 0.950 . S
H329 C340 0.950 . S
H330 C342 0.954 . S
H331 C343 0.950 . S
C332 H324 0.950 . S
C332 C333 1.386 . S
C332 C334 1.391 . S
C333 C332 1.386 . S
C333 C337 1.393 . S
C334 H326 0.950 . S
C334 C332 1.391 . S
C334 C335 1.400 . S
C335 C334 1.400 . S
C335 C336 1.398 . S
C335 C341 1.491 1_556 S
C336 H327 0.950 1_556 S
C336 C335 1.398 . S
C336 C337 1.391 . S
C337 H325 0.950 . S
C337 C333 1.393 . S
C337 C336 1.391 . S
C338 H328 0.950 . S
C338 C339 1.386 . S
C338 C340 1.391 . S
C339 C338 1.386 . S
C339 C343 1.393 . S
C340 H329 0.950 . S
C340 C338 1.391 . S
C340 C341 1.400 . S
C341 C335 1.491 1_554 S
C341 C340 1.400 . S
C341 C342 1.398 1_554 S
C342 H330 0.954 . S
C342 C341 1.398 1_556 S
C342 C343 1.387 1_556 S
C343 H331 0.950 . S
C343 C339 1.393 . S
C343 C342 1.387 1_554 S
H344 C352 0.950 . S
H345 C357 0.950 . S
H346 C354 0.950 . S
H347 C356 0.950 . S
H348 C358 0.950 . S
H349 C360 0.950 . S
H350 C362 0.950 . S
H351 C363 0.950 . S
C352 H344 0.950 . S
C352 C353 1.386 . S
C352 C354 1.391 . S
C353 C352 1.386 . S
C353 C357 1.393 . S
C354 H346 0.950 . S
C354 C352 1.391 . S
C354 C355 1.400 . S
C355 C354 1.400 . S
C355 C356 1.398 . S
C355 C361 1.491 . S
C356 H347 0.950 . S
C356 C355 1.398 . S
C356 C357 1.391 . S
C357 H345 0.950 . S
C357 C353 1.393 . S
C357 C356 1.391 . S
C358 H348 0.950 . S
C358 C359 1.386 . S
C358 C360 1.391 . S
C359 C358 1.386 . S
C359 C363 1.393 . S
C360 H349 0.950 . S
C360 C358 1.391 . S
C360 C361 1.400 . S
C361 C355 1.491 . S
C361 C360 1.400 . S
C361 C362 1.398 . S
C362 H350 0.950 . S
C362 C361 1.398 . S
C362 C363 1.391 . S
C363 H351 0.950 . S
C363 C359 1.393 . S
C363 C362 1.391 . S
H364 C372 0.950 . S
H365 C377 0.950 . S
H366 C374 0.950 . S
H367 C376 0.950 . S
H368 C378 0.950 . S
H369 C380 0.950 . S
H370 C382 0.950 . S
H371 C383 0.950 . S
C372 H364 0.950 . S
C372 C373 1.386 . S
C372 C374 1.391 . S
C373 C372 1.386 . S
C373 C377 1.393 . S
C374 H366 0.950 . S
C374 C372 1.391 . S
C374 C375 1.400 . S
C375 C374 1.400 . S
C375 C376 1.398 . S
C375 C381 1.491 . S
C376 H367 0.950 . S
C376 C375 1.398 . S
C376 C377 1.391 . S
C377 H365 0.950 . S
C377 C373 1.393 . S
C377 C376 1.391 . S
C378 H368 0.950 . S
C378 C379 1.386 . S
C378 C380 1.391 . S
C379 C378 1.386 . S
C379 C383 1.393 . S
C380 H369 0.950 . S
C380 C378 1.391 . S
C380 C381 1.400 . S
C381 C375 1.491 . S
C381 C380 1.400 . S
C381 C382 1.398 . S
C382 H370 0.950 . S
C382 C381 1.398 . S
C382 C383 1.391 . S
C383 H371 0.950 . S
C383 C379 1.393 . S
C383 C382 1.391 . S
H384 C392 0.950 . S
H385 C397 0.950 . S
H386 C394 0.950 1_655 S
H387 C396 0.950 . S
H388 C398 0.950 . S
H389 C400 0.950 1_455 S
H390 C402 0.950 . S
H391 C403 0.950 . S
C392 H384 0.950 . S
C392 C393 1.386 . S
C392 C394 1.391 . S
C393 C392 1.386 . S
C393 C397 1.393 . S
C394 H386 0.950 1_455 S
C394 C392 1.391 . S
C394 C395 1.400 . S
C395 C394 1.400 . S
C395 C396 1.398 . S
C395 C401 1.491 1_455 S
C396 H387 0.950 . S
C396 C395 1.398 . S
C396 C397 1.391 . S
C397 H385 0.950 . S
C397 C393 1.393 . S
C397 C396 1.391 . S
C398 H388 0.950 . S
C398 C399 1.386 . S
C398 C400 1.391 . S
C399 C398 1.386 . S
C399 C403 1.393 . S
C400 H389 0.950 1_655 S
C400 C398 1.391 . S
C400 C401 1.400 . S
C401 C395 1.491 1_655 S
C401 C400 1.400 . S
C401 C402 1.398 . S
C402 H390 0.950 . S
C402 C401 1.398 . S
C402 C403 1.391 . S
C403 H391 0.950 . S
C403 C399 1.393 . S
C403 C402 1.391 . S
H404 C412 0.950 . S
H405 C417 0.950 . S
H406 C414 0.950 1_655 S
H407 C416 0.950 . S
H408 C418 0.950 . S
H409 C420 0.950 1_455 S
H410 C422 0.950 . S
H411 C423 0.950 . S
C412 H404 0.950 . S
C412 C413 1.386 . S
C412 C414 1.391 . S
C413 C412 1.386 . S
C413 C417 1.393 . S
C414 H406 0.950 1_455 S
C414 C412 1.391 . S
C414 C415 1.400 . S
C415 C414 1.400 . S
C415 C416 1.398 . S
C415 C421 1.491 1_455 S
C416 H407 0.950 . S
C416 C415 1.398 . S
C416 C417 1.391 . S
C417 H405 0.950 . S
C417 C413 1.393 . S
C417 C416 1.391 . S
C418 H408 0.950 . S
C418 C419 1.386 . S
C418 C420 1.391 . S
C419 C418 1.386 . S
C419 C423 1.393 . S
C420 H409 0.950 1_655 S
C420 C418 1.391 . S
C420 C421 1.400 . S
C421 C415 1.491 1_655 S
C421 C420 1.400 . S
C421 C422 1.398 . S
C422 H410 0.950 . S
C422 C421 1.398 . S
C422 C423 1.391 . S
C423 H411 0.950 . S
C423 C419 1.393 . S
C423 C422 1.391 . S
H424 C432 0.950 . S
H425 C437 0.950 . S
H426 C434 0.950 . S
H427 C436 0.950 . S
H428 C438 0.950 . S
H429 C440 0.950 . S
H430 C442 0.950 . S
H431 C443 0.950 . S
C432 H424 0.950 . S
C432 C433 1.386 . S
C432 C434 1.391 . S
C433 C432 1.386 . S
C433 C437 1.393 . S
C434 H426 0.950 . S
C434 C432 1.391 . S
C434 C435 1.400 . S
C435 C434 1.400 . S
C435 C436 1.398 . S
C435 C441 1.491 . S
C436 H427 0.950 . S
C436 C435 1.398 . S
C436 C437 1.391 . S
C437 H425 0.950 . S
C437 C433 1.393 . S
C437 C436 1.391 . S
C438 H428 0.950 . S
C438 C439 1.386 . S
C438 C440 1.391 . S
C439 C438 1.386 . S
C439 C443 1.393 . S
C440 H429 0.950 . S
C440 C438 1.391 . S
C440 C441 1.400 . S
C441 C435 1.491 . S
C441 C440 1.400 . S
C441 C442 1.398 . S
C442 H430 0.950 . S
C442 C441 1.398 . S
C442 C443 1.391 . S
C443 H431 0.950 . S
C443 C439 1.393 . S
C443 C442 1.391 . S
H444 C452 0.950 . S
H445 C457 0.950 . S
H446 C454 0.950 . S
H447 C456 0.950 . S
H448 C458 0.950 . S
H449 C460 0.950 . S
H450 C462 0.950 . S
H451 C463 0.950 . S
C452 H444 0.950 . S
C452 C453 1.386 . S
C452 C454 1.391 . S
C453 C452 1.386 . S
C453 C457 1.393 . S
C454 H446 0.950 . S
C454 C452 1.391 . S
C454 C455 1.400 . S
C455 C454 1.400 . S
C455 C456 1.398 . S
C455 C461 1.491 . S
C456 H447 0.950 . S
C456 C455 1.398 . S
C456 C457 1.391 . S
C457 H445 0.950 . S
C457 C453 1.393 . S
C457 C456 1.391 . S
C458 H448 0.950 . S
C458 C459 1.386 . S
C458 C460 1.391 . S
C459 C458 1.386 . S
C459 C463 1.393 . S
C460 H449 0.950 . S
C460 C458 1.391 . S
C460 C461 1.400 . S
C461 C455 1.491 . S
C461 C460 1.400 . S
C461 C462 1.398 . S
C462 H450 0.950 . S
C462 C461 1.398 . S
C462 C463 1.391 . S
C463 H451 0.950 . S
C463 C459 1.393 . S
C463 C462 1.391 . S
H464 C472 0.950 . S
H465 C477 0.950 . S
H466 C474 0.950 . S
H467 C476 0.950 . S
H468 C478 0.950 . S
H469 C480 0.950 . S
H470 C482 0.950 . S
H471 C483 0.950 . S
C472 H464 0.950 . S
C472 C473 1.386 . S
C472 C474 1.391 . S
C473 C472 1.386 . S
C473 C477 1.393 . S
C474 H466 0.950 . S
C474 C472 1.391 . S
C474 C475 1.400 . S
C475 C474 1.400 . S
C475 C476 1.398 . S
C475 C481 1.491 . S
C476 H467 0.950 . S
C476 C475 1.398 . S
C476 C477 1.391 . S
C477 H465 0.950 . S
C477 C473 1.393 . S
C477 C476 1.391 . S
C478 H468 0.950 . S
C478 C479 1.386 . S
C478 C480 1.391 . S
C479 C478 1.386 . S
C479 C483 1.393 . S
C480 H469 0.950 . S
C480 C478 1.391 . S
C480 C481 1.400 . S
C481 C475 1.491 . S
C481 C480 1.400 . S
C481 C482 1.398 . S
C482 H470 0.950 . S
C482 C481 1.398 . S
C482 C483 1.391 . S
C483 H471 0.950 . S
C483 C479 1.393 . S
C483 C482 1.391 . S
H484 C492 0.950 . S
H485 C497 0.950 . S
H486 C494 0.950 . S
H487 C496 0.950 . S
H488 C498 0.950 . S
H489 C500 0.950 . S
H490 C502 0.950 . S
H491 C503 0.950 . S
C492 H484 0.950 . S
C492 C493 1.386 . S
C492 C494 1.391 . S
C493 C492 1.386 . S
C493 C497 1.393 . S
C494 H486 0.950 . S
C494 C492 1.391 . S
C494 C495 1.400 . S
C495 C494 1.400 . S
C495 C496 1.398 . S
C495 C501 1.491 . S
C496 H487 0.950 . S
C496 C495 1.398 . S
C496 C497 1.391 . S
C497 H485 0.950 . S
C497 C493 1.393 . S
C497 C496 1.391 . S
C498 H488 0.950 . S
C498 C499 1.386 . S
C498 C500 1.391 . S
C499 C498 1.386 . S
C499 C503 1.393 . S
C500 H489 0.950 . S
C500 C498 1.391 . S
C500 C501 1.400 . S
C501 C495 1.491 . S
C501 C500 1.400 . S
C501 C502 1.398 . S
C502 H490 0.950 . S
C502 C501 1.398 . S
C502 C503 1.391 . S
C503 H491 0.950 . S
C503 C499 1.393 . S
C503 C502 1.391 . S
H504 C512 0.950 . S
H505 C517 0.950 . S
H506 C514 0.950 . S
H507 C516 0.950 . S
H508 C518 0.950 . S
H509 C520 0.950 . S
H510 C522 0.950 . S
H511 C523 0.950 . S
C512 H504 0.950 . S
C512 C513 1.386 . S
C512 C514 1.391 . S
C513 C512 1.386 . S
C513 C517 1.393 . S
C514 H506 0.950 . S
C514 C512 1.391 . S
C514 C515 1.400 . S
C515 C514 1.400 . S
C515 C516 1.398 . S
C515 C521 1.491 . S
C516 H507 0.950 . S
C516 C515 1.398 . S
C516 C517 1.391 . S
C517 H505 0.950 . S
C517 C513 1.393 . S
C517 C516 1.391 . S
C518 H508 0.950 . S
C518 C519 1.386 . S
C518 C520 1.391 . S
C519 C518 1.386 . S
C519 C523 1.393 . S
C520 H509 0.950 . S
C520 C518 1.391 . S
C520 C521 1.400 . S
C521 C515 1.491 . S
C521 C520 1.400 . S
C521 C522 1.398 . S
C522 H510 0.950 . S
C522 C521 1.398 . S
C522 C523 1.391 . S
C523 H511 0.950 . S
C523 C519 1.393 . S
C523 C522 1.391 . S
H524 C532 0.950 . S
H525 C537 0.950 . S
H526 C534 0.950 . S
H527 C536 0.950 . S
H528 C538 0.950 . S
H529 C540 0.950 . S
H530 C542 0.950 . S
H531 C543 0.950 . S
C532 H524 0.950 . S
C532 C533 1.386 . S
C532 C534 1.391 . S
C533 C532 1.386 . S
C533 C537 1.393 . S
C534 H526 0.950 . S
C534 C532 1.391 . S
C534 C535 1.400 . S
C535 C534 1.400 . S
C535 C536 1.398 . S
C535 C541 1.491 . S
C536 H527 0.950 . S
C536 C535 1.398 . S
C536 C537 1.391 . S
C537 H525 0.950 . S
C537 C533 1.393 . S
C537 C536 1.391 . S
C538 H528 0.950 . S
C538 C539 1.386 . S
C538 C540 1.391 . S
C539 C538 1.386 . S
C539 C543 1.393 . S
C540 H529 0.950 . S
C540 C538 1.391 . S
C540 C541 1.400 . S
C541 C535 1.491 . S
C541 C540 1.400 . S
C541 C542 1.398 . S
C542 H530 0.950 . S
C542 C541 1.398 . S
C542 C543 1.391 . S
C543 H531 0.950 . S
C543 C539 1.393 . S
C543 C542 1.391 . S
H544 C552 0.950 . S
H545 C557 0.950 . S
H546 C554 0.950 . S
H547 C556 0.950 . S
H548 C558 0.950 . S
H549 C560 0.950 . S
H550 C562 0.950 . S
H551 C563 0.950 . S
C552 H544 0.950 . S
C552 C553 1.386 . S
C552 C554 1.391 . S
C553 C552 1.386 . S
C553 C557 1.393 . S
C554 H546 0.950 . S
C554 C552 1.391 . S
C554 C555 1.400 . S
C555 C554 1.400 . S
C555 C556 1.398 . S
C555 C561 1.491 . S
C556 H547 0.950 . S
C556 C555 1.398 . S
C556 C557 1.391 . S
C557 H545 0.950 . S
C557 C553 1.393 . S
C557 C556 1.391 . S
C558 H548 0.950 . S
C558 C559 1.386 . S
C558 C560 1.391 . S
C559 C558 1.386 . S
C559 C563 1.393 . S
C560 H549 0.950 . S
C560 C558 1.391 . S
C560 C561 1.400 . S
C561 C555 1.491 . S
C561 C560 1.400 . S
C561 C562 1.398 . S
C562 H550 0.950 . S
C562 C561 1.398 . S
C562 C563 1.391 . S
C563 H551 0.950 . S
C563 C559 1.393 . S
C563 C562 1.391 . S
H564 C572 0.950 . S
H565 C577 0.950 . S
H566 C574 0.950 . S
H567 C576 0.950 . S
H568 C578 0.950 . S
H569 C580 0.950 . S
H570 C582 0.950 . S
H571 C583 0.950 . S
C572 H564 0.950 . S
C572 C573 1.386 . S
C572 C574 1.391 . S
C573 C572 1.386 . S
C573 C577 1.393 . S
C574 H566 0.950 . S
C574 C572 1.391 . S
C574 C575 1.400 . S
C575 C574 1.400 . S
C575 C576 1.398 . S
C575 C581 1.491 . S
C576 H567 0.950 . S
C576 C575 1.398 . S
C576 C577 1.391 . S
C577 H565 0.950 . S
C577 C573 1.393 . S
C577 C576 1.391 . S
C578 H568 0.950 . S
C578 C579 1.386 . S
C578 C580 1.391 . S
C579 C578 1.386 . S
C579 C583 1.393 . S
C580 H569 0.950 . S
C580 C578 1.391 . S
C580 C581 1.400 . S
C581 C575 1.491 . S
C581 C580 1.400 . S
C581 C582 1.398 . S
C582 H570 0.950 . S
C582 C581 1.398 . S
C582 C583 1.391 . S
C583 H571 0.950 . S
C583 C579 1.393 . S
C583 C582 1.391 . S
H584 C592 0.950 . S
H585 C597 0.950 . S
H586 C594 0.951 . S
H587 C596 0.950 . S
H588 C598 0.950 . S
H589 C600 0.950 . S
H590 C602 0.950 . S
H591 C603 0.950 . S
C592 H584 0.950 . S
C592 C593 1.386 . S
C592 C594 1.391 . S
C593 C592 1.386 . S
C593 C597 1.393 . S
C594 H586 0.951 . S
C594 C592 1.391 . S
C594 C595 1.400 . S
C595 C594 1.400 . S
C595 C596 1.398 . S
C595 C601 1.491 . S
C596 H587 0.950 . S
C596 C595 1.398 . S
C596 C597 1.391 . S
C597 H585 0.950 . S
C597 C593 1.393 . S
C597 C596 1.391 . S
C598 H588 0.950 . S
C598 C599 1.386 1_545 S
C598 C600 1.391 . S
C599 C598 1.386 1_565 S
C599 C603 1.393 . S
C600 H589 0.950 . S
C600 C598 1.391 . S
C600 C601 1.400 . S
C601 C595 1.491 . S
C601 C600 1.400 . S
C601 C602 1.398 1_545 S
C602 H590 0.950 . S
C602 C601 1.398 1_565 S
C602 C603 1.391 . S
C603 H591 0.950 . S
C603 C599 1.393 . S
C603 C602 1.391 . S
H604 C612 0.950 . S
H605 C617 0.950 . S
H606 C614 0.950 1_556 S
H607 C616 0.950 . S
H608 C618 0.950 . S
H609 C620 0.950 . S
H610 C622 0.950 . S
H611 C623 0.950 . S
C612 H604 0.950 . S
C612 C613 1.386 . S
C612 C614 1.391 . S
C613 C612 1.386 . S
C613 C617 1.393 . S
C614 H606 0.950 1_554 S
C614 C612 1.391 . S
C614 C615 1.400 . S
C615 C614 1.400 . S
C615 C616 1.398 . S
C615 C621 1.491 1_554 S
C616 H607 0.950 . S
C616 C615 1.398 . S
C616 C617 1.391 . S
C617 H605 0.950 . S
C617 C613 1.393 . S
C617 C616 1.391 . S
C618 H608 0.950 . S
C618 C619 1.386 . S
C618 C620 1.391 1_556 S
C619 C618 1.386 . S
C619 C623 1.393 1_565 S
C620 H609 0.950 . S
C620 C618 1.391 1_554 S
C620 C621 1.400 1_564 S
C621 C615 1.491 1_556 S
C621 C620 1.400 1_546 S
C621 C622 1.398 . S
C622 H610 0.950 . S
C622 C621 1.398 . S
C622 C623 1.391 . S
C623 H611 0.950 . S
C623 C619 1.393 1_545 S
C623 C622 1.391 . S
H624 C632 0.950 . S
H625 C637 0.950 . S
H626 C634 0.950 . S
H627 C636 0.950 . S
H628 C638 0.950 . S
H629 C640 0.950 . S
H630 C642 0.950 . S
H631 C643 0.950 . S
C632 H624 0.950 . S
C632 C633 1.386 . S
C632 C634 1.391 1_455 S
C633 C632 1.386 . S
C633 C637 1.393 . S
C634 H626 0.950 . S
C634 C632 1.391 1_655 S
C634 C635 1.400 . S
C635 C634 1.400 . S
C635 C636 1.398 1_655 S
C635 C641 1.491 . S
C636 H627 0.950 . S
C636 C635 1.398 1_455 S
C636 C637 1.391 . S
C637 H625 0.950 . S
C637 C633 1.393 . S
C637 C636 1.391 . S
C638 H628 0.950 . S
C638 C639 1.386 . S
C638 C640 1.391 . S
C639 C638 1.386 . S
C639 C643 1.393 . S
C640 H629 0.950 . S
C640 C638 1.391 . S
C640 C641 1.400 . S
C641 C635 1.491 . S
C641 C640 1.400 . S
C641 C642 1.398 . S
C642 H630 0.950 . S
C642 C641 1.398 . S
C642 C643 1.391 . S
C643 H631 0.950 . S
C643 C639 1.393 . S
C643 C642 1.391 . S
H644 C652 0.950 . S
H645 C657 0.950 . S
H646 C654 0.950 . S
H647 C656 0.950 . S
H648 C658 0.950 . S
H649 C660 0.950 . S
H650 C662 0.950 . S
H651 C663 0.950 . S
C652 H644 0.950 . S
C652 C653 1.386 . S
C652 C654 1.391 . S
C653 C652 1.386 . S
C653 C657 1.393 . S
C654 H646 0.950 . S
C654 C652 1.391 . S
C654 C655 1.400 . S
C655 C654 1.400 . S
C655 C656 1.398 . S
C655 C661 1.491 1_554 S
C656 H647 0.950 . S
C656 C655 1.398 . S
C656 C657 1.391 . S
C657 H645 0.950 . S
C657 C653 1.393 . S
C657 C656 1.391 . S
C658 H648 0.950 . S
C658 C659 1.386 . S
C658 C660 1.391 . S
C659 C658 1.386 . S
C659 C663 1.393 . S
C660 H649 0.950 . S
C660 C658 1.391 . S
C660 C661 1.400 1_655 S
C661 C655 1.491 1_556 S
C661 C660 1.400 1_455 S
C661 C662 1.398 . S
C662 H650 0.950 . S
C662 C661 1.398 . S
C662 C663 1.391 1_455 S
C663 H651 0.950 . S
C663 C659 1.393 . S
C663 C662 1.391 1_655 S
C273 C216 1.661 . S
C279 N13 1.609 . S
C293 N46 1.617 . S
C299 C249 1.658 . S
C313 C84 1.661 . S
C319 N145 1.604 . S
C333 C117 1.660 . S
C339 N178 1.611 . S
C353 N35 1.268 . S
C359 N2 1.254 . S
C373 C73 1.283 . S
C379 C106 1.262 . S
C393 N167 1.273 . S
C399 N134 1.247 . S
C413 C205 1.284 . S
C419 C238 1.268 . S
C433 C183 1.367 . S
C439 C21 1.379 . S
C453 C54 1.374 . S
C459 C150 1.367 . S
C473 C87 1.380 . S
C479 N244 1.351 . S
C493 N211 1.365 . S
C499 C120 1.380 . S
C513 C153 1.373 . S
C519 C51 1.368 . S
C533 C186 1.372 . S
C539 C18 1.371 . S
C553 C219 1.380 . S
C559 N112 1.363 . S
C573 N79 1.364 . S
C579 C252 1.380 . S
C593 C7 1.534 . S
C599 N68 1.504 . S
C613 C40 1.529 . S
C619 N101 1.506 . S
C633 N200 1.515 . S
C639 C139 1.525 . S
C653 C172 1.526 . S
C659 N233 1.514 . S
