# Generated by pormake.
# Topology unl, (4)-cn, num edge types: 1
# Building blocks:
#     Node 0, Type 0, BuildingBlock: NAHDIM_clean_sbu_0, # of connection points: 4
#     Node 1, Type 0, BuildingBlock: NAHDIM_clean_sbu_0, # of connection points: 4
#     Node 2, Type 0, BuildingBlock: NAHDIM_clean_sbu_0, # of connection points: 4
#     Node 3, Type 0, BuildingBlock: NAHDIM_clean_sbu_0, # of connection points: 4
#     Node 4, Type 0, BuildingBlock: NAHDIM_clean_sbu_0, # of connection points: 4
#     Node 5, Type 0, BuildingBlock: NAHDIM_clean_sbu_0, # of connection points: 4
#     Node 6, Type 0, BuildingBlock: NAHDIM_clean_sbu_0, # of connection points: 4
#     Node 7, Type 0, BuildingBlock: NAHDIM_clean_sbu_0, # of connection points: 4
#     Node 8, Type 0, BuildingBlock: NAHDIM_clean_sbu_0, # of connection points: 4
#     Node 9, Type 0, BuildingBlock: NAHDIM_clean_sbu_0, # of connection points: 4
#     Node 10, Type 0, BuildingBlock: NAHDIM_clean_sbu_0, # of connection points: 4
#     Node 11, Type 0, BuildingBlock: NAHDIM_clean_sbu_0, # of connection points: 4
#     Node 12, Type 0, BuildingBlock: NAHDIM_clean_sbu_0, # of connection points: 4
#     Node 13, Type 0, BuildingBlock: NAHDIM_clean_sbu_0, # of connection points: 4
#     Node 14, Type 0, BuildingBlock: NAHDIM_clean_sbu_0, # of connection points: 4
#     Node 15, Type 0, BuildingBlock: NAHDIM_clean_sbu_0, # of connection points: 4
#     Node 16, Type 0, BuildingBlock: NAHDIM_clean_sbu_0, # of connection points: 4
#     Node 17, Type 0, BuildingBlock: NAHDIM_clean_sbu_0, # of connection points: 4
#     Node 18, Type 0, BuildingBlock: NAHDIM_clean_sbu_0, # of connection points: 4
#     Node 19, Type 0, BuildingBlock: NAHDIM_clean_sbu_0, # of connection points: 4
#     Node 20, Type 0, BuildingBlock: NAHDIM_clean_sbu_0, # of connection points: 4
#     Node 21, Type 0, BuildingBlock: NAHDIM_clean_sbu_0, # of connection points: 4
#     Node 22, Type 0, BuildingBlock: NAHDIM_clean_sbu_0, # of connection points: 4
#     Node 23, Type 0, BuildingBlock: NAHDIM_clean_sbu_0, # of connection points: 4
#     Node 24, Type 0, BuildingBlock: NAHDIM_clean_sbu_0, # of connection points: 4
#     Node 25, Type 0, BuildingBlock: NAHDIM_clean_sbu_0, # of connection points: 4
#     Node 26, Type 0, BuildingBlock: NAHDIM_clean_sbu_0, # of connection points: 4
#     Node 27, Type 0, BuildingBlock: NAHDIM_clean_sbu_0, # of connection points: 4
#     Node 28, Type 0, BuildingBlock: NAHDIM_clean_sbu_0, # of connection points: 4
#     Node 29, Type 0, BuildingBlock: NAHDIM_clean_sbu_0, # of connection points: 4
#     Node 30, Type 0, BuildingBlock: NAHDIM_clean_sbu_0, # of connection points: 4
#     Node 31, Type 0, BuildingBlock: NAHDIM_clean_sbu_0, # of connection points: 4
#     Node 32, Type 0, BuildingBlock: NAHDIM_clean_sbu_0, # of connection points: 4
#     Node 33, Type 0, BuildingBlock: NAHDIM_clean_sbu_0, # of connection points: 4
#     Node 34, Type 0, BuildingBlock: NAHDIM_clean_sbu_0, # of connection points: 4
#     Node 35, Type 0, BuildingBlock: NAHDIM_clean_sbu_0, # of connection points: 4
#     Edge 36, Type (0, 0), BuildingBlock: EZIPEK_clean_linker_0, # of connection points: 2
#     Edge 37, Type (0, 0), BuildingBlock: EZIPEK_clean_linker_0, # of connection points: 2
#     Edge 38, Type (0, 0), BuildingBlock: EZIPEK_clean_linker_0, # of connection points: 2
#     Edge 39, Type (0, 0), BuildingBlock: EZIPEK_clean_linker_0, # of connection points: 2
#     Edge 40, Type (0, 0), BuildingBlock: EZIPEK_clean_linker_0, # of connection points: 2
#     Edge 41, Type (0, 0), BuildingBlock: EZIPEK_clean_linker_0, # of connection points: 2
#     Edge 42, Type (0, 0), BuildingBlock: EZIPEK_clean_linker_0, # of connection points: 2
#     Edge 43, Type (0, 0), BuildingBlock: EZIPEK_clean_linker_0, # of connection points: 2
#     Edge 44, Type (0, 0), BuildingBlock: EZIPEK_clean_linker_0, # of connection points: 2
#     Edge 45, Type (0, 0), BuildingBlock: EZIPEK_clean_linker_0, # of connection points: 2
#     Edge 46, Type (0, 0), BuildingBlock: EZIPEK_clean_linker_0, # of connection points: 2
#     Edge 47, Type (0, 0), BuildingBlock: EZIPEK_clean_linker_0, # of connection points: 2
#     Edge 48, Type (0, 0), BuildingBlock: EZIPEK_clean_linker_0, # of connection points: 2
#     Edge 49, Type (0, 0), BuildingBlock: EZIPEK_clean_linker_0, # of connection points: 2
#     Edge 50, Type (0, 0), BuildingBlock: EZIPEK_clean_linker_0, # of connection points: 2
#     Edge 51, Type (0, 0), BuildingBlock: EZIPEK_clean_linker_0, # of connection points: 2
#     Edge 52, Type (0, 0), BuildingBlock: EZIPEK_clean_linker_0, # of connection points: 2
#     Edge 53, Type (0, 0), BuildingBlock: EZIPEK_clean_linker_0, # of connection points: 2
#     Edge 54, Type (0, 0), BuildingBlock: EZIPEK_clean_linker_0, # of connection points: 2
#     Edge 55, Type (0, 0), BuildingBlock: EZIPEK_clean_linker_0, # of connection points: 2
#     Edge 56, Type (0, 0), BuildingBlock: EZIPEK_clean_linker_0, # of connection points: 2
#     Edge 57, Type (0, 0), BuildingBlock: EZIPEK_clean_linker_0, # of connection points: 2
#     Edge 58, Type (0, 0), BuildingBlock: EZIPEK_clean_linker_0, # of connection points: 2
#     Edge 59, Type (0, 0), BuildingBlock: EZIPEK_clean_linker_0, # of connection points: 2
#     Edge 60, Type (0, 0), BuildingBlock: EZIPEK_clean_linker_0, # of connection points: 2
#     Edge 61, Type (0, 0), BuildingBlock: EZIPEK_clean_linker_0, # of connection points: 2
#     Edge 62, Type (0, 0), BuildingBlock: EZIPEK_clean_linker_0, # of connection points: 2
#     Edge 63, Type (0, 0), BuildingBlock: EZIPEK_clean_linker_0, # of connection points: 2
#     Edge 64, Type (0, 0), BuildingBlock: EZIPEK_clean_linker_0, # of connection points: 2
#     Edge 65, Type (0, 0), BuildingBlock: EZIPEK_clean_linker_0, # of connection points: 2
#     Edge 66, Type (0, 0), BuildingBlock: EZIPEK_clean_linker_0, # of connection points: 2
#     Edge 67, Type (0, 0), BuildingBlock: EZIPEK_clean_linker_0, # of connection points: 2
#     Edge 68, Type (0, 0), BuildingBlock: EZIPEK_clean_linker_0, # of connection points: 2
#     Edge 69, Type (0, 0), BuildingBlock: EZIPEK_clean_linker_0, # of connection points: 2
#     Edge 70, Type (0, 0), BuildingBlock: EZIPEK_clean_linker_0, # of connection points: 2
#     Edge 71, Type (0, 0), BuildingBlock: EZIPEK_clean_linker_0, # of connection points: 2
#     Edge 72, Type (0, 0), BuildingBlock: EZIPEK_clean_linker_0, # of connection points: 2
#     Edge 73, Type (0, 0), BuildingBlock: EZIPEK_clean_linker_0, # of connection points: 2
#     Edge 74, Type (0, 0), BuildingBlock: EZIPEK_clean_linker_0, # of connection points: 2
#     Edge 75, Type (0, 0), BuildingBlock: EZIPEK_clean_linker_0, # of connection points: 2
#     Edge 76, Type (0, 0), BuildingBlock: EZIPEK_clean_linker_0, # of connection points: 2
#     Edge 77, Type (0, 0), BuildingBlock: EZIPEK_clean_linker_0, # of connection points: 2
#     Edge 78, Type (0, 0), BuildingBlock: EZIPEK_clean_linker_0, # of connection points: 2
#     Edge 79, Type (0, 0), BuildingBlock: EZIPEK_clean_linker_0, # of connection points: 2
#     Edge 80, Type (0, 0), BuildingBlock: EZIPEK_clean_linker_0, # of connection points: 2
#     Edge 81, Type (0, 0), BuildingBlock: EZIPEK_clean_linker_0, # of connection points: 2
#     Edge 82, Type (0, 0), BuildingBlock: EZIPEK_clean_linker_0, # of connection points: 2
#     Edge 83, Type (0, 0), BuildingBlock: EZIPEK_clean_linker_0, # of connection points: 2
#     Edge 84, Type (0, 0), BuildingBlock: EZIPEK_clean_linker_0, # of connection points: 2
#     Edge 85, Type (0, 0), BuildingBlock: EZIPEK_clean_linker_0, # of connection points: 2
#     Edge 86, Type (0, 0), BuildingBlock: EZIPEK_clean_linker_0, # of connection points: 2
#     Edge 87, Type (0, 0), BuildingBlock: EZIPEK_clean_linker_0, # of connection points: 2
#     Edge 88, Type (0, 0), BuildingBlock: EZIPEK_clean_linker_0, # of connection points: 2
#     Edge 89, Type (0, 0), BuildingBlock: EZIPEK_clean_linker_0, # of connection points: 2
#     Edge 90, Type (0, 0), BuildingBlock: EZIPEK_clean_linker_0, # of connection points: 2
#     Edge 91, Type (0, 0), BuildingBlock: EZIPEK_clean_linker_0, # of connection points: 2
#     Edge 92, Type (0, 0), BuildingBlock: EZIPEK_clean_linker_0, # of connection points: 2
#     Edge 93, Type (0, 0), BuildingBlock: EZIPEK_clean_linker_0, # of connection points: 2
#     Edge 94, Type (0, 0), BuildingBlock: EZIPEK_clean_linker_0, # of connection points: 2
#     Edge 95, Type (0, 0), BuildingBlock: EZIPEK_clean_linker_0, # of connection points: 2
#     Edge 96, Type (0, 0), BuildingBlock: EZIPEK_clean_linker_0, # of connection points: 2
#     Edge 97, Type (0, 0), BuildingBlock: EZIPEK_clean_linker_0, # of connection points: 2
#     Edge 98, Type (0, 0), BuildingBlock: EZIPEK_clean_linker_0, # of connection points: 2
#     Edge 99, Type (0, 0), BuildingBlock: EZIPEK_clean_linker_0, # of connection points: 2
#     Edge 100, Type (0, 0), BuildingBlock: EZIPEK_clean_linker_0, # of connection points: 2
#     Edge 101, Type (0, 0), BuildingBlock: EZIPEK_clean_linker_0, # of connection points: 2
#     Edge 102, Type (0, 0), BuildingBlock: EZIPEK_clean_linker_0, # of connection points: 2
#     Edge 103, Type (0, 0), BuildingBlock: EZIPEK_clean_linker_0, # of connection points: 2
#     Edge 104, Type (0, 0), BuildingBlock: EZIPEK_clean_linker_0, # of connection points: 2
#     Edge 105, Type (0, 0), BuildingBlock: EZIPEK_clean_linker_0, # of connection points: 2
#     Edge 106, Type (0, 0), BuildingBlock: EZIPEK_clean_linker_0, # of connection points: 2
#     Edge 107, Type (0, 0), BuildingBlock: EZIPEK_clean_linker_0, # of connection points: 2
# Relax obj value: 0.179
# Max RMSD: 0.222
# Mean RMSD: 0.222
data_MOF--net-unl--node1-NAHDIM_clean_sbu_0--edge1-EZIPEK_clean_linker_0
_symmetry_space_group_name_H-M    P1
_symmetry_Int_Tables_number       1
_symmetry_cell_setting            triclinic
loop_
_symmetry_equiv_pos_as_xyz
'x, y, z'
_cell_length_a     47.527353
_cell_length_b     47.485363
_cell_length_c     28.591554
_cell_angle_alpha  90.027774
_cell_angle_beta   89.917255
_cell_angle_gamma 120.00462
loop_
_atom_site_label
_atom_site_type_symbol
_atom_site_fract_x
_atom_site_fract_y
_atom_site_fract_z
_atom_type_partial_charge
C0 C 0.23097 0.10273 0.13382 0.0
O1 O 0.21165 0.07538 0.15556 0.0
O2 O 0.15193 0.04738 0.07903 0.0
Zn3 Zn 0.17175 0.09492 0.09292 0.0
O4 O 0.15047 0.10447 0.14666 0.0
C5 C 0.17486 0.11086 0.99514 0.0
O6 O 0.18679 0.09136 0.99019 0.0
O7 O 0.21931 0.11506 0.10602 0.0
C8 C 0.12436 0.1054 0.14198 0.0
O9 O 0.10881 0.09722 0.10189 0.0
C10 C 0.1392 0.02348 0.10711 0.0
O11 O 0.13844 0.0283 0.15221 0.0
O12 O 0.16726 0.1162 0.03546 0.0
C13 C 0.88921 0.12478 0.17244 0.0
O14 O 0.90932 0.12228 0.20129 0.0
O15 O 0.95036 0.11303 0.1028 0.0
Zn16 Zn 0.90295 0.08361 0.11514 0.0
O17 O 0.89532 0.0513 0.16581 0.0
C18 C 0.89004 0.07262 0.01582 0.0
O19 O 0.91133 0.10375 0.01193 0.0
O20 O 0.88261 0.11022 0.1333 0.0
C21 C 0.89682 0.02573 0.15806 0.0
O22 O 0.90533 0.02074 0.11651 0.0
C23 C 0.97348 0.12448 0.13217 0.0
O24 O 0.96771 0.11762 0.17684 0.0
O25 O 0.88235 0.05941 0.05597 0.0
C26 C 0.85356 0.75336 0.16346 0.0
O27 O 0.85611 0.77467 0.19493 0.0
O28 O 0.86665 0.82928 0.09085 0.0
Zn29 Zn 0.89434 0.81033 0.10828 0.0
O30 O 0.92278 0.83376 0.16348 0.0
C31 C 0.91109 0.80888 0.01118 0.0
O32 O 0.88033 0.79915 0.00343 0.0
O33 O 0.86702 0.76299 0.12378 0.0
C34 C 0.95293 0.85401 0.15893 0.0
O35 O 0.96587 0.86159 0.11695 0.0
C36 C 0.85282 0.83954 0.11843 0.0
O37 O 0.85503 0.83742 0.16392 0.0
O38 O 0.92205 0.81442 0.05272 0.0
C39 C 0.11616 0.25415 0.33501 0.0
O40 O 0.09214 0.2393 0.30516 0.0
O41 O 0.04415 0.1829 0.40577 0.0
Zn42 Zn 0.08627 0.19073 0.3778 0.0
O43 O 0.07934 0.16649 0.31711 0.0
C44 C 0.10691 0.17996 0.46696 0.0
O45 O 0.09897 0.20141 0.48108 0.0
O46 O 0.11847 0.23837 0.3692 0.0
C47 C 0.10446 0.16704 0.30072 0.0
O48 O 0.13214 0.18307 0.32323 0.0
C49 C 0.03373 0.20278 0.40885 0.0
O50 O 0.04971 0.23152 0.38907 0.0
O51 O 0.10424 0.17213 0.42403 0.0
C52 C 0.73872 0.86645 0.33687 0.0
O53 O 0.75861 0.86632 0.30506 0.0
O54 O 0.81449 0.88177 0.41292 0.0
Zn55 Zn 0.79787 0.90919 0.38476 0.0
O56 O 0.82068 0.93106 0.32503 0.0
C57 C 0.83489 0.95771 0.45064 0.0
O58 O 0.85603 0.94892 0.43837 0.0
O59 O 0.74995 0.88283 0.37412 0.0
C60 C 0.8495 0.93825 0.31458 0.0
O61 O 0.86591 0.92975 0.34245 0.0
C62 C 0.81787 0.85915 0.39521 0.0
O63 O 0.80915 0.8499 0.3518 0.0
O64 O 0.8069 0.94387 0.43201 0.0
C65 C 0.14094 0.87714 0.37021 0.0
O66 O 0.15354 0.89884 0.40374 0.0
O67 O 0.1137 0.93574 0.39391 0.0
Zn68 Zn 0.08642 0.88936 0.37339 0.0
O69 O 0.0574 0.88474 0.31967 0.0
C70 C 0.06975 0.86724 0.46873 0.0
O71 O 0.10136 0.88158 0.47437 0.0
O72 O 0.11331 0.86955 0.35351 0.0
C73 C 0.04112 0.89918 0.31572 0.0
O74 O 0.04338 0.91999 0.34783 0.0
C75 C 0.13922 0.95853 0.37536 0.0
O76 O 0.1505 0.9537 0.33607 0.0
O77 O 0.05799 0.86595 0.4284 0.0
C78 C 0.75184 0.87935 0.83106 0.0
O79 O 0.77109 0.88176 0.7964 0.0
O80 O 0.83526 0.95008 0.89765 0.0
Zn81 Zn 0.80989 0.90209 0.88648 0.0
O82 O 0.82919 0.88671 0.83687 0.0
C83 C 0.80554 0.89194 0.98554 0.0
O84 O 0.79577 0.91339 0.9852 0.0
O85 O 0.7632 0.88734 0.87215 0.0
C86 C 0.85196 0.9047 0.80894 0.0
O87 O 0.86538 0.93647 0.81124 0.0
C88 C 0.82809 0.97094 0.88315 0.0
O89 O 0.8041 0.96241 0.85347 0.0
O90 O 0.8116 0.88236 0.9473 0.0
C91 C 0.10583 0.85586 0.84484 0.0
O92 O 0.09483 0.86326 0.80744 0.0
O93 O 0.03833 0.87368 0.89977 0.0
Zn94 Zn 0.08637 0.89756 0.88876 0.0
O95 O 0.09973 0.92593 0.83139 0.0
C96 C 0.09406 0.91512 0.98553 0.0
O97 O 0.07245 0.88421 0.99098 0.0
O98 O 0.10408 0.86704 0.88443 0.0
C99 C 0.0918 0.94739 0.82377 0.0
O100 O 0.07239 0.95085 0.85298 0.0
C101 C 0.01749 0.84516 0.88697 0.0
O102 O 0.02591 0.82863 0.85909 0.0
O103 O 0.10504 0.92618 0.94499 0.0
C104 C 0.12971 0.26532 0.864 0.0
O105 O 0.1209 0.24533 0.82824 0.0
O106 O 0.11808 0.1843 0.91578 0.0
Zn107 Zn 0.09148 0.20601 0.91246 0.0
O108 O 0.05984 0.18868 0.85928 0.0
C109 C 0.07946 0.19475 0.01111 0.0
O110 O 0.11048 0.20382 0.01276 0.0
O111 O 0.12017 0.25414 0.9049 0.0
C112 C 0.04331 0.15874 0.84881 0.0
O113 O 0.04713 0.13717 0.87243 0.0
C114 C 0.1331 0.1787 0.88371 0.0
O115 O 0.1333 0.18831 0.84062 0.0
O116 O 0.06656 0.19542 0.97254 0.0
C117 C 0.88956 0.74518 0.67023 0.0
O118 O 0.92019 0.76464 0.68104 0.0
O119 O 0.94075 0.81017 0.58411 0.0
Zn120 Zn 0.89759 0.7988 0.61213 0.0
O121 O 0.90194 0.83197 0.65975 0.0
C122 C 0.88146 0.8246 0.53439 0.0
O123 O 0.91082 0.84876 0.54311 0.0
O124 O 0.87554 0.75456 0.64156 0.0
C125 C 0.87534 0.82849 0.6753 0.0
O126 O 0.84773 0.80408 0.6606 0.0
C127 C 0.96797 0.82532 0.60476 0.0
O128 O 0.9693 0.83307 0.64913 0.0
O129 O 0.86978 0.79917 0.55953 0.0
C130 C 0.24913 0.13418 0.63775 0.0
O131 O 0.23075 0.14628 0.6504 0.0
O132 O 0.1743 0.1129 0.57871 0.0
Zn133 Zn 0.18902 0.08232 0.6013 0.0
O134 O 0.16288 0.05659 0.65733 0.0
C135 C 0.18712 0.06325 0.50587 0.0
O136 O 0.1985 0.09439 0.4984 0.0
O137 O 0.23659 0.107 0.61677 0.0
C138 C 0.15839 0.02822 0.66452 0.0
O139 O 0.17074 0.01591 0.63531 0.0
C140 C 0.14624 0.10858 0.58759 0.0
O141 O 0.12688 0.0853 0.61634 0.0
O142 O 0.1818 0.05223 0.54741 0.0
C143 C 0.85609 0.13667 0.64077 0.0
O144 O 0.84106 0.11364 0.60954 0.0
O145 O 0.87589 0.0772 0.60378 0.0
Zn146 Zn 0.90703 0.12077 0.63141 0.0
O147 O 0.93206 0.11576 0.68403 0.0
C148 C 0.92968 0.15348 0.54213 0.0
O149 O 0.89893 0.1441 0.53517 0.0
O150 O 0.88412 0.14375 0.65507 0.0
C151 C 0.95703 0.14164 0.69762 0.0
O152 O 0.96503 0.16931 0.6768 0.0
C153 C 0.88884 0.06501 0.57801 0.0
O154 O 0.92061 0.07986 0.57421 0.0
O155 O 0.93866 0.1474 0.58081 0.0
C156 C 0.95429 0.49036 0.49366 0.0
O157 O 0.93298 0.46311 0.51399 0.0
O158 O 0.88702 0.43366 0.43116 0.0
Zn159 Zn 0.89738 0.4789 0.44892 0.0
O160 O 0.87384 0.48164 0.50616 0.0
C161 C 0.86248 0.48392 0.37026 0.0
O162 O 0.84374 0.45276 0.37839 0.0
O163 O 0.94486 0.50325 0.46317 0.0
C164 C 0.84547 0.47804 0.50514 0.0
O165 O 0.82829 0.46832 0.46658 0.0
C166 C 0.85964 0.40786 0.43442 0.0
O167 O 0.83525 0.40878 0.45455 0.0
O168 O 0.88788 0.50034 0.39473 0.0
C169 C 0.50409 0.44568 0.43663 0.0
O170 O 0.53394 0.45619 0.45101 0.0
O171 O 0.55914 0.43395 0.36458 0.0
Zn172 Zn 0.51631 0.39998 0.39089 0.0
O173 O 0.5221 0.37698 0.4465 0.0
C174 C 0.49951 0.37701 0.29634 0.0
O175 O 0.5175 0.408 0.28609 0.0
O176 O 0.49045 0.42101 0.41 0.0
C177 C 0.50204 0.34695 0.45304 0.0
O178 O 0.47831 0.33115 0.42308 0.0
C179 C 0.58667 0.4389 0.378 0.0
O180 O 0.58872 0.42285 0.41399 0.0
O181 O 0.4944 0.36789 0.3388 0.0
C182 C 0.52909 0.07731 0.48934 0.0
O183 O 0.51748 0.09693 0.49624 0.0
O184 O 0.5434 0.13714 0.40449 0.0
Zn185 Zn 0.57704 0.13244 0.44098 0.0
O186 O 0.59585 0.16437 0.49443 0.0
C187 C 0.62319 0.16007 0.36527 0.0
O188 O 0.6078 0.1761 0.35771 0.0
O189 O 0.55539 0.08726 0.4667 0.0
C190 C 0.62268 0.16866 0.51036 0.0
O191 O 0.63619 0.15322 0.49108 0.0
C192 C 0.54495 0.16439 0.39911 0.0
O193 O 0.56768 0.19012 0.42082 0.0
O194 O 0.61394 0.13942 0.39828 0.0
C195 C 0.81546 0.61554 0.74717 0.0
O196 O 0.79335 0.60808 0.77978 0.0
O197 O 0.74592 0.5348 0.75539 0.0
Zn198 Zn 0.79214 0.54614 0.74507 0.0
O199 O 0.7965 0.51998 0.693 0.0
C200 C 0.78911 0.51293 0.83013 0.0
O201 O 0.7578 0.49803 0.82152 0.0
O202 O 0.8194 0.59339 0.72885 0.0
C203 C 0.80081 0.53043 0.65125 0.0
O204 O 0.80005 0.5571 0.64181 0.0
C205 C 0.7251 0.53115 0.7247 0.0
O206 O 0.73289 0.53526 0.68016 0.0
O207 O 0.80874 0.53564 0.80324 0.0
C208 C 0.38865 0.20282 0.65909 0.0
O209 O 0.40553 0.20939 0.6202 0.0
O210 O 0.47094 0.20886 0.71158 0.0
Zn211 Zn 0.45238 0.23803 0.69852 0.0
O212 O 0.4678 0.26326 0.63816 0.0
C213 C 0.49838 0.28605 0.75778 0.0
O214 O 0.51703 0.27834 0.73349 0.0
O215 O 0.40333 0.21227 0.69802 0.0
C216 C 0.49328 0.27065 0.6147 0.0
O217 O 0.51349 0.26112 0.62874 0.0
C218 C 0.46121 0.18052 0.69553 0.0
O219 O 0.43803 0.16814 0.66402 0.0
O220 O 0.46796 0.27111 0.75018 0.0
C221 C 0.79774 0.20997 0.70947 0.0
O222 O 0.81585 0.2408 0.72054 0.0
O223 O 0.77664 0.26579 0.75279 0.0
Zn224 Zn 0.7443 0.22119 0.72836 0.0
O225 O 0.71924 0.22094 0.67166 0.0
C226 C 0.71756 0.18964 0.81817 0.0
O227 O 0.74722 0.19649 0.82858 0.0
O228 O 0.76699 0.19652 0.71129 0.0
C229 C 0.70001 0.23218 0.66936 0.0
O230 O 0.6983 0.24935 0.70413 0.0
C231 C 0.76747 0.2785 0.78401 0.0
O232 O 0.73655 0.26463 0.79501 0.0
O233 O 0.71134 0.19706 0.77839 0.0
C234 C 0.36977 0.17481 0.15903 0.0
O235 O 0.38687 0.19745 0.1281 0.0
O236 O 0.44662 0.24158 0.2092 0.0
Zn237 Zn 0.43249 0.19507 0.19477 0.0
O238 O 0.45034 0.18948 0.13373 0.0
C239 C 0.47414 0.19707 0.26803 0.0
O240 O 0.48965 0.22818 0.2577 0.0
O241 O 0.384 0.16924 0.19221 0.0
C242 C 0.48033 0.19948 0.12711 0.0
O243 O 0.50149 0.21621 0.15988 0.0
C244 C 0.45741 0.26532 0.18092 0.0
O245 O 0.45933 0.26076 0.13599 0.0
O246 O 0.44821 0.17777 0.24637 0.0
C247 C 0.8315 0.20322 0.21855 0.0
O248 O 0.81707 0.21039 0.18532 0.0
O249 O 0.76748 0.21807 0.28866 0.0
Zn250 Zn 0.81466 0.24347 0.27113 0.0
O251 O 0.82295 0.27296 0.21562 0.0
C252 C 0.82198 0.28951 0.3355 0.0
O253 O 0.79481 0.28246 0.3142 0.0
O254 O 0.8334 0.21443 0.2595 0.0
C255 C 0.80274 0.27133 0.18521 0.0
O256 O 0.77246 0.24759 0.18651 0.0
C257 C 0.74294 0.19538 0.26813 0.0
O258 O 0.74639 0.18389 0.22806 0.0
O259 O 0.83681 0.27444 0.32422 0.0
C260 C 0.79874 0.61582 0.19325 0.0
O261 O 0.81954 0.60562 0.18687 0.0
O262 O 0.79458 0.5458 0.2364 0.0
Zn263 Zn 0.7568 0.54848 0.21016 0.0
O264 O 0.74384 0.52724 0.14631 0.0
C265 C 0.69107 0.51571 0.24935 0.0
O266 O 0.68204 0.52019 0.20793 0.0
O267 O 0.76951 0.5956 0.2041 0.0
C268 C 0.72461 0.4971 0.13917 0.0
O269 O 0.71025 0.47858 0.17555 0.0
C270 C 0.79155 0.5181 0.24408 0.0
O271 O 0.76508 0.49175 0.23076 0.0
O272 O 0.72092 0.52631 0.25768 0.0
C273 C 0.5095 0.05413 0.95915 0.0
O274 O 0.52622 0.07577 0.99145 0.0
O275 O 0.57609 0.12865 0.89031 0.0
Zn276 Zn 0.5292 0.11173 0.90599 0.0
O277 O 0.52436 0.13374 0.96338 0.0
C278 C 0.51637 0.1212 0.8092 0.0
O279 O 0.53784 0.11248 0.79861 0.0
O280 O 0.50713 0.06354 0.91847 0.0
C281 C 0.51842 0.157 0.96099 0.0
O282 O 0.51727 0.16888 0.92003 0.0
C283 C 0.5989 0.13733 0.91981 0.0
O284 O 0.59264 0.13514 0.96483 0.0
O285 O 0.5083 0.12115 0.85161 0.0
C286 C 0.94303 0.44567 0.98693 0.0
O287 O 0.93629 0.42565 0.95154 0.0
O288 O 0.86004 0.45838 0.9719 0.0
Zn289 Zn 0.87351 0.42526 0.98688 0.0
O290 O 0.84862 0.39449 0.03947 0.0
C291 C 0.8361 0.37468 0.92254 0.0
O292 O 0.81437 0.36839 0.95525 0.0
O293 O 0.9207 0.4492 0.00549 0.0
C294 C 0.85637 0.37272 0.04588 0.0
O295 O 0.87893 0.3726 0.01943 0.0
C296 C 0.83064 0.4498 0.96317 0.0
O297 O 0.80759 0.42038 0.97416 0.0
O298 O 0.86492 0.39828 0.9278 0.0
C299 C 0.54625 0.46239 0.97798 0.0
O300 O 0.5417 0.43555 0.99802 0.0
O301 O 0.56363 0.40961 0.90592 0.0
Zn302 Zn 0.59399 0.45551 0.92696 0.0
O303 O 0.62295 0.45803 0.98013 0.0
C304 C 0.61267 0.48587 0.83454 0.0
O305 O 0.58199 0.47727 0.82905 0.0
O306 O 0.56773 0.47584 0.94641 0.0
C307 C 0.65048 0.46074 0.97179 0.0
O308 O 0.65911 0.45961 0.92849 0.0
C309 C 0.57327 0.39742 0.87454 0.0
O310 O 0.60353 0.41351 0.86011 0.0
O311 O 0.62245 0.48016 0.87275 0.0
C312 C 0.61455 0.82669 0.79807 0.0
O313 O 0.60167 0.84554 0.79998 0.0
O314 O 0.52826 0.73514 0.74815 0.0
Zn315 Zn 0.54961 0.78013 0.77505 0.0
O316 O 0.52721 0.78476 0.83207 0.0
C317 C 0.51841 0.79631 0.70634 0.0
O318 O 0.49608 0.76613 0.71513 0.0
O319 O 0.59672 0.79676 0.78826 0.0
C320 C 0.49668 0.76927 0.8388 0.0
O321 O 0.4776 0.74566 0.81038 0.0
C322 C 0.52064 0.70784 0.76621 0.0
O323 O 0.52737 0.70592 0.81022 0.0
O324 O 0.54582 0.80841 0.72645 0.0
C325 C 0.1776 0.7877 0.83258 0.0
O326 O 0.20552 0.80113 0.85472 0.0
O327 O 0.24556 0.78527 0.79723 0.0
Zn328 Zn 0.20089 0.74642 0.8029 0.0
O329 O 0.1952 0.71794 0.85842 0.0
C330 C 0.20431 0.73207 0.70481 0.0
O331 O 0.22155 0.76379 0.70007 0.0
O332 O 0.16929 0.76278 0.80727 0.0
C333 C 0.21378 0.72476 0.89363 0.0
O334 O 0.24043 0.7532 0.89651 0.0
C335 C 0.27114 0.78334 0.79495 0.0
O336 O 0.26863 0.75472 0.80064 0.0
O337 O 0.19288 0.7196 0.74461 0.0
C338 C 0.20812 0.40355 0.83246 0.0
O339 O 0.2113 0.4241 0.86558 0.0
O340 O 0.21939 0.48052 0.77146 0.0
Zn341 Zn 0.24858 0.46223 0.78293 0.0
O342 O 0.27736 0.48334 0.83835 0.0
C343 C 0.264 0.46872 0.68519 0.0
O344 O 0.23264 0.45734 0.68066 0.0
O345 O 0.2221 0.41414 0.79331 0.0
C346 C 0.29638 0.51386 0.84068 0.0
O347 O 0.29666 0.53275 0.8069 0.0
C348 C 0.20369 0.48713 0.80119 0.0
O349 O 0.20496 0.4816 0.84589 0.0
O350 O 0.27626 0.47175 0.72563 0.0
C351 C 0.44542 0.91828 0.0109 0.0
O352 O 0.41373 0.90007 0.00745 0.0
O353 O 0.39527 0.84584 0.07335 0.0
Zn354 Zn 0.43966 0.85925 0.04693 0.0
O355 O 0.43778 0.83128 0.9925 0.0
C356 C 0.47049 0.86584 0.13806 0.0
O357 O 0.46046 0.88634 0.14823 0.0
O358 O 0.462 0.90621 0.02699 0.0
C359 C 0.46477 0.83332 0.98214 0.0
O360 O 0.49083 0.85289 0.00629 0.0
C361 C 0.38223 0.82114 0.10002 0.0
O362 O 0.39631 0.80362 0.10568 0.0
O363 O 0.46535 0.85298 0.09774 0.0
C364 C 0.06981 0.51593 0.07375 0.0
O365 O 0.07378 0.50648 0.11517 0.0
O366 O 0.15402 0.53798 0.10754 0.0
Zn367 Zn 0.13703 0.56674 0.08542 0.0
O368 O 0.16735 0.60107 0.04015 0.0
C369 C 0.16151 0.60847 0.162 0.0
O370 O 0.18814 0.61166 0.143 0.0
O371 O 0.09328 0.54066 0.05457 0.0
C372 C 0.15886 0.62168 0.02916 0.0
O373 O 0.1324 0.61915 0.04774 0.0
C374 C 0.1637 0.52195 0.08354 0.0
O375 O 0.16278 0.52241 0.03765 0.0
O376 O 0.13425 0.58947 0.14315 0.0
C377 C 0.47332 0.52596 0.02266 0.0
O378 O 0.48559 0.55594 0.00746 0.0
O379 O 0.46025 0.58475 0.07511 0.0
Zn380 Zn 0.42592 0.54003 0.05578 0.0
O381 O 0.40173 0.5396 0.99794 0.0
C382 C 0.40269 0.52775 0.15089 0.0
O383 O 0.43374 0.54281 0.16137 0.0
O384 O 0.44679 0.51284 0.04541 0.0
C385 C 0.38286 0.55133 0.99861 0.0
O386 O 0.38126 0.56638 0.03622 0.0
C387 C 0.46938 0.61178 0.05494 0.0
O388 O 0.4541 0.61195 0.01685 0.0
O389 O 0.39382 0.5227 0.10836 0.0
C390 C 0.09011 0.54523 0.53741 0.0
O391 O 0.11224 0.56349 0.50654 0.0
O392 O 0.16636 0.60375 0.60451 0.0
Zn393 Zn 0.14599 0.55654 0.58808 0.0
O394 O 0.16577 0.54717 0.53226 0.0
C395 C 0.14759 0.54152 0.6849 0.0
O396 O 0.13692 0.56193 0.69168 0.0
O397 O 0.09859 0.53859 0.57603 0.0
C398 C 0.19546 0.55503 0.52875 0.0
O399 O 0.21621 0.57284 0.56137 0.0
C400 C 0.17482 0.62832 0.57843 0.0
O401 O 0.17249 0.62509 0.53276 0.0
O402 O 0.15195 0.53456 0.64361 0.0
C403 C 0.44258 0.51861 0.49467 0.0
O404 O 0.41715 0.51653 0.47339 0.0
O405 O 0.3923 0.53984 0.57351 0.0
Zn406 Zn 0.43778 0.56692 0.54922 0.0
O407 O 0.44031 0.59518 0.49497 0.0
C408 C 0.45332 0.60991 0.62654 0.0
O409 O 0.42442 0.6055 0.61655 0.0
O410 O 0.45535 0.53816 0.5287 0.0
C411 C 0.46874 0.61659 0.48228 0.0
O412 O 0.49393 0.61887 0.5046 0.0
C413 C 0.36599 0.52695 0.55041 0.0
O414 O 0.36655 0.52984 0.5047 0.0
O415 O 0.46483 0.59555 0.6023 0.0
C416 C 0.46077 0.9431 0.54775 0.0
O417 O 0.46907 0.92344 0.52763 0.0
O418 O 0.45377 0.87624 0.61089 0.0
Zn419 Zn 0.4178 0.88474 0.59347 0.0
O420 O 0.39315 0.85954 0.53601 0.0
C421 C 0.3782 0.8489 0.67349 0.0
O422 O 0.38987 0.82958 0.66468 0.0
O423 O 0.43847 0.93214 0.57845 0.0
C424 C 0.36747 0.83177 0.53675 0.0
O425 O 0.356 0.81672 0.57668 0.0
C426 C 0.45098 0.84835 0.6073 0.0
O427 O 0.42525 0.82478 0.5868 0.0
O428 O 0.38726 0.87423 0.64863 0.0
C429 C 0.2102 0.39024 0.30568 0.0
O430 O 0.23896 0.39937 0.28774 0.0
O431 O 0.27539 0.4691 0.27979 0.0
Zn432 Zn 0.23162 0.45926 0.30312 0.0
O433 O 0.23524 0.48546 0.36077 0.0
C434 C 0.21065 0.46137 0.20992 0.0
O435 O 0.2194 0.43955 0.20223 0.0
O436 O 0.20223 0.41143 0.31547 0.0
C437 C 0.21184 0.49035 0.36981 0.0
O438 O 0.18663 0.47845 0.34171 0.0
C439 C 0.29846 0.49836 0.28022 0.0
O440 O 0.29432 0.52072 0.30098 0.0
O441 O 0.21266 0.47263 0.25088 0.0
C442 C 0.59947 0.796 0.3133 0.0
O443 O 0.58061 0.78842 0.35027 0.0
O444 O 0.5172 0.78161 0.2465 0.0
Zn445 Zn 0.53896 0.75629 0.26528 0.0
O446 O 0.52089 0.72979 0.32427 0.0
C447 C 0.50925 0.71399 0.18578 0.0
O448 O 0.48642 0.72156 0.19175 0.0
O449 O 0.58701 0.78586 0.27323 0.0
C450 C 0.49417 0.70304 0.32541 0.0
O451 O 0.47584 0.69275 0.28795 0.0
C452 C 0.52707 0.81089 0.25814 0.0
O453 O 0.55174 0.82596 0.28681 0.0
O454 O 0.5338 0.72606 0.21265 0.0
C455 C 0.21041 0.81563 0.29722 0.0
O456 O 0.22304 0.8212 0.25502 0.0
O457 O 0.20467 0.72685 0.2932 0.0
Zn458 Zn 0.23775 0.77286 0.30974 0.0
O459 O 0.26395 0.77777 0.3677 0.0
C460 C 0.27762 0.7766 0.23221 0.0
O461 O 0.26642 0.74605 0.24374 0.0
O462 O 0.21367 0.79639 0.32448 0.0
C463 C 0.2905 0.77743 0.36973 0.0
O464 O 0.30176 0.77024 0.33243 0.0
C465 C 0.2045 0.70113 0.30576 0.0
O466 O 0.22869 0.70421 0.33164 0.0
O467 O 0.26806 0.79338 0.25477 0.0
C468 C 0.09306 0.96978 0.08211 0.0
C469 C 0.12694 0.99051 0.08784 0.0
C470 C 0.13761 0.95475 0.03831 0.0
C471 C 0.10435 0.93773 0.02568 0.0
N472 N 0.0499 0.92888 0.03424 0.0
N473 N 0.18185 0.00238 0.07504 0.0
C474 C 0.08172 0.94463 0.04801 0.0
C475 C 0.14933 0.98261 0.06743 0.0
N476 N 0.07186 0.97458 0.1086 0.0
N477 N 0.15773 0.94384 0.02293 0.0
H478 H 0.19084 0.0214 0.09913 0.0
H479 H 0.19988 0.00067 0.05672 0.0
H480 H 0.14956 0.92317 0.00204 0.0
H481 H 0.18166 0.95338 0.03391 0.0
H482 H 0.04693 0.95843 0.10948 0.0
H483 H 0.07953 0.99328 0.13306 0.0
H484 H 0.03309 0.93546 0.04517 0.0
H485 H 0.04054 0.91046 0.00923 0.0
C486 C 0.01398 0.17822 0.09909 0.0
C487 C 0.00653 0.14698 0.11495 0.0
C488 C 0.05205 0.1503 0.0707 0.0
C489 C 0.05851 0.18086 0.05269 0.0
N490 N 0.05222 0.22794 0.05893 0.0
N491 N 0.02367 0.10788 0.1286 0.0
C492 C 0.04161 0.1962 0.07011 0.0
C493 C 0.02759 0.13474 0.10534 0.0
N494 N 0.99384 0.19 0.11046 0.0
N495 N 0.06731 0.13491 0.05214 0.0
H496 H 0.00554 0.09585 0.15365 0.0
H497 H 0.04017 0.09955 0.12647 0.0
H498 H 0.08536 0.14528 0.02664 0.0
H499 H 0.06068 0.11095 0.05984 0.0
H500 H 0.99539 0.21071 0.09553 0.0
H501 H 0.97465 0.17817 0.13409 0.0
H502 H 0.04265 0.2415 0.07337 0.0
H503 H 0.07268 0.24164 0.03809 0.0
C504 C 0.79304 0.84652 0.04029 0.0
C505 C 0.81161 0.88013 0.03 0.0
C506 C 0.84879 0.88773 0.09431 0.0
C507 C 0.83411 0.85351 0.09778 0.0
N508 N 0.79094 0.79983 0.07849 0.0
N509 N 0.8564 0.93365 0.0475 0.0
C510 C 0.8054 0.83275 0.07265 0.0
C511 C 0.8388 0.90122 0.05794 0.0
N512 N 0.76366 0.82801 0.01896 0.0
N513 N 0.87281 0.9071 0.12493 0.0
H514 H 0.84964 0.94451 0.02157 0.0
H515 H 0.87857 0.94971 0.06286 0.0
H516 H 0.88065 0.89764 0.15153 0.0
H517 H 0.88305 0.93222 0.12675 0.0
H518 H 0.74759 0.80381 0.02727 0.0
H519 H 0.75409 0.83784 0.99544 0.0
H520 H 0.77229 0.78293 0.05742 0.0
H521 H 0.7985 0.78934 0.10403 0.0
C522 C 0.95087 0.15113 0.46253 0.0
C523 C 0.95376 0.16879 0.50408 0.0
C524 C 0.00837 0.21111 0.48084 0.0
C525 C 0.00503 0.19395 0.4386 0.0
N526 N 0.97055 0.15243 0.38384 0.0
N527 N 0.98134 0.21892 0.54742 0.0
C528 C 0.97535 0.16552 0.42769 0.0
C529 C 0.98128 0.19992 0.51144 0.0
N530 N 0.92599 0.11985 0.45757 0.0
N531 N 0.03787 0.23677 0.49329 0.0
H532 H 0.96171 0.21146 0.57025 0.0
H533 H -0.00064 0.2431 0.55185 0.0
H534 H 0.05851 0.24571 0.47227 0.0
H535 H 0.04258 0.24762 0.52618 0.0
H536 H 0.92478 0.1046 0.43051 0.0
H537 H 0.90791 0.10805 0.48264 0.0
H538 H 0.94826 0.13353 0.37234 0.0
H539 H 0.98802 0.16264 0.35745 0.0
C540 C 0.86151 0.84613 0.41611 0.0
C541 C 0.83077 0.84301 0.42546 0.0
C542 C 0.83163 0.82481 0.50519 0.0
C543 C 0.86226 0.82753 0.49589 0.0
N544 N 0.9019 0.8319 0.43923 0.0
N545 N 0.78248 0.82043 0.47295 0.0
C546 C 0.87579 0.83535 0.4502 0.0
C547 C 0.81448 0.82928 0.4681 0.0
N548 N 0.87791 0.861 0.37602 0.0
N549 N 0.81985 0.82022 0.54986 0.0
H550 H 0.7692 0.82306 0.44596 0.0
H551 H 0.76838 0.80748 0.5016 0.0
H552 H 0.83179 0.81749 0.57844 0.0
H553 H 0.7996 0.82197 0.55925 0.0
H554 H 0.90205 0.86754 0.37005 0.0
H555 H 0.86812 0.86878 0.34985 0.0
H556 H 0.91094 0.83428 0.40537 0.0
H557 H 0.91252 0.82344 0.46317 0.0
C558 C 0.18516 0.9992 0.42485 0.0
C559 C 0.15611 0.99016 0.39979 0.0
C560 C 0.14976 0.03221 0.43995 0.0
C561 C 0.17827 0.04058 0.46606 0.0
N562 N 0.22726 0.03817 0.47641 0.0
N563 N 0.11543 0.00263 0.37403 0.0
C564 C 0.19733 0.026 0.45621 0.0
C565 C 0.13995 0.00826 0.40431 0.0
N566 N 0.20018 0.98118 0.42044 0.0
N567 N 0.13125 0.04596 0.45082 0.0
H568 H 0.10806 0.98537 0.34733 0.0
H569 H 0.10446 0.01686 0.37243 0.0
H570 H 0.13806 0.06415 0.47594 0.0
H571 H 0.10825 0.03814 0.43705 0.0
H572 H 0.21886 0.9837 0.44213 0.0
H573 H 0.19295 0.9625 0.3961 0.0
H574 H 0.24383 0.03082 0.46737 0.0
H575 H 0.23671 0.05774 0.49964 0.0
C576 C 0.84023 0.03616 0.97046 0.0
C577 C 0.87452 0.05251 0.97397 0.0
C578 C 0.87701 0.02322 0.905 0.0
C579 C 0.8429 0.00257 0.90759 0.0
N580 N 0.79162 0.98783 0.94491 0.0
N581 N 0.92621 0.06119 0.94579 0.0
C582 C 0.82422 0.00895 0.94024 0.0
C583 C 0.89323 0.04647 0.94097 0.0
N584 N 0.82303 0.04681 0.99601 0.0
N585 N 0.89376 0.02038 0.86815 0.0
H586 H 0.93908 0.0784 0.97157 0.0
H587 H 0.94065 0.05483 0.92613 0.0
H588 H 0.88221 0.00354 0.84134 0.0
H589 H 0.91826 0.03662 0.86181 0.0
H590 H 0.79823 0.03786 0.99166 0.0
H591 H 0.83423 0.06694 0.01816 0.0
H592 H 0.77774 0.9891 0.97218 0.0
H593 H 0.77866 0.96756 0.92362 0.0
C594 C 0.94135 0.83801 0.93833 0.0
C595 C 0.93328 0.81318 0.97206 0.0
C596 C 0.97712 0.80477 0.94362 0.0
C597 C 0.98531 0.82969 0.90995 0.0
N598 N 0.97059 0.86388 0.8669 0.0
N599 N 0.93683 0.76683 0.99803 0.0
C600 C 0.96572 0.84418 0.90449 0.0
C601 C 0.94899 0.79451 0.97169 0.0
N602 N 0.92733 0.85706 0.94043 0.0
N603 N 0.99733 0.79251 0.95125 0.0
H604 H 0.91604 0.75857 0.01869 0.0
H605 H 0.94531 0.75045 0.9958 0.0
H606 H 0.01823 0.79919 0.93166 0.0
H607 H 0.99467 0.77739 0.97932 0.0
H608 H 0.93518 0.87804 0.92051 0.0
H609 H 0.9093 0.85331 0.96452 0.0
H610 H 0.95537 0.87303 0.85853 0.0
H611 H 0.9882 0.86854 0.8415 0.0
C612 C 0.17939 0.17968 0.92512 0.0
C613 C 0.15132 0.16241 0.89706 0.0
C614 C 0.14504 0.11046 0.92271 0.0
C615 C 0.171 0.12775 0.95452 0.0
N616 N 0.21884 0.17746 0.97667 0.0
N617 N 0.1131 0.11312 0.85814 0.0
C618 C 0.19028 0.16205 0.95239 0.0
C619 C 0.13627 0.12828 0.8918 0.0
N620 N 0.19447 0.21285 0.92716 0.0
N621 N 0.12756 0.07725 0.92434 0.0
H622 H 0.10628 0.12593 0.83559 0.0
H623 H 0.1026 0.08857 0.84989 0.0
H624 H 0.13387 0.06356 0.94587 0.0
H625 H 0.1062 0.06314 0.90579 0.0
H626 H 0.21268 0.22701 0.95093 0.0
H627 H 0.18796 0.22626 0.90529 0.0
H628 H 0.23537 0.20225 0.97429 0.0
H629 H 0.22732 0.16476 0.99646 0.0
C630 C 0.00267 0.81265 0.55327 0.0
C631 C 0.99797 0.83622 0.57698 0.0
C632 C 0.04618 0.87994 0.53837 0.0
C633 C 0.04778 0.85637 0.50967 0.0
N634 N 0.02779 0.80046 0.48831 0.0
N635 N 0.01323 0.89242 0.58954 0.0
C636 C 0.0262 0.82272 0.51691 0.0
C637 C 0.01954 0.86995 0.56959 0.0
N638 N 0.98502 0.78072 0.56636 0.0
N639 N 0.06972 0.91197 0.53513 0.0
H640 H 0.99385 0.88635 0.61222 0.0
H641 H 0.02565 0.91701 0.58091 0.0
H642 H 0.08863 0.92068 0.51089 0.0
H643 H 0.072 0.92965 0.5588 0.0
H644 H 0.98921 0.76262 0.55354 0.0
H645 H 0.96799 0.77275 0.59342 0.0
H646 H 0.01034 0.77586 0.48788 0.0
H647 H 0.04592 0.80692 0.46312 0.0
C648 C 0.14401 0.17913 0.52887 0.0
C649 C 0.1155 0.16227 0.50136 0.0
C650 C 0.1068 0.11014 0.53089 0.0
C651 C 0.13422 0.12699 0.56056 0.0
N652 N 0.17501 0.17735 0.59499 0.0
N653 N 0.06535 0.11274 0.48522 0.0
C654 C 0.15167 0.16149 0.56173 0.0
C655 C 0.09553 0.12806 0.50516 0.0
N656 N 0.16449 0.21168 0.52215 0.0
N657 N 0.09258 0.07723 0.52499 0.0
H658 H 0.05591 0.12512 0.4668 0.0
H659 H 0.04842 0.08833 0.49103 0.0
H660 H 0.10039 0.06298 0.54203 0.0
H661 H 0.07503 0.06445 0.49962 0.0
H662 H 0.18742 0.22456 0.53733 0.0
H663 H 0.15971 0.22543 0.49842 0.0
H664 H 0.18635 0.20233 0.60062 0.0
H665 H 0.18091 0.16513 0.61997 0.0
C666 C 0.85228 0.03641 0.51042 0.0
C667 C 0.86886 0.03506 0.55079 0.0
C668 C 0.85507 0.97948 0.53073 0.0
C669 C 0.84381 0.98321 0.48649 0.0
N670 N 0.83515 0.01684 0.43162 0.0
N671 N 0.88653 0.00578 0.6002 0.0
C672 C 0.84283 0.01189 0.47579 0.0
C673 C 0.87027 0.00663 0.56131 0.0
N674 N 0.84582 0.06119 0.50484 0.0
N675 N 0.85032 0.94974 0.54398 0.0
H676 H 0.89601 0.02437 0.62504 0.0
H677 H 0.89193 0.98743 0.60675 0.0
H678 H 0.83846 0.92912 0.52287 0.0
H679 H 0.85522 0.94469 0.57745 0.0
H680 H 0.83095 0.06158 0.47842 0.0
H681 H 0.85281 0.07992 0.52903 0.0
H682 H 0.83785 0.03893 0.42044 0.0
H683 H 0.82892 -2e-05 0.40465 0.0
C684 C 0.85797 0.34908 0.34195 0.0
C685 C 0.83771 0.31907 0.36443 0.0
C686 C 0.83882 0.34774 0.43618 0.0
C687 C 0.85437 0.37762 0.41123 0.0
N688 N 0.87472 0.40598 0.33739 0.0
N689 N 0.80715 0.28886 0.43181 0.0
C690 C 0.86339 0.37826 0.3635 0.0
C691 C 0.8278 0.31809 0.41139 0.0
N692 N 0.87156 0.34965 0.29951 0.0
N693 N 0.83547 0.34779 0.48366 0.0
H694 H 0.79997 0.26668 0.41527 0.0
H695 H 0.79584 0.28666 0.46392 0.0
H696 H 0.84422 0.36914 0.5031 0.0
H697 H 0.82697 0.32701 0.50425 0.0
H698 H 0.88926 0.37097 0.28367 0.0
H699 H 0.86746 0.32863 0.28212 0.0
H700 H 0.87757 0.4065 0.30121 0.0
H701 H 0.87842 0.42797 0.3505 0.0
C702 C 0.63253 0.4458 0.32676 0.0
C703 C 0.61553 0.45962 0.34894 0.0
C704 C 0.64815 0.5105 0.30568 0.0
C705 C 0.6664 0.49726 0.28572 0.0
N706 N 0.68072 0.45501 0.2853 0.0
N707 N 0.61075 0.50667 0.3666 0.0
C708 C 0.66024 0.46587 0.29907 0.0
C709 C 0.62436 0.49246 0.34039 0.0
N710 N 0.62096 0.41304 0.32936 0.0
N711 N 0.6535 0.54026 0.29137 0.0
H712 H 0.59365 0.49428 0.39281 0.0
H713 H 0.61838 0.53138 0.36542 0.0
H714 H 0.67216 0.55516 0.26844 0.0
H715 H 0.63841 0.54949 0.30021 0.0
H716 H 0.6301 0.40113 0.30921 0.0
H717 H 0.60015 0.39706 0.34799 0.0
H718 H 0.67941 0.43395 0.29854 0.0
H719 H 0.70083 0.46833 0.26394 0.0
C720 C 0.5048 0.18252 0.38304 0.0
C721 C 0.52256 0.1678 0.36659 0.0
C722 C 0.5018 0.16551 0.28722 0.0
C723 C 0.48819 0.18454 0.30261 0.0
N724 N 0.47695 0.21213 0.36437 0.0
N725 N 0.53936 0.14629 0.30224 0.0
C726 C 0.48967 0.19325 0.35036 0.0
C727 C 0.52099 0.159 0.31863 0.0
N728 N 0.5013 0.18496 0.4301 0.0
N729 N 0.49671 0.15391 0.24237 0.0
H730 H 0.55259 0.13944 0.32353 0.0
H731 H 0.54313 0.14417 0.26685 0.0
H732 H 0.48489 0.15996 0.21709 0.0
H733 H 0.50219 0.13639 0.23088 0.0
H734 H 0.48568 0.19206 0.44447 0.0
H735 H 0.51141 0.17658 0.45501 0.0
H736 H 0.4807 0.22259 0.39744 0.0
H737 H 0.4639 0.21878 0.34207 0.0
C738 C 0.63727 0.47894 0.76155 0.0
C739 C 0.63605 0.5 0.79564 0.0
C740 C 0.68797 0.54461 0.76773 0.0
C741 C 0.69204 0.52201 0.74047 0.0
N742 N 0.67098 0.46804 0.7092 0.0
N743 N 0.65841 0.55309 0.83031 0.0
C744 C 0.66646 0.48941 0.73576 0.0
C745 C 0.66067 0.53312 0.79793 0.0
N746 N 0.61081 0.44878 0.75477 0.0
N747 N 0.71034 0.577 0.76444 0.0
H748 H 0.6378 0.54568 0.85107 0.0
H749 H 0.6772 0.57643 0.83786 0.0
H750 H 0.73021 0.58582 0.74179 0.0
H751 H 0.7078 0.59523 0.78064 0.0
H752 H 0.609 0.4332 0.72787 0.0
H753 H 0.58935 0.4403 0.77384 0.0
H754 H 0.655 0.44306 0.70877 0.0
H755 H 0.69173 0.47514 0.68894 0.0
C756 C 0.50836 0.17307 0.71426 0.0
C757 C 0.47441 0.16093 0.71626 0.0
C758 C 0.46816 0.11695 0.76786 0.0
C759 C 0.50238 0.13259 0.77254 0.0
N760 N 0.55558 0.17743 0.75309 0.0
N761 N 0.42179 0.12267 0.74834 0.0
C762 C 0.52274 0.1609 0.74596 0.0
C763 C 0.4541 0.13289 0.74337 0.0
N764 N 0.52676 0.1961 0.68174 0.0
N765 N 0.44913 0.08666 0.78648 0.0
H766 H 0.41038 0.13363 0.73137 0.0
H767 H 0.40675 0.10488 0.77218 0.0
H768 H 0.45878 0.07419 0.80415 0.0
H769 H 0.42425 0.07264 0.78034 0.0
H770 H 0.55112 0.20369 0.67544 0.0
H771 H 0.51672 0.20515 0.65773 0.0
H772 H 0.57107 0.20022 0.7387 0.0
H773 H 0.56725 0.16975 0.77632 0.0
C774 C 0.80381 0.35828 0.84863 0.0
C775 C 0.82567 0.35522 0.87912 0.0
C776 C 0.81385 0.30424 0.84123 0.0
C777 C 0.79136 0.30692 0.81138 0.0
N778 N 0.77142 0.34002 0.77779 0.0
N779 N 0.85786 0.3305 0.89733 0.0
C780 C 0.78851 0.3352 0.81222 0.0
C781 C 0.83302 0.33005 0.87268 0.0
N782 N 0.79683 0.38262 0.85561 0.0
N783 N 0.81521 0.27616 0.84211 0.0
H784 H 0.87179 0.3487 0.92141 0.0
H785 H 0.86655 0.31462 0.891 0.0
H786 H 0.80184 0.25666 0.81971 0.0
H787 H 0.82795 0.27115 0.86721 0.0
H788 H 0.77828 0.38402 0.83838 0.0
H789 H 0.8087 0.40076 0.88061 0.0
H790 H 0.77076 0.36147 0.7738 0.0
H791 H 0.76031 0.32358 0.7504 0.0
C792 C 0.51287 0.34504 0.24016 0.0
C793 C 0.4896 0.3523 0.25917 0.0
C794 C 0.44577 0.30605 0.21781 0.0
C795 C 0.46885 0.29813 0.20015 0.0
N796 N 0.52451 0.31321 0.18509 0.0
N797 N 0.4357 0.34489 0.25926 0.0
C798 C 0.50254 0.31887 0.20799 0.0
C799 C 0.45654 0.33441 0.24571 0.0
N800 N 0.54445 0.36192 0.25503 0.0
N801 N 0.4135 0.28587 0.20873 0.0
H802 H 0.44307 0.36561 0.27974 0.0
H803 H 0.41185 0.3347 0.2476 0.0
H804 H 0.40528 0.26633 0.18559 0.0
H805 H 0.39486 0.28772 0.22486 0.0
H806 H 0.5618 0.35541 0.24703 0.0
H807 H 0.5531 0.38159 0.27798 0.0
H808 H 0.54948 0.32912 0.18561 0.0
H809 H 0.51764 0.29372 0.16225 0.0
C810 C 0.7032 0.20956 0.30161 0.0
C811 C 0.71035 0.18514 0.28774 0.0
C812 C 0.65731 0.14354 0.31766 0.0
C813 C 0.65295 0.16835 0.33826 0.0
N814 N 0.67633 0.22521 0.35872 0.0
N815 N 0.69595 0.12859 0.28859 0.0
C816 C 0.6771 0.20147 0.33263 0.0
C817 C 0.68781 0.15194 0.29712 0.0
N818 N 0.72078 0.24041 0.2842 0.0
N819 N 0.63212 0.11221 0.31628 0.0
H820 H 0.7182 0.13371 0.27431 0.0
H821 H 0.68171 0.10455 0.29951 0.0
H822 H 0.60912 0.10526 0.32962 0.0
H823 H 0.63312 0.09385 0.2977 0.0
H824 H 0.71455 0.25827 0.29018 0.0
H825 H 0.73915 0.24701 0.25946 0.0
H826 H 0.6953 0.24925 0.35888 0.0
H827 H 0.65881 0.22042 0.38422 0.0
C828 C 0.8387 0.51912 0.3519 0.0
C829 C 0.85169 0.49971 0.33577 0.0
C830 C 0.83234 0.50028 0.25649 0.0
C831 C 0.81502 0.51505 0.27439 0.0
N832 N 0.7986 0.5356 0.34011 0.0
N833 N 0.862 0.47211 0.27316 0.0
C834 C 0.8178 0.52427 0.32217 0.0
C835 C 0.84906 0.4906 0.288 0.0
N836 N 0.84579 0.53215 0.39588 0.0
N837 N 0.83316 0.49606 0.20929 0.0
H838 H 0.87655 0.46685 0.29454 0.0
H839 H 0.85749 0.46106 0.24045 0.0
H840 H 0.82126 0.50314 0.18544 0.0
H841 H 0.84766 0.48812 0.19338 0.0
H842 H 0.83991 0.54933 0.40766 0.0
H843 H 0.86017 0.52822 0.41938 0.0
H844 H 0.79653 0.53876 0.37573 0.0
H845 H 0.78244 0.53928 0.32005 0.0
C846 C 0.63827 0.12793 0.8745 0.0
C847 C 0.63227 0.14903 0.9025 0.0
C848 C 0.68743 0.19371 0.88691 0.0
C849 C 0.69103 0.17414 0.85269 0.0
N850 N 0.67088 0.12275 0.81341 0.0
N851 N 0.6502 0.20238 0.93459 0.0
C852 C 0.66686 0.14113 0.8467 0.0
C853 C 0.65683 0.18191 0.90934 0.0
N854 N 0.61682 0.09521 0.87531 0.0
N855 N 0.71312 0.22369 0.89738 0.0
H856 H 0.62814 0.1947 0.95165 0.0
H857 H 0.66567 0.22744 0.93615 0.0
H858 H 0.73567 0.23317 0.88095 0.0
H859 H 0.71308 0.23795 0.92502 0.0
H860 H 0.62106 0.07808 0.85896 0.0
H861 H 0.59598 0.08485 0.89614 0.0
H862 H 0.65254 0.0998 0.80313 0.0
H863 H 0.69237 0.13116 0.79438 0.0
C864 C 0.83402 0.47352 0.88365 0.0
C865 C 0.82301 0.46943 0.93083 0.0
C866 C 0.79319 0.498 0.91306 0.0
C867 C 0.80171 0.49918 0.86523 0.0
N868 N 0.82424 0.48185 0.8033 0.0
N869 N 0.79029 0.47535 0.99027 0.0
C870 C 0.82081 0.48561 0.85008 0.0
C871 C 0.80201 0.48097 0.94549 0.0
N872 N 0.85662 0.46527 0.87028 0.0
N873 N 0.77744 0.51393 0.92756 0.0
H874 H 0.7979 0.46487 0.01571 0.0
H875 H 0.77189 0.47952 0.00174 0.0
H876 H 0.77076 0.52671 0.90474 0.0
H877 H 0.77314 0.51664 0.96247 0.0
H878 H 0.86878 0.4722 0.83833 0.0
H879 H 0.86489 0.4532 0.89159 0.0
H880 H 0.8343 0.46837 0.79022 0.0
H881 H 0.81408 0.48923 0.77713 0.0
C882 C 0.52751 0.36749 0.81821 0.0
C883 C 0.55001 0.36706 0.8504 0.0
C884 C 0.53215 0.31056 0.82925 0.0
C885 C 0.51327 0.31268 0.79249 0.0
N886 N 0.49518 0.34415 0.74855 0.0
N887 N 0.57495 0.33908 0.88635 0.0
C888 C 0.51108 0.34121 0.78644 0.0
C889 C 0.55258 0.33877 0.85599 0.0
N890 N 0.52205 0.39317 0.81756 0.0
N891 N 0.52973 0.28129 0.8394 0.0
H892 H 0.5889 0.35861 0.90857 0.0
H893 H 0.58089 0.32077 0.88792 0.0
H894 H 0.51444 0.26003 0.82105 0.0
H895 H 0.54042 0.27729 0.86849 0.0
H896 H 0.50327 0.39312 0.79879 0.0
H897 H 0.53455 0.41363 0.83867 0.0
H898 H 0.49647 0.36588 0.7388 0.0
H899 H 0.48263 0.32558 0.72441 0.0
C900 C 0.45859 0.62768 0.71031 0.0
C901 C 0.47249 0.63226 0.66497 0.0
C902 C 0.52185 0.68005 0.69322 0.0
C903 C 0.50571 0.67887 0.7355 0.0
N904 N 0.45741 0.65289 0.78344 0.0
N905 N 0.51582 0.66594 0.61132 0.0
C906 C 0.47384 0.65281 0.74421 0.0
C907 C 0.50391 0.65905 0.65594 0.0
N908 N 0.43119 0.59908 0.72124 0.0
N909 N 0.55445 0.70119 0.68886 0.0
H910 H 0.50292 0.65223 0.58244 0.0
H911 H 0.53709 0.68719 0.60231 0.0
H912 H 0.56841 0.71648 0.71603 0.0
H913 H 0.56811 0.70103 0.66044 0.0
H914 H 0.42171 0.59316 0.75498 0.0
H915 H 0.41978 0.57989 0.69757 0.0
H916 H 0.43281 0.63653 0.78884 0.0
H917 H 0.46769 0.67075 0.8092 0.0
C918 C 0.35872 0.83001 0.75528 0.0
C919 C 0.3534 0.83989 0.71079 0.0
C920 C 0.30025 0.82936 0.73785 0.0
C921 C 0.30181 0.81072 0.77543 0.0
N922 N 0.33476 0.79851 0.82587 0.0
N923 N 0.31649 0.84554 0.65811 0.0
C924 C 0.33194 0.81289 0.78618 0.0
C925 C 0.32366 0.83915 0.70171 0.0
N926 N 0.38942 0.8378 0.76829 0.0
N927 N 0.2772 0.83847 0.73691 0.0
H928 H 0.33188 0.85121 0.62939 0.0
H929 H 0.29358 0.84183 0.64941 0.0
H930 H 0.26245 0.83561 0.76556 0.0
H931 H 0.27653 0.85359 0.71105 0.0
H932 H 0.39538 0.83343 0.80148 0.0
H933 H 0.40961 0.85178 0.74723 0.0
H934 H 0.35455 0.79543 0.83292 0.0
H935 H 0.31667 0.78912 0.85149 0.0
C936 C 0.14006 0.49411 0.73184 0.0
C937 C 0.15692 0.5282 0.72474 0.0
C938 C 0.1971 0.53479 0.78375 0.0
C939 C 0.18372 0.50066 0.78394 0.0
N940 N 0.14174 0.44709 0.76162 0.0
N941 N 0.20158 0.58165 0.7431 0.0
C942 C 0.15462 0.48004 0.75953 0.0
C943 C 0.18506 0.54888 0.75131 0.0
N944 N 0.11007 0.47542 0.71224 0.0
N945 N 0.22172 0.55361 0.81392 0.0
H946 H 0.19356 0.593 0.71979 0.0
H947 H 0.22431 0.59752 0.75717 0.0
H948 H 0.23127 0.54379 0.83744 0.0
H949 H 0.23066 0.57839 0.81868 0.0
H950 H 0.09519 0.45072 0.71893 0.0
H951 H 0.09883 0.48535 0.69218 0.0
H952 H 0.12292 0.43065 0.74033 0.0
H953 H 0.15081 0.43619 0.78405 0.0
C954 C 0.32341 0.78465 0.11964 0.0
C955 C 0.35318 0.81359 0.12832 0.0
C956 C 0.33273 0.81999 0.20387 0.0
C957 C 0.30253 0.79141 0.19485 0.0
N958 N 0.26625 0.75169 0.13912 0.0
N959 N 0.38268 0.86365 0.17175 0.0
C960 C 0.29698 0.77528 0.15111 0.0
C961 C 0.35657 0.83297 0.16798 0.0
N962 N 0.32057 0.76589 0.0817 0.0
N963 N 0.33983 0.83347 0.2476 0.0
H964 H 0.40068 0.87408 0.14628 0.0
H965 H 0.38467 0.87997 0.19769 0.0
H966 H 0.32382 0.82442 0.27573 0.0
H967 H 0.36291 0.85186 0.2573 0.0
H968 H 0.30094 0.74258 0.07652 0.0
H969 H 0.33875 0.77308 0.05641 0.0
H970 H 0.26012 0.74108 0.1061 0.0
H971 H 0.24616 0.74502 0.16071 0.0
C972 C 0.15238 0.47726 0.13943 0.0
C973 C 0.17448 0.50172 0.10854 0.0
C974 C 0.21818 0.49253 0.13568 0.0
C975 C 0.19732 0.47215 0.17167 0.0
N976 N 0.14454 0.44436 0.20831 0.0
N977 N 0.2288 0.53413 0.07792 0.0
C978 C 0.16432 0.46413 0.1735 0.0
C979 C 0.20739 0.50936 0.10613 0.0
N980 N 0.11982 0.46607 0.13519 0.0
N981 N 0.24839 0.49613 0.13013 0.0
H982 H 0.22183 0.54687 0.05554 0.0
H983 H 0.25383 0.54357 0.07877 0.0
H984 H 0.25762 0.48523 0.15217 0.0
H985 H 0.2634 0.50784 0.10164 0.0
H986 H 0.10199 0.4462 0.15355 0.0
H987 H 0.1104 0.47481 0.10981 0.0
H988 H 0.12155 0.44097 0.21535 0.0
H989 H 0.1517 0.43232 0.23179 0.0
C990 C 0.50184 0.69711 0.10125 0.0
C991 C 0.50599 0.6908 0.14867 0.0
C992 C 0.50363 0.6403 0.12483 0.0
C993 C 0.49128 0.64251 0.08088 0.0
N994 N 0.4951 0.67916 0.02006 0.0
N995 N 0.50879 0.65485 0.20628 0.0
C996 C 0.49521 0.67287 0.06665 0.0
C997 C 0.50704 0.66231 0.1606 0.0
N998 N 0.50416 0.72613 0.08962 0.0
N999 N 0.51338 0.618 0.13158 0.0
H1000 H 0.50969 0.66934 0.2342 0.0
H1001 H 0.50607 0.63259 0.21667 0.0
H1002 H 0.51405 0.60381 0.10418 0.0
H1003 H 0.5249 0.61694 0.16197 0.0
H1004 H 0.49839 0.73133 0.05693 0.0
H1005 H 0.5116 0.74528 0.11326 0.0
H1006 H 0.49848 0.70092 0.00639 0.0
H1007 H 0.49547 0.6637 0.99446 0.0
C1008 C 0.21507 0.67219 0.62972 0.0
C1009 C 0.18713 0.66036 0.60109 0.0
C1010 C 0.1767 0.70267 0.63127 0.0
C1011 C 0.20114 0.71057 0.66536 0.0
N1012 N 0.24482 0.70452 0.69691 0.0
N1013 N 0.14094 0.66374 0.5736 0.0
C1014 C 0.22096 0.69605 0.6642 0.0
C1015 C 0.16819 0.67588 0.60078 0.0
N1016 N 0.2361 0.66076 0.62322 0.0
N1017 N 0.16156 0.72065 0.62839 0.0
H1018 H 0.13453 0.64491 0.54975 0.0
H1019 H 0.12376 0.67116 0.57618 0.0
H1020 H 0.16684 0.73993 0.65097 0.0
H1021 H 0.14577 0.71827 0.60152 0.0
H1022 H 0.2584 0.67013 0.64007 0.0
H1023 H 0.23251 0.64365 0.59752 0.0
H1024 H 0.25743 0.69209 0.70195 0.0
H1025 H 0.25118 0.72345 0.7206 0.0
C1026 C 0.30349 0.46419 0.63258 0.0
C1027 C 0.28556 0.47978 0.6438 0.0
C1028 C 0.31355 0.51981 0.58156 0.0
C1029 C 0.33509 0.50752 0.576 0.0
N1030 N 0.35048 0.46746 0.59377 0.0
N1031 N 0.274 0.52328 0.63119 0.0
C1032 C 0.32982 0.47931 0.60053 0.0
C1033 C 0.29019 0.50743 0.61824 0.0
N1034 N 0.2948 0.4346 0.65194 0.0
N1035 N 0.3158 0.54366 0.55241 0.0
H1036 H 0.25678 0.5152 0.65792 0.0
H1037 H 0.27916 0.54572 0.61773 0.0
H1038 H 0.33344 0.55423 0.5264 0.0
H1039 H 0.29857 0.55108 0.55127 0.0
H1040 H 0.30488 0.42041 0.64221 0.0
H1041 H 0.27533 0.42281 0.67512 0.0
H1042 H 0.35075 0.44966 0.61469 0.0
H1043 H 0.3684 0.47636 0.56789 0.0
C1044 C 0.50209 0.80923 0.62999 0.0
C1045 C 0.50955 0.81657 0.67796 0.0
C1046 C 0.48243 0.84872 0.67863 0.0
C1047 C 0.47463 0.84125 0.63043 0.0
N1048 N 0.4851 0.82267 0.55747 0.0
N1049 N 0.51532 0.85051 0.74432 0.0
C1050 C 0.48705 0.82408 0.60519 0.0
C1051 C 0.50289 0.83904 0.70085 0.0
N1052 N 0.50871 0.78746 0.60852 0.0
N1053 N 0.46825 0.86253 0.70451 0.0
H1054 H 0.52921 0.84298 0.76293 0.0
H1055 H 0.51428 0.86969 0.76031 0.0
H1056 H 0.45262 0.86977 0.69091 0.0
H1057 H 0.46968 0.86426 0.74084 0.0
H1058 H 0.50024 0.77795 0.57535 0.0
H1059 H 0.52157 0.77776 0.62498 0.0
H1060 H 0.49618 0.81295 0.53674 0.0
H1061 H 0.47511 0.83422 0.53826 0.0
C1062 C 0.33311 0.52948 0.21198 0.0
C1063 C 0.32705 0.50787 0.24991 0.0
C1064 C 0.37131 0.49926 0.22341 0.0
C1065 C 0.37838 0.5223 0.18727 0.0
N1066 N 0.37207 0.5658 0.15513 0.0
N1067 N 0.34373 0.47675 0.29713 0.0
C1068 C 0.36114 0.53942 0.18404 0.0
C1069 C 0.34719 0.49408 0.25727 0.0
N1070 N 0.31121 0.53909 0.20076 0.0
N1071 N 0.38671 0.48147 0.22431 0.0
H1072 H 0.32642 0.4727 0.32269 0.0
H1073 H 0.35973 0.46882 0.30682 0.0
H1074 H 0.40476 0.48494 0.20038 0.0
H1075 H 0.38007 0.46179 0.24659 0.0
H1076 H 0.31281 0.55189 0.17034 0.0
H1077 H 0.28956 0.53149 0.21894 0.0
H1078 H 0.3623 0.58114 0.15492 0.0
H1079 H 0.39312 0.57443 0.13499 0.0
C1080 C 0.53273 0.84928 0.19417 0.0
C1081 C 0.51458 0.82929 0.23234 0.0
C1082 C 0.46826 0.836 0.21165 0.0
C1083 C 0.48658 0.85628 0.17377 0.0
N1084 N 0.53802 0.88825 0.13497 0.0
N1085 N 0.46824 0.80871 0.28354 0.0
C1086 C 0.51944 0.86483 0.16698 0.0
C1087 C 0.48331 0.82433 0.24306 0.0
N1088 N 0.56196 0.85211 0.1825 0.0
N1089 N 0.43607 0.82654 0.21614 0.0
H1090 H 0.47868 0.79973 0.30697 0.0
H1091 H 0.44684 0.80704 0.29589 0.0
H1092 H 0.4243 0.83496 0.19435 0.0
H1093 H 0.42041 0.80877 0.23951 0.0
H1094 H 0.57447 0.86301 0.15178 0.0
H1095 H 0.57286 0.84158 0.20195 0.0
H1096 H 0.563 0.898 0.13153 0.0
H1097 H 0.52894 0.90015 0.11461 0.0
C1098 C 0.18717 0.6428 0.28453 0.0
C1099 C 0.18234 0.66983 0.28111 0.0
C1100 C 0.15315 0.64912 0.20739 0.0
C1101 C 0.16374 0.62598 0.20597 0.0
N1102 N 0.18624 0.59684 0.24553 0.0
N1103 N 0.14426 0.68595 0.25559 0.0
C1104 C 0.17903 0.62134 0.24564 0.0
C1105 C 0.16 0.66897 0.24762 0.0
N1106 N 0.19728 0.63658 0.32594 0.0
N1107 N 0.13872 0.65392 0.16928 0.0
H1108 H 0.14664 0.69802 0.28714 0.0
H1109 H 0.1258 0.68436 0.23419 0.0
H1110 H 0.13311 0.63998 0.13896 0.0
H1111 H 0.1344 0.67331 0.16651 0.0
H1112 H 0.20004 0.61651 0.33196 0.0
H1113 H 0.19895 0.6495 0.35633 0.0
H1114 H 0.20082 0.59438 0.27042 0.0
H1115 H 0.17812 0.5791 0.21946 0.0
C1116 C 0.10271 0.15956 0.21396 0.0
C1117 C 0.10248 0.14748 0.2593 0.0
C1118 C 0.1071 0.10256 0.2253 0.0
C1119 C 0.1131 0.1179 0.18096 0.0
N1120 N 0.12003 0.16311 0.13352 0.0
N1121 N 0.10429 0.10759 0.30938 0.0
C1122 C 0.11123 0.14666 0.17508 0.0
C1123 C 0.10439 0.11883 0.26531 0.0
N1124 N 0.09522 0.18363 0.20815 0.0
N1125 N 0.10324 0.0721 0.22881 0.0
H1126 H 0.10027 0.11768 0.33931 0.0
H1127 H 0.10968 0.08931 0.31652 0.0
H1128 H 0.10443 0.05932 0.19988 0.0
H1129 H 0.09589 0.05828 0.25931 0.0
H1130 H 0.09161 0.19104 0.17551 0.0
H1131 H 0.08959 0.19406 0.23611 0.0
H1132 H 0.12254 0.18601 0.12885 0.0
H1133 H 0.12748 0.15526 0.10446 0.0
C1134 C 0.8915 0.99097 0.27879 0.0
C1135 C 0.86513 0.95881 0.27309 0.0
C1136 C 0.86076 0.96957 0.19041 0.0
C1137 C 0.88788 0.00137 0.19577 0.0
N1138 N 0.93419 0.03921 0.24113 0.0
N1139 N 0.82989 0.91493 0.22191 0.0
C1140 C 0.9049 0.01106 0.23878 0.0
C1141 C 0.85147 0.94728 0.22828 0.0
N1142 N 0.90253 0.00308 0.32254 0.0
N1143 N 0.8427 0.96122 0.15032 0.0
H1144 H 0.82285 0.89798 0.24899 0.0
H1145 H 0.82143 0.90445 0.18919 0.0
H1146 H 0.84829 0.97687 0.12189 0.0
H1147 H 0.82069 0.93964 0.1465 0.0
H1148 H 0.91905 0.02751 0.32897 0.0
H1149 H 0.89324 0.98945 0.353 0.0
H1150 H 0.94924 0.04599 0.27037 0.0
H1151 H 0.94497 0.05416 0.21214 0.0
C1152 C 0.99525 0.90016 0.20695 0.0
C1153 C 0.97406 0.86623 0.20077 0.0
C1154 C 0.99214 0.85568 0.27546 0.0
C1155 C 0.01655 0.88889 0.27817 0.0
N1156 N 0.04401 0.94253 0.24402 0.0
N1157 N 0.9573 0.81114 0.22474 0.0
C1158 C 0.01876 0.9112 0.2434 0.0
C1159 C 0.97365 0.84378 0.23396 0.0
N1160 N 0.99224 0.92185 0.17899 0.0
N1161 N 0.98611 0.83561 0.313 0.0
H1162 H 0.94481 0.8012 0.19365 0.0
H1163 H 0.95905 0.79417 0.24576 0.0
H1164 H -0.00133 0.84364 0.34455 0.0
H1165 H 0.9664 0.812 0.31453 0.0
H1166 H 0.00484 0.94685 0.18478 0.0
H1167 H 0.97487 0.91467 0.15258 0.0
H1168 H 0.04898 0.95885 0.21666 0.0
H1169 H 0.06156 0.95154 0.27031 0.0
C1170 C 0.87985 0.84923 0.75707 0.0
C1171 C 0.87496 0.85198 0.70878 0.0
C1172 C 0.85788 0.89182 0.72551 0.0
C1173 C 0.86296 0.88931 0.77389 0.0
N1174 N 0.8853 0.87153 0.83513 0.0
N1175 N 0.86705 0.88084 0.64568 0.0
C1176 C 0.87601 0.86981 0.78948 0.0
C1177 C 0.86648 0.87495 0.69258 0.0
N1178 N 0.88696 0.82613 0.77199 0.0
N1179 N 0.8431 0.90873 0.7112 0.0
H1180 H 0.87344 0.86893 0.62078 0.0
H1181 H 0.86419 0.8995 0.63171 0.0
H1182 H 0.83633 0.92138 0.73413 0.0
H1183 H 0.83531 0.90831 0.67706 0.0
H1184 H 0.8871 0.82017 0.80699 0.0
H1185 H 0.89102 0.81145 0.74903 0.0
H1186 H 0.89741 0.86002 0.84803 0.0
H1187 H 0.88335 0.88682 0.85953 0.0
C1188 C 0.11145 0.97789 0.69826 0.0
C1189 C 0.13931 0.00892 0.70547 0.0
C1190 C 0.13119 0.00199 0.79041 0.0
C1191 C 0.10605 0.96941 0.78315 0.0
N1192 N 0.0731 0.9252 0.73081 0.0
N1193 N 0.17838 0.0492 0.75819 0.0
C1194 C 0.09641 0.95703 0.73721 0.0
C1195 C 0.14969 0.02086 0.75149 0.0
N1196 N 0.09861 0.9689 0.65435 0.0
N1197 N 0.13765 0.01483 0.83454 0.0
H1198 H 0.19307 0.0635 0.73081 0.0
H1199 H 0.18915 0.05725 0.79082 0.0
H1200 H 0.12589 0.00138 0.8643 0.0
H1201 H 0.15292 0.03946 0.84139 0.0
H1202 H 0.0765 0.94805 0.64743 0.0
H1203 H 0.10853 0.98385 0.62514 0.0
H1204 H 0.06786 0.91358 0.69846 0.0
H1205 H 0.06009 0.90973 0.75839 0.0
C1206 C 0.96542 0.132 0.78159 0.0
C1207 C 0.97783 0.14086 0.73542 0.0
C1208 C 0.03274 0.15758 0.76305 0.0
C1209 C 0.02039 0.14878 0.80918 0.0
N1210 N 0.97467 0.12138 0.86148 0.0
N1211 N 0.02096 0.15412 0.68005 0.0
C1212 C 0.98654 0.13368 0.81807 0.0
C1213 C 0.01084 0.15127 0.7255 0.0
N1214 N 0.93408 0.12401 0.79112 0.0
N1215 N 0.0655 0.17252 0.75532 0.0
H1216 H 0.00533 0.14902 0.6517 0.0
H1217 H 0.04392 0.15854 0.67028 0.0
H1218 H 0.08207 0.1755 0.78141 0.0
H1219 H 0.07644 0.18336 0.72371 0.0
H1220 H 0.92467 0.12102 0.82481 0.0
H1221 H 0.91785 0.12264 0.76552 0.0
H1222 H 0.95 0.10708 0.86887 0.0
H1223 H 0.98952 0.12326 0.88951 0.0
C1224 C 0.79233 0.48351 0.60047 0.0
C1225 C 0.81237 0.51615 0.61533 0.0
C1226 C 0.85305 0.52407 0.55637 0.0
C1227 C 0.83439 0.49071 0.54403 0.0
N1228 N 0.78884 0.43727 0.55889 0.0
N1229 N 0.86507 0.56491 0.6155 0.0
C1230 C 0.8047 0.46997 0.56738 0.0
C1231 C 0.84369 0.53569 0.59564 0.0
N1232 N 0.76115 0.46589 0.61665 0.0
N1233 N 0.87879 0.54515 0.52928 0.0
H1234 H 0.85957 0.57407 0.64514 0.0
H1235 H 0.88938 0.57848 0.60556 0.0
H1236 H 0.88621 0.5381 0.49935 0.0
H1237 H 0.8908 0.57028 0.53381 0.0
H1238 H 0.74422 0.44323 0.60339 0.0
H1239 H 0.75134 0.47504 0.64092 0.0
H1240 H 0.76889 0.42044 0.5782 0.0
H1241 H 0.79733 0.42659 0.53503 0.0
C1242 C 0.50416 0.32334 0.57984 0.0
C1243 C 0.50093 0.29224 0.57355 0.0
C1244 C 0.50675 0.30129 0.48886 0.0
C1245 C 0.50445 0.32977 0.49481 0.0
N1246 N 0.49687 0.36594 0.54609 0.0
N1247 N 0.49654 0.25004 0.52194 0.0
C1248 C 0.50241 0.34053 0.54037 0.0
C1249 C 0.50189 0.28088 0.52804 0.0
N1250 N 0.50957 0.33671 0.62356 0.0
N1251 N 0.51438 0.29421 0.44597 0.0
H1252 H 0.49311 0.2344 0.5497 0.0
H1253 H 0.49308 0.23913 0.48927 0.0
H1254 H 0.51858 0.3089 0.41668 0.0
H1255 H 0.51974 0.2757 0.44051 0.0
H1256 H 0.51514 0.36056 0.62985 0.0
H1257 H 0.51194 0.32507 0.65299 0.0
H1258 H 0.49159 0.37243 0.57834 0.0
H1259 H 0.49461 0.37878 0.5182 0.0
C1260 C 0.67038 0.2177 0.54394 0.0
C1261 C 0.63896 0.19042 0.55057 0.0
C1262 C 0.64416 0.19922 0.63539 0.0
C1263 C 0.67753 0.22266 0.62903 0.0
N1264 N 0.72253 0.25583 0.57815 0.0
N1265 N 0.5954 0.15438 0.60187 0.0
C1266 C 0.69056 0.23266 0.58345 0.0
C1267 C 0.62534 0.18141 0.59603 0.0
N1268 N 0.68059 0.22937 0.49973 0.0
N1269 N 0.63065 0.19341 0.67908 0.0
H1270 H 0.58065 0.14096 0.57401 0.0
H1271 H 0.58581 0.14393 0.63423 0.0
H1272 H 0.64382 0.20474 0.70912 0.0
H1273 H 0.6058 0.1793 0.68531 0.0
H1274 H 0.70211 0.25075 0.49236 0.0
H1275 H 0.66598 0.219 0.47037 0.0
H1276 H 0.73481 0.26148 0.54632 0.0
H1277 H 0.73728 0.26878 0.60635 0.0
C1278 C 0.48306 0.1452 0.03179 0.0
C1279 C 0.50918 0.16813 0.00376 0.0
C1280 C 0.51459 0.21229 0.05449 0.0
C1281 C 0.49074 0.18893 0.08495 0.0
N1282 N 0.45788 0.13266 0.10817 0.0
N1283 N 0.5537 0.22283 0.99276 0.0
C1284 C 0.47656 0.15522 0.07522 0.0
C1285 C 0.52606 0.20155 0.01627 0.0
N1286 N 0.46337 0.11417 0.01604 0.0
N1287 N 0.52541 0.24464 0.06098 0.0
H1288 H 0.56314 0.21577 0.96511 0.0
H1289 H 0.56887 0.24677 0.00338 0.0
H1290 H 0.51734 0.25341 0.08826 0.0
H1291 H 0.54016 0.26251 0.03703 0.0
H1292 H 0.44203 0.09755 0.03301 0.0
H1293 H 0.46632 0.10597 0.98357 0.0
H1294 H 0.44991 0.10795 0.1047 0.0
H1295 H 0.45314 0.13884 0.14107 0.0
C1296 C 0.82376 0.31377 0.06697 0.0
C1297 C 0.83965 0.34684 0.08132 0.0
C1298 C 0.82553 0.32969 0.16288 0.0
C1299 C 0.81352 0.29693 0.14905 0.0
N1300 N 0.80474 0.25781 0.08874 0.0
N1301 N 0.85968 0.38663 0.14344 0.0
C1302 C 0.81334 0.28889 0.10126 0.0
C1303 C 0.84143 0.35496 0.12941 0.0
N1304 N 0.81788 0.30609 0.02057 0.0
N1305 N 0.82099 0.33658 0.20777 0.0
H1306 H 0.87198 0.4059 0.12016 0.0
H1307 H 0.86494 0.39357 0.17834 0.0
H1308 H 0.80898 0.31862 0.23304 0.0
H1309 H 0.82633 0.35963 0.21882 0.0
H1310 H 0.80334 0.28245 0.00834 0.0
H1311 H 0.82499 0.32358 0.99434 0.0
H1312 H 0.80787 0.25135 0.05513 0.0
H1313 H 0.79693 0.23881 0.11273 0.0
C1314 C 0.70224 0.49894 0.01325 0.0
C1315 C 0.67376 0.46784 0.01041 0.0
C1316 C 0.68854 0.45174 0.08364 0.0
C1317 C 0.71321 0.48451 0.09059 0.0
N1318 N 0.75427 0.53225 0.05105 0.0
N1319 N 0.64015 0.41371 0.04104 0.0
C1320 C 0.72347 0.50614 0.05198 0.0
C1321 C 0.66718 0.44381 0.04486 0.0
N1322 N 0.70805 0.52223 0.98052 0.0
N1323 N 0.68741 0.42797 0.11181 0.0
H1324 H 0.62504 0.40643 0.01177 0.0
H1325 H 0.63177 0.39654 0.06781 0.0
H1326 H 0.70558 0.43277 0.13619 0.0
H1327 H 0.67147 0.40325 0.10682 0.0
H1328 H 0.72627 0.54643 0.98385 0.0
H1329 H 0.69317 0.5181 0.95157 0.0
H1330 H 0.76393 0.54813 0.02283 0.0
H1331 H 0.77173 0.53524 0.07567 0.0
C1332 C 0.46275 0.81759 0.89767 0.0
C1333 C 0.46705 0.81255 0.94541 0.0
C1334 C 0.48702 0.77573 0.92323 0.0
C1335 C 0.48282 0.78077 0.8755 0.0
N1336 N 0.46068 0.80088 0.81693 0.0
N1337 N 0.47518 0.78108 0.00427 0.0
C1338 C 0.46847 0.7997 0.86264 0.0
C1339 C 0.47673 0.78982 0.95837 0.0
N1340 N 0.45516 0.84089 0.88567 0.0
N1341 N 0.50153 0.75807 0.93492 0.0
H1342 H 0.46727 0.79061 0.03077 0.0
H1343 H 0.47866 0.76223 0.01556 0.0
H1344 H 0.50761 0.7458 0.91022 0.0
H1345 H 0.50907 0.75692 0.96868 0.0
H1346 H 0.45558 0.84862 0.85149 0.0
H1347 H 0.45046 0.85423 0.91028 0.0
H1348 H 0.4471 0.81135 0.80597 0.0
H1349 H 0.46573 0.78928 0.78997 0.0
C1350 C 0.19968 0.66862 0.91786 0.0
C1351 C 0.20519 0.69987 0.93058 0.0
C1352 C 0.18938 0.68109 0.0112 0.0
C1353 C 0.17836 0.64871 0.99638 0.0
N1354 N 0.17027 0.61088 0.93423 0.0
N1355 N 0.20246 0.73543 0.98865 0.0
C1356 C 0.18313 0.64223 0.94947 0.0
C1357 C 0.19971 0.7062 0.97724 0.0
N1358 N 0.21081 0.66433 0.87586 0.0
N1359 N 0.19047 0.68788 0.05785 0.0
H1360 H 0.20952 0.7544 0.96481 0.0
H1361 H 0.19514 0.73996 0.02077 0.0
H1362 H 0.18387 0.67011 0.08364 0.0
H1363 H 0.201 0.71143 0.07111 0.0
H1364 H 0.2103 0.64287 0.86654 0.0
H1365 H 0.22364 0.68334 0.85229 0.0
H1366 H 0.16975 0.60473 0.89914 0.0
H1367 H 0.15771 0.59074 0.95596 0.0
C1368 C 0.32659 0.52795 0.96553 0.0
C1369 C 0.36079 0.54535 0.95863 0.0
C1370 C 0.35292 0.54345 0.87374 0.0
C1371 C 0.3188 0.52758 0.88086 0.0
N1372 N 0.27363 0.51215 0.93324 0.0
N1373 N 0.40644 0.57634 0.90739 0.0
C1374 C 0.3058 0.52221 0.92674 0.0
C1375 C 0.37394 0.55519 0.91305 0.0
N1376 N 0.3138 0.51511 0.00841 0.0
N1377 N 0.36527 0.54575 0.82979 0.0
H1378 H 0.42251 0.58569 0.93545 0.0
H1379 H 0.41688 0.58702 0.87544 0.0
H1380 H 0.35083 0.53727 0.79994 0.0
H1381 H 0.38966 0.55357 0.82332 0.0
H1382 H 0.28912 0.49925 0.014 0.0
H1383 H 0.32794 0.5177 0.03767 0.0
H1384 H 0.26345 0.511 0.96598 0.0
H1385 H 0.25783 0.50818 0.90552 0.0
C1386 C 0.21355 0.51764 0.49588 0.0
C1387 C 0.20574 0.54254 0.48862 0.0
C1388 C 0.21013 0.53802 0.40379 0.0
C1389 C 0.21295 0.50996 0.41088 0.0
N1390 N 0.21466 0.47103 0.46337 0.0
N1391 N 0.19579 0.57637 0.43623 0.0
C1392 C 0.21453 0.49951 0.45685 0.0
C1393 C 0.20395 0.55281 0.44268 0.0
N1394 N 0.21943 0.51086 0.54007 0.0
N1395 N 0.21449 0.55114 0.35998 0.0
H1396 H 0.19347 0.58947 0.4638 0.0
H1397 H 0.18972 0.58181 0.40384 0.0
H1398 H 0.21982 0.54135 0.33089 0.0
H1399 H 0.21594 0.57336 0.35311 0.0
H1400 H 0.22897 0.49577 0.54701 0.0
H1401 H 0.21722 0.52223 0.56988 0.0
H1402 H 0.21187 0.46008 0.49589 0.0
H1403 H 0.21495 0.45674 0.43591 0.0
C1404 C 0.49425 0.63882 0.4043 0.0
C1405 C 0.47385 0.63782 0.44135 0.0
C1406 C 0.46393 0.67725 0.39965 0.0
C1407 C 0.48706 0.68074 0.36541 0.0
N1408 N 0.52791 0.66851 0.33822 0.0
N1409 N 0.44332 0.65989 0.47827 0.0
C1410 C 0.50336 0.66265 0.36871 0.0
C1411 C 0.45955 0.6579 0.44003 0.0
N1412 N 0.50372 0.61598 0.40187 0.0
N1413 N 0.44614 0.69237 0.39354 0.0
H1414 H 0.44026 0.64679 0.50895 0.0
H1415 H 0.43538 0.67666 0.48127 0.0
H1416 H 0.44961 0.70765 0.36525 0.0
H1417 H 0.42642 0.68791 0.41456 0.0
H1418 H 0.51549 0.6132 0.37299 0.0
H1419 H 0.49702 0.5976 0.42663 0.0
H1420 H 0.54318 0.65885 0.34239 0.0
H1421 H 0.53484 0.68509 0.31074 0.0
C1422 C 0.33747 0.83602 0.46764 0.0
C1423 C 0.34867 0.81794 0.49321 0.0
C1424 C 0.32035 0.77219 0.43878 0.0
C1425 C 0.31147 0.79138 0.41134 0.0
N1426 N 0.31841 0.84419 0.39334 0.0
N1427 N 0.35575 0.77117 0.499 0.0
C1428 C 0.32205 0.82409 0.42391 0.0
C1429 C 0.34149 0.78662 0.47766 0.0
N1430 N 0.34007 0.86381 0.48608 0.0
N1431 N 0.30773 0.73995 0.42868 0.0
H1432 H 0.37162 0.78115 0.52721 0.0
H1433 H 0.35416 0.74987 0.48627 0.0
H1434 H 0.29238 0.72868 0.40029 0.0
H1435 H 0.3104 0.72384 0.45039 0.0
H1436 H 0.32913 0.87594 0.47112 0.0
H1437 H 0.35025 0.87302 0.51875 0.0
H1438 H 0.32879 0.86913 0.3987 0.0
H1439 H 0.30794 0.8367 0.36034 0.0
C1440 C 0.28541 0.10674 0.12723 0.0
C1441 C 0.26625 0.12012 0.14293 0.0
C1442 C 0.31511 0.16967 0.16849 0.0
C1443 C 0.3341 0.15564 0.15487 0.0
N1444 N 0.33774 0.10942 0.12788 0.0
N1445 N 0.26147 0.16124 0.1859 0.0
C1446 C 0.31933 0.12364 0.13647 0.0
C1447 C 0.28072 0.15078 0.16559 0.0
N1448 N 0.27147 0.07877 0.10136 0.0
N1449 N 0.33002 0.20116 0.18379 0.0
H1450 H 0.23615 0.14786 0.18491 0.0
H1451 H 0.27033 0.18173 0.20712 0.0
H1452 H 0.35503 0.21509 0.18898 0.0
H1453 H 0.31796 0.21416 0.18878 0.0
H1454 H 0.28463 0.06966 0.08439 0.0
H1455 H 0.24674 0.06585 0.0936 0.0
H1456 H 0.32793 0.08493 0.11961 0.0
H1457 H 0.3629 0.12156 0.13216 0.0
C1458 C 0.83477 0.15255 0.22916 0.0
C1459 C 0.84668 0.18339 0.20766 0.0
C1460 C 0.88524 0.17494 0.1612 0.0
C1461 C 0.87483 0.14508 0.18495 0.0
N1462 N 0.84275 0.10688 0.24531 0.0
N1463 N 0.88669 0.2267 0.15962 0.0
C1464 C 0.85062 0.1344 0.22029 0.0
C1465 C 0.87279 0.19531 0.17525 0.0
N1466 N 0.80733 0.13993 0.25615 0.0
N1467 N 0.90697 0.18378 0.1251 0.0
H1468 H 0.87858 0.24257 0.16962 0.0
H1469 H 0.90801 0.23806 0.14002 0.0
H1470 H 0.91818 0.17056 0.11549 0.0
H1471 H 0.91245 0.20313 0.10268 0.0
H1472 H 0.79527 0.11613 0.26858 0.0
H1473 H 0.79487 0.15236 0.26313 0.0
H1474 H 0.82824 0.09995 0.27516 0.0
H1475 H 0.85238 0.09186 0.23808 0.0
C1476 C 0.83357 0.67304 0.22043 0.0
C1477 C 0.80983 0.65085 0.1889 0.0
C1478 C 0.8101 0.69609 0.14731 0.0
C1479 C 0.83694 0.71828 0.17478 0.0
N1480 N 0.87716 0.72806 0.23386 0.0
N1481 N 0.77745 0.64075 0.11935 0.0
C1482 C 0.84932 0.70687 0.21073 0.0
C1483 C 0.79836 0.66218 0.15171 0.0
N1484 N 0.84054 0.66175 0.26021 0.0
N1485 N 0.79538 0.70744 0.11783 0.0
H1486 H 0.76815 0.6157 0.12145 0.0
H1487 H 0.77121 0.64794 0.0885 0.0
H1488 H 0.80318 0.73214 0.11416 0.0
H1489 H 0.77374 0.6924 0.10035 0.0
H1490 H 0.85509 0.67689 0.28699 0.0
H1491 H 0.82928 0.63708 0.26857 0.0
H1492 H 0.88936 0.72063 0.25644 0.0
H1493 H 0.88973 0.75304 0.22768 0.0
C1494 C 0.17749 0.33301 0.2758 0.0
C1495 C 0.18677 0.35529 0.31358 0.0
C1496 C 0.14779 0.31171 0.36468 0.0
C1497 C 0.14086 0.28888 0.32812 0.0
N1498 N 0.15495 0.27683 0.25244 0.0
N1499 N 0.18577 0.36464 0.39641 0.0
C1500 C 0.15736 0.29924 0.28464 0.0
C1501 C 0.17334 0.34431 0.35877 0.0
N1502 N 0.18666 0.3441 0.23112 0.0
N1503 N 0.12916 0.30272 0.4043 0.0
H1504 H 0.20496 0.38851 0.39377 0.0
H1505 H 0.17925 0.35689 0.43083 0.0
H1506 H 0.10991 0.27926 0.40997 0.0
H1507 H 0.13085 0.31925 0.42967 0.0
H1508 H 0.17767 0.32913 0.20183 0.0
H1509 H 0.20067 0.36871 0.22281 0.0
H1510 H 0.16907 0.28305 0.2222 0.0
H1511 H 0.14144 0.25181 0.25817 0.0
C1512 C 0.65018 0.8004 0.34671 0.0
C1513 C 0.63521 0.81387 0.31864 0.0
C1514 C 0.68869 0.85966 0.29771 0.0
C1515 C 0.70328 0.84783 0.32944 0.0
N1516 N 0.69839 0.80903 0.38793 0.0
N1517 N 0.63938 0.85818 0.27211 0.0
C1518 C 0.68413 0.81886 0.35521 0.0
C1519 C 0.65425 0.84392 0.29509 0.0
N1520 N 0.63227 0.76926 0.36312 0.0
N1521 N 0.70777 0.88594 0.27007 0.0
H1522 H 0.61423 0.84756 0.26967 0.0
H1523 H 0.65173 0.88171 0.2587 0.0
H1524 H 0.73304 0.89912 0.27257 0.0
H1525 H 0.69881 0.8934 0.24242 0.0
H1526 H 0.64241 0.75684 0.37947 0.0
H1527 H 0.6075 0.75451 0.35659 0.0
H1528 H 0.68528 0.79047 0.41189 0.0
H1529 H 0.72344 0.82077 0.39321 0.0
C1530 C 0.15984 0.8122 0.32956 0.0
C1531 C 0.19232 0.83162 0.31369 0.0
C1532 C 0.1899 0.88095 0.33057 0.0
C1533 C 0.15887 0.86159 0.35134 0.0
N1534 N 0.11667 0.80909 0.37829 0.0
N1535 N 0.24048 0.8845 0.3068 0.0
C1536 C 0.14442 0.82726 0.35291 0.0
C1537 C 0.20799 0.86604 0.31617 0.0
N1538 N 0.14331 0.7795 0.3209 0.0
N1539 N 0.2016 0.91334 0.32286 0.0
H1540 H 0.25479 0.87458 0.29676 0.0
H1541 H 0.25386 0.90942 0.31312 0.0
H1542 H 0.18881 0.92506 0.33199 0.0
H1543 H 0.22247 0.92786 0.30336 0.0
H1544 H 0.11856 0.7647 0.32739 0.0
H1545 H 0.15352 0.76765 0.30292 0.0
H1546 H 0.10701 0.78435 0.38474 0.0
H1547 H 0.10497 0.81924 0.39678 0.0
C1548 C 0.6937 0.83792 0.84746 0.0
C1549 C 0.71672 0.86601 0.82271 0.0
C1550 C 0.67274 0.8663 0.77856 0.0
C1551 C 0.64968 0.84035 0.80672 0.0
N1552 N 0.63811 0.80561 0.87411 0.0
N1553 N 0.7281 0.91068 0.77106 0.0
C1554 C 0.66011 0.82728 0.84292 0.0
C1555 C 0.70626 0.88127 0.78997 0.0
N1556 N 0.70377 0.82055 0.87375 0.0
N1557 N 0.66283 0.87577 0.73975 0.0
H1558 H 0.75281 0.92273 0.77909 0.0
H1559 H 0.7213 0.92456 0.75091 0.0
H1560 H 0.63857 0.86497 0.72952 0.0
H1561 H 0.6789 0.89216 0.71523 0.0
H1562 H 0.68781 0.79801 0.88845 0.0
H1563 H 0.72811 0.82698 0.87714 0.0
H1564 H 0.64481 0.79799 0.90413 0.0
H1565 H 0.61331 0.79763 0.87258 0.0
C1566 C 0.12945 0.79085 0.86156 0.0
C1567 C 0.15779 0.80368 0.83341 0.0
C1568 C 0.15274 0.85122 0.81445 0.0
C1569 C 0.12325 0.83749 0.84021 0.0
N1570 N 0.08058 0.79219 0.88218 0.0
N1571 N 0.19319 0.84242 0.77601 0.0
C1572 C 0.11075 0.80669 0.86212 0.0
C1573 C 0.16846 0.83279 0.8077 0.0
N1574 N 0.12103 0.76414 0.88885 0.0
N1575 N 0.16663 0.88251 0.79843 0.0
H1576 H 0.20532 0.82952 0.7702 0.0
H1577 H 0.19975 0.86148 0.75253 0.0
H1578 H 0.15622 0.89712 0.8032 0.0
H1579 H 0.18987 0.89507 0.78408 0.0
H1580 H 0.10284 0.75575 0.91416 0.0
H1581 H 0.13377 0.75152 0.88845 0.0
H1582 H 0.0686 0.76835 0.89442 0.0
H1583 H 0.06626 0.80314 0.88323 0.0
C1584 C 0.15786 0.35022 0.8173 0.0
C1585 C 0.1881 0.3682 0.84061 0.0
C1586 C 0.18101 0.3183 0.87694 0.0
C1587 C 0.14972 0.30075 0.85639 0.0
N1588 N 0.10575 0.30046 0.81393 0.0
N1589 N 0.22728 0.37076 0.89658 0.0
C1590 C 0.13746 0.31679 0.82823 0.0
C1591 C 0.19924 0.35266 0.87184 0.0
N1592 N 0.14864 0.36507 0.78467 0.0
N1593 N 0.19393 0.30191 0.89934 0.0
H1594 H 0.24243 0.3957 0.8917 0.0
H1595 H 0.23459 0.36149 0.92402 0.0
H1596 H 0.18146 0.27672 0.90341 0.0
H1597 H 0.21795 0.31282 0.91054 0.0
H1598 H 0.12888 0.35248 0.76242 0.0
H1599 H 0.16197 0.3899 0.77749 0.0
H1600 H 0.09429 0.31164 0.79774 0.0
H1601 H 0.08981 0.2761 0.82194 0.0
C1602 C 0.85445 0.68497 0.6604 0.0
C1603 C 0.87128 0.7121 0.69054 0.0
C1604 C 0.8534 0.67555 0.75836 0.0
C1605 C 0.83381 0.64904 0.72844 0.0
N1606 N 0.80934 0.63022 0.6525 0.0
N1607 N 0.8814 0.73394 0.76904 0.0
C1608 C 0.83251 0.65421 0.67984 0.0
C1609 C 0.86935 0.70765 0.73983 0.0
N1610 N 0.86029 0.68822 0.61332 0.0
N1611 N 0.85775 0.67008 0.80399 0.0
H1612 H 0.89251 0.75784 0.757 0.0
H1613 H 0.87758 0.73193 0.80506 0.0
H1614 H 0.84676 0.6469 0.81878 0.0
H1615 H 0.87454 0.68819 0.82597 0.0
H1616 H 0.85098 0.66847 0.59052 0.0
H1617 H 0.8772 0.71009 0.59772 0.0
H1618 H 0.80544 0.63383 0.61771 0.0
H1619 H 0.79159 0.60789 0.66593 0.0
C1620 C 0.29923 0.13945 0.67505 0.0
C1621 C 0.28461 0.15271 0.6459 0.0
C1622 C 0.33774 0.20114 0.63243 0.0
C1623 C 0.35274 0.18616 0.65689 0.0
N1624 N 0.34849 0.13949 0.69695 0.0
N1625 N 0.29011 0.19389 0.59119 0.0
C1626 C 0.33368 0.15494 0.67728 0.0
C1627 C 0.30386 0.18304 0.62323 0.0
N1628 N 0.28014 0.11257 0.70163 0.0
N1629 N 0.35572 0.23302 0.61924 0.0
H1630 H 0.26542 0.18129 0.58306 0.0
H1631 H 0.30357 0.21393 0.56966 0.0
H1632 H 0.38055 0.24723 0.62593 0.0
H1633 H 0.34554 0.24628 0.60575 0.0
H1634 H 0.2893 0.10375 0.72723 0.0
H1635 H 0.25481 0.1007 0.70107 0.0
H1636 H 0.33602 0.11527 0.70757 0.0
H1637 H 0.37365 0.15009 0.69934 0.0
C1638 C 0.84946 0.18557 0.63743 0.0
C1639 C 0.84099 0.15524 0.65816 0.0
C1640 C 0.80674 0.16238 0.71551 0.0
C1641 C 0.81294 0.19133 0.6922 0.0
N1642 N 0.83502 0.22723 0.62565 0.0
N1643 N 0.80861 0.11227 0.71259 0.0
C1644 C 0.83303 0.20218 0.65179 0.0
C1645 C 0.81864 0.14284 0.69586 0.0
N1646 N 0.87343 0.19865 0.60429 0.0
N1647 N 0.79077 0.15435 0.7575 0.0
H1648 H 0.81766 0.09771 0.70005 0.0
H1649 H 0.78964 0.10041 0.7364 0.0
H1650 H 0.78225 0.16841 0.77351 0.0
H1651 H 0.78846 0.13543 0.77856 0.0
H1652 H 0.88332 0.22237 0.59192 0.0
H1653 H 0.88523 0.18667 0.59158 0.0
H1654 H 0.84644 0.2339 0.59317 0.0
H1655 H 0.82263 0.2395 0.63409 0.0
C1656 C 0.04035 0.55037 0.53284 0.0
C1657 C 0.05539 0.53132 0.52634 0.0
C1658 C 0.00499 0.4868 0.49424 0.0
C1659 C 0.98918 0.50476 0.50433 0.0
N1660 N 0.98999 0.55144 0.53916 0.0
N1661 N 0.05184 0.48024 0.50671 0.0
C1662 C 0.00639 0.53606 0.52503 0.0
C1663 C 0.03761 0.49913 0.50887 0.0
N1664 N 0.05861 0.58218 0.54617 0.0
N1665 N 0.98931 0.45874 0.46868 0.0
H1666 H 0.07611 0.48884 0.51535 0.0
H1667 H 0.03906 0.45542 0.49956 0.0
H1668 H 0.96558 0.4492 0.45652 0.0
H1669 H 0.00065 0.4464 0.45585 0.0
H1670 H 0.04999 0.59848 0.54628 0.0
H1671 H 0.08323 0.59297 0.55433 0.0
H1672 H 0.00043 0.57266 0.55899 0.0
H1673 H 0.96506 0.54162 0.53432 0.0
C1674 C 0.46859 0.50179 0.43244 0.0
C1675 C 0.45661 0.49853 0.47885 0.0
C1676 C 0.47644 0.46111 0.4978 0.0
C1677 C 0.48681 0.46299 0.45076 0.0
N1678 N 0.48903 0.48127 0.37138 0.0
N1679 N 0.4429 0.47025 0.55274 0.0
C1680 C 0.48153 0.48199 0.41741 0.0
C1681 C 0.45887 0.47688 0.51079 0.0
N1682 N 0.4693 0.52508 0.40352 0.0
N1683 N 0.48357 0.44441 0.53017 0.0
H1684 H 0.42913 0.48073 0.56303 0.0
H1685 H 0.4407 0.45215 0.57551 0.0
H1686 H 0.49483 0.43107 0.52159 0.0
H1687 H 0.48023 0.44544 0.566 0.0
H1688 H 0.48129 0.53141 0.37145 0.0
H1689 H 0.46009 0.5401 0.41298 0.0
H1690 H 0.48208 0.49131 0.34455 0.0
H1691 H 0.50041 0.46873 0.35932 0.0
C1692 C 0.52546 0.03234 0.53923 0.0
C1693 C 0.51096 0.04334 0.50602 0.0
C1694 C 0.4618 0.98958 0.50523 0.0
C1695 C 0.47757 0.97782 0.53481 0.0
N1696 N 0.52515 0.98648 0.57707 0.0
N1697 N 0.46756 0.0318 0.4519 0.0
C1698 C 0.50967 0.99876 0.55093 0.0
C1699 C 0.47959 0.02188 0.48777 0.0
N1700 N 0.55366 0.05424 0.56097 0.0
N1701 N 0.42983 0.96984 0.49376 0.0
H1702 H 0.48001 0.05509 0.43755 0.0
H1703 H 0.44652 0.01624 0.43353 0.0
H1704 H 0.41639 0.94554 0.504 0.0
H1705 H 0.41591 0.9781 0.47692 0.0
H1706 H 0.5637 0.04838 0.58904 0.0
H1707 H 0.56573 0.0791 0.55366 0.0
H1708 H 0.5498 -0.00045 0.5851 0.0
H1709 H 0.51379 0.9624 0.5885 0.0
C1710 C 0.50112 0.99793 0.94834 0.0
C1711 C 0.49242 0.01909 0.97101 0.0
C1712 C 0.45489 0.97466 0.02223 0.0
C1713 C 0.46164 0.95294 0.99712 0.0
N1714 N 0.48686 0.94229 0.93144 0.0
N1715 N 0.45676 0.02658 0.02323 0.0
C1716 C 0.48359 0.96412 0.9588 0.0
C1717 C 0.4681 0.00718 0.00624 0.0
N1718 N 0.52696 0.01031 0.91826 0.0
N1719 N 0.43689 0.96459 0.06245 0.0
H1720 H 0.46547 0.05041 0.01191 0.0
H1721 H 0.43667 0.01818 0.04524 0.0
H1722 H 0.42698 0.94101 0.07557 0.0
H1723 H 0.43421 0.98029 0.08506 0.0
H1724 H 0.53679 0.99671 0.90477 0.0
H1725 H 0.5404 0.03491 0.90966 0.0
H1726 H 0.49971 0.94851 0.90004 0.0
H1727 H 0.47443 0.91733 0.93798 0.0
C1728 C 0.99231 0.4981 0.00987 0.0
C1729 C 0.97638 0.46371 0.00635 0.0
C1730 C 0.02394 0.46435 0.04064 0.0
C1731 C 0.03797 0.49812 0.04971 0.0
N1732 N 0.03282 0.54623 0.0501 0.0
N1733 N 0.97464 0.41337 0.02602 0.0
C1734 C 0.0215 0.51483 0.03612 0.0
C1735 C 0.99156 0.44658 0.02365 0.0
N1736 N 0.98011 0.51491 0.98692 0.0
N1737 N 0.04193 0.44943 0.04656 0.0
H1738 H 0.95065 0.39933 0.01491 0.0
H1739 H 0.98338 0.39991 0.04308 0.0
H1740 H 0.06605 0.46184 0.05755 0.0
H1741 H 0.03405 0.42564 0.03596 0.0
H1742 H 0.99249 0.54018 0.98429 0.0
H1743 H 0.95916 0.50358 0.96646 0.0
H1744 H 0.01987 0.55838 0.04545 0.0
H1745 H 0.05365 0.55921 0.07038 0.0
C1746 C 0.54125 0.50603 0.01953 0.0
C1747 C 0.5267 0.47721 0.99227 0.0
C1748 C 0.47679 0.48004 0.98516 0.0
C1749 C 0.49085 0.50808 0.0141 0.0
N1750 N 0.53341 0.54409 0.06654 0.0
N1751 N 0.47944 0.43367 0.95496 0.0
C1752 C 0.52228 0.52009 0.03343 0.0
C1753 C 0.49399 0.46313 0.97714 0.0
N1754 N 0.5733 0.52011 0.03171 0.0
N1755 N 0.44784 0.47065 0.96329 0.0
H1756 H 0.49171 0.42129 0.9464 0.0
H1757 H 0.45466 0.42035 0.94788 0.0
H1758 H 0.43455 0.48247 0.96805 0.0
H1759 H 0.43809 0.45275 0.93759 0.0
H1760 H 0.58639 0.54317 0.04648 0.0
H1761 H 0.58751 0.50955 0.02456 0.0
H1762 H 0.55465 0.55165 0.08558 0.0
H1763 H 0.51991 0.55456 0.07818 0.0
loop_
_geom_bond_atom_site_label_1
_geom_bond_atom_site_label_2
_geom_bond_distance
_geom_bond_site_symmetry_2
_ccdc_geom_bond_type
C0 O1 1.160 . S
C0 O7 1.185 . S
O1 C0 1.160 . S
O2 Zn3 1.899 . S
O2 C10 1.284 . S
Zn3 O2 1.899 . S
Zn3 O4 2.032 . S
Zn3 O7 2.086 . S
Zn3 O12 1.977 . S
O4 Zn3 2.032 . S
O4 C8 1.278 . S
C5 O6 1.203 . S
C5 O12 1.267 . S
O6 C5 1.203 . S
O7 C0 1.185 . S
O7 Zn3 2.086 . S
C8 O4 1.278 . S
C8 O9 1.211 . S
O9 C8 1.211 . S
C10 O2 1.284 . S
C10 O11 1.273 . S
O11 C10 1.273 . S
O12 Zn3 1.977 . S
O12 C5 1.267 . S
C13 O14 1.160 . S
C13 O20 1.185 . S
O14 C13 1.160 . S
O15 Zn16 1.899 . S
O15 C23 1.284 . S
Zn16 O15 1.899 . S
Zn16 O17 2.032 . S
Zn16 O20 2.086 . S
Zn16 O25 1.977 . S
O17 Zn16 2.032 . S
O17 C21 1.278 . S
C18 O19 1.203 . S
C18 O25 1.267 . S
O19 C18 1.203 . S
O20 C13 1.185 . S
O20 Zn16 2.086 . S
C21 O17 1.278 . S
C21 O22 1.211 . S
O22 C21 1.211 . S
C23 O15 1.284 . S
C23 O24 1.273 . S
O24 C23 1.273 . S
O25 Zn16 1.977 . S
O25 C18 1.267 . S
C26 O27 1.160 . S
C26 O33 1.185 . S
O27 C26 1.160 . S
O28 Zn29 1.899 . S
O28 C36 1.284 . S
Zn29 O28 1.899 . S
Zn29 O30 2.032 . S
Zn29 O33 2.086 . S
Zn29 O38 1.977 . S
O30 Zn29 2.032 . S
O30 C34 1.278 . S
C31 O32 1.203 . S
C31 O38 1.267 . S
O32 C31 1.203 . S
O33 C26 1.185 . S
O33 Zn29 2.086 . S
C34 O30 1.278 . S
C34 O35 1.211 . S
O35 C34 1.211 . S
C36 O28 1.284 . S
C36 O37 1.273 . S
O37 C36 1.273 . S
O38 Zn29 1.977 . S
O38 C31 1.267 . S
C39 O40 1.160 . S
C39 O46 1.185 . S
O40 C39 1.160 . S
O41 Zn42 1.899 . S
O41 C49 1.284 . S
Zn42 O41 1.899 . S
Zn42 O43 2.032 . S
Zn42 O46 2.086 . S
Zn42 O51 1.977 . S
O43 Zn42 2.032 . S
O43 C47 1.278 . S
C44 O45 1.203 . S
C44 O51 1.267 . S
O45 C44 1.203 . S
O46 C39 1.185 . S
O46 Zn42 2.086 . S
C47 O43 1.278 . S
C47 O48 1.211 . S
O48 C47 1.211 . S
C49 O41 1.284 . S
C49 O50 1.273 . S
O50 C49 1.273 . S
O51 Zn42 1.977 . S
O51 C44 1.267 . S
C52 O53 1.160 . S
C52 O59 1.185 . S
O53 C52 1.160 . S
O54 Zn55 1.899 . S
O54 C62 1.284 . S
Zn55 O54 1.899 . S
Zn55 O56 2.032 . S
Zn55 O59 2.086 . S
Zn55 O64 1.977 . S
O56 Zn55 2.032 . S
O56 C60 1.278 . S
C57 O58 1.203 . S
C57 O64 1.267 . S
O58 C57 1.203 . S
O59 C52 1.185 . S
O59 Zn55 2.086 . S
C60 O56 1.278 . S
C60 O61 1.211 . S
O61 C60 1.211 . S
C62 O54 1.284 . S
C62 O63 1.273 . S
O63 C62 1.273 . S
O64 Zn55 1.977 . S
O64 C57 1.267 . S
C65 O66 1.160 . S
C65 O72 1.185 . S
O66 C65 1.160 . S
O67 Zn68 1.899 . S
O67 C75 1.284 . S
Zn68 O67 1.899 . S
Zn68 O69 2.032 . S
Zn68 O72 2.086 . S
Zn68 O77 1.977 . S
O69 Zn68 2.032 . S
O69 C73 1.278 . S
C70 O71 1.203 . S
C70 O77 1.267 . S
O71 C70 1.203 . S
O72 C65 1.185 . S
O72 Zn68 2.086 . S
C73 O69 1.278 . S
C73 O74 1.211 . S
O74 C73 1.211 . S
C75 O67 1.284 . S
C75 O76 1.273 . S
O76 C75 1.273 . S
O77 Zn68 1.977 . S
O77 C70 1.267 . S
C78 O79 1.160 . S
C78 O85 1.185 . S
O79 C78 1.160 . S
O80 Zn81 1.899 . S
O80 C88 1.284 . S
Zn81 O80 1.899 . S
Zn81 O82 2.032 . S
Zn81 O85 2.086 . S
Zn81 O90 1.977 . S
O82 Zn81 2.032 . S
O82 C86 1.278 . S
C83 O84 1.203 . S
C83 O90 1.267 . S
O84 C83 1.203 . S
O85 C78 1.185 . S
O85 Zn81 2.086 . S
C86 O82 1.278 . S
C86 O87 1.211 . S
O87 C86 1.211 . S
C88 O80 1.284 . S
C88 O89 1.273 . S
O89 C88 1.273 . S
O90 Zn81 1.977 . S
O90 C83 1.267 . S
C91 O92 1.160 . S
C91 O98 1.185 . S
O92 C91 1.160 . S
O93 Zn94 1.899 . S
O93 C101 1.284 . S
Zn94 O93 1.899 . S
Zn94 O95 2.032 . S
Zn94 O98 2.086 . S
Zn94 O103 1.977 . S
O95 Zn94 2.032 . S
O95 C99 1.278 . S
C96 O97 1.203 . S
C96 O103 1.267 . S
O97 C96 1.203 . S
O98 C91 1.185 . S
O98 Zn94 2.086 . S
C99 O95 1.278 . S
C99 O100 1.211 . S
O100 C99 1.211 . S
C101 O93 1.284 . S
C101 O102 1.273 . S
O102 C101 1.273 . S
O103 Zn94 1.977 . S
O103 C96 1.267 . S
C104 O105 1.160 . S
C104 O111 1.185 . S
O105 C104 1.160 . S
O106 Zn107 1.899 . S
O106 C114 1.284 . S
Zn107 O106 1.899 . S
Zn107 O108 2.032 . S
Zn107 O111 2.086 . S
Zn107 O116 1.977 . S
O108 Zn107 2.032 . S
O108 C112 1.278 . S
C109 O110 1.203 . S
C109 O116 1.267 . S
O110 C109 1.203 . S
O111 C104 1.185 . S
O111 Zn107 2.086 . S
C112 O108 1.278 . S
C112 O113 1.211 . S
O113 C112 1.211 . S
C114 O106 1.284 . S
C114 O115 1.273 . S
O115 C114 1.273 . S
O116 Zn107 1.977 . S
O116 C109 1.267 . S
C117 O118 1.160 . S
C117 O124 1.185 . S
O118 C117 1.160 . S
O119 Zn120 1.899 . S
O119 C127 1.284 . S
Zn120 O119 1.899 . S
Zn120 O121 2.032 . S
Zn120 O124 2.086 . S
Zn120 O129 1.977 . S
O121 Zn120 2.032 . S
O121 C125 1.278 . S
C122 O123 1.203 . S
C122 O129 1.267 . S
O123 C122 1.203 . S
O124 C117 1.185 . S
O124 Zn120 2.086 . S
C125 O121 1.278 . S
C125 O126 1.211 . S
O126 C125 1.211 . S
C127 O119 1.284 . S
C127 O128 1.273 . S
O128 C127 1.273 . S
O129 Zn120 1.977 . S
O129 C122 1.267 . S
C130 O131 1.160 . S
C130 O137 1.185 . S
O131 C130 1.160 . S
O132 Zn133 1.899 . S
O132 C140 1.284 . S
Zn133 O132 1.899 . S
Zn133 O134 2.032 . S
Zn133 O137 2.086 . S
Zn133 O142 1.977 . S
O134 Zn133 2.032 . S
O134 C138 1.278 . S
C135 O136 1.203 . S
C135 O142 1.267 . S
O136 C135 1.203 . S
O137 C130 1.185 . S
O137 Zn133 2.086 . S
C138 O134 1.278 . S
C138 O139 1.211 . S
O139 C138 1.211 . S
C140 O132 1.284 . S
C140 O141 1.273 . S
O141 C140 1.273 . S
O142 Zn133 1.977 . S
O142 C135 1.267 . S
C143 O144 1.160 . S
C143 O150 1.185 . S
O144 C143 1.160 . S
O145 Zn146 1.899 . S
O145 C153 1.284 . S
Zn146 O145 1.899 . S
Zn146 O147 2.032 . S
Zn146 O150 2.086 . S
Zn146 O155 1.977 . S
O147 Zn146 2.032 . S
O147 C151 1.278 . S
C148 O149 1.203 . S
C148 O155 1.267 . S
O149 C148 1.203 . S
O150 C143 1.185 . S
O150 Zn146 2.086 . S
C151 O147 1.278 . S
C151 O152 1.211 . S
O152 C151 1.211 . S
C153 O145 1.284 . S
C153 O154 1.273 . S
O154 C153 1.273 . S
O155 Zn146 1.977 . S
O155 C148 1.267 . S
C156 O157 1.160 . S
C156 O163 1.185 . S
O157 C156 1.160 . S
O158 Zn159 1.899 . S
O158 C166 1.284 . S
Zn159 O158 1.899 . S
Zn159 O160 2.032 . S
Zn159 O163 2.086 . S
Zn159 O168 1.977 . S
O160 Zn159 2.032 . S
O160 C164 1.278 . S
C161 O162 1.203 . S
C161 O168 1.267 . S
O162 C161 1.203 . S
O163 C156 1.185 . S
O163 Zn159 2.086 . S
C164 O160 1.278 . S
C164 O165 1.211 . S
O165 C164 1.211 . S
C166 O158 1.284 . S
C166 O167 1.273 . S
O167 C166 1.273 . S
O168 Zn159 1.977 . S
O168 C161 1.267 . S
C169 O170 1.160 . S
C169 O176 1.185 . S
O170 C169 1.160 . S
O171 Zn172 1.899 . S
O171 C179 1.284 . S
Zn172 O171 1.899 . S
Zn172 O173 2.032 . S
Zn172 O176 2.086 . S
Zn172 O181 1.977 . S
O173 Zn172 2.032 . S
O173 C177 1.278 . S
C174 O175 1.203 . S
C174 O181 1.267 . S
O175 C174 1.203 . S
O176 C169 1.185 . S
O176 Zn172 2.086 . S
C177 O173 1.278 . S
C177 O178 1.211 . S
O178 C177 1.211 . S
C179 O171 1.284 . S
C179 O180 1.273 . S
O180 C179 1.273 . S
O181 Zn172 1.977 . S
O181 C174 1.267 . S
C182 O183 1.160 . S
C182 O189 1.185 . S
O183 C182 1.160 . S
O184 Zn185 1.899 . S
O184 C192 1.284 . S
Zn185 O184 1.899 . S
Zn185 O186 2.032 . S
Zn185 O189 2.086 . S
Zn185 O194 1.977 . S
O186 Zn185 2.032 . S
O186 C190 1.278 . S
C187 O188 1.203 . S
C187 O194 1.267 . S
O188 C187 1.203 . S
O189 C182 1.185 . S
O189 Zn185 2.086 . S
C190 O186 1.278 . S
C190 O191 1.211 . S
O191 C190 1.211 . S
C192 O184 1.284 . S
C192 O193 1.273 . S
O193 C192 1.273 . S
O194 Zn185 1.977 . S
O194 C187 1.267 . S
C195 O196 1.160 . S
C195 O202 1.185 . S
O196 C195 1.160 . S
O197 Zn198 1.899 . S
O197 C205 1.284 . S
Zn198 O197 1.899 . S
Zn198 O199 2.032 . S
Zn198 O202 2.086 . S
Zn198 O207 1.977 . S
O199 Zn198 2.032 . S
O199 C203 1.278 . S
C200 O201 1.203 . S
C200 O207 1.267 . S
O201 C200 1.203 . S
O202 C195 1.185 . S
O202 Zn198 2.086 . S
C203 O199 1.278 . S
C203 O204 1.211 . S
O204 C203 1.211 . S
C205 O197 1.284 . S
C205 O206 1.273 . S
O206 C205 1.273 . S
O207 Zn198 1.977 . S
O207 C200 1.267 . S
C208 O209 1.160 . S
C208 O215 1.185 . S
O209 C208 1.160 . S
O210 Zn211 1.899 . S
O210 C218 1.284 . S
Zn211 O210 1.899 . S
Zn211 O212 2.032 . S
Zn211 O215 2.086 . S
Zn211 O220 1.977 . S
O212 Zn211 2.032 . S
O212 C216 1.278 . S
C213 O214 1.203 . S
C213 O220 1.267 . S
O214 C213 1.203 . S
O215 C208 1.185 . S
O215 Zn211 2.086 . S
C216 O212 1.278 . S
C216 O217 1.211 . S
O217 C216 1.211 . S
C218 O210 1.284 . S
C218 O219 1.273 . S
O219 C218 1.273 . S
O220 Zn211 1.977 . S
O220 C213 1.267 . S
C221 O222 1.160 . S
C221 O228 1.185 . S
O222 C221 1.160 . S
O223 Zn224 1.899 . S
O223 C231 1.284 . S
Zn224 O223 1.899 . S
Zn224 O225 2.032 . S
Zn224 O228 2.086 . S
Zn224 O233 1.977 . S
O225 Zn224 2.032 . S
O225 C229 1.278 . S
C226 O227 1.203 . S
C226 O233 1.267 . S
O227 C226 1.203 . S
O228 C221 1.185 . S
O228 Zn224 2.086 . S
C229 O225 1.278 . S
C229 O230 1.211 . S
O230 C229 1.211 . S
C231 O223 1.284 . S
C231 O232 1.273 . S
O232 C231 1.273 . S
O233 Zn224 1.977 . S
O233 C226 1.267 . S
C234 O235 1.160 . S
C234 O241 1.185 . S
O235 C234 1.160 . S
O236 Zn237 1.899 . S
O236 C244 1.284 . S
Zn237 O236 1.899 . S
Zn237 O238 2.032 . S
Zn237 O241 2.086 . S
Zn237 O246 1.977 . S
O238 Zn237 2.032 . S
O238 C242 1.278 . S
C239 O240 1.203 . S
C239 O246 1.267 . S
O240 C239 1.203 . S
O241 C234 1.185 . S
O241 Zn237 2.086 . S
C242 O238 1.278 . S
C242 O243 1.211 . S
O243 C242 1.211 . S
C244 O236 1.284 . S
C244 O245 1.273 . S
O245 C244 1.273 . S
O246 Zn237 1.977 . S
O246 C239 1.267 . S
C247 O248 1.160 . S
C247 O254 1.185 . S
O248 C247 1.160 . S
O249 Zn250 1.899 . S
O249 C257 1.284 . S
Zn250 O249 1.899 . S
Zn250 O251 2.032 . S
Zn250 O254 2.086 . S
Zn250 O259 1.977 . S
O251 Zn250 2.032 . S
O251 C255 1.278 . S
C252 O253 1.203 . S
C252 O259 1.267 . S
O253 C252 1.203 . S
O254 C247 1.185 . S
O254 Zn250 2.086 . S
C255 O251 1.278 . S
C255 O256 1.211 . S
O256 C255 1.211 . S
C257 O249 1.284 . S
C257 O258 1.273 . S
O258 C257 1.273 . S
O259 Zn250 1.977 . S
O259 C252 1.267 . S
C260 O261 1.160 . S
C260 O267 1.185 . S
O261 C260 1.160 . S
O262 Zn263 1.899 . S
O262 C270 1.284 . S
Zn263 O262 1.899 . S
Zn263 O264 2.032 . S
Zn263 O267 2.086 . S
Zn263 O272 1.977 . S
O264 Zn263 2.032 . S
O264 C268 1.278 . S
C265 O266 1.203 . S
C265 O272 1.267 . S
O266 C265 1.203 . S
O267 C260 1.185 . S
O267 Zn263 2.086 . S
C268 O264 1.278 . S
C268 O269 1.211 . S
O269 C268 1.211 . S
C270 O262 1.284 . S
C270 O271 1.273 . S
O271 C270 1.273 . S
O272 Zn263 1.977 . S
O272 C265 1.267 . S
C273 O274 1.160 . S
C273 O280 1.185 . S
O274 C273 1.160 . S
O275 Zn276 1.899 . S
O275 C283 1.284 . S
Zn276 O275 1.899 . S
Zn276 O277 2.032 1_556 S
Zn276 O280 2.086 . S
Zn276 O285 1.977 . S
O277 Zn276 2.032 1_554 S
O277 C281 1.278 . S
C278 O279 1.203 . S
C278 O285 1.267 . S
O279 C278 1.203 . S
O280 C273 1.185 . S
O280 Zn276 2.086 . S
C281 O277 1.278 . S
C281 O282 1.211 1_554 S
O282 C281 1.211 1_556 S
C283 O275 1.284 . S
C283 O284 1.273 . S
O284 C283 1.273 . S
O285 Zn276 1.977 . S
O285 C278 1.267 . S
C286 O287 1.160 . S
C286 O293 1.185 . S
O287 C286 1.160 . S
O288 Zn289 1.899 . S
O288 C296 1.284 . S
Zn289 O288 1.899 . S
Zn289 O290 2.032 1_556 S
Zn289 O293 2.086 . S
Zn289 O298 1.977 . S
O290 Zn289 2.032 1_554 S
O290 C294 1.278 . S
C291 O292 1.203 . S
C291 O298 1.267 . S
O292 C291 1.203 . S
O293 C286 1.185 . S
O293 Zn289 2.086 . S
C294 O290 1.278 . S
C294 O295 1.211 1_554 S
O295 C294 1.211 1_556 S
C296 O288 1.284 . S
C296 O297 1.273 . S
O297 C296 1.273 . S
O298 Zn289 1.977 . S
O298 C291 1.267 . S
C299 O300 1.160 . S
C299 O306 1.185 . S
O300 C299 1.160 . S
O301 Zn302 1.899 . S
O301 C309 1.284 . S
Zn302 O301 1.899 . S
Zn302 O303 2.032 1_556 S
Zn302 O306 2.086 . S
Zn302 O311 1.977 . S
O303 Zn302 2.032 1_554 S
O303 C307 1.278 . S
C304 O305 1.203 . S
C304 O311 1.267 . S
O305 C304 1.203 . S
O306 C299 1.185 . S
O306 Zn302 2.086 . S
C307 O303 1.278 . S
C307 O308 1.211 1_554 S
O308 C307 1.211 1_556 S
C309 O301 1.284 . S
C309 O310 1.273 . S
O310 C309 1.273 . S
O311 Zn302 1.977 . S
O311 C304 1.267 . S
C312 O313 1.160 . S
C312 O319 1.185 . S
O313 C312 1.160 . S
O314 Zn315 1.899 . S
O314 C322 1.284 . S
Zn315 O314 1.899 . S
Zn315 O316 2.032 . S
Zn315 O319 2.086 . S
Zn315 O324 1.977 . S
O316 Zn315 2.032 . S
O316 C320 1.278 . S
C317 O318 1.203 . S
C317 O324 1.267 . S
O318 C317 1.203 . S
O319 C312 1.185 . S
O319 Zn315 2.086 . S
C320 O316 1.278 . S
C320 O321 1.211 . S
O321 C320 1.211 . S
C322 O314 1.284 . S
C322 O323 1.273 . S
O323 C322 1.273 . S
O324 Zn315 1.977 . S
O324 C317 1.267 . S
C325 O326 1.160 . S
C325 O332 1.185 . S
O326 C325 1.160 . S
O327 Zn328 1.899 . S
O327 C335 1.284 . S
Zn328 O327 1.899 . S
Zn328 O329 2.032 . S
Zn328 O332 2.086 . S
Zn328 O337 1.977 . S
O329 Zn328 2.032 . S
O329 C333 1.278 . S
C330 O331 1.203 . S
C330 O337 1.267 . S
O331 C330 1.203 . S
O332 C325 1.185 . S
O332 Zn328 2.086 . S
C333 O329 1.278 . S
C333 O334 1.211 . S
O334 C333 1.211 . S
C335 O327 1.284 . S
C335 O336 1.273 . S
O336 C335 1.273 . S
O337 Zn328 1.977 . S
O337 C330 1.267 . S
C338 O339 1.160 . S
C338 O345 1.185 . S
O339 C338 1.160 . S
O340 Zn341 1.899 . S
O340 C348 1.284 . S
Zn341 O340 1.899 . S
Zn341 O342 2.032 . S
Zn341 O345 2.086 . S
Zn341 O350 1.977 . S
O342 Zn341 2.032 . S
O342 C346 1.278 . S
C343 O344 1.203 . S
C343 O350 1.267 . S
O344 C343 1.203 . S
O345 C338 1.185 . S
O345 Zn341 2.086 . S
C346 O342 1.278 . S
C346 O347 1.211 . S
O347 C346 1.211 . S
C348 O340 1.284 . S
C348 O349 1.273 . S
O349 C348 1.273 . S
O350 Zn341 1.977 . S
O350 C343 1.267 . S
C351 O352 1.160 . S
C351 O358 1.185 . S
O352 C351 1.160 . S
O353 Zn354 1.899 . S
O353 C361 1.284 . S
Zn354 O353 1.899 . S
Zn354 O355 2.032 1_554 S
Zn354 O358 2.086 . S
Zn354 O363 1.977 . S
O355 Zn354 2.032 1_556 S
O355 C359 1.278 . S
C356 O357 1.203 . S
C356 O363 1.267 . S
O357 C356 1.203 . S
O358 C351 1.185 . S
O358 Zn354 2.086 . S
C359 O355 1.278 . S
C359 O360 1.211 1_556 S
O360 C359 1.211 1_554 S
C361 O353 1.284 . S
C361 O362 1.273 . S
O362 C361 1.273 . S
O363 Zn354 1.977 . S
O363 C356 1.267 . S
C364 O365 1.160 . S
C364 O371 1.185 . S
O365 C364 1.160 . S
O366 Zn367 1.899 . S
O366 C374 1.284 . S
Zn367 O366 1.899 . S
Zn367 O368 2.032 1_554 S
Zn367 O371 2.086 . S
Zn367 O376 1.977 . S
O368 Zn367 2.032 1_556 S
O368 C372 1.278 . S
C369 O370 1.203 . S
C369 O376 1.267 . S
O370 C369 1.203 . S
O371 C364 1.185 . S
O371 Zn367 2.086 . S
C372 O368 1.278 . S
C372 O373 1.211 1_556 S
O373 C372 1.211 1_554 S
C374 O366 1.284 . S
C374 O375 1.273 . S
O375 C374 1.273 . S
O376 Zn367 1.977 . S
O376 C369 1.267 . S
C377 O378 1.160 . S
C377 O384 1.185 . S
O378 C377 1.160 . S
O379 Zn380 1.899 . S
O379 C387 1.284 . S
Zn380 O379 1.899 . S
Zn380 O381 2.032 1_554 S
Zn380 O384 2.086 . S
Zn380 O389 1.977 . S
O381 Zn380 2.032 1_556 S
O381 C385 1.278 . S
C382 O383 1.203 . S
C382 O389 1.267 . S
O383 C382 1.203 . S
O384 C377 1.185 . S
O384 Zn380 2.086 . S
C385 O381 1.278 . S
C385 O386 1.211 1_556 S
O386 C385 1.211 1_554 S
C387 O379 1.284 . S
C387 O388 1.273 . S
O388 C387 1.273 . S
O389 Zn380 1.977 . S
O389 C382 1.267 . S
C390 O391 1.160 . S
C390 O397 1.185 . S
O391 C390 1.160 . S
O392 Zn393 1.899 . S
O392 C400 1.284 . S
Zn393 O392 1.899 . S
Zn393 O394 2.032 . S
Zn393 O397 2.086 . S
Zn393 O402 1.977 . S
O394 Zn393 2.032 . S
O394 C398 1.278 . S
C395 O396 1.203 . S
C395 O402 1.267 . S
O396 C395 1.203 . S
O397 C390 1.185 . S
O397 Zn393 2.086 . S
C398 O394 1.278 . S
C398 O399 1.211 . S
O399 C398 1.211 . S
C400 O392 1.284 . S
C400 O401 1.273 . S
O401 C400 1.273 . S
O402 Zn393 1.977 . S
O402 C395 1.267 . S
C403 O404 1.160 . S
C403 O410 1.185 . S
O404 C403 1.160 . S
O405 Zn406 1.899 . S
O405 C413 1.284 . S
Zn406 O405 1.899 . S
Zn406 O407 2.032 . S
Zn406 O410 2.086 . S
Zn406 O415 1.977 . S
O407 Zn406 2.032 . S
O407 C411 1.278 . S
C408 O409 1.203 . S
C408 O415 1.267 . S
O409 C408 1.203 . S
O410 C403 1.185 . S
O410 Zn406 2.086 . S
C411 O407 1.278 . S
C411 O412 1.211 . S
O412 C411 1.211 . S
C413 O405 1.284 . S
C413 O414 1.273 . S
O414 C413 1.273 . S
O415 Zn406 1.977 . S
O415 C408 1.267 . S
C416 O417 1.160 . S
C416 O423 1.185 . S
O417 C416 1.160 . S
O418 Zn419 1.899 . S
O418 C426 1.284 . S
Zn419 O418 1.899 . S
Zn419 O420 2.032 . S
Zn419 O423 2.086 . S
Zn419 O428 1.977 . S
O420 Zn419 2.032 . S
O420 C424 1.278 . S
C421 O422 1.203 . S
C421 O428 1.267 . S
O422 C421 1.203 . S
O423 C416 1.185 . S
O423 Zn419 2.086 . S
C424 O420 1.278 . S
C424 O425 1.211 . S
O425 C424 1.211 . S
C426 O418 1.284 . S
C426 O427 1.273 . S
O427 C426 1.273 . S
O428 Zn419 1.977 . S
O428 C421 1.267 . S
C429 O430 1.160 . S
C429 O436 1.185 . S
O430 C429 1.160 . S
O431 Zn432 1.899 . S
O431 C439 1.284 . S
Zn432 O431 1.899 . S
Zn432 O433 2.032 . S
Zn432 O436 2.086 . S
Zn432 O441 1.977 . S
O433 Zn432 2.032 . S
O433 C437 1.278 . S
C434 O435 1.203 . S
C434 O441 1.267 . S
O435 C434 1.203 . S
O436 C429 1.185 . S
O436 Zn432 2.086 . S
C437 O433 1.278 . S
C437 O438 1.211 . S
O438 C437 1.211 . S
C439 O431 1.284 . S
C439 O440 1.273 . S
O440 C439 1.273 . S
O441 Zn432 1.977 . S
O441 C434 1.267 . S
C442 O443 1.160 . S
C442 O449 1.185 . S
O443 C442 1.160 . S
O444 Zn445 1.899 . S
O444 C452 1.284 . S
Zn445 O444 1.899 . S
Zn445 O446 2.032 . S
Zn445 O449 2.086 . S
Zn445 O454 1.977 . S
O446 Zn445 2.032 . S
O446 C450 1.278 . S
C447 O448 1.203 . S
C447 O454 1.267 . S
O448 C447 1.203 . S
O449 C442 1.185 . S
O449 Zn445 2.086 . S
C450 O446 1.278 . S
C450 O451 1.211 . S
O451 C450 1.211 . S
C452 O444 1.284 . S
C452 O453 1.273 . S
O453 C452 1.273 . S
O454 Zn445 1.977 . S
O454 C447 1.267 . S
C455 O456 1.160 . S
C455 O462 1.185 . S
O456 C455 1.160 . S
O457 Zn458 1.899 . S
O457 C465 1.284 . S
Zn458 O457 1.899 . S
Zn458 O459 2.032 . S
Zn458 O462 2.086 . S
Zn458 O467 1.977 . S
O459 Zn458 2.032 . S
O459 C463 1.278 . S
C460 O461 1.203 . S
C460 O467 1.267 . S
O461 C460 1.203 . S
O462 C455 1.185 . S
O462 Zn458 2.086 . S
C463 O459 1.278 . S
C463 O464 1.211 . S
O464 C463 1.211 . S
C465 O457 1.284 . S
C465 O466 1.273 . S
O466 C465 1.273 . S
O467 Zn458 1.977 . S
O467 C460 1.267 . S
C468 C469 1.363 . S
C468 C474 1.379 1_554 S
C468 N476 1.356 . S
C469 C468 1.363 . S
C469 C475 1.363 . S
C470 C471 1.363 1_554 S
C470 C475 1.379 1_565 S
C470 N477 1.356 . S
C471 C470 1.363 1_556 S
C471 C474 1.363 1_565 S
N472 C474 1.356 . S
N472 H484 0.984 . S
N472 H485 0.985 1_545 S
N473 C475 1.356 . S
N473 H478 0.984 . S
N473 H479 0.985 . S
C474 C468 1.379 1_556 S
C474 C471 1.363 1_545 S
C474 N472 1.356 . S
C475 C469 1.363 . S
C475 C470 1.379 1_545 S
C475 N473 1.356 . S
N476 C468 1.356 . S
N476 H482 0.984 1_554 S
N476 H483 0.984 . S
N477 C470 1.356 . S
N477 H480 0.984 1_554 S
N477 H481 0.985 . S
H478 N473 0.984 . S
H479 N473 0.985 . S
H480 N477 0.984 1_556 S
H481 N477 0.985 . S
H482 N476 0.984 1_556 S
H483 N476 0.984 . S
H484 N472 0.984 . S
H485 N472 0.985 1_565 S
C486 C487 1.363 . S
C486 C492 1.379 1_655 S
C486 N494 1.356 . S
C487 C486 1.363 . S
C487 C493 1.363 . S
C488 C489 1.363 1_655 S
C488 C493 1.379 1_556 S
C488 N495 1.362 . S
C489 C488 1.363 1_455 S
C489 C492 1.363 1_556 S
N490 C492 1.356 . S
N490 H502 0.984 . S
N490 H503 0.985 1_554 S
N491 C493 1.356 . S
N491 H496 0.984 . S
N491 H497 0.985 . S
C492 C486 1.379 1_455 S
C492 C489 1.363 1_554 S
C492 N490 1.356 . S
C493 C487 1.363 . S
C493 C488 1.379 1_554 S
C493 N491 1.356 . S
N494 C486 1.356 . S
N494 H500 0.984 . S
N494 H501 0.984 . S
N495 C488 1.362 . S
N495 H498 0.979 1_655 S
N495 H499 0.984 . S
H496 N491 0.984 . S
H497 N491 0.985 . S
H498 N495 0.979 1_455 S
H499 N495 0.984 . S
H500 N494 0.984 . S
H501 N494 0.984 . S
H502 N490 0.984 . S
H503 N490 0.985 1_556 S
C504 C505 1.363 1_554 S
C504 C510 1.379 . S
C504 N512 1.356 . S
C505 C504 1.363 1_556 S
C505 C511 1.363 . S
C506 C507 1.363 . S
C506 C511 1.379 1_554 S
C506 N513 1.356 . S
C507 C506 1.363 . S
C507 C510 1.363 . S
N508 C510 1.356 . S
N508 H520 0.984 . S
N508 H521 0.985 . S
N509 C511 1.356 . S
N509 H514 0.984 . S
N509 H515 0.985 . S
C510 C504 1.379 . S
C510 C507 1.363 . S
C510 N508 1.356 . S
C511 C505 1.363 . S
C511 C506 1.379 1_556 S
C511 N509 1.356 . S
N512 C504 1.356 . S
N512 H518 0.984 . S
N512 H519 0.984 1_554 S
N513 C506 1.356 . S
N513 H516 0.984 . S
N513 H517 0.985 . S
H514 N509 0.984 . S
H515 N509 0.985 . S
H516 N513 0.984 . S
H517 N513 0.985 . S
H518 N512 0.984 . S
H519 N512 0.984 1_556 S
H520 N508 0.984 . S
H521 N508 0.985 . S
C522 C523 1.363 1_455 S
C522 C528 1.379 . S
C522 N530 1.356 1_455 S
C523 C522 1.363 1_655 S
C523 C529 1.363 . S
C524 C525 1.363 . S
C524 C529 1.379 1_455 S
C524 N531 1.356 . S
C525 C524 1.363 . S
C525 C528 1.363 . S
N526 C528 1.356 . S
N526 H538 0.984 . S
N526 H539 0.985 . S
N527 C529 1.356 . S
N527 H532 0.984 . S
N527 H533 0.985 . S
C528 C522 1.379 . S
C528 C525 1.363 . S
C528 N526 1.356 . S
C529 C523 1.363 . S
C529 C524 1.379 1_655 S
C529 N527 1.356 . S
N530 C522 1.356 1_655 S
N530 H536 0.984 . S
N530 H537 0.984 . S
N531 C524 1.356 . S
N531 H534 0.984 . S
N531 H535 0.985 . S
H532 N527 0.984 . S
H533 N527 0.985 . S
H534 N531 0.984 . S
H535 N531 0.985 . S
H536 N530 0.984 . S
H537 N530 0.984 . S
H538 N526 0.984 . S
H539 N526 0.985 . S
C540 C541 1.363 . S
C540 C546 1.379 . S
C540 N548 1.356 . S
C541 C540 1.363 . S
C541 C547 1.363 . S
C542 C543 1.363 . S
C542 C547 1.379 . S
C542 N549 1.356 . S
C543 C542 1.363 . S
C543 C546 1.363 . S
N544 C546 1.356 . S
N544 H556 0.984 . S
N544 H557 0.985 . S
N545 C547 1.356 . S
N545 H550 0.984 . S
N545 H551 0.985 . S
C546 C540 1.379 . S
C546 C543 1.363 . S
C546 N544 1.356 . S
C547 C541 1.363 . S
C547 C542 1.379 . S
C547 N545 1.356 . S
N548 C540 1.356 . S
N548 H554 0.984 . S
N548 H555 0.984 . S
N549 C542 1.356 . S
N549 H552 0.984 . S
N549 H553 0.985 . S
H550 N545 0.984 . S
H551 N545 0.985 . S
H552 N549 0.984 . S
H553 N549 0.985 . S
H554 N548 0.984 . S
H555 N548 0.984 . S
H556 N544 0.984 . S
H557 N544 0.985 . S
C558 C559 1.363 . S
C558 C564 1.379 . S
C558 N566 1.356 . S
C559 C558 1.363 . S
C559 C565 1.363 . S
C560 C561 1.363 . S
C560 C565 1.379 1_545 S
C560 N567 1.356 . S
C561 C560 1.363 . S
C561 C564 1.363 1_545 S
N562 C564 1.356 1_545 S
N562 H574 0.999 . S
N562 H575 0.985 . S
N563 C565 1.356 . S
N563 H568 0.984 . S
N563 H569 0.985 . S
C564 C558 1.379 . S
C564 C561 1.363 1_565 S
C564 N562 1.356 1_565 S
C565 C559 1.363 . S
C565 C560 1.379 1_565 S
C565 N563 1.356 . S
N566 C558 1.356 . S
N566 H572 0.984 . S
N566 H573 0.984 . S
N567 C560 1.356 . S
N567 H570 0.984 . S
N567 H571 0.985 . S
H568 N563 0.984 . S
H569 N563 0.985 . S
H570 N567 0.984 . S
H571 N567 0.985 . S
H572 N566 0.984 . S
H573 N566 0.984 . S
H574 N562 0.999 . S
H575 N562 0.985 . S
C576 C577 1.363 1_556 S
C576 C582 1.379 1_545 S
C576 N584 1.356 . S
C577 C576 1.363 1_554 S
C577 C583 1.363 1_545 S
C578 C579 1.363 . S
C578 C583 1.379 1_556 S
C578 N585 1.356 . S
C579 C578 1.363 . S
C579 C582 1.363 . S
N580 C582 1.356 . S
N580 H592 0.984 1_565 S
N580 H593 0.985 . S
N581 C583 1.356 . S
N581 H586 0.984 1_565 S
N581 H587 0.985 . S
C582 C576 1.379 1_565 S
C582 C579 1.363 . S
C582 N580 1.356 . S
C583 C577 1.363 1_565 S
C583 C578 1.379 1_554 S
C583 N581 1.356 . S
N584 C576 1.356 . S
N584 H590 0.984 . S
N584 H591 0.984 1_556 S
N585 C578 1.356 . S
N585 H588 0.984 . S
N585 H589 0.985 1_556 S
H586 N581 0.984 1_545 S
H587 N581 0.985 . S
H588 N585 0.984 . S
H589 N585 0.985 1_554 S
H590 N584 0.984 . S
H591 N584 0.984 1_554 S
H592 N580 0.984 1_545 S
H593 N580 0.985 . S
C594 C595 1.363 1_455 S
C594 C600 1.379 1_554 S
C594 N602 1.351 1_455 S
C595 C594 1.363 1_655 S
C595 C601 1.363 1_554 S
C596 C597 1.363 . S
C596 C601 1.379 1_455 S
C596 N603 1.356 . S
C597 C596 1.363 . S
C597 C600 1.363 . S
N598 C600 1.356 . S
N598 H610 0.984 . S
N598 H611 0.985 . S
N599 C601 1.356 . S
N599 H604 0.984 1_556 S
N599 H605 0.985 . S
C600 C594 1.379 1_556 S
C600 C597 1.363 . S
C600 N598 1.356 . S
C601 C595 1.363 1_556 S
C601 C596 1.379 1_655 S
C601 N599 1.356 . S
N602 C594 1.351 1_655 S
N602 H608 0.985 1_655 S
N602 H609 0.990 . S
N603 C596 1.356 . S
N603 H606 0.984 . S
N603 H607 0.985 . S
H604 N599 0.984 1_554 S
H605 N599 0.985 . S
H606 N603 0.984 . S
H607 N603 0.985 . S
H608 N602 0.985 1_455 S
H609 N602 0.990 . S
H610 N598 0.984 . S
H611 N598 0.985 . S
C612 C613 1.363 . S
C612 C618 1.379 . S
C612 N620 1.356 . S
C613 C612 1.363 . S
C613 C619 1.363 . S
C614 C615 1.363 . S
C614 C619 1.380 1_554 S
C614 N621 1.356 . S
C615 C614 1.363 . S
C615 C618 1.363 1_554 S
N616 C618 1.356 1_554 S
N616 H628 0.984 . S
N616 H629 0.985 . S
N617 C619 1.356 . S
N617 H622 0.984 . S
N617 H623 0.985 . S
C618 C612 1.379 . S
C618 C615 1.363 1_556 S
C618 N616 1.356 1_556 S
C619 C613 1.363 . S
C619 C614 1.380 1_556 S
C619 N617 1.356 . S
N620 C612 1.356 . S
N620 H626 0.984 . S
N620 H627 0.984 . S
N621 C614 1.356 . S
N621 H624 0.984 . S
N621 H625 0.985 . S
H622 N617 0.984 . S
H623 N617 0.985 . S
H624 N621 0.984 . S
H625 N621 0.985 . S
H626 N620 0.984 . S
H627 N620 0.984 . S
H628 N616 0.984 . S
H629 N616 0.985 . S
C630 C631 1.363 . S
C630 C636 1.379 . S
C630 N638 1.356 . S
C631 C630 1.363 . S
C631 C637 1.363 . S
C632 C633 1.363 . S
C632 C637 1.379 1_455 S
C632 N639 1.356 . S
C633 C632 1.363 . S
C633 C636 1.363 1_455 S
N634 C636 1.356 1_455 S
N634 H646 0.984 . S
N634 H647 0.985 . S
N635 C637 1.356 . S
N635 H640 0.984 . S
N635 H641 0.985 . S
C636 C630 1.379 . S
C636 C633 1.363 1_655 S
C636 N634 1.356 1_655 S
C637 C631 1.363 . S
C637 C632 1.379 1_655 S
C637 N635 1.356 . S
N638 C630 1.356 . S
N638 H644 0.984 . S
N638 H645 0.984 . S
N639 C632 1.356 . S
N639 H642 0.984 . S
N639 H643 0.985 . S
H640 N635 0.984 . S
H641 N635 0.985 . S
H642 N639 0.984 . S
H643 N639 0.985 . S
H644 N638 0.984 . S
H645 N638 0.984 . S
H646 N634 0.984 . S
H647 N634 0.985 . S
C648 C649 1.363 . S
C648 C654 1.379 . S
C648 N656 1.356 . S
C649 C648 1.363 . S
C649 C655 1.363 . S
C650 C651 1.363 . S
C650 C655 1.379 . S
C650 N657 1.356 . S
C651 C650 1.363 . S
C651 C654 1.363 . S
N652 C654 1.356 . S
N652 H664 0.984 . S
N652 H665 0.985 . S
N653 C655 1.356 . S
N653 H658 0.984 . S
N653 H659 0.985 . S
C654 C648 1.379 . S
C654 C651 1.363 . S
C654 N652 1.356 . S
C655 C649 1.363 . S
C655 C650 1.379 . S
C655 N653 1.356 . S
N656 C648 1.356 . S
N656 H662 0.984 . S
N656 H663 0.984 . S
N657 C650 1.356 . S
N657 H660 0.984 . S
N657 H661 0.985 . S
H658 N653 0.984 . S
H659 N653 0.985 . S
H660 N657 0.984 . S
H661 N657 0.985 . S
H662 N656 0.984 . S
H663 N656 0.984 . S
H664 N652 0.984 . S
H665 N652 0.985 . S
C666 C667 1.363 . S
C666 C672 1.379 . S
C666 N674 1.356 . S
C667 C666 1.363 . S
C667 C673 1.378 . S
C668 C669 1.363 . S
C668 C673 1.371 1_565 S
C668 N675 1.356 . S
C669 C668 1.363 . S
C669 C672 1.363 1_565 S
N670 C672 1.356 . S
N670 H682 0.984 . S
N670 H683 0.985 . S
N671 C673 1.353 1_565 S
N671 H676 0.984 1_565 S
N671 H677 0.985 . S
C672 C666 1.379 . S
C672 C669 1.363 1_545 S
C672 N670 1.356 . S
C673 C667 1.378 . S
C673 C668 1.371 1_545 S
C673 N671 1.353 1_545 S
N674 C666 1.356 . S
N674 H680 0.984 . S
N674 H681 0.984 . S
N675 C668 1.356 . S
N675 H678 0.984 . S
N675 H679 0.985 . S
H676 N671 0.984 1_545 S
H677 N671 0.985 . S
H678 N675 0.984 . S
H679 N675 0.985 . S
H680 N674 0.984 . S
H681 N674 0.984 . S
H682 N670 0.984 . S
H683 N670 0.985 . S
C684 C685 1.363 . S
C684 C690 1.379 . S
C684 N692 1.356 . S
C685 C684 1.363 . S
C685 C691 1.363 . S
C686 C687 1.363 . S
C686 C691 1.379 . S
C686 N693 1.356 . S
C687 C686 1.363 . S
C687 C690 1.363 . S
N688 C690 1.356 . S
N688 H700 0.984 . S
N688 H701 0.985 . S
N689 C691 1.356 . S
N689 H694 0.984 . S
N689 H695 0.985 . S
C690 C684 1.379 . S
C690 C687 1.363 . S
C690 N688 1.356 . S
C691 C685 1.363 . S
C691 C686 1.379 . S
C691 N689 1.356 . S
N692 C684 1.356 . S
N692 H698 0.984 . S
N692 H699 0.984 . S
N693 C686 1.356 . S
N693 H696 0.984 . S
N693 H697 0.985 . S
H694 N689 0.984 . S
H695 N689 0.985 . S
H696 N693 0.984 . S
H697 N693 0.985 . S
H698 N692 0.984 . S
H699 N692 0.984 . S
H700 N688 0.984 . S
H701 N688 0.985 . S
C702 C703 1.363 . S
C702 C708 1.379 . S
C702 N710 1.356 . S
C703 C702 1.363 . S
C703 C709 1.363 . S
C704 C705 1.363 . S
C704 C709 1.379 . S
C704 N711 1.356 . S
C705 C704 1.363 . S
C705 C708 1.363 . S
N706 C708 1.356 . S
N706 H718 0.984 . S
N706 H719 0.985 . S
N707 C709 1.356 . S
N707 H712 0.984 . S
N707 H713 0.985 . S
C708 C702 1.379 . S
C708 C705 1.363 . S
C708 N706 1.356 . S
C709 C703 1.363 . S
C709 C704 1.379 . S
C709 N707 1.356 . S
N710 C702 1.356 . S
N710 H716 0.984 . S
N710 H717 0.984 . S
N711 C704 1.356 . S
N711 H714 0.984 . S
N711 H715 0.985 . S
H712 N707 0.984 . S
H713 N707 0.985 . S
H714 N711 0.984 . S
H715 N711 0.985 . S
H716 N710 0.984 . S
H717 N710 0.984 . S
H718 N706 0.984 . S
H719 N706 0.985 . S
C720 C721 1.363 . S
C720 C726 1.379 . S
C720 N728 1.356 . S
C721 C720 1.363 . S
C721 C727 1.363 . S
C722 C723 1.363 . S
C722 C727 1.379 . S
C722 N729 1.356 . S
C723 C722 1.363 . S
C723 C726 1.363 . S
N724 C726 1.356 . S
N724 H736 0.984 . S
N724 H737 0.985 . S
N725 C727 1.356 . S
N725 H730 0.984 . S
N725 H731 0.985 . S
C726 C720 1.379 . S
C726 C723 1.363 . S
C726 N724 1.356 . S
C727 C721 1.363 . S
C727 C722 1.379 . S
C727 N725 1.356 . S
N728 C720 1.356 . S
N728 H734 0.984 . S
N728 H735 0.984 . S
N729 C722 1.356 . S
N729 H732 0.984 . S
N729 H733 0.985 . S
H730 N725 0.984 . S
H731 N725 0.985 . S
H732 N729 0.984 . S
H733 N729 0.985 . S
H734 N728 0.984 . S
H735 N728 0.984 . S
H736 N724 0.984 . S
H737 N724 0.985 . S
C738 C739 1.363 . S
C738 C744 1.379 . S
C738 N746 1.356 . S
C739 C738 1.363 . S
C739 C745 1.363 . S
C740 C741 1.363 . S
C740 C745 1.379 . S
C740 N747 1.356 . S
C741 C740 1.363 . S
C741 C744 1.363 . S
N742 C744 1.356 . S
N742 H754 0.984 . S
N742 H755 0.985 . S
N743 C745 1.356 . S
N743 H748 0.984 . S
N743 H749 0.985 . S
C744 C738 1.379 . S
C744 C741 1.363 . S
C744 N742 1.356 . S
C745 C739 1.363 . S
C745 C740 1.379 . S
C745 N743 1.356 . S
N746 C738 1.356 . S
N746 H752 0.984 . S
N746 H753 0.984 . S
N747 C740 1.356 . S
N747 H750 0.984 . S
N747 H751 0.985 . S
H748 N743 0.984 . S
H749 N743 0.985 . S
H750 N747 0.984 . S
H751 N747 0.985 . S
H752 N746 0.984 . S
H753 N746 0.984 . S
H754 N742 0.984 . S
H755 N742 0.985 . S
C756 C757 1.363 . S
C756 C762 1.379 . S
C756 N764 1.356 . S
C757 C756 1.363 . S
C757 C763 1.363 . S
C758 C759 1.363 . S
C758 C763 1.379 . S
C758 N765 1.356 . S
C759 C758 1.363 . S
C759 C762 1.363 . S
N760 C762 1.356 . S
N760 H772 0.984 . S
N760 H773 0.985 . S
N761 C763 1.356 . S
N761 H766 0.984 . S
N761 H767 0.985 . S
C762 C756 1.379 . S
C762 C759 1.363 . S
C762 N760 1.356 . S
C763 C757 1.363 . S
C763 C758 1.379 . S
C763 N761 1.356 . S
N764 C756 1.356 . S
N764 H770 0.984 . S
N764 H771 0.984 . S
N765 C758 1.356 . S
N765 H768 0.984 . S
N765 H769 0.985 . S
H766 N761 0.984 . S
H767 N761 0.985 . S
H768 N765 0.984 . S
H769 N765 0.985 . S
H770 N764 0.984 . S
H771 N764 0.984 . S
H772 N760 0.984 . S
H773 N760 0.985 . S
C774 C775 1.363 . S
C774 C780 1.379 . S
C774 N782 1.356 . S
C775 C774 1.363 . S
C775 C781 1.363 . S
C776 C777 1.363 . S
C776 C781 1.379 . S
C776 N783 1.356 . S
C777 C776 1.363 . S
C777 C780 1.363 . S
N778 C780 1.356 . S
N778 H790 0.984 . S
N778 H791 0.985 . S
N779 C781 1.356 . S
N779 H784 0.984 . S
N779 H785 0.985 . S
C780 C774 1.379 . S
C780 C777 1.363 . S
C780 N778 1.356 . S
C781 C775 1.363 . S
C781 C776 1.379 . S
C781 N779 1.356 . S
N782 C774 1.356 . S
N782 H788 0.984 . S
N782 H789 0.984 . S
N783 C776 1.356 . S
N783 H786 0.984 . S
N783 H787 0.985 . S
H784 N779 0.984 . S
H785 N779 0.985 . S
H786 N783 0.984 . S
H787 N783 0.985 . S
H788 N782 0.984 . S
H789 N782 0.984 . S
H790 N778 0.984 . S
H791 N778 0.985 . S
C792 C793 1.363 . S
C792 C798 1.379 . S
C792 N800 1.356 . S
C793 C792 1.363 . S
C793 C799 1.363 . S
C794 C795 1.363 . S
C794 C799 1.379 . S
C794 N801 1.356 . S
C795 C794 1.363 . S
C795 C798 1.363 . S
N796 C798 1.356 . S
N796 H808 0.984 . S
N796 H809 0.985 . S
N797 C799 1.356 . S
N797 H802 0.984 . S
N797 H803 0.985 . S
C798 C792 1.379 . S
C798 C795 1.363 . S
C798 N796 1.356 . S
C799 C793 1.363 . S
C799 C794 1.379 . S
C799 N797 1.356 . S
N800 C792 1.356 . S
N800 H806 0.984 . S
N800 H807 0.984 . S
N801 C794 1.356 . S
N801 H804 0.984 . S
N801 H805 0.985 . S
H802 N797 0.984 . S
H803 N797 0.985 . S
H804 N801 0.984 . S
H805 N801 0.985 . S
H806 N800 0.984 . S
H807 N800 0.984 . S
H808 N796 0.984 . S
H809 N796 0.985 . S
C810 C811 1.363 . S
C810 C816 1.379 . S
C810 N818 1.356 . S
C811 C810 1.363 . S
C811 C817 1.363 . S
C812 C813 1.363 . S
C812 C817 1.379 . S
C812 N819 1.356 . S
C813 C812 1.363 . S
C813 C816 1.363 . S
N814 C816 1.356 . S
N814 H826 0.984 . S
N814 H827 0.985 . S
N815 C817 1.356 . S
N815 H820 0.984 . S
N815 H821 0.985 . S
C816 C810 1.379 . S
C816 C813 1.363 . S
C816 N814 1.356 . S
C817 C811 1.363 . S
C817 C812 1.379 . S
C817 N815 1.356 . S
N818 C810 1.356 . S
N818 H824 0.984 . S
N818 H825 0.984 . S
N819 C812 1.356 . S
N819 H822 0.984 . S
N819 H823 0.985 . S
H820 N815 0.984 . S
H821 N815 0.985 . S
H822 N819 0.984 . S
H823 N819 0.985 . S
H824 N818 0.984 . S
H825 N818 0.984 . S
H826 N814 0.984 . S
H827 N814 0.985 . S
C828 C829 1.363 . S
C828 C834 1.379 . S
C828 N836 1.356 . S
C829 C828 1.363 . S
C829 C835 1.363 . S
C830 C831 1.363 . S
C830 C835 1.379 . S
C830 N837 1.356 . S
C831 C830 1.363 . S
C831 C834 1.363 . S
N832 C834 1.356 . S
N832 H844 0.984 . S
N832 H845 0.985 . S
N833 C835 1.356 . S
N833 H838 0.984 . S
N833 H839 0.985 . S
C834 C828 1.379 . S
C834 C831 1.363 . S
C834 N832 1.356 . S
C835 C829 1.363 . S
C835 C830 1.379 . S
C835 N833 1.356 . S
N836 C828 1.356 . S
N836 H842 0.984 . S
N836 H843 0.984 . S
N837 C830 1.356 . S
N837 H840 0.984 . S
N837 H841 0.985 . S
H838 N833 0.984 . S
H839 N833 0.985 . S
H840 N837 0.984 . S
H841 N837 0.985 . S
H842 N836 0.984 . S
H843 N836 0.984 . S
H844 N832 0.984 . S
H845 N832 0.985 . S
C846 C847 1.363 . S
C846 C852 1.379 . S
C846 N854 1.356 . S
C847 C846 1.363 . S
C847 C853 1.363 . S
C848 C849 1.363 . S
C848 C853 1.379 . S
C848 N855 1.356 . S
C849 C848 1.363 . S
C849 C852 1.363 . S
N850 C852 1.356 . S
N850 H862 0.984 . S
N850 H863 0.985 . S
N851 C853 1.356 . S
N851 H856 0.984 . S
N851 H857 0.985 . S
C852 C846 1.379 . S
C852 C849 1.363 . S
C852 N850 1.356 . S
C853 C847 1.363 . S
C853 C848 1.379 . S
C853 N851 1.356 . S
N854 C846 1.356 . S
N854 H860 0.984 . S
N854 H861 0.984 . S
N855 C848 1.356 . S
N855 H858 0.984 . S
N855 H859 0.985 . S
H856 N851 0.984 . S
H857 N851 0.985 . S
H858 N855 0.984 . S
H859 N855 0.985 . S
H860 N854 0.984 . S
H861 N854 0.984 . S
H862 N850 0.984 . S
H863 N850 0.985 . S
C864 C865 1.363 . S
C864 C870 1.379 . S
C864 N872 1.356 . S
C865 C864 1.363 . S
C865 C871 1.363 . S
C866 C867 1.363 . S
C866 C871 1.379 . S
C866 N873 1.356 . S
C867 C866 1.363 . S
C867 C870 1.363 . S
N868 C870 1.356 . S
N868 H880 0.984 . S
N868 H881 0.985 . S
N869 C871 1.356 . S
N869 H874 0.984 . S
N869 H875 0.985 . S
C870 C864 1.379 . S
C870 C867 1.363 . S
C870 N868 1.356 . S
C871 C865 1.363 . S
C871 C866 1.379 . S
C871 N869 1.356 . S
N872 C864 1.356 . S
N872 H878 0.984 . S
N872 H879 0.984 . S
N873 C866 1.356 . S
N873 H876 0.984 . S
N873 H877 0.985 . S
H874 N869 0.984 . S
H875 N869 0.985 . S
H876 N873 0.984 . S
H877 N873 0.985 . S
H878 N872 0.984 . S
H879 N872 0.984 . S
H880 N868 0.984 . S
H881 N868 0.985 . S
C882 C883 1.363 . S
C882 C888 1.379 . S
C882 N890 1.356 . S
C883 C882 1.363 . S
C883 C889 1.363 . S
C884 C885 1.363 . S
C884 C889 1.379 . S
C884 N891 1.356 . S
C885 C884 1.363 . S
C885 C888 1.363 . S
N886 C888 1.356 . S
N886 H898 0.984 . S
N886 H899 0.985 . S
N887 C889 1.356 . S
N887 H892 0.984 . S
N887 H893 0.985 . S
C888 C882 1.379 . S
C888 C885 1.363 . S
C888 N886 1.356 . S
C889 C883 1.363 . S
C889 C884 1.379 . S
C889 N887 1.356 . S
N890 C882 1.356 . S
N890 H896 0.984 . S
N890 H897 0.984 . S
N891 C884 1.356 . S
N891 H894 0.984 . S
N891 H895 0.985 . S
H892 N887 0.984 . S
H893 N887 0.985 . S
H894 N891 0.984 . S
H895 N891 0.985 . S
H896 N890 0.984 . S
H897 N890 0.984 . S
H898 N886 0.984 . S
H899 N886 0.985 . S
C900 C901 1.363 . S
C900 C906 1.379 . S
C900 N908 1.356 . S
C901 C900 1.363 . S
C901 C907 1.363 . S
C902 C903 1.363 . S
C902 C907 1.379 . S
C902 N909 1.356 . S
C903 C902 1.363 . S
C903 C906 1.363 . S
N904 C906 1.356 . S
N904 H916 0.984 . S
N904 H917 0.985 . S
N905 C907 1.356 . S
N905 H910 0.984 . S
N905 H911 0.985 . S
C906 C900 1.379 . S
C906 C903 1.363 . S
C906 N904 1.356 . S
C907 C901 1.363 . S
C907 C902 1.379 . S
C907 N905 1.356 . S
N908 C900 1.356 . S
N908 H914 0.984 . S
N908 H915 0.984 . S
N909 C902 1.356 . S
N909 H912 0.984 . S
N909 H913 0.985 . S
H910 N905 0.984 . S
H911 N905 0.985 . S
H912 N909 0.984 . S
H913 N909 0.985 . S
H914 N908 0.984 . S
H915 N908 0.984 . S
H916 N904 0.984 . S
H917 N904 0.985 . S
C918 C919 1.363 . S
C918 C924 1.379 . S
C918 N926 1.356 . S
C919 C918 1.363 . S
C919 C925 1.363 . S
C920 C921 1.363 . S
C920 C925 1.379 . S
C920 N927 1.356 . S
C921 C920 1.363 . S
C921 C924 1.363 . S
N922 C924 1.356 . S
N922 H934 0.984 . S
N922 H935 0.985 . S
N923 C925 1.356 . S
N923 H928 0.984 . S
N923 H929 0.985 . S
C924 C918 1.379 . S
C924 C921 1.363 . S
C924 N922 1.356 . S
C925 C919 1.363 . S
C925 C920 1.379 . S
C925 N923 1.356 . S
N926 C918 1.356 . S
N926 H932 0.984 . S
N926 H933 0.984 . S
N927 C920 1.356 . S
N927 H930 0.984 . S
N927 H931 0.985 . S
H928 N923 0.984 . S
H929 N923 0.985 . S
H930 N927 0.984 . S
H931 N927 0.985 . S
H932 N926 0.984 . S
H933 N926 0.984 . S
H934 N922 0.984 . S
H935 N922 0.985 . S
C936 C937 1.363 . S
C936 C942 1.379 . S
C936 N944 1.356 . S
C937 C936 1.363 . S
C937 C943 1.363 . S
C938 C939 1.363 . S
C938 C943 1.379 . S
C938 N945 1.356 . S
C939 C938 1.363 . S
C939 C942 1.363 . S
N940 C942 1.356 . S
N940 H952 0.984 . S
N940 H953 0.985 . S
N941 C943 1.356 . S
N941 H946 0.984 . S
N941 H947 0.985 . S
C942 C936 1.379 . S
C942 C939 1.363 . S
C942 N940 1.356 . S
C943 C937 1.363 . S
C943 C938 1.379 . S
C943 N941 1.356 . S
N944 C936 1.356 . S
N944 H950 0.984 . S
N944 H951 0.984 . S
N945 C938 1.356 . S
N945 H948 0.984 . S
N945 H949 0.985 . S
H946 N941 0.984 . S
H947 N941 0.985 . S
H948 N945 0.984 . S
H949 N945 0.985 . S
H950 N944 0.984 . S
H951 N944 0.984 . S
H952 N940 0.984 . S
H953 N940 0.985 . S
C954 C955 1.363 . S
C954 C960 1.379 . S
C954 N962 1.356 . S
C955 C954 1.363 . S
C955 C961 1.363 . S
C956 C957 1.363 . S
C956 C961 1.379 . S
C956 N963 1.356 . S
C957 C956 1.363 . S
C957 C960 1.363 . S
N958 C960 1.356 . S
N958 H970 0.984 . S
N958 H971 0.985 . S
N959 C961 1.356 . S
N959 H964 0.984 . S
N959 H965 0.985 . S
C960 C954 1.379 . S
C960 C957 1.363 . S
C960 N958 1.356 . S
C961 C955 1.363 . S
C961 C956 1.379 . S
C961 N959 1.356 . S
N962 C954 1.356 . S
N962 H968 0.984 . S
N962 H969 0.984 . S
N963 C956 1.356 . S
N963 H966 0.984 . S
N963 H967 0.985 . S
H964 N959 0.984 . S
H965 N959 0.985 . S
H966 N963 0.984 . S
H967 N963 0.985 . S
H968 N962 0.984 . S
H969 N962 0.984 . S
H970 N958 0.984 . S
H971 N958 0.985 . S
C972 C973 1.363 . S
C972 C978 1.379 . S
C972 N980 1.356 . S
C973 C972 1.363 . S
C973 C979 1.363 . S
C974 C975 1.363 . S
C974 C979 1.379 . S
C974 N981 1.356 . S
C975 C974 1.363 . S
C975 C978 1.363 . S
N976 C978 1.356 . S
N976 H988 0.984 . S
N976 H989 0.985 . S
N977 C979 1.356 . S
N977 H982 0.984 . S
N977 H983 0.985 . S
C978 C972 1.379 . S
C978 C975 1.363 . S
C978 N976 1.356 . S
C979 C973 1.363 . S
C979 C974 1.379 . S
C979 N977 1.356 . S
N980 C972 1.356 . S
N980 H986 0.984 . S
N980 H987 0.984 . S
N981 C974 1.356 . S
N981 H984 0.984 . S
N981 H985 0.985 . S
H982 N977 0.984 . S
H983 N977 0.985 . S
H984 N981 0.984 . S
H985 N981 0.985 . S
H986 N980 0.984 . S
H987 N980 0.984 . S
H988 N976 0.984 . S
H989 N976 0.985 . S
C990 C991 1.363 . S
C990 C996 1.379 . S
C990 N998 1.356 . S
C991 C990 1.363 . S
C991 C997 1.363 . S
C992 C993 1.363 . S
C992 C997 1.379 . S
C992 N999 1.356 . S
C993 C992 1.363 . S
C993 C996 1.363 . S
N994 C996 1.356 . S
N994 H1006 0.984 . S
N994 H1007 0.985 . S
N995 C997 1.356 . S
N995 H1000 0.984 . S
N995 H1001 0.985 . S
C996 C990 1.379 . S
C996 C993 1.363 . S
C996 N994 1.356 . S
C997 C991 1.363 . S
C997 C992 1.379 . S
C997 N995 1.356 . S
N998 C990 1.356 . S
N998 H1004 0.984 . S
N998 H1005 0.984 . S
N999 C992 1.356 . S
N999 H1002 0.984 . S
N999 H1003 0.985 . S
H1000 N995 0.984 . S
H1001 N995 0.985 . S
H1002 N999 0.984 . S
H1003 N999 0.985 . S
H1004 N998 0.984 . S
H1005 N998 0.984 . S
H1006 N994 0.984 . S
H1007 N994 0.985 . S
C1008 C1009 1.363 . S
C1008 C1014 1.379 . S
C1008 N1016 1.356 . S
C1009 C1008 1.363 . S
C1009 C1015 1.363 . S
C1010 C1011 1.363 . S
C1010 C1015 1.379 . S
C1010 N1017 1.356 . S
C1011 C1010 1.363 . S
C1011 C1014 1.363 . S
N1012 C1014 1.356 . S
N1012 H1024 0.984 . S
N1012 H1025 0.985 . S
N1013 C1015 1.356 . S
N1013 H1018 0.984 . S
N1013 H1019 0.985 . S
C1014 C1008 1.379 . S
C1014 C1011 1.363 . S
C1014 N1012 1.356 . S
C1015 C1009 1.363 . S
C1015 C1010 1.379 . S
C1015 N1013 1.356 . S
N1016 C1008 1.356 . S
N1016 H1022 0.984 . S
N1016 H1023 0.984 . S
N1017 C1010 1.356 . S
N1017 H1020 0.984 . S
N1017 H1021 0.985 . S
H1018 N1013 0.984 . S
H1019 N1013 0.985 . S
H1020 N1017 0.984 . S
H1021 N1017 0.985 . S
H1022 N1016 0.984 . S
H1023 N1016 0.984 . S
H1024 N1012 0.984 . S
H1025 N1012 0.985 . S
C1026 C1027 1.363 . S
C1026 C1032 1.379 . S
C1026 N1034 1.356 . S
C1027 C1026 1.363 . S
C1027 C1033 1.363 . S
C1028 C1029 1.363 . S
C1028 C1033 1.379 . S
C1028 N1035 1.356 . S
C1029 C1028 1.363 . S
C1029 C1032 1.363 . S
N1030 C1032 1.356 . S
N1030 H1042 0.984 . S
N1030 H1043 0.985 . S
N1031 C1033 1.356 . S
N1031 H1036 0.984 . S
N1031 H1037 0.985 . S
C1032 C1026 1.379 . S
C1032 C1029 1.363 . S
C1032 N1030 1.356 . S
C1033 C1027 1.363 . S
C1033 C1028 1.379 . S
C1033 N1031 1.356 . S
N1034 C1026 1.356 . S
N1034 H1040 0.984 . S
N1034 H1041 0.984 . S
N1035 C1028 1.356 . S
N1035 H1038 0.984 . S
N1035 H1039 0.985 . S
H1036 N1031 0.984 . S
H1037 N1031 0.985 . S
H1038 N1035 0.984 . S
H1039 N1035 0.985 . S
H1040 N1034 0.984 . S
H1041 N1034 0.984 . S
H1042 N1030 0.984 . S
H1043 N1030 0.985 . S
C1044 C1045 1.363 . S
C1044 C1050 1.379 . S
C1044 N1052 1.356 . S
C1045 C1044 1.363 . S
C1045 C1051 1.363 . S
C1046 C1047 1.363 . S
C1046 C1051 1.379 . S
C1046 N1053 1.356 . S
C1047 C1046 1.363 . S
C1047 C1050 1.363 . S
N1048 C1050 1.356 . S
N1048 H1060 0.984 . S
N1048 H1061 0.985 . S
N1049 C1051 1.356 . S
N1049 H1054 0.984 . S
N1049 H1055 0.985 . S
C1050 C1044 1.379 . S
C1050 C1047 1.363 . S
C1050 N1048 1.356 . S
C1051 C1045 1.363 . S
C1051 C1046 1.379 . S
C1051 N1049 1.356 . S
N1052 C1044 1.356 . S
N1052 H1058 0.984 . S
N1052 H1059 0.984 . S
N1053 C1046 1.356 . S
N1053 H1056 0.984 . S
N1053 H1057 0.985 . S
H1054 N1049 0.984 . S
H1055 N1049 0.985 . S
H1056 N1053 0.984 . S
H1057 N1053 0.985 . S
H1058 N1052 0.984 . S
H1059 N1052 0.984 . S
H1060 N1048 0.984 . S
H1061 N1048 0.985 . S
C1062 C1063 1.363 . S
C1062 C1068 1.379 . S
C1062 N1070 1.356 . S
C1063 C1062 1.363 . S
C1063 C1069 1.363 . S
C1064 C1065 1.363 . S
C1064 C1069 1.379 . S
C1064 N1071 1.356 . S
C1065 C1064 1.363 . S
C1065 C1068 1.363 . S
N1066 C1068 1.356 . S
N1066 H1078 0.984 . S
N1066 H1079 0.985 . S
N1067 C1069 1.356 . S
N1067 H1072 0.984 . S
N1067 H1073 0.985 . S
C1068 C1062 1.379 . S
C1068 C1065 1.363 . S
C1068 N1066 1.356 . S
C1069 C1063 1.363 . S
C1069 C1064 1.379 . S
C1069 N1067 1.356 . S
N1070 C1062 1.356 . S
N1070 H1076 0.984 . S
N1070 H1077 0.984 . S
N1071 C1064 1.356 . S
N1071 H1074 0.984 . S
N1071 H1075 0.985 . S
H1072 N1067 0.984 . S
H1073 N1067 0.985 . S
H1074 N1071 0.984 . S
H1075 N1071 0.985 . S
H1076 N1070 0.984 . S
H1077 N1070 0.984 . S
H1078 N1066 0.984 . S
H1079 N1066 0.985 . S
C1080 C1081 1.363 . S
C1080 C1086 1.379 . S
C1080 N1088 1.356 . S
C1081 C1080 1.363 . S
C1081 C1087 1.363 . S
C1082 C1083 1.363 . S
C1082 C1087 1.379 . S
C1082 N1089 1.356 . S
C1083 C1082 1.363 . S
C1083 C1086 1.363 . S
N1084 C1086 1.356 . S
N1084 H1096 0.984 . S
N1084 H1097 0.985 . S
N1085 C1087 1.356 . S
N1085 H1090 0.984 . S
N1085 H1091 0.985 . S
C1086 C1080 1.379 . S
C1086 C1083 1.363 . S
C1086 N1084 1.356 . S
C1087 C1081 1.363 . S
C1087 C1082 1.379 . S
C1087 N1085 1.356 . S
N1088 C1080 1.356 . S
N1088 H1094 0.984 . S
N1088 H1095 0.984 . S
N1089 C1082 1.356 . S
N1089 H1092 0.984 . S
N1089 H1093 0.985 . S
H1090 N1085 0.984 . S
H1091 N1085 0.985 . S
H1092 N1089 0.984 . S
H1093 N1089 0.985 . S
H1094 N1088 0.984 . S
H1095 N1088 0.984 . S
H1096 N1084 0.984 . S
H1097 N1084 0.985 . S
C1098 C1099 1.363 . S
C1098 C1104 1.379 . S
C1098 N1106 1.356 . S
C1099 C1098 1.363 . S
C1099 C1105 1.363 . S
C1100 C1101 1.363 . S
C1100 C1105 1.379 . S
C1100 N1107 1.356 . S
C1101 C1100 1.363 . S
C1101 C1104 1.363 . S
N1102 C1104 1.356 . S
N1102 H1114 0.984 . S
N1102 H1115 0.985 . S
N1103 C1105 1.356 . S
N1103 H1108 0.984 . S
N1103 H1109 0.985 . S
C1104 C1098 1.379 . S
C1104 C1101 1.363 . S
C1104 N1102 1.356 . S
C1105 C1099 1.363 . S
C1105 C1100 1.379 . S
C1105 N1103 1.356 . S
N1106 C1098 1.356 . S
N1106 H1112 0.984 . S
N1106 H1113 0.984 . S
N1107 C1100 1.356 . S
N1107 H1110 0.984 . S
N1107 H1111 0.985 . S
H1108 N1103 0.984 . S
H1109 N1103 0.985 . S
H1110 N1107 0.984 . S
H1111 N1107 0.985 . S
H1112 N1106 0.984 . S
H1113 N1106 0.984 . S
H1114 N1102 0.984 . S
H1115 N1102 0.985 . S
C1116 C1117 1.363 . S
C1116 C1122 1.379 . S
C1116 N1124 1.356 . S
C1117 C1116 1.363 . S
C1117 C1123 1.363 . S
C1118 C1119 1.363 . S
C1118 C1123 1.379 . S
C1118 N1125 1.356 . S
C1119 C1118 1.363 . S
C1119 C1122 1.363 . S
N1120 C1122 1.356 . S
N1120 H1132 0.984 . S
N1120 H1133 0.985 . S
N1121 C1123 1.356 . S
N1121 H1126 0.984 . S
N1121 H1127 0.985 . S
C1122 C1116 1.379 . S
C1122 C1119 1.363 . S
C1122 N1120 1.356 . S
C1123 C1117 1.363 . S
C1123 C1118 1.379 . S
C1123 N1121 1.356 . S
N1124 C1116 1.356 . S
N1124 H1130 0.984 . S
N1124 H1131 0.984 . S
N1125 C1118 1.356 . S
N1125 H1128 0.984 . S
N1125 H1129 0.985 . S
H1126 N1121 0.984 . S
H1127 N1121 0.985 . S
H1128 N1125 0.984 . S
H1129 N1125 0.985 . S
H1130 N1124 0.984 . S
H1131 N1124 0.984 . S
H1132 N1120 0.984 . S
H1133 N1120 0.985 . S
C1134 C1135 1.363 . S
C1134 C1140 1.379 1_565 S
C1134 N1142 1.356 . S
C1135 C1134 1.363 . S
C1135 C1141 1.363 . S
C1136 C1137 1.363 . S
C1136 C1141 1.379 1_545 S
C1136 N1143 1.356 . S
C1137 C1136 1.363 . S
C1137 C1140 1.363 . S
N1138 C1140 1.356 . S
N1138 H1150 0.984 . S
N1138 H1151 0.985 . S
N1139 C1141 1.356 . S
N1139 H1144 0.984 . S
N1139 H1145 0.985 . S
C1140 C1134 1.379 1_545 S
C1140 C1137 1.363 . S
C1140 N1138 1.356 . S
C1141 C1135 1.363 . S
C1141 C1136 1.379 1_565 S
C1141 N1139 1.356 . S
N1142 C1134 1.356 . S
N1142 H1148 0.984 . S
N1142 H1149 0.984 . S
N1143 C1136 1.356 . S
N1143 H1146 0.984 . S
N1143 H1147 0.985 . S
H1144 N1139 0.984 . S
H1145 N1139 0.985 . S
H1146 N1143 0.984 . S
H1147 N1143 0.985 . S
H1148 N1142 0.984 . S
H1149 N1142 0.984 . S
H1150 N1138 0.984 . S
H1151 N1138 0.985 . S
C1152 C1153 1.363 . S
C1152 C1158 1.379 1_655 S
C1152 N1160 1.356 . S
C1153 C1152 1.363 . S
C1153 C1159 1.363 . S
C1154 C1155 1.363 . S
C1154 C1159 1.379 1_455 S
C1154 N1161 1.356 . S
C1155 C1154 1.363 . S
C1155 C1158 1.363 . S
N1156 C1158 1.356 . S
N1156 H1168 0.984 . S
N1156 H1169 0.985 . S
N1157 C1159 1.356 . S
N1157 H1162 0.984 . S
N1157 H1163 0.985 . S
C1158 C1152 1.379 1_455 S
C1158 C1155 1.363 . S
C1158 N1156 1.356 . S
C1159 C1153 1.363 . S
C1159 C1154 1.379 1_655 S
C1159 N1157 1.356 . S
N1160 C1152 1.356 . S
N1160 H1166 0.984 . S
N1160 H1167 0.984 . S
N1161 C1154 1.356 . S
N1161 H1164 0.984 . S
N1161 H1165 0.985 . S
H1162 N1157 0.984 . S
H1163 N1157 0.985 . S
H1164 N1161 0.984 . S
H1165 N1161 0.985 . S
H1166 N1160 0.984 . S
H1167 N1160 0.984 . S
H1168 N1156 0.984 . S
H1169 N1156 0.985 . S
C1170 C1171 1.363 . S
C1170 C1176 1.379 . S
C1170 N1178 1.356 . S
C1171 C1170 1.363 . S
C1171 C1177 1.363 . S
C1172 C1173 1.363 . S
C1172 C1177 1.379 . S
C1172 N1179 1.356 . S
C1173 C1172 1.363 . S
C1173 C1176 1.363 . S
N1174 C1176 1.356 . S
N1174 H1186 0.984 . S
N1174 H1187 0.985 . S
N1175 C1177 1.356 . S
N1175 H1180 0.984 . S
N1175 H1181 0.985 . S
C1176 C1170 1.379 . S
C1176 C1173 1.363 . S
C1176 N1174 1.356 . S
C1177 C1171 1.363 . S
C1177 C1172 1.379 . S
C1177 N1175 1.356 . S
N1178 C1170 1.356 . S
N1178 H1184 0.984 . S
N1178 H1185 0.984 . S
N1179 C1172 1.356 . S
N1179 H1182 0.984 . S
N1179 H1183 0.985 . S
H1180 N1175 0.984 . S
H1181 N1175 0.985 . S
H1182 N1179 0.984 . S
H1183 N1179 0.985 . S
H1184 N1178 0.984 . S
H1185 N1178 0.984 . S
H1186 N1174 0.984 . S
H1187 N1174 0.985 . S
C1188 C1189 1.363 . S
C1188 C1194 1.379 1_545 S
C1188 N1196 1.356 . S
C1189 C1188 1.363 . S
C1189 C1195 1.363 . S
C1190 C1191 1.363 . S
C1190 C1195 1.379 1_565 S
C1190 N1197 1.356 . S
C1191 C1190 1.363 . S
C1191 C1194 1.363 . S
N1192 C1194 1.356 . S
N1192 H1204 0.984 . S
N1192 H1205 0.985 . S
N1193 C1195 1.356 . S
N1193 H1198 0.984 . S
N1193 H1199 0.985 . S
C1194 C1188 1.379 1_565 S
C1194 C1191 1.363 . S
C1194 N1192 1.356 . S
C1195 C1189 1.363 . S
C1195 C1190 1.379 1_545 S
C1195 N1193 1.356 . S
N1196 C1188 1.356 . S
N1196 H1202 0.984 1_545 S
N1196 H1203 0.984 . S
N1197 C1190 1.356 . S
N1197 H1200 0.984 . S
N1197 H1201 0.985 1_565 S
H1198 N1193 0.984 . S
H1199 N1193 0.985 . S
H1200 N1197 0.984 . S
H1201 N1197 0.985 1_545 S
H1202 N1196 0.984 1_565 S
H1203 N1196 0.984 . S
H1204 N1192 0.984 . S
H1205 N1192 0.985 . S
C1206 C1207 1.363 . S
C1206 C1212 1.379 1_655 S
C1206 N1214 1.356 . S
C1207 C1206 1.363 . S
C1207 C1213 1.363 . S
C1208 C1209 1.363 . S
C1208 C1213 1.379 1_455 S
C1208 N1215 1.356 . S
C1209 C1208 1.363 . S
C1209 C1212 1.363 . S
N1210 C1212 1.356 . S
N1210 H1222 0.984 1_455 S
N1210 H1223 0.985 . S
N1211 C1213 1.356 . S
N1211 H1216 0.984 . S
N1211 H1217 0.985 1_655 S
C1212 C1206 1.379 1_455 S
C1212 C1209 1.363 . S
C1212 N1210 1.356 . S
C1213 C1207 1.363 . S
C1213 C1208 1.379 1_655 S
C1213 N1211 1.356 . S
N1214 C1206 1.356 . S
N1214 H1220 0.984 . S
N1214 H1221 0.984 . S
N1215 C1208 1.356 . S
N1215 H1218 0.984 . S
N1215 H1219 0.985 . S
H1216 N1211 0.984 . S
H1217 N1211 0.985 1_455 S
H1218 N1215 0.984 . S
H1219 N1215 0.985 . S
H1220 N1214 0.984 . S
H1221 N1214 0.984 . S
H1222 N1210 0.984 1_655 S
H1223 N1210 0.985 . S
C1224 C1225 1.363 . S
C1224 C1230 1.379 . S
C1224 N1232 1.356 . S
C1225 C1224 1.363 . S
C1225 C1231 1.363 . S
C1226 C1227 1.363 . S
C1226 C1231 1.379 . S
C1226 N1233 1.356 . S
C1227 C1226 1.363 . S
C1227 C1230 1.363 . S
N1228 C1230 1.356 . S
N1228 H1240 0.984 . S
N1228 H1241 0.985 . S
N1229 C1231 1.356 . S
N1229 H1234 0.984 . S
N1229 H1235 0.985 . S
C1230 C1224 1.379 . S
C1230 C1227 1.363 . S
C1230 N1228 1.356 . S
C1231 C1225 1.363 . S
C1231 C1226 1.379 . S
C1231 N1229 1.356 . S
N1232 C1224 1.356 . S
N1232 H1238 0.984 . S
N1232 H1239 0.984 . S
N1233 C1226 1.356 . S
N1233 H1236 0.984 . S
N1233 H1237 0.985 . S
H1234 N1229 0.984 . S
H1235 N1229 0.985 . S
H1236 N1233 0.984 . S
H1237 N1233 0.985 . S
H1238 N1232 0.984 . S
H1239 N1232 0.984 . S
H1240 N1228 0.984 . S
H1241 N1228 0.985 . S
C1242 C1243 1.363 . S
C1242 C1248 1.379 . S
C1242 N1250 1.356 . S
C1243 C1242 1.363 . S
C1243 C1249 1.363 . S
C1244 C1245 1.363 . S
C1244 C1249 1.379 . S
C1244 N1251 1.356 . S
C1245 C1244 1.363 . S
C1245 C1248 1.363 . S
N1246 C1248 1.356 . S
N1246 H1258 0.984 . S
N1246 H1259 0.985 . S
N1247 C1249 1.356 . S
N1247 H1252 0.984 . S
N1247 H1253 0.985 . S
C1248 C1242 1.379 . S
C1248 C1245 1.363 . S
C1248 N1246 1.356 . S
C1249 C1243 1.363 . S
C1249 C1244 1.379 . S
C1249 N1247 1.356 . S
N1250 C1242 1.356 . S
N1250 H1256 0.984 . S
N1250 H1257 0.984 . S
N1251 C1244 1.356 . S
N1251 H1254 0.984 . S
N1251 H1255 0.985 . S
H1252 N1247 0.984 . S
H1253 N1247 0.985 . S
H1254 N1251 0.984 . S
H1255 N1251 0.985 . S
H1256 N1250 0.984 . S
H1257 N1250 0.984 . S
H1258 N1246 0.984 . S
H1259 N1246 0.985 . S
C1260 C1261 1.363 . S
C1260 C1266 1.379 . S
C1260 N1268 1.356 . S
C1261 C1260 1.363 . S
C1261 C1267 1.363 . S
C1262 C1263 1.363 . S
C1262 C1267 1.379 . S
C1262 N1269 1.356 . S
C1263 C1262 1.363 . S
C1263 C1266 1.363 . S
N1264 C1266 1.356 . S
N1264 H1276 0.984 . S
N1264 H1277 0.985 . S
N1265 C1267 1.356 . S
N1265 H1270 0.984 . S
N1265 H1271 0.985 . S
C1266 C1260 1.379 . S
C1266 C1263 1.363 . S
C1266 N1264 1.356 . S
C1267 C1261 1.363 . S
C1267 C1262 1.379 . S
C1267 N1265 1.356 . S
N1268 C1260 1.356 . S
N1268 H1274 0.984 . S
N1268 H1275 0.984 . S
N1269 C1262 1.356 . S
N1269 H1272 0.984 . S
N1269 H1273 0.985 . S
H1270 N1265 0.984 . S
H1271 N1265 0.985 . S
H1272 N1269 0.984 . S
H1273 N1269 0.985 . S
H1274 N1268 0.984 . S
H1275 N1268 0.984 . S
H1276 N1264 0.984 . S
H1277 N1264 0.985 . S
C1278 C1279 1.363 . S
C1278 C1284 1.379 . S
C1278 N1286 1.356 . S
C1279 C1278 1.363 . S
C1279 C1285 1.363 . S
C1280 C1281 1.363 . S
C1280 C1285 1.379 . S
C1280 N1287 1.356 . S
C1281 C1280 1.363 . S
C1281 C1284 1.363 . S
N1282 C1284 1.356 . S
N1282 H1294 0.984 . S
N1282 H1295 0.985 . S
N1283 C1285 1.356 . S
N1283 H1288 0.984 . S
N1283 H1289 0.985 . S
C1284 C1278 1.379 . S
C1284 C1281 1.363 . S
C1284 N1282 1.356 . S
C1285 C1279 1.363 . S
C1285 C1280 1.379 . S
C1285 N1283 1.356 . S
N1286 C1278 1.356 . S
N1286 H1292 0.984 . S
N1286 H1293 0.984 . S
N1287 C1280 1.356 . S
N1287 H1290 0.984 . S
N1287 H1291 0.985 . S
H1288 N1283 0.984 . S
H1289 N1283 0.985 . S
H1290 N1287 0.984 . S
H1291 N1287 0.985 . S
H1292 N1286 0.984 . S
H1293 N1286 0.984 . S
H1294 N1282 0.984 . S
H1295 N1282 0.985 . S
C1296 C1297 1.363 . S
C1296 C1302 1.379 . S
C1296 N1304 1.356 1_554 S
C1297 C1296 1.363 . S
C1297 C1303 1.363 . S
C1298 C1299 1.363 . S
C1298 C1303 1.379 . S
C1298 N1305 1.356 . S
C1299 C1298 1.363 . S
C1299 C1302 1.363 . S
N1300 C1302 1.356 . S
N1300 H1312 0.984 . S
N1300 H1313 0.985 . S
N1301 C1303 1.356 . S
N1301 H1306 0.984 . S
N1301 H1307 0.985 . S
C1302 C1296 1.379 . S
C1302 C1299 1.363 . S
C1302 N1300 1.356 . S
C1303 C1297 1.363 . S
C1303 C1298 1.379 . S
C1303 N1301 1.356 . S
N1304 C1296 1.356 1_556 S
N1304 H1310 0.984 . S
N1304 H1311 0.984 . S
N1305 C1298 1.356 . S
N1305 H1308 0.984 . S
N1305 H1309 0.985 . S
H1306 N1301 0.984 . S
H1307 N1301 0.985 . S
H1308 N1305 0.984 . S
H1309 N1305 0.985 . S
H1310 N1304 0.984 . S
H1311 N1304 0.984 . S
H1312 N1300 0.984 . S
H1313 N1300 0.985 . S
C1314 C1315 1.363 . S
C1314 C1320 1.379 . S
C1314 N1322 1.356 . S
C1315 C1314 1.363 . S
C1315 C1321 1.363 . S
C1316 C1317 1.363 . S
C1316 C1321 1.379 . S
C1316 N1323 1.356 . S
C1317 C1316 1.363 . S
C1317 C1320 1.363 . S
N1318 C1320 1.356 . S
N1318 H1330 0.984 . S
N1318 H1331 0.985 . S
N1319 C1321 1.356 . S
N1319 H1324 0.984 . S
N1319 H1325 0.985 . S
C1320 C1314 1.379 . S
C1320 C1317 1.363 . S
C1320 N1318 1.356 . S
C1321 C1315 1.363 . S
C1321 C1316 1.379 . S
C1321 N1319 1.356 . S
N1322 C1314 1.356 . S
N1322 H1328 0.984 . S
N1322 H1329 0.984 . S
N1323 C1316 1.356 . S
N1323 H1326 0.984 . S
N1323 H1327 0.985 . S
H1324 N1319 0.984 . S
H1325 N1319 0.985 . S
H1326 N1323 0.984 . S
H1327 N1323 0.985 . S
H1328 N1322 0.984 . S
H1329 N1322 0.984 . S
H1330 N1318 0.984 . S
H1331 N1318 0.985 . S
C1332 C1333 1.363 . S
C1332 C1338 1.379 . S
C1332 N1340 1.356 . S
C1333 C1332 1.363 . S
C1333 C1339 1.363 . S
C1334 C1335 1.363 . S
C1334 C1339 1.379 . S
C1334 N1341 1.356 . S
C1335 C1334 1.363 . S
C1335 C1338 1.363 . S
N1336 C1338 1.356 . S
N1336 H1348 0.984 . S
N1336 H1349 0.985 . S
N1337 C1339 1.356 . S
N1337 H1342 0.984 . S
N1337 H1343 0.985 . S
C1338 C1332 1.379 . S
C1338 C1335 1.363 . S
C1338 N1336 1.356 . S
C1339 C1333 1.363 . S
C1339 C1334 1.379 . S
C1339 N1337 1.356 . S
N1340 C1332 1.356 . S
N1340 H1346 0.984 . S
N1340 H1347 0.984 . S
N1341 C1334 1.356 . S
N1341 H1344 0.984 . S
N1341 H1345 0.985 . S
H1342 N1337 0.984 . S
H1343 N1337 0.985 . S
H1344 N1341 0.984 . S
H1345 N1341 0.985 . S
H1346 N1340 0.984 . S
H1347 N1340 0.984 . S
H1348 N1336 0.984 . S
H1349 N1336 0.985 . S
C1350 C1351 1.363 . S
C1350 C1356 1.379 . S
C1350 N1358 1.356 . S
C1351 C1350 1.363 . S
C1351 C1357 1.363 . S
C1352 C1353 1.363 . S
C1352 C1357 1.379 . S
C1352 N1359 1.356 1_556 S
C1353 C1352 1.363 . S
C1353 C1356 1.363 . S
N1354 C1356 1.356 . S
N1354 H1366 0.984 . S
N1354 H1367 0.985 . S
N1355 C1357 1.356 . S
N1355 H1360 0.984 . S
N1355 H1361 0.985 . S
C1356 C1350 1.379 . S
C1356 C1353 1.363 . S
C1356 N1354 1.356 . S
C1357 C1351 1.363 . S
C1357 C1352 1.379 . S
C1357 N1355 1.356 . S
N1358 C1350 1.356 . S
N1358 H1364 0.984 . S
N1358 H1365 0.984 . S
N1359 C1352 1.356 1_554 S
N1359 H1362 0.984 . S
N1359 H1363 0.985 . S
H1360 N1355 0.984 . S
H1361 N1355 0.985 . S
H1362 N1359 0.984 . S
H1363 N1359 0.985 . S
H1364 N1358 0.984 . S
H1365 N1358 0.984 . S
H1366 N1354 0.984 . S
H1367 N1354 0.985 . S
C1368 C1369 1.363 . S
C1368 C1374 1.379 . S
C1368 N1376 1.356 . S
C1369 C1368 1.363 . S
C1369 C1375 1.363 . S
C1370 C1371 1.363 . S
C1370 C1375 1.379 . S
C1370 N1377 1.356 . S
C1371 C1370 1.363 . S
C1371 C1374 1.363 . S
N1372 C1374 1.356 . S
N1372 H1384 0.984 . S
N1372 H1385 0.985 . S
N1373 C1375 1.356 . S
N1373 H1378 0.984 . S
N1373 H1379 0.985 . S
C1374 C1368 1.379 . S
C1374 C1371 1.363 . S
C1374 N1372 1.356 . S
C1375 C1369 1.363 . S
C1375 C1370 1.379 . S
C1375 N1373 1.356 . S
N1376 C1368 1.356 . S
N1376 H1382 0.984 . S
N1376 H1383 0.984 . S
N1377 C1370 1.356 . S
N1377 H1380 0.984 . S
N1377 H1381 0.985 . S
H1378 N1373 0.984 . S
H1379 N1373 0.985 . S
H1380 N1377 0.984 . S
H1381 N1377 0.985 . S
H1382 N1376 0.984 . S
H1383 N1376 0.984 . S
H1384 N1372 0.984 . S
H1385 N1372 0.985 . S
C1386 C1387 1.363 . S
C1386 C1392 1.379 . S
C1386 N1394 1.356 . S
C1387 C1386 1.363 . S
C1387 C1393 1.363 . S
C1388 C1389 1.363 . S
C1388 C1393 1.379 . S
C1388 N1395 1.356 . S
C1389 C1388 1.363 . S
C1389 C1392 1.363 . S
N1390 C1392 1.356 . S
N1390 H1402 0.984 . S
N1390 H1403 0.985 . S
N1391 C1393 1.356 . S
N1391 H1396 0.984 . S
N1391 H1397 0.985 . S
C1392 C1386 1.379 . S
C1392 C1389 1.363 . S
C1392 N1390 1.356 . S
C1393 C1387 1.363 . S
C1393 C1388 1.379 . S
C1393 N1391 1.356 . S
N1394 C1386 1.356 . S
N1394 H1400 0.984 . S
N1394 H1401 0.984 . S
N1395 C1388 1.356 . S
N1395 H1398 0.984 . S
N1395 H1399 0.985 . S
H1396 N1391 0.984 . S
H1397 N1391 0.985 . S
H1398 N1395 0.984 . S
H1399 N1395 0.985 . S
H1400 N1394 0.984 . S
H1401 N1394 0.984 . S
H1402 N1390 0.984 . S
H1403 N1390 0.985 . S
C1404 C1405 1.363 . S
C1404 C1410 1.379 . S
C1404 N1412 1.356 . S
C1405 C1404 1.363 . S
C1405 C1411 1.363 . S
C1406 C1407 1.363 . S
C1406 C1411 1.379 . S
C1406 N1413 1.356 . S
C1407 C1406 1.363 . S
C1407 C1410 1.363 . S
N1408 C1410 1.356 . S
N1408 H1420 0.984 . S
N1408 H1421 0.985 . S
N1409 C1411 1.356 . S
N1409 H1414 0.984 . S
N1409 H1415 0.985 . S
C1410 C1404 1.379 . S
C1410 C1407 1.363 . S
C1410 N1408 1.356 . S
C1411 C1405 1.363 . S
C1411 C1406 1.379 . S
C1411 N1409 1.356 . S
N1412 C1404 1.356 . S
N1412 H1418 0.984 . S
N1412 H1419 0.984 . S
N1413 C1406 1.356 . S
N1413 H1416 0.984 . S
N1413 H1417 0.985 . S
H1414 N1409 0.984 . S
H1415 N1409 0.985 . S
H1416 N1413 0.984 . S
H1417 N1413 0.985 . S
H1418 N1412 0.984 . S
H1419 N1412 0.984 . S
H1420 N1408 0.984 . S
H1421 N1408 0.985 . S
C1422 C1423 1.363 . S
C1422 C1428 1.379 . S
C1422 N1430 1.356 . S
C1423 C1422 1.363 . S
C1423 C1429 1.363 . S
C1424 C1425 1.363 . S
C1424 C1429 1.379 . S
C1424 N1431 1.356 . S
C1425 C1424 1.363 . S
C1425 C1428 1.363 . S
N1426 C1428 1.356 . S
N1426 H1438 0.984 . S
N1426 H1439 0.985 . S
N1427 C1429 1.356 . S
N1427 H1432 0.984 . S
N1427 H1433 0.985 . S
C1428 C1422 1.379 . S
C1428 C1425 1.363 . S
C1428 N1426 1.356 . S
C1429 C1423 1.363 . S
C1429 C1424 1.379 . S
C1429 N1427 1.356 . S
N1430 C1422 1.356 . S
N1430 H1436 0.984 . S
N1430 H1437 0.984 . S
N1431 C1424 1.356 . S
N1431 H1434 0.984 . S
N1431 H1435 0.985 . S
H1432 N1427 0.984 . S
H1433 N1427 0.985 . S
H1434 N1431 0.984 . S
H1435 N1431 0.985 . S
H1436 N1430 0.984 . S
H1437 N1430 0.984 . S
H1438 N1426 0.984 . S
H1439 N1426 0.985 . S
C1440 C1441 1.363 . S
C1440 C1446 1.379 . S
C1440 N1448 1.356 . S
C1441 C1440 1.363 . S
C1441 C1447 1.363 . S
C1442 C1443 1.363 . S
C1442 C1447 1.379 . S
C1442 N1449 1.356 . S
C1443 C1442 1.363 . S
C1443 C1446 1.363 . S
N1444 C1446 1.356 . S
N1444 H1456 0.984 . S
N1444 H1457 0.985 . S
N1445 C1447 1.356 . S
N1445 H1450 0.984 . S
N1445 H1451 0.985 . S
C1446 C1440 1.379 . S
C1446 C1443 1.363 . S
C1446 N1444 1.356 . S
C1447 C1441 1.363 . S
C1447 C1442 1.379 . S
C1447 N1445 1.356 . S
N1448 C1440 1.356 . S
N1448 H1454 0.984 . S
N1448 H1455 0.984 . S
N1449 C1442 1.356 . S
N1449 H1452 0.984 . S
N1449 H1453 0.985 . S
H1450 N1445 0.984 . S
H1451 N1445 0.985 . S
H1452 N1449 0.984 . S
H1453 N1449 0.985 . S
H1454 N1448 0.984 . S
H1455 N1448 0.984 . S
H1456 N1444 0.984 . S
H1457 N1444 0.985 . S
C1458 C1459 1.363 . S
C1458 C1464 1.379 . S
C1458 N1466 1.356 . S
C1459 C1458 1.363 . S
C1459 C1465 1.363 . S
C1460 C1461 1.363 . S
C1460 C1465 1.379 . S
C1460 N1467 1.356 . S
C1461 C1460 1.363 . S
C1461 C1464 1.363 . S
N1462 C1464 1.356 . S
N1462 H1474 0.984 . S
N1462 H1475 0.985 . S
N1463 C1465 1.356 . S
N1463 H1468 0.984 . S
N1463 H1469 0.985 . S
C1464 C1458 1.379 . S
C1464 C1461 1.363 . S
C1464 N1462 1.356 . S
C1465 C1459 1.363 . S
C1465 C1460 1.379 . S
C1465 N1463 1.356 . S
N1466 C1458 1.356 . S
N1466 H1472 0.984 . S
N1466 H1473 0.984 . S
N1467 C1460 1.356 . S
N1467 H1470 0.984 . S
N1467 H1471 0.985 . S
H1468 N1463 0.984 . S
H1469 N1463 0.985 . S
H1470 N1467 0.984 . S
H1471 N1467 0.985 . S
H1472 N1466 0.984 . S
H1473 N1466 0.984 . S
H1474 N1462 0.984 . S
H1475 N1462 0.985 . S
C1476 C1477 1.363 . S
C1476 C1482 1.379 . S
C1476 N1484 1.356 . S
C1477 C1476 1.363 . S
C1477 C1483 1.363 . S
C1478 C1479 1.363 . S
C1478 C1483 1.379 . S
C1478 N1485 1.356 . S
C1479 C1478 1.363 . S
C1479 C1482 1.363 . S
N1480 C1482 1.356 . S
N1480 H1492 0.984 . S
N1480 H1493 0.985 . S
N1481 C1483 1.356 . S
N1481 H1486 0.984 . S
N1481 H1487 0.985 . S
C1482 C1476 1.379 . S
C1482 C1479 1.363 . S
C1482 N1480 1.356 . S
C1483 C1477 1.363 . S
C1483 C1478 1.379 . S
C1483 N1481 1.356 . S
N1484 C1476 1.356 . S
N1484 H1490 0.984 . S
N1484 H1491 0.984 . S
N1485 C1478 1.356 . S
N1485 H1488 0.984 . S
N1485 H1489 0.985 . S
H1486 N1481 0.984 . S
H1487 N1481 0.985 . S
H1488 N1485 0.984 . S
H1489 N1485 0.985 . S
H1490 N1484 0.984 . S
H1491 N1484 0.984 . S
H1492 N1480 0.984 . S
H1493 N1480 0.985 . S
C1494 C1495 1.363 . S
C1494 C1500 1.379 . S
C1494 N1502 1.356 . S
C1495 C1494 1.363 . S
C1495 C1501 1.363 . S
C1496 C1497 1.363 . S
C1496 C1501 1.379 . S
C1496 N1503 1.356 . S
C1497 C1496 1.363 . S
C1497 C1500 1.363 . S
N1498 C1500 1.356 . S
N1498 H1510 0.984 . S
N1498 H1511 0.985 . S
N1499 C1501 1.356 . S
N1499 H1504 0.984 . S
N1499 H1505 0.985 . S
C1500 C1494 1.379 . S
C1500 C1497 1.363 . S
C1500 N1498 1.356 . S
C1501 C1495 1.363 . S
C1501 C1496 1.379 . S
C1501 N1499 1.356 . S
N1502 C1494 1.356 . S
N1502 H1508 0.984 . S
N1502 H1509 0.984 . S
N1503 C1496 1.356 . S
N1503 H1506 0.984 . S
N1503 H1507 0.985 . S
H1504 N1499 0.984 . S
H1505 N1499 0.985 . S
H1506 N1503 0.984 . S
H1507 N1503 0.985 . S
H1508 N1502 0.984 . S
H1509 N1502 0.984 . S
H1510 N1498 0.984 . S
H1511 N1498 0.985 . S
C1512 C1513 1.363 . S
C1512 C1518 1.379 . S
C1512 N1520 1.356 . S
C1513 C1512 1.363 . S
C1513 C1519 1.363 . S
C1514 C1515 1.363 . S
C1514 C1519 1.379 . S
C1514 N1521 1.356 . S
C1515 C1514 1.363 . S
C1515 C1518 1.363 . S
N1516 C1518 1.356 . S
N1516 H1528 0.984 . S
N1516 H1529 0.985 . S
N1517 C1519 1.356 . S
N1517 H1522 0.984 . S
N1517 H1523 0.985 . S
C1518 C1512 1.379 . S
C1518 C1515 1.363 . S
C1518 N1516 1.356 . S
C1519 C1513 1.363 . S
C1519 C1514 1.379 . S
C1519 N1517 1.356 . S
N1520 C1512 1.356 . S
N1520 H1526 0.984 . S
N1520 H1527 0.984 . S
N1521 C1514 1.356 . S
N1521 H1524 0.984 . S
N1521 H1525 0.985 . S
H1522 N1517 0.984 . S
H1523 N1517 0.985 . S
H1524 N1521 0.984 . S
H1525 N1521 0.985 . S
H1526 N1520 0.984 . S
H1527 N1520 0.984 . S
H1528 N1516 0.984 . S
H1529 N1516 0.985 . S
C1530 C1531 1.363 . S
C1530 C1536 1.379 . S
C1530 N1538 1.356 . S
C1531 C1530 1.363 . S
C1531 C1537 1.363 . S
C1532 C1533 1.363 . S
C1532 C1537 1.379 . S
C1532 N1539 1.356 . S
C1533 C1532 1.363 . S
C1533 C1536 1.363 . S
N1534 C1536 1.356 . S
N1534 H1546 0.984 . S
N1534 H1547 0.985 . S
N1535 C1537 1.356 . S
N1535 H1540 0.984 . S
N1535 H1541 0.985 . S
C1536 C1530 1.379 . S
C1536 C1533 1.363 . S
C1536 N1534 1.356 . S
C1537 C1531 1.363 . S
C1537 C1532 1.379 . S
C1537 N1535 1.356 . S
N1538 C1530 1.356 . S
N1538 H1544 0.984 . S
N1538 H1545 0.984 . S
N1539 C1532 1.356 . S
N1539 H1542 0.984 . S
N1539 H1543 0.985 . S
H1540 N1535 0.984 . S
H1541 N1535 0.985 . S
H1542 N1539 0.984 . S
H1543 N1539 0.985 . S
H1544 N1538 0.984 . S
H1545 N1538 0.984 . S
H1546 N1534 0.984 . S
H1547 N1534 0.985 . S
C1548 C1549 1.363 . S
C1548 C1554 1.379 . S
C1548 N1556 1.356 . S
C1549 C1548 1.363 . S
C1549 C1555 1.363 . S
C1550 C1551 1.363 . S
C1550 C1555 1.379 . S
C1550 N1557 1.356 . S
C1551 C1550 1.363 . S
C1551 C1554 1.363 . S
N1552 C1554 1.356 . S
N1552 H1564 0.984 . S
N1552 H1565 0.985 . S
N1553 C1555 1.356 . S
N1553 H1558 0.984 . S
N1553 H1559 0.985 . S
C1554 C1548 1.379 . S
C1554 C1551 1.363 . S
C1554 N1552 1.356 . S
C1555 C1549 1.363 . S
C1555 C1550 1.379 . S
C1555 N1553 1.356 . S
N1556 C1548 1.356 . S
N1556 H1562 0.984 . S
N1556 H1563 0.984 . S
N1557 C1550 1.356 . S
N1557 H1560 0.984 . S
N1557 H1561 0.985 . S
H1558 N1553 0.984 . S
H1559 N1553 0.985 . S
H1560 N1557 0.984 . S
H1561 N1557 0.985 . S
H1562 N1556 0.984 . S
H1563 N1556 0.984 . S
H1564 N1552 0.984 . S
H1565 N1552 0.985 . S
C1566 C1567 1.363 . S
C1566 C1572 1.379 . S
C1566 N1574 1.356 . S
C1567 C1566 1.363 . S
C1567 C1573 1.363 . S
C1568 C1569 1.363 . S
C1568 C1573 1.379 . S
C1568 N1575 1.356 . S
C1569 C1568 1.363 . S
C1569 C1572 1.363 . S
N1570 C1572 1.356 . S
N1570 H1582 0.984 . S
N1570 H1583 0.985 . S
N1571 C1573 1.356 . S
N1571 H1576 0.984 . S
N1571 H1577 0.985 . S
C1572 C1566 1.379 . S
C1572 C1569 1.363 . S
C1572 N1570 1.356 . S
C1573 C1567 1.363 . S
C1573 C1568 1.379 . S
C1573 N1571 1.356 . S
N1574 C1566 1.356 . S
N1574 H1580 0.984 . S
N1574 H1581 0.984 . S
N1575 C1568 1.356 . S
N1575 H1578 0.984 . S
N1575 H1579 0.985 . S
H1576 N1571 0.984 . S
H1577 N1571 0.985 . S
H1578 N1575 0.984 . S
H1579 N1575 0.985 . S
H1580 N1574 0.984 . S
H1581 N1574 0.984 . S
H1582 N1570 0.984 . S
H1583 N1570 0.985 . S
C1584 C1585 1.363 . S
C1584 C1590 1.379 . S
C1584 N1592 1.356 . S
C1585 C1584 1.363 . S
C1585 C1591 1.363 . S
C1586 C1587 1.363 . S
C1586 C1591 1.379 . S
C1586 N1593 1.356 . S
C1587 C1586 1.363 . S
C1587 C1590 1.363 . S
N1588 C1590 1.356 . S
N1588 H1600 0.984 . S
N1588 H1601 0.985 . S
N1589 C1591 1.356 . S
N1589 H1594 0.984 . S
N1589 H1595 0.985 . S
C1590 C1584 1.379 . S
C1590 C1587 1.363 . S
C1590 N1588 1.356 . S
C1591 C1585 1.363 . S
C1591 C1586 1.379 . S
C1591 N1589 1.356 . S
N1592 C1584 1.356 . S
N1592 H1598 0.984 . S
N1592 H1599 0.984 . S
N1593 C1586 1.356 . S
N1593 H1596 0.984 . S
N1593 H1597 0.985 . S
H1594 N1589 0.984 . S
H1595 N1589 0.985 . S
H1596 N1593 0.984 . S
H1597 N1593 0.985 . S
H1598 N1592 0.984 . S
H1599 N1592 0.984 . S
H1600 N1588 0.984 . S
H1601 N1588 0.985 . S
C1602 C1603 1.363 . S
C1602 C1608 1.379 . S
C1602 N1610 1.356 . S
C1603 C1602 1.363 . S
C1603 C1609 1.363 . S
C1604 C1605 1.363 . S
C1604 C1609 1.379 . S
C1604 N1611 1.356 . S
C1605 C1604 1.363 . S
C1605 C1608 1.363 . S
N1606 C1608 1.356 . S
N1606 H1618 0.984 . S
N1606 H1619 0.985 . S
N1607 C1609 1.356 . S
N1607 H1612 0.984 . S
N1607 H1613 0.985 . S
C1608 C1602 1.379 . S
C1608 C1605 1.363 . S
C1608 N1606 1.356 . S
C1609 C1603 1.363 . S
C1609 C1604 1.379 . S
C1609 N1607 1.356 . S
N1610 C1602 1.356 . S
N1610 H1616 0.984 . S
N1610 H1617 0.984 . S
N1611 C1604 1.356 . S
N1611 H1614 0.984 . S
N1611 H1615 0.985 . S
H1612 N1607 0.984 . S
H1613 N1607 0.985 . S
H1614 N1611 0.984 . S
H1615 N1611 0.985 . S
H1616 N1610 0.984 . S
H1617 N1610 0.984 . S
H1618 N1606 0.984 . S
H1619 N1606 0.985 . S
C1620 C1621 1.363 . S
C1620 C1626 1.379 . S
C1620 N1628 1.356 . S
C1621 C1620 1.363 . S
C1621 C1627 1.363 . S
C1622 C1623 1.363 . S
C1622 C1627 1.379 . S
C1622 N1629 1.356 . S
C1623 C1622 1.363 . S
C1623 C1626 1.363 . S
N1624 C1626 1.356 . S
N1624 H1636 0.984 . S
N1624 H1637 0.985 . S
N1625 C1627 1.356 . S
N1625 H1630 0.984 . S
N1625 H1631 0.985 . S
C1626 C1620 1.379 . S
C1626 C1623 1.363 . S
C1626 N1624 1.356 . S
C1627 C1621 1.363 . S
C1627 C1622 1.379 . S
C1627 N1625 1.356 . S
N1628 C1620 1.356 . S
N1628 H1634 0.984 . S
N1628 H1635 0.984 . S
N1629 C1622 1.356 . S
N1629 H1632 0.984 . S
N1629 H1633 0.985 . S
H1630 N1625 0.984 . S
H1631 N1625 0.985 . S
H1632 N1629 0.984 . S
H1633 N1629 0.985 . S
H1634 N1628 0.984 . S
H1635 N1628 0.984 . S
H1636 N1624 0.984 . S
H1637 N1624 0.985 . S
C1638 C1639 1.363 . S
C1638 C1644 1.379 . S
C1638 N1646 1.356 . S
C1639 C1638 1.363 . S
C1639 C1645 1.363 . S
C1640 C1641 1.363 . S
C1640 C1645 1.379 . S
C1640 N1647 1.356 . S
C1641 C1640 1.363 . S
C1641 C1644 1.363 . S
N1642 C1644 1.356 . S
N1642 H1654 0.984 . S
N1642 H1655 0.985 . S
N1643 C1645 1.356 . S
N1643 H1648 0.984 . S
N1643 H1649 0.985 . S
C1644 C1638 1.379 . S
C1644 C1641 1.363 . S
C1644 N1642 1.356 . S
C1645 C1639 1.363 . S
C1645 C1640 1.379 . S
C1645 N1643 1.356 . S
N1646 C1638 1.356 . S
N1646 H1652 0.984 . S
N1646 H1653 0.984 . S
N1647 C1640 1.356 . S
N1647 H1650 0.984 . S
N1647 H1651 0.985 . S
H1648 N1643 0.984 . S
H1649 N1643 0.985 . S
H1650 N1647 0.984 . S
H1651 N1647 0.985 . S
H1652 N1646 0.984 . S
H1653 N1646 0.984 . S
H1654 N1642 0.984 . S
H1655 N1642 0.985 . S
C1656 C1657 1.363 . S
C1656 C1662 1.379 1_455 S
C1656 N1664 1.356 . S
C1657 C1656 1.363 . S
C1657 C1663 1.363 . S
C1658 C1659 1.363 . S
C1658 C1663 1.379 1_655 S
C1658 N1665 1.356 . S
C1659 C1658 1.363 . S
C1659 C1662 1.363 . S
N1660 C1662 1.356 . S
N1660 H1672 0.984 . S
N1660 H1673 0.985 . S
N1661 C1663 1.356 . S
N1661 H1666 0.984 . S
N1661 H1667 0.985 . S
C1662 C1656 1.379 1_655 S
C1662 C1659 1.363 . S
C1662 N1660 1.356 . S
C1663 C1657 1.363 . S
C1663 C1658 1.379 1_455 S
C1663 N1661 1.356 . S
N1664 C1656 1.356 . S
N1664 H1670 0.984 . S
N1664 H1671 0.984 . S
N1665 C1658 1.356 . S
N1665 H1668 0.984 . S
N1665 H1669 0.985 . S
H1666 N1661 0.984 . S
H1667 N1661 0.985 . S
H1668 N1665 0.984 . S
H1669 N1665 0.985 . S
H1670 N1664 0.984 . S
H1671 N1664 0.984 . S
H1672 N1660 0.984 . S
H1673 N1660 0.985 . S
C1674 C1675 1.363 . S
C1674 C1680 1.379 . S
C1674 N1682 1.356 . S
C1675 C1674 1.363 . S
C1675 C1681 1.363 . S
C1676 C1677 1.363 . S
C1676 C1681 1.379 . S
C1676 N1683 1.356 . S
C1677 C1676 1.363 . S
C1677 C1680 1.363 . S
N1678 C1680 1.356 . S
N1678 H1690 0.984 . S
N1678 H1691 0.985 . S
N1679 C1681 1.356 . S
N1679 H1684 0.984 . S
N1679 H1685 0.985 . S
C1680 C1674 1.379 . S
C1680 C1677 1.363 . S
C1680 N1678 1.356 . S
C1681 C1675 1.363 . S
C1681 C1676 1.379 . S
C1681 N1679 1.356 . S
N1682 C1674 1.356 . S
N1682 H1688 0.984 . S
N1682 H1689 0.984 . S
N1683 C1676 1.356 . S
N1683 H1686 0.984 . S
N1683 H1687 0.985 . S
H1684 N1679 0.984 . S
H1685 N1679 0.985 . S
H1686 N1683 0.984 . S
H1687 N1683 0.985 . S
H1688 N1682 0.984 . S
H1689 N1682 0.984 . S
H1690 N1678 0.984 . S
H1691 N1678 0.985 . S
C1692 C1693 1.363 . S
C1692 C1698 1.379 1_545 S
C1692 N1700 1.356 . S
C1693 C1692 1.363 . S
C1693 C1699 1.363 . S
C1694 C1695 1.363 . S
C1694 C1699 1.379 1_565 S
C1694 N1701 1.356 . S
C1695 C1694 1.363 . S
C1695 C1698 1.363 . S
N1696 C1698 1.356 . S
N1696 H1708 0.984 . S
N1696 H1709 0.985 . S
N1697 C1699 1.356 . S
N1697 H1702 0.984 . S
N1697 H1703 0.985 . S
C1698 C1692 1.379 1_565 S
C1698 C1695 1.363 . S
C1698 N1696 1.356 . S
C1699 C1693 1.363 . S
C1699 C1694 1.379 1_545 S
C1699 N1697 1.356 . S
N1700 C1692 1.356 . S
N1700 H1706 0.984 . S
N1700 H1707 0.984 . S
N1701 C1694 1.356 . S
N1701 H1704 0.984 . S
N1701 H1705 0.985 . S
H1702 N1697 0.984 . S
H1703 N1697 0.985 . S
H1704 N1701 0.984 . S
H1705 N1701 0.985 . S
H1706 N1700 0.984 . S
H1707 N1700 0.984 . S
H1708 N1696 0.984 . S
H1709 N1696 0.985 . S
C1710 C1711 1.363 . S
C1710 C1716 1.379 1_545 S
C1710 N1718 1.356 . S
C1711 C1710 1.363 . S
C1711 C1717 1.363 1_556 S
C1712 C1713 1.363 . S
C1712 C1717 1.379 1_565 S
C1712 N1719 1.356 . S
C1713 C1712 1.363 . S
C1713 C1716 1.363 1_554 S
N1714 C1716 1.356 . S
N1714 H1726 0.984 . S
N1714 H1727 0.985 1_556 S
N1715 C1717 1.356 . S
N1715 H1720 0.984 1_554 S
N1715 H1721 0.985 . S
C1716 C1710 1.379 1_565 S
C1716 C1713 1.363 1_556 S
C1716 N1714 1.356 . S
C1717 C1711 1.363 1_554 S
C1717 C1712 1.379 1_545 S
C1717 N1715 1.356 . S
N1718 C1710 1.356 . S
N1718 H1724 0.984 . S
N1718 H1725 0.984 . S
N1719 C1712 1.356 . S
N1719 H1722 0.984 . S
N1719 H1723 0.985 . S
H1720 N1715 0.984 1_556 S
H1721 N1715 0.985 . S
H1722 N1719 0.984 . S
H1723 N1719 0.985 . S
H1724 N1718 0.984 . S
H1725 N1718 0.984 . S
H1726 N1714 0.984 . S
H1727 N1714 0.985 1_554 S
C1728 C1729 1.363 1_554 S
C1728 C1734 1.379 1_655 S
C1728 N1736 1.356 . S
C1729 C1728 1.363 1_556 S
C1729 C1735 1.363 . S
C1730 C1731 1.363 1_556 S
C1730 C1735 1.379 1_455 S
C1730 N1737 1.356 . S
C1731 C1730 1.363 1_554 S
C1731 C1734 1.363 . S
N1732 C1734 1.356 . S
N1732 H1744 0.986 1_455 S
N1732 H1745 0.985 . S
N1733 C1735 1.356 . S
N1733 H1738 0.984 . S
N1733 H1739 0.986 1_655 S
C1734 C1728 1.379 1_455 S
C1734 C1731 1.363 . S
C1734 N1732 1.356 . S
C1735 C1729 1.363 . S
C1735 C1730 1.379 1_655 S
C1735 N1733 1.356 . S
N1736 C1728 1.356 . S
N1736 H1742 0.984 . S
N1736 H1743 0.984 . S
N1737 C1730 1.356 . S
N1737 H1740 0.984 . S
N1737 H1741 0.985 . S
H1738 N1733 0.984 . S
H1739 N1733 0.986 1_455 S
H1740 N1737 0.984 . S
H1741 N1737 0.985 . S
H1742 N1736 0.984 . S
H1743 N1736 0.984 . S
H1744 N1732 0.986 1_655 S
H1745 N1732 0.985 . S
C1746 C1747 1.363 . S
C1746 C1752 1.379 1_556 S
C1746 N1754 1.356 . S
C1747 C1746 1.363 . S
C1747 C1753 1.363 . S
C1748 C1749 1.363 . S
C1748 C1753 1.379 1_554 S
C1748 N1755 1.356 . S
C1749 C1748 1.363 . S
C1749 C1752 1.363 . S
N1750 C1752 1.356 . S
N1750 H1762 0.984 . S
N1750 H1763 0.985 . S
N1751 C1753 1.356 . S
N1751 H1756 0.984 . S
N1751 H1757 0.985 . S
C1752 C1746 1.379 1_554 S
C1752 C1749 1.363 . S
C1752 N1750 1.356 . S
C1753 C1747 1.363 . S
C1753 C1748 1.379 1_556 S
C1753 N1751 1.356 . S
N1754 C1746 1.356 . S
N1754 H1760 0.984 . S
N1754 H1761 0.984 . S
N1755 C1748 1.356 . S
N1755 H1758 0.984 . S
N1755 H1759 0.985 . S
H1756 N1751 0.984 . S
H1757 N1751 0.985 . S
H1758 N1755 0.984 . S
H1759 N1755 0.985 . S
H1760 N1754 0.984 . S
H1761 N1754 0.984 . S
H1762 N1750 0.984 . S
H1763 N1750 0.985 . S
C469 C10 1.263 . S
C471 C96 1.195 . S
C487 C23 1.262 . S
C489 C109 1.194 . S
C505 C83 1.194 . S
C507 C36 1.263 . S
C523 C148 1.194 . S
C525 C49 1.263 . S
C541 C62 1.263 . S
C543 C122 1.194 . S
C559 C75 1.262 . S
C561 C135 1.194 . S
C577 C18 1.195 . S
C579 C88 1.263 . S
C595 C31 1.194 . S
C597 C101 1.262 . S
C613 C114 1.263 . S
C615 C5 1.194 . S
C631 C127 1.263 . S
C633 C70 1.194 . S
C649 C44 1.194 . S
C651 C140 1.263 . S
C667 C153 1.262 . S
C669 C57 1.194 . S
C685 C252 1.194 . S
C687 C166 1.263 . S
C703 C179 1.262 . S
C705 C265 1.194 . S
C721 C192 1.263 . S
C723 C239 1.194 . S
C739 C304 1.194 . S
C741 C205 1.263 . S
C757 C218 1.263 . S
C759 C278 1.194 . S
C775 C291 1.194 . S
C777 C231 1.262 . S
C793 C174 1.195 . S
C795 C244 1.263 . S
C811 C257 1.262 . S
C813 C187 1.194 . S
C829 C161 1.194 . S
C831 C270 1.263 . S
C847 C283 1.263 . S
C849 C226 1.194 . S
C865 C296 1.263 . S
C867 C200 1.194 . S
C883 C309 1.262 . S
C885 C213 1.194 . S
C901 C408 1.195 . S
C903 C322 1.263 . S
C919 C421 1.194 . S
C921 C335 1.262 . S
C937 C395 1.194 . S
C939 C348 1.263 . S
C955 C361 1.263 . S
C957 C460 1.194 . S
C973 C374 1.263 . S
C975 C434 1.194 . S
C991 C447 1.194 . S
C993 C387 1.262 . S
C1009 C400 1.263 . S
C1011 C330 1.194 . S
C1027 C343 1.194 . S
C1029 C413 1.262 . S
C1045 C317 1.194 . S
C1047 C426 1.263 . S
C1063 C439 1.263 . S
C1065 C382 1.194 . S
C1081 C452 1.263 . S
C1083 C356 1.194 . S
C1099 C465 1.262 . S
C1101 C369 1.194 . S
C1117 C47 1.390 . S
C1119 C8 1.390 . S
C1135 C60 1.389 . S
C1137 C21 1.389 . S
C1153 C34 1.389 . S
C1155 C73 1.389 . S
C1171 C125 1.390 . S
C1173 C86 1.390 . S
C1189 C138 1.389 . S
C1191 C99 1.389 . S
C1207 C151 1.389 . S
C1209 C112 1.389 . S
C1225 C203 1.390 . S
C1227 C164 1.390 . S
C1243 C216 1.389 . S
C1245 C177 1.389 . S
C1261 C190 1.389 . S
C1263 C229 1.389 . S
C1279 C281 1.390 . S
C1281 C242 1.390 . S
C1297 C294 1.389 . S
C1299 C255 1.389 . S
C1315 C307 1.389 . S
C1317 C268 1.389 . S
C1333 C359 1.390 . S
C1335 C320 1.390 . S
C1351 C333 1.389 . S
C1353 C372 1.389 . S
C1369 C385 1.389 . S
C1371 C346 1.389 . S
C1387 C398 1.390 . S
C1389 C437 1.390 . S
C1405 C411 1.389 . S
C1407 C450 1.389 . S
C1423 C424 1.389 . S
C1425 C463 1.389 . S
C1441 C0 1.443 . S
C1443 C234 1.443 . S
C1459 C247 1.443 . S
C1461 C13 1.443 . S
C1477 C260 1.442 . S
C1479 C26 1.442 . S
C1495 C429 1.443 . S
C1497 C39 1.443 . S
C1513 C442 1.442 . S
C1515 C52 1.442 . S
C1531 C455 1.443 . S
C1533 C65 1.443 . S
C1549 C78 1.443 . S
C1551 C312 1.443 . S
C1567 C325 1.443 . S
C1569 C91 1.443 . S
C1585 C338 1.442 . S
C1587 C104 1.442 . S
C1603 C117 1.443 . S
C1605 C195 1.443 . S
C1621 C130 1.442 . S
C1623 C208 1.442 . S
C1639 C143 1.443 . S
C1641 C221 1.443 . S
C1657 C390 1.443 . S
C1659 C156 1.443 . S
C1675 C403 1.443 . S
C1677 C169 1.443 . S
C1693 C182 1.442 . S
C1695 C416 1.442 . S
C1711 C273 1.443 . S
C1713 C351 1.443 . S
C1729 C286 1.442 . S
C1731 C364 1.442 . S
C1747 C299 1.443 . S
C1749 C377 1.443 . S
