# Generated by pormake.
# Topology wkh, (6)-cn, num edge types: 1
# Building blocks:
#     Node 0, Type 0, BuildingBlock: VOLQOD_clean_sbu_1, # of connection points: 6
#     Node 1, Type 0, BuildingBlock: VOLQOD_clean_sbu_1, # of connection points: 6
#     Node 2, Type 0, BuildingBlock: VOLQOD_clean_sbu_1, # of connection points: 6
#     Node 3, Type 0, BuildingBlock: VOLQOD_clean_sbu_1, # of connection points: 6
#     Node 4, Type 0, BuildingBlock: VOLQOD_clean_sbu_1, # of connection points: 6
#     Node 5, Type 0, BuildingBlock: VOLQOD_clean_sbu_1, # of connection points: 6
#     Node 6, Type 0, BuildingBlock: VOLQOD_clean_sbu_1, # of connection points: 6
#     Node 7, Type 0, BuildingBlock: VOLQOD_clean_sbu_1, # of connection points: 6
#     Node 8, Type 0, BuildingBlock: VOLQOD_clean_sbu_1, # of connection points: 6
#     Node 9, Type 0, BuildingBlock: VOLQOD_clean_sbu_1, # of connection points: 6
#     Node 10, Type 0, BuildingBlock: VOLQOD_clean_sbu_1, # of connection points: 6
#     Node 11, Type 0, BuildingBlock: VOLQOD_clean_sbu_1, # of connection points: 6
#     Edge 12, Type (0, 0), BuildingBlock: XUDNAN_clean_linker_2, # of connection points: 2
#     Edge 13, Type (0, 0), BuildingBlock: XUDNAN_clean_linker_2, # of connection points: 2
#     Edge 14, Type (0, 0), BuildingBlock: XUDNAN_clean_linker_2, # of connection points: 2
#     Edge 15, Type (0, 0), BuildingBlock: XUDNAN_clean_linker_2, # of connection points: 2
#     Edge 16, Type (0, 0), BuildingBlock: XUDNAN_clean_linker_2, # of connection points: 2
#     Edge 17, Type (0, 0), BuildingBlock: XUDNAN_clean_linker_2, # of connection points: 2
#     Edge 18, Type (0, 0), BuildingBlock: XUDNAN_clean_linker_2, # of connection points: 2
#     Edge 19, Type (0, 0), BuildingBlock: XUDNAN_clean_linker_2, # of connection points: 2
#     Edge 20, Type (0, 0), BuildingBlock: XUDNAN_clean_linker_2, # of connection points: 2
#     Edge 21, Type (0, 0), BuildingBlock: XUDNAN_clean_linker_2, # of connection points: 2
#     Edge 22, Type (0, 0), BuildingBlock: XUDNAN_clean_linker_2, # of connection points: 2
#     Edge 23, Type (0, 0), BuildingBlock: XUDNAN_clean_linker_2, # of connection points: 2
#     Edge 24, Type (0, 0), BuildingBlock: XUDNAN_clean_linker_2, # of connection points: 2
#     Edge 25, Type (0, 0), BuildingBlock: XUDNAN_clean_linker_2, # of connection points: 2
#     Edge 26, Type (0, 0), BuildingBlock: XUDNAN_clean_linker_2, # of connection points: 2
#     Edge 27, Type (0, 0), BuildingBlock: XUDNAN_clean_linker_2, # of connection points: 2
#     Edge 28, Type (0, 0), BuildingBlock: XUDNAN_clean_linker_2, # of connection points: 2
#     Edge 29, Type (0, 0), BuildingBlock: XUDNAN_clean_linker_2, # of connection points: 2
#     Edge 30, Type (0, 0), BuildingBlock: XUDNAN_clean_linker_2, # of connection points: 2
#     Edge 31, Type (0, 0), BuildingBlock: XUDNAN_clean_linker_2, # of connection points: 2
#     Edge 32, Type (0, 0), BuildingBlock: XUDNAN_clean_linker_2, # of connection points: 2
#     Edge 33, Type (0, 0), BuildingBlock: XUDNAN_clean_linker_2, # of connection points: 2
#     Edge 34, Type (0, 0), BuildingBlock: XUDNAN_clean_linker_2, # of connection points: 2
#     Edge 35, Type (0, 0), BuildingBlock: XUDNAN_clean_linker_2, # of connection points: 2
#     Edge 36, Type (0, 0), BuildingBlock: XUDNAN_clean_linker_2, # of connection points: 2
#     Edge 37, Type (0, 0), BuildingBlock: XUDNAN_clean_linker_2, # of connection points: 2
#     Edge 38, Type (0, 0), BuildingBlock: XUDNAN_clean_linker_2, # of connection points: 2
#     Edge 39, Type (0, 0), BuildingBlock: XUDNAN_clean_linker_2, # of connection points: 2
#     Edge 40, Type (0, 0), BuildingBlock: XUDNAN_clean_linker_2, # of connection points: 2
#     Edge 41, Type (0, 0), BuildingBlock: XUDNAN_clean_linker_2, # of connection points: 2
#     Edge 42, Type (0, 0), BuildingBlock: XUDNAN_clean_linker_2, # of connection points: 2
#     Edge 43, Type (0, 0), BuildingBlock: XUDNAN_clean_linker_2, # of connection points: 2
#     Edge 44, Type (0, 0), BuildingBlock: XUDNAN_clean_linker_2, # of connection points: 2
#     Edge 45, Type (0, 0), BuildingBlock: XUDNAN_clean_linker_2, # of connection points: 2
#     Edge 46, Type (0, 0), BuildingBlock: XUDNAN_clean_linker_2, # of connection points: 2
#     Edge 47, Type (0, 0), BuildingBlock: XUDNAN_clean_linker_2, # of connection points: 2
# Relax obj value: 0.363
# Max RMSD: 0.262
# Mean RMSD: 0.262
data_MOF--net-wkh--node1-VOLQOD_clean_sbu_1--edge1-XUDNAN_clean_linker_2
_symmetry_space_group_name_H-M    P1
_symmetry_Int_Tables_number       1
_symmetry_cell_setting            triclinic
loop_
_symmetry_equiv_pos_as_xyz
'x, y, z'
_cell_length_a     27.451693
_cell_length_b     27.45344
_cell_length_c     88.199272
_cell_angle_alpha  90.00348
_cell_angle_beta   89.989209
_cell_angle_gamma 119.96185
loop_
_atom_site_label
_atom_site_type_symbol
_atom_site_fract_x
_atom_site_fract_y
_atom_site_fract_z
_atom_type_partial_charge
O0 O 0.1209 0.33017 0.04462 0.0
Zn1 Zn 0.13694 0.31531 0.02361 0.0
O2 O 0.21528 0.33627 0.02161 0.0
Zn3 Zn 0.22192 0.27251 0.01497 0.0
Zn4 Zn 0.25146 0.35956 0.04145 0.0
Zn5 Zn 0.25133 0.39613 0.0065 0.0
O6 O 0.25953 0.28491 0.99471 0.0
O7 O 0.27077 0.3674 0.98765 0.0
O8 O 0.08423 0.23384 0.01849 0.0
O9 O 0.14544 0.20558 0.01325 0.0
O10 O 0.26259 0.25108 0.02996 0.0
O11 O 0.26623 0.30023 0.05031 0.0
O12 O 0.32885 0.42675 0.03823 0.0
O13 O 0.11911 0.36276 0.01039 0.0
O14 O 0.32779 0.45427 0.01453 0.0
O15 O 0.19967 0.42635 -0.00018 0.0
C16 C 0.14993 0.35388 0.05638 0.0
C17 C 0.27475 0.32393 0.98494 0.0
C18 C 0.27333 0.26259 0.04395 0.0
C19 C 0.09518 0.19553 0.0148 0.0
C20 C 0.35372 0.45887 0.02695 0.0
C21 C 0.14695 0.40571 0.00206 0.0
O22 O 0.20258 0.37112 0.05689 0.0
O23 O 0.81513 0.13197 0.21662 0.0
Zn24 Zn 0.8374 0.14314 0.19462 0.0
O25 O 0.88205 0.22106 0.18918 0.0
Zn26 Zn 0.95545 0.23578 0.18272 0.0
Zn27 Zn 0.89014 0.26297 0.20737 0.0
Zn28 Zn 0.84703 0.24246 0.17306 0.0
O29 O 0.97748 0.27769 0.16297 0.0
O30 O 0.89427 0.25939 0.15392 0.0
O31 O 0.87223 0.09686 0.1884 0.0
O32 O 0.95206 0.1631 0.17837 0.0
O33 O 0.01434 0.27379 0.19903 0.0
O34 O 0.96498 0.28672 0.2169 0.0
O35 O 0.89077 0.33349 0.20191 0.0
O36 O 0.76659 0.11265 0.18342 0.0
O37 O 0.85781 0.32027 0.17832 0.0
O38 O 0.76421 0.17779 0.16903 0.0
C39 C 0.81041 0.16474 0.22597 0.0
C40 C 0.9469 0.27801 0.15214 0.0
C41 C 0.01043 0.2899 0.2123 0.0
C42 C 0.91797 0.11173 0.18137 0.0
C43 C 0.87843 0.35148 0.19004 0.0
C44 C 0.74082 0.12738 0.1742 0.0
O45 O 0.83188 0.21704 0.22315 0.0
O46 O 0.68103 0.80004 0.3788 0.0
Zn47 Zn 0.69108 0.82939 0.35771 0.0
O48 O 0.66751 0.88472 0.35621 0.0
Zn49 Zn 0.72922 0.95583 0.34988 0.0
Zn50 Zn 0.6427 0.89511 0.37614 0.0
Zn51 Zn 0.60992 0.86235 0.34047 0.0
O52 O 0.70993 0.98791 0.33222 0.0
O53 O 0.64006 0.91175 0.32163 0.0
O54 O 0.771 0.85922 0.35053 0.0
O55 O 0.79315 0.94566 0.34362 0.0
O56 O 0.75624 0.01323 0.36622 0.0
O57 O 0.70103 0.96871 0.38577 0.0
O58 O 0.575 0.90511 0.37262 0.0
O59 O 0.64128 0.76248 0.34518 0.0
O60 O 0.55176 0.8809 0.34843 0.0
O61 O 0.57946 0.78048 0.33389 0.0
C62 C 0.65447 0.80151 0.39046 0.0
C63 C 0.6767 0.96387 0.32121 0.0
C64 C 0.74223 0.01237 0.37998 0.0
C65 C 0.80519 0.90664 0.34467 0.0
C66 C 0.54502 0.9001 0.36098 0.0
C67 C 0.59883 0.74762 0.33665 0.0
O68 O 0.6324 0.83297 0.39101 0.0
O69 O 0.87001 0.68161 0.5497 0.0
Zn70 Zn 0.85768 0.69593 0.52837 0.0
O71 O 0.77948 0.66145 0.52369 0.0
Zn72 Zn 0.76207 0.7174 0.51665 0.0
Zn73 Zn 0.73842 0.63137 0.54239 0.0
Zn74 Zn 0.75938 0.60388 0.50799 0.0
O75 O 0.72418 0.69761 0.4965 0.0
O76 O 0.74153 0.63124 0.48823 0.0
O77 O 0.90136 0.7775 0.52305 0.0
O78 O 0.83334 0.78924 0.5134 0.0
O79 O 0.71835 0.73477 0.53182 0.0
O80 O 0.71843 0.68602 0.55186 0.0
O81 O 0.66558 0.56293 0.5366 0.0
O82 O 0.8907 0.65873 0.51687 0.0
O83 O 0.68347 0.53734 0.51415 0.0
O84 O 0.82426 0.58577 0.50431 0.0
C85 C 0.83845 0.64626 0.55961 0.0
C86 C 0.72397 0.66591 0.48594 0.0
C87 C 0.70861 0.72235 0.54581 0.0
C88 C 0.88486 0.80803 0.51657 0.0
C89 C 0.6501 0.53006 0.52517 0.0
C90 C 0.87555 0.6158 0.50858 0.0
O91 O 0.7851 0.61806 0.55807 0.0
O92 O 0.19685 0.87401 0.71485 0.0
Zn93 Zn 0.17076 0.8585 0.69306 0.0
O94 O 0.11762 0.77893 0.68993 0.0
Zn95 Zn 0.04564 0.76725 0.68337 0.0
Zn96 Zn 0.10613 0.74084 0.7092 0.0
Zn97 Zn 0.14417 0.74665 0.67448 0.0
O98 O 0.01968 0.72536 0.66387 0.0
O99 O 0.09647 0.72688 0.65547 0.0
O100 O 0.13802 0.90745 0.6866 0.0
O101 O 0.0526 0.84133 0.67958 0.0
O102 O 0.98554 0.72869 0.6989 0.0
O103 O 0.0323 0.7241 0.71882 0.0
O104 O 0.09797 0.6651 0.70526 0.0
O105 O 0.23965 0.88042 0.68054 0.0
O106 O 0.12914 0.66994 0.68171 0.0
O107 O 0.22529 0.80305 0.66841 0.0
C108 C 0.19609 0.8419 0.72541 0.0
C109 C 0.046 0.71589 0.6535 0.0
C110 C 0.98715 0.71721 0.71278 0.0
C111 C 0.08956 0.89283 0.68118 0.0
C112 C 0.10727 0.64225 0.69387 0.0
C113 C 0.25625 0.85523 0.6716 0.0
O114 O 0.16742 0.78846 0.72418 0.0
O115 O 0.31975 0.18914 0.88136 0.0
Zn116 Zn 0.30635 0.1625 0.85995 0.0
O117 O 0.34212 0.1202 0.85545 0.0
Zn118 Zn 0.28597 0.04531 0.85 0.0
Zn119 Zn 0.37799 0.11523 0.87368 0.0
Zn120 Zn 0.39454 0.15331 0.83844 0.0
O121 O 0.31104 0.01987 0.832 0.0
O122 O 0.3621 0.10124 0.8199 0.0
O123 O 0.22509 0.12339 0.85395 0.0
O124 O 0.21609 0.04511 0.84398 0.0
O125 O 0.26435 0.99075 0.86734 0.0
O126 O 0.32784 0.04313 0.88455 0.0
O127 O 0.44572 0.11085 0.86718 0.0
O128 O 0.34299 0.23187 0.84812 0.0
O129 O 0.46348 0.14629 0.8437 0.0
O130 O 0.4105 0.23509 0.83362 0.0
C131 C 0.35818 0.19716 0.89079 0.0
C132 C 0.33558 0.04743 0.82008 0.0
C133 C 0.28483 0.9972 0.88061 0.0
C134 C 0.19649 0.07749 0.84677 0.0
C135 C 0.47468 0.12427 0.85501 0.0
C136 C 0.38259 0.25772 0.83868 0.0
O137 O 0.3905 0.17668 0.88876 0.0
O138 O 0.67063 0.86756 0.78186 0.0
Zn139 Zn 0.69278 0.85883 0.8028 0.0
O140 O 0.66084 0.78108 0.80797 0.0
Zn141 Zn 0.71972 0.765 0.81287 0.0
Zn142 Zn 0.62233 0.73631 0.79028 0.0
Zn143 Zn 0.61113 0.76296 0.82567 0.0
O144 O 0.70339 0.72255 0.83229 0.0
O145 O 0.64565 0.74513 0.84405 0.0
O146 O 0.77641 0.90271 0.80578 0.0
O147 O 0.79161 0.83664 0.81536 0.0
O148 O 0.73509 0.72455 0.7963 0.0
O149 O 0.67041 0.71159 0.77931 0.0
O150 O 0.5556 0.6656 0.79782 0.0
O151 O 0.66125 0.89364 0.81612 0.0
O152 O 0.54155 0.68675 0.82129 0.0
O153 O 0.59622 0.82875 0.83107 0.0
C154 C 0.63377 0.83418 0.77249 0.0
C155 C 0.67714 0.72313 0.84412 0.0
C156 C 0.713 0.70798 0.7833 0.0
C157 C 0.80906 0.88741 0.81158 0.0
C158 C 0.52853 0.65189 0.8103 0.0
C159 C 0.62383 0.87962 0.82629 0.0
O160 O 0.6064 0.7811 0.77463 0.0
O161 O 0.79818 0.67974 0.95148 0.0
Zn162 Zn 0.82406 0.68952 0.97341 0.0
O163 O 0.87993 0.66662 0.97636 0.0
Zn164 Zn 0.95076 0.72876 0.98255 0.0
Zn165 Zn 0.89174 0.64075 0.95702 0.0
Zn166 Zn 0.85782 0.60987 0.99236 0.0
O167 O 0.98356 0.71078 0.00034 0.0
O168 O 0.90847 0.6401 0.01107 0.0
O169 O 0.85357 0.76988 0.98043 0.0
O170 O 0.93896 0.79172 0.98837 0.0
O171 O 0.00833 0.75598 0.96621 0.0
O172 O 0.96417 0.69887 0.94698 0.0
O173 O 0.90214 0.57472 0.9609 0.0
O174 O 0.75644 0.64011 0.98612 0.0
O175 O 0.8745 0.54957 0.98477 0.0
O176 O 0.77652 0.58233 0.99895 0.0
C177 C 0.8003 0.64924 0.94087 0.0
C178 C 0.96048 0.67728 0.01137 0.0
C179 C 0.00746 0.74103 0.95255 0.0
C180 C 0.90019 0.80386 0.98674 0.0
C181 C 0.89516 0.54362 0.97237 0.0
C182 C 0.74277 0.60012 0.99554 0.0
O183 O 0.82985 0.62543 0.94218 0.0
O184 O 0.12826 0.79849 0.11613 0.0
Zn185 Zn 0.13685 0.8249 0.1377 0.0
O186 O 0.21503 0.87762 0.14205 0.0
Zn187 Zn 0.22677 0.95184 0.14574 0.0
Zn188 Zn 0.25985 0.88287 0.12446 0.0
Zn189 Zn 0.23856 0.8543 0.16019 0.0
O190 O 0.27113 0.98542 0.1647 0.0
O191 O 0.25563 0.90952 0.17761 0.0
O192 O 0.08776 0.85905 0.142 0.0
O193 O 0.15259 0.94617 0.14832 0.0
O194 O 0.26282 0.00454 0.12832 0.0
O195 O 0.28101 0.95313 0.1125 0.0
O196 O 0.33313 0.89097 0.13177 0.0
O197 O 0.10926 0.75632 0.15066 0.0
O198 O 0.31474 0.86227 0.15583 0.0
O199 O 0.17856 0.77507 0.16689 0.0
C200 C 0.16208 0.79502 0.10687 0.0
C201 C 0.2742 0.96234 0.1769 0.0
C202 C 0.28082 0.99826 0.11562 0.0
C203 C 0.10152 0.90858 0.14631 0.0
C204 C 0.34831 0.88113 0.14454 0.0
C205 C 0.12923 0.74213 0.16172 0.0
O206 O 0.21488 0.81944 0.10955 0.0
O207 O 0.33054 0.12704 0.28406 0.0
Zn208 Zn 0.3156 0.13961 0.30584 0.0
O209 O 0.33602 0.21768 0.30909 0.0
Zn210 Zn 0.27116 0.22464 0.31373 0.0
Zn211 Zn 0.36683 0.25822 0.29023 0.0
Zn212 Zn 0.38891 0.25055 0.32607 0.0
O213 O 0.28052 0.26659 0.33295 0.0
O214 O 0.35334 0.26761 0.3442 0.0
O215 O 0.2333 0.08699 0.31071 0.0
O216 O 0.20475 0.14826 0.31568 0.0
O217 O 0.25246 0.26345 0.29759 0.0
O218 O 0.31195 0.27479 0.27916 0.0
O219 O 0.43205 0.33382 0.29529 0.0
O220 O 0.36238 0.12016 0.31935 0.0
O221 O 0.45029 0.32897 0.31967 0.0
O222 O 0.41639 0.19679 0.33305 0.0
C223 C 0.36172 0.16072 0.27372 0.0
C224 C 0.3128 0.27776 0.34432 0.0
C225 C 0.27034 0.27827 0.28416 0.0
C226 C 0.19481 0.098 0.31424 0.0
C227 C 0.45973 0.3568 0.30733 0.0
C228 C 0.40022 0.14581 0.32937 0.0
O229 O 0.38486 0.21384 0.27538 0.0
O230 O 0.19527 0.32825 0.44942 0.0
Zn231 Zn 0.16946 0.31047 0.47104 0.0
O232 O 0.12426 0.34284 0.47654 0.0
Zn233 Zn 0.04931 0.28479 0.48132 0.0
Zn234 Zn 0.11866 0.38226 0.45911 0.0
Zn235 Zn 0.15474 0.39105 0.49442 0.0
O236 O 0.02136 0.30305 0.50009 0.0
O237 O 0.10118 0.3562 0.51256 0.0
O238 O 0.13015 0.22742 0.47516 0.0
O239 O 0.04981 0.21405 0.48496 0.0
O240 O 0.99506 0.2672 0.46428 0.0
O241 O 0.04661 0.33394 0.44776 0.0
O242 O 0.11418 0.44867 0.46684 0.0
O243 O 0.23752 0.34393 0.48383 0.0
O244 O 0.1493 0.46123 0.49028 0.0
O245 O 0.23465 0.40487 0.49986 0.0
C246 C 0.20075 0.36709 0.44045 0.0
C247 C 0.04749 0.32741 0.51217 0.0
C248 C 0.00098 0.28993 0.45136 0.0
C249 C 0.08288 0.19598 0.48145 0.0
C250 C 0.12758 0.47503 0.47944 0.0
C251 C 0.25952 0.37964 0.49447 0.0
O252 O 0.17965 0.39816 0.44362 0.0
O253 O 0.87397 0.20049 0.61788 0.0
Zn254 Zn 0.85876 0.17258 0.63952 0.0
O255 O 0.7794 0.11849 0.64252 0.0
Zn256 Zn 0.768 0.04443 0.64745 0.0
Zn257 Zn 0.74037 0.11317 0.62379 0.0
Zn258 Zn 0.74834 0.14264 0.65881 0.0
O259 O 0.72546 0.01425 0.66714 0.0
O260 O 0.72884 0.09075 0.67669 0.0
O261 O 0.90782 0.13935 0.64503 0.0
O262 O 0.84285 0.05125 0.65033 0.0
O263 O 0.73114 0.98872 0.63039 0.0
O264 O 0.7207 0.04131 0.61306 0.0
O265 O 0.66556 0.10599 0.62839 0.0
O266 O 0.88118 0.23994 0.65271 0.0
O267 O 0.67132 0.12952 0.65268 0.0
O268 O 0.80473 0.22255 0.6658 0.0
C269 C 0.84211 0.20196 0.60759 0.0
C270 C 0.71674 0.03968 0.67798 0.0
C271 C 0.71691 0.99508 0.61712 0.0
C272 C 0.89407 0.08956 0.64907 0.0
C273 C 0.64318 0.11175 0.64041 0.0
C274 C 0.85649 0.25466 0.66237 0.0
O275 O 0.78871 0.17536 0.60909 0.0
H276 H 0.6484 0.59846 0.98493 0.0
H277 H 0.71259 0.55012 0.02358 0.0
H278 H 0.62298 0.51978 0.03719 0.0
H279 H 0.5695 0.64972 0.0055 0.0
H280 H 0.51179 0.62123 0.99226 0.0
H281 H 0.58171 0.64153 0.98583 0.0
H282 H 0.54623 0.54157 0.97498 0.0
H283 H 0.47612 0.52145 0.98108 0.0
H284 H 0.50829 0.48138 0.98716 0.0
H285 H 0.52621 0.4955 0.04657 0.0
H286 H 0.42544 0.46385 0.04938 0.0
H287 H 0.42382 0.52536 0.00412 0.0
C288 C 0.64367 0.58153 0.99628 0.0
C289 C 0.6876 0.57692 0.00324 0.0
C290 C 0.67943 0.5538 0.018 0.0
C291 C 0.62892 0.53705 0.02587 0.0
C292 C 0.58689 0.54325 0.01876 0.0
C293 C 0.5934 0.56393 0.00418 0.0
C294 C 0.54051 0.56267 0.99865 0.0
C295 C 0.55157 0.62235 0.99537 0.0
C296 C 0.51636 0.52448 0.98465 0.0
C297 C 0.50289 0.53759 0.01237 0.0
C298 C 0.53075 0.52768 0.02395 0.0
C299 C 0.50404 0.50311 0.03757 0.0
C300 C 0.44669 0.48563 0.0391 0.0
C301 C 0.41626 0.49195 0.02698 0.0
C302 C 0.44564 0.52028 0.01368 0.0
H303 H 0.05339 0.64431 0.14784 0.0
H304 H 0.12164 0.71605 0.1919 0.0
H305 H 0.05347 0.62617 0.20413 0.0
H306 H 0.90754 0.55686 0.15882 0.0
H307 H 0.89618 0.49892 0.14683 0.0
H308 H 0.94737 0.56984 0.14156 0.0
H309 H 0.02488 0.54235 0.13999 0.0
H310 H 0.97367 0.47121 0.14491 0.0
H311 H 0.03681 0.509 0.15604 0.0
H312 H 0.97762 0.52913 0.21146 0.0
H313 H 0.91381 0.427 0.21336 0.0
H314 H 0.89871 0.41603 0.16431 0.0
C315 C 0.05384 0.64103 0.16008 0.0
C316 C 0.09245 0.68712 0.16898 0.0
C317 C 0.09254 0.68112 0.1849 0.0
C318 C 0.05356 0.6305 0.19193 0.0
C319 C 0.01537 0.58615 0.18284 0.0
C320 C 0.01611 0.59047 0.16723 0.0
C321 C 0.97414 0.535 0.15998 0.0
C322 C 0.92861 0.54052 0.15128 0.0
C323 C 0.00417 0.5131 0.14963 0.0
C324 C 0.94992 0.49851 0.17396 0.0
C325 C 0.97336 0.5293 0.18702 0.0
C326 C 0.9591 0.50462 0.20131 0.0
C327 C 0.92244 0.44646 0.20226 0.0
C328 C 0.90111 0.41315 0.18898 0.0
C329 C 0.91338 0.44015 0.17469 0.0
H330 H 0.40473 0.0546 0.31867 0.0
H331 H 0.44757 0.16429 0.35779 0.0
H332 H 0.47898 0.10578 0.37138 0.0
H333 H 0.35472 0.92362 0.33865 0.0
H334 H 0.38541 0.89645 0.32545 0.0
H335 H 0.3641 0.94537 0.31907 0.0
H336 H 0.46455 0.01218 0.30886 0.0
H337 H 0.48573 0.96294 0.31493 0.0
H338 H 0.52391 0.03479 0.32138 0.0
H339 H 0.50529 0.03415 0.38067 0.0
H340 H 0.53812 0.96583 0.38346 0.0
H341 H 0.48036 0.90504 0.33782 0.0
C342 C 0.4206 0.06633 0.33012 0.0
C343 C 0.42336 0.11389 0.33722 0.0
C344 C 0.44522 0.1282 0.35212 0.0
C345 C 0.46264 0.09487 0.35997 0.0
C346 C 0.45841 0.04768 0.35271 0.0
C347 C 0.43883 0.03409 0.33801 0.0
C348 C 0.44192 0.98355 0.33236 0.0
C349 C 0.38302 0.93434 0.32867 0.0
C350 C 0.48138 0.99933 0.31858 0.0
C351 C 0.46653 0.9708 0.34615 0.0
C352 C 0.47492 0.00766 0.35786 0.0
C353 C 0.49882 0.00508 0.37156 0.0
C354 C 0.51696 0.96565 0.37308 0.0
C355 C 0.51188 0.92965 0.36089 0.0
C356 C 0.48448 0.9313 0.34745 0.0
H357 H 0.33562 0.46389 0.51392 0.0
H358 H 0.30878 0.31725 0.48827 0.0
H359 H 0.40124 0.33356 0.49597 0.0
H360 H 0.47847 0.54877 0.50461 0.0
H361 H 0.50056 0.58167 0.52293 0.0
H362 H 0.4294 0.55581 0.51671 0.0
H363 H 0.39252 0.49464 0.54095 0.0
H364 H 0.46378 0.52018 0.54718 0.0
H365 H 0.41613 0.44566 0.54537 0.0
H366 H 0.50042 0.37098 0.5034 0.0
H367 H 0.60026 0.42764 0.511 0.0
H368 H 0.56379 0.54667 0.53327 0.0
C369 C 0.34886 0.43475 0.51016 0.0
C370 C 0.31454 0.38946 0.5004 0.0
C371 C 0.33397 0.35262 0.49564 0.0
C372 C 0.38656 0.3612 0.50003 0.0
C373 C 0.4197 0.40653 0.50937 0.0
C374 C 0.40172 0.44257 0.51451 0.0
C375 C 0.44757 0.48991 0.52376 0.0
C376 C 0.46502 0.54742 0.51657 0.0
C377 C 0.42887 0.48743 0.5403 0.0
C378 C 0.49423 0.47554 0.52254 0.0
C379 C 0.47705 0.42705 0.51424 0.0
C380 C 0.51415 0.40827 0.51026 0.0
C381 C 0.5707 0.44055 0.51463 0.0
C382 C 0.58936 0.49053 0.52306 0.0
C383 C 0.55022 0.50742 0.52733 0.0
H384 H 0.94632 0.34958 0.65098 0.0
H385 H 0.84356 0.28282 0.69133 0.0
H386 H 0.90582 0.37166 0.70491 0.0
H387 H 0.08155 0.42919 0.66935 0.0
H388 H 0.10659 0.48753 0.65637 0.0
H389 H 0.05622 0.41766 0.65009 0.0
H390 H 0.98808 0.45218 0.64164 0.0
H391 H 0.03873 0.52224 0.64758 0.0
H392 H 0.96818 0.48877 0.65503 0.0
H393 H 0.97983 0.46764 0.71402 0.0
H394 H 0.04799 0.56856 0.71675 0.0
H395 H 0.09975 0.57427 0.66993 0.0
C396 C 0.93701 0.35363 0.6627 0.0
C397 C 0.89036 0.30924 0.67017 0.0
C398 C 0.87896 0.31641 0.6854 0.0
C399 C 0.91444 0.36644 0.69323 0.0
C400 C 0.96071 0.40903 0.6856 0.0
C401 C 0.97132 0.40354 0.67057 0.0
C402 C 0.02095 0.45717 0.6646 0.0
C403 C 0.06918 0.44727 0.65982 0.0
C404 C 0.00289 0.48153 0.65144 0.0
C405 C 0.03644 0.49402 0.67858 0.0
C406 C 0.00194 0.46504 0.69066 0.0
C407 C 0.00702 0.49072 0.70464 0.0
C408 C 0.04629 0.54818 0.70609 0.0
C409 C 0.07943 0.57982 0.69354 0.0
C410 C 0.07572 0.55151 0.6798 0.0
H411 H 0.53716 0.87227 0.84475 0.0
H412 H 0.68832 0.99132 0.82054 0.0
H413 H 0.67136 0.06781 0.82732 0.0
H414 H 0.45456 0.93199 0.83397 0.0
H415 H 0.41941 0.92156 0.85194 0.0
H416 H 0.44515 0.87551 0.84629 0.0
H417 H 0.50312 0.89884 0.8711 0.0
H418 H 0.47758 0.94515 0.87679 0.0
H419 H 0.55215 0.97115 0.87574 0.0
H420 H 0.63304 0.1302 0.83355 0.0
H421 H 0.57706 0.17486 0.8407 0.0
H422 H 0.45515 0.02027 0.86271 0.0
C423 C 0.56713 0.91454 0.84112 0.0
C424 C 0.61386 0.9251 0.832 0.0
C425 C 0.6518 0.98133 0.82741 0.0
C426 C 0.64281 0.02557 0.83125 0.0
C427 C 0.59602 0.01376 0.83992 0.0
C428 C 0.55905 0.9599 0.84499 0.0
C429 C 0.51087 0.95909 0.85367 0.0
C430 C 0.45416 0.91971 0.846 0.0
C431 C 0.51096 0.94258 0.87032 0.0
C432 C 0.52612 0.02034 0.8523 0.0
C433 C 0.5754 0.05109 0.84428 0.0
C434 C 0.59514 0.10709 0.84021 0.0
C435 C 0.56328 0.13221 0.84431 0.0
C436 C 0.51298 0.10168 0.85265 0.0
C437 C 0.49476 0.04532 0.85687 0.0
H438 H 0.53703 0.56339 0.79938 0.0
H439 H 0.43712 0.60479 0.82915 0.0
H440 H 0.38492 0.506 0.83782 0.0
H441 H 0.42637 0.4161 0.79012 0.0
H442 H 0.4758 0.39107 0.79076 0.0
H443 H 0.49881 0.46231 0.78498 0.0
H444 H 0.57554 0.49887 0.80577 0.0
H445 H 0.55235 0.42795 0.81179 0.0
H446 H 0.55547 0.4789 0.82524 0.0
H447 H 0.35062 0.40769 0.84499 0.0
H448 H 0.33377 0.31384 0.85071 0.0
H449 H 0.45906 0.3336 0.81729 0.0
C450 C 0.50263 0.55112 0.80728 0.0
C451 C 0.49002 0.59146 0.81334 0.0
C452 C 0.44662 0.5744 0.82418 0.0
C453 C 0.41693 0.51845 0.82917 0.0
C454 C 0.43165 0.48027 0.82334 0.0
C455 C 0.47334 0.49562 0.81261 0.0
C456 C 0.48456 0.44757 0.80939 0.0
C457 C 0.47054 0.42811 0.79283 0.0
C458 C 0.5456 0.46435 0.81328 0.0
C459 C 0.44331 0.40306 0.82022 0.0
C460 C 0.41298 0.42307 0.82795 0.0
C461 C 0.37362 0.39135 0.8389 0.0
C462 C 0.36457 0.3377 0.84206 0.0
C463 C 0.39489 0.31543 0.83442 0.0
C464 C 0.43497 0.34891 0.82329 0.0
H465 H 0.90376 0.48207 0.99581 0.0
H466 H 0.9566 0.5335 0.94932 0.0
H467 H 0.02681 0.50319 0.95172 0.0
H468 H 0.03477 0.52941 0.01095 0.0
H469 H 0.01567 0.47179 0.02387 0.0
H470 H 0.96391 0.48998 0.0181 0.0
H471 H 0.89843 0.38858 0.0084 0.0
H472 H 0.94925 0.36948 0.01456 0.0
H473 H 0.92529 0.35765 0.99517 0.0
H474 H 0.10197 0.48182 0.96055 0.0
H475 H 0.16348 0.45295 0.97371 0.0
H476 H 0.0586 0.41171 0.01379 0.0
C477 C 0.92857 0.48511 0.98594 0.0
C478 C 0.92451 0.51047 0.9724 0.0
C479 C 0.95855 0.51417 0.95983 0.0
C480 C 0.999 0.49742 0.9611 0.0
C481 C 0.00431 0.47598 0.97491 0.0
C482 C 0.96885 0.46812 0.98696 0.0
C483 C 0.98443 0.44586 0.00072 0.0
C484 C 0.00066 0.48671 0.0142 0.0
C485 C 0.9365 0.38688 0.00496 0.0
C486 C 0.03496 0.44382 0.99464 0.0
C487 C 0.04619 0.46179 0.97978 0.0
C488 C 0.09294 0.46661 0.9721 0.0
C489 C 0.128 0.45082 0.97969 0.0
C490 C 0.11554 0.42992 0.99469 0.0
C491 C 0.06877 0.42706 0.00225 0.0
H492 H 0.43679 0.97865 0.1338 0.0
H493 H 0.39495 0.83566 0.1629 0.0
H494 H 0.49316 0.88197 0.17194 0.0
H495 H 0.58559 0.01665 0.12507 0.0
H496 H 0.61013 0.09095 0.12603 0.0
H497 H 0.53941 0.04287 0.11983 0.0
H498 H 0.50101 0.08137 0.1406 0.0
H499 H 0.57137 0.12881 0.14707 0.0
H500 H 0.51951 0.07993 0.16015 0.0
H501 H 0.58987 0.94595 0.17992 0.0
H502 H 0.68316 0.02265 0.18623 0.0
H503 H 0.66594 0.12964 0.15277 0.0
C504 C 0.44903 0.95617 0.14159 0.0
C505 C 0.40871 0.90285 0.1474 0.0
C506 C 0.42546 0.87588 0.15813 0.0
C507 C 0.48105 0.90199 0.16334 0.0
C508 C 0.5192 0.95534 0.15783 0.0
C509 C 0.50431 0.98221 0.14714 0.0
C510 C 0.55238 0.04176 0.14429 0.0
C511 C 0.57311 0.04844 0.12783 0.0
C512 C 0.535 0.08553 0.14827 0.0
C513 C 0.59621 0.04448 0.15532 0.0
C514 C 0.57584 0.99373 0.16283 0.0
C515 C 0.60662 0.98559 0.17397 0.0
C516 C 0.65992 0.03001 0.17748 0.0
C517 C 0.68281 0.08281 0.16995 0.0
C518 C 0.65011 0.09005 0.15869 0.0
H519 H 0.51445 0.42516 0.33179 0.0
H520 H 0.47723 0.43017 0.28413 0.0
H521 H 0.50832 0.53081 0.28645 0.0
H522 H 0.46599 0.51127 0.34505 0.0
H523 H 0.52033 0.54808 0.35897 0.0
H524 H 0.50171 0.4778 0.35341 0.0
H525 H 0.60494 0.51129 0.34588 0.0
H526 H 0.62428 0.58145 0.35183 0.0
H527 H 0.64067 0.56933 0.3329 0.0
H528 H 0.52928 0.62735 0.29489 0.0
H529 H 0.55764 0.71804 0.30776 0.0
H530 H 0.58626 0.65165 0.34931 0.0
C531 C 0.51462 0.44771 0.3217 0.0
C532 C 0.49305 0.41927 0.30779 0.0
C533 C 0.49354 0.45064 0.29493 0.0
C534 C 0.51077 0.50793 0.29614 0.0
C535 C 0.52852 0.53377 0.31021 0.0
C536 C 0.53229 0.50516 0.32265 0.0
C537 C 0.55172 0.54252 0.33656 0.0
C538 C 0.50728 0.51846 0.34924 0.0
C539 C 0.6088 0.55171 0.34212 0.0
C540 C 0.55702 0.59604 0.33007 0.0
C541 C 0.54284 0.59004 0.31489 0.0
C542 C 0.5415 0.63292 0.30671 0.0
C543 C 0.55697 0.68396 0.31412 0.0
C544 C 0.57423 0.69171 0.32946 0.0
C545 C 0.5736 0.64689 0.33752 0.0
H546 H 0.03384 0.47152 0.46751 0.0
H547 H 0.16806 0.56059 0.50013 0.0
H548 H 0.11903 0.60895 0.50986 0.0
H549 H 0.99947 0.5858 0.46088 0.0
H550 H 0.9251 0.53647 0.45983 0.0
H551 H 0.97485 0.51577 0.45376 0.0
H552 H 0.92952 0.43131 0.47223 0.0
H553 H 0.8804 0.45227 0.47862 0.0
H554 H 0.92485 0.44368 0.49212 0.0
H555 H 0.05231 0.63864 0.51796 0.0
H556 H 0.97431 0.65456 0.5234 0.0
H557 H 0.87862 0.54474 0.48607 0.0
C558 C 0.05406 0.50294 0.47628 0.0
C559 C 0.10551 0.51323 0.48288 0.0
C560 C 0.12931 0.5528 0.49477 0.0
C561 C 0.1016 0.58024 0.5004 0.0
C562 C 0.04993 0.56736 0.49407 0.0
C563 C 0.02646 0.53011 0.48219 0.0
C564 C 0.96813 0.52038 0.47839 0.0
C565 C 0.96682 0.54084 0.46226 0.0
C566 C 0.92308 0.45822 0.48047 0.0
C567 C 0.96206 0.55722 0.49022 0.0
C568 C 0.01016 0.58401 0.49901 0.0
C569 C 0.01485 0.61869 0.511 0.0
C570 C 0.96985 0.62733 0.51398 0.0
C571 C 0.92004 0.60149 0.50505 0.0
C572 C 0.91596 0.56531 0.49306 0.0
H573 H 0.57625 0.09929 0.66512 0.0
H574 H 0.56848 0.05667 0.61741 0.0
H575 H 0.46802 0.9871 0.62016 0.0
H576 H 0.49269 0.96557 0.67852 0.0
H577 H 0.45621 0.9823 0.69276 0.0
H578 H 0.52571 0.03473 0.68687 0.0
H579 H 0.48991 0.10302 0.67979 0.0
H580 H 0.42051 0.05141 0.68607 0.0
H581 H 0.43077 0.07973 0.66715 0.0
H582 H 0.37312 0.91056 0.62906 0.0
H583 H 0.28447 0.84605 0.64242 0.0
H584 H 0.35173 0.94195 0.6838 0.0
C585 C 0.55308 0.07698 0.65509 0.0
C586 C 0.58075 0.08362 0.64105 0.0
C587 C 0.54861 0.05273 0.6283 0.0
C588 C 0.49141 0.01265 0.62975 0.0
C589 C 0.46643 0.00462 0.64396 0.0
C590 C 0.4957 0.03716 0.6563 0.0
C591 C 0.45935 0.01879 0.67043 0.0
C592 C 0.48504 0.99919 0.68287 0.0
C593 C 0.44954 0.06605 0.6762 0.0
C594 C 0.40572 0.96996 0.66418 0.0
C595 C 0.41083 0.96206 0.64892 0.0
C596 C 0.36817 0.91708 0.64093 0.0
C597 C 0.31828 0.88028 0.64863 0.0
C598 C 0.31129 0.88925 0.66408 0.0
C599 C 0.35582 0.93448 0.67193 0.0
H600 H 0.29164 0.23813 0.97542 0.0
H601 H 0.30982 0.39776 0.96106 0.0
H602 H 0.34544 0.38768 0.93628 0.0
H603 H 0.41668 0.25317 0.95542 0.0
H604 H 0.38238 0.17962 0.95055 0.0
H605 H 0.36333 0.2017 0.96772 0.0
H606 H 0.25906 0.15109 0.95919 0.0
H607 H 0.27772 0.12859 0.94209 0.0
H608 H 0.24122 0.1678 0.94099 0.0
H609 H 0.36856 0.35576 0.91233 0.0
H610 H 0.37686 0.30333 0.89064 0.0
H611 H 0.34802 0.16641 0.92058 0.0
C612 C 0.30375 0.27137 0.96715 0.0
C613 C 0.29786 0.31878 0.97022 0.0
C614 C 0.3139 0.36107 0.95901 0.0
C615 C 0.33448 0.35587 0.94492 0.0
C616 C 0.33934 0.30845 0.94224 0.0
C617 C 0.32463 0.267 0.95305 0.0
C618 C 0.33053 0.21855 0.94695 0.0
C619 C 0.37594 0.21296 0.95568 0.0
C620 C 0.27376 0.16327 0.94732 0.0
C621 C 0.3491 0.2384 0.93086 0.0
C622 C 0.35442 0.29067 0.92844 0.0
C623 C 0.36588 0.31551 0.91415 0.0
C624 C 0.37063 0.28559 0.90193 0.0
C625 C 0.36457 0.23182 0.90412 0.0
C626 C 0.35492 0.20843 0.91879 0.0
H627 H 0.0507 0.29924 0.14237 0.0
H628 H 0.90197 0.30386 0.12777 0.0
H629 H 0.94388 0.33504 0.10237 0.0
H630 H 0.15407 0.42084 0.12002 0.0
H631 H 0.19541 0.38822 0.11572 0.0
H632 H 0.15649 0.37199 0.13323 0.0
H633 H 0.10598 0.26586 0.12661 0.0
H634 H 0.14484 0.28172 0.10915 0.0
H635 H 0.06908 0.2422 0.10883 0.0
H636 H 0.99743 0.3572 0.07815 0.0
H637 H 0.05759 0.36585 0.05638 0.0
H638 H 0.17253 0.34784 0.0865 0.0
C639 C 0.02729 0.30775 0.13392 0.0
C640 C 0.97305 0.29932 0.1371 0.0
C641 C 0.9435 0.30998 0.12562 0.0
C642 C 0.96712 0.32802 0.11118 0.0
C643 C 0.02036 0.33532 0.10839 0.0
C644 C 0.05011 0.32551 0.11942 0.0
C645 C 0.10469 0.33243 0.11315 0.0
C646 C 0.15568 0.38129 0.121 0.0
C647 C 0.1062 0.27728 0.11452 0.0
C648 C 0.10034 0.34635 0.09676 0.0
C649 C 0.0516 0.34839 0.09433 0.0
C650 C 0.03609 0.35653 0.07994 0.0
C651 C 0.0705 0.36132 0.06765 0.0
C652 C 0.11996 0.35809 0.0698 0.0
C653 C 0.13571 0.35185 0.0846 0.0
H654 H 0.75913 0.0552 0.23575 0.0
H655 H 0.79649 0.22245 0.24938 0.0
H656 H 0.75431 0.18537 0.27442 0.0
H657 H 0.62465 0.97654 0.25693 0.0
H658 H 0.63843 0.9208 0.26182 0.0
H659 H 0.66523 0.95892 0.24432 0.0
H660 H 0.76616 0.98351 0.25196 0.0
H661 H 0.73973 0.94552 0.26943 0.0
H662 H 0.79464 0.01819 0.2698 0.0
H663 H 0.72016 0.1337 0.29877 0.0
H664 H 0.695 0.07024 0.32083 0.0
H665 H 0.67606 0.93538 0.29141 0.0
C666 C 0.75755 0.08393 0.24389 0.0
C667 C 0.78113 0.14181 0.24057 0.0
C668 C 0.77862 0.17796 0.25161 0.0
C669 C 0.75454 0.15725 0.26586 0.0
C670 C 0.73259 0.10021 0.26884 0.0
C671 C 0.73347 0.06392 0.25814 0.0
C672 C 0.71083 0.00534 0.26459 0.0
C673 C 0.65655 0.96289 0.25643 0.0
C674 C 0.75551 0.98711 0.26391 0.0
C675 C 0.69901 0.01484 0.28077 0.0
C676 C 0.7114 0.0698 0.28291 0.0
C677 C 0.70913 0.0903 0.29717 0.0
C678 C 0.69496 0.05406 0.30962 0.0
C679 C 0.68284 0.99792 0.3077 0.0
C680 C 0.68357 0.97768 0.29306 0.0
H681 H 0.65374 0.82381 0.42092 0.0
H682 H 0.65125 0.70119 0.38944 0.0
H683 H 0.66063 0.64834 0.41073 0.0
H684 H 0.75881 0.82952 0.44415 0.0
H685 H 0.73001 0.8369 0.4618 0.0
H686 H 0.71478 0.86098 0.44442 0.0
H687 H 0.6079 0.79813 0.44934 0.0
H688 H 0.62282 0.77419 0.46683 0.0
H689 H 0.579 0.72395 0.45269 0.0
H690 H 0.68083 0.61441 0.43496 0.0
H691 H 0.70794 0.60077 0.46067 0.0
H692 H 0.6981 0.74548 0.47647 0.0
C693 C 0.65338 0.7849 0.4186 0.0
C694 C 0.65128 0.76632 0.40355 0.0
C695 C 0.65266 0.71609 0.40089 0.0
C696 C 0.65787 0.68568 0.41291 0.0
C697 C 0.66172 0.70597 0.42758 0.0
C698 C 0.65917 0.7542 0.43051 0.0
C699 C 0.66894 0.7693 0.44719 0.0
C700 C 0.72124 0.82762 0.44952 0.0
C701 C 0.61653 0.76619 0.45444 0.0
C702 C 0.67859 0.72285 0.45305 0.0
C703 C 0.67379 0.68649 0.44159 0.0
C704 C 0.68393 0.64214 0.4441 0.0
C705 C 0.69951 0.63481 0.45872 0.0
C706 C 0.70493 0.67175 0.47064 0.0
C707 C 0.69376 0.71599 0.46769 0.0
H708 H 0.81647 0.65103 0.58969 0.0
H709 H 0.92569 0.62728 0.55884 0.0
H710 H 0.98505 0.63092 0.58032 0.0
H711 H 0.92266 0.75285 0.61109 0.0
H712 H 0.88773 0.73196 0.62919 0.0
H713 H 0.84693 0.7158 0.61209 0.0
H714 H 0.7937 0.61003 0.61913 0.0
H715 H 0.83393 0.62594 0.63641 0.0
H716 H 0.83293 0.57505 0.62331 0.0
H717 H 0.03956 0.65038 0.6042 0.0
H718 H 0.08521 0.68335 0.62913 0.0
H719 H 0.94245 0.69746 0.64456 0.0
C720 C 0.85155 0.64426 0.58764 0.0
C721 C 0.86615 0.63773 0.57276 0.0
C722 C 0.91366 0.63151 0.57026 0.0
C723 C 0.94751 0.63347 0.58237 0.0
C724 C 0.93341 0.64204 0.59689 0.0
C725 C 0.88641 0.64704 0.59962 0.0
C726 C 0.88463 0.66273 0.616 0.0
C727 C 0.88557 0.71918 0.61715 0.0
C728 C 0.83324 0.61561 0.6242 0.0
C729 C 0.93882 0.66763 0.62185 0.0
C730 C 0.96585 0.65468 0.61071 0.0
C731 C 0.01839 0.65974 0.61312 0.0
C732 C 0.04413 0.6788 0.62729 0.0
C733 C 0.01747 0.69293 0.63883 0.0
C734 C 0.96379 0.68651 0.63605 0.0
H735 H 0.32511 0.07364 0.79058 0.0
H736 H 0.33 0.94621 0.81854 0.0
H737 H 0.30501 0.88348 0.79639 0.0
H738 H 0.20583 0.98243 0.77069 0.0
H739 H 0.22729 0.01766 0.75264 0.0
H740 H 0.25523 0.05686 0.76988 0.0
H741 H 0.35671 0.09139 0.76045 0.0
H742 H 0.32906 0.05265 0.74307 0.0
H743 H 0.37646 0.04075 0.75455 0.0
H744 H 0.26716 0.82991 0.77251 0.0
H745 H 0.2213 0.78971 0.74802 0.0
H746 H 0.24005 0.95094 0.7352 0.0
C747 C 0.32283 0.03333 0.79186 0.0
C748 C 0.32994 0.01487 0.80621 0.0
C749 C 0.32485 0.96113 0.80762 0.0
C750 C 0.31084 0.92527 0.7951 0.0
C751 C 0.30204 0.94372 0.78122 0.0
C752 C 0.30823 0.99661 0.77946 0.0
C753 C 0.29089 0.00372 0.76365 0.0
C754 C 0.2419 0.01586 0.76426 0.0
C755 C 0.3413 0.04987 0.75491 0.0
C756 C 0.27235 0.94606 0.75704 0.0
C757 C 0.27976 0.91236 0.76731 0.0
C758 C 0.26205 0.85614 0.76425 0.0
C759 C 0.23578 0.8336 0.75033 0.0
C760 C 0.22734 0.86717 0.73963 0.0
C761 C 0.24666 0.92437 0.74302 0.0
H762 H 0.6814 0.75644 0.87387 0.0
H763 H 0.69055 0.63207 0.84554 0.0
H764 H 0.71226 0.59288 0.86796 0.0
H765 H 0.79743 0.7853 0.89624 0.0
H766 H 0.76958 0.79481 0.9138 0.0
H767 H 0.74616 0.80808 0.89603 0.0
H768 H 0.64284 0.73743 0.90321 0.0
H769 H 0.666 0.72404 0.92106 0.0
H770 H 0.62351 0.66655 0.90845 0.0
H771 H 0.74249 0.57323 0.8925 0.0
H772 H 0.78139 0.57534 0.91781 0.0
H773 H 0.75503 0.71316 0.93071 0.0
C774 C 0.68645 0.72 0.87252 0.0
C775 C 0.68386 0.69693 0.85801 0.0
C776 C 0.6923 0.65029 0.85656 0.0
C777 C 0.70438 0.62755 0.86924 0.0
C778 C 0.7081 0.65199 0.88333 0.0
C779 C 0.69938 0.69713 0.8851 0.0
C780 C 0.71131 0.71866 0.9013 0.0
C781 C 0.75895 0.78036 0.90187 0.0
C782 C 0.65771 0.71121 0.90896 0.0
C783 C 0.72954 0.67959 0.90818 0.0
C784 C 0.72655 0.641 0.89763 0.0
C785 C 0.74433 0.60272 0.90094 0.0
C786 C 0.76656 0.60438 0.91535 0.0
C787 C 0.77111 0.64421 0.9263 0.0
C788 C 0.75136 0.68163 0.92269 0.0
H789 H 0.93232 0.66728 0.04158 0.0
H790 H 0.06922 0.7024 0.01082 0.0
H791 H 0.13329 0.72349 0.03254 0.0
H792 H 0.01076 0.7794 0.06538 0.0
H793 H 0.97706 0.74441 0.0828 0.0
H794 H 0.93932 0.72175 0.06518 0.0
H795 H 0.92004 0.62048 0.06996 0.0
H796 H 0.95771 0.64288 0.08767 0.0
H797 H 0.97811 0.60891 0.07358 0.0
H798 H 0.18504 0.75155 0.0571 0.0
H799 H 0.22146 0.78831 0.08265 0.0
H800 H 0.05198 0.73802 0.09758 0.0
C801 C 0.97533 0.67764 0.03951 0.0
C802 C 0.99582 0.68264 0.02458 0.0
C803 C 0.05278 0.69815 0.02221 0.0
C804 C 0.0894 0.7099 0.03447 0.0
C805 C 0.06851 0.70624 0.04906 0.0
C806 C 0.0128 0.69048 0.05166 0.0
C807 C 0.00281 0.69632 0.06829 0.0
C808 C 0.98124 0.73795 0.07054 0.0
C809 C 0.96226 0.63871 0.07529 0.0
C810 C 0.06185 0.71962 0.07449 0.0
C811 C 0.09888 0.72394 0.06327 0.0
C812 C 0.15632 0.74761 0.06605 0.0
C813 C 0.17665 0.76844 0.08061 0.0
C814 C 0.13971 0.76606 0.09217 0.0
C815 C 0.0814 0.74014 0.08907 0.0
H816 H 0.25242 0.93413 0.20711 0.0
H817 H 0.35539 0.0725 0.17682 0.0
H818 H 0.39744 0.13538 0.19878 0.0
H819 H 0.22002 0.01363 0.23199 0.0
H820 H 0.22112 0.9778 0.249 0.0
H821 H 0.20445 0.94164 0.23109 0.0
H822 H 0.28481 0.91928 0.23502 0.0
H823 H 0.30186 0.95565 0.25296 0.0
H824 H 0.35524 0.97587 0.23858 0.0
H825 H 0.42335 0.18494 0.22356 0.0
H826 H 0.42667 0.21983 0.24947 0.0
H827 H 0.30496 0.05063 0.26399 0.0
C828 C 0.28465 0.97738 0.20516 0.0
C829 C 0.30096 0.9984 0.19028 0.0
C830 C 0.34225 0.05556 0.18813 0.0
C831 C 0.36668 0.09152 0.20053 0.0
C832 C 0.3492 0.06983 0.21505 0.0
C833 C 0.30893 0.01421 0.21745 0.0
C834 C 0.2939 0.00314 0.23413 0.0
C835 C 0.23116 0.98288 0.2367 0.0
C836 C 0.30992 0.96098 0.24055 0.0
C837 C 0.33102 0.06148 0.24063 0.0
C838 C 0.36327 0.099 0.22944 0.0
C839 C 0.39873 0.15589 0.23246 0.0
C840 C 0.40029 0.1753 0.24725 0.0
C841 C 0.36619 0.13806 0.25883 0.0
C842 C 0.33209 0.08014 0.25548 0.0
H843 H 0.32517 0.26244 0.37466 0.0
H844 H 0.27841 0.35458 0.34357 0.0
H845 H 0.25665 0.39753 0.36518 0.0
H846 H 0.21434 0.22704 0.39985 0.0
H847 H 0.25341 0.23283 0.41684 0.0
H848 H 0.27381 0.21609 0.39908 0.0
H849 H 0.37432 0.3013 0.40227 0.0
H850 H 0.35409 0.3184 0.42006 0.0
H851 H 0.38359 0.37041 0.40524 0.0
H852 H 0.23264 0.42467 0.38984 0.0
H853 H 0.20089 0.42815 0.41579 0.0
H854 H 0.25908 0.31545 0.43101 0.0
C855 C 0.31162 0.29267 0.37247 0.0
C856 C 0.30387 0.30562 0.35749 0.0
C857 C 0.2846 0.34416 0.35499 0.0
C858 C 0.27252 0.36908 0.36718 0.0
C859 C 0.27952 0.35476 0.38183 0.0
C860 C 0.29829 0.31722 0.38455 0.0
C861 C 0.29624 0.30446 0.40134 0.0
C862 C 0.25711 0.24138 0.40445 0.0
C863 C 0.3556 0.32487 0.40759 0.0
C864 C 0.27192 0.33938 0.40751 0.0
C865 C 0.26376 0.36903 0.39611 0.0
C866 C 0.23934 0.40212 0.39891 0.0
C867 C 0.22151 0.40392 0.41371 0.0
C868 C 0.22744 0.37213 0.42547 0.0
C869 C 0.25415 0.3405 0.42231 0.0
H870 H 0.07336 0.32111 0.54207 0.0
H871 H 0.94398 0.31682 0.51293 0.0
H872 H 0.88123 0.29501 0.53496 0.0
H873 H 0.98295 0.20473 0.56368 0.0
H874 H 0.01882 0.23093 0.5815 0.0
H875 H 0.05723 0.25496 0.564 0.0
H876 H 0.09091 0.3582 0.57154 0.0
H877 H 0.05267 0.33443 0.58914 0.0
H878 H 0.03981 0.37847 0.57653 0.0
H879 H 0.82878 0.26364 0.55923 0.0
H880 H 0.78946 0.22337 0.58428 0.0
H881 H 0.95153 0.24612 0.59799 0.0
C882 C 0.03243 0.31716 0.54046 0.0
C883 C 0.01362 0.32105 0.52584 0.0
C884 C 0.95919 0.31403 0.52405 0.0
C885 C 0.92333 0.30191 0.5365 0.0
C886 C 0.94237 0.29678 0.5507 0.0
C887 C 0.99564 0.30427 0.5528 0.0
C888 C 0.00345 0.291 0.56901 0.0
C889 C 0.01635 0.24252 0.56957 0.0
C890 C 0.04944 0.34368 0.57703 0.0
C891 C 0.9458 0.27337 0.57552 0.0
C892 C 0.91154 0.27781 0.56481 0.0
C893 C 0.8554 0.26071 0.5678 0.0
C894 C 0.83339 0.23772 0.58207 0.0
C895 C 0.86735 0.23175 0.59317 0.0
C896 C 0.92458 0.25079 0.58986 0.0
H897 H 0.6471 0.81238 0.74306 0.0
H898 H 0.60626 0.9157 0.77146 0.0
H899 H 0.61152 0.97273 0.74921 0.0
H900 H 0.75041 0.92132 0.72305 0.0
H901 H 0.73689 0.88667 0.70491 0.0
H902 H 0.71764 0.84581 0.72205 0.0
H903 H 0.61464 0.78746 0.71278 0.0
H904 H 0.63373 0.82763 0.69544 0.0
H905 H 0.57742 0.82299 0.70701 0.0
H906 H 0.63505 0.02659 0.72529 0.0
H907 H 0.67356 0.07362 0.70088 0.0
H908 H 0.70286 0.93795 0.68766 0.0
C909 C 0.63673 0.84539 0.74436 0.0
C910 C 0.62474 0.85901 0.75879 0.0
C911 C 0.61426 0.90418 0.76037 0.0
C912 C 0.61722 0.93672 0.74782 0.0
C913 C 0.63123 0.92376 0.73379 0.0
C914 C 0.64048 0.87898 0.73193 0.0
C915 C 0.66186 0.87866 0.71607 0.0
C916 C 0.72015 0.88342 0.71656 0.0
C917 C 0.61936 0.82606 0.70731 0.0
C918 C 0.66517 0.93137 0.70957 0.0
C919 C 0.64645 0.95613 0.71992 0.0
C920 C 0.64896 0.00716 0.71698 0.0
C921 C 0.67135 0.03376 0.70311 0.0
C922 C 0.6913 0.00955 0.69233 0.0
C923 C 0.68744 0.95726 0.69558 0.0
H924 H 0.27041 0.09242 0.11674 0.0
H925 H 0.32605 0.00207 0.08762 0.0
H926 H 0.34143 0.06834 0.06684 0.0
H927 H 0.19207 0.1131 0.08989 0.0
H928 H 0.20898 0.18241 0.09605 0.0
H929 H 0.21095 0.13388 0.10937 0.0
H930 H 0.31434 0.20634 0.116 0.0
H931 H 0.3126 0.25539 0.10273 0.0
H932 H 0.36598 0.23574 0.10108 0.0
H933 H 0.33814 0.13533 0.04836 0.0
H934 H 0.31839 0.19981 0.0336 0.0
H935 H 0.26598 0.24752 0.07476 0.0
C936 C 0.28731 0.08741 0.10614 0.0
C937 C 0.29722 0.04211 0.10384 0.0
C938 C 0.31831 0.03651 0.08968 0.0
C939 C 0.32735 0.07406 0.07781 0.0
C940 C 0.31555 0.11722 0.08032 0.0
C941 C 0.29646 0.12442 0.09417 0.0
C942 C 0.28216 0.17101 0.09353 0.0
C943 C 0.21986 0.14874 0.09743 0.0
C944 C 0.32111 0.22003 0.10395 0.0
C945 C 0.2942 0.18746 0.077 0.0
C946 C 0.31404 0.15637 0.06963 0.0
C947 C 0.3237 0.16072 0.05406 0.0
C948 C 0.3121 0.19726 0.04576 0.0
C949 C 0.29106 0.22897 0.05305 0.0
C950 C 0.28309 0.22469 0.06892 0.0
H951 H 0.09883 0.2697 0.21099 0.0
H952 H 0.0266 0.34893 0.23848 0.0
H953 H 0.09563 0.36639 0.25859 0.0
H954 H 0.11597 0.19638 0.23977 0.0
H955 H 0.18176 0.20384 0.23341 0.0
H956 H 0.1342 0.20678 0.21992 0.0
H957 H 0.21262 0.30433 0.21071 0.0
H958 H 0.26075 0.30153 0.22411 0.0
H959 H 0.24876 0.36037 0.22423 0.0
H960 H 0.15999 0.36104 0.27714 0.0
H961 H 0.21906 0.33649 0.29279 0.0
H962 H 0.25253 0.26275 0.25349 0.0
C963 C 0.09885 0.29247 0.22102 0.0
C964 C 0.05751 0.30823 0.22313 0.0
C965 C 0.05791 0.33656 0.23659 0.0
C966 C 0.09712 0.34689 0.24806 0.0
C967 C 0.13598 0.32902 0.24588 0.0
C968 C 0.13767 0.30294 0.23264 0.0
C969 C 0.17988 0.28275 0.23384 0.0
C970 C 0.15122 0.21865 0.23161 0.0
C971 C 0.22839 0.31413 0.22255 0.0
C972 C 0.19972 0.29937 0.25004 0.0
C973 C 0.17427 0.32661 0.25669 0.0
C974 C 0.18128 0.34102 0.27199 0.0
C975 C 0.21462 0.32664 0.28079 0.0
C976 C 0.24076 0.29839 0.27427 0.0
C977 C 0.23414 0.28565 0.25863 0.0
H978 H 0.75728 0.02008 0.41089 0.0
H979 H 0.80273 0.11983 0.36971 0.0
H980 H 0.86439 0.20497 0.38444 0.0
H981 H 0.76397 0.13043 0.43706 0.0
H982 H 0.79465 0.1101 0.45209 0.0
H983 H 0.74719 0.05824 0.43878 0.0
H984 H 0.8229 0.03138 0.43233 0.0
H985 H 0.87039 0.08295 0.44561 0.0
H986 H 0.89149 0.08532 0.42614 0.0
H987 H 0.92865 0.27677 0.40277 0.0
H988 H 0.99433 0.3299 0.42344 0.0
H989 H 0.90868 0.18418 0.45286 0.0
C990 C 0.77912 0.06012 0.40507 0.0
C991 C 0.77503 0.06349 0.38919 0.0
C992 C 0.80532 0.11634 0.38188 0.0
C993 C 0.84015 0.16502 0.39016 0.0
C994 C 0.84428 0.16022 0.40574 0.0
C995 C 0.81467 0.10919 0.41316 0.0
C996 C 0.83126 0.11473 0.42973 0.0
C997 C 0.78128 0.10267 0.44002 0.0
C998 C 0.85546 0.07634 0.43367 0.0
C999 C 0.87613 0.1763 0.43028 0.0
C1000 C 0.88222 0.20195 0.41639 0.0
C1001 C 0.92375 0.25749 0.41378 0.0
C1002 C 0.96094 0.2873 0.42559 0.0
C1003 C 0.95655 0.26136 0.43979 0.0
C1004 C 0.91263 0.20556 0.44222 0.0
H1005 H 0.7235 0.74065 0.57641 0.0
H1006 H 0.65648 0.77988 0.53664 0.0
H1007 H 0.63952 0.84539 0.55184 0.0
H1008 H 0.63097 0.75564 0.60521 0.0
H1009 H 0.68764 0.78792 0.61872 0.0
H1010 H 0.68506 0.73665 0.60548 0.0
H1011 H 0.78543 0.80827 0.59626 0.0
H1012 H 0.78821 0.8598 0.60934 0.0
H1013 H 0.79979 0.87607 0.58941 0.0
H1014 H 0.64193 0.91534 0.5701 0.0
H1015 H 0.66352 0.98546 0.59022 0.0
H1016 H 0.73018 0.9023 0.61827 0.0
C1017 C 0.70347 0.76158 0.57104 0.0
C1018 C 0.69076 0.75481 0.55538 0.0
C1019 C 0.66627 0.78427 0.54863 0.0
C1020 C 0.65628 0.82139 0.55719 0.0
C1021 C 0.67097 0.82854 0.57248 0.0
C1022 C 0.69377 0.79928 0.57939 0.0
C1023 C 0.71154 0.81923 0.59553 0.0
C1024 C 0.67671 0.77204 0.60691 0.0
C1025 C 0.77499 0.84221 0.59775 0.0
C1026 C 0.6971 0.86569 0.59641 0.0
C1027 C 0.67293 0.8697 0.58307 0.0
C1028 C 0.6599 0.91204 0.5807 0.0
C1029 C 0.67259 0.95185 0.59218 0.0
C1030 C 0.69832 0.94925 0.60585 0.0
C1031 C 0.70965 0.90486 0.60806 0.0
H1032 H 0.97999 0.72637 0.74356 0.0
H1033 H 0.87894 0.66659 0.7027 0.0
H1034 H 0.79408 0.64409 0.71749 0.0
H1035 H 0.87029 0.62558 0.77066 0.0
H1036 H 0.89145 0.67879 0.78511 0.0
H1037 H 0.94264 0.68087 0.77192 0.0
H1038 H 0.96972 0.78255 0.76434 0.0
H1039 H 0.91873 0.78073 0.77745 0.0
H1040 H 0.91577 0.79663 0.75776 0.0
H1041 H 0.72321 0.64016 0.73565 0.0
H1042 H 0.67153 0.65717 0.75589 0.0
H1043 H 0.81811 0.72006 0.78507 0.0
C1044 C 0.93972 0.70694 0.73784 0.0
C1045 C 0.93591 0.69783 0.72202 0.0
C1046 C 0.88275 0.67383 0.71483 0.0
C1047 C 0.83425 0.66057 0.72315 0.0
C1048 C 0.83956 0.67147 0.73865 0.0
C1049 C 0.89088 0.69396 0.74597 0.0
C1050 C 0.8861 0.70754 0.76236 0.0
C1051 C 0.89834 0.671 0.77315 0.0
C1052 C 0.92485 0.77059 0.76566 0.0
C1053 C 0.82466 0.69126 0.76291 0.0
C1054 C 0.79836 0.6696 0.7492 0.0
C1055 C 0.74296 0.65606 0.74654 0.0
C1056 C 0.714 0.66604 0.7581 0.0
C1057 C 0.74063 0.68964 0.7721 0.0
C1058 C 0.79621 0.70101 0.77461 0.0
H1059 H 0.01384 0.75631 0.92166 0.0
H1060 H 0.1153 0.80057 0.9625 0.0
H1061 H 0.20012 0.86125 0.94752 0.0
H1062 H 0.12188 0.76121 0.89498 0.0
H1063 H 0.10172 0.79271 0.88012 0.0
H1064 H 0.05003 0.74578 0.89355 0.0
H1065 H 0.02538 0.82281 0.90034 0.0
H1066 H 0.0768 0.86977 0.88694 0.0
H1067 H 0.08048 0.89094 0.90645 0.0
H1068 H 0.27153 0.92416 0.92905 0.0
H1069 H 0.32476 0.98926 0.90832 0.0
H1070 H 0.17774 0.90651 0.87925 0.0
C1071 C 0.05418 0.77771 0.92734 0.0
C1072 C 0.0582 0.77353 0.9432 0.0
C1073 C 0.11137 0.80326 0.95035 0.0
C1074 C 0.15984 0.83749 0.94193 0.0
C1075 C 0.15444 0.84167 0.92637 0.0
C1076 C 0.10304 0.81276 0.91911 0.0
C1077 C 0.10811 0.82948 0.90255 0.0
C1078 C 0.09464 0.77929 0.89219 0.0
C1079 C 0.07048 0.85476 0.89886 0.0
C1080 C 0.16995 0.87354 0.90181 0.0
C1081 C 0.196 0.87909 0.91562 0.0
C1082 C 0.25191 0.91972 0.9181 0.0
C1083 C 0.28175 0.95661 0.90626 0.0
C1084 C 0.25552 0.95286 0.89214 0.0
C1085 C 0.19926 0.90984 0.88982 0.0
H1086 H 0.09881 0.10175 0.02136 0.0
H1087 H 0.98976 0.15894 0.00289 0.0
H1088 H 0.91956 0.06045 0.99611 0.0
H1089 H 0.07955 0.00777 0.99376 0.0
H1090 H 0.081 0.95613 0.00608 0.0
H1091 H 0.1172 0.02889 0.01149 0.0
H1092 H 0.06116 0.00378 0.03671 0.0
H1093 H 0.02492 0.93059 0.03142 0.0
H1094 H 0.98539 0.96467 0.03626 0.0
H1095 H 0.86869 0.95671 0.98807 0.0
H1096 H 0.84148 0.85926 0.98052 0.0
H1097 H 0.98491 0.87403 0.00526 0.0
C1098 C 0.05961 0.09342 0.01616 0.0
C1099 C 0.0495 0.13747 0.01254 0.0
C1100 C 0.99786 0.12531 0.0058 0.0
C1101 C 0.95792 0.06965 0.00193 0.0
C1102 C 0.97013 0.02713 0.00524 0.0
C1103 C 0.01949 0.03859 0.01245 0.0
C1104 C 0.02535 0.98708 0.01384 0.0
C1105 C 0.07891 0.9955 0.0058 0.0
C1106 C 0.0241 0.97056 0.03055 0.0
C1107 C 0.97293 0.94512 0.00562 0.0
C1108 C 0.94094 0.96831 0.00088 0.0
C1109 C 0.89288 0.93788 0.992 0.0
C1110 C 0.8778 0.88269 0.98774 0.0
C1111 C 0.9112 0.8592 0.99226 0.0
C1112 C 0.95843 0.89066 0.00159 0.0
H1113 H 0.11427 0.01213 0.14385 0.0
H1114 H 0.99274 0.84054 0.15617 0.0
H1115 H 0.92744 0.87241 0.16512 0.0
H1116 H 0.09723 0.07571 0.17511 0.0
H1117 H 0.10549 0.13705 0.16534 0.0
H1118 H 0.13826 0.09942 0.15795 0.0
H1119 H 0.08762 0.08629 0.13219 0.0
H1120 H 0.05529 0.12477 0.13941 0.0
H1121 H 0.0122 0.05515 0.13177 0.0
H1122 H 0.88144 0.92666 0.17563 0.0
H1123 H 0.85653 0.99651 0.18503 0.0
H1124 H 0.01059 0.13062 0.16547 0.0
C1125 C 0.07343 0.98097 0.14815 0.0
C1126 C 0.05838 0.92403 0.14941 0.0
C1127 C 0.00467 0.88439 0.15504 0.0
C1128 C 0.96754 0.90216 0.16018 0.0
C1129 C 0.98479 0.95931 0.15932 0.0
C1130 C 0.03621 0.99784 0.15319 0.0
C1131 C 0.04701 0.05721 0.15432 0.0
C1132 C 0.10011 0.09449 0.16374 0.0
C1133 C 0.05071 0.08231 0.13848 0.0
C1134 C 0.99446 0.04656 0.16252 0.0
C1135 C 0.95867 0.99 0.16523 0.0
C1136 C 0.90881 0.97097 0.17336 0.0
C1137 C 0.8952 0.01092 0.17873 0.0
C1138 C 0.93163 0.06903 0.176 0.0
C1139 C 0.98165 0.08659 0.16774 0.0
H1140 H 0.10112 0.1026 0.30827 0.0
H1141 H 0.15782 0.99203 0.32592 0.0
H1142 H 0.05961 0.92291 0.33326 0.0
H1143 H 0.01108 0.08549 0.33673 0.0
H1144 H 0.95849 0.08775 0.32499 0.0
H1145 H 0.03054 0.12279 0.31893 0.0
H1146 H 0.00161 0.06629 0.29377 0.0
H1147 H 0.92909 0.03132 0.2997 0.0
H1148 H 0.96136 0.99057 0.29435 0.0
H1149 H 0.95658 0.87319 0.3419 0.0
H1150 H 0.86014 0.84712 0.35014 0.0
H1151 H 0.8751 0.99218 0.32626 0.0
C1152 C 0.09273 0.06326 0.31338 0.0
C1153 C 0.13665 0.05246 0.31662 0.0
C1154 C 0.12434 0.00066 0.32328 0.0
C1155 C 0.06883 0.96135 0.32748 0.0
C1156 C 0.02657 0.97437 0.3246 0.0
C1157 C 0.03806 0.02386 0.31747 0.0
C1158 C 0.98706 0.03085 0.31667 0.0
C1159 C 0.99744 0.08488 0.32482 0.0
C1160 C 0.96869 0.02966 0.30014 0.0
C1161 C 0.94541 0.9789 0.32512 0.0
C1162 C 0.96825 0.94615 0.32945 0.0
C1163 C 0.93805 0.89806 0.33832 0.0
C1164 C 0.88344 0.88365 0.34298 0.0
C1165 C 0.86028 0.91779 0.33889 0.0
C1166 C 0.89154 0.96522 0.32962 0.0
H1167 H 0.97634 0.11115 0.48536 0.0
H1168 H 0.14994 0.14921 0.48613 0.0
H1169 H 0.11864 0.05235 0.49512 0.0
H1170 H 0.93304 0.03203 0.51864 0.0
H1171 H 0.86407 0.98218 0.51166 0.0
H1172 H 0.90011 0.05272 0.50431 0.0
H1173 H 0.89034 0.01434 0.47692 0.0
H1174 H 0.8535 0.94357 0.48416 0.0
H1175 H 0.91539 0.96642 0.47264 0.0
H1176 H 0.0673 0.95294 0.50595 0.0
H1177 H 0.00018 0.85753 0.51545 0.0
H1178 H 0.86211 0.88851 0.50704 0.0
C1179 C 0.00787 0.09908 0.48728 0.0
C1180 C 0.06547 0.13742 0.48516 0.0
C1181 C 0.10547 0.12005 0.48765 0.0
C1182 C 0.08813 0.06539 0.49281 0.0
C1183 C 0.03083 0.02904 0.49519 0.0
C1184 C 0.99139 0.04511 0.49228 0.0
C1185 C 0.93254 0.99914 0.49591 0.0
C1186 C 0.90592 0.01765 0.50837 0.0
C1187 C 0.8958 0.97972 0.48155 0.0
C1188 C 0.9449 0.95473 0.50159 0.0
C1189 C 0.00167 0.97244 0.50114 0.0
C1190 C 0.02271 0.93847 0.50623 0.0
C1191 C 0.98439 0.88461 0.51169 0.0
C1192 C 0.92599 0.86567 0.51192 0.0
C1193 C 0.90643 0.90155 0.50691 0.0
H1194 H 0.99213 0.8721 0.66788 0.0
H1195 H 0.15266 0.00912 0.68328 0.0
H1196 H 0.12358 0.07737 0.675 0.0
H1197 H 0.97733 0.94075 0.63483 0.0
H1198 H 0.9024 0.90903 0.63733 0.0
H1199 H 0.93804 0.87267 0.64367 0.0
H1200 H 0.89767 0.86492 0.67073 0.0
H1201 H 0.86179 0.901 0.66448 0.0
H1202 H 0.90931 0.92777 0.68036 0.0
H1203 H 0.07269 0.12976 0.66566 0.0
H1204 H 0.00484 0.15947 0.65744 0.0
H1205 H 0.88059 0.98517 0.64873 0.0
C1206 C 0.0217 0.91642 0.6695 0.0
C1207 C 0.07471 0.93525 0.67626 0.0
C1208 C 0.11177 0.99374 0.67811 0.0
C1209 C 0.09567 0.03272 0.6734 0.0
C1210 C 0.0427 0.01229 0.66682 0.0
C1211 C 0.00651 0.95534 0.66491 0.0
C1212 C 0.95101 0.94293 0.65821 0.0
C1213 C 0.94169 0.9147 0.64258 0.0
C1214 C 0.9021 0.90708 0.6691 0.0
C1215 C 0.96086 0.00181 0.65685 0.0
C1216 C 0.01399 0.04163 0.66168 0.0
C1217 C 0.03115 0.09885 0.66178 0.0
C1218 C 0.99251 0.11536 0.65707 0.0
C1219 C 0.93747 0.07454 0.65255 0.0
C1220 C 0.92224 0.01739 0.65222 0.0
H1221 H 0.11929 0.97645 0.83502 0.0
H1222 H 0.14603 0.14244 0.84576 0.0
H1223 H 0.05157 0.11469 0.83564 0.0
H1224 H 0.04124 0.95562 0.80016 0.0
H1225 H 0.99483 0.88191 0.80386 0.0
H1226 H 0.0658 0.91643 0.811 0.0
H1227 H 0.02832 0.88428 0.83832 0.0
H1228 H 0.95741 0.84936 0.83125 0.0
H1229 H 0.97776 0.90115 0.84608 0.0
H1230 H 0.95255 0.06688 0.82488 0.0
H1231 H 0.85503 0.00069 0.81658 0.0
H1232 H 0.89578 0.86728 0.81362 0.0
C1233 C 0.10566 0.00729 0.83516 0.0
C1234 C 0.14 0.06163 0.84112 0.0
C1235 C 0.12023 0.10045 0.84126 0.0
C1236 C 0.06691 0.08524 0.83544 0.0
C1237 C 0.03425 0.03122 0.82958 0.0
C1238 C 0.05288 0.99284 0.82951 0.0
C1239 C 0.00891 0.93643 0.82345 0.0
C1240 C 0.0289 0.92177 0.80874 0.0
C1241 C 0.99211 0.89011 0.8355 0.0
C1242 C 0.962 0.94857 0.82041 0.0
C1243 C 0.97747 0.00363 0.82374 0.0
C1244 C 0.94006 0.02375 0.82217 0.0
C1245 C 0.88498 0.98605 0.8174 0.0
C1246 C 0.86815 0.92904 0.81456 0.0
C1247 C 0.90754 0.91064 0.8158 0.0
loop_
_geom_bond_atom_site_label_1
_geom_bond_atom_site_label_2
_geom_bond_distance
_geom_bond_site_symmetry_2
_ccdc_geom_bond_type
O0 Zn1 1.953 . S
O0 C16 1.225 . S
Zn1 O0 1.953 . S
Zn1 O2 1.949 . S
Zn1 O8 1.919 . S
Zn1 O13 1.924 . S
O2 Zn1 1.949 . S
O2 Zn3 1.923 . S
O2 Zn4 1.950 . S
O2 Zn5 1.945 . S
Zn3 O2 1.923 . S
Zn3 O6 1.933 1_554 S
Zn3 O9 1.941 . S
Zn3 O10 1.965 . S
Zn4 O2 1.950 . S
Zn4 O11 1.938 . S
Zn4 O12 1.906 . S
Zn4 O22 1.953 . S
Zn5 O2 1.945 . S
Zn5 O7 1.932 1_554 S
Zn5 O14 1.977 . S
Zn5 O15 1.910 1_554 S
O6 Zn3 1.933 1_556 S
O6 C17 1.226 . S
O7 Zn5 1.932 1_556 S
O7 C17 1.307 . S
O8 Zn1 1.919 . S
O8 C19 1.253 . S
O9 Zn3 1.941 . S
O9 C19 1.283 . S
O10 Zn3 1.965 . S
O10 C18 1.303 . S
O11 Zn4 1.938 . S
O11 C18 1.247 . S
O12 Zn4 1.906 . S
O12 C20 1.304 . S
O13 Zn1 1.924 . S
O13 C21 1.311 . S
O14 Zn5 1.977 . S
O14 C20 1.272 . S
O15 Zn5 1.910 1_556 S
O15 C21 1.231 1_556 S
C16 O0 1.225 . S
C16 O22 1.298 . S
C17 O6 1.226 . S
C17 O7 1.307 . S
C18 O10 1.303 . S
C18 O11 1.247 . S
C19 O8 1.253 . S
C19 O9 1.283 . S
C20 O12 1.304 . S
C20 O14 1.272 . S
C21 O13 1.311 . S
C21 O15 1.231 1_554 S
O22 Zn4 1.953 . S
O22 C16 1.298 . S
O23 Zn24 1.953 . S
O23 C39 1.225 . S
Zn24 O23 1.953 . S
Zn24 O25 1.949 . S
Zn24 O31 1.919 . S
Zn24 O36 1.924 . S
O25 Zn24 1.949 . S
O25 Zn26 1.923 . S
O25 Zn27 1.950 . S
O25 Zn28 1.945 . S
Zn26 O25 1.923 . S
Zn26 O29 1.933 1_655 S
Zn26 O32 1.941 . S
Zn26 O33 1.965 1_655 S
Zn27 O25 1.950 . S
Zn27 O34 1.938 1_655 S
Zn27 O35 1.906 . S
Zn27 O45 1.953 . S
Zn28 O25 1.945 . S
Zn28 O30 1.932 . S
Zn28 O37 1.977 . S
Zn28 O38 1.910 . S
O29 Zn26 1.933 1_455 S
O29 C40 1.232 . S
O30 Zn28 1.932 . S
O30 C40 1.299 1_655 S
O31 Zn24 1.919 . S
O31 C42 1.253 . S
O32 Zn26 1.941 . S
O32 C42 1.283 . S
O33 Zn26 1.965 1_455 S
O33 C41 1.303 . S
O34 Zn27 1.938 1_455 S
O34 C41 1.247 . S
O35 Zn27 1.906 . S
O35 C43 1.304 . S
O36 Zn24 1.924 . S
O36 C44 1.311 . S
O37 Zn28 1.977 . S
O37 C43 1.272 . S
O38 Zn28 1.910 . S
O38 C44 1.231 . S
C39 O23 1.225 . S
C39 O45 1.298 . S
C40 O29 1.232 . S
C40 O30 1.299 1_455 S
C41 O33 1.303 . S
C41 O34 1.247 . S
C42 O31 1.253 . S
C42 O32 1.283 . S
C43 O35 1.304 . S
C43 O37 1.272 . S
C44 O36 1.311 . S
C44 O38 1.231 . S
O45 Zn27 1.953 . S
O45 C39 1.298 . S
O46 Zn47 1.953 . S
O46 C62 1.225 . S
Zn47 O46 1.953 . S
Zn47 O48 1.949 . S
Zn47 O54 1.919 . S
Zn47 O59 1.924 . S
O48 Zn47 1.949 . S
O48 Zn49 1.923 . S
O48 Zn50 1.950 . S
O48 Zn51 1.945 . S
Zn49 O48 1.923 . S
Zn49 O52 1.933 1_565 S
Zn49 O55 1.941 . S
Zn49 O56 1.965 1_565 S
Zn50 O48 1.950 . S
Zn50 O57 1.938 1_565 S
Zn50 O58 1.906 . S
Zn50 O68 1.953 . S
Zn51 O48 1.945 . S
Zn51 O53 1.932 . S
Zn51 O60 1.977 . S
Zn51 O61 1.910 . S
O52 Zn49 1.933 1_545 S
O52 C63 1.227 . S
O53 Zn51 1.932 . S
O53 C63 1.303 1_565 S
O54 Zn47 1.919 . S
O54 C65 1.253 . S
O55 Zn49 1.941 . S
O55 C65 1.283 . S
O56 Zn49 1.965 1_545 S
O56 C64 1.303 . S
O57 Zn50 1.938 1_545 S
O57 C64 1.247 . S
O58 Zn50 1.906 . S
O58 C66 1.304 . S
O59 Zn47 1.924 . S
O59 C67 1.311 . S
O60 Zn51 1.977 . S
O60 C66 1.272 . S
O61 Zn51 1.910 . S
O61 C67 1.231 . S
C62 O46 1.225 . S
C62 O68 1.298 . S
C63 O52 1.227 . S
C63 O53 1.303 1_545 S
C64 O56 1.303 . S
C64 O57 1.247 . S
C65 O54 1.253 . S
C65 O55 1.283 . S
C66 O58 1.304 . S
C66 O60 1.272 . S
C67 O59 1.311 . S
C67 O61 1.231 . S
O68 Zn50 1.953 . S
O68 C62 1.298 . S
O69 Zn70 1.953 . S
O69 C85 1.225 . S
Zn70 O69 1.953 . S
Zn70 O71 1.949 . S
Zn70 O77 1.919 . S
Zn70 O82 1.924 . S
O71 Zn70 1.949 . S
O71 Zn72 1.923 . S
O71 Zn73 1.950 . S
O71 Zn74 1.945 . S
Zn72 O71 1.923 . S
Zn72 O75 1.933 . S
Zn72 O78 1.941 . S
Zn72 O79 1.965 . S
Zn73 O71 1.950 . S
Zn73 O80 1.938 . S
Zn73 O81 1.906 . S
Zn73 O91 1.953 . S
Zn74 O71 1.945 . S
Zn74 O76 1.932 . S
Zn74 O83 1.977 . S
Zn74 O84 1.910 . S
O75 Zn72 1.933 . S
O75 C86 1.226 . S
O76 Zn74 1.932 . S
O76 C86 1.307 . S
O77 Zn70 1.919 . S
O77 C88 1.253 . S
O78 Zn72 1.941 . S
O78 C88 1.283 . S
O79 Zn72 1.965 . S
O79 C87 1.303 . S
O80 Zn73 1.938 . S
O80 C87 1.247 . S
O81 Zn73 1.906 . S
O81 C89 1.304 . S
O82 Zn70 1.924 . S
O82 C90 1.311 . S
O83 Zn74 1.977 . S
O83 C89 1.272 . S
O84 Zn74 1.910 . S
O84 C90 1.231 . S
C85 O69 1.225 . S
C85 O91 1.298 . S
C86 O75 1.226 . S
C86 O76 1.307 . S
C87 O79 1.303 . S
C87 O80 1.247 . S
C88 O77 1.253 . S
C88 O78 1.283 . S
C89 O81 1.304 . S
C89 O83 1.272 . S
C90 O82 1.311 . S
C90 O84 1.231 . S
O91 Zn73 1.953 . S
O91 C85 1.298 . S
O92 Zn93 1.953 . S
O92 C108 1.225 . S
Zn93 O92 1.953 . S
Zn93 O94 1.949 . S
Zn93 O100 1.919 . S
Zn93 O105 1.924 . S
O94 Zn93 1.949 . S
O94 Zn95 1.923 . S
O94 Zn96 1.950 . S
O94 Zn97 1.945 . S
Zn95 O94 1.923 . S
Zn95 O98 1.933 1_455 S
Zn95 O101 1.941 . S
Zn95 O102 1.965 1_455 S
Zn96 O94 1.950 . S
Zn96 O103 1.938 1_455 S
Zn96 O104 1.906 . S
Zn96 O114 1.953 . S
Zn97 O94 1.945 . S
Zn97 O99 1.932 . S
Zn97 O106 1.977 . S
Zn97 O107 1.910 . S
O98 Zn95 1.933 1_655 S
O98 C109 1.232 . S
O99 Zn97 1.932 . S
O99 C109 1.299 1_455 S
O100 Zn93 1.919 . S
O100 C111 1.253 . S
O101 Zn95 1.941 . S
O101 C111 1.283 . S
O102 Zn95 1.965 1_655 S
O102 C110 1.303 . S
O103 Zn96 1.938 1_655 S
O103 C110 1.247 . S
O104 Zn96 1.906 . S
O104 C112 1.304 . S
O105 Zn93 1.924 . S
O105 C113 1.311 . S
O106 Zn97 1.977 . S
O106 C112 1.272 . S
O107 Zn97 1.910 . S
O107 C113 1.231 . S
C108 O92 1.225 . S
C108 O114 1.298 . S
C109 O98 1.232 . S
C109 O99 1.299 1_655 S
C110 O102 1.303 . S
C110 O103 1.247 . S
C111 O100 1.253 . S
C111 O101 1.283 . S
C112 O104 1.304 . S
C112 O106 1.272 . S
C113 O105 1.311 . S
C113 O107 1.231 . S
O114 Zn96 1.953 . S
O114 C108 1.298 . S
O115 Zn116 1.953 . S
O115 C131 1.225 . S
Zn116 O115 1.953 . S
Zn116 O117 1.949 . S
Zn116 O123 1.919 . S
Zn116 O128 1.924 . S
O117 Zn116 1.949 . S
O117 Zn118 1.923 . S
O117 Zn119 1.950 . S
O117 Zn120 1.945 . S
Zn118 O117 1.923 . S
Zn118 O121 1.933 1_545 S
Zn118 O124 1.941 . S
Zn118 O125 1.965 1_545 S
Zn119 O117 1.950 . S
Zn119 O126 1.938 1_545 S
Zn119 O127 1.906 . S
Zn119 O137 1.953 . S
Zn120 O117 1.945 . S
Zn120 O122 1.932 . S
Zn120 O129 1.977 . S
Zn120 O130 1.910 . S
O121 Zn118 1.933 1_565 S
O121 C132 1.227 . S
O122 Zn120 1.932 . S
O122 C132 1.303 1_545 S
O123 Zn116 1.919 . S
O123 C134 1.253 . S
O124 Zn118 1.941 . S
O124 C134 1.283 . S
O125 Zn118 1.965 1_565 S
O125 C133 1.303 . S
O126 Zn119 1.938 1_565 S
O126 C133 1.247 . S
O127 Zn119 1.906 . S
O127 C135 1.304 . S
O128 Zn116 1.924 . S
O128 C136 1.311 . S
O129 Zn120 1.977 . S
O129 C135 1.272 . S
O130 Zn120 1.910 . S
O130 C136 1.231 . S
C131 O115 1.225 . S
C131 O137 1.298 . S
C132 O121 1.227 . S
C132 O122 1.303 1_565 S
C133 O125 1.303 . S
C133 O126 1.247 . S
C134 O123 1.253 . S
C134 O124 1.283 . S
C135 O127 1.304 . S
C135 O129 1.272 . S
C136 O128 1.311 . S
C136 O130 1.231 . S
O137 Zn119 1.953 . S
O137 C131 1.298 . S
O138 Zn139 1.953 . S
O138 C154 1.225 . S
Zn139 O138 1.953 . S
Zn139 O140 1.949 . S
Zn139 O146 1.919 . S
Zn139 O151 1.924 . S
O140 Zn139 1.949 . S
O140 Zn141 1.923 . S
O140 Zn142 1.950 . S
O140 Zn143 1.945 . S
Zn141 O140 1.923 . S
Zn141 O144 1.933 . S
Zn141 O147 1.941 . S
Zn141 O148 1.965 . S
Zn142 O140 1.950 . S
Zn142 O149 1.938 . S
Zn142 O150 1.906 . S
Zn142 O160 1.953 . S
Zn143 O140 1.945 . S
Zn143 O145 1.932 . S
Zn143 O152 1.977 . S
Zn143 O153 1.910 . S
O144 Zn141 1.933 . S
O144 C155 1.226 . S
O145 Zn143 1.932 . S
O145 C155 1.307 . S
O146 Zn139 1.919 . S
O146 C157 1.253 . S
O147 Zn141 1.941 . S
O147 C157 1.283 . S
O148 Zn141 1.965 . S
O148 C156 1.303 . S
O149 Zn142 1.938 . S
O149 C156 1.247 . S
O150 Zn142 1.906 . S
O150 C158 1.304 . S
O151 Zn139 1.924 . S
O151 C159 1.311 . S
O152 Zn143 1.977 . S
O152 C158 1.272 . S
O153 Zn143 1.910 . S
O153 C159 1.231 . S
C154 O138 1.225 . S
C154 O160 1.298 . S
C155 O144 1.226 . S
C155 O145 1.307 . S
C156 O148 1.303 . S
C156 O149 1.247 . S
C157 O146 1.253 . S
C157 O147 1.283 . S
C158 O150 1.304 . S
C158 O152 1.272 . S
C159 O151 1.311 . S
C159 O153 1.231 . S
O160 Zn142 1.953 . S
O160 C154 1.298 . S
O161 Zn162 1.953 . S
O161 C177 1.225 . S
Zn162 O161 1.953 . S
Zn162 O163 1.949 . S
Zn162 O169 1.919 . S
Zn162 O174 1.924 . S
O163 Zn162 1.949 . S
O163 Zn164 1.923 . S
O163 Zn165 1.950 . S
O163 Zn166 1.945 . S
Zn164 O163 1.923 . S
Zn164 O167 1.933 1_656 S
Zn164 O170 1.941 . S
Zn164 O171 1.965 1_655 S
Zn165 O163 1.950 . S
Zn165 O172 1.938 1_655 S
Zn165 O173 1.906 . S
Zn165 O183 1.953 . S
Zn166 O163 1.945 . S
Zn166 O168 1.932 1_556 S
Zn166 O175 1.977 . S
Zn166 O176 1.910 1_556 S
O167 Zn164 1.933 1_454 S
O167 C178 1.227 . S
O168 Zn166 1.932 1_554 S
O168 C178 1.303 1_655 S
O169 Zn162 1.919 . S
O169 C180 1.253 . S
O170 Zn164 1.941 . S
O170 C180 1.283 . S
O171 Zn164 1.965 1_455 S
O171 C179 1.303 . S
O172 Zn165 1.938 1_455 S
O172 C179 1.247 . S
O173 Zn165 1.906 . S
O173 C181 1.304 . S
O174 Zn162 1.924 . S
O174 C182 1.311 . S
O175 Zn166 1.977 . S
O175 C181 1.272 . S
O176 Zn166 1.910 1_554 S
O176 C182 1.231 1_554 S
C177 O161 1.225 . S
C177 O183 1.298 . S
C178 O167 1.227 . S
C178 O168 1.303 1_455 S
C179 O171 1.303 . S
C179 O172 1.247 . S
C180 O169 1.253 . S
C180 O170 1.283 . S
C181 O173 1.304 . S
C181 O175 1.272 . S
C182 O174 1.311 . S
C182 O176 1.231 1_556 S
O183 Zn165 1.953 . S
O183 C177 1.298 . S
O184 Zn185 1.953 . S
O184 C200 1.225 . S
Zn185 O184 1.953 . S
Zn185 O186 1.949 . S
Zn185 O192 1.919 . S
Zn185 O197 1.924 . S
O186 Zn185 1.949 . S
O186 Zn187 1.923 . S
O186 Zn188 1.950 . S
O186 Zn189 1.945 . S
Zn187 O186 1.923 . S
Zn187 O190 1.933 1_565 S
Zn187 O193 1.941 . S
Zn187 O194 1.965 1_565 S
Zn188 O186 1.950 . S
Zn188 O195 1.938 1_565 S
Zn188 O196 1.906 . S
Zn188 O206 1.953 . S
Zn189 O186 1.945 . S
Zn189 O191 1.932 . S
Zn189 O198 1.977 . S
Zn189 O199 1.910 . S
O190 Zn187 1.933 1_545 S
O190 C201 1.232 . S
O191 Zn189 1.932 . S
O191 C201 1.299 1_565 S
O192 Zn185 1.919 . S
O192 C203 1.253 . S
O193 Zn187 1.941 . S
O193 C203 1.283 . S
O194 Zn187 1.965 1_545 S
O194 C202 1.303 . S
O195 Zn188 1.938 1_545 S
O195 C202 1.247 . S
O196 Zn188 1.906 . S
O196 C204 1.304 . S
O197 Zn185 1.924 . S
O197 C205 1.311 . S
O198 Zn189 1.977 . S
O198 C204 1.272 . S
O199 Zn189 1.910 . S
O199 C205 1.231 . S
C200 O184 1.225 . S
C200 O206 1.298 . S
C201 O190 1.232 . S
C201 O191 1.299 1_545 S
C202 O194 1.303 . S
C202 O195 1.247 . S
C203 O192 1.253 . S
C203 O193 1.283 . S
C204 O196 1.304 . S
C204 O198 1.272 . S
C205 O197 1.311 . S
C205 O199 1.231 . S
O206 Zn188 1.953 . S
O206 C200 1.298 . S
O207 Zn208 1.953 . S
O207 C223 1.225 . S
Zn208 O207 1.953 . S
Zn208 O209 1.949 . S
Zn208 O215 1.919 . S
Zn208 O220 1.924 . S
O209 Zn208 1.949 . S
O209 Zn210 1.923 . S
O209 Zn211 1.950 . S
O209 Zn212 1.945 . S
Zn210 O209 1.923 . S
Zn210 O213 1.933 . S
Zn210 O216 1.941 . S
Zn210 O217 1.965 . S
Zn211 O209 1.950 . S
Zn211 O218 1.938 . S
Zn211 O219 1.906 . S
Zn211 O229 1.953 . S
Zn212 O209 1.945 . S
Zn212 O214 1.932 . S
Zn212 O221 1.977 . S
Zn212 O222 1.910 . S
O213 Zn210 1.933 . S
O213 C224 1.226 . S
O214 Zn212 1.932 . S
O214 C224 1.307 . S
O215 Zn208 1.919 . S
O215 C226 1.253 . S
O216 Zn210 1.941 . S
O216 C226 1.283 . S
O217 Zn210 1.965 . S
O217 C225 1.303 . S
O218 Zn211 1.938 . S
O218 C225 1.247 . S
O219 Zn211 1.906 . S
O219 C227 1.304 . S
O220 Zn208 1.924 . S
O220 C228 1.311 . S
O221 Zn212 1.977 . S
O221 C227 1.272 . S
O222 Zn212 1.910 . S
O222 C228 1.231 . S
C223 O207 1.225 . S
C223 O229 1.298 . S
C224 O213 1.226 . S
C224 O214 1.307 . S
C225 O217 1.303 . S
C225 O218 1.247 . S
C226 O215 1.253 . S
C226 O216 1.283 . S
C227 O219 1.304 . S
C227 O221 1.272 . S
C228 O220 1.311 . S
C228 O222 1.231 . S
O229 Zn211 1.953 . S
O229 C223 1.298 . S
O230 Zn231 1.953 . S
O230 C246 1.225 . S
Zn231 O230 1.953 . S
Zn231 O232 1.949 . S
Zn231 O238 1.919 . S
Zn231 O243 1.924 . S
O232 Zn231 1.949 . S
O232 Zn233 1.923 . S
O232 Zn234 1.950 . S
O232 Zn235 1.945 . S
Zn233 O232 1.923 . S
Zn233 O236 1.933 1_455 S
Zn233 O239 1.941 . S
Zn233 O240 1.965 1_455 S
Zn234 O232 1.950 . S
Zn234 O241 1.938 1_455 S
Zn234 O242 1.906 . S
Zn234 O252 1.953 . S
Zn235 O232 1.945 . S
Zn235 O237 1.932 . S
Zn235 O244 1.977 . S
Zn235 O245 1.910 . S
O236 Zn233 1.933 1_655 S
O236 C247 1.227 . S
O237 Zn235 1.932 . S
O237 C247 1.303 1_455 S
O238 Zn231 1.919 . S
O238 C249 1.253 . S
O239 Zn233 1.941 . S
O239 C249 1.283 . S
O240 Zn233 1.965 1_655 S
O240 C248 1.303 . S
O241 Zn234 1.938 1_655 S
O241 C248 1.247 . S
O242 Zn234 1.906 . S
O242 C250 1.304 . S
O243 Zn231 1.924 . S
O243 C251 1.311 . S
O244 Zn235 1.977 . S
O244 C250 1.272 . S
O245 Zn235 1.910 . S
O245 C251 1.231 . S
C246 O230 1.225 . S
C246 O252 1.298 . S
C247 O236 1.227 . S
C247 O237 1.303 1_655 S
C248 O240 1.303 . S
C248 O241 1.247 . S
C249 O238 1.253 . S
C249 O239 1.283 . S
C250 O242 1.304 . S
C250 O244 1.272 . S
C251 O243 1.311 . S
C251 O245 1.231 . S
O252 Zn234 1.953 . S
O252 C246 1.298 . S
O253 Zn254 1.953 . S
O253 C269 1.225 . S
Zn254 O253 1.953 . S
Zn254 O255 1.949 . S
Zn254 O261 1.919 . S
Zn254 O266 1.924 . S
O255 Zn254 1.949 . S
O255 Zn256 1.923 . S
O255 Zn257 1.950 . S
O255 Zn258 1.945 . S
Zn256 O255 1.923 . S
Zn256 O259 1.933 1_545 S
Zn256 O262 1.941 . S
Zn256 O263 1.965 1_545 S
Zn257 O255 1.950 . S
Zn257 O264 1.938 1_545 S
Zn257 O265 1.906 . S
Zn257 O275 1.953 . S
Zn258 O255 1.945 . S
Zn258 O260 1.932 . S
Zn258 O267 1.977 . S
Zn258 O268 1.910 . S
O259 Zn256 1.933 1_565 S
O259 C270 1.232 . S
O260 Zn258 1.932 . S
O260 C270 1.299 1_545 S
O261 Zn254 1.919 . S
O261 C272 1.253 . S
O262 Zn256 1.941 . S
O262 C272 1.283 . S
O263 Zn256 1.965 1_565 S
O263 C271 1.303 . S
O264 Zn257 1.938 1_565 S
O264 C271 1.247 . S
O265 Zn257 1.906 . S
O265 C273 1.304 . S
O266 Zn254 1.924 . S
O266 C274 1.311 . S
O267 Zn258 1.977 . S
O267 C273 1.272 . S
O268 Zn258 1.910 . S
O268 C274 1.231 . S
C269 O253 1.225 . S
C269 O275 1.298 . S
C270 O259 1.232 . S
C270 O260 1.299 1_565 S
C271 O263 1.303 . S
C271 O264 1.247 . S
C272 O261 1.253 . S
C272 O262 1.283 . S
C273 O265 1.304 . S
C273 O267 1.272 . S
C274 O266 1.311 . S
C274 O268 1.231 . S
O275 Zn257 1.953 . S
O275 C269 1.298 . S
H276 C288 0.930 . S
H277 C290 0.930 . S
H278 C291 0.930 . S
H279 C295 0.959 . S
H280 C295 0.959 . S
H281 C295 0.961 . S
H282 C296 0.960 . S
H283 C296 0.961 . S
H284 C296 0.959 . S
H285 C299 0.929 . S
H286 C300 0.931 . S
H287 C302 0.930 1_556 S
C288 H276 0.930 . S
C288 C289 1.354 1_556 S
C288 C293 1.399 . S
C289 C288 1.354 1_554 S
C289 C290 1.452 . S
C290 H277 0.930 . S
C290 C289 1.452 . S
C290 C291 1.388 . S
C291 H278 0.930 . S
C291 C290 1.388 . S
C291 C292 1.390 . S
C292 C291 1.390 . S
C292 C293 1.394 1_554 S
C292 C298 1.465 . S
C293 C288 1.399 . S
C293 C292 1.394 1_556 S
C293 C294 1.516 . S
C294 C293 1.516 . S
C294 C295 1.502 . S
C294 C296 1.561 . S
C294 C297 1.526 1_556 S
C295 H279 0.959 . S
C295 H280 0.959 . S
C295 H281 0.961 . S
C295 C294 1.502 . S
C296 H282 0.960 . S
C296 H283 0.961 . S
C296 H284 0.959 . S
C296 C294 1.561 . S
C297 C294 1.526 1_554 S
C297 C298 1.396 . S
C297 C302 1.390 . S
C298 C292 1.465 . S
C298 C297 1.396 . S
C298 C299 1.399 . S
C299 H285 0.929 . S
C299 C298 1.399 . S
C299 C300 1.385 . S
C300 H286 0.931 . S
C300 C299 1.385 . S
C300 C301 1.389 . S
C301 C300 1.389 . S
C301 C302 1.387 . S
C302 H287 0.930 1_554 S
C302 C297 1.390 . S
C302 C301 1.387 . S
H303 C315 0.930 . S
H304 C317 0.930 . S
H305 C318 0.930 . S
H306 C322 0.959 . S
H307 C322 0.959 . S
H308 C322 0.961 . S
H309 C323 0.960 . S
H310 C323 0.961 . S
H311 C323 0.959 . S
H312 C326 0.929 . S
H313 C327 0.931 . S
H314 C329 0.930 . S
C315 H303 0.930 . S
C315 C316 1.399 . S
C315 C320 1.399 . S
C316 C315 1.399 . S
C316 C317 1.376 . S
C317 H304 0.930 . S
C317 C316 1.376 . S
C317 C318 1.388 . S
C318 H305 0.930 . S
C318 C317 1.388 . S
C318 C319 1.390 . S
C319 C318 1.390 . S
C319 C320 1.394 . S
C319 C325 1.465 . S
C320 C315 1.399 . S
C320 C319 1.394 . S
C320 C321 1.516 . S
C321 C320 1.516 . S
C321 C322 1.502 1_455 S
C321 C323 1.561 . S
C321 C324 1.526 . S
C322 H306 0.959 . S
C322 H307 0.959 . S
C322 H308 0.961 . S
C322 C321 1.502 1_655 S
C323 H309 0.960 . S
C323 H310 0.961 . S
C323 H311 0.959 . S
C323 C321 1.561 . S
C324 C321 1.526 . S
C324 C325 1.396 . S
C324 C329 1.390 1_455 S
C325 C319 1.465 . S
C325 C324 1.396 . S
C325 C326 1.399 . S
C326 H312 0.929 . S
C326 C325 1.399 . S
C326 C327 1.385 . S
C327 H313 0.931 . S
C327 C326 1.385 . S
C327 C328 1.389 1_455 S
C328 C327 1.389 1_655 S
C328 C329 1.387 . S
C329 H314 0.930 . S
C329 C324 1.390 1_655 S
C329 C328 1.387 . S
H330 C342 0.930 . S
H331 C344 0.930 . S
H332 C345 0.930 . S
H333 C349 0.959 . S
H334 C349 0.959 . S
H335 C349 0.961 . S
H336 C350 0.960 . S
H337 C350 0.961 . S
H338 C350 0.959 . S
H339 C353 0.929 . S
H340 C354 0.931 . S
H341 C356 0.930 . S
C342 H330 0.930 . S
C342 C343 1.399 . S
C342 C347 1.399 . S
C343 C342 1.399 . S
C343 C344 1.376 . S
C344 H331 0.930 . S
C344 C343 1.376 . S
C344 C345 1.388 . S
C345 H332 0.930 . S
C345 C344 1.388 . S
C345 C346 1.390 . S
C346 C345 1.390 . S
C346 C347 1.394 . S
C346 C352 1.465 . S
C347 C342 1.399 . S
C347 C346 1.394 . S
C347 C348 1.516 . S
C348 C347 1.516 . S
C348 C349 1.502 1_545 S
C348 C350 1.561 . S
C348 C351 1.526 . S
C349 H333 0.959 . S
C349 H334 0.959 . S
C349 H335 0.961 . S
C349 C348 1.502 1_565 S
C350 H336 0.960 . S
C350 H337 0.961 . S
C350 H338 0.959 . S
C350 C348 1.561 . S
C351 C348 1.526 . S
C351 C352 1.396 . S
C351 C356 1.390 1_545 S
C352 C346 1.465 . S
C352 C351 1.396 . S
C352 C353 1.399 . S
C353 H339 0.929 . S
C353 C352 1.399 . S
C353 C354 1.385 . S
C354 H340 0.931 . S
C354 C353 1.385 . S
C354 C355 1.389 1_545 S
C355 C354 1.389 1_565 S
C355 C356 1.387 . S
C356 H341 0.930 . S
C356 C351 1.390 1_565 S
C356 C355 1.387 . S
H357 C369 0.930 . S
H358 C371 0.930 . S
H359 C372 0.930 . S
H360 C376 0.959 . S
H361 C376 0.959 . S
H362 C376 0.961 . S
H363 C377 0.960 . S
H364 C377 0.961 . S
H365 C377 0.959 . S
H366 C380 0.929 . S
H367 C381 0.931 . S
H368 C383 0.930 . S
C369 H357 0.930 . S
C369 C370 1.399 . S
C369 C374 1.399 . S
C370 C369 1.399 . S
C370 C371 1.376 . S
C371 H358 0.930 . S
C371 C370 1.376 . S
C371 C372 1.388 . S
C372 H359 0.930 . S
C372 C371 1.388 . S
C372 C373 1.390 . S
C373 C372 1.390 . S
C373 C374 1.394 . S
C373 C379 1.465 . S
C374 C369 1.399 . S
C374 C373 1.394 . S
C374 C375 1.516 . S
C375 C374 1.516 . S
C375 C376 1.502 . S
C375 C377 1.561 . S
C375 C378 1.526 . S
C376 H360 0.959 . S
C376 H361 0.959 . S
C376 H362 0.961 . S
C376 C375 1.502 . S
C377 H363 0.960 . S
C377 H364 0.961 . S
C377 H365 0.959 . S
C377 C375 1.561 . S
C378 C375 1.526 . S
C378 C379 1.396 . S
C378 C383 1.390 . S
C379 C373 1.465 . S
C379 C378 1.396 . S
C379 C380 1.399 . S
C380 H366 0.929 . S
C380 C379 1.399 . S
C380 C381 1.385 . S
C381 H367 0.931 . S
C381 C380 1.385 . S
C381 C382 1.389 . S
C382 C381 1.389 . S
C382 C383 1.387 . S
C383 H368 0.930 . S
C383 C378 1.390 . S
C383 C382 1.387 . S
H384 C396 0.930 . S
H385 C398 0.930 . S
H386 C399 0.930 . S
H387 C403 0.959 . S
H388 C403 0.959 . S
H389 C403 0.961 . S
H390 C404 0.960 . S
H391 C404 0.961 . S
H392 C404 0.959 . S
H393 C407 0.929 . S
H394 C408 0.931 . S
H395 C410 0.930 . S
C396 H384 0.930 . S
C396 C397 1.399 . S
C396 C401 1.399 . S
C397 C396 1.399 . S
C397 C398 1.376 . S
C398 H385 0.930 . S
C398 C397 1.376 . S
C398 C399 1.388 . S
C399 H386 0.930 . S
C399 C398 1.388 . S
C399 C400 1.390 . S
C400 C399 1.390 . S
C400 C401 1.394 . S
C400 C406 1.465 . S
C401 C396 1.399 . S
C401 C400 1.394 . S
C401 C402 1.516 . S
C402 C401 1.516 . S
C402 C403 1.502 1_655 S
C402 C404 1.561 . S
C402 C405 1.526 . S
C403 H387 0.959 . S
C403 H388 0.959 . S
C403 H389 0.961 . S
C403 C402 1.502 1_455 S
C404 H390 0.960 . S
C404 H391 0.961 . S
C404 H392 0.959 . S
C404 C402 1.561 . S
C405 C402 1.526 . S
C405 C406 1.396 . S
C405 C410 1.390 1_655 S
C406 C400 1.465 . S
C406 C405 1.396 . S
C406 C407 1.399 . S
C407 H393 0.929 . S
C407 C406 1.399 . S
C407 C408 1.385 . S
C408 H394 0.931 . S
C408 C407 1.385 . S
C408 C409 1.389 1_655 S
C409 C408 1.389 1_455 S
C409 C410 1.387 . S
C410 H395 0.930 . S
C410 C405 1.390 1_455 S
C410 C409 1.387 . S
H411 C423 0.930 . S
H412 C425 0.930 . S
H413 C426 0.930 . S
H414 C430 0.959 . S
H415 C430 0.959 . S
H416 C430 0.961 . S
H417 C431 0.960 . S
H418 C431 0.961 . S
H419 C431 0.959 . S
H420 C434 0.929 . S
H421 C435 0.931 . S
H422 C437 0.930 . S
C423 H411 0.930 . S
C423 C424 1.399 . S
C423 C428 1.399 . S
C424 C423 1.399 . S
C424 C425 1.376 . S
C425 H412 0.930 . S
C425 C424 1.376 . S
C425 C426 1.388 . S
C426 H413 0.930 . S
C426 C425 1.388 . S
C426 C427 1.390 . S
C427 C426 1.390 . S
C427 C428 1.394 . S
C427 C433 1.465 . S
C428 C423 1.399 . S
C428 C427 1.394 . S
C428 C429 1.516 . S
C429 C428 1.516 . S
C429 C430 1.502 . S
C429 C431 1.561 . S
C429 C432 1.526 . S
C430 H414 0.959 . S
C430 H415 0.959 . S
C430 H416 0.961 . S
C430 C429 1.502 . S
C431 H417 0.960 . S
C431 H418 0.961 . S
C431 H419 0.959 . S
C431 C429 1.561 . S
C432 C429 1.526 . S
C432 C433 1.396 . S
C432 C437 1.390 . S
C433 C427 1.465 . S
C433 C432 1.396 . S
C433 C434 1.399 1_565 S
C434 H420 0.929 . S
C434 C433 1.399 1_545 S
C434 C435 1.385 . S
C435 H421 0.931 . S
C435 C434 1.385 . S
C435 C436 1.389 . S
C436 C435 1.389 . S
C436 C437 1.387 1_545 S
C437 H422 0.930 . S
C437 C432 1.390 . S
C437 C436 1.387 1_565 S
H438 C450 0.930 . S
H439 C452 0.930 . S
H440 C453 0.930 . S
H441 C457 0.959 . S
H442 C457 0.959 . S
H443 C457 0.961 . S
H444 C458 0.960 . S
H445 C458 0.961 . S
H446 C458 0.959 . S
H447 C461 0.929 . S
H448 C462 0.931 . S
H449 C464 0.930 . S
C450 H438 0.930 . S
C450 C451 1.399 . S
C450 C455 1.399 . S
C451 C450 1.399 . S
C451 C452 1.376 . S
C452 H439 0.930 . S
C452 C451 1.376 . S
C452 C453 1.388 . S
C453 H440 0.930 . S
C453 C452 1.388 . S
C453 C454 1.390 . S
C454 C453 1.390 . S
C454 C455 1.394 . S
C454 C460 1.465 . S
C455 C450 1.399 . S
C455 C454 1.394 . S
C455 C456 1.516 . S
C456 C455 1.516 . S
C456 C457 1.502 . S
C456 C458 1.561 . S
C456 C459 1.526 . S
C457 H441 0.959 . S
C457 H442 0.959 . S
C457 H443 0.961 . S
C457 C456 1.502 . S
C458 H444 0.960 . S
C458 H445 0.961 . S
C458 H446 0.959 . S
C458 C456 1.561 . S
C459 C456 1.526 . S
C459 C460 1.396 . S
C459 C464 1.390 . S
C460 C454 1.465 . S
C460 C459 1.396 . S
C460 C461 1.399 . S
C461 H447 0.929 . S
C461 C460 1.399 . S
C461 C462 1.385 . S
C462 H448 0.931 . S
C462 C461 1.385 . S
C462 C463 1.389 . S
C463 C462 1.389 . S
C463 C464 1.387 . S
C464 H449 0.930 . S
C464 C459 1.390 . S
C464 C463 1.387 . S
H465 C477 0.930 . S
H466 C479 0.930 1_554 S
H467 C480 0.930 . S
H468 C484 0.959 . S
H469 C484 0.959 . S
H470 C484 0.961 . S
H471 C485 0.960 . S
H472 C485 0.961 . S
H473 C485 0.959 . S
H474 C488 0.929 . S
H475 C489 0.931 . S
H476 C491 0.930 . S
C477 H465 0.930 . S
C477 C478 1.399 . S
C477 C482 1.399 1_655 S
C478 C477 1.399 . S
C478 C479 1.376 1_655 S
C479 H466 0.930 1_556 S
C479 C478 1.376 1_455 S
C479 C480 1.388 1_556 S
C480 H467 0.930 . S
C480 C479 1.388 1_554 S
C480 C481 1.390 1_554 S
C481 C480 1.390 1_556 S
C481 C482 1.394 . S
C481 C487 1.468 . S
C482 C477 1.399 1_455 S
C482 C481 1.394 . S
C482 C483 1.516 . S
C483 C482 1.516 . S
C483 C484 1.502 1_455 S
C483 C485 1.561 . S
C483 C486 1.526 . S
C484 H468 0.959 . S
C484 H469 0.959 . S
C484 H470 0.961 . S
C484 C483 1.502 1_655 S
C485 H471 0.960 . S
C485 H472 0.961 . S
C485 H473 0.959 . S
C485 C483 1.561 . S
C486 C483 1.526 . S
C486 C487 1.406 . S
C486 C491 1.390 . S
C487 C481 1.468 . S
C487 C486 1.406 . S
C487 C488 1.388 1_556 S
C488 H474 0.929 . S
C488 C487 1.388 1_554 S
C488 C489 1.385 . S
C489 H475 0.931 . S
C489 C488 1.385 . S
C489 C490 1.389 . S
C490 C489 1.389 . S
C490 C491 1.387 1_554 S
C491 H476 0.930 . S
C491 C486 1.390 . S
C491 C490 1.387 1_556 S
H492 C504 0.930 . S
H493 C506 0.930 . S
H494 C507 0.930 . S
H495 C511 0.959 1_565 S
H496 C511 0.959 . S
H497 C511 0.961 . S
H498 C512 0.960 . S
H499 C512 0.961 . S
H500 C512 0.959 . S
H501 C515 0.929 . S
H502 C516 0.931 . S
H503 C518 0.930 . S
C504 H492 0.930 . S
C504 C505 1.399 . S
C504 C509 1.399 1_565 S
C505 C504 1.399 . S
C505 C506 1.376 . S
C506 H493 0.930 . S
C506 C505 1.376 . S
C506 C507 1.388 1_565 S
C507 H494 0.930 . S
C507 C506 1.388 1_545 S
C507 C508 1.390 . S
C508 C507 1.390 . S
C508 C509 1.394 . S
C508 C514 1.465 . S
C509 C504 1.399 1_545 S
C509 C508 1.394 . S
C509 C510 1.516 . S
C510 C509 1.516 . S
C510 C511 1.502 . S
C510 C512 1.561 . S
C510 C513 1.526 . S
C511 H495 0.959 1_545 S
C511 H496 0.959 . S
C511 H497 0.961 . S
C511 C510 1.502 . S
C512 H498 0.960 . S
C512 H499 0.961 . S
C512 H500 0.959 . S
C512 C510 1.561 . S
C513 C510 1.526 . S
C513 C514 1.396 . S
C513 C518 1.390 . S
C514 C508 1.465 . S
C514 C513 1.396 . S
C514 C515 1.399 . S
C515 H501 0.929 . S
C515 C514 1.399 . S
C515 C516 1.385 . S
C516 H502 0.931 . S
C516 C515 1.385 . S
C516 C517 1.389 . S
C517 C516 1.389 . S
C517 C518 1.387 . S
C518 H503 0.930 . S
C518 C513 1.390 . S
C518 C517 1.387 . S
H519 C531 0.930 . S
H520 C533 0.930 . S
H521 C534 0.930 . S
H522 C538 0.959 . S
H523 C538 0.959 . S
H524 C538 0.961 . S
H525 C539 0.960 . S
H526 C539 0.961 . S
H527 C539 0.959 . S
H528 C542 0.929 . S
H529 C543 0.931 . S
H530 C545 0.930 . S
C531 H519 0.930 . S
C531 C532 1.399 . S
C531 C536 1.399 . S
C532 C531 1.399 . S
C532 C533 1.376 . S
C533 H520 0.930 . S
C533 C532 1.376 . S
C533 C534 1.388 . S
C534 H521 0.930 . S
C534 C533 1.388 . S
C534 C535 1.390 . S
C535 C534 1.390 . S
C535 C536 1.394 . S
C535 C541 1.465 . S
C536 C531 1.399 . S
C536 C535 1.394 . S
C536 C537 1.516 . S
C537 C536 1.516 . S
C537 C538 1.502 . S
C537 C539 1.561 . S
C537 C540 1.526 . S
C538 H522 0.959 . S
C538 H523 0.959 . S
C538 H524 0.961 . S
C538 C537 1.502 . S
C539 H525 0.960 . S
C539 H526 0.961 . S
C539 H527 0.959 . S
C539 C537 1.561 . S
C540 C537 1.526 . S
C540 C541 1.396 . S
C540 C545 1.390 . S
C541 C535 1.465 . S
C541 C540 1.396 . S
C541 C542 1.399 . S
C542 H528 0.929 . S
C542 C541 1.399 . S
C542 C543 1.385 . S
C543 H529 0.931 . S
C543 C542 1.385 . S
C543 C544 1.389 . S
C544 C543 1.389 . S
C544 C545 1.387 . S
C545 H530 0.930 . S
C545 C540 1.390 . S
C545 C544 1.387 . S
H546 C558 0.930 . S
H547 C560 0.930 . S
H548 C561 0.930 . S
H549 C565 0.959 . S
H550 C565 0.959 . S
H551 C565 0.961 . S
H552 C566 0.960 . S
H553 C566 0.961 . S
H554 C566 0.959 . S
H555 C569 0.929 . S
H556 C570 0.931 . S
H557 C572 0.930 . S
C558 H546 0.930 . S
C558 C559 1.399 . S
C558 C563 1.399 1_455 S
C559 C558 1.399 . S
C559 C560 1.376 1_455 S
C560 H547 0.930 . S
C560 C559 1.376 1_655 S
C560 C561 1.388 . S
C561 H548 0.930 . S
C561 C560 1.388 . S
C561 C562 1.390 . S
C562 C561 1.390 . S
C562 C563 1.394 . S
C562 C568 1.465 . S
C563 C558 1.399 1_655 S
C563 C562 1.394 . S
C563 C564 1.516 . S
C564 C563 1.516 . S
C564 C565 1.502 1_655 S
C564 C566 1.561 . S
C564 C567 1.526 . S
C565 H549 0.959 . S
C565 H550 0.959 . S
C565 H551 0.961 . S
C565 C564 1.502 1_455 S
C566 H552 0.960 . S
C566 H553 0.961 . S
C566 H554 0.959 . S
C566 C564 1.561 . S
C567 C564 1.526 . S
C567 C568 1.396 . S
C567 C572 1.390 . S
C568 C562 1.465 . S
C568 C567 1.396 . S
C568 C569 1.399 . S
C569 H555 0.929 . S
C569 C568 1.399 . S
C569 C570 1.385 . S
C570 H556 0.931 . S
C570 C569 1.385 . S
C570 C571 1.389 . S
C571 C570 1.389 . S
C571 C572 1.387 . S
C572 H557 0.930 . S
C572 C567 1.390 . S
C572 C571 1.387 . S
H573 C585 0.930 . S
H574 C587 0.930 . S
H575 C588 0.930 . S
H576 C592 0.959 . S
H577 C592 0.959 . S
H578 C592 0.961 . S
H579 C593 0.960 . S
H580 C593 0.961 . S
H581 C593 0.959 . S
H582 C596 0.929 . S
H583 C597 0.931 . S
H584 C599 0.930 . S
C585 H573 0.930 . S
C585 C586 1.399 . S
C585 C590 1.399 1_545 S
C586 C585 1.399 . S
C586 C587 1.376 . S
C587 H574 0.930 . S
C587 C586 1.376 . S
C587 C588 1.388 1_545 S
C588 H575 0.930 . S
C588 C587 1.388 1_565 S
C588 C589 1.390 . S
C589 C588 1.390 . S
C589 C590 1.394 . S
C589 C595 1.465 . S
C590 C585 1.399 1_565 S
C590 C589 1.394 . S
C590 C591 1.516 . S
C591 C590 1.516 . S
C591 C592 1.502 . S
C591 C593 1.561 1_565 S
C591 C594 1.526 . S
C592 H576 0.959 . S
C592 H577 0.959 . S
C592 H578 0.961 . S
C592 C591 1.502 . S
C593 H579 0.960 . S
C593 H580 0.961 . S
C593 H581 0.959 . S
C593 C591 1.561 1_545 S
C594 C591 1.526 . S
C594 C595 1.396 . S
C594 C599 1.390 . S
C595 C589 1.465 . S
C595 C594 1.396 . S
C595 C596 1.399 . S
C596 H582 0.929 . S
C596 C595 1.399 . S
C596 C597 1.385 . S
C597 H583 0.931 . S
C597 C596 1.385 . S
C597 C598 1.389 . S
C598 C597 1.389 . S
C598 C599 1.387 . S
C599 H584 0.930 . S
C599 C594 1.390 . S
C599 C598 1.387 . S
H600 C612 0.930 . S
H601 C614 0.930 . S
H602 C615 0.930 . S
H603 C619 0.959 . S
H604 C619 0.959 . S
H605 C619 0.961 . S
H606 C620 0.960 . S
H607 C620 0.961 . S
H608 C620 0.959 . S
H609 C623 0.929 . S
H610 C624 0.931 . S
H611 C626 0.930 . S
C612 H600 0.930 . S
C612 C613 1.399 . S
C612 C617 1.399 . S
C613 C612 1.399 . S
C613 C614 1.376 . S
C614 H601 0.930 . S
C614 C613 1.376 . S
C614 C615 1.388 . S
C615 H602 0.930 . S
C615 C614 1.388 . S
C615 C616 1.390 . S
C616 C615 1.390 . S
C616 C617 1.394 . S
C616 C622 1.465 . S
C617 C612 1.399 . S
C617 C616 1.394 . S
C617 C618 1.516 . S
C618 C617 1.516 . S
C618 C619 1.502 . S
C618 C620 1.561 . S
C618 C621 1.526 . S
C619 H603 0.959 . S
C619 H604 0.959 . S
C619 H605 0.961 . S
C619 C618 1.502 . S
C620 H606 0.960 . S
C620 H607 0.961 . S
C620 H608 0.959 . S
C620 C618 1.561 . S
C621 C618 1.526 . S
C621 C622 1.396 . S
C621 C626 1.390 . S
C622 C616 1.465 . S
C622 C621 1.396 . S
C622 C623 1.399 . S
C623 H609 0.929 . S
C623 C622 1.399 . S
C623 C624 1.385 . S
C624 H610 0.931 . S
C624 C623 1.385 . S
C624 C625 1.389 . S
C625 C624 1.389 . S
C625 C626 1.387 . S
C626 H611 0.930 . S
C626 C621 1.390 . S
C626 C625 1.387 . S
H627 C639 0.930 . S
H628 C641 0.930 1_655 S
H629 C642 0.930 . S
H630 C646 0.959 . S
H631 C646 0.959 . S
H632 C646 0.961 . S
H633 C647 0.960 . S
H634 C647 0.961 . S
H635 C647 0.959 . S
H636 C650 0.929 . S
H637 C651 0.931 . S
H638 C653 0.930 . S
C639 H627 0.930 . S
C639 C640 1.399 . S
C639 C644 1.399 . S
C640 C639 1.399 . S
C640 C641 1.376 . S
C641 H628 0.930 1_455 S
C641 C640 1.376 . S
C641 C642 1.388 . S
C642 H629 0.930 . S
C642 C641 1.388 . S
C642 C643 1.390 . S
C643 C642 1.390 . S
C643 C644 1.394 . S
C643 C649 1.465 . S
C644 C639 1.399 . S
C644 C643 1.394 . S
C644 C645 1.516 . S
C645 C644 1.516 . S
C645 C646 1.502 . S
C645 C647 1.561 . S
C645 C648 1.526 . S
C646 H630 0.959 . S
C646 H631 0.959 . S
C646 H632 0.961 . S
C646 C645 1.502 . S
C647 H633 0.960 . S
C647 H634 0.961 . S
C647 H635 0.959 . S
C647 C645 1.561 . S
C648 C645 1.526 . S
C648 C649 1.396 . S
C648 C653 1.390 . S
C649 C643 1.465 . S
C649 C648 1.396 . S
C649 C650 1.399 . S
C650 H636 0.929 . S
C650 C649 1.399 . S
C650 C651 1.385 . S
C651 H637 0.931 . S
C651 C650 1.385 . S
C651 C652 1.389 . S
C652 C651 1.389 . S
C652 C653 1.387 . S
C653 H638 0.930 . S
C653 C648 1.390 . S
C653 C652 1.387 . S
H654 C666 0.930 . S
H655 C668 0.930 . S
H656 C669 0.930 . S
H657 C673 0.959 . S
H658 C673 0.959 1_565 S
H659 C673 0.961 . S
H660 C674 0.960 . S
H661 C674 0.961 . S
H662 C674 0.959 1_545 S
H663 C677 0.929 . S
H664 C678 0.931 . S
H665 C680 0.930 1_565 S
C666 H654 0.930 . S
C666 C667 1.399 . S
C666 C671 1.399 . S
C667 C666 1.399 . S
C667 C668 1.376 . S
C668 H655 0.930 . S
C668 C667 1.376 . S
C668 C669 1.388 . S
C669 H656 0.930 . S
C669 C668 1.388 . S
C669 C670 1.390 . S
C670 C669 1.390 . S
C670 C671 1.394 . S
C670 C676 1.465 . S
C671 C666 1.399 . S
C671 C670 1.394 . S
C671 C672 1.516 . S
C672 C671 1.516 . S
C672 C673 1.502 . S
C672 C674 1.561 1_545 S
C672 C675 1.526 . S
C673 H657 0.959 . S
C673 H658 0.959 1_545 S
C673 H659 0.961 . S
C673 C672 1.502 . S
C674 H660 0.960 . S
C674 H661 0.961 . S
C674 H662 0.959 1_565 S
C674 C672 1.561 1_565 S
C675 C672 1.526 . S
C675 C676 1.396 . S
C675 C680 1.390 . S
C676 C670 1.465 . S
C676 C675 1.396 . S
C676 C677 1.399 . S
C677 H663 0.929 . S
C677 C676 1.399 . S
C677 C678 1.385 . S
C678 H664 0.931 . S
C678 C677 1.385 . S
C678 C679 1.389 . S
C679 C678 1.389 . S
C679 C680 1.387 . S
C680 H665 0.930 1_545 S
C680 C675 1.390 . S
C680 C679 1.387 . S
H681 C693 0.930 . S
H682 C695 0.930 . S
H683 C696 0.930 . S
H684 C700 0.959 . S
H685 C700 0.959 . S
H686 C700 0.961 . S
H687 C701 0.960 . S
H688 C701 0.961 . S
H689 C701 0.959 . S
H690 C704 0.929 . S
H691 C705 0.931 . S
H692 C707 0.930 . S
C693 H681 0.930 . S
C693 C694 1.399 . S
C693 C698 1.399 . S
C694 C693 1.399 . S
C694 C695 1.376 . S
C695 H682 0.930 . S
C695 C694 1.376 . S
C695 C696 1.388 . S
C696 H683 0.930 . S
C696 C695 1.388 . S
C696 C697 1.390 . S
C697 C696 1.390 . S
C697 C698 1.394 . S
C697 C703 1.465 . S
C698 C693 1.399 . S
C698 C697 1.394 . S
C698 C699 1.516 . S
C699 C698 1.516 . S
C699 C700 1.502 . S
C699 C701 1.561 . S
C699 C702 1.526 . S
C700 H684 0.959 . S
C700 H685 0.959 . S
C700 H686 0.961 . S
C700 C699 1.502 . S
C701 H687 0.960 . S
C701 H688 0.961 . S
C701 H689 0.959 . S
C701 C699 1.561 . S
C702 C699 1.526 . S
C702 C703 1.396 . S
C702 C707 1.390 . S
C703 C697 1.465 . S
C703 C702 1.396 . S
C703 C704 1.399 . S
C704 H690 0.929 . S
C704 C703 1.399 . S
C704 C705 1.385 . S
C705 H691 0.931 . S
C705 C704 1.385 . S
C705 C706 1.389 . S
C706 C705 1.389 . S
C706 C707 1.387 . S
C707 H692 0.930 . S
C707 C702 1.390 . S
C707 C706 1.387 . S
H708 C720 0.930 . S
H709 C722 0.930 . S
H710 C723 0.930 . S
H711 C727 0.959 . S
H712 C727 0.959 . S
H713 C727 0.961 . S
H714 C728 0.960 . S
H715 C728 0.961 . S
H716 C728 0.959 . S
H717 C731 0.929 1_455 S
H718 C732 0.931 . S
H719 C734 0.930 . S
C720 H708 0.930 . S
C720 C721 1.399 . S
C720 C725 1.399 . S
C721 C720 1.399 . S
C721 C722 1.376 . S
C722 H709 0.930 . S
C722 C721 1.376 . S
C722 C723 1.388 . S
C723 H710 0.930 . S
C723 C722 1.388 . S
C723 C724 1.390 . S
C724 C723 1.390 . S
C724 C725 1.394 . S
C724 C730 1.465 . S
C725 C720 1.399 . S
C725 C724 1.394 . S
C725 C726 1.516 . S
C726 C725 1.516 . S
C726 C727 1.502 . S
C726 C728 1.561 . S
C726 C729 1.526 . S
C727 H711 0.959 . S
C727 H712 0.959 . S
C727 H713 0.961 . S
C727 C726 1.502 . S
C728 H714 0.960 . S
C728 H715 0.961 . S
C728 H716 0.959 . S
C728 C726 1.561 . S
C729 C726 1.526 . S
C729 C730 1.396 . S
C729 C734 1.390 . S
C730 C724 1.465 . S
C730 C729 1.396 . S
C730 C731 1.399 . S
C731 H717 0.929 1_655 S
C731 C730 1.399 . S
C731 C732 1.385 1_655 S
C732 H718 0.931 . S
C732 C731 1.385 1_455 S
C732 C733 1.389 1_455 S
C733 C732 1.389 1_655 S
C733 C734 1.387 . S
C734 H719 0.930 . S
C734 C729 1.390 . S
C734 C733 1.387 . S
H735 C747 0.930 1_545 S
H736 C749 0.930 . S
H737 C750 0.930 . S
H738 C754 0.959 . S
H739 C754 0.959 . S
H740 C754 0.961 1_545 S
H741 C755 0.960 . S
H742 C755 0.961 . S
H743 C755 0.959 . S
H744 C758 0.929 . S
H745 C759 0.931 . S
H746 C761 0.930 . S
C747 H735 0.930 1_565 S
C747 C748 1.399 . S
C747 C752 1.399 . S
C748 C747 1.399 . S
C748 C749 1.376 . S
C749 H736 0.930 . S
C749 C748 1.376 . S
C749 C750 1.388 . S
C750 H737 0.930 . S
C750 C749 1.388 . S
C750 C751 1.390 . S
C751 C750 1.390 . S
C751 C752 1.394 . S
C751 C757 1.465 . S
C752 C747 1.399 . S
C752 C751 1.394 . S
C752 C753 1.516 . S
C753 C752 1.516 . S
C753 C754 1.502 . S
C753 C755 1.561 1_565 S
C753 C756 1.526 . S
C754 H738 0.959 . S
C754 H739 0.959 . S
C754 H740 0.961 1_565 S
C754 C753 1.502 . S
C755 H741 0.960 . S
C755 H742 0.961 . S
C755 H743 0.959 . S
C755 C753 1.561 1_545 S
C756 C753 1.526 . S
C756 C757 1.396 . S
C756 C761 1.390 . S
C757 C751 1.465 . S
C757 C756 1.396 . S
C757 C758 1.399 . S
C758 H744 0.929 . S
C758 C757 1.399 . S
C758 C759 1.385 . S
C759 H745 0.931 . S
C759 C758 1.385 . S
C759 C760 1.389 . S
C760 C759 1.389 . S
C760 C761 1.387 . S
C761 H746 0.930 . S
C761 C756 1.390 . S
C761 C760 1.387 . S
H762 C774 0.930 . S
H763 C776 0.930 . S
H764 C777 0.930 . S
H765 C781 0.959 . S
H766 C781 0.959 . S
H767 C781 0.961 . S
H768 C782 0.960 . S
H769 C782 0.961 . S
H770 C782 0.959 . S
H771 C785 0.929 . S
H772 C786 0.931 . S
H773 C788 0.930 . S
C774 H762 0.930 . S
C774 C775 1.399 . S
C774 C779 1.399 . S
C775 C774 1.399 . S
C775 C776 1.376 . S
C776 H763 0.930 . S
C776 C775 1.376 . S
C776 C777 1.388 . S
C777 H764 0.930 . S
C777 C776 1.388 . S
C777 C778 1.390 . S
C778 C777 1.390 . S
C778 C779 1.394 . S
C778 C784 1.465 . S
C779 C774 1.399 . S
C779 C778 1.394 . S
C779 C780 1.516 . S
C780 C779 1.516 . S
C780 C781 1.502 . S
C780 C782 1.561 . S
C780 C783 1.526 . S
C781 H765 0.959 . S
C781 H766 0.959 . S
C781 H767 0.961 . S
C781 C780 1.502 . S
C782 H768 0.960 . S
C782 H769 0.961 . S
C782 H770 0.959 . S
C782 C780 1.561 . S
C783 C780 1.526 . S
C783 C784 1.396 . S
C783 C788 1.390 . S
C784 C778 1.465 . S
C784 C783 1.396 . S
C784 C785 1.399 . S
C785 H771 0.929 . S
C785 C784 1.399 . S
C785 C786 1.385 . S
C786 H772 0.931 . S
C786 C785 1.385 . S
C786 C787 1.389 . S
C787 C786 1.389 . S
C787 C788 1.387 . S
C788 H773 0.930 . S
C788 C783 1.390 . S
C788 C787 1.387 . S
H789 C801 0.930 1_655 S
H790 C803 0.930 . S
H791 C804 0.930 . S
H792 C808 0.959 . S
H793 C808 0.959 . S
H794 C808 0.961 . S
H795 C809 0.960 . S
H796 C809 0.961 . S
H797 C809 0.959 . S
H798 C812 0.929 . S
H799 C813 0.931 . S
H800 C815 0.930 . S
C801 H789 0.930 1_455 S
C801 C802 1.399 . S
C801 C806 1.399 . S
C802 C801 1.399 . S
C802 C803 1.376 . S
C803 H790 0.930 . S
C803 C802 1.376 . S
C803 C804 1.388 . S
C804 H791 0.930 . S
C804 C803 1.388 . S
C804 C805 1.390 . S
C805 C804 1.390 . S
C805 C806 1.394 . S
C805 C811 1.465 . S
C806 C801 1.399 . S
C806 C805 1.394 . S
C806 C807 1.516 . S
C807 C806 1.516 . S
C807 C808 1.502 1_455 S
C807 C809 1.561 . S
C807 C810 1.526 . S
C808 H792 0.959 . S
C808 H793 0.959 . S
C808 H794 0.961 . S
C808 C807 1.502 1_655 S
C809 H795 0.960 . S
C809 H796 0.961 . S
C809 H797 0.959 . S
C809 C807 1.561 . S
C810 C807 1.526 . S
C810 C811 1.396 . S
C810 C815 1.390 . S
C811 C805 1.465 . S
C811 C810 1.396 . S
C811 C812 1.399 . S
C812 H798 0.929 . S
C812 C811 1.399 . S
C812 C813 1.385 . S
C813 H799 0.931 . S
C813 C812 1.385 . S
C813 C814 1.389 . S
C814 C813 1.389 . S
C814 C815 1.387 . S
C815 H800 0.930 . S
C815 C810 1.390 . S
C815 C814 1.387 . S
H816 C828 0.930 1_565 S
H817 C830 0.930 . S
H818 C831 0.930 . S
H819 C835 0.959 . S
H820 C835 0.959 . S
H821 C835 0.969 . S
H822 C836 0.960 . S
H823 C836 0.961 . S
H824 C836 0.959 . S
H825 C839 0.929 . S
H826 C840 0.931 . S
H827 C842 0.930 . S
C828 H816 0.930 1_545 S
C828 C829 1.399 . S
C828 C833 1.399 . S
C829 C828 1.399 . S
C829 C830 1.376 . S
C830 H817 0.930 . S
C830 C829 1.376 . S
C830 C831 1.388 . S
C831 H818 0.930 . S
C831 C830 1.388 . S
C831 C832 1.390 . S
C832 C831 1.390 . S
C832 C833 1.394 . S
C832 C838 1.465 . S
C833 C828 1.399 . S
C833 C832 1.394 . S
C833 C834 1.516 . S
C834 C833 1.516 . S
C834 C835 1.502 . S
C834 C836 1.561 1_545 S
C834 C837 1.526 . S
C835 H819 0.959 . S
C835 H820 0.959 . S
C835 H821 0.969 . S
C835 C834 1.502 . S
C836 H822 0.960 . S
C836 H823 0.961 . S
C836 H824 0.959 . S
C836 C834 1.561 1_565 S
C837 C834 1.526 . S
C837 C838 1.396 . S
C837 C842 1.390 . S
C838 C832 1.465 . S
C838 C837 1.396 . S
C838 C839 1.399 . S
C839 H825 0.929 . S
C839 C838 1.399 . S
C839 C840 1.385 . S
C840 H826 0.931 . S
C840 C839 1.385 . S
C840 C841 1.389 . S
C841 C840 1.389 . S
C841 C842 1.387 . S
C842 H827 0.930 . S
C842 C837 1.390 . S
C842 C841 1.387 . S
H843 C855 0.930 . S
H844 C857 0.930 . S
H845 C858 0.930 . S
H846 C862 0.959 . S
H847 C862 0.959 . S
H848 C862 0.961 . S
H849 C863 0.960 . S
H850 C863 0.961 . S
H851 C863 0.959 . S
H852 C866 0.929 . S
H853 C867 0.931 . S
H854 C869 0.930 . S
C855 H843 0.930 . S
C855 C856 1.399 . S
C855 C860 1.399 . S
C856 C855 1.399 . S
C856 C857 1.376 . S
C857 H844 0.930 . S
C857 C856 1.376 . S
C857 C858 1.388 . S
C858 H845 0.930 . S
C858 C857 1.388 . S
C858 C859 1.390 . S
C859 C858 1.390 . S
C859 C860 1.394 . S
C859 C865 1.465 . S
C860 C855 1.399 . S
C860 C859 1.394 . S
C860 C861 1.516 . S
C861 C860 1.516 . S
C861 C862 1.502 . S
C861 C863 1.561 . S
C861 C864 1.526 . S
C862 H846 0.959 . S
C862 H847 0.959 . S
C862 H848 0.961 . S
C862 C861 1.502 . S
C863 H849 0.960 . S
C863 H850 0.961 . S
C863 H851 0.959 . S
C863 C861 1.561 . S
C864 C861 1.526 . S
C864 C865 1.396 . S
C864 C869 1.390 . S
C865 C859 1.465 . S
C865 C864 1.396 . S
C865 C866 1.399 . S
C866 H852 0.929 . S
C866 C865 1.399 . S
C866 C867 1.385 . S
C867 H853 0.931 . S
C867 C866 1.385 . S
C867 C868 1.389 . S
C868 C867 1.389 . S
C868 C869 1.387 . S
C869 H854 0.930 . S
C869 C864 1.390 . S
C869 C868 1.387 . S
H870 C882 0.930 . S
H871 C884 0.930 . S
H872 C885 0.930 . S
H873 C889 0.959 . S
H874 C889 0.959 . S
H875 C889 0.961 . S
H876 C890 0.960 . S
H877 C890 0.961 . S
H878 C890 0.959 . S
H879 C893 0.929 . S
H880 C894 0.931 . S
H881 C896 0.930 . S
C882 H870 0.930 . S
C882 C883 1.399 . S
C882 C887 1.399 . S
C883 C882 1.399 . S
C883 C884 1.376 . S
C884 H871 0.930 . S
C884 C883 1.376 . S
C884 C885 1.388 . S
C885 H872 0.930 . S
C885 C884 1.388 . S
C885 C886 1.390 . S
C886 C885 1.390 . S
C886 C887 1.394 . S
C886 C892 1.465 . S
C887 C882 1.399 . S
C887 C886 1.394 . S
C887 C888 1.516 . S
C888 C887 1.516 . S
C888 C889 1.502 . S
C888 C890 1.561 1_655 S
C888 C891 1.526 . S
C889 H873 0.959 . S
C889 H874 0.959 . S
C889 H875 0.961 . S
C889 C888 1.502 . S
C890 H876 0.960 . S
C890 H877 0.961 . S
C890 H878 0.959 . S
C890 C888 1.561 1_455 S
C891 C888 1.526 . S
C891 C892 1.396 . S
C891 C896 1.390 . S
C892 C886 1.465 . S
C892 C891 1.396 . S
C892 C893 1.399 . S
C893 H879 0.929 . S
C893 C892 1.399 . S
C893 C894 1.385 . S
C894 H880 0.931 . S
C894 C893 1.385 . S
C894 C895 1.389 . S
C895 C894 1.389 . S
C895 C896 1.387 . S
C896 H881 0.930 . S
C896 C891 1.390 . S
C896 C895 1.387 . S
H897 C909 0.930 . S
H898 C911 0.930 . S
H899 C912 0.930 . S
H900 C916 0.959 . S
H901 C916 0.959 . S
H902 C916 0.961 . S
H903 C917 0.960 . S
H904 C917 0.961 . S
H905 C917 0.959 . S
H906 C920 0.929 1_545 S
H907 C921 0.931 . S
H908 C923 0.930 . S
C909 H897 0.930 . S
C909 C910 1.399 . S
C909 C914 1.399 . S
C910 C909 1.399 . S
C910 C911 1.376 . S
C911 H898 0.930 . S
C911 C910 1.376 . S
C911 C912 1.388 . S
C912 H899 0.930 . S
C912 C911 1.388 . S
C912 C913 1.390 . S
C913 C912 1.390 . S
C913 C914 1.394 . S
C913 C919 1.465 . S
C914 C909 1.399 . S
C914 C913 1.394 . S
C914 C915 1.516 . S
C915 C914 1.516 . S
C915 C916 1.502 . S
C915 C917 1.561 . S
C915 C918 1.526 . S
C916 H900 0.959 . S
C916 H901 0.959 . S
C916 H902 0.961 . S
C916 C915 1.502 . S
C917 H903 0.960 . S
C917 H904 0.961 . S
C917 H905 0.959 . S
C917 C915 1.561 . S
C918 C915 1.526 . S
C918 C919 1.396 . S
C918 C923 1.390 . S
C919 C913 1.465 . S
C919 C918 1.396 . S
C919 C920 1.399 . S
C920 H906 0.929 1_565 S
C920 C919 1.399 . S
C920 C921 1.385 1_565 S
C921 H907 0.931 . S
C921 C920 1.385 1_545 S
C921 C922 1.389 1_545 S
C922 C921 1.389 1_565 S
C922 C923 1.387 . S
C923 H908 0.930 . S
C923 C918 1.390 . S
C923 C922 1.387 . S
H924 C936 0.930 . S
H925 C938 0.930 1_565 S
H926 C939 0.930 . S
H927 C943 0.959 . S
H928 C943 0.959 . S
H929 C943 0.961 . S
H930 C944 0.960 . S
H931 C944 0.961 . S
H932 C944 0.959 . S
H933 C947 0.929 . S
H934 C948 0.931 . S
H935 C950 0.930 . S
C936 H924 0.930 . S
C936 C937 1.399 . S
C936 C941 1.399 . S
C937 C936 1.399 . S
C937 C938 1.376 . S
C938 H925 0.930 1_545 S
C938 C937 1.376 . S
C938 C939 1.388 . S
C939 H926 0.930 . S
C939 C938 1.388 . S
C939 C940 1.390 . S
C940 C939 1.390 . S
C940 C941 1.394 . S
C940 C946 1.465 . S
C941 C936 1.399 . S
C941 C940 1.394 . S
C941 C942 1.516 . S
C942 C941 1.516 . S
C942 C943 1.502 . S
C942 C944 1.561 . S
C942 C945 1.526 . S
C943 H927 0.959 . S
C943 H928 0.959 . S
C943 H929 0.961 . S
C943 C942 1.502 . S
C944 H930 0.960 . S
C944 H931 0.961 . S
C944 H932 0.959 . S
C944 C942 1.561 . S
C945 C942 1.526 . S
C945 C946 1.396 . S
C945 C950 1.390 . S
C946 C940 1.465 . S
C946 C945 1.396 . S
C946 C947 1.399 . S
C947 H933 0.929 . S
C947 C946 1.399 . S
C947 C948 1.385 . S
C948 H934 0.931 . S
C948 C947 1.385 . S
C948 C949 1.389 . S
C949 C948 1.389 . S
C949 C950 1.387 . S
C950 H935 0.930 . S
C950 C945 1.390 . S
C950 C949 1.387 . S
H951 C963 0.930 . S
H952 C965 0.930 . S
H953 C966 0.930 . S
H954 C970 0.959 . S
H955 C970 0.959 . S
H956 C970 0.961 . S
H957 C971 0.960 . S
H958 C971 0.961 . S
H959 C971 0.959 . S
H960 C974 0.929 . S
H961 C975 0.931 . S
H962 C977 0.930 . S
C963 H951 0.930 . S
C963 C964 1.399 . S
C963 C968 1.399 . S
C964 C963 1.399 . S
C964 C965 1.376 . S
C965 H952 0.930 . S
C965 C964 1.376 . S
C965 C966 1.388 . S
C966 H953 0.930 . S
C966 C965 1.388 . S
C966 C967 1.390 . S
C967 C966 1.390 . S
C967 C968 1.394 . S
C967 C973 1.465 . S
C968 C963 1.399 . S
C968 C967 1.394 . S
C968 C969 1.516 . S
C969 C968 1.516 . S
C969 C970 1.502 . S
C969 C971 1.561 . S
C969 C972 1.526 . S
C970 H954 0.959 . S
C970 H955 0.959 . S
C970 H956 0.961 . S
C970 C969 1.502 . S
C971 H957 0.960 . S
C971 H958 0.961 . S
C971 H959 0.959 . S
C971 C969 1.561 . S
C972 C969 1.526 . S
C972 C973 1.396 . S
C972 C977 1.390 . S
C973 C967 1.465 . S
C973 C972 1.396 . S
C973 C974 1.399 . S
C974 H960 0.929 . S
C974 C973 1.399 . S
C974 C975 1.385 . S
C975 H961 0.931 . S
C975 C974 1.385 . S
C975 C976 1.389 . S
C976 C975 1.389 . S
C976 C977 1.387 . S
C977 H962 0.930 . S
C977 C972 1.390 . S
C977 C976 1.387 . S
H978 C990 0.930 . S
H979 C992 0.930 . S
H980 C993 0.930 . S
H981 C997 0.959 . S
H982 C997 0.959 . S
H983 C997 0.961 . S
H984 C998 0.960 . S
H985 C998 0.961 . S
H986 C998 0.959 . S
H987 C1001 0.929 . S
H988 C1002 0.931 . S
H989 C1004 0.930 . S
C990 H978 0.930 . S
C990 C991 1.399 . S
C990 C995 1.399 . S
C991 C990 1.399 . S
C991 C992 1.376 . S
C992 H979 0.930 . S
C992 C991 1.376 . S
C992 C993 1.388 . S
C993 H980 0.930 . S
C993 C992 1.388 . S
C993 C994 1.390 . S
C994 C993 1.390 . S
C994 C995 1.394 . S
C994 C1000 1.465 . S
C995 C990 1.399 . S
C995 C994 1.394 . S
C995 C996 1.516 . S
C996 C995 1.516 . S
C996 C997 1.502 . S
C996 C998 1.561 . S
C996 C999 1.526 . S
C997 H981 0.959 . S
C997 H982 0.959 . S
C997 H983 0.961 . S
C997 C996 1.502 . S
C998 H984 0.960 . S
C998 H985 0.961 . S
C998 H986 0.959 . S
C998 C996 1.561 . S
C999 C996 1.526 . S
C999 C1000 1.396 . S
C999 C1004 1.390 . S
C1000 C994 1.465 . S
C1000 C999 1.396 . S
C1000 C1001 1.399 . S
C1001 H987 0.929 . S
C1001 C1000 1.399 . S
C1001 C1002 1.385 . S
C1002 H988 0.931 . S
C1002 C1001 1.385 . S
C1002 C1003 1.389 . S
C1003 C1002 1.389 . S
C1003 C1004 1.387 . S
C1004 H989 0.930 . S
C1004 C999 1.390 . S
C1004 C1003 1.387 . S
H1005 C1017 0.930 . S
H1006 C1019 0.930 . S
H1007 C1020 0.930 . S
H1008 C1024 0.959 . S
H1009 C1024 0.959 . S
H1010 C1024 0.961 . S
H1011 C1025 0.960 . S
H1012 C1025 0.961 . S
H1013 C1025 0.959 . S
H1014 C1028 0.929 . S
H1015 C1029 0.931 1_545 S
H1016 C1031 0.930 . S
C1017 H1005 0.930 . S
C1017 C1018 1.399 . S
C1017 C1022 1.399 . S
C1018 C1017 1.399 . S
C1018 C1019 1.376 . S
C1019 H1006 0.930 . S
C1019 C1018 1.376 . S
C1019 C1020 1.388 . S
C1020 H1007 0.930 . S
C1020 C1019 1.388 . S
C1020 C1021 1.390 . S
C1021 C1020 1.390 . S
C1021 C1022 1.394 . S
C1021 C1027 1.465 . S
C1022 C1017 1.399 . S
C1022 C1021 1.394 . S
C1022 C1023 1.516 . S
C1023 C1022 1.516 . S
C1023 C1024 1.502 . S
C1023 C1025 1.561 . S
C1023 C1026 1.526 . S
C1024 H1008 0.959 . S
C1024 H1009 0.959 . S
C1024 H1010 0.961 . S
C1024 C1023 1.502 . S
C1025 H1011 0.960 . S
C1025 H1012 0.961 . S
C1025 H1013 0.959 . S
C1025 C1023 1.561 . S
C1026 C1023 1.526 . S
C1026 C1027 1.396 . S
C1026 C1031 1.390 . S
C1027 C1021 1.465 . S
C1027 C1026 1.396 . S
C1027 C1028 1.399 . S
C1028 H1014 0.929 . S
C1028 C1027 1.399 . S
C1028 C1029 1.385 . S
C1029 H1015 0.931 1_565 S
C1029 C1028 1.385 . S
C1029 C1030 1.389 . S
C1030 C1029 1.389 . S
C1030 C1031 1.387 . S
C1031 H1016 0.930 . S
C1031 C1026 1.390 . S
C1031 C1030 1.387 . S
H1032 C1044 0.930 . S
H1033 C1046 0.930 . S
H1034 C1047 0.930 . S
H1035 C1051 0.959 . S
H1036 C1051 0.959 . S
H1037 C1051 0.961 . S
H1038 C1052 0.960 . S
H1039 C1052 0.961 . S
H1040 C1052 0.959 . S
H1041 C1055 0.929 . S
H1042 C1056 0.931 . S
H1043 C1058 0.930 . S
C1044 H1032 0.930 . S
C1044 C1045 1.399 . S
C1044 C1049 1.399 . S
C1045 C1044 1.399 . S
C1045 C1046 1.376 . S
C1046 H1033 0.930 . S
C1046 C1045 1.376 . S
C1046 C1047 1.388 . S
C1047 H1034 0.930 . S
C1047 C1046 1.388 . S
C1047 C1048 1.390 . S
C1048 C1047 1.390 . S
C1048 C1049 1.394 . S
C1048 C1054 1.465 . S
C1049 C1044 1.399 . S
C1049 C1048 1.394 . S
C1049 C1050 1.516 . S
C1050 C1049 1.516 . S
C1050 C1051 1.502 . S
C1050 C1052 1.561 . S
C1050 C1053 1.526 . S
C1051 H1035 0.959 . S
C1051 H1036 0.959 . S
C1051 H1037 0.961 . S
C1051 C1050 1.502 . S
C1052 H1038 0.960 . S
C1052 H1039 0.961 . S
C1052 H1040 0.959 . S
C1052 C1050 1.561 . S
C1053 C1050 1.526 . S
C1053 C1054 1.396 . S
C1053 C1058 1.390 . S
C1054 C1048 1.465 . S
C1054 C1053 1.396 . S
C1054 C1055 1.399 . S
C1055 H1041 0.929 . S
C1055 C1054 1.399 . S
C1055 C1056 1.385 . S
C1056 H1042 0.931 . S
C1056 C1055 1.385 . S
C1056 C1057 1.389 . S
C1057 C1056 1.389 . S
C1057 C1058 1.387 . S
C1058 H1043 0.930 . S
C1058 C1053 1.390 . S
C1058 C1057 1.387 . S
H1059 C1071 0.930 . S
H1060 C1073 0.930 . S
H1061 C1074 0.930 . S
H1062 C1078 0.959 . S
H1063 C1078 0.959 . S
H1064 C1078 0.961 . S
H1065 C1079 0.960 . S
H1066 C1079 0.961 . S
H1067 C1079 0.959 . S
H1068 C1082 0.929 . S
H1069 C1083 0.931 . S
H1070 C1085 0.930 . S
C1071 H1059 0.930 . S
C1071 C1072 1.399 . S
C1071 C1076 1.399 . S
C1072 C1071 1.399 . S
C1072 C1073 1.376 . S
C1073 H1060 0.930 . S
C1073 C1072 1.376 . S
C1073 C1074 1.388 . S
C1074 H1061 0.930 . S
C1074 C1073 1.388 . S
C1074 C1075 1.390 . S
C1075 C1074 1.390 . S
C1075 C1076 1.394 . S
C1075 C1081 1.465 . S
C1076 C1071 1.399 . S
C1076 C1075 1.394 . S
C1076 C1077 1.516 . S
C1077 C1076 1.516 . S
C1077 C1078 1.502 . S
C1077 C1079 1.561 . S
C1077 C1080 1.526 . S
C1078 H1062 0.959 . S
C1078 H1063 0.959 . S
C1078 H1064 0.961 . S
C1078 C1077 1.502 . S
C1079 H1065 0.960 . S
C1079 H1066 0.961 . S
C1079 H1067 0.959 . S
C1079 C1077 1.561 . S
C1080 C1077 1.526 . S
C1080 C1081 1.396 . S
C1080 C1085 1.390 . S
C1081 C1075 1.465 . S
C1081 C1080 1.396 . S
C1081 C1082 1.399 . S
C1082 H1068 0.929 . S
C1082 C1081 1.399 . S
C1082 C1083 1.385 . S
C1083 H1069 0.931 . S
C1083 C1082 1.385 . S
C1083 C1084 1.389 . S
C1084 C1083 1.389 . S
C1084 C1085 1.387 . S
C1085 H1070 0.930 . S
C1085 C1080 1.390 . S
C1085 C1084 1.387 . S
H1086 C1098 0.930 . S
H1087 C1100 0.930 . S
H1088 C1101 0.930 . S
H1089 C1105 0.959 . S
H1090 C1105 0.959 . S
H1091 C1105 0.961 1_545 S
H1092 C1106 0.960 1_545 S
H1093 C1106 0.961 . S
H1094 C1106 0.959 . S
H1095 C1109 0.929 . S
H1096 C1110 0.931 . S
H1097 C1112 0.930 . S
C1098 H1086 0.930 . S
C1098 C1099 1.399 . S
C1098 C1103 1.399 . S
C1099 C1098 1.399 . S
C1099 C1100 1.376 1_554 S
C1100 H1087 0.930 . S
C1100 C1099 1.376 1_556 S
C1100 C1101 1.388 . S
C1101 H1088 0.930 . S
C1101 C1100 1.388 . S
C1101 C1102 1.390 . S
C1102 C1101 1.390 . S
C1102 C1103 1.394 1_556 S
C1102 C1108 1.465 1_445 S
C1103 C1098 1.399 . S
C1103 C1102 1.394 1_554 S
C1103 C1104 1.516 1_545 S
C1104 C1103 1.516 1_565 S
C1104 C1105 1.502 . S
C1104 C1106 1.561 1_455 S
C1104 C1107 1.526 1_455 S
C1105 H1089 0.959 . S
C1105 H1090 0.959 . S
C1105 H1091 0.961 1_565 S
C1105 C1104 1.502 . S
C1106 H1092 0.960 1_565 S
C1106 H1093 0.961 . S
C1106 H1094 0.959 . S
C1106 C1104 1.561 1_655 S
C1107 C1104 1.526 1_655 S
C1107 C1108 1.396 1_554 S
C1107 C1112 1.390 . S
C1108 C1102 1.465 1_665 S
C1108 C1107 1.396 1_556 S
C1108 C1109 1.399 . S
C1109 H1095 0.929 . S
C1109 C1108 1.399 . S
C1109 C1110 1.385 . S
C1110 H1096 0.931 . S
C1110 C1109 1.385 . S
C1110 C1111 1.389 . S
C1111 C1110 1.389 . S
C1111 C1112 1.387 1_556 S
C1112 H1097 0.930 . S
C1112 C1107 1.390 . S
C1112 C1111 1.387 1_554 S
H1113 C1125 0.930 1_545 S
H1114 C1127 0.930 . S
H1115 C1128 0.930 . S
H1116 C1132 0.959 . S
H1117 C1132 0.959 . S
H1118 C1132 0.961 . S
H1119 C1133 0.960 . S
H1120 C1133 0.961 . S
H1121 C1133 0.959 1_655 S
H1122 C1136 0.929 . S
H1123 C1137 0.931 . S
H1124 C1139 0.930 . S
C1125 H1113 0.930 1_565 S
C1125 C1126 1.399 . S
C1125 C1130 1.399 1_565 S
C1126 C1125 1.399 . S
C1126 C1127 1.376 . S
C1127 H1114 0.930 . S
C1127 C1126 1.376 . S
C1127 C1128 1.388 1_455 S
C1128 H1115 0.930 . S
C1128 C1127 1.388 1_655 S
C1128 C1129 1.390 1_655 S
C1129 C1128 1.390 1_455 S
C1129 C1130 1.394 1_565 S
C1129 C1135 1.465 1_465 S
C1130 C1125 1.399 1_545 S
C1130 C1129 1.394 1_545 S
C1130 C1131 1.516 . S
C1131 C1130 1.516 . S
C1131 C1132 1.502 . S
C1131 C1133 1.561 . S
C1131 C1134 1.526 1_455 S
C1132 H1116 0.959 . S
C1132 H1117 0.959 . S
C1132 H1118 0.961 . S
C1132 C1131 1.502 . S
C1133 H1119 0.960 . S
C1133 H1120 0.961 . S
C1133 H1121 0.959 1_455 S
C1133 C1131 1.561 . S
C1134 C1131 1.526 1_655 S
C1134 C1135 1.396 . S
C1134 C1139 1.390 . S
C1135 C1129 1.465 1_645 S
C1135 C1134 1.396 . S
C1135 C1136 1.399 1_545 S
C1136 H1122 0.929 . S
C1136 C1135 1.399 1_565 S
C1136 C1137 1.385 1_565 S
C1137 H1123 0.931 . S
C1137 C1136 1.385 1_545 S
C1137 C1138 1.389 . S
C1138 C1137 1.389 . S
C1138 C1139 1.387 . S
C1139 H1124 0.930 . S
C1139 C1134 1.390 . S
C1139 C1138 1.387 . S
H1140 C1152 0.930 . S
H1141 C1154 0.930 . S
H1142 C1155 0.930 . S
H1143 C1159 0.959 . S
H1144 C1159 0.959 . S
H1145 C1159 0.961 1_455 S
H1146 C1160 0.960 1_455 S
H1147 C1160 0.961 . S
H1148 C1160 0.959 . S
H1149 C1163 0.929 . S
H1150 C1164 0.931 . S
H1151 C1166 0.930 . S
C1152 H1140 0.930 . S
C1152 C1153 1.399 . S
C1152 C1157 1.399 . S
C1153 C1152 1.399 . S
C1153 C1154 1.376 . S
C1154 H1141 0.930 . S
C1154 C1153 1.376 . S
C1154 C1155 1.388 . S
C1155 H1142 0.930 . S
C1155 C1154 1.388 . S
C1155 C1156 1.390 . S
C1156 C1155 1.390 . S
C1156 C1157 1.394 . S
C1156 C1162 1.465 1_445 S
C1157 C1152 1.399 . S
C1157 C1156 1.394 . S
C1157 C1158 1.516 1_445 S
C1158 C1157 1.516 1_665 S
C1158 C1159 1.502 1_565 S
C1158 C1160 1.561 . S
C1158 C1161 1.526 . S
C1159 H1143 0.959 . S
C1159 H1144 0.959 . S
C1159 H1145 0.961 1_655 S
C1159 C1158 1.502 1_545 S
C1160 H1146 0.960 1_655 S
C1160 H1147 0.961 . S
C1160 H1148 0.959 . S
C1160 C1158 1.561 . S
C1161 C1158 1.526 . S
C1161 C1162 1.396 . S
C1161 C1166 1.390 . S
C1162 C1156 1.465 1_665 S
C1162 C1161 1.396 . S
C1162 C1163 1.399 . S
C1163 H1149 0.929 . S
C1163 C1162 1.399 . S
C1163 C1164 1.385 . S
C1164 H1150 0.931 . S
C1164 C1163 1.385 . S
C1164 C1165 1.389 . S
C1165 C1164 1.389 . S
C1165 C1166 1.387 . S
C1166 H1151 0.930 . S
C1166 C1161 1.390 . S
C1166 C1165 1.387 . S
H1167 C1179 0.930 . S
H1168 C1181 0.930 . S
H1169 C1182 0.927 1_655 S
H1170 C1186 0.959 . S
H1171 C1186 0.959 1_565 S
H1172 C1186 0.961 . S
H1173 C1187 0.960 . S
H1174 C1187 0.961 1_565 S
H1175 C1187 0.959 . S
H1176 C1190 0.929 . S
H1177 C1191 0.931 . S
H1178 C1193 0.930 . S
C1179 H1167 0.930 . S
C1179 C1180 1.399 . S
C1179 C1184 1.399 . S
C1180 C1179 1.399 . S
C1180 C1181 1.376 . S
C1181 H1168 0.930 . S
C1181 C1180 1.376 . S
C1181 C1182 1.389 . S
C1182 H1169 0.927 1_455 S
C1182 C1181 1.389 . S
C1182 C1183 1.392 1_455 S
C1183 C1182 1.392 1_655 S
C1183 C1184 1.394 1_655 S
C1183 C1189 1.465 1_545 S
C1184 C1179 1.399 . S
C1184 C1183 1.394 1_455 S
C1184 C1185 1.517 1_455 S
C1185 C1184 1.517 1_655 S
C1185 C1186 1.488 1_655 S
C1185 C1187 1.574 . S
C1185 C1188 1.527 1_545 S
C1186 H1170 0.959 . S
C1186 H1171 0.959 1_545 S
C1186 H1172 0.961 . S
C1186 C1185 1.488 1_455 S
C1187 H1173 0.960 . S
C1187 H1174 0.961 1_545 S
C1187 H1175 0.959 . S
C1187 C1185 1.574 . S
C1188 C1185 1.527 1_565 S
C1188 C1189 1.396 . S
C1188 C1193 1.390 . S
C1189 C1183 1.465 1_565 S
C1189 C1188 1.396 . S
C1189 C1190 1.399 . S
C1190 H1176 0.929 . S
C1190 C1189 1.399 . S
C1190 C1191 1.385 . S
C1191 H1177 0.931 . S
C1191 C1190 1.385 . S
C1191 C1192 1.389 . S
C1192 C1191 1.389 . S
C1192 C1193 1.387 . S
C1193 H1178 0.930 . S
C1193 C1188 1.390 . S
C1193 C1192 1.387 . S
H1194 C1206 0.930 . S
H1195 C1208 0.930 . S
H1196 C1209 0.930 1_545 S
H1197 C1213 0.959 1_455 S
H1198 C1213 0.959 . S
H1199 C1213 0.961 . S
H1200 C1214 0.960 . S
H1201 C1214 0.961 . S
H1202 C1214 0.959 . S
H1203 C1217 0.929 . S
H1204 C1218 0.931 . S
H1205 C1220 0.930 . S
C1206 H1194 0.930 . S
C1206 C1207 1.399 . S
C1206 C1211 1.414 . S
C1207 C1206 1.399 . S
C1207 C1208 1.376 . S
C1208 H1195 0.930 . S
C1208 C1207 1.376 . S
C1208 C1209 1.388 . S
C1209 H1196 0.930 1_565 S
C1209 C1208 1.388 . S
C1209 C1210 1.390 . S
C1210 C1209 1.390 . S
C1210 C1211 1.391 . S
C1210 C1216 1.465 1_465 S
C1211 C1206 1.414 . S
C1211 C1210 1.391 . S
C1211 C1212 1.503 1_455 S
C1212 C1211 1.503 1_655 S
C1212 C1213 1.502 . S
C1212 C1214 1.561 . S
C1212 C1215 1.526 . S
C1213 H1197 0.959 1_655 S
C1213 H1198 0.959 . S
C1213 H1199 0.961 . S
C1213 C1212 1.502 . S
C1214 H1200 0.960 . S
C1214 H1201 0.961 . S
C1214 H1202 0.959 . S
C1214 C1212 1.561 . S
C1215 C1212 1.526 . S
C1215 C1216 1.396 1_565 S
C1215 C1220 1.390 1_565 S
C1216 C1210 1.465 1_645 S
C1216 C1215 1.396 1_545 S
C1216 C1217 1.399 . S
C1217 H1203 0.929 . S
C1217 C1216 1.399 . S
C1217 C1218 1.385 . S
C1218 H1204 0.931 . S
C1218 C1217 1.385 . S
C1218 C1219 1.389 . S
C1219 C1218 1.389 . S
C1219 C1220 1.387 . S
C1220 H1205 0.930 . S
C1220 C1215 1.390 1_545 S
C1220 C1219 1.387 . S
H1221 C1233 0.930 . S
H1222 C1235 0.930 1_565 S
H1223 C1236 0.930 . S
H1224 C1240 0.959 1_655 S
H1225 C1240 0.959 1_655 S
H1226 C1240 0.961 . S
H1227 C1241 0.960 . S
H1228 C1241 0.961 1_655 S
H1229 C1241 0.959 1_565 S
H1230 C1244 0.929 . S
H1231 C1245 0.931 . S
H1232 C1247 0.930 . S
C1233 H1221 0.930 . S
C1233 C1234 1.399 . S
C1233 C1238 1.399 . S
C1234 C1233 1.399 . S
C1234 C1235 1.376 . S
C1235 H1222 0.930 1_545 S
C1235 C1234 1.376 . S
C1235 C1236 1.388 1_545 S
C1236 H1223 0.930 . S
C1236 C1235 1.388 1_565 S
C1236 C1237 1.390 . S
C1237 C1236 1.390 . S
C1237 C1238 1.394 1_565 S
C1237 C1243 1.465 1_455 S
C1238 C1233 1.399 . S
C1238 C1237 1.394 1_545 S
C1238 C1239 1.516 . S
C1239 C1238 1.516 . S
C1239 C1240 1.502 . S
C1239 C1241 1.561 . S
C1239 C1242 1.526 1_445 S
C1240 H1224 0.959 1_455 S
C1240 H1225 0.959 1_455 S
C1240 H1226 0.961 . S
C1240 C1239 1.502 . S
C1241 H1227 0.960 . S
C1241 H1228 0.961 1_455 S
C1241 H1229 0.959 1_545 S
C1241 C1239 1.561 . S
C1242 C1239 1.526 1_665 S
C1242 C1243 1.396 . S
C1242 C1247 1.390 . S
C1243 C1237 1.465 1_655 S
C1243 C1242 1.396 . S
C1243 C1244 1.399 . S
C1244 H1230 0.929 . S
C1244 C1243 1.399 . S
C1244 C1245 1.385 . S
C1245 H1231 0.931 . S
C1245 C1244 1.385 . S
C1245 C1246 1.389 . S
C1246 C1245 1.389 . S
C1246 C1247 1.387 . S
C1247 H1232 0.930 . S
C1247 C1242 1.390 . S
C1247 C1246 1.387 . S
C289 C182 1.773 1_554 S
C301 C20 1.800 . S
C316 C205 1.797 . S
C328 C43 1.793 . S
C343 C228 1.795 . S
C355 C66 1.794 . S
C370 C251 1.778 . S
C382 C89 1.802 . S
C397 C274 1.794 . S
C409 C112 1.795 . S
C424 C159 1.777 . S
C436 C135 1.803 . S
C451 C158 1.784 . S
C463 C136 1.804 . S
C478 C181 1.783 . S
C490 C21 1.805 . S
C505 C204 1.786 . S
C517 C44 1.800 . S
C532 C227 1.808 . S
C544 C67 1.776 . S
C559 C250 1.783 . S
C571 C90 1.804 . S
C586 C273 1.805 . S
C598 C113 1.780 . S
C613 C17 1.320 . S
C625 C131 1.309 . S
C640 C40 1.304 . S
C652 C16 1.270 . S
C667 C39 1.290 . S
C679 C63 1.311 . S
C694 C62 1.317 . S
C706 C86 1.322 . S
C721 C85 1.275 . S
C733 C109 1.309 . S
C748 C132 1.324 . S
C760 C108 1.321 . S
C775 C155 1.301 . S
C787 C177 1.274 . S
C802 C178 1.315 . S
C814 C200 1.303 . S
C829 C201 1.325 . S
C841 C223 1.324 . S
C856 C224 1.301 . S
C868 C246 1.270 . S
C883 C247 1.327 . S
C895 C269 1.324 . S
C910 C154 1.308 . S
C922 C270 1.322 . S
C937 C202 0.958 . S
C949 C18 1.006 . S
C964 C41 0.975 . S
C976 C225 0.998 . S
C991 C64 1.003 . S
C1003 C248 0.958 . S
C1018 C87 0.996 . S
C1030 C271 0.978 . S
C1045 C110 0.992 . S
C1057 C156 0.964 . S
C1072 C179 1.004 . S
C1084 C133 0.958 . S
C1099 C19 0.824 . S
C1111 C180 0.713 . S
C1126 C203 0.812 . S
C1138 C42 0.757 . S
C1153 C226 0.819 . S
C1165 C65 0.690 . S
C1180 C249 0.661 . S
C1192 C88 0.786 . S
C1207 C111 0.687 . S
C1219 C272 0.818 . S
C1234 C134 0.676 . S
C1246 C157 0.733 . S
