# Generated by pormake.
# Topology rkf, (6)-cn, num edge types: 1
# Building blocks:
#     Node 0, Type 0, BuildingBlock: NUHQIS_clean_sbu_0, # of connection points: 6
#     Node 1, Type 0, BuildingBlock: NUHQIS_clean_sbu_0, # of connection points: 6
#     Node 2, Type 0, BuildingBlock: NUHQIS_clean_sbu_0, # of connection points: 6
#     Node 3, Type 0, BuildingBlock: NUHQIS_clean_sbu_0, # of connection points: 6
#     Node 4, Type 0, BuildingBlock: NUHQIS_clean_sbu_0, # of connection points: 6
#     Node 5, Type 0, BuildingBlock: NUHQIS_clean_sbu_0, # of connection points: 6
#     Edge 6, Type (0, 0), BuildingBlock: XUDNAN_clean_linker_2, # of connection points: 2
#     Edge 7, Type (0, 0), BuildingBlock: XUDNAN_clean_linker_2, # of connection points: 2
#     Edge 8, Type (0, 0), BuildingBlock: XUDNAN_clean_linker_2, # of connection points: 2
#     Edge 9, Type (0, 0), BuildingBlock: XUDNAN_clean_linker_2, # of connection points: 2
#     Edge 10, Type (0, 0), BuildingBlock: XUDNAN_clean_linker_2, # of connection points: 2
#     Edge 11, Type (0, 0), BuildingBlock: XUDNAN_clean_linker_2, # of connection points: 2
#     Edge 12, Type (0, 0), BuildingBlock: XUDNAN_clean_linker_2, # of connection points: 2
#     Edge 13, Type (0, 0), BuildingBlock: XUDNAN_clean_linker_2, # of connection points: 2
#     Edge 14, Type (0, 0), BuildingBlock: XUDNAN_clean_linker_2, # of connection points: 2
#     Edge 15, Type (0, 0), BuildingBlock: XUDNAN_clean_linker_2, # of connection points: 2
#     Edge 16, Type (0, 0), BuildingBlock: XUDNAN_clean_linker_2, # of connection points: 2
#     Edge 17, Type (0, 0), BuildingBlock: XUDNAN_clean_linker_2, # of connection points: 2
#     Edge 18, Type (0, 0), BuildingBlock: XUDNAN_clean_linker_2, # of connection points: 2
#     Edge 19, Type (0, 0), BuildingBlock: XUDNAN_clean_linker_2, # of connection points: 2
#     Edge 20, Type (0, 0), BuildingBlock: XUDNAN_clean_linker_2, # of connection points: 2
#     Edge 21, Type (0, 0), BuildingBlock: XUDNAN_clean_linker_2, # of connection points: 2
#     Edge 22, Type (0, 0), BuildingBlock: XUDNAN_clean_linker_2, # of connection points: 2
#     Edge 23, Type (0, 0), BuildingBlock: XUDNAN_clean_linker_2, # of connection points: 2
# Relax obj value: 0.706
# Max RMSD: 0.255
# Mean RMSD: 0.255
data_MOF--net-rkf--node1-NUHQIS_clean_sbu_0--edge1-XUDNAN_clean_linker_2
_symmetry_space_group_name_H-M    P1
_symmetry_Int_Tables_number       1
_symmetry_cell_setting            triclinic
loop_
_symmetry_equiv_pos_as_xyz
'x, y, z'
_cell_length_a     25.285241
_cell_length_b     25.64219
_cell_length_c     42.814565
_cell_angle_alpha  89.752681
_cell_angle_beta   91.450859
_cell_angle_gamma 119.83591
loop_
_atom_site_label
_atom_site_type_symbol
_atom_site_fract_x
_atom_site_fract_y
_atom_site_fract_z
_atom_type_partial_charge
Tb0 Tb 0.39503 0.16919 0.21733 0.0
Eu1 Eu 0.41071 0.28283 0.17706 0.0
C2 C 0.27851 0.16264 0.18563 0.0
C3 C 0.37807 0.15927 1.14061 0.0
C4 C 0.37818 0.02751 0.25565 0.0
C5 C 0.34908 0.95235 0.29581 0.0
C6 C 0.37933 0.01213 0.28687 0.0
C7 C 0.3483 -0.01797 0.23295 0.0
C8 C 0.31834 0.92145 0.24188 0.0
C9 C 0.31759 0.90594 0.27358 0.0
C10 C 0.40626 0.09167 0.24869 0.0
O11 O 0.48377 0.24865 0.22194 0.0
O12 O 0.49438 0.27375 1.1721 0.0
O13 O 0.40521 0.30323 0.22874 0.0
O14 O 0.36092 0.20963 0.25044 0.0
C15 C 0.51807 0.26581 0.19771 0.0
O16 O 0.47245 0.37896 1.17142 0.0
O17 O 0.38622 0.3349 1.14551 0.0
O18 O 0.30885 0.21999 0.178 0.0
O19 O 0.30338 0.13439 0.19995 0.0
O20 O 0.38002 0.13583 1.16814 0.0
O21 O 0.39042 0.2155 1.13802 0.0
C22 C 0.37734 0.2669 0.25222 0.0
O23 O 0.43075 0.11067 0.22154 0.0
O24 O 0.37644 0.11791 0.25782 0.0
C25 C 0.4697 0.41539 1.12137 0.0
C26 C 0.52145 0.47212 1.06478 0.0
C27 C 0.5105 0.41361 1.07104 0.0
C28 C 0.48496 0.38558 1.0991 0.0
C29 C 0.4832 0.47467 1.11606 0.0
C30 C 0.50898 0.50293 1.08798 0.0
C31 C 0.43835 0.38436 1.14974 0.0
H32 H 0.34809 0.94318 0.32055 0.0
H33 H 0.40192 0.04674 0.3047 0.0
H34 H 0.34696 -0.00673 0.20864 0.0
H35 H 0.29471 0.88701 0.22413 0.0
H36 H 0.51828 0.38795 1.05356 0.0
H37 H 0.47514 0.33985 1.10298 0.0
H38 H 0.47224 0.49848 1.13325 0.0
H39 H 0.51717 0.54806 1.08397 0.0
Tb40 Tb 0.23975 0.30908 0.52961 0.0
Eu41 Eu 0.24924 0.43756 0.51463 0.0
C42 C 0.1348 0.31628 0.49456 0.0
C43 C 0.27976 0.3654 0.46208 0.0
C44 C 0.28428 0.20031 0.55641 0.0
C45 C 0.34894 0.21119 0.60161 0.0
C46 C 0.30104 0.2161 0.58793 0.0
C47 C 0.31579 0.17854 0.53902 0.0
C48 C 0.36416 0.174 0.5527 0.0
C49 C 0.38175 0.19098 0.58407 0.0
C50 C 0.23836 0.21166 0.5407 0.0
O51 O 0.33587 0.37464 0.53494 0.0
O52 O 0.32861 0.45756 0.54698 0.0
O53 O 0.19459 0.4027 0.5591 0.0
O54 O 0.22991 0.34054 0.57597 0.0
C55 C 0.36004 0.42952 0.54605 0.0
O56 O 0.30214 0.53225 0.50212 0.0
O57 O 0.20596 0.49275 0.51116 0.0
O58 O 0.17377 0.3689 0.48373 0.0
O59 O 0.14893 0.29438 0.51908 0.0
O60 O 0.24771 0.31617 0.47835 0.0
O61 O 0.29425 0.41845 0.47398 0.0
C62 C 0.20056 0.37004 0.58137 0.0
O63 O 0.21107 0.23263 0.55777 0.0
O64 O 0.25519 0.24016 0.51446 0.0
C65 C 0.24488 0.56123 0.46914 0.0
C66 C 0.22803 0.58134 0.4058 0.0
C67 C 0.28694 0.60844 0.41956 0.0
C68 C 0.29528 0.59855 0.45096 0.0
C69 C 0.18585 0.53988 0.4563 0.0
C70 C 0.17753 0.54976 0.42494 0.0
C71 C 0.25398 0.53848 0.4995 0.0
H72 H 0.35981 0.22274 0.62614 0.0
H73 H 0.27781 0.23307 0.60202 0.0
H74 H 0.30387 0.16634 0.51461 0.0
H75 H 0.38828 0.15802 0.53861 0.0
H76 H 0.32671 0.63418 0.40555 0.0
H77 H 0.34133 0.61683 0.46041 0.0
H78 H 0.14591 0.51194 0.4698 0.0
H79 H 0.13149 0.52817 0.41517 0.0
Tb80 Tb 0.06925 0.26661 0.86602 0.0
Eu81 Eu 0.95157 0.28496 0.85837 0.0
C82 C 0.94592 0.16556 0.83984 0.0
C83 C 0.04181 0.30485 0.79928 0.0
C84 C 0.22729 0.29601 0.86905 0.0
C85 C 0.33117 0.32236 0.88289 0.0
C86 C 0.26966 0.279 0.87888 0.0
C87 C 0.24775 0.35581 0.86037 0.0
C88 C 0.3092 0.39933 0.8646 0.0
C89 C 0.35093 0.3835 0.87747 0.0
C90 C 0.16215 0.25493 0.87379 0.0
O91 O 0.10487 0.36299 0.8639 0.0
O92 O 0.02431 0.35983 0.88767 0.0
O93 O 0.93454 0.23174 0.90391 0.0
O94 O 0.03445 0.2585 0.91332 0.0
C95 C 0.08103 0.39009 0.87909 0.0
O96 O 0.91962 0.34936 0.8536 0.0
O97 O 0.85404 0.25427 0.85606 0.0
O98 O 0.93305 0.2055 0.82873 0.0
O99 O -0.01367 0.17987 0.86274 0.0
O100 O 0.06615 0.27784 0.81538 0.0
O101 O 0.00325 0.31865 0.81236 0.0
C102 C -0.02216 0.23441 0.92287 0.0
O103 O 0.13921 0.27249 0.89549 0.0
O104 O 0.12654 0.23579 0.84897 0.0
C105 C 0.83316 0.31277 0.81996 0.0
C106 C 0.80635 0.31899 0.75635 0.0
C107 C 0.84212 0.37197 0.7738 0.0
C108 C 0.8554 0.3689 0.80541 0.0
C109 C 0.79017 0.2608 0.80373 0.0
C110 C 0.77701 0.26383 0.7722 0.0
C111 C 0.86271 0.30771 0.84919 0.0
H112 H 0.36189 0.3087 0.8932 0.0
H113 H 0.25455 0.23311 0.88582 0.0
H114 H 0.21552 0.36969 0.8527 0.0
H115 H 0.32313 0.44598 0.86014 0.0
H116 H 0.86415 0.41527 0.76244 0.0
H117 H 0.88734 0.41002 0.81763 0.0
H118 H 0.77094 0.21698 0.81446 0.0
H119 H 0.74904 0.22187 0.75971 0.0
Tb120 Tb 0.89632 0.07165 0.21124 0.0
Eu121 Eu 0.75813 0.97316 0.19007 0.0
C122 C 0.86592 0.95195 0.18057 0.0
C123 C 0.85625 0.06692 1.13885 0.0
C124 C 0.04787 0.20671 0.2273 0.0
C125 C 0.13015 0.29517 0.25252 0.0
C126 C 0.09734 0.23294 0.2485 0.0
C127 C 0.0347 0.24345 0.20807 0.0
C128 C 0.068 0.30601 0.21183 0.0
C129 C 0.11417 0.33247 0.23523 0.0
C130 C 0.0044 0.14239 0.22995 0.0
O131 O 0.85155 0.12375 0.20095 0.0
O132 O 0.75784 0.04981 0.21535 0.0
O133 O 0.7781 0.94355 0.23804 0.0
O134 O 0.84646 0.03847 0.25419 0.0
C135 C 0.79549 0.1063 0.20895 0.0
O136 O 0.66732 0.95263 1.17381 0.0
O137 O 0.68358 0.88049 0.18805 0.0
O138 O 0.81961 0.94913 1.16504 0.0
O139 O 0.88227 -0.01902 0.20733 0.0
O140 O 0.89891 0.08556 1.1611 0.0
O141 O 0.79834 0.02751 1.14466 0.0
C142 C 0.81142 -0.01855 0.26065 0.0
O143 O 0.95618 0.1302 0.24563 0.0
O144 O -0.00929 0.10941 0.2047 0.0
C145 C 0.61485 0.86072 1.14533 0.0
C146 C 0.58447 0.80735 1.08551 0.0
C147 C 0.585 0.86161 1.09104 0.0
C148 C 0.60026 0.88822 1.12071 0.0
C149 C 0.60598 0.80268 1.14075 0.0
C150 C 0.59116 0.77629 1.11107 0.0
C151 C 0.64561 0.89451 1.17432 0.0
H152 H 0.16451 0.31315 0.27112 0.0
H153 H 0.10769 0.20509 0.2637 0.0
H154 H -0.00371 0.22367 0.19163 0.0
H155 H 0.05511 0.33328 0.19774 0.0
H156 H 0.57875 0.88593 1.07189 0.0
H157 H 0.6048 0.93219 1.12372 0.0
H158 H 0.61525 0.77964 1.15952 0.0
H159 H 0.59109 0.73441 1.10772 0.0
Tb160 Tb 0.85953 0.86807 0.54852 0.0
Eu161 Eu 0.92966 0.7966 0.5235 0.0
C162 C -0.01577 0.93615 0.52058 0.0
C163 C 0.86597 0.84966 0.47397 0.0
C164 C 0.81354 -0.01947 0.57754 0.0
C165 C 0.77525 0.05015 0.58026 0.0
C166 C 0.76899 -0.00401 0.56987 0.0
C167 C 0.86495 0.01992 0.59565 0.0
C168 C 0.87109 0.07425 0.60635 0.0
C169 C 0.82613 0.08982 0.59876 0.0
C170 C 0.80724 0.92615 0.56316 0.0
O171 O 0.78829 0.77842 0.53751 0.0
O172 O 0.84156 0.72936 0.54617 0.0
O173 O 0.96733 0.82912 0.57354 0.0
O174 O 0.89145 0.84499 0.59172 0.0
C175 C 0.78982 0.72964 0.54447 0.0
O176 O 0.92192 0.7158 0.50232 0.0
O177 O 0.00965 0.78579 0.52082 0.0
O178 O -0.0199 0.89069 0.50476 0.0
O179 O 0.95708 0.92573 0.5473 0.0
O180 O 0.85357 0.87291 0.49808 0.0
O181 O 0.89039 0.81453 0.47767 0.0
C182 C 0.9404 0.83969 0.59685 0.0
O183 O 0.83773 0.93462 0.53789 0.0
O184 O 0.80771 0.88475 0.58083 0.0
C185 C 0.01019 0.72471 0.47889 0.0
C186 C 0.06681 0.70324 0.42839 0.0
C187 C 0.0087 0.65884 0.4376 0.0
C188 C -0.01914 0.66936 0.46275 0.0
C189 C 0.06868 0.76877 0.46998 0.0
C190 C 0.09662 0.75814 0.44501 0.0
C191 C -0.01979 0.73456 0.50563 0.0
H192 H 0.74036 0.06115 0.57359 0.0
H193 H 0.72969 0.96651 0.55526 0.0
H194 H 0.90034 0.00898 0.60118 0.0
H195 H 0.91053 0.1036 0.62085 0.0
H196 H -0.01531 0.61616 0.42525 0.0
H197 H 0.93613 0.63425 0.46948 0.0
H198 H 0.09276 0.81173 0.48205 0.0
H199 H 0.14089 0.79382 0.43808 0.0
Tb200 Tb 0.11811 0.87263 0.8836 0.0
Eu201 Eu 0.2593 0.95211 0.85901 0.0
C202 C 0.16608 -0.00123 0.85944 0.0
C203 C 0.14216 0.89084 0.80896 0.0
C204 C 0.95382 0.80198 0.91381 0.0
C205 C 0.8436 0.74648 0.91628 0.0
C206 C 0.89724 0.75469 0.9035 0.0
C207 C 0.95667 0.8412 0.93726 0.0
C208 C 0.90279 0.83262 0.95041 0.0
C209 C 0.84556 0.78527 0.93989 0.0
C210 C 0.00742 0.81153 0.89707 0.0
O211 O 0.14386 0.80907 0.86798 0.0
O212 O 0.24547 0.86456 0.87918 0.0
O213 O 0.26133 -0.01763 0.90963 0.0
O214 O 0.17345 0.90124 0.9274 0.0
C215 C 0.19585 0.8124 0.8752 0.0
O216 O 0.33714 0.95184 0.83849 0.0
O217 O 0.34693 0.03503 0.8572 0.0
O218 O 0.2091 -0.00061 0.84282 0.0
O219 O 0.15072 0.96795 0.88529 0.0
O220 O 0.10622 0.87374 0.8331 0.0
O221 O 0.20238 0.91692 0.8127 0.0
C222 C 0.22609 0.95119 0.93283 0.0
O223 O 0.02859 0.85455 0.87668 0.0
O224 O 0.05041 0.80604 0.91164 0.0
C225 C 0.41199 0.04193 0.81624 0.0
C226 C 0.48249 0.09633 0.7635 0.0
C227 C 0.49289 0.05639 0.7816 0.0
C228 C 0.45806 0.02965 0.80787 0.0
C229 C 0.40266 0.08311 0.79875 0.0
C230 C 0.43775 0.11021 0.77268 0.0
C231 C 0.37313 0.00961 0.84255 0.0
H232 H 0.80054 0.7104 0.90717 0.0
H233 H 0.89441 0.72475 0.88492 0.0
H234 H 0.00016 0.87849 0.94509 0.0
H235 H 0.90605 0.86288 0.96888 0.0
H236 H 0.52678 0.04471 0.77496 0.0
H237 H 0.46597 -0.00196 0.82121 0.0
H238 H 0.36716 0.09303 0.80465 0.0
H239 H 0.42758 0.13969 0.75877 0.0
H240 H 0.94119 0.91633 0.20496 0.0
H241 H 0.89958 -0.01716 1.12041 0.0
H242 H 0.00752 0.03313 1.10657 0.0
H243 H 0.04962 0.03439 0.2286 0.0
H244 H 0.10217 0.01198 0.24412 0.0
H245 H 0.02257 0.9581 0.24108 0.0
H246 H 0.04212 0.88686 0.20687 0.0
H247 H 0.12286 0.9387 0.21126 0.0
H248 H 0.08821 0.91552 1.17281 0.0
H249 H 0.11715 0.10762 1.11392 0.0
H250 H 0.22191 0.17794 1.13377 0.0
H251 H 0.19271 0.06243 0.21335 0.0
C252 C 0.95445 0.93744 0.18236 0.0
C253 C 0.91331 0.94718 1.1641 0.0
C254 C 0.931 -0.02459 1.1348 0.0
C255 C -0.00754 0.00451 1.12686 0.0
C256 C 0.03422 0.0023 1.14795 0.0
C257 C 0.01562 0.96667 1.17437 0.0
C258 C 0.06905 -0.01983 0.19613 0.0
C259 C 0.06025 -0.0028 0.22938 0.0
C260 C 0.0813 0.92717 0.19678 0.0
C261 C 0.11894 0.03337 0.17974 0.0
C262 C 0.0986 0.04497 1.15173 0.0
C263 C 0.13441 0.09745 1.13508 0.0
C264 C 0.19317 0.13779 1.14686 0.0
C265 C 0.2149 0.12526 1.17503 0.0
C266 C 0.17728 0.07249 0.19149 0.0
H267 H 0.95372 0.01843 0.53871 0.0
H268 H 0.03991 -0.02323 0.46415 0.0
H269 H 0.05499 0.06756 0.43604 0.0
H270 H 0.88146 0.08897 0.48478 0.0
H271 H 0.89224 0.14137 0.51559 0.0
H272 H 0.87509 0.06603 0.52496 0.0
H273 H 0.97296 0.10843 0.56101 0.0
H274 H -0.01327 0.18214 0.55248 0.0
H275 H 0.04499 0.16283 0.54527 0.0
H276 H 0.08398 0.17218 0.42419 0.0
H277 H 0.13763 0.28042 0.43557 0.0
H278 H 0.02026 0.25125 0.51278 0.0
C279 C -0.02544 0.0275 0.51611 0.0
C280 C -0.00389 -0.00903 0.50372 0.0
C281 C 0.02353 0.00462 0.4742 0.0
C282 C 0.03105 0.05533 0.45781 0.0
C283 C 0.0089 0.09045 0.47077 0.0
C284 C -0.01939 0.07652 0.49922 0.0
C285 C 0.96885 0.12525 0.5107 0.0
C286 C 0.90034 0.10416 0.50887 0.0
C287 C -0.00494 0.1459 0.54426 0.0
C288 C 0.00295 0.1729 0.48658 0.0
C289 C 0.02288 0.15087 0.46267 0.0
C290 C 0.06703 0.18949 0.44201 0.0
C291 C 0.09693 0.25137 0.44833 0.0
C292 C 0.08299 0.27285 0.47541 0.0
C293 C 0.03033 0.23472 0.4918 0.0
H294 H 0.05564 0.97201 0.88095 0.0
H295 H 0.17492 0.05386 0.803 0.0
H296 H 0.09648 0.07083 0.77708 0.0
H297 H 0.90494 0.90706 0.83132 0.0
H298 H 0.86869 0.92111 0.86337 0.0
H299 H 0.9255 0.89934 0.87098 0.0
H300 H -0.01166 -0.00603 0.90577 0.0
H301 H 0.93107 0.01422 0.89917 0.0
H302 H 0.00923 0.06699 0.89011 0.0
H303 H 0.02062 0.10123 0.76668 0.0
H304 H 0.97294 0.16108 0.77966 0.0
H305 H 0.89558 0.05369 0.86142 0.0
C306 C 0.06485 -0.00758 0.85811 0.0
C307 C 0.12141 0.01205 0.84409 0.0
C308 C 0.13195 0.03893 0.81431 0.0
C309 C 0.08708 0.04745 0.79912 0.0
C310 C 0.03146 0.02746 0.81366 0.0
C311 C 0.02035 0.00029 0.84258 0.0
C312 C 0.96242 -0.00736 0.8561 0.0
C313 C 0.91244 0.92608 0.85537 0.0
C314 C 0.97357 0.01866 0.88969 0.0
C315 C 0.94787 0.02849 0.8327 0.0
C316 C -0.01448 0.04435 0.80712 0.0
C317 C -0.01025 0.08777 0.78595 0.0
C318 C 0.96173 0.12129 0.79325 0.0
C319 C 0.93187 0.11181 0.82183 0.0
C320 C 0.91789 0.06031 0.83932 0.0
H321 H 0.47188 0.52893 1.03204 0.0
H322 H 0.60053 0.46515 1.02424 0.0
H323 H 0.59478 0.47054 0.96699 0.0
H324 H 0.37436 0.44466 0.98426 0.0
H325 H 0.35205 0.49401 0.96533 0.0
H326 H 0.38644 0.51238 1.0035 0.0
H327 H 0.46992 0.61529 0.98407 0.0
H328 H 0.43637 0.59755 0.94516 0.0
H329 H 0.51556 0.61952 0.95147 0.0
H330 H 0.54609 0.44351 0.91533 0.0
H331 H 0.46348 0.39161 0.87585 0.0
H332 H 0.36749 0.47554 0.91455 0.0
C333 C 0.50184 0.51993 1.01832 0.0
C334 C 0.53597 0.49593 1.03251 0.0
C335 C 0.5734 0.48297 1.01381 0.0
C336 C 0.57085 0.48652 0.9812 0.0
C337 C 0.53164 0.50431 0.96761 0.0
C338 C 0.49922 0.52289 0.9857 0.0
C339 C 0.45096 0.52767 0.9662 0.0
C340 C 0.3873 0.49248 0.98067 0.0
C341 C 0.46934 0.59395 0.96143 0.0
C342 C 0.45452 0.49945 0.93587 0.0
C343 C 0.50354 0.4894 0.9365 0.0
C344 C 0.50907 0.45323 0.91398 0.0
C345 C 0.46175 0.42356 0.89165 0.0
C346 C 0.40937 0.42993 0.89212 0.0
C347 C 0.40796 0.47148 0.91311 0.0
H348 H 0.29384 0.55825 0.36467 0.0
H349 H 0.13981 0.58783 0.36959 0.0
H350 H 0.10994 0.5512 0.31531 0.0
H351 H 0.3177 0.58453 0.27474 0.0
H352 H 0.33665 0.52551 0.27296 0.0
H353 H 0.35812 0.57355 0.30706 0.0
H354 H 0.30214 0.47976 0.34192 0.0
H355 H 0.28083 0.4319 0.30822 0.0
H356 H 0.22281 0.4267 0.33376 0.0
H357 H 0.07939 0.48381 0.26958 0.0
H358 H 0.05174 0.3945 0.23759 0.0
H359 H 0.22867 0.41221 0.25877 0.0
C360 C 0.25591 0.56036 0.35372 0.0
C361 C 0.21926 0.57598 0.37131 0.0
C362 C 0.1684 0.57577 0.35658 0.0
C363 C 0.15149 0.55558 0.32561 0.0
C364 C 0.18623 0.53634 0.30958 0.0
C365 C 0.2383 0.53981 0.32297 0.0
C366 C 0.26118 0.50617 0.30356 0.0
C367 C 0.32202 0.55008 0.28869 0.0
C368 C 0.26694 0.45828 0.32301 0.0
C369 C 0.21038 0.4779 0.27905 0.0
C370 C 0.16872 0.49753 0.28221 0.0
C371 C 0.11274 0.46981 0.26602 0.0
C372 C 0.09747 0.41889 0.24766 0.0
C373 C 0.13796 0.39585 0.24566 0.0
C374 C 0.19663 0.42848 0.25989 0.0
H375 H 0.7176 0.24856 0.71309 0.0
H376 H 0.90859 0.38442 0.72247 0.0
H377 H 0.92788 0.35437 0.67187 0.0
H378 H 0.74059 0.1419 0.69615 0.0
H379 H 0.6799 0.10057 0.66778 0.0
H380 H 0.67246 0.14798 0.69573 0.0
H381 H 0.65492 0.20711 0.65187 0.0
H382 H 0.66066 0.15902 0.62321 0.0
H383 H 0.70874 0.23947 0.62098 0.0
H384 H 0.93557 0.28989 0.63261 0.0
H385 H 0.92767 0.20204 0.60487 0.0
H386 H 0.73399 0.1022 0.62254 0.0
C387 C 0.76272 0.27392 0.70361 0.0
C388 C 0.81142 0.31844 0.72188 0.0
C389 C 0.87004 0.35075 0.70887 0.0
C390 C 0.88166 0.33366 0.68002 0.0
C391 C 0.83417 0.28464 0.66429 0.0
C392 C 0.77522 0.25608 0.6752 0.0
C393 C 0.73549 0.1971 0.65805 0.0
C394 C 0.7055 0.14384 0.68079 0.0
C395 C 0.68713 0.20095 0.63726 0.0
C396 C 0.78288 0.19392 0.6385 0.0
C397 C 0.83893 0.24583 0.64144 0.0
C398 C 0.89149 0.24986 0.6292 0.0
C399 C 0.88682 0.19945 0.61391 0.0
C400 C 0.83016 0.14542 0.61144 0.0
C401 C 0.77753 0.14346 0.62323 0.0
H402 H 0.65814 0.88368 1.04194 0.0
H403 H 0.53452 0.69454 1.05848 0.0
H404 H 0.57735 0.66838 1.01396 0.0
H405 H 0.67065 0.87285 0.95269 0.0
H406 H 0.75038 0.92879 0.95596 0.0
H407 H 0.69658 0.93209 0.98156 0.0
H408 H 0.76261 0.93301 1.02926 0.0
H409 H 0.81517 0.92803 1.00382 0.0
H410 H 0.77893 0.87247 1.03368 0.0
H411 H 0.65064 0.66281 0.9787 0.0
H412 H 0.74312 0.67799 0.95293 0.0
H413 H 0.81837 0.87131 0.95841 0.0
C414 C 0.63717 0.83688 1.035 0.0
C415 C 0.5927 0.79118 1.05353 0.0
C416 C 0.56846 0.73027 1.0445 0.0
C417 C 0.5924 0.71505 1.01917 0.0
C418 C 0.63982 0.76131 1.00293 0.0
C419 C 0.66103 0.82118 1.01008 0.0
C420 C 0.7191 0.86212 0.99323 0.0
C421 C 0.70852 0.90125 0.96943 0.0
C422 C 0.77199 0.90112 1.01638 0.0
C423 C 0.72953 0.81586 0.97713 0.0
C424 C 0.68277 0.75805 0.98245 0.0
C425 C 0.68644 0.70785 0.97342 0.0
C426 C 0.73933 0.717 0.95882 0.0
C427 C 0.78805 0.77594 0.95345 0.0
C428 C 0.78212 0.82573 0.96219 0.0
H429 H 0.18535 0.73314 0.42046 0.0
H430 H 0.01065 0.65969 0.37155 0.0
H431 H 0.06129 0.67557 0.32135 0.0
H432 H 0.25318 0.84945 0.37886 0.0
H433 H 0.32804 0.85749 0.37726 0.0
H434 H 0.27967 0.81749 0.4088 0.0
H435 H 0.28434 0.71968 0.39535 0.0
H436 H 0.33858 0.76531 0.36648 0.0
H437 H 0.27326 0.6952 0.35499 0.0
H438 H 0.12856 0.73305 0.27926 0.0
H439 H 0.20464 0.82011 0.25054 0.0
H440 H 0.34043 0.85126 0.32299 0.0
C441 C 0.15776 0.71779 0.39915 0.0
C442 C 0.09433 0.69557 0.39981 0.0
C443 C 0.05929 0.67624 0.37164 0.0
C444 C 0.08781 0.68507 0.34293 0.0
C445 C 0.15126 0.71235 0.34279 0.0
C446 C 0.1859 0.72685 0.37032 0.0
C447 C 0.2531 0.76728 0.36422 0.0
C448 C 0.27994 0.82636 0.38338 0.0
C449 C 0.28935 0.73481 0.3707 0.0
C450 C 0.25012 0.77796 0.32961 0.0
C451 C 0.1913 0.74478 0.31743 0.0
C452 C 0.17525 0.75727 0.28804 0.0
C453 C 0.21911 0.80697 0.27169 0.0
C454 C 0.27856 0.8433 0.28468 0.0
C455 C 0.29514 0.82496 0.31264 0.0
H456 H 0.5313 0.20874 0.73946 0.0
H457 H 0.49328 0.02861 0.71791 0.0
H458 H 0.50194 0.05175 0.66201 0.0
H459 H 0.43849 0.21368 0.69452 0.0
H460 H 0.47887 0.28929 0.67975 0.0
H461 H 0.50235 0.27252 0.71624 0.0
H462 H 0.61162 0.31211 0.69646 0.0
H463 H 0.58856 0.33079 0.65981 0.0
H464 H 0.62285 0.28379 0.66028 0.0
H465 H 0.46829 0.07479 0.6132 0.0
H466 H 0.40584 0.09848 0.57747 0.0
H467 H 0.46749 0.26716 0.6265 0.0
C468 C 0.52838 0.17566 0.72284 0.0
C469 C 0.51101 0.11697 0.73277 0.0
C470 C 0.50708 0.07411 0.71081 0.0
C471 C 0.51196 0.087 0.67887 0.0
C472 C 0.52165 0.14315 0.66935 0.0
C473 C 0.5323 0.18793 0.69083 0.0
C474 C 0.52792 0.23892 0.67532 0.0
C475 C 0.48425 0.2543 0.69245 0.0
C476 C 0.59152 0.29467 0.67281 0.0
C477 C 0.50285 0.21116 0.6434 0.0
C478 C 0.50274 0.15745 0.63978 0.0
C479 C 0.4705 0.11789 0.61511 0.0
C480 C 0.43483 0.13165 0.59486 0.0
C481 C 0.43141 0.18446 0.59948 0.0
C482 C 0.46916 0.22632 0.62267 0.0
H483 H 0.54606 0.19998 0.23764 0.0
H484 H 0.61333 0.31593 1.1571 0.0
H485 H 0.70087 0.2976 1.1554 0.0
H486 H 0.69195 0.23181 0.27381 0.0
H487 H 0.66322 0.15433 0.28429 0.0
H488 H 0.61235 0.18453 0.28209 0.0
H489 H 0.54197 0.10018 0.24295 0.0
H490 H 0.59241 0.06969 0.24488 0.0
H491 H 0.5733 0.08998 0.20765 0.0
H492 H 0.77835 0.26152 1.16145 0.0
H493 H 0.83049 0.20233 1.17009 0.0
H494 H 0.70452 0.10302 0.24319 0.0
C495 C 0.57981 0.22266 0.22 0.0
C496 C 0.57349 0.26014 0.19774 0.0
C497 C 0.6178 0.28758 1.17455 0.0
C498 C 0.66765 0.27753 1.17351 0.0
C499 C 0.67179 0.23926 0.19554 0.0
C500 C 0.62845 0.21174 0.2181 0.0
C501 C 0.63839 0.16684 0.23663 0.0
C502 C 0.65232 0.18553 0.27126 0.0
C503 C 0.58327 0.10292 0.23277 0.0
C504 C 0.69386 0.17273 0.22084 0.0
C505 C 0.71349 0.21571 0.1977 0.0
C506 C 0.76345 0.228 0.1796 0.0
C507 C 0.79299 0.19443 0.18477 0.0
C508 C 0.7715 0.1483 0.20734 0.0
C509 C 0.72198 0.13818 0.22586 0.0
H510 H 0.43157 0.54989 0.55806 0.0
H511 H 0.43843 0.38465 0.55035 0.0
H512 H 0.55084 0.44281 0.55495 0.0
H513 H 0.55081 0.63376 0.51077 0.0
H514 H 0.58067 0.70316 0.53256 0.0
H515 H 0.50108 0.64808 0.53423 0.0
H516 H 0.50988 0.64543 0.59462 0.0
H517 H 0.58961 0.70118 0.59319 0.0
H518 H 0.56643 0.63068 0.61246 0.0
H519 H 0.6636 0.52105 0.55364 0.0
H520 H 0.76498 0.61187 0.54722 0.0
H521 H 0.68158 0.72367 0.5552 0.0
C522 C 0.45645 0.52563 0.55829 0.0
C523 C 0.42613 0.46274 0.55393 0.0
C524 C 0.46066 0.4329 0.55373 0.0
C525 C 0.52457 0.46553 0.5564 0.0
C526 C 0.55321 0.52785 0.55947 0.0
C527 C 0.52008 0.55744 0.56076 0.0
C528 C 0.56133 0.62484 0.56125 0.0
C529 C 0.54765 0.65413 0.53302 0.0
C530 C 0.55653 0.65213 0.59223 0.0
C531 C 0.62265 0.62865 0.55883 0.0
C532 C 0.61749 0.57247 0.55833 0.0
C533 C 0.66825 0.56532 0.55447 0.0
C534 C 0.72557 0.61703 0.55078 0.0
C535 C 0.73118 0.67477 0.55056 0.0
C536 C 0.67899 0.68022 0.55515 0.0
H537 H 0.03512 0.46119 0.89654 0.0
H538 H 0.20293 0.46841 0.86963 0.0
H539 H 0.25531 0.57974 0.87082 0.0
H540 H 0.0488 0.57476 0.84831 0.0
H541 H 0.01579 0.60436 0.87485 0.0
H542 H -0.00511 0.52641 0.87659 0.0
H543 H 0.02764 0.53893 0.93523 0.0
H544 H 0.04833 0.61704 0.93372 0.0
H545 H 0.1035 0.59632 0.94708 0.0
H546 H 0.28651 0.69158 0.87099 0.0
H547 H 0.29137 0.7907 0.86784 0.0
H548 H 0.10104 0.70582 0.89226 0.0
C549 C 0.0833 0.48595 0.89167 0.0
C550 C 0.11508 0.45613 0.88327 0.0
C551 C 0.17777 0.49042 0.87633 0.0
C552 C 0.20791 0.55363 0.87702 0.0
C553 C 0.17461 0.58162 0.88464 0.0
C554 C 0.11362 0.5486 0.89187 0.0
C555 C 0.08604 0.58834 0.89637 0.0
C556 C 0.03331 0.57252 0.87261 0.0
C557 C 0.06517 0.58495 0.93011 0.0
C558 C 0.14052 0.64892 0.88982 0.0
C559 C 0.19166 0.64471 0.88364 0.0
C560 C 0.2468 0.69533 0.87603 0.0
C561 C 0.24923 0.75134 0.87431 0.0
C562 C 0.19649 0.75564 0.87959 0.0
C563 C 0.14202 0.70383 0.88787 0.0
H564 H 0.31645 0.2066 0.3062 0.0
H565 H 0.41217 0.38463 0.26581 0.0
H566 H 0.3967 0.42761 0.31383 0.0
H567 H 0.20347 0.22956 0.34654 0.0
H568 H 0.20181 0.18648 0.38025 0.0
H569 H 0.21952 0.16886 0.34259 0.0
H570 H 0.32078 0.18119 0.36554 0.0
H571 H 0.30341 0.19879 0.40328 0.0
H572 H 0.37412 0.25034 0.38525 0.0
H573 H 0.37473 0.45293 0.3677 0.0
H574 H 0.34284 0.4576 0.42109 0.0
H575 H 0.25914 0.26364 0.42779 0.0
C576 C 0.33417 0.25465 0.30737 0.0
C577 C 0.36601 0.29197 0.28174 0.0
C578 C 0.38787 0.35463 0.28469 0.0
C579 C 0.37931 0.37967 0.31208 0.0
C580 C 0.34838 0.34189 0.33682 0.0
C581 C 0.32569 0.28058 0.33468 0.0
C582 C 0.29368 0.25014 0.36477 0.0
C583 C 0.22558 0.20615 0.35814 0.0
C584 C 0.32487 0.21822 0.38065 0.0
C585 C 0.30268 0.30387 0.38427 0.0
C586 C 0.33439 0.35634 0.36761 0.0
C587 C 0.34925 0.41192 0.38072 0.0
C588 C 0.33099 0.41413 0.41133 0.0
C589 C 0.29819 0.36119 0.42918 0.0
C590 C 0.28396 0.30521 0.4151 0.0
H591 H 0.20749 0.3142 0.63702 0.0
H592 H 0.12656 0.4152 0.59738 0.0
H593 H 0.07676 0.40805 0.64718 0.0
H594 H 0.07774 0.21359 0.68394 0.0
H595 H 0.12386 0.2128 0.71654 0.0
H596 H 0.15283 0.22463 0.67757 0.0
H597 H 0.24765 0.32408 0.69568 0.0
H598 H 0.21905 0.31248 0.7347 0.0
H599 H 0.23753 0.38111 0.71455 0.0
H600 H 0.03423 0.39 0.70234 0.0
H601 H 0.00616 0.36498 0.75754 0.0
H602 H 0.11513 0.27725 0.76303 0.0
C603 C 0.17941 0.33496 0.63877 0.0
C604 C 0.17165 0.36559 0.6127 0.0
C605 C 0.13408 0.39176 0.61654 0.0
C606 C 0.10521 0.38781 0.64495 0.0
C607 C 0.1139 0.35766 0.67003 0.0
C608 C 0.15027 0.33177 0.66729 0.0
C609 C 0.15245 0.30254 0.69813 0.0
C610 C 0.1251 0.23434 0.69378 0.0
C611 C 0.21808 0.33181 0.71156 0.0
C612 C 0.11225 0.31649 0.7186 0.0
C613 C 0.09008 0.34797 0.70183 0.0
C614 C 0.05165 0.3655 0.71561 0.0
C615 C 0.03585 0.35103 0.7472 0.0
C616 C 0.05837 0.31935 0.76527 0.0
C617 C 0.09706 0.30181 0.75033 0.0
H618 H 0.86648 0.17348 0.95601 0.0
H619 H 0.06154 0.2406 0.96591 0.0
H620 H 0.04802 0.20249 1.01909 0.0
H621 H 0.8461 0.20745 1.03647 0.0
H622 H 0.7736 0.14015 1.04129 0.0
H623 H 0.79629 0.17185 1.00299 0.0
H624 H 0.78014 0.07021 0.98282 0.0
H625 H 0.75864 0.03796 1.0211 0.0
H626 H 0.82048 0.03683 1.00165 0.0
H627 H 0.01785 0.15957 1.07073 0.0
H628 H 0.9726 0.11574 1.1203 0.0
H629 H 0.79343 0.07164 1.08274 0.0
C630 C 0.90631 0.18028 0.96943 0.0
C631 C 0.96545 0.21074 0.95603 0.0
C632 C 0.01581 0.21798 0.97483 0.0
C633 C 0.00867 0.19621 1.00541 0.0
C634 C 0.95063 0.16664 1.01774 0.0
C635 C 0.90001 0.15846 1.00066 0.0
C636 C 0.84313 0.12487 1.0207 0.0
C637 C 0.81298 0.16338 1.02565 0.0
C638 C 0.79788 0.06384 1.00568 0.0
C639 C 0.87034 0.11649 1.05157 0.0
C640 C 0.93254 0.14102 1.04873 0.0
C641 C 0.9692 0.14041 1.07327 0.0
C642 C 0.9425 0.11517 1.10169 0.0
C643 C 0.87888 0.08998 1.10632 0.0
C644 C 0.84203 0.09012 1.08041 0.0
H645 H 0.80569 0.8763 0.28605 0.0
H646 H 0.82028 0.04674 0.31155 0.0
H647 H 0.83604 0.02962 0.36656 0.0
H648 H 0.727 0.79467 0.358 0.0
H649 H 0.7677 0.75371 0.3613 0.0
H650 H 0.75384 0.77627 0.32343 0.0
H651 H 0.86945 0.83069 0.3133 0.0
H652 H 0.88372 0.80878 0.35126 0.0
H653 H 0.92181 0.88703 0.34071 0.0
H654 H 0.85662 0.00046 0.41759 0.0
H655 H 0.87268 0.95663 0.46471 0.0
H656 H 0.84548 0.80061 0.41145 0.0
C657 C 0.81068 0.90915 0.30339 0.0
C658 C 0.81098 0.96294 0.29415 0.0
C659 C 0.81945 0.0053 0.31768 0.0
C660 C 0.82869 -0.00397 0.34916 0.0
C661 C 0.82974 0.94395 0.35741 0.0
C662 C 0.82045 0.90063 0.33552 0.0
C663 C 0.82548 0.84951 0.35166 0.0
C664 C 0.76489 0.78999 0.3484 0.0
C665 C 0.87825 0.84366 0.33843 0.0
C666 C 0.83907 0.87129 0.38582 0.0
C667 C 0.84137 0.92616 0.38802 0.0
C668 C 0.85398 0.95709 0.41622 0.0
C669 C 0.86296 0.93119 0.44314 0.0
C670 C 0.85946 0.87403 0.44262 0.0
C671 C 0.84827 0.84402 0.41309 0.0
H672 H 0.04748 0.84225 0.62146 0.0
H673 H 0.89093 0.85688 0.64887 0.0
H674 H 0.92871 0.87404 0.70311 0.0
H675 H 0.05547 0.76455 0.69191 0.0
H676 H 0.13759 0.80353 0.69493 0.0
H677 H 0.09987 0.79268 0.65726 0.0
H678 H 0.16048 0.90725 0.64794 0.0
H679 H 0.19823 0.91847 0.68564 0.0
H680 H 0.15742 0.95766 0.67611 0.0
H681 H -0.01975 0.88999 0.75422 0.0
H682 H 0.04106 0.89971 0.8011 0.0
H683 H 0.16954 0.87597 0.74572 0.0
C684 C 0.02108 0.84887 0.6389 0.0
C685 C 0.96555 0.84798 0.63019 0.0
C686 C 0.93316 0.85714 0.65417 0.0
C687 C 0.95443 0.86714 0.68538 0.0
C688 C 0.00877 0.86812 0.69307 0.0
C689 C 0.04193 0.85908 0.67078 0.0
C690 C 0.09889 0.86215 0.6864 0.0
C691 C 0.09789 0.80215 0.68238 0.0
C692 C 0.15723 0.91449 0.67323 0.0
C693 C 0.09185 0.87375 0.72082 0.0
C694 C 0.03931 0.87718 0.72359 0.0
C695 C 0.02127 0.88702 0.75231 0.0
C696 C 0.05661 0.89235 0.77907 0.0
C697 C 0.11058 0.88817 0.77786 0.0
C698 C 0.12894 0.8796 0.74787 0.0
H699 H 0.30014 0.06836 0.95618 0.0
H700 H 0.1961 0.88293 0.98576 0.0
H701 H 0.2268 0.91544 1.04067 0.0
H702 H 0.42504 0.11884 1.01361 0.0
H703 H 0.43108 0.19102 1.02019 0.0
H704 H 0.40353 0.15353 0.9829 0.0
H705 H 0.30514 0.15992 0.98771 0.0
H706 H 0.33254 0.19762 1.02494 0.0
H707 H 0.25939 0.12987 1.0218 0.0
H708 H 0.27093 0.96792 1.0931 0.0
H709 H 0.31606 0.03591 1.13865 0.0
H710 H 0.3865 0.18968 1.07706 0.0
C711 C 0.28418 0.03453 0.97419 0.0
C712 C 0.2459 0.97257 0.96622 0.0
C713 C 0.22535 0.93036 0.99086 0.0
C714 C 0.2428 0.94851 1.02229 0.0
C715 C 0.28034 0.00957 1.02933 0.0
C716 C 0.30017 0.05214 1.00602 0.0
C717 C 0.33763 0.11521 1.0203 0.0
C718 C 0.40322 0.14649 1.00854 0.0
C719 C 0.30683 0.15288 1.01326 0.0
C720 C 0.3362 0.10143 1.05515 0.0
C721 C 0.30342 0.04004 1.05971 0.0
C722 C 0.29645 0.01603 1.08968 0.0
C723 C 0.32274 0.05531 1.11558 0.0
C724 C 0.35544 0.1187 1.11194 0.0
C725 C 0.36208 0.14168 1.081 0.0
loop_
_geom_bond_atom_site_label_1
_geom_bond_atom_site_label_2
_geom_bond_distance
_geom_bond_site_symmetry_2
_ccdc_geom_bond_type
Tb0 C10 2.825 . S
Tb0 O11 2.347 . S
Tb0 O14 2.366 . S
Tb0 O19 2.418 . S
Tb0 O20 2.384 1_554 S
Tb0 O23 2.479 . S
Tb0 O24 2.471 . S
Eu1 O12 2.418 . S
Eu1 O13 2.384 1_556 S
Eu1 O16 2.479 . S
Eu1 O17 2.471 . S
Eu1 O18 2.343 1_556 S
Eu1 O21 2.366 . S
Eu1 C31 2.825 . S
C2 O18 1.265 . S
C2 O19 1.265 . S
C3 O20 1.255 . S
C3 O21 1.265 . S
C4 C6 1.380 . S
C4 C7 1.374 . S
C4 C10 1.507 . S
C5 C6 1.384 . S
C5 C9 1.387 . S
C5 H32 0.930 . S
C6 C4 1.380 . S
C6 C5 1.384 . S
C6 H33 0.931 . S
C7 C4 1.374 . S
C7 C8 1.390 . S
C7 H34 0.930 . S
C8 C7 1.390 . S
C8 C9 1.391 . S
C8 H35 0.930 . S
C9 C5 1.387 . S
C9 C8 1.391 . S
C10 Tb0 2.825 . S
C10 C4 1.507 . S
C10 O23 1.238 . S
C10 O24 1.247 . S
O11 Tb0 2.347 . S
O11 C15 1.259 . S
O12 Eu1 2.418 . S
O12 C15 1.265 1_556 S
O13 Eu1 2.384 1_554 S
O13 C22 1.255 . S
O14 Tb0 2.366 . S
O14 C22 1.265 . S
C15 O11 1.259 . S
C15 O12 1.265 1_554 S
O16 Eu1 2.479 . S
O16 C31 1.238 . S
O17 Eu1 2.471 . S
O17 C31 1.247 . S
O18 Eu1 2.343 1_554 S
O18 C2 1.265 . S
O19 Tb0 2.418 . S
O19 C2 1.265 . S
O20 Tb0 2.384 1_556 S
O20 C3 1.255 . S
O21 Eu1 2.366 . S
O21 C3 1.265 . S
C22 O13 1.255 . S
C22 O14 1.265 . S
O23 Tb0 2.479 . S
O23 C10 1.238 . S
O24 Tb0 2.471 . S
O24 C10 1.247 . S
C25 C28 1.380 . S
C25 C29 1.374 . S
C25 C31 1.507 . S
C26 C27 1.387 . S
C26 C30 1.391 . S
C27 C26 1.387 . S
C27 C28 1.384 . S
C27 H36 0.930 . S
C28 C25 1.380 . S
C28 C27 1.384 . S
C28 H37 0.931 . S
C29 C25 1.374 . S
C29 C30 1.390 . S
C29 H38 0.930 . S
C30 C26 1.391 . S
C30 C29 1.390 . S
C30 H39 0.930 . S
C31 Eu1 2.825 . S
C31 O16 1.238 . S
C31 O17 1.247 . S
C31 C25 1.507 . S
H32 C5 0.930 . S
H33 C6 0.931 . S
H34 C7 0.930 . S
H35 C8 0.930 . S
H36 C27 0.930 . S
H37 C28 0.931 . S
H38 C29 0.930 . S
H39 C30 0.930 . S
Tb40 C50 2.825 . S
Tb40 O51 2.347 . S
Tb40 O54 2.366 . S
Tb40 O59 2.418 . S
Tb40 O60 2.384 . S
Tb40 O63 2.479 . S
Tb40 O64 2.471 . S
Eu41 O52 2.418 . S
Eu41 O53 2.384 . S
Eu41 O56 2.479 . S
Eu41 O57 2.471 . S
Eu41 O58 2.347 . S
Eu41 O61 2.366 . S
Eu41 C71 2.825 . S
C42 O58 1.259 . S
C42 O59 1.265 . S
C43 O60 1.255 . S
C43 O61 1.265 . S
C44 C46 1.380 . S
C44 C47 1.374 . S
C44 C50 1.507 . S
C45 C46 1.384 . S
C45 C49 1.387 . S
C45 H72 0.930 . S
C46 C44 1.380 . S
C46 C45 1.384 . S
C46 H73 0.931 . S
C47 C44 1.374 . S
C47 C48 1.390 . S
C47 H74 0.930 . S
C48 C47 1.390 . S
C48 C49 1.391 . S
C48 H75 0.930 . S
C49 C45 1.387 . S
C49 C48 1.391 . S
C50 Tb40 2.825 . S
C50 C44 1.507 . S
C50 O63 1.238 . S
C50 O64 1.247 . S
O51 Tb40 2.347 . S
O51 C55 1.259 . S
O52 Eu41 2.418 . S
O52 C55 1.265 . S
O53 Eu41 2.384 . S
O53 C62 1.255 . S
O54 Tb40 2.366 . S
O54 C62 1.265 . S
C55 O51 1.259 . S
C55 O52 1.265 . S
O56 Eu41 2.479 . S
O56 C71 1.238 . S
O57 Eu41 2.471 . S
O57 C71 1.247 . S
O58 Eu41 2.347 . S
O58 C42 1.259 . S
O59 Tb40 2.418 . S
O59 C42 1.265 . S
O60 Tb40 2.384 . S
O60 C43 1.255 . S
O61 Eu41 2.366 . S
O61 C43 1.265 . S
C62 O53 1.255 . S
C62 O54 1.265 . S
O63 Tb40 2.479 . S
O63 C50 1.238 . S
O64 Tb40 2.471 . S
O64 C50 1.247 . S
C65 C68 1.380 . S
C65 C69 1.374 . S
C65 C71 1.507 . S
C66 C67 1.387 . S
C66 C70 1.391 . S
C67 C66 1.387 . S
C67 C68 1.384 . S
C67 H76 0.930 . S
C68 C65 1.380 . S
C68 C67 1.384 . S
C68 H77 0.931 . S
C69 C65 1.374 . S
C69 C70 1.390 . S
C69 H78 0.930 . S
C70 C66 1.391 . S
C70 C69 1.390 . S
C70 H79 0.930 . S
C71 Eu41 2.825 . S
C71 O56 1.238 . S
C71 O57 1.247 . S
C71 C65 1.507 . S
H72 C45 0.930 . S
H73 C46 0.931 . S
H74 C47 0.930 . S
H75 C48 0.930 . S
H76 C67 0.930 . S
H77 C68 0.931 . S
H78 C69 0.930 . S
H79 C70 0.930 . S
Tb80 C90 2.825 . S
Tb80 O91 2.347 . S
Tb80 O94 2.366 . S
Tb80 O99 2.418 . S
Tb80 O100 2.384 . S
Tb80 O103 2.479 . S
Tb80 O104 2.471 . S
Eu81 O92 2.418 . S
Eu81 O93 2.384 . S
Eu81 O96 2.479 . S
Eu81 O97 2.471 . S
Eu81 O98 2.347 . S
Eu81 O101 2.366 1_655 S
Eu81 C111 2.825 . S
C82 O98 1.259 1_455 S
C82 O99 1.265 . S
C83 O100 1.255 . S
C83 O101 1.265 . S
C84 C86 1.380 . S
C84 C87 1.374 . S
C84 C90 1.507 . S
C85 C86 1.384 . S
C85 C89 1.387 . S
C85 H112 0.930 . S
C86 C84 1.380 . S
C86 C85 1.384 . S
C86 H113 0.931 . S
C87 C84 1.374 . S
C87 C88 1.390 . S
C87 H114 0.930 . S
C88 C87 1.390 . S
C88 C89 1.391 . S
C88 H115 0.930 . S
C89 C85 1.387 . S
C89 C88 1.391 . S
C90 Tb80 2.825 . S
C90 C84 1.507 . S
C90 O103 1.238 . S
C90 O104 1.247 . S
O91 Tb80 2.347 . S
O91 C95 1.259 1_455 S
O92 Eu81 2.418 . S
O92 C95 1.265 . S
O93 Eu81 2.384 . S
O93 C102 1.255 . S
O94 Tb80 2.366 . S
O94 C102 1.265 1_455 S
C95 O91 1.259 1_655 S
C95 O92 1.265 . S
O96 Eu81 2.479 . S
O96 C111 1.238 . S
O97 Eu81 2.471 . S
O97 C111 1.247 . S
O98 Eu81 2.347 . S
O98 C82 1.259 1_655 S
O99 Tb80 2.418 . S
O99 C82 1.265 . S
O100 Tb80 2.384 . S
O100 C83 1.255 . S
O101 Eu81 2.366 1_455 S
O101 C83 1.265 . S
C102 O93 1.255 . S
C102 O94 1.265 1_655 S
O103 Tb80 2.479 . S
O103 C90 1.238 . S
O104 Tb80 2.471 . S
O104 C90 1.247 . S
C105 C108 1.380 . S
C105 C109 1.374 . S
C105 C111 1.507 . S
C106 C107 1.387 . S
C106 C110 1.391 . S
C107 C106 1.387 . S
C107 C108 1.384 . S
C107 H116 0.930 . S
C108 C105 1.380 . S
C108 C107 1.384 . S
C108 H117 0.931 . S
C109 C105 1.374 . S
C109 C110 1.390 . S
C109 H118 0.930 . S
C110 C106 1.391 . S
C110 C109 1.390 . S
C110 H119 0.930 . S
C111 Eu81 2.825 . S
C111 O96 1.238 . S
C111 O97 1.247 . S
C111 C105 1.507 . S
H112 C85 0.930 . S
H113 C86 0.931 . S
H114 C87 0.930 . S
H115 C88 0.930 . S
H116 C107 0.930 . S
H117 C108 0.931 . S
H118 C109 0.930 . S
H119 C110 0.930 . S
Tb120 C130 2.825 . S
Tb120 O131 2.347 . S
Tb120 O134 2.366 . S
Tb120 O139 2.418 . S
Tb120 O140 2.384 1_554 S
Tb120 O143 2.479 . S
Tb120 O144 2.471 . S
Eu121 O132 2.418 . S
Eu121 O133 2.384 1_556 S
Eu121 O136 2.479 . S
Eu121 O137 2.471 . S
Eu121 O138 2.343 1_566 S
Eu121 O141 2.366 1_565 S
Eu121 C151 2.825 . S
C122 O138 1.265 . S
C122 O139 1.265 . S
C123 O140 1.255 . S
C123 O141 1.265 . S
C124 C126 1.380 . S
C124 C127 1.374 . S
C124 C130 1.507 . S
C125 C126 1.384 . S
C125 C129 1.387 . S
C125 H152 0.930 . S
C126 C124 1.380 . S
C126 C125 1.384 . S
C126 H153 0.931 . S
C127 C124 1.374 . S
C127 C128 1.390 . S
C127 H154 0.930 . S
C128 C127 1.390 . S
C128 C129 1.391 . S
C128 H155 0.930 . S
C129 C125 1.387 . S
C129 C128 1.391 . S
C130 Tb120 2.825 . S
C130 C124 1.507 . S
C130 O143 1.238 . S
C130 O144 1.247 . S
O131 Tb120 2.347 . S
O131 C135 1.259 1_545 S
O132 Eu121 2.418 . S
O132 C135 1.265 1_556 S
O133 Eu121 2.384 1_554 S
O133 C142 1.255 . S
O134 Tb120 2.366 . S
O134 C142 1.265 1_545 S
C135 O131 1.259 1_565 S
C135 O132 1.265 1_554 S
O136 Eu121 2.479 . S
O136 C151 1.238 . S
O137 Eu121 2.471 . S
O137 C151 1.247 . S
O138 Eu121 2.343 1_544 S
O138 C122 1.265 . S
O139 Tb120 2.418 . S
O139 C122 1.265 . S
O140 Tb120 2.384 1_556 S
O140 C123 1.255 . S
O141 Eu121 2.366 1_545 S
O141 C123 1.265 . S
C142 O133 1.255 . S
C142 O134 1.265 1_565 S
O143 Tb120 2.479 . S
O143 C130 1.238 . S
O144 Tb120 2.471 . S
O144 C130 1.247 . S
C145 C148 1.380 . S
C145 C149 1.374 . S
C145 C151 1.507 . S
C146 C147 1.387 . S
C146 C150 1.391 . S
C147 C146 1.387 . S
C147 C148 1.384 . S
C147 H156 0.930 . S
C148 C145 1.380 . S
C148 C147 1.384 . S
C148 H157 0.931 . S
C149 C145 1.374 . S
C149 C150 1.390 . S
C149 H158 0.930 . S
C150 C146 1.391 . S
C150 C149 1.390 . S
C150 H159 0.930 . S
C151 Eu121 2.825 . S
C151 O136 1.238 . S
C151 O137 1.247 . S
C151 C145 1.507 . S
H152 C125 0.930 . S
H153 C126 0.931 . S
H154 C127 0.930 . S
H155 C128 0.930 . S
H156 C147 0.930 . S
H157 C148 0.931 . S
H158 C149 0.930 . S
H159 C150 0.930 . S
Tb160 C170 2.825 . S
Tb160 O171 2.347 . S
Tb160 O174 2.366 . S
Tb160 O179 2.418 1_655 S
Tb160 O180 2.384 . S
Tb160 O183 2.479 . S
Tb160 O184 2.471 . S
Eu161 O172 2.418 1_455 S
Eu161 O173 2.384 . S
Eu161 O176 2.479 . S
Eu161 O177 2.471 . S
Eu161 O178 2.347 . S
Eu161 O181 2.366 1_455 S
Eu161 C191 2.825 . S
C162 O178 1.259 . S
C162 O179 1.265 . S
C163 O180 1.255 . S
C163 O181 1.265 . S
C164 C166 1.380 . S
C164 C167 1.374 . S
C164 C170 1.507 . S
C165 C166 1.384 . S
C165 C169 1.387 . S
C165 H192 0.930 . S
C166 C164 1.380 . S
C166 C165 1.384 . S
C166 H193 0.931 . S
C167 C164 1.374 . S
C167 C168 1.390 . S
C167 H194 0.930 . S
C168 C167 1.390 . S
C168 C169 1.391 . S
C168 H195 0.930 . S
C169 C165 1.387 . S
C169 C168 1.391 . S
C170 Tb160 2.825 . S
C170 C164 1.507 . S
C170 O183 1.238 . S
C170 O184 1.247 . S
O171 Tb160 2.347 . S
O171 C175 1.259 . S
O172 Eu161 2.418 1_655 S
O172 C175 1.265 . S
O173 Eu161 2.384 . S
O173 C182 1.255 . S
O174 Tb160 2.366 . S
O174 C182 1.265 1_655 S
C175 O171 1.259 . S
C175 O172 1.265 . S
O176 Eu161 2.479 . S
O176 C191 1.238 . S
O177 Eu161 2.471 . S
O177 C191 1.247 . S
O178 Eu161 2.347 . S
O178 C162 1.259 . S
O179 Tb160 2.418 1_455 S
O179 C162 1.265 . S
O180 Tb160 2.384 . S
O180 C163 1.255 . S
O181 Eu161 2.366 1_655 S
O181 C163 1.265 . S
C182 O173 1.255 . S
C182 O174 1.265 1_455 S
O183 Tb160 2.479 . S
O183 C170 1.238 . S
O184 Tb160 2.471 . S
O184 C170 1.247 . S
C185 C188 1.380 . S
C185 C189 1.374 . S
C185 C191 1.507 . S
C186 C187 1.387 . S
C186 C190 1.391 . S
C187 C186 1.387 . S
C187 C188 1.384 . S
C187 H196 0.930 . S
C188 C185 1.380 . S
C188 C187 1.384 . S
C188 H197 0.931 . S
C189 C185 1.374 . S
C189 C190 1.390 . S
C189 H198 0.930 . S
C190 C186 1.391 . S
C190 C189 1.390 . S
C190 H199 0.930 . S
C191 Eu161 2.825 . S
C191 O176 1.238 . S
C191 O177 1.247 . S
C191 C185 1.507 . S
H192 C165 0.930 . S
H193 C166 0.931 . S
H194 C167 0.930 . S
H195 C168 0.930 . S
H196 C187 0.930 . S
H197 C188 0.931 . S
H198 C189 0.930 . S
H199 C190 0.930 . S
Tb200 C210 2.825 . S
Tb200 O211 2.347 . S
Tb200 O214 2.366 . S
Tb200 O219 2.418 1_565 S
Tb200 O220 2.384 . S
Tb200 O223 2.479 . S
Tb200 O224 2.471 . S
Eu201 O212 2.418 1_545 S
Eu201 O213 2.384 . S
Eu201 O216 2.479 . S
Eu201 O217 2.471 . S
Eu201 O218 2.347 . S
Eu201 O221 2.366 1_545 S
Eu201 C231 2.825 . S
C202 O218 1.259 . S
C202 O219 1.265 . S
C203 O220 1.255 . S
C203 O221 1.265 . S
C204 C206 1.380 . S
C204 C207 1.374 . S
C204 C210 1.507 . S
C205 C206 1.384 . S
C205 C209 1.387 . S
C205 H232 0.930 . S
C206 C204 1.380 . S
C206 C205 1.384 . S
C206 H233 0.931 . S
C207 C204 1.374 . S
C207 C208 1.390 . S
C207 H234 0.930 . S
C208 C207 1.390 . S
C208 C209 1.391 . S
C208 H235 0.930 . S
C209 C205 1.387 . S
C209 C208 1.391 . S
C210 Tb200 2.825 . S
C210 C204 1.507 . S
C210 O223 1.238 . S
C210 O224 1.247 . S
O211 Tb200 2.347 . S
O211 C215 1.259 . S
O212 Eu201 2.418 1_565 S
O212 C215 1.265 . S
O213 Eu201 2.384 . S
O213 C222 1.255 . S
O214 Tb200 2.366 . S
O214 C222 1.265 1_565 S
C215 O211 1.259 . S
C215 O212 1.265 . S
O216 Eu201 2.479 . S
O216 C231 1.238 . S
O217 Eu201 2.471 . S
O217 C231 1.247 . S
O218 Eu201 2.347 . S
O218 C202 1.259 . S
O219 Tb200 2.418 1_545 S
O219 C202 1.265 . S
O220 Tb200 2.384 . S
O220 C203 1.255 . S
O221 Eu201 2.366 1_565 S
O221 C203 1.265 . S
C222 O213 1.255 . S
C222 O214 1.265 1_545 S
O223 Tb200 2.479 . S
O223 C210 1.238 . S
O224 Tb200 2.471 . S
O224 C210 1.247 . S
C225 C228 1.380 . S
C225 C229 1.374 . S
C225 C231 1.507 . S
C226 C227 1.387 . S
C226 C230 1.391 . S
C227 C226 1.387 . S
C227 C228 1.384 . S
C227 H236 0.930 . S
C228 C225 1.380 . S
C228 C227 1.384 . S
C228 H237 0.931 . S
C229 C225 1.374 . S
C229 C230 1.390 . S
C229 H238 0.930 . S
C230 C226 1.391 . S
C230 C229 1.390 . S
C230 H239 0.930 . S
C231 Eu201 2.825 . S
C231 O216 1.238 . S
C231 O217 1.247 . S
C231 C225 1.507 . S
H232 C205 0.930 . S
H233 C206 0.931 . S
H234 C207 0.930 . S
H235 C208 0.930 . S
H236 C227 0.930 . S
H237 C228 0.931 . S
H238 C229 0.930 . S
H239 C230 0.930 . S
H240 C252 0.930 1_565 S
H241 C254 0.930 . S
H242 C255 0.930 . S
H243 C259 0.959 . S
H244 C259 0.959 . S
H245 C259 0.961 . S
H246 C260 0.960 . S
H247 C260 0.961 . S
H248 C260 0.959 . S
H249 C263 0.929 . S
H250 C264 0.931 . S
H251 C266 0.930 . S
C252 H240 0.930 1_545 S
C252 C253 1.399 1_455 S
C252 C257 1.399 . S
C253 C252 1.399 1_655 S
C253 C254 1.376 1_554 S
C254 H241 0.930 . S
C254 C253 1.376 1_556 S
C254 C255 1.388 1_655 S
C255 H242 0.930 . S
C255 C254 1.388 1_455 S
C255 C256 1.390 . S
C256 C255 1.390 . S
C256 C257 1.394 1_556 S
C256 C262 1.465 . S
C257 C252 1.399 . S
C257 C256 1.394 1_554 S
C257 C258 1.516 . S
C258 C257 1.516 . S
C258 C259 1.502 . S
C258 C260 1.561 1_554 S
C258 C261 1.526 . S
C259 H243 0.959 . S
C259 H244 0.959 . S
C259 H245 0.961 . S
C259 C258 1.502 . S
C260 H246 0.960 . S
C260 H247 0.961 . S
C260 H248 0.959 . S
C260 C258 1.561 1_556 S
C261 C258 1.526 . S
C261 C262 1.396 1_554 S
C261 C266 1.390 . S
C262 C256 1.465 . S
C262 C261 1.396 1_556 S
C262 C263 1.399 . S
C263 H249 0.929 . S
C263 C262 1.399 . S
C263 C264 1.385 . S
C264 H250 0.931 . S
C264 C263 1.385 . S
C264 C265 1.389 1_556 S
C265 C264 1.389 1_554 S
C265 C266 1.387 . S
C266 H251 0.930 . S
C266 C261 1.390 . S
C266 C265 1.387 . S
H267 C279 0.930 . S
H268 C281 0.930 1_565 S
H269 C282 0.930 . S
H270 C286 0.959 . S
H271 C286 0.959 . S
H272 C286 0.961 . S
H273 C287 0.960 . S
H274 C287 0.961 . S
H275 C287 0.959 . S
H276 C290 0.929 . S
H277 C291 0.931 . S
H278 C293 0.930 . S
C279 H267 0.930 . S
C279 C280 1.399 1_545 S
C279 C284 1.399 . S
C280 C279 1.399 1_565 S
C280 C281 1.376 1_565 S
C281 H268 0.930 1_545 S
C281 C280 1.376 1_545 S
C281 C282 1.388 . S
C282 H269 0.930 . S
C282 C281 1.388 . S
C282 C283 1.390 . S
C283 C282 1.390 . S
C283 C284 1.394 . S
C283 C289 1.465 . S
C284 C279 1.399 . S
C284 C283 1.394 . S
C284 C285 1.516 . S
C285 C284 1.516 . S
C285 C286 1.502 . S
C285 C287 1.561 . S
C285 C288 1.526 . S
C286 H270 0.959 . S
C286 H271 0.959 . S
C286 H272 0.961 . S
C286 C285 1.502 . S
C287 H273 0.960 . S
C287 H274 0.961 . S
C287 H275 0.959 . S
C287 C285 1.561 . S
C288 C285 1.526 . S
C288 C289 1.396 . S
C288 C293 1.390 . S
C289 C283 1.465 . S
C289 C288 1.396 . S
C289 C290 1.399 . S
C290 H276 0.929 . S
C290 C289 1.399 . S
C290 C291 1.385 . S
C291 H277 0.931 . S
C291 C290 1.385 . S
C291 C292 1.389 . S
C292 C291 1.389 . S
C292 C293 1.387 . S
C293 H278 0.930 . S
C293 C288 1.390 . S
C293 C292 1.387 . S
H294 C306 0.930 . S
H295 C308 0.930 . S
H296 C309 0.930 . S
H297 C313 0.959 . S
H298 C313 0.959 . S
H299 C313 0.961 . S
H300 C314 0.960 . S
H301 C314 0.961 . S
H302 C314 0.959 . S
H303 C317 0.929 . S
H304 C318 0.931 . S
H305 C320 0.930 . S
C306 H294 0.930 . S
C306 C307 1.399 . S
C306 C311 1.399 . S
C307 C306 1.399 . S
C307 C308 1.376 . S
C308 H295 0.930 . S
C308 C307 1.376 . S
C308 C309 1.388 . S
C309 H296 0.930 . S
C309 C308 1.388 . S
C309 C310 1.390 . S
C310 C309 1.390 . S
C310 C311 1.394 . S
C310 C316 1.465 . S
C311 C306 1.399 . S
C311 C310 1.394 . S
C311 C312 1.516 . S
C312 C311 1.516 . S
C312 C313 1.502 . S
C312 C314 1.561 . S
C312 C315 1.526 . S
C313 H297 0.959 . S
C313 H298 0.959 . S
C313 H299 0.961 . S
C313 C312 1.502 . S
C314 H300 0.960 . S
C314 H301 0.961 . S
C314 H302 0.959 . S
C314 C312 1.561 . S
C315 C312 1.526 . S
C315 C316 1.396 . S
C315 C320 1.390 . S
C316 C310 1.465 . S
C316 C315 1.396 . S
C316 C317 1.399 . S
C317 H303 0.929 . S
C317 C316 1.399 . S
C317 C318 1.385 . S
C318 H304 0.931 . S
C318 C317 1.385 . S
C318 C319 1.389 . S
C319 C318 1.389 . S
C319 C320 1.387 . S
C320 H305 0.930 . S
C320 C315 1.390 . S
C320 C319 1.387 . S
H321 C333 0.930 . S
H322 C335 0.930 . S
H323 C336 0.930 . S
H324 C340 0.959 . S
H325 C340 0.959 . S
H326 C340 0.961 . S
H327 C341 0.960 . S
H328 C341 0.961 . S
H329 C341 0.959 . S
H330 C344 0.929 . S
H331 C345 0.931 . S
H332 C347 0.930 . S
C333 H321 0.930 . S
C333 C334 1.399 . S
C333 C338 1.399 . S
C334 C333 1.399 . S
C334 C335 1.376 . S
C335 H322 0.930 . S
C335 C334 1.376 . S
C335 C336 1.388 . S
C336 H323 0.930 . S
C336 C335 1.388 . S
C336 C337 1.390 . S
C337 C336 1.390 . S
C337 C338 1.394 . S
C337 C343 1.465 . S
C338 C333 1.399 . S
C338 C337 1.394 . S
C338 C339 1.516 . S
C339 C338 1.516 . S
C339 C340 1.502 . S
C339 C341 1.561 . S
C339 C342 1.526 . S
C340 H324 0.959 . S
C340 H325 0.959 . S
C340 H326 0.961 . S
C340 C339 1.502 . S
C341 H327 0.960 . S
C341 H328 0.961 . S
C341 H329 0.959 . S
C341 C339 1.561 . S
C342 C339 1.526 . S
C342 C343 1.396 . S
C342 C347 1.390 . S
C343 C337 1.465 . S
C343 C342 1.396 . S
C343 C344 1.399 . S
C344 H330 0.929 . S
C344 C343 1.399 . S
C344 C345 1.385 . S
C345 H331 0.931 . S
C345 C344 1.385 . S
C345 C346 1.389 . S
C346 C345 1.389 . S
C346 C347 1.387 . S
C347 H332 0.930 . S
C347 C342 1.390 . S
C347 C346 1.387 . S
H348 C360 0.930 . S
H349 C362 0.930 . S
H350 C363 0.930 . S
H351 C367 0.959 1_655 S
H352 C367 0.959 . S
H353 C367 0.961 . S
H354 C368 0.960 . S
H355 C368 0.961 . S
H356 C368 0.959 . S
H357 C371 0.929 . S
H358 C372 0.931 . S
H359 C374 0.930 . S
C360 H348 0.930 . S
C360 C361 1.399 . S
C360 C365 1.399 . S
C361 C360 1.399 . S
C361 C362 1.376 . S
C362 H349 0.930 . S
C362 C361 1.376 . S
C362 C363 1.388 . S
C363 H350 0.930 . S
C363 C362 1.388 . S
C363 C364 1.390 . S
C364 C363 1.390 . S
C364 C365 1.394 . S
C364 C370 1.465 1_455 S
C365 C360 1.399 . S
C365 C364 1.394 . S
C365 C366 1.516 . S
C366 C365 1.516 . S
C366 C367 1.502 . S
C366 C368 1.561 . S
C366 C369 1.526 1_455 S
C367 H351 0.959 1_455 S
C367 H352 0.959 . S
C367 H353 0.961 . S
C367 C366 1.502 . S
C368 H354 0.960 . S
C368 H355 0.961 . S
C368 H356 0.959 . S
C368 C366 1.561 . S
C369 C366 1.526 1_655 S
C369 C370 1.396 . S
C369 C374 1.390 . S
C370 C364 1.465 1_655 S
C370 C369 1.396 . S
C370 C371 1.399 . S
C371 H357 0.929 . S
C371 C370 1.399 . S
C371 C372 1.385 . S
C372 H358 0.931 . S
C372 C371 1.385 . S
C372 C373 1.389 . S
C373 C372 1.389 . S
C373 C374 1.387 . S
C374 H359 0.930 . S
C374 C369 1.390 . S
C374 C373 1.387 . S
H375 C387 0.930 . S
H376 C389 0.930 . S
H377 C390 0.930 . S
H378 C394 0.959 . S
H379 C394 0.959 . S
H380 C394 0.961 . S
H381 C395 0.976 . S
H382 C395 0.961 . S
H383 C395 0.959 1_545 S
H384 C398 0.929 . S
H385 C399 0.931 . S
H386 C401 0.930 . S
C387 H375 0.930 . S
C387 C388 1.399 . S
C387 C392 1.399 . S
C388 C387 1.399 . S
C388 C389 1.376 . S
C389 H376 0.930 . S
C389 C388 1.376 . S
C389 C390 1.388 . S
C390 H377 0.930 . S
C390 C389 1.388 . S
C390 C391 1.390 . S
C391 C390 1.390 . S
C391 C392 1.394 . S
C391 C397 1.465 . S
C392 C387 1.399 . S
C392 C391 1.394 . S
C392 C393 1.516 1_545 S
C393 C392 1.516 1_565 S
C393 C394 1.502 . S
C393 C395 1.561 . S
C393 C396 1.526 . S
C394 H378 0.959 . S
C394 H379 0.959 . S
C394 H380 0.961 . S
C394 C393 1.502 . S
C395 H381 0.976 . S
C395 H382 0.961 . S
C395 H383 0.959 1_565 S
C395 C393 1.561 . S
C396 C393 1.526 . S
C396 C397 1.396 1_565 S
C396 C401 1.390 . S
C397 C391 1.465 . S
C397 C396 1.396 1_545 S
C397 C398 1.399 . S
C398 H384 0.929 . S
C398 C397 1.399 . S
C398 C399 1.385 1_545 S
C399 H385 0.931 . S
C399 C398 1.385 1_565 S
C399 C400 1.389 . S
C400 C399 1.389 . S
C400 C401 1.387 . S
C401 H386 0.930 . S
C401 C396 1.390 . S
C401 C400 1.387 . S
H402 C414 0.930 . S
H403 C416 0.930 . S
H404 C417 0.930 . S
H405 C421 0.959 . S
H406 C421 0.959 1_455 S
H407 C421 0.961 . S
H408 C422 0.960 1_655 S
H409 C422 0.961 . S
H410 C422 0.959 . S
H411 C425 0.929 . S
H412 C426 0.931 . S
H413 C428 0.930 . S
C414 H402 0.930 . S
C414 C415 1.399 . S
C414 C419 1.399 . S
C415 C414 1.399 . S
C415 C416 1.376 . S
C416 H403 0.930 . S
C416 C415 1.376 . S
C416 C417 1.388 . S
C417 H404 0.930 . S
C417 C416 1.388 . S
C417 C418 1.390 . S
C418 C417 1.390 . S
C418 C419 1.394 . S
C418 C424 1.465 . S
C419 C414 1.399 . S
C419 C418 1.394 . S
C419 C420 1.516 . S
C420 C419 1.516 . S
C420 C421 1.502 . S
C420 C422 1.561 1_655 S
C420 C423 1.526 . S
C421 H405 0.959 . S
C421 H406 0.959 1_655 S
C421 H407 0.961 . S
C421 C420 1.502 . S
C422 H408 0.960 1_455 S
C422 H409 0.961 . S
C422 H410 0.959 . S
C422 C420 1.561 1_455 S
C423 C420 1.526 . S
C423 C424 1.396 . S
C423 C428 1.390 1_655 S
C424 C418 1.465 . S
C424 C423 1.396 . S
C424 C425 1.399 . S
C425 H411 0.929 . S
C425 C424 1.399 . S
C425 C426 1.385 1_655 S
C426 H412 0.931 . S
C426 C425 1.385 1_455 S
C426 C427 1.389 . S
C427 C426 1.389 . S
C427 C428 1.387 . S
C428 H413 0.930 . S
C428 C423 1.390 1_455 S
C428 C427 1.387 . S
H429 C441 0.930 . S
H430 C443 0.930 . S
H431 C444 0.930 . S
H432 C448 0.959 . S
H433 C448 0.959 . S
H434 C448 0.961 1_565 S
H435 C449 0.960 . S
H436 C449 0.961 . S
H437 C449 0.959 . S
H438 C452 0.929 . S
H439 C453 0.931 . S
H440 C455 0.930 . S
C441 H429 0.930 . S
C441 C442 1.399 . S
C441 C446 1.399 . S
C442 C441 1.399 . S
C442 C443 1.376 . S
C443 H430 0.930 . S
C443 C442 1.376 . S
C443 C444 1.388 . S
C444 H431 0.930 . S
C444 C443 1.388 . S
C444 C445 1.390 . S
C445 C444 1.390 . S
C445 C446 1.394 . S
C445 C451 1.465 . S
C446 C441 1.399 . S
C446 C445 1.394 . S
C446 C447 1.516 . S
C447 C446 1.516 . S
C447 C448 1.502 1_565 S
C447 C449 1.561 . S
C447 C450 1.526 . S
C448 H432 0.959 . S
C448 H433 0.959 . S
C448 H434 0.961 1_545 S
C448 C447 1.502 1_545 S
C449 H435 0.960 . S
C449 H436 0.961 . S
C449 H437 0.959 . S
C449 C447 1.561 . S
C450 C447 1.526 . S
C450 C451 1.396 . S
C450 C455 1.390 1_565 S
C451 C445 1.465 . S
C451 C450 1.396 . S
C451 C452 1.399 . S
C452 H438 0.929 . S
C452 C451 1.399 . S
C452 C453 1.385 1_565 S
C453 H439 0.931 . S
C453 C452 1.385 1_545 S
C453 C454 1.389 . S
C454 C453 1.389 . S
C454 C455 1.387 . S
C455 H440 0.930 . S
C455 C450 1.390 1_545 S
C455 C454 1.387 . S
H456 C468 0.930 . S
H457 C470 0.930 . S
H458 C471 0.930 . S
H459 C475 0.959 . S
H460 C475 0.959 . S
H461 C475 0.961 . S
H462 C476 0.960 . S
H463 C476 0.961 . S
H464 C476 0.959 . S
H465 C479 0.929 . S
H466 C480 0.931 . S
H467 C482 0.930 . S
C468 H456 0.930 . S
C468 C469 1.399 . S
C468 C473 1.399 . S
C469 C468 1.399 . S
C469 C470 1.376 . S
C470 H457 0.930 . S
C470 C469 1.376 . S
C470 C471 1.388 . S
C471 H458 0.930 . S
C471 C470 1.388 . S
C471 C472 1.390 . S
C472 C471 1.390 . S
C472 C473 1.394 . S
C472 C478 1.465 . S
C473 C468 1.399 . S
C473 C472 1.394 . S
C473 C474 1.516 . S
C474 C473 1.516 . S
C474 C475 1.502 . S
C474 C476 1.561 . S
C474 C477 1.526 . S
C475 H459 0.959 . S
C475 H460 0.959 . S
C475 H461 0.961 . S
C475 C474 1.502 . S
C476 H462 0.960 . S
C476 H463 0.961 . S
C476 H464 0.959 . S
C476 C474 1.561 . S
C477 C474 1.526 . S
C477 C478 1.396 . S
C477 C482 1.390 . S
C478 C472 1.465 . S
C478 C477 1.396 . S
C478 C479 1.399 . S
C479 H465 0.929 . S
C479 C478 1.399 . S
C479 C480 1.385 . S
C480 H466 0.931 . S
C480 C479 1.385 . S
C480 C481 1.389 . S
C481 C480 1.389 . S
C481 C482 1.387 . S
C482 H467 0.930 . S
C482 C477 1.390 . S
C482 C481 1.387 . S
H483 C495 0.930 . S
H484 C497 0.930 . S
H485 C498 0.930 . S
H486 C502 0.959 . S
H487 C502 0.959 . S
H488 C502 0.961 . S
H489 C503 0.960 . S
H490 C503 0.961 . S
H491 C503 0.959 . S
H492 C506 0.929 . S
H493 C507 0.931 . S
H494 C509 0.930 . S
C495 H483 0.930 . S
C495 C496 1.399 1_556 S
C495 C500 1.399 . S
C496 C495 1.399 1_554 S
C496 C497 1.376 . S
C497 H484 0.930 . S
C497 C496 1.376 . S
C497 C498 1.388 . S
C498 H485 0.930 . S
C498 C497 1.388 . S
C498 C499 1.390 . S
C499 C498 1.390 . S
C499 C500 1.394 1_554 S
C499 C505 1.465 . S
C500 C495 1.399 . S
C500 C499 1.394 1_556 S
C500 C501 1.516 . S
C501 C500 1.516 . S
C501 C502 1.502 . S
C501 C503 1.561 . S
C501 C504 1.526 . S
C502 H486 0.959 . S
C502 H487 0.959 . S
C502 H488 0.961 . S
C502 C501 1.502 . S
C503 H489 0.960 . S
C503 H490 0.961 . S
C503 H491 0.959 . S
C503 C501 1.561 . S
C504 C501 1.526 . S
C504 C505 1.396 1_556 S
C504 C509 1.390 . S
C505 C499 1.465 . S
C505 C504 1.396 1_554 S
C505 C506 1.399 . S
C506 H492 0.929 . S
C506 C505 1.399 . S
C506 C507 1.385 . S
C507 H493 0.931 . S
C507 C506 1.385 . S
C507 C508 1.389 . S
C508 C507 1.389 . S
C508 C509 1.387 1_554 S
C509 H494 0.930 . S
C509 C504 1.390 . S
C509 C508 1.387 1_556 S
H510 C522 0.930 . S
H511 C524 0.930 . S
H512 C525 0.930 . S
H513 C529 0.959 . S
H514 C529 0.959 . S
H515 C529 0.961 . S
H516 C530 0.960 . S
H517 C530 0.961 . S
H518 C530 0.959 . S
H519 C533 0.929 . S
H520 C534 0.931 . S
H521 C536 0.930 . S
C522 H510 0.930 . S
C522 C523 1.399 . S
C522 C527 1.399 . S
C523 C522 1.399 . S
C523 C524 1.376 . S
C524 H511 0.930 . S
C524 C523 1.376 . S
C524 C525 1.388 . S
C525 H512 0.930 . S
C525 C524 1.388 . S
C525 C526 1.390 . S
C526 C525 1.390 . S
C526 C527 1.394 . S
C526 C532 1.465 . S
C527 C522 1.399 . S
C527 C526 1.394 . S
C527 C528 1.516 . S
C528 C527 1.516 . S
C528 C529 1.502 . S
C528 C530 1.561 . S
C528 C531 1.526 . S
C529 H513 0.959 . S
C529 H514 0.959 . S
C529 H515 0.961 . S
C529 C528 1.502 . S
C530 H516 0.960 . S
C530 H517 0.961 . S
C530 H518 0.959 . S
C530 C528 1.561 . S
C531 C528 1.526 . S
C531 C532 1.396 . S
C531 C536 1.390 . S
C532 C526 1.465 . S
C532 C531 1.396 . S
C532 C533 1.399 . S
C533 H519 0.929 . S
C533 C532 1.399 . S
C533 C534 1.385 . S
C534 H520 0.931 . S
C534 C533 1.385 . S
C534 C535 1.389 . S
C535 C534 1.389 . S
C535 C536 1.387 . S
C536 H521 0.930 . S
C536 C531 1.390 . S
C536 C535 1.387 . S
H537 C549 0.930 1_655 S
H538 C551 0.930 . S
H539 C552 0.930 . S
H540 C556 0.959 . S
H541 C556 0.959 . S
H542 C556 0.961 . S
H543 C557 0.960 1_655 S
H544 C557 0.961 . S
H545 C557 0.959 . S
H546 C560 0.929 . S
H547 C561 0.931 . S
H548 C563 0.930 . S
C549 H537 0.930 1_455 S
C549 C550 1.399 . S
C549 C554 1.399 . S
C550 C549 1.399 . S
C550 C551 1.376 . S
C551 H538 0.930 . S
C551 C550 1.376 . S
C551 C552 1.388 . S
C552 H539 0.930 . S
C552 C551 1.388 . S
C552 C553 1.390 . S
C553 C552 1.390 . S
C553 C554 1.394 . S
C553 C559 1.465 . S
C554 C549 1.399 . S
C554 C553 1.394 . S
C554 C555 1.516 . S
C555 C554 1.516 . S
C555 C556 1.502 . S
C555 C557 1.561 . S
C555 C558 1.526 . S
C556 H540 0.959 . S
C556 H541 0.959 . S
C556 H542 0.961 . S
C556 C555 1.502 . S
C557 H543 0.960 1_455 S
C557 H544 0.961 . S
C557 H545 0.959 . S
C557 C555 1.561 . S
C558 C555 1.526 . S
C558 C559 1.396 . S
C558 C563 1.390 . S
C559 C553 1.465 . S
C559 C558 1.396 . S
C559 C560 1.399 . S
C560 H546 0.929 . S
C560 C559 1.399 . S
C560 C561 1.385 . S
C561 H547 0.931 . S
C561 C560 1.385 . S
C561 C562 1.389 . S
C562 C561 1.389 . S
C562 C563 1.387 . S
C563 H548 0.930 . S
C563 C558 1.390 . S
C563 C562 1.387 . S
H564 C576 0.930 . S
H565 C578 0.930 . S
H566 C579 0.930 . S
H567 C583 0.959 . S
H568 C583 0.959 . S
H569 C583 0.961 . S
H570 C584 0.960 . S
H571 C584 0.961 . S
H572 C584 0.959 . S
H573 C587 0.929 . S
H574 C588 0.931 . S
H575 C590 0.930 . S
C576 H564 0.930 . S
C576 C577 1.399 . S
C576 C581 1.399 . S
C577 C576 1.399 . S
C577 C578 1.376 . S
C578 H565 0.930 . S
C578 C577 1.376 . S
C578 C579 1.388 . S
C579 H566 0.930 . S
C579 C578 1.388 . S
C579 C580 1.390 . S
C580 C579 1.390 . S
C580 C581 1.394 . S
C580 C586 1.465 . S
C581 C576 1.399 . S
C581 C580 1.394 . S
C581 C582 1.516 . S
C582 C581 1.516 . S
C582 C583 1.502 . S
C582 C584 1.561 . S
C582 C585 1.526 . S
C583 H567 0.959 . S
C583 H568 0.959 . S
C583 H569 0.961 . S
C583 C582 1.502 . S
C584 H570 0.960 . S
C584 H571 0.961 . S
C584 H572 0.959 . S
C584 C582 1.561 . S
C585 C582 1.526 . S
C585 C586 1.396 . S
C585 C590 1.390 . S
C586 C580 1.465 . S
C586 C585 1.396 . S
C586 C587 1.399 . S
C587 H573 0.929 . S
C587 C586 1.399 . S
C587 C588 1.385 . S
C588 H574 0.931 . S
C588 C587 1.385 . S
C588 C589 1.389 . S
C589 C588 1.389 . S
C589 C590 1.387 . S
C590 H575 0.930 . S
C590 C585 1.390 . S
C590 C589 1.387 . S
H591 C603 0.930 . S
H592 C605 0.930 . S
H593 C606 0.930 . S
H594 C610 0.959 . S
H595 C610 0.959 . S
H596 C610 0.961 . S
H597 C611 0.960 . S
H598 C611 0.961 . S
H599 C611 0.959 . S
H600 C614 0.929 . S
H601 C615 0.931 . S
H602 C617 0.930 . S
C603 H591 0.930 . S
C603 C604 1.399 . S
C603 C608 1.399 . S
C604 C603 1.399 . S
C604 C605 1.376 . S
C605 H592 0.930 . S
C605 C604 1.376 . S
C605 C606 1.388 . S
C606 H593 0.930 . S
C606 C605 1.388 . S
C606 C607 1.390 . S
C607 C606 1.390 . S
C607 C608 1.394 . S
C607 C613 1.465 . S
C608 C603 1.399 . S
C608 C607 1.394 . S
C608 C609 1.516 . S
C609 C608 1.516 . S
C609 C610 1.502 . S
C609 C611 1.561 . S
C609 C612 1.526 . S
C610 H594 0.959 . S
C610 H595 0.959 . S
C610 H596 0.961 . S
C610 C609 1.502 . S
C611 H597 0.960 . S
C611 H598 0.961 . S
C611 H599 0.959 . S
C611 C609 1.561 . S
C612 C609 1.526 . S
C612 C613 1.396 . S
C612 C617 1.390 . S
C613 C607 1.465 . S
C613 C612 1.396 . S
C613 C614 1.399 . S
C614 H600 0.929 . S
C614 C613 1.399 . S
C614 C615 1.385 . S
C615 H601 0.931 . S
C615 C614 1.385 . S
C615 C616 1.389 . S
C616 C615 1.389 . S
C616 C617 1.387 . S
C617 H602 0.930 . S
C617 C612 1.390 . S
C617 C616 1.387 . S
H618 C630 0.930 . S
H619 C632 0.924 1_455 S
H620 C633 0.930 1_455 S
H621 C637 0.959 . S
H622 C637 0.959 . S
H623 C637 0.961 . S
H624 C638 0.960 . S
H625 C638 0.961 . S
H626 C638 0.959 . S
H627 C641 0.929 . S
H628 C642 0.931 . S
H629 C644 0.930 . S
C630 H618 0.930 . S
C630 C631 1.399 . S
C630 C635 1.399 . S
C631 C630 1.399 . S
C631 C632 1.376 . S
C632 H619 0.924 1_655 S
C632 C631 1.376 . S
C632 C633 1.388 . S
C633 H620 0.930 1_655 S
C633 C632 1.388 . S
C633 C634 1.390 . S
C634 C633 1.390 . S
C634 C635 1.394 . S
C634 C640 1.465 . S
C635 C630 1.399 . S
C635 C634 1.394 . S
C635 C636 1.516 . S
C636 C635 1.516 . S
C636 C637 1.502 . S
C636 C638 1.561 . S
C636 C639 1.526 . S
C637 H621 0.959 . S
C637 H622 0.959 . S
C637 H623 0.961 . S
C637 C636 1.502 . S
C638 H624 0.960 . S
C638 H625 0.961 . S
C638 H626 0.959 . S
C638 C636 1.561 . S
C639 C636 1.526 . S
C639 C640 1.396 . S
C639 C644 1.390 . S
C640 C634 1.465 . S
C640 C639 1.396 . S
C640 C641 1.399 . S
C641 H627 0.929 . S
C641 C640 1.399 . S
C641 C642 1.385 . S
C642 H628 0.931 . S
C642 C641 1.385 . S
C642 C643 1.389 . S
C643 C642 1.389 . S
C643 C644 1.387 . S
C644 H629 0.930 . S
C644 C639 1.390 . S
C644 C643 1.387 . S
H645 C657 0.930 . S
H646 C659 0.930 1_545 S
H647 C660 0.930 1_545 S
H648 C664 0.959 . S
H649 C664 0.959 . S
H650 C664 0.961 . S
H651 C665 0.960 . S
H652 C665 0.961 . S
H653 C665 0.959 . S
H654 C668 0.929 1_545 S
H655 C669 0.931 . S
H656 C671 0.930 . S
C657 H645 0.930 . S
C657 C658 1.399 . S
C657 C662 1.399 . S
C658 C657 1.399 . S
C658 C659 1.376 . S
C659 H646 0.930 1_565 S
C659 C658 1.376 . S
C659 C660 1.388 . S
C660 H647 0.930 1_565 S
C660 C659 1.388 . S
C660 C661 1.390 . S
C661 C660 1.390 . S
C661 C662 1.394 . S
C661 C667 1.465 . S
C662 C657 1.399 . S
C662 C661 1.394 . S
C662 C663 1.516 . S
C663 C662 1.516 . S
C663 C664 1.502 . S
C663 C665 1.561 . S
C663 C666 1.526 . S
C664 H648 0.959 . S
C664 H649 0.959 . S
C664 H650 0.961 . S
C664 C663 1.502 . S
C665 H651 0.960 . S
C665 H652 0.961 . S
C665 H653 0.959 . S
C665 C663 1.561 . S
C666 C663 1.526 . S
C666 C667 1.396 . S
C666 C671 1.390 . S
C667 C661 1.465 . S
C667 C666 1.396 . S
C667 C668 1.399 . S
C668 H654 0.929 1_565 S
C668 C667 1.399 . S
C668 C669 1.385 . S
C669 H655 0.931 . S
C669 C668 1.385 . S
C669 C670 1.389 . S
C670 C669 1.389 . S
C670 C671 1.387 . S
C671 H656 0.930 . S
C671 C666 1.390 . S
C671 C670 1.387 . S
H672 C684 0.930 . S
H673 C686 0.930 . S
H674 C687 0.930 . S
H675 C691 0.959 . S
H676 C691 0.959 . S
H677 C691 0.961 . S
H678 C692 0.960 . S
H679 C692 0.961 . S
H680 C692 0.959 . S
H681 C695 0.929 1_545 S
H682 C696 0.943 . S
H683 C698 0.930 . S
C684 H672 0.930 . S
C684 C685 1.399 . S
C684 C689 1.399 . S
C685 C684 1.399 . S
C685 C686 1.376 . S
C686 H673 0.930 . S
C686 C685 1.376 . S
C686 C687 1.388 . S
C687 H674 0.930 . S
C687 C686 1.388 . S
C687 C688 1.390 . S
C688 C687 1.390 . S
C688 C689 1.394 . S
C688 C694 1.465 . S
C689 C684 1.399 . S
C689 C688 1.394 . S
C689 C690 1.516 . S
C690 C689 1.516 . S
C690 C691 1.502 1_455 S
C690 C692 1.561 . S
C690 C693 1.526 . S
C691 H675 0.959 . S
C691 H676 0.959 . S
C691 H677 0.961 . S
C691 C690 1.502 1_655 S
C692 H678 0.960 . S
C692 H679 0.961 . S
C692 H680 0.959 . S
C692 C690 1.561 . S
C693 C690 1.526 . S
C693 C694 1.396 . S
C693 C698 1.390 . S
C694 C688 1.465 . S
C694 C693 1.396 . S
C694 C695 1.399 . S
C695 H681 0.929 1_565 S
C695 C694 1.399 . S
C695 C696 1.385 . S
C696 H682 0.943 . S
C696 C695 1.385 . S
C696 C697 1.389 . S
C697 C696 1.389 . S
C697 C698 1.387 . S
C698 H683 0.930 . S
C698 C693 1.390 . S
C698 C697 1.387 . S
H699 C711 0.930 . S
H700 C713 0.930 1_565 S
H701 C714 0.930 1_565 S
H702 C718 0.959 . S
H703 C718 0.959 . S
H704 C718 0.961 . S
H705 C719 0.960 . S
H706 C719 0.961 . S
H707 C719 0.959 . S
H708 C722 0.929 . S
H709 C723 0.931 . S
H710 C725 0.930 . S
C711 H699 0.930 . S
C711 C712 1.399 . S
C711 C716 1.399 . S
C712 C711 1.399 . S
C712 C713 1.376 . S
C713 H700 0.930 1_545 S
C713 C712 1.376 . S
C713 C714 1.388 . S
C714 H701 0.930 1_545 S
C714 C713 1.388 . S
C714 C715 1.390 . S
C715 C714 1.390 . S
C715 C716 1.394 . S
C715 C721 1.465 . S
C716 C711 1.399 . S
C716 C715 1.394 . S
C716 C717 1.516 . S
C717 C716 1.516 . S
C717 C718 1.502 . S
C717 C719 1.561 . S
C717 C720 1.526 . S
C718 H702 0.959 . S
C718 H703 0.959 . S
C718 H704 0.961 . S
C718 C717 1.502 . S
C719 H705 0.960 . S
C719 H706 0.961 . S
C719 H707 0.959 . S
C719 C717 1.561 . S
C720 C717 1.526 . S
C720 C721 1.396 . S
C720 C725 1.390 . S
C721 C715 1.465 . S
C721 C720 1.396 . S
C721 C722 1.399 . S
C722 H708 0.929 . S
C722 C721 1.399 . S
C722 C723 1.385 . S
C723 H709 0.931 . S
C723 C722 1.385 . S
C723 C724 1.389 . S
C724 C723 1.389 . S
C724 C725 1.387 . S
C725 H710 0.930 . S
C725 C720 1.390 . S
C725 C724 1.387 . S
C253 C122 0.651 . S
C265 C2 0.835 . S
C280 C162 0.832 . S
C292 C42 0.675 . S
C307 C202 0.836 . S
C319 C82 0.657 . S
C334 C26 0.735 . S
C346 C89 0.884 . S
C361 C66 0.673 . S
C373 C129 0.890 . S
C388 C106 0.829 . S
C400 C169 0.724 . S
C415 C146 0.766 . S
C427 C209 0.863 . S
C442 C186 0.902 . S
C454 C9 0.703 . S
C469 C226 0.908 . S
C481 C49 0.680 . S
C496 C15 1.675 . S
C508 C135 1.643 1_545 S
C523 C55 1.634 . S
C535 C175 1.678 . S
C550 C95 1.636 1_455 S
C562 C215 1.677 . S
C577 C22 4.057 . S
C589 C43 4.076 . S
C604 C62 4.054 . S
C616 C83 4.071 . S
C631 C102 4.041 . S
C643 C123 4.077 . S
C658 C142 4.042 . S
C670 C163 4.073 . S
C685 C182 4.046 . S
C697 C203 4.071 . S
C712 C222 4.042 . S
C724 C3 4.078 . S
