# Generated by pormake.
# Topology lcy-a, (4)-cn, num edge types: 1
# Building blocks:
#     Node 0, Type 0, BuildingBlock: QUQFOY_clean_sbu_3, # of connection points: 4
#     Node 1, Type 0, BuildingBlock: QUQFOY_clean_sbu_3, # of connection points: 4
#     Node 2, Type 0, BuildingBlock: QUQFOY_clean_sbu_3, # of connection points: 4
#     Node 3, Type 0, BuildingBlock: QUQFOY_clean_sbu_3, # of connection points: 4
#     Node 4, Type 0, BuildingBlock: QUQFOY_clean_sbu_3, # of connection points: 4
#     Node 5, Type 0, BuildingBlock: QUQFOY_clean_sbu_3, # of connection points: 4
#     Node 6, Type 0, BuildingBlock: QUQFOY_clean_sbu_3, # of connection points: 4
#     Node 7, Type 0, BuildingBlock: QUQFOY_clean_sbu_3, # of connection points: 4
#     Node 8, Type 0, BuildingBlock: QUQFOY_clean_sbu_3, # of connection points: 4
#     Node 9, Type 0, BuildingBlock: QUQFOY_clean_sbu_3, # of connection points: 4
#     Node 10, Type 0, BuildingBlock: QUQFOY_clean_sbu_3, # of connection points: 4
#     Node 11, Type 0, BuildingBlock: QUQFOY_clean_sbu_3, # of connection points: 4
#     Node 12, Type 0, BuildingBlock: QUQFOY_clean_sbu_3, # of connection points: 4
#     Node 13, Type 0, BuildingBlock: QUQFOY_clean_sbu_3, # of connection points: 4
#     Node 14, Type 0, BuildingBlock: QUQFOY_clean_sbu_3, # of connection points: 4
#     Node 15, Type 0, BuildingBlock: QUQFOY_clean_sbu_3, # of connection points: 4
#     Node 16, Type 0, BuildingBlock: QUQFOY_clean_sbu_3, # of connection points: 4
#     Node 17, Type 0, BuildingBlock: QUQFOY_clean_sbu_3, # of connection points: 4
#     Node 18, Type 0, BuildingBlock: QUQFOY_clean_sbu_3, # of connection points: 4
#     Node 19, Type 0, BuildingBlock: QUQFOY_clean_sbu_3, # of connection points: 4
#     Node 20, Type 0, BuildingBlock: QUQFOY_clean_sbu_3, # of connection points: 4
#     Node 21, Type 0, BuildingBlock: QUQFOY_clean_sbu_3, # of connection points: 4
#     Node 22, Type 0, BuildingBlock: QUQFOY_clean_sbu_3, # of connection points: 4
#     Node 23, Type 0, BuildingBlock: QUQFOY_clean_sbu_3, # of connection points: 4
#     Edge 24, Type (0, 0), BuildingBlock: AJUNOK_clean_linker_0, # of connection points: 2
#     Edge 25, Type (0, 0), BuildingBlock: AJUNOK_clean_linker_0, # of connection points: 2
#     Edge 26, Type (0, 0), BuildingBlock: AJUNOK_clean_linker_0, # of connection points: 2
#     Edge 27, Type (0, 0), BuildingBlock: AJUNOK_clean_linker_0, # of connection points: 2
#     Edge 28, Type (0, 0), BuildingBlock: AJUNOK_clean_linker_0, # of connection points: 2
#     Edge 29, Type (0, 0), BuildingBlock: AJUNOK_clean_linker_0, # of connection points: 2
#     Edge 30, Type (0, 0), BuildingBlock: AJUNOK_clean_linker_0, # of connection points: 2
#     Edge 31, Type (0, 0), BuildingBlock: AJUNOK_clean_linker_0, # of connection points: 2
#     Edge 32, Type (0, 0), BuildingBlock: AJUNOK_clean_linker_0, # of connection points: 2
#     Edge 33, Type (0, 0), BuildingBlock: AJUNOK_clean_linker_0, # of connection points: 2
#     Edge 34, Type (0, 0), BuildingBlock: AJUNOK_clean_linker_0, # of connection points: 2
#     Edge 35, Type (0, 0), BuildingBlock: AJUNOK_clean_linker_0, # of connection points: 2
#     Edge 36, Type (0, 0), BuildingBlock: AJUNOK_clean_linker_0, # of connection points: 2
#     Edge 37, Type (0, 0), BuildingBlock: AJUNOK_clean_linker_0, # of connection points: 2
#     Edge 38, Type (0, 0), BuildingBlock: AJUNOK_clean_linker_0, # of connection points: 2
#     Edge 39, Type (0, 0), BuildingBlock: AJUNOK_clean_linker_0, # of connection points: 2
#     Edge 40, Type (0, 0), BuildingBlock: AJUNOK_clean_linker_0, # of connection points: 2
#     Edge 41, Type (0, 0), BuildingBlock: AJUNOK_clean_linker_0, # of connection points: 2
#     Edge 42, Type (0, 0), BuildingBlock: AJUNOK_clean_linker_0, # of connection points: 2
#     Edge 43, Type (0, 0), BuildingBlock: AJUNOK_clean_linker_0, # of connection points: 2
#     Edge 44, Type (0, 0), BuildingBlock: AJUNOK_clean_linker_0, # of connection points: 2
#     Edge 45, Type (0, 0), BuildingBlock: AJUNOK_clean_linker_0, # of connection points: 2
#     Edge 46, Type (0, 0), BuildingBlock: AJUNOK_clean_linker_0, # of connection points: 2
#     Edge 47, Type (0, 0), BuildingBlock: AJUNOK_clean_linker_0, # of connection points: 2
#     Edge 48, Type (0, 0), BuildingBlock: AJUNOK_clean_linker_0, # of connection points: 2
#     Edge 49, Type (0, 0), BuildingBlock: AJUNOK_clean_linker_0, # of connection points: 2
#     Edge 50, Type (0, 0), BuildingBlock: AJUNOK_clean_linker_0, # of connection points: 2
#     Edge 51, Type (0, 0), BuildingBlock: AJUNOK_clean_linker_0, # of connection points: 2
#     Edge 52, Type (0, 0), BuildingBlock: AJUNOK_clean_linker_0, # of connection points: 2
#     Edge 53, Type (0, 0), BuildingBlock: AJUNOK_clean_linker_0, # of connection points: 2
#     Edge 54, Type (0, 0), BuildingBlock: AJUNOK_clean_linker_0, # of connection points: 2
#     Edge 55, Type (0, 0), BuildingBlock: AJUNOK_clean_linker_0, # of connection points: 2
#     Edge 56, Type (0, 0), BuildingBlock: AJUNOK_clean_linker_0, # of connection points: 2
#     Edge 57, Type (0, 0), BuildingBlock: AJUNOK_clean_linker_0, # of connection points: 2
#     Edge 58, Type (0, 0), BuildingBlock: AJUNOK_clean_linker_0, # of connection points: 2
#     Edge 59, Type (0, 0), BuildingBlock: AJUNOK_clean_linker_0, # of connection points: 2
#     Edge 60, Type (0, 0), BuildingBlock: AJUNOK_clean_linker_0, # of connection points: 2
#     Edge 61, Type (0, 0), BuildingBlock: AJUNOK_clean_linker_0, # of connection points: 2
#     Edge 62, Type (0, 0), BuildingBlock: AJUNOK_clean_linker_0, # of connection points: 2
#     Edge 63, Type (0, 0), BuildingBlock: AJUNOK_clean_linker_0, # of connection points: 2
#     Edge 64, Type (0, 0), BuildingBlock: AJUNOK_clean_linker_0, # of connection points: 2
#     Edge 65, Type (0, 0), BuildingBlock: AJUNOK_clean_linker_0, # of connection points: 2
#     Edge 66, Type (0, 0), BuildingBlock: AJUNOK_clean_linker_0, # of connection points: 2
#     Edge 67, Type (0, 0), BuildingBlock: AJUNOK_clean_linker_0, # of connection points: 2
#     Edge 68, Type (0, 0), BuildingBlock: AJUNOK_clean_linker_0, # of connection points: 2
#     Edge 69, Type (0, 0), BuildingBlock: AJUNOK_clean_linker_0, # of connection points: 2
#     Edge 70, Type (0, 0), BuildingBlock: AJUNOK_clean_linker_0, # of connection points: 2
#     Edge 71, Type (0, 0), BuildingBlock: AJUNOK_clean_linker_0, # of connection points: 2
# Relax obj value: 0.405
# Max RMSD: 0.180
# Mean RMSD: 0.180
data_MOF--net-lcy-a--node1-QUQFOY_clean_sbu_3--edge1-AJUNOK_clean_linker_0
_symmetry_space_group_name_H-M    P1
_symmetry_Int_Tables_number       1
_symmetry_cell_setting            triclinic
loop_
_symmetry_equiv_pos_as_xyz
'x, y, z'
_cell_length_a     43.030105
_cell_length_b     43.054732
_cell_length_c     43.014704
_cell_angle_alpha  89.93895
_cell_angle_beta   90.283669
_cell_angle_gamma 89.806286
loop_
_atom_site_label
_atom_site_type_symbol
_atom_site_fract_x
_atom_site_fract_y
_atom_site_fract_z
_atom_type_partial_charge
C0 C 0.21864 0.24222 0.36737 0.0
O1 O 0.22411 0.24389 0.39607 0.0
Cd2 Cd 0.23096 0.29921 0.39453 0.0
O3 O 0.20315 0.26445 0.35535 0.0
Cd4 Cd 0.17109 0.2991 0.39099 0.0
C5 C 0.18453 0.33328 0.33247 0.0
O6 O 0.20226 0.30909 0.43835 0.0
O7 O 0.18337 0.35026 0.41813 0.0
O8 O 0.15976 0.24955 0.40907 0.0
C9 C 0.19765 0.33775 0.44085 0.0
O10 O 0.2092 0.32625 0.34767 0.0
C11 C 0.13243 0.25548 0.41787 0.0
O12 O 0.15809 0.32521 0.34262 0.0
O13 O 0.12131 0.28251 0.41258 0.0
C14 C 0.97483 0.98261 0.61352 0.0
O15 O 0.95516 0.00412 0.61887 0.0
Cd16 Cd 0.90273 -0.0023 0.63278 0.0
O17 O 0.9684 0.95387 0.61762 0.0
Cd18 Cd 0.92716 0.91801 0.6405 0.0
C19 C 0.89278 0.93234 0.58415 0.0
O20 O 0.91391 0.96283 0.67258 0.0
O21 O 0.88576 0.92322 0.68296 0.0
O22 O 0.97757 0.90658 0.65665 0.0
C23 C 0.89255 0.95133 0.68875 0.0
O24 O 0.89866 0.95056 0.60615 0.0
C25 C 0.97103 0.88088 0.66914 0.0
O26 O 0.90156 0.9045 0.58788 0.0
O27 O 0.94354 0.87043 0.66609 0.0
C28 C 0.24472 0.71985 0.86287 0.0
O29 O 0.22332 0.7 0.86758 0.0
Cd30 Cd 0.23006 0.64723 0.88325 0.0
O31 O 0.27333 0.71387 0.86839 0.0
Cd32 Cd 0.31035 0.67379 0.89061 0.0
C33 C 0.2938 0.64175 0.83375 0.0
O34 O 0.26531 0.66102 0.92189 0.0
O35 O 0.30548 0.63475 0.93557 0.0
O36 O 0.3173 0.72522 0.90579 0.0
C37 C 0.27694 0.64111 0.93993 0.0
O38 O 0.27798 0.6427 0.85819 0.0
C39 C 0.34434 0.72195 0.91687 0.0
O40 O 0.32216 0.64885 0.83715 0.0
O41 O 0.35751 0.69554 0.91361 0.0
C42 C 0.50147 -0.00313 0.1175 0.0
O43 O 0.51432 0.97962 0.13774 0.0
Cd44 Cd 0.56792 0.98507 0.14358 0.0
O45 O 0.51376 0.02279 0.1098 0.0
Cd46 Cd 0.55198 0.05826 0.13966 0.0
C47 C 0.58137 0.04136 0.0816 0.0
O48 O 0.56019 0.02127 0.18174 0.0
O49 O 0.60031 0.04907 0.1737 0.0
O50 O 0.50192 0.06984 0.15658 0.0
C51 C 0.5869 0.02885 0.19048 0.0
O52 O 0.57671 0.02192 0.10309 0.0
C53 C 0.50787 0.09654 0.16709 0.0
O54 O 0.57699 0.06979 0.08792 0.0
O55 O 0.53505 0.10747 0.16301 0.0
C56 C 0.7354 0.22011 0.6167 0.0
O57 O 0.75521 0.19806 0.61547 0.0
Cd58 Cd 0.74636 0.14511 0.60252 0.0
O59 O 0.70688 0.21565 0.60995 0.0
Cd60 Cd 0.67314 0.17309 0.58833 0.0
C61 C 0.6831 0.13832 0.65495 0.0
O62 O 0.71697 0.15972 0.56006 0.0
O63 O 0.6787 0.13268 0.54416 0.0
O64 O 0.66816 0.22308 0.56952 0.0
C65 C 0.70713 0.14003 0.54104 0.0
O66 O 0.71006 0.13604 0.6433 0.0
C67 C 0.64085 0.22048 0.55907 0.0
O68 O 0.66108 0.15117 0.63978 0.0
O69 O 0.62624 0.1953 0.56468 0.0
C70 C 0.00813 0.48062 0.87335 0.0
O71 O 0.0333 0.49461 0.87997 0.0
Cd72 Cd 0.08228 0.48407 0.85522 0.0
O73 O 0.00881 0.45528 0.85832 0.0
Cd74 Cd 0.05097 0.42107 0.83944 0.0
C75 C 0.09241 0.42459 0.8988 0.0
O76 O 0.06292 0.46605 0.80739 0.0
O77 O 0.09447 0.42769 0.80111 0.0
O78 O 0.00212 0.41074 0.82025 0.0
C79 C 0.08441 0.45391 0.7917 0.0
O80 O 0.10616 0.43779 0.8764 0.0
C81 C 0.00782 0.38397 0.80973 0.0
O82 O 0.06888 0.4084 0.89207 0.0
O83 O 0.03471 0.37246 0.81484 0.0
C84 C 0.74601 0.75915 0.11144 0.0
O85 O 0.73069 0.78439 0.10981 0.0
Cd86 Cd 0.74488 0.83834 0.10596 0.0
O87 O 0.77551 0.75914 0.10987 0.0
Cd88 Cd 0.80835 0.80263 0.0899 0.0
C89 C 0.80699 0.84554 0.15219 0.0
O90 O 0.76331 0.81635 0.06092 0.0
O91 O 0.80137 0.84414 0.04654 0.0
O92 O 0.81405 0.75334 0.07041 0.0
C93 C 0.77337 0.83579 0.04199 0.0
O94 O 0.79152 0.86065 0.13195 0.0
C95 C 0.84083 0.75717 0.05924 0.0
O96 O 0.82063 0.82108 0.14297 0.0
O97 O 0.8551 0.7825 0.065 0.0
C98 C 0.46986 0.49519 0.37285 0.0
O99 O 0.44773 0.47576 0.37566 0.0
Cd100 Cd 0.39359 0.48256 0.36287 0.0
O101 O 0.46515 0.5226 0.36248 0.0
Cd102 Cd 0.42325 0.55714 0.3407 0.0
C103 C 0.38742 0.55308 0.39839 0.0
O104 O 0.40837 0.50799 0.3159 0.0
O105 O 0.3845 0.54761 0.29703 0.0
O106 O 0.47322 0.56406 0.32104 0.0
C107 C 0.38977 0.51852 0.29568 0.0
O108 O 0.38409 0.53457 0.37596 0.0
C109 C 0.46907 0.59095 0.30996 0.0
O110 O 0.40014 0.57848 0.39134 0.0
O111 O 0.44277 0.6038 0.3146 0.0
C112 C 0.36991 0.22146 0.24429 0.0
O113 O 0.39659 0.23165 0.25087 0.0
Cd114 Cd 0.38904 0.24528 0.30396 0.0
O115 O 0.3578 0.20178 0.26286 0.0
Cd116 Cd 0.3904 0.16856 0.30203 0.0
C117 C 0.3339 0.18783 0.33188 0.0
O118 O 0.42765 0.21031 0.31065 0.0
O119 O 0.4273 0.17847 0.34873 0.0
O120 O 0.40577 0.15822 0.25137 0.0
C121 C 0.43751 0.20364 0.33725 0.0
O122 O 0.35421 0.20626 0.32197 0.0
C123 C 0.4171 0.13159 0.25636 0.0
O124 O 0.34006 0.15898 0.33039 0.0
O125 O 0.41441 0.12015 0.28362 0.0
C126 C -0.00482 0.11509 0.50482 0.0
O127 O 0.97512 0.12861 0.52167 0.0
Cd128 Cd 0.98405 0.13804 0.57431 0.0
O129 O 0.02351 0.11264 0.51357 0.0
Cd130 Cd 0.05696 0.14172 0.55324 0.0
C131 C 0.04341 0.07921 0.58572 0.0
O132 O 0.01668 0.17821 0.56329 0.0
O133 O 0.05326 0.18224 0.59686 0.0
O134 O 0.0675 0.15624 0.50221 0.0
C135 C 0.02739 0.19221 0.58651 0.0
O136 O 0.01784 0.09398 0.58351 0.0
C137 C 0.09454 0.16639 0.5073 0.0
O138 O 0.06879 0.09248 0.57892 0.0
O139 O 0.10576 0.16349 0.53465 0.0
C140 C 0.11143 0.74505 0.75447 0.0
O141 O 0.10371 0.7237 0.77326 0.0
Cd142 Cd 0.09204 0.73355 0.82556 0.0
O143 O 0.10991 0.77364 0.762 0.0
Cd144 Cd 0.0853 0.80549 0.80425 0.0
C145 C 0.15028 0.79101 0.83887 0.0
O146 O 0.04975 0.76498 0.81337 0.0
O147 O 0.04623 0.7997 0.84864 0.0
O148 O 0.06921 0.81833 0.75437 0.0
C149 C 0.03571 0.77473 0.83696 0.0
O150 O 0.13792 0.76415 0.83927 0.0
C151 C 0.05948 0.8453 0.76058 0.0
O152 O 0.13592 0.81423 0.82755 0.0
O153 O 0.06341 0.85554 0.78812 0.0
C154 C 0.47306 0.86103 0.00346 0.0
O155 O 0.47853 0.83473 0.01472 0.0
Cd156 Cd 0.48544 0.84692 0.06906 0.0
O157 O 0.45366 0.87753 0.01825 0.0
Cd158 Cd 0.42067 0.84064 0.05152 0.0
C159 C 0.4278 0.89615 0.09042 0.0
O160 O 0.46055 0.80044 0.06205 0.0
O161 O 0.42884 0.80637 0.09971 0.0
O162 O 0.41313 0.81829 0.00297 0.0
C163 C 0.45039 0.79037 0.08728 0.0
O164 O 0.44439 0.87312 0.09878 0.0
C165 C 0.38513 0.81061 0.007 0.0
O166 O 0.40453 0.89057 0.07328 0.0
O167 O 0.37174 0.8188 0.03208 0.0
C168 C 0.86416 0.2461 0.72845 0.0
O169 O 0.88154 0.22737 0.71395 0.0
Cd170 Cd 0.88705 0.23648 0.66082 0.0
O171 O 0.85778 0.27264 0.71681 0.0
Cd172 Cd 0.8899 0.30405 0.67844 0.0
C173 C 0.82818 0.29311 0.64202 0.0
O174 O 0.93021 0.26702 0.66825 0.0
O175 O 0.9255 0.29977 0.63111 0.0
O176 O 0.91082 0.31348 0.72686 0.0
C177 C 0.94082 0.27756 0.64328 0.0
O178 O 0.84141 0.26659 0.64371 0.0
C179 C 0.91879 0.34115 0.72145 0.0
O180 O 0.84115 0.31708 0.65314 0.0
O181 O 0.91085 0.35359 0.69569 0.0
C182 C 0.98399 0.60817 0.97127 0.0
O183 O 0.00423 0.61073 0.94992 0.0
Cd184 Cd -0.00564 0.62656 0.89829 0.0
O185 O 0.95538 0.61453 0.96654 0.0
Cd186 Cd 0.91975 0.63661 0.92596 0.0
C187 C 0.9273 0.57923 0.88965 0.0
O188 O 0.96452 0.66989 0.91373 0.0
O189 O 0.9255 0.67634 0.88296 0.0
O190 O 0.91315 0.65736 0.97537 0.0
C191 C 0.95192 0.68561 0.89246 0.0
O192 O 0.94831 0.59882 0.8945 0.0
C193 C 0.88588 0.66755 0.97144 0.0
O194 O 0.90117 0.5851 0.90165 0.0
O195 O 0.87237 0.66121 0.94578 0.0
C196 C 0.60719 0.71832 0.23708 0.0
O197 O 0.57996 0.72758 0.2316 0.0
Cd198 Cd 0.58756 0.73783 0.17741 0.0
O199 O 0.61995 0.70143 0.21631 0.0
Cd200 Cd 0.5871 0.67073 0.17727 0.0
C201 C 0.64871 0.6877 0.14689 0.0
O202 O 0.54553 0.70693 0.17045 0.0
O203 O 0.55407 0.68356 0.12782 0.0
O204 O 0.56864 0.6623 0.22618 0.0
C205 C 0.538 0.70339 0.14266 0.0
O206 O 0.63442 0.71272 0.1541 0.0
C207 C 0.5581 0.63542 0.22159 0.0
O208 O 0.6365 0.66138 0.15206 0.0
O209 O 0.56407 0.62197 0.19579 0.0
C210 C 0.50625 0.3612 0.48104 0.0
O211 O 0.50006 0.33304 0.4766 0.0
Cd212 Cd 0.49422 0.33793 0.42114 0.0
O213 O 0.52228 0.37445 0.46015 0.0
Cd214 Cd 0.55454 0.3377 0.4263 0.0
C215 C 0.54321 0.39923 0.39291 0.0
O216 O 0.52197 0.29267 0.41582 0.0
O217 O 0.54532 0.30826 0.37518 0.0
O218 O 0.56154 0.31587 0.475 0.0
C219 C 0.52871 0.28761 0.38807 0.0
O220 O 0.51699 0.3863 0.39781 0.0
C221 C 0.58998 0.30914 0.47237 0.0
O222 O 0.56826 0.38585 0.40114 0.0
O223 O 0.6039 0.31787 0.44768 0.0
C224 C 0.25656 0.35466 0.23135 0.0
O225 O 0.28189 0.34667 0.24458 0.0
Cd226 Cd 0.33076 0.37216 0.23466 0.0
O227 O 0.25711 0.37094 0.20675 0.0
Cd228 Cd 0.29909 0.38883 0.17208 0.0
C229 C 0.3413 0.32955 0.17592 0.0
O230 O 0.31264 0.42082 0.21708 0.0
O231 O 0.34264 0.42737 0.17776 0.0
O232 O 0.24984 0.40698 0.1597 0.0
C233 C 0.33375 0.43653 0.20437 0.0
O234 O 0.35517 0.35234 0.18834 0.0
C235 C 0.25651 0.41746 0.13317 0.0
O236 O 0.31693 0.33568 0.16053 0.0
O237 O 0.28403 0.41355 0.1231 0.0
C238 C 0.76017 0.11844 0.74586 0.0
O239 O 0.78107 0.11736 0.72493 0.0
Cd240 Cd 0.83477 0.10375 0.73186 0.0
O241 O 0.76564 0.11065 0.77405 0.0
Cd242 Cd 0.80586 0.08748 0.81022 0.0
C243 C 0.83851 0.14541 0.80092 0.0
O244 O 0.82108 0.06091 0.76309 0.0
O245 O 0.84258 0.04134 0.80374 0.0
O246 O 0.7554 0.0697 0.81475 0.0
C247 C 0.83878 0.04039 0.7744 0.0
O248 O 0.83965 0.12257 0.78272 0.0
C249 C 0.75802 0.05973 0.84225 0.0
O250 O 0.83022 0.13906 0.82834 0.0
O251 O 0.78349 0.06442 0.85677 0.0
C252 C 0.11786 0.49629 0.00387 0.0
O253 O 0.14336 0.50393 -0.00809 0.0
Cd254 Cd 0.13859 0.55898 0.98767 0.0
O255 O 0.10581 0.51506 0.02328 0.0
Cd256 Cd 0.14161 0.55055 0.05488 0.0
C257 C 0.07991 0.58468 0.04172 0.0
O258 O 0.18241 0.56031 0.01807 0.0
O259 O 0.17604 0.59841 0.04942 0.0
O260 O 0.15874 0.50051 0.06582 0.0
C261 C 0.19148 0.58633 0.02742 0.0
O262 O 0.09176 0.57935 0.01506 0.0
C263 C 0.16712 0.50581 0.09349 0.0
O264 O 0.09429 0.5774 0.0665 0.0
O265 O 0.16224 0.53278 0.10472 0.0
C266 C 0.72444 0.86833 0.24724 0.0
O267 O 0.70731 0.8816 0.227 0.0
Cd268 Cd 0.65345 0.88751 0.23146 0.0
O269 O 0.71445 0.86264 0.27469 0.0
Cd270 Cd 0.67347 0.88892 0.30923 0.0
C271 C 0.64063 0.83259 0.29325 0.0
O272 O 0.66537 0.92448 0.26728 0.0
O273 O 0.63064 0.93079 0.30176 0.0
O274 O 0.72413 0.90468 0.31566 0.0
C275 C 0.64247 0.93982 0.27626 0.0
O276 O 0.64569 0.85471 0.27486 0.0
C277 C 0.72117 0.91523 0.34281 0.0
O278 O 0.64625 0.83785 0.3217 0.0
O279 O 0.69521 0.911 0.35649 0.0
C280 C 0.36521 0.47627 0.49581 0.0
O281 O 0.35634 0.45796 0.47443 0.0
Cd282 Cd 0.34614 0.40558 0.4798 0.0
O283 O 0.36426 0.46861 0.52466 0.0
Cd284 Cd 0.33778 0.42648 0.55842 0.0
C285 C 0.39416 0.39278 0.54399 0.0
O286 O 0.30518 0.41503 0.51253 0.0
O287 O 0.29665 0.38371 0.5501 0.0
O288 O 0.31876 0.47592 0.56848 0.0
C289 C 0.29023 0.3921 0.52244 0.0
O290 O 0.37115 0.39839 0.52703 0.0
C291 C 0.30806 0.46998 0.59508 0.0
O292 O 0.3906 0.39947 0.57243 0.0
O293 O 0.31299 0.44315 0.60668 0.0
C294 C 0.22873 0.60377 0.72586 0.0
O295 O 0.22031 0.57849 0.7379 0.0
Cd296 Cd 0.16546 0.58372 0.73852 0.0
O297 O 0.21105 0.61604 0.70534 0.0
Cd298 Cd 0.17331 0.58559 0.67113 0.0
C299 C 0.14652 0.64869 0.68787 0.0
O300 O 0.1662 0.54269 0.70476 0.0
O301 O 0.12416 0.55257 0.68051 0.0
O302 O 0.2235 0.56936 0.66104 0.0
C303 C 0.13897 0.53465 0.69889 0.0
O304 O 0.15145 0.63369 0.71306 0.0
C305 C 0.21873 0.55989 0.63366 0.0
O306 O 0.14933 0.63545 0.66168 0.0
O307 O 0.19196 0.56482 0.62161 0.0
C308 C 0.62013 0.98155 0.97229 0.0
O309 O 0.64567 0.97435 0.98506 0.0
Cd310 Cd 0.64452 0.91956 -0.00836 0.0
O311 O 0.60861 0.96296 0.95222 0.0
Cd312 Cd 0.64036 0.92483 0.919 0.0
C313 C 0.58373 0.89465 0.93734 0.0
O314 O 0.6834 0.91539 0.95575 0.0
O315 O 0.67223 0.87519 0.9289 0.0
O316 O 0.66153 0.97289 0.91583 0.0
C317 C 0.69001 0.88794 0.9488 0.0
O318 O 0.60487 0.90333 0.9558 0.0
C319 C 0.66862 0.97248 0.88744 0.0
O320 O 0.58805 0.89931 0.9086 0.0
O321 O 0.66067 0.94867 0.87145 0.0
C322 C 0.87083 0.00716 0.47654 0.0
O323 O 0.86865 0.03502 0.48513 0.0
Cd324 Cd 0.8604 0.08895 0.48534 0.0
O325 O 0.86393 0.00045 0.44877 0.0
Cd326 Cd 0.84004 0.04643 0.42195 0.0
C327 C 0.90005 0.09259 0.42292 0.0
O328 O 0.81362 0.06658 0.46851 0.0
O329 O 0.79669 0.08596 0.42559 0.0
O330 O 0.81307 0.00171 0.41519 0.0
C331 C 0.79376 0.08325 0.45482 0.0
O332 O 0.87949 0.10866 0.43664 0.0
C333 C 0.80741 0.00557 0.38657 0.0
O334 O 0.89125 0.06787 0.40955 0.0
O335 O 0.81882 0.02906 0.37258 0.0
C336 C 0.11677 0.21692 0.49344 0.0
C337 C 0.10805 0.18693 0.48418 0.0
C338 C 0.12167 0.24015 0.47135 0.0
C339 C 0.11843 0.23385 0.43948 0.0
H340 H 0.11849 0.22282 0.51788 0.0
H341 H 0.12912 0.2629 0.47916 0.0
S342 S 0.09787 0.15856 0.40337 0.0
N343 N 0.09695 0.15184 0.4412 0.0
N344 N 0.10775 0.19544 0.39951 0.0
C345 C 0.11055 0.2038 0.42987 0.0
C346 C 0.105 0.18028 0.45233 0.0
C347 C 0.0232 0.86263 0.68373 0.0
C348 C -0.00756 0.8689 0.69229 0.0
C349 C 0.04593 0.85758 0.70643 0.0
C350 C 0.03864 0.85985 0.73819 0.0
H351 H 0.02966 0.86173 0.65941 0.0
H352 H 0.06915 0.85104 0.69918 0.0
S353 S 0.96177 0.87843 0.77214 0.0
N354 N 0.95585 0.87866 0.73415 0.0
N355 N -0.00101 0.87008 0.77704 0.0
C356 C 0.0082 0.86741 0.74695 0.0
C357 C 0.98488 0.87156 0.72387 0.0
C358 C 0.37754 0.73758 0.96124 0.0
C359 C 0.3566 0.74606 0.93757 0.0
C360 C 0.38504 0.75846 0.98486 0.0
C361 C 0.37179 0.7883 0.98556 0.0
H362 H 0.38751 0.71445 0.96209 0.0
H363 H 0.40169 0.75139 0.00253 0.0
S364 S 0.31749 0.82276 0.92815 0.0
N365 N 0.32387 0.78709 0.91545 0.0
N366 N 0.3382 0.82617 0.96042 0.0
C367 C 0.35127 0.79741 0.96199 0.0
C368 C 0.34371 0.77629 0.93773 0.0
C369 C 0.49135 0.10426 0.22083 0.0
C370 C 0.48599 0.10973 0.18905 0.0
C371 C 0.46769 0.10859 0.24256 0.0
C372 C 0.43814 0.11886 0.23306 0.0
H373 H 0.5137 0.09557 0.22879 0.0
H374 H 0.47293 0.10514 0.267 0.0
S375 S 0.4123 0.13524 0.15216 0.0
N376 N 0.44902 0.12443 0.14879 0.0
N377 N 0.40453 0.13378 0.18974 0.0
C378 C 0.43244 0.12408 0.20121 0.0
C379 C 0.45644 0.11927 0.17914 0.0
C380 C 0.59636 0.2484 0.53507 0.0
C381 C 0.62847 0.24481 0.53864 0.0
C382 C 0.5844 0.27023 0.51424 0.0
C383 C 0.60417 0.28874 0.49581 0.0
H384 H 0.58039 0.23414 0.54823 0.0
H385 H 0.55935 0.27183 0.5119 0.0
S386 S 0.69027 0.28845 0.49701 0.0
N387 N 0.68018 0.26193 0.52279 0.0
N388 N 0.65731 0.30261 0.48305 0.0
C389 C 0.63637 0.2857 0.49946 0.0
C390 C 0.64863 0.2638 0.52109 0.0
C391 C 0.93302 0.37382 0.76602 0.0
C392 C 0.94204 0.35451 0.74162 0.0
C393 C 0.95429 0.38153 0.78927 0.0
C394 C 0.98504 0.37 0.78873 0.0
H395 H 0.90935 0.38237 0.76748 0.0
H396 H 0.94669 0.39706 0.80757 0.0
S397 S 0.01873 0.31691 0.72982 0.0
N398 N 0.98252 0.3228 0.71824 0.0
N399 N 0.02289 0.33736 0.76207 0.0
C400 C -0.00603 0.34993 0.76467 0.0
C401 C 0.97233 0.3423 0.74092 0.0
C402 C 0.88245 0.72308 0.03901 0.0
C403 C 0.85211 0.73444 0.03703 0.0
C404 C 0.89256 0.70033 0.01831 0.0
C405 C 0.87279 0.68882 -0.00537 0.0
H406 H 0.89824 0.73152 0.05679 0.0
H407 H 0.91637 0.69229 0.02052 0.0
S408 S 0.79101 0.71238 0.97993 0.0
N409 N 0.80212 0.73325 0.01016 0.0
N410 N 0.82141 0.69082 0.97064 0.0
C411 C 0.84227 0.70017 -0.00744 0.0
C412 C 0.83187 0.72299 0.01394 0.0
C413 C 0.5387 0.59467 0.25722 0.0
C414 C 0.53537 0.62391 0.2436 0.0
C415 C 0.51787 0.58503 0.28003 0.0
C416 C 0.49278 0.60414 0.28936 0.0
H417 H 0.55763 0.57945 0.25054 0.0
H418 H 0.52106 0.56201 0.28977 0.0
S419 S 0.47542 0.68374 0.26074 0.0
N420 N 0.50644 0.67263 0.24117 0.0
N421 N 0.46688 0.65431 0.28384 0.0
C422 C 0.48974 0.63383 0.27618 0.0
C423 C 0.51114 0.64372 0.25323 0.0
C424 C 0.24195 0.47031 0.1183 0.0
C425 C 0.23454 0.4386 0.11879 0.0
C426 C 0.21883 0.49257 0.11322 0.0
C427 C 0.18793 0.48355 0.10802 0.0
H428 H 0.26547 0.47796 0.1231 0.0
H429 H 0.22537 0.51684 0.11199 0.0
S430 S 0.15696 0.4033 0.10712 0.0
N431 N 0.19448 0.39913 0.1145 0.0
N432 N 0.15101 0.44109 0.10341 0.0
C433 C 0.18029 0.45189 0.10833 0.0
C434 C 0.2037 0.42931 0.11404 0.0
C435 C 0.69865 -0.00361 0.84457 0.0
C436 C 0.68844 -0.0026 0.87542 0.0
C437 C 0.72085 0.01737 0.83409 0.0
C438 C 0.73386 0.03957 0.85427 0.0
H439 H 0.69014 0.97883 0.82866 0.0
H440 H 0.72868 0.01552 0.81024 0.0
S441 S 0.71313 0.05405 0.93635 0.0
N442 N 0.69119 0.02454 0.92552 0.0
N443 N 0.73402 0.06302 0.90553 0.0
C444 C 0.7234 0.0416 0.88484 0.0
C445 C 0.70023 0.02077 0.89546 0.0
C446 C 0.7372 0.95633 0.37932 0.0
C447 C 0.7449 0.93638 0.3548 0.0
C448 C 0.75715 0.98015 0.38791 0.0
C449 C 0.78532 0.98477 0.37227 0.0
H450 H 0.71537 0.95402 0.39156 0.0
H451 H 0.75076 -0.00517 0.40736 0.0
S452 S 0.81716 0.93853 0.30735 0.0
N453 N 0.78339 0.92228 0.31538 0.0
N454 N 0.82071 0.96782 0.33189 0.0
C455 C 0.79355 0.96529 0.34774 0.0
C456 C 0.7734 0.94069 0.33905 0.0
C457 C 0.27269 0.5403 0.63141 0.0
C458 C 0.24189 0.53907 0.62 0.0
C459 C 0.29397 0.51667 0.62492 0.0
C460 C 0.28485 0.491 0.60729 0.0
H461 H 0.28021 0.55938 0.64602 0.0
H462 H 0.31768 0.51865 0.63333 0.0
S463 S 0.20804 0.47712 0.57054 0.0
N464 N 0.204 0.5105 0.58905 0.0
N465 N 0.24425 0.4659 0.57703 0.0
C466 C 0.25455 0.48966 0.59515 0.0
C467 C 0.23297 0.51387 0.60135 0.0
C468 C 0.23793 0.36751 0.51346 0.0
C469 C 0.2671 0.37657 0.50193 0.0
C470 C 0.21441 0.3567 0.49326 0.0
C471 C 0.21917 0.35518 0.46092 0.0
H472 H 0.23308 0.36926 0.53809 0.0
H473 H 0.19256 0.34905 0.50301 0.0
S474 S 0.29265 0.37147 0.41939 0.0
N475 N 0.30015 0.37958 0.45614 0.0
N476 N 0.2559 0.36065 0.41863 0.0
C477 C 0.24835 0.36344 0.44922 0.0
C478 C 0.27233 0.37379 0.46964 0.0
C479 C 0.86726 0.00151 0.70108 0.0
C480 C 0.87537 0.97135 0.71071 0.0
C481 C 0.85591 0.02347 0.72208 0.0
C482 C 0.85257 0.01645 0.75384 0.0
H483 H 0.87007 0.00846 0.67709 0.0
H484 H 0.85006 0.04636 0.7133 0.0
S485 S 0.86912 0.9401 0.79085 0.0
N486 N 0.8781 0.93489 0.75387 0.0
N487 N 0.85705 0.9765 0.79381 0.0
C488 C 0.86002 0.98611 0.76387 0.0
C489 C 0.87119 0.96343 0.74216 0.0
C490 C 0.22586 0.61912 0.95455 0.0
C491 C 0.25682 0.62556 0.96297 0.0
C492 C 0.20451 0.60815 0.97627 0.0
C493 C 0.21302 0.60368 0.00751 0.0
H494 H 0.21793 0.62239 0.93089 0.0
H495 H 0.18119 0.60259 0.96842 0.0
S496 S 0.29102 0.61653 0.04184 0.0
N497 N 0.29506 0.62622 0.00484 0.0
N498 N 0.25442 0.60576 0.04598 0.0
C499 C 0.24377 0.60996 0.01649 0.0
C500 C 0.26585 0.62075 -0.00589 0.0
C501 C 0.58557 -0.00363 0.23834 0.0
C502 C 0.60293 0.00883 0.21353 0.0
C503 C 0.59846 0.97456 0.25906 0.0
C504 C 0.62907 0.96391 0.25532 0.0
H505 H 0.56159 0.00338 0.24161 0.0
H506 H 0.58417 0.96555 0.27765 0.0
S507 S 0.68313 0.9862 0.19154 0.0
N508 N 0.65149 0.00708 0.18495 0.0
N509 N 0.67588 0.96599 0.22331 0.0
C510 C 0.64649 0.97562 0.22998 0.0
C511 C 0.63343 -0.00187 0.20923 0.0
C512 C 0.7186 0.10459 0.4955 0.0
C513 C 0.72866 0.12675 0.51743 0.0
C514 C 0.73942 0.09179 0.47372 0.0
C515 C 0.77086 0.10079 0.47319 0.0
H516 H 0.69472 0.09672 0.4955 0.0
H517 H 0.7312 0.07392 0.458 0.0
S518 S 0.80895 0.15876 0.52418 0.0
N519 N 0.77248 0.158 0.53586 0.0
N520 N 0.81095 0.1334 0.49551 0.0
C521 C 0.78105 0.12324 0.49439 0.0
C522 C 0.7601 0.13642 0.51631 0.0
C523 C 0.09269 0.51236 0.72621 0.0
C524 C 0.12452 0.51107 0.71931 0.0
C525 C 0.08001 0.49322 0.74931 0.0
C526 C 0.09854 0.47177 0.76603 0.0
H527 H 0.07773 0.52909 0.71463 0.0
H528 H 0.05547 0.49551 0.75441 0.0
S529 S 0.18364 0.46054 0.758 0.0
N530 N 0.17462 0.48717 0.73179 0.0
N531 N 0.15053 0.45124 0.77488 0.0
C532 C 0.13034 0.47 0.7592 0.0
C533 C 0.14336 0.48965 0.73592 0.0
C534 C 0.74293 0.87991 0.97098 0.0
C535 C 0.71152 0.87084 0.96946 0.0
C536 C 0.76297 0.86865 -0.0056 0.0
C537 C 0.75209 0.84845 0.0176 0.0
H538 H 0.75192 0.89635 0.95421 0.0
H539 H 0.78702 0.87604 -0.00553 0.0
S540 S 0.67 0.82212 0.02692 0.0
N541 N 0.66955 0.84327 -0.00514 0.0
N542 N 0.70648 0.82223 0.03904 0.0
C543 C 0.72019 0.84007 0.01685 0.0
C544 C 0.70006 0.85126 -0.00722 0.0
C545 C 0.34225 0.4896 0.22615 0.0
C546 C 0.35177 0.45842 0.22356 0.0
C547 C 0.35491 0.50917 0.24917 0.0
C548 C 0.3771 0.498 0.27074 0.0
H549 H 0.32415 0.4986 0.21099 0.0
H550 H 0.34666 0.53292 0.25057 0.0
S551 S 0.40992 0.41778 0.27285 0.0
N552 N 0.38491 0.41732 0.24362 0.0
N553 N 0.40867 0.45346 0.28687 0.0
C554 C 0.3872 0.46683 0.26772 0.0
C555 C 0.3745 0.44719 0.24417 0.0
C556 C 0.51189 0.23426 0.37355 0.0
C557 C 0.50795 0.26665 0.3709 0.0
C558 C 0.48827 0.21361 0.36425 0.0
C559 C 0.45976 0.22483 0.35269 0.0
H560 H 0.53315 0.22486 0.3834 0.0
H561 H 0.49258 0.18883 0.36549 0.0
S562 S 0.43579 0.30784 0.34721 0.0
N563 N 0.47224 0.30896 0.35934 0.0
N564 N 0.42762 0.27061 0.34303 0.0
C565 C 0.45507 0.25728 0.35148 0.0
C566 C 0.47922 0.2781 0.36031 0.0
C567 C 0.97599 0.20586 0.6083 0.0
C568 C 0.00713 0.21425 0.60317 0.0
C569 C 0.95443 0.22726 0.61971 0.0
C570 C 0.96294 0.2581 0.62598 0.0
H571 H 0.96809 0.18254 0.60346 0.0
H572 H 0.93091 0.21947 0.62401 0.0
S573 S 0.04146 0.29192 0.61668 0.0
N574 N 0.04555 0.25541 0.60544 0.0
N575 N 0.00461 0.29606 0.62674 0.0
C576 C -0.00608 0.26697 0.62099 0.0
C577 C 0.01616 0.24489 0.60973 0.0
C578 C 0.97872 0.70841 0.84679 0.0
C579 C 0.9694 0.71105 0.87781 0.0
C580 C -0.00046 0.72976 0.83392 0.0
C581 C 0.01165 0.75477 0.85144 0.0
H582 H 0.97091 0.68901 0.83278 0.0
H583 H 0.00664 0.72618 0.81005 0.0
S584 S -0.00651 0.77197 0.93397 0.0
N585 N 0.97323 0.74038 0.92597 0.0
N586 N 0.01189 0.78107 0.90157 0.0
C587 C 0.00177 0.7581 0.8824 0.0
C588 C 0.98084 0.73601 0.89564 0.0
C589 C 0.50076 0.71913 0.09984 0.0
C590 C 0.51483 0.72513 0.12874 0.0
C591 C 0.47842 0.73968 0.0874 0.0
C592 C 0.46903 0.7666 0.10362 0.0
H593 H 0.50711 0.69861 0.08673 0.0
H594 H 0.46876 0.73478 0.06461 0.0
S595 S 0.50217 0.79563 0.17766 0.0
N596 N 0.51987 0.76211 0.17169 0.0
N597 N 0.47781 0.7999 0.14818 0.0
C598 C 0.48331 0.77325 0.13211 0.0
C599 C 0.50625 0.75271 0.14467 0.0
C600 C 0.21245 0.37228 0.30321 0.0
C601 C 0.1889 0.34982 0.3028 0.0
C602 C 0.23262 0.37526 0.27825 0.0
C603 C 0.22914 0.35687 0.25156 0.0
H604 H 0.21835 0.38412 0.32468 0.0
H605 H 0.25281 0.39005 0.28102 0.0
S606 S 0.16077 0.30788 0.23272 0.0
N607 N 0.15594 0.31766 0.26963 0.0
N608 N 0.19358 0.32442 0.2215 0.0
C609 C 0.20166 0.33953 0.24805 0.0
C610 C 0.18123 0.33599 0.27405 0.0
C611 C 0.88533 0.95418 0.49884 0.0
C612 C 0.87181 0.9839 0.50179 0.0
C613 C 0.88969 0.93518 0.5254 0.0
C614 C 0.88021 0.94555 0.55504 0.0
H615 H 0.89425 0.94651 0.47661 0.0
H616 H 0.90247 0.91359 0.5231 0.0
S617 S 0.83873 0.01901 0.57368 0.0
N618 N 0.84519 0.02049 0.53608 0.0
N619 N 0.85283 0.98512 0.58466 0.0
C620 C 0.8638 0.97366 0.55727 0.0
C621 C 0.85983 -0.00718 0.53095 0.0
C622 C 0.27898 0.62202 0.74857 0.0
C623 C 0.24633 0.62355 0.74705 0.0
C624 C 0.2949 0.63012 0.77613 0.0
C625 C 0.27832 0.6389 0.80296 0.0
H626 H 0.29198 0.61231 0.72935 0.0
H627 H 0.31991 0.62725 0.77713 0.0
S628 S 0.19247 0.64826 0.80918 0.0
N629 N 0.19832 0.63637 0.7733 0.0
N630 N 0.2275 0.65142 0.82443 0.0
C631 C 0.24582 0.64261 0.80043 0.0
C632 C 0.22997 0.63498 0.77259 0.0
C633 C 0.58154 -0.00311 0.04564 0.0
C634 C 0.58597 0.0291 0.04976 0.0
C635 C 0.58767 0.98243 0.01754 0.0
C636 C 0.59955 -0.00074 -0.0075 0.0
H637 H 0.57429 0.9821 0.06466 0.0
H638 H 0.58641 0.95727 0.01657 0.0
S639 S 0.60769 0.0848 0.98744 0.0
N640 N 0.59661 0.07844 0.02372 0.0
N641 N 0.61018 0.05026 0.9708 0.0
C642 C 0.60126 0.03179 -0.00524 0.0
C643 C 0.59407 0.04698 0.02349 0.0
C644 C 0.68485 0.1101 0.70453 0.0
C645 C 0.68374 0.13885 0.68902 0.0
C646 C 0.70713 0.10466 0.72799 0.0
C647 C 0.72874 0.12783 0.73607 0.0
H648 H 0.67219 0.09046 0.6952 0.0
H649 H 0.71032 0.08113 0.73643 0.0
S650 S 0.73134 0.20831 0.70646 0.0
N651 N 0.70184 0.19225 0.68782 0.0
N652 N 0.74438 0.18146 0.73064 0.0
C653 C 0.72434 0.15787 0.72443 0.0
C654 C 0.7011 0.16369 0.70147 0.0
C655 C 0.09047 0.49127 0.9553 0.0
C656 C 0.09848 0.47712 0.98356 0.0
C657 C 0.08811 0.47385 0.92825 0.0
C658 C 0.09132 0.44137 0.9286 0.0
H659 H 0.09028 0.5164 0.95326 0.0
H660 H 0.08543 0.48643 0.90687 0.0
S661 S 0.10358 0.39232 -0.00168 0.0
N662 N 0.1051 0.42837 0.0116 0.0
N663 N 0.09658 0.39508 0.96057 0.0
C664 C 0.09481 0.42643 0.95742 0.0
C665 C 0.09916 0.44445 0.98504 0.0
C666 C 0.781 0.86653 0.23385 0.0
C667 C 0.75155 0.85215 0.23427 0.0
C668 C 0.80133 0.86211 0.20844 0.0
C669 C 0.7923 0.84345 0.18309 0.0
H670 H 0.78676 0.88384 0.2512 0.0
H671 H 0.82262 0.87542 0.20734 0.0
S672 S 0.71885 0.8 0.17495 0.0
N673 N 0.71631 0.81661 0.20922 0.0
N674 N 0.75336 0.80943 0.16159 0.0
C675 C 0.76446 0.82691 0.18524 0.0
C676 C 0.74449 0.8307 0.21103 0.0
C677 C 0.40554 0.49892 0.46434 0.0
C678 C 0.38063 0.50455 0.48466 0.0
C679 C 0.40905 0.51644 0.43724 0.0
C680 C 0.38897 0.54126 0.4305 0.0
H681 H 0.41929 0.47787 0.46677 0.0
H682 H 0.42612 0.50913 0.42043 0.0
S683 S 0.32789 0.57292 0.48207 0.0
N684 N 0.34055 0.54138 0.50027 0.0
N685 N 0.34871 0.57577 0.44997 0.0
C686 C 0.36771 0.5507 0.45332 0.0
C687 C 0.36341 0.53215 0.4806 0.0
C688 C 0.24752 0.19524 0.35001 0.0
C689 C 0.24352 0.22773 0.34956 0.0
C690 C 0.2768 0.18184 0.34413 0.0
C691 C 0.30297 0.20079 0.33921 0.0
H692 H 0.22834 0.18033 0.35641 0.0
H693 H 0.27913 0.15677 0.34438 0.0
S694 S 0.30424 0.28743 0.33793 0.0
N695 N 0.26743 0.27823 0.34278 0.0
N696 N 0.32268 0.25393 0.33592 0.0
C697 C 0.29887 0.23337 0.33891 0.0
C698 C 0.26902 0.24662 0.34276 0.0
C699 C 0.00182 0.00696 0.57064 0.0
C700 C 0.00438 -0.0076 0.59971 0.0
C701 C 0.01975 0.03296 0.56378 0.0
C702 C 0.04052 0.04526 0.58594 0.0
H703 H 0.98266 0.00133 0.55518 0.0
H704 H 0.01394 0.04615 0.54302 0.0
S705 S 0.06561 0.00689 0.6589 0.0
N706 N 0.03657 0.98528 0.64593 0.0
N707 N 0.06996 0.03524 0.63328 0.0
C708 C 0.04778 0.02731 0.61218 0.0
C709 C 0.02968 0.00036 0.619 0.0
C710 C 0.22645 0.75908 0.82513 0.0
C711 C 0.23469 0.75168 0.85587 0.0
C712 C 0.20174 0.77957 0.81912 0.0
C713 C 0.18397 0.79174 0.84373 0.0
H714 H 0.23608 0.74587 0.806 0.0
H715 H 0.19317 0.78134 0.79543 0.0
S716 S 0.20306 0.78693 0.92754 0.0
N717 N 0.22936 0.76478 0.91047 0.0
N718 N 0.18129 0.80141 0.89921 0.0
C719 C 0.19566 0.78893 0.87405 0.0
C720 C 0.22152 0.76906 0.8801 0.0
C721 C 0.49162 0.95465 0.08192 0.0
C722 C 0.4793 0.98071 0.09724 0.0
C723 C 0.47398 0.92781 0.07808 0.0
C724 C 0.44291 0.92669 0.08791 0.0
H725 H 0.51629 0.9534 0.07695 0.0
H726 H 0.48541 0.9072 0.06923 0.0
S727 S 0.39667 -0.0075 0.11863 0.0
N728 N 0.43238 0.00637 0.11571 0.0
N729 N 0.39825 0.95625 0.10598 0.0
C730 C 0.42875 0.95427 0.09817 0.0
C731 C 0.44719 0.98142 0.10328 0.0
C732 C 0.77044 0.25799 0.59369 0.0
C733 C 0.74814 0.25184 0.61663 0.0
C734 C 0.79442 0.27899 0.59923 0.0
C735 C 0.79697 0.29387 0.62813 0.0
H736 H 0.77187 0.2434 0.5732 0.0
H737 H 0.81382 0.27921 0.58323 0.0
S738 S 0.73543 0.29839 0.68801 0.0
N739 N 0.72302 0.27151 0.66343 0.0
N740 N 0.76904 0.31077 0.67424 0.0
C741 C 0.77095 0.29358 0.64783 0.0
C742 C 0.74621 0.27218 0.64213 0.0
C743 C 0.98335 0.52737 0.85311 0.0
C744 C 0.98021 0.50032 0.871 0.0
C745 C 0.96169 0.55124 0.85493 0.0
C746 C 0.93661 0.54944 0.87561 0.0
H747 H 0.00402 0.53113 0.83928 0.0
H748 H 0.96692 0.57287 0.84314 0.0
S749 S 0.9108 0.47834 0.91688 0.0
N750 N 0.94486 0.46866 0.90184 0.0
N751 N 0.90432 0.51489 0.90664 0.0
C752 C 0.93009 0.52048 0.88942 0.0
C753 C 0.95212 0.49551 0.88698 0.0
C754 C 0.70662 0.68885 0.14489 0.0
C755 C 0.67774 0.69126 0.12938 0.0
C756 C 0.73164 0.70819 0.13638 0.0
C757 C 0.72785 0.73015 0.11235 0.0
H758 H 0.70854 0.67528 0.16605 0.0
H759 H 0.75222 0.70868 0.15098 0.0
S760 S 0.65931 0.73999 0.06082 0.0
N761 N 0.64906 0.71279 0.08577 0.0
N762 N 0.69567 0.7485 0.06956 0.0
C763 C 0.70095 0.72878 0.09379 0.0
C764 C 0.67588 0.70932 0.10234 0.0
C765 C 0.50901 0.4623 0.3482 0.0
C766 C 0.50156 0.48227 0.37296 0.0
C767 C 0.52918 0.43711 0.35274 0.0
C768 C 0.5426 0.43162 0.38205 0.0
H769 H 0.49576 0.46338 0.32671 0.0
H770 H 0.53035 0.41943 0.33486 0.0
S771 S 0.54058 0.48463 0.44985 0.0
N772 N 0.51607 0.50037 0.42454 0.0
N773 N 0.55506 0.45344 0.4327 0.0
C774 C 0.54062 0.45522 0.40457 0.0
C775 C 0.51949 0.48054 0.40023 0.0
C776 C 0.34765 0.27315 0.24278 0.0
C777 C 0.35035 0.24425 0.22799 0.0
C778 C 0.34462 0.30034 0.22559 0.0
C779 C 0.34189 0.29976 0.19299 0.0
H780 H 0.35173 0.27516 0.2676 0.0
H781 H 0.34582 0.32191 0.23818 0.0
S782 S 0.33961 0.22913 0.14382 0.0
N783 N 0.34598 0.21581 0.1794 0.0
N784 N 0.33655 0.26732 0.14699 0.0
C785 C 0.34039 0.27069 0.17817 0.0
C786 C 0.34527 0.24278 0.19573 0.0
C787 C 0.82169 0.18139 0.7594 0.0
C788 C 0.83655 0.17719 0.78824 0.0
C789 C 0.82522 0.20871 0.74245 0.0
C790 C 0.84533 0.23205 0.75295 0.0
H791 H 0.80909 0.16258 0.74873 0.0
H792 H 0.81607 0.20941 0.71891 0.0
S793 S 0.88198 0.23648 0.83106 0.0
N794 N 0.86535 0.20189 0.83028 0.0
N795 N 0.8743 0.25277 0.79698 0.0
C796 C 0.85676 0.2302 0.78362 0.0
C797 C 0.85204 0.20263 0.80158 0.0
C798 C -0.00011 0.57666 0.01684 0.0
C799 C -0.00409 0.60596 0.00312 0.0
C800 C 0.0252 0.57118 0.03681 0.0
C801 C 0.04737 0.59459 0.04225 0.0
H802 H 0.98626 0.55708 0.00884 0.0
H803 H 0.03028 0.54739 0.04345 0.0
S804 S 0.04125 0.67717 0.0189 0.0
N805 N 0.01064 0.66036 0.00293 0.0
N806 N 0.05948 0.64952 0.03859 0.0
C807 C 0.04024 0.62508 0.03325 0.0
C808 C 0.01399 0.63087 0.0139 0.0
C809 C 0.627 0.77565 0.29917 0.0
C810 C 0.63541 0.80112 0.2804 0.0
C811 C 0.62126 0.74633 0.28573 0.0
C812 C 0.62577 0.74138 0.25365 0.0
H813 H 0.62319 0.77878 0.32385 0.0
H814 H 0.61149 0.72808 0.30001 0.0
S815 S 0.64387 0.80046 0.19429 0.0
N816 N 0.64424 0.81945 0.22747 0.0
N817 N 0.6386 0.76389 0.20389 0.0
C818 C 0.63622 0.76604 0.23536 0.0
C819 C 0.63942 0.79611 0.24825 0.0
C820 C 0.45287 0.38611 0.54526 0.0
C821 C 0.42427 0.38537 0.5291 0.0
C822 C 0.4811 0.38139 0.52928 0.0
C823 C 0.48137 0.37813 0.49667 0.0
H824 H 0.45338 0.38952 0.57021 0.0
H825 H 0.50252 0.37911 0.54246 0.0
S826 S 0.41341 0.37239 0.44406 0.0
N827 N 0.39877 0.37612 0.47915 0.0
N828 N 0.45126 0.37513 0.44906 0.0
C829 C 0.45318 0.37925 0.48042 0.0
C830 C 0.42477 0.38044 0.49669 0.0
C831 C 0.11502 0.69726 0.68446 0.0
C832 C 0.14356 0.68255 0.69067 0.0
C833 C 0.10621 0.72357 0.7017 0.0
C834 C 0.12576 0.73517 0.72534 0.0
H835 H 0.09787 0.68605 0.66978 0.0
H836 H 0.08241 0.73172 0.69989 0.0
S837 S 0.20579 0.70951 0.74391 0.0
N838 N 0.1939 0.68564 0.71631 0.0
N839 N 0.17694 0.73432 0.74908 0.0
C840 C 0.15629 0.72408 0.72736 0.0
C841 C 0.16531 0.69768 0.70983 0.0
C842 C 0.49755 0.88307 0.95496 0.0
C843 C 0.49942 0.87457 0.98661 0.0
C844 C 0.52494 0.88816 0.93757 0.0
C845 C 0.55452 0.8832 0.95118 0.0
H846 H 0.47509 0.88531 0.94366 0.0
H847 H 0.523 0.89642 0.91383 0.0
S848 S 0.5711 0.85745 0.03198 0.0
N849 N 0.53313 0.86231 0.03049 0.0
N850 N 0.58326 0.86518 -0.00339 0.0
C851 C 0.55605 0.87261 0.98202 0.0
C852 C 0.52891 0.87045 0.00015 0.0
C853 C 0.93212 0.07509 0.46743 0.0
C854 C 0.93037 0.09038 0.4387 0.0
C855 C 0.95815 0.0775 0.4865 0.0
C856 C 0.98253 0.09741 0.47849 0.0
H857 H 0.91249 0.06313 0.47642 0.0
H858 H 0.95691 0.06777 0.50976 0.0
S859 S -0.00612 0.13368 0.40103 0.0
N860 N 0.95866 0.11851 0.39915 0.0
N861 N 0.00745 0.12565 0.43626 0.0
C862 C 0.98329 0.10919 0.4479 0.0
C863 C 0.95691 0.10549 0.42783 0.0
loop_
_geom_bond_atom_site_label_1
_geom_bond_atom_site_label_2
_geom_bond_distance
_geom_bond_site_symmetry_2
_ccdc_geom_bond_type
C0 O1 1.306 . S
C0 O3 1.160 . S
O1 C0 1.306 . S
O1 Cd2 2.228 . S
Cd2 O1 2.228 . S
Cd2 O6 2.273 . S
Cd2 O10 2.277 . S
O3 C0 1.160 . S
O3 Cd4 2.203 . S
Cd4 O3 2.203 . S
Cd4 O6 2.411 . S
Cd4 O7 2.333 . S
Cd4 O8 2.352 . S
Cd4 O12 2.277 . S
Cd4 O13 2.356 . S
C5 O10 1.209 . S
C5 O12 1.226 . S
O6 Cd2 2.273 . S
O6 Cd4 2.411 . S
O6 C9 1.320 . S
O7 Cd4 2.333 . S
O7 C9 1.214 . S
O8 Cd4 2.352 . S
O8 C11 1.258 . S
C9 O6 1.320 . S
C9 O7 1.214 . S
O10 Cd2 2.277 . S
O10 C5 1.209 . S
C11 O8 1.258 . S
C11 O13 1.282 . S
O12 Cd4 2.277 . S
O12 C5 1.226 . S
O13 Cd4 2.356 . S
O13 C11 1.282 . S
C14 O15 1.306 1_565 S
C14 O17 1.160 . S
O15 C14 1.306 1_545 S
O15 Cd16 2.228 . S
Cd16 O15 2.228 . S
Cd16 O20 2.273 1_545 S
Cd16 O24 2.277 1_545 S
O17 C14 1.160 . S
O17 Cd18 2.203 . S
Cd18 O17 2.203 . S
Cd18 O20 2.411 . S
Cd18 O21 2.333 . S
Cd18 O22 2.352 . S
Cd18 O26 2.277 . S
Cd18 O27 2.356 . S
C19 O24 1.209 . S
C19 O26 1.226 . S
O20 Cd16 2.273 1_565 S
O20 Cd18 2.411 . S
O20 C23 1.320 . S
O21 Cd18 2.333 . S
O21 C23 1.214 . S
O22 Cd18 2.352 . S
O22 C25 1.258 . S
C23 O20 1.320 . S
C23 O21 1.214 . S
O24 Cd16 2.277 1_565 S
O24 C19 1.209 . S
C25 O22 1.258 . S
C25 O27 1.282 . S
O26 Cd18 2.277 . S
O26 C19 1.226 . S
O27 Cd18 2.356 . S
O27 C25 1.282 . S
C28 O29 1.306 . S
C28 O31 1.160 . S
O29 C28 1.306 . S
O29 Cd30 2.228 . S
Cd30 O29 2.228 . S
Cd30 O34 2.273 . S
Cd30 O38 2.277 . S
O31 C28 1.160 . S
O31 Cd32 2.203 . S
Cd32 O31 2.203 . S
Cd32 O34 2.411 . S
Cd32 O35 2.333 . S
Cd32 O36 2.352 . S
Cd32 O40 2.277 . S
Cd32 O41 2.356 . S
C33 O38 1.209 . S
C33 O40 1.226 . S
O34 Cd30 2.273 . S
O34 Cd32 2.411 . S
O34 C37 1.320 . S
O35 Cd32 2.333 . S
O35 C37 1.214 . S
O36 Cd32 2.352 . S
O36 C39 1.258 . S
C37 O34 1.320 . S
C37 O35 1.214 . S
O38 Cd30 2.277 . S
O38 C33 1.209 . S
C39 O36 1.258 . S
C39 O41 1.282 . S
O40 Cd32 2.277 . S
O40 C33 1.226 . S
O41 Cd32 2.356 . S
O41 C39 1.282 . S
C42 O43 1.306 1_545 S
C42 O45 1.160 . S
O43 C42 1.306 1_565 S
O43 Cd44 2.228 . S
Cd44 O43 2.228 . S
Cd44 O48 2.273 1_565 S
Cd44 O52 2.277 1_565 S
O45 C42 1.160 . S
O45 Cd46 2.203 . S
Cd46 O45 2.203 . S
Cd46 O48 2.411 . S
Cd46 O49 2.333 . S
Cd46 O50 2.352 . S
Cd46 O54 2.277 . S
Cd46 O55 2.356 . S
C47 O52 1.209 . S
C47 O54 1.226 . S
O48 Cd44 2.273 1_545 S
O48 Cd46 2.411 . S
O48 C51 1.320 . S
O49 Cd46 2.333 . S
O49 C51 1.214 . S
O50 Cd46 2.352 . S
O50 C53 1.258 . S
C51 O48 1.320 . S
C51 O49 1.214 . S
O52 Cd44 2.277 1_545 S
O52 C47 1.209 . S
C53 O50 1.258 . S
C53 O55 1.282 . S
O54 Cd46 2.277 . S
O54 C47 1.226 . S
O55 Cd46 2.356 . S
O55 C53 1.282 . S
C56 O57 1.306 . S
C56 O59 1.160 . S
O57 C56 1.306 . S
O57 Cd58 2.228 . S
Cd58 O57 2.228 . S
Cd58 O62 2.273 . S
Cd58 O66 2.277 . S
O59 C56 1.160 . S
O59 Cd60 2.203 . S
Cd60 O59 2.203 . S
Cd60 O62 2.411 . S
Cd60 O63 2.333 . S
Cd60 O64 2.352 . S
Cd60 O68 2.277 . S
Cd60 O69 2.356 . S
C61 O66 1.209 . S
C61 O68 1.226 . S
O62 Cd58 2.273 . S
O62 Cd60 2.411 . S
O62 C65 1.320 . S
O63 Cd60 2.333 . S
O63 C65 1.214 . S
O64 Cd60 2.352 . S
O64 C67 1.258 . S
C65 O62 1.320 . S
C65 O63 1.214 . S
O66 Cd58 2.277 . S
O66 C61 1.209 . S
C67 O64 1.258 . S
C67 O69 1.282 . S
O68 Cd60 2.277 . S
O68 C61 1.226 . S
O69 Cd60 2.356 . S
O69 C67 1.282 . S
C70 O71 1.306 . S
C70 O73 1.160 . S
O71 C70 1.306 . S
O71 Cd72 2.228 . S
Cd72 O71 2.228 . S
Cd72 O76 2.273 . S
Cd72 O80 2.277 . S
O73 C70 1.160 . S
O73 Cd74 2.203 . S
Cd74 O73 2.203 . S
Cd74 O76 2.411 . S
Cd74 O77 2.333 . S
Cd74 O78 2.352 . S
Cd74 O82 2.277 . S
Cd74 O83 2.356 . S
C75 O80 1.209 . S
C75 O82 1.226 . S
O76 Cd72 2.273 . S
O76 Cd74 2.411 . S
O76 C79 1.320 . S
O77 Cd74 2.333 . S
O77 C79 1.214 . S
O78 Cd74 2.352 . S
O78 C81 1.258 . S
C79 O76 1.320 . S
C79 O77 1.214 . S
O80 Cd72 2.277 . S
O80 C75 1.209 . S
C81 O78 1.258 . S
C81 O83 1.282 . S
O82 Cd74 2.277 . S
O82 C75 1.226 . S
O83 Cd74 2.356 . S
O83 C81 1.282 . S
C84 O85 1.306 . S
C84 O87 1.160 . S
O85 C84 1.306 . S
O85 Cd86 2.228 . S
Cd86 O85 2.228 . S
Cd86 O90 2.273 . S
Cd86 O94 2.277 . S
O87 C84 1.160 . S
O87 Cd88 2.203 . S
Cd88 O87 2.203 . S
Cd88 O90 2.411 . S
Cd88 O91 2.333 . S
Cd88 O92 2.352 . S
Cd88 O96 2.277 . S
Cd88 O97 2.356 . S
C89 O94 1.209 . S
C89 O96 1.226 . S
O90 Cd86 2.273 . S
O90 Cd88 2.411 . S
O90 C93 1.320 . S
O91 Cd88 2.333 . S
O91 C93 1.214 . S
O92 Cd88 2.352 . S
O92 C95 1.258 . S
C93 O90 1.320 . S
C93 O91 1.214 . S
O94 Cd86 2.277 . S
O94 C89 1.209 . S
C95 O92 1.258 . S
C95 O97 1.282 . S
O96 Cd88 2.277 . S
O96 C89 1.226 . S
O97 Cd88 2.356 . S
O97 C95 1.282 . S
C98 O99 1.306 . S
C98 O101 1.160 . S
O99 C98 1.306 . S
O99 Cd100 2.228 . S
Cd100 O99 2.228 . S
Cd100 O104 2.273 . S
Cd100 O108 2.277 . S
O101 C98 1.160 . S
O101 Cd102 2.203 . S
Cd102 O101 2.203 . S
Cd102 O104 2.411 . S
Cd102 O105 2.333 . S
Cd102 O106 2.352 . S
Cd102 O110 2.277 . S
Cd102 O111 2.356 . S
C103 O108 1.209 . S
C103 O110 1.226 . S
O104 Cd100 2.273 . S
O104 Cd102 2.411 . S
O104 C107 1.320 . S
O105 Cd102 2.333 . S
O105 C107 1.214 . S
O106 Cd102 2.352 . S
O106 C109 1.258 . S
C107 O104 1.320 . S
C107 O105 1.214 . S
O108 Cd100 2.277 . S
O108 C103 1.209 . S
C109 O106 1.258 . S
C109 O111 1.282 . S
O110 Cd102 2.277 . S
O110 C103 1.226 . S
O111 Cd102 2.356 . S
O111 C109 1.282 . S
C112 O113 1.306 . S
C112 O115 1.160 . S
O113 C112 1.306 . S
O113 Cd114 2.228 . S
Cd114 O113 2.228 . S
Cd114 O118 2.273 . S
Cd114 O122 2.277 . S
O115 C112 1.160 . S
O115 Cd116 2.203 . S
Cd116 O115 2.203 . S
Cd116 O118 2.411 . S
Cd116 O119 2.333 . S
Cd116 O120 2.352 . S
Cd116 O124 2.277 . S
Cd116 O125 2.356 . S
C117 O122 1.209 . S
C117 O124 1.226 . S
O118 Cd114 2.273 . S
O118 Cd116 2.411 . S
O118 C121 1.320 . S
O119 Cd116 2.333 . S
O119 C121 1.214 . S
O120 Cd116 2.352 . S
O120 C123 1.258 . S
C121 O118 1.320 . S
C121 O119 1.214 . S
O122 Cd114 2.277 . S
O122 C117 1.209 . S
C123 O120 1.258 . S
C123 O125 1.282 . S
O124 Cd116 2.277 . S
O124 C117 1.226 . S
O125 Cd116 2.356 . S
O125 C123 1.282 . S
C126 O127 1.306 1_455 S
C126 O129 1.160 . S
O127 C126 1.306 1_655 S
O127 Cd128 2.228 . S
Cd128 O127 2.228 . S
Cd128 O132 2.273 1_655 S
Cd128 O136 2.277 1_655 S
O129 C126 1.160 . S
O129 Cd130 2.203 . S
Cd130 O129 2.203 . S
Cd130 O132 2.411 . S
Cd130 O133 2.333 . S
Cd130 O134 2.352 . S
Cd130 O138 2.277 . S
Cd130 O139 2.356 . S
C131 O136 1.209 . S
C131 O138 1.226 . S
O132 Cd128 2.273 1_455 S
O132 Cd130 2.411 . S
O132 C135 1.320 . S
O133 Cd130 2.333 . S
O133 C135 1.214 . S
O134 Cd130 2.352 . S
O134 C137 1.258 . S
C135 O132 1.320 . S
C135 O133 1.214 . S
O136 Cd128 2.277 1_455 S
O136 C131 1.209 . S
C137 O134 1.258 . S
C137 O139 1.282 . S
O138 Cd130 2.277 . S
O138 C131 1.226 . S
O139 Cd130 2.356 . S
O139 C137 1.282 . S
C140 O141 1.306 . S
C140 O143 1.160 . S
O141 C140 1.306 . S
O141 Cd142 2.228 . S
Cd142 O141 2.228 . S
Cd142 O146 2.273 . S
Cd142 O150 2.277 . S
O143 C140 1.160 . S
O143 Cd144 2.203 . S
Cd144 O143 2.203 . S
Cd144 O146 2.411 . S
Cd144 O147 2.333 . S
Cd144 O148 2.352 . S
Cd144 O152 2.277 . S
Cd144 O153 2.356 . S
C145 O150 1.209 . S
C145 O152 1.226 . S
O146 Cd142 2.273 . S
O146 Cd144 2.411 . S
O146 C149 1.320 . S
O147 Cd144 2.333 . S
O147 C149 1.214 . S
O148 Cd144 2.352 . S
O148 C151 1.258 . S
C149 O146 1.320 . S
C149 O147 1.214 . S
O150 Cd142 2.277 . S
O150 C145 1.209 . S
C151 O148 1.258 . S
C151 O153 1.282 . S
O152 Cd144 2.277 . S
O152 C145 1.226 . S
O153 Cd144 2.356 . S
O153 C151 1.282 . S
C154 O155 1.306 . S
C154 O157 1.160 . S
O155 C154 1.306 . S
O155 Cd156 2.228 . S
Cd156 O155 2.228 . S
Cd156 O160 2.273 . S
Cd156 O164 2.277 . S
O157 C154 1.160 . S
O157 Cd158 2.203 . S
Cd158 O157 2.203 . S
Cd158 O160 2.411 . S
Cd158 O161 2.333 . S
Cd158 O162 2.352 . S
Cd158 O166 2.277 . S
Cd158 O167 2.356 . S
C159 O164 1.209 . S
C159 O166 1.226 . S
O160 Cd156 2.273 . S
O160 Cd158 2.411 . S
O160 C163 1.320 . S
O161 Cd158 2.333 . S
O161 C163 1.214 . S
O162 Cd158 2.352 . S
O162 C165 1.258 . S
C163 O160 1.320 . S
C163 O161 1.214 . S
O164 Cd156 2.277 . S
O164 C159 1.209 . S
C165 O162 1.258 . S
C165 O167 1.282 . S
O166 Cd158 2.277 . S
O166 C159 1.226 . S
O167 Cd158 2.356 . S
O167 C165 1.282 . S
C168 O169 1.306 . S
C168 O171 1.160 . S
O169 C168 1.306 . S
O169 Cd170 2.228 . S
Cd170 O169 2.228 . S
Cd170 O174 2.273 . S
Cd170 O178 2.277 . S
O171 C168 1.160 . S
O171 Cd172 2.203 . S
Cd172 O171 2.203 . S
Cd172 O174 2.411 . S
Cd172 O175 2.333 . S
Cd172 O176 2.352 . S
Cd172 O180 2.277 . S
Cd172 O181 2.356 . S
C173 O178 1.209 . S
C173 O180 1.226 . S
O174 Cd170 2.273 . S
O174 Cd172 2.411 . S
O174 C177 1.320 . S
O175 Cd172 2.333 . S
O175 C177 1.214 . S
O176 Cd172 2.352 . S
O176 C179 1.258 . S
C177 O174 1.320 . S
C177 O175 1.214 . S
O178 Cd170 2.277 . S
O178 C173 1.209 . S
C179 O176 1.258 . S
C179 O181 1.282 . S
O180 Cd172 2.277 . S
O180 C173 1.226 . S
O181 Cd172 2.356 . S
O181 C179 1.282 . S
C182 O183 1.306 1_655 S
C182 O185 1.160 . S
O183 C182 1.306 1_455 S
O183 Cd184 2.228 . S
Cd184 O183 2.228 . S
Cd184 O188 2.273 1_455 S
Cd184 O192 2.277 1_455 S
O185 C182 1.160 . S
O185 Cd186 2.203 . S
Cd186 O185 2.203 . S
Cd186 O188 2.411 . S
Cd186 O189 2.333 . S
Cd186 O190 2.352 . S
Cd186 O194 2.277 . S
Cd186 O195 2.356 . S
C187 O192 1.209 . S
C187 O194 1.226 . S
O188 Cd184 2.273 1_655 S
O188 Cd186 2.411 . S
O188 C191 1.320 . S
O189 Cd186 2.333 . S
O189 C191 1.214 . S
O190 Cd186 2.352 . S
O190 C193 1.258 . S
C191 O188 1.320 . S
C191 O189 1.214 . S
O192 Cd184 2.277 1_655 S
O192 C187 1.209 . S
C193 O190 1.258 . S
C193 O195 1.282 . S
O194 Cd186 2.277 . S
O194 C187 1.226 . S
O195 Cd186 2.356 . S
O195 C193 1.282 . S
C196 O197 1.306 . S
C196 O199 1.160 . S
O197 C196 1.306 . S
O197 Cd198 2.228 . S
Cd198 O197 2.228 . S
Cd198 O202 2.273 . S
Cd198 O206 2.277 . S
O199 C196 1.160 . S
O199 Cd200 2.203 . S
Cd200 O199 2.203 . S
Cd200 O202 2.411 . S
Cd200 O203 2.333 . S
Cd200 O204 2.352 . S
Cd200 O208 2.277 . S
Cd200 O209 2.356 . S
C201 O206 1.209 . S
C201 O208 1.226 . S
O202 Cd198 2.273 . S
O202 Cd200 2.411 . S
O202 C205 1.320 . S
O203 Cd200 2.333 . S
O203 C205 1.214 . S
O204 Cd200 2.352 . S
O204 C207 1.258 . S
C205 O202 1.320 . S
C205 O203 1.214 . S
O206 Cd198 2.277 . S
O206 C201 1.209 . S
C207 O204 1.258 . S
C207 O209 1.282 . S
O208 Cd200 2.277 . S
O208 C201 1.226 . S
O209 Cd200 2.356 . S
O209 C207 1.282 . S
C210 O211 1.306 . S
C210 O213 1.160 . S
O211 C210 1.306 . S
O211 Cd212 2.228 . S
Cd212 O211 2.228 . S
Cd212 O216 2.273 . S
Cd212 O220 2.277 . S
O213 C210 1.160 . S
O213 Cd214 2.203 . S
Cd214 O213 2.203 . S
Cd214 O216 2.411 . S
Cd214 O217 2.333 . S
Cd214 O218 2.352 . S
Cd214 O222 2.277 . S
Cd214 O223 2.356 . S
C215 O220 1.209 . S
C215 O222 1.226 . S
O216 Cd212 2.273 . S
O216 Cd214 2.411 . S
O216 C219 1.320 . S
O217 Cd214 2.333 . S
O217 C219 1.214 . S
O218 Cd214 2.352 . S
O218 C221 1.258 . S
C219 O216 1.320 . S
C219 O217 1.214 . S
O220 Cd212 2.277 . S
O220 C215 1.209 . S
C221 O218 1.258 . S
C221 O223 1.282 . S
O222 Cd214 2.277 . S
O222 C215 1.226 . S
O223 Cd214 2.356 . S
O223 C221 1.282 . S
C224 O225 1.306 . S
C224 O227 1.160 . S
O225 C224 1.306 . S
O225 Cd226 2.228 . S
Cd226 O225 2.228 . S
Cd226 O230 2.273 . S
Cd226 O234 2.277 . S
O227 C224 1.160 . S
O227 Cd228 2.203 . S
Cd228 O227 2.203 . S
Cd228 O230 2.411 . S
Cd228 O231 2.333 . S
Cd228 O232 2.352 . S
Cd228 O236 2.277 . S
Cd228 O237 2.356 . S
C229 O234 1.209 . S
C229 O236 1.226 . S
O230 Cd226 2.273 . S
O230 Cd228 2.411 . S
O230 C233 1.320 . S
O231 Cd228 2.333 . S
O231 C233 1.214 . S
O232 Cd228 2.352 . S
O232 C235 1.258 . S
C233 O230 1.320 . S
C233 O231 1.214 . S
O234 Cd226 2.277 . S
O234 C229 1.209 . S
C235 O232 1.258 . S
C235 O237 1.282 . S
O236 Cd228 2.277 . S
O236 C229 1.226 . S
O237 Cd228 2.356 . S
O237 C235 1.282 . S
C238 O239 1.306 . S
C238 O241 1.160 . S
O239 C238 1.306 . S
O239 Cd240 2.228 . S
Cd240 O239 2.228 . S
Cd240 O244 2.273 . S
Cd240 O248 2.277 . S
O241 C238 1.160 . S
O241 Cd242 2.203 . S
Cd242 O241 2.203 . S
Cd242 O244 2.411 . S
Cd242 O245 2.333 . S
Cd242 O246 2.352 . S
Cd242 O250 2.277 . S
Cd242 O251 2.356 . S
C243 O248 1.209 . S
C243 O250 1.226 . S
O244 Cd240 2.273 . S
O244 Cd242 2.411 . S
O244 C247 1.320 . S
O245 Cd242 2.333 . S
O245 C247 1.214 . S
O246 Cd242 2.352 . S
O246 C249 1.258 . S
C247 O244 1.320 . S
C247 O245 1.214 . S
O248 Cd240 2.277 . S
O248 C243 1.209 . S
C249 O246 1.258 . S
C249 O251 1.282 . S
O250 Cd242 2.277 . S
O250 C243 1.226 . S
O251 Cd242 2.356 . S
O251 C249 1.282 . S
C252 O253 1.306 1_554 S
C252 O255 1.160 . S
O253 C252 1.306 1_556 S
O253 Cd254 2.228 . S
Cd254 O253 2.228 . S
Cd254 O258 2.273 1_556 S
Cd254 O262 2.277 1_556 S
O255 C252 1.160 . S
O255 Cd256 2.203 . S
Cd256 O255 2.203 . S
Cd256 O258 2.411 . S
Cd256 O259 2.333 . S
Cd256 O260 2.352 . S
Cd256 O264 2.277 . S
Cd256 O265 2.356 . S
C257 O262 1.209 . S
C257 O264 1.226 . S
O258 Cd254 2.273 1_554 S
O258 Cd256 2.411 . S
O258 C261 1.320 . S
O259 Cd256 2.333 . S
O259 C261 1.214 . S
O260 Cd256 2.352 . S
O260 C263 1.258 . S
C261 O258 1.320 . S
C261 O259 1.214 . S
O262 Cd254 2.277 1_554 S
O262 C257 1.209 . S
C263 O260 1.258 . S
C263 O265 1.282 . S
O264 Cd256 2.277 . S
O264 C257 1.226 . S
O265 Cd256 2.356 . S
O265 C263 1.282 . S
C266 O267 1.306 . S
C266 O269 1.160 . S
O267 C266 1.306 . S
O267 Cd268 2.228 . S
Cd268 O267 2.228 . S
Cd268 O272 2.273 . S
Cd268 O276 2.277 . S
O269 C266 1.160 . S
O269 Cd270 2.203 . S
Cd270 O269 2.203 . S
Cd270 O272 2.411 . S
Cd270 O273 2.333 . S
Cd270 O274 2.352 . S
Cd270 O278 2.277 . S
Cd270 O279 2.356 . S
C271 O276 1.209 . S
C271 O278 1.226 . S
O272 Cd268 2.273 . S
O272 Cd270 2.411 . S
O272 C275 1.320 . S
O273 Cd270 2.333 . S
O273 C275 1.214 . S
O274 Cd270 2.352 . S
O274 C277 1.258 . S
C275 O272 1.320 . S
C275 O273 1.214 . S
O276 Cd268 2.277 . S
O276 C271 1.209 . S
C277 O274 1.258 . S
C277 O279 1.282 . S
O278 Cd270 2.277 . S
O278 C271 1.226 . S
O279 Cd270 2.356 . S
O279 C277 1.282 . S
C280 O281 1.306 . S
C280 O283 1.160 . S
O281 C280 1.306 . S
O281 Cd282 2.228 . S
Cd282 O281 2.228 . S
Cd282 O286 2.273 . S
Cd282 O290 2.277 . S
O283 C280 1.160 . S
O283 Cd284 2.203 . S
Cd284 O283 2.203 . S
Cd284 O286 2.411 . S
Cd284 O287 2.333 . S
Cd284 O288 2.352 . S
Cd284 O292 2.277 . S
Cd284 O293 2.356 . S
C285 O290 1.209 . S
C285 O292 1.226 . S
O286 Cd282 2.273 . S
O286 Cd284 2.411 . S
O286 C289 1.320 . S
O287 Cd284 2.333 . S
O287 C289 1.214 . S
O288 Cd284 2.352 . S
O288 C291 1.258 . S
C289 O286 1.320 . S
C289 O287 1.214 . S
O290 Cd282 2.277 . S
O290 C285 1.209 . S
C291 O288 1.258 . S
C291 O293 1.282 . S
O292 Cd284 2.277 . S
O292 C285 1.226 . S
O293 Cd284 2.356 . S
O293 C291 1.282 . S
C294 O295 1.306 . S
C294 O297 1.160 . S
O295 C294 1.306 . S
O295 Cd296 2.228 . S
Cd296 O295 2.228 . S
Cd296 O300 2.273 . S
Cd296 O304 2.277 . S
O297 C294 1.160 . S
O297 Cd298 2.203 . S
Cd298 O297 2.203 . S
Cd298 O300 2.411 . S
Cd298 O301 2.333 . S
Cd298 O302 2.352 . S
Cd298 O306 2.277 . S
Cd298 O307 2.356 . S
C299 O304 1.209 . S
C299 O306 1.226 . S
O300 Cd296 2.273 . S
O300 Cd298 2.411 . S
O300 C303 1.320 . S
O301 Cd298 2.333 . S
O301 C303 1.214 . S
O302 Cd298 2.352 . S
O302 C305 1.258 . S
C303 O300 1.320 . S
C303 O301 1.214 . S
O304 Cd296 2.277 . S
O304 C299 1.209 . S
C305 O302 1.258 . S
C305 O307 1.282 . S
O306 Cd298 2.277 . S
O306 C299 1.226 . S
O307 Cd298 2.356 . S
O307 C305 1.282 . S
C308 O309 1.306 1_556 S
C308 O311 1.160 . S
O309 C308 1.306 1_554 S
O309 Cd310 2.228 . S
Cd310 O309 2.228 . S
Cd310 O314 2.273 1_554 S
Cd310 O318 2.277 1_554 S
O311 C308 1.160 . S
O311 Cd312 2.203 . S
Cd312 O311 2.203 . S
Cd312 O314 2.411 . S
Cd312 O315 2.333 . S
Cd312 O316 2.352 . S
Cd312 O320 2.277 . S
Cd312 O321 2.356 . S
C313 O318 1.209 . S
C313 O320 1.226 . S
O314 Cd310 2.273 1_556 S
O314 Cd312 2.411 . S
O314 C317 1.320 . S
O315 Cd312 2.333 . S
O315 C317 1.214 . S
O316 Cd312 2.352 . S
O316 C319 1.258 . S
C317 O314 1.320 . S
C317 O315 1.214 . S
O318 Cd310 2.277 1_556 S
O318 C313 1.209 . S
C319 O316 1.258 . S
C319 O321 1.282 . S
O320 Cd312 2.277 . S
O320 C313 1.226 . S
O321 Cd312 2.356 . S
O321 C319 1.282 . S
C322 O323 1.306 . S
C322 O325 1.160 . S
O323 C322 1.306 . S
O323 Cd324 2.228 . S
Cd324 O323 2.228 . S
Cd324 O328 2.273 . S
Cd324 O332 2.277 . S
O325 C322 1.160 . S
O325 Cd326 2.203 . S
Cd326 O325 2.203 . S
Cd326 O328 2.411 . S
Cd326 O329 2.333 . S
Cd326 O330 2.352 . S
Cd326 O334 2.277 . S
Cd326 O335 2.356 . S
C327 O332 1.209 . S
C327 O334 1.226 . S
O328 Cd324 2.273 . S
O328 Cd326 2.411 . S
O328 C331 1.320 . S
O329 Cd326 2.333 . S
O329 C331 1.214 . S
O330 Cd326 2.352 . S
O330 C333 1.258 . S
C331 O328 1.320 . S
C331 O329 1.214 . S
O332 Cd324 2.277 . S
O332 C327 1.209 . S
C333 O330 1.258 . S
C333 O335 1.282 . S
O334 Cd326 2.277 . S
O334 C327 1.226 . S
O335 Cd326 2.356 . S
O335 C333 1.282 . S
C336 C337 1.369 . S
C336 C338 1.419 . S
C336 H340 0.930 . S
C337 C336 1.369 . S
C337 C346 1.429 . S
C338 C336 1.419 . S
C338 C339 1.363 . S
C338 H341 0.929 . S
C339 C338 1.363 . S
C339 C345 1.428 . S
H340 C336 0.930 . S
H341 C338 0.929 . S
S342 N343 1.613 . S
S342 N344 1.610 . S
N343 S342 1.613 . S
N343 C346 1.350 . S
N344 S342 1.610 . S
N344 C345 1.351 . S
C345 C339 1.428 . S
C345 N344 1.351 . S
C345 C346 1.434 . S
C346 C337 1.429 . S
C346 N343 1.350 . S
C346 C345 1.434 . S
C347 C348 1.369 . S
C347 C349 1.419 . S
C347 H351 0.930 . S
C348 C347 1.369 . S
C348 C357 1.429 1_455 S
C349 C347 1.419 . S
C349 C350 1.363 . S
C349 H352 0.929 . S
C350 C349 1.363 . S
C350 C356 1.428 . S
H351 C347 0.930 . S
H352 C349 0.929 . S
S353 N354 1.613 . S
S353 N355 1.610 1_655 S
N354 S353 1.613 . S
N354 C357 1.350 . S
N355 S353 1.610 1_455 S
N355 C356 1.351 . S
C356 C350 1.428 . S
C356 N355 1.351 . S
C356 C357 1.434 1_455 S
C357 C348 1.429 1_655 S
C357 N354 1.350 . S
C357 C356 1.434 1_655 S
C358 C359 1.369 . S
C358 C360 1.419 . S
C358 H362 0.930 . S
C359 C358 1.369 . S
C359 C368 1.429 . S
C360 C358 1.419 . S
C360 C361 1.363 . S
C360 H363 0.929 1_556 S
C361 C360 1.363 . S
C361 C367 1.428 . S
H362 C358 0.930 . S
H363 C360 0.929 1_554 S
S364 N365 1.613 . S
S364 N366 1.610 . S
N365 S364 1.613 . S
N365 C368 1.350 . S
N366 S364 1.610 . S
N366 C367 1.351 . S
C367 C361 1.428 . S
C367 N366 1.351 . S
C367 C368 1.434 . S
C368 C359 1.429 . S
C368 N365 1.350 . S
C368 C367 1.434 . S
C369 C370 1.369 . S
C369 C371 1.419 . S
C369 H373 0.930 . S
C370 C369 1.369 . S
C370 C379 1.429 . S
C371 C369 1.419 . S
C371 C372 1.363 . S
C371 H374 0.929 . S
C372 C371 1.363 . S
C372 C378 1.428 . S
H373 C369 0.930 . S
H374 C371 0.929 . S
S375 N376 1.613 . S
S375 N377 1.610 . S
N376 S375 1.613 . S
N376 C379 1.350 . S
N377 S375 1.610 . S
N377 C378 1.351 . S
C378 C372 1.428 . S
C378 N377 1.351 . S
C378 C379 1.434 . S
C379 C370 1.429 . S
C379 N376 1.350 . S
C379 C378 1.434 . S
C380 C381 1.369 . S
C380 C382 1.419 . S
C380 H384 0.930 . S
C381 C380 1.369 . S
C381 C390 1.429 . S
C382 C380 1.419 . S
C382 C383 1.363 . S
C382 H385 0.929 . S
C383 C382 1.363 . S
C383 C389 1.428 . S
H384 C380 0.930 . S
H385 C382 0.929 . S
S386 N387 1.613 . S
S386 N388 1.610 . S
N387 S386 1.613 . S
N387 C390 1.350 . S
N388 S386 1.610 . S
N388 C389 1.351 . S
C389 C383 1.428 . S
C389 N388 1.351 . S
C389 C390 1.434 . S
C390 C381 1.429 . S
C390 N387 1.350 . S
C390 C389 1.434 . S
C391 C392 1.369 . S
C391 C393 1.419 . S
C391 H395 0.930 . S
C392 C391 1.369 . S
C392 C401 1.429 . S
C393 C391 1.419 . S
C393 C394 1.363 . S
C393 H396 0.929 . S
C394 C393 1.363 . S
C394 C400 1.428 1_655 S
H395 C391 0.930 . S
H396 C393 0.929 . S
S397 N398 1.613 1_455 S
S397 N399 1.610 . S
N398 S397 1.613 1_655 S
N398 C401 1.350 . S
N399 S397 1.610 . S
N399 C400 1.351 . S
C400 C394 1.428 1_455 S
C400 N399 1.351 . S
C400 C401 1.434 1_455 S
C401 C392 1.429 . S
C401 N398 1.350 . S
C401 C400 1.434 1_655 S
C402 C403 1.369 . S
C402 C404 1.419 . S
C402 H406 0.930 . S
C403 C402 1.369 . S
C403 C412 1.429 . S
C404 C402 1.419 . S
C404 C405 1.363 . S
C404 H407 0.929 . S
C405 C404 1.363 . S
C405 C411 1.428 . S
H406 C402 0.930 . S
H407 C404 0.929 . S
S408 N409 1.613 1_556 S
S408 N410 1.610 . S
N409 S408 1.613 1_554 S
N409 C412 1.350 . S
N410 S408 1.610 . S
N410 C411 1.351 1_556 S
C411 C405 1.428 . S
C411 N410 1.351 1_554 S
C411 C412 1.434 . S
C412 C403 1.429 . S
C412 N409 1.350 . S
C412 C411 1.434 . S
C413 C414 1.369 . S
C413 C415 1.419 . S
C413 H417 0.930 . S
C414 C413 1.369 . S
C414 C423 1.429 . S
C415 C413 1.419 . S
C415 C416 1.363 . S
C415 H418 0.929 . S
C416 C415 1.363 . S
C416 C422 1.428 . S
H417 C413 0.930 . S
H418 C415 0.929 . S
S419 N420 1.613 . S
S419 N421 1.610 . S
N420 S419 1.613 . S
N420 C423 1.350 . S
N421 S419 1.610 . S
N421 C422 1.351 . S
C422 C416 1.428 . S
C422 N421 1.351 . S
C422 C423 1.434 . S
C423 C414 1.429 . S
C423 N420 1.350 . S
C423 C422 1.434 . S
C424 C425 1.369 . S
C424 C426 1.419 . S
C424 H428 0.930 . S
C425 C424 1.369 . S
C425 C434 1.429 . S
C426 C424 1.419 . S
C426 C427 1.363 . S
C426 H429 0.929 . S
C427 C426 1.363 . S
C427 C433 1.428 . S
H428 C424 0.930 . S
H429 C426 0.929 . S
S430 N431 1.613 . S
S430 N432 1.610 . S
N431 S430 1.613 . S
N431 C434 1.350 . S
N432 S430 1.610 . S
N432 C433 1.351 . S
C433 C427 1.428 . S
C433 N432 1.351 . S
C433 C434 1.434 . S
C434 C425 1.429 . S
C434 N431 1.350 . S
C434 C433 1.434 . S
C435 C436 1.369 . S
C435 C437 1.419 . S
C435 H439 0.930 1_545 S
C436 C435 1.369 . S
C436 C445 1.429 . S
C437 C435 1.419 . S
C437 C438 1.363 . S
C437 H440 0.929 . S
C438 C437 1.363 . S
C438 C444 1.428 . S
H439 C435 0.930 1_565 S
H440 C437 0.929 . S
S441 N442 1.613 . S
S441 N443 1.610 . S
N442 S441 1.613 . S
N442 C445 1.350 . S
N443 S441 1.610 . S
N443 C444 1.351 . S
C444 C438 1.428 . S
C444 N443 1.351 . S
C444 C445 1.434 . S
C445 C436 1.429 . S
C445 N442 1.350 . S
C445 C444 1.434 . S
C446 C447 1.369 . S
C446 C448 1.419 . S
C446 H450 0.930 . S
C447 C446 1.369 . S
C447 C456 1.429 . S
C448 C446 1.419 . S
C448 C449 1.363 . S
C448 H451 0.929 1_565 S
C449 C448 1.363 . S
C449 C455 1.428 . S
H450 C446 0.930 . S
H451 C448 0.929 1_545 S
S452 N453 1.613 . S
S452 N454 1.610 . S
N453 S452 1.613 . S
N453 C456 1.350 . S
N454 S452 1.610 . S
N454 C455 1.351 . S
C455 C449 1.428 . S
C455 N454 1.351 . S
C455 C456 1.434 . S
C456 C447 1.429 . S
C456 N453 1.350 . S
C456 C455 1.434 . S
C457 C458 1.369 . S
C457 C459 1.419 . S
C457 H461 0.930 . S
C458 C457 1.369 . S
C458 C467 1.429 . S
C459 C457 1.419 . S
C459 C460 1.363 . S
C459 H462 0.929 . S
C460 C459 1.363 . S
C460 C466 1.428 . S
H461 C457 0.930 . S
H462 C459 0.929 . S
S463 N464 1.613 . S
S463 N465 1.610 . S
N464 S463 1.613 . S
N464 C467 1.350 . S
N465 S463 1.610 . S
N465 C466 1.351 . S
C466 C460 1.428 . S
C466 N465 1.351 . S
C466 C467 1.434 . S
C467 C458 1.429 . S
C467 N464 1.350 . S
C467 C466 1.434 . S
C468 C469 1.369 . S
C468 C470 1.419 . S
C468 H472 0.930 . S
C469 C468 1.369 . S
C469 C478 1.429 . S
C470 C468 1.419 . S
C470 C471 1.363 . S
C470 H473 0.929 . S
C471 C470 1.363 . S
C471 C477 1.428 . S
H472 C468 0.930 . S
H473 C470 0.929 . S
S474 N475 1.613 . S
S474 N476 1.610 . S
N475 S474 1.613 . S
N475 C478 1.350 . S
N476 S474 1.610 . S
N476 C477 1.351 . S
C477 C471 1.428 . S
C477 N476 1.351 . S
C477 C478 1.434 . S
C478 C469 1.429 . S
C478 N475 1.350 . S
C478 C477 1.434 . S
C479 C480 1.369 1_545 S
C479 C481 1.419 . S
C479 H483 0.930 . S
C480 C479 1.369 1_565 S
C480 C489 1.429 . S
C481 C479 1.419 . S
C481 C482 1.363 . S
C481 H484 0.929 . S
C482 C481 1.363 . S
C482 C488 1.434 . S
H483 C479 0.930 . S
H484 C481 0.929 . S
S485 N486 1.613 . S
S485 N487 1.610 . S
N486 S485 1.613 . S
N486 C489 1.350 . S
N487 S485 1.610 . S
N487 C488 1.349 1_565 S
C488 C482 1.434 . S
C488 N487 1.349 1_545 S
C488 C489 1.430 1_545 S
C489 C480 1.429 . S
C489 N486 1.350 . S
C489 C488 1.430 1_565 S
C490 C491 1.369 . S
C490 C492 1.419 . S
C490 H494 0.930 . S
C491 C490 1.369 . S
C491 C500 1.410 1_556 S
C492 C490 1.419 . S
C492 C493 1.363 1_556 S
C492 H495 0.929 . S
C493 C492 1.363 1_554 S
C493 C499 1.428 . S
H494 C490 0.930 . S
H495 C492 0.929 . S
S496 N497 1.613 . S
S496 N498 1.610 . S
N497 S496 1.613 . S
N497 C500 1.357 . S
N498 S496 1.610 . S
N498 C499 1.351 . S
C499 C493 1.428 . S
C499 N498 1.351 . S
C499 C500 1.447 . S
C500 C491 1.410 1_554 S
C500 N497 1.357 . S
C500 C499 1.447 . S
C501 C502 1.369 . S
C501 C503 1.419 1_545 S
C501 H505 0.930 . S
C502 C501 1.369 . S
C502 C511 1.429 . S
C503 C501 1.419 1_565 S
C503 C504 1.363 . S
C503 H506 0.929 . S
C504 C503 1.363 . S
C504 C510 1.428 . S
H505 C501 0.930 . S
H506 C503 0.929 . S
S507 N508 1.613 1_565 S
S507 N509 1.610 . S
N508 S507 1.613 1_545 S
N508 C511 1.350 . S
N509 S507 1.610 . S
N509 C510 1.351 . S
C510 C504 1.428 . S
C510 N509 1.351 . S
C510 C511 1.434 1_565 S
C511 C502 1.429 . S
C511 N508 1.350 . S
C511 C510 1.434 1_545 S
C512 C513 1.369 . S
C512 C514 1.419 . S
C512 H516 0.930 . S
C513 C512 1.369 . S
C513 C522 1.429 . S
C514 C512 1.419 . S
C514 C515 1.363 . S
C514 H517 0.929 . S
C515 C514 1.363 . S
C515 C521 1.428 . S
H516 C512 0.930 . S
H517 C514 0.929 . S
S518 N519 1.613 . S
S518 N520 1.610 . S
N519 S518 1.613 . S
N519 C522 1.350 . S
N520 S518 1.610 . S
N520 C521 1.351 . S
C521 C515 1.428 . S
C521 N520 1.351 . S
C521 C522 1.434 . S
C522 C513 1.429 . S
C522 N519 1.350 . S
C522 C521 1.434 . S
C523 C524 1.369 . S
C523 C525 1.419 . S
C523 H527 0.930 . S
C524 C523 1.369 . S
C524 C533 1.429 . S
C525 C523 1.419 . S
C525 C526 1.363 . S
C525 H528 0.929 . S
C526 C525 1.363 . S
C526 C532 1.428 . S
H527 C523 0.930 . S
H528 C525 0.929 . S
S529 N530 1.613 . S
S529 N531 1.610 . S
N530 S529 1.613 . S
N530 C533 1.350 . S
N531 S529 1.610 . S
N531 C532 1.351 . S
C532 C526 1.428 . S
C532 N531 1.351 . S
C532 C533 1.434 . S
C533 C524 1.429 . S
C533 N530 1.350 . S
C533 C532 1.434 . S
C534 C535 1.369 . S
C534 C536 1.419 1_556 S
C534 H538 0.930 . S
C535 C534 1.369 . S
C535 C544 1.429 1_556 S
C536 C534 1.419 1_554 S
C536 C537 1.363 . S
C536 H539 0.929 . S
C537 C536 1.363 . S
C537 C543 1.428 . S
H538 C534 0.930 . S
H539 C536 0.929 . S
S540 N541 1.613 . S
S540 N542 1.610 . S
N541 S540 1.613 . S
N541 C544 1.350 . S
N542 S540 1.610 . S
N542 C543 1.351 . S
C543 C537 1.428 . S
C543 N542 1.351 . S
C543 C544 1.434 . S
C544 C535 1.429 1_554 S
C544 N541 1.350 . S
C544 C543 1.434 . S
C545 C546 1.369 . S
C545 C547 1.419 . S
C545 H549 0.930 . S
C546 C545 1.369 . S
C546 C555 1.429 . S
C547 C545 1.419 . S
C547 C548 1.363 . S
C547 H550 0.929 . S
C548 C547 1.363 . S
C548 C554 1.428 . S
H549 C545 0.930 . S
H550 C547 0.929 . S
S551 N552 1.613 . S
S551 N553 1.610 . S
N552 S551 1.613 . S
N552 C555 1.350 . S
N553 S551 1.610 . S
N553 C554 1.351 . S
C554 C548 1.428 . S
C554 N553 1.351 . S
C554 C555 1.434 . S
C555 C546 1.429 . S
C555 N552 1.350 . S
C555 C554 1.434 . S
C556 C557 1.369 . S
C556 C558 1.419 . S
C556 H560 0.930 . S
C557 C556 1.369 . S
C557 C566 1.429 . S
C558 C556 1.419 . S
C558 C559 1.363 . S
C558 H561 0.929 . S
C559 C558 1.363 . S
C559 C565 1.428 . S
H560 C556 0.930 . S
H561 C558 0.929 . S
S562 N563 1.613 . S
S562 N564 1.610 . S
N563 S562 1.613 . S
N563 C566 1.350 . S
N564 S562 1.610 . S
N564 C565 1.351 . S
C565 C559 1.428 . S
C565 N564 1.351 . S
C565 C566 1.434 . S
C566 C557 1.429 . S
C566 N563 1.350 . S
C566 C565 1.434 . S
C567 C568 1.369 1_655 S
C567 C569 1.419 . S
C567 H571 0.930 . S
C568 C567 1.369 1_455 S
C568 C577 1.429 . S
C569 C567 1.419 . S
C569 C570 1.363 . S
C569 H572 0.929 . S
C570 C569 1.363 . S
C570 C576 1.420 1_655 S
H571 C567 0.930 . S
H572 C569 0.929 . S
S573 N574 1.613 . S
S573 N575 1.610 . S
N574 S573 1.613 . S
N574 C577 1.350 . S
N575 S573 1.610 . S
N575 C576 1.355 . S
C576 C570 1.420 1_455 S
C576 N575 1.355 . S
C576 C577 1.440 . S
C577 C568 1.429 . S
C577 N574 1.350 . S
C577 C576 1.440 . S
C578 C579 1.381 . S
C578 C580 1.401 1_655 S
C578 H582 0.937 . S
C579 C578 1.381 . S
C579 C588 1.429 . S
C580 C578 1.401 1_455 S
C580 C581 1.363 . S
C580 H583 0.929 . S
C581 C580 1.363 . S
C581 C587 1.428 . S
H582 C578 0.937 . S
H583 C580 0.929 . S
S584 N585 1.601 1_455 S
S584 N586 1.627 . S
N585 S584 1.601 1_655 S
N585 C588 1.350 . S
N586 S584 1.627 . S
N586 C587 1.351 . S
C587 C581 1.428 . S
C587 N586 1.351 . S
C587 C588 1.434 1_455 S
C588 C579 1.429 . S
C588 N585 1.350 . S
C588 C587 1.434 1_655 S
C589 C590 1.369 . S
C589 C591 1.419 . S
C589 H593 0.930 . S
C590 C589 1.369 . S
C590 C599 1.429 . S
C591 C589 1.419 . S
C591 C592 1.363 . S
C591 H594 0.929 . S
C592 C591 1.363 . S
C592 C598 1.428 . S
H593 C589 0.930 . S
H594 C591 0.929 . S
S595 N596 1.613 . S
S595 N597 1.610 . S
N596 S595 1.613 . S
N596 C599 1.350 . S
N597 S595 1.610 . S
N597 C598 1.351 . S
C598 C592 1.428 . S
C598 N597 1.351 . S
C598 C599 1.434 . S
C599 C590 1.429 . S
C599 N596 1.350 . S
C599 C598 1.434 . S
C600 C601 1.369 . S
C600 C602 1.419 . S
C600 H604 0.930 . S
C601 C600 1.369 . S
C601 C610 1.429 . S
C602 C600 1.419 . S
C602 C603 1.363 . S
C602 H605 0.929 . S
C603 C602 1.363 . S
C603 C609 1.428 . S
H604 C600 0.930 . S
H605 C602 0.929 . S
S606 N607 1.613 . S
S606 N608 1.610 . S
N607 S606 1.613 . S
N607 C610 1.350 . S
N608 S606 1.610 . S
N608 C609 1.351 . S
C609 C603 1.428 . S
C609 N608 1.351 . S
C609 C610 1.434 . S
C610 C601 1.429 . S
C610 N607 1.350 . S
C610 C609 1.434 . S
C611 C612 1.369 . S
C611 C613 1.419 . S
C611 H615 0.930 . S
C612 C611 1.369 . S
C612 C621 1.429 1_565 S
C613 C611 1.419 . S
C613 C614 1.363 . S
C613 H616 0.929 . S
C614 C613 1.363 . S
C614 C620 1.428 . S
H615 C611 0.930 . S
H616 C613 0.929 . S
S617 N618 1.613 . S
S617 N619 1.610 . S
N618 S617 1.613 . S
N618 C621 1.350 . S
N619 S617 1.610 . S
N619 C620 1.351 1_545 S
C620 C614 1.428 . S
C620 N619 1.351 1_565 S
C620 C621 1.434 1_565 S
C621 C612 1.429 1_545 S
C621 N618 1.350 . S
C621 C620 1.434 1_545 S
C622 C623 1.369 . S
C622 C624 1.419 . S
C622 H626 0.930 . S
C623 C622 1.369 . S
C623 C632 1.429 . S
C624 C622 1.419 . S
C624 C625 1.363 . S
C624 H627 0.929 . S
C625 C624 1.363 . S
C625 C631 1.428 . S
H626 C622 0.930 . S
H627 C624 0.929 . S
S628 N629 1.613 . S
S628 N630 1.610 . S
N629 S628 1.613 . S
N629 C632 1.350 . S
N630 S628 1.610 . S
N630 C631 1.351 . S
C631 C625 1.428 . S
C631 N630 1.351 . S
C631 C632 1.434 . S
C632 C623 1.429 . S
C632 N629 1.350 . S
C632 C631 1.434 . S
C633 C634 1.369 . S
C633 C635 1.419 1_545 S
C633 H637 0.930 . S
C634 C633 1.369 . S
C634 C643 1.429 . S
C635 C633 1.419 1_565 S
C635 C636 1.363 1_565 S
C635 H638 0.929 . S
C636 C635 1.363 1_545 S
C636 C642 1.428 . S
H637 C633 0.930 . S
H638 C635 0.929 . S
S639 N640 1.613 1_556 S
S639 N641 1.610 . S
N640 S639 1.613 1_554 S
N640 C643 1.350 . S
N641 S639 1.610 . S
N641 C642 1.351 1_556 S
C642 C636 1.428 . S
C642 N641 1.351 1_554 S
C642 C643 1.434 . S
C643 C634 1.429 . S
C643 N640 1.350 . S
C643 C642 1.434 . S
C644 C645 1.369 . S
C644 C646 1.419 . S
C644 H648 0.930 . S
C645 C644 1.369 . S
C645 C654 1.429 . S
C646 C644 1.419 . S
C646 C647 1.363 . S
C646 H649 0.929 . S
C647 C646 1.363 . S
C647 C653 1.428 . S
H648 C644 0.930 . S
H649 C646 0.929 . S
S650 N651 1.613 . S
S650 N652 1.610 . S
N651 S650 1.613 . S
N651 C654 1.350 . S
N652 S650 1.610 . S
N652 C653 1.351 . S
C653 C647 1.428 . S
C653 N652 1.351 . S
C653 C654 1.434 . S
C654 C645 1.429 . S
C654 N651 1.350 . S
C654 C653 1.434 . S
C655 C656 1.369 . S
C655 C657 1.419 . S
C655 H659 0.930 . S
C656 C655 1.369 . S
C656 C665 1.429 . S
C657 C655 1.419 . S
C657 C658 1.363 . S
C657 H660 0.929 . S
C658 C657 1.363 . S
C658 C664 1.428 . S
H659 C655 0.930 . S
H660 C657 0.929 . S
S661 N662 1.613 . S
S661 N663 1.610 1_554 S
N662 S661 1.613 . S
N662 C665 1.350 1_554 S
N663 S661 1.610 1_556 S
N663 C664 1.351 . S
C664 C658 1.428 . S
C664 N663 1.351 . S
C664 C665 1.434 . S
C665 C656 1.429 . S
C665 N662 1.350 1_556 S
C665 C664 1.434 . S
C666 C667 1.369 . S
C666 C668 1.419 . S
C666 H670 0.930 . S
C667 C666 1.369 . S
C667 C676 1.429 . S
C668 C666 1.419 . S
C668 C669 1.363 . S
C668 H671 0.929 . S
C669 C668 1.363 . S
C669 C675 1.428 . S
H670 C666 0.930 . S
H671 C668 0.929 . S
S672 N673 1.613 . S
S672 N674 1.610 . S
N673 S672 1.613 . S
N673 C676 1.350 . S
N674 S672 1.610 . S
N674 C675 1.351 . S
C675 C669 1.428 . S
C675 N674 1.351 . S
C675 C676 1.434 . S
C676 C667 1.429 . S
C676 N673 1.350 . S
C676 C675 1.434 . S
C677 C678 1.369 . S
C677 C679 1.419 . S
C677 H681 0.930 . S
C678 C677 1.369 . S
C678 C687 1.429 . S
C679 C677 1.419 . S
C679 C680 1.363 . S
C679 H682 0.929 . S
C680 C679 1.363 . S
C680 C686 1.428 . S
H681 C677 0.930 . S
H682 C679 0.929 . S
S683 N684 1.613 . S
S683 N685 1.610 . S
N684 S683 1.613 . S
N684 C687 1.350 . S
N685 S683 1.610 . S
N685 C686 1.351 . S
C686 C680 1.428 . S
C686 N685 1.351 . S
C686 C687 1.434 . S
C687 C678 1.429 . S
C687 N684 1.350 . S
C687 C686 1.434 . S
C688 C689 1.369 . S
C688 C690 1.419 . S
C688 H692 0.930 . S
C689 C688 1.369 . S
C689 C698 1.429 . S
C690 C688 1.419 . S
C690 C691 1.363 . S
C690 H693 0.929 . S
C691 C690 1.363 . S
C691 C697 1.428 . S
H692 C688 0.930 . S
H693 C690 0.929 . S
S694 N695 1.613 . S
S694 N696 1.610 . S
N695 S694 1.613 . S
N695 C698 1.350 . S
N696 S694 1.610 . S
N696 C697 1.351 . S
C697 C691 1.428 . S
C697 N696 1.351 . S
C697 C698 1.434 . S
C698 C689 1.429 . S
C698 N695 1.350 . S
C698 C697 1.434 . S
C699 C700 1.369 . S
C699 C701 1.419 . S
C699 H703 0.930 1_455 S
C700 C699 1.369 . S
C700 C709 1.429 . S
C701 C699 1.419 . S
C701 C702 1.363 . S
C701 H704 0.929 . S
C702 C701 1.363 . S
C702 C708 1.428 . S
H703 C699 0.930 1_655 S
H704 C701 0.929 . S
S705 N706 1.613 1_545 S
S705 N707 1.610 . S
N706 S705 1.613 1_565 S
N706 C709 1.350 1_565 S
N707 S705 1.610 . S
N707 C708 1.351 . S
C708 C702 1.428 . S
C708 N707 1.351 . S
C708 C709 1.434 . S
C709 C700 1.429 . S
C709 N706 1.350 1_545 S
C709 C708 1.434 . S
C710 C711 1.369 . S
C710 C712 1.419 . S
C710 H714 0.930 . S
C711 C710 1.369 . S
C711 C720 1.429 . S
C712 C710 1.419 . S
C712 C713 1.363 . S
C712 H715 0.929 . S
C713 C712 1.363 . S
C713 C719 1.428 . S
H714 C710 0.930 . S
H715 C712 0.929 . S
S716 N717 1.613 . S
S716 N718 1.610 . S
N717 S716 1.613 . S
N717 C720 1.350 . S
N718 S716 1.610 . S
N718 C719 1.351 . S
C719 C713 1.428 . S
C719 N718 1.351 . S
C719 C720 1.434 . S
C720 C711 1.429 . S
C720 N717 1.350 . S
C720 C719 1.434 . S
C721 C722 1.369 . S
C721 C723 1.419 . S
C721 H725 0.930 . S
C722 C721 1.369 . S
C722 C731 1.429 . S
C723 C721 1.419 . S
C723 C724 1.363 . S
C723 H726 0.929 . S
C724 C723 1.363 . S
C724 C730 1.428 . S
H725 C721 0.930 . S
H726 C723 0.929 . S
S727 N728 1.613 . S
S727 N729 1.610 1_545 S
N728 S727 1.613 . S
N728 C731 1.350 1_545 S
N729 S727 1.610 1_565 S
N729 C730 1.351 . S
C730 C724 1.428 . S
C730 N729 1.351 . S
C730 C731 1.434 . S
C731 C722 1.429 . S
C731 N728 1.350 1_565 S
C731 C730 1.434 . S
C732 C733 1.369 . S
C732 C734 1.419 . S
C732 H736 0.930 . S
C733 C732 1.369 . S
C733 C742 1.429 . S
C734 C732 1.419 . S
C734 C735 1.363 . S
C734 H737 0.929 . S
C735 C734 1.363 . S
C735 C741 1.428 . S
H736 C732 0.930 . S
H737 C734 0.929 . S
S738 N739 1.613 . S
S738 N740 1.610 . S
N739 S738 1.613 . S
N739 C742 1.350 . S
N740 S738 1.610 . S
N740 C741 1.351 . S
C741 C735 1.428 . S
C741 N740 1.351 . S
C741 C742 1.434 . S
C742 C733 1.429 . S
C742 N739 1.350 . S
C742 C741 1.434 . S
C743 C744 1.369 . S
C743 C745 1.419 . S
C743 H747 0.930 1_655 S
C744 C743 1.369 . S
C744 C753 1.429 . S
C745 C743 1.419 . S
C745 C746 1.363 . S
C745 H748 0.929 . S
C746 C745 1.363 . S
C746 C752 1.428 . S
H747 C743 0.930 1_455 S
H748 C745 0.929 . S
S749 N750 1.613 . S
S749 N751 1.610 . S
N750 S749 1.613 . S
N750 C753 1.350 . S
N751 S749 1.610 . S
N751 C752 1.351 . S
C752 C746 1.428 . S
C752 N751 1.351 . S
C752 C753 1.434 . S
C753 C744 1.429 . S
C753 N750 1.350 . S
C753 C752 1.434 . S
C754 C755 1.369 . S
C754 C756 1.419 . S
C754 H758 0.930 . S
C755 C754 1.369 . S
C755 C764 1.429 . S
C756 C754 1.419 . S
C756 C757 1.363 . S
C756 H759 0.929 . S
C757 C756 1.363 . S
C757 C763 1.428 . S
H758 C754 0.930 . S
H759 C756 0.929 . S
S760 N761 1.613 . S
S760 N762 1.610 . S
N761 S760 1.613 . S
N761 C764 1.350 . S
N762 S760 1.610 . S
N762 C763 1.351 . S
C763 C757 1.428 . S
C763 N762 1.351 . S
C763 C764 1.434 . S
C764 C755 1.429 . S
C764 N761 1.350 . S
C764 C763 1.434 . S
C765 C766 1.369 . S
C765 C767 1.419 . S
C765 H769 0.930 . S
C766 C765 1.369 . S
C766 C775 1.429 . S
C767 C765 1.419 . S
C767 C768 1.363 . S
C767 H770 0.929 . S
C768 C767 1.363 . S
C768 C774 1.428 . S
H769 C765 0.930 . S
H770 C767 0.929 . S
S771 N772 1.613 . S
S771 N773 1.610 . S
N772 S771 1.613 . S
N772 C775 1.350 . S
N773 S771 1.610 . S
N773 C774 1.351 . S
C774 C768 1.428 . S
C774 N773 1.351 . S
C774 C775 1.434 . S
C775 C766 1.429 . S
C775 N772 1.350 . S
C775 C774 1.434 . S
C776 C777 1.369 . S
C776 C778 1.419 . S
C776 H780 0.930 . S
C777 C776 1.369 . S
C777 C786 1.429 . S
C778 C776 1.419 . S
C778 C779 1.363 . S
C778 H781 0.929 . S
C779 C778 1.363 . S
C779 C785 1.428 . S
H780 C776 0.930 . S
H781 C778 0.929 . S
S782 N783 1.613 . S
S782 N784 1.610 . S
N783 S782 1.613 . S
N783 C786 1.350 . S
N784 S782 1.610 . S
N784 C785 1.351 . S
C785 C779 1.428 . S
C785 N784 1.351 . S
C785 C786 1.434 . S
C786 C777 1.429 . S
C786 N783 1.350 . S
C786 C785 1.434 . S
C787 C788 1.369 . S
C787 C789 1.419 . S
C787 H791 0.930 . S
C788 C787 1.369 . S
C788 C797 1.429 . S
C789 C787 1.419 . S
C789 C790 1.363 . S
C789 H792 0.929 . S
C790 C789 1.363 . S
C790 C796 1.428 . S
H791 C787 0.930 . S
H792 C789 0.929 . S
S793 N794 1.613 . S
S793 N795 1.610 . S
N794 S793 1.613 . S
N794 C797 1.350 . S
N795 S793 1.610 . S
N795 C796 1.351 . S
C796 C790 1.428 . S
C796 N795 1.351 . S
C796 C797 1.434 . S
C797 C788 1.429 . S
C797 N794 1.350 . S
C797 C796 1.434 . S
C798 C799 1.369 . S
C798 C800 1.419 . S
C798 H802 0.930 . S
C799 C798 1.369 . S
C799 C808 1.429 . S
C800 C798 1.419 . S
C800 C801 1.363 . S
C800 H803 0.929 . S
C801 C800 1.363 . S
C801 C807 1.428 . S
H802 C798 0.930 . S
H803 C800 0.929 . S
S804 N805 1.613 . S
S804 N806 1.610 . S
N805 S804 1.613 . S
N805 C808 1.350 . S
N806 S804 1.610 . S
N806 C807 1.351 . S
C807 C801 1.428 . S
C807 N806 1.351 . S
C807 C808 1.434 . S
C808 C799 1.429 . S
C808 N805 1.350 . S
C808 C807 1.434 . S
C809 C810 1.369 . S
C809 C811 1.419 . S
C809 H813 0.930 . S
C810 C809 1.369 . S
C810 C819 1.429 . S
C811 C809 1.419 . S
C811 C812 1.363 . S
C811 H814 0.929 . S
C812 C811 1.363 . S
C812 C818 1.428 . S
H813 C809 0.930 . S
H814 C811 0.929 . S
S815 N816 1.613 . S
S815 N817 1.610 . S
N816 S815 1.613 . S
N816 C819 1.350 . S
N817 S815 1.610 . S
N817 C818 1.351 . S
C818 C812 1.428 . S
C818 N817 1.351 . S
C818 C819 1.434 . S
C819 C810 1.429 . S
C819 N816 1.350 . S
C819 C818 1.434 . S
C820 C821 1.369 . S
C820 C822 1.419 . S
C820 H824 0.930 . S
C821 C820 1.369 . S
C821 C830 1.429 . S
C822 C820 1.419 . S
C822 C823 1.363 . S
C822 H825 0.929 . S
C823 C822 1.363 . S
C823 C829 1.428 . S
H824 C820 0.930 . S
H825 C822 0.929 . S
S826 N827 1.613 . S
S826 N828 1.610 . S
N827 S826 1.613 . S
N827 C830 1.350 . S
N828 S826 1.610 . S
N828 C829 1.351 . S
C829 C823 1.428 . S
C829 N828 1.351 . S
C829 C830 1.434 . S
C830 C821 1.429 . S
C830 N827 1.350 . S
C830 C829 1.434 . S
C831 C832 1.369 . S
C831 C833 1.419 . S
C831 H835 0.930 . S
C832 C831 1.369 . S
C832 C841 1.429 . S
C833 C831 1.419 . S
C833 C834 1.363 . S
C833 H836 0.929 . S
C834 C833 1.363 . S
C834 C840 1.428 . S
H835 C831 0.930 . S
H836 C833 0.929 . S
S837 N838 1.613 . S
S837 N839 1.610 . S
N838 S837 1.613 . S
N838 C841 1.350 . S
N839 S837 1.610 . S
N839 C840 1.351 . S
C840 C834 1.428 . S
C840 N839 1.351 . S
C840 C841 1.434 . S
C841 C832 1.429 . S
C841 N838 1.350 . S
C841 C840 1.434 . S
C842 C843 1.369 . S
C842 C844 1.419 . S
C842 H846 0.930 . S
C843 C842 1.369 . S
C843 C852 1.429 1_556 S
C844 C842 1.419 . S
C844 C845 1.363 . S
C844 H847 0.929 . S
C845 C844 1.363 . S
C845 C851 1.428 . S
H846 C842 0.930 . S
H847 C844 0.929 . S
S848 N849 1.613 . S
S848 N850 1.610 . S
N849 S848 1.613 . S
N849 C852 1.350 . S
N850 S848 1.610 . S
N850 C851 1.351 1_554 S
C851 C845 1.428 . S
C851 N850 1.351 1_556 S
C851 C852 1.434 1_556 S
C852 C843 1.429 1_554 S
C852 N849 1.350 . S
C852 C851 1.434 1_554 S
C853 C854 1.369 . S
C853 C855 1.419 . S
C853 H857 0.930 . S
C854 C853 1.369 . S
C854 C863 1.429 . S
C855 C853 1.419 . S
C855 C856 1.363 . S
C855 H858 0.929 . S
C856 C855 1.363 . S
C856 C862 1.428 . S
H857 C853 0.930 . S
H858 C855 0.929 . S
S859 N860 1.619 . S
S859 N861 1.608 1_655 S
N860 S859 1.619 . S
N860 C863 1.350 . S
N861 S859 1.608 1_455 S
N861 C862 1.351 1_455 S
C862 C856 1.428 . S
C862 N861 1.351 1_655 S
C862 C863 1.434 . S
C863 C854 1.429 . S
C863 N860 1.350 . S
C863 C862 1.434 . S
C337 C137 1.367 . S
C339 C11 1.366 . S
C348 C25 1.363 1_455 S
C350 C151 1.368 . S
C359 C39 1.365 . S
C361 C165 1.368 1_556 S
C370 C53 1.369 . S
C372 C123 1.364 . S
C381 C67 1.362 . S
C383 C221 1.370 . S
C392 C179 1.362 . S
C394 C81 1.369 1_655 S
C403 C95 1.362 . S
C405 C193 1.370 1_554 S
C414 C207 1.362 . S
C416 C109 1.370 . S
C425 C235 1.369 . S
C427 C263 1.365 . S
C436 C319 1.363 1_545 S
C438 C249 1.369 . S
C447 C277 1.364 . S
C449 C333 1.368 1_565 S
C458 C305 1.367 . S
C460 C291 1.365 . S
C469 C289 1.809 . S
C471 C9 1.812 . S
C480 C23 1.813 . S
C482 C247 1.812 . S
C491 C37 1.814 . S
C493 C261 1.812 . S
C502 C51 1.813 . S
C504 C275 1.809 . S
C513 C65 1.808 . S
C515 C331 1.813 . S
C524 C303 1.809 . S
C526 C79 1.814 . S
C535 C317 1.811 . S
C537 C93 1.810 . S
C546 C233 1.811 . S
C548 C107 1.810 . S
C557 C219 1.810 . S
C559 C121 1.811 . S
C568 C135 1.814 . S
C570 C177 1.811 . S
C579 C191 1.810 . S
C581 C149 1.814 . S
C590 C205 1.808 . S
C592 C163 1.814 . S
C601 C5 1.268 . S
C603 C224 1.308 . S
C612 C322 1.298 1_565 S
C614 C19 1.265 . S
C623 C294 1.300 . S
C625 C33 1.263 . S
C634 C47 1.271 . S
C636 C308 1.308 1_544 S
C645 C61 1.261 . S
C647 C238 1.302 . S
C656 C252 1.307 1_556 S
C658 C75 1.273 . S
C667 C266 1.301 . S
C669 C89 1.263 . S
C678 C280 1.304 . S
C680 C103 1.274 . S
C689 C0 1.300 . S
C691 C117 1.263 . S
C700 C14 1.303 1_445 S
C702 C131 1.273 . S
C711 C28 1.300 . S
C713 C145 1.272 . S
C722 C42 1.307 1_565 S
C724 C159 1.273 . S
C733 C56 1.309 . S
C735 C173 1.270 . S
C744 C70 1.309 1_655 S
C746 C187 1.272 . S
C755 C201 1.270 . S
C757 C84 1.300 . S
C766 C98 1.309 . S
C768 C215 1.268 . S
C777 C112 1.308 . S
C779 C229 1.273 . S
C788 C243 1.273 . S
C790 C168 1.307 . S
C799 C182 1.299 1_454 S
C801 C257 1.270 . S
C810 C271 1.263 . S
C812 C196 1.300 . S
C821 C285 1.266 . S
C823 C210 1.299 . S
C832 C299 1.262 . S
C834 C140 1.301 . S
C843 C154 1.299 1_556 S
C845 C313 1.264 . S
C854 C327 1.273 . S
C856 C126 1.307 1_655 S
