# Generated by pormake.
# Topology wgd, (5)-cn, num edge types: 1
# Building blocks:
#     Node 0, Type 0, BuildingBlock: BEQFEK_clean_sbu_0, # of connection points: 5
#     Node 1, Type 0, BuildingBlock: BEQFEK_clean_sbu_0, # of connection points: 5
#     Node 2, Type 0, BuildingBlock: BEQFEK_clean_sbu_0, # of connection points: 5
#     Node 3, Type 0, BuildingBlock: BEQFEK_clean_sbu_0, # of connection points: 5
#     Node 4, Type 0, BuildingBlock: BEQFEK_clean_sbu_0, # of connection points: 5
#     Node 5, Type 0, BuildingBlock: BEQFEK_clean_sbu_0, # of connection points: 5
#     Node 6, Type 0, BuildingBlock: BEQFEK_clean_sbu_0, # of connection points: 5
#     Node 7, Type 0, BuildingBlock: BEQFEK_clean_sbu_0, # of connection points: 5
#     Node 8, Type 0, BuildingBlock: BEQFEK_clean_sbu_0, # of connection points: 5
#     Node 9, Type 0, BuildingBlock: BEQFEK_clean_sbu_0, # of connection points: 5
#     Node 10, Type 0, BuildingBlock: BEQFEK_clean_sbu_0, # of connection points: 5
#     Node 11, Type 0, BuildingBlock: BEQFEK_clean_sbu_0, # of connection points: 5
#     Node 12, Type 0, BuildingBlock: BEQFEK_clean_sbu_0, # of connection points: 5
#     Node 13, Type 0, BuildingBlock: BEQFEK_clean_sbu_0, # of connection points: 5
#     Node 14, Type 0, BuildingBlock: BEQFEK_clean_sbu_0, # of connection points: 5
#     Node 15, Type 0, BuildingBlock: BEQFEK_clean_sbu_0, # of connection points: 5
#     Node 16, Type 0, BuildingBlock: BEQFEK_clean_sbu_0, # of connection points: 5
#     Node 17, Type 0, BuildingBlock: BEQFEK_clean_sbu_0, # of connection points: 5
#     Node 18, Type 0, BuildingBlock: BEQFEK_clean_sbu_0, # of connection points: 5
#     Node 19, Type 0, BuildingBlock: BEQFEK_clean_sbu_0, # of connection points: 5
#     Node 20, Type 0, BuildingBlock: BEQFEK_clean_sbu_0, # of connection points: 5
#     Node 21, Type 0, BuildingBlock: BEQFEK_clean_sbu_0, # of connection points: 5
#     Node 22, Type 0, BuildingBlock: BEQFEK_clean_sbu_0, # of connection points: 5
#     Node 23, Type 0, BuildingBlock: BEQFEK_clean_sbu_0, # of connection points: 5
#     Node 24, Type 0, BuildingBlock: BEQFEK_clean_sbu_0, # of connection points: 5
#     Node 25, Type 0, BuildingBlock: BEQFEK_clean_sbu_0, # of connection points: 5
#     Node 26, Type 0, BuildingBlock: BEQFEK_clean_sbu_0, # of connection points: 5
#     Node 27, Type 0, BuildingBlock: BEQFEK_clean_sbu_0, # of connection points: 5
#     Node 28, Type 0, BuildingBlock: BEQFEK_clean_sbu_0, # of connection points: 5
#     Node 29, Type 0, BuildingBlock: BEQFEK_clean_sbu_0, # of connection points: 5
#     Node 30, Type 0, BuildingBlock: BEQFEK_clean_sbu_0, # of connection points: 5
#     Node 31, Type 0, BuildingBlock: BEQFEK_clean_sbu_0, # of connection points: 5
#     Edge 32, Type (0, 0), BuildingBlock: TEMPAE_clean_linker_10, # of connection points: 2
#     Edge 33, Type (0, 0), BuildingBlock: TEMPAE_clean_linker_10, # of connection points: 2
#     Edge 34, Type (0, 0), BuildingBlock: TEMPAE_clean_linker_10, # of connection points: 2
#     Edge 35, Type (0, 0), BuildingBlock: TEMPAE_clean_linker_10, # of connection points: 2
#     Edge 36, Type (0, 0), BuildingBlock: TEMPAE_clean_linker_10, # of connection points: 2
#     Edge 37, Type (0, 0), BuildingBlock: TEMPAE_clean_linker_10, # of connection points: 2
#     Edge 38, Type (0, 0), BuildingBlock: TEMPAE_clean_linker_10, # of connection points: 2
#     Edge 39, Type (0, 0), BuildingBlock: TEMPAE_clean_linker_10, # of connection points: 2
#     Edge 40, Type (0, 0), BuildingBlock: TEMPAE_clean_linker_10, # of connection points: 2
#     Edge 41, Type (0, 0), BuildingBlock: TEMPAE_clean_linker_10, # of connection points: 2
#     Edge 42, Type (0, 0), BuildingBlock: TEMPAE_clean_linker_10, # of connection points: 2
#     Edge 43, Type (0, 0), BuildingBlock: TEMPAE_clean_linker_10, # of connection points: 2
#     Edge 44, Type (0, 0), BuildingBlock: TEMPAE_clean_linker_10, # of connection points: 2
#     Edge 45, Type (0, 0), BuildingBlock: TEMPAE_clean_linker_10, # of connection points: 2
#     Edge 46, Type (0, 0), BuildingBlock: TEMPAE_clean_linker_10, # of connection points: 2
#     Edge 47, Type (0, 0), BuildingBlock: TEMPAE_clean_linker_10, # of connection points: 2
#     Edge 48, Type (0, 0), BuildingBlock: TEMPAE_clean_linker_10, # of connection points: 2
#     Edge 49, Type (0, 0), BuildingBlock: TEMPAE_clean_linker_10, # of connection points: 2
#     Edge 50, Type (0, 0), BuildingBlock: TEMPAE_clean_linker_10, # of connection points: 2
#     Edge 51, Type (0, 0), BuildingBlock: TEMPAE_clean_linker_10, # of connection points: 2
#     Edge 52, Type (0, 0), BuildingBlock: TEMPAE_clean_linker_10, # of connection points: 2
#     Edge 53, Type (0, 0), BuildingBlock: TEMPAE_clean_linker_10, # of connection points: 2
#     Edge 54, Type (0, 0), BuildingBlock: TEMPAE_clean_linker_10, # of connection points: 2
#     Edge 55, Type (0, 0), BuildingBlock: TEMPAE_clean_linker_10, # of connection points: 2
#     Edge 56, Type (0, 0), BuildingBlock: TEMPAE_clean_linker_10, # of connection points: 2
#     Edge 57, Type (0, 0), BuildingBlock: TEMPAE_clean_linker_10, # of connection points: 2
#     Edge 58, Type (0, 0), BuildingBlock: TEMPAE_clean_linker_10, # of connection points: 2
#     Edge 59, Type (0, 0), BuildingBlock: TEMPAE_clean_linker_10, # of connection points: 2
#     Edge 60, Type (0, 0), BuildingBlock: TEMPAE_clean_linker_10, # of connection points: 2
#     Edge 61, Type (0, 0), BuildingBlock: TEMPAE_clean_linker_10, # of connection points: 2
#     Edge 62, Type (0, 0), BuildingBlock: TEMPAE_clean_linker_10, # of connection points: 2
#     Edge 63, Type (0, 0), BuildingBlock: TEMPAE_clean_linker_10, # of connection points: 2
#     Edge 64, Type (0, 0), BuildingBlock: TEMPAE_clean_linker_10, # of connection points: 2
#     Edge 65, Type (0, 0), BuildingBlock: TEMPAE_clean_linker_10, # of connection points: 2
#     Edge 66, Type (0, 0), BuildingBlock: TEMPAE_clean_linker_10, # of connection points: 2
#     Edge 67, Type (0, 0), BuildingBlock: TEMPAE_clean_linker_10, # of connection points: 2
#     Edge 68, Type (0, 0), BuildingBlock: TEMPAE_clean_linker_10, # of connection points: 2
#     Edge 69, Type (0, 0), BuildingBlock: TEMPAE_clean_linker_10, # of connection points: 2
#     Edge 70, Type (0, 0), BuildingBlock: TEMPAE_clean_linker_10, # of connection points: 2
#     Edge 71, Type (0, 0), BuildingBlock: TEMPAE_clean_linker_10, # of connection points: 2
#     Edge 72, Type (0, 0), BuildingBlock: TEMPAE_clean_linker_10, # of connection points: 2
#     Edge 73, Type (0, 0), BuildingBlock: TEMPAE_clean_linker_10, # of connection points: 2
#     Edge 74, Type (0, 0), BuildingBlock: TEMPAE_clean_linker_10, # of connection points: 2
#     Edge 75, Type (0, 0), BuildingBlock: TEMPAE_clean_linker_10, # of connection points: 2
#     Edge 76, Type (0, 0), BuildingBlock: TEMPAE_clean_linker_10, # of connection points: 2
#     Edge 77, Type (0, 0), BuildingBlock: TEMPAE_clean_linker_10, # of connection points: 2
#     Edge 78, Type (0, 0), BuildingBlock: TEMPAE_clean_linker_10, # of connection points: 2
#     Edge 79, Type (0, 0), BuildingBlock: TEMPAE_clean_linker_10, # of connection points: 2
#     Edge 80, Type (0, 0), BuildingBlock: TEMPAE_clean_linker_10, # of connection points: 2
#     Edge 81, Type (0, 0), BuildingBlock: TEMPAE_clean_linker_10, # of connection points: 2
#     Edge 82, Type (0, 0), BuildingBlock: TEMPAE_clean_linker_10, # of connection points: 2
#     Edge 83, Type (0, 0), BuildingBlock: TEMPAE_clean_linker_10, # of connection points: 2
#     Edge 84, Type (0, 0), BuildingBlock: TEMPAE_clean_linker_10, # of connection points: 2
#     Edge 85, Type (0, 0), BuildingBlock: TEMPAE_clean_linker_10, # of connection points: 2
#     Edge 86, Type (0, 0), BuildingBlock: TEMPAE_clean_linker_10, # of connection points: 2
#     Edge 87, Type (0, 0), BuildingBlock: TEMPAE_clean_linker_10, # of connection points: 2
#     Edge 88, Type (0, 0), BuildingBlock: TEMPAE_clean_linker_10, # of connection points: 2
#     Edge 89, Type (0, 0), BuildingBlock: TEMPAE_clean_linker_10, # of connection points: 2
#     Edge 90, Type (0, 0), BuildingBlock: TEMPAE_clean_linker_10, # of connection points: 2
#     Edge 91, Type (0, 0), BuildingBlock: TEMPAE_clean_linker_10, # of connection points: 2
#     Edge 92, Type (0, 0), BuildingBlock: TEMPAE_clean_linker_10, # of connection points: 2
#     Edge 93, Type (0, 0), BuildingBlock: TEMPAE_clean_linker_10, # of connection points: 2
#     Edge 94, Type (0, 0), BuildingBlock: TEMPAE_clean_linker_10, # of connection points: 2
#     Edge 95, Type (0, 0), BuildingBlock: TEMPAE_clean_linker_10, # of connection points: 2
#     Edge 96, Type (0, 0), BuildingBlock: TEMPAE_clean_linker_10, # of connection points: 2
#     Edge 97, Type (0, 0), BuildingBlock: TEMPAE_clean_linker_10, # of connection points: 2
#     Edge 98, Type (0, 0), BuildingBlock: TEMPAE_clean_linker_10, # of connection points: 2
#     Edge 99, Type (0, 0), BuildingBlock: TEMPAE_clean_linker_10, # of connection points: 2
#     Edge 100, Type (0, 0), BuildingBlock: TEMPAE_clean_linker_10, # of connection points: 2
#     Edge 101, Type (0, 0), BuildingBlock: TEMPAE_clean_linker_10, # of connection points: 2
#     Edge 102, Type (0, 0), BuildingBlock: TEMPAE_clean_linker_10, # of connection points: 2
#     Edge 103, Type (0, 0), BuildingBlock: TEMPAE_clean_linker_10, # of connection points: 2
#     Edge 104, Type (0, 0), BuildingBlock: TEMPAE_clean_linker_10, # of connection points: 2
#     Edge 105, Type (0, 0), BuildingBlock: TEMPAE_clean_linker_10, # of connection points: 2
#     Edge 106, Type (0, 0), BuildingBlock: TEMPAE_clean_linker_10, # of connection points: 2
#     Edge 107, Type (0, 0), BuildingBlock: TEMPAE_clean_linker_10, # of connection points: 2
#     Edge 108, Type (0, 0), BuildingBlock: TEMPAE_clean_linker_10, # of connection points: 2
#     Edge 109, Type (0, 0), BuildingBlock: TEMPAE_clean_linker_10, # of connection points: 2
#     Edge 110, Type (0, 0), BuildingBlock: TEMPAE_clean_linker_10, # of connection points: 2
#     Edge 111, Type (0, 0), BuildingBlock: TEMPAE_clean_linker_10, # of connection points: 2
# Relax obj value: 0.282
# Max RMSD: 0.228
# Mean RMSD: 0.228
data_MOF--net-wgd--node1-BEQFEK_clean_sbu_0--edge1-TEMPAE_clean_linker_10
_symmetry_space_group_name_H-M    P1
_symmetry_Int_Tables_number       1
_symmetry_cell_setting            triclinic
loop_
_symmetry_equiv_pos_as_xyz
'x, y, z'
_cell_length_a     101.98539
_cell_length_b     101.89239
_cell_length_c     18.461883
_cell_angle_alpha  89.983591
_cell_angle_beta   89.998206
_cell_angle_gamma 90.01194
loop_
_atom_site_label
_atom_site_type_symbol
_atom_site_fract_x
_atom_site_fract_y
_atom_site_fract_z
_atom_type_partial_charge
Co0 Co 0.17998 0.17631 0.09899 0.0
Co1 Co 0.1946 0.17609 0.95028 0.0
C2 C 0.18071 0.20014 0.00459 0.0
O3 O 0.17645 0.19401 0.0598 0.0
O4 O 0.18816 0.19452 0.95867 0.0
C5 C 0.16943 0.1842 0.23148 0.0
O6 O 0.17156 0.19582 0.20307 0.0
C7 C 0.19825 0.17982 0.79553 0.0
C8 C 0.20747 0.16117 0.76274 0.0
C9 C 0.20153 0.17236 0.7356 0.0
N10 N 0.20148 0.17312 0.85545 0.0
N11 N 0.20746 0.16218 0.83557 0.0
C12 C 0.19133 0.19275 0.79593 0.0
H13 H 0.19697 0.19967 0.8302 0.0
H14 H 0.1814 0.19155 0.8196 0.0
H15 H 0.19053 0.19697 0.74069 0.0
C16 C 0.16694 0.15319 0.03471 0.0
N17 N 0.17554 0.16319 0.032 0.0
N18 N 0.18051 0.16403 0.96654 0.0
C19 C 0.17452 0.15513 0.92384 0.0
C20 C 0.16591 0.14771 0.96582 0.0
C21 C 0.16049 0.14869 0.10318 0.0
H22 H 0.16716 0.15024 0.14982 0.0
H23 H 0.15148 0.15456 0.11242 0.0
H24 H 0.15786 0.13814 0.10028 0.0
O25 O 0.1985 0.17509 0.12503 0.0
O26 O 0.20919 0.17305 0.0209 0.0
H27 H 0.18393 0.14893 0.82609 0.0
H28 H 0.16646 0.1512 0.81752 0.0
C29 C 0.17551 0.1551 0.84295 0.0
H30 H 0.17696 0.16522 0.82317 0.0
H31 H 0.21048 0.15489 0.87158 0.0
O32 O 0.17081 0.17411 0.19185 0.0
C33 C 0.20907 0.17346 0.08988 0.0
Co34 Co 0.0716 0.92679 0.36081 0.0
Co35 Co 0.07177 0.94311 0.21741 0.0
C36 C 0.04748 0.92977 0.27399 0.0
O37 O 0.0535 0.92386 0.32482 0.0
O38 O 0.05327 0.93779 0.23186 0.0
C39 C 0.06545 0.91671 0.49915 0.0
O40 O 0.05328 0.91754 0.47643 0.0
C41 C 0.06733 0.9468 0.06264 0.0
C42 C 0.08407 0.95934 0.03183 0.0
C43 C 0.07375 0.95214 0.00349 0.0
N44 N 0.07362 0.95055 0.12311 0.0
N45 N 0.08337 0.9584 0.1045 0.0
C46 C 0.05669 0.93666 0.06137 0.0
H47 H 0.05929 0.92838 0.09772 0.0
H48 H 0.05487 0.93292 0.00581 0.0
H49 H 0.04752 0.94111 0.0824 0.0
C50 C 0.09449 0.91437 0.29057 0.0
N51 N 0.08428 0.92271 0.29048 0.0
N52 N 0.08346 0.9285 0.22704 0.0
C53 C 0.09262 0.92333 0.18277 0.0
C54 C 0.10014 0.91436 0.22186 0.0
C55 C 0.09932 0.90758 0.35737 0.0
H56 H 0.09777 0.91393 0.40534 0.0
H57 H 0.09367 0.89838 0.36539 0.0
H58 H 0.10991 0.90522 0.35333 0.0
O59 O 0.07355 0.94509 0.38957 0.0
O60 O 0.07607 0.95697 0.2901 0.0
H61 H 0.0984 0.93525 0.09274 0.0
H62 H 0.09819 0.91785 0.07336 0.0
C63 C 0.09319 0.92588 0.10293 0.0
H64 H 0.08316 0.92655 0.08098 0.0
H65 H 0.09018 0.96226 0.14098 0.0
O66 O 0.07472 0.9178 0.4536 0.0
C67 C 0.07572 0.95601 0.35889 0.0
Co68 Co 0.3158 0.82415 0.59146 0.0
Co69 Co 0.30137 0.82425 0.44155 0.0
C70 C 0.31155 0.79943 0.50937 0.0
O71 O 0.31575 0.80543 0.56502 0.0
O72 O 0.30596 0.8055 0.45768 0.0
C73 C 0.32943 0.8169 0.7199 0.0
O74 O 0.33 0.80527 0.68944 0.0
C75 C 0.3007 0.81973 0.28732 0.0
C76 C 0.28844 0.83596 0.24636 0.0
C77 C 0.29675 0.82596 0.22436 0.0
N78 N 0.29547 0.82605 0.34405 0.0
N79 N 0.2878 0.8355 0.31931 0.0
C80 C 0.3095 0.80803 0.29418 0.0
H81 H 0.30418 0.80025 0.32406 0.0
H82 H 0.31836 0.81072 0.32577 0.0
H83 H 0.31235 0.80395 0.24082 0.0
C84 C 0.33312 0.84264 0.51637 0.0
N85 N 0.32271 0.83456 0.51755 0.0
N86 N 0.31653 0.83513 0.45499 0.0
C87 C 0.3229 0.84376 0.412 0.0
C88 C 0.33356 0.8487 0.44954 0.0
C89 C 0.34222 0.84469 0.57885 0.0
H90 H 0.33672 0.84922 0.62429 0.0
H91 H 0.34595 0.83505 0.59781 0.0
H92 H 0.35059 0.85112 0.56393 0.0
O93 O 0.29784 0.82975 0.61341 0.0
O94 O 0.28693 0.82914 0.50923 0.0
H95 H 0.30855 0.85087 0.33744 0.0
H96 H 0.32515 0.85539 0.31454 0.0
C97 C 0.31886 0.84748 0.33693 0.0
H98 H 0.31965 0.83878 0.30129 0.0
H99 H 0.2829 0.84224 0.35221 0.0
O100 O 0.32519 0.82656 0.68336 0.0
C101 C 0.28733 0.83118 0.5773 0.0
Co102 Co 0.42753 0.06899 0.84013 0.0
Co103 Co 0.42549 0.05162 0.70233 0.0
C104 C 0.45099 0.0642 0.75624 0.0
O105 O 0.4456 0.07095 0.80584 0.0
O106 O 0.44441 0.05626 0.71724 0.0
C107 C 0.43378 0.07949 0.97715 0.0
O108 O 0.44592 0.0781 0.95478 0.0
C109 C 0.42692 0.05366 0.54816 0.0
C110 C 0.42036 0.03441 0.50702 0.0
C111 C 0.42431 0.04682 0.48531 0.0
N112 N 0.42439 0.04583 0.60484 0.0
N113 N 0.42057 0.03426 0.58018 0.0
C114 C 0.43203 0.06741 0.55434 0.0
H115 H 0.43587 0.06935 0.60938 0.0
H116 H 0.42404 0.07451 0.54349 0.0
H117 H 0.43984 0.0691 0.5135 0.0
C118 C 0.40701 0.08404 0.76471 0.0
N119 N 0.41559 0.07406 0.76884 0.0
N120 N 0.41403 0.06626 0.71285 0.0
C121 C 0.40397 0.07078 0.67248 0.0
C122 C 0.39936 0.08229 0.70335 0.0
C123 C 0.40644 0.0951 0.81786 0.0
H124 H 0.41635 0.09706 0.84018 0.0
H125 H 0.40253 0.10414 0.79216 0.0
H126 H 0.39989 0.0923 0.8633 0.0
O127 O 0.42411 0.05049 0.86845 0.0
O128 O 0.42066 0.03785 0.77252 0.0
H129 H 0.38704 0.06529 0.60968 0.0
H130 H 0.40191 0.06691 0.55902 0.0
C131 C 0.39777 0.06345 0.61107 0.0
H132 H 0.39953 0.05277 0.61655 0.0
H133 H 0.41789 0.02637 0.61311 0.0
O134 O 0.42449 0.07825 0.93188 0.0
C135 C 0.4212 0.0394 0.84093 0.0
Co136 Co 0.18135 0.8227 0.89463 0.0
Co137 Co 0.19608 0.82374 0.0434 0.0
C138 C 0.1849 0.79869 0.9851 0.0
O139 O 0.17997 0.80439 0.9303 0.0
O140 O 0.19159 0.80505 0.03115 0.0
C141 C 0.16912 0.81366 0.76617 0.0
O142 O 0.16827 0.80258 0.80204 0.0
C143 C 0.19645 0.81902 0.19717 0.0
C144 C 0.21286 0.83116 0.23714 0.0
C145 C 0.20303 0.82266 0.25988 0.0
N146 N 0.20208 0.82509 0.14063 0.0
N147 N 0.21201 0.8322 0.1645 0.0
C148 C 0.18398 0.81129 0.19088 0.0
H149 H 0.1787 0.81386 0.14032 0.0
H150 H 0.17742 0.81321 0.23762 0.0
H151 H 0.18635 0.80066 0.18931 0.0
C152 C 0.16674 0.84465 0.95968 0.0
N153 N 0.17556 0.83488 0.96367 0.0
N154 N 0.18124 0.83503 0.02766 0.0
C155 C 0.17577 0.84463 0.06787 0.0
C156 C 0.16646 0.85117 0.02584 0.0
C157 C 0.15985 0.8484 0.89108 0.0
H158 H 0.16657 0.84715 0.84436 0.0
H159 H 0.15131 0.84182 0.88294 0.0
H160 H 0.15646 0.85874 0.8925 0.0
O161 O 0.19958 0.82704 0.8711 0.0
O162 O 0.21057 0.82824 0.97496 0.0
H163 H 0.18906 0.85109 0.15037 0.0
H164 H 0.17193 0.85359 0.17307 0.0
C165 C 0.17901 0.847 0.14599 0.0
H166 H 0.17871 0.83763 0.17571 0.0
H167 H 0.21799 0.83798 0.13153 0.0
O168 O 0.17229 0.82403 0.80006 0.0
C169 C 0.2101 0.82915 0.9061 0.0
Co170 Co 0.42727 0.9308 0.14816 0.0
Co171 Co 0.42547 0.94572 0.29503 0.0
C172 C 0.45091 0.93418 0.23348 0.0
O173 O 0.44551 0.92907 0.17827 0.0
O174 O 0.44436 0.9408 0.27955 0.0
C175 C 0.43273 0.91718 0.01492 0.0
O176 O 0.44487 0.91642 0.0384 0.0
C177 C 0.42677 0.94239 0.44898 0.0
C178 C 0.41648 0.95972 0.49291 0.0
C179 C 0.42201 0.9478 0.51244 0.0
N180 N 0.4238 0.95047 0.394 0.0
N181 N 0.41783 0.96094 0.4205 0.0
C182 C 0.43383 0.92958 0.44005 0.0
H183 H 0.44124 0.93029 0.39672 0.0
H184 H 0.42673 0.92184 0.42433 0.0
H185 H 0.4388 0.92663 0.49096 0.0
C186 C 0.40733 0.91426 0.21842 0.0
N187 N 0.41564 0.9245 0.2185 0.0
N188 N 0.41406 0.93131 0.27822 0.0
C189 C 0.40425 0.92588 0.31704 0.0
C190 C 0.39983 0.91479 0.281 0.0
C191 C 0.40697 0.90399 0.1605 0.0
H192 H 0.41702 0.9021 0.14015 0.0
H193 H 0.40266 0.8947 0.18092 0.0
H194 H 0.40094 0.90762 0.11465 0.0
O195 O 0.424 0.94955 0.1269 0.0
O196 O 0.42089 0.96048 0.22979 0.0
H197 H 0.38763 0.92924 0.38687 0.0
H198 H 0.40314 0.92814 0.43211 0.0
C199 C 0.39817 0.9319 0.38297 0.0
H200 H 0.39907 0.94272 0.38114 0.0
H201 H 0.41417 0.9686 0.38894 0.0
O202 O 0.42398 0.92201 0.05582 0.0
C203 C 0.42136 0.96009 0.16089 0.0
Co204 Co 0.31972 0.17741 0.39747 0.0
Co205 Co 0.3031 0.17397 0.53789 0.0
C206 C 0.31619 0.19979 0.49274 0.0
O207 O 0.32225 0.19483 0.43922 0.0
O208 O 0.30832 0.19296 0.53096 0.0
C209 C 0.32681 0.18493 0.26043 0.0
O210 O 0.32145 0.19581 0.28462 0.0
C211 C 0.30233 0.1761 0.69337 0.0
C212 C 0.28849 0.16055 0.72665 0.0
C213 C 0.29759 0.16943 0.7533 0.0
N214 N 0.29675 0.17104 0.6338 0.0
N215 N 0.28821 0.16199 0.65397 0.0
C216 C 0.3121 0.18708 0.69186 0.0
H217 H 0.30761 0.1957 0.66494 0.0
H218 H 0.32081 0.18407 0.65985 0.0
H219 H 0.31512 0.19023 0.74681 0.0
C220 C 0.3349 0.15596 0.46223 0.0
N221 N 0.32481 0.16444 0.46295 0.0
N222 N 0.31775 0.16261 0.52176 0.0
C223 C 0.32308 0.15263 0.55982 0.0
C224 C 0.33407 0.14817 0.5233 0.0
C225 C 0.34504 0.15539 0.40382 0.0
H226 H 0.34036 0.15204 0.35282 0.0
H227 H 0.34901 0.16538 0.39408 0.0
H228 H 0.35314 0.14859 0.41802 0.0
O229 O 0.3012 0.17509 0.3689 0.0
O230 O 0.28916 0.17044 0.46564 0.0
H231 H 0.30743 0.14526 0.62522 0.0
H232 H 0.3233 0.13859 0.64796 0.0
C233 C 0.318 0.14756 0.63046 0.0
H234 H 0.31927 0.15519 0.67259 0.0
H235 H 0.28282 0.15621 0.618 0.0
O236 O 0.32894 0.17568 0.30491 0.0
C237 C 0.29028 0.17205 0.39749 0.0
Co238 Co 0.07297 0.0667 0.64241 0.0
Co239 Co 0.0726 0.05338 0.79505 0.0
C240 C 0.04862 0.06589 0.72904 0.0
O241 O 0.0547 0.06969 0.67273 0.0
O242 O 0.05435 0.05946 0.77884 0.0
C243 C 0.06761 0.08197 0.51457 0.0
O244 O 0.05638 0.08483 0.54567 0.0
C245 C 0.06761 0.05365 0.94924 0.0
C246 C 0.0831 0.04076 0.99285 0.0
C247 C 0.07341 0.04956 0.01306 0.0
N248 N 0.07388 0.04796 0.89359 0.0
N249 N 0.08287 0.03993 0.91996 0.0
C250 C 0.05688 0.06356 0.94072 0.0
H251 H 0.04843 0.05879 0.91357 0.0
H252 H 0.06029 0.07175 0.90587 0.0
H253 H 0.05343 0.06743 0.99352 0.0
C254 C 0.09516 0.08098 0.70782 0.0
N255 N 0.08531 0.07223 0.71166 0.0
N256 N 0.08482 0.06722 0.77721 0.0
C257 C 0.09408 0.07306 0.81828 0.0
C258 C 0.10105 0.08189 0.77552 0.0
C259 C 0.0993 0.0876 0.63908 0.0
H260 H 0.09919 0.08041 0.59399 0.0
H261 H 0.09222 0.09552 0.62596 0.0
H262 H 0.1093 0.0918 0.64345 0.0
O263 O 0.07492 0.04794 0.62305 0.0
O264 O 0.07623 0.03806 0.73031 0.0
H265 H 0.09972 0.0614 0.9095 0.0
H266 H 0.10133 0.07888 0.92442 0.0
C267 C 0.09533 0.07115 0.89835 0.0
H268 H 0.0855 0.07159 0.92297 0.0
H269 H 0.08946 0.03462 0.88818 0.0
O270 O 0.07604 0.07526 0.54895 0.0
C271 C 0.07637 0.03768 0.66129 0.0
Co272 Co 0.81877 0.82126 0.88651 0.0
Co273 Co 0.80334 0.82271 0.03271 0.0
C274 C 0.81537 0.79765 0.97969 0.0
O275 O 0.8201 0.80306 0.92328 0.0
O276 O 0.80867 0.80408 0.02573 0.0
C277 C 0.82828 0.81404 0.74892 0.0
O278 O 0.82565 0.80207 0.77092 0.0
C279 C 0.79986 0.81955 0.18791 0.0
C280 C 0.78747 0.83652 0.21648 0.0
C281 C 0.79454 0.82623 0.24602 0.0
N282 N 0.79618 0.8256 0.12663 0.0
N283 N 0.78845 0.83554 0.14387 0.0
C284 C 0.80967 0.80863 0.19094 0.0
H285 H 0.81816 0.81095 0.15562 0.0
H286 H 0.81312 0.80677 0.24703 0.0
H287 H 0.80503 0.79954 0.16994 0.0
C288 C 0.8327 0.8437 0.95159 0.0
N289 N 0.82387 0.83391 0.9548 0.0
N290 N 0.81814 0.83396 0.01854 0.0
C291 C 0.82376 0.84331 0.05985 0.0
C292 C 0.83304 0.84998 0.01846 0.0
C293 C 0.83959 0.84765 0.88333 0.0
H294 H 0.83287 0.84656 0.83652 0.0
H295 H 0.84813 0.8411 0.87464 0.0
H296 H 0.84296 0.85799 0.88559 0.0
O297 O 0.80079 0.82462 0.85837 0.0
O298 O 0.78927 0.8265 0.95946 0.0
H299 H 0.81189 0.85029 0.14729 0.0
H300 H 0.82927 0.85016 0.16698 0.0
C301 C 0.82121 0.84489 0.13919 0.0
H302 H 0.82039 0.83511 0.16451 0.0
H303 H 0.78462 0.84219 0.10642 0.0
O304 O 0.82818 0.82334 0.79462 0.0
C305 C 0.79001 0.82673 0.8905 0.0
Co306 Co 0.92674 0.06792 0.65099 0.0
Co307 Co 0.92561 0.05169 0.7946 0.0
C308 C 0.95055 0.06433 0.73811 0.0
O309 O 0.94486 0.06993 0.68528 0.0
O310 O 0.94432 0.05684 0.78126 0.0
C311 C 0.93366 0.07876 0.51642 0.0
O312 O 0.94557 0.0766 0.54066 0.0
C313 C 0.92846 0.05221 0.94911 0.0
C314 C 0.91498 0.03676 0.98783 0.0
C315 C 0.92278 0.04709 0.0111 0.0
N316 N 0.92386 0.04562 0.89167 0.0
N317 N 0.91606 0.03615 0.91504 0.0
C318 C 0.93803 0.06333 0.94343 0.0
H319 H 0.94692 0.05989 0.91466 0.0
H320 H 0.93364 0.0714 0.91118 0.0
H321 H 0.94119 0.06702 -0.00288 0.0
C322 C 0.9062 0.08312 0.72304 0.0
N323 N 0.91493 0.07326 0.72183 0.0
N324 N 0.91397 0.06632 0.78169 0.0
C325 C 0.90433 0.07153 0.82275 0.0
C326 C 0.89917 0.08234 0.787 0.0
C327 C 0.90497 0.09324 0.66472 0.0
H328 H 0.91486 0.09613 0.64537 0.0
H329 H 0.89966 0.10207 0.68416 0.0
H330 H 0.89955 0.08895 0.6183 0.0
O331 O 0.92304 0.04952 0.62414 0.0
O332 O 0.9216 0.03754 0.72452 0.0
H333 H 0.88956 0.06965 0.90626 0.0
H334 H 0.90627 0.06831 0.93642 0.0
C335 C 0.8994 0.06578 0.89214 0.0
H336 H 0.89879 0.05497 0.88727 0.0
H337 H 0.91082 0.02984 0.88119 0.0
O338 O 0.92405 0.07734 0.55945 0.0
C339 C 0.92108 0.03861 0.65582 0.0
Co340 Co 0.68042 0.17749 0.39773 0.0
Co341 Co 0.69704 0.17566 0.53917 0.0
C342 C 0.68462 0.20103 0.48389 0.0
O343 O 0.67822 0.19553 0.43313 0.0
O344 O 0.69238 0.19458 0.52468 0.0
C345 C 0.67008 0.18378 0.25999 0.0
O346 O 0.67079 0.19591 0.28363 0.0
C347 C 0.69828 0.17915 0.69404 0.0
C348 C 0.71386 0.16539 0.7278 0.0
C349 C 0.70445 0.17395 0.75415 0.0
N350 N 0.70376 0.17394 0.63461 0.0
N351 N 0.71328 0.16593 0.65489 0.0
C352 C 0.68625 0.18756 0.69298 0.0
H353 H 0.68023 0.18533 0.64448 0.0
H354 H 0.6803 0.18611 0.74269 0.0
H355 H 0.68927 0.19801 0.69028 0.0
C356 C 0.66538 0.15666 0.47059 0.0
N357 N 0.67533 0.1653 0.46832 0.0
N358 N 0.68218 0.16449 0.52854 0.0
C359 C 0.67676 0.15521 0.57119 0.0
C360 C 0.66598 0.15001 0.53579 0.0
C361 C 0.65535 0.15513 0.4121 0.0
H362 H 0.66002 0.15046 0.36432 0.0
H363 H 0.65177 0.16494 0.39515 0.0
H364 H 0.64698 0.14899 0.43022 0.0
O365 O 0.69894 0.17488 0.37029 0.0
O366 O 0.71078 0.17085 0.46859 0.0
H367 H 0.67733 0.1417 0.66169 0.0
H368 H 0.67988 0.15871 0.68396 0.0
C369 C 0.68196 0.15099 0.64331 0.0
H370 H 0.6927 0.14955 0.63989 0.0
H371 H 0.71883 0.16026 0.61919 0.0
O372 O 0.67147 0.17443 0.30477 0.0
C373 C 0.70976 0.1719 0.40017 0.0
Co374 Co 0.57185 0.93051 0.15148 0.0
Co375 Co 0.57444 0.94612 0.2955 0.0
C376 C 0.54899 0.93396 0.24598 0.0
O377 O 0.55429 0.92776 0.19393 0.0
O378 O 0.55555 0.94183 0.28524 0.0
C379 C 0.56323 0.92218 0.0171 0.0
O380 O 0.55218 0.92668 0.04391 0.0
C381 C 0.57053 0.94884 0.4501 0.0
C382 C 0.58851 0.95904 0.48552 0.0
C383 C 0.57759 0.95241 0.51103 0.0
N384 N 0.57723 0.95265 0.39115 0.0
N385 N 0.58776 0.95915 0.41258 0.0
C386 C 0.55808 0.94104 0.44765 0.0
H387 H 0.55063 0.94655 0.41626 0.0
H388 H 0.55989 0.93156 0.4198 0.0
H389 H 0.55405 0.93922 0.50251 0.0
C390 C 0.59472 0.91648 0.21213 0.0
N391 N 0.58512 0.9255 0.21617 0.0
N392 N 0.58525 0.93102 0.28048 0.0
C393 C 0.59446 0.92507 0.32129 0.0
C394 C 0.60099 0.91582 0.27901 0.0
C395 C 0.59828 0.90946 0.14369 0.0
H396 H 0.59666 0.91597 0.09641 0.0
H397 H 0.5919 0.9007 0.13753 0.0
H398 H 0.6087 0.90632 0.14413 0.0
O399 O 0.57398 0.94902 0.12394 0.0
O400 O 0.57899 0.96003 0.2241 0.0
H401 H 0.60196 0.93595 0.41134 0.0
H402 H 0.60048 0.91853 0.42806 0.0
C403 C 0.59589 0.92711 0.40119 0.0
H404 H 0.58612 0.9285 0.42568 0.0
H405 H 0.59495 0.96274 0.37754 0.0
O406 O 0.57311 0.92124 0.05866 0.0
C407 C 0.5774 0.95953 0.15573 0.0
Co408 Co 0.81915 0.17649 0.08747 0.0
Co409 Co 0.80267 0.1752 0.94524 0.0
C410 C 0.8158 0.20022 0.00013 0.0
O411 O 0.82132 0.19456 0.05346 0.0
O412 O 0.80836 0.1939 0.95686 0.0
C413 C 0.82909 0.18252 0.22564 0.0
O414 O 0.82841 0.19472 0.20298 0.0
C415 C 0.80171 0.17781 0.78995 0.0
C416 C 0.7839 0.16685 0.75866 0.0
C417 C 0.79447 0.17376 0.73093 0.0
N418 N 0.79574 0.17359 0.85026 0.0
N419 N 0.78497 0.1672 0.8315 0.0
C420 C 0.8145 0.185 0.78914 0.0
H421 H 0.82028 0.18266 0.83838 0.0
H422 H 0.82026 0.18258 0.73992 0.0
H423 H 0.81251 0.19571 0.78874 0.0
C424 C 0.83387 0.15554 0.01425 0.0
N425 N 0.82407 0.16434 0.01634 0.0
N426 N 0.81707 0.16346 0.95666 0.0
C427 C 0.82216 0.15386 0.91492 0.0
C428 C 0.83295 0.14863 0.95009 0.0
C429 C 0.8439 0.15389 0.07264 0.0
H430 H 0.83912 0.14952 0.12101 0.0
H431 H 0.8478 0.16364 0.08849 0.0
H432 H 0.85205 0.14742 0.05497 0.0
O433 O 0.80076 0.17386 0.11547 0.0
O434 O 0.78873 0.17113 0.0167 0.0
H435 H 0.80595 0.14936 0.84519 0.0
H436 H 0.82051 0.13968 0.82836 0.0
C437 C 0.8168 0.14956 0.84335 0.0
H438 H 0.81995 0.15661 0.80104 0.0
H439 H 0.77865 0.16265 0.86817 0.0
O440 O 0.8281 0.17327 0.17992 0.0
C441 C 0.78982 0.17155 0.08533 0.0
Co442 Co 0.57295 0.06939 0.85299 0.0
Co443 Co 0.57459 0.05362 0.70751 0.0
C444 C 0.54926 0.06515 0.76418 0.0
O445 O 0.55477 0.07031 0.81881 0.0
O446 O 0.55575 0.05848 0.71835 0.0
C447 C 0.56436 0.08109 0.9824 0.0
O448 O 0.55307 0.08118 0.94841 0.0
C449 C 0.57129 0.05457 0.55389 0.0
C450 C 0.58054 0.03644 0.51304 0.0
C451 C 0.574 0.0477 0.49079 0.0
N452 N 0.57592 0.04771 0.61032 0.0
N453 N 0.58136 0.03681 0.58595 0.0
C454 C 0.56547 0.06802 0.56119 0.0
H455 H 0.56822 0.07251 0.6137 0.0
H456 H 0.56878 0.07448 0.51636 0.0
H457 H 0.55463 0.06727 0.55939 0.0
C458 C 0.59349 0.08507 0.7814 0.0
N459 N 0.58483 0.07513 0.78228 0.0
N460 N 0.58587 0.06834 0.72186 0.0
C461 C 0.59538 0.07375 0.68077 0.0
C462 C 0.60041 0.08452 0.71698 0.0
C463 C 0.5949 0.09494 0.84084 0.0
H464 H 0.59986 0.09024 0.88763 0.0
H465 H 0.58505 0.09818 0.85911 0.0
H466 H 0.60073 0.10356 0.82307 0.0
O467 O 0.57679 0.05106 0.87806 0.0
O468 O 0.57896 0.03936 0.77735 0.0
H469 H 0.61033 0.07166 0.59873 0.0
H470 H 0.59376 0.07189 0.56584 0.0
C471 C 0.60017 0.06834 0.61019 0.0
H472 H 0.59992 0.05747 0.61121 0.0
H473 H 0.58579 0.02975 0.61882 0.0
O474 O 0.57473 0.07866 0.9467 0.0
C475 C 0.57909 0.04023 0.84628 0.0
Co476 Co 0.68106 0.82168 0.59432 0.0
Co477 Co 0.69457 0.82129 0.44275 0.0
C478 C 0.68154 0.79739 0.50488 0.0
O479 O 0.67797 0.80343 0.56185 0.0
O480 O 0.68806 0.80311 0.45532 0.0
C481 C 0.66697 0.81599 0.72547 0.0
O482 O 0.6654 0.80413 0.69898 0.0
C483 C 0.69564 0.81708 0.28778 0.0
C484 C 0.70861 0.83303 0.25024 0.0
C485 C 0.70027 0.82323 0.22615 0.0
N486 N 0.70069 0.82315 0.34588 0.0
N487 N 0.70878 0.83242 0.3232 0.0
C488 C 0.6856 0.80638 0.29166 0.0
H489 H 0.67731 0.8095 0.32655 0.0
H490 H 0.6819 0.80357 0.23734 0.0
H491 H 0.69018 0.79762 0.31675 0.0
C492 C 0.66756 0.84446 0.53024 0.0
N493 N 0.67594 0.8343 0.52594 0.0
N494 N 0.68088 0.83368 0.46032 0.0
C495 C 0.67521 0.84305 0.41936 0.0
C496 C 0.66668 0.85033 0.46242 0.0
C497 C 0.66143 0.84896 0.59963 0.0
H498 H 0.66867 0.84826 0.64425 0.0
H499 H 0.65303 0.84247 0.61297 0.0
H500 H 0.658 0.85927 0.59593 0.0
O501 O 0.69963 0.82381 0.61672 0.0
O502 O 0.70964 0.82447 0.50972 0.0
H503 H 0.68629 0.84883 0.32626 0.0
H504 H 0.6687 0.84942 0.31291 0.0
C505 C 0.67683 0.84398 0.33908 0.0
H506 H 0.67685 0.834 0.31645 0.0
H507 H 0.71365 0.83895 0.35744 0.0
O508 O 0.67225 0.82477 0.68648 0.0
C509 C 0.7099 0.82502 0.57863 0.0
Co510 Co 0.92404 0.9308 0.35038 0.0
Co511 Co 0.92618 0.94459 0.19994 0.0
C512 C 0.94939 0.93179 0.26774 0.0
O513 O 0.94267 0.92826 0.3225 0.0
O514 O 0.94423 0.93827 0.21622 0.0
C515 C 0.93004 0.91722 0.48096 0.0
O516 O 0.94104 0.91384 0.44916 0.0
C517 C 0.93119 0.94674 0.04492 0.0
C518 C 0.9166 0.96157 0.01134 0.0
C519 C 0.92601 0.95301 0.98485 0.0
N520 N 0.92506 0.9513 0.10415 0.0
N521 N 0.91658 0.9604 0.08396 0.0
C522 C 0.9403 0.93519 0.04518 0.0
H523 H 0.93868 0.92903 0.09382 0.0
H524 H 0.93889 0.92905 -0.00385 0.0
H525 H 0.95057 0.9388 0.04559 0.0
C526 C 0.90235 0.91707 0.27775 0.0
N527 N 0.91243 0.92555 0.27733 0.0
N528 N 0.91371 0.93068 0.21237 0.0
C529 C 0.90484 0.92504 0.16793 0.0
C530 C 0.89721 0.91631 0.2081 0.0
C531 C 0.89715 0.91082 0.34533 0.0
H532 H 0.89782 0.91783 0.3911 0.0
H533 H 0.90321 0.90211 0.35874 0.0
H534 H 0.88677 0.90778 0.33892 0.0
O535 O 0.92071 0.94923 0.37285 0.0
O536 O 0.92254 0.95953 0.26739 0.0
H537 H 0.90023 0.93693 0.07572 0.0
H538 H 0.89885 0.91946 0.05904 0.0
C539 C 0.9045 0.92715 0.08764 0.0
H540 H 0.91458 0.92684 0.06606 0.0
H541 H 0.91027 0.96527 0.1194 0.0
O542 O 0.92077 0.9219 0.44301 0.0
C543 C 0.9204 0.95966 0.33538 0.0
Co544 Co 0.67951 0.67672 0.59197 0.0
Co545 Co 0.69497 0.67418 0.44775 0.0
C546 C 0.68203 0.69943 0.49507 0.0
O547 O 0.67623 0.69406 0.5483 0.0
O548 O 0.69002 0.69303 0.45555 0.0
C549 C 0.67193 0.68526 0.72658 0.0
O550 O 0.67689 0.69612 0.69969 0.0
C551 C 0.69803 0.67757 0.29288 0.0
C552 C 0.70812 0.65934 0.26016 0.0
C553 C 0.70168 0.67025 0.23303 0.0
N554 N 0.70162 0.67104 0.3528 0.0
N555 N 0.70805 0.66036 0.33301 0.0
C556 C 0.69039 0.69012 0.29335 0.0
H557 H 0.69579 0.69756 0.32543 0.0
H558 H 0.68072 0.68846 0.31944 0.0
H559 H 0.68895 0.69409 0.23797 0.0
C560 C 0.66573 0.6536 0.53385 0.0
N561 N 0.67474 0.66318 0.52882 0.0
N562 N 0.68018 0.66293 0.46436 0.0
C563 C 0.67419 0.65362 0.42437 0.0
C564 C 0.66495 0.6472 0.4674 0.0
C565 C 0.65874 0.65024 0.60274 0.0
H566 H 0.66537 0.65175 0.6496 0.0
H567 H 0.65016 0.65684 0.60924 0.0
H568 H 0.65537 0.63989 0.60279 0.0
O569 O 0.69804 0.67507 0.61933 0.0
O570 O 0.70911 0.67046 0.51912 0.0
H571 H 0.68488 0.64577 0.33461 0.0
H572 H 0.6675 0.64746 0.3182 0.0
C573 C 0.67615 0.652 0.34451 0.0
H574 H 0.67769 0.6617 0.31926 0.0
H575 H 0.71147 0.65326 0.36909 0.0
O576 O 0.67037 0.6755 0.68478 0.0
C577 C 0.70866 0.67206 0.58748 0.0
Co578 Co 0.57278 0.43013 0.84785 0.0
Co579 Co 0.57115 0.44459 0.69929 0.0
C580 C 0.54754 0.43224 0.76436 0.0
O581 O 0.55405 0.42847 0.81944 0.0
O582 O 0.55293 0.43856 0.71288 0.0
C583 C 0.56674 0.41834 0.98296 0.0
O584 O 0.55475 0.41719 0.9579 0.0
C585 C 0.5667 0.4486 0.54482 0.0
C586 C 0.58345 0.46132 0.51592 0.0
C587 C 0.57311 0.45429 0.48665 0.0
N588 N 0.57305 0.45202 0.60566 0.0
N589 N 0.5828 0.45996 0.58832 0.0
C590 C 0.55603 0.43851 0.54205 0.0
H591 H 0.55807 0.43052 0.58129 0.0
H592 H 0.5549 0.43429 0.48702 0.0
H593 H 0.54665 0.44321 0.55791 0.0
C594 C 0.5938 0.41573 0.77268 0.0
N595 N 0.58419 0.42475 0.77391 0.0
N596 N 0.58308 0.43019 0.70964 0.0
C597 C 0.59154 0.42424 0.66397 0.0
C598 C 0.59874 0.41495 0.7026 0.0
C599 C 0.59876 0.40892 0.83913 0.0
H600 H 0.5985 0.41573 0.8859 0.0
H601 H 0.5923 0.40045 0.85156 0.0
H602 H 0.60897 0.40541 0.83186 0.0
O603 O 0.57671 0.44825 0.87337 0.0
O604 O 0.57501 0.45902 0.76951 0.0
H605 H 0.59704 0.43589 0.57243 0.0
H606 H 0.5967 0.41844 0.55436 0.0
C607 C 0.59183 0.42656 0.58387 0.0
H608 H 0.58172 0.42731 0.56306 0.0
H609 H 0.58958 0.46365 0.62542 0.0
O610 O 0.57601 0.42089 0.93936 0.0
C611 C 0.57719 0.45883 0.8374 0.0
Co612 Co 0.81787 0.32257 0.08576 0.0
Co613 Co 0.80137 0.32357 0.9427 0.0
C614 C 0.81304 0.29847 0.00384 0.0
O615 O 0.81895 0.30408 0.05583 0.0
O616 O 0.80583 0.3048 0.95977 0.0
C617 C 0.83 0.31632 0.21981 0.0
O618 O 0.82906 0.30421 0.19608 0.0
C619 C 0.80314 0.32063 0.78861 0.0
C620 C 0.78661 0.33227 0.74574 0.0
C621 C 0.7978 0.32549 0.72509 0.0
N622 N 0.79578 0.32473 0.84442 0.0
N623 N 0.78573 0.33145 0.81857 0.0
C624 C 0.81524 0.31241 0.79712 0.0
H625 H 0.81302 0.30378 0.83142 0.0
H626 H 0.82297 0.31822 0.82467 0.0
H627 H 0.81894 0.30876 0.74441 0.0
C628 C 0.83361 0.34219 0.00895 0.0
N629 N 0.82356 0.33368 0.0122 0.0
N630 N 0.8163 0.33481 0.95366 0.0
C631 C 0.8214 0.3444 0.9118 0.0
C632 C 0.83257 0.34925 0.94516 0.0
C633 C 0.84399 0.34336 0.06582 0.0
H634 H 0.8464 0.33351 0.08767 0.0
H635 H 0.85299 0.34801 0.04387 0.0
H636 H 0.84019 0.34945 0.11101 0.0
O637 O 0.79966 0.32724 0.11131 0.0
O638 O 0.78736 0.32859 0.01206 0.0
H639 H 0.81818 0.36011 0.83528 0.0
H640 H 0.81802 0.34388 0.79774 0.0
C641 C 0.81506 0.34983 0.84514 0.0
H642 H 0.80425 0.34955 0.85065 0.0
H643 H 0.7787 0.3361 0.8507 0.0
O644 O 0.82735 0.32569 0.17692 0.0
C645 C 0.78873 0.3295 0.08054 0.0
Co646 Co 0.92784 0.57061 0.35038 0.0
Co647 Co 0.92657 0.55387 0.20863 0.0
C648 C 0.9516 0.56685 0.26462 0.0
O649 O 0.94614 0.57219 0.31913 0.0
O650 O 0.94519 0.55971 0.22032 0.0
C651 C 0.93326 0.58115 0.48896 0.0
O652 O 0.94555 0.58076 0.46793 0.0
C653 C 0.92891 0.55347 0.0532 0.0
C654 C 0.91884 0.53522 0.02066 0.0
C655 C 0.92511 0.54624 0.99371 0.0
N656 N 0.92515 0.54707 0.11316 0.0
N657 N 0.91929 0.53605 0.0936 0.0
C658 C 0.93529 0.5667 0.05293 0.0
H659 H 0.93406 0.57163 0.10605 0.0
H660 H 0.93112 0.57293 0.00933 0.0
H661 H 0.94591 0.56547 0.04186 0.0
C662 C 0.90761 0.58578 0.27264 0.0
N663 N 0.91609 0.57572 0.27711 0.0
N664 N 0.91491 0.56827 0.21932 0.0
C665 C 0.90532 0.57317 0.17702 0.0
C666 C 0.90047 0.5845 0.209 0.0
C667 C 0.90689 0.59665 0.32694 0.0
H668 H 0.91671 0.59845 0.35079 0.0
H669 H 0.90319 0.60583 0.30181 0.0
H670 H 0.90013 0.59373 0.3712 0.0
O671 O 0.92471 0.55227 0.37857 0.0
O672 O 0.92235 0.53999 0.28033 0.0
H673 H 0.88978 0.56936 0.1003 0.0
H674 H 0.90605 0.5697 0.06298 0.0
C675 C 0.90014 0.56659 0.11036 0.0
H676 H 0.90077 0.55579 0.11603 0.0
H677 H 0.91514 0.52937 0.12983 0.0
O678 O 0.92426 0.57966 0.44227 0.0
C679 C 0.92245 0.54125 0.34893 0.0
Co680 Co 0.68439 0.32442 0.3922 0.0
Co681 Co 0.69682 0.32404 0.54686 0.0
C682 C 0.68681 0.29952 0.47795 0.0
O683 O 0.68348 0.30568 0.42093 0.0
O684 O 0.69206 0.30542 0.53127 0.0
C685 C 0.66921 0.31744 0.26675 0.0
O686 O 0.66725 0.30619 0.29971 0.0
C687 C 0.69742 0.31935 0.70182 0.0
C688 C 0.70784 0.33677 0.7433 0.0
C689 C 0.7006 0.32595 0.76486 0.0
N690 N 0.70209 0.32618 0.64528 0.0
N691 N 0.70869 0.33638 0.67044 0.0
C692 C 0.68936 0.30714 0.69493 0.0
H693 H 0.69527 0.29963 0.66633 0.0
H694 H 0.68048 0.3092 0.66213 0.0
H695 H 0.6865 0.3031 0.74842 0.0
C696 C 0.66801 0.3449 0.45754 0.0
N697 N 0.67735 0.33563 0.46206 0.0
N698 N 0.68195 0.33513 0.5285 0.0
C699 C 0.67509 0.34365 0.56968 0.0
C700 C 0.66614 0.35027 0.52589 0.0
C701 C 0.66202 0.34926 0.38748 0.0
H702 H 0.66957 0.34933 0.34432 0.0
H703 H 0.65423 0.34221 0.37161 0.0
H704 H 0.65776 0.35924 0.39175 0.0
O705 O 0.70251 0.32953 0.37432 0.0
O706 O 0.71204 0.32875 0.48259 0.0
H707 H 0.68512 0.3502 0.66475 0.0
H708 H 0.66752 0.34925 0.67511 0.0
C709 C 0.67621 0.34453 0.65032 0.0
H710 H 0.67701 0.33455 0.67305 0.0
H711 H 0.71292 0.34359 0.63778 0.0
O712 O 0.67544 0.3265 0.29907 0.0
C713 C 0.71253 0.33082 0.41448 0.0
Co714 Co 0.9263 0.43082 0.64442 0.0
Co715 Co 0.92474 0.44576 0.79172 0.0
C716 C 0.94986 0.43344 0.73253 0.0
O717 O 0.94441 0.4287 0.67649 0.0
O718 O 0.94346 0.44017 0.77876 0.0
C719 C 0.93234 0.41764 0.51156 0.0
O720 O 0.94442 0.41737 0.53617 0.0
C721 C 0.92728 0.444 0.94572 0.0
C722 C 0.91438 0.45965 0.98773 0.0
C723 C 0.92188 0.44895 0.00873 0.0
N724 N 0.92287 0.4511 0.88974 0.0
N725 N 0.91537 0.46065 0.91503 0.0
C726 C 0.93653 0.43267 0.93767 0.0
H727 H 0.9458 0.43632 0.91379 0.0
H728 H 0.9323 0.42533 0.89988 0.0
H729 H 0.93899 0.42798 0.99006 0.0
C730 C 0.90563 0.41503 0.71268 0.0
N731 N 0.91429 0.42497 0.71383 0.0
N732 N 0.91305 0.43154 0.77475 0.0
C733 C 0.90327 0.42609 0.81375 0.0
C734 C 0.89837 0.41547 0.77577 0.0
C735 C 0.90435 0.40537 0.65211 0.0
H736 H 0.90021 0.41042 0.60401 0.0
H737 H 0.9142 0.40161 0.63716 0.0
H738 H 0.89786 0.39706 0.66716 0.0
O739 O 0.92353 0.44951 0.62187 0.0
O740 O 0.92081 0.46051 0.72476 0.0
H741 H 0.89771 0.44186 0.884 0.0
H742 H 0.88862 0.42685 0.8983 0.0
C743 C 0.89839 0.43101 0.8851 0.0
H744 H 0.90534 0.42805 0.92812 0.0
H745 H 0.91036 0.46736 0.88252 0.0
O746 O 0.92326 0.42189 0.55219 0.0
C747 C 0.92126 0.46013 0.65583 0.0
Co748 Co 0.81861 0.67743 0.89886 0.0
Co749 Co 0.80209 0.67373 0.03928 0.0
C750 C 0.81465 0.69974 0.99352 0.0
O751 O 0.82092 0.69485 0.9406 0.0
O752 O 0.80679 0.69283 0.03139 0.0
C753 C 0.82597 0.68523 0.76218 0.0
O754 O 0.82074 0.69615 0.78657 0.0
C755 C 0.80146 0.67611 0.19449 0.0
C756 C 0.78779 0.66052 0.22923 0.0
C757 C 0.7968 0.66958 0.25501 0.0
N758 N 0.7959 0.67085 0.13544 0.0
N759 N 0.78746 0.66175 0.15645 0.0
C760 C 0.81113 0.68718 0.19192 0.0
H761 H 0.80648 0.69575 0.16538 0.0
H762 H 0.81975 0.68424 0.15904 0.0
H763 H 0.81431 0.69038 0.2465 0.0
C764 C 0.83429 0.6564 0.96391 0.0
N765 N 0.82398 0.66461 0.96437 0.0
N766 N 0.81699 0.66268 0.0233 0.0
C767 C 0.82256 0.65288 0.06167 0.0
C768 C 0.83367 0.64867 0.02527 0.0
C769 C 0.84445 0.65607 0.90555 0.0
H770 H 0.83984 0.6527 0.85439 0.0
H771 H 0.84826 0.66613 0.8962 0.0
H772 H 0.85267 0.64939 0.91953 0.0
O773 O 0.8001 0.67475 0.87072 0.0
O774 O 0.78823 0.66977 0.96764 0.0
H775 H 0.80711 0.64536 0.12797 0.0
H776 H 0.82311 0.63895 0.15033 0.0
C777 C 0.81765 0.64781 0.13269 0.0
H778 H 0.81886 0.65551 0.17448 0.0
H779 H 0.78212 0.65583 0.12103 0.0
O780 O 0.82785 0.67586 0.80629 0.0
C781 C 0.78926 0.67144 0.89952 0.0
Co782 Co 0.57175 0.56726 0.14246 0.0
Co783 Co 0.5709 0.55254 0.29058 0.0
C784 C 0.54693 0.5649 0.22961 0.0
O785 O 0.55308 0.56881 0.17352 0.0
O786 O 0.55264 0.55853 0.27977 0.0
C787 C 0.56556 0.57845 0.00611 0.0
O788 O 0.55335 0.57809 0.02868 0.0
C789 C 0.56684 0.54836 0.4451 0.0
C790 C 0.5841 0.53637 0.47369 0.0
C791 C 0.57356 0.54304 0.50322 0.0
N792 N 0.57318 0.54509 0.38403 0.0
N793 N 0.58325 0.53754 0.40123 0.0
C794 C 0.55578 0.55802 0.44813 0.0
H795 H 0.55812 0.56672 0.41436 0.0
H796 H 0.55365 0.56119 0.50442 0.0
H797 H 0.54687 0.55337 0.42512 0.0
C798 C 0.59335 0.58133 0.21488 0.0
N799 N 0.58357 0.57249 0.21489 0.0
N800 N 0.58269 0.56702 0.27919 0.0
C801 C 0.59138 0.57288 0.32384 0.0
C802 C 0.5986 0.58203 0.28437 0.0
C803 C 0.59823 0.58797 0.14768 0.0
H804 H 0.5976 0.58113 0.10111 0.0
H805 H 0.59196 0.5966 0.13586 0.0
H806 H 0.60856 0.59119 0.15362 0.0
O807 O 0.57562 0.54923 0.11551 0.0
O808 O 0.57459 0.53823 0.219 0.0
H809 H 0.59737 0.56158 0.41571 0.0
H810 H 0.5964 0.57902 0.43293 0.0
C811 C 0.5918 0.57068 0.40398 0.0
H812 H 0.58174 0.56961 0.42508 0.0
H813 H 0.59012 0.53408 0.36396 0.0
O814 O 0.57476 0.57666 0.0513 0.0
C815 C 0.57642 0.53859 0.15078 0.0
Co816 Co 0.31841 0.32164 0.39484 0.0
Co817 Co 0.30274 0.32232 0.54057 0.0
C818 C 0.31554 0.29774 0.48632 0.0
O819 O 0.32021 0.30339 0.43048 0.0
O820 O 0.30858 0.30385 0.53241 0.0
C821 C 0.32812 0.31477 0.25722 0.0
O822 O 0.32626 0.30271 0.28006 0.0
C823 C 0.29901 0.31864 0.69547 0.0
C824 C 0.28632 0.33537 0.72442 0.0
C825 C 0.29348 0.32512 0.75374 0.0
N826 N 0.29536 0.32478 0.63438 0.0
N827 N 0.28743 0.33455 0.65182 0.0
C828 C 0.30905 0.30791 0.69835 0.0
H829 H 0.31759 0.31053 0.66404 0.0
H830 H 0.31238 0.30596 0.75456 0.0
H831 H 0.3047 0.2988 0.67598 0.0
C832 C 0.33193 0.34412 0.46349 0.0
N833 N 0.32315 0.33426 0.46458 0.0
N834 N 0.31727 0.33398 0.52795 0.0
C835 C 0.32272 0.34319 0.57093 0.0
C836 C 0.33206 0.35011 0.53125 0.0
C837 C 0.33916 0.34827 0.39671 0.0
H838 H 0.33276 0.34713 0.34861 0.0
H839 H 0.34786 0.34187 0.38936 0.0
H840 H 0.34237 0.35865 0.40018 0.0
O841 O 0.30031 0.32442 0.36642 0.0
O842 O 0.28865 0.32592 0.46718 0.0
H843 H 0.3106 0.34957 0.65877 0.0
H844 H 0.32794 0.3496 0.67942 0.0
C845 C 0.32002 0.34435 0.65036 0.0
H846 H 0.31932 0.33445 0.67427 0.0
H847 H 0.28359 0.34122 0.6146 0.0
O848 O 0.32765 0.32413 0.30254 0.0
C849 C 0.28944 0.32616 0.39825 0.0
Co850 Co 0.42727 0.57162 0.13547 0.0
Co851 Co 0.42262 0.55536 0.27428 0.0
C852 C 0.44888 0.56784 0.23475 0.0
O853 O 0.4442 0.57442 0.18254 0.0
O854 O 0.44181 0.55976 0.27012 0.0
C855 C 0.43703 0.57623 0.00457 0.0
O856 O 0.44663 0.57049 0.03986 0.0
C857 C 0.42423 0.55625 0.42759 0.0
C858 C 0.41415 0.53836 0.46593 0.0
C859 C 0.42085 0.54942 0.48966 0.0
N860 N 0.41988 0.54954 0.37013 0.0
N861 N 0.41389 0.53881 0.3929 0.0
C862 C 0.43056 0.56949 0.42186 0.0
H863 H 0.4278 0.57434 0.37034 0.0
H864 H 0.42768 0.57584 0.46802 0.0
H865 H 0.44138 0.5683 0.4221 0.0
C866 C 0.40515 0.58705 0.19406 0.0
N867 N 0.4137 0.57702 0.19657 0.0
N868 N 0.41145 0.56992 0.25477 0.0
C869 C 0.40105 0.57499 0.29009 0.0
C870 C 0.39682 0.58602 0.25303 0.0
C871 C 0.40501 0.59725 0.13584 0.0
H872 H 0.40252 0.59252 0.08348 0.0
H873 H 0.41496 0.60154 0.13024 0.0
H874 H 0.39778 0.60511 0.14746 0.0
O875 O 0.42494 0.55278 0.10834 0.0
O876 O 0.41895 0.54129 0.20498 0.0
H877 H 0.3953 0.55868 0.35644 0.0
H878 H 0.38534 0.57321 0.36833 0.0
C879 C 0.39543 0.56955 0.35873 0.0
H880 H 0.40164 0.57263 0.40498 0.0
H881 H 0.40958 0.53187 0.35881 0.0
O882 O 0.42716 0.58022 0.04023 0.0
C883 C 0.42122 0.54208 0.13742 0.0
Co884 Co 0.18104 0.67625 0.90179 0.0
Co885 Co 0.19644 0.67525 0.04984 0.0
C886 C 0.18563 0.70033 0.99035 0.0
O887 O 0.18135 0.69475 0.93348 0.0
O888 O 0.19146 0.694 0.04027 0.0
C889 C 0.16214 0.6745 0.76008 0.0
O890 O 0.14952 0.67663 0.76795 0.0
C891 C 0.19712 0.67703 0.20641 0.0
C892 C 0.21278 0.66313 0.23678 0.0
C893 C 0.20303 0.67107 0.26526 0.0
N894 N 0.20302 0.6728 0.14574 0.0
N895 N 0.21262 0.66474 0.16426 0.0
C896 C 0.1849 0.68518 0.20694 0.0
H897 H 0.17909 0.68338 0.15713 0.0
H898 H 0.17883 0.68308 0.25547 0.0
H899 H 0.1877 0.69571 0.20793 0.0
C900 C 0.16488 0.65657 0.97665 0.0
N901 N 0.17489 0.66515 0.97561 0.0
N902 N 0.18165 0.66407 0.03612 0.0
C903 C 0.17623 0.6545 0.0769 0.0
C904 C 0.16544 0.64959 0.04066 0.0
C905 C 0.15541 0.65463 0.91579 0.0
H906 H 0.16085 0.65163 0.86648 0.0
H907 H 0.15041 0.66406 0.90413 0.0
H908 H 0.14797 0.64703 0.92888 0.0
O909 O 0.19888 0.6708 0.87368 0.0
O910 O 0.21027 0.6712 0.97687 0.0
H911 H 0.19218 0.64856 0.14497 0.0
H912 H 0.17695 0.64024 0.16383 0.0
C913 C 0.18141 0.64975 0.14809 0.0
H914 H 0.17903 0.65702 0.1907 0.0
H915 H 0.21845 0.65966 0.12725 0.0
O916 O 0.16957 0.67518 0.81526 0.0
C917 C 0.20957 0.66945 0.90852 0.0
Co918 Co 0.07151 0.43161 0.65675 0.0
Co919 Co 0.07272 0.44646 0.80468 0.0
C920 C 0.04788 0.43436 0.75055 0.0
O921 O 0.05355 0.42932 0.69599 0.0
O922 O 0.05408 0.44155 0.79498 0.0
C923 C 0.0623 0.42096 0.52609 0.0
O924 O 0.051 0.4215 0.55991 0.0
C925 C 0.06875 0.44773 0.95895 0.0
C926 C 0.08181 0.46381 0.99429 0.0
C927 C 0.07304 0.45446 0.01978 0.0
N928 N 0.07467 0.45285 0.90057 0.0
N929 N 0.08234 0.46258 0.92165 0.0
C930 C 0.06054 0.43553 0.95634 0.0
H931 H 0.06285 0.4297 0.90723 0.0
H932 H 0.06225 0.42932 0.00481 0.0
H933 H 0.05002 0.4383 0.95441 0.0
C934 C 0.09388 0.41732 0.72013 0.0
N935 N 0.08419 0.42623 0.72401 0.0
N936 N 0.08436 0.43191 0.78798 0.0
C937 C 0.09393 0.42639 0.82819 0.0
C938 C 0.10039 0.417 0.78632 0.0
C939 C 0.09738 0.41015 0.65204 0.0
H940 H 0.09598 0.41667 0.60459 0.0
H941 H 0.09078 0.40156 0.64571 0.0
H942 H 0.10771 0.40674 0.65294 0.0
O943 O 0.07482 0.45013 0.63165 0.0
O944 O 0.07622 0.46101 0.73574 0.0
H945 H 0.10033 0.43956 0.91136 0.0
H946 H 0.10282 0.4224 0.93333 0.0
C947 C 0.09623 0.42952 0.90649 0.0
H948 H 0.08682 0.4292 0.93588 0.0
H949 H 0.08818 0.46813 0.88678 0.0
O950 O 0.07276 0.42257 0.56228 0.0
C951 C 0.07662 0.46069 0.66684 0.0
Co952 Co 0.31576 0.67644 0.58331 0.0
Co953 Co 0.29944 0.67602 0.44008 0.0
C954 C 0.31117 0.7009 0.50535 0.0
O955 O 0.31723 0.695 0.55589 0.0
O956 O 0.3039 0.69473 0.46083 0.0
C957 C 0.32894 0.68184 0.7166 0.0
O958 O 0.32924 0.69396 0.6925 0.0
C959 C 0.30231 0.67867 0.28635 0.0
C960 C 0.28484 0.66889 0.24092 0.0
C961 C 0.29677 0.67446 0.22198 0.0
N962 N 0.2943 0.67535 0.34103 0.0
N963 N 0.28373 0.66971 0.31365 0.0
C964 C 0.31523 0.68546 0.29647 0.0
H965 H 0.3146 0.69271 0.34084 0.0
H966 H 0.32281 0.67814 0.31148 0.0
H967 H 0.31832 0.69057 0.24622 0.0
C968 C 0.3317 0.65727 0.50366 0.0
N969 N 0.32155 0.66562 0.50867 0.0
N970 N 0.31407 0.66448 0.45107 0.0
C971 C 0.31895 0.65486 0.40878 0.0
C972 C 0.3304 0.65015 0.44001 0.0
C973 C 0.34255 0.65652 0.55808 0.0
H974 H 0.34417 0.66629 0.58304 0.0
H975 H 0.35179 0.65308 0.53265 0.0
H976 H 0.33973 0.64954 0.60152 0.0
O977 O 0.29728 0.67196 0.60691 0.0
O978 O 0.28521 0.67092 0.50664 0.0
H979 H 0.31439 0.63855 0.33869 0.0
H980 H 0.3152 0.65423 0.2948 0.0
C981 C 0.312 0.64912 0.34472 0.0
H982 H 0.30125 0.6502 0.35088 0.0
H983 H 0.2761 0.66584 0.34469 0.0
O984 O 0.32502 0.67278 0.67463 0.0
C985 C 0.28638 0.66989 0.57512 0.0
Co986 Co 0.07234 0.56823 0.33699 0.0
Co987 Co 0.0746 0.55131 0.19655 0.0
C988 C 0.04948 0.56488 0.24247 0.0
O989 O 0.05482 0.57085 0.29507 0.0
O990 O 0.0559 0.55683 0.20357 0.0
C991 C 0.06339 0.57677 0.46887 0.0
O992 O 0.05226 0.57421 0.43615 0.0
C993 C 0.07249 0.55226 0.0427 0.0
C994 C 0.08119 0.53372 0.00378 0.0
C995 C 0.07532 0.54525 0.98027 0.0
N996 N 0.07639 0.5452 0.10004 0.0
N997 N 0.08153 0.53407 0.07683 0.0
C998 C 0.06721 0.56595 0.04877 0.0
H999 H 0.07014 0.57046 0.10092 0.0
H1000 H 0.07078 0.57215 0.00342 0.0
H1001 H 0.05634 0.56562 0.04717 0.0
C1002 C 0.09403 0.58268 0.26846 0.0
N1003 N 0.08519 0.57292 0.26998 0.0
N1004 N 0.08664 0.56546 0.21242 0.0
C1005 C 0.0968 0.57005 0.17323 0.0
C1006 C 0.10174 0.58118 0.20704 0.0
C1007 C 0.09447 0.59358 0.3227 0.0
H1008 H 0.08455 0.59534 0.34535 0.0
H1009 H 0.09822 0.60276 0.29783 0.0
H1010 H 0.10108 0.59074 0.36775 0.0
O1011 O 0.0751 0.54963 0.36555 0.0
O1012 O 0.07751 0.53717 0.26763 0.0
H1013 H 0.11273 0.56597 0.09948 0.0
H1014 H 0.09671 0.56672 0.0589 0.0
C1015 C 0.10224 0.56344 0.10733 0.0
H1016 H 0.10128 0.55265 0.11243 0.0
H1017 H 0.0854 0.52683 0.11061 0.0
O1018 O 0.07379 0.57736 0.43113 0.0
C1019 C 0.07717 0.53853 0.33617 0.0
Co1020 Co 0.17955 0.32192 0.09751 0.0
Co1021 Co 0.19446 0.32239 0.9509 0.0
C1022 C 0.18109 0.29815 0.00958 0.0
O1023 O 0.1755 0.30413 0.0614 0.0
O1024 O 0.18908 0.30393 0.9675 0.0
C1025 C 0.16658 0.31567 0.2303 0.0
O1026 O 0.16575 0.30376 0.20338 0.0
C1027 C 0.19488 0.31712 0.79746 0.0
C1028 C 0.20853 0.33203 0.75458 0.0
C1029 C 0.19963 0.32247 0.73382 0.0
N1030 N 0.20041 0.32345 0.8534 0.0
N1031 N 0.20887 0.33211 0.82762 0.0
C1032 C 0.18433 0.30698 0.80535 0.0
H1033 H 0.17643 0.31077 0.84095 0.0
H1034 H 0.18019 0.30398 0.75238 0.0
H1035 H 0.18855 0.29814 0.83157 0.0
C1036 C 0.16663 0.3451 0.0339 0.0
N1037 N 0.17502 0.33494 0.03025 0.0
N1038 N 0.18034 0.33449 0.96553 0.0
C1039 C 0.17495 0.34401 0.92432 0.0
C1040 C 0.16613 0.35117 0.96642 0.0
C1041 C 0.16017 0.34943 0.10273 0.0
H1042 H 0.16709 0.34832 0.14863 0.0
H1043 H 0.15152 0.34312 0.11343 0.0
H1044 H 0.15705 0.35985 0.09991 0.0
O1045 O 0.19834 0.32306 0.12133 0.0
O1046 O 0.20911 0.32648 0.01821 0.0
H1047 H 0.18694 0.35015 0.83542 0.0
H1048 H 0.16949 0.35099 0.81716 0.0
C1049 C 0.17732 0.34536 0.84471 0.0
H1050 H 0.17748 0.33553 0.82011 0.0
H1051 H 0.21418 0.33866 0.85965 0.0
O1052 O 0.17083 0.32489 0.19054 0.0
C1053 C 0.20887 0.32547 0.08696 0.0
Co1054 Co 0.42592 0.42942 0.8576 0.0
Co1055 Co 0.42449 0.44449 0.71112 0.0
C1056 C 0.44937 0.43215 0.76621 0.0
O1057 O 0.44362 0.42629 0.81785 0.0
O1058 O 0.44324 0.43996 0.72465 0.0
C1059 C 0.43493 0.41816 0.98773 0.0
O1060 O 0.44612 0.41798 0.95268 0.0
C1061 C 0.42919 0.44492 0.55769 0.0
C1062 C 0.41698 0.46131 0.51794 0.0
C1063 C 0.42546 0.45148 0.4951 0.0
N1064 N 0.42318 0.45056 0.6143 0.0
N1065 N 0.41604 0.46048 0.59062 0.0
C1066 C 0.4369 0.43243 0.56387 0.0
H1067 H 0.43434 0.42715 0.6145 0.0
H1068 H 0.43494 0.42587 0.51715 0.0
H1069 H 0.44752 0.43479 0.56529 0.0
C1070 C 0.40305 0.4156 0.7949 0.0
N1071 N 0.41291 0.42433 0.79112 0.0
N1072 N 0.41288 0.42998 0.72704 0.0
C1073 C 0.40322 0.42464 0.68672 0.0
C1074 C 0.39654 0.4154 0.7286 0.0
C1075 C 0.39944 0.40842 0.86281 0.0
H1076 H 0.40113 0.4148 0.91053 0.0
H1077 H 0.40576 0.39962 0.86832 0.0
H1078 H 0.389 0.40534 0.86216 0.0
O1079 O 0.42383 0.44826 0.88131 0.0
O1080 O 0.42025 0.45896 0.77843 0.0
H1081 H 0.39718 0.43794 0.60321 0.0
H1082 H 0.39437 0.42082 0.58115 0.0
C1083 C 0.40106 0.42781 0.60831 0.0
H1084 H 0.41047 0.42727 0.57917 0.0
H1085 H 0.41026 0.46644 0.62372 0.0
O1086 O 0.42448 0.42068 0.95302 0.0
C1087 C 0.42119 0.45879 0.84721 0.0
C1088 C 0.1904 0.27588 0.01686 0.0
C1089 C 0.17958 0.28391 0.00318 0.0
C1090 C 0.18928 0.2622 0.01355 0.0
C1091 C 0.17714 0.25649 0.99377 0.0
C1092 C 0.16624 0.26463 0.97798 0.0
C1093 C 0.16754 0.27832 0.9841 0.0
C1094 C 0.20105 0.25387 0.03261 0.0
C1095 C 0.15327 0.25889 0.95474 0.0
C1096 C 0.18081 0.22114 0.93352 0.0
C1097 C 0.17791 0.21436 -0.00232 0.0
C1098 C 0.17978 0.23486 0.92987 0.0
C1099 C 0.1759 0.24197 0.99216 0.0
C1100 C 0.17226 0.23514 0.0558 0.0
C1101 C 0.17322 0.22142 0.05759 0.0
C1102 C 0.18349 0.24179 0.86052 0.0
C1103 C 0.16819 0.24235 0.12364 0.0
H1104 H 0.19967 0.28033 0.03189 0.0
H1105 H 0.15924 0.28466 0.97308 0.0
H1106 H 0.1986 0.24728 0.07854 0.0
H1107 H 0.20376 0.24756 0.986 0.0
H1108 H 0.20971 0.25988 0.04788 0.0
H1109 H 0.14597 0.26659 0.94103 0.0
H1110 H 0.15469 0.25247 0.90679 0.0
H1111 H 0.14921 0.25267 -0.00134 0.0
H1112 H 0.1842 0.21579 0.88657 0.0
H1113 H 0.17088 0.2163 0.10735 0.0
H1114 H 0.19294 0.247 0.86808 0.0
H1115 H 0.17601 0.24926 0.84626 0.0
H1116 H 0.18456 0.23485 0.81447 0.0
H1117 H 0.17672 0.24781 0.14567 0.0
H1118 H 0.1645 0.23559 0.16624 0.0
H1119 H 0.16045 0.24965 0.11127 0.0
C1120 C 0.02708 0.91638 0.26228 0.0
C1121 C 0.03317 0.92862 0.26923 0.0
C1122 C 0.01335 0.91544 0.25854 0.0
C1123 C 0.00566 0.92696 0.265 0.0
C1124 C 0.01186 0.93931 0.27315 0.0
C1125 C 0.02556 0.94 0.27374 0.0
C1126 C 0.00707 0.90218 0.2473 0.0
C1127 C 0.00402 0.95178 0.28244 0.0
C1128 C 0.97057 0.93005 0.20034 0.0
C1129 C 0.9636 0.92896 0.26558 0.0
C1130 C 0.98424 0.92862 0.19864 0.0
C1131 C 0.99112 0.92628 0.26395 0.0
C1132 C 0.9841 0.92464 0.3295 0.0
C1133 C 0.9704 0.9259 0.32942 0.0
C1134 C 0.99136 0.93017 0.12743 0.0
C1135 C 0.9911 0.92233 0.40046 0.0
H1136 H 0.03307 0.90761 0.25854 0.0
H1137 H 0.03037 0.94943 0.27988 0.0
H1138 H 0.0007 0.89974 0.29408 0.0
H1139 H 0.00072 0.90242 0.19849 0.0
H1140 H 0.01445 0.89426 0.24062 0.0
H1141 H 0.01038 0.96051 0.29069 0.0
H1142 H 0.99782 0.9535 0.23402 0.0
H1143 H 0.99736 0.95084 0.32971 0.0
H1144 H 0.96536 0.93225 0.15065 0.0
H1145 H 0.96509 0.92506 0.38006 0.0
H1146 H 0.99849 0.92206 0.11974 0.0
H1147 H 0.99699 0.93949 0.12761 0.0
H1148 H 0.98452 0.93033 0.08059 0.0
H1149 H 0.99808 0.91404 0.39551 0.0
H1150 H 0.98418 0.92019 0.44543 0.0
H1151 H 0.99688 0.93118 0.41486 0.0
C1152 C 0.31518 0.77864 0.44078 0.0
C1153 C 0.31267 0.78503 0.50646 0.0
C1154 C 0.31587 0.7649 0.43744 0.0
C1155 C 0.31362 0.75744 0.50095 0.0
C1156 C 0.31117 0.76389 0.56753 0.0
C1157 C 0.31092 0.77763 0.56965 0.0
C1158 C 0.31892 0.75837 0.36599 0.0
C1159 C 0.3084 0.75627 0.63607 0.0
C1160 C 0.30105 0.72263 0.48044 0.0
C1161 C 0.31209 0.71529 0.50012 0.0
C1162 C 0.30143 0.73638 0.48019 0.0
C1163 C 0.31329 0.74289 0.49755 0.0
C1164 C 0.32463 0.73549 0.51466 0.0
C1165 C 0.32382 0.72174 0.51711 0.0
C1166 C 0.28904 0.74393 0.46378 0.0
C1167 C 0.33755 0.74208 0.53107 0.0
H1168 H 0.31678 0.78439 0.39224 0.0
H1169 H 0.30892 0.7826 0.6204 0.0
H1170 H 0.32733 0.75156 0.37236 0.0
H1171 H 0.3104 0.75244 0.34801 0.0
H1172 H 0.3213 0.7656 0.32288 0.0
H1173 H 0.30671 0.76279 0.68337 0.0
H1174 H 0.29961 0.75002 0.6283 0.0
H1175 H 0.31673 0.74966 0.64869 0.0
H1176 H 0.29195 0.71761 0.4679 0.0
H1177 H 0.33239 0.71603 0.53175 0.0
H1178 H 0.29063 0.7506 0.4171 0.0
H1179 H 0.28639 0.75014 0.51096 0.0
H1180 H 0.28064 0.73737 0.45121 0.0
H1181 H 0.34012 0.74905 0.48708 0.0
H1182 H 0.34567 0.7349 0.53732 0.0
H1183 H 0.33673 0.74785 0.58181 0.0
C1184 C 0.47176 0.07709 0.75348 0.0
C1185 C 0.46529 0.06504 0.74652 0.0
C1186 C 0.48547 0.07783 0.74898 0.0
C1187 C 0.49284 0.06616 0.74036 0.0
C1188 C 0.48631 0.05398 0.73223 0.0
C1189 C 0.47257 0.05361 0.73406 0.0
C1190 C 0.49208 0.09104 0.75527 0.0
C1191 C 0.49382 0.04127 0.72541 0.0
C1192 C 0.52893 0.06666 0.68897 0.0
C1193 C 0.53491 0.06608 0.75721 0.0
C1194 C 0.51522 0.06714 0.68253 0.0
C1195 C 0.50737 0.06651 0.74575 0.0
C1196 C 0.5134 0.06585 0.81474 0.0
C1197 C 0.5271 0.06588 0.81963 0.0
C1198 C 0.50913 0.0683 0.60827 0.0
C1199 C 0.50539 0.06475 0.88334 0.0
H1200 H 0.46608 0.08594 0.76249 0.0
H1201 H 0.46753 0.04428 0.72928 0.0
H1202 H 0.49748 0.09164 0.8073 0.0
H1203 H 0.49935 0.09232 0.71109 0.0
H1204 H 0.48494 0.09926 0.75301 0.0
H1205 H 0.48725 0.0327 0.71714 0.0
H1206 H 0.5008 0.04179 0.67945 0.0
H1207 H 0.49967 0.0396 0.77526 0.0
H1208 H 0.53499 0.06688 0.64076 0.0
H1209 H 0.53173 0.06526 0.87241 0.0
H1210 H 0.50232 0.07679 0.60671 0.0
H1211 H 0.50328 0.05939 0.59614 0.0
H1212 H 0.51661 0.06955 0.56507 0.0
H1213 H 0.49889 0.07341 0.88903 0.0
H1214 H 0.51163 0.06404 0.93253 0.0
H1215 H 0.49902 0.05594 0.88065 0.0
C1216 C 0.17576 0.72065 0.04126 0.0
C1217 C 0.18485 0.71464 -0.00472 0.0
C1218 C 0.17476 0.73439 0.04399 0.0
C1219 C 0.18327 0.74215 0.00094 0.0
C1220 C 0.19263 0.73601 0.95549 0.0
C1221 C 0.19319 0.72228 0.9526 0.0
C1222 C 0.16451 0.74061 0.09197 0.0
C1223 C 0.20206 0.74393 0.90992 0.0
C1224 C 0.17541 0.77713 0.94637 0.0
C1225 C 0.18341 0.78431 0.99375 0.0
C1226 C 0.17479 0.76339 0.95036 0.0
C1227 C 0.18244 0.75669 0.00255 0.0
C1228 C 0.19014 0.7639 0.05233 0.0
C1229 C 0.19048 0.77763 0.04756 0.0
C1230 C 0.16631 0.75603 0.897 0.0
C1231 C 0.19851 0.7571 0.10842 0.0
H1232 H 0.16932 0.7146 0.07395 0.0
H1233 H 0.20022 0.71749 0.91735 0.0
H1234 H 0.16925 0.74724 0.13176 0.0
H1235 H 0.15778 0.74668 0.05874 0.0
H1236 H 0.15864 0.73319 0.12185 0.0
H1237 H 0.20901 0.73762 0.87936 0.0
H1238 H 0.19654 0.75005 0.87072 0.0
H1239 H 0.20778 0.75068 0.94492 0.0
H1240 H 0.16979 0.7822 0.90516 0.0
H1241 H 0.19665 0.78309 0.08469 0.0
H1242 H 0.15996 0.7489 0.92582 0.0
H1243 H 0.17262 0.75037 0.85932 0.0
H1244 H 0.16001 0.76271 0.86459 0.0
H1245 H 0.19256 0.75 0.13991 0.0
H1246 H 0.20313 0.76414 0.14666 0.0
H1247 H 0.20639 0.75146 0.08099 0.0
C1248 C 0.52812 0.92118 0.24068 0.0
C1249 C 0.53473 0.93286 0.25716 0.0
C1250 C 0.5144 0.92047 0.2448 0.0
C1251 C 0.50716 0.93186 0.26304 0.0
C1252 C 0.51383 0.94357 0.28169 0.0
C1253 C 0.52757 0.94385 0.27973 0.0
C1254 C 0.50765 0.90768 0.22718 0.0
C1255 C 0.50647 0.95603 0.2993 0.0
C1256 C 0.47325 0.93487 0.18097 0.0
C1257 C 0.46521 0.9331 0.24158 0.0
C1258 C 0.48693 0.93458 0.18749 0.0
C1259 C 0.49266 0.93192 0.25583 0.0
C1260 C 0.48454 0.92971 0.31688 0.0
C1261 C 0.47087 0.93061 0.30931 0.0
C1262 C 0.49524 0.93743 0.12158 0.0
C1263 C 0.49029 0.92636 0.38992 0.0
H1264 H 0.53369 0.91263 0.22395 0.0
H1265 H 0.53268 0.95291 0.29209 0.0
H1266 H 0.50011 0.9054 0.26869 0.0
H1267 H 0.50255 0.90853 0.17432 0.0
H1268 H 0.51467 0.89937 0.22404 0.0
H1269 H 0.51312 0.96409 0.3164 0.0
H1270 H 0.50091 0.95931 0.25087 0.0
H1271 H 0.49924 0.95425 0.34307 0.0
H1272 H 0.46883 0.93693 0.12875 0.0
H1273 H 0.46459 0.92915 0.356 0.0
H1274 H 0.50156 0.92888 0.10901 0.0
H1275 H 0.50181 0.94588 0.13263 0.0
H1276 H 0.48923 0.93972 0.07303 0.0
H1277 H 0.49689 0.91774 0.38497 0.0
H1278 H 0.48261 0.92413 0.43078 0.0
H1279 H 0.49631 0.93466 0.41004 0.0
C1280 C 0.30787 0.22089 0.54431 0.0
C1281 C 0.31768 0.21398 0.50732 0.0
C1282 C 0.30823 0.23464 0.54891 0.0
C1283 C 0.3188 0.24156 0.517 0.0
C1284 C 0.32921 0.23455 0.48435 0.0
C1285 C 0.32846 0.22084 0.47921 0.0
C1286 C 0.29685 0.24177 0.58331 0.0
C1287 C 0.34082 0.24155 0.45142 0.0
C1288 C 0.31252 0.27532 0.43844 0.0
C1289 C 0.31701 0.28349 0.4939 0.0
C1290 C 0.31281 0.26165 0.4462 0.0
C1291 C 0.31822 0.25607 0.50982 0.0
C1292 C 0.32309 0.26434 0.56537 0.0
C1293 C 0.32214 0.27802 0.55741 0.0
C1294 C 0.30711 0.2532 0.38679 0.0
C1295 C 0.32935 0.25874 0.63267 0.0
H1296 H 0.29952 0.21564 0.56624 0.0
H1297 H 0.33618 0.21553 0.45148 0.0
H1298 H 0.30038 0.24933 0.62181 0.0
H1299 H 0.29115 0.24691 0.54063 0.0
H1300 H 0.29016 0.23498 0.61258 0.0
H1301 H 0.3489 0.23468 0.43754 0.0
H1302 H 0.33773 0.24667 0.40121 0.0
H1303 H 0.34465 0.24911 0.48923 0.0
H1304 H 0.30838 0.27966 0.3899 0.0
H1305 H 0.32557 0.28445 0.60021 0.0
H1306 H 0.29944 0.24664 0.40941 0.0
H1307 H 0.31486 0.24686 0.36332 0.0
H1308 H 0.3027 0.25912 0.34251 0.0
H1309 H 0.32221 0.25254 0.66236 0.0
H1310 H 0.33298 0.26652 0.66977 0.0
H1311 H 0.33771 0.25233 0.61742 0.0
C1312 C 0.97102 0.07744 0.72217 0.0
C1313 C 0.96483 0.06601 0.74699 0.0
C1314 C 0.9847 0.0787 0.72488 0.0
C1315 C 0.99236 0.06811 0.75082 0.0
C1316 C 0.98612 0.05669 0.77775 0.0
C1317 C 0.9724 0.05586 0.77651 0.0
C1318 C 0.99099 0.0912 0.69795 0.0
C1319 C 0.99395 0.04505 0.80422 0.0
C1320 C 0.02657 0.0643 0.67375 0.0
C1321 C 0.03436 0.06769 0.73324 0.0
C1322 C 0.01287 0.06443 0.67884 0.0
C1323 C 0.00686 0.06851 0.74423 0.0
C1324 C 0.01472 0.07252 0.80348 0.0
C1325 C 0.02843 0.07182 0.7977 0.0
C1326 C 0.00485 0.05971 0.61517 0.0
C1327 C 0.00866 0.07738 0.87308 0.0
H1328 H 0.96516 0.08536 0.70007 0.0
H1329 H 0.96762 0.04699 0.79547 0.0
H1330 H 0.99828 0.09484 0.73784 0.0
H1331 H 0.99631 0.08925 0.64668 0.0
H1332 H 0.98365 0.09905 0.68787 0.0
H1333 H 0.98761 0.03716 0.82647 0.0
H1334 H -0.00022 0.04095 0.75876 0.0
H1335 H 0.00098 0.04813 0.84678 0.0
H1336 H 0.03123 0.06097 0.62423 0.0
H1337 H 0.03452 0.07455 0.84338 0.0
H1338 H 0.99804 0.06753 0.59704 0.0
H1339 H 0.99878 0.05117 0.63169 0.0
H1340 H 0.01106 0.05675 0.56852 0.0
H1341 H 0.00158 0.08537 0.86144 0.0
H1342 H 0.01614 0.08107 0.9118 0.0
H1343 H 0.00312 0.06933 0.89949 0.0
C1344 C 0.80518 0.72108 0.0338 0.0
C1345 C 0.81591 0.71391 0.0078 0.0
C1346 C 0.8056 0.73484 0.03681 0.0
C1347 C 0.81716 0.74148 0.01524 0.0
C1348 C 0.82835 0.7342 0.99421 0.0
C1349 C 0.82752 0.7205 0.98965 0.0
C1350 C 0.79338 0.74226 0.05808 0.0
C1351 C 0.84099 0.74091 0.97311 0.0
C1352 C 0.81402 0.77514 0.92988 0.0
C1353 C 0.81661 0.78338 0.9887 0.0
C1354 C 0.81397 0.76148 0.93832 0.0
C1355 C 0.8171 0.75597 0.00664 0.0
C1356 C 0.82013 0.76428 0.06578 0.0
C1357 C 0.81958 0.77795 0.05643 0.0
C1358 C 0.81029 0.75297 0.87449 0.0
C1359 C 0.82397 0.75875 0.1386 0.0
H1360 H 0.79618 0.716 0.04769 0.0
H1361 H 0.83589 0.71494 0.97044 0.0
H1362 H 0.79567 0.74981 0.09943 0.0
H1363 H 0.78941 0.74745 0.00997 0.0
H1364 H 0.78564 0.73567 0.07979 0.0
H1365 H 0.84925 0.73386 0.96834 0.0
H1366 H 0.83972 0.7459 0.92017 0.0
H1367 H 0.84362 0.74853 0.01352 0.0
H1368 H 0.81154 0.77941 0.87782 0.0
H1369 H 0.82163 0.7844 0.10173 0.0
H1370 H 0.80189 0.74656 0.88903 0.0
H1371 H 0.81861 0.74647 0.85992 0.0
H1372 H 0.80758 0.75884 0.82605 0.0
H1373 H 0.81584 0.75278 0.16103 0.0
H1374 H 0.82648 0.76656 0.17823 0.0
H1375 H 0.83255 0.75214 0.13239 0.0
C1376 C 0.68552 0.27764 0.41783 0.0
C1377 C 0.685 0.28516 0.48131 0.0
C1378 C 0.68478 0.2639 0.42063 0.0
C1379 C 0.68319 0.25758 0.48841 0.0
C1380 C 0.68213 0.26516 0.55235 0.0
C1381 C 0.68317 0.27886 0.54806 0.0
C1382 C 0.68617 0.25614 0.35136 0.0
C1383 C 0.6801 0.25879 0.62535 0.0
C1384 C 0.67207 0.22204 0.48018 0.0
C1385 C 0.68391 0.21539 0.49138 0.0
C1386 C 0.67156 0.2358 0.48212 0.0
C1387 C 0.68328 0.24302 0.49258 0.0
C1388 C 0.69525 0.23631 0.5044 0.0
C1389 C 0.69537 0.22255 0.50497 0.0
C1390 C 0.65855 0.24262 0.47189 0.0
C1391 C 0.70801 0.24364 0.51371 0.0
H1392 H 0.68696 0.28248 0.36612 0.0
H1393 H 0.68247 0.28466 0.59701 0.0
H1394 H 0.69499 0.24979 0.35455 0.0
H1395 H 0.67758 0.2496 0.3439 0.0
H1396 H 0.68706 0.26256 0.30297 0.0
H1397 H 0.67855 0.26612 0.66907 0.0
H1398 H 0.67149 0.25213 0.62349 0.0
H1399 H 0.68876 0.25272 0.63945 0.0
H1400 H 0.6632 0.21645 0.47001 0.0
H1401 H 0.70456 0.21739 0.51277 0.0
H1402 H 0.65862 0.24823 0.42042 0.0
H1403 H 0.65688 0.24975 0.51636 0.0
H1404 H 0.65023 0.23559 0.47054 0.0
H1405 H 0.71 0.24965 0.46474 0.0
H1406 H 0.71645 0.23694 0.52266 0.0
H1407 H 0.70734 0.25048 0.56029 0.0
C1408 C 0.82326 0.22202 0.04657 0.0
C1409 C 0.81721 0.21462 0.99185 0.0
C1410 C 0.82334 0.23576 0.04407 0.0
C1411 C 0.81734 0.24227 0.98506 0.0
C1412 C 0.8118 0.23488 0.92784 0.0
C1413 C 0.81175 0.22113 0.93203 0.0
C1414 C 0.8293 0.24331 0.10633 0.0
C1415 C 0.80546 0.24151 0.8636 0.0
C1416 C 0.80396 0.27628 0.02318 0.0
C1417 C 0.81402 0.28422 -0.00355 0.0
C1418 C 0.80486 0.26258 0.01895 0.0
C1419 C 0.81603 0.25679 0.98625 0.0
C1420 C 0.82608 0.26486 0.95765 0.0
C1421 C 0.825 0.27856 0.96365 0.0
C1422 C 0.79401 0.2543 0.05081 0.0
C1423 C 0.83802 0.25904 0.92161 0.0
H1424 H 0.82754 0.2171 0.09296 0.0
H1425 H 0.80714 0.21549 0.88922 0.0
H1426 H 0.83648 0.2506 0.08588 0.0
H1427 H 0.82151 0.24881 0.13522 0.0
H1428 H 0.83432 0.23678 0.14579 0.0
H1429 H 0.80277 0.2344 0.82045 0.0
H1430 H 0.79645 0.24668 0.88136 0.0
H1431 H 0.81215 0.24898 0.84032 0.0
H1432 H 0.7955 0.28081 0.04851 0.0
H1433 H 0.8327 0.28485 0.9428 0.0
H1434 H 0.79798 0.24804 0.09485 0.0
H1435 H 0.78994 0.24766 0.00888 0.0
H1436 H 0.78591 0.26035 0.07318 0.0
H1437 H 0.84365 0.25313 0.9614 0.0
H1438 H 0.8446 0.26668 0.89878 0.0
H1439 H 0.835 0.25232 0.87738 0.0
C1440 C 0.69112 0.72125 0.46189 0.0
C1441 C 0.68037 0.71363 0.48322 0.0
C1442 C 0.69029 0.73499 0.46053 0.0
C1443 C 0.67829 0.74117 0.47846 0.0
C1444 C 0.66715 0.73344 0.49519 0.0
C1445 C 0.6684 0.71974 0.4988 0.0
C1446 C 0.70249 0.74288 0.44424 0.0
C1447 C 0.65406 0.73966 0.51179 0.0
C1448 C 0.68071 0.7752 0.5602 0.0
C1449 C 0.6792 0.78317 0.49904 0.0
C1450 C 0.68023 0.76149 0.55432 0.0
C1451 C 0.67776 0.75568 0.48598 0.0
C1452 C 0.67552 0.76373 0.42473 0.0
C1453 C 0.67647 0.77742 0.4318 0.0
C1454 C 0.68299 0.75324 0.62061 0.0
C1455 C 0.6724 0.7579 0.35157 0.0
H1456 H 0.70041 0.71652 0.45026 0.0
H1457 H 0.66004 0.71381 0.51461 0.0
H1458 H 0.70057 0.75 0.40012 0.0
H1459 H 0.70534 0.7486 0.49292 0.0
H1460 H 0.71088 0.73657 0.42818 0.0
H1461 H 0.64603 0.7323 0.51387 0.0
H1462 H 0.65453 0.74473 0.56488 0.0
H1463 H 0.65161 0.74716 0.47032 0.0
H1464 H 0.68293 0.77967 0.61209 0.0
H1465 H 0.67511 0.78362 0.38475 0.0
H1466 H 0.69185 0.74715 0.61126 0.0
H1467 H 0.67471 0.74645 0.63103 0.0
H1468 H 0.68459 0.75931 0.66982 0.0
H1469 H 0.68104 0.75247 0.33078 0.0
H1470 H 0.66966 0.76552 0.31125 0.0
H1471 H 0.66423 0.75075 0.35637 0.0
C1472 C 0.47126 0.44213 0.74789 0.0
C1473 C 0.46365 0.43087 0.75874 0.0
C1474 C 0.48498 0.44142 0.74757 0.0
C1475 C 0.49117 0.42906 0.75536 0.0
C1476 C 0.48348 0.41757 0.76331 0.0
C1477 C 0.46977 0.41866 0.76654 0.0
C1478 C 0.49283 0.45395 0.74148 0.0
C1479 C 0.48974 0.40419 0.76905 0.0
C1480 C 0.52673 0.42894 0.6956 0.0
C1481 C 0.53326 0.42999 0.76213 0.0
C1482 C 0.51302 0.42791 0.69272 0.0
C1483 C 0.50571 0.42834 0.75783 0.0
C1484 C 0.51229 0.42908 0.82525 0.0
C1485 C 0.52602 0.42971 0.82659 0.0
C1486 C 0.50636 0.42673 0.61997 0.0
C1487 C 0.50482 0.4299 0.89576 0.0
H1488 H 0.46648 0.45159 0.74279 0.0
H1489 H 0.46381 0.40996 0.77467 0.0
H1490 H 0.49919 0.45509 0.78987 0.0
H1491 H 0.49934 0.45354 0.69346 0.0
H1492 H 0.48648 0.46277 0.7368 0.0
H1493 H 0.48236 0.39617 0.76913 0.0
H1494 H 0.49659 0.40263 0.72314 0.0
H1495 H 0.49557 0.40354 0.81961 0.0
H1496 H 0.53234 0.42902 0.64573 0.0
H1497 H 0.53106 0.4306 0.87808 0.0
H1498 H 0.50082 0.43585 0.60816 0.0
H1499 H 0.49921 0.41852 0.62061 0.0
H1500 H 0.51349 0.42507 0.57537 0.0
H1501 H 0.49891 0.43904 0.89672 0.0
H1502 H 0.51142 0.42988 0.94363 0.0
H1503 H 0.4979 0.42155 0.9007 0.0
C1504 C 0.02766 0.55533 0.21441 0.0
C1505 C 0.03527 0.56635 0.2313 0.0
C1506 C 0.01393 0.55604 0.21461 0.0
C1507 C 0.00774 0.56819 0.22941 0.0
C1508 C 0.01543 0.57954 0.24177 0.0
C1509 C 0.02914 0.57843 0.24406 0.0
C1510 C 0.00609 0.54363 0.20353 0.0
C1511 C 0.00919 0.59275 0.25512 0.0
C1512 C 0.97134 0.56971 0.18646 0.0
C1513 C 0.96586 0.56814 0.25547 0.0
C1514 C 0.985 0.57031 0.17731 0.0
C1515 C 0.99328 0.56873 0.2383 0.0
C1516 C 0.98773 0.56715 0.30811 0.0
C1517 C 0.97406 0.56714 0.31597 0.0
C1518 C 0.99057 0.57252 0.10255 0.0
C1519 C 0.9962 0.565 0.37419 0.0
H1520 H 0.03243 0.54596 0.20529 0.0
H1521 H 0.03507 0.58696 0.25669 0.0
H1522 H 0.00059 0.54129 0.25381 0.0
H1523 H 0.99877 0.54501 0.15977 0.0
H1524 H 0.01239 0.53511 0.18959 0.0
H1525 H 0.01649 0.60084 0.25398 0.0
H1526 H 0.00154 0.59475 0.21381 0.0
H1527 H 0.00432 0.59278 0.30882 0.0
H1528 H 0.96494 0.57056 0.13981 0.0
H1529 H 0.96978 0.56579 0.36921 0.0
H1530 H 0.99607 0.56371 0.08473 0.0
H1531 H 0.99759 0.58084 0.10348 0.0
H1532 H 0.98281 0.57464 0.06196 0.0
H1533 H 0.00238 0.55614 0.36645 0.0
H1534 H 0.99031 0.56372 0.42433 0.0
H1535 H 0.00291 0.57344 0.38194 0.0
C1536 C 0.02728 0.42148 0.733 0.0
C1537 C 0.0336 0.43272 0.75922 0.0
C1538 C 0.01357 0.42039 0.7354 0.0
C1539 C 0.00605 0.43101 0.76217 0.0
C1540 C 0.01242 0.44224 0.79046 0.0
C1541 C 0.02615 0.44286 0.78973 0.0
C1542 C 0.00713 0.40808 0.7071 0.0
C1543 C 0.00475 0.45394 0.81749 0.0
C1544 C 0.97219 0.43566 0.682 0.0
C1545 C 0.96413 0.43217 0.74017 0.0
C1546 C 0.98586 0.43535 0.68866 0.0
C1547 C 0.99156 0.43096 0.75429 0.0
C1548 C 0.98341 0.42698 0.81247 0.0
C1549 C 0.96973 0.42788 0.80516 0.0
C1550 C 0.99418 0.44006 0.62615 0.0
C1551 C 0.98915 0.4218 0.88221 0.0
H1552 H 0.03306 0.41357 0.71003 0.0
H1553 H 0.03102 0.4516 0.80965 0.0
H1554 H -0.00037 0.40452 0.74595 0.0
H1555 H 0.00205 0.41024 0.65535 0.0
H1556 H 0.01435 0.4001 0.69737 0.0
H1557 H 0.01118 0.46163 0.84103 0.0
H1558 H -0.00087 0.45831 0.77198 0.0
H1559 H 0.99755 0.45087 0.85916 0.0
H1560 H 0.96777 0.43907 0.63197 0.0
H1561 H 0.96342 0.42502 0.84967 0.0
H1562 H 0.00073 0.43208 0.60736 0.0
H1563 H 0.00053 0.4483 0.64413 0.0
H1564 H 0.98818 0.44345 0.57953 0.0
H1565 H 0.9959 0.41352 0.87056 0.0
H1566 H 0.98146 0.41836 0.92043 0.0
H1567 H 0.99499 0.42956 0.90919 0.0
C1568 C 0.47007 0.55727 0.26749 0.0
C1569 C 0.46308 0.56861 0.2488 0.0
C1570 C 0.48382 0.5573 0.2688 0.0
C1571 C 0.49068 0.56906 0.25334 0.0
C1572 C 0.48363 0.58074 0.23912 0.0
C1573 C 0.46989 0.58032 0.23579 0.0
C1574 C 0.491 0.54457 0.28241 0.0
C1575 C 0.49058 0.59356 0.22478 0.0
C1576 C 0.52683 0.56933 0.30253 0.0
C1577 C 0.53268 0.56706 0.235 0.0
C1578 C 0.51317 0.5705 0.30904 0.0
C1579 C 0.50521 0.5689 0.24688 0.0
C1580 C 0.5111 0.56672 0.17843 0.0
C1581 C 0.52481 0.56604 0.17316 0.0
C1582 C 0.50726 0.57328 0.38242 0.0
C1583 C 0.50293 0.56462 0.11117 0.0
H1584 H 0.4648 0.54818 0.27681 0.0
H1585 H 0.46447 0.58911 0.22172 0.0
H1586 H 0.49656 0.54174 0.23314 0.0
H1587 H 0.4982 0.54578 0.32687 0.0
H1588 H 0.48422 0.53643 0.29668 0.0
H1589 H 0.48369 0.602 0.22336 0.0
H1590 H 0.49809 0.5954 0.26707 0.0
H1591 H 0.49575 0.59305 0.17198 0.0
H1592 H 0.53296 0.57023 0.35024 0.0
H1593 H 0.52934 0.56416 0.12106 0.0
H1594 H 0.50126 0.5648 0.40025 0.0
H1595 H 0.50064 0.5819 0.37912 0.0
H1596 H 0.51486 0.57523 0.4242 0.0
H1597 H 0.49644 0.55599 0.11875 0.0
H1598 H 0.50905 0.56299 0.0622 0.0
H1599 H 0.49654 0.57325 0.10149 0.0
C1600 C 0.17376 0.19325 0.3541 0.0
C1601 C 0.16992 0.18261 0.31082 0.0
C1602 C 0.17786 0.1913 0.42561 0.0
C1603 C 0.17785 0.17846 0.45468 0.0
C1604 C 0.17278 0.16789 0.41363 0.0
C1605 C 0.16891 0.17009 0.34183 0.0
C1606 C 0.18309 0.20283 0.46816 0.0
C1607 C 0.17228 0.15412 0.44376 0.0
C1608 C 0.20315 0.17187 0.6007 0.0
C1609 C 0.1956 0.17347 0.66321 0.0
C1610 C 0.19742 0.17321 0.53194 0.0
C1611 C 0.18383 0.17604 0.52644 0.0
C1612 C 0.17611 0.17716 0.58957 0.0
C1613 C 0.18208 0.17577 0.6572 0.0
C1614 C 0.20591 0.17189 0.46533 0.0
C1615 C 0.16159 0.18005 0.5858 0.0
H1616 H 0.17448 0.20298 0.33074 0.0
H1617 H 0.16578 0.16186 0.30883 0.0
H1618 H 0.17844 0.20328 0.52241 0.0
H1619 H 0.19379 0.20161 0.47659 0.0
H1620 H 0.18139 0.21232 0.44001 0.0
H1621 H 0.16648 0.14741 0.40873 0.0
H1622 H 0.18239 0.15019 0.44836 0.0
H1623 H 0.16795 0.1541 0.49887 0.0
H1624 H 0.21355 0.16985 0.60568 0.0
H1625 H 0.17614 0.17652 0.70562 0.0
H1626 H 0.20601 0.1813 0.43506 0.0
H1627 H 0.20181 0.16431 0.4286 0.0
H1628 H 0.21618 0.16919 0.47884 0.0
H1629 H 0.16 0.18982 0.56085 0.0
H1630 H 0.15689 0.17998 0.6401 0.0
H1631 H 0.1566 0.17272 0.55099 0.0
C1632 C 0.061 0.91442 0.63162 0.0
C1633 C 0.06823 0.92004 0.57517 0.0
C1634 C 0.06239 0.91902 0.70299 0.0
C1635 C 0.07073 0.92986 0.71707 0.0
C1636 C 0.07809 0.93549 0.66003 0.0
C1637 C 0.07695 0.93033 0.59007 0.0
C1638 C 0.05471 0.9125 0.76294 0.0
C1639 C 0.0868 0.94729 0.67217 0.0
C1640 C 0.06325 0.9509 0.88191 0.0
C1641 C 0.07322 0.94703 0.9292 0.0
C1642 C 0.06237 0.94543 0.81225 0.0
C1643 C 0.07146 0.93564 0.79082 0.0
C1644 C 0.08147 0.93165 0.83915 0.0
C1645 C 0.08231 0.93751 0.90762 0.0
C1646 C 0.05173 0.95013 0.76167 0.0
C1647 C 0.09116 0.92106 0.81899 0.0
H1648 H 0.05418 0.90654 0.61976 0.0
H1649 H 0.08234 0.93488 0.54608 0.0
H1650 H 0.06129 0.91004 0.80885 0.0
H1651 H 0.04716 0.91936 0.78374 0.0
H1652 H 0.04976 0.90339 0.74437 0.0
H1653 H 0.09076 0.95132 0.62067 0.0
H1654 H 0.08128 0.95517 0.7003 0.0
H1655 H 0.09516 0.94453 0.70745 0.0
H1656 H 0.05619 0.95819 0.89945 0.0
H1657 H 0.0899 0.93447 0.94509 0.0
H1658 H 0.04469 0.94205 0.75133 0.0
H1659 H 0.056 0.95299 0.70872 0.0
H1660 H 0.04625 0.95863 0.78407 0.0
H1661 H 0.08585 0.91199 0.80312 0.0
H1662 H 0.09796 0.91867 0.86415 0.0
H1663 H 0.09704 0.92421 0.77157 0.0
C1664 C 0.32913 0.83046 0.83183 0.0
C1665 C 0.3292 0.81802 0.79945 0.0
C1666 C 0.32516 0.83205 0.90392 0.0
C1667 C 0.32114 0.82093 0.94402 0.0
C1668 C 0.32229 0.80824 0.9136 0.0
C1669 C 0.32643 0.80692 0.84164 0.0
C1670 C 0.32436 0.84572 0.9352 0.0
C1671 C 0.3182 0.79614 0.95512 0.0
C1672 C 0.31654 0.82372 0.14654 0.0
C1673 C 0.30287 0.82483 0.15228 0.0
C1674 C 0.32263 0.82242 0.07912 0.0
C1675 C 0.31488 0.82261 0.01578 0.0
C1676 C 0.3011 0.82427 0.02091 0.0
C1677 C 0.29524 0.82539 0.08944 0.0
C1678 C 0.33734 0.82075 0.07575 0.0
C1679 C 0.29256 0.82471 0.9541 0.0
H1680 H 0.33141 0.83905 0.7995 0.0
H1681 H 0.32649 0.79727 0.81698 0.0
H1682 H 0.31392 0.84865 0.94005 0.0
H1683 H 0.32867 0.84601 0.99032 0.0
H1684 H 0.32948 0.85305 0.90075 0.0
H1685 H 0.32096 0.78694 0.92657 0.0
H1686 H 0.32273 0.79607 0.00974 0.0
H1687 H 0.30741 0.79621 0.96267 0.0
H1688 H 0.32254 0.82391 0.19496 0.0
H1689 H 0.2847 0.82652 0.094 0.0
H1690 H 0.34175 0.82868 0.04257 0.0
H1691 H 0.33979 0.8113 0.04911 0.0
H1692 H 0.34194 0.82089 0.1303 0.0
H1693 H 0.29591 0.83265 0.91738 0.0
H1694 H 0.28207 0.82639 0.96738 0.0
H1695 H 0.29341 0.81533 0.92394 0.0
C1696 C 0.44004 0.08113 0.10759 0.0
C1697 C 0.43086 0.07759 0.05467 0.0
C1698 C 0.43851 0.07702 0.1797 0.0
C1699 C 0.42775 0.06891 0.19841 0.0
C1700 C 0.41826 0.06565 0.14558 0.0
C1701 C 0.4198 0.07023 0.07464 0.0
C1702 C 0.44873 0.08079 0.23499 0.0
C1703 C 0.40698 0.05654 0.16266 0.0
C1704 C 0.43188 0.04557 0.35726 0.0
C1705 C 0.42472 0.05203 0.41102 0.0
C1706 C 0.43305 0.05099 0.28769 0.0
C1707 C 0.42681 0.06311 0.27194 0.0
C1708 C 0.41937 0.06952 0.32601 0.0
C1709 C 0.41837 0.06386 0.39488 0.0
C1710 C 0.44143 0.04391 0.23274 0.0
C1711 C 0.41259 0.08243 0.31141 0.0
H1712 H 0.44862 0.08675 0.0921 0.0
H1713 H 0.41279 0.06724 0.0337 0.0
H1714 H 0.44398 0.08459 0.28486 0.0
H1715 H 0.45447 0.07198 0.25036 0.0
H1716 H 0.45559 0.08836 0.21402 0.0
H1717 H 0.4002 0.05532 0.11605 0.0
H1718 H 0.41088 0.04674 0.17777 0.0
H1719 H 0.40133 0.06028 0.20964 0.0
H1720 H 0.43686 0.03646 0.37018 0.0
H1721 H 0.41259 0.06869 0.4362 0.0
H1722 H 0.45177 0.04707 0.23963 0.0
H1723 H 0.43849 0.04607 0.17621 0.0
H1724 H 0.44106 0.03312 0.24129 0.0
H1725 H 0.41987 0.08984 0.29338 0.0
H1726 H 0.40741 0.08627 0.35994 0.0
H1727 H 0.40536 0.08125 0.26699 0.0
C1728 C 0.18533 0.80731 0.67453 0.0
C1729 C 0.17316 0.81298 0.69031 0.0
C1730 C 0.19068 0.80812 0.60496 0.0
C1731 C 0.18348 0.81444 0.54961 0.0
C1732 C 0.17089 0.81971 0.56473 0.0
C1733 C 0.16596 0.81914 0.63572 0.0
C1734 C 0.2043 0.80279 0.59181 0.0
C1735 C 0.16282 0.82622 0.50641 0.0
C1736 C 0.20122 0.82946 0.38939 0.0
C1737 C 0.19929 0.81989 0.33591 0.0
C1738 C 0.19645 0.82763 0.45992 0.0
C1739 C 0.18937 0.81607 0.47676 0.0
C1740 C 0.18791 0.80613 0.42399 0.0
C1741 C 0.19319 0.80803 0.35472 0.0
C1742 C 0.19872 0.8382 0.51593 0.0
C1743 C 0.18042 0.79367 0.43999 0.0
H1744 H 0.19095 0.80279 0.71775 0.0
H1745 H 0.15661 0.82361 0.64875 0.0
H1746 H 0.20428 0.7959 0.54534 0.0
H1747 H 0.21102 0.81098 0.57777 0.0
H1748 H 0.2083 0.79762 0.63996 0.0
H1749 H 0.1528 0.82876 0.5255 0.0
H1750 H 0.16776 0.83535 0.48821 0.0
H1751 H 0.16198 0.81967 0.45861 0.0
H1752 H 0.20614 0.83856 0.37561 0.0
H1753 H 0.19233 0.80027 0.31505 0.0
H1754 H 0.20322 0.83392 0.5653 0.0
H1755 H 0.1892 0.84257 0.53219 0.0
H1756 H 0.20518 0.84616 0.49553 0.0
H1757 H 0.18492 0.78844 0.48644 0.0
H1758 H 0.18014 0.78692 0.39278 0.0
H1759 H 0.1702 0.79612 0.45558 0.0
C1760 C 0.44008 0.91588 0.88627 0.0
C1761 C 0.42984 0.9163 0.93676 0.0
C1762 C 0.43781 0.91907 0.81347 0.0
C1763 C 0.42504 0.92276 0.79138 0.0
C1764 C 0.41444 0.92173 0.84032 0.0
C1765 C 0.41696 0.91839 0.91249 0.0
C1766 C 0.44929 0.91965 0.76192 0.0
C1767 C 0.40065 0.92545 0.81874 0.0
C1768 C 0.42428 0.94906 0.64656 0.0
C1769 C 0.42164 0.94162 0.58465 0.0
C1770 C 0.42502 0.94305 0.71475 0.0
C1771 C 0.42314 0.9293 0.72055 0.0
C1772 C 0.41982 0.92187 0.65864 0.0
C1773 C 0.41891 0.92819 0.59154 0.0
C1774 C 0.42819 0.95135 0.78027 0.0
C1775 C 0.41767 0.90723 0.66275 0.0
H1776 H 0.45003 0.91407 0.90439 0.0
H1777 H 0.40893 0.91844 0.95103 0.0
H1778 H 0.4467 0.91513 0.70914 0.0
H1779 H 0.45189 0.93006 0.75153 0.0
H1780 H 0.45806 0.91458 0.78408 0.0
H1781 H 0.39329 0.92178 0.85824 0.0
H1782 H 0.39987 0.9363 0.81623 0.0
H1783 H 0.39818 0.92157 0.76432 0.0
H1784 H 0.42614 0.9595 0.64132 0.0
H1785 H 0.4162 0.92253 0.54424 0.0
H1786 H 0.43782 0.94836 0.80288 0.0
H1787 H 0.42073 0.94978 0.82317 0.0
H1788 H 0.42858 0.96199 0.76721 0.0
H1789 H 0.42702 0.90231 0.67722 0.0
H1790 H 0.41412 0.90309 0.61063 0.0
H1791 H 0.41048 0.90481 0.70578 0.0
C1792 C 0.2947 0.16966 0.88771 0.0
C1793 C 0.303 0.1697 0.8274 0.0
C1794 C 0.29986 0.17101 0.95786 0.0
C1795 C 0.31359 0.17252 0.96707 0.0
C1796 C 0.32202 0.17177 0.90651 0.0
C1797 C 0.31662 0.17008 0.83755 0.0
C1798 C 0.29062 0.17134 0.02175 0.0
C1799 C 0.33668 0.17338 0.91403 0.0
C1800 C 0.32311 0.19203 0.1331 0.0
C1801 C 0.32631 0.18204 0.18214 0.0
C1802 C 0.31949 0.18907 0.06179 0.0
C1803 C 0.31901 0.1758 0.0393 0.0
C1804 C 0.32313 0.16575 0.08693 0.0
C1805 C 0.32683 0.169 0.15781 0.0
C1806 C 0.31547 0.2001 0.01177 0.0
C1807 C 0.32277 0.15148 0.06485 0.0
H1808 H 0.28419 0.16901 0.87986 0.0
H1809 H 0.32308 0.1694 0.79111 0.0
H1810 H 0.29398 0.16443 0.0644 0.0
H1811 H 0.29058 0.18131 0.04581 0.0
H1812 H 0.28041 0.16874 0.00627 0.0
H1813 H 0.34192 0.17164 0.86214 0.0
H1814 H 0.33892 0.18349 0.93267 0.0
H1815 H 0.34059 0.16653 0.95541 0.0
H1816 H 0.3228 0.20214 0.15141 0.0
H1817 H 0.32933 0.16121 0.19536 0.0
H1818 H 0.30481 0.19943 0.00051 0.0
H1819 H 0.32067 0.19926 0.95917 0.0
H1820 H 0.31756 0.20991 0.0353 0.0
H1821 H 0.31242 0.14822 0.06087 0.0
H1822 H 0.32791 0.14508 0.10447 0.0
H1823 H 0.3273 0.15009 0.0108 0.0
C1824 C 0.05786 0.08321 0.39122 0.0
C1825 C 0.06903 0.08283 0.43534 0.0
C1826 C 0.05865 0.07972 0.31792 0.0
C1827 C 0.0709 0.07591 0.28867 0.0
C1828 C 0.08241 0.07705 0.33087 0.0
C1829 C 0.08134 0.08053 0.40393 0.0
C1830 C 0.04619 0.07887 0.274 0.0
C1831 C 0.09571 0.07339 0.3011 0.0
C1832 C 0.07092 0.04896 0.1472 0.0
C1833 C 0.07262 0.0562 0.08366 0.0
C1834 C 0.07021 0.05532 0.21447 0.0
C1835 C 0.07146 0.06918 0.21769 0.0
C1836 C 0.07345 0.07648 0.15361 0.0
C1837 C 0.07404 0.06987 0.0873 0.0
C1838 C 0.06811 0.04723 0.28207 0.0
C1839 C 0.07503 0.09122 0.15509 0.0
H1840 H 0.04834 0.0851 0.4151 0.0
H1841 H 0.09003 0.08047 0.43774 0.0
H1842 H 0.04766 0.08299 0.21898 0.0
H1843 H 0.04338 0.06841 0.26761 0.0
H1844 H 0.03794 0.08413 0.30044 0.0
H1845 H 0.1038 0.0769 0.33645 0.0
H1846 H 0.0964 0.06255 0.29684 0.0
H1847 H 0.09712 0.07748 0.24599 0.0
H1848 H 0.07 0.03838 0.14409 0.0
H1849 H 0.0757 0.07543 0.03816 0.0
H1850 H 0.05909 0.05054 0.31035 0.0
H1851 H 0.07644 0.04866 0.31992 0.0
H1852 H 0.06717 0.03659 0.2701 0.0
H1853 H 0.06624 0.09582 0.1797 0.0
H1854 H 0.07649 0.09541 0.10012 0.0
H1855 H 0.08355 0.09393 0.18927 0.0
C1856 C 0.82931 0.80831 0.61761 0.0
C1857 C 0.82618 0.81732 0.67213 0.0
C1858 C 0.82511 0.81037 0.54608 0.0
C1859 C 0.81714 0.82139 0.52996 0.0
C1860 C 0.81429 0.83069 0.58452 0.0
C1861 C 0.8191 0.82869 0.65459 0.0
C1862 C 0.82878 0.80053 0.48846 0.0
C1863 C 0.80571 0.84249 0.56995 0.0
C1864 C 0.81139 0.83211 0.33624 0.0
C1865 C 0.79958 0.82575 0.32026 0.0
C1866 C 0.81734 0.83065 0.40406 0.0
C1867 C 0.81114 0.82282 0.45727 0.0
C1868 C 0.79901 0.81661 0.44168 0.0
C1869 C 0.79343 0.81804 0.37267 0.0
C1870 C 0.83037 0.83721 0.41812 0.0
C1871 C 0.79204 0.80827 0.49729 0.0
H1872 H 0.83477 0.79953 0.63127 0.0
H1873 H 0.81652 0.83562 0.6968 0.0
H1874 H 0.82001 0.79474 0.47303 0.0
H1875 H 0.83232 0.80562 0.43904 0.0
H1876 H 0.8365 0.79364 0.50731 0.0
H1877 H 0.80257 0.84743 0.62074 0.0
H1878 H 0.81117 0.8497 0.53663 0.0
H1879 H 0.79681 0.83963 0.53913 0.0
H1880 H 0.81613 0.83799 0.29491 0.0
H1881 H 0.78437 0.81302 0.35933 0.0
H1882 H 0.83769 0.8298 0.43554 0.0
H1883 H 0.82938 0.84442 0.46273 0.0
H1884 H 0.83418 0.84239 0.36951 0.0
H1885 H 0.79736 0.79886 0.50397 0.0
H1886 H 0.78178 0.80605 0.48112 0.0
H1887 H 0.79191 0.81322 0.55078 0.0
C1888 C 0.92384 0.04502 0.14572 0.0
C1889 C 0.92276 0.05294 0.08417 0.0
C1890 C 0.92459 0.05066 0.21497 0.0
C1891 C 0.92429 0.06452 0.22211 0.0
C1892 C 0.92251 0.07249 0.16032 0.0
C1893 C 0.92153 0.06657 0.09221 0.0
C1894 C 0.9261 0.04183 0.28022 0.0
C1895 C 0.92207 0.08728 0.16578 0.0
C1896 C 0.91826 0.07715 0.41184 0.0
C1897 C 0.93115 0.07842 0.43766 0.0
C1898 C 0.91581 0.07321 0.34041 0.0
C1899 C 0.92651 0.07064 0.29382 0.0
C1900 C 0.93948 0.0731 0.31752 0.0
C1901 C 0.94165 0.07699 0.38929 0.0
C1902 C 0.90184 0.07084 0.31683 0.0
C1903 C 0.95112 0.07075 0.26866 0.0
H1904 H 0.92446 0.03445 0.13952 0.0
H1905 H 0.92001 0.07268 0.04492 0.0
H1906 H 0.93581 0.04351 0.30566 0.0
H1907 H 0.91853 0.0442 0.32137 0.0
H1908 H 0.92526 0.03127 0.26594 0.0
H1909 H 0.91982 0.092 0.11297 0.0
H1910 H 0.91459 0.09037 0.20587 0.0
H1911 H 0.93168 0.09098 0.18513 0.0
H1912 H 0.91007 0.07838 0.44865 0.0
H1913 H 0.95162 0.07811 0.40855 0.0
H1914 H 0.90002 0.06011 0.31394 0.0
H1915 H 0.90005 0.07494 0.26208 0.0
H1916 H 0.89466 0.07521 0.35514 0.0
H1917 H 0.95215 0.06007 0.25835 0.0
H1918 H 0.96041 0.0744 0.29276 0.0
H1919 H 0.94963 0.07561 0.21553 0.0
C1920 C 0.66605 0.18407 0.12643 0.0
C1921 C 0.6742 0.18126 0.18525 0.0
C1922 C 0.67061 0.18235 0.05516 0.0
C1923 C 0.68373 0.17822 0.04339 0.0
C1924 C 0.69195 0.17543 0.10315 0.0
C1925 C 0.68701 0.17685 0.17335 0.0
C1926 C 0.66148 0.18505 0.99258 0.0
C1927 C 0.7061 0.17139 0.09321 0.0
C1928 C 0.6945 0.16389 0.86335 0.0
C1929 C 0.69988 0.17491 0.82934 0.0
C1930 C 0.6889 0.16489 0.93251 0.0
C1931 C 0.68905 0.17713 0.96879 0.0
C1932 C 0.69472 0.18824 0.93483 0.0
C1933 C 0.69989 0.18703 0.86476 0.0
C1934 C 0.68272 0.15291 0.96642 0.0
C1935 C 0.69538 0.20137 0.97261 0.0
H1936 H 0.65617 0.18756 0.1362 0.0
H1937 H 0.69334 0.17492 0.21933 0.0
H1938 H 0.6652 0.19346 0.96043 0.0
H1939 H 0.66113 0.17643 0.95593 0.0
H1940 H 0.65136 0.18733 0.01092 0.0
H1941 H 0.71087 0.16873 0.14528 0.0
H1942 H 0.70682 0.16288 0.05598 0.0
H1943 H 0.71166 0.17959 0.06832 0.0
H1944 H 0.69432 0.15459 0.83484 0.0
H1945 H 0.70399 0.19553 0.83759 0.0
H1946 H 0.67238 0.15502 0.98094 0.0
H1947 H 0.68793 0.15034 0.01722 0.0
H1948 H 0.68295 0.14427 0.92973 0.0
H1949 H 0.68534 0.20484 0.98563 0.0
H1950 H 0.70034 0.20895 0.93918 0.0
H1951 H 0.70074 0.20036 0.02462 0.0
C1952 C 0.55486 0.92575 0.892 0.0
C1953 C 0.56527 0.92237 0.93794 0.0
C1954 C 0.55717 0.9294 0.82001 0.0
C1955 C 0.57019 0.92961 0.79355 0.0
C1956 C 0.58059 0.92509 0.83763 0.0
C1957 C 0.578 0.92146 0.90942 0.0
C1958 C 0.54579 0.93389 0.77391 0.0
C1959 C 0.59458 0.92498 0.81081 0.0
C1960 C 0.57458 0.93307 0.59121 0.0
C1961 C 0.57628 0.94667 0.58387 0.0
C1962 C 0.5728 0.92733 0.65927 0.0
C1963 C 0.57295 0.93538 0.72151 0.0
C1964 C 0.57526 0.94906 0.71476 0.0
C1965 C 0.57697 0.95455 0.64564 0.0
C1966 C 0.57046 0.91272 0.66434 0.0
C1967 C 0.57566 0.9579 0.78038 0.0
H1968 H 0.54498 0.92631 0.9134 0.0
H1969 H 0.58609 0.91873 0.94438 0.0
H1970 H 0.5466 0.94461 0.76411 0.0
H1971 H 0.546 0.92896 0.72035 0.0
H1972 H 0.53618 0.93189 0.80001 0.0
H1973 H 0.6012 0.91956 0.84805 0.0
H1974 H 0.5952 0.92047 0.75626 0.0
H1975 H 0.59817 0.93523 0.80601 0.0
H1976 H 0.57455 0.9269 0.54346 0.0
H1977 H 0.57853 0.96503 0.63971 0.0
H1978 H 0.56051 0.91084 0.6864 0.0
H1979 H 0.57759 0.90818 0.70215 0.0
H1980 H 0.57129 0.90778 0.61089 0.0
H1981 H 0.56602 0.95772 0.80824 0.0
H1982 H 0.57802 0.96822 0.76603 0.0
H1983 H 0.58308 0.9543 0.81954 0.0
C1984 C 0.83097 0.18656 0.35856 0.0
C1985 C 0.8253 0.17973 0.30086 0.0
C1986 C 0.82611 0.18505 0.42928 0.0
C1987 C 0.81501 0.17695 0.44143 0.0
C1988 C 0.80925 0.17007 0.38302 0.0
C1989 C 0.81461 0.17137 0.31364 0.0
C1990 C 0.83264 0.19232 0.49068 0.0
C1991 C 0.79716 0.16171 0.39323 0.0
C1992 C 0.80813 0.16491 0.63186 0.0
C1993 C 0.79879 0.17401 0.65527 0.0
C1994 C 0.81345 0.1657 0.56206 0.0
C1995 C 0.80926 0.17583 0.51499 0.0
C1996 C 0.79958 0.18489 0.53818 0.0
C1997 C 0.79446 0.18388 0.60855 0.0
C1998 C 0.82373 0.15587 0.53926 0.0
C1999 C 0.79479 0.19573 0.48913 0.0
H2000 H 0.83912 0.19313 0.34821 0.0
H2001 H 0.80999 0.16636 0.26854 0.0
H2002 H 0.82574 0.1996 0.51389 0.0
H2003 H 0.83528 0.18538 0.53468 0.0
H2004 H 0.84165 0.19754 0.47292 0.0
H2005 H 0.79368 0.1573 0.34162 0.0
H2006 H 0.79922 0.15369 0.43228 0.0
H2007 H 0.7891 0.16771 0.41628 0.0
H2008 H 0.81145 0.15734 0.66885 0.0
H2009 H 0.78729 0.19094 0.62759 0.0
H2010 H 0.83297 0.16105 0.52549 0.0
H2011 H 0.82047 0.1506 0.48989 0.0
H2012 H 0.82582 0.14854 0.5823 0.0
H2013 H 0.80301 0.20247 0.4762 0.0
H2014 H 0.78674 0.20152 0.51407 0.0
H2015 H 0.79125 0.19157 0.43717 0.0
C2016 C 0.56054 0.05944 0.39763 0.0
C2017 C 0.57159 0.0519 0.41517 0.0
C2018 C 0.55896 0.06477 0.3283 0.0
C2019 C 0.56831 0.06191 0.27409 0.0
C2020 C 0.57902 0.05354 0.28992 0.0
C2021 C 0.58061 0.04873 0.36063 0.0
C2022 C 0.5474 0.07365 0.31351 0.0
C2023 C 0.58881 0.04973 0.23229 0.0
C2024 C 0.55761 0.066 0.07924 0.0
C2025 C 0.56439 0.07736 0.05896 0.0
C2026 C 0.55888 0.06078 0.14892 0.0
C2027 C 0.56673 0.06744 0.2003 0.0
C2028 C 0.57322 0.07924 0.18079 0.0
C2029 C 0.57221 0.08392 0.10942 0.0
C2030 C 0.552 0.04805 0.16671 0.0
C2031 C 0.58131 0.0868 0.23503 0.0
H2032 H 0.55311 0.06127 0.4381 0.0
H2033 H 0.58905 0.04271 0.37352 0.0
H2034 H 0.55086 0.08316 0.29125 0.0
H2035 H 0.54091 0.06913 0.2723 0.0
H2036 H 0.54152 0.0756 0.36301 0.0
H2037 H 0.59605 0.04243 0.25218 0.0
H2038 H 0.58365 0.04556 0.18466 0.0
H2039 H 0.59419 0.05856 0.21348 0.0
H2040 H 0.55176 0.06082 0.03932 0.0
H2041 H 0.57754 0.09264 0.09298 0.0
H2042 H 0.54323 0.05011 0.20027 0.0
H2043 H 0.55848 0.04142 0.19826 0.0
H2044 H 0.54873 0.0428 0.11713 0.0
H2045 H 0.57541 0.08882 0.28432 0.0
H2046 H 0.5849 0.09627 0.21274 0.0
H2047 H 0.58988 0.08085 0.25196 0.0
C2048 C 0.67034 0.83053 0.83168 0.0
C2049 C 0.66677 0.81818 0.8044 0.0
C2050 C 0.67443 0.83198 0.90347 0.0
C2051 C 0.67461 0.82086 0.94922 0.0
C2052 C 0.66949 0.80875 0.92457 0.0
C2053 C 0.66564 0.80752 0.85202 0.0
C2054 C 0.67968 0.8451 0.92809 0.0
C2055 C 0.66914 0.7968 0.97293 0.0
C2056 C 0.70114 0.81968 0.09281 0.0
C2057 C 0.69398 0.82291 0.15469 0.0
C2058 C 0.6949 0.81891 0.02521 0.0
C2059 C 0.68128 0.82163 0.02017 0.0
C2060 C 0.67412 0.82521 0.08252 0.0
C2061 C 0.68058 0.82579 0.14912 0.0
C2062 C 0.70282 0.81511 0.95937 0.0
C2063 C 0.65966 0.82836 0.07901 0.0
H2064 H 0.67096 0.83889 0.79549 0.0
H2065 H 0.66269 0.798 0.83158 0.0
H2066 H 0.67579 0.8477 0.98229 0.0
H2067 H 0.69052 0.84453 0.93276 0.0
H2068 H 0.67721 0.8531 0.88954 0.0
H2069 H 0.66311 0.78879 0.94934 0.0
H2070 H 0.67926 0.79309 0.98091 0.0
H2071 H 0.66515 0.79933 0.02707 0.0
H2072 H 0.71152 0.81754 0.09759 0.0
H2073 H 0.67511 0.82845 0.19706 0.0
H2074 H 0.7022 0.82295 0.91777 0.0
H2075 H 0.69872 0.80603 0.93502 0.0
H2076 H 0.71331 0.81339 0.97249 0.0
H2077 H 0.65792 0.83654 0.04057 0.0
H2078 H 0.6556 0.83115 0.13269 0.0
H2079 H 0.65416 0.81974 0.05847 0.0
C2080 C 0.93994 0.94655 0.87972 0.0
C2081 C 0.92749 0.94892 0.90887 0.0
C2082 C 0.94132 0.94122 0.81013 0.0
C2083 C 0.92996 0.93817 0.76945 0.0
C2084 C 0.91737 0.94085 0.79817 0.0
C2085 C 0.9163 0.94629 0.8675 0.0
C2086 C 0.95489 0.93877 0.78037 0.0
C2087 C 0.90504 0.93773 0.75623 0.0
C2088 C 0.931 0.9357 0.56577 0.0
C2089 C 0.93081 0.9221 0.55527 0.0
C2090 C 0.93127 0.94105 0.63532 0.0
C2091 C 0.93114 0.93254 0.69578 0.0
C2092 C 0.9313 0.91874 0.68545 0.0
C2093 C 0.93125 0.91364 0.6147 0.0
C2094 C 0.93127 0.95579 0.64376 0.0
C2095 C 0.9311 0.90942 0.74898 0.0
H2096 H 0.94857 0.94873 0.91178 0.0
H2097 H 0.90667 0.94804 0.89049 0.0
H2098 H 0.95614 0.92818 0.76822 0.0
H2099 H 0.9562 0.94419 0.72874 0.0
H2100 H 0.9627 0.94184 0.81871 0.0
H2101 H 0.89601 0.94027 0.7868 0.0
H2102 H 0.90499 0.94319 0.70424 0.0
H2103 H 0.90476 0.92711 0.74294 0.0
H2104 H 0.93086 0.94218 0.51912 0.0
H2105 H 0.93119 0.90312 0.60586 0.0
H2106 H 0.93897 0.95891 0.68255 0.0
H2107 H 0.9217 0.95905 0.66584 0.0
H2108 H 0.93295 0.96089 0.59135 0.0
H2109 H 0.9392 0.91176 0.78697 0.0
H2110 H 0.93202 0.89901 0.73185 0.0
H2111 H 0.92177 0.9106 0.77924 0.0
C2112 C 0.70414 0.6705 0.09851 0.0
C2113 C 0.69613 0.67138 0.15973 0.0
C2114 C 0.69882 0.67222 0.02899 0.0
C2115 C 0.68522 0.6748 0.02141 0.0
C2116 C 0.67704 0.6751 0.08309 0.0
C2117 C 0.68259 0.67324 0.15149 0.0
C2118 C 0.70778 0.67164 0.96389 0.0
C2119 C 0.66251 0.67776 0.07712 0.0
C2120 C 0.67609 0.69335 0.85159 0.0
C2121 C 0.6723 0.68309 0.80554 0.0
C2122 C 0.67979 0.69084 0.92327 0.0
C2123 C 0.67967 0.67777 0.94921 0.0
C2124 C 0.67483 0.66754 0.90492 0.0
C2125 C 0.67113 0.67034 0.83352 0.0
C2126 C 0.68462 0.70205 0.96971 0.0
C2127 C 0.67442 0.6535 0.93113 0.0
H2128 H 0.71456 0.66881 0.10516 0.0
H2129 H 0.67632 0.67341 0.19887 0.0
H2130 H 0.70395 0.66449 0.92376 0.0
H2131 H 0.70808 0.68137 0.93696 0.0
H2132 H 0.71795 0.66879 0.97867 0.0
H2133 H 0.65743 0.67696 0.13018 0.0
H2134 H 0.66091 0.68779 0.05543 0.0
H2135 H 0.6579 0.67079 0.03865 0.0
H2136 H 0.67688 0.70325 0.83055 0.0
H2137 H 0.66811 0.66236 0.7984 0.0
H2138 H 0.69528 0.70088 0.97983 0.0
H2139 H 0.67963 0.70195 0.02311 0.0
H2140 H 0.68296 0.71174 0.94377 0.0
H2141 H 0.68458 0.64971 0.93624 0.0
H2142 H 0.66894 0.64702 0.89342 0.0
H2143 H 0.66983 0.65289 0.98547 0.0
C2144 C 0.57461 0.43474 0.07087 0.0
C2145 C 0.56843 0.42268 0.05814 0.0
C2146 C 0.57509 0.44014 0.14032 0.0
C2147 C 0.56965 0.43306 0.1989 0.0
C2148 C 0.56364 0.42071 0.18674 0.0
C2149 C 0.56285 0.41576 0.11582 0.0
C2150 C 0.58119 0.45353 0.15058 0.0
C2151 C 0.55805 0.41277 0.24849 0.0
C2152 C 0.5827 0.44213 0.38395 0.0
C2153 C 0.57242 0.44971 0.41152 0.0
C2154 C 0.5818 0.43642 0.31523 0.0
C2155 C 0.57045 0.43861 0.27289 0.0
C2156 C 0.56012 0.44649 0.30019 0.0
C2157 C 0.56117 0.45184 0.36997 0.0
C2158 C 0.59291 0.42792 0.28836 0.0
C2159 C 0.54803 0.44931 0.25563 0.0
H2160 H 0.57864 0.44026 0.02577 0.0
H2161 H 0.55794 0.40651 0.10544 0.0
H2162 H 0.57412 0.46023 0.17739 0.0
H2163 H 0.5899 0.45277 0.18628 0.0
H2164 H 0.58427 0.45801 0.09843 0.0
H2165 H 0.55414 0.40315 0.23023 0.0
H2166 H 0.56573 0.41103 0.28999 0.0
H2167 H 0.55003 0.41832 0.27513 0.0
H2168 H 0.59129 0.44034 0.41721 0.0
H2169 H 0.55322 0.45763 0.39225 0.0
H2170 H 0.59722 0.43224 0.23862 0.0
H2171 H 0.58915 0.41804 0.27386 0.0
H2172 H 0.60081 0.42678 0.32934 0.0
H2173 H 0.55086 0.4541 0.20394 0.0
H2174 H 0.54099 0.45578 0.28451 0.0
H2175 H 0.543 0.44 0.24167 0.0
C2176 C 0.79622 0.32323 0.59077 0.0
C2177 C 0.80385 0.32553 0.65241 0.0
C2178 C 0.80205 0.32263 0.52193 0.0
C2179 C 0.81578 0.32442 0.51511 0.0
C2180 C 0.82341 0.32733 0.57693 0.0
C2181 C 0.81731 0.328 0.64474 0.0
C2182 C 0.79355 0.31981 0.45673 0.0
C2183 C 0.83804 0.32945 0.57174 0.0
C2184 C 0.82988 0.30839 0.34766 0.0
C2185 C 0.8298 0.3189 0.29862 0.0
C2186 C 0.82609 0.31022 0.41995 0.0
C2187 C 0.82215 0.32284 0.44342 0.0
C2188 C 0.82325 0.33369 0.39604 0.0
C2189 C 0.82715 0.3316 0.3242 0.0
C2190 C 0.82536 0.29846 0.46959 0.0
C2191 C 0.81928 0.34734 0.41921 0.0
H2192 H 0.78577 0.32159 0.59664 0.0
H2193 H 0.82314 0.33036 0.69197 0.0
H2194 H 0.79475 0.32768 0.41572 0.0
H2195 H 0.79667 0.31047 0.4311 0.0
H2196 H 0.783 0.31904 0.47102 0.0
H2197 H 0.84243 0.33229 0.62454 0.0
H2198 H 0.84285 0.3203 0.55276 0.0
H2199 H 0.84027 0.33721 0.53143 0.0
H2200 H 0.83209 0.29857 0.32862 0.0
H2201 H 0.82722 0.33982 0.28693 0.0
H2202 H 0.81492 0.29601 0.48011 0.0
H2203 H 0.82999 0.30069 0.52255 0.0
H2204 H 0.83022 0.2897 0.44593 0.0
H2205 H 0.80843 0.3479 0.42219 0.0
H2206 H 0.82276 0.35493 0.38054 0.0
H2207 H 0.82317 0.34966 0.47382 0.0
C2208 C 0.91534 0.55926 0.89442 0.0
C2209 C 0.9252 0.55078 0.91839 0.0
C2210 C 0.9159 0.56485 0.82513 0.0
C2211 C 0.92658 0.56179 0.77912 0.0
C2212 C 0.93646 0.55302 0.80303 0.0
C2213 C 0.93568 0.54765 0.87289 0.0
C2214 C 0.90523 0.5742 0.8017 0.0
C2215 C 0.94789 0.5494 0.75506 0.0
C2216 C 0.92269 0.56624 0.57678 0.0
C2217 C 0.93026 0.5775 0.56415 0.0
C2218 C 0.92135 0.56107 0.64657 0.0
C2219 C 0.92734 0.56759 0.70549 0.0
C2220 C 0.93451 0.57932 0.69348 0.0
C2221 C 0.93614 0.584 0.6224 0.0
C2222 C 0.91397 0.54833 0.6567 0.0
C2223 C 0.94075 0.58671 0.75539 0.0
H2224 H 0.90733 0.56171 0.93058 0.0
H2225 H 0.94334 0.54117 0.89245 0.0
H2226 H 0.90955 0.58388 0.78796 0.0
H2227 H 0.90035 0.57044 0.75216 0.0
H2228 H 0.89768 0.57563 0.84436 0.0
H2229 H 0.95457 0.54221 0.78123 0.0
H2230 H 0.94427 0.54515 0.70345 0.0
H2231 H 0.9536 0.55832 0.74124 0.0
H2232 H 0.91839 0.56104 0.53134 0.0
H2233 H 0.94209 0.59262 0.61223 0.0
H2234 H 0.90556 0.54985 0.69384 0.0
H2235 H 0.92046 0.5409 0.68202 0.0
H2236 H 0.91023 0.5443 0.60473 0.0
H2237 H 0.93343 0.58854 0.79869 0.0
H2238 H 0.94494 0.59626 0.7378 0.0
H2239 H 0.94872 0.58071 0.7794 0.0
C2240 C 0.70145 0.32452 0.89947 0.0
C2241 C 0.69412 0.3245 0.83561 0.0
C2242 C 0.69524 0.32321 0.96687 0.0
C2243 C 0.68138 0.32209 0.96984 0.0
C2244 C 0.67393 0.32237 0.90541 0.0
C2245 C 0.68041 0.32361 0.839 0.0
C2246 C 0.70348 0.32298 0.03485 0.0
C2247 C 0.65915 0.32143 0.9066 0.0
C2248 C 0.66961 0.30711 0.14502 0.0
C2249 C 0.66809 0.31839 0.18753 0.0
C2250 C 0.67305 0.30814 0.07176 0.0
C2251 C 0.67477 0.32074 0.04082 0.0
C2252 C 0.67166 0.33209 0.08135 0.0
C2253 C 0.66839 0.33078 0.15459 0.0
C2254 C 0.67612 0.2958 0.02982 0.0
C2255 C 0.673 0.34569 0.04961 0.0
H2256 H 0.71204 0.3254 0.89654 0.0
H2257 H 0.6747 0.32399 0.78957 0.0
H2258 H 0.70063 0.3312 0.07091 0.0
H2259 H 0.70172 0.31372 0.06506 0.0
H2260 H 0.71414 0.32378 0.02309 0.0
H2261 H 0.65483 0.32191 0.85142 0.0
H2262 H 0.65609 0.31209 0.93239 0.0
H2263 H 0.655 0.32953 0.93959 0.0
H2264 H 0.66933 0.29751 0.17029 0.0
H2265 H 0.66701 0.33951 0.18735 0.0
H2266 H 0.6869 0.29486 0.02376 0.0
H2267 H 0.67184 0.29624 0.97464 0.0
H2268 H 0.67238 0.28688 0.0576 0.0
H2269 H 0.68355 0.34827 0.04578 0.0
H2270 H 0.66803 0.3532 0.08351 0.0
H2271 H 0.66886 0.34608 0.99411 0.0
C2272 C 0.9242 0.45031 0.14283 0.0
C2273 C 0.92197 0.44278 0.08082 0.0
C2274 C 0.92509 0.44431 0.21104 0.0
C2275 C 0.92371 0.43049 0.21668 0.0
C2276 C 0.92088 0.42295 0.15449 0.0
C2277 C 0.91986 0.42923 0.08738 0.0
C2278 C 0.92781 0.4527 0.27681 0.0
C2279 C 0.91929 0.40823 0.15846 0.0
C2280 C 0.94028 0.41714 0.38387 0.0
C2281 C 0.9298 0.41707 0.43295 0.0
C2282 C 0.93827 0.42058 0.31121 0.0
C2283 C 0.92551 0.42401 0.28773 0.0
C2284 C 0.91472 0.42256 0.33509 0.0
C2285 C 0.91699 0.41899 0.40718 0.0
C2286 C 0.94996 0.42164 0.26138 0.0
C2287 C 0.90094 0.42599 0.31186 0.0
H2288 H 0.92557 0.46082 0.13766 0.0
H2289 H 0.9176 0.42348 0.03965 0.0
H2290 H 0.92021 0.45098 0.31876 0.0
H2291 H 0.9374 0.44994 0.30072 0.0
H2292 H 0.92802 0.46334 0.26365 0.0
H2293 H 0.9165 0.40389 0.10542 0.0
H2294 H 0.92863 0.40369 0.17647 0.0
H2295 H 0.91171 0.40559 0.199 0.0
H2296 H 0.95018 0.41547 0.40313 0.0
H2297 H 0.9088 0.4187 0.44458 0.0
H2298 H 0.95225 0.43215 0.25187 0.0
H2299 H 0.94778 0.41714 0.20802 0.0
H2300 H 0.9588 0.41683 0.28451 0.0
H2301 H 0.89997 0.43682 0.30859 0.0
H2302 H 0.8935 0.42225 0.35068 0.0
H2303 H 0.89876 0.42197 0.25738 0.0
C2304 C 0.81585 0.67051 0.33896 0.0
C2305 C 0.80223 0.67012 0.32898 0.0
C2306 C 0.82127 0.67236 0.40774 0.0
C2307 C 0.81286 0.67328 0.46831 0.0
C2308 C 0.79912 0.67185 0.4593 0.0
C2309 C 0.79394 0.67032 0.38932 0.0
C2310 C 0.83595 0.67389 0.41507 0.0
C2311 C 0.78989 0.67239 0.52323 0.0
C2312 C 0.82598 0.66944 0.65899 0.0
C2313 C 0.82557 0.68246 0.68375 0.0
C2314 C 0.8223 0.6663 0.58794 0.0
C2315 C 0.81834 0.67646 0.54052 0.0
C2316 C 0.81898 0.6897 0.56337 0.0
C2317 C 0.82256 0.69254 0.63491 0.0
C2318 C 0.82176 0.65207 0.56545 0.0
C2319 C 0.81516 0.70082 0.51355 0.0
H2320 H 0.82229 0.66968 0.29251 0.0
H2321 H 0.78342 0.66969 0.38158 0.0
H2322 H 0.83826 0.68396 0.43407 0.0
H2323 H 0.83983 0.66697 0.45613 0.0
H2324 H 0.84115 0.67218 0.36304 0.0
H2325 H 0.77964 0.66996 0.50787 0.0
H2326 H 0.79314 0.66546 0.56601 0.0
H2327 H 0.79003 0.68238 0.54708 0.0
H2328 H 0.82833 0.66158 0.69635 0.0
H2329 H 0.82235 0.70263 0.65354 0.0
H2330 H 0.82642 0.65065 0.51174 0.0
H2331 H 0.81137 0.64897 0.56048 0.0
H2332 H 0.82668 0.64554 0.60529 0.0
H2333 H 0.82032 0.69991 0.46087 0.0
H2334 H 0.81744 0.71058 0.53722 0.0
H2335 H 0.80448 0.70035 0.5024 0.0
C2336 C 0.58176 0.55822 0.59681 0.0
C2337 C 0.57313 0.54816 0.57729 0.0
C2338 C 0.58086 0.56424 0.66472 0.0
C2339 C 0.57127 0.55984 0.71446 0.0
C2340 C 0.56263 0.54951 0.6951 0.0
C2341 C 0.56357 0.54388 0.62595 0.0
C2342 C 0.5901 0.57535 0.68299 0.0
C2343 C 0.55248 0.54439 0.74751 0.0
C2344 C 0.57739 0.56549 0.91377 0.0
C2345 C 0.56826 0.57537 0.92977 0.0
C2346 C 0.57851 0.56041 0.84376 0.0
C2347 C 0.57064 0.56567 0.78786 0.0
C2348 C 0.56191 0.57615 0.80275 0.0
C2349 C 0.56062 0.58071 0.8742 0.0
C2350 C 0.58762 0.54895 0.83064 0.0
C2351 C 0.55368 0.58226 0.74375 0.0
H2352 H 0.58904 0.56157 0.55819 0.0
H2353 H 0.55685 0.53617 0.60981 0.0
H2354 H 0.58442 0.58416 0.69925 0.0
H2355 H 0.59635 0.57256 0.72966 0.0
H2356 H 0.59655 0.57799 0.63675 0.0
H2357 H 0.5466 0.53624 0.72415 0.0
H2358 H 0.55736 0.54081 0.79752 0.0
H2359 H 0.54574 0.55241 0.76359 0.0
H2360 H 0.58312 0.56112 0.957 0.0
H2361 H 0.55351 0.58828 0.88686 0.0
H2362 H 0.59454 0.55123 0.78606 0.0
H2363 H 0.58183 0.54024 0.8138 0.0
H2364 H 0.59337 0.54631 0.87965 0.0
H2365 H 0.55993 0.58498 0.69687 0.0
H2366 H 0.54841 0.59116 0.76281 0.0
H2367 H 0.54635 0.57505 0.72414 0.0
C2368 C 0.3097 0.3319 0.84566 0.0
C2369 C 0.29848 0.32467 0.82814 0.0
C2370 C 0.3156 0.33064 0.91375 0.0
C2371 C 0.30994 0.32217 0.96576 0.0
C2372 C 0.29841 0.31502 0.94847 0.0
C2373 C 0.29289 0.31625 0.87915 0.0
C2374 C 0.32808 0.33812 0.9293 0.0
C2375 C 0.29204 0.30575 0.00175 0.0
C2376 C 0.32925 0.30903 0.12591 0.0
C2377 C 0.32548 0.31777 0.18057 0.0
C2378 C 0.32475 0.3107 0.05459 0.0
C2379 C 0.31591 0.32103 0.03875 0.0
C2380 C 0.31226 0.32999 0.09366 0.0
C2381 C 0.31731 0.32841 0.16354 0.0
C2382 C 0.32904 0.30113 -0.00307 0.0
C2383 C 0.30244 0.3408 0.07966 0.0
H2384 H 0.31403 0.33829 0.80532 0.0
H2385 H 0.28432 0.31053 0.86457 0.0
H2386 H 0.32657 0.34487 0.97568 0.0
H2387 H 0.33597 0.33118 0.94479 0.0
H2388 H 0.33143 0.34396 0.88196 0.0
H2389 H 0.28138 0.30471 0.99086 0.0
H2390 H 0.29658 0.2959 -0.00395 0.0
H2391 H 0.29338 0.30898 0.05858 0.0
H2392 H 0.33547 0.30075 0.13931 0.0
H2393 H 0.31414 0.33503 0.20603 0.0
H2394 H 0.3322 0.30645 0.94744 0.0
H2395 H 0.32066 0.29477 0.98171 0.0
H2396 H 0.33722 0.29477 0.0156 0.0
H2397 H 0.30642 0.34779 0.03919 0.0
H2398 H 0.29993 0.34634 0.12963 0.0
H2399 H 0.29329 0.33662 0.05676 0.0
C2400 C 0.43514 0.55963 0.58361 0.0
C2401 C 0.42343 0.55323 0.56542 0.0
C2402 C 0.43732 0.56427 0.65379 0.0
C2403 C 0.42781 0.5619 0.70791 0.0
C2404 C 0.41622 0.5549 0.69087 0.0
C2405 C 0.41412 0.5507 0.61942 0.0
C2406 C 0.44988 0.57155 0.67022 0.0
C2407 C 0.40612 0.55178 0.74813 0.0
C2408 C 0.44034 0.56153 0.9001 0.0
C2409 C 0.43558 0.57348 0.92695 0.0
C2410 C 0.43775 0.55761 0.82913 0.0
C2411 C 0.43048 0.566 0.78332 0.0
C2412 C 0.42598 0.57829 0.80928 0.0
C2413 C 0.4284 0.58181 0.88161 0.0
C2414 C 0.44235 0.54423 0.80445 0.0
C2415 C 0.41859 0.58764 0.76078 0.0
H2416 H 0.44269 0.56095 0.54315 0.0
H2417 H 0.40514 0.5456 0.60561 0.0
H2418 H 0.44765 0.58108 0.69655 0.0
H2419 H 0.45592 0.56576 0.70867 0.0
H2420 H 0.45579 0.57343 0.62074 0.0
H2421 H 0.39762 0.54627 0.72589 0.0
H2422 H 0.41066 0.54584 0.79183 0.0
H2423 H 0.40249 0.56097 0.77322 0.0
H2424 H 0.44563 0.55491 0.93564 0.0
H2425 H 0.42467 0.591 0.90277 0.0
H2426 H 0.44703 0.54476 0.75034 0.0
H2427 H 0.43377 0.53758 0.7999 0.0
H2428 H 0.44947 0.53982 0.84288 0.0
H2429 H 0.4245 0.58983 0.71171 0.0
H2430 H 0.41622 0.59702 0.78849 0.0
H2431 H 0.40933 0.58303 0.74235 0.0
C2432 C 0.18064 0.6675 0.67993 0.0
C2433 C 0.16779 0.67223 0.68731 0.0
C2434 C 0.18642 0.66611 0.61136 0.0
C2435 C 0.17923 0.6697 0.54878 0.0
C2436 C 0.1661 0.67403 0.55575 0.0
C2437 C 0.16051 0.67519 0.62496 0.0
C2438 C 0.20036 0.66121 0.60613 0.0
C2439 C 0.1581 0.67795 0.49037 0.0
C2440 C 0.19802 0.68157 0.38364 0.0
C2441 C 0.19777 0.67046 0.33938 0.0
C2442 C 0.19221 0.68135 0.45257 0.0
C2443 C 0.18575 0.66983 0.47667 0.0
C2444 C 0.18542 0.65859 0.43155 0.0
C2445 C 0.19158 0.65901 0.36356 0.0
C2446 C 0.19286 0.69349 0.49933 0.0
C2447 C 0.17835 0.64625 0.45444 0.0
H2448 H 0.18625 0.66501 0.72788 0.0
H2449 H 0.15057 0.67882 0.63025 0.0
H2450 H 0.20097 0.65292 0.56732 0.0
H2451 H 0.20677 0.66915 0.58525 0.0
H2452 H 0.20424 0.6579 0.65932 0.0
H2453 H 0.14765 0.67978 0.50424 0.0
H2454 H 0.16223 0.68704 0.4664 0.0
H2455 H 0.15854 0.67021 0.44821 0.0
H2456 H 0.20272 0.69044 0.36411 0.0
H2457 H 0.19122 0.65051 0.32824 0.0
H2458 H 0.1975 0.6911 0.55209 0.0
H2459 H 0.18281 0.69708 0.51087 0.0
H2460 H 0.19851 0.70153 0.47333 0.0
H2461 H 0.18261 0.64246 0.50561 0.0
H2462 H 0.1789 0.63842 0.41266 0.0
H2463 H 0.16787 0.64846 0.46517 0.0
C2464 C 0.08071 0.45189 0.14715 0.0
C2465 C 0.07054 0.45111 0.09637 0.0
C2466 C 0.07897 0.44723 0.21796 0.0
C2467 C 0.06682 0.44155 0.23779 0.0
C2468 C 0.05633 0.44131 0.18775 0.0
C2469 C 0.05825 0.44635 0.11798 0.0
C2470 C 0.0902 0.44812 0.27105 0.0
C2471 C 0.04322 0.43537 0.20708 0.0
C2472 C 0.06755 0.41762 0.39544 0.0
C2473 C 0.06259 0.42547 0.45102 0.0
C2474 C 0.06864 0.42264 0.32481 0.0
C2475 C 0.06509 0.43587 0.31104 0.0
C2476 C 0.06012 0.44378 0.36761 0.0
C2477 C 0.05877 0.4384 0.43681 0.0
C2478 C 0.07374 0.41388 0.2652 0.0
C2479 C 0.05649 0.45799 0.35556 0.0
H2480 H 0.09017 0.45574 0.13087 0.0
H2481 H 0.05019 0.44629 0.07984 0.0
H2482 H 0.08698 0.45323 0.32108 0.0
H2483 H 0.09339 0.43812 0.28695 0.0
H2484 H 0.09876 0.45345 0.24822 0.0
H2485 H 0.03607 0.436 0.1618 0.0
H2486 H 0.04453 0.42489 0.22185 0.0
H2487 H 0.03901 0.44041 0.25495 0.0
H2488 H 0.07057 0.40765 0.40728 0.0
H2489 H 0.05512 0.44446 0.48075 0.0
H2490 H 0.08315 0.41782 0.24427 0.0
H2491 H 0.06671 0.41374 0.2193 0.0
H2492 H 0.07535 0.40365 0.28397 0.0
H2493 H 0.06468 0.46328 0.32885 0.0
H2494 H 0.05405 0.46311 0.40697 0.0
H2495 H 0.04789 0.45861 0.319 0.0
C2496 C 0.29558 0.67704 0.08776 0.0
C2497 C 0.30295 0.67418 0.14963 0.0
C2498 C 0.30151 0.67736 0.01919 0.0
C2499 C 0.31512 0.67472 0.01278 0.0
C2500 C 0.32248 0.6713 0.07479 0.0
C2501 C 0.31626 0.67093 0.14238 0.0
C2502 C 0.29328 0.68076 0.95378 0.0
C2503 C 0.33695 0.66825 0.07002 0.0
C2504 C 0.32568 0.66678 0.82158 0.0
C2505 C 0.32896 0.6793 0.79549 0.0
C2506 C 0.32191 0.66493 0.89384 0.0
C2507 C 0.3216 0.67584 0.94112 0.0
C2508 C 0.32626 0.68819 0.91714 0.0
C2509 C 0.32989 0.68978 0.84441 0.0
C2510 C 0.31716 0.65156 0.91749 0.0
C2511 C 0.32641 0.69998 0.96668 0.0
H2512 H 0.28524 0.67932 0.09324 0.0
H2513 H 0.32187 0.66808 0.1896 0.0
H2514 H 0.29698 0.68994 0.92867 0.0
H2515 H 0.29407 0.67289 0.91249 0.0
H2516 H 0.28277 0.68212 0.96765 0.0
H2517 H 0.3411 0.66513 0.12295 0.0
H2518 H 0.33871 0.66037 0.02979 0.0
H2519 H 0.34234 0.67707 0.05115 0.0
H2520 H 0.32512 0.65856 0.78443 0.0
H2521 H 0.33261 0.69945 0.82498 0.0
H2522 H 0.3063 0.65164 0.92066 0.0
H2523 H 0.32094 0.64905 0.97208 0.0
H2524 H 0.32016 0.64375 0.87894 0.0
H2525 H 0.31618 0.70318 0.97719 0.0
H2526 H 0.3319 0.70835 0.94285 0.0
H2527 H 0.33087 0.69743 0.01964 0.0
C2528 C 0.06234 0.557 0.88545 0.0
C2529 C 0.07329 0.54943 0.90434 0.0
C2530 C 0.06089 0.56204 0.81541 0.0
C2531 C 0.07032 0.55892 0.76202 0.0
C2532 C 0.08105 0.55069 0.77955 0.0
C2533 C 0.08246 0.5461 0.85086 0.0
C2534 C 0.04928 0.57074 0.7987 0.0
C2535 C 0.09103 0.54678 0.72312 0.0
C2536 C 0.05867 0.56139 0.56835 0.0
C2537 C 0.06463 0.57305 0.54531 0.0
C2538 C 0.06071 0.55654 0.63819 0.0
C2539 C 0.06855 0.56379 0.68702 0.0
C2540 C 0.07442 0.57573 0.66453 0.0
C2541 C 0.0726 0.58011 0.59303 0.0
C2542 C 0.05467 0.54353 0.65916 0.0
C2543 C 0.08259 0.58384 0.71594 0.0
H2544 H 0.05484 0.559 0.92531 0.0
H2545 H 0.09086 0.5401 0.86503 0.0
H2546 H 0.05271 0.5802 0.77572 0.0
H2547 H 0.04296 0.56601 0.75739 0.0
H2548 H 0.04324 0.5728 0.84746 0.0
H2549 H 0.09818 0.53948 0.74408 0.0
H2550 H 0.08605 0.54256 0.67501 0.0
H2551 H 0.09648 0.55558 0.70462 0.0
H2552 H 0.05278 0.55575 0.5306 0.0
H2553 H 0.07731 0.58905 0.57454 0.0
H2554 H 0.04754 0.54498 0.70377 0.0
H2555 H 0.06237 0.53676 0.67935 0.0
H2556 H 0.04954 0.53875 0.61312 0.0
H2557 H 0.07676 0.58632 0.7648 0.0
H2558 H 0.08612 0.59308 0.69069 0.0
H2559 H 0.0912 0.57808 0.73431 0.0
C2560 C 0.17063 0.32979 0.33785 0.0
C2561 C 0.16675 0.31761 0.30953 0.0
C2562 C 0.17465 0.33096 0.40996 0.0
C2563 C 0.17452 0.31974 0.45499 0.0
C2564 C 0.16924 0.30779 0.42905 0.0
C2565 C 0.16543 0.30684 0.35627 0.0
C2566 C 0.18008 0.34393 0.43596 0.0
C2567 C 0.16859 0.29572 0.4764 0.0
C2568 C 0.20062 0.31829 0.601 0.0
C2569 C 0.19335 0.32165 0.66232 0.0
C2570 C 0.19453 0.31744 0.533 0.0
C2571 C 0.18095 0.32025 0.52679 0.0
C2572 C 0.17365 0.32387 0.58863 0.0
C2573 C 0.17997 0.32453 0.65572 0.0
C2574 C 0.2026 0.31356 0.46783 0.0
C2575 C 0.15923 0.32713 0.58391 0.0
H2576 H 0.17146 0.33823 0.30239 0.0
H2577 H 0.16225 0.29745 0.33505 0.0
H2578 H 0.17596 0.34653 0.48965 0.0
H2579 H 0.19087 0.34311 0.44233 0.0
H2580 H 0.17798 0.35204 0.39745 0.0
H2581 H 0.16254 0.28784 0.45164 0.0
H2582 H 0.17864 0.29187 0.48506 0.0
H2583 H 0.16447 0.29817 0.53035 0.0
H2584 H 0.21099 0.31618 0.60647 0.0
H2585 H 0.17441 0.32736 0.70317 0.0
H2586 H 0.20238 0.32152 0.42685 0.0
H2587 H 0.19834 0.30467 0.4422 0.0
H2588 H 0.21298 0.3115 0.48208 0.0
H2589 H 0.15774 0.33562 0.54714 0.0
H2590 H 0.15495 0.32957 0.6376 0.0
H2591 H 0.15375 0.31873 0.56066 0.0
C2592 C 0.44063 0.43434 0.0807 0.0
C2593 C 0.43523 0.4221 0.06378 0.0
C2594 C 0.43973 0.43946 0.15073 0.0
C2595 C 0.4335 0.43197 0.2053 0.0
C2596 C 0.42848 0.41933 0.18901 0.0
C2597 C 0.42918 0.41461 0.11761 0.0
C2598 C 0.44485 0.45312 0.16517 0.0
C2599 C 0.42215 0.41094 0.24664 0.0
C2600 C 0.43999 0.44169 0.40001 0.0
C2601 C 0.4281 0.44765 0.4192 0.0
C2602 C 0.44183 0.43636 0.33084 0.0
C2603 C 0.43178 0.43764 0.27858 0.0
C2604 C 0.42014 0.44452 0.2959 0.0
C2605 C 0.41839 0.44935 0.36634 0.0
C2606 C 0.45439 0.42909 0.31427 0.0
C2607 C 0.40945 0.44658 0.24043 0.0
H2608 H 0.44507 0.44019 0.0381 0.0
H2609 H 0.42495 0.40518 0.10375 0.0
H2610 H 0.43647 0.4598 0.17551 0.0
H2611 H 0.45114 0.45326 0.21412 0.0
H2612 H 0.4506 0.45702 0.11884 0.0
H2613 H 0.41979 0.40094 0.2266 0.0
H2614 H 0.42875 0.41007 0.2942 0.0
H2615 H 0.41297 0.41565 0.26554 0.0
H2616 H 0.44783 0.44099 0.43932 0.0
H2617 H 0.40925 0.45413 0.38053 0.0
H2618 H 0.45956 0.43382 0.26833 0.0
H2619 H 0.4521 0.41887 0.29765 0.0
H2620 H 0.46113 0.42877 0.3615 0.0
H2621 H 0.41355 0.45129 0.19117 0.0
H2622 H 0.40135 0.45279 0.26142 0.0
H2623 H 0.40533 0.43696 0.2238 0.0
C2624 C 0.26801 0.16298 0.36905 0.0
C2625 C 0.27872 0.17085 0.34972 0.0
C2626 C 0.25698 0.16205 0.32373 0.0
C2627 C 0.25652 0.16953 0.25902 0.0
C2628 C 0.2674 0.17733 0.23884 0.0
C2629 C 0.27843 0.17774 0.28393 0.0
C2630 C 0.24574 0.15327 0.34573 0.0
C2631 C 0.26717 0.18574 0.17141 0.0
C2632 C 0.23117 0.16353 0.1114 0.0
C2633 C 0.22136 0.17244 0.1313 0.0
C2634 C 0.24254 0.16212 0.15386 0.0
C2635 C 0.24426 0.17018 0.21573 0.0
C2636 C 0.23442 0.17932 0.23515 0.0
C2637 C 0.22299 0.18016 0.19341 0.0
C2638 C 0.2526 0.15193 0.13312 0.0
C2639 C 0.23603 0.18838 0.29935 0.0
H2640 H 0.2683 0.15748 0.41933 0.0
H2641 H 0.28669 0.18385 0.26874 0.0
H2642 H 0.2372 0.15933 0.36189 0.0
H2643 H 0.24262 0.14708 0.29937 0.0
H2644 H 0.24837 0.14678 0.39187 0.0
H2645 H 0.27661 0.19091 0.16226 0.0
H2646 H 0.26498 0.17966 0.12311 0.0
H2647 H 0.25925 0.19317 0.17602 0.0
H2648 H 0.22979 0.15743 0.06391 0.0
H2649 H 0.21539 0.18707 0.20864 0.0
H2650 H 0.25464 0.14542 0.17998 0.0
H2651 H 0.26197 0.15677 0.11833 0.0
H2652 H 0.24934 0.14581 0.0867 0.0
H2653 H 0.2369 0.18257 0.34992 0.0
H2654 H 0.22766 0.19527 0.30532 0.0
H2655 H 0.24518 0.19418 0.29351 0.0
C2656 C 0.08781 0.01668 0.63183 0.0
C2657 C 0.07709 0.02509 0.6231 0.0
C2658 C 0.08896 0.00529 0.58922 0.0
C2659 C 0.07893 0.00217 0.53892 0.0
C2660 C 0.06793 0.01054 0.5316 0.0
C2661 C 0.06728 0.02202 0.57293 0.0
C2662 C 0.10099 0.99678 0.59676 0.0
C2663 C 0.05682 0.00735 0.48043 0.0
C2664 C 0.08307 0.97925 0.37857 0.0
C2665 C 0.07746 0.96768 0.40547 0.0
C2666 C 0.08434 0.99038 0.4229 0.0
C2667 C 0.07957 0.98999 0.495 0.0
C2668 C 0.07416 0.97825 0.52279 0.0
C2669 C 0.07333 0.9672 0.47802 0.0
C2670 C 0.09044 0.00267 0.39201 0.0
C2671 C 0.06871 0.97749 0.59878 0.0
H2672 H 0.09547 0.01925 0.66998 0.0
H2673 H 0.05902 0.02862 0.56642 0.0
H2674 H 0.09815 0.98676 0.61404 0.0
H2675 H 0.10596 0.99586 0.54351 0.0
H2676 H 0.10809 0.00081 0.63664 0.0
H2677 H 0.04877 0.01469 0.4832 0.0
H2678 H 0.06049 0.00697 0.42393 0.0
H2679 H 0.05272 0.99754 0.49343 0.0
H2680 H 0.08644 0.97961 0.32292 0.0
H2681 H 0.06902 0.95828 0.49943 0.0
H2682 H 0.09789 0.00665 0.42993 0.0
H2683 H 0.0828 0.0103 0.38487 0.0
H2684 H 0.09517 0.00086 0.33871 0.0
H2685 H 0.07647 0.97985 0.63877 0.0
H2686 H 0.06468 0.96764 0.61158 0.0
H2687 H 0.06078 0.98485 0.60565 0.0
C2688 C 0.26424 0.8259 0.60788 0.0
C2689 C 0.27524 0.83389 0.61793 0.0
C2690 C 0.25364 0.82648 0.65623 0.0
C2691 C 0.25393 0.8356 0.7142 0.0
C2692 C 0.26465 0.84433 0.72132 0.0
C2693 C 0.27534 0.84315 0.67399 0.0
C2694 C 0.24251 0.81681 0.64772 0.0
C2695 C 0.26503 0.85459 0.78024 0.0
C2696 C 0.22081 0.84042 0.80269 0.0
C2697 C 0.22192 0.83238 0.86405 0.0
C2698 C 0.23145 0.84225 0.75579 0.0
C2699 C 0.2433 0.83547 0.76922 0.0
C2700 C 0.24463 0.82773 0.83269 0.0
C2701 C 0.23393 0.82644 0.8801 0.0
C2702 C 0.22983 0.85105 0.69054 0.0
C2703 C 0.25703 0.82013 0.84814 0.0
H2704 H 0.26431 0.81861 0.56511 0.0
H2705 H 0.28391 0.84931 0.68158 0.0
H2706 H 0.24183 0.81055 0.69681 0.0
H2707 H 0.23306 0.82208 0.64231 0.0
H2708 H 0.24379 0.81036 0.59971 0.0
H2709 H 0.27307 0.86179 0.77174 0.0
H2710 H 0.25557 0.85996 0.78273 0.0
H2711 H 0.26652 0.8498 0.83354 0.0
H2712 H 0.21151 0.8451 0.79071 0.0
H2713 H 0.23471 0.82015 0.92728 0.0
H2714 H 0.22902 0.84499 0.64087 0.0
H2715 H 0.2385 0.85752 0.68404 0.0
H2716 H 0.2209 0.85726 0.69458 0.0
H2717 H 0.25842 0.81253 0.80573 0.0
H2718 H 0.25676 0.81521 0.90186 0.0
H2719 H 0.26568 0.82669 0.84632 0.0
C2720 C 0.42977 0.97543 0.06856 0.0
C2721 C 0.41995 0.97217 0.11829 0.0
C2722 C 0.4287 0.98664 0.0252 0.0
C2723 C 0.41728 0.9945 0.02979 0.0
C2724 C 0.40719 0.99108 0.07912 0.0
C2725 C 0.40876 0.98004 0.12403 0.0
C2726 C 0.43988 0.99015 0.97507 0.0
C2727 C 0.39471 -0.00099 0.08378 0.0
C2728 C 0.42219 0.02929 0.96397 0.0
C2729 C 0.41883 0.02821 0.89044 0.0
C2730 C 0.42105 0.01857 0.011 0.0
C2731 C 0.41629 0.00647 0.98418 0.0
C2732 C 0.4121 0.00552 0.91119 0.0
C2733 C 0.41355 0.01638 0.86489 0.0
C2734 C 0.42581 0.02001 0.08807 0.0
C2735 C 0.40656 0.9929 0.88124 0.0
H2736 H 0.43841 0.96928 0.06444 0.0
H2737 H 0.40111 0.97733 0.16199 0.0
H2738 H 0.43646 0.9901 0.91807 0.0
H2739 H 0.44343 0.00021 0.9872 0.0
H2740 H 0.44826 0.98324 0.97999 0.0
H2741 H 0.38759 0.99473 0.12276 0.0
H2742 H 0.39696 0.0092 0.10072 0.0
H2743 H 0.39002 -0.00044 0.02962 0.0
H2744 H 0.4262 0.03842 0.98452 0.0
H2745 H 0.41072 0.01552 0.80849 0.0
H2746 H 0.43553 0.01521 0.09346 0.0
H2747 H 0.41905 0.01517 0.12678 0.0
H2748 H 0.42682 0.03047 0.10375 0.0
H2749 H 0.41455 0.9856 0.87495 0.0
H2750 H 0.40184 0.99436 0.8276 0.0
H2751 H 0.39925 0.98868 0.91917 0.0
C2752 C 0.76575 0.83032 0.87592 0.0
C2753 C 0.77823 0.82891 0.84511 0.0
C2754 C 0.75454 0.83116 0.83187 0.0
C2755 C 0.7559 0.83048 0.75555 0.0
C2756 C 0.76851 0.8297 0.72422 0.0
C2757 C 0.7795 0.82898 0.76927 0.0
C2758 C 0.74122 0.83221 0.86704 0.0
C2759 C 0.77037 0.8289 0.64314 0.0
C2760 C 0.72811 0.81538 0.64819 0.0
C2761 C 0.72235 0.82645 0.61696 0.0
C2762 C 0.73905 0.81659 0.69346 0.0
C2763 C 0.74417 0.82922 0.70849 0.0
C2764 C 0.73836 0.84046 0.67673 0.0
C2765 C 0.72746 0.83893 0.631 0.0
C2766 C 0.74507 0.80436 0.72563 0.0
C2767 C 0.74351 0.85407 0.69197 0.0
H2768 H 0.7647 0.83041 0.93434 0.0
H2769 H 0.78911 0.82805 0.7446 0.0
H2770 H 0.73538 0.84011 0.84114 0.0
H2771 H 0.73577 0.82288 0.8594 0.0
H2772 H 0.74192 0.83424 0.92604 0.0
H2773 H 0.78085 0.82967 0.6275 0.0
H2774 H 0.76651 0.8194 0.62297 0.0
H2775 H 0.76485 0.83682 0.61548 0.0
H2776 H 0.72388 0.80578 0.63805 0.0
H2777 H 0.72271 0.84747 0.60781 0.0
H2778 H 0.74481 0.80491 0.78563 0.0
H2779 H 0.75552 0.80361 0.7093 0.0
H2780 H 0.73992 0.79529 0.70826 0.0
H2781 H 0.74322 0.85603 0.75107 0.0
H2782 H 0.73777 0.86179 0.66366 0.0
H2783 H 0.7539 0.85482 0.67471 0.0
C2784 C 0.91099 0.02795 0.54818 0.0
C2785 C 0.91878 0.02696 0.6105 0.0
C2786 C 0.90964 0.01728 0.50071 0.0
C2787 C 0.91674 0.00561 0.51442 0.0
C2788 C 0.92454 0.00457 0.57772 0.0
C2789 C 0.92525 0.0152 0.62586 0.0
C2790 C 0.90076 0.01858 0.43564 0.0
C2791 C 0.93243 0.99237 0.59375 0.0
C2792 C 0.90905 0.97259 0.4306 0.0
C2793 C 0.9181 0.97213 0.37354 0.0
C2794 C 0.90787 0.98381 0.47399 0.0
C2795 C 0.91636 0.99457 0.46188 0.0
C2796 C 0.92523 0.99431 0.40274 0.0
C2797 C 0.92583 0.98313 0.35839 0.0
C2798 C 0.89784 0.98393 0.5342 0.0
C2799 C 0.9347 0.00543 0.38925 0.0
H2800 H 0.90596 0.03709 0.5366 0.0
H2801 H 0.93137 0.01452 0.67376 0.0
H2802 H 0.90671 0.01885 0.38538 0.0
H2803 H 0.89414 0.00996 0.43182 0.0
H2804 H 0.89471 0.02763 0.43784 0.0
H2805 H 0.93898 0.99363 0.64132 0.0
H2806 H 0.92569 0.98409 0.6049 0.0
H2807 H 0.93848 0.98965 0.54611 0.0
H2808 H 0.90301 0.96407 0.44192 0.0
H2809 H 0.93292 0.98268 0.31467 0.0
H2810 H 0.89265 0.9935 0.536 0.0
H2811 H 0.90282 0.98257 0.58704 0.0
H2812 H 0.89048 0.97598 0.52781 0.0
H2813 H 0.92942 0.01492 0.3861 0.0
H2814 H 0.94038 0.00407 0.33846 0.0
H2815 H 0.94168 0.00612 0.43524 0.0
C2816 C 0.73095 0.16089 0.36919 0.0
C2817 C 0.72138 0.17033 0.35368 0.0
C2818 C 0.74198 0.15947 0.32427 0.0
C2819 C 0.74365 0.16806 0.26457 0.0
C2820 C 0.73394 0.17757 0.2488 0.0
C2821 C 0.72281 0.17842 0.29284 0.0
C2822 C 0.75186 0.14885 0.3408 0.0
C2823 C 0.73553 0.18719 0.18713 0.0
C2824 C 0.77795 0.17598 0.2002 0.0
C2825 C 0.77821 0.16989 0.13208 0.0
C2826 C 0.76685 0.17521 0.24454 0.0
C2827 C 0.7559 0.1678 0.22125 0.0
C2828 C 0.75635 0.16107 0.15412 0.0
C2829 C 0.76744 0.16241 0.10955 0.0
C2830 C 0.76665 0.18283 0.31478 0.0
C2831 C 0.74505 0.15266 0.12892 0.0
H2832 H 0.72971 0.15452 0.41572 0.0
H2833 H 0.7154 0.18574 0.28102 0.0
H2834 H 0.75393 0.14302 0.29133 0.0
H2835 H 0.76125 0.15333 0.35834 0.0
H2836 H 0.74842 0.14212 0.38416 0.0
H2837 H 0.72697 0.19386 0.18169 0.0
H2838 H 0.74446 0.19322 0.19599 0.0
H2839 H 0.73685 0.18189 0.13523 0.0
H2840 H 0.78628 0.18177 0.21786 0.0
H2841 H 0.76772 0.15752 0.05741 0.0
H2842 H 0.76478 0.17615 0.36101 0.0
H2843 H 0.75856 0.19012 0.31363 0.0
H2844 H 0.77601 0.1881 0.32487 0.0
H2845 H 0.74189 0.14594 0.17291 0.0
H2846 H 0.74763 0.14673 0.08048 0.0
H2847 H 0.73654 0.15896 0.11511 0.0
C2848 C 0.58631 0.01682 0.86288 0.0
C2849 C 0.58115 0.02845 0.89181 0.0
C2850 C 0.58746 0.00548 0.90585 0.0
C2851 C 0.58307 0.00575 0.97867 0.0
C2852 C 0.57827 0.01758 0.00866 0.0
C2853 C 0.57747 0.02878 0.9651 0.0
C2854 C 0.59305 0.99314 0.8729 0.0
C2855 C 0.57322 0.01825 0.08553 0.0
C2856 C 0.56948 0.97449 0.05988 0.0
C2857 C 0.57906 0.97136 0.11131 0.0
C2858 C 0.57076 0.9856 0.01589 0.0
C2859 C 0.58216 0.99346 0.02157 0.0
C2860 C 0.59212 0.99004 0.07172 0.0
C2861 C 0.59031 0.97914 0.11728 0.0
C2862 C 0.55973 0.98912 0.96478 0.0
C2863 C 0.60462 0.99792 0.07731 0.0
H2864 H 0.58933 0.01655 0.80661 0.0
H2865 H 0.57346 0.03772 0.98809 0.0
H2866 H 0.60085 0.98908 0.90833 0.0
H2867 H 0.58528 0.98557 0.86849 0.0
H2868 H 0.59721 0.99488 0.8181 0.0
H2869 H 0.57111 0.02848 0.10267 0.0
H2870 H 0.56405 0.01243 0.08994 0.0
H2871 H 0.5804 0.01397 0.12387 0.0
H2872 H 0.5608 0.96838 0.05535 0.0
H2873 H 0.59781 0.9765 0.15629 0.0
H2874 H 0.56338 0.98944 0.90824 0.0
H2875 H 0.55593 -0.00096 0.97801 0.0
H2876 H 0.55147 0.98202 0.96759 0.0
H2877 H 0.60909 -0.00089 0.02291 0.0
H2878 H 0.61189 0.99323 0.11388 0.0
H2879 H 0.60242 0.00788 0.09814 0.0
C2880 C 0.77712 0.67703 0.78686 0.0
C2881 C 0.7777 0.66999 0.85209 0.0
C2882 C 0.76606 0.67637 0.74215 0.0
C2883 C 0.75545 0.66818 0.76212 0.0
C2884 C 0.75622 0.66057 0.82624 0.0
C2885 C 0.76727 0.66174 0.87124 0.0
C2886 C 0.7655 0.68492 0.67528 0.0
C2887 C 0.7453 0.65136 0.84785 0.0
C2888 C 0.72185 0.67822 0.69525 0.0
C2889 C 0.72061 0.67075 0.63184 0.0
C2890 C 0.73309 0.67735 0.73844 0.0
C2891 C 0.74318 0.6685 0.71892 0.0
C2892 C 0.7418 0.6606 0.65621 0.0
C2893 C 0.73059 0.66199 0.61254 0.0
C2894 C 0.7343 0.68619 0.80382 0.0
C2895 C 0.75214 0.65071 0.63528 0.0
H2896 H 0.78517 0.68343 0.77187 0.0
H2897 H 0.76779 0.65614 0.9211 0.0
H2898 H 0.76355 0.67886 0.62659 0.0
H2899 H 0.75731 0.69203 0.68037 0.0
H2900 H 0.77474 0.69047 0.66643 0.0
H2901 H 0.74817 0.64486 0.89349 0.0
H2902 H 0.73657 0.6571 0.86459 0.0
H2903 H 0.74235 0.64518 0.80113 0.0
H2904 H 0.71413 0.68502 0.71021 0.0
H2905 H 0.72954 0.65608 0.56409 0.0
H2906 H 0.74315 0.69247 0.7984 0.0
H2907 H 0.73554 0.68024 0.85363 0.0
H2908 H 0.72561 0.69263 0.81096 0.0
H2909 H 0.76126 0.65585 0.61895 0.0
H2910 H 0.74893 0.64436 0.58969 0.0
H2911 H 0.7546 0.64439 0.68236 0.0
C2912 C 0.58816 0.47112 0.93671 0.0
C2913 C 0.57962 0.47111 0.8772 0.0
C2914 C 0.58942 0.48224 0.98085 0.0
C2915 C 0.58154 0.49337 0.96673 0.0
C2916 C 0.57318 0.49353 0.90536 0.0
C2917 C 0.57249 0.48244 0.86051 0.0
C2918 C 0.59897 0.48199 0.04339 0.0
C2919 C 0.56444 0.50514 0.88929 0.0
C2920 C 0.57195 0.51503 0.12521 0.0
C2921 C 0.57898 0.52648 0.10986 0.0
C2922 C 0.57285 0.50407 0.07945 0.0
C2923 C 0.58134 0.50449 0.01863 0.0
C2924 C 0.58907 0.51578 0.00567 0.0
C2925 C 0.58757 0.52676 0.0506 0.0
C2926 C 0.56423 0.49231 0.09411 0.0
C2927 C 0.59864 0.51642 0.94334 0.0
H2928 H 0.59376 0.46235 0.94918 0.0
H2929 H 0.56582 0.48236 0.8148 0.0
H2930 H 0.60552 0.49067 0.04081 0.0
H2931 H 0.59357 0.48253 0.09546 0.0
H2932 H 0.60508 0.47296 0.04358 0.0
H2933 H 0.55857 0.50373 0.83918 0.0
H2934 H 0.55762 0.50676 0.93531 0.0
H2935 H 0.57039 0.51418 0.88315 0.0
H2936 H 0.56521 0.5149 0.17062 0.0
H2937 H 0.59305 0.53564 0.039 0.0
H2938 H 0.57029 0.48334 0.10002 0.0
H2939 H 0.55754 0.4907 0.0475 0.0
H2940 H 0.55823 0.49352 0.14389 0.0
H2941 H 0.60443 0.50723 0.93973 0.0
H2942 H 0.60551 0.52484 0.94867 0.0
H2943 H 0.59321 0.51755 0.8917 0.0
C2944 C 0.72528 0.34352 0.32427 0.0
C2945 C 0.72501 0.33392 0.3786 0.0
C2946 C 0.73618 0.34486 0.27862 0.0
C2947 C 0.74679 0.33602 0.2858 0.0
C2948 C 0.74686 0.32677 0.34328 0.0
C2949 C 0.73599 0.32597 0.38982 0.0
C2950 C 0.736 0.35526 0.22037 0.0
C2951 C 0.7579 0.31703 0.3521 0.0
C2952 C 0.76529 0.32671 0.11495 0.0
C2953 C 0.77746 0.33262 0.12722 0.0
C2954 C 0.75514 0.32788 0.16592 0.0
C2955 C 0.75713 0.33553 0.2292 0.0
C2956 C 0.76916 0.34219 0.23941 0.0
C2957 C 0.77929 0.34043 0.18894 0.0
C2958 C 0.74252 0.32044 0.15368 0.0
C2959 C 0.77149 0.35086 0.30448 0.0
H2960 H 0.71675 0.3497 0.31595 0.0
H2961 H 0.73567 0.31845 0.43138 0.0
H2962 H 0.74562 0.36033 0.21734 0.0
H2963 H 0.73418 0.35063 0.16697 0.0
H2964 H 0.72823 0.3627 0.22999 0.0
H2965 H 0.7571 0.31138 0.4034 0.0
H2966 H 0.75774 0.31002 0.30608 0.0
H2967 H 0.76753 0.32207 0.35108 0.0
H2968 H 0.76396 0.32056 0.06758 0.0
H2969 H 0.78872 0.34505 0.19816 0.0
H2970 H 0.7341 0.32731 0.15259 0.0
H2971 H 0.74086 0.31349 0.19909 0.0
H2972 H 0.74261 0.31482 0.10213 0.0
H2973 H 0.76303 0.35754 0.313 0.0
H2974 H 0.78053 0.35685 0.29868 0.0
H2975 H 0.77247 0.34473 0.3538 0.0
C2976 C 0.91079 0.48189 0.63064 0.0
C2977 C 0.92007 0.47228 0.61318 0.0
C2978 C 0.90957 0.49327 0.58801 0.0
C2979 C 0.91819 0.49521 0.52875 0.0
C2980 C 0.92765 0.48553 0.51162 0.0
C2981 C 0.92829 0.47408 0.55326 0.0
C2982 C 0.89902 0.50314 0.60592 0.0
C2983 C 0.93732 0.48739 0.45042 0.0
C2984 C 0.91283 0.5191 0.37393 0.0
C2985 C 0.92047 0.52977 0.39632 0.0
C2986 C 0.91125 0.50808 0.41886 0.0
C2987 C 0.91789 0.50758 0.48624 0.0
C2988 C 0.9254 0.51846 0.50959 0.0
C2989 C 0.92641 0.52951 0.46484 0.0
C2990 C 0.90273 0.49687 0.39348 0.0
C2991 C 0.93295 0.51819 0.58 0.0
H2992 H 0.90433 0.48037 0.67651 0.0
H2993 H 0.93551 0.46664 0.54006 0.0
H2994 H 0.90353 0.51257 0.62258 0.0
H2995 H 0.89298 0.50515 0.55717 0.0
H2996 H 0.89249 0.4997 0.65019 0.0
H2997 H 0.9443 0.47907 0.44573 0.0
H2998 H 0.93203 0.48841 0.39824 0.0
H2999 H 0.943 0.49655 0.45895 0.0
H3000 H 0.90805 0.51939 0.32151 0.0
H3001 H 0.93232 0.53777 0.48239 0.0
H3002 H 0.89612 0.4936 0.43768 0.0
H3003 H 0.90897 0.48839 0.37842 0.0
H3004 H 0.8967 0.49961 0.34569 0.0
H3005 H 0.92632 0.51593 0.62587 0.0
H3006 H 0.93796 0.52766 0.59133 0.0
H3007 H 0.94045 0.51031 0.57791 0.0
C3008 C 0.27848 0.32569 0.27767 0.0
C3009 C 0.27763 0.32795 0.35263 0.0
C3010 C 0.26739 0.32641 0.23324 0.0
C3011 C 0.25514 0.32968 0.26411 0.0
C3012 C 0.25428 0.33259 0.33904 0.0
C3013 C 0.26554 0.33157 0.38268 0.0
C3014 C 0.26871 0.32301 0.15388 0.0
C3015 C 0.24142 0.33644 0.37342 0.0
C3016 C 0.22809 0.33829 0.13056 0.0
C3017 C 0.22101 0.32654 0.12892 0.0
C3018 C 0.23904 0.33965 0.17623 0.0
C3019 C 0.24312 0.32884 0.21899 0.0
C3020 C 0.23605 0.31689 0.21625 0.0
C3021 C 0.22491 0.31598 0.17219 0.0
C3022 C 0.24611 0.35265 0.17947 0.0
C3023 C 0.24032 0.30501 0.25916 0.0
H3024 H 0.28777 0.32293 0.25361 0.0
H3025 H 0.26484 0.33349 0.4403 0.0
H3026 H 0.26321 0.31385 0.14227 0.0
H3027 H 0.26445 0.33087 0.11966 0.0
H3028 H 0.27909 0.32156 0.13767 0.0
H3029 H 0.2427 0.33998 0.4299 0.0
H3030 H 0.23658 0.34426 0.34119 0.0
H3031 H 0.23471 0.32787 0.37421 0.0
H3032 H 0.22483 0.34651 0.09787 0.0
H3033 H 0.21929 0.30694 0.17088 0.0
H3034 H 0.25639 0.35144 0.16103 0.0
H3035 H 0.24647 0.3562 0.23625 0.0
H3036 H 0.24132 0.36025 0.14537 0.0
H3037 H 0.2505 0.30229 0.24421 0.0
H3038 H 0.23386 0.29639 0.24977 0.0
H3039 H 0.24029 0.3073 0.31788 0.0
C3040 C 0.41275 0.48176 0.86042 0.0
C3041 C 0.41972 0.47108 0.88885 0.0
C3042 C 0.41164 0.49354 0.8995 0.0
C3043 C 0.41801 0.49475 0.96734 0.0
C3044 C 0.42502 0.48396 -0.00369 0.0
C3045 C 0.42556 0.47219 0.95734 0.0
C3046 C 0.4037 0.50468 0.86818 0.0
C3047 C 0.43208 0.48477 0.06814 0.0
C3048 C 0.42829 0.52846 0.03276 0.0
C3049 C 0.41981 0.53034 0.09152 0.0
C3050 C 0.42768 0.51697 0.99118 0.0
C3051 C 0.41796 0.50745 0.00675 0.0
C3052 C 0.40896 0.50962 0.06393 0.0
C3053 C 0.41016 0.52095 0.10664 0.0
C3054 C 0.43782 0.51477 0.93276 0.0
C3055 C 0.39828 0.49986 0.08103 0.0
H3056 H 0.40808 0.48088 0.8079 0.0
H3057 H 0.43094 0.46395 0.97979 0.0
H3058 H 0.39658 0.50833 0.90891 0.0
H3059 H 0.41026 0.51298 0.85412 0.0
H3060 H 0.39827 0.50171 0.81868 0.0
H3061 H 0.44002 0.47735 0.07188 0.0
H3062 H 0.43647 0.4946 0.07717 0.0
H3063 H 0.42501 0.48285 0.11254 0.0
H3064 H 0.43577 0.53573 0.02116 0.0
H3065 H 0.40349 0.52252 0.15156 0.0
H3066 H 0.43303 0.51485 0.87886 0.0
H3067 H 0.44254 0.50504 0.93972 0.0
H3068 H 0.44559 0.52241 0.93334 0.0
H3069 H 0.39319 0.49677 0.03069 0.0
H3070 H 0.39092 0.50392 0.11933 0.0
H3071 H 0.40266 0.49096 0.10575 0.0
C3072 C 0.2215 0.65738 0.81183 0.0
C3073 C 0.22157 0.66682 0.86691 0.0
C3074 C 0.23235 0.65588 0.76583 0.0
C3075 C 0.24316 0.6645 0.77298 0.0
C3076 C 0.24337 0.67384 0.82985 0.0
C3077 C 0.23264 0.67471 0.87714 0.0
C3078 C 0.23206 0.64534 0.70837 0.0
C3079 C 0.25455 0.68346 0.83812 0.0
C3080 C 0.27619 0.6594 0.68305 0.0
C3081 C 0.27484 0.66704 0.62031 0.0
C3082 C 0.26568 0.65782 0.7313 0.0
C3083 C 0.25377 0.66451 0.71786 0.0
C3084 C 0.25227 0.67198 0.65356 0.0
C3085 C 0.26278 0.67295 0.6048 0.0
C3086 C 0.26749 0.6493 0.79752 0.0
C3087 C 0.23984 0.67955 0.63822 0.0
H3088 H 0.21291 0.65126 0.80433 0.0
H3089 H 0.23256 0.6821 0.91939 0.0
H3090 H 0.23062 0.64988 0.65437 0.0
H3091 H 0.24153 0.63998 0.70704 0.0
H3092 H 0.22401 0.63818 0.71758 0.0
H3093 H 0.25323 0.69005 0.88552 0.0
H3094 H 0.26396 0.67816 0.84444 0.0
H3095 H 0.25534 0.68958 0.78855 0.0
H3096 H 0.28552 0.65477 0.69475 0.0
H3097 H 0.26181 0.67896 0.55661 0.0
H3098 H 0.25877 0.64296 0.8061 0.0
H3099 H 0.2686 0.65558 0.84619 0.0
H3100 H 0.27632 0.64297 0.79312 0.0
H3101 H 0.23129 0.67284 0.6377 0.0
H3102 H 0.24023 0.6848 0.58553 0.0
H3103 H 0.23816 0.68684 0.68191 0.0
C3104 C 0.08571 0.52831 0.44916 0.0
C3105 C 0.07888 0.52704 0.38364 0.0
C3106 C 0.08676 0.5177 0.49725 0.0
C3107 C 0.08033 0.50576 0.48063 0.0
C3108 C 0.07346 0.50445 0.41427 0.0
C3109 C 0.07304 0.51505 0.36584 0.0
C3110 C 0.09466 0.51929 0.56589 0.0
C3111 C 0.06616 0.49201 0.3956 0.0
C3112 C 0.08822 0.47332 0.57138 0.0
C3113 C 0.07864 0.47284 0.62561 0.0
C3114 C 0.08939 0.48435 0.52635 0.0
C3115 C 0.08032 0.49479 0.53363 0.0
C3116 C 0.07072 0.49437 0.58914 0.0
C3117 C 0.07017 0.48347 0.6355 0.0
C3118 C 0.10012 0.48467 0.47001 0.0
C3119 C 0.06061 0.5051 0.59713 0.0
H3120 H 0.09029 0.5376 0.46261 0.0
H3121 H 0.06764 0.51416 0.31546 0.0
H3122 H 0.08813 0.51866 0.61378 0.0
H3123 H 0.10192 0.51122 0.57057 0.0
H3124 H 0.09994 0.52882 0.56777 0.0
H3125 H 0.06119 0.49261 0.34215 0.0
H3126 H 0.07301 0.48357 0.39472 0.0
H3127 H 0.05868 0.48994 0.43777 0.0
H3128 H 0.09475 0.46503 0.56403 0.0
H3129 H 0.06265 0.48293 0.67695 0.0
H3130 H 0.10518 0.49431 0.47063 0.0
H3131 H 0.09582 0.48336 0.41532 0.0
H3132 H 0.1075 0.47681 0.47879 0.0
H3133 H 0.06545 0.51476 0.60391 0.0
H3134 H 0.054 0.50343 0.64407 0.0
H3135 H 0.05457 0.50566 0.54718 0.0
C3136 C 0.16154 0.12824 0.88673 0.0
C3137 C 0.15726 0.13689 0.94093 0.0
C3138 C 0.15304 0.11893 0.8565 0.0
C3139 C 0.14026 0.11754 0.88522 0.0
C3140 C 0.13618 0.12559 0.94345 0.0
C3141 C 0.14455 0.13548 0.9688 0.0
C3142 C 0.15753 0.11102 0.79191 0.0
C3143 C 0.12286 0.12395 0.97813 0.0
C3144 C 0.1119 0.10388 0.77652 0.0
C3145 C 0.11181 0.09072 0.79848 0.0
C3146 C 0.12159 0.11253 0.80126 0.0
C3147 C 0.13093 0.10809 0.85246 0.0
C3148 C 0.13094 0.09479 0.87446 0.0
C3149 C 0.12164 0.08616 0.8452 0.0
C3150 C 0.12165 0.12649 0.77372 0.0
C3151 C 0.14034 0.08981 0.93141 0.0
H3152 H 0.17148 0.12896 0.86638 0.0
H3153 H 0.141 0.14225 0.00944 0.0
H3154 H 0.15716 0.10039 0.8043 0.0
H3155 H 0.15082 0.11277 0.74555 0.0
H3156 H 0.16766 0.11357 0.77493 0.0
H3157 H 0.12202 0.12954 0.02959 0.0
H3158 H 0.11514 0.12746 0.94059 0.0
H3159 H 0.12089 0.11343 0.98946 0.0
H3160 H 0.10425 0.1075 0.74108 0.0
H3161 H 0.12178 0.07591 0.86083 0.0
H3162 H 0.13172 0.12945 0.7577 0.0
H3163 H 0.11842 0.13323 0.81733 0.0
H3164 H 0.11503 0.12781 0.7265 0.0
H3165 H 0.15062 0.09151 0.91437 0.0
H3166 H 0.13903 0.07918 0.94254 0.0
H3167 H 0.13882 0.09532 0.9826 0.0
C3168 C 0.14472 0.86247 0.02598 0.0
C3169 C 0.15791 0.86228 0.04723 0.0
C3170 C 0.13628 0.87241 0.04967 0.0
C3171 C 0.14087 0.88176 0.10036 0.0
C3172 C 0.15424 0.88181 0.12083 0.0
C3173 C 0.16271 0.87239 0.09132 0.0
C3174 C 0.12232 0.87259 0.02231 0.0
C3175 C 0.15941 0.89106 0.17802 0.0
C3176 C 0.12006 0.91156 0.14364 0.0
C3177 C 0.11137 0.90642 0.19532 0.0
C3178 C 0.12963 0.90363 0.1112 0.0
C3179 C 0.13138 0.89064 0.13626 0.0
C3180 C 0.12341 0.88577 0.19297 0.0
C3181 C 0.11314 0.89351 0.21948 0.0
C3182 C 0.13736 0.90893 0.0478 0.0
C3183 C 0.12549 0.87224 0.22452 0.0
H3184 H 0.14088 0.85469 0.99217 0.0
H3185 H 0.17303 0.87263 0.10534 0.0
H3186 H 0.11567 0.86861 0.06445 0.0
H3187 H 0.11915 0.88278 0.01021 0.0
H3188 H 0.12114 0.86655 0.97263 0.0
H3189 H 0.1703 0.89113 0.17998 0.0
H3190 H 0.15591 0.90122 0.16911 0.0
H3191 H 0.15569 0.88788 0.23174 0.0
H3192 H 0.11913 0.92169 0.12663 0.0
H3193 H 0.10638 0.88929 0.25822 0.0
H3194 H 0.13564 0.90267 -0.00048 0.0
H3195 H 0.14801 0.90863 0.0594 0.0
H3196 H 0.1346 0.91919 0.03414 0.0
H3197 H 0.12175 0.86472 0.1864 0.0
H3198 H 0.12029 0.87101 0.277 0.0
H3199 H 0.13609 0.87032 0.23312 0.0
C3200 C 0.35453 0.85458 0.39018 0.0
C3201 C 0.343 0.85855 0.42459 0.0
C3202 C 0.36364 0.86388 0.36589 0.0
C3203 C 0.36106 0.87741 0.37655 0.0
C3204 C 0.34933 0.88141 0.41112 0.0
C3205 C 0.3404 0.87188 0.43483 0.0
C3206 C 0.37605 0.85926 0.32927 0.0
C3207 C 0.34626 0.89574 0.42331 0.0
C3208 C 0.3902 0.90046 0.37608 0.0
C3209 C 0.38971 0.90547 0.30554 0.0
C3210 C 0.38083 0.89141 0.40023 0.0
C3211 C 0.37076 0.88733 0.3525 0.0
C3212 C 0.37014 0.89251 0.28141 0.0
C3213 C 0.37966 0.90154 0.25871 0.0
C3214 C 0.38182 0.88607 0.47637 0.0
C3215 C 0.35948 0.88845 0.22928 0.0
H3216 H 0.35638 0.84419 0.38244 0.0
H3217 H 0.33138 0.8748 0.46147 0.0
H3218 H 0.37678 0.8636 0.2743 0.0
H3219 H 0.38472 0.86263 0.36041 0.0
H3220 H 0.37647 0.8484 0.32437 0.0
H3221 H 0.33659 0.8972 0.44989 0.0
H3222 H 0.35395 0.90026 0.4577 0.0
H3223 H 0.34626 0.90106 0.37088 0.0
H3224 H 0.39806 0.90345 0.41196 0.0
H3225 H 0.37924 0.90559 0.20446 0.0
H3226 H 0.38332 0.87529 0.4746 0.0
H3227 H 0.37254 0.88787 0.5061 0.0
H3228 H 0.39001 0.89057 0.50728 0.0
H3229 H 0.36005 0.87773 0.21918 0.0
H3230 H 0.3602 0.89366 0.17655 0.0
H3231 H 0.3497 0.89046 0.2532 0.0
C3232 C 0.37903 0.0955 0.72076 0.0
C3233 C 0.38901 0.09099 0.67515 0.0
C3234 C 0.36953 0.10428 0.69514 0.0
C3235 C 0.37013 0.10865 0.62238 0.0
C3236 C 0.38003 0.10384 0.57567 0.0
C3237 C 0.38936 0.09502 0.6027 0.0
C3238 C 0.35903 0.10912 0.74628 0.0
C3239 C 0.38099 0.1083 0.49784 0.0
C3240 C 0.34006 0.12478 0.54053 0.0
C3241 C 0.34332 0.13805 0.54716 0.0
C3242 C 0.34876 0.11503 0.56437 0.0
C3243 C 0.36083 0.11877 0.59619 0.0
C3244 C 0.36407 0.13223 0.60311 0.0
C3245 C 0.35526 0.14174 0.57803 0.0
C3246 C 0.34504 0.10078 0.55563 0.0
C3247 C 0.3768 0.13657 0.63732 0.0
H3248 H 0.37871 0.09219 0.77654 0.0
H3249 H 0.39717 0.09157 0.56773 0.0
H3250 H 0.3601 0.11986 0.75437 0.0
H3251 H 0.34918 0.1074 0.72268 0.0
H3252 H 0.35953 0.10422 0.79997 0.0
H3253 H 0.38878 0.10301 0.46756 0.0
H3254 H 0.3715 0.10677 0.46972 0.0
H3255 H 0.38316 0.11897 0.49603 0.0
H3256 H 0.33074 0.12207 0.51657 0.0
H3257 H 0.35761 0.15208 0.58318 0.0
H3258 H 0.3448 0.0959 0.60933 0.0
H3259 H 0.35253 0.09564 0.52253 0.0
H3260 H 0.33532 0.09955 0.52931 0.0
H3261 H 0.37746 0.13275 0.6935 0.0
H3262 H 0.37778 0.14743 0.6389 0.0
H3263 H 0.38521 0.13246 0.60669 0.0
C3264 C 0.85455 0.86178 0.01832 0.0
C3265 C 0.84147 0.8611 0.04116 0.0
C3266 C 0.86277 0.87196 0.04152 0.0
C3267 C 0.85806 0.8811 0.09303 0.0
C3268 C 0.84486 0.8805 0.11628 0.0
C3269 C 0.83659 0.87082 0.08772 0.0
C3270 C 0.87659 0.87268 0.01232 0.0
C3271 C 0.83967 0.8896 0.17417 0.0
C3272 C 0.88548 0.89478 0.20802 0.0
C3273 C 0.8865 0.90766 0.18208 0.0
C3274 C 0.87565 0.88635 0.18289 0.0
C3275 C 0.86728 0.89057 0.12642 0.0
C3276 C 0.86826 0.90354 0.09967 0.0
C3277 C 0.87753 0.9121 0.12999 0.0
C3278 C 0.87444 0.87283 0.21586 0.0
C3279 C 0.86002 0.90818 0.03666 0.0
H3280 H 0.8585 0.85422 0.98332 0.0
H3281 H 0.82638 0.87062 0.10374 0.0
H3282 H 0.87916 0.88295 -0.0019 0.0
H3283 H 0.8836 0.86934 0.0543 0.0
H3284 H 0.8779 0.86643 0.96355 0.0
H3285 H 0.82909 0.88795 0.18537 0.0
H3286 H 0.84524 0.88804 0.22511 0.0
H3287 H 0.84108 0.89998 0.15824 0.0
H3288 H 0.89249 0.89117 0.24733 0.0
H3289 H 0.87798 0.92217 0.11137 0.0
H3290 H 0.87814 0.86537 0.17725 0.0
H3291 H 0.86401 0.87049 0.22733 0.0
H3292 H 0.88012 0.87193 0.267 0.0
H3293 H 0.86249 0.90231 0.98788 0.0
H3294 H 0.86166 0.91872 0.02413 0.0
H3295 H 0.84946 0.90665 0.04771 0.0
C3296 C 0.83996 0.12536 0.94448 0.0
C3297 C 0.84184 0.1384 0.92373 0.0
C3298 C 0.8487 0.11557 0.92166 0.0
C3299 C 0.85957 0.11907 0.87798 0.0
C3300 C 0.86136 0.13229 0.85637 0.0
C3301 C 0.85239 0.14183 0.87941 0.0
C3302 C 0.8464 0.10155 0.94495 0.0
C3303 C 0.87288 0.13639 0.81023 0.0
C3304 C 0.8898 0.09749 0.87882 0.0
C3305 C 0.88869 0.09117 0.81187 0.0
C3306 C 0.88025 0.10647 0.90161 0.0
C3307 C 0.86931 0.10901 0.85648 0.0
C3308 C 0.86799 0.10234 0.78963 0.0
C3309 C 0.87778 0.09353 0.76786 0.0
C3310 C 0.88205 0.1135 0.97292 0.0
C3311 C 0.85636 0.10466 0.74069 0.0
H3312 H 0.83171 0.12286 0.97885 0.0
H3313 H 0.85372 0.15201 0.86384 0.0
H3314 H 0.84606 0.09504 0.89685 0.0
H3315 H 0.85466 0.09818 0.97934 0.0
H3316 H 0.83713 0.10039 0.97589 0.0
H3317 H 0.87269 0.14703 0.79704 0.0
H3318 H 0.88217 0.13416 0.839 0.0
H3319 H 0.87296 0.13074 0.75888 0.0
H3320 H 0.89832 0.09564 0.91244 0.0
H3321 H 0.87694 0.08849 0.71634 0.0
H3322 H 0.87334 0.11201 0.0079 0.0
H3323 H 0.88299 0.12421 0.96324 0.0
H3324 H 0.89089 0.11007 0.00261 0.0
H3325 H 0.8471 0.10306 0.771 0.0
H3326 H 0.85643 0.09811 0.69258 0.0
H3327 H 0.85634 0.11499 0.72177 0.0
C3328 C 0.65675 0.12748 0.53277 0.0
C3329 C 0.65687 0.14004 0.56311 0.0
C3330 C 0.64811 0.11787 0.55877 0.0
C3331 C 0.63922 0.12111 0.61493 0.0
C3332 C 0.63936 0.13385 0.64558 0.0
C3333 C 0.64834 0.14315 0.61975 0.0
C3334 C 0.64846 0.10429 0.52613 0.0
C3335 C 0.62984 0.13775 0.70446 0.0
C3336 C 0.60789 0.10135 0.62954 0.0
C3337 C 0.61044 0.09368 0.6907 0.0
C3338 C 0.61721 0.11034 0.60422 0.0
C3339 C 0.62944 0.11136 0.64004 0.0
C3340 C 0.63215 0.10334 0.70091 0.0
C3341 C 0.62249 0.09469 0.72624 0.0
C3342 C 0.61386 0.11894 0.54016 0.0
C3343 C 0.64523 0.10391 0.73914 0.0
H3344 H 0.6635 0.12518 0.48919 0.0
H3345 H 0.64855 0.15293 0.6428 0.0
H3346 H 0.64972 0.09683 0.5694 0.0
H3347 H 0.63901 0.10217 0.4987 0.0
H3348 H 0.65651 0.10315 0.48611 0.0
H3349 H 0.63127 0.14805 0.72248 0.0
H3350 H 0.61963 0.13662 0.68459 0.0
H3351 H 0.63097 0.13119 0.75199 0.0
H3352 H 0.59849 0.10047 0.60248 0.0
H3353 H 0.62438 0.08859 0.77325 0.0
H3354 H 0.62107 0.1174 0.49599 0.0
H3355 H 0.61443 0.12942 0.55612 0.0
H3356 H 0.60389 0.11693 0.51867 0.0
H3357 H 0.65329 0.10228 0.69976 0.0
H3358 H 0.64602 0.09647 0.78295 0.0
H3359 H 0.6467 0.11378 0.76309 0.0
C3360 C 0.61255 0.89411 0.27709 0.0
C3361 C 0.61193 0.90712 0.30146 0.0
C3362 C 0.62252 0.88567 0.30056 0.0
C3363 C 0.63149 0.89005 0.35381 0.0
C3364 C 0.63094 0.90316 0.37874 0.0
C3365 C 0.62151 0.91168 0.34986 0.0
C3366 C 0.62325 0.87197 0.26953 0.0
C3367 C 0.63985 0.90801 0.4384 0.0
C3368 C 0.64517 0.8621 0.46539 0.0
C3369 C 0.65806 0.86129 0.43959 0.0
C3370 C 0.6367 0.87199 0.44126 0.0
C3371 C 0.64093 0.88068 0.38619 0.0
C3372 C 0.65394 0.87995 0.35998 0.0
C3373 C 0.6625 0.87058 0.38918 0.0
C3374 C 0.62312 0.87292 0.47361 0.0
C3375 C 0.65861 0.88853 0.29842 0.0
H3376 H 0.6051 0.89039 0.24074 0.0
H3377 H 0.6214 0.92183 0.36706 0.0
H3378 H 0.63353 0.8694 0.25589 0.0
H3379 H 0.61974 0.86478 0.31023 0.0
H3380 H 0.61714 0.87092 0.22003 0.0
H3381 H 0.63796 0.91844 0.45253 0.0
H3382 H 0.6384 0.90193 0.48766 0.0
H3383 H 0.65026 0.907 0.42231 0.0
H3384 H 0.64157 0.85485 0.50342 0.0
H3385 H 0.67257 0.87024 0.37058 0.0
H3386 H 0.61578 0.86934 0.43401 0.0
H3387 H 0.62068 0.88328 0.48647 0.0
H3388 H 0.62219 0.86698 0.52381 0.0
H3389 H 0.65278 0.88632 0.24912 0.0
H3390 H 0.66915 0.88698 0.28585 0.0
H3391 H 0.65707 0.89904 0.31118 0.0
C3392 C 0.61823 0.58635 0.36282 0.0
C3393 C 0.60922 0.59078 0.31087 0.0
C3394 C 0.62759 0.59487 0.3926 0.0
C3395 C 0.62864 0.60781 0.36545 0.0
C3396 C 0.6201 0.6121 0.30988 0.0
C3397 C 0.61018 0.6037 0.28533 0.0
C3398 C 0.63599 0.59018 0.45482 0.0
C3399 C 0.62132 0.6256 0.27672 0.0
C3400 C 0.64297 0.63623 0.47086 0.0
C3401 C 0.65594 0.63644 0.44584 0.0
C3402 C 0.63425 0.62637 0.44896 0.0
C3403 C 0.63832 0.61709 0.39662 0.0
C3404 C 0.65139 0.61724 0.37096 0.0
C3405 C 0.66017 0.62661 0.39808 0.0
C3406 C 0.6206 0.62611 0.4807 0.0
C3407 C 0.65592 0.60796 0.31226 0.0
H3408 H 0.61782 0.57628 0.38137 0.0
H3409 H 0.6031 0.60734 0.24648 0.0
H3410 H 0.64651 0.59066 0.44014 0.0
H3411 H 0.63454 0.5967 0.50231 0.0
H3412 H 0.63362 0.57995 0.47112 0.0
H3413 H 0.61532 0.62662 0.22682 0.0
H3414 H 0.61805 0.63312 0.31612 0.0
H3415 H 0.63171 0.62773 0.26308 0.0
H3416 H 0.63949 0.6439 0.50654 0.0
H3417 H 0.67028 0.62646 0.38016 0.0
H3418 H 0.61778 0.61594 0.49557 0.0
H3419 H 0.61344 0.62966 0.43998 0.0
H3420 H 0.61979 0.63242 0.52957 0.0
H3421 H 0.65455 0.59764 0.32944 0.0
H3422 H 0.6664 0.60945 0.29794 0.0
H3423 H 0.64989 0.60945 0.26287 0.0
C3424 C 0.66041 0.37036 0.59704 0.0
C3425 C 0.65673 0.36063 0.5474 0.0
C3426 C 0.6513 0.37958 0.62228 0.0
C3427 C 0.63845 0.37959 0.59344 0.0
C3428 C 0.63492 0.37033 0.53976 0.0
C3429 C 0.64398 0.36069 0.51916 0.0
C3430 C 0.65536 0.38907 0.68095 0.0
C3431 C 0.62158 0.37055 0.50435 0.0
C3432 C 0.60971 0.39302 0.69978 0.0
C3433 C 0.60909 0.40601 0.67515 0.0
C3434 C 0.61959 0.38452 0.67584 0.0
C3435 C 0.62847 0.38882 0.6219 0.0
C3436 C 0.62766 0.40181 0.59512 0.0
C3437 C 0.6183 0.4104 0.62422 0.0
C3438 C 0.62057 0.37098 0.70879 0.0
C3439 C 0.63661 0.40674 0.53584 0.0
H3440 H 0.67038 0.37062 0.61732 0.0
H3441 H 0.641 0.35312 0.48138 0.0
H3442 H 0.65576 0.39916 0.65862 0.0
H3443 H 0.64806 0.38906 0.72554 0.0
H3444 H 0.66514 0.38665 0.70388 0.0
H3445 H 0.62103 0.36384 0.45704 0.0
H3446 H 0.61397 0.36757 0.54399 0.0
H3447 H 0.61918 0.38066 0.48607 0.0
H3448 H 0.60248 0.38946 0.73798 0.0
H3449 H 0.61813 0.42053 0.60643 0.0
H3450 H 0.63078 0.36906 0.72686 0.0
H3451 H 0.61807 0.36345 0.66774 0.0
H3452 H 0.6139 0.36974 0.75587 0.0
H3453 H 0.64602 0.40999 0.55989 0.0
H3454 H 0.63225 0.41526 0.507 0.0
H3455 H 0.63876 0.39894 0.49561 0.0
C3456 C 0.87513 0.40843 0.7822 0.0
C3457 C 0.88827 0.40621 0.79958 0.0
C3458 C 0.86539 0.39964 0.80511 0.0
C3459 C 0.86903 0.38843 0.8458 0.0
C3460 C 0.88237 0.38624 0.86351 0.0
C3461 C 0.89186 0.39523 0.8402 0.0
C3462 C 0.85126 0.40231 0.78583 0.0
C3463 C 0.88661 0.37438 0.90662 0.0
C3464 C 0.84436 0.3704 0.96247 0.0
C3465 C 0.84135 0.35964 0.91849 0.0
C3466 C 0.85307 0.38011 0.9385 0.0
C3467 C 0.85896 0.37886 0.86941 0.0
C3468 C 0.85572 0.3681 0.82429 0.0
C3469 C 0.84685 0.35863 0.84934 0.0
C3470 C 0.85614 0.39156 0.98753 0.0
C3471 C 0.86191 0.36639 0.75058 0.0
H3472 H 0.8725 0.41704 0.75086 0.0
H3473 H 0.90211 0.39369 0.85343 0.0
H3474 H 0.84733 0.39415 0.75255 0.0
H3475 H 0.84523 0.40283 0.83579 0.0
H3476 H 0.85006 0.41163 0.75525 0.0
H3477 H 0.89737 0.37417 0.91586 0.0
H3478 H 0.8816 0.37429 0.95995 0.0
H3479 H 0.88372 0.36528 0.87775 0.0
H3480 H 0.83991 0.37118 0.01562 0.0
H3481 H 0.84448 0.35024 0.81567 0.0
H3482 H 0.85448 0.40095 0.95848 0.0
H3483 H 0.86663 0.39128 0.00334 0.0
H3484 H 0.85008 0.3915 0.03753 0.0
H3485 H 0.86035 0.37531 0.71721 0.0
H3486 H 0.85788 0.35779 0.72102 0.0
H3487 H 0.87265 0.36507 0.75663 0.0
C3488 C 0.88023 0.59789 0.22608 0.0
C3489 C 0.89022 0.59334 0.1806 0.0
C3490 C 0.87067 0.60658 0.20019 0.0
C3491 C 0.87108 0.61065 0.12689 0.0
C3492 C 0.88098 0.60582 0.0803 0.0
C3493 C 0.89051 0.59729 0.10795 0.0
C3494 C 0.86028 0.61159 0.25149 0.0
C3495 C 0.88164 0.60985 0.00164 0.0
C3496 C 0.84028 0.62555 0.04631 0.0
C3497 C 0.84326 0.63892 0.04974 0.0
C3498 C 0.84933 0.61616 0.07057 0.0
C3499 C 0.86146 0.62038 0.09974 0.0
C3500 C 0.86443 0.63394 0.10339 0.0
C3501 C 0.85528 0.64308 0.07776 0.0
C3502 C 0.84593 0.60178 0.06497 0.0
C3503 C 0.8772 0.6388 0.13493 0.0
H3504 H 0.8799 0.59465 0.28197 0.0
H3505 H 0.89833 0.59387 0.07299 0.0
H3506 H 0.86102 0.62242 0.25627 0.0
H3507 H 0.85038 0.60933 0.22994 0.0
H3508 H 0.86118 0.60723 0.30644 0.0
H3509 H 0.88944 0.60452 0.9716 0.0
H3510 H 0.87209 0.60798 0.97472 0.0
H3511 H 0.88359 0.62054 -0.0023 0.0
H3512 H 0.83091 0.62247 0.02443 0.0
H3513 H 0.85742 0.65349 0.08038 0.0
H3514 H 0.84594 0.59725 0.11961 0.0
H3515 H 0.85345 0.5966 0.03226 0.0
H3516 H 0.83617 0.60015 0.03978 0.0
H3517 H 0.87823 0.63532 0.1916 0.0
H3518 H 0.87791 0.64968 0.13449 0.0
H3519 H 0.88557 0.63473 0.10378 0.0
C3520 C 0.33535 0.37054 0.60445 0.0
C3521 C 0.34041 0.36111 0.55673 0.0
C3522 C 0.34351 0.37995 0.63658 0.0
C3523 C 0.35684 0.38068 0.61541 0.0
C3524 C 0.36168 0.37199 0.56179 0.0
C3525 C 0.35357 0.36196 0.53555 0.0
C3526 C 0.33774 0.38889 0.69349 0.0
C3527 C 0.37544 0.37314 0.53227 0.0
C3528 C 0.37544 0.41184 0.66192 0.0
C3529 C 0.38543 0.4069 0.70633 0.0
C3530 C 0.36607 0.40346 0.63107 0.0
C3531 C 0.36595 0.39004 0.65093 0.0
C3532 C 0.37509 0.38535 0.70255 0.0
C3533 C 0.38507 0.39368 0.72707 0.0
C3534 C 0.35657 0.4091 0.57657 0.0
C3535 C 0.37452 0.37149 0.73142 0.0
H3536 H 0.32504 0.37034 0.61865 0.0
H3537 H 0.35764 0.3547 0.49915 0.0
H3538 H 0.34516 0.39227 0.73325 0.0
H3539 H 0.33344 0.39761 0.66655 0.0
H3540 H 0.32971 0.38389 0.7234 0.0
H3541 H 0.37636 0.36833 0.4785 0.0
H3542 H 0.3784 0.38358 0.52677 0.0
H3543 H 0.38242 0.36829 0.56967 0.0
H3544 H 0.37521 0.42221 0.64889 0.0
H3545 H 0.3927 0.38973 0.76152 0.0
H3546 H 0.34776 0.41273 0.60548 0.0
H3547 H 0.35343 0.40173 0.53589 0.0
H3548 H 0.36096 0.41759 0.54752 0.0
H3549 H 0.36422 0.36815 0.73784 0.0
H3550 H 0.37954 0.37066 0.78462 0.0
H3551 H 0.37949 0.36474 0.69318 0.0
C3552 C 0.39019 0.60751 0.30355 0.0
C3553 C 0.38661 0.59527 0.27587 0.0
C3554 C 0.38065 0.61618 0.32974 0.0
C3555 C 0.36727 0.6125 0.32703 0.0
C3556 C 0.36363 0.60016 0.29797 0.0
C3557 C 0.37341 0.59162 0.27307 0.0
C3558 C 0.3849 0.62918 0.36123 0.0
C3559 C 0.34944 0.596 0.29353 0.0
C3560 C 0.34435 0.63022 0.45548 0.0
C3561 C 0.33932 0.64007 0.41059 0.0
C3562 C 0.35331 0.621 0.42865 0.0
C3563 C 0.35713 0.62159 0.355 0.0
C3564 C 0.35174 0.63129 0.30891 0.0
C3565 C 0.34296 0.64049 0.33748 0.0
C3566 C 0.3589 0.61082 0.47945 0.0
C3567 C 0.35549 0.63214 0.2299 0.0
H3568 H 0.40048 0.61016 0.30592 0.0
H3569 H 0.37078 0.58206 0.25161 0.0
H3570 H 0.3803 0.63735 0.33071 0.0
H3571 H 0.38155 0.62996 0.41824 0.0
H3572 H 0.39572 0.63047 0.35985 0.0
H3573 H 0.34827 0.58617 0.26832 0.0
H3574 H 0.34508 0.59574 0.34855 0.0
H3575 H 0.34378 0.60325 0.26142 0.0
H3576 H 0.34133 0.62977 0.51169 0.0
H3577 H 0.33916 0.64821 0.30294 0.0
H3578 H 0.36967 0.61216 0.48406 0.0
H3579 H 0.35719 0.60082 0.45759 0.0
H3580 H 0.35455 0.61141 0.53451 0.0
H3581 H 0.36605 0.6346 0.225 0.0
H3582 H 0.34972 0.63968 0.20036 0.0
H3583 H 0.354 0.6225 0.20313 0.0
C3584 C 0.12174 0.5947 0.22862 0.0
C3585 C 0.11217 0.59002 0.18084 0.0
C3586 C 0.13108 0.60388 0.20565 0.0
C3587 C 0.13088 0.60831 0.13301 0.0
C3588 C 0.12153 0.60322 0.08383 0.0
C3589 C 0.11221 0.59418 0.10857 0.0
C3590 C 0.14089 0.60914 0.25959 0.0
C3591 C 0.12111 0.60764 0.00577 0.0
C3592 C 0.14434 0.6421 0.09185 0.0
C3593 C 0.15669 0.63903 0.0642 0.0
C3594 C 0.13587 0.63215 0.11517 0.0
C3595 C 0.13989 0.61888 0.10957 0.0
C3596 C 0.1524 0.61577 0.08117 0.0
C3597 C 0.16073 0.62596 0.05907 0.0
C3598 C 0.12264 0.63583 0.1458 0.0
C3599 C 0.15692 0.60173 0.07367 0.0
H3600 H 0.12181 0.5913 0.28425 0.0
H3601 H 0.10469 0.59068 0.07184 0.0
H3602 H 0.15101 0.60788 0.23873 0.0
H3603 H 0.13929 0.61982 0.26737 0.0
H3604 H 0.14013 0.60421 0.31309 0.0
H3605 H 0.11395 0.60193 0.97323 0.0
H3606 H 0.11837 0.61817 0.00318 0.0
H3607 H 0.13094 0.60666 0.98061 0.0
H3608 H 0.14137 0.6523 0.09558 0.0
H3609 H 0.17036 0.62374 0.03735 0.0
H3610 H 0.12159 0.63182 0.20139 0.0
H3611 H 0.11474 0.63145 0.11231 0.0
H3612 H 0.12116 0.64662 0.14783 0.0
H3613 H 0.15685 0.59683 0.12733 0.0
H3614 H 0.16696 0.60102 0.05053 0.0
H3615 H 0.15007 0.59624 0.0382 0.0
C3616 C 0.16217 0.37161 0.89384 0.0
C3617 C 0.1576 0.36221 0.94324 0.0
C3618 C 0.15369 0.38105 0.86438 0.0
C3619 C 0.14064 0.38187 0.89025 0.0
C3620 C 0.13637 0.3732 0.9454 0.0
C3621 C 0.14469 0.36311 0.96863 0.0
C3622 C 0.15888 0.38984 0.80506 0.0
C3623 C 0.12298 0.37445 0.97972 0.0
C3624 C 0.12166 0.41311 0.85093 0.0
C3625 C 0.11139 0.40832 0.80798 0.0
C3626 C 0.13125 0.40464 0.87883 0.0
C3627 C 0.13118 0.39127 0.85805 0.0
C3628 C 0.12156 0.38667 0.80892 0.0
C3629 C 0.11148 0.39511 0.78696 0.0
C3630 C 0.14125 0.41002 0.93127 0.0
C3631 C 0.1218 0.37282 0.77978 0.0
H3632 H 0.1723 0.37138 0.87623 0.0
H3633 H 0.14095 0.35585 0.00614 0.0
H3634 H 0.151 0.39421 0.7714 0.0
H3635 H 0.16469 0.39788 0.82979 0.0
H3636 H 0.1656 0.38428 0.76895 0.0
H3637 H 0.12256 0.36941 0.03307 0.0
H3638 H 0.12031 0.38491 0.98755 0.0
H3639 H 0.1155 0.36992 0.94411 0.0
H3640 H 0.12202 0.42345 0.86447 0.0
H3641 H 0.10358 0.39127 0.75393 0.0
H3642 H 0.15064 0.41166 0.90238 0.0
H3643 H 0.1431 0.40301 0.97618 0.0
H3644 H 0.13808 0.41954 0.95479 0.0
H3645 H 0.132 0.36966 0.76794 0.0
H3646 H 0.11589 0.37188 0.7295 0.0
H3647 H 0.11768 0.36599 0.82055 0.0
loop_
_geom_bond_atom_site_label_1
_geom_bond_atom_site_label_2
_geom_bond_distance
_geom_bond_site_symmetry_2
_ccdc_geom_bond_type
Co0 O3 1.970 . S
Co0 N17 1.989 . S
Co0 O25 1.967 . S
Co0 O32 1.920 . S
Co1 O4 1.966 . S
Co1 N10 2.022 . S
Co1 N18 1.993 . S
Co1 O26 1.941 . S
C2 O3 1.258 . S
C2 O4 1.263 1_554 S
O3 Co0 1.970 . S
O3 C2 1.258 . S
O4 Co1 1.966 . S
O4 C2 1.263 1_556 S
C5 O6 1.235 . S
C5 O32 1.289 . S
O6 C5 1.235 . S
C7 C9 1.400 . S
C7 N10 1.351 . S
C7 C12 1.501 . S
C8 C9 1.387 . S
C8 N11 1.341 . S
C9 C7 1.400 . S
C9 C8 1.387 . S
N10 Co1 2.022 . S
N10 C7 1.351 . S
N10 N11 1.365 . S
N11 C8 1.341 . S
N11 N10 1.365 . S
N11 H31 0.862 . S
C12 C7 1.501 . S
C12 H13 0.961 . S
C12 H14 0.961 . S
C12 H15 0.960 . S
H13 C12 0.961 . S
H14 C12 0.961 . S
H15 C12 0.960 . S
C16 N17 1.342 . S
C16 C20 1.401 1_554 S
C16 C21 1.499 . S
N17 Co0 1.989 . S
N17 C16 1.342 . S
N17 N18 1.388 1_554 S
N18 Co1 1.993 . S
N18 N17 1.388 1_556 S
N18 C19 1.346 . S
C19 N18 1.346 . S
C19 C20 1.396 . S
C19 C29 1.510 . S
C20 C16 1.401 1_556 S
C20 C19 1.396 . S
C21 C16 1.499 . S
C21 H22 0.959 . S
C21 H23 0.960 . S
C21 H24 0.961 . S
H22 C21 0.959 . S
H23 C21 0.960 . S
H24 C21 0.961 . S
O25 Co0 1.967 . S
O25 C33 1.258 . S
O26 Co1 1.941 . S
O26 C33 1.266 1_556 S
H27 C29 0.959 . S
H28 C29 0.961 . S
C29 C19 1.510 . S
C29 H27 0.959 . S
C29 H28 0.961 . S
C29 H30 0.960 . S
H30 C29 0.960 . S
H31 N11 0.862 . S
O32 Co0 1.920 . S
O32 C5 1.289 . S
C33 O25 1.258 . S
C33 O26 1.266 1_554 S
Co34 O37 1.970 . S
Co34 N51 1.989 . S
Co34 O59 1.967 . S
Co34 O66 1.920 . S
Co35 O38 1.966 . S
Co35 N44 2.022 . S
Co35 N52 1.993 . S
Co35 O60 1.941 . S
C36 O37 1.258 . S
C36 O38 1.263 . S
O37 Co34 1.970 . S
O37 C36 1.258 . S
O38 Co35 1.966 . S
O38 C36 1.263 . S
C39 O40 1.235 . S
C39 O66 1.289 . S
O40 C39 1.235 . S
C41 C43 1.400 1_554 S
C41 N44 1.351 . S
C41 C46 1.501 . S
C42 C43 1.387 . S
C42 N45 1.341 1_556 S
C43 C41 1.400 1_556 S
C43 C42 1.387 . S
N44 Co35 2.022 . S
N44 C41 1.351 . S
N44 N45 1.365 . S
N45 C42 1.341 1_554 S
N45 N44 1.365 . S
N45 H65 0.862 . S
C46 C41 1.501 . S
C46 H47 0.961 . S
C46 H48 0.961 . S
C46 H49 0.960 . S
H47 C46 0.961 . S
H48 C46 0.961 . S
H49 C46 0.960 . S
C50 N51 1.342 . S
C50 C54 1.401 . S
C50 C55 1.499 . S
N51 Co34 1.989 . S
N51 C50 1.342 . S
N51 N52 1.388 . S
N52 Co35 1.993 . S
N52 N51 1.388 . S
N52 C53 1.346 . S
C53 N52 1.346 . S
C53 C54 1.396 . S
C53 C63 1.510 . S
C54 C50 1.401 . S
C54 C53 1.396 . S
C55 C50 1.499 . S
C55 H56 0.959 . S
C55 H57 0.960 . S
C55 H58 0.961 . S
H56 C55 0.959 . S
H57 C55 0.960 . S
H58 C55 0.961 . S
O59 Co34 1.967 . S
O59 C67 1.258 . S
O60 Co35 1.941 . S
O60 C67 1.266 . S
H61 C63 0.959 . S
H62 C63 0.961 . S
C63 C53 1.510 . S
C63 H61 0.959 . S
C63 H62 0.961 . S
C63 H64 0.960 . S
H64 C63 0.960 . S
H65 N45 0.862 . S
O66 Co34 1.920 . S
O66 C39 1.289 . S
C67 O59 1.258 . S
C67 O60 1.266 . S
Co68 O71 1.970 . S
Co68 N85 1.989 . S
Co68 O93 1.967 . S
Co68 O100 1.920 . S
Co69 O72 1.966 . S
Co69 N78 2.022 . S
Co69 N86 1.993 . S
Co69 O94 1.941 . S
C70 O71 1.258 . S
C70 O72 1.263 . S
O71 Co68 1.970 . S
O71 C70 1.258 . S
O72 Co69 1.966 . S
O72 C70 1.263 . S
C73 O74 1.235 . S
C73 O100 1.289 . S
O74 C73 1.235 . S
C75 C77 1.400 . S
C75 N78 1.351 . S
C75 C80 1.501 . S
C76 C77 1.387 . S
C76 N79 1.341 . S
C77 C75 1.400 . S
C77 C76 1.387 . S
N78 Co69 2.022 . S
N78 C75 1.351 . S
N78 N79 1.365 . S
N79 C76 1.341 . S
N79 N78 1.365 . S
N79 H99 0.862 . S
C80 C75 1.501 . S
C80 H81 0.961 . S
C80 H82 0.961 . S
C80 H83 0.960 . S
H81 C80 0.961 . S
H82 C80 0.961 . S
H83 C80 0.960 . S
C84 N85 1.342 . S
C84 C88 1.401 . S
C84 C89 1.499 . S
N85 Co68 1.989 . S
N85 C84 1.342 . S
N85 N86 1.388 . S
N86 Co69 1.993 . S
N86 N85 1.388 . S
N86 C87 1.346 . S
C87 N86 1.346 . S
C87 C88 1.396 . S
C87 C97 1.510 . S
C88 C84 1.401 . S
C88 C87 1.396 . S
C89 C84 1.499 . S
C89 H90 0.959 . S
C89 H91 0.960 . S
C89 H92 0.961 . S
H90 C89 0.959 . S
H91 C89 0.960 . S
H92 C89 0.961 . S
O93 Co68 1.967 . S
O93 C101 1.258 . S
O94 Co69 1.941 . S
O94 C101 1.266 . S
H95 C97 0.959 . S
H96 C97 0.961 . S
C97 C87 1.510 . S
C97 H95 0.959 . S
C97 H96 0.961 . S
C97 H98 0.960 . S
H98 C97 0.960 . S
H99 N79 0.862 . S
O100 Co68 1.920 . S
O100 C73 1.289 . S
C101 O93 1.258 . S
C101 O94 1.266 . S
Co102 O105 1.970 . S
Co102 N119 1.989 . S
Co102 O127 1.967 . S
Co102 O134 1.920 . S
Co103 O106 1.966 . S
Co103 N112 2.022 . S
Co103 N120 1.993 . S
Co103 O128 1.941 . S
C104 O105 1.258 . S
C104 O106 1.263 . S
O105 Co102 1.970 . S
O105 C104 1.258 . S
O106 Co103 1.966 . S
O106 C104 1.263 . S
C107 O108 1.235 . S
C107 O134 1.289 . S
O108 C107 1.235 . S
C109 C111 1.400 . S
C109 N112 1.351 . S
C109 C114 1.501 . S
C110 C111 1.387 . S
C110 N113 1.341 . S
C111 C109 1.400 . S
C111 C110 1.387 . S
N112 Co103 2.022 . S
N112 C109 1.351 . S
N112 N113 1.365 . S
N113 C110 1.341 . S
N113 N112 1.365 . S
N113 H133 0.862 . S
C114 C109 1.501 . S
C114 H115 0.961 . S
C114 H116 0.961 . S
C114 H117 0.960 . S
H115 C114 0.961 . S
H116 C114 0.961 . S
H117 C114 0.960 . S
C118 N119 1.342 . S
C118 C122 1.401 . S
C118 C123 1.499 . S
N119 Co102 1.989 . S
N119 C118 1.342 . S
N119 N120 1.388 . S
N120 Co103 1.993 . S
N120 N119 1.388 . S
N120 C121 1.346 . S
C121 N120 1.346 . S
C121 C122 1.396 . S
C121 C131 1.510 . S
C122 C118 1.401 . S
C122 C121 1.396 . S
C123 C118 1.499 . S
C123 H124 0.959 . S
C123 H125 0.960 . S
C123 H126 0.961 . S
H124 C123 0.959 . S
H125 C123 0.960 . S
H126 C123 0.961 . S
O127 Co102 1.967 . S
O127 C135 1.258 . S
O128 Co103 1.941 . S
O128 C135 1.266 . S
H129 C131 0.959 . S
H130 C131 0.961 . S
C131 C121 1.510 . S
C131 H129 0.959 . S
C131 H130 0.961 . S
C131 H132 0.960 . S
H132 C131 0.960 . S
H133 N113 0.862 . S
O134 Co102 1.920 . S
O134 C107 1.289 . S
C135 O127 1.258 . S
C135 O128 1.266 . S
Co136 O139 1.970 . S
Co136 N153 1.989 . S
Co136 O161 1.967 . S
Co136 O168 1.920 . S
Co137 O140 1.966 . S
Co137 N146 2.022 . S
Co137 N154 1.993 . S
Co137 O162 1.941 . S
C138 O139 1.258 . S
C138 O140 1.263 1_556 S
O139 Co136 1.970 . S
O139 C138 1.258 . S
O140 Co137 1.966 . S
O140 C138 1.263 1_554 S
C141 O142 1.235 . S
C141 O168 1.289 . S
O142 C141 1.235 . S
C143 C145 1.400 . S
C143 N146 1.351 . S
C143 C148 1.501 . S
C144 C145 1.387 . S
C144 N147 1.341 . S
C145 C143 1.400 . S
C145 C144 1.387 . S
N146 Co137 2.022 . S
N146 C143 1.351 . S
N146 N147 1.365 . S
N147 C144 1.341 . S
N147 N146 1.365 . S
N147 H167 0.862 . S
C148 C143 1.501 . S
C148 H149 0.961 . S
C148 H150 0.961 . S
C148 H151 0.960 . S
H149 C148 0.961 . S
H150 C148 0.961 . S
H151 C148 0.960 . S
C152 N153 1.342 . S
C152 C156 1.401 1_556 S
C152 C157 1.499 . S
N153 Co136 1.989 . S
N153 C152 1.342 . S
N153 N154 1.388 1_556 S
N154 Co137 1.993 . S
N154 N153 1.388 1_554 S
N154 C155 1.346 . S
C155 N154 1.346 . S
C155 C156 1.396 . S
C155 C165 1.510 . S
C156 C152 1.401 1_554 S
C156 C155 1.396 . S
C157 C152 1.499 . S
C157 H158 0.959 . S
C157 H159 0.960 . S
C157 H160 0.961 . S
H158 C157 0.959 . S
H159 C157 0.960 . S
H160 C157 0.961 . S
O161 Co136 1.967 . S
O161 C169 1.258 . S
O162 Co137 1.941 . S
O162 C169 1.266 1_554 S
H163 C165 0.959 . S
H164 C165 0.961 . S
C165 C155 1.510 . S
C165 H163 0.959 . S
C165 H164 0.961 . S
C165 H166 0.960 . S
H166 C165 0.960 . S
H167 N147 0.862 . S
O168 Co136 1.920 . S
O168 C141 1.289 . S
C169 O161 1.258 . S
C169 O162 1.266 1_556 S
Co170 O173 1.970 . S
Co170 N187 1.989 . S
Co170 O195 1.967 . S
Co170 O202 1.920 . S
Co171 O174 1.966 . S
Co171 N180 2.022 . S
Co171 N188 1.993 . S
Co171 O196 1.941 . S
C172 O173 1.258 . S
C172 O174 1.263 . S
O173 Co170 1.970 . S
O173 C172 1.258 . S
O174 Co171 1.966 . S
O174 C172 1.263 . S
C175 O176 1.235 . S
C175 O202 1.289 . S
O176 C175 1.235 . S
C177 C179 1.400 . S
C177 N180 1.351 . S
C177 C182 1.501 . S
C178 C179 1.387 . S
C178 N181 1.341 . S
C179 C177 1.400 . S
C179 C178 1.387 . S
N180 Co171 2.022 . S
N180 C177 1.351 . S
N180 N181 1.365 . S
N181 C178 1.341 . S
N181 N180 1.365 . S
N181 H201 0.862 . S
C182 C177 1.501 . S
C182 H183 0.961 . S
C182 H184 0.961 . S
C182 H185 0.960 . S
H183 C182 0.961 . S
H184 C182 0.961 . S
H185 C182 0.960 . S
C186 N187 1.342 . S
C186 C190 1.401 . S
C186 C191 1.499 . S
N187 Co170 1.989 . S
N187 C186 1.342 . S
N187 N188 1.388 . S
N188 Co171 1.993 . S
N188 N187 1.388 . S
N188 C189 1.346 . S
C189 N188 1.346 . S
C189 C190 1.396 . S
C189 C199 1.510 . S
C190 C186 1.401 . S
C190 C189 1.396 . S
C191 C186 1.499 . S
C191 H192 0.959 . S
C191 H193 0.960 . S
C191 H194 0.961 . S
H192 C191 0.959 . S
H193 C191 0.960 . S
H194 C191 0.961 . S
O195 Co170 1.967 . S
O195 C203 1.258 . S
O196 Co171 1.941 . S
O196 C203 1.266 . S
H197 C199 0.959 . S
H198 C199 0.961 . S
C199 C189 1.510 . S
C199 H197 0.959 . S
C199 H198 0.961 . S
C199 H200 0.960 . S
H200 C199 0.960 . S
H201 N181 0.862 . S
O202 Co170 1.920 . S
O202 C175 1.289 . S
C203 O195 1.258 . S
C203 O196 1.266 . S
Co204 O207 1.970 . S
Co204 N221 1.989 . S
Co204 O229 1.967 . S
Co204 O236 1.920 . S
Co205 O208 1.966 . S
Co205 N214 2.022 . S
Co205 N222 1.993 . S
Co205 O230 1.941 . S
C206 O207 1.258 . S
C206 O208 1.263 . S
O207 Co204 1.970 . S
O207 C206 1.258 . S
O208 Co205 1.966 . S
O208 C206 1.263 . S
C209 O210 1.235 . S
C209 O236 1.289 . S
O210 C209 1.235 . S
C211 C213 1.400 . S
C211 N214 1.351 . S
C211 C216 1.501 . S
C212 C213 1.387 . S
C212 N215 1.341 . S
C213 C211 1.400 . S
C213 C212 1.387 . S
N214 Co205 2.022 . S
N214 C211 1.351 . S
N214 N215 1.365 . S
N215 C212 1.341 . S
N215 N214 1.365 . S
N215 H235 0.862 . S
C216 C211 1.501 . S
C216 H217 0.961 . S
C216 H218 0.961 . S
C216 H219 0.960 . S
H217 C216 0.961 . S
H218 C216 0.961 . S
H219 C216 0.960 . S
C220 N221 1.342 . S
C220 C224 1.401 . S
C220 C225 1.499 . S
N221 Co204 1.989 . S
N221 C220 1.342 . S
N221 N222 1.388 . S
N222 Co205 1.993 . S
N222 N221 1.388 . S
N222 C223 1.346 . S
C223 N222 1.346 . S
C223 C224 1.396 . S
C223 C233 1.510 . S
C224 C220 1.401 . S
C224 C223 1.396 . S
C225 C220 1.499 . S
C225 H226 0.959 . S
C225 H227 0.960 . S
C225 H228 0.961 . S
H226 C225 0.959 . S
H227 C225 0.960 . S
H228 C225 0.961 . S
O229 Co204 1.967 . S
O229 C237 1.258 . S
O230 Co205 1.941 . S
O230 C237 1.266 . S
H231 C233 0.959 . S
H232 C233 0.961 . S
C233 C223 1.510 . S
C233 H231 0.959 . S
C233 H232 0.961 . S
C233 H234 0.960 . S
H234 C233 0.960 . S
H235 N215 0.862 . S
O236 Co204 1.920 . S
O236 C209 1.289 . S
C237 O229 1.258 . S
C237 O230 1.266 . S
Co238 O241 1.970 . S
Co238 N255 1.989 . S
Co238 O263 1.967 . S
Co238 O270 1.920 . S
Co239 O242 1.966 . S
Co239 N248 2.022 . S
Co239 N256 1.993 . S
Co239 O264 1.941 . S
C240 O241 1.258 . S
C240 O242 1.263 . S
O241 Co238 1.970 . S
O241 C240 1.258 . S
O242 Co239 1.966 . S
O242 C240 1.263 . S
C243 O244 1.235 . S
C243 O270 1.289 . S
O244 C243 1.235 . S
C245 C247 1.400 1_556 S
C245 N248 1.351 . S
C245 C250 1.501 . S
C246 C247 1.387 . S
C246 N249 1.341 1_554 S
C247 C245 1.400 1_554 S
C247 C246 1.387 . S
N248 Co239 2.022 . S
N248 C245 1.351 . S
N248 N249 1.365 . S
N249 C246 1.341 1_556 S
N249 N248 1.365 . S
N249 H269 0.862 . S
C250 C245 1.501 . S
C250 H251 0.961 . S
C250 H252 0.961 . S
C250 H253 0.960 . S
H251 C250 0.961 . S
H252 C250 0.961 . S
H253 C250 0.960 . S
C254 N255 1.342 . S
C254 C258 1.401 . S
C254 C259 1.499 . S
N255 Co238 1.989 . S
N255 C254 1.342 . S
N255 N256 1.388 . S
N256 Co239 1.993 . S
N256 N255 1.388 . S
N256 C257 1.346 . S
C257 N256 1.346 . S
C257 C258 1.396 . S
C257 C267 1.510 . S
C258 C254 1.401 . S
C258 C257 1.396 . S
C259 C254 1.499 . S
C259 H260 0.959 . S
C259 H261 0.960 . S
C259 H262 0.961 . S
H260 C259 0.959 . S
H261 C259 0.960 . S
H262 C259 0.961 . S
O263 Co238 1.967 . S
O263 C271 1.258 . S
O264 Co239 1.941 . S
O264 C271 1.266 . S
H265 C267 0.959 . S
H266 C267 0.961 . S
C267 C257 1.510 . S
C267 H265 0.959 . S
C267 H266 0.961 . S
C267 H268 0.960 . S
H268 C267 0.960 . S
H269 N249 0.862 . S
O270 Co238 1.920 . S
O270 C243 1.289 . S
C271 O263 1.258 . S
C271 O264 1.266 . S
Co272 O275 1.970 . S
Co272 N289 1.989 . S
Co272 O297 1.967 . S
Co272 O304 1.920 . S
Co273 O276 1.966 . S
Co273 N282 2.022 . S
Co273 N290 1.993 . S
Co273 O298 1.941 . S
C274 O275 1.258 . S
C274 O276 1.263 1_556 S
O275 Co272 1.970 . S
O275 C274 1.258 . S
O276 Co273 1.966 . S
O276 C274 1.263 1_554 S
C277 O278 1.235 . S
C277 O304 1.289 . S
O278 C277 1.235 . S
C279 C281 1.400 . S
C279 N282 1.351 . S
C279 C284 1.501 . S
C280 C281 1.387 . S
C280 N283 1.341 . S
C281 C279 1.400 . S
C281 C280 1.387 . S
N282 Co273 2.022 . S
N282 C279 1.351 . S
N282 N283 1.365 . S
N283 C280 1.341 . S
N283 N282 1.365 . S
N283 H303 0.862 . S
C284 C279 1.501 . S
C284 H285 0.961 . S
C284 H286 0.961 . S
C284 H287 0.960 . S
H285 C284 0.961 . S
H286 C284 0.961 . S
H287 C284 0.960 . S
C288 N289 1.342 . S
C288 C292 1.401 1_556 S
C288 C293 1.499 . S
N289 Co272 1.989 . S
N289 C288 1.342 . S
N289 N290 1.388 1_556 S
N290 Co273 1.993 . S
N290 N289 1.388 1_554 S
N290 C291 1.346 . S
C291 N290 1.346 . S
C291 C292 1.396 . S
C291 C301 1.510 . S
C292 C288 1.401 1_554 S
C292 C291 1.396 . S
C293 C288 1.499 . S
C293 H294 0.959 . S
C293 H295 0.960 . S
C293 H296 0.961 . S
H294 C293 0.959 . S
H295 C293 0.960 . S
H296 C293 0.961 . S
O297 Co272 1.967 . S
O297 C305 1.258 . S
O298 Co273 1.941 . S
O298 C305 1.266 1_554 S
H299 C301 0.959 . S
H300 C301 0.961 . S
C301 C291 1.510 . S
C301 H299 0.959 . S
C301 H300 0.961 . S
C301 H302 0.960 . S
H302 C301 0.960 . S
H303 N283 0.862 . S
O304 Co272 1.920 . S
O304 C277 1.289 . S
C305 O297 1.258 . S
C305 O298 1.266 1_556 S
Co306 O309 1.970 . S
Co306 N323 1.989 . S
Co306 O331 1.967 . S
Co306 O338 1.920 . S
Co307 O310 1.966 . S
Co307 N316 2.022 . S
Co307 N324 1.993 . S
Co307 O332 1.941 . S
C308 O309 1.258 . S
C308 O310 1.263 . S
O309 Co306 1.970 . S
O309 C308 1.258 . S
O310 Co307 1.966 . S
O310 C308 1.263 . S
C311 O312 1.235 . S
C311 O338 1.289 . S
O312 C311 1.235 . S
C313 C315 1.400 1_556 S
C313 N316 1.351 . S
C313 C318 1.501 . S
C314 C315 1.387 . S
C314 N317 1.341 1_554 S
C315 C313 1.400 1_554 S
C315 C314 1.387 . S
N316 Co307 2.022 . S
N316 C313 1.351 . S
N316 N317 1.365 . S
N317 C314 1.341 1_556 S
N317 N316 1.365 . S
N317 H337 0.862 . S
C318 C313 1.501 . S
C318 H319 0.961 . S
C318 H320 0.961 . S
C318 H321 0.960 . S
H319 C318 0.961 . S
H320 C318 0.961 . S
H321 C318 0.960 . S
C322 N323 1.342 . S
C322 C326 1.401 . S
C322 C327 1.499 . S
N323 Co306 1.989 . S
N323 C322 1.342 . S
N323 N324 1.388 . S
N324 Co307 1.993 . S
N324 N323 1.388 . S
N324 C325 1.346 . S
C325 N324 1.346 . S
C325 C326 1.396 . S
C325 C335 1.510 . S
C326 C322 1.401 . S
C326 C325 1.396 . S
C327 C322 1.499 . S
C327 H328 0.959 . S
C327 H329 0.960 . S
C327 H330 0.961 . S
H328 C327 0.959 . S
H329 C327 0.960 . S
H330 C327 0.961 . S
O331 Co306 1.967 . S
O331 C339 1.258 . S
O332 Co307 1.941 . S
O332 C339 1.266 . S
H333 C335 0.959 . S
H334 C335 0.961 . S
C335 C325 1.510 . S
C335 H333 0.959 . S
C335 H334 0.961 . S
C335 H336 0.960 . S
H336 C335 0.960 . S
H337 N317 0.862 . S
O338 Co306 1.920 . S
O338 C311 1.289 . S
C339 O331 1.258 . S
C339 O332 1.266 . S
Co340 O343 1.970 . S
Co340 N357 1.989 . S
Co340 O365 1.967 . S
Co340 O372 1.920 . S
Co341 O344 1.966 . S
Co341 N350 2.022 . S
Co341 N358 1.993 . S
Co341 O366 1.941 . S
C342 O343 1.258 . S
C342 O344 1.263 . S
O343 Co340 1.970 . S
O343 C342 1.258 . S
O344 Co341 1.966 . S
O344 C342 1.263 . S
C345 O346 1.235 . S
C345 O372 1.289 . S
O346 C345 1.235 . S
C347 C349 1.400 . S
C347 N350 1.351 . S
C347 C352 1.501 . S
C348 C349 1.387 . S
C348 N351 1.341 . S
C349 C347 1.400 . S
C349 C348 1.387 . S
N350 Co341 2.022 . S
N350 C347 1.351 . S
N350 N351 1.365 . S
N351 C348 1.341 . S
N351 N350 1.365 . S
N351 H371 0.862 . S
C352 C347 1.501 . S
C352 H353 0.961 . S
C352 H354 0.961 . S
C352 H355 0.960 . S
H353 C352 0.961 . S
H354 C352 0.961 . S
H355 C352 0.960 . S
C356 N357 1.342 . S
C356 C360 1.401 . S
C356 C361 1.499 . S
N357 Co340 1.989 . S
N357 C356 1.342 . S
N357 N358 1.388 . S
N358 Co341 1.993 . S
N358 N357 1.388 . S
N358 C359 1.346 . S
C359 N358 1.346 . S
C359 C360 1.396 . S
C359 C369 1.510 . S
C360 C356 1.401 . S
C360 C359 1.396 . S
C361 C356 1.499 . S
C361 H362 0.959 . S
C361 H363 0.960 . S
C361 H364 0.961 . S
H362 C361 0.959 . S
H363 C361 0.960 . S
H364 C361 0.961 . S
O365 Co340 1.967 . S
O365 C373 1.258 . S
O366 Co341 1.941 . S
O366 C373 1.266 . S
H367 C369 0.959 . S
H368 C369 0.961 . S
C369 C359 1.510 . S
C369 H367 0.959 . S
C369 H368 0.961 . S
C369 H370 0.960 . S
H370 C369 0.960 . S
H371 N351 0.862 . S
O372 Co340 1.920 . S
O372 C345 1.289 . S
C373 O365 1.258 . S
C373 O366 1.266 . S
Co374 O377 1.970 . S
Co374 N391 1.989 . S
Co374 O399 1.967 . S
Co374 O406 1.920 . S
Co375 O378 1.966 . S
Co375 N384 2.022 . S
Co375 N392 1.993 . S
Co375 O400 1.941 . S
C376 O377 1.258 . S
C376 O378 1.263 . S
O377 Co374 1.970 . S
O377 C376 1.258 . S
O378 Co375 1.966 . S
O378 C376 1.263 . S
C379 O380 1.235 . S
C379 O406 1.289 . S
O380 C379 1.235 . S
C381 C383 1.400 . S
C381 N384 1.351 . S
C381 C386 1.501 . S
C382 C383 1.387 . S
C382 N385 1.341 . S
C383 C381 1.400 . S
C383 C382 1.387 . S
N384 Co375 2.022 . S
N384 C381 1.351 . S
N384 N385 1.365 . S
N385 C382 1.341 . S
N385 N384 1.365 . S
N385 H405 0.862 . S
C386 C381 1.501 . S
C386 H387 0.961 . S
C386 H388 0.961 . S
C386 H389 0.960 . S
H387 C386 0.961 . S
H388 C386 0.961 . S
H389 C386 0.960 . S
C390 N391 1.342 . S
C390 C394 1.401 . S
C390 C395 1.499 . S
N391 Co374 1.989 . S
N391 C390 1.342 . S
N391 N392 1.388 . S
N392 Co375 1.993 . S
N392 N391 1.388 . S
N392 C393 1.346 . S
C393 N392 1.346 . S
C393 C394 1.396 . S
C393 C403 1.510 . S
C394 C390 1.401 . S
C394 C393 1.396 . S
C395 C390 1.499 . S
C395 H396 0.959 . S
C395 H397 0.960 . S
C395 H398 0.961 . S
H396 C395 0.959 . S
H397 C395 0.960 . S
H398 C395 0.961 . S
O399 Co374 1.967 . S
O399 C407 1.258 . S
O400 Co375 1.941 . S
O400 C407 1.266 . S
H401 C403 0.959 . S
H402 C403 0.961 . S
C403 C393 1.510 . S
C403 H401 0.959 . S
C403 H402 0.961 . S
C403 H404 0.960 . S
H404 C403 0.960 . S
H405 N385 0.862 . S
O406 Co374 1.920 . S
O406 C379 1.289 . S
C407 O399 1.258 . S
C407 O400 1.266 . S
Co408 O411 1.970 . S
Co408 N425 1.989 . S
Co408 O433 1.967 . S
Co408 O440 1.920 . S
Co409 O412 1.966 . S
Co409 N418 2.022 . S
Co409 N426 1.993 . S
Co409 O434 1.941 . S
C410 O411 1.258 . S
C410 O412 1.263 1_554 S
O411 Co408 1.970 . S
O411 C410 1.258 . S
O412 Co409 1.966 . S
O412 C410 1.263 1_556 S
C413 O414 1.235 . S
C413 O440 1.289 . S
O414 C413 1.235 . S
C415 C417 1.400 . S
C415 N418 1.351 . S
C415 C420 1.501 . S
C416 C417 1.387 . S
C416 N419 1.341 . S
C417 C415 1.400 . S
C417 C416 1.387 . S
N418 Co409 2.022 . S
N418 C415 1.351 . S
N418 N419 1.365 . S
N419 C416 1.341 . S
N419 N418 1.365 . S
N419 H439 0.862 . S
C420 C415 1.501 . S
C420 H421 0.961 . S
C420 H422 0.961 . S
C420 H423 0.960 . S
H421 C420 0.961 . S
H422 C420 0.961 . S
H423 C420 0.960 . S
C424 N425 1.342 . S
C424 C428 1.401 1_554 S
C424 C429 1.499 . S
N425 Co408 1.989 . S
N425 C424 1.342 . S
N425 N426 1.388 1_554 S
N426 Co409 1.993 . S
N426 N425 1.388 1_556 S
N426 C427 1.346 . S
C427 N426 1.346 . S
C427 C428 1.396 . S
C427 C437 1.510 . S
C428 C424 1.401 1_556 S
C428 C427 1.396 . S
C429 C424 1.499 . S
C429 H430 0.959 . S
C429 H431 0.960 . S
C429 H432 0.961 . S
H430 C429 0.959 . S
H431 C429 0.960 . S
H432 C429 0.961 . S
O433 Co408 1.967 . S
O433 C441 1.258 . S
O434 Co409 1.941 . S
O434 C441 1.266 1_556 S
H435 C437 0.959 . S
H436 C437 0.961 . S
C437 C427 1.510 . S
C437 H435 0.959 . S
C437 H436 0.961 . S
C437 H438 0.960 . S
H438 C437 0.960 . S
H439 N419 0.862 . S
O440 Co408 1.920 . S
O440 C413 1.289 . S
C441 O433 1.258 . S
C441 O434 1.266 1_554 S
Co442 O445 1.970 . S
Co442 N459 1.989 . S
Co442 O467 1.967 . S
Co442 O474 1.920 . S
Co443 O446 1.966 . S
Co443 N452 2.022 . S
Co443 N460 1.993 . S
Co443 O468 1.941 . S
C444 O445 1.258 . S
C444 O446 1.263 . S
O445 Co442 1.970 . S
O445 C444 1.258 . S
O446 Co443 1.966 . S
O446 C444 1.263 . S
C447 O448 1.235 . S
C447 O474 1.289 . S
O448 C447 1.235 . S
C449 C451 1.400 . S
C449 N452 1.351 . S
C449 C454 1.501 . S
C450 C451 1.387 . S
C450 N453 1.341 . S
C451 C449 1.400 . S
C451 C450 1.387 . S
N452 Co443 2.022 . S
N452 C449 1.351 . S
N452 N453 1.365 . S
N453 C450 1.341 . S
N453 N452 1.365 . S
N453 H473 0.862 . S
C454 C449 1.501 . S
C454 H455 0.961 . S
C454 H456 0.961 . S
C454 H457 0.960 . S
H455 C454 0.961 . S
H456 C454 0.961 . S
H457 C454 0.960 . S
C458 N459 1.342 . S
C458 C462 1.401 . S
C458 C463 1.499 . S
N459 Co442 1.989 . S
N459 C458 1.342 . S
N459 N460 1.388 . S
N460 Co443 1.993 . S
N460 N459 1.388 . S
N460 C461 1.346 . S
C461 N460 1.346 . S
C461 C462 1.396 . S
C461 C471 1.510 . S
C462 C458 1.401 . S
C462 C461 1.396 . S
C463 C458 1.499 . S
C463 H464 0.959 . S
C463 H465 0.960 . S
C463 H466 0.961 . S
H464 C463 0.959 . S
H465 C463 0.960 . S
H466 C463 0.961 . S
O467 Co442 1.967 . S
O467 C475 1.258 . S
O468 Co443 1.941 . S
O468 C475 1.266 . S
H469 C471 0.959 . S
H470 C471 0.961 . S
C471 C461 1.510 . S
C471 H469 0.959 . S
C471 H470 0.961 . S
C471 H472 0.960 . S
H472 C471 0.960 . S
H473 N453 0.862 . S
O474 Co442 1.920 . S
O474 C447 1.289 . S
C475 O467 1.258 . S
C475 O468 1.266 . S
Co476 O479 1.970 . S
Co476 N493 1.989 . S
Co476 O501 1.967 . S
Co476 O508 1.920 . S
Co477 O480 1.966 . S
Co477 N486 2.022 . S
Co477 N494 1.993 . S
Co477 O502 1.941 . S
C478 O479 1.258 . S
C478 O480 1.263 . S
O479 Co476 1.970 . S
O479 C478 1.258 . S
O480 Co477 1.966 . S
O480 C478 1.263 . S
C481 O482 1.235 . S
C481 O508 1.289 . S
O482 C481 1.235 . S
C483 C485 1.400 . S
C483 N486 1.351 . S
C483 C488 1.501 . S
C484 C485 1.387 . S
C484 N487 1.341 . S
C485 C483 1.400 . S
C485 C484 1.387 . S
N486 Co477 2.022 . S
N486 C483 1.351 . S
N486 N487 1.365 . S
N487 C484 1.341 . S
N487 N486 1.365 . S
N487 H507 0.862 . S
C488 C483 1.501 . S
C488 H489 0.961 . S
C488 H490 0.961 . S
C488 H491 0.960 . S
H489 C488 0.961 . S
H490 C488 0.961 . S
H491 C488 0.960 . S
C492 N493 1.342 . S
C492 C496 1.401 . S
C492 C497 1.499 . S
N493 Co476 1.989 . S
N493 C492 1.342 . S
N493 N494 1.388 . S
N494 Co477 1.993 . S
N494 N493 1.388 . S
N494 C495 1.346 . S
C495 N494 1.346 . S
C495 C496 1.396 . S
C495 C505 1.510 . S
C496 C492 1.401 . S
C496 C495 1.396 . S
C497 C492 1.499 . S
C497 H498 0.959 . S
C497 H499 0.960 . S
C497 H500 0.961 . S
H498 C497 0.959 . S
H499 C497 0.960 . S
H500 C497 0.961 . S
O501 Co476 1.967 . S
O501 C509 1.258 . S
O502 Co477 1.941 . S
O502 C509 1.266 . S
H503 C505 0.959 . S
H504 C505 0.961 . S
C505 C495 1.510 . S
C505 H503 0.959 . S
C505 H504 0.961 . S
C505 H506 0.960 . S
H506 C505 0.960 . S
H507 N487 0.862 . S
O508 Co476 1.920 . S
O508 C481 1.289 . S
C509 O501 1.258 . S
C509 O502 1.266 . S
Co510 O513 1.970 . S
Co510 N527 1.989 . S
Co510 O535 1.967 . S
Co510 O542 1.920 . S
Co511 O514 1.966 . S
Co511 N520 2.022 . S
Co511 N528 1.993 . S
Co511 O536 1.941 . S
C512 O513 1.258 . S
C512 O514 1.263 . S
O513 Co510 1.970 . S
O513 C512 1.258 . S
O514 Co511 1.966 . S
O514 C512 1.263 . S
C515 O516 1.235 . S
C515 O542 1.289 . S
O516 C515 1.235 . S
C517 C519 1.400 1_554 S
C517 N520 1.351 . S
C517 C522 1.501 . S
C518 C519 1.387 . S
C518 N521 1.341 1_556 S
C519 C517 1.400 1_556 S
C519 C518 1.387 . S
N520 Co511 2.022 . S
N520 C517 1.351 . S
N520 N521 1.365 . S
N521 C518 1.341 1_554 S
N521 N520 1.365 . S
N521 H541 0.862 . S
C522 C517 1.501 . S
C522 H523 0.961 . S
C522 H524 0.961 . S
C522 H525 0.960 . S
H523 C522 0.961 . S
H524 C522 0.961 . S
H525 C522 0.960 . S
C526 N527 1.342 . S
C526 C530 1.401 . S
C526 C531 1.499 . S
N527 Co510 1.989 . S
N527 C526 1.342 . S
N527 N528 1.388 . S
N528 Co511 1.993 . S
N528 N527 1.388 . S
N528 C529 1.346 . S
C529 N528 1.346 . S
C529 C530 1.396 . S
C529 C539 1.510 . S
C530 C526 1.401 . S
C530 C529 1.396 . S
C531 C526 1.499 . S
C531 H532 0.959 . S
C531 H533 0.960 . S
C531 H534 0.961 . S
H532 C531 0.959 . S
H533 C531 0.960 . S
H534 C531 0.961 . S
O535 Co510 1.967 . S
O535 C543 1.258 . S
O536 Co511 1.941 . S
O536 C543 1.266 . S
H537 C539 0.959 . S
H538 C539 0.961 . S
C539 C529 1.510 . S
C539 H537 0.959 . S
C539 H538 0.961 . S
C539 H540 0.960 . S
H540 C539 0.960 . S
H541 N521 0.862 . S
O542 Co510 1.920 . S
O542 C515 1.289 . S
C543 O535 1.258 . S
C543 O536 1.266 . S
Co544 O547 1.970 . S
Co544 N561 1.989 . S
Co544 O569 1.967 . S
Co544 O576 1.920 . S
Co545 O548 1.966 . S
Co545 N554 2.022 . S
Co545 N562 1.993 . S
Co545 O570 1.941 . S
C546 O547 1.258 . S
C546 O548 1.263 . S
O547 Co544 1.970 . S
O547 C546 1.258 . S
O548 Co545 1.966 . S
O548 C546 1.263 . S
C549 O550 1.235 . S
C549 O576 1.289 . S
O550 C549 1.235 . S
C551 C553 1.400 . S
C551 N554 1.351 . S
C551 C556 1.501 . S
C552 C553 1.387 . S
C552 N555 1.341 . S
C553 C551 1.400 . S
C553 C552 1.387 . S
N554 Co545 2.022 . S
N554 C551 1.351 . S
N554 N555 1.365 . S
N555 C552 1.341 . S
N555 N554 1.365 . S
N555 H575 0.862 . S
C556 C551 1.501 . S
C556 H557 0.961 . S
C556 H558 0.961 . S
C556 H559 0.960 . S
H557 C556 0.961 . S
H558 C556 0.961 . S
H559 C556 0.960 . S
C560 N561 1.342 . S
C560 C564 1.401 . S
C560 C565 1.499 . S
N561 Co544 1.989 . S
N561 C560 1.342 . S
N561 N562 1.388 . S
N562 Co545 1.993 . S
N562 N561 1.388 . S
N562 C563 1.346 . S
C563 N562 1.346 . S
C563 C564 1.396 . S
C563 C573 1.510 . S
C564 C560 1.401 . S
C564 C563 1.396 . S
C565 C560 1.499 . S
C565 H566 0.959 . S
C565 H567 0.960 . S
C565 H568 0.961 . S
H566 C565 0.959 . S
H567 C565 0.960 . S
H568 C565 0.961 . S
O569 Co544 1.967 . S
O569 C577 1.258 . S
O570 Co545 1.941 . S
O570 C577 1.266 . S
H571 C573 0.959 . S
H572 C573 0.961 . S
C573 C563 1.510 . S
C573 H571 0.959 . S
C573 H572 0.961 . S
C573 H574 0.960 . S
H574 C573 0.960 . S
H575 N555 0.862 . S
O576 Co544 1.920 . S
O576 C549 1.289 . S
C577 O569 1.258 . S
C577 O570 1.266 . S
Co578 O581 1.970 . S
Co578 N595 1.989 . S
Co578 O603 1.967 . S
Co578 O610 1.920 . S
Co579 O582 1.966 . S
Co579 N588 2.022 . S
Co579 N596 1.993 . S
Co579 O604 1.941 . S
C580 O581 1.258 . S
C580 O582 1.263 . S
O581 Co578 1.970 . S
O581 C580 1.258 . S
O582 Co579 1.966 . S
O582 C580 1.263 . S
C583 O584 1.235 . S
C583 O610 1.289 . S
O584 C583 1.235 . S
C585 C587 1.400 . S
C585 N588 1.351 . S
C585 C590 1.501 . S
C586 C587 1.387 . S
C586 N589 1.341 . S
C587 C585 1.400 . S
C587 C586 1.387 . S
N588 Co579 2.022 . S
N588 C585 1.351 . S
N588 N589 1.365 . S
N589 C586 1.341 . S
N589 N588 1.365 . S
N589 H609 0.862 . S
C590 C585 1.501 . S
C590 H591 0.961 . S
C590 H592 0.961 . S
C590 H593 0.960 . S
H591 C590 0.961 . S
H592 C590 0.961 . S
H593 C590 0.960 . S
C594 N595 1.342 . S
C594 C598 1.401 . S
C594 C599 1.499 . S
N595 Co578 1.989 . S
N595 C594 1.342 . S
N595 N596 1.388 . S
N596 Co579 1.993 . S
N596 N595 1.388 . S
N596 C597 1.346 . S
C597 N596 1.346 . S
C597 C598 1.396 . S
C597 C607 1.510 . S
C598 C594 1.401 . S
C598 C597 1.396 . S
C599 C594 1.499 . S
C599 H600 0.959 . S
C599 H601 0.960 . S
C599 H602 0.961 . S
H600 C599 0.959 . S
H601 C599 0.960 . S
H602 C599 0.961 . S
O603 Co578 1.967 . S
O603 C611 1.258 . S
O604 Co579 1.941 . S
O604 C611 1.266 . S
H605 C607 0.959 . S
H606 C607 0.961 . S
C607 C597 1.510 . S
C607 H605 0.959 . S
C607 H606 0.961 . S
C607 H608 0.960 . S
H608 C607 0.960 . S
H609 N589 0.862 . S
O610 Co578 1.920 . S
O610 C583 1.289 . S
C611 O603 1.258 . S
C611 O604 1.266 . S
Co612 O615 1.970 . S
Co612 N629 1.989 . S
Co612 O637 1.967 . S
Co612 O644 1.920 . S
Co613 O616 1.966 . S
Co613 N622 2.022 . S
Co613 N630 1.993 . S
Co613 O638 1.941 . S
C614 O615 1.258 . S
C614 O616 1.263 1_554 S
O615 Co612 1.970 . S
O615 C614 1.258 . S
O616 Co613 1.966 . S
O616 C614 1.263 1_556 S
C617 O618 1.235 . S
C617 O644 1.289 . S
O618 C617 1.235 . S
C619 C621 1.400 . S
C619 N622 1.351 . S
C619 C624 1.501 . S
C620 C621 1.387 . S
C620 N623 1.341 . S
C621 C619 1.400 . S
C621 C620 1.387 . S
N622 Co613 2.022 . S
N622 C619 1.351 . S
N622 N623 1.365 . S
N623 C620 1.341 . S
N623 N622 1.365 . S
N623 H643 0.862 . S
C624 C619 1.501 . S
C624 H625 0.961 . S
C624 H626 0.961 . S
C624 H627 0.960 . S
H625 C624 0.961 . S
H626 C624 0.961 . S
H627 C624 0.960 . S
C628 N629 1.342 . S
C628 C632 1.401 1_554 S
C628 C633 1.499 . S
N629 Co612 1.989 . S
N629 C628 1.342 . S
N629 N630 1.388 1_554 S
N630 Co613 1.993 . S
N630 N629 1.388 1_556 S
N630 C631 1.346 . S
C631 N630 1.346 . S
C631 C632 1.396 . S
C631 C641 1.510 . S
C632 C628 1.401 1_556 S
C632 C631 1.396 . S
C633 C628 1.499 . S
C633 H634 0.959 . S
C633 H635 0.960 . S
C633 H636 0.961 . S
H634 C633 0.959 . S
H635 C633 0.960 . S
H636 C633 0.961 . S
O637 Co612 1.967 . S
O637 C645 1.258 . S
O638 Co613 1.941 . S
O638 C645 1.266 1_556 S
H639 C641 0.959 . S
H640 C641 0.961 . S
C641 C631 1.510 . S
C641 H639 0.959 . S
C641 H640 0.961 . S
C641 H642 0.960 . S
H642 C641 0.960 . S
H643 N623 0.862 . S
O644 Co612 1.920 . S
O644 C617 1.289 . S
C645 O637 1.258 . S
C645 O638 1.266 1_554 S
Co646 O649 1.970 . S
Co646 N663 1.989 . S
Co646 O671 1.967 . S
Co646 O678 1.920 . S
Co647 O650 1.966 . S
Co647 N656 2.022 . S
Co647 N664 1.993 . S
Co647 O672 1.941 . S
C648 O649 1.258 . S
C648 O650 1.263 . S
O649 Co646 1.970 . S
O649 C648 1.258 . S
O650 Co647 1.966 . S
O650 C648 1.263 . S
C651 O652 1.235 . S
C651 O678 1.289 . S
O652 C651 1.235 . S
C653 C655 1.400 1_554 S
C653 N656 1.351 . S
C653 C658 1.501 . S
C654 C655 1.387 . S
C654 N657 1.341 1_556 S
C655 C653 1.400 1_556 S
C655 C654 1.387 . S
N656 Co647 2.022 . S
N656 C653 1.351 . S
N656 N657 1.365 . S
N657 C654 1.341 1_554 S
N657 N656 1.365 . S
N657 H677 0.862 . S
C658 C653 1.501 . S
C658 H659 0.961 . S
C658 H660 0.961 . S
C658 H661 0.960 . S
H659 C658 0.961 . S
H660 C658 0.961 . S
H661 C658 0.960 . S
C662 N663 1.342 . S
C662 C666 1.401 . S
C662 C667 1.499 . S
N663 Co646 1.989 . S
N663 C662 1.342 . S
N663 N664 1.388 . S
N664 Co647 1.993 . S
N664 N663 1.388 . S
N664 C665 1.346 . S
C665 N664 1.346 . S
C665 C666 1.396 . S
C665 C675 1.510 . S
C666 C662 1.401 . S
C666 C665 1.396 . S
C667 C662 1.499 . S
C667 H668 0.959 . S
C667 H669 0.960 . S
C667 H670 0.961 . S
H668 C667 0.959 . S
H669 C667 0.960 . S
H670 C667 0.961 . S
O671 Co646 1.967 . S
O671 C679 1.258 . S
O672 Co647 1.941 . S
O672 C679 1.266 . S
H673 C675 0.959 . S
H674 C675 0.961 . S
C675 C665 1.510 . S
C675 H673 0.959 . S
C675 H674 0.961 . S
C675 H676 0.960 . S
H676 C675 0.960 . S
H677 N657 0.862 . S
O678 Co646 1.920 . S
O678 C651 1.289 . S
C679 O671 1.258 . S
C679 O672 1.266 . S
Co680 O683 1.970 . S
Co680 N697 1.989 . S
Co680 O705 1.967 . S
Co680 O712 1.920 . S
Co681 O684 1.966 . S
Co681 N690 2.022 . S
Co681 N698 1.993 . S
Co681 O706 1.941 . S
C682 O683 1.258 . S
C682 O684 1.263 . S
O683 Co680 1.970 . S
O683 C682 1.258 . S
O684 Co681 1.966 . S
O684 C682 1.263 . S
C685 O686 1.235 . S
C685 O712 1.289 . S
O686 C685 1.235 . S
C687 C689 1.400 . S
C687 N690 1.351 . S
C687 C692 1.501 . S
C688 C689 1.387 . S
C688 N691 1.341 . S
C689 C687 1.400 . S
C689 C688 1.387 . S
N690 Co681 2.022 . S
N690 C687 1.351 . S
N690 N691 1.365 . S
N691 C688 1.341 . S
N691 N690 1.365 . S
N691 H711 0.862 . S
C692 C687 1.501 . S
C692 H693 0.961 . S
C692 H694 0.961 . S
C692 H695 0.960 . S
H693 C692 0.961 . S
H694 C692 0.961 . S
H695 C692 0.960 . S
C696 N697 1.342 . S
C696 C700 1.401 . S
C696 C701 1.499 . S
N697 Co680 1.989 . S
N697 C696 1.342 . S
N697 N698 1.388 . S
N698 Co681 1.993 . S
N698 N697 1.388 . S
N698 C699 1.346 . S
C699 N698 1.346 . S
C699 C700 1.396 . S
C699 C709 1.510 . S
C700 C696 1.401 . S
C700 C699 1.396 . S
C701 C696 1.499 . S
C701 H702 0.959 . S
C701 H703 0.960 . S
C701 H704 0.961 . S
H702 C701 0.959 . S
H703 C701 0.960 . S
H704 C701 0.961 . S
O705 Co680 1.967 . S
O705 C713 1.258 . S
O706 Co681 1.941 . S
O706 C713 1.266 . S
H707 C709 0.959 . S
H708 C709 0.961 . S
C709 C699 1.510 . S
C709 H707 0.959 . S
C709 H708 0.961 . S
C709 H710 0.960 . S
H710 C709 0.960 . S
H711 N691 0.862 . S
O712 Co680 1.920 . S
O712 C685 1.289 . S
C713 O705 1.258 . S
C713 O706 1.266 . S
Co714 O717 1.970 . S
Co714 N731 1.989 . S
Co714 O739 1.967 . S
Co714 O746 1.920 . S
Co715 O718 1.966 . S
Co715 N724 2.022 . S
Co715 N732 1.993 . S
Co715 O740 1.941 . S
C716 O717 1.258 . S
C716 O718 1.263 . S
O717 Co714 1.970 . S
O717 C716 1.258 . S
O718 Co715 1.966 . S
O718 C716 1.263 . S
C719 O720 1.235 . S
C719 O746 1.289 . S
O720 C719 1.235 . S
C721 C723 1.400 1_556 S
C721 N724 1.351 . S
C721 C726 1.501 . S
C722 C723 1.387 . S
C722 N725 1.341 1_554 S
C723 C721 1.400 1_554 S
C723 C722 1.387 . S
N724 Co715 2.022 . S
N724 C721 1.351 . S
N724 N725 1.365 . S
N725 C722 1.341 1_556 S
N725 N724 1.365 . S
N725 H745 0.862 . S
C726 C721 1.501 . S
C726 H727 0.961 . S
C726 H728 0.961 . S
C726 H729 0.960 . S
H727 C726 0.961 . S
H728 C726 0.961 . S
H729 C726 0.960 . S
C730 N731 1.342 . S
C730 C734 1.401 . S
C730 C735 1.499 . S
N731 Co714 1.989 . S
N731 C730 1.342 . S
N731 N732 1.388 . S
N732 Co715 1.993 . S
N732 N731 1.388 . S
N732 C733 1.346 . S
C733 N732 1.346 . S
C733 C734 1.396 . S
C733 C743 1.510 . S
C734 C730 1.401 . S
C734 C733 1.396 . S
C735 C730 1.499 . S
C735 H736 0.959 . S
C735 H737 0.960 . S
C735 H738 0.961 . S
H736 C735 0.959 . S
H737 C735 0.960 . S
H738 C735 0.961 . S
O739 Co714 1.967 . S
O739 C747 1.258 . S
O740 Co715 1.941 . S
O740 C747 1.266 . S
H741 C743 0.959 . S
H742 C743 0.961 . S
C743 C733 1.510 . S
C743 H741 0.959 . S
C743 H742 0.961 . S
C743 H744 0.960 . S
H744 C743 0.960 . S
H745 N725 0.862 . S
O746 Co714 1.920 . S
O746 C719 1.289 . S
C747 O739 1.258 . S
C747 O740 1.266 . S
Co748 O751 1.970 . S
Co748 N765 1.989 . S
Co748 O773 1.967 . S
Co748 O780 1.920 . S
Co749 O752 1.966 . S
Co749 N758 2.022 . S
Co749 N766 1.993 . S
Co749 O774 1.941 . S
C750 O751 1.258 . S
C750 O752 1.263 1_556 S
O751 Co748 1.970 . S
O751 C750 1.258 . S
O752 Co749 1.966 . S
O752 C750 1.263 1_554 S
C753 O754 1.235 . S
C753 O780 1.289 . S
O754 C753 1.235 . S
C755 C757 1.400 . S
C755 N758 1.351 . S
C755 C760 1.501 . S
C756 C757 1.387 . S
C756 N759 1.341 . S
C757 C755 1.400 . S
C757 C756 1.387 . S
N758 Co749 2.022 . S
N758 C755 1.351 . S
N758 N759 1.365 . S
N759 C756 1.341 . S
N759 N758 1.365 . S
N759 H779 0.862 . S
C760 C755 1.501 . S
C760 H761 0.961 . S
C760 H762 0.961 . S
C760 H763 0.960 . S
H761 C760 0.961 . S
H762 C760 0.961 . S
H763 C760 0.960 . S
C764 N765 1.342 . S
C764 C768 1.401 1_556 S
C764 C769 1.499 . S
N765 Co748 1.989 . S
N765 C764 1.342 . S
N765 N766 1.388 1_556 S
N766 Co749 1.993 . S
N766 N765 1.388 1_554 S
N766 C767 1.346 . S
C767 N766 1.346 . S
C767 C768 1.396 . S
C767 C777 1.510 . S
C768 C764 1.401 1_554 S
C768 C767 1.396 . S
C769 C764 1.499 . S
C769 H770 0.959 . S
C769 H771 0.960 . S
C769 H772 0.961 . S
H770 C769 0.959 . S
H771 C769 0.960 . S
H772 C769 0.961 . S
O773 Co748 1.967 . S
O773 C781 1.258 . S
O774 Co749 1.941 . S
O774 C781 1.266 1_554 S
H775 C777 0.959 . S
H776 C777 0.961 . S
C777 C767 1.510 . S
C777 H775 0.959 . S
C777 H776 0.961 . S
C777 H778 0.960 . S
H778 C777 0.960 . S
H779 N759 0.862 . S
O780 Co748 1.920 . S
O780 C753 1.289 . S
C781 O773 1.258 . S
C781 O774 1.266 1_556 S
Co782 O785 1.970 . S
Co782 N799 1.989 . S
Co782 O807 1.967 . S
Co782 O814 1.920 . S
Co783 O786 1.966 . S
Co783 N792 2.022 . S
Co783 N800 1.993 . S
Co783 O808 1.941 . S
C784 O785 1.258 . S
C784 O786 1.263 . S
O785 Co782 1.970 . S
O785 C784 1.258 . S
O786 Co783 1.966 . S
O786 C784 1.263 . S
C787 O788 1.235 . S
C787 O814 1.289 . S
O788 C787 1.235 . S
C789 C791 1.400 . S
C789 N792 1.351 . S
C789 C794 1.501 . S
C790 C791 1.387 . S
C790 N793 1.341 . S
C791 C789 1.400 . S
C791 C790 1.387 . S
N792 Co783 2.022 . S
N792 C789 1.351 . S
N792 N793 1.365 . S
N793 C790 1.341 . S
N793 N792 1.365 . S
N793 H813 0.862 . S
C794 C789 1.501 . S
C794 H795 0.961 . S
C794 H796 0.961 . S
C794 H797 0.960 . S
H795 C794 0.961 . S
H796 C794 0.961 . S
H797 C794 0.960 . S
C798 N799 1.342 . S
C798 C802 1.401 . S
C798 C803 1.499 . S
N799 Co782 1.989 . S
N799 C798 1.342 . S
N799 N800 1.388 . S
N800 Co783 1.993 . S
N800 N799 1.388 . S
N800 C801 1.346 . S
C801 N800 1.346 . S
C801 C802 1.396 . S
C801 C811 1.510 . S
C802 C798 1.401 . S
C802 C801 1.396 . S
C803 C798 1.499 . S
C803 H804 0.959 . S
C803 H805 0.960 . S
C803 H806 0.961 . S
H804 C803 0.959 . S
H805 C803 0.960 . S
H806 C803 0.961 . S
O807 Co782 1.967 . S
O807 C815 1.258 . S
O808 Co783 1.941 . S
O808 C815 1.266 . S
H809 C811 0.959 . S
H810 C811 0.961 . S
C811 C801 1.510 . S
C811 H809 0.959 . S
C811 H810 0.961 . S
C811 H812 0.960 . S
H812 C811 0.960 . S
H813 N793 0.862 . S
O814 Co782 1.920 . S
O814 C787 1.289 . S
C815 O807 1.258 . S
C815 O808 1.266 . S
Co816 O819 1.970 . S
Co816 N833 1.989 . S
Co816 O841 1.967 . S
Co816 O848 1.920 . S
Co817 O820 1.966 . S
Co817 N826 2.022 . S
Co817 N834 1.993 . S
Co817 O842 1.941 . S
C818 O819 1.258 . S
C818 O820 1.263 . S
O819 Co816 1.970 . S
O819 C818 1.258 . S
O820 Co817 1.966 . S
O820 C818 1.263 . S
C821 O822 1.235 . S
C821 O848 1.289 . S
O822 C821 1.235 . S
C823 C825 1.400 . S
C823 N826 1.351 . S
C823 C828 1.501 . S
C824 C825 1.387 . S
C824 N827 1.341 . S
C825 C823 1.400 . S
C825 C824 1.387 . S
N826 Co817 2.022 . S
N826 C823 1.351 . S
N826 N827 1.365 . S
N827 C824 1.341 . S
N827 N826 1.365 . S
N827 H847 0.862 . S
C828 C823 1.501 . S
C828 H829 0.961 . S
C828 H830 0.961 . S
C828 H831 0.960 . S
H829 C828 0.961 . S
H830 C828 0.961 . S
H831 C828 0.960 . S
C832 N833 1.342 . S
C832 C836 1.401 . S
C832 C837 1.499 . S
N833 Co816 1.989 . S
N833 C832 1.342 . S
N833 N834 1.388 . S
N834 Co817 1.993 . S
N834 N833 1.388 . S
N834 C835 1.346 . S
C835 N834 1.346 . S
C835 C836 1.396 . S
C835 C845 1.510 . S
C836 C832 1.401 . S
C836 C835 1.396 . S
C837 C832 1.499 . S
C837 H838 0.959 . S
C837 H839 0.960 . S
C837 H840 0.961 . S
H838 C837 0.959 . S
H839 C837 0.960 . S
H840 C837 0.961 . S
O841 Co816 1.967 . S
O841 C849 1.258 . S
O842 Co817 1.941 . S
O842 C849 1.266 . S
H843 C845 0.959 . S
H844 C845 0.961 . S
C845 C835 1.510 . S
C845 H843 0.959 . S
C845 H844 0.961 . S
C845 H846 0.960 . S
H846 C845 0.960 . S
H847 N827 0.862 . S
O848 Co816 1.920 . S
O848 C821 1.289 . S
C849 O841 1.258 . S
C849 O842 1.266 . S
Co850 O853 1.970 . S
Co850 N867 1.989 . S
Co850 O875 1.967 . S
Co850 O882 1.920 . S
Co851 O854 1.966 . S
Co851 N860 2.022 . S
Co851 N868 1.993 . S
Co851 O876 1.941 . S
C852 O853 1.258 . S
C852 O854 1.263 . S
O853 Co850 1.970 . S
O853 C852 1.258 . S
O854 Co851 1.966 . S
O854 C852 1.263 . S
C855 O856 1.235 . S
C855 O882 1.289 . S
O856 C855 1.235 . S
C857 C859 1.400 . S
C857 N860 1.351 . S
C857 C862 1.501 . S
C858 C859 1.387 . S
C858 N861 1.341 . S
C859 C857 1.400 . S
C859 C858 1.387 . S
N860 Co851 2.022 . S
N860 C857 1.351 . S
N860 N861 1.365 . S
N861 C858 1.341 . S
N861 N860 1.365 . S
N861 H881 0.862 . S
C862 C857 1.501 . S
C862 H863 0.961 . S
C862 H864 0.961 . S
C862 H865 0.960 . S
H863 C862 0.961 . S
H864 C862 0.961 . S
H865 C862 0.960 . S
C866 N867 1.342 . S
C866 C870 1.401 . S
C866 C871 1.499 . S
N867 Co850 1.989 . S
N867 C866 1.342 . S
N867 N868 1.388 . S
N868 Co851 1.993 . S
N868 N867 1.388 . S
N868 C869 1.346 . S
C869 N868 1.346 . S
C869 C870 1.396 . S
C869 C879 1.510 . S
C870 C866 1.401 . S
C870 C869 1.396 . S
C871 C866 1.499 . S
C871 H872 0.959 . S
C871 H873 0.960 . S
C871 H874 0.961 . S
H872 C871 0.959 . S
H873 C871 0.960 . S
H874 C871 0.961 . S
O875 Co850 1.967 . S
O875 C883 1.258 . S
O876 Co851 1.941 . S
O876 C883 1.266 . S
H877 C879 0.959 . S
H878 C879 0.961 . S
C879 C869 1.510 . S
C879 H877 0.959 . S
C879 H878 0.961 . S
C879 H880 0.960 . S
H880 C879 0.960 . S
H881 N861 0.862 . S
O882 Co850 1.920 . S
O882 C855 1.289 . S
C883 O875 1.258 . S
C883 O876 1.266 . S
Co884 O887 1.970 . S
Co884 N901 1.989 . S
Co884 O909 1.967 . S
Co884 O916 1.920 . S
Co885 O888 1.966 . S
Co885 N894 2.022 . S
Co885 N902 1.993 . S
Co885 O910 1.941 . S
C886 O887 1.258 . S
C886 O888 1.263 1_556 S
O887 Co884 1.970 . S
O887 C886 1.258 . S
O888 Co885 1.966 . S
O888 C886 1.263 1_554 S
C889 O890 1.235 . S
C889 O916 1.289 . S
O890 C889 1.235 . S
C891 C893 1.400 . S
C891 N894 1.351 . S
C891 C896 1.501 . S
C892 C893 1.387 . S
C892 N895 1.341 . S
C893 C891 1.400 . S
C893 C892 1.387 . S
N894 Co885 2.022 . S
N894 C891 1.351 . S
N894 N895 1.365 . S
N895 C892 1.341 . S
N895 N894 1.365 . S
N895 H915 0.862 . S
C896 C891 1.501 . S
C896 H897 0.961 . S
C896 H898 0.961 . S
C896 H899 0.960 . S
H897 C896 0.961 . S
H898 C896 0.961 . S
H899 C896 0.960 . S
C900 N901 1.342 . S
C900 C904 1.401 1_556 S
C900 C905 1.499 . S
N901 Co884 1.989 . S
N901 C900 1.342 . S
N901 N902 1.388 1_556 S
N902 Co885 1.993 . S
N902 N901 1.388 1_554 S
N902 C903 1.346 . S
C903 N902 1.346 . S
C903 C904 1.396 . S
C903 C913 1.510 . S
C904 C900 1.401 1_554 S
C904 C903 1.396 . S
C905 C900 1.499 . S
C905 H906 0.959 . S
C905 H907 0.960 . S
C905 H908 0.961 . S
H906 C905 0.959 . S
H907 C905 0.960 . S
H908 C905 0.961 . S
O909 Co884 1.967 . S
O909 C917 1.258 . S
O910 Co885 1.941 . S
O910 C917 1.266 1_554 S
H911 C913 0.959 . S
H912 C913 0.961 . S
C913 C903 1.510 . S
C913 H911 0.959 . S
C913 H912 0.961 . S
C913 H914 0.960 . S
H914 C913 0.960 . S
H915 N895 0.862 . S
O916 Co884 1.920 . S
O916 C889 1.289 . S
C917 O909 1.258 . S
C917 O910 1.266 1_556 S
Co918 O921 1.970 . S
Co918 N935 1.989 . S
Co918 O943 1.967 . S
Co918 O950 1.920 . S
Co919 O922 1.966 . S
Co919 N928 2.022 . S
Co919 N936 1.993 . S
Co919 O944 1.941 . S
C920 O921 1.258 . S
C920 O922 1.263 . S
O921 Co918 1.970 . S
O921 C920 1.258 . S
O922 Co919 1.966 . S
O922 C920 1.263 . S
C923 O924 1.235 . S
C923 O950 1.289 . S
O924 C923 1.235 . S
C925 C927 1.400 1_556 S
C925 N928 1.351 . S
C925 C930 1.501 . S
C926 C927 1.387 . S
C926 N929 1.341 1_554 S
C927 C925 1.400 1_554 S
C927 C926 1.387 . S
N928 Co919 2.022 . S
N928 C925 1.351 . S
N928 N929 1.365 . S
N929 C926 1.341 1_556 S
N929 N928 1.365 . S
N929 H949 0.862 . S
C930 C925 1.501 . S
C930 H931 0.961 . S
C930 H932 0.961 . S
C930 H933 0.960 . S
H931 C930 0.961 . S
H932 C930 0.961 . S
H933 C930 0.960 . S
C934 N935 1.342 . S
C934 C938 1.401 . S
C934 C939 1.499 . S
N935 Co918 1.989 . S
N935 C934 1.342 . S
N935 N936 1.388 . S
N936 Co919 1.993 . S
N936 N935 1.388 . S
N936 C937 1.346 . S
C937 N936 1.346 . S
C937 C938 1.396 . S
C937 C947 1.510 . S
C938 C934 1.401 . S
C938 C937 1.396 . S
C939 C934 1.499 . S
C939 H940 0.959 . S
C939 H941 0.960 . S
C939 H942 0.961 . S
H940 C939 0.959 . S
H941 C939 0.960 . S
H942 C939 0.961 . S
O943 Co918 1.967 . S
O943 C951 1.258 . S
O944 Co919 1.941 . S
O944 C951 1.266 . S
H945 C947 0.959 . S
H946 C947 0.961 . S
C947 C937 1.510 . S
C947 H945 0.959 . S
C947 H946 0.961 . S
C947 H948 0.960 . S
H948 C947 0.960 . S
H949 N929 0.862 . S
O950 Co918 1.920 . S
O950 C923 1.289 . S
C951 O943 1.258 . S
C951 O944 1.266 . S
Co952 O955 1.970 . S
Co952 N969 1.989 . S
Co952 O977 1.967 . S
Co952 O984 1.920 . S
Co953 O956 1.966 . S
Co953 N962 2.022 . S
Co953 N970 1.993 . S
Co953 O978 1.941 . S
C954 O955 1.258 . S
C954 O956 1.263 . S
O955 Co952 1.970 . S
O955 C954 1.258 . S
O956 Co953 1.966 . S
O956 C954 1.263 . S
C957 O958 1.235 . S
C957 O984 1.289 . S
O958 C957 1.235 . S
C959 C961 1.400 . S
C959 N962 1.351 . S
C959 C964 1.501 . S
C960 C961 1.387 . S
C960 N963 1.341 . S
C961 C959 1.400 . S
C961 C960 1.387 . S
N962 Co953 2.022 . S
N962 C959 1.351 . S
N962 N963 1.365 . S
N963 C960 1.341 . S
N963 N962 1.365 . S
N963 H983 0.862 . S
C964 C959 1.501 . S
C964 H965 0.961 . S
C964 H966 0.961 . S
C964 H967 0.960 . S
H965 C964 0.961 . S
H966 C964 0.961 . S
H967 C964 0.960 . S
C968 N969 1.342 . S
C968 C972 1.401 . S
C968 C973 1.499 . S
N969 Co952 1.989 . S
N969 C968 1.342 . S
N969 N970 1.388 . S
N970 Co953 1.993 . S
N970 N969 1.388 . S
N970 C971 1.346 . S
C971 N970 1.346 . S
C971 C972 1.396 . S
C971 C981 1.510 . S
C972 C968 1.401 . S
C972 C971 1.396 . S
C973 C968 1.499 . S
C973 H974 0.959 . S
C973 H975 0.960 . S
C973 H976 0.961 . S
H974 C973 0.959 . S
H975 C973 0.960 . S
H976 C973 0.961 . S
O977 Co952 1.967 . S
O977 C985 1.258 . S
O978 Co953 1.941 . S
O978 C985 1.266 . S
H979 C981 0.959 . S
H980 C981 0.961 . S
C981 C971 1.510 . S
C981 H979 0.959 . S
C981 H980 0.961 . S
C981 H982 0.960 . S
H982 C981 0.960 . S
H983 N963 0.862 . S
O984 Co952 1.920 . S
O984 C957 1.289 . S
C985 O977 1.258 . S
C985 O978 1.266 . S
Co986 O989 1.970 . S
Co986 N1003 1.989 . S
Co986 O1011 1.967 . S
Co986 O1018 1.920 . S
Co987 O990 1.966 . S
Co987 N996 2.022 . S
Co987 N1004 1.993 . S
Co987 O1012 1.941 . S
C988 O989 1.258 . S
C988 O990 1.263 . S
O989 Co986 1.970 . S
O989 C988 1.258 . S
O990 Co987 1.966 . S
O990 C988 1.263 . S
C991 O992 1.235 . S
C991 O1018 1.289 . S
O992 C991 1.235 . S
C993 C995 1.400 1_554 S
C993 N996 1.351 . S
C993 C998 1.501 . S
C994 C995 1.387 . S
C994 N997 1.341 1_556 S
C995 C993 1.400 1_556 S
C995 C994 1.387 . S
N996 Co987 2.022 . S
N996 C993 1.351 . S
N996 N997 1.365 . S
N997 C994 1.341 1_554 S
N997 N996 1.365 . S
N997 H1017 0.862 . S
C998 C993 1.501 . S
C998 H999 0.961 . S
C998 H1000 0.961 . S
C998 H1001 0.960 . S
H999 C998 0.961 . S
H1000 C998 0.961 . S
H1001 C998 0.960 . S
C1002 N1003 1.342 . S
C1002 C1006 1.401 . S
C1002 C1007 1.499 . S
N1003 Co986 1.989 . S
N1003 C1002 1.342 . S
N1003 N1004 1.388 . S
N1004 Co987 1.993 . S
N1004 N1003 1.388 . S
N1004 C1005 1.346 . S
C1005 N1004 1.346 . S
C1005 C1006 1.396 . S
C1005 C1015 1.510 . S
C1006 C1002 1.401 . S
C1006 C1005 1.396 . S
C1007 C1002 1.499 . S
C1007 H1008 0.959 . S
C1007 H1009 0.960 . S
C1007 H1010 0.961 . S
H1008 C1007 0.959 . S
H1009 C1007 0.960 . S
H1010 C1007 0.961 . S
O1011 Co986 1.967 . S
O1011 C1019 1.258 . S
O1012 Co987 1.941 . S
O1012 C1019 1.266 . S
H1013 C1015 0.959 . S
H1014 C1015 0.961 . S
C1015 C1005 1.510 . S
C1015 H1013 0.959 . S
C1015 H1014 0.961 . S
C1015 H1016 0.960 . S
H1016 C1015 0.960 . S
H1017 N997 0.862 . S
O1018 Co986 1.920 . S
O1018 C991 1.289 . S
C1019 O1011 1.258 . S
C1019 O1012 1.266 . S
Co1020 O1023 1.970 . S
Co1020 N1037 1.989 . S
Co1020 O1045 1.967 . S
Co1020 O1052 1.920 . S
Co1021 O1024 1.966 . S
Co1021 N1030 2.022 . S
Co1021 N1038 1.993 . S
Co1021 O1046 1.941 . S
C1022 O1023 1.258 . S
C1022 O1024 1.263 1_554 S
O1023 Co1020 1.970 . S
O1023 C1022 1.258 . S
O1024 Co1021 1.966 . S
O1024 C1022 1.263 1_556 S
C1025 O1026 1.235 . S
C1025 O1052 1.289 . S
O1026 C1025 1.235 . S
C1027 C1029 1.400 . S
C1027 N1030 1.351 . S
C1027 C1032 1.501 . S
C1028 C1029 1.387 . S
C1028 N1031 1.341 . S
C1029 C1027 1.400 . S
C1029 C1028 1.387 . S
N1030 Co1021 2.022 . S
N1030 C1027 1.351 . S
N1030 N1031 1.365 . S
N1031 C1028 1.341 . S
N1031 N1030 1.365 . S
N1031 H1051 0.862 . S
C1032 C1027 1.501 . S
C1032 H1033 0.961 . S
C1032 H1034 0.961 . S
C1032 H1035 0.960 . S
H1033 C1032 0.961 . S
H1034 C1032 0.961 . S
H1035 C1032 0.960 . S
C1036 N1037 1.342 . S
C1036 C1040 1.401 1_554 S
C1036 C1041 1.499 . S
N1037 Co1020 1.989 . S
N1037 C1036 1.342 . S
N1037 N1038 1.388 1_554 S
N1038 Co1021 1.993 . S
N1038 N1037 1.388 1_556 S
N1038 C1039 1.346 . S
C1039 N1038 1.346 . S
C1039 C1040 1.396 . S
C1039 C1049 1.510 . S
C1040 C1036 1.401 1_556 S
C1040 C1039 1.396 . S
C1041 C1036 1.499 . S
C1041 H1042 0.959 . S
C1041 H1043 0.960 . S
C1041 H1044 0.961 . S
H1042 C1041 0.959 . S
H1043 C1041 0.960 . S
H1044 C1041 0.961 . S
O1045 Co1020 1.967 . S
O1045 C1053 1.258 . S
O1046 Co1021 1.941 . S
O1046 C1053 1.266 1_556 S
H1047 C1049 0.959 . S
H1048 C1049 0.961 . S
C1049 C1039 1.510 . S
C1049 H1047 0.959 . S
C1049 H1048 0.961 . S
C1049 H1050 0.960 . S
H1050 C1049 0.960 . S
H1051 N1031 0.862 . S
O1052 Co1020 1.920 . S
O1052 C1025 1.289 . S
C1053 O1045 1.258 . S
C1053 O1046 1.266 1_554 S
Co1054 O1057 1.970 . S
Co1054 N1071 1.989 . S
Co1054 O1079 1.967 . S
Co1054 O1086 1.920 . S
Co1055 O1058 1.966 . S
Co1055 N1064 2.022 . S
Co1055 N1072 1.993 . S
Co1055 O1080 1.941 . S
C1056 O1057 1.258 . S
C1056 O1058 1.263 . S
O1057 Co1054 1.970 . S
O1057 C1056 1.258 . S
O1058 Co1055 1.966 . S
O1058 C1056 1.263 . S
C1059 O1060 1.235 . S
C1059 O1086 1.289 . S
O1060 C1059 1.235 . S
C1061 C1063 1.400 . S
C1061 N1064 1.351 . S
C1061 C1066 1.501 . S
C1062 C1063 1.387 . S
C1062 N1065 1.341 . S
C1063 C1061 1.400 . S
C1063 C1062 1.387 . S
N1064 Co1055 2.022 . S
N1064 C1061 1.351 . S
N1064 N1065 1.365 . S
N1065 C1062 1.341 . S
N1065 N1064 1.365 . S
N1065 H1085 0.862 . S
C1066 C1061 1.501 . S
C1066 H1067 0.961 . S
C1066 H1068 0.961 . S
C1066 H1069 0.960 . S
H1067 C1066 0.961 . S
H1068 C1066 0.961 . S
H1069 C1066 0.960 . S
C1070 N1071 1.342 . S
C1070 C1074 1.401 . S
C1070 C1075 1.499 . S
N1071 Co1054 1.989 . S
N1071 C1070 1.342 . S
N1071 N1072 1.388 . S
N1072 Co1055 1.993 . S
N1072 N1071 1.388 . S
N1072 C1073 1.346 . S
C1073 N1072 1.346 . S
C1073 C1074 1.396 . S
C1073 C1083 1.510 . S
C1074 C1070 1.401 . S
C1074 C1073 1.396 . S
C1075 C1070 1.499 . S
C1075 H1076 0.959 . S
C1075 H1077 0.960 . S
C1075 H1078 0.961 . S
H1076 C1075 0.959 . S
H1077 C1075 0.960 . S
H1078 C1075 0.961 . S
O1079 Co1054 1.967 . S
O1079 C1087 1.258 . S
O1080 Co1055 1.941 . S
O1080 C1087 1.266 . S
H1081 C1083 0.959 . S
H1082 C1083 0.961 . S
C1083 C1073 1.510 . S
C1083 H1081 0.959 . S
C1083 H1082 0.961 . S
C1083 H1084 0.960 . S
H1084 C1083 0.960 . S
H1085 N1065 0.862 . S
O1086 Co1054 1.920 . S
O1086 C1059 1.289 . S
C1087 O1079 1.258 . S
C1087 O1080 1.266 . S
C1088 C1089 1.391 . S
C1088 C1090 1.394 . S
C1088 H1104 0.931 . S
C1089 C1088 1.391 . S
C1089 C1093 1.376 . S
C1090 C1088 1.394 . S
C1090 C1091 1.369 . S
C1090 C1094 1.531 . S
C1091 C1090 1.369 . S
C1091 C1092 1.410 . S
C1091 C1099 1.503 . S
C1092 C1091 1.410 . S
C1092 C1093 1.392 . S
C1092 C1095 1.511 1_554 S
C1093 C1089 1.376 . S
C1093 C1092 1.392 . S
C1093 H1105 0.929 1_554 S
C1094 C1090 1.531 . S
C1094 H1106 0.960 . S
C1094 H1107 0.962 . S
C1094 H1108 0.960 . S
C1095 C1092 1.511 1_556 S
C1095 H1109 0.961 . S
C1095 H1110 0.961 . S
C1095 H1111 0.961 1_556 S
C1096 C1097 1.370 1_556 S
C1096 C1098 1.363 . S
C1096 H1112 0.931 . S
C1097 C1096 1.370 1_554 S
C1097 C1101 1.408 . S
C1098 C1096 1.363 . S
C1098 C1099 1.370 1_556 S
C1098 C1102 1.524 . S
C1099 C1091 1.503 . S
C1099 C1098 1.370 1_554 S
C1099 C1100 1.403 . S
C1100 C1099 1.403 . S
C1100 C1101 1.404 . S
C1100 C1103 1.539 . S
C1101 C1097 1.408 . S
C1101 C1100 1.404 . S
C1101 H1113 0.930 . S
C1102 C1098 1.524 . S
C1102 H1114 0.956 . S
C1102 H1115 0.961 . S
C1102 H1116 0.961 . S
C1103 C1100 1.539 . S
C1103 H1117 0.958 . S
C1103 H1118 0.961 . S
C1103 H1119 0.960 . S
H1104 C1088 0.931 . S
H1105 C1093 0.929 1_556 S
H1106 C1094 0.960 . S
H1107 C1094 0.962 . S
H1108 C1094 0.960 . S
H1109 C1095 0.961 . S
H1110 C1095 0.961 . S
H1111 C1095 0.961 1_554 S
H1112 C1096 0.931 . S
H1113 C1101 0.930 . S
H1114 C1102 0.956 . S
H1115 C1102 0.961 . S
H1116 C1102 0.961 . S
H1117 C1103 0.958 . S
H1118 C1103 0.961 . S
H1119 C1103 0.960 . S
C1120 C1121 1.391 . S
C1120 C1122 1.394 . S
C1120 H1136 0.931 . S
C1121 C1120 1.391 . S
C1121 C1125 1.376 . S
C1122 C1120 1.394 . S
C1122 C1123 1.369 . S
C1122 C1126 1.531 . S
C1123 C1122 1.369 . S
C1123 C1124 1.410 . S
C1123 C1131 1.503 1_455 S
C1124 C1123 1.410 . S
C1124 C1125 1.392 . S
C1124 C1127 1.511 . S
C1125 C1121 1.376 . S
C1125 C1124 1.392 . S
C1125 H1137 0.929 . S
C1126 C1122 1.531 . S
C1126 H1138 0.960 1_455 S
C1126 H1139 0.962 . S
C1126 H1140 0.960 . S
C1127 C1124 1.511 . S
C1127 H1141 0.961 . S
C1127 H1142 0.961 1_455 S
C1127 H1143 0.961 . S
C1128 C1129 1.370 . S
C1128 C1130 1.363 . S
C1128 H1144 0.931 . S
C1129 C1128 1.370 . S
C1129 C1133 1.408 . S
C1130 C1128 1.363 . S
C1130 C1131 1.370 . S
C1130 C1134 1.524 . S
C1131 C1123 1.503 1_655 S
C1131 C1130 1.370 . S
C1131 C1132 1.403 . S
C1132 C1131 1.403 . S
C1132 C1133 1.404 . S
C1132 C1135 1.539 . S
C1133 C1129 1.408 . S
C1133 C1132 1.404 . S
C1133 H1145 0.930 . S
C1134 C1130 1.524 . S
C1134 H1146 0.982 . S
C1134 H1147 0.919 1_655 S
C1134 H1148 0.961 . S
C1135 C1132 1.539 . S
C1135 H1149 0.958 . S
C1135 H1150 0.961 . S
C1135 H1151 0.966 . S
H1136 C1120 0.931 . S
H1137 C1125 0.929 . S
H1138 C1126 0.960 1_655 S
H1139 C1126 0.962 . S
H1140 C1126 0.960 . S
H1141 C1127 0.961 . S
H1142 C1127 0.961 1_655 S
H1143 C1127 0.961 . S
H1144 C1128 0.931 . S
H1145 C1133 0.930 . S
H1146 C1134 0.982 . S
H1147 C1134 0.919 1_455 S
H1148 C1134 0.961 . S
H1149 C1135 0.958 . S
H1150 C1135 0.961 . S
H1151 C1135 0.966 . S
C1152 C1153 1.391 . S
C1152 C1154 1.394 . S
C1152 H1168 0.931 . S
C1153 C1152 1.391 . S
C1153 C1157 1.376 . S
C1154 C1152 1.394 . S
C1154 C1155 1.369 . S
C1154 C1158 1.531 . S
C1155 C1154 1.369 . S
C1155 C1156 1.410 . S
C1155 C1163 1.503 . S
C1156 C1155 1.410 . S
C1156 C1157 1.392 . S
C1156 C1159 1.511 . S
C1157 C1153 1.376 . S
C1157 C1156 1.392 . S
C1157 H1169 0.929 . S
C1158 C1154 1.531 . S
C1158 H1170 0.960 . S
C1158 H1171 0.962 . S
C1158 H1172 0.960 . S
C1159 C1156 1.511 . S
C1159 H1173 0.961 . S
C1159 H1174 0.961 . S
C1159 H1175 0.961 . S
C1160 C1161 1.370 . S
C1160 C1162 1.363 . S
C1160 H1176 0.931 . S
C1161 C1160 1.370 . S
C1161 C1165 1.408 . S
C1162 C1160 1.363 . S
C1162 C1163 1.370 . S
C1162 C1166 1.524 . S
C1163 C1155 1.503 . S
C1163 C1162 1.370 . S
C1163 C1164 1.403 . S
C1164 C1163 1.403 . S
C1164 C1165 1.404 . S
C1164 C1167 1.539 . S
C1165 C1161 1.408 . S
C1165 C1164 1.404 . S
C1165 H1177 0.930 . S
C1166 C1162 1.524 . S
C1166 H1178 0.956 . S
C1166 H1179 0.961 . S
C1166 H1180 0.961 . S
C1167 C1164 1.539 . S
C1167 H1181 0.958 . S
C1167 H1182 0.961 . S
C1167 H1183 0.960 . S
H1168 C1152 0.931 . S
H1169 C1157 0.929 . S
H1170 C1158 0.960 . S
H1171 C1158 0.962 . S
H1172 C1158 0.960 . S
H1173 C1159 0.961 . S
H1174 C1159 0.961 . S
H1175 C1159 0.961 . S
H1176 C1160 0.931 . S
H1177 C1165 0.930 . S
H1178 C1166 0.956 . S
H1179 C1166 0.961 . S
H1180 C1166 0.961 . S
H1181 C1167 0.958 . S
H1182 C1167 0.961 . S
H1183 C1167 0.960 . S
C1184 C1185 1.391 . S
C1184 C1186 1.394 . S
C1184 H1200 0.931 . S
C1185 C1184 1.391 . S
C1185 C1189 1.376 . S
C1186 C1184 1.394 . S
C1186 C1187 1.369 . S
C1186 C1190 1.531 . S
C1187 C1186 1.369 . S
C1187 C1188 1.410 . S
C1187 C1195 1.503 . S
C1188 C1187 1.410 . S
C1188 C1189 1.392 . S
C1188 C1191 1.511 . S
C1189 C1185 1.376 . S
C1189 C1188 1.392 . S
C1189 H1201 0.929 . S
C1190 C1186 1.531 . S
C1190 H1202 0.960 . S
C1190 H1203 0.962 . S
C1190 H1204 0.960 . S
C1191 C1188 1.511 . S
C1191 H1205 0.961 . S
C1191 H1206 0.961 . S
C1191 H1207 0.961 . S
C1192 C1193 1.370 . S
C1192 C1194 1.363 . S
C1192 H1208 0.931 . S
C1193 C1192 1.370 . S
C1193 C1197 1.408 . S
C1194 C1192 1.363 . S
C1194 C1195 1.370 . S
C1194 C1198 1.524 . S
C1195 C1187 1.503 . S
C1195 C1194 1.370 . S
C1195 C1196 1.403 . S
C1196 C1195 1.403 . S
C1196 C1197 1.404 . S
C1196 C1199 1.539 . S
C1197 C1193 1.408 . S
C1197 C1196 1.404 . S
C1197 H1209 0.930 . S
C1198 C1194 1.524 . S
C1198 H1210 0.956 . S
C1198 H1211 0.961 . S
C1198 H1212 0.961 . S
C1199 C1196 1.539 . S
C1199 H1213 0.958 . S
C1199 H1214 0.961 . S
C1199 H1215 0.960 . S
H1200 C1184 0.931 . S
H1201 C1189 0.929 . S
H1202 C1190 0.960 . S
H1203 C1190 0.962 . S
H1204 C1190 0.960 . S
H1205 C1191 0.961 . S
H1206 C1191 0.961 . S
H1207 C1191 0.961 . S
H1208 C1192 0.931 . S
H1209 C1197 0.930 . S
H1210 C1198 0.956 . S
H1211 C1198 0.961 . S
H1212 C1198 0.961 . S
H1213 C1199 0.958 . S
H1214 C1199 0.961 . S
H1215 C1199 0.960 . S
C1216 C1217 1.391 1_554 S
C1216 C1218 1.394 . S
C1216 H1232 0.931 . S
C1217 C1216 1.391 1_556 S
C1217 C1221 1.376 . S
C1218 C1216 1.394 . S
C1218 C1219 1.369 1_554 S
C1218 C1222 1.531 . S
C1219 C1218 1.369 1_556 S
C1219 C1220 1.410 . S
C1219 C1227 1.503 . S
C1220 C1219 1.410 . S
C1220 C1221 1.392 . S
C1220 C1223 1.511 . S
C1221 C1217 1.376 . S
C1221 C1220 1.392 . S
C1221 H1233 0.929 . S
C1222 C1218 1.531 . S
C1222 H1234 0.960 . S
C1222 H1235 0.962 . S
C1222 H1236 0.960 . S
C1223 C1220 1.511 . S
C1223 H1237 0.961 . S
C1223 H1238 0.961 . S
C1223 H1239 0.961 . S
C1224 C1225 1.370 . S
C1224 C1226 1.363 . S
C1224 H1240 0.931 . S
C1225 C1224 1.370 . S
C1225 C1229 1.408 1_556 S
C1226 C1224 1.363 . S
C1226 C1227 1.370 . S
C1226 C1230 1.524 . S
C1227 C1219 1.503 . S
C1227 C1226 1.370 . S
C1227 C1228 1.403 1_556 S
C1228 C1227 1.403 1_554 S
C1228 C1229 1.404 . S
C1228 C1231 1.539 . S
C1229 C1225 1.408 1_554 S
C1229 C1228 1.404 . S
C1229 H1241 0.930 . S
C1230 C1226 1.524 . S
C1230 H1242 0.956 . S
C1230 H1243 0.961 . S
C1230 H1244 0.961 . S
C1231 C1228 1.539 . S
C1231 H1245 0.958 . S
C1231 H1246 0.961 . S
C1231 H1247 0.960 . S
H1232 C1216 0.931 . S
H1233 C1221 0.929 . S
H1234 C1222 0.960 . S
H1235 C1222 0.962 . S
H1236 C1222 0.960 . S
H1237 C1223 0.961 . S
H1238 C1223 0.961 . S
H1239 C1223 0.961 . S
H1240 C1224 0.931 . S
H1241 C1229 0.930 . S
H1242 C1230 0.956 . S
H1243 C1230 0.961 . S
H1244 C1230 0.961 . S
H1245 C1231 0.958 . S
H1246 C1231 0.961 . S
H1247 C1231 0.960 . S
C1248 C1249 1.391 . S
C1248 C1250 1.394 . S
C1248 H1264 0.931 . S
C1249 C1248 1.391 . S
C1249 C1253 1.376 . S
C1250 C1248 1.394 . S
C1250 C1251 1.369 . S
C1250 C1254 1.531 . S
C1251 C1250 1.369 . S
C1251 C1252 1.410 . S
C1251 C1259 1.503 . S
C1252 C1251 1.410 . S
C1252 C1253 1.392 . S
C1252 C1255 1.511 . S
C1253 C1249 1.376 . S
C1253 C1252 1.392 . S
C1253 H1265 0.929 . S
C1254 C1250 1.531 . S
C1254 H1266 0.960 . S
C1254 H1267 0.962 . S
C1254 H1268 0.960 . S
C1255 C1252 1.511 . S
C1255 H1269 0.961 . S
C1255 H1270 0.961 . S
C1255 H1271 0.961 . S
C1256 C1257 1.370 . S
C1256 C1258 1.363 . S
C1256 H1272 0.931 . S
C1257 C1256 1.370 . S
C1257 C1261 1.408 . S
C1258 C1256 1.363 . S
C1258 C1259 1.370 . S
C1258 C1262 1.524 . S
C1259 C1251 1.503 . S
C1259 C1258 1.370 . S
C1259 C1260 1.403 . S
C1260 C1259 1.403 . S
C1260 C1261 1.404 . S
C1260 C1263 1.539 . S
C1261 C1257 1.408 . S
C1261 C1260 1.404 . S
C1261 H1273 0.930 . S
C1262 C1258 1.524 . S
C1262 H1274 0.956 . S
C1262 H1275 0.961 . S
C1262 H1276 0.961 . S
C1263 C1260 1.539 . S
C1263 H1277 0.958 . S
C1263 H1278 0.961 . S
C1263 H1279 0.960 . S
H1264 C1248 0.931 . S
H1265 C1253 0.929 . S
H1266 C1254 0.960 . S
H1267 C1254 0.962 . S
H1268 C1254 0.960 . S
H1269 C1255 0.961 . S
H1270 C1255 0.961 . S
H1271 C1255 0.961 . S
H1272 C1256 0.931 . S
H1273 C1261 0.930 . S
H1274 C1262 0.956 . S
H1275 C1262 0.961 . S
H1276 C1262 0.961 . S
H1277 C1263 0.958 . S
H1278 C1263 0.961 . S
H1279 C1263 0.960 . S
C1280 C1281 1.391 . S
C1280 C1282 1.394 . S
C1280 H1296 0.931 . S
C1281 C1280 1.391 . S
C1281 C1285 1.376 . S
C1282 C1280 1.394 . S
C1282 C1283 1.369 . S
C1282 C1286 1.531 . S
C1283 C1282 1.369 . S
C1283 C1284 1.410 . S
C1283 C1291 1.503 . S
C1284 C1283 1.410 . S
C1284 C1285 1.392 . S
C1284 C1287 1.511 . S
C1285 C1281 1.376 . S
C1285 C1284 1.392 . S
C1285 H1297 0.929 . S
C1286 C1282 1.531 . S
C1286 H1298 0.960 . S
C1286 H1299 0.962 . S
C1286 H1300 0.960 . S
C1287 C1284 1.511 . S
C1287 H1301 0.961 . S
C1287 H1302 0.961 . S
C1287 H1303 0.961 . S
C1288 C1289 1.370 . S
C1288 C1290 1.363 . S
C1288 H1304 0.931 . S
C1289 C1288 1.370 . S
C1289 C1293 1.408 . S
C1290 C1288 1.363 . S
C1290 C1291 1.370 . S
C1290 C1294 1.524 . S
C1291 C1283 1.503 . S
C1291 C1290 1.370 . S
C1291 C1292 1.403 . S
C1292 C1291 1.403 . S
C1292 C1293 1.404 . S
C1292 C1295 1.539 . S
C1293 C1289 1.408 . S
C1293 C1292 1.404 . S
C1293 H1305 0.930 . S
C1294 C1290 1.524 . S
C1294 H1306 0.956 . S
C1294 H1307 0.961 . S
C1294 H1308 0.961 . S
C1295 C1292 1.539 . S
C1295 H1309 0.958 . S
C1295 H1310 0.961 . S
C1295 H1311 0.960 . S
H1296 C1280 0.931 . S
H1297 C1285 0.929 . S
H1298 C1286 0.960 . S
H1299 C1286 0.962 . S
H1300 C1286 0.960 . S
H1301 C1287 0.961 . S
H1302 C1287 0.961 . S
H1303 C1287 0.961 . S
H1304 C1288 0.931 . S
H1305 C1293 0.930 . S
H1306 C1294 0.956 . S
H1307 C1294 0.961 . S
H1308 C1294 0.961 . S
H1309 C1295 0.958 . S
H1310 C1295 0.961 . S
H1311 C1295 0.960 . S
C1312 C1313 1.391 . S
C1312 C1314 1.394 . S
C1312 H1328 0.931 . S
C1313 C1312 1.391 . S
C1313 C1317 1.376 . S
C1314 C1312 1.394 . S
C1314 C1315 1.369 . S
C1314 C1318 1.531 . S
C1315 C1314 1.369 . S
C1315 C1316 1.410 . S
C1315 C1323 1.503 1_655 S
C1316 C1315 1.410 . S
C1316 C1317 1.392 . S
C1316 C1319 1.511 . S
C1317 C1313 1.376 . S
C1317 C1316 1.392 . S
C1317 H1329 0.929 . S
C1318 C1314 1.531 . S
C1318 H1330 0.960 1_655 S
C1318 H1331 0.962 . S
C1318 H1332 0.960 . S
C1319 C1316 1.511 . S
C1319 H1333 0.961 . S
C1319 H1334 0.961 1_655 S
C1319 H1335 0.961 . S
C1320 C1321 1.370 . S
C1320 C1322 1.363 . S
C1320 H1336 0.931 . S
C1321 C1320 1.370 . S
C1321 C1325 1.408 . S
C1322 C1320 1.363 . S
C1322 C1323 1.370 . S
C1322 C1326 1.524 . S
C1323 C1315 1.503 1_455 S
C1323 C1322 1.370 . S
C1323 C1324 1.403 . S
C1324 C1323 1.403 . S
C1324 C1325 1.404 . S
C1324 C1327 1.539 . S
C1325 C1321 1.408 . S
C1325 C1324 1.404 . S
C1325 H1337 0.930 . S
C1326 C1322 1.524 . S
C1326 H1338 0.982 . S
C1326 H1339 0.919 1_455 S
C1326 H1340 0.961 . S
C1327 C1324 1.539 . S
C1327 H1341 0.958 . S
C1327 H1342 0.961 . S
C1327 H1343 0.966 . S
H1328 C1312 0.931 . S
H1329 C1317 0.929 . S
H1330 C1318 0.960 1_455 S
H1331 C1318 0.962 . S
H1332 C1318 0.960 . S
H1333 C1319 0.961 . S
H1334 C1319 0.961 1_455 S
H1335 C1319 0.961 . S
H1336 C1320 0.931 . S
H1337 C1325 0.930 . S
H1338 C1326 0.982 . S
H1339 C1326 0.919 1_655 S
H1340 C1326 0.961 . S
H1341 C1327 0.958 . S
H1342 C1327 0.961 . S
H1343 C1327 0.966 . S
C1344 C1345 1.391 1_554 S
C1344 C1346 1.394 . S
C1344 H1360 0.931 . S
C1345 C1344 1.391 1_556 S
C1345 C1349 1.376 . S
C1346 C1344 1.394 . S
C1346 C1347 1.369 1_554 S
C1346 C1350 1.531 . S
C1347 C1346 1.369 1_556 S
C1347 C1348 1.410 . S
C1347 C1355 1.503 . S
C1348 C1347 1.410 . S
C1348 C1349 1.392 . S
C1348 C1351 1.511 . S
C1349 C1345 1.376 . S
C1349 C1348 1.392 . S
C1349 H1361 0.929 . S
C1350 C1346 1.531 . S
C1350 H1362 0.960 . S
C1350 H1363 0.962 . S
C1350 H1364 0.960 . S
C1351 C1348 1.511 . S
C1351 H1365 0.961 . S
C1351 H1366 0.961 . S
C1351 H1367 0.961 . S
C1352 C1353 1.370 . S
C1352 C1354 1.363 . S
C1352 H1368 0.931 . S
C1353 C1352 1.370 . S
C1353 C1357 1.408 1_556 S
C1354 C1352 1.363 . S
C1354 C1355 1.370 . S
C1354 C1358 1.524 . S
C1355 C1347 1.503 . S
C1355 C1354 1.370 . S
C1355 C1356 1.403 1_556 S
C1356 C1355 1.403 1_554 S
C1356 C1357 1.404 . S
C1356 C1359 1.539 . S
C1357 C1353 1.408 1_554 S
C1357 C1356 1.404 . S
C1357 H1369 0.930 . S
C1358 C1354 1.524 . S
C1358 H1370 0.956 . S
C1358 H1371 0.961 . S
C1358 H1372 0.961 . S
C1359 C1356 1.539 . S
C1359 H1373 0.958 . S
C1359 H1374 0.961 . S
C1359 H1375 0.960 . S
H1360 C1344 0.931 . S
H1361 C1349 0.929 . S
H1362 C1350 0.960 . S
H1363 C1350 0.962 . S
H1364 C1350 0.960 . S
H1365 C1351 0.961 . S
H1366 C1351 0.961 . S
H1367 C1351 0.961 . S
H1368 C1352 0.931 . S
H1369 C1357 0.930 . S
H1370 C1358 0.956 . S
H1371 C1358 0.961 . S
H1372 C1358 0.961 . S
H1373 C1359 0.958 . S
H1374 C1359 0.961 . S
H1375 C1359 0.960 . S
C1376 C1377 1.391 . S
C1376 C1378 1.394 . S
C1376 H1392 0.931 . S
C1377 C1376 1.391 . S
C1377 C1381 1.376 . S
C1378 C1376 1.394 . S
C1378 C1379 1.369 . S
C1378 C1382 1.531 . S
C1379 C1378 1.369 . S
C1379 C1380 1.410 . S
C1379 C1387 1.503 . S
C1380 C1379 1.410 . S
C1380 C1381 1.392 . S
C1380 C1383 1.511 . S
C1381 C1377 1.376 . S
C1381 C1380 1.392 . S
C1381 H1393 0.929 . S
C1382 C1378 1.531 . S
C1382 H1394 0.960 . S
C1382 H1395 0.962 . S
C1382 H1396 0.960 . S
C1383 C1380 1.511 . S
C1383 H1397 0.961 . S
C1383 H1398 0.961 . S
C1383 H1399 0.961 . S
C1384 C1385 1.370 . S
C1384 C1386 1.363 . S
C1384 H1400 0.931 . S
C1385 C1384 1.370 . S
C1385 C1389 1.408 . S
C1386 C1384 1.363 . S
C1386 C1387 1.370 . S
C1386 C1390 1.524 . S
C1387 C1379 1.503 . S
C1387 C1386 1.370 . S
C1387 C1388 1.403 . S
C1388 C1387 1.403 . S
C1388 C1389 1.404 . S
C1388 C1391 1.539 . S
C1389 C1385 1.408 . S
C1389 C1388 1.404 . S
C1389 H1401 0.930 . S
C1390 C1386 1.524 . S
C1390 H1402 0.956 . S
C1390 H1403 0.961 . S
C1390 H1404 0.961 . S
C1391 C1388 1.539 . S
C1391 H1405 0.958 . S
C1391 H1406 0.961 . S
C1391 H1407 0.960 . S
H1392 C1376 0.931 . S
H1393 C1381 0.929 . S
H1394 C1382 0.960 . S
H1395 C1382 0.962 . S
H1396 C1382 0.960 . S
H1397 C1383 0.961 . S
H1398 C1383 0.961 . S
H1399 C1383 0.961 . S
H1400 C1384 0.931 . S
H1401 C1389 0.930 . S
H1402 C1390 0.956 . S
H1403 C1390 0.961 . S
H1404 C1390 0.961 . S
H1405 C1391 0.958 . S
H1406 C1391 0.961 . S
H1407 C1391 0.960 . S
C1408 C1409 1.391 . S
C1408 C1410 1.394 . S
C1408 H1424 0.931 . S
C1409 C1408 1.391 . S
C1409 C1413 1.376 1_554 S
C1410 C1408 1.394 . S
C1410 C1411 1.369 . S
C1410 C1414 1.531 . S
C1411 C1410 1.369 . S
C1411 C1412 1.410 1_554 S
C1411 C1419 1.503 . S
C1412 C1411 1.410 1_556 S
C1412 C1413 1.392 . S
C1412 C1415 1.511 . S
C1413 C1409 1.376 1_556 S
C1413 C1412 1.392 . S
C1413 H1425 0.929 . S
C1414 C1410 1.531 . S
C1414 H1426 0.960 . S
C1414 H1427 0.962 . S
C1414 H1428 0.960 . S
C1415 C1412 1.511 . S
C1415 H1429 0.961 . S
C1415 H1430 0.961 . S
C1415 H1431 0.961 . S
C1416 C1417 1.370 . S
C1416 C1418 1.363 . S
C1416 H1432 0.931 . S
C1417 C1416 1.370 . S
C1417 C1421 1.408 1_554 S
C1418 C1416 1.363 . S
C1418 C1419 1.370 . S
C1418 C1422 1.524 . S
C1419 C1411 1.503 . S
C1419 C1418 1.370 . S
C1419 C1420 1.403 1_554 S
C1420 C1419 1.403 1_556 S
C1420 C1421 1.404 . S
C1420 C1423 1.539 . S
C1421 C1417 1.408 1_556 S
C1421 C1420 1.404 . S
C1421 H1433 0.930 . S
C1422 C1418 1.524 . S
C1422 H1434 0.956 . S
C1422 H1435 0.961 . S
C1422 H1436 0.961 . S
C1423 C1420 1.539 . S
C1423 H1437 0.958 . S
C1423 H1438 0.961 . S
C1423 H1439 0.960 . S
H1424 C1408 0.931 . S
H1425 C1413 0.929 . S
H1426 C1414 0.960 . S
H1427 C1414 0.962 . S
H1428 C1414 0.960 . S
H1429 C1415 0.961 . S
H1430 C1415 0.961 . S
H1431 C1415 0.961 . S
H1432 C1416 0.931 . S
H1433 C1421 0.930 . S
H1434 C1422 0.956 . S
H1435 C1422 0.961 . S
H1436 C1422 0.961 . S
H1437 C1423 0.958 . S
H1438 C1423 0.961 . S
H1439 C1423 0.960 . S
C1440 C1441 1.391 . S
C1440 C1442 1.394 . S
C1440 H1456 0.931 . S
C1441 C1440 1.391 . S
C1441 C1445 1.376 . S
C1442 C1440 1.394 . S
C1442 C1443 1.369 . S
C1442 C1446 1.531 . S
C1443 C1442 1.369 . S
C1443 C1444 1.410 . S
C1443 C1451 1.503 . S
C1444 C1443 1.410 . S
C1444 C1445 1.392 . S
C1444 C1447 1.511 . S
C1445 C1441 1.376 . S
C1445 C1444 1.392 . S
C1445 H1457 0.929 . S
C1446 C1442 1.531 . S
C1446 H1458 0.960 . S
C1446 H1459 0.962 . S
C1446 H1460 0.960 . S
C1447 C1444 1.511 . S
C1447 H1461 0.961 . S
C1447 H1462 0.961 . S
C1447 H1463 0.961 . S
C1448 C1449 1.370 . S
C1448 C1450 1.363 . S
C1448 H1464 0.931 . S
C1449 C1448 1.370 . S
C1449 C1453 1.408 . S
C1450 C1448 1.363 . S
C1450 C1451 1.370 . S
C1450 C1454 1.524 . S
C1451 C1443 1.503 . S
C1451 C1450 1.370 . S
C1451 C1452 1.403 . S
C1452 C1451 1.403 . S
C1452 C1453 1.404 . S
C1452 C1455 1.539 . S
C1453 C1449 1.408 . S
C1453 C1452 1.404 . S
C1453 H1465 0.930 . S
C1454 C1450 1.524 . S
C1454 H1466 0.956 . S
C1454 H1467 0.961 . S
C1454 H1468 0.961 . S
C1455 C1452 1.539 . S
C1455 H1469 0.958 . S
C1455 H1470 0.961 . S
C1455 H1471 0.960 . S
H1456 C1440 0.931 . S
H1457 C1445 0.929 . S
H1458 C1446 0.960 . S
H1459 C1446 0.962 . S
H1460 C1446 0.960 . S
H1461 C1447 0.961 . S
H1462 C1447 0.961 . S
H1463 C1447 0.961 . S
H1464 C1448 0.931 . S
H1465 C1453 0.930 . S
H1466 C1454 0.956 . S
H1467 C1454 0.961 . S
H1468 C1454 0.961 . S
H1469 C1455 0.958 . S
H1470 C1455 0.961 . S
H1471 C1455 0.960 . S
C1472 C1473 1.391 . S
C1472 C1474 1.394 . S
C1472 H1488 0.931 . S
C1473 C1472 1.391 . S
C1473 C1477 1.376 . S
C1474 C1472 1.394 . S
C1474 C1475 1.369 . S
C1474 C1478 1.531 . S
C1475 C1474 1.369 . S
C1475 C1476 1.410 . S
C1475 C1483 1.503 . S
C1476 C1475 1.410 . S
C1476 C1477 1.392 . S
C1476 C1479 1.511 . S
C1477 C1473 1.376 . S
C1477 C1476 1.392 . S
C1477 H1489 0.929 . S
C1478 C1474 1.531 . S
C1478 H1490 0.960 . S
C1478 H1491 0.962 . S
C1478 H1492 0.960 . S
C1479 C1476 1.511 . S
C1479 H1493 0.961 . S
C1479 H1494 0.961 . S
C1479 H1495 0.961 . S
C1480 C1481 1.370 . S
C1480 C1482 1.363 . S
C1480 H1496 0.931 . S
C1481 C1480 1.370 . S
C1481 C1485 1.408 . S
C1482 C1480 1.363 . S
C1482 C1483 1.370 . S
C1482 C1486 1.524 . S
C1483 C1475 1.503 . S
C1483 C1482 1.370 . S
C1483 C1484 1.403 . S
C1484 C1483 1.403 . S
C1484 C1485 1.404 . S
C1484 C1487 1.539 . S
C1485 C1481 1.408 . S
C1485 C1484 1.404 . S
C1485 H1497 0.930 . S
C1486 C1482 1.524 . S
C1486 H1498 0.956 . S
C1486 H1499 0.961 . S
C1486 H1500 0.961 . S
C1487 C1484 1.539 . S
C1487 H1501 0.958 . S
C1487 H1502 0.961 . S
C1487 H1503 0.960 . S
H1488 C1472 0.931 . S
H1489 C1477 0.929 . S
H1490 C1478 0.960 . S
H1491 C1478 0.962 . S
H1492 C1478 0.960 . S
H1493 C1479 0.961 . S
H1494 C1479 0.961 . S
H1495 C1479 0.961 . S
H1496 C1480 0.931 . S
H1497 C1485 0.930 . S
H1498 C1486 0.956 . S
H1499 C1486 0.961 . S
H1500 C1486 0.961 . S
H1501 C1487 0.958 . S
H1502 C1487 0.961 . S
H1503 C1487 0.960 . S
C1504 C1505 1.391 . S
C1504 C1506 1.394 . S
C1504 H1520 0.931 . S
C1505 C1504 1.391 . S
C1505 C1509 1.376 . S
C1506 C1504 1.394 . S
C1506 C1507 1.369 . S
C1506 C1510 1.531 . S
C1507 C1506 1.369 . S
C1507 C1508 1.410 . S
C1507 C1515 1.503 1_455 S
C1508 C1507 1.410 . S
C1508 C1509 1.392 . S
C1508 C1511 1.511 . S
C1509 C1505 1.376 . S
C1509 C1508 1.392 . S
C1509 H1521 0.929 . S
C1510 C1506 1.531 . S
C1510 H1522 0.960 1_455 S
C1510 H1523 0.962 . S
C1510 H1524 0.960 . S
C1511 C1508 1.511 . S
C1511 H1525 0.961 . S
C1511 H1526 0.961 1_455 S
C1511 H1527 0.961 . S
C1512 C1513 1.370 . S
C1512 C1514 1.363 . S
C1512 H1528 0.931 . S
C1513 C1512 1.370 . S
C1513 C1517 1.408 . S
C1514 C1512 1.363 . S
C1514 C1515 1.370 . S
C1514 C1518 1.524 . S
C1515 C1507 1.503 1_655 S
C1515 C1514 1.370 . S
C1515 C1516 1.403 . S
C1516 C1515 1.403 . S
C1516 C1517 1.404 . S
C1516 C1519 1.539 . S
C1517 C1513 1.408 . S
C1517 C1516 1.404 . S
C1517 H1529 0.930 . S
C1518 C1514 1.524 . S
C1518 H1530 0.982 . S
C1518 H1531 0.919 1_655 S
C1518 H1532 0.961 . S
C1519 C1516 1.539 . S
C1519 H1533 0.958 . S
C1519 H1534 0.961 . S
C1519 H1535 0.966 . S
H1520 C1504 0.931 . S
H1521 C1509 0.929 . S
H1522 C1510 0.960 1_655 S
H1523 C1510 0.962 . S
H1524 C1510 0.960 . S
H1525 C1511 0.961 . S
H1526 C1511 0.961 1_655 S
H1527 C1511 0.961 . S
H1528 C1512 0.931 . S
H1529 C1517 0.930 . S
H1530 C1518 0.982 . S
H1531 C1518 0.919 1_455 S
H1532 C1518 0.961 . S
H1533 C1519 0.958 . S
H1534 C1519 0.961 . S
H1535 C1519 0.966 . S
C1536 C1537 1.391 . S
C1536 C1538 1.394 . S
C1536 H1552 0.931 . S
C1537 C1536 1.391 . S
C1537 C1541 1.376 . S
C1538 C1536 1.394 . S
C1538 C1539 1.369 . S
C1538 C1542 1.531 . S
C1539 C1538 1.369 . S
C1539 C1540 1.410 . S
C1539 C1547 1.503 1_455 S
C1540 C1539 1.410 . S
C1540 C1541 1.392 . S
C1540 C1543 1.511 . S
C1541 C1537 1.376 . S
C1541 C1540 1.392 . S
C1541 H1553 0.929 . S
C1542 C1538 1.531 . S
C1542 H1554 0.960 1_455 S
C1542 H1555 0.962 . S
C1542 H1556 0.960 . S
C1543 C1540 1.511 . S
C1543 H1557 0.961 . S
C1543 H1558 0.961 1_455 S
C1543 H1559 0.961 . S
C1544 C1545 1.370 . S
C1544 C1546 1.363 . S
C1544 H1560 0.931 . S
C1545 C1544 1.370 . S
C1545 C1549 1.408 . S
C1546 C1544 1.363 . S
C1546 C1547 1.370 . S
C1546 C1550 1.524 . S
C1547 C1539 1.503 1_655 S
C1547 C1546 1.370 . S
C1547 C1548 1.403 . S
C1548 C1547 1.403 . S
C1548 C1549 1.404 . S
C1548 C1551 1.539 . S
C1549 C1545 1.408 . S
C1549 C1548 1.404 . S
C1549 H1561 0.930 . S
C1550 C1546 1.524 . S
C1550 H1562 0.982 . S
C1550 H1563 0.919 1_655 S
C1550 H1564 0.961 . S
C1551 C1548 1.539 . S
C1551 H1565 0.958 . S
C1551 H1566 0.961 . S
C1551 H1567 0.966 . S
H1552 C1536 0.931 . S
H1553 C1541 0.929 . S
H1554 C1542 0.960 1_655 S
H1555 C1542 0.962 . S
H1556 C1542 0.960 . S
H1557 C1543 0.961 . S
H1558 C1543 0.961 1_655 S
H1559 C1543 0.961 . S
H1560 C1544 0.931 . S
H1561 C1549 0.930 . S
H1562 C1550 0.982 . S
H1563 C1550 0.919 1_455 S
H1564 C1550 0.961 . S
H1565 C1551 0.958 . S
H1566 C1551 0.961 . S
H1567 C1551 0.966 . S
C1568 C1569 1.391 . S
C1568 C1570 1.394 . S
C1568 H1584 0.931 . S
C1569 C1568 1.391 . S
C1569 C1573 1.376 . S
C1570 C1568 1.394 . S
C1570 C1571 1.369 . S
C1570 C1574 1.531 . S
C1571 C1570 1.369 . S
C1571 C1572 1.410 . S
C1571 C1579 1.503 . S
C1572 C1571 1.410 . S
C1572 C1573 1.392 . S
C1572 C1575 1.511 . S
C1573 C1569 1.376 . S
C1573 C1572 1.392 . S
C1573 H1585 0.929 . S
C1574 C1570 1.531 . S
C1574 H1586 0.960 . S
C1574 H1587 0.962 . S
C1574 H1588 0.960 . S
C1575 C1572 1.511 . S
C1575 H1589 0.961 . S
C1575 H1590 0.961 . S
C1575 H1591 0.961 . S
C1576 C1577 1.370 . S
C1576 C1578 1.363 . S
C1576 H1592 0.931 . S
C1577 C1576 1.370 . S
C1577 C1581 1.408 . S
C1578 C1576 1.363 . S
C1578 C1579 1.370 . S
C1578 C1582 1.524 . S
C1579 C1571 1.503 . S
C1579 C1578 1.370 . S
C1579 C1580 1.403 . S
C1580 C1579 1.403 . S
C1580 C1581 1.404 . S
C1580 C1583 1.539 . S
C1581 C1577 1.408 . S
C1581 C1580 1.404 . S
C1581 H1593 0.930 . S
C1582 C1578 1.524 . S
C1582 H1594 0.956 . S
C1582 H1595 0.961 . S
C1582 H1596 0.961 . S
C1583 C1580 1.539 . S
C1583 H1597 0.958 . S
C1583 H1598 0.961 . S
C1583 H1599 0.960 . S
H1584 C1568 0.931 . S
H1585 C1573 0.929 . S
H1586 C1574 0.960 . S
H1587 C1574 0.962 . S
H1588 C1574 0.960 . S
H1589 C1575 0.961 . S
H1590 C1575 0.961 . S
H1591 C1575 0.961 . S
H1592 C1576 0.931 . S
H1593 C1581 0.930 . S
H1594 C1582 0.956 . S
H1595 C1582 0.961 . S
H1596 C1582 0.961 . S
H1597 C1583 0.958 . S
H1598 C1583 0.961 . S
H1599 C1583 0.960 . S
C1600 C1601 1.391 . S
C1600 C1602 1.394 . S
C1600 H1616 0.931 . S
C1601 C1600 1.391 . S
C1601 C1605 1.376 . S
C1602 C1600 1.394 . S
C1602 C1603 1.369 . S
C1602 C1606 1.531 . S
C1603 C1602 1.369 . S
C1603 C1604 1.410 . S
C1603 C1611 1.503 . S
C1604 C1603 1.410 . S
C1604 C1605 1.392 . S
C1604 C1607 1.511 . S
C1605 C1601 1.376 . S
C1605 C1604 1.392 . S
C1605 H1617 0.929 . S
C1606 C1602 1.531 . S
C1606 H1618 0.960 . S
C1606 H1619 0.962 . S
C1606 H1620 0.960 . S
C1607 C1604 1.511 . S
C1607 H1621 0.961 . S
C1607 H1622 0.961 . S
C1607 H1623 0.961 . S
C1608 C1609 1.370 . S
C1608 C1610 1.363 . S
C1608 H1624 0.931 . S
C1609 C1608 1.370 . S
C1609 C1613 1.408 . S
C1610 C1608 1.363 . S
C1610 C1611 1.370 . S
C1610 C1614 1.524 . S
C1611 C1603 1.503 . S
C1611 C1610 1.370 . S
C1611 C1612 1.403 . S
C1612 C1611 1.403 . S
C1612 C1613 1.404 . S
C1612 C1615 1.539 . S
C1613 C1609 1.408 . S
C1613 C1612 1.404 . S
C1613 H1625 0.930 . S
C1614 C1610 1.524 . S
C1614 H1626 0.956 . S
C1614 H1627 0.961 . S
C1614 H1628 0.961 . S
C1615 C1612 1.539 . S
C1615 H1629 0.958 . S
C1615 H1630 0.961 . S
C1615 H1631 0.960 . S
H1616 C1600 0.931 . S
H1617 C1605 0.929 . S
H1618 C1606 0.960 . S
H1619 C1606 0.962 . S
H1620 C1606 0.960 . S
H1621 C1607 0.961 . S
H1622 C1607 0.961 . S
H1623 C1607 0.961 . S
H1624 C1608 0.931 . S
H1625 C1613 0.930 . S
H1626 C1614 0.956 . S
H1627 C1614 0.961 . S
H1628 C1614 0.961 . S
H1629 C1615 0.958 . S
H1630 C1615 0.961 . S
H1631 C1615 0.960 . S
C1632 C1633 1.391 . S
C1632 C1634 1.394 . S
C1632 H1648 0.931 . S
C1633 C1632 1.391 . S
C1633 C1637 1.376 . S
C1634 C1632 1.394 . S
C1634 C1635 1.369 . S
C1634 C1638 1.531 . S
C1635 C1634 1.369 . S
C1635 C1636 1.410 . S
C1635 C1643 1.503 . S
C1636 C1635 1.410 . S
C1636 C1637 1.392 . S
C1636 C1639 1.511 . S
C1637 C1633 1.376 . S
C1637 C1636 1.392 . S
C1637 H1649 0.929 . S
C1638 C1634 1.531 . S
C1638 H1650 0.960 . S
C1638 H1651 0.962 . S
C1638 H1652 0.960 . S
C1639 C1636 1.511 . S
C1639 H1653 0.961 . S
C1639 H1654 0.961 . S
C1639 H1655 0.961 . S
C1640 C1641 1.370 . S
C1640 C1642 1.363 . S
C1640 H1656 0.931 . S
C1641 C1640 1.370 . S
C1641 C1645 1.408 . S
C1642 C1640 1.363 . S
C1642 C1643 1.370 . S
C1642 C1646 1.524 . S
C1643 C1635 1.503 . S
C1643 C1642 1.370 . S
C1643 C1644 1.403 . S
C1644 C1643 1.403 . S
C1644 C1645 1.404 . S
C1644 C1647 1.539 . S
C1645 C1641 1.408 . S
C1645 C1644 1.404 . S
C1645 H1657 0.930 . S
C1646 C1642 1.524 . S
C1646 H1658 0.956 . S
C1646 H1659 0.961 . S
C1646 H1660 0.961 . S
C1647 C1644 1.539 . S
C1647 H1661 0.958 . S
C1647 H1662 0.961 . S
C1647 H1663 0.960 . S
H1648 C1632 0.931 . S
H1649 C1637 0.929 . S
H1650 C1638 0.960 . S
H1651 C1638 0.962 . S
H1652 C1638 0.960 . S
H1653 C1639 0.961 . S
H1654 C1639 0.961 . S
H1655 C1639 0.961 . S
H1656 C1640 0.931 . S
H1657 C1645 0.930 . S
H1658 C1646 0.956 . S
H1659 C1646 0.961 . S
H1660 C1646 0.961 . S
H1661 C1647 0.958 . S
H1662 C1647 0.961 . S
H1663 C1647 0.960 . S
C1664 C1665 1.391 . S
C1664 C1666 1.394 . S
C1664 H1680 0.931 . S
C1665 C1664 1.391 . S
C1665 C1669 1.376 . S
C1666 C1664 1.394 . S
C1666 C1667 1.369 . S
C1666 C1670 1.531 . S
C1667 C1666 1.369 . S
C1667 C1668 1.410 . S
C1667 C1675 1.503 1_556 S
C1668 C1667 1.410 . S
C1668 C1669 1.392 . S
C1668 C1671 1.511 . S
C1669 C1665 1.376 . S
C1669 C1668 1.392 . S
C1669 H1681 0.929 . S
C1670 C1666 1.531 . S
C1670 H1682 0.960 1_556 S
C1670 H1683 0.962 . S
C1670 H1684 0.960 . S
C1671 C1668 1.511 . S
C1671 H1685 0.961 . S
C1671 H1686 0.961 . S
C1671 H1687 0.961 . S
C1672 C1673 1.370 . S
C1672 C1674 1.363 . S
C1672 H1688 0.931 . S
C1673 C1672 1.370 . S
C1673 C1677 1.408 . S
C1674 C1672 1.363 . S
C1674 C1675 1.370 . S
C1674 C1678 1.524 . S
C1675 C1667 1.503 1_554 S
C1675 C1674 1.370 . S
C1675 C1676 1.403 . S
C1676 C1675 1.403 . S
C1676 C1677 1.404 . S
C1676 C1679 1.539 . S
C1677 C1673 1.408 . S
C1677 C1676 1.404 . S
C1677 H1689 0.930 . S
C1678 C1674 1.524 . S
C1678 H1690 0.956 . S
C1678 H1691 0.961 1_554 S
C1678 H1692 0.961 . S
C1679 C1676 1.539 . S
C1679 H1693 0.958 . S
C1679 H1694 0.961 . S
C1679 H1695 0.960 1_554 S
H1680 C1664 0.931 . S
H1681 C1669 0.929 . S
H1682 C1670 0.960 1_554 S
H1683 C1670 0.962 . S
H1684 C1670 0.960 . S
H1685 C1671 0.961 . S
H1686 C1671 0.961 . S
H1687 C1671 0.961 . S
H1688 C1672 0.931 . S
H1689 C1677 0.930 . S
H1690 C1678 0.956 . S
H1691 C1678 0.961 1_556 S
H1692 C1678 0.961 . S
H1693 C1679 0.958 . S
H1694 C1679 0.961 . S
H1695 C1679 0.960 1_556 S
C1696 C1697 1.391 . S
C1696 C1698 1.394 . S
C1696 H1712 0.931 . S
C1697 C1696 1.391 . S
C1697 C1701 1.376 . S
C1698 C1696 1.394 . S
C1698 C1699 1.369 . S
C1698 C1702 1.531 . S
C1699 C1698 1.369 . S
C1699 C1700 1.410 . S
C1699 C1707 1.503 . S
C1700 C1699 1.410 . S
C1700 C1701 1.392 . S
C1700 C1703 1.511 . S
C1701 C1697 1.376 . S
C1701 C1700 1.392 . S
C1701 H1713 0.929 . S
C1702 C1698 1.531 . S
C1702 H1714 0.960 . S
C1702 H1715 0.962 . S
C1702 H1716 0.960 . S
C1703 C1700 1.511 . S
C1703 H1717 0.961 . S
C1703 H1718 0.961 . S
C1703 H1719 0.961 . S
C1704 C1705 1.370 . S
C1704 C1706 1.363 . S
C1704 H1720 0.931 . S
C1705 C1704 1.370 . S
C1705 C1709 1.408 . S
C1706 C1704 1.363 . S
C1706 C1707 1.370 . S
C1706 C1710 1.524 . S
C1707 C1699 1.503 . S
C1707 C1706 1.370 . S
C1707 C1708 1.403 . S
C1708 C1707 1.403 . S
C1708 C1709 1.404 . S
C1708 C1711 1.539 . S
C1709 C1705 1.408 . S
C1709 C1708 1.404 . S
C1709 H1721 0.930 . S
C1710 C1706 1.524 . S
C1710 H1722 0.956 . S
C1710 H1723 0.961 . S
C1710 H1724 0.961 . S
C1711 C1708 1.539 . S
C1711 H1725 0.958 . S
C1711 H1726 0.961 . S
C1711 H1727 0.960 . S
H1712 C1696 0.931 . S
H1713 C1701 0.929 . S
H1714 C1702 0.960 . S
H1715 C1702 0.962 . S
H1716 C1702 0.960 . S
H1717 C1703 0.961 . S
H1718 C1703 0.961 . S
H1719 C1703 0.961 . S
H1720 C1704 0.931 . S
H1721 C1709 0.930 . S
H1722 C1710 0.956 . S
H1723 C1710 0.961 . S
H1724 C1710 0.961 . S
H1725 C1711 0.958 . S
H1726 C1711 0.961 . S
H1727 C1711 0.960 . S
C1728 C1729 1.391 . S
C1728 C1730 1.394 . S
C1728 H1744 0.931 . S
C1729 C1728 1.391 . S
C1729 C1733 1.376 . S
C1730 C1728 1.394 . S
C1730 C1731 1.369 . S
C1730 C1734 1.531 . S
C1731 C1730 1.369 . S
C1731 C1732 1.410 . S
C1731 C1739 1.503 . S
C1732 C1731 1.410 . S
C1732 C1733 1.392 . S
C1732 C1735 1.511 . S
C1733 C1729 1.376 . S
C1733 C1732 1.392 . S
C1733 H1745 0.929 . S
C1734 C1730 1.531 . S
C1734 H1746 0.960 . S
C1734 H1747 0.962 . S
C1734 H1748 0.960 . S
C1735 C1732 1.511 . S
C1735 H1749 0.961 . S
C1735 H1750 0.961 . S
C1735 H1751 0.961 . S
C1736 C1737 1.370 . S
C1736 C1738 1.363 . S
C1736 H1752 0.931 . S
C1737 C1736 1.370 . S
C1737 C1741 1.408 . S
C1738 C1736 1.363 . S
C1738 C1739 1.370 . S
C1738 C1742 1.524 . S
C1739 C1731 1.503 . S
C1739 C1738 1.370 . S
C1739 C1740 1.403 . S
C1740 C1739 1.403 . S
C1740 C1741 1.404 . S
C1740 C1743 1.539 . S
C1741 C1737 1.408 . S
C1741 C1740 1.404 . S
C1741 H1753 0.930 . S
C1742 C1738 1.524 . S
C1742 H1754 0.956 . S
C1742 H1755 0.961 . S
C1742 H1756 0.961 . S
C1743 C1740 1.539 . S
C1743 H1757 0.958 . S
C1743 H1758 0.961 . S
C1743 H1759 0.960 . S
H1744 C1728 0.931 . S
H1745 C1733 0.929 . S
H1746 C1734 0.960 . S
H1747 C1734 0.962 . S
H1748 C1734 0.960 . S
H1749 C1735 0.961 . S
H1750 C1735 0.961 . S
H1751 C1735 0.961 . S
H1752 C1736 0.931 . S
H1753 C1741 0.930 . S
H1754 C1742 0.956 . S
H1755 C1742 0.961 . S
H1756 C1742 0.961 . S
H1757 C1743 0.958 . S
H1758 C1743 0.961 . S
H1759 C1743 0.960 . S
C1760 C1761 1.391 . S
C1760 C1762 1.394 . S
C1760 H1776 0.931 . S
C1761 C1760 1.391 . S
C1761 C1765 1.376 . S
C1762 C1760 1.394 . S
C1762 C1763 1.369 . S
C1762 C1766 1.531 . S
C1763 C1762 1.369 . S
C1763 C1764 1.410 . S
C1763 C1771 1.503 . S
C1764 C1763 1.410 . S
C1764 C1765 1.392 . S
C1764 C1767 1.511 . S
C1765 C1761 1.376 . S
C1765 C1764 1.392 . S
C1765 H1777 0.929 . S
C1766 C1762 1.531 . S
C1766 H1778 0.960 . S
C1766 H1779 0.962 . S
C1766 H1780 0.960 . S
C1767 C1764 1.511 . S
C1767 H1781 0.961 . S
C1767 H1782 0.961 . S
C1767 H1783 0.961 . S
C1768 C1769 1.370 . S
C1768 C1770 1.363 . S
C1768 H1784 0.931 . S
C1769 C1768 1.370 . S
C1769 C1773 1.408 . S
C1770 C1768 1.363 . S
C1770 C1771 1.370 . S
C1770 C1774 1.524 . S
C1771 C1763 1.503 . S
C1771 C1770 1.370 . S
C1771 C1772 1.403 . S
C1772 C1771 1.403 . S
C1772 C1773 1.404 . S
C1772 C1775 1.539 . S
C1773 C1769 1.408 . S
C1773 C1772 1.404 . S
C1773 H1785 0.930 . S
C1774 C1770 1.524 . S
C1774 H1786 0.956 . S
C1774 H1787 0.961 . S
C1774 H1788 0.961 . S
C1775 C1772 1.539 . S
C1775 H1789 0.958 . S
C1775 H1790 0.961 . S
C1775 H1791 0.960 . S
H1776 C1760 0.931 . S
H1777 C1765 0.929 . S
H1778 C1766 0.960 . S
H1779 C1766 0.962 . S
H1780 C1766 0.960 . S
H1781 C1767 0.961 . S
H1782 C1767 0.961 . S
H1783 C1767 0.961 . S
H1784 C1768 0.931 . S
H1785 C1773 0.930 . S
H1786 C1774 0.956 . S
H1787 C1774 0.961 . S
H1788 C1774 0.961 . S
H1789 C1775 0.958 . S
H1790 C1775 0.961 . S
H1791 C1775 0.960 . S
C1792 C1793 1.391 . S
C1792 C1794 1.394 . S
C1792 H1808 0.931 . S
C1793 C1792 1.391 . S
C1793 C1797 1.376 . S
C1794 C1792 1.394 . S
C1794 C1795 1.369 . S
C1794 C1798 1.531 . S
C1795 C1794 1.369 . S
C1795 C1796 1.410 . S
C1795 C1803 1.503 1_556 S
C1796 C1795 1.410 . S
C1796 C1797 1.392 . S
C1796 C1799 1.511 . S
C1797 C1793 1.376 . S
C1797 C1796 1.392 . S
C1797 H1809 0.929 . S
C1798 C1794 1.531 . S
C1798 H1810 0.960 1_556 S
C1798 H1811 0.962 1_556 S
C1798 H1812 0.960 . S
C1799 C1796 1.511 . S
C1799 H1813 0.961 . S
C1799 H1814 0.961 . S
C1799 H1815 0.961 . S
C1800 C1801 1.370 . S
C1800 C1802 1.363 . S
C1800 H1816 0.931 . S
C1801 C1800 1.370 . S
C1801 C1805 1.408 . S
C1802 C1800 1.363 . S
C1802 C1803 1.370 . S
C1802 C1806 1.524 . S
C1803 C1795 1.503 1_554 S
C1803 C1802 1.370 . S
C1803 C1804 1.403 . S
C1804 C1803 1.403 . S
C1804 C1805 1.404 . S
C1804 C1807 1.539 . S
C1805 C1801 1.408 . S
C1805 C1804 1.404 . S
C1805 H1817 0.930 . S
C1806 C1802 1.524 . S
C1806 H1818 0.956 . S
C1806 H1819 0.961 . S
C1806 H1820 0.961 . S
C1807 C1804 1.539 . S
C1807 H1821 0.958 . S
C1807 H1822 0.961 . S
C1807 H1823 0.960 1_554 S
H1808 C1792 0.931 . S
H1809 C1797 0.929 . S
H1810 C1798 0.960 1_554 S
H1811 C1798 0.962 1_554 S
H1812 C1798 0.960 . S
H1813 C1799 0.961 . S
H1814 C1799 0.961 . S
H1815 C1799 0.961 . S
H1816 C1800 0.931 . S
H1817 C1805 0.930 . S
H1818 C1806 0.956 . S
H1819 C1806 0.961 . S
H1820 C1806 0.961 . S
H1821 C1807 0.958 . S
H1822 C1807 0.961 . S
H1823 C1807 0.960 1_556 S
C1824 C1825 1.391 . S
C1824 C1826 1.394 . S
C1824 H1840 0.931 . S
C1825 C1824 1.391 . S
C1825 C1829 1.376 . S
C1826 C1824 1.394 . S
C1826 C1827 1.369 . S
C1826 C1830 1.531 . S
C1827 C1826 1.369 . S
C1827 C1828 1.410 . S
C1827 C1835 1.503 . S
C1828 C1827 1.410 . S
C1828 C1829 1.392 . S
C1828 C1831 1.511 . S
C1829 C1825 1.376 . S
C1829 C1828 1.392 . S
C1829 H1841 0.929 . S
C1830 C1826 1.531 . S
C1830 H1842 0.960 . S
C1830 H1843 0.962 . S
C1830 H1844 0.960 . S
C1831 C1828 1.511 . S
C1831 H1845 0.961 . S
C1831 H1846 0.961 . S
C1831 H1847 0.961 . S
C1832 C1833 1.370 . S
C1832 C1834 1.363 . S
C1832 H1848 0.931 . S
C1833 C1832 1.370 . S
C1833 C1837 1.408 . S
C1834 C1832 1.363 . S
C1834 C1835 1.370 . S
C1834 C1838 1.524 . S
C1835 C1827 1.503 . S
C1835 C1834 1.370 . S
C1835 C1836 1.403 . S
C1836 C1835 1.403 . S
C1836 C1837 1.404 . S
C1836 C1839 1.539 . S
C1837 C1833 1.408 . S
C1837 C1836 1.404 . S
C1837 H1849 0.930 . S
C1838 C1834 1.524 . S
C1838 H1850 0.956 . S
C1838 H1851 0.961 . S
C1838 H1852 0.961 . S
C1839 C1836 1.539 . S
C1839 H1853 0.958 . S
C1839 H1854 0.961 . S
C1839 H1855 0.960 . S
H1840 C1824 0.931 . S
H1841 C1829 0.929 . S
H1842 C1830 0.960 . S
H1843 C1830 0.962 . S
H1844 C1830 0.960 . S
H1845 C1831 0.961 . S
H1846 C1831 0.961 . S
H1847 C1831 0.961 . S
H1848 C1832 0.931 . S
H1849 C1837 0.930 . S
H1850 C1838 0.956 . S
H1851 C1838 0.961 . S
H1852 C1838 0.961 . S
H1853 C1839 0.958 . S
H1854 C1839 0.961 . S
H1855 C1839 0.960 . S
C1856 C1857 1.391 . S
C1856 C1858 1.394 . S
C1856 H1872 0.931 . S
C1857 C1856 1.391 . S
C1857 C1861 1.376 . S
C1858 C1856 1.394 . S
C1858 C1859 1.369 . S
C1858 C1862 1.531 . S
C1859 C1858 1.369 . S
C1859 C1860 1.410 . S
C1859 C1867 1.503 . S
C1860 C1859 1.410 . S
C1860 C1861 1.392 . S
C1860 C1863 1.511 . S
C1861 C1857 1.376 . S
C1861 C1860 1.392 . S
C1861 H1873 0.929 . S
C1862 C1858 1.531 . S
C1862 H1874 0.960 . S
C1862 H1875 0.962 . S
C1862 H1876 0.960 . S
C1863 C1860 1.511 . S
C1863 H1877 0.961 . S
C1863 H1878 0.961 . S
C1863 H1879 0.961 . S
C1864 C1865 1.370 . S
C1864 C1866 1.363 . S
C1864 H1880 0.931 . S
C1865 C1864 1.370 . S
C1865 C1869 1.408 . S
C1866 C1864 1.363 . S
C1866 C1867 1.370 . S
C1866 C1870 1.524 . S
C1867 C1859 1.503 . S
C1867 C1866 1.370 . S
C1867 C1868 1.403 . S
C1868 C1867 1.403 . S
C1868 C1869 1.404 . S
C1868 C1871 1.539 . S
C1869 C1865 1.408 . S
C1869 C1868 1.404 . S
C1869 H1881 0.930 . S
C1870 C1866 1.524 . S
C1870 H1882 0.956 . S
C1870 H1883 0.961 . S
C1870 H1884 0.961 . S
C1871 C1868 1.539 . S
C1871 H1885 0.958 . S
C1871 H1886 0.961 . S
C1871 H1887 0.960 . S
H1872 C1856 0.931 . S
H1873 C1861 0.929 . S
H1874 C1862 0.960 . S
H1875 C1862 0.962 . S
H1876 C1862 0.960 . S
H1877 C1863 0.961 . S
H1878 C1863 0.961 . S
H1879 C1863 0.961 . S
H1880 C1864 0.931 . S
H1881 C1869 0.930 . S
H1882 C1870 0.956 . S
H1883 C1870 0.961 . S
H1884 C1870 0.961 . S
H1885 C1871 0.958 . S
H1886 C1871 0.961 . S
H1887 C1871 0.960 . S
C1888 C1889 1.391 . S
C1888 C1890 1.394 . S
C1888 H1904 0.931 . S
C1889 C1888 1.391 . S
C1889 C1893 1.376 . S
C1890 C1888 1.394 . S
C1890 C1891 1.369 . S
C1890 C1894 1.531 . S
C1891 C1890 1.369 . S
C1891 C1892 1.410 . S
C1891 C1899 1.503 . S
C1892 C1891 1.410 . S
C1892 C1893 1.392 . S
C1892 C1895 1.511 . S
C1893 C1889 1.376 . S
C1893 C1892 1.392 . S
C1893 H1905 0.929 . S
C1894 C1890 1.531 . S
C1894 H1906 0.960 . S
C1894 H1907 0.962 . S
C1894 H1908 0.960 . S
C1895 C1892 1.511 . S
C1895 H1909 0.961 . S
C1895 H1910 0.961 . S
C1895 H1911 0.961 . S
C1896 C1897 1.370 . S
C1896 C1898 1.363 . S
C1896 H1912 0.931 . S
C1897 C1896 1.370 . S
C1897 C1901 1.408 . S
C1898 C1896 1.363 . S
C1898 C1899 1.370 . S
C1898 C1902 1.524 . S
C1899 C1891 1.503 . S
C1899 C1898 1.370 . S
C1899 C1900 1.403 . S
C1900 C1899 1.403 . S
C1900 C1901 1.404 . S
C1900 C1903 1.539 . S
C1901 C1897 1.408 . S
C1901 C1900 1.404 . S
C1901 H1913 0.930 . S
C1902 C1898 1.524 . S
C1902 H1914 0.956 . S
C1902 H1915 0.961 . S
C1902 H1916 0.961 . S
C1903 C1900 1.539 . S
C1903 H1917 0.958 . S
C1903 H1918 0.961 . S
C1903 H1919 0.960 . S
H1904 C1888 0.931 . S
H1905 C1893 0.929 . S
H1906 C1894 0.960 . S
H1907 C1894 0.962 . S
H1908 C1894 0.960 . S
H1909 C1895 0.961 . S
H1910 C1895 0.961 . S
H1911 C1895 0.961 . S
H1912 C1896 0.931 . S
H1913 C1901 0.930 . S
H1914 C1902 0.956 . S
H1915 C1902 0.961 . S
H1916 C1902 0.961 . S
H1917 C1903 0.958 . S
H1918 C1903 0.961 . S
H1919 C1903 0.960 . S
C1920 C1921 1.391 . S
C1920 C1922 1.394 . S
C1920 H1936 0.931 . S
C1921 C1920 1.391 . S
C1921 C1925 1.376 . S
C1922 C1920 1.394 . S
C1922 C1923 1.369 . S
C1922 C1926 1.531 . S
C1923 C1922 1.369 . S
C1923 C1924 1.410 . S
C1923 C1931 1.503 1_554 S
C1924 C1923 1.410 . S
C1924 C1925 1.392 . S
C1924 C1927 1.511 . S
C1925 C1921 1.376 . S
C1925 C1924 1.392 . S
C1925 H1937 0.929 . S
C1926 C1922 1.531 . S
C1926 H1938 0.960 1_554 S
C1926 H1939 0.962 1_554 S
C1926 H1940 0.960 . S
C1927 C1924 1.511 . S
C1927 H1941 0.961 . S
C1927 H1942 0.961 . S
C1927 H1943 0.961 . S
C1928 C1929 1.370 . S
C1928 C1930 1.363 . S
C1928 H1944 0.931 . S
C1929 C1928 1.370 . S
C1929 C1933 1.408 . S
C1930 C1928 1.363 . S
C1930 C1931 1.370 . S
C1930 C1934 1.524 . S
C1931 C1923 1.503 1_556 S
C1931 C1930 1.370 . S
C1931 C1932 1.403 . S
C1932 C1931 1.403 . S
C1932 C1933 1.404 . S
C1932 C1935 1.539 . S
C1933 C1929 1.408 . S
C1933 C1932 1.404 . S
C1933 H1945 0.930 . S
C1934 C1930 1.524 . S
C1934 H1946 0.956 . S
C1934 H1947 0.961 1_556 S
C1934 H1948 0.961 . S
C1935 C1932 1.539 . S
C1935 H1949 0.958 . S
C1935 H1950 0.961 . S
C1935 H1951 0.960 1_556 S
H1936 C1920 0.931 . S
H1937 C1925 0.929 . S
H1938 C1926 0.960 1_556 S
H1939 C1926 0.962 1_556 S
H1940 C1926 0.960 . S
H1941 C1927 0.961 . S
H1942 C1927 0.961 . S
H1943 C1927 0.961 . S
H1944 C1928 0.931 . S
H1945 C1933 0.930 . S
H1946 C1934 0.956 . S
H1947 C1934 0.961 1_554 S
H1948 C1934 0.961 . S
H1949 C1935 0.958 . S
H1950 C1935 0.961 . S
H1951 C1935 0.960 1_554 S
C1952 C1953 1.391 . S
C1952 C1954 1.394 . S
C1952 H1968 0.931 . S
C1953 C1952 1.391 . S
C1953 C1957 1.376 . S
C1954 C1952 1.394 . S
C1954 C1955 1.369 . S
C1954 C1958 1.531 . S
C1955 C1954 1.369 . S
C1955 C1956 1.410 . S
C1955 C1963 1.503 . S
C1956 C1955 1.410 . S
C1956 C1957 1.392 . S
C1956 C1959 1.511 . S
C1957 C1953 1.376 . S
C1957 C1956 1.392 . S
C1957 H1969 0.929 . S
C1958 C1954 1.531 . S
C1958 H1970 0.960 . S
C1958 H1971 0.962 . S
C1958 H1972 0.960 . S
C1959 C1956 1.511 . S
C1959 H1973 0.961 . S
C1959 H1974 0.961 . S
C1959 H1975 0.961 . S
C1960 C1961 1.370 . S
C1960 C1962 1.363 . S
C1960 H1976 0.931 . S
C1961 C1960 1.370 . S
C1961 C1965 1.408 . S
C1962 C1960 1.363 . S
C1962 C1963 1.370 . S
C1962 C1966 1.524 . S
C1963 C1955 1.503 . S
C1963 C1962 1.370 . S
C1963 C1964 1.403 . S
C1964 C1963 1.403 . S
C1964 C1965 1.404 . S
C1964 C1967 1.539 . S
C1965 C1961 1.408 . S
C1965 C1964 1.404 . S
C1965 H1977 0.930 . S
C1966 C1962 1.524 . S
C1966 H1978 0.956 . S
C1966 H1979 0.961 . S
C1966 H1980 0.961 . S
C1967 C1964 1.539 . S
C1967 H1981 0.958 . S
C1967 H1982 0.961 . S
C1967 H1983 0.960 . S
H1968 C1952 0.931 . S
H1969 C1957 0.929 . S
H1970 C1958 0.960 . S
H1971 C1958 0.962 . S
H1972 C1958 0.960 . S
H1973 C1959 0.961 . S
H1974 C1959 0.961 . S
H1975 C1959 0.961 . S
H1976 C1960 0.931 . S
H1977 C1965 0.930 . S
H1978 C1966 0.956 . S
H1979 C1966 0.961 . S
H1980 C1966 0.961 . S
H1981 C1967 0.958 . S
H1982 C1967 0.961 . S
H1983 C1967 0.960 . S
C1984 C1985 1.391 . S
C1984 C1986 1.394 . S
C1984 H2000 0.931 . S
C1985 C1984 1.391 . S
C1985 C1989 1.376 . S
C1986 C1984 1.394 . S
C1986 C1987 1.369 . S
C1986 C1990 1.531 . S
C1987 C1986 1.369 . S
C1987 C1988 1.410 . S
C1987 C1995 1.503 . S
C1988 C1987 1.410 . S
C1988 C1989 1.392 . S
C1988 C1991 1.511 . S
C1989 C1985 1.376 . S
C1989 C1988 1.392 . S
C1989 H2001 0.929 . S
C1990 C1986 1.531 . S
C1990 H2002 0.960 . S
C1990 H2003 0.962 . S
C1990 H2004 0.960 . S
C1991 C1988 1.511 . S
C1991 H2005 0.961 . S
C1991 H2006 0.961 . S
C1991 H2007 0.961 . S
C1992 C1993 1.370 . S
C1992 C1994 1.363 . S
C1992 H2008 0.931 . S
C1993 C1992 1.370 . S
C1993 C1997 1.408 . S
C1994 C1992 1.363 . S
C1994 C1995 1.370 . S
C1994 C1998 1.524 . S
C1995 C1987 1.503 . S
C1995 C1994 1.370 . S
C1995 C1996 1.403 . S
C1996 C1995 1.403 . S
C1996 C1997 1.404 . S
C1996 C1999 1.539 . S
C1997 C1993 1.408 . S
C1997 C1996 1.404 . S
C1997 H2009 0.930 . S
C1998 C1994 1.524 . S
C1998 H2010 0.956 . S
C1998 H2011 0.961 . S
C1998 H2012 0.961 . S
C1999 C1996 1.539 . S
C1999 H2013 0.958 . S
C1999 H2014 0.961 . S
C1999 H2015 0.960 . S
H2000 C1984 0.931 . S
H2001 C1989 0.929 . S
H2002 C1990 0.960 . S
H2003 C1990 0.962 . S
H2004 C1990 0.960 . S
H2005 C1991 0.961 . S
H2006 C1991 0.961 . S
H2007 C1991 0.961 . S
H2008 C1992 0.931 . S
H2009 C1997 0.930 . S
H2010 C1998 0.956 . S
H2011 C1998 0.961 . S
H2012 C1998 0.961 . S
H2013 C1999 0.958 . S
H2014 C1999 0.961 . S
H2015 C1999 0.960 . S
C2016 C2017 1.391 . S
C2016 C2018 1.394 . S
C2016 H2032 0.931 . S
C2017 C2016 1.391 . S
C2017 C2021 1.376 . S
C2018 C2016 1.394 . S
C2018 C2019 1.369 . S
C2018 C2022 1.531 . S
C2019 C2018 1.369 . S
C2019 C2020 1.410 . S
C2019 C2027 1.503 . S
C2020 C2019 1.410 . S
C2020 C2021 1.392 . S
C2020 C2023 1.511 . S
C2021 C2017 1.376 . S
C2021 C2020 1.392 . S
C2021 H2033 0.929 . S
C2022 C2018 1.531 . S
C2022 H2034 0.960 . S
C2022 H2035 0.962 . S
C2022 H2036 0.960 . S
C2023 C2020 1.511 . S
C2023 H2037 0.961 . S
C2023 H2038 0.961 . S
C2023 H2039 0.961 . S
C2024 C2025 1.370 . S
C2024 C2026 1.363 . S
C2024 H2040 0.931 . S
C2025 C2024 1.370 . S
C2025 C2029 1.408 . S
C2026 C2024 1.363 . S
C2026 C2027 1.370 . S
C2026 C2030 1.524 . S
C2027 C2019 1.503 . S
C2027 C2026 1.370 . S
C2027 C2028 1.403 . S
C2028 C2027 1.403 . S
C2028 C2029 1.404 . S
C2028 C2031 1.539 . S
C2029 C2025 1.408 . S
C2029 C2028 1.404 . S
C2029 H2041 0.930 . S
C2030 C2026 1.524 . S
C2030 H2042 0.956 . S
C2030 H2043 0.961 . S
C2030 H2044 0.961 . S
C2031 C2028 1.539 . S
C2031 H2045 0.958 . S
C2031 H2046 0.961 . S
C2031 H2047 0.960 . S
H2032 C2016 0.931 . S
H2033 C2021 0.929 . S
H2034 C2022 0.960 . S
H2035 C2022 0.962 . S
H2036 C2022 0.960 . S
H2037 C2023 0.961 . S
H2038 C2023 0.961 . S
H2039 C2023 0.961 . S
H2040 C2024 0.931 . S
H2041 C2029 0.930 . S
H2042 C2030 0.956 . S
H2043 C2030 0.961 . S
H2044 C2030 0.961 . S
H2045 C2031 0.958 . S
H2046 C2031 0.961 . S
H2047 C2031 0.960 . S
C2048 C2049 1.391 . S
C2048 C2050 1.394 . S
C2048 H2064 0.931 . S
C2049 C2048 1.391 . S
C2049 C2053 1.376 . S
C2050 C2048 1.394 . S
C2050 C2051 1.369 . S
C2050 C2054 1.531 . S
C2051 C2050 1.369 . S
C2051 C2052 1.410 . S
C2051 C2059 1.503 1_556 S
C2052 C2051 1.410 . S
C2052 C2053 1.392 . S
C2052 C2055 1.511 . S
C2053 C2049 1.376 . S
C2053 C2052 1.392 . S
C2053 H2065 0.929 . S
C2054 C2050 1.531 . S
C2054 H2066 0.960 . S
C2054 H2067 0.962 . S
C2054 H2068 0.960 . S
C2055 C2052 1.511 . S
C2055 H2069 0.961 . S
C2055 H2070 0.961 1_556 S
C2055 H2071 0.961 . S
C2056 C2057 1.370 . S
C2056 C2058 1.363 . S
C2056 H2072 0.931 . S
C2057 C2056 1.370 . S
C2057 C2061 1.408 . S
C2058 C2056 1.363 . S
C2058 C2059 1.370 . S
C2058 C2062 1.524 1_554 S
C2059 C2051 1.503 1_554 S
C2059 C2058 1.370 . S
C2059 C2060 1.403 . S
C2060 C2059 1.403 . S
C2060 C2061 1.404 . S
C2060 C2063 1.539 . S
C2061 C2057 1.408 . S
C2061 C2060 1.404 . S
C2061 H2073 0.930 . S
C2062 C2058 1.524 1_556 S
C2062 H2074 0.956 . S
C2062 H2075 0.961 . S
C2062 H2076 0.961 1_556 S
C2063 C2060 1.539 . S
C2063 H2077 0.958 . S
C2063 H2078 0.961 . S
C2063 H2079 0.960 . S
H2064 C2048 0.931 . S
H2065 C2053 0.929 . S
H2066 C2054 0.960 . S
H2067 C2054 0.962 . S
H2068 C2054 0.960 . S
H2069 C2055 0.961 . S
H2070 C2055 0.961 1_554 S
H2071 C2055 0.961 . S
H2072 C2056 0.931 . S
H2073 C2061 0.930 . S
H2074 C2062 0.956 . S
H2075 C2062 0.961 . S
H2076 C2062 0.961 1_554 S
H2077 C2063 0.958 . S
H2078 C2063 0.961 . S
H2079 C2063 0.960 . S
C2080 C2081 1.391 . S
C2080 C2082 1.394 . S
C2080 H2096 0.931 . S
C2081 C2080 1.391 . S
C2081 C2085 1.376 . S
C2082 C2080 1.394 . S
C2082 C2083 1.369 . S
C2082 C2086 1.531 . S
C2083 C2082 1.369 . S
C2083 C2084 1.410 . S
C2083 C2091 1.503 . S
C2084 C2083 1.410 . S
C2084 C2085 1.392 . S
C2084 C2087 1.511 . S
C2085 C2081 1.376 . S
C2085 C2084 1.392 . S
C2085 H2097 0.929 . S
C2086 C2082 1.531 . S
C2086 H2098 0.960 . S
C2086 H2099 0.962 . S
C2086 H2100 0.960 . S
C2087 C2084 1.511 . S
C2087 H2101 0.961 . S
C2087 H2102 0.961 . S
C2087 H2103 0.961 . S
C2088 C2089 1.370 . S
C2088 C2090 1.363 . S
C2088 H2104 0.931 . S
C2089 C2088 1.370 . S
C2089 C2093 1.408 . S
C2090 C2088 1.363 . S
C2090 C2091 1.370 . S
C2090 C2094 1.524 . S
C2091 C2083 1.503 . S
C2091 C2090 1.370 . S
C2091 C2092 1.403 . S
C2092 C2091 1.403 . S
C2092 C2093 1.404 . S
C2092 C2095 1.539 . S
C2093 C2089 1.408 . S
C2093 C2092 1.404 . S
C2093 H2105 0.930 . S
C2094 C2090 1.524 . S
C2094 H2106 0.956 . S
C2094 H2107 0.961 . S
C2094 H2108 0.961 . S
C2095 C2092 1.539 . S
C2095 H2109 0.958 . S
C2095 H2110 0.961 . S
C2095 H2111 0.960 . S
H2096 C2080 0.931 . S
H2097 C2085 0.929 . S
H2098 C2086 0.960 . S
H2099 C2086 0.962 . S
H2100 C2086 0.960 . S
H2101 C2087 0.961 . S
H2102 C2087 0.961 . S
H2103 C2087 0.961 . S
H2104 C2088 0.931 . S
H2105 C2093 0.930 . S
H2106 C2094 0.956 . S
H2107 C2094 0.961 . S
H2108 C2094 0.961 . S
H2109 C2095 0.958 . S
H2110 C2095 0.961 . S
H2111 C2095 0.960 . S
C2112 C2113 1.391 . S
C2112 C2114 1.394 . S
C2112 H2128 0.931 . S
C2113 C2112 1.391 . S
C2113 C2117 1.376 . S
C2114 C2112 1.394 . S
C2114 C2115 1.369 . S
C2114 C2118 1.531 1_554 S
C2115 C2114 1.369 . S
C2115 C2116 1.410 . S
C2115 C2123 1.503 1_554 S
C2116 C2115 1.410 . S
C2116 C2117 1.392 . S
C2116 C2119 1.511 . S
C2117 C2113 1.376 . S
C2117 C2116 1.392 . S
C2117 H2129 0.929 . S
C2118 C2114 1.531 1_556 S
C2118 H2130 0.959 . S
C2118 H2131 0.961 . S
C2118 H2132 0.961 1_556 S
C2119 C2116 1.511 . S
C2119 H2133 0.961 . S
C2119 H2134 0.961 . S
C2119 H2135 0.961 . S
C2120 C2121 1.370 . S
C2120 C2122 1.363 . S
C2120 H2136 0.931 . S
C2121 C2120 1.370 . S
C2121 C2125 1.408 . S
C2122 C2120 1.363 . S
C2122 C2123 1.370 . S
C2122 C2126 1.524 . S
C2123 C2115 1.503 1_556 S
C2123 C2122 1.370 . S
C2123 C2124 1.403 . S
C2124 C2123 1.403 . S
C2124 C2125 1.404 . S
C2124 C2127 1.539 . S
C2125 C2121 1.408 . S
C2125 C2124 1.404 . S
C2125 H2137 0.930 . S
C2126 C2122 1.524 . S
C2126 H2138 0.956 . S
C2126 H2139 0.961 . S
C2126 H2140 0.961 . S
C2127 C2124 1.539 . S
C2127 H2141 0.958 . S
C2127 H2142 0.961 . S
C2127 H2143 0.960 1_556 S
H2128 C2112 0.931 . S
H2129 C2117 0.929 . S
H2130 C2118 0.959 . S
H2131 C2118 0.961 . S
H2132 C2118 0.961 1_554 S
H2133 C2119 0.961 . S
H2134 C2119 0.961 . S
H2135 C2119 0.961 . S
H2136 C2120 0.931 . S
H2137 C2125 0.930 . S
H2138 C2126 0.956 . S
H2139 C2126 0.961 . S
H2140 C2126 0.961 . S
H2141 C2127 0.958 . S
H2142 C2127 0.961 . S
H2143 C2127 0.960 1_554 S
C2144 C2145 1.391 . S
C2144 C2146 1.394 . S
C2144 H2160 0.931 . S
C2145 C2144 1.391 . S
C2145 C2149 1.376 . S
C2146 C2144 1.394 . S
C2146 C2147 1.369 . S
C2146 C2150 1.531 . S
C2147 C2146 1.369 . S
C2147 C2148 1.410 . S
C2147 C2155 1.503 . S
C2148 C2147 1.410 . S
C2148 C2149 1.392 . S
C2148 C2151 1.511 . S
C2149 C2145 1.376 . S
C2149 C2148 1.392 . S
C2149 H2161 0.929 . S
C2150 C2146 1.531 . S
C2150 H2162 0.960 . S
C2150 H2163 0.962 . S
C2150 H2164 0.960 . S
C2151 C2148 1.511 . S
C2151 H2165 0.961 . S
C2151 H2166 0.961 . S
C2151 H2167 0.961 . S
C2152 C2153 1.370 . S
C2152 C2154 1.363 . S
C2152 H2168 0.931 . S
C2153 C2152 1.370 . S
C2153 C2157 1.408 . S
C2154 C2152 1.363 . S
C2154 C2155 1.370 . S
C2154 C2158 1.524 . S
C2155 C2147 1.503 . S
C2155 C2154 1.370 . S
C2155 C2156 1.403 . S
C2156 C2155 1.403 . S
C2156 C2157 1.404 . S
C2156 C2159 1.539 . S
C2157 C2153 1.408 . S
C2157 C2156 1.404 . S
C2157 H2169 0.930 . S
C2158 C2154 1.524 . S
C2158 H2170 0.956 . S
C2158 H2171 0.961 . S
C2158 H2172 0.961 . S
C2159 C2156 1.539 . S
C2159 H2173 0.958 . S
C2159 H2174 0.961 . S
C2159 H2175 0.960 . S
H2160 C2144 0.931 . S
H2161 C2149 0.929 . S
H2162 C2150 0.960 . S
H2163 C2150 0.962 . S
H2164 C2150 0.960 . S
H2165 C2151 0.961 . S
H2166 C2151 0.961 . S
H2167 C2151 0.961 . S
H2168 C2152 0.931 . S
H2169 C2157 0.930 . S
H2170 C2158 0.956 . S
H2171 C2158 0.961 . S
H2172 C2158 0.961 . S
H2173 C2159 0.958 . S
H2174 C2159 0.961 . S
H2175 C2159 0.960 . S
C2176 C2177 1.391 . S
C2176 C2178 1.394 . S
C2176 H2192 0.931 . S
C2177 C2176 1.391 . S
C2177 C2181 1.376 . S
C2178 C2176 1.394 . S
C2178 C2179 1.369 . S
C2178 C2182 1.531 . S
C2179 C2178 1.369 . S
C2179 C2180 1.410 . S
C2179 C2187 1.503 . S
C2180 C2179 1.410 . S
C2180 C2181 1.392 . S
C2180 C2183 1.511 . S
C2181 C2177 1.376 . S
C2181 C2180 1.392 . S
C2181 H2193 0.929 . S
C2182 C2178 1.531 . S
C2182 H2194 0.960 . S
C2182 H2195 0.962 . S
C2182 H2196 0.960 . S
C2183 C2180 1.511 . S
C2183 H2197 0.961 . S
C2183 H2198 0.961 . S
C2183 H2199 0.961 . S
C2184 C2185 1.370 . S
C2184 C2186 1.363 . S
C2184 H2200 0.931 . S
C2185 C2184 1.370 . S
C2185 C2189 1.408 . S
C2186 C2184 1.363 . S
C2186 C2187 1.370 . S
C2186 C2190 1.524 . S
C2187 C2179 1.503 . S
C2187 C2186 1.370 . S
C2187 C2188 1.403 . S
C2188 C2187 1.403 . S
C2188 C2189 1.404 . S
C2188 C2191 1.539 . S
C2189 C2185 1.408 . S
C2189 C2188 1.404 . S
C2189 H2201 0.930 . S
C2190 C2186 1.524 . S
C2190 H2202 0.956 . S
C2190 H2203 0.961 . S
C2190 H2204 0.961 . S
C2191 C2188 1.539 . S
C2191 H2205 0.958 . S
C2191 H2206 0.961 . S
C2191 H2207 0.960 . S
H2192 C2176 0.931 . S
H2193 C2181 0.929 . S
H2194 C2182 0.960 . S
H2195 C2182 0.962 . S
H2196 C2182 0.960 . S
H2197 C2183 0.961 . S
H2198 C2183 0.961 . S
H2199 C2183 0.961 . S
H2200 C2184 0.931 . S
H2201 C2189 0.930 . S
H2202 C2190 0.956 . S
H2203 C2190 0.961 . S
H2204 C2190 0.961 . S
H2205 C2191 0.958 . S
H2206 C2191 0.961 . S
H2207 C2191 0.960 . S
C2208 C2209 1.391 . S
C2208 C2210 1.394 . S
C2208 H2224 0.931 . S
C2209 C2208 1.391 . S
C2209 C2213 1.376 . S
C2210 C2208 1.394 . S
C2210 C2211 1.369 . S
C2210 C2214 1.531 . S
C2211 C2210 1.369 . S
C2211 C2212 1.410 . S
C2211 C2219 1.503 . S
C2212 C2211 1.410 . S
C2212 C2213 1.392 . S
C2212 C2215 1.511 . S
C2213 C2209 1.376 . S
C2213 C2212 1.392 . S
C2213 H2225 0.929 . S
C2214 C2210 1.531 . S
C2214 H2226 0.960 . S
C2214 H2227 0.962 . S
C2214 H2228 0.960 . S
C2215 C2212 1.511 . S
C2215 H2229 0.961 . S
C2215 H2230 0.961 . S
C2215 H2231 0.961 . S
C2216 C2217 1.370 . S
C2216 C2218 1.363 . S
C2216 H2232 0.931 . S
C2217 C2216 1.370 . S
C2217 C2221 1.408 . S
C2218 C2216 1.363 . S
C2218 C2219 1.370 . S
C2218 C2222 1.524 . S
C2219 C2211 1.503 . S
C2219 C2218 1.370 . S
C2219 C2220 1.403 . S
C2220 C2219 1.403 . S
C2220 C2221 1.404 . S
C2220 C2223 1.539 . S
C2221 C2217 1.408 . S
C2221 C2220 1.404 . S
C2221 H2233 0.930 . S
C2222 C2218 1.524 . S
C2222 H2234 0.956 . S
C2222 H2235 0.961 . S
C2222 H2236 0.961 . S
C2223 C2220 1.539 . S
C2223 H2237 0.958 . S
C2223 H2238 0.961 . S
C2223 H2239 0.960 . S
H2224 C2208 0.931 . S
H2225 C2213 0.929 . S
H2226 C2214 0.960 . S
H2227 C2214 0.962 . S
H2228 C2214 0.960 . S
H2229 C2215 0.961 . S
H2230 C2215 0.961 . S
H2231 C2215 0.961 . S
H2232 C2216 0.931 . S
H2233 C2221 0.930 . S
H2234 C2222 0.956 . S
H2235 C2222 0.961 . S
H2236 C2222 0.961 . S
H2237 C2223 0.958 . S
H2238 C2223 0.961 . S
H2239 C2223 0.960 . S
C2240 C2241 1.391 . S
C2240 C2242 1.394 . S
C2240 H2256 0.931 . S
C2241 C2240 1.391 . S
C2241 C2245 1.376 . S
C2242 C2240 1.394 . S
C2242 C2243 1.369 . S
C2242 C2246 1.531 1_556 S
C2243 C2242 1.369 . S
C2243 C2244 1.410 . S
C2243 C2251 1.503 1_556 S
C2244 C2243 1.410 . S
C2244 C2245 1.392 . S
C2244 C2247 1.511 . S
C2245 C2241 1.376 . S
C2245 C2244 1.392 . S
C2245 H2257 0.929 . S
C2246 C2242 1.531 1_554 S
C2246 H2258 0.960 . S
C2246 H2259 0.962 . S
C2246 H2260 0.960 1_554 S
C2247 C2244 1.511 . S
C2247 H2261 0.961 . S
C2247 H2262 0.961 . S
C2247 H2263 0.961 . S
C2248 C2249 1.370 . S
C2248 C2250 1.363 . S
C2248 H2264 0.931 . S
C2249 C2248 1.370 . S
C2249 C2253 1.408 . S
C2250 C2248 1.363 . S
C2250 C2251 1.370 . S
C2250 C2254 1.524 . S
C2251 C2243 1.503 1_554 S
C2251 C2250 1.370 . S
C2251 C2252 1.403 . S
C2252 C2251 1.403 . S
C2252 C2253 1.404 . S
C2252 C2255 1.539 . S
C2253 C2249 1.408 . S
C2253 C2252 1.404 . S
C2253 H2265 0.930 . S
C2254 C2250 1.524 . S
C2254 H2266 0.956 . S
C2254 H2267 0.961 . S
C2254 H2268 0.961 . S
C2255 C2252 1.539 . S
C2255 H2269 0.958 . S
C2255 H2270 0.961 . S
C2255 H2271 0.960 . S
H2256 C2240 0.931 . S
H2257 C2245 0.929 . S
H2258 C2246 0.960 . S
H2259 C2246 0.962 . S
H2260 C2246 0.960 1_556 S
H2261 C2247 0.961 . S
H2262 C2247 0.961 . S
H2263 C2247 0.961 . S
H2264 C2248 0.931 . S
H2265 C2253 0.930 . S
H2266 C2254 0.956 . S
H2267 C2254 0.961 . S
H2268 C2254 0.961 . S
H2269 C2255 0.958 . S
H2270 C2255 0.961 . S
H2271 C2255 0.960 . S
C2272 C2273 1.391 . S
C2272 C2274 1.394 . S
C2272 H2288 0.931 . S
C2273 C2272 1.391 . S
C2273 C2277 1.376 . S
C2274 C2272 1.394 . S
C2274 C2275 1.369 . S
C2274 C2278 1.531 . S
C2275 C2274 1.369 . S
C2275 C2276 1.410 . S
C2275 C2283 1.503 . S
C2276 C2275 1.410 . S
C2276 C2277 1.392 . S
C2276 C2279 1.511 . S
C2277 C2273 1.376 . S
C2277 C2276 1.392 . S
C2277 H2289 0.929 . S
C2278 C2274 1.531 . S
C2278 H2290 0.960 . S
C2278 H2291 0.962 . S
C2278 H2292 0.960 . S
C2279 C2276 1.511 . S
C2279 H2293 0.961 . S
C2279 H2294 0.961 . S
C2279 H2295 0.961 . S
C2280 C2281 1.370 . S
C2280 C2282 1.363 . S
C2280 H2296 0.931 . S
C2281 C2280 1.370 . S
C2281 C2285 1.408 . S
C2282 C2280 1.363 . S
C2282 C2283 1.370 . S
C2282 C2286 1.524 . S
C2283 C2275 1.503 . S
C2283 C2282 1.370 . S
C2283 C2284 1.403 . S
C2284 C2283 1.403 . S
C2284 C2285 1.404 . S
C2284 C2287 1.539 . S
C2285 C2281 1.408 . S
C2285 C2284 1.404 . S
C2285 H2297 0.930 . S
C2286 C2282 1.524 . S
C2286 H2298 0.956 . S
C2286 H2299 0.961 . S
C2286 H2300 0.961 . S
C2287 C2284 1.539 . S
C2287 H2301 0.958 . S
C2287 H2302 0.961 . S
C2287 H2303 0.960 . S
H2288 C2272 0.931 . S
H2289 C2277 0.929 . S
H2290 C2278 0.960 . S
H2291 C2278 0.962 . S
H2292 C2278 0.960 . S
H2293 C2279 0.961 . S
H2294 C2279 0.961 . S
H2295 C2279 0.961 . S
H2296 C2280 0.931 . S
H2297 C2285 0.930 . S
H2298 C2286 0.956 . S
H2299 C2286 0.961 . S
H2300 C2286 0.961 . S
H2301 C2287 0.958 . S
H2302 C2287 0.961 . S
H2303 C2287 0.960 . S
C2304 C2305 1.391 . S
C2304 C2306 1.394 . S
C2304 H2320 0.931 . S
C2305 C2304 1.391 . S
C2305 C2309 1.376 . S
C2306 C2304 1.394 . S
C2306 C2307 1.369 . S
C2306 C2310 1.531 . S
C2307 C2306 1.369 . S
C2307 C2308 1.410 . S
C2307 C2315 1.503 . S
C2308 C2307 1.410 . S
C2308 C2309 1.392 . S
C2308 C2311 1.511 . S
C2309 C2305 1.376 . S
C2309 C2308 1.392 . S
C2309 H2321 0.929 . S
C2310 C2306 1.531 . S
C2310 H2322 0.960 . S
C2310 H2323 0.962 . S
C2310 H2324 0.960 . S
C2311 C2308 1.511 . S
C2311 H2325 0.961 . S
C2311 H2326 0.961 . S
C2311 H2327 0.961 . S
C2312 C2313 1.370 . S
C2312 C2314 1.363 . S
C2312 H2328 0.931 . S
C2313 C2312 1.370 . S
C2313 C2317 1.408 . S
C2314 C2312 1.363 . S
C2314 C2315 1.370 . S
C2314 C2318 1.524 . S
C2315 C2307 1.503 . S
C2315 C2314 1.370 . S
C2315 C2316 1.403 . S
C2316 C2315 1.403 . S
C2316 C2317 1.404 . S
C2316 C2319 1.539 . S
C2317 C2313 1.408 . S
C2317 C2316 1.404 . S
C2317 H2329 0.930 . S
C2318 C2314 1.524 . S
C2318 H2330 0.956 . S
C2318 H2331 0.961 . S
C2318 H2332 0.961 . S
C2319 C2316 1.539 . S
C2319 H2333 0.958 . S
C2319 H2334 0.961 . S
C2319 H2335 0.960 . S
H2320 C2304 0.931 . S
H2321 C2309 0.929 . S
H2322 C2310 0.960 . S
H2323 C2310 0.962 . S
H2324 C2310 0.960 . S
H2325 C2311 0.961 . S
H2326 C2311 0.961 . S
H2327 C2311 0.961 . S
H2328 C2312 0.931 . S
H2329 C2317 0.930 . S
H2330 C2318 0.956 . S
H2331 C2318 0.961 . S
H2332 C2318 0.961 . S
H2333 C2319 0.958 . S
H2334 C2319 0.961 . S
H2335 C2319 0.960 . S
C2336 C2337 1.391 . S
C2336 C2338 1.394 . S
C2336 H2352 0.931 . S
C2337 C2336 1.391 . S
C2337 C2341 1.376 . S
C2338 C2336 1.394 . S
C2338 C2339 1.369 . S
C2338 C2342 1.531 . S
C2339 C2338 1.369 . S
C2339 C2340 1.410 . S
C2339 C2347 1.503 . S
C2340 C2339 1.410 . S
C2340 C2341 1.392 . S
C2340 C2343 1.511 . S
C2341 C2337 1.376 . S
C2341 C2340 1.392 . S
C2341 H2353 0.929 . S
C2342 C2338 1.531 . S
C2342 H2354 0.960 . S
C2342 H2355 0.962 . S
C2342 H2356 0.960 . S
C2343 C2340 1.511 . S
C2343 H2357 0.961 . S
C2343 H2358 0.961 . S
C2343 H2359 0.961 . S
C2344 C2345 1.370 . S
C2344 C2346 1.363 . S
C2344 H2360 0.931 . S
C2345 C2344 1.370 . S
C2345 C2349 1.408 . S
C2346 C2344 1.363 . S
C2346 C2347 1.370 . S
C2346 C2350 1.524 . S
C2347 C2339 1.503 . S
C2347 C2346 1.370 . S
C2347 C2348 1.403 . S
C2348 C2347 1.403 . S
C2348 C2349 1.404 . S
C2348 C2351 1.539 . S
C2349 C2345 1.408 . S
C2349 C2348 1.404 . S
C2349 H2361 0.930 . S
C2350 C2346 1.524 . S
C2350 H2362 0.956 . S
C2350 H2363 0.961 . S
C2350 H2364 0.961 . S
C2351 C2348 1.539 . S
C2351 H2365 0.958 . S
C2351 H2366 0.961 . S
C2351 H2367 0.960 . S
H2352 C2336 0.931 . S
H2353 C2341 0.929 . S
H2354 C2342 0.960 . S
H2355 C2342 0.962 . S
H2356 C2342 0.960 . S
H2357 C2343 0.961 . S
H2358 C2343 0.961 . S
H2359 C2343 0.961 . S
H2360 C2344 0.931 . S
H2361 C2349 0.930 . S
H2362 C2350 0.956 . S
H2363 C2350 0.961 . S
H2364 C2350 0.961 . S
H2365 C2351 0.958 . S
H2366 C2351 0.961 . S
H2367 C2351 0.960 . S
C2368 C2369 1.391 . S
C2368 C2370 1.394 . S
C2368 H2384 0.931 . S
C2369 C2368 1.391 . S
C2369 C2373 1.376 . S
C2370 C2368 1.394 . S
C2370 C2371 1.369 . S
C2370 C2374 1.531 . S
C2371 C2370 1.369 . S
C2371 C2372 1.410 . S
C2371 C2379 1.503 1_556 S
C2372 C2371 1.410 . S
C2372 C2373 1.392 . S
C2372 C2375 1.511 1_556 S
C2373 C2369 1.376 . S
C2373 C2372 1.392 . S
C2373 H2385 0.929 . S
C2374 C2370 1.531 . S
C2374 H2386 0.960 1_556 S
C2374 H2387 0.962 . S
C2374 H2388 0.960 . S
C2375 C2372 1.511 1_554 S
C2375 H2389 0.961 1_554 S
C2375 H2390 0.961 . S
C2375 H2391 0.961 . S
C2376 C2377 1.370 . S
C2376 C2378 1.363 . S
C2376 H2392 0.931 . S
C2377 C2376 1.370 . S
C2377 C2381 1.408 . S
C2378 C2376 1.363 . S
C2378 C2379 1.370 . S
C2378 C2382 1.524 . S
C2379 C2371 1.503 1_554 S
C2379 C2378 1.370 . S
C2379 C2380 1.403 . S
C2380 C2379 1.403 . S
C2380 C2381 1.404 . S
C2380 C2383 1.539 . S
C2381 C2377 1.408 . S
C2381 C2380 1.404 . S
C2381 H2393 0.930 . S
C2382 C2378 1.524 . S
C2382 H2394 0.956 1_554 S
C2382 H2395 0.961 1_554 S
C2382 H2396 0.961 . S
C2383 C2380 1.539 . S
C2383 H2397 0.958 . S
C2383 H2398 0.961 . S
C2383 H2399 0.960 . S
H2384 C2368 0.931 . S
H2385 C2373 0.929 . S
H2386 C2374 0.960 1_554 S
H2387 C2374 0.962 . S
H2388 C2374 0.960 . S
H2389 C2375 0.961 1_556 S
H2390 C2375 0.961 . S
H2391 C2375 0.961 . S
H2392 C2376 0.931 . S
H2393 C2381 0.930 . S
H2394 C2382 0.956 1_556 S
H2395 C2382 0.961 1_556 S
H2396 C2382 0.961 . S
H2397 C2383 0.958 . S
H2398 C2383 0.961 . S
H2399 C2383 0.960 . S
C2400 C2401 1.391 . S
C2400 C2402 1.394 . S
C2400 H2416 0.931 . S
C2401 C2400 1.391 . S
C2401 C2405 1.376 . S
C2402 C2400 1.394 . S
C2402 C2403 1.369 . S
C2402 C2406 1.531 . S
C2403 C2402 1.369 . S
C2403 C2404 1.410 . S
C2403 C2411 1.503 . S
C2404 C2403 1.410 . S
C2404 C2405 1.392 . S
C2404 C2407 1.511 . S
C2405 C2401 1.376 . S
C2405 C2404 1.392 . S
C2405 H2417 0.929 . S
C2406 C2402 1.531 . S
C2406 H2418 0.960 . S
C2406 H2419 0.962 . S
C2406 H2420 0.960 . S
C2407 C2404 1.511 . S
C2407 H2421 0.961 . S
C2407 H2422 0.961 . S
C2407 H2423 0.961 . S
C2408 C2409 1.370 . S
C2408 C2410 1.363 . S
C2408 H2424 0.931 . S
C2409 C2408 1.370 . S
C2409 C2413 1.408 . S
C2410 C2408 1.363 . S
C2410 C2411 1.370 . S
C2410 C2414 1.524 . S
C2411 C2403 1.503 . S
C2411 C2410 1.370 . S
C2411 C2412 1.403 . S
C2412 C2411 1.403 . S
C2412 C2413 1.404 . S
C2412 C2415 1.539 . S
C2413 C2409 1.408 . S
C2413 C2412 1.404 . S
C2413 H2425 0.930 . S
C2414 C2410 1.524 . S
C2414 H2426 0.956 . S
C2414 H2427 0.961 . S
C2414 H2428 0.961 . S
C2415 C2412 1.539 . S
C2415 H2429 0.958 . S
C2415 H2430 0.961 . S
C2415 H2431 0.960 . S
H2416 C2400 0.931 . S
H2417 C2405 0.929 . S
H2418 C2406 0.960 . S
H2419 C2406 0.962 . S
H2420 C2406 0.960 . S
H2421 C2407 0.961 . S
H2422 C2407 0.961 . S
H2423 C2407 0.961 . S
H2424 C2408 0.931 . S
H2425 C2413 0.930 . S
H2426 C2414 0.956 . S
H2427 C2414 0.961 . S
H2428 C2414 0.961 . S
H2429 C2415 0.958 . S
H2430 C2415 0.961 . S
H2431 C2415 0.960 . S
C2432 C2433 1.391 . S
C2432 C2434 1.394 . S
C2432 H2448 0.931 . S
C2433 C2432 1.391 . S
C2433 C2437 1.376 . S
C2434 C2432 1.394 . S
C2434 C2435 1.369 . S
C2434 C2438 1.531 . S
C2435 C2434 1.369 . S
C2435 C2436 1.410 . S
C2435 C2443 1.503 . S
C2436 C2435 1.410 . S
C2436 C2437 1.392 . S
C2436 C2439 1.511 . S
C2437 C2433 1.376 . S
C2437 C2436 1.392 . S
C2437 H2449 0.929 . S
C2438 C2434 1.531 . S
C2438 H2450 0.960 . S
C2438 H2451 0.962 . S
C2438 H2452 0.960 . S
C2439 C2436 1.511 . S
C2439 H2453 0.961 . S
C2439 H2454 0.961 . S
C2439 H2455 0.961 . S
C2440 C2441 1.370 . S
C2440 C2442 1.363 . S
C2440 H2456 0.931 . S
C2441 C2440 1.370 . S
C2441 C2445 1.408 . S
C2442 C2440 1.363 . S
C2442 C2443 1.370 . S
C2442 C2446 1.524 . S
C2443 C2435 1.503 . S
C2443 C2442 1.370 . S
C2443 C2444 1.403 . S
C2444 C2443 1.403 . S
C2444 C2445 1.404 . S
C2444 C2447 1.539 . S
C2445 C2441 1.408 . S
C2445 C2444 1.404 . S
C2445 H2457 0.930 . S
C2446 C2442 1.524 . S
C2446 H2458 0.956 . S
C2446 H2459 0.961 . S
C2446 H2460 0.961 . S
C2447 C2444 1.539 . S
C2447 H2461 0.958 . S
C2447 H2462 0.961 . S
C2447 H2463 0.960 . S
H2448 C2432 0.931 . S
H2449 C2437 0.929 . S
H2450 C2438 0.960 . S
H2451 C2438 0.962 . S
H2452 C2438 0.960 . S
H2453 C2439 0.961 . S
H2454 C2439 0.961 . S
H2455 C2439 0.961 . S
H2456 C2440 0.931 . S
H2457 C2445 0.930 . S
H2458 C2446 0.956 . S
H2459 C2446 0.961 . S
H2460 C2446 0.961 . S
H2461 C2447 0.958 . S
H2462 C2447 0.961 . S
H2463 C2447 0.960 . S
C2464 C2465 1.391 . S
C2464 C2466 1.394 . S
C2464 H2480 0.931 . S
C2465 C2464 1.391 . S
C2465 C2469 1.376 . S
C2466 C2464 1.394 . S
C2466 C2467 1.369 . S
C2466 C2470 1.531 . S
C2467 C2466 1.369 . S
C2467 C2468 1.410 . S
C2467 C2475 1.503 . S
C2468 C2467 1.410 . S
C2468 C2469 1.392 . S
C2468 C2471 1.511 . S
C2469 C2465 1.376 . S
C2469 C2468 1.392 . S
C2469 H2481 0.929 . S
C2470 C2466 1.531 . S
C2470 H2482 0.960 . S
C2470 H2483 0.962 . S
C2470 H2484 0.960 . S
C2471 C2468 1.511 . S
C2471 H2485 0.961 . S
C2471 H2486 0.961 . S
C2471 H2487 0.961 . S
C2472 C2473 1.370 . S
C2472 C2474 1.363 . S
C2472 H2488 0.931 . S
C2473 C2472 1.370 . S
C2473 C2477 1.408 . S
C2474 C2472 1.363 . S
C2474 C2475 1.370 . S
C2474 C2478 1.524 . S
C2475 C2467 1.503 . S
C2475 C2474 1.370 . S
C2475 C2476 1.403 . S
C2476 C2475 1.403 . S
C2476 C2477 1.404 . S
C2476 C2479 1.539 . S
C2477 C2473 1.408 . S
C2477 C2476 1.404 . S
C2477 H2489 0.930 . S
C2478 C2474 1.524 . S
C2478 H2490 0.956 . S
C2478 H2491 0.961 . S
C2478 H2492 0.961 . S
C2479 C2476 1.539 . S
C2479 H2493 0.958 . S
C2479 H2494 0.961 . S
C2479 H2495 0.960 . S
H2480 C2464 0.931 . S
H2481 C2469 0.929 . S
H2482 C2470 0.960 . S
H2483 C2470 0.962 . S
H2484 C2470 0.960 . S
H2485 C2471 0.961 . S
H2486 C2471 0.961 . S
H2487 C2471 0.961 . S
H2488 C2472 0.931 . S
H2489 C2477 0.930 . S
H2490 C2478 0.956 . S
H2491 C2478 0.961 . S
H2492 C2478 0.961 . S
H2493 C2479 0.958 . S
H2494 C2479 0.961 . S
H2495 C2479 0.960 . S
C2496 C2497 1.391 . S
C2496 C2498 1.394 . S
C2496 H2512 0.931 . S
C2497 C2496 1.391 . S
C2497 C2501 1.376 . S
C2498 C2496 1.394 . S
C2498 C2499 1.369 . S
C2498 C2502 1.531 1_554 S
C2499 C2498 1.369 . S
C2499 C2500 1.410 . S
C2499 C2507 1.503 1_554 S
C2500 C2499 1.410 . S
C2500 C2501 1.392 . S
C2500 C2503 1.511 . S
C2501 C2497 1.376 . S
C2501 C2500 1.392 . S
C2501 H2513 0.929 . S
C2502 C2498 1.531 1_556 S
C2502 H2514 0.960 . S
C2502 H2515 0.962 . S
C2502 H2516 0.960 1_556 S
C2503 C2500 1.511 . S
C2503 H2517 0.961 . S
C2503 H2518 0.961 . S
C2503 H2519 0.961 . S
C2504 C2505 1.370 . S
C2504 C2506 1.363 . S
C2504 H2520 0.931 . S
C2505 C2504 1.370 . S
C2505 C2509 1.408 . S
C2506 C2504 1.363 . S
C2506 C2507 1.370 . S
C2506 C2510 1.524 . S
C2507 C2499 1.503 1_556 S
C2507 C2506 1.370 . S
C2507 C2508 1.403 . S
C2508 C2507 1.403 . S
C2508 C2509 1.404 . S
C2508 C2511 1.539 . S
C2509 C2505 1.408 . S
C2509 C2508 1.404 . S
C2509 H2521 0.930 . S
C2510 C2506 1.524 . S
C2510 H2522 0.956 . S
C2510 H2523 0.972 . S
C2510 H2524 0.961 . S
C2511 C2508 1.539 . S
C2511 H2525 0.958 . S
C2511 H2526 0.961 . S
C2511 H2527 0.960 . S
H2512 C2496 0.931 . S
H2513 C2501 0.929 . S
H2514 C2502 0.960 . S
H2515 C2502 0.962 . S
H2516 C2502 0.960 1_554 S
H2517 C2503 0.961 . S
H2518 C2503 0.961 . S
H2519 C2503 0.961 . S
H2520 C2504 0.931 . S
H2521 C2509 0.930 . S
H2522 C2510 0.956 . S
H2523 C2510 0.972 . S
H2524 C2510 0.961 . S
H2525 C2511 0.958 . S
H2526 C2511 0.961 . S
H2527 C2511 0.960 . S
C2528 C2529 1.391 . S
C2528 C2530 1.394 . S
C2528 H2544 0.931 . S
C2529 C2528 1.391 . S
C2529 C2533 1.376 . S
C2530 C2528 1.394 . S
C2530 C2531 1.369 . S
C2530 C2534 1.531 . S
C2531 C2530 1.369 . S
C2531 C2532 1.410 . S
C2531 C2539 1.503 . S
C2532 C2531 1.410 . S
C2532 C2533 1.392 . S
C2532 C2535 1.511 . S
C2533 C2529 1.376 . S
C2533 C2532 1.392 . S
C2533 H2545 0.929 . S
C2534 C2530 1.531 . S
C2534 H2546 0.960 . S
C2534 H2547 0.962 . S
C2534 H2548 0.960 . S
C2535 C2532 1.511 . S
C2535 H2549 0.961 . S
C2535 H2550 0.961 . S
C2535 H2551 0.961 . S
C2536 C2537 1.370 . S
C2536 C2538 1.363 . S
C2536 H2552 0.931 . S
C2537 C2536 1.370 . S
C2537 C2541 1.408 . S
C2538 C2536 1.363 . S
C2538 C2539 1.370 . S
C2538 C2542 1.524 . S
C2539 C2531 1.503 . S
C2539 C2538 1.370 . S
C2539 C2540 1.403 . S
C2540 C2539 1.403 . S
C2540 C2541 1.404 . S
C2540 C2543 1.539 . S
C2541 C2537 1.408 . S
C2541 C2540 1.404 . S
C2541 H2553 0.930 . S
C2542 C2538 1.524 . S
C2542 H2554 0.956 . S
C2542 H2555 0.961 . S
C2542 H2556 0.961 . S
C2543 C2540 1.539 . S
C2543 H2557 0.958 . S
C2543 H2558 0.961 . S
C2543 H2559 0.960 . S
H2544 C2528 0.931 . S
H2545 C2533 0.929 . S
H2546 C2534 0.960 . S
H2547 C2534 0.962 . S
H2548 C2534 0.960 . S
H2549 C2535 0.961 . S
H2550 C2535 0.961 . S
H2551 C2535 0.961 . S
H2552 C2536 0.931 . S
H2553 C2541 0.930 . S
H2554 C2542 0.956 . S
H2555 C2542 0.961 . S
H2556 C2542 0.961 . S
H2557 C2543 0.958 . S
H2558 C2543 0.961 . S
H2559 C2543 0.960 . S
C2560 C2561 1.391 . S
C2560 C2562 1.394 . S
C2560 H2576 0.931 . S
C2561 C2560 1.391 . S
C2561 C2565 1.376 . S
C2562 C2560 1.394 . S
C2562 C2563 1.369 . S
C2562 C2566 1.531 . S
C2563 C2562 1.369 . S
C2563 C2564 1.410 . S
C2563 C2571 1.503 . S
C2564 C2563 1.410 . S
C2564 C2565 1.392 . S
C2564 C2567 1.511 . S
C2565 C2561 1.376 . S
C2565 C2564 1.392 . S
C2565 H2577 0.929 . S
C2566 C2562 1.531 . S
C2566 H2578 0.960 . S
C2566 H2579 0.962 . S
C2566 H2580 0.960 . S
C2567 C2564 1.511 . S
C2567 H2581 0.961 . S
C2567 H2582 0.961 . S
C2567 H2583 0.961 . S
C2568 C2569 1.370 . S
C2568 C2570 1.363 . S
C2568 H2584 0.931 . S
C2569 C2568 1.370 . S
C2569 C2573 1.408 . S
C2570 C2568 1.363 . S
C2570 C2571 1.370 . S
C2570 C2574 1.524 . S
C2571 C2563 1.503 . S
C2571 C2570 1.370 . S
C2571 C2572 1.403 . S
C2572 C2571 1.403 . S
C2572 C2573 1.404 . S
C2572 C2575 1.539 . S
C2573 C2569 1.408 . S
C2573 C2572 1.404 . S
C2573 H2585 0.930 . S
C2574 C2570 1.524 . S
C2574 H2586 0.956 . S
C2574 H2587 0.961 . S
C2574 H2588 0.961 . S
C2575 C2572 1.539 . S
C2575 H2589 0.958 . S
C2575 H2590 0.961 . S
C2575 H2591 0.960 . S
H2576 C2560 0.931 . S
H2577 C2565 0.929 . S
H2578 C2566 0.960 . S
H2579 C2566 0.962 . S
H2580 C2566 0.960 . S
H2581 C2567 0.961 . S
H2582 C2567 0.961 . S
H2583 C2567 0.961 . S
H2584 C2568 0.931 . S
H2585 C2573 0.930 . S
H2586 C2574 0.956 . S
H2587 C2574 0.961 . S
H2588 C2574 0.961 . S
H2589 C2575 0.958 . S
H2590 C2575 0.961 . S
H2591 C2575 0.960 . S
C2592 C2593 1.391 . S
C2592 C2594 1.394 . S
C2592 H2608 0.931 . S
C2593 C2592 1.391 . S
C2593 C2597 1.376 . S
C2594 C2592 1.394 . S
C2594 C2595 1.369 . S
C2594 C2598 1.531 . S
C2595 C2594 1.369 . S
C2595 C2596 1.410 . S
C2595 C2603 1.503 . S
C2596 C2595 1.410 . S
C2596 C2597 1.392 . S
C2596 C2599 1.511 . S
C2597 C2593 1.376 . S
C2597 C2596 1.392 . S
C2597 H2609 0.929 . S
C2598 C2594 1.531 . S
C2598 H2610 0.960 . S
C2598 H2611 0.962 . S
C2598 H2612 0.960 . S
C2599 C2596 1.511 . S
C2599 H2613 0.961 . S
C2599 H2614 0.961 . S
C2599 H2615 0.961 . S
C2600 C2601 1.370 . S
C2600 C2602 1.363 . S
C2600 H2616 0.931 . S
C2601 C2600 1.370 . S
C2601 C2605 1.408 . S
C2602 C2600 1.363 . S
C2602 C2603 1.370 . S
C2602 C2606 1.524 . S
C2603 C2595 1.503 . S
C2603 C2602 1.370 . S
C2603 C2604 1.403 . S
C2604 C2603 1.403 . S
C2604 C2605 1.404 . S
C2604 C2607 1.539 . S
C2605 C2601 1.408 . S
C2605 C2604 1.404 . S
C2605 H2617 0.930 . S
C2606 C2602 1.524 . S
C2606 H2618 0.956 . S
C2606 H2619 0.961 . S
C2606 H2620 0.961 . S
C2607 C2604 1.539 . S
C2607 H2621 0.958 . S
C2607 H2622 0.961 . S
C2607 H2623 0.960 . S
H2608 C2592 0.931 . S
H2609 C2597 0.929 . S
H2610 C2598 0.960 . S
H2611 C2598 0.962 . S
H2612 C2598 0.960 . S
H2613 C2599 0.961 . S
H2614 C2599 0.961 . S
H2615 C2599 0.961 . S
H2616 C2600 0.931 . S
H2617 C2605 0.930 . S
H2618 C2606 0.956 . S
H2619 C2606 0.961 . S
H2620 C2606 0.961 . S
H2621 C2607 0.958 . S
H2622 C2607 0.961 . S
H2623 C2607 0.960 . S
C2624 C2625 1.391 . S
C2624 C2626 1.394 . S
C2624 H2640 0.931 . S
C2625 C2624 1.391 . S
C2625 C2629 1.376 . S
C2626 C2624 1.394 . S
C2626 C2627 1.369 . S
C2626 C2630 1.531 . S
C2627 C2626 1.369 . S
C2627 C2628 1.410 . S
C2627 C2635 1.503 . S
C2628 C2627 1.410 . S
C2628 C2629 1.392 . S
C2628 C2631 1.511 . S
C2629 C2625 1.376 . S
C2629 C2628 1.392 . S
C2629 H2641 0.929 . S
C2630 C2626 1.531 . S
C2630 H2642 0.960 . S
C2630 H2643 0.962 . S
C2630 H2644 0.960 . S
C2631 C2628 1.511 . S
C2631 H2645 0.961 . S
C2631 H2646 0.961 . S
C2631 H2647 0.961 . S
C2632 C2633 1.370 . S
C2632 C2634 1.363 . S
C2632 H2648 0.931 . S
C2633 C2632 1.370 . S
C2633 C2637 1.408 . S
C2634 C2632 1.363 . S
C2634 C2635 1.370 . S
C2634 C2638 1.524 . S
C2635 C2627 1.503 . S
C2635 C2634 1.370 . S
C2635 C2636 1.403 . S
C2636 C2635 1.403 . S
C2636 C2637 1.404 . S
C2636 C2639 1.539 . S
C2637 C2633 1.408 . S
C2637 C2636 1.404 . S
C2637 H2649 0.930 . S
C2638 C2634 1.524 . S
C2638 H2650 0.956 . S
C2638 H2651 0.961 . S
C2638 H2652 0.961 . S
C2639 C2636 1.539 . S
C2639 H2653 0.958 . S
C2639 H2654 0.961 . S
C2639 H2655 0.960 . S
H2640 C2624 0.931 . S
H2641 C2629 0.929 . S
H2642 C2630 0.960 . S
H2643 C2630 0.962 . S
H2644 C2630 0.960 . S
H2645 C2631 0.961 . S
H2646 C2631 0.961 . S
H2647 C2631 0.961 . S
H2648 C2632 0.931 . S
H2649 C2637 0.930 . S
H2650 C2638 0.956 . S
H2651 C2638 0.961 . S
H2652 C2638 0.961 . S
H2653 C2639 0.958 . S
H2654 C2639 0.961 . S
H2655 C2639 0.960 . S
C2656 C2657 1.391 . S
C2656 C2658 1.394 . S
C2656 H2672 0.931 . S
C2657 C2656 1.391 . S
C2657 C2661 1.376 . S
C2658 C2656 1.394 . S
C2658 C2659 1.369 . S
C2658 C2662 1.531 1_545 S
C2659 C2658 1.369 . S
C2659 C2660 1.410 . S
C2659 C2667 1.503 1_545 S
C2660 C2659 1.410 . S
C2660 C2661 1.392 . S
C2660 C2663 1.511 . S
C2661 C2657 1.376 . S
C2661 C2660 1.392 . S
C2661 H2673 0.929 . S
C2662 C2658 1.531 1_565 S
C2662 H2674 0.960 . S
C2662 H2675 0.962 1_565 S
C2662 H2676 0.960 . S
C2663 C2660 1.511 . S
C2663 H2677 0.961 . S
C2663 H2678 0.961 . S
C2663 H2679 0.906 1_545 S
C2664 C2665 1.370 . S
C2664 C2666 1.363 . S
C2664 H2680 0.931 . S
C2665 C2664 1.370 . S
C2665 C2669 1.408 . S
C2666 C2664 1.363 . S
C2666 C2667 1.370 . S
C2666 C2670 1.524 1_565 S
C2667 C2659 1.503 1_565 S
C2667 C2666 1.370 . S
C2667 C2668 1.403 . S
C2668 C2667 1.403 . S
C2668 C2669 1.404 . S
C2668 C2671 1.539 . S
C2669 C2665 1.408 . S
C2669 C2668 1.404 . S
C2669 H2681 0.930 . S
C2670 C2666 1.524 1_545 S
C2670 H2682 0.956 . S
C2670 H2683 0.961 . S
C2670 H2684 0.961 . S
C2671 C2668 1.539 . S
C2671 H2685 0.958 . S
C2671 H2686 0.961 . S
C2671 H2687 0.960 . S
H2672 C2656 0.931 . S
H2673 C2661 0.929 . S
H2674 C2662 0.960 . S
H2675 C2662 0.962 1_545 S
H2676 C2662 0.960 . S
H2677 C2663 0.961 . S
H2678 C2663 0.961 . S
H2679 C2663 0.906 1_565 S
H2680 C2664 0.931 . S
H2681 C2669 0.930 . S
H2682 C2670 0.956 . S
H2683 C2670 0.961 . S
H2684 C2670 0.961 . S
H2685 C2671 0.958 . S
H2686 C2671 0.961 . S
H2687 C2671 0.960 . S
C2688 C2689 1.391 . S
C2688 C2690 1.394 . S
C2688 H2704 0.931 . S
C2689 C2688 1.391 . S
C2689 C2693 1.376 . S
C2690 C2688 1.394 . S
C2690 C2691 1.369 . S
C2690 C2694 1.531 . S
C2691 C2690 1.369 . S
C2691 C2692 1.410 . S
C2691 C2699 1.503 . S
C2692 C2691 1.410 . S
C2692 C2693 1.392 . S
C2692 C2695 1.511 . S
C2693 C2689 1.376 . S
C2693 C2692 1.392 . S
C2693 H2705 0.929 . S
C2694 C2690 1.531 . S
C2694 H2706 0.960 . S
C2694 H2707 0.962 . S
C2694 H2708 0.960 . S
C2695 C2692 1.511 . S
C2695 H2709 0.961 . S
C2695 H2710 0.961 . S
C2695 H2711 0.961 . S
C2696 C2697 1.370 . S
C2696 C2698 1.363 . S
C2696 H2712 0.931 . S
C2697 C2696 1.370 . S
C2697 C2701 1.408 . S
C2698 C2696 1.363 . S
C2698 C2699 1.370 . S
C2698 C2702 1.524 . S
C2699 C2691 1.503 . S
C2699 C2698 1.370 . S
C2699 C2700 1.403 . S
C2700 C2699 1.403 . S
C2700 C2701 1.404 . S
C2700 C2703 1.539 . S
C2701 C2697 1.408 . S
C2701 C2700 1.404 . S
C2701 H2713 0.930 . S
C2702 C2698 1.524 . S
C2702 H2714 0.956 . S
C2702 H2715 0.961 . S
C2702 H2716 0.961 . S
C2703 C2700 1.539 . S
C2703 H2717 0.958 . S
C2703 H2718 0.961 . S
C2703 H2719 0.960 . S
H2704 C2688 0.931 . S
H2705 C2693 0.929 . S
H2706 C2694 0.960 . S
H2707 C2694 0.962 . S
H2708 C2694 0.960 . S
H2709 C2695 0.961 . S
H2710 C2695 0.961 . S
H2711 C2695 0.961 . S
H2712 C2696 0.931 . S
H2713 C2701 0.930 . S
H2714 C2702 0.956 . S
H2715 C2702 0.961 . S
H2716 C2702 0.961 . S
H2717 C2703 0.958 . S
H2718 C2703 0.961 . S
H2719 C2703 0.960 . S
C2720 C2721 1.391 . S
C2720 C2722 1.394 . S
C2720 H2736 0.931 . S
C2721 C2720 1.391 . S
C2721 C2725 1.376 . S
C2722 C2720 1.394 . S
C2722 C2723 1.369 . S
C2722 C2726 1.531 1_554 S
C2723 C2722 1.369 . S
C2723 C2724 1.410 . S
C2723 C2731 1.503 1_564 S
C2724 C2723 1.410 . S
C2724 C2725 1.392 . S
C2724 C2727 1.511 . S
C2725 C2721 1.376 . S
C2725 C2724 1.392 . S
C2725 H2737 0.929 . S
C2726 C2722 1.531 1_556 S
C2726 H2738 0.960 . S
C2726 H2739 0.962 1_556 S
C2726 H2740 0.960 . S
C2727 C2724 1.511 . S
C2727 H2741 0.973 . S
C2727 H2742 0.961 1_565 S
C2727 H2743 0.961 . S
C2728 C2729 1.370 . S
C2728 C2730 1.363 . S
C2728 H2744 0.931 . S
C2729 C2728 1.370 . S
C2729 C2733 1.408 . S
C2730 C2728 1.363 . S
C2730 C2731 1.370 . S
C2730 C2734 1.524 1_556 S
C2731 C2723 1.503 1_546 S
C2731 C2730 1.370 . S
C2731 C2732 1.398 1_545 S
C2732 C2731 1.398 1_565 S
C2732 C2733 1.390 1_565 S
C2732 C2735 1.558 . S
C2733 C2729 1.408 . S
C2733 C2732 1.390 1_545 S
C2733 H2745 0.930 . S
C2734 C2730 1.524 1_554 S
C2734 H2746 0.956 . S
C2734 H2747 0.961 . S
C2734 H2748 0.961 . S
C2735 C2732 1.558 . S
C2735 H2749 0.958 . S
C2735 H2750 0.961 . S
C2735 H2751 0.960 . S
H2736 C2720 0.931 . S
H2737 C2725 0.929 . S
H2738 C2726 0.960 . S
H2739 C2726 0.962 1_554 S
H2740 C2726 0.960 . S
H2741 C2727 0.973 . S
H2742 C2727 0.961 1_545 S
H2743 C2727 0.961 . S
H2744 C2728 0.931 . S
H2745 C2733 0.930 . S
H2746 C2734 0.956 . S
H2747 C2734 0.961 . S
H2748 C2734 0.961 . S
H2749 C2735 0.958 . S
H2750 C2735 0.961 . S
H2751 C2735 0.960 . S
C2752 C2753 1.391 . S
C2752 C2754 1.394 . S
C2752 H2768 0.931 . S
C2753 C2752 1.391 . S
C2753 C2757 1.376 . S
C2754 C2752 1.394 . S
C2754 C2755 1.369 . S
C2754 C2758 1.531 . S
C2755 C2754 1.369 . S
C2755 C2756 1.410 . S
C2755 C2763 1.503 . S
C2756 C2755 1.410 . S
C2756 C2757 1.392 . S
C2756 C2759 1.511 . S
C2757 C2753 1.376 . S
C2757 C2756 1.392 . S
C2757 H2769 0.929 . S
C2758 C2754 1.531 . S
C2758 H2770 0.960 . S
C2758 H2771 0.962 . S
C2758 H2772 0.960 . S
C2759 C2756 1.511 . S
C2759 H2773 0.961 . S
C2759 H2774 0.961 . S
C2759 H2775 0.961 . S
C2760 C2761 1.370 . S
C2760 C2762 1.363 . S
C2760 H2776 0.931 . S
C2761 C2760 1.370 . S
C2761 C2765 1.408 . S
C2762 C2760 1.363 . S
C2762 C2763 1.370 . S
C2762 C2766 1.524 . S
C2763 C2755 1.503 . S
C2763 C2762 1.370 . S
C2763 C2764 1.403 . S
C2764 C2763 1.403 . S
C2764 C2765 1.404 . S
C2764 C2767 1.539 . S
C2765 C2761 1.408 . S
C2765 C2764 1.404 . S
C2765 H2777 0.930 . S
C2766 C2762 1.524 . S
C2766 H2778 0.956 . S
C2766 H2779 0.961 . S
C2766 H2780 0.961 . S
C2767 C2764 1.539 . S
C2767 H2781 0.958 . S
C2767 H2782 0.961 . S
C2767 H2783 0.960 . S
H2768 C2752 0.931 . S
H2769 C2757 0.929 . S
H2770 C2758 0.960 . S
H2771 C2758 0.962 . S
H2772 C2758 0.960 . S
H2773 C2759 0.961 . S
H2774 C2759 0.961 . S
H2775 C2759 0.961 . S
H2776 C2760 0.931 . S
H2777 C2765 0.930 . S
H2778 C2766 0.956 . S
H2779 C2766 0.961 . S
H2780 C2766 0.961 . S
H2781 C2767 0.958 . S
H2782 C2767 0.961 . S
H2783 C2767 0.960 . S
C2784 C2785 1.391 . S
C2784 C2786 1.394 . S
C2784 H2800 0.931 . S
C2785 C2784 1.391 . S
C2785 C2789 1.376 . S
C2786 C2784 1.394 . S
C2786 C2787 1.369 . S
C2786 C2790 1.531 . S
C2787 C2786 1.369 . S
C2787 C2788 1.410 . S
C2787 C2795 1.503 1_545 S
C2788 C2787 1.410 . S
C2788 C2789 1.392 . S
C2788 C2791 1.511 1_545 S
C2789 C2785 1.376 . S
C2789 C2788 1.392 . S
C2789 H2801 0.929 . S
C2790 C2786 1.531 . S
C2790 H2802 0.960 . S
C2790 H2803 0.962 . S
C2790 H2804 0.960 . S
C2791 C2788 1.511 1_565 S
C2791 H2805 0.961 . S
C2791 H2806 0.961 . S
C2791 H2807 0.961 . S
C2792 C2793 1.370 . S
C2792 C2794 1.363 . S
C2792 H2808 0.931 . S
C2793 C2792 1.370 . S
C2793 C2797 1.408 . S
C2794 C2792 1.363 . S
C2794 C2795 1.370 . S
C2794 C2798 1.524 . S
C2795 C2787 1.503 1_565 S
C2795 C2794 1.370 . S
C2795 C2796 1.403 . S
C2796 C2795 1.403 . S
C2796 C2797 1.404 . S
C2796 C2799 1.539 1_565 S
C2797 C2793 1.408 . S
C2797 C2796 1.404 . S
C2797 H2809 0.930 . S
C2798 C2794 1.524 . S
C2798 H2810 0.956 . S
C2798 H2811 0.961 . S
C2798 H2812 0.961 . S
C2799 C2796 1.539 1_545 S
C2799 H2813 0.958 . S
C2799 H2814 0.961 . S
C2799 H2815 0.960 . S
H2800 C2784 0.931 . S
H2801 C2789 0.929 . S
H2802 C2790 0.960 . S
H2803 C2790 0.962 . S
H2804 C2790 0.960 . S
H2805 C2791 0.961 . S
H2806 C2791 0.961 . S
H2807 C2791 0.961 . S
H2808 C2792 0.931 . S
H2809 C2797 0.930 . S
H2810 C2798 0.956 . S
H2811 C2798 0.961 . S
H2812 C2798 0.961 . S
H2813 C2799 0.958 . S
H2814 C2799 0.961 . S
H2815 C2799 0.960 . S
C2816 C2817 1.391 . S
C2816 C2818 1.394 . S
C2816 H2832 0.931 . S
C2817 C2816 1.391 . S
C2817 C2821 1.376 . S
C2818 C2816 1.394 . S
C2818 C2819 1.369 . S
C2818 C2822 1.531 . S
C2819 C2818 1.369 . S
C2819 C2820 1.410 . S
C2819 C2827 1.503 . S
C2820 C2819 1.410 . S
C2820 C2821 1.392 . S
C2820 C2823 1.511 . S
C2821 C2817 1.376 . S
C2821 C2820 1.392 . S
C2821 H2833 0.929 . S
C2822 C2818 1.531 . S
C2822 H2834 0.960 . S
C2822 H2835 0.962 . S
C2822 H2836 0.960 . S
C2823 C2820 1.511 . S
C2823 H2837 0.961 . S
C2823 H2838 0.961 . S
C2823 H2839 0.961 . S
C2824 C2825 1.370 . S
C2824 C2826 1.363 . S
C2824 H2840 0.931 . S
C2825 C2824 1.370 . S
C2825 C2829 1.408 . S
C2826 C2824 1.363 . S
C2826 C2827 1.370 . S
C2826 C2830 1.524 . S
C2827 C2819 1.503 . S
C2827 C2826 1.370 . S
C2827 C2828 1.403 . S
C2828 C2827 1.403 . S
C2828 C2829 1.404 . S
C2828 C2831 1.539 . S
C2829 C2825 1.408 . S
C2829 C2828 1.404 . S
C2829 H2841 0.930 . S
C2830 C2826 1.524 . S
C2830 H2842 0.956 . S
C2830 H2843 0.961 . S
C2830 H2844 0.961 . S
C2831 C2828 1.539 . S
C2831 H2845 0.958 . S
C2831 H2846 0.961 . S
C2831 H2847 0.960 . S
H2832 C2816 0.931 . S
H2833 C2821 0.929 . S
H2834 C2822 0.960 . S
H2835 C2822 0.962 . S
H2836 C2822 0.960 . S
H2837 C2823 0.961 . S
H2838 C2823 0.961 . S
H2839 C2823 0.961 . S
H2840 C2824 0.931 . S
H2841 C2829 0.930 . S
H2842 C2830 0.956 . S
H2843 C2830 0.961 . S
H2844 C2830 0.961 . S
H2845 C2831 0.958 . S
H2846 C2831 0.961 . S
H2847 C2831 0.960 . S
C2848 C2849 1.391 . S
C2848 C2850 1.394 . S
C2848 H2864 0.931 . S
C2849 C2848 1.391 . S
C2849 C2853 1.376 . S
C2850 C2848 1.394 . S
C2850 C2851 1.369 . S
C2850 C2854 1.531 1_545 S
C2851 C2850 1.369 . S
C2851 C2852 1.410 . S
C2851 C2859 1.503 1_546 S
C2852 C2851 1.410 . S
C2852 C2853 1.392 . S
C2852 C2855 1.511 1_556 S
C2853 C2849 1.376 . S
C2853 C2852 1.392 . S
C2853 H2865 0.929 . S
C2854 C2850 1.531 1_565 S
C2854 H2866 0.960 . S
C2854 H2867 0.962 . S
C2854 H2868 0.960 . S
C2855 C2852 1.511 1_554 S
C2855 H2869 0.961 . S
C2855 H2870 0.961 . S
C2855 H2871 0.961 . S
C2856 C2857 1.370 . S
C2856 C2858 1.363 . S
C2856 H2872 0.931 . S
C2857 C2856 1.370 . S
C2857 C2861 1.408 . S
C2858 C2856 1.363 . S
C2858 C2859 1.370 . S
C2858 C2862 1.524 1_554 S
C2859 C2851 1.503 1_564 S
C2859 C2858 1.370 . S
C2859 C2860 1.403 . S
C2860 C2859 1.403 . S
C2860 C2861 1.404 . S
C2860 C2863 1.539 1_565 S
C2861 C2857 1.408 . S
C2861 C2860 1.404 . S
C2861 H2873 0.930 . S
C2862 C2858 1.524 1_556 S
C2862 H2874 0.956 . S
C2862 H2875 0.905 1_565 S
C2862 H2876 0.961 1_556 S
C2863 C2860 1.539 1_545 S
C2863 H2877 0.958 1_545 S
C2863 H2878 0.961 . S
C2863 H2879 0.960 . S
H2864 C2848 0.931 . S
H2865 C2853 0.929 . S
H2866 C2854 0.960 . S
H2867 C2854 0.962 . S
H2868 C2854 0.960 . S
H2869 C2855 0.961 . S
H2870 C2855 0.961 . S
H2871 C2855 0.961 . S
H2872 C2856 0.931 . S
H2873 C2861 0.930 . S
H2874 C2862 0.956 . S
H2875 C2862 0.905 1_545 S
H2876 C2862 0.961 1_554 S
H2877 C2863 0.958 1_565 S
H2878 C2863 0.961 . S
H2879 C2863 0.960 . S
C2880 C2881 1.391 . S
C2880 C2882 1.394 . S
C2880 H2896 0.931 . S
C2881 C2880 1.391 . S
C2881 C2885 1.376 . S
C2882 C2880 1.394 . S
C2882 C2883 1.369 . S
C2882 C2886 1.531 . S
C2883 C2882 1.369 . S
C2883 C2884 1.410 . S
C2883 C2891 1.503 . S
C2884 C2883 1.410 . S
C2884 C2885 1.392 . S
C2884 C2887 1.511 . S
C2885 C2881 1.376 . S
C2885 C2884 1.392 . S
C2885 H2897 0.929 . S
C2886 C2882 1.531 . S
C2886 H2898 0.960 . S
C2886 H2899 0.962 . S
C2886 H2900 0.960 . S
C2887 C2884 1.511 . S
C2887 H2901 0.961 . S
C2887 H2902 0.961 . S
C2887 H2903 0.961 . S
C2888 C2889 1.370 . S
C2888 C2890 1.363 . S
C2888 H2904 0.931 . S
C2889 C2888 1.370 . S
C2889 C2893 1.408 . S
C2890 C2888 1.363 . S
C2890 C2891 1.370 . S
C2890 C2894 1.524 . S
C2891 C2883 1.503 . S
C2891 C2890 1.370 . S
C2891 C2892 1.403 . S
C2892 C2891 1.403 . S
C2892 C2893 1.404 . S
C2892 C2895 1.539 . S
C2893 C2889 1.408 . S
C2893 C2892 1.404 . S
C2893 H2905 0.930 . S
C2894 C2890 1.524 . S
C2894 H2906 0.956 . S
C2894 H2907 0.961 . S
C2894 H2908 0.961 . S
C2895 C2892 1.539 . S
C2895 H2909 0.958 . S
C2895 H2910 0.961 . S
C2895 H2911 0.960 . S
H2896 C2880 0.931 . S
H2897 C2885 0.929 . S
H2898 C2886 0.960 . S
H2899 C2886 0.962 . S
H2900 C2886 0.960 . S
H2901 C2887 0.961 . S
H2902 C2887 0.961 . S
H2903 C2887 0.961 . S
H2904 C2888 0.931 . S
H2905 C2893 0.930 . S
H2906 C2894 0.956 . S
H2907 C2894 0.961 . S
H2908 C2894 0.961 . S
H2909 C2895 0.958 . S
H2910 C2895 0.961 . S
H2911 C2895 0.960 . S
C2912 C2913 1.391 . S
C2912 C2914 1.394 . S
C2912 H2928 0.931 . S
C2913 C2912 1.391 . S
C2913 C2917 1.376 . S
C2914 C2912 1.394 . S
C2914 C2915 1.369 . S
C2914 C2918 1.531 1_556 S
C2915 C2914 1.369 . S
C2915 C2916 1.410 . S
C2915 C2923 1.503 1_556 S
C2916 C2915 1.410 . S
C2916 C2917 1.392 . S
C2916 C2919 1.511 . S
C2917 C2913 1.376 . S
C2917 C2916 1.392 . S
C2917 H2929 0.929 . S
C2918 C2914 1.531 1_554 S
C2918 H2930 0.960 . S
C2918 H2931 0.962 . S
C2918 H2932 0.960 . S
C2919 C2916 1.511 . S
C2919 H2933 0.961 . S
C2919 H2934 0.961 . S
C2919 H2935 0.961 . S
C2920 C2921 1.370 . S
C2920 C2922 1.363 . S
C2920 H2936 0.931 . S
C2921 C2920 1.370 . S
C2921 C2925 1.408 . S
C2922 C2920 1.363 . S
C2922 C2923 1.370 . S
C2922 C2926 1.524 . S
C2923 C2915 1.503 1_554 S
C2923 C2922 1.370 . S
C2923 C2924 1.403 . S
C2924 C2923 1.403 . S
C2924 C2925 1.404 . S
C2924 C2927 1.539 1_554 S
C2925 C2921 1.408 . S
C2925 C2924 1.404 . S
C2925 H2937 0.930 . S
C2926 C2922 1.524 . S
C2926 H2938 0.956 . S
C2926 H2939 0.961 . S
C2926 H2940 0.961 . S
C2927 C2924 1.539 1_556 S
C2927 H2941 0.958 . S
C2927 H2942 0.961 . S
C2927 H2943 0.960 . S
H2928 C2912 0.931 . S
H2929 C2917 0.929 . S
H2930 C2918 0.960 . S
H2931 C2918 0.962 . S
H2932 C2918 0.960 . S
H2933 C2919 0.961 . S
H2934 C2919 0.961 . S
H2935 C2919 0.961 . S
H2936 C2920 0.931 . S
H2937 C2925 0.930 . S
H2938 C2926 0.956 . S
H2939 C2926 0.961 . S
H2940 C2926 0.961 . S
H2941 C2927 0.958 . S
H2942 C2927 0.961 . S
H2943 C2927 0.960 . S
C2944 C2945 1.391 . S
C2944 C2946 1.394 . S
C2944 H2960 0.931 . S
C2945 C2944 1.391 . S
C2945 C2949 1.376 . S
C2946 C2944 1.394 . S
C2946 C2947 1.369 . S
C2946 C2950 1.531 . S
C2947 C2946 1.369 . S
C2947 C2948 1.410 . S
C2947 C2955 1.503 . S
C2948 C2947 1.410 . S
C2948 C2949 1.392 . S
C2948 C2951 1.511 . S
C2949 C2945 1.376 . S
C2949 C2948 1.392 . S
C2949 H2961 0.929 . S
C2950 C2946 1.531 . S
C2950 H2962 0.960 . S
C2950 H2963 0.962 . S
C2950 H2964 0.960 . S
C2951 C2948 1.511 . S
C2951 H2965 0.961 . S
C2951 H2966 0.961 . S
C2951 H2967 0.961 . S
C2952 C2953 1.370 . S
C2952 C2954 1.363 . S
C2952 H2968 0.931 . S
C2953 C2952 1.370 . S
C2953 C2957 1.408 . S
C2954 C2952 1.363 . S
C2954 C2955 1.370 . S
C2954 C2958 1.524 . S
C2955 C2947 1.503 . S
C2955 C2954 1.370 . S
C2955 C2956 1.403 . S
C2956 C2955 1.403 . S
C2956 C2957 1.404 . S
C2956 C2959 1.539 . S
C2957 C2953 1.408 . S
C2957 C2956 1.404 . S
C2957 H2969 0.930 . S
C2958 C2954 1.524 . S
C2958 H2970 0.956 . S
C2958 H2971 0.961 . S
C2958 H2972 0.961 . S
C2959 C2956 1.539 . S
C2959 H2973 0.958 . S
C2959 H2974 0.961 . S
C2959 H2975 0.960 . S
H2960 C2944 0.931 . S
H2961 C2949 0.929 . S
H2962 C2950 0.960 . S
H2963 C2950 0.962 . S
H2964 C2950 0.960 . S
H2965 C2951 0.961 . S
H2966 C2951 0.961 . S
H2967 C2951 0.961 . S
H2968 C2952 0.931 . S
H2969 C2957 0.930 . S
H2970 C2958 0.956 . S
H2971 C2958 0.961 . S
H2972 C2958 0.961 . S
H2973 C2959 0.958 . S
H2974 C2959 0.961 . S
H2975 C2959 0.960 . S
C2976 C2977 1.391 . S
C2976 C2978 1.394 . S
C2976 H2992 0.931 . S
C2977 C2976 1.391 . S
C2977 C2981 1.376 . S
C2978 C2976 1.394 . S
C2978 C2979 1.369 . S
C2978 C2982 1.531 . S
C2979 C2978 1.369 . S
C2979 C2980 1.410 . S
C2979 C2987 1.503 . S
C2980 C2979 1.410 . S
C2980 C2981 1.392 . S
C2980 C2983 1.511 . S
C2981 C2977 1.376 . S
C2981 C2980 1.392 . S
C2981 H2993 0.929 . S
C2982 C2978 1.531 . S
C2982 H2994 0.960 . S
C2982 H2995 0.962 . S
C2982 H2996 0.960 . S
C2983 C2980 1.511 . S
C2983 H2997 0.961 . S
C2983 H2998 0.961 . S
C2983 H2999 0.961 . S
C2984 C2985 1.370 . S
C2984 C2986 1.363 . S
C2984 H3000 0.931 . S
C2985 C2984 1.370 . S
C2985 C2989 1.408 . S
C2986 C2984 1.363 . S
C2986 C2987 1.370 . S
C2986 C2990 1.524 . S
C2987 C2979 1.503 . S
C2987 C2986 1.370 . S
C2987 C2988 1.403 . S
C2988 C2987 1.403 . S
C2988 C2989 1.404 . S
C2988 C2991 1.539 . S
C2989 C2985 1.408 . S
C2989 C2988 1.404 . S
C2989 H3001 0.930 . S
C2990 C2986 1.524 . S
C2990 H3002 0.956 . S
C2990 H3003 0.961 . S
C2990 H3004 0.961 . S
C2991 C2988 1.539 . S
C2991 H3005 0.958 . S
C2991 H3006 0.961 . S
C2991 H3007 0.960 . S
H2992 C2976 0.931 . S
H2993 C2981 0.929 . S
H2994 C2982 0.960 . S
H2995 C2982 0.962 . S
H2996 C2982 0.960 . S
H2997 C2983 0.961 . S
H2998 C2983 0.961 . S
H2999 C2983 0.961 . S
H3000 C2984 0.931 . S
H3001 C2989 0.930 . S
H3002 C2990 0.956 . S
H3003 C2990 0.961 . S
H3004 C2990 0.961 . S
H3005 C2991 0.958 . S
H3006 C2991 0.961 . S
H3007 C2991 0.960 . S
C3008 C3009 1.391 . S
C3008 C3010 1.394 . S
C3008 H3024 0.931 . S
C3009 C3008 1.391 . S
C3009 C3013 1.376 . S
C3010 C3008 1.394 . S
C3010 C3011 1.369 . S
C3010 C3014 1.531 . S
C3011 C3010 1.369 . S
C3011 C3012 1.410 . S
C3011 C3019 1.503 . S
C3012 C3011 1.410 . S
C3012 C3013 1.392 . S
C3012 C3015 1.511 . S
C3013 C3009 1.376 . S
C3013 C3012 1.392 . S
C3013 H3025 0.929 . S
C3014 C3010 1.531 . S
C3014 H3026 0.960 . S
C3014 H3027 0.962 . S
C3014 H3028 0.960 . S
C3015 C3012 1.511 . S
C3015 H3029 0.961 . S
C3015 H3030 0.961 . S
C3015 H3031 0.961 . S
C3016 C3017 1.370 . S
C3016 C3018 1.363 . S
C3016 H3032 0.931 . S
C3017 C3016 1.370 . S
C3017 C3021 1.408 . S
C3018 C3016 1.363 . S
C3018 C3019 1.370 . S
C3018 C3022 1.524 . S
C3019 C3011 1.503 . S
C3019 C3018 1.370 . S
C3019 C3020 1.403 . S
C3020 C3019 1.403 . S
C3020 C3021 1.404 . S
C3020 C3023 1.539 . S
C3021 C3017 1.408 . S
C3021 C3020 1.404 . S
C3021 H3033 0.930 . S
C3022 C3018 1.524 . S
C3022 H3034 0.956 . S
C3022 H3035 0.961 . S
C3022 H3036 0.961 . S
C3023 C3020 1.539 . S
C3023 H3037 0.958 . S
C3023 H3038 0.961 . S
C3023 H3039 0.960 . S
H3024 C3008 0.931 . S
H3025 C3013 0.929 . S
H3026 C3014 0.960 . S
H3027 C3014 0.962 . S
H3028 C3014 0.960 . S
H3029 C3015 0.961 . S
H3030 C3015 0.961 . S
H3031 C3015 0.961 . S
H3032 C3016 0.931 . S
H3033 C3021 0.930 . S
H3034 C3022 0.956 . S
H3035 C3022 0.961 . S
H3036 C3022 0.961 . S
H3037 C3023 0.958 . S
H3038 C3023 0.961 . S
H3039 C3023 0.960 . S
C3040 C3041 1.391 . S
C3040 C3042 1.394 . S
C3040 H3056 0.931 . S
C3041 C3040 1.391 . S
C3041 C3045 1.376 . S
C3042 C3040 1.394 . S
C3042 C3043 1.369 . S
C3042 C3046 1.531 . S
C3043 C3042 1.369 . S
C3043 C3044 1.410 . S
C3043 C3051 1.503 1_556 S
C3044 C3043 1.410 . S
C3044 C3045 1.392 . S
C3044 C3047 1.511 1_556 S
C3045 C3041 1.376 . S
C3045 C3044 1.392 . S
C3045 H3057 0.929 . S
C3046 C3042 1.531 . S
C3046 H3058 0.960 . S
C3046 H3059 0.962 . S
C3046 H3060 0.960 . S
C3047 C3044 1.511 1_554 S
C3047 H3061 0.961 . S
C3047 H3062 0.961 . S
C3047 H3063 0.961 . S
C3048 C3049 1.370 . S
C3048 C3050 1.363 . S
C3048 H3064 0.931 . S
C3049 C3048 1.370 . S
C3049 C3053 1.408 . S
C3050 C3048 1.363 . S
C3050 C3051 1.370 . S
C3050 C3054 1.524 1_554 S
C3051 C3043 1.503 1_554 S
C3051 C3050 1.370 . S
C3051 C3052 1.403 . S
C3052 C3051 1.403 . S
C3052 C3053 1.404 . S
C3052 C3055 1.539 . S
C3053 C3049 1.408 . S
C3053 C3052 1.404 . S
C3053 H3065 0.930 . S
C3054 C3050 1.524 1_556 S
C3054 H3066 0.956 . S
C3054 H3067 0.961 . S
C3054 H3068 0.961 . S
C3055 C3052 1.539 . S
C3055 H3069 0.958 . S
C3055 H3070 0.961 . S
C3055 H3071 0.960 . S
H3056 C3040 0.931 . S
H3057 C3045 0.929 . S
H3058 C3046 0.960 . S
H3059 C3046 0.962 . S
H3060 C3046 0.960 . S
H3061 C3047 0.961 . S
H3062 C3047 0.961 . S
H3063 C3047 0.961 . S
H3064 C3048 0.931 . S
H3065 C3053 0.930 . S
H3066 C3054 0.956 . S
H3067 C3054 0.961 . S
H3068 C3054 0.961 . S
H3069 C3055 0.958 . S
H3070 C3055 0.961 . S
H3071 C3055 0.960 . S
C3072 C3073 1.391 . S
C3072 C3074 1.394 . S
C3072 H3088 0.931 . S
C3073 C3072 1.391 . S
C3073 C3077 1.376 . S
C3074 C3072 1.394 . S
C3074 C3075 1.369 . S
C3074 C3078 1.531 . S
C3075 C3074 1.369 . S
C3075 C3076 1.410 . S
C3075 C3083 1.503 . S
C3076 C3075 1.410 . S
C3076 C3077 1.392 . S
C3076 C3079 1.511 . S
C3077 C3073 1.376 . S
C3077 C3076 1.392 . S
C3077 H3089 0.929 . S
C3078 C3074 1.531 . S
C3078 H3090 0.960 . S
C3078 H3091 0.962 . S
C3078 H3092 0.960 . S
C3079 C3076 1.511 . S
C3079 H3093 0.961 . S
C3079 H3094 0.961 . S
C3079 H3095 0.961 . S
C3080 C3081 1.370 . S
C3080 C3082 1.363 . S
C3080 H3096 0.931 . S
C3081 C3080 1.370 . S
C3081 C3085 1.408 . S
C3082 C3080 1.363 . S
C3082 C3083 1.370 . S
C3082 C3086 1.524 . S
C3083 C3075 1.503 . S
C3083 C3082 1.370 . S
C3083 C3084 1.403 . S
C3084 C3083 1.403 . S
C3084 C3085 1.404 . S
C3084 C3087 1.539 . S
C3085 C3081 1.408 . S
C3085 C3084 1.404 . S
C3085 H3097 0.930 . S
C3086 C3082 1.524 . S
C3086 H3098 0.956 . S
C3086 H3099 0.961 . S
C3086 H3100 0.961 . S
C3087 C3084 1.539 . S
C3087 H3101 0.958 . S
C3087 H3102 0.961 . S
C3087 H3103 0.960 . S
H3088 C3072 0.931 . S
H3089 C3077 0.929 . S
H3090 C3078 0.960 . S
H3091 C3078 0.962 . S
H3092 C3078 0.960 . S
H3093 C3079 0.961 . S
H3094 C3079 0.961 . S
H3095 C3079 0.961 . S
H3096 C3080 0.931 . S
H3097 C3085 0.930 . S
H3098 C3086 0.956 . S
H3099 C3086 0.961 . S
H3100 C3086 0.961 . S
H3101 C3087 0.958 . S
H3102 C3087 0.961 . S
H3103 C3087 0.960 . S
C3104 C3105 1.391 . S
C3104 C3106 1.394 . S
C3104 H3120 0.931 . S
C3105 C3104 1.391 . S
C3105 C3109 1.376 . S
C3106 C3104 1.394 . S
C3106 C3107 1.369 . S
C3106 C3110 1.531 . S
C3107 C3106 1.369 . S
C3107 C3108 1.410 . S
C3107 C3115 1.503 . S
C3108 C3107 1.410 . S
C3108 C3109 1.392 . S
C3108 C3111 1.511 . S
C3109 C3105 1.376 . S
C3109 C3108 1.392 . S
C3109 H3121 0.929 . S
C3110 C3106 1.531 . S
C3110 H3122 0.960 . S
C3110 H3123 0.962 . S
C3110 H3124 0.960 . S
C3111 C3108 1.511 . S
C3111 H3125 0.961 . S
C3111 H3126 0.961 . S
C3111 H3127 0.961 . S
C3112 C3113 1.370 . S
C3112 C3114 1.363 . S
C3112 H3128 0.931 . S
C3113 C3112 1.370 . S
C3113 C3117 1.408 . S
C3114 C3112 1.363 . S
C3114 C3115 1.370 . S
C3114 C3118 1.524 . S
C3115 C3107 1.503 . S
C3115 C3114 1.370 . S
C3115 C3116 1.403 . S
C3116 C3115 1.403 . S
C3116 C3117 1.404 . S
C3116 C3119 1.539 . S
C3117 C3113 1.408 . S
C3117 C3116 1.404 . S
C3117 H3129 0.930 . S
C3118 C3114 1.524 . S
C3118 H3130 0.956 . S
C3118 H3131 0.961 . S
C3118 H3132 0.961 . S
C3119 C3116 1.539 . S
C3119 H3133 0.958 . S
C3119 H3134 0.961 . S
C3119 H3135 0.960 . S
H3120 C3104 0.931 . S
H3121 C3109 0.929 . S
H3122 C3110 0.960 . S
H3123 C3110 0.962 . S
H3124 C3110 0.960 . S
H3125 C3111 0.961 . S
H3126 C3111 0.961 . S
H3127 C3111 0.961 . S
H3128 C3112 0.931 . S
H3129 C3117 0.930 . S
H3130 C3118 0.956 . S
H3131 C3118 0.961 . S
H3132 C3118 0.961 . S
H3133 C3119 0.958 . S
H3134 C3119 0.961 . S
H3135 C3119 0.960 . S
C3136 C3137 1.391 . S
C3136 C3138 1.394 . S
C3136 H3152 0.931 . S
C3137 C3136 1.391 . S
C3137 C3141 1.376 1_556 S
C3138 C3136 1.394 . S
C3138 C3139 1.369 . S
C3138 C3142 1.531 . S
C3139 C3138 1.369 . S
C3139 C3140 1.410 . S
C3139 C3147 1.503 . S
C3140 C3139 1.410 . S
C3140 C3141 1.392 1_556 S
C3140 C3143 1.511 1_556 S
C3141 C3137 1.376 1_554 S
C3141 C3140 1.392 1_554 S
C3141 H3153 0.929 . S
C3142 C3138 1.531 . S
C3142 H3154 0.960 . S
C3142 H3155 0.962 . S
C3142 H3156 0.960 . S
C3143 C3140 1.511 1_554 S
C3143 H3157 0.961 . S
C3143 H3158 0.961 1_554 S
C3143 H3159 0.961 . S
C3144 C3145 1.370 . S
C3144 C3146 1.363 . S
C3144 H3160 0.931 . S
C3145 C3144 1.370 . S
C3145 C3149 1.408 . S
C3146 C3144 1.363 . S
C3146 C3147 1.370 . S
C3146 C3150 1.524 . S
C3147 C3139 1.503 . S
C3147 C3146 1.370 . S
C3147 C3148 1.403 . S
C3148 C3147 1.403 . S
C3148 C3149 1.404 . S
C3148 C3151 1.539 . S
C3149 C3145 1.408 . S
C3149 C3148 1.404 . S
C3149 H3161 0.930 . S
C3150 C3146 1.524 . S
C3150 H3162 0.956 . S
C3150 H3163 0.961 . S
C3150 H3164 0.961 . S
C3151 C3148 1.539 . S
C3151 H3165 0.958 . S
C3151 H3166 0.961 . S
C3151 H3167 0.960 . S
H3152 C3136 0.931 . S
H3153 C3141 0.929 . S
H3154 C3142 0.960 . S
H3155 C3142 0.962 . S
H3156 C3142 0.960 . S
H3157 C3143 0.961 . S
H3158 C3143 0.961 1_556 S
H3159 C3143 0.961 . S
H3160 C3144 0.931 . S
H3161 C3149 0.930 . S
H3162 C3150 0.956 . S
H3163 C3150 0.961 . S
H3164 C3150 0.961 . S
H3165 C3151 0.958 . S
H3166 C3151 0.961 . S
H3167 C3151 0.960 . S
C3168 C3169 1.391 . S
C3168 C3170 1.394 . S
C3168 H3184 0.931 . S
C3169 C3168 1.391 . S
C3169 C3173 1.376 . S
C3170 C3168 1.394 . S
C3170 C3171 1.369 . S
C3170 C3174 1.531 . S
C3171 C3170 1.369 . S
C3171 C3172 1.410 . S
C3171 C3179 1.503 . S
C3172 C3171 1.410 . S
C3172 C3173 1.392 . S
C3172 C3175 1.511 . S
C3173 C3169 1.376 . S
C3173 C3172 1.392 . S
C3173 H3185 0.929 . S
C3174 C3170 1.531 . S
C3174 H3186 0.960 . S
C3174 H3187 0.962 . S
C3174 H3188 0.960 . S
C3175 C3172 1.511 . S
C3175 H3189 0.961 . S
C3175 H3190 0.961 . S
C3175 H3191 0.961 . S
C3176 C3177 1.370 . S
C3176 C3178 1.363 . S
C3176 H3192 0.931 . S
C3177 C3176 1.370 . S
C3177 C3181 1.408 . S
C3178 C3176 1.363 . S
C3178 C3179 1.370 . S
C3178 C3182 1.524 . S
C3179 C3171 1.503 . S
C3179 C3178 1.370 . S
C3179 C3180 1.403 . S
C3180 C3179 1.403 . S
C3180 C3181 1.404 . S
C3180 C3183 1.539 . S
C3181 C3177 1.408 . S
C3181 C3180 1.404 . S
C3181 H3193 0.930 . S
C3182 C3178 1.524 . S
C3182 H3194 0.956 . S
C3182 H3195 0.961 . S
C3182 H3196 0.961 . S
C3183 C3180 1.539 . S
C3183 H3197 0.958 . S
C3183 H3198 0.961 . S
C3183 H3199 0.960 . S
H3184 C3168 0.931 . S
H3185 C3173 0.929 . S
H3186 C3174 0.960 . S
H3187 C3174 0.962 . S
H3188 C3174 0.960 . S
H3189 C3175 0.961 . S
H3190 C3175 0.961 . S
H3191 C3175 0.961 . S
H3192 C3176 0.931 . S
H3193 C3181 0.930 . S
H3194 C3182 0.956 . S
H3195 C3182 0.961 . S
H3196 C3182 0.961 . S
H3197 C3183 0.958 . S
H3198 C3183 0.961 . S
H3199 C3183 0.960 . S
C3200 C3201 1.391 . S
C3200 C3202 1.394 . S
C3200 H3216 0.931 . S
C3201 C3200 1.391 . S
C3201 C3205 1.376 . S
C3202 C3200 1.394 . S
C3202 C3203 1.369 . S
C3202 C3206 1.531 . S
C3203 C3202 1.369 . S
C3203 C3204 1.410 . S
C3203 C3211 1.503 . S
C3204 C3203 1.410 . S
C3204 C3205 1.392 . S
C3204 C3207 1.511 . S
C3205 C3201 1.376 . S
C3205 C3204 1.392 . S
C3205 H3217 0.929 . S
C3206 C3202 1.531 . S
C3206 H3218 0.960 . S
C3206 H3219 0.962 . S
C3206 H3220 0.960 . S
C3207 C3204 1.511 . S
C3207 H3221 0.961 . S
C3207 H3222 0.961 . S
C3207 H3223 0.961 . S
C3208 C3209 1.370 . S
C3208 C3210 1.363 . S
C3208 H3224 0.931 . S
C3209 C3208 1.370 . S
C3209 C3213 1.408 . S
C3210 C3208 1.363 . S
C3210 C3211 1.370 . S
C3210 C3214 1.524 . S
C3211 C3203 1.503 . S
C3211 C3210 1.370 . S
C3211 C3212 1.403 . S
C3212 C3211 1.403 . S
C3212 C3213 1.404 . S
C3212 C3215 1.539 . S
C3213 C3209 1.408 . S
C3213 C3212 1.404 . S
C3213 H3225 0.930 . S
C3214 C3210 1.524 . S
C3214 H3226 0.956 . S
C3214 H3227 0.961 . S
C3214 H3228 0.961 . S
C3215 C3212 1.539 . S
C3215 H3229 0.958 . S
C3215 H3230 0.961 . S
C3215 H3231 0.960 . S
H3216 C3200 0.931 . S
H3217 C3205 0.929 . S
H3218 C3206 0.960 . S
H3219 C3206 0.962 . S
H3220 C3206 0.960 . S
H3221 C3207 0.961 . S
H3222 C3207 0.961 . S
H3223 C3207 0.961 . S
H3224 C3208 0.931 . S
H3225 C3213 0.930 . S
H3226 C3214 0.956 . S
H3227 C3214 0.961 . S
H3228 C3214 0.961 . S
H3229 C3215 0.958 . S
H3230 C3215 0.961 . S
H3231 C3215 0.960 . S
C3232 C3233 1.391 . S
C3232 C3234 1.394 . S
C3232 H3248 0.931 . S
C3233 C3232 1.391 . S
C3233 C3237 1.376 . S
C3234 C3232 1.394 . S
C3234 C3235 1.369 . S
C3234 C3238 1.531 . S
C3235 C3234 1.369 . S
C3235 C3236 1.410 . S
C3235 C3243 1.503 . S
C3236 C3235 1.410 . S
C3236 C3237 1.392 . S
C3236 C3239 1.511 . S
C3237 C3233 1.376 . S
C3237 C3236 1.392 . S
C3237 H3249 0.929 . S
C3238 C3234 1.531 . S
C3238 H3250 0.960 . S
C3238 H3251 0.962 . S
C3238 H3252 0.960 . S
C3239 C3236 1.511 . S
C3239 H3253 0.961 . S
C3239 H3254 0.961 . S
C3239 H3255 0.961 . S
C3240 C3241 1.370 . S
C3240 C3242 1.363 . S
C3240 H3256 0.931 . S
C3241 C3240 1.370 . S
C3241 C3245 1.408 . S
C3242 C3240 1.363 . S
C3242 C3243 1.370 . S
C3242 C3246 1.524 . S
C3243 C3235 1.503 . S
C3243 C3242 1.370 . S
C3243 C3244 1.403 . S
C3244 C3243 1.403 . S
C3244 C3245 1.404 . S
C3244 C3247 1.539 . S
C3245 C3241 1.408 . S
C3245 C3244 1.404 . S
C3245 H3257 0.930 . S
C3246 C3242 1.524 . S
C3246 H3258 0.956 . S
C3246 H3259 0.961 . S
C3246 H3260 0.961 . S
C3247 C3244 1.539 . S
C3247 H3261 0.958 . S
C3247 H3262 0.961 . S
C3247 H3263 0.960 . S
H3248 C3232 0.931 . S
H3249 C3237 0.929 . S
H3250 C3238 0.960 . S
H3251 C3238 0.962 . S
H3252 C3238 0.960 . S
H3253 C3239 0.961 . S
H3254 C3239 0.961 . S
H3255 C3239 0.961 . S
H3256 C3240 0.931 . S
H3257 C3245 0.930 . S
H3258 C3246 0.956 . S
H3259 C3246 0.961 . S
H3260 C3246 0.961 . S
H3261 C3247 0.958 . S
H3262 C3247 0.961 . S
H3263 C3247 0.960 . S
C3264 C3265 1.391 . S
C3264 C3266 1.394 . S
C3264 H3280 0.931 1_554 S
C3265 C3264 1.391 . S
C3265 C3269 1.376 . S
C3266 C3264 1.394 . S
C3266 C3267 1.369 . S
C3266 C3270 1.531 . S
C3267 C3266 1.369 . S
C3267 C3268 1.410 . S
C3267 C3275 1.503 . S
C3268 C3267 1.410 . S
C3268 C3269 1.392 . S
C3268 C3271 1.511 . S
C3269 C3265 1.376 . S
C3269 C3268 1.392 . S
C3269 H3281 0.929 . S
C3270 C3266 1.531 . S
C3270 H3282 0.960 . S
C3270 H3283 0.962 . S
C3270 H3284 0.970 . S
C3271 C3268 1.511 . S
C3271 H3285 0.961 . S
C3271 H3286 0.961 . S
C3271 H3287 0.961 . S
C3272 C3273 1.370 . S
C3272 C3274 1.363 . S
C3272 H3288 0.931 . S
C3273 C3272 1.370 . S
C3273 C3277 1.408 . S
C3274 C3272 1.363 . S
C3274 C3275 1.370 . S
C3274 C3278 1.524 . S
C3275 C3267 1.503 . S
C3275 C3274 1.370 . S
C3275 C3276 1.403 . S
C3276 C3275 1.403 . S
C3276 C3277 1.404 . S
C3276 C3279 1.539 . S
C3277 C3273 1.408 . S
C3277 C3276 1.404 . S
C3277 H3289 0.930 . S
C3278 C3274 1.524 . S
C3278 H3290 0.956 . S
C3278 H3291 0.961 . S
C3278 H3292 0.961 . S
C3279 C3276 1.539 . S
C3279 H3293 0.958 1_554 S
C3279 H3294 0.961 . S
C3279 H3295 0.960 . S
H3280 C3264 0.931 1_556 S
H3281 C3269 0.929 . S
H3282 C3270 0.960 . S
H3283 C3270 0.962 . S
H3284 C3270 0.970 . S
H3285 C3271 0.961 . S
H3286 C3271 0.961 . S
H3287 C3271 0.961 . S
H3288 C3272 0.931 . S
H3289 C3277 0.930 . S
H3290 C3278 0.956 . S
H3291 C3278 0.961 . S
H3292 C3278 0.961 . S
H3293 C3279 0.958 1_556 S
H3294 C3279 0.961 . S
H3295 C3279 0.960 . S
C3296 C3297 1.391 . S
C3296 C3298 1.394 . S
C3296 H3312 0.931 . S
C3297 C3296 1.391 . S
C3297 C3301 1.376 . S
C3298 C3296 1.394 . S
C3298 C3299 1.369 . S
C3298 C3302 1.531 . S
C3299 C3298 1.369 . S
C3299 C3300 1.410 . S
C3299 C3307 1.503 . S
C3300 C3299 1.410 . S
C3300 C3301 1.392 . S
C3300 C3303 1.511 . S
C3301 C3297 1.376 . S
C3301 C3300 1.392 . S
C3301 H3313 0.929 . S
C3302 C3298 1.531 . S
C3302 H3314 0.960 . S
C3302 H3315 0.962 . S
C3302 H3316 0.960 . S
C3303 C3300 1.511 . S
C3303 H3317 0.961 . S
C3303 H3318 0.961 . S
C3303 H3319 0.961 . S
C3304 C3305 1.370 . S
C3304 C3306 1.363 . S
C3304 H3320 0.931 . S
C3305 C3304 1.370 . S
C3305 C3309 1.408 . S
C3306 C3304 1.363 . S
C3306 C3307 1.370 . S
C3306 C3310 1.524 . S
C3307 C3299 1.503 . S
C3307 C3306 1.370 . S
C3307 C3308 1.403 . S
C3308 C3307 1.403 . S
C3308 C3309 1.404 . S
C3308 C3311 1.539 . S
C3309 C3305 1.408 . S
C3309 C3308 1.404 . S
C3309 H3321 0.930 . S
C3310 C3306 1.524 . S
C3310 H3322 0.956 . S
C3310 H3323 0.961 . S
C3310 H3324 0.961 . S
C3311 C3308 1.539 . S
C3311 H3325 0.958 . S
C3311 H3326 0.961 . S
C3311 H3327 0.960 . S
H3312 C3296 0.931 . S
H3313 C3301 0.929 . S
H3314 C3302 0.960 . S
H3315 C3302 0.962 . S
H3316 C3302 0.960 . S
H3317 C3303 0.961 . S
H3318 C3303 0.961 . S
H3319 C3303 0.961 . S
H3320 C3304 0.931 . S
H3321 C3309 0.930 . S
H3322 C3310 0.956 . S
H3323 C3310 0.961 . S
H3324 C3310 0.961 . S
H3325 C3311 0.958 . S
H3326 C3311 0.961 . S
H3327 C3311 0.960 . S
C3328 C3329 1.391 . S
C3328 C3330 1.394 . S
C3328 H3344 0.931 . S
C3329 C3328 1.391 . S
C3329 C3333 1.376 . S
C3330 C3328 1.394 . S
C3330 C3331 1.369 . S
C3330 C3334 1.531 . S
C3331 C3330 1.369 . S
C3331 C3332 1.410 . S
C3331 C3339 1.503 . S
C3332 C3331 1.410 . S
C3332 C3333 1.392 . S
C3332 C3335 1.511 . S
C3333 C3329 1.376 . S
C3333 C3332 1.392 . S
C3333 H3345 0.929 . S
C3334 C3330 1.531 . S
C3334 H3346 0.960 . S
C3334 H3347 0.962 . S
C3334 H3348 0.960 . S
C3335 C3332 1.511 . S
C3335 H3349 0.961 . S
C3335 H3350 0.961 . S
C3335 H3351 0.961 . S
C3336 C3337 1.370 . S
C3336 C3338 1.363 . S
C3336 H3352 0.931 . S
C3337 C3336 1.370 . S
C3337 C3341 1.408 . S
C3338 C3336 1.363 . S
C3338 C3339 1.370 . S
C3338 C3342 1.524 . S
C3339 C3331 1.503 . S
C3339 C3338 1.370 . S
C3339 C3340 1.403 . S
C3340 C3339 1.403 . S
C3340 C3341 1.404 . S
C3340 C3343 1.539 . S
C3341 C3337 1.408 . S
C3341 C3340 1.404 . S
C3341 H3353 0.930 . S
C3342 C3338 1.524 . S
C3342 H3354 0.956 . S
C3342 H3355 0.961 . S
C3342 H3356 0.961 . S
C3343 C3340 1.539 . S
C3343 H3357 0.958 . S
C3343 H3358 0.961 . S
C3343 H3359 0.960 . S
H3344 C3328 0.931 . S
H3345 C3333 0.929 . S
H3346 C3334 0.960 . S
H3347 C3334 0.962 . S
H3348 C3334 0.960 . S
H3349 C3335 0.961 . S
H3350 C3335 0.961 . S
H3351 C3335 0.961 . S
H3352 C3336 0.931 . S
H3353 C3341 0.930 . S
H3354 C3342 0.956 . S
H3355 C3342 0.961 . S
H3356 C3342 0.961 . S
H3357 C3343 0.958 . S
H3358 C3343 0.961 . S
H3359 C3343 0.960 . S
C3360 C3361 1.391 . S
C3360 C3362 1.394 . S
C3360 H3376 0.931 . S
C3361 C3360 1.391 . S
C3361 C3365 1.376 . S
C3362 C3360 1.394 . S
C3362 C3363 1.369 . S
C3362 C3366 1.531 . S
C3363 C3362 1.369 . S
C3363 C3364 1.410 . S
C3363 C3371 1.503 . S
C3364 C3363 1.410 . S
C3364 C3365 1.392 . S
C3364 C3367 1.511 . S
C3365 C3361 1.376 . S
C3365 C3364 1.392 . S
C3365 H3377 0.929 . S
C3366 C3362 1.531 . S
C3366 H3378 0.960 . S
C3366 H3379 0.962 . S
C3366 H3380 0.960 . S
C3367 C3364 1.511 . S
C3367 H3381 0.961 . S
C3367 H3382 0.961 . S
C3367 H3383 0.961 . S
C3368 C3369 1.370 . S
C3368 C3370 1.363 . S
C3368 H3384 0.931 . S
C3369 C3368 1.370 . S
C3369 C3373 1.408 . S
C3370 C3368 1.363 . S
C3370 C3371 1.370 . S
C3370 C3374 1.524 . S
C3371 C3363 1.503 . S
C3371 C3370 1.370 . S
C3371 C3372 1.403 . S
C3372 C3371 1.403 . S
C3372 C3373 1.404 . S
C3372 C3375 1.539 . S
C3373 C3369 1.408 . S
C3373 C3372 1.404 . S
C3373 H3385 0.930 . S
C3374 C3370 1.524 . S
C3374 H3386 0.956 . S
C3374 H3387 0.961 . S
C3374 H3388 0.961 . S
C3375 C3372 1.539 . S
C3375 H3389 0.958 . S
C3375 H3390 0.961 . S
C3375 H3391 0.960 . S
H3376 C3360 0.931 . S
H3377 C3365 0.929 . S
H3378 C3366 0.960 . S
H3379 C3366 0.962 . S
H3380 C3366 0.960 . S
H3381 C3367 0.961 . S
H3382 C3367 0.961 . S
H3383 C3367 0.961 . S
H3384 C3368 0.931 . S
H3385 C3373 0.930 . S
H3386 C3374 0.956 . S
H3387 C3374 0.961 . S
H3388 C3374 0.961 . S
H3389 C3375 0.958 . S
H3390 C3375 0.961 . S
H3391 C3375 0.960 . S
C3392 C3393 1.391 . S
C3392 C3394 1.394 . S
C3392 H3408 0.931 . S
C3393 C3392 1.391 . S
C3393 C3397 1.376 . S
C3394 C3392 1.394 . S
C3394 C3395 1.369 . S
C3394 C3398 1.531 . S
C3395 C3394 1.369 . S
C3395 C3396 1.410 . S
C3395 C3403 1.503 . S
C3396 C3395 1.410 . S
C3396 C3397 1.392 . S
C3396 C3399 1.511 . S
C3397 C3393 1.376 . S
C3397 C3396 1.392 . S
C3397 H3409 0.929 . S
C3398 C3394 1.531 . S
C3398 H3410 0.960 . S
C3398 H3411 0.962 . S
C3398 H3412 0.960 . S
C3399 C3396 1.511 . S
C3399 H3413 0.961 . S
C3399 H3414 0.961 . S
C3399 H3415 0.961 . S
C3400 C3401 1.370 . S
C3400 C3402 1.363 . S
C3400 H3416 0.931 . S
C3401 C3400 1.370 . S
C3401 C3405 1.408 . S
C3402 C3400 1.363 . S
C3402 C3403 1.370 . S
C3402 C3406 1.524 . S
C3403 C3395 1.503 . S
C3403 C3402 1.370 . S
C3403 C3404 1.403 . S
C3404 C3403 1.403 . S
C3404 C3405 1.404 . S
C3404 C3407 1.539 . S
C3405 C3401 1.408 . S
C3405 C3404 1.404 . S
C3405 H3417 0.930 . S
C3406 C3402 1.524 . S
C3406 H3418 0.956 . S
C3406 H3419 0.961 . S
C3406 H3420 0.961 . S
C3407 C3404 1.539 . S
C3407 H3421 0.958 . S
C3407 H3422 0.961 . S
C3407 H3423 0.960 . S
H3408 C3392 0.931 . S
H3409 C3397 0.929 . S
H3410 C3398 0.960 . S
H3411 C3398 0.962 . S
H3412 C3398 0.960 . S
H3413 C3399 0.961 . S
H3414 C3399 0.961 . S
H3415 C3399 0.961 . S
H3416 C3400 0.931 . S
H3417 C3405 0.930 . S
H3418 C3406 0.956 . S
H3419 C3406 0.961 . S
H3420 C3406 0.961 . S
H3421 C3407 0.958 . S
H3422 C3407 0.961 . S
H3423 C3407 0.960 . S
C3424 C3425 1.391 . S
C3424 C3426 1.394 . S
C3424 H3440 0.931 . S
C3425 C3424 1.391 . S
C3425 C3429 1.376 . S
C3426 C3424 1.394 . S
C3426 C3427 1.369 . S
C3426 C3430 1.531 . S
C3427 C3426 1.369 . S
C3427 C3428 1.410 . S
C3427 C3435 1.503 . S
C3428 C3427 1.410 . S
C3428 C3429 1.392 . S
C3428 C3431 1.511 . S
C3429 C3425 1.376 . S
C3429 C3428 1.392 . S
C3429 H3441 0.929 . S
C3430 C3426 1.531 . S
C3430 H3442 0.960 . S
C3430 H3443 0.962 . S
C3430 H3444 0.960 . S
C3431 C3428 1.511 . S
C3431 H3445 0.961 . S
C3431 H3446 0.961 . S
C3431 H3447 0.961 . S
C3432 C3433 1.370 . S
C3432 C3434 1.363 . S
C3432 H3448 0.931 . S
C3433 C3432 1.370 . S
C3433 C3437 1.408 . S
C3434 C3432 1.363 . S
C3434 C3435 1.370 . S
C3434 C3438 1.524 . S
C3435 C3427 1.503 . S
C3435 C3434 1.370 . S
C3435 C3436 1.403 . S
C3436 C3435 1.403 . S
C3436 C3437 1.404 . S
C3436 C3439 1.539 . S
C3437 C3433 1.408 . S
C3437 C3436 1.404 . S
C3437 H3449 0.930 . S
C3438 C3434 1.524 . S
C3438 H3450 0.956 . S
C3438 H3451 0.961 . S
C3438 H3452 0.961 . S
C3439 C3436 1.539 . S
C3439 H3453 0.958 . S
C3439 H3454 0.961 . S
C3439 H3455 0.960 . S
H3440 C3424 0.931 . S
H3441 C3429 0.929 . S
H3442 C3430 0.960 . S
H3443 C3430 0.962 . S
H3444 C3430 0.960 . S
H3445 C3431 0.961 . S
H3446 C3431 0.961 . S
H3447 C3431 0.961 . S
H3448 C3432 0.931 . S
H3449 C3437 0.930 . S
H3450 C3438 0.956 . S
H3451 C3438 0.961 . S
H3452 C3438 0.961 . S
H3453 C3439 0.958 . S
H3454 C3439 0.961 . S
H3455 C3439 0.960 . S
C3456 C3457 1.391 . S
C3456 C3458 1.394 . S
C3456 H3472 0.931 . S
C3457 C3456 1.391 . S
C3457 C3461 1.376 . S
C3458 C3456 1.394 . S
C3458 C3459 1.369 . S
C3458 C3462 1.531 . S
C3459 C3458 1.369 . S
C3459 C3460 1.410 . S
C3459 C3467 1.503 . S
C3460 C3459 1.410 . S
C3460 C3461 1.392 . S
C3460 C3463 1.511 . S
C3461 C3457 1.376 . S
C3461 C3460 1.392 . S
C3461 H3473 0.929 . S
C3462 C3458 1.531 . S
C3462 H3474 0.960 . S
C3462 H3475 0.962 . S
C3462 H3476 0.960 . S
C3463 C3460 1.511 . S
C3463 H3477 0.961 . S
C3463 H3478 0.961 . S
C3463 H3479 0.961 . S
C3464 C3465 1.370 . S
C3464 C3466 1.363 . S
C3464 H3480 0.931 1_556 S
C3465 C3464 1.370 . S
C3465 C3469 1.408 . S
C3466 C3464 1.363 . S
C3466 C3467 1.370 . S
C3466 C3470 1.524 . S
C3467 C3459 1.503 . S
C3467 C3466 1.370 . S
C3467 C3468 1.403 . S
C3468 C3467 1.403 . S
C3468 C3469 1.404 . S
C3468 C3471 1.539 . S
C3469 C3465 1.408 . S
C3469 C3468 1.404 . S
C3469 H3481 0.930 . S
C3470 C3466 1.524 . S
C3470 H3482 0.956 . S
C3470 H3483 0.961 . S
C3470 H3484 0.961 1_556 S
C3471 C3468 1.539 . S
C3471 H3485 0.958 . S
C3471 H3486 0.961 . S
C3471 H3487 0.960 . S
H3472 C3456 0.931 . S
H3473 C3461 0.929 . S
H3474 C3462 0.960 . S
H3475 C3462 0.962 . S
H3476 C3462 0.960 . S
H3477 C3463 0.961 . S
H3478 C3463 0.961 . S
H3479 C3463 0.961 . S
H3480 C3464 0.931 1_554 S
H3481 C3469 0.930 . S
H3482 C3470 0.956 . S
H3483 C3470 0.961 . S
H3484 C3470 0.961 1_554 S
H3485 C3471 0.958 . S
H3486 C3471 0.961 . S
H3487 C3471 0.960 . S
C3488 C3489 1.391 . S
C3488 C3490 1.394 . S
C3488 H3504 0.931 . S
C3489 C3488 1.391 . S
C3489 C3493 1.376 . S
C3490 C3488 1.394 . S
C3490 C3491 1.369 . S
C3490 C3494 1.531 . S
C3491 C3490 1.369 . S
C3491 C3492 1.410 . S
C3491 C3499 1.503 . S
C3492 C3491 1.410 . S
C3492 C3493 1.392 . S
C3492 C3495 1.511 . S
C3493 C3489 1.376 . S
C3493 C3492 1.392 . S
C3493 H3505 0.929 . S
C3494 C3490 1.531 . S
C3494 H3506 0.960 . S
C3494 H3507 0.962 . S
C3494 H3508 0.960 . S
C3495 C3492 1.511 . S
C3495 H3509 0.961 . S
C3495 H3510 0.961 . S
C3495 H3511 0.961 . S
C3496 C3497 1.370 . S
C3496 C3498 1.363 . S
C3496 H3512 0.931 . S
C3497 C3496 1.370 . S
C3497 C3501 1.408 . S
C3498 C3496 1.363 . S
C3498 C3499 1.370 . S
C3498 C3502 1.524 . S
C3499 C3491 1.503 . S
C3499 C3498 1.370 . S
C3499 C3500 1.403 . S
C3500 C3499 1.403 . S
C3500 C3501 1.404 . S
C3500 C3503 1.539 . S
C3501 C3497 1.408 . S
C3501 C3500 1.404 . S
C3501 H3513 0.930 . S
C3502 C3498 1.524 . S
C3502 H3514 0.956 . S
C3502 H3515 0.961 . S
C3502 H3516 0.961 . S
C3503 C3500 1.539 . S
C3503 H3517 0.958 . S
C3503 H3518 0.961 . S
C3503 H3519 0.960 . S
H3504 C3488 0.931 . S
H3505 C3493 0.929 . S
H3506 C3494 0.960 . S
H3507 C3494 0.962 . S
H3508 C3494 0.960 . S
H3509 C3495 0.961 . S
H3510 C3495 0.961 . S
H3511 C3495 0.961 . S
H3512 C3496 0.931 . S
H3513 C3501 0.930 . S
H3514 C3502 0.956 . S
H3515 C3502 0.961 . S
H3516 C3502 0.961 . S
H3517 C3503 0.958 . S
H3518 C3503 0.961 . S
H3519 C3503 0.960 . S
C3520 C3521 1.391 . S
C3520 C3522 1.394 . S
C3520 H3536 0.931 . S
C3521 C3520 1.391 . S
C3521 C3525 1.376 . S
C3522 C3520 1.394 . S
C3522 C3523 1.369 . S
C3522 C3526 1.531 . S
C3523 C3522 1.369 . S
C3523 C3524 1.410 . S
C3523 C3531 1.503 . S
C3524 C3523 1.410 . S
C3524 C3525 1.392 . S
C3524 C3527 1.511 . S
C3525 C3521 1.376 . S
C3525 C3524 1.392 . S
C3525 H3537 0.929 . S
C3526 C3522 1.531 . S
C3526 H3538 0.960 . S
C3526 H3539 0.962 . S
C3526 H3540 0.960 . S
C3527 C3524 1.511 . S
C3527 H3541 0.961 . S
C3527 H3542 0.961 . S
C3527 H3543 0.961 . S
C3528 C3529 1.370 . S
C3528 C3530 1.363 . S
C3528 H3544 0.931 . S
C3529 C3528 1.370 . S
C3529 C3533 1.408 . S
C3530 C3528 1.363 . S
C3530 C3531 1.370 . S
C3530 C3534 1.524 . S
C3531 C3523 1.503 . S
C3531 C3530 1.370 . S
C3531 C3532 1.403 . S
C3532 C3531 1.403 . S
C3532 C3533 1.404 . S
C3532 C3535 1.539 . S
C3533 C3529 1.408 . S
C3533 C3532 1.404 . S
C3533 H3545 0.930 . S
C3534 C3530 1.524 . S
C3534 H3546 0.956 . S
C3534 H3547 0.961 . S
C3534 H3548 0.961 . S
C3535 C3532 1.539 . S
C3535 H3549 0.958 . S
C3535 H3550 0.961 . S
C3535 H3551 0.960 . S
H3536 C3520 0.931 . S
H3537 C3525 0.929 . S
H3538 C3526 0.960 . S
H3539 C3526 0.962 . S
H3540 C3526 0.960 . S
H3541 C3527 0.961 . S
H3542 C3527 0.961 . S
H3543 C3527 0.961 . S
H3544 C3528 0.931 . S
H3545 C3533 0.930 . S
H3546 C3534 0.956 . S
H3547 C3534 0.961 . S
H3548 C3534 0.961 . S
H3549 C3535 0.958 . S
H3550 C3535 0.961 . S
H3551 C3535 0.960 . S
C3552 C3553 1.391 . S
C3552 C3554 1.394 . S
C3552 H3568 0.931 . S
C3553 C3552 1.391 . S
C3553 C3557 1.376 . S
C3554 C3552 1.394 . S
C3554 C3555 1.369 . S
C3554 C3558 1.531 . S
C3555 C3554 1.369 . S
C3555 C3556 1.410 . S
C3555 C3563 1.503 . S
C3556 C3555 1.410 . S
C3556 C3557 1.392 . S
C3556 C3559 1.511 . S
C3557 C3553 1.376 . S
C3557 C3556 1.392 . S
C3557 H3569 0.929 . S
C3558 C3554 1.531 . S
C3558 H3570 0.960 . S
C3558 H3571 0.962 . S
C3558 H3572 0.960 . S
C3559 C3556 1.511 . S
C3559 H3573 0.961 . S
C3559 H3574 0.961 . S
C3559 H3575 0.961 . S
C3560 C3561 1.370 . S
C3560 C3562 1.363 . S
C3560 H3576 0.931 . S
C3561 C3560 1.370 . S
C3561 C3565 1.408 . S
C3562 C3560 1.363 . S
C3562 C3563 1.370 . S
C3562 C3566 1.524 . S
C3563 C3555 1.503 . S
C3563 C3562 1.370 . S
C3563 C3564 1.403 . S
C3564 C3563 1.403 . S
C3564 C3565 1.404 . S
C3564 C3567 1.539 . S
C3565 C3561 1.408 . S
C3565 C3564 1.404 . S
C3565 H3577 0.930 . S
C3566 C3562 1.524 . S
C3566 H3578 0.956 . S
C3566 H3579 0.961 . S
C3566 H3580 0.961 . S
C3567 C3564 1.539 . S
C3567 H3581 0.958 . S
C3567 H3582 0.961 . S
C3567 H3583 0.960 . S
H3568 C3552 0.931 . S
H3569 C3557 0.929 . S
H3570 C3558 0.960 . S
H3571 C3558 0.962 . S
H3572 C3558 0.960 . S
H3573 C3559 0.961 . S
H3574 C3559 0.961 . S
H3575 C3559 0.961 . S
H3576 C3560 0.931 . S
H3577 C3565 0.930 . S
H3578 C3566 0.956 . S
H3579 C3566 0.961 . S
H3580 C3566 0.961 . S
H3581 C3567 0.958 . S
H3582 C3567 0.961 . S
H3583 C3567 0.960 . S
C3584 C3585 1.391 . S
C3584 C3586 1.394 . S
C3584 H3600 0.931 . S
C3585 C3584 1.391 . S
C3585 C3589 1.376 . S
C3586 C3584 1.394 . S
C3586 C3587 1.369 . S
C3586 C3590 1.531 . S
C3587 C3586 1.369 . S
C3587 C3588 1.410 . S
C3587 C3595 1.503 . S
C3588 C3587 1.410 . S
C3588 C3589 1.392 . S
C3588 C3591 1.511 . S
C3589 C3585 1.376 . S
C3589 C3588 1.392 . S
C3589 H3601 0.929 . S
C3590 C3586 1.531 . S
C3590 H3602 0.960 . S
C3590 H3603 0.962 . S
C3590 H3604 0.960 . S
C3591 C3588 1.511 . S
C3591 H3605 0.961 . S
C3591 H3606 0.961 . S
C3591 H3607 0.960 1_554 S
C3592 C3593 1.370 . S
C3592 C3594 1.363 . S
C3592 H3608 0.931 . S
C3593 C3592 1.370 . S
C3593 C3597 1.408 . S
C3594 C3592 1.363 . S
C3594 C3595 1.370 . S
C3594 C3598 1.524 . S
C3595 C3587 1.503 . S
C3595 C3594 1.370 . S
C3595 C3596 1.403 . S
C3596 C3595 1.403 . S
C3596 C3597 1.404 . S
C3596 C3599 1.539 . S
C3597 C3593 1.408 . S
C3597 C3596 1.404 . S
C3597 H3609 0.930 . S
C3598 C3594 1.524 . S
C3598 H3610 0.956 . S
C3598 H3611 0.961 . S
C3598 H3612 0.961 . S
C3599 C3596 1.539 . S
C3599 H3613 0.958 . S
C3599 H3614 0.961 . S
C3599 H3615 0.960 . S
H3600 C3584 0.931 . S
H3601 C3589 0.929 . S
H3602 C3590 0.960 . S
H3603 C3590 0.962 . S
H3604 C3590 0.960 . S
H3605 C3591 0.961 . S
H3606 C3591 0.961 . S
H3607 C3591 0.960 1_556 S
H3608 C3592 0.931 . S
H3609 C3597 0.930 . S
H3610 C3598 0.956 . S
H3611 C3598 0.961 . S
H3612 C3598 0.961 . S
H3613 C3599 0.958 . S
H3614 C3599 0.961 . S
H3615 C3599 0.960 . S
C3616 C3617 1.391 . S
C3616 C3618 1.394 . S
C3616 H3632 0.931 . S
C3617 C3616 1.391 . S
C3617 C3621 1.376 . S
C3618 C3616 1.394 . S
C3618 C3619 1.369 . S
C3618 C3622 1.531 . S
C3619 C3618 1.369 . S
C3619 C3620 1.410 . S
C3619 C3627 1.503 . S
C3620 C3619 1.410 . S
C3620 C3621 1.392 . S
C3620 C3623 1.511 1_556 S
C3621 C3617 1.376 . S
C3621 C3620 1.392 . S
C3621 H3633 0.929 1_556 S
C3622 C3618 1.531 . S
C3622 H3634 0.960 . S
C3622 H3635 0.962 . S
C3622 H3636 0.960 . S
C3623 C3620 1.511 1_554 S
C3623 H3637 0.961 . S
C3623 H3638 0.961 1_554 S
C3623 H3639 0.961 1_554 S
C3624 C3625 1.370 . S
C3624 C3626 1.363 . S
C3624 H3640 0.931 . S
C3625 C3624 1.370 . S
C3625 C3629 1.408 . S
C3626 C3624 1.363 . S
C3626 C3627 1.370 . S
C3626 C3630 1.524 . S
C3627 C3619 1.503 . S
C3627 C3626 1.370 . S
C3627 C3628 1.403 . S
C3628 C3627 1.403 . S
C3628 C3629 1.404 . S
C3628 C3631 1.539 . S
C3629 C3625 1.408 . S
C3629 C3628 1.404 . S
C3629 H3641 0.930 . S
C3630 C3626 1.524 . S
C3630 H3642 0.956 . S
C3630 H3643 0.961 . S
C3630 H3644 0.961 . S
C3631 C3628 1.539 . S
C3631 H3645 0.958 . S
C3631 H3646 0.961 . S
C3631 H3647 0.960 . S
H3632 C3616 0.931 . S
H3633 C3621 0.929 1_554 S
H3634 C3622 0.960 . S
H3635 C3622 0.962 . S
H3636 C3622 0.960 . S
H3637 C3623 0.961 . S
H3638 C3623 0.961 1_556 S
H3639 C3623 0.961 1_556 S
H3640 C3624 0.931 . S
H3641 C3629 0.930 . S
H3642 C3630 0.956 . S
H3643 C3630 0.961 . S
H3644 C3630 0.961 . S
H3645 C3631 0.958 . S
H3646 C3631 0.961 . S
H3647 C3631 0.960 . S
C1089 C1022 1.736 . S
C1097 C2 1.742 . S
C1121 C36 1.737 . S
C1129 C512 1.743 . S
C1153 C70 1.737 . S
C1161 C954 1.743 . S
C1185 C104 1.737 . S
C1193 C444 1.743 . S
C1217 C886 1.742 . S
C1225 C138 1.745 . S
C1249 C376 1.741 . S
C1257 C172 1.745 . S
C1281 C206 1.739 . S
C1289 C818 1.743 . S
C1313 C308 1.741 . S
C1321 C240 1.745 . S
C1345 C750 1.740 . S
C1353 C274 1.744 . S
C1377 C682 1.740 . S
C1385 C342 1.744 . S
C1409 C410 1.739 . S
C1417 C614 1.744 . S
C1441 C546 1.741 . S
C1449 C478 1.744 . S
C1473 C1056 1.737 . S
C1481 C580 1.743 . S
C1505 C988 1.738 . S
C1513 C648 1.743 . S
C1537 C920 1.741 . S
C1545 C716 1.745 . S
C1569 C852 1.738 . S
C1577 C784 1.743 . S
C1601 C5 0.995 . S
C1609 C9 0.997 . S
C1633 C39 1.004 . S
C1641 C43 0.971 . S
C1665 C73 0.975 . S
C1673 C77 0.971 . S
C1697 C107 1.013 1_554 S
C1705 C111 0.974 . S
C1729 C141 0.990 . S
C1737 C145 0.998 . S
C1761 C175 1.016 1_556 S
C1769 C179 0.987 . S
C1793 C213 0.968 . S
C1801 C209 1.000 . S
C1825 C243 1.017 . S
C1833 C247 0.980 . S
C1857 C277 0.962 . S
C1865 C281 0.992 . S
C1889 C315 1.005 . S
C1897 C311 0.979 . S
C1921 C345 0.972 . S
C1929 C349 0.996 . S
C1953 C379 0.964 1_556 S
C1961 C383 0.973 . S
C1985 C413 0.963 . S
C1993 C417 0.993 . S
C2017 C451 0.979 . S
C2025 C447 1.001 1_554 S
C2049 C481 1.015 . S
C2057 C485 0.981 . S
C2081 C519 0.991 . S
C2089 C515 1.001 . S
C2113 C553 0.964 . S
C2121 C549 1.000 . S
C2145 C583 0.968 1_554 S
C2153 C587 0.998 . S
C2177 C621 0.948 . S
C2185 C617 0.993 . S
C2209 C655 1.000 . S
C2217 C651 0.998 . S
C2241 C689 0.950 . S
C2249 C685 0.995 . S
C2273 C723 0.947 . S
C2281 C719 0.992 . S
C2305 C757 1.003 . S
C2313 C753 0.976 . S
C2337 C791 1.009 . S
C2345 C787 0.995 1_556 S
C2369 C825 0.950 . S
C2377 C821 0.980 . S
C2401 C859 0.982 . S
C2409 C855 1.001 1_556 S
C2433 C889 1.005 . S
C2441 C893 0.974 . S
C2465 C927 0.985 . S
C2473 C923 0.975 . S
C2497 C961 1.017 . S
C2505 C957 0.987 . S
C2529 C995 0.975 . S
C2537 C991 1.000 . S
C2561 C1025 1.015 . S
C2569 C1029 0.981 . S
C2593 C1059 0.984 1_554 S
C2601 C1063 0.970 . S
C2625 C237 1.346 . S
C2633 C33 1.331 . S
C2657 C271 1.365 . S
C2665 C67 1.327 . S
C2689 C101 1.304 . S
C2697 C169 1.352 . S
C2721 C203 1.311 . S
C2729 C135 1.355 . S
C2753 C305 1.347 . S
C2761 C509 1.349 . S
C2785 C339 1.305 . S
C2793 C543 1.346 . S
C2817 C373 1.324 . S
C2825 C441 1.355 . S
C2849 C475 1.340 . S
C2857 C407 1.351 . S
C2881 C781 1.330 . S
C2889 C577 1.351 . S
C2913 C611 1.367 . S
C2921 C815 1.334 . S
C2945 C713 1.368 . S
C2953 C645 1.334 . S
C2977 C747 1.359 . S
C2985 C679 1.327 . S
C3009 C849 1.334 . S
C3017 C1053 1.331 . S
C3041 C1087 1.333 . S
C3049 C883 1.353 . S
C3073 C917 1.304 . S
C3081 C985 1.348 . S
C3105 C1019 1.310 . S
C3113 C951 1.342 . S
C3137 C20 1.666 . S
C3145 C258 1.663 . S
C3169 C156 1.636 . S
C3177 C54 1.665 . S
C3201 C88 1.642 . S
C3209 C190 1.667 . S
C3233 C122 1.651 . S
C3241 C224 1.652 . S
C3265 C292 1.674 . S
C3273 C530 1.656 . S
C3297 C428 1.644 . S
C3305 C326 1.667 . S
C3329 C360 1.651 . S
C3337 C462 1.667 . S
C3361 C394 1.673 . S
C3369 C496 1.662 . S
C3393 C802 1.672 . S
C3401 C564 1.659 . S
C3425 C700 1.672 . S
C3433 C598 1.652 . S
C3457 C734 1.664 . S
C3465 C632 1.650 . S
C3489 C666 1.647 . S
C3497 C768 1.653 . S
C3521 C836 1.636 . S
C3529 C1074 1.663 . S
C3553 C870 1.669 . S
C3561 C972 1.652 . S
C3585 C1006 1.665 . S
C3593 C904 1.665 . S
C3617 C1040 1.637 . S
C3625 C938 1.655 . S
