# Generated by pormake.
# Topology ums, (4)-cn, num edge types: 1
# Building blocks:
#     Node 0, Type 0, BuildingBlock: TATPOV_clean_sbu_0, # of connection points: 4
#     Node 1, Type 0, BuildingBlock: TATPOV_clean_sbu_0, # of connection points: 4
#     Node 2, Type 0, BuildingBlock: TATPOV_clean_sbu_0, # of connection points: 4
#     Node 3, Type 0, BuildingBlock: TATPOV_clean_sbu_0, # of connection points: 4
#     Node 4, Type 0, BuildingBlock: TATPOV_clean_sbu_0, # of connection points: 4
#     Node 5, Type 0, BuildingBlock: TATPOV_clean_sbu_0, # of connection points: 4
#     Node 6, Type 0, BuildingBlock: TATPOV_clean_sbu_0, # of connection points: 4
#     Node 7, Type 0, BuildingBlock: TATPOV_clean_sbu_0, # of connection points: 4
#     Node 8, Type 0, BuildingBlock: TATPOV_clean_sbu_0, # of connection points: 4
#     Node 9, Type 0, BuildingBlock: TATPOV_clean_sbu_0, # of connection points: 4
#     Node 10, Type 0, BuildingBlock: TATPOV_clean_sbu_0, # of connection points: 4
#     Node 11, Type 0, BuildingBlock: TATPOV_clean_sbu_0, # of connection points: 4
#     Node 12, Type 0, BuildingBlock: TATPOV_clean_sbu_0, # of connection points: 4
#     Node 13, Type 0, BuildingBlock: TATPOV_clean_sbu_0, # of connection points: 4
#     Node 14, Type 0, BuildingBlock: TATPOV_clean_sbu_0, # of connection points: 4
#     Node 15, Type 0, BuildingBlock: TATPOV_clean_sbu_0, # of connection points: 4
#     Node 16, Type 0, BuildingBlock: TATPOV_clean_sbu_0, # of connection points: 4
#     Node 17, Type 0, BuildingBlock: TATPOV_clean_sbu_0, # of connection points: 4
#     Node 18, Type 0, BuildingBlock: TATPOV_clean_sbu_0, # of connection points: 4
#     Node 19, Type 0, BuildingBlock: TATPOV_clean_sbu_0, # of connection points: 4
#     Node 20, Type 0, BuildingBlock: TATPOV_clean_sbu_0, # of connection points: 4
#     Node 21, Type 0, BuildingBlock: TATPOV_clean_sbu_0, # of connection points: 4
#     Node 22, Type 0, BuildingBlock: TATPOV_clean_sbu_0, # of connection points: 4
#     Node 23, Type 0, BuildingBlock: TATPOV_clean_sbu_0, # of connection points: 4
#     Node 24, Type 0, BuildingBlock: TATPOV_clean_sbu_0, # of connection points: 4
#     Node 25, Type 0, BuildingBlock: TATPOV_clean_sbu_0, # of connection points: 4
#     Node 26, Type 0, BuildingBlock: TATPOV_clean_sbu_0, # of connection points: 4
#     Node 27, Type 0, BuildingBlock: TATPOV_clean_sbu_0, # of connection points: 4
#     Node 28, Type 0, BuildingBlock: TATPOV_clean_sbu_0, # of connection points: 4
#     Node 29, Type 0, BuildingBlock: TATPOV_clean_sbu_0, # of connection points: 4
#     Node 30, Type 0, BuildingBlock: TATPOV_clean_sbu_0, # of connection points: 4
#     Node 31, Type 0, BuildingBlock: TATPOV_clean_sbu_0, # of connection points: 4
#     Node 32, Type 0, BuildingBlock: TATPOV_clean_sbu_0, # of connection points: 4
#     Node 33, Type 0, BuildingBlock: TATPOV_clean_sbu_0, # of connection points: 4
#     Node 34, Type 0, BuildingBlock: TATPOV_clean_sbu_0, # of connection points: 4
#     Node 35, Type 0, BuildingBlock: TATPOV_clean_sbu_0, # of connection points: 4
#     Edge 36, Type (0, 0), BuildingBlock: XIVTED_clean_linker_0, # of connection points: 2
#     Edge 37, Type (0, 0), BuildingBlock: XIVTED_clean_linker_0, # of connection points: 2
#     Edge 38, Type (0, 0), BuildingBlock: XIVTED_clean_linker_0, # of connection points: 2
#     Edge 39, Type (0, 0), BuildingBlock: XIVTED_clean_linker_0, # of connection points: 2
#     Edge 40, Type (0, 0), BuildingBlock: XIVTED_clean_linker_0, # of connection points: 2
#     Edge 41, Type (0, 0), BuildingBlock: XIVTED_clean_linker_0, # of connection points: 2
#     Edge 42, Type (0, 0), BuildingBlock: XIVTED_clean_linker_0, # of connection points: 2
#     Edge 43, Type (0, 0), BuildingBlock: XIVTED_clean_linker_0, # of connection points: 2
#     Edge 44, Type (0, 0), BuildingBlock: XIVTED_clean_linker_0, # of connection points: 2
#     Edge 45, Type (0, 0), BuildingBlock: XIVTED_clean_linker_0, # of connection points: 2
#     Edge 46, Type (0, 0), BuildingBlock: XIVTED_clean_linker_0, # of connection points: 2
#     Edge 47, Type (0, 0), BuildingBlock: XIVTED_clean_linker_0, # of connection points: 2
#     Edge 48, Type (0, 0), BuildingBlock: XIVTED_clean_linker_0, # of connection points: 2
#     Edge 49, Type (0, 0), BuildingBlock: XIVTED_clean_linker_0, # of connection points: 2
#     Edge 50, Type (0, 0), BuildingBlock: XIVTED_clean_linker_0, # of connection points: 2
#     Edge 51, Type (0, 0), BuildingBlock: XIVTED_clean_linker_0, # of connection points: 2
#     Edge 52, Type (0, 0), BuildingBlock: XIVTED_clean_linker_0, # of connection points: 2
#     Edge 53, Type (0, 0), BuildingBlock: XIVTED_clean_linker_0, # of connection points: 2
#     Edge 54, Type (0, 0), BuildingBlock: XIVTED_clean_linker_0, # of connection points: 2
#     Edge 55, Type (0, 0), BuildingBlock: XIVTED_clean_linker_0, # of connection points: 2
#     Edge 56, Type (0, 0), BuildingBlock: XIVTED_clean_linker_0, # of connection points: 2
#     Edge 57, Type (0, 0), BuildingBlock: XIVTED_clean_linker_0, # of connection points: 2
#     Edge 58, Type (0, 0), BuildingBlock: XIVTED_clean_linker_0, # of connection points: 2
#     Edge 59, Type (0, 0), BuildingBlock: XIVTED_clean_linker_0, # of connection points: 2
#     Edge 60, Type (0, 0), BuildingBlock: XIVTED_clean_linker_0, # of connection points: 2
#     Edge 61, Type (0, 0), BuildingBlock: XIVTED_clean_linker_0, # of connection points: 2
#     Edge 62, Type (0, 0), BuildingBlock: XIVTED_clean_linker_0, # of connection points: 2
#     Edge 63, Type (0, 0), BuildingBlock: XIVTED_clean_linker_0, # of connection points: 2
#     Edge 64, Type (0, 0), BuildingBlock: XIVTED_clean_linker_0, # of connection points: 2
#     Edge 65, Type (0, 0), BuildingBlock: XIVTED_clean_linker_0, # of connection points: 2
#     Edge 66, Type (0, 0), BuildingBlock: XIVTED_clean_linker_0, # of connection points: 2
#     Edge 67, Type (0, 0), BuildingBlock: XIVTED_clean_linker_0, # of connection points: 2
#     Edge 68, Type (0, 0), BuildingBlock: XIVTED_clean_linker_0, # of connection points: 2
#     Edge 69, Type (0, 0), BuildingBlock: XIVTED_clean_linker_0, # of connection points: 2
#     Edge 70, Type (0, 0), BuildingBlock: XIVTED_clean_linker_0, # of connection points: 2
#     Edge 71, Type (0, 0), BuildingBlock: XIVTED_clean_linker_0, # of connection points: 2
#     Edge 72, Type (0, 0), BuildingBlock: XIVTED_clean_linker_0, # of connection points: 2
#     Edge 73, Type (0, 0), BuildingBlock: XIVTED_clean_linker_0, # of connection points: 2
#     Edge 74, Type (0, 0), BuildingBlock: XIVTED_clean_linker_0, # of connection points: 2
#     Edge 75, Type (0, 0), BuildingBlock: XIVTED_clean_linker_0, # of connection points: 2
#     Edge 76, Type (0, 0), BuildingBlock: XIVTED_clean_linker_0, # of connection points: 2
#     Edge 77, Type (0, 0), BuildingBlock: XIVTED_clean_linker_0, # of connection points: 2
#     Edge 78, Type (0, 0), BuildingBlock: XIVTED_clean_linker_0, # of connection points: 2
#     Edge 79, Type (0, 0), BuildingBlock: XIVTED_clean_linker_0, # of connection points: 2
#     Edge 80, Type (0, 0), BuildingBlock: XIVTED_clean_linker_0, # of connection points: 2
#     Edge 81, Type (0, 0), BuildingBlock: XIVTED_clean_linker_0, # of connection points: 2
#     Edge 82, Type (0, 0), BuildingBlock: XIVTED_clean_linker_0, # of connection points: 2
#     Edge 83, Type (0, 0), BuildingBlock: XIVTED_clean_linker_0, # of connection points: 2
#     Edge 84, Type (0, 0), BuildingBlock: XIVTED_clean_linker_0, # of connection points: 2
#     Edge 85, Type (0, 0), BuildingBlock: XIVTED_clean_linker_0, # of connection points: 2
#     Edge 86, Type (0, 0), BuildingBlock: XIVTED_clean_linker_0, # of connection points: 2
#     Edge 87, Type (0, 0), BuildingBlock: XIVTED_clean_linker_0, # of connection points: 2
#     Edge 88, Type (0, 0), BuildingBlock: XIVTED_clean_linker_0, # of connection points: 2
#     Edge 89, Type (0, 0), BuildingBlock: XIVTED_clean_linker_0, # of connection points: 2
#     Edge 90, Type (0, 0), BuildingBlock: XIVTED_clean_linker_0, # of connection points: 2
#     Edge 91, Type (0, 0), BuildingBlock: XIVTED_clean_linker_0, # of connection points: 2
#     Edge 92, Type (0, 0), BuildingBlock: XIVTED_clean_linker_0, # of connection points: 2
#     Edge 93, Type (0, 0), BuildingBlock: XIVTED_clean_linker_0, # of connection points: 2
#     Edge 94, Type (0, 0), BuildingBlock: XIVTED_clean_linker_0, # of connection points: 2
#     Edge 95, Type (0, 0), BuildingBlock: XIVTED_clean_linker_0, # of connection points: 2
#     Edge 96, Type (0, 0), BuildingBlock: XIVTED_clean_linker_0, # of connection points: 2
#     Edge 97, Type (0, 0), BuildingBlock: XIVTED_clean_linker_0, # of connection points: 2
#     Edge 98, Type (0, 0), BuildingBlock: XIVTED_clean_linker_0, # of connection points: 2
#     Edge 99, Type (0, 0), BuildingBlock: XIVTED_clean_linker_0, # of connection points: 2
#     Edge 100, Type (0, 0), BuildingBlock: XIVTED_clean_linker_0, # of connection points: 2
#     Edge 101, Type (0, 0), BuildingBlock: XIVTED_clean_linker_0, # of connection points: 2
#     Edge 102, Type (0, 0), BuildingBlock: XIVTED_clean_linker_0, # of connection points: 2
#     Edge 103, Type (0, 0), BuildingBlock: XIVTED_clean_linker_0, # of connection points: 2
#     Edge 104, Type (0, 0), BuildingBlock: XIVTED_clean_linker_0, # of connection points: 2
#     Edge 105, Type (0, 0), BuildingBlock: XIVTED_clean_linker_0, # of connection points: 2
#     Edge 106, Type (0, 0), BuildingBlock: XIVTED_clean_linker_0, # of connection points: 2
#     Edge 107, Type (0, 0), BuildingBlock: XIVTED_clean_linker_0, # of connection points: 2
# Relax obj value: 0.121
# Max RMSD: 0.107
# Mean RMSD: 0.107
data_MOF--net-ums--node1-TATPOV_clean_sbu_0--edge1-XIVTED_clean_linker_0
_symmetry_space_group_name_H-M    P1
_symmetry_Int_Tables_number       1
_symmetry_cell_setting            triclinic
loop_
_symmetry_equiv_pos_as_xyz
'x, y, z'
_cell_length_a     101.0532
_cell_length_b     101.06281
_cell_length_c     23.781399
_cell_angle_alpha  89.939239
_cell_angle_beta   89.973314
_cell_angle_gamma 119.96082
loop_
_atom_site_label
_atom_site_type_symbol
_atom_site_fract_x
_atom_site_fract_y
_atom_site_fract_z
_atom_type_partial_charge
Zn0 Zn 0.15695 0.25726 0.10814 0.0
Zn1 Zn 0.17405 0.24743 0.14014 0.0
O2 O 0.18916 0.2669 0.09433 0.0
O3 O 0.17245 0.27155 0.0528 0.0
O4 O 0.18726 0.23984 0.17603 0.0
O5 O 0.15362 0.26433 0.18151 0.0
O6 O 0.16388 0.25084 0.21062 0.0
C7 C 0.18606 0.27437 0.05847 0.0
C8 C 0.14511 0.22654 0.07641 0.0
O9 O 0.15853 0.22948 0.08981 0.0
O10 O 0.14111 0.23638 0.08495 0.0
C11 C 0.19116 0.23099 0.15257 0.0
O12 O 0.18689 0.22659 0.10052 0.0
C13 C 0.15672 0.258 0.22107 0.0
Zn14 Zn 0.70574 0.89042 0.30223 0.0
Zn15 Zn 0.73119 0.91526 0.27711 0.0
O16 O 0.71363 0.91701 0.23784 0.0
O17 O 0.69221 0.89685 0.26445 0.0
O18 O 0.74918 0.93677 0.26822 0.0
O19 O 0.70861 0.89239 0.38511 0.0
O20 O 0.73134 0.91146 0.36342 0.0
C21 C 0.69906 0.90914 0.23668 0.0
C22 C 0.72718 0.88608 0.2303 0.0
O23 O 0.73561 0.90058 0.2322 0.0
O24 O 0.71459 0.87953 0.25686 0.0
C25 C 0.76079 0.94211 0.30033 0.0
O26 O 0.76192 0.93301 0.33707 0.0
C27 C 0.72182 0.90254 0.40002 0.0
Zn28 Zn 0.12169 0.82868 0.28099 0.0
Zn29 Zn 0.09608 0.82791 0.25844 0.0
O30 O 0.09525 0.80899 0.21902 0.0
O31 O 0.11617 0.80893 0.24365 0.0
O32 O 0.07396 0.82294 0.25153 0.0
O33 O 0.12027 0.82961 0.36401 0.0
O34 O 0.1005 0.83231 0.34442 0.0
C35 C 0.10371 0.80293 0.21694 0.0
C36 C 0.12431 0.85379 0.20895 0.0
O37 O 0.10977 0.84714 0.21194 0.0
O38 O 0.13147 0.84833 0.23502 0.0
C39 C 0.06742 0.82711 0.28746 0.0
O40 O 0.07555 0.83632 0.32833 0.0
C41 C 0.10989 0.83222 0.38004 0.0
Zn42 Zn 0.25393 0.14195 0.45837 0.0
Zn43 Zn 0.24831 0.16072 0.41067 0.0
O44 O 0.27191 0.17411 0.42272 0.0
O45 O 0.27521 0.15829 0.47654 0.0
O46 O 0.24221 0.17385 0.3653 0.0
O47 O 0.24975 0.12773 0.39589 0.0
O48 O 0.24099 0.14169 0.358 0.0
C49 C 0.28054 0.17127 0.45359 0.0
C50 C 0.23213 0.14533 0.51929 0.0
O51 O 0.23633 0.15663 0.48599 0.0
O52 O 0.23722 0.13629 0.51291 0.0
C53 C 0.24046 0.18448 0.38605 0.0
O54 O 0.24321 0.18772 0.43976 0.0
C55 C 0.24267 0.12996 0.35673 0.0
Zn56 Zn 0.85395 0.11256 0.40799 0.0
Zn57 Zn 0.84151 0.0844 0.39992 0.0
O58 O 0.82453 0.08997 0.38176 0.0
O59 O 0.83837 0.11446 0.36287 0.0
O60 O 0.83067 0.06149 0.38846 0.0
O61 O 0.87348 0.11638 0.37342 0.0
O62 O 0.86041 0.09243 0.34665 0.0
C63 C 0.82552 0.10237 0.36409 0.0
C64 C 0.85065 0.09913 0.51384 0.0
O65 O 0.84791 0.08765 0.48356 0.0
O66 O 0.852 0.1111 0.49158 0.0
C67 C 0.82391 0.05589 0.34209 0.0
O68 O 0.82416 0.06517 0.30283 0.0
C69 C 0.87269 0.10538 0.34556 0.0
Zn70 Zn 0.89534 0.74001 0.326 0.0
Zn71 Zn 0.92251 0.7565 0.34657 0.0
O72 O 0.91857 0.73435 0.33189 0.0
O73 O 0.89711 0.72375 0.2846 0.0
O74 O 0.94563 0.76911 0.35132 0.0
O75 O 0.89271 0.75588 0.28687 0.0
O76 O 0.91778 0.76831 0.28484 0.0
C77 C 0.9084 0.72306 0.30394 0.0
C78 C 0.90032 0.74733 0.44158 0.0
O79 O 0.91352 0.75738 0.42401 0.0
O80 O 0.89091 0.7373 0.4083 0.0
C81 C 0.9527 0.76931 0.30667 0.0
O82 O 0.94468 0.76136 0.26311 0.0
C83 C 0.90509 0.7672 0.27067 0.0
Zn84 Zn 0.84961 0.74396 0.91519 0.0
Zn85 Zn 0.83371 0.75468 0.89108 0.0
O86 O 0.81862 0.73378 0.92962 0.0
O87 O 0.83533 0.72963 0.97332 0.0
O88 O 0.81976 0.7629 0.86994 0.0
O89 O 0.85008 0.73648 0.83858 0.0
O90 O 0.84347 0.7534 0.81521 0.0
C91 C 0.82162 0.7262 0.96528 0.0
C92 C 0.86315 0.77358 0.95493 0.0
O93 O 0.84955 0.77085 0.94618 0.0
O94 O 0.86704 0.76418 0.93785 0.0
C95 C 0.82414 0.77582 0.84694 0.0
O96 O 0.83869 0.7847 0.83518 0.0
C97 C 0.84854 0.74455 0.80143 0.0
Zn98 Zn 0.2713 0.11725 0.94038 0.0
Zn99 Zn 0.25887 0.09018 0.89322 0.0
O100 O 0.28232 0.09808 0.89506 0.0
O101 O 0.29203 0.11938 0.94395 0.0
O102 O 0.2507 0.06963 0.85538 0.0
O103 O 0.26455 0.12571 0.87786 0.0
O104 O 0.25154 0.1023 0.84446 0.0
C105 C 0.29374 0.10936 0.9185 0.0
C106 C 0.24793 0.09368 0.00762 0.0
O107 O 0.24776 0.08468 0.96987 0.0
O108 O 0.25678 0.10793 0.00382 0.0
C109 C 0.2366 0.06014 0.84772 0.0
O110 O 0.22639 0.06385 0.86306 0.0
C111 C 0.25492 0.11628 0.84346 0.0
Zn112 Zn 0.90111 0.15872 0.98002 0.0
Zn113 Zn 0.9272 0.17194 0.93269 0.0
O114 O 0.92179 0.18905 0.94931 0.0
O115 O 0.90205 0.17791 0.00623 0.0
O116 O 0.94827 0.1839 0.8973 0.0
O117 O 0.89057 0.14871 0.90876 0.0
O118 O 0.91328 0.15653 0.87199 0.0
C119 C 0.91201 0.18978 0.98129 0.0
C120 C 0.92086 0.15053 0.03246 0.0
O121 O 0.93076 0.16107 0.00105 0.0
O122 O 0.90698 0.14691 0.02981 0.0
C123 C 0.95311 0.17967 0.85546 0.0
O124 O 0.94403 0.16646 0.83156 0.0
C125 C 0.89875 0.1486 0.86871 0.0
Zn126 Zn 0.70704 0.82603 0.80095 0.0
Zn127 Zn 0.7319 0.82598 0.77535 0.0
O128 O 0.71401 0.80703 0.73561 0.0
O129 O 0.69291 0.80652 0.76177 0.0
O130 O 0.74938 0.8216 0.76878 0.0
O131 O 0.70958 0.82633 0.8839 0.0
O132 O 0.73241 0.8304 0.86143 0.0
C133 C 0.69948 0.8008 0.73392 0.0
C134 C 0.729 0.85178 0.72977 0.0
O135 O 0.73695 0.84517 0.72991 0.0
O136 O 0.71659 0.84612 0.75736 0.0
C137 C 0.74635 0.80901 0.79175 0.0
O138 O 0.73282 0.8006 0.81467 0.0
C139 C 0.72291 0.82965 0.89839 0.0
Zn140 Zn 0.18622 0.89415 0.78365 0.0
Zn141 Zn 0.18637 0.91902 0.75595 0.0
O142 O 0.20554 0.91994 0.71806 0.0
O143 O 0.20597 0.89946 0.74636 0.0
O144 O 0.19053 0.94079 0.74778 0.0
O145 O 0.18543 0.89656 0.86632 0.0
O146 O 0.18148 0.91528 0.84188 0.0
C147 C 0.21182 0.91167 0.71795 0.0
C148 C 0.16085 0.8902 0.71009 0.0
O149 O 0.16741 0.90474 0.70986 0.0
O150 O 0.16639 0.8835 0.73869 0.0
C151 C 0.2038 0.95103 0.76336 0.0
O152 O 0.21345 0.94677 0.78076 0.0
C153 C 0.18203 0.90659 0.87961 0.0
Zn154 Zn 0.12035 0.26456 0.71697 0.0
Zn155 Zn 0.09185 0.25006 0.69382 0.0
O156 O 0.09792 0.27289 0.70608 0.0
O157 O 0.12109 0.28386 0.74125 0.0
O158 O 0.06868 0.23909 0.6935 0.0
O159 O 0.12024 0.24954 0.76999 0.0
O160 O 0.09549 0.23699 0.7538 0.0
C161 C 0.10953 0.28468 0.72616 0.0
C162 C 0.11359 0.25377 0.60189 0.0
O163 O 0.09958 0.24794 0.61599 0.0
O164 O 0.12411 0.26156 0.63673 0.0
C165 C 0.06305 0.24134 0.73794 0.0
O166 O 0.07244 0.25068 0.77621 0.0
C167 C 0.10725 0.23796 0.77765 0.0
Zn168 Zn 0.82444 0.60208 0.46413 0.0
Zn169 Zn 0.84085 0.59072 0.49552 0.0
O170 O 0.8567 0.61073 0.4544 0.0
O171 O 0.84124 0.61751 0.41524 0.0
O172 O 0.85347 0.58219 0.52901 0.0
O173 O 0.82022 0.60706 0.5404 0.0
O174 O 0.83051 0.59334 0.56677 0.0
C175 C 0.85453 0.61947 0.42159 0.0
C176 C 0.81242 0.57155 0.42632 0.0
O177 O 0.8253 0.57355 0.44275 0.0
O178 O 0.80902 0.58187 0.43373 0.0
C179 C 0.85759 0.57391 0.50253 0.0
O180 O 0.85388 0.57078 0.44929 0.0
C181 C 0.82317 0.60023 0.57863 0.0
Zn182 Zn 0.41572 0.221 0.39906 0.0
Zn183 Zn 0.42748 0.24868 0.43981 0.0
O184 O 0.40393 0.23922 0.45112 0.0
O185 O 0.39514 0.21501 0.43023 0.0
O186 O 0.43652 0.26927 0.47811 0.0
O187 O 0.43 0.21636 0.44121 0.0
O188 O 0.4382 0.23861 0.48221 0.0
C189 C 0.39286 0.22552 0.44762 0.0
C190 C 0.43034 0.24443 0.3156 0.0
O191 O 0.43452 0.25352 0.35729 0.0
O192 O 0.42166 0.23022 0.32237 0.0
C193 C 0.43655 0.28084 0.45687 0.0
O194 O 0.43035 0.27962 0.40722 0.0
C195 C 0.43857 0.22622 0.47671 0.0
Zn196 Zn 0.77688 0.1868 0.37682 0.0
Zn197 Zn 0.75145 0.17066 0.42513 0.0
O198 O 0.75859 0.15479 0.40888 0.0
O199 O 0.77841 0.16862 0.35442 0.0
O200 O 0.73198 0.15886 0.47102 0.0
O201 O 0.78812 0.19966 0.44175 0.0
O202 O 0.76512 0.18882 0.47883 0.0
C203 C 0.76924 0.15591 0.3767 0.0
C204 C 0.75335 0.18866 0.32046 0.0
O205 O 0.74485 0.17762 0.35303 0.0
O206 O 0.7677 0.19524 0.32487 0.0
C207 C 0.71863 0.1522 0.44985 0.0
O208 O 0.71709 0.15246 0.39508 0.0
C209 C 0.77928 0.19896 0.48063 0.0
Zn210 Zn 0.93256 0.48944 0.76267 0.0
Zn211 Zn 0.92145 0.50421 0.72044 0.0
O212 O 0.94266 0.5214 0.74987 0.0
O213 O 0.94863 0.50755 0.80411 0.0
O214 O 0.91247 0.51557 0.68027 0.0
O215 O 0.93724 0.48258 0.6911 0.0
O216 O 0.92192 0.49017 0.65706 0.0
C217 C 0.95137 0.5205 0.78667 0.0
C218 C 0.90337 0.47978 0.80669 0.0
O219 O 0.90572 0.49218 0.78379 0.0
O220 O 0.91281 0.47519 0.79958 0.0
C221 C 0.90925 0.5247 0.70544 0.0
O222 O 0.91197 0.52704 0.75961 0.0
C223 C 0.92928 0.48303 0.65101 0.0
Zn224 Zn 0.52323 0.4424 0.69286 0.0
Zn225 Zn 0.50586 0.41564 0.66152 0.0
O226 O 0.49099 0.42027 0.70728 0.0
O227 O 0.50795 0.44144 0.74885 0.0
O228 O 0.49252 0.39449 0.62892 0.0
O229 O 0.52604 0.45256 0.61945 0.0
O230 O 0.51508 0.42885 0.58942 0.0
C231 C 0.49425 0.43088 0.74305 0.0
C232 C 0.53526 0.42391 0.72428 0.0
O233 O 0.52176 0.41356 0.71123 0.0
O234 O 0.53938 0.43775 0.71518 0.0
C235 C 0.48936 0.38224 0.65483 0.0
O236 O 0.49451 0.38308 0.70619 0.0
C237 C 0.52226 0.44319 0.57937 0.0
Zn238 Zn 0.56485 0.07654 0.76827 0.0
Zn239 Zn 0.59197 0.09068 0.71877 0.0
O240 O 0.58558 0.06758 0.71675 0.0
O241 O 0.5639 0.05635 0.76388 0.0
O242 O 0.6118 0.10079 0.6746 0.0
O243 O 0.5555 0.08372 0.71013 0.0
O244 O 0.57843 0.09679 0.67273 0.0
C245 C 0.57441 0.05556 0.73794 0.0
C246 C 0.58834 0.09914 0.83821 0.0
O247 O 0.59733 0.10092 0.79762 0.0
O248 O 0.57422 0.08964 0.83496 0.0
C249 C 0.62474 0.10398 0.69452 0.0
O250 O 0.62571 0.1008 0.74743 0.0
C251 C 0.56439 0.09317 0.67395 0.0
Zn252 Zn 0.52381 0.07947 0.26588 0.0
Zn253 Zn 0.51193 0.09496 0.21883 0.0
O254 O 0.49447 0.07217 0.21549 0.0
O255 O 0.50403 0.05982 0.26078 0.0
O256 O 0.5029 0.106 0.17607 0.0
O257 O 0.54017 0.08621 0.20737 0.0
O258 O 0.53133 0.10041 0.17206 0.0
C259 C 0.49301 0.05978 0.23553 0.0
C260 C 0.5241 0.10216 0.33863 0.0
O261 O 0.51717 0.10463 0.29874 0.0
O262 O 0.52816 0.09225 0.33386 0.0
C263 C 0.4958 0.11215 0.19804 0.0
O264 O 0.49404 0.11168 0.25288 0.0
C265 C 0.54123 0.09608 0.17214 0.0
Zn266 Zn 0.93492 0.444 0.18312 0.0
Zn267 Zn 0.91737 0.41595 0.18229 0.0
O268 O 0.93916 0.41946 0.16383 0.0
O269 O 0.95123 0.44346 0.13715 0.0
O270 O 0.90365 0.39328 0.16978 0.0
O271 O 0.92013 0.44925 0.14887 0.0
O272 O 0.90731 0.42479 0.12904 0.0
C273 C 0.95095 0.43089 0.14274 0.0
C274 C 0.92518 0.43208 0.29281 0.0
O275 O 0.91542 0.42036 0.26576 0.0
O276 O 0.9359 0.44325 0.26707 0.0
C277 C 0.90628 0.38302 0.18832 0.0
O278 O 0.91821 0.38698 0.2207 0.0
C279 C 0.90903 0.43814 0.12466 0.0
Zn280 Zn 0.5499 0.48644 0.0755 0.0
Zn281 Zn 0.57841 0.50195 0.09898 0.0
O282 O 0.57122 0.5177 0.08224 0.0
O283 O 0.54812 0.50414 0.04745 0.0
O284 O 0.60146 0.51511 0.10317 0.0
O285 O 0.55151 0.4717 0.02582 0.0
O286 O 0.57622 0.48534 0.04151 0.0
C287 C 0.55927 0.51697 0.06107 0.0
C288 C 0.55661 0.48371 0.19137 0.0
O289 O 0.57054 0.49222 0.17681 0.0
O290 O 0.54596 0.48033 0.15636 0.0
C291 C 0.60791 0.524 0.06162 0.0
O292 O 0.59934 0.52452 0.02113 0.0
C293 C 0.56483 0.47385 0.01902 0.0
Zn294 Zn 0.42524 0.19204 0.86002 0.0
Zn295 Zn 0.43766 0.17895 0.91883 0.0
O296 O 0.41474 0.16208 0.91177 0.0
O297 O 0.40542 0.17241 0.85389 0.0
O298 O 0.44682 0.169 0.96729 0.0
O299 O 0.429 0.20719 0.92047 0.0
O300 O 0.44118 0.19758 0.96652 0.0
C301 C 0.40366 0.16115 0.88286 0.0
C302 C 0.45061 0.19314 0.80403 0.0
O303 O 0.45055 0.18498 0.84506 0.0
O304 O 0.4411 0.19777 0.8018 0.0
C305 C 0.45113 0.16012 0.9469 0.0
O306 O 0.44957 0.15724 0.8927 0.0
C307 C 0.43692 0.2075 0.96214 0.0
Zn308 Zn 0.82031 0.22526 0.90719 0.0
Zn309 Zn 0.83229 0.25351 0.94641 0.0
O310 O 0.84976 0.24826 0.95349 0.0
O311 O 0.83994 0.22526 0.91659 0.0
O312 O 0.84177 0.2746 0.98095 0.0
O313 O 0.80366 0.21718 0.96482 0.0
O314 O 0.81279 0.24083 -0.00586 0.0
C315 C 0.85108 0.23686 0.93851 0.0
C316 C 0.82014 0.24631 0.82691 0.0
O317 O 0.8269 0.25636 0.86489 0.0
O318 O 0.81626 0.23249 0.83533 0.0
C319 C 0.84848 0.27706 0.02823 0.0
O320 O 0.84893 0.26575 0.05375 0.0
C321 C 0.80262 0.22671 -0.00373 0.0
Zn322 Zn 0.78179 0.60187 0.07161 0.0
Zn323 Zn 0.75322 0.58755 0.04416 0.0
O324 O 0.75849 0.60995 0.06053 0.0
O325 O 0.78168 0.62077 0.09569 0.0
O326 O 0.73018 0.576 0.03673 0.0
O327 O 0.78042 0.58636 0.12524 0.0
O328 O 0.75586 0.57414 0.10532 0.0
C329 C 0.77003 0.62158 0.08173 0.0
C330 C 0.77653 0.59227 0.95559 0.0
O331 O 0.76241 0.58655 0.96777 0.0
O332 O 0.7867 0.59951 -0.00778 0.0
C333 C 0.72212 0.58123 0.01597 0.0
O334 O 0.72892 0.59494 -0.00653 0.0
C335 C 0.76725 0.57493 0.13143 0.0
Zn336 Zn 0.48922 0.92954 0.63145 0.0
Zn337 Zn 0.50002 0.91297 0.67569 0.0
O338 O 0.518 0.93557 0.68225 0.0
O339 O 0.50906 0.94884 0.6394 0.0
O340 O 0.50887 0.90052 0.70855 0.0
O341 O 0.47276 0.92213 0.68969 0.0
O342 O 0.48114 0.90757 0.72553 0.0
C343 C 0.51983 0.9483 0.66429 0.0
C344 C 0.48762 0.90752 0.55487 0.0
O345 O 0.49376 0.90407 0.59484 0.0
O346 O 0.4846 0.91815 0.56027 0.0
C347 C 0.51649 0.90413 0.75406 0.0
O348 O 0.51858 0.91628 0.78168 0.0
C349 C 0.47144 0.91217 0.72502 0.0
Zn350 Zn 0.07318 0.56016 0.83429 0.0
Zn351 Zn 0.09035 0.58741 0.8174 0.0
O352 O 0.06866 0.58441 0.83468 0.0
O353 O 0.0576 0.56239 0.87868 0.0
O354 O 0.10366 0.6104 0.81109 0.0
O355 O 0.08886 0.55681 0.87128 0.0
O356 O 0.10175 0.5818 0.87806 0.0
C357 C 0.05739 0.57421 0.86269 0.0
C358 C 0.08049 0.56578 0.71976 0.0
O359 O 0.09076 0.57859 0.7393 0.0
O360 O 0.07008 0.55625 0.75172 0.0
C361 C 0.1048 0.61828 0.85441 0.0
O362 O 0.09735 0.61118 0.90023 0.0
C363 C 0.10027 0.56879 0.88962 0.0
Zn364 Zn 0.45585 0.51509 0.85935 0.0
Zn365 Zn 0.42717 0.50084 0.83518 0.0
O366 O 0.43303 0.48416 0.85252 0.0
O367 O 0.45627 0.49661 0.88707 0.0
O368 O 0.40408 0.48845 0.83027 0.0
O369 O 0.45485 0.53007 0.90984 0.0
O370 O 0.43019 0.5178 0.8923 0.0
C371 C 0.44459 0.48412 0.87384 0.0
C372 C 0.44955 0.51864 0.74348 0.0
O373 O 0.43555 0.51059 0.7579 0.0
O374 O 0.46007 0.5214 0.77844 0.0
C375 C 0.39726 0.4834 0.87709 0.0
O376 O 0.40552 0.48639 0.92297 0.0
C377 C 0.44184 0.52879 0.91572 0.0
Zn378 Zn 0.62829 0.85289 0.85261 0.0
Zn379 Zn 0.60319 0.85277 0.87712 0.0
O380 O 0.62096 0.87189 0.91649 0.0
O381 O 0.64221 0.87275 0.88995 0.0
O382 O 0.58563 0.85706 0.88309 0.0
O383 O 0.62573 0.85195 0.76959 0.0
O384 O 0.60302 0.84832 0.79123 0.0
C385 C 0.63552 0.87835 0.91772 0.0
C386 C 0.60645 0.82738 0.92526 0.0
O387 O 0.59821 0.83366 0.92324 0.0
O388 O 0.619 0.83319 0.89851 0.0
C389 C 0.57373 0.85007 0.8527 0.0
O390 O 0.57202 0.83862 0.82139 0.0
C391 C 0.61248 0.84878 0.75471 0.0
Zn392 Zn 0.16209 0.78702 0.84064 0.0
Zn393 Zn 0.16218 0.76211 0.86787 0.0
O394 O 0.14296 0.76118 0.90506 0.0
O395 O 0.14209 0.78139 0.87633 0.0
O396 O 0.15771 0.74029 0.87975 0.0
O397 O 0.16351 0.78498 0.75808 0.0
O398 O 0.16714 0.76601 0.78193 0.0
C399 C 0.13645 0.76924 0.90499 0.0
C400 C 0.18725 0.79103 0.91556 0.0
O401 O 0.18104 0.77651 0.91412 0.0
O402 O 0.18153 0.79767 0.88766 0.0
C403 C 0.16109 0.73296 0.84447 0.0
O404 O 0.16912 0.74007 0.79967 0.0
C405 C 0.16683 0.77491 0.74453 0.0
Zn406 Zn 0.22413 0.39451 0.91844 0.0
Zn407 Zn 0.25255 0.40974 0.94286 0.0
O408 O 0.2474 0.38726 0.92914 0.0
O409 O 0.22426 0.37568 0.89366 0.0
O410 O 0.27566 0.42126 0.94752 0.0
O411 O 0.22415 0.40961 0.86599 0.0
O412 O 0.24882 0.4228 0.88321 0.0
C413 C 0.23605 0.37529 0.90879 0.0
C414 C 0.22996 0.4048 0.03373 0.0
O415 O 0.24403 0.41112 0.01993 0.0
O416 O 0.21963 0.39682 -0.00148 0.0
C417 C 0.28257 0.42314 0.90085 0.0
O418 O 0.2744 0.41738 0.85508 0.0
C419 C 0.23695 0.42151 0.85911 0.0
Zn420 Zn 0.18844 0.40399 0.5281 0.0
Zn421 Zn 0.17097 0.41351 0.49806 0.0
O422 O 0.15617 0.39386 0.54357 0.0
O423 O 0.17317 0.3893 0.58313 0.0
O424 O 0.15753 0.42119 0.46509 0.0
O425 O 0.19163 0.39727 0.4539 0.0
O426 O 0.18065 0.41021 0.42592 0.0
C427 C 0.15948 0.38631 0.57834 0.0
C428 C 0.20014 0.43448 0.56128 0.0
O429 O 0.18667 0.43143 0.54819 0.0
O430 O 0.20425 0.42476 0.55205 0.0
C431 C 0.15312 0.42914 0.49217 0.0
O432 O 0.15698 0.43232 0.54527 0.0
C433 C 0.188 0.40329 0.41473 0.0
Zn434 Zn 0.62706 0.78576 0.35212 0.0
Zn435 Zn 0.60201 0.76118 0.37806 0.0
O436 O 0.61994 0.75997 0.41708 0.0
O437 O 0.64122 0.77998 0.38875 0.0
O438 O 0.58446 0.7394 0.38561 0.0
O439 O 0.62403 0.78394 0.26931 0.0
O440 O 0.60122 0.76523 0.29219 0.0
C441 C 0.63451 0.76788 0.4176 0.0
C442 C 0.60572 0.78995 0.42578 0.0
O443 O 0.5973 0.77545 0.42412 0.0
O444 O 0.61819 0.79649 0.3985 0.0
C445 C 0.58726 0.72958 0.36356 0.0
O446 O 0.60069 0.73439 0.34019 0.0
C447 C 0.61063 0.77408 0.25516 0.0
Zn448 Zn 0.22818 0.8538 0.34405 0.0
Zn449 Zn 0.25321 0.85375 0.36731 0.0
O450 O 0.25477 0.87305 0.40659 0.0
O451 O 0.23413 0.87361 0.38152 0.0
O452 O 0.2749 0.85735 0.36879 0.0
O453 O 0.22944 0.85288 0.26095 0.0
O454 O 0.24841 0.84899 0.28187 0.0
C455 C 0.24656 0.8794 0.4084 0.0
C456 C 0.22474 0.82837 0.41648 0.0
O457 O 0.23928 0.83475 0.41434 0.0
O458 O 0.2179 0.83408 0.38977 0.0
C459 C 0.28583 0.86744 0.39804 0.0
O460 O 0.28297 0.8753 0.43517 0.0
C461 C 0.23936 0.84951 0.24569 0.0
Zn462 Zn 0.07388 0.51045 0.24758 0.0
Zn463 Zn 0.08627 0.49619 0.27938 0.0
O464 O 0.06541 0.47904 0.24667 0.0
O465 O 0.05899 0.49354 0.19852 0.0
O466 O 0.09615 0.48492 0.3138 0.0
O467 O 0.06769 0.51405 0.32267 0.0
O468 O 0.08489 0.50806 0.34859 0.0
C469 C 0.05668 0.4804 0.21118 0.0
C470 C 0.10349 0.5235 0.20361 0.0
O471 O 0.10179 0.51065 0.21914 0.0
O472 O 0.09347 0.52698 0.21615 0.0
C473 C 0.09924 0.47584 0.28749 0.0
O474 O 0.09591 0.47331 0.23376 0.0
C475 C 0.07634 0.51366 0.36011 0.0
Zn476 Zn 0.48003 0.56154 0.24274 0.0
Zn477 Zn 0.49872 0.58769 0.27083 0.0
O478 O 0.51205 0.58091 0.2255 0.0
O479 O 0.49381 0.56046 0.18443 0.0
O480 O 0.51396 0.60934 0.2942 0.0
O481 O 0.47767 0.55203 0.31694 0.0
O482 O 0.48983 0.57584 0.3463 0.0
C483 C 0.50785 0.57009 0.18992 0.0
C484 C 0.46929 0.58066 0.20994 0.0
O485 O 0.48321 0.59037 0.22077 0.0
O486 O 0.46421 0.56679 0.22212 0.0
C487 C 0.50995 0.61836 0.31546 0.0
O488 O 0.49537 0.61341 0.3242 0.0
C489 C 0.48212 0.56152 0.35682 0.0
Zn490 Zn 0.4443 0.9319 0.12972 0.0
Zn491 Zn 0.41691 0.91706 0.17536 0.0
O492 O 0.42321 0.94018 0.1808 0.0
O493 O 0.44534 0.95201 0.13664 0.0
O494 O 0.39576 0.90614 0.21042 0.0
O495 O 0.45262 0.92378 0.18817 0.0
O496 O 0.42958 0.91056 0.22471 0.0
C497 C 0.43457 0.95245 0.16198 0.0
C498 C 0.42262 0.91022 0.05487 0.0
O499 O 0.41328 0.9076 0.09513 0.0
O500 O 0.43655 0.9202 0.0595 0.0
C501 C 0.39319 0.90977 0.25877 0.0
O502 O 0.40457 0.92075 0.28681 0.0
C503 C 0.44364 0.91422 0.22389 0.0
H504 H 0.23447 0.20709 0.41737 0.0
H505 H 0.2005 0.21111 0.11717 0.0
H506 H 0.23283 0.18011 0.27412 0.0
H507 H 0.20126 0.23731 0.26163 0.0
H508 H 0.21351 0.20061 0.17249 0.0
H509 H 0.22353 0.21924 0.35959 0.0
C510 C 0.23188 0.20376 0.3737 0.0
C511 C 0.23454 0.1925 0.35071 0.0
C512 C 0.21088 0.2087 0.19204 0.0
C513 C 0.22193 0.20638 0.28418 0.0
C514 C 0.20345 0.21472 0.16043 0.0
C515 C 0.19971 0.22508 0.18476 0.0
C516 C 0.21461 0.21305 0.24853 0.0
C517 C 0.20387 0.22933 0.24106 0.0
C518 C 0.22561 0.2107 0.34071 0.0
C519 C 0.23096 0.1887 0.29377 0.0
N520 N 0.21104 0.22327 0.271 0.0
N521 N 0.2248 0.19557 0.26258 0.0
H522 H 0.80609 0.04019 0.25206 0.0
H523 H 0.78457 0.95783 0.37332 0.0
H524 H 0.82279 0.03339 0.41026 0.0
H525 H 0.762 0.96446 0.23097 0.0
H526 H 0.8009 0.9855 0.38107 0.0
H527 H 0.79196 0.01255 0.23803 0.0
C528 C 0.80684 0.0329 0.28381 0.0
C529 C 0.8156 0.03915 0.33259 0.0
C530 C 0.79243 0.9809 0.34794 0.0
C531 C 0.79946 0.00743 0.31658 0.0
C532 C 0.78314 0.96508 0.34329 0.0
C533 C 0.77181 0.95877 0.30159 0.0
C534 C 0.79047 0.99054 0.3105 0.0
C535 C 0.77052 0.96879 0.26393 0.0
C536 C 0.79874 0.0171 0.27575 0.0
C537 C 0.81613 0.0291 0.37216 0.0
N538 N 0.77968 0.98416 0.26942 0.0
N539 N 0.80816 0.01375 0.36331 0.0
H540 H 0.97075 0.77038 0.21926 0.0
H541 H 0.04947 0.83074 0.36538 0.0
H542 H 0.97323 0.78901 0.3847 0.0
H543 H 0.0468 0.80734 0.21037 0.0
H544 H 0.02158 0.81732 0.3695 0.0
H545 H 0.99851 0.78534 0.21236 0.0
C546 C 0.97712 0.77763 0.25423 0.0
C547 C 0.9696 0.77839 0.30276 0.0
C548 C 0.02709 0.81518 0.33446 0.0
C549 C 1.00154 0.79567 0.29492 0.0
C550 C 0.04304 0.82289 0.33189 0.0
C551 C 0.05054 0.82015 0.28752 0.0
C552 C 0.01852 0.80465 0.29226 0.0
C553 C 0.04155 0.80981 0.24545 0.0
C554 C 0.99301 0.78618 0.2502 0.0
C555 C 0.97853 0.78802 0.34658 0.0
N556 N 0.02604 0.80242 0.24896 0.0
N557 N 0.99402 0.79628 0.34161 0.0
H558 H 0.82934 0.80294 0.80032 0.0
H559 H 0.74196 0.78174 0.83056 0.0
H560 H 0.79331 0.76016 0.8658 0.0
H561 H 0.77681 0.82461 0.76112 0.0
H562 H 0.76078 0.77363 0.84072 0.0
H563 H 0.81053 0.81105 0.783 0.0
C564 C 0.81749 0.79523 0.81093 0.0
C565 C 0.81293 0.78085 0.83475 0.0
C566 C 0.76437 0.7848 0.82309 0.0
C567 C 0.79135 0.79008 0.81501 0.0
C568 C 0.75359 0.78947 0.81725 0.0
C569 C 0.7578 0.80393 0.79513 0.0
C570 C 0.77958 0.79465 0.80695 0.0
C571 C 0.77305 0.81337 0.77842 0.0
C572 C 0.80676 0.79988 0.801 0.0
C573 C 0.7974 0.77136 0.84754 0.0
N574 N 0.78342 0.80859 0.7849 0.0
N575 N 0.78722 0.77615 0.83764 0.0
H576 H 0.25478 0.04834 0.8177 0.0
H577 H 0.1854 0.96393 0.75659 0.0
H578 H 0.20746 0.03647 0.82851 0.0
H579 H 0.2324 0.97542 0.77651 0.0
H580 H 0.19324 0.99099 0.76978 0.0
H581 H 0.24671 0.02223 0.78922 0.0
C582 C 0.24268 0.04028 0.81374 0.0
C583 C 0.23178 0.04461 0.82605 0.0
C584 C 0.20182 0.98756 0.77086 0.0
C585 C 0.22243 0.01455 0.79345 0.0
C586 C 0.19736 0.97215 0.76311 0.0
C587 C 0.20824 0.96738 0.76587 0.0
C588 C 0.21726 0.99827 0.78094 0.0
C589 C 0.22359 0.97852 0.77454 0.0
C590 C 0.23807 0.02533 0.79754 0.0
C591 C 0.21626 0.03363 0.81981 0.0
N592 N 0.22761 0.99338 0.7819 0.0
N593 N 0.21204 0.01908 0.80424 0.0
H594 H 0.04017 0.21716 0.67952 0.0
H595 H 0.97511 0.20718 0.89731 0.0
H596 H 0.04795 0.24639 0.8226 0.0
H597 H 0.96733 0.17449 0.76648 0.0
H598 H 1.00137 0.22277 0.86479 0.0
H599 H 0.01298 0.20254 0.70475 0.0
C600 C 0.03616 0.22059 0.71588 0.0
C601 C 0.04638 0.23298 0.74914 0.0
C602 C 0.99393 0.21221 0.84303 0.0
C603 C 0.01536 0.21631 0.7783 0.0
C604 C 0.9789 0.20328 0.86162 0.0
C605 C 0.96897 0.18944 0.83482 0.0
C606 C 0.99918 0.20733 0.79717 0.0
C607 C 0.97458 0.18504 0.78861 0.0
C608 C 0.02066 0.2122 0.73039 0.0
C609 C 0.04054 0.23688 0.79588 0.0
N610 N 0.98931 0.19394 0.77133 0.0
N611 N 0.02547 0.22857 0.80907 0.0
H612 H 0.86668 0.57776 0.61278 0.0
H613 H 0.90182 0.52221 0.59349 0.0
H614 H 0.8675 0.5551 0.46012 0.0
H615 H 0.90066 0.54468 0.74618 0.0
H616 H 0.88984 0.53462 0.5434 0.0
H617 H 0.87971 0.56626 0.66163 0.0
C618 C 0.86963 0.5704 0.58942 0.0
C619 C 0.86594 0.56739 0.53218 0.0
C620 C 0.89222 0.53686 0.58784 0.0
C621 C 0.88088 0.55412 0.5881 0.0
C622 C 0.89908 0.52977 0.61652 0.0
C623 C 0.90225 0.53237 0.67424 0.0
C624 C 0.88848 0.54663 0.61699 0.0
C625 C 0.89842 0.54231 0.70175 0.0
C626 C 0.87708 0.56383 0.61742 0.0
C627 C 0.87009 0.55775 0.50423 0.0
N628 N 0.89173 0.54904 0.67292 0.0
N629 N 0.8773 0.55145 0.53247 0.0
H630 H 0.44924 0.28697 0.56222 0.0
H631 H 0.47653 0.37622 0.54958 0.0
H632 H 0.44022 0.30835 0.42161 0.0
H633 H 0.48238 0.35403 0.69492 0.0
H634 H 0.46312 0.3515 0.50214 0.0
H635 H 0.46139 0.31144 0.61139 0.0
C636 C 0.44979 0.2968 0.54165 0.0
C637 C 0.44371 0.29558 0.48757 0.0
C638 C 0.46729 0.35203 0.54448 0.0
C639 C 0.45766 0.32371 0.54379 0.0
C640 C 0.47495 0.36615 0.57164 0.0
C641 C 0.48064 0.36724 0.62635 0.0
C642 C 0.46532 0.33886 0.57205 0.0
C643 C 0.47822 0.35377 0.65277 0.0
C644 C 0.45672 0.31078 0.56984 0.0
C645 C 0.44475 0.30873 0.46319 0.0
N646 N 0.47081 0.34017 0.62532 0.0
N647 N 0.45163 0.32224 0.49138 0.0
H648 H 0.71747 0.14829 0.56445 0.0
H649 H 0.62641 0.11003 0.58151 0.0
H650 H 0.68854 0.13911 0.41926 0.0
H651 H 0.65451 0.11397 0.7243 0.0
H652 H 0.64919 0.12146 0.52212 0.0
H653 H 0.69471 0.13647 0.62423 0.0
C654 C 0.70634 0.14376 0.54507 0.0
C655 C 0.70494 0.14471 0.48664 0.0
C656 C 0.65038 0.11982 0.56643 0.0
C657 C 0.67881 0.13121 0.55501 0.0
C658 C 0.63737 0.11331 0.60046 0.0
C659 C 0.63852 0.11101 0.6581 0.0
C660 C 0.66472 0.12417 0.59009 0.0
C661 C 0.65305 0.11549 0.68013 0.0
C662 C 0.69334 0.13701 0.57927 0.0
C663 C 0.6902 0.13863 0.46401 0.0
N664 N 0.66557 0.12187 0.64615 0.0
N665 N 0.67774 0.1322 0.4982 0.0
H666 H 0.48149 0.12792 0.23067 0.0
H667 H 0.46334 0.14237 0.91575 0.0
H668 H 0.4954 0.11323 0.08283 0.0
H669 H 0.45427 0.1619 0.06189 0.0
H670 H 0.47433 0.1309 0.9767 0.0
H671 H 0.47073 0.13975 0.17005 0.0
C672 C 0.48229 0.12718 0.18549 0.0
C673 C 0.48937 0.11955 0.16189 0.0
C674 C 0.46996 0.13771 -0.00451 0.0
C675 C 0.47701 0.13305 0.09215 0.0
C676 C 0.46364 0.14425 0.96067 0.0
C677 C 0.45785 0.15313 0.98365 0.0
C678 C 0.47045 0.13996 0.05391 0.0
C679 C 0.45861 0.15517 0.04224 0.0
C680 C 0.47616 0.13396 0.15088 0.0
C681 C 0.49008 0.11899 0.103 0.0
N682 N 0.46475 0.14861 0.07532 0.0
N683 N 0.48395 0.12561 0.07024 0.0
H684 H 0.84787 0.30256 -0.00787 0.0
H685 H 0.90769 0.35779 0.22236 0.0
H686 H 0.86645 0.2868 0.12233 0.0
H687 H 0.88322 0.37169 0.11044 0.0
H688 H 0.89294 0.33178 0.1857 0.0
H689 H 0.86106 0.32808 0.03385 0.0
C690 C 0.85469 0.30445 0.02953 0.0
C691 C 0.85607 0.29251 0.05365 0.0
C692 C 0.89073 0.34051 0.1694 0.0
C693 C 0.87126 0.32173 0.10158 0.0
C694 C 0.89916 0.35537 0.19033 0.0
C695 C 0.89674 0.36698 0.16938 0.0
C696 C 0.87988 0.33722 0.12685 0.0
C697 C 0.8855 0.36313 0.12788 0.0
C698 C 0.8622 0.31902 0.05343 0.0
C699 C 0.86505 0.29564 0.10224 0.0
N700 N 0.87758 0.34863 0.10776 0.0
N701 N 0.87236 0.30995 0.12441 0.0
H702 H 0.6248 0.54692 0.98705 0.0
H703 H 0.70474 0.55493 0.07601 0.0
H704 H 0.62948 0.52149 0.12399 0.0
H705 H 0.70099 0.58749 0.96935 0.0
H706 H 0.67703 0.54125 0.08856 0.0
H707 H 0.65251 0.56078 0.9754 0.0
C708 C 0.63166 0.54427 0.01485 0.0
C709 C 0.62478 0.533 0.0566 0.0
C710 C 0.68227 0.55139 0.0624 0.0
C711 C 0.65659 0.54879 0.04303 0.0
C712 C 0.6981 0.55917 0.05493 0.0
C713 C 0.70524 0.57241 0.02152 0.0
C714 C 0.67345 0.55677 0.0359 0.0
C715 C 0.69601 0.57737 -0.00449 0.0
C716 C 0.6475 0.55222 0.00816 0.0
C717 C 0.63428 0.53011 0.09139 0.0
N718 N 0.6806 0.56953 0.00315 0.0
N719 N 0.64969 0.53789 0.0836 0.0
H720 H 0.5355 0.91006 0.84449 0.0
H721 H 0.5488 0.83957 0.78364 0.0
H722 H 0.51353 0.87769 0.70999 0.0
H723 H 0.57481 0.87482 0.90522 0.0
H724 H 0.53357 0.85168 0.76415 0.0
H725 H 0.54792 0.89576 0.87442 0.0
C726 C 0.53321 0.8999 0.82139 0.0
C727 C 0.52351 0.89514 0.77438 0.0
C728 C 0.54254 0.85671 0.7954 0.0
C729 C 0.53771 0.87868 0.80858 0.0
C730 C 0.55122 0.84976 0.80676 0.0
C731 C 0.56321 0.85623 0.84587 0.0
C732 C 0.54583 0.87026 0.82332 0.0
C733 C 0.56574 0.86945 0.87453 0.0
C734 C 0.54033 0.89174 0.83852 0.0
C735 C 0.52098 0.88186 0.74625 0.0
N736 N 0.5572 0.87607 0.86242 0.0
N737 N 0.52806 0.87414 0.76366 0.0
H738 H 0.12298 0.6369 0.76914 0.0
H739 H 0.14388 0.71437 0.93131 0.0
H740 H 0.10799 0.63827 0.93794 0.0
H741 H 0.16292 0.71324 0.77005 0.0
H742 H 0.13108 0.6865 0.93528 0.0
H743 H 0.13792 0.66484 0.76889 0.0
C744 C 0.12284 0.64306 0.80617 0.0
C745 C 0.11416 0.6352 0.85355 0.0
C746 C 0.13814 0.69235 0.89918 0.0
C747 C 0.13124 0.66721 0.85355 0.0
C748 C 0.14548 0.70829 0.89693 0.0
C749 C 0.15446 0.7162 0.85016 0.0
C750 C 0.13968 0.68421 0.85418 0.0
C751 C 0.15611 0.70766 0.80692 0.0
C752 C 0.1314 0.65902 0.80606 0.0
C753 C 0.11447 0.64381 0.9004 0.0
N754 N 0.14871 0.69214 0.80979 0.0
N755 N 0.1228 0.65932 0.89911 0.0
H756 H 0.30024 0.43083 0.80615 0.0
H757 H 0.37968 0.4731 0.9719 0.0
H758 H 0.30349 0.43547 0.98679 0.0
H759 H 0.37627 0.4733 0.791 0.0
H760 H 0.35188 0.45844 0.9781 0.0
H761 H 0.32804 0.44541 0.79992 0.0
C762 C 0.30679 0.43489 0.8446 0.0
C763 C 0.29948 0.4319 0.89714 0.0
C764 C 0.35719 0.46169 0.93703 0.0
C765 C 0.33144 0.44865 0.89018 0.0
C766 C 0.3731 0.47005 0.93338 0.0
C767 C 0.38036 0.47446 0.88078 0.0
C768 C 0.34841 0.45759 0.88772 0.0
C769 C 0.37118 0.47018 0.83243 0.0
C770 C 0.32269 0.44326 0.84094 0.0
C771 C 0.30861 0.4375 0.94541 0.0
N772 N 0.35569 0.46197 0.83707 0.0
N773 N 0.32411 0.44558 0.94076 0.0
H774 H 0.10799 0.45616 0.24449 0.0
H775 H 0.14247 0.44711 0.53639 0.0
H776 H 0.10741 0.4784 0.39859 0.0
H777 H 0.14386 0.42542 0.38197 0.0
H778 H 0.1289 0.45801 0.48717 0.0
H779 H 0.12048 0.44422 0.29452 0.0
C780 C 0.11046 0.45853 0.28884 0.0
C781 C 0.10665 0.46834 0.31728 0.0
C782 C 0.13214 0.45084 0.46404 0.0
C783 C 0.12097 0.45468 0.37491 0.0
C784 C 0.13988 0.44459 0.49218 0.0
C785 C 0.14436 0.43535 0.46332 0.0
C786 C 0.12883 0.44786 0.40651 0.0
C787 C 0.14067 0.43249 0.40599 0.0
C788 C 0.1176 0.4517 0.31741 0.0
C789 C 0.11014 0.47095 0.37482 0.0
N790 N 0.13316 0.43875 0.37949 0.0
N791 N 0.1171 0.46419 0.40165 0.0
H792 H 0.54091 0.6325 0.29988 0.0
H793 H 0.55705 0.71531 0.39676 0.0
H794 H 0.50542 0.64105 0.35835 0.0
H795 H 0.5911 0.70619 0.32668 0.0
H796 H 0.53817 0.688 0.38927 0.0
H797 H 0.55967 0.6593 0.31585 0.0
C798 C 0.53705 0.63999 0.3163 0.0
C799 C 0.52153 0.63449 0.32753 0.0
C800 C 0.54979 0.69201 0.37573 0.0
C801 C 0.54303 0.66533 0.34586 0.0
C802 C 0.56058 0.70759 0.38009 0.0
C803 C 0.57568 0.71309 0.3621 0.0
C804 C 0.55417 0.68187 0.35341 0.0
C805 C 0.5796 0.70253 0.34083 0.0
C806 C 0.54779 0.65533 0.32537 0.0
C807 C 0.51725 0.64478 0.34891 0.0
N808 N 0.56893 0.6875 0.33701 0.0
N809 N 0.52793 0.65971 0.35721 0.0
H810 H 0.36712 0.88592 0.21415 0.0
H811 H 0.31209 0.88889 0.44994 0.0
H812 H 0.38341 0.91615 0.35728 0.0
H813 H 0.29618 0.8563 0.31393 0.0
H814 H 0.33838 0.89811 0.41952 0.0
H815 H 0.3412 0.8742 0.25217 0.0
C816 C 0.36527 0.89007 0.25368 0.0
C817 C 0.37749 0.90211 0.28237 0.0
C818 C 0.32915 0.88885 0.39659 0.0
C819 C 0.34776 0.88873 0.32619 0.0
C820 C 0.31411 0.88355 0.41404 0.0
C821 C 0.30185 0.87185 0.3843 0.0
C822 C 0.332 0.88249 0.34879 0.0
C823 C 0.30523 0.86537 0.33811 0.0
C824 C 0.35045 0.88335 0.27543 0.0
C825 C 0.37436 0.90694 0.33355 0.0
N826 N 0.31995 0.87086 0.32154 0.0
N827 N 0.35982 0.9003 0.35361 0.0
H828 H 0.12451 0.22473 0.76514 0.0
H829 H 0.11427 0.20873 0.08254 0.0
H830 H 0.08826 0.22282 0.86655 0.0
H831 H 0.15318 0.21606 0.98442 0.0
H832 H 0.09856 0.20048 -0.00197 0.0
H833 H 0.12838 0.20928 0.83483 0.0
C834 C 0.11711 0.22069 0.80167 0.0
C835 C 0.10637 0.22536 0.8113 0.0
C836 C 0.11037 0.20325 -0.00485 0.0
C837 C 0.11104 0.20812 0.89197 0.0
C838 C 0.11932 0.20779 0.0436 0.0
C839 C 0.13515 0.2137 0.03966 0.0
C840 C 0.11748 0.20493 0.94284 0.0
C841 C 0.14108 0.21199 0.98879 0.0
C842 C 0.11928 0.21183 0.84135 0.0
C843 C 0.09685 0.21963 0.85836 0.0
N844 N 0.13236 0.20833 0.94165 0.0
N845 N 0.09972 0.21166 0.89799 0.0
H846 H 0.71402 0.85507 0.22932 0.0
H847 H 0.75027 0.85341 0.93326 0.0
H848 H 0.74893 0.89559 0.14649 0.0
H849 H 0.70629 0.81865 -0.00579 0.0
H850 H 0.75512 0.86642 0.02454 0.0
H851 H 0.7167 0.83946 0.1573 0.0
C852 C 0.72243 0.8607 0.19643 0.0
C853 C 0.73102 0.8767 0.19322 0.0
C854 C 0.7446 0.85573 0.01829 0.0
C855 C 0.73407 0.8588 0.11037 0.0
C856 C 0.74189 0.84823 0.96653 0.0
C857 C 0.7278 0.83503 0.9563 0.0
C858 C 0.73322 0.8498 0.05997 0.0
C859 C 0.71723 0.82888 0.00041 0.0
C860 C 0.72395 0.85175 0.15532 0.0
C861 C 0.74194 0.8833 0.15018 0.0
N862 N 0.7201 0.83639 0.05012 0.0
N863 N 0.74298 0.87432 0.10976 0.0
H864 H 0.11372 0.86452 0.12341 0.0
H865 H 0.19382 0.90324 0.97747 0.0
H866 H 0.15506 0.87316 0.20795 0.0
H867 H 0.1567 0.90788 0.91084 0.0
H868 H 0.18054 0.89528 0.06748 0.0
H869 H 0.12931 0.883 0.05054 0.0
C870 C 0.12604 0.87054 0.12736 0.0
C871 C 0.13309 0.86702 0.17114 0.0
C872 C 0.1754 0.89838 0.03378 0.0
C873 C 0.15095 0.88802 0.08796 0.0
C874 C 0.18304 0.90299 0.98248 0.0
C875 C 0.17631 0.90617 0.93691 0.0
C876 C 0.16066 0.89643 0.03896 0.0
C877 C 0.16228 0.90559 0.94527 0.0
C878 C 0.13494 0.88108 0.08575 0.0
C879 C 0.14911 0.87523 0.17429 0.0
N880 N 0.1547 0.9004 -0.00503 0.0
N881 N 0.15747 0.88512 0.13283 0.0
H882 H 0.26006 0.14535 0.82936 0.0
H883 H 0.20714 0.12084 0.56336 0.0
H884 H 0.23112 0.09907 0.77192 0.0
H885 H 0.24165 0.16711 0.60001 0.0
H886 H 0.20786 0.11389 0.66099 0.0
H887 H 0.2471 0.15391 0.76486 0.0
C888 C 0.25095 0.13695 0.80329 0.0
C889 C 0.24695 0.12149 0.80498 0.0
C890 C 0.21486 0.12572 0.64841 0.0
C891 C 0.23187 0.13125 0.73178 0.0
C892 C 0.21419 0.12977 0.59289 0.0
C893 C 0.22482 0.1444 0.57345 0.0
C894 C 0.22625 0.13645 0.68392 0.0
C895 C 0.23357 0.15558 0.61328 0.0
C896 C 0.24345 0.14186 0.76691 0.0
C897 C 0.23484 0.11114 0.77108 0.0
N898 N 0.23462 0.15124 0.66641 0.0
N899 N 0.22786 0.11623 0.73538 0.0
H900 H 0.83644 0.10409 0.60043 0.0
H901 H 0.91171 0.14128 0.78093 0.0
H902 H 0.87418 0.09727 0.56036 0.0
H903 H 0.86833 0.13324 0.84539 0.0
H904 H 0.89831 0.12475 0.7006 0.0
H905 H 0.84744 0.11344 0.69326 0.0
C906 C 0.84679 0.10407 0.61223 0.0
C907 C 0.85437 0.0998 0.5735 0.0
C908 C 0.89176 0.12651 0.73276 0.0
C909 C 0.86748 0.11121 0.67795 0.0
C910 C 0.89941 0.13606 0.77822 0.0
C911 C 0.89115 0.13879 0.81957 0.0
C912 C 0.87582 0.11985 0.72849 0.0
C913 C 0.8752 0.13158 0.81435 0.0
C914 C 0.85316 0.10953 0.6649 0.0
C915 C 0.86793 0.10028 0.58981 0.0
N916 N 0.86809 0.12257 0.76945 0.0
N917 N 0.87427 0.10625 0.64059 0.0
H918 H 0.86055 0.76816 0.72518 0.0
H919 H 0.88316 0.72285 0.50695 0.0
H920 H 0.85103 0.72193 0.75043 0.0
H921 H 0.90469 0.77196 0.50456 0.0
H922 H 0.86997 0.72222 0.59345 0.0
H923 H 0.87465 0.76955 0.63889 0.0
C924 C 0.86117 0.75822 0.71195 0.0
C925 C 0.85462 0.74489 0.74478 0.0
C926 C 0.87771 0.73318 0.5746 0.0
C927 C 0.87083 0.7465 0.64741 0.0
C928 C 0.88531 0.73354 0.52544 0.0
C929 C 0.89507 0.74748 0.49906 0.0
C930 C 0.87964 0.74686 0.59714 0.0
C931 C 0.89739 0.76101 0.52427 0.0
C932 C 0.86938 0.7591 0.6633 0.0
C933 C 0.85593 0.73243 0.72637 0.0
N934 N 0.88955 0.76037 0.57179 0.0
N935 N 0.86389 0.73354 0.67903 0.0
H936 H 0.8942 0.78935 0.9543 0.0
H937 H 0.88475 0.77719 0.2752 0.0
H938 H 0.85532 0.78351 0.04933 0.0
H939 H 0.92348 0.78242 0.18065 0.0
H940 H 0.87892 0.78983 0.19986 0.0
H941 H 0.90969 0.79788 0.03934 0.0
C942 C 0.8891 0.79051 -0.00728 0.0
C943 C 0.87335 0.7852 -0.00452 0.0
C944 C 0.88893 0.78859 0.19593 0.0
C945 C 0.8908 0.79435 0.09314 0.0
C946 C 0.89224 0.78134 0.23891 0.0
C947 C 0.90432 0.77838 0.23309 0.0
C948 C 0.89748 0.79245 0.14599 0.0
C949 C 0.91388 0.78427 0.18611 0.0
C950 C 0.89792 0.79527 0.04143 0.0
C951 C 0.86736 0.78718 0.04577 0.0
N952 N 0.90999 0.79064 0.14345 0.0
N953 N 0.87597 0.7911 0.09324 0.0
H954 H 0.2498 0.07872 0.09959 0.0
H955 H 0.2268 0.13046 0.26366 0.0
H956 H 0.2241 0.09789 0.02669 0.0
H957 H 0.24476 0.10427 0.34301 0.0
H958 H 0.22004 0.11383 0.18153 0.0
H959 H 0.2416 0.08176 0.19307 0.0
C960 C 0.24175 0.0828 0.10326 0.0
C961 C 0.23769 0.08821 0.05603 0.0
C962 C 0.22521 0.11155 0.21733 0.0
C963 C 0.22898 0.09255 0.16206 0.0
C964 C 0.22918 0.12113 0.26405 0.0
C965 C 0.23678 0.11905 0.30948 0.0
C966 C 0.2291 0.09998 0.21581 0.0
C967 C 0.23927 0.10656 0.30828 0.0
C968 C 0.23723 0.08477 0.15662 0.0
C969 C 0.22749 0.09368 0.06262 0.0
N970 N 0.23571 0.09769 0.26176 0.0
N971 N 0.22382 0.09614 0.11489 0.0
H972 H 0.87322 0.08807 0.2572 0.0
H973 H 0.93775 0.16251 0.12718 0.0
H974 H 0.90177 0.12943 0.34977 0.0
H975 H 0.91162 0.1205 0.0361 0.0
H976 H 0.93184 0.14796 0.21473 0.0
H977 H 0.89293 0.09662 0.18441 0.0
C978 C 0.88377 0.09877 0.26285 0.0
C979 C 0.88561 0.10833 0.30841 0.0
C980 C 0.92788 0.14181 0.17544 0.0
C981 C 0.90813 0.11827 0.22528 0.0
C982 C 0.93149 0.15015 0.12535 0.0
C983 C 0.92489 0.14265 0.07492 0.0
C984 C 0.91732 0.12601 0.17453 0.0
C985 C 0.91672 0.12665 0.07464 0.0
C986 C 0.89506 0.10367 0.22132 0.0
C987 C 0.89963 0.12195 0.3142 0.0
N988 N 0.91272 0.11885 0.12396 0.0
N989 N 0.91019 0.12668 0.2725 0.0
H990 H 0.70478 0.89658 0.49463 0.0
H991 H 0.7199 0.87286 0.74109 0.0
H992 H 0.74926 0.90664 0.43658 0.0
H993 H 0.74715 0.86108 0.6352 0.0
H994 H 0.72178 0.89125 0.67058 0.0
H995 H 0.71006 0.8892 0.58554 0.0
C996 C 0.71589 0.89772 0.50186 0.0
C997 C 0.7266 0.90222 0.45827 0.0
C998 C 0.72739 0.88469 0.66273 0.0
C999 C 0.73277 0.89361 0.56223 0.0
C1000 C 0.72643 0.87426 0.70317 0.0
C1001 C 0.73303 0.86512 0.69326 0.0
C1002 C 0.73475 0.88578 0.61146 0.0
C1003 C 0.74169 0.86773 0.64411 0.0
C1004 C 0.71897 0.89357 0.55397 0.0
C1005 C 0.74076 0.90334 0.46944 0.0
N1006 N 0.74206 0.87763 0.60441 0.0
N1007 N 0.74329 0.89864 0.51997 0.0
H1008 H 0.11639 0.82131 0.47381 0.0
H1009 H 0.14002 0.85994 0.72072 0.0
H1010 H 0.10569 0.85543 0.41741 0.0
H1011 H 0.1516 0.89901 0.61525 0.0
H1012 H 0.12176 0.84344 0.65007 0.0
H1013 H 0.12399 0.834 0.56456 0.0
C1014 C 0.11515 0.83121 0.48141 0.0
C1015 C 0.11038 0.83733 0.43835 0.0
C1016 C 0.12826 0.85562 0.64235 0.0
C1017 C 0.11927 0.85214 0.54205 0.0
C1018 C 0.13861 0.86507 0.68284 0.0
C1019 C 0.14765 0.88083 0.67313 0.0
C1020 C 0.12712 0.86192 0.59121 0.0
C1021 C 0.14503 0.88689 0.62401 0.0
C1022 C 0.11944 0.83846 0.5334 0.0
C1023 C 0.10918 0.8503 0.44991 0.0
N1024 N 0.13518 0.87738 0.58428 0.0
N1025 N 0.11401 0.85755 0.5003 0.0
H1026 H 0.13776 0.25045 0.57615 0.0
H1027 H 0.13581 0.26631 0.25113 0.0
H1028 H 0.10017 0.25266 0.50012 0.0
H1029 H 0.16287 0.24788 0.31931 0.0
H1030 H 0.12381 0.26324 0.34292 0.0
H1031 H 0.14787 0.25062 0.48298 0.0
C1032 C 0.13155 0.2508 0.53958 0.0
C1033 C 0.11817 0.25162 0.54554 0.0
C1034 C 0.13235 0.25985 0.33771 0.0
C1035 C 0.12982 0.25211 0.43893 0.0
C1036 C 0.13934 0.26174 0.28553 0.0
C1037 C 0.15044 0.25741 0.27762 0.0
C1038 C 0.13661 0.25376 0.38252 0.0
C1039 C 0.15442 0.25142 0.32357 0.0
C1040 C 0.13732 0.25089 0.48648 0.0
C1041 C 0.11049 0.25197 0.49706 0.0
N1042 N 0.14755 0.24984 0.3742 0.0
N1043 N 0.11657 0.25244 0.4455 0.0
H1044 H 0.8194 0.56069 0.33291 0.0
H1045 H 0.77892 0.55646 0.1123 0.0
H1046 H 0.78176 0.55398 0.43742 0.0
H1047 H 0.75308 0.56598 0.23322 0.0
H1048 H 0.78501 0.54327 0.18497 0.0
H1049 H 0.80216 0.5504 0.25348 0.0
C1050 C 0.8073 0.55618 0.33979 0.0
C1051 C 0.80202 0.55859 0.39096 0.0
C1052 C 0.77783 0.548 0.1958 0.0
C1053 C 0.78212 0.5472 0.30008 0.0
C1054 C 0.77415 0.55532 0.15404 0.0
C1055 C 0.76575 0.5625 0.16749 0.0
C1056 C 0.7736 0.54853 0.25168 0.0
C1057 C 0.75971 0.56068 0.22159 0.0
C1058 C 0.79733 0.55037 0.29406 0.0
C1059 C 0.78627 0.55262 0.39787 0.0
N1060 N 0.7641 0.5542 0.26223 0.0
N1061 N 0.77693 0.54768 0.35243 0.0
H1062 H 0.43 0.23044 0.964 0.0
H1063 H 0.41634 0.24836 0.2257 0.0
H1064 H 0.45242 0.21116 0.06096 0.0
H1065 H 0.45786 0.25001 0.27854 0.0
H1066 H 0.422 0.24521 0.12872 0.0
H1067 H 0.43323 0.24734 0.04235 0.0
C1068 C 0.43566 0.22978 0.00169 0.0
C1069 C 0.44053 0.21901 0.0066 0.0
C1070 C 0.43034 0.24705 0.16077 0.0
C1071 C 0.44404 0.2382 0.09664 0.0
C1072 C 0.42711 0.24894 0.21619 0.0
C1073 C 0.43675 0.24959 0.25954 0.0
C1074 C 0.4431 0.24538 0.14934 0.0
C1075 C 0.45029 0.24974 0.24576 0.0
C1076 C 0.43745 0.23943 0.04644 0.0
C1077 C 0.44817 0.21902 0.05581 0.0
N1078 N 0.45286 0.24716 0.19189 0.0
N1079 N 0.44951 0.22832 0.09926 0.0
H1080 H 0.77747 0.19818 0.00162 0.0
H1081 H 0.75597 0.216 0.29608 0.0
H1082 H 0.79716 0.24297 0.07647 0.0
H1083 H 0.73923 0.17076 0.23032 0.0
H1084 H 0.76239 0.22629 0.20096 0.0
H1085 H 0.7567 0.18874 0.06974 0.0
C1086 C 0.7774 0.20608 0.03222 0.0
C1087 C 0.78935 0.2213 0.03448 0.0
C1088 C 0.75674 0.21403 0.20682 0.0
C1089 C 0.76546 0.21053 0.11244 0.0
C1090 C 0.75279 0.20813 0.2611 0.0
C1091 C 0.74748 0.19259 0.27082 0.0
C1092 C 0.75554 0.20428 0.16269 0.0
C1093 C 0.74355 0.18286 0.22438 0.0
C1094 C 0.76542 0.20069 0.07078 0.0
C1095 C 0.78839 0.23107 0.07402 0.0
N1096 N 0.74823 0.18892 0.17223 0.0
N1097 N 0.7768 0.22545 0.1121 0.0
H1098 H 0.88304 0.44951 0.81328 0.0
H1099 H 0.9047 0.46266 0.12792 0.0
H1100 H 0.89827 0.49202 0.90028 0.0
H1101 H 0.89036 0.42047 0.03897 0.0
H1102 H 0.89282 0.47036 0.05564 0.0
H1103 H 0.87502 0.43592 0.90266 0.0
C1104 C 0.88395 0.45589 0.85108 0.0
C1105 C 0.89165 0.4719 0.84994 0.0
C1106 C 0.89195 0.45927 0.0524 0.0
C1107 C 0.88334 0.45661 0.95239 0.0
C1108 C 0.89881 0.45489 0.09354 0.0
C1109 C 0.89899 0.44115 0.08824 0.0
C1110 C 0.88551 0.44999 0.00494 0.0
C1111 C 0.8908 0.43133 0.04391 0.0
C1112 C 0.87956 0.44816 0.90228 0.0
C1113 C 0.89255 0.47967 0.89971 0.0
N1114 N 0.88473 0.43612 0.0031 0.0
N1115 N 0.88898 0.47199 0.94943 0.0
H1116 H 0.58766 0.47787 0.94554 0.0
H1117 H 0.52628 0.40371 0.81181 0.0
H1118 H 0.54609 0.44335 0.02327 0.0
H1119 H 0.56634 0.43807 0.72621 0.0
H1120 H 0.54024 0.4113 0.90025 0.0
H1121 H 0.58644 0.45852 0.87992 0.0
C1122 C 0.57852 0.46614 0.94961 0.0
C1123 C 0.56659 0.46225 0.98788 0.0
C1124 C 0.54624 0.41684 0.86188 0.0
C1125 C 0.56511 0.44016 0.91388 0.0
C1126 C 0.53829 0.41229 0.81106 0.0
C1127 C 0.54493 0.42096 0.76254 0.0
C1128 C 0.56064 0.43026 0.86337 0.0
C1129 C 0.56062 0.43165 0.76368 0.0
C1130 C 0.57783 0.45507 0.91244 0.0
C1131 C 0.55517 0.44689 -0.00742 0.0
N1132 N 0.5678 0.43656 0.81388 0.0
N1133 N 0.55455 0.43648 0.95531 0.0
H1134 H 0.59965 0.0929 0.93131 0.0
H1135 H 0.54754 0.11744 0.08933 0.0
H1136 H 0.58661 0.12421 0.86344 0.0
H1137 H 0.56405 0.08919 0.16161 0.0
H1138 H 0.56705 0.12545 0.01613 0.0
H1139 H 0.59355 0.09783 0.02558 0.0
C1140 C 0.59636 0.10151 0.93675 0.0
C1141 C 0.59352 0.1081 0.8899 0.0
C1142 C 0.56657 0.11768 0.04854 0.0
C1143 C 0.58557 0.11308 -0.00339 0.0
C1144 C 0.55534 0.11302 0.09013 0.0
C1145 C 0.55387 0.1023 0.13078 0.0
C1146 C 0.57628 0.11145 0.04724 0.0
C1147 C 0.56451 0.0972 0.13038 0.0
C1148 C 0.59257 0.10412 -0.00953 0.0
C1149 C 0.58893 0.11892 0.89884 0.0
N1150 N 0.57508 0.10163 0.08875 0.0
N1151 N 0.58461 0.12072 0.95102 0.0
H1152 H 0.55102 0.12664 0.36694 0.0
H1153 H 0.53528 0.08834 0.66704 0.0
H1154 H 0.50636 0.09504 0.43154 0.0
H1155 H 0.57967 0.1136 0.58879 0.0
H1156 H 0.52483 0.09765 0.59477 0.0
H1157 H 0.56145 0.12994 0.46184 0.0
C1158 C 0.54326 0.12111 0.40179 0.0
C1159 C 0.52786 0.11051 0.39174 0.0
C1160 C 0.5369 0.10134 0.59386 0.0
C1161 C 0.53975 0.11353 0.49947 0.0
C1162 C 0.54288 0.09594 0.63491 0.0
C1163 C 0.55832 0.09987 0.63315 0.0
C1164 C 0.54639 0.11068 0.55046 0.0
C1165 C 0.56764 0.11002 0.59115 0.0
C1166 C 0.54926 0.12275 0.4558 0.0
C1167 C 0.51831 0.10335 0.43787 0.0
N1168 N 0.56148 0.11489 0.55099 0.0
N1169 N 0.52449 0.10464 0.4897 0.0
H1170 H 0.94667 0.44002 0.37309 0.0
H1171 H 0.90794 0.47466 0.56685 0.0
H1172 H 0.90038 0.42992 0.34656 0.0
H1173 H 0.94685 0.47089 0.61901 0.0
H1174 H 0.90493 0.45858 0.48515 0.0
H1175 H 0.94659 0.4507 0.46502 0.0
C1176 C 0.93631 0.43963 0.38767 0.0
C1177 C 0.92347 0.434 0.3529 0.0
C1178 C 0.91406 0.46123 0.51476 0.0
C1179 C 0.92349 0.44684 0.45645 0.0
C1180 C 0.91589 0.47055 0.56094 0.0
C1181 C 0.92773 0.47422 0.59952 0.0
C1182 C 0.92425 0.45574 0.50693 0.0
C1183 C 0.93759 0.4684 0.59025 0.0
C1184 C 0.9363 0.44584 0.43983 0.0
C1185 C 0.91041 0.43398 0.37284 0.0
N1186 N 0.93568 0.45955 0.54478 0.0
N1187 N 0.91084 0.44063 0.42306 0.0
H1188 H 0.54358 0.47213 0.54888 0.0
H1189 H 0.53099 0.45769 0.2216 0.0
H1190 H 0.51296 0.4276 0.47953 0.0
H1191 H 0.57259 0.49472 0.29008 0.0
H1192 H 0.52297 0.44738 0.31594 0.0
H1193 H 0.55293 0.48161 0.45444 0.0
C1194 C 0.53874 0.46436 0.51373 0.0
C1195 C 0.52739 0.44905 0.522 0.0
C1196 C 0.5339 0.4577 0.31037 0.0
C1197 C 0.53812 0.45988 0.414 0.0
C1198 C 0.53846 0.46365 0.25662 0.0
C1199 C 0.55244 0.47715 0.24823 0.0
C1200 C 0.54324 0.46543 0.35627 0.0
C1201 C 0.56174 0.48429 0.2949 0.0
C1202 C 0.5442 0.46977 0.45996 0.0
C1203 C 0.52168 0.43948 0.47499 0.0
N1204 N 0.55688 0.47842 0.34727 0.0
N1205 N 0.52705 0.44509 0.42282 0.0
H1206 H 0.44135 0.20064 0.47683 0.0
H1207 H 0.4751 0.22063 0.78127 0.0
H1208 H 0.45804 0.24399 0.56057 0.0
H1209 H 0.44824 0.17509 0.71594 0.0
H1210 H 0.48001 0.23064 0.68547 0.0
H1211 H 0.45376 0.1932 0.54806 0.0
C1212 C 0.44783 0.20871 0.50968 0.0
C1213 C 0.44822 0.22278 0.51384 0.0
C1214 C 0.47361 0.21839 0.69179 0.0
C1215 C 0.46255 0.21432 0.59519 0.0
C1216 C 0.47105 0.21264 0.74648 0.0
C1217 C 0.461 0.19707 0.75618 0.0
C1218 C 0.46588 0.20842 0.64712 0.0
C1219 C 0.45593 0.18721 0.70995 0.0
C1220 C 0.45499 0.20447 0.55012 0.0
C1221 C 0.4571 0.23288 0.55654 0.0
N1222 N 0.45795 0.19309 0.65719 0.0
N1223 N 0.46367 0.22833 0.59619 0.0
H1224 H 0.80854 0.22242 0.49271 0.0
H1225 H 0.79277 0.24264 0.79793 0.0
H1226 H 0.76408 0.20199 0.57131 0.0
H1227 H 0.83744 0.25595 0.73267 0.0
H1228 H 0.7822 0.23519 0.70329 0.0
H1229 H 0.81895 0.24084 0.56907 0.0
C1230 C 0.80093 0.22181 0.52599 0.0
C1231 C 0.78545 0.21039 0.52625 0.0
C1232 C 0.79441 0.24028 0.70917 0.0
C1233 C 0.79736 0.23165 0.61363 0.0
C1234 C 0.80048 0.2448 0.76296 0.0
C1235 C 0.81596 0.2499 0.77263 0.0
C1236 C 0.80393 0.24073 0.66534 0.0
C1237 C 0.82545 0.25215 0.72652 0.0
C1238 C 0.80689 0.23243 0.56937 0.0
C1239 C 0.77613 0.2104 0.56994 0.0
N1240 N 0.81922 0.2472 0.67485 0.0
N1241 N 0.78227 0.22077 0.61228 0.0
H1242 H 0.76287 0.59054 0.85381 0.0
H1243 H 0.82975 0.58996 0.67558 0.0
H1244 H 0.8019 0.59098 0.92937 0.0
H1245 H 0.80108 0.60678 0.60969 0.0
H1246 H 0.81706 0.58601 0.76686 0.0
H1247 H 0.77387 0.59162 0.76042 0.0
C1248 C 0.7736 0.59062 0.85064 0.0
C1249 C 0.78158 0.59082 0.89906 0.0
C1250 C 0.81361 0.5906 0.73233 0.0
C1251 C 0.79415 0.59205 0.79344 0.0
C1252 C 0.82087 0.59291 0.68039 0.0
C1253 C 0.81656 0.59883 0.63515 0.0
C1254 C 0.80182 0.59402 0.73872 0.0
C1255 C 0.80488 0.60234 0.6436 0.0
C1256 C 0.77992 0.59136 0.7976 0.0
C1257 C 0.79549 0.591 0.89293 0.0
N1258 N 0.79786 0.59981 0.69432 0.0
N1259 N 0.80134 0.59164 0.8411 0.0
H1260 H 0.47215 0.91755 0.2256 0.0
H1261 H 0.46001 0.88331 0.53217 0.0
H1262 H 0.429 0.89524 0.31367 0.0
H1263 H 0.50376 0.91378 0.4581 0.0
H1264 H 0.44819 0.87914 0.43934 0.0
H1265 H 0.48302 0.90861 0.29741 0.0
C1266 C 0.4649 0.91067 0.25986 0.0
C1267 C 0.44973 0.90749 0.26445 0.0
C1268 C 0.46047 0.88625 0.44291 0.0
C1269 C 0.46216 0.89714 0.34671 0.0
C1270 C 0.46725 0.8884 0.49571 0.0
C1271 C 0.48283 0.89891 0.50238 0.0
C1272 C 0.46939 0.89483 0.39704 0.0
C1273 C 0.4917 0.90553 0.45434 0.0
C1274 C 0.47112 0.90548 0.30064 0.0
C1275 C 0.44082 0.89822 0.30905 0.0
N1276 N 0.4848 0.90369 0.40369 0.0
N1277 N 0.44725 0.89357 0.349 0.0
H1278 H 0.10579 0.57342 0.65494 0.0
H1279 H 0.09971 0.5242 0.43675 0.0
H1280 H 0.05656 0.54691 0.6542 0.0
H1281 H 0.05592 0.52061 0.40624 0.0
H1282 H 0.10242 0.53902 0.52182 0.0
H1283 H 0.1062 0.56138 0.56567 0.0
C1284 C 0.0951 0.56526 0.63547 0.0
C1285 C 0.08113 0.56103 0.66188 0.0
C1286 C 0.09233 0.53514 0.49608 0.0
C1287 C 0.08149 0.547 0.56148 0.0
C1288 C 0.09064 0.52646 0.44814 0.0
C1289 C 0.07757 0.5212 0.41444 0.0
C1290 C 0.08078 0.53844 0.51037 0.0
C1291 C 0.06621 0.5245 0.43091 0.0
C1292 C 0.09533 0.5582 0.58522 0.0
C1293 C 0.06758 0.55036 0.63532 0.0
N1294 N 0.06804 0.53283 0.47789 0.0
N1295 N 0.06809 0.54371 0.58657 0.0
H1296 H 0.47665 0.54306 0.71235 0.0
H1297 H 0.45905 0.53349 0.38678 0.0
H1298 H 0.43246 0.51009 0.64658 0.0
H1299 H 0.49364 0.57623 0.45763 0.0
H1300 H 0.45047 0.52362 0.48116 0.0
H1301 H 0.48429 0.55429 0.6189 0.0
C1302 C 0.46854 0.53815 0.67816 0.0
C1303 C 0.45391 0.52552 0.68705 0.0
C1304 C 0.4599 0.53517 0.4761 0.0
C1305 C 0.46267 0.53834 0.58012 0.0
C1306 C 0.46491 0.54081 0.42227 0.0
C1307 C 0.47718 0.5557 0.41438 0.0
C1308 C 0.46734 0.54438 0.52259 0.0
C1309 C 0.48418 0.56469 0.46191 0.0
C1310 C 0.47291 0.54466 0.62498 0.0
C1311 C 0.44384 0.51978 0.64144 0.0
N1312 N 0.47923 0.55882 0.51423 0.0
N1313 N 0.44847 0.52616 0.58963 0.0
H1314 H 0.61879 0.8088 0.92475 0.0
H1315 H 0.58345 0.77139 0.22261 0.0
H1316 H 0.58515 0.81578 0.01085 0.0
H1317 H 0.62675 0.77946 0.15823 0.0
H1318 H 0.57853 0.78001 0.13227 0.0
H1319 H 0.61598 0.79038 -0.00344 0.0
C1320 C 0.61062 0.8063 0.95835 0.0
C1321 C 0.60244 0.81413 0.96247 0.0
C1322 C 0.58891 0.77949 0.13755 0.0
C1323 C 0.59925 0.79302 0.04513 0.0
C1324 C 0.59165 0.77444 0.18876 0.0
C1325 C 0.60557 0.77484 0.19774 0.0
C1326 C 0.60009 0.78471 0.09516 0.0
C1327 C 0.61592 0.77909 0.15298 0.0
C1328 C 0.60904 0.79576 -0.00066 0.0
C1329 C 0.59182 0.81015 0.00641 0.0
N1330 N 0.61303 0.78399 0.10381 0.0
N1331 N 0.59071 0.80004 0.0467 0.0
H1332 H 0.23385 0.86059 0.15001 0.0
H1333 H 0.19915 0.78134 3e-05 0.0
H1334 H 0.24214 0.82523 0.21126 0.0
H1335 H 0.20492 0.82204 0.9181 0.0
H1336 H 0.21725 0.79741 0.0728 0.0
H1337 H 0.22592 0.84746 0.05984 0.0
C1338 C 0.23436 0.85024 0.14379 0.0
C1339 C 0.23857 0.84393 0.18794 0.0
C1340 C 0.21478 0.80281 0.0382 0.0
C1341 C 0.22896 0.82848 0.08569 0.0
C1342 C 0.20444 0.79364 -0.00334 0.0
C1343 C 0.20024 0.80033 0.9536 0.0
C1344 C 0.2208 0.81872 0.0367 0.0
C1345 C 0.20754 0.81634 0.95116 0.0
C1346 C 0.2298 0.8427 0.09239 0.0
C1347 C 0.23901 0.83047 0.17799 0.0
N1348 N 0.21723 0.82494 -0.00741 0.0
N1349 N 0.23388 0.82296 0.12826 0.0
H1350 H 0.24526 0.40964 0.13391 0.0
H1351 H 0.17938 0.41086 0.31592 0.0
H1352 H 0.20366 0.40413 0.06134 0.0
H1353 H 0.21033 0.39713 0.38393 0.0
H1354 H 0.19067 0.41295 0.22275 0.0
H1355 H 0.2353 0.4101 0.22788 0.0
C1356 C 0.23415 0.40872 0.13778 0.0
C1357 C 0.22518 0.40668 0.09016 0.0
C1358 C 0.19493 0.40945 0.25821 0.0
C1359 C 0.21384 0.40727 0.19639 0.0
C1360 C 0.18847 0.40822 0.31121 0.0
C1361 C 0.19383 0.40369 0.35755 0.0
C1362 C 0.20696 0.40639 0.25193 0.0
C1363 C 0.20573 0.4005 0.34922 0.0
C1364 C 0.22844 0.40888 0.19117 0.0
C1365 C 0.21084 0.40551 0.0972 0.0
N1366 N 0.21195 0.40199 0.29745 0.0
N1367 N 0.20561 0.40582 0.14934 0.0
H1368 H 0.25812 0.43981 0.77984 0.0
H1369 H 0.19171 0.44572 0.65021 0.0
H1370 H 0.21695 0.43172 0.86385 0.0
H1371 H 0.23114 0.45164 0.55908 0.0
H1372 H 0.20694 0.4539 0.73591 0.0
H1373 H 0.2544 0.45568 0.71033 0.0
C1374 C 0.24857 0.44176 0.78447 0.0
C1375 C 0.23748 0.43404 0.8259 0.0
C1376 C 0.21249 0.45401 0.69679 0.0
C1377 C 0.23311 0.452 0.74738 0.0
C1378 C 0.2038 0.44955 0.64757 0.0
C1379 C 0.21003 0.44727 0.59846 0.0
C1380 C 0.22724 0.45579 0.69629 0.0
C1381 C 0.2258 0.45265 0.59709 0.0
C1382 C 0.24644 0.45082 0.74502 0.0
C1383 C 0.22544 0.43707 0.83101 0.0
N1384 N 0.23376 0.45605 0.64591 0.0
N1385 N 0.2234 0.44557 0.79157 0.0
H1386 H 0.62897 0.85982 0.65873 0.0
H1387 H 0.58408 0.78047 0.51005 0.0
H1388 H 0.58528 0.82471 0.72056 0.0
H1389 H 0.61912 0.82097 0.42757 0.0
H1390 H 0.5821 0.7967 0.58235 0.0
H1391 H 0.62361 0.84664 0.56863 0.0
C1392 C 0.61805 0.84952 0.65265 0.0
C1393 C 0.60758 0.84328 0.69696 0.0
C1394 C 0.58999 0.80202 0.54771 0.0
C1395 C 0.60158 0.82776 0.59479 0.0
C1396 C 0.59112 0.79276 0.50644 0.0
C1397 C 0.60203 0.79934 0.46339 0.0
C1398 C 0.59992 0.81792 0.54596 0.0
C1399 C 0.61079 0.81534 0.46065 0.0
C1400 C 0.61499 0.84194 0.60128 0.0
C1401 C 0.59362 0.82989 0.68717 0.0
N1402 N 0.60972 0.82404 0.50183 0.0
N1403 N 0.59117 0.82233 0.63748 0.0
H1404 H 0.19152 0.77237 0.71368 0.0
H1405 H 0.19396 0.80928 0.41447 0.0
H1406 H 0.15614 0.77983 0.64667 0.0
H1407 H 0.23451 0.81714 0.50316 0.0
H1408 H 0.17832 0.79071 0.4858 0.0
H1409 H 0.20531 0.78101 0.62377 0.0
C1410 C 0.18639 0.77527 0.67932 0.0
C1411 C 0.17275 0.77551 0.68742 0.0
C1412 C 0.19064 0.79632 0.48926 0.0
C1413 C 0.18839 0.7854 0.58537 0.0
C1414 C 0.19961 0.80695 0.44855 0.0
C1415 C 0.21559 0.81506 0.45354 0.0
C1416 C 0.19765 0.79378 0.53565 0.0
C1417 C 0.22223 0.81129 0.49806 0.0
C1418 C 0.19433 0.78034 0.62838 0.0
C1419 C 0.16668 0.77958 0.64206 0.0
N1420 N 0.21321 0.80108 0.53807 0.0
N1421 N 0.1746 0.78449 0.59317 0.0
H1422 H 0.11726 0.58739 0.97677 0.0
H1423 H 0.11344 0.51515 0.11052 0.0
H1424 H 0.10734 0.54621 0.8885 0.0
H1425 H 0.11944 0.55444 0.20274 0.0
H1426 H 0.12261 0.53087 0.0256 0.0
H1427 H 0.12874 0.58011 0.05287 0.0
C1428 C 0.11792 0.57707 0.97267 0.0
C1429 C 0.11089 0.5671 0.92749 0.0
C1430 C 0.12247 0.53622 0.06485 0.0
C1431 C 0.1238 0.55863 0.01403 0.0
C1432 C 0.1174 0.52726 0.11349 0.0
C1433 C 0.11526 0.53345 0.16295 0.0
C1434 C 0.12513 0.5513 0.06613 0.0
C1435 C 0.12058 0.5492 0.16471 0.0
C1436 C 0.12444 0.57288 0.01609 0.0
C1437 C 0.1122 0.55395 0.92372 0.0
N1438 N 0.12484 0.5575 0.11655 0.0
N1439 N 0.1182 0.54993 0.96699 0.0
H1440 H 0.41762 0.52674 0.97679 0.0
H1441 H 0.43834 0.5682 0.20614 0.0
H1442 H 0.46342 0.55856 0.92203 0.0
H1443 H 0.4795 0.5998 0.11902 0.0
H1444 H 0.42529 0.55956 0.11706 0.0
H1445 H 0.4184 0.54642 0.03883 0.0
C1446 C 0.42777 0.53793 0.97755 0.0
C1447 C 0.44076 0.54084 0.94664 0.0
C1448 C 0.437 0.56876 0.11661 0.0
C1449 C 0.44193 0.56342 0.01757 0.0
C1450 C 0.44443 0.57393 0.16808 0.0
C1451 C 0.46028 0.58391 0.16939 0.0
C1452 C 0.44567 0.5737 0.06685 0.0
C1453 C 0.46743 0.59146 0.11956 0.0
C1454 C 0.42828 0.54923 0.01312 0.0
C1455 C 0.45341 0.55563 0.94734 0.0
N1456 N 0.46025 0.5857 0.06983 0.0
N1457 N 0.45376 0.56625 0.98287 0.0
H1458 H 0.44725 0.9171 0.72558 0.0
H1459 H 0.42406 0.88479 0.0342 0.0
H1460 H 0.46608 0.8932 0.81586 0.0
H1461 H 0.41332 0.91686 0.9575 0.0
H1462 H 0.431 0.87946 0.94187 0.0
H1463 H 0.42761 0.90949 0.79749 0.0
C1464 C 0.44721 0.91014 0.76035 0.0
C1465 C 0.45862 0.90614 0.76553 0.0
C1466 C 0.42653 0.8872 0.94478 0.0
C1467 C 0.43601 0.89732 0.84795 0.0
C1468 C 0.42229 0.89002 -0.0027 0.0
C1469 C 0.41817 0.90128 0.00307 0.0
C1470 C 0.42673 0.89586 0.89825 0.0
C1471 C 0.4164 0.90804 0.95447 0.0
C1472 C 0.4359 0.90572 0.8012 0.0
C1473 C 0.4577 0.8968 0.81077 0.0
N1474 N 0.42106 0.90551 0.90408 0.0
N1475 N 0.44674 0.89292 0.8508 0.0
H1476 H 0.25082 0.36643 0.9836 0.0
H1477 H 0.18407 0.28095 0.94972 0.0
H1478 H 0.21825 0.34959 0.84774 0.0
H1479 H 0.21491 0.29648 0.09082 0.0
H1480 H 0.20096 0.30455 0.9 0.0
H1481 H 0.24258 0.34002 0.0107 0.0
C1482 C 0.24233 0.3572 0.95821 0.0
C1483 C 0.235 0.3602 0.91392 0.0
C1484 C 0.20426 0.30277 0.94141 0.0
C1485 C 0.22537 0.33001 0.94522 0.0
C1486 C 0.19461 0.28926 0.96977 0.0
C1487 C 0.19803 0.28689 0.02466 0.0
C1488 C 0.21727 0.31424 0.96865 0.0
C1489 C 0.21187 0.29793 0.04855 0.0
C1490 C 0.23753 0.34211 0.97404 0.0
C1491 C 0.22403 0.3478 0.88271 0.0
N1492 N 0.22085 0.31133 0.02087 0.0
N1493 N 0.21938 0.33328 0.89952 0.0
H1494 H 0.66876 0.90034 0.24067 0.0
H1495 H 0.66592 0.89949 0.91384 0.0
H1496 H 0.70897 0.92495 0.1375 0.0
H1497 H 0.62582 0.88427 0.01725 0.0
H1498 H 0.68183 0.91366 -0.00629 0.0
H1499 H 0.65298 0.89918 0.16111 0.0
C1500 C 0.6743 0.90587 0.20164 0.0
C1501 C 0.69018 0.9125 0.19538 0.0
C1502 C 0.66954 0.90756 -0.00127 0.0
C1503 C 0.67214 0.91084 0.10349 0.0
C1504 C 0.66044 0.89948 0.953 0.0
C1505 C 0.64454 0.89045 0.95922 0.0
C1506 C 0.66272 0.90631 0.05145 0.0
C1507 C 0.63804 0.89097 0.01072 0.0
C1508 C 0.66528 0.90519 0.15609 0.0
C1509 C 0.69676 0.91961 0.14405 0.0
N1510 N 0.64718 0.89842 0.05531 0.0
N1511 N 0.68768 0.91825 0.09962 0.0
H1512 H 0.12974 0.7531 0.00367 0.0
H1513 H 0.08737 0.79616 0.11886 0.0
H1514 H 0.1159 0.77934 0.90121 0.0
H1515 H 0.11377 0.7824 0.22056 0.0
H1516 H 0.08921 0.78152 0.04016 0.0
H1517 H 0.11531 0.75523 0.08252 0.0
C1518 C 0.12325 0.75886 -0.00288 0.0
C1519 C 0.12428 0.76633 0.94613 0.0
C1520 C 0.09424 0.78138 0.0802 0.0
C1521 C 0.1079 0.76891 0.03621 0.0
C1522 C 0.09309 0.78964 0.12528 0.0
C1523 C 0.10068 0.79073 0.17596 0.0
C1524 C 0.10292 0.7741 0.08615 0.0
C1525 C 0.10797 0.78207 0.18184 0.0
C1526 C 0.11511 0.76016 0.0423 0.0
C1527 C 0.11564 0.77364 0.94014 0.0
N1528 N 0.10912 0.77432 0.13721 0.0
N1529 N 0.10802 0.77497 0.98491 0.0
H1530 H 0.29895 0.17095 0.53582 0.0
H1531 H 0.37687 0.23947 0.41294 0.0
H1532 H 0.29948 0.19734 0.39211 0.0
H1533 H 0.3729 0.20184 0.51144 0.0
H1534 H 0.349 0.22881 0.42155 0.0
H1535 H 0.32641 0.18714 0.54446 0.0
C1536 C 0.30483 0.18024 0.50615 0.0
C1537 C 0.29691 0.18258 0.46238 0.0
C1538 C 0.35433 0.2231 0.44209 0.0
C1539 C 0.32859 0.20124 0.47212 0.0
C1540 C 0.37018 0.22923 0.43769 0.0
C1541 C 0.37708 0.22147 0.46164 0.0
C1542 C 0.34553 0.20933 0.47146 0.0
C1543 C 0.36798 0.20813 0.49238 0.0
C1544 C 0.32056 0.18951 0.51122 0.0
C1545 C 0.30517 0.19505 0.4261 0.0
N1546 N 0.3527 0.20247 0.49628 0.0
N1547 N 0.32066 0.20383 0.43127 0.0
H1548 H 0.77995 0.15029 0.2809 0.0
H1549 H 0.79917 0.09073 0.42584 0.0
H1550 H 0.76427 0.13209 0.44714 0.0
H1551 H 0.8215 0.11789 0.27925 0.0
H1552 H 0.78051 0.09962 0.42181 0.0
H1553 H 0.78891 0.1322 0.26758 0.0
C1554 C 0.7782 0.14229 0.31438 0.0
C1555 C 0.77162 0.14287 0.3656 0.0
C1556 C 0.78925 0.10328 0.38969 0.0
C1557 C 0.78217 0.12225 0.35105 0.0
C1558 C 0.79977 0.09809 0.3916 0.0
C1559 C 0.81187 0.10366 0.35288 0.0
C1560 C 0.79083 0.11395 0.3484 0.0
C1561 C 0.81236 0.11338 0.30996 0.0
C1562 C 0.78333 0.13196 0.30677 0.0
C1563 C 0.76939 0.13207 0.40717 0.0
N1564 N 0.8021 0.11832 0.3092 0.0
N1565 N 0.77495 0.12237 0.39945 0.0
H1566 H 0.9209 0.71232 0.38141 0.0
H1567 H 0.85468 0.6288 0.31492 0.0
H1568 H 0.89305 0.69918 0.23198 0.0
H1569 H 0.88298 0.63997 0.46252 0.0
H1570 H 0.87296 0.65327 0.2735 0.0
H1571 H 0.91195 0.68533 0.40073 0.0
C1572 C 0.91334 0.70381 0.35153 0.0
C1573 C 0.90746 0.70797 0.30558 0.0
C1574 C 0.87541 0.65035 0.31452 0.0
C1575 C 0.89697 0.6771 0.32798 0.0
C1576 C 0.86496 0.63634 0.33811 0.0
C1577 C 0.86727 0.63249 0.39239 0.0
C1578 C 0.88808 0.66084 0.34608 0.0
C1579 C 0.8808 0.64258 0.42055 0.0
C1580 C 0.90812 0.68837 0.36288 0.0
C1581 C 0.89766 0.69646 0.26843 0.0
N1582 N 0.89055 0.6565 0.39761 0.0
N1583 N 0.89252 0.68156 0.281 0.0
H1584 H 0.82263 0.7167 0.07083 0.0
H1585 H 0.75641 0.63227 0.00903 0.0
H1586 H 0.79328 0.70478 0.9259 0.0
H1587 H 0.78731 0.64578 0.14988 0.0
H1588 H 0.76508 0.65927 0.99019 0.0
H1589 H 0.80537 0.69185 0.11204 0.0
C1590 C 0.81236 0.7089 0.04813 0.0
C1591 C 0.80947 0.71268 -0.00541 0.0
C1592 C 0.76966 0.6563 0.0261 0.0
C1593 C 0.7898 0.68393 0.04081 0.0
C1594 C 0.76462 0.64088 0.03718 0.0
C1595 C 0.77135 0.63682 0.08055 0.0
C1596 C 0.78146 0.66765 0.05878 0.0
C1597 C 0.78199 0.64843 0.11548 0.0
C1598 C 0.80249 0.69468 0.07163 0.0
C1599 C 0.79592 0.70224 0.96723 0.0
N1600 N 0.78687 0.66329 0.10332 0.0
N1601 N 0.78673 0.68816 0.9901 0.0
H1602 H 0.38944 0.14387 0.9758 0.0
H1603 H 0.30714 0.10334 0.82937 0.0
H1604 H 0.38254 0.14854 0.79964 0.0
H1605 H 0.31551 0.12024 -0.00043 0.0
H1606 H 0.33439 0.11127 0.82026 0.0
H1607 H 0.36185 0.12625 0.98605 0.0
C1608 C 0.3822 0.14078 0.93898 0.0
C1609 C 0.38817 0.14775 0.88695 0.0
C1610 C 0.33013 0.1129 0.85993 0.0
C1611 C 0.35683 0.12772 0.89826 0.0
C1612 C 0.31464 0.10835 0.86518 0.0
C1613 C 0.3092 0.11135 0.91502 0.0
C1614 C 0.34007 0.12015 0.90527 0.0
C1615 C 0.31935 0.11793 0.96018 0.0
C1616 C 0.36648 0.13084 0.94491 0.0
C1617 C 0.37829 0.1435 0.8406 0.0
N1618 N 0.33432 0.12219 0.95417 0.0
N1619 N 0.36307 0.13385 0.84739 0.0
H1620 H 0.90146 0.19973 0.06748 0.0
H1621 H 0.86679 0.23181 0.85772 0.0
H1622 H 0.91783 0.21035 0.89675 0.0
H1623 H 0.86764 0.24118 0.03474 0.0
H1624 H 0.88756 0.22636 0.87137 0.0
H1625 H 0.89155 0.21731 0.0595 0.0
C1626 C 0.90336 0.20612 0.02884 0.0
C1627 C 0.91029 0.20345 0.98244 0.0
C1628 C 0.88352 0.22998 0.90712 0.0
C1629 C 0.89859 0.22321 0.97246 0.0
C1630 C 0.87165 0.23305 0.89931 0.0
C1631 C 0.86555 0.23687 0.94525 0.0
C1632 C 0.88894 0.23019 0.96164 0.0
C1633 C 0.87213 0.23829 -0.00166 0.0
C1634 C 0.8977 0.21616 0.02429 0.0
C1635 C 0.91251 0.21205 0.93344 0.0
N1636 N 0.88325 0.23457 0.00542 0.0
N1637 N 0.90629 0.22124 0.92917 0.0
H1638 H 0.70938 0.79415 0.63631 0.0
H1639 H 0.62455 0.75169 0.51604 0.0
H1640 H 0.66882 0.78046 0.73559 0.0
H1641 H 0.66511 0.77777 0.41582 0.0
H1642 H 0.64068 0.75365 0.59604 0.0
H1643 H 0.69324 0.7797 0.55675 0.0
C1644 C 0.69711 0.7877 0.64201 0.0
C1645 C 0.69042 0.78876 0.69227 0.0
C1646 C 0.64602 0.75859 0.55608 0.0
C1647 C 0.67193 0.77233 0.60145 0.0
C1648 C 0.63681 0.75738 0.51024 0.0
C1649 C 0.64352 0.76486 0.45953 0.0
C1650 C 0.66199 0.76724 0.55093 0.0
C1651 C 0.65948 0.77208 0.4545 0.0
C1652 C 0.6879 0.77954 0.59644 0.0
C1653 C 0.67444 0.78017 0.69722 0.0
N1654 N 0.66819 0.77331 0.4999 0.0
N1655 N 0.66574 0.77253 0.65211 0.0
H1656 H 0.21937 0.92833 0.62024 0.0
H1657 H 0.26214 0.88539 0.508 0.0
H1658 H 0.23204 0.90119 0.72291 0.0
H1659 H 0.23738 0.9006 0.40377 0.0
H1660 H 0.25981 0.89965 0.58701 0.0
H1661 H 0.23449 0.92667 0.54284 0.0
C1662 C 0.22572 0.92244 0.62715 0.0
C1663 C 0.22418 0.9146 0.67768 0.0
C1664 C 0.25527 0.90021 0.54639 0.0
C1665 C 0.24138 0.91258 0.58931 0.0
C1666 C 0.25671 0.89217 0.50114 0.0
C1667 C 0.24967 0.89157 0.44959 0.0
C1668 C 0.24684 0.90774 0.53976 0.0
C1669 C 0.24274 0.90055 0.44316 0.0
C1670 C 0.23427 0.92142 0.58283 0.0
C1671 C 0.23268 0.90716 0.68424 0.0
N1672 N 0.24127 0.90805 0.48794 0.0
N1673 N 0.24071 0.90612 0.64029 0.0
H1674 H 0.12995 0.36537 0.54815 0.0
H1675 H 0.12711 0.30975 0.79029 0.0
H1676 H 0.16241 0.37782 0.68338 0.0
H1677 H 0.09595 0.29455 0.65001 0.0
H1678 H 0.13537 0.33614 0.76524 0.0
H1679 H 0.11317 0.34109 0.59668 0.0
C1680 C 0.13333 0.36317 0.58873 0.0
C1681 C 0.14766 0.37345 0.61145 0.0
C1682 C 0.1265 0.32707 0.74043 0.0
C1683 C 0.12869 0.34586 0.66686 0.0
C1684 C 0.12172 0.31198 0.75501 0.0
C1685 C 0.11101 0.29996 0.72168 0.0
C1686 C 0.1208 0.33022 0.69137 0.0
C1687 C 0.10431 0.3035 0.67667 0.0
C1688 C 0.12381 0.3493 0.61627 0.0
C1689 C 0.15155 0.37007 0.66398 0.0
N1690 N 0.10959 0.31834 0.66193 0.0
N1691 N 0.14223 0.35653 0.6895 0.0
H1692 H 0.03621 0.5626 0.94627 0.0
H1693 H 0.97071 0.54682 0.72877 0.0
H1694 H 0.04485 0.58448 0.78411 0.0
H1695 H 0.96412 0.52481 0.88996 0.0
H1696 H 0.99682 0.56586 0.75719 0.0
H1697 H 0.00922 0.55458 0.93667 0.0
C1698 C 0.03246 0.56611 0.90936 0.0
C1699 C 0.04271 0.57403 0.86565 0.0
C1700 C 0.98952 0.55708 0.78682 0.0
C1701 C 0.01168 0.56433 0.85304 0.0
C1702 C 0.97461 0.54627 0.77069 0.0
C1703 C 0.9654 0.5341 0.80675 0.0
C1704 C 0.99511 0.55565 0.83935 0.0
C1705 C 0.97097 0.53387 0.8605 0.0
C1706 C 0.01701 0.56144 0.90359 0.0
C1707 C 0.03728 0.57834 0.81875 0.0
N1708 N 0.98549 0.54432 0.87484 0.0
N1709 N 0.02204 0.57307 0.81292 0.0
H1710 H 0.46196 0.47721 0.94198 0.0
H1711 H 0.46479 0.42208 0.71112 0.0
H1712 H 0.43079 0.45973 0.80198 0.0
H1713 H 0.49681 0.4427 0.84731 0.0
H1714 H 0.44793 0.42992 0.75655 0.0
H1715 H 0.46999 0.45859 0.92232 0.0
C1716 C 0.45652 0.46916 0.90794 0.0
C1717 C 0.44589 0.47018 0.87301 0.0
C1718 C 0.45848 0.4324 0.7771 0.0
C1719 C 0.45541 0.44914 0.84885 0.0
C1720 C 0.46805 0.42785 0.75133 0.0
C1721 C 0.48231 0.432 0.77508 0.0
C1722 C 0.46323 0.44105 0.82694 0.0
C1723 C 0.48602 0.43952 0.82709 0.0
C1724 C 0.46116 0.45857 0.89646 0.0
C1725 C 0.4391 0.45939 0.82976 0.0
N1726 N 0.47666 0.44396 0.85084 0.0
N1727 N 0.44425 0.44955 0.81796 0.0
H1728 H 0.53568 0.95871 0.76282 0.0
H1729 H 0.58164 0.04433 0.64517 0.0
H1730 H 0.53551 0.97109 0.58947 0.0
H1731 H 0.56328 0.0322 0.81302 0.0
H1732 H 0.57349 0.01734 0.62741 0.0
H1733 H 0.55466 0.98549 0.78347 0.0
C1734 C 0.54007 0.96696 0.72883 0.0
C1735 C 0.534 0.96283 0.67456 0.0
C1736 C 0.57162 0.0207 0.66856 0.0
C1737 C 0.55551 0.99321 0.69759 0.0
C1738 C 0.57631 0.03607 0.67874 0.0
C1739 C 0.57289 0.04038 0.73029 0.0
C1740 C 0.56372 0.00974 0.71061 0.0
C1741 C 0.5659 0.02925 0.77239 0.0
C1742 C 0.55078 0.98221 0.74063 0.0
C1743 C 0.53987 0.97392 0.63198 0.0
N1744 N 0.56142 0.01441 0.76149 0.0
N1745 N 0.5502 0.98866 0.64446 0.0
H1746 H 0.47456 0.04945 0.14253 0.0
H1747 H 0.43004 0.96375 0.26013 0.0
H1748 H 0.47968 0.03644 0.31032 0.0
H1749 H 0.44345 0.97556 0.08704 0.0
H1750 H 0.43957 0.99091 0.28053 0.0
H1751 H 0.4546 0.02286 0.12457 0.0
C1752 C 0.47116 0.0411 0.17603 0.0
C1753 C 0.47886 0.04501 0.22764 0.0
C1754 C 0.43999 0.98745 0.23779 0.0
C1755 C 0.45613 0.01485 0.20777 0.0
C1756 C 0.43448 0.97199 0.22612 0.0
C1757 C 0.43613 0.96754 0.17202 0.0
C1758 C 0.44695 0.99836 0.19477 0.0
C1759 C 0.44212 0.97863 0.12943 0.0
C1760 C 0.45986 0.02597 0.16574 0.0
C1761 C 0.47412 0.03379 0.26966 0.0
N1762 N 0.44745 0.99356 0.14178 0.0
N1763 N 0.46315 0.01918 0.25868 0.0
H1764 H 0.03712 0.45332 0.26415 0.0
H1765 H 0.97201 0.44479 0.0601 0.0
H1766 H 0.04442 0.47759 0.10769 0.0
H1767 H 0.96307 0.41772 0.21027 0.0
H1768 H 0.99876 0.45158 0.0646 0.0
H1769 H 0.0108 0.43535 0.23465 0.0
C1770 C 0.03335 0.45454 0.22282 0.0
C1771 C 0.04281 0.46708 0.18866 0.0
C1772 C 0.99095 0.44385 0.096 0.0
C1773 C 0.01282 0.44681 0.15501 0.0
C1774 C 0.97564 0.43991 0.09311 0.0
C1775 C 0.9654 0.43082 0.13513 0.0
C1776 C 0.99619 0.4391 0.14232 0.0
C1777 C 0.97065 0.42478 0.17705 0.0
C1778 C 0.0183 0.44435 0.20611 0.0
C1779 C 0.03737 0.46821 0.13568 0.0
N1780 N 0.9858 0.42936 0.18053 0.0
N1781 N 0.0227 0.45838 0.12091 0.0
H1782 H 0.57367 0.54253 0.12759 0.0
H1783 H 0.50366 0.5565 0.08802 0.0
H1784 H 0.53902 0.52143 -0.00018 0.0
H1785 H 0.53732 0.57806 0.21869 0.0
H1786 H 0.51995 0.54827 0.04286 0.0
H1787 H 0.56429 0.56017 0.14837 0.0
C1788 C 0.56441 0.54192 0.10266 0.0
C1789 C 0.55694 0.53031 0.06255 0.0
C1790 C 0.52394 0.55499 0.08096 0.0
C1791 C 0.54602 0.55028 0.08668 0.0
C1792 C 0.51462 0.55969 0.10679 0.0
C1793 C 0.51904 0.56777 0.15764 0.0
C1794 C 0.53771 0.55808 0.10665 0.0
C1795 C 0.53345 0.57178 0.17966 0.0
C1796 C 0.55898 0.55192 0.11488 0.0
C1797 C 0.54497 0.53004 0.03171 0.0
N1798 N 0.54216 0.56662 0.15463 0.0
N1799 N 0.53975 0.53968 0.04501 0.0
loop_
_geom_bond_atom_site_label_1
_geom_bond_atom_site_label_2
_geom_bond_distance
_geom_bond_site_symmetry_2
_ccdc_geom_bond_type
Zn0 O3 2.031 . S
Zn0 O5 2.049 . S
Zn0 O10 2.067 . S
Zn1 O2 1.962 . S
Zn1 O4 1.986 . S
Zn1 O6 1.996 . S
Zn1 O9 1.943 . S
O2 Zn1 1.962 . S
O2 C7 1.254 . S
O3 Zn0 2.031 . S
O3 C7 1.269 . S
O4 Zn1 1.986 . S
O4 C11 1.262 . S
O5 Zn0 2.049 . S
O5 C13 1.260 . S
O6 Zn1 1.996 . S
O6 C13 1.257 . S
C7 O2 1.254 . S
C7 O3 1.269 . S
C8 O9 1.249 . S
C8 O10 1.270 . S
O9 Zn1 1.943 . S
O9 C8 1.249 . S
O10 Zn0 2.067 . S
O10 C8 1.270 . S
C11 O4 1.262 . S
C11 O12 1.232 . S
O12 C11 1.232 . S
C13 O5 1.260 . S
C13 O6 1.257 . S
Zn14 O17 2.031 . S
Zn14 O19 2.049 . S
Zn14 O24 2.067 . S
Zn15 O16 1.962 . S
Zn15 O18 1.986 . S
Zn15 O20 1.996 . S
Zn15 O23 1.943 . S
O16 Zn15 1.962 . S
O16 C21 1.254 . S
O17 Zn14 2.031 . S
O17 C21 1.269 . S
O18 Zn15 1.986 . S
O18 C25 1.262 . S
O19 Zn14 2.049 . S
O19 C27 1.260 . S
O20 Zn15 1.996 . S
O20 C27 1.257 . S
C21 O16 1.254 . S
C21 O17 1.269 . S
C22 O23 1.249 . S
C22 O24 1.270 . S
O23 Zn15 1.943 . S
O23 C22 1.249 . S
O24 Zn14 2.067 . S
O24 C22 1.270 . S
C25 O18 1.262 . S
C25 O26 1.232 . S
O26 C25 1.232 . S
C27 O19 1.260 . S
C27 O20 1.257 . S
Zn28 O31 2.031 . S
Zn28 O33 2.049 . S
Zn28 O38 2.067 . S
Zn29 O30 1.962 . S
Zn29 O32 1.986 . S
Zn29 O34 1.996 . S
Zn29 O37 1.943 . S
O30 Zn29 1.962 . S
O30 C35 1.254 . S
O31 Zn28 2.031 . S
O31 C35 1.269 . S
O32 Zn29 1.986 . S
O32 C39 1.262 . S
O33 Zn28 2.049 . S
O33 C41 1.260 . S
O34 Zn29 1.996 . S
O34 C41 1.257 . S
C35 O30 1.254 . S
C35 O31 1.269 . S
C36 O37 1.249 . S
C36 O38 1.270 . S
O37 Zn29 1.943 . S
O37 C36 1.249 . S
O38 Zn28 2.067 . S
O38 C36 1.270 . S
C39 O32 1.262 . S
C39 O40 1.232 . S
O40 C39 1.232 . S
C41 O33 1.260 . S
C41 O34 1.257 . S
Zn42 O45 2.031 . S
Zn42 O47 2.049 . S
Zn42 O52 2.067 . S
Zn43 O44 1.962 . S
Zn43 O46 1.986 . S
Zn43 O48 1.996 . S
Zn43 O51 1.943 . S
O44 Zn43 1.962 . S
O44 C49 1.254 . S
O45 Zn42 2.031 . S
O45 C49 1.269 . S
O46 Zn43 1.986 . S
O46 C53 1.262 . S
O47 Zn42 2.049 . S
O47 C55 1.260 . S
O48 Zn43 1.996 . S
O48 C55 1.257 . S
C49 O44 1.254 . S
C49 O45 1.269 . S
C50 O51 1.249 . S
C50 O52 1.270 . S
O51 Zn43 1.943 . S
O51 C50 1.249 . S
O52 Zn42 2.067 . S
O52 C50 1.270 . S
C53 O46 1.262 . S
C53 O54 1.232 . S
O54 C53 1.232 . S
C55 O47 1.260 . S
C55 O48 1.257 . S
Zn56 O59 2.031 . S
Zn56 O61 2.049 . S
Zn56 O66 2.067 . S
Zn57 O58 1.962 . S
Zn57 O60 1.986 . S
Zn57 O62 1.996 . S
Zn57 O65 1.943 . S
O58 Zn57 1.962 . S
O58 C63 1.254 . S
O59 Zn56 2.031 . S
O59 C63 1.269 . S
O60 Zn57 1.986 . S
O60 C67 1.262 . S
O61 Zn56 2.049 . S
O61 C69 1.260 . S
O62 Zn57 1.996 . S
O62 C69 1.257 . S
C63 O58 1.254 . S
C63 O59 1.269 . S
C64 O65 1.249 . S
C64 O66 1.270 . S
O65 Zn57 1.943 . S
O65 C64 1.249 . S
O66 Zn56 2.067 . S
O66 C64 1.270 . S
C67 O60 1.262 . S
C67 O68 1.232 . S
O68 C67 1.232 . S
C69 O61 1.260 . S
C69 O62 1.257 . S
Zn70 O73 2.031 . S
Zn70 O75 2.049 . S
Zn70 O80 2.067 . S
Zn71 O72 1.962 . S
Zn71 O74 1.986 . S
Zn71 O76 1.996 . S
Zn71 O79 1.943 . S
O72 Zn71 1.962 . S
O72 C77 1.254 . S
O73 Zn70 2.031 . S
O73 C77 1.269 . S
O74 Zn71 1.986 . S
O74 C81 1.262 . S
O75 Zn70 2.049 . S
O75 C83 1.260 . S
O76 Zn71 1.996 . S
O76 C83 1.257 . S
C77 O72 1.254 . S
C77 O73 1.269 . S
C78 O79 1.249 . S
C78 O80 1.270 . S
O79 Zn71 1.943 . S
O79 C78 1.249 . S
O80 Zn70 2.067 . S
O80 C78 1.270 . S
C81 O74 1.262 . S
C81 O82 1.232 . S
O82 C81 1.232 . S
C83 O75 1.260 . S
C83 O76 1.257 . S
Zn84 O87 2.031 . S
Zn84 O89 2.049 . S
Zn84 O94 2.067 . S
Zn85 O86 1.962 . S
Zn85 O88 1.986 . S
Zn85 O90 1.996 . S
Zn85 O93 1.943 . S
O86 Zn85 1.962 . S
O86 C91 1.254 . S
O87 Zn84 2.031 . S
O87 C91 1.269 . S
O88 Zn85 1.986 . S
O88 C95 1.262 . S
O89 Zn84 2.049 . S
O89 C97 1.260 . S
O90 Zn85 1.996 . S
O90 C97 1.257 . S
C91 O86 1.254 . S
C91 O87 1.269 . S
C92 O93 1.249 . S
C92 O94 1.270 . S
O93 Zn85 1.943 . S
O93 C92 1.249 . S
O94 Zn84 2.067 . S
O94 C92 1.270 . S
C95 O88 1.262 . S
C95 O96 1.232 . S
O96 C95 1.232 . S
C97 O89 1.260 . S
C97 O90 1.257 . S
Zn98 O101 2.031 . S
Zn98 O103 2.049 . S
Zn98 O108 2.067 . S
Zn99 O100 1.962 . S
Zn99 O102 1.986 . S
Zn99 O104 1.996 . S
Zn99 O107 1.943 . S
O100 Zn99 1.962 . S
O100 C105 1.254 . S
O101 Zn98 2.031 . S
O101 C105 1.269 . S
O102 Zn99 1.986 . S
O102 C109 1.262 . S
O103 Zn98 2.049 . S
O103 C111 1.260 . S
O104 Zn99 1.996 . S
O104 C111 1.257 . S
C105 O100 1.254 . S
C105 O101 1.269 . S
C106 O107 1.249 . S
C106 O108 1.270 . S
O107 Zn99 1.943 . S
O107 C106 1.249 . S
O108 Zn98 2.067 . S
O108 C106 1.270 . S
C109 O102 1.262 . S
C109 O110 1.232 . S
O110 C109 1.232 . S
C111 O103 1.260 . S
C111 O104 1.257 . S
Zn112 O115 2.031 . S
Zn112 O117 2.049 . S
Zn112 O122 2.067 . S
Zn113 O114 1.962 . S
Zn113 O116 1.986 . S
Zn113 O118 1.996 . S
Zn113 O121 1.943 . S
O114 Zn113 1.962 . S
O114 C119 1.254 . S
O115 Zn112 2.031 . S
O115 C119 1.269 . S
O116 Zn113 1.986 . S
O116 C123 1.262 . S
O117 Zn112 2.049 . S
O117 C125 1.260 . S
O118 Zn113 1.996 . S
O118 C125 1.257 . S
C119 O114 1.254 . S
C119 O115 1.269 . S
C120 O121 1.249 . S
C120 O122 1.270 . S
O121 Zn113 1.943 . S
O121 C120 1.249 . S
O122 Zn112 2.067 . S
O122 C120 1.270 . S
C123 O116 1.262 . S
C123 O124 1.232 . S
O124 C123 1.232 . S
C125 O117 1.260 . S
C125 O118 1.257 . S
Zn126 O129 2.031 . S
Zn126 O131 2.049 . S
Zn126 O136 2.067 . S
Zn127 O128 1.962 . S
Zn127 O130 1.986 . S
Zn127 O132 1.996 . S
Zn127 O135 1.943 . S
O128 Zn127 1.962 . S
O128 C133 1.254 . S
O129 Zn126 2.031 . S
O129 C133 1.269 . S
O130 Zn127 1.986 . S
O130 C137 1.262 . S
O131 Zn126 2.049 . S
O131 C139 1.260 . S
O132 Zn127 1.996 . S
O132 C139 1.257 . S
C133 O128 1.254 . S
C133 O129 1.269 . S
C134 O135 1.249 . S
C134 O136 1.270 . S
O135 Zn127 1.943 . S
O135 C134 1.249 . S
O136 Zn126 2.067 . S
O136 C134 1.270 . S
C137 O130 1.262 . S
C137 O138 1.232 . S
O138 C137 1.232 . S
C139 O131 1.260 . S
C139 O132 1.257 . S
Zn140 O143 2.031 . S
Zn140 O145 2.049 . S
Zn140 O150 2.067 . S
Zn141 O142 1.962 . S
Zn141 O144 1.986 . S
Zn141 O146 1.996 . S
Zn141 O149 1.943 . S
O142 Zn141 1.962 . S
O142 C147 1.254 . S
O143 Zn140 2.031 . S
O143 C147 1.269 . S
O144 Zn141 1.986 . S
O144 C151 1.262 . S
O145 Zn140 2.049 . S
O145 C153 1.260 . S
O146 Zn141 1.996 . S
O146 C153 1.257 . S
C147 O142 1.254 . S
C147 O143 1.269 . S
C148 O149 1.249 . S
C148 O150 1.270 . S
O149 Zn141 1.943 . S
O149 C148 1.249 . S
O150 Zn140 2.067 . S
O150 C148 1.270 . S
C151 O144 1.262 . S
C151 O152 1.232 . S
O152 C151 1.232 . S
C153 O145 1.260 . S
C153 O146 1.257 . S
Zn154 O157 2.031 . S
Zn154 O159 2.049 . S
Zn154 O164 2.067 . S
Zn155 O156 1.962 . S
Zn155 O158 1.986 . S
Zn155 O160 1.996 . S
Zn155 O163 1.943 . S
O156 Zn155 1.962 . S
O156 C161 1.254 . S
O157 Zn154 2.031 . S
O157 C161 1.269 . S
O158 Zn155 1.986 . S
O158 C165 1.262 . S
O159 Zn154 2.049 . S
O159 C167 1.260 . S
O160 Zn155 1.996 . S
O160 C167 1.257 . S
C161 O156 1.254 . S
C161 O157 1.269 . S
C162 O163 1.249 . S
C162 O164 1.270 . S
O163 Zn155 1.943 . S
O163 C162 1.249 . S
O164 Zn154 2.067 . S
O164 C162 1.270 . S
C165 O158 1.262 . S
C165 O166 1.232 . S
O166 C165 1.232 . S
C167 O159 1.260 . S
C167 O160 1.257 . S
Zn168 O171 2.031 . S
Zn168 O173 2.049 . S
Zn168 O178 2.067 . S
Zn169 O170 1.962 . S
Zn169 O172 1.986 . S
Zn169 O174 1.996 . S
Zn169 O177 1.943 . S
O170 Zn169 1.962 . S
O170 C175 1.254 . S
O171 Zn168 2.031 . S
O171 C175 1.269 . S
O172 Zn169 1.986 . S
O172 C179 1.262 . S
O173 Zn168 2.049 . S
O173 C181 1.260 . S
O174 Zn169 1.996 . S
O174 C181 1.257 . S
C175 O170 1.254 . S
C175 O171 1.269 . S
C176 O177 1.249 . S
C176 O178 1.270 . S
O177 Zn169 1.943 . S
O177 C176 1.249 . S
O178 Zn168 2.067 . S
O178 C176 1.270 . S
C179 O172 1.262 . S
C179 O180 1.232 . S
O180 C179 1.232 . S
C181 O173 1.260 . S
C181 O174 1.257 . S
Zn182 O185 2.031 . S
Zn182 O187 2.049 . S
Zn182 O192 2.067 . S
Zn183 O184 1.962 . S
Zn183 O186 1.986 . S
Zn183 O188 1.996 . S
Zn183 O191 1.943 . S
O184 Zn183 1.962 . S
O184 C189 1.254 . S
O185 Zn182 2.031 . S
O185 C189 1.269 . S
O186 Zn183 1.986 . S
O186 C193 1.262 . S
O187 Zn182 2.049 . S
O187 C195 1.260 . S
O188 Zn183 1.996 . S
O188 C195 1.257 . S
C189 O184 1.254 . S
C189 O185 1.269 . S
C190 O191 1.249 . S
C190 O192 1.270 . S
O191 Zn183 1.943 . S
O191 C190 1.249 . S
O192 Zn182 2.067 . S
O192 C190 1.270 . S
C193 O186 1.262 . S
C193 O194 1.232 . S
O194 C193 1.232 . S
C195 O187 1.260 . S
C195 O188 1.257 . S
Zn196 O199 2.031 . S
Zn196 O201 2.049 . S
Zn196 O206 2.067 . S
Zn197 O198 1.962 . S
Zn197 O200 1.986 . S
Zn197 O202 1.996 . S
Zn197 O205 1.943 . S
O198 Zn197 1.962 . S
O198 C203 1.254 . S
O199 Zn196 2.031 . S
O199 C203 1.269 . S
O200 Zn197 1.986 . S
O200 C207 1.262 . S
O201 Zn196 2.049 . S
O201 C209 1.260 . S
O202 Zn197 1.996 . S
O202 C209 1.257 . S
C203 O198 1.254 . S
C203 O199 1.269 . S
C204 O205 1.249 . S
C204 O206 1.270 . S
O205 Zn197 1.943 . S
O205 C204 1.249 . S
O206 Zn196 2.067 . S
O206 C204 1.270 . S
C207 O200 1.262 . S
C207 O208 1.232 . S
O208 C207 1.232 . S
C209 O201 1.260 . S
C209 O202 1.257 . S
Zn210 O213 2.031 . S
Zn210 O215 2.049 . S
Zn210 O220 2.067 . S
Zn211 O212 1.962 . S
Zn211 O214 1.986 . S
Zn211 O216 1.996 . S
Zn211 O219 1.943 . S
O212 Zn211 1.962 . S
O212 C217 1.254 . S
O213 Zn210 2.031 . S
O213 C217 1.269 . S
O214 Zn211 1.986 . S
O214 C221 1.262 . S
O215 Zn210 2.049 . S
O215 C223 1.260 . S
O216 Zn211 1.996 . S
O216 C223 1.257 . S
C217 O212 1.254 . S
C217 O213 1.269 . S
C218 O219 1.249 . S
C218 O220 1.270 . S
O219 Zn211 1.943 . S
O219 C218 1.249 . S
O220 Zn210 2.067 . S
O220 C218 1.270 . S
C221 O214 1.262 . S
C221 O222 1.232 . S
O222 C221 1.232 . S
C223 O215 1.260 . S
C223 O216 1.257 . S
Zn224 O227 2.031 . S
Zn224 O229 2.049 . S
Zn224 O234 2.067 . S
Zn225 O226 1.962 . S
Zn225 O228 1.986 . S
Zn225 O230 1.996 . S
Zn225 O233 1.943 . S
O226 Zn225 1.962 . S
O226 C231 1.254 . S
O227 Zn224 2.031 . S
O227 C231 1.269 . S
O228 Zn225 1.986 . S
O228 C235 1.262 . S
O229 Zn224 2.049 . S
O229 C237 1.260 . S
O230 Zn225 1.996 . S
O230 C237 1.257 . S
C231 O226 1.254 . S
C231 O227 1.269 . S
C232 O233 1.249 . S
C232 O234 1.270 . S
O233 Zn225 1.943 . S
O233 C232 1.249 . S
O234 Zn224 2.067 . S
O234 C232 1.270 . S
C235 O228 1.262 . S
C235 O236 1.232 . S
O236 C235 1.232 . S
C237 O229 1.260 . S
C237 O230 1.257 . S
Zn238 O241 2.031 . S
Zn238 O243 2.049 . S
Zn238 O248 2.067 . S
Zn239 O240 1.962 . S
Zn239 O242 1.986 . S
Zn239 O244 1.996 . S
Zn239 O247 1.943 . S
O240 Zn239 1.962 . S
O240 C245 1.254 . S
O241 Zn238 2.031 . S
O241 C245 1.269 . S
O242 Zn239 1.986 . S
O242 C249 1.262 . S
O243 Zn238 2.049 . S
O243 C251 1.260 . S
O244 Zn239 1.996 . S
O244 C251 1.257 . S
C245 O240 1.254 . S
C245 O241 1.269 . S
C246 O247 1.249 . S
C246 O248 1.270 . S
O247 Zn239 1.943 . S
O247 C246 1.249 . S
O248 Zn238 2.067 . S
O248 C246 1.270 . S
C249 O242 1.262 . S
C249 O250 1.232 . S
O250 C249 1.232 . S
C251 O243 1.260 . S
C251 O244 1.257 . S
Zn252 O255 2.031 . S
Zn252 O257 2.049 . S
Zn252 O262 2.067 . S
Zn253 O254 1.962 . S
Zn253 O256 1.986 . S
Zn253 O258 1.996 . S
Zn253 O261 1.943 . S
O254 Zn253 1.962 . S
O254 C259 1.254 . S
O255 Zn252 2.031 . S
O255 C259 1.269 . S
O256 Zn253 1.986 . S
O256 C263 1.262 . S
O257 Zn252 2.049 . S
O257 C265 1.260 . S
O258 Zn253 1.996 . S
O258 C265 1.257 . S
C259 O254 1.254 . S
C259 O255 1.269 . S
C260 O261 1.249 . S
C260 O262 1.270 . S
O261 Zn253 1.943 . S
O261 C260 1.249 . S
O262 Zn252 2.067 . S
O262 C260 1.270 . S
C263 O256 1.262 . S
C263 O264 1.232 . S
O264 C263 1.232 . S
C265 O257 1.260 . S
C265 O258 1.257 . S
Zn266 O269 2.031 . S
Zn266 O271 2.049 . S
Zn266 O276 2.067 . S
Zn267 O268 1.962 . S
Zn267 O270 1.986 . S
Zn267 O272 1.996 . S
Zn267 O275 1.943 . S
O268 Zn267 1.962 . S
O268 C273 1.254 . S
O269 Zn266 2.031 . S
O269 C273 1.269 . S
O270 Zn267 1.986 . S
O270 C277 1.262 . S
O271 Zn266 2.049 . S
O271 C279 1.260 . S
O272 Zn267 1.996 . S
O272 C279 1.257 . S
C273 O268 1.254 . S
C273 O269 1.269 . S
C274 O275 1.249 . S
C274 O276 1.270 . S
O275 Zn267 1.943 . S
O275 C274 1.249 . S
O276 Zn266 2.067 . S
O276 C274 1.270 . S
C277 O270 1.262 . S
C277 O278 1.232 . S
O278 C277 1.232 . S
C279 O271 1.260 . S
C279 O272 1.257 . S
Zn280 O283 2.031 . S
Zn280 O285 2.049 . S
Zn280 O290 2.067 . S
Zn281 O282 1.962 . S
Zn281 O284 1.986 . S
Zn281 O286 1.996 . S
Zn281 O289 1.943 . S
O282 Zn281 1.962 . S
O282 C287 1.254 . S
O283 Zn280 2.031 . S
O283 C287 1.269 . S
O284 Zn281 1.986 . S
O284 C291 1.262 . S
O285 Zn280 2.049 . S
O285 C293 1.260 . S
O286 Zn281 1.996 . S
O286 C293 1.257 . S
C287 O282 1.254 . S
C287 O283 1.269 . S
C288 O289 1.249 . S
C288 O290 1.270 . S
O289 Zn281 1.943 . S
O289 C288 1.249 . S
O290 Zn280 2.067 . S
O290 C288 1.270 . S
C291 O284 1.262 . S
C291 O292 1.232 . S
O292 C291 1.232 . S
C293 O285 1.260 . S
C293 O286 1.257 . S
Zn294 O297 2.031 1_554 S
Zn294 O299 2.049 . S
Zn294 O304 2.067 1_554 S
Zn295 O296 1.962 . S
Zn295 O298 1.986 . S
Zn295 O300 1.996 . S
Zn295 O303 1.943 1_554 S
O296 Zn295 1.962 . S
O296 C301 1.254 1_554 S
O297 Zn294 2.031 1_556 S
O297 C301 1.269 . S
O298 Zn295 1.986 . S
O298 C305 1.262 . S
O299 Zn294 2.049 . S
O299 C307 1.260 . S
O300 Zn295 1.996 . S
O300 C307 1.257 . S
C301 O296 1.254 1_556 S
C301 O297 1.269 . S
C302 O303 1.249 . S
C302 O304 1.270 . S
O303 Zn295 1.943 1_556 S
O303 C302 1.249 . S
O304 Zn294 2.067 1_556 S
O304 C302 1.270 . S
C305 O298 1.262 . S
C305 O306 1.232 1_554 S
O306 C305 1.232 1_556 S
C307 O299 1.260 . S
C307 O300 1.257 . S
Zn308 O311 2.031 1_554 S
Zn308 O313 2.049 . S
Zn308 O318 2.067 1_554 S
Zn309 O310 1.962 . S
Zn309 O312 1.986 . S
Zn309 O314 1.996 . S
Zn309 O317 1.943 1_554 S
O310 Zn309 1.962 . S
O310 C315 1.254 1_554 S
O311 Zn308 2.031 1_556 S
O311 C315 1.269 . S
O312 Zn309 1.986 . S
O312 C319 1.262 . S
O313 Zn308 2.049 . S
O313 C321 1.260 . S
O314 Zn309 1.996 . S
O314 C321 1.257 . S
C315 O310 1.254 1_556 S
C315 O311 1.269 . S
C316 O317 1.249 . S
C316 O318 1.270 . S
O317 Zn309 1.943 1_556 S
O317 C316 1.249 . S
O318 Zn308 2.067 1_556 S
O318 C316 1.270 . S
C319 O312 1.262 . S
C319 O320 1.232 1_554 S
O320 C319 1.232 1_556 S
C321 O313 1.260 . S
C321 O314 1.257 . S
Zn322 O325 2.031 1_554 S
Zn322 O327 2.049 . S
Zn322 O332 2.067 1_554 S
Zn323 O324 1.962 . S
Zn323 O326 1.986 . S
Zn323 O328 1.996 . S
Zn323 O331 1.943 1_554 S
O324 Zn323 1.962 . S
O324 C329 1.254 1_554 S
O325 Zn322 2.031 1_556 S
O325 C329 1.269 . S
O326 Zn323 1.986 . S
O326 C333 1.262 . S
O327 Zn322 2.049 . S
O327 C335 1.260 . S
O328 Zn323 1.996 . S
O328 C335 1.257 . S
C329 O324 1.254 1_556 S
C329 O325 1.269 . S
C330 O331 1.249 . S
C330 O332 1.270 . S
O331 Zn323 1.943 1_556 S
O331 C330 1.249 . S
O332 Zn322 2.067 1_556 S
O332 C330 1.270 . S
C333 O326 1.262 . S
C333 O334 1.232 1_554 S
O334 C333 1.232 1_556 S
C335 O327 1.260 . S
C335 O328 1.257 . S
Zn336 O339 2.031 . S
Zn336 O341 2.049 . S
Zn336 O346 2.067 . S
Zn337 O338 1.962 . S
Zn337 O340 1.986 . S
Zn337 O342 1.996 . S
Zn337 O345 1.943 . S
O338 Zn337 1.962 . S
O338 C343 1.254 . S
O339 Zn336 2.031 . S
O339 C343 1.269 . S
O340 Zn337 1.986 . S
O340 C347 1.262 . S
O341 Zn336 2.049 . S
O341 C349 1.260 . S
O342 Zn337 1.996 . S
O342 C349 1.257 . S
C343 O338 1.254 . S
C343 O339 1.269 . S
C344 O345 1.249 . S
C344 O346 1.270 . S
O345 Zn337 1.943 . S
O345 C344 1.249 . S
O346 Zn336 2.067 . S
O346 C344 1.270 . S
C347 O340 1.262 . S
C347 O348 1.232 . S
O348 C347 1.232 . S
C349 O341 1.260 . S
C349 O342 1.257 . S
Zn350 O353 2.031 . S
Zn350 O355 2.049 . S
Zn350 O360 2.067 . S
Zn351 O352 1.962 . S
Zn351 O354 1.986 . S
Zn351 O356 1.996 . S
Zn351 O359 1.943 . S
O352 Zn351 1.962 . S
O352 C357 1.254 . S
O353 Zn350 2.031 . S
O353 C357 1.269 . S
O354 Zn351 1.986 . S
O354 C361 1.262 . S
O355 Zn350 2.049 . S
O355 C363 1.260 . S
O356 Zn351 1.996 . S
O356 C363 1.257 . S
C357 O352 1.254 . S
C357 O353 1.269 . S
C358 O359 1.249 . S
C358 O360 1.270 . S
O359 Zn351 1.943 . S
O359 C358 1.249 . S
O360 Zn350 2.067 . S
O360 C358 1.270 . S
C361 O354 1.262 . S
C361 O362 1.232 . S
O362 C361 1.232 . S
C363 O355 1.260 . S
C363 O356 1.257 . S
Zn364 O367 2.031 . S
Zn364 O369 2.049 . S
Zn364 O374 2.067 . S
Zn365 O366 1.962 . S
Zn365 O368 1.986 . S
Zn365 O370 1.996 . S
Zn365 O373 1.943 . S
O366 Zn365 1.962 . S
O366 C371 1.254 . S
O367 Zn364 2.031 . S
O367 C371 1.269 . S
O368 Zn365 1.986 . S
O368 C375 1.262 . S
O369 Zn364 2.049 . S
O369 C377 1.260 . S
O370 Zn365 1.996 . S
O370 C377 1.257 . S
C371 O366 1.254 . S
C371 O367 1.269 . S
C372 O373 1.249 . S
C372 O374 1.270 . S
O373 Zn365 1.943 . S
O373 C372 1.249 . S
O374 Zn364 2.067 . S
O374 C372 1.270 . S
C375 O368 1.262 . S
C375 O376 1.232 . S
O376 C375 1.232 . S
C377 O369 1.260 . S
C377 O370 1.257 . S
Zn378 O381 2.031 1_556 S
Zn378 O383 2.049 . S
Zn378 O388 2.067 1_556 S
Zn379 O380 1.962 . S
Zn379 O382 1.986 . S
Zn379 O384 1.996 . S
Zn379 O387 1.943 1_556 S
O380 Zn379 1.962 . S
O380 C385 1.254 1_556 S
O381 Zn378 2.031 1_554 S
O381 C385 1.269 . S
O382 Zn379 1.986 . S
O382 C389 1.262 . S
O383 Zn378 2.049 . S
O383 C391 1.260 . S
O384 Zn379 1.996 . S
O384 C391 1.257 . S
C385 O380 1.254 1_554 S
C385 O381 1.269 . S
C386 O387 1.249 . S
C386 O388 1.270 . S
O387 Zn379 1.943 1_554 S
O387 C386 1.249 . S
O388 Zn378 2.067 1_554 S
O388 C386 1.270 . S
C389 O382 1.262 . S
C389 O390 1.232 1_556 S
O390 C389 1.232 1_554 S
C391 O383 1.260 . S
C391 O384 1.257 . S
Zn392 O395 2.031 1_556 S
Zn392 O397 2.049 . S
Zn392 O402 2.067 1_556 S
Zn393 O394 1.962 . S
Zn393 O396 1.986 . S
Zn393 O398 1.996 . S
Zn393 O401 1.943 1_556 S
O394 Zn393 1.962 . S
O394 C399 1.254 1_556 S
O395 Zn392 2.031 1_554 S
O395 C399 1.269 . S
O396 Zn393 1.986 . S
O396 C403 1.262 . S
O397 Zn392 2.049 . S
O397 C405 1.260 . S
O398 Zn393 1.996 . S
O398 C405 1.257 . S
C399 O394 1.254 1_554 S
C399 O395 1.269 . S
C400 O401 1.249 . S
C400 O402 1.270 . S
O401 Zn393 1.943 1_554 S
O401 C400 1.249 . S
O402 Zn392 2.067 1_554 S
O402 C400 1.270 . S
C403 O396 1.262 . S
C403 O404 1.232 1_556 S
O404 C403 1.232 1_554 S
C405 O397 1.260 . S
C405 O398 1.257 . S
Zn406 O409 2.031 1_556 S
Zn406 O411 2.049 . S
Zn406 O416 2.067 1_556 S
Zn407 O408 1.962 . S
Zn407 O410 1.986 . S
Zn407 O412 1.996 . S
Zn407 O415 1.943 1_556 S
O408 Zn407 1.962 . S
O408 C413 1.254 1_556 S
O409 Zn406 2.031 1_554 S
O409 C413 1.269 . S
O410 Zn407 1.986 . S
O410 C417 1.262 . S
O411 Zn406 2.049 . S
O411 C419 1.260 . S
O412 Zn407 1.996 . S
O412 C419 1.257 . S
C413 O408 1.254 1_554 S
C413 O409 1.269 . S
C414 O415 1.249 . S
C414 O416 1.270 . S
O415 Zn407 1.943 1_554 S
O415 C414 1.249 . S
O416 Zn406 2.067 1_554 S
O416 C414 1.270 . S
C417 O410 1.262 . S
C417 O418 1.232 1_556 S
O418 C417 1.232 1_554 S
C419 O411 1.260 . S
C419 O412 1.257 . S
Zn420 O423 2.031 . S
Zn420 O425 2.049 . S
Zn420 O430 2.067 . S
Zn421 O422 1.962 . S
Zn421 O424 1.986 . S
Zn421 O426 1.996 . S
Zn421 O429 1.943 . S
O422 Zn421 1.962 . S
O422 C427 1.254 . S
O423 Zn420 2.031 . S
O423 C427 1.269 . S
O424 Zn421 1.986 . S
O424 C431 1.262 . S
O425 Zn420 2.049 . S
O425 C433 1.260 . S
O426 Zn421 1.996 . S
O426 C433 1.257 . S
C427 O422 1.254 . S
C427 O423 1.269 . S
C428 O429 1.249 . S
C428 O430 1.270 . S
O429 Zn421 1.943 . S
O429 C428 1.249 . S
O430 Zn420 2.067 . S
O430 C428 1.270 . S
C431 O424 1.262 . S
C431 O432 1.232 . S
O432 C431 1.232 . S
C433 O425 1.260 . S
C433 O426 1.257 . S
Zn434 O437 2.031 . S
Zn434 O439 2.049 . S
Zn434 O444 2.067 . S
Zn435 O436 1.962 . S
Zn435 O438 1.986 . S
Zn435 O440 1.996 . S
Zn435 O443 1.943 . S
O436 Zn435 1.962 . S
O436 C441 1.254 . S
O437 Zn434 2.031 . S
O437 C441 1.269 . S
O438 Zn435 1.986 . S
O438 C445 1.262 . S
O439 Zn434 2.049 . S
O439 C447 1.260 . S
O440 Zn435 1.996 . S
O440 C447 1.257 . S
C441 O436 1.254 . S
C441 O437 1.269 . S
C442 O443 1.249 . S
C442 O444 1.270 . S
O443 Zn435 1.943 . S
O443 C442 1.249 . S
O444 Zn434 2.067 . S
O444 C442 1.270 . S
C445 O438 1.262 . S
C445 O446 1.232 . S
O446 C445 1.232 . S
C447 O439 1.260 . S
C447 O440 1.257 . S
Zn448 O451 2.031 . S
Zn448 O453 2.049 . S
Zn448 O458 2.067 . S
Zn449 O450 1.962 . S
Zn449 O452 1.986 . S
Zn449 O454 1.996 . S
Zn449 O457 1.943 . S
O450 Zn449 1.962 . S
O450 C455 1.254 . S
O451 Zn448 2.031 . S
O451 C455 1.269 . S
O452 Zn449 1.986 . S
O452 C459 1.262 . S
O453 Zn448 2.049 . S
O453 C461 1.260 . S
O454 Zn449 1.996 . S
O454 C461 1.257 . S
C455 O450 1.254 . S
C455 O451 1.269 . S
C456 O457 1.249 . S
C456 O458 1.270 . S
O457 Zn449 1.943 . S
O457 C456 1.249 . S
O458 Zn448 2.067 . S
O458 C456 1.270 . S
C459 O452 1.262 . S
C459 O460 1.232 . S
O460 C459 1.232 . S
C461 O453 1.260 . S
C461 O454 1.257 . S
Zn462 O465 2.031 . S
Zn462 O467 2.049 . S
Zn462 O472 2.067 . S
Zn463 O464 1.962 . S
Zn463 O466 1.986 . S
Zn463 O468 1.996 . S
Zn463 O471 1.943 . S
O464 Zn463 1.962 . S
O464 C469 1.254 . S
O465 Zn462 2.031 . S
O465 C469 1.269 . S
O466 Zn463 1.986 . S
O466 C473 1.262 . S
O467 Zn462 2.049 . S
O467 C475 1.260 . S
O468 Zn463 1.996 . S
O468 C475 1.257 . S
C469 O464 1.254 . S
C469 O465 1.269 . S
C470 O471 1.249 . S
C470 O472 1.270 . S
O471 Zn463 1.943 . S
O471 C470 1.249 . S
O472 Zn462 2.067 . S
O472 C470 1.270 . S
C473 O466 1.262 . S
C473 O474 1.232 . S
O474 C473 1.232 . S
C475 O467 1.260 . S
C475 O468 1.257 . S
Zn476 O479 2.031 . S
Zn476 O481 2.049 . S
Zn476 O486 2.067 . S
Zn477 O478 1.962 . S
Zn477 O480 1.986 . S
Zn477 O482 1.996 . S
Zn477 O485 1.943 . S
O478 Zn477 1.962 . S
O478 C483 1.254 . S
O479 Zn476 2.031 . S
O479 C483 1.269 . S
O480 Zn477 1.986 . S
O480 C487 1.262 . S
O481 Zn476 2.049 . S
O481 C489 1.260 . S
O482 Zn477 1.996 . S
O482 C489 1.257 . S
C483 O478 1.254 . S
C483 O479 1.269 . S
C484 O485 1.249 . S
C484 O486 1.270 . S
O485 Zn477 1.943 . S
O485 C484 1.249 . S
O486 Zn476 2.067 . S
O486 C484 1.270 . S
C487 O480 1.262 . S
C487 O488 1.232 . S
O488 C487 1.232 . S
C489 O481 1.260 . S
C489 O482 1.257 . S
Zn490 O493 2.031 . S
Zn490 O495 2.049 . S
Zn490 O500 2.067 . S
Zn491 O492 1.962 . S
Zn491 O494 1.986 . S
Zn491 O496 1.996 . S
Zn491 O499 1.943 . S
O492 Zn491 1.962 . S
O492 C497 1.254 . S
O493 Zn490 2.031 . S
O493 C497 1.269 . S
O494 Zn491 1.986 . S
O494 C501 1.262 . S
O495 Zn490 2.049 . S
O495 C503 1.260 . S
O496 Zn491 1.996 . S
O496 C503 1.257 . S
C497 O492 1.254 . S
C497 O493 1.269 . S
C498 O499 1.249 . S
C498 O500 1.270 . S
O499 Zn491 1.943 . S
O499 C498 1.249 . S
O500 Zn490 2.067 . S
O500 C498 1.270 . S
C501 O494 1.262 . S
C501 O502 1.232 . S
O502 C501 1.232 . S
C503 O495 1.260 . S
C503 O496 1.257 . S
H504 C510 0.930 . S
H505 C514 0.930 . S
H506 C519 0.929 . S
H507 C517 0.929 . S
H508 C512 0.929 . S
H509 C518 0.929 . S
C510 H504 0.930 . S
C510 C511 1.367 . S
C510 C518 1.378 . S
C511 C510 1.367 . S
C511 C519 1.433 . S
C512 H508 0.929 . S
C512 C514 1.378 . S
C512 C516 1.350 . S
C513 C516 1.463 . S
C513 C518 1.350 . S
C513 N521 1.427 . S
C514 H505 0.930 . S
C514 C512 1.378 . S
C514 C515 1.367 . S
C515 C514 1.367 . S
C515 C517 1.433 . S
C516 C512 1.350 . S
C516 C513 1.463 . S
C516 N520 1.427 . S
C517 H507 0.929 . S
C517 C515 1.433 . S
C517 N520 1.384 . S
C518 H509 0.929 . S
C518 C510 1.378 . S
C518 C513 1.350 . S
C519 H506 0.929 . S
C519 C511 1.433 . S
C519 N521 1.384 . S
N520 C516 1.427 . S
N520 C517 1.384 . S
N521 C513 1.427 . S
N521 C519 1.384 . S
H522 C528 0.930 . S
H523 C532 0.930 . S
H524 C537 0.929 . S
H525 C535 0.929 . S
H526 C530 0.929 . S
H527 C536 0.929 . S
C528 H522 0.930 . S
C528 C529 1.367 . S
C528 C536 1.378 . S
C529 C528 1.367 . S
C529 C537 1.433 . S
C530 H526 0.929 . S
C530 C532 1.378 . S
C530 C534 1.350 . S
C531 C534 1.463 1_545 S
C531 C536 1.350 . S
C531 N539 1.427 . S
C532 H523 0.930 . S
C532 C530 1.378 . S
C532 C533 1.367 . S
C533 C532 1.367 . S
C533 C535 1.433 . S
C534 C530 1.350 . S
C534 C531 1.463 1_565 S
C534 N538 1.427 . S
C535 H525 0.929 . S
C535 C533 1.433 . S
C535 N538 1.384 . S
C536 H527 0.929 . S
C536 C528 1.378 . S
C536 C531 1.350 . S
C537 H524 0.929 . S
C537 C529 1.433 . S
C537 N539 1.384 . S
N538 C534 1.427 . S
N538 C535 1.384 . S
N539 C531 1.427 . S
N539 C537 1.384 . S
H540 C546 0.930 . S
H541 C550 0.930 . S
H542 C555 0.929 . S
H543 C553 0.929 . S
H544 C548 0.929 . S
H545 C554 0.929 . S
C546 H540 0.930 . S
C546 C547 1.367 . S
C546 C554 1.378 . S
C547 C546 1.367 . S
C547 C555 1.433 . S
C548 H544 0.929 . S
C548 C550 1.378 . S
C548 C552 1.350 . S
C549 C552 1.463 1_655 S
C549 C554 1.350 . S
C549 N557 1.427 . S
C550 H541 0.930 . S
C550 C548 1.378 . S
C550 C551 1.367 . S
C551 C550 1.367 . S
C551 C553 1.433 . S
C552 C548 1.350 . S
C552 C549 1.463 1_455 S
C552 N556 1.427 . S
C553 H543 0.929 . S
C553 C551 1.433 . S
C553 N556 1.384 . S
C554 H545 0.929 . S
C554 C546 1.378 . S
C554 C549 1.350 . S
C555 H542 0.929 . S
C555 C547 1.433 . S
C555 N557 1.384 . S
N556 C552 1.427 . S
N556 C553 1.384 . S
N557 C549 1.427 . S
N557 C555 1.384 . S
H558 C564 0.930 . S
H559 C568 0.930 . S
H560 C573 0.929 . S
H561 C571 0.929 . S
H562 C566 0.929 . S
H563 C572 0.929 . S
C564 H558 0.930 . S
C564 C565 1.367 . S
C564 C572 1.378 . S
C565 C564 1.367 . S
C565 C573 1.433 . S
C566 H562 0.929 . S
C566 C568 1.378 . S
C566 C570 1.350 . S
C567 C570 1.463 . S
C567 C572 1.350 . S
C567 N575 1.427 . S
C568 H559 0.930 . S
C568 C566 1.378 . S
C568 C569 1.367 . S
C569 C568 1.367 . S
C569 C571 1.433 . S
C570 C566 1.350 . S
C570 C567 1.463 . S
C570 N574 1.427 . S
C571 H561 0.929 . S
C571 C569 1.433 . S
C571 N574 1.384 . S
C572 H563 0.929 . S
C572 C564 1.378 . S
C572 C567 1.350 . S
C573 H560 0.929 . S
C573 C565 1.433 . S
C573 N575 1.384 . S
N574 C570 1.427 . S
N574 C571 1.384 . S
N575 C567 1.427 . S
N575 C573 1.384 . S
H576 C582 0.930 . S
H577 C586 0.930 . S
H578 C591 0.929 . S
H579 C589 0.929 . S
H580 C584 0.929 . S
H581 C590 0.929 . S
C582 H576 0.930 . S
C582 C583 1.367 . S
C582 C590 1.378 . S
C583 C582 1.367 . S
C583 C591 1.433 . S
C584 H580 0.929 . S
C584 C586 1.378 . S
C584 C588 1.350 . S
C585 C588 1.463 1_545 S
C585 C590 1.350 . S
C585 N593 1.427 . S
C586 H577 0.930 . S
C586 C584 1.378 . S
C586 C587 1.367 . S
C587 C586 1.367 . S
C587 C589 1.433 . S
C588 C584 1.350 . S
C588 C585 1.463 1_565 S
C588 N592 1.427 . S
C589 H579 0.929 . S
C589 C587 1.433 . S
C589 N592 1.384 . S
C590 H581 0.929 . S
C590 C582 1.378 . S
C590 C585 1.350 . S
C591 H578 0.929 . S
C591 C583 1.433 . S
C591 N593 1.384 . S
N592 C588 1.427 . S
N592 C589 1.384 . S
N593 C585 1.427 . S
N593 C591 1.384 . S
H594 C600 0.930 . S
H595 C604 0.930 . S
H596 C609 0.929 . S
H597 C607 0.929 . S
H598 C602 0.929 . S
H599 C608 0.929 . S
C600 H594 0.930 . S
C600 C601 1.367 . S
C600 C608 1.378 . S
C601 C600 1.367 . S
C601 C609 1.433 . S
C602 H598 0.929 . S
C602 C604 1.378 . S
C602 C606 1.350 . S
C603 C606 1.463 1_455 S
C603 C608 1.350 . S
C603 N611 1.427 . S
C604 H595 0.930 . S
C604 C602 1.378 . S
C604 C605 1.367 . S
C605 C604 1.367 . S
C605 C607 1.433 . S
C606 C602 1.350 . S
C606 C603 1.463 1_655 S
C606 N610 1.427 . S
C607 H597 0.929 . S
C607 C605 1.433 . S
C607 N610 1.384 . S
C608 H599 0.929 . S
C608 C600 1.378 . S
C608 C603 1.350 . S
C609 H596 0.929 . S
C609 C601 1.433 . S
C609 N611 1.384 . S
N610 C606 1.427 . S
N610 C607 1.384 . S
N611 C603 1.427 . S
N611 C609 1.384 . S
H612 C618 0.930 . S
H613 C622 0.930 . S
H614 C627 0.929 . S
H615 C625 0.929 . S
H616 C620 0.929 . S
H617 C626 0.929 . S
C618 H612 0.930 . S
C618 C619 1.367 . S
C618 C626 1.378 . S
C619 C618 1.367 . S
C619 C627 1.433 . S
C620 H616 0.929 . S
C620 C622 1.378 . S
C620 C624 1.350 . S
C621 C624 1.463 . S
C621 C626 1.350 . S
C621 N629 1.427 . S
C622 H613 0.930 . S
C622 C620 1.378 . S
C622 C623 1.367 . S
C623 C622 1.367 . S
C623 C625 1.433 . S
C624 C620 1.350 . S
C624 C621 1.463 . S
C624 N628 1.427 . S
C625 H615 0.929 . S
C625 C623 1.433 . S
C625 N628 1.384 . S
C626 H617 0.929 . S
C626 C618 1.378 . S
C626 C621 1.350 . S
C627 H614 0.929 . S
C627 C619 1.433 . S
C627 N629 1.384 . S
N628 C624 1.427 . S
N628 C625 1.384 . S
N629 C621 1.427 . S
N629 C627 1.384 . S
H630 C636 0.930 . S
H631 C640 0.930 . S
H632 C645 0.929 . S
H633 C643 0.929 . S
H634 C638 0.929 . S
H635 C644 0.929 . S
C636 H630 0.930 . S
C636 C637 1.367 . S
C636 C644 1.378 . S
C637 C636 1.367 . S
C637 C645 1.433 . S
C638 H634 0.929 . S
C638 C640 1.378 . S
C638 C642 1.350 . S
C639 C642 1.463 . S
C639 C644 1.350 . S
C639 N647 1.427 . S
C640 H631 0.930 . S
C640 C638 1.378 . S
C640 C641 1.367 . S
C641 C640 1.367 . S
C641 C643 1.433 . S
C642 C638 1.350 . S
C642 C639 1.463 . S
C642 N646 1.427 . S
C643 H633 0.929 . S
C643 C641 1.433 . S
C643 N646 1.384 . S
C644 H635 0.929 . S
C644 C636 1.378 . S
C644 C639 1.350 . S
C645 H632 0.929 . S
C645 C637 1.433 . S
C645 N647 1.384 . S
N646 C642 1.427 . S
N646 C643 1.384 . S
N647 C639 1.427 . S
N647 C645 1.384 . S
H648 C654 0.930 . S
H649 C658 0.930 . S
H650 C663 0.929 . S
H651 C661 0.929 . S
H652 C656 0.929 . S
H653 C662 0.929 . S
C654 H648 0.930 . S
C654 C655 1.367 . S
C654 C662 1.378 . S
C655 C654 1.367 . S
C655 C663 1.433 . S
C656 H652 0.929 . S
C656 C658 1.378 . S
C656 C660 1.350 . S
C657 C660 1.463 . S
C657 C662 1.350 . S
C657 N665 1.427 . S
C658 H649 0.930 . S
C658 C656 1.378 . S
C658 C659 1.367 . S
C659 C658 1.367 . S
C659 C661 1.433 . S
C660 C656 1.350 . S
C660 C657 1.463 . S
C660 N664 1.427 . S
C661 H651 0.929 . S
C661 C659 1.433 . S
C661 N664 1.384 . S
C662 H653 0.929 . S
C662 C654 1.378 . S
C662 C657 1.350 . S
C663 H650 0.929 . S
C663 C655 1.433 . S
C663 N665 1.384 . S
N664 C660 1.427 . S
N664 C661 1.384 . S
N665 C657 1.427 . S
N665 C663 1.384 . S
H666 C672 0.930 . S
H667 C676 0.930 1_556 S
H668 C681 0.929 . S
H669 C679 0.929 . S
H670 C674 0.929 1_556 S
H671 C680 0.929 . S
C672 H666 0.930 . S
C672 C673 1.367 . S
C672 C680 1.378 . S
C673 C672 1.367 . S
C673 C681 1.433 . S
C674 H670 0.929 1_554 S
C674 C676 1.378 . S
C674 C678 1.350 . S
C675 C678 1.463 . S
C675 C680 1.350 . S
C675 N683 1.427 . S
C676 H667 0.930 1_554 S
C676 C674 1.378 . S
C676 C677 1.367 . S
C677 C676 1.367 . S
C677 C679 1.433 . S
C678 C674 1.350 . S
C678 C675 1.463 . S
C678 N682 1.427 . S
C679 H669 0.929 . S
C679 C677 1.433 . S
C679 N682 1.384 . S
C680 H671 0.929 . S
C680 C672 1.378 . S
C680 C675 1.350 . S
C681 H668 0.929 . S
C681 C673 1.433 . S
C681 N683 1.384 . S
N682 C678 1.427 . S
N682 C679 1.384 . S
N683 C675 1.427 . S
N683 C681 1.384 . S
H684 C690 0.930 . S
H685 C694 0.930 . S
H686 C699 0.929 . S
H687 C697 0.929 . S
H688 C692 0.929 . S
H689 C698 0.929 . S
C690 H684 0.930 . S
C690 C691 1.367 . S
C690 C698 1.378 . S
C691 C690 1.367 . S
C691 C699 1.433 . S
C692 H688 0.929 . S
C692 C694 1.378 . S
C692 C696 1.350 . S
C693 C696 1.463 . S
C693 C698 1.350 . S
C693 N701 1.427 . S
C694 H685 0.930 . S
C694 C692 1.378 . S
C694 C695 1.367 . S
C695 C694 1.367 . S
C695 C697 1.433 . S
C696 C692 1.350 . S
C696 C693 1.463 . S
C696 N700 1.427 . S
C697 H687 0.929 . S
C697 C695 1.433 . S
C697 N700 1.384 . S
C698 H689 0.929 . S
C698 C690 1.378 . S
C698 C693 1.350 . S
C699 H686 0.929 . S
C699 C691 1.433 . S
C699 N701 1.384 . S
N700 C696 1.427 . S
N700 C697 1.384 . S
N701 C693 1.427 . S
N701 C699 1.384 . S
H702 C708 0.930 . S
H703 C712 0.930 . S
H704 C717 0.929 . S
H705 C715 0.929 . S
H706 C710 0.929 . S
H707 C716 0.929 . S
C708 H702 0.930 . S
C708 C709 1.367 . S
C708 C716 1.378 . S
C709 C708 1.367 . S
C709 C717 1.433 . S
C710 H706 0.929 . S
C710 C712 1.378 . S
C710 C714 1.350 . S
C711 C714 1.463 . S
C711 C716 1.350 . S
C711 N719 1.427 . S
C712 H703 0.930 . S
C712 C710 1.378 . S
C712 C713 1.367 . S
C713 C712 1.367 . S
C713 C715 1.433 . S
C714 C710 1.350 . S
C714 C711 1.463 . S
C714 N718 1.427 . S
C715 H705 0.929 . S
C715 C713 1.433 . S
C715 N718 1.384 . S
C716 H707 0.929 . S
C716 C708 1.378 . S
C716 C711 1.350 . S
C717 H704 0.929 . S
C717 C709 1.433 . S
C717 N719 1.384 . S
N718 C714 1.427 . S
N718 C715 1.384 . S
N719 C711 1.427 . S
N719 C717 1.384 . S
H720 C726 0.930 . S
H721 C730 0.930 . S
H722 C735 0.929 . S
H723 C733 0.929 . S
H724 C728 0.929 . S
H725 C734 0.929 . S
C726 H720 0.930 . S
C726 C727 1.367 . S
C726 C734 1.378 . S
C727 C726 1.367 . S
C727 C735 1.433 . S
C728 H724 0.929 . S
C728 C730 1.378 . S
C728 C732 1.350 . S
C729 C732 1.463 . S
C729 C734 1.350 . S
C729 N737 1.427 . S
C730 H721 0.930 . S
C730 C728 1.378 . S
C730 C731 1.367 . S
C731 C730 1.367 . S
C731 C733 1.433 . S
C732 C728 1.350 . S
C732 C729 1.463 . S
C732 N736 1.427 . S
C733 H723 0.929 . S
C733 C731 1.433 . S
C733 N736 1.384 . S
C734 H725 0.929 . S
C734 C726 1.378 . S
C734 C729 1.350 . S
C735 H722 0.929 . S
C735 C727 1.433 . S
C735 N737 1.384 . S
N736 C732 1.427 . S
N736 C733 1.384 . S
N737 C729 1.427 . S
N737 C735 1.384 . S
H738 C744 0.930 . S
H739 C748 0.930 . S
H740 C753 0.929 . S
H741 C751 0.929 1_554 S
H742 C746 0.929 . S
H743 C752 0.929 . S
C744 H738 0.930 . S
C744 C745 1.367 . S
C744 C752 1.378 . S
C745 C744 1.367 . S
C745 C753 1.433 . S
C746 H742 0.929 . S
C746 C748 1.378 . S
C746 C750 1.350 . S
C747 C750 1.463 . S
C747 C752 1.350 . S
C747 N755 1.427 . S
C748 H739 0.930 . S
C748 C746 1.378 . S
C748 C749 1.367 . S
C749 C748 1.367 . S
C749 C751 1.433 . S
C750 C746 1.350 . S
C750 C747 1.463 . S
C750 N754 1.427 . S
C751 H741 0.929 1_556 S
C751 C749 1.433 . S
C751 N754 1.384 . S
C752 H743 0.929 . S
C752 C744 1.378 . S
C752 C747 1.350 . S
C753 H740 0.929 . S
C753 C745 1.433 . S
C753 N755 1.384 . S
N754 C750 1.427 . S
N754 C751 1.384 . S
N755 C747 1.427 . S
N755 C753 1.384 . S
H756 C762 0.930 1_554 S
H757 C766 0.930 . S
H758 C771 0.929 . S
H759 C769 0.929 . S
H760 C764 0.929 . S
H761 C770 0.929 1_554 S
C762 H756 0.930 1_556 S
C762 C763 1.367 . S
C762 C770 1.378 . S
C763 C762 1.367 . S
C763 C771 1.433 . S
C764 H760 0.929 . S
C764 C766 1.378 . S
C764 C768 1.350 . S
C765 C768 1.463 . S
C765 C770 1.350 . S
C765 N773 1.427 . S
C766 H757 0.930 . S
C766 C764 1.378 . S
C766 C767 1.367 . S
C767 C766 1.367 . S
C767 C769 1.433 . S
C768 C764 1.350 . S
C768 C765 1.463 . S
C768 N772 1.427 . S
C769 H759 0.929 . S
C769 C767 1.433 . S
C769 N772 1.384 . S
C770 H761 0.929 1_556 S
C770 C762 1.378 . S
C770 C765 1.350 . S
C771 H758 0.929 . S
C771 C763 1.433 . S
C771 N773 1.384 . S
N772 C768 1.427 . S
N772 C769 1.384 . S
N773 C765 1.427 . S
N773 C771 1.384 . S
H774 C780 0.930 . S
H775 C784 0.930 . S
H776 C789 0.929 . S
H777 C787 0.929 . S
H778 C782 0.929 . S
H779 C788 0.929 . S
C780 H774 0.930 . S
C780 C781 1.367 . S
C780 C788 1.378 . S
C781 C780 1.367 . S
C781 C789 1.433 . S
C782 H778 0.929 . S
C782 C784 1.378 . S
C782 C786 1.350 . S
C783 C786 1.463 . S
C783 C788 1.350 . S
C783 N791 1.427 . S
C784 H775 0.930 . S
C784 C782 1.378 . S
C784 C785 1.367 . S
C785 C784 1.367 . S
C785 C787 1.433 . S
C786 C782 1.350 . S
C786 C783 1.463 . S
C786 N790 1.427 . S
C787 H777 0.929 . S
C787 C785 1.433 . S
C787 N790 1.384 . S
C788 H779 0.929 . S
C788 C780 1.378 . S
C788 C783 1.350 . S
C789 H776 0.929 . S
C789 C781 1.433 . S
C789 N791 1.384 . S
N790 C786 1.427 . S
N790 C787 1.384 . S
N791 C783 1.427 . S
N791 C789 1.384 . S
H792 C798 0.930 . S
H793 C802 0.930 . S
H794 C807 0.929 . S
H795 C805 0.929 . S
H796 C800 0.929 . S
H797 C806 0.929 . S
C798 H792 0.930 . S
C798 C799 1.367 . S
C798 C806 1.378 . S
C799 C798 1.367 . S
C799 C807 1.433 . S
C800 H796 0.929 . S
C800 C802 1.378 . S
C800 C804 1.350 . S
C801 C804 1.463 . S
C801 C806 1.350 . S
C801 N809 1.427 . S
C802 H793 0.930 . S
C802 C800 1.378 . S
C802 C803 1.367 . S
C803 C802 1.367 . S
C803 C805 1.433 . S
C804 C800 1.350 . S
C804 C801 1.463 . S
C804 N808 1.427 . S
C805 H795 0.929 . S
C805 C803 1.433 . S
C805 N808 1.384 . S
C806 H797 0.929 . S
C806 C798 1.378 . S
C806 C801 1.350 . S
C807 H794 0.929 . S
C807 C799 1.433 . S
C807 N809 1.384 . S
N808 C804 1.427 . S
N808 C805 1.384 . S
N809 C801 1.427 . S
N809 C807 1.384 . S
H810 C816 0.930 . S
H811 C820 0.930 . S
H812 C825 0.929 . S
H813 C823 0.929 . S
H814 C818 0.929 . S
H815 C824 0.929 . S
C816 H810 0.930 . S
C816 C817 1.367 . S
C816 C824 1.378 . S
C817 C816 1.367 . S
C817 C825 1.433 . S
C818 H814 0.929 . S
C818 C820 1.378 . S
C818 C822 1.350 . S
C819 C822 1.463 . S
C819 C824 1.350 . S
C819 N827 1.427 . S
C820 H811 0.930 . S
C820 C818 1.378 . S
C820 C821 1.367 . S
C821 C820 1.367 . S
C821 C823 1.433 . S
C822 C818 1.350 . S
C822 C819 1.463 . S
C822 N826 1.427 . S
C823 H813 0.929 . S
C823 C821 1.433 . S
C823 N826 1.384 . S
C824 H815 0.929 . S
C824 C816 1.378 . S
C824 C819 1.350 . S
C825 H812 0.929 . S
C825 C817 1.433 . S
C825 N827 1.384 . S
N826 C822 1.427 . S
N826 C823 1.384 . S
N827 C819 1.427 . S
N827 C825 1.384 . S
H828 C834 0.930 . S
H829 C838 0.930 . S
H830 C843 0.929 . S
H831 C841 0.929 . S
H832 C836 0.929 1_556 S
H833 C842 0.929 . S
C834 H828 0.930 . S
C834 C835 1.367 . S
C834 C842 1.378 . S
C835 C834 1.367 . S
C835 C843 1.433 . S
C836 H832 0.929 1_554 S
C836 C838 1.378 . S
C836 C840 1.350 1_554 S
C837 C840 1.463 . S
C837 C842 1.350 . S
C837 N845 1.427 . S
C838 H829 0.930 . S
C838 C836 1.378 . S
C838 C839 1.367 . S
C839 C838 1.367 . S
C839 C841 1.433 . S
C840 C836 1.350 1_556 S
C840 C837 1.463 . S
C840 N844 1.427 . S
C841 H831 0.929 . S
C841 C839 1.433 . S
C841 N844 1.384 1_554 S
C842 H833 0.929 . S
C842 C834 1.378 . S
C842 C837 1.350 . S
C843 H830 0.929 . S
C843 C835 1.433 . S
C843 N845 1.384 . S
N844 C840 1.427 . S
N844 C841 1.384 1_556 S
N845 C837 1.427 . S
N845 C843 1.384 . S
H846 C852 0.930 . S
H847 C856 0.930 . S
H848 C861 0.929 . S
H849 C859 0.929 . S
H850 C854 0.929 . S
H851 C860 0.929 . S
C852 H846 0.930 . S
C852 C853 1.367 . S
C852 C860 1.378 . S
C853 C852 1.367 . S
C853 C861 1.433 . S
C854 H850 0.929 . S
C854 C856 1.378 . S
C854 C858 1.350 . S
C855 C858 1.463 . S
C855 C860 1.350 1_556 S
C855 N863 1.427 . S
C856 H847 0.930 . S
C856 C854 1.378 . S
C856 C857 1.367 . S
C857 C856 1.367 . S
C857 C859 1.433 . S
C858 C854 1.350 . S
C858 C855 1.463 . S
C858 N862 1.427 . S
C859 H849 0.929 . S
C859 C857 1.433 . S
C859 N862 1.384 . S
C860 H851 0.929 . S
C860 C852 1.378 . S
C860 C855 1.350 1_554 S
C861 H848 0.929 . S
C861 C853 1.433 . S
C861 N863 1.384 1_554 S
N862 C858 1.427 . S
N862 C859 1.384 . S
N863 C855 1.427 . S
N863 C861 1.384 1_556 S
H864 C870 0.930 . S
H865 C874 0.930 . S
H866 C879 0.929 . S
H867 C877 0.929 . S
H868 C872 0.929 . S
H869 C878 0.929 . S
C870 H864 0.930 . S
C870 C871 1.367 . S
C870 C878 1.378 1_554 S
C871 C870 1.367 . S
C871 C879 1.433 . S
C872 H868 0.929 . S
C872 C874 1.378 . S
C872 C876 1.350 . S
C873 C876 1.463 . S
C873 C878 1.350 . S
C873 N881 1.427 1_556 S
C874 H865 0.930 . S
C874 C872 1.378 . S
C874 C875 1.367 . S
C875 C874 1.367 . S
C875 C877 1.433 . S
C876 C872 1.350 . S
C876 C873 1.463 . S
C876 N880 1.427 . S
C877 H867 0.929 . S
C877 C875 1.433 . S
C877 N880 1.384 . S
C878 H869 0.929 . S
C878 C870 1.378 1_556 S
C878 C873 1.350 . S
C879 H866 0.929 . S
C879 C871 1.433 . S
C879 N881 1.384 . S
N880 C876 1.427 . S
N880 C877 1.384 . S
N881 C873 1.427 1_554 S
N881 C879 1.384 . S
H882 C888 0.930 . S
H883 C892 0.930 . S
H884 C897 0.929 . S
H885 C895 0.929 . S
H886 C890 0.929 . S
H887 C896 0.929 . S
C888 H882 0.930 . S
C888 C889 1.367 . S
C888 C896 1.378 . S
C889 C888 1.367 . S
C889 C897 1.433 . S
C890 H886 0.929 . S
C890 C892 1.378 . S
C890 C894 1.350 . S
C891 C894 1.463 . S
C891 C896 1.350 . S
C891 N899 1.427 . S
C892 H883 0.930 . S
C892 C890 1.378 . S
C892 C893 1.367 . S
C893 C892 1.367 . S
C893 C895 1.433 . S
C894 C890 1.350 . S
C894 C891 1.463 . S
C894 N898 1.427 . S
C895 H885 0.929 . S
C895 C893 1.433 . S
C895 N898 1.384 . S
C896 H887 0.929 . S
C896 C888 1.378 . S
C896 C891 1.350 . S
C897 H884 0.929 . S
C897 C889 1.433 . S
C897 N899 1.384 . S
N898 C894 1.427 . S
N898 C895 1.384 . S
N899 C891 1.427 . S
N899 C897 1.384 . S
H900 C906 0.930 . S
H901 C910 0.930 . S
H902 C915 0.929 . S
H903 C913 0.929 . S
H904 C908 0.929 . S
H905 C914 0.929 . S
C906 H900 0.930 . S
C906 C907 1.367 . S
C906 C914 1.378 . S
C907 C906 1.367 . S
C907 C915 1.433 . S
C908 H904 0.929 . S
C908 C910 1.378 . S
C908 C912 1.350 . S
C909 C912 1.463 . S
C909 C914 1.350 . S
C909 N917 1.427 . S
C910 H901 0.930 . S
C910 C908 1.378 . S
C910 C911 1.367 . S
C911 C910 1.367 . S
C911 C913 1.433 . S
C912 C908 1.350 . S
C912 C909 1.463 . S
C912 N916 1.427 . S
C913 H903 0.929 . S
C913 C911 1.433 . S
C913 N916 1.384 . S
C914 H905 0.929 . S
C914 C906 1.378 . S
C914 C909 1.350 . S
C915 H902 0.929 . S
C915 C907 1.433 . S
C915 N917 1.384 . S
N916 C912 1.427 . S
N916 C913 1.384 . S
N917 C909 1.427 . S
N917 C915 1.384 . S
H918 C924 0.930 . S
H919 C928 0.930 . S
H920 C933 0.929 . S
H921 C931 0.929 . S
H922 C926 0.929 . S
H923 C932 0.929 . S
C924 H918 0.930 . S
C924 C925 1.367 . S
C924 C932 1.378 . S
C925 C924 1.367 . S
C925 C933 1.433 . S
C926 H922 0.929 . S
C926 C928 1.378 . S
C926 C930 1.350 . S
C927 C930 1.463 . S
C927 C932 1.350 . S
C927 N935 1.427 . S
C928 H919 0.930 . S
C928 C926 1.378 . S
C928 C929 1.367 . S
C929 C928 1.367 . S
C929 C931 1.433 . S
C930 C926 1.350 . S
C930 C927 1.463 . S
C930 N934 1.427 . S
C931 H921 0.929 . S
C931 C929 1.433 . S
C931 N934 1.384 . S
C932 H923 0.929 . S
C932 C924 1.378 . S
C932 C927 1.350 . S
C933 H920 0.929 . S
C933 C925 1.433 . S
C933 N935 1.384 . S
N934 C930 1.427 . S
N934 C931 1.384 . S
N935 C927 1.427 . S
N935 C933 1.384 . S
H936 C942 0.930 . S
H937 C946 0.930 . S
H938 C951 0.929 . S
H939 C949 0.929 . S
H940 C944 0.929 . S
H941 C950 0.929 . S
C942 H936 0.930 . S
C942 C943 1.367 . S
C942 C950 1.378 . S
C943 C942 1.367 . S
C943 C951 1.433 . S
C944 H940 0.929 . S
C944 C946 1.378 . S
C944 C948 1.350 . S
C945 C948 1.463 . S
C945 C950 1.350 1_554 S
C945 N953 1.427 . S
C946 H937 0.930 . S
C946 C944 1.378 . S
C946 C947 1.367 . S
C947 C946 1.367 . S
C947 C949 1.433 . S
C948 C944 1.350 . S
C948 C945 1.463 . S
C948 N952 1.427 . S
C949 H939 0.929 . S
C949 C947 1.433 . S
C949 N952 1.384 . S
C950 H941 0.929 . S
C950 C942 1.378 . S
C950 C945 1.350 1_556 S
C951 H938 0.929 . S
C951 C943 1.433 . S
C951 N953 1.384 1_556 S
N952 C948 1.427 . S
N952 C949 1.384 . S
N953 C945 1.427 . S
N953 C951 1.384 1_554 S
H954 C960 0.930 . S
H955 C964 0.930 . S
H956 C969 0.929 . S
H957 C967 0.929 . S
H958 C962 0.929 . S
H959 C968 0.929 . S
C960 H954 0.930 . S
C960 C961 1.367 . S
C960 C968 1.378 1_556 S
C961 C960 1.367 . S
C961 C969 1.433 . S
C962 H958 0.929 . S
C962 C964 1.378 . S
C962 C966 1.350 . S
C963 C966 1.463 . S
C963 C968 1.350 . S
C963 N971 1.427 1_554 S
C964 H955 0.930 . S
C964 C962 1.378 . S
C964 C965 1.367 . S
C965 C964 1.367 . S
C965 C967 1.433 . S
C966 C962 1.350 . S
C966 C963 1.463 . S
C966 N970 1.427 . S
C967 H957 0.929 . S
C967 C965 1.433 . S
C967 N970 1.384 . S
C968 H959 0.929 . S
C968 C960 1.378 1_554 S
C968 C963 1.350 . S
C969 H956 0.929 . S
C969 C961 1.433 . S
C969 N971 1.384 . S
N970 C966 1.427 . S
N970 C967 1.384 . S
N971 C963 1.427 1_556 S
N971 C969 1.384 . S
H972 C978 0.930 . S
H973 C982 0.930 . S
H974 C987 0.929 . S
H975 C985 0.929 . S
H976 C980 0.929 . S
H977 C986 0.929 . S
C978 H972 0.930 . S
C978 C979 1.367 . S
C978 C986 1.378 . S
C979 C978 1.367 . S
C979 C987 1.433 . S
C980 H976 0.929 . S
C980 C982 1.378 1_554 S
C980 C984 1.350 . S
C981 C984 1.463 . S
C981 C986 1.350 . S
C981 N989 1.427 . S
C982 H973 0.930 . S
C982 C980 1.378 1_556 S
C982 C983 1.367 . S
C983 C982 1.367 . S
C983 C985 1.433 . S
C984 C980 1.350 . S
C984 C981 1.463 . S
C984 N988 1.427 1_554 S
C985 H975 0.929 . S
C985 C983 1.433 . S
C985 N988 1.384 . S
C986 H977 0.929 . S
C986 C978 1.378 . S
C986 C981 1.350 . S
C987 H974 0.929 . S
C987 C979 1.433 . S
C987 N989 1.384 . S
N988 C984 1.427 1_556 S
N988 C985 1.384 . S
N989 C981 1.427 . S
N989 C987 1.384 . S
H990 C996 0.930 . S
H991 C1000 0.930 . S
H992 C1005 0.929 . S
H993 C1003 0.929 . S
H994 C998 0.929 . S
H995 C1004 0.929 . S
C996 H990 0.930 . S
C996 C997 1.367 . S
C996 C1004 1.378 . S
C997 C996 1.367 . S
C997 C1005 1.433 . S
C998 H994 0.929 . S
C998 C1000 1.378 . S
C998 C1002 1.350 . S
C999 C1002 1.463 . S
C999 C1004 1.350 . S
C999 N1007 1.427 . S
C1000 H991 0.930 . S
C1000 C998 1.378 . S
C1000 C1001 1.367 . S
C1001 C1000 1.367 . S
C1001 C1003 1.433 . S
C1002 C998 1.350 . S
C1002 C999 1.463 . S
C1002 N1006 1.427 . S
C1003 H993 0.929 . S
C1003 C1001 1.433 . S
C1003 N1006 1.384 . S
C1004 H995 0.929 . S
C1004 C996 1.378 . S
C1004 C999 1.350 . S
C1005 H992 0.929 . S
C1005 C997 1.433 . S
C1005 N1007 1.384 . S
N1006 C1002 1.427 . S
N1006 C1003 1.384 . S
N1007 C999 1.427 . S
N1007 C1005 1.384 . S
H1008 C1014 0.930 . S
H1009 C1018 0.930 . S
H1010 C1023 0.929 . S
H1011 C1021 0.929 . S
H1012 C1016 0.929 . S
H1013 C1022 0.929 . S
C1014 H1008 0.930 . S
C1014 C1015 1.367 . S
C1014 C1022 1.378 . S
C1015 C1014 1.367 . S
C1015 C1023 1.433 . S
C1016 H1012 0.929 . S
C1016 C1018 1.378 . S
C1016 C1020 1.350 . S
C1017 C1020 1.463 . S
C1017 C1022 1.350 . S
C1017 N1025 1.427 . S
C1018 H1009 0.930 . S
C1018 C1016 1.378 . S
C1018 C1019 1.367 . S
C1019 C1018 1.367 . S
C1019 C1021 1.433 . S
C1020 C1016 1.350 . S
C1020 C1017 1.463 . S
C1020 N1024 1.427 . S
C1021 H1011 0.929 . S
C1021 C1019 1.433 . S
C1021 N1024 1.384 . S
C1022 H1013 0.929 . S
C1022 C1014 1.378 . S
C1022 C1017 1.350 . S
C1023 H1010 0.929 . S
C1023 C1015 1.433 . S
C1023 N1025 1.384 . S
N1024 C1020 1.427 . S
N1024 C1021 1.384 . S
N1025 C1017 1.427 . S
N1025 C1023 1.384 . S
H1026 C1032 0.930 . S
H1027 C1036 0.930 . S
H1028 C1041 0.929 . S
H1029 C1039 0.929 . S
H1030 C1034 0.929 . S
H1031 C1040 0.929 . S
C1032 H1026 0.930 . S
C1032 C1033 1.367 . S
C1032 C1040 1.378 . S
C1033 C1032 1.367 . S
C1033 C1041 1.433 . S
C1034 H1030 0.929 . S
C1034 C1036 1.378 . S
C1034 C1038 1.350 . S
C1035 C1038 1.463 . S
C1035 C1040 1.350 . S
C1035 N1043 1.427 . S
C1036 H1027 0.930 . S
C1036 C1034 1.378 . S
C1036 C1037 1.367 . S
C1037 C1036 1.367 . S
C1037 C1039 1.433 . S
C1038 C1034 1.350 . S
C1038 C1035 1.463 . S
C1038 N1042 1.427 . S
C1039 H1029 0.929 . S
C1039 C1037 1.433 . S
C1039 N1042 1.384 . S
C1040 H1031 0.929 . S
C1040 C1032 1.378 . S
C1040 C1035 1.350 . S
C1041 H1028 0.929 . S
C1041 C1033 1.433 . S
C1041 N1043 1.384 . S
N1042 C1038 1.427 . S
N1042 C1039 1.384 . S
N1043 C1035 1.427 . S
N1043 C1041 1.384 . S
H1044 C1050 0.930 . S
H1045 C1054 0.930 . S
H1046 C1059 0.929 . S
H1047 C1057 0.929 . S
H1048 C1052 0.929 . S
H1049 C1058 0.929 . S
C1050 H1044 0.930 . S
C1050 C1051 1.367 . S
C1050 C1058 1.378 . S
C1051 C1050 1.367 . S
C1051 C1059 1.433 . S
C1052 H1048 0.929 . S
C1052 C1054 1.378 . S
C1052 C1056 1.350 . S
C1053 C1056 1.463 . S
C1053 C1058 1.350 . S
C1053 N1061 1.427 . S
C1054 H1045 0.930 . S
C1054 C1052 1.378 . S
C1054 C1055 1.367 . S
C1055 C1054 1.367 . S
C1055 C1057 1.433 . S
C1056 C1052 1.350 . S
C1056 C1053 1.463 . S
C1056 N1060 1.427 . S
C1057 H1047 0.929 . S
C1057 C1055 1.433 . S
C1057 N1060 1.384 . S
C1058 H1049 0.929 . S
C1058 C1050 1.378 . S
C1058 C1053 1.350 . S
C1059 H1046 0.929 . S
C1059 C1051 1.433 . S
C1059 N1061 1.384 . S
N1060 C1056 1.427 . S
N1060 C1057 1.384 . S
N1061 C1053 1.427 . S
N1061 C1059 1.384 . S
H1062 C1068 0.930 . S
H1063 C1072 0.930 . S
H1064 C1077 0.929 . S
H1065 C1075 0.929 . S
H1066 C1070 0.929 . S
H1067 C1076 0.929 . S
C1068 H1062 0.930 . S
C1068 C1069 1.367 . S
C1068 C1076 1.378 . S
C1069 C1068 1.367 . S
C1069 C1077 1.433 . S
C1070 H1066 0.929 . S
C1070 C1072 1.378 . S
C1070 C1074 1.350 . S
C1071 C1074 1.463 . S
C1071 C1076 1.350 . S
C1071 N1079 1.427 . S
C1072 H1063 0.930 . S
C1072 C1070 1.378 . S
C1072 C1073 1.367 . S
C1073 C1072 1.367 . S
C1073 C1075 1.433 . S
C1074 C1070 1.350 . S
C1074 C1071 1.463 . S
C1074 N1078 1.427 . S
C1075 H1065 0.929 . S
C1075 C1073 1.433 . S
C1075 N1078 1.384 . S
C1076 H1067 0.929 . S
C1076 C1068 1.378 . S
C1076 C1071 1.350 . S
C1077 H1064 0.929 . S
C1077 C1069 1.433 . S
C1077 N1079 1.384 . S
N1078 C1074 1.427 . S
N1078 C1075 1.384 . S
N1079 C1071 1.427 . S
N1079 C1077 1.384 . S
H1080 C1086 0.930 . S
H1081 C1090 0.930 . S
H1082 C1095 0.929 . S
H1083 C1093 0.929 . S
H1084 C1088 0.929 . S
H1085 C1094 0.929 . S
C1086 H1080 0.930 . S
C1086 C1087 1.367 . S
C1086 C1094 1.378 . S
C1087 C1086 1.367 . S
C1087 C1095 1.433 . S
C1088 H1084 0.929 . S
C1088 C1090 1.378 . S
C1088 C1092 1.350 . S
C1089 C1092 1.463 . S
C1089 C1094 1.350 . S
C1089 N1097 1.427 . S
C1090 H1081 0.930 . S
C1090 C1088 1.378 . S
C1090 C1091 1.367 . S
C1091 C1090 1.367 . S
C1091 C1093 1.433 . S
C1092 C1088 1.350 . S
C1092 C1089 1.463 . S
C1092 N1096 1.427 . S
C1093 H1083 0.929 . S
C1093 C1091 1.433 . S
C1093 N1096 1.384 . S
C1094 H1085 0.929 . S
C1094 C1086 1.378 . S
C1094 C1089 1.350 . S
C1095 H1082 0.929 . S
C1095 C1087 1.433 . S
C1095 N1097 1.384 . S
N1096 C1092 1.427 . S
N1096 C1093 1.384 . S
N1097 C1089 1.427 . S
N1097 C1095 1.384 . S
H1098 C1104 0.930 . S
H1099 C1108 0.930 . S
H1100 C1113 0.929 . S
H1101 C1111 0.929 . S
H1102 C1106 0.929 . S
H1103 C1112 0.929 . S
C1104 H1098 0.930 . S
C1104 C1105 1.367 . S
C1104 C1112 1.378 . S
C1105 C1104 1.367 . S
C1105 C1113 1.433 . S
C1106 H1102 0.929 . S
C1106 C1108 1.378 1_556 S
C1106 C1110 1.350 . S
C1107 C1110 1.463 . S
C1107 C1112 1.350 . S
C1107 N1115 1.427 . S
C1108 H1099 0.930 . S
C1108 C1106 1.378 1_554 S
C1108 C1109 1.367 . S
C1109 C1108 1.367 . S
C1109 C1111 1.433 1_554 S
C1110 C1106 1.350 . S
C1110 C1107 1.463 . S
C1110 N1114 1.427 . S
C1111 H1101 0.929 . S
C1111 C1109 1.433 1_556 S
C1111 N1114 1.384 . S
C1112 H1103 0.929 . S
C1112 C1104 1.378 . S
C1112 C1107 1.350 . S
C1113 H1100 0.929 . S
C1113 C1105 1.433 . S
C1113 N1115 1.384 . S
N1114 C1110 1.427 . S
N1114 C1111 1.384 . S
N1115 C1107 1.427 . S
N1115 C1113 1.384 . S
H1116 C1122 0.930 . S
H1117 C1126 0.930 . S
H1118 C1131 0.929 . S
H1119 C1129 0.929 . S
H1120 C1124 0.929 . S
H1121 C1130 0.929 . S
C1122 H1116 0.930 . S
C1122 C1123 1.367 1_556 S
C1122 C1130 1.378 . S
C1123 C1122 1.367 1_554 S
C1123 C1131 1.433 . S
C1124 H1120 0.929 . S
C1124 C1126 1.378 . S
C1124 C1128 1.350 . S
C1125 C1128 1.463 . S
C1125 C1130 1.350 . S
C1125 N1133 1.427 . S
C1126 H1117 0.930 . S
C1126 C1124 1.378 . S
C1126 C1127 1.367 . S
C1127 C1126 1.367 . S
C1127 C1129 1.433 . S
C1128 C1124 1.350 . S
C1128 C1125 1.463 . S
C1128 N1132 1.427 . S
C1129 H1119 0.929 . S
C1129 C1127 1.433 . S
C1129 N1132 1.384 . S
C1130 H1121 0.929 . S
C1130 C1122 1.378 . S
C1130 C1125 1.350 . S
C1131 H1118 0.929 . S
C1131 C1123 1.433 . S
C1131 N1133 1.384 1_554 S
N1132 C1128 1.427 . S
N1132 C1129 1.384 . S
N1133 C1125 1.427 . S
N1133 C1131 1.384 1_556 S
H1134 C1140 0.930 . S
H1135 C1144 0.930 . S
H1136 C1149 0.929 . S
H1137 C1147 0.929 . S
H1138 C1142 0.929 . S
H1139 C1148 0.929 . S
C1140 H1134 0.930 . S
C1140 C1141 1.367 . S
C1140 C1148 1.378 . S
C1141 C1140 1.367 . S
C1141 C1149 1.433 . S
C1142 H1138 0.929 . S
C1142 C1144 1.378 . S
C1142 C1146 1.350 . S
C1143 C1146 1.463 . S
C1143 C1148 1.350 . S
C1143 N1151 1.427 . S
C1144 H1135 0.930 . S
C1144 C1142 1.378 . S
C1144 C1145 1.367 1_556 S
C1145 C1144 1.367 1_554 S
C1145 C1147 1.433 . S
C1146 C1142 1.350 . S
C1146 C1143 1.463 . S
C1146 N1150 1.427 . S
C1147 H1137 0.929 . S
C1147 C1145 1.433 . S
C1147 N1150 1.384 1_554 S
C1148 H1139 0.929 . S
C1148 C1140 1.378 . S
C1148 C1143 1.350 . S
C1149 H1136 0.929 . S
C1149 C1141 1.433 . S
C1149 N1151 1.384 . S
N1150 C1146 1.427 . S
N1150 C1147 1.384 1_556 S
N1151 C1143 1.427 . S
N1151 C1149 1.384 . S
H1152 C1158 0.930 . S
H1153 C1162 0.930 . S
H1154 C1167 0.929 . S
H1155 C1165 0.929 . S
H1156 C1160 0.929 . S
H1157 C1166 0.929 . S
C1158 H1152 0.930 . S
C1158 C1159 1.367 . S
C1158 C1166 1.378 . S
C1159 C1158 1.367 . S
C1159 C1167 1.433 . S
C1160 H1156 0.929 . S
C1160 C1162 1.378 . S
C1160 C1164 1.350 . S
C1161 C1164 1.463 . S
C1161 C1166 1.350 . S
C1161 N1169 1.427 . S
C1162 H1153 0.930 . S
C1162 C1160 1.378 . S
C1162 C1163 1.367 . S
C1163 C1162 1.367 . S
C1163 C1165 1.433 . S
C1164 C1160 1.350 . S
C1164 C1161 1.463 . S
C1164 N1168 1.427 . S
C1165 H1155 0.929 . S
C1165 C1163 1.433 . S
C1165 N1168 1.384 . S
C1166 H1157 0.929 . S
C1166 C1158 1.378 . S
C1166 C1161 1.350 . S
C1167 H1154 0.929 . S
C1167 C1159 1.433 . S
C1167 N1169 1.384 . S
N1168 C1164 1.427 . S
N1168 C1165 1.384 . S
N1169 C1161 1.427 . S
N1169 C1167 1.384 . S
H1170 C1176 0.930 . S
H1171 C1180 0.930 . S
H1172 C1185 0.929 . S
H1173 C1183 0.929 . S
H1174 C1178 0.929 . S
H1175 C1184 0.929 . S
C1176 H1170 0.930 . S
C1176 C1177 1.367 . S
C1176 C1184 1.378 . S
C1177 C1176 1.367 . S
C1177 C1185 1.433 . S
C1178 H1174 0.929 . S
C1178 C1180 1.378 . S
C1178 C1182 1.350 . S
C1179 C1182 1.463 . S
C1179 C1184 1.350 . S
C1179 N1187 1.427 . S
C1180 H1171 0.930 . S
C1180 C1178 1.378 . S
C1180 C1181 1.367 . S
C1181 C1180 1.367 . S
C1181 C1183 1.433 . S
C1182 C1178 1.350 . S
C1182 C1179 1.463 . S
C1182 N1186 1.427 . S
C1183 H1173 0.929 . S
C1183 C1181 1.433 . S
C1183 N1186 1.384 . S
C1184 H1175 0.929 . S
C1184 C1176 1.378 . S
C1184 C1179 1.350 . S
C1185 H1172 0.929 . S
C1185 C1177 1.433 . S
C1185 N1187 1.384 . S
N1186 C1182 1.427 . S
N1186 C1183 1.384 . S
N1187 C1179 1.427 . S
N1187 C1185 1.384 . S
H1188 C1194 0.930 . S
H1189 C1198 0.930 . S
H1190 C1203 0.929 . S
H1191 C1201 0.929 . S
H1192 C1196 0.929 . S
H1193 C1202 0.929 . S
C1194 H1188 0.930 . S
C1194 C1195 1.367 . S
C1194 C1202 1.378 . S
C1195 C1194 1.367 . S
C1195 C1203 1.433 . S
C1196 H1192 0.929 . S
C1196 C1198 1.378 . S
C1196 C1200 1.350 . S
C1197 C1200 1.463 . S
C1197 C1202 1.350 . S
C1197 N1205 1.427 . S
C1198 H1189 0.930 . S
C1198 C1196 1.378 . S
C1198 C1199 1.367 . S
C1199 C1198 1.367 . S
C1199 C1201 1.433 . S
C1200 C1196 1.350 . S
C1200 C1197 1.463 . S
C1200 N1204 1.427 . S
C1201 H1191 0.929 . S
C1201 C1199 1.433 . S
C1201 N1204 1.384 . S
C1202 H1193 0.929 . S
C1202 C1194 1.378 . S
C1202 C1197 1.350 . S
C1203 H1190 0.929 . S
C1203 C1195 1.433 . S
C1203 N1205 1.384 . S
N1204 C1200 1.427 . S
N1204 C1201 1.384 . S
N1205 C1197 1.427 . S
N1205 C1203 1.384 . S
H1206 C1212 0.930 . S
H1207 C1216 0.930 . S
H1208 C1221 0.929 . S
H1209 C1219 0.929 . S
H1210 C1214 0.929 . S
H1211 C1220 0.929 . S
C1212 H1206 0.930 . S
C1212 C1213 1.367 . S
C1212 C1220 1.378 . S
C1213 C1212 1.367 . S
C1213 C1221 1.433 . S
C1214 H1210 0.929 . S
C1214 C1216 1.378 . S
C1214 C1218 1.350 . S
C1215 C1218 1.463 . S
C1215 C1220 1.350 . S
C1215 N1223 1.427 . S
C1216 H1207 0.930 . S
C1216 C1214 1.378 . S
C1216 C1217 1.367 . S
C1217 C1216 1.367 . S
C1217 C1219 1.433 . S
C1218 C1214 1.350 . S
C1218 C1215 1.463 . S
C1218 N1222 1.427 . S
C1219 H1209 0.929 . S
C1219 C1217 1.433 . S
C1219 N1222 1.384 . S
C1220 H1211 0.929 . S
C1220 C1212 1.378 . S
C1220 C1215 1.350 . S
C1221 H1208 0.929 . S
C1221 C1213 1.433 . S
C1221 N1223 1.384 . S
N1222 C1218 1.427 . S
N1222 C1219 1.384 . S
N1223 C1215 1.427 . S
N1223 C1221 1.384 . S
H1224 C1230 0.930 . S
H1225 C1234 0.930 . S
H1226 C1239 0.929 . S
H1227 C1237 0.929 . S
H1228 C1232 0.929 . S
H1229 C1238 0.929 . S
C1230 H1224 0.930 . S
C1230 C1231 1.367 . S
C1230 C1238 1.378 . S
C1231 C1230 1.367 . S
C1231 C1239 1.433 . S
C1232 H1228 0.929 . S
C1232 C1234 1.378 . S
C1232 C1236 1.350 . S
C1233 C1236 1.463 . S
C1233 C1238 1.350 . S
C1233 N1241 1.427 . S
C1234 H1225 0.930 . S
C1234 C1232 1.378 . S
C1234 C1235 1.367 . S
C1235 C1234 1.367 . S
C1235 C1237 1.433 . S
C1236 C1232 1.350 . S
C1236 C1233 1.463 . S
C1236 N1240 1.427 . S
C1237 H1227 0.929 . S
C1237 C1235 1.433 . S
C1237 N1240 1.384 . S
C1238 H1229 0.929 . S
C1238 C1230 1.378 . S
C1238 C1233 1.350 . S
C1239 H1226 0.929 . S
C1239 C1231 1.433 . S
C1239 N1241 1.384 . S
N1240 C1236 1.427 . S
N1240 C1237 1.384 . S
N1241 C1233 1.427 . S
N1241 C1239 1.384 . S
H1242 C1248 0.930 . S
H1243 C1252 0.930 . S
H1244 C1257 0.929 . S
H1245 C1255 0.929 . S
H1246 C1250 0.929 . S
H1247 C1256 0.929 . S
C1248 H1242 0.930 . S
C1248 C1249 1.367 . S
C1248 C1256 1.378 . S
C1249 C1248 1.367 . S
C1249 C1257 1.433 . S
C1250 H1246 0.929 . S
C1250 C1252 1.378 . S
C1250 C1254 1.350 . S
C1251 C1254 1.463 . S
C1251 C1256 1.350 . S
C1251 N1259 1.427 . S
C1252 H1243 0.930 . S
C1252 C1250 1.378 . S
C1252 C1253 1.367 . S
C1253 C1252 1.367 . S
C1253 C1255 1.433 . S
C1254 C1250 1.350 . S
C1254 C1251 1.463 . S
C1254 N1258 1.427 . S
C1255 H1245 0.929 . S
C1255 C1253 1.433 . S
C1255 N1258 1.384 . S
C1256 H1247 0.929 . S
C1256 C1248 1.378 . S
C1256 C1251 1.350 . S
C1257 H1244 0.929 . S
C1257 C1249 1.433 . S
C1257 N1259 1.384 . S
N1258 C1254 1.427 . S
N1258 C1255 1.384 . S
N1259 C1251 1.427 . S
N1259 C1257 1.384 . S
H1260 C1266 0.930 . S
H1261 C1270 0.930 . S
H1262 C1275 0.929 . S
H1263 C1273 0.929 . S
H1264 C1268 0.929 . S
H1265 C1274 0.929 . S
C1266 H1260 0.930 . S
C1266 C1267 1.367 . S
C1266 C1274 1.378 . S
C1267 C1266 1.367 . S
C1267 C1275 1.433 . S
C1268 H1264 0.929 . S
C1268 C1270 1.378 . S
C1268 C1272 1.350 . S
C1269 C1272 1.463 . S
C1269 C1274 1.350 . S
C1269 N1277 1.427 . S
C1270 H1261 0.930 . S
C1270 C1268 1.378 . S
C1270 C1271 1.367 . S
C1271 C1270 1.367 . S
C1271 C1273 1.433 . S
C1272 C1268 1.350 . S
C1272 C1269 1.463 . S
C1272 N1276 1.427 . S
C1273 H1263 0.929 . S
C1273 C1271 1.433 . S
C1273 N1276 1.384 . S
C1274 H1265 0.929 . S
C1274 C1266 1.378 . S
C1274 C1269 1.350 . S
C1275 H1262 0.929 . S
C1275 C1267 1.433 . S
C1275 N1277 1.384 . S
N1276 C1272 1.427 . S
N1276 C1273 1.384 . S
N1277 C1269 1.427 . S
N1277 C1275 1.384 . S
H1278 C1284 0.930 . S
H1279 C1288 0.930 . S
H1280 C1293 0.929 . S
H1281 C1291 0.929 . S
H1282 C1286 0.929 . S
H1283 C1292 0.929 . S
C1284 H1278 0.930 . S
C1284 C1285 1.367 . S
C1284 C1292 1.378 . S
C1285 C1284 1.367 . S
C1285 C1293 1.433 . S
C1286 H1282 0.929 . S
C1286 C1288 1.378 . S
C1286 C1290 1.350 . S
C1287 C1290 1.463 . S
C1287 C1292 1.350 . S
C1287 N1295 1.427 . S
C1288 H1279 0.930 . S
C1288 C1286 1.378 . S
C1288 C1289 1.367 . S
C1289 C1288 1.367 . S
C1289 C1291 1.433 . S
C1290 C1286 1.350 . S
C1290 C1287 1.463 . S
C1290 N1294 1.427 . S
C1291 H1281 0.929 . S
C1291 C1289 1.433 . S
C1291 N1294 1.384 . S
C1292 H1283 0.929 . S
C1292 C1284 1.378 . S
C1292 C1287 1.350 . S
C1293 H1280 0.929 . S
C1293 C1285 1.433 . S
C1293 N1295 1.384 . S
N1294 C1290 1.427 . S
N1294 C1291 1.384 . S
N1295 C1287 1.427 . S
N1295 C1293 1.384 . S
H1296 C1302 0.930 . S
H1297 C1306 0.930 . S
H1298 C1311 0.929 . S
H1299 C1309 0.929 . S
H1300 C1304 0.929 . S
H1301 C1310 0.929 . S
C1302 H1296 0.930 . S
C1302 C1303 1.367 . S
C1302 C1310 1.378 . S
C1303 C1302 1.367 . S
C1303 C1311 1.433 . S
C1304 H1300 0.929 . S
C1304 C1306 1.378 . S
C1304 C1308 1.350 . S
C1305 C1308 1.463 . S
C1305 C1310 1.350 . S
C1305 N1313 1.427 . S
C1306 H1297 0.930 . S
C1306 C1304 1.378 . S
C1306 C1307 1.367 . S
C1307 C1306 1.367 . S
C1307 C1309 1.433 . S
C1308 C1304 1.350 . S
C1308 C1305 1.463 . S
C1308 N1312 1.427 . S
C1309 H1299 0.929 . S
C1309 C1307 1.433 . S
C1309 N1312 1.384 . S
C1310 H1301 0.929 . S
C1310 C1302 1.378 . S
C1310 C1305 1.350 . S
C1311 H1298 0.929 . S
C1311 C1303 1.433 . S
C1311 N1313 1.384 . S
N1312 C1308 1.427 . S
N1312 C1309 1.384 . S
N1313 C1305 1.427 . S
N1313 C1311 1.384 . S
H1314 C1320 0.930 . S
H1315 C1324 0.930 . S
H1316 C1329 0.929 . S
H1317 C1327 0.929 . S
H1318 C1322 0.929 . S
H1319 C1328 0.929 . S
C1320 H1314 0.930 . S
C1320 C1321 1.367 . S
C1320 C1328 1.378 . S
C1321 C1320 1.367 . S
C1321 C1329 1.433 . S
C1322 H1318 0.929 . S
C1322 C1324 1.378 . S
C1322 C1326 1.350 . S
C1323 C1326 1.463 . S
C1323 C1328 1.350 . S
C1323 N1331 1.427 . S
C1324 H1315 0.930 . S
C1324 C1322 1.378 . S
C1324 C1325 1.367 . S
C1325 C1324 1.367 . S
C1325 C1327 1.433 . S
C1326 C1322 1.350 . S
C1326 C1323 1.463 . S
C1326 N1330 1.427 . S
C1327 H1317 0.929 . S
C1327 C1325 1.433 . S
C1327 N1330 1.384 . S
C1328 H1319 0.929 . S
C1328 C1320 1.378 . S
C1328 C1323 1.350 . S
C1329 H1316 0.929 . S
C1329 C1321 1.433 . S
C1329 N1331 1.384 . S
N1330 C1326 1.427 . S
N1330 C1327 1.384 . S
N1331 C1323 1.427 . S
N1331 C1329 1.384 . S
H1332 C1338 0.930 . S
H1333 C1342 0.930 . S
H1334 C1347 0.929 . S
H1335 C1345 0.929 . S
H1336 C1340 0.929 . S
H1337 C1346 0.929 . S
C1338 H1332 0.930 . S
C1338 C1339 1.367 . S
C1338 C1346 1.378 . S
C1339 C1338 1.367 . S
C1339 C1347 1.433 . S
C1340 H1336 0.929 . S
C1340 C1342 1.378 . S
C1340 C1344 1.350 . S
C1341 C1344 1.463 . S
C1341 C1346 1.350 . S
C1341 N1349 1.427 . S
C1342 H1333 0.930 . S
C1342 C1340 1.378 . S
C1342 C1343 1.367 . S
C1343 C1342 1.367 . S
C1343 C1345 1.433 . S
C1344 C1340 1.350 . S
C1344 C1341 1.463 . S
C1344 N1348 1.427 . S
C1345 H1335 0.929 . S
C1345 C1343 1.433 . S
C1345 N1348 1.384 . S
C1346 H1337 0.929 . S
C1346 C1338 1.378 . S
C1346 C1341 1.350 . S
C1347 H1334 0.929 . S
C1347 C1339 1.433 . S
C1347 N1349 1.384 . S
N1348 C1344 1.427 . S
N1348 C1345 1.384 . S
N1349 C1341 1.427 . S
N1349 C1347 1.384 . S
H1350 C1356 0.930 . S
H1351 C1360 0.930 . S
H1352 C1365 0.929 . S
H1353 C1363 0.929 . S
H1354 C1358 0.929 . S
H1355 C1364 0.929 . S
C1356 H1350 0.930 . S
C1356 C1357 1.367 . S
C1356 C1364 1.378 . S
C1357 C1356 1.367 . S
C1357 C1365 1.433 . S
C1358 H1354 0.929 . S
C1358 C1360 1.378 . S
C1358 C1362 1.350 . S
C1359 C1362 1.463 . S
C1359 C1364 1.350 . S
C1359 N1367 1.427 . S
C1360 H1351 0.930 . S
C1360 C1358 1.378 . S
C1360 C1361 1.367 . S
C1361 C1360 1.367 . S
C1361 C1363 1.433 . S
C1362 C1358 1.350 . S
C1362 C1359 1.463 . S
C1362 N1366 1.427 . S
C1363 H1353 0.929 . S
C1363 C1361 1.433 . S
C1363 N1366 1.384 . S
C1364 H1355 0.929 . S
C1364 C1356 1.378 . S
C1364 C1359 1.350 . S
C1365 H1352 0.929 . S
C1365 C1357 1.433 . S
C1365 N1367 1.384 . S
N1366 C1362 1.427 . S
N1366 C1363 1.384 . S
N1367 C1359 1.427 . S
N1367 C1365 1.384 . S
H1368 C1374 0.930 . S
H1369 C1378 0.930 . S
H1370 C1383 0.929 . S
H1371 C1381 0.929 . S
H1372 C1376 0.929 . S
H1373 C1382 0.929 . S
C1374 H1368 0.930 . S
C1374 C1375 1.367 . S
C1374 C1382 1.378 . S
C1375 C1374 1.367 . S
C1375 C1383 1.433 . S
C1376 H1372 0.929 . S
C1376 C1378 1.378 . S
C1376 C1380 1.350 . S
C1377 C1380 1.463 . S
C1377 C1382 1.350 . S
C1377 N1385 1.427 . S
C1378 H1369 0.930 . S
C1378 C1376 1.378 . S
C1378 C1379 1.367 . S
C1379 C1378 1.367 . S
C1379 C1381 1.433 . S
C1380 C1376 1.350 . S
C1380 C1377 1.463 . S
C1380 N1384 1.427 . S
C1381 H1371 0.929 . S
C1381 C1379 1.433 . S
C1381 N1384 1.384 . S
C1382 H1373 0.929 . S
C1382 C1374 1.378 . S
C1382 C1377 1.350 . S
C1383 H1370 0.929 . S
C1383 C1375 1.433 . S
C1383 N1385 1.384 . S
N1384 C1380 1.427 . S
N1384 C1381 1.384 . S
N1385 C1377 1.427 . S
N1385 C1383 1.384 . S
H1386 C1392 0.930 . S
H1387 C1396 0.930 . S
H1388 C1401 0.929 . S
H1389 C1399 0.929 . S
H1390 C1394 0.929 . S
H1391 C1400 0.929 . S
C1392 H1386 0.930 . S
C1392 C1393 1.367 . S
C1392 C1400 1.378 . S
C1393 C1392 1.367 . S
C1393 C1401 1.433 . S
C1394 H1390 0.929 . S
C1394 C1396 1.378 . S
C1394 C1398 1.350 . S
C1395 C1398 1.463 . S
C1395 C1400 1.350 . S
C1395 N1403 1.427 . S
C1396 H1387 0.930 . S
C1396 C1394 1.378 . S
C1396 C1397 1.367 . S
C1397 C1396 1.367 . S
C1397 C1399 1.433 . S
C1398 C1394 1.350 . S
C1398 C1395 1.463 . S
C1398 N1402 1.427 . S
C1399 H1389 0.929 . S
C1399 C1397 1.433 . S
C1399 N1402 1.384 . S
C1400 H1391 0.929 . S
C1400 C1392 1.378 . S
C1400 C1395 1.350 . S
C1401 H1388 0.929 . S
C1401 C1393 1.433 . S
C1401 N1403 1.384 . S
N1402 C1398 1.427 . S
N1402 C1399 1.384 . S
N1403 C1395 1.427 . S
N1403 C1401 1.384 . S
H1404 C1410 0.930 . S
H1405 C1414 0.930 . S
H1406 C1419 0.929 . S
H1407 C1417 0.929 . S
H1408 C1412 0.929 . S
H1409 C1418 0.929 . S
C1410 H1404 0.930 . S
C1410 C1411 1.367 . S
C1410 C1418 1.378 . S
C1411 C1410 1.367 . S
C1411 C1419 1.433 . S
C1412 H1408 0.929 . S
C1412 C1414 1.378 . S
C1412 C1416 1.350 . S
C1413 C1416 1.463 . S
C1413 C1418 1.350 . S
C1413 N1421 1.427 . S
C1414 H1405 0.930 . S
C1414 C1412 1.378 . S
C1414 C1415 1.367 . S
C1415 C1414 1.367 . S
C1415 C1417 1.433 . S
C1416 C1412 1.350 . S
C1416 C1413 1.463 . S
C1416 N1420 1.427 . S
C1417 H1407 0.929 . S
C1417 C1415 1.433 . S
C1417 N1420 1.384 . S
C1418 H1409 0.929 . S
C1418 C1410 1.378 . S
C1418 C1413 1.350 . S
C1419 H1406 0.929 . S
C1419 C1411 1.433 . S
C1419 N1421 1.384 . S
N1420 C1416 1.427 . S
N1420 C1417 1.384 . S
N1421 C1413 1.427 . S
N1421 C1419 1.384 . S
H1422 C1428 0.930 . S
H1423 C1432 0.930 . S
H1424 C1437 0.929 . S
H1425 C1435 0.929 . S
H1426 C1430 0.929 . S
H1427 C1436 0.929 . S
C1428 H1422 0.930 . S
C1428 C1429 1.367 1_554 S
C1428 C1436 1.378 . S
C1429 C1428 1.367 1_556 S
C1429 C1437 1.433 . S
C1430 H1426 0.929 . S
C1430 C1432 1.378 . S
C1430 C1434 1.350 . S
C1431 C1434 1.463 . S
C1431 C1436 1.350 . S
C1431 N1439 1.427 . S
C1432 H1423 0.930 . S
C1432 C1430 1.378 . S
C1432 C1433 1.367 . S
C1433 C1432 1.367 . S
C1433 C1435 1.433 . S
C1434 C1430 1.350 . S
C1434 C1431 1.463 . S
C1434 N1438 1.427 . S
C1435 H1425 0.929 . S
C1435 C1433 1.433 . S
C1435 N1438 1.384 . S
C1436 H1427 0.929 . S
C1436 C1428 1.378 . S
C1436 C1431 1.350 . S
C1437 H1424 0.929 . S
C1437 C1429 1.433 . S
C1437 N1439 1.384 1_556 S
N1438 C1434 1.427 . S
N1438 C1435 1.384 . S
N1439 C1431 1.427 . S
N1439 C1437 1.384 1_554 S
H1440 C1446 0.930 . S
H1441 C1450 0.930 . S
H1442 C1455 0.929 1_556 S
H1443 C1453 0.929 . S
H1444 C1448 0.929 . S
H1445 C1454 0.929 . S
C1446 H1440 0.930 . S
C1446 C1447 1.367 1_554 S
C1446 C1454 1.378 . S
C1447 C1446 1.367 1_556 S
C1447 C1455 1.433 1_556 S
C1448 H1444 0.929 . S
C1448 C1450 1.378 . S
C1448 C1452 1.350 . S
C1449 C1452 1.463 . S
C1449 C1454 1.350 . S
C1449 N1457 1.427 . S
C1450 H1441 0.930 . S
C1450 C1448 1.378 . S
C1450 C1451 1.367 . S
C1451 C1450 1.367 . S
C1451 C1453 1.433 . S
C1452 C1448 1.350 . S
C1452 C1449 1.463 . S
C1452 N1456 1.427 . S
C1453 H1443 0.929 . S
C1453 C1451 1.433 . S
C1453 N1456 1.384 . S
C1454 H1445 0.929 . S
C1454 C1446 1.378 . S
C1454 C1449 1.350 . S
C1455 H1442 0.929 1_554 S
C1455 C1447 1.433 1_554 S
C1455 N1457 1.384 . S
N1456 C1452 1.427 . S
N1456 C1453 1.384 . S
N1457 C1449 1.427 . S
N1457 C1455 1.384 . S
H1458 C1464 0.930 . S
H1459 C1468 0.930 . S
H1460 C1473 0.929 1_556 S
H1461 C1471 0.929 . S
H1462 C1466 0.929 . S
H1463 C1472 0.929 . S
C1464 H1458 0.930 . S
C1464 C1465 1.367 1_554 S
C1464 C1472 1.378 . S
C1465 C1464 1.367 1_556 S
C1465 C1473 1.433 1_556 S
C1466 H1462 0.929 . S
C1466 C1468 1.378 . S
C1466 C1470 1.350 . S
C1467 C1470 1.463 . S
C1467 C1472 1.350 . S
C1467 N1475 1.427 . S
C1468 H1459 0.930 . S
C1468 C1466 1.378 . S
C1468 C1469 1.367 . S
C1469 C1468 1.367 . S
C1469 C1471 1.433 . S
C1470 C1466 1.350 . S
C1470 C1467 1.463 . S
C1470 N1474 1.427 . S
C1471 H1461 0.929 . S
C1471 C1469 1.433 . S
C1471 N1474 1.384 . S
C1472 H1463 0.929 . S
C1472 C1464 1.378 . S
C1472 C1467 1.350 . S
C1473 H1460 0.929 1_554 S
C1473 C1465 1.433 1_554 S
C1473 N1475 1.384 . S
N1474 C1470 1.427 . S
N1474 C1471 1.384 . S
N1475 C1467 1.427 . S
N1475 C1473 1.384 . S
H1476 C1482 0.930 . S
H1477 C1486 0.930 . S
H1478 C1491 0.929 . S
H1479 C1489 0.929 . S
H1480 C1484 0.929 . S
H1481 C1490 0.929 . S
C1482 H1476 0.930 . S
C1482 C1483 1.367 . S
C1482 C1490 1.378 . S
C1483 C1482 1.367 . S
C1483 C1491 1.433 . S
C1484 H1480 0.929 . S
C1484 C1486 1.378 . S
C1484 C1488 1.350 . S
C1485 C1488 1.463 . S
C1485 C1490 1.350 . S
C1485 N1493 1.427 . S
C1486 H1477 0.930 . S
C1486 C1484 1.378 . S
C1486 C1487 1.367 . S
C1487 C1486 1.367 . S
C1487 C1489 1.433 . S
C1488 C1484 1.350 . S
C1488 C1485 1.463 . S
C1488 N1492 1.427 . S
C1489 H1479 0.929 . S
C1489 C1487 1.433 . S
C1489 N1492 1.384 . S
C1490 H1481 0.929 . S
C1490 C1482 1.378 . S
C1490 C1485 1.350 . S
C1491 H1478 0.929 . S
C1491 C1483 1.433 . S
C1491 N1493 1.384 . S
N1492 C1488 1.427 . S
N1492 C1489 1.384 . S
N1493 C1485 1.427 . S
N1493 C1491 1.384 . S
H1494 C1500 0.930 . S
H1495 C1504 0.930 . S
H1496 C1509 0.929 . S
H1497 C1507 0.929 . S
H1498 C1502 0.929 1_556 S
H1499 C1508 0.929 . S
C1500 H1494 0.930 . S
C1500 C1501 1.367 . S
C1500 C1508 1.378 . S
C1501 C1500 1.367 . S
C1501 C1509 1.433 . S
C1502 H1498 0.929 1_554 S
C1502 C1504 1.378 1_554 S
C1502 C1506 1.350 . S
C1503 C1506 1.463 . S
C1503 C1508 1.350 . S
C1503 N1511 1.427 . S
C1504 H1495 0.930 . S
C1504 C1502 1.378 1_556 S
C1504 C1505 1.367 1_556 S
C1505 C1504 1.367 1_554 S
C1505 C1507 1.433 . S
C1506 C1502 1.350 . S
C1506 C1503 1.463 . S
C1506 N1510 1.427 . S
C1507 H1497 0.929 . S
C1507 C1505 1.433 . S
C1507 N1510 1.384 . S
C1508 H1499 0.929 . S
C1508 C1500 1.378 . S
C1508 C1503 1.350 . S
C1509 H1496 0.929 . S
C1509 C1501 1.433 . S
C1509 N1511 1.384 . S
N1510 C1506 1.427 . S
N1510 C1507 1.384 . S
N1511 C1503 1.427 . S
N1511 C1509 1.384 . S
H1512 C1518 0.930 . S
H1513 C1522 0.930 . S
H1514 C1527 0.929 . S
H1515 C1525 0.929 . S
H1516 C1520 0.929 . S
H1517 C1526 0.929 . S
C1518 H1512 0.930 . S
C1518 C1519 1.367 . S
C1518 C1526 1.378 . S
C1519 C1518 1.367 . S
C1519 C1527 1.433 1_554 S
C1520 H1516 0.929 . S
C1520 C1522 1.378 . S
C1520 C1524 1.350 . S
C1521 C1524 1.463 . S
C1521 C1526 1.350 . S
C1521 N1529 1.427 . S
C1522 H1513 0.930 . S
C1522 C1520 1.378 . S
C1522 C1523 1.367 . S
C1523 C1522 1.367 . S
C1523 C1525 1.433 . S
C1524 C1520 1.350 . S
C1524 C1521 1.463 . S
C1524 N1528 1.427 . S
C1525 H1515 0.929 . S
C1525 C1523 1.433 . S
C1525 N1528 1.384 . S
C1526 H1517 0.929 . S
C1526 C1518 1.378 . S
C1526 C1521 1.350 . S
C1527 H1514 0.929 . S
C1527 C1519 1.433 1_556 S
C1527 N1529 1.384 1_556 S
N1528 C1524 1.427 . S
N1528 C1525 1.384 . S
N1529 C1521 1.427 . S
N1529 C1527 1.384 1_554 S
H1530 C1536 0.930 . S
H1531 C1540 0.930 . S
H1532 C1545 0.929 . S
H1533 C1543 0.929 . S
H1534 C1538 0.929 . S
H1535 C1544 0.929 . S
C1536 H1530 0.930 . S
C1536 C1537 1.367 . S
C1536 C1544 1.378 . S
C1537 C1536 1.367 . S
C1537 C1545 1.433 . S
C1538 H1534 0.929 . S
C1538 C1540 1.378 . S
C1538 C1542 1.350 . S
C1539 C1542 1.463 . S
C1539 C1544 1.350 . S
C1539 N1547 1.427 . S
C1540 H1531 0.930 . S
C1540 C1538 1.378 . S
C1540 C1541 1.367 . S
C1541 C1540 1.367 . S
C1541 C1543 1.433 . S
C1542 C1538 1.350 . S
C1542 C1539 1.463 . S
C1542 N1546 1.427 . S
C1543 H1533 0.929 . S
C1543 C1541 1.433 . S
C1543 N1546 1.384 . S
C1544 H1535 0.929 . S
C1544 C1536 1.378 . S
C1544 C1539 1.350 . S
C1545 H1532 0.929 . S
C1545 C1537 1.433 . S
C1545 N1547 1.384 . S
N1546 C1542 1.427 . S
N1546 C1543 1.384 . S
N1547 C1539 1.427 . S
N1547 C1545 1.384 . S
H1548 C1554 0.930 . S
H1549 C1558 0.930 . S
H1550 C1563 0.929 . S
H1551 C1561 0.929 . S
H1552 C1556 0.929 . S
H1553 C1562 0.929 . S
C1554 H1548 0.930 . S
C1554 C1555 1.367 . S
C1554 C1562 1.378 . S
C1555 C1554 1.367 . S
C1555 C1563 1.433 . S
C1556 H1552 0.929 . S
C1556 C1558 1.378 . S
C1556 C1560 1.350 . S
C1557 C1560 1.463 . S
C1557 C1562 1.350 . S
C1557 N1565 1.427 . S
C1558 H1549 0.930 . S
C1558 C1556 1.378 . S
C1558 C1559 1.367 . S
C1559 C1558 1.367 . S
C1559 C1561 1.433 . S
C1560 C1556 1.350 . S
C1560 C1557 1.463 . S
C1560 N1564 1.427 . S
C1561 H1551 0.929 . S
C1561 C1559 1.433 . S
C1561 N1564 1.384 . S
C1562 H1553 0.929 . S
C1562 C1554 1.378 . S
C1562 C1557 1.350 . S
C1563 H1550 0.929 . S
C1563 C1555 1.433 . S
C1563 N1565 1.384 . S
N1564 C1560 1.427 . S
N1564 C1561 1.384 . S
N1565 C1557 1.427 . S
N1565 C1563 1.384 . S
H1566 C1572 0.930 . S
H1567 C1576 0.930 . S
H1568 C1581 0.929 . S
H1569 C1579 0.929 . S
H1570 C1574 0.929 . S
H1571 C1580 0.929 . S
C1572 H1566 0.930 . S
C1572 C1573 1.367 . S
C1572 C1580 1.378 . S
C1573 C1572 1.367 . S
C1573 C1581 1.433 . S
C1574 H1570 0.929 . S
C1574 C1576 1.378 . S
C1574 C1578 1.350 . S
C1575 C1578 1.463 . S
C1575 C1580 1.350 . S
C1575 N1583 1.427 . S
C1576 H1567 0.930 . S
C1576 C1574 1.378 . S
C1576 C1577 1.367 . S
C1577 C1576 1.367 . S
C1577 C1579 1.433 . S
C1578 C1574 1.350 . S
C1578 C1575 1.463 . S
C1578 N1582 1.427 . S
C1579 H1569 0.929 . S
C1579 C1577 1.433 . S
C1579 N1582 1.384 . S
C1580 H1571 0.929 . S
C1580 C1572 1.378 . S
C1580 C1575 1.350 . S
C1581 H1568 0.929 . S
C1581 C1573 1.433 . S
C1581 N1583 1.384 . S
N1582 C1578 1.427 . S
N1582 C1579 1.384 . S
N1583 C1575 1.427 . S
N1583 C1581 1.384 . S
H1584 C1590 0.930 . S
H1585 C1594 0.930 . S
H1586 C1599 0.929 . S
H1587 C1597 0.929 1_554 S
H1588 C1592 0.929 . S
H1589 C1598 0.929 . S
C1590 H1584 0.930 . S
C1590 C1591 1.367 . S
C1590 C1598 1.378 . S
C1591 C1590 1.367 . S
C1591 C1599 1.433 . S
C1592 H1588 0.929 . S
C1592 C1594 1.378 . S
C1592 C1596 1.350 . S
C1593 C1596 1.463 . S
C1593 C1598 1.350 . S
C1593 N1601 1.427 . S
C1594 H1585 0.930 . S
C1594 C1592 1.378 . S
C1594 C1595 1.367 . S
C1595 C1594 1.367 . S
C1595 C1597 1.433 . S
C1596 C1592 1.350 . S
C1596 C1593 1.463 . S
C1596 N1600 1.427 . S
C1597 H1587 0.929 1_556 S
C1597 C1595 1.433 . S
C1597 N1600 1.384 . S
C1598 H1589 0.929 . S
C1598 C1590 1.378 . S
C1598 C1593 1.350 . S
C1599 H1586 0.929 . S
C1599 C1591 1.433 . S
C1599 N1601 1.384 . S
N1600 C1596 1.427 . S
N1600 C1597 1.384 . S
N1601 C1593 1.427 . S
N1601 C1599 1.384 . S
H1602 C1608 0.930 1_554 S
H1603 C1612 0.930 . S
H1604 C1617 0.929 . S
H1605 C1615 0.929 . S
H1606 C1610 0.929 . S
H1607 C1616 0.929 . S
C1608 H1602 0.930 1_556 S
C1608 C1609 1.367 . S
C1608 C1616 1.378 . S
C1609 C1608 1.367 . S
C1609 C1617 1.433 . S
C1610 H1606 0.929 . S
C1610 C1612 1.378 . S
C1610 C1614 1.350 . S
C1611 C1614 1.463 . S
C1611 C1616 1.350 . S
C1611 N1619 1.427 . S
C1612 H1603 0.930 . S
C1612 C1610 1.378 . S
C1612 C1613 1.367 . S
C1613 C1612 1.367 . S
C1613 C1615 1.433 . S
C1614 C1610 1.350 . S
C1614 C1611 1.463 . S
C1614 N1618 1.427 . S
C1615 H1605 0.929 . S
C1615 C1613 1.433 . S
C1615 N1618 1.384 . S
C1616 H1607 0.929 . S
C1616 C1608 1.378 . S
C1616 C1611 1.350 . S
C1617 H1604 0.929 . S
C1617 C1609 1.433 . S
C1617 N1619 1.384 . S
N1618 C1614 1.427 . S
N1618 C1615 1.384 . S
N1619 C1611 1.427 . S
N1619 C1617 1.384 . S
H1620 C1626 0.930 . S
H1621 C1630 0.930 . S
H1622 C1635 0.929 . S
H1623 C1633 0.929 . S
H1624 C1628 0.929 . S
H1625 C1634 0.929 . S
C1626 H1620 0.930 . S
C1626 C1627 1.367 . S
C1626 C1634 1.378 . S
C1627 C1626 1.367 . S
C1627 C1635 1.433 . S
C1628 H1624 0.929 . S
C1628 C1630 1.378 . S
C1628 C1632 1.350 . S
C1629 C1632 1.463 . S
C1629 C1634 1.350 . S
C1629 N1637 1.427 . S
C1630 H1621 0.930 . S
C1630 C1628 1.378 . S
C1630 C1631 1.367 . S
C1631 C1630 1.367 . S
C1631 C1633 1.433 1_556 S
C1632 C1628 1.350 . S
C1632 C1629 1.463 . S
C1632 N1636 1.427 . S
C1633 H1623 0.929 . S
C1633 C1631 1.433 1_554 S
C1633 N1636 1.384 1_554 S
C1634 H1625 0.929 . S
C1634 C1626 1.378 . S
C1634 C1629 1.350 . S
C1635 H1622 0.929 . S
C1635 C1627 1.433 . S
C1635 N1637 1.384 . S
N1636 C1632 1.427 . S
N1636 C1633 1.384 1_556 S
N1637 C1629 1.427 . S
N1637 C1635 1.384 . S
H1638 C1644 0.930 . S
H1639 C1648 0.930 . S
H1640 C1653 0.929 . S
H1641 C1651 0.929 . S
H1642 C1646 0.929 . S
H1643 C1652 0.929 . S
C1644 H1638 0.930 . S
C1644 C1645 1.367 . S
C1644 C1652 1.378 . S
C1645 C1644 1.367 . S
C1645 C1653 1.433 . S
C1646 H1642 0.929 . S
C1646 C1648 1.378 . S
C1646 C1650 1.350 . S
C1647 C1650 1.463 . S
C1647 C1652 1.350 . S
C1647 N1655 1.427 . S
C1648 H1639 0.930 . S
C1648 C1646 1.378 . S
C1648 C1649 1.367 . S
C1649 C1648 1.367 . S
C1649 C1651 1.433 . S
C1650 C1646 1.350 . S
C1650 C1647 1.463 . S
C1650 N1654 1.427 . S
C1651 H1641 0.929 . S
C1651 C1649 1.433 . S
C1651 N1654 1.384 . S
C1652 H1643 0.929 . S
C1652 C1644 1.378 . S
C1652 C1647 1.350 . S
C1653 H1640 0.929 . S
C1653 C1645 1.433 . S
C1653 N1655 1.384 . S
N1654 C1650 1.427 . S
N1654 C1651 1.384 . S
N1655 C1647 1.427 . S
N1655 C1653 1.384 . S
H1656 C1662 0.930 . S
H1657 C1666 0.930 . S
H1658 C1671 0.929 . S
H1659 C1669 0.929 . S
H1660 C1664 0.929 . S
H1661 C1670 0.929 . S
C1662 H1656 0.930 . S
C1662 C1663 1.367 . S
C1662 C1670 1.378 . S
C1663 C1662 1.367 . S
C1663 C1671 1.433 . S
C1664 H1660 0.929 . S
C1664 C1666 1.378 . S
C1664 C1668 1.350 . S
C1665 C1668 1.463 . S
C1665 C1670 1.350 . S
C1665 N1673 1.427 . S
C1666 H1657 0.930 . S
C1666 C1664 1.378 . S
C1666 C1667 1.367 . S
C1667 C1666 1.367 . S
C1667 C1669 1.433 . S
C1668 C1664 1.350 . S
C1668 C1665 1.463 . S
C1668 N1672 1.427 . S
C1669 H1659 0.929 . S
C1669 C1667 1.433 . S
C1669 N1672 1.384 . S
C1670 H1661 0.929 . S
C1670 C1662 1.378 . S
C1670 C1665 1.350 . S
C1671 H1658 0.929 . S
C1671 C1663 1.433 . S
C1671 N1673 1.384 . S
N1672 C1668 1.427 . S
N1672 C1669 1.384 . S
N1673 C1665 1.427 . S
N1673 C1671 1.384 . S
H1674 C1680 0.930 . S
H1675 C1684 0.930 . S
H1676 C1689 0.929 . S
H1677 C1687 0.929 . S
H1678 C1682 0.929 . S
H1679 C1688 0.929 . S
C1680 H1674 0.930 . S
C1680 C1681 1.367 . S
C1680 C1688 1.378 . S
C1681 C1680 1.367 . S
C1681 C1689 1.433 . S
C1682 H1678 0.929 . S
C1682 C1684 1.378 . S
C1682 C1686 1.350 . S
C1683 C1686 1.463 . S
C1683 C1688 1.350 . S
C1683 N1691 1.427 . S
C1684 H1675 0.930 . S
C1684 C1682 1.378 . S
C1684 C1685 1.367 . S
C1685 C1684 1.367 . S
C1685 C1687 1.433 . S
C1686 C1682 1.350 . S
C1686 C1683 1.463 . S
C1686 N1690 1.427 . S
C1687 H1677 0.929 . S
C1687 C1685 1.433 . S
C1687 N1690 1.384 . S
C1688 H1679 0.929 . S
C1688 C1680 1.378 . S
C1688 C1683 1.350 . S
C1689 H1676 0.929 . S
C1689 C1681 1.433 . S
C1689 N1691 1.384 . S
N1690 C1686 1.427 . S
N1690 C1687 1.384 . S
N1691 C1683 1.427 . S
N1691 C1689 1.384 . S
H1692 C1698 0.930 . S
H1693 C1702 0.930 . S
H1694 C1707 0.929 . S
H1695 C1705 0.929 . S
H1696 C1700 0.929 . S
H1697 C1706 0.929 . S
C1698 H1692 0.930 . S
C1698 C1699 1.367 . S
C1698 C1706 1.378 . S
C1699 C1698 1.367 . S
C1699 C1707 1.433 . S
C1700 H1696 0.929 . S
C1700 C1702 1.378 . S
C1700 C1704 1.350 . S
C1701 C1704 1.463 1_455 S
C1701 C1706 1.350 . S
C1701 N1709 1.427 . S
C1702 H1693 0.930 . S
C1702 C1700 1.378 . S
C1702 C1703 1.367 . S
C1703 C1702 1.367 . S
C1703 C1705 1.433 . S
C1704 C1700 1.350 . S
C1704 C1701 1.463 1_655 S
C1704 N1708 1.427 . S
C1705 H1695 0.929 . S
C1705 C1703 1.433 . S
C1705 N1708 1.384 . S
C1706 H1697 0.929 . S
C1706 C1698 1.378 . S
C1706 C1701 1.350 . S
C1707 H1694 0.929 . S
C1707 C1699 1.433 . S
C1707 N1709 1.384 . S
N1708 C1704 1.427 . S
N1708 C1705 1.384 . S
N1709 C1701 1.427 . S
N1709 C1707 1.384 . S
H1710 C1716 0.930 . S
H1711 C1720 0.930 . S
H1712 C1725 0.929 . S
H1713 C1723 0.929 . S
H1714 C1718 0.929 . S
H1715 C1724 0.929 . S
C1716 H1710 0.930 . S
C1716 C1717 1.367 . S
C1716 C1724 1.378 . S
C1717 C1716 1.367 . S
C1717 C1725 1.433 . S
C1718 H1714 0.929 . S
C1718 C1720 1.378 . S
C1718 C1722 1.350 . S
C1719 C1722 1.463 . S
C1719 C1724 1.350 . S
C1719 N1727 1.427 . S
C1720 H1711 0.930 . S
C1720 C1718 1.378 . S
C1720 C1721 1.367 . S
C1721 C1720 1.367 . S
C1721 C1723 1.433 . S
C1722 C1718 1.350 . S
C1722 C1719 1.463 . S
C1722 N1726 1.427 . S
C1723 H1713 0.929 . S
C1723 C1721 1.433 . S
C1723 N1726 1.384 . S
C1724 H1715 0.929 . S
C1724 C1716 1.378 . S
C1724 C1719 1.350 . S
C1725 H1712 0.929 . S
C1725 C1717 1.433 . S
C1725 N1727 1.384 . S
N1726 C1722 1.427 . S
N1726 C1723 1.384 . S
N1727 C1719 1.427 . S
N1727 C1725 1.384 . S
H1728 C1734 0.930 . S
H1729 C1738 0.930 . S
H1730 C1743 0.929 . S
H1731 C1741 0.929 . S
H1732 C1736 0.929 . S
H1733 C1742 0.929 . S
C1734 H1728 0.930 . S
C1734 C1735 1.367 . S
C1734 C1742 1.378 . S
C1735 C1734 1.367 . S
C1735 C1743 1.433 . S
C1736 H1732 0.929 . S
C1736 C1738 1.378 . S
C1736 C1740 1.350 . S
C1737 C1740 1.463 1_565 S
C1737 C1742 1.350 . S
C1737 N1745 1.427 . S
C1738 H1729 0.930 . S
C1738 C1736 1.378 . S
C1738 C1739 1.367 . S
C1739 C1738 1.367 . S
C1739 C1741 1.433 . S
C1740 C1736 1.350 . S
C1740 C1737 1.463 1_545 S
C1740 N1744 1.427 . S
C1741 H1731 0.929 . S
C1741 C1739 1.433 . S
C1741 N1744 1.384 . S
C1742 H1733 0.929 . S
C1742 C1734 1.378 . S
C1742 C1737 1.350 . S
C1743 H1730 0.929 . S
C1743 C1735 1.433 . S
C1743 N1745 1.384 . S
N1744 C1740 1.427 . S
N1744 C1741 1.384 . S
N1745 C1737 1.427 . S
N1745 C1743 1.384 . S
H1746 C1752 0.930 . S
H1747 C1756 0.930 . S
H1748 C1761 0.929 . S
H1749 C1759 0.929 . S
H1750 C1754 0.929 . S
H1751 C1760 0.929 . S
C1752 H1746 0.930 . S
C1752 C1753 1.367 . S
C1752 C1760 1.378 . S
C1753 C1752 1.367 . S
C1753 C1761 1.433 . S
C1754 H1750 0.929 . S
C1754 C1756 1.378 . S
C1754 C1758 1.350 . S
C1755 C1758 1.463 1_545 S
C1755 C1760 1.350 . S
C1755 N1763 1.427 . S
C1756 H1747 0.930 . S
C1756 C1754 1.378 . S
C1756 C1757 1.367 . S
C1757 C1756 1.367 . S
C1757 C1759 1.433 . S
C1758 C1754 1.350 . S
C1758 C1755 1.463 1_565 S
C1758 N1762 1.427 . S
C1759 H1749 0.929 . S
C1759 C1757 1.433 . S
C1759 N1762 1.384 . S
C1760 H1751 0.929 . S
C1760 C1752 1.378 . S
C1760 C1755 1.350 . S
C1761 H1748 0.929 . S
C1761 C1753 1.433 . S
C1761 N1763 1.384 . S
N1762 C1758 1.427 . S
N1762 C1759 1.384 . S
N1763 C1755 1.427 . S
N1763 C1761 1.384 . S
H1764 C1770 0.930 . S
H1765 C1774 0.930 . S
H1766 C1779 0.929 . S
H1767 C1777 0.929 . S
H1768 C1772 0.929 . S
H1769 C1778 0.929 . S
C1770 H1764 0.930 . S
C1770 C1771 1.367 . S
C1770 C1778 1.378 . S
C1771 C1770 1.367 . S
C1771 C1779 1.433 . S
C1772 H1768 0.929 . S
C1772 C1774 1.378 . S
C1772 C1776 1.350 . S
C1773 C1776 1.463 1_455 S
C1773 C1778 1.350 . S
C1773 N1781 1.427 . S
C1774 H1765 0.930 . S
C1774 C1772 1.378 . S
C1774 C1775 1.367 . S
C1775 C1774 1.367 . S
C1775 C1777 1.433 . S
C1776 C1772 1.350 . S
C1776 C1773 1.463 1_655 S
C1776 N1780 1.427 . S
C1777 H1767 0.929 . S
C1777 C1775 1.433 . S
C1777 N1780 1.384 . S
C1778 H1769 0.929 . S
C1778 C1770 1.378 . S
C1778 C1773 1.350 . S
C1779 H1766 0.929 . S
C1779 C1771 1.433 . S
C1779 N1781 1.384 . S
N1780 C1776 1.427 . S
N1780 C1777 1.384 . S
N1781 C1773 1.427 . S
N1781 C1779 1.384 . S
H1782 C1788 0.930 . S
H1783 C1792 0.930 . S
H1784 C1797 0.929 . S
H1785 C1795 0.929 . S
H1786 C1790 0.929 . S
H1787 C1796 0.929 . S
C1788 H1782 0.930 . S
C1788 C1789 1.367 . S
C1788 C1796 1.378 . S
C1789 C1788 1.367 . S
C1789 C1797 1.433 . S
C1790 H1786 0.929 . S
C1790 C1792 1.378 . S
C1790 C1794 1.350 . S
C1791 C1794 1.463 . S
C1791 C1796 1.350 . S
C1791 N1799 1.427 . S
C1792 H1783 0.930 . S
C1792 C1790 1.378 . S
C1792 C1793 1.367 . S
C1793 C1792 1.367 . S
C1793 C1795 1.433 . S
C1794 C1790 1.350 . S
C1794 C1791 1.463 . S
C1794 N1798 1.427 . S
C1795 H1785 0.929 . S
C1795 C1793 1.433 . S
C1795 N1798 1.384 . S
C1796 H1787 0.929 . S
C1796 C1788 1.378 . S
C1796 C1791 1.350 . S
C1797 H1784 0.929 . S
C1797 C1789 1.433 . S
C1797 N1799 1.384 . S
N1798 C1794 1.427 . S
N1798 C1795 1.384 . S
N1799 C1791 1.427 . S
N1799 C1797 1.384 . S
C511 C53 1.234 . S
C515 C11 1.240 . S
C529 C67 1.236 . S
C533 C25 1.239 . S
C547 C81 1.237 . S
C551 C39 1.238 . S
C565 C95 1.240 . S
C569 C137 1.234 . S
C583 C109 1.233 . S
C587 C151 1.238 . S
C601 C165 1.233 . S
C605 C123 1.238 . S
C619 C179 1.236 . S
C623 C221 1.234 . S
C637 C193 1.236 . S
C641 C235 1.234 . S
C655 C207 1.234 . S
C659 C249 1.236 . S
C673 C263 1.239 . S
C677 C305 1.236 . S
C691 C319 1.239 . S
C695 C277 1.232 . S
C709 C291 1.233 . S
C713 C333 1.240 . S
C727 C347 1.234 . S
C731 C389 1.240 . S
C745 C361 1.236 . S
C749 C403 1.233 . S
C763 C417 1.236 . S
C767 C375 1.239 . S
C781 C473 1.234 . S
C785 C431 1.240 . S
C799 C487 1.233 . S
C803 C445 1.236 . S
C817 C501 1.240 . S
C821 C459 1.233 . S
C835 C167 1.194 . S
C839 C8 1.258 . S
C853 C22 1.247 . S
C857 C139 1.208 . S
C871 C36 1.261 . S
C875 C153 1.217 . S
C889 C111 1.195 . S
C893 C50 1.260 . S
C907 C64 1.260 . S
C911 C125 1.218 . S
C925 C97 1.214 . S
C929 C78 1.249 . S
C943 C92 1.250 . S
C947 C83 1.196 . S
C961 C106 1.265 . S
C965 C55 1.208 . S
C979 C69 1.218 . S
C983 C120 1.253 . S
C997 C27 1.198 . S
C1001 C134 1.263 . S
C1015 C41 1.198 . S
C1019 C148 1.263 . S
C1033 C162 1.248 . S
C1037 C13 1.210 . S
C1051 C176 1.251 . S
C1055 C335 1.216 . S
C1069 C307 1.213 . S
C1073 C190 1.248 . S
C1087 C321 1.193 . S
C1091 C204 1.256 . S
C1105 C218 1.256 . S
C1109 C279 1.193 . S
C1123 C293 1.216 . S
C1127 C232 1.262 . S
C1141 C246 1.259 . S
C1145 C265 1.219 . S
C1159 C260 1.263 . S
C1163 C251 1.199 . S
C1177 C274 1.263 . S
C1181 C223 1.215 . S
C1195 C237 1.212 . S
C1199 C288 1.248 . S
C1213 C195 1.199 . S
C1217 C302 1.248 . S
C1231 C209 1.199 . S
C1235 C316 1.249 . S
C1249 C330 1.265 . S
C1253 C181 1.202 . S
C1267 C503 1.197 . S
C1271 C344 1.262 . S
C1285 C358 1.264 . S
C1289 C475 1.199 . S
C1303 C372 1.249 . S
C1307 C489 1.197 . S
C1321 C386 1.248 . S
C1325 C447 1.199 . S
C1339 C461 1.217 . S
C1343 C400 1.261 . S
C1357 C414 1.256 . S
C1361 C433 1.219 . S
C1375 C419 1.219 . S
C1379 C428 1.255 . S
C1393 C391 1.208 . S
C1397 C442 1.265 . S
C1411 C405 1.206 . S
C1415 C456 1.247 . S
C1429 C363 1.215 . S
C1433 C470 1.263 . S
C1447 C377 1.199 . S
C1451 C484 1.264 . S
C1465 C349 1.199 . S
C1469 C498 1.263 . S
C1483 C413 1.417 . S
C1487 C7 1.406 . S
C1501 C21 1.412 . S
C1505 C385 1.410 . S
C1519 C399 1.413 . S
C1523 C35 1.411 . S
C1537 C49 1.409 . S
C1541 C189 1.414 . S
C1555 C203 1.406 . S
C1559 C63 1.417 . S
C1573 C77 1.413 . S
C1577 C175 1.410 . S
C1591 C91 1.415 . S
C1595 C329 1.408 . S
C1609 C301 1.407 . S
C1613 C105 1.416 . S
C1627 C119 1.412 . S
C1631 C315 1.411 . S
C1645 C133 1.417 . S
C1649 C441 1.406 . S
C1663 C147 1.410 . S
C1667 C455 1.413 . S
C1681 C427 1.415 . S
C1685 C161 1.408 . S
C1699 C357 1.414 . S
C1703 C217 1.409 . S
C1717 C371 1.415 . S
C1721 C231 1.408 . S
C1735 C343 1.415 . S
C1739 C245 1.407 . S
C1753 C259 1.409 . S
C1757 C497 1.414 . S
C1771 C469 1.412 . S
C1775 C273 1.411 . S
C1789 C287 1.415 . S
C1793 C483 1.407 . S
