# Generated by pormake.
# Topology smc, (6)-cn, num edge types: 1
# Building blocks:
#     Node 0, Type 0, BuildingBlock: BETDEL_clean_sbu_0, # of connection points: 6
#     Node 1, Type 0, BuildingBlock: BETDEL_clean_sbu_0, # of connection points: 6
#     Node 2, Type 0, BuildingBlock: BETDEL_clean_sbu_0, # of connection points: 6
#     Node 3, Type 0, BuildingBlock: BETDEL_clean_sbu_0, # of connection points: 6
#     Node 4, Type 0, BuildingBlock: BETDEL_clean_sbu_0, # of connection points: 6
#     Node 5, Type 0, BuildingBlock: BETDEL_clean_sbu_0, # of connection points: 6
#     Node 6, Type 0, BuildingBlock: BETDEL_clean_sbu_0, # of connection points: 6
#     Node 7, Type 0, BuildingBlock: BETDEL_clean_sbu_0, # of connection points: 6
#     Node 8, Type 0, BuildingBlock: BETDEL_clean_sbu_0, # of connection points: 6
#     Edge 9, Type (0, 0), BuildingBlock: OJICUG_clean_linker_0, # of connection points: 2
#     Edge 10, Type (0, 0), BuildingBlock: OJICUG_clean_linker_0, # of connection points: 2
#     Edge 11, Type (0, 0), BuildingBlock: OJICUG_clean_linker_0, # of connection points: 2
#     Edge 12, Type (0, 0), BuildingBlock: OJICUG_clean_linker_0, # of connection points: 2
#     Edge 13, Type (0, 0), BuildingBlock: OJICUG_clean_linker_0, # of connection points: 2
#     Edge 14, Type (0, 0), BuildingBlock: OJICUG_clean_linker_0, # of connection points: 2
#     Edge 15, Type (0, 0), BuildingBlock: OJICUG_clean_linker_0, # of connection points: 2
#     Edge 16, Type (0, 0), BuildingBlock: OJICUG_clean_linker_0, # of connection points: 2
#     Edge 17, Type (0, 0), BuildingBlock: OJICUG_clean_linker_0, # of connection points: 2
#     Edge 18, Type (0, 0), BuildingBlock: OJICUG_clean_linker_0, # of connection points: 2
#     Edge 19, Type (0, 0), BuildingBlock: OJICUG_clean_linker_0, # of connection points: 2
#     Edge 20, Type (0, 0), BuildingBlock: OJICUG_clean_linker_0, # of connection points: 2
#     Edge 21, Type (0, 0), BuildingBlock: OJICUG_clean_linker_0, # of connection points: 2
#     Edge 22, Type (0, 0), BuildingBlock: OJICUG_clean_linker_0, # of connection points: 2
#     Edge 23, Type (0, 0), BuildingBlock: OJICUG_clean_linker_0, # of connection points: 2
#     Edge 24, Type (0, 0), BuildingBlock: OJICUG_clean_linker_0, # of connection points: 2
#     Edge 25, Type (0, 0), BuildingBlock: OJICUG_clean_linker_0, # of connection points: 2
#     Edge 26, Type (0, 0), BuildingBlock: OJICUG_clean_linker_0, # of connection points: 2
#     Edge 27, Type (0, 0), BuildingBlock: OJICUG_clean_linker_0, # of connection points: 2
#     Edge 28, Type (0, 0), BuildingBlock: OJICUG_clean_linker_0, # of connection points: 2
#     Edge 29, Type (0, 0), BuildingBlock: OJICUG_clean_linker_0, # of connection points: 2
#     Edge 30, Type (0, 0), BuildingBlock: OJICUG_clean_linker_0, # of connection points: 2
#     Edge 31, Type (0, 0), BuildingBlock: OJICUG_clean_linker_0, # of connection points: 2
#     Edge 32, Type (0, 0), BuildingBlock: OJICUG_clean_linker_0, # of connection points: 2
#     Edge 33, Type (0, 0), BuildingBlock: OJICUG_clean_linker_0, # of connection points: 2
#     Edge 34, Type (0, 0), BuildingBlock: OJICUG_clean_linker_0, # of connection points: 2
#     Edge 35, Type (0, 0), BuildingBlock: OJICUG_clean_linker_0, # of connection points: 2
# Relax obj value: 0.162
# Max RMSD: 0.273
# Mean RMSD: 0.273
data_MOF--net-smc--node1-BETDEL_clean_sbu_0--edge1-OJICUG_clean_linker_0
_symmetry_space_group_name_H-M    P1
_symmetry_Int_Tables_number       1
_symmetry_cell_setting            triclinic
loop_
_symmetry_equiv_pos_as_xyz
'x, y, z'
_cell_length_a     24.021226
_cell_length_b     23.967652
_cell_length_c     27.040565
_cell_angle_alpha  89.379103
_cell_angle_beta   90.300835
_cell_angle_gamma 119.86738
loop_
_atom_site_label
_atom_site_type_symbol
_atom_site_fract_x
_atom_site_fract_y
_atom_site_fract_z
_atom_type_partial_charge
Dy0 Dy 0.06807 0.53103 1.0466 0.0
C1 C 0.87004 0.27644 0.07644 0.0
C2 C 0.14648 0.66121 1.04074 0.0
Dy3 Dy 0.9717 0.3992 0.07484 0.0
O4 O 0.13422 0.62165 1.0045 0.0
O5 O 0.1184 0.62938 0.08075 0.0
O6 O 0.06207 0.50132 0.96753 0.0
O7 O 0.97934 0.45773 1.01123 0.0
C8 C 1.00228 0.45654 0.96954 0.0
C9 C 0.04513 0.46296 0.15394 0.0
O10 O 0.05337 0.38377 1.04836 0.0
O11 O 0.13327 0.49141 1.04875 0.0
O12 O 0.90116 0.30855 0.11512 0.0
O13 O 0.89808 0.30977 1.03708 0.0
O14 O 0.98289 0.42873 0.15383 0.0
O15 O 0.06353 0.46791 0.1094 0.0
O16 O 0.99349 0.55132 0.07429 0.0
O17 O 0.91137 0.44647 0.08077 0.0
C18 C 0.11458 0.4299 1.04305 0.0
C19 C 0.93307 0.50904 0.08253 0.0
Dy20 Dy 0.50001 0.54409 1.05762 0.0
C21 C 0.7481 0.5923 0.10224 0.0
C22 C 0.36959 0.4898 1.04984 0.0
Dy23 Dy 0.62936 0.57754 0.08649 0.0
O24 O 0.40952 0.51136 1.01307 0.0
O25 O 0.40111 0.50092 0.09104 0.0
O26 O 0.53152 0.57165 0.97859 0.0
O27 O 0.57467 0.53048 1.02132 0.0
C28 C 0.57662 0.55689 0.9802 0.0
C29 C 0.56313 0.58609 0.16517 0.0
O30 O 0.64684 0.67558 1.05899 0.0
O31 O 0.53952 0.64907 1.05887 0.0
O32 O 0.69927 0.56308 0.13145 0.0
O33 O 0.73349 0.61786 0.06525 0.0
O34 O 0.5961 0.55679 0.1653 0.0
O35 O 0.56055 0.6012 0.1206 0.0
O36 O 0.482 0.45212 0.09227 0.0
O37 O 0.58185 0.47087 0.07312 0.0
C38 C 0.60117 0.6915 1.05333 0.0
C39 C 0.52201 0.43077 0.08626 0.0
Dy40 Dy 0.49141 0.9675 1.05509 0.0
C41 C 0.42314 0.15887 0.07904 0.0
C42 C 0.5474 0.89222 1.05197 0.0
Dy43 Dy 0.44982 0.06063 0.07649 0.0
O44 O 0.52704 0.91019 1.01391 0.0
O45 O 0.53472 0.91306 0.09207 0.0
O46 O 0.47114 0.97216 0.97426 0.0
O47 O 0.5056 0.05516 1.0165 0.0
C48 C 0.48446 0.03161 0.97443 0.0
C49 C 0.43988 0.98854 0.15806 0.0
O50 O 0.35689 0.97753 1.04605 0.0
O51 O 0.38739 0.89958 1.05264 0.0
O52 O 0.43533 0.1336 0.11718 0.0
O53 O 0.42111 0.12716 1.03984 0.0
O54 O 0.46555 0.05065 0.15695 0.0
O55 O 0.42796 0.96965 0.11368 0.0
O56 O 0.57932 0.0433 0.09172 0.0
O57 O 0.55734 0.12357 0.07321 0.0
C58 C 0.34407 0.91674 1.04267 0.0
C59 C 0.59811 0.10461 0.08722 0.0
Dy60 Dy 0.73574 0.86344 0.38917 0.0
C61 C 0.53729 0.61443 0.43542 0.0
C62 C 0.81346 0.99361 0.38092 0.0
Dy63 Dy 0.64079 0.73421 0.4212 0.0
O64 O 0.8006 0.95299 0.34537 0.0
O65 O 0.78667 0.96286 0.42158 0.0
O66 O 0.72761 0.83201 0.31051 0.0
O67 O 0.64575 0.78844 0.35542 0.0
C68 C 0.66829 0.78636 0.31373 0.0
C69 C 0.71965 0.80042 0.49794 0.0
O70 O 0.71977 0.71567 0.39296 0.0
O71 O 0.80035 0.82304 0.39013 0.0
O72 O 0.55985 0.66065 0.46704 0.0
O73 O 0.57472 0.63193 0.39691 0.0
O74 O 0.65766 0.76671 0.49982 0.0
O75 O 0.7349 0.80325 0.45285 0.0
O76 O 0.66297 0.88567 0.4179 0.0
O77 O 0.58017 0.78155 0.41785 0.0
C78 C 0.7808 0.76117 0.38539 0.0
C79 C 0.6018 0.84382 0.42205 0.0
Dy80 Dy 0.16628 0.87582 0.38702 0.0
C81 C 0.41528 0.92619 0.43187 0.0
C82 C 0.03553 0.82068 0.38288 0.0
Dy83 Dy 0.29662 0.91087 0.41445 0.0
O84 O 0.07378 0.84288 0.34509 0.0
O85 O 0.06891 0.83164 0.42309 0.0
O86 O 0.19512 0.90115 0.30733 0.0
O87 O 0.24062 0.86241 0.35009 0.0
C88 C 0.24111 0.88764 0.30873 0.0
C89 C 0.23128 0.92025 0.49329 0.0
O90 O 0.31338 1.00806 0.38599 0.0
O91 O 0.20584 0.98084 0.38694 0.0
O92 O 0.36638 0.89843 0.46113 0.0
O93 O 0.40081 0.94999 0.3936 0.0
O94 O 0.26326 0.88995 0.49317 0.0
O95 O 0.22806 0.93479 0.44874 0.0
O96 O 0.15021 0.78454 0.42182 0.0
O97 O 0.25011 0.80433 0.40157 0.0
C98 C 0.2673 0.02338 0.38043 0.0
C99 C 0.19068 0.76383 0.4154 0.0
Dy100 Dy 0.15579 0.29773 0.38359 0.0
C101 C 0.09355 0.49225 0.40625 0.0
C102 C 0.20975 0.22093 0.37983 0.0
Dy103 Dy 0.11904 0.39318 0.40798 0.0
O104 O 0.18469 0.23497 0.3425 0.0
O105 O 0.20246 0.24619 0.41977 0.0
O106 O 0.13064 0.30125 0.30404 0.0
O107 O 0.17021 0.38557 0.34548 0.0
C108 C 0.14583 0.36129 0.30414 0.0
C109 C 0.11301 0.32402 0.48938 0.0
O110 O 0.02313 0.31017 0.38128 0.0
O111 O 0.05186 0.23087 0.38494 0.0
O112 O 0.09643 0.46279 0.44581 0.0
O113 O 0.09986 0.46413 0.36782 0.0
O114 O 0.13847 0.38613 0.48769 0.0
O115 O 0.09753 0.3025 0.44573 0.0
O116 O 0.24975 0.3732 0.41141 0.0
O117 O 0.22662 0.4554 0.41316 0.0
C118 C 1.00883 0.24897 0.37745 0.0
C119 C 0.26775 0.43407 0.41697 0.0
Dy120 Dy 0.40561 0.19909 0.71488 0.0
C121 C 0.20864 0.9434 0.74647 0.0
C122 C 0.48393 0.32934 0.71017 0.0
Dy123 Dy 0.31017 0.06637 0.74311 0.0
O124 O 0.47118 0.29046 0.67338 0.0
O125 O 0.45626 0.2968 0.75004 0.0
O126 O 0.3976 0.17073 0.63527 0.0
O127 O 0.31623 0.12559 0.68037 0.0
C128 C 0.33816 0.12524 0.63804 0.0
C129 C 0.38558 0.13065 0.82141 0.0
O130 O 0.39144 0.05209 0.71357 0.0
O131 O 0.47106 0.1599 0.71424 0.0
O132 O 0.24015 0.97661 0.78463 0.0
O133 O 0.23636 0.97571 0.70664 0.0
O134 O 0.32349 0.0953 0.82238 0.0
O135 O 0.4027 0.13536 0.77655 0.0
O136 O 0.33115 0.21836 0.74431 0.0
O137 O 0.24933 0.11324 0.74926 0.0
C138 C 0.45239 0.0986 0.70739 0.0
C139 C 0.2707 0.17571 0.75199 0.0
Dy140 Dy 0.83812 0.21236 0.71528 0.0
C141 C 0.08416 0.25768 0.76597 0.0
C142 C 0.70773 0.15858 0.70714 0.0
Dy143 Dy 0.96581 0.24309 0.74849 0.0
O144 O 0.74826 0.18564 0.67107 0.0
O145 O 0.73868 0.16391 0.74782 0.0
O146 O 0.8744 0.23845 0.63654 0.0
O147 O 0.91273 0.19606 0.68286 0.0
C148 C 0.91744 0.22113 0.64079 0.0
C149 C 0.89699 0.25118 0.82487 0.0
O150 O 0.98498 0.34312 0.72418 0.0
O151 O 0.87813 0.31735 0.71815 0.0
O152 O 0.03562 0.23095 0.79572 0.0
O153 O 0.06942 0.28061 0.72736 0.0
O154 O 0.92802 0.21983 0.82582 0.0
O155 O 0.89623 0.26715 0.78021 0.0
O156 O 0.81652 0.11912 0.74989 0.0
O157 O 0.91739 0.13613 0.73691 0.0
C158 C 0.94016 0.35982 0.7163 0.0
C159 C 0.85643 0.0971 0.74766 0.0
Dy160 Dy 0.83014 0.63569 0.72801 0.0
C161 C 0.75994 0.82578 0.7496 0.0
C162 C 0.88673 0.56085 0.72385 0.0
Dy163 Dy 0.78816 0.72862 0.74919 0.0
O164 O 0.87277 0.58522 0.68603 0.0
O165 O 0.86745 0.57517 0.76407 0.0
O166 O 0.80782 0.63975 0.64744 0.0
O167 O 0.84382 0.72307 0.68936 0.0
C168 C 0.82189 0.69947 0.64746 0.0
C169 C 0.7774 0.6566 0.83093 0.0
O170 O 0.69539 0.64507 0.71896 0.0
O171 O 0.72636 0.56734 0.72411 0.0
O172 O 0.77482 0.80339 0.78814 0.0
O173 O 0.75636 0.79195 0.71133 0.0
O174 O 0.80292 0.71871 0.8298 0.0
O175 O 0.76621 0.63769 0.78649 0.0
O176 O 0.9173 0.71147 0.76557 0.0
O177 O 0.89571 0.79153 0.74548 0.0
C178 C 0.68287 0.58446 0.71481 0.0
C179 C 0.93642 0.77276 0.76012 0.0
C180 C 0.2601 0.43217 0.08756 0.0
C181 C 0.29912 0.45795 1.04551 0.0
H182 H 0.16666 0.3979 0.1187 0.0
C183 C 0.27044 0.45616 0.99975 0.0
H184 H 0.28095 0.43215 0.12317 0.0
C185 C 0.20489 0.43565 0.99716 0.0
C186 C 0.1671 0.41589 1.04012 0.0
H187 H 0.29937 0.47501 0.96664 0.0
H188 H 0.18525 0.44165 0.96263 0.0
C189 C 0.19439 0.41101 0.08481 0.0
C190 C 0.60132 0.83785 0.09308 0.0
C191 C 0.5779 0.85199 1.04989 0.0
H192 H 0.63189 0.7766 0.12714 0.0
C193 C 0.5799 0.82383 1.00515 0.0
H194 H 0.60103 0.85955 0.12795 0.0
C195 C 0.59827 0.77691 1.0047 0.0
C196 C 0.61582 0.7583 1.04878 0.0
H197 H 0.56272 0.83445 0.97119 0.0
H198 H 0.59253 0.75064 0.97091 0.0
C199 C 0.62038 0.79142 0.09245 0.0
C200 C 0.24014 0.83592 0.07704 0.0
C201 C 0.27904 0.86327 1.03522 0.0
H202 H 0.1678 0.74938 0.11187 0.0
C203 C 0.2674 0.82585 0.9928 0.0
H204 H 0.24964 0.86342 0.11063 0.0
C205 C 0.2213 0.76052 0.9936 0.0
C206 C 0.18695 0.73168 1.03714 0.0
H207 H 0.2982 0.84562 0.96068 0.0
H208 H 0.21585 0.73181 0.96135 0.0
C209 C 0.19441 0.7704 0.07806 0.0
C210 C 0.47873 0.26679 1.03954 0.0
C211 C 0.4398 0.22668 0.078 0.0
H212 H 0.53791 0.36366 1.01339 0.0
C213 C 0.42776 0.25413 0.11922 0.0
H214 H 0.48979 0.24682 1.00781 0.0
C215 C 0.45438 0.32089 0.12191 0.0
C216 C 0.49568 0.36096 0.0845 0.0
H217 H 0.39881 0.22408 0.14966 0.0
H218 H 0.44413 0.34135 0.15375 0.0
C219 C 0.5073 0.33352 1.04314 0.0
C220 C 0.69418 0.1924 1.04619 0.0
C221 C 0.66749 0.14987 0.08635 0.0
H222 H 0.77984 0.26329 1.01036 0.0
C223 C 0.7082 0.14573 0.12189 0.0
H224 H 0.66371 0.19519 1.01772 0.0
C225 C 0.77485 0.18562 0.11822 0.0
C226 C 0.80148 0.22782 0.07776 0.0
H227 H 0.68839 0.11227 0.15271 0.0
H228 H 0.80548 0.18372 0.14696 0.0
C229 C 0.76061 0.2303 1.04151 0.0
C230 C 0.89793 0.58934 0.06571 0.0
C231 C 0.88847 0.53335 0.09058 0.0
H232 H 0.86011 0.65203 1.04952 0.0
C233 C 0.8361 0.50095 0.12253 0.0
H234 H 0.93817 0.61514 1.04076 0.0
C235 C 0.79312 0.52348 0.12889 0.0
C236 C 0.80068 0.57758 0.10219 0.0
H237 H 0.82823 0.45811 0.14238 0.0
H238 H 0.75216 0.49653 0.15297 0.0
C239 C 0.85373 0.61073 0.07086 0.0
C240 C 0.86224 0.74142 0.42331 0.0
C241 C 0.83269 0.74655 0.37997 0.0
H242 H 0.95069 0.7624 0.45845 0.0
C243 C 0.86821 0.76628 0.33587 0.0
H244 H 0.83634 0.72819 0.45803 0.0
C245 C 0.93384 0.78681 0.33613 0.0
C246 C 0.96487 0.78854 0.38068 0.0
H247 H 0.84683 0.77241 0.30233 0.0
H248 H 0.96104 0.8058 0.30227 0.0
C249 C 0.92802 0.76254 0.42374 0.0
C250 C 0.24161 0.15255 0.3325 0.0
C251 C 0.24097 0.18145 0.3772 0.0
H252 H 0.25469 0.07982 0.29806 0.0
C253 C 0.26706 0.16927 0.4198 0.0
H254 H 0.22253 0.16181 0.29898 0.0
C255 C 0.28727 0.12373 0.41881 0.0
C256 C 0.28138 0.08983 0.3753 0.0
H257 H 0.26788 0.19166 0.45459 0.0
H258 H 0.30061 0.10996 0.45325 0.0
C259 C 0.26141 0.10677 0.33164 0.0
C260 C 0.93086 0.15728 0.32932 0.0
C261 C 0.94317 0.19611 0.371 0.0
H262 H 0.87998 0.06205 0.29994 0.0
C263 C 0.90491 0.17002 0.41329 0.0
H264 H 0.96093 0.17615 0.29673 0.0
C265 C 0.86019 0.10419 0.41587 0.0
C266 C 0.85271 0.0641 0.37585 0.0
H267 H 0.91438 0.19887 0.44613 0.0
H268 H 0.8344 0.08413 0.45014 0.0
C269 C 0.88564 0.09175 0.3316 0.0
C270 C 0.1214 0.65319 0.44937 0.0
C271 C 0.16511 0.69417 0.41348 0.0
H272 H 0.06424 0.55573 0.47545 0.0
C273 C 0.18008 0.66782 0.37318 0.0
H274 H 0.10859 0.67282 0.48036 0.0
C275 C 0.15231 0.60131 0.36904 0.0
C276 C 0.11076 0.56022 0.406 0.0
H277 H 0.21259 0.69863 0.34453 0.0
H278 H 0.16577 0.58228 0.33803 0.0
C279 C 0.09541 0.58654 0.44622 0.0
C280 C 0.35849 0.53145 0.45538 0.0
C281 C 0.33679 0.47892 0.42368 0.0
H282 H 0.43983 0.61399 0.48566 0.0
C283 C 0.38182 0.46833 0.39848 0.0
H284 H 0.32468 0.54019 0.47543 0.0
C285 C 0.4476 0.5111 0.40345 0.0
C286 C 0.46934 0.5638 0.43501 0.0
H287 H 0.36604 0.42798 0.3737 0.0
H288 H 0.48131 0.50362 0.38206 0.0
C289 C 0.42431 0.573 0.46161 0.0
C290 C 0.52261 0.94492 0.40419 0.0
C291 C 0.4678 0.91145 0.43376 0.0
H292 H 0.60925 0.94999 0.3782 0.0
C293 C 0.45889 0.85733 0.46117 0.0
H294 H 0.53008 0.98627 0.38238 0.0
C295 C 0.50242 0.83515 0.45729 0.0
C296 C 0.55674 0.86801 0.4273 0.0
H297 H 0.41659 0.83012 0.48391 0.0
H298 H 0.49355 0.79227 0.4776 0.0
C299 C 0.56746 0.92395 0.40167 0.0
C300 C 0.60825 0.13065 0.65892 0.0
C301 C 0.63719 0.12701 0.7031 0.0
H302 H 0.52278 0.12019 0.62501 0.0
C303 C 0.59831 0.09608 0.74447 0.0
H304 H 0.63702 0.15354 0.62632 0.0
C305 C 0.53257 0.07516 0.74316 0.0
C306 C 0.50502 0.08529 0.70063 0.0
H307 H 0.61934 0.09179 0.77883 0.0
H308 H 0.50506 0.0579 0.77706 0.0
C309 C 0.54264 0.11021 0.65779 0.0
C310 C 0.95355 0.45357 0.76184 0.0
C311 C 0.95518 0.42695 0.71622 0.0
H312 H 0.92921 0.51639 0.80019 0.0
C313 C 0.94368 0.45196 0.6727 0.0
H314 H 0.96011 0.43354 0.79601 0.0
C315 C 0.92542 0.49892 0.67504 0.0
C316 C 0.91722 0.52058 0.72104 0.0
H317 H 0.94263 0.43071 0.63729 0.0
H318 H 0.91308 0.5146 0.64107 0.0
C319 C 0.93441 0.49988 0.76429 0.0
C320 C 0.5787 0.50315 0.74856 0.0
C321 C 0.61791 0.53106 0.70698 0.0
H322 H 0.50557 0.41625 0.78242 0.0
C323 C 0.60628 0.49444 0.6641 0.0
H324 H 0.58821 0.53004 0.78249 0.0
C325 C 0.55967 0.42928 0.66414 0.0
C326 C 0.52486 0.3998 0.70737 0.0
H327 H 0.63734 0.51466 0.63215 0.0
H328 H 0.55416 0.40113 0.63152 0.0
C329 C 0.53248 0.43779 0.74882 0.0
C330 C 0.76601 0.92289 0.78754 0.0
C331 C 0.77492 0.89299 0.74641 0.0
H332 H 0.78458 0.01215 0.81973 0.0
C333 C 0.80968 0.9306 0.70548 0.0
H334 H 0.74022 0.8948 0.81976 0.0
C335 C 0.83774 0.99742 0.70661 0.0
C336 C 0.82968 0.0273 0.74799 0.0
H337 H 0.8182 0.90879 0.67368 0.0
H338 H 0.86548 0.02576 0.67508 0.0
C339 C 0.79208 0.98968 0.78784 0.0
C340 C 0.03225 0.85915 0.71765 0.0
C341 C 1.00593 0.81775 0.7585 0.0
H342 H 0.11756 0.92876 0.68063 0.0
C343 C 0.04707 0.81436 0.79404 0.0
H344 H 1.00147 0.86134 0.68916 0.0
C345 C 0.11372 0.85389 0.78968 0.0
C346 C 0.13996 0.89495 0.74853 0.0
H347 H 0.02759 0.78179 0.82541 0.0
H348 H 0.14467 0.85262 0.81843 0.0
C349 C 0.09866 0.89664 0.7123 0.0
C350 C 0.23574 0.25579 0.73403 0.0
C351 C 0.22562 0.19968 0.75908 0.0
H352 H 0.1981 0.31817 0.71618 0.0
C353 C 0.17191 0.16666 0.78973 0.0
H354 H 0.27691 0.28202 0.71 0.0
C355 C 0.12835 0.18879 0.79462 0.0
C356 C 0.13675 0.24304 0.76767 0.0
H357 H 0.16342 0.12362 0.8096 0.0
H358 H 0.08635 0.16143 0.81763 0.0
C359 C 0.19105 0.27673 0.73767 0.0
C360 C 0.08526 0.35217 0.22666 0.0
C361 C 0.12575 0.3914 0.26441 0.0
H362 H 0.02924 0.34464 0.16276 0.0
C363 C 0.14364 0.45714 0.264 0.0
H364 H 0.07079 0.30157 0.22534 0.0
C365 C 0.11882 0.48204 0.22787 0.0
C366 C 0.07649 0.44161 0.19133 0.0
H367 H 0.17611 0.48903 0.29184 0.0
H368 H 0.13192 0.53227 0.22893 0.0
C369 C 0.06117 0.37684 0.19078 0.0
C370 C 0.57474 0.68147 0.28157 0.0
C371 C 0.63613 0.73607 0.27515 0.0
H372 H 0.5027 0.59004 0.25191 0.0
C373 C 0.66997 0.74137 0.23152 0.0
H374 H 0.54721 0.67615 0.31461 0.0
C375 C 0.64448 0.69315 0.19598 0.0
C376 C 0.58414 0.63786 0.20257 0.0
H377 H 0.71721 0.78249 0.22511 0.0
H378 H 0.67295 0.69846 0.16345 0.0
C379 C 0.54911 0.63238 0.24568 0.0
C380 C 0.39629 0.92897 0.23971 0.0
C381 C 0.38798 0.95518 0.19538 0.0
H382 H 0.35521 0.88469 0.3101 0.0
C383 C 0.33 0.95513 0.18791 0.0
H384 H 0.44066 0.92883 0.24661 0.0
C385 C 0.28215 0.93138 0.22418 0.0
C386 C 0.29049 0.90646 0.26909 0.0
H387 H 0.32249 0.97561 0.15432 0.0
H388 H 0.23898 0.93391 0.21736 0.0
C389 C 0.34754 0.90409 0.27608 0.0
C390 C 0.47633 0.12509 0.93651 0.0
C391 C 0.46655 0.06208 0.93356 0.0
H392 H 0.45771 0.19687 0.90362 0.0
C393 C 0.43562 0.02569 0.89152 0.0
H394 H 0.50155 0.15499 0.96777 0.0
C395 C 0.41243 0.05008 0.85463 0.0
C396 C 0.41901 0.11152 0.85858 0.0
H397 H 0.42764 0.9773 0.88764 0.0
H398 H 0.38715 0.01975 0.82348 0.0
C399 C 0.45193 0.14936 0.89961 0.0
C400 C 1.01098 0.39951 0.89615 0.0
C401 C 0.97175 0.40465 0.93199 0.0
H402 H 0.01762 0.34729 0.83509 0.0
C403 C 0.90546 0.35934 0.93161 0.0
H404 H 0.06205 0.43345 0.89502 0.0
C405 C 0.87963 0.30895 0.89682 0.0
C406 C 0.91984 0.3035 0.86193 0.0
H407 H 0.87379 0.36273 0.95823 0.0
H408 H 0.82876 0.27427 0.89745 0.0
C409 C 0.98551 0.34981 0.86185 0.0
C410 C 0.66735 0.62412 0.85994 0.0
C411 C 0.72482 0.62325 0.86781 0.0
H412 H 0.57641 0.60409 0.8888 0.0
C413 C 0.73207 0.59637 0.91219 0.0
H414 H 0.6606 0.64506 0.82631 0.0
C415 C 0.68285 0.57181 0.94821 0.0
C416 C 0.62641 0.57526 0.94088 0.0
H417 H 0.77601 0.59549 0.91942 0.0
H418 H 0.68972 0.55184 0.98225 0.0
C419 C 0.6191 0.60078 0.89591 0.0
C420 C 0.78986 0.81859 0.57389 0.0
C421 C 0.75274 0.77992 0.53449 0.0
H422 H 0.84317 0.82429 0.64001 0.0
C423 C 0.74248 0.71694 0.53131 0.0
H424 H 0.79853 0.86725 0.57731 0.0
C425 C 0.7667 0.69223 0.56718 0.0
C426 C 0.80212 0.72966 0.60754 0.0
H427 H 0.71398 0.68593 0.50142 0.0
H428 H 0.75613 0.6429 0.56384 0.0
C429 C 0.81491 0.7938 0.60989 0.0
C430 C 0.21531 0.97592 0.56725 0.0
C431 C 0.25431 0.97303 0.52991 0.0
H432 H 0.21065 0.0278 0.63042 0.0
C433 C 0.31891 0.02197 0.52726 0.0
H434 H 0.16521 0.93918 0.56985 0.0
C435 C 0.34476 0.07152 0.56172 0.0
C436 C 0.30693 0.07395 0.60011 0.0
H437 H 0.34998 0.02136 0.4986 0.0
H438 H 0.39515 0.10739 0.55874 0.0
C439 C 0.24143 0.02633 0.60199 0.0
C440 C 0.96493 0.20591 0.56268 0.0
C441 C 0.97193 0.241 0.60585 0.0
H442 H 1.00571 0.20281 0.49283 0.0
C443 C 0.02977 0.29862 0.61325 0.0
H444 H 0.92079 0.16128 0.55601 0.0
C445 C 0.07821 0.32257 0.57716 0.0
C446 C 0.06997 0.28971 0.53242 0.0
H447 H 0.03646 0.32697 0.64585 0.0
H448 H 0.12063 0.36895 0.58308 0.0
C449 C 1.01371 0.22966 0.52657 0.0
loop_
_geom_bond_atom_site_label_1
_geom_bond_atom_site_label_2
_geom_bond_distance
_geom_bond_site_symmetry_2
_ccdc_geom_bond_type
Dy0 O4 2.398 . S
Dy0 O5 2.491 1_556 S
Dy0 O6 2.403 . S
Dy0 O7 2.664 1_455 S
Dy0 O11 2.326 . S
Dy0 O15 2.310 1_556 S
Dy0 O16 2.351 1_456 S
C1 O12 1.185 . S
C1 O13 1.355 1_554 S
C2 O4 1.185 . S
C2 O5 1.355 1_556 S
Dy3 O7 2.310 1_554 S
Dy3 O10 2.351 1_655 S
Dy3 O12 2.398 . S
Dy3 O13 2.491 1_554 S
Dy3 O14 2.403 . S
Dy3 O15 2.664 1_655 S
Dy3 O17 2.326 . S
O4 Dy0 2.398 . S
O4 C2 1.185 . S
O5 Dy0 2.491 1_554 S
O5 C2 1.355 1_554 S
O6 Dy0 2.403 . S
O6 C8 1.254 1_455 S
O7 Dy0 2.664 1_655 S
O7 Dy3 2.310 1_556 S
O7 C8 1.268 . S
C8 O6 1.254 1_655 S
C8 O7 1.268 . S
C9 O14 1.254 1_455 S
C9 O15 1.268 . S
O10 Dy3 2.351 1_455 S
O10 C18 1.249 1_554 S
O11 Dy0 2.326 . S
O11 C18 1.267 . S
O12 C1 1.185 . S
O12 Dy3 2.398 . S
O13 C1 1.355 1_556 S
O13 Dy3 2.491 1_556 S
O14 Dy3 2.403 . S
O14 C9 1.254 1_655 S
O15 Dy0 2.310 1_554 S
O15 Dy3 2.664 1_455 S
O15 C9 1.268 . S
O16 Dy0 2.351 1_654 S
O16 C19 1.249 . S
O17 Dy3 2.326 . S
O17 C19 1.267 . S
C18 O10 1.249 1_556 S
C18 O11 1.267 . S
C19 O16 1.249 . S
C19 O17 1.267 . S
Dy20 O24 2.398 . S
Dy20 O25 2.491 1_556 S
Dy20 O26 2.403 . S
Dy20 O27 2.664 . S
Dy20 O31 2.326 . S
Dy20 O35 2.310 1_556 S
Dy20 O36 2.351 1_556 S
C21 O32 1.185 . S
C21 O33 1.355 1_554 S
C22 O24 1.185 . S
C22 O25 1.355 1_556 S
Dy23 O27 2.310 1_554 S
Dy23 O30 2.351 . S
Dy23 O32 2.398 . S
Dy23 O33 2.491 1_554 S
Dy23 O34 2.403 . S
Dy23 O35 2.664 . S
Dy23 O37 2.326 . S
O24 Dy20 2.398 . S
O24 C22 1.185 . S
O25 Dy20 2.491 1_554 S
O25 C22 1.355 1_554 S
O26 Dy20 2.403 . S
O26 C28 1.254 . S
O27 Dy20 2.664 . S
O27 Dy23 2.310 1_556 S
O27 C28 1.268 . S
C28 O26 1.254 . S
C28 O27 1.268 . S
C29 O34 1.254 . S
C29 O35 1.268 . S
O30 Dy23 2.351 . S
O30 C38 1.249 1_554 S
O31 Dy20 2.326 . S
O31 C38 1.267 . S
O32 C21 1.185 . S
O32 Dy23 2.398 . S
O33 C21 1.355 1_556 S
O33 Dy23 2.491 1_556 S
O34 Dy23 2.403 . S
O34 C29 1.254 . S
O35 Dy20 2.310 1_554 S
O35 Dy23 2.664 . S
O35 C29 1.268 . S
O36 Dy20 2.351 1_554 S
O36 C39 1.249 . S
O37 Dy23 2.326 . S
O37 C39 1.267 . S
C38 O30 1.249 1_556 S
C38 O31 1.267 . S
C39 O36 1.249 . S
C39 O37 1.267 . S
Dy40 O44 2.398 . S
Dy40 O45 2.491 1_556 S
Dy40 O46 2.403 . S
Dy40 O47 2.664 1_565 S
Dy40 O51 2.326 . S
Dy40 O55 2.310 1_556 S
Dy40 O56 2.351 1_566 S
C41 O52 1.185 . S
C41 O53 1.355 1_554 S
C42 O44 1.185 . S
C42 O45 1.355 1_556 S
Dy43 O47 2.310 1_554 S
Dy43 O50 2.351 1_545 S
Dy43 O52 2.398 . S
Dy43 O53 2.491 1_554 S
Dy43 O54 2.403 . S
Dy43 O55 2.664 1_545 S
Dy43 O57 2.326 . S
O44 Dy40 2.398 . S
O44 C42 1.185 . S
O45 Dy40 2.491 1_554 S
O45 C42 1.355 1_554 S
O46 Dy40 2.403 . S
O46 C48 1.254 1_565 S
O47 Dy40 2.664 1_545 S
O47 Dy43 2.310 1_556 S
O47 C48 1.268 . S
C48 O46 1.254 1_545 S
C48 O47 1.268 . S
C49 O54 1.254 1_565 S
C49 O55 1.268 . S
O50 Dy43 2.351 1_565 S
O50 C58 1.249 1_554 S
O51 Dy40 2.326 . S
O51 C58 1.267 . S
O52 C41 1.185 . S
O52 Dy43 2.398 . S
O53 C41 1.355 1_556 S
O53 Dy43 2.491 1_556 S
O54 Dy43 2.403 . S
O54 C49 1.254 1_545 S
O55 Dy40 2.310 1_554 S
O55 Dy43 2.664 1_565 S
O55 C49 1.268 . S
O56 Dy40 2.351 1_544 S
O56 C59 1.249 . S
O57 Dy43 2.326 . S
O57 C59 1.267 . S
C58 O50 1.249 1_556 S
C58 O51 1.267 . S
C59 O56 1.249 . S
C59 O57 1.267 . S
Dy60 O64 2.398 . S
Dy60 O65 2.491 . S
Dy60 O66 2.403 . S
Dy60 O67 2.664 . S
Dy60 O71 2.326 . S
Dy60 O75 2.310 . S
Dy60 O76 2.351 . S
C61 O72 1.185 . S
C61 O73 1.355 . S
C62 O64 1.185 . S
C62 O65 1.355 . S
Dy63 O67 2.310 . S
Dy63 O70 2.351 . S
Dy63 O72 2.398 . S
Dy63 O73 2.491 . S
Dy63 O74 2.403 . S
Dy63 O75 2.664 . S
Dy63 O77 2.326 . S
O64 Dy60 2.398 . S
O64 C62 1.185 . S
O65 Dy60 2.491 . S
O65 C62 1.355 . S
O66 Dy60 2.403 . S
O66 C68 1.254 . S
O67 Dy60 2.664 . S
O67 Dy63 2.310 . S
O67 C68 1.268 . S
C68 O66 1.254 . S
C68 O67 1.268 . S
C69 O74 1.254 . S
C69 O75 1.268 . S
O70 Dy63 2.351 . S
O70 C78 1.249 . S
O71 Dy60 2.326 . S
O71 C78 1.267 . S
O72 C61 1.185 . S
O72 Dy63 2.398 . S
O73 C61 1.355 . S
O73 Dy63 2.491 . S
O74 Dy63 2.403 . S
O74 C69 1.254 . S
O75 Dy60 2.310 . S
O75 Dy63 2.664 . S
O75 C69 1.268 . S
O76 Dy60 2.351 . S
O76 C79 1.249 . S
O77 Dy63 2.326 . S
O77 C79 1.267 . S
C78 O70 1.249 . S
C78 O71 1.267 . S
C79 O76 1.249 . S
C79 O77 1.267 . S
Dy80 O84 2.398 . S
Dy80 O85 2.491 . S
Dy80 O86 2.403 . S
Dy80 O87 2.664 . S
Dy80 O91 2.326 . S
Dy80 O95 2.310 . S
Dy80 O96 2.351 . S
C81 O92 1.185 . S
C81 O93 1.355 . S
C82 O84 1.185 . S
C82 O85 1.355 . S
Dy83 O87 2.310 . S
Dy83 O90 2.351 1_565 S
Dy83 O92 2.398 . S
Dy83 O93 2.491 . S
Dy83 O94 2.403 . S
Dy83 O95 2.664 . S
Dy83 O97 2.326 . S
O84 Dy80 2.398 . S
O84 C82 1.185 . S
O85 Dy80 2.491 . S
O85 C82 1.355 . S
O86 Dy80 2.403 . S
O86 C88 1.254 . S
O87 Dy80 2.664 . S
O87 Dy83 2.310 . S
O87 C88 1.268 . S
C88 O86 1.254 . S
C88 O87 1.268 . S
C89 O94 1.254 . S
C89 O95 1.268 . S
O90 Dy83 2.351 1_545 S
O90 C98 1.249 1_545 S
O91 Dy80 2.326 . S
O91 C98 1.267 . S
O92 C81 1.185 . S
O92 Dy83 2.398 . S
O93 C81 1.355 . S
O93 Dy83 2.491 . S
O94 Dy83 2.403 . S
O94 C89 1.254 . S
O95 Dy80 2.310 . S
O95 Dy83 2.664 . S
O95 C89 1.268 . S
O96 Dy80 2.351 . S
O96 C99 1.249 . S
O97 Dy83 2.326 . S
O97 C99 1.267 . S
C98 O90 1.249 1_565 S
C98 O91 1.267 . S
C99 O96 1.249 . S
C99 O97 1.267 . S
Dy100 O104 2.398 . S
Dy100 O105 2.491 . S
Dy100 O106 2.403 . S
Dy100 O107 2.664 . S
Dy100 O111 2.326 . S
Dy100 O115 2.310 . S
Dy100 O116 2.351 . S
C101 O112 1.185 . S
C101 O113 1.355 . S
C102 O104 1.185 . S
C102 O105 1.355 . S
Dy103 O107 2.310 . S
Dy103 O110 2.351 . S
Dy103 O112 2.398 . S
Dy103 O113 2.491 . S
Dy103 O114 2.403 . S
Dy103 O115 2.664 . S
Dy103 O117 2.326 . S
O104 Dy100 2.398 . S
O104 C102 1.185 . S
O105 Dy100 2.491 . S
O105 C102 1.355 . S
O106 Dy100 2.403 . S
O106 C108 1.254 . S
O107 Dy100 2.664 . S
O107 Dy103 2.310 . S
O107 C108 1.268 . S
C108 O106 1.254 . S
C108 O107 1.268 . S
C109 O114 1.254 . S
C109 O115 1.268 . S
O110 Dy103 2.351 . S
O110 C118 1.249 . S
O111 Dy100 2.326 . S
O111 C118 1.267 . S
O112 C101 1.185 . S
O112 Dy103 2.398 . S
O113 C101 1.355 . S
O113 Dy103 2.491 . S
O114 Dy103 2.403 . S
O114 C109 1.254 . S
O115 Dy100 2.310 . S
O115 Dy103 2.664 . S
O115 C109 1.268 . S
O116 Dy100 2.351 . S
O116 C119 1.249 . S
O117 Dy103 2.326 . S
O117 C119 1.267 . S
C118 O110 1.249 . S
C118 O111 1.267 . S
C119 O116 1.249 . S
C119 O117 1.267 . S
Dy120 O124 2.398 . S
Dy120 O125 2.491 . S
Dy120 O126 2.403 . S
Dy120 O127 2.664 . S
Dy120 O131 2.326 . S
Dy120 O135 2.310 . S
Dy120 O136 2.351 . S
C121 O132 1.185 . S
C121 O133 1.355 . S
C122 O124 1.185 . S
C122 O125 1.355 . S
Dy123 O127 2.310 . S
Dy123 O130 2.351 . S
Dy123 O132 2.398 1_545 S
Dy123 O133 2.491 1_545 S
Dy123 O134 2.403 . S
Dy123 O135 2.664 . S
Dy123 O137 2.326 . S
O124 Dy120 2.398 . S
O124 C122 1.185 . S
O125 Dy120 2.491 . S
O125 C122 1.355 . S
O126 Dy120 2.403 . S
O126 C128 1.254 . S
O127 Dy120 2.664 . S
O127 Dy123 2.310 . S
O127 C128 1.268 . S
C128 O126 1.254 . S
C128 O127 1.268 . S
C129 O134 1.254 . S
C129 O135 1.268 . S
O130 Dy123 2.351 . S
O130 C138 1.249 . S
O131 Dy120 2.326 . S
O131 C138 1.267 . S
O132 C121 1.185 . S
O132 Dy123 2.398 1_565 S
O133 C121 1.355 . S
O133 Dy123 2.491 1_565 S
O134 Dy123 2.403 . S
O134 C129 1.254 . S
O135 Dy120 2.310 . S
O135 Dy123 2.664 . S
O135 C129 1.268 . S
O136 Dy120 2.351 . S
O136 C139 1.249 . S
O137 Dy123 2.326 . S
O137 C139 1.267 . S
C138 O130 1.249 . S
C138 O131 1.267 . S
C139 O136 1.249 . S
C139 O137 1.267 . S
Dy140 O144 2.398 . S
Dy140 O145 2.491 . S
Dy140 O146 2.403 . S
Dy140 O147 2.664 . S
Dy140 O151 2.326 . S
Dy140 O155 2.310 . S
Dy140 O156 2.351 . S
C141 O152 1.185 . S
C141 O153 1.355 . S
C142 O144 1.185 . S
C142 O145 1.355 . S
Dy143 O147 2.310 . S
Dy143 O150 2.351 . S
Dy143 O152 2.398 1_655 S
Dy143 O153 2.491 1_655 S
Dy143 O154 2.403 . S
Dy143 O155 2.664 . S
Dy143 O157 2.326 . S
O144 Dy140 2.398 . S
O144 C142 1.185 . S
O145 Dy140 2.491 . S
O145 C142 1.355 . S
O146 Dy140 2.403 . S
O146 C148 1.254 . S
O147 Dy140 2.664 . S
O147 Dy143 2.310 . S
O147 C148 1.268 . S
C148 O146 1.254 . S
C148 O147 1.268 . S
C149 O154 1.254 . S
C149 O155 1.268 . S
O150 Dy143 2.351 . S
O150 C158 1.249 . S
O151 Dy140 2.326 . S
O151 C158 1.267 . S
O152 C141 1.185 . S
O152 Dy143 2.398 1_455 S
O153 C141 1.355 . S
O153 Dy143 2.491 1_455 S
O154 Dy143 2.403 . S
O154 C149 1.254 . S
O155 Dy140 2.310 . S
O155 Dy143 2.664 . S
O155 C149 1.268 . S
O156 Dy140 2.351 . S
O156 C159 1.249 . S
O157 Dy143 2.326 . S
O157 C159 1.267 . S
C158 O150 1.249 . S
C158 O151 1.267 . S
C159 O156 1.249 . S
C159 O157 1.267 . S
Dy160 O164 2.398 . S
Dy160 O165 2.491 . S
Dy160 O166 2.403 . S
Dy160 O167 2.664 . S
Dy160 O171 2.326 . S
Dy160 O175 2.310 . S
Dy160 O176 2.351 . S
C161 O172 1.185 . S
C161 O173 1.355 . S
C162 O164 1.185 . S
C162 O165 1.355 . S
Dy163 O167 2.310 . S
Dy163 O170 2.351 . S
Dy163 O172 2.398 . S
Dy163 O173 2.491 . S
Dy163 O174 2.403 . S
Dy163 O175 2.664 . S
Dy163 O177 2.326 . S
O164 Dy160 2.398 . S
O164 C162 1.185 . S
O165 Dy160 2.491 . S
O165 C162 1.355 . S
O166 Dy160 2.403 . S
O166 C168 1.254 . S
O167 Dy160 2.664 . S
O167 Dy163 2.310 . S
O167 C168 1.268 . S
C168 O166 1.254 . S
C168 O167 1.268 . S
C169 O174 1.254 . S
C169 O175 1.268 . S
O170 Dy163 2.351 . S
O170 C178 1.249 . S
O171 Dy160 2.326 . S
O171 C178 1.267 . S
O172 C161 1.185 . S
O172 Dy163 2.398 . S
O173 C161 1.355 . S
O173 Dy163 2.491 . S
O174 Dy163 2.403 . S
O174 C169 1.254 . S
O175 Dy160 2.310 . S
O175 Dy163 2.664 . S
O175 C169 1.268 . S
O176 Dy160 2.351 . S
O176 C179 1.249 . S
O177 Dy163 2.326 . S
O177 C179 1.267 . S
C178 O170 1.249 . S
C178 O171 1.267 . S
C179 O176 1.249 . S
C179 O177 1.267 . S
C180 C181 1.387 1_554 S
C180 H184 0.950 . S
C180 C189 1.390 . S
C181 C180 1.387 1_556 S
C181 C183 1.387 . S
H182 C189 0.950 . S
C183 C181 1.387 . S
C183 C185 1.390 . S
C183 H187 0.950 . S
H184 C180 0.950 . S
C185 C183 1.390 . S
C185 C186 1.387 . S
C185 H188 0.950 . S
C186 C185 1.387 . S
C186 C189 1.387 1_556 S
H187 C183 0.950 . S
H188 C185 0.950 . S
C189 C180 1.390 . S
C189 H182 0.950 . S
C189 C186 1.387 1_554 S
C190 C191 1.387 1_554 S
C190 H194 0.950 . S
C190 C199 1.390 . S
C191 C190 1.387 1_556 S
C191 C193 1.387 . S
H192 C199 0.950 . S
C193 C191 1.387 . S
C193 C195 1.390 . S
C193 H197 0.950 . S
H194 C190 0.950 . S
C195 C193 1.390 . S
C195 C196 1.387 . S
C195 H198 0.950 . S
C196 C195 1.387 . S
C196 C199 1.387 1_556 S
H197 C193 0.950 . S
H198 C195 0.950 . S
C199 C190 1.390 . S
C199 H192 0.950 . S
C199 C196 1.387 1_554 S
C200 C201 1.387 1_554 S
C200 H204 0.950 . S
C200 C209 1.390 . S
C201 C200 1.387 1_556 S
C201 C203 1.387 . S
H202 C209 0.950 . S
C203 C201 1.387 . S
C203 C205 1.390 . S
C203 H207 0.950 . S
H204 C200 0.950 . S
C205 C203 1.390 . S
C205 C206 1.387 . S
C205 H208 0.950 . S
C206 C205 1.387 . S
C206 C209 1.387 1_556 S
H207 C203 0.950 . S
H208 C205 0.950 . S
C209 C200 1.390 . S
C209 H202 0.950 . S
C209 C206 1.387 1_554 S
C210 C211 1.387 1_556 S
C210 H214 0.950 . S
C210 C219 1.390 . S
C211 C210 1.387 1_554 S
C211 C213 1.387 . S
H212 C219 0.950 . S
C213 C211 1.387 . S
C213 C215 1.390 . S
C213 H217 0.950 . S
H214 C210 0.950 . S
C215 C213 1.390 . S
C215 C216 1.387 . S
C215 H218 0.950 . S
C216 C215 1.387 . S
C216 C219 1.387 1_554 S
H217 C213 0.950 . S
H218 C215 0.950 . S
C219 C210 1.390 . S
C219 H212 0.950 . S
C219 C216 1.387 1_556 S
C220 C221 1.387 1_556 S
C220 H224 0.950 . S
C220 C229 1.390 . S
C221 C220 1.387 1_554 S
C221 C223 1.387 . S
H222 C229 0.950 . S
C223 C221 1.387 . S
C223 C225 1.390 . S
C223 H227 0.950 . S
H224 C220 0.950 . S
C225 C223 1.390 . S
C225 C226 1.387 . S
C225 H228 0.950 . S
C226 C225 1.387 . S
C226 C229 1.387 1_554 S
H227 C223 0.950 . S
H228 C225 0.950 . S
C229 C220 1.390 . S
C229 H222 0.950 . S
C229 C226 1.387 1_556 S
C230 C231 1.387 1_556 S
C230 H234 0.950 . S
C230 C239 1.390 . S
C231 C230 1.387 1_554 S
C231 C233 1.387 . S
H232 C239 0.950 . S
C233 C231 1.387 . S
C233 C235 1.390 . S
C233 H237 0.950 . S
H234 C230 0.950 . S
C235 C233 1.390 . S
C235 C236 1.387 . S
C235 H238 0.950 . S
C236 C235 1.387 . S
C236 C239 1.387 1_554 S
H237 C233 0.950 . S
H238 C235 0.950 . S
C239 C230 1.390 . S
C239 H232 0.950 . S
C239 C236 1.387 1_556 S
C240 C241 1.387 . S
C240 H244 0.950 . S
C240 C249 1.390 . S
C241 C240 1.387 . S
C241 C243 1.387 . S
H242 C249 0.950 . S
C243 C241 1.387 . S
C243 C245 1.390 . S
C243 H247 0.950 . S
H244 C240 0.950 . S
C245 C243 1.390 . S
C245 C246 1.387 . S
C245 H248 0.950 . S
C246 C245 1.387 . S
C246 C249 1.387 . S
H247 C243 0.950 . S
H248 C245 0.950 . S
C249 C240 1.390 . S
C249 H242 0.950 . S
C249 C246 1.387 . S
C250 C251 1.387 . S
C250 H254 0.950 . S
C250 C259 1.390 . S
C251 C250 1.387 . S
C251 C253 1.387 . S
H252 C259 0.950 . S
C253 C251 1.387 . S
C253 C255 1.390 . S
C253 H257 0.950 . S
H254 C250 0.950 . S
C255 C253 1.390 . S
C255 C256 1.387 . S
C255 H258 0.950 . S
C256 C255 1.387 . S
C256 C259 1.387 . S
H257 C253 0.950 . S
H258 C255 0.950 . S
C259 C250 1.390 . S
C259 H252 0.950 . S
C259 C256 1.387 . S
C260 C261 1.387 . S
C260 H264 0.950 . S
C260 C269 1.390 . S
C261 C260 1.387 . S
C261 C263 1.387 . S
H262 C269 0.950 . S
C263 C261 1.387 . S
C263 C265 1.390 . S
C263 H267 0.950 . S
H264 C260 0.950 . S
C265 C263 1.390 . S
C265 C266 1.387 . S
C265 H268 0.950 . S
C266 C265 1.387 . S
C266 C269 1.387 . S
H267 C263 0.950 . S
H268 C265 0.950 . S
C269 C260 1.390 . S
C269 H262 0.950 . S
C269 C266 1.387 . S
C270 C271 1.387 . S
C270 H274 0.950 . S
C270 C279 1.390 . S
C271 C270 1.387 . S
C271 C273 1.387 . S
H272 C279 0.950 . S
C273 C271 1.387 . S
C273 C275 1.390 . S
C273 H277 0.950 . S
H274 C270 0.950 . S
C275 C273 1.390 . S
C275 C276 1.387 . S
C275 H278 0.950 . S
C276 C275 1.387 . S
C276 C279 1.387 . S
H277 C273 0.950 . S
H278 C275 0.950 . S
C279 C270 1.390 . S
C279 H272 0.950 . S
C279 C276 1.387 . S
C280 C281 1.387 . S
C280 H284 0.950 . S
C280 C289 1.390 . S
C281 C280 1.387 . S
C281 C283 1.387 . S
H282 C289 0.950 . S
C283 C281 1.387 . S
C283 C285 1.390 . S
C283 H287 0.950 . S
H284 C280 0.950 . S
C285 C283 1.390 . S
C285 C286 1.387 . S
C285 H288 0.950 . S
C286 C285 1.387 . S
C286 C289 1.387 . S
H287 C283 0.950 . S
H288 C285 0.950 . S
C289 C280 1.390 . S
C289 H282 0.950 . S
C289 C286 1.387 . S
C290 C291 1.387 . S
C290 H294 0.950 . S
C290 C299 1.390 . S
C291 C290 1.387 . S
C291 C293 1.387 . S
H292 C299 0.950 . S
C293 C291 1.387 . S
C293 C295 1.390 . S
C293 H297 0.950 . S
H294 C290 0.950 . S
C295 C293 1.390 . S
C295 C296 1.387 . S
C295 H298 0.950 . S
C296 C295 1.387 . S
C296 C299 1.387 . S
H297 C293 0.950 . S
H298 C295 0.950 . S
C299 C290 1.390 . S
C299 H292 0.950 . S
C299 C296 1.387 . S
C300 C301 1.387 . S
C300 H304 0.950 . S
C300 C309 1.390 . S
C301 C300 1.387 . S
C301 C303 1.387 . S
H302 C309 0.950 . S
C303 C301 1.387 . S
C303 C305 1.390 . S
C303 H307 0.950 . S
H304 C300 0.950 . S
C305 C303 1.390 . S
C305 C306 1.387 . S
C305 H308 0.950 . S
C306 C305 1.387 . S
C306 C309 1.387 . S
H307 C303 0.950 . S
H308 C305 0.950 . S
C309 C300 1.390 . S
C309 H302 0.950 . S
C309 C306 1.387 . S
C310 C311 1.387 . S
C310 H314 0.950 . S
C310 C319 1.390 . S
C311 C310 1.387 . S
C311 C313 1.387 . S
H312 C319 0.950 . S
C313 C311 1.387 . S
C313 C315 1.390 . S
C313 H317 0.950 . S
H314 C310 0.950 . S
C315 C313 1.390 . S
C315 C316 1.387 . S
C315 H318 0.950 . S
C316 C315 1.387 . S
C316 C319 1.387 . S
H317 C313 0.950 . S
H318 C315 0.950 . S
C319 C310 1.390 . S
C319 H312 0.950 . S
C319 C316 1.387 . S
C320 C321 1.387 . S
C320 H324 0.950 . S
C320 C329 1.390 . S
C321 C320 1.387 . S
C321 C323 1.387 . S
H322 C329 0.950 . S
C323 C321 1.387 . S
C323 C325 1.390 . S
C323 H327 0.950 . S
H324 C320 0.950 . S
C325 C323 1.390 . S
C325 C326 1.387 . S
C325 H328 0.950 . S
C326 C325 1.387 . S
C326 C329 1.387 . S
H327 C323 0.950 . S
H328 C325 0.950 . S
C329 C320 1.390 . S
C329 H322 0.950 . S
C329 C326 1.387 . S
C330 C331 1.387 . S
C330 H334 0.950 . S
C330 C339 1.390 1_565 S
C331 C330 1.387 . S
C331 C333 1.387 . S
H332 C339 0.950 . S
C333 C331 1.387 . S
C333 C335 1.390 1_565 S
C333 H337 0.950 . S
H334 C330 0.950 . S
C335 C333 1.390 1_545 S
C335 C336 1.387 . S
C335 H338 0.950 . S
C336 C335 1.387 . S
C336 C339 1.387 . S
H337 C333 0.950 . S
H338 C335 0.950 . S
C339 C330 1.390 1_545 S
C339 H332 0.950 . S
C339 C336 1.387 . S
C340 C341 1.387 . S
C340 H344 0.950 . S
C340 C349 1.390 1_655 S
C341 C340 1.387 . S
C341 C343 1.387 . S
H342 C349 0.950 . S
C343 C341 1.387 . S
C343 C345 1.390 1_655 S
C343 H347 0.950 . S
H344 C340 0.950 . S
C345 C343 1.390 1_455 S
C345 C346 1.387 . S
C345 H348 0.950 . S
C346 C345 1.387 . S
C346 C349 1.387 . S
H347 C343 0.950 . S
H348 C345 0.950 . S
C349 C340 1.390 1_455 S
C349 H342 0.950 . S
C349 C346 1.387 . S
C350 C351 1.387 . S
C350 H354 0.950 . S
C350 C359 1.390 . S
C351 C350 1.387 . S
C351 C353 1.387 . S
H352 C359 0.950 . S
C353 C351 1.387 . S
C353 C355 1.390 . S
C353 H357 0.950 . S
H354 C350 0.950 . S
C355 C353 1.390 . S
C355 C356 1.387 . S
C355 H358 0.950 . S
C356 C355 1.387 . S
C356 C359 1.387 . S
H357 C353 0.950 . S
H358 C355 0.950 . S
C359 C350 1.390 . S
C359 H352 0.950 . S
C359 C356 1.387 . S
C360 C361 1.387 . S
C360 H364 0.950 . S
C360 C369 1.390 . S
C361 C360 1.387 . S
C361 C363 1.387 . S
H362 C369 0.950 . S
C363 C361 1.387 . S
C363 C365 1.390 . S
C363 H367 0.950 . S
H364 C360 0.950 . S
C365 C363 1.390 . S
C365 C366 1.387 . S
C365 H368 0.950 . S
C366 C365 1.387 . S
C366 C369 1.387 . S
H367 C363 0.950 . S
H368 C365 0.950 . S
C369 C360 1.390 . S
C369 H362 0.950 . S
C369 C366 1.387 . S
C370 C371 1.387 . S
C370 H374 0.950 . S
C370 C379 1.390 . S
C371 C370 1.387 . S
C371 C373 1.387 . S
H372 C379 0.950 . S
C373 C371 1.387 . S
C373 C375 1.390 . S
C373 H377 0.950 . S
H374 C370 0.950 . S
C375 C373 1.390 . S
C375 C376 1.387 . S
C375 H378 0.950 . S
C376 C375 1.387 . S
C376 C379 1.387 . S
H377 C373 0.950 . S
H378 C375 0.950 . S
C379 C370 1.390 . S
C379 H372 0.950 . S
C379 C376 1.387 . S
C380 C381 1.387 . S
C380 H384 0.950 . S
C380 C389 1.390 . S
C381 C380 1.387 . S
C381 C383 1.387 . S
H382 C389 0.950 . S
C383 C381 1.387 . S
C383 C385 1.390 . S
C383 H387 0.950 1_565 S
H384 C380 0.950 . S
C385 C383 1.390 . S
C385 C386 1.387 . S
C385 H388 0.950 . S
C386 C385 1.387 . S
C386 C389 1.387 . S
H387 C383 0.950 1_545 S
H388 C385 0.950 . S
C389 C380 1.390 . S
C389 H382 0.950 . S
C389 C386 1.387 . S
C390 C391 1.387 . S
C390 H394 0.950 . S
C390 C399 1.390 . S
C391 C390 1.387 . S
C391 C393 1.387 . S
H392 C399 0.950 . S
C393 C391 1.387 . S
C393 C395 1.390 . S
C393 H397 0.950 1_545 S
H394 C390 0.950 . S
C395 C393 1.390 . S
C395 C396 1.387 . S
C395 H398 0.950 . S
C396 C395 1.387 . S
C396 C399 1.387 . S
H397 C393 0.950 1_565 S
H398 C395 0.950 . S
C399 C390 1.390 . S
C399 H392 0.950 . S
C399 C396 1.387 . S
C400 C401 1.387 . S
C400 H404 0.950 1_655 S
C400 C409 1.390 . S
C401 C400 1.387 . S
C401 C403 1.387 . S
H402 C409 0.950 . S
C403 C401 1.387 . S
C403 C405 1.390 . S
C403 H407 0.950 . S
H404 C400 0.950 1_455 S
C405 C403 1.390 . S
C405 C406 1.387 . S
C405 H408 0.950 . S
C406 C405 1.387 . S
C406 C409 1.387 . S
H407 C403 0.950 . S
H408 C405 0.950 . S
C409 C400 1.390 . S
C409 H402 0.950 . S
C409 C406 1.387 . S
C410 C411 1.387 . S
C410 H414 0.950 . S
C410 C419 1.390 . S
C411 C410 1.387 . S
C411 C413 1.387 . S
H412 C419 0.950 . S
C413 C411 1.387 . S
C413 C415 1.390 . S
C413 H417 0.950 . S
H414 C410 0.950 . S
C415 C413 1.390 . S
C415 C416 1.387 . S
C415 H418 0.950 . S
C416 C415 1.387 . S
C416 C419 1.387 . S
H417 C413 0.950 . S
H418 C415 0.950 . S
C419 C410 1.390 . S
C419 H412 0.950 . S
C419 C416 1.387 . S
C420 C421 1.387 . S
C420 H424 0.950 . S
C420 C429 1.390 . S
C421 C420 1.387 . S
C421 C423 1.387 . S
H422 C429 0.950 . S
C423 C421 1.387 . S
C423 C425 1.390 . S
C423 H427 0.950 . S
H424 C420 0.950 . S
C425 C423 1.390 . S
C425 C426 1.387 . S
C425 H428 0.950 . S
C426 C425 1.387 . S
C426 C429 1.387 . S
H427 C423 0.950 . S
H428 C425 0.950 . S
C429 C420 1.390 . S
C429 H422 0.950 . S
C429 C426 1.387 . S
C430 C431 1.387 . S
C430 H434 0.950 . S
C430 C439 1.390 1_565 S
C431 C430 1.387 . S
C431 C433 1.387 . S
H432 C439 0.950 . S
C433 C431 1.387 . S
C433 C435 1.390 1_565 S
C433 H437 0.950 . S
H434 C430 0.950 . S
C435 C433 1.390 1_545 S
C435 C436 1.387 . S
C435 H438 0.950 . S
C436 C435 1.387 . S
C436 C439 1.387 . S
H437 C433 0.950 . S
H438 C435 0.950 . S
C439 C430 1.390 1_545 S
C439 H432 0.950 . S
C439 C436 1.387 . S
C440 C441 1.387 . S
C440 H444 0.950 . S
C440 C449 1.390 1_655 S
C441 C440 1.387 . S
C441 C443 1.387 1_655 S
H442 C449 0.950 . S
C443 C441 1.387 1_455 S
C443 C445 1.390 . S
C443 H447 0.950 1_455 S
H444 C440 0.950 . S
C445 C443 1.390 . S
C445 C446 1.387 . S
C445 H448 0.950 . S
C446 C445 1.387 . S
C446 C449 1.387 . S
H447 C443 0.950 1_655 S
H448 C445 0.950 . S
C449 C440 1.390 1_455 S
C449 H442 0.950 . S
C449 C446 1.387 . S
C181 C22 1.380 . S
C186 C18 1.471 . S
C191 C42 1.380 . S
C196 C38 1.471 . S
C201 C58 1.471 . S
C206 C2 1.380 . S
C211 C41 1.492 . S
C216 C39 1.424 . S
C221 C59 1.424 . S
C226 C1 1.492 . S
C231 C19 1.424 . S
C236 C21 1.492 . S
C241 C78 1.471 . S
C246 C82 1.380 1_655 S
C251 C102 1.385 . S
C256 C98 1.474 1_545 S
C261 C118 1.474 1_655 S
C266 C62 1.385 1_545 S
C271 C99 1.428 . S
C276 C101 1.493 . S
C281 C119 1.428 . S
C286 C61 1.493 . S
C291 C81 1.492 . S
C296 C79 1.424 . S
C301 C142 1.385 . S
C306 C138 1.474 . S
C311 C158 1.471 . S
C316 C162 1.380 . S
C321 C178 1.471 . S
C326 C122 1.380 . S
C331 C161 1.493 . S
C336 C159 1.428 . S
C341 C179 1.424 . S
C346 C121 1.492 . S
C351 C139 1.424 . S
C356 C141 1.492 . S
C361 C108 2.242 . S
C366 C9 1.939 . S
C371 C68 2.241 . S
C376 C29 1.938 . S
C381 C49 1.937 . S
C386 C88 2.241 . S
C391 C48 2.241 . S
C396 C129 1.938 . S
C401 C8 2.242 . S
C406 C149 1.941 . S
C411 C169 1.941 . S
C416 C28 2.242 . S
C421 C69 1.939 . S
C426 C168 2.241 . S
C431 C89 1.938 . S
C436 C128 2.241 . S
C441 C148 2.241 . S
C446 C109 1.937 . S
