# Generated by pormake.
# Topology zni, (4)-cn, num edge types: 1
# Building blocks:
#     Node 0, Type 0, BuildingBlock: CEKHIL_clean_sbu_0, # of connection points: 4
#     Node 1, Type 0, BuildingBlock: CEKHIL_clean_sbu_0, # of connection points: 4
#     Node 2, Type 0, BuildingBlock: CEKHIL_clean_sbu_0, # of connection points: 4
#     Node 3, Type 0, BuildingBlock: CEKHIL_clean_sbu_0, # of connection points: 4
#     Node 4, Type 0, BuildingBlock: CEKHIL_clean_sbu_0, # of connection points: 4
#     Node 5, Type 0, BuildingBlock: CEKHIL_clean_sbu_0, # of connection points: 4
#     Node 6, Type 0, BuildingBlock: CEKHIL_clean_sbu_0, # of connection points: 4
#     Node 7, Type 0, BuildingBlock: CEKHIL_clean_sbu_0, # of connection points: 4
#     Node 8, Type 0, BuildingBlock: CEKHIL_clean_sbu_0, # of connection points: 4
#     Node 9, Type 0, BuildingBlock: CEKHIL_clean_sbu_0, # of connection points: 4
#     Node 10, Type 0, BuildingBlock: CEKHIL_clean_sbu_0, # of connection points: 4
#     Node 11, Type 0, BuildingBlock: CEKHIL_clean_sbu_0, # of connection points: 4
#     Node 12, Type 0, BuildingBlock: CEKHIL_clean_sbu_0, # of connection points: 4
#     Node 13, Type 0, BuildingBlock: CEKHIL_clean_sbu_0, # of connection points: 4
#     Node 14, Type 0, BuildingBlock: CEKHIL_clean_sbu_0, # of connection points: 4
#     Node 15, Type 0, BuildingBlock: CEKHIL_clean_sbu_0, # of connection points: 4
#     Node 16, Type 0, BuildingBlock: CEKHIL_clean_sbu_0, # of connection points: 4
#     Node 17, Type 0, BuildingBlock: CEKHIL_clean_sbu_0, # of connection points: 4
#     Node 18, Type 0, BuildingBlock: CEKHIL_clean_sbu_0, # of connection points: 4
#     Node 19, Type 0, BuildingBlock: CEKHIL_clean_sbu_0, # of connection points: 4
#     Node 20, Type 0, BuildingBlock: CEKHIL_clean_sbu_0, # of connection points: 4
#     Node 21, Type 0, BuildingBlock: CEKHIL_clean_sbu_0, # of connection points: 4
#     Node 22, Type 0, BuildingBlock: CEKHIL_clean_sbu_0, # of connection points: 4
#     Node 23, Type 0, BuildingBlock: CEKHIL_clean_sbu_0, # of connection points: 4
#     Node 24, Type 0, BuildingBlock: CEKHIL_clean_sbu_0, # of connection points: 4
#     Node 25, Type 0, BuildingBlock: CEKHIL_clean_sbu_0, # of connection points: 4
#     Node 26, Type 0, BuildingBlock: CEKHIL_clean_sbu_0, # of connection points: 4
#     Node 27, Type 0, BuildingBlock: CEKHIL_clean_sbu_0, # of connection points: 4
#     Node 28, Type 0, BuildingBlock: CEKHIL_clean_sbu_0, # of connection points: 4
#     Node 29, Type 0, BuildingBlock: CEKHIL_clean_sbu_0, # of connection points: 4
#     Node 30, Type 0, BuildingBlock: CEKHIL_clean_sbu_0, # of connection points: 4
#     Node 31, Type 0, BuildingBlock: CEKHIL_clean_sbu_0, # of connection points: 4
#     Edge 32, Type (0, 0), BuildingBlock: CIFDUS_clean_linker_0, # of connection points: 2
#     Edge 33, Type (0, 0), BuildingBlock: CIFDUS_clean_linker_0, # of connection points: 2
#     Edge 34, Type (0, 0), BuildingBlock: CIFDUS_clean_linker_0, # of connection points: 2
#     Edge 35, Type (0, 0), BuildingBlock: CIFDUS_clean_linker_0, # of connection points: 2
#     Edge 36, Type (0, 0), BuildingBlock: CIFDUS_clean_linker_0, # of connection points: 2
#     Edge 37, Type (0, 0), BuildingBlock: CIFDUS_clean_linker_0, # of connection points: 2
#     Edge 38, Type (0, 0), BuildingBlock: CIFDUS_clean_linker_0, # of connection points: 2
#     Edge 39, Type (0, 0), BuildingBlock: CIFDUS_clean_linker_0, # of connection points: 2
#     Edge 40, Type (0, 0), BuildingBlock: CIFDUS_clean_linker_0, # of connection points: 2
#     Edge 41, Type (0, 0), BuildingBlock: CIFDUS_clean_linker_0, # of connection points: 2
#     Edge 42, Type (0, 0), BuildingBlock: CIFDUS_clean_linker_0, # of connection points: 2
#     Edge 43, Type (0, 0), BuildingBlock: CIFDUS_clean_linker_0, # of connection points: 2
#     Edge 44, Type (0, 0), BuildingBlock: CIFDUS_clean_linker_0, # of connection points: 2
#     Edge 45, Type (0, 0), BuildingBlock: CIFDUS_clean_linker_0, # of connection points: 2
#     Edge 46, Type (0, 0), BuildingBlock: CIFDUS_clean_linker_0, # of connection points: 2
#     Edge 47, Type (0, 0), BuildingBlock: CIFDUS_clean_linker_0, # of connection points: 2
#     Edge 48, Type (0, 0), BuildingBlock: CIFDUS_clean_linker_0, # of connection points: 2
#     Edge 49, Type (0, 0), BuildingBlock: CIFDUS_clean_linker_0, # of connection points: 2
#     Edge 50, Type (0, 0), BuildingBlock: CIFDUS_clean_linker_0, # of connection points: 2
#     Edge 51, Type (0, 0), BuildingBlock: CIFDUS_clean_linker_0, # of connection points: 2
#     Edge 52, Type (0, 0), BuildingBlock: CIFDUS_clean_linker_0, # of connection points: 2
#     Edge 53, Type (0, 0), BuildingBlock: CIFDUS_clean_linker_0, # of connection points: 2
#     Edge 54, Type (0, 0), BuildingBlock: CIFDUS_clean_linker_0, # of connection points: 2
#     Edge 55, Type (0, 0), BuildingBlock: CIFDUS_clean_linker_0, # of connection points: 2
#     Edge 56, Type (0, 0), BuildingBlock: CIFDUS_clean_linker_0, # of connection points: 2
#     Edge 57, Type (0, 0), BuildingBlock: CIFDUS_clean_linker_0, # of connection points: 2
#     Edge 58, Type (0, 0), BuildingBlock: CIFDUS_clean_linker_0, # of connection points: 2
#     Edge 59, Type (0, 0), BuildingBlock: CIFDUS_clean_linker_0, # of connection points: 2
#     Edge 60, Type (0, 0), BuildingBlock: CIFDUS_clean_linker_0, # of connection points: 2
#     Edge 61, Type (0, 0), BuildingBlock: CIFDUS_clean_linker_0, # of connection points: 2
#     Edge 62, Type (0, 0), BuildingBlock: CIFDUS_clean_linker_0, # of connection points: 2
#     Edge 63, Type (0, 0), BuildingBlock: CIFDUS_clean_linker_0, # of connection points: 2
#     Edge 64, Type (0, 0), BuildingBlock: CIFDUS_clean_linker_0, # of connection points: 2
#     Edge 65, Type (0, 0), BuildingBlock: CIFDUS_clean_linker_0, # of connection points: 2
#     Edge 66, Type (0, 0), BuildingBlock: CIFDUS_clean_linker_0, # of connection points: 2
#     Edge 67, Type (0, 0), BuildingBlock: CIFDUS_clean_linker_0, # of connection points: 2
#     Edge 68, Type (0, 0), BuildingBlock: CIFDUS_clean_linker_0, # of connection points: 2
#     Edge 69, Type (0, 0), BuildingBlock: CIFDUS_clean_linker_0, # of connection points: 2
#     Edge 70, Type (0, 0), BuildingBlock: CIFDUS_clean_linker_0, # of connection points: 2
#     Edge 71, Type (0, 0), BuildingBlock: CIFDUS_clean_linker_0, # of connection points: 2
#     Edge 72, Type (0, 0), BuildingBlock: CIFDUS_clean_linker_0, # of connection points: 2
#     Edge 73, Type (0, 0), BuildingBlock: CIFDUS_clean_linker_0, # of connection points: 2
#     Edge 74, Type (0, 0), BuildingBlock: CIFDUS_clean_linker_0, # of connection points: 2
#     Edge 75, Type (0, 0), BuildingBlock: CIFDUS_clean_linker_0, # of connection points: 2
#     Edge 76, Type (0, 0), BuildingBlock: CIFDUS_clean_linker_0, # of connection points: 2
#     Edge 77, Type (0, 0), BuildingBlock: CIFDUS_clean_linker_0, # of connection points: 2
#     Edge 78, Type (0, 0), BuildingBlock: CIFDUS_clean_linker_0, # of connection points: 2
#     Edge 79, Type (0, 0), BuildingBlock: CIFDUS_clean_linker_0, # of connection points: 2
#     Edge 80, Type (0, 0), BuildingBlock: CIFDUS_clean_linker_0, # of connection points: 2
#     Edge 81, Type (0, 0), BuildingBlock: CIFDUS_clean_linker_0, # of connection points: 2
#     Edge 82, Type (0, 0), BuildingBlock: CIFDUS_clean_linker_0, # of connection points: 2
#     Edge 83, Type (0, 0), BuildingBlock: CIFDUS_clean_linker_0, # of connection points: 2
#     Edge 84, Type (0, 0), BuildingBlock: CIFDUS_clean_linker_0, # of connection points: 2
#     Edge 85, Type (0, 0), BuildingBlock: CIFDUS_clean_linker_0, # of connection points: 2
#     Edge 86, Type (0, 0), BuildingBlock: CIFDUS_clean_linker_0, # of connection points: 2
#     Edge 87, Type (0, 0), BuildingBlock: CIFDUS_clean_linker_0, # of connection points: 2
#     Edge 88, Type (0, 0), BuildingBlock: CIFDUS_clean_linker_0, # of connection points: 2
#     Edge 89, Type (0, 0), BuildingBlock: CIFDUS_clean_linker_0, # of connection points: 2
#     Edge 90, Type (0, 0), BuildingBlock: CIFDUS_clean_linker_0, # of connection points: 2
#     Edge 91, Type (0, 0), BuildingBlock: CIFDUS_clean_linker_0, # of connection points: 2
#     Edge 92, Type (0, 0), BuildingBlock: CIFDUS_clean_linker_0, # of connection points: 2
#     Edge 93, Type (0, 0), BuildingBlock: CIFDUS_clean_linker_0, # of connection points: 2
#     Edge 94, Type (0, 0), BuildingBlock: CIFDUS_clean_linker_0, # of connection points: 2
#     Edge 95, Type (0, 0), BuildingBlock: CIFDUS_clean_linker_0, # of connection points: 2
# Relax obj value: 0.225
# Max RMSD: 0.113
# Mean RMSD: 0.113
data_MOF--net-zni--node1-CEKHIL_clean_sbu_0--edge1-CIFDUS_clean_linker_0
_symmetry_space_group_name_H-M    P1
_symmetry_Int_Tables_number       1
_symmetry_cell_setting            triclinic
loop_
_symmetry_equiv_pos_as_xyz
'x, y, z'
_cell_length_a     50.820768
_cell_length_b     50.832689
_cell_length_c     25.734904
_cell_angle_alpha  90.022637
_cell_angle_beta   90.038059
_cell_angle_gamma 89.99081
loop_
_atom_site_label
_atom_site_type_symbol
_atom_site_fract_x
_atom_site_fract_y
_atom_site_fract_z
_atom_type_partial_charge
Co0 Co 0.09285 0.08461 0.40897 0.0
O1 O 0.08679 0.04745 0.4011 0.0
O2 O 0.09883 0.07468 0.338 0.0
C3 C 0.11685 0.08218 0.482 0.0
O4 O 0.10222 0.12311 0.40133 0.0
Co5 Co 0.07284 0.11676 0.50302 0.0
O6 O 0.09609 0.14511 0.47585 0.0
C7 C 0.03577 0.10206 0.4193 0.0
C8 C 0.09286 0.05095 0.35252 0.0
C9 C 0.1045 0.14391 0.42927 0.0
O10 O 0.0549 0.09245 0.39264 0.0
O11 O 0.03857 0.11086 0.46564 0.0
O12 O 0.12786 0.07807 0.43716 0.0
O13 O 0.09164 0.08535 0.48167 0.0
Co14 Co 0.16513 0.8427 0.64951 0.0
O15 O 0.20201 0.8353 0.64179 0.0
O16 O 0.17573 0.84947 0.57886 0.0
C17 C 0.16875 0.86506 0.72447 0.0
O18 O 0.12673 0.85344 0.64266 0.0
Co19 Co 0.13289 0.8216 0.74276 0.0
O20 O 0.1047 0.84525 0.71648 0.0
C21 C 0.14674 0.78584 0.65644 0.0
C22 C 0.19911 0.84212 0.5935 0.0
C23 C 0.10589 0.85492 0.67084 0.0
O24 O 0.15605 0.80535 0.63049 0.0
O25 O 0.1386 0.7879 0.70338 0.0
O26 O 0.17299 0.87694 0.68056 0.0
O27 O 0.16448 0.84009 0.72197 0.0
Co28 Co 0.4032 0.90771 0.88864 0.0
O29 O 0.40928 0.94461 0.87703 0.0
O30 O 0.39642 0.91594 0.81709 0.0
C31 C 0.38002 0.91119 0.96255 0.0
O32 O 0.39396 0.86901 0.88521 0.0
Co33 Co 0.42561 0.87834 0.98413 0.0
O34 O 0.40261 0.84886 0.96085 0.0
C35 C 0.46082 0.89157 0.89702 0.0
C36 C 0.40309 0.93989 0.82887 0.0
C37 C 0.39293 0.84881 0.91514 0.0
O38 O 0.44089 0.89967 0.87082 0.0
O39 O 0.45926 0.88424 0.94454 0.0
O40 O 0.36855 0.91473 0.91791 0.0
O41 O 0.4053 0.90857 0.96133 0.0
Co42 Co 0.33719 0.16077 0.17069 0.0
O43 O 0.29983 0.16409 0.16246 0.0
O44 O 0.32771 0.1533 0.09963 0.0
C45 C 0.33653 0.13703 0.24405 0.0
O46 O 0.37654 0.15416 0.16548 0.0
Co47 Co 0.36556 0.18542 0.26535 0.0
O48 O 0.39504 0.16227 0.24319 0.0
C49 C 0.35047 0.21942 0.17742 0.0
C50 C 0.30358 0.15757 0.11426 0.0
C51 C 0.39614 0.15311 0.19712 0.0
O52 O 0.34237 0.19901 0.15257 0.0
O53 O 0.35879 0.21846 0.22439 0.0
O54 O 0.33309 0.12563 0.1994 0.0
O55 O 0.33719 0.16246 0.24342 0.0
Co56 Co 0.08918 0.91438 0.06396 0.0
O57 O 0.0814 0.95124 0.07214 0.0
O58 O 0.10042 0.92581 0.13143 0.0
C59 C 0.10602 0.91735 0.98345 0.0
O60 O 0.10145 0.87666 0.07058 0.0
Co61 Co 0.06399 0.87902 0.97984 0.0
O62 O 0.08911 0.85144 0.00349 0.0
C63 C 0.03295 0.89524 0.07156 0.0
C64 C 0.0915 0.94882 0.11834 0.0
C65 C 0.10165 0.85472 0.04589 0.0
O66 O 0.05372 0.90473 0.09301 0.0
O67 O 0.03251 0.88638 0.02495 0.0
O68 O 0.12065 0.92265 0.0236 0.0
O69 O 0.08163 0.91224 0.99288 0.0
Co70 Co 0.3379 0.83368 0.30812 0.0
O71 O 0.30052 0.82788 0.31428 0.0
O72 O 0.32735 0.83803 0.37926 0.0
C73 C 0.33625 0.85969 0.23763 0.0
O74 O 0.3764 0.84253 0.31808 0.0
Co75 Co 0.37077 0.81625 0.21295 0.0
O76 O 0.39922 0.83812 0.24409 0.0
C77 C 0.35497 0.77685 0.2915 0.0
C78 C 0.3036 0.833 0.36342 0.0
C79 C 0.39756 0.8453 0.29142 0.0
O80 O 0.34541 0.79518 0.32047 0.0
O81 O 0.36395 0.78102 0.24573 0.0
O82 O 0.33189 0.86949 0.28346 0.0
O83 O 0.33924 0.8345 0.23536 0.0
Co84 Co 0.41965 0.09548 0.58272 0.0
O85 O 0.42451 0.05877 0.5978 0.0
O86 O 0.41566 0.0897 0.65616 0.0
C87 C 0.3928 0.09061 0.51425 0.0
O88 O 0.41168 0.13452 0.58237 0.0
Co89 Co 0.43794 0.12092 0.47972 0.0
O90 O 0.41518 0.1508 0.50166 0.0
C91 C 0.47705 0.10964 0.56163 0.0
C92 C 0.41983 0.06501 0.6459 0.0
C93 C 0.40813 0.15299 0.54899 0.0
O94 O 0.45841 0.10251 0.59239 0.0
O95 O 0.47315 0.11583 0.51399 0.0
O96 O 0.38352 0.089 0.56116 0.0
O97 O 0.41811 0.0922 0.51029 0.0
Co98 Co 0.1619 0.1492 0.8351 0.0
O99 O 0.19926 0.15505 0.83909 0.0
O100 O 0.17383 0.14263 0.90472 0.0
C101 C 0.16224 0.1258 0.76125 0.0
O102 O 0.12342 0.14014 0.84628 0.0
Co103 Co 0.12795 0.17072 0.74485 0.0
O104 O 0.09989 0.14777 0.77406 0.0
C105 C 0.14543 0.20671 0.82807 0.0
C106 C 0.19714 0.14878 0.88785 0.0
C107 C 0.10193 0.13871 0.82006 0.0
O108 O 0.15489 0.18707 0.85342 0.0
O109 O 0.13575 0.20461 0.78226 0.0
O110 O 0.16738 0.11436 0.80526 0.0
O111 O 0.15936 0.15102 0.76265 0.0
Co112 Co 0.9017 0.90302 0.59773 0.0
O113 O 0.9053 0.93946 0.61577 0.0
O114 O 0.89548 0.90747 0.67111 0.0
C115 C 0.877 0.90871 0.52632 0.0
O116 O 0.89493 0.86374 0.59352 0.0
Co117 Co 0.92443 0.8805 0.49552 0.0
O118 O 0.90291 0.849 0.51283 0.0
C119 C 0.96024 0.89171 0.58289 0.0
C120 C 0.89981 0.93234 0.66301 0.0
C121 C 0.89401 0.84563 0.55865 0.0
O122 O 0.94024 0.89693 0.61171 0.0
O123 O 0.95828 0.88666 0.53427 0.0
O124 O 0.86615 0.90901 0.57204 0.0
O125 O 0.90241 0.90775 0.52556 0.0
Co126 Co 0.83288 0.15437 0.34182 0.0
O127 O 0.7954 0.15948 0.34723 0.0
O128 O 0.82181 0.14761 0.41184 0.0
C129 C 0.83269 0.13101 0.2678 0.0
O130 O 0.87158 0.14607 0.35178 0.0
Co131 Co 0.86567 0.17691 0.25102 0.0
O132 O 0.89428 0.15408 0.27874 0.0
C133 C 0.84852 0.21221 0.33552 0.0
C134 C 0.79824 0.15348 0.39601 0.0
C135 C 0.8928 0.14494 0.32476 0.0
O136 O 0.83932 0.19231 0.36038 0.0
O137 O 0.85801 0.21053 0.28952 0.0
O138 O 0.82793 0.11947 0.31187 0.0
O139 O 0.83489 0.15631 0.26923 0.0
Co140 Co 0.58245 0.08874 0.07388 0.0
O141 O 0.57278 0.05315 0.09133 0.0
O142 O 0.58651 0.08353 0.14717 0.0
C143 C 0.6068 0.0786 0.00397 0.0
O144 O 0.59578 0.12615 0.07292 0.0
Co145 Co 0.56871 0.11725 0.97154 0.0
O146 O 0.59271 0.14581 0.99542 0.0
C147 C 0.52779 0.10991 0.05209 0.0
C148 C 0.57883 0.05956 0.13884 0.0
C149 C 0.60039 0.1456 0.04254 0.0
O150 O 0.54515 0.10109 0.0841 0.0
O151 O 0.53295 0.11536 0.00457 0.0
O152 O 0.61693 0.07681 0.05026 0.0
O153 O 0.58223 0.08484 0.00159 0.0
Co154 Co 0.6645 0.84509 0.81874 0.0
O155 O 0.70166 0.83948 0.82839 0.0
O156 O 0.67426 0.85501 0.88814 0.0
C157 C 0.66777 0.86448 0.74054 0.0
O158 O 0.62593 0.85472 0.82438 0.0
Co159 Co 0.63221 0.82043 0.72946 0.0
O160 O 0.60295 0.84344 0.7535 0.0
C161 C 0.64816 0.78769 0.81916 0.0
C162 C 0.698 0.84808 0.87542 0.0
C163 C 0.60456 0.85455 0.79777 0.0
O164 O 0.65674 0.80823 0.84295 0.0
O165 O 0.63973 0.78817 0.77223 0.0
O166 O 0.67126 0.87823 0.7826 0.0
O167 O 0.66405 0.83959 0.74676 0.0
Co168 Co 0.90067 0.08759 0.9141 0.0
O169 O 0.90442 0.05032 0.90146 0.0
O170 O 0.89307 0.0802 0.84273 0.0
C171 C 0.87757 0.08517 0.98827 0.0
O172 O 0.89346 0.12664 0.91065 0.0
Co173 Co 0.92407 0.11657 0.00892 0.0
O174 O 0.90308 0.14742 0.985 0.0
C175 C 0.95889 0.10133 0.92215 0.0
C176 C 0.89803 0.05577 0.85366 0.0
C177 C 0.89345 0.1473 0.93928 0.0
O178 O 0.93874 0.09361 0.89606 0.0
O179 O 0.95744 0.10925 0.96933 0.0
O180 O 0.86581 0.08242 0.94371 0.0
O181 O 0.90295 0.08666 0.98689 0.0
Co182 Co 0.66374 0.16579 0.68885 0.0
O183 O 0.70029 0.17315 0.6769 0.0
O184 O 0.67206 0.15972 0.61673 0.0
C185 C 0.6702 0.14232 0.7617 0.0
O186 O 0.62525 0.1549 0.68634 0.0
Co187 Co 0.63449 0.18455 0.78768 0.0
O188 O 0.60615 0.16031 0.7642 0.0
C189 C 0.64639 0.22244 0.70363 0.0
C190 C 0.69601 0.16625 0.62905 0.0
C191 C 0.60572 0.15187 0.71756 0.0
O192 O 0.65414 0.20358 0.67391 0.0
O193 O 0.64003 0.21909 0.75134 0.0
O194 O 0.67267 0.13112 0.71656 0.0
O195 O 0.66567 0.16727 0.7613 0.0
Co196 Co 0.59387 0.90933 0.39852 0.0
O197 O 0.5847 0.94518 0.38242 0.0
O198 O 0.60291 0.91673 0.32771 0.0
C199 C 0.6127 0.91732 0.47592 0.0
O200 O 0.60703 0.87178 0.39935 0.0
Co201 Co 0.57164 0.87872 0.49234 0.0
O202 O 0.59675 0.85036 0.47256 0.0
C203 C 0.53805 0.88825 0.40052 0.0
C204 C 0.59335 0.94005 0.33592 0.0
C205 C 0.60828 0.8514 0.42866 0.0
O206 O 0.55801 0.89729 0.37564 0.0
O207 O 0.53893 0.88191 0.44867 0.0
O208 O 0.62613 0.92056 0.43338 0.0
O209 O 0.58821 0.9113 0.47031 0.0
Co210 Co 0.83225 0.85026 0.16891 0.0
O211 O 0.795 0.84431 0.16098 0.0
O212 O 0.82208 0.85758 0.09863 0.0
C213 C 0.83024 0.87273 0.24386 0.0
O214 O 0.87067 0.85978 0.1611 0.0
Co215 Co 0.86528 0.82872 0.26044 0.0
O216 O 0.89415 0.85124 0.23282 0.0
C217 C 0.84935 0.79302 0.17534 0.0
C218 C 0.79841 0.85118 0.11277 0.0
C219 C 0.89214 0.86087 0.18728 0.0
O220 O 0.84003 0.81264 0.14967 0.0
O221 O 0.85825 0.79506 0.22176 0.0
O222 O 0.82585 0.88469 0.20004 0.0
O223 O 0.83348 0.84758 0.2414 0.0
Co224 Co 0.6041 0.58517 0.91449 0.0
O225 O 0.59927 0.54765 0.91093 0.0
O226 O 0.6106 0.57328 0.84481 0.0
C227 C 0.62779 0.58549 0.9879 0.0
O228 O 0.61209 0.62381 0.90283 0.0
Co229 Co 0.58238 0.6189 0.00488 0.0
O230 O 0.60433 0.64751 0.97475 0.0
C231 C 0.54623 0.60008 0.92298 0.0
C232 C 0.60522 0.54985 0.86203 0.0
C233 C 0.61316 0.64545 0.92858 0.0
O234 O 0.5659 0.59112 0.89701 0.0
O235 O 0.54847 0.60994 0.9686 0.0
O236 O 0.63924 0.58067 0.94376 0.0
O237 O 0.60252 0.58781 0.98685 0.0
Co238 Co 0.65254 0.34415 0.1564 0.0
O239 O 0.68876 0.3395 0.13824 0.0
O240 O 0.65803 0.35607 0.08622 0.0
C241 C 0.65984 0.36171 0.23499 0.0
O242 O 0.61378 0.35307 0.16188 0.0
Co243 Co 0.62731 0.31544 0.24994 0.0
O244 O 0.59706 0.33958 0.23799 0.0
C245 C 0.63817 0.28627 0.15295 0.0
C246 C 0.68243 0.34924 0.09329 0.0
C247 C 0.59502 0.35211 0.19529 0.0
O248 O 0.644 0.30791 0.12989 0.0
O249 O 0.63323 0.28484 0.20169 0.0
O250 O 0.66083 0.37646 0.19379 0.0
O251 O 0.65666 0.33685 0.22712 0.0
Co252 Co 0.90422 0.41254 0.42428 0.0
O253 O 0.91262 0.44927 0.41855 0.0
O254 O 0.89582 0.42457 0.35552 0.0
C255 C 0.88424 0.41615 0.5015 0.0
O256 O 0.89191 0.37485 0.41514 0.0
Co257 Co 0.92531 0.37707 0.51222 0.0
O258 O 0.90012 0.3503 0.48561 0.0
C259 C 0.96036 0.39256 0.42568 0.0
C260 C 0.90408 0.44746 0.37111 0.0
C261 C 0.8899 0.35326 0.44077 0.0
O262 O 0.94074 0.40267 0.40122 0.0
O263 O 0.95864 0.38344 0.47197 0.0
O264 O 0.87122 0.42112 0.45916 0.0
O265 O 0.90883 0.4105 0.49625 0.0
Co266 Co 0.84137 0.65378 0.67129 0.0
O267 O 0.80486 0.65766 0.65343 0.0
O268 O 0.83705 0.64921 0.5976 0.0
C269 C 0.83545 0.62758 0.74031 0.0
O270 O 0.88063 0.64697 0.67458 0.0
Co271 Co 0.86446 0.67295 0.77615 0.0
O272 O 0.89614 0.6524 0.75551 0.0
C273 C 0.85213 0.71147 0.69378 0.0
C274 C 0.81211 0.65306 0.60587 0.0
C275 C 0.8991 0.64503 0.70852 0.0
O276 O 0.84745 0.69266 0.66159 0.0
O277 O 0.85694 0.70768 0.74207 0.0
O278 O 0.83538 0.61761 0.69378 0.0
O279 O 0.83666 0.65288 0.74315 0.0
Co280 Co 0.58836 0.4092 0.58158 0.0
O281 O 0.58258 0.4461 0.59199 0.0
O282 O 0.60007 0.41908 0.65025 0.0
C283 C 0.60593 0.41332 0.50212 0.0
O284 O 0.59853 0.37052 0.58393 0.0
Co285 Co 0.56084 0.37866 0.49281 0.0
O286 O 0.58635 0.35032 0.51015 0.0
C287 C 0.53095 0.39272 0.58739 0.0
C288 C 0.59282 0.4428 0.63772 0.0
C289 C 0.59854 0.35044 0.55345 0.0
O290 O 0.5522 0.40088 0.60928 0.0
O291 O 0.52995 0.3852 0.5399 0.0
O292 O 0.62056 0.41659 0.54304 0.0
O293 O 0.58117 0.40961 0.51031 0.0
Co294 Co 0.83826 0.34834 0.8463 0.0
O295 O 0.80176 0.34147 0.86084 0.0
O296 O 0.83069 0.3583 0.91647 0.0
C297 C 0.83138 0.36707 0.76859 0.0
O298 O 0.87645 0.35945 0.84704 0.0
Co299 Co 0.86898 0.32532 0.75337 0.0
O300 O 0.89835 0.34892 0.77458 0.0
C301 C 0.8566 0.2918 0.84437 0.0
C302 C 0.8068 0.3506 0.90701 0.0
C303 C 0.89726 0.36003 0.8189 0.0
O304 O 0.84821 0.31191 0.86977 0.0
O305 O 0.86348 0.29281 0.79651 0.0
O306 O 0.82894 0.38096 0.81075 0.0
O307 O 0.83658 0.34244 0.77463 0.0
Co308 Co 0.90219 0.59073 0.09552 0.0
O309 O 0.90845 0.55358 0.1004 0.0
O310 O 0.89555 0.57928 0.16543 0.0
C311 C 0.87897 0.58912 0.02164 0.0
O312 O 0.89257 0.62915 0.10523 0.0
Co313 Co 0.92356 0.624 0.00451 0.0
O314 O 0.90006 0.65203 0.03221 0.0
C315 C 0.95953 0.60772 0.08866 0.0
C316 C 0.90181 0.55592 0.14889 0.0
C317 C 0.89087 0.65032 0.07815 0.0
O318 O 0.93989 0.59837 0.1141 0.0
O319 O 0.95751 0.61688 0.04245 0.0
O320 O 0.86753 0.58443 0.0658 0.0
O321 O 0.90416 0.5925 0.023 0.0
Co322 Co 0.66133 0.6494 0.34554 0.0
O323 O 0.69775 0.65375 0.36329 0.0
O324 O 0.66629 0.64159 0.41805 0.0
C325 C 0.66734 0.6267 0.27177 0.0
O326 O 0.6222 0.64179 0.3414 0.0
Co327 Co 0.63777 0.67397 0.24576 0.0
O328 O 0.60648 0.65198 0.26238 0.0
C329 C 0.64839 0.70775 0.33652 0.0
C330 C 0.69096 0.6471 0.41014 0.0
C331 C 0.60365 0.64187 0.30736 0.0
O332 O 0.65409 0.68725 0.36345 0.0
O333 O 0.64347 0.7069 0.28772 0.0
O334 O 0.66826 0.61474 0.31637 0.0
O335 O 0.66567 0.65205 0.27352 0.0
Co336 Co 0.40692 0.41869 0.07944 0.0
O337 O 0.41598 0.45537 0.08497 0.0
O338 O 0.40312 0.42993 0.15024 0.0
C339 C 0.38214 0.42319 0.00787 0.0
O340 O 0.39484 0.38097 0.08988 0.0
Co341 Co 0.42155 0.38396 0.9851 0.0
O342 O 0.3984 0.3569 0.01724 0.0
C343 C 0.46227 0.3989 0.06189 0.0
C344 C 0.4105 0.45299 0.13405 0.0
C345 C 0.39109 0.35957 0.06431 0.0
O346 O 0.44456 0.40823 0.09248 0.0
O347 O 0.45732 0.3907 0.01582 0.0
O348 O 0.37197 0.42788 0.05327 0.0
O349 O 0.4068 0.41732 0.00696 0.0
Co350 Co 0.34151 0.64488 0.84527 0.0
O351 O 0.30429 0.6506 0.84974 0.0
O352 O 0.33006 0.63889 0.91555 0.0
C353 C 0.34006 0.621 0.7722 0.0
O354 O 0.38017 0.63609 0.85525 0.0
Co355 Co 0.37429 0.66541 0.75235 0.0
O356 O 0.40263 0.64274 0.78135 0.0
C357 C 0.35707 0.70229 0.8344 0.0
C358 C 0.30664 0.64464 0.89856 0.0
C359 C 0.40127 0.63431 0.82791 0.0
O360 O 0.34849 0.68296 0.86178 0.0
O361 O 0.36598 0.69958 0.78814 0.0
O362 O 0.33576 0.60975 0.81674 0.0
O363 O 0.34314 0.64617 0.77294 0.0
Co364 Co 0.08714 0.58543 0.57871 0.0
O365 O 0.07924 0.54867 0.58652 0.0
O366 O 0.09222 0.57526 0.64996 0.0
C367 C 0.1114 0.58065 0.50661 0.0
O368 O 0.09839 0.62353 0.58616 0.0
Co369 Co 0.07036 0.61808 0.48265 0.0
O370 O 0.09376 0.64584 0.51154 0.0
C371 C 0.0311 0.60409 0.56299 0.0
C372 C 0.08563 0.55173 0.63503 0.0
C373 C 0.10167 0.6443 0.55844 0.0
O374 O 0.04936 0.59514 0.59283 0.0
O375 O 0.03525 0.61184 0.51634 0.0
O376 O 0.12204 0.57678 0.55187 0.0
O377 O 0.08655 0.5857 0.50614 0.0
Co378 Co 0.1632 0.34393 0.34264 0.0
O379 O 0.20041 0.33761 0.34871 0.0
O380 O 0.17413 0.34995 0.41317 0.0
C381 C 0.1648 0.3675 0.26901 0.0
O382 O 0.12472 0.35334 0.35173 0.0
Co383 Co 0.13025 0.32318 0.25006 0.0
O384 O 0.10186 0.34597 0.27855 0.0
C385 C 0.14607 0.28676 0.33385 0.0
C386 C 0.19757 0.34343 0.39755 0.0
C387 C 0.10349 0.35488 0.32474 0.0
O388 O 0.15549 0.30614 0.36001 0.0
O389 O 0.13707 0.28915 0.28758 0.0
O390 O 0.16948 0.37881 0.31339 0.0
O391 O 0.16164 0.34233 0.2701 0.0
Co392 Co 0.41141 0.59068 0.42212 0.0
O393 O 0.41816 0.5539 0.41286 0.0
O394 O 0.40783 0.58169 0.34959 0.0
C395 C 0.38519 0.58591 0.4914 0.0
O396 O 0.40174 0.62948 0.41731 0.0
Co397 Co 0.42834 0.61972 0.52262 0.0
O398 O 0.40525 0.6483 0.49599 0.0
C399 C 0.46818 0.60563 0.44396 0.0
C400 C 0.41339 0.55777 0.36393 0.0
C401 C 0.3981 0.64896 0.44851 0.0
O402 O 0.44987 0.59888 0.41206 0.0
O403 O 0.46373 0.61224 0.49118 0.0
O404 O 0.37555 0.58316 0.44494 0.0
O405 O 0.41027 0.5894 0.49445 0.0
Co406 Co 0.16184 0.65975 0.16944 0.0
O407 O 0.19881 0.66695 0.1633 0.0
O408 O 0.17404 0.64823 0.10256 0.0
C409 C 0.16431 0.64275 0.24978 0.0
O410 O 0.12384 0.64815 0.16158 0.0
Co411 Co 0.1268 0.68555 0.2535 0.0
O412 O 0.09941 0.6602 0.23013 0.0
C413 C 0.14325 0.71618 0.16128 0.0
C414 C 0.19707 0.65646 0.11741 0.0
C415 C 0.10213 0.64803 0.18716 0.0
O416 O 0.15289 0.69537 0.14021 0.0
O417 O 0.13421 0.71676 0.20774 0.0
O418 O 0.1694 0.62809 0.20964 0.0
O419 O 0.15953 0.66722 0.24044 0.0
Co420 Co 0.09904 0.41026 0.91277 0.0
O421 O 0.09315 0.44757 0.90889 0.0
O422 O 0.10611 0.42224 0.84338 0.0
C423 C 0.12171 0.4105 0.9876 0.0
O424 O 0.1081 0.37179 0.90185 0.0
Co425 Co 0.07625 0.37654 0.00208 0.0
O426 O 0.09918 0.34826 0.97349 0.0
C427 C 0.04142 0.39421 0.91726 0.0
C428 C 0.09955 0.44546 0.86021 0.0
C429 C 0.10887 0.35026 0.92798 0.0
O430 O 0.06143 0.40328 0.89267 0.0
O431 O 0.04282 0.3848 0.96336 0.0
O432 O 0.13357 0.41569 0.94406 0.0
O433 O 0.09649 0.40771 0.98517 0.0
Co434 Co 0.33414 0.33441 0.68636 0.0
O435 O 0.298 0.32408 0.67663 0.0
O436 O 0.32411 0.34012 0.61529 0.0
C437 C 0.32707 0.35661 0.76049 0.0
O438 O 0.37134 0.34846 0.68018 0.0
Co439 Co 0.36823 0.31916 0.78122 0.0
O440 O 0.39515 0.34365 0.75277 0.0
C441 C 0.35691 0.27991 0.69896 0.0
C442 C 0.30101 0.33155 0.62869 0.0
C443 C 0.39247 0.35222 0.70657 0.0
O444 O 0.34665 0.29776 0.66981 0.0
O445 O 0.36431 0.28415 0.74583 0.0
O446 O 0.3228 0.36796 0.716 0.0
O447 O 0.33423 0.33231 0.7589 0.0
H448 H 0.09084 0.05403 0.24766 0.0
H449 H 0.09498 0.9986 0.37437 0.0
H450 H 0.09584 0.96205 0.31264 0.0
H451 H 0.09522 0.94595 0.22282 0.0
H452 H 0.08842 0.00115 0.09622 0.0
H453 H 0.08885 0.03783 0.15782 0.0
C454 C 0.092 0.03394 0.26169 0.0
C455 C 0.09299 0.02895 0.31533 0.0
C456 C 0.09202 0.01307 0.22607 0.0
C457 C 0.09416 0.00287 0.33316 0.0
C458 C 0.09471 0.982 0.29794 0.0
C459 C 0.09397 0.96603 0.20875 0.0
C460 C 0.09199 0.97094 0.1552 0.0
C461 C 0.09366 0.98689 0.24435 0.0
C462 C 0.08997 0.99696 0.13738 0.0
C463 C 0.09023 0.0179 0.17252 0.0
H464 H 0.19695 0.84035 0.48812 0.0
H465 H 0.25119 0.84085 0.61718 0.0
H466 H 0.28832 0.83805 0.55729 0.0
H467 H 0.30536 0.83532 0.46846 0.0
H468 H 0.25129 0.83294 0.33919 0.0
H469 H 0.21407 0.83641 0.39896 0.0
C470 C 0.21691 0.83997 0.50302 0.0
C471 C 0.22137 0.84094 0.55688 0.0
C472 C 0.23816 0.83786 0.4684 0.0
C473 C 0.24729 0.8401 0.57582 0.0
C474 C 0.26852 0.8385 0.54163 0.0
C475 C 0.28543 0.83553 0.45336 0.0
C476 C 0.28107 0.83395 0.39953 0.0
C477 C 0.26418 0.8373 0.48789 0.0
C478 C 0.25515 0.83406 0.38053 0.0
C479 C 0.23386 0.83613 0.41465 0.0
H480 H 0.41303 0.01277 0.63213 0.0
H481 H 0.42195 0.07203 0.75089 0.0
H482 H 0.41741 0.03845 0.81837 0.0
H483 H 0.41067 0.99226 0.84335 0.0
H484 H 0.39997 0.93347 0.72408 0.0
H485 H 0.40524 0.96694 0.65698 0.0
C486 C 0.41415 0.0183 0.67279 0.0
C487 C 0.418 0.04474 0.68662 0.0
C488 C 0.41101 0.99903 0.71121 0.0
C489 C 0.41904 0.05174 0.73938 0.0
C490 C 0.41642 0.03258 0.77792 0.0
C491 C 0.40943 0.98681 0.80267 0.0
C492 C 0.40497 0.96046 0.78868 0.0
C493 C 0.41231 0.00618 0.76426 0.0
C494 C 0.40329 0.95366 0.73586 0.0
C495 C 0.4064 0.97276 0.69744 0.0
H496 H 0.1966 0.14727 0.99281 0.0
H497 H 0.24903 0.15218 0.86137 0.0
H498 H 0.28689 0.15452 0.91988 0.0
H499 H 0.30495 0.15605 0.00869 0.0
H500 H 0.25195 0.15319 0.13955 0.0
H501 H 0.21446 0.14912 0.08095 0.0
C502 C 0.21633 0.1487 0.97696 0.0
C503 C 0.22006 0.14946 0.92296 0.0
C504 C 0.23788 0.15048 0.01073 0.0
C505 C 0.24568 0.15158 0.90291 0.0
C506 C 0.26733 0.15291 0.93631 0.0
C507 C 0.28519 0.15444 0.02427 0.0
C508 C 0.2812 0.15492 0.07826 0.0
C509 C 0.26364 0.15251 0.99031 0.0
C510 C 0.25551 0.15301 0.09805 0.0
C511 C 0.23405 0.15063 0.06462 0.0
H512 H 0.89687 0.98504 0.65319 0.0
H513 H 0.90026 0.92322 0.76777 0.0
H514 H 0.89997 0.95601 0.83753 0.0
H515 H 0.89956 0.00249 0.86556 0.0
H516 H 0.89473 0.06373 0.74969 0.0
H517 H 0.89473 0.03088 0.68083 0.0
C518 C 0.89755 0.97873 0.69343 0.0
C519 C 0.89876 0.95182 0.70539 0.0
C520 C 0.89712 0.99758 0.73308 0.0
C521 C 0.89932 0.94388 0.75767 0.0
C522 C 0.89921 0.96261 0.79751 0.0
C523 C 0.89848 0.00859 0.82523 0.0
C524 C 0.89726 0.03548 0.81274 0.0
C525 C 0.89825 0.98954 0.78564 0.0
C526 C 0.89566 0.04314 0.76036 0.0
C527 C 0.8957 0.02438 0.7209 0.0
H528 H 0.80091 0.15832 0.50022 0.0
H529 H 0.74576 0.15194 0.37339 0.0
H530 H 0.70896 0.15518 0.43445 0.0
H531 H 0.69262 0.16016 0.52413 0.0
H532 H 0.74833 0.16874 0.64973 0.0
H533 H 0.78477 0.16447 0.58882 0.0
C534 C 0.78083 0.15746 0.48599 0.0
C535 C 0.77599 0.15469 0.43258 0.0
C536 C 0.7599 0.15992 0.52104 0.0
C537 C 0.74992 0.15403 0.41448 0.0
C538 C 0.7289 0.1559 0.44932 0.0
C539 C 0.71274 0.16114 0.53806 0.0
C540 C 0.71777 0.16473 0.59131 0.0
C541 C 0.73367 0.15894 0.5027 0.0
C542 C 0.74393 0.1661 0.60887 0.0
C543 C 0.7648 0.16356 0.57412 0.0
H544 H 0.58367 0.99238 0.34397 0.0
H545 H 0.59763 0.93058 0.23232 0.0
H546 H 0.59238 0.96184 0.16113 0.0
H547 H 0.5846 0.00689 0.13058 0.0
H548 H 0.57353 0.06925 0.24211 0.0
H549 H 0.57656 0.03762 0.31342 0.0
C550 C 0.58556 0.9858 0.30405 0.0
C551 C 0.59105 0.95928 0.29336 0.0
C552 C 0.58286 0.00394 0.26333 0.0
C553 C 0.59359 0.95098 0.24151 0.0
C554 C 0.59046 0.96879 0.20077 0.0
C555 C 0.58255 0.01344 0.1705 0.0
C556 C 0.57865 0.04021 0.18126 0.0
C557 C 0.58513 0.99531 0.21122 0.0
C558 C 0.5765 0.04865 0.23306 0.0
C559 C 0.57828 0.03061 0.27378 0.0
H560 H 0.6941 0.85046 0.98019 0.0
H561 H 0.75056 0.84816 0.85512 0.0
H562 H 0.78668 0.84976 0.91784 0.0
H563 H 0.8021 0.85121 0.00804 0.0
H564 H 0.74577 0.85097 0.13342 0.0
H565 H 0.70958 0.85094 0.07066 0.0
C566 C 0.71432 0.85044 0.96672 0.0
C567 C 0.71973 0.84934 0.91322 0.0
C568 C 0.73493 0.85083 0.00297 0.0
C569 C 0.74597 0.84898 0.89619 0.0
C570 C 0.76659 0.84991 0.93198 0.0
C571 C 0.78189 0.85126 0.02161 0.0
C572 C 0.77654 0.85122 0.07516 0.0
C573 C 0.76128 0.85076 0.98542 0.0
C574 C 0.75032 0.85097 0.0923 0.0
C575 C 0.72966 0.85099 0.05649 0.0
H576 H 0.59993 0.44159 0.74246 0.0
H577 H 0.5932 0.49449 0.61199 0.0
H578 H 0.5979 0.53224 0.66971 0.0
H579 H 0.60259 0.55031 0.75725 0.0
H580 H 0.60665 0.49795 0.88886 0.0
H581 H 0.60442 0.45988 0.83079 0.0
C582 C 0.59963 0.4614 0.72679 0.0
C583 C 0.59622 0.46529 0.67318 0.0
C584 C 0.60182 0.48308 0.76035 0.0
C585 C 0.59565 0.49101 0.65324 0.0
C586 C 0.59839 0.51261 0.68616 0.0
C587 C 0.60318 0.53056 0.77318 0.0
C588 C 0.60486 0.52688 0.8271 0.0
C589 C 0.60129 0.50888 0.73977 0.0
C590 C 0.60531 0.50122 0.84736 0.0
C591 C 0.60404 0.47948 0.81422 0.0
H592 H 0.75389 0.35137 0.8936 0.0
H593 H 0.81449 0.3525 0.01114 0.0
H594 H 0.78113 0.3528 0.07927 0.0
H595 H 0.73495 0.35137 0.10535 0.0
H596 H 0.67397 0.35237 0.98872 0.0
H597 H 0.7073 0.35287 0.92002 0.0
C598 C 0.75971 0.35169 0.93416 0.0
C599 C 0.7865 0.35167 0.94753 0.0
C600 C 0.74043 0.3523 0.97309 0.0
C601 C 0.79392 0.35249 5e-05 0.0
C602 C 0.7749 0.35262 0.03898 0.0
C603 C 0.72898 0.35178 0.06487 0.0
C604 C 0.70217 0.35159 0.05189 0.0
C605 C 0.74814 0.35233 0.02592 0.0
C606 C 0.69458 0.35252 -0.00054 0.0
C607 C 0.71359 0.35269 0.96027 0.0
H608 H 0.90029 0.44742 0.2663 0.0
H609 H 0.90723 0.49901 0.3988 0.0
H610 H 0.90631 0.53734 0.3416 0.0
H611 H 0.90383 0.55611 0.25389 0.0
H612 H 0.89935 0.5044 0.12118 0.0
H613 H 0.89897 0.46611 0.17853 0.0
C614 C 0.90152 0.46707 0.28259 0.0
C615 C 0.90372 0.47047 0.33653 0.0
C616 C 0.90144 0.48893 0.24949 0.0
C617 C 0.9056 0.49596 0.35726 0.0
C618 C 0.90502 0.51786 0.32464 0.0
C619 C 0.90267 0.53644 0.23764 0.0
C620 C 0.90151 0.53299 0.1836 0.0
C621 C 0.90297 0.51457 0.27072 0.0
C622 C 0.90033 0.50747 0.1628 0.0
C623 C 0.90007 0.4856 0.1955 0.0
H624 H 0.74393 0.65024 0.40158 0.0
H625 H 0.68139 0.64322 0.51412 0.0
H626 H 0.71349 0.64472 0.58481 0.0
H627 H 0.75921 0.6488 0.61447 0.0
H628 H 0.82182 0.65443 0.5018 0.0
H629 H 0.78972 0.65275 0.43112 0.0
C630 C 0.73733 0.64899 0.44158 0.0
C631 C 0.71036 0.64674 0.45269 0.0
C632 C 0.75586 0.64971 0.48189 0.0
C633 C 0.70208 0.64492 0.50462 0.0
C634 C 0.7204 0.64586 0.54503 0.0
C635 C 0.76581 0.64972 0.57444 0.0
C636 C 0.79278 0.65192 0.56328 0.0
C637 C 0.74731 0.64842 0.5341 0.0
C638 C 0.80112 0.65277 0.5113 0.0
C639 C 0.7828 0.65182 0.47091 0.0
H640 H 0.41034 0.45149 0.23892 0.0
H641 H 0.41447 0.50504 0.10916 0.0
H642 H 0.41566 0.54249 0.16886 0.0
H643 H 0.41478 0.55994 0.25827 0.0
H644 H 0.41227 0.5058 0.38737 0.0
H645 H 0.4112 0.46866 0.32756 0.0
C646 C 0.41152 0.47136 0.2237 0.0
C647 C 0.41217 0.47555 0.16984 0.0
C648 C 0.41246 0.49268 0.25813 0.0
C649 C 0.41397 0.50135 0.1506 0.0
C650 C 0.41459 0.52276 0.18467 0.0
C651 C 0.41402 0.54 0.27318 0.0
C652 C 0.41351 0.5356 0.32705 0.0
C653 C 0.41372 0.51865 0.23854 0.0
C654 C 0.41275 0.50969 0.34599 0.0
C655 C 0.41208 0.48842 0.31186 0.0
H656 H 0.19761 0.64776 0.01378 0.0
H657 H 0.24855 0.65972 0.1459 0.0
H658 H 0.28721 0.65573 0.09004 0.0
H659 H 0.30645 0.64977 0.00326 0.0
H660 H 0.25531 0.6405 0.87063 0.0
H661 H 0.21676 0.64238 0.9271 0.0
C662 C 0.21719 0.64939 0.03031 0.0
C663 C 0.2203 0.65397 0.08372 0.0
C664 C 0.23924 0.64756 0.99791 0.0
C665 C 0.24571 0.65629 0.10472 0.0
C666 C 0.26781 0.65396 0.07289 0.0
C667 C 0.28685 0.64799 0.9869 0.0
C668 C 0.28363 0.64493 0.93309 0.0
C669 C 0.26479 0.6497 0.0194 0.0
C670 C 0.2582 0.64295 0.91206 0.0
C671 C 0.23617 0.64401 0.94426 0.0
H672 H 0.09439 0.44441 0.75579 0.0
H673 H 0.10057 0.49737 0.88625 0.0
H674 H 0.09655 0.53515 0.82796 0.0
H675 H 0.09122 0.553 0.73986 0.0
H676 H 0.08295 0.49979 0.61011 0.0
H677 H 0.08759 0.46218 0.66829 0.0
C678 C 0.09504 0.46424 0.77135 0.0
C679 C 0.09801 0.4682 0.825 0.0
C680 C 0.09213 0.48577 0.73784 0.0
C681 C 0.09837 0.49391 0.84493 0.0
C682 C 0.09604 0.51549 0.81169 0.0
C683 C 0.09036 0.53317 0.7244 0.0
C684 C 0.08682 0.52915 0.67083 0.0
C685 C 0.09285 0.51163 0.75809 0.0
C686 C 0.08557 0.50337 0.65129 0.0
C687 C 0.08834 0.48186 0.68446 0.0
H688 H 0.19513 0.33667 0.50167 0.0
H689 H 0.24979 0.34576 0.37477 0.0
H690 H 0.2868 0.34245 0.43521 0.0
H691 H 0.30349 0.33743 0.52418 0.0
H692 H 0.24883 0.32621 0.65053 0.0
H693 H 0.21188 0.32961 0.59012 0.0
C694 C 0.21515 0.33805 0.48737 0.0
C695 C 0.21981 0.34171 0.43407 0.0
C696 C 0.23627 0.33557 0.52212 0.0
C697 C 0.24579 0.34301 0.41576 0.0
C698 C 0.26692 0.3411 0.45024 0.0
C699 C 0.28349 0.33563 0.53844 0.0
C700 C 0.27886 0.3317 0.59169 0.0
C701 C 0.26238 0.3374 0.50349 0.0
C702 C 0.25288 0.32918 0.60963 0.0
C703 C 0.23175 0.33124 0.57518 0.0
H704 H 0.12127 0.18912 0.47643 0.0
H705 H 0.11258 0.15232 0.32603 0.0
H706 H 0.12671 0.19263 0.28358 0.0
H707 H 0.13817 0.23923 0.28839 0.0
H708 H 0.14758 0.27636 0.43814 0.0
H709 H 0.13691 0.23496 0.48137 0.0
C710 C 0.12263 0.18988 0.4344 0.0
C711 C 0.11552 0.1678 0.40457 0.0
C712 C 0.13087 0.2132 0.40997 0.0
C713 C 0.1178 0.16901 0.35012 0.0
C714 C 0.12584 0.1921 0.32565 0.0
C715 C 0.13814 0.23823 0.33049 0.0
C716 C 0.14334 0.26094 0.35988 0.0
C717 C 0.1319 0.21444 0.35511 0.0
C718 C 0.1436 0.25919 0.41446 0.0
C719 C 0.13736 0.23554 0.43928 0.0
H720 H 0.0081 0.8882 0.53551 0.0
H721 H 0.97146 0.88998 0.68686 0.0
H722 H 0.01374 0.88075 0.7278 0.0
H723 H 0.06032 0.86838 0.72024 0.0
H724 H 0.09689 0.86681 0.56882 0.0
H725 H 0.05552 0.88002 0.52866 0.0
C726 C 0.00936 0.88681 0.57749 0.0
C727 C 0.98648 0.88943 0.60787 0.0
C728 C 0.03374 0.88139 0.6009 0.0
C729 C 0.98865 0.88793 0.66233 0.0
C730 C 0.01284 0.88255 0.68587 0.0
C731 C 0.05932 0.87113 0.67849 0.0
C732 C 0.08166 0.86621 0.64764 0.0
C733 C 0.03539 0.87864 0.65546 0.0
C734 C 0.08005 0.87031 0.59365 0.0
C735 C 0.05633 0.87778 0.57052 0.0
H736 H 0.38034 0.80368 0.96739 0.0
H737 H 0.38086 0.83833 0.81409 0.0
H738 H 0.36766 0.79654 0.77625 0.0
H739 H 0.35976 0.74937 0.78537 0.0
H740 H 0.35853 0.71428 0.93801 0.0
H741 H 0.36785 0.75708 0.97729 0.0
C742 C 0.37736 0.80214 0.92577 0.0
C743 C 0.382 0.82407 0.89368 0.0
C744 C 0.36971 0.77795 0.904 0.0
C745 C 0.37762 0.8218 0.83985 0.0
C746 C 0.37011 0.79785 0.81802 0.0
C747 C 0.36128 0.75111 0.82728 0.0
C748 C 0.35882 0.72863 0.85862 0.0
C749 C 0.36671 0.77569 0.84955 0.0
C750 C 0.36039 0.73129 0.91294 0.0
C751 C 0.36587 0.75573 0.93544 0.0
H752 H 0.41107 0.14483 0.09721 0.0
H753 H 0.43792 0.13645 0.25553 0.0
H754 H 0.48049 0.12054 0.22466 0.0
H755 H 0.51087 0.11134 0.15267 0.0
H756 H 0.48413 0.12135 0.99448 0.0
H757 H 0.44075 0.13414 0.02554 0.0
C758 C 0.42613 0.1393 0.12504 0.0
C759 C 0.42135 0.14199 0.17857 0.0
C760 C 0.45066 0.13055 0.10708 0.0
C761 C 0.44116 0.13484 0.21405 0.0
C762 C 0.46551 0.12569 0.19646 0.0
C763 C 0.49549 0.11604 0.12493 0.0
C764 C 0.50088 0.11545 0.0713 0.0
C765 C 0.4706 0.12382 0.14303 0.0
C766 C 0.48067 0.12174 0.036 0.0
C767 C 0.4558 0.12908 0.05369 0.0
H768 H 0.14399 0.76649 0.19498 0.0
H769 H 0.13569 0.71955 0.05636 0.0
H770 H 0.12384 0.75883 0.00653 0.0
H771 H 0.11153 0.80587 0.00488 0.0
H772 H 0.12117 0.85235 0.1443 0.0
H773 H 0.13702 0.81398 0.19087 0.0
C774 C 0.13991 0.76493 0.1537 0.0
C775 C 0.14037 0.74019 0.12951 0.0
C776 C 0.13315 0.7875 0.12544 0.0
C777 C 0.13546 0.73844 0.07585 0.0
C778 C 0.12851 0.76086 0.04743 0.0
C779 C 0.11739 0.80767 0.04525 0.0
C780 C 0.11471 0.83195 0.07107 0.0
C781 C 0.12662 0.78541 0.07217 0.0
C782 C 0.12279 0.83395 0.12329 0.0
C783 C 0.13182 0.81196 0.1502 0.0
H784 H 0.48945 0.87985 0.44084 0.0
H785 H 0.53097 0.88619 0.29508 0.0
H786 H 0.49088 0.87453 0.24797 0.0
H787 H 0.44463 0.85994 0.24863 0.0
H788 H 0.4035 0.85434 0.39514 0.0
H789 H 0.44282 0.86841 0.44115 0.0
C790 C 0.48975 0.87881 0.39875 0.0
C791 C 0.51327 0.8836 0.37166 0.0
C792 C 0.4667 0.8721 0.37191 0.0
C793 C 0.51315 0.88254 0.31702 0.0
C794 C 0.49025 0.87577 0.29 0.0
C795 C 0.44423 0.86191 0.29058 0.0
C796 C 0.42116 0.85578 0.31825 0.0
C797 C 0.467 0.87009 0.31711 0.0
C798 C 0.42095 0.85878 0.37264 0.0
C799 C 0.44348 0.8668 0.39917 0.0
H800 H 0.39276 0.16485 0.647 0.0
H801 H 0.39596 0.19707 0.49186 0.0
H802 H 0.37785 0.23862 0.5238 0.0
H803 H 0.36387 0.26669 0.59713 0.0
H804 H 0.36249 0.2341 0.75205 0.0
H805 H 0.37688 0.19168 0.71852 0.0
C806 C 0.38945 0.18086 0.61991 0.0
C807 C 0.39604 0.17787 0.56717 0.0
C808 C 0.37931 0.20466 0.63852 0.0
C809 C 0.39134 0.19887 0.53278 0.0
C810 C 0.38093 0.22263 0.55099 0.0
C811 C 0.36631 0.25017 0.62336 0.0
C812 C 0.36224 0.25358 0.67703 0.0
C813 C 0.3752 0.22588 0.60396 0.0
C814 C 0.36569 0.23205 0.71062 0.0
C815 C 0.37395 0.20779 0.69153 0.0
H816 H 0.05566 0.12334 0.77535 0.0
H817 H 0.09483 0.13014 0.92374 0.0
H818 H 0.05457 0.1172 0.96818 0.0
H819 H 0.00738 0.10748 0.9656 0.0
H820 H 0.96813 0.10001 0.81746 0.0
H821 H 0.00933 0.10935 0.7725 0.0
C822 C 0.05545 0.12181 0.81738 0.0
C823 C 0.07819 0.12807 0.84608 0.0
C824 C 0.03218 0.1143 0.84289 0.0
C825 C 0.07764 0.12556 0.90053 0.0
C826 C 0.05457 0.11823 0.92611 0.0
C827 C 0.00785 0.10764 0.92346 0.0
C828 C 0.98457 0.10338 0.89509 0.0
C829 C 0.03159 0.11309 0.89776 0.0
C830 C 0.98569 0.10329 0.84044 0.0
C831 C 0.00925 0.10876 0.8146 0.0
H832 H 0.86206 0.727 0.59441 0.0
H833 H 0.84772 0.75705 0.74878 0.0
H834 H 0.85752 0.80154 0.71926 0.0
H835 H 0.87382 0.83118 0.6521 0.0
H836 H 0.89 0.80126 0.49827 0.0
H837 H 0.87565 0.75749 0.52517 0.0
C838 C 0.86064 0.74334 0.62137 0.0
C839 C 0.85436 0.73866 0.67382 0.0
C840 C 0.86693 0.76886 0.60444 0.0
C841 C 0.85275 0.76006 0.70832 0.0
C842 C 0.85839 0.78552 0.69151 0.0
C843 C 0.87409 0.81518 0.6242 0.0
C844 C 0.88333 0.81953 0.57339 0.0
C845 C 0.86616 0.79002 0.64004 0.0
C846 C 0.88322 0.79851 0.53778 0.0
C847 C 0.87501 0.77343 0.55312 0.0
H848 H 0.9373 0.12645 0.27788 0.0
H849 H 0.90213 0.13964 0.42836 0.0
H850 H 0.94264 0.12576 0.47086 0.0
H851 H 0.98888 0.11275 0.46556 0.0
H852 H 0.02423 0.0987 0.31556 0.0
H853 H 0.98273 0.10964 0.27286 0.0
C854 C 0.93848 0.12615 0.31996 0.0
C855 C 0.91679 0.13435 0.34981 0.0
C856 C 0.96186 0.11798 0.34435 0.0
C857 C 0.9185 0.13346 0.40434 0.0
C858 C 0.94171 0.12558 0.42878 0.0
C859 C 0.9875 0.11184 0.42353 0.0
C860 C 0.00977 0.10521 0.39389 0.0
C861 C 0.96363 0.11822 0.39918 0.0
C862 C 0.00744 0.10379 0.33946 0.0
C863 C 0.98374 0.11019 0.31492 0.0
H864 H 0.64312 0.23598 0.18563 0.0
H865 H 0.62654 0.28248 0.04934 0.0
H866 H 0.61565 0.24258 0.00064 0.0
H867 H 0.60639 0.1948 -1e-05 0.0
H868 H 0.62376 0.14904 0.13732 0.0
H869 H 0.63901 0.18824 0.18187 0.0
C870 C 0.63735 0.23737 0.14512 0.0
C871 C 0.63521 0.26213 0.12142 0.0
C872 C 0.63109 0.21446 0.1175 0.0
C873 C 0.62824 0.26361 0.06859 0.0
C874 C 0.62189 0.24081 0.04077 0.0
C875 C 0.61387 0.19335 0.03936 0.0
C876 C 0.61334 0.16902 0.06547 0.0
C877 C 0.62258 0.21615 0.06526 0.0
C878 C 0.62342 0.16752 0.11639 0.0
C879 C 0.63219 0.18996 0.14209 0.0
H880 H 0.55738 0.86596 0.75167 0.0
H881 H 0.59764 0.86763 0.89952 0.0
H882 H 0.55718 0.88073 0.94275 0.0
H883 H 0.50962 0.88841 0.94004 0.0
H884 H 0.46924 0.888 0.79244 0.0
H885 H 0.51044 0.87799 0.74791 0.0
C886 C 0.55735 0.86941 0.79326 0.0
C887 C 0.5805 0.86548 0.82222 0.0
C888 C 0.53393 0.87707 0.81814 0.0
C889 C 0.58015 0.8704 0.87607 0.0
C890 C 0.55696 0.87782 0.90102 0.0
C891 C 0.50986 0.88634 0.89809 0.0
C892 C 0.48632 0.88864 0.86978 0.0
C893 C 0.53362 0.88068 0.87264 0.0
C894 C 0.48707 0.8863 0.8153 0.0
C895 C 0.51062 0.88045 0.78975 0.0
H896 H 0.85893 0.24339 0.8014 0.0
H897 H 0.86194 0.2834 0.94915 0.0
H898 H 0.87258 0.24189 0.99263 0.0
H899 H 0.88403 0.19463 0.98731 0.0
H900 H 0.88012 0.15552 0.83829 0.0
H901 H 0.86682 0.19627 0.797 0.0
C902 C 0.86175 0.24305 0.84319 0.0
C903 C 0.85996 0.26648 0.87187 0.0
C904 C 0.86788 0.21927 0.86776 0.0
C905 C 0.86323 0.26561 0.92612 0.0
C906 C 0.86946 0.24191 0.95097 0.0
C907 C 0.88012 0.19501 0.94589 0.0
C908 C 0.88338 0.17201 0.91606 0.0
C909 C 0.87232 0.21867 0.922 0.0
C910 C 0.87791 0.17284 0.86244 0.0
C911 C 0.87031 0.19619 0.83857 0.0
H912 H 0.59388 0.13997 0.61705 0.0
H913 H 0.56212 0.13662 0.77253 0.0
H914 H 0.52026 0.12066 0.7382 0.0
H915 H 0.49158 0.11121 0.66365 0.0
H916 H 0.52302 0.11638 0.5081 0.0
H917 H 0.56612 0.1278 0.54309 0.0
C918 C 0.57794 0.13551 0.64361 0.0
C919 C 0.58116 0.13978 0.69732 0.0
C920 C 0.55376 0.12675 0.62358 0.0
C921 C 0.56019 0.1338 0.73098 0.0
C922 C 0.53621 0.12465 0.71138 0.0
C923 C 0.50792 0.11444 0.63735 0.0
C924 C 0.50392 0.1131 0.58324 0.0
C925 C 0.5326 0.12157 0.65767 0.0
C926 C 0.5254 0.11745 0.54988 0.0
C927 C 0.5501 0.12404 0.56984 0.0
H928 H 0.65035 0.75681 0.29497 0.0
H929 H 0.63901 0.71569 0.4399 0.0
H930 H 0.62768 0.757 0.48289 0.0
H931 H 0.61682 0.80416 0.47712 0.0
H932 H 0.62905 0.84495 0.33181 0.0
H933 H 0.64443 0.80453 0.29172 0.0
C934 C 0.64566 0.75691 0.33609 0.0
C935 C 0.64517 0.73316 0.36393 0.0
C936 C 0.63915 0.7807 0.36059 0.0
C937 C 0.63947 0.73369 0.41743 0.0
C938 C 0.63286 0.75731 0.44205 0.0
C939 C 0.62316 0.8043 0.43689 0.0
C940 C 0.6213 0.82757 0.40749 0.0
C941 C 0.632 0.78085 0.4137 0.0
C942 C 0.62996 0.82737 0.3555 0.0
C943 C 0.63874 0.8042 0.3323 0.0
H944 H 0.94122 0.86965 0.22832 0.0
H945 H 0.89606 0.87676 0.08659 0.0
H946 H 0.93529 0.88974 0.0395 0.0
H947 H 0.98291 0.89546 0.03624 0.0
H948 H 0.02867 0.88962 0.17694 0.0
H949 H 0.98873 0.88005 0.22665 0.0
C950 C 0.93992 0.87428 0.18727 0.0
C951 C 0.91571 0.87177 0.16107 0.0
C952 C 0.96269 0.88184 0.16002 0.0
C953 C 0.91438 0.87823 0.10792 0.0
C954 C 0.93686 0.88564 0.08072 0.0
C955 C 0.98411 0.89231 0.07787 0.0
C956 C 0.00868 0.89288 0.10276 0.0
C957 C 0.96118 0.8869 0.10607 0.0
C958 C 0.00993 0.88924 0.15687 0.0
C959 C 0.98713 0.88364 0.18525 0.0
H960 H 0.6437 0.73853 0.77908 0.0
H961 H 0.64771 0.78056 0.92462 0.0
H962 H 0.63864 0.73988 0.97194 0.0
H963 H 0.62614 0.69301 0.97134 0.0
H964 H 0.62284 0.65135 0.82509 0.0
H965 H 0.63519 0.69123 0.77897 0.0
C966 C 0.6428 0.73879 0.82119 0.0
C967 C 0.64606 0.76262 0.84817 0.0
C968 C 0.63754 0.7154 0.8481 0.0
C969 C 0.64524 0.7625 0.90281 0.0
C970 C 0.63992 0.73926 0.92992 0.0
C971 C 0.62829 0.69261 0.92942 0.0
C972 C 0.62321 0.66923 0.9018 0.0
C973 C 0.63547 0.71569 0.90288 0.0
C974 C 0.62649 0.66902 0.8475 0.0
C975 C 0.6335 0.69187 0.82094 0.0
H976 H 0.47786 0.38976 0.1614 0.0
H977 H 0.50739 0.40013 0.00556 0.0
H978 H 0.5517 0.38904 0.03471 0.0
H979 H 0.58103 0.37254 0.10202 0.0
H980 H 0.55151 0.35916 0.2571 0.0
H981 H 0.50824 0.37547 0.23073 0.0
C982 C 0.49411 0.39003 0.13411 0.0
C983 C 0.48939 0.39565 0.08139 0.0
C984 C 0.51944 0.38283 0.15083 0.0
C985 C 0.51053 0.39568 0.04627 0.0
C986 C 0.53585 0.38932 0.06288 0.0
C987 C 0.56527 0.37342 0.13039 0.0
C988 C 0.56951 0.36438 0.18137 0.0
C989 C 0.54038 0.38222 0.11472 0.0
C990 C 0.54877 0.36576 0.21745 0.0
C991 C 0.52401 0.37509 0.20241 0.0
H992 H 0.85501 0.26086 0.29328 0.0
H993 H 0.84701 0.22082 0.44031 0.0
H994 H 0.85723 0.26151 0.48643 0.0
H995 H 0.87277 0.30741 0.48474 0.0
H996 H 0.87974 0.34744 0.3374 0.0
H997 H 0.8654 0.30795 0.29203 0.0
C998 C 0.85521 0.26109 0.33543 0.0
C999 C 0.85063 0.23771 0.36317 0.0
C1000 C 0.86112 0.28455 0.36179 0.0
C1001 C 0.85054 0.23849 0.41785 0.0
C1002 C 0.85653 0.26174 0.44434 0.0
C1003 C 0.87088 0.30757 0.44276 0.0
C1004 C 0.87772 0.33029 0.41461 0.0
C1005 C 0.86254 0.28472 0.41667 0.0
C1006 C 0.87475 0.33025 0.36021 0.0
C1007 C 0.86663 0.30761 0.33408 0.0
H1008 H 0.9128 0.62979 0.61121 0.0
H1009 H 0.94374 0.63708 0.76691 0.0
H1010 H 0.98693 0.6226 0.73639 0.0
H1011 H 0.01659 0.61068 0.66416 0.0
H1012 H 0.98532 0.60542 0.50847 0.0
H1013 H 0.9415 0.61604 0.54061 0.0
C1014 C 0.92888 0.62811 0.63874 0.0
C1015 C 0.92499 0.63478 0.69125 0.0
C1016 C 0.95366 0.62012 0.6209 0.0
C1017 C 0.94615 0.63228 0.72619 0.0
C1018 C 0.97088 0.62398 0.70878 0.0
C1019 C 9e-05 0.61146 0.63746 0.0
C1020 C 0.00423 0.60736 0.58398 0.0
C1021 C 0.97496 0.61821 0.65604 0.0
C1022 C 0.9827 0.60868 0.54976 0.0
C1023 C 0.95763 0.61478 0.56807 0.0
H1024 H 0.6391 0.23563 0.60189 0.0
H1025 H 0.64482 0.26904 0.75575 0.0
H1026 H 0.63288 0.31215 0.72172 0.0
H1027 H 0.61695 0.33943 0.65022 0.0
H1028 H 0.60895 0.30592 0.49682 0.0
H1029 H 0.62585 0.26393 0.5287 0.0
C1030 C 0.63817 0.25244 0.6278 0.0
C1031 C 0.64268 0.24905 0.68134 0.0
C1032 C 0.63063 0.27714 0.60818 0.0
C1033 C 0.64122 0.27103 0.71444 0.0
C1034 C 0.63437 0.29571 0.69504 0.0
C1035 C 0.61918 0.32308 0.62349 0.0
C1036 C 0.61142 0.32584 0.57128 0.0
C1037 C 0.6284 0.29886 0.64225 0.0
C1038 C 0.6145 0.30434 0.53734 0.0
C1039 C 0.62418 0.28029 0.55553 0.0
H1040 H 0.99253 0.3944 0.95926 0.0
H1041 H 0.03343 0.3899 0.81273 0.0
H1042 H 0.99199 0.38075 0.76791 0.0
H1043 H 0.94467 0.36991 0.77189 0.0
H1044 H 0.90412 0.376 0.91897 0.0
H1045 H 0.94474 0.38891 0.96155 0.0
C1046 C 0.99232 0.39169 0.91744 0.0
C1047 C 0.01601 0.39246 0.8895 0.0
C1048 C 0.96847 0.38658 0.89192 0.0
C1049 C 0.01541 0.38936 0.83518 0.0
C1050 C 0.99175 0.384 0.80953 0.0
C1051 C 0.94466 0.37437 0.8131 0.0
C1052 C 0.92138 0.37152 0.84212 0.0
C1053 C 0.96822 0.38192 0.83771 0.0
C1054 C 0.92171 0.37778 0.89546 0.0
C1055 C 0.94499 0.38511 0.9201 0.0
H1056 H 0.85621 0.74511 0.21995 0.0
H1057 H 0.84902 0.78323 0.07077 0.0
H1058 H 0.85984 0.74197 0.02703 0.0
H1059 H 0.87499 0.69596 0.03156 0.0
H1060 H 0.88145 0.65809 0.18127 0.0
H1061 H 0.86716 0.69831 0.22412 0.0
C1062 C 0.85675 0.74436 0.17783 0.0
C1063 C 0.85212 0.76732 0.14877 0.0
C1064 C 0.86306 0.72063 0.15294 0.0
C1065 C 0.85252 0.76588 0.09418 0.0
C1066 C 0.85887 0.74231 0.06909 0.0
C1067 C 0.87309 0.69645 0.07352 0.0
C1068 C 0.87963 0.67408 0.10308 0.0
C1069 C 0.86477 0.71971 0.09814 0.0
C1070 C 0.87667 0.67498 0.15742 0.0
C1071 C 0.86855 0.69803 0.18209 0.0
H1072 H 0.5884 0.62537 0.40305 0.0
H1073 H 0.55991 0.63519 0.24609 0.0
H1074 H 0.5158 0.62223 0.27373 0.0
H1075 H 0.48461 0.61173 0.34393 0.0
H1076 H 0.51322 0.60421 0.50125 0.0
H1077 H 0.55803 0.61243 0.47174 0.0
C1078 C 0.57266 0.62445 0.37462 0.0
C1079 C 0.5775 0.63152 0.32263 0.0
C1080 C 0.54728 0.6175 0.3909 0.0
C1081 C 0.55677 0.63008 0.28646 0.0
C1082 C 0.5315 0.62268 0.30223 0.0
C1083 C 0.50071 0.61151 0.37162 0.0
C1084 C 0.49554 0.60756 0.42477 0.0
C1085 C 0.52642 0.61688 0.35457 0.0
C1086 C 0.51661 0.60747 0.4602 0.0
C1087 C 0.54226 0.61217 0.44338 0.0
H1088 H 0.37267 0.31337 0.02342 0.0
H1089 H 0.38458 0.35405 0.16894 0.0
H1090 H 0.37106 0.315 0.2166 0.0
H1091 H 0.35937 0.26826 0.21756 0.0
H1092 H 0.34686 0.22743 0.07246 0.0
H1093 H 0.35673 0.26759 0.02446 0.0
C1094 C 0.3721 0.31377 0.06554 0.0
C1095 C 0.37997 0.3366 0.09238 0.0
C1096 C 0.36425 0.29116 0.093 0.0
C1097 C 0.37874 0.33681 0.14704 0.0
C1098 C 0.37107 0.31441 0.1745 0.0
C1099 C 0.35851 0.26817 0.17544 0.0
C1100 C 0.35268 0.2447 0.14882 0.0
C1101 C 0.36432 0.29132 0.14794 0.0
C1102 C 0.35135 0.24513 0.09417 0.0
C1103 C 0.35713 0.2681 0.06655 0.0
H1104 H 0.44674 0.61824 0.78127 0.0
H1105 H 0.41018 0.62759 0.9316 0.0
H1106 H 0.45132 0.61576 0.97421 0.0
H1107 H 0.49853 0.60646 0.96912 0.0
H1108 H 0.53523 0.59647 0.81915 0.0
H1109 H 0.49313 0.60452 0.77629 0.0
C1110 C 0.44771 0.61748 0.82334 0.0
C1111 C 0.42546 0.62416 0.8531 0.0
C1112 C 0.47149 0.61063 0.84777 0.0
C1113 C 0.42698 0.62266 0.90761 0.0
C1114 C 0.45055 0.61598 0.93212 0.0
C1115 C 0.4973 0.60579 0.92706 0.0
C1116 C 0.5201 0.60121 0.89746 0.0
C1117 C 0.47306 0.6105 0.90262 0.0
C1118 C 0.51803 0.6 0.84299 0.0
C1119 C 0.49396 0.60474 0.81837 0.0
H1120 H 0.119 0.6895 0.51206 0.0
H1121 H 0.11086 0.6519 0.66173 0.0
H1122 H 0.12606 0.6917 0.70477 0.0
H1123 H 0.13832 0.73812 0.7008 0.0
H1124 H 0.14695 0.7761 0.55177 0.0
H1125 H 0.13524 0.73514 0.50783 0.0
C1126 C 0.12071 0.68996 0.55406 0.0
C1127 C 0.11341 0.66779 0.58352 0.0
C1128 C 0.1295 0.713 0.57883 0.0
C1129 C 0.11617 0.66864 0.63792 0.0
C1130 C 0.12482 0.69145 0.66272 0.0
C1131 C 0.13788 0.73742 0.65868 0.0
C1132 C 0.14319 0.76026 0.62973 0.0
C1133 C 0.13102 0.71389 0.63366 0.0
C1134 C 0.1429 0.75885 0.57512 0.0
C1135 C 0.13607 0.73545 0.54991 0.0
H1136 H 0.05701 0.36921 0.27922 0.0
H1137 H 0.09615 0.36421 0.42799 0.0
H1138 H 0.05575 0.37703 0.47184 0.0
H1139 H 0.00862 0.38645 0.46887 0.0
H1140 H 0.96917 0.39234 0.32078 0.0
H1141 H 0.01043 0.38265 0.27589 0.0
C1142 C 0.05675 0.37111 0.32119 0.0
C1143 C 0.07956 0.36542 0.35018 0.0
C1144 C 0.03338 0.37856 0.34641 0.0
C1145 C 0.07893 0.36836 0.40455 0.0
C1146 C 0.05578 0.37562 0.42981 0.0
C1147 C 0.00906 0.3858 0.42674 0.0
C1148 C 0.98579 0.38978 0.39828 0.0
C1149 C 0.03279 0.38025 0.40123 0.0
C1150 C 0.9868 0.3893 0.34368 0.0
C1151 C 0.01037 0.38364 0.31796 0.0
H1152 H 0.38592 0.66046 0.34785 0.0
H1153 H 0.38371 0.69304 0.50283 0.0
H1154 H 0.36739 0.73464 0.46831 0.0
H1155 H 0.35702 0.7629 0.39359 0.0
H1156 H 0.3611 0.73075 0.23853 0.0
H1157 H 0.37302 0.68783 0.2738 0.0
C1158 C 0.38167 0.67654 0.37425 0.0
C1159 C 0.38633 0.67358 0.42787 0.0
C1160 C 0.3726 0.70057 0.35412 0.0
C1161 C 0.38058 0.69473 0.46133 0.0
C1162 C 0.3712 0.71858 0.44164 0.0
C1163 C 0.36004 0.74639 0.36755 0.0
C1164 C 0.35825 0.7501 0.31346 0.0
C1165 C 0.36757 0.72188 0.38801 0.0
C1166 C 0.36249 0.72851 0.2803 0.0
C1167 C 0.36938 0.70395 0.30043 0.0
H1168 H 0.0081 0.61174 0.04508 0.0
H1169 H 0.96839 0.60954 0.19319 0.0
H1170 H 0.00956 0.61996 0.23759 0.0
H1171 H 0.05594 0.63383 0.23355 0.0
H1172 H 0.09572 0.63474 0.08533 0.0
H1173 H 0.05556 0.62042 0.04211 0.0
C1174 C 0.00852 0.61326 0.08712 0.0
C1175 C 0.98514 0.61023 0.11565 0.0
C1176 C 0.03226 0.61918 0.11247 0.0
C1177 C 0.98609 0.61184 0.1702 0.0
C1178 C 0.00961 0.61793 0.19567 0.0
C1179 C 0.05589 0.63062 0.19188 0.0
C1180 C 0.07874 0.63574 0.16275 0.0
C1181 C 0.03268 0.62229 0.16708 0.0
C1182 C 0.07844 0.63106 0.10884 0.0
C1183 C 0.05542 0.62298 0.08393 0.0
H1184 H 0.13882 0.25481 0.78372 0.0
H1185 H 0.14754 0.2165 0.93241 0.0
H1186 H 0.13851 0.25797 0.9768 0.0
H1187 H 0.12449 0.3043 0.97333 0.0
H1188 H 0.11674 0.34259 0.82433 0.0
H1189 H 0.12921 0.30202 0.78038 0.0
C1190 C 0.13899 0.25557 0.82584 0.0
C1191 C 0.14353 0.2325 0.85461 0.0
C1192 C 0.13379 0.27947 0.85117 0.0
C1193 C 0.14407 0.23394 0.90921 0.0
C1194 C 0.13877 0.25764 0.9347 0.0
C1195 C 0.12574 0.30382 0.93127 0.0
C1196 C 0.11936 0.32639 0.90225 0.0
C1197 C 0.13302 0.28039 0.90607 0.0
C1198 C 0.12147 0.32553 0.84775 0.0
C1199 C 0.12852 0.30228 0.82247 0.0
H1200 H 0.44105 0.36445 0.74661 0.0
H1201 H 0.39497 0.36812 0.60556 0.0
H1202 H 0.43326 0.38295 0.55746 0.0
H1203 H 0.48056 0.39096 0.55314 0.0
H1204 H 0.52719 0.38803 0.69317 0.0
H1205 H 0.48793 0.37722 0.7438 0.0
C1206 C 0.43929 0.36879 0.7055 0.0
C1207 C 0.41514 0.36473 0.67982 0.0
C1208 C 0.46154 0.37733 0.67764 0.0
C1209 C 0.41326 0.37079 0.62654 0.0
C1210 C 0.43521 0.37925 0.59876 0.0
C1211 C 0.48212 0.38821 0.59483 0.0
C1212 C 0.50682 0.38994 0.61917 0.0
C1213 C 0.45956 0.38194 0.62361 0.0
C1214 C 0.50841 0.38676 0.67338 0.0
C1215 C 0.48599 0.38043 0.70235 0.0
H1216 H 0.10771 0.065 0.57913 0.0
H1217 H 0.15949 0.11402 0.48872 0.0
H1218 H 0.17971 0.13098 0.56844 0.0
H1219 H 0.17906 0.13515 0.66396 0.0
H1220 H 0.12954 0.08385 0.75435 0.0
H1221 H 0.11207 0.06408 0.67459 0.0
C1222 C 0.12382 0.07897 0.57713 0.0
C1223 C 0.13215 0.08843 0.52868 0.0
C1224 C 0.13552 0.08825 0.62295 0.0
C1225 C 0.15302 0.1064 0.5259 0.0
C1226 C 0.1644 0.11622 0.57138 0.0
C1227 C 0.16483 0.11927 0.66592 0.0
C1228 C 0.15538 0.11094 0.71438 0.0
C1229 C 0.15531 0.10778 0.62009 0.0
C1230 C 0.13711 0.09033 0.71714 0.0
C1231 C 0.12703 0.0792 0.67166 0.0
H1232 H 0.12783 0.89634 0.74709 0.0
H1233 H 0.19906 0.86376 0.81075 0.0
H1234 H 0.18758 0.88067 0.8971 0.0
H1235 H 0.15456 0.90002 0.95596 0.0
H1236 H 0.08075 0.92722 0.89319 0.0
H1237 H 0.09573 0.9173 0.80512 0.0
C1238 C 0.14104 0.89359 0.7798 0.0
C1239 C 0.16435 0.87931 0.77309 0.0
C1240 C 0.13359 0.9021 0.82951 0.0
C1241 C 0.18115 0.87508 0.81548 0.0
C1242 C 0.1745 0.88457 0.86472 0.0
C1243 C 0.14206 0.90423 0.92279 0.0
C1244 C 0.11669 0.91435 0.93068 0.0
C1245 C 0.15039 0.89743 0.87249 0.0
C1246 C 0.10037 0.91934 0.88775 0.0
C1247 C 0.1089 0.91367 0.83749 0.0
H1248 H 0.39086 0.92486 0.06168 0.0
H1249 H 0.33643 0.88063 0.96746 0.0
H1250 H 0.31645 0.86186 0.04559 0.0
H1251 H 0.31791 0.8545 0.1402 0.0
H1252 H 0.37007 0.90093 0.23509 0.0
H1253 H 0.38741 0.92277 0.15738 0.0
C1254 C 0.37426 0.91153 0.05855 0.0
C1255 C 0.36512 0.90395 0.00929 0.0
C1256 C 0.36265 0.90118 0.10361 0.0
C1257 C 0.34358 0.88682 0.00521 0.0
C1258 C 0.33231 0.87596 0.04978 0.0
C1259 C 0.33266 0.86983 0.14368 0.0
C1260 C 0.34287 0.87617 0.19274 0.0
C1261 C 0.34215 0.88249 0.09906 0.0
C1262 C 0.36187 0.89602 0.19744 0.0
C1263 C 0.37189 0.90831 0.15308 0.0
H1264 H 0.39833 0.07469 0.41502 0.0
H1265 H 0.35008 0.12255 0.51513 0.0
H1266 H 0.327 0.14052 0.43956 0.0
H1267 H 0.32388 0.14577 0.34443 0.0
H1268 H 0.3699 0.09555 0.24473 0.0
H1269 H 0.39046 0.07506 0.32057 0.0
C1270 C 0.38239 0.08866 0.42009 0.0
C1271 C 0.37589 0.09746 0.47008 0.0
C1272 C 0.36902 0.09856 0.37663 0.0
C1273 C 0.35518 0.11541 0.47676 0.0
C1274 C 0.34216 0.12583 0.43363 0.0
C1275 C 0.33808 0.13002 0.33962 0.0
C1276 C 0.3456 0.12221 0.28954 0.0
C1277 C 0.34939 0.11803 0.38334 0.0
C1278 C 0.3638 0.10169 0.2832 0.0
C1279 C 0.37565 0.09012 0.32645 0.0
H1280 H 0.81364 0.86107 0.34012 0.0
H1281 H 0.86204 0.91532 0.25424 0.0
H1282 H 0.87997 0.9329 0.33565 0.0
H1283 H 0.88536 0.92893 0.43077 0.0
H1284 H 0.83476 0.87662 0.51658 0.0
H1285 H 0.81385 0.86223 0.43576 0.0
C1286 C 0.82766 0.87717 0.33952 0.0
C1287 C 0.83668 0.88693 0.2918 0.0
C1288 C 0.83757 0.88726 0.38628 0.0
C1289 C 0.85474 0.90777 0.29087 0.0
C1290 C 0.86513 0.91761 0.33728 0.0
C1291 C 0.8694 0.91477 0.43159 0.0
C1292 C 0.86164 0.90364 0.47906 0.0
C1293 C 0.85723 0.90696 0.38512 0.0
C1294 C 0.84087 0.88548 0.48025 0.0
C1295 C 0.82906 0.87715 0.43411 0.0
H1296 H 0.88884 0.07049 0.08658 0.0
H1297 H 0.83439 0.11631 0.99546 0.0
H1298 H 0.8145 0.13383 0.07488 0.0
H1299 H 0.81546 0.13904 0.17017 0.0
H1300 H 0.86746 0.0907 0.26161 0.0
H1301 H 0.88543 0.07093 0.1823 0.0
C1302 C 0.87231 0.08396 0.08437 0.0
C1303 C 0.86309 0.09227 0.03565 0.0
C1304 C 0.86072 0.09353 0.13012 0.0
C1305 C 0.84162 0.10957 0.03277 0.0
C1306 C 0.83039 0.1197 0.07808 0.0
C1307 C 0.83039 0.12382 0.17248 0.0
C1308 C 0.84028 0.11627 0.22113 0.0
C1309 C 0.84017 0.11225 0.12691 0.0
C1310 C 0.8595 0.09653 0.22428 0.0
C1311 C 0.86986 0.08541 0.17904 0.0
H1312 H 0.64341 0.09716 0.77674 0.0
H1313 H 0.69075 0.15527 0.85492 0.0
H1314 H 0.67957 0.13609 0.93922 0.0
H1315 H 0.65025 0.1079 0.99049 0.0
H1316 H 0.59773 0.05451 0.91224 0.0
H1317 H 0.61717 0.06608 0.82831 0.0
C1318 C 0.65186 0.10499 0.81226 0.0
C1319 C 0.66789 0.12739 0.81016 0.0
C1320 C 0.64415 0.09478 0.86056 0.0
C1321 C 0.67835 0.13794 0.85612 0.0
C1322 C 0.67189 0.12706 0.90418 0.0
C1323 C 0.64385 0.09817 0.95513 0.0
C1324 C 0.62295 0.08024 0.95703 0.0
C1325 C 0.65396 0.10617 0.90696 0.0
C1326 C 0.61405 0.06822 0.91121 0.0
C1327 C 0.625 0.07498 0.86334 0.0
H1328 H 0.65495 0.88841 0.50314 0.0
H1329 H 0.59658 0.94161 0.56363 0.0
H1330 H 0.61173 0.93313 0.65243 0.0
H1331 H 0.63771 0.90609 0.71316 0.0
H1332 H 0.69139 0.84819 0.65246 0.0
H1333 H 0.6824 0.86296 0.56369 0.0
C1334 C 0.64615 0.89863 0.53583 0.0
C1335 C 0.62504 0.91584 0.52737 0.0
C1336 C 0.65399 0.89251 0.58675 0.0
C1337 C 0.61308 0.92846 0.5697 0.0
C1338 C 0.62163 0.9235 0.62034 0.0
C1339 C 0.64785 0.89727 0.6804 0.0
C1340 C 0.66533 0.87636 0.68882 0.0
C1341 C 0.64152 0.90495 0.62945 0.0
C1342 C 0.67794 0.86444 0.64643 0.0
C1343 C 0.67274 0.87281 0.59581 0.0
H1344 H 0.62055 0.56496 0.08267 0.0
H1345 H 0.66693 0.62139 0.998 0.0
H1346 H 0.68511 0.63842 0.07972 0.0
H1347 H 0.68374 0.64012 0.1756 0.0
H1348 H 0.63935 0.58173 0.25964 0.0
H1349 H 0.62463 0.56217 0.1778 0.0
C1350 C 0.63511 0.58058 0.08234 0.0
C1351 C 0.64247 0.59208 0.03506 0.0
C1352 C 0.6456 0.58993 0.12918 0.0
C1353 C 0.66129 0.61222 0.03433 0.0
C1354 C 0.67147 0.62205 0.08093 0.0
C1355 C 0.67125 0.62281 0.17575 0.0
C1356 C 0.6624 0.61242 0.22315 0.0
C1357 C 0.66319 0.6115 0.12862 0.0
C1358 C 0.64644 0.58991 0.22339 0.0
C1359 C 0.63789 0.57886 0.17669 0.0
H1360 H 0.64727 0.38354 0.47334 0.0
H1361 H 0.58816 0.43648 0.41455 0.0
H1362 H 0.60281 0.42823 0.32537 0.0
H1363 H 0.62919 0.40223 0.26407 0.0
H1364 H 0.68365 0.34444 0.32253 0.0
H1365 H 0.67449 0.3583 0.41191 0.0
C1366 C 0.63808 0.39361 0.44088 0.0
C1367 C 0.61696 0.41073 0.44986 0.0
C1368 C 0.64571 0.38771 0.38981 0.0
C1369 C 0.60456 0.42328 0.40796 0.0
C1370 C 0.61288 0.41853 0.35718 0.0
C1371 C 0.63945 0.39321 0.29649 0.0
C1372 C 0.65726 0.37269 0.28734 0.0
C1373 C 0.633 0.40029 0.34757 0.0
C1374 C 0.66998 0.36045 0.32922 0.0
C1375 C 0.66468 0.36828 0.38012 0.0
H1376 H 0.85948 0.40933 0.73872 0.0
H1377 H 0.80663 0.3495 0.68265 0.0
H1378 H 0.81493 0.36294 0.59283 0.0
H1379 H 0.84227 0.38732 0.53037 0.0
H1380 H 0.89993 0.44239 0.58695 0.0
H1381 H 0.88471 0.43572 0.6762 0.0
C1382 C 0.84926 0.39988 0.70673 0.0
C1383 C 0.83233 0.37876 0.71667 0.0
C1384 C 0.85531 0.40672 0.65529 0.0
C1385 C 0.81964 0.36598 0.67534 0.0
C1386 C 0.82448 0.37355 0.62414 0.0
C1387 C 0.8509 0.39829 0.56231 0.0
C1388 C 0.87191 0.41542 0.55278 0.0
C1389 C 0.843 0.39325 0.61359 0.0
C1390 C 0.8836 0.42917 0.59401 0.0
C1391 C 0.87498 0.42529 0.64487 0.0
H1392 H 0.89142 0.57233 0.92563 0.0
H1393 H 0.83338 0.61627 0.01144 0.0
H1394 H 0.81224 0.62976 0.93012 0.0
H1395 H 0.81406 0.63342 0.83481 0.0
H1396 H 0.87061 0.58766 0.74888 0.0
H1397 H 0.88837 0.56986 0.83008 0.0
C1398 C 0.87387 0.58448 0.92626 0.0
C1399 C 0.86403 0.59367 0.97383 0.0
C1400 C 0.86166 0.59172 0.87957 0.0
C1401 C 0.84115 0.60907 0.97491 0.0
C1402 C 0.82918 0.61684 0.92855 0.0
C1403 C 0.82975 0.61894 0.83406 0.0
C1404 C 0.84115 0.6118 0.78651 0.0
C1405 C 0.83974 0.60887 0.8807 0.0
C1406 C 0.86144 0.59311 0.78533 0.0
C1407 C 0.87176 0.58321 0.83167 0.0
H1408 H 0.34812 0.40449 0.77902 0.0
H1409 H 0.30825 0.33963 0.85235 0.0
H1410 H 0.31713 0.35833 0.93812 0.0
H1411 H 0.34286 0.38886 0.99183 0.0
H1412 H 0.38821 0.44985 0.91825 0.0
H1413 H 0.37036 0.43757 0.83324 0.0
C1414 C 0.34072 0.39502 0.81385 0.0
C1415 C 0.32754 0.37091 0.80992 0.0
C1416 C 0.34716 0.40516 0.86299 0.0
C1417 C 0.31847 0.35829 0.85496 0.0
C1418 C 0.32362 0.3689 0.90388 0.0
C1419 C 0.34796 0.39997 0.95726 0.0
C1420 C 0.36637 0.42036 0.96072 0.0
C1421 C 0.33887 0.39174 0.90842 0.0
C1422 C 0.37372 0.43425 0.91596 0.0
C1423 C 0.36371 0.4271 0.86748 0.0
H1424 H 0.32161 0.63181 0.67704 0.0
H1425 H 0.37094 0.5778 0.76168 0.0
H1426 H 0.38756 0.55959 0.6798 0.0
H1427 H 0.39251 0.56394 0.58494 0.0
H1428 H 0.34179 0.61659 0.50015 0.0
H1429 H 0.32071 0.63035 0.58138 0.0
C1430 C 0.3355 0.61558 0.67726 0.0
C1431 C 0.34532 0.60616 0.72466 0.0
C1432 C 0.34473 0.60524 0.63028 0.0
C1433 C 0.36313 0.58512 0.72526 0.0
C1434 C 0.37274 0.57491 0.6786 0.0
C1435 C 0.37635 0.5779 0.58441 0.0
C1436 C 0.36867 0.58947 0.53733 0.0
C1437 C 0.36435 0.5855 0.63101 0.0
C1438 C 0.34775 0.60741 0.5363 0.0
C1439 C 0.33591 0.6154 0.58264 0.0
H1440 H 0.14361 0.62089 0.48571 0.0
H1441 H 0.11179 0.54939 0.42182 0.0
H1442 H 0.12931 0.56068 0.33592 0.0
H1443 H 0.14804 0.59398 0.27721 0.0
H1444 H 0.17411 0.66819 0.33994 0.0
H1445 H 0.16463 0.65301 0.42803 0.0
C1446 C 0.14126 0.60754 0.45311 0.0
C1447 C 0.12694 0.58427 0.4595 0.0
C1448 C 0.14995 0.61496 0.40358 0.0
C1449 C 0.1232 0.56725 0.41729 0.0
C1450 C 0.13298 0.57382 0.3683 0.0
C1451 C 0.1521 0.60653 0.31037 0.0
C1452 C 0.16165 0.6321 0.30251 0.0
C1453 C 0.14555 0.59807 0.36062 0.0
C1454 C 0.16657 0.64845 0.3454 0.0
C1455 C 0.16118 0.63979 0.39566 0.0
H1456 H 0.182 0.35751 0.17234 0.0
H1457 H 0.13273 0.40998 0.26072 0.0
H1458 H 0.11567 0.4293 0.18015 0.0
H1459 H 0.11171 0.42781 0.0845 0.0
H1460 H 0.1634 0.37763 0.99628 0.0
H1461 H 0.18294 0.36086 0.07681 0.0
C1462 C 0.16795 0.37358 0.17371 0.0
C1463 C 0.15848 0.38238 0.22184 0.0
C1464 C 0.15862 0.38475 0.12743 0.0
C1465 C 0.14037 0.40317 0.22378 0.0
C1466 C 0.1305 0.41402 0.17784 0.0
C1467 C 0.12759 0.41356 0.08318 0.0
C1468 C 0.13614 0.40376 0.0351 0.0
C1469 C 0.13901 0.40448 0.12947 0.0
C1470 C 0.15676 0.38547 0.03318 0.0
C1471 C 0.16777 0.37581 0.0791 0.0
loop_
_geom_bond_atom_site_label_1
_geom_bond_atom_site_label_2
_geom_bond_distance
_geom_bond_site_symmetry_2
_ccdc_geom_bond_type
Co0 O1 2.216 . S
Co0 O2 2.091 . S
Co0 O4 2.004 . S
Co0 O10 2.021 . S
Co0 O12 2.137 . S
Co0 O13 2.244 . S
O1 Co0 2.216 . S
O1 C8 1.247 . S
O2 Co0 2.091 . S
O2 C8 1.261 . S
C3 O12 1.247 . S
C3 O13 1.272 . S
O4 Co0 2.004 . S
O4 C9 1.259 . S
Co5 O6 2.061 . S
Co5 O11 2.052 . S
Co5 O13 2.135 . S
O6 Co5 2.061 . S
O6 C9 1.235 . S
C7 O10 1.238 . S
C7 O11 1.241 . S
C8 O1 1.247 . S
C8 O2 1.261 . S
C9 O4 1.259 . S
C9 O6 1.235 . S
O10 Co0 2.021 . S
O10 C7 1.238 . S
O11 Co5 2.052 . S
O11 C7 1.241 . S
O12 Co0 2.137 . S
O12 C3 1.247 . S
O13 Co0 2.244 . S
O13 C3 1.272 . S
O13 Co5 2.135 . S
Co14 O15 2.216 . S
Co14 O16 2.091 . S
Co14 O18 2.004 . S
Co14 O24 2.021 . S
Co14 O26 2.137 . S
Co14 O27 2.244 . S
O15 Co14 2.216 . S
O15 C22 1.247 . S
O16 Co14 2.091 . S
O16 C22 1.261 . S
C17 O26 1.247 . S
C17 O27 1.272 . S
O18 Co14 2.004 . S
O18 C23 1.259 . S
Co19 O20 2.061 . S
Co19 O25 2.052 . S
Co19 O27 2.135 . S
O20 Co19 2.061 . S
O20 C23 1.235 . S
C21 O24 1.238 . S
C21 O25 1.241 . S
C22 O15 1.247 . S
C22 O16 1.261 . S
C23 O18 1.259 . S
C23 O20 1.235 . S
O24 Co14 2.021 . S
O24 C21 1.238 . S
O25 Co19 2.052 . S
O25 C21 1.241 . S
O26 Co14 2.137 . S
O26 C17 1.247 . S
O27 Co14 2.244 . S
O27 C17 1.272 . S
O27 Co19 2.135 . S
Co28 O29 2.216 . S
Co28 O30 2.091 . S
Co28 O32 2.004 . S
Co28 O38 2.021 . S
Co28 O40 2.137 . S
Co28 O41 2.244 . S
O29 Co28 2.216 . S
O29 C36 1.247 . S
O30 Co28 2.091 . S
O30 C36 1.261 . S
C31 O40 1.247 . S
C31 O41 1.272 . S
O32 Co28 2.004 . S
O32 C37 1.259 . S
Co33 O34 2.061 . S
Co33 O39 2.052 . S
Co33 O41 2.135 . S
O34 Co33 2.061 . S
O34 C37 1.235 . S
C35 O38 1.238 . S
C35 O39 1.241 . S
C36 O29 1.247 . S
C36 O30 1.261 . S
C37 O32 1.259 . S
C37 O34 1.235 . S
O38 Co28 2.021 . S
O38 C35 1.238 . S
O39 Co33 2.052 . S
O39 C35 1.241 . S
O40 Co28 2.137 . S
O40 C31 1.247 . S
O41 Co28 2.244 . S
O41 C31 1.272 . S
O41 Co33 2.135 . S
Co42 O43 2.216 . S
Co42 O44 2.091 . S
Co42 O46 2.004 . S
Co42 O52 2.021 . S
Co42 O54 2.137 . S
Co42 O55 2.244 . S
O43 Co42 2.216 . S
O43 C50 1.247 . S
O44 Co42 2.091 . S
O44 C50 1.261 . S
C45 O54 1.247 . S
C45 O55 1.272 . S
O46 Co42 2.004 . S
O46 C51 1.259 . S
Co47 O48 2.061 . S
Co47 O53 2.052 . S
Co47 O55 2.135 . S
O48 Co47 2.061 . S
O48 C51 1.235 . S
C49 O52 1.238 . S
C49 O53 1.241 . S
C50 O43 1.247 . S
C50 O44 1.261 . S
C51 O46 1.259 . S
C51 O48 1.235 . S
O52 Co42 2.021 . S
O52 C49 1.238 . S
O53 Co47 2.052 . S
O53 C49 1.241 . S
O54 Co42 2.137 . S
O54 C45 1.247 . S
O55 Co42 2.244 . S
O55 C45 1.272 . S
O55 Co47 2.135 . S
Co56 O57 2.216 . S
Co56 O58 2.091 . S
Co56 O60 2.004 . S
Co56 O66 2.021 . S
Co56 O68 2.137 . S
Co56 O69 2.244 . S
O57 Co56 2.216 . S
O57 C64 1.247 . S
O58 Co56 2.091 . S
O58 C64 1.261 . S
C59 O68 1.247 . S
C59 O69 1.272 . S
O60 Co56 2.004 . S
O60 C65 1.259 . S
Co61 O62 2.061 . S
Co61 O67 2.052 . S
Co61 O69 2.135 . S
O62 Co61 2.061 . S
O62 C65 1.235 . S
C63 O66 1.238 . S
C63 O67 1.241 . S
C64 O57 1.247 . S
C64 O58 1.261 . S
C65 O60 1.259 . S
C65 O62 1.235 . S
O66 Co56 2.021 . S
O66 C63 1.238 . S
O67 Co61 2.052 . S
O67 C63 1.241 . S
O68 Co56 2.137 . S
O68 C59 1.247 . S
O69 Co56 2.244 . S
O69 C59 1.272 . S
O69 Co61 2.135 . S
Co70 O71 2.216 . S
Co70 O72 2.091 . S
Co70 O74 2.004 . S
Co70 O80 2.021 . S
Co70 O82 2.137 . S
Co70 O83 2.244 . S
O71 Co70 2.216 . S
O71 C78 1.247 . S
O72 Co70 2.091 . S
O72 C78 1.261 . S
C73 O82 1.247 . S
C73 O83 1.272 . S
O74 Co70 2.004 . S
O74 C79 1.259 . S
Co75 O76 2.061 . S
Co75 O81 2.052 . S
Co75 O83 2.135 . S
O76 Co75 2.061 . S
O76 C79 1.235 . S
C77 O80 1.238 . S
C77 O81 1.241 . S
C78 O71 1.247 . S
C78 O72 1.261 . S
C79 O74 1.259 . S
C79 O76 1.235 . S
O80 Co70 2.021 . S
O80 C77 1.238 . S
O81 Co75 2.052 . S
O81 C77 1.241 . S
O82 Co70 2.137 . S
O82 C73 1.247 . S
O83 Co70 2.244 . S
O83 C73 1.272 . S
O83 Co75 2.135 . S
Co84 O85 2.216 . S
Co84 O86 2.091 . S
Co84 O88 2.004 . S
Co84 O94 2.021 . S
Co84 O96 2.137 . S
Co84 O97 2.244 . S
O85 Co84 2.216 . S
O85 C92 1.247 . S
O86 Co84 2.091 . S
O86 C92 1.261 . S
C87 O96 1.247 . S
C87 O97 1.272 . S
O88 Co84 2.004 . S
O88 C93 1.259 . S
Co89 O90 2.061 . S
Co89 O95 2.052 . S
Co89 O97 2.135 . S
O90 Co89 2.061 . S
O90 C93 1.235 . S
C91 O94 1.238 . S
C91 O95 1.241 . S
C92 O85 1.247 . S
C92 O86 1.261 . S
C93 O88 1.259 . S
C93 O90 1.235 . S
O94 Co84 2.021 . S
O94 C91 1.238 . S
O95 Co89 2.052 . S
O95 C91 1.241 . S
O96 Co84 2.137 . S
O96 C87 1.247 . S
O97 Co84 2.244 . S
O97 C87 1.272 . S
O97 Co89 2.135 . S
Co98 O99 2.216 . S
Co98 O100 2.091 . S
Co98 O102 2.004 . S
Co98 O108 2.021 . S
Co98 O110 2.137 . S
Co98 O111 2.244 . S
O99 Co98 2.216 . S
O99 C106 1.247 . S
O100 Co98 2.091 . S
O100 C106 1.261 . S
C101 O110 1.247 . S
C101 O111 1.272 . S
O102 Co98 2.004 . S
O102 C107 1.259 . S
Co103 O104 2.061 . S
Co103 O109 2.052 . S
Co103 O111 2.135 . S
O104 Co103 2.061 . S
O104 C107 1.235 . S
C105 O108 1.238 . S
C105 O109 1.241 . S
C106 O99 1.247 . S
C106 O100 1.261 . S
C107 O102 1.259 . S
C107 O104 1.235 . S
O108 Co98 2.021 . S
O108 C105 1.238 . S
O109 Co103 2.052 . S
O109 C105 1.241 . S
O110 Co98 2.137 . S
O110 C101 1.247 . S
O111 Co98 2.244 . S
O111 C101 1.272 . S
O111 Co103 2.135 . S
Co112 O113 2.216 . S
Co112 O114 2.091 . S
Co112 O116 2.004 . S
Co112 O122 2.021 . S
Co112 O124 2.137 . S
Co112 O125 2.244 . S
O113 Co112 2.216 . S
O113 C120 1.247 . S
O114 Co112 2.091 . S
O114 C120 1.261 . S
C115 O124 1.247 . S
C115 O125 1.272 . S
O116 Co112 2.004 . S
O116 C121 1.259 . S
Co117 O118 2.061 . S
Co117 O123 2.052 . S
Co117 O125 2.135 . S
O118 Co117 2.061 . S
O118 C121 1.235 . S
C119 O122 1.238 . S
C119 O123 1.241 . S
C120 O113 1.247 . S
C120 O114 1.261 . S
C121 O116 1.259 . S
C121 O118 1.235 . S
O122 Co112 2.021 . S
O122 C119 1.238 . S
O123 Co117 2.052 . S
O123 C119 1.241 . S
O124 Co112 2.137 . S
O124 C115 1.247 . S
O125 Co112 2.244 . S
O125 C115 1.272 . S
O125 Co117 2.135 . S
Co126 O127 2.216 . S
Co126 O128 2.091 . S
Co126 O130 2.004 . S
Co126 O136 2.021 . S
Co126 O138 2.137 . S
Co126 O139 2.244 . S
O127 Co126 2.216 . S
O127 C134 1.247 . S
O128 Co126 2.091 . S
O128 C134 1.261 . S
C129 O138 1.247 . S
C129 O139 1.272 . S
O130 Co126 2.004 . S
O130 C135 1.259 . S
Co131 O132 2.061 . S
Co131 O137 2.052 . S
Co131 O139 2.135 . S
O132 Co131 2.061 . S
O132 C135 1.235 . S
C133 O136 1.238 . S
C133 O137 1.241 . S
C134 O127 1.247 . S
C134 O128 1.261 . S
C135 O130 1.259 . S
C135 O132 1.235 . S
O136 Co126 2.021 . S
O136 C133 1.238 . S
O137 Co131 2.052 . S
O137 C133 1.241 . S
O138 Co126 2.137 . S
O138 C129 1.247 . S
O139 Co126 2.244 . S
O139 C129 1.272 . S
O139 Co131 2.135 . S
Co140 O141 2.216 . S
Co140 O142 2.091 . S
Co140 O144 2.004 . S
Co140 O150 2.021 . S
Co140 O152 2.137 . S
Co140 O153 2.244 . S
O141 Co140 2.216 . S
O141 C148 1.247 . S
O142 Co140 2.091 . S
O142 C148 1.261 . S
C143 O152 1.247 . S
C143 O153 1.272 . S
O144 Co140 2.004 . S
O144 C149 1.259 . S
Co145 O146 2.061 . S
Co145 O151 2.052 . S
Co145 O153 2.135 . S
O146 Co145 2.061 . S
O146 C149 1.235 . S
C147 O150 1.238 . S
C147 O151 1.241 . S
C148 O141 1.247 . S
C148 O142 1.261 . S
C149 O144 1.259 . S
C149 O146 1.235 . S
O150 Co140 2.021 . S
O150 C147 1.238 . S
O151 Co145 2.052 . S
O151 C147 1.241 . S
O152 Co140 2.137 . S
O152 C143 1.247 . S
O153 Co140 2.244 . S
O153 C143 1.272 . S
O153 Co145 2.135 . S
Co154 O155 2.216 . S
Co154 O156 2.091 . S
Co154 O158 2.004 . S
Co154 O164 2.021 . S
Co154 O166 2.137 . S
Co154 O167 2.244 . S
O155 Co154 2.216 . S
O155 C162 1.247 . S
O156 Co154 2.091 . S
O156 C162 1.261 . S
C157 O166 1.247 . S
C157 O167 1.272 . S
O158 Co154 2.004 . S
O158 C163 1.259 . S
Co159 O160 2.061 . S
Co159 O165 2.052 . S
Co159 O167 2.135 . S
O160 Co159 2.061 . S
O160 C163 1.235 . S
C161 O164 1.238 . S
C161 O165 1.241 . S
C162 O155 1.247 . S
C162 O156 1.261 . S
C163 O158 1.259 . S
C163 O160 1.235 . S
O164 Co154 2.021 . S
O164 C161 1.238 . S
O165 Co159 2.052 . S
O165 C161 1.241 . S
O166 Co154 2.137 . S
O166 C157 1.247 . S
O167 Co154 2.244 . S
O167 C157 1.272 . S
O167 Co159 2.135 . S
Co168 O169 2.216 . S
Co168 O170 2.091 . S
Co168 O172 2.004 . S
Co168 O178 2.021 . S
Co168 O180 2.137 . S
Co168 O181 2.244 . S
O169 Co168 2.216 . S
O169 C176 1.247 . S
O170 Co168 2.091 . S
O170 C176 1.261 . S
C171 O180 1.247 . S
C171 O181 1.272 . S
O172 Co168 2.004 . S
O172 C177 1.259 . S
Co173 O174 2.061 . S
Co173 O179 2.052 . S
Co173 O181 2.135 . S
O174 Co173 2.061 . S
O174 C177 1.235 . S
C175 O178 1.238 . S
C175 O179 1.241 . S
C176 O169 1.247 . S
C176 O170 1.261 . S
C177 O172 1.259 . S
C177 O174 1.235 . S
O178 Co168 2.021 . S
O178 C175 1.238 . S
O179 Co173 2.052 . S
O179 C175 1.241 . S
O180 Co168 2.137 . S
O180 C171 1.247 . S
O181 Co168 2.244 . S
O181 C171 1.272 . S
O181 Co173 2.135 . S
Co182 O183 2.216 . S
Co182 O184 2.091 . S
Co182 O186 2.004 . S
Co182 O192 2.021 . S
Co182 O194 2.137 . S
Co182 O195 2.244 . S
O183 Co182 2.216 . S
O183 C190 1.247 . S
O184 Co182 2.091 . S
O184 C190 1.261 . S
C185 O194 1.247 . S
C185 O195 1.272 . S
O186 Co182 2.004 . S
O186 C191 1.259 . S
Co187 O188 2.061 . S
Co187 O193 2.052 . S
Co187 O195 2.135 . S
O188 Co187 2.061 . S
O188 C191 1.235 . S
C189 O192 1.238 . S
C189 O193 1.241 . S
C190 O183 1.247 . S
C190 O184 1.261 . S
C191 O186 1.259 . S
C191 O188 1.235 . S
O192 Co182 2.021 . S
O192 C189 1.238 . S
O193 Co187 2.052 . S
O193 C189 1.241 . S
O194 Co182 2.137 . S
O194 C185 1.247 . S
O195 Co182 2.244 . S
O195 C185 1.272 . S
O195 Co187 2.135 . S
Co196 O197 2.216 . S
Co196 O198 2.091 . S
Co196 O200 2.004 . S
Co196 O206 2.021 . S
Co196 O208 2.137 . S
Co196 O209 2.244 . S
O197 Co196 2.216 . S
O197 C204 1.247 . S
O198 Co196 2.091 . S
O198 C204 1.261 . S
C199 O208 1.247 . S
C199 O209 1.272 . S
O200 Co196 2.004 . S
O200 C205 1.259 . S
Co201 O202 2.061 . S
Co201 O207 2.052 . S
Co201 O209 2.135 . S
O202 Co201 2.061 . S
O202 C205 1.235 . S
C203 O206 1.238 . S
C203 O207 1.241 . S
C204 O197 1.247 . S
C204 O198 1.261 . S
C205 O200 1.259 . S
C205 O202 1.235 . S
O206 Co196 2.021 . S
O206 C203 1.238 . S
O207 Co201 2.052 . S
O207 C203 1.241 . S
O208 Co196 2.137 . S
O208 C199 1.247 . S
O209 Co196 2.244 . S
O209 C199 1.272 . S
O209 Co201 2.135 . S
Co210 O211 2.216 . S
Co210 O212 2.091 . S
Co210 O214 2.004 . S
Co210 O220 2.021 . S
Co210 O222 2.137 . S
Co210 O223 2.244 . S
O211 Co210 2.216 . S
O211 C218 1.247 . S
O212 Co210 2.091 . S
O212 C218 1.261 . S
C213 O222 1.247 . S
C213 O223 1.272 . S
O214 Co210 2.004 . S
O214 C219 1.259 . S
Co215 O216 2.061 . S
Co215 O221 2.052 . S
Co215 O223 2.135 . S
O216 Co215 2.061 . S
O216 C219 1.235 . S
C217 O220 1.238 . S
C217 O221 1.241 . S
C218 O211 1.247 . S
C218 O212 1.261 . S
C219 O214 1.259 . S
C219 O216 1.235 . S
O220 Co210 2.021 . S
O220 C217 1.238 . S
O221 Co215 2.052 . S
O221 C217 1.241 . S
O222 Co210 2.137 . S
O222 C213 1.247 . S
O223 Co210 2.244 . S
O223 C213 1.272 . S
O223 Co215 2.135 . S
Co224 O225 2.216 . S
Co224 O226 2.091 . S
Co224 O228 2.004 . S
Co224 O234 2.021 . S
Co224 O236 2.137 . S
Co224 O237 2.244 . S
O225 Co224 2.216 . S
O225 C232 1.247 . S
O226 Co224 2.091 . S
O226 C232 1.261 . S
C227 O236 1.247 . S
C227 O237 1.272 . S
O228 Co224 2.004 . S
O228 C233 1.259 . S
Co229 O230 2.061 . S
Co229 O235 2.052 . S
Co229 O237 2.135 . S
O230 Co229 2.061 . S
O230 C233 1.235 . S
C231 O234 1.238 . S
C231 O235 1.241 . S
C232 O225 1.247 . S
C232 O226 1.261 . S
C233 O228 1.259 . S
C233 O230 1.235 . S
O234 Co224 2.021 . S
O234 C231 1.238 . S
O235 Co229 2.052 . S
O235 C231 1.241 . S
O236 Co224 2.137 . S
O236 C227 1.247 . S
O237 Co224 2.244 . S
O237 C227 1.272 . S
O237 Co229 2.135 . S
Co238 O239 2.216 . S
Co238 O240 2.091 . S
Co238 O242 2.004 . S
Co238 O248 2.021 . S
Co238 O250 2.137 . S
Co238 O251 2.244 . S
O239 Co238 2.216 . S
O239 C246 1.247 . S
O240 Co238 2.091 . S
O240 C246 1.261 . S
C241 O250 1.247 . S
C241 O251 1.272 . S
O242 Co238 2.004 . S
O242 C247 1.259 . S
Co243 O244 2.061 . S
Co243 O249 2.052 . S
Co243 O251 2.135 . S
O244 Co243 2.061 . S
O244 C247 1.235 . S
C245 O248 1.238 . S
C245 O249 1.241 . S
C246 O239 1.247 . S
C246 O240 1.261 . S
C247 O242 1.259 . S
C247 O244 1.235 . S
O248 Co238 2.021 . S
O248 C245 1.238 . S
O249 Co243 2.052 . S
O249 C245 1.241 . S
O250 Co238 2.137 . S
O250 C241 1.247 . S
O251 Co238 2.244 . S
O251 C241 1.272 . S
O251 Co243 2.135 . S
Co252 O253 2.216 . S
Co252 O254 2.091 . S
Co252 O256 2.004 . S
Co252 O262 2.021 . S
Co252 O264 2.137 . S
Co252 O265 2.244 . S
O253 Co252 2.216 . S
O253 C260 1.247 . S
O254 Co252 2.091 . S
O254 C260 1.261 . S
C255 O264 1.247 . S
C255 O265 1.272 . S
O256 Co252 2.004 . S
O256 C261 1.259 . S
Co257 O258 2.061 . S
Co257 O263 2.052 . S
Co257 O265 2.135 . S
O258 Co257 2.061 . S
O258 C261 1.235 . S
C259 O262 1.238 . S
C259 O263 1.241 . S
C260 O253 1.247 . S
C260 O254 1.261 . S
C261 O256 1.259 . S
C261 O258 1.235 . S
O262 Co252 2.021 . S
O262 C259 1.238 . S
O263 Co257 2.052 . S
O263 C259 1.241 . S
O264 Co252 2.137 . S
O264 C255 1.247 . S
O265 Co252 2.244 . S
O265 C255 1.272 . S
O265 Co257 2.135 . S
Co266 O267 2.216 . S
Co266 O268 2.091 . S
Co266 O270 2.004 . S
Co266 O276 2.021 . S
Co266 O278 2.137 . S
Co266 O279 2.244 . S
O267 Co266 2.216 . S
O267 C274 1.247 . S
O268 Co266 2.091 . S
O268 C274 1.261 . S
C269 O278 1.247 . S
C269 O279 1.272 . S
O270 Co266 2.004 . S
O270 C275 1.259 . S
Co271 O272 2.061 . S
Co271 O277 2.052 . S
Co271 O279 2.135 . S
O272 Co271 2.061 . S
O272 C275 1.235 . S
C273 O276 1.238 . S
C273 O277 1.241 . S
C274 O267 1.247 . S
C274 O268 1.261 . S
C275 O270 1.259 . S
C275 O272 1.235 . S
O276 Co266 2.021 . S
O276 C273 1.238 . S
O277 Co271 2.052 . S
O277 C273 1.241 . S
O278 Co266 2.137 . S
O278 C269 1.247 . S
O279 Co266 2.244 . S
O279 C269 1.272 . S
O279 Co271 2.135 . S
Co280 O281 2.216 . S
Co280 O282 2.091 . S
Co280 O284 2.004 . S
Co280 O290 2.021 . S
Co280 O292 2.137 . S
Co280 O293 2.244 . S
O281 Co280 2.216 . S
O281 C288 1.247 . S
O282 Co280 2.091 . S
O282 C288 1.261 . S
C283 O292 1.247 . S
C283 O293 1.272 . S
O284 Co280 2.004 . S
O284 C289 1.259 . S
Co285 O286 2.061 . S
Co285 O291 2.052 . S
Co285 O293 2.135 . S
O286 Co285 2.061 . S
O286 C289 1.235 . S
C287 O290 1.238 . S
C287 O291 1.241 . S
C288 O281 1.247 . S
C288 O282 1.261 . S
C289 O284 1.259 . S
C289 O286 1.235 . S
O290 Co280 2.021 . S
O290 C287 1.238 . S
O291 Co285 2.052 . S
O291 C287 1.241 . S
O292 Co280 2.137 . S
O292 C283 1.247 . S
O293 Co280 2.244 . S
O293 C283 1.272 . S
O293 Co285 2.135 . S
Co294 O295 2.216 . S
Co294 O296 2.091 . S
Co294 O298 2.004 . S
Co294 O304 2.021 . S
Co294 O306 2.137 . S
Co294 O307 2.244 . S
O295 Co294 2.216 . S
O295 C302 1.247 . S
O296 Co294 2.091 . S
O296 C302 1.261 . S
C297 O306 1.247 . S
C297 O307 1.272 . S
O298 Co294 2.004 . S
O298 C303 1.259 . S
Co299 O300 2.061 . S
Co299 O305 2.052 . S
Co299 O307 2.135 . S
O300 Co299 2.061 . S
O300 C303 1.235 . S
C301 O304 1.238 . S
C301 O305 1.241 . S
C302 O295 1.247 . S
C302 O296 1.261 . S
C303 O298 1.259 . S
C303 O300 1.235 . S
O304 Co294 2.021 . S
O304 C301 1.238 . S
O305 Co299 2.052 . S
O305 C301 1.241 . S
O306 Co294 2.137 . S
O306 C297 1.247 . S
O307 Co294 2.244 . S
O307 C297 1.272 . S
O307 Co299 2.135 . S
Co308 O309 2.216 . S
Co308 O310 2.091 . S
Co308 O312 2.004 . S
Co308 O318 2.021 . S
Co308 O320 2.137 . S
Co308 O321 2.244 . S
O309 Co308 2.216 . S
O309 C316 1.247 . S
O310 Co308 2.091 . S
O310 C316 1.261 . S
C311 O320 1.247 . S
C311 O321 1.272 . S
O312 Co308 2.004 . S
O312 C317 1.259 . S
Co313 O314 2.061 . S
Co313 O319 2.052 . S
Co313 O321 2.135 . S
O314 Co313 2.061 . S
O314 C317 1.235 . S
C315 O318 1.238 . S
C315 O319 1.241 . S
C316 O309 1.247 . S
C316 O310 1.261 . S
C317 O312 1.259 . S
C317 O314 1.235 . S
O318 Co308 2.021 . S
O318 C315 1.238 . S
O319 Co313 2.052 . S
O319 C315 1.241 . S
O320 Co308 2.137 . S
O320 C311 1.247 . S
O321 Co308 2.244 . S
O321 C311 1.272 . S
O321 Co313 2.135 . S
Co322 O323 2.216 . S
Co322 O324 2.091 . S
Co322 O326 2.004 . S
Co322 O332 2.021 . S
Co322 O334 2.137 . S
Co322 O335 2.244 . S
O323 Co322 2.216 . S
O323 C330 1.247 . S
O324 Co322 2.091 . S
O324 C330 1.261 . S
C325 O334 1.247 . S
C325 O335 1.272 . S
O326 Co322 2.004 . S
O326 C331 1.259 . S
Co327 O328 2.061 . S
Co327 O333 2.052 . S
Co327 O335 2.135 . S
O328 Co327 2.061 . S
O328 C331 1.235 . S
C329 O332 1.238 . S
C329 O333 1.241 . S
C330 O323 1.247 . S
C330 O324 1.261 . S
C331 O326 1.259 . S
C331 O328 1.235 . S
O332 Co322 2.021 . S
O332 C329 1.238 . S
O333 Co327 2.052 . S
O333 C329 1.241 . S
O334 Co322 2.137 . S
O334 C325 1.247 . S
O335 Co322 2.244 . S
O335 C325 1.272 . S
O335 Co327 2.135 . S
Co336 O337 2.216 . S
Co336 O338 2.091 . S
Co336 O340 2.004 . S
Co336 O346 2.021 . S
Co336 O348 2.137 . S
Co336 O349 2.244 . S
O337 Co336 2.216 . S
O337 C344 1.247 . S
O338 Co336 2.091 . S
O338 C344 1.261 . S
C339 O348 1.247 . S
C339 O349 1.272 . S
O340 Co336 2.004 . S
O340 C345 1.259 . S
Co341 O342 2.061 . S
Co341 O347 2.052 . S
Co341 O349 2.135 . S
O342 Co341 2.061 . S
O342 C345 1.235 . S
C343 O346 1.238 . S
C343 O347 1.241 . S
C344 O337 1.247 . S
C344 O338 1.261 . S
C345 O340 1.259 . S
C345 O342 1.235 . S
O346 Co336 2.021 . S
O346 C343 1.238 . S
O347 Co341 2.052 . S
O347 C343 1.241 . S
O348 Co336 2.137 . S
O348 C339 1.247 . S
O349 Co336 2.244 . S
O349 C339 1.272 . S
O349 Co341 2.135 . S
Co350 O351 2.216 . S
Co350 O352 2.091 . S
Co350 O354 2.004 . S
Co350 O360 2.021 . S
Co350 O362 2.137 . S
Co350 O363 2.244 . S
O351 Co350 2.216 . S
O351 C358 1.247 . S
O352 Co350 2.091 . S
O352 C358 1.261 . S
C353 O362 1.247 . S
C353 O363 1.272 . S
O354 Co350 2.004 . S
O354 C359 1.259 . S
Co355 O356 2.061 . S
Co355 O361 2.052 . S
Co355 O363 2.135 . S
O356 Co355 2.061 . S
O356 C359 1.235 . S
C357 O360 1.238 . S
C357 O361 1.241 . S
C358 O351 1.247 . S
C358 O352 1.261 . S
C359 O354 1.259 . S
C359 O356 1.235 . S
O360 Co350 2.021 . S
O360 C357 1.238 . S
O361 Co355 2.052 . S
O361 C357 1.241 . S
O362 Co350 2.137 . S
O362 C353 1.247 . S
O363 Co350 2.244 . S
O363 C353 1.272 . S
O363 Co355 2.135 . S
Co364 O365 2.216 . S
Co364 O366 2.091 . S
Co364 O368 2.004 . S
Co364 O374 2.021 . S
Co364 O376 2.137 . S
Co364 O377 2.244 . S
O365 Co364 2.216 . S
O365 C372 1.247 . S
O366 Co364 2.091 . S
O366 C372 1.261 . S
C367 O376 1.247 . S
C367 O377 1.272 . S
O368 Co364 2.004 . S
O368 C373 1.259 . S
Co369 O370 2.061 . S
Co369 O375 2.052 . S
Co369 O377 2.135 . S
O370 Co369 2.061 . S
O370 C373 1.235 . S
C371 O374 1.238 . S
C371 O375 1.241 . S
C372 O365 1.247 . S
C372 O366 1.261 . S
C373 O368 1.259 . S
C373 O370 1.235 . S
O374 Co364 2.021 . S
O374 C371 1.238 . S
O375 Co369 2.052 . S
O375 C371 1.241 . S
O376 Co364 2.137 . S
O376 C367 1.247 . S
O377 Co364 2.244 . S
O377 C367 1.272 . S
O377 Co369 2.135 . S
Co378 O379 2.216 . S
Co378 O380 2.091 . S
Co378 O382 2.004 . S
Co378 O388 2.021 . S
Co378 O390 2.137 . S
Co378 O391 2.244 . S
O379 Co378 2.216 . S
O379 C386 1.247 . S
O380 Co378 2.091 . S
O380 C386 1.261 . S
C381 O390 1.247 . S
C381 O391 1.272 . S
O382 Co378 2.004 . S
O382 C387 1.259 . S
Co383 O384 2.061 . S
Co383 O389 2.052 . S
Co383 O391 2.135 . S
O384 Co383 2.061 . S
O384 C387 1.235 . S
C385 O388 1.238 . S
C385 O389 1.241 . S
C386 O379 1.247 . S
C386 O380 1.261 . S
C387 O382 1.259 . S
C387 O384 1.235 . S
O388 Co378 2.021 . S
O388 C385 1.238 . S
O389 Co383 2.052 . S
O389 C385 1.241 . S
O390 Co378 2.137 . S
O390 C381 1.247 . S
O391 Co378 2.244 . S
O391 C381 1.272 . S
O391 Co383 2.135 . S
Co392 O393 2.216 . S
Co392 O394 2.091 . S
Co392 O396 2.004 . S
Co392 O402 2.021 . S
Co392 O404 2.137 . S
Co392 O405 2.244 . S
O393 Co392 2.216 . S
O393 C400 1.247 . S
O394 Co392 2.091 . S
O394 C400 1.261 . S
C395 O404 1.247 . S
C395 O405 1.272 . S
O396 Co392 2.004 . S
O396 C401 1.259 . S
Co397 O398 2.061 . S
Co397 O403 2.052 . S
Co397 O405 2.135 . S
O398 Co397 2.061 . S
O398 C401 1.235 . S
C399 O402 1.238 . S
C399 O403 1.241 . S
C400 O393 1.247 . S
C400 O394 1.261 . S
C401 O396 1.259 . S
C401 O398 1.235 . S
O402 Co392 2.021 . S
O402 C399 1.238 . S
O403 Co397 2.052 . S
O403 C399 1.241 . S
O404 Co392 2.137 . S
O404 C395 1.247 . S
O405 Co392 2.244 . S
O405 C395 1.272 . S
O405 Co397 2.135 . S
Co406 O407 2.216 . S
Co406 O408 2.091 . S
Co406 O410 2.004 . S
Co406 O416 2.021 . S
Co406 O418 2.137 . S
Co406 O419 2.244 . S
O407 Co406 2.216 . S
O407 C414 1.247 . S
O408 Co406 2.091 . S
O408 C414 1.261 . S
C409 O418 1.247 . S
C409 O419 1.272 . S
O410 Co406 2.004 . S
O410 C415 1.259 . S
Co411 O412 2.061 . S
Co411 O417 2.052 . S
Co411 O419 2.135 . S
O412 Co411 2.061 . S
O412 C415 1.235 . S
C413 O416 1.238 . S
C413 O417 1.241 . S
C414 O407 1.247 . S
C414 O408 1.261 . S
C415 O410 1.259 . S
C415 O412 1.235 . S
O416 Co406 2.021 . S
O416 C413 1.238 . S
O417 Co411 2.052 . S
O417 C413 1.241 . S
O418 Co406 2.137 . S
O418 C409 1.247 . S
O419 Co406 2.244 . S
O419 C409 1.272 . S
O419 Co411 2.135 . S
Co420 O421 2.216 . S
Co420 O422 2.091 . S
Co420 O424 2.004 . S
Co420 O430 2.021 . S
Co420 O432 2.137 . S
Co420 O433 2.244 . S
O421 Co420 2.216 . S
O421 C428 1.247 . S
O422 Co420 2.091 . S
O422 C428 1.261 . S
C423 O432 1.247 . S
C423 O433 1.272 . S
O424 Co420 2.004 . S
O424 C429 1.259 . S
Co425 O426 2.061 . S
Co425 O431 2.052 . S
Co425 O433 2.135 . S
O426 Co425 2.061 . S
O426 C429 1.235 . S
C427 O430 1.238 . S
C427 O431 1.241 . S
C428 O421 1.247 . S
C428 O422 1.261 . S
C429 O424 1.259 . S
C429 O426 1.235 . S
O430 Co420 2.021 . S
O430 C427 1.238 . S
O431 Co425 2.052 . S
O431 C427 1.241 . S
O432 Co420 2.137 . S
O432 C423 1.247 . S
O433 Co420 2.244 . S
O433 C423 1.272 . S
O433 Co425 2.135 . S
Co434 O435 2.216 . S
Co434 O436 2.091 . S
Co434 O438 2.004 . S
Co434 O444 2.021 . S
Co434 O446 2.137 . S
Co434 O447 2.244 . S
O435 Co434 2.216 . S
O435 C442 1.247 . S
O436 Co434 2.091 . S
O436 C442 1.261 . S
C437 O446 1.247 . S
C437 O447 1.272 . S
O438 Co434 2.004 . S
O438 C443 1.259 . S
Co439 O440 2.061 . S
Co439 O445 2.052 . S
Co439 O447 2.135 . S
O440 Co439 2.061 . S
O440 C443 1.235 . S
C441 O444 1.238 . S
C441 O445 1.241 . S
C442 O435 1.247 . S
C442 O436 1.261 . S
C443 O438 1.259 . S
C443 O440 1.235 . S
O444 Co434 2.021 . S
O444 C441 1.238 . S
O445 Co439 2.052 . S
O445 C441 1.241 . S
O446 Co434 2.137 . S
O446 C437 1.247 . S
O447 Co434 2.244 . S
O447 C437 1.272 . S
O447 Co439 2.135 . S
H448 C454 0.930 . S
H449 C457 0.930 . S
H450 C458 0.930 . S
H451 C459 0.930 . S
H452 C462 0.930 . S
H453 C463 0.930 . S
C454 H448 0.930 . S
C454 C455 1.355 . S
C454 C456 1.415 . S
C455 C454 1.355 . S
C455 C457 1.419 . S
C456 C454 1.415 . S
C456 C461 1.425 1_545 S
C456 C463 1.409 . S
C457 H449 0.930 . S
C457 C455 1.419 . S
C457 C458 1.362 1_545 S
C458 H450 0.930 . S
C458 C457 1.362 1_565 S
C458 C461 1.409 . S
C459 H451 0.930 . S
C459 C460 1.355 . S
C459 C461 1.415 . S
C460 C459 1.355 . S
C460 C462 1.419 . S
C461 C456 1.425 1_565 S
C461 C458 1.409 . S
C461 C459 1.415 . S
C462 H452 0.930 . S
C462 C460 1.419 . S
C462 C463 1.362 1_565 S
C463 H453 0.930 . S
C463 C456 1.409 . S
C463 C462 1.362 1_545 S
H464 C470 0.930 . S
H465 C473 0.930 . S
H466 C474 0.930 . S
H467 C475 0.930 . S
H468 C478 0.930 . S
H469 C479 0.930 . S
C470 H464 0.930 . S
C470 C471 1.355 . S
C470 C472 1.415 . S
C471 C470 1.355 . S
C471 C473 1.419 . S
C472 C470 1.415 . S
C472 C477 1.425 . S
C472 C479 1.409 . S
C473 H465 0.930 . S
C473 C471 1.419 . S
C473 C474 1.362 . S
C474 H466 0.930 . S
C474 C473 1.362 . S
C474 C477 1.409 . S
C475 H467 0.930 . S
C475 C476 1.355 . S
C475 C477 1.415 . S
C476 C475 1.355 . S
C476 C478 1.419 . S
C477 C472 1.425 . S
C477 C474 1.409 . S
C477 C475 1.415 . S
C478 H468 0.930 . S
C478 C476 1.419 . S
C478 C479 1.362 . S
C479 H469 0.930 . S
C479 C472 1.409 . S
C479 C478 1.362 . S
H480 C486 0.930 . S
H481 C489 0.930 . S
H482 C490 0.930 . S
H483 C491 0.930 . S
H484 C494 0.930 . S
H485 C495 0.930 . S
C486 H480 0.930 . S
C486 C487 1.355 . S
C486 C488 1.415 . S
C487 C486 1.355 . S
C487 C489 1.419 . S
C488 C486 1.415 . S
C488 C493 1.425 1_545 S
C488 C495 1.409 1_545 S
C489 H481 0.930 . S
C489 C487 1.419 . S
C489 C490 1.362 . S
C490 H482 0.930 . S
C490 C489 1.362 . S
C490 C493 1.409 1_545 S
C491 H483 0.930 . S
C491 C492 1.355 . S
C491 C493 1.415 . S
C492 C491 1.355 . S
C492 C494 1.419 . S
C493 C488 1.425 1_565 S
C493 C490 1.409 1_565 S
C493 C491 1.415 . S
C494 H484 0.930 . S
C494 C492 1.419 . S
C494 C495 1.362 . S
C495 H485 0.930 . S
C495 C488 1.409 1_565 S
C495 C494 1.362 . S
H496 C502 0.930 . S
H497 C505 0.930 . S
H498 C506 0.930 . S
H499 C507 0.930 . S
H500 C510 0.930 . S
H501 C511 0.930 . S
C502 H496 0.930 . S
C502 C503 1.355 . S
C502 C504 1.415 1_556 S
C503 C502 1.355 . S
C503 C505 1.419 . S
C504 C502 1.415 1_554 S
C504 C509 1.425 1_554 S
C504 C511 1.409 . S
C505 H497 0.930 . S
C505 C503 1.419 . S
C505 C506 1.362 . S
C506 H498 0.930 . S
C506 C505 1.362 . S
C506 C509 1.409 . S
C507 H499 0.930 . S
C507 C508 1.355 . S
C507 C509 1.415 1_554 S
C508 C507 1.355 . S
C508 C510 1.419 . S
C509 C504 1.425 1_556 S
C509 C506 1.409 . S
C509 C507 1.415 1_556 S
C510 H500 0.930 . S
C510 C508 1.419 . S
C510 C511 1.362 . S
C511 H501 0.930 . S
C511 C504 1.409 . S
C511 C510 1.362 . S
H512 C518 0.930 . S
H513 C521 0.930 . S
H514 C522 0.930 . S
H515 C523 0.930 . S
H516 C526 0.930 . S
H517 C527 0.930 . S
C518 H512 0.930 . S
C518 C519 1.355 . S
C518 C520 1.415 . S
C519 C518 1.355 . S
C519 C521 1.419 . S
C520 C518 1.415 . S
C520 C525 1.425 1_565 S
C520 C527 1.409 1_565 S
C521 H513 0.930 . S
C521 C519 1.419 . S
C521 C522 1.362 . S
C522 H514 0.930 . S
C522 C521 1.362 . S
C522 C525 1.409 1_565 S
C523 H515 0.930 . S
C523 C524 1.355 . S
C523 C525 1.415 . S
C524 C523 1.355 . S
C524 C526 1.419 . S
C525 C520 1.425 1_545 S
C525 C522 1.409 1_545 S
C525 C523 1.415 . S
C526 H516 0.930 . S
C526 C524 1.419 . S
C526 C527 1.362 . S
C527 H517 0.930 . S
C527 C520 1.409 1_545 S
C527 C526 1.362 . S
H528 C534 0.930 . S
H529 C537 0.930 . S
H530 C538 0.930 . S
H531 C539 0.930 . S
H532 C542 0.930 . S
H533 C543 0.930 . S
C534 H528 0.930 . S
C534 C535 1.355 . S
C534 C536 1.415 . S
C535 C534 1.355 . S
C535 C537 1.419 . S
C536 C534 1.415 . S
C536 C541 1.425 . S
C536 C543 1.409 . S
C537 H529 0.930 . S
C537 C535 1.419 . S
C537 C538 1.362 . S
C538 H530 0.930 . S
C538 C537 1.362 . S
C538 C541 1.409 . S
C539 H531 0.930 . S
C539 C540 1.355 . S
C539 C541 1.415 . S
C540 C539 1.355 . S
C540 C542 1.419 . S
C541 C536 1.425 . S
C541 C538 1.409 . S
C541 C539 1.415 . S
C542 H532 0.930 . S
C542 C540 1.419 . S
C542 C543 1.362 . S
C543 H533 0.930 . S
C543 C536 1.409 . S
C543 C542 1.362 . S
H544 C550 0.930 . S
H545 C553 0.930 . S
H546 C554 0.930 . S
H547 C555 0.930 . S
H548 C558 0.930 . S
H549 C559 0.930 . S
C550 H544 0.930 . S
C550 C551 1.355 . S
C550 C552 1.415 1_565 S
C551 C550 1.355 . S
C551 C553 1.419 . S
C552 C550 1.415 1_545 S
C552 C557 1.425 1_545 S
C552 C559 1.409 . S
C553 H545 0.930 . S
C553 C551 1.419 . S
C553 C554 1.362 . S
C554 H546 0.930 . S
C554 C553 1.362 . S
C554 C557 1.409 . S
C555 H547 0.930 . S
C555 C556 1.355 . S
C555 C557 1.415 1_545 S
C556 C555 1.355 . S
C556 C558 1.419 . S
C557 C552 1.425 1_565 S
C557 C554 1.409 . S
C557 C555 1.415 1_565 S
C558 H548 0.930 . S
C558 C556 1.419 . S
C558 C559 1.362 . S
C559 H549 0.930 . S
C559 C552 1.409 . S
C559 C558 1.362 . S
H560 C566 0.930 . S
H561 C569 0.930 . S
H562 C570 0.930 . S
H563 C571 0.930 . S
H564 C574 0.930 . S
H565 C575 0.930 . S
C566 H560 0.930 . S
C566 C567 1.355 . S
C566 C568 1.415 1_556 S
C567 C566 1.355 . S
C567 C569 1.419 . S
C568 C566 1.415 1_554 S
C568 C573 1.425 1_554 S
C568 C575 1.409 . S
C569 H561 0.930 . S
C569 C567 1.419 . S
C569 C570 1.362 . S
C570 H562 0.930 . S
C570 C569 1.362 . S
C570 C573 1.409 . S
C571 H563 0.930 . S
C571 C572 1.355 . S
C571 C573 1.415 1_554 S
C572 C571 1.355 . S
C572 C574 1.419 . S
C573 C568 1.425 1_556 S
C573 C570 1.409 . S
C573 C571 1.415 1_556 S
C574 H564 0.930 . S
C574 C572 1.419 . S
C574 C575 1.362 . S
C575 H565 0.930 . S
C575 C568 1.409 . S
C575 C574 1.362 . S
H576 C582 0.930 . S
H577 C585 0.930 . S
H578 C586 0.930 . S
H579 C587 0.930 . S
H580 C590 0.930 . S
H581 C591 0.930 . S
C582 H576 0.930 . S
C582 C583 1.355 . S
C582 C584 1.415 . S
C583 C582 1.355 . S
C583 C585 1.419 . S
C584 C582 1.415 . S
C584 C589 1.425 . S
C584 C591 1.409 . S
C585 H577 0.930 . S
C585 C583 1.419 . S
C585 C586 1.362 . S
C586 H578 0.930 . S
C586 C585 1.362 . S
C586 C589 1.409 . S
C587 H579 0.930 . S
C587 C588 1.355 . S
C587 C589 1.415 . S
C588 C587 1.355 . S
C588 C590 1.419 . S
C589 C584 1.425 . S
C589 C586 1.409 . S
C589 C587 1.415 . S
C590 H580 0.930 . S
C590 C588 1.419 . S
C590 C591 1.362 . S
C591 H581 0.930 . S
C591 C584 1.409 . S
C591 C590 1.362 . S
H592 C598 0.930 . S
H593 C601 0.930 . S
H594 C602 0.930 1_554 S
H595 C603 0.930 . S
H596 C606 0.930 . S
H597 C607 0.930 1_556 S
C598 H592 0.930 . S
C598 C599 1.355 . S
C598 C600 1.415 . S
C599 C598 1.355 . S
C599 C601 1.419 . S
C600 C598 1.415 . S
C600 C605 1.425 1_556 S
C600 C607 1.409 1_556 S
C601 H593 0.930 . S
C601 C599 1.419 . S
C601 C602 1.362 . S
C602 H594 0.930 1_556 S
C602 C601 1.362 . S
C602 C605 1.409 1_556 S
C603 H595 0.930 . S
C603 C604 1.355 . S
C603 C605 1.415 . S
C604 C603 1.355 . S
C604 C606 1.419 . S
C605 C600 1.425 1_554 S
C605 C602 1.409 1_554 S
C605 C603 1.415 . S
C606 H596 0.930 . S
C606 C604 1.419 . S
C606 C607 1.362 . S
C607 H597 0.930 1_554 S
C607 C600 1.409 1_554 S
C607 C606 1.362 . S
H608 C614 0.930 . S
H609 C617 0.930 . S
H610 C618 0.930 . S
H611 C619 0.930 . S
H612 C622 0.930 . S
H613 C623 0.930 . S
C614 H608 0.930 . S
C614 C615 1.355 . S
C614 C616 1.415 . S
C615 C614 1.355 . S
C615 C617 1.419 . S
C616 C614 1.415 . S
C616 C621 1.425 . S
C616 C623 1.409 . S
C617 H609 0.930 . S
C617 C615 1.419 . S
C617 C618 1.362 . S
C618 H610 0.930 . S
C618 C617 1.362 . S
C618 C621 1.409 . S
C619 H611 0.930 . S
C619 C620 1.355 . S
C619 C621 1.415 . S
C620 C619 1.355 . S
C620 C622 1.419 . S
C621 C616 1.425 . S
C621 C618 1.409 . S
C621 C619 1.415 . S
C622 H612 0.930 . S
C622 C620 1.419 . S
C622 C623 1.362 . S
C623 H613 0.930 . S
C623 C616 1.409 . S
C623 C622 1.362 . S
H624 C630 0.930 . S
H625 C633 0.930 . S
H626 C634 0.930 . S
H627 C635 0.930 . S
H628 C638 0.930 . S
H629 C639 0.930 . S
C630 H624 0.930 . S
C630 C631 1.355 . S
C630 C632 1.415 . S
C631 C630 1.355 . S
C631 C633 1.419 . S
C632 C630 1.415 . S
C632 C637 1.425 . S
C632 C639 1.409 . S
C633 H625 0.930 . S
C633 C631 1.419 . S
C633 C634 1.362 . S
C634 H626 0.930 . S
C634 C633 1.362 . S
C634 C637 1.409 . S
C635 H627 0.930 . S
C635 C636 1.355 . S
C635 C637 1.415 . S
C636 C635 1.355 . S
C636 C638 1.419 . S
C637 C632 1.425 . S
C637 C634 1.409 . S
C637 C635 1.415 . S
C638 H628 0.930 . S
C638 C636 1.419 . S
C638 C639 1.362 . S
C639 H629 0.930 . S
C639 C632 1.409 . S
C639 C638 1.362 . S
H640 C646 0.930 . S
H641 C649 0.930 . S
H642 C650 0.930 . S
H643 C651 0.930 . S
H644 C654 0.930 . S
H645 C655 0.930 . S
C646 H640 0.930 . S
C646 C647 1.355 . S
C646 C648 1.415 . S
C647 C646 1.355 . S
C647 C649 1.419 . S
C648 C646 1.415 . S
C648 C653 1.425 . S
C648 C655 1.409 . S
C649 H641 0.930 . S
C649 C647 1.419 . S
C649 C650 1.362 . S
C650 H642 0.930 . S
C650 C649 1.362 . S
C650 C653 1.409 . S
C651 H643 0.930 . S
C651 C652 1.355 . S
C651 C653 1.415 . S
C652 C651 1.355 . S
C652 C654 1.419 . S
C653 C648 1.425 . S
C653 C650 1.409 . S
C653 C651 1.415 . S
C654 H644 0.930 . S
C654 C652 1.419 . S
C654 C655 1.362 . S
C655 H645 0.930 . S
C655 C648 1.409 . S
C655 C654 1.362 . S
H656 C662 0.930 . S
H657 C665 0.930 . S
H658 C666 0.930 . S
H659 C667 0.930 . S
H660 C670 0.930 . S
H661 C671 0.930 . S
C662 H656 0.930 . S
C662 C663 1.355 . S
C662 C664 1.415 1_554 S
C663 C662 1.355 . S
C663 C665 1.419 . S
C664 C662 1.415 1_556 S
C664 C669 1.425 1_556 S
C664 C671 1.409 . S
C665 H657 0.930 . S
C665 C663 1.419 . S
C665 C666 1.362 . S
C666 H658 0.930 . S
C666 C665 1.362 . S
C666 C669 1.409 . S
C667 H659 0.930 . S
C667 C668 1.355 . S
C667 C669 1.415 1_556 S
C668 C667 1.355 . S
C668 C670 1.419 . S
C669 C664 1.425 1_554 S
C669 C666 1.409 . S
C669 C667 1.415 1_554 S
C670 H660 0.930 . S
C670 C668 1.419 . S
C670 C671 1.362 . S
C671 H661 0.930 . S
C671 C664 1.409 . S
C671 C670 1.362 . S
H672 C678 0.930 . S
H673 C681 0.930 . S
H674 C682 0.930 . S
H675 C683 0.930 . S
H676 C686 0.930 . S
H677 C687 0.930 . S
C678 H672 0.930 . S
C678 C679 1.355 . S
C678 C680 1.415 . S
C679 C678 1.355 . S
C679 C681 1.419 . S
C680 C678 1.415 . S
C680 C685 1.425 . S
C680 C687 1.409 . S
C681 H673 0.930 . S
C681 C679 1.419 . S
C681 C682 1.362 . S
C682 H674 0.930 . S
C682 C681 1.362 . S
C682 C685 1.409 . S
C683 H675 0.930 . S
C683 C684 1.355 . S
C683 C685 1.415 . S
C684 C683 1.355 . S
C684 C686 1.419 . S
C685 C680 1.425 . S
C685 C682 1.409 . S
C685 C683 1.415 . S
C686 H676 0.930 . S
C686 C684 1.419 . S
C686 C687 1.362 . S
C687 H677 0.930 . S
C687 C680 1.409 . S
C687 C686 1.362 . S
H688 C694 0.930 . S
H689 C697 0.930 . S
H690 C698 0.930 . S
H691 C699 0.930 . S
H692 C702 0.930 . S
H693 C703 0.930 . S
C694 H688 0.930 . S
C694 C695 1.355 . S
C694 C696 1.415 . S
C695 C694 1.355 . S
C695 C697 1.419 . S
C696 C694 1.415 . S
C696 C701 1.425 . S
C696 C703 1.409 . S
C697 H689 0.930 . S
C697 C695 1.419 . S
C697 C698 1.362 . S
C698 H690 0.930 . S
C698 C697 1.362 . S
C698 C701 1.409 . S
C699 H691 0.930 . S
C699 C700 1.355 . S
C699 C701 1.415 . S
C700 C699 1.355 . S
C700 C702 1.419 . S
C701 C696 1.425 . S
C701 C698 1.409 . S
C701 C699 1.415 . S
C702 H692 0.930 . S
C702 C700 1.419 . S
C702 C703 1.362 . S
C703 H693 0.930 . S
C703 C696 1.409 . S
C703 C702 1.362 . S
H704 C710 0.930 . S
H705 C713 0.930 . S
H706 C714 0.930 . S
H707 C715 0.930 . S
H708 C718 0.930 . S
H709 C719 0.930 . S
C710 H704 0.930 . S
C710 C711 1.355 . S
C710 C712 1.415 . S
C711 C710 1.355 . S
C711 C713 1.419 . S
C712 C710 1.415 . S
C712 C717 1.425 . S
C712 C719 1.409 . S
C713 H705 0.930 . S
C713 C711 1.419 . S
C713 C714 1.362 . S
C714 H706 0.930 . S
C714 C713 1.362 . S
C714 C717 1.409 . S
C715 H707 0.930 . S
C715 C716 1.355 . S
C715 C717 1.415 . S
C716 C715 1.355 . S
C716 C718 1.419 . S
C717 C712 1.425 . S
C717 C714 1.409 . S
C717 C715 1.415 . S
C718 H708 0.930 . S
C718 C716 1.419 . S
C718 C719 1.362 . S
C719 H709 0.930 . S
C719 C712 1.409 . S
C719 C718 1.362 . S
H720 C726 0.930 . S
H721 C729 0.930 . S
H722 C730 0.941 . S
H723 C731 0.930 . S
H724 C734 0.930 . S
H725 C735 0.930 . S
C726 H720 0.930 . S
C726 C727 1.355 . S
C726 C728 1.415 1_655 S
C727 C726 1.355 . S
C727 C729 1.419 . S
C728 C726 1.415 1_455 S
C728 C733 1.425 . S
C728 C735 1.409 . S
C729 H721 0.930 . S
C729 C727 1.419 . S
C729 C730 1.336 1_655 S
C730 H722 0.941 . S
C730 C729 1.336 1_455 S
C730 C733 1.426 . S
C731 H723 0.930 . S
C731 C732 1.355 . S
C731 C733 1.415 . S
C732 C731 1.355 . S
C732 C734 1.419 . S
C733 C728 1.425 . S
C733 C730 1.426 . S
C733 C731 1.415 . S
C734 H724 0.930 . S
C734 C732 1.419 . S
C734 C735 1.362 . S
C735 H725 0.930 . S
C735 C728 1.409 . S
C735 C734 1.362 . S
H736 C742 0.930 . S
H737 C745 0.930 . S
H738 C746 0.930 . S
H739 C747 0.930 . S
H740 C750 0.930 . S
H741 C751 0.930 . S
C742 H736 0.930 . S
C742 C743 1.355 . S
C742 C744 1.415 . S
C743 C742 1.355 . S
C743 C745 1.419 . S
C744 C742 1.415 . S
C744 C749 1.425 . S
C744 C751 1.409 . S
C745 H737 0.930 . S
C745 C743 1.419 . S
C745 C746 1.362 . S
C746 H738 0.930 . S
C746 C745 1.362 . S
C746 C749 1.409 . S
C747 H739 0.930 . S
C747 C748 1.355 . S
C747 C749 1.415 . S
C748 C747 1.355 . S
C748 C750 1.419 . S
C749 C744 1.425 . S
C749 C746 1.409 . S
C749 C747 1.415 . S
C750 H740 0.930 . S
C750 C748 1.419 . S
C750 C751 1.362 . S
C751 H741 0.930 . S
C751 C744 1.409 . S
C751 C750 1.362 . S
H752 C758 0.930 . S
H753 C761 0.930 . S
H754 C762 0.930 . S
H755 C763 0.930 . S
H756 C766 0.930 . S
H757 C767 0.930 . S
C758 H752 0.930 . S
C758 C759 1.355 . S
C758 C760 1.415 . S
C759 C758 1.355 . S
C759 C761 1.419 . S
C760 C758 1.415 . S
C760 C765 1.425 . S
C760 C767 1.409 . S
C761 H753 0.930 . S
C761 C759 1.419 . S
C761 C762 1.362 . S
C762 H754 0.930 . S
C762 C761 1.362 . S
C762 C765 1.409 . S
C763 H755 0.930 . S
C763 C764 1.355 . S
C763 C765 1.415 . S
C764 C763 1.355 . S
C764 C766 1.419 . S
C765 C760 1.425 . S
C765 C762 1.409 . S
C765 C763 1.415 . S
C766 H756 0.930 . S
C766 C764 1.419 . S
C766 C767 1.362 . S
C767 H757 0.930 . S
C767 C760 1.409 . S
C767 C766 1.362 . S
H768 C774 0.930 . S
H769 C777 0.930 . S
H770 C778 0.930 . S
H771 C779 0.930 . S
H772 C782 0.930 . S
H773 C783 0.930 . S
C774 H768 0.930 . S
C774 C775 1.355 . S
C774 C776 1.415 . S
C775 C774 1.355 . S
C775 C777 1.419 . S
C776 C774 1.415 . S
C776 C781 1.425 . S
C776 C783 1.409 . S
C777 H769 0.930 . S
C777 C775 1.419 . S
C777 C778 1.362 . S
C778 H770 0.930 . S
C778 C777 1.362 . S
C778 C781 1.409 . S
C779 H771 0.930 . S
C779 C780 1.355 . S
C779 C781 1.415 . S
C780 C779 1.355 . S
C780 C782 1.419 . S
C781 C776 1.425 . S
C781 C778 1.409 . S
C781 C779 1.415 . S
C782 H772 0.930 . S
C782 C780 1.419 . S
C782 C783 1.362 . S
C783 H773 0.930 . S
C783 C776 1.409 . S
C783 C782 1.362 . S
H784 C790 0.930 . S
H785 C793 0.930 . S
H786 C794 0.930 . S
H787 C795 0.930 . S
H788 C798 0.930 . S
H789 C799 0.930 . S
C790 H784 0.930 . S
C790 C791 1.355 . S
C790 C792 1.415 . S
C791 C790 1.355 . S
C791 C793 1.419 . S
C792 C790 1.415 . S
C792 C797 1.425 . S
C792 C799 1.409 . S
C793 H785 0.930 . S
C793 C791 1.419 . S
C793 C794 1.362 . S
C794 H786 0.930 . S
C794 C793 1.362 . S
C794 C797 1.409 . S
C795 H787 0.930 . S
C795 C796 1.355 . S
C795 C797 1.415 . S
C796 C795 1.355 . S
C796 C798 1.419 . S
C797 C792 1.425 . S
C797 C794 1.409 . S
C797 C795 1.415 . S
C798 H788 0.930 . S
C798 C796 1.419 . S
C798 C799 1.362 . S
C799 H789 0.930 . S
C799 C792 1.409 . S
C799 C798 1.362 . S
H800 C806 0.930 . S
H801 C809 0.930 . S
H802 C810 0.930 . S
H803 C811 0.930 . S
H804 C814 0.930 . S
H805 C815 0.930 . S
C806 H800 0.930 . S
C806 C807 1.355 . S
C806 C808 1.415 . S
C807 C806 1.355 . S
C807 C809 1.419 . S
C808 C806 1.415 . S
C808 C813 1.425 . S
C808 C815 1.409 . S
C809 H801 0.930 . S
C809 C807 1.419 . S
C809 C810 1.362 . S
C810 H802 0.930 . S
C810 C809 1.362 . S
C810 C813 1.409 . S
C811 H803 0.930 . S
C811 C812 1.355 . S
C811 C813 1.415 . S
C812 C811 1.355 . S
C812 C814 1.419 . S
C813 C808 1.425 . S
C813 C810 1.409 . S
C813 C811 1.415 . S
C814 H804 0.930 . S
C814 C812 1.419 . S
C814 C815 1.362 . S
C815 H805 0.930 . S
C815 C808 1.409 . S
C815 C814 1.362 . S
H816 C822 0.930 . S
H817 C825 0.930 . S
H818 C826 0.930 . S
H819 C827 0.930 . S
H820 C830 0.930 . S
H821 C831 0.930 1_455 S
C822 H816 0.930 . S
C822 C823 1.355 . S
C822 C824 1.415 . S
C823 C822 1.355 . S
C823 C825 1.419 . S
C824 C822 1.415 . S
C824 C829 1.425 . S
C824 C831 1.409 1_455 S
C825 H817 0.930 . S
C825 C823 1.419 . S
C825 C826 1.362 . S
C826 H818 0.930 . S
C826 C825 1.362 . S
C826 C829 1.409 . S
C827 H819 0.930 . S
C827 C828 1.355 . S
C827 C829 1.415 1_655 S
C828 C827 1.355 . S
C828 C830 1.419 . S
C829 C824 1.425 . S
C829 C826 1.409 . S
C829 C827 1.415 1_455 S
C830 H820 0.930 . S
C830 C828 1.419 . S
C830 C831 1.362 . S
C831 H821 0.930 1_655 S
C831 C824 1.409 1_655 S
C831 C830 1.362 . S
H832 C838 0.930 . S
H833 C841 0.930 . S
H834 C842 0.930 . S
H835 C843 0.930 . S
H836 C846 0.930 . S
H837 C847 0.930 . S
C838 H832 0.930 . S
C838 C839 1.355 . S
C838 C840 1.415 . S
C839 C838 1.355 . S
C839 C841 1.419 . S
C840 C838 1.415 . S
C840 C845 1.425 . S
C840 C847 1.409 . S
C841 H833 0.930 . S
C841 C839 1.419 . S
C841 C842 1.362 . S
C842 H834 0.930 . S
C842 C841 1.362 . S
C842 C845 1.409 . S
C843 H835 0.930 . S
C843 C844 1.355 . S
C843 C845 1.415 . S
C844 C843 1.355 . S
C844 C846 1.419 . S
C845 C840 1.425 . S
C845 C842 1.409 . S
C845 C843 1.415 . S
C846 H836 0.930 . S
C846 C844 1.419 . S
C846 C847 1.362 . S
C847 H837 0.930 . S
C847 C840 1.409 . S
C847 C846 1.362 . S
H848 C854 0.930 . S
H849 C857 0.930 . S
H850 C858 0.930 . S
H851 C859 0.930 . S
H852 C862 0.930 . S
H853 C863 0.937 . S
C854 H848 0.930 . S
C854 C855 1.355 . S
C854 C856 1.415 . S
C855 C854 1.355 . S
C855 C857 1.419 . S
C856 C854 1.415 . S
C856 C861 1.425 . S
C856 C863 1.421 . S
C857 H849 0.930 . S
C857 C855 1.419 . S
C857 C858 1.362 . S
C858 H850 0.930 . S
C858 C857 1.362 . S
C858 C861 1.409 . S
C859 H851 0.930 . S
C859 C860 1.355 . S
C859 C861 1.415 1_455 S
C860 C859 1.355 . S
C860 C862 1.419 . S
C861 C856 1.425 . S
C861 C858 1.409 . S
C861 C859 1.415 1_655 S
C862 H852 0.930 . S
C862 C860 1.419 . S
C862 C863 1.345 1_455 S
C863 H853 0.937 . S
C863 C856 1.421 . S
C863 C862 1.345 1_655 S
H864 C870 0.930 . S
H865 C873 0.930 . S
H866 C874 0.930 . S
H867 C875 0.930 . S
H868 C878 0.930 . S
H869 C879 0.930 . S
C870 H864 0.930 . S
C870 C871 1.355 . S
C870 C872 1.415 . S
C871 C870 1.355 . S
C871 C873 1.419 . S
C872 C870 1.415 . S
C872 C877 1.425 . S
C872 C879 1.409 . S
C873 H865 0.930 . S
C873 C871 1.419 . S
C873 C874 1.362 . S
C874 H866 0.930 . S
C874 C873 1.362 . S
C874 C877 1.409 . S
C875 H867 0.930 . S
C875 C876 1.355 . S
C875 C877 1.415 . S
C876 C875 1.355 . S
C876 C878 1.419 . S
C877 C872 1.425 . S
C877 C874 1.409 . S
C877 C875 1.415 . S
C878 H868 0.930 . S
C878 C876 1.419 . S
C878 C879 1.362 . S
C879 H869 0.930 . S
C879 C872 1.409 . S
C879 C878 1.362 . S
H880 C886 0.930 . S
H881 C889 0.930 . S
H882 C890 0.930 . S
H883 C891 0.930 . S
H884 C894 0.930 . S
H885 C895 0.930 . S
C886 H880 0.930 . S
C886 C887 1.355 . S
C886 C888 1.415 . S
C887 C886 1.355 . S
C887 C889 1.419 . S
C888 C886 1.415 . S
C888 C893 1.425 . S
C888 C895 1.409 . S
C889 H881 0.930 . S
C889 C887 1.419 . S
C889 C890 1.362 . S
C890 H882 0.930 . S
C890 C889 1.362 . S
C890 C893 1.409 . S
C891 H883 0.930 . S
C891 C892 1.355 . S
C891 C893 1.415 . S
C892 C891 1.355 . S
C892 C894 1.419 . S
C893 C888 1.425 . S
C893 C890 1.409 . S
C893 C891 1.415 . S
C894 H884 0.930 . S
C894 C892 1.419 . S
C894 C895 1.362 . S
C895 H885 0.930 . S
C895 C888 1.409 . S
C895 C894 1.362 . S
H896 C902 0.930 . S
H897 C905 0.930 . S
H898 C906 0.930 . S
H899 C907 0.930 . S
H900 C910 0.930 . S
H901 C911 0.930 . S
C902 H896 0.930 . S
C902 C903 1.355 . S
C902 C904 1.415 . S
C903 C902 1.355 . S
C903 C905 1.419 . S
C904 C902 1.415 . S
C904 C909 1.425 . S
C904 C911 1.409 . S
C905 H897 0.930 . S
C905 C903 1.419 . S
C905 C906 1.362 . S
C906 H898 0.930 . S
C906 C905 1.362 . S
C906 C909 1.409 . S
C907 H899 0.930 . S
C907 C908 1.355 . S
C907 C909 1.415 . S
C908 C907 1.355 . S
C908 C910 1.419 . S
C909 C904 1.425 . S
C909 C906 1.409 . S
C909 C907 1.415 . S
C910 H900 0.930 . S
C910 C908 1.419 . S
C910 C911 1.362 . S
C911 H901 0.930 . S
C911 C904 1.409 . S
C911 C910 1.362 . S
H912 C918 0.930 . S
H913 C921 0.930 . S
H914 C922 0.930 . S
H915 C923 0.930 . S
H916 C926 0.930 . S
H917 C927 0.930 . S
C918 H912 0.930 . S
C918 C919 1.355 . S
C918 C920 1.415 . S
C919 C918 1.355 . S
C919 C921 1.419 . S
C920 C918 1.415 . S
C920 C925 1.425 . S
C920 C927 1.409 . S
C921 H913 0.930 . S
C921 C919 1.419 . S
C921 C922 1.362 . S
C922 H914 0.930 . S
C922 C921 1.362 . S
C922 C925 1.409 . S
C923 H915 0.930 . S
C923 C924 1.355 . S
C923 C925 1.415 . S
C924 C923 1.355 . S
C924 C926 1.419 . S
C925 C920 1.425 . S
C925 C922 1.409 . S
C925 C923 1.415 . S
C926 H916 0.930 . S
C926 C924 1.419 . S
C926 C927 1.362 . S
C927 H917 0.930 . S
C927 C920 1.409 . S
C927 C926 1.362 . S
H928 C934 0.930 . S
H929 C937 0.930 . S
H930 C938 0.930 . S
H931 C939 0.930 . S
H932 C942 0.930 . S
H933 C943 0.930 . S
C934 H928 0.930 . S
C934 C935 1.355 . S
C934 C936 1.415 . S
C935 C934 1.355 . S
C935 C937 1.419 . S
C936 C934 1.415 . S
C936 C941 1.425 . S
C936 C943 1.409 . S
C937 H929 0.930 . S
C937 C935 1.419 . S
C937 C938 1.362 . S
C938 H930 0.930 . S
C938 C937 1.362 . S
C938 C941 1.409 . S
C939 H931 0.930 . S
C939 C940 1.355 . S
C939 C941 1.415 . S
C940 C939 1.355 . S
C940 C942 1.419 . S
C941 C936 1.425 . S
C941 C938 1.409 . S
C941 C939 1.415 . S
C942 H932 0.930 . S
C942 C940 1.419 . S
C942 C943 1.362 . S
C943 H933 0.930 . S
C943 C936 1.409 . S
C943 C942 1.362 . S
H944 C950 0.930 . S
H945 C953 0.930 . S
H946 C954 0.930 . S
H947 C955 0.930 . S
H948 C958 0.930 . S
H949 C959 0.930 1_655 S
C950 H944 0.930 . S
C950 C951 1.355 . S
C950 C952 1.415 . S
C951 C950 1.355 . S
C951 C953 1.419 . S
C952 C950 1.415 . S
C952 C957 1.425 . S
C952 C959 1.409 1_655 S
C953 H945 0.930 . S
C953 C951 1.419 . S
C953 C954 1.362 . S
C954 H946 0.930 . S
C954 C953 1.362 . S
C954 C957 1.409 . S
C955 H947 0.930 . S
C955 C956 1.355 . S
C955 C957 1.415 1_455 S
C956 C955 1.355 . S
C956 C958 1.419 . S
C957 C952 1.425 . S
C957 C954 1.409 . S
C957 C955 1.415 1_655 S
C958 H948 0.930 . S
C958 C956 1.419 . S
C958 C959 1.362 . S
C959 H949 0.930 1_455 S
C959 C952 1.409 1_455 S
C959 C958 1.362 . S
H960 C966 0.930 . S
H961 C969 0.930 . S
H962 C970 0.930 . S
H963 C971 0.930 . S
H964 C974 0.930 . S
H965 C975 0.930 . S
C966 H960 0.930 . S
C966 C967 1.355 . S
C966 C968 1.415 . S
C967 C966 1.355 . S
C967 C969 1.419 . S
C968 C966 1.415 . S
C968 C973 1.425 . S
C968 C975 1.409 . S
C969 H961 0.930 . S
C969 C967 1.419 . S
C969 C970 1.362 . S
C970 H962 0.930 . S
C970 C969 1.362 . S
C970 C973 1.409 . S
C971 H963 0.930 . S
C971 C972 1.355 . S
C971 C973 1.415 . S
C972 C971 1.355 . S
C972 C974 1.419 . S
C973 C968 1.425 . S
C973 C970 1.409 . S
C973 C971 1.415 . S
C974 H964 0.930 . S
C974 C972 1.419 . S
C974 C975 1.362 . S
C975 H965 0.930 . S
C975 C968 1.409 . S
C975 C974 1.362 . S
H976 C982 0.930 . S
H977 C985 0.930 . S
H978 C986 0.930 . S
H979 C987 0.930 . S
H980 C990 0.930 . S
H981 C991 0.930 . S
C982 H976 0.930 . S
C982 C983 1.355 . S
C982 C984 1.415 . S
C983 C982 1.355 . S
C983 C985 1.419 . S
C984 C982 1.415 . S
C984 C989 1.425 . S
C984 C991 1.409 . S
C985 H977 0.930 . S
C985 C983 1.419 . S
C985 C986 1.362 . S
C986 H978 0.930 . S
C986 C985 1.362 . S
C986 C989 1.409 . S
C987 H979 0.930 . S
C987 C988 1.355 . S
C987 C989 1.415 . S
C988 C987 1.355 . S
C988 C990 1.419 . S
C989 C984 1.425 . S
C989 C986 1.409 . S
C989 C987 1.415 . S
C990 H980 0.930 . S
C990 C988 1.419 . S
C990 C991 1.362 . S
C991 H981 0.930 . S
C991 C984 1.409 . S
C991 C990 1.362 . S
H992 C998 0.930 . S
H993 C1001 0.930 . S
H994 C1002 0.930 . S
H995 C1003 0.930 . S
H996 C1006 0.930 . S
H997 C1007 0.930 . S
C998 H992 0.930 . S
C998 C999 1.355 . S
C998 C1000 1.415 . S
C999 C998 1.355 . S
C999 C1001 1.419 . S
C1000 C998 1.415 . S
C1000 C1005 1.425 . S
C1000 C1007 1.409 . S
C1001 H993 0.930 . S
C1001 C999 1.419 . S
C1001 C1002 1.362 . S
C1002 H994 0.930 . S
C1002 C1001 1.362 . S
C1002 C1005 1.409 . S
C1003 H995 0.930 . S
C1003 C1004 1.355 . S
C1003 C1005 1.415 . S
C1004 C1003 1.355 . S
C1004 C1006 1.419 . S
C1005 C1000 1.425 . S
C1005 C1002 1.409 . S
C1005 C1003 1.415 . S
C1006 H996 0.930 . S
C1006 C1004 1.419 . S
C1006 C1007 1.362 . S
C1007 H997 0.930 . S
C1007 C1000 1.409 . S
C1007 C1006 1.362 . S
H1008 C1014 0.930 . S
H1009 C1017 0.930 . S
H1010 C1018 0.930 . S
H1011 C1019 0.930 . S
H1012 C1022 0.930 . S
H1013 C1023 0.935 . S
C1014 H1008 0.930 . S
C1014 C1015 1.355 . S
C1014 C1016 1.415 . S
C1015 C1014 1.355 . S
C1015 C1017 1.419 . S
C1016 C1014 1.415 . S
C1016 C1021 1.425 . S
C1016 C1023 1.417 . S
C1017 H1009 0.930 . S
C1017 C1015 1.419 . S
C1017 C1018 1.362 . S
C1018 H1010 0.930 . S
C1018 C1017 1.362 . S
C1018 C1021 1.409 . S
C1019 H1011 0.930 . S
C1019 C1020 1.355 . S
C1019 C1021 1.415 1_455 S
C1020 C1019 1.355 . S
C1020 C1022 1.419 . S
C1021 C1016 1.425 . S
C1021 C1018 1.409 . S
C1021 C1019 1.415 1_655 S
C1022 H1012 0.930 . S
C1022 C1020 1.419 . S
C1022 C1023 1.351 1_455 S
C1023 H1013 0.935 . S
C1023 C1016 1.417 . S
C1023 C1022 1.351 1_655 S
H1024 C1030 0.930 . S
H1025 C1033 0.930 . S
H1026 C1034 0.930 . S
H1027 C1035 0.930 . S
H1028 C1038 0.930 . S
H1029 C1039 0.930 . S
C1030 H1024 0.930 . S
C1030 C1031 1.355 . S
C1030 C1032 1.415 . S
C1031 C1030 1.355 . S
C1031 C1033 1.419 . S
C1032 C1030 1.415 . S
C1032 C1037 1.425 . S
C1032 C1039 1.409 . S
C1033 H1025 0.930 . S
C1033 C1031 1.419 . S
C1033 C1034 1.362 . S
C1034 H1026 0.930 . S
C1034 C1033 1.362 . S
C1034 C1037 1.409 . S
C1035 H1027 0.930 . S
C1035 C1036 1.355 . S
C1035 C1037 1.415 . S
C1036 C1035 1.355 . S
C1036 C1038 1.419 . S
C1037 C1032 1.425 . S
C1037 C1034 1.409 . S
C1037 C1035 1.415 . S
C1038 H1028 0.930 . S
C1038 C1036 1.419 . S
C1038 C1039 1.362 . S
C1039 H1029 0.930 . S
C1039 C1032 1.409 . S
C1039 C1038 1.362 . S
H1040 C1046 0.930 . S
H1041 C1049 0.930 . S
H1042 C1050 0.930 1_655 S
H1043 C1051 0.930 . S
H1044 C1054 0.930 . S
H1045 C1055 0.930 . S
C1046 H1040 0.930 . S
C1046 C1047 1.355 . S
C1046 C1048 1.415 1_455 S
C1047 C1046 1.355 . S
C1047 C1049 1.419 . S
C1048 C1046 1.415 1_655 S
C1048 C1053 1.425 . S
C1048 C1055 1.409 . S
C1049 H1041 0.930 . S
C1049 C1047 1.419 . S
C1049 C1050 1.362 . S
C1050 H1042 0.930 1_455 S
C1050 C1049 1.362 . S
C1050 C1053 1.409 1_455 S
C1051 H1043 0.930 . S
C1051 C1052 1.355 . S
C1051 C1053 1.415 . S
C1052 C1051 1.355 . S
C1052 C1054 1.419 . S
C1053 C1048 1.425 . S
C1053 C1050 1.409 1_655 S
C1053 C1051 1.415 . S
C1054 H1044 0.930 . S
C1054 C1052 1.419 . S
C1054 C1055 1.362 . S
C1055 H1045 0.930 . S
C1055 C1048 1.409 . S
C1055 C1054 1.362 . S
H1056 C1062 0.930 . S
H1057 C1065 0.930 . S
H1058 C1066 0.930 . S
H1059 C1067 0.930 . S
H1060 C1070 0.930 . S
H1061 C1071 0.930 . S
C1062 H1056 0.930 . S
C1062 C1063 1.355 . S
C1062 C1064 1.415 . S
C1063 C1062 1.355 . S
C1063 C1065 1.419 . S
C1064 C1062 1.415 . S
C1064 C1069 1.425 . S
C1064 C1071 1.409 . S
C1065 H1057 0.930 . S
C1065 C1063 1.419 . S
C1065 C1066 1.362 . S
C1066 H1058 0.930 . S
C1066 C1065 1.362 . S
C1066 C1069 1.409 . S
C1067 H1059 0.930 . S
C1067 C1068 1.355 . S
C1067 C1069 1.415 . S
C1068 C1067 1.355 . S
C1068 C1070 1.419 . S
C1069 C1064 1.425 . S
C1069 C1066 1.409 . S
C1069 C1067 1.415 . S
C1070 H1060 0.930 . S
C1070 C1068 1.419 . S
C1070 C1071 1.362 . S
C1071 H1061 0.930 . S
C1071 C1064 1.409 . S
C1071 C1070 1.362 . S
H1072 C1078 0.930 . S
H1073 C1081 0.930 . S
H1074 C1082 0.930 . S
H1075 C1083 0.930 . S
H1076 C1086 0.930 . S
H1077 C1087 0.930 . S
C1078 H1072 0.930 . S
C1078 C1079 1.355 . S
C1078 C1080 1.415 . S
C1079 C1078 1.355 . S
C1079 C1081 1.419 . S
C1080 C1078 1.415 . S
C1080 C1085 1.425 . S
C1080 C1087 1.409 . S
C1081 H1073 0.930 . S
C1081 C1079 1.419 . S
C1081 C1082 1.362 . S
C1082 H1074 0.930 . S
C1082 C1081 1.362 . S
C1082 C1085 1.409 . S
C1083 H1075 0.930 . S
C1083 C1084 1.355 . S
C1083 C1085 1.415 . S
C1084 C1083 1.355 . S
C1084 C1086 1.419 . S
C1085 C1080 1.425 . S
C1085 C1082 1.409 . S
C1085 C1083 1.415 . S
C1086 H1076 0.930 . S
C1086 C1084 1.419 . S
C1086 C1087 1.362 . S
C1087 H1077 0.930 . S
C1087 C1080 1.409 . S
C1087 C1086 1.362 . S
H1088 C1094 0.930 . S
H1089 C1097 0.930 . S
H1090 C1098 0.930 . S
H1091 C1099 0.930 . S
H1092 C1102 0.930 . S
H1093 C1103 0.930 . S
C1094 H1088 0.930 . S
C1094 C1095 1.355 . S
C1094 C1096 1.415 . S
C1095 C1094 1.355 . S
C1095 C1097 1.419 . S
C1096 C1094 1.415 . S
C1096 C1101 1.425 . S
C1096 C1103 1.409 . S
C1097 H1089 0.930 . S
C1097 C1095 1.419 . S
C1097 C1098 1.362 . S
C1098 H1090 0.930 . S
C1098 C1097 1.362 . S
C1098 C1101 1.409 . S
C1099 H1091 0.930 . S
C1099 C1100 1.355 . S
C1099 C1101 1.415 . S
C1100 C1099 1.355 . S
C1100 C1102 1.419 . S
C1101 C1096 1.425 . S
C1101 C1098 1.409 . S
C1101 C1099 1.415 . S
C1102 H1092 0.930 . S
C1102 C1100 1.419 . S
C1102 C1103 1.362 . S
C1103 H1093 0.930 . S
C1103 C1096 1.409 . S
C1103 C1102 1.362 . S
H1104 C1110 0.930 . S
H1105 C1113 0.930 . S
H1106 C1114 0.930 . S
H1107 C1115 0.930 . S
H1108 C1118 0.930 . S
H1109 C1119 0.930 . S
C1110 H1104 0.930 . S
C1110 C1111 1.355 . S
C1110 C1112 1.415 . S
C1111 C1110 1.355 . S
C1111 C1113 1.419 . S
C1112 C1110 1.415 . S
C1112 C1117 1.425 . S
C1112 C1119 1.409 . S
C1113 H1105 0.930 . S
C1113 C1111 1.419 . S
C1113 C1114 1.362 . S
C1114 H1106 0.930 . S
C1114 C1113 1.362 . S
C1114 C1117 1.409 . S
C1115 H1107 0.930 . S
C1115 C1116 1.355 . S
C1115 C1117 1.415 . S
C1116 C1115 1.355 . S
C1116 C1118 1.419 . S
C1117 C1112 1.425 . S
C1117 C1114 1.409 . S
C1117 C1115 1.415 . S
C1118 H1108 0.930 . S
C1118 C1116 1.419 . S
C1118 C1119 1.362 . S
C1119 H1109 0.930 . S
C1119 C1112 1.409 . S
C1119 C1118 1.362 . S
H1120 C1126 0.930 . S
H1121 C1129 0.930 . S
H1122 C1130 0.930 . S
H1123 C1131 0.930 . S
H1124 C1134 0.930 . S
H1125 C1135 0.930 . S
C1126 H1120 0.930 . S
C1126 C1127 1.355 . S
C1126 C1128 1.415 . S
C1127 C1126 1.355 . S
C1127 C1129 1.419 . S
C1128 C1126 1.415 . S
C1128 C1133 1.425 . S
C1128 C1135 1.409 . S
C1129 H1121 0.930 . S
C1129 C1127 1.419 . S
C1129 C1130 1.362 . S
C1130 H1122 0.930 . S
C1130 C1129 1.362 . S
C1130 C1133 1.409 . S
C1131 H1123 0.930 . S
C1131 C1132 1.355 . S
C1131 C1133 1.415 . S
C1132 C1131 1.355 . S
C1132 C1134 1.419 . S
C1133 C1128 1.425 . S
C1133 C1130 1.409 . S
C1133 C1131 1.415 . S
C1134 H1124 0.930 . S
C1134 C1132 1.419 . S
C1134 C1135 1.362 . S
C1135 H1125 0.930 . S
C1135 C1128 1.409 . S
C1135 C1134 1.362 . S
H1136 C1142 0.930 . S
H1137 C1145 0.930 . S
H1138 C1146 0.930 . S
H1139 C1147 0.930 . S
H1140 C1150 0.930 . S
H1141 C1151 0.918 1_455 S
C1142 H1136 0.930 . S
C1142 C1143 1.355 . S
C1142 C1144 1.415 . S
C1143 C1142 1.355 . S
C1143 C1145 1.419 . S
C1144 C1142 1.415 . S
C1144 C1149 1.425 . S
C1144 C1151 1.383 1_455 S
C1145 H1137 0.930 . S
C1145 C1143 1.419 . S
C1145 C1146 1.362 . S
C1146 H1138 0.930 . S
C1146 C1145 1.362 . S
C1146 C1149 1.409 . S
C1147 H1139 0.930 . S
C1147 C1148 1.355 . S
C1147 C1149 1.415 1_655 S
C1148 C1147 1.355 . S
C1148 C1150 1.419 . S
C1149 C1144 1.425 . S
C1149 C1146 1.409 . S
C1149 C1147 1.415 1_455 S
C1150 H1140 0.930 . S
C1150 C1148 1.419 . S
C1150 C1151 1.401 . S
C1151 H1141 0.918 1_655 S
C1151 C1144 1.383 1_655 S
C1151 C1150 1.401 . S
H1152 C1158 0.930 . S
H1153 C1161 0.930 . S
H1154 C1162 0.930 . S
H1155 C1163 0.930 . S
H1156 C1166 0.930 . S
H1157 C1167 0.930 . S
C1158 H1152 0.930 . S
C1158 C1159 1.355 . S
C1158 C1160 1.415 . S
C1159 C1158 1.355 . S
C1159 C1161 1.419 . S
C1160 C1158 1.415 . S
C1160 C1165 1.425 . S
C1160 C1167 1.409 . S
C1161 H1153 0.930 . S
C1161 C1159 1.419 . S
C1161 C1162 1.362 . S
C1162 H1154 0.930 . S
C1162 C1161 1.362 . S
C1162 C1165 1.409 . S
C1163 H1155 0.930 . S
C1163 C1164 1.355 . S
C1163 C1165 1.415 . S
C1164 C1163 1.355 . S
C1164 C1166 1.419 . S
C1165 C1160 1.425 . S
C1165 C1162 1.409 . S
C1165 C1163 1.415 . S
C1166 H1156 0.930 . S
C1166 C1164 1.419 . S
C1166 C1167 1.362 . S
C1167 H1157 0.930 . S
C1167 C1160 1.409 . S
C1167 C1166 1.362 . S
H1168 C1174 0.930 . S
H1169 C1177 0.930 . S
H1170 C1178 0.930 1_455 S
H1171 C1179 0.930 . S
H1172 C1182 0.930 . S
H1173 C1183 0.930 . S
C1174 H1168 0.930 . S
C1174 C1175 1.355 . S
C1174 C1176 1.415 1_655 S
C1175 C1174 1.355 . S
C1175 C1177 1.419 . S
C1176 C1174 1.415 1_455 S
C1176 C1181 1.425 . S
C1176 C1183 1.409 . S
C1177 H1169 0.930 . S
C1177 C1175 1.419 . S
C1177 C1178 1.362 . S
C1178 H1170 0.930 1_655 S
C1178 C1177 1.362 . S
C1178 C1181 1.409 1_655 S
C1179 H1171 0.930 . S
C1179 C1180 1.355 . S
C1179 C1181 1.415 . S
C1180 C1179 1.355 . S
C1180 C1182 1.419 . S
C1181 C1176 1.425 . S
C1181 C1178 1.409 1_455 S
C1181 C1179 1.415 . S
C1182 H1172 0.930 . S
C1182 C1180 1.419 . S
C1182 C1183 1.362 . S
C1183 H1173 0.930 . S
C1183 C1176 1.409 . S
C1183 C1182 1.362 . S
H1184 C1190 0.930 . S
H1185 C1193 0.930 . S
H1186 C1194 0.930 . S
H1187 C1195 0.930 . S
H1188 C1198 0.930 . S
H1189 C1199 0.930 . S
C1190 H1184 0.930 . S
C1190 C1191 1.355 . S
C1190 C1192 1.415 . S
C1191 C1190 1.355 . S
C1191 C1193 1.419 . S
C1192 C1190 1.415 . S
C1192 C1197 1.425 . S
C1192 C1199 1.409 . S
C1193 H1185 0.930 . S
C1193 C1191 1.419 . S
C1193 C1194 1.362 . S
C1194 H1186 0.930 . S
C1194 C1193 1.362 . S
C1194 C1197 1.409 . S
C1195 H1187 0.930 . S
C1195 C1196 1.355 . S
C1195 C1197 1.415 . S
C1196 C1195 1.355 . S
C1196 C1198 1.419 . S
C1197 C1192 1.425 . S
C1197 C1194 1.409 . S
C1197 C1195 1.415 . S
C1198 H1188 0.930 . S
C1198 C1196 1.419 . S
C1198 C1199 1.362 . S
C1199 H1189 0.930 . S
C1199 C1192 1.409 . S
C1199 C1198 1.362 . S
H1200 C1206 0.930 . S
H1201 C1209 0.930 . S
H1202 C1210 0.930 . S
H1203 C1211 0.930 . S
H1204 C1214 0.930 . S
H1205 C1215 0.930 . S
C1206 H1200 0.930 . S
C1206 C1207 1.355 . S
C1206 C1208 1.415 . S
C1207 C1206 1.355 . S
C1207 C1209 1.419 . S
C1208 C1206 1.415 . S
C1208 C1213 1.425 . S
C1208 C1215 1.409 . S
C1209 H1201 0.930 . S
C1209 C1207 1.419 . S
C1209 C1210 1.362 . S
C1210 H1202 0.930 . S
C1210 C1209 1.362 . S
C1210 C1213 1.409 . S
C1211 H1203 0.930 . S
C1211 C1212 1.355 . S
C1211 C1213 1.415 . S
C1212 C1211 1.355 . S
C1212 C1214 1.419 . S
C1213 C1208 1.425 . S
C1213 C1210 1.409 . S
C1213 C1211 1.415 . S
C1214 H1204 0.930 . S
C1214 C1212 1.419 . S
C1214 C1215 1.362 . S
C1215 H1205 0.930 . S
C1215 C1208 1.409 . S
C1215 C1214 1.362 . S
H1216 C1222 0.930 . S
H1217 C1225 0.930 . S
H1218 C1226 0.930 . S
H1219 C1227 0.930 . S
H1220 C1230 0.930 . S
H1221 C1231 0.930 . S
C1222 H1216 0.930 . S
C1222 C1223 1.355 . S
C1222 C1224 1.415 . S
C1223 C1222 1.355 . S
C1223 C1225 1.419 . S
C1224 C1222 1.415 . S
C1224 C1229 1.425 . S
C1224 C1231 1.409 . S
C1225 H1217 0.930 . S
C1225 C1223 1.419 . S
C1225 C1226 1.362 . S
C1226 H1218 0.930 . S
C1226 C1225 1.362 . S
C1226 C1229 1.409 . S
C1227 H1219 0.930 . S
C1227 C1228 1.355 . S
C1227 C1229 1.415 . S
C1228 C1227 1.355 . S
C1228 C1230 1.419 . S
C1229 C1224 1.425 . S
C1229 C1226 1.409 . S
C1229 C1227 1.415 . S
C1230 H1220 0.930 . S
C1230 C1228 1.419 . S
C1230 C1231 1.362 . S
C1231 H1221 0.930 . S
C1231 C1224 1.409 . S
C1231 C1230 1.362 . S
H1232 C1238 0.930 . S
H1233 C1241 0.930 . S
H1234 C1242 0.930 . S
H1235 C1243 0.930 . S
H1236 C1246 0.930 . S
H1237 C1247 0.930 . S
C1238 H1232 0.930 . S
C1238 C1239 1.355 . S
C1238 C1240 1.415 . S
C1239 C1238 1.355 . S
C1239 C1241 1.419 . S
C1240 C1238 1.415 . S
C1240 C1245 1.425 . S
C1240 C1247 1.409 . S
C1241 H1233 0.930 . S
C1241 C1239 1.419 . S
C1241 C1242 1.362 . S
C1242 H1234 0.930 . S
C1242 C1241 1.362 . S
C1242 C1245 1.409 . S
C1243 H1235 0.930 . S
C1243 C1244 1.355 . S
C1243 C1245 1.415 . S
C1244 C1243 1.355 . S
C1244 C1246 1.419 . S
C1245 C1240 1.425 . S
C1245 C1242 1.409 . S
C1245 C1243 1.415 . S
C1246 H1236 0.930 . S
C1246 C1244 1.419 . S
C1246 C1247 1.362 . S
C1247 H1237 0.930 . S
C1247 C1240 1.409 . S
C1247 C1246 1.362 . S
H1248 C1254 0.930 . S
H1249 C1257 0.930 . S
H1250 C1258 0.930 . S
H1251 C1259 0.930 . S
H1252 C1262 0.930 . S
H1253 C1263 0.930 . S
C1254 H1248 0.930 . S
C1254 C1255 1.355 . S
C1254 C1256 1.415 . S
C1255 C1254 1.355 . S
C1255 C1257 1.419 . S
C1256 C1254 1.415 . S
C1256 C1261 1.425 . S
C1256 C1263 1.409 . S
C1257 H1249 0.930 . S
C1257 C1255 1.419 . S
C1257 C1258 1.362 . S
C1258 H1250 0.930 . S
C1258 C1257 1.362 . S
C1258 C1261 1.409 . S
C1259 H1251 0.930 . S
C1259 C1260 1.355 . S
C1259 C1261 1.415 . S
C1260 C1259 1.355 . S
C1260 C1262 1.419 . S
C1261 C1256 1.425 . S
C1261 C1258 1.409 . S
C1261 C1259 1.415 . S
C1262 H1252 0.930 . S
C1262 C1260 1.419 . S
C1262 C1263 1.362 . S
C1263 H1253 0.930 . S
C1263 C1256 1.409 . S
C1263 C1262 1.362 . S
H1264 C1270 0.930 . S
H1265 C1273 0.930 . S
H1266 C1274 0.930 . S
H1267 C1275 0.930 . S
H1268 C1278 0.930 . S
H1269 C1279 0.930 . S
C1270 H1264 0.930 . S
C1270 C1271 1.355 . S
C1270 C1272 1.415 . S
C1271 C1270 1.355 . S
C1271 C1273 1.419 . S
C1272 C1270 1.415 . S
C1272 C1277 1.425 . S
C1272 C1279 1.409 . S
C1273 H1265 0.930 . S
C1273 C1271 1.419 . S
C1273 C1274 1.362 . S
C1274 H1266 0.930 . S
C1274 C1273 1.362 . S
C1274 C1277 1.409 . S
C1275 H1267 0.930 . S
C1275 C1276 1.355 . S
C1275 C1277 1.415 . S
C1276 C1275 1.355 . S
C1276 C1278 1.419 . S
C1277 C1272 1.425 . S
C1277 C1274 1.409 . S
C1277 C1275 1.415 . S
C1278 H1268 0.930 . S
C1278 C1276 1.419 . S
C1278 C1279 1.362 . S
C1279 H1269 0.930 . S
C1279 C1272 1.409 . S
C1279 C1278 1.362 . S
H1280 C1286 0.930 . S
H1281 C1289 0.930 . S
H1282 C1290 0.930 . S
H1283 C1291 0.930 . S
H1284 C1294 0.930 . S
H1285 C1295 0.930 . S
C1286 H1280 0.930 . S
C1286 C1287 1.355 . S
C1286 C1288 1.415 . S
C1287 C1286 1.355 . S
C1287 C1289 1.419 . S
C1288 C1286 1.415 . S
C1288 C1293 1.425 . S
C1288 C1295 1.409 . S
C1289 H1281 0.930 . S
C1289 C1287 1.419 . S
C1289 C1290 1.362 . S
C1290 H1282 0.930 . S
C1290 C1289 1.362 . S
C1290 C1293 1.409 . S
C1291 H1283 0.930 . S
C1291 C1292 1.355 . S
C1291 C1293 1.415 . S
C1292 C1291 1.355 . S
C1292 C1294 1.419 . S
C1293 C1288 1.425 . S
C1293 C1290 1.409 . S
C1293 C1291 1.415 . S
C1294 H1284 0.930 . S
C1294 C1292 1.419 . S
C1294 C1295 1.362 . S
C1295 H1285 0.930 . S
C1295 C1288 1.409 . S
C1295 C1294 1.362 . S
H1296 C1302 0.930 . S
H1297 C1305 0.930 . S
H1298 C1306 0.930 . S
H1299 C1307 0.930 . S
H1300 C1310 0.930 . S
H1301 C1311 0.930 . S
C1302 H1296 0.930 . S
C1302 C1303 1.355 . S
C1302 C1304 1.415 . S
C1303 C1302 1.355 . S
C1303 C1305 1.419 . S
C1304 C1302 1.415 . S
C1304 C1309 1.425 . S
C1304 C1311 1.409 . S
C1305 H1297 0.930 . S
C1305 C1303 1.419 . S
C1305 C1306 1.362 . S
C1306 H1298 0.930 . S
C1306 C1305 1.362 . S
C1306 C1309 1.409 . S
C1307 H1299 0.930 . S
C1307 C1308 1.355 . S
C1307 C1309 1.415 . S
C1308 C1307 1.355 . S
C1308 C1310 1.419 . S
C1309 C1304 1.425 . S
C1309 C1306 1.409 . S
C1309 C1307 1.415 . S
C1310 H1300 0.930 . S
C1310 C1308 1.419 . S
C1310 C1311 1.362 . S
C1311 H1301 0.930 . S
C1311 C1304 1.409 . S
C1311 C1310 1.362 . S
H1312 C1318 0.930 . S
H1313 C1321 0.930 . S
H1314 C1322 0.930 . S
H1315 C1323 0.930 . S
H1316 C1326 0.930 . S
H1317 C1327 0.930 . S
C1318 H1312 0.930 . S
C1318 C1319 1.355 . S
C1318 C1320 1.415 . S
C1319 C1318 1.355 . S
C1319 C1321 1.419 . S
C1320 C1318 1.415 . S
C1320 C1325 1.425 . S
C1320 C1327 1.409 . S
C1321 H1313 0.930 . S
C1321 C1319 1.419 . S
C1321 C1322 1.362 . S
C1322 H1314 0.930 . S
C1322 C1321 1.362 . S
C1322 C1325 1.409 . S
C1323 H1315 0.930 . S
C1323 C1324 1.355 . S
C1323 C1325 1.415 . S
C1324 C1323 1.355 . S
C1324 C1326 1.419 . S
C1325 C1320 1.425 . S
C1325 C1322 1.409 . S
C1325 C1323 1.415 . S
C1326 H1316 0.930 . S
C1326 C1324 1.419 . S
C1326 C1327 1.362 . S
C1327 H1317 0.930 . S
C1327 C1320 1.409 . S
C1327 C1326 1.362 . S
H1328 C1334 0.930 . S
H1329 C1337 0.930 . S
H1330 C1338 0.930 . S
H1331 C1339 0.930 . S
H1332 C1342 0.930 . S
H1333 C1343 0.930 . S
C1334 H1328 0.930 . S
C1334 C1335 1.355 . S
C1334 C1336 1.415 . S
C1335 C1334 1.355 . S
C1335 C1337 1.419 . S
C1336 C1334 1.415 . S
C1336 C1341 1.425 . S
C1336 C1343 1.409 . S
C1337 H1329 0.930 . S
C1337 C1335 1.419 . S
C1337 C1338 1.362 . S
C1338 H1330 0.930 . S
C1338 C1337 1.362 . S
C1338 C1341 1.409 . S
C1339 H1331 0.930 . S
C1339 C1340 1.355 . S
C1339 C1341 1.415 . S
C1340 C1339 1.355 . S
C1340 C1342 1.419 . S
C1341 C1336 1.425 . S
C1341 C1338 1.409 . S
C1341 C1339 1.415 . S
C1342 H1332 0.930 . S
C1342 C1340 1.419 . S
C1342 C1343 1.362 . S
C1343 H1333 0.930 . S
C1343 C1336 1.409 . S
C1343 C1342 1.362 . S
H1344 C1350 0.930 . S
H1345 C1353 0.930 . S
H1346 C1354 0.930 . S
H1347 C1355 0.930 . S
H1348 C1358 0.930 . S
H1349 C1359 0.930 . S
C1350 H1344 0.930 . S
C1350 C1351 1.355 . S
C1350 C1352 1.415 . S
C1351 C1350 1.355 . S
C1351 C1353 1.419 . S
C1352 C1350 1.415 . S
C1352 C1357 1.425 . S
C1352 C1359 1.409 . S
C1353 H1345 0.930 . S
C1353 C1351 1.419 . S
C1353 C1354 1.362 . S
C1354 H1346 0.930 . S
C1354 C1353 1.362 . S
C1354 C1357 1.409 . S
C1355 H1347 0.930 . S
C1355 C1356 1.355 . S
C1355 C1357 1.415 . S
C1356 C1355 1.355 . S
C1356 C1358 1.419 . S
C1357 C1352 1.425 . S
C1357 C1354 1.409 . S
C1357 C1355 1.415 . S
C1358 H1348 0.930 . S
C1358 C1356 1.419 . S
C1358 C1359 1.362 . S
C1359 H1349 0.930 . S
C1359 C1352 1.409 . S
C1359 C1358 1.362 . S
H1360 C1366 0.930 . S
H1361 C1369 0.930 . S
H1362 C1370 0.930 . S
H1363 C1371 0.930 . S
H1364 C1374 0.930 . S
H1365 C1375 0.930 . S
C1366 H1360 0.930 . S
C1366 C1367 1.355 . S
C1366 C1368 1.415 . S
C1367 C1366 1.355 . S
C1367 C1369 1.419 . S
C1368 C1366 1.415 . S
C1368 C1373 1.425 . S
C1368 C1375 1.409 . S
C1369 H1361 0.930 . S
C1369 C1367 1.419 . S
C1369 C1370 1.362 . S
C1370 H1362 0.930 . S
C1370 C1369 1.362 . S
C1370 C1373 1.409 . S
C1371 H1363 0.930 . S
C1371 C1372 1.355 . S
C1371 C1373 1.415 . S
C1372 C1371 1.355 . S
C1372 C1374 1.419 . S
C1373 C1368 1.425 . S
C1373 C1370 1.409 . S
C1373 C1371 1.415 . S
C1374 H1364 0.930 . S
C1374 C1372 1.419 . S
C1374 C1375 1.362 . S
C1375 H1365 0.930 . S
C1375 C1368 1.409 . S
C1375 C1374 1.362 . S
H1376 C1382 0.930 . S
H1377 C1385 0.930 . S
H1378 C1386 0.930 . S
H1379 C1387 0.930 . S
H1380 C1390 0.930 . S
H1381 C1391 0.930 . S
C1382 H1376 0.930 . S
C1382 C1383 1.355 . S
C1382 C1384 1.415 . S
C1383 C1382 1.355 . S
C1383 C1385 1.419 . S
C1384 C1382 1.415 . S
C1384 C1389 1.425 . S
C1384 C1391 1.409 . S
C1385 H1377 0.930 . S
C1385 C1383 1.419 . S
C1385 C1386 1.362 . S
C1386 H1378 0.930 . S
C1386 C1385 1.362 . S
C1386 C1389 1.409 . S
C1387 H1379 0.930 . S
C1387 C1388 1.355 . S
C1387 C1389 1.415 . S
C1388 C1387 1.355 . S
C1388 C1390 1.419 . S
C1389 C1384 1.425 . S
C1389 C1386 1.409 . S
C1389 C1387 1.415 . S
C1390 H1380 0.930 . S
C1390 C1388 1.419 . S
C1390 C1391 1.362 . S
C1391 H1381 0.930 . S
C1391 C1384 1.409 . S
C1391 C1390 1.362 . S
H1392 C1398 0.930 . S
H1393 C1401 0.930 . S
H1394 C1402 0.930 . S
H1395 C1403 0.930 . S
H1396 C1406 0.930 . S
H1397 C1407 0.930 . S
C1398 H1392 0.930 . S
C1398 C1399 1.355 . S
C1398 C1400 1.415 . S
C1399 C1398 1.355 . S
C1399 C1401 1.419 . S
C1400 C1398 1.415 . S
C1400 C1405 1.425 . S
C1400 C1407 1.409 . S
C1401 H1393 0.930 . S
C1401 C1399 1.419 . S
C1401 C1402 1.362 . S
C1402 H1394 0.930 . S
C1402 C1401 1.362 . S
C1402 C1405 1.409 . S
C1403 H1395 0.930 . S
C1403 C1404 1.355 . S
C1403 C1405 1.415 . S
C1404 C1403 1.355 . S
C1404 C1406 1.419 . S
C1405 C1400 1.425 . S
C1405 C1402 1.409 . S
C1405 C1403 1.415 . S
C1406 H1396 0.930 . S
C1406 C1404 1.419 . S
C1406 C1407 1.362 . S
C1407 H1397 0.930 . S
C1407 C1400 1.409 . S
C1407 C1406 1.362 . S
H1408 C1414 0.930 . S
H1409 C1417 0.930 . S
H1410 C1418 0.930 . S
H1411 C1419 0.930 . S
H1412 C1422 0.930 . S
H1413 C1423 0.930 . S
C1414 H1408 0.930 . S
C1414 C1415 1.355 . S
C1414 C1416 1.415 . S
C1415 C1414 1.355 . S
C1415 C1417 1.419 . S
C1416 C1414 1.415 . S
C1416 C1421 1.425 . S
C1416 C1423 1.409 . S
C1417 H1409 0.930 . S
C1417 C1415 1.419 . S
C1417 C1418 1.362 . S
C1418 H1410 0.930 . S
C1418 C1417 1.362 . S
C1418 C1421 1.409 . S
C1419 H1411 0.930 . S
C1419 C1420 1.355 . S
C1419 C1421 1.415 . S
C1420 C1419 1.355 . S
C1420 C1422 1.419 . S
C1421 C1416 1.425 . S
C1421 C1418 1.409 . S
C1421 C1419 1.415 . S
C1422 H1412 0.930 . S
C1422 C1420 1.419 . S
C1422 C1423 1.362 . S
C1423 H1413 0.930 . S
C1423 C1416 1.409 . S
C1423 C1422 1.362 . S
H1424 C1430 0.930 . S
H1425 C1433 0.930 . S
H1426 C1434 0.930 . S
H1427 C1435 0.930 . S
H1428 C1438 0.930 . S
H1429 C1439 0.930 . S
C1430 H1424 0.930 . S
C1430 C1431 1.355 . S
C1430 C1432 1.415 . S
C1431 C1430 1.355 . S
C1431 C1433 1.419 . S
C1432 C1430 1.415 . S
C1432 C1437 1.425 . S
C1432 C1439 1.409 . S
C1433 H1425 0.930 . S
C1433 C1431 1.419 . S
C1433 C1434 1.362 . S
C1434 H1426 0.930 . S
C1434 C1433 1.362 . S
C1434 C1437 1.409 . S
C1435 H1427 0.930 . S
C1435 C1436 1.355 . S
C1435 C1437 1.415 . S
C1436 C1435 1.355 . S
C1436 C1438 1.419 . S
C1437 C1432 1.425 . S
C1437 C1434 1.409 . S
C1437 C1435 1.415 . S
C1438 H1428 0.930 . S
C1438 C1436 1.419 . S
C1438 C1439 1.362 . S
C1439 H1429 0.930 . S
C1439 C1432 1.409 . S
C1439 C1438 1.362 . S
H1440 C1446 0.930 . S
H1441 C1449 0.930 . S
H1442 C1450 0.930 . S
H1443 C1451 0.930 . S
H1444 C1454 0.930 . S
H1445 C1455 0.930 . S
C1446 H1440 0.930 . S
C1446 C1447 1.355 . S
C1446 C1448 1.415 . S
C1447 C1446 1.355 . S
C1447 C1449 1.419 . S
C1448 C1446 1.415 . S
C1448 C1453 1.425 . S
C1448 C1455 1.409 . S
C1449 H1441 0.930 . S
C1449 C1447 1.419 . S
C1449 C1450 1.362 . S
C1450 H1442 0.930 . S
C1450 C1449 1.362 . S
C1450 C1453 1.409 . S
C1451 H1443 0.930 . S
C1451 C1452 1.355 . S
C1451 C1453 1.415 . S
C1452 C1451 1.355 . S
C1452 C1454 1.419 . S
C1453 C1448 1.425 . S
C1453 C1450 1.409 . S
C1453 C1451 1.415 . S
C1454 H1444 0.930 . S
C1454 C1452 1.419 . S
C1454 C1455 1.362 . S
C1455 H1445 0.930 . S
C1455 C1448 1.409 . S
C1455 C1454 1.362 . S
H1456 C1462 0.930 . S
H1457 C1465 0.930 . S
H1458 C1466 0.930 . S
H1459 C1467 0.930 . S
H1460 C1470 0.930 . S
H1461 C1471 0.930 . S
C1462 H1456 0.930 . S
C1462 C1463 1.355 . S
C1462 C1464 1.415 . S
C1463 C1462 1.355 . S
C1463 C1465 1.419 . S
C1464 C1462 1.415 . S
C1464 C1469 1.425 . S
C1464 C1471 1.409 . S
C1465 H1457 0.930 . S
C1465 C1463 1.419 . S
C1465 C1466 1.362 . S
C1466 H1458 0.930 . S
C1466 C1465 1.362 . S
C1466 C1469 1.409 . S
C1467 H1459 0.930 . S
C1467 C1468 1.355 . S
C1467 C1469 1.415 . S
C1468 C1467 1.355 . S
C1468 C1470 1.419 . S
C1469 C1464 1.425 . S
C1469 C1466 1.409 . S
C1469 C1467 1.415 . S
C1470 H1460 0.930 . S
C1470 C1468 1.419 . S
C1470 C1471 1.362 . S
C1471 H1461 0.930 . S
C1471 C1464 1.409 . S
C1471 C1470 1.362 . S
C455 C8 1.500 . S
C460 C64 1.502 . S
C471 C22 1.503 . S
C476 C78 1.496 . S
C487 C92 1.498 . S
C492 C36 1.480 . S
C503 C106 1.474 . S
C508 C50 1.494 . S
C519 C120 1.480 . S
C524 C176 1.498 . S
C535 C134 1.503 . S
C540 C190 1.494 . S
C551 C204 1.463 . S
C556 C148 1.480 . S
C567 C162 1.499 . S
C572 C218 1.482 . S
C583 C288 1.472 . S
C588 C232 1.492 . S
C599 C302 1.463 . S
C604 C246 1.478 . S
C615 C260 1.472 . S
C620 C316 1.492 . S
C631 C330 1.474 . S
C636 C274 1.461 . S
C647 C344 1.502 . S
C652 C400 1.500 . S
C663 C414 1.499 . S
C668 C358 1.502 . S
C679 C428 1.493 . S
C684 C372 1.503 . S
C695 C386 1.485 . S
C700 C442 1.501 . S
C711 C9 1.509 . S
C716 C385 1.525 . S
C727 C119 1.515 . S
C732 C23 1.478 . S
C743 C37 1.528 . S
C748 C357 1.503 . S
C759 C51 1.499 . S
C764 C147 1.458 . S
C775 C413 1.458 . S
C780 C65 1.500 . S
C791 C203 1.479 . S
C796 C79 1.521 . S
C807 C93 1.491 . S
C812 C441 1.454 . S
C823 C107 1.527 . S
C828 C175 1.509 . S
C839 C273 1.471 . S
C844 C121 1.457 . S
C855 C135 1.465 . S
C860 C7 1.501 . S
C871 C245 1.494 . S
C876 C149 1.527 . S
C887 C163 1.495 . S
C892 C35 1.456 . S
C903 C301 1.495 . S
C908 C177 1.461 . S
C919 C191 1.465 . S
C924 C91 1.457 . S
C935 C329 1.515 . S
C940 C205 1.478 . S
C951 C219 1.509 . S
C956 C63 1.465 . S
C967 C161 1.503 . S
C972 C233 1.528 . S
C983 C343 1.482 . S
C988 C247 1.457 . S
C999 C133 1.507 . S
C1004 C261 1.528 . S
C1015 C275 1.457 . S
C1020 C371 1.473 . S
C1031 C189 1.457 . S
C1036 C289 1.465 . S
C1047 C427 1.460 . S
C1052 C303 1.503 . S
C1063 C217 1.525 . S
C1068 C317 1.508 . S
C1079 C331 1.457 . S
C1084 C399 1.473 . S
C1095 C345 1.507 . S
C1100 C49 1.463 . S
C1111 C359 1.483 . S
C1116 C231 1.519 . S
C1127 C373 1.501 . S
C1132 C21 1.459 . S
C1143 C387 1.523 . S
C1148 C259 1.518 . S
C1159 C401 1.460 . S
C1164 C77 1.492 . S
C1175 C315 1.495 . S
C1180 C415 1.527 . S
C1191 C105 1.492 . S
C1196 C429 1.526 . S
C1207 C443 1.489 . S
C1212 C287 1.522 . S
C1223 C3 1.137 . S
C1228 C101 1.099 . S
C1239 C17 1.139 . S
C1244 C59 1.086 1_556 S
C1255 C31 1.086 1_554 S
C1260 C73 1.137 . S
C1271 C87 1.126 . S
C1276 C45 1.113 . S
C1287 C213 1.136 . S
C1292 C115 1.100 . S
C1303 C171 1.137 1_554 S
C1308 C129 1.098 . S
C1319 C185 1.121 . S
C1324 C143 1.095 1_556 S
C1335 C199 1.090 . S
C1340 C157 1.127 . S
C1351 C227 1.092 1_554 S
C1356 C325 1.140 . S
C1367 C283 1.109 . S
C1372 C241 1.105 . S
C1383 C297 1.101 . S
C1388 C255 1.114 . S
C1399 C311 1.134 1_556 S
C1404 C269 1.103 . S
C1415 C437 1.086 . S
C1420 C339 1.140 1_556 S
C1431 C353 1.127 . S
C1436 C395 1.112 . S
C1447 C367 1.102 . S
C1452 C409 1.112 . S
C1463 C381 1.140 . S
C1468 C423 1.086 1_554 S
