# Generated by pormake.
# Topology smc, (6)-cn, num edge types: 1
# Building blocks:
#     Node 0, Type 0, BuildingBlock: BETFEN_clean_sbu_0, # of connection points: 6
#     Node 1, Type 0, BuildingBlock: BETFEN_clean_sbu_0, # of connection points: 6
#     Node 2, Type 0, BuildingBlock: BETFEN_clean_sbu_0, # of connection points: 6
#     Node 3, Type 0, BuildingBlock: BETFEN_clean_sbu_0, # of connection points: 6
#     Node 4, Type 0, BuildingBlock: BETFEN_clean_sbu_0, # of connection points: 6
#     Node 5, Type 0, BuildingBlock: BETFEN_clean_sbu_0, # of connection points: 6
#     Node 6, Type 0, BuildingBlock: BETFEN_clean_sbu_0, # of connection points: 6
#     Node 7, Type 0, BuildingBlock: BETFEN_clean_sbu_0, # of connection points: 6
#     Node 8, Type 0, BuildingBlock: BETFEN_clean_sbu_0, # of connection points: 6
#     Edge 9, Type (0, 0), BuildingBlock: EYOCIG_clean_linker_4, # of connection points: 2
#     Edge 10, Type (0, 0), BuildingBlock: EYOCIG_clean_linker_4, # of connection points: 2
#     Edge 11, Type (0, 0), BuildingBlock: EYOCIG_clean_linker_4, # of connection points: 2
#     Edge 12, Type (0, 0), BuildingBlock: EYOCIG_clean_linker_4, # of connection points: 2
#     Edge 13, Type (0, 0), BuildingBlock: EYOCIG_clean_linker_4, # of connection points: 2
#     Edge 14, Type (0, 0), BuildingBlock: EYOCIG_clean_linker_4, # of connection points: 2
#     Edge 15, Type (0, 0), BuildingBlock: EYOCIG_clean_linker_4, # of connection points: 2
#     Edge 16, Type (0, 0), BuildingBlock: EYOCIG_clean_linker_4, # of connection points: 2
#     Edge 17, Type (0, 0), BuildingBlock: EYOCIG_clean_linker_4, # of connection points: 2
#     Edge 18, Type (0, 0), BuildingBlock: EYOCIG_clean_linker_4, # of connection points: 2
#     Edge 19, Type (0, 0), BuildingBlock: EYOCIG_clean_linker_4, # of connection points: 2
#     Edge 20, Type (0, 0), BuildingBlock: EYOCIG_clean_linker_4, # of connection points: 2
#     Edge 21, Type (0, 0), BuildingBlock: EYOCIG_clean_linker_4, # of connection points: 2
#     Edge 22, Type (0, 0), BuildingBlock: EYOCIG_clean_linker_4, # of connection points: 2
#     Edge 23, Type (0, 0), BuildingBlock: EYOCIG_clean_linker_4, # of connection points: 2
#     Edge 24, Type (0, 0), BuildingBlock: EYOCIG_clean_linker_4, # of connection points: 2
#     Edge 25, Type (0, 0), BuildingBlock: EYOCIG_clean_linker_4, # of connection points: 2
#     Edge 26, Type (0, 0), BuildingBlock: EYOCIG_clean_linker_4, # of connection points: 2
#     Edge 27, Type (0, 0), BuildingBlock: EYOCIG_clean_linker_4, # of connection points: 2
#     Edge 28, Type (0, 0), BuildingBlock: EYOCIG_clean_linker_4, # of connection points: 2
#     Edge 29, Type (0, 0), BuildingBlock: EYOCIG_clean_linker_4, # of connection points: 2
#     Edge 30, Type (0, 0), BuildingBlock: EYOCIG_clean_linker_4, # of connection points: 2
#     Edge 31, Type (0, 0), BuildingBlock: EYOCIG_clean_linker_4, # of connection points: 2
#     Edge 32, Type (0, 0), BuildingBlock: EYOCIG_clean_linker_4, # of connection points: 2
#     Edge 33, Type (0, 0), BuildingBlock: EYOCIG_clean_linker_4, # of connection points: 2
#     Edge 34, Type (0, 0), BuildingBlock: EYOCIG_clean_linker_4, # of connection points: 2
#     Edge 35, Type (0, 0), BuildingBlock: EYOCIG_clean_linker_4, # of connection points: 2
# Relax obj value: 0.193
# Max RMSD: 0.332
# Mean RMSD: 0.332
data_MOF--net-smc--node1-BETFEN_clean_sbu_0--edge1-EYOCIG_clean_linker_4
_symmetry_space_group_name_H-M    P1
_symmetry_Int_Tables_number       1
_symmetry_cell_setting            triclinic
loop_
_symmetry_equiv_pos_as_xyz
'x, y, z'
_cell_length_a     33.731203
_cell_length_b     33.749901
_cell_length_c     29.940176
_cell_angle_alpha  89.938258
_cell_angle_beta   90.087347
_cell_angle_gamma 120.09085
loop_
_atom_site_label
_atom_site_type_symbol
_atom_site_fract_x
_atom_site_fract_y
_atom_site_fract_z
_atom_type_partial_charge
Pr0 Pr 1.00055 0.478 0.05169 0.0
Pr1 Pr 0.06663 0.44268 1.02025 0.0
C2 C 0.92901 0.49254 0.04589 0.0
C3 C 0.87985 0.47798 0.05247 0.0
C4 C 0.86646 0.49348 0.08988 0.0
C5 C 0.8251 0.49366 0.08965 0.0
C6 C 0.79681 0.47892 0.05189 0.0
C7 C 0.80658 0.45728 1.01718 0.0
C8 C 0.8481 0.45705 1.01733 0.0
C9 C 0.04849 0.46545 0.12446 0.0
C10 C 0.95503 0.37353 0.05465 0.0
C11 C 0.13777 0.42872 1.03172 0.0
C12 C 0.18822 0.45357 1.0248 0.0
C13 C 0.20706 0.44554 0.98633 0.0
C14 C 0.2543 0.4632 0.98292 0.0
C15 C 0.28322 0.48946 1.01768 0.0
C16 C 0.26524 0.49914 0.05535 0.0
C17 C 0.21806 0.48155 0.05884 0.0
C18 C 1.01668 0.42922 0.94633 0.0
C19 C 0.10146 0.55511 1.02054 0.0
O20 O 0.93993 0.47284 1.01445 0.0
O21 O 0.95744 0.50669 0.07989 0.0
O22 O 0.04983 0.46089 0.08335 0.0
O23 O 1.02004 0.48047 0.13089 0.0
O24 O 0.99053 0.37628 1.0317 0.0
O25 O 0.95855 0.40722 0.07815 0.0
O26 O 0.12213 0.44406 0.06316 0.0
O27 O 0.1109 0.41368 0.99666 0.0
O28 O 1.00453 0.44109 0.98307 0.0
O29 O 0.05825 0.43631 0.94583 0.0
O30 O 0.06192 0.54811 0.0351 0.0
O31 O 0.11034 0.52225 1.01107 0.0
H32 H 0.88977 0.5095 0.1176 0.0
H33 H 0.81788 0.51017 0.11693 0.0
H34 H 0.78503 0.44548 0.98771 0.0
H35 H 0.8571 0.44445 0.98805 0.0
H36 H 0.18517 0.42424 0.95957 0.0
H37 H 0.2681 0.45567 0.95355 0.0
H38 H 0.28753 0.51959 0.08238 0.0
H39 H 0.2049 0.48853 0.08895 0.0
Pr40 Pr 0.58098 0.53382 0.05137 0.0
Pr41 Pr 0.61721 0.63666 1.02032 0.0
C42 C 0.56683 0.44794 0.04532 0.0
C43 C 0.58145 0.41344 0.05231 0.0
C44 C 0.5659 0.38455 0.0898 0.0
C45 C 0.56619 0.34325 0.08997 0.0
C46 C 0.58153 0.32996 0.05255 0.0
C47 C 0.60301 0.36136 1.01773 0.0
C48 C 0.60272 0.40282 1.01747 0.0
C49 C 0.59466 0.59489 0.1242 0.0
C50 C 0.68575 0.59331 0.05463 0.0
C51 C 0.62993 0.72116 1.03215 0.0
C52 C 0.60526 0.74677 1.02494 0.0
C53 C 0.61356 0.77369 0.9864 0.0
C54 C 0.59635 0.80358 0.98284 0.0
C55 C 0.57025 0.80648 1.01752 0.0
C56 C 0.56028 0.77874 0.05525 0.0
C57 C 0.57743 0.74885 0.05889 0.0
C58 C 0.63226 0.60057 0.94663 0.0
C59 C 0.50452 0.55835 1.01908 0.0
O60 O 0.58727 0.47906 1.01432 0.0
O61 O 0.55173 0.46163 0.07893 0.0
O62 O 0.59961 0.60075 0.08309 0.0
O63 O 0.57844 0.55115 0.13057 0.0
O64 O 0.68342 0.6268 1.03255 0.0
O65 O 0.65183 0.56236 0.07741 0.0
O66 O 0.61416 0.68974 0.0633 0.0
O67 O 0.64556 0.70993 0.99725 0.0
O68 O 0.61575 0.57561 0.9826 0.0
O69 O 0.63027 0.638 0.94659 0.0
O70 O 0.51112 0.52578 0.0345 0.0
O71 O 0.53766 0.60008 1.00939 0.0
H72 H 0.54959 0.39166 0.11729 0.0
H73 H 0.54975 0.31951 0.11731 0.0
H74 H 0.61519 0.35177 0.9885 0.0
H75 H 0.61532 0.42439 0.98811 0.0
H76 H 0.63478 0.77295 0.9597 0.0
H77 H 0.60409 0.82493 0.95341 0.0
H78 H 0.53993 0.78074 0.08221 0.0
H79 H 0.57029 0.72869 0.08906 0.0
Pr80 Pr 0.52442 0.05913 0.05075 0.0
Pr81 Pr 0.42236 0.99243 1.02018 0.0
C82 C 0.61065 0.13039 0.04552 0.0
C83 C 0.64526 0.17953 0.05213 0.0
C84 C 0.67427 0.19291 0.08958 0.0
C85 C 0.71588 0.23426 0.08941 0.0
C86 C 0.72933 0.26256 0.0517 0.0
C87 C 0.69783 0.25277 1.01696 0.0
C88 C 0.65603 0.21125 1.01705 0.0
C89 C 0.46437 1.00851 0.12335 0.0
C90 C 0.46581 0.10402 0.05774 0.0
C91 C 0.33699 0.92212 1.03094 0.0
C92 C 0.3122 0.87158 1.02467 0.0
C93 C 0.28513 0.85193 0.98643 0.0
C94 C 0.25585 0.8046 0.98367 0.0
C95 C 0.25377 0.77639 1.01884 0.0
C96 C 0.28193 0.79512 0.05618 0.0
C97 C 0.31122 0.84241 0.05903 0.0
C98 C 0.466 0.04558 0.94742 0.0
C99 C 0.50081 0.95844 1.01846 0.0
O100 O 0.58043 0.11914 1.01343 0.0
O101 O 0.59586 0.10237 0.07979 0.0
O102 O 0.45935 1.00645 0.08205 0.0
O103 O 0.50743 0.03873 0.13008 0.0
O104 O 0.4336 0.06927 1.03318 0.0
O105 O 0.49535 0.0993 0.08123 0.0
O106 O 0.36732 0.93842 0.06312 0.0
O107 O 0.3493 0.94856 0.99546 0.0
O108 O 0.47764 0.05949 0.98822 0.0
O109 O 0.43739 1.0015 0.94513 0.0
O110 O 0.53364 0.99848 1.03176 0.0
O111 O 0.4584 0.94881 1.01094 0.0
H112 H 0.66702 0.16959 0.11726 0.0
H113 H 0.73971 0.2415 0.11669 0.0
H114 H 0.70756 0.27435 0.98753 0.0
H115 H 0.63434 0.20224 0.98775 0.0
H116 H 0.2852 0.87328 0.9594 0.0
H117 H 0.23421 0.7902 0.9545 0.0
H118 H 0.2806 0.77334 0.08348 0.0
H119 H 0.3317 0.85615 0.08894 0.0
Pr120 Pr 0.66642 0.81041 0.384 0.0
Pr121 Pr 0.73361 0.77534 0.3537 0.0
C122 C 0.59531 0.82555 0.37889 0.0
C123 C 0.54611 0.81097 0.38532 0.0
C124 C 0.53268 0.8267 0.42257 0.0
C125 C 0.49116 0.82661 0.42228 0.0
C126 C 0.4627 0.81131 0.38464 0.0
C127 C 0.47267 0.78966 0.35009 0.0
C128 C 0.51434 0.78973 0.35029 0.0
C129 C 0.7176 0.80131 0.45632 0.0
C130 C 0.62203 0.7067 0.39138 0.0
C131 C 0.80396 0.76039 0.36437 0.0
C132 C 0.85447 0.78581 0.35769 0.0
C133 C 0.87356 0.77801 0.31932 0.0
C134 C 0.92078 0.79555 0.31623 0.0
C135 C 0.94949 0.82157 0.35118 0.0
C136 C 0.93136 0.83147 0.38862 0.0
C137 C 0.88416 0.81396 0.39181 0.0
C138 C 0.68035 0.7658 0.28089 0.0
C139 C 0.7673 0.88782 0.35201 0.0
O140 O 0.60668 0.80699 0.34661 0.0
O141 O 0.62317 0.83831 0.4133 0.0
O142 O 0.71974 0.79906 0.41499 0.0
O143 O 0.68713 0.81367 0.46341 0.0
O144 O 0.65698 0.70941 0.36715 0.0
O145 O 0.62624 0.74103 0.41433 0.0
O146 O 0.78812 0.77487 0.39643 0.0
O147 O 0.77719 0.74594 0.32912 0.0
O148 O 0.66638 0.76323 0.32169 0.0
O149 O 0.72452 0.78178 0.27867 0.0
O150 O 0.72706 0.88037 0.3648 0.0
O151 O 0.77717 0.85521 0.34483 0.0
H152 H 0.55603 0.84303 0.45019 0.0
H153 H 0.48385 0.84317 0.44943 0.0
H154 H 0.45101 0.77746 0.32071 0.0
H155 H 0.52337 0.77698 0.32113 0.0
H156 H 0.85182 0.75677 0.29245 0.0
H157 H 0.9347 0.78799 0.28697 0.0
H158 H 0.95354 0.85189 0.41573 0.0
H159 H 0.87086 0.82098 0.4218 0.0
Pr160 Pr 0.24785 0.86727 0.38522 0.0
Pr161 Pr 0.28344 0.96961 0.35364 0.0
C162 C 0.23437 0.78167 0.37912 0.0
C163 C 0.24857 0.74686 0.3859 0.0
C164 C 0.23282 0.71783 0.42327 0.0
C165 C 0.2329 0.67643 0.42329 0.0
C166 C 0.24822 0.66318 0.38582 0.0
C167 C 0.26977 0.69464 0.35106 0.0
C168 C 0.2697 0.7362 0.35096 0.0
C169 C 0.25992 0.92825 0.45751 0.0
C170 C 0.35185 0.92614 0.38826 0.0
C171 C 0.29714 0.05455 0.365 0.0
C172 C 0.2723 0.08009 0.35823 0.0
C173 C 0.2805 0.1071 0.31978 0.0
C174 C 0.26339 0.13708 0.31647 0.0
C175 C 0.23745 0.13997 0.35129 0.0
C176 C 0.22741 0.11201 0.38888 0.0
C177 C 0.2445 0.08203 0.39229 0.0
C178 C 0.29853 0.93361 0.28005 0.0
C179 C 0.17089 0.89089 0.35285 0.0
O180 O 0.2552 0.81306 0.34843 0.0
O181 O 0.21883 0.79504 0.41264 0.0
O182 O 0.26559 0.93406 0.41648 0.0
O183 O 0.24387 0.88457 0.46416 0.0
O184 O 0.34937 0.95893 0.36501 0.0
O185 O 0.31838 0.89701 0.41272 0.0
O186 O 0.28253 0.02385 0.39681 0.0
O187 O 0.31144 0.04249 0.32969 0.0
O188 O 0.2826 0.90867 0.31613 0.0
O189 O 0.29549 0.97046 0.2798 0.0
O190 O 0.17785 0.85846 0.36795 0.0
O191 O 0.20376 0.93284 0.34345 0.0
H192 H 0.21657 0.72495 0.45081 0.0
H193 H 0.21638 0.65263 0.45057 0.0
H194 H 0.2819 0.68506 0.32178 0.0
H195 H 0.28238 0.75786 0.32166 0.0
H196 H 0.30165 0.10642 0.29298 0.0
H197 H 0.27114 0.15854 0.28712 0.0
H198 H 0.20711 0.11395 0.41592 0.0
H199 H 0.23735 0.06171 0.42236 0.0
Pr200 Pr 0.19131 0.39245 0.38435 0.0
Pr201 Pr 0.08929 0.32569 0.35362 0.0
C202 C 0.27742 0.46398 0.37915 0.0
C203 C 0.31211 0.51307 0.38594 0.0
C204 C 0.34093 0.52629 0.42352 0.0
C205 C 0.38247 0.56773 0.42367 0.0
C206 C 0.39607 0.59629 0.38613 0.0
C207 C 0.36479 0.58654 0.35119 0.0
C208 C 0.32307 0.54493 0.35095 0.0
C209 C 0.13117 0.34182 0.4569 0.0
C210 C 0.1326 0.43727 0.39093 0.0
C211 C 1.00401 0.25521 0.36449 0.0
C212 C 0.97885 0.20473 0.35773 0.0
C213 C 0.95192 0.18566 0.31929 0.0
C214 C 0.92217 0.13844 0.31611 0.0
C215 C 0.91946 0.1097 0.35104 0.0
C216 C 0.9475 0.12785 0.38856 0.0
C217 C 0.97726 0.17505 0.39184 0.0
C218 C 0.13226 0.37863 0.2807 0.0
C219 C 0.16807 0.29202 0.3521 0.0
O220 O 0.247 0.45296 0.3473 0.0
O221 O 0.26286 0.43568 0.41321 0.0
O222 O 0.126 0.34022 0.41565 0.0
O223 O 0.17432 0.37176 0.46366 0.0
O224 O 0.1004 0.40249 0.36641 0.0
O225 O 0.16202 0.43253 0.41462 0.0
O226 O 0.03461 0.27106 0.39643 0.0
O227 O 1.01611 0.28201 0.3293 0.0
O228 O 0.14474 0.39255 0.32141 0.0
O229 O 0.10281 0.33476 0.2785 0.0
O230 O 0.20079 0.33198 0.36566 0.0
O231 O 0.12572 0.28241 0.34421 0.0
H232 H 0.33357 0.50285 0.45111 0.0
H233 H 0.40613 0.5749 0.45109 0.0
H234 H 0.37464 0.60829 0.32187 0.0
H235 H 0.30155 0.53601 0.32153 0.0
H236 H 0.95244 0.2074 0.29243 0.0
H237 H 0.90067 0.12454 0.28679 0.0
H238 H 0.94574 0.10569 0.41568 0.0
H239 H 0.9976 0.18835 0.4219 0.0
Pr240 Pr 0.33338 0.14489 0.7184 0.0
Pr241 Pr 0.40008 0.10881 0.68718 0.0
C242 C 0.26154 0.15881 0.71216 0.0
C243 C 0.2124 0.14427 0.71879 0.0
C244 C 0.19898 0.16 0.75601 0.0
C245 C 0.15748 0.15992 0.75565 0.0
C246 C 0.1291 0.14467 0.71795 0.0
C247 C 0.13902 0.12294 0.68345 0.0
C248 C 0.18065 0.12298 0.68374 0.0
C249 C 0.38126 0.13167 0.79101 0.0
C250 C 0.28826 0.04052 0.72146 0.0
C251 C 0.4716 0.09562 0.69849 0.0
C252 C 0.52198 0.12057 0.69184 0.0
C253 C 0.54094 0.11233 0.65359 0.0
C254 C 0.58807 0.12942 0.65069 0.0
C255 C 0.6167 0.15533 0.68573 0.0
C256 C 0.59866 0.16545 0.72305 0.0
C257 C 0.55158 0.14842 0.72604 0.0
C258 C 0.34837 0.09342 0.61368 0.0
C259 C 0.43458 0.22134 0.68682 0.0
O260 O 0.27227 0.13843 0.68122 0.0
O261 O 0.29028 0.1739 0.74592 0.0
O262 O 0.38199 0.1266 0.74991 0.0
O263 O 0.35371 0.1478 0.79749 0.0
O264 O 0.32377 0.04282 0.69892 0.0
O265 O 0.29203 0.07419 0.74516 0.0
O266 O 0.45554 0.11023 0.73024 0.0
O267 O 0.44518 0.08118 0.66314 0.0
O268 O 0.34019 0.11004 0.64967 0.0
O269 O 0.38786 0.09552 0.61349 0.0
O270 O 0.39531 0.2147 0.70195 0.0
O271 O 0.44318 0.18833 0.67696 0.0
H272 H 0.22231 0.17633 0.78364 0.0
H273 H 0.15015 0.17653 0.78275 0.0
H274 H 0.11742 0.1108 0.65403 0.0
H275 H 0.1897 0.11024 0.65459 0.0
H276 H 0.51918 0.09114 0.6267 0.0
H277 H 0.60199 0.12168 0.62154 0.0
H278 H 0.62081 0.18576 0.75022 0.0
H279 H 0.53827 0.15559 0.75594 0.0
Pr280 Pr 0.91477 0.20056 0.71831 0.0
Pr281 Pr 0.9503 0.30306 0.68651 0.0
C282 C 0.90083 0.11488 0.71223 0.0
C283 C 0.9152 0.08024 0.71896 0.0
C284 C 0.89956 0.05124 0.75635 0.0
C285 C 0.89925 1.00966 0.75612 0.0
C286 C 0.914 0.99625 0.71836 0.0
C287 C 0.93569 0.02774 0.68367 0.0
C288 C 0.93606 0.0695 0.68384 0.0
C289 C 0.92812 0.26202 0.79033 0.0
C290 C 1.01898 0.25986 0.72099 0.0
C291 C 0.96351 0.38775 0.69811 0.0
C292 C 0.93866 0.41327 0.69161 0.0
C293 C 0.94688 0.44064 0.65343 0.0
C294 C 0.92984 0.4707 0.65065 0.0
C295 C 0.90399 0.47329 0.68574 0.0
C296 C 0.89395 0.445 0.72303 0.0
C297 C 0.91093 0.41493 0.7259 0.0
C298 C 0.96524 0.26667 0.61304 0.0
C299 C 0.8378 0.22449 0.68698 0.0
O300 O 0.92132 0.14605 0.68128 0.0
O301 O 0.88573 0.12847 0.74594 0.0
O302 O 0.93303 0.26745 0.74923 0.0
O303 O 0.91216 0.21841 0.79734 0.0
O304 O 1.0164 0.29281 0.69812 0.0
O305 O 0.9855 0.23012 0.74506 0.0
O306 O 0.94875 0.35682 0.7297 0.0
O307 O 0.97803 0.376 0.66273 0.0
O308 O 0.94911 0.24195 0.64921 0.0
O309 O 0.96266 0.30379 0.61269 0.0
O310 O 0.84474 0.19208 0.70213 0.0
O311 O 0.87061 0.26624 0.67688 0.0
H312 H 0.88356 0.05847 0.78404 0.0
H313 H 0.88267 0.98583 0.78336 0.0
H314 H 0.94743 1.01803 0.6542 0.0
H315 H 0.94871 0.09119 0.65456 0.0
H316 H 0.96799 0.44017 0.62648 0.0
H317 H 0.93755 0.49245 0.62152 0.0
H318 H 0.87372 0.44673 0.75026 0.0
H319 H 0.9038 0.39436 0.75578 0.0
Pr320 Pr 0.85876 0.72606 0.71833 0.0
Pr321 Pr 0.75608 0.65902 0.68647 0.0
C322 C 0.94461 0.79785 0.71244 0.0
C323 C 0.97918 0.84697 0.71892 0.0
C324 C 1.00847 0.86051 0.75613 0.0
C325 C 0.04993 0.90201 0.75572 0.0
C326 C 0.06292 0.93028 0.71799 0.0
C327 C 0.03116 0.92024 0.68347 0.0
C328 C 0.98954 0.87858 0.68379 0.0
C329 C 0.79693 0.67734 0.7901 0.0
C330 C 0.79908 0.77081 0.72102 0.0
C331 C 0.67134 0.58753 0.69816 0.0
C332 C 0.64599 0.53717 0.69168 0.0
C333 C 0.61881 0.51796 0.65338 0.0
C334 C 0.58915 0.47076 0.65043 0.0
C335 C 0.5868 0.44231 0.68548 0.0
C336 C 0.6148 0.46066 0.72296 0.0
C337 C 0.64446 0.50781 0.726 0.0
C338 C 0.79252 0.71046 0.61302 0.0
C339 C 0.8347 0.62513 0.68704 0.0
O340 O 0.91368 0.78687 0.68114 0.0
O341 O 0.93069 0.76942 0.74644 0.0
O342 O 0.79175 0.67753 0.74903 0.0
O343 O 0.84062 0.70466 0.79732 0.0
O344 O 0.76594 0.73507 0.69847 0.0
O345 O 0.82964 0.76771 0.7444 0.0
O346 O 0.7023 0.60374 0.72976 0.0
O347 O 0.6831 0.61381 0.66272 0.0
O348 O 0.8173 0.71909 0.64919 0.0
O349 O 0.75538 0.67067 0.61267 0.0
O350 O 0.86724 0.66463 0.70193 0.0
O351 O 0.79284 0.61609 0.6772 0.0
H352 H 1.00155 0.83726 0.7838 0.0
H353 H 0.07399 0.90944 0.78282 0.0
H354 H 0.04057 0.94176 0.65401 0.0
H355 H 0.96764 0.86941 0.65463 0.0
H356 H 0.61917 0.53954 0.62643 0.0
H357 H 0.56755 0.45662 0.62119 0.0
H358 H 0.61315 0.43867 0.75019 0.0
H359 H 0.66487 0.52132 0.75598 0.0
C360 C 0.41882 0.53697 1.01366 0.0
C361 C 0.45857 0.54853 1.01548 0.0
C362 C 0.37179 0.52094 1.01376 0.0
C363 C 0.33133 0.50631 1.01499 0.0
C364 C 0.52309 0.89476 1.01328 0.0
C365 C 0.51118 0.92267 1.01512 0.0
C366 C 0.53927 0.8639 1.01338 0.0
C367 C 0.5537 0.83794 1.01463 0.0
C368 C 0.19671 0.68782 1.01621 0.0
C369 C 0.22256 0.72826 1.01693 0.0
C370 C 0.16573 0.64084 1.01624 0.0
C371 C 0.13752 0.6011 1.01761 0.0
C372 C 0.51106 0.19235 0.044 0.0
C373 C 0.48418 0.15144 0.04561 0.0
C374 C 0.54337 0.24011 0.04458 0.0
C375 C 0.56307 0.28153 0.04494 0.0
C376 C 0.81924 0.31294 0.04299 0.0
C377 C 0.77782 0.29176 0.04372 0.0
C378 C 0.8669 0.32815 0.04192 0.0
C379 C 0.9079 0.34275 0.04301 0.0
C380 C 0.74676 0.51874 0.04322 0.0
C381 C 0.76773 0.49832 0.04388 0.0
C382 C 0.73174 0.55133 0.04224 0.0
C383 C 0.71712 0.57769 0.04327 0.0
C384 C 0.03789 0.85222 0.3478 0.0
C385 C 0.99751 0.838 0.34885 0.0
C386 C 0.08493 0.86844 0.34767 0.0
C387 C 0.1248 0.88055 0.34937 0.0
C388 C 0.19066 0.22857 0.34723 0.0
C389 C 0.17855 0.25632 0.34889 0.0
C390 C 0.20689 0.19775 0.34743 0.0
C391 C 0.2211 0.17161 0.34862 0.0
C392 C 0.86171 0.02117 0.34747 0.0
C393 C 0.88786 0.0616 0.34857 0.0
C394 C 0.83081 0.97406 0.3473 0.0
C395 C 0.803 0.93413 0.34894 0.0
C396 C 0.21009 0.57336 0.37771 0.0
C397 C 0.22976 0.61476 0.37815 0.0
C398 C 0.17784 0.52559 0.37708 0.0
C399 C 0.151 0.48467 0.37872 0.0
C400 C 0.48603 0.64734 0.37839 0.0
C401 C 0.44459 0.62593 0.37862 0.0
C402 C 0.53374 0.66263 0.37792 0.0
C403 C 0.57468 0.6769 0.37946 0.0
C404 C 0.3955 0.88164 0.37462 0.0
C405 C 0.38127 0.90833 0.376 0.0
C406 C 0.41112 0.84951 0.37573 0.0
C407 C 0.43286 0.82986 0.37659 0.0
C408 C 0.75196 0.20229 0.68284 0.0
C409 C 0.79179 0.21433 0.68404 0.0
C410 C 0.70497 0.18595 0.68291 0.0
C411 C 0.66463 0.17168 0.68358 0.0
C412 C 0.87332 0.53091 0.68305 0.0
C413 C 0.88761 0.50486 0.68367 0.0
C414 C 0.85695 0.56153 0.68298 0.0
C415 C 0.84487 0.58928 0.68415 0.0
C416 C 0.52986 0.35386 0.68239 0.0
C417 C 0.55563 0.39428 0.68324 0.0
C418 C 0.499 0.30691 0.68233 0.0
C419 C 0.47079 0.2672 0.68372 0.0
C420 C 0.8416 0.8588 0.70825 0.0
C421 C 0.81512 0.81781 0.70933 0.0
C422 C 0.87422 0.90641 0.70942 0.0
C423 C 0.89457 0.9478 0.71027 0.0
C424 C 0.15266 0.98122 0.7088 0.0
C425 C 0.11127 0.95982 0.70971 0.0
C426 C 0.20028 0.99634 0.70773 0.0
C427 C 0.24117 1.01047 0.70919 0.0
C428 C 0.07823 0.18353 0.7087 0.0
C429 C 0.0996 0.16354 0.70967 0.0
C430 C 0.06305 0.21598 0.70748 0.0
C431 C 0.04891 0.24271 0.70877 0.0
C432 C 0.11006 0.42324 0.21944 0.0
C433 C 0.12279 0.40653 0.2489 0.0
C434 C 0.08982 0.43921 0.18607 0.0
C435 C 0.07083 0.45128 0.15846 0.0
C436 C 0.63673 0.69895 0.21915 0.0
C437 C 0.65323 0.72833 0.24875 0.0
C438 C 0.62077 0.66268 0.18574 0.0
C439 C 0.60874 0.63148 0.15822 0.0
C440 C 0.39614 0.9667 0.18442 0.0
C441 C 0.42741 0.98588 0.15701 0.0
C442 C 0.36014 0.94564 0.21793 0.0
C443 C 0.33128 0.93319 0.24786 0.0
C444 C 0.44321 0.08961 0.88589 0.0
C445 C 0.45596 0.07295 0.91542 0.0
C446 C 0.42296 0.10562 0.85252 0.0
C447 C 0.40382 0.11761 0.82495 0.0
C448 C 0.9681 0.36527 0.88512 0.0
C449 C 0.9848 0.39442 0.9147 0.0
C450 C 0.95299 0.3295 0.85157 0.0
C451 C 0.9417 0.29886 0.82372 0.0
C452 C 0.72924 0.63323 0.85103 0.0
C453 C 0.75985 0.65319 0.82319 0.0
C454 C 0.69345 0.61184 0.88459 0.0
C455 C 0.66457 0.59941 0.91445 0.0
C456 C 0.75957 0.77529 0.51765 0.0
C457 C 0.74062 0.78706 0.48964 0.0
C458 C 0.78067 0.76045 0.55123 0.0
C459 C 0.79322 0.74395 0.58103 0.0
C460 C 0.28347 0.99588 0.51852 0.0
C461 C 0.27261 0.96481 0.49119 0.0
C462 C 0.29804 0.03189 0.55189 0.0
C463 C 0.31463 0.06089 0.58168 0.0
C464 C 1.02682 0.27823 0.55118 0.0
C465 C 0.99788 0.26584 0.58102 0.0
C466 C 0.06294 0.29943 0.51783 0.0
C467 C 0.09423 0.31887 0.4905 0.0
loop_
_geom_bond_atom_site_label_1
_geom_bond_atom_site_label_2
_geom_bond_distance
_geom_bond_site_symmetry_2
_ccdc_geom_bond_type
Pr0 C2 2.880 . S
Pr0 O20 2.562 1_554 S
Pr0 O21 2.490 . S
Pr0 O22 2.695 1_655 S
Pr0 O23 2.512 . S
Pr0 O25 2.437 . S
Pr0 O28 2.436 1_554 S
Pr0 O30 2.434 1_654 S
Pr1 C11 2.880 . S
Pr1 O22 2.436 1_556 S
Pr1 O24 2.438 1_456 S
Pr1 O26 2.562 1_556 S
Pr1 O27 2.490 . S
Pr1 O28 2.695 1_455 S
Pr1 O29 2.512 . S
Pr1 O31 2.437 . S
C2 Pr0 2.880 . S
C2 C3 1.491 . S
C2 O20 1.254 1_554 S
C2 O21 1.225 . S
C3 C2 1.491 . S
C3 C4 1.392 . S
C3 C8 1.356 1_554 S
C4 C3 1.392 . S
C4 C5 1.368 . S
C4 H32 0.929 . S
C5 C4 1.368 . S
C5 C6 1.386 . S
C5 H33 0.929 . S
C6 C5 1.386 . S
C6 C7 1.373 1_554 S
C7 C6 1.373 1_556 S
C7 C8 1.409 . S
C7 H34 0.931 . S
C8 C3 1.356 1_556 S
C8 C7 1.409 . S
C8 H35 0.930 . S
C9 O22 1.270 . S
C9 O23 1.248 1_455 S
C10 O24 1.267 . S
C10 O25 1.278 . S
C11 Pr1 2.880 . S
C11 C12 1.491 . S
C11 O26 1.254 1_556 S
C11 O27 1.225 . S
C12 C11 1.491 . S
C12 C13 1.392 . S
C12 C17 1.356 1_556 S
C13 C12 1.392 . S
C13 C14 1.368 . S
C13 H36 0.929 . S
C14 C13 1.368 . S
C14 C15 1.386 . S
C14 H37 0.929 . S
C15 C14 1.386 . S
C15 C16 1.373 1_556 S
C16 C15 1.373 1_554 S
C16 C17 1.409 . S
C16 H38 0.931 . S
C17 C12 1.356 1_554 S
C17 C16 1.409 . S
C17 H39 0.930 . S
C18 O28 1.270 . S
C18 O29 1.248 1_655 S
C19 O30 1.272 . S
C19 O31 1.278 . S
O20 Pr0 2.562 1_556 S
O20 C2 1.254 1_556 S
O21 Pr0 2.490 . S
O21 C2 1.225 . S
O22 Pr0 2.695 1_455 S
O22 Pr1 2.436 1_554 S
O22 C9 1.270 . S
O23 Pr0 2.512 . S
O23 C9 1.248 1_655 S
O24 Pr1 2.438 1_654 S
O24 C10 1.267 . S
O25 Pr0 2.437 . S
O25 C10 1.278 . S
O26 Pr1 2.562 1_554 S
O26 C11 1.254 1_554 S
O27 Pr1 2.490 . S
O27 C11 1.225 . S
O28 Pr0 2.436 1_556 S
O28 Pr1 2.695 1_655 S
O28 C18 1.270 . S
O29 Pr1 2.512 . S
O29 C18 1.248 1_455 S
O30 Pr0 2.434 1_456 S
O30 C19 1.272 . S
O31 Pr1 2.437 . S
O31 C19 1.278 . S
H32 C4 0.929 . S
H33 C5 0.929 . S
H34 C7 0.931 . S
H35 C8 0.930 . S
H36 C13 0.929 . S
H37 C14 0.929 . S
H38 C16 0.931 . S
H39 C17 0.930 . S
Pr40 C42 2.880 . S
Pr40 O60 2.562 1_554 S
Pr40 O61 2.490 . S
Pr40 O62 2.695 . S
Pr40 O63 2.512 . S
Pr40 O65 2.437 . S
Pr40 O68 2.436 1_554 S
Pr40 O70 2.434 1_554 S
Pr41 C51 2.880 . S
Pr41 O62 2.436 1_556 S
Pr41 O64 2.438 1_556 S
Pr41 O66 2.562 1_556 S
Pr41 O67 2.490 . S
Pr41 O68 2.695 . S
Pr41 O69 2.512 . S
Pr41 O71 2.437 . S
C42 Pr40 2.880 . S
C42 C43 1.491 . S
C42 O60 1.254 1_554 S
C42 O61 1.225 . S
C43 C42 1.491 . S
C43 C44 1.392 . S
C43 C48 1.356 1_554 S
C44 C43 1.392 . S
C44 C45 1.368 . S
C44 H72 0.929 . S
C45 C44 1.368 . S
C45 C46 1.386 . S
C45 H73 0.929 . S
C46 C45 1.386 . S
C46 C47 1.373 1_554 S
C47 C46 1.373 1_556 S
C47 C48 1.409 . S
C47 H74 0.931 . S
C48 C43 1.356 1_556 S
C48 C47 1.409 . S
C48 H75 0.930 . S
C49 O62 1.270 . S
C49 O63 1.248 . S
C50 O64 1.267 . S
C50 O65 1.278 . S
C51 Pr41 2.880 . S
C51 C52 1.491 . S
C51 O66 1.254 1_556 S
C51 O67 1.225 . S
C52 C51 1.491 . S
C52 C53 1.392 . S
C52 C57 1.356 1_556 S
C53 C52 1.392 . S
C53 C54 1.368 . S
C53 H76 0.929 . S
C54 C53 1.368 . S
C54 C55 1.386 . S
C54 H77 0.929 . S
C55 C54 1.386 . S
C55 C56 1.373 1_556 S
C56 C55 1.373 1_554 S
C56 C57 1.409 . S
C56 H78 0.931 . S
C57 C52 1.356 1_554 S
C57 C56 1.409 . S
C57 H79 0.930 . S
C58 O68 1.270 . S
C58 O69 1.248 . S
C59 O70 1.272 . S
C59 O71 1.278 . S
O60 Pr40 2.562 1_556 S
O60 C42 1.254 1_556 S
O61 Pr40 2.490 . S
O61 C42 1.225 . S
O62 Pr40 2.695 . S
O62 Pr41 2.436 1_554 S
O62 C49 1.270 . S
O63 Pr40 2.512 . S
O63 C49 1.248 . S
O64 Pr41 2.438 1_554 S
O64 C50 1.267 . S
O65 Pr40 2.437 . S
O65 C50 1.278 . S
O66 Pr41 2.562 1_554 S
O66 C51 1.254 1_554 S
O67 Pr41 2.490 . S
O67 C51 1.225 . S
O68 Pr40 2.436 1_556 S
O68 Pr41 2.695 . S
O68 C58 1.270 . S
O69 Pr41 2.512 . S
O69 C58 1.248 . S
O70 Pr40 2.434 1_556 S
O70 C59 1.272 . S
O71 Pr41 2.437 . S
O71 C59 1.278 . S
H72 C44 0.929 . S
H73 C45 0.929 . S
H74 C47 0.931 . S
H75 C48 0.930 . S
H76 C53 0.929 . S
H77 C54 0.929 . S
H78 C56 0.931 . S
H79 C57 0.930 . S
Pr80 C82 2.880 . S
Pr80 O100 2.562 1_554 S
Pr80 O101 2.490 . S
Pr80 O102 2.695 1_545 S
Pr80 O103 2.512 . S
Pr80 O105 2.437 . S
Pr80 O108 2.436 1_554 S
Pr80 O110 2.434 1_544 S
Pr81 C91 2.880 . S
Pr81 O102 2.436 1_556 S
Pr81 O104 2.438 1_566 S
Pr81 O106 2.562 1_556 S
Pr81 O107 2.490 . S
Pr81 O108 2.695 1_565 S
Pr81 O109 2.512 . S
Pr81 O111 2.437 . S
C82 Pr80 2.880 . S
C82 C83 1.491 . S
C82 O100 1.254 1_554 S
C82 O101 1.225 . S
C83 C82 1.491 . S
C83 C84 1.392 . S
C83 C88 1.356 1_554 S
C84 C83 1.392 . S
C84 C85 1.368 . S
C84 H112 0.929 . S
C85 C84 1.368 . S
C85 C86 1.386 . S
C85 H113 0.929 . S
C86 C85 1.386 . S
C86 C87 1.373 1_554 S
C87 C86 1.373 1_556 S
C87 C88 1.409 . S
C87 H114 0.931 . S
C88 C83 1.356 1_556 S
C88 C87 1.409 . S
C88 H115 0.930 . S
C89 O102 1.270 . S
C89 O103 1.248 1_565 S
C90 O104 1.267 . S
C90 O105 1.278 . S
C91 Pr81 2.880 . S
C91 C92 1.491 . S
C91 O106 1.254 1_556 S
C91 O107 1.225 . S
C92 C91 1.491 . S
C92 C93 1.392 . S
C92 C97 1.356 1_556 S
C93 C92 1.392 . S
C93 C94 1.368 . S
C93 H116 0.929 . S
C94 C93 1.368 . S
C94 C95 1.386 . S
C94 H117 0.929 . S
C95 C94 1.386 . S
C95 C96 1.373 1_556 S
C96 C95 1.373 1_554 S
C96 C97 1.409 . S
C96 H118 0.931 . S
C97 C92 1.356 1_554 S
C97 C96 1.409 . S
C97 H119 0.930 . S
C98 O108 1.270 . S
C98 O109 1.248 1_545 S
C99 O110 1.272 . S
C99 O111 1.278 . S
O100 Pr80 2.562 1_556 S
O100 C82 1.254 1_556 S
O101 Pr80 2.490 . S
O101 C82 1.225 . S
O102 Pr80 2.695 1_565 S
O102 Pr81 2.436 1_554 S
O102 C89 1.270 . S
O103 Pr80 2.512 . S
O103 C89 1.248 1_545 S
O104 Pr81 2.438 1_544 S
O104 C90 1.267 . S
O105 Pr80 2.437 . S
O105 C90 1.278 . S
O106 Pr81 2.562 1_554 S
O106 C91 1.254 1_554 S
O107 Pr81 2.490 . S
O107 C91 1.225 . S
O108 Pr80 2.436 1_556 S
O108 Pr81 2.695 1_545 S
O108 C98 1.270 . S
O109 Pr81 2.512 . S
O109 C98 1.248 1_565 S
O110 Pr80 2.434 1_566 S
O110 C99 1.272 . S
O111 Pr81 2.437 . S
O111 C99 1.278 . S
H112 C84 0.929 . S
H113 C85 0.929 . S
H114 C87 0.931 . S
H115 C88 0.930 . S
H116 C93 0.929 . S
H117 C94 0.929 . S
H118 C96 0.931 . S
H119 C97 0.930 . S
Pr120 C122 2.880 . S
Pr120 O140 2.562 . S
Pr120 O141 2.490 . S
Pr120 O142 2.695 . S
Pr120 O143 2.512 . S
Pr120 O145 2.437 . S
Pr120 O148 2.436 . S
Pr120 O150 2.438 . S
Pr121 C131 2.880 . S
Pr121 O142 2.436 . S
Pr121 O144 2.438 . S
Pr121 O146 2.562 . S
Pr121 O147 2.490 . S
Pr121 O148 2.695 . S
Pr121 O149 2.512 . S
Pr121 O151 2.437 . S
C122 Pr120 2.880 . S
C122 C123 1.491 . S
C122 O140 1.254 . S
C122 O141 1.225 . S
C123 C122 1.491 . S
C123 C124 1.392 . S
C123 C128 1.356 . S
C124 C123 1.392 . S
C124 C125 1.368 . S
C124 H152 0.929 . S
C125 C124 1.368 . S
C125 C126 1.386 . S
C125 H153 0.929 . S
C126 C125 1.386 . S
C126 C127 1.373 . S
C127 C126 1.373 . S
C127 C128 1.409 . S
C127 H154 0.931 . S
C128 C123 1.356 . S
C128 C127 1.409 . S
C128 H155 0.930 . S
C129 O142 1.270 . S
C129 O143 1.248 . S
C130 O144 1.267 . S
C130 O145 1.278 . S
C131 Pr121 2.880 . S
C131 C132 1.491 . S
C131 O146 1.254 . S
C131 O147 1.225 . S
C132 C131 1.491 . S
C132 C133 1.392 . S
C132 C137 1.356 . S
C133 C132 1.392 . S
C133 C134 1.368 . S
C133 H156 0.929 . S
C134 C133 1.368 . S
C134 C135 1.386 . S
C134 H157 0.929 . S
C135 C134 1.386 . S
C135 C136 1.373 . S
C136 C135 1.373 . S
C136 C137 1.409 . S
C136 H158 0.931 . S
C137 C132 1.356 . S
C137 C136 1.409 . S
C137 H159 0.930 . S
C138 O148 1.270 . S
C138 O149 1.248 . S
C139 O150 1.267 . S
C139 O151 1.278 . S
O140 Pr120 2.562 . S
O140 C122 1.254 . S
O141 Pr120 2.490 . S
O141 C122 1.225 . S
O142 Pr120 2.695 . S
O142 Pr121 2.436 . S
O142 C129 1.270 . S
O143 Pr120 2.512 . S
O143 C129 1.248 . S
O144 Pr121 2.438 . S
O144 C130 1.267 . S
O145 Pr120 2.437 . S
O145 C130 1.278 . S
O146 Pr121 2.562 . S
O146 C131 1.254 . S
O147 Pr121 2.490 . S
O147 C131 1.225 . S
O148 Pr120 2.436 . S
O148 Pr121 2.695 . S
O148 C138 1.270 . S
O149 Pr121 2.512 . S
O149 C138 1.248 . S
O150 Pr120 2.438 . S
O150 C139 1.267 . S
O151 Pr121 2.437 . S
O151 C139 1.278 . S
H152 C124 0.929 . S
H153 C125 0.929 . S
H154 C127 0.931 . S
H155 C128 0.930 . S
H156 C133 0.929 . S
H157 C134 0.929 . S
H158 C136 0.931 . S
H159 C137 0.930 . S
Pr160 C162 2.880 . S
Pr160 O180 2.562 . S
Pr160 O181 2.490 . S
Pr160 O182 2.695 . S
Pr160 O183 2.512 . S
Pr160 O185 2.437 . S
Pr160 O188 2.436 . S
Pr160 O190 2.438 . S
Pr161 C171 2.880 1_565 S
Pr161 O182 2.436 . S
Pr161 O184 2.438 . S
Pr161 O186 2.562 1_565 S
Pr161 O187 2.490 1_565 S
Pr161 O188 2.695 . S
Pr161 O189 2.512 . S
Pr161 O191 2.437 . S
C162 Pr160 2.880 . S
C162 C163 1.491 . S
C162 O180 1.254 . S
C162 O181 1.225 . S
C163 C162 1.491 . S
C163 C164 1.392 . S
C163 C168 1.356 . S
C164 C163 1.392 . S
C164 C165 1.368 . S
C164 H192 0.929 . S
C165 C164 1.368 . S
C165 C166 1.386 . S
C165 H193 0.929 . S
C166 C165 1.386 . S
C166 C167 1.373 . S
C167 C166 1.373 . S
C167 C168 1.409 . S
C167 H194 0.931 . S
C168 C163 1.356 . S
C168 C167 1.409 . S
C168 H195 0.930 . S
C169 O182 1.270 . S
C169 O183 1.248 . S
C170 O184 1.267 . S
C170 O185 1.278 . S
C171 Pr161 2.880 1_545 S
C171 C172 1.491 . S
C171 O186 1.254 . S
C171 O187 1.225 . S
C172 C171 1.491 . S
C172 C173 1.392 . S
C172 C177 1.356 . S
C173 C172 1.392 . S
C173 C174 1.368 . S
C173 H196 0.929 . S
C174 C173 1.368 . S
C174 C175 1.386 . S
C174 H197 0.929 . S
C175 C174 1.386 . S
C175 C176 1.373 . S
C176 C175 1.373 . S
C176 C177 1.409 . S
C176 H198 0.931 . S
C177 C172 1.356 . S
C177 C176 1.409 . S
C177 H199 0.930 . S
C178 O188 1.270 . S
C178 O189 1.248 . S
C179 O190 1.267 . S
C179 O191 1.278 . S
O180 Pr160 2.562 . S
O180 C162 1.254 . S
O181 Pr160 2.490 . S
O181 C162 1.225 . S
O182 Pr160 2.695 . S
O182 Pr161 2.436 . S
O182 C169 1.270 . S
O183 Pr160 2.512 . S
O183 C169 1.248 . S
O184 Pr161 2.438 . S
O184 C170 1.267 . S
O185 Pr160 2.437 . S
O185 C170 1.278 . S
O186 Pr161 2.562 1_545 S
O186 C171 1.254 . S
O187 Pr161 2.490 1_545 S
O187 C171 1.225 . S
O188 Pr160 2.436 . S
O188 Pr161 2.695 . S
O188 C178 1.270 . S
O189 Pr161 2.512 . S
O189 C178 1.248 . S
O190 Pr160 2.438 . S
O190 C179 1.267 . S
O191 Pr161 2.437 . S
O191 C179 1.278 . S
H192 C164 0.929 . S
H193 C165 0.929 . S
H194 C167 0.931 . S
H195 C168 0.930 . S
H196 C173 0.929 . S
H197 C174 0.929 . S
H198 C176 0.931 . S
H199 C177 0.930 . S
Pr200 C202 2.880 . S
Pr200 O220 2.562 . S
Pr200 O221 2.490 . S
Pr200 O222 2.695 . S
Pr200 O223 2.512 . S
Pr200 O225 2.437 . S
Pr200 O228 2.436 . S
Pr200 O230 2.438 . S
Pr201 C211 2.880 1_455 S
Pr201 O222 2.436 . S
Pr201 O224 2.438 . S
Pr201 O226 2.562 . S
Pr201 O227 2.490 1_455 S
Pr201 O228 2.695 . S
Pr201 O229 2.512 . S
Pr201 O231 2.437 . S
C202 Pr200 2.880 . S
C202 C203 1.491 . S
C202 O220 1.254 . S
C202 O221 1.225 . S
C203 C202 1.491 . S
C203 C204 1.392 . S
C203 C208 1.356 . S
C204 C203 1.392 . S
C204 C205 1.368 . S
C204 H232 0.929 . S
C205 C204 1.368 . S
C205 C206 1.386 . S
C205 H233 0.929 . S
C206 C205 1.386 . S
C206 C207 1.373 . S
C207 C206 1.373 . S
C207 C208 1.409 . S
C207 H234 0.931 . S
C208 C203 1.356 . S
C208 C207 1.409 . S
C208 H235 0.930 . S
C209 O222 1.270 . S
C209 O223 1.248 . S
C210 O224 1.267 . S
C210 O225 1.278 . S
C211 Pr201 2.880 1_655 S
C211 C212 1.491 . S
C211 O226 1.254 1_655 S
C211 O227 1.225 . S
C212 C211 1.491 . S
C212 C213 1.392 . S
C212 C217 1.356 . S
C213 C212 1.392 . S
C213 C214 1.368 . S
C213 H236 0.929 . S
C214 C213 1.368 . S
C214 C215 1.386 . S
C214 H237 0.929 . S
C215 C214 1.386 . S
C215 C216 1.373 . S
C216 C215 1.373 . S
C216 C217 1.409 . S
C216 H238 0.931 . S
C217 C212 1.356 . S
C217 C216 1.409 . S
C217 H239 0.930 . S
C218 O228 1.270 . S
C218 O229 1.248 . S
C219 O230 1.267 . S
C219 O231 1.278 . S
O220 Pr200 2.562 . S
O220 C202 1.254 . S
O221 Pr200 2.490 . S
O221 C202 1.225 . S
O222 Pr200 2.695 . S
O222 Pr201 2.436 . S
O222 C209 1.270 . S
O223 Pr200 2.512 . S
O223 C209 1.248 . S
O224 Pr201 2.438 . S
O224 C210 1.267 . S
O225 Pr200 2.437 . S
O225 C210 1.278 . S
O226 Pr201 2.562 . S
O226 C211 1.254 1_455 S
O227 Pr201 2.490 1_655 S
O227 C211 1.225 . S
O228 Pr200 2.436 . S
O228 Pr201 2.695 . S
O228 C218 1.270 . S
O229 Pr201 2.512 . S
O229 C218 1.248 . S
O230 Pr200 2.438 . S
O230 C219 1.267 . S
O231 Pr201 2.437 . S
O231 C219 1.278 . S
H232 C204 0.929 . S
H233 C205 0.929 . S
H234 C207 0.931 . S
H235 C208 0.930 . S
H236 C213 0.929 . S
H237 C214 0.929 . S
H238 C216 0.931 . S
H239 C217 0.930 . S
Pr240 C242 2.880 . S
Pr240 O260 2.562 . S
Pr240 O261 2.490 . S
Pr240 O262 2.695 . S
Pr240 O263 2.512 . S
Pr240 O265 2.437 . S
Pr240 O268 2.436 . S
Pr240 O270 2.438 . S
Pr241 C251 2.880 . S
Pr241 O262 2.436 . S
Pr241 O264 2.438 . S
Pr241 O266 2.562 . S
Pr241 O267 2.490 . S
Pr241 O268 2.695 . S
Pr241 O269 2.512 . S
Pr241 O271 2.437 . S
C242 Pr240 2.880 . S
C242 C243 1.491 . S
C242 O260 1.254 . S
C242 O261 1.225 . S
C243 C242 1.491 . S
C243 C244 1.392 . S
C243 C248 1.356 . S
C244 C243 1.392 . S
C244 C245 1.368 . S
C244 H272 0.929 . S
C245 C244 1.368 . S
C245 C246 1.386 . S
C245 H273 0.929 . S
C246 C245 1.386 . S
C246 C247 1.373 . S
C247 C246 1.373 . S
C247 C248 1.409 . S
C247 H274 0.931 . S
C248 C243 1.356 . S
C248 C247 1.409 . S
C248 H275 0.930 . S
C249 O262 1.270 . S
C249 O263 1.248 . S
C250 O264 1.267 . S
C250 O265 1.278 . S
C251 Pr241 2.880 . S
C251 C252 1.491 . S
C251 O266 1.254 . S
C251 O267 1.225 . S
C252 C251 1.491 . S
C252 C253 1.392 . S
C252 C257 1.356 . S
C253 C252 1.392 . S
C253 C254 1.368 . S
C253 H276 0.929 . S
C254 C253 1.368 . S
C254 C255 1.386 . S
C254 H277 0.929 . S
C255 C254 1.386 . S
C255 C256 1.373 . S
C256 C255 1.373 . S
C256 C257 1.409 . S
C256 H278 0.931 . S
C257 C252 1.356 . S
C257 C256 1.409 . S
C257 H279 0.930 . S
C258 O268 1.270 . S
C258 O269 1.248 . S
C259 O270 1.267 . S
C259 O271 1.278 . S
O260 Pr240 2.562 . S
O260 C242 1.254 . S
O261 Pr240 2.490 . S
O261 C242 1.225 . S
O262 Pr240 2.695 . S
O262 Pr241 2.436 . S
O262 C249 1.270 . S
O263 Pr240 2.512 . S
O263 C249 1.248 . S
O264 Pr241 2.438 . S
O264 C250 1.267 . S
O265 Pr240 2.437 . S
O265 C250 1.278 . S
O266 Pr241 2.562 . S
O266 C251 1.254 . S
O267 Pr241 2.490 . S
O267 C251 1.225 . S
O268 Pr240 2.436 . S
O268 Pr241 2.695 . S
O268 C258 1.270 . S
O269 Pr241 2.512 . S
O269 C258 1.248 . S
O270 Pr240 2.438 . S
O270 C259 1.267 . S
O271 Pr241 2.437 . S
O271 C259 1.278 . S
H272 C244 0.929 . S
H273 C245 0.929 . S
H274 C247 0.931 . S
H275 C248 0.930 . S
H276 C253 0.929 . S
H277 C254 0.929 . S
H278 C256 0.931 . S
H279 C257 0.930 . S
Pr280 C282 2.880 . S
Pr280 O300 2.562 . S
Pr280 O301 2.490 . S
Pr280 O302 2.695 . S
Pr280 O303 2.512 . S
Pr280 O305 2.437 . S
Pr280 O308 2.436 . S
Pr280 O310 2.438 . S
Pr281 C291 2.880 . S
Pr281 O302 2.436 . S
Pr281 O304 2.438 . S
Pr281 O306 2.562 . S
Pr281 O307 2.490 . S
Pr281 O308 2.695 . S
Pr281 O309 2.512 . S
Pr281 O311 2.437 . S
C282 Pr280 2.880 . S
C282 C283 1.491 . S
C282 O300 1.254 . S
C282 O301 1.225 . S
C283 C282 1.491 . S
C283 C284 1.392 . S
C283 C288 1.356 . S
C284 C283 1.392 . S
C284 C285 1.368 1_545 S
C284 H312 0.929 . S
C285 C284 1.368 1_565 S
C285 C286 1.386 . S
C285 H313 0.929 . S
C286 C285 1.386 . S
C286 C287 1.373 1_565 S
C287 C286 1.373 1_545 S
C287 C288 1.409 . S
C287 H314 0.931 . S
C288 C283 1.356 . S
C288 C287 1.409 . S
C288 H315 0.930 . S
C289 O302 1.270 . S
C289 O303 1.248 . S
C290 O304 1.267 . S
C290 O305 1.278 . S
C291 Pr281 2.880 . S
C291 C292 1.491 . S
C291 O306 1.254 . S
C291 O307 1.225 . S
C292 C291 1.491 . S
C292 C293 1.392 . S
C292 C297 1.356 . S
C293 C292 1.392 . S
C293 C294 1.368 . S
C293 H316 0.929 . S
C294 C293 1.368 . S
C294 C295 1.386 . S
C294 H317 0.929 . S
C295 C294 1.386 . S
C295 C296 1.373 . S
C296 C295 1.373 . S
C296 C297 1.409 . S
C296 H318 0.931 . S
C297 C292 1.356 . S
C297 C296 1.409 . S
C297 H319 0.930 . S
C298 O308 1.270 . S
C298 O309 1.248 . S
C299 O310 1.267 . S
C299 O311 1.278 . S
O300 Pr280 2.562 . S
O300 C282 1.254 . S
O301 Pr280 2.490 . S
O301 C282 1.225 . S
O302 Pr280 2.695 . S
O302 Pr281 2.436 . S
O302 C289 1.270 . S
O303 Pr280 2.512 . S
O303 C289 1.248 . S
O304 Pr281 2.438 . S
O304 C290 1.267 . S
O305 Pr280 2.437 . S
O305 C290 1.278 . S
O306 Pr281 2.562 . S
O306 C291 1.254 . S
O307 Pr281 2.490 . S
O307 C291 1.225 . S
O308 Pr280 2.436 . S
O308 Pr281 2.695 . S
O308 C298 1.270 . S
O309 Pr281 2.512 . S
O309 C298 1.248 . S
O310 Pr280 2.438 . S
O310 C299 1.267 . S
O311 Pr281 2.437 . S
O311 C299 1.278 . S
H312 C284 0.929 . S
H313 C285 0.929 . S
H314 C287 0.931 . S
H315 C288 0.930 . S
H316 C293 0.929 . S
H317 C294 0.929 . S
H318 C296 0.931 . S
H319 C297 0.930 . S
Pr320 C322 2.880 . S
Pr320 O340 2.562 . S
Pr320 O341 2.490 . S
Pr320 O342 2.695 . S
Pr320 O343 2.512 . S
Pr320 O345 2.437 . S
Pr320 O348 2.436 . S
Pr320 O350 2.438 . S
Pr321 C331 2.880 . S
Pr321 O342 2.436 . S
Pr321 O344 2.438 . S
Pr321 O346 2.562 . S
Pr321 O347 2.490 . S
Pr321 O348 2.695 . S
Pr321 O349 2.512 . S
Pr321 O351 2.437 . S
C322 Pr320 2.880 . S
C322 C323 1.491 . S
C322 O340 1.254 . S
C322 O341 1.225 . S
C323 C322 1.491 . S
C323 C324 1.392 . S
C323 C328 1.356 . S
C324 C323 1.392 . S
C324 C325 1.368 1_655 S
C324 H352 0.929 . S
C325 C324 1.368 1_455 S
C325 C326 1.386 . S
C325 H353 0.929 . S
C326 C325 1.386 . S
C326 C327 1.373 . S
C327 C326 1.373 . S
C327 C328 1.409 1_455 S
C327 H354 0.931 . S
C328 C323 1.356 . S
C328 C327 1.409 1_655 S
C328 H355 0.930 . S
C329 O342 1.270 . S
C329 O343 1.248 . S
C330 O344 1.267 . S
C330 O345 1.278 . S
C331 Pr321 2.880 . S
C331 C332 1.491 . S
C331 O346 1.254 . S
C331 O347 1.225 . S
C332 C331 1.491 . S
C332 C333 1.392 . S
C332 C337 1.356 . S
C333 C332 1.392 . S
C333 C334 1.368 . S
C333 H356 0.929 . S
C334 C333 1.368 . S
C334 C335 1.386 . S
C334 H357 0.929 . S
C335 C334 1.386 . S
C335 C336 1.373 . S
C336 C335 1.373 . S
C336 C337 1.409 . S
C336 H358 0.931 . S
C337 C332 1.356 . S
C337 C336 1.409 . S
C337 H359 0.930 . S
C338 O348 1.270 . S
C338 O349 1.248 . S
C339 O350 1.267 . S
C339 O351 1.278 . S
O340 Pr320 2.562 . S
O340 C322 1.254 . S
O341 Pr320 2.490 . S
O341 C322 1.225 . S
O342 Pr320 2.695 . S
O342 Pr321 2.436 . S
O342 C329 1.270 . S
O343 Pr320 2.512 . S
O343 C329 1.248 . S
O344 Pr321 2.438 . S
O344 C330 1.267 . S
O345 Pr320 2.437 . S
O345 C330 1.278 . S
O346 Pr321 2.562 . S
O346 C331 1.254 . S
O347 Pr321 2.490 . S
O347 C331 1.225 . S
O348 Pr320 2.436 . S
O348 Pr321 2.695 . S
O348 C338 1.270 . S
O349 Pr321 2.512 . S
O349 C338 1.248 . S
O350 Pr320 2.438 . S
O350 C339 1.267 . S
O351 Pr321 2.437 . S
O351 C339 1.278 . S
H352 C324 0.929 . S
H353 C325 0.929 . S
H354 C327 0.931 . S
H355 C328 0.930 . S
H356 C333 0.929 . S
H357 C334 0.929 . S
H358 C336 0.931 . S
H359 C337 0.930 . S
C360 C361 1.170 . S
C360 C362 1.380 . S
C361 C360 1.170 . S
C362 C360 1.380 . S
C362 C363 1.170 . S
C363 C362 1.170 . S
C364 C365 1.170 . S
C364 C366 1.380 . S
C365 C364 1.170 . S
C366 C364 1.380 . S
C366 C367 1.170 . S
C367 C366 1.170 . S
C368 C369 1.170 . S
C368 C370 1.380 . S
C369 C368 1.170 . S
C370 C368 1.380 . S
C370 C371 1.170 . S
C371 C370 1.170 . S
C372 C373 1.170 . S
C372 C374 1.380 . S
C373 C372 1.170 . S
C374 C372 1.380 . S
C374 C375 1.170 . S
C375 C374 1.170 . S
C376 C377 1.170 . S
C376 C378 1.380 . S
C377 C376 1.170 . S
C378 C376 1.380 . S
C378 C379 1.170 . S
C379 C378 1.170 . S
C380 C381 1.170 . S
C380 C382 1.380 . S
C381 C380 1.170 . S
C382 C380 1.380 . S
C382 C383 1.170 . S
C383 C382 1.170 . S
C384 C385 1.170 1_455 S
C384 C386 1.380 . S
C385 C384 1.170 1_655 S
C386 C384 1.380 . S
C386 C387 1.170 . S
C387 C386 1.170 . S
C388 C389 1.170 . S
C388 C390 1.380 . S
C389 C388 1.170 . S
C390 C388 1.380 . S
C390 C391 1.170 . S
C391 C390 1.170 . S
C392 C393 1.170 1_565 S
C392 C394 1.380 . S
C393 C392 1.170 1_545 S
C394 C392 1.380 . S
C394 C395 1.170 . S
C395 C394 1.170 . S
C396 C397 1.170 . S
C396 C398 1.380 . S
C397 C396 1.170 . S
C398 C396 1.380 . S
C398 C399 1.170 . S
C399 C398 1.170 . S
C400 C401 1.170 . S
C400 C402 1.380 . S
C401 C400 1.170 . S
C402 C400 1.380 . S
C402 C403 1.170 . S
C403 C402 1.170 . S
C404 C405 1.170 . S
C404 C406 1.380 . S
C405 C404 1.170 . S
C406 C404 1.380 . S
C406 C407 1.170 . S
C407 C406 1.170 . S
C408 C409 1.170 . S
C408 C410 1.380 . S
C409 C408 1.170 . S
C410 C408 1.380 . S
C410 C411 1.170 . S
C411 C410 1.170 . S
C412 C413 1.170 . S
C412 C414 1.380 . S
C413 C412 1.170 . S
C414 C412 1.380 . S
C414 C415 1.170 . S
C415 C414 1.170 . S
C416 C417 1.170 . S
C416 C418 1.380 . S
C417 C416 1.170 . S
C418 C416 1.380 . S
C418 C419 1.170 . S
C419 C418 1.170 . S
C420 C421 1.170 . S
C420 C422 1.380 . S
C421 C420 1.170 . S
C422 C420 1.380 . S
C422 C423 1.170 . S
C423 C422 1.170 . S
C424 C425 1.170 . S
C424 C426 1.380 . S
C425 C424 1.170 . S
C426 C424 1.380 . S
C426 C427 1.170 1_565 S
C427 C426 1.170 1_545 S
C428 C429 1.170 . S
C428 C430 1.380 . S
C429 C428 1.170 . S
C430 C428 1.380 . S
C430 C431 1.170 . S
C431 C430 1.170 . S
C432 C433 1.170 . S
C432 C434 1.380 . S
C433 C432 1.170 . S
C434 C432 1.380 . S
C434 C435 1.170 . S
C435 C434 1.170 . S
C436 C437 1.170 . S
C436 C438 1.380 . S
C437 C436 1.170 . S
C438 C436 1.380 . S
C438 C439 1.170 . S
C439 C438 1.170 . S
C440 C441 1.170 . S
C440 C442 1.380 . S
C441 C440 1.170 . S
C442 C440 1.380 . S
C442 C443 1.170 . S
C443 C442 1.170 . S
C444 C445 1.170 . S
C444 C446 1.380 . S
C445 C444 1.170 . S
C446 C444 1.380 . S
C446 C447 1.170 . S
C447 C446 1.170 . S
C448 C449 1.170 . S
C448 C450 1.380 . S
C449 C448 1.170 . S
C450 C448 1.380 . S
C450 C451 1.170 . S
C451 C450 1.170 . S
C452 C453 1.170 . S
C452 C454 1.380 . S
C453 C452 1.170 . S
C454 C452 1.380 . S
C454 C455 1.170 . S
C455 C454 1.170 . S
C456 C457 1.170 . S
C456 C458 1.380 . S
C457 C456 1.170 . S
C458 C456 1.380 . S
C458 C459 1.170 . S
C459 C458 1.170 . S
C460 C461 1.170 . S
C460 C462 1.380 1_565 S
C461 C460 1.170 . S
C462 C460 1.380 1_545 S
C462 C463 1.170 . S
C463 C462 1.170 . S
C464 C465 1.170 . S
C464 C466 1.380 1_655 S
C465 C464 1.170 . S
C466 C464 1.380 1_455 S
C466 C467 1.170 . S
C467 C466 1.170 . S
C361 C59 1.491 . S
C363 C15 1.545 . S
C365 C99 1.472 . S
C367 C55 1.557 . S
C369 C95 1.545 . S
C371 C19 1.513 . S
C373 C90 1.717 . S
C375 C46 1.678 . S
C377 C86 1.646 . S
C379 C10 1.748 . S
C381 C6 1.642 . S
C383 C50 1.747 . S
C385 C135 1.569 . S
C387 C179 1.464 . S
C389 C219 1.463 . S
C391 C175 1.568 . S
C393 C215 1.567 . S
C395 C139 1.463 . S
C397 C166 1.680 . S
C399 C210 1.716 . S
C401 C206 1.658 . S
C403 C130 1.724 . S
C405 C170 1.730 . S
C407 C126 1.683 . S
C409 C299 1.486 . S
C411 C255 1.565 . S
C413 C295 1.564 . S
C415 C339 1.490 . S
C417 C335 1.542 . S
C419 C259 1.515 . S
C421 C330 1.748 . S
C423 C286 1.647 . S
C425 C326 1.674 . S
C427 C250 1.738 . S
C429 C246 1.672 . S
C431 C290 1.739 1_455 S
C433 C218 2.278 . S
C435 C9 2.686 . S
C437 C138 2.277 . S
C439 C49 2.682 . S
C441 C89 2.676 . S
C443 C178 2.310 . S
C445 C98 2.277 . S
C447 C249 2.684 . S
C449 C18 2.293 . S
C451 C289 2.675 . S
C453 C329 2.677 . S
C455 C58 2.317 . S
C457 C129 2.678 . S
C459 C338 2.320 . S
C461 C169 2.691 . S
C463 C258 2.301 . S
C465 C298 2.324 . S
C467 C209 2.681 . S
