# Generated by pormake.
# Topology smg, (6)-cn, num edge types: 1
# Building blocks:
#     Node 0, Type 0, BuildingBlock: IZENUY_clean_sbu_0, # of connection points: 6
#     Node 1, Type 0, BuildingBlock: IZENUY_clean_sbu_0, # of connection points: 6
#     Node 2, Type 0, BuildingBlock: IZENUY_clean_sbu_0, # of connection points: 6
#     Node 3, Type 0, BuildingBlock: IZENUY_clean_sbu_0, # of connection points: 6
#     Node 4, Type 0, BuildingBlock: IZENUY_clean_sbu_0, # of connection points: 6
#     Node 5, Type 0, BuildingBlock: IZENUY_clean_sbu_0, # of connection points: 6
#     Node 6, Type 0, BuildingBlock: IZENUY_clean_sbu_0, # of connection points: 6
#     Node 7, Type 0, BuildingBlock: IZENUY_clean_sbu_0, # of connection points: 6
#     Node 8, Type 0, BuildingBlock: IZENUY_clean_sbu_0, # of connection points: 6
#     Node 9, Type 0, BuildingBlock: IZENUY_clean_sbu_0, # of connection points: 6
#     Node 10, Type 0, BuildingBlock: IZENUY_clean_sbu_0, # of connection points: 6
#     Node 11, Type 0, BuildingBlock: IZENUY_clean_sbu_0, # of connection points: 6
#     Node 12, Type 0, BuildingBlock: IZENUY_clean_sbu_0, # of connection points: 6
#     Node 13, Type 0, BuildingBlock: IZENUY_clean_sbu_0, # of connection points: 6
#     Node 14, Type 0, BuildingBlock: IZENUY_clean_sbu_0, # of connection points: 6
#     Node 15, Type 0, BuildingBlock: IZENUY_clean_sbu_0, # of connection points: 6
#     Node 16, Type 0, BuildingBlock: IZENUY_clean_sbu_0, # of connection points: 6
#     Node 17, Type 0, BuildingBlock: IZENUY_clean_sbu_0, # of connection points: 6
#     Edge 18, Type (0, 0), BuildingBlock: AJUNOK_clean_linker_0, # of connection points: 2
#     Edge 19, Type (0, 0), BuildingBlock: AJUNOK_clean_linker_0, # of connection points: 2
#     Edge 20, Type (0, 0), BuildingBlock: AJUNOK_clean_linker_0, # of connection points: 2
#     Edge 21, Type (0, 0), BuildingBlock: AJUNOK_clean_linker_0, # of connection points: 2
#     Edge 22, Type (0, 0), BuildingBlock: AJUNOK_clean_linker_0, # of connection points: 2
#     Edge 23, Type (0, 0), BuildingBlock: AJUNOK_clean_linker_0, # of connection points: 2
#     Edge 24, Type (0, 0), BuildingBlock: AJUNOK_clean_linker_0, # of connection points: 2
#     Edge 25, Type (0, 0), BuildingBlock: AJUNOK_clean_linker_0, # of connection points: 2
#     Edge 26, Type (0, 0), BuildingBlock: AJUNOK_clean_linker_0, # of connection points: 2
#     Edge 27, Type (0, 0), BuildingBlock: AJUNOK_clean_linker_0, # of connection points: 2
#     Edge 28, Type (0, 0), BuildingBlock: AJUNOK_clean_linker_0, # of connection points: 2
#     Edge 29, Type (0, 0), BuildingBlock: AJUNOK_clean_linker_0, # of connection points: 2
#     Edge 30, Type (0, 0), BuildingBlock: AJUNOK_clean_linker_0, # of connection points: 2
#     Edge 31, Type (0, 0), BuildingBlock: AJUNOK_clean_linker_0, # of connection points: 2
#     Edge 32, Type (0, 0), BuildingBlock: AJUNOK_clean_linker_0, # of connection points: 2
#     Edge 33, Type (0, 0), BuildingBlock: AJUNOK_clean_linker_0, # of connection points: 2
#     Edge 34, Type (0, 0), BuildingBlock: AJUNOK_clean_linker_0, # of connection points: 2
#     Edge 35, Type (0, 0), BuildingBlock: AJUNOK_clean_linker_0, # of connection points: 2
#     Edge 36, Type (0, 0), BuildingBlock: AJUNOK_clean_linker_0, # of connection points: 2
#     Edge 37, Type (0, 0), BuildingBlock: AJUNOK_clean_linker_0, # of connection points: 2
#     Edge 38, Type (0, 0), BuildingBlock: AJUNOK_clean_linker_0, # of connection points: 2
#     Edge 39, Type (0, 0), BuildingBlock: AJUNOK_clean_linker_0, # of connection points: 2
#     Edge 40, Type (0, 0), BuildingBlock: AJUNOK_clean_linker_0, # of connection points: 2
#     Edge 41, Type (0, 0), BuildingBlock: AJUNOK_clean_linker_0, # of connection points: 2
#     Edge 42, Type (0, 0), BuildingBlock: AJUNOK_clean_linker_0, # of connection points: 2
#     Edge 43, Type (0, 0), BuildingBlock: AJUNOK_clean_linker_0, # of connection points: 2
#     Edge 44, Type (0, 0), BuildingBlock: AJUNOK_clean_linker_0, # of connection points: 2
#     Edge 45, Type (0, 0), BuildingBlock: AJUNOK_clean_linker_0, # of connection points: 2
#     Edge 46, Type (0, 0), BuildingBlock: AJUNOK_clean_linker_0, # of connection points: 2
#     Edge 47, Type (0, 0), BuildingBlock: AJUNOK_clean_linker_0, # of connection points: 2
#     Edge 48, Type (0, 0), BuildingBlock: AJUNOK_clean_linker_0, # of connection points: 2
#     Edge 49, Type (0, 0), BuildingBlock: AJUNOK_clean_linker_0, # of connection points: 2
#     Edge 50, Type (0, 0), BuildingBlock: AJUNOK_clean_linker_0, # of connection points: 2
#     Edge 51, Type (0, 0), BuildingBlock: AJUNOK_clean_linker_0, # of connection points: 2
#     Edge 52, Type (0, 0), BuildingBlock: AJUNOK_clean_linker_0, # of connection points: 2
#     Edge 53, Type (0, 0), BuildingBlock: AJUNOK_clean_linker_0, # of connection points: 2
#     Edge 54, Type (0, 0), BuildingBlock: AJUNOK_clean_linker_0, # of connection points: 2
#     Edge 55, Type (0, 0), BuildingBlock: AJUNOK_clean_linker_0, # of connection points: 2
#     Edge 56, Type (0, 0), BuildingBlock: AJUNOK_clean_linker_0, # of connection points: 2
#     Edge 57, Type (0, 0), BuildingBlock: AJUNOK_clean_linker_0, # of connection points: 2
#     Edge 58, Type (0, 0), BuildingBlock: AJUNOK_clean_linker_0, # of connection points: 2
#     Edge 59, Type (0, 0), BuildingBlock: AJUNOK_clean_linker_0, # of connection points: 2
#     Edge 60, Type (0, 0), BuildingBlock: AJUNOK_clean_linker_0, # of connection points: 2
#     Edge 61, Type (0, 0), BuildingBlock: AJUNOK_clean_linker_0, # of connection points: 2
#     Edge 62, Type (0, 0), BuildingBlock: AJUNOK_clean_linker_0, # of connection points: 2
#     Edge 63, Type (0, 0), BuildingBlock: AJUNOK_clean_linker_0, # of connection points: 2
#     Edge 64, Type (0, 0), BuildingBlock: AJUNOK_clean_linker_0, # of connection points: 2
#     Edge 65, Type (0, 0), BuildingBlock: AJUNOK_clean_linker_0, # of connection points: 2
#     Edge 66, Type (0, 0), BuildingBlock: AJUNOK_clean_linker_0, # of connection points: 2
#     Edge 67, Type (0, 0), BuildingBlock: AJUNOK_clean_linker_0, # of connection points: 2
#     Edge 68, Type (0, 0), BuildingBlock: AJUNOK_clean_linker_0, # of connection points: 2
#     Edge 69, Type (0, 0), BuildingBlock: AJUNOK_clean_linker_0, # of connection points: 2
#     Edge 70, Type (0, 0), BuildingBlock: AJUNOK_clean_linker_0, # of connection points: 2
#     Edge 71, Type (0, 0), BuildingBlock: AJUNOK_clean_linker_0, # of connection points: 2
# Relax obj value: 0.248
# Max RMSD: 0.243
# Mean RMSD: 0.241
data_MOF--net-smg--node1-IZENUY_clean_sbu_0--edge1-AJUNOK_clean_linker_0
_symmetry_space_group_name_H-M    P1
_symmetry_Int_Tables_number       1
_symmetry_cell_setting            triclinic
loop_
_symmetry_equiv_pos_as_xyz
'x, y, z'
_cell_length_a     33.858514
_cell_length_b     33.82811
_cell_length_c     31.643688
_cell_angle_alpha  90.155549
_cell_angle_beta   90.165924
_cell_angle_gamma 120.06081
loop_
_atom_site_label
_atom_site_type_symbol
_atom_site_fract_x
_atom_site_fract_y
_atom_site_fract_z
_atom_type_partial_charge
Fe0 Fe 0.08028 0.62513 0.26621 0.0
Fe1 Fe 0.03191 0.67738 0.24284 0.0
O2 O 0.03269 0.62531 0.24403 0.0
Fe3 Fe 0.98552 0.57559 0.22302 0.0
O4 O 0.98652 0.53619 0.26138 0.0
O5 O 0.04485 0.57873 0.30334 0.0
O6 O 0.08608 0.6652 0.30774 0.0
C7 C 0.05585 0.6724 0.32367 0.0
C8 C 0.05965 0.56769 0.19453 0.0
O9 O 0.02756 0.67644 0.30026 0.0
C10 C 1.00769 0.64465 0.16316 0.0
O11 O 0.11977 0.67129 0.22993 0.0
O12 O 0.09284 0.71511 0.24688 0.0
O13 O 1.02168 0.56528 0.18655 0.0
O14 O 0.08078 0.58485 0.22867 0.0
C15 C 0.94292 0.61823 0.25978 0.0
O16 O 0.03635 0.67801 0.18558 0.0
O17 O 0.97819 0.60732 0.17999 0.0
C18 C 0.12286 0.71019 0.22882 0.0
O19 O 0.97078 0.65127 0.23829 0.0
O20 O 0.94592 0.58235 0.25941 0.0
C21 C 1.00822 0.54151 0.29535 0.0
Fe22 Fe 0.44392 0.48408 0.27248 0.0
Fe23 Fe 0.49122 0.43674 0.23124 0.0
O24 O 0.44119 0.43468 0.25017 0.0
Fe25 Fe 0.38828 0.38333 0.24708 0.0
O26 O 0.364 0.40951 0.21553 0.0
O27 O 0.38418 0.46861 0.2568 0.0
O28 O 0.46357 0.51512 0.2236 0.0
C29 C 0.49982 0.52232 0.20579 0.0
C30 C 0.39101 0.41817 0.32839 0.0
O31 O 0.51742 0.49735 0.21382 0.0
C32 C 0.4413 0.34787 0.2693 0.0
O33 O 0.50317 0.50776 0.29302 0.0
O34 O 0.51821 0.4524 0.28263 0.0
O35 O 0.36717 0.39344 0.29757 0.0
O36 O 0.42597 0.45618 0.32224 0.0
C37 C 0.42979 0.38925 0.16865 0.0
O38 O 0.47294 0.37582 0.24489 0.0
O39 O 0.40845 0.35332 0.27821 0.0
C40 C 0.52596 0.48814 0.30197 0.0
O41 O 0.46785 0.42239 0.17891 0.0
O42 O 0.40106 0.36471 0.19649 0.0
C43 C 0.35797 0.44099 0.22842 0.0
Fe44 Fe 0.63025 0.07809 0.22906 0.0
Fe45 Fe 0.5846 0.98218 0.26745 0.0
O46 O 0.63425 0.03103 0.24851 0.0
Fe47 Fe 0.68737 0.03267 0.24905 0.0
O48 O 0.71405 0.08353 0.2803 0.0
O49 O 0.68956 0.12283 0.24511 0.0
O50 O 0.61081 0.08702 0.27949 0.0
C51 C 0.57518 0.05715 0.29748 0.0
C52 C 0.68326 0.06905 0.16954 0.0
O53 O 0.55752 1.01516 0.28694 0.0
C54 C 0.63404 0.9436 0.228 0.0
O55 O 0.57082 0.04174 0.20832 0.0
O56 O 0.55712 0.97142 0.21657 0.0
O57 O 0.70633 0.06332 0.19819 0.0
O58 O 0.64861 0.07192 0.17794 0.0
C59 C 0.64668 0.99447 0.32801 0.0
O60 O 0.60287 0.94 0.25278 0.0
O61 O 0.66602 0.98195 0.21789 0.0
C62 C 0.54863 0.99934 0.19839 0.0
O63 O 0.60882 0.99043 0.31883 0.0
O64 O 0.67654 1.00217 0.3 0.0
C65 C 0.71783 0.12096 0.27051 0.0
Fe66 Fe 0.09379 0.49114 0.764 0.0
Fe67 Fe 0.9934 0.43662 0.73633 0.0
O68 O 0.04479 0.43839 0.75031 0.0
Fe69 Fe 0.04748 0.38784 0.75038 0.0
O70 O 0.09255 0.41072 0.71304 0.0
O71 O 0.13647 0.47509 0.74576 0.0
O72 O 0.09581 0.51441 0.71203 0.0
C73 C 0.06354 0.51929 0.6981 0.0
C74 C 0.09368 0.43481 0.8248 0.0
O75 O 1.02323 0.49473 0.71269 0.0
C76 C 0.96237 0.35263 0.78125 0.0
O77 O 0.06009 0.51615 0.78562 0.0
O78 O 0.98985 0.45828 0.78786 0.0
O79 O 0.08566 0.40469 0.79682 0.0
O80 O 0.09385 0.47113 0.81626 0.0
C81 C 0.99964 0.38243 0.67568 0.0
O82 O 0.95446 0.37746 0.75643 0.0
O83 O 1.00236 0.36135 0.78758 0.0
C84 C 1.01968 0.4975 0.80031 0.0
O85 O 0.99467 0.41595 0.68441 0.0
O86 O 1.00981 0.36258 0.70403 0.0
C87 C 0.13136 0.44349 0.72062 0.0
Fe88 Fe 0.68659 0.67792 0.74524 0.0
Fe89 Fe 0.63 0.57467 0.73307 0.0
O90 O 0.63374 0.62686 0.74812 0.0
Fe91 Fe 0.58462 0.62763 0.76573 0.0
O92 O 0.61058 0.64975 0.81626 0.0
O93 O 0.67693 0.70384 0.79239 0.0
O94 O 0.71251 0.65672 0.7807 0.0
C95 C 0.71769 0.62349 0.7726 0.0
C96 C 0.63331 0.71109 0.7187 0.0
O97 O 0.6901 0.5919 0.74789 0.0
C98 C 0.54734 0.56675 0.70109 0.0
O99 O 0.70499 0.66033 0.69755 0.0
O100 O 0.64541 0.59447 0.6802 0.0
O101 O 0.60265 0.68642 0.74538 0.0
O102 O 0.66432 0.70276 0.70972 0.0
C103 C 0.57702 0.5462 0.80238 0.0
O104 O 0.57 0.54843 0.71442 0.0
O105 O 0.55535 0.60479 0.71578 0.0
C106 C 0.67972 0.63144 0.66985 0.0
O107 O 0.61321 0.55201 0.78558 0.0
O108 O 0.55902 0.56969 0.79004 0.0
C109 C 0.64903 0.68456 0.82228 0.0
Fe110 Fe 0.49069 0.07744 0.73002 0.0
Fe111 Fe 0.38812 0.02324 0.74714 0.0
O112 O 0.44166 0.02657 0.7461 0.0
Fe113 Fe 0.44643 0.97886 0.76137 0.0
O114 O 0.46498 0.97395 0.70921 0.0
O115 O 0.51836 0.04657 0.70677 0.0
O116 O 0.46686 0.0726 0.6786 0.0
C117 C 0.42774 0.06575 0.67008 0.0
C118 C 0.52762 0.05506 0.79469 0.0
O119 O 0.39887 0.05826 0.69903 0.0
C120 C 0.3944 0.98423 0.82378 0.0
O121 O 0.47067 0.11723 0.749 0.0
O122 O 0.40809 0.07049 0.78244 0.0
O123 O 0.5062 1.01412 0.78076 0.0
O124 O 0.51784 0.08414 0.78115 0.0
C125 C 0.35949 0.93761 0.71987 0.0
O126 O 0.36955 0.98789 0.79554 0.0
O127 O 0.42939 0.98254 0.81384 0.0
C128 C 0.43861 0.11028 0.77436 0.0
O129 O 0.36365 0.97556 0.71181 0.0
O130 O 0.38687 0.93463 0.74556 0.0
C131 C 0.50111 1.00549 0.69318 0.0
Fe132 Fe 0.75981 0.96115 0.59879 0.0
Fe133 Fe 0.71345 1.01782 0.58335 0.0
O134 O 0.71207 0.96496 0.58149 0.0
Fe135 Fe 0.6627 0.91542 0.56291 0.0
O136 O 0.65411 0.88749 0.61336 0.0
O137 O 0.72473 0.90137 0.61812 0.0
O138 O 0.75417 0.97784 0.65097 0.0
C139 C 0.7505 1.01175 0.66087 0.0
C140 C 0.73667 0.90643 0.52986 0.0
O141 O 0.74701 0.03669 0.6329 0.0
C142 C 0.673 0.97856 0.50471 0.0
O143 O 0.80351 0.0211 0.58365 0.0
O144 O 0.76243 0.04476 0.5503 0.0
O145 O 0.69514 0.88887 0.54144 0.0
O146 O 0.76711 0.9427 0.54707 0.0
C147 C 0.62568 0.96395 0.60623 0.0
O148 O 0.68026 1.00718 0.53401 0.0
O149 O 0.66895 0.94027 0.51201 0.0
C150 C 0.80037 0.04909 0.55889 0.0
O151 O 0.66445 0.99537 0.6166 0.0
O152 O 0.62119 0.93352 0.57985 0.0
C153 C 0.68301 0.879 0.62964 0.0
Fe154 Fe 0.15241 0.76571 0.55855 0.0
Fe155 Fe 0.10911 0.818 0.60043 0.0
O156 O 0.10528 0.76765 0.5799 0.0
Fe157 Fe 0.05156 0.71625 0.581 0.0
O158 O 0.07352 0.67777 0.5752 0.0
O159 O 0.14319 0.71824 0.59488 0.0
O160 O 0.19397 0.80417 0.59699 0.0
C161 C 0.19202 0.82566 0.62881 0.0
C162 C 0.07847 0.71873 0.50066 0.0
O163 O 0.15766 0.83048 0.63519 0.0
C164 C 1.02131 0.7765 0.56852 0.0
O165 O 0.16659 0.81316 0.52187 0.0
O166 O 0.14674 0.8554 0.55965 0.0
O167 O 0.04762 0.71803 0.52394 0.0
O168 O 0.11717 0.72767 0.51565 0.0
C169 C 0.06372 0.74873 0.66094 0.0
O170 O 0.06095 0.81091 0.56632 0.0
O171 O 1.01659 0.74212 0.58724 0.0
C172 C 0.16525 0.84973 0.52739 0.0
O173 O 0.07276 0.78707 0.64541 0.0
O174 O 0.0559 0.71482 0.63789 0.0
C175 C 0.10606 0.68058 0.59586 0.0
Fe176 Fe 0.24447 0.31016 0.59971 0.0
Fe177 Fe 0.34732 0.35447 0.58315 0.0
O178 O 0.29651 0.3571 0.58239 0.0
Fe179 Fe 0.29799 0.40738 0.56452 0.0
O180 O 0.28144 0.41727 0.61551 0.0
O181 O 0.22319 0.34722 0.62169 0.0
O182 O 0.26763 0.31372 0.65125 0.0
C183 C 0.30476 0.31621 0.66056 0.0
C184 C 0.2122 0.33573 0.53313 0.0
O185 O 0.33289 0.32011 0.63212 0.0
C186 C 0.34596 0.39224 0.50467 0.0
O187 O 0.25795 0.26536 0.58099 0.0
O188 O 0.32381 0.30598 0.54914 0.0
O189 O 0.23814 0.3771 0.54456 0.0
O190 O 0.21692 0.30432 0.54915 0.0
C191 C 0.38343 0.4423 0.6077 0.0
O192 O 0.36941 0.38811 0.53403 0.0
O193 O 0.31356 0.39889 0.51296 0.0
C194 C 0.28811 0.26877 0.55476 0.0
O195 O 0.37509 0.40307 0.61726 0.0
O196 O 0.35864 0.44757 0.58055 0.0
C197 C 0.24447 0.38932 0.6328 0.0
Fe198 Fe 0.74933 0.81118 0.10224 0.0
Fe199 Fe 0.69769 0.70994 0.07957 0.0
O200 O 0.69975 0.76339 0.08201 0.0
Fe201 Fe 0.65198 0.76643 0.06389 0.0
O202 O 0.65522 0.80642 0.10392 0.0
O203 O 0.71713 0.8244 0.1412 0.0
O204 O 0.75602 0.77717 0.14329 0.0
C205 C 0.72681 0.7394 0.15964 0.0
C206 C 0.72518 0.84846 0.0333 0.0
O207 O 0.69623 0.70725 0.13724 0.0
C208 C 0.67122 0.72008 0.00096 0.0
O209 O 0.78635 0.8028 0.06409 0.0
O210 O 0.75849 0.73204 0.08102 0.0
O211 O 0.68633 0.81324 0.0271 0.0
O212 O 0.74914 0.85176 0.06515 0.0
C213 C 0.60884 0.68054 0.09919 0.0
O214 O 0.69953 0.71355 0.022 0.0
O215 O 0.64234 0.72738 0.01982 0.0
C216 C 0.78836 0.76644 0.06232 0.0
O217 O 0.6363 0.67489 0.07746 0.0
O218 O 0.61357 0.72008 0.10053 0.0
C219 C 0.67978 0.82427 0.13622 0.0
Fe220 Fe 0.29834 0.90238 0.05959 0.0
Fe221 Fe 0.25334 0.95445 0.09534 0.0
O222 O 0.30249 0.9536 0.07848 0.0
Fe223 Fe 0.35598 1.00409 0.08003 0.0
O224 O 0.37824 0.9789 0.11504 0.0
O225 O 0.35762 0.91744 0.07695 0.0
O226 O 0.27786 0.87461 0.10978 0.0
C227 C 0.24156 0.86906 0.12617 0.0
C228 C 0.35301 0.96419 0.00164 0.0
O229 O 0.22531 0.89469 0.1158 0.0
C230 C 0.3045 0.03901 0.05125 0.0
O231 O 0.23912 0.87892 0.0386 0.0
O232 O 0.22713 0.93683 0.04403 0.0
O233 O 0.37722 0.98982 0.0318 0.0
O234 O 0.31712 0.92722 0.00859 0.0
C235 C 0.31476 1.00403 0.15665 0.0
O236 O 0.27361 1.0149 0.07806 0.0
O237 O 0.33704 0.03222 0.0452 0.0
C238 C 0.21812 0.89961 0.02711 0.0
O239 O 0.27632 0.97105 0.14738 0.0
O240 O 0.3434 0.02683 0.12813 0.0
C241 C 0.38351 0.94618 0.1049 0.0
Fe242 Fe 0.06035 0.37242 0.07683 0.0
Fe243 Fe 0.1643 0.41718 0.06843 0.0
O244 O 0.11103 0.37027 0.08344 0.0
Fe245 Fe 0.10857 0.32074 0.10497 0.0
O246 O 0.08715 0.32917 0.15388 0.0
O247 O 0.03403 0.34072 0.12583 0.0
O248 O 0.0809 0.42225 0.10875 0.0
C249 C 0.11612 0.45959 0.10214 0.0
C250 C 1.02592 0.28389 0.05646 0.0
O251 O 0.14895 0.46194 0.08067 0.0
C252 C 0.16878 0.33853 0.0416 0.0
O253 O 0.07853 0.4048 0.02723 0.0
O254 O 0.14613 0.41265 0.01457 0.0
O255 O 0.04955 0.27961 0.08549 0.0
O256 O 0.03559 0.32269 0.04403 0.0
C257 C 0.1908 0.39449 0.1407 0.0
O258 O 0.1885 0.38044 0.05294 0.0
O259 O 0.1304 0.31015 0.05652 0.0
C260 C 0.1103 0.41135 0.00208 0.0
O261 O 0.18633 0.42463 0.12166 0.0
O262 O 0.16658 0.35261 0.1297 0.0
C263 C 0.05315 0.33454 0.15768 0.0
Fe264 Fe 0.41994 0.29122 0.93094 0.0
Fe265 Fe 0.36967 0.34334 0.91428 0.0
O266 O 0.36957 0.29136 0.916 0.0
Fe267 Fe 0.31977 0.23962 0.90295 0.0
O268 O 0.31789 0.21631 0.95487 0.0
O269 O 0.38902 0.23218 0.9525 0.0
O270 O 0.41646 0.3103 0.98283 0.0
C271 C 0.41303 0.34488 0.99079 0.0
C272 C 0.39361 0.23282 0.86483 0.0
O273 O 0.40763 0.36721 0.96117 0.0
C274 C 0.32323 0.29673 0.84022 0.0
O275 O 0.46068 0.35104 0.91285 0.0
O276 O 0.41493 0.36612 0.87689 0.0
O277 O 0.35278 0.21424 0.87926 0.0
O278 O 0.42427 0.27075 0.87935 0.0
C279 C 0.28613 0.28958 0.94921 0.0
O280 O 0.33137 0.32729 0.86779 0.0
O281 O 0.31935 0.25923 0.8506 0.0
C282 C 0.45452 0.37552 0.88608 0.0
O283 O 0.32472 0.3244 0.95133 0.0
O284 O 0.27863 0.25709 0.92382 0.0
C285 C 0.34901 0.20938 0.96785 0.0
Fe286 Fe 0.77657 0.1497 0.93241 0.0
Fe287 Fe 0.82811 0.10198 0.90225 0.0
O288 O 0.77636 0.09926 0.91693 0.0
Fe289 Fe 0.72495 0.0463 0.91547 0.0
O290 O 0.69906 0.06708 0.87965 0.0
O291 O 0.71848 0.13228 0.91082 0.0
O292 O 0.7992 0.17658 0.88203 0.0
C293 C 0.83737 0.18448 0.8686 0.0
C294 C 0.72114 0.08832 0.99146 0.0
O295 O 0.85503 0.16154 0.88264 0.0
C296 C 0.77959 1.01542 0.94325 0.0
O297 O 0.83431 0.17527 0.95727 0.0
O298 O 0.85167 0.1206 0.95462 0.0
O299 O 0.701 0.05819 0.96295 0.0
O300 O 0.75482 0.12671 0.98335 0.0
C301 C 0.76996 0.05041 0.83957 0.0
O302 O 0.81067 0.04218 0.91809 0.0
O303 O 0.74658 0.02086 0.95111 0.0
C304 C 0.85757 0.1574 0.97061 0.0
O305 O 0.80725 0.08491 0.84957 0.0
O306 O 0.74103 0.02627 0.86755 0.0
C307 C 0.69471 0.10142 0.88374 0.0
Fe308 Fe 1.02307 0.70692 0.9113 0.0
Fe309 Fe 0.96582 0.75188 0.89374 0.0
O310 O 0.96954 0.70403 0.91073 0.0
Fe311 Fe 0.92028 0.6535 0.92673 0.0
O312 O 0.94398 0.65787 0.97824 0.0
O313 O 1.01054 0.66934 0.95703 0.0
O314 O 0.04499 0.7527 0.94852 0.0
C315 C 0.04837 0.7906 0.94163 0.0
C316 C 0.97082 0.62166 0.87939 0.0
O317 O 1.02428 0.79502 0.91302 0.0
C318 C 0.8854 0.67536 0.8595 0.0
O319 O 0.04523 0.74509 0.86544 0.0
O320 O 0.98568 0.748 0.84254 0.0
O321 O 0.94033 0.61411 0.9069 0.0
O322 O 1.00389 0.66115 0.87432 0.0
C323 C 0.90798 0.72626 0.95994 0.0
O324 O 0.90739 0.71707 0.87125 0.0
O325 O 0.89323 0.64626 0.87607 0.0
C326 C 1.02154 0.74704 0.83541 0.0
O327 O 0.94433 0.75742 0.94407 0.0
O328 O 0.89233 0.68448 0.94922 0.0
C329 C 0.98189 0.66119 0.986 0.0
Fe330 Fe 0.36945 0.04736 0.41328 0.0
Fe331 Fe 0.41654 0.14997 0.43231 0.0
O332 O 0.36902 0.09934 0.4128 0.0
Fe333 Fe 0.32098 0.10079 0.39279 0.0
O334 O 0.32963 0.08391 0.34162 0.0
O335 O 0.33705 0.02626 0.36329 0.0
O336 O 0.41917 0.07023 0.38106 0.0
C337 C 0.45722 0.10323 0.39095 0.0
C338 C 0.28142 1.01413 0.43466 0.0
O339 O 0.46014 0.13341 0.41714 0.0
C340 C 0.33918 0.15503 0.46176 0.0
O341 O 0.40202 0.0603 0.46334 0.0
O342 O 0.4087 0.12552 0.48389 0.0
O343 O 0.27831 0.04061 0.40797 0.0
O344 O 0.31958 0.02015 0.44543 0.0
C345 C 0.39708 0.18438 0.36319 0.0
O346 O 0.38126 0.17477 0.45141 0.0
O347 O 0.31047 0.11878 0.44337 0.0
C348 C 0.40559 0.08787 0.49246 0.0
O349 O 0.42633 0.17772 0.3815 0.0
O350 O 0.35496 0.16056 0.3731 0.0
C351 C 0.33339 0.04958 0.33372 0.0
Fe352 Fe 0.91618 0.29657 0.43633 0.0
Fe353 Fe 1.01734 0.35343 0.41551 0.0
O354 O 0.96598 0.29977 0.41556 0.0
Fe355 Fe 0.96664 0.25168 0.39459 0.0
O356 O 0.92764 0.21126 0.43299 0.0
O357 O 0.90638 0.25049 0.47332 0.0
O358 O 0.94792 0.33668 0.47917 0.0
C359 C 0.98602 0.34642 0.49584 0.0
C360 C 0.88239 0.23821 0.36436 0.0
O361 O 1.01932 0.35184 0.47315 0.0
C362 C 1.0114 0.32177 0.33508 0.0
O363 O 0.92153 0.3422 0.40002 0.0
O364 O 0.99138 0.38896 0.41865 0.0
O365 O 0.91941 0.2383 0.35749 0.0
O366 O 0.87714 0.25562 0.3977 0.0
C367 C 0.05244 0.29691 0.43088 0.0
O368 O 1.01489 0.35454 0.35775 0.0
O369 O 1.0053 0.28511 0.35207 0.0
C370 C 0.95575 0.38221 0.40045 0.0
O371 O 0.05589 0.33113 0.41252 0.0
O372 O 1.01394 0.26058 0.43076 0.0
C373 C 0.90934 0.21503 0.46629 0.0
Fe374 Fe 0.7219 0.6924 0.41552 0.0
Fe375 Fe 0.77869 0.6472 0.4346 0.0
O376 O 0.77505 0.69443 0.41557 0.0
Fe377 Fe 0.82422 0.74324 0.39632 0.0
O378 O 0.79849 0.73527 0.3452 0.0
O379 O 0.73253 0.72539 0.36662 0.0
O380 O 0.69703 0.64333 0.38207 0.0
C381 C 0.69202 0.60546 0.39215 0.0
C382 C 0.77531 0.78045 0.43933 0.0
O383 O 0.71898 0.603 0.41886 0.0
C384 C 0.86147 0.7251 0.46408 0.0
O385 O 0.70194 0.65875 0.46445 0.0
O386 O 0.76148 0.65453 0.4859 0.0
O387 O 0.80594 0.78491 0.41323 0.0
O388 O 0.74326 0.74164 0.44873 0.0
C389 C 0.83314 0.66766 0.36638 0.0
O390 O 0.83828 0.68274 0.45456 0.0
O391 O 0.85363 0.75375 0.44636 0.0
C392 C 0.72591 0.65585 0.49378 0.0
O393 O 0.7972 0.63801 0.38401 0.0
O394 O 0.85032 0.70992 0.37585 0.0
C395 C 0.7601 0.73081 0.33728 0.0
C396 C 0.13393 0.51994 0.15537 0.0
C397 C 0.11394 0.49988 0.11654 0.0
C398 C 0.11741 0.54362 0.17919 0.0
C399 C 0.07966 0.54755 0.16545 0.0
H400 H 0.15985 0.51401 0.16911 0.0
H401 H 0.13283 0.55656 0.20987 0.0
S402 S 1.01952 0.50578 0.06277 0.0
N403 N 0.0578 0.48913 0.06309 0.0
N404 N 0.02667 0.53364 0.10768 0.0
C405 C 0.06173 0.5305 0.12507 0.0
C406 C 0.0789 0.50672 0.10072 0.0
C407 C 0.5473 0.55995 0.14249 0.0
C408 C 0.5241 0.56273 0.17786 0.0
C409 C 0.5716 0.59753 0.11603 0.0
C410 C 0.57517 0.64038 0.12426 0.0
H411 H 0.54679 0.52839 0.13515 0.0
H412 H 0.58908 0.59305 0.08945 0.0
S413 S 0.52031 0.6656 0.21335 0.0
N414 N 0.50471 0.6112 0.21952 0.0
N415 N 0.55236 0.68271 0.17055 0.0
C416 C 0.55129 0.64345 0.15916 0.0
C417 C 0.52545 0.60453 0.18579 0.0
C418 C 0.50665 1.00835 0.13709 0.0
C419 C 0.50819 0.98102 0.16961 0.0
C420 C 0.46727 0.99351 0.11223 0.0
C421 C 0.42742 0.95102 0.11917 0.0
H422 H 0.53558 0.04209 0.13166 0.0
H423 H 0.4668 1.01704 0.08932 0.0
S424 S 0.41419 0.86527 0.19857 0.0
N425 N 0.46709 0.90758 0.2054 0.0
N426 N 0.3927 0.88099 0.15947 0.0
C427 C 0.42919 0.92227 0.1499 0.0
C428 C 0.46962 0.937 0.17495 0.0
C429 C 0.52601 0.12783 0.34485 0.0
C430 C 0.49682 0.09915 0.37656 0.0
C431 C 0.55286 0.11497 0.32069 0.0
C432 C 0.55065 0.07245 0.32663 0.0
H433 H 0.52579 0.15881 0.33672 0.0
H434 H 0.5735 0.13738 0.29552 0.0
S435 S 0.48373 0.98783 0.40925 0.0
N436 N 0.47089 0.02859 0.41541 0.0
N437 N 0.52028 1.00425 0.36973 0.0
C438 C 0.52359 0.04487 0.35986 0.0
C439 C 0.49704 0.05829 0.38484 0.0
C440 C 0.9616 0.45661 0.30859 0.0
C441 C 0.99042 0.50134 0.3245 0.0
C442 C 0.94625 0.41765 0.33428 0.0
C443 C 0.95872 0.42179 0.37711 0.0
H444 H 0.95236 0.45136 0.27541 0.0
H445 H 0.92719 0.38413 0.31983 0.0
S446 S 0.0267 0.53059 0.4363 0.0
N447 N 1.02584 0.54694 0.38734 0.0
N448 N 0.99722 0.47421 0.43546 0.0
C449 C 0.98484 0.46628 0.39404 0.0
C450 C 1.00068 0.50584 0.36788 0.0
C451 C 0.56851 0.5423 0.36115 0.0
C452 C 0.56633 0.51094 0.33075 0.0
C453 C 0.60834 0.56893 0.38478 0.0
C454 C 0.64798 0.56583 0.3788 0.0
H455 H 0.53981 0.54766 0.36559 0.0
H456 H 0.6092 0.59463 0.40592 0.0
S457 S 0.65933 0.48634 0.30612 0.0
N458 N 0.60642 0.47535 0.29875 0.0
N459 N 0.6817 0.52688 0.34256 0.0
C460 C 0.64553 0.53264 0.35069 0.0
C461 C 0.60462 0.50489 0.32679 0.0
C462 C 0.96381 0.54352 0.87567 0.0
C463 C 0.97415 0.58507 0.85636 0.0
C464 C 0.97788 0.51446 0.85724 0.0
C465 C 1.00365 0.52682 0.8197 0.0
H466 H 0.94689 0.53454 0.90601 0.0
H467 H 0.97011 0.48311 0.8732 0.0
S468 S 0.03344 0.62828 0.75376 0.0
N469 N 1.00633 0.63355 0.79468 0.0
N470 N 0.0344 0.58063 0.76184 0.0
C471 C 1.01196 0.56692 0.79925 0.0
C472 C 0.9967 0.59553 0.81709 0.0
C473 C 0.50955 0.49743 0.84777 0.0
C474 C 0.55084 0.50546 0.83001 0.0
C475 C 0.48052 0.45636 0.86824 0.0
C476 C 0.49117 0.42113 0.87196 0.0
H477 H 0.49853 0.52232 0.8445 0.0
H478 H 0.44833 0.4515 0.87993 0.0
S479 S 0.59753 0.42651 0.83589 0.0
N480 N 0.60319 0.476 0.82149 0.0
N481 N 0.54766 0.3985 0.85978 0.0
C482 C 0.53362 0.42963 0.85716 0.0
C483 C 0.56359 0.47178 0.83618 0.0
C484 C 0.58214 0.09468 0.85543 0.0
C485 C 0.57226 0.07199 0.81603 0.0
C486 C 0.62395 0.1083 0.87652 0.0
C487 C 0.6573 0.10045 0.85826 0.0
H488 H 0.55666 0.10005 0.8708 0.0
H489 H 0.62899 0.12246 0.90812 0.0
S490 S 0.65074 0.04965 0.75228 0.0
N491 N 0.60103 0.04709 0.75774 0.0
N492 N 0.67953 0.07384 0.79606 0.0
C493 C 0.64886 0.08111 0.81735 0.0
C494 C 0.60634 0.06649 0.79659 0.0
C495 C 0.55166 0.93721 0.64451 0.0
C496 C 0.5872 0.97 0.61971 0.0
C497 C 0.52231 0.94825 0.66654 0.0
C498 C 0.52791 0.99258 0.66485 0.0
H499 H 0.54834 0.90395 0.64906 0.0
H500 H 0.49671 0.92255 0.68688 0.0
S501 S 0.61165 0.08814 0.59892 0.0
N502 N 0.62301 0.04665 0.59063 0.0
N503 N 0.56847 0.06735 0.63223 0.0
C504 C 0.56144 0.02448 0.63786 0.0
C505 C 0.59086 1.01317 0.61525 0.0
C506 C 0.12012 0.59219 0.66042 0.0
C507 C 0.07447 0.55959 0.67078 0.0
C508 C 0.13096 0.63184 0.63689 0.0
C509 C 0.09654 0.64028 0.6226 0.0
H510 H 0.14787 0.58732 0.67085 0.0
H511 H 0.16632 0.65562 0.6295 0.0
S512 S 0.97173 0.56694 0.64292 0.0
N513 N 0.99499 0.53953 0.66527 0.0
N514 N 1.0147 0.6132 0.62251 0.0
C515 C 0.05082 0.60804 0.63326 0.0
C516 C 0.03996 0.56797 0.65679 0.0
C517 C 0.46477 0.47316 0.62696 0.0
C518 C 0.42729 0.48037 0.62408 0.0
C519 C 0.50387 0.50234 0.65039 0.0
C520 C 0.50754 0.54029 0.67219 0.0
H521 H 0.46312 0.44337 0.6123 0.0
H522 H 0.53091 0.49413 0.65242 0.0
S523 S 0.4207 0.57703 0.67152 0.0
N524 N 0.39746 0.53002 0.64239 0.0
N525 N 0.4713 0.5857 0.68636 0.0
C526 C 0.47148 0.54973 0.66738 0.0
C527 C 0.43133 0.51963 0.64334 0.0
C528 C 0.72604 0.81342 0.45538 0.0
C529 C 0.77031 0.81928 0.45462 0.0
C530 C 0.71619 0.843 0.47805 0.0
C531 C 0.75017 0.88005 0.50114 0.0
H532 H 0.69803 0.78423 0.43975 0.0
H533 H 0.68116 0.83566 0.47865 0.0
S534 S 0.87286 0.9133 0.50599 0.0
N535 N 0.84922 0.8668 0.47619 0.0
N536 N 0.83132 0.92327 0.51872 0.0
C537 C 0.79542 0.88824 0.49835 0.0
C538 C 0.80536 0.85772 0.4751 0.0
C539 C 0.21517 0.97037 0.48256 0.0
C540 C 0.24183 0.97055 0.4487 0.0
C541 C 0.18871 0.93046 0.50619 0.0
C542 C 0.18827 0.88912 0.49736 0.0
H543 H 0.21729 1.00198 0.49277 0.0
H544 H 0.17032 0.93292 0.53307 0.0
S545 S 0.24877 0.87113 0.40828 0.0
N546 N 0.2634 0.9255 0.40489 0.0
N547 N 0.21386 0.85061 0.44897 0.0
C548 C 0.21253 0.88834 0.46161 0.0
C549 C 0.23927 0.92898 0.43751 0.0
C550 C 0.09191 0.2727 0.48492 0.0
C551 C 0.09429 0.30264 0.45292 0.0
C552 C 0.13051 0.28277 0.50997 0.0
C553 C 0.17263 0.32357 0.50453 0.0
H554 H 0.05974 0.24223 0.49172 0.0
H555 H 0.12682 0.25929 0.5349 0.0
S556 S 0.19882 0.41093 0.42236 0.0
N557 N 0.14459 0.37274 0.41457 0.0
N558 N 0.21516 0.39213 0.46302 0.0
C559 C 0.17585 0.35283 0.47187 0.0
C560 C 0.13729 0.3422 0.44573 0.0
C561 C 0.1629 0.39225 0.71213 0.0
C562 C 0.16906 0.43645 0.70727 0.0
C563 C 0.18877 0.37795 0.6893 0.0
C564 C 0.2224 0.40749 0.6611 0.0
H565 H 0.13563 0.36739 0.7318 0.0
H566 H 0.18118 0.34296 0.69262 0.0
S567 S 0.25616 0.52882 0.64136 0.0
N568 N 0.21375 0.51093 0.67539 0.0
N569 N 0.26402 0.48501 0.63302 0.0
C570 C 0.2317 0.45318 0.65869 0.0
C571 C 0.20469 0.46749 0.68175 0.0
C572 C 0.68622 0.79305 0.70428 0.0
C573 C 0.64103 0.75596 0.70369 0.0
C574 C 0.6989 0.83317 0.68173 0.0
C575 C 0.66693 0.83831 0.6576 0.0
H576 H 0.71275 0.7902 0.72086 0.0
H577 H 0.73445 0.85979 0.68218 0.0
S578 S 0.54289 0.75323 0.64927 0.0
N579 N 0.56346 0.72816 0.67981 0.0
N580 N 0.58659 0.80396 0.63769 0.0
C581 C 0.62077 0.8027 0.65912 0.0
C582 C 0.60797 0.76148 0.68212 0.0
C583 C 0.27392 0.84917 0.64552 0.0
C584 C 0.23291 0.8477 0.65752 0.0
C585 C 0.31465 0.87421 0.66884 0.0
C586 C 0.31588 0.89797 0.70565 0.0
H587 H 0.27542 0.83294 0.6165 0.0
H588 H 0.34597 0.87767 0.6563 0.0
S589 S 0.21794 0.90138 0.75408 0.0
N590 N 0.19621 0.86981 0.71114 0.0
N591 N 0.27226 0.91568 0.75514 0.0
C592 C 0.27468 0.89415 0.71972 0.0
C593 C 0.23339 0.86937 0.69571 0.0
C594 C 0.60974 0.87391 0.18331 0.0
C595 C 0.63886 0.90426 0.2143 0.0
C596 C 0.62231 0.8464 0.16004 0.0
C597 C 0.66475 0.84837 0.1665 0.0
H598 H 0.57862 0.87375 0.17489 0.0
H599 H 0.59931 0.82504 0.13527 0.0
S600 S 0.75053 0.91885 0.24806 0.0
N601 N 0.70987 0.93191 0.2532 0.0
N602 N 0.73346 0.88038 0.20979 0.0
C603 C 0.69258 0.87636 0.19961 0.0
C604 C 0.67969 0.90427 0.22328 0.0
C605 C 0.15938 0.79286 0.21029 0.0
C606 C 0.15848 0.75076 0.20546 0.0
C607 C 0.1865 0.83066 0.1849 0.0
C608 C 0.21496 0.82882 0.15393 0.0
H609 H 0.13779 0.79659 0.23325 0.0
H610 H 0.18492 0.8616 0.1895 0.0
S611 S 0.22774 0.72824 0.12916 0.0
N612 N 0.18983 0.7103 0.16762 0.0
N613 N 0.24221 0.78198 0.12052 0.0
C614 C 0.21613 0.78776 0.14967 0.0
C615 C 0.1877 0.7487 0.17527 0.0
C616 C 0.2704 0.45309 0.16426 0.0
C617 C 0.23087 0.40976 0.16966 0.0
C618 C 0.31106 0.46586 0.18688 0.0
C619 C 0.31338 0.43622 0.21643 0.0
H620 H 0.27093 0.47627 0.14043 0.0
H621 H 0.34157 0.4976 0.17902 0.0
S622 S 0.21812 0.32231 0.24726 0.0
N623 N 0.19584 0.3396 0.21018 0.0
N624 N 0.27152 0.36381 0.25308 0.0
C625 C 0.27317 0.39449 0.22447 0.0
C626 C 0.23216 0.38119 0.20103 0.0
C627 C 0.23945 0.33427 0.03306 0.0
C628 C 0.19521 0.32083 0.01907 0.0
C629 C 0.26629 0.31968 0.01222 0.0
C630 C 0.25084 0.29205 0.97544 0.0
H631 H 0.25371 0.35663 0.06028 0.0
H632 H 0.30065 0.33219 0.02403 0.0
S633 S 0.13567 0.24455 0.92782 0.0
N634 N 0.13503 0.2749 0.96861 0.0
N635 N 0.1868 0.24945 0.92769 0.0
C636 C 0.2057 0.27643 0.96222 0.0
C637 C 0.17768 0.2905 0.98435 0.0
C638 C 0.78253 0.93039 0.01712 0.0
C639 C 0.74312 0.88907 0.00487 0.0
C640 C 0.79777 0.97094 0.99417 0.0
C641 C 0.77474 0.97176 0.95769 0.0
H642 H 0.80065 0.93224 0.04598 0.0
H643 H 0.82577 1.00243 0.00671 0.0
S644 S 0.67382 0.8729 0.90852 0.0
N645 N 0.68437 0.85138 0.95101 0.0
N646 N 0.71309 0.92761 0.9081 0.0
C647 C 0.73733 0.93038 0.94341 0.0
C648 C 0.72154 0.88907 0.96685 0.0
C649 C 0.17208 0.87336 0.96016 0.0
C650 C 0.17415 0.87495 0.00451 0.0
C651 C 0.12979 0.85074 0.93887 0.0
C652 C 0.08846 0.82924 0.9614 0.0
H653 H 0.20323 0.88849 0.94194 0.0
H654 H 0.12953 0.84714 0.90481 0.0
S655 S 0.07598 0.82521 0.07783 0.0
N656 N 0.13165 0.85512 0.07013 0.0
N657 N 0.05252 0.81175 0.03028 0.0
C658 C 0.09038 0.83224 0.00567 0.0
C659 C 0.13315 0.85529 0.02721 0.0
C660 C 0.37336 0.1646 0.81927 0.0
C661 C 0.40725 0.20617 0.83652 0.0
C662 C 0.3846 0.13581 0.79704 0.0
C663 C 0.43035 0.14683 0.79094 0.0
H664 H 0.33758 0.15333 0.824 0.0
H665 H 0.35674 0.10355 0.78566 0.0
S666 S 0.53262 0.25387 0.82553 0.0
N667 N 0.48931 0.25902 0.84256 0.0
N668 N 0.50991 0.20398 0.80101 0.0
C669 C 0.46482 0.18945 0.80561 0.0
C670 C 0.45341 0.21922 0.82837 0.0
C671 C 0.90734 0.23342 0.82665 0.0
C672 C 0.86511 0.22548 0.84187 0.0
C673 C 0.93699 0.27374 0.80561 0.0
C674 C 0.92611 0.30841 0.79859 0.0
H675 H 0.91837 0.20878 0.83193 0.0
H676 H 0.96949 0.27809 0.79552 0.0
S677 S 0.8179 0.30318 0.82813 0.0
N678 N 0.81212 0.25451 0.84543 0.0
N679 N 0.86864 0.33072 0.80571 0.0
C680 C 0.88303 0.30015 0.8114 0.0
C681 C 0.85244 0.2587 0.8331 0.0
C682 C 0.80599 0.61538 0.83852 0.0
C683 C 0.84495 0.65862 0.83146 0.0
C684 C 0.76508 0.60117 0.81605 0.0
C685 C 0.76228 0.62935 0.78521 0.0
H686 H 0.80619 0.59357 0.86342 0.0
H687 H 0.73482 0.56968 0.82495 0.0
S688 S 0.85652 0.74162 0.74953 0.0
N689 N 0.87932 0.72671 0.78809 0.0
N690 N 0.80321 0.69956 0.74498 0.0
C691 C 0.80211 0.6707 0.77539 0.0
C692 C 0.84324 0.68553 0.79877 0.0
C693 C 0.84881 0.70735 0.01542 0.0
C694 C 0.88072 0.73945 0.98755 0.0
C695 C 0.8211 0.71772 0.04037 0.0
C696 C 0.82319 0.76058 0.03837 0.0
H697 H 0.84492 0.67364 0.01792 0.0
H698 H 0.79691 0.69096 0.06083 0.0
S699 S 0.90184 0.85741 0.97082 0.0
N700 N 0.91405 0.81691 0.96003 0.0
N701 N 0.8609 0.83577 0.0065 0.0
C702 C 0.85562 0.7935 0.01123 0.0
C703 C 0.88453 0.78311 0.98598 0.0
C704 C 0.34964 0.13671 0.97382 0.0
C705 C 0.33518 0.16587 0.99004 0.0
C706 C 0.33609 0.09442 0.99232 0.0
C707 C 0.30842 0.07955 0.02882 0.0
H708 H 0.37135 0.14643 0.9462 0.0
H709 H 0.34881 0.07366 0.97838 0.0
S710 S 0.25928 0.14264 0.08226 0.0
N711 N 0.28898 0.17621 0.04275 0.0
N712 N 0.26534 0.09715 0.07924 0.0
C713 C 0.29234 0.10775 0.04465 0.0
C714 C 0.30541 0.15081 0.02494 0.0
C715 C 0.90404 0.22484 0.01754 0.0
C716 C 0.89787 0.18439 0.99887 0.0
C717 C 0.94456 0.25487 0.0387 0.0
C718 C 0.98092 0.24599 0.04234 0.0
H719 H 0.87809 0.23445 0.01442 0.0
H720 H 0.9482 0.28651 0.05088 0.0
S721 S 0.98099 0.14284 0.00344 0.0
N722 N 0.93063 0.13504 0.98895 0.0
N723 N 1.007 0.19234 0.02869 0.0
C724 C 0.97438 0.20443 0.02652 0.0
C725 C 0.93286 0.17348 0.00478 0.0
C726 C 0.31354 0.17468 0.52963 0.0
C727 C 0.32105 0.18025 0.48572 0.0
C728 C 0.2969 0.19947 0.55218 0.0
C729 C 0.28641 0.22989 0.53135 0.0
H730 H 0.32208 0.15229 0.54682 0.0
H731 H 0.29525 0.1972 0.58633 0.0
S732 S 0.29708 0.2537 0.41625 0.0
N733 N 0.31428 0.21617 0.42212 0.0
N734 N 0.28293 0.26215 0.46396 0.0
C735 C 0.29155 0.23352 0.48713 0.0
C736 C 0.30886 0.20888 0.46446 0.0
C737 C 0.88552 0.13308 0.48269 0.0
C738 C 0.88851 0.1747 0.49548 0.0
C739 C 0.86144 0.09276 0.50639 0.0
C740 C 0.83999 0.09237 0.54432 0.0
H741 H 0.89975 0.13074 0.45281 0.0
H742 H 0.8567 0.06103 0.49328 0.0
S743 S 0.84192 0.1923 0.59525 0.0
N744 N 0.87129 0.21318 0.55133 0.0
N745 N 0.82624 0.13754 0.59562 0.0
C746 C 0.84541 0.13417 0.5591 0.0
C747 C 0.86959 0.17522 0.53486 0.0
C748 C 0.98314 0.79332 0.50775 0.0
C749 C 0.98 0.77131 0.5463 0.0
C750 C 0.94427 0.77926 0.48179 0.0
C751 C 0.90135 0.74199 0.493 0.0
H752 H 1.01604 0.81976 0.49651 0.0
H753 H 0.94827 0.7962 0.45179 0.0
S754 S 0.87342 0.67729 0.59305 0.0
N755 N 0.92855 0.71439 0.59672 0.0
N756 N 0.85729 0.6865 0.54662 0.0
C757 C 0.89742 0.72134 0.53215 0.0
C758 C 0.93623 0.73648 0.55914 0.0
C759 C 0.92699 0.67319 0.29745 0.0
C760 C 0.91301 0.6271 0.28806 0.0
C761 C 0.90079 0.6855 0.32213 0.0
C762 C 0.85894 0.65247 0.33898 0.0
H763 H 0.95902 0.70073 0.28571 0.0
H764 H 0.91384 0.72151 0.32809 0.0
S765 S 0.80595 0.52665 0.32422 0.0
N766 N 0.85436 0.54804 0.29781 0.0
N767 N 0.8042 0.57082 0.34449 0.0
C768 C 0.84419 0.60594 0.33016 0.0
C769 C 0.87144 0.59336 0.30485 0.0
C770 C 0.39311 0.26466 0.28157 0.0
C771 C 0.4367 0.30414 0.2843 0.0
C772 C 0.38132 0.22575 0.30591 0.0
C773 C 0.41269 0.22419 0.33401 0.0
H774 H 0.36677 0.26486 0.26216 0.0
H775 H 0.34675 0.19722 0.30368 0.0
S776 S 0.53287 0.31703 0.35031 0.0
N777 N 0.51227 0.33829 0.31535 0.0
N778 N 0.491 0.26482 0.36058 0.0
C779 C 0.45757 0.26232 0.33494 0.0
C780 C 0.46938 0.3023 0.3102 0.0
C781 C 0.7998 0.21059 0.34631 0.0
C782 C 0.8422 0.21483 0.3348 0.0
C783 C 0.75979 0.18429 0.32235 0.0
C784 C 0.76043 0.16164 0.28541 0.0
H785 H 0.79673 0.22577 0.37539 0.0
H786 H 0.72761 0.17898 0.33451 0.0
S787 S 0.86242 0.16545 0.23797 0.0
N788 N 0.88231 0.19707 0.28114 0.0
N789 N 0.80725 0.14776 0.23646 0.0
C790 C 0.80287 0.16799 0.2719 0.0
C791 C 0.84363 0.19454 0.29637 0.0
C792 C 0.03962 0.71156 0.43148 0.0
C793 C 0.06783 0.70202 0.45702 0.0
C794 C 0.03466 0.70091 0.3882 0.0
C795 C 0.05789 0.68058 0.36956 0.0
H796 H 1.02287 0.72894 0.4446 0.0
H797 H 1.01375 0.70993 0.36912 0.0
S798 S 0.13045 0.6429 0.42499 0.0
N799 N 0.11483 0.66649 0.46205 0.0
N800 N 0.1063 0.64708 0.38125 0.0
C801 C 0.08405 0.6686 0.39563 0.0
C802 C 0.08882 0.67918 0.43929 0.0
C803 C 0.40253 0.41443 0.44663 0.0
C804 C 0.3571 0.39225 0.4599 0.0
C805 C 0.41288 0.42093 0.40359 0.0
C806 C 0.37811 0.40483 0.37256 0.0
H807 H 0.43013 0.42892 0.46954 0.0
H808 H 0.44849 0.4399 0.39456 0.0
S809 S 0.25373 0.33814 0.39139 0.0
N810 N 0.27695 0.34965 0.43906 0.0
N811 N 0.29678 0.36145 0.35798 0.0
C812 C 0.33263 0.37958 0.38538 0.0
C813 C 0.32203 0.37351 0.4292 0.0
C814 C 0.70121 1.01831 0.43637 0.0
C815 C 0.66477 0.98684 0.46133 0.0
C816 C 0.69613 0.0194 0.39242 0.0
C817 C 0.65443 0.9891 0.37269 0.0
H818 H 0.7341 0.04106 0.45071 0.0
H819 H 0.72451 0.04451 0.37396 0.0
S820 S 0.54936 0.90002 0.42485 0.0
N821 N 0.58645 0.92465 0.46376 0.0
N822 N 0.57641 0.92669 0.38145 0.0
C823 C 0.61788 0.95765 0.39765 0.0
C824 C 0.62317 0.95654 0.44198 0.0
C825 C 0.70431 0.1139 0.05867 0.0
C826 C 0.70683 0.07962 0.03578 0.0
C827 C 0.69868 0.11101 0.10244 0.0
C828 C 0.69678 0.07444 0.12505 0.0
H829 H 0.70708 0.14343 0.04257 0.0
H830 H 0.69561 0.13754 0.11878 0.0
S831 S 0.70245 0.97614 0.08015 0.0
N832 N 0.70716 1.00795 0.03878 0.0
N833 N 0.69729 1.00293 0.1217 0.0
C834 C 0.69959 0.04002 0.10276 0.0
C835 C 0.70434 0.04245 0.05788 0.0
C836 C 0.96102 0.62195 0.09815 0.0
C837 C 1.00349 0.64998 0.11771 0.0
C838 C 0.95519 0.62454 0.05502 0.0
C839 C 0.99167 0.65488 0.02966 0.0
H840 H 0.9316 0.59818 0.11636 0.0
H841 H 0.92152 0.60309 0.04151 0.0
S842 S 0.11045 0.73417 0.0649 0.0
N843 N 0.08323 0.70794 0.10846 0.0
N844 N 0.07215 0.7128 0.02643 0.0
C845 C 0.03477 0.68235 0.04834 0.0
C846 C 0.04066 0.68006 0.09271 0.0
C847 C 0.40037 0.33284 0.10944 0.0
C848 C 0.42102 0.37822 0.12338 0.0
C849 C 0.39745 0.32273 0.06625 0.0
C850 C 0.41435 0.35758 0.03557 0.0
H851 H 0.38815 0.30518 0.132 0.0
H852 H 0.38223 0.28721 0.05683 0.0
S853 S 0.46643 0.48161 0.05613 0.0
N854 N 0.45527 0.4582 0.10352 0.0
N855 N 0.44895 0.43886 0.02213 0.0
C856 C 0.43266 0.4029 0.04907 0.0
C857 C 0.43629 0.41329 0.09308 0.0
C858 C 0.96255 0.37227 0.60601 0.0
C859 C 0.99422 0.36774 0.63117 0.0
C860 C 0.96082 0.36576 0.56239 0.0
C861 C 0.99115 0.35506 0.54188 0.0
H862 H 0.93928 0.38171 0.62009 0.0
H863 H 0.93573 0.36985 0.54458 0.0
S864 S 0.08061 0.33901 0.59356 0.0
N865 N 0.05648 0.35136 0.63285 0.0
N866 N 0.05342 0.33929 0.5502 0.0
C867 C 1.02287 0.34996 0.56664 0.0
C868 C 1.02422 0.35605 0.61147 0.0
C869 C 0.73588 0.66661 0.61196 0.0
C870 C 0.69051 0.6398 0.62489 0.0
C871 C 0.74659 0.67252 0.56911 0.0
C872 C 0.71229 0.65221 0.53798 0.0
H873 H 0.76332 0.68205 0.63499 0.0
H874 H 0.78208 0.69294 0.56021 0.0
S875 S 0.5878 0.58332 0.55568 0.0
N876 N 0.6105 0.59596 0.60353 0.0
N877 N 0.63117 0.60733 0.52264 0.0
C878 C 0.66664 0.62731 0.55039 0.0
C879 C 0.65563 0.6209 0.59405 0.0
C880 C 0.39524 0.09007 0.61142 0.0
C881 C 0.41686 0.06634 0.62518 0.0
C882 C 0.39105 0.09595 0.56815 0.0
C883 C 0.40758 0.07758 0.53738 0.0
H884 H 0.38341 0.10585 0.63409 0.0
H885 H 0.37531 0.11567 0.55872 0.0
S886 S 0.46248 1.00838 0.55778 0.0
N887 N 0.45193 0.02137 0.60518 0.0
N888 N 0.44333 0.03198 0.52387 0.0
C889 C 0.42693 0.05162 0.55085 0.0
C890 C 0.4318 0.04618 0.59481 0.0
C891 C 0.41584 0.98425 0.89928 0.0
C892 C 0.38354 0.98177 0.86929 0.0
C893 C 0.40722 0.98152 0.94266 0.0
C894 C 0.36595 0.97593 0.95748 0.0
H895 H 0.44803 0.9878 0.8893 0.0
H896 H 0.43205 0.98176 0.96451 0.0
S897 S 0.27246 0.97309 0.89378 0.0
N898 N 0.31038 0.97766 0.85852 0.0
N899 N 0.29398 0.97179 0.94032 0.0
C900 C 0.33419 0.97539 0.92841 0.0
C901 C 0.34304 0.97855 0.88422 0.0
C902 C 0.06957 0.38437 0.93368 0.0
C903 C 0.10623 0.41825 0.95715 0.0
C904 C 0.06725 0.38855 0.88986 0.0
C905 C 0.10105 0.42715 0.86876 0.0
H906 H 0.04299 0.35428 0.9492 0.0
H907 H 0.03808 0.36233 0.87267 0.0
S908 S 0.20375 0.5249 0.91627 0.0
N909 N 0.17742 0.49069 0.95643 0.0
N910 N 0.17195 0.49958 0.87416 0.0
C911 C 0.13778 0.46113 0.89195 0.0
C912 C 0.1407 0.45637 0.93624 0.0
C913 C 0.69345 0.69753 0.88824 0.0
C914 C 0.66061 0.70241 0.86531 0.0
C915 C 0.69737 0.70402 0.93218 0.0
C916 C 0.66848 0.71555 0.95432 0.0
H917 H 0.71449 0.68626 0.87247 0.0
H918 H 0.72228 0.69872 0.94893 0.0
S919 S 0.58073 0.73758 0.90639 0.0
N920 N 0.60147 0.72264 0.86622 0.0
N921 N 0.60894 0.73612 0.94841 0.0
C922 C 0.63727 0.72308 0.93083 0.0
C923 C 0.63325 0.71609 0.88637 0.0
C924 C 0.77648 0.06656 0.7212 0.0
C925 C 0.75114 0.02174 0.70606 0.0
C926 C 0.78169 0.07522 0.76468 0.0
C927 C 0.76107 0.03942 0.7943 0.0
H928 H 0.79383 0.0948 0.69947 0.0
H929 H 0.80245 0.11032 0.77519 0.0
S930 S 0.68653 0.91653 0.76991 0.0
N931 N 0.70198 0.94142 0.72331 0.0
N932 N 0.7113 0.95803 0.80521 0.0
C933 C 0.73347 0.99474 0.77941 0.0
C934 C 0.7287 0.98583 0.73517 0.0
C935 C 0.08844 0.76656 0.73518 0.0
C936 C 0.05349 0.74196 0.70563 0.0
C937 C 0.07833 0.76705 0.77792 0.0
C938 C 0.03289 0.74391 0.79153 0.0
H939 H 0.12353 0.78627 0.72496 0.0
H940 H 0.10583 0.78701 0.79998 0.0
S941 S 0.93 0.67092 0.72636 0.0
N942 N 0.97279 0.69119 0.69262 0.0
N943 N 0.95311 0.69241 0.77289 0.0
C944 C 0.9979 0.71771 0.76226 0.0
C945 C 1.0084 0.71659 0.71914 0.0
C946 C 0.32979 0.28666 0.72124 0.0
C947 C 0.31428 0.31523 0.70588 0.0
C948 C 0.33255 0.28122 0.76487 0.0
C949 C 0.3206 0.30475 0.7946 0.0
H950 H 0.33811 0.26709 0.69955 0.0
H951 H 0.34401 0.25815 0.77537 0.0
S952 S 0.28214 0.3871 0.76971 0.0
N953 N 0.28954 0.36963 0.72317 0.0
N954 N 0.29558 0.35993 0.80513 0.0
C955 C 0.3071 0.33506 0.77946 0.0
C956 C 0.30367 0.3401 0.73509 0.0
C957 C 1.02488 0.29093 0.2233 0.0
C958 C 0.03427 0.32977 0.20013 0.0
C959 C 1.0166 0.2888 0.26652 0.0
C960 C 1.01826 0.32588 0.28869 0.0
H961 H 1.0255 0.26248 0.20811 0.0
H962 H 1.01009 0.25795 0.28271 0.0
S963 S 0.03923 0.4349 0.24109 0.0
N964 N 0.04276 0.40545 0.20097 0.0
N965 N 0.02755 0.40193 0.28306 0.0
C966 C 1.02592 0.36449 0.26539 0.0
C967 C 0.03385 0.36632 0.22087 0.0
C968 C 0.78471 0.75974 0.26523 0.0
C969 C 0.74883 0.73321 0.29288 0.0
C970 C 0.77702 0.75983 0.22212 0.0
C971 C 0.73311 0.73323 0.20465 0.0
H972 H 0.81928 0.78068 0.27698 0.0
H973 H 0.80601 0.78127 0.20232 0.0
S974 S 0.62756 0.6562 0.26329 0.0
N975 N 0.66777 0.6784 0.30006 0.0
N976 N 0.65313 0.67886 0.21807 0.0
C977 C 0.69675 0.70594 0.23171 0.0
C978 C 0.70461 0.70607 0.27612 0.0
C979 C 0.349 0.07162 0.25826 0.0
C980 C 0.33234 0.03692 0.28908 0.0
C981 C 0.34557 0.06119 0.21512 0.0
C982 C 0.32463 1.01569 0.20156 0.0
H983 H 0.36422 0.10718 0.26753 0.0
H984 H 0.35745 0.08864 0.19235 0.0
S985 S 0.27933 0.91263 0.26926 0.0
N986 N 0.29745 0.95567 0.303 0.0
N987 N 0.29023 0.93578 0.22177 0.0
C988 C 0.30964 0.9808 0.23199 0.0
C989 C 0.31375 0.99148 0.27587 0.0
loop_
_geom_bond_atom_site_label_1
_geom_bond_atom_site_label_2
_geom_bond_distance
_geom_bond_site_symmetry_2
_ccdc_geom_bond_type
Fe0 O2 1.918 . S
Fe0 O5 1.997 . S
Fe0 O6 2.002 . S
Fe0 O11 1.976 . S
Fe0 O14 1.996 . S
Fe1 O2 1.918 . S
Fe1 O9 1.997 . S
Fe1 O12 1.996 . S
Fe1 O16 1.976 1_455 S
Fe1 O19 2.002 1_455 S
O2 Fe0 1.918 . S
O2 Fe1 1.918 . S
O2 Fe3 1.918 1_455 S
Fe3 O2 1.918 1_655 S
Fe3 O4 2.002 . S
Fe3 O13 1.976 . S
Fe3 O17 1.996 . S
Fe3 O20 1.997 . S
O4 Fe3 2.002 . S
O4 C21 1.295 . S
O5 Fe0 1.997 . S
O5 C21 1.235 1_455 S
O6 Fe0 2.002 . S
O6 C7 1.295 . S
C7 O6 1.295 . S
C7 O9 1.235 . S
C8 O13 1.287 1_455 S
C8 O14 1.255 . S
O9 Fe1 1.997 . S
O9 C7 1.235 . S
C10 O16 1.287 . S
C10 O17 1.255 . S
O11 Fe0 1.976 . S
O11 C18 1.287 . S
O12 Fe1 1.996 . S
O12 C18 1.255 . S
O13 Fe3 1.976 . S
O13 C8 1.287 1_655 S
O14 Fe0 1.996 . S
O14 C8 1.255 . S
C15 O19 1.295 . S
C15 O20 1.235 . S
O16 Fe1 1.976 1_655 S
O16 C10 1.287 . S
O17 Fe3 1.996 . S
O17 C10 1.255 . S
C18 O11 1.287 . S
C18 O12 1.255 . S
O19 Fe1 2.002 1_655 S
O19 C15 1.295 . S
O20 Fe3 1.997 . S
O20 C15 1.235 . S
C21 O4 1.295 . S
C21 O5 1.235 1_655 S
Fe22 O24 1.918 . S
Fe22 O27 1.997 . S
Fe22 O28 2.002 . S
Fe22 O33 1.976 . S
Fe22 O36 1.996 . S
Fe23 O24 1.918 . S
Fe23 O31 1.997 . S
Fe23 O34 1.996 . S
Fe23 O38 1.976 . S
Fe23 O41 2.002 . S
O24 Fe22 1.918 . S
O24 Fe23 1.918 . S
O24 Fe25 1.918 . S
Fe25 O24 1.918 . S
Fe25 O26 2.002 . S
Fe25 O35 1.976 . S
Fe25 O39 1.996 . S
Fe25 O42 1.997 . S
O26 Fe25 2.002 . S
O26 C43 1.295 . S
O27 Fe22 1.997 . S
O27 C43 1.235 . S
O28 Fe22 2.002 . S
O28 C29 1.295 . S
C29 O28 1.295 . S
C29 O31 1.235 . S
C30 O35 1.287 . S
C30 O36 1.255 . S
O31 Fe23 1.997 . S
O31 C29 1.235 . S
C32 O38 1.287 . S
C32 O39 1.255 . S
O33 Fe22 1.976 . S
O33 C40 1.287 . S
O34 Fe23 1.996 . S
O34 C40 1.255 . S
O35 Fe25 1.976 . S
O35 C30 1.287 . S
O36 Fe22 1.996 . S
O36 C30 1.255 . S
C37 O41 1.295 . S
C37 O42 1.235 . S
O38 Fe23 1.976 . S
O38 C32 1.287 . S
O39 Fe25 1.996 . S
O39 C32 1.255 . S
C40 O33 1.287 . S
C40 O34 1.255 . S
O41 Fe23 2.002 . S
O41 C37 1.295 . S
O42 Fe25 1.997 . S
O42 C37 1.235 . S
C43 O26 1.295 . S
C43 O27 1.235 . S
Fe44 O46 1.918 . S
Fe44 O49 1.997 . S
Fe44 O50 2.002 . S
Fe44 O55 1.976 . S
Fe44 O58 1.996 . S
Fe45 O46 1.918 1_565 S
Fe45 O53 1.997 . S
Fe45 O56 1.996 . S
Fe45 O60 1.976 . S
Fe45 O63 2.002 . S
O46 Fe44 1.918 . S
O46 Fe45 1.918 1_545 S
O46 Fe47 1.918 . S
Fe47 O46 1.918 . S
Fe47 O48 2.002 . S
Fe47 O57 1.976 . S
Fe47 O61 1.996 1_545 S
Fe47 O64 1.997 1_545 S
O48 Fe47 2.002 . S
O48 C65 1.295 . S
O49 Fe44 1.997 . S
O49 C65 1.235 . S
O50 Fe44 2.002 . S
O50 C51 1.295 . S
C51 O50 1.295 . S
C51 O53 1.235 1_545 S
C52 O57 1.287 . S
C52 O58 1.255 . S
O53 Fe45 1.997 . S
O53 C51 1.235 1_565 S
C54 O60 1.287 . S
C54 O61 1.255 . S
O55 Fe44 1.976 . S
O55 C62 1.287 1_545 S
O56 Fe45 1.996 . S
O56 C62 1.255 . S
O57 Fe47 1.976 . S
O57 C52 1.287 . S
O58 Fe44 1.996 . S
O58 C52 1.255 . S
C59 O63 1.295 . S
C59 O64 1.235 . S
O60 Fe45 1.976 . S
O60 C54 1.287 . S
O61 Fe47 1.996 1_565 S
O61 C54 1.255 . S
C62 O55 1.287 1_565 S
C62 O56 1.255 . S
O63 Fe45 2.002 . S
O63 C59 1.295 . S
O64 Fe47 1.997 1_565 S
O64 C59 1.235 . S
C65 O48 1.295 . S
C65 O49 1.235 . S
Fe66 O68 1.918 . S
Fe66 O71 1.997 . S
Fe66 O72 2.002 . S
Fe66 O77 1.976 . S
Fe66 O80 1.996 . S
Fe67 O68 1.918 1_655 S
Fe67 O75 1.997 . S
Fe67 O78 1.996 . S
Fe67 O82 1.976 . S
Fe67 O85 2.002 . S
O68 Fe66 1.918 . S
O68 Fe67 1.918 1_455 S
O68 Fe69 1.918 . S
Fe69 O68 1.918 . S
Fe69 O70 2.002 . S
Fe69 O79 1.976 . S
Fe69 O83 1.996 1_455 S
Fe69 O86 1.997 1_455 S
O70 Fe69 2.002 . S
O70 C87 1.295 . S
O71 Fe66 1.997 . S
O71 C87 1.235 . S
O72 Fe66 2.002 . S
O72 C73 1.295 . S
C73 O72 1.295 . S
C73 O75 1.235 1_455 S
C74 O79 1.287 . S
C74 O80 1.255 . S
O75 Fe67 1.997 . S
O75 C73 1.235 1_655 S
C76 O82 1.287 . S
C76 O83 1.255 . S
O77 Fe66 1.976 . S
O77 C84 1.287 1_455 S
O78 Fe67 1.996 . S
O78 C84 1.255 . S
O79 Fe69 1.976 . S
O79 C74 1.287 . S
O80 Fe66 1.996 . S
O80 C74 1.255 . S
C81 O85 1.295 . S
C81 O86 1.235 . S
O82 Fe67 1.976 . S
O82 C76 1.287 . S
O83 Fe69 1.996 1_655 S
O83 C76 1.255 . S
C84 O77 1.287 1_655 S
C84 O78 1.255 . S
O85 Fe67 2.002 . S
O85 C81 1.295 . S
O86 Fe69 1.997 1_655 S
O86 C81 1.235 . S
C87 O70 1.295 . S
C87 O71 1.235 . S
Fe88 O90 1.918 . S
Fe88 O93 1.997 . S
Fe88 O94 2.002 . S
Fe88 O99 1.976 . S
Fe88 O102 1.996 . S
Fe89 O90 1.918 . S
Fe89 O97 1.997 . S
Fe89 O100 1.996 . S
Fe89 O104 1.976 . S
Fe89 O107 2.002 . S
O90 Fe88 1.918 . S
O90 Fe89 1.918 . S
O90 Fe91 1.918 . S
Fe91 O90 1.918 . S
Fe91 O92 2.002 . S
Fe91 O101 1.976 . S
Fe91 O105 1.996 . S
Fe91 O108 1.997 . S
O92 Fe91 2.002 . S
O92 C109 1.295 . S
O93 Fe88 1.997 . S
O93 C109 1.235 . S
O94 Fe88 2.002 . S
O94 C95 1.295 . S
C95 O94 1.295 . S
C95 O97 1.235 . S
C96 O101 1.287 . S
C96 O102 1.255 . S
O97 Fe89 1.997 . S
O97 C95 1.235 . S
C98 O104 1.287 . S
C98 O105 1.255 . S
O99 Fe88 1.976 . S
O99 C106 1.287 . S
O100 Fe89 1.996 . S
O100 C106 1.255 . S
O101 Fe91 1.976 . S
O101 C96 1.287 . S
O102 Fe88 1.996 . S
O102 C96 1.255 . S
C103 O107 1.295 . S
C103 O108 1.235 . S
O104 Fe89 1.976 . S
O104 C98 1.287 . S
O105 Fe91 1.996 . S
O105 C98 1.255 . S
C106 O99 1.287 . S
C106 O100 1.255 . S
O107 Fe89 2.002 . S
O107 C103 1.295 . S
O108 Fe91 1.997 . S
O108 C103 1.235 . S
C109 O92 1.295 . S
C109 O93 1.235 . S
Fe110 O112 1.918 . S
Fe110 O115 1.997 . S
Fe110 O116 2.002 . S
Fe110 O121 1.976 . S
Fe110 O124 1.996 . S
Fe111 O112 1.918 . S
Fe111 O119 1.997 . S
Fe111 O122 1.996 . S
Fe111 O126 1.976 1_545 S
Fe111 O129 2.002 1_545 S
O112 Fe110 1.918 . S
O112 Fe111 1.918 . S
O112 Fe113 1.918 1_545 S
Fe113 O112 1.918 1_565 S
Fe113 O114 2.002 . S
Fe113 O123 1.976 . S
Fe113 O127 1.996 . S
Fe113 O130 1.997 . S
O114 Fe113 2.002 . S
O114 C131 1.295 . S
O115 Fe110 1.997 . S
O115 C131 1.235 1_545 S
O116 Fe110 2.002 . S
O116 C117 1.295 . S
C117 O116 1.295 . S
C117 O119 1.235 . S
C118 O123 1.287 1_545 S
C118 O124 1.255 . S
O119 Fe111 1.997 . S
O119 C117 1.235 . S
C120 O126 1.287 . S
C120 O127 1.255 . S
O121 Fe110 1.976 . S
O121 C128 1.287 . S
O122 Fe111 1.996 . S
O122 C128 1.255 . S
O123 Fe113 1.976 . S
O123 C118 1.287 1_565 S
O124 Fe110 1.996 . S
O124 C118 1.255 . S
C125 O129 1.295 . S
C125 O130 1.235 . S
O126 Fe111 1.976 1_565 S
O126 C120 1.287 . S
O127 Fe113 1.996 . S
O127 C120 1.255 . S
C128 O121 1.287 . S
C128 O122 1.255 . S
O129 Fe111 2.002 1_565 S
O129 C125 1.295 . S
O130 Fe113 1.997 . S
O130 C125 1.235 . S
C131 O114 1.295 . S
C131 O115 1.235 1_565 S
Fe132 O134 1.918 . S
Fe132 O137 1.997 . S
Fe132 O138 2.002 . S
Fe132 O143 1.976 . S
Fe132 O146 1.996 . S
Fe133 O134 1.918 . S
Fe133 O141 1.997 1_565 S
Fe133 O144 1.996 1_565 S
Fe133 O148 1.976 . S
Fe133 O151 2.002 . S
O134 Fe132 1.918 . S
O134 Fe133 1.918 . S
O134 Fe135 1.918 . S
Fe135 O134 1.918 . S
Fe135 O136 2.002 . S
Fe135 O145 1.976 . S
Fe135 O149 1.996 . S
Fe135 O152 1.997 . S
O136 Fe135 2.002 . S
O136 C153 1.295 . S
O137 Fe132 1.997 . S
O137 C153 1.235 . S
O138 Fe132 2.002 . S
O138 C139 1.295 . S
C139 O138 1.295 . S
C139 O141 1.235 1_565 S
C140 O145 1.287 . S
C140 O146 1.255 . S
O141 Fe133 1.997 1_545 S
O141 C139 1.235 1_545 S
C142 O148 1.287 . S
C142 O149 1.255 . S
O143 Fe132 1.976 . S
O143 C150 1.287 1_565 S
O144 Fe133 1.996 1_545 S
O144 C150 1.255 . S
O145 Fe135 1.976 . S
O145 C140 1.287 . S
O146 Fe132 1.996 . S
O146 C140 1.255 . S
C147 O151 1.295 . S
C147 O152 1.235 . S
O148 Fe133 1.976 . S
O148 C142 1.287 . S
O149 Fe135 1.996 . S
O149 C142 1.255 . S
C150 O143 1.287 1_545 S
C150 O144 1.255 . S
O151 Fe133 2.002 . S
O151 C147 1.295 . S
O152 Fe135 1.997 . S
O152 C147 1.235 . S
C153 O136 1.295 . S
C153 O137 1.235 . S
Fe154 O156 1.918 . S
Fe154 O159 1.997 . S
Fe154 O160 2.002 . S
Fe154 O165 1.976 . S
Fe154 O168 1.996 . S
Fe155 O156 1.918 . S
Fe155 O163 1.997 . S
Fe155 O166 1.996 . S
Fe155 O170 1.976 . S
Fe155 O173 2.002 . S
O156 Fe154 1.918 . S
O156 Fe155 1.918 . S
O156 Fe157 1.918 . S
Fe157 O156 1.918 . S
Fe157 O158 2.002 . S
Fe157 O167 1.976 . S
Fe157 O171 2.002 . S
Fe157 O174 1.997 . S
O158 Fe157 2.002 . S
O158 C175 1.295 . S
O159 Fe154 1.997 . S
O159 C175 1.235 . S
O160 Fe154 2.002 . S
O160 C161 1.295 . S
C161 O160 1.295 . S
C161 O163 1.235 . S
C162 O167 1.287 . S
C162 O168 1.255 . S
O163 Fe155 1.997 . S
O163 C161 1.235 . S
C164 O170 1.287 . S
C164 O171 1.252 . S
O165 Fe154 1.976 . S
O165 C172 1.287 . S
O166 Fe155 1.996 . S
O166 C172 1.255 . S
O167 Fe157 1.976 . S
O167 C162 1.287 . S
O168 Fe154 1.996 . S
O168 C162 1.255 . S
C169 O173 1.295 . S
C169 O174 1.235 . S
O170 Fe155 1.976 . S
O170 C164 1.287 . S
O171 Fe157 2.002 . S
O171 C164 1.252 . S
C172 O165 1.287 . S
C172 O166 1.255 . S
O173 Fe155 2.002 . S
O173 C169 1.295 . S
O174 Fe157 1.997 . S
O174 C169 1.235 . S
C175 O158 1.295 . S
C175 O159 1.235 . S
Fe176 O178 1.918 . S
Fe176 O181 1.997 . S
Fe176 O182 2.002 . S
Fe176 O187 1.976 . S
Fe176 O190 1.996 . S
Fe177 O178 1.918 . S
Fe177 O185 1.997 . S
Fe177 O188 1.996 . S
Fe177 O192 1.976 . S
Fe177 O195 2.002 . S
O178 Fe176 1.918 . S
O178 Fe177 1.918 . S
O178 Fe179 1.918 . S
Fe179 O178 1.918 . S
Fe179 O180 2.002 . S
Fe179 O189 1.976 . S
Fe179 O193 1.996 . S
Fe179 O196 1.997 . S
O180 Fe179 2.002 . S
O180 C197 1.295 . S
O181 Fe176 1.997 . S
O181 C197 1.235 . S
O182 Fe176 2.002 . S
O182 C183 1.295 . S
C183 O182 1.295 . S
C183 O185 1.235 . S
C184 O189 1.287 . S
C184 O190 1.255 . S
O185 Fe177 1.997 . S
O185 C183 1.235 . S
C186 O192 1.287 . S
C186 O193 1.255 . S
O187 Fe176 1.976 . S
O187 C194 1.287 . S
O188 Fe177 1.996 . S
O188 C194 1.255 . S
O189 Fe179 1.976 . S
O189 C184 1.287 . S
O190 Fe176 1.996 . S
O190 C184 1.255 . S
C191 O195 1.295 . S
C191 O196 1.235 . S
O192 Fe177 1.976 . S
O192 C186 1.287 . S
O193 Fe179 1.996 . S
O193 C186 1.255 . S
C194 O187 1.287 . S
C194 O188 1.255 . S
O195 Fe177 2.002 . S
O195 C191 1.295 . S
O196 Fe179 1.997 . S
O196 C191 1.235 . S
C197 O180 1.295 . S
C197 O181 1.235 . S
Fe198 O200 1.918 . S
Fe198 O203 1.997 . S
Fe198 O204 2.002 . S
Fe198 O209 1.976 . S
Fe198 O212 1.996 . S
Fe199 O200 1.918 . S
Fe199 O207 1.997 . S
Fe199 O210 1.996 . S
Fe199 O214 1.976 . S
Fe199 O217 2.002 . S
O200 Fe198 1.918 . S
O200 Fe199 1.918 . S
O200 Fe201 1.918 . S
Fe201 O200 1.918 . S
Fe201 O202 2.002 . S
Fe201 O211 1.976 . S
Fe201 O215 1.996 . S
Fe201 O218 1.997 . S
O202 Fe201 2.002 . S
O202 C219 1.295 . S
O203 Fe198 1.997 . S
O203 C219 1.235 . S
O204 Fe198 2.002 . S
O204 C205 1.295 . S
C205 O204 1.295 . S
C205 O207 1.235 . S
C206 O211 1.287 . S
C206 O212 1.255 . S
O207 Fe199 1.997 . S
O207 C205 1.235 . S
C208 O214 1.280 1_556 S
C208 O215 1.252 1_556 S
O209 Fe198 1.976 . S
O209 C216 1.287 . S
O210 Fe199 1.996 . S
O210 C216 1.255 . S
O211 Fe201 1.976 . S
O211 C206 1.287 . S
O212 Fe198 1.996 . S
O212 C206 1.255 . S
C213 O217 1.295 . S
C213 O218 1.235 . S
O214 Fe199 1.976 . S
O214 C208 1.280 1_554 S
O215 Fe201 1.996 . S
O215 C208 1.252 1_554 S
C216 O209 1.287 . S
C216 O210 1.255 . S
O217 Fe199 2.002 . S
O217 C213 1.295 . S
O218 Fe201 1.997 . S
O218 C213 1.235 . S
C219 O202 1.295 . S
C219 O203 1.235 . S
Fe220 O222 1.918 . S
Fe220 O225 1.997 . S
Fe220 O226 2.002 . S
Fe220 O231 1.976 . S
Fe220 O234 1.996 . S
Fe221 O222 1.918 . S
Fe221 O229 1.997 . S
Fe221 O232 1.996 . S
Fe221 O236 1.976 . S
Fe221 O239 2.002 . S
O222 Fe220 1.918 . S
O222 Fe221 1.918 . S
O222 Fe223 1.918 . S
Fe223 O222 1.918 . S
Fe223 O224 2.002 . S
Fe223 O233 1.976 . S
Fe223 O237 1.996 1_565 S
Fe223 O240 1.997 1_565 S
O224 Fe223 2.002 . S
O224 C241 1.295 . S
O225 Fe220 1.997 . S
O225 C241 1.235 . S
O226 Fe220 2.002 . S
O226 C227 1.295 . S
C227 O226 1.295 . S
C227 O229 1.235 . S
C228 O233 1.285 . S
C228 O234 1.254 . S
O229 Fe221 1.997 . S
O229 C227 1.235 . S
C230 O236 1.287 1_545 S
C230 O237 1.255 . S
O231 Fe220 1.976 . S
O231 C238 1.287 . S
O232 Fe221 1.996 . S
O232 C238 1.255 . S
O233 Fe223 1.976 . S
O233 C228 1.285 . S
O234 Fe220 1.996 . S
O234 C228 1.254 . S
C235 O239 1.295 . S
C235 O240 1.235 1_565 S
O236 Fe221 1.976 . S
O236 C230 1.287 1_565 S
O237 Fe223 1.996 1_545 S
O237 C230 1.255 . S
C238 O231 1.287 . S
C238 O232 1.255 . S
O239 Fe221 2.002 . S
O239 C235 1.295 . S
O240 Fe223 1.997 1_545 S
O240 C235 1.235 1_545 S
C241 O224 1.295 . S
C241 O225 1.235 . S
Fe242 O244 1.918 . S
Fe242 O247 1.997 . S
Fe242 O248 2.002 . S
Fe242 O253 1.976 . S
Fe242 O256 2.000 . S
Fe243 O244 1.918 . S
Fe243 O251 1.997 . S
Fe243 O254 1.996 . S
Fe243 O258 1.976 . S
Fe243 O261 2.002 . S
O244 Fe242 1.918 . S
O244 Fe243 1.918 . S
O244 Fe245 1.918 . S
Fe245 O244 1.918 . S
Fe245 O246 2.002 . S
Fe245 O255 1.976 . S
Fe245 O259 1.996 . S
Fe245 O262 1.997 . S
O246 Fe245 2.002 . S
O246 C263 1.295 . S
O247 Fe242 1.997 . S
O247 C263 1.235 . S
O248 Fe242 2.002 . S
O248 C249 1.295 . S
C249 O248 1.295 . S
C249 O251 1.235 . S
C250 O255 1.287 . S
C250 O256 1.274 . S
O251 Fe243 1.997 . S
O251 C249 1.235 . S
C252 O258 1.287 . S
C252 O259 1.255 . S
O253 Fe242 1.976 . S
O253 C260 1.279 1_554 S
O254 Fe243 1.996 . S
O254 C260 1.251 1_554 S
O255 Fe245 1.976 . S
O255 C250 1.287 . S
O256 Fe242 2.000 . S
O256 C250 1.274 . S
C257 O261 1.295 . S
C257 O262 1.235 . S
O258 Fe243 1.976 . S
O258 C252 1.287 . S
O259 Fe245 1.996 . S
O259 C252 1.255 . S
C260 O253 1.279 1_556 S
C260 O254 1.251 1_556 S
O261 Fe243 2.002 . S
O261 C257 1.295 . S
O262 Fe245 1.997 . S
O262 C257 1.235 . S
C263 O246 1.295 . S
C263 O247 1.235 . S
Fe264 O266 1.918 . S
Fe264 O269 1.997 . S
Fe264 O270 2.002 . S
Fe264 O275 1.976 . S
Fe264 O278 1.996 . S
Fe265 O266 1.918 . S
Fe265 O273 1.997 . S
Fe265 O276 1.996 . S
Fe265 O280 1.976 . S
Fe265 O283 2.002 . S
O266 Fe264 1.918 . S
O266 Fe265 1.918 . S
O266 Fe267 1.918 . S
Fe267 O266 1.918 . S
Fe267 O268 2.002 . S
Fe267 O277 1.976 . S
Fe267 O281 1.996 . S
Fe267 O284 1.997 . S
O268 Fe267 2.002 . S
O268 C285 1.295 . S
O269 Fe264 1.997 . S
O269 C285 1.235 . S
O270 Fe264 2.002 . S
O270 C271 1.295 . S
C271 O270 1.295 . S
C271 O273 1.235 . S
C272 O277 1.287 . S
C272 O278 1.255 . S
O273 Fe265 1.997 . S
O273 C271 1.235 . S
C274 O280 1.287 . S
C274 O281 1.255 . S
O275 Fe264 1.976 . S
O275 C282 1.287 . S
O276 Fe265 1.996 . S
O276 C282 1.255 . S
O277 Fe267 1.976 . S
O277 C272 1.287 . S
O278 Fe264 1.996 . S
O278 C272 1.255 . S
C279 O283 1.295 . S
C279 O284 1.235 . S
O280 Fe265 1.976 . S
O280 C274 1.287 . S
O281 Fe267 1.996 . S
O281 C274 1.255 . S
C282 O275 1.287 . S
C282 O276 1.255 . S
O283 Fe265 2.002 . S
O283 C279 1.295 . S
O284 Fe267 1.997 . S
O284 C279 1.235 . S
C285 O268 1.295 . S
C285 O269 1.235 . S
Fe286 O288 1.918 . S
Fe286 O291 1.997 . S
Fe286 O292 2.002 . S
Fe286 O297 1.976 . S
Fe286 O300 1.996 . S
Fe287 O288 1.918 . S
Fe287 O295 1.997 . S
Fe287 O298 1.996 . S
Fe287 O302 1.976 . S
Fe287 O305 2.002 . S
O288 Fe286 1.918 . S
O288 Fe287 1.918 . S
O288 Fe289 1.918 . S
Fe289 O288 1.918 . S
Fe289 O290 2.002 . S
Fe289 O299 1.976 . S
Fe289 O303 1.983 1_545 S
Fe289 O306 1.997 . S
O290 Fe289 2.002 . S
O290 C307 1.295 . S
O291 Fe286 1.997 . S
O291 C307 1.235 . S
O292 Fe286 2.002 . S
O292 C293 1.295 . S
C293 O292 1.295 . S
C293 O295 1.235 . S
C294 O299 1.278 1_554 S
C294 O300 1.251 1_554 S
O295 Fe287 1.997 . S
O295 C293 1.235 . S
C296 O302 1.287 . S
C296 O303 1.260 1_545 S
O297 Fe286 1.976 . S
O297 C304 1.287 . S
O298 Fe287 1.996 . S
O298 C304 1.255 . S
O299 Fe289 1.976 . S
O299 C294 1.278 1_556 S
O300 Fe286 1.996 . S
O300 C294 1.251 1_556 S
C301 O305 1.295 . S
C301 O306 1.235 . S
O302 Fe287 1.976 . S
O302 C296 1.287 . S
O303 Fe289 1.983 1_565 S
O303 C296 1.260 1_565 S
C304 O297 1.287 . S
C304 O298 1.255 . S
O305 Fe287 2.002 . S
O305 C301 1.295 . S
O306 Fe289 1.997 . S
O306 C301 1.235 . S
C307 O290 1.295 . S
C307 O291 1.235 . S
Fe308 O310 1.918 . S
Fe308 O313 1.997 . S
Fe308 O314 2.002 1_655 S
Fe308 O319 1.975 1_655 S
Fe308 O322 1.996 . S
Fe309 O310 1.918 . S
Fe309 O317 1.997 . S
Fe309 O320 1.996 . S
Fe309 O324 1.976 . S
Fe309 O327 2.002 . S
O310 Fe308 1.918 . S
O310 Fe309 1.918 . S
O310 Fe311 1.918 . S
Fe311 O310 1.918 . S
Fe311 O312 2.002 . S
Fe311 O321 1.976 . S
Fe311 O325 1.996 . S
Fe311 O328 1.997 . S
O312 Fe311 2.002 . S
O312 C329 1.295 . S
O313 Fe308 1.997 . S
O313 C329 1.235 . S
O314 Fe308 2.002 1_455 S
O314 C315 1.295 . S
C315 O314 1.295 . S
C315 O317 1.235 1_455 S
C316 O321 1.287 . S
C316 O322 1.255 . S
O317 Fe309 1.997 . S
O317 C315 1.235 1_655 S
C318 O324 1.287 . S
C318 O325 1.255 . S
O319 Fe308 1.975 1_455 S
O319 C326 1.281 1_455 S
O320 Fe309 1.996 . S
O320 C326 1.255 . S
O321 Fe311 1.976 . S
O321 C316 1.287 . S
O322 Fe308 1.996 . S
O322 C316 1.255 . S
C323 O327 1.295 . S
C323 O328 1.235 . S
O324 Fe309 1.976 . S
O324 C318 1.287 . S
O325 Fe311 1.996 . S
O325 C318 1.255 . S
C326 O319 1.281 1_655 S
C326 O320 1.255 . S
O327 Fe309 2.002 . S
O327 C323 1.295 . S
O328 Fe311 1.997 . S
O328 C323 1.235 . S
C329 O312 1.295 . S
C329 O313 1.235 . S
Fe330 O332 1.918 . S
Fe330 O335 1.997 . S
Fe330 O336 2.002 . S
Fe330 O341 1.976 . S
Fe330 O344 1.993 1_545 S
Fe331 O332 1.918 . S
Fe331 O339 1.997 . S
Fe331 O342 1.996 . S
Fe331 O346 1.976 . S
Fe331 O349 2.002 . S
O332 Fe330 1.918 . S
O332 Fe331 1.918 . S
O332 Fe333 1.918 . S
Fe333 O332 1.918 . S
Fe333 O334 2.002 . S
Fe333 O343 1.976 . S
Fe333 O347 1.996 . S
Fe333 O350 1.997 . S
O334 Fe333 2.002 . S
O334 C351 1.295 . S
O335 Fe330 1.997 . S
O335 C351 1.235 . S
O336 Fe330 2.002 . S
O336 C337 1.295 . S
C337 O336 1.295 . S
C337 O339 1.235 . S
C338 O343 1.287 . S
C338 O344 1.243 1_545 S
O339 Fe331 1.997 . S
O339 C337 1.235 . S
C340 O346 1.287 . S
C340 O347 1.255 . S
O341 Fe330 1.976 . S
O341 C348 1.287 . S
O342 Fe331 1.996 . S
O342 C348 1.255 . S
O343 Fe333 1.976 . S
O343 C338 1.287 . S
O344 Fe330 1.993 1_565 S
O344 C338 1.243 1_565 S
C345 O349 1.295 . S
C345 O350 1.235 . S
O346 Fe331 1.976 . S
O346 C340 1.287 . S
O347 Fe333 1.996 . S
O347 C340 1.255 . S
C348 O341 1.287 . S
C348 O342 1.255 . S
O349 Fe331 2.002 . S
O349 C345 1.295 . S
O350 Fe333 1.997 . S
O350 C345 1.235 . S
C351 O334 1.295 . S
C351 O335 1.235 . S
Fe352 O354 1.918 . S
Fe352 O357 1.997 . S
Fe352 O358 2.002 . S
Fe352 O363 1.976 . S
Fe352 O366 1.996 . S
Fe353 O354 1.918 . S
Fe353 O361 1.997 . S
Fe353 O364 1.996 . S
Fe353 O368 1.971 1_655 S
Fe353 O371 2.002 1_655 S
O354 Fe352 1.918 . S
O354 Fe353 1.918 . S
O354 Fe355 1.918 . S
Fe355 O354 1.918 . S
Fe355 O356 2.002 . S
Fe355 O365 1.976 . S
Fe355 O369 1.996 . S
Fe355 O372 1.997 . S
O356 Fe355 2.002 . S
O356 C373 1.295 . S
O357 Fe352 1.997 . S
O357 C373 1.235 . S
O358 Fe352 2.002 . S
O358 C359 1.295 . S
C359 O358 1.295 . S
C359 O361 1.235 . S
C360 O365 1.287 . S
C360 O366 1.255 . S
O361 Fe353 1.997 . S
O361 C359 1.235 . S
C362 O368 1.289 1_655 S
C362 O369 1.255 . S
O363 Fe352 1.976 . S
O363 C370 1.287 . S
O364 Fe353 1.996 . S
O364 C370 1.255 . S
O365 Fe355 1.976 . S
O365 C360 1.287 . S
O366 Fe352 1.996 . S
O366 C360 1.255 . S
C367 O371 1.295 . S
C367 O372 1.235 1_455 S
O368 Fe353 1.971 1_455 S
O368 C362 1.289 1_455 S
O369 Fe355 1.996 . S
O369 C362 1.255 . S
C370 O363 1.287 . S
C370 O364 1.255 . S
O371 Fe353 2.002 1_455 S
O371 C367 1.295 . S
O372 Fe355 1.997 . S
O372 C367 1.235 1_655 S
C373 O356 1.295 . S
C373 O357 1.235 . S
Fe374 O376 1.918 . S
Fe374 O379 1.997 . S
Fe374 O380 2.002 . S
Fe374 O385 1.976 . S
Fe374 O388 1.996 . S
Fe375 O376 1.918 . S
Fe375 O383 1.997 . S
Fe375 O386 1.996 . S
Fe375 O390 1.976 . S
Fe375 O393 2.002 . S
O376 Fe374 1.918 . S
O376 Fe375 1.918 . S
O376 Fe377 1.918 . S
Fe377 O376 1.918 . S
Fe377 O378 2.002 . S
Fe377 O387 1.976 . S
Fe377 O391 1.996 . S
Fe377 O394 1.997 . S
O378 Fe377 2.002 . S
O378 C395 1.295 . S
O379 Fe374 1.997 . S
O379 C395 1.235 . S
O380 Fe374 2.002 . S
O380 C381 1.295 . S
C381 O380 1.295 . S
C381 O383 1.235 . S
C382 O387 1.287 . S
C382 O388 1.255 . S
O383 Fe375 1.997 . S
O383 C381 1.235 . S
C384 O390 1.287 . S
C384 O391 1.255 . S
O385 Fe374 1.976 . S
O385 C392 1.287 . S
O386 Fe375 1.996 . S
O386 C392 1.255 . S
O387 Fe377 1.976 . S
O387 C382 1.287 . S
O388 Fe374 1.996 . S
O388 C382 1.255 . S
C389 O393 1.295 . S
C389 O394 1.235 . S
O390 Fe375 1.976 . S
O390 C384 1.287 . S
O391 Fe377 1.996 . S
O391 C384 1.255 . S
C392 O385 1.287 . S
C392 O386 1.255 . S
O393 Fe375 2.002 . S
O393 C389 1.295 . S
O394 Fe377 1.997 . S
O394 C389 1.235 . S
C395 O378 1.295 . S
C395 O379 1.235 . S
C396 C397 1.369 . S
C396 C398 1.419 . S
C396 H400 0.930 . S
C397 C396 1.369 . S
C397 C406 1.429 . S
C398 C396 1.419 . S
C398 C399 1.363 . S
C398 H401 0.929 . S
C399 C398 1.363 . S
C399 C405 1.428 . S
H400 C396 0.930 . S
H401 C398 0.929 . S
S402 N403 1.613 . S
S402 N404 1.610 . S
N403 S402 1.613 . S
N403 C406 1.350 . S
N404 S402 1.610 . S
N404 C405 1.351 . S
C405 C399 1.428 . S
C405 N404 1.351 . S
C405 C406 1.434 . S
C406 C397 1.429 . S
C406 N403 1.350 . S
C406 C405 1.434 . S
C407 C408 1.369 . S
C407 C409 1.419 . S
C407 H411 0.930 . S
C408 C407 1.369 . S
C408 C417 1.429 . S
C409 C407 1.419 . S
C409 C410 1.363 . S
C409 H412 0.929 . S
C410 C409 1.363 . S
C410 C416 1.428 . S
H411 C407 0.930 . S
H412 C409 0.929 . S
S413 N414 1.613 . S
S413 N415 1.610 . S
N414 S413 1.613 . S
N414 C417 1.350 . S
N415 S413 1.610 . S
N415 C416 1.351 . S
C416 C410 1.428 . S
C416 N415 1.351 . S
C416 C417 1.434 . S
C417 C408 1.429 . S
C417 N414 1.350 . S
C417 C416 1.434 . S
C418 C419 1.369 . S
C418 C420 1.419 . S
C418 H422 0.930 1_565 S
C419 C418 1.369 . S
C419 C428 1.429 . S
C420 C418 1.419 . S
C420 C421 1.363 . S
C420 H423 0.929 . S
C421 C420 1.363 . S
C421 C427 1.428 . S
H422 C418 0.930 1_545 S
H423 C420 0.929 . S
S424 N425 1.613 . S
S424 N426 1.610 . S
N425 S424 1.613 . S
N425 C428 1.350 . S
N426 S424 1.610 . S
N426 C427 1.351 . S
C427 C421 1.428 . S
C427 N426 1.351 . S
C427 C428 1.434 . S
C428 C419 1.429 . S
C428 N425 1.350 . S
C428 C427 1.434 . S
C429 C430 1.369 . S
C429 C431 1.419 . S
C429 H433 0.930 . S
C430 C429 1.369 . S
C430 C439 1.429 . S
C431 C429 1.419 . S
C431 C432 1.363 . S
C431 H434 0.929 . S
C432 C431 1.363 . S
C432 C438 1.428 . S
H433 C429 0.930 . S
H434 C431 0.929 . S
S435 N436 1.613 1_565 S
S435 N437 1.610 . S
N436 S435 1.613 1_545 S
N436 C439 1.350 . S
N437 S435 1.610 . S
N437 C438 1.351 1_565 S
C438 C432 1.428 . S
C438 N437 1.351 1_545 S
C438 C439 1.434 . S
C439 C430 1.429 . S
C439 N436 1.350 . S
C439 C438 1.434 . S
C440 C441 1.369 . S
C440 C442 1.419 . S
C440 H444 0.930 . S
C441 C440 1.369 . S
C441 C450 1.429 . S
C442 C440 1.419 . S
C442 C443 1.363 . S
C442 H445 0.929 . S
C443 C442 1.363 . S
C443 C449 1.428 . S
H444 C440 0.930 . S
H445 C442 0.929 . S
S446 N447 1.613 . S
S446 N448 1.610 . S
N447 S446 1.613 . S
N447 C450 1.350 1_455 S
N448 S446 1.610 . S
N448 C449 1.351 1_455 S
C449 C443 1.428 . S
C449 N448 1.351 1_655 S
C449 C450 1.434 . S
C450 C441 1.429 . S
C450 N447 1.350 1_655 S
C450 C449 1.434 . S
C451 C452 1.369 . S
C451 C453 1.419 . S
C451 H455 0.930 . S
C452 C451 1.369 . S
C452 C461 1.429 . S
C453 C451 1.419 . S
C453 C454 1.363 . S
C453 H456 0.929 . S
C454 C453 1.363 . S
C454 C460 1.428 . S
H455 C451 0.930 . S
H456 C453 0.929 . S
S457 N458 1.613 . S
S457 N459 1.610 . S
N458 S457 1.613 . S
N458 C461 1.350 . S
N459 S457 1.610 . S
N459 C460 1.351 . S
C460 C454 1.428 . S
C460 N459 1.351 . S
C460 C461 1.434 . S
C461 C452 1.429 . S
C461 N458 1.350 . S
C461 C460 1.434 . S
C462 C463 1.369 . S
C462 C464 1.419 . S
C462 H466 0.930 . S
C463 C462 1.369 . S
C463 C472 1.429 . S
C464 C462 1.419 . S
C464 C465 1.363 . S
C464 H467 0.929 . S
C465 C464 1.363 . S
C465 C471 1.428 . S
H466 C462 0.930 . S
H467 C464 0.929 . S
S468 N469 1.613 1_455 S
S468 N470 1.610 . S
N469 S468 1.613 1_655 S
N469 C472 1.350 . S
N470 S468 1.610 . S
N470 C471 1.351 1_455 S
C471 C465 1.428 . S
C471 N470 1.351 1_655 S
C471 C472 1.434 . S
C472 C463 1.429 . S
C472 N469 1.350 . S
C472 C471 1.434 . S
C473 C474 1.369 . S
C473 C475 1.419 . S
C473 H477 0.930 . S
C474 C473 1.369 . S
C474 C483 1.429 . S
C475 C473 1.419 . S
C475 C476 1.363 . S
C475 H478 0.929 . S
C476 C475 1.363 . S
C476 C482 1.428 . S
H477 C473 0.930 . S
H478 C475 0.929 . S
S479 N480 1.613 . S
S479 N481 1.610 . S
N480 S479 1.613 . S
N480 C483 1.350 . S
N481 S479 1.610 . S
N481 C482 1.351 . S
C482 C476 1.428 . S
C482 N481 1.351 . S
C482 C483 1.434 . S
C483 C474 1.429 . S
C483 N480 1.350 . S
C483 C482 1.434 . S
C484 C485 1.369 . S
C484 C486 1.419 . S
C484 H488 0.930 . S
C485 C484 1.369 . S
C485 C494 1.429 . S
C486 C484 1.419 . S
C486 C487 1.363 . S
C486 H489 0.929 . S
C487 C486 1.363 . S
C487 C493 1.428 . S
H488 C484 0.930 . S
H489 C486 0.929 . S
S490 N491 1.613 . S
S490 N492 1.610 . S
N491 S490 1.613 . S
N491 C494 1.350 . S
N492 S490 1.610 . S
N492 C493 1.351 . S
C493 C487 1.428 . S
C493 N492 1.351 . S
C493 C494 1.434 . S
C494 C485 1.429 . S
C494 N491 1.350 . S
C494 C493 1.434 . S
C495 C496 1.369 . S
C495 C497 1.419 . S
C495 H499 0.930 . S
C496 C495 1.369 . S
C496 C505 1.429 . S
C497 C495 1.419 . S
C497 C498 1.363 . S
C497 H500 0.929 . S
C498 C497 1.363 . S
C498 C504 1.428 . S
H499 C495 0.930 . S
H500 C497 0.929 . S
S501 N502 1.613 . S
S501 N503 1.610 . S
N502 S501 1.613 . S
N502 C505 1.350 1_545 S
N503 S501 1.610 . S
N503 C504 1.351 1_545 S
C504 C498 1.428 . S
C504 N503 1.351 1_565 S
C504 C505 1.434 . S
C505 C496 1.429 . S
C505 N502 1.350 1_565 S
C505 C504 1.434 . S
C506 C507 1.369 . S
C506 C508 1.419 . S
C506 H510 0.930 . S
C507 C506 1.369 . S
C507 C516 1.429 . S
C508 C506 1.419 . S
C508 C509 1.363 . S
C508 H511 0.929 . S
C509 C508 1.363 . S
C509 C515 1.428 . S
H510 C506 0.930 . S
H511 C508 0.929 . S
S512 N513 1.611 1_655 S
S512 N514 1.608 1_655 S
N513 S512 1.611 1_455 S
N513 C516 1.350 . S
N514 S512 1.608 1_455 S
N514 C515 1.351 . S
C515 C509 1.428 . S
C515 N514 1.351 . S
C515 C516 1.434 . S
C516 C507 1.429 . S
C516 N513 1.350 . S
C516 C515 1.434 . S
C517 C518 1.369 . S
C517 C519 1.419 . S
C517 H521 0.930 . S
C518 C517 1.369 . S
C518 C527 1.429 . S
C519 C517 1.419 . S
C519 C520 1.363 . S
C519 H522 0.929 . S
C520 C519 1.363 . S
C520 C526 1.428 . S
H521 C517 0.930 . S
H522 C519 0.929 . S
S523 N524 1.613 . S
S523 N525 1.610 . S
N524 S523 1.613 . S
N524 C527 1.350 . S
N525 S523 1.610 . S
N525 C526 1.351 . S
C526 C520 1.428 . S
C526 N525 1.351 . S
C526 C527 1.434 . S
C527 C518 1.429 . S
C527 N524 1.350 . S
C527 C526 1.434 . S
C528 C529 1.369 . S
C528 C530 1.419 . S
C528 H532 0.930 . S
C529 C528 1.369 . S
C529 C538 1.429 . S
C530 C528 1.419 . S
C530 C531 1.363 . S
C530 H533 0.929 . S
C531 C530 1.363 . S
C531 C537 1.428 . S
H532 C528 0.930 . S
H533 C530 0.929 . S
S534 N535 1.613 . S
S534 N536 1.610 . S
N535 S534 1.613 . S
N535 C538 1.350 . S
N536 S534 1.610 . S
N536 C537 1.351 . S
C537 C531 1.428 . S
C537 N536 1.351 . S
C537 C538 1.434 . S
C538 C529 1.429 . S
C538 N535 1.350 . S
C538 C537 1.434 . S
C539 C540 1.369 . S
C539 C541 1.419 . S
C539 H543 0.930 . S
C540 C539 1.369 . S
C540 C549 1.429 . S
C541 C539 1.419 . S
C541 C542 1.363 . S
C541 H544 0.929 . S
C542 C541 1.363 . S
C542 C548 1.428 . S
H543 C539 0.930 . S
H544 C541 0.929 . S
S545 N546 1.613 . S
S545 N547 1.610 . S
N546 S545 1.613 . S
N546 C549 1.350 . S
N547 S545 1.610 . S
N547 C548 1.351 . S
C548 C542 1.428 . S
C548 N547 1.351 . S
C548 C549 1.434 . S
C549 C540 1.429 . S
C549 N546 1.350 . S
C549 C548 1.434 . S
C550 C551 1.369 . S
C550 C552 1.419 . S
C550 H554 0.930 . S
C551 C550 1.369 . S
C551 C560 1.429 . S
C552 C550 1.419 . S
C552 C553 1.363 . S
C552 H555 0.929 . S
C553 C552 1.363 . S
C553 C559 1.428 . S
H554 C550 0.930 . S
H555 C552 0.929 . S
S556 N557 1.613 . S
S556 N558 1.610 . S
N557 S556 1.613 . S
N557 C560 1.350 . S
N558 S556 1.610 . S
N558 C559 1.351 . S
C559 C553 1.428 . S
C559 N558 1.351 . S
C559 C560 1.434 . S
C560 C551 1.429 . S
C560 N557 1.350 . S
C560 C559 1.434 . S
C561 C562 1.369 . S
C561 C563 1.419 . S
C561 H565 0.930 . S
C562 C561 1.369 . S
C562 C571 1.429 . S
C563 C561 1.419 . S
C563 C564 1.363 . S
C563 H566 0.929 . S
C564 C563 1.363 . S
C564 C570 1.428 . S
H565 C561 0.930 . S
H566 C563 0.929 . S
S567 N568 1.613 . S
S567 N569 1.610 . S
N568 S567 1.613 . S
N568 C571 1.350 . S
N569 S567 1.610 . S
N569 C570 1.351 . S
C570 C564 1.428 . S
C570 N569 1.351 . S
C570 C571 1.434 . S
C571 C562 1.429 . S
C571 N568 1.350 . S
C571 C570 1.434 . S
C572 C573 1.369 . S
C572 C574 1.419 . S
C572 H576 0.930 . S
C573 C572 1.369 . S
C573 C582 1.429 . S
C574 C572 1.419 . S
C574 C575 1.363 . S
C574 H577 0.929 . S
C575 C574 1.363 . S
C575 C581 1.428 . S
H576 C572 0.930 . S
H577 C574 0.929 . S
S578 N579 1.613 . S
S578 N580 1.610 . S
N579 S578 1.613 . S
N579 C582 1.350 . S
N580 S578 1.610 . S
N580 C581 1.351 . S
C581 C575 1.428 . S
C581 N580 1.351 . S
C581 C582 1.434 . S
C582 C573 1.429 . S
C582 N579 1.350 . S
C582 C581 1.434 . S
C583 C584 1.369 . S
C583 C585 1.419 . S
C583 H587 0.930 . S
C584 C583 1.369 . S
C584 C593 1.429 . S
C585 C583 1.419 . S
C585 C586 1.363 . S
C585 H588 0.929 . S
C586 C585 1.363 . S
C586 C592 1.428 . S
H587 C583 0.930 . S
H588 C585 0.929 . S
S589 N590 1.613 . S
S589 N591 1.610 . S
N590 S589 1.613 . S
N590 C593 1.350 . S
N591 S589 1.610 . S
N591 C592 1.351 . S
C592 C586 1.428 . S
C592 N591 1.351 . S
C592 C593 1.434 . S
C593 C584 1.429 . S
C593 N590 1.350 . S
C593 C592 1.434 . S
C594 C595 1.369 . S
C594 C596 1.419 . S
C594 H598 0.930 . S
C595 C594 1.369 . S
C595 C604 1.429 . S
C596 C594 1.419 . S
C596 C597 1.363 . S
C596 H599 0.929 . S
C597 C596 1.363 . S
C597 C603 1.428 . S
H598 C594 0.930 . S
H599 C596 0.929 . S
S600 N601 1.613 . S
S600 N602 1.610 . S
N601 S600 1.613 . S
N601 C604 1.350 . S
N602 S600 1.610 . S
N602 C603 1.351 . S
C603 C597 1.428 . S
C603 N602 1.351 . S
C603 C604 1.434 . S
C604 C595 1.429 . S
C604 N601 1.350 . S
C604 C603 1.434 . S
C605 C606 1.369 . S
C605 C607 1.419 . S
C605 H609 0.930 . S
C606 C605 1.369 . S
C606 C615 1.429 . S
C607 C605 1.419 . S
C607 C608 1.363 . S
C607 H610 0.929 . S
C608 C607 1.363 . S
C608 C614 1.428 . S
H609 C605 0.930 . S
H610 C607 0.929 . S
S611 N612 1.613 . S
S611 N613 1.610 . S
N612 S611 1.613 . S
N612 C615 1.350 . S
N613 S611 1.610 . S
N613 C614 1.351 . S
C614 C608 1.428 . S
C614 N613 1.351 . S
C614 C615 1.434 . S
C615 C606 1.429 . S
C615 N612 1.350 . S
C615 C614 1.434 . S
C616 C617 1.369 . S
C616 C618 1.419 . S
C616 H620 0.930 . S
C617 C616 1.369 . S
C617 C626 1.429 . S
C618 C616 1.419 . S
C618 C619 1.363 . S
C618 H621 0.929 . S
C619 C618 1.363 . S
C619 C625 1.428 . S
H620 C616 0.930 . S
H621 C618 0.929 . S
S622 N623 1.613 . S
S622 N624 1.610 . S
N623 S622 1.613 . S
N623 C626 1.350 . S
N624 S622 1.610 . S
N624 C625 1.351 . S
C625 C619 1.428 . S
C625 N624 1.351 . S
C625 C626 1.434 . S
C626 C617 1.429 . S
C626 N623 1.350 . S
C626 C625 1.434 . S
C627 C628 1.369 . S
C627 C629 1.419 1_554 S
C627 H631 0.930 . S
C628 C627 1.369 . S
C628 C637 1.429 1_554 S
C629 C627 1.419 1_556 S
C629 C630 1.363 . S
C629 H632 0.929 1_556 S
C630 C629 1.363 . S
C630 C636 1.428 . S
H631 C627 0.930 . S
H632 C629 0.929 1_554 S
S633 N634 1.613 . S
S633 N635 1.610 . S
N634 S633 1.613 . S
N634 C637 1.350 . S
N635 S633 1.610 . S
N635 C636 1.351 . S
C636 C630 1.428 . S
C636 N635 1.351 . S
C636 C637 1.434 . S
C637 C628 1.429 1_556 S
C637 N634 1.350 . S
C637 C636 1.434 . S
C638 C639 1.369 . S
C638 C640 1.421 . S
C638 H642 0.930 . S
C639 C638 1.369 . S
C639 C648 1.429 1_554 S
C640 C638 1.421 . S
C640 C641 1.359 1_554 S
C640 H643 0.931 . S
C641 C640 1.359 1_556 S
C641 C647 1.428 . S
H642 C638 0.930 . S
H643 C640 0.931 . S
S644 N645 1.613 . S
S644 N646 1.610 . S
N645 S644 1.613 . S
N645 C648 1.350 . S
N646 S644 1.610 . S
N646 C647 1.351 . S
C647 C641 1.428 . S
C647 N646 1.351 . S
C647 C648 1.434 . S
C648 C639 1.429 1_556 S
C648 N645 1.350 . S
C648 C647 1.434 . S
C649 C650 1.369 1_556 S
C649 C651 1.419 . S
C649 H653 0.930 . S
C650 C649 1.369 1_554 S
C650 C659 1.429 . S
C651 C649 1.419 . S
C651 C652 1.363 . S
C651 H654 0.929 . S
C652 C651 1.363 . S
C652 C658 1.428 1_556 S
H653 C649 0.930 . S
H654 C651 0.929 . S
S655 N656 1.613 . S
S655 N657 1.610 . S
N656 S655 1.613 . S
N656 C659 1.350 . S
N657 S655 1.610 . S
N657 C658 1.351 . S
C658 C652 1.428 1_554 S
C658 N657 1.351 . S
C658 C659 1.434 . S
C659 C650 1.429 . S
C659 N656 1.350 . S
C659 C658 1.434 . S
C660 C661 1.369 . S
C660 C662 1.419 . S
C660 H664 0.930 . S
C661 C660 1.369 . S
C661 C670 1.429 . S
C662 C660 1.419 . S
C662 C663 1.363 . S
C662 H665 0.929 . S
C663 C662 1.363 . S
C663 C669 1.428 . S
H664 C660 0.930 . S
H665 C662 0.929 . S
S666 N667 1.613 . S
S666 N668 1.610 . S
N667 S666 1.613 . S
N667 C670 1.350 . S
N668 S666 1.610 . S
N668 C669 1.351 . S
C669 C663 1.428 . S
C669 N668 1.351 . S
C669 C670 1.434 . S
C670 C661 1.429 . S
C670 N667 1.350 . S
C670 C669 1.434 . S
C671 C672 1.369 . S
C671 C673 1.419 . S
C671 H675 0.930 . S
C672 C671 1.369 . S
C672 C681 1.429 . S
C673 C671 1.419 . S
C673 C674 1.363 . S
C673 H676 0.929 . S
C674 C673 1.363 . S
C674 C680 1.428 . S
H675 C671 0.930 . S
H676 C673 0.929 . S
S677 N678 1.613 . S
S677 N679 1.610 . S
N678 S677 1.613 . S
N678 C681 1.350 . S
N679 S677 1.610 . S
N679 C680 1.351 . S
C680 C674 1.428 . S
C680 N679 1.351 . S
C680 C681 1.434 . S
C681 C672 1.429 . S
C681 N678 1.350 . S
C681 C680 1.434 . S
C682 C683 1.369 . S
C682 C684 1.419 . S
C682 H686 0.930 . S
C683 C682 1.369 . S
C683 C692 1.429 . S
C684 C682 1.419 . S
C684 C685 1.363 . S
C684 H687 0.929 . S
C685 C684 1.363 . S
C685 C691 1.428 . S
H686 C682 0.930 . S
H687 C684 0.929 . S
S688 N689 1.613 . S
S688 N690 1.610 . S
N689 S688 1.613 . S
N689 C692 1.350 . S
N690 S688 1.610 . S
N690 C691 1.351 . S
C691 C685 1.428 . S
C691 N690 1.351 . S
C691 C692 1.434 . S
C692 C683 1.429 . S
C692 N689 1.350 . S
C692 C691 1.434 . S
C693 C694 1.369 1_554 S
C693 C695 1.419 . S
C693 H697 0.930 . S
C694 C693 1.369 1_556 S
C694 C703 1.429 . S
C695 C693 1.419 . S
C695 C696 1.363 . S
C695 H698 0.929 . S
C696 C695 1.363 . S
C696 C702 1.428 1_554 S
H697 C693 0.930 . S
H698 C695 0.929 . S
S699 N700 1.613 . S
S699 N701 1.610 . S
N700 S699 1.613 . S
N700 C703 1.350 . S
N701 S699 1.610 . S
N701 C702 1.351 . S
C702 C696 1.428 1_556 S
C702 N701 1.351 . S
C702 C703 1.434 . S
C703 C694 1.429 . S
C703 N700 1.350 . S
C703 C702 1.434 . S
C704 C705 1.369 . S
C704 C706 1.419 1_556 S
C704 H708 0.930 . S
C705 C704 1.369 . S
C705 C714 1.429 1_556 S
C706 C704 1.419 1_554 S
C706 C707 1.363 . S
C706 H709 0.929 . S
C707 C706 1.363 . S
C707 C713 1.428 . S
H708 C704 0.930 . S
H709 C706 0.929 . S
S710 N711 1.613 . S
S710 N712 1.610 . S
N711 S710 1.613 . S
N711 C714 1.350 . S
N712 S710 1.610 . S
N712 C713 1.351 . S
C713 C707 1.428 . S
C713 N712 1.351 . S
C713 C714 1.434 . S
C714 C705 1.429 1_554 S
C714 N711 1.350 . S
C714 C713 1.434 . S
C715 C716 1.369 1_554 S
C715 C717 1.419 . S
C715 H719 0.930 . S
C716 C715 1.369 1_556 S
C716 C725 1.429 . S
C717 C715 1.419 . S
C717 C718 1.363 . S
C717 H720 0.929 . S
C718 C717 1.363 . S
C718 C724 1.428 1_554 S
H719 C715 0.930 . S
H720 C717 0.929 . S
S721 N722 1.613 . S
S721 N723 1.602 1_655 S
N722 S721 1.613 . S
N722 C725 1.350 . S
N723 S721 1.602 1_455 S
N723 C724 1.339 1_455 S
C724 C718 1.428 1_556 S
C724 N723 1.339 1_655 S
C724 C725 1.434 . S
C725 C716 1.429 . S
C725 N722 1.350 . S
C725 C724 1.434 . S
C726 C727 1.369 . S
C726 C728 1.419 . S
C726 H730 0.930 . S
C727 C726 1.369 . S
C727 C736 1.429 . S
C728 C726 1.419 . S
C728 C729 1.363 . S
C728 H731 0.929 . S
C729 C728 1.363 . S
C729 C735 1.428 . S
H730 C726 0.930 . S
H731 C728 0.929 . S
S732 N733 1.613 . S
S732 N734 1.610 . S
N733 S732 1.613 . S
N733 C736 1.350 . S
N734 S732 1.610 . S
N734 C735 1.351 . S
C735 C729 1.428 . S
C735 N734 1.351 . S
C735 C736 1.434 . S
C736 C727 1.429 . S
C736 N733 1.350 . S
C736 C735 1.434 . S
C737 C738 1.369 . S
C737 C739 1.419 . S
C737 H741 0.930 . S
C738 C737 1.369 . S
C738 C747 1.429 . S
C739 C737 1.419 . S
C739 C740 1.363 . S
C739 H742 0.929 . S
C740 C739 1.363 . S
C740 C746 1.428 . S
H741 C737 0.930 . S
H742 C739 0.929 . S
S743 N744 1.613 . S
S743 N745 1.610 . S
N744 S743 1.613 . S
N744 C747 1.350 . S
N745 S743 1.610 . S
N745 C746 1.351 . S
C746 C740 1.428 . S
C746 N745 1.351 . S
C746 C747 1.434 . S
C747 C738 1.429 . S
C747 N744 1.350 . S
C747 C746 1.434 . S
C748 C749 1.369 . S
C748 C750 1.419 . S
C748 H752 0.930 . S
C749 C748 1.369 . S
C749 C758 1.429 . S
C750 C748 1.419 . S
C750 C751 1.363 . S
C750 H753 0.929 . S
C751 C750 1.363 . S
C751 C757 1.428 . S
H752 C748 0.930 . S
H753 C750 0.929 . S
S754 N755 1.613 . S
S754 N756 1.610 . S
N755 S754 1.613 . S
N755 C758 1.350 . S
N756 S754 1.610 . S
N756 C757 1.351 . S
C757 C751 1.428 . S
C757 N756 1.351 . S
C757 C758 1.434 . S
C758 C749 1.429 . S
C758 N755 1.350 . S
C758 C757 1.434 . S
C759 C760 1.369 . S
C759 C761 1.419 . S
C759 H763 0.930 . S
C760 C759 1.369 . S
C760 C769 1.429 . S
C761 C759 1.419 . S
C761 C762 1.363 . S
C761 H764 0.929 . S
C762 C761 1.363 . S
C762 C768 1.428 . S
H763 C759 0.930 . S
H764 C761 0.929 . S
S765 N766 1.613 . S
S765 N767 1.610 . S
N766 S765 1.613 . S
N766 C769 1.350 . S
N767 S765 1.610 . S
N767 C768 1.351 . S
C768 C762 1.428 . S
C768 N767 1.351 . S
C768 C769 1.434 . S
C769 C760 1.429 . S
C769 N766 1.350 . S
C769 C768 1.434 . S
C770 C771 1.369 . S
C770 C772 1.419 . S
C770 H774 0.930 . S
C771 C770 1.369 . S
C771 C780 1.429 . S
C772 C770 1.419 . S
C772 C773 1.363 . S
C772 H775 0.929 . S
C773 C772 1.363 . S
C773 C779 1.428 . S
H774 C770 0.930 . S
H775 C772 0.929 . S
S776 N777 1.613 . S
S776 N778 1.610 . S
N777 S776 1.613 . S
N777 C780 1.350 . S
N778 S776 1.610 . S
N778 C779 1.351 . S
C779 C773 1.428 . S
C779 N778 1.351 . S
C779 C780 1.434 . S
C780 C771 1.429 . S
C780 N777 1.350 . S
C780 C779 1.434 . S
C781 C782 1.369 . S
C781 C783 1.419 . S
C781 H785 0.930 . S
C782 C781 1.369 . S
C782 C791 1.429 . S
C783 C781 1.419 . S
C783 C784 1.363 . S
C783 H786 0.929 . S
C784 C783 1.363 . S
C784 C790 1.428 . S
H785 C781 0.930 . S
H786 C783 0.929 . S
S787 N788 1.613 . S
S787 N789 1.610 . S
N788 S787 1.613 . S
N788 C791 1.350 . S
N789 S787 1.610 . S
N789 C790 1.351 . S
C790 C784 1.428 . S
C790 N789 1.351 . S
C790 C791 1.434 . S
C791 C782 1.429 . S
C791 N788 1.350 . S
C791 C790 1.434 . S
C792 C793 1.369 . S
C792 C794 1.419 . S
C792 H796 0.930 . S
C793 C792 1.369 . S
C793 C802 1.429 . S
C794 C792 1.419 . S
C794 C795 1.363 . S
C794 H797 0.929 . S
C795 C794 1.363 . S
C795 C801 1.428 . S
H796 C792 0.930 . S
H797 C794 0.929 . S
S798 N799 1.613 . S
S798 N800 1.610 . S
N799 S798 1.613 . S
N799 C802 1.350 . S
N800 S798 1.610 . S
N800 C801 1.351 . S
C801 C795 1.428 . S
C801 N800 1.351 . S
C801 C802 1.434 . S
C802 C793 1.429 . S
C802 N799 1.350 . S
C802 C801 1.434 . S
C803 C804 1.369 . S
C803 C805 1.419 . S
C803 H807 0.930 . S
C804 C803 1.369 . S
C804 C813 1.429 . S
C805 C803 1.419 . S
C805 C806 1.363 . S
C805 H808 0.929 . S
C806 C805 1.363 . S
C806 C812 1.428 . S
H807 C803 0.930 . S
H808 C805 0.929 . S
S809 N810 1.613 . S
S809 N811 1.610 . S
N810 S809 1.613 . S
N810 C813 1.350 . S
N811 S809 1.610 . S
N811 C812 1.351 . S
C812 C806 1.428 . S
C812 N811 1.351 . S
C812 C813 1.434 . S
C813 C804 1.429 . S
C813 N810 1.350 . S
C813 C812 1.434 . S
C814 C815 1.369 . S
C814 C816 1.419 . S
C814 H818 0.930 1_565 S
C815 C814 1.369 . S
C815 C824 1.429 . S
C816 C814 1.419 . S
C816 C817 1.363 . S
C816 H819 0.929 1_565 S
C817 C816 1.363 . S
C817 C823 1.428 . S
H818 C814 0.930 1_545 S
H819 C816 0.929 1_545 S
S820 N821 1.613 . S
S820 N822 1.610 . S
N821 S820 1.613 . S
N821 C824 1.350 . S
N822 S820 1.610 . S
N822 C823 1.351 . S
C823 C817 1.428 . S
C823 N822 1.351 . S
C823 C824 1.434 . S
C824 C815 1.429 . S
C824 N821 1.350 . S
C824 C823 1.434 . S
C825 C826 1.369 . S
C825 C827 1.419 . S
C825 H829 0.930 . S
C826 C825 1.369 . S
C826 C835 1.429 . S
C827 C825 1.419 . S
C827 C828 1.363 . S
C827 H830 0.929 . S
C828 C827 1.363 . S
C828 C834 1.428 . S
H829 C825 0.930 . S
H830 C827 0.929 . S
S831 N832 1.613 1_565 S
S831 N833 1.610 1_565 S
N832 S831 1.613 1_545 S
N832 C835 1.350 . S
N833 S831 1.610 1_545 S
N833 C834 1.351 . S
C834 C828 1.428 . S
C834 N833 1.351 . S
C834 C835 1.434 . S
C835 C826 1.429 . S
C835 N832 1.350 . S
C835 C834 1.434 . S
C836 C837 1.369 . S
C836 C838 1.419 . S
C836 H840 0.930 . S
C837 C836 1.369 . S
C837 C846 1.429 . S
C838 C836 1.419 . S
C838 C839 1.363 . S
C838 H841 0.929 . S
C839 C838 1.363 . S
C839 C845 1.428 . S
H840 C836 0.930 . S
H841 C838 0.929 . S
S842 N843 1.613 . S
S842 N844 1.610 . S
N843 S842 1.613 . S
N843 C846 1.350 1_455 S
N844 S842 1.610 . S
N844 C845 1.351 1_455 S
C845 C839 1.428 . S
C845 N844 1.351 1_655 S
C845 C846 1.434 . S
C846 C837 1.429 . S
C846 N843 1.350 1_655 S
C846 C845 1.434 . S
C847 C848 1.369 . S
C847 C849 1.419 . S
C847 H851 0.930 . S
C848 C847 1.369 . S
C848 C857 1.429 . S
C849 C847 1.419 . S
C849 C850 1.363 . S
C849 H852 0.929 . S
C850 C849 1.363 . S
C850 C856 1.428 . S
H851 C847 0.930 . S
H852 C849 0.929 . S
S853 N854 1.613 . S
S853 N855 1.610 . S
N854 S853 1.613 . S
N854 C857 1.350 . S
N855 S853 1.610 . S
N855 C856 1.351 . S
C856 C850 1.428 . S
C856 N855 1.351 . S
C856 C857 1.434 . S
C857 C848 1.429 . S
C857 N854 1.350 . S
C857 C856 1.434 . S
C858 C859 1.369 . S
C858 C860 1.419 . S
C858 H862 0.930 . S
C859 C858 1.369 . S
C859 C868 1.429 . S
C860 C858 1.419 . S
C860 C861 1.363 . S
C860 H863 0.929 . S
C861 C860 1.363 . S
C861 C867 1.428 . S
H862 C858 0.930 . S
H863 C860 0.929 . S
S864 N865 1.613 . S
S864 N866 1.610 . S
N865 S864 1.613 . S
N865 C868 1.350 1_455 S
N866 S864 1.610 . S
N866 C867 1.351 1_455 S
C867 C861 1.428 . S
C867 N866 1.351 1_655 S
C867 C868 1.434 . S
C868 C859 1.429 . S
C868 N865 1.350 1_655 S
C868 C867 1.434 . S
C869 C870 1.369 . S
C869 C871 1.419 . S
C869 H873 0.930 . S
C870 C869 1.369 . S
C870 C879 1.429 . S
C871 C869 1.419 . S
C871 C872 1.363 . S
C871 H874 0.929 . S
C872 C871 1.363 . S
C872 C878 1.428 . S
H873 C869 0.930 . S
H874 C871 0.929 . S
S875 N876 1.613 . S
S875 N877 1.610 . S
N876 S875 1.613 . S
N876 C879 1.350 . S
N877 S875 1.610 . S
N877 C878 1.351 . S
C878 C872 1.428 . S
C878 N877 1.351 . S
C878 C879 1.434 . S
C879 C870 1.429 . S
C879 N876 1.350 . S
C879 C878 1.434 . S
C880 C881 1.369 . S
C880 C882 1.419 . S
C880 H884 0.930 . S
C881 C880 1.369 . S
C881 C890 1.429 . S
C882 C880 1.419 . S
C882 C883 1.363 . S
C882 H885 0.929 . S
C883 C882 1.363 . S
C883 C889 1.428 . S
H884 C880 0.930 . S
H885 C882 0.929 . S
S886 N887 1.613 . S
S886 N888 1.610 . S
N887 S886 1.613 . S
N887 C890 1.350 1_565 S
N888 S886 1.610 . S
N888 C889 1.351 1_565 S
C889 C883 1.428 . S
C889 N888 1.351 1_545 S
C889 C890 1.434 . S
C890 C881 1.429 . S
C890 N887 1.350 1_545 S
C890 C889 1.434 . S
C891 C892 1.369 . S
C891 C893 1.419 . S
C891 H895 0.930 . S
C892 C891 1.369 . S
C892 C901 1.429 . S
C893 C891 1.419 . S
C893 C894 1.363 . S
C893 H896 0.929 . S
C894 C893 1.363 . S
C894 C900 1.428 . S
H895 C891 0.930 . S
H896 C893 0.929 . S
S897 N898 1.613 . S
S897 N899 1.610 . S
N898 S897 1.613 . S
N898 C901 1.350 . S
N899 S897 1.610 . S
N899 C900 1.351 . S
C900 C894 1.428 . S
C900 N899 1.351 . S
C900 C901 1.434 . S
C901 C892 1.429 . S
C901 N898 1.350 . S
C901 C900 1.434 . S
C902 C903 1.369 . S
C902 C904 1.419 . S
C902 H906 0.930 . S
C903 C902 1.369 . S
C903 C912 1.429 . S
C904 C902 1.419 . S
C904 C905 1.363 . S
C904 H907 0.929 . S
C905 C904 1.363 . S
C905 C911 1.428 . S
H906 C902 0.930 . S
H907 C904 0.929 . S
S908 N909 1.613 . S
S908 N910 1.610 . S
N909 S908 1.613 . S
N909 C912 1.350 . S
N910 S908 1.610 . S
N910 C911 1.351 . S
C911 C905 1.428 . S
C911 N910 1.351 . S
C911 C912 1.434 . S
C912 C903 1.429 . S
C912 N909 1.350 . S
C912 C911 1.434 . S
C913 C914 1.369 . S
C913 C915 1.419 . S
C913 H917 0.930 . S
C914 C913 1.369 . S
C914 C923 1.429 . S
C915 C913 1.419 . S
C915 C916 1.363 . S
C915 H918 0.929 . S
C916 C915 1.363 . S
C916 C922 1.428 . S
H917 C913 0.930 . S
H918 C915 0.929 . S
S919 N920 1.613 . S
S919 N921 1.610 . S
N920 S919 1.613 . S
N920 C923 1.350 . S
N921 S919 1.610 . S
N921 C922 1.351 . S
C922 C916 1.428 . S
C922 N921 1.351 . S
C922 C923 1.434 . S
C923 C914 1.429 . S
C923 N920 1.350 . S
C923 C922 1.434 . S
C924 C925 1.369 . S
C924 C926 1.419 . S
C924 H928 0.930 . S
C925 C924 1.369 . S
C925 C934 1.429 1_545 S
C926 C924 1.419 . S
C926 C927 1.363 . S
C926 H929 0.929 . S
C927 C926 1.363 . S
C927 C933 1.428 1_545 S
H928 C924 0.930 . S
H929 C926 0.929 . S
S930 N931 1.613 . S
S930 N932 1.610 . S
N931 S930 1.613 . S
N931 C934 1.350 . S
N932 S930 1.610 . S
N932 C933 1.351 . S
C933 C927 1.428 1_565 S
C933 N932 1.351 . S
C933 C934 1.434 . S
C934 C925 1.429 1_565 S
C934 N931 1.350 . S
C934 C933 1.434 . S
C935 C936 1.369 . S
C935 C937 1.419 . S
C935 H939 0.930 . S
C936 C935 1.369 . S
C936 C945 1.429 . S
C937 C935 1.419 . S
C937 C938 1.363 . S
C937 H940 0.929 . S
C938 C937 1.363 . S
C938 C944 1.428 1_455 S
H939 C935 0.930 . S
H940 C937 0.929 . S
S941 N942 1.613 . S
S941 N943 1.610 . S
N942 S941 1.613 . S
N942 C945 1.350 1_655 S
N943 S941 1.610 . S
N943 C944 1.351 . S
C944 C938 1.428 1_655 S
C944 N943 1.351 . S
C944 C945 1.434 1_655 S
C945 C936 1.429 . S
C945 N942 1.350 1_455 S
C945 C944 1.434 1_455 S
C946 C947 1.369 . S
C946 C948 1.419 . S
C946 H950 0.930 . S
C947 C946 1.369 . S
C947 C956 1.429 . S
C948 C946 1.419 . S
C948 C949 1.363 . S
C948 H951 0.929 . S
C949 C948 1.363 . S
C949 C955 1.428 . S
H950 C946 0.930 . S
H951 C948 0.929 . S
S952 N953 1.613 . S
S952 N954 1.610 . S
N953 S952 1.613 . S
N953 C956 1.350 . S
N954 S952 1.610 . S
N954 C955 1.351 . S
C955 C949 1.428 . S
C955 N954 1.351 . S
C955 C956 1.434 . S
C956 C947 1.429 . S
C956 N953 1.350 . S
C956 C955 1.434 . S
C957 C958 1.369 1_655 S
C957 C959 1.419 . S
C957 H961 0.930 . S
C958 C957 1.369 1_455 S
C958 C967 1.429 . S
C959 C957 1.419 . S
C959 C960 1.363 1_655 S
C959 H962 0.929 . S
C960 C959 1.363 1_455 S
C960 C966 1.428 . S
H961 C957 0.930 . S
H962 C959 0.929 . S
S963 N964 1.613 . S
S963 N965 1.610 . S
N964 S963 1.613 . S
N964 C967 1.350 . S
N965 S963 1.610 . S
N965 C966 1.351 . S
C966 C960 1.428 . S
C966 N965 1.351 . S
C966 C967 1.434 . S
C967 C958 1.429 . S
C967 N964 1.350 . S
C967 C966 1.434 . S
C968 C969 1.369 . S
C968 C970 1.419 . S
C968 H972 0.930 . S
C969 C968 1.369 . S
C969 C978 1.429 . S
C970 C968 1.419 . S
C970 C971 1.363 . S
C970 H973 0.929 . S
C971 C970 1.363 . S
C971 C977 1.428 . S
H972 C968 0.930 . S
H973 C970 0.929 . S
S974 N975 1.613 . S
S974 N976 1.610 . S
N975 S974 1.613 . S
N975 C978 1.350 . S
N976 S974 1.610 . S
N976 C977 1.351 . S
C977 C971 1.428 . S
C977 N976 1.351 . S
C977 C978 1.434 . S
C978 C969 1.429 . S
C978 N975 1.350 . S
C978 C977 1.434 . S
C979 C980 1.369 . S
C979 C981 1.419 . S
C979 H983 0.930 . S
C980 C979 1.369 . S
C980 C989 1.429 1_545 S
C981 C979 1.419 . S
C981 C982 1.363 . S
C981 H984 0.929 . S
C982 C981 1.363 . S
C982 C988 1.428 1_545 S
H983 C979 0.930 . S
H984 C981 0.929 . S
S985 N986 1.613 . S
S985 N987 1.610 . S
N986 S985 1.613 . S
N986 C989 1.350 . S
N987 S985 1.610 . S
N987 C988 1.351 . S
C988 C982 1.428 1_565 S
C988 N987 1.351 . S
C988 C989 1.434 . S
C989 C980 1.429 1_565 S
C989 N986 1.350 . S
C989 C988 1.434 . S
C397 C249 1.379 . S
C399 C8 1.433 . S
C408 C29 1.432 . S
C410 C213 1.397 . S
C419 C62 1.392 . S
C421 C241 1.347 . S
C430 C337 1.372 . S
C432 C51 1.419 . S
C441 C21 1.408 . S
C443 C370 1.366 . S
C452 C40 1.399 . S
C454 C381 1.355 . S
C463 C316 1.329 . S
C465 C84 1.380 . S
C474 C103 1.398 . S
C476 C282 1.362 . S
C485 C118 1.389 . S
C487 C307 1.337 . S
C496 C147 1.369 . S
C498 C131 1.409 . S
C507 C73 1.447 . S
C509 C175 1.406 . S
C518 C191 1.364 . S
C520 C98 1.408 . S
C529 C382 1.362 . S
C531 C140 1.405 . S
C540 C338 1.328 1_565 S
C542 C172 1.378 . S
C551 C367 1.342 . S
C553 C184 1.389 . S
C562 C87 1.379 . S
C564 C197 1.412 . S
C573 C96 1.395 . S
C575 C153 1.431 . S
C584 C161 1.448 . S
C586 C125 1.408 . S
C595 C54 1.406 . S
C597 C219 1.445 . S
C606 C18 1.377 . S
C608 C227 1.414 . S
C617 C257 1.423 . S
C619 C43 1.383 . S
C628 C252 1.378 . S
C630 C279 1.335 . S
C639 C206 1.400 . S
C641 C296 1.346 1_565 S
C650 C238 1.408 . S
C652 C315 1.364 . S
C661 C272 1.403 . S
C663 C128 1.361 . S
C672 C293 1.424 . S
C674 C76 1.387 . S
C683 C318 1.416 . S
C685 C95 1.364 . S
C694 C323 1.389 . S
C696 C216 1.357 . S
C705 C285 1.434 . S
C707 C230 1.393 . S
C716 C304 1.388 . S
C718 C250 1.341 1_655 S
C727 C340 1.412 . S
C729 C194 1.360 . S
C738 C373 1.417 . S
C740 C150 1.373 . S
C749 C164 1.321 1_655 S
C751 C384 1.373 . S
C760 C15 1.405 . S
C762 C389 1.443 . S
C771 C32 1.400 . S
C773 C345 1.430 . S
C782 C360 1.427 . S
C784 C65 1.374 . S
C793 C162 1.276 . S
C795 C7 1.285 . S
C804 C186 1.254 . S
C806 C30 1.260 . S
C815 C142 1.273 . S
C817 C59 1.288 . S
C826 C294 1.269 . S
C828 C52 1.256 . S
C837 C10 1.279 . S
C839 C329 1.293 1_554 S
C848 C37 1.316 . S
C850 C271 1.315 1_554 S
C859 C81 1.315 . S
C861 C359 1.315 . S
C870 C106 1.253 . S
C872 C392 1.259 . S
C881 C117 1.291 . S
C883 C348 1.282 . S
C892 C120 1.262 . S
C894 C228 1.260 1_556 S
C903 C260 1.272 . S
C905 C74 1.258 . S
C914 C109 1.291 . S
C916 C208 1.283 . S
C925 C139 1.312 1_545 S
C927 C301 1.316 . S
C936 C169 1.301 . S
C938 C326 1.285 1_455 S
C947 C183 1.296 . S
C949 C274 1.287 . S
C958 C263 1.295 . S
C960 C362 1.287 1_455 S
C969 C395 1.314 . S
C971 C205 1.313 . S
C980 C351 1.315 . S
C982 C235 1.311 1_545 S
