# Generated by pormake.
# Topology sra, (4)-cn, num edge types: 1
# Building blocks:
#     Node 0, Type 0, BuildingBlock: ICAMEG_clean_sbu_1, # of connection points: 4
#     Node 1, Type 0, BuildingBlock: ICAMEG_clean_sbu_1, # of connection points: 4
#     Node 2, Type 0, BuildingBlock: ICAMEG_clean_sbu_1, # of connection points: 4
#     Node 3, Type 0, BuildingBlock: ICAMEG_clean_sbu_1, # of connection points: 4
#     Node 4, Type 0, BuildingBlock: ICAMEG_clean_sbu_1, # of connection points: 4
#     Node 5, Type 0, BuildingBlock: ICAMEG_clean_sbu_1, # of connection points: 4
#     Node 6, Type 0, BuildingBlock: ICAMEG_clean_sbu_1, # of connection points: 4
#     Node 7, Type 0, BuildingBlock: ICAMEG_clean_sbu_1, # of connection points: 4
#     Edge 8, Type (0, 0), BuildingBlock: AJUNOK_clean_linker_0, # of connection points: 2
#     Edge 9, Type (0, 0), BuildingBlock: AJUNOK_clean_linker_0, # of connection points: 2
#     Edge 10, Type (0, 0), BuildingBlock: AJUNOK_clean_linker_0, # of connection points: 2
#     Edge 11, Type (0, 0), BuildingBlock: AJUNOK_clean_linker_0, # of connection points: 2
#     Edge 12, Type (0, 0), BuildingBlock: AJUNOK_clean_linker_0, # of connection points: 2
#     Edge 13, Type (0, 0), BuildingBlock: AJUNOK_clean_linker_0, # of connection points: 2
#     Edge 14, Type (0, 0), BuildingBlock: AJUNOK_clean_linker_0, # of connection points: 2
#     Edge 15, Type (0, 0), BuildingBlock: AJUNOK_clean_linker_0, # of connection points: 2
#     Edge 16, Type (0, 0), BuildingBlock: AJUNOK_clean_linker_0, # of connection points: 2
#     Edge 17, Type (0, 0), BuildingBlock: AJUNOK_clean_linker_0, # of connection points: 2
#     Edge 18, Type (0, 0), BuildingBlock: AJUNOK_clean_linker_0, # of connection points: 2
#     Edge 19, Type (0, 0), BuildingBlock: AJUNOK_clean_linker_0, # of connection points: 2
#     Edge 20, Type (0, 0), BuildingBlock: AJUNOK_clean_linker_0, # of connection points: 2
#     Edge 21, Type (0, 0), BuildingBlock: AJUNOK_clean_linker_0, # of connection points: 2
#     Edge 22, Type (0, 0), BuildingBlock: AJUNOK_clean_linker_0, # of connection points: 2
#     Edge 23, Type (0, 0), BuildingBlock: AJUNOK_clean_linker_0, # of connection points: 2
# Relax obj value: 0.024
# Max RMSD: 0.060
# Mean RMSD: 0.060
data_MOF--net-sra--node1-ICAMEG_clean_sbu_1--edge1-AJUNOK_clean_linker_0
_symmetry_space_group_name_H-M    P1
_symmetry_Int_Tables_number       1
_symmetry_cell_setting            triclinic
loop_
_symmetry_equiv_pos_as_xyz
'x, y, z'
_cell_length_a     22.627442
_cell_length_b     41.396989
_cell_length_c     23.208996
_cell_angle_alpha  89.947955
_cell_angle_beta   90.00442
_cell_angle_gamma 89.93665
loop_
_atom_site_label
_atom_site_type_symbol
_atom_site_fract_x
_atom_site_fract_y
_atom_site_fract_z
_atom_type_partial_charge
Co0 Co 0.01909 0.13004 0.25783 0.0
Co1 Co 0.97806 0.14143 0.11482 0.0
O2 O 0.02528 0.12006 0.17494 0.0
C3 C 0.14514 0.14169 0.23326 0.0
O4 O 0.12873 0.15531 0.18473 0.0
C5 C 0.9579 0.07037 0.09164 0.0
O6 O 0.95722 0.06484 0.14736 0.0
O7 O 0.90364 0.13468 0.16008 0.0
O8 O 0.93163 0.13186 0.25262 0.0
H9 H 0.82228 0.21816 0.04348 0.0
H10 H 0.0893 0.0735 0.22029 0.0
O11 O 0.10699 0.12884 0.26631 0.0
H12 H 0.93183 0.02901 0.34386 0.0
H13 H 0.07215 0.11705 0.46732 0.0
H14 H 0.94796 0.17582 0.32746 0.0
H15 H 0.93896 0.08768 0.32686 0.0
H16 H 0.07823 0.10468 0.36355 0.0
O17 O 0.96503 0.09912 0.07307 0.0
H18 H 0.88449 0.19139 0.11666 0.0
H19 H 0.97126 0.13732 0.98629 0.0
H20 H 0.93997 0.18872 0.43091 0.0
H21 H 0.08415 1.01465 0.23656 0.0
H22 H 1.00245 0.15926 0.50162 0.0
H23 H 0.00486 0.99206 0.29862 0.0
O24 O 0.02397 0.17751 0.2431 0.0
H25 H 0.17184 0.10668 0.0293 0.0
H26 H 0.03115 0.19693 0.05062 0.0
H27 H 0.12296 0.20509 0.99521 0.0
H28 H 0.19413 0.15977 0.98441 0.0
H29 H 0.07941 0.09957 0.08419 0.0
H30 H 0.90953 0.16315 0.91173 0.0
H31 H 0.8345 0.20399 0.94017 0.0
O32 O 0.99135 0.18453 0.15233 0.0
C33 C 0.89192 0.13274 0.21386 0.0
C34 C 0.85481 0.2004 0.03053 0.0
C35 C 0.90367 0.16948 0.95661 0.0
N36 N 0.93122 0.16268 0.05579 0.0
C37 C 0.89021 0.1852 0.07176 0.0
C38 C 0.93825 0.15477 0.99904 0.0
C39 C 0.86164 0.19241 0.97259 0.0
C40 C 0.055 0.06384 0.24774 0.0
N41 N 0.0146 0.08399 0.27271 0.0
C42 C 0.05216 0.03051 0.25662 0.0
C43 C 0.0076 0.01785 0.29137 0.0
C44 C 0.96658 0.03856 0.31673 0.0
C45 C 0.97073 0.07176 0.3068 0.0
C46 C 0.04461 0.13001 0.43695 0.0
C47 C 0.97503 0.16276 0.35801 0.0
C48 C 0.04795 0.12316 0.37813 0.0
N49 N 0.01328 0.13941 0.33952 0.0
C50 C 0.97041 0.17022 0.41652 0.0
C51 C 0.0055 0.1537 0.45616 0.0
C52 C 0.01043 0.19538 0.20035 0.0
C53 C 0.14118 0.12661 0.03369 0.0
C54 C 0.06191 0.1771 0.04611 0.0
C55 C 0.11378 0.18184 0.01461 0.0
C56 C 0.15368 0.15641 1.00855 0.0
N57 N 0.04996 0.14781 0.07065 0.0
C58 C 0.08874 0.12271 0.06466 0.0
Co59 Co 0.02304 0.399 0.26172 0.0
Co60 Co 0.06797 0.39113 0.12042 0.0
O61 O 0.01655 0.40992 0.17953 0.0
C62 C 0.89786 0.38609 0.23616 0.0
O63 O 0.91619 0.37076 0.19 0.0
C64 C 0.07779 0.4622 0.09465 0.0
O65 O 0.08597 0.4674 0.14989 0.0
O66 O 0.1396 0.40418 0.1649 0.0
O67 O 0.11122 0.3981 0.25689 0.0
H68 H 0.24273 0.32747 0.05004 0.0
H69 H 0.95258 0.45571 0.22516 0.0
O70 O 0.93498 0.39964 0.26942 0.0
H71 H 0.10649 0.4992 0.35389 0.0
H72 H 0.96771 0.4078 0.4713 0.0
H73 H 0.09594 0.35324 0.3297 0.0
H74 H 0.10067 0.44076 0.33439 0.0
H75 H 0.96145 0.42157 0.36804 0.0
O76 O 0.0695 0.43343 0.07672 0.0
H77 H 0.17576 0.35049 0.1231 0.0
H78 H 0.07002 0.39241 0.99173 0.0
H79 H 0.1041 0.33896 0.43262 0.0
H80 H 0.95645 0.51434 0.24384 0.0
H81 H 0.03964 0.36633 0.5042 0.0
H82 H 0.03395 0.53644 0.3085 0.0
O83 O 0.01944 0.35182 0.24439 0.0
H84 H 0.86724 0.4092 0.03367 0.0
H85 H 0.02663 0.32981 0.06543 0.0
H86 H 0.93594 0.31307 0.01481 0.0
H87 H 0.85546 0.35292 0.99857 0.0
H88 H 0.95838 0.42482 0.08485 0.0
H89 H 0.1361 0.37016 0.91715 0.0
H90 H 0.22311 0.33729 0.94616 0.0
O91 O 0.06736 0.34798 0.16021 0.0
C92 C 0.15094 0.40272 0.21879 0.0
C93 C 0.20497 0.34174 0.03681 0.0
C94 C 0.14518 0.36573 0.96226 0.0
N95 N 0.11908 0.37283 0.06172 0.0
C96 C 0.16686 0.35481 0.07799 0.0
C97 C 0.10806 0.37841 1.00468 0.0
C98 C 0.19396 0.34728 0.97856 0.0
C99 C 0.98614 0.46514 0.25368 0.0
N100 N 0.02627 0.44484 0.27873 0.0
C101 C 0.98824 0.49836 0.26395 0.0
C102 C 0.03178 0.51075 0.30018 0.0
C103 C 0.07253 0.48987 0.32562 0.0
C104 C 0.06913 0.4568 0.31428 0.0
C105 C 0.99611 0.39575 0.44054 0.0
C106 C 0.06801 0.36539 0.36065 0.0
C107 C 0.99267 0.40339 0.382 0.0
N108 N 0.02861 0.38838 0.34296 0.0
C109 C 0.07271 0.35714 0.41884 0.0
C110 C 0.03649 0.37249 0.45897 0.0
C111 C 0.04298 0.33517 0.20428 0.0
C112 C 0.90209 0.39165 0.0403 0.0
C113 C 0.99176 0.34728 0.05875 0.0
C114 C 0.94056 0.33768 0.02987 0.0
C115 C 0.89546 0.36005 0.02071 0.0
N116 N 0.99791 0.37833 0.07791 0.0
C117 C 0.9539 0.4004 0.06901 0.0
Co118 Co 0.02494 0.90071 0.7669 0.0
Co119 Co 0.96963 0.89116 0.90382 0.0
O120 O 0.02424 0.91146 0.84914 0.0
C121 C 0.15054 0.89298 0.7986 0.0
O122 O 0.13308 0.87714 0.84456 0.0
C123 C 0.95368 0.9616 0.92854 0.0
O124 O 0.94618 0.9659 0.87296 0.0
O125 O 0.9007 0.90327 0.85447 0.0
O126 O 0.93696 0.89587 0.76561 0.0
H127 H 0.79725 0.82178 0.96084 0.0
H128 H 0.08366 0.96011 0.80815 0.0
O129 O 0.11276 0.9052 0.76436 0.0
H130 H 0.93304 0.99743 0.66964 0.0
H131 H 0.09126 0.91285 0.56084 0.0
H132 H 0.96709 0.85057 0.69554 0.0
H133 H 0.94694 0.93933 0.68862 0.0
H134 H 0.08798 0.92698 0.66403 0.0
O135 O 0.96308 0.93318 0.94777 0.0
H136 H 0.86771 0.84669 0.89302 0.0
H137 H 0.9544 0.8941 0.03147 0.0
H138 H 0.96873 0.83575 0.59264 0.0
H139 H 0.07163 0.01851 0.79018 0.0
H140 H 0.03108 0.86704 0.52449 0.0
H141 H 0.99568 0.0375 0.72066 0.0
O142 O 0.03443 0.85406 0.78558 0.0
H143 H 0.16288 0.91099 1.00432 0.0
H144 H 0.00923 0.83017 0.96106 0.0
H145 H 0.09668 0.81411 0.01764 0.0
H146 H 0.17428 0.85467 0.03965 0.0
H147 H 0.07497 0.92595 0.94732 0.0
H148 H 0.88465 0.86985 0.10076 0.0
H149 H 0.80549 0.83332 0.06555 0.0
O150 O 0.97573 0.84829 0.86307 0.0
C151 C 0.89383 0.90033 0.80004 0.0
C152 C 0.83166 0.83758 0.97673 0.0
C153 C 0.88066 0.8646 0.05525 0.0
N154 N 0.91534 0.87165 0.95831 0.0
C155 C 0.87176 0.8517 0.93856 0.0
C156 C 0.91995 0.87831 0.0158 0.0
C157 C 0.83627 0.84409 0.03547 0.0
C158 C 0.05088 0.9682 0.77747 0.0
N159 N 0.01603 0.94632 0.74947 0.0
C160 C 0.04413 1.00129 0.76761 0.0
C161 C 1.00145 1.01193 0.72866 0.0
C162 C 0.96625 0.98947 0.70008 0.0
C163 C 0.97416 0.95658 0.71114 0.0
C164 C 0.06371 0.89912 0.59006 0.0
C165 C 0.99411 0.8644 0.66609 0.0
C166 C 0.06169 0.907 0.64853 0.0
N167 N 0.02672 0.88989 0.68561 0.0
C168 C 0.99495 0.85585 0.6079 0.0
C169 C 0.02997 0.8734 0.5697 0.0
C170 C 0.00732 0.83672 0.82241 0.0
C171 C 0.12926 0.89313 0.99519 0.0
C172 C 0.0428 0.84797 0.97038 0.0
C173 C 0.09218 0.83874 1.00255 0.0
C174 C 0.13568 0.86151 0.01492 0.0
N175 N 0.03687 0.87903 0.95109 0.0
C176 C 0.07926 0.9015 0.96317 0.0
Co177 Co 0.02027 0.63231 0.77026 0.0
Co178 Co 0.06541 0.64303 0.91114 0.0
O179 O 0.01505 0.6227 0.85284 0.0
C180 C 0.89511 0.64424 0.79659 0.0
O181 O 0.91345 0.65956 0.84272 0.0
C182 C 0.07973 0.57249 0.93441 0.0
O183 O 0.08836 0.56878 0.87887 0.0
O184 O 0.13796 0.6319 0.86638 0.0
O185 O 0.10833 0.63441 0.77423 0.0
H186 H 0.23048 0.71416 0.98036 0.0
H187 H 0.95257 0.57543 0.81022 0.0
O188 O 0.93223 0.63065 0.76333 0.0
H189 H 0.10845 0.53154 0.68404 0.0
H190 H 0.96371 0.61942 0.56172 0.0
H191 H 0.09019 0.678 0.69947 0.0
H192 H 0.0993 0.59027 0.69933 0.0
H193 H 0.95901 0.6072 0.66568 0.0
O194 O 0.07072 0.60073 0.9545 0.0
H195 H 0.16548 0.68912 0.90777 0.0
H196 H 0.07272 0.63897 0.03934 0.0
H197 H 0.09676 0.69076 0.59581 0.0
H198 H 0.95984 0.5165 0.79585 0.0
H199 H 0.03316 0.66137 0.52616 0.0
H200 H 0.03841 0.49421 0.7326 0.0
O201 O 0.01454 0.67956 0.78555 0.0
H202 H 0.86685 0.62048 0.99922 0.0
H203 H 0.01984 0.70324 0.96646 0.0
H204 H 0.92827 0.71801 0.01769 0.0
H205 H 0.85098 0.67647 0.03435 0.0
H206 H 0.95882 0.60682 0.94759 0.0
H207 H 0.13697 0.66331 0.11335 0.0
H208 H 0.21644 0.70126 0.08401 0.0
O209 O 0.06052 0.68598 0.87066 0.0
C210 C 0.14872 0.63211 0.81233 0.0
C211 C 0.19591 0.69773 0.99371 0.0
C212 C 0.14349 0.66913 0.06833 0.0
N213 N 0.11522 0.66271 0.96931 0.0
C214 C 0.15886 0.68355 0.95282 0.0
C215 C 0.10735 0.65536 0.02622 0.0
C216 C 0.18805 0.69045 0.05185 0.0
C217 C 0.98648 0.56591 0.78216 0.0
N218 N 0.02539 0.58626 0.75558 0.0
C219 C 0.99051 0.53252 0.77435 0.0
C220 C 0.03468 0.52003 0.73892 0.0
C221 C 0.07403 0.54096 0.71173 0.0
C222 C 0.06873 0.5742 0.72065 0.0
C223 C 0.99173 0.63234 0.59162 0.0
C224 C 0.06267 0.66497 0.66936 0.0
C225 C 0.98918 0.62558 0.65054 0.0
N226 N 0.02464 0.6417 0.68851 0.0
C227 C 0.06645 0.67236 0.61075 0.0
C228 C 0.03072 0.65588 0.5717 0.0
C229 C 0.03567 0.69725 0.82548 0.0
C230 C 0.9003 0.63876 0.99242 0.0
C231 C 0.98643 0.68502 0.9735 0.0
C232 C 0.9347 0.69352 1.00264 0.0
C233 C 0.89138 0.6702 1.01203 0.0
N234 N 0.9948 0.65414 0.95427 0.0
C235 C 0.95259 0.63113 0.96345 0.0
Co236 Co 0.52188 0.6354 0.75877 0.0
Co237 Co 0.46753 0.64464 0.62144 0.0
O238 O 0.52337 0.62525 0.67617 0.0
C239 C 0.64778 0.64594 0.72964 0.0
O240 O 0.63107 0.66044 0.68201 0.0
C241 C 0.45879 0.57396 0.59321 0.0
O242 O 0.45244 0.56809 0.64848 0.0
O243 O 0.3991 0.63032 0.6696 0.0
O244 O 0.43369 0.63813 0.75885 0.0
H245 H 0.28771 0.70863 0.56537 0.0
H246 H 0.58689 0.57804 0.71718 0.0
O247 O 0.60989 0.63314 0.76298 0.0
H248 H 0.43797 0.53545 0.85236 0.0
H249 H 0.58444 0.62254 0.96587 0.0
H250 H 0.45938 0.68386 0.83033 0.0
H251 H 0.44613 0.59396 0.83461 0.0
H252 H 0.5841 0.60923 0.86232 0.0
O253 O 0.46473 0.60304 0.57595 0.0
H254 H 0.35953 0.68463 0.63292 0.0
H255 H 0.45595 0.64463 0.49321 0.0
H256 H 0.45811 0.69787 0.93359 0.0
H257 H 0.58082 0.51929 0.73409 0.0
H258 H 0.52093 0.66707 1.00216 0.0
H259 H 0.50577 0.49764 0.80197 0.0
O260 O 0.52767 0.68246 0.74141 0.0
H261 H 0.6618 0.62993 0.51991 0.0
H262 H 0.50288 0.70715 0.56682 0.0
H263 H 0.58865 0.72552 0.51019 0.0
H264 H 0.66881 0.68676 0.48618 0.0
H265 H 0.57561 0.61267 0.57722 0.0
H266 H 0.38487 0.66787 0.42408 0.0
H267 H 0.30014 0.7003 0.46007 0.0
O268 O 0.46978 0.6872 0.66345 0.0
C269 C 0.39132 0.63294 0.72393 0.0
C270 C 0.32448 0.6946 0.54912 0.0
C271 C 0.37898 0.6717 0.46985 0.0
N272 N 0.41207 0.66338 0.56704 0.0
C273 C 0.36536 0.68099 0.58717 0.0
C274 C 0.41898 0.65849 0.5092 0.0
C275 C 0.33147 0.6899 0.49007 0.0
C276 C 0.55441 0.56881 0.74709 0.0
N277 N 0.51682 0.58944 0.77481 0.0
C278 C 0.55106 0.53552 0.75636 0.0
C279 C 0.50889 0.52338 0.79438 0.0
C280 C 0.47079 0.54458 0.8226 0.0
C281 C 0.47539 0.57771 0.81218 0.0
C282 C 0.55668 0.63604 0.93647 0.0
C283 C 0.48669 0.67028 0.85994 0.0
C284 C 0.55628 0.62862 0.87779 0.0
N285 N 0.52126 0.64553 0.8404 0.0
C286 C 0.48584 0.67835 0.91835 0.0
C287 C 0.52109 0.66106 0.95679 0.0
C288 C 0.49982 0.69954 0.70456 0.0
C289 C 0.62708 0.64702 0.52995 0.0
C290 C 0.53772 0.69016 0.5569 0.0
C291 C 0.5861 0.70069 0.52462 0.0
C292 C 0.63103 0.67892 0.51112 0.0
N293 N 0.53413 0.65881 0.57518 0.0
C294 C 0.57804 0.63735 0.56216 0.0
Co295 Co 0.52415 0.90509 0.75312 0.0
Co296 Co 0.56664 0.89135 0.61159 0.0
O297 O 0.5183 0.91357 0.66976 0.0
C298 C 0.39735 0.89475 0.72965 0.0
O299 O 0.41269 0.88024 0.68167 0.0
C300 C 0.58713 0.96153 0.58387 0.0
O301 O 0.59523 0.96693 0.63906 0.0
O302 O 0.64066 0.9005 0.656 0.0
O303 O 0.61164 0.90206 0.74827 0.0
H304 H 0.7259 0.81517 0.54612 0.0
H305 H 0.45706 0.96183 0.71141 0.0
O306 O 0.43634 0.90762 0.76168 0.0
H307 H 0.61545 1.00645 0.83358 0.0
H308 H 0.47214 0.92236 0.96184 0.0
H309 H 0.59309 0.85948 0.82523 0.0
H310 H 0.60548 0.9476 0.8205 0.0
H311 H 0.4664 0.93306 0.85743 0.0
O312 O 0.57643 0.93288 0.5666 0.0
H313 H 0.66266 0.84285 0.61723 0.0
H314 H 0.57329 0.89252 0.48292 0.0
H315 H 0.60071 0.84823 0.92936 0.0
H316 H 0.46506 0.02088 0.72368 0.0
H317 H 0.53986 0.87976 0.99844 0.0
H318 H 0.54484 0.04353 0.78502 0.0
O319 O 0.51708 0.85756 0.74067 0.0
H320 H 0.37154 0.92018 0.52183 0.0
H321 H 0.516 0.83281 0.55477 0.0
H322 H 0.42468 0.82131 0.5006 0.0
H323 H 0.35164 0.86517 0.48388 0.0
H324 H 0.46345 0.93062 0.57583 0.0
H325 H 0.63593 0.86572 0.41031 0.0
H326 H 0.71282 0.82662 0.4418 0.0
O327 O 0.55632 0.84903 0.65284 0.0
C328 C 0.65181 0.90191 0.70993 0.0
C329 C 0.69257 0.83217 0.53184 0.0
C330 C 0.64219 0.86059 0.45564 0.0
N331 N 0.61456 0.86945 0.55426 0.0
C332 C 0.65658 0.84787 0.5719 0.0
C333 C 0.60709 0.87588 0.49696 0.0
C334 C 0.68526 0.83863 0.47333 0.0
C335 C 0.49159 0.97153 0.73852 0.0
N336 N 0.53067 0.9513 0.76529 0.0
C337 C 0.49603 1.00497 0.74516 0.0
C338 C 0.54085 0.01766 0.77951 0.0
C339 C 0.58051 0.99687 0.80673 0.0
C340 C 0.57477 0.96357 0.79902 0.0
C341 C 0.49897 0.9085 0.93219 0.0
C342 C 0.56674 0.87343 0.85506 0.0
C343 C 0.49582 0.9144 0.87301 0.0
N344 N 0.52959 0.89701 0.8353 0.0
C345 C 0.57114 0.8669 0.91396 0.0
C346 C 0.53696 0.88459 0.95269 0.0
C347 C 0.5342 0.839 0.70019 0.0
C348 C 0.40306 0.90088 0.52876 0.0
C349 C 0.48445 0.85204 0.54768 0.0
C350 C 0.43285 0.84539 0.51688 0.0
C351 C 0.3919 0.87 0.50752 0.0
N352 N 0.49511 0.88239 0.56834 0.0
C353 C 0.45523 0.90666 0.55919 0.0
Co354 Co 0.52462 0.40221 0.27029 0.0
Co355 Co 0.47123 0.39391 0.40883 0.0
O356 O 0.52652 0.41246 0.35279 0.0
C357 C 0.64961 0.38907 0.3002 0.0
O358 O 0.63159 0.37526 0.348 0.0
C359 C 0.46111 0.46493 0.43074 0.0
O360 O 0.4564 0.469 0.37482 0.0
O361 O 0.4019 0.40637 0.3601 0.0
O362 O 0.43644 0.40139 0.27012 0.0
H363 H 0.29489 0.32886 0.47038 0.0
H364 H 0.59356 0.45802 0.31229 0.0
O365 O 0.6128 0.40246 0.26636 0.0
H366 H 0.44753 0.50417 0.17763 0.0
H367 H 0.5886 0.41366 0.06339 0.0
H368 H 0.45836 0.35547 0.19846 0.0
H369 H 0.45222 0.44544 0.19431 0.0
H370 H 0.58916 0.42684 0.167 0.0
O371 O 0.46671 0.43648 0.45111 0.0
H372 H 0.36555 0.35199 0.40078 0.0
H373 H 0.45869 0.39798 0.53669 0.0
H374 H 0.45603 0.34168 0.09511 0.0
H375 H 0.59093 0.51695 0.29655 0.0
H376 H 0.52148 0.37089 0.02679 0.0
H377 H 0.51728 0.5404 0.22904 0.0
O378 O 0.52696 0.35497 0.28744 0.0
H379 H 0.66554 0.41273 0.50799 0.0
H380 H 0.50874 0.33318 0.46817 0.0
H381 H 0.59538 0.31691 0.52573 0.0
H382 H 0.6745 0.35685 0.54611 0.0
H383 H 0.57841 0.42788 0.45003 0.0
H384 H 0.38879 0.37555 0.60776 0.0
H385 H 0.30634 0.34058 0.57474 0.0
O386 O 0.4753 0.35061 0.36965 0.0
C387 C 0.39407 0.40513 0.30561 0.0
C388 C 0.33078 0.34395 0.48535 0.0
C389 C 0.38346 0.37017 0.56244 0.0
N390 N 0.41663 0.37594 0.46471 0.0
C391 C 0.37102 0.35703 0.44616 0.0
C392 C 0.42287 0.38282 0.52198 0.0
C393 C 0.33721 0.35055 0.54388 0.0
C394 C 0.56174 0.46802 0.28244 0.0
N395 N 0.52293 0.44827 0.25435 0.0
C396 C 0.56034 0.50141 0.27384 0.0
C397 C 0.51895 0.51456 0.23603 0.0
C398 C 0.47975 0.49426 0.20727 0.0
C399 C 0.48237 0.46099 0.21706 0.0
C400 C 0.55971 0.40084 0.09268 0.0
C401 C 0.48681 0.36837 0.16895 0.0
C402 C 0.55985 0.40819 0.1514 0.0
N403 N 0.52341 0.39214 0.18866 0.0
C404 C 0.48536 0.36043 0.1105 0.0
C405 C 0.52208 0.37682 0.07219 0.0
C406 C 0.50188 0.33808 0.32645 0.0
C407 C 0.63127 0.39513 0.49955 0.0
C408 C 0.54307 0.35067 0.47662 0.0
C409 C 0.59196 0.34134 0.5094 0.0
C410 C 0.63631 0.36376 0.52085 0.0
N411 N 0.5384 0.38151 0.45594 0.0
C412 C 0.58171 0.40362 0.46697 0.0
Co413 Co 0.51807 0.13383 0.26512 0.0
Co414 Co 0.56997 0.14269 0.40479 0.0
O415 O 0.51754 0.12283 0.34756 0.0
C416 C 0.39324 0.1439 0.29754 0.0
O417 O 0.41194 0.15854 0.34425 0.0
C418 C 0.58781 0.07154 0.42306 0.0
O419 O 0.5903 0.06801 0.36691 0.0
O420 O 0.64072 0.13457 0.35484 0.0
O421 O 0.6059 0.13631 0.26446 0.0
H422 H 0.73362 0.21612 0.46919 0.0
H423 H 0.45302 0.07617 0.30574 0.0
O424 O 0.43 0.13171 0.26232 0.0
H425 H 0.60195 0.03454 0.16957 0.0
H426 H 0.45164 0.12292 0.05892 0.0
H427 H 0.5806 0.18223 0.19343 0.0
H428 H 0.59355 0.09296 0.18834 0.0
H429 H 0.4532 0.10904 0.16229 0.0
O430 O 0.58154 0.09969 0.44442 0.0
H431 H 0.66566 0.19124 0.39896 0.0
H432 H 0.58686 0.13544 0.53196 0.0
H433 H 0.58074 0.19677 0.09034 0.0
H434 H 0.45947 0.01754 0.28787 0.0
H435 H 0.51598 0.16697 0.02229 0.0
H436 H 0.53455 0.99637 0.21957 0.0
O437 O 0.51294 0.18091 0.28274 0.0
H438 H 0.37862 0.11255 0.50045 0.0
H439 H 0.52578 0.19898 0.47293 0.0
H440 H 0.43815 0.20921 0.53347 0.0
H441 H 0.36364 0.16587 0.54725 0.0
H442 H 0.46715 0.10327 0.44069 0.0
H443 H 0.65429 0.15948 0.60351 0.0
H444 H 0.72817 0.20024 0.57229 0.0
O445 O 0.55776 0.18646 0.36885 0.0
C446 C 0.64844 0.13482 0.30024 0.0
C447 C 0.70149 0.19846 0.48335 0.0
C448 C 0.65704 0.16663 0.55872 0.0
N449 N 0.6221 0.16209 0.46138 0.0
C450 C 0.66279 0.18437 0.44382 0.0
C451 C 0.61909 0.15303 0.51797 0.0
C452 C 0.69846 0.18951 0.54118 0.0
C453 C 0.4854 0.06716 0.27551 0.0
N454 N 0.52284 0.088 0.24808 0.0
C455 C 0.48899 0.03393 0.26572 0.0
C456 C 0.5312 0.02207 0.22747 0.0
C457 C 0.56907 0.04347 0.19947 0.0
C458 C 0.56427 0.07654 0.21042 0.0
C459 C 0.48025 0.13599 0.0881 0.0
C460 C 0.55252 0.16905 0.16402 0.0
C461 C 0.48132 0.12824 0.14667 0.0
N462 N 0.51761 0.1445 0.18371 0.0
C463 C 0.55269 0.17744 0.10572 0.0
C464 C 0.51633 0.16072 0.06757 0.0
C465 C 0.53291 0.19809 0.32391 0.0
C466 C 0.4108 0.13162 0.49482 0.0
C467 C 0.49372 0.17993 0.47898 0.0
C468 C 0.44418 0.18587 0.51331 0.0
C469 C 0.4024 0.16154 0.52103 0.0
N470 N 0.50163 0.15053 0.45336 0.0
C471 C 0.46105 0.12649 0.46108 0.0
C472 C 0.99743 0.28388 0.2433 0.0
C473 C 0.03887 0.29914 0.20677 0.0
C474 C 0.98919 0.25013 0.2423 0.0
C475 C 0.02186 0.23048 0.20459 0.0
H476 H 0.96992 0.29814 0.27179 0.0
H477 H 0.95597 0.23946 0.27001 0.0
S478 S 0.14126 0.25711 0.1063 0.0
N479 N 0.11674 0.2908 0.13582 0.0
N480 N 0.10108 0.22788 0.13459 0.0
C481 C 0.065 0.24506 0.16993 0.0
C482 C 0.07356 0.27923 0.17085 0.0
C483 C 0.06857 0.78716 0.83552 0.0
C484 C 0.01452 0.80136 0.81959 0.0
C485 C 0.0753 0.7534 0.83694 0.0
C486 C 0.02869 0.73277 0.82091 0.0
H487 H 0.10538 0.80225 0.84836 0.0
H488 H 0.11727 0.74336 0.85063 0.0
S489 S 0.87824 0.75834 0.77627 0.0
N490 N 0.91345 0.79259 0.78867 0.0
N491 N 0.92654 0.72922 0.78892 0.0
C492 C 0.97474 0.74684 0.80397 0.0
C493 C 0.96751 0.78114 0.80401 0.0
C494 C 0.55178 0.7501 0.73801 0.0
C495 C 0.50485 0.7355 0.7075 0.0
C496 C 0.56051 0.78379 0.73688 0.0
C497 C 0.52251 0.80403 0.70543 0.0
H498 H 0.58315 0.73536 0.76157 0.0
H499 H 0.59795 0.79398 0.75957 0.0
S500 S 0.38976 0.77912 0.62348 0.0
N501 N 0.41752 0.74497 0.6484 0.0
N502 N 0.43412 0.80786 0.64694 0.0
C503 C 0.47438 0.79011 0.67673 0.0
C504 C 0.46547 0.75596 0.67761 0.0
C505 C 0.54773 0.28719 0.2862 0.0
C506 C 0.50625 0.30205 0.32323 0.0
C507 C 0.55562 0.25342 0.28561 0.0
C508 C 0.52243 0.23332 0.32206 0.0
H509 H 0.57539 0.30174 0.25832 0.0
H510 H 0.58869 0.24304 0.25738 0.0
S511 S 0.40374 0.25885 0.42204 0.0
N512 N 0.42852 0.29291 0.39409 0.0
N513 N 0.44348 0.22991 0.3922 0.0
C514 C 0.47956 0.2475 0.35754 0.0
C515 C 0.47143 0.28173 0.35833 0.0
C516 C 0.3123 0.14115 0.22466 0.0
C517 C 0.32965 0.14321 0.28287 0.0
C518 C 0.25252 0.14099 0.20891 0.0
C519 C 0.20788 0.14213 0.25085 0.0
H520 H 0.34516 0.14012 0.19076 0.0
H521 H 0.24122 0.13956 0.16361 0.0
S522 S 0.22965 0.14793 0.40913 0.0
N523 N 0.29729 0.14685 0.3825 0.0
N524 N 0.18486 0.14591 0.35307 0.0
C525 C 0.22452 0.14407 0.30923 0.0
C526 C 0.28543 0.14482 0.3252 0.0
C527 C 0.75714 0.39036 0.32517 0.0
C528 C 0.71254 0.38784 0.28335 0.0
C529 C 0.81701 0.39017 0.30937 0.0
C530 C 0.83436 0.38667 0.25135 0.0
H531 H 0.7457 0.39305 0.37024 0.0
H532 H 0.84996 0.39241 0.34301 0.0
S533 S 0.73431 0.37772 0.1258 0.0
N534 N 0.68959 0.38095 0.1817 0.0
N535 N 0.8019 0.38005 0.15223 0.0
C536 C 0.7901 0.38355 0.20931 0.0
C537 C 0.72924 0.3843 0.22526 0.0
C538 C 0.23 0.89631 0.72419 0.0
C539 C 0.21381 0.89419 0.78273 0.0
C540 C 0.28947 0.89626 0.70729 0.0
C541 C 0.33494 0.89488 0.74837 0.0
H542 H 0.19645 0.89739 0.69093 0.0
H543 H 0.29989 0.89761 0.66178 0.0
S544 S 0.31629 0.88909 0.90703 0.0
N545 N 0.24813 0.89042 0.8817 0.0
N546 N 0.35996 0.89102 0.85014 0.0
C547 C 0.31944 0.89304 0.80706 0.0
C548 C 0.25886 0.89248 0.8242 0.0
C549 C 0.75537 0.64212 0.70597 0.0
C550 C 0.7105 0.64588 0.74717 0.0
C551 C 0.81499 0.64106 0.72252 0.0
C552 C 0.83181 0.64448 0.7807 0.0
H553 H 0.7443 0.63946 0.6608 0.0
H554 H 0.84817 0.63799 0.68931 0.0
S555 S 0.7309 0.6565 0.90478 0.0
N556 N 0.68672 0.65392 0.84837 0.0
N557 N 0.7986 0.65245 0.87928 0.0
C558 C 0.78729 0.64882 0.82213 0.0
C559 C 0.72666 0.64936 0.80541 0.0
C560 C 0.72611 0.90643 0.78995 0.0
C561 C 0.71428 0.9027 0.73056 0.0
C562 C 0.78389 0.90594 0.81169 0.0
C563 C 0.83288 0.90151 0.77526 0.0
H564 H 0.69041 0.90952 0.82051 0.0
H565 H 0.78993 0.90878 0.85771 0.0
S566 S 0.82659 0.8903 0.61605 0.0
N567 N 0.75694 0.89458 0.63554 0.0
N568 N 0.86523 0.89309 0.67608 0.0
C569 C 0.8218 0.89782 0.7156 0.0
C570 C 0.76278 0.89857 0.6934 0.0
C571 C 0.28125 0.62821 0.7109 0.0
C572 C 0.33011 0.63118 0.74801 0.0
C573 C 0.22322 0.62804 0.7322 0.0
C574 C 0.21114 0.63056 0.79172 0.0
H575 H 0.28759 0.62652 0.66474 0.0
H576 H 0.18753 0.62627 0.70129 0.0
S577 S 0.32304 0.6384 0.90795 0.0
N578 N 0.36196 0.63664 0.848 0.0
N579 N 0.25345 0.63554 0.88761 0.0
C580 C 0.25953 0.63295 0.82951 0.0
C581 C 0.31869 0.63347 0.80782 0.0
C582 C 0.75842 0.13093 0.31415 0.0
C583 C 0.70988 0.13358 0.2766 0.0
C584 C 0.81656 0.13029 0.2933 0.0
C585 C 0.82919 0.13225 0.23377 0.0
H586 H 0.75172 0.12952 0.3603 0.0
H587 H 0.85189 0.12849 0.32461 0.0
S588 S 0.71831 0.13939 0.1165 0.0
N589 N 0.67884 0.13812 0.17618 0.0
N590 N 0.78778 0.13673 0.13744 0.0
C591 C 0.78117 0.13466 0.19556 0.0
C592 C 0.72179 0.13537 0.21679 0.0
C593 C 0.22571 0.40609 0.29874 0.0
C594 C 0.21334 0.40544 0.23911 0.0
C595 C 0.28387 0.40682 0.31966 0.0
C596 C 0.33262 0.40662 0.28203 0.0
H597 H 0.19022 0.40561 0.33001 0.0
H598 H 0.29044 0.40686 0.36589 0.0
S599 S 0.3248 0.40561 0.12163 0.0
N600 N 0.2552 0.40563 0.14262 0.0
N601 N 0.36405 0.40609 0.18146 0.0
C602 C 0.32089 0.40638 0.22215 0.0
C603 C 0.26155 0.40604 0.20087 0.0
C604 C 0.96383 1.0109 0.0679 0.0
C605 C 0.95387 0.04293 0.04966 0.0
C606 C 0.96331 0.98493 0.0287 0.0
C607 C 0.95257 0.98968 0.96935 0.0
H608 H 0.97321 1.00582 0.11277 0.0
H609 H 0.97197 0.96091 0.04523 0.0
S610 S 0.92014 0.06858 0.89958 0.0
N611 N 0.93001 0.07755 0.96815 0.0
N612 N 0.92955 0.02913 0.8949 0.0
C613 C 0.94143 0.02152 0.9507 0.0
C614 C 0.94195 0.04795 0.99063 0.0
C615 C 0.0804 0.54837 0.03438 0.0
C616 C 0.07956 0.54393 0.97411 0.0
C617 C 0.08001 0.52198 0.07274 0.0
C618 C 0.07825 0.48985 0.05275 0.0
H619 H 0.08165 0.57251 0.05233 0.0
H620 H 0.08081 0.52693 0.11855 0.0
S621 S 0.07447 0.46482 0.89882 0.0
N622 N 0.07637 0.50463 0.89638 0.0
N623 N 0.07526 0.45535 0.96789 0.0
C624 C 0.07708 0.48509 0.9925 0.0
C625 C 0.07787 0.51196 0.95345 0.0
C626 C 0.4536 0.48846 0.53067 0.0
C627 C 0.46036 0.49325 0.47084 0.0
C628 C 0.45299 0.51453 0.56956 0.0
C629 C 0.45946 0.5467 0.55062 0.0
H630 H 0.44838 0.46429 0.54785 0.0
H631 H 0.44746 0.5093 0.61497 0.0
S632 S 0.48093 0.57249 0.3984 0.0
N633 N 0.47497 0.53283 0.39473 0.0
N634 N 0.47439 0.58158 0.46731 0.0
C635 C 0.46681 0.55181 0.49084 0.0
C636 C 0.46707 0.52524 0.4512 0.0
C637 C 0.59844 0.02082 0.56063 0.0
C638 C 0.58874 0.98896 0.54148 0.0
C639 C 0.59867 0.04712 0.52212 0.0
C640 C 0.58962 0.04288 0.46245 0.0
H641 H 0.60548 0.02567 0.60596 0.0
H642 H 0.60597 0.07106 0.5395 0.0
S643 S 0.56135 0.96461 0.38945 0.0
N644 N 0.56913 0.95497 0.45803 0.0
N645 N 0.57018 1.00413 0.38619 0.0
C646 C 0.58027 1.01118 0.44253 0.0
C647 C 0.57962 0.98438 0.4818 0.0
loop_
_geom_bond_atom_site_label_1
_geom_bond_atom_site_label_2
_geom_bond_distance
_geom_bond_site_symmetry_2
_ccdc_geom_bond_type
Co0 O2 2.143 . S
Co0 O8 2.074 1_455 S
Co0 O11 2.093 . S
Co0 O24 2.097 . S
Co0 N41 2.151 . S
Co0 N49 2.214 . S
Co1 O2 2.160 1_655 S
Co1 O7 2.058 . S
Co1 O17 2.057 . S
Co1 O32 2.037 . S
Co1 N36 2.145 . S
Co1 N57 2.257 1_655 S
O2 Co0 2.143 . S
O2 Co1 2.160 1_455 S
C3 O4 1.278 . S
C3 O11 1.224 . S
O4 C3 1.278 . S
C5 O6 1.245 1_655 S
C5 O17 1.232 . S
O6 C5 1.245 1_455 S
O7 Co1 2.058 . S
O7 C33 1.269 . S
O8 Co0 2.074 1_655 S
O8 C33 1.257 . S
H9 C34 0.930 1_554 S
H10 C40 0.930 . S
O11 Co0 2.093 . S
O11 C3 1.224 . S
H12 C44 0.929 . S
H13 C46 0.930 . S
H14 C47 0.930 . S
H15 C45 0.929 . S
H16 C48 0.928 . S
O17 Co1 2.057 . S
O17 C5 1.232 . S
H18 C37 0.929 . S
H19 C38 0.929 . S
H20 C50 0.931 . S
H21 C42 0.929 . S
H22 C51 0.930 . S
H23 C43 0.931 . S
O24 Co0 2.097 . S
O24 C52 1.214 . S
H25 C53 0.929 . S
H26 C54 0.929 . S
H27 C55 0.930 . S
H28 C56 0.929 . S
H29 C58 0.930 . S
H30 C35 0.930 . S
H31 C39 0.930 . S
O32 Co1 2.037 . S
O32 C52 1.234 1_655 S
C33 O7 1.269 . S
C33 O8 1.257 . S
C34 H9 0.930 1_556 S
C34 C37 1.388 1_556 S
C34 C39 1.418 . S
C35 H30 0.930 . S
C35 C38 1.404 . S
C35 C39 1.353 . S
N36 Co1 2.145 . S
N36 C37 1.397 . S
N36 C38 1.334 1_554 S
C37 H18 0.929 . S
C37 C34 1.388 1_554 S
C37 N36 1.397 . S
C38 H19 0.929 . S
C38 C35 1.404 . S
C38 N36 1.334 1_556 S
C39 H31 0.930 . S
C39 C34 1.418 . S
C39 C35 1.353 . S
C40 H10 0.930 . S
C40 N41 1.330 . S
C40 C42 1.446 . S
N41 Co0 2.151 . S
N41 C40 1.330 . S
N41 C45 1.418 1_455 S
C42 H21 0.929 . S
C42 C40 1.446 . S
C42 C43 1.332 . S
C43 H23 0.931 . S
C43 C42 1.332 . S
C43 C44 1.267 1_455 S
C44 H12 0.929 . S
C44 C43 1.267 1_655 S
C44 C45 1.251 . S
C45 H15 0.929 . S
C45 N41 1.418 1_655 S
C45 C44 1.251 . S
C46 H13 0.930 . S
C46 C48 1.406 . S
C46 C51 1.261 1_455 S
C47 H14 0.930 . S
C47 N49 1.325 1_655 S
C47 C50 1.357 . S
C48 H16 0.928 . S
C48 C46 1.406 . S
C48 N49 1.261 . S
N49 Co0 2.214 . S
N49 C47 1.325 1_455 S
N49 C48 1.261 . S
C50 H20 0.931 . S
C50 C47 1.357 . S
C50 C51 1.312 . S
C51 H22 0.930 . S
C51 C46 1.261 1_655 S
C51 C50 1.312 . S
C52 O24 1.214 . S
C52 O32 1.234 1_455 S
C53 H25 0.929 . S
C53 C56 1.391 1_554 S
C53 C58 1.391 . S
C54 H26 0.929 . S
C54 C55 1.390 1_554 S
C54 N57 1.391 . S
C55 H27 0.930 . S
C55 C54 1.390 1_556 S
C55 C56 1.392 . S
C56 H28 0.929 . S
C56 C53 1.391 1_556 S
C56 C55 1.392 . S
N57 Co1 2.257 1_455 S
N57 C54 1.391 . S
N57 C58 1.388 . S
C58 H29 0.930 . S
C58 C53 1.391 . S
C58 N57 1.388 . S
Co59 O61 2.143 . S
Co59 O67 2.074 . S
Co59 O70 2.093 1_455 S
Co59 O83 2.097 . S
Co59 N100 2.151 . S
Co59 N108 2.214 . S
Co60 O61 2.160 . S
Co60 O66 2.058 . S
Co60 O76 2.057 . S
Co60 O91 2.037 . S
Co60 N95 2.145 . S
Co60 N116 2.257 1_455 S
O61 Co59 2.143 . S
O61 Co60 2.160 . S
C62 O63 1.278 . S
C62 O70 1.224 . S
O63 C62 1.278 . S
C64 O65 1.245 . S
C64 O76 1.232 . S
O65 C64 1.245 . S
O66 Co60 2.058 . S
O66 C92 1.269 . S
O67 Co59 2.074 . S
O67 C92 1.257 . S
H68 C93 0.930 1_554 S
H69 C99 0.930 . S
O70 Co59 2.093 1_655 S
O70 C62 1.224 . S
H71 C103 0.929 . S
H72 C105 0.930 1_655 S
H73 C106 0.930 . S
H74 C104 0.929 . S
H75 C107 0.928 . S
O76 Co60 2.057 . S
O76 C64 1.232 . S
H77 C96 0.929 . S
H78 C97 0.929 . S
H79 C109 0.931 . S
H80 C101 0.929 . S
H81 C110 0.930 . S
H82 C102 0.931 . S
O83 Co59 2.097 . S
O83 C111 1.214 . S
H84 C112 0.929 . S
H85 C113 0.929 1_455 S
H86 C114 0.930 . S
H87 C115 0.929 . S
H88 C117 0.930 . S
H89 C94 0.930 . S
H90 C98 0.930 . S
O91 Co60 2.037 . S
O91 C111 1.234 . S
C92 O66 1.269 . S
C92 O67 1.257 . S
C93 H68 0.930 1_556 S
C93 C96 1.388 1_556 S
C93 C98 1.418 . S
C94 H89 0.930 . S
C94 C97 1.404 . S
C94 C98 1.353 . S
N95 Co60 2.145 . S
N95 C96 1.397 . S
N95 C97 1.334 1_554 S
C96 H77 0.929 . S
C96 C93 1.388 1_554 S
C96 N95 1.397 . S
C97 H78 0.929 . S
C97 C94 1.404 . S
C97 N95 1.334 1_556 S
C98 H90 0.930 . S
C98 C93 1.418 . S
C98 C94 1.353 . S
C99 H69 0.930 . S
C99 N100 1.330 1_655 S
C99 C101 1.446 . S
N100 Co59 2.151 . S
N100 C99 1.330 1_455 S
N100 C104 1.418 . S
C101 H80 0.929 . S
C101 C99 1.446 . S
C101 C102 1.332 1_655 S
C102 H82 0.931 . S
C102 C101 1.332 1_455 S
C102 C103 1.267 . S
C103 H71 0.929 . S
C103 C102 1.267 . S
C103 C104 1.251 . S
C104 H74 0.929 . S
C104 N100 1.418 . S
C104 C103 1.251 . S
C105 H72 0.930 1_455 S
C105 C107 1.406 1_455 S
C105 C110 1.261 . S
C106 H73 0.930 . S
C106 N108 1.325 . S
C106 C109 1.357 . S
C107 H75 0.928 . S
C107 C105 1.406 1_655 S
C107 N108 1.261 1_655 S
N108 Co59 2.214 . S
N108 C106 1.325 . S
N108 C107 1.261 1_455 S
C109 H79 0.931 . S
C109 C106 1.357 . S
C109 C110 1.312 . S
C110 H81 0.930 . S
C110 C105 1.261 . S
C110 C109 1.312 . S
C111 O83 1.214 . S
C111 O91 1.234 . S
C112 H84 0.929 . S
C112 C115 1.391 1_554 S
C112 C117 1.391 . S
C113 H85 0.929 1_655 S
C113 C114 1.390 1_554 S
C113 N116 1.391 . S
C114 H86 0.930 . S
C114 C113 1.390 1_556 S
C114 C115 1.392 . S
C115 H87 0.929 . S
C115 C112 1.391 1_556 S
C115 C114 1.392 . S
N116 Co60 2.257 1_655 S
N116 C113 1.391 . S
N116 C117 1.388 . S
C117 H88 0.930 . S
C117 C112 1.391 . S
C117 N116 1.388 . S
Co118 O120 2.143 . S
Co118 O126 2.074 1_455 S
Co118 O129 2.093 . S
Co118 O142 2.097 . S
Co118 N159 2.151 . S
Co118 N167 2.214 . S
Co119 O120 2.160 1_655 S
Co119 O125 2.058 . S
Co119 O135 2.057 . S
Co119 O150 2.037 . S
Co119 N154 2.145 . S
Co119 N175 2.257 1_655 S
O120 Co118 2.143 . S
O120 Co119 2.160 1_455 S
C121 O122 1.278 . S
C121 O129 1.224 . S
O122 C121 1.278 . S
C123 O124 1.245 1_655 S
C123 O135 1.232 . S
O124 C123 1.245 1_455 S
O125 Co119 2.058 . S
O125 C151 1.269 . S
O126 Co118 2.074 1_655 S
O126 C151 1.257 . S
H127 C152 0.930 1_556 S
H128 C158 0.930 . S
O129 Co118 2.093 . S
O129 C121 1.224 . S
H130 C162 0.929 . S
H131 C164 0.930 . S
H132 C165 0.930 . S
H133 C163 0.929 . S
H134 C166 0.928 . S
O135 Co119 2.057 . S
O135 C123 1.232 . S
H136 C155 0.929 . S
H137 C156 0.929 . S
H138 C168 0.931 . S
H139 C160 0.929 . S
H140 C169 0.930 . S
H141 C161 0.931 . S
O142 Co118 2.097 . S
O142 C170 1.214 . S
H143 C171 0.929 . S
H144 C172 0.929 . S
H145 C173 0.930 . S
H146 C174 0.929 . S
H147 C176 0.930 . S
H148 C153 0.930 . S
H149 C157 0.930 . S
O150 Co119 2.037 . S
O150 C170 1.234 1_655 S
C151 O125 1.269 . S
C151 O126 1.257 . S
C152 H127 0.930 1_554 S
C152 C155 1.388 1_554 S
C152 C157 1.418 . S
C153 H148 0.930 . S
C153 C156 1.404 . S
C153 C157 1.353 . S
N154 Co119 2.145 . S
N154 C155 1.397 . S
N154 C156 1.334 1_556 S
C155 H136 0.929 . S
C155 C152 1.388 1_556 S
C155 N154 1.397 . S
C156 H137 0.929 . S
C156 C153 1.404 . S
C156 N154 1.334 1_554 S
C157 H149 0.930 . S
C157 C152 1.418 . S
C157 C153 1.353 . S
C158 H128 0.930 . S
C158 N159 1.330 . S
C158 C160 1.446 . S
N159 Co118 2.151 . S
N159 C158 1.330 . S
N159 C163 1.418 1_455 S
C160 H139 0.929 . S
C160 C158 1.446 . S
C160 C161 1.332 . S
C161 H141 0.931 . S
C161 C160 1.332 . S
C161 C162 1.267 1_455 S
C162 H130 0.929 . S
C162 C161 1.267 1_655 S
C162 C163 1.251 . S
C163 H133 0.929 . S
C163 N159 1.418 1_655 S
C163 C162 1.251 . S
C164 H131 0.930 . S
C164 C166 1.406 . S
C164 C169 1.261 1_455 S
C165 H132 0.930 . S
C165 N167 1.325 1_655 S
C165 C168 1.357 . S
C166 H134 0.928 . S
C166 C164 1.406 . S
C166 N167 1.261 . S
N167 Co118 2.214 . S
N167 C165 1.325 1_455 S
N167 C166 1.261 . S
C168 H138 0.931 . S
C168 C165 1.357 . S
C168 C169 1.312 . S
C169 H140 0.930 . S
C169 C164 1.261 1_655 S
C169 C168 1.312 . S
C170 O142 1.214 . S
C170 O150 1.234 1_455 S
C171 H143 0.929 . S
C171 C174 1.391 1_556 S
C171 C176 1.391 . S
C172 H144 0.929 . S
C172 C173 1.390 1_556 S
C172 N175 1.391 . S
C173 H145 0.930 . S
C173 C172 1.390 1_554 S
C173 C174 1.392 . S
C174 H146 0.929 . S
C174 C171 1.391 1_554 S
C174 C173 1.392 . S
N175 Co119 2.257 1_455 S
N175 C172 1.391 . S
N175 C176 1.388 . S
C176 H147 0.930 . S
C176 C171 1.391 . S
C176 N175 1.388 . S
Co177 O179 2.143 . S
Co177 O185 2.074 . S
Co177 O188 2.093 1_455 S
Co177 O201 2.097 . S
Co177 N218 2.151 . S
Co177 N226 2.214 . S
Co178 O179 2.160 . S
Co178 O184 2.058 . S
Co178 O194 2.057 . S
Co178 O209 2.037 . S
Co178 N213 2.145 . S
Co178 N234 2.257 1_455 S
O179 Co177 2.143 . S
O179 Co178 2.160 . S
C180 O181 1.278 . S
C180 O188 1.224 . S
O181 C180 1.278 . S
C182 O183 1.245 . S
C182 O194 1.232 . S
O183 C182 1.245 . S
O184 Co178 2.058 . S
O184 C210 1.269 . S
O185 Co177 2.074 . S
O185 C210 1.257 . S
H186 C211 0.930 1_556 S
H187 C217 0.930 . S
O188 Co177 2.093 1_655 S
O188 C180 1.224 . S
H189 C221 0.929 . S
H190 C223 0.930 1_655 S
H191 C224 0.930 . S
H192 C222 0.929 . S
H193 C225 0.928 . S
O194 Co178 2.057 . S
O194 C182 1.232 . S
H195 C214 0.929 . S
H196 C215 0.929 . S
H197 C227 0.931 . S
H198 C219 0.929 . S
H199 C228 0.930 . S
H200 C220 0.931 . S
O201 Co177 2.097 . S
O201 C229 1.214 . S
H202 C230 0.929 . S
H203 C231 0.929 1_455 S
H204 C232 0.930 . S
H205 C233 0.929 . S
H206 C235 0.930 . S
H207 C212 0.930 . S
H208 C216 0.930 . S
O209 Co178 2.037 . S
O209 C229 1.234 . S
C210 O184 1.269 . S
C210 O185 1.257 . S
C211 H186 0.930 1_554 S
C211 C214 1.388 1_554 S
C211 C216 1.418 . S
C212 H207 0.930 . S
C212 C215 1.404 . S
C212 C216 1.353 . S
N213 Co178 2.145 . S
N213 C214 1.397 . S
N213 C215 1.334 1_556 S
C214 H195 0.929 . S
C214 C211 1.388 1_556 S
C214 N213 1.397 . S
C215 H196 0.929 . S
C215 C212 1.404 . S
C215 N213 1.334 1_554 S
C216 H208 0.930 . S
C216 C211 1.418 . S
C216 C212 1.353 . S
C217 H187 0.930 . S
C217 N218 1.330 1_655 S
C217 C219 1.446 . S
N218 Co177 2.151 . S
N218 C217 1.330 1_455 S
N218 C222 1.418 . S
C219 H198 0.929 . S
C219 C217 1.446 . S
C219 C220 1.332 1_655 S
C220 H200 0.931 . S
C220 C219 1.332 1_455 S
C220 C221 1.267 . S
C221 H189 0.929 . S
C221 C220 1.267 . S
C221 C222 1.251 . S
C222 H192 0.929 . S
C222 N218 1.418 . S
C222 C221 1.251 . S
C223 H190 0.930 1_455 S
C223 C225 1.406 1_455 S
C223 C228 1.261 . S
C224 H191 0.930 . S
C224 N226 1.325 . S
C224 C227 1.357 . S
C225 H193 0.928 . S
C225 C223 1.406 1_655 S
C225 N226 1.261 1_655 S
N226 Co177 2.214 . S
N226 C224 1.325 . S
N226 C225 1.261 1_455 S
C227 H197 0.931 . S
C227 C224 1.357 . S
C227 C228 1.312 . S
C228 H199 0.930 . S
C228 C223 1.261 . S
C228 C227 1.312 . S
C229 O201 1.214 . S
C229 O209 1.234 . S
C230 H202 0.929 . S
C230 C233 1.391 1_556 S
C230 C235 1.391 . S
C231 H203 0.929 1_655 S
C231 C232 1.390 1_556 S
C231 N234 1.391 . S
C232 H204 0.930 . S
C232 C231 1.390 1_554 S
C232 C233 1.392 . S
C233 H205 0.929 . S
C233 C230 1.391 1_554 S
C233 C232 1.392 . S
N234 Co178 2.257 1_655 S
N234 C231 1.391 . S
N234 C235 1.388 . S
C235 H206 0.930 . S
C235 C230 1.391 . S
C235 N234 1.388 . S
Co236 O238 2.143 . S
Co236 O244 2.074 . S
Co236 O247 2.093 . S
Co236 O260 2.097 . S
Co236 N277 2.151 . S
Co236 N285 2.214 . S
Co237 O238 2.160 . S
Co237 O243 2.058 . S
Co237 O253 2.057 . S
Co237 O268 2.037 . S
Co237 N272 2.145 . S
Co237 N293 2.257 . S
O238 Co236 2.143 . S
O238 Co237 2.160 . S
C239 O240 1.278 . S
C239 O247 1.224 . S
O240 C239 1.278 . S
C241 O242 1.245 . S
C241 O253 1.232 . S
O242 C241 1.245 . S
O243 Co237 2.058 . S
O243 C269 1.269 . S
O244 Co236 2.074 . S
O244 C269 1.257 . S
H245 C270 0.930 . S
H246 C276 0.930 . S
O247 Co236 2.093 . S
O247 C239 1.224 . S
H248 C280 0.929 . S
H249 C282 0.930 . S
H250 C283 0.930 . S
H251 C281 0.929 . S
H252 C284 0.928 . S
O253 Co237 2.057 . S
O253 C241 1.232 . S
H254 C273 0.929 . S
H255 C274 0.929 . S
H256 C286 0.931 . S
H257 C278 0.929 . S
H258 C287 0.930 . S
H259 C279 0.931 . S
O260 Co236 2.097 . S
O260 C288 1.214 . S
H261 C289 0.929 . S
H262 C290 0.929 . S
H263 C291 0.930 . S
H264 C292 0.929 . S
H265 C294 0.930 . S
H266 C271 0.930 . S
H267 C275 0.930 . S
O268 Co237 2.037 . S
O268 C288 1.234 . S
C269 O243 1.269 . S
C269 O244 1.257 . S
C270 H245 0.930 . S
C270 C273 1.388 . S
C270 C275 1.418 . S
C271 H266 0.930 . S
C271 C274 1.404 . S
C271 C275 1.353 . S
N272 Co237 2.145 . S
N272 C273 1.397 . S
N272 C274 1.334 . S
C273 H254 0.929 . S
C273 C270 1.388 . S
C273 N272 1.397 . S
C274 H255 0.929 . S
C274 C271 1.404 . S
C274 N272 1.334 . S
C275 H267 0.930 . S
C275 C270 1.418 . S
C275 C271 1.353 . S
C276 H246 0.930 . S
C276 N277 1.330 . S
C276 C278 1.446 . S
N277 Co236 2.151 . S
N277 C276 1.330 . S
N277 C281 1.418 . S
C278 H257 0.929 . S
C278 C276 1.446 . S
C278 C279 1.332 . S
C279 H259 0.931 . S
C279 C278 1.332 . S
C279 C280 1.267 . S
C280 H248 0.929 . S
C280 C279 1.267 . S
C280 C281 1.251 . S
C281 H251 0.929 . S
C281 N277 1.418 . S
C281 C280 1.251 . S
C282 H249 0.930 . S
C282 C284 1.406 . S
C282 C287 1.261 . S
C283 H250 0.930 . S
C283 N285 1.325 . S
C283 C286 1.357 . S
C284 H252 0.928 . S
C284 C282 1.406 . S
C284 N285 1.261 . S
N285 Co236 2.214 . S
N285 C283 1.325 . S
N285 C284 1.261 . S
C286 H256 0.931 . S
C286 C283 1.357 . S
C286 C287 1.312 . S
C287 H258 0.930 . S
C287 C282 1.261 . S
C287 C286 1.312 . S
C288 O260 1.214 . S
C288 O268 1.234 . S
C289 H261 0.929 . S
C289 C292 1.391 . S
C289 C294 1.391 . S
C290 H262 0.929 . S
C290 C291 1.390 . S
C290 N293 1.391 . S
C291 H263 0.930 . S
C291 C290 1.390 . S
C291 C292 1.392 . S
C292 H264 0.929 . S
C292 C289 1.391 . S
C292 C291 1.392 . S
N293 Co237 2.257 . S
N293 C290 1.391 . S
N293 C294 1.388 . S
C294 H265 0.930 . S
C294 C289 1.391 . S
C294 N293 1.388 . S
Co295 O297 2.143 . S
Co295 O303 2.074 . S
Co295 O306 2.093 . S
Co295 O319 2.097 . S
Co295 N336 2.151 . S
Co295 N344 2.214 . S
Co296 O297 2.160 . S
Co296 O302 2.058 . S
Co296 O312 2.057 . S
Co296 O327 2.037 . S
Co296 N331 2.145 . S
Co296 N352 2.257 . S
O297 Co295 2.143 . S
O297 Co296 2.160 . S
C298 O299 1.278 . S
C298 O306 1.224 . S
O299 C298 1.278 . S
C300 O301 1.245 . S
C300 O312 1.232 . S
O301 C300 1.245 . S
O302 Co296 2.058 . S
O302 C328 1.269 . S
O303 Co295 2.074 . S
O303 C328 1.257 . S
H304 C329 0.930 . S
H305 C335 0.930 . S
O306 Co295 2.093 . S
O306 C298 1.224 . S
H307 C339 0.929 . S
H308 C341 0.930 . S
H309 C342 0.930 . S
H310 C340 0.929 . S
H311 C343 0.928 . S
O312 Co296 2.057 . S
O312 C300 1.232 . S
H313 C332 0.929 . S
H314 C333 0.929 . S
H315 C345 0.931 . S
H316 C337 0.929 . S
H317 C346 0.930 . S
H318 C338 0.931 . S
O319 Co295 2.097 . S
O319 C347 1.214 . S
H320 C348 0.929 . S
H321 C349 0.929 . S
H322 C350 0.930 . S
H323 C351 0.929 . S
H324 C353 0.930 . S
H325 C330 0.930 . S
H326 C334 0.930 . S
O327 Co296 2.037 . S
O327 C347 1.234 . S
C328 O302 1.269 . S
C328 O303 1.257 . S
C329 H304 0.930 . S
C329 C332 1.388 . S
C329 C334 1.418 . S
C330 H325 0.930 . S
C330 C333 1.404 . S
C330 C334 1.353 . S
N331 Co296 2.145 . S
N331 C332 1.397 . S
N331 C333 1.334 . S
C332 H313 0.929 . S
C332 C329 1.388 . S
C332 N331 1.397 . S
C333 H314 0.929 . S
C333 C330 1.404 . S
C333 N331 1.334 . S
C334 H326 0.930 . S
C334 C329 1.418 . S
C334 C330 1.353 . S
C335 H305 0.930 . S
C335 N336 1.330 . S
C335 C337 1.446 . S
N336 Co295 2.151 . S
N336 C335 1.330 . S
N336 C340 1.418 . S
C337 H316 0.929 . S
C337 C335 1.446 . S
C337 C338 1.332 . S
C338 H318 0.931 . S
C338 C337 1.332 . S
C338 C339 1.267 . S
C339 H307 0.929 . S
C339 C338 1.267 . S
C339 C340 1.251 . S
C340 H310 0.929 . S
C340 N336 1.418 . S
C340 C339 1.251 . S
C341 H308 0.930 . S
C341 C343 1.406 . S
C341 C346 1.261 . S
C342 H309 0.930 . S
C342 N344 1.325 . S
C342 C345 1.357 . S
C343 H311 0.928 . S
C343 C341 1.406 . S
C343 N344 1.261 . S
N344 Co295 2.214 . S
N344 C342 1.325 . S
N344 C343 1.261 . S
C345 H315 0.931 . S
C345 C342 1.357 . S
C345 C346 1.312 . S
C346 H317 0.930 . S
C346 C341 1.261 . S
C346 C345 1.312 . S
C347 O319 1.214 . S
C347 O327 1.234 . S
C348 H320 0.929 . S
C348 C351 1.391 . S
C348 C353 1.391 . S
C349 H321 0.929 . S
C349 C350 1.390 . S
C349 N352 1.391 . S
C350 H322 0.930 . S
C350 C349 1.390 . S
C350 C351 1.392 . S
C351 H323 0.929 . S
C351 C348 1.391 . S
C351 C350 1.392 . S
N352 Co296 2.257 . S
N352 C349 1.391 . S
N352 C353 1.388 . S
C353 H324 0.930 . S
C353 C348 1.391 . S
C353 N352 1.388 . S
Co354 O356 2.143 . S
Co354 O362 2.074 . S
Co354 O365 2.093 . S
Co354 O378 2.097 . S
Co354 N395 2.151 . S
Co354 N403 2.214 . S
Co355 O356 2.160 . S
Co355 O361 2.058 . S
Co355 O371 2.057 . S
Co355 O386 2.037 . S
Co355 N390 2.145 . S
Co355 N411 2.257 . S
O356 Co354 2.143 . S
O356 Co355 2.160 . S
C357 O358 1.278 . S
C357 O365 1.224 . S
O358 C357 1.278 . S
C359 O360 1.245 . S
C359 O371 1.232 . S
O360 C359 1.245 . S
O361 Co355 2.058 . S
O361 C387 1.269 . S
O362 Co354 2.074 . S
O362 C387 1.257 . S
H363 C388 0.930 . S
H364 C394 0.930 . S
O365 Co354 2.093 . S
O365 C357 1.224 . S
H366 C398 0.929 . S
H367 C400 0.930 . S
H368 C401 0.930 . S
H369 C399 0.929 . S
H370 C402 0.928 . S
O371 Co355 2.057 . S
O371 C359 1.232 . S
H372 C391 0.929 . S
H373 C392 0.929 . S
H374 C404 0.931 . S
H375 C396 0.929 . S
H376 C405 0.930 . S
H377 C397 0.931 . S
O378 Co354 2.097 . S
O378 C406 1.214 . S
H379 C407 0.929 . S
H380 C408 0.929 . S
H381 C409 0.930 . S
H382 C410 0.929 . S
H383 C412 0.930 . S
H384 C389 0.930 . S
H385 C393 0.930 . S
O386 Co355 2.037 . S
O386 C406 1.234 . S
C387 O361 1.269 . S
C387 O362 1.257 . S
C388 H363 0.930 . S
C388 C391 1.388 . S
C388 C393 1.418 . S
C389 H384 0.930 . S
C389 C392 1.404 . S
C389 C393 1.353 . S
N390 Co355 2.145 . S
N390 C391 1.397 . S
N390 C392 1.334 . S
C391 H372 0.929 . S
C391 C388 1.388 . S
C391 N390 1.397 . S
C392 H373 0.929 . S
C392 C389 1.404 . S
C392 N390 1.334 . S
C393 H385 0.930 . S
C393 C388 1.418 . S
C393 C389 1.353 . S
C394 H364 0.930 . S
C394 N395 1.330 . S
C394 C396 1.446 . S
N395 Co354 2.151 . S
N395 C394 1.330 . S
N395 C399 1.418 . S
C396 H375 0.929 . S
C396 C394 1.446 . S
C396 C397 1.332 . S
C397 H377 0.931 . S
C397 C396 1.332 . S
C397 C398 1.267 . S
C398 H366 0.929 . S
C398 C397 1.267 . S
C398 C399 1.251 . S
C399 H369 0.929 . S
C399 N395 1.418 . S
C399 C398 1.251 . S
C400 H367 0.930 . S
C400 C402 1.406 . S
C400 C405 1.261 . S
C401 H368 0.930 . S
C401 N403 1.325 . S
C401 C404 1.357 . S
C402 H370 0.928 . S
C402 C400 1.406 . S
C402 N403 1.261 . S
N403 Co354 2.214 . S
N403 C401 1.325 . S
N403 C402 1.261 . S
C404 H374 0.931 . S
C404 C401 1.357 . S
C404 C405 1.312 . S
C405 H376 0.930 . S
C405 C400 1.261 . S
C405 C404 1.312 . S
C406 O378 1.214 . S
C406 O386 1.234 . S
C407 H379 0.929 . S
C407 C410 1.391 . S
C407 C412 1.391 . S
C408 H380 0.929 . S
C408 C409 1.390 . S
C408 N411 1.391 . S
C409 H381 0.930 . S
C409 C408 1.390 . S
C409 C410 1.392 . S
C410 H382 0.929 . S
C410 C407 1.391 . S
C410 C409 1.392 . S
N411 Co355 2.257 . S
N411 C408 1.391 . S
N411 C412 1.388 . S
C412 H383 0.930 . S
C412 C407 1.391 . S
C412 N411 1.388 . S
Co413 O415 2.143 . S
Co413 O421 2.074 . S
Co413 O424 2.093 . S
Co413 O437 2.097 . S
Co413 N454 2.151 . S
Co413 N462 2.214 . S
Co414 O415 2.160 . S
Co414 O420 2.058 . S
Co414 O430 2.057 . S
Co414 O445 2.037 . S
Co414 N449 2.145 . S
Co414 N470 2.257 . S
O415 Co413 2.143 . S
O415 Co414 2.160 . S
C416 O417 1.278 . S
C416 O424 1.224 . S
O417 C416 1.278 . S
C418 O419 1.245 . S
C418 O430 1.232 . S
O419 C418 1.245 . S
O420 Co414 2.058 . S
O420 C446 1.269 . S
O421 Co413 2.074 . S
O421 C446 1.257 . S
H422 C447 0.930 . S
H423 C453 0.930 . S
O424 Co413 2.093 . S
O424 C416 1.224 . S
H425 C457 0.929 . S
H426 C459 0.930 . S
H427 C460 0.930 . S
H428 C458 0.929 . S
H429 C461 0.928 . S
O430 Co414 2.057 . S
O430 C418 1.232 . S
H431 C450 0.929 . S
H432 C451 0.929 . S
H433 C463 0.931 . S
H434 C455 0.929 . S
H435 C464 0.930 . S
H436 C456 0.931 . S
O437 Co413 2.097 . S
O437 C465 1.214 . S
H438 C466 0.929 . S
H439 C467 0.929 . S
H440 C468 0.930 . S
H441 C469 0.929 . S
H442 C471 0.930 . S
H443 C448 0.930 . S
H444 C452 0.930 . S
O445 Co414 2.037 . S
O445 C465 1.234 . S
C446 O420 1.269 . S
C446 O421 1.257 . S
C447 H422 0.930 . S
C447 C450 1.388 . S
C447 C452 1.418 . S
C448 H443 0.930 . S
C448 C451 1.404 . S
C448 C452 1.353 . S
N449 Co414 2.145 . S
N449 C450 1.397 . S
N449 C451 1.334 . S
C450 H431 0.929 . S
C450 C447 1.388 . S
C450 N449 1.397 . S
C451 H432 0.929 . S
C451 C448 1.404 . S
C451 N449 1.334 . S
C452 H444 0.930 . S
C452 C447 1.418 . S
C452 C448 1.353 . S
C453 H423 0.930 . S
C453 N454 1.330 . S
C453 C455 1.446 . S
N454 Co413 2.151 . S
N454 C453 1.330 . S
N454 C458 1.418 . S
C455 H434 0.929 . S
C455 C453 1.446 . S
C455 C456 1.332 . S
C456 H436 0.931 . S
C456 C455 1.332 . S
C456 C457 1.267 . S
C457 H425 0.929 . S
C457 C456 1.267 . S
C457 C458 1.251 . S
C458 H428 0.929 . S
C458 N454 1.418 . S
C458 C457 1.251 . S
C459 H426 0.930 . S
C459 C461 1.406 . S
C459 C464 1.261 . S
C460 H427 0.930 . S
C460 N462 1.325 . S
C460 C463 1.357 . S
C461 H429 0.928 . S
C461 C459 1.406 . S
C461 N462 1.261 . S
N462 Co413 2.214 . S
N462 C460 1.325 . S
N462 C461 1.261 . S
C463 H433 0.931 . S
C463 C460 1.357 . S
C463 C464 1.312 . S
C464 H435 0.930 . S
C464 C459 1.261 . S
C464 C463 1.312 . S
C465 O437 1.214 . S
C465 O445 1.234 . S
C466 H438 0.929 . S
C466 C469 1.391 . S
C466 C471 1.391 . S
C467 H439 0.929 . S
C467 C468 1.390 . S
C467 N470 1.391 . S
C468 H440 0.930 . S
C468 C467 1.390 . S
C468 C469 1.392 . S
C469 H441 0.929 . S
C469 C466 1.391 . S
C469 C468 1.392 . S
N470 Co414 2.257 . S
N470 C467 1.391 . S
N470 C471 1.388 . S
C471 H442 0.930 . S
C471 C466 1.391 . S
C471 N470 1.388 . S
C472 C473 1.369 1_655 S
C472 C474 1.419 . S
C472 H476 0.930 . S
C473 C472 1.369 1_455 S
C473 C482 1.429 . S
C474 C472 1.419 . S
C474 C475 1.363 1_655 S
C474 H477 0.929 . S
C475 C474 1.363 1_455 S
C475 C481 1.428 . S
H476 C472 0.930 . S
H477 C474 0.929 . S
S478 N479 1.613 . S
S478 N480 1.610 . S
N479 S478 1.613 . S
N479 C482 1.350 . S
N480 S478 1.610 . S
N480 C481 1.351 . S
C481 C475 1.428 . S
C481 N480 1.351 . S
C481 C482 1.434 . S
C482 C473 1.429 . S
C482 N479 1.350 . S
C482 C481 1.434 . S
C483 C484 1.369 . S
C483 C485 1.419 . S
C483 H487 0.930 . S
C484 C483 1.369 . S
C484 C493 1.429 1_455 S
C485 C483 1.419 . S
C485 C486 1.363 . S
C485 H488 0.929 . S
C486 C485 1.363 . S
C486 C492 1.428 1_455 S
H487 C483 0.930 . S
H488 C485 0.929 . S
S489 N490 1.613 . S
S489 N491 1.610 . S
N490 S489 1.613 . S
N490 C493 1.350 . S
N491 S489 1.610 . S
N491 C492 1.351 . S
C492 C486 1.428 1_655 S
C492 N491 1.351 . S
C492 C493 1.434 . S
C493 C484 1.429 1_655 S
C493 N490 1.350 . S
C493 C492 1.434 . S
C494 C495 1.369 . S
C494 C496 1.419 . S
C494 H498 0.930 . S
C495 C494 1.369 . S
C495 C504 1.429 . S
C496 C494 1.419 . S
C496 C497 1.363 . S
C496 H499 0.929 . S
C497 C496 1.363 . S
C497 C503 1.428 . S
H498 C494 0.930 . S
H499 C496 0.929 . S
S500 N501 1.613 . S
S500 N502 1.610 . S
N501 S500 1.613 . S
N501 C504 1.350 . S
N502 S500 1.610 . S
N502 C503 1.351 . S
C503 C497 1.428 . S
C503 N502 1.351 . S
C503 C504 1.434 . S
C504 C495 1.429 . S
C504 N501 1.350 . S
C504 C503 1.434 . S
C505 C506 1.369 . S
C505 C507 1.419 . S
C505 H509 0.930 . S
C506 C505 1.369 . S
C506 C515 1.429 . S
C507 C505 1.419 . S
C507 C508 1.363 . S
C507 H510 0.929 . S
C508 C507 1.363 . S
C508 C514 1.428 . S
H509 C505 0.930 . S
H510 C507 0.929 . S
S511 N512 1.613 . S
S511 N513 1.610 . S
N512 S511 1.613 . S
N512 C515 1.350 . S
N513 S511 1.610 . S
N513 C514 1.351 . S
C514 C508 1.428 . S
C514 N513 1.351 . S
C514 C515 1.434 . S
C515 C506 1.429 . S
C515 N512 1.350 . S
C515 C514 1.434 . S
C516 C517 1.369 . S
C516 C518 1.419 . S
C516 H520 0.930 . S
C517 C516 1.369 . S
C517 C526 1.429 . S
C518 C516 1.419 . S
C518 C519 1.363 . S
C518 H521 0.929 . S
C519 C518 1.363 . S
C519 C525 1.428 . S
H520 C516 0.930 . S
H521 C518 0.929 . S
S522 N523 1.613 . S
S522 N524 1.610 . S
N523 S522 1.613 . S
N523 C526 1.350 . S
N524 S522 1.610 . S
N524 C525 1.351 . S
C525 C519 1.428 . S
C525 N524 1.351 . S
C525 C526 1.434 . S
C526 C517 1.429 . S
C526 N523 1.350 . S
C526 C525 1.434 . S
C527 C528 1.369 . S
C527 C529 1.419 . S
C527 H531 0.930 . S
C528 C527 1.369 . S
C528 C537 1.429 . S
C529 C527 1.419 . S
C529 C530 1.363 . S
C529 H532 0.929 . S
C530 C529 1.363 . S
C530 C536 1.428 . S
H531 C527 0.930 . S
H532 C529 0.929 . S
S533 N534 1.613 . S
S533 N535 1.610 . S
N534 S533 1.613 . S
N534 C537 1.350 . S
N535 S533 1.610 . S
N535 C536 1.351 . S
C536 C530 1.428 . S
C536 N535 1.351 . S
C536 C537 1.434 . S
C537 C528 1.429 . S
C537 N534 1.350 . S
C537 C536 1.434 . S
C538 C539 1.369 . S
C538 C540 1.419 . S
C538 H542 0.930 . S
C539 C538 1.369 . S
C539 C548 1.429 . S
C540 C538 1.419 . S
C540 C541 1.363 . S
C540 H543 0.929 . S
C541 C540 1.363 . S
C541 C547 1.428 . S
H542 C538 0.930 . S
H543 C540 0.929 . S
S544 N545 1.613 . S
S544 N546 1.610 . S
N545 S544 1.613 . S
N545 C548 1.350 . S
N546 S544 1.610 . S
N546 C547 1.351 . S
C547 C541 1.428 . S
C547 N546 1.351 . S
C547 C548 1.434 . S
C548 C539 1.429 . S
C548 N545 1.350 . S
C548 C547 1.434 . S
C549 C550 1.369 . S
C549 C551 1.419 . S
C549 H553 0.930 . S
C550 C549 1.369 . S
C550 C559 1.429 . S
C551 C549 1.419 . S
C551 C552 1.363 . S
C551 H554 0.929 . S
C552 C551 1.363 . S
C552 C558 1.428 . S
H553 C549 0.930 . S
H554 C551 0.929 . S
S555 N556 1.613 . S
S555 N557 1.610 . S
N556 S555 1.613 . S
N556 C559 1.350 . S
N557 S555 1.610 . S
N557 C558 1.351 . S
C558 C552 1.428 . S
C558 N557 1.351 . S
C558 C559 1.434 . S
C559 C550 1.429 . S
C559 N556 1.350 . S
C559 C558 1.434 . S
C560 C561 1.369 . S
C560 C562 1.419 . S
C560 H564 0.930 . S
C561 C560 1.369 . S
C561 C570 1.429 . S
C562 C560 1.419 . S
C562 C563 1.363 . S
C562 H565 0.929 . S
C563 C562 1.363 . S
C563 C569 1.428 . S
H564 C560 0.930 . S
H565 C562 0.929 . S
S566 N567 1.613 . S
S566 N568 1.610 . S
N567 S566 1.613 . S
N567 C570 1.350 . S
N568 S566 1.610 . S
N568 C569 1.351 . S
C569 C563 1.428 . S
C569 N568 1.351 . S
C569 C570 1.434 . S
C570 C561 1.429 . S
C570 N567 1.350 . S
C570 C569 1.434 . S
C571 C572 1.369 . S
C571 C573 1.419 . S
C571 H575 0.930 . S
C572 C571 1.369 . S
C572 C581 1.429 . S
C573 C571 1.419 . S
C573 C574 1.363 . S
C573 H576 0.929 . S
C574 C573 1.363 . S
C574 C580 1.428 . S
H575 C571 0.930 . S
H576 C573 0.929 . S
S577 N578 1.613 . S
S577 N579 1.610 . S
N578 S577 1.613 . S
N578 C581 1.350 . S
N579 S577 1.610 . S
N579 C580 1.351 . S
C580 C574 1.428 . S
C580 N579 1.351 . S
C580 C581 1.434 . S
C581 C572 1.429 . S
C581 N578 1.350 . S
C581 C580 1.434 . S
C582 C583 1.369 . S
C582 C584 1.419 . S
C582 H586 0.930 . S
C583 C582 1.369 . S
C583 C592 1.429 . S
C584 C582 1.419 . S
C584 C585 1.363 . S
C584 H587 0.929 . S
C585 C584 1.363 . S
C585 C591 1.428 . S
H586 C582 0.930 . S
H587 C584 0.929 . S
S588 N589 1.613 . S
S588 N590 1.610 . S
N589 S588 1.613 . S
N589 C592 1.350 . S
N590 S588 1.610 . S
N590 C591 1.351 . S
C591 C585 1.428 . S
C591 N590 1.351 . S
C591 C592 1.434 . S
C592 C583 1.429 . S
C592 N589 1.350 . S
C592 C591 1.434 . S
C593 C594 1.369 . S
C593 C595 1.419 . S
C593 H597 0.930 . S
C594 C593 1.369 . S
C594 C603 1.429 . S
C595 C593 1.419 . S
C595 C596 1.363 . S
C595 H598 0.929 . S
C596 C595 1.363 . S
C596 C602 1.428 . S
H597 C593 0.930 . S
H598 C595 0.929 . S
S599 N600 1.613 . S
S599 N601 1.610 . S
N600 S599 1.613 . S
N600 C603 1.350 . S
N601 S599 1.610 . S
N601 C602 1.351 . S
C602 C596 1.428 . S
C602 N601 1.351 . S
C602 C603 1.434 . S
C603 C594 1.429 . S
C603 N600 1.350 . S
C603 C602 1.434 . S
C604 C605 1.369 1_465 S
C604 C606 1.419 . S
C604 H608 0.930 . S
C605 C604 1.369 1_645 S
C605 C614 1.429 1_554 S
C606 C604 1.419 . S
C606 C607 1.358 1_454 S
C606 H609 0.929 . S
C607 C606 1.358 1_656 S
C607 C613 1.434 1_565 S
H608 C604 0.930 . S
H609 C606 0.929 . S
S610 N611 1.613 . S
S610 N612 1.610 . S
N611 S610 1.613 . S
N611 C614 1.350 . S
N612 S610 1.610 . S
N612 C613 1.351 . S
C613 C607 1.434 1_545 S
C613 N612 1.351 . S
C613 C614 1.434 . S
C614 C605 1.429 1_556 S
C614 N611 1.350 . S
C614 C613 1.434 . S
C615 C616 1.369 1_554 S
C615 C617 1.419 . S
C615 H619 0.930 1_455 S
C616 C615 1.369 1_556 S
C616 C625 1.429 . S
C617 C615 1.419 . S
C617 C618 1.363 . S
C617 H620 0.929 1_455 S
C618 C617 1.363 . S
C618 C624 1.428 1_554 S
H619 C615 0.930 1_655 S
H620 C617 0.929 1_655 S
S621 N622 1.613 . S
S621 N623 1.610 . S
N622 S621 1.613 . S
N622 C625 1.350 . S
N623 S621 1.610 . S
N623 C624 1.351 . S
C624 C618 1.428 1_556 S
C624 N623 1.351 . S
C624 C625 1.434 . S
C625 C616 1.429 . S
C625 N622 1.350 . S
C625 C624 1.434 . S
C626 C627 1.369 . S
C626 C628 1.419 . S
C626 H630 0.930 . S
C627 C626 1.369 . S
C627 C636 1.429 . S
C628 C626 1.419 . S
C628 C629 1.363 . S
C628 H631 0.929 . S
C629 C628 1.363 . S
C629 C635 1.428 . S
H630 C626 0.930 . S
H631 C628 0.929 . S
S632 N633 1.613 . S
S632 N634 1.610 . S
N633 S632 1.613 . S
N633 C636 1.350 . S
N634 S632 1.610 . S
N634 C635 1.351 . S
C635 C629 1.428 . S
C635 N634 1.351 . S
C635 C636 1.434 . S
C636 C627 1.429 . S
C636 N633 1.350 . S
C636 C635 1.434 . S
C637 C638 1.369 . S
C637 C639 1.419 1_565 S
C637 H641 0.930 . S
C638 C637 1.369 . S
C638 C647 1.429 . S
C639 C637 1.419 1_545 S
C639 C640 1.363 . S
C639 H642 0.929 . S
C640 C639 1.363 . S
C640 C646 1.428 . S
H641 C637 0.930 . S
H642 C639 0.929 . S
S643 N644 1.613 . S
S643 N645 1.610 1_565 S
N644 S643 1.613 . S
N644 C647 1.350 . S
N645 S643 1.610 1_545 S
N645 C646 1.351 . S
C646 C640 1.428 . S
C646 N645 1.351 . S
C646 C647 1.434 1_545 S
C647 C638 1.429 . S
C647 N644 1.350 . S
C647 C646 1.434 1_565 S
C473 C111 1.524 . S
C475 C52 1.520 . S
C484 C170 1.524 . S
C486 C229 1.519 . S
C495 C288 1.522 . S
C497 C347 1.521 . S
C506 C406 1.522 . S
C508 C465 1.521 . S
C517 C416 1.290 . S
C519 C3 1.290 . S
C528 C357 1.287 . S
C530 C62 1.287 . S
C539 C121 1.290 . S
C541 C298 1.290 . S
C550 C239 1.285 . S
C552 C180 1.285 . S
C561 C328 1.689 . S
C563 C151 1.689 . S
C572 C269 1.690 . S
C574 C210 1.690 . S
C583 C446 1.690 . S
C585 C33 1.689 . S
C594 C92 1.690 . S
C596 C387 1.690 . S
C605 C5 1.491 . S
C607 C123 1.491 . S
C616 C182 1.491 . S
C618 C64 1.491 . S
C627 C359 1.491 . S
C629 C241 1.491 . S
C638 C300 1.491 . S
C640 C418 1.491 . S
