# Generated by pormake.
# Topology sxc, (6)-cn, num edge types: 1
# Building blocks:
#     Node 0, Type 0, BuildingBlock: JUFBIX_clean_sbu_0, # of connection points: 6
#     Node 1, Type 0, BuildingBlock: JUFBIX_clean_sbu_0, # of connection points: 6
#     Node 2, Type 0, BuildingBlock: JUFBIX_clean_sbu_0, # of connection points: 6
#     Edge 3, Type (0, 0), BuildingBlock: MIFKUJ_clean_linker_0, # of connection points: 2
#     Edge 4, Type (0, 0), BuildingBlock: MIFKUJ_clean_linker_0, # of connection points: 2
#     Edge 5, Type (0, 0), BuildingBlock: MIFKUJ_clean_linker_0, # of connection points: 2
#     Edge 6, Type (0, 0), BuildingBlock: MIFKUJ_clean_linker_0, # of connection points: 2
#     Edge 7, Type (0, 0), BuildingBlock: MIFKUJ_clean_linker_0, # of connection points: 2
#     Edge 8, Type (0, 0), BuildingBlock: MIFKUJ_clean_linker_0, # of connection points: 2
#     Edge 9, Type (0, 0), BuildingBlock: MIFKUJ_clean_linker_0, # of connection points: 2
#     Edge 10, Type (0, 0), BuildingBlock: MIFKUJ_clean_linker_0, # of connection points: 2
#     Edge 11, Type (0, 0), BuildingBlock: MIFKUJ_clean_linker_0, # of connection points: 2
# Relax obj value: 0.363
# Max RMSD: 0.153
# Mean RMSD: 0.152
data_MOF--net-sxc--node1-JUFBIX_clean_sbu_0--edge1-MIFKUJ_clean_linker_0
_symmetry_space_group_name_H-M    P1
_symmetry_Int_Tables_number       1
_symmetry_cell_setting            triclinic
loop_
_symmetry_equiv_pos_as_xyz
'x, y, z'
_cell_length_a     20.267249
_cell_length_b     20.247965
_cell_length_c     58.617813
_cell_angle_alpha  93.512783
_cell_angle_beta   88.499036
_cell_angle_gamma 119.67997
loop_
_atom_site_label
_atom_site_type_symbol
_atom_site_fract_x
_atom_site_fract_y
_atom_site_fract_z
_atom_type_partial_charge
Co0 Co 0.09995 0.99565 0.0046 0.0
C1 C 0.06155 1.0234 0.96239 0.0
Co2 Co 1.03322 0.0534 0.00733 0.0
C3 C 0.13176 0.87315 0.00143 0.0
C4 C 0.22747 0.97689 0.9917 0.0
N5 N 0.1578 0.94833 0.00117 0.0
N6 N 0.18029 0.85288 0.99153 0.0
C7 C 0.24134 0.91822 0.9857 0.0
H8 H 0.07455 0.83265 0.00625 0.0
H9 H 0.26273 0.03517 0.98713 0.0
C10 C 0.07215 1.02483 0.04943 0.0
N11 N 0.97434 0.0998 0.00989 0.0
C12 C 0.9627 0.13646 0.99345 0.0
C13 C 0.92533 0.09493 0.02665 0.0
N14 N 0.90816 0.154 0.99903 0.0
C15 C 0.88518 0.12929 0.02012 0.0
C16 C 0.93766 0.89087 0.00535 0.0
O17 O 0.1002 0.99118 0.037 0.0
O18 O 1.04212 0.05822 0.03981 0.0
O19 O 0.9382 0.95403 0.00855 0.0
O20 O 1.00235 0.8949 0.00241 0.0
O21 O 1.02492 0.04765 0.97475 0.0
H22 H 0.91765 0.06643 0.04232 0.0
H23 H 0.99395 0.15051 0.97761 0.0
O24 O 0.10028 0.99957 0.97213 0.0
O25 O 0.19463 0.09558 0.00689 0.0
O26 O 0.12954 0.15462 0.00596 0.0
C27 C 0.19467 0.15848 0.00643 0.0
H28 H 0.2893 0.92264 0.97593 0.0
H29 H 0.84213 0.13498 0.02995 0.0
Co30 Co 0.16343 0.08847 0.33889 0.0
C31 C 0.09234 0.04333 0.2961 0.0
Co32 Co 1.04021 1.01997 0.34055 0.0
C33 C 0.32308 0.1525 0.34666 0.0
C34 C 0.29869 0.21629 0.32393 0.0
N35 N 0.2655 0.1544 0.33655 0.0
N36 N 0.39117 0.2102 0.34068 0.0
C37 C 0.37609 0.25048 0.32632 0.0
H38 H 0.31529 0.10665 0.357 0.0
H39 H 0.2686 0.23389 0.31303 0.0
C40 C 0.11144 0.06503 0.38331 0.0
N41 N 0.93817 0.9529 0.34291 0.0
C42 C 0.87989 0.94603 0.33062 0.0
C43 C 0.90725 0.89288 0.35631 0.0
N44 N 0.81366 0.88407 0.33583 0.0
C45 C 0.83073 0.85068 0.35207 0.0
C46 C 0.11799 0.93145 0.33893 0.0
O47 O 0.17165 0.09791 0.37156 0.0
O48 O 0.04803 1.02815 0.37299 0.0
O49 O 0.05482 0.93077 0.33972 0.0
O50 O 0.17802 0.9969 0.33828 0.0
O51 O 1.03212 1.0115 0.30789 0.0
H52 H 0.93854 0.88035 0.36837 0.0
H53 H 0.8857 0.98717 0.31863 0.0
O54 O 0.15585 0.07954 0.30641 0.0
O55 O 0.1488 0.17758 0.33944 0.0
O56 O 1.02547 0.1115 0.34138 0.0
C57 C 0.08559 0.17692 0.34045 0.0
H58 H 0.41803 0.29844 0.31723 0.0
H59 H 0.79049 0.80059 0.3607 0.0
Co60 Co 0.06502 0.99647 0.67104 0.0
C61 C 0.09953 0.06692 0.62958 0.0
Co62 Co 0.12027 0.11994 0.67491 0.0
C63 C 0.97482 0.83758 0.67861 0.0
C64 C 0.05864 0.86005 0.6528 0.0
N65 N 1.02962 0.89405 0.66705 0.0
N66 N 0.96797 0.76934 0.67211 0.0
C67 C 1.0204 0.78318 0.65576 0.0
H68 H 0.93829 0.84609 0.69081 0.0
H69 H 0.10444 0.88931 0.64091 0.0
C70 C 0.08572 0.04967 0.7164 0.0
N71 N 0.15571 0.22236 0.67886 0.0
C72 C 0.21103 0.27875 0.66741 0.0
C73 C 0.12652 0.25652 0.69297 0.0
N74 N 0.21805 0.34708 0.67385 0.0
C75 C 0.16521 0.33342 0.69006 0.0
C76 C 0.95472 0.04392 0.67253 0.0
O77 O 0.05988 0.98925 0.70352 0.0
O78 O 0.11466 0.11325 0.70725 0.0
O79 O 1.01701 0.10688 0.67428 0.0
O80 O 0.95991 0.98319 0.67084 0.0
O81 O 0.12666 0.12731 0.64248 0.0
H82 H 0.08035 0.22736 0.70476 0.0
H83 H 0.24783 0.27012 0.65536 0.0
O84 O 0.06936 1.00312 0.63865 0.0
O85 O 0.16828 1.00955 0.67132 0.0
O86 O 0.22535 0.13312 0.67545 0.0
C87 C 0.23054 0.07242 0.6734 0.0
H88 H 1.0286 0.74055 0.64608 0.0
H89 H 0.15706 0.37619 0.69967 0.0
H90 H 0.90094 0.15173 0.95307 0.0
H91 H 0.92042 0.26033 0.93202 0.0
H92 H 0.88927 0.36667 0.99416 0.0
H93 H 0.87175 0.25937 0.01538 0.0
H94 H 0.86705 0.41117 0.94074 0.0
H95 H 0.06932 0.45164 0.0034 0.0
H96 H 0.11926 0.38497 0.02505 0.0
H97 H 0.1245 0.26143 0.96342 0.0
H98 H 0.07549 0.32828 0.94142 0.0
H99 H 0.0829 0.72249 0.0106 0.0
H100 H 1.02082 0.59612 0.99144 0.0
H101 H 0.16466 0.68373 0.93272 0.0
H102 H 0.22421 0.81231 0.95126 0.0
H103 H 0.14042 0.53912 0.96175 0.0
H104 H 1.02946 0.63399 0.91391 0.0
H105 H 0.97362 0.71194 0.90358 0.0
H106 H 0.78028 0.5827 0.94567 0.0
H107 H 0.83617 0.50589 0.95698 0.0
C108 C 0.89485 0.1968 0.96201 0.0
C109 C 0.88823 0.19918 0.98596 0.0
C110 C 0.90465 0.25807 0.94988 0.0
C111 C 0.9075 0.32159 0.96168 0.0
C112 C 0.8869 0.31766 0.98481 0.0
C113 C 0.87756 0.25659 0.99699 0.0
C114 C 0.95793 0.39738 0.9533 0.0
C115 C 0.92722 0.43935 0.94468 0.0
C116 C 1.03647 0.43306 0.95828 0.0
C117 C 0.06885 0.39459 0.97086 0.0
C118 C 0.08182 0.41063 0.99449 0.0
C119 C 0.10984 0.3729 0.00682 0.0
C120 C 0.12534 0.31931 0.99563 0.0
C121 C 0.11317 0.30353 0.97205 0.0
C122 C 0.0852 0.34124 0.95963 0.0
C123 C 0.10126 0.71505 0.9936 0.0
C124 C 0.15756 0.77738 0.98234 0.0
C125 C 0.06537 0.64326 0.98262 0.0
C126 C 0.0865 0.63211 0.96041 0.0
C127 C 0.14646 0.69253 0.94962 0.0
C128 C 0.18137 0.7653 0.96045 0.0
C129 C 0.04934 0.55434 0.95022 0.0
C130 C 0.08188 0.51081 0.95582 0.0
C131 C 0.97237 0.51859 0.94325 0.0
C132 C 0.93757 0.56428 0.93648 0.0
C133 C 0.97555 0.62277 0.92126 0.0
C134 C 0.94386 0.66688 0.91522 0.0
C135 C 0.87367 0.65263 0.92409 0.0
C136 C 0.83495 0.5941 0.93897 0.0
C137 C 0.86669 0.55022 0.9452 0.0
H138 H 0.84913 0.68672 0.91936 0.0
H139 H 0.1465 0.29003 0.00533 0.0
H140 H 0.44008 0.17439 0.37764 0.0
H141 H 0.52363 0.11965 0.37549 0.0
H142 H 0.58345 0.19006 0.30645 0.0
H143 H 0.49908 0.24367 0.30844 0.0
H144 H 0.49743 0.03539 0.30918 0.0
H145 H 0.72199 0.23746 0.34325 0.0
H146 H 0.80348 0.34045 0.37125 0.0
H147 H 0.73504 0.17944 0.42346 0.0
H148 H 0.65267 0.07567 0.39577 0.0
H149 H 0.77132 0.91288 0.29601 0.0
H150 H 0.67246 0.94741 0.29365 0.0
H151 H 0.58914 0.85851 0.35971 0.0
H152 H 0.68812 0.82494 0.36233 0.0
H153 H 0.68431 1.02024 0.3582 0.0
H154 H 0.46267 0.81642 0.32239 0.0
H155 H 0.38613 0.71573 0.29322 0.0
H156 H 0.45539 0.8825 0.24274 0.0
H157 H 0.53283 0.98421 0.27162 0.0
C158 C 0.47401 0.18137 0.36245 0.0
C159 C 0.46139 0.21054 0.34296 0.0
C160 C 0.52192 0.15045 0.36125 0.0
C161 C 0.55781 0.14934 0.34058 0.0
C162 C 0.55517 0.18982 0.32242 0.0
C163 C 0.50729 0.22082 0.32365 0.0
C164 C 0.58043 0.0912 0.33628 0.0
C165 C 0.53954 0.03272 0.31955 0.0
C166 C 0.63268 0.08659 0.35052 0.0
C167 C 0.68058 0.14898 0.36746 0.0
C168 C 0.72373 0.22424 0.36075 0.0
C169 C 0.77027 0.28269 0.37655 0.0
C170 C 0.77425 0.26655 0.39915 0.0
C171 C 0.7318 0.19188 0.40596 0.0
C172 C 0.68528 0.13321 0.3902 0.0
C173 C 0.72955 0.89734 0.3095 0.0
C174 C 0.73966 0.87033 0.32987 0.0
C175 C 0.67245 0.91609 0.308 0.0
C176 C 0.62565 0.90762 0.32688 0.0
C177 C 0.62573 0.8661 0.34512 0.0
C178 C 0.68276 0.84729 0.34661 0.0
C179 C 0.60116 0.96426 0.33116 0.0
C180 C 0.64194 1.02271 0.34788 0.0
C181 C 0.54945 0.96907 0.31675 0.0
C182 C 0.50409 0.90792 0.29918 0.0
C183 C 0.46217 0.83158 0.30504 0.0
C184 C 0.41841 0.77432 0.28856 0.0
C185 C 0.41605 0.79266 0.26612 0.0
C186 C 0.45731 0.86835 0.26013 0.0
C187 C 0.50102 0.92586 0.27658 0.0
H188 H 0.38214 0.74826 0.25338 0.0
H189 H 0.81035 0.31184 0.41136 0.0
H190 H 0.89775 0.64552 0.64288 0.0
H191 H 0.7622 0.5567 0.64441 0.0
H192 H 0.75459 0.64328 0.71292 0.0
H193 H 0.891 0.73088 0.71174 0.0
H194 H 0.63024 0.49519 0.70153 0.0
H195 H 0.7653 0.75192 0.67284 0.0
H196 H 0.86206 0.84807 0.64846 0.0
H197 H 0.7558 0.7032 0.58866 0.0
H198 H 0.65909 0.60552 0.61271 0.0
H199 H 0.28879 0.47018 0.70329 0.0
H200 H 0.4246 0.55824 0.70189 0.0
H201 H 0.43198 0.4725 0.63325 0.0
H202 H 0.29538 0.38567 0.63431 0.0
H203 H 0.5564 0.61985 0.64466 0.0
H204 H 0.42039 0.3636 0.67334 0.0
H205 H 0.32347 0.26771 0.69774 0.0
H206 H 0.4316 0.41144 0.75758 0.0
H207 H 0.52838 0.50897 0.73351 0.0
C208 C 0.86839 0.64241 0.65881 0.0
C209 C 0.90351 0.69752 0.67681 0.0
C210 C 0.79076 0.59167 0.65962 0.0
C211 C 0.74876 0.59658 0.67835 0.0
C212 C 0.78637 0.6402 0.69813 0.0
C213 C 0.86407 0.69053 0.69738 0.0
C214 C 0.66907 0.57532 0.67512 0.0
C215 C 0.61399 0.52243 0.68919 0.0
C216 C 0.64859 0.61171 0.65904 0.0
C217 C 0.70552 0.67119 0.64457 0.0
C218 C 0.76281 0.74045 0.6545 0.0
C219 C 0.81763 0.79519 0.64076 0.0
C220 C 0.8152 0.78172 0.61706 0.0
C221 C 0.75771 0.71352 0.60703 0.0
C222 C 0.70289 0.65844 0.62069 0.0
C223 C 0.31822 0.47337 0.68737 0.0
C224 C 0.28292 0.41873 0.66928 0.0
C225 C 0.39598 0.52364 0.68664 0.0
C226 C 0.43791 0.51872 0.66788 0.0
C227 C 0.40025 0.47558 0.64805 0.0
C228 C 0.32244 0.42573 0.64872 0.0
C229 C 0.51756 0.53974 0.67108 0.0
C230 C 0.57263 0.59259 0.657 0.0
C231 C 0.53801 0.5033 0.68715 0.0
C232 C 0.48107 0.44384 0.70163 0.0
C233 C 0.42325 0.3749 0.69169 0.0
C234 C 0.36835 0.32028 0.70545 0.0
C235 C 0.37127 0.3335 0.72917 0.0
C236 C 0.42931 0.40132 0.7392 0.0
C237 C 0.48417 0.45632 0.72552 0.0
H238 H 0.32864 0.29112 0.73977 0.0
H239 H 0.85777 0.82419 0.60647 0.0
H240 H 0.93044 0.167 0.67635 0.0
H241 H 0.81223 0.17137 0.67636 0.0
H242 H 0.68464 0.92667 0.6689 0.0
H243 H 0.80402 0.92214 0.66868 0.0
H244 H 0.61573 0.97855 0.64352 0.0
H245 H 0.69745 0.03815 0.72143 0.0
H246 H 0.78628 0.10663 0.75349 0.0
H247 H 0.80219 0.31651 0.73555 0.0
H248 H 0.71419 0.24941 0.70318 0.0
H249 H 0.25456 0.94919 0.6694 0.0
H250 H 0.37261 0.94454 0.66939 0.0
H251 H 0.50056 0.18918 0.67717 0.0
H252 H 0.38134 0.19398 0.67742 0.0
H253 H 0.56925 0.13714 0.7024 0.0
H254 H 0.48716 0.07738 0.62455 0.0
H255 H 0.39805 1.00879 0.59259 0.0
H256 H 0.38283 0.79911 0.61036 0.0
H257 H 0.47101 0.86627 0.64269 0.0
C258 C 0.87754 0.11357 0.67475 0.0
C259 C 0.87875 0.04408 0.67255 0.0
C260 C 0.80881 0.1162 0.67491 0.0
C261 C 0.73696 0.04946 0.67303 0.0
C262 C 0.73787 0.97975 0.67048 0.0
C263 C 0.807 0.97706 0.67039 0.0
C264 C 0.66227 0.05298 0.67361 0.0
C265 C 0.60567 1.01249 0.6567 0.0
C266 C 0.64723 0.09839 0.69024 0.0
C267 C 0.6998 0.13887 0.70974 0.0
C268 C 0.72029 0.099 0.72423 0.0
C269 C 0.77044 0.13755 0.74247 0.0
C270 C 0.80001 0.21591 0.74651 0.0
C271 C 0.77932 0.25583 0.73237 0.0
C272 C 0.72926 0.21756 0.71408 0.0
C273 C 0.30751 1.00255 0.67107 0.0
C274 C 0.30645 0.07211 0.67337 0.0
C275 C 0.37616 0.99975 0.67091 0.0
C276 C 0.44807 0.0664 0.67289 0.0
C277 C 0.44729 0.13617 0.67552 0.0
C278 C 0.37824 0.13902 0.67563 0.0
C279 C 0.52269 0.06274 0.67231 0.0
C280 C 0.57929 0.1032 0.68922 0.0
C281 C 0.53771 1.01727 0.65568 0.0
C282 C 0.48512 0.97675 0.63618 0.0
C283 C 0.46442 1.01655 0.62174 0.0
C284 C 0.41412 0.97794 0.60354 0.0
C285 C 0.38465 0.89962 0.59947 0.0
C286 C 0.40561 0.85977 0.61356 0.0
C287 C 0.45579 0.89808 0.63182 0.0
H288 H 0.3457 0.86986 0.58537 0.0
H289 H 0.83884 0.24566 0.76064 0.0
H290 H 0.9043 0.74678 0.98671 0.0
H291 H 0.78349 0.62696 0.9857 0.0
H292 H 0.67784 0.73834 0.02381 0.0
H293 H 0.79736 0.85907 0.02334 0.0
H294 H 0.5735 0.6466 0.00092 0.0
H295 H 0.68144 0.43251 0.9838 0.0
H296 H 0.79402 0.41989 0.99093 0.0
H297 H 0.85295 0.57812 0.04918 0.0
H298 H 0.73965 0.59025 0.04273 0.0
H299 H 0.24188 0.28011 0.97829 0.0
H300 H 0.36358 0.39867 0.97741 0.0
H301 H 0.44484 0.32836 0.03308 0.0
H302 H 0.32345 0.2084 0.03324 0.0
H303 H 0.5601 0.39886 0.01018 0.0
H304 H 0.3853 0.48283 0.03486 0.0
H305 H 0.26939 0.49313 0.03249 0.0
H306 H 0.34282 0.59717 0.96819 0.0
H307 H 0.45889 0.58679 0.97006 0.0
C308 C 0.8555 0.74609 0.99494 0.0
C309 C 0.86256 0.81442 0.00521 0.0
C310 C 0.78519 0.67613 0.99457 0.0
C311 C 0.71845 0.66973 0.00514 0.0
C312 C 0.72603 0.73855 0.01533 0.0
C313 C 0.79573 0.8088 0.0152 0.0
C314 C 0.64148 0.59339 0.00542 0.0
C315 C 0.57176 0.59295 0.003 0.0
C316 C 0.63492 0.52065 0.00833 0.0
C317 C 0.70251 0.51294 0.01261 0.0
C318 C 0.71817 0.46427 0.99821 0.0
C319 C 0.78208 0.45717 0.00214 0.0
C320 C 0.83087 0.49854 0.0204 0.0
C321 C 0.81532 0.5464 0.03496 0.0
C322 C 0.75115 0.55327 0.03122 0.0
C323 C 0.28469 0.29045 0.99077 0.0
C324 C 0.2701 0.23427 0.00636 0.0
C325 C 0.35566 0.35931 0.99027 0.0
C326 C 0.41577 0.37658 0.00565 0.0
C327 C 0.40142 0.31931 0.02094 0.0
C328 C 0.33083 0.24988 0.02115 0.0
C329 C 0.49281 0.45249 0.00567 0.0
C330 C 0.56227 0.45274 0.00814 0.0
C331 C 0.49912 0.52527 0.00342 0.0
C332 C 0.43046 0.53345 0.00251 0.0
C333 C 0.37663 0.50774 0.02019 0.0
C334 C 0.31089 0.51354 0.01892 0.0
C335 C 0.29865 0.54558 1.00016 0.0
C336 C 0.35235 0.57227 0.98269 0.0
C337 C 0.41818 0.56656 0.98386 0.0
H338 H 0.24765 0.54988 0.99919 0.0
H339 H 0.88058 0.49332 0.02331 0.0
H340 H 0.9672 0.21025 0.34922 0.0
H341 H 0.97195 0.33414 0.34957 0.0
H342 H 0.20811 0.44117 0.33072 0.0
H343 H 0.20415 0.31899 0.33138 0.0
H344 H 0.20234 0.53781 0.35714 0.0
H345 H 1.03651 0.39501 0.29397 0.0
H346 H 0.9241 0.28998 0.27429 0.0
H347 H 0.77782 0.34108 0.3169 0.0
H348 H 0.88916 0.44463 0.33739 0.0
H349 H 0.23665 0.89872 0.33016 0.0
H350 H 0.2323 0.77503 0.32962 0.0
H351 H 0.99599 0.66706 0.34833 0.0
H352 H 0.99953 0.78911 0.34781 0.0
H353 H 1.0024 0.57119 0.32179 0.0
H354 H 0.16747 0.71166 0.38549 0.0
H355 H 0.27954 0.81763 0.40504 0.0
H356 H 0.42692 0.77203 0.36118 0.0
H357 H 0.31574 0.66705 0.3409 0.0
C358 C 1.02021 0.26 0.34508 0.0
C359 C 0.08512 0.25267 0.34021 0.0
C360 C 1.02297 0.33188 0.3451 0.0
C361 C 0.09037 0.39975 0.33977 0.0
C362 C 0.15492 0.39185 0.33499 0.0
C363 C 0.15243 0.32063 0.33527 0.0
C364 C 0.09502 0.4785 0.33934 0.0
C365 C 0.1586 0.54442 0.34906 0.0
C366 C 1.03829 0.49027 0.32943 0.0
C367 C 0.97124 0.42701 0.31741 0.0
C368 C 0.98034 0.38321 0.29935 0.0
C369 C 0.91677 0.32383 0.28807 0.0
C370 C 0.84382 0.30842 0.29447 0.0
C371 C 0.8343 0.35251 0.31212 0.0
C372 C 0.8976 0.41144 0.32361 0.0
C373 C 0.1837 0.8488 0.33423 0.0
C374 C 0.11861 0.8558 0.33909 0.0
C375 C 0.18118 0.77703 0.33411 0.0
C376 C 0.11388 0.70897 0.33935 0.0
C377 C 0.04913 0.71656 0.34413 0.0
C378 C 0.05136 0.78767 0.34394 0.0
C379 C 0.10949 0.63033 0.33966 0.0
C380 C 0.04605 0.56448 0.32989 0.0
C381 C 0.1663 0.61862 0.34952 0.0
C382 C 0.23323 0.682 0.36153 0.0
C383 C 0.22378 0.72469 0.37987 0.0
C384 C 0.28715 0.78464 0.39105 0.0
C385 C 0.36029 0.80185 0.38424 0.0
C386 C 0.37022 0.75899 0.36628 0.0
C387 C 0.30705 0.6993 0.35493 0.0
H388 H 0.40928 0.84818 0.39294 0.0
H389 H 0.79468 0.2626 0.28568 0.0
H390 H 0.96693 0.96801 0.26807 0.0
H391 H 0.96345 0.963 0.22621 0.0
H392 H 0.20719 0.10414 0.22487 0.0
H393 H 0.21112 0.11007 0.26656 0.0
H394 H 0.1433 0.15176 0.1958 0.0
H395 H 0.12245 0.91305 0.212 0.0
H396 H 0.0679 0.78973 0.22986 0.0
H397 H 0.85442 0.71544 0.19653 0.0
H398 H 0.90743 0.83881 0.1787 0.0
H399 H 0.12932 0.95688 0.07565 0.0
H400 H 0.13285 0.95844 0.11741 0.0
H401 H 1.02126 0.09303 0.12233 0.0
H402 H 1.01823 0.09249 0.08067 0.0
H403 H 1.02372 0.9069 0.14948 0.0
H404 H 0.09015 0.21765 0.1688 0.0
H405 H 0.15486 0.34102 0.15073 0.0
H406 H 0.2963 0.27134 0.11279 0.0
H407 H 0.23322 0.14807 0.13088 0.0
C408 C 1.0198 0.99789 0.25886 0.0
C409 C 0.08932 0.03925 0.27071 0.0
C410 C 1.01775 0.99478 0.23491 0.0
C411 C 0.08515 0.03274 0.22233 0.0
C412 C 0.15443 0.07446 0.23415 0.0
C413 C 0.15656 0.07752 0.25804 0.0
C414 C 0.08382 0.02955 0.19686 0.0
C415 C 0.1169 0.09816 0.1857 0.0
C416 C 0.05064 0.95976 0.18358 0.0
C417 C 1.01869 0.88545 0.1942 0.0
C418 C 0.0637 0.87064 0.20862 0.0
C419 C 1.03309 0.80069 0.21871 0.0
C420 C 0.95769 0.74486 0.21438 0.0
C421 C 0.91279 0.75879 0.19989 0.0
C422 C 0.9431 0.82869 0.18978 0.0
C423 C 0.1056 0.98692 0.08561 0.0
C424 C 0.07392 1.02496 0.07477 0.0
C425 C 0.10735 0.98745 0.1095 0.0
C426 C 0.07794 1.0264 0.12306 0.0
C427 C 0.04528 0.06348 0.11227 0.0
C428 C 1.04346 0.06295 0.08841 0.0
C429 C 0.08219 1.02909 0.14847 0.0
C430 C 0.0497 0.96045 0.1596 0.0
C431 C 0.11718 0.09888 0.16174 0.0
C432 C 0.15637 0.17335 0.15103 0.0
C433 C 0.13527 0.22881 0.15668 0.0
C434 C 0.17164 0.29869 0.14642 0.0
C435 C 0.22948 0.3139 0.13057 0.0
C436 C 0.2513 0.25938 0.12501 0.0
C437 C 0.2152 0.18947 0.13524 0.0
H438 H 0.25749 0.36799 0.12262 0.0
H439 H 0.9341 0.69073 0.22221 0.0
H440 H 1.00184 0.9706 0.41202 0.0
H441 H 1.00424 0.97567 0.45365 0.0
H442 H 0.22804 0.17357 0.45384 0.0
H443 H 0.22724 0.16642 0.41191 0.0
H444 H 0.22462 0.08844 0.48506 0.0
H445 H 0.06022 0.183 0.46693 0.0
H446 H 0.95368 0.18431 0.448 0.0
H447 H 0.79544 0.97909 0.47967 0.0
H448 H 0.90113 0.97594 0.49856 0.0
H449 H 0.19435 0.18732 0.6042 0.0
H450 H 0.20043 0.19127 0.56237 0.0
H451 H 1.017 0.95931 0.55622 0.0
H452 H 1.01179 0.95417 0.59792 0.0
H453 H 1.00398 0.0709 0.52876 0.0
H454 H 0.17673 0.97942 0.54577 0.0
H455 H 0.28684 0.98678 0.56518 0.0
H456 H 0.43397 0.20105 0.53613 0.0
H457 H 0.32443 0.19543 0.5168 0.0
C458 C 0.05163 1.01531 0.4209 0.0
C459 C 0.11413 0.06854 0.40865 0.0
C460 C 0.05277 1.01846 0.44478 0.0
C461 C 0.11554 0.07618 0.45707 0.0
C462 C 0.17869 0.1287 0.44484 0.0
C463 C 0.17815 0.12471 0.42086 0.0
C464 C 0.11508 0.08095 0.48261 0.0
C465 C 0.1768 0.08586 0.49455 0.0
C466 C 0.05257 0.07699 0.49522 0.0
C467 C 0.98871 0.07891 0.48402 0.0
C468 C 1.00274 0.13787 0.46975 0.0
C469 C 0.9425 0.13898 0.45904 0.0
C470 C 0.86786 0.08173 0.46259 0.0
C471 C 0.85329 1.02336 0.47692 0.0
C472 C 0.91335 1.02194 0.48766 0.0
C473 C 0.15531 0.13719 0.59392 0.0
C474 C 0.10269 0.07037 0.60435 0.0
C475 C 0.15898 0.13951 0.57006 0.0
C476 C 0.10923 0.07554 0.55623 0.0
C477 C 0.05586 1.00926 0.5666 0.0
C478 C 0.05317 1.00637 0.59041 0.0
C479 C 0.11282 0.07745 0.53092 0.0
C480 C 0.05177 0.07395 0.51913 0.0
C481 C 0.17643 0.08417 0.5185 0.0
C482 C 0.24227 0.08743 0.53006 0.0
C483 C 0.23244 1.02847 0.54371 0.0
C484 C 0.29478 0.03225 0.55465 0.0
C485 C 0.36734 0.09448 0.55195 0.0
C486 C 0.37772 0.15295 0.53824 0.0
C487 C 0.31554 0.14947 0.52727 0.0
H488 H 0.41558 0.09733 0.56041 0.0
H489 H 0.8213 0.08267 0.45427 0.0
H490 H 1.01661 0.92347 0.74191 0.0
H491 H 1.01029 0.91979 0.78364 0.0
H492 H 0.1399 0.16503 0.78984 0.0
H493 H 0.14693 0.16923 0.74823 0.0
H494 H 0.19096 0.10498 0.81939 0.0
H495 H 0.95063 0.07401 0.79859 0.0
H496 H 0.8291 1.01634 0.77759 0.0
H497 H 0.75997 0.80204 0.80659 0.0
H498 H 0.88163 0.85821 0.82753 0.0
H499 H 0.98815 0.07513 0.9362 0.0
H500 H 0.98986 0.0799 0.89454 0.0
H501 H 0.13276 0.97751 0.88957 0.0
H502 H 0.13196 0.97315 0.93116 0.0
H503 H 0.94426 0.97293 0.85963 0.0
H504 H 0.26023 0.05652 0.84674 0.0
H505 H 0.38142 0.12571 0.86801 0.0
H506 H 0.29838 0.25597 0.90688 0.0
H507 H 0.17722 0.18844 0.88561 0.0
C508 C 1.04385 0.97663 0.75215 0.0
C509 C 0.08212 0.04665 0.74169 0.0
C510 C 1.03993 0.97445 0.77602 0.0
C511 C 0.0741 0.04218 0.78993 0.0
C512 C 0.11311 0.11202 0.77951 0.0
C513 C 0.11682 0.11429 0.75568 0.0
C514 C 0.0694 0.04044 0.81532 0.0
C515 C 0.137 0.07587 0.82815 0.0
C516 C 0.999 1.00401 0.82688 0.0
C517 C 0.92555 0.97014 0.81445 0.0
C518 C 0.90975 1.01444 0.80035 0.0
C519 C 0.84081 0.98205 0.78848 0.0
C520 C 0.78693 0.90552 0.79071 0.0
C521 C 0.80181 0.86129 0.80486 0.0
C522 C 0.87072 0.89339 0.81675 0.0
C523 C 1.01977 0.05338 0.92625 0.0
C524 C 0.06025 1.0241 0.93707 0.0
C525 C 1.02046 0.05592 0.90241 0.0
C526 C 0.06199 0.02973 0.88889 0.0
C527 C 0.10114 0.99903 0.89963 0.0
C528 C 0.10048 0.99643 0.92344 0.0
C529 C 0.06591 0.03602 0.86363 0.0
C530 C 0.9982 1.00161 0.85084 0.0
C531 C 0.13617 0.07489 0.85212 0.0
C532 C 0.20938 0.11682 0.86473 0.0
C533 C 0.26798 0.10017 0.85976 0.0
C534 C 0.33665 0.13907 0.87182 0.0
C535 C 0.3475 0.19502 0.88884 0.0
C536 C 0.28982 0.21244 0.89376 0.0
C537 C 0.22111 0.17381 0.88171 0.0
H538 H 0.40065 0.22498 0.89818 0.0
H539 H 0.73358 0.88054 0.7815 0.0
loop_
_geom_bond_atom_site_label_1
_geom_bond_atom_site_label_2
_geom_bond_distance
_geom_bond_site_symmetry_2
_ccdc_geom_bond_type
Co0 N5 2.057 1_554 S
Co0 O17 2.021 . S
Co0 O20 2.062 1_455 S
Co0 O24 2.117 1_554 S
Co0 O25 2.020 1_565 S
C1 O21 1.259 1_455 S
C1 O24 1.258 1_545 S
Co2 N11 2.052 1_556 S
Co2 O18 2.092 1_656 S
Co2 O19 2.017 1_546 S
Co2 O21 2.046 . S
Co2 O26 2.061 1_655 S
C3 N5 1.316 1_554 S
C3 N6 1.347 1_554 S
C3 H8 0.931 . S
C4 N5 1.375 . S
C4 C7 1.350 . S
C4 H9 0.930 . S
N5 Co0 2.057 1_556 S
N5 C3 1.316 1_556 S
N5 C4 1.375 . S
N6 C3 1.347 1_556 S
N6 C7 1.373 . S
C7 C4 1.350 . S
C7 N6 1.373 . S
C7 H28 0.931 . S
H8 C3 0.931 . S
H9 C4 0.930 . S
C10 O17 1.259 1_545 S
C10 O18 1.258 . S
N11 Co2 2.052 1_554 S
N11 C12 1.316 1_554 S
N11 C13 1.375 . S
C12 N11 1.316 1_556 S
C12 N14 1.347 1_556 S
C12 H23 0.931 . S
C13 N11 1.375 . S
C13 C15 1.350 . S
C13 H22 0.930 . S
N14 C12 1.347 1_554 S
N14 C15 1.373 . S
C15 C13 1.350 . S
C15 N14 1.373 . S
C15 H29 0.931 . S
C16 O19 1.257 . S
C16 O20 1.255 . S
O17 Co0 2.021 . S
O17 C10 1.259 1_565 S
O18 Co2 2.092 1_454 S
O18 C10 1.258 . S
O19 Co2 2.017 1_564 S
O19 C16 1.257 . S
O20 Co0 2.062 1_655 S
O20 C16 1.255 . S
O21 C1 1.259 1_655 S
O21 Co2 2.046 . S
H22 C13 0.930 . S
H23 C12 0.931 . S
O24 Co0 2.117 1_556 S
O24 C1 1.258 1_565 S
O25 Co0 2.020 1_545 S
O25 C27 1.261 . S
O26 Co2 2.061 1_455 S
O26 C27 1.250 1_556 S
C27 O25 1.261 . S
C27 O26 1.250 1_554 S
H28 C7 0.931 . S
H29 C15 0.931 . S
Co30 N35 2.057 . S
Co30 O47 2.021 . S
Co30 O50 2.062 1_545 S
Co30 O54 2.117 . S
Co30 O55 2.020 . S
C31 O51 1.259 1_445 S
C31 O54 1.258 . S
Co32 N41 2.057 . S
Co32 O48 2.117 1_665 S
Co32 O49 2.020 . S
Co32 O51 2.021 . S
Co32 O56 2.062 1_665 S
C33 N35 1.316 . S
C33 N36 1.347 . S
C33 H38 0.931 . S
C34 N35 1.375 . S
C34 C37 1.350 . S
C34 H39 0.930 . S
N35 Co30 2.057 . S
N35 C33 1.316 . S
N35 C34 1.375 . S
N36 C33 1.347 . S
N36 C37 1.373 . S
C37 C34 1.350 . S
C37 N36 1.373 . S
C37 H58 0.931 . S
H38 C33 0.931 . S
H39 C34 0.930 . S
C40 O47 1.259 . S
C40 O48 1.258 . S
N41 Co32 2.057 . S
N41 C42 1.316 . S
N41 C43 1.375 . S
C42 N41 1.316 . S
C42 N44 1.347 . S
C42 H53 0.931 . S
C43 N41 1.375 . S
C43 C45 1.350 . S
C43 H52 0.930 . S
N44 C42 1.347 . S
N44 C45 1.373 . S
C45 C43 1.350 . S
C45 N44 1.373 . S
C45 H59 0.931 . S
C46 O49 1.256 1_455 S
C46 O50 1.255 . S
O47 Co30 2.021 . S
O47 C40 1.259 . S
O48 Co32 2.117 1_445 S
O48 C40 1.258 . S
O49 Co32 2.020 . S
O49 C46 1.256 1_655 S
O50 Co30 2.062 1_565 S
O50 C46 1.255 . S
O51 C31 1.259 1_665 S
O51 Co32 2.021 . S
H52 C43 0.930 . S
H53 C42 0.931 . S
O54 Co30 2.117 . S
O54 C31 1.258 . S
O55 Co30 2.020 . S
O55 C57 1.256 . S
O56 Co32 2.062 1_445 S
O56 C57 1.255 . S
C57 O55 1.256 . S
C57 O56 1.255 . S
H58 C37 0.931 . S
H59 C45 0.931 . S
Co60 N65 2.057 . S
Co60 O77 2.021 . S
Co60 O80 2.062 . S
Co60 O84 2.117 1_655 S
Co60 O85 2.020 1_655 S
C61 O81 1.259 . S
C61 O84 1.258 1_545 S
Co62 N71 2.057 . S
Co62 O78 2.117 . S
Co62 O79 2.020 . S
Co62 O81 2.021 . S
Co62 O86 2.062 . S
C63 N65 1.316 . S
C63 N66 1.347 . S
C63 H68 0.931 . S
C64 N65 1.375 . S
C64 C67 1.350 . S
C64 H69 0.930 . S
N65 Co60 2.057 . S
N65 C63 1.316 . S
N65 C64 1.375 . S
N66 C63 1.347 . S
N66 C67 1.373 . S
C67 C64 1.350 . S
C67 N66 1.373 . S
C67 H88 0.931 . S
H68 C63 0.931 . S
H69 C64 0.930 . S
C70 O77 1.259 1_445 S
C70 O78 1.258 . S
N71 Co62 2.057 . S
N71 C72 1.316 . S
N71 C73 1.375 . S
C72 N71 1.316 . S
C72 N74 1.347 . S
C72 H83 0.931 . S
C73 N71 1.375 . S
C73 C75 1.350 . S
C73 H82 0.930 . S
N74 C72 1.347 . S
N74 C75 1.373 . S
C75 C73 1.350 . S
C75 N74 1.373 . S
C75 H89 0.931 . S
C76 O79 1.256 1_655 S
C76 O80 1.255 1_545 S
O77 Co60 2.021 . S
O77 C70 1.259 1_665 S
O78 Co62 2.117 . S
O78 C70 1.258 . S
O79 Co62 2.020 . S
O79 C76 1.256 1_455 S
O80 Co60 2.062 . S
O80 C76 1.255 1_565 S
O81 C61 1.259 . S
O81 Co62 2.021 . S
H82 C73 0.930 . S
H83 C72 0.931 . S
O84 Co60 2.117 1_455 S
O84 C61 1.258 1_565 S
O85 Co60 2.020 1_455 S
O85 C87 1.256 . S
O86 Co62 2.062 . S
O86 C87 1.255 1_545 S
C87 O85 1.256 . S
C87 O86 1.255 1_565 S
H88 C67 0.931 . S
H89 C75 0.931 . S
H90 C108 0.951 . S
H91 C110 0.951 . S
H92 C112 0.950 . S
H93 C113 0.950 . S
H94 C115 0.950 . S
H95 C118 0.950 . S
H96 C119 0.950 . S
H97 C121 0.950 . S
H98 C122 0.950 . S
H99 C123 0.951 1_655 S
H100 C125 0.951 1_655 S
H101 C127 0.950 . S
H102 C128 0.950 . S
H103 C130 0.950 . S
H104 C133 0.950 . S
H105 C134 0.950 . S
H106 C136 0.950 . S
H107 C137 0.950 . S
C108 H90 0.951 . S
C108 C109 1.366 1_456 S
C108 C110 1.388 . S
C109 C108 1.366 1_654 S
C109 C113 1.385 . S
C110 H91 0.951 . S
C110 C108 1.388 . S
C110 C111 1.366 1_456 S
C111 C110 1.366 1_654 S
C111 C112 1.414 . S
C111 C114 1.499 . S
C112 H92 0.950 . S
C112 C111 1.414 . S
C112 C113 1.374 . S
C113 H93 0.950 . S
C113 C109 1.385 . S
C113 C112 1.374 . S
C114 C111 1.499 . S
C114 C115 1.373 1_554 S
C114 C116 1.389 1_655 S
C115 H94 0.950 . S
C115 C114 1.373 1_556 S
C115 C131 1.377 . S
C116 C114 1.389 1_455 S
C116 C117 1.524 . S
C116 C130 1.377 . S
C117 C116 1.524 . S
C117 C118 1.397 . S
C117 C122 1.363 . S
C118 H95 0.950 . S
C118 C117 1.397 . S
C118 C119 1.334 . S
C119 H96 0.950 . S
C119 C118 1.334 . S
C119 C120 1.287 . S
C120 C119 1.287 . S
C120 C121 1.524 . S
C120 H139 0.913 . S
C121 H97 0.950 . S
C121 C120 1.524 . S
C121 C122 1.415 . S
C122 H98 0.950 . S
C122 C117 1.363 . S
C122 C121 1.415 . S
C123 H99 0.951 1_455 S
C123 C124 1.366 . S
C123 C125 1.388 . S
C124 C123 1.366 . S
C124 C128 1.385 1_554 S
C125 H100 0.951 1_455 S
C125 C123 1.388 . S
C125 C126 1.368 . S
C126 C125 1.368 . S
C126 C127 1.412 1_554 S
C126 C129 1.499 1_554 S
C127 H101 0.950 . S
C127 C126 1.412 1_556 S
C127 C128 1.374 . S
C128 H102 0.950 . S
C128 C124 1.385 1_556 S
C128 C127 1.374 . S
C129 C126 1.499 1_556 S
C129 C130 1.372 1_556 S
C129 C131 1.390 1_455 S
C130 H103 0.950 . S
C130 C116 1.377 . S
C130 C129 1.372 1_554 S
C131 C115 1.377 . S
C131 C129 1.390 1_655 S
C131 C132 1.524 . S
C132 C131 1.524 . S
C132 C133 1.397 . S
C132 C137 1.363 . S
C133 H104 0.950 . S
C133 C132 1.397 . S
C133 C134 1.334 . S
C134 H105 0.950 . S
C134 C133 1.334 . S
C134 C135 1.287 . S
C135 C134 1.287 . S
C135 C136 1.524 . S
C135 H138 0.999 . S
C136 H106 0.950 . S
C136 C135 1.524 . S
C136 C137 1.415 . S
C137 H107 0.950 . S
C137 C132 1.363 . S
C137 C136 1.415 . S
H138 C135 0.999 . S
H139 C120 0.913 . S
H140 C158 0.951 . S
H141 C160 0.951 1_565 S
H142 C162 0.950 . S
H143 C163 0.950 . S
H144 C165 0.950 . S
H145 C168 0.950 . S
H146 C169 0.950 . S
H147 C171 0.950 1_565 S
H148 C172 0.950 1_565 S
H149 C173 0.951 1_545 S
H150 C175 0.951 . S
H151 C177 0.950 . S
H152 C178 0.950 . S
H153 C180 0.950 1_565 S
H154 C183 0.950 . S
H155 C184 0.950 . S
H156 C186 0.950 . S
H157 C187 0.950 . S
C158 H140 0.951 . S
C158 C159 1.366 . S
C158 C160 1.388 . S
C159 C158 1.366 . S
C159 C163 1.385 . S
C160 H141 0.951 1_545 S
C160 C158 1.388 . S
C160 C161 1.366 . S
C161 C160 1.366 . S
C161 C162 1.414 . S
C161 C164 1.499 . S
C162 H142 0.950 . S
C162 C161 1.414 . S
C162 C163 1.374 . S
C163 H143 0.950 . S
C163 C159 1.385 . S
C163 C162 1.374 . S
C164 C161 1.499 . S
C164 C165 1.373 . S
C164 C166 1.389 . S
C165 H144 0.950 . S
C165 C164 1.373 . S
C165 C181 1.377 . S
C166 C164 1.389 . S
C166 C167 1.524 . S
C166 C180 1.377 . S
C167 C166 1.524 . S
C167 C168 1.397 . S
C167 C172 1.363 . S
C168 H145 0.950 . S
C168 C167 1.397 . S
C168 C169 1.334 . S
C169 H146 0.950 . S
C169 C168 1.334 . S
C169 C170 1.287 . S
C170 C169 1.287 . S
C170 C171 1.524 . S
C170 H189 0.913 . S
C171 H147 0.950 1_545 S
C171 C170 1.524 . S
C171 C172 1.415 . S
C172 H148 0.950 1_545 S
C172 C167 1.363 . S
C172 C171 1.415 . S
C173 H149 0.951 1_565 S
C173 C174 1.366 . S
C173 C175 1.388 1_565 S
C174 C173 1.366 . S
C174 C178 1.385 . S
C175 H150 0.951 . S
C175 C173 1.388 1_545 S
C175 C176 1.366 1_545 S
C176 C175 1.366 1_565 S
C176 C177 1.414 . S
C176 C179 1.499 . S
C177 H151 0.950 . S
C177 C176 1.414 . S
C177 C178 1.374 . S
C178 H152 0.950 . S
C178 C174 1.385 . S
C178 C177 1.374 . S
C179 C176 1.499 . S
C179 C180 1.373 1_565 S
C179 C181 1.389 1_565 S
C180 H153 0.950 1_545 S
C180 C166 1.377 . S
C180 C179 1.373 1_545 S
C181 C165 1.377 . S
C181 C179 1.389 1_545 S
C181 C182 1.524 1_545 S
C182 C181 1.524 1_565 S
C182 C183 1.397 . S
C182 C187 1.363 1_565 S
C183 H154 0.950 . S
C183 C182 1.397 . S
C183 C184 1.334 . S
C184 H155 0.950 . S
C184 C183 1.334 . S
C184 C185 1.287 . S
C185 C184 1.287 . S
C185 C186 1.524 1_565 S
C185 H188 0.999 . S
C186 H156 0.950 . S
C186 C185 1.524 1_545 S
C186 C187 1.415 . S
C187 H157 0.950 . S
C187 C182 1.363 1_545 S
C187 C186 1.415 . S
H188 C185 0.999 . S
H189 C170 0.913 . S
H190 C208 0.951 . S
H191 C210 0.951 . S
H192 C212 0.950 . S
H193 C213 0.950 . S
H194 C215 0.950 . S
H195 C218 0.950 . S
H196 C219 0.950 . S
H197 C221 0.950 . S
H198 C222 0.950 . S
H199 C223 0.951 . S
H200 C225 0.951 . S
H201 C227 0.950 . S
H202 C228 0.950 . S
H203 C230 0.950 . S
H204 C233 0.950 . S
H205 C234 0.950 . S
H206 C236 0.950 . S
H207 C237 0.950 . S
C208 H190 0.951 . S
C208 C209 1.366 . S
C208 C210 1.388 . S
C209 C208 1.366 . S
C209 C213 1.385 . S
C210 H191 0.951 . S
C210 C208 1.388 . S
C210 C211 1.366 . S
C211 C210 1.366 . S
C211 C212 1.414 . S
C211 C214 1.499 . S
C212 H192 0.950 . S
C212 C211 1.414 . S
C212 C213 1.374 . S
C213 H193 0.950 . S
C213 C209 1.385 . S
C213 C212 1.374 . S
C214 C211 1.499 . S
C214 C215 1.373 . S
C214 C216 1.389 . S
C215 H194 0.950 . S
C215 C214 1.373 . S
C215 C231 1.377 . S
C216 C214 1.389 . S
C216 C217 1.524 . S
C216 C230 1.377 . S
C217 C216 1.524 . S
C217 C218 1.397 . S
C217 C222 1.363 . S
C218 H195 0.950 . S
C218 C217 1.397 . S
C218 C219 1.334 . S
C219 H196 0.950 . S
C219 C218 1.334 . S
C219 C220 1.287 . S
C220 C219 1.287 . S
C220 C221 1.524 . S
C220 H239 0.913 . S
C221 H197 0.950 . S
C221 C220 1.524 . S
C221 C222 1.415 . S
C222 H198 0.950 . S
C222 C217 1.363 . S
C222 C221 1.415 . S
C223 H199 0.951 . S
C223 C224 1.366 . S
C223 C225 1.388 . S
C224 C223 1.366 . S
C224 C228 1.385 . S
C225 H200 0.951 . S
C225 C223 1.388 . S
C225 C226 1.366 . S
C226 C225 1.366 . S
C226 C227 1.414 . S
C226 C229 1.499 . S
C227 H201 0.950 . S
C227 C226 1.414 . S
C227 C228 1.374 . S
C228 H202 0.950 . S
C228 C224 1.385 . S
C228 C227 1.374 . S
C229 C226 1.499 . S
C229 C230 1.373 . S
C229 C231 1.389 . S
C230 H203 0.950 . S
C230 C216 1.377 . S
C230 C229 1.373 . S
C231 C215 1.377 . S
C231 C229 1.389 . S
C231 C232 1.524 . S
C232 C231 1.524 . S
C232 C233 1.397 . S
C232 C237 1.363 . S
C233 H204 0.950 . S
C233 C232 1.397 . S
C233 C234 1.334 . S
C234 H205 0.950 . S
C234 C233 1.334 . S
C234 C235 1.287 . S
C235 C234 1.287 . S
C235 C236 1.524 . S
C235 H238 0.999 . S
C236 H206 0.950 . S
C236 C235 1.524 . S
C236 C237 1.415 . S
C237 H207 0.950 . S
C237 C232 1.363 . S
C237 C236 1.415 . S
H238 C235 0.999 . S
H239 C220 0.913 . S
H240 C258 0.951 . S
H241 C260 0.951 . S
H242 C262 0.950 . S
H243 C263 0.950 . S
H244 C265 0.950 . S
H245 C268 0.950 . S
H246 C269 0.950 . S
H247 C271 0.950 . S
H248 C272 0.950 . S
H249 C273 0.951 . S
H250 C275 0.951 . S
H251 C277 0.950 . S
H252 C278 0.950 . S
H253 C280 0.950 . S
H254 C283 0.950 . S
H255 C284 0.950 . S
H256 C286 0.950 . S
H257 C287 0.950 . S
C258 H240 0.951 . S
C258 C259 1.366 . S
C258 C260 1.388 . S
C259 C258 1.366 . S
C259 C263 1.385 1_545 S
C260 H241 0.951 . S
C260 C258 1.388 . S
C260 C261 1.366 . S
C261 C260 1.366 . S
C261 C262 1.414 1_545 S
C261 C264 1.499 . S
C262 H242 0.950 . S
C262 C261 1.414 1_565 S
C262 C263 1.374 . S
C263 H243 0.950 . S
C263 C259 1.385 1_565 S
C263 C262 1.374 . S
C264 C261 1.499 . S
C264 C265 1.373 1_545 S
C264 C266 1.389 . S
C265 H244 0.950 . S
C265 C264 1.373 1_565 S
C265 C281 1.377 . S
C266 C264 1.389 . S
C266 C267 1.524 . S
C266 C280 1.377 . S
C267 C266 1.524 . S
C267 C268 1.397 . S
C267 C272 1.363 . S
C268 H245 0.950 . S
C268 C267 1.397 . S
C268 C269 1.334 . S
C269 H246 0.950 . S
C269 C268 1.334 . S
C269 C270 1.287 . S
C270 C269 1.287 . S
C270 C271 1.524 . S
C270 H289 0.913 . S
C271 H247 0.950 . S
C271 C270 1.524 . S
C271 C272 1.415 . S
C272 H248 0.950 . S
C272 C267 1.363 . S
C272 C271 1.415 . S
C273 H249 0.951 . S
C273 C274 1.366 . S
C273 C275 1.388 . S
C274 C273 1.366 . S
C274 C278 1.385 1_565 S
C275 H250 0.951 . S
C275 C273 1.388 . S
C275 C276 1.366 . S
C276 C275 1.366 . S
C276 C277 1.414 1_565 S
C276 C279 1.499 1_565 S
C277 H251 0.950 . S
C277 C276 1.414 1_545 S
C277 C278 1.374 . S
C278 H252 0.950 . S
C278 C274 1.385 1_545 S
C278 C277 1.374 . S
C279 C276 1.499 1_545 S
C279 C280 1.373 . S
C279 C281 1.389 1_545 S
C280 H253 0.950 . S
C280 C266 1.377 . S
C280 C279 1.373 . S
C281 C265 1.377 . S
C281 C279 1.389 1_565 S
C281 C282 1.524 . S
C282 C281 1.524 . S
C282 C283 1.397 . S
C282 C287 1.363 . S
C283 H254 0.950 . S
C283 C282 1.397 . S
C283 C284 1.334 . S
C284 H255 0.950 . S
C284 C283 1.334 . S
C284 C285 1.287 . S
C285 C284 1.287 . S
C285 C286 1.524 . S
C285 H288 0.999 . S
C286 H256 0.950 . S
C286 C285 1.524 . S
C286 C287 1.415 . S
C287 H257 0.950 . S
C287 C282 1.363 . S
C287 C286 1.415 . S
H288 C285 0.999 . S
H289 C270 0.913 . S
H290 C308 0.951 . S
H291 C310 0.951 . S
H292 C312 0.950 . S
H293 C313 0.950 . S
H294 C315 0.950 . S
H295 C318 0.950 1_556 S
H296 C319 0.950 . S
H297 C321 0.950 . S
H298 C322 0.950 . S
H299 C323 0.951 . S
H300 C325 0.951 . S
H301 C327 0.950 . S
H302 C328 0.950 . S
H303 C330 0.950 . S
H304 C333 0.950 1_554 S
H305 C334 0.950 . S
H306 C336 0.950 . S
H307 C337 0.950 . S
C308 H290 0.951 . S
C308 C309 1.366 . S
C308 C310 1.388 . S
C309 C308 1.366 . S
C309 C313 1.385 1_554 S
C310 H291 0.951 . S
C310 C308 1.388 . S
C310 C311 1.366 . S
C311 C310 1.366 . S
C311 C312 1.414 1_554 S
C311 C314 1.498 . S
C312 H292 0.950 . S
C312 C311 1.414 1_556 S
C312 C313 1.374 . S
C313 H293 0.950 . S
C313 C309 1.385 1_556 S
C313 C312 1.374 . S
C314 C311 1.498 . S
C314 C315 1.360 1_554 S
C314 C316 1.405 . S
C315 H294 0.950 . S
C315 C314 1.360 1_556 S
C315 C331 1.377 . S
C316 C314 1.405 . S
C316 C317 1.524 . S
C316 C330 1.377 . S
C317 C316 1.524 . S
C317 C318 1.397 . S
C317 C322 1.363 . S
C318 H295 0.950 1_554 S
C318 C317 1.397 . S
C318 C319 1.334 . S
C319 H296 0.950 . S
C319 C318 1.334 . S
C319 C320 1.287 . S
C320 C319 1.287 . S
C320 C321 1.524 . S
C320 H339 0.913 . S
C321 H297 0.950 . S
C321 C320 1.524 . S
C321 C322 1.415 . S
C322 H298 0.950 . S
C322 C317 1.363 . S
C322 C321 1.415 . S
C323 H299 0.951 . S
C323 C324 1.366 1_556 S
C323 C325 1.388 . S
C324 C323 1.366 1_554 S
C324 C328 1.385 . S
C325 H300 0.951 . S
C325 C323 1.388 . S
C325 C326 1.366 1_556 S
C326 C325 1.366 1_554 S
C326 C327 1.414 . S
C326 C329 1.499 . S
C327 H301 0.950 . S
C327 C326 1.414 . S
C327 C328 1.374 . S
C328 H302 0.950 . S
C328 C324 1.385 . S
C328 C327 1.374 . S
C329 C326 1.499 . S
C329 C330 1.373 . S
C329 C331 1.389 1_554 S
C330 H303 0.950 . S
C330 C316 1.377 . S
C330 C329 1.373 . S
C331 C315 1.377 . S
C331 C329 1.389 1_556 S
C331 C332 1.524 . S
C332 C331 1.524 . S
C332 C333 1.397 . S
C332 C337 1.363 . S
C333 H304 0.950 1_556 S
C333 C332 1.397 . S
C333 C334 1.334 . S
C334 H305 0.950 . S
C334 C333 1.334 . S
C334 C335 1.287 . S
C335 C334 1.287 . S
C335 C336 1.524 . S
C335 H338 0.999 . S
C336 H306 0.950 . S
C336 C335 1.524 . S
C336 C337 1.415 . S
C337 H307 0.950 . S
C337 C332 1.363 . S
C337 C336 1.415 . S
H338 C335 0.999 . S
H339 C320 0.913 . S
H340 C358 0.951 . S
H341 C360 0.951 . S
H342 C362 0.950 . S
H343 C363 0.950 . S
H344 C365 0.950 . S
H345 C368 0.950 . S
H346 C369 0.950 . S
H347 C371 0.950 . S
H348 C372 0.950 . S
H349 C373 0.951 . S
H350 C375 0.951 . S
H351 C377 0.950 . S
H352 C378 0.950 . S
H353 C380 0.950 1_655 S
H354 C383 0.950 . S
H355 C384 0.950 . S
H356 C386 0.950 . S
H357 C387 0.950 . S
C358 H340 0.951 . S
C358 C359 1.366 . S
C358 C360 1.388 . S
C359 C358 1.366 . S
C359 C363 1.385 . S
C360 H341 0.951 . S
C360 C358 1.388 . S
C360 C361 1.366 . S
C361 C360 1.366 . S
C361 C362 1.414 . S
C361 C364 1.499 . S
C362 H342 0.950 . S
C362 C361 1.414 . S
C362 C363 1.374 . S
C363 H343 0.950 . S
C363 C359 1.385 . S
C363 C362 1.374 . S
C364 C361 1.499 . S
C364 C365 1.373 . S
C364 C366 1.389 . S
C365 H344 0.950 . S
C365 C364 1.373 . S
C365 C381 1.377 . S
C366 C364 1.389 . S
C366 C367 1.524 1_455 S
C366 C380 1.377 . S
C367 C366 1.524 1_655 S
C367 C368 1.397 . S
C367 C372 1.363 . S
C368 H345 0.950 . S
C368 C367 1.397 . S
C368 C369 1.334 . S
C369 H346 0.950 . S
C369 C368 1.334 . S
C369 C370 1.287 . S
C370 C369 1.287 . S
C370 C371 1.524 . S
C370 H389 0.913 . S
C371 H347 0.950 . S
C371 C370 1.524 . S
C371 C372 1.415 . S
C372 H348 0.950 . S
C372 C367 1.363 . S
C372 C371 1.415 . S
C373 H349 0.951 . S
C373 C374 1.366 . S
C373 C375 1.388 . S
C374 C373 1.366 . S
C374 C378 1.385 . S
C375 H350 0.951 . S
C375 C373 1.388 . S
C375 C376 1.366 . S
C376 C375 1.366 . S
C376 C377 1.414 . S
C376 C379 1.499 . S
C377 H351 0.950 . S
C377 C376 1.414 . S
C377 C378 1.374 . S
C378 H352 0.950 . S
C378 C374 1.385 . S
C378 C377 1.374 . S
C379 C376 1.499 . S
C379 C380 1.373 . S
C379 C381 1.389 . S
C380 H353 0.950 1_455 S
C380 C366 1.377 . S
C380 C379 1.373 . S
C381 C365 1.377 . S
C381 C379 1.389 . S
C381 C382 1.524 . S
C382 C381 1.524 . S
C382 C383 1.397 . S
C382 C387 1.363 . S
C383 H354 0.950 . S
C383 C382 1.397 . S
C383 C384 1.334 . S
C384 H355 0.950 . S
C384 C383 1.334 . S
C384 C385 1.287 . S
C385 C384 1.287 . S
C385 C386 1.524 . S
C385 H388 0.999 . S
C386 H356 0.950 . S
C386 C385 1.524 . S
C386 C387 1.415 . S
C387 H357 0.950 . S
C387 C382 1.363 . S
C387 C386 1.415 . S
H388 C385 0.999 . S
H389 C370 0.913 . S
H390 C408 0.951 . S
H391 C410 0.951 . S
H392 C412 0.950 . S
H393 C413 0.950 . S
H394 C415 0.950 . S
H395 C418 0.950 . S
H396 C419 0.950 . S
H397 C421 0.950 . S
H398 C422 0.950 . S
H399 C423 0.951 . S
H400 C425 0.951 . S
H401 C427 0.950 . S
H402 C428 0.950 . S
H403 C430 0.950 . S
H404 C433 0.950 1_655 S
H405 C434 0.950 . S
H406 C436 0.950 . S
H407 C437 0.950 . S
C408 H390 0.951 . S
C408 C409 1.366 1_665 S
C408 C410 1.388 . S
C409 C408 1.366 1_445 S
C409 C413 1.385 . S
C410 H391 0.951 . S
C410 C408 1.388 . S
C410 C411 1.366 1_665 S
C411 C410 1.366 1_445 S
C411 C412 1.414 . S
C411 C414 1.499 . S
C412 H392 0.950 . S
C412 C411 1.414 . S
C412 C413 1.374 . S
C413 H393 0.950 . S
C413 C409 1.385 . S
C413 C412 1.374 . S
C414 C411 1.499 . S
C414 C415 1.373 . S
C414 C416 1.389 1_545 S
C415 H394 0.950 . S
C415 C414 1.373 . S
C415 C431 1.377 . S
C416 C414 1.389 1_565 S
C416 C417 1.524 1_455 S
C416 C430 1.377 1_455 S
C417 C416 1.524 1_655 S
C417 C418 1.397 1_655 S
C417 C422 1.363 . S
C418 H395 0.950 . S
C418 C417 1.397 1_455 S
C418 C419 1.334 . S
C419 H396 0.950 . S
C419 C418 1.334 . S
C419 C420 1.287 1_455 S
C420 C419 1.287 1_655 S
C420 C421 1.524 . S
C420 H439 0.913 . S
C421 H397 0.950 . S
C421 C420 1.524 . S
C421 C422 1.415 . S
C422 H398 0.950 . S
C422 C417 1.363 . S
C422 C421 1.415 . S
C423 H399 0.951 . S
C423 C424 1.366 . S
C423 C425 1.388 . S
C424 C423 1.366 . S
C424 C428 1.385 1_445 S
C425 H400 0.951 . S
C425 C423 1.388 . S
C425 C426 1.366 . S
C426 C425 1.366 . S
C426 C427 1.414 1_445 S
C426 C429 1.499 . S
C427 H401 0.950 . S
C427 C426 1.414 1_665 S
C427 C428 1.374 . S
C428 H402 0.950 . S
C428 C424 1.385 1_665 S
C428 C427 1.374 . S
C429 C426 1.499 . S
C429 C430 1.373 1_445 S
C429 C431 1.389 . S
C430 H403 0.950 . S
C430 C416 1.377 1_655 S
C430 C429 1.373 1_665 S
C431 C415 1.377 . S
C431 C429 1.389 . S
C431 C432 1.524 . S
C432 C431 1.524 . S
C432 C433 1.397 . S
C432 C437 1.363 . S
C433 H404 0.950 1_455 S
C433 C432 1.397 . S
C433 C434 1.334 . S
C434 H405 0.950 . S
C434 C433 1.334 . S
C434 C435 1.287 . S
C435 C434 1.287 . S
C435 C436 1.524 . S
C435 H438 0.999 . S
C436 H406 0.950 . S
C436 C435 1.524 . S
C436 C437 1.415 . S
C437 H407 0.950 . S
C437 C432 1.363 . S
C437 C436 1.415 . S
H438 C435 0.999 . S
H439 C420 0.913 . S
H440 C458 0.951 . S
H441 C460 0.951 . S
H442 C462 0.950 . S
H443 C463 0.950 . S
H444 C465 0.950 . S
H445 C468 0.950 . S
H446 C469 0.950 . S
H447 C471 0.950 . S
H448 C472 0.950 . S
H449 C473 0.951 . S
H450 C475 0.951 . S
H451 C477 0.950 . S
H452 C478 0.950 . S
H453 C480 0.950 1_655 S
H454 C483 0.950 . S
H455 C484 0.950 . S
H456 C486 0.950 . S
H457 C487 0.950 . S
C458 H440 0.951 . S
C458 C459 1.366 1_565 S
C458 C460 1.388 . S
C459 C458 1.366 1_545 S
C459 C463 1.385 . S
C460 H441 0.951 . S
C460 C458 1.388 . S
C460 C461 1.366 1_565 S
C461 C460 1.366 1_545 S
C461 C462 1.414 . S
C461 C464 1.499 . S
C462 H442 0.950 . S
C462 C461 1.414 . S
C462 C463 1.374 . S
C463 H443 0.950 . S
C463 C459 1.385 . S
C463 C462 1.374 . S
C464 C461 1.499 . S
C464 C465 1.373 . S
C464 C466 1.389 1_445 S
C465 H444 0.950 . S
C465 C464 1.373 . S
C465 C481 1.377 . S
C466 C464 1.389 1_665 S
C466 C467 1.524 . S
C466 C480 1.377 1_655 S
C467 C466 1.524 . S
C467 C468 1.397 . S
C467 C472 1.363 . S
C468 H445 0.950 . S
C468 C467 1.397 . S
C468 C469 1.334 . S
C469 H446 0.950 . S
C469 C468 1.334 . S
C469 C470 1.287 . S
C470 C469 1.287 . S
C470 C471 1.524 . S
C470 H489 0.913 . S
C471 H447 0.950 . S
C471 C470 1.524 . S
C471 C472 1.415 . S
C472 H448 0.950 . S
C472 C467 1.363 . S
C472 C471 1.415 . S
C473 H449 0.951 . S
C473 C474 1.366 . S
C473 C475 1.388 . S
C474 C473 1.366 . S
C474 C478 1.385 1_545 S
C475 H450 0.951 . S
C475 C473 1.388 . S
C475 C476 1.366 . S
C476 C475 1.366 . S
C476 C477 1.414 1_545 S
C476 C479 1.499 . S
C477 H451 0.950 . S
C477 C476 1.414 1_565 S
C477 C478 1.374 . S
C478 H452 0.950 . S
C478 C474 1.385 1_565 S
C478 C477 1.374 . S
C479 C476 1.499 . S
C479 C480 1.373 1_545 S
C479 C481 1.389 . S
C480 H453 0.950 1_455 S
C480 C466 1.377 1_455 S
C480 C479 1.373 1_565 S
C481 C465 1.377 . S
C481 C479 1.389 . S
C481 C482 1.524 . S
C482 C481 1.524 . S
C482 C483 1.397 . S
C482 C487 1.363 . S
C483 H454 0.950 . S
C483 C482 1.397 . S
C483 C484 1.334 . S
C484 H455 0.950 . S
C484 C483 1.334 . S
C484 C485 1.287 . S
C485 C484 1.287 . S
C485 C486 1.524 . S
C485 H488 0.999 . S
C486 H456 0.950 . S
C486 C485 1.524 . S
C486 C487 1.415 . S
C487 H457 0.950 . S
C487 C482 1.363 . S
C487 C486 1.415 . S
H488 C485 0.999 . S
H489 C470 0.913 . S
H490 C508 0.951 . S
H491 C510 0.951 . S
H492 C512 0.950 . S
H493 C513 0.950 . S
H494 C515 0.950 . S
H495 C518 0.950 . S
H496 C519 0.950 . S
H497 C521 0.950 . S
H498 C522 0.950 . S
H499 C523 0.951 . S
H500 C525 0.951 . S
H501 C527 0.950 . S
H502 C528 0.950 . S
H503 C530 0.950 . S
H504 C533 0.950 . S
H505 C534 0.950 . S
H506 C536 0.950 . S
H507 C537 0.950 . S
C508 H490 0.951 . S
C508 C509 1.366 1_665 S
C508 C510 1.388 . S
C509 C508 1.366 1_445 S
C509 C513 1.385 . S
C510 H491 0.951 . S
C510 C508 1.388 . S
C510 C511 1.366 1_665 S
C511 C510 1.366 1_445 S
C511 C512 1.414 . S
C511 C514 1.499 . S
C512 H492 0.950 . S
C512 C511 1.414 . S
C512 C513 1.374 . S
C513 H493 0.950 . S
C513 C509 1.385 . S
C513 C512 1.374 . S
C514 C511 1.499 . S
C514 C515 1.373 . S
C514 C516 1.389 1_445 S
C515 H494 0.950 . S
C515 C514 1.373 . S
C515 C531 1.377 . S
C516 C514 1.389 1_665 S
C516 C517 1.524 . S
C516 C530 1.377 . S
C517 C516 1.524 . S
C517 C518 1.397 1_565 S
C517 C522 1.363 . S
C518 H495 0.950 . S
C518 C517 1.397 1_545 S
C518 C519 1.334 . S
C519 H496 0.950 . S
C519 C518 1.334 . S
C519 C520 1.287 1_545 S
C520 C519 1.287 1_565 S
C520 C521 1.524 . S
C520 H539 0.913 . S
C521 H497 0.950 . S
C521 C520 1.524 . S
C521 C522 1.415 . S
C522 H498 0.950 . S
C522 C517 1.363 . S
C522 C521 1.415 . S
C523 H499 0.951 . S
C523 C524 1.366 . S
C523 C525 1.388 . S
C524 C523 1.366 . S
C524 C528 1.385 1_445 S
C525 H500 0.951 . S
C525 C523 1.388 . S
C525 C526 1.366 . S
C526 C525 1.366 . S
C526 C527 1.414 1_445 S
C526 C529 1.499 . S
C527 H501 0.950 . S
C527 C526 1.414 1_665 S
C527 C528 1.374 . S
C528 H502 0.950 . S
C528 C524 1.385 1_665 S
C528 C527 1.374 . S
C529 C526 1.499 . S
C529 C530 1.373 1_445 S
C529 C531 1.389 . S
C530 H503 0.950 . S
C530 C516 1.377 . S
C530 C529 1.373 1_665 S
C531 C515 1.377 . S
C531 C529 1.389 . S
C531 C532 1.524 . S
C532 C531 1.524 . S
C532 C533 1.397 1_545 S
C532 C537 1.363 . S
C533 H504 0.950 . S
C533 C532 1.397 1_565 S
C533 C534 1.334 . S
C534 H505 0.950 . S
C534 C533 1.334 . S
C534 C535 1.287 1_565 S
C535 C534 1.287 1_545 S
C535 C536 1.524 . S
C535 H538 0.999 . S
C536 H506 0.950 . S
C536 C535 1.524 . S
C536 C537 1.415 . S
C537 H507 0.950 . S
C537 C532 1.363 . S
C537 C536 1.415 . S
H538 C535 0.999 . S
H539 C520 0.913 . S
C109 N14 0.409 . S
C124 N6 0.409 1_554 S
C159 N36 0.430 . S
C174 N44 0.430 . S
C209 N66 0.399 . S
C224 N74 0.399 . S
C259 C76 2.548 . S
C274 C87 2.548 . S
C309 C16 2.547 . S
C324 C27 2.546 . S
C359 C57 2.548 . S
C374 C46 2.548 . S
C409 C31 1.499 . S
C424 C10 1.497 . S
C459 C40 1.501 . S
C474 C61 1.497 . S
C509 C70 1.498 . S
C524 C1 1.501 . S
