# Generated by pormake.
# Topology umf, (4)-cn, num edge types: 1
# Building blocks:
#     Node 0, Type 0, BuildingBlock: MUDLON_clean_sbu_0, # of connection points: 4
#     Node 1, Type 0, BuildingBlock: MUDLON_clean_sbu_0, # of connection points: 4
#     Node 2, Type 0, BuildingBlock: MUDLON_clean_sbu_0, # of connection points: 4
#     Node 3, Type 0, BuildingBlock: MUDLON_clean_sbu_0, # of connection points: 4
#     Node 4, Type 0, BuildingBlock: MUDLON_clean_sbu_0, # of connection points: 4
#     Node 5, Type 0, BuildingBlock: MUDLON_clean_sbu_0, # of connection points: 4
#     Node 6, Type 0, BuildingBlock: MUDLON_clean_sbu_0, # of connection points: 4
#     Node 7, Type 0, BuildingBlock: MUDLON_clean_sbu_0, # of connection points: 4
#     Edge 8, Type (0, 0), BuildingBlock: FUNLAD_clean_linker_0, # of connection points: 2
#     Edge 9, Type (0, 0), BuildingBlock: FUNLAD_clean_linker_0, # of connection points: 2
#     Edge 10, Type (0, 0), BuildingBlock: FUNLAD_clean_linker_0, # of connection points: 2
#     Edge 11, Type (0, 0), BuildingBlock: FUNLAD_clean_linker_0, # of connection points: 2
#     Edge 12, Type (0, 0), BuildingBlock: FUNLAD_clean_linker_0, # of connection points: 2
#     Edge 13, Type (0, 0), BuildingBlock: FUNLAD_clean_linker_0, # of connection points: 2
#     Edge 14, Type (0, 0), BuildingBlock: FUNLAD_clean_linker_0, # of connection points: 2
#     Edge 15, Type (0, 0), BuildingBlock: FUNLAD_clean_linker_0, # of connection points: 2
#     Edge 16, Type (0, 0), BuildingBlock: FUNLAD_clean_linker_0, # of connection points: 2
#     Edge 17, Type (0, 0), BuildingBlock: FUNLAD_clean_linker_0, # of connection points: 2
#     Edge 18, Type (0, 0), BuildingBlock: FUNLAD_clean_linker_0, # of connection points: 2
#     Edge 19, Type (0, 0), BuildingBlock: FUNLAD_clean_linker_0, # of connection points: 2
#     Edge 20, Type (0, 0), BuildingBlock: FUNLAD_clean_linker_0, # of connection points: 2
#     Edge 21, Type (0, 0), BuildingBlock: FUNLAD_clean_linker_0, # of connection points: 2
#     Edge 22, Type (0, 0), BuildingBlock: FUNLAD_clean_linker_0, # of connection points: 2
#     Edge 23, Type (0, 0), BuildingBlock: FUNLAD_clean_linker_0, # of connection points: 2
# Relax obj value: 0.093
# Max RMSD: 0.171
# Mean RMSD: 0.171
data_MOF--net-umf--node1-MUDLON_clean_sbu_0--edge1-FUNLAD_clean_linker_0
_symmetry_space_group_name_H-M    P1
_symmetry_Int_Tables_number       1
_symmetry_cell_setting            triclinic
loop_
_symmetry_equiv_pos_as_xyz
'x, y, z'
_cell_length_a     34.27284
_cell_length_b     34.534509
_cell_length_c     64.174691
_cell_angle_alpha  90.107887
_cell_angle_beta   90.034787
_cell_angle_gamma 89.731955
loop_
_atom_site_label
_atom_site_type_symbol
_atom_site_fract_x
_atom_site_fract_y
_atom_site_fract_z
_atom_type_partial_charge
Mg0 Mg 0.04821 0.23555 0.16127 0.0
C1 C 0.04375 0.26383 0.11647 0.0
O2 O 0.03681 0.29662 0.12622 0.0
C3 C 0.09401 0.23588 0.1995 0.0
O4 O 0.05864 0.24664 0.20498 0.0
C5 C 0.04344 0.31769 0.17433 0.0
O6 O 0.08123 0.3114 0.17328 0.0
O7 O 0.02031 0.28994 0.17026 0.0
O8 O 0.0526 0.234 0.12716 0.0
O9 O 0.0174 0.18311 0.16961 0.0
C10 C 0.03606 0.15357 0.16306 0.0
O11 O 0.06784 0.15913 0.15202 0.0
O12 O 0.10087 0.22952 0.18027 0.0
Mg13 Mg 0.76152 0.04585 0.66272 0.0
C14 C 0.7311 0.04754 0.61806 0.0
O15 O 0.69796 0.05381 0.62781 0.0
C16 C 0.7463 0.10696 0.69508 0.0
O17 O 0.71886 0.08189 0.69952 0.0
C18 C 0.69386 0.9891 0.6633 0.0
O19 O 0.71594 0.97089 0.64968 0.0
O20 O 0.70671 0.01959 0.67196 0.0
O21 O 0.76251 0.04624 0.62862 0.0
O22 O 0.81347 0.01349 0.67164 0.0
C23 C 0.83257 0.02296 0.68786 0.0
O24 O 0.81761 0.04877 0.70065 0.0
O25 O 0.76709 0.10136 0.67888 0.0
Mg26 Mg 0.93978 0.73768 0.16706 0.0
C27 C 0.96647 0.73332 0.12413 0.0
O28 O 0.9971 0.72565 0.13576 0.0
C29 C 0.86582 0.77041 0.18801 0.0
O30 O 0.87193 0.79984 0.1755 0.0
C31 C 0.96753 0.66564 0.19072 0.0
O32 O 0.95421 0.68439 0.20709 0.0
O33 O 0.96678 0.68195 0.17299 0.0
O34 O 0.93404 0.74018 0.13317 0.0
O35 O 0.97622 0.78695 0.17486 0.0
C36 C 0.96998 0.80818 0.19074 0.0
O37 O 0.94381 0.79748 0.20448 0.0
O38 O 0.88747 0.74054 0.18643 0.0
Mg39 Mg 0.25207 0.93912 0.66462 0.0
C40 C 0.2388 0.96837 0.6226 0.0
O41 O 0.23647 -0.00137 0.635 0.0
C42 C 0.27223 0.88159 0.69801 0.0
O43 O 0.30324 0.90376 0.69823 0.0
C44 C 0.33636 0.94584 0.65911 0.0
O45 O 0.32606 0.91721 0.64679 0.0
O46 O 0.30991 0.96337 0.66941 0.0
O47 O 0.24504 0.93528 0.63075 0.0
O48 O 0.20335 0.97481 0.6749 0.0
C49 C 0.1882 0.97021 0.69281 0.0
O50 O 0.206 0.94786 0.7064 0.0
O51 O 0.24685 0.88682 0.68376 0.0
Mg52 Mg 0.06334 0.75482 0.89106 0.0
C53 C 0.03762 0.7431 0.93377 0.0
O54 O 0.00605 0.74153 0.92217 0.0
C55 C 0.1322 0.78274 0.86488 0.0
O56 O 0.12497 0.81544 0.87464 0.0
C57 C 0.04837 0.67398 0.8838 0.0
O58 O 0.08484 0.67638 0.89001 0.0
O59 O 0.02874 0.70514 0.88194 0.0
O60 O 0.07034 0.7482 0.92477 0.0
O61 O 0.03678 0.81141 0.88633 0.0
C62 C 0.04924 0.83736 0.89873 0.0
O63 O 0.07408 0.82725 0.91336 0.0
O64 O 0.11381 0.75244 0.87028 0.0
Mg65 Mg 0.24484 0.04464 0.3883 0.0
C66 C 0.25489 0.01317 0.43019 0.0
O67 O 0.26302 0.98448 0.4174 0.0
C68 C 0.25234 0.10337 0.35426 0.0
O69 O 0.2787 0.07766 0.3487 0.0
C70 C 0.32947 0.0424 0.38445 0.0
O71 O 0.32208 0.07399 0.39523 0.0
O72 O 0.30097 0.02151 0.37869 0.0
O73 O 0.24588 0.04594 0.42239 0.0
O74 O 0.19502 0.00864 0.38084 0.0
C75 C 0.17228 0.01791 0.36597 0.0
O76 O 0.18265 0.04569 0.35321 0.0
O77 O 0.23481 0.09903 0.37161 0.0
Mg78 Mg 0.93303 0.24925 0.88935 0.0
C79 C 0.92972 0.21896 0.93413 0.0
O80 O 0.93055 0.18533 0.92454 0.0
C81 C 0.88382 0.25502 0.85162 0.0
O82 O 0.91467 0.2756 0.84684 0.0
C83 C 0.93776 0.3341 0.88529 0.0
O84 O 0.90316 0.32898 0.89363 0.0
O85 O 0.95871 0.30451 0.8813 0.0
O86 O 0.92697 0.24973 0.92331 0.0
O87 O 0.96954 0.20009 0.88142 0.0
C88 C 0.99914 0.18986 0.89202 0.0
O89 O 0.01112 0.21219 0.90731 0.0
O90 O 0.88129 0.24106 0.86994 0.0
Mg91 Mg 0.75087 0.91643 0.39231 0.0
C92 C 0.72934 0.9156 0.43799 0.0
O93 O 0.69457 0.91923 0.42959 0.0
C94 C 0.73339 0.85621 0.35865 0.0
O95 O 0.69937 0.87383 0.35862 0.0
C96 C 0.67863 0.95766 0.37197 0.0
O97 O 0.69783 0.95715 0.35426 0.0
O98 O 0.69418 0.94358 0.38828 0.0
O99 O 0.75854 0.90989 0.42608 0.0
O100 O 0.79783 0.95312 0.38151 0.0
C101 C 0.82259 0.96631 0.39442 0.0
O102 O 0.8164 0.96164 0.41445 0.0
O103 O 0.75824 0.8651 0.3726 0.0
C104 C 0.05403 0.3851 0.18715 0.0
C105 C 0.02879 0.35721 0.17869 0.0
C106 C 0.04184 0.42347 0.18957 0.0
C107 C 0.00409 0.43488 0.18348 0.0
C108 C 0.97859 0.40685 0.1754 0.0
C109 C 0.99066 0.36827 0.17322 0.0
C110 C 0.9919 0.4762 0.18355 0.0
C111 C 0.00665 0.50283 0.19672 0.0
C112 C 0.99689 0.54462 0.19505 0.0
C113 C 0.99487 0.56752 0.21312 0.0
C114 C 0.98568 0.607 0.2118 0.0
C115 C 0.97932 0.62445 0.19231 0.0
H116 H 0.99375 0.54565 0.16127 0.0
C117 C 0.98265 0.60169 0.1742 0.0
C118 C 0.99117 0.56222 0.17555 0.0
H119 H 0.97804 0.61421 0.15893 0.0
H120 H 0.08362 0.37746 0.19151 0.0
H121 H 0.06266 0.44435 0.19537 0.0
H122 H 0.94947 0.41496 0.17043 0.0
H123 H 0.97063 0.34748 0.16655 0.0
H124 H 0.96981 0.48493 0.17231 0.0
H125 H 0.02569 0.49385 0.20937 0.0
H126 H 0.99973 0.5547 0.22831 0.0
H127 H 0.98351 0.62381 0.22603 0.0
C128 C 0.40644 0.93462 0.65024 0.0
C129 C 0.37824 0.95518 0.66175 0.0
C130 C 0.44612 0.94186 0.65302 0.0
C131 C 0.45873 0.96974 0.66751 0.0
C132 C 0.43054 0.991 0.67866 0.0
C133 C 0.39067 0.98367 0.67591 0.0
C134 C 0.50087 0.97841 0.67057 0.0
C135 C 0.52942 0.95215 0.66698 0.0
C136 C 0.57189 0.96094 0.66781 0.0
C137 C 0.59772 0.93681 0.65675 0.0
C138 C 0.63754 0.94518 0.65584 0.0
C139 C 0.65256 0.97774 0.66619 0.0
H140 H 0.5686 0.0112 0.68824 0.0
C141 C 0.62706 0.00089 0.6781 0.0
C142 C 0.58716 0.99261 0.67893 0.0
H143 H 0.63773 0.02604 0.68642 0.0
H144 H 0.39793 0.91277 0.63902 0.0
H145 H 0.46667 0.92596 0.64345 0.0
H146 H 0.43939 0.01305 0.6897 0.0
H147 H 0.36967 0.00012 0.68495 0.0
H148 H 0.50818 0.00745 0.67566 0.0
H149 H 0.52156 0.92302 0.66223 0.0
H150 H 0.5869 0.91196 0.64822 0.0
H151 H 0.65636 0.92661 0.64661 0.0
C152 C 0.92992 0.40605 0.88741 0.0
C153 C 0.95213 0.37372 0.8812 0.0
C154 C 0.94393 0.44357 0.88445 0.0
C155 C 0.98044 0.44968 0.87498 0.0
C156 C 0.00232 0.41729 0.86851 0.0
C157 C 0.98836 0.37974 0.87155 0.0
C158 C 0.9981 0.48884 0.87302 0.0
C159 C 0.97822 0.52243 0.87532 0.0
C160 C 0.99736 0.56106 0.87604 0.0
C161 C 0.97476 0.5946 0.87275 0.0
C162 C 0.99127 0.63147 0.8748 0.0
C163 C 0.03071 0.63546 0.88033 0.0
H164 H 0.05523 0.5405 0.88486 0.0
C165 C 0.05336 0.60193 0.88341 0.0
C166 C 0.03692 0.56525 0.88142 0.0
H167 H 0.08379 0.60389 0.88783 0.0
H168 H 0.90195 0.40244 0.89499 0.0
H169 H 0.92642 0.46735 0.89024 0.0
H170 H 0.03066 0.421 0.86132 0.0
H171 H 0.00618 0.35545 0.86656 0.0
H172 H 0.02909 0.48969 0.86963 0.0
H173 H 0.94671 0.52206 0.87679 0.0
H174 H 0.94411 0.59231 0.86881 0.0
H175 H 0.973 0.65674 0.8724 0.0
C176 C 0.40075 0.05664 0.38525 0.0
C177 C 0.37021 0.03218 0.37906 0.0
C178 C 0.43942 0.04715 0.38072 0.0
C179 C 0.44856 0.01269 0.37003 0.0
C180 C 0.418 0.98881 0.36324 0.0
C181 C 0.37915 -0.00166 0.36779 0.0
C182 C 0.48966 0.00104 0.36595 0.0
C183 C 0.51887 0.01053 0.37903 0.0
C184 C 0.55983 -0.00259 0.37639 0.0
C185 C 0.58306 0.99349 0.39425 0.0
C186 C 0.62165 0.98096 0.3927 0.0
C187 C 0.63822 0.97268 0.37316 0.0
H188 H 0.5596 0.99343 0.3426 0.0
C189 C 0.6154 0.97762 0.35514 0.0
C190 C 0.57642 0.98973 0.35673 0.0
H191 H 0.62742 0.97153 0.33987 0.0
H192 H 0.39489 0.08324 0.39368 0.0
H193 H 0.46202 0.06704 0.38554 0.0
H194 H 0.42423 0.96232 0.35478 0.0
H195 H 0.35623 0.97906 0.36265 0.0
H196 H 0.49539 0.98195 0.35282 0.0
H197 H 0.51214 0.02629 0.39326 0.0
H198 H 0.57112 -0.00042 0.40955 0.0
H199 H 0.63851 0.97772 0.40688 0.0
C200 C 0.94424 0.25716 0.96665 0.0
C201 C 0.93839 0.22121 0.95682 0.0
C202 C 0.95672 0.25906 0.98743 0.0
C203 C 0.96379 0.22495 0.99889 0.0
C204 C 0.95634 0.18914 0.98929 0.0
C205 C 0.94402 0.18724 0.96851 0.0
C206 C 0.97824 0.22535 1.02087 0.0
C207 C 0.99802 0.25516 0.02944 0.0
C208 C 0.01189 0.25599 0.0515 0.0
C209 C 0.01785 0.29208 0.06107 0.0
C210 C 0.02939 0.29452 0.08194 0.0
C211 C 0.03587 0.26085 0.09375 0.0
H212 H 0.01676 0.19378 0.05613 0.0
C213 C 0.03162 0.22462 0.08396 0.0
C214 C 0.01969 0.22217 0.06308 0.0
H215 H 0.03649 0.19809 0.09258 0.0
H216 H 0.93996 0.28394 0.95818 0.0
H217 H 0.96059 0.28733 0.99437 0.0
H218 H 0.96097 0.16238 0.99776 0.0
H219 H 0.93972 0.15902 0.9615 0.0
H220 H 0.97274 0.19969 0.03013 0.0
H221 H 0.00359 0.28081 1.02019 0.0
H222 H 0.01261 0.31863 0.05252 0.0
H223 H 0.03257 0.32292 0.08892 0.0
C224 C 0.76485 0.02207 0.58591 0.0
C225 C 0.73098 0.03656 0.59564 0.0
C226 C 0.76352 0.00795 0.56541 0.0
C227 C 0.72818 0.00802 0.55416 0.0
C228 C 0.6948 0.02384 0.56369 0.0
C229 C 0.69609 0.03774 0.58416 0.0
C230 C 0.72437 0.99226 0.53255 0.0
C231 C 0.75024 0.96812 0.52325 0.0
C232 C 0.7443 0.95214 0.50184 0.0
C233 C 0.7769 0.94211 0.48965 0.0
C234 C 0.77224 0.92872 0.46914 0.0
C235 C 0.73477 0.92468 0.46047 0.0
H236 H 0.68088 0.95198 0.50259 0.0
C237 C 0.70216 0.93284 0.47305 0.0
C238 C 0.70681 0.94627 0.49347 0.0
H239 H 0.67284 0.92965 0.467 0.0
H240 H 0.79228 0.02083 0.59428 0.0
H241 H 0.79025 -0.00288 0.55858 0.0
H242 H 0.66723 0.02472 0.55542 0.0
H243 H 0.66945 0.04877 0.59109 0.0
H244 H 0.69823 0.00058 0.52407 0.0
H245 H 0.777 0.96013 0.53121 0.0
H246 H 0.80612 0.9457 0.49578 0.0
H247 H 0.79802 0.92266 0.45992 0.0
C248 C 0.00628 0.72275 0.09194 0.0
C249 C 0.9708 0.73435 0.1011 0.0
C250 C 0.0115 0.72415 0.07036 0.0
C251 C 0.98144 0.73767 0.05727 0.0
C252 C 0.94574 0.74875 0.06642 0.0
C253 C 0.94044 0.74716 0.08808 0.0
C254 C 0.98557 0.73932 0.03409 0.0
C255 C 0.02012 0.73799 1.02388 0.0
C256 C 0.02406 0.73875 1.00068 0.0
C257 C 0.06043 0.74787 0.99179 0.0
C258 C 0.06534 0.74879 0.97009 0.0
C259 C 0.03391 0.74049 0.95678 0.0
H260 H 0.96484 0.72082 0.99325 0.0
C261 C 0.9978 0.73057 0.96566 0.0
C262 C 0.99295 0.72947 0.98727 0.0
H263 H 0.97303 0.72351 0.9559 0.0
H264 H 0.03021 0.71229 0.10145 0.0
H265 H 0.039 0.71399 0.06414 0.0
H266 H 0.92183 0.75889 0.05678 0.0
H267 H 0.91273 0.75623 0.09461 0.0
H268 H 0.95883 0.74298 1.02526 0.0
H269 H 0.04708 0.7376 0.03272 0.0
H270 H 0.08511 0.75469 1.00167 0.0
H271 H 0.09354 0.75648 0.96376 0.0
C272 C 0.24217 0.03439 0.46729 0.0
C273 C 0.25525 0.00622 0.45304 0.0
C274 C 0.24159 0.02652 0.48875 0.0
C275 C 0.25409 0.99022 0.4964 0.0
C276 C 0.26782 0.96254 0.48212 0.0
C277 C 0.26821 0.9703 0.46077 0.0
C278 C 0.25454 0.98017 0.51903 0.0
C279 C 0.23234 -0.00204 0.53355 0.0
C280 C 0.23353 0.98841 0.55623 0.0
C281 C 0.22162 0.01691 0.57049 0.0
C282 C 0.22291 0.00996 0.59191 0.0
C283 C 0.23566 0.97403 0.59972 0.0
H284 H 0.25376 0.92877 0.5535 0.0
C285 C 0.24648 0.9449 0.5855 0.0
C286 C 0.24549 0.95199 0.56396 0.0
H287 H 0.25624 0.91685 0.59101 0.0
H288 H 0.23221 0.06242 0.46186 0.0
H289 H 0.2319 0.0492 0.4992 0.0
H290 H 0.27798 0.93451 0.48748 0.0
H291 H 0.27869 0.94791 0.45031 0.0
H292 H 0.27382 0.95674 0.52374 0.0
H293 H 0.21308 0.02143 0.5289 0.0
H294 H 0.21188 0.04504 0.56507 0.0
H295 H 0.21405 0.03303 0.60237 0.0
C296 C 0.11847 0.24528 0.23574 0.0
C297 C 0.1234 0.22845 0.21595 0.0
C298 C 0.1426 0.23479 0.25236 0.0
C299 C 0.1719 0.20648 0.24973 0.0
C300 C 0.17819 0.1913 0.22961 0.0
C301 C 0.15426 0.20221 0.21287 0.0
C302 C 0.19551 0.19107 0.26751 0.0
C303 C 0.18519 0.1949 0.28777 0.0
C304 C 0.20548 0.17517 0.30545 0.0
C305 C 0.18565 0.1715 0.32454 0.0
C306 C 0.20175 0.15005 0.34094 0.0
C307 C 0.23817 0.13175 0.33863 0.0
H308 H 0.26027 0.16227 0.28968 0.0
C309 C 0.25911 0.13737 0.32004 0.0
C310 C 0.24312 0.15898 0.30369 0.0
H311 H 0.28752 0.1241 0.31786 0.0
H312 H 0.09536 0.26617 0.2385 0.0
H313 H 0.1376 0.24873 0.26722 0.0
H314 H 0.20084 0.16986 0.22697 0.0
H315 H 0.1588 0.18879 0.19779 0.0
H316 H 0.22049 0.17322 0.26345 0.0
H317 H 0.15868 0.21049 0.29171 0.0
H318 H 0.15685 0.18405 0.32653 0.0
H319 H 0.18483 0.14634 0.35504 0.0
C320 C 0.85764 0.2628 0.81548 0.0
C321 C 0.85608 0.24401 0.83489 0.0
C322 C 0.83576 0.24938 0.79857 0.0
C323 C 0.81209 0.21639 0.80058 0.0
C324 C 0.8088 0.19903 0.82032 0.0
C325 C 0.83056 0.21264 0.8373 0.0
C326 C 0.7913 0.19865 0.78249 0.0
C327 C 0.80208 0.20383 0.76241 0.0
C328 C 0.78485 0.18226 0.74447 0.0
C329 C 0.80663 0.17877 0.72598 0.0
C330 C 0.79326 0.15598 0.70941 0.0
C331 C 0.75762 0.13624 0.71091 0.0
H332 H 0.72952 0.16757 0.75897 0.0
C333 C 0.73471 0.1416 0.72888 0.0
C334 C 0.74804 0.16445 0.74543 0.0
H335 H 0.70685 0.12722 0.73045 0.0
H336 H 0.87653 0.28749 0.81317 0.0
H337 H 0.83797 0.26478 0.78397 0.0
H338 H 0.79038 0.17393 0.82246 0.0
H339 H 0.82859 0.19756 0.85204 0.0
H340 H 0.76858 0.17797 0.78611 0.0
H341 H 0.82694 0.22204 0.75894 0.0
H342 H 0.83484 0.19257 0.72463 0.0
H343 H 0.81165 0.15257 0.6958 0.0
C344 C 0.72081 0.82975 0.32282 0.0
C345 C 0.74552 0.83281 0.34027 0.0
C346 C 0.73432 0.81337 0.30419 0.0
C347 C 0.77293 0.79963 0.30256 0.0
C348 C 0.79673 0.80036 0.32039 0.0
C349 C 0.78332 0.81697 0.339 0.0
C350 C 0.78969 0.78539 0.28249 0.0
C351 C 0.77767 0.79829 0.26368 0.0
C352 C 0.7978 0.78851 0.24373 0.0
C353 C 0.79565 0.81488 0.22712 0.0
C354 C 0.81647 0.80831 0.20868 0.0
C355 C 0.83958 0.77487 0.2063 0.0
H356 H 0.82082 0.73248 0.25314 0.0
C357 C 0.84006 0.74741 0.22249 0.0
C358 C 0.81945 0.75414 0.241 0.0
H359 H 0.85735 0.72119 0.22117 0.0
H360 H 0.69139 0.8413 0.32327 0.0
H361 H 0.71458 0.81203 0.29104 0.0
H362 H 0.82641 0.7895 0.3197 0.0
H363 H 0.80309 0.81861 0.35214 0.0
H364 H 0.81522 0.76674 0.28344 0.0
H365 H 0.75453 0.81982 0.26292 0.0
H366 H 0.77884 0.84138 0.22866 0.0
H367 H 0.81527 0.82999 0.19652 0.0
C368 C 0.22571 0.84327 0.72023 0.0
C369 C 0.26341 0.85774 0.71666 0.0
C370 C 0.21578 0.82761 0.73967 0.0
C371 C 0.24347 0.82601 0.7559 0.0
C372 C 0.28162 0.83847 0.75187 0.0
C373 C 0.29155 0.85391 0.73249 0.0
C374 C 0.23281 0.81604 0.77775 0.0
C375 C 0.20175 0.79444 0.78309 0.0
C376 C 0.18879 0.78952 0.8051 0.0
C377 C 0.16766 0.75639 0.81067 0.0
C378 C 0.15137 0.75297 0.8306 0.0
C379 C 0.15517 0.78307 0.84526 0.0
H380 H 0.20933 0.84528 0.81628 0.0
C381 C 0.17737 0.81568 0.83991 0.0
C382 C 0.19405 0.81887 0.82009 0.0
H383 H 0.18069 0.83947 0.85078 0.0
H384 H 0.20324 0.84603 0.70844 0.0
H385 H 0.18586 0.81897 0.74222 0.0
H386 H 0.30356 0.83762 0.76403 0.0
H387 H 0.32093 0.86459 0.7303 0.0
H388 H 0.25142 0.82746 0.79001 0.0
H389 H 0.18508 0.77985 0.77104 0.0
H390 H 0.16293 0.73346 0.79942 0.0
H391 H 0.1342 0.72756 0.83412 0.0
C392 C 0.04438 0.08215 0.15953 0.0
C393 C 0.02448 0.11363 0.16855 0.0
C394 C 0.03562 0.04425 0.16524 0.0
C395 C 0.00694 0.03677 0.18036 0.0
C396 C 0.98622 0.06819 0.18898 0.0
C397 C 0.99497 0.10631 0.1832 0.0
C398 C 0.99683 -0.00343 0.18665 0.0
C399 C 0.02182 0.96643 0.18477 0.0
C400 C 0.0105 0.92553 0.18836 0.0
C401 C 0.02932 0.89641 0.17678 0.0
C402 C 0.01728 0.85792 0.17819 0.0
C403 C 0.9866 0.84762 0.19155 0.0
H404 H 0.96685 0.93648 0.21221 0.0
C405 C 0.9694 0.87636 0.20415 0.0
C406 C 0.98111 0.915 0.20252 0.0
H407 H 0.94578 0.86933 0.21467 0.0
H408 H 0.06691 0.08668 0.14797 0.0
H409 H 0.05109 0.02103 0.15745 0.0
H410 H 0.96353 0.06326 0.20041 0.0
H411 H 0.97904 0.12996 0.19039 0.0
H412 H 0.96756 0.99176 0.19255 0.0
H413 H 0.05116 0.97126 0.17904 0.0
H414 H 0.05238 0.90368 0.16595 0.0
H415 H 0.0313 0.83642 0.16839 0.0
C416 C 0.12489 -0.00162 0.68036 0.0
C417 C 0.14758 0.98321 0.6967 0.0
C418 C 0.08493 0.00485 0.68302 0.0
C419 C 0.06679 -0.00361 0.70213 0.0
C420 C 0.08987 0.98366 0.71886 0.0
C421 C 0.12982 0.9768 0.71614 0.0
C422 C 0.02392 0.00045 0.70492 0.0
C423 C 0.99856 0.99322 0.68933 0.0
C424 C 0.95542 -0.00253 0.69102 0.0
C425 C 0.93199 0.98061 0.67552 0.0
C426 C 0.89171 0.98709 0.67512 0.0
C427 C 0.8739 0.01086 0.69018 0.0
H428 H 0.9542 0.03409 0.71865 0.0
C429 C 0.89703 0.02642 0.70623 0.0
C430 C 0.93735 0.01995 0.70662 0.0
H431 H 0.88429 0.04501 0.71804 0.0
H432 H 0.13764 0.00395 0.66522 0.0
H433 H 0.06825 0.01611 0.67002 0.0
H434 H 0.0767 0.97756 0.73383 0.0
H435 H 0.14651 0.96535 0.7291 0.0
H436 H 0.01329 0.00722 0.72043 0.0
H437 H 0.00988 0.98291 0.67449 0.0
H438 H 0.94502 0.96314 0.6633 0.0
H439 H 0.87481 0.97464 0.66253 0.0
C440 C 0.99877 0.12479 0.87472 0.0
C441 C 0.01469 0.15001 0.88969 0.0
C442 C 0.00894 0.08556 0.87452 0.0
C443 C 0.03521 0.07067 0.88936 0.0
C444 C 0.05298 0.09635 0.90342 0.0
C445 C 0.04273 0.13558 0.90367 0.0
C446 C 0.0441 0.02862 0.89112 0.0
C447 C 0.01952 0.00048 0.88482 0.0
C448 C 0.02693 0.95867 0.88873 0.0
C449 C 0.01037 0.93088 0.87541 0.0
C450 C 0.01686 0.8913 0.87876 0.0
C451 C 0.03971 0.8788 0.89567 0.0
H452 H 0.06067 0.96632 0.91715 0.0
C453 C 0.05518 0.9066 0.90936 0.0
C454 C 0.04881 0.94601 0.90599 0.0
H455 H 0.07255 0.898 0.92269 0.0
H456 H 0.97746 0.13506 0.86352 0.0
H457 H 0.99579 0.06711 0.86286 0.0
H458 H 0.07374 0.08577 0.91483 0.0
H459 H 0.05573 0.15423 0.91532 0.0
H460 H 0.07104 0.02079 0.89899 0.0
H461 H 0.9927 0.00793 0.87676 0.0
H462 H 0.99286 0.93984 0.8622 0.0
H463 H 0.00443 0.8706 0.86796 0.0
C464 C 0.8908 0.98795 0.40145 0.0
C465 C 0.86111 0.97972 0.38702 0.0
C466 C 0.92887 0.99462 0.39471 0.0
C467 C 0.9381 0.9932 0.37337 0.0
C468 C 0.90801 0.98762 0.35886 0.0
C469 C 0.86987 0.98067 0.36561 0.0
C470 C 0.9789 -0.00264 0.36599 0.0
C471 C 0.00937 0.98358 0.37707 0.0
C472 C 0.05117 0.98867 0.37146 0.0
C473 C 0.07943 0.96934 0.3835 0.0
C474 C 0.11909 0.97693 0.38083 0.0
C475 C 0.13146 0.00411 0.36602 0.0
H476 H 0.04326 0.03007 0.3462 0.0
C477 C 0.10345 0.02169 0.35306 0.0
C478 C 0.06372 0.01426 0.35579 0.0
H479 H 0.11198 0.04282 0.34149 0.0
H480 H 0.88499 0.98795 0.41803 0.0
H481 H 0.9511 0.00047 0.40627 0.0
H482 H 0.91428 0.98714 0.34231 0.0
H483 H 0.84759 0.97472 0.35407 0.0
H484 H 0.9833 0.01039 0.35082 0.0
H485 H 0.00345 0.96772 0.39133 0.0
H486 H 0.07074 0.94934 0.39561 0.0
H487 H 0.13989 0.96275 0.39103 0.0
loop_
_geom_bond_atom_site_label_1
_geom_bond_atom_site_label_2
_geom_bond_distance
_geom_bond_site_symmetry_2
_ccdc_geom_bond_type
Mg0 O7 2.141 . S
Mg0 O8 2.048 . S
Mg0 O9 2.048 . S
Mg0 O12 2.141 . S
C1 O2 1.313 . S
C1 O8 1.195 . S
O2 C1 1.313 . S
C3 O4 1.245 . S
C3 O12 1.289 . S
O4 C3 1.245 . S
C5 O6 1.245 . S
C5 O7 1.289 . S
O6 C5 1.245 . S
O7 Mg0 2.141 . S
O7 C5 1.289 . S
O8 Mg0 2.048 . S
O8 C1 1.195 . S
O9 Mg0 2.048 . S
O9 C10 1.195 . S
C10 O9 1.195 . S
C10 O11 1.313 . S
O11 C10 1.313 . S
O12 Mg0 2.141 . S
O12 C3 1.289 . S
Mg13 O20 2.141 . S
Mg13 O21 2.048 . S
Mg13 O22 2.048 . S
Mg13 O25 2.141 . S
C14 O15 1.313 . S
C14 O21 1.195 . S
O15 C14 1.313 . S
C16 O17 1.245 . S
C16 O25 1.289 . S
O17 C16 1.245 . S
C18 O19 1.245 . S
C18 O20 1.289 . S
O19 C18 1.245 . S
O20 Mg13 2.141 . S
O20 C18 1.289 . S
O21 Mg13 2.048 . S
O21 C14 1.195 . S
O22 Mg13 2.048 . S
O22 C23 1.195 . S
C23 O22 1.195 . S
C23 O24 1.313 . S
O24 C23 1.313 . S
O25 Mg13 2.141 . S
O25 C16 1.289 . S
Mg26 O33 2.141 . S
Mg26 O34 2.048 . S
Mg26 O35 2.048 . S
Mg26 O38 2.141 . S
C27 O28 1.313 . S
C27 O34 1.195 . S
O28 C27 1.313 . S
C29 O30 1.245 . S
C29 O38 1.289 . S
O30 C29 1.245 . S
C31 O32 1.245 . S
C31 O33 1.289 . S
O32 C31 1.245 . S
O33 Mg26 2.141 . S
O33 C31 1.289 . S
O34 Mg26 2.048 . S
O34 C27 1.195 . S
O35 Mg26 2.048 . S
O35 C36 1.195 . S
C36 O35 1.195 . S
C36 O37 1.313 . S
O37 C36 1.313 . S
O38 Mg26 2.141 . S
O38 C29 1.289 . S
Mg39 O46 2.141 . S
Mg39 O47 2.048 . S
Mg39 O48 2.048 . S
Mg39 O51 2.141 . S
C40 O41 1.313 . S
C40 O47 1.195 . S
O41 C40 1.313 . S
C42 O43 1.245 . S
C42 O51 1.289 . S
O43 C42 1.245 . S
C44 O45 1.245 . S
C44 O46 1.289 . S
O45 C44 1.245 . S
O46 Mg39 2.141 . S
O46 C44 1.289 . S
O47 Mg39 2.048 . S
O47 C40 1.195 . S
O48 Mg39 2.048 . S
O48 C49 1.195 . S
C49 O48 1.195 . S
C49 O50 1.313 . S
O50 C49 1.313 . S
O51 Mg39 2.141 . S
O51 C42 1.289 . S
Mg52 O59 2.141 . S
Mg52 O60 2.048 . S
Mg52 O61 2.048 . S
Mg52 O64 2.141 . S
C53 O54 1.313 . S
C53 O60 1.195 . S
O54 C53 1.313 . S
C55 O56 1.245 . S
C55 O64 1.289 . S
O56 C55 1.245 . S
C57 O58 1.245 . S
C57 O59 1.289 . S
O58 C57 1.245 . S
O59 Mg52 2.141 . S
O59 C57 1.289 . S
O60 Mg52 2.048 . S
O60 C53 1.195 . S
O61 Mg52 2.048 . S
O61 C62 1.195 . S
C62 O61 1.195 . S
C62 O63 1.313 . S
O63 C62 1.313 . S
O64 Mg52 2.141 . S
O64 C55 1.289 . S
Mg65 O72 2.141 . S
Mg65 O73 2.048 . S
Mg65 O74 2.048 . S
Mg65 O77 2.141 . S
C66 O67 1.313 . S
C66 O73 1.195 . S
O67 C66 1.313 . S
C68 O69 1.245 . S
C68 O77 1.289 . S
O69 C68 1.245 . S
C70 O71 1.245 . S
C70 O72 1.289 . S
O71 C70 1.245 . S
O72 Mg65 2.141 . S
O72 C70 1.289 . S
O73 Mg65 2.048 . S
O73 C66 1.195 . S
O74 Mg65 2.048 . S
O74 C75 1.195 . S
C75 O74 1.195 . S
C75 O76 1.313 . S
O76 C75 1.313 . S
O77 Mg65 2.141 . S
O77 C68 1.289 . S
Mg78 O85 2.141 . S
Mg78 O86 2.048 . S
Mg78 O87 2.048 . S
Mg78 O90 2.141 . S
C79 O80 1.313 . S
C79 O86 1.195 . S
O80 C79 1.313 . S
C81 O82 1.245 . S
C81 O90 1.289 . S
O82 C81 1.245 . S
C83 O84 1.245 . S
C83 O85 1.289 . S
O84 C83 1.245 . S
O85 Mg78 2.141 . S
O85 C83 1.289 . S
O86 Mg78 2.048 . S
O86 C79 1.195 . S
O87 Mg78 2.048 . S
O87 C88 1.195 . S
C88 O87 1.195 . S
C88 O89 1.313 . S
O89 C88 1.313 . S
O90 Mg78 2.141 . S
O90 C81 1.289 . S
Mg91 O98 2.141 . S
Mg91 O99 2.048 . S
Mg91 O100 2.048 . S
Mg91 O103 2.141 . S
C92 O93 1.313 . S
C92 O99 1.195 . S
O93 C92 1.313 . S
C94 O95 1.245 . S
C94 O103 1.289 . S
O95 C94 1.245 . S
C96 O97 1.245 . S
C96 O98 1.289 . S
O97 C96 1.245 . S
O98 Mg91 2.141 . S
O98 C96 1.289 . S
O99 Mg91 2.048 . S
O99 C92 1.195 . S
O100 Mg91 2.048 . S
O100 C101 1.195 . S
C101 O100 1.195 . S
C101 O102 1.313 . S
O102 C101 1.313 . S
O103 Mg91 2.141 . S
O103 C94 1.289 . S
C104 C105 1.386 . S
C104 C106 1.383 . S
C104 H120 0.951 . S
C105 C104 1.386 . S
C105 C109 1.383 . S
C106 C104 1.383 . S
C106 C107 1.402 . S
C106 H121 0.951 . S
C107 C106 1.402 . S
C107 C108 1.375 . S
C107 C110 1.481 . S
C108 C107 1.375 . S
C108 C109 1.367 . S
C108 H122 0.951 . S
C109 C105 1.383 . S
C109 C108 1.367 . S
C109 H123 0.950 . S
C110 C107 1.481 . S
C110 C111 1.297 . S
C110 H124 0.950 1_455 S
C111 C110 1.297 . S
C111 C112 1.479 1_455 S
C111 H125 0.950 . S
C112 C111 1.479 1_655 S
C112 C113 1.375 . S
C112 C118 1.404 . S
C113 C112 1.375 . S
C113 C114 1.369 . S
C113 H126 0.950 . S
C114 C113 1.369 . S
C114 C115 1.392 . S
C114 H127 0.951 . S
C115 C114 1.392 . S
C115 C117 1.384 . S
H116 C118 0.949 . S
C117 C115 1.384 . S
C117 C118 1.385 . S
C117 H119 0.950 . S
C118 C112 1.404 . S
C118 H116 0.949 . S
C118 C117 1.385 . S
H119 C117 0.950 . S
H120 C104 0.951 . S
H121 C106 0.951 . S
H122 C108 0.951 . S
H123 C109 0.950 . S
H124 C110 0.950 1_655 S
H125 C111 0.950 . S
H126 C113 0.950 . S
H127 C114 0.951 . S
C128 C129 1.386 . S
C128 C130 1.383 . S
C128 H144 0.951 . S
C129 C128 1.386 . S
C129 C133 1.383 . S
C130 C128 1.383 . S
C130 C131 1.402 . S
C130 H145 0.951 . S
C131 C130 1.402 . S
C131 C132 1.375 . S
C131 C134 1.481 . S
C132 C131 1.375 . S
C132 C133 1.367 . S
C132 H146 0.951 . S
C133 C129 1.383 . S
C133 C132 1.367 . S
C133 H147 0.950 . S
C134 C131 1.481 . S
C134 C135 1.297 . S
C134 H148 0.950 . S
C135 C134 1.297 . S
C135 C136 1.479 1_565 S
C135 H149 0.950 . S
C136 C135 1.479 1_545 S
C136 C137 1.375 . S
C136 C142 1.404 . S
C137 C136 1.375 . S
C137 C138 1.369 . S
C137 H150 0.950 . S
C138 C137 1.369 . S
C138 C139 1.392 . S
C138 H151 0.951 . S
C139 C138 1.392 . S
C139 C141 1.384 . S
H140 C142 0.949 . S
C141 C139 1.384 . S
C141 C142 1.385 . S
C141 H143 0.950 . S
C142 C136 1.404 . S
C142 H140 0.949 . S
C142 C141 1.385 . S
H143 C141 0.950 . S
H144 C128 0.951 . S
H145 C130 0.951 . S
H146 C132 0.951 . S
H147 C133 0.950 . S
H148 C134 0.950 . S
H149 C135 0.950 . S
H150 C137 0.950 . S
H151 C138 0.951 . S
C152 C153 1.386 . S
C152 C154 1.383 . S
C152 H168 0.951 . S
C153 C152 1.386 . S
C153 C157 1.383 . S
C154 C152 1.383 . S
C154 C155 1.402 . S
C154 H169 0.951 . S
C155 C154 1.402 . S
C155 C156 1.375 . S
C155 C158 1.481 . S
C156 C155 1.375 . S
C156 C157 1.367 . S
C156 H170 0.951 . S
C157 C153 1.383 . S
C157 C156 1.367 . S
C157 H171 0.950 . S
C158 C155 1.481 . S
C158 C159 1.297 1_655 S
C158 H172 0.950 . S
C159 C158 1.297 1_455 S
C159 C160 1.479 . S
C159 H173 0.950 . S
C160 C159 1.479 . S
C160 C161 1.375 . S
C160 C166 1.404 . S
C161 C160 1.375 . S
C161 C162 1.369 . S
C161 H174 0.950 . S
C162 C161 1.369 . S
C162 C163 1.392 . S
C162 H175 0.951 . S
C163 C162 1.392 . S
C163 C165 1.384 . S
H164 C166 0.949 . S
C165 C163 1.384 . S
C165 C166 1.385 . S
C165 H167 0.950 . S
C166 C160 1.404 . S
C166 H164 0.949 . S
C166 C165 1.385 . S
H167 C165 0.950 . S
H168 C152 0.951 . S
H169 C154 0.951 . S
H170 C156 0.951 . S
H171 C157 0.950 . S
H172 C158 0.950 . S
H173 C159 0.950 . S
H174 C161 0.950 . S
H175 C162 0.951 . S
C176 C177 1.386 . S
C176 C178 1.383 . S
C176 H192 0.951 . S
C177 C176 1.386 . S
C177 C181 1.383 . S
C178 C176 1.383 . S
C178 C179 1.402 . S
C178 H193 0.951 1_545 S
C179 C178 1.402 . S
C179 C180 1.375 . S
C179 C182 1.481 . S
C180 C179 1.375 . S
C180 C181 1.367 . S
C180 H194 0.951 . S
C181 C177 1.383 . S
C181 C180 1.367 . S
C181 H195 0.950 . S
C182 C179 1.481 . S
C182 C183 1.297 1_545 S
C182 H196 0.950 . S
C183 C182 1.297 1_565 S
C183 C184 1.479 . S
C183 H197 0.950 . S
C184 C183 1.479 . S
C184 C185 1.375 . S
C184 C190 1.404 . S
C185 C184 1.375 . S
C185 C186 1.369 . S
C185 H198 0.950 . S
C186 C185 1.369 . S
C186 C187 1.392 . S
C186 H199 0.951 . S
C187 C186 1.392 . S
C187 C189 1.384 . S
H188 C190 0.949 . S
C189 C187 1.384 . S
C189 C190 1.385 . S
C189 H191 0.950 . S
C190 C184 1.404 . S
C190 H188 0.949 . S
C190 C189 1.385 . S
H191 C189 0.950 . S
H192 C176 0.951 . S
H193 C178 0.951 1_565 S
H194 C180 0.951 . S
H195 C181 0.950 . S
H196 C182 0.950 . S
H197 C183 0.950 . S
H198 C185 0.950 . S
H199 C186 0.951 . S
C200 C201 1.386 . S
C200 C202 1.383 . S
C200 H216 0.951 . S
C201 C200 1.386 . S
C201 C205 1.383 . S
C202 C200 1.383 . S
C202 C203 1.402 . S
C202 H217 0.951 . S
C203 C202 1.402 . S
C203 C204 1.375 . S
C203 C206 1.481 . S
C204 C203 1.375 . S
C204 C205 1.367 . S
C204 H218 0.951 . S
C205 C201 1.383 . S
C205 C204 1.367 . S
C205 H219 0.950 . S
C206 C203 1.481 . S
C206 C207 1.297 1_556 S
C206 H220 0.950 . S
C207 C206 1.297 1_554 S
C207 C208 1.479 1_655 S
C207 H221 0.950 . S
C208 C207 1.479 1_455 S
C208 C209 1.375 . S
C208 C214 1.404 . S
C209 C208 1.375 . S
C209 C210 1.369 . S
C209 H222 0.950 1_455 S
C210 C209 1.369 . S
C210 C211 1.392 . S
C210 H223 0.951 . S
C211 C210 1.392 . S
C211 C213 1.384 . S
H212 C214 0.949 . S
C213 C211 1.384 . S
C213 C214 1.385 . S
C213 H215 0.950 . S
C214 C208 1.404 . S
C214 H212 0.949 . S
C214 C213 1.385 . S
H215 C213 0.950 . S
H216 C200 0.951 . S
H217 C202 0.951 . S
H218 C204 0.951 . S
H219 C205 0.950 . S
H220 C206 0.950 . S
H221 C207 0.950 . S
H222 C209 0.950 1_655 S
H223 C210 0.951 . S
C224 C225 1.386 . S
C224 C226 1.383 . S
C224 H240 0.951 . S
C225 C224 1.386 . S
C225 C229 1.383 . S
C226 C224 1.383 . S
C226 C227 1.402 . S
C226 H241 0.951 . S
C227 C226 1.402 . S
C227 C228 1.375 . S
C227 C230 1.481 1_545 S
C228 C227 1.375 . S
C228 C229 1.368 . S
C228 H242 0.950 1_545 S
C229 C225 1.383 . S
C229 C228 1.368 . S
C229 H243 0.950 . S
C230 C227 1.481 1_565 S
C230 C231 1.297 . S
C230 H244 0.950 . S
C231 C230 1.297 . S
C231 C232 1.479 . S
C231 H245 0.950 . S
C232 C231 1.479 . S
C232 C233 1.375 . S
C232 C238 1.404 . S
C233 C232 1.375 . S
C233 C234 1.369 . S
C233 H246 0.950 . S
C234 C233 1.369 . S
C234 C235 1.392 . S
C234 H247 0.951 . S
C235 C234 1.392 . S
C235 C237 1.384 . S
H236 C238 0.949 . S
C237 C235 1.384 . S
C237 C238 1.385 . S
C237 H239 0.950 . S
C238 C232 1.404 . S
C238 H236 0.949 . S
C238 C237 1.385 . S
H239 C237 0.950 . S
H240 C224 0.951 . S
H241 C226 0.951 . S
H242 C228 0.950 1_565 S
H243 C229 0.950 . S
H244 C230 0.950 . S
H245 C231 0.950 . S
H246 C233 0.950 . S
H247 C234 0.951 . S
C248 C249 1.386 . S
C248 C250 1.383 1_655 S
C248 H264 0.951 1_655 S
C249 C248 1.386 . S
C249 C253 1.383 . S
C250 C248 1.383 1_455 S
C250 C251 1.402 1_455 S
C250 H265 0.951 . S
C251 C250 1.402 1_655 S
C251 C252 1.375 . S
C251 C254 1.481 . S
C252 C251 1.375 . S
C252 C253 1.367 . S
C252 H266 0.951 . S
C253 C249 1.383 . S
C253 C252 1.367 . S
C253 H267 0.950 . S
C254 C251 1.481 . S
C254 C255 1.297 1_654 S
C254 H268 0.950 1_554 S
C255 C254 1.297 1_456 S
C255 C256 1.479 . S
C255 H269 0.950 1_556 S
C256 C255 1.479 . S
C256 C257 1.375 . S
C256 C262 1.404 . S
C257 C256 1.375 . S
C257 C258 1.369 . S
C257 H270 0.950 . S
C258 C257 1.369 . S
C258 C259 1.392 . S
C258 H271 0.951 . S
C259 C258 1.392 . S
C259 C261 1.384 . S
H260 C262 0.949 1_655 S
C261 C259 1.384 . S
C261 C262 1.385 . S
C261 H263 0.939 1_455 S
C262 C256 1.404 . S
C262 H260 0.949 1_455 S
C262 C261 1.385 . S
H263 C261 0.939 1_655 S
H264 C248 0.951 1_455 S
H265 C250 0.951 . S
H266 C252 0.951 . S
H267 C253 0.950 . S
H268 C254 0.950 1_556 S
H269 C255 0.950 1_554 S
H270 C257 0.950 . S
H271 C258 0.951 . S
C272 C273 1.386 . S
C272 C274 1.383 . S
C272 H288 0.951 . S
C273 C272 1.386 . S
C273 C277 1.383 . S
C274 C272 1.383 . S
C274 C275 1.402 . S
C274 H289 0.951 . S
C275 C274 1.402 . S
C275 C276 1.375 1_545 S
C275 C278 1.481 1_545 S
C276 C275 1.375 1_565 S
C276 C277 1.367 1_565 S
C276 H290 0.951 . S
C277 C273 1.383 . S
C277 C276 1.367 1_545 S
C277 H291 0.950 1_545 S
C278 C275 1.481 1_565 S
C278 C279 1.297 . S
C278 H292 0.950 . S
C279 C278 1.297 . S
C279 C280 1.479 . S
C279 H293 0.950 1_565 S
C280 C279 1.479 . S
C280 C281 1.375 . S
C280 C286 1.404 . S
C281 C280 1.375 . S
C281 C282 1.369 . S
C281 H294 0.950 1_565 S
C282 C281 1.369 . S
C282 C283 1.392 . S
C282 H295 0.951 1_565 S
C283 C282 1.392 . S
C283 C285 1.384 . S
H284 C286 0.949 . S
C285 C283 1.384 . S
C285 C286 1.385 . S
C285 H287 0.950 . S
C286 C280 1.404 . S
C286 H284 0.949 . S
C286 C285 1.385 . S
H287 C285 0.950 . S
H288 C272 0.951 . S
H289 C274 0.951 . S
H290 C276 0.951 . S
H291 C277 0.950 1_565 S
H292 C278 0.950 . S
H293 C279 0.950 1_545 S
H294 C281 0.950 1_545 S
H295 C282 0.951 1_545 S
C296 C297 1.386 . S
C296 C298 1.383 . S
C296 H312 0.951 . S
C297 C296 1.386 . S
C297 C301 1.383 . S
C298 C296 1.383 . S
C298 C299 1.402 . S
C298 H313 0.951 . S
C299 C298 1.402 . S
C299 C300 1.375 . S
C299 C302 1.481 . S
C300 C299 1.375 . S
C300 C301 1.367 . S
C300 H314 0.951 . S
C301 C297 1.383 . S
C301 C300 1.367 . S
C301 H315 0.950 . S
C302 C299 1.481 . S
C302 C303 1.297 . S
C302 H316 0.950 . S
C303 C302 1.297 . S
C303 C304 1.479 . S
C303 H317 0.950 . S
C304 C303 1.479 . S
C304 C305 1.375 . S
C304 C310 1.404 . S
C305 C304 1.375 . S
C305 C306 1.369 . S
C305 H318 0.950 . S
C306 C305 1.369 . S
C306 C307 1.392 . S
C306 H319 0.951 . S
C307 C306 1.392 . S
C307 C309 1.384 . S
H308 C310 0.949 . S
C309 C307 1.384 . S
C309 C310 1.385 . S
C309 H311 0.950 . S
C310 C304 1.404 . S
C310 H308 0.949 . S
C310 C309 1.385 . S
H311 C309 0.950 . S
H312 C296 0.951 . S
H313 C298 0.951 . S
H314 C300 0.951 . S
H315 C301 0.950 . S
H316 C302 0.950 . S
H317 C303 0.950 . S
H318 C305 0.950 . S
H319 C306 0.951 . S
C320 C321 1.386 . S
C320 C322 1.383 . S
C320 H336 0.951 . S
C321 C320 1.386 . S
C321 C325 1.383 . S
C322 C320 1.383 . S
C322 C323 1.402 . S
C322 H337 0.951 . S
C323 C322 1.402 . S
C323 C324 1.375 . S
C323 C326 1.481 . S
C324 C323 1.375 . S
C324 C325 1.367 . S
C324 H338 0.951 . S
C325 C321 1.383 . S
C325 C324 1.367 . S
C325 H339 0.950 . S
C326 C323 1.481 . S
C326 C327 1.297 . S
C326 H340 0.950 . S
C327 C326 1.297 . S
C327 C328 1.479 . S
C327 H341 0.950 . S
C328 C327 1.479 . S
C328 C329 1.375 . S
C328 C334 1.404 . S
C329 C328 1.375 . S
C329 C330 1.369 . S
C329 H342 0.950 . S
C330 C329 1.369 . S
C330 C331 1.392 . S
C330 H343 0.951 . S
C331 C330 1.392 . S
C331 C333 1.384 . S
H332 C334 0.949 . S
C333 C331 1.384 . S
C333 C334 1.385 . S
C333 H335 0.950 . S
C334 C328 1.404 . S
C334 H332 0.949 . S
C334 C333 1.385 . S
H335 C333 0.950 . S
H336 C320 0.951 . S
H337 C322 0.951 . S
H338 C324 0.951 . S
H339 C325 0.950 . S
H340 C326 0.950 . S
H341 C327 0.950 . S
H342 C329 0.950 . S
H343 C330 0.951 . S
C344 C345 1.386 . S
C344 C346 1.383 . S
C344 H360 0.951 . S
C345 C344 1.386 . S
C345 C349 1.383 . S
C346 C344 1.383 . S
C346 C347 1.402 . S
C346 H361 0.951 . S
C347 C346 1.402 . S
C347 C348 1.375 . S
C347 C350 1.481 . S
C348 C347 1.375 . S
C348 C349 1.367 . S
C348 H362 0.951 . S
C349 C345 1.383 . S
C349 C348 1.367 . S
C349 H363 0.950 . S
C350 C347 1.481 . S
C350 C351 1.297 . S
C350 H364 0.950 . S
C351 C350 1.297 . S
C351 C352 1.479 . S
C351 H365 0.950 . S
C352 C351 1.479 . S
C352 C353 1.375 . S
C352 C358 1.404 . S
C353 C352 1.375 . S
C353 C354 1.369 . S
C353 H366 0.950 . S
C354 C353 1.369 . S
C354 C355 1.392 . S
C354 H367 0.951 . S
C355 C354 1.392 . S
C355 C357 1.384 . S
H356 C358 0.949 . S
C357 C355 1.384 . S
C357 C358 1.385 . S
C357 H359 0.950 . S
C358 C352 1.404 . S
C358 H356 0.949 . S
C358 C357 1.385 . S
H359 C357 0.950 . S
H360 C344 0.951 . S
H361 C346 0.951 . S
H362 C348 0.951 . S
H363 C349 0.950 . S
H364 C350 0.950 . S
H365 C351 0.950 . S
H366 C353 0.950 . S
H367 C354 0.951 . S
C368 C369 1.386 . S
C368 C370 1.383 . S
C368 H384 0.951 . S
C369 C368 1.386 . S
C369 C373 1.383 . S
C370 C368 1.383 . S
C370 C371 1.402 . S
C370 H385 0.951 . S
C371 C370 1.402 . S
C371 C372 1.375 . S
C371 C374 1.481 . S
C372 C371 1.375 . S
C372 C373 1.367 . S
C372 H386 0.951 . S
C373 C369 1.383 . S
C373 C372 1.367 . S
C373 H387 0.950 . S
C374 C371 1.481 . S
C374 C375 1.297 . S
C374 H388 0.950 . S
C375 C374 1.297 . S
C375 C376 1.479 . S
C375 H389 0.950 . S
C376 C375 1.479 . S
C376 C377 1.375 . S
C376 C382 1.404 . S
C377 C376 1.375 . S
C377 C378 1.369 . S
C377 H390 0.950 . S
C378 C377 1.369 . S
C378 C379 1.392 . S
C378 H391 0.951 . S
C379 C378 1.392 . S
C379 C381 1.384 . S
H380 C382 0.949 . S
C381 C379 1.384 . S
C381 C382 1.385 . S
C381 H383 0.950 . S
C382 C376 1.404 . S
C382 H380 0.949 . S
C382 C381 1.385 . S
H383 C381 0.950 . S
H384 C368 0.951 . S
H385 C370 0.951 . S
H386 C372 0.951 . S
H387 C373 0.950 . S
H388 C374 0.950 . S
H389 C375 0.950 . S
H390 C377 0.950 . S
H391 C378 0.951 . S
C392 C393 1.386 . S
C392 C394 1.383 . S
C392 H408 0.951 . S
C393 C392 1.386 . S
C393 C397 1.383 . S
C394 C392 1.383 . S
C394 C395 1.402 . S
C394 H409 0.951 1_455 S
C395 C394 1.402 . S
C395 C396 1.375 . S
C395 C398 1.481 . S
C396 C395 1.375 . S
C396 C397 1.367 . S
C396 H410 0.951 . S
C397 C393 1.383 . S
C397 C396 1.367 . S
C397 H411 0.950 . S
C398 C395 1.481 . S
C398 C399 1.297 1_445 S
C398 H412 0.950 1_545 S
C399 C398 1.297 1_665 S
C399 C400 1.479 . S
C399 H413 0.950 1_565 S
C400 C399 1.479 . S
C400 C401 1.375 . S
C400 C406 1.404 . S
C401 C400 1.375 . S
C401 C402 1.369 . S
C401 H414 0.950 . S
C402 C401 1.369 . S
C402 C403 1.392 . S
C402 H415 0.951 . S
C403 C402 1.392 . S
C403 C405 1.384 . S
H404 C406 0.949 1_455 S
C405 C403 1.384 . S
C405 C406 1.385 . S
C405 H407 0.950 . S
C406 C400 1.404 . S
C406 H404 0.949 1_655 S
C406 C405 1.385 . S
H407 C405 0.950 . S
H408 C392 0.951 . S
H409 C394 0.951 1_655 S
H410 C396 0.951 . S
H411 C397 0.950 . S
H412 C398 0.950 1_565 S
H413 C399 0.950 1_545 S
H414 C401 0.950 . S
H415 C402 0.951 . S
C416 C417 1.386 . S
C416 C418 1.383 . S
C416 H432 0.951 . S
C417 C416 1.386 . S
C417 C421 1.383 . S
C418 C416 1.383 . S
C418 C419 1.402 . S
C418 H433 0.951 . S
C419 C418 1.402 . S
C419 C420 1.375 . S
C419 C422 1.481 . S
C420 C419 1.375 . S
C420 C421 1.367 . S
C420 H434 0.951 . S
C421 C417 1.383 . S
C421 C420 1.367 . S
C421 H435 0.950 . S
C422 C419 1.481 . S
C422 C423 1.297 1_455 S
C422 H436 0.950 1_565 S
C423 C422 1.297 1_655 S
C423 C424 1.479 1_565 S
C423 H437 0.950 . S
C424 C423 1.479 1_545 S
C424 C425 1.375 . S
C424 C430 1.404 . S
C425 C424 1.375 . S
C425 C426 1.369 . S
C425 H438 0.950 1_545 S
C426 C425 1.369 . S
C426 C427 1.392 . S
C426 H439 0.951 . S
C427 C426 1.392 . S
C427 C429 1.384 . S
H428 C430 0.949 . S
C429 C427 1.384 . S
C429 C430 1.385 . S
C429 H431 0.950 . S
C430 C424 1.404 . S
C430 H428 0.949 . S
C430 C429 1.385 . S
H431 C429 0.950 . S
H432 C416 0.951 . S
H433 C418 0.951 . S
H434 C420 0.951 . S
H435 C421 0.950 . S
H436 C422 0.950 1_545 S
H437 C423 0.950 . S
H438 C425 0.950 1_565 S
H439 C426 0.951 . S
C440 C441 1.386 . S
C440 C442 1.383 . S
C440 H456 0.951 . S
C441 C440 1.386 . S
C441 C445 1.383 . S
C442 C440 1.383 . S
C442 C443 1.402 . S
C442 H457 0.951 . S
C443 C442 1.402 . S
C443 C444 1.375 . S
C443 C446 1.481 1_655 S
C444 C443 1.375 . S
C444 C445 1.367 . S
C444 H458 0.951 1_655 S
C445 C441 1.383 . S
C445 C444 1.367 . S
C445 H459 0.950 . S
C446 C443 1.481 1_455 S
C446 C447 1.297 1_545 S
C446 H460 0.950 . S
C447 C446 1.297 1_565 S
C447 C448 1.479 . S
C447 H461 0.950 1_455 S
C448 C447 1.479 . S
C448 C449 1.375 . S
C448 C454 1.404 . S
C449 C448 1.375 . S
C449 C450 1.369 . S
C449 H462 0.950 1_455 S
C450 C449 1.369 . S
C450 C451 1.392 . S
C450 H463 0.951 . S
C451 C450 1.392 . S
C451 C453 1.384 . S
H452 C454 0.949 . S
C453 C451 1.384 . S
C453 C454 1.385 . S
C453 H455 0.950 . S
C454 C448 1.404 . S
C454 H452 0.949 . S
C454 C453 1.385 . S
H455 C453 0.950 . S
H456 C440 0.951 . S
H457 C442 0.951 . S
H458 C444 0.951 1_455 S
H459 C445 0.950 . S
H460 C446 0.950 . S
H461 C447 0.950 1_655 S
H462 C449 0.950 1_655 S
H463 C450 0.951 . S
C464 C465 1.386 . S
C464 C466 1.383 . S
C464 H480 0.951 . S
C465 C464 1.386 . S
C465 C469 1.383 . S
C466 C464 1.383 . S
C466 C467 1.402 . S
C466 H481 0.951 1_565 S
C467 C466 1.402 . S
C467 C468 1.375 . S
C467 C470 1.479 . S
C468 C467 1.375 . S
C468 C469 1.367 . S
C468 H482 0.951 . S
C469 C465 1.383 . S
C469 C468 1.367 . S
C469 H483 0.950 . S
C470 C467 1.479 . S
C470 C471 1.298 1_665 S
C470 H484 0.952 1_655 S
C471 C470 1.298 1_445 S
C471 C472 1.479 . S
C471 H485 0.950 1_455 S
C472 C471 1.479 . S
C472 C473 1.375 . S
C472 C478 1.404 . S
C473 C472 1.375 . S
C473 C474 1.369 . S
C473 H486 0.950 . S
C474 C473 1.369 . S
C474 C475 1.392 . S
C474 H487 0.951 . S
C475 C474 1.392 . S
C475 C477 1.384 . S
H476 C478 0.949 1_565 S
C477 C475 1.384 . S
C477 C478 1.385 . S
C477 H479 0.950 . S
C478 C472 1.404 . S
C478 H476 0.949 1_545 S
C478 C477 1.385 . S
H479 C477 0.950 . S
H480 C464 0.951 . S
H481 C466 0.951 1_545 S
H482 C468 0.951 . S
H483 C469 0.950 . S
H484 C470 0.952 1_455 S
H485 C471 0.950 1_655 S
H486 C473 0.950 . S
H487 C474 0.951 . S
C105 C5 1.904 . S
C115 C31 1.834 . S
C129 C44 1.908 . S
C139 C18 1.832 . S
C153 C83 1.883 . S
C163 C57 1.928 . S
C177 C70 1.891 . S
C187 C96 1.920 . S
C201 C79 1.557 . S
C211 C1 1.533 . S
C225 C14 1.553 . S
C235 C92 1.559 . S
C249 C27 1.569 . S
C259 C53 1.571 . S
C273 C66 1.549 . S
C283 C40 1.549 . S
C297 C3 1.640 . S
C307 C68 1.649 . S
C321 C81 1.650 . S
C331 C16 1.629 . S
C345 C94 1.655 . S
C355 C29 1.642 . S
C369 C42 1.641 . S
C379 C55 1.649 . S
C393 C10 1.418 . S
C403 C36 1.390 . S
C417 C49 1.390 . S
C427 C23 1.318 . S
C441 C88 1.349 . S
C451 C62 1.410 . S
C465 C101 1.423 . S
C475 C75 1.353 . S
