# Generated by pormake.
# Topology wjb, (6)-cn, num edge types: 1
# Building blocks:
#     Node 0, Type 0, BuildingBlock: IZENUY_clean_sbu_0, # of connection points: 6
#     Node 1, Type 0, BuildingBlock: IZENUY_clean_sbu_0, # of connection points: 6
#     Node 2, Type 0, BuildingBlock: IZENUY_clean_sbu_0, # of connection points: 6
#     Node 3, Type 0, BuildingBlock: IZENUY_clean_sbu_0, # of connection points: 6
#     Node 4, Type 0, BuildingBlock: IZENUY_clean_sbu_0, # of connection points: 6
#     Node 5, Type 0, BuildingBlock: IZENUY_clean_sbu_0, # of connection points: 6
#     Node 6, Type 0, BuildingBlock: IZENUY_clean_sbu_0, # of connection points: 6
#     Node 7, Type 0, BuildingBlock: IZENUY_clean_sbu_0, # of connection points: 6
#     Node 8, Type 0, BuildingBlock: IZENUY_clean_sbu_0, # of connection points: 6
#     Node 9, Type 0, BuildingBlock: IZENUY_clean_sbu_0, # of connection points: 6
#     Node 10, Type 0, BuildingBlock: IZENUY_clean_sbu_0, # of connection points: 6
#     Node 11, Type 0, BuildingBlock: IZENUY_clean_sbu_0, # of connection points: 6
#     Node 12, Type 0, BuildingBlock: IZENUY_clean_sbu_0, # of connection points: 6
#     Node 13, Type 0, BuildingBlock: IZENUY_clean_sbu_0, # of connection points: 6
#     Node 14, Type 0, BuildingBlock: IZENUY_clean_sbu_0, # of connection points: 6
#     Node 15, Type 0, BuildingBlock: IZENUY_clean_sbu_0, # of connection points: 6
#     Node 16, Type 0, BuildingBlock: IZENUY_clean_sbu_0, # of connection points: 6
#     Node 17, Type 0, BuildingBlock: IZENUY_clean_sbu_0, # of connection points: 6
#     Node 18, Type 0, BuildingBlock: IZENUY_clean_sbu_0, # of connection points: 6
#     Node 19, Type 0, BuildingBlock: IZENUY_clean_sbu_0, # of connection points: 6
#     Node 20, Type 0, BuildingBlock: IZENUY_clean_sbu_0, # of connection points: 6
#     Node 21, Type 0, BuildingBlock: IZENUY_clean_sbu_0, # of connection points: 6
#     Node 22, Type 0, BuildingBlock: IZENUY_clean_sbu_0, # of connection points: 6
#     Node 23, Type 0, BuildingBlock: IZENUY_clean_sbu_0, # of connection points: 6
#     Edge 24, Type (0, 0), BuildingBlock: ZUJKAS_clean_linker_0, # of connection points: 2
#     Edge 25, Type (0, 0), BuildingBlock: ZUJKAS_clean_linker_0, # of connection points: 2
#     Edge 26, Type (0, 0), BuildingBlock: ZUJKAS_clean_linker_0, # of connection points: 2
#     Edge 27, Type (0, 0), BuildingBlock: ZUJKAS_clean_linker_0, # of connection points: 2
#     Edge 28, Type (0, 0), BuildingBlock: ZUJKAS_clean_linker_0, # of connection points: 2
#     Edge 29, Type (0, 0), BuildingBlock: ZUJKAS_clean_linker_0, # of connection points: 2
#     Edge 30, Type (0, 0), BuildingBlock: ZUJKAS_clean_linker_0, # of connection points: 2
#     Edge 31, Type (0, 0), BuildingBlock: ZUJKAS_clean_linker_0, # of connection points: 2
#     Edge 32, Type (0, 0), BuildingBlock: ZUJKAS_clean_linker_0, # of connection points: 2
#     Edge 33, Type (0, 0), BuildingBlock: ZUJKAS_clean_linker_0, # of connection points: 2
#     Edge 34, Type (0, 0), BuildingBlock: ZUJKAS_clean_linker_0, # of connection points: 2
#     Edge 35, Type (0, 0), BuildingBlock: ZUJKAS_clean_linker_0, # of connection points: 2
#     Edge 36, Type (0, 0), BuildingBlock: ZUJKAS_clean_linker_0, # of connection points: 2
#     Edge 37, Type (0, 0), BuildingBlock: ZUJKAS_clean_linker_0, # of connection points: 2
#     Edge 38, Type (0, 0), BuildingBlock: ZUJKAS_clean_linker_0, # of connection points: 2
#     Edge 39, Type (0, 0), BuildingBlock: ZUJKAS_clean_linker_0, # of connection points: 2
#     Edge 40, Type (0, 0), BuildingBlock: ZUJKAS_clean_linker_0, # of connection points: 2
#     Edge 41, Type (0, 0), BuildingBlock: ZUJKAS_clean_linker_0, # of connection points: 2
#     Edge 42, Type (0, 0), BuildingBlock: ZUJKAS_clean_linker_0, # of connection points: 2
#     Edge 43, Type (0, 0), BuildingBlock: ZUJKAS_clean_linker_0, # of connection points: 2
#     Edge 44, Type (0, 0), BuildingBlock: ZUJKAS_clean_linker_0, # of connection points: 2
#     Edge 45, Type (0, 0), BuildingBlock: ZUJKAS_clean_linker_0, # of connection points: 2
#     Edge 46, Type (0, 0), BuildingBlock: ZUJKAS_clean_linker_0, # of connection points: 2
#     Edge 47, Type (0, 0), BuildingBlock: ZUJKAS_clean_linker_0, # of connection points: 2
#     Edge 48, Type (0, 0), BuildingBlock: ZUJKAS_clean_linker_0, # of connection points: 2
#     Edge 49, Type (0, 0), BuildingBlock: ZUJKAS_clean_linker_0, # of connection points: 2
#     Edge 50, Type (0, 0), BuildingBlock: ZUJKAS_clean_linker_0, # of connection points: 2
#     Edge 51, Type (0, 0), BuildingBlock: ZUJKAS_clean_linker_0, # of connection points: 2
#     Edge 52, Type (0, 0), BuildingBlock: ZUJKAS_clean_linker_0, # of connection points: 2
#     Edge 53, Type (0, 0), BuildingBlock: ZUJKAS_clean_linker_0, # of connection points: 2
#     Edge 54, Type (0, 0), BuildingBlock: ZUJKAS_clean_linker_0, # of connection points: 2
#     Edge 55, Type (0, 0), BuildingBlock: ZUJKAS_clean_linker_0, # of connection points: 2
#     Edge 56, Type (0, 0), BuildingBlock: ZUJKAS_clean_linker_0, # of connection points: 2
#     Edge 57, Type (0, 0), BuildingBlock: ZUJKAS_clean_linker_0, # of connection points: 2
#     Edge 58, Type (0, 0), BuildingBlock: ZUJKAS_clean_linker_0, # of connection points: 2
#     Edge 59, Type (0, 0), BuildingBlock: ZUJKAS_clean_linker_0, # of connection points: 2
#     Edge 60, Type (0, 0), BuildingBlock: ZUJKAS_clean_linker_0, # of connection points: 2
#     Edge 61, Type (0, 0), BuildingBlock: ZUJKAS_clean_linker_0, # of connection points: 2
#     Edge 62, Type (0, 0), BuildingBlock: ZUJKAS_clean_linker_0, # of connection points: 2
#     Edge 63, Type (0, 0), BuildingBlock: ZUJKAS_clean_linker_0, # of connection points: 2
#     Edge 64, Type (0, 0), BuildingBlock: ZUJKAS_clean_linker_0, # of connection points: 2
#     Edge 65, Type (0, 0), BuildingBlock: ZUJKAS_clean_linker_0, # of connection points: 2
#     Edge 66, Type (0, 0), BuildingBlock: ZUJKAS_clean_linker_0, # of connection points: 2
#     Edge 67, Type (0, 0), BuildingBlock: ZUJKAS_clean_linker_0, # of connection points: 2
#     Edge 68, Type (0, 0), BuildingBlock: ZUJKAS_clean_linker_0, # of connection points: 2
#     Edge 69, Type (0, 0), BuildingBlock: ZUJKAS_clean_linker_0, # of connection points: 2
#     Edge 70, Type (0, 0), BuildingBlock: ZUJKAS_clean_linker_0, # of connection points: 2
#     Edge 71, Type (0, 0), BuildingBlock: ZUJKAS_clean_linker_0, # of connection points: 2
#     Edge 72, Type (0, 0), BuildingBlock: ZUJKAS_clean_linker_0, # of connection points: 2
#     Edge 73, Type (0, 0), BuildingBlock: ZUJKAS_clean_linker_0, # of connection points: 2
#     Edge 74, Type (0, 0), BuildingBlock: ZUJKAS_clean_linker_0, # of connection points: 2
#     Edge 75, Type (0, 0), BuildingBlock: ZUJKAS_clean_linker_0, # of connection points: 2
#     Edge 76, Type (0, 0), BuildingBlock: ZUJKAS_clean_linker_0, # of connection points: 2
#     Edge 77, Type (0, 0), BuildingBlock: ZUJKAS_clean_linker_0, # of connection points: 2
#     Edge 78, Type (0, 0), BuildingBlock: ZUJKAS_clean_linker_0, # of connection points: 2
#     Edge 79, Type (0, 0), BuildingBlock: ZUJKAS_clean_linker_0, # of connection points: 2
#     Edge 80, Type (0, 0), BuildingBlock: ZUJKAS_clean_linker_0, # of connection points: 2
#     Edge 81, Type (0, 0), BuildingBlock: ZUJKAS_clean_linker_0, # of connection points: 2
#     Edge 82, Type (0, 0), BuildingBlock: ZUJKAS_clean_linker_0, # of connection points: 2
#     Edge 83, Type (0, 0), BuildingBlock: ZUJKAS_clean_linker_0, # of connection points: 2
#     Edge 84, Type (0, 0), BuildingBlock: ZUJKAS_clean_linker_0, # of connection points: 2
#     Edge 85, Type (0, 0), BuildingBlock: ZUJKAS_clean_linker_0, # of connection points: 2
#     Edge 86, Type (0, 0), BuildingBlock: ZUJKAS_clean_linker_0, # of connection points: 2
#     Edge 87, Type (0, 0), BuildingBlock: ZUJKAS_clean_linker_0, # of connection points: 2
#     Edge 88, Type (0, 0), BuildingBlock: ZUJKAS_clean_linker_0, # of connection points: 2
#     Edge 89, Type (0, 0), BuildingBlock: ZUJKAS_clean_linker_0, # of connection points: 2
#     Edge 90, Type (0, 0), BuildingBlock: ZUJKAS_clean_linker_0, # of connection points: 2
#     Edge 91, Type (0, 0), BuildingBlock: ZUJKAS_clean_linker_0, # of connection points: 2
#     Edge 92, Type (0, 0), BuildingBlock: ZUJKAS_clean_linker_0, # of connection points: 2
#     Edge 93, Type (0, 0), BuildingBlock: ZUJKAS_clean_linker_0, # of connection points: 2
#     Edge 94, Type (0, 0), BuildingBlock: ZUJKAS_clean_linker_0, # of connection points: 2
#     Edge 95, Type (0, 0), BuildingBlock: ZUJKAS_clean_linker_0, # of connection points: 2
# Relax obj value: 0.470
# Max RMSD: 0.193
# Mean RMSD: 0.193
data_MOF--net-wjb--node1-IZENUY_clean_sbu_0--edge1-ZUJKAS_clean_linker_0
_symmetry_space_group_name_H-M    P1
_symmetry_Int_Tables_number       1
_symmetry_cell_setting            triclinic
loop_
_symmetry_equiv_pos_as_xyz
'x, y, z'
_cell_length_a     66.370181
_cell_length_b     66.358076
_cell_length_c     71.147135
_cell_angle_alpha  89.994608
_cell_angle_beta   90.008472
_cell_angle_gamma 120.00481
loop_
_atom_site_label
_atom_site_type_symbol
_atom_site_fract_x
_atom_site_fract_y
_atom_site_fract_z
_atom_type_partial_charge
Fe0 Fe 0.15907 0.46801 0.11388 0.0
Fe1 Fe 0.13693 0.49922 0.11354 0.0
O2 O 0.15804 0.49253 0.10516 0.0
Fe3 Fe 0.17837 0.51058 0.0881 0.0
O4 O 0.20185 0.50594 0.0963 0.0
O5 O 0.18866 0.48626 0.12252 0.0
O6 O 0.14908 0.46969 0.13766 0.0
C7 C 0.14914 0.48644 0.14628 0.0
C8 C 0.16866 0.46828 0.0748 0.0
O9 O 0.14748 0.50199 0.1374 0.0
C10 C 0.13679 0.50853 0.07618 0.0
O11 O 0.12958 0.44824 0.10599 0.0
O12 O 0.11453 0.46876 0.11716 0.0
O13 O 0.16818 0.48673 0.07168 0.0
O14 O 0.1693 0.46196 0.09154 0.0
C15 C 0.17772 0.54338 0.11076 0.0
O16 O 0.12487 0.49699 0.09013 0.0
O17 O 0.15875 0.51857 0.0766 0.0
C18 C 0.11211 0.44995 0.11054 0.0
O19 O 0.15575 0.53095 0.11148 0.0
O20 O 0.18978 0.53553 0.1036 0.0
C21 C 0.20546 0.50001 0.11226 0.0
Fe22 Fe 0.6625 0.17687 0.59029 0.0
Fe23 Fe 0.6926 0.16494 0.61525 0.0
O24 O 0.66484 0.15836 0.60678 0.0
Fe25 Fe 0.63929 0.1334 0.61469 0.0
O26 O 0.62748 0.15089 0.62406 0.0
O27 O 0.63382 0.17111 0.59819 0.0
O28 O 0.67492 0.20075 0.60669 0.0
C29 C 0.69471 0.20875 0.61412 0.0
C30 C 0.63095 0.13515 0.57563 0.0
O31 O 0.7049 0.19684 0.6144 0.0
C32 C 0.66861 0.11598 0.61015 0.0
O33 O 0.6907 0.1863 0.57921 0.0
O34 O 0.703 0.16422 0.59169 0.0
O35 O 0.62344 0.12834 0.59219 0.0
O36 O 0.64989 0.15381 0.57309 0.0
C37 C 0.6669 0.15026 0.64762 0.0
O38 O 0.68494 0.1342 0.61767 0.0
O39 O 0.64956 0.11467 0.60585 0.0
C40 C 0.70305 0.17674 0.57834 0.0
O41 O 0.6843 0.16623 0.63924 0.0
O42 O 0.65049 0.13386 0.63848 0.0
C43 C 0.62405 0.16455 0.61403 0.0
Fe44 Fe 0.47737 0.66788 0.09591 0.0
Fe45 Fe 0.5224 0.69307 0.11903 0.0
O46 O 0.49737 0.66692 0.11174 0.0
Fe47 Fe 0.49227 0.63968 0.12032 0.0
O48 O 0.46041 0.62552 0.11967 0.0
O49 O 0.45367 0.65376 0.1126 0.0
O50 O 0.48138 0.69561 0.10455 0.0
C51 C 0.48919 0.70612 0.11999 0.0
C52 C 0.48077 0.62927 0.08326 0.0
O53 O 0.5048 0.7045 0.12882 0.0
C54 C 0.54103 0.66486 0.11491 0.0
O55 O 0.49957 0.68202 0.07816 0.0
O56 O 0.52617 0.70855 0.09658 0.0
O57 O 0.49336 0.62956 0.09672 0.0
O58 O 0.46984 0.64033 0.08437 0.0
C59 C 0.50684 0.66586 0.15235 0.0
O60 O 0.54178 0.68342 0.10976 0.0
O61 O 0.52311 0.64876 0.12278 0.0
C62 C 0.51816 0.70112 0.08027 0.0
O63 O 0.52285 0.68229 0.14287 0.0
O64 O 0.49084 0.64812 0.14427 0.0
C65 C 0.44715 0.6341 0.11983 0.0
Fe66 Fe 0.81409 0.48937 0.58669 0.0
Fe67 Fe 0.83488 0.53215 0.61229 0.0
O68 O 0.83466 0.50694 0.60377 0.0
Fe69 Fe 0.85482 0.49911 0.61241 0.0
O70 O 0.83518 0.46758 0.61007 0.0
O71 O 0.80173 0.46438 0.60221 0.0
O72 O 0.79124 0.49511 0.59484 0.0
C73 C 0.78803 0.50142 0.6108 0.0
C74 C 0.85506 0.4897 0.57506 0.0
O75 O 0.80513 0.51499 0.6209 0.0
C76 C 0.88147 0.54825 0.60962 0.0
O77 O 0.82517 0.51323 0.57019 0.0
O78 O 0.8252 0.5387 0.5899 0.0
O79 O 0.86705 0.50107 0.58908 0.0
O80 O 0.83312 0.48041 0.57532 0.0
C81 C 0.84308 0.51267 0.64491 0.0
O82 O 0.86474 0.55086 0.60438 0.0
O83 O 0.87797 0.52915 0.61646 0.0
C84 C 0.82559 0.53214 0.5732 0.0
O85 O 0.84438 0.52996 0.63618 0.0
O86 O 0.84391 0.49658 0.63613 0.0
C87 C 0.81318 0.45581 0.60933 0.0
Fe88 Fe 0.36162 0.86298 0.11728 0.0
Fe89 Fe 0.33567 0.81809 0.09466 0.0
O90 O 0.3351 0.83877 0.10977 0.0
Fe91 Fe 0.30801 0.83507 0.11735 0.0
O92 O 0.31541 0.83391 0.14158 0.0
O93 O 0.35046 0.86479 0.14054 0.0
O94 O 0.37136 0.84447 0.12812 0.0
C95 C 0.37286 0.82871 0.11942 0.0
C96 C 0.33553 0.88363 0.11081 0.0
O97 O 0.36306 0.82158 0.10365 0.0
C98 C 0.29801 0.82214 0.08068 0.0
O99 O 0.3774 0.86548 0.09524 0.0
O100 O 0.35031 0.83972 0.07668 0.0
O101 O 0.3183 0.86656 0.1187 0.0
O102 O 0.35367 0.88287 0.10695 0.0
C103 C 0.30128 0.78937 0.11852 0.0
O104 O 0.30838 0.81066 0.08277 0.0
O105 O 0.29884 0.83581 0.09337 0.0
C106 C 0.36975 0.85789 0.07888 0.0
O107 O 0.32109 0.79541 0.1119 0.0
O108 O 0.29295 0.8029 0.11746 0.0
C109 C 0.33336 0.84933 0.14977 0.0
Fe110 Fe 0.52065 0.32629 0.59702 0.0
Fe111 Fe 0.47362 0.30202 0.61699 0.0
O112 O 0.49935 0.32802 0.61057 0.0
Fe113 Fe 0.50388 0.35558 0.61755 0.0
O114 O 0.53093 0.36313 0.62967 0.0
O115 O 0.54543 0.35261 0.60656 0.0
O116 O 0.5252 0.31028 0.61547 0.0
C117 C 0.50939 0.29107 0.62177 0.0
C118 C 0.51935 0.36227 0.57977 0.0
O119 O 0.4881 0.28441 0.61878 0.0
C120 C 0.45745 0.33353 0.60902 0.0
O121 O 0.50006 0.29967 0.5847 0.0
O122 O 0.46564 0.2939 0.59251 0.0
O123 O 0.51926 0.37045 0.59587 0.0
O124 O 0.51705 0.3423 0.57805 0.0
C125 C 0.48425 0.32712 0.64967 0.0
O126 O 0.45468 0.31503 0.61664 0.0
O127 O 0.47753 0.35039 0.60597 0.0
C128 C 0.47879 0.29171 0.58091 0.0
O129 O 0.48003 0.30847 0.64164 0.0
O130 O 0.48914 0.34526 0.6403 0.0
C131 C 0.54807 0.36336 0.62183 0.0
Fe132 Fe 0.52651 0.83307 0.88156 0.0
Fe133 Fe 0.49751 0.85772 0.88151 0.0
O134 O 0.50115 0.83398 0.88804 0.0
Fe135 Fe 0.47925 0.81077 0.90115 0.0
O136 O 0.47433 0.79068 0.88221 0.0
O137 O 0.51124 0.80109 0.87909 0.0
O138 O 0.5207 0.83421 0.85687 0.0
C139 C 0.51696 0.8491 0.84908 0.0
C140 C 0.52051 0.81553 0.91694 0.0
O141 O 0.5122 0.86228 0.85869 0.0
C142 C 0.48174 0.84817 0.91924 0.0
O143 O 0.5462 0.86477 0.88263 0.0
O144 O 0.52409 0.87816 0.89328 0.0
O145 O 0.49907 0.80333 0.9132 0.0
O146 O 0.53393 0.83175 0.90606 0.0
C147 C 0.45291 0.82202 0.87666 0.0
O148 O 0.48243 0.8572 0.90335 0.0
O149 O 0.48311 0.82991 0.92059 0.0
C150 C 0.54393 0.88062 0.89053 0.0
O151 O 0.47029 0.83909 0.8692 0.0
O152 O 0.45507 0.81345 0.89183 0.0
C153 C 0.48991 0.78705 0.87577 0.0
Fe154 Fe 0.6924 0.52425 0.37923 0.0
Fe155 Fe 0.63873 0.49769 0.37945 0.0
O156 O 0.66549 0.50044 0.38666 0.0
Fe157 Fe 0.66536 0.47918 0.40156 0.0
O158 O 0.67955 0.47124 0.38378 0.0
O159 O 0.70749 0.50721 0.3785 0.0
O160 O 0.68509 0.51663 0.35479 0.0
C161 C 0.66693 0.51385 0.34676 0.0
C162 C 0.70295 0.52068 0.41565 0.0
O163 O 0.64939 0.51072 0.35619 0.0
C164 C 0.63184 0.48528 0.41791 0.0
O165 O 0.68191 0.54525 0.37864 0.0
O166 O 0.64629 0.52541 0.38979 0.0
O167 O 0.693 0.49893 0.41313 0.0
O168 O 0.70158 0.53358 0.40331 0.0
C169 C 0.62711 0.4522 0.37763 0.0
O170 O 0.62349 0.48436 0.40167 0.0
O171 O 0.65122 0.48635 0.41988 0.0
C172 C 0.66437 0.54456 0.38642 0.0
O173 O 0.6292 0.46946 0.36857 0.0
O174 O 0.6376 0.45515 0.3931 0.0
C175 C 0.69913 0.48539 0.3769 0.0
Fe176 Fe 0.14457 0.64228 0.88476 0.0
Fe177 Fe 0.18669 0.67126 0.90994 0.0
O178 O 0.16595 0.66968 0.89357 0.0
Fe179 Fe 0.1666 0.69543 0.88589 0.0
O180 O 0.15587 0.68443 0.86208 0.0
O181 O 0.15509 0.65092 0.86102 0.0
O182 O 0.16295 0.62892 0.88596 0.0
C183 C 0.18487 0.63808 0.88615 0.0
C184 C 0.11981 0.66645 0.88949 0.0
O185 O 0.19742 0.65771 0.89367 0.0
C186 C 0.17743 0.70369 0.92477 0.0
O187 O 0.13283 0.63193 0.90813 0.0
O188 O 0.16686 0.64341 0.92123 0.0
O189 O 0.1373 0.68526 0.89468 0.0
O190 O 0.12225 0.6506 0.8818 0.0
C191 C 0.21316 0.7099 0.88613 0.0
O192 O 0.1774 0.68486 0.92726 0.0
O193 O 0.17751 0.71104 0.90831 0.0
C194 C 0.14484 0.63168 0.92179 0.0
O195 O 0.21019 0.69947 0.90166 0.0
O196 O 0.19595 0.70724 0.87658 0.0
C197 C 0.15636 0.66836 0.85284 0.0
Fe198 Fe 0.52076 0.18902 0.40291 0.0
Fe199 Fe 0.47517 0.16693 0.38043 0.0
O200 O 0.50071 0.16689 0.3879 0.0
Fe201 Fe 0.50632 0.14474 0.38034 0.0
O202 O 0.53816 0.16324 0.38022 0.0
O203 O 0.54397 0.19825 0.38578 0.0
O204 O 0.51563 0.21166 0.39347 0.0
C205 C 0.50772 0.21332 0.37774 0.0
C206 C 0.51943 0.14849 0.41709 0.0
O207 O 0.4921 0.19547 0.36949 0.0
C208 C 0.45806 0.12056 0.38745 0.0
O209 O 0.49888 0.18127 0.42092 0.0
O210 O 0.47165 0.17966 0.40234 0.0
O211 O 0.5063 0.13526 0.40431 0.0
O212 O 0.52961 0.17038 0.41517 0.0
C213 C 0.49031 0.15379 0.34784 0.0
O214 O 0.45649 0.13841 0.39083 0.0
O215 O 0.47565 0.12223 0.3791 0.0
C216 C 0.47985 0.18089 0.41868 0.0
O217 O 0.47431 0.15429 0.35722 0.0
O218 O 0.5067 0.15285 0.356 0.0
C219 C 0.55088 0.18513 0.3792 0.0
Fe220 Fe 0.30703 0.47188 0.88633 0.0
Fe221 Fe 0.36049 0.50274 0.88627 0.0
O222 O 0.33282 0.49647 0.89473 0.0
Fe223 Fe 0.33081 0.51493 0.91163 0.0
O224 O 0.30263 0.51016 0.90354 0.0
O225 O 0.29585 0.49021 0.87744 0.0
O226 O 0.31826 0.47274 0.86251 0.0
C227 C 0.335 0.48906 0.8536 0.0
C228 C 0.2983 0.47287 0.92542 0.0
O229 O 0.35248 0.50459 0.86223 0.0
C230 C 0.37045 0.51325 0.9236 0.0
O231 O 0.31653 0.45211 0.89458 0.0
O232 O 0.35234 0.47216 0.88367 0.0
O233 O 0.31727 0.49137 0.92835 0.0
O234 O 0.29106 0.46644 0.90875 0.0
C235 C 0.36368 0.54682 0.88798 0.0
O236 O 0.37081 0.50151 0.90979 0.0
O237 O 0.35851 0.52323 0.92302 0.0
C238 C 0.3359 0.45379 0.89082 0.0
O239 O 0.37326 0.53443 0.88732 0.0
O240 O 0.34425 0.5396 0.89589 0.0
C241 C 0.29294 0.50409 0.88765 0.0
Fe242 Fe 0.85929 0.35732 0.38492 0.0
Fe243 Fe 0.8197 0.32611 0.41169 0.0
O244 O 0.83991 0.32942 0.39412 0.0
Fe245 Fe 0.84051 0.30456 0.38567 0.0
O246 O 0.84995 0.31596 0.36172 0.0
O247 O 0.84807 0.34804 0.36134 0.0
O248 O 0.83884 0.3682 0.38687 0.0
C249 C 0.81692 0.35752 0.38862 0.0
C250 C 0.88689 0.33586 0.38848 0.0
O251 O 0.80621 0.33803 0.3967 0.0
C252 C 0.83212 0.2955 0.42484 0.0
O253 O 0.87184 0.3688 0.40798 0.0
O254 O 0.83834 0.35433 0.42266 0.0
O255 O 0.87037 0.31625 0.39351 0.0
O256 O 0.88299 0.35107 0.38127 0.0
C257 C 0.79379 0.28803 0.38771 0.0
O258 O 0.83197 0.31413 0.42784 0.0
O259 O 0.83114 0.28837 0.40812 0.0
C260 C 0.86011 0.36788 0.42226 0.0
O261 O 0.79724 0.29717 0.40385 0.0
O262 O 0.81066 0.29178 0.37724 0.0
C263 C 0.84784 0.33131 0.35278 0.0
Fe264 Fe 0.81515 0.48346 0.90439 0.0
Fe265 Fe 0.83556 0.52736 0.87998 0.0
O266 O 0.83618 0.50234 0.88805 0.0
Fe267 Fe 0.85768 0.49613 0.87973 0.0
O268 O 0.83882 0.46443 0.88055 0.0
O269 O 0.80438 0.45906 0.88822 0.0
O270 O 0.79206 0.48851 0.89592 0.0
C271 C 0.78916 0.49542 0.88015 0.0
C272 C 0.85624 0.48517 0.91693 0.0
O273 O 0.80631 0.50958 0.87038 0.0
C274 C 0.88232 0.54483 0.88528 0.0
O275 O 0.82461 0.50656 0.92152 0.0
O276 O 0.82427 0.53221 0.90223 0.0
O277 O 0.86875 0.49696 0.90332 0.0
O278 O 0.83433 0.47506 0.91603 0.0
C279 C 0.84667 0.51065 0.84726 0.0
O280 O 0.86466 0.54659 0.88904 0.0
O281 O 0.88023 0.52673 0.87746 0.0
C282 C 0.82436 0.52521 0.91881 0.0
O283 O 0.84669 0.52707 0.85638 0.0
O284 O 0.84812 0.49471 0.85567 0.0
C285 C 0.81686 0.45186 0.88074 0.0
Fe286 Fe 0.30705 0.83578 0.38457 0.0
Fe287 Fe 0.36002 0.85651 0.3835 0.0
O288 O 0.33237 0.83555 0.39215 0.0
Fe289 Fe 0.33015 0.81439 0.40831 0.0
O290 O 0.30166 0.79151 0.39996 0.0
O291 O 0.29453 0.80647 0.37501 0.0
O292 O 0.31831 0.8466 0.36083 0.0
C293 C 0.33411 0.84561 0.35154 0.0
C294 C 0.29852 0.82459 0.42339 0.0
O295 O 0.35129 0.84627 0.3597 0.0
C296 C 0.37029 0.85553 0.42043 0.0
O297 O 0.31796 0.8651 0.39362 0.0
O298 O 0.35248 0.87944 0.38065 0.0
O299 O 0.3171 0.8241 0.42577 0.0
O300 O 0.29126 0.82488 0.40696 0.0
C301 C 0.36315 0.81549 0.38486 0.0
O302 O 0.37033 0.86788 0.40693 0.0
O303 O 0.35818 0.83354 0.41966 0.0
C304 C 0.33703 0.88235 0.38855 0.0
O305 O 0.37272 0.83746 0.3847 0.0
O306 O 0.34314 0.80326 0.39183 0.0
C307 C 0.29129 0.789 0.38446 0.0
Fe308 Fe 0.50037 0.35827 0.88326 0.0
Fe309 Fe 0.51275 0.3291 0.90889 0.0
O310 O 0.49422 0.33076 0.89198 0.0
Fe311 Fe 0.46975 0.30492 0.88374 0.0
O312 O 0.47083 0.31604 0.85991 0.0
O313 O 0.50294 0.35012 0.85953 0.0
O314 O 0.53218 0.37162 0.88508 0.0
C315 C 0.54479 0.36225 0.88552 0.0
C316 C 0.45126 0.33341 0.88692 0.0
O317 O 0.53734 0.34249 0.89293 0.0
C318 C 0.47058 0.29673 0.92282 0.0
O319 O 0.49824 0.36833 0.90657 0.0
O320 O 0.52065 0.35691 0.91992 0.0
O321 O 0.45 0.31454 0.89181 0.0
O322 O 0.46972 0.34975 0.87979 0.0
C323 C 0.50208 0.291 0.8853 0.0
O324 O 0.48924 0.31558 0.92572 0.0
O325 O 0.46428 0.28924 0.90622 0.0
C326 C 0.5101 0.36834 0.92043 0.0
O327 O 0.50818 0.30091 0.9011 0.0
O328 O 0.48805 0.29365 0.87506 0.0
C329 C 0.48734 0.33259 0.851 0.0
Fe330 Fe 0.17356 0.47974 0.38022 0.0
Fe331 Fe 0.14493 0.50473 0.38153 0.0
O332 O 0.16985 0.50311 0.38804 0.0
Fe333 Fe 0.19113 0.52495 0.40248 0.0
O334 O 0.21291 0.53291 0.3845 0.0
O335 O 0.20556 0.49734 0.37873 0.0
O336 O 0.17288 0.48734 0.35593 0.0
C337 C 0.15681 0.48937 0.34835 0.0
C338 C 0.18866 0.48396 0.41652 0.0
O339 O 0.14197 0.49127 0.35828 0.0
C340 C 0.15188 0.5188 0.4197 0.0
O341 O 0.1422 0.45813 0.38021 0.0
O342 O 0.12613 0.47709 0.39266 0.0
O343 O 0.19961 0.50576 0.41413 0.0
O344 O 0.17466 0.47062 0.40419 0.0
C345 C 0.1785 0.5504 0.37814 0.0
O346 O 0.14338 0.51837 0.40364 0.0
O347 O 0.17046 0.51816 0.42122 0.0
C348 C 0.12578 0.45832 0.38913 0.0
O349 O 0.16232 0.5328 0.37008 0.0
O350 O 0.18674 0.54833 0.39357 0.0
C351 C 0.21875 0.51922 0.37739 0.0
Fe352 Fe 0.69204 0.16356 0.8831 0.0
Fe353 Fe 0.6387 0.14119 0.88237 0.0
O354 O 0.66623 0.16264 0.89096 0.0
Fe355 Fe 0.66793 0.18338 0.90741 0.0
O356 O 0.69625 0.20669 0.89951 0.0
O357 O 0.70368 0.19302 0.874 0.0
O358 O 0.6811 0.15315 0.85919 0.0
C359 C 0.66452 0.1528 0.85005 0.0
C360 C 0.70009 0.17383 0.92221 0.0
O361 O 0.64701 0.15112 0.85844 0.0
C362 C 0.6284 0.14205 0.91944 0.0
O363 O 0.68213 0.13417 0.89155 0.0
O364 O 0.6469 0.11881 0.87966 0.0
O365 O 0.6812 0.17367 0.92469 0.0
O366 O 0.70758 0.17418 0.9057 0.0
C367 C 0.63512 0.18186 0.88339 0.0
O368 O 0.62837 0.12974 0.9059 0.0
O369 O 0.64003 0.16399 0.91851 0.0
C370 C 0.66313 0.11657 0.88683 0.0
O371 O 0.62571 0.15989 0.88334 0.0
O372 O 0.6547 0.19434 0.89104 0.0
C373 C 0.70644 0.21 0.88389 0.0
Fe374 Fe 0.50479 0.64285 0.38776 0.0
Fe375 Fe 0.49277 0.673 0.41247 0.0
O376 O 0.51119 0.6707 0.39576 0.0
Fe377 Fe 0.53563 0.69624 0.38696 0.0
O378 O 0.53414 0.68443 0.36328 0.0
O379 O 0.50219 0.65022 0.36368 0.0
O380 O 0.47318 0.62993 0.38953 0.0
C381 C 0.46081 0.63952 0.38929 0.0
C382 C 0.554 0.66759 0.39084 0.0
O383 O 0.46815 0.65935 0.39654 0.0
C384 C 0.53495 0.70564 0.426 0.0
O385 O 0.50677 0.63337 0.41146 0.0
O386 O 0.48454 0.64542 0.42411 0.0
O387 O 0.55563 0.68683 0.39509 0.0
O388 O 0.53522 0.65101 0.38441 0.0
C389 C 0.50344 0.71042 0.38818 0.0
O390 O 0.51637 0.68678 0.42913 0.0
O391 O 0.54138 0.71255 0.40925 0.0
C392 C 0.49478 0.63372 0.42511 0.0
O393 O 0.49755 0.70113 0.4042 0.0
O394 O 0.51719 0.7073 0.37801 0.0
C395 C 0.51749 0.66755 0.35473 0.0
Fe396 Fe 0.51308 0.18503 0.08944 0.0
Fe397 Fe 0.46926 0.16725 0.11369 0.0
O398 O 0.49298 0.16445 0.1054 0.0
Fe399 Fe 0.49681 0.14122 0.11305 0.0
O400 O 0.52524 0.16105 0.12298 0.0
O401 O 0.53802 0.18284 0.09776 0.0
O402 O 0.52122 0.2083 0.1062 0.0
C403 C 0.50727 0.21369 0.11356 0.0
C404 C 0.50823 0.14522 0.07423 0.0
O405 O 0.4855 0.19943 0.1135 0.0
C406 C 0.44971 0.11862 0.10788 0.0
O407 O 0.49202 0.19111 0.07812 0.0
O408 O 0.45819 0.16571 0.09001 0.0
O409 O 0.50943 0.13857 0.09072 0.0
O410 O 0.50608 0.16287 0.07178 0.0
C411 C 0.48229 0.15436 0.14597 0.0
O412 O 0.44898 0.13556 0.11546 0.0
O413 O 0.46886 0.12013 0.10366 0.0
C414 C 0.47012 0.17909 0.07683 0.0
O415 O 0.47866 0.1691 0.13781 0.0
O416 O 0.48475 0.13948 0.13663 0.0
C417 C 0.5418 0.17644 0.11346 0.0
Fe418 Fe 0.30729 0.47102 0.61776 0.0
Fe419 Fe 0.36019 0.5048 0.61828 0.0
O420 O 0.33217 0.4966 0.60952 0.0
Fe421 Fe 0.32891 0.51407 0.59247 0.0
O422 O 0.29994 0.50747 0.6004 0.0
O423 O 0.29427 0.48771 0.62649 0.0
O424 O 0.31876 0.47284 0.64168 0.0
C425 C 0.33453 0.49 0.65068 0.0
C426 C 0.29867 0.47122 0.57864 0.0
O427 O 0.35141 0.50642 0.64212 0.0
C428 C 0.3703 0.51524 0.58104 0.0
O429 O 0.31892 0.45283 0.60968 0.0
O430 O 0.35391 0.47481 0.62158 0.0
O431 O 0.31698 0.49033 0.57581 0.0
O432 O 0.29121 0.46466 0.59524 0.0
C433 C 0.36076 0.54774 0.61552 0.0
O434 O 0.37105 0.50381 0.59494 0.0
O435 O 0.35718 0.52397 0.58132 0.0
C436 C 0.33858 0.45577 0.61439 0.0
O437 O 0.37133 0.5363 0.61654 0.0
O438 O 0.34082 0.53887 0.60817 0.0
C439 C 0.29034 0.50095 0.61633 0.0
Fe440 Fe 0.85525 0.35562 0.11704 0.0
Fe441 Fe 0.81036 0.32845 0.09471 0.0
O442 O 0.83146 0.32867 0.10986 0.0
Fe443 Fe 0.82847 0.30192 0.11768 0.0
O444 O 0.82776 0.30957 0.142 0.0
O445 O 0.85746 0.34534 0.14061 0.0
O446 O 0.83628 0.36513 0.12747 0.0
C447 C 0.82128 0.36703 0.118 0.0
C448 C 0.87688 0.33025 0.11084 0.0
O449 O 0.81394 0.35625 0.10265 0.0
C450 C 0.81469 0.29099 0.08119 0.0
O451 O 0.8573 0.37049 0.09451 0.0
O452 O 0.83174 0.34251 0.07634 0.0
O453 O 0.86003 0.31266 0.11856 0.0
O454 O 0.87564 0.34815 0.10715 0.0
C455 C 0.78301 0.29518 0.11996 0.0
O456 O 0.80266 0.30069 0.0836 0.0
O457 O 0.82881 0.29236 0.09369 0.0
C458 C 0.84985 0.36214 0.07824 0.0
O459 O 0.78822 0.31447 0.11257 0.0
O460 O 0.79634 0.28668 0.11834 0.0
C461 C 0.84275 0.32793 0.15003 0.0
Fe462 Fe 0.52865 0.83921 0.61459 0.0
Fe463 Fe 0.50649 0.8704 0.6144 0.0
O464 O 0.50733 0.84565 0.60626 0.0
Fe465 Fe 0.48655 0.82723 0.58967 0.0
O466 O 0.4752 0.80315 0.60588 0.0
O467 O 0.50918 0.80727 0.61363 0.0
O468 O 0.51912 0.8377 0.63862 0.0
C469 C 0.51761 0.85356 0.64711 0.0
C470 C 0.52736 0.82775 0.5776 0.0
O471 O 0.51729 0.86986 0.63808 0.0
C472 C 0.49663 0.86912 0.5754 0.0
O473 O 0.55159 0.87 0.61708 0.0
O474 O 0.53544 0.88944 0.60565 0.0
O475 O 0.50545 0.81809 0.57845 0.0
O476 O 0.53978 0.84016 0.59102 0.0
C477 C 0.4602 0.8389 0.61365 0.0
O478 O 0.49567 0.87559 0.59201 0.0
O479 O 0.49691 0.85049 0.57265 0.0
C480 C 0.5533 0.88828 0.60985 0.0
O481 O 0.47722 0.85256 0.62374 0.0
O482 O 0.4635 0.83272 0.59769 0.0
C483 C 0.48708 0.79522 0.61326 0.0
Fe484 Fe 0.69268 0.52752 0.11258 0.0
Fe485 Fe 0.63904 0.4996 0.1131 0.0
O486 O 0.66598 0.50263 0.10602 0.0
Fe487 Fe 0.6663 0.48067 0.09228 0.0
O488 O 0.6818 0.47504 0.1105 0.0
O489 O 0.70892 0.51162 0.11431 0.0
O490 O 0.68598 0.52118 0.13724 0.0
C491 C 0.66773 0.51818 0.14524 0.0
C492 C 0.70265 0.52193 0.07644 0.0
O493 O 0.64998 0.51439 0.13577 0.0
C494 C 0.63118 0.48402 0.07541 0.0
O495 O 0.68111 0.54771 0.11226 0.0
O496 O 0.64562 0.52625 0.10126 0.0
O497 O 0.69316 0.50037 0.07981 0.0
O498 O 0.70121 0.53543 0.08816 0.0
C499 C 0.62965 0.45488 0.11768 0.0
O500 O 0.62349 0.48449 0.09161 0.0
O501 O 0.65062 0.48515 0.07343 0.0
C502 C 0.66326 0.54587 0.10412 0.0
O503 O 0.63036 0.47236 0.12534 0.0
O504 O 0.63959 0.45677 0.10211 0.0
C505 C 0.70124 0.49007 0.117 0.0
Fe506 Fe 0.17225 0.69576 0.61862 0.0
Fe507 Fe 0.14792 0.64225 0.61875 0.0
O508 O 0.17142 0.66959 0.61189 0.0
Fe509 Fe 0.19423 0.67094 0.59828 0.0
O510 O 0.21511 0.68699 0.61655 0.0
O511 O 0.20432 0.71311 0.62006 0.0
O512 O 0.17252 0.68898 0.64314 0.0
C513 C 0.15765 0.67047 0.65104 0.0
C514 C 0.18727 0.70605 0.58244 0.0
O515 O 0.14362 0.65277 0.64154 0.0
C516 C 0.15666 0.63508 0.58109 0.0
O517 O 0.14032 0.68318 0.61859 0.0
O518 O 0.12744 0.64823 0.60691 0.0
O519 O 0.20024 0.69752 0.58576 0.0
O520 O 0.17224 0.7041 0.59429 0.0
C521 C 0.18394 0.63386 0.62336 0.0
O522 O 0.14809 0.62711 0.59715 0.0
O523 O 0.17456 0.65486 0.57938 0.0
C524 C 0.12475 0.66538 0.6101 0.0
O525 O 0.16689 0.6341 0.63095 0.0
O526 O 0.19242 0.64461 0.60813 0.0
C527 C 0.21888 0.70633 0.62279 0.0
H528 H 0.16509 0.63135 0.95484 0.0
H529 H 0.14828 0.60394 0.98068 0.0
H530 H 0.08236 0.5688 0.95179 0.0
H531 H 0.09926 0.59631 0.92545 0.0
H532 H 0.10865 0.59206 0.00393 0.0
H533 H 0.09976 0.51745 0.96134 0.0
H534 H 0.11743 0.54708 0.95339 0.0
H535 H 0.08632 0.53358 0.95309 0.0
C536 C 0.14698 0.61788 0.95391 0.0
C537 C 0.13362 0.61584 0.93794 0.0
C538 C 0.13735 0.60229 0.96878 0.0
C539 C 0.11415 0.58424 0.96809 0.0
C540 C 0.10039 0.5825 0.95249 0.0
H541 H 0.09395 0.50585 0.074 0.0
H542 H 0.07922 0.5188 0.04757 0.0
C543 C 0.11005 0.59825 0.93751 0.0
C544 C 0.10546 0.56681 0.98343 0.0
H545 H 0.09884 0.51369 0.99405 0.0
C546 C 0.10572 0.5746 0.00182 0.0
C547 C 0.10163 0.54407 0.98055 0.0
C548 C 0.10129 0.5349 0.96108 0.0
C549 C 0.10452 0.56114 0.01746 0.0
C550 C 0.10273 0.53921 0.01456 0.0
C551 C 0.10017 0.53049 0.99619 0.0
C552 C 0.10893 0.52788 0.02965 0.0
C553 C 0.10746 0.57142 0.03687 0.0
C554 C 0.12995 0.52784 0.02802 0.0
C555 C 0.1383 0.52054 0.04292 0.0
C556 C 0.1258 0.51302 0.05985 0.0
C557 C 0.104 0.51167 0.06115 0.0
C558 C 0.09564 0.51915 0.04612 0.0
H559 H 0.11035 0.58942 0.03654 0.0
H560 H 0.09163 0.56046 0.04533 0.0
H561 H 0.12244 0.57172 0.04411 0.0
H562 H 0.14049 0.53448 0.01545 0.0
H563 H 0.15499 0.52148 0.04136 0.0
H564 H 0.64152 0.14609 0.53865 0.0
H565 H 0.61444 0.1349 0.51249 0.0
H566 H 0.55809 0.08853 0.54875 0.0
H567 H 0.58511 0.10024 0.57536 0.0
H568 H 0.58297 0.09501 0.49416 0.0
H569 H 0.53827 0.13475 0.53268 0.0
H570 H 0.56532 0.13767 0.5408 0.0
H571 H 0.5386 0.11063 0.54383 0.0
C572 C 0.62344 0.13324 0.54109 0.0
C573 C 0.61539 0.1245 0.55923 0.0
C574 C 0.60797 0.12675 0.52605 0.0
C575 C 0.58415 0.1113 0.52875 0.0
C576 C 0.57633 0.10091 0.54646 0.0
H577 H 0.50395 0.10247 0.42569 0.0
H578 H 0.51461 0.08739 0.45324 0.0
C579 C 0.59183 0.10753 0.56162 0.0
C580 C 0.56771 0.10853 0.51349 0.0
H581 H 0.52918 0.12606 0.50102 0.0
C582 C 0.57076 0.10126 0.4957 0.0
C583 C 0.55189 0.11682 0.51557 0.0
C584 C 0.54833 0.12556 0.53418 0.0
C585 C 0.55969 0.10362 0.4797 0.0
C586 C 0.54493 0.11315 0.48166 0.0
C587 C 0.5405 0.11873 0.49964 0.0
C588 C 0.53733 0.12136 0.46522 0.0
C589 C 0.56525 0.09763 0.46066 0.0
C590 C 0.5462 0.14533 0.46307 0.0
C591 C 0.54014 0.15394 0.44755 0.0
C592 C 0.52502 0.13876 0.43373 0.0
C593 C 0.51577 0.11463 0.43602 0.0
C594 C 0.52188 0.10599 0.45169 0.0
H595 H 0.57899 0.09275 0.4614 0.0
H596 H 0.54933 0.08276 0.45463 0.0
H597 H 0.57109 0.1126 0.45092 0.0
H598 H 0.55816 0.1575 0.47334 0.0
H599 H 0.54753 0.17259 0.44635 0.0
H600 H 0.41217 0.51361 0.92613 0.0
H601 H 0.43842 0.52572 0.95353 0.0
H602 H 0.38839 0.53469 0.98573 0.0
H603 H 0.36245 0.52275 0.95878 0.0
H604 H 0.45709 0.56928 0.97058 0.0
H605 H 0.40771 0.50112 0.02312 0.0
H606 H 0.40153 0.49657 0.99824 0.0
H607 H 0.38939 0.5105 0.01231 0.0
C608 C 0.40665 0.51768 0.93921 0.0
C609 C 0.38535 0.51739 0.94029 0.0
C610 C 0.42164 0.52461 0.95482 0.0
C611 C 0.41522 0.53076 0.97179 0.0
C612 C 0.39354 0.52953 0.97298 0.0
H613 H 0.46524 0.63378 0.04922 0.0
H614 H 0.45536 0.60833 0.02208 0.0
C615 C 0.37881 0.52293 0.95746 0.0
C616 C 0.43178 0.54121 0.98768 0.0
H617 H 0.43271 0.54045 0.03565 0.0
C618 C 0.45217 0.56262 0.98477 0.0
C619 C 0.4257 0.5324 0.0062 0.0
C620 C 0.405 0.50874 0.01012 0.0
C621 C 0.46517 0.57653 -1e-05 0.0
C622 C 0.45738 0.56895 0.01854 0.0
C623 C 0.4385 0.54647 0.02143 0.0
C624 C 0.46589 0.58535 0.03468 0.0
C625 C 0.48642 0.5998 0.99605 0.0
C626 C 0.47491 0.5808 0.05099 0.0
C627 C 0.48061 0.59546 0.06673 0.0
C628 C 0.47687 0.61455 0.06646 0.0
C629 C 0.46821 0.61916 0.04997 0.0
C630 C 0.46278 0.60474 0.03431 0.0
H631 H 0.49481 0.5994 0.98265 0.0
H632 H 0.48116 0.61319 0.99463 0.0
H633 H 0.49936 0.60508 0.0076 0.0
H634 H 0.47719 0.56575 0.05164 0.0
H635 H 0.4872 0.59144 0.07925 0.0
H636 H 0.83476 0.47077 0.54163 0.0
H637 H 0.8503 0.45867 0.51591 0.0
H638 H 0.91555 0.48518 0.5453 0.0
H639 H 0.89981 0.49714 0.57162 0.0
H640 H 0.88887 0.48278 0.49256 0.0
H641 H 0.89543 0.41645 0.53615 0.0
H642 H 0.8798 0.43055 0.54423 0.0
H643 H 0.91101 0.44631 0.54374 0.0
C644 C 0.85247 0.47417 0.54271 0.0
C645 C 0.8659 0.48462 0.55887 0.0
C646 C 0.86139 0.46734 0.52788 0.0
C647 C 0.88399 0.47075 0.52874 0.0
C648 C 0.89793 0.48207 0.54446 0.0
H649 H 0.90216 0.40923 0.42355 0.0
H650 H 0.91652 0.43775 0.44941 0.0
C651 C 0.88896 0.48898 0.55944 0.0
C652 C 0.89173 0.46093 0.51345 0.0
H653 H 0.89705 0.41346 0.50356 0.0
C654 C 0.89135 0.46802 0.49492 0.0
C655 C 0.89496 0.44168 0.51662 0.0
C656 C 0.89526 0.43311 0.53621 0.0
C657 C 0.89196 0.45515 0.47946 0.0
C658 C 0.89342 0.43486 0.48267 0.0
C659 C 0.89597 0.42904 0.50116 0.0
C660 C 0.88728 0.41706 0.46775 0.0
C661 C 0.88891 0.46214 0.45995 0.0
C662 C 0.86668 0.39568 0.46979 0.0
C663 C 0.85857 0.37951 0.45523 0.0
C664 C 0.87087 0.38425 0.43819 0.0
C665 C 0.89223 0.40514 0.43646 0.0
C666 C 0.90037 0.42148 0.45117 0.0
H667 H 0.88567 0.47703 0.4601 0.0
H668 H 0.90486 0.46725 0.45159 0.0
H669 H 0.87413 0.44725 0.45272 0.0
H670 H 0.85629 0.39183 0.48244 0.0
H671 H 0.84223 0.36346 0.45718 0.0
H672 H 0.46423 0.82594 0.95253 0.0
H673 H 0.45306 0.84039 0.97974 0.0
H674 H 0.47752 0.90651 0.9521 0.0
H675 H 0.48791 0.89174 0.92435 0.0
H676 H 0.4764 0.8758 0.00359 0.0
H677 H 0.41164 0.88909 0.96386 0.0
H678 H 0.42564 0.87437 0.95373 0.0
H679 H 0.44122 0.90553 0.95594 0.0
C680 C 0.46732 0.84358 0.95223 0.0
C681 C 0.4766 0.85759 0.9362 0.0
C682 C 0.461 0.85187 0.96783 0.0
C683 C 0.46409 0.87441 0.96784 0.0
C684 C 0.47441 0.88886 0.9522 0.0
H685 H 0.41422 0.89545 0.07737 0.0
H686 H 0.44086 0.90776 0.05045 0.0
C687 C 0.4804 0.88043 0.93641 0.0
C688 C 0.45533 0.88187 0.98399 0.0
H689 H 0.41216 0.89294 0.99648 0.0
C690 C 0.46261 0.87995 0.00209 0.0
C691 C 0.43744 0.88742 0.98191 0.0
C692 C 0.42835 0.88909 0.96286 0.0
C693 C 0.45116 0.88137 0.01817 0.0
C694 C 0.43242 0.88565 0.01604 0.0
C695 C 0.42654 0.88967 0.99802 0.0
C696 C 0.41597 0.88147 0.03161 0.0
C697 C 0.45796 0.87629 0.03709 0.0
C698 C 0.39281 0.86359 0.0296 0.0
C699 C 0.37753 0.85683 0.04473 0.0
C700 C 0.38513 0.86765 0.06233 0.0
C701 C 0.40795 0.88654 0.06407 0.0
C702 C 0.42323 0.89351 0.04874 0.0
H703 H 0.47038 0.86974 0.03584 0.0
H704 H 0.46641 0.89248 0.04557 0.0
H705 H 0.44237 0.86315 0.04484 0.0
H706 H 0.38677 0.85409 0.01649 0.0
H707 H 0.36002 0.8424 0.04278 0.0
H708 H 0.58442 0.4599 0.42025 0.0
H709 H 0.56153 0.44495 0.44906 0.0
H710 H 0.62351 0.48508 0.48222 0.0
H711 H 0.64654 0.49945 0.45352 0.0
H712 H 0.60345 0.4394 0.48885 0.0
H713 H 0.53645 0.46585 0.49247 0.0
H714 H 0.53716 0.45343 0.47023 0.0
H715 H 0.56185 0.48044 0.4776 0.0
C716 C 0.59299 0.46608 0.43369 0.0
C717 C 0.61725 0.48053 0.43473 0.0
C718 C 0.57987 0.45766 0.45015 0.0
C719 C 0.59082 0.46398 0.46778 0.0
C720 C 0.61475 0.48 0.46875 0.0
H721 H 0.53474 0.40902 0.57855 0.0
H722 H 0.54978 0.43459 0.55109 0.0
C723 C 0.62788 0.48812 0.45237 0.0
C724 C 0.57851 0.45082 0.4848 0.0
H725 H 0.53028 0.43369 0.51208 0.0
C726 C 0.58761 0.43843 0.49404 0.0
C727 C 0.55785 0.44953 0.49152 0.0
C728 C 0.54785 0.4632 0.48255 0.0
C729 C 0.57642 0.42443 0.5096 0.0
C730 C 0.55529 0.42238 0.51586 0.0
C731 C 0.54637 0.43516 0.507 0.0
C732 C 0.54245 0.40677 0.53158 0.0
C733 C 0.58725 0.41183 0.51918 0.0
C734 C 0.53274 0.38269 0.52944 0.0
C735 C 0.52437 0.36808 0.54504 0.0
C736 C 0.5255 0.37736 0.56303 0.0
C737 C 0.53382 0.40137 0.56491 0.0
C738 C 0.5423 0.41599 0.54926 0.0
H739 H 0.60583 0.4192 0.51526 0.0
H740 H 0.58603 0.41264 0.5347 0.0
H741 H 0.57774 0.39324 0.51495 0.0
H742 H 0.53262 0.37532 0.51582 0.0
H743 H 0.51772 0.34962 0.54308 0.0
H744 H 0.84687 0.48999 0.95278 0.0
H745 H 0.85541 0.47408 0.98061 0.0
H746 H 0.89517 0.45256 0.94663 0.0
H747 H 0.88724 0.46935 0.91869 0.0
H748 H 0.83828 0.4275 0.98118 0.0
H749 H 0.93331 0.47381 0.99555 0.0
H750 H 0.91969 0.48626 0.98134 0.0
H751 H 0.92506 0.46439 0.97167 0.0
C752 C 0.85816 0.48263 0.9514 0.0
C753 C 0.86644 0.48084 0.93371 0.0
C754 C 0.863 0.47353 0.96728 0.0
C755 C 0.8759 0.4621 0.96572 0.0
C756 C 0.88553 0.46165 0.94823 0.0
H757 H 0.84513 0.34811 0.04172 0.0
H758 H 0.85528 0.37256 0.01368 0.0
C759 C 0.88098 0.47119 0.93228 0.0
C760 C 0.87572 0.4476 0.98165 0.0
H761 H 0.90983 0.43926 0.01309 0.0
C762 C 0.85396 0.43013 0.98815 0.0
C763 C 0.89617 0.45105 0.99072 0.0
C764 C 0.91991 0.47001 0.98461 0.0
C765 C 0.85198 0.4162 0.00359 0.0
C766 C 0.87239 0.41933 0.01252 0.0
C767 C 0.89425 0.43676 0.00606 0.0
C768 C 0.8709 0.40505 0.02903 0.0
C769 C 0.82796 0.39865 0.0105 0.0
C770 C 0.87757 0.41532 0.04686 0.0
C771 C 0.872 0.40138 0.06295 0.0
C772 C 0.85952 0.37698 0.06139 0.0
C773 C 0.85441 0.36685 0.04339 0.0
C774 C 0.86021 0.38078 0.02736 0.0
H775 H 0.81444 0.40233 0.00502 0.0
H776 H 0.82358 0.38103 0.00564 0.0
H777 H 0.82721 0.39845 0.02609 0.0
H778 H 0.88587 0.43403 0.04842 0.0
H779 H 0.87625 0.4097 0.07661 0.0
H780 H 0.48933 0.90644 0.57541 0.0
H781 H 0.47506 0.91977 0.54914 0.0
H782 H 0.47894 0.86988 0.51268 0.0
H783 H 0.49388 0.85712 0.53844 0.0
H784 H 0.48975 0.91001 0.49406 0.0
H785 H 0.40758 0.87788 0.53494 0.0
H786 H 0.43362 0.90113 0.54511 0.0
H787 H 0.4305 0.87276 0.54261 0.0
C788 C 0.48761 0.89867 0.56169 0.0
C789 C 0.49222 0.88032 0.55914 0.0
C790 C 0.47935 0.90624 0.54672 0.0
C791 C 0.47534 0.89538 0.52909 0.0
C792 C 0.48175 0.87843 0.52619 0.0
H793 H 0.37423 0.83351 0.4512 0.0
H794 H 0.40113 0.85022 0.47731 0.0
C795 C 0.49019 0.87104 0.54101 0.0
C796 C 0.46201 0.8992 0.51417 0.0
H797 H 0.40635 0.88476 0.50304 0.0
C798 C 0.47166 0.9051 0.49605 0.0
C799 C 0.43838 0.89274 0.51686 0.0
C800 C 0.42676 0.88563 0.53587 0.0
C801 C 0.45784 0.90274 0.48033 0.0
C802 C 0.43389 0.8947 0.48293 0.0
C803 C 0.42475 0.89091 0.50119 0.0
C804 C 0.41725 0.88563 0.46706 0.0
C805 C 0.46846 0.9069 0.46097 0.0
C806 C 0.41725 0.90007 0.45264 0.0
C807 C 0.40182 0.89048 0.43746 0.0
C808 C 0.38622 0.86633 0.43657 0.0
C809 C 0.38606 0.85214 0.45131 0.0
C810 C 0.40139 0.86168 0.46633 0.0
H811 H 0.4869 0.91111 0.46134 0.0
H812 H 0.45841 0.89128 0.45202 0.0
H813 H 0.46776 0.92163 0.45425 0.0
H814 H 0.42918 0.91866 0.45309 0.0
H815 H 0.40227 0.90189 0.42639 0.0
H816 H 0.59256 0.48858 0.07273 0.0
H817 H 0.56584 0.47807 0.04605 0.0
H818 H 0.60849 0.45803 0.0144 0.0
H819 H 0.63561 0.46921 0.04066 0.0
H820 H 0.59194 0.48056 0.99261 0.0
H821 H 0.52031 0.41055 0.03477 0.0
H822 H 0.53242 0.43981 0.04331 0.0
H823 H 0.54986 0.42607 0.04319 0.0
C824 C 0.5963 0.48207 0.06002 0.0
C825 C 0.61598 0.47934 0.05889 0.0
C826 C 0.581 0.47605 0.04482 0.0
C827 C 0.58493 0.46684 0.02839 0.0
C828 C 0.6051 0.46509 0.02696 0.0
H829 H 0.52363 0.36348 0.95503 0.0
H830 H 0.53631 0.39095 0.9809 0.0
C831 C 0.62054 0.47138 0.04202 0.0
C832 C 0.5675 0.45731 0.01307 0.0
H833 H 0.51485 0.41018 0.00242 0.0
C834 C 0.57482 0.4655 0.99473 0.0
C835 C 0.54511 0.43778 0.01598 0.0
C836 C 0.53639 0.42786 0.03532 0.0
C837 C 0.56131 0.45337 0.97908 0.0
C838 C 0.53975 0.4328 0.98197 0.0
C839 C 0.53139 0.426 0.00034 0.0
C840 C 0.52876 0.41536 0.96684 0.0
C841 C 0.57118 0.46139 0.95964 0.0
C842 C 0.51962 0.41964 0.95048 0.0
C843 C 0.51237 0.40383 0.93546 0.0
C844 C 0.51435 0.38373 0.9367 0.0
C845 C 0.52225 0.379 0.95353 0.0
C846 C 0.52935 0.39462 0.9684 0.0
H847 H 0.58895 0.47686 0.95995 0.0
H848 H 0.57189 0.44717 0.95199 0.0
H849 H 0.55971 0.46598 0.95158 0.0
H850 H 0.51875 0.43544 0.94913 0.0
H851 H 0.50622 0.40782 0.92266 0.0
H852 H 0.11167 0.52087 0.42293 0.0
H853 H 0.09835 0.53302 0.45059 0.0
H854 H 0.15734 0.54057 0.48203 0.0
H855 H 0.17018 0.52772 0.45498 0.0
H856 H 0.11874 0.52246 0.50341 0.0
H857 H 0.13002 0.60078 0.46514 0.0
H858 H 0.10918 0.5729 0.45573 0.0
H859 H 0.13963 0.58197 0.45535 0.0
C860 C 0.12161 0.52486 0.43583 0.0
C861 C 0.14221 0.52372 0.43666 0.0
C862 C 0.11403 0.53189 0.45158 0.0
C863 C 0.12713 0.53818 0.46823 0.0
C864 C 0.14697 0.53586 0.46931 0.0
H865 H 0.17733 0.64141 0.54686 0.0
H866 H 0.16322 0.61548 0.51987 0.0
C867 C 0.15437 0.52861 0.45376 0.0
C868 C 0.12174 0.54892 0.48427 0.0
H869 H 0.12549 0.60005 0.49763 0.0
C870 C 0.11971 0.53922 0.50219 0.0
C871 C 0.12297 0.57075 0.48253 0.0
C872 C 0.12571 0.58237 0.46371 0.0
C873 C 0.12108 0.55168 0.51851 0.0
C874 C 0.12374 0.57414 0.51678 0.0
C875 C 0.12355 0.58287 0.49885 0.0
C876 C 0.13076 0.59034 0.53293 0.0
C877 C 0.12166 0.54152 0.53736 0.0
C878 C 0.11702 0.58503 0.54917 0.0
C879 C 0.12528 0.5997 0.56484 0.0
C880 C 0.14722 0.62008 0.56435 0.0
C881 C 0.16041 0.62581 0.54775 0.0
C882 C 0.15231 0.61104 0.53226 0.0
H883 H 0.12337 0.52576 0.53596 0.0
H884 H 0.13639 0.55452 0.54599 0.0
H885 H 0.10528 0.5365 0.54504 0.0
H886 H 0.1001 0.56943 0.54982 0.0
H887 H 0.11458 0.59503 0.57735 0.0
H888 H 0.63412 0.16154 0.95372 0.0
H889 H 0.60739 0.1478 0.98007 0.0
H890 H 0.56126 0.08528 0.9495 0.0
H891 H 0.5882 0.09931 0.92253 0.0
H892 H 0.53863 0.10671 0.96403 0.0
H893 H 0.59163 0.09924 0.02001 0.0
H894 H 0.60819 0.12679 0.00854 0.0
H895 H 0.59901 0.10031 0.99545 0.0
C896 C 0.61846 0.14469 0.95261 0.0
C897 C 0.61318 0.13157 0.93598 0.0
C898 C 0.60329 0.13671 0.96783 0.0
C899 C 0.5825 0.11532 0.96693 0.0
C900 C 0.57736 0.10174 0.95055 0.0
H901 H 0.51189 0.10583 0.07334 0.0
H902 H 0.52395 0.09084 0.04679 0.0
C903 C 0.59274 0.10972 0.93521 0.0
C904 C 0.56546 0.10896 0.98246 0.0
H905 H 0.56403 0.11155 0.03025 0.0
C906 C 0.54384 0.10705 0.97853 0.0
C907 C 0.57189 0.10877 0.00139 0.0
C908 C 0.59386 0.10862 0.00655 0.0
C909 C 0.52966 0.10743 0.99303 0.0
C910 C 0.53764 0.11042 0.01184 0.0
C911 C 0.55806 0.10981 0.01583 0.0
C912 C 0.52691 0.11712 0.02717 0.0
C913 C 0.50667 0.10542 0.98792 0.0
C914 C 0.52433 0.13675 0.02498 0.0
C915 C 0.51728 0.14523 0.04005 0.0
C916 C 0.5131 0.13456 0.0578 0.0
C917 C 0.51507 0.11453 0.05988 0.0
C918 C 0.52193 0.1059 0.0447 0.0
H919 H 0.49894 0.094 0.97546 0.0
H920 H 0.49407 0.09834 0.99972 0.0
H921 H 0.50951 0.12288 0.98416 0.0
H922 H 0.52877 0.14622 0.01183 0.0
H923 H 0.51605 0.16074 0.03793 0.0
H924 H 0.40856 0.5093 0.57768 0.0
H925 H 0.43621 0.52173 0.55127 0.0
H926 H 0.39585 0.54625 0.52172 0.0
H927 H 0.36831 0.53377 0.54757 0.0
H928 H 0.411 0.52193 0.49869 0.0
H929 H 0.4832 0.5911 0.54099 0.0
H930 H 0.46961 0.56158 0.54934 0.0
H931 H 0.45348 0.57665 0.54915 0.0
C932 C 0.40552 0.51715 0.56546 0.0
C933 C 0.38638 0.52081 0.56486 0.0
C934 C 0.42137 0.52433 0.55043 0.0
C935 C 0.41823 0.53517 0.53461 0.0
C936 C 0.39866 0.53795 0.53377 0.0
H937 H 0.48121 0.63967 0.45944 0.0
H938 H 0.46754 0.61272 0.48574 0.0
C939 C 0.38297 0.53091 0.54866 0.0
C940 C 0.43556 0.54499 0.51916 0.0
H941 H 0.48763 0.59293 0.50834 0.0
C942 C 0.42806 0.53708 0.50077 0.0
C943 C 0.45778 0.56477 0.52196 0.0
C944 C 0.46662 0.57422 0.54137 0.0
C945 C 0.44131 0.5495 0.48507 0.0
C946 C 0.46281 0.57021 0.48786 0.0
C947 C 0.47118 0.57701 0.50626 0.0
C948 C 0.47422 0.58732 0.47243 0.0
C949 C 0.43126 0.54149 0.46567 0.0
C950 C 0.48323 0.58237 0.45629 0.0
C951 C 0.49111 0.59792 0.44102 0.0
C952 C 0.48992 0.61849 0.44172 0.0
C953 C 0.48206 0.62383 0.45832 0.0
C954 C 0.47436 0.60848 0.47345 0.0
H955 H 0.4133 0.52634 0.46607 0.0
H956 H 0.43097 0.55586 0.4579 0.0
H957 H 0.44236 0.53638 0.45767 0.0
H958 H 0.48358 0.56627 0.4553 0.0
H959 H 0.49716 0.59339 0.42845 0.0
H960 H 0.24352 0.51816 0.08977 0.0
H961 H 0.28409 0.53604 0.09902 0.0
H962 H 0.26379 0.52007 0.15712 0.0
H963 H 0.22258 0.50199 0.1479 0.0
H964 H 0.29847 0.56722 0.15016 0.0
H965 H 0.32216 0.5066 0.11714 0.0
H966 H 0.30669 0.51486 0.10112 0.0
H967 H 0.29236 0.49866 0.12199 0.0
C968 C 0.24755 0.51814 0.10452 0.0
C969 C 0.22981 0.50864 0.11811 0.0
C970 C 0.2708 0.52824 0.10977 0.0
C971 C 0.27693 0.52908 0.12871 0.0
C972 C 0.25934 0.51937 0.1424 0.0
H973 H 0.42801 0.59264 0.1386 0.0
H974 H 0.38699 0.56665 0.14607 0.0
C975 C 0.23587 0.509 0.13711 0.0
C976 C 0.30188 0.54173 0.13387 0.0
H977 H 0.35349 0.54636 0.12105 0.0
C978 C 0.31053 0.56242 0.14422 0.0
C979 C 0.31755 0.53525 0.12639 0.0
C980 C 0.30918 0.51249 0.11621 0.0
C981 C 0.33458 0.57773 0.14598 0.0
C982 C 0.35024 0.57233 0.13685 0.0
C983 C 0.34153 0.55073 0.12782 0.0
C984 C 0.37541 0.58948 0.13491 0.0
C985 C 0.34291 0.59977 0.15721 0.0
C986 C 0.38261 0.61111 0.12634 0.0
C987 C 0.40607 0.62608 0.12213 0.0
C988 C 0.42274 0.61952 0.12612 0.0
C989 C 0.41559 0.59816 0.13522 0.0
C990 C 0.39215 0.58329 0.13955 0.0
H991 H 0.33038 0.59733 0.16856 0.0
H992 H 0.36022 0.60557 0.16361 0.0
H993 H 0.34427 0.61375 0.14781 0.0
H994 H 0.36998 0.61604 0.12214 0.0
H995 H 0.41095 0.64236 0.11508 0.0
H996 H 0.83275 0.4293 0.61845 0.0
H997 H 0.81277 0.38724 0.62348 0.0
H998 H 0.74649 0.38375 0.617 0.0
H999 H 0.76628 0.42574 0.61159 0.0
H1000 H 0.77888 0.35696 0.64925 0.0
H1001 H 0.74594 0.34032 0.57588 0.0
H1002 H 0.76821 0.36862 0.58381 0.0
H1003 H 0.73812 0.3585 0.58899 0.0
C1004 C 0.81391 0.41964 0.61823 0.0
C1005 C 0.8011 0.43081 0.61429 0.0
C1006 C 0.80254 0.39561 0.62116 0.0
C1007 C 0.77821 0.38238 0.62025 0.0
C1008 C 0.76533 0.39363 0.61735 0.0
H1009 H 0.67639 0.23701 0.61918 0.0
H1010 H 0.69742 0.2791 0.62339 0.0
C1011 C 0.77666 0.41762 0.6143 0.0
C1012 C 0.76637 0.3567 0.62126 0.0
H1013 H 0.73173 0.30764 0.596 0.0
C1014 C 0.7686 0.34612 0.63762 0.0
C1015 C 0.75324 0.34269 0.60595 0.0
C1016 C 0.75137 0.35307 0.58759 0.0
C1017 C 0.75744 0.32177 0.63924 0.0
C1018 C 0.74394 0.30785 0.62407 0.0
C1019 C 0.74197 0.31845 0.60767 0.0
C1020 C 0.73139 0.28215 0.62471 0.0
C1021 C 0.75974 0.31106 0.65722 0.0
C1022 C 0.74356 0.2699 0.6245 0.0
C1023 C 0.73157 0.24573 0.62204 0.0
C1024 C 0.70728 0.23358 0.61959 0.0
C1025 C 0.69513 0.24586 0.62081 0.0
C1026 C 0.70708 0.26991 0.62328 0.0
H1027 H 0.76721 0.32401 0.66878 0.0
H1028 H 0.74253 0.29656 0.66172 0.0
H1029 H 0.77135 0.30376 0.65479 0.0
H1030 H 0.76237 0.27914 0.62533 0.0
H1031 H 0.74141 0.23677 0.62116 0.0
H1032 H 0.50882 0.74144 0.14624 0.0
H1033 H 0.49371 0.76683 0.15656 0.0
H1034 H 0.43451 0.72994 0.11996 0.0
H1035 H 0.44933 0.7049 0.10957 0.0
H1036 H 0.48192 0.79509 0.13057 0.0
H1037 H 0.40685 0.73136 0.17264 0.0
H1038 H 0.43204 0.72835 0.16812 0.0
H1039 H 0.4096 0.71969 0.15064 0.0
C1040 C 0.49251 0.7387 0.14052 0.0
C1041 C 0.48032 0.72124 0.12702 0.0
C1042 C 0.48394 0.75319 0.14642 0.0
C1043 C 0.46286 0.75001 0.13919 0.0
C1044 C 0.45063 0.73244 0.12592 0.0
H1045 H 0.37255 0.78975 0.10762 0.0
H1046 H 0.39709 0.77437 0.11802 0.0
C1047 C 0.45925 0.71825 0.11989 0.0
C1048 C 0.45374 0.76556 0.14432 0.0
H1049 H 0.40294 0.76227 0.158 0.0
C1050 C 0.46504 0.78833 0.13721 0.0
C1051 C 0.43178 0.75667 0.15304 0.0
C1052 C 0.41944 0.73273 0.16172 0.0
C1053 C 0.4538 0.80153 0.13683 0.0
C1054 C 0.43087 0.79164 0.14385 0.0
C1055 C 0.42053 0.76978 0.15259 0.0
C1056 C 0.41576 0.80127 0.1387 0.0
C1057 C 0.46556 0.82501 0.12738 0.0
C1058 C 0.41801 0.82146 0.14707 0.0
C1059 C 0.40383 0.83039 0.14114 0.0
C1060 C 0.38744 0.81932 0.12667 0.0
C1061 C 0.38513 0.7989 0.11864 0.0
C1062 C 0.39908 0.78998 0.12463 0.0
H1063 H 0.48353 0.83034 0.12276 0.0
H1064 H 0.45528 0.82462 0.11492 0.0
H1065 H 0.4663 0.83836 0.1372 0.0
H1066 H 0.43076 0.83032 0.15803 0.0
H1067 H 0.40596 0.84611 0.14762 0.0
H1068 H 0.77237 0.50236 0.64648 0.0
H1069 H 0.73164 0.48433 0.65691 0.0
H1070 H 0.70858 0.46299 0.59997 0.0
H1071 H 0.74878 0.48089 0.58948 0.0
H1072 H 0.68399 0.48183 0.61987 0.0
H1073 H 0.68933 0.41205 0.65934 0.0
H1074 H 0.71011 0.44191 0.6647 0.0
H1075 H 0.71108 0.43006 0.64229 0.0
C1076 C 0.75859 0.49411 0.63617 0.0
C1077 C 0.76383 0.49293 0.61717 0.0
C1078 C 0.73536 0.48372 0.64217 0.0
C1079 C 0.71712 0.47214 0.62922 0.0
C1080 C 0.72239 0.47182 0.61019 0.0
H1081 H 0.58651 0.36086 0.6131 0.0
H1082 H 0.6269 0.38906 0.62016 0.0
C1083 C 0.74543 0.48202 0.60423 0.0
C1084 C 0.69241 0.45907 0.63519 0.0
H1085 H 0.65224 0.40699 0.65417 0.0
C1086 C 0.67701 0.46576 0.62781 0.0
C1087 C 0.68344 0.43806 0.64544 0.0
C1088 C 0.69922 0.42988 0.65338 0.0
C1089 C 0.6528 0.45127 0.62934 0.0
C1090 C 0.6438 0.42963 0.63869 0.0
C1091 C 0.65922 0.42366 0.64713 0.0
C1092 C 0.61896 0.41142 0.63689 0.0
C1093 C 0.63705 0.45837 0.6197 0.0
C1094 C 0.60095 0.41424 0.64445 0.0
C1095 C 0.57763 0.398 0.64041 0.0
C1096 C 0.57209 0.37885 0.62867 0.0
C1097 C 0.59018 0.37555 0.62201 0.0
C1098 C 0.61331 0.39161 0.62611 0.0
H1099 H 0.64693 0.47452 0.61127 0.0
H1100 H 0.62465 0.44425 0.61027 0.0
H1101 H 0.62676 0.46147 0.63041 0.0
H1102 H 0.60496 0.42928 0.65301 0.0
H1103 H 0.56408 0.40098 0.6458 0.0
H1104 H 0.22419 0.57542 0.11028 0.0
H1105 H 0.2426 0.61709 0.11654 0.0
H1106 H 0.17565 0.60957 0.12923 0.0
H1107 H 0.157 0.56775 0.12317 0.0
H1108 H 0.23164 0.64672 0.09603 0.0
H1109 H 0.21757 0.65049 0.17275 0.0
H1110 H 0.21547 0.62506 0.16156 0.0
H1111 H 0.19225 0.63135 0.15918 0.0
C1112 C 0.21336 0.58252 0.11461 0.0
C1113 C 0.18909 0.56826 0.11608 0.0
C1114 C 0.22393 0.60634 0.11822 0.0
C1115 C 0.21049 0.61634 0.12348 0.0
C1116 C 0.18636 0.60211 0.12549 0.0
H1117 H 0.25364 0.76434 0.12133 0.0
H1118 H 0.22947 0.72197 0.12494 0.0
C1119 C 0.17573 0.57824 0.12189 0.0
C1120 C 0.22161 0.64191 0.12519 0.0
H1121 H 0.23476 0.68625 0.1561 0.0
C1122 C 0.23226 0.65534 0.10915 0.0
C1123 C 0.22223 0.65304 0.14232 0.0
C1124 C 0.21144 0.63933 0.16001 0.0
C1125 C 0.24378 0.67967 0.10981 0.0
C1126 C 0.24479 0.69081 0.12697 0.0
C1127 C 0.2338 0.67749 0.14298 0.0
C1128 C 0.25865 0.71636 0.12848 0.0
C1129 C 0.25518 0.69343 0.09224 0.0
C1130 C 0.28289 0.72705 0.12989 0.0
C1131 C 0.29668 0.75106 0.12774 0.0
C1132 C 0.28643 0.7648 0.12415 0.0
C1133 C 0.26203 0.75421 0.12407 0.0
C1134 C 0.2482 0.73006 0.12614 0.0
H1135 H 0.2504 0.68218 0.07956 0.0
H1136 H 0.25018 0.70691 0.08997 0.0
H1137 H 0.27438 0.7025 0.09391 0.0
H1138 H 0.29118 0.71665 0.13168 0.0
H1139 H 0.31542 0.75873 0.12809 0.0
H1140 H 0.60077 0.17886 0.59145 0.0
H1141 H 0.57819 0.19694 0.60075 0.0
H1142 H 0.58787 0.18657 0.65914 0.0
H1143 H 0.61052 0.16796 0.64988 0.0
H1144 H 0.54058 0.17892 0.64775 0.0
H1145 H 0.61522 0.26327 0.62527 0.0
H1146 H 0.60639 0.24085 0.60783 0.0
H1147 H 0.61787 0.23794 0.62993 0.0
C1148 C 0.59789 0.18011 0.60629 0.0
C1149 C 0.60769 0.1723 0.61996 0.0
C1150 C 0.58494 0.19041 0.61156 0.0
C1151 C 0.58173 0.1934 0.6306 0.0
C1152 C 0.59027 0.18444 0.64437 0.0
H1153 H 0.54622 0.30173 0.64438 0.0
H1154 H 0.56208 0.27666 0.65265 0.0
C1155 C 0.60316 0.17385 0.63907 0.0
C1156 C 0.57119 0.2077 0.63568 0.0
H1157 H 0.57853 0.26157 0.62788 0.0
C1158 C 0.54895 0.19712 0.64378 0.0
C1159 C 0.5824 0.23153 0.63085 0.0
C1160 C 0.60689 0.24416 0.62316 0.0
C1161 C 0.53703 0.20952 0.6461 0.0
C1162 C 0.54749 0.23284 0.63972 0.0
C1163 C 0.57032 0.24367 0.63269 0.0
C1164 C 0.53488 0.24608 0.63873 0.0
C1165 C 0.51334 0.19741 0.6552 0.0
C1166 C 0.51377 0.23705 0.62881 0.0
C1167 C 0.50439 0.25126 0.62449 0.0
C1168 C 0.51634 0.27487 0.62954 0.0
C1169 C 0.53677 0.28358 0.64026 0.0
C1170 C 0.54581 0.26926 0.64498 0.0
H1171 H 0.5119 0.18414 0.66546 0.0
H1172 H 0.50957 0.20992 0.66254 0.0
H1173 H 0.4999 0.18825 0.64423 0.0
H1174 H 0.5053 0.21948 0.62334 0.0
H1175 H 0.48874 0.24423 0.61603 0.0
H1176 H 0.36239 0.58443 0.90163 0.0
H1177 H 0.38546 0.62471 0.89123 0.0
H1178 H 0.41629 0.60366 0.84758 0.0
H1179 H 0.39419 0.5634 0.85877 0.0
H1180 H 0.44835 0.64012 0.86272 0.0
H1181 H 0.37745 0.65812 0.84893 0.0
H1182 H 0.37464 0.64802 0.87262 0.0
H1183 H 0.37186 0.62901 0.85339 0.0
C1184 C 0.37392 0.58839 0.8897 0.0
C1185 C 0.37653 0.57089 0.88097 0.0
C1186 C 0.38694 0.61139 0.88363 0.0
C1187 C 0.40217 0.61721 0.86826 0.0
C1188 C 0.40456 0.59961 0.85937 0.0
H1189 H 0.46166 0.76534 0.84614 0.0
H1190 H 0.44362 0.72396 0.83815 0.0
C1191 C 0.39196 0.57666 0.86576 0.0
C1192 C 0.41676 0.64189 0.86251 0.0
H1193 H 0.41475 0.69186 0.85752 0.0
C1194 C 0.44095 0.65136 0.86114 0.0
C1195 C 0.40722 0.65655 0.85969 0.0
C1196 C 0.38134 0.64726 0.8585 0.0
C1197 C 0.45592 0.67532 0.85857 0.0
C1198 C 0.44651 0.69033 0.85829 0.0
C1199 C 0.42221 0.68059 0.85813 0.0
C1200 C 0.46119 0.716 0.86015 0.0
C1201 C 0.48161 0.68415 0.85636 0.0
C1202 C 0.47776 0.72558 0.87466 0.0
C1203 C 0.48868 0.74932 0.87869 0.0
C1204 C 0.48259 0.76368 0.86872 0.0
C1205 C 0.46668 0.75446 0.85385 0.0
C1206 C 0.45633 0.73085 0.84939 0.0
H1207 H 0.48456 0.67132 0.8486 0.0
H1208 H 0.49056 0.701 0.84875 0.0
H1209 H 0.48963 0.68639 0.87046 0.0
H1210 H 0.48123 0.71455 0.8837 0.0
H1211 H 0.50055 0.75609 0.89051 0.0
H1212 H 0.69068 0.45242 0.35067 0.0
H1213 H 0.71252 0.43198 0.34608 0.0
H1214 H 0.76167 0.47533 0.38855 0.0
H1215 H 0.74091 0.49691 0.39192 0.0
H1216 H 0.7835 0.46584 0.36391 0.0
H1217 H 0.70373 0.38298 0.38176 0.0
H1218 H 0.70067 0.39567 0.36051 0.0
H1219 H 0.70472 0.41055 0.38259 0.0
C1220 C 0.70655 0.4579 0.35857 0.0
C1221 C 0.71425 0.47613 0.37161 0.0
C1222 C 0.71881 0.44604 0.35617 0.0
C1223 C 0.73825 0.45149 0.36749 0.0
C1224 C 0.74665 0.47065 0.37974 0.0
H1225 H 0.7813 0.35736 0.40751 0.0
H1226 H 0.76272 0.38031 0.40046 0.0
C1227 C 0.73485 0.48303 0.38165 0.0
C1228 C 0.74903 0.43653 0.36761 0.0
H1229 H 0.73703 0.38066 0.37435 0.0
C1230 C 0.77334 0.4472 0.36619 0.0
C1231 C 0.7358 0.41222 0.37087 0.0
C1232 C 0.70984 0.39972 0.37422 0.0
C1233 C 0.78485 0.43447 0.36852 0.0
C1234 C 0.77156 0.41008 0.37132 0.0
C1235 C 0.74722 0.39931 0.37209 0.0
C1236 C 0.78246 0.3956 0.37497 0.0
C1237 C 0.81112 0.4476 0.36897 0.0
C1238 C 0.79942 0.39612 0.36284 0.0
C1239 C 0.81056 0.38356 0.36722 0.0
C1240 C 0.80422 0.36955 0.38337 0.0
C1241 C 0.78641 0.36801 0.39494 0.0
C1242 C 0.77581 0.38112 0.3909 0.0
H1243 H 0.81818 0.46632 0.37225 0.0
H1244 H 0.81787 0.44021 0.37959 0.0
H1245 H 0.81785 0.44654 0.35495 0.0
H1246 H 0.80424 0.4064 0.3501 0.0
H1247 H 0.82406 0.38472 0.35795 0.0
H1248 H 0.25235 0.72884 0.90753 0.0
H1249 H 0.29242 0.75378 0.8975 0.0
H1250 H 0.26927 0.75321 0.84077 0.0
H1251 H 0.22866 0.72801 0.85078 0.0
H1252 H 0.30571 0.74209 0.84441 0.0
H1253 H 0.3275 0.82314 0.88242 0.0
H1254 H 0.31322 0.79796 0.89727 0.0
H1255 H 0.29787 0.80083 0.87753 0.0
C1256 C 0.25565 0.73415 0.89294 0.0
C1257 C 0.23727 0.72642 0.87996 0.0
C1258 C 0.27861 0.7486 0.88726 0.0
C1259 C 0.28382 0.75566 0.86846 0.0
C1260 C 0.26557 0.74815 0.8554 0.0
H1261 H 0.4359 0.84546 0.85602 0.0
H1262 H 0.39484 0.83147 0.84816 0.0
C1263 C 0.24242 0.73381 0.86114 0.0
C1264 C 0.30854 0.76934 0.86259 0.0
H1265 H 0.35979 0.81697 0.87548 0.0
C1266 C 0.3175 0.75878 0.85077 0.0
C1267 C 0.32389 0.79128 0.87064 0.0
C1268 C 0.3151 0.80409 0.88252 0.0
C1269 C 0.3416 0.76859 0.8482 0.0
C1270 C 0.35705 0.78931 0.85783 0.0
C1271 C 0.34798 0.80095 0.86822 0.0
C1272 C 0.38216 0.79709 0.85986 0.0
C1273 C 0.35034 0.75611 0.83586 0.0
C1274 C 0.38862 0.78239 0.86888 0.0
C1275 C 0.4118 0.79034 0.8735 0.0
C1276 C 0.42914 0.81322 0.8692 0.0
C1277 C 0.42291 0.8277 0.8594 0.0
C1278 C 0.3995 0.81976 0.85495 0.0
H1279 H 0.33755 0.74602 0.82467 0.0
H1280 H 0.36722 0.76849 0.82921 0.0
H1281 H 0.35286 0.74364 0.84454 0.0
H1282 H 0.37554 0.76502 0.87317 0.0
H1283 H 0.41606 0.77874 0.88099 0.0
H1284 H 0.60813 0.4364 0.3425 0.0
H1285 H 0.58126 0.39576 0.33318 0.0
H1286 H 0.58129 0.37345 0.39009 0.0
H1287 H 0.60795 0.41341 0.39939 0.0
H1288 H 0.59069 0.35685 0.33854 0.0
H1289 H 0.51096 0.34217 0.37521 0.0
H1290 H 0.53415 0.37085 0.36876 0.0
H1291 H 0.53655 0.35684 0.3896 0.0
C1292 C 0.6022 0.4228 0.35301 0.0
C1293 C 0.61022 0.42813 0.37166 0.0
C1294 C 0.58689 0.39966 0.34768 0.0
C1295 C 0.57904 0.38169 0.36103 0.0
C1296 C 0.58681 0.38709 0.37964 0.0
H1297 H 0.55022 0.25077 0.38333 0.0
H1298 H 0.56463 0.29065 0.37311 0.0
C1299 C 0.60224 0.40998 0.38489 0.0
C1300 C 0.56405 0.35692 0.35577 0.0
H1301 H 0.51491 0.30812 0.37039 0.0
C1302 C 0.57377 0.34622 0.34498 0.0
C1303 C 0.54187 0.3431 0.36397 0.0
C1304 C 0.53014 0.35384 0.37489 0.0
C1305 C 0.56289 0.32186 0.34379 0.0
C1306 C 0.54194 0.308 0.35373 0.0
C1307 C 0.53107 0.31875 0.36289 0.0
C1308 C 0.53349 0.2831 0.35774 0.0
C1309 C 0.57461 0.31114 0.33282 0.0
C1310 C 0.51106 0.26551 0.35256 0.0
C1311 C 0.50273 0.24243 0.35836 0.0
C1312 C 0.51654 0.23688 0.36982 0.0
C1313 C 0.53908 0.25452 0.37464 0.0
C1314 C 0.54746 0.27732 0.36864 0.0
H1315 H 0.58548 0.32282 0.32129 0.0
H1316 H 0.5862 0.30832 0.34236 0.0
H1317 H 0.56164 0.29409 0.32676 0.0
H1318 H 0.49992 0.26971 0.34432 0.0
H1319 H 0.48526 0.22917 0.35449 0.0
H1320 H 0.22883 0.64577 0.89294 0.0
H1321 H 0.24429 0.62032 0.88488 0.0
H1322 H 0.18033 0.57378 0.85617 0.0
H1323 H 0.16452 0.59881 0.86462 0.0
H1324 H 0.19129 0.55065 0.88 0.0
H1325 H 0.26958 0.60718 0.83819 0.0
H1326 H 0.27009 0.62086 0.86003 0.0
H1327 H 0.24755 0.61484 0.8431 0.0
C1328 C 0.2182 0.63032 0.88465 0.0
C1329 C 0.19537 0.62422 0.87957 0.0
C1330 C 0.22714 0.61587 0.87989 0.0
C1331 C 0.21361 0.59528 0.86966 0.0
C1332 C 0.19113 0.58962 0.86399 0.0
H1333 H 0.28029 0.5096 0.85197 0.0
H1334 H 0.25762 0.52848 0.84351 0.0
C1335 C 0.1821 0.60392 0.86889 0.0
C1336 C 0.22189 0.57843 0.86685 0.0
H1337 H 0.26951 0.57466 0.85417 0.0
C1338 C 0.20818 0.55578 0.87394 0.0
C1339 C 0.2437 0.58484 0.85861 0.0
C1340 C 0.25843 0.60819 0.84936 0.0
C1341 C 0.21644 0.54005 0.87434 0.0
C1342 C 0.23917 0.54729 0.86782 0.0
C1343 C 0.25217 0.56923 0.85936 0.0
C1344 C 0.25093 0.53391 0.87231 0.0
C1345 C 0.20111 0.51611 0.88246 0.0
C1346 C 0.25455 0.53071 0.89121 0.0
C1347 C 0.26742 0.52017 0.89601 0.0
C1348 C 0.27705 0.51257 0.88202 0.0
C1349 C 0.27288 0.51511 0.86303 0.0
C1350 C 0.26007 0.52595 0.85819 0.0
H1351 H 0.1824 0.51051 0.88068 0.0
H1352 H 0.20458 0.50303 0.87575 0.0
H1353 H 0.20459 0.51647 0.89774 0.0
H1354 H 0.24805 0.5371 0.90232 0.0
H1355 H 0.27028 0.51846 0.91078 0.0
H1356 H 0.58069 0.2299 0.3681 0.0
H1357 H 0.62225 0.24749 0.36123 0.0
H1358 H 0.6181 0.1813 0.37093 0.0
H1359 H 0.57654 0.16349 0.37692 0.0
H1360 H 0.65343 0.25287 0.38487 0.0
H1361 H 0.65981 0.20163 0.32666 0.0
H1362 H 0.6326 0.19976 0.33304 0.0
H1363 H 0.64256 0.18248 0.34518 0.0
C1364 C 0.58858 0.21902 0.36836 0.0
C1365 C 0.57537 0.19533 0.37311 0.0
C1366 C 0.61232 0.22906 0.36439 0.0
C1367 C 0.62334 0.21569 0.36527 0.0
C1368 C 0.60997 0.19188 0.36952 0.0
H1369 H 0.75683 0.25999 0.40949 0.0
H1370 H 0.71578 0.24201 0.40109 0.0
C1371 C 0.58619 0.18175 0.37316 0.0
C1372 C 0.64912 0.22709 0.36434 0.0
H1373 H 0.69372 0.22057 0.34731 0.0
C1374 C 0.66219 0.24604 0.37633 0.0
C1375 C 0.6608 0.21854 0.35302 0.0
C1376 C 0.64817 0.19966 0.33861 0.0
C1377 C 0.68629 0.25574 0.37815 0.0
C1378 C 0.69759 0.24575 0.36818 0.0
C1379 C 0.6849 0.22781 0.35528 0.0
C1380 C 0.72222 0.25303 0.37202 0.0
C1381 C 0.69937 0.27638 0.39103 0.0
C1382 C 0.73938 0.26376 0.35811 0.0
C1383 C 0.76298 0.27372 0.36282 0.0
C1384 C 0.76954 0.27314 0.38151 0.0
C1385 C 0.75223 0.26089 0.39502 0.0
C1386 C 0.7288 0.25073 0.39027 0.0
H1387 H 0.69001 0.28623 0.39279 0.0
H1388 H 0.70101 0.27016 0.40511 0.0
H1389 H 0.71711 0.28842 0.3856 0.0
H1390 H 0.7346 0.26553 0.3439 0.0
H1391 H 0.77604 0.28319 0.35219 0.0
H1392 H 0.57068 0.40909 0.87929 0.0
H1393 H 0.61205 0.43179 0.8719 0.0
H1394 H 0.61588 0.3688 0.87001 0.0
H1395 H 0.57459 0.34602 0.87811 0.0
H1396 H 0.64859 0.39924 0.89126 0.0
H1397 H 0.65024 0.44423 0.82552 0.0
H1398 H 0.63434 0.44932 0.84344 0.0
H1399 H 0.62377 0.42021 0.83477 0.0
C1400 C 0.58024 0.40001 0.87705 0.0
C1401 C 0.56938 0.37576 0.87942 0.0
C1402 C 0.60389 0.41302 0.87261 0.0
C1403 C 0.61707 0.40202 0.87004 0.0
C1404 C 0.60607 0.37769 0.87183 0.0
H1405 H 0.76789 0.4754 0.8469 0.0
H1406 H 0.72552 0.453 0.84161 0.0
C1407 C 0.58248 0.3647 0.87652 0.0
C1408 C 0.64274 0.41606 0.86767 0.0
H1409 H 0.68611 0.4618 0.84353 0.0
C1410 C 0.65672 0.41263 0.8806 0.0
C1411 C 0.65351 0.4334 0.85363 0.0
C1412 C 0.63965 0.43683 0.83844 0.0
C1413 C 0.68098 0.42667 0.88044 0.0
C1414 C 0.6916 0.44513 0.86734 0.0
C1415 C 0.67785 0.44792 0.85378 0.0
C1416 C 0.71683 0.46214 0.8684 0.0
C1417 C 0.69504 0.4218 0.89453 0.0
C1418 C 0.72583 0.4756 0.8847 0.0
C1419 C 0.74975 0.48808 0.88776 0.0
C1420 C 0.76512 0.48774 0.8744 0.0
C1421 C 0.75631 0.47608 0.85728 0.0
C1422 C 0.73218 0.46323 0.85431 0.0
H1423 H 0.68529 0.40358 0.89972 0.0
H1424 H 0.71172 0.42495 0.88833 0.0
H1425 H 0.69905 0.43353 0.9068 0.0
H1426 H 0.71426 0.47528 0.89559 0.0
H1427 H 0.75621 0.49698 0.90107 0.0
H1428 H 0.27405 0.77384 0.34888 0.0
H1429 H 0.24802 0.73339 0.33882 0.0
H1430 H 0.2443 0.71019 0.39599 0.0
H1431 H 0.27007 0.75008 0.40605 0.0
H1432 H 0.25791 0.69635 0.34375 0.0
H1433 H 0.17571 0.67612 0.37896 0.0
H1434 H 0.19854 0.70559 0.37421 0.0
H1435 H 0.20018 0.69029 0.39452 0.0
C1436 C 0.26735 0.76011 0.3593 0.0
C1437 C 0.27415 0.76515 0.37825 0.0
C1438 C 0.25253 0.73706 0.35355 0.0
C1439 C 0.24394 0.71886 0.36672 0.0
C1440 C 0.25032 0.724 0.38565 0.0
H1441 H 0.22068 0.58825 0.38416 0.0
H1442 H 0.23397 0.6284 0.37533 0.0
C1443 C 0.26525 0.74683 0.39135 0.0
C1444 C 0.23012 0.69415 0.36088 0.0
H1445 H 0.18194 0.64338 0.37377 0.0
C1446 C 0.24097 0.68481 0.34982 0.0
C1447 C 0.20787 0.67912 0.36855 0.0
C1448 C 0.19478 0.68833 0.37956 0.0
C1449 C 0.23117 0.66064 0.34782 0.0
C1450 C 0.21016 0.64555 0.35725 0.0
C1451 C 0.19818 0.65495 0.3667 0.0
C1452 C 0.20257 0.62065 0.36028 0.0
C1453 C 0.24402 0.65144 0.33647 0.0
C1454 C 0.18038 0.60285 0.35479 0.0
C1455 C 0.17269 0.57965 0.35981 0.0
C1456 C 0.18691 0.57413 0.37077 0.0
C1457 C 0.20926 0.59197 0.37582 0.0
C1458 C 0.21699 0.61493 0.37062 0.0
H1459 H 0.25463 0.66389 0.32525 0.0
H1460 H 0.25603 0.64904 0.34585 0.0
H1461 H 0.23182 0.6344 0.32995 0.0
H1462 H 0.16889 0.60698 0.34699 0.0
H1463 H 0.15535 0.56625 0.35581 0.0
H1464 H 0.51983 0.27126 0.90827 0.0
H1465 H 0.53867 0.24932 0.89956 0.0
H1466 H 0.52363 0.25324 0.84113 0.0
H1467 H 0.50465 0.27574 0.84981 0.0
H1468 H 0.52118 0.20681 0.87936 0.0
H1469 H 0.59594 0.28204 0.844 0.0
H1470 H 0.57649 0.28588 0.85938 0.0
H1471 H 0.56687 0.27358 0.83644 0.0
C1472 C 0.52032 0.26739 0.89355 0.0
C1473 C 0.5109 0.2754 0.8797 0.0
C1474 C 0.53105 0.25475 0.8886 0.0
C1475 C 0.53274 0.24989 0.86971 0.0
C1476 C 0.52267 0.25708 0.85579 0.0
H1477 H 0.59738 0.16252 0.8602 0.0
H1478 H 0.57212 0.17818 0.85195 0.0
C1479 C 0.51172 0.26973 0.86076 0.0
C1480 C 0.546 0.23807 0.86514 0.0
H1481 H 0.5997 0.24945 0.8506 0.0
C1482 C 0.53813 0.21583 0.87266 0.0
C1483 C 0.56818 0.25012 0.8566 0.0
C1484 C 0.57757 0.27427 0.84867 0.0
C1485 C 0.55243 0.20587 0.87298 0.0
C1486 C 0.57502 0.21831 0.86509 0.0
C1487 C 0.58237 0.23998 0.85658 0.0
C1488 C 0.59202 0.21024 0.86748 0.0
C1489 C 0.54382 0.18291 0.88296 0.0
C1490 C 0.6123 0.22364 0.87808 0.0
C1491 C 0.62696 0.21488 0.88261 0.0
C1492 C 0.62145 0.19248 0.87674 0.0
C1493 C 0.60183 0.17966 0.86524 0.0
C1494 C 0.58736 0.18855 0.86053 0.0
H1495 H 0.52803 0.17805 0.89152 0.0
H1496 H 0.53932 0.16898 0.87242 0.0
H1497 H 0.55749 0.18352 0.89234 0.0
H1498 H 0.61627 0.24048 0.88352 0.0
H1499 H 0.64201 0.22524 0.89139 0.0
H1500 H 0.24097 0.49588 0.36563 0.0
H1501 H 0.28263 0.51284 0.35923 0.0
H1502 H 0.29263 0.58161 0.36779 0.0
H1503 H 0.25124 0.56506 0.37356 0.0
H1504 H 0.32061 0.58068 0.33968 0.0
H1505 H 0.32583 0.53624 0.40445 0.0
H1506 H 0.30716 0.51757 0.38618 0.0
H1507 H 0.2999 0.53695 0.39815 0.0
C1508 C 0.25199 0.51463 0.36579 0.0
C1509 C 0.24289 0.52909 0.37055 0.0
C1510 C 0.27577 0.52427 0.36221 0.0
C1511 C 0.29073 0.54842 0.36352 0.0
C1512 C 0.28139 0.56292 0.36684 0.0
H1513 H 0.42852 0.65366 0.38665 0.0
H1514 H 0.38793 0.63031 0.37668 0.0
C1515 C 0.2577 0.55337 0.37027 0.0
C1516 C 0.31629 0.55875 0.36346 0.0
H1517 H 0.36088 0.56267 0.39006 0.0
C1518 C 0.32946 0.57652 0.35051 0.0
C1519 C 0.32774 0.55335 0.3777 0.0
C1520 C 0.31452 0.53513 0.39252 0.0
C1521 C 0.3538 0.58957 0.35181 0.0
C1522 C 0.36508 0.58474 0.36648 0.0
C1523 C 0.35205 0.56626 0.37884 0.0
C1524 C 0.39017 0.59961 0.37028 0.0
C1525 C 0.36721 0.60869 0.33774 0.0
C1526 C 0.40473 0.58997 0.37006 0.0
C1527 C 0.42782 0.60316 0.37586 0.0
C1528 C 0.4367 0.62617 0.38219 0.0
C1529 C 0.42219 0.63597 0.38195 0.0
C1530 C 0.39908 0.62274 0.37608 0.0
H1531 H 0.35704 0.60607 0.32466 0.0
H1532 H 0.37114 0.62561 0.34396 0.0
H1533 H 0.38395 0.6097 0.33409 0.0
H1534 H 0.39807 0.57207 0.36577 0.0
H1535 H 0.43854 0.5951 0.37575 0.0
H1536 H 0.83707 0.43257 0.85948 0.0
H1537 H 0.82099 0.39164 0.8512 0.0
H1538 H 0.75689 0.37493 0.87931 0.0
H1539 H 0.77262 0.41591 0.88722 0.0
H1540 H 0.8095 0.35773 0.87546 0.0
H1541 H 0.73195 0.33616 0.83266 0.0
H1542 H 0.75414 0.36583 0.83747 0.0
H1543 H 0.73133 0.34968 0.85429 0.0
C1544 C 0.8194 0.42024 0.86365 0.0
C1545 C 0.80618 0.42748 0.87415 0.0
C1546 C 0.81022 0.39685 0.85885 0.0
C1547 C 0.78764 0.38021 0.86442 0.0
C1548 C 0.77413 0.3875 0.87441 0.0
H1549 H 0.72891 0.2473 0.90678 0.0
H1550 H 0.75174 0.28805 0.89798 0.0
C1551 C 0.78323 0.41094 0.87908 0.0
C1552 C 0.77922 0.35504 0.86181 0.0
H1553 H 0.73147 0.30372 0.84916 0.0
C1554 C 0.79266 0.34601 0.86929 0.0
C1555 C 0.75748 0.33969 0.85344 0.0
C1556 C 0.74304 0.3484 0.84383 0.0
C1557 C 0.78417 0.32198 0.86996 0.0
C1558 C 0.76149 0.30657 0.8633 0.0
C1559 C 0.74878 0.31558 0.85445 0.0
C1560 C 0.74944 0.2815 0.86805 0.0
C1561 C 0.79918 0.31325 0.87852 0.0
C1562 C 0.74046 0.26421 0.85408 0.0
C1563 C 0.72732 0.24064 0.85911 0.0
C1564 C 0.72266 0.23424 0.87814 0.0
C1565 C 0.73213 0.25165 0.89199 0.0
C1566 C 0.74535 0.27498 0.887 0.0
H1567 H 0.81796 0.32622 0.87692 0.0
H1568 H 0.79539 0.31028 0.89379 0.0
H1569 H 0.79568 0.2966 0.87201 0.0
H1570 H 0.74328 0.26897 0.83936 0.0
H1571 H 0.72005 0.22757 0.84817 0.0
H1572 H 0.34795 0.76907 0.37973 0.0
H1573 H 0.37181 0.75097 0.37437 0.0
H1574 H 0.43361 0.81873 0.37352 0.0
H1575 H 0.40992 0.83697 0.37822 0.0
H1576 H 0.43623 0.78974 0.34775 0.0
H1577 H 0.40889 0.74606 0.41724 0.0
H1578 H 0.38531 0.73847 0.40119 0.0
H1579 H 0.40199 0.76784 0.40974 0.0
C1580 C 0.3666 0.78012 0.3782 0.0
C1581 C 0.37705 0.80445 0.3797 0.0
C1582 C 0.38022 0.76975 0.3752 0.0
C1583 C 0.40456 0.78347 0.37399 0.0
C1584 C 0.41488 0.80778 0.3745 0.0
H1585 H 0.50272 0.74401 0.40891 0.0
H1586 H 0.48025 0.76327 0.40271 0.0
C1587 C 0.40128 0.81818 0.37726 0.0
C1588 C 0.4195 0.77268 0.3736 0.0
H1589 H 0.43408 0.73847 0.39934 0.0
C1590 C 0.43574 0.77844 0.35898 0.0
C1591 C 0.41903 0.75819 0.3884 0.0
C1592 C 0.40305 0.75242 0.40512 0.0
C1593 C 0.45171 0.77035 0.35889 0.0
C1594 C 0.45111 0.75579 0.37366 0.0
C1595 C 0.43454 0.74966 0.38802 0.0
C1596 C 0.46813 0.74754 0.37534 0.0
C1597 C 0.46956 0.7781 0.3434 0.0
C1598 C 0.46966 0.73306 0.36165 0.0
C1599 C 0.48302 0.72241 0.36504 0.0
C1600 C 0.49458 0.72581 0.38229 0.0
C1601 C 0.494 0.74122 0.39548 0.0
C1602 C 0.48108 0.75212 0.39198 0.0
H1603 H 0.47134 0.79355 0.33583 0.0
H1604 H 0.48684 0.78236 0.34907 0.0
H1605 H 0.46413 0.76376 0.33308 0.0
H1606 H 0.4595 0.72891 0.34887 0.0
H1607 H 0.4829 0.71024 0.35483 0.0
H1608 H 0.48297 0.23358 0.12837 0.0
H1609 H 0.49849 0.27435 0.13756 0.0
H1610 H 0.56765 0.28926 0.12286 0.0
H1611 H 0.55252 0.24877 0.1141 0.0
H1612 H 0.56656 0.31025 0.15619 0.0
H1613 H 0.51884 0.32687 0.09937 0.0
H1614 H 0.50156 0.30404 0.11574 0.0
H1615 H 0.52088 0.30078 0.1 0.0
C1616 C 0.5015 0.24553 0.12721 0.0
C1617 C 0.51644 0.23792 0.12027 0.0
C1618 C 0.51032 0.26884 0.13239 0.0
C1619 C 0.53418 0.28493 0.13061 0.0
C1620 C 0.54916 0.27717 0.12431 0.0
H1621 H 0.63881 0.41968 0.11589 0.0
H1622 H 0.61321 0.37902 0.12433 0.0
C1623 C 0.54043 0.25397 0.11922 0.0
C1624 C 0.54386 0.31011 0.13447 0.0
H1625 H 0.54651 0.35906 0.11635 0.0
C1626 C 0.56186 0.32088 0.14773 0.0
C1627 C 0.53763 0.32397 0.12351 0.0
C1628 C 0.51879 0.31346 0.10876 0.0
C1629 C 0.57468 0.34519 0.14953 0.0
C1630 C 0.56946 0.35907 0.13769 0.0
C1631 C 0.55039 0.34831 0.12543 0.0
C1632 C 0.58584 0.38432 0.1354 0.0
C1633 C 0.59439 0.3559 0.16349 0.0
C1634 C 0.57903 0.40089 0.13899 0.0
C1635 C 0.59385 0.42436 0.13432 0.0
C1636 C 0.61533 0.43131 0.12556 0.0
C1637 C 0.62231 0.41477 0.12257 0.0
C1638 C 0.60776 0.39156 0.1275 0.0
H1639 H 0.59167 0.34372 0.1752 0.0
H1640 H 0.61086 0.36004 0.1563 0.0
H1641 H 0.59636 0.37229 0.16939 0.0
H1642 H 0.56206 0.39555 0.1449 0.0
H1643 H 0.58802 0.43676 0.13662 0.0
H1644 H 0.27511 0.5018 0.65211 0.0
H1645 H 0.25078 0.51826 0.66195 0.0
H1646 H 0.24438 0.53375 0.60414 0.0
H1647 H 0.26841 0.5175 0.59427 0.0
H1648 H 0.26214 0.56476 0.65548 0.0
H1649 H 0.17727 0.50392 0.62337 0.0
H1650 H 0.19944 0.49621 0.62754 0.0
H1651 H 0.20069 0.51258 0.60695 0.0
C1652 C 0.2681 0.50831 0.6415 0.0
C1653 C 0.2737 0.50837 0.62242 0.0
C1654 C 0.25427 0.51773 0.64714 0.0
C1655 C 0.24549 0.5269 0.63374 0.0
C1656 C 0.25054 0.52633 0.61468 0.0
H1657 H 0.22608 0.63802 0.61687 0.0
H1658 H 0.23906 0.61074 0.62513 0.0
C1659 C 0.26447 0.51719 0.60908 0.0
C1660 C 0.23298 0.53923 0.63942 0.0
H1661 H 0.1855 0.54369 0.62773 0.0
C1662 C 0.2451 0.55984 0.64987 0.0
C1663 C 0.21059 0.53265 0.63238 0.0
C1664 C 0.19614 0.50998 0.62211 0.0
C1665 C 0.23631 0.57507 0.65196 0.0
C1666 C 0.21505 0.56963 0.64319 0.0
C1667 C 0.20194 0.54801 0.63427 0.0
C1668 C 0.20791 0.58737 0.6406 0.0
C1669 C 0.25039 0.59735 0.66281 0.0
C1670 C 0.18599 0.58332 0.64653 0.0
C1671 C 0.17847 0.59903 0.6418 0.0
C1672 C 0.19259 0.61872 0.63073 0.0
C1673 C 0.21475 0.62298 0.62534 0.0
C1674 C 0.22231 0.60749 0.63021 0.0
H1675 H 0.26112 0.59529 0.67379 0.0
H1676 H 0.26239 0.61123 0.65304 0.0
H1677 H 0.23903 0.60309 0.66958 0.0
H1678 H 0.17452 0.56776 0.65439 0.0
H1679 H 0.16126 0.59523 0.64607 0.0
H1680 H 0.75991 0.30988 0.14234 0.0
H1681 H 0.71905 0.28784 0.15186 0.0
H1682 H 0.712 0.22733 0.12305 0.0
H1683 H 0.75321 0.24893 0.11476 0.0
H1684 H 0.68602 0.27435 0.12964 0.0
H1685 H 0.67126 0.19495 0.16588 0.0
H1686 H 0.7002 0.21911 0.16192 0.0
H1687 H 0.68568 0.19711 0.14409 0.0
C1688 C 0.7497 0.29165 0.13857 0.0
C1689 C 0.75953 0.28103 0.12782 0.0
C1690 C 0.7264 0.27905 0.14401 0.0
C1691 C 0.71232 0.25577 0.13836 0.0
C1692 C 0.72249 0.24495 0.12818 0.0
H1693 H 0.58042 0.19771 0.0917 0.0
H1694 H 0.62083 0.21642 0.10159 0.0
C1695 C 0.74602 0.25738 0.12323 0.0
C1696 C 0.68661 0.24418 0.14034 0.0
H1697 H 0.63787 0.19142 0.14789 0.0
C1698 C 0.67561 0.2564 0.13416 0.0
C1699 C 0.67273 0.22087 0.14652 0.0
C1700 C 0.68317 0.20742 0.15518 0.0
C1701 C 0.6514 0.24552 0.13263 0.0
C1702 C 0.63777 0.22153 0.13672 0.0
C1703 C 0.64844 0.2097 0.14433 0.0
C1704 C 0.61303 0.20823 0.13107 0.0
C1705 C 0.6407 0.2597 0.12602 0.0
C1706 C 0.5952 0.19637 0.14429 0.0
C1707 C 0.57184 0.1853 0.1386 0.0
C1708 C 0.56615 0.18606 0.11966 0.0
C1709 C 0.58417 0.19713 0.10645 0.0
C1710 C 0.60731 0.20791 0.11208 0.0
H1711 H 0.65178 0.27834 0.12984 0.0
H1712 H 0.63913 0.25864 0.11047 0.0
H1713 H 0.6231 0.25316 0.13211 0.0
H1714 H 0.59933 0.19626 0.159 0.0
H1715 H 0.55829 0.17683 0.14906 0.0
H1716 H 0.50604 0.76748 0.62057 0.0
H1717 H 0.48488 0.72517 0.62536 0.0
H1718 H 0.41973 0.7247 0.62321 0.0
H1719 H 0.44052 0.76671 0.61837 0.0
H1720 H 0.44767 0.69431 0.65305 0.0
H1721 H 0.41904 0.68293 0.57843 0.0
H1722 H 0.4431 0.70971 0.58723 0.0
H1723 H 0.4137 0.70271 0.59189 0.0
C1724 C 0.48723 0.75842 0.62142 0.0
C1725 C 0.47495 0.77039 0.61877 0.0
C1726 C 0.4752 0.73428 0.62417 0.0
C1727 C 0.45079 0.72189 0.62434 0.0
C1728 C 0.43858 0.73398 0.62286 0.0
H1729 H 0.34378 0.57778 0.61527 0.0
H1730 H 0.36562 0.61991 0.61984 0.0
C1731 C 0.45052 0.75798 0.62007 0.0
C1732 C 0.43788 0.69618 0.62454 0.0
H1733 H 0.40254 0.64924 0.5974 0.0
C1734 C 0.43785 0.68437 0.6409 0.0
C1735 C 0.42517 0.6834 0.60863 0.0
C1736 C 0.42532 0.69525 0.59047 0.0
C1737 C 0.42488 0.65994 0.64189 0.0
C1738 C 0.41199 0.64718 0.626 0.0
C1739 C 0.41227 0.65908 0.60961 0.0
C1740 C 0.39835 0.62143 0.62572 0.0
C1741 C 0.42463 0.64805 0.66003 0.0
C1742 C 0.40945 0.60829 0.62776 0.0
C1743 C 0.39701 0.58419 0.62519 0.0
C1744 C 0.37328 0.57282 0.62031 0.0
C1745 C 0.36205 0.58597 0.61891 0.0
C1746 C 0.37449 0.61005 0.62154 0.0
H1747 H 0.43007 0.66022 0.67215 0.0
H1748 H 0.40704 0.63305 0.66291 0.0
H1749 H 0.43697 0.64142 0.6589 0.0
H1750 H 0.42794 0.61677 0.6306 0.0
H1751 H 0.40622 0.57461 0.62636 0.0
H1752 H 0.81266 0.39314 0.09394 0.0
H1753 H 0.79587 0.41755 0.10092 0.0
H1754 H 0.79636 0.40379 0.16014 0.0
H1755 H 0.81391 0.37947 0.15316 0.0
H1756 H 0.75249 0.39788 0.11812 0.0
H1757 H 0.81924 0.47496 0.15757 0.0
H1758 H 0.82668 0.45725 0.14311 0.0
H1759 H 0.81294 0.4466 0.16546 0.0
C1760 C 0.80957 0.39559 0.1085 0.0
C1761 C 0.81432 0.38424 0.12302 0.0
C1762 C 0.80006 0.40961 0.11247 0.0
C1763 C 0.79484 0.41246 0.13102 0.0
C1764 C 0.80054 0.40205 0.14573 0.0
H1765 H 0.68811 0.45211 0.1389 0.0
H1766 H 0.7114 0.43424 0.14733 0.0
C1767 C 0.81046 0.38814 0.14176 0.0
C1768 C 0.78101 0.42407 0.13422 0.0
H1769 H 0.78358 0.47345 0.1512 0.0
C1770 C 0.75916 0.41429 0.12553 0.0
C1771 C 0.7899 0.4455 0.14379 0.0
C1772 C 0.81353 0.45689 0.15297 0.0
C1773 C 0.74631 0.42576 0.1254 0.0
C1774 C 0.75516 0.44733 0.13488 0.0
C1775 C 0.77675 0.45684 0.1441 0.0
C1776 C 0.74285 0.46079 0.13399 0.0
C1777 C 0.72397 0.41519 0.1142 0.0
C1778 C 0.75332 0.48258 0.12502 0.0
C1779 C 0.74018 0.49314 0.12063 0.0
C1780 C 0.71635 0.48184 0.12494 0.0
C1781 C 0.70639 0.46097 0.13519 0.0
C1782 C 0.71964 0.45073 0.13995 0.0
H1783 H 0.72278 0.40189 0.10408 0.0
H1784 H 0.70894 0.40652 0.12392 0.0
H1785 H 0.72242 0.42875 0.10623 0.0
H1786 H 0.77125 0.4907 0.12037 0.0
H1787 H 0.74824 0.50926 0.11274 0.0
H1788 H 0.44324 0.83347 0.64967 0.0
H1789 H 0.40197 0.81335 0.65904 0.0
H1790 H 0.38178 0.8055 0.60071 0.0
H1791 H 0.42251 0.82507 0.5913 0.0
H1792 H 0.36143 0.81982 0.64929 0.0
H1793 H 0.35437 0.73815 0.62249 0.0
H1794 H 0.38198 0.76376 0.62755 0.0
H1795 H 0.36716 0.76158 0.60582 0.0
C1796 C 0.42995 0.82783 0.63892 0.0
C1797 C 0.43603 0.8305 0.61977 0.0
C1798 C 0.40646 0.81637 0.64427 0.0
C1799 C 0.38894 0.80765 0.63052 0.0
C1800 C 0.39509 0.8118 0.6115 0.0
H1801 H 0.24416 0.75345 0.61829 0.0
H1802 H 0.28548 0.77867 0.62521 0.0
C1803 C 0.41837 0.82297 0.60616 0.0
C1804 C 0.3642 0.79242 0.63553 0.0
H1805 H 0.31873 0.73835 0.6263 0.0
C1806 C 0.35205 0.80186 0.64462 0.0
C1807 C 0.35218 0.76888 0.6298 0.0
C1808 C 0.36462 0.75739 0.62105 0.0
C1809 C 0.32778 0.78866 0.64707 0.0
C1810 C 0.31547 0.7657 0.63982 0.0
C1811 C 0.32799 0.75597 0.63177 0.0
C1812 C 0.28964 0.75183 0.63899 0.0
C1813 C 0.31566 0.79953 0.65725 0.0
C1814 C 0.27806 0.72832 0.64443 0.0
C1815 C 0.25466 0.71376 0.63993 0.0
C1816 C 0.24226 0.72251 0.63021 0.0
C1817 C 0.2533 0.74634 0.62595 0.0
C1818 C 0.27691 0.76082 0.63006 0.0
H1819 H 0.32736 0.81239 0.66783 0.0
H1820 H 0.31082 0.80898 0.64698 0.0
H1821 H 0.29965 0.78623 0.66445 0.0
H1822 H 0.28745 0.72095 0.65133 0.0
H1823 H 0.24646 0.69545 0.64346 0.0
H1824 H 0.14975 0.4545 0.17033 0.0
H1825 H 0.14968 0.4551 0.20469 0.0
H1826 H 0.14869 0.51957 0.20384 0.0
H1827 H 0.14899 0.51931 0.16948 0.0
H1828 H 0.18155 0.51977 0.22857 0.0
H1829 H 0.09456 0.44171 0.23909 0.0
H1830 H 0.11365 0.43692 0.22424 0.0
H1831 H 0.10388 0.45648 0.21675 0.0
C1832 C 0.14944 0.46879 0.17742 0.0
C1833 C 0.14923 0.48679 0.16712 0.0
C1834 C 0.14926 0.46902 0.19707 0.0
C1835 C 0.14879 0.48717 0.20678 0.0
C1836 C 0.14889 0.50531 0.19658 0.0
H1837 H 0.12344 0.49104 0.32671 0.0
H1838 H 0.12125 0.49102 0.29234 0.0
C1839 C 0.14904 0.5051 0.17694 0.0
C1840 C 0.14886 0.4876 0.2276 0.0
H1841 H 0.11835 0.45715 0.26628 0.0
C1842 C 0.16769 0.50614 0.23683 0.0
C1843 C 0.1306 0.46996 0.23831 0.0
C1844 C 0.1094 0.45024 0.22913 0.0
C1845 C 0.16902 0.50723 0.25652 0.0
C1846 C 0.1512 0.48912 0.26722 0.0
C1847 C 0.13208 0.47088 0.25801 0.0
C1848 C 0.15229 0.48871 0.288 0.0
C1849 C 0.18941 0.52783 0.26571 0.0
C1850 C 0.17023 0.487 0.29688 0.0
C1851 C 0.17153 0.48698 0.31647 0.0
C1852 C 0.15482 0.48854 0.32758 0.0
C1853 C 0.13661 0.48984 0.3186 0.0
C1854 C 0.13531 0.48983 0.29897 0.0
H1855 H 0.19817 0.54282 0.25592 0.0
H1856 H 0.1838 0.53348 0.2784 0.0
H1857 H 0.20234 0.52282 0.27013 0.0
H1858 H 0.18326 0.4857 0.28865 0.0
H1859 H 0.18577 0.48589 0.32288 0.0
H1860 H 0.63165 0.15138 0.82597 0.0
H1861 H 0.63167 0.15017 0.79165 0.0
H1862 H 0.69788 0.15275 0.79245 0.0
H1863 H 0.69794 0.15369 0.82683 0.0
H1864 H 0.66382 0.18235 0.76652 0.0
H1865 H 0.65768 0.09617 0.75902 0.0
H1866 H 0.65184 0.10606 0.78091 0.0
H1867 H 0.68132 0.11643 0.77354 0.0
C1868 C 0.64621 0.1516 0.81889 0.0
C1869 C 0.66473 0.15245 0.8292 0.0
C1870 C 0.64619 0.15094 0.79925 0.0
C1871 C 0.66459 0.151 0.78952 0.0
C1872 C 0.68327 0.1522 0.79971 0.0
H1873 H 0.69927 0.18231 0.67165 0.0
H1874 H 0.69826 0.18228 0.70596 0.0
C1875 C 0.68333 0.15287 0.81936 0.0
C1876 C 0.66441 0.15029 0.76868 0.0
H1877 H 0.66474 0.11839 0.73112 0.0
C1878 C 0.66397 0.16835 0.75876 0.0
C1879 C 0.66427 0.13183 0.75862 0.0
C1880 C 0.66359 0.11139 0.76853 0.0
C1881 C 0.66382 0.16867 0.73903 0.0
C1882 C 0.66445 0.15061 0.72897 0.0
C1883 C 0.66446 0.13232 0.73888 0.0
C1884 C 0.66513 0.15041 0.70814 0.0
C1885 C 0.66265 0.18818 0.72913 0.0
C1886 C 0.6471 0.13218 0.69799 0.0
C1887 C 0.64765 0.13205 0.67833 0.0
C1888 C 0.66637 0.15009 0.66847 0.0
C1889 C 0.68455 0.16817 0.67875 0.0
C1890 C 0.68395 0.16827 0.69838 0.0
H1891 H 0.65623 0.19707 0.73859 0.0
H1892 H 0.68033 0.20127 0.72429 0.0
H1893 H 0.6511 0.18161 0.71664 0.0
H1894 H 0.63247 0.11817 0.70528 0.0
H1895 H 0.63338 0.11786 0.67088 0.0
H1896 H 0.53984 0.69988 0.17493 0.0
H1897 H 0.54198 0.70022 0.20929 0.0
H1898 H 0.47857 0.63387 0.21136 0.0
H1899 H 0.47636 0.63319 0.17708 0.0
H1900 H 0.50953 0.6981 0.23587 0.0
H1901 H 0.52378 0.62285 0.24307 0.0
H1902 H 0.52727 0.6377 0.22101 0.0
H1903 H 0.4987 0.61698 0.22936 0.0
C1904 C 0.52637 0.6853 0.18267 0.0
C1905 C 0.50804 0.66641 0.1732 0.0
C1906 C 0.52762 0.68556 0.20231 0.0
C1907 C 0.51065 0.6669 0.21285 0.0
C1908 C 0.49213 0.64822 0.20348 0.0
H1909 H 0.48484 0.63423 0.33153 0.0
H1910 H 0.48332 0.63472 0.29719 0.0
C1911 C 0.49085 0.64793 0.18387 0.0
C1912 C 0.5121 0.66711 0.23367 0.0
H1913 H 0.5163 0.63726 0.27117 0.0
C1914 C 0.51114 0.68489 0.2436 0.0
C1915 C 0.51417 0.64982 0.24371 0.0
C1916 C 0.51625 0.63086 0.23377 0.0
C1917 C 0.5117 0.68557 0.26334 0.0
C1918 C 0.51369 0.66823 0.27338 0.0
C1919 C 0.51472 0.6505 0.26344 0.0
C1920 C 0.51469 0.66814 0.29421 0.0
C1921 C 0.5096 0.70452 0.27329 0.0
C1922 C 0.533 0.68664 0.30392 0.0
C1923 C 0.53395 0.68643 0.32356 0.0
C1924 C 0.51666 0.66762 0.33388 0.0
C1925 C 0.49845 0.649 0.32406 0.0
C1926 C 0.49754 0.64923 0.30443 0.0
H1927 H 0.50231 0.71271 0.26394 0.0
H1928 H 0.49837 0.69759 0.28593 0.0
H1929 H 0.52712 0.71827 0.27791 0.0
H1930 H 0.54667 0.70119 0.29631 0.0
H1931 H 0.54826 0.70103 0.33062 0.0
H1932 H 0.84283 0.54497 0.66876 0.0
H1933 H 0.84309 0.54472 0.70312 0.0
H1934 H 0.84307 0.47974 0.70269 0.0
H1935 H 0.8425 0.47962 0.66834 0.0
H1936 H 0.81122 0.48055 0.72803 0.0
H1937 H 0.89888 0.55844 0.73645 0.0
H1938 H 0.87924 0.56302 0.72213 0.0
H1939 H 0.8887 0.54333 0.71434 0.0
C1940 C 0.84292 0.53062 0.67594 0.0
C1941 C 0.84284 0.5124 0.66576 0.0
C1942 C 0.8432 0.53059 0.6956 0.0
C1943 C 0.84352 0.51242 0.70544 0.0
C1944 C 0.84299 0.494 0.69535 0.0
H1945 H 0.84649 0.47849 0.82301 0.0
H1946 H 0.8454 0.4788 0.78867 0.0
C1947 C 0.8427 0.494 0.67571 0.0
C1948 C 0.84409 0.51243 0.72627 0.0
H1949 H 0.87661 0.54293 0.76419 0.0
C1950 C 0.82555 0.49413 0.73596 0.0
C1951 C 0.86281 0.5302 0.73654 0.0
C1952 C 0.88366 0.54977 0.72688 0.0
C1953 C 0.82503 0.4933 0.75568 0.0
C1954 C 0.84375 0.51104 0.76595 0.0
C1955 C 0.86227 0.52937 0.75627 0.0
C1956 C 0.84451 0.51088 0.78677 0.0
C1957 C 0.80424 0.47368 0.76537 0.0
C1958 C 0.84494 0.52912 0.79707 0.0
C1959 C 0.8457 0.52909 0.8167 0.0
C1960 C 0.84622 0.51088 0.82642 0.0
C1961 C 0.84605 0.49276 0.81601 0.0
C1962 C 0.84527 0.49281 0.79637 0.0
H1963 H 0.78899 0.465 0.75582 0.0
H1964 H 0.80872 0.46045 0.77006 0.0
H1965 H 0.79922 0.48009 0.77794 0.0
H1966 H 0.84448 0.54329 0.7899 0.0
H1967 H 0.84582 0.54332 0.82425 0.0
H1968 H 0.31304 0.86306 0.32921 0.0
H1969 H 0.31335 0.86476 0.29489 0.0
H1970 H 0.35384 0.83026 0.29293 0.0
H1971 H 0.35455 0.82957 0.32728 0.0
H1972 H 0.37056 0.86477 0.26915 0.0
H1973 H 0.27511 0.81355 0.25921 0.0
H1974 H 0.2836 0.83883 0.27344 0.0
H1975 H 0.28862 0.81605 0.28173 0.0
C1976 C 0.3219 0.85573 0.32144 0.0
C1977 C 0.33369 0.84609 0.33086 0.0
C1978 C 0.32194 0.85658 0.30183 0.0
C1979 C 0.33318 0.84718 0.29131 0.0
C1980 C 0.34499 0.83756 0.30075 0.0
H1981 H 0.30948 0.81284 0.17339 0.0
H1982 H 0.31058 0.81304 0.20768 0.0
C1983 C 0.34536 0.83714 0.32035 0.0
C1984 C 0.33317 0.84783 0.2705 0.0
H1985 H 0.29761 0.83314 0.23223 0.0
C1986 C 0.3546 0.85773 0.26106 0.0
C1987 C 0.31232 0.83836 0.25995 0.0
C1988 C 0.28862 0.82589 0.2691 0.0
C1989 C 0.35579 0.85844 0.24137 0.0
C1990 C 0.33499 0.84985 0.23085 0.0
C1991 C 0.31356 0.83996 0.2403 0.0
C1992 C 0.33486 0.85003 0.21003 0.0
C1993 C 0.37926 0.86772 0.23212 0.0
C1994 C 0.34804 0.87078 0.19992 0.0
C1995 C 0.34781 0.87061 0.18027 0.0
C1996 C 0.33385 0.8498 0.17047 0.0
C1997 C 0.3203 0.82916 0.18061 0.0
C1998 C 0.32092 0.82926 0.20019 0.0
H1999 H 0.39199 0.8668 0.24172 0.0
H2000 H 0.37799 0.85791 0.21912 0.0
H2001 H 0.38621 0.88626 0.22837 0.0
H2002 H 0.35837 0.88713 0.20719 0.0
H2003 H 0.35822 0.8868 0.17277 0.0
H2004 H 0.47853 0.29312 0.67431 0.0
H2005 H 0.4783 0.29459 0.7086 0.0
H2006 H 0.48729 0.36354 0.70628 0.0
H2007 H 0.48748 0.36231 0.67191 0.0
H2008 H 0.5157 0.32986 0.73136 0.0
H2009 H 0.43049 0.32536 0.74218 0.0
H2010 H 0.43787 0.31622 0.72059 0.0
H2011 H 0.44993 0.34663 0.72553 0.0
C2012 C 0.48023 0.30854 0.68105 0.0
C2013 C 0.48295 0.32759 0.67037 0.0
C2014 C 0.48016 0.30934 0.70062 0.0
C2015 C 0.4826 0.32908 0.70985 0.0
C2016 C 0.4851 0.34805 0.69932 0.0
H2017 H 0.51854 0.36594 0.8271 0.0
H2018 H 0.51774 0.36546 0.79275 0.0
C2019 C 0.48528 0.34733 0.67971 0.0
C2020 C 0.48339 0.33008 0.73055 0.0
H2021 H 0.45366 0.33139 0.76917 0.0
C2022 C 0.50218 0.33021 0.73967 0.0
C2023 C 0.46558 0.33035 0.7412 0.0
C2024 C 0.44469 0.32946 0.73196 0.0
C2025 C 0.50371 0.33071 0.75932 0.0
C2026 C 0.48607 0.33133 0.77 0.0
C2027 C 0.4672 0.33106 0.76086 0.0
C2028 C 0.4866 0.3317 0.79072 0.0
C2029 C 0.5239 0.33013 0.76852 0.0
C2030 C 0.46913 0.31303 0.80085 0.0
C2031 C 0.46945 0.31325 0.82045 0.0
C2032 C 0.4872 0.33226 0.83024 0.0
C2033 C 0.50465 0.351 0.82 0.0
C2034 C 0.5043 0.35074 0.80038 0.0
H2035 H 0.533 0.32445 0.75857 0.0
H2036 H 0.53664 0.34784 0.77356 0.0
H2037 H 0.51796 0.31825 0.78083 0.0
H2038 H 0.45531 0.29821 0.79357 0.0
H2039 H 0.45575 0.29854 0.8279 0.0
H2040 H 0.52455 0.82243 0.82394 0.0
H2041 H 0.52536 0.82502 0.78968 0.0
H2042 H 0.51329 0.88302 0.79283 0.0
H2043 H 0.5126 0.88073 0.82718 0.0
H2044 H 0.48832 0.82117 0.76661 0.0
H2045 H 0.56994 0.90585 0.75708 0.0
H2046 H 0.56311 0.8894 0.77868 0.0
H2047 H 0.54916 0.90593 0.77325 0.0
C2048 C 0.52231 0.83592 0.8174 0.0
C2049 C 0.51861 0.85144 0.82834 0.0
C2050 C 0.52272 0.83732 0.79781 0.0
C2051 C 0.51962 0.85435 0.78877 0.0
C2052 C 0.5161 0.87 0.79958 0.0
H2053 H 0.51415 0.8846 0.67037 0.0
H2054 H 0.51387 0.88472 0.70476 0.0
C2055 C 0.51561 0.86858 0.8192 0.0
C2056 C 0.51908 0.855 0.768 0.0
H2057 H 0.54773 0.88809 0.7298 0.0
C2058 C 0.50132 0.83577 0.75853 0.0
C2059 C 0.53598 0.87416 0.75758 0.0
C2060 C 0.55576 0.89497 0.7671 0.0
C2061 C 0.49991 0.83521 0.73885 0.0
C2062 C 0.51704 0.85419 0.72839 0.0
C2063 C 0.53466 0.87356 0.73787 0.0
C2064 C 0.51722 0.85407 0.70757 0.0
C2065 C 0.4799 0.81445 0.72946 0.0
C2066 C 0.5195 0.83697 0.69779 0.0
C2067 C 0.51961 0.83679 0.67817 0.0
C2068 C 0.51766 0.85387 0.66793 0.0
C2069 C 0.51567 0.87118 0.6778 0.0
C2070 C 0.51552 0.8713 0.69745 0.0
H2071 H 0.46508 0.80481 0.73927 0.0
H2072 H 0.47363 0.81982 0.71701 0.0
H2073 H 0.48579 0.80232 0.72468 0.0
H2074 H 0.52134 0.8238 0.70535 0.0
H2075 H 0.52128 0.82327 0.67105 0.0
H2076 H 0.70238 0.52587 0.16999 0.0
H2077 H 0.70098 0.52654 0.20427 0.0
H2078 H 0.6311 0.51509 0.20178 0.0
H2079 H 0.63216 0.51411 0.16745 0.0
H2080 H 0.69272 0.55567 0.22836 0.0
H2081 H 0.62536 0.46236 0.23599 0.0
H2082 H 0.64109 0.47427 0.21435 0.0
H2083 H 0.61767 0.4791 0.22079 0.0
C2084 C 0.68671 0.52356 0.17669 0.0
C2085 C 0.66733 0.51982 0.16596 0.0
C2086 C 0.68597 0.52397 0.19629 0.0
C2087 C 0.66583 0.52054 0.20551 0.0
C2088 C 0.64665 0.51736 0.19489 0.0
H2089 H 0.63129 0.50946 0.32451 0.0
H2090 H 0.63091 0.51235 0.29026 0.0
C2091 C 0.64735 0.51693 0.17528 0.0
C2092 C 0.66494 0.52012 0.22627 0.0
H2093 H 0.63777 0.48477 0.26378 0.0
C2094 C 0.68071 0.5402 0.23614 0.0
C2095 C 0.64921 0.49989 0.2363 0.0
C2096 C 0.63247 0.47759 0.22637 0.0
C2097 C 0.68112 0.54061 0.25585 0.0
C2098 C 0.6656 0.52028 0.26587 0.0
C2099 C 0.64962 0.50031 0.25601 0.0
C2100 C 0.66611 0.51914 0.2866 0.0
C2101 C 0.69798 0.56284 0.26578 0.0
C2102 C 0.68596 0.52173 0.2958 0.0
C2103 C 0.68626 0.52009 0.31535 0.0
C2104 C 0.66665 0.51571 0.32605 0.0
C2105 C 0.64672 0.51295 0.31673 0.0
C2106 C 0.64645 0.51458 0.29716 0.0
H2107 H 0.70409 0.57823 0.25644 0.0
H2108 H 0.68992 0.56557 0.27849 0.0
H2109 H 0.71341 0.56174 0.27028 0.0
H2110 H 0.70113 0.52476 0.28784 0.0
H2111 H 0.70183 0.52213 0.32204 0.0
H2112 H 0.17295 0.64828 0.82876 0.0
H2113 H 0.17267 0.64914 0.79439 0.0
H2114 H 0.13735 0.68886 0.79603 0.0
H2115 H 0.13874 0.68911 0.83037 0.0
H2116 H 0.13893 0.63229 0.77023 0.0
H2117 H 0.18854 0.7279 0.76085 0.0
H2118 H 0.18587 0.71433 0.78335 0.0
H2119 H 0.16289 0.71882 0.77471 0.0
C2120 C 0.1653 0.65734 0.82174 0.0
C2121 C 0.15607 0.66882 0.83216 0.0
C2122 C 0.16511 0.6578 0.80214 0.0
C2123 C 0.15539 0.66945 0.7926 0.0
C2124 C 0.14563 0.68043 0.80303 0.0
H2125 H 0.11951 0.6444 0.67311 0.0
H2126 H 0.11779 0.64396 0.70752 0.0
C2127 C 0.1463 0.68043 0.82265 0.0
C2128 C 0.15506 0.66962 0.77177 0.0
H2129 H 0.1698 0.70544 0.73366 0.0
C2130 C 0.14581 0.6483 0.76222 0.0
C2131 C 0.16431 0.69054 0.76132 0.0
C2132 C 0.17618 0.71418 0.77059 0.0
C2133 C 0.1456 0.64729 0.74252 0.0
C2134 C 0.15398 0.66813 0.73209 0.0
C2135 C 0.16314 0.68943 0.74165 0.0
C2136 C 0.15454 0.66849 0.71125 0.0
C2137 C 0.13715 0.62398 0.7332 0.0
C2138 C 0.17551 0.68311 0.7019 0.0
C2139 C 0.17634 0.68391 0.68233 0.0
C2140 C 0.15628 0.66985 0.67171 0.0
C2141 C 0.13526 0.65522 0.681 0.0
C2142 C 0.13432 0.65482 0.70064 0.0
H2143 H 0.13819 0.61138 0.74288 0.0
H2144 H 0.11866 0.61661 0.72909 0.0
H2145 H 0.14744 0.62563 0.7204 0.0
H2146 H 0.19133 0.69382 0.70975 0.0
H2147 H 0.19281 0.69524 0.6755 0.0
H2148 H 0.45602 0.15225 0.32543 0.0
H2149 H 0.45434 0.15144 0.2911 0.0
H2150 H 0.5198 0.15254 0.28881 0.0
H2151 H 0.5218 0.15355 0.32313 0.0
H2152 H 0.51699 0.18504 0.2648 0.0
H2153 H 0.44097 0.09608 0.25652 0.0
H2154 H 0.43637 0.11473 0.27209 0.0
H2155 H 0.45723 0.10609 0.27818 0.0
C2156 C 0.47002 0.1522 0.31765 0.0
C2157 C 0.48899 0.15283 0.32705 0.0
C2158 C 0.46896 0.15162 0.29804 0.0
C2159 C 0.48679 0.15161 0.28747 0.0
C2160 C 0.50581 0.1524 0.29676 0.0
H2161 H 0.48718 0.1236 0.16845 0.0
H2162 H 0.48854 0.1232 0.20279 0.0
C2163 C 0.50688 0.15293 0.31637 0.0
C2164 C 0.48596 0.15146 0.26669 0.0
H2165 H 0.4545 0.11931 0.22898 0.0
C2166 C 0.50338 0.17067 0.25694 0.0
C2167 C 0.4683 0.13255 0.25654 0.0
C2168 C 0.44974 0.11107 0.26631 0.0
C2169 C 0.50341 0.17163 0.23724 0.0
C2170 C 0.48538 0.15301 0.22711 0.0
C2171 C 0.46817 0.13364 0.23684 0.0
C2172 C 0.48425 0.15321 0.20635 0.0
C2173 C 0.5229 0.1924 0.22742 0.0
C2174 C 0.48106 0.17004 0.19704 0.0
C2175 C 0.48026 0.17033 0.17742 0.0
C2176 C 0.48253 0.15371 0.16677 0.0
C2177 C 0.48541 0.13667 0.1762 0.0
C2178 C 0.48617 0.13639 0.19582 0.0
H2179 H 0.5381 0.20232 0.23683 0.0
H2180 H 0.52872 0.18693 0.21476 0.0
H2181 H 0.51659 0.20426 0.22284 0.0
H2182 H 0.47916 0.18293 0.20495 0.0
H2183 H 0.47798 0.18367 0.17063 0.0
H2184 H 0.3666 0.52254 0.67475 0.0
H2185 H 0.36618 0.52192 0.70912 0.0
H2186 H 0.30107 0.45712 0.70842 0.0
H2187 H 0.30145 0.45736 0.67406 0.0
H2188 H 0.33357 0.52131 0.73398 0.0
H2189 H 0.34116 0.44225 0.74278 0.0
H2190 H 0.34673 0.45747 0.72067 0.0
H2191 H 0.31734 0.4381 0.72815 0.0
C2192 C 0.35221 0.50808 0.68187 0.0
C2193 C 0.33416 0.48988 0.67158 0.0
C2194 C 0.352 0.50779 0.70154 0.0
C2195 C 0.33381 0.48928 0.71136 0.0
C2196 C 0.31556 0.47131 0.70116 0.0
H2197 H 0.30168 0.45705 0.82997 0.0
H2198 H 0.30119 0.45757 0.79559 0.0
C2199 C 0.31576 0.47155 0.68149 0.0
C2200 C 0.33377 0.48902 0.73226 0.0
H2201 H 0.33374 0.45759 0.77034 0.0
C2202 C 0.33371 0.50743 0.74194 0.0
C2203 C 0.33391 0.47088 0.74263 0.0
C2204 C 0.335 0.45115 0.73307 0.0
C2205 C 0.33341 0.50802 0.76169 0.0
C2206 C 0.33357 0.48989 0.77205 0.0
C2207 C 0.33358 0.47145 0.76238 0.0
C2208 C 0.3339 0.4898 0.79294 0.0
C2209 C 0.33245 0.5278 0.77128 0.0
C2210 C 0.35259 0.50761 0.80289 0.0
C2211 C 0.35296 0.50738 0.82255 0.0
C2212 C 0.33467 0.48922 0.8327 0.0
C2213 C 0.31605 0.47131 0.82266 0.0
C2214 C 0.31573 0.47156 0.80299 0.0
H2215 H 0.32635 0.53677 0.76159 0.0
H2216 H 0.32074 0.5215 0.78369 0.0
H2217 H 0.35015 0.54076 0.7762 0.0
H2218 H 0.36702 0.52163 0.79543 0.0
H2219 H 0.36761 0.52144 0.82979 0.0
H2220 H 0.80719 0.30269 0.17432 0.0
H2221 H 0.80802 0.30421 0.20863 0.0
H2222 H 0.88119 0.35533 0.2071 0.0
H2223 H 0.88013 0.35473 0.1727 0.0
H2224 H 0.82931 0.29332 0.23323 0.0
H2225 H 0.85979 0.38703 0.24227 0.0
H2226 H 0.85102 0.37281 0.21974 0.0
H2227 H 0.87985 0.38244 0.22865 0.0
C2228 C 0.82344 0.31434 0.18131 0.0
C2229 C 0.84357 0.32868 0.17083 0.0
C2230 C 0.8239 0.31521 0.20093 0.0
C2231 C 0.84457 0.3302 0.21055 0.0
C2232 C 0.86484 0.34417 0.20008 0.0
H2233 H 0.86417 0.31035 0.32905 0.0
H2234 H 0.86364 0.31022 0.2947 0.0
C2235 C 0.86428 0.34368 0.18041 0.0
C2236 C 0.84489 0.33059 0.23149 0.0
H2237 H 0.86048 0.36662 0.26962 0.0
C2238 C 0.836 0.30936 0.24117 0.0
C2239 C 0.85323 0.35144 0.24194 0.0
C2240 C 0.86126 0.37467 0.23262 0.0
C2241 C 0.83536 0.30839 0.26089 0.0
C2242 C 0.84481 0.32934 0.27134 0.0
C2243 C 0.8535 0.35055 0.26167 0.0
C2244 C 0.84553 0.32968 0.29227 0.0
C2245 C 0.82392 0.2848 0.27023 0.0
C2246 C 0.83645 0.3415 0.30244 0.0
C2247 C 0.83733 0.34216 0.32209 0.0
C2248 C 0.84709 0.33076 0.33199 0.0
C2249 C 0.85625 0.31901 0.32182 0.0
C2250 C 0.85579 0.31878 0.30217 0.0
H2251 H 0.81111 0.27105 0.26074 0.0
H2252 H 0.83739 0.28017 0.27376 0.0
H2253 H 0.81483 0.28471 0.28336 0.0
H2254 H 0.82852 0.35014 0.29517 0.0
H2255 H 0.8301 0.35133 0.32954 0.0
H2256 H 0.89141 0.30058 0.12426 0.0
H2257 H 0.93096 0.30638 0.12258 0.0
H2258 H 0.95283 0.36854 0.08968 0.0
H2259 H 0.91372 0.36263 0.09083 0.0
H2260 H 0.97339 0.34333 0.07784 0.0
H2261 H 0.98087 0.35701 0.15551 0.0
H2262 H 0.9587 0.32933 0.14668 0.0
H2263 H 0.95652 0.35488 0.14259 0.0
C2264 C 0.90459 0.31523 0.1164 0.0
C2265 C 0.89954 0.33141 0.10801 0.0
C2266 C 0.92717 0.31856 0.11551 0.0
C2267 C 0.94492 0.33812 0.10628 0.0
C2268 C 0.93944 0.35334 0.09691 0.0
H2269 H 0.07142 0.44833 0.11905 0.0
H2270 H 0.03234 0.41497 0.11822 0.0
C2271 C 0.91705 0.35003 0.09773 0.0
C2272 C 0.96976 0.34476 0.1078 0.0
H2273 H 0.01523 0.37173 0.13836 0.0
C2274 C 0.98259 0.34889 0.09112 0.0
C2275 C 0.98166 0.35195 0.12518 0.0
C2276 C 0.96887 0.34822 0.14355 0.0
C2277 C 0.00699 0.36212 0.09117 0.0
C2278 C 0.01873 0.37107 0.10837 0.0
C2279 C 0.00604 0.36484 0.12521 0.0
C2280 C 0.04297 0.39065 0.10891 0.0
C2281 C 0.01991 0.36832 0.07271 0.0
C2282 C 0.06198 0.38804 0.10385 0.0
C2283 C 0.0846 0.4073 0.10423 0.0
C2284 C 0.08843 0.42933 0.10975 0.0
C2285 C 0.06922 0.43168 0.11479 0.0
C2286 C 0.04682 0.41258 0.11438 0.0
H2287 H 0.00801 0.36085 0.06048 0.0
H2288 H 0.03013 0.38753 0.07108 0.0
H2289 H 0.03231 0.36171 0.07253 0.0
H2290 H 0.05935 0.37119 0.09969 0.0
H2291 H 0.09904 0.4049 0.10031 0.0
H2292 H 0.59398 0.89955 0.62847 0.0
H2293 H 0.62981 0.93775 0.6289 0.0
H2294 H 0.59963 0.96346 0.58848 0.0
H2295 H 0.56422 0.9257 0.58784 0.0
H2296 H 0.64856 0.97928 0.58274 0.0
H2297 H 0.62693 0.99172 0.65612 0.0
H2298 H 0.63012 0.96697 0.65069 0.0
H2299 H 0.60572 0.96851 0.64159 0.0
C2300 C 0.59523 0.91326 0.61942 0.0
C2301 C 0.57617 0.90978 0.60835 0.0
C2302 C 0.61564 0.93504 0.61973 0.0
C2303 C 0.61721 0.95346 0.60888 0.0
C2304 C 0.59877 0.94947 0.59695 0.0
H2305 H 0.6455 0.08074 0.58547 0.0
H2306 H 0.64296 0.0429 0.58544 0.0
C2307 C 0.57846 0.92791 0.59671 0.0
C2308 C 0.63652 0.97766 0.61111 0.0
H2309 H 0.65101 0.02499 0.6387 0.0
C2310 C 0.64976 0.98925 0.5952 0.0
C2311 C 0.63829 0.99059 0.62746 0.0
C2312 C 0.62454 0.97897 0.64499 0.0
C2313 C 0.66279 0.01362 0.59454 0.0
C2314 C 0.66219 0.0266 0.61007 0.0
C2315 C 0.65128 0.01498 0.62675 0.0
C2316 C 0.6678 0.05108 0.60799 0.0
C2317 C 0.67575 0.02527 0.57677 0.0
C2318 C 0.68271 0.0684 0.62066 0.0
C2319 C 0.68419 0.09023 0.6207 0.0
C2320 C 0.67034 0.09474 0.60836 0.0
C2321 C 0.65627 0.07771 0.5952 0.0
C2322 C 0.65503 0.05614 0.59502 0.0
H2323 H 0.68232 0.0147 0.56979 0.0
H2324 H 0.6637 0.02681 0.56682 0.0
H2325 H 0.69063 0.04295 0.57961 0.0
H2326 H 0.69245 0.06471 0.63096 0.0
H2327 H 0.6951 0.10303 0.63105 0.0
H2328 H 0.67963 0.58511 0.12572 0.0
H2329 H 0.66644 0.61369 0.12429 0.0
H2330 H 0.62827 0.58155 0.07355 0.0
H2331 H 0.6407 0.55258 0.07526 0.0
H2332 H 0.66381 0.64587 0.09724 0.0
H2333 H 0.57836 0.56819 0.11394 0.0
H2334 H 0.60529 0.56781 0.11519 0.0
H2335 H 0.59171 0.56562 0.09282 0.0
C2336 C 0.66904 0.58465 0.11395 0.0
C2337 C 0.66084 0.56648 0.10076 0.0
C2338 C 0.66154 0.60097 0.11314 0.0
C2339 C 0.64604 0.59942 0.09901 0.0
C2340 C 0.63995 0.58281 0.08471 0.0
H2341 H 0.57224 0.67742 0.08585 0.0
H2342 H 0.60141 0.66519 0.08164 0.0
C2343 C 0.64706 0.5663 0.0857 0.0
C2344 C 0.63322 0.61226 0.10088 0.0
H2345 H 0.57872 0.60335 0.10896 0.0
C2346 C 0.64521 0.63667 0.09978 0.0
C2347 C 0.609 0.60015 0.10446 0.0
C2348 C 0.59532 0.57403 0.10685 0.0
C2349 C 0.63347 0.64928 0.10209 0.0
C2350 C 0.60921 0.63706 0.10541 0.0
C2351 C 0.59733 0.61269 0.10637 0.0
C2352 C 0.59551 0.64875 0.10895 0.0
C2353 C 0.64709 0.67549 0.10144 0.0
C2354 C 0.5829 0.64397 0.12577 0.0
C2355 C 0.56608 0.65045 0.12799 0.0
C2356 C 0.5617 0.66215 0.11354 0.0
C2357 C 0.57546 0.66854 0.09722 0.0
C2358 C 0.59216 0.66166 0.09485 0.0
H2359 H 0.66612 0.68234 0.10262 0.0
H2360 H 0.64368 0.68149 0.08787 0.0
H2361 H 0.64156 0.68299 0.11292 0.0
H2362 H 0.58522 0.63408 0.13683 0.0
H2363 H 0.55584 0.64551 0.14078 0.0
H2364 H 0.10143 0.68214 0.63075 0.0
H2365 H 0.05978 0.66936 0.62845 0.0
H2366 H 0.05435 0.62941 0.57897 0.0
H2367 H 0.09558 0.64148 0.58152 0.0
H2368 H 0.02678 0.66739 0.60006 0.0
H2369 H 0.01465 0.58085 0.61925 0.0
H2370 H 0.04246 0.60721 0.62086 0.0
H2371 H 0.03181 0.59329 0.59849 0.0
C2372 C 0.09144 0.67115 0.61911 0.0
C2373 C 0.10155 0.66246 0.60649 0.0
C2374 C 0.0677 0.66389 0.6178 0.0
C2375 C 0.05395 0.6481 0.60375 0.0
C2376 C 0.06459 0.64129 0.59009 0.0
H2377 H 0.90428 0.58094 0.58219 0.0
H2378 H 0.94636 0.60872 0.58085 0.0
C2379 C 0.08812 0.64819 0.59157 0.0
C2380 C 0.02823 0.6361 0.60485 0.0
H2381 H 0.98091 0.58234 0.61159 0.0
C2382 C 0.01667 0.64881 0.60262 0.0
C2383 C 0.01516 0.61192 0.60847 0.0
C2384 C 0.02661 0.59752 0.61209 0.0
C2385 C 0.99222 0.6378 0.60371 0.0
C2386 C 0.97919 0.61351 0.60688 0.0
C2387 C 0.99089 0.60096 0.60913 0.0
C2388 C 0.95346 0.60041 0.60864 0.0
C2389 C 0.98061 0.65227 0.60186 0.0
C2390 C 0.94345 0.5868 0.62474 0.0
C2391 C 0.91974 0.5707 0.6253 0.0
C2392 C 0.90543 0.5681 0.6099 0.0
C2393 C 0.915 0.58281 0.59428 0.0
C2394 C 0.93898 0.59874 0.59356 0.0
H2395 H 0.99307 0.67105 0.6042 0.0
H2396 H 0.97341 0.6502 0.58746 0.0
H2397 H 0.96602 0.64646 0.61199 0.0
H2398 H 0.95423 0.58782 0.63656 0.0
H2399 H 0.9127 0.55965 0.63757 0.0
H2400 H 0.40721 0.1029 0.12503 0.0
H2401 H 0.37411 0.06287 0.12483 0.0
H2402 H 0.41132 0.04256 0.08672 0.0
H2403 H 0.44405 0.08216 0.08664 0.0
H2404 H 0.36274 0.02236 0.07853 0.0
H2405 H 0.38039 0.01199 0.15358 0.0
H2406 H 0.37486 0.03511 0.14754 0.0
H2407 H 0.40112 0.0363 0.13967 0.0
C2408 C 0.40812 0.08996 0.11637 0.0
C2409 C 0.42839 0.0956 0.10608 0.0
C2410 C 0.38926 0.06711 0.11634 0.0
C2411 C 0.39044 0.04972 0.10596 0.0
C2412 C 0.41007 0.0557 0.09485 0.0
H2413 H 0.36302 0.9185 0.0869 0.0
H2414 H 0.36826 0.95747 0.08542 0.0
C2415 C 0.42884 0.07835 0.09492 0.0
C2416 C 0.37254 0.02482 0.10766 0.0
H2417 H 0.35725 0.97819 0.13638 0.0
C2418 C 0.36098 0.01271 0.09132 0.0
C2419 C 0.37012 0.01229 0.1244 0.0
C2420 C 0.38229 0.02443 0.14233 0.0
C2421 C 0.34861 0.9883 0.09088 0.0
C2422 C 0.34812 0.97578 0.10712 0.0
C2423 C 0.35775 0.98786 0.12393 0.0
C2424 C 0.3418 0.951 0.10614 0.0
C2425 C 0.33721 0.97615 0.07277 0.0
C2426 C 0.32515 0.93432 0.11832 0.0
C2427 C 0.32211 0.91186 0.11921 0.0
C2428 C 0.33605 0.90599 0.10822 0.0
C2429 C 0.35209 0.92252 0.0956 0.0
C2430 C 0.35493 0.94476 0.09459 0.0
H2431 H 0.33159 0.98662 0.06441 0.0
H2432 H 0.34996 0.97397 0.06419 0.0
H2433 H 0.32189 0.95869 0.07542 0.0
H2434 H 0.31507 0.93891 0.12752 0.0
H2435 H 0.30968 0.89951 0.12911 0.0
H2436 H 0.45738 0.36944 0.59058 0.0
H2437 H 0.42655 0.37906 0.58973 0.0
H2438 H 0.38085 0.31562 0.61938 0.0
H2439 H 0.41207 0.30601 0.62074 0.0
H2440 H 0.38133 0.35805 0.57646 0.0
H2441 H 0.38448 0.36587 0.65458 0.0
H2442 H 0.40603 0.36271 0.64155 0.0
H2443 H 0.37744 0.3381 0.64489 0.0
C2444 C 0.44073 0.35734 0.59679 0.0
C2445 C 0.43737 0.33715 0.60606 0.0
C2446 C 0.42304 0.36282 0.59619 0.0
C2447 C 0.40153 0.34829 0.60478 0.0
C2448 C 0.39749 0.32731 0.61297 0.0
H2449 H 0.31039 0.41125 0.6008 0.0
H2450 H 0.31994 0.37998 0.59842 0.0
C2451 C 0.4153 0.32179 0.61364 0.0
C2452 C 0.38459 0.3566 0.60646 0.0
H2453 H 0.36411 0.38054 0.63827 0.0
C2454 C 0.37704 0.36249 0.58998 0.0
C2455 C 0.37913 0.36245 0.62414 0.0
C2456 C 0.38724 0.35714 0.64234 0.0
C2457 C 0.36559 0.37547 0.59065 0.0
C2458 C 0.36136 0.38244 0.60829 0.0
C2459 C 0.36737 0.37509 0.62479 0.0
C2460 C 0.3546 0.40054 0.60993 0.0
C2461 C 0.35971 0.38315 0.57251 0.0
C2462 C 0.37076 0.42226 0.61739 0.0
C2463 C 0.3654 0.43998 0.61883 0.0
C2464 C 0.34365 0.43644 0.61287 0.0
C2465 C 0.32731 0.41456 0.60549 0.0
C2466 C 0.33275 0.39672 0.60405 0.0
H2467 H 0.36629 0.3782 0.56 0.0
H2468 H 0.34055 0.375 0.57123 0.0
H2469 H 0.36719 0.40232 0.57248 0.0
H2470 H 0.38775 0.42561 0.62195 0.0
H2471 H 0.37847 0.45654 0.62456 0.0
H2472 H 0.58963 0.89613 0.88125 0.0
H2473 H 0.62265 0.93573 0.88484 0.0
H2474 H 0.57772 0.9565 0.91191 0.0
H2475 H 0.54506 0.91723 0.90883 0.0
H2476 H 0.62574 0.97273 0.86831 0.0
H2477 H 0.63421 0.99013 0.94422 0.0
H2478 H 0.61825 0.96091 0.93492 0.0
H2479 H 0.60429 0.97809 0.93779 0.0
C2480 C 0.58694 0.90903 0.88836 0.0
C2481 C 0.56464 0.90355 0.89461 0.0
C2482 C 0.60584 0.93164 0.89043 0.0
C2483 C 0.6028 0.94904 0.89893 0.0
C2484 C 0.58074 0.94329 0.90581 0.0
H2485 H 0.62871 0.07707 0.871 0.0
H2486 H 0.6217 0.03769 0.87407 0.0
C2487 C 0.56194 0.92081 0.90379 0.0
C2488 C 0.62135 0.97386 0.89826 0.0
H2489 H 0.64279 0.02386 0.92392 0.0
C2490 C 0.6301 0.98383 0.88059 0.0
C2491 C 0.62764 0.98844 0.91428 0.0
C2492 C 0.62078 0.97873 0.93387 0.0
C2493 C 0.64261 0.00804 0.87824 0.0
C2494 C 0.64603 0.02257 0.89387 0.0
C2495 C 0.63972 0.01269 0.91186 0.0
C2496 C 0.65198 0.04708 0.89134 0.0
C2497 C 0.65081 0.01783 0.85881 0.0
C2498 C 0.67114 0.06552 0.9004 0.0
C2499 C 0.67524 0.08834 0.89872 0.0
C2500 C 0.65997 0.09289 0.88821 0.0
C2501 C 0.64087 0.07429 0.8792 0.0
C2502 C 0.63693 0.05171 0.88078 0.0
H2503 H 0.65486 0.00622 0.85036 0.0
H2504 H 0.63675 0.01913 0.85146 0.0
H2505 H 0.6665 0.03543 0.85939 0.0
H2506 H 0.68277 0.06222 0.90884 0.0
H2507 H 0.69002 0.10229 0.90591 0.0
H2508 H 0.55587 0.6291 0.38088 0.0
H2509 H 0.58884 0.62291 0.3821 0.0
H2510 H 0.63207 0.69215 0.40402 0.0
H2511 H 0.59865 0.69869 0.40292 0.0
H2512 H 0.63466 0.65198 0.36378 0.0
H2513 H 0.63748 0.64518 0.44174 0.0
H2514 H 0.61142 0.64119 0.43036 0.0
H2515 H 0.6369 0.66949 0.43095 0.0
C2516 C 0.57231 0.64316 0.38595 0.0
C2517 C 0.57457 0.66444 0.3918 0.0
C2518 C 0.5912 0.63957 0.38657 0.0
C2519 C 0.61285 0.65707 0.39309 0.0
C2520 C 0.61542 0.67843 0.39897 0.0
H2521 H 0.69718 0.58956 0.37699 0.0
H2522 H 0.69372 0.62453 0.38049 0.0
C2523 C 0.59636 0.68212 0.39832 0.0
C2524 C 0.63203 0.65186 0.39389 0.0
H2525 H 0.65345 0.62691 0.4237 0.0
C2526 C 0.63962 0.64725 0.37687 0.0
C2527 C 0.63839 0.64584 0.41103 0.0
C2528 C 0.63073 0.65062 0.42964 0.0
C2529 C 0.65105 0.6343 0.37642 0.0
C2530 C 0.65531 0.62617 0.39352 0.0
C2531 C 0.65009 0.63313 0.41063 0.0
C2532 C 0.65986 0.60647 0.39376 0.0
C2533 C 0.65619 0.62734 0.3576 0.0
C2534 C 0.64246 0.58499 0.40074 0.0
C2535 C 0.6444 0.56516 0.39887 0.0
C2536 C 0.66382 0.56628 0.38991 0.0
C2537 C 0.68188 0.58806 0.38377 0.0
C2538 C 0.67992 0.60804 0.38571 0.0
H2539 H 0.64978 0.63341 0.34568 0.0
H2540 H 0.67526 0.63496 0.35598 0.0
H2541 H 0.64802 0.60812 0.35671 0.0
H2542 H 0.62681 0.58335 0.40698 0.0
H2543 H 0.63028 0.54878 0.404 0.0
H2544 H 0.92175 0.5424 0.888 0.0
H2545 H 0.9612 0.57385 0.89382 0.0
H2546 H 0.93664 0.62283 0.89737 0.0
H2547 H 0.89656 0.59107 0.89168 0.0
H2548 H 0.97664 0.63437 0.8716 0.0
H2549 H 0.99001 0.61166 0.94358 0.0
H2550 H 0.97602 0.58686 0.92829 0.0
H2551 H 0.96148 0.60278 0.93408 0.0
C2552 C 0.92461 0.55981 0.89008 0.0
C2553 C 0.90602 0.56426 0.88927 0.0
C2554 C 0.94717 0.57774 0.89357 0.0
C2555 C 0.95175 0.60056 0.89628 0.0
C2556 C 0.93334 0.60524 0.89551 0.0
H2557 H 0.10334 0.68688 0.91405 0.0
H2558 H 0.06279 0.67821 0.91722 0.0
C2559 C 0.91053 0.58713 0.89224 0.0
C2560 C 0.97619 0.61932 0.89852 0.0
H2561 H 0.02451 0.63179 0.92412 0.0
C2562 C 0.98707 0.63443 0.88336 0.0
C2563 C 0.98971 0.61957 0.91397 0.0
C2564 C 0.97868 0.6045 0.931 0.0
C2565 C 0.01141 0.64799 0.88239 0.0
C2566 C 0.02504 0.64619 0.89686 0.0
C2567 C 0.01405 0.63301 0.91294 0.0
C2568 C 0.04995 0.65392 0.89399 0.0
C2569 C 0.02241 0.663 0.86532 0.0
C2570 C 0.05601 0.64307 0.87999 0.0
C2571 C 0.07883 0.64766 0.87835 0.0
C2572 C 0.09618 0.66334 0.89064 0.0
C2573 C 0.09032 0.67482 0.90434 0.0
C2574 C 0.06724 0.66991 0.90616 0.0
H2575 H 0.01075 0.66868 0.859 0.0
H2576 H 0.03932 0.67861 0.86887 0.0
H2577 H 0.02558 0.65278 0.85457 0.0
H2578 H 0.04287 0.63032 0.87071 0.0
H2579 H 0.08279 0.63861 0.86759 0.0
H2580 H 0.31553 0.89856 0.41226 0.0
H2581 H 0.32468 0.93918 0.41603 0.0
H2582 H 0.3764 0.96037 0.37236 0.0
H2583 H 0.36763 0.92034 0.36863 0.0
H2584 H 0.37068 0.97732 0.42533 0.0
H2585 H 0.33876 0.99271 0.35813 0.0
H2586 H 0.32816 0.96391 0.36775 0.0
H2587 H 0.3551 0.9781 0.35487 0.0
C2588 C 0.32861 0.91188 0.40331 0.0
C2589 C 0.3409 0.90627 0.39018 0.0
C2590 C 0.3338 0.93502 0.40548 0.0
C2591 C 0.35094 0.95267 0.39425 0.0
C2592 C 0.36279 0.94695 0.3809 0.0
H2593 H 0.46159 0.08236 0.394 0.0
H2594 H 0.43044 0.04267 0.39953 0.0
C2595 C 0.35788 0.92405 0.37891 0.0
C2596 C 0.35842 0.97751 0.39734 0.0
H2597 H 0.37137 0.02656 0.37257 0.0
C2598 C 0.37021 0.98806 0.41405 0.0
C2599 C 0.35752 0.9915 0.38273 0.0
C2600 C 0.34398 0.98094 0.36493 0.0
C2601 C 0.38313 0.01239 0.41572 0.0
C2602 C 0.38436 0.02636 0.40027 0.0
C2603 C 0.37059 0.01582 0.38435 0.0
C2604 C 0.40287 0.05107 0.39893 0.0
C2605 C 0.39656 0.02294 0.43357 0.0
C2606 C 0.39769 0.06903 0.39664 0.0
C2607 C 0.41564 0.09198 0.39353 0.0
C2608 C 0.43886 0.09703 0.3922 0.0
C2609 C 0.44386 0.079 0.39479 0.0
C2610 C 0.4261 0.05632 0.39814 0.0
H2611 H 0.38815 0.01129 0.4458 0.0
H2612 H 0.41435 0.02552 0.4321 0.0
H2613 H 0.3981 0.04011 0.43646 0.0
H2614 H 0.37981 0.06523 0.39698 0.0
H2615 H 0.4113 0.10555 0.39155 0.0
H2616 H 0.30302 0.40735 0.89395 0.0
H2617 H 0.31031 0.37464 0.89779 0.0
H2618 H 0.38417 0.42291 0.89895 0.0
H2619 H 0.37718 0.45533 0.89493 0.0
H2620 H 0.34026 0.36595 0.87161 0.0
H2621 H 0.37087 0.3787 0.94529 0.0
H2622 H 0.35213 0.38907 0.93642 0.0
H2623 H 0.383 0.40547 0.93231 0.0
C2624 C 0.32077 0.41091 0.8952 0.0
C2625 C 0.33955 0.43386 0.894 0.0
C2626 C 0.32487 0.39227 0.89741 0.0
C2627 C 0.34774 0.39648 0.89893 0.0
C2628 C 0.36638 0.41938 0.89812 0.0
H2629 H 0.44296 0.36366 0.86738 0.0
H2630 H 0.41059 0.37077 0.87108 0.0
C2631 C 0.36236 0.43786 0.89564 0.0
C2632 C 0.35292 0.3773 0.89972 0.0
H2633 H 0.38708 0.36163 0.92419 0.0
C2634 C 0.34979 0.36431 0.88334 0.0
C2635 C 0.36504 0.37496 0.91512 0.0
C2636 C 0.36778 0.38763 0.93337 0.0
C2637 C 0.36078 0.35107 0.88121 0.0
C2638 C 0.37527 0.35107 0.89577 0.0
C2639 C 0.37615 0.36186 0.91295 0.0
C2640 C 0.39293 0.34417 0.89224 0.0
C2641 C 0.3581 0.3385 0.86292 0.0
C2642 C 0.39383 0.32694 0.90304 0.0
C2643 C 0.41241 0.32276 0.90091 0.0
C2644 C 0.43055 0.33615 0.88825 0.0
C2645 C 0.42932 0.35311 0.87729 0.0
C2646 C 0.41069 0.35703 0.87925 0.0
H2647 H 0.34111 0.33345 0.85619 0.0
H2648 H 0.37207 0.35026 0.85311 0.0
H2649 H 0.35951 0.32267 0.86506 0.0
H2650 H 0.38042 0.31709 0.91333 0.0
H2651 H 0.41299 0.30966 0.9096 0.0
H2652 H 0.9046 0.31398 0.41015 0.0
H2653 H 0.94594 0.32631 0.41481 0.0
H2654 H 0.96512 0.38162 0.37464 0.0
H2655 H 0.92435 0.36977 0.37006 0.0
H2656 H 0.98467 0.33558 0.38751 0.0
H2657 H 0.99606 0.41314 0.42602 0.0
H2658 H 0.96788 0.38772 0.42216 0.0
H2659 H 0.98159 0.40899 0.40383 0.0
C2660 C 0.91766 0.32856 0.40215 0.0
C2661 C 0.91126 0.34112 0.38996 0.0
C2662 C 0.94119 0.33553 0.40481 0.0
C2663 C 0.95846 0.35504 0.39525 0.0
C2664 C 0.95199 0.36671 0.38232 0.0
H2665 H 0.09894 0.42406 0.36444 0.0
H2666 H 0.05851 0.3936 0.36938 0.0
C2667 C 0.92867 0.35992 0.37976 0.0
C2668 C 0.98339 0.36471 0.3995 0.0
H2669 H 0.03052 0.41545 0.41334 0.0
C2670 C 0.99478 0.35284 0.39353 0.0
C2671 C 0.99637 0.38695 0.40776 0.0
C2672 C 0.98484 0.39987 0.41549 0.0
C2673 C 0.01917 0.36345 0.39441 0.0
C2674 C 0.03233 0.38666 0.401 0.0
C2675 C 0.02063 0.39774 0.40816 0.0
C2676 C 0.05803 0.40087 0.39906 0.0
C2677 C 0.03049 0.3498 0.38804 0.0
C2678 C 0.07144 0.41501 0.41406 0.0
C2679 C 0.0942 0.43293 0.41103 0.0
C2680 C 0.10417 0.43657 0.39309 0.0
C2681 C 0.09161 0.42126 0.37845 0.0
C2682 C 0.06856 0.40372 0.38134 0.0
H2683 H 0.01903 0.33094 0.3909 0.0
H2684 H 0.03335 0.35188 0.37262 0.0
H2685 H 0.04748 0.35581 0.39509 0.0
H2686 H 0.06378 0.4132 0.42784 0.0
H2687 H 0.10366 0.44465 0.42248 0.0
H2688 H 0.30401 0.4884 0.96157 0.0
H2689 H 0.27586 0.47313 0.98688 0.0
H2690 H 0.22872 0.41573 0.95175 0.0
H2691 H 0.25665 0.43168 0.92579 0.0
H2692 H 0.20619 0.4333 0.96672 0.0
H2693 H 0.25503 0.42326 0.02449 0.0
H2694 H 0.27233 0.45218 0.01559 0.0
H2695 H 0.26551 0.42759 0.00059 0.0
C2696 C 0.28787 0.47227 0.95925 0.0
C2697 C 0.28255 0.46135 0.94156 0.0
C2698 C 0.27181 0.46336 0.9739 0.0
C2699 C 0.25026 0.44295 0.97146 0.0
C2700 C 0.24527 0.43141 0.95405 0.0
H2701 H 0.17307 0.42918 0.07514 0.0
H2702 H 0.18669 0.41452 0.04936 0.0
C2703 C 0.26126 0.44054 0.93922 0.0
C2704 C 0.23217 0.43575 0.98632 0.0
H2705 H 0.22671 0.43537 0.03397 0.0
C2706 C 0.21045 0.43308 0.98141 0.0
C2707 C 0.2371 0.43453 0.00551 0.0
C2708 C 0.25868 0.43426 0.01176 0.0
C2709 C 0.19473 0.43177 0.99521 0.0
C2710 C 0.20129 0.43415 0.01437 0.0
C2711 C 0.22183 0.43422 0.0193 0.0
C2712 C 0.18913 0.44 0.02909 0.0
C2713 C 0.17159 0.42859 0.98898 0.0
C2714 C 0.18552 0.4589 0.02626 0.0
C2715 C 0.17744 0.46705 0.04081 0.0
C2716 C 0.17334 0.45691 0.05878 0.0
C2717 C 0.1761 0.43742 0.06148 0.0
C2718 C 0.18392 0.42904 0.04676 0.0
H2719 H 0.16503 0.41703 0.97649 0.0
H2720 H 0.15832 0.42105 0.0003 0.0
H2721 H 0.17381 0.44569 0.98478 0.0
H2722 H 0.19011 0.46825 0.01305 0.0
H2723 H 0.17561 0.48213 0.03816 0.0
H2724 H 0.82435 0.25066 0.42434 0.0
H2725 H 0.80954 0.22262 0.4503 0.0
H2726 H 0.81415 0.27617 0.48741 0.0
H2727 H 0.82972 0.30431 0.46198 0.0
H2728 H 0.82379 0.24638 0.5059 0.0
H2729 H 0.74225 0.19714 0.46418 0.0
H2730 H 0.76821 0.19967 0.45409 0.0
H2731 H 0.76549 0.22515 0.45677 0.0
C2732 C 0.82272 0.25657 0.43815 0.0
C2733 C 0.82772 0.27963 0.44095 0.0
C2734 C 0.8141 0.24047 0.45294 0.0
C2735 C 0.81007 0.24712 0.47067 0.0
C2736 C 0.81692 0.27055 0.47384 0.0
H2737 H 0.70625 0.20263 0.54775 0.0
H2738 H 0.73367 0.21447 0.52194 0.0
C2739 C 0.82574 0.28664 0.45919 0.0
C2740 C 0.79642 0.22974 0.48544 0.0
H2741 H 0.7408 0.18764 0.49579 0.0
C2742 C 0.80578 0.23313 0.50365 0.0
C2743 C 0.77288 0.21248 0.48245 0.0
C2744 C 0.76147 0.20839 0.46338 0.0
C2745 C 0.79179 0.22109 0.51917 0.0
C2746 C 0.76795 0.2049 0.51628 0.0
C2747 C 0.75911 0.20007 0.4979 0.0
C2748 C 0.75103 0.19632 0.53203 0.0
C2749 C 0.80213 0.22714 0.53864 0.0
C2750 C 0.75149 0.18192 0.54632 0.0
C2751 C 0.73572 0.17513 0.56137 0.0
C2752 C 0.71931 0.18265 0.56228 0.0
C2753 C 0.7187 0.1966 0.54766 0.0
C2754 C 0.73435 0.20335 0.53279 0.0
H2755 H 0.82032 0.24191 0.53856 0.0
H2756 H 0.79151 0.23174 0.54783 0.0
H2757 H 0.8021 0.21181 0.5449 0.0
H2758 H 0.76403 0.17602 0.54586 0.0
H2759 H 0.73656 0.16426 0.57234 0.0
H2760 H 0.55411 0.74653 0.07909 0.0
H2761 H 0.56724 0.77263 0.05181 0.0
H2762 H 0.51807 0.71651 0.01671 0.0
H2763 H 0.5053 0.69032 0.04358 0.0
H2764 H 0.56029 0.74356 0.99904 0.0
H2765 H 0.52774 0.79868 0.03089 0.0
H2766 H 0.54931 0.79574 0.04395 0.0
H2767 H 0.52085 0.77089 0.0407 0.0
C2768 C 0.54633 0.73967 0.06551 0.0
C2769 C 0.5284 0.71638 0.06361 0.0
C2770 C 0.55376 0.75467 0.04995 0.0
C2771 C 0.5433 0.74665 0.0323 0.0
C2772 C 0.52632 0.72314 0.03021 0.0
H2773 H 0.50267 0.77202 0.93096 0.0
H2774 H 0.5153 0.7596 0.95854 0.0
C2775 C 0.51897 0.70817 0.04565 0.0
C2776 C 0.54866 0.76263 0.01606 0.0
H2777 H 0.53898 0.80534 0.99933 0.0
C2778 C 0.55612 0.75742 0.99921 0.0
C2779 C 0.54331 0.7808 0.01629 0.0
C2780 C 0.53471 0.78688 0.03385 0.0
C2781 C 0.55694 0.76885 0.98238 0.0
C2782 C 0.55004 0.78583 0.98239 0.0
C2783 C 0.54433 0.79234 0.99944 0.0
C2784 C 0.54447 0.7937 0.96467 0.0
C2785 C 0.56403 0.76185 0.9645 0.0
C2786 C 0.55673 0.8171 0.95894 0.0
C2787 C 0.54962 0.8243 0.94292 0.0
C2788 C 0.52983 0.80825 0.9328 0.0
C2789 C 0.5179 0.78484 0.93852 0.0
C2790 C 0.52519 0.77765 0.95421 0.0
H2791 H 0.57505 0.75397 0.96745 0.0
H2792 H 0.54819 0.74873 0.95701 0.0
H2793 H 0.57367 0.77705 0.95505 0.0
H2794 H 0.57153 0.82977 0.96698 0.0
H2795 H 0.55904 0.84246 0.93886 0.0
H2796 H 0.82789 0.52403 0.53593 0.0
H2797 H 0.81328 0.53657 0.5098 0.0
H2798 H 0.79912 0.57905 0.54734 0.0
H2799 H 0.81326 0.56601 0.57386 0.0
H2800 H 0.76155 0.55044 0.52835 0.0
H2801 H 0.83281 0.59219 0.47714 0.0
H2802 H 0.83005 0.56505 0.48429 0.0
H2803 H 0.83795 0.5879 0.50137 0.0
C2804 C 0.82221 0.53649 0.53863 0.0
C2805 C 0.82149 0.54378 0.55706 0.0
C2806 C 0.81409 0.54389 0.52357 0.0
C2807 C 0.80533 0.559 0.5265 0.0
C2808 C 0.80594 0.5675 0.54471 0.0
H2809 H 0.73479 0.5667 0.42317 0.0
H2810 H 0.76016 0.58216 0.45093 0.0
C2811 C 0.81406 0.56005 0.55986 0.0
C2812 C 0.79224 0.56258 0.51116 0.0
H2813 H 0.79331 0.57023 0.46363 0.0
C2814 C 0.76873 0.55547 0.51432 0.0
C2815 C 0.80155 0.56956 0.49285 0.0
C2816 C 0.82707 0.57935 0.4888 0.0
C2817 C 0.75383 0.55292 0.4994 0.0
C2818 C 0.76257 0.55716 0.48082 0.0
C2819 C 0.78651 0.56654 0.47785 0.0
C2820 C 0.74671 0.54863 0.4644 0.0
C2821 C 0.72857 0.54455 0.50356 0.0
C2822 C 0.73102 0.52471 0.46273 0.0
C2823 C 0.71674 0.51588 0.44701 0.0
C2824 C 0.71786 0.53075 0.43246 0.0
C2825 C 0.73349 0.55481 0.43416 0.0
C2826 C 0.74797 0.56366 0.44997 0.0
H2827 H 0.72642 0.55 0.51784 0.0
H2828 H 0.72097 0.55128 0.49311 0.0
H2829 H 0.71863 0.52525 0.5031 0.0
H2830 H 0.73012 0.51273 0.47349 0.0
H2831 H 0.70491 0.49729 0.44623 0.0
H2832 H 0.18058 0.74658 0.92532 0.0
H2833 H 0.19351 0.7742 0.95155 0.0
H2834 H 0.19751 0.72366 0.9871 0.0
H2835 H 0.18399 0.69585 0.96134 0.0
H2836 H 0.18201 0.74923 0.0063 0.0
H2837 H 0.262 0.80693 0.96511 0.0
H2838 H 0.23466 0.80079 0.95511 0.0
H2839 H 0.24142 0.77787 0.95746 0.0
C2840 C 0.18383 0.74122 0.93883 0.0
C2841 C 0.18169 0.71915 0.94112 0.0
C2842 C 0.19131 0.75707 0.95377 0.0
C2843 C 0.19699 0.75118 0.97114 0.0
C2844 C 0.19332 0.72863 0.97379 0.0
H2845 H 0.29811 0.79939 0.04915 0.0
H2846 H 0.27165 0.78779 0.02263 0.0
C2847 C 0.18568 0.71275 0.95898 0.0
C2848 C 0.20899 0.76876 0.9861 0.0
H2849 H 0.26235 0.81474 0.99704 0.0
C2850 C 0.19935 0.76395 0.00425 0.0
C2851 C 0.23163 0.78796 0.98333 0.0
C2852 C 0.2432 0.79374 0.96426 0.0
C2853 C 0.21247 0.77658 0.01991 0.0
C2854 C 0.23566 0.79469 0.01725 0.0
C2855 C 0.24453 0.80085 0.99895 0.0
C2856 C 0.25237 0.80382 0.03306 0.0
C2857 C 0.20219 0.76918 0.03931 0.0
C2858 C 0.25057 0.81708 0.04766 0.0
C2859 C 0.26579 0.82376 0.06307 0.0
C2860 C 0.28287 0.81713 0.06403 0.0
C2861 C 0.285 0.80456 0.04901 0.0
C2862 C 0.26995 0.798 0.03375 0.0
H2863 H 0.18448 0.75361 0.03899 0.0
H2864 H 0.21357 0.76521 0.04814 0.0
H2865 H 0.20106 0.78362 0.04613 0.0
H2866 H 0.23726 0.82196 0.04726 0.0
H2867 H 0.26381 0.83355 0.07439 0.0
H2868 H 0.43309 0.26064 0.57142 0.0
H2869 H 0.4193 0.23664 0.54273 0.0
H2870 H 0.48995 0.26827 0.52262 0.0
H2871 H 0.5037 0.29209 0.55074 0.0
H2872 H 0.45581 0.26441 0.4953 0.0
H2873 H 0.43207 0.18144 0.53247 0.0
H2874 H 0.42042 0.19928 0.54058 0.0
H2875 H 0.45083 0.20928 0.54332 0.0
C2876 C 0.44558 0.26253 0.56077 0.0
C2877 C 0.46951 0.27804 0.56344 0.0
C2878 C 0.43771 0.24879 0.54447 0.0
C2879 C 0.45367 0.2506 0.53067 0.0
C2880 C 0.47736 0.2666 0.53311 0.0
H2881 H 0.49381 0.18596 0.4553 0.0
H2882 H 0.47967 0.19888 0.4816 0.0
C2883 C 0.4852 0.28012 0.54928 0.0
C2884 C 0.44658 0.23549 0.51383 0.0
H2885 H 0.43697 0.18223 0.49981 0.0
C2886 C 0.45096 0.24621 0.49614 0.0
C2887 C 0.44038 0.21183 0.51512 0.0
C2888 C 0.43566 0.19962 0.53384 0.0
C2889 C 0.45133 0.23451 0.47983 0.0
C2890 C 0.44677 0.21132 0.48129 0.0
C2891 C 0.44044 0.19999 0.49877 0.0
C2892 C 0.45253 0.20021 0.46573 0.0
C2893 C 0.45864 0.24775 0.46151 0.0
C2894 C 0.44148 0.19593 0.44817 0.0
C2895 C 0.44972 0.18871 0.43295 0.0
C2896 C 0.46905 0.18555 0.43511 0.0
C2897 C 0.47907 0.18846 0.45304 0.0
C2898 C 0.47091 0.19573 0.46815 0.0
H2899 H 0.46464 0.26654 0.4634 0.0
H2900 H 0.47289 0.2461 0.4549 0.0
H2901 H 0.44366 0.24039 0.45167 0.0
H2902 H 0.42699 0.19887 0.44609 0.0
H2903 H 0.44143 0.18637 0.41939 0.0
H2904 H 0.70444 0.49685 0.0471 0.0
H2905 H 0.72992 0.51056 0.01993 0.0
H2906 H 0.7597 0.58134 0.03939 0.0
H2907 H 0.73413 0.5676 0.06716 0.0
H2908 H 0.73448 0.54297 0.99181 0.0
H2909 H 0.81639 0.57116 0.03209 0.0
H2910 H 0.78819 0.55244 0.04239 0.0
H2911 H 0.79787 0.58265 0.03861 0.0
C2912 C 0.71635 0.51537 0.04571 0.0
C2913 C 0.71741 0.5311 0.05945 0.0
C2914 C 0.73085 0.52319 0.03007 0.0
C2915 C 0.74682 0.54692 0.02772 0.0
C2916 C 0.74765 0.5629 0.04109 0.0
H2917 H 0.81623 0.56198 0.91857 0.0
H2918 H 0.80172 0.57527 0.94468 0.0
C2919 C 0.73298 0.55504 0.05687 0.0
C2920 C 0.76276 0.55411 0.01138 0.0
H2921 H 0.81785 0.5673 0.99947 0.0
C2922 C 0.75288 0.54891 0.99335 0.0
C2923 C 0.7867 0.56175 0.01355 0.0
C2924 C 0.79806 0.56729 0.03267 0.0
C2925 C 0.76579 0.54929 0.9776 0.0
C2926 C 0.78942 0.5556 0.97993 0.0
C2927 C 0.79977 0.56255 0.99775 0.0
C2928 C 0.80228 0.55121 0.96492 0.0
C2929 C 0.75346 0.54104 0.95895 0.0
C2930 C 0.80873 0.5343 0.96792 0.0
C2931 C 0.81724 0.52687 0.95316 0.0
C2932 C 0.81938 0.53612 0.935 0.0
C2933 C 0.81451 0.55428 0.93232 0.0
C2934 C 0.80611 0.56183 0.9472 0.0
H2935 H 0.73432 0.53335 0.96029 0.0
H2936 H 0.75996 0.55597 0.94912 0.0
H2937 H 0.75698 0.5278 0.95265 0.0
H2938 H 0.80603 0.52593 0.9815 0.0
H2939 H 0.82107 0.51306 0.95582 0.0
H2940 H 0.17381 0.73832 0.57462 0.0
H2941 H 0.18382 0.76319 0.54653 0.0
H2942 H 0.22076 0.73061 0.52381 0.0
H2943 H 0.21094 0.70594 0.55147 0.0
H2944 H 0.23 0.7948 0.5337 0.0
H2945 H 0.17972 0.72869 0.47975 0.0
H2946 H 0.17297 0.72378 0.50452 0.0
H2947 H 0.19557 0.7196 0.49457 0.0
C2948 C 0.18382 0.73632 0.5635 0.0
C2949 C 0.19168 0.72025 0.56529 0.0
C2950 C 0.18952 0.75052 0.54751 0.0
C2951 C 0.20272 0.74847 0.533 0.0
C2952 C 0.21017 0.73216 0.53468 0.0
H2953 H 0.30907 0.82426 0.46041 0.0
H2954 H 0.28228 0.81062 0.48684 0.0
C2955 C 0.2047 0.71821 0.5506 0.0
C2956 C 0.2105 0.76426 0.51658 0.0
H2957 H 0.21531 0.76266 0.46901 0.0
C2958 C 0.22631 0.78797 0.51949 0.0
C2959 C 0.2053 0.75547 0.49804 0.0
C2960 C 0.18725 0.73052 0.49402 0.0
C2961 C 0.23881 0.80259 0.50442 0.0
C2962 C 0.23562 0.79307 0.48614 0.0
C2963 C 0.21806 0.76995 0.48305 0.0
C2964 C 0.25236 0.80536 0.47069 0.0
C2965 C 0.25599 0.82782 0.50838 0.0
C2966 C 0.24456 0.80705 0.45272 0.0
C2967 C 0.25988 0.81464 0.43743 0.0
C2968 C 0.28322 0.82041 0.43983 0.0
C2969 C 0.29121 0.81988 0.45803 0.0
C2970 C 0.27592 0.81231 0.47325 0.0
H2971 H 0.25002 0.83433 0.52031 0.0
H2972 H 0.27294 0.82957 0.51243 0.0
H2973 H 0.25867 0.83892 0.49589 0.0
H2974 H 0.22641 0.8016 0.4504 0.0
H2975 H 0.25315 0.81487 0.42361 0.0
H2976 H 0.49063 0.19891 0.04387 0.0
H2977 H 0.4744 0.20965 0.0178 0.0
H2978 H 0.40793 0.17893 0.04585 0.0
H2979 H 0.42437 0.16827 0.07257 0.0
H2980 H 0.43618 0.18294 0.99407 0.0
H2981 H 0.42518 0.24744 0.03656 0.0
H2982 H 0.44224 0.23509 0.04515 0.0
H2983 H 0.41115 0.21754 0.04409 0.0
C2984 C 0.47251 0.19429 0.04456 0.0
C2985 C 0.45888 0.18305 0.06043 0.0
C2986 C 0.46321 0.20032 0.02955 0.0
C2987 C 0.44005 0.1953 0.02997 0.0
C2988 C 0.42594 0.18319 0.04539 0.0
H2989 H 0.42912 0.25544 0.92279 0.0
H2990 H 0.4123 0.22763 0.94876 0.0
C2991 C 0.43531 0.17703 0.06056 0.0
C2992 C 0.43193 0.20439 0.01449 0.0
H2993 H 0.42693 0.25184 0.0039 0.0
C2994 C 0.43338 0.19756 0.99611 0.0
C2995 C 0.42829 0.22341 0.01733 0.0
C2996 C 0.42665 0.23148 0.0368 0.0
C2997 C 0.43395 0.2108 0.98055 0.0
C2998 C 0.43229 0.23104 0.98349 0.0
C2999 C 0.42829 0.23638 0.00172 0.0
C3000 C 0.43925 0.24905 0.96868 0.0
C3001 C 0.43867 0.20429 0.96137 0.0
C3002 C 0.45912 0.27088 0.9716 0.0
C3003 C 0.46854 0.2869 0.95695 0.0
C3004 C 0.4584 0.28133 0.93898 0.0
C3005 C 0.43758 0.26009 0.9364 0.0
C3006 C 0.42798 0.24413 0.95119 0.0
H3007 H 0.44281 0.19002 0.96205 0.0
H3008 H 0.42306 0.19836 0.95237 0.0
H3009 H 0.45343 0.21956 0.9545 0.0
H3010 H 0.46809 0.2751 0.98499 0.0
H3011 H 0.48445 0.30317 0.95952 0.0
H3012 H 0.20369 0.50518 0.45012 0.0
H3013 H 0.21857 0.49309 0.47651 0.0
H3014 H 0.20254 0.42989 0.44724 0.0
H3015 H 0.18701 0.44178 0.42064 0.0
H3016 H 0.19373 0.42453 0.48759 0.0
H3017 H 0.28192 0.49642 0.47034 0.0
H3018 H 0.2614 0.50632 0.473 0.0
H3019 H 0.25777 0.48655 0.45426 0.0
C3020 C 0.20308 0.48857 0.44933 0.0
C3021 C 0.19456 0.4746 0.43319 0.0
C3022 C 0.2116 0.4817 0.46443 0.0
C3023 C 0.21216 0.46088 0.46364 0.0
C3024 C 0.20241 0.44613 0.44804 0.0
H3025 H 0.31139 0.46343 0.54439 0.0
H3026 H 0.28861 0.45356 0.51539 0.0
C3027 C 0.19355 0.45292 0.43289 0.0
C3028 C 0.22447 0.45577 0.47865 0.0
H3029 H 0.27661 0.48064 0.50136 0.0
C3030 C 0.21196 0.43651 0.49048 0.0
C3031 C 0.24838 0.47108 0.48213 0.0
C3032 C 0.26322 0.49111 0.46914 0.0
C3033 C 0.22247 0.43299 0.50639 0.0
C3034 C 0.2459 0.44951 0.51077 0.0
C3035 C 0.25863 0.46798 0.49824 0.0
C3036 C 0.25738 0.44934 0.52875 0.0
C3037 C 0.20831 0.41167 0.51831 0.0
C3038 C 0.24717 0.44914 0.54613 0.0
C3039 C 0.26001 0.45408 0.5628 0.0
C3040 C 0.28347 0.45995 0.56229 0.0
C3041 C 0.29329 0.45887 0.54513 0.0
C3042 C 0.28028 0.45332 0.52856 0.0
H3043 H 0.19521 0.39702 0.50966 0.0
H3044 H 0.21946 0.40599 0.52552 0.0
H3045 H 0.19871 0.41565 0.52909 0.0
H3046 H 0.22985 0.44684 0.54673 0.0
H3047 H 0.25219 0.45523 0.57583 0.0
H3048 H 0.82399 0.25527 0.07499 0.0
H3049 H 0.81309 0.22992 0.04707 0.0
H3050 H 0.7841 0.26876 0.02153 0.0
H3051 H 0.79491 0.29388 0.04888 0.0
H3052 H 0.76777 0.20185 0.03297 0.0
H3053 H 0.82307 0.2649 0.97902 0.0
H3054 H 0.8291 0.27019 0.00386 0.0
H3055 H 0.80854 0.27654 0.99266 0.0
C3056 C 0.81561 0.25854 0.06326 0.0
C3057 C 0.8102 0.27649 0.06418 0.0
C3058 C 0.80938 0.24406 0.04737 0.0
C3059 C 0.79813 0.2477 0.03209 0.0
C3060 C 0.79323 0.26592 0.03293 0.0
H3061 H 0.69006 0.17566 0.95917 0.0
H3062 H 0.7168 0.18867 0.9856 0.0
C3063 C 0.79922 0.28014 0.04871 0.0
C3064 C 0.7895 0.23168 0.01576 0.0
H3065 H 0.7856 0.23327 0.96806 0.0
C3066 C 0.77211 0.20848 0.01873 0.0
C3067 C 0.79551 0.24008 0.99715 0.0
C3068 C 0.81528 0.26424 0.99299 0.0
C3069 C 0.75899 0.19425 0.00366 0.0
C3070 C 0.76308 0.20368 0.98528 0.0
C3071 C 0.78208 0.22607 0.98216 0.0
C3072 C 0.74621 0.1922 0.96968 0.0
C3073 C 0.74034 0.16955 0.00773 0.0
C3074 C 0.75373 0.18988 0.95176 0.0
C3075 C 0.73844 0.18273 0.93642 0.0
C3076 C 0.71539 0.17794 0.9387 0.0
C3077 C 0.70767 0.17922 0.95684 0.0
C3078 C 0.72293 0.18643 0.97209 0.0
H3079 H 0.74547 0.1623 0.01968 0.0
H3080 H 0.72409 0.16932 0.01182 0.0
H3081 H 0.7367 0.15812 0.9953 0.0
H3082 H 0.77165 0.1944 0.94951 0.0
H3083 H 0.74498 0.18191 0.92266 0.0
H3084 H 0.52233 0.69819 0.46296 0.0
H3085 H 0.53567 0.72688 0.48801 0.0
H3086 H 0.58712 0.77829 0.45093 0.0
H3087 H 0.57318 0.74973 0.42533 0.0
H3088 H 0.57557 0.75515 0.50665 0.0
H3089 H 0.54835 0.80764 0.46355 0.0
H3090 H 0.54191 0.77896 0.45652 0.0
H3091 H 0.5709 0.80326 0.45398 0.0
C3092 C 0.53669 0.71549 0.4601 0.0
C3093 C 0.54629 0.7218 0.44196 0.0
C3094 C 0.5444 0.73189 0.47452 0.0
C3095 C 0.56201 0.75491 0.47124 0.0
C3096 C 0.57307 0.76079 0.45363 0.0
H3097 H 0.57312 0.83902 0.57235 0.0
H3098 H 0.58881 0.8269 0.5461 0.0
C3099 C 0.56517 0.7444 0.43905 0.0
C3100 C 0.56659 0.77278 0.48576 0.0
H3101 H 0.55592 0.81702 0.49523 0.0
C3102 C 0.57184 0.76907 0.50412 0.0
C3103 C 0.56169 0.79094 0.48238 0.0
C3104 C 0.55525 0.79546 0.46311 0.0
C3105 C 0.57037 0.78167 0.51942 0.0
C3106 C 0.56398 0.79875 0.51615 0.0
C3107 C 0.56082 0.8039 0.49762 0.0
C3108 C 0.55582 0.80792 0.53158 0.0
C3109 C 0.57371 0.77527 0.53906 0.0
C3110 C 0.53234 0.80182 0.53183 0.0
C3111 C 0.52345 0.80876 0.54658 0.0
C3112 C 0.53781 0.82198 0.56155 0.0
C3113 C 0.56157 0.82872 0.56109 0.0
C3114 C 0.57053 0.82173 0.54617 0.0
H3115 H 0.57625 0.75994 0.53924 0.0
H3116 H 0.58924 0.79018 0.5455 0.0
H3117 H 0.55842 0.77136 0.54794 0.0
H3118 H 0.52066 0.79117 0.52074 0.0
H3119 H 0.50512 0.80339 0.54633 0.0
loop_
_geom_bond_atom_site_label_1
_geom_bond_atom_site_label_2
_geom_bond_distance
_geom_bond_site_symmetry_2
_ccdc_geom_bond_type
Fe0 O2 1.918 . S
Fe0 O5 1.997 . S
Fe0 O6 2.002 . S
Fe0 O11 1.976 . S
Fe0 O14 1.996 . S
Fe1 O2 1.918 . S
Fe1 O9 1.997 . S
Fe1 O12 1.996 . S
Fe1 O16 1.976 . S
Fe1 O19 2.002 . S
O2 Fe0 1.918 . S
O2 Fe1 1.918 . S
O2 Fe3 1.918 . S
Fe3 O2 1.918 . S
Fe3 O4 2.002 . S
Fe3 O13 1.976 . S
Fe3 O17 1.996 . S
Fe3 O20 1.997 . S
O4 Fe3 2.002 . S
O4 C21 1.295 . S
O5 Fe0 1.997 . S
O5 C21 1.235 . S
O6 Fe0 2.002 . S
O6 C7 1.295 . S
C7 O6 1.295 . S
C7 O9 1.235 . S
C8 O13 1.287 . S
C8 O14 1.255 . S
O9 Fe1 1.997 . S
O9 C7 1.235 . S
C10 O16 1.287 . S
C10 O17 1.255 . S
O11 Fe0 1.976 . S
O11 C18 1.287 . S
O12 Fe1 1.996 . S
O12 C18 1.255 . S
O13 Fe3 1.976 . S
O13 C8 1.287 . S
O14 Fe0 1.996 . S
O14 C8 1.255 . S
C15 O19 1.295 . S
C15 O20 1.235 . S
O16 Fe1 1.976 . S
O16 C10 1.287 . S
O17 Fe3 1.996 . S
O17 C10 1.255 . S
C18 O11 1.287 . S
C18 O12 1.255 . S
O19 Fe1 2.002 . S
O19 C15 1.295 . S
O20 Fe3 1.997 . S
O20 C15 1.235 . S
C21 O4 1.295 . S
C21 O5 1.235 . S
Fe22 O24 1.918 . S
Fe22 O27 1.997 . S
Fe22 O28 2.002 . S
Fe22 O33 1.976 . S
Fe22 O36 1.996 . S
Fe23 O24 1.918 . S
Fe23 O31 1.997 . S
Fe23 O34 1.996 . S
Fe23 O38 1.976 . S
Fe23 O41 2.002 . S
O24 Fe22 1.918 . S
O24 Fe23 1.918 . S
O24 Fe25 1.918 . S
Fe25 O24 1.918 . S
Fe25 O26 2.002 . S
Fe25 O35 1.976 . S
Fe25 O39 1.996 . S
Fe25 O42 1.997 . S
O26 Fe25 2.002 . S
O26 C43 1.295 . S
O27 Fe22 1.997 . S
O27 C43 1.235 . S
O28 Fe22 2.002 . S
O28 C29 1.295 . S
C29 O28 1.295 . S
C29 O31 1.235 . S
C30 O35 1.287 . S
C30 O36 1.255 . S
O31 Fe23 1.997 . S
O31 C29 1.235 . S
C32 O38 1.287 . S
C32 O39 1.255 . S
O33 Fe22 1.976 . S
O33 C40 1.287 . S
O34 Fe23 1.996 . S
O34 C40 1.255 . S
O35 Fe25 1.976 . S
O35 C30 1.287 . S
O36 Fe22 1.996 . S
O36 C30 1.255 . S
C37 O41 1.295 . S
C37 O42 1.235 . S
O38 Fe23 1.976 . S
O38 C32 1.287 . S
O39 Fe25 1.996 . S
O39 C32 1.255 . S
C40 O33 1.287 . S
C40 O34 1.255 . S
O41 Fe23 2.002 . S
O41 C37 1.295 . S
O42 Fe25 1.997 . S
O42 C37 1.235 . S
C43 O26 1.295 . S
C43 O27 1.235 . S
Fe44 O46 1.918 . S
Fe44 O49 1.997 . S
Fe44 O50 2.002 . S
Fe44 O55 1.976 . S
Fe44 O58 1.996 . S
Fe45 O46 1.918 . S
Fe45 O53 1.997 . S
Fe45 O56 1.996 . S
Fe45 O60 1.976 . S
Fe45 O63 2.002 . S
O46 Fe44 1.918 . S
O46 Fe45 1.918 . S
O46 Fe47 1.918 . S
Fe47 O46 1.918 . S
Fe47 O48 2.002 . S
Fe47 O57 1.976 . S
Fe47 O61 1.996 . S
Fe47 O64 1.997 . S
O48 Fe47 2.002 . S
O48 C65 1.295 . S
O49 Fe44 1.997 . S
O49 C65 1.235 . S
O50 Fe44 2.002 . S
O50 C51 1.295 . S
C51 O50 1.295 . S
C51 O53 1.235 . S
C52 O57 1.287 . S
C52 O58 1.255 . S
O53 Fe45 1.997 . S
O53 C51 1.235 . S
C54 O60 1.287 . S
C54 O61 1.255 . S
O55 Fe44 1.976 . S
O55 C62 1.287 . S
O56 Fe45 1.996 . S
O56 C62 1.255 . S
O57 Fe47 1.976 . S
O57 C52 1.287 . S
O58 Fe44 1.996 . S
O58 C52 1.255 . S
C59 O63 1.295 . S
C59 O64 1.235 . S
O60 Fe45 1.976 . S
O60 C54 1.287 . S
O61 Fe47 1.996 . S
O61 C54 1.255 . S
C62 O55 1.287 . S
C62 O56 1.255 . S
O63 Fe45 2.002 . S
O63 C59 1.295 . S
O64 Fe47 1.997 . S
O64 C59 1.235 . S
C65 O48 1.295 . S
C65 O49 1.235 . S
Fe66 O68 1.918 . S
Fe66 O71 1.997 . S
Fe66 O72 2.002 . S
Fe66 O77 1.976 . S
Fe66 O80 1.996 . S
Fe67 O68 1.918 . S
Fe67 O75 1.997 . S
Fe67 O78 1.996 . S
Fe67 O82 1.976 . S
Fe67 O85 2.002 . S
O68 Fe66 1.918 . S
O68 Fe67 1.918 . S
O68 Fe69 1.918 . S
Fe69 O68 1.918 . S
Fe69 O70 2.002 . S
Fe69 O79 1.976 . S
Fe69 O83 1.996 . S
Fe69 O86 1.997 . S
O70 Fe69 2.002 . S
O70 C87 1.295 . S
O71 Fe66 1.997 . S
O71 C87 1.235 . S
O72 Fe66 2.002 . S
O72 C73 1.295 . S
C73 O72 1.295 . S
C73 O75 1.235 . S
C74 O79 1.287 . S
C74 O80 1.255 . S
O75 Fe67 1.997 . S
O75 C73 1.235 . S
C76 O82 1.287 . S
C76 O83 1.255 . S
O77 Fe66 1.976 . S
O77 C84 1.287 . S
O78 Fe67 1.996 . S
O78 C84 1.255 . S
O79 Fe69 1.976 . S
O79 C74 1.287 . S
O80 Fe66 1.996 . S
O80 C74 1.255 . S
C81 O85 1.295 . S
C81 O86 1.235 . S
O82 Fe67 1.976 . S
O82 C76 1.287 . S
O83 Fe69 1.996 . S
O83 C76 1.255 . S
C84 O77 1.287 . S
C84 O78 1.255 . S
O85 Fe67 2.002 . S
O85 C81 1.295 . S
O86 Fe69 1.997 . S
O86 C81 1.235 . S
C87 O70 1.295 . S
C87 O71 1.235 . S
Fe88 O90 1.918 . S
Fe88 O93 1.997 . S
Fe88 O94 2.002 . S
Fe88 O99 1.976 . S
Fe88 O102 1.996 . S
Fe89 O90 1.918 . S
Fe89 O97 1.997 . S
Fe89 O100 1.996 . S
Fe89 O104 1.976 . S
Fe89 O107 2.002 . S
O90 Fe88 1.918 . S
O90 Fe89 1.918 . S
O90 Fe91 1.918 . S
Fe91 O90 1.918 . S
Fe91 O92 2.002 . S
Fe91 O101 1.976 . S
Fe91 O105 1.996 . S
Fe91 O108 1.997 . S
O92 Fe91 2.002 . S
O92 C109 1.295 . S
O93 Fe88 1.997 . S
O93 C109 1.235 . S
O94 Fe88 2.002 . S
O94 C95 1.295 . S
C95 O94 1.295 . S
C95 O97 1.235 . S
C96 O101 1.287 . S
C96 O102 1.255 . S
O97 Fe89 1.997 . S
O97 C95 1.235 . S
C98 O104 1.287 . S
C98 O105 1.255 . S
O99 Fe88 1.976 . S
O99 C106 1.287 . S
O100 Fe89 1.996 . S
O100 C106 1.255 . S
O101 Fe91 1.976 . S
O101 C96 1.287 . S
O102 Fe88 1.996 . S
O102 C96 1.255 . S
C103 O107 1.295 . S
C103 O108 1.235 . S
O104 Fe89 1.976 . S
O104 C98 1.287 . S
O105 Fe91 1.996 . S
O105 C98 1.255 . S
C106 O99 1.287 . S
C106 O100 1.255 . S
O107 Fe89 2.002 . S
O107 C103 1.295 . S
O108 Fe91 1.997 . S
O108 C103 1.235 . S
C109 O92 1.295 . S
C109 O93 1.235 . S
Fe110 O112 1.918 . S
Fe110 O115 1.997 . S
Fe110 O116 2.002 . S
Fe110 O121 1.976 . S
Fe110 O124 1.996 . S
Fe111 O112 1.918 . S
Fe111 O119 1.997 . S
Fe111 O122 1.996 . S
Fe111 O126 1.976 . S
Fe111 O129 2.002 . S
O112 Fe110 1.918 . S
O112 Fe111 1.918 . S
O112 Fe113 1.918 . S
Fe113 O112 1.918 . S
Fe113 O114 2.002 . S
Fe113 O123 1.976 . S
Fe113 O127 1.996 . S
Fe113 O130 1.997 . S
O114 Fe113 2.002 . S
O114 C131 1.295 . S
O115 Fe110 1.997 . S
O115 C131 1.235 . S
O116 Fe110 2.002 . S
O116 C117 1.295 . S
C117 O116 1.295 . S
C117 O119 1.235 . S
C118 O123 1.287 . S
C118 O124 1.255 . S
O119 Fe111 1.997 . S
O119 C117 1.235 . S
C120 O126 1.287 . S
C120 O127 1.255 . S
O121 Fe110 1.976 . S
O121 C128 1.287 . S
O122 Fe111 1.996 . S
O122 C128 1.255 . S
O123 Fe113 1.976 . S
O123 C118 1.287 . S
O124 Fe110 1.996 . S
O124 C118 1.255 . S
C125 O129 1.295 . S
C125 O130 1.235 . S
O126 Fe111 1.976 . S
O126 C120 1.287 . S
O127 Fe113 1.996 . S
O127 C120 1.255 . S
C128 O121 1.287 . S
C128 O122 1.255 . S
O129 Fe111 2.002 . S
O129 C125 1.295 . S
O130 Fe113 1.997 . S
O130 C125 1.235 . S
C131 O114 1.295 . S
C131 O115 1.235 . S
Fe132 O134 1.918 . S
Fe132 O137 1.997 . S
Fe132 O138 2.002 . S
Fe132 O143 1.976 . S
Fe132 O146 1.996 . S
Fe133 O134 1.918 . S
Fe133 O141 1.997 . S
Fe133 O144 1.996 . S
Fe133 O148 1.976 . S
Fe133 O151 2.002 . S
O134 Fe132 1.918 . S
O134 Fe133 1.918 . S
O134 Fe135 1.918 . S
Fe135 O134 1.918 . S
Fe135 O136 2.002 . S
Fe135 O145 1.976 . S
Fe135 O149 1.996 . S
Fe135 O152 1.997 . S
O136 Fe135 2.002 . S
O136 C153 1.295 . S
O137 Fe132 1.997 . S
O137 C153 1.235 . S
O138 Fe132 2.002 . S
O138 C139 1.295 . S
C139 O138 1.295 . S
C139 O141 1.235 . S
C140 O145 1.287 . S
C140 O146 1.255 . S
O141 Fe133 1.997 . S
O141 C139 1.235 . S
C142 O148 1.287 . S
C142 O149 1.255 . S
O143 Fe132 1.976 . S
O143 C150 1.287 . S
O144 Fe133 1.996 . S
O144 C150 1.255 . S
O145 Fe135 1.976 . S
O145 C140 1.287 . S
O146 Fe132 1.996 . S
O146 C140 1.255 . S
C147 O151 1.295 . S
C147 O152 1.235 . S
O148 Fe133 1.976 . S
O148 C142 1.287 . S
O149 Fe135 1.996 . S
O149 C142 1.255 . S
C150 O143 1.287 . S
C150 O144 1.255 . S
O151 Fe133 2.002 . S
O151 C147 1.295 . S
O152 Fe135 1.997 . S
O152 C147 1.235 . S
C153 O136 1.295 . S
C153 O137 1.235 . S
Fe154 O156 1.918 . S
Fe154 O159 1.997 . S
Fe154 O160 2.002 . S
Fe154 O165 1.976 . S
Fe154 O168 1.996 . S
Fe155 O156 1.918 . S
Fe155 O163 1.997 . S
Fe155 O166 1.996 . S
Fe155 O170 1.976 . S
Fe155 O173 2.002 . S
O156 Fe154 1.918 . S
O156 Fe155 1.918 . S
O156 Fe157 1.918 . S
Fe157 O156 1.918 . S
Fe157 O158 2.002 . S
Fe157 O167 1.976 . S
Fe157 O171 1.996 . S
Fe157 O174 1.997 . S
O158 Fe157 2.002 . S
O158 C175 1.295 . S
O159 Fe154 1.997 . S
O159 C175 1.235 . S
O160 Fe154 2.002 . S
O160 C161 1.295 . S
C161 O160 1.295 . S
C161 O163 1.235 . S
C162 O167 1.287 . S
C162 O168 1.255 . S
O163 Fe155 1.997 . S
O163 C161 1.235 . S
C164 O170 1.287 . S
C164 O171 1.255 . S
O165 Fe154 1.976 . S
O165 C172 1.287 . S
O166 Fe155 1.996 . S
O166 C172 1.255 . S
O167 Fe157 1.976 . S
O167 C162 1.287 . S
O168 Fe154 1.996 . S
O168 C162 1.255 . S
C169 O173 1.295 . S
C169 O174 1.235 . S
O170 Fe155 1.976 . S
O170 C164 1.287 . S
O171 Fe157 1.996 . S
O171 C164 1.255 . S
C172 O165 1.287 . S
C172 O166 1.255 . S
O173 Fe155 2.002 . S
O173 C169 1.295 . S
O174 Fe157 1.997 . S
O174 C169 1.235 . S
C175 O158 1.295 . S
C175 O159 1.235 . S
Fe176 O178 1.918 . S
Fe176 O181 1.997 . S
Fe176 O182 2.002 . S
Fe176 O187 1.976 . S
Fe176 O190 1.996 . S
Fe177 O178 1.918 . S
Fe177 O185 1.997 . S
Fe177 O188 1.996 . S
Fe177 O192 1.976 . S
Fe177 O195 2.002 . S
O178 Fe176 1.918 . S
O178 Fe177 1.918 . S
O178 Fe179 1.918 . S
Fe179 O178 1.918 . S
Fe179 O180 2.002 . S
Fe179 O189 1.976 . S
Fe179 O193 1.996 . S
Fe179 O196 1.997 . S
O180 Fe179 2.002 . S
O180 C197 1.295 . S
O181 Fe176 1.997 . S
O181 C197 1.235 . S
O182 Fe176 2.002 . S
O182 C183 1.295 . S
C183 O182 1.295 . S
C183 O185 1.235 . S
C184 O189 1.287 . S
C184 O190 1.255 . S
O185 Fe177 1.997 . S
O185 C183 1.235 . S
C186 O192 1.287 . S
C186 O193 1.255 . S
O187 Fe176 1.976 . S
O187 C194 1.287 . S
O188 Fe177 1.996 . S
O188 C194 1.255 . S
O189 Fe179 1.976 . S
O189 C184 1.287 . S
O190 Fe176 1.996 . S
O190 C184 1.255 . S
C191 O195 1.295 . S
C191 O196 1.235 . S
O192 Fe177 1.976 . S
O192 C186 1.287 . S
O193 Fe179 1.996 . S
O193 C186 1.255 . S
C194 O187 1.287 . S
C194 O188 1.255 . S
O195 Fe177 2.002 . S
O195 C191 1.295 . S
O196 Fe179 1.997 . S
O196 C191 1.235 . S
C197 O180 1.295 . S
C197 O181 1.235 . S
Fe198 O200 1.918 . S
Fe198 O203 1.997 . S
Fe198 O204 2.002 . S
Fe198 O209 1.976 . S
Fe198 O212 1.996 . S
Fe199 O200 1.918 . S
Fe199 O207 1.997 . S
Fe199 O210 1.996 . S
Fe199 O214 1.976 . S
Fe199 O217 2.002 . S
O200 Fe198 1.918 . S
O200 Fe199 1.918 . S
O200 Fe201 1.918 . S
Fe201 O200 1.918 . S
Fe201 O202 2.002 . S
Fe201 O211 1.976 . S
Fe201 O215 1.996 . S
Fe201 O218 1.997 . S
O202 Fe201 2.002 . S
O202 C219 1.295 . S
O203 Fe198 1.997 . S
O203 C219 1.235 . S
O204 Fe198 2.002 . S
O204 C205 1.295 . S
C205 O204 1.295 . S
C205 O207 1.235 . S
C206 O211 1.287 . S
C206 O212 1.255 . S
O207 Fe199 1.997 . S
O207 C205 1.235 . S
C208 O214 1.287 . S
C208 O215 1.255 . S
O209 Fe198 1.976 . S
O209 C216 1.287 . S
O210 Fe199 1.996 . S
O210 C216 1.255 . S
O211 Fe201 1.976 . S
O211 C206 1.287 . S
O212 Fe198 1.996 . S
O212 C206 1.255 . S
C213 O217 1.295 . S
C213 O218 1.235 . S
O214 Fe199 1.976 . S
O214 C208 1.287 . S
O215 Fe201 1.996 . S
O215 C208 1.255 . S
C216 O209 1.287 . S
C216 O210 1.255 . S
O217 Fe199 2.002 . S
O217 C213 1.295 . S
O218 Fe201 1.997 . S
O218 C213 1.235 . S
C219 O202 1.295 . S
C219 O203 1.235 . S
Fe220 O222 1.918 . S
Fe220 O225 1.997 . S
Fe220 O226 2.002 . S
Fe220 O231 1.976 . S
Fe220 O234 1.996 . S
Fe221 O222 1.918 . S
Fe221 O229 1.997 . S
Fe221 O232 1.996 . S
Fe221 O236 1.976 . S
Fe221 O239 2.002 . S
O222 Fe220 1.918 . S
O222 Fe221 1.918 . S
O222 Fe223 1.918 . S
Fe223 O222 1.918 . S
Fe223 O224 2.002 . S
Fe223 O233 1.976 . S
Fe223 O237 1.996 . S
Fe223 O240 1.997 . S
O224 Fe223 2.002 . S
O224 C241 1.295 . S
O225 Fe220 1.997 . S
O225 C241 1.235 . S
O226 Fe220 2.002 . S
O226 C227 1.295 . S
C227 O226 1.295 . S
C227 O229 1.235 . S
C228 O233 1.287 . S
C228 O234 1.255 . S
O229 Fe221 1.997 . S
O229 C227 1.235 . S
C230 O236 1.287 . S
C230 O237 1.255 . S
O231 Fe220 1.976 . S
O231 C238 1.287 . S
O232 Fe221 1.996 . S
O232 C238 1.255 . S
O233 Fe223 1.976 . S
O233 C228 1.287 . S
O234 Fe220 1.996 . S
O234 C228 1.255 . S
C235 O239 1.295 . S
C235 O240 1.235 . S
O236 Fe221 1.976 . S
O236 C230 1.287 . S
O237 Fe223 1.996 . S
O237 C230 1.255 . S
C238 O231 1.287 . S
C238 O232 1.255 . S
O239 Fe221 2.002 . S
O239 C235 1.295 . S
O240 Fe223 1.997 . S
O240 C235 1.235 . S
C241 O224 1.295 . S
C241 O225 1.235 . S
Fe242 O244 1.918 . S
Fe242 O247 1.997 . S
Fe242 O248 2.002 . S
Fe242 O253 1.976 . S
Fe242 O256 1.996 . S
Fe243 O244 1.918 . S
Fe243 O251 1.997 . S
Fe243 O254 1.996 . S
Fe243 O258 1.976 . S
Fe243 O261 2.002 . S
O244 Fe242 1.918 . S
O244 Fe243 1.918 . S
O244 Fe245 1.918 . S
Fe245 O244 1.918 . S
Fe245 O246 2.002 . S
Fe245 O255 1.976 . S
Fe245 O259 1.996 . S
Fe245 O262 1.997 . S
O246 Fe245 2.002 . S
O246 C263 1.295 . S
O247 Fe242 1.997 . S
O247 C263 1.235 . S
O248 Fe242 2.002 . S
O248 C249 1.295 . S
C249 O248 1.295 . S
C249 O251 1.235 . S
C250 O255 1.287 . S
C250 O256 1.255 . S
O251 Fe243 1.997 . S
O251 C249 1.235 . S
C252 O258 1.287 . S
C252 O259 1.255 . S
O253 Fe242 1.976 . S
O253 C260 1.287 . S
O254 Fe243 1.996 . S
O254 C260 1.255 . S
O255 Fe245 1.976 . S
O255 C250 1.287 . S
O256 Fe242 1.996 . S
O256 C250 1.255 . S
C257 O261 1.295 . S
C257 O262 1.235 . S
O258 Fe243 1.976 . S
O258 C252 1.287 . S
O259 Fe245 1.996 . S
O259 C252 1.255 . S
C260 O253 1.287 . S
C260 O254 1.255 . S
O261 Fe243 2.002 . S
O261 C257 1.295 . S
O262 Fe245 1.997 . S
O262 C257 1.235 . S
C263 O246 1.295 . S
C263 O247 1.235 . S
Fe264 O266 1.918 . S
Fe264 O269 1.997 . S
Fe264 O270 2.002 . S
Fe264 O275 1.976 . S
Fe264 O278 1.996 . S
Fe265 O266 1.918 . S
Fe265 O273 1.997 . S
Fe265 O276 1.996 . S
Fe265 O280 1.976 . S
Fe265 O283 2.002 . S
O266 Fe264 1.918 . S
O266 Fe265 1.918 . S
O266 Fe267 1.918 . S
Fe267 O266 1.918 . S
Fe267 O268 2.002 . S
Fe267 O277 1.976 . S
Fe267 O281 1.996 . S
Fe267 O284 1.997 . S
O268 Fe267 2.002 . S
O268 C285 1.295 . S
O269 Fe264 1.997 . S
O269 C285 1.235 . S
O270 Fe264 2.002 . S
O270 C271 1.295 . S
C271 O270 1.295 . S
C271 O273 1.235 . S
C272 O277 1.287 . S
C272 O278 1.255 . S
O273 Fe265 1.997 . S
O273 C271 1.235 . S
C274 O280 1.287 . S
C274 O281 1.255 . S
O275 Fe264 1.976 . S
O275 C282 1.287 . S
O276 Fe265 1.996 . S
O276 C282 1.255 . S
O277 Fe267 1.976 . S
O277 C272 1.287 . S
O278 Fe264 1.996 . S
O278 C272 1.255 . S
C279 O283 1.295 . S
C279 O284 1.235 . S
O280 Fe265 1.976 . S
O280 C274 1.287 . S
O281 Fe267 1.996 . S
O281 C274 1.255 . S
C282 O275 1.287 . S
C282 O276 1.255 . S
O283 Fe265 2.002 . S
O283 C279 1.295 . S
O284 Fe267 1.997 . S
O284 C279 1.235 . S
C285 O268 1.295 . S
C285 O269 1.235 . S
Fe286 O288 1.918 . S
Fe286 O291 1.997 . S
Fe286 O292 2.002 . S
Fe286 O297 1.976 . S
Fe286 O300 1.996 . S
Fe287 O288 1.918 . S
Fe287 O295 1.997 . S
Fe287 O298 1.996 . S
Fe287 O302 1.976 . S
Fe287 O305 2.002 . S
O288 Fe286 1.918 . S
O288 Fe287 1.918 . S
O288 Fe289 1.918 . S
Fe289 O288 1.918 . S
Fe289 O290 2.002 . S
Fe289 O299 1.976 . S
Fe289 O303 1.996 . S
Fe289 O306 1.997 . S
O290 Fe289 2.002 . S
O290 C307 1.295 . S
O291 Fe286 1.997 . S
O291 C307 1.235 . S
O292 Fe286 2.002 . S
O292 C293 1.295 . S
C293 O292 1.295 . S
C293 O295 1.235 . S
C294 O299 1.287 . S
C294 O300 1.255 . S
O295 Fe287 1.997 . S
O295 C293 1.235 . S
C296 O302 1.287 . S
C296 O303 1.255 . S
O297 Fe286 1.976 . S
O297 C304 1.287 . S
O298 Fe287 1.996 . S
O298 C304 1.255 . S
O299 Fe289 1.976 . S
O299 C294 1.287 . S
O300 Fe286 1.996 . S
O300 C294 1.255 . S
C301 O305 1.295 . S
C301 O306 1.235 . S
O302 Fe287 1.976 . S
O302 C296 1.287 . S
O303 Fe289 1.996 . S
O303 C296 1.255 . S
C304 O297 1.287 . S
C304 O298 1.255 . S
O305 Fe287 2.002 . S
O305 C301 1.295 . S
O306 Fe289 1.997 . S
O306 C301 1.235 . S
C307 O290 1.295 . S
C307 O291 1.235 . S
Fe308 O310 1.918 . S
Fe308 O313 1.997 . S
Fe308 O314 2.002 . S
Fe308 O319 1.976 . S
Fe308 O322 1.996 . S
Fe309 O310 1.918 . S
Fe309 O317 1.997 . S
Fe309 O320 1.996 . S
Fe309 O324 1.976 . S
Fe309 O327 2.002 . S
O310 Fe308 1.918 . S
O310 Fe309 1.918 . S
O310 Fe311 1.918 . S
Fe311 O310 1.918 . S
Fe311 O312 2.002 . S
Fe311 O321 1.976 . S
Fe311 O325 1.996 . S
Fe311 O328 1.997 . S
O312 Fe311 2.002 . S
O312 C329 1.295 . S
O313 Fe308 1.997 . S
O313 C329 1.235 . S
O314 Fe308 2.002 . S
O314 C315 1.295 . S
C315 O314 1.295 . S
C315 O317 1.235 . S
C316 O321 1.287 . S
C316 O322 1.255 . S
O317 Fe309 1.997 . S
O317 C315 1.235 . S
C318 O324 1.287 . S
C318 O325 1.255 . S
O319 Fe308 1.976 . S
O319 C326 1.287 . S
O320 Fe309 1.996 . S
O320 C326 1.255 . S
O321 Fe311 1.976 . S
O321 C316 1.287 . S
O322 Fe308 1.996 . S
O322 C316 1.255 . S
C323 O327 1.295 . S
C323 O328 1.235 . S
O324 Fe309 1.976 . S
O324 C318 1.287 . S
O325 Fe311 1.996 . S
O325 C318 1.255 . S
C326 O319 1.287 . S
C326 O320 1.255 . S
O327 Fe309 2.002 . S
O327 C323 1.295 . S
O328 Fe311 1.997 . S
O328 C323 1.235 . S
C329 O312 1.295 . S
C329 O313 1.235 . S
Fe330 O332 1.918 . S
Fe330 O335 1.997 . S
Fe330 O336 2.002 . S
Fe330 O341 1.976 . S
Fe330 O344 1.996 . S
Fe331 O332 1.918 . S
Fe331 O339 1.997 . S
Fe331 O342 1.996 . S
Fe331 O346 1.976 . S
Fe331 O349 2.002 . S
O332 Fe330 1.918 . S
O332 Fe331 1.918 . S
O332 Fe333 1.918 . S
Fe333 O332 1.918 . S
Fe333 O334 2.002 . S
Fe333 O343 1.976 . S
Fe333 O347 1.996 . S
Fe333 O350 1.997 . S
O334 Fe333 2.002 . S
O334 C351 1.295 . S
O335 Fe330 1.997 . S
O335 C351 1.235 . S
O336 Fe330 2.002 . S
O336 C337 1.295 . S
C337 O336 1.295 . S
C337 O339 1.235 . S
C338 O343 1.287 . S
C338 O344 1.255 . S
O339 Fe331 1.997 . S
O339 C337 1.235 . S
C340 O346 1.287 . S
C340 O347 1.255 . S
O341 Fe330 1.976 . S
O341 C348 1.287 . S
O342 Fe331 1.996 . S
O342 C348 1.255 . S
O343 Fe333 1.976 . S
O343 C338 1.287 . S
O344 Fe330 1.996 . S
O344 C338 1.255 . S
C345 O349 1.295 . S
C345 O350 1.235 . S
O346 Fe331 1.976 . S
O346 C340 1.287 . S
O347 Fe333 1.996 . S
O347 C340 1.255 . S
C348 O341 1.287 . S
C348 O342 1.255 . S
O349 Fe331 2.002 . S
O349 C345 1.295 . S
O350 Fe333 1.997 . S
O350 C345 1.235 . S
C351 O334 1.295 . S
C351 O335 1.235 . S
Fe352 O354 1.918 . S
Fe352 O357 1.997 . S
Fe352 O358 2.002 . S
Fe352 O363 1.976 . S
Fe352 O366 1.996 . S
Fe353 O354 1.918 . S
Fe353 O361 1.997 . S
Fe353 O364 1.996 . S
Fe353 O368 1.976 . S
Fe353 O371 2.002 . S
O354 Fe352 1.918 . S
O354 Fe353 1.918 . S
O354 Fe355 1.918 . S
Fe355 O354 1.918 . S
Fe355 O356 2.002 . S
Fe355 O365 1.976 . S
Fe355 O369 1.996 . S
Fe355 O372 1.997 . S
O356 Fe355 2.002 . S
O356 C373 1.295 . S
O357 Fe352 1.997 . S
O357 C373 1.235 . S
O358 Fe352 2.002 . S
O358 C359 1.295 . S
C359 O358 1.295 . S
C359 O361 1.235 . S
C360 O365 1.287 . S
C360 O366 1.255 . S
O361 Fe353 1.997 . S
O361 C359 1.235 . S
C362 O368 1.287 . S
C362 O369 1.255 . S
O363 Fe352 1.976 . S
O363 C370 1.287 . S
O364 Fe353 1.996 . S
O364 C370 1.255 . S
O365 Fe355 1.976 . S
O365 C360 1.287 . S
O366 Fe352 1.996 . S
O366 C360 1.255 . S
C367 O371 1.295 . S
C367 O372 1.235 . S
O368 Fe353 1.976 . S
O368 C362 1.287 . S
O369 Fe355 1.996 . S
O369 C362 1.255 . S
C370 O363 1.287 . S
C370 O364 1.255 . S
O371 Fe353 2.002 . S
O371 C367 1.295 . S
O372 Fe355 1.997 . S
O372 C367 1.235 . S
C373 O356 1.295 . S
C373 O357 1.235 . S
Fe374 O376 1.918 . S
Fe374 O379 1.997 . S
Fe374 O380 2.002 . S
Fe374 O385 1.976 . S
Fe374 O388 1.996 . S
Fe375 O376 1.918 . S
Fe375 O383 1.997 . S
Fe375 O386 1.996 . S
Fe375 O390 1.976 . S
Fe375 O393 2.002 . S
O376 Fe374 1.918 . S
O376 Fe375 1.918 . S
O376 Fe377 1.918 . S
Fe377 O376 1.918 . S
Fe377 O378 2.002 . S
Fe377 O387 1.976 . S
Fe377 O391 1.996 . S
Fe377 O394 1.997 . S
O378 Fe377 2.002 . S
O378 C395 1.295 . S
O379 Fe374 1.997 . S
O379 C395 1.235 . S
O380 Fe374 2.002 . S
O380 C381 1.295 . S
C381 O380 1.295 . S
C381 O383 1.235 . S
C382 O387 1.287 . S
C382 O388 1.255 . S
O383 Fe375 1.997 . S
O383 C381 1.235 . S
C384 O390 1.287 . S
C384 O391 1.255 . S
O385 Fe374 1.976 . S
O385 C392 1.287 . S
O386 Fe375 1.996 . S
O386 C392 1.255 . S
O387 Fe377 1.976 . S
O387 C382 1.287 . S
O388 Fe374 1.996 . S
O388 C382 1.255 . S
C389 O393 1.295 . S
C389 O394 1.235 . S
O390 Fe375 1.976 . S
O390 C384 1.287 . S
O391 Fe377 1.996 . S
O391 C384 1.255 . S
C392 O385 1.287 . S
C392 O386 1.255 . S
O393 Fe375 2.002 . S
O393 C389 1.295 . S
O394 Fe377 1.997 . S
O394 C389 1.235 . S
C395 O378 1.295 . S
C395 O379 1.235 . S
Fe396 O398 1.918 . S
Fe396 O401 1.997 . S
Fe396 O402 2.002 . S
Fe396 O407 1.976 . S
Fe396 O410 1.996 . S
Fe397 O398 1.918 . S
Fe397 O405 1.997 . S
Fe397 O408 1.996 . S
Fe397 O412 1.976 . S
Fe397 O415 2.002 . S
O398 Fe396 1.918 . S
O398 Fe397 1.918 . S
O398 Fe399 1.918 . S
Fe399 O398 1.918 . S
Fe399 O400 2.002 . S
Fe399 O409 1.976 . S
Fe399 O413 1.996 . S
Fe399 O416 1.997 . S
O400 Fe399 2.002 . S
O400 C417 1.295 . S
O401 Fe396 1.997 . S
O401 C417 1.235 . S
O402 Fe396 2.002 . S
O402 C403 1.295 . S
C403 O402 1.295 . S
C403 O405 1.235 . S
C404 O409 1.287 . S
C404 O410 1.255 . S
O405 Fe397 1.997 . S
O405 C403 1.235 . S
C406 O412 1.287 . S
C406 O413 1.255 . S
O407 Fe396 1.976 . S
O407 C414 1.287 . S
O408 Fe397 1.996 . S
O408 C414 1.255 . S
O409 Fe399 1.976 . S
O409 C404 1.287 . S
O410 Fe396 1.996 . S
O410 C404 1.255 . S
C411 O415 1.295 . S
C411 O416 1.235 . S
O412 Fe397 1.976 . S
O412 C406 1.287 . S
O413 Fe399 1.996 . S
O413 C406 1.255 . S
C414 O407 1.287 . S
C414 O408 1.255 . S
O415 Fe397 2.002 . S
O415 C411 1.295 . S
O416 Fe399 1.997 . S
O416 C411 1.235 . S
C417 O400 1.295 . S
C417 O401 1.235 . S
Fe418 O420 1.918 . S
Fe418 O423 1.997 . S
Fe418 O424 2.002 . S
Fe418 O429 1.976 . S
Fe418 O432 1.996 . S
Fe419 O420 1.918 . S
Fe419 O427 1.997 . S
Fe419 O430 1.996 . S
Fe419 O434 1.976 . S
Fe419 O437 2.002 . S
O420 Fe418 1.918 . S
O420 Fe419 1.918 . S
O420 Fe421 1.918 . S
Fe421 O420 1.918 . S
Fe421 O422 2.002 . S
Fe421 O431 1.976 . S
Fe421 O435 1.996 . S
Fe421 O438 1.997 . S
O422 Fe421 2.002 . S
O422 C439 1.295 . S
O423 Fe418 1.997 . S
O423 C439 1.235 . S
O424 Fe418 2.002 . S
O424 C425 1.295 . S
C425 O424 1.295 . S
C425 O427 1.235 . S
C426 O431 1.287 . S
C426 O432 1.255 . S
O427 Fe419 1.997 . S
O427 C425 1.235 . S
C428 O434 1.287 . S
C428 O435 1.255 . S
O429 Fe418 1.976 . S
O429 C436 1.287 . S
O430 Fe419 1.996 . S
O430 C436 1.255 . S
O431 Fe421 1.976 . S
O431 C426 1.287 . S
O432 Fe418 1.996 . S
O432 C426 1.255 . S
C433 O437 1.295 . S
C433 O438 1.235 . S
O434 Fe419 1.976 . S
O434 C428 1.287 . S
O435 Fe421 1.996 . S
O435 C428 1.255 . S
C436 O429 1.287 . S
C436 O430 1.255 . S
O437 Fe419 2.002 . S
O437 C433 1.295 . S
O438 Fe421 1.997 . S
O438 C433 1.235 . S
C439 O422 1.295 . S
C439 O423 1.235 . S
Fe440 O442 1.918 . S
Fe440 O445 1.997 . S
Fe440 O446 2.002 . S
Fe440 O451 1.976 . S
Fe440 O454 1.996 . S
Fe441 O442 1.918 . S
Fe441 O449 1.997 . S
Fe441 O452 1.996 . S
Fe441 O456 1.976 . S
Fe441 O459 2.002 . S
O442 Fe440 1.918 . S
O442 Fe441 1.918 . S
O442 Fe443 1.918 . S
Fe443 O442 1.918 . S
Fe443 O444 2.002 . S
Fe443 O453 1.976 . S
Fe443 O457 1.996 . S
Fe443 O460 1.997 . S
O444 Fe443 2.002 . S
O444 C461 1.295 . S
O445 Fe440 1.997 . S
O445 C461 1.235 . S
O446 Fe440 2.002 . S
O446 C447 1.295 . S
C447 O446 1.295 . S
C447 O449 1.235 . S
C448 O453 1.287 . S
C448 O454 1.255 . S
O449 Fe441 1.997 . S
O449 C447 1.235 . S
C450 O456 1.287 . S
C450 O457 1.255 . S
O451 Fe440 1.976 . S
O451 C458 1.287 . S
O452 Fe441 1.996 . S
O452 C458 1.255 . S
O453 Fe443 1.976 . S
O453 C448 1.287 . S
O454 Fe440 1.996 . S
O454 C448 1.255 . S
C455 O459 1.295 . S
C455 O460 1.235 . S
O456 Fe441 1.976 . S
O456 C450 1.287 . S
O457 Fe443 1.996 . S
O457 C450 1.255 . S
C458 O451 1.287 . S
C458 O452 1.255 . S
O459 Fe441 2.002 . S
O459 C455 1.295 . S
O460 Fe443 1.997 . S
O460 C455 1.235 . S
C461 O444 1.295 . S
C461 O445 1.235 . S
Fe462 O464 1.918 . S
Fe462 O467 1.997 . S
Fe462 O468 2.002 . S
Fe462 O473 1.976 . S
Fe462 O476 1.996 . S
Fe463 O464 1.918 . S
Fe463 O471 1.997 . S
Fe463 O474 1.996 . S
Fe463 O478 1.976 . S
Fe463 O481 2.002 . S
O464 Fe462 1.918 . S
O464 Fe463 1.918 . S
O464 Fe465 1.918 . S
Fe465 O464 1.918 . S
Fe465 O466 2.002 . S
Fe465 O475 1.976 . S
Fe465 O479 1.996 . S
Fe465 O482 1.997 . S
O466 Fe465 2.002 . S
O466 C483 1.295 . S
O467 Fe462 1.997 . S
O467 C483 1.235 . S
O468 Fe462 2.002 . S
O468 C469 1.295 . S
C469 O468 1.295 . S
C469 O471 1.235 . S
C470 O475 1.287 . S
C470 O476 1.255 . S
O471 Fe463 1.997 . S
O471 C469 1.235 . S
C472 O478 1.287 . S
C472 O479 1.255 . S
O473 Fe462 1.976 . S
O473 C480 1.287 . S
O474 Fe463 1.996 . S
O474 C480 1.255 . S
O475 Fe465 1.976 . S
O475 C470 1.287 . S
O476 Fe462 1.996 . S
O476 C470 1.255 . S
C477 O481 1.295 . S
C477 O482 1.235 . S
O478 Fe463 1.976 . S
O478 C472 1.287 . S
O479 Fe465 1.996 . S
O479 C472 1.255 . S
C480 O473 1.287 . S
C480 O474 1.255 . S
O481 Fe463 2.002 . S
O481 C477 1.295 . S
O482 Fe465 1.997 . S
O482 C477 1.235 . S
C483 O466 1.295 . S
C483 O467 1.235 . S
Fe484 O486 1.918 . S
Fe484 O489 1.997 . S
Fe484 O490 2.002 . S
Fe484 O495 1.976 . S
Fe484 O498 1.996 . S
Fe485 O486 1.918 . S
Fe485 O493 1.997 . S
Fe485 O496 1.996 . S
Fe485 O500 1.976 . S
Fe485 O503 2.002 . S
O486 Fe484 1.918 . S
O486 Fe485 1.918 . S
O486 Fe487 1.918 . S
Fe487 O486 1.918 . S
Fe487 O488 2.002 . S
Fe487 O497 1.976 . S
Fe487 O501 1.996 . S
Fe487 O504 1.997 . S
O488 Fe487 2.002 . S
O488 C505 1.295 . S
O489 Fe484 1.997 . S
O489 C505 1.235 . S
O490 Fe484 2.002 . S
O490 C491 1.295 . S
C491 O490 1.295 . S
C491 O493 1.235 . S
C492 O497 1.287 . S
C492 O498 1.255 . S
O493 Fe485 1.997 . S
O493 C491 1.235 . S
C494 O500 1.287 . S
C494 O501 1.255 . S
O495 Fe484 1.976 . S
O495 C502 1.287 . S
O496 Fe485 1.996 . S
O496 C502 1.255 . S
O497 Fe487 1.976 . S
O497 C492 1.287 . S
O498 Fe484 1.996 . S
O498 C492 1.255 . S
C499 O503 1.295 . S
C499 O504 1.235 . S
O500 Fe485 1.976 . S
O500 C494 1.287 . S
O501 Fe487 1.996 . S
O501 C494 1.255 . S
C502 O495 1.287 . S
C502 O496 1.255 . S
O503 Fe485 2.002 . S
O503 C499 1.295 . S
O504 Fe487 1.997 . S
O504 C499 1.235 . S
C505 O488 1.295 . S
C505 O489 1.235 . S
Fe506 O508 1.918 . S
Fe506 O511 1.997 . S
Fe506 O512 2.002 . S
Fe506 O517 1.976 . S
Fe506 O520 1.996 . S
Fe507 O508 1.918 . S
Fe507 O515 1.997 . S
Fe507 O518 1.996 . S
Fe507 O522 1.976 . S
Fe507 O525 2.002 . S
O508 Fe506 1.918 . S
O508 Fe507 1.918 . S
O508 Fe509 1.918 . S
Fe509 O508 1.918 . S
Fe509 O510 2.002 . S
Fe509 O519 1.976 . S
Fe509 O523 1.996 . S
Fe509 O526 1.997 . S
O510 Fe509 2.002 . S
O510 C527 1.295 . S
O511 Fe506 1.997 . S
O511 C527 1.235 . S
O512 Fe506 2.002 . S
O512 C513 1.295 . S
C513 O512 1.295 . S
C513 O515 1.235 . S
C514 O519 1.287 . S
C514 O520 1.255 . S
O515 Fe507 1.997 . S
O515 C513 1.235 . S
C516 O522 1.287 . S
C516 O523 1.255 . S
O517 Fe506 1.976 . S
O517 C524 1.287 . S
O518 Fe507 1.996 . S
O518 C524 1.255 . S
O519 Fe509 1.976 . S
O519 C514 1.287 . S
O520 Fe506 1.996 . S
O520 C514 1.255 . S
C521 O525 1.295 . S
C521 O526 1.235 . S
O522 Fe507 1.976 . S
O522 C516 1.287 . S
O523 Fe509 1.996 . S
O523 C516 1.255 . S
C524 O517 1.287 . S
C524 O518 1.255 . S
O525 Fe507 2.002 . S
O525 C521 1.295 . S
O526 Fe509 1.997 . S
O526 C521 1.235 . S
C527 O510 1.295 . S
C527 O511 1.235 . S
H528 C536 0.929 . S
H529 C538 0.930 . S
H530 C540 0.930 . S
H531 C543 0.929 . S
H532 C546 0.930 . S
H533 C548 0.960 . S
H534 C548 0.960 . S
H535 C548 0.960 . S
C536 H528 0.929 . S
C536 C537 1.377 . S
C536 C538 1.384 . S
C537 C536 1.377 . S
C537 C543 1.390 . S
C538 H529 0.930 . S
C538 C536 1.384 . S
C538 C539 1.372 . S
C539 C538 1.372 . S
C539 C540 1.400 . S
C539 C544 1.490 . S
C540 H530 0.930 . S
C540 C539 1.400 . S
C540 C543 1.386 . S
H541 C557 0.930 . S
H542 C558 0.931 . S
C543 H531 0.929 . S
C543 C537 1.390 . S
C543 C540 1.386 . S
C544 C539 1.490 . S
C544 C546 1.395 1_556 S
C544 C547 1.403 . S
H545 C551 0.930 . S
C546 H532 0.930 . S
C546 C544 1.395 1_554 S
C546 C549 1.403 . S
C547 C544 1.403 . S
C547 C548 1.524 . S
C547 C551 1.400 1_556 S
C548 H533 0.960 . S
C548 H534 0.960 . S
C548 H535 0.960 . S
C548 C547 1.524 . S
C549 C546 1.403 . S
C549 C550 1.392 . S
C549 C553 1.495 . S
C550 C549 1.392 . S
C550 C551 1.385 . S
C550 C552 1.478 . S
C551 H545 0.930 . S
C551 C547 1.400 1_554 S
C551 C550 1.385 . S
C552 C550 1.478 . S
C552 C554 1.381 . S
C552 C558 1.383 . S
C553 C549 1.495 . S
C553 H559 0.959 . S
C553 H560 0.961 . S
C553 H561 0.960 . S
C554 C552 1.381 . S
C554 C555 1.394 . S
C554 H562 0.930 . S
C555 C554 1.394 . S
C555 C556 1.383 . S
C555 H563 0.929 . S
C556 C555 1.383 . S
C556 C557 1.377 . S
C557 H541 0.930 . S
C557 C556 1.377 . S
C557 C558 1.379 . S
C558 H542 0.931 . S
C558 C552 1.383 . S
C558 C557 1.379 . S
H559 C553 0.959 . S
H560 C553 0.961 . S
H561 C553 0.960 . S
H562 C554 0.930 . S
H563 C555 0.929 . S
H564 C572 0.929 . S
H565 C574 0.930 . S
H566 C576 0.930 . S
H567 C579 0.929 . S
H568 C582 0.930 . S
H569 C584 0.960 . S
H570 C584 0.960 . S
H571 C584 0.960 . S
C572 H564 0.929 . S
C572 C573 1.377 . S
C572 C574 1.384 . S
C573 C572 1.377 . S
C573 C579 1.390 . S
C574 H565 0.930 . S
C574 C572 1.384 . S
C574 C575 1.372 . S
C575 C574 1.372 . S
C575 C576 1.400 . S
C575 C580 1.490 . S
C576 H566 0.930 . S
C576 C575 1.400 . S
C576 C579 1.386 . S
H577 C593 0.930 . S
H578 C594 0.931 . S
C579 H567 0.929 . S
C579 C573 1.390 . S
C579 C576 1.386 . S
C580 C575 1.490 . S
C580 C582 1.395 . S
C580 C583 1.403 . S
H581 C587 0.930 . S
C582 H568 0.930 . S
C582 C580 1.395 . S
C582 C585 1.403 . S
C583 C580 1.403 . S
C583 C584 1.524 . S
C583 C587 1.400 . S
C584 H569 0.960 . S
C584 H570 0.960 . S
C584 H571 0.960 . S
C584 C583 1.524 . S
C585 C582 1.403 . S
C585 C586 1.392 . S
C585 C589 1.495 . S
C586 C585 1.392 . S
C586 C587 1.385 . S
C586 C588 1.478 . S
C587 H581 0.930 . S
C587 C583 1.400 . S
C587 C586 1.385 . S
C588 C586 1.478 . S
C588 C590 1.381 . S
C588 C594 1.383 . S
C589 C585 1.495 . S
C589 H595 0.959 . S
C589 H596 0.961 . S
C589 H597 0.960 . S
C590 C588 1.381 . S
C590 C591 1.394 . S
C590 H598 0.930 . S
C591 C590 1.394 . S
C591 C592 1.383 . S
C591 H599 0.929 . S
C592 C591 1.383 . S
C592 C593 1.377 . S
C593 H577 0.930 . S
C593 C592 1.377 . S
C593 C594 1.379 . S
C594 H578 0.931 . S
C594 C588 1.383 . S
C594 C593 1.379 . S
H595 C589 0.959 . S
H596 C589 0.961 . S
H597 C589 0.960 . S
H598 C590 0.930 . S
H599 C591 0.929 . S
H600 C608 0.929 . S
H601 C610 0.930 . S
H602 C612 0.930 . S
H603 C615 0.929 . S
H604 C618 0.930 . S
H605 C620 0.960 . S
H606 C620 0.930 1_556 S
H607 C620 0.960 . S
C608 H600 0.929 . S
C608 C609 1.377 . S
C608 C610 1.384 . S
C609 C608 1.377 . S
C609 C615 1.390 . S
C610 H601 0.930 . S
C610 C608 1.384 . S
C610 C611 1.372 . S
C611 C610 1.372 . S
C611 C612 1.400 . S
C611 C616 1.490 . S
C612 H602 0.930 . S
C612 C611 1.400 . S
C612 C615 1.386 . S
H613 C629 0.930 . S
H614 C630 0.931 . S
C615 H603 0.929 . S
C615 C609 1.390 . S
C615 C612 1.386 . S
C616 C611 1.490 . S
C616 C618 1.395 . S
C616 C619 1.403 1_556 S
H617 C623 0.930 . S
C618 H604 0.930 . S
C618 C616 1.395 . S
C618 C621 1.403 . S
C619 C616 1.403 1_554 S
C619 C620 1.524 . S
C619 C623 1.400 . S
C620 H605 0.960 . S
C620 H606 0.930 1_554 S
C620 H607 0.960 . S
C620 C619 1.524 . S
C621 C618 1.403 . S
C621 C622 1.392 1_556 S
C621 C625 1.495 . S
C622 C621 1.392 1_554 S
C622 C623 1.385 . S
C622 C624 1.478 . S
C623 H617 0.930 . S
C623 C619 1.400 . S
C623 C622 1.385 . S
C624 C622 1.478 . S
C624 C626 1.381 . S
C624 C630 1.383 . S
C625 C621 1.495 . S
C625 H631 0.959 . S
C625 H632 0.961 . S
C625 H633 0.960 . S
C626 C624 1.381 . S
C626 C627 1.394 . S
C626 H634 0.930 . S
C627 C626 1.394 . S
C627 C628 1.383 . S
C627 H635 0.929 . S
C628 C627 1.383 . S
C628 C629 1.377 . S
C629 H613 0.930 . S
C629 C628 1.377 . S
C629 C630 1.379 . S
C630 H614 0.931 . S
C630 C624 1.383 . S
C630 C629 1.379 . S
H631 C625 0.959 . S
H632 C625 0.961 . S
H633 C625 0.960 . S
H634 C626 0.930 . S
H635 C627 0.929 . S
H636 C644 0.929 . S
H637 C646 0.930 . S
H638 C648 0.930 . S
H639 C651 0.929 . S
H640 C654 0.930 . S
H641 C656 0.960 . S
H642 C656 0.960 . S
H643 C656 0.960 . S
C644 H636 0.929 . S
C644 C645 1.377 . S
C644 C646 1.384 . S
C645 C644 1.377 . S
C645 C651 1.390 . S
C646 H637 0.930 . S
C646 C644 1.384 . S
C646 C647 1.372 . S
C647 C646 1.372 . S
C647 C648 1.400 . S
C647 C652 1.490 . S
C648 H638 0.930 . S
C648 C647 1.400 . S
C648 C651 1.386 . S
H649 C665 0.930 . S
H650 C666 0.931 . S
C651 H639 0.929 . S
C651 C645 1.390 . S
C651 C648 1.386 . S
C652 C647 1.490 . S
C652 C654 1.395 . S
C652 C655 1.403 . S
H653 C659 0.930 . S
C654 H640 0.930 . S
C654 C652 1.395 . S
C654 C657 1.403 . S
C655 C652 1.403 . S
C655 C656 1.524 . S
C655 C659 1.400 . S
C656 H641 0.960 . S
C656 H642 0.960 . S
C656 H643 0.960 . S
C656 C655 1.524 . S
C657 C654 1.403 . S
C657 C658 1.392 . S
C657 C661 1.495 . S
C658 C657 1.392 . S
C658 C659 1.385 . S
C658 C660 1.478 . S
C659 H653 0.930 . S
C659 C655 1.400 . S
C659 C658 1.385 . S
C660 C658 1.478 . S
C660 C662 1.381 . S
C660 C666 1.383 . S
C661 C657 1.495 . S
C661 H667 0.959 . S
C661 H668 0.961 . S
C661 H669 0.960 . S
C662 C660 1.381 . S
C662 C663 1.394 . S
C662 H670 0.930 . S
C663 C662 1.394 . S
C663 C664 1.383 . S
C663 H671 0.929 . S
C664 C663 1.383 . S
C664 C665 1.377 . S
C665 H649 0.930 . S
C665 C664 1.377 . S
C665 C666 1.379 . S
C666 H650 0.931 . S
C666 C660 1.383 . S
C666 C665 1.379 . S
H667 C661 0.959 . S
H668 C661 0.961 . S
H669 C661 0.960 . S
H670 C662 0.930 . S
H671 C663 0.929 . S
H672 C680 0.929 . S
H673 C682 0.930 . S
H674 C684 0.930 . S
H675 C687 0.929 . S
H676 C690 0.930 . S
H677 C692 0.960 . S
H678 C692 0.960 . S
H679 C692 0.960 . S
C680 H672 0.929 . S
C680 C681 1.377 . S
C680 C682 1.384 . S
C681 C680 1.377 . S
C681 C687 1.390 . S
C682 H673 0.930 . S
C682 C680 1.384 . S
C682 C683 1.372 . S
C683 C682 1.372 . S
C683 C684 1.400 . S
C683 C688 1.490 . S
C684 H674 0.930 . S
C684 C683 1.400 . S
C684 C687 1.386 . S
H685 C701 0.930 . S
H686 C702 0.931 . S
C687 H675 0.929 . S
C687 C681 1.390 . S
C687 C684 1.386 . S
C688 C683 1.490 . S
C688 C690 1.395 1_556 S
C688 C691 1.403 . S
H689 C695 0.933 . S
C690 H676 0.930 . S
C690 C688 1.395 1_554 S
C690 C693 1.403 . S
C691 C688 1.403 . S
C691 C692 1.524 . S
C691 C695 1.400 1_556 S
C692 H677 0.960 . S
C692 H678 0.960 . S
C692 H679 0.960 . S
C692 C691 1.524 . S
C693 C690 1.403 . S
C693 C694 1.392 . S
C693 C697 1.495 . S
C694 C693 1.392 . S
C694 C695 1.385 . S
C694 C696 1.478 . S
C695 H689 0.933 . S
C695 C691 1.400 1_554 S
C695 C694 1.385 . S
C696 C694 1.478 . S
C696 C698 1.381 . S
C696 C702 1.383 . S
C697 C693 1.495 . S
C697 H703 0.959 . S
C697 H704 0.961 . S
C697 H705 0.960 . S
C698 C696 1.381 . S
C698 C699 1.394 . S
C698 H706 0.930 . S
C699 C698 1.394 . S
C699 C700 1.383 . S
C699 H707 0.929 . S
C700 C699 1.383 . S
C700 C701 1.377 . S
C701 H685 0.930 . S
C701 C700 1.377 . S
C701 C702 1.379 . S
C702 H686 0.931 . S
C702 C696 1.383 . S
C702 C701 1.379 . S
H703 C697 0.959 . S
H704 C697 0.961 . S
H705 C697 0.960 . S
H706 C698 0.930 . S
H707 C699 0.929 . S
H708 C716 0.929 . S
H709 C718 0.930 . S
H710 C720 0.930 . S
H711 C723 0.929 . S
H712 C726 0.930 . S
H713 C728 0.960 . S
H714 C728 0.960 . S
H715 C728 0.960 . S
C716 H708 0.929 . S
C716 C717 1.377 . S
C716 C718 1.384 . S
C717 C716 1.377 . S
C717 C723 1.390 . S
C718 H709 0.930 . S
C718 C716 1.384 . S
C718 C719 1.372 . S
C719 C718 1.372 . S
C719 C720 1.400 . S
C719 C724 1.490 . S
C720 H710 0.930 . S
C720 C719 1.400 . S
C720 C723 1.386 . S
H721 C737 0.930 . S
H722 C738 0.931 . S
C723 H711 0.929 . S
C723 C717 1.390 . S
C723 C720 1.386 . S
C724 C719 1.490 . S
C724 C726 1.395 . S
C724 C727 1.403 . S
H725 C731 0.930 . S
C726 H712 0.930 . S
C726 C724 1.395 . S
C726 C729 1.403 . S
C727 C724 1.403 . S
C727 C728 1.524 . S
C727 C731 1.400 . S
C728 H713 0.960 . S
C728 H714 0.960 . S
C728 H715 0.960 . S
C728 C727 1.524 . S
C729 C726 1.403 . S
C729 C730 1.392 . S
C729 C733 1.495 . S
C730 C729 1.392 . S
C730 C731 1.385 . S
C730 C732 1.478 . S
C731 H725 0.930 . S
C731 C727 1.400 . S
C731 C730 1.385 . S
C732 C730 1.478 . S
C732 C734 1.381 . S
C732 C738 1.383 . S
C733 C729 1.495 . S
C733 H739 0.959 . S
C733 H740 0.961 . S
C733 H741 0.960 . S
C734 C732 1.381 . S
C734 C735 1.394 . S
C734 H742 0.930 . S
C735 C734 1.394 . S
C735 C736 1.383 . S
C735 H743 0.929 . S
C736 C735 1.383 . S
C736 C737 1.377 . S
C737 H721 0.930 . S
C737 C736 1.377 . S
C737 C738 1.379 . S
C738 H722 0.931 . S
C738 C732 1.383 . S
C738 C737 1.379 . S
H739 C733 0.959 . S
H740 C733 0.961 . S
H741 C733 0.960 . S
H742 C734 0.930 . S
H743 C735 0.929 . S
H744 C752 0.929 . S
H745 C754 0.930 . S
H746 C756 0.930 . S
H747 C759 0.929 . S
H748 C762 0.930 . S
H749 C764 0.960 1_554 S
H750 C764 0.960 . S
H751 C764 0.960 . S
C752 H744 0.929 . S
C752 C753 1.377 . S
C752 C754 1.384 . S
C753 C752 1.377 . S
C753 C759 1.390 . S
C754 H745 0.930 . S
C754 C752 1.384 . S
C754 C755 1.372 . S
C755 C754 1.372 . S
C755 C756 1.400 . S
C755 C760 1.490 . S
C756 H746 0.930 . S
C756 C755 1.400 . S
C756 C759 1.386 . S
H757 C773 0.930 . S
H758 C774 0.931 . S
C759 H747 0.929 . S
C759 C753 1.390 . S
C759 C756 1.386 . S
C760 C755 1.490 . S
C760 C762 1.395 . S
C760 C763 1.403 . S
H761 C767 0.930 . S
C762 H748 0.930 . S
C762 C760 1.395 . S
C762 C765 1.403 1_556 S
C763 C760 1.403 . S
C763 C764 1.524 . S
C763 C767 1.400 1_556 S
C764 H749 0.960 1_556 S
C764 H750 0.960 . S
C764 H751 0.960 . S
C764 C763 1.524 . S
C765 C762 1.403 1_554 S
C765 C766 1.392 . S
C765 C769 1.495 . S
C766 C765 1.392 . S
C766 C767 1.385 . S
C766 C768 1.478 . S
C767 H761 0.930 . S
C767 C763 1.400 1_554 S
C767 C766 1.385 . S
C768 C766 1.478 . S
C768 C770 1.381 . S
C768 C774 1.383 . S
C769 C765 1.495 . S
C769 H775 0.959 1_554 S
C769 H776 0.961 . S
C769 H777 0.960 . S
C770 C768 1.381 . S
C770 C771 1.394 . S
C770 H778 0.930 . S
C771 C770 1.394 . S
C771 C772 1.383 . S
C771 H779 0.929 . S
C772 C771 1.383 . S
C772 C773 1.377 . S
C773 H757 0.930 . S
C773 C772 1.377 . S
C773 C774 1.379 . S
C774 H758 0.931 . S
C774 C768 1.383 . S
C774 C773 1.379 . S
H775 C769 0.959 1_556 S
H776 C769 0.961 . S
H777 C769 0.960 . S
H778 C770 0.930 . S
H779 C771 0.929 . S
H780 C788 0.929 . S
H781 C790 0.930 . S
H782 C792 0.930 . S
H783 C795 0.929 . S
H784 C798 0.930 . S
H785 C800 0.960 . S
H786 C800 0.960 . S
H787 C800 0.960 . S
C788 H780 0.929 . S
C788 C789 1.377 . S
C788 C790 1.384 . S
C789 C788 1.377 . S
C789 C795 1.390 . S
C790 H781 0.930 . S
C790 C788 1.384 . S
C790 C791 1.372 . S
C791 C790 1.372 . S
C791 C792 1.400 . S
C791 C796 1.490 . S
C792 H782 0.930 . S
C792 C791 1.400 . S
C792 C795 1.386 . S
H793 C809 0.930 . S
H794 C810 0.931 . S
C795 H783 0.929 . S
C795 C789 1.390 . S
C795 C792 1.386 . S
C796 C791 1.490 . S
C796 C798 1.395 . S
C796 C799 1.403 . S
H797 C803 0.930 . S
C798 H784 0.930 . S
C798 C796 1.395 . S
C798 C801 1.403 . S
C799 C796 1.403 . S
C799 C800 1.524 . S
C799 C803 1.400 . S
C800 H785 0.960 . S
C800 H786 0.960 . S
C800 H787 0.960 . S
C800 C799 1.524 . S
C801 C798 1.403 . S
C801 C802 1.392 . S
C801 C805 1.495 . S
C802 C801 1.392 . S
C802 C803 1.385 . S
C802 C804 1.478 . S
C803 H797 0.930 . S
C803 C799 1.400 . S
C803 C802 1.385 . S
C804 C802 1.478 . S
C804 C806 1.381 . S
C804 C810 1.383 . S
C805 C801 1.495 . S
C805 H811 0.959 . S
C805 H812 0.961 . S
C805 H813 0.960 . S
C806 C804 1.381 . S
C806 C807 1.394 . S
C806 H814 0.930 . S
C807 C806 1.394 . S
C807 C808 1.383 . S
C807 H815 0.929 . S
C808 C807 1.383 . S
C808 C809 1.377 . S
C809 H793 0.930 . S
C809 C808 1.377 . S
C809 C810 1.379 . S
C810 H794 0.931 . S
C810 C804 1.383 . S
C810 C809 1.379 . S
H811 C805 0.959 . S
H812 C805 0.961 . S
H813 C805 0.960 . S
H814 C806 0.930 . S
H815 C807 0.929 . S
H816 C824 0.929 . S
H817 C826 0.930 . S
H818 C828 0.930 . S
H819 C831 0.929 . S
H820 C834 0.930 . S
H821 C836 0.960 . S
H822 C836 0.960 . S
H823 C836 0.960 . S
C824 H816 0.929 . S
C824 C825 1.377 . S
C824 C826 1.384 . S
C825 C824 1.377 . S
C825 C831 1.390 . S
C826 H817 0.930 . S
C826 C824 1.384 . S
C826 C827 1.372 . S
C827 C826 1.372 . S
C827 C828 1.400 . S
C827 C832 1.490 . S
C828 H818 0.930 . S
C828 C827 1.400 . S
C828 C831 1.386 . S
H829 C845 0.930 . S
H830 C846 0.931 . S
C831 H819 0.929 . S
C831 C825 1.390 . S
C831 C828 1.386 . S
C832 C827 1.490 . S
C832 C834 1.395 1_554 S
C832 C835 1.403 . S
H833 C839 0.932 . S
C834 H820 0.930 . S
C834 C832 1.395 1_556 S
C834 C837 1.403 . S
C835 C832 1.403 . S
C835 C836 1.524 . S
C835 C839 1.400 1_554 S
C836 H821 0.960 . S
C836 H822 0.960 . S
C836 H823 0.960 . S
C836 C835 1.524 . S
C837 C834 1.403 . S
C837 C838 1.392 . S
C837 C841 1.495 . S
C838 C837 1.392 . S
C838 C839 1.385 . S
C838 C840 1.478 . S
C839 H833 0.932 . S
C839 C835 1.400 1_556 S
C839 C838 1.385 . S
C840 C838 1.478 . S
C840 C842 1.381 . S
C840 C846 1.383 . S
C841 C837 1.495 . S
C841 H847 0.959 . S
C841 H848 0.961 . S
C841 H849 0.960 . S
C842 C840 1.381 . S
C842 C843 1.394 . S
C842 H850 0.930 . S
C843 C842 1.394 . S
C843 C844 1.383 . S
C843 H851 0.929 . S
C844 C843 1.383 . S
C844 C845 1.377 . S
C845 H829 0.930 . S
C845 C844 1.377 . S
C845 C846 1.379 . S
C846 H830 0.931 . S
C846 C840 1.383 . S
C846 C845 1.379 . S
H847 C841 0.959 . S
H848 C841 0.961 . S
H849 C841 0.960 . S
H850 C842 0.930 . S
H851 C843 0.929 . S
H852 C860 0.929 . S
H853 C862 0.930 . S
H854 C864 0.930 . S
H855 C867 0.929 . S
H856 C870 0.930 . S
H857 C872 0.960 . S
H858 C872 0.960 . S
H859 C872 0.960 . S
C860 H852 0.929 . S
C860 C861 1.377 . S
C860 C862 1.384 . S
C861 C860 1.377 . S
C861 C867 1.390 . S
C862 H853 0.930 . S
C862 C860 1.384 . S
C862 C863 1.372 . S
C863 C862 1.372 . S
C863 C864 1.400 . S
C863 C868 1.490 . S
C864 H854 0.930 . S
C864 C863 1.400 . S
C864 C867 1.386 . S
H865 C881 0.930 . S
H866 C882 0.931 . S
C867 H855 0.929 . S
C867 C861 1.390 . S
C867 C864 1.386 . S
C868 C863 1.490 . S
C868 C870 1.395 . S
C868 C871 1.403 . S
H869 C875 0.930 . S
C870 H856 0.930 . S
C870 C868 1.395 . S
C870 C873 1.403 . S
C871 C868 1.403 . S
C871 C872 1.524 . S
C871 C875 1.400 . S
C872 H857 0.960 . S
C872 H858 0.960 . S
C872 H859 0.960 . S
C872 C871 1.524 . S
C873 C870 1.403 . S
C873 C874 1.392 . S
C873 C877 1.495 . S
C874 C873 1.392 . S
C874 C875 1.385 . S
C874 C876 1.478 . S
C875 H869 0.930 . S
C875 C871 1.400 . S
C875 C874 1.385 . S
C876 C874 1.478 . S
C876 C878 1.381 . S
C876 C882 1.383 . S
C877 C873 1.495 . S
C877 H883 0.959 . S
C877 H884 0.961 . S
C877 H885 0.960 . S
C878 C876 1.381 . S
C878 C879 1.394 . S
C878 H886 0.930 . S
C879 C878 1.394 . S
C879 C880 1.383 . S
C879 H887 0.929 . S
C880 C879 1.383 . S
C880 C881 1.377 . S
C881 H865 0.930 . S
C881 C880 1.377 . S
C881 C882 1.379 . S
C882 H866 0.931 . S
C882 C876 1.383 . S
C882 C881 1.379 . S
H883 C877 0.959 . S
H884 C877 0.961 . S
H885 C877 0.960 . S
H886 C878 0.930 . S
H887 C879 0.929 . S
H888 C896 0.929 . S
H889 C898 0.930 . S
H890 C900 0.930 . S
H891 C903 0.929 . S
H892 C906 0.930 . S
H893 C908 0.960 . S
H894 C908 0.960 . S
H895 C908 0.960 1_556 S
C896 H888 0.929 . S
C896 C897 1.377 . S
C896 C898 1.384 . S
C897 C896 1.377 . S
C897 C903 1.390 . S
C898 H889 0.930 . S
C898 C896 1.384 . S
C898 C899 1.372 . S
C899 C898 1.372 . S
C899 C900 1.400 . S
C899 C904 1.490 . S
C900 H890 0.930 . S
C900 C899 1.400 . S
C900 C903 1.386 . S
H901 C917 0.930 . S
H902 C918 0.931 . S
C903 H891 0.929 . S
C903 C897 1.390 . S
C903 C900 1.386 . S
C904 C899 1.490 . S
C904 C906 1.395 . S
C904 C907 1.403 1_556 S
H905 C911 0.930 . S
C906 H892 0.930 . S
C906 C904 1.395 . S
C906 C909 1.403 . S
C907 C904 1.403 1_554 S
C907 C908 1.524 . S
C907 C911 1.400 . S
C908 H893 0.960 . S
C908 H894 0.960 . S
C908 H895 0.960 1_554 S
C908 C907 1.524 . S
C909 C906 1.403 . S
C909 C910 1.392 1_556 S
C909 C913 1.495 . S
C910 C909 1.392 1_554 S
C910 C911 1.385 . S
C910 C912 1.478 . S
C911 H905 0.930 . S
C911 C907 1.400 . S
C911 C910 1.385 . S
C912 C910 1.478 . S
C912 C914 1.381 . S
C912 C918 1.383 . S
C913 C909 1.495 . S
C913 H919 0.959 . S
C913 H920 0.961 . S
C913 H921 0.959 . S
C914 C912 1.381 . S
C914 C915 1.394 . S
C914 H922 0.930 . S
C915 C914 1.394 . S
C915 C916 1.383 . S
C915 H923 0.929 . S
C916 C915 1.383 . S
C916 C917 1.377 . S
C917 H901 0.930 . S
C917 C916 1.377 . S
C917 C918 1.379 . S
C918 H902 0.931 . S
C918 C912 1.383 . S
C918 C917 1.379 . S
H919 C913 0.959 . S
H920 C913 0.961 . S
H921 C913 0.959 . S
H922 C914 0.930 . S
H923 C915 0.929 . S
H924 C932 0.929 . S
H925 C934 0.930 . S
H926 C936 0.930 . S
H927 C939 0.929 . S
H928 C942 0.930 . S
H929 C944 0.960 . S
H930 C944 0.960 . S
H931 C944 0.960 . S
C932 H924 0.929 . S
C932 C933 1.377 . S
C932 C934 1.384 . S
C933 C932 1.377 . S
C933 C939 1.390 . S
C934 H925 0.930 . S
C934 C932 1.384 . S
C934 C935 1.372 . S
C935 C934 1.372 . S
C935 C936 1.400 . S
C935 C940 1.490 . S
C936 H926 0.930 . S
C936 C935 1.400 . S
C936 C939 1.386 . S
H937 C953 0.930 . S
H938 C954 0.931 . S
C939 H927 0.929 . S
C939 C933 1.390 . S
C939 C936 1.386 . S
C940 C935 1.490 . S
C940 C942 1.395 . S
C940 C943 1.403 . S
H941 C947 0.930 . S
C942 H928 0.930 . S
C942 C940 1.395 . S
C942 C945 1.403 . S
C943 C940 1.403 . S
C943 C944 1.524 . S
C943 C947 1.400 . S
C944 H929 0.960 . S
C944 H930 0.960 . S
C944 H931 0.960 . S
C944 C943 1.524 . S
C945 C942 1.403 . S
C945 C946 1.392 . S
C945 C949 1.495 . S
C946 C945 1.392 . S
C946 C947 1.385 . S
C946 C948 1.478 . S
C947 H941 0.930 . S
C947 C943 1.400 . S
C947 C946 1.385 . S
C948 C946 1.478 . S
C948 C950 1.381 . S
C948 C954 1.383 . S
C949 C945 1.495 . S
C949 H955 0.959 . S
C949 H956 0.961 . S
C949 H957 0.960 . S
C950 C948 1.381 . S
C950 C951 1.394 . S
C950 H958 0.930 . S
C951 C950 1.394 . S
C951 C952 1.383 . S
C951 H959 0.929 . S
C952 C951 1.383 . S
C952 C953 1.377 . S
C953 H937 0.930 . S
C953 C952 1.377 . S
C953 C954 1.379 . S
C954 H938 0.931 . S
C954 C948 1.383 . S
C954 C953 1.379 . S
H955 C949 0.959 . S
H956 C949 0.961 . S
H957 C949 0.960 . S
H958 C950 0.930 . S
H959 C951 0.929 . S
H960 C968 0.929 . S
H961 C970 0.930 . S
H962 C972 0.930 . S
H963 C975 0.929 . S
H964 C978 0.930 . S
H965 C980 0.960 . S
H966 C980 0.960 . S
H967 C980 0.960 . S
C968 H960 0.929 . S
C968 C969 1.377 . S
C968 C970 1.384 . S
C969 C968 1.377 . S
C969 C975 1.390 . S
C970 H961 0.930 . S
C970 C968 1.384 . S
C970 C971 1.372 . S
C971 C970 1.372 . S
C971 C972 1.400 . S
C971 C976 1.490 . S
C972 H962 0.930 . S
C972 C971 1.400 . S
C972 C975 1.386 . S
H973 C989 0.930 . S
H974 C990 0.931 . S
C975 H963 0.929 . S
C975 C969 1.390 . S
C975 C972 1.386 . S
C976 C971 1.490 . S
C976 C978 1.395 . S
C976 C979 1.403 . S
H977 C983 0.930 . S
C978 H964 0.930 . S
C978 C976 1.395 . S
C978 C981 1.403 . S
C979 C976 1.403 . S
C979 C980 1.524 . S
C979 C983 1.400 . S
C980 H965 0.960 . S
C980 H966 0.960 . S
C980 H967 0.960 . S
C980 C979 1.524 . S
C981 C978 1.403 . S
C981 C982 1.392 . S
C981 C985 1.495 . S
C982 C981 1.392 . S
C982 C983 1.385 . S
C982 C984 1.478 . S
C983 H977 0.930 . S
C983 C979 1.400 . S
C983 C982 1.385 . S
C984 C982 1.478 . S
C984 C986 1.381 . S
C984 C990 1.383 . S
C985 C981 1.495 . S
C985 H991 0.959 . S
C985 H992 0.961 . S
C985 H993 0.960 . S
C986 C984 1.381 . S
C986 C987 1.394 . S
C986 H994 0.930 . S
C987 C986 1.394 . S
C987 C988 1.383 . S
C987 H995 0.929 . S
C988 C987 1.383 . S
C988 C989 1.377 . S
C989 H973 0.930 . S
C989 C988 1.377 . S
C989 C990 1.379 . S
C990 H974 0.931 . S
C990 C984 1.383 . S
C990 C989 1.379 . S
H991 C985 0.959 . S
H992 C985 0.961 . S
H993 C985 0.960 . S
H994 C986 0.930 . S
H995 C987 0.929 . S
H996 C1004 0.929 . S
H997 C1006 0.930 . S
H998 C1008 0.930 . S
H999 C1011 0.929 . S
H1000 C1014 0.930 . S
H1001 C1016 0.960 . S
H1002 C1016 0.960 . S
H1003 C1016 0.960 . S
C1004 H996 0.929 . S
C1004 C1005 1.377 . S
C1004 C1006 1.384 . S
C1005 C1004 1.377 . S
C1005 C1011 1.390 . S
C1006 H997 0.930 . S
C1006 C1004 1.384 . S
C1006 C1007 1.372 . S
C1007 C1006 1.372 . S
C1007 C1008 1.400 . S
C1007 C1012 1.490 . S
C1008 H998 0.930 . S
C1008 C1007 1.400 . S
C1008 C1011 1.386 . S
H1009 C1025 0.930 . S
H1010 C1026 0.931 . S
C1011 H999 0.929 . S
C1011 C1005 1.390 . S
C1011 C1008 1.386 . S
C1012 C1007 1.490 . S
C1012 C1014 1.395 . S
C1012 C1015 1.403 . S
H1013 C1019 0.930 . S
C1014 H1000 0.930 . S
C1014 C1012 1.395 . S
C1014 C1017 1.403 . S
C1015 C1012 1.403 . S
C1015 C1016 1.524 . S
C1015 C1019 1.400 . S
C1016 H1001 0.960 . S
C1016 H1002 0.960 . S
C1016 H1003 0.960 . S
C1016 C1015 1.524 . S
C1017 C1014 1.403 . S
C1017 C1018 1.392 . S
C1017 C1021 1.495 . S
C1018 C1017 1.392 . S
C1018 C1019 1.385 . S
C1018 C1020 1.478 . S
C1019 H1013 0.930 . S
C1019 C1015 1.400 . S
C1019 C1018 1.385 . S
C1020 C1018 1.478 . S
C1020 C1022 1.381 . S
C1020 C1026 1.383 . S
C1021 C1017 1.495 . S
C1021 H1027 0.959 . S
C1021 H1028 0.961 . S
C1021 H1029 0.960 . S
C1022 C1020 1.381 . S
C1022 C1023 1.394 . S
C1022 H1030 0.930 . S
C1023 C1022 1.394 . S
C1023 C1024 1.383 . S
C1023 H1031 0.929 . S
C1024 C1023 1.383 . S
C1024 C1025 1.377 . S
C1025 H1009 0.930 . S
C1025 C1024 1.377 . S
C1025 C1026 1.379 . S
C1026 H1010 0.931 . S
C1026 C1020 1.383 . S
C1026 C1025 1.379 . S
H1027 C1021 0.959 . S
H1028 C1021 0.961 . S
H1029 C1021 0.960 . S
H1030 C1022 0.930 . S
H1031 C1023 0.929 . S
H1032 C1040 0.929 . S
H1033 C1042 0.930 . S
H1034 C1044 0.930 . S
H1035 C1047 0.929 . S
H1036 C1050 0.930 . S
H1037 C1052 0.960 . S
H1038 C1052 0.960 . S
H1039 C1052 0.960 . S
C1040 H1032 0.929 . S
C1040 C1041 1.377 . S
C1040 C1042 1.384 . S
C1041 C1040 1.377 . S
C1041 C1047 1.390 . S
C1042 H1033 0.930 . S
C1042 C1040 1.384 . S
C1042 C1043 1.372 . S
C1043 C1042 1.372 . S
C1043 C1044 1.400 . S
C1043 C1048 1.490 . S
C1044 H1034 0.930 . S
C1044 C1043 1.400 . S
C1044 C1047 1.386 . S
H1045 C1061 0.930 . S
H1046 C1062 0.931 . S
C1047 H1035 0.929 . S
C1047 C1041 1.390 . S
C1047 C1044 1.386 . S
C1048 C1043 1.490 . S
C1048 C1050 1.395 . S
C1048 C1051 1.403 . S
H1049 C1055 0.930 . S
C1050 H1036 0.930 . S
C1050 C1048 1.395 . S
C1050 C1053 1.403 . S
C1051 C1048 1.403 . S
C1051 C1052 1.524 . S
C1051 C1055 1.400 . S
C1052 H1037 0.960 . S
C1052 H1038 0.960 . S
C1052 H1039 0.960 . S
C1052 C1051 1.524 . S
C1053 C1050 1.403 . S
C1053 C1054 1.392 . S
C1053 C1057 1.495 . S
C1054 C1053 1.392 . S
C1054 C1055 1.385 . S
C1054 C1056 1.478 . S
C1055 H1049 0.930 . S
C1055 C1051 1.400 . S
C1055 C1054 1.385 . S
C1056 C1054 1.478 . S
C1056 C1058 1.381 . S
C1056 C1062 1.383 . S
C1057 C1053 1.495 . S
C1057 H1063 0.959 . S
C1057 H1064 0.961 . S
C1057 H1065 0.960 . S
C1058 C1056 1.381 . S
C1058 C1059 1.394 . S
C1058 H1066 0.930 . S
C1059 C1058 1.394 . S
C1059 C1060 1.383 . S
C1059 H1067 0.929 . S
C1060 C1059 1.383 . S
C1060 C1061 1.377 . S
C1061 H1045 0.930 . S
C1061 C1060 1.377 . S
C1061 C1062 1.379 . S
C1062 H1046 0.931 . S
C1062 C1056 1.383 . S
C1062 C1061 1.379 . S
H1063 C1057 0.959 . S
H1064 C1057 0.961 . S
H1065 C1057 0.960 . S
H1066 C1058 0.930 . S
H1067 C1059 0.929 . S
H1068 C1076 0.929 . S
H1069 C1078 0.930 . S
H1070 C1080 0.930 . S
H1071 C1083 0.929 . S
H1072 C1086 0.930 . S
H1073 C1088 0.960 . S
H1074 C1088 0.960 . S
H1075 C1088 0.960 . S
C1076 H1068 0.929 . S
C1076 C1077 1.377 . S
C1076 C1078 1.384 . S
C1077 C1076 1.377 . S
C1077 C1083 1.390 . S
C1078 H1069 0.930 . S
C1078 C1076 1.384 . S
C1078 C1079 1.372 . S
C1079 C1078 1.372 . S
C1079 C1080 1.400 . S
C1079 C1084 1.490 . S
C1080 H1070 0.930 . S
C1080 C1079 1.400 . S
C1080 C1083 1.386 . S
H1081 C1097 0.930 . S
H1082 C1098 0.931 . S
C1083 H1071 0.929 . S
C1083 C1077 1.390 . S
C1083 C1080 1.386 . S
C1084 C1079 1.490 . S
C1084 C1086 1.395 . S
C1084 C1087 1.403 . S
H1085 C1091 0.930 . S
C1086 H1072 0.930 . S
C1086 C1084 1.395 . S
C1086 C1089 1.403 . S
C1087 C1084 1.403 . S
C1087 C1088 1.524 . S
C1087 C1091 1.400 . S
C1088 H1073 0.960 . S
C1088 H1074 0.960 . S
C1088 H1075 0.960 . S
C1088 C1087 1.524 . S
C1089 C1086 1.403 . S
C1089 C1090 1.392 . S
C1089 C1093 1.495 . S
C1090 C1089 1.392 . S
C1090 C1091 1.385 . S
C1090 C1092 1.478 . S
C1091 H1085 0.930 . S
C1091 C1087 1.400 . S
C1091 C1090 1.385 . S
C1092 C1090 1.478 . S
C1092 C1094 1.381 . S
C1092 C1098 1.383 . S
C1093 C1089 1.495 . S
C1093 H1099 0.959 . S
C1093 H1100 0.961 . S
C1093 H1101 0.960 . S
C1094 C1092 1.381 . S
C1094 C1095 1.394 . S
C1094 H1102 0.930 . S
C1095 C1094 1.394 . S
C1095 C1096 1.383 . S
C1095 H1103 0.929 . S
C1096 C1095 1.383 . S
C1096 C1097 1.377 . S
C1097 H1081 0.930 . S
C1097 C1096 1.377 . S
C1097 C1098 1.379 . S
C1098 H1082 0.931 . S
C1098 C1092 1.383 . S
C1098 C1097 1.379 . S
H1099 C1093 0.959 . S
H1100 C1093 0.961 . S
H1101 C1093 0.960 . S
H1102 C1094 0.930 . S
H1103 C1095 0.929 . S
H1104 C1112 0.929 . S
H1105 C1114 0.930 . S
H1106 C1116 0.930 . S
H1107 C1119 0.929 . S
H1108 C1122 0.930 . S
H1109 C1124 0.960 . S
H1110 C1124 0.960 . S
H1111 C1124 0.960 . S
C1112 H1104 0.929 . S
C1112 C1113 1.377 . S
C1112 C1114 1.384 . S
C1113 C1112 1.377 . S
C1113 C1119 1.390 . S
C1114 H1105 0.930 . S
C1114 C1112 1.384 . S
C1114 C1115 1.372 . S
C1115 C1114 1.372 . S
C1115 C1116 1.400 . S
C1115 C1120 1.490 . S
C1116 H1106 0.930 . S
C1116 C1115 1.400 . S
C1116 C1119 1.386 . S
H1117 C1133 0.930 . S
H1118 C1134 0.931 . S
C1119 H1107 0.929 . S
C1119 C1113 1.390 . S
C1119 C1116 1.386 . S
C1120 C1115 1.490 . S
C1120 C1122 1.395 . S
C1120 C1123 1.403 . S
H1121 C1127 0.930 . S
C1122 H1108 0.930 . S
C1122 C1120 1.395 . S
C1122 C1125 1.403 . S
C1123 C1120 1.403 . S
C1123 C1124 1.524 . S
C1123 C1127 1.400 . S
C1124 H1109 0.960 . S
C1124 H1110 0.960 . S
C1124 H1111 0.960 . S
C1124 C1123 1.524 . S
C1125 C1122 1.403 . S
C1125 C1126 1.392 . S
C1125 C1129 1.495 . S
C1126 C1125 1.392 . S
C1126 C1127 1.385 . S
C1126 C1128 1.478 . S
C1127 H1121 0.930 . S
C1127 C1123 1.400 . S
C1127 C1126 1.385 . S
C1128 C1126 1.478 . S
C1128 C1130 1.381 . S
C1128 C1134 1.383 . S
C1129 C1125 1.495 . S
C1129 H1135 0.959 . S
C1129 H1136 0.961 . S
C1129 H1137 0.960 . S
C1130 C1128 1.381 . S
C1130 C1131 1.394 . S
C1130 H1138 0.930 . S
C1131 C1130 1.394 . S
C1131 C1132 1.383 . S
C1131 H1139 0.929 . S
C1132 C1131 1.383 . S
C1132 C1133 1.377 . S
C1133 H1117 0.930 . S
C1133 C1132 1.377 . S
C1133 C1134 1.379 . S
C1134 H1118 0.931 . S
C1134 C1128 1.383 . S
C1134 C1133 1.379 . S
H1135 C1129 0.959 . S
H1136 C1129 0.961 . S
H1137 C1129 0.960 . S
H1138 C1130 0.930 . S
H1139 C1131 0.929 . S
H1140 C1148 0.929 . S
H1141 C1150 0.930 . S
H1142 C1152 0.930 . S
H1143 C1155 0.929 . S
H1144 C1158 0.930 . S
H1145 C1160 0.960 . S
H1146 C1160 0.960 . S
H1147 C1160 0.960 . S
C1148 H1140 0.929 . S
C1148 C1149 1.377 . S
C1148 C1150 1.384 . S
C1149 C1148 1.377 . S
C1149 C1155 1.390 . S
C1150 H1141 0.930 . S
C1150 C1148 1.384 . S
C1150 C1151 1.372 . S
C1151 C1150 1.372 . S
C1151 C1152 1.400 . S
C1151 C1156 1.490 . S
C1152 H1142 0.930 . S
C1152 C1151 1.400 . S
C1152 C1155 1.386 . S
H1153 C1169 0.930 . S
H1154 C1170 0.931 . S
C1155 H1143 0.929 . S
C1155 C1149 1.390 . S
C1155 C1152 1.386 . S
C1156 C1151 1.490 . S
C1156 C1158 1.395 . S
C1156 C1159 1.403 . S
H1157 C1163 0.930 . S
C1158 H1144 0.930 . S
C1158 C1156 1.395 . S
C1158 C1161 1.403 . S
C1159 C1156 1.403 . S
C1159 C1160 1.524 . S
C1159 C1163 1.400 . S
C1160 H1145 0.960 . S
C1160 H1146 0.960 . S
C1160 H1147 0.960 . S
C1160 C1159 1.524 . S
C1161 C1158 1.403 . S
C1161 C1162 1.392 . S
C1161 C1165 1.495 . S
C1162 C1161 1.392 . S
C1162 C1163 1.385 . S
C1162 C1164 1.478 . S
C1163 H1157 0.930 . S
C1163 C1159 1.400 . S
C1163 C1162 1.385 . S
C1164 C1162 1.478 . S
C1164 C1166 1.381 . S
C1164 C1170 1.383 . S
C1165 C1161 1.495 . S
C1165 H1171 0.959 . S
C1165 H1172 0.961 . S
C1165 H1173 0.960 . S
C1166 C1164 1.381 . S
C1166 C1167 1.394 . S
C1166 H1174 0.930 . S
C1167 C1166 1.394 . S
C1167 C1168 1.383 . S
C1167 H1175 0.929 . S
C1168 C1167 1.383 . S
C1168 C1169 1.377 . S
C1169 H1153 0.930 . S
C1169 C1168 1.377 . S
C1169 C1170 1.379 . S
C1170 H1154 0.931 . S
C1170 C1164 1.383 . S
C1170 C1169 1.379 . S
H1171 C1165 0.959 . S
H1172 C1165 0.961 . S
H1173 C1165 0.960 . S
H1174 C1166 0.930 . S
H1175 C1167 0.929 . S
H1176 C1184 0.929 . S
H1177 C1186 0.930 . S
H1178 C1188 0.930 . S
H1179 C1191 0.929 . S
H1180 C1194 0.930 . S
H1181 C1196 0.960 . S
H1182 C1196 0.960 . S
H1183 C1196 0.960 . S
C1184 H1176 0.929 . S
C1184 C1185 1.377 . S
C1184 C1186 1.384 . S
C1185 C1184 1.377 . S
C1185 C1191 1.390 . S
C1186 H1177 0.930 . S
C1186 C1184 1.384 . S
C1186 C1187 1.372 . S
C1187 C1186 1.372 . S
C1187 C1188 1.400 . S
C1187 C1192 1.490 . S
C1188 H1178 0.930 . S
C1188 C1187 1.400 . S
C1188 C1191 1.386 . S
H1189 C1205 0.930 . S
H1190 C1206 0.931 . S
C1191 H1179 0.929 . S
C1191 C1185 1.390 . S
C1191 C1188 1.386 . S
C1192 C1187 1.490 . S
C1192 C1194 1.395 . S
C1192 C1195 1.403 . S
H1193 C1199 0.930 . S
C1194 H1180 0.930 . S
C1194 C1192 1.395 . S
C1194 C1197 1.403 . S
C1195 C1192 1.403 . S
C1195 C1196 1.524 . S
C1195 C1199 1.400 . S
C1196 H1181 0.960 . S
C1196 H1182 0.960 . S
C1196 H1183 0.960 . S
C1196 C1195 1.524 . S
C1197 C1194 1.403 . S
C1197 C1198 1.392 . S
C1197 C1201 1.495 . S
C1198 C1197 1.392 . S
C1198 C1199 1.385 . S
C1198 C1200 1.478 . S
C1199 H1193 0.930 . S
C1199 C1195 1.400 . S
C1199 C1198 1.385 . S
C1200 C1198 1.478 . S
C1200 C1202 1.381 . S
C1200 C1206 1.383 . S
C1201 C1197 1.495 . S
C1201 H1207 0.959 . S
C1201 H1208 0.961 . S
C1201 H1209 0.960 . S
C1202 C1200 1.381 . S
C1202 C1203 1.394 . S
C1202 H1210 0.930 . S
C1203 C1202 1.394 . S
C1203 C1204 1.383 . S
C1203 H1211 0.929 . S
C1204 C1203 1.383 . S
C1204 C1205 1.377 . S
C1205 H1189 0.930 . S
C1205 C1204 1.377 . S
C1205 C1206 1.379 . S
C1206 H1190 0.931 . S
C1206 C1200 1.383 . S
C1206 C1205 1.379 . S
H1207 C1201 0.959 . S
H1208 C1201 0.961 . S
H1209 C1201 0.960 . S
H1210 C1202 0.930 . S
H1211 C1203 0.929 . S
H1212 C1220 0.929 . S
H1213 C1222 0.930 . S
H1214 C1224 0.930 . S
H1215 C1227 0.929 . S
H1216 C1230 0.930 . S
H1217 C1232 0.960 . S
H1218 C1232 0.960 . S
H1219 C1232 0.960 . S
C1220 H1212 0.929 . S
C1220 C1221 1.377 . S
C1220 C1222 1.384 . S
C1221 C1220 1.377 . S
C1221 C1227 1.390 . S
C1222 H1213 0.930 . S
C1222 C1220 1.384 . S
C1222 C1223 1.372 . S
C1223 C1222 1.372 . S
C1223 C1224 1.400 . S
C1223 C1228 1.490 . S
C1224 H1214 0.930 . S
C1224 C1223 1.400 . S
C1224 C1227 1.386 . S
H1225 C1241 0.930 . S
H1226 C1242 0.931 . S
C1227 H1215 0.929 . S
C1227 C1221 1.390 . S
C1227 C1224 1.386 . S
C1228 C1223 1.490 . S
C1228 C1230 1.395 . S
C1228 C1231 1.403 . S
H1229 C1235 0.930 . S
C1230 H1216 0.930 . S
C1230 C1228 1.395 . S
C1230 C1233 1.403 . S
C1231 C1228 1.403 . S
C1231 C1232 1.524 . S
C1231 C1235 1.400 . S
C1232 H1217 0.960 . S
C1232 H1218 0.960 . S
C1232 H1219 0.960 . S
C1232 C1231 1.524 . S
C1233 C1230 1.403 . S
C1233 C1234 1.392 . S
C1233 C1237 1.495 . S
C1234 C1233 1.392 . S
C1234 C1235 1.385 . S
C1234 C1236 1.478 . S
C1235 H1229 0.930 . S
C1235 C1231 1.400 . S
C1235 C1234 1.385 . S
C1236 C1234 1.478 . S
C1236 C1238 1.381 . S
C1236 C1242 1.383 . S
C1237 C1233 1.495 . S
C1237 H1243 0.959 . S
C1237 H1244 0.961 . S
C1237 H1245 0.960 . S
C1238 C1236 1.381 . S
C1238 C1239 1.394 . S
C1238 H1246 0.930 . S
C1239 C1238 1.394 . S
C1239 C1240 1.383 . S
C1239 H1247 0.929 . S
C1240 C1239 1.383 . S
C1240 C1241 1.377 . S
C1241 H1225 0.930 . S
C1241 C1240 1.377 . S
C1241 C1242 1.379 . S
C1242 H1226 0.931 . S
C1242 C1236 1.383 . S
C1242 C1241 1.379 . S
H1243 C1237 0.959 . S
H1244 C1237 0.961 . S
H1245 C1237 0.960 . S
H1246 C1238 0.930 . S
H1247 C1239 0.929 . S
H1248 C1256 0.929 . S
H1249 C1258 0.930 . S
H1250 C1260 0.930 . S
H1251 C1263 0.929 . S
H1252 C1266 0.930 . S
H1253 C1268 0.960 . S
H1254 C1268 0.960 . S
H1255 C1268 0.960 . S
C1256 H1248 0.929 . S
C1256 C1257 1.377 . S
C1256 C1258 1.384 . S
C1257 C1256 1.377 . S
C1257 C1263 1.390 . S
C1258 H1249 0.930 . S
C1258 C1256 1.384 . S
C1258 C1259 1.372 . S
C1259 C1258 1.372 . S
C1259 C1260 1.400 . S
C1259 C1264 1.490 . S
C1260 H1250 0.930 . S
C1260 C1259 1.400 . S
C1260 C1263 1.386 . S
H1261 C1277 0.930 . S
H1262 C1278 0.931 . S
C1263 H1251 0.929 . S
C1263 C1257 1.390 . S
C1263 C1260 1.386 . S
C1264 C1259 1.490 . S
C1264 C1266 1.395 . S
C1264 C1267 1.403 . S
H1265 C1271 0.930 . S
C1266 H1252 0.930 . S
C1266 C1264 1.395 . S
C1266 C1269 1.403 . S
C1267 C1264 1.403 . S
C1267 C1268 1.524 . S
C1267 C1271 1.400 . S
C1268 H1253 0.960 . S
C1268 H1254 0.960 . S
C1268 H1255 0.960 . S
C1268 C1267 1.524 . S
C1269 C1266 1.403 . S
C1269 C1270 1.392 . S
C1269 C1273 1.495 . S
C1270 C1269 1.392 . S
C1270 C1271 1.385 . S
C1270 C1272 1.478 . S
C1271 H1265 0.930 . S
C1271 C1267 1.400 . S
C1271 C1270 1.385 . S
C1272 C1270 1.478 . S
C1272 C1274 1.381 . S
C1272 C1278 1.383 . S
C1273 C1269 1.495 . S
C1273 H1279 0.959 . S
C1273 H1280 0.961 . S
C1273 H1281 0.960 . S
C1274 C1272 1.381 . S
C1274 C1275 1.394 . S
C1274 H1282 0.930 . S
C1275 C1274 1.394 . S
C1275 C1276 1.383 . S
C1275 H1283 0.929 . S
C1276 C1275 1.383 . S
C1276 C1277 1.377 . S
C1277 H1261 0.930 . S
C1277 C1276 1.377 . S
C1277 C1278 1.379 . S
C1278 H1262 0.931 . S
C1278 C1272 1.383 . S
C1278 C1277 1.379 . S
H1279 C1273 0.959 . S
H1280 C1273 0.961 . S
H1281 C1273 0.960 . S
H1282 C1274 0.930 . S
H1283 C1275 0.929 . S
H1284 C1292 0.929 . S
H1285 C1294 0.930 . S
H1286 C1296 0.930 . S
H1287 C1299 0.929 . S
H1288 C1302 0.930 . S
H1289 C1304 0.960 . S
H1290 C1304 0.960 . S
H1291 C1304 0.960 . S
C1292 H1284 0.929 . S
C1292 C1293 1.377 . S
C1292 C1294 1.384 . S
C1293 C1292 1.377 . S
C1293 C1299 1.390 . S
C1294 H1285 0.930 . S
C1294 C1292 1.384 . S
C1294 C1295 1.372 . S
C1295 C1294 1.372 . S
C1295 C1296 1.400 . S
C1295 C1300 1.490 . S
C1296 H1286 0.930 . S
C1296 C1295 1.400 . S
C1296 C1299 1.386 . S
H1297 C1313 0.930 . S
H1298 C1314 0.931 . S
C1299 H1287 0.929 . S
C1299 C1293 1.390 . S
C1299 C1296 1.386 . S
C1300 C1295 1.490 . S
C1300 C1302 1.395 . S
C1300 C1303 1.403 . S
H1301 C1307 0.930 . S
C1302 H1288 0.930 . S
C1302 C1300 1.395 . S
C1302 C1305 1.403 . S
C1303 C1300 1.403 . S
C1303 C1304 1.524 . S
C1303 C1307 1.400 . S
C1304 H1289 0.960 . S
C1304 H1290 0.960 . S
C1304 H1291 0.960 . S
C1304 C1303 1.524 . S
C1305 C1302 1.403 . S
C1305 C1306 1.392 . S
C1305 C1309 1.495 . S
C1306 C1305 1.392 . S
C1306 C1307 1.385 . S
C1306 C1308 1.478 . S
C1307 H1301 0.930 . S
C1307 C1303 1.400 . S
C1307 C1306 1.385 . S
C1308 C1306 1.478 . S
C1308 C1310 1.381 . S
C1308 C1314 1.383 . S
C1309 C1305 1.495 . S
C1309 H1315 0.959 . S
C1309 H1316 0.961 . S
C1309 H1317 0.960 . S
C1310 C1308 1.381 . S
C1310 C1311 1.394 . S
C1310 H1318 0.930 . S
C1311 C1310 1.394 . S
C1311 C1312 1.383 . S
C1311 H1319 0.929 . S
C1312 C1311 1.383 . S
C1312 C1313 1.377 . S
C1313 H1297 0.930 . S
C1313 C1312 1.377 . S
C1313 C1314 1.379 . S
C1314 H1298 0.931 . S
C1314 C1308 1.383 . S
C1314 C1313 1.379 . S
H1315 C1309 0.959 . S
H1316 C1309 0.961 . S
H1317 C1309 0.960 . S
H1318 C1310 0.930 . S
H1319 C1311 0.929 . S
H1320 C1328 0.929 . S
H1321 C1330 0.930 . S
H1322 C1332 0.930 . S
H1323 C1335 0.929 . S
H1324 C1338 0.930 . S
H1325 C1340 0.960 . S
H1326 C1340 0.960 . S
H1327 C1340 0.960 . S
C1328 H1320 0.929 . S
C1328 C1329 1.377 . S
C1328 C1330 1.384 . S
C1329 C1328 1.377 . S
C1329 C1335 1.390 . S
C1330 H1321 0.930 . S
C1330 C1328 1.384 . S
C1330 C1331 1.372 . S
C1331 C1330 1.372 . S
C1331 C1332 1.400 . S
C1331 C1336 1.490 . S
C1332 H1322 0.930 . S
C1332 C1331 1.400 . S
C1332 C1335 1.386 . S
H1333 C1349 0.930 . S
H1334 C1350 0.931 . S
C1335 H1323 0.929 . S
C1335 C1329 1.390 . S
C1335 C1332 1.386 . S
C1336 C1331 1.490 . S
C1336 C1338 1.395 . S
C1336 C1339 1.403 . S
H1337 C1343 0.930 . S
C1338 H1324 0.930 . S
C1338 C1336 1.395 . S
C1338 C1341 1.403 . S
C1339 C1336 1.403 . S
C1339 C1340 1.524 . S
C1339 C1343 1.400 . S
C1340 H1325 0.960 . S
C1340 H1326 0.960 . S
C1340 H1327 0.960 . S
C1340 C1339 1.524 . S
C1341 C1338 1.403 . S
C1341 C1342 1.392 . S
C1341 C1345 1.495 . S
C1342 C1341 1.392 . S
C1342 C1343 1.385 . S
C1342 C1344 1.478 . S
C1343 H1337 0.930 . S
C1343 C1339 1.400 . S
C1343 C1342 1.385 . S
C1344 C1342 1.478 . S
C1344 C1346 1.381 . S
C1344 C1350 1.383 . S
C1345 C1341 1.495 . S
C1345 H1351 0.959 . S
C1345 H1352 0.961 . S
C1345 H1353 0.960 . S
C1346 C1344 1.381 . S
C1346 C1347 1.394 . S
C1346 H1354 0.930 . S
C1347 C1346 1.394 . S
C1347 C1348 1.383 . S
C1347 H1355 0.929 . S
C1348 C1347 1.383 . S
C1348 C1349 1.377 . S
C1349 H1333 0.930 . S
C1349 C1348 1.377 . S
C1349 C1350 1.379 . S
C1350 H1334 0.931 . S
C1350 C1344 1.383 . S
C1350 C1349 1.379 . S
H1351 C1345 0.959 . S
H1352 C1345 0.961 . S
H1353 C1345 0.960 . S
H1354 C1346 0.930 . S
H1355 C1347 0.929 . S
H1356 C1364 0.929 . S
H1357 C1366 0.930 . S
H1358 C1368 0.930 . S
H1359 C1371 0.929 . S
H1360 C1374 0.930 . S
H1361 C1376 0.960 . S
H1362 C1376 0.960 . S
H1363 C1376 0.960 . S
C1364 H1356 0.929 . S
C1364 C1365 1.377 . S
C1364 C1366 1.384 . S
C1365 C1364 1.377 . S
C1365 C1371 1.390 . S
C1366 H1357 0.930 . S
C1366 C1364 1.384 . S
C1366 C1367 1.372 . S
C1367 C1366 1.372 . S
C1367 C1368 1.400 . S
C1367 C1372 1.490 . S
C1368 H1358 0.930 . S
C1368 C1367 1.400 . S
C1368 C1371 1.386 . S
H1369 C1385 0.930 . S
H1370 C1386 0.931 . S
C1371 H1359 0.929 . S
C1371 C1365 1.390 . S
C1371 C1368 1.386 . S
C1372 C1367 1.490 . S
C1372 C1374 1.395 . S
C1372 C1375 1.403 . S
H1373 C1379 0.930 . S
C1374 H1360 0.930 . S
C1374 C1372 1.395 . S
C1374 C1377 1.403 . S
C1375 C1372 1.403 . S
C1375 C1376 1.524 . S
C1375 C1379 1.400 . S
C1376 H1361 0.960 . S
C1376 H1362 0.960 . S
C1376 H1363 0.960 . S
C1376 C1375 1.524 . S
C1377 C1374 1.403 . S
C1377 C1378 1.392 . S
C1377 C1381 1.495 . S
C1378 C1377 1.392 . S
C1378 C1379 1.385 . S
C1378 C1380 1.478 . S
C1379 H1373 0.930 . S
C1379 C1375 1.400 . S
C1379 C1378 1.385 . S
C1380 C1378 1.478 . S
C1380 C1382 1.381 . S
C1380 C1386 1.383 . S
C1381 C1377 1.495 . S
C1381 H1387 0.959 . S
C1381 H1388 0.961 . S
C1381 H1389 0.960 . S
C1382 C1380 1.381 . S
C1382 C1383 1.394 . S
C1382 H1390 0.930 . S
C1383 C1382 1.394 . S
C1383 C1384 1.383 . S
C1383 H1391 0.929 . S
C1384 C1383 1.383 . S
C1384 C1385 1.377 . S
C1385 H1369 0.930 . S
C1385 C1384 1.377 . S
C1385 C1386 1.379 . S
C1386 H1370 0.931 . S
C1386 C1380 1.383 . S
C1386 C1385 1.379 . S
H1387 C1381 0.959 . S
H1388 C1381 0.961 . S
H1389 C1381 0.960 . S
H1390 C1382 0.930 . S
H1391 C1383 0.929 . S
H1392 C1400 0.929 . S
H1393 C1402 0.930 . S
H1394 C1404 0.930 . S
H1395 C1407 0.929 . S
H1396 C1410 0.930 . S
H1397 C1412 0.960 . S
H1398 C1412 0.960 . S
H1399 C1412 0.960 . S
C1400 H1392 0.929 . S
C1400 C1401 1.377 . S
C1400 C1402 1.384 . S
C1401 C1400 1.377 . S
C1401 C1407 1.390 . S
C1402 H1393 0.930 . S
C1402 C1400 1.384 . S
C1402 C1403 1.372 . S
C1403 C1402 1.372 . S
C1403 C1404 1.400 . S
C1403 C1408 1.490 . S
C1404 H1394 0.930 . S
C1404 C1403 1.400 . S
C1404 C1407 1.386 . S
H1405 C1421 0.930 . S
H1406 C1422 0.931 . S
C1407 H1395 0.929 . S
C1407 C1401 1.390 . S
C1407 C1404 1.386 . S
C1408 C1403 1.490 . S
C1408 C1410 1.395 . S
C1408 C1411 1.403 . S
H1409 C1415 0.930 . S
C1410 H1396 0.930 . S
C1410 C1408 1.395 . S
C1410 C1413 1.403 . S
C1411 C1408 1.403 . S
C1411 C1412 1.524 . S
C1411 C1415 1.400 . S
C1412 H1397 0.960 . S
C1412 H1398 0.960 . S
C1412 H1399 0.960 . S
C1412 C1411 1.524 . S
C1413 C1410 1.403 . S
C1413 C1414 1.392 . S
C1413 C1417 1.495 . S
C1414 C1413 1.392 . S
C1414 C1415 1.385 . S
C1414 C1416 1.478 . S
C1415 H1409 0.930 . S
C1415 C1411 1.400 . S
C1415 C1414 1.385 . S
C1416 C1414 1.478 . S
C1416 C1418 1.381 . S
C1416 C1422 1.383 . S
C1417 C1413 1.495 . S
C1417 H1423 0.959 . S
C1417 H1424 0.961 . S
C1417 H1425 0.960 . S
C1418 C1416 1.381 . S
C1418 C1419 1.394 . S
C1418 H1426 0.930 . S
C1419 C1418 1.394 . S
C1419 C1420 1.383 . S
C1419 H1427 0.929 . S
C1420 C1419 1.383 . S
C1420 C1421 1.377 . S
C1421 H1405 0.930 . S
C1421 C1420 1.377 . S
C1421 C1422 1.379 . S
C1422 H1406 0.931 . S
C1422 C1416 1.383 . S
C1422 C1421 1.379 . S
H1423 C1417 0.959 . S
H1424 C1417 0.961 . S
H1425 C1417 0.960 . S
H1426 C1418 0.930 . S
H1427 C1419 0.929 . S
H1428 C1436 0.929 . S
H1429 C1438 0.930 . S
H1430 C1440 0.930 . S
H1431 C1443 0.929 . S
H1432 C1446 0.930 . S
H1433 C1448 0.960 . S
H1434 C1448 0.960 . S
H1435 C1448 0.960 . S
C1436 H1428 0.929 . S
C1436 C1437 1.377 . S
C1436 C1438 1.384 . S
C1437 C1436 1.377 . S
C1437 C1443 1.390 . S
C1438 H1429 0.930 . S
C1438 C1436 1.384 . S
C1438 C1439 1.372 . S
C1439 C1438 1.372 . S
C1439 C1440 1.400 . S
C1439 C1444 1.490 . S
C1440 H1430 0.930 . S
C1440 C1439 1.400 . S
C1440 C1443 1.386 . S
H1441 C1457 0.930 . S
H1442 C1458 0.931 . S
C1443 H1431 0.929 . S
C1443 C1437 1.390 . S
C1443 C1440 1.386 . S
C1444 C1439 1.490 . S
C1444 C1446 1.395 . S
C1444 C1447 1.403 . S
H1445 C1451 0.930 . S
C1446 H1432 0.930 . S
C1446 C1444 1.395 . S
C1446 C1449 1.403 . S
C1447 C1444 1.403 . S
C1447 C1448 1.524 . S
C1447 C1451 1.400 . S
C1448 H1433 0.960 . S
C1448 H1434 0.960 . S
C1448 H1435 0.960 . S
C1448 C1447 1.524 . S
C1449 C1446 1.403 . S
C1449 C1450 1.392 . S
C1449 C1453 1.495 . S
C1450 C1449 1.392 . S
C1450 C1451 1.385 . S
C1450 C1452 1.478 . S
C1451 H1445 0.930 . S
C1451 C1447 1.400 . S
C1451 C1450 1.385 . S
C1452 C1450 1.478 . S
C1452 C1454 1.381 . S
C1452 C1458 1.383 . S
C1453 C1449 1.495 . S
C1453 H1459 0.959 . S
C1453 H1460 0.961 . S
C1453 H1461 0.960 . S
C1454 C1452 1.381 . S
C1454 C1455 1.394 . S
C1454 H1462 0.930 . S
C1455 C1454 1.394 . S
C1455 C1456 1.383 . S
C1455 H1463 0.929 . S
C1456 C1455 1.383 . S
C1456 C1457 1.377 . S
C1457 H1441 0.930 . S
C1457 C1456 1.377 . S
C1457 C1458 1.379 . S
C1458 H1442 0.931 . S
C1458 C1452 1.383 . S
C1458 C1457 1.379 . S
H1459 C1453 0.959 . S
H1460 C1453 0.961 . S
H1461 C1453 0.960 . S
H1462 C1454 0.930 . S
H1463 C1455 0.929 . S
H1464 C1472 0.929 . S
H1465 C1474 0.930 . S
H1466 C1476 0.930 . S
H1467 C1479 0.929 . S
H1468 C1482 0.930 . S
H1469 C1484 0.960 . S
H1470 C1484 0.960 . S
H1471 C1484 0.960 . S
C1472 H1464 0.929 . S
C1472 C1473 1.377 . S
C1472 C1474 1.384 . S
C1473 C1472 1.377 . S
C1473 C1479 1.390 . S
C1474 H1465 0.930 . S
C1474 C1472 1.384 . S
C1474 C1475 1.372 . S
C1475 C1474 1.372 . S
C1475 C1476 1.400 . S
C1475 C1480 1.490 . S
C1476 H1466 0.930 . S
C1476 C1475 1.400 . S
C1476 C1479 1.386 . S
H1477 C1493 0.930 . S
H1478 C1494 0.931 . S
C1479 H1467 0.929 . S
C1479 C1473 1.390 . S
C1479 C1476 1.386 . S
C1480 C1475 1.490 . S
C1480 C1482 1.395 . S
C1480 C1483 1.403 . S
H1481 C1487 0.930 . S
C1482 H1468 0.930 . S
C1482 C1480 1.395 . S
C1482 C1485 1.403 . S
C1483 C1480 1.403 . S
C1483 C1484 1.524 . S
C1483 C1487 1.400 . S
C1484 H1469 0.960 . S
C1484 H1470 0.960 . S
C1484 H1471 0.960 . S
C1484 C1483 1.524 . S
C1485 C1482 1.403 . S
C1485 C1486 1.392 . S
C1485 C1489 1.495 . S
C1486 C1485 1.392 . S
C1486 C1487 1.385 . S
C1486 C1488 1.478 . S
C1487 H1481 0.930 . S
C1487 C1483 1.400 . S
C1487 C1486 1.385 . S
C1488 C1486 1.478 . S
C1488 C1490 1.381 . S
C1488 C1494 1.383 . S
C1489 C1485 1.495 . S
C1489 H1495 0.959 . S
C1489 H1496 0.961 . S
C1489 H1497 0.960 . S
C1490 C1488 1.381 . S
C1490 C1491 1.394 . S
C1490 H1498 0.930 . S
C1491 C1490 1.394 . S
C1491 C1492 1.383 . S
C1491 H1499 0.929 . S
C1492 C1491 1.383 . S
C1492 C1493 1.377 . S
C1493 H1477 0.930 . S
C1493 C1492 1.377 . S
C1493 C1494 1.379 . S
C1494 H1478 0.931 . S
C1494 C1488 1.383 . S
C1494 C1493 1.379 . S
H1495 C1489 0.959 . S
H1496 C1489 0.961 . S
H1497 C1489 0.960 . S
H1498 C1490 0.930 . S
H1499 C1491 0.929 . S
H1500 C1508 0.929 . S
H1501 C1510 0.930 . S
H1502 C1512 0.930 . S
H1503 C1515 0.929 . S
H1504 C1518 0.930 . S
H1505 C1520 0.960 . S
H1506 C1520 0.960 . S
H1507 C1520 0.960 . S
C1508 H1500 0.929 . S
C1508 C1509 1.377 . S
C1508 C1510 1.384 . S
C1509 C1508 1.377 . S
C1509 C1515 1.390 . S
C1510 H1501 0.930 . S
C1510 C1508 1.384 . S
C1510 C1511 1.372 . S
C1511 C1510 1.372 . S
C1511 C1512 1.400 . S
C1511 C1516 1.490 . S
C1512 H1502 0.930 . S
C1512 C1511 1.400 . S
C1512 C1515 1.386 . S
H1513 C1529 0.930 . S
H1514 C1530 0.931 . S
C1515 H1503 0.929 . S
C1515 C1509 1.390 . S
C1515 C1512 1.386 . S
C1516 C1511 1.490 . S
C1516 C1518 1.395 . S
C1516 C1519 1.403 . S
H1517 C1523 0.930 . S
C1518 H1504 0.930 . S
C1518 C1516 1.395 . S
C1518 C1521 1.403 . S
C1519 C1516 1.403 . S
C1519 C1520 1.524 . S
C1519 C1523 1.400 . S
C1520 H1505 0.960 . S
C1520 H1506 0.960 . S
C1520 H1507 0.960 . S
C1520 C1519 1.524 . S
C1521 C1518 1.403 . S
C1521 C1522 1.392 . S
C1521 C1525 1.495 . S
C1522 C1521 1.392 . S
C1522 C1523 1.385 . S
C1522 C1524 1.478 . S
C1523 H1517 0.930 . S
C1523 C1519 1.400 . S
C1523 C1522 1.385 . S
C1524 C1522 1.478 . S
C1524 C1526 1.381 . S
C1524 C1530 1.383 . S
C1525 C1521 1.495 . S
C1525 H1531 0.959 . S
C1525 H1532 0.961 . S
C1525 H1533 0.960 . S
C1526 C1524 1.381 . S
C1526 C1527 1.394 . S
C1526 H1534 0.930 . S
C1527 C1526 1.394 . S
C1527 C1528 1.383 . S
C1527 H1535 0.929 . S
C1528 C1527 1.383 . S
C1528 C1529 1.377 . S
C1529 H1513 0.930 . S
C1529 C1528 1.377 . S
C1529 C1530 1.379 . S
C1530 H1514 0.931 . S
C1530 C1524 1.383 . S
C1530 C1529 1.379 . S
H1531 C1525 0.959 . S
H1532 C1525 0.961 . S
H1533 C1525 0.960 . S
H1534 C1526 0.930 . S
H1535 C1527 0.929 . S
H1536 C1544 0.929 . S
H1537 C1546 0.930 . S
H1538 C1548 0.930 . S
H1539 C1551 0.929 . S
H1540 C1554 0.930 . S
H1541 C1556 0.960 . S
H1542 C1556 0.960 . S
H1543 C1556 0.960 . S
C1544 H1536 0.929 . S
C1544 C1545 1.377 . S
C1544 C1546 1.384 . S
C1545 C1544 1.377 . S
C1545 C1551 1.390 . S
C1546 H1537 0.930 . S
C1546 C1544 1.384 . S
C1546 C1547 1.372 . S
C1547 C1546 1.372 . S
C1547 C1548 1.400 . S
C1547 C1552 1.490 . S
C1548 H1538 0.930 . S
C1548 C1547 1.400 . S
C1548 C1551 1.386 . S
H1549 C1565 0.930 . S
H1550 C1566 0.931 . S
C1551 H1539 0.929 . S
C1551 C1545 1.390 . S
C1551 C1548 1.386 . S
C1552 C1547 1.490 . S
C1552 C1554 1.395 . S
C1552 C1555 1.403 . S
H1553 C1559 0.930 . S
C1554 H1540 0.930 . S
C1554 C1552 1.395 . S
C1554 C1557 1.403 . S
C1555 C1552 1.403 . S
C1555 C1556 1.524 . S
C1555 C1559 1.400 . S
C1556 H1541 0.960 . S
C1556 H1542 0.960 . S
C1556 H1543 0.960 . S
C1556 C1555 1.524 . S
C1557 C1554 1.403 . S
C1557 C1558 1.392 . S
C1557 C1561 1.495 . S
C1558 C1557 1.392 . S
C1558 C1559 1.385 . S
C1558 C1560 1.478 . S
C1559 H1553 0.930 . S
C1559 C1555 1.400 . S
C1559 C1558 1.385 . S
C1560 C1558 1.478 . S
C1560 C1562 1.381 . S
C1560 C1566 1.383 . S
C1561 C1557 1.495 . S
C1561 H1567 0.959 . S
C1561 H1568 0.961 . S
C1561 H1569 0.960 . S
C1562 C1560 1.381 . S
C1562 C1563 1.394 . S
C1562 H1570 0.930 . S
C1563 C1562 1.394 . S
C1563 C1564 1.383 . S
C1563 H1571 0.929 . S
C1564 C1563 1.383 . S
C1564 C1565 1.377 . S
C1565 H1549 0.930 . S
C1565 C1564 1.377 . S
C1565 C1566 1.379 . S
C1566 H1550 0.931 . S
C1566 C1560 1.383 . S
C1566 C1565 1.379 . S
H1567 C1561 0.959 . S
H1568 C1561 0.961 . S
H1569 C1561 0.960 . S
H1570 C1562 0.930 . S
H1571 C1563 0.929 . S
H1572 C1580 0.929 . S
H1573 C1582 0.930 . S
H1574 C1584 0.930 . S
H1575 C1587 0.929 . S
H1576 C1590 0.930 . S
H1577 C1592 0.960 . S
H1578 C1592 0.960 . S
H1579 C1592 0.960 . S
C1580 H1572 0.929 . S
C1580 C1581 1.377 . S
C1580 C1582 1.384 . S
C1581 C1580 1.377 . S
C1581 C1587 1.390 . S
C1582 H1573 0.930 . S
C1582 C1580 1.384 . S
C1582 C1583 1.372 . S
C1583 C1582 1.372 . S
C1583 C1584 1.400 . S
C1583 C1588 1.490 . S
C1584 H1574 0.930 . S
C1584 C1583 1.400 . S
C1584 C1587 1.386 . S
H1585 C1601 0.930 . S
H1586 C1602 0.931 . S
C1587 H1575 0.929 . S
C1587 C1581 1.390 . S
C1587 C1584 1.386 . S
C1588 C1583 1.490 . S
C1588 C1590 1.395 . S
C1588 C1591 1.403 . S
H1589 C1595 0.930 . S
C1590 H1576 0.930 . S
C1590 C1588 1.395 . S
C1590 C1593 1.403 . S
C1591 C1588 1.403 . S
C1591 C1592 1.524 . S
C1591 C1595 1.400 . S
C1592 H1577 0.960 . S
C1592 H1578 0.960 . S
C1592 H1579 0.960 . S
C1592 C1591 1.524 . S
C1593 C1590 1.403 . S
C1593 C1594 1.392 . S
C1593 C1597 1.495 . S
C1594 C1593 1.392 . S
C1594 C1595 1.385 . S
C1594 C1596 1.478 . S
C1595 H1589 0.930 . S
C1595 C1591 1.400 . S
C1595 C1594 1.385 . S
C1596 C1594 1.478 . S
C1596 C1598 1.381 . S
C1596 C1602 1.383 . S
C1597 C1593 1.495 . S
C1597 H1603 0.959 . S
C1597 H1604 0.961 . S
C1597 H1605 0.960 . S
C1598 C1596 1.381 . S
C1598 C1599 1.394 . S
C1598 H1606 0.930 . S
C1599 C1598 1.394 . S
C1599 C1600 1.383 . S
C1599 H1607 0.929 . S
C1600 C1599 1.383 . S
C1600 C1601 1.377 . S
C1601 H1585 0.930 . S
C1601 C1600 1.377 . S
C1601 C1602 1.379 . S
C1602 H1586 0.931 . S
C1602 C1596 1.383 . S
C1602 C1601 1.379 . S
H1603 C1597 0.959 . S
H1604 C1597 0.961 . S
H1605 C1597 0.960 . S
H1606 C1598 0.930 . S
H1607 C1599 0.929 . S
H1608 C1616 0.929 . S
H1609 C1618 0.930 . S
H1610 C1620 0.930 . S
H1611 C1623 0.929 . S
H1612 C1626 0.930 . S
H1613 C1628 0.960 . S
H1614 C1628 0.960 . S
H1615 C1628 0.960 . S
C1616 H1608 0.929 . S
C1616 C1617 1.377 . S
C1616 C1618 1.384 . S
C1617 C1616 1.377 . S
C1617 C1623 1.390 . S
C1618 H1609 0.930 . S
C1618 C1616 1.384 . S
C1618 C1619 1.372 . S
C1619 C1618 1.372 . S
C1619 C1620 1.400 . S
C1619 C1624 1.490 . S
C1620 H1610 0.930 . S
C1620 C1619 1.400 . S
C1620 C1623 1.386 . S
H1621 C1637 0.930 . S
H1622 C1638 0.931 . S
C1623 H1611 0.929 . S
C1623 C1617 1.390 . S
C1623 C1620 1.386 . S
C1624 C1619 1.490 . S
C1624 C1626 1.395 . S
C1624 C1627 1.403 . S
H1625 C1631 0.930 . S
C1626 H1612 0.930 . S
C1626 C1624 1.395 . S
C1626 C1629 1.403 . S
C1627 C1624 1.403 . S
C1627 C1628 1.524 . S
C1627 C1631 1.400 . S
C1628 H1613 0.960 . S
C1628 H1614 0.960 . S
C1628 H1615 0.960 . S
C1628 C1627 1.524 . S
C1629 C1626 1.403 . S
C1629 C1630 1.392 . S
C1629 C1633 1.495 . S
C1630 C1629 1.392 . S
C1630 C1631 1.385 . S
C1630 C1632 1.478 . S
C1631 H1625 0.930 . S
C1631 C1627 1.400 . S
C1631 C1630 1.385 . S
C1632 C1630 1.478 . S
C1632 C1634 1.381 . S
C1632 C1638 1.383 . S
C1633 C1629 1.495 . S
C1633 H1639 0.959 . S
C1633 H1640 0.961 . S
C1633 H1641 0.960 . S
C1634 C1632 1.381 . S
C1634 C1635 1.394 . S
C1634 H1642 0.930 . S
C1635 C1634 1.394 . S
C1635 C1636 1.383 . S
C1635 H1643 0.929 . S
C1636 C1635 1.383 . S
C1636 C1637 1.377 . S
C1637 H1621 0.930 . S
C1637 C1636 1.377 . S
C1637 C1638 1.379 . S
C1638 H1622 0.931 . S
C1638 C1632 1.383 . S
C1638 C1637 1.379 . S
H1639 C1633 0.959 . S
H1640 C1633 0.961 . S
H1641 C1633 0.960 . S
H1642 C1634 0.930 . S
H1643 C1635 0.929 . S
H1644 C1652 0.929 . S
H1645 C1654 0.930 . S
H1646 C1656 0.930 . S
H1647 C1659 0.929 . S
H1648 C1662 0.930 . S
H1649 C1664 0.960 . S
H1650 C1664 0.960 . S
H1651 C1664 0.960 . S
C1652 H1644 0.929 . S
C1652 C1653 1.377 . S
C1652 C1654 1.384 . S
C1653 C1652 1.377 . S
C1653 C1659 1.390 . S
C1654 H1645 0.930 . S
C1654 C1652 1.384 . S
C1654 C1655 1.372 . S
C1655 C1654 1.372 . S
C1655 C1656 1.400 . S
C1655 C1660 1.490 . S
C1656 H1646 0.930 . S
C1656 C1655 1.400 . S
C1656 C1659 1.386 . S
H1657 C1673 0.930 . S
H1658 C1674 0.931 . S
C1659 H1647 0.929 . S
C1659 C1653 1.390 . S
C1659 C1656 1.386 . S
C1660 C1655 1.490 . S
C1660 C1662 1.395 . S
C1660 C1663 1.403 . S
H1661 C1667 0.930 . S
C1662 H1648 0.930 . S
C1662 C1660 1.395 . S
C1662 C1665 1.403 . S
C1663 C1660 1.403 . S
C1663 C1664 1.524 . S
C1663 C1667 1.400 . S
C1664 H1649 0.960 . S
C1664 H1650 0.960 . S
C1664 H1651 0.960 . S
C1664 C1663 1.524 . S
C1665 C1662 1.403 . S
C1665 C1666 1.392 . S
C1665 C1669 1.495 . S
C1666 C1665 1.392 . S
C1666 C1667 1.385 . S
C1666 C1668 1.478 . S
C1667 H1661 0.930 . S
C1667 C1663 1.400 . S
C1667 C1666 1.385 . S
C1668 C1666 1.478 . S
C1668 C1670 1.381 . S
C1668 C1674 1.383 . S
C1669 C1665 1.495 . S
C1669 H1675 0.959 . S
C1669 H1676 0.961 . S
C1669 H1677 0.960 . S
C1670 C1668 1.381 . S
C1670 C1671 1.394 . S
C1670 H1678 0.930 . S
C1671 C1670 1.394 . S
C1671 C1672 1.383 . S
C1671 H1679 0.929 . S
C1672 C1671 1.383 . S
C1672 C1673 1.377 . S
C1673 H1657 0.930 . S
C1673 C1672 1.377 . S
C1673 C1674 1.379 . S
C1674 H1658 0.931 . S
C1674 C1668 1.383 . S
C1674 C1673 1.379 . S
H1675 C1669 0.959 . S
H1676 C1669 0.961 . S
H1677 C1669 0.960 . S
H1678 C1670 0.930 . S
H1679 C1671 0.929 . S
H1680 C1688 0.929 . S
H1681 C1690 0.930 . S
H1682 C1692 0.930 . S
H1683 C1695 0.929 . S
H1684 C1698 0.930 . S
H1685 C1700 0.960 . S
H1686 C1700 0.960 . S
H1687 C1700 0.960 . S
C1688 H1680 0.929 . S
C1688 C1689 1.377 . S
C1688 C1690 1.384 . S
C1689 C1688 1.377 . S
C1689 C1695 1.390 . S
C1690 H1681 0.930 . S
C1690 C1688 1.384 . S
C1690 C1691 1.372 . S
C1691 C1690 1.372 . S
C1691 C1692 1.400 . S
C1691 C1696 1.490 . S
C1692 H1682 0.930 . S
C1692 C1691 1.400 . S
C1692 C1695 1.386 . S
H1693 C1709 0.930 . S
H1694 C1710 0.931 . S
C1695 H1683 0.929 . S
C1695 C1689 1.390 . S
C1695 C1692 1.386 . S
C1696 C1691 1.490 . S
C1696 C1698 1.395 . S
C1696 C1699 1.403 . S
H1697 C1703 0.930 . S
C1698 H1684 0.930 . S
C1698 C1696 1.395 . S
C1698 C1701 1.403 . S
C1699 C1696 1.403 . S
C1699 C1700 1.524 . S
C1699 C1703 1.400 . S
C1700 H1685 0.960 . S
C1700 H1686 0.960 . S
C1700 H1687 0.960 . S
C1700 C1699 1.524 . S
C1701 C1698 1.403 . S
C1701 C1702 1.392 . S
C1701 C1705 1.495 . S
C1702 C1701 1.392 . S
C1702 C1703 1.385 . S
C1702 C1704 1.478 . S
C1703 H1697 0.930 . S
C1703 C1699 1.400 . S
C1703 C1702 1.385 . S
C1704 C1702 1.478 . S
C1704 C1706 1.381 . S
C1704 C1710 1.383 . S
C1705 C1701 1.495 . S
C1705 H1711 0.959 . S
C1705 H1712 0.961 . S
C1705 H1713 0.960 . S
C1706 C1704 1.381 . S
C1706 C1707 1.394 . S
C1706 H1714 0.930 . S
C1707 C1706 1.394 . S
C1707 C1708 1.383 . S
C1707 H1715 0.929 . S
C1708 C1707 1.383 . S
C1708 C1709 1.377 . S
C1709 H1693 0.930 . S
C1709 C1708 1.377 . S
C1709 C1710 1.379 . S
C1710 H1694 0.931 . S
C1710 C1704 1.383 . S
C1710 C1709 1.379 . S
H1711 C1705 0.959 . S
H1712 C1705 0.961 . S
H1713 C1705 0.960 . S
H1714 C1706 0.930 . S
H1715 C1707 0.929 . S
H1716 C1724 0.929 . S
H1717 C1726 0.930 . S
H1718 C1728 0.930 . S
H1719 C1731 0.929 . S
H1720 C1734 0.930 . S
H1721 C1736 0.960 . S
H1722 C1736 0.960 . S
H1723 C1736 0.960 . S
C1724 H1716 0.929 . S
C1724 C1725 1.377 . S
C1724 C1726 1.384 . S
C1725 C1724 1.377 . S
C1725 C1731 1.390 . S
C1726 H1717 0.930 . S
C1726 C1724 1.384 . S
C1726 C1727 1.372 . S
C1727 C1726 1.372 . S
C1727 C1728 1.400 . S
C1727 C1732 1.490 . S
C1728 H1718 0.930 . S
C1728 C1727 1.400 . S
C1728 C1731 1.386 . S
H1729 C1745 0.930 . S
H1730 C1746 0.931 . S
C1731 H1719 0.929 . S
C1731 C1725 1.390 . S
C1731 C1728 1.386 . S
C1732 C1727 1.490 . S
C1732 C1734 1.395 . S
C1732 C1735 1.403 . S
H1733 C1739 0.930 . S
C1734 H1720 0.930 . S
C1734 C1732 1.395 . S
C1734 C1737 1.403 . S
C1735 C1732 1.403 . S
C1735 C1736 1.524 . S
C1735 C1739 1.400 . S
C1736 H1721 0.960 . S
C1736 H1722 0.960 . S
C1736 H1723 0.960 . S
C1736 C1735 1.524 . S
C1737 C1734 1.403 . S
C1737 C1738 1.392 . S
C1737 C1741 1.495 . S
C1738 C1737 1.392 . S
C1738 C1739 1.385 . S
C1738 C1740 1.478 . S
C1739 H1733 0.930 . S
C1739 C1735 1.400 . S
C1739 C1738 1.385 . S
C1740 C1738 1.478 . S
C1740 C1742 1.381 . S
C1740 C1746 1.383 . S
C1741 C1737 1.495 . S
C1741 H1747 0.959 . S
C1741 H1748 0.961 . S
C1741 H1749 0.960 . S
C1742 C1740 1.381 . S
C1742 C1743 1.394 . S
C1742 H1750 0.930 . S
C1743 C1742 1.394 . S
C1743 C1744 1.383 . S
C1743 H1751 0.929 . S
C1744 C1743 1.383 . S
C1744 C1745 1.377 . S
C1745 H1729 0.930 . S
C1745 C1744 1.377 . S
C1745 C1746 1.379 . S
C1746 H1730 0.931 . S
C1746 C1740 1.383 . S
C1746 C1745 1.379 . S
H1747 C1741 0.959 . S
H1748 C1741 0.961 . S
H1749 C1741 0.960 . S
H1750 C1742 0.930 . S
H1751 C1743 0.929 . S
H1752 C1760 0.929 . S
H1753 C1762 0.930 . S
H1754 C1764 0.930 . S
H1755 C1767 0.929 . S
H1756 C1770 0.930 . S
H1757 C1772 0.960 . S
H1758 C1772 0.960 . S
H1759 C1772 0.960 . S
C1760 H1752 0.929 . S
C1760 C1761 1.377 . S
C1760 C1762 1.384 . S
C1761 C1760 1.377 . S
C1761 C1767 1.390 . S
C1762 H1753 0.930 . S
C1762 C1760 1.384 . S
C1762 C1763 1.372 . S
C1763 C1762 1.372 . S
C1763 C1764 1.400 . S
C1763 C1768 1.490 . S
C1764 H1754 0.930 . S
C1764 C1763 1.400 . S
C1764 C1767 1.386 . S
H1765 C1781 0.930 . S
H1766 C1782 0.931 . S
C1767 H1755 0.929 . S
C1767 C1761 1.390 . S
C1767 C1764 1.386 . S
C1768 C1763 1.490 . S
C1768 C1770 1.395 . S
C1768 C1771 1.403 . S
H1769 C1775 0.930 . S
C1770 H1756 0.930 . S
C1770 C1768 1.395 . S
C1770 C1773 1.403 . S
C1771 C1768 1.403 . S
C1771 C1772 1.524 . S
C1771 C1775 1.400 . S
C1772 H1757 0.960 . S
C1772 H1758 0.960 . S
C1772 H1759 0.960 . S
C1772 C1771 1.524 . S
C1773 C1770 1.403 . S
C1773 C1774 1.392 . S
C1773 C1777 1.495 . S
C1774 C1773 1.392 . S
C1774 C1775 1.385 . S
C1774 C1776 1.478 . S
C1775 H1769 0.930 . S
C1775 C1771 1.400 . S
C1775 C1774 1.385 . S
C1776 C1774 1.478 . S
C1776 C1778 1.381 . S
C1776 C1782 1.383 . S
C1777 C1773 1.495 . S
C1777 H1783 0.959 . S
C1777 H1784 0.961 . S
C1777 H1785 0.960 . S
C1778 C1776 1.381 . S
C1778 C1779 1.394 . S
C1778 H1786 0.930 . S
C1779 C1778 1.394 . S
C1779 C1780 1.383 . S
C1779 H1787 0.929 . S
C1780 C1779 1.383 . S
C1780 C1781 1.377 . S
C1781 H1765 0.930 . S
C1781 C1780 1.377 . S
C1781 C1782 1.379 . S
C1782 H1766 0.931 . S
C1782 C1776 1.383 . S
C1782 C1781 1.379 . S
H1783 C1777 0.959 . S
H1784 C1777 0.961 . S
H1785 C1777 0.960 . S
H1786 C1778 0.930 . S
H1787 C1779 0.929 . S
H1788 C1796 0.929 . S
H1789 C1798 0.930 . S
H1790 C1800 0.930 . S
H1791 C1803 0.929 . S
H1792 C1806 0.930 . S
H1793 C1808 0.960 . S
H1794 C1808 0.960 . S
H1795 C1808 0.960 . S
C1796 H1788 0.929 . S
C1796 C1797 1.377 . S
C1796 C1798 1.384 . S
C1797 C1796 1.377 . S
C1797 C1803 1.390 . S
C1798 H1789 0.930 . S
C1798 C1796 1.384 . S
C1798 C1799 1.372 . S
C1799 C1798 1.372 . S
C1799 C1800 1.400 . S
C1799 C1804 1.490 . S
C1800 H1790 0.930 . S
C1800 C1799 1.400 . S
C1800 C1803 1.386 . S
H1801 C1817 0.930 . S
H1802 C1818 0.931 . S
C1803 H1791 0.929 . S
C1803 C1797 1.390 . S
C1803 C1800 1.386 . S
C1804 C1799 1.490 . S
C1804 C1806 1.395 . S
C1804 C1807 1.403 . S
H1805 C1811 0.930 . S
C1806 H1792 0.930 . S
C1806 C1804 1.395 . S
C1806 C1809 1.403 . S
C1807 C1804 1.403 . S
C1807 C1808 1.524 . S
C1807 C1811 1.400 . S
C1808 H1793 0.960 . S
C1808 H1794 0.960 . S
C1808 H1795 0.960 . S
C1808 C1807 1.524 . S
C1809 C1806 1.403 . S
C1809 C1810 1.392 . S
C1809 C1813 1.495 . S
C1810 C1809 1.392 . S
C1810 C1811 1.385 . S
C1810 C1812 1.478 . S
C1811 H1805 0.930 . S
C1811 C1807 1.400 . S
C1811 C1810 1.385 . S
C1812 C1810 1.478 . S
C1812 C1814 1.381 . S
C1812 C1818 1.383 . S
C1813 C1809 1.495 . S
C1813 H1819 0.959 . S
C1813 H1820 0.961 . S
C1813 H1821 0.960 . S
C1814 C1812 1.381 . S
C1814 C1815 1.394 . S
C1814 H1822 0.930 . S
C1815 C1814 1.394 . S
C1815 C1816 1.383 . S
C1815 H1823 0.929 . S
C1816 C1815 1.383 . S
C1816 C1817 1.377 . S
C1817 H1801 0.930 . S
C1817 C1816 1.377 . S
C1817 C1818 1.379 . S
C1818 H1802 0.931 . S
C1818 C1812 1.383 . S
C1818 C1817 1.379 . S
H1819 C1813 0.959 . S
H1820 C1813 0.961 . S
H1821 C1813 0.960 . S
H1822 C1814 0.930 . S
H1823 C1815 0.929 . S
H1824 C1832 0.929 . S
H1825 C1834 0.930 . S
H1826 C1836 0.930 . S
H1827 C1839 0.929 . S
H1828 C1842 0.930 . S
H1829 C1844 0.960 . S
H1830 C1844 0.960 . S
H1831 C1844 0.960 . S
C1832 H1824 0.929 . S
C1832 C1833 1.377 . S
C1832 C1834 1.384 . S
C1833 C1832 1.377 . S
C1833 C1839 1.390 . S
C1834 H1825 0.930 . S
C1834 C1832 1.384 . S
C1834 C1835 1.372 . S
C1835 C1834 1.372 . S
C1835 C1836 1.400 . S
C1835 C1840 1.490 . S
C1836 H1826 0.930 . S
C1836 C1835 1.400 . S
C1836 C1839 1.386 . S
H1837 C1853 0.930 . S
H1838 C1854 0.931 . S
C1839 H1827 0.929 . S
C1839 C1833 1.390 . S
C1839 C1836 1.386 . S
C1840 C1835 1.490 . S
C1840 C1842 1.395 . S
C1840 C1843 1.403 . S
H1841 C1847 0.930 . S
C1842 H1828 0.930 . S
C1842 C1840 1.395 . S
C1842 C1845 1.403 . S
C1843 C1840 1.403 . S
C1843 C1844 1.524 . S
C1843 C1847 1.400 . S
C1844 H1829 0.960 . S
C1844 H1830 0.960 . S
C1844 H1831 0.960 . S
C1844 C1843 1.524 . S
C1845 C1842 1.403 . S
C1845 C1846 1.392 . S
C1845 C1849 1.495 . S
C1846 C1845 1.392 . S
C1846 C1847 1.385 . S
C1846 C1848 1.478 . S
C1847 H1841 0.930 . S
C1847 C1843 1.400 . S
C1847 C1846 1.385 . S
C1848 C1846 1.478 . S
C1848 C1850 1.381 . S
C1848 C1854 1.383 . S
C1849 C1845 1.495 . S
C1849 H1855 0.959 . S
C1849 H1856 0.961 . S
C1849 H1857 0.960 . S
C1850 C1848 1.381 . S
C1850 C1851 1.394 . S
C1850 H1858 0.930 . S
C1851 C1850 1.394 . S
C1851 C1852 1.383 . S
C1851 H1859 0.929 . S
C1852 C1851 1.383 . S
C1852 C1853 1.377 . S
C1853 H1837 0.930 . S
C1853 C1852 1.377 . S
C1853 C1854 1.379 . S
C1854 H1838 0.931 . S
C1854 C1848 1.383 . S
C1854 C1853 1.379 . S
H1855 C1849 0.959 . S
H1856 C1849 0.961 . S
H1857 C1849 0.960 . S
H1858 C1850 0.930 . S
H1859 C1851 0.929 . S
H1860 C1868 0.929 . S
H1861 C1870 0.930 . S
H1862 C1872 0.930 . S
H1863 C1875 0.929 . S
H1864 C1878 0.930 . S
H1865 C1880 0.960 . S
H1866 C1880 0.960 . S
H1867 C1880 0.960 . S
C1868 H1860 0.929 . S
C1868 C1869 1.377 . S
C1868 C1870 1.384 . S
C1869 C1868 1.377 . S
C1869 C1875 1.390 . S
C1870 H1861 0.930 . S
C1870 C1868 1.384 . S
C1870 C1871 1.372 . S
C1871 C1870 1.372 . S
C1871 C1872 1.400 . S
C1871 C1876 1.490 . S
C1872 H1862 0.930 . S
C1872 C1871 1.400 . S
C1872 C1875 1.386 . S
H1873 C1889 0.930 . S
H1874 C1890 0.931 . S
C1875 H1863 0.929 . S
C1875 C1869 1.390 . S
C1875 C1872 1.386 . S
C1876 C1871 1.490 . S
C1876 C1878 1.395 . S
C1876 C1879 1.403 . S
H1877 C1883 0.930 . S
C1878 H1864 0.930 . S
C1878 C1876 1.395 . S
C1878 C1881 1.403 . S
C1879 C1876 1.403 . S
C1879 C1880 1.524 . S
C1879 C1883 1.400 . S
C1880 H1865 0.960 . S
C1880 H1866 0.960 . S
C1880 H1867 0.960 . S
C1880 C1879 1.524 . S
C1881 C1878 1.403 . S
C1881 C1882 1.392 . S
C1881 C1885 1.495 . S
C1882 C1881 1.392 . S
C1882 C1883 1.385 . S
C1882 C1884 1.478 . S
C1883 H1877 0.930 . S
C1883 C1879 1.400 . S
C1883 C1882 1.385 . S
C1884 C1882 1.478 . S
C1884 C1886 1.381 . S
C1884 C1890 1.383 . S
C1885 C1881 1.495 . S
C1885 H1891 0.959 . S
C1885 H1892 0.961 . S
C1885 H1893 0.960 . S
C1886 C1884 1.381 . S
C1886 C1887 1.394 . S
C1886 H1894 0.930 . S
C1887 C1886 1.394 . S
C1887 C1888 1.383 . S
C1887 H1895 0.929 . S
C1888 C1887 1.383 . S
C1888 C1889 1.377 . S
C1889 H1873 0.930 . S
C1889 C1888 1.377 . S
C1889 C1890 1.379 . S
C1890 H1874 0.931 . S
C1890 C1884 1.383 . S
C1890 C1889 1.379 . S
H1891 C1885 0.959 . S
H1892 C1885 0.961 . S
H1893 C1885 0.960 . S
H1894 C1886 0.930 . S
H1895 C1887 0.929 . S
H1896 C1904 0.929 . S
H1897 C1906 0.930 . S
H1898 C1908 0.930 . S
H1899 C1911 0.929 . S
H1900 C1914 0.930 . S
H1901 C1916 0.960 . S
H1902 C1916 0.960 . S
H1903 C1916 0.960 . S
C1904 H1896 0.929 . S
C1904 C1905 1.377 . S
C1904 C1906 1.384 . S
C1905 C1904 1.377 . S
C1905 C1911 1.390 . S
C1906 H1897 0.930 . S
C1906 C1904 1.384 . S
C1906 C1907 1.372 . S
C1907 C1906 1.372 . S
C1907 C1908 1.400 . S
C1907 C1912 1.490 . S
C1908 H1898 0.930 . S
C1908 C1907 1.400 . S
C1908 C1911 1.386 . S
H1909 C1925 0.930 . S
H1910 C1926 0.931 . S
C1911 H1899 0.929 . S
C1911 C1905 1.390 . S
C1911 C1908 1.386 . S
C1912 C1907 1.490 . S
C1912 C1914 1.395 . S
C1912 C1915 1.403 . S
H1913 C1919 0.930 . S
C1914 H1900 0.930 . S
C1914 C1912 1.395 . S
C1914 C1917 1.403 . S
C1915 C1912 1.403 . S
C1915 C1916 1.524 . S
C1915 C1919 1.400 . S
C1916 H1901 0.960 . S
C1916 H1902 0.960 . S
C1916 H1903 0.960 . S
C1916 C1915 1.524 . S
C1917 C1914 1.403 . S
C1917 C1918 1.392 . S
C1917 C1921 1.495 . S
C1918 C1917 1.392 . S
C1918 C1919 1.385 . S
C1918 C1920 1.478 . S
C1919 H1913 0.930 . S
C1919 C1915 1.400 . S
C1919 C1918 1.385 . S
C1920 C1918 1.478 . S
C1920 C1922 1.381 . S
C1920 C1926 1.383 . S
C1921 C1917 1.495 . S
C1921 H1927 0.959 . S
C1921 H1928 0.961 . S
C1921 H1929 0.960 . S
C1922 C1920 1.381 . S
C1922 C1923 1.394 . S
C1922 H1930 0.930 . S
C1923 C1922 1.394 . S
C1923 C1924 1.383 . S
C1923 H1931 0.929 . S
C1924 C1923 1.383 . S
C1924 C1925 1.377 . S
C1925 H1909 0.930 . S
C1925 C1924 1.377 . S
C1925 C1926 1.379 . S
C1926 H1910 0.931 . S
C1926 C1920 1.383 . S
C1926 C1925 1.379 . S
H1927 C1921 0.959 . S
H1928 C1921 0.961 . S
H1929 C1921 0.960 . S
H1930 C1922 0.930 . S
H1931 C1923 0.929 . S
H1932 C1940 0.929 . S
H1933 C1942 0.930 . S
H1934 C1944 0.930 . S
H1935 C1947 0.929 . S
H1936 C1950 0.930 . S
H1937 C1952 0.960 . S
H1938 C1952 0.960 . S
H1939 C1952 0.960 . S
C1940 H1932 0.929 . S
C1940 C1941 1.377 . S
C1940 C1942 1.384 . S
C1941 C1940 1.377 . S
C1941 C1947 1.390 . S
C1942 H1933 0.930 . S
C1942 C1940 1.384 . S
C1942 C1943 1.372 . S
C1943 C1942 1.372 . S
C1943 C1944 1.400 . S
C1943 C1948 1.490 . S
C1944 H1934 0.930 . S
C1944 C1943 1.400 . S
C1944 C1947 1.386 . S
H1945 C1961 0.930 . S
H1946 C1962 0.931 . S
C1947 H1935 0.929 . S
C1947 C1941 1.390 . S
C1947 C1944 1.386 . S
C1948 C1943 1.490 . S
C1948 C1950 1.395 . S
C1948 C1951 1.403 . S
H1949 C1955 0.930 . S
C1950 H1936 0.930 . S
C1950 C1948 1.395 . S
C1950 C1953 1.403 . S
C1951 C1948 1.403 . S
C1951 C1952 1.524 . S
C1951 C1955 1.400 . S
C1952 H1937 0.960 . S
C1952 H1938 0.960 . S
C1952 H1939 0.960 . S
C1952 C1951 1.524 . S
C1953 C1950 1.403 . S
C1953 C1954 1.392 . S
C1953 C1957 1.495 . S
C1954 C1953 1.392 . S
C1954 C1955 1.385 . S
C1954 C1956 1.478 . S
C1955 H1949 0.930 . S
C1955 C1951 1.400 . S
C1955 C1954 1.385 . S
C1956 C1954 1.478 . S
C1956 C1958 1.381 . S
C1956 C1962 1.383 . S
C1957 C1953 1.495 . S
C1957 H1963 0.959 . S
C1957 H1964 0.961 . S
C1957 H1965 0.960 . S
C1958 C1956 1.381 . S
C1958 C1959 1.394 . S
C1958 H1966 0.930 . S
C1959 C1958 1.394 . S
C1959 C1960 1.383 . S
C1959 H1967 0.929 . S
C1960 C1959 1.383 . S
C1960 C1961 1.377 . S
C1961 H1945 0.930 . S
C1961 C1960 1.377 . S
C1961 C1962 1.379 . S
C1962 H1946 0.931 . S
C1962 C1956 1.383 . S
C1962 C1961 1.379 . S
H1963 C1957 0.959 . S
H1964 C1957 0.961 . S
H1965 C1957 0.960 . S
H1966 C1958 0.930 . S
H1967 C1959 0.929 . S
H1968 C1976 0.929 . S
H1969 C1978 0.930 . S
H1970 C1980 0.930 . S
H1971 C1983 0.929 . S
H1972 C1986 0.930 . S
H1973 C1988 0.960 . S
H1974 C1988 0.960 . S
H1975 C1988 0.960 . S
C1976 H1968 0.929 . S
C1976 C1977 1.377 . S
C1976 C1978 1.384 . S
C1977 C1976 1.377 . S
C1977 C1983 1.390 . S
C1978 H1969 0.930 . S
C1978 C1976 1.384 . S
C1978 C1979 1.372 . S
C1979 C1978 1.372 . S
C1979 C1980 1.400 . S
C1979 C1984 1.490 . S
C1980 H1970 0.930 . S
C1980 C1979 1.400 . S
C1980 C1983 1.386 . S
H1981 C1997 0.930 . S
H1982 C1998 0.931 . S
C1983 H1971 0.929 . S
C1983 C1977 1.390 . S
C1983 C1980 1.386 . S
C1984 C1979 1.490 . S
C1984 C1986 1.395 . S
C1984 C1987 1.403 . S
H1985 C1991 0.930 . S
C1986 H1972 0.930 . S
C1986 C1984 1.395 . S
C1986 C1989 1.403 . S
C1987 C1984 1.403 . S
C1987 C1988 1.524 . S
C1987 C1991 1.400 . S
C1988 H1973 0.960 . S
C1988 H1974 0.960 . S
C1988 H1975 0.960 . S
C1988 C1987 1.524 . S
C1989 C1986 1.403 . S
C1989 C1990 1.392 . S
C1989 C1993 1.495 . S
C1990 C1989 1.392 . S
C1990 C1991 1.385 . S
C1990 C1992 1.478 . S
C1991 H1985 0.930 . S
C1991 C1987 1.400 . S
C1991 C1990 1.385 . S
C1992 C1990 1.478 . S
C1992 C1994 1.381 . S
C1992 C1998 1.383 . S
C1993 C1989 1.495 . S
C1993 H1999 0.959 . S
C1993 H2000 0.961 . S
C1993 H2001 0.960 . S
C1994 C1992 1.381 . S
C1994 C1995 1.394 . S
C1994 H2002 0.930 . S
C1995 C1994 1.394 . S
C1995 C1996 1.383 . S
C1995 H2003 0.929 . S
C1996 C1995 1.383 . S
C1996 C1997 1.377 . S
C1997 H1981 0.930 . S
C1997 C1996 1.377 . S
C1997 C1998 1.379 . S
C1998 H1982 0.931 . S
C1998 C1992 1.383 . S
C1998 C1997 1.379 . S
H1999 C1993 0.959 . S
H2000 C1993 0.961 . S
H2001 C1993 0.960 . S
H2002 C1994 0.930 . S
H2003 C1995 0.929 . S
H2004 C2012 0.929 . S
H2005 C2014 0.930 . S
H2006 C2016 0.930 . S
H2007 C2019 0.929 . S
H2008 C2022 0.930 . S
H2009 C2024 0.960 . S
H2010 C2024 0.960 . S
H2011 C2024 0.960 . S
C2012 H2004 0.929 . S
C2012 C2013 1.377 . S
C2012 C2014 1.384 . S
C2013 C2012 1.377 . S
C2013 C2019 1.390 . S
C2014 H2005 0.930 . S
C2014 C2012 1.384 . S
C2014 C2015 1.372 . S
C2015 C2014 1.372 . S
C2015 C2016 1.400 . S
C2015 C2020 1.490 . S
C2016 H2006 0.930 . S
C2016 C2015 1.400 . S
C2016 C2019 1.386 . S
H2017 C2033 0.930 . S
H2018 C2034 0.931 . S
C2019 H2007 0.929 . S
C2019 C2013 1.390 . S
C2019 C2016 1.386 . S
C2020 C2015 1.490 . S
C2020 C2022 1.395 . S
C2020 C2023 1.403 . S
H2021 C2027 0.930 . S
C2022 H2008 0.930 . S
C2022 C2020 1.395 . S
C2022 C2025 1.403 . S
C2023 C2020 1.403 . S
C2023 C2024 1.524 . S
C2023 C2027 1.400 . S
C2024 H2009 0.960 . S
C2024 H2010 0.960 . S
C2024 H2011 0.960 . S
C2024 C2023 1.524 . S
C2025 C2022 1.403 . S
C2025 C2026 1.392 . S
C2025 C2029 1.495 . S
C2026 C2025 1.392 . S
C2026 C2027 1.385 . S
C2026 C2028 1.478 . S
C2027 H2021 0.930 . S
C2027 C2023 1.400 . S
C2027 C2026 1.385 . S
C2028 C2026 1.478 . S
C2028 C2030 1.381 . S
C2028 C2034 1.383 . S
C2029 C2025 1.495 . S
C2029 H2035 0.959 . S
C2029 H2036 0.961 . S
C2029 H2037 0.960 . S
C2030 C2028 1.381 . S
C2030 C2031 1.394 . S
C2030 H2038 0.930 . S
C2031 C2030 1.394 . S
C2031 C2032 1.383 . S
C2031 H2039 0.929 . S
C2032 C2031 1.383 . S
C2032 C2033 1.377 . S
C2033 H2017 0.930 . S
C2033 C2032 1.377 . S
C2033 C2034 1.379 . S
C2034 H2018 0.931 . S
C2034 C2028 1.383 . S
C2034 C2033 1.379 . S
H2035 C2029 0.959 . S
H2036 C2029 0.961 . S
H2037 C2029 0.960 . S
H2038 C2030 0.930 . S
H2039 C2031 0.929 . S
H2040 C2048 0.929 . S
H2041 C2050 0.930 . S
H2042 C2052 0.930 . S
H2043 C2055 0.929 . S
H2044 C2058 0.930 . S
H2045 C2060 0.960 . S
H2046 C2060 0.960 . S
H2047 C2060 0.960 . S
C2048 H2040 0.929 . S
C2048 C2049 1.377 . S
C2048 C2050 1.384 . S
C2049 C2048 1.377 . S
C2049 C2055 1.390 . S
C2050 H2041 0.930 . S
C2050 C2048 1.384 . S
C2050 C2051 1.372 . S
C2051 C2050 1.372 . S
C2051 C2052 1.400 . S
C2051 C2056 1.490 . S
C2052 H2042 0.930 . S
C2052 C2051 1.400 . S
C2052 C2055 1.386 . S
H2053 C2069 0.930 . S
H2054 C2070 0.931 . S
C2055 H2043 0.929 . S
C2055 C2049 1.390 . S
C2055 C2052 1.386 . S
C2056 C2051 1.490 . S
C2056 C2058 1.395 . S
C2056 C2059 1.403 . S
H2057 C2063 0.930 . S
C2058 H2044 0.930 . S
C2058 C2056 1.395 . S
C2058 C2061 1.403 . S
C2059 C2056 1.403 . S
C2059 C2060 1.524 . S
C2059 C2063 1.400 . S
C2060 H2045 0.960 . S
C2060 H2046 0.960 . S
C2060 H2047 0.960 . S
C2060 C2059 1.524 . S
C2061 C2058 1.403 . S
C2061 C2062 1.392 . S
C2061 C2065 1.495 . S
C2062 C2061 1.392 . S
C2062 C2063 1.385 . S
C2062 C2064 1.478 . S
C2063 H2057 0.930 . S
C2063 C2059 1.400 . S
C2063 C2062 1.385 . S
C2064 C2062 1.478 . S
C2064 C2066 1.381 . S
C2064 C2070 1.383 . S
C2065 C2061 1.495 . S
C2065 H2071 0.959 . S
C2065 H2072 0.961 . S
C2065 H2073 0.960 . S
C2066 C2064 1.381 . S
C2066 C2067 1.394 . S
C2066 H2074 0.930 . S
C2067 C2066 1.394 . S
C2067 C2068 1.383 . S
C2067 H2075 0.929 . S
C2068 C2067 1.383 . S
C2068 C2069 1.377 . S
C2069 H2053 0.930 . S
C2069 C2068 1.377 . S
C2069 C2070 1.379 . S
C2070 H2054 0.931 . S
C2070 C2064 1.383 . S
C2070 C2069 1.379 . S
H2071 C2065 0.959 . S
H2072 C2065 0.961 . S
H2073 C2065 0.960 . S
H2074 C2066 0.930 . S
H2075 C2067 0.929 . S
H2076 C2084 0.929 . S
H2077 C2086 0.930 . S
H2078 C2088 0.930 . S
H2079 C2091 0.929 . S
H2080 C2094 0.930 . S
H2081 C2096 0.960 . S
H2082 C2096 0.960 . S
H2083 C2096 0.960 . S
C2084 H2076 0.929 . S
C2084 C2085 1.377 . S
C2084 C2086 1.384 . S
C2085 C2084 1.377 . S
C2085 C2091 1.390 . S
C2086 H2077 0.930 . S
C2086 C2084 1.384 . S
C2086 C2087 1.372 . S
C2087 C2086 1.372 . S
C2087 C2088 1.400 . S
C2087 C2092 1.490 . S
C2088 H2078 0.930 . S
C2088 C2087 1.400 . S
C2088 C2091 1.386 . S
H2089 C2105 0.930 . S
H2090 C2106 0.931 . S
C2091 H2079 0.929 . S
C2091 C2085 1.390 . S
C2091 C2088 1.386 . S
C2092 C2087 1.490 . S
C2092 C2094 1.395 . S
C2092 C2095 1.403 . S
H2093 C2099 0.930 . S
C2094 H2080 0.930 . S
C2094 C2092 1.395 . S
C2094 C2097 1.403 . S
C2095 C2092 1.403 . S
C2095 C2096 1.524 . S
C2095 C2099 1.400 . S
C2096 H2081 0.960 . S
C2096 H2082 0.960 . S
C2096 H2083 0.960 . S
C2096 C2095 1.524 . S
C2097 C2094 1.403 . S
C2097 C2098 1.392 . S
C2097 C2101 1.495 . S
C2098 C2097 1.392 . S
C2098 C2099 1.385 . S
C2098 C2100 1.478 . S
C2099 H2093 0.930 . S
C2099 C2095 1.400 . S
C2099 C2098 1.385 . S
C2100 C2098 1.478 . S
C2100 C2102 1.381 . S
C2100 C2106 1.383 . S
C2101 C2097 1.495 . S
C2101 H2107 0.959 . S
C2101 H2108 0.961 . S
C2101 H2109 0.960 . S
C2102 C2100 1.381 . S
C2102 C2103 1.394 . S
C2102 H2110 0.930 . S
C2103 C2102 1.394 . S
C2103 C2104 1.383 . S
C2103 H2111 0.929 . S
C2104 C2103 1.383 . S
C2104 C2105 1.377 . S
C2105 H2089 0.930 . S
C2105 C2104 1.377 . S
C2105 C2106 1.379 . S
C2106 H2090 0.931 . S
C2106 C2100 1.383 . S
C2106 C2105 1.379 . S
H2107 C2101 0.959 . S
H2108 C2101 0.961 . S
H2109 C2101 0.960 . S
H2110 C2102 0.930 . S
H2111 C2103 0.929 . S
H2112 C2120 0.929 . S
H2113 C2122 0.930 . S
H2114 C2124 0.930 . S
H2115 C2127 0.929 . S
H2116 C2130 0.930 . S
H2117 C2132 0.960 . S
H2118 C2132 0.960 . S
H2119 C2132 0.960 . S
C2120 H2112 0.929 . S
C2120 C2121 1.377 . S
C2120 C2122 1.384 . S
C2121 C2120 1.377 . S
C2121 C2127 1.390 . S
C2122 H2113 0.930 . S
C2122 C2120 1.384 . S
C2122 C2123 1.372 . S
C2123 C2122 1.372 . S
C2123 C2124 1.400 . S
C2123 C2128 1.490 . S
C2124 H2114 0.930 . S
C2124 C2123 1.400 . S
C2124 C2127 1.386 . S
H2125 C2141 0.930 . S
H2126 C2142 0.931 . S
C2127 H2115 0.929 . S
C2127 C2121 1.390 . S
C2127 C2124 1.386 . S
C2128 C2123 1.490 . S
C2128 C2130 1.395 . S
C2128 C2131 1.403 . S
H2129 C2135 0.930 . S
C2130 H2116 0.930 . S
C2130 C2128 1.395 . S
C2130 C2133 1.403 . S
C2131 C2128 1.403 . S
C2131 C2132 1.524 . S
C2131 C2135 1.400 . S
C2132 H2117 0.960 . S
C2132 H2118 0.960 . S
C2132 H2119 0.960 . S
C2132 C2131 1.524 . S
C2133 C2130 1.403 . S
C2133 C2134 1.392 . S
C2133 C2137 1.495 . S
C2134 C2133 1.392 . S
C2134 C2135 1.385 . S
C2134 C2136 1.478 . S
C2135 H2129 0.930 . S
C2135 C2131 1.400 . S
C2135 C2134 1.385 . S
C2136 C2134 1.478 . S
C2136 C2138 1.381 . S
C2136 C2142 1.383 . S
C2137 C2133 1.495 . S
C2137 H2143 0.959 . S
C2137 H2144 0.961 . S
C2137 H2145 0.960 . S
C2138 C2136 1.381 . S
C2138 C2139 1.394 . S
C2138 H2146 0.930 . S
C2139 C2138 1.394 . S
C2139 C2140 1.383 . S
C2139 H2147 0.929 . S
C2140 C2139 1.383 . S
C2140 C2141 1.377 . S
C2141 H2125 0.930 . S
C2141 C2140 1.377 . S
C2141 C2142 1.379 . S
C2142 H2126 0.931 . S
C2142 C2136 1.383 . S
C2142 C2141 1.379 . S
H2143 C2137 0.959 . S
H2144 C2137 0.961 . S
H2145 C2137 0.960 . S
H2146 C2138 0.930 . S
H2147 C2139 0.929 . S
H2148 C2156 0.929 . S
H2149 C2158 0.930 . S
H2150 C2160 0.930 . S
H2151 C2163 0.929 . S
H2152 C2166 0.930 . S
H2153 C2168 0.960 . S
H2154 C2168 0.960 . S
H2155 C2168 0.960 . S
C2156 H2148 0.929 . S
C2156 C2157 1.377 . S
C2156 C2158 1.384 . S
C2157 C2156 1.377 . S
C2157 C2163 1.390 . S
C2158 H2149 0.930 . S
C2158 C2156 1.384 . S
C2158 C2159 1.372 . S
C2159 C2158 1.372 . S
C2159 C2160 1.400 . S
C2159 C2164 1.490 . S
C2160 H2150 0.930 . S
C2160 C2159 1.400 . S
C2160 C2163 1.386 . S
H2161 C2177 0.930 . S
H2162 C2178 0.931 . S
C2163 H2151 0.929 . S
C2163 C2157 1.390 . S
C2163 C2160 1.386 . S
C2164 C2159 1.490 . S
C2164 C2166 1.395 . S
C2164 C2167 1.403 . S
H2165 C2171 0.930 . S
C2166 H2152 0.930 . S
C2166 C2164 1.395 . S
C2166 C2169 1.403 . S
C2167 C2164 1.403 . S
C2167 C2168 1.524 . S
C2167 C2171 1.400 . S
C2168 H2153 0.960 . S
C2168 H2154 0.960 . S
C2168 H2155 0.960 . S
C2168 C2167 1.524 . S
C2169 C2166 1.403 . S
C2169 C2170 1.392 . S
C2169 C2173 1.495 . S
C2170 C2169 1.392 . S
C2170 C2171 1.385 . S
C2170 C2172 1.478 . S
C2171 H2165 0.930 . S
C2171 C2167 1.400 . S
C2171 C2170 1.385 . S
C2172 C2170 1.478 . S
C2172 C2174 1.381 . S
C2172 C2178 1.383 . S
C2173 C2169 1.495 . S
C2173 H2179 0.959 . S
C2173 H2180 0.961 . S
C2173 H2181 0.960 . S
C2174 C2172 1.381 . S
C2174 C2175 1.394 . S
C2174 H2182 0.930 . S
C2175 C2174 1.394 . S
C2175 C2176 1.383 . S
C2175 H2183 0.929 . S
C2176 C2175 1.383 . S
C2176 C2177 1.377 . S
C2177 H2161 0.930 . S
C2177 C2176 1.377 . S
C2177 C2178 1.379 . S
C2178 H2162 0.931 . S
C2178 C2172 1.383 . S
C2178 C2177 1.379 . S
H2179 C2173 0.959 . S
H2180 C2173 0.961 . S
H2181 C2173 0.960 . S
H2182 C2174 0.930 . S
H2183 C2175 0.929 . S
H2184 C2192 0.929 . S
H2185 C2194 0.930 . S
H2186 C2196 0.930 . S
H2187 C2199 0.929 . S
H2188 C2202 0.930 . S
H2189 C2204 0.960 . S
H2190 C2204 0.960 . S
H2191 C2204 0.960 . S
C2192 H2184 0.929 . S
C2192 C2193 1.377 . S
C2192 C2194 1.384 . S
C2193 C2192 1.377 . S
C2193 C2199 1.390 . S
C2194 H2185 0.930 . S
C2194 C2192 1.384 . S
C2194 C2195 1.372 . S
C2195 C2194 1.372 . S
C2195 C2196 1.400 . S
C2195 C2200 1.490 . S
C2196 H2186 0.930 . S
C2196 C2195 1.400 . S
C2196 C2199 1.386 . S
H2197 C2213 0.930 . S
H2198 C2214 0.931 . S
C2199 H2187 0.929 . S
C2199 C2193 1.390 . S
C2199 C2196 1.386 . S
C2200 C2195 1.490 . S
C2200 C2202 1.395 . S
C2200 C2203 1.403 . S
H2201 C2207 0.930 . S
C2202 H2188 0.930 . S
C2202 C2200 1.395 . S
C2202 C2205 1.403 . S
C2203 C2200 1.403 . S
C2203 C2204 1.524 . S
C2203 C2207 1.400 . S
C2204 H2189 0.960 . S
C2204 H2190 0.960 . S
C2204 H2191 0.960 . S
C2204 C2203 1.524 . S
C2205 C2202 1.403 . S
C2205 C2206 1.392 . S
C2205 C2209 1.495 . S
C2206 C2205 1.392 . S
C2206 C2207 1.385 . S
C2206 C2208 1.478 . S
C2207 H2201 0.930 . S
C2207 C2203 1.400 . S
C2207 C2206 1.385 . S
C2208 C2206 1.478 . S
C2208 C2210 1.381 . S
C2208 C2214 1.383 . S
C2209 C2205 1.495 . S
C2209 H2215 0.959 . S
C2209 H2216 0.961 . S
C2209 H2217 0.960 . S
C2210 C2208 1.381 . S
C2210 C2211 1.394 . S
C2210 H2218 0.930 . S
C2211 C2210 1.394 . S
C2211 C2212 1.383 . S
C2211 H2219 0.929 . S
C2212 C2211 1.383 . S
C2212 C2213 1.377 . S
C2213 H2197 0.930 . S
C2213 C2212 1.377 . S
C2213 C2214 1.379 . S
C2214 H2198 0.931 . S
C2214 C2208 1.383 . S
C2214 C2213 1.379 . S
H2215 C2209 0.959 . S
H2216 C2209 0.961 . S
H2217 C2209 0.960 . S
H2218 C2210 0.930 . S
H2219 C2211 0.929 . S
H2220 C2228 0.929 . S
H2221 C2230 0.930 . S
H2222 C2232 0.930 . S
H2223 C2235 0.929 . S
H2224 C2238 0.930 . S
H2225 C2240 0.960 . S
H2226 C2240 0.960 . S
H2227 C2240 0.960 . S
C2228 H2220 0.929 . S
C2228 C2229 1.377 . S
C2228 C2230 1.384 . S
C2229 C2228 1.377 . S
C2229 C2235 1.390 . S
C2230 H2221 0.930 . S
C2230 C2228 1.384 . S
C2230 C2231 1.372 . S
C2231 C2230 1.372 . S
C2231 C2232 1.400 . S
C2231 C2236 1.490 . S
C2232 H2222 0.930 . S
C2232 C2231 1.400 . S
C2232 C2235 1.386 . S
H2233 C2249 0.930 . S
H2234 C2250 0.931 . S
C2235 H2223 0.929 . S
C2235 C2229 1.390 . S
C2235 C2232 1.386 . S
C2236 C2231 1.490 . S
C2236 C2238 1.395 . S
C2236 C2239 1.403 . S
H2237 C2243 0.930 . S
C2238 H2224 0.930 . S
C2238 C2236 1.395 . S
C2238 C2241 1.403 . S
C2239 C2236 1.403 . S
C2239 C2240 1.524 . S
C2239 C2243 1.400 . S
C2240 H2225 0.960 . S
C2240 H2226 0.960 . S
C2240 H2227 0.960 . S
C2240 C2239 1.524 . S
C2241 C2238 1.403 . S
C2241 C2242 1.392 . S
C2241 C2245 1.495 . S
C2242 C2241 1.392 . S
C2242 C2243 1.385 . S
C2242 C2244 1.478 . S
C2243 H2237 0.930 . S
C2243 C2239 1.400 . S
C2243 C2242 1.385 . S
C2244 C2242 1.478 . S
C2244 C2246 1.381 . S
C2244 C2250 1.383 . S
C2245 C2241 1.495 . S
C2245 H2251 0.959 . S
C2245 H2252 0.961 . S
C2245 H2253 0.960 . S
C2246 C2244 1.381 . S
C2246 C2247 1.394 . S
C2246 H2254 0.930 . S
C2247 C2246 1.394 . S
C2247 C2248 1.383 . S
C2247 H2255 0.929 . S
C2248 C2247 1.383 . S
C2248 C2249 1.377 . S
C2249 H2233 0.930 . S
C2249 C2248 1.377 . S
C2249 C2250 1.379 . S
C2250 H2234 0.931 . S
C2250 C2244 1.383 . S
C2250 C2249 1.379 . S
H2251 C2245 0.959 . S
H2252 C2245 0.961 . S
H2253 C2245 0.960 . S
H2254 C2246 0.930 . S
H2255 C2247 0.929 . S
H2256 C2264 0.929 . S
H2257 C2266 0.930 . S
H2258 C2268 0.930 . S
H2259 C2271 0.929 . S
H2260 C2274 0.930 . S
H2261 C2276 0.960 . S
H2262 C2276 0.960 . S
H2263 C2276 0.960 . S
C2264 H2256 0.929 . S
C2264 C2265 1.377 . S
C2264 C2266 1.384 . S
C2265 C2264 1.377 . S
C2265 C2271 1.390 . S
C2266 H2257 0.930 . S
C2266 C2264 1.384 . S
C2266 C2267 1.372 . S
C2267 C2266 1.372 . S
C2267 C2268 1.400 . S
C2267 C2272 1.490 . S
C2268 H2258 0.930 . S
C2268 C2267 1.400 . S
C2268 C2271 1.386 . S
H2269 C2285 0.930 . S
H2270 C2286 0.931 . S
C2271 H2259 0.929 . S
C2271 C2265 1.390 . S
C2271 C2268 1.386 . S
C2272 C2267 1.490 . S
C2272 C2274 1.395 . S
C2272 C2275 1.403 . S
H2273 C2279 0.930 . S
C2274 H2260 0.930 . S
C2274 C2272 1.395 . S
C2274 C2277 1.403 1_655 S
C2275 C2272 1.403 . S
C2275 C2276 1.524 . S
C2275 C2279 1.400 1_655 S
C2276 H2261 0.960 . S
C2276 H2262 0.960 . S
C2276 H2263 0.960 . S
C2276 C2275 1.524 . S
C2277 C2274 1.403 1_455 S
C2277 C2278 1.392 . S
C2277 C2281 1.495 . S
C2278 C2277 1.392 . S
C2278 C2279 1.385 . S
C2278 C2280 1.478 . S
C2279 H2273 0.930 . S
C2279 C2275 1.400 1_455 S
C2279 C2278 1.385 . S
C2280 C2278 1.478 . S
C2280 C2282 1.381 . S
C2280 C2286 1.383 . S
C2281 C2277 1.495 . S
C2281 H2287 0.959 . S
C2281 H2288 0.961 . S
C2281 H2289 0.960 . S
C2282 C2280 1.381 . S
C2282 C2283 1.394 . S
C2282 H2290 0.930 . S
C2283 C2282 1.394 . S
C2283 C2284 1.383 . S
C2283 H2291 0.929 . S
C2284 C2283 1.383 . S
C2284 C2285 1.377 . S
C2285 H2269 0.930 . S
C2285 C2284 1.377 . S
C2285 C2286 1.379 . S
C2286 H2270 0.931 . S
C2286 C2280 1.383 . S
C2286 C2285 1.379 . S
H2287 C2281 0.959 . S
H2288 C2281 0.961 . S
H2289 C2281 0.960 . S
H2290 C2282 0.930 . S
H2291 C2283 0.929 . S
H2292 C2300 0.929 . S
H2293 C2302 0.930 . S
H2294 C2304 0.930 . S
H2295 C2307 0.929 . S
H2296 C2310 0.930 . S
H2297 C2312 0.960 . S
H2298 C2312 0.960 . S
H2299 C2312 0.960 . S
C2300 H2292 0.929 . S
C2300 C2301 1.377 . S
C2300 C2302 1.384 . S
C2301 C2300 1.377 . S
C2301 C2307 1.390 . S
C2302 H2293 0.930 . S
C2302 C2300 1.384 . S
C2302 C2303 1.372 . S
C2303 C2302 1.372 . S
C2303 C2304 1.400 . S
C2303 C2308 1.490 . S
C2304 H2294 0.930 . S
C2304 C2303 1.400 . S
C2304 C2307 1.386 . S
H2305 C2321 0.930 . S
H2306 C2322 0.931 . S
C2307 H2295 0.929 . S
C2307 C2301 1.390 . S
C2307 C2304 1.386 . S
C2308 C2303 1.490 . S
C2308 C2310 1.395 . S
C2308 C2311 1.403 . S
H2309 C2315 0.930 . S
C2310 H2296 0.930 . S
C2310 C2308 1.395 . S
C2310 C2313 1.403 1_565 S
C2311 C2308 1.403 . S
C2311 C2312 1.524 . S
C2311 C2315 1.400 1_565 S
C2312 H2297 0.960 . S
C2312 H2298 0.960 . S
C2312 H2299 0.960 . S
C2312 C2311 1.524 . S
C2313 C2310 1.403 1_545 S
C2313 C2314 1.392 . S
C2313 C2317 1.495 . S
C2314 C2313 1.392 . S
C2314 C2315 1.385 . S
C2314 C2316 1.478 . S
C2315 H2309 0.930 . S
C2315 C2311 1.400 1_545 S
C2315 C2314 1.385 . S
C2316 C2314 1.478 . S
C2316 C2318 1.381 . S
C2316 C2322 1.383 . S
C2317 C2313 1.495 . S
C2317 H2323 0.959 . S
C2317 H2324 0.961 . S
C2317 H2325 0.960 . S
C2318 C2316 1.381 . S
C2318 C2319 1.394 . S
C2318 H2326 0.930 . S
C2319 C2318 1.394 . S
C2319 C2320 1.383 . S
C2319 H2327 0.929 . S
C2320 C2319 1.383 . S
C2320 C2321 1.377 . S
C2321 H2305 0.930 . S
C2321 C2320 1.377 . S
C2321 C2322 1.379 . S
C2322 H2306 0.931 . S
C2322 C2316 1.383 . S
C2322 C2321 1.379 . S
H2323 C2317 0.959 . S
H2324 C2317 0.961 . S
H2325 C2317 0.960 . S
H2326 C2318 0.930 . S
H2327 C2319 0.929 . S
H2328 C2336 0.929 . S
H2329 C2338 0.930 . S
H2330 C2340 0.930 . S
H2331 C2343 0.929 . S
H2332 C2346 0.930 . S
H2333 C2348 0.960 . S
H2334 C2348 0.960 . S
H2335 C2348 0.960 . S
C2336 H2328 0.929 . S
C2336 C2337 1.377 . S
C2336 C2338 1.384 . S
C2337 C2336 1.377 . S
C2337 C2343 1.390 . S
C2338 H2329 0.930 . S
C2338 C2336 1.384 . S
C2338 C2339 1.372 . S
C2339 C2338 1.372 . S
C2339 C2340 1.400 . S
C2339 C2344 1.490 . S
C2340 H2330 0.930 . S
C2340 C2339 1.400 . S
C2340 C2343 1.386 . S
H2341 C2357 0.930 . S
H2342 C2358 0.931 . S
C2343 H2331 0.929 . S
C2343 C2337 1.390 . S
C2343 C2340 1.386 . S
C2344 C2339 1.490 . S
C2344 C2346 1.395 . S
C2344 C2347 1.403 . S
H2345 C2351 0.930 . S
C2346 H2332 0.930 . S
C2346 C2344 1.395 . S
C2346 C2349 1.403 . S
C2347 C2344 1.403 . S
C2347 C2348 1.524 . S
C2347 C2351 1.400 . S
C2348 H2333 0.960 . S
C2348 H2334 0.960 . S
C2348 H2335 0.960 . S
C2348 C2347 1.524 . S
C2349 C2346 1.403 . S
C2349 C2350 1.392 . S
C2349 C2353 1.495 . S
C2350 C2349 1.392 . S
C2350 C2351 1.385 . S
C2350 C2352 1.478 . S
C2351 H2345 0.930 . S
C2351 C2347 1.400 . S
C2351 C2350 1.385 . S
C2352 C2350 1.478 . S
C2352 C2354 1.381 . S
C2352 C2358 1.383 . S
C2353 C2349 1.495 . S
C2353 H2359 0.959 . S
C2353 H2360 0.961 . S
C2353 H2361 0.960 . S
C2354 C2352 1.381 . S
C2354 C2355 1.394 . S
C2354 H2362 0.930 . S
C2355 C2354 1.394 . S
C2355 C2356 1.383 . S
C2355 H2363 0.929 . S
C2356 C2355 1.383 . S
C2356 C2357 1.377 . S
C2357 H2341 0.930 . S
C2357 C2356 1.377 . S
C2357 C2358 1.379 . S
C2358 H2342 0.931 . S
C2358 C2352 1.383 . S
C2358 C2357 1.379 . S
H2359 C2353 0.959 . S
H2360 C2353 0.961 . S
H2361 C2353 0.960 . S
H2362 C2354 0.930 . S
H2363 C2355 0.929 . S
H2364 C2372 0.929 . S
H2365 C2374 0.930 . S
H2366 C2376 0.930 . S
H2367 C2379 0.929 . S
H2368 C2382 0.930 . S
H2369 C2384 0.960 . S
H2370 C2384 0.960 . S
H2371 C2384 0.960 . S
C2372 H2364 0.929 . S
C2372 C2373 1.377 . S
C2372 C2374 1.384 . S
C2373 C2372 1.377 . S
C2373 C2379 1.390 . S
C2374 H2365 0.930 . S
C2374 C2372 1.384 . S
C2374 C2375 1.372 . S
C2375 C2374 1.372 . S
C2375 C2376 1.400 . S
C2375 C2380 1.490 . S
C2376 H2366 0.930 . S
C2376 C2375 1.400 . S
C2376 C2379 1.386 . S
H2377 C2393 0.930 . S
H2378 C2394 0.931 . S
C2379 H2367 0.929 . S
C2379 C2373 1.390 . S
C2379 C2376 1.386 . S
C2380 C2375 1.490 . S
C2380 C2382 1.395 . S
C2380 C2383 1.403 . S
H2381 C2387 0.930 . S
C2382 H2368 0.930 . S
C2382 C2380 1.395 . S
C2382 C2385 1.403 1_455 S
C2383 C2380 1.403 . S
C2383 C2384 1.524 . S
C2383 C2387 1.400 1_455 S
C2384 H2369 0.960 . S
C2384 H2370 0.960 . S
C2384 H2371 0.960 . S
C2384 C2383 1.524 . S
C2385 C2382 1.403 1_655 S
C2385 C2386 1.392 . S
C2385 C2389 1.495 . S
C2386 C2385 1.392 . S
C2386 C2387 1.385 . S
C2386 C2388 1.478 . S
C2387 H2381 0.930 . S
C2387 C2383 1.400 1_655 S
C2387 C2386 1.385 . S
C2388 C2386 1.478 . S
C2388 C2390 1.381 . S
C2388 C2394 1.383 . S
C2389 C2385 1.495 . S
C2389 H2395 0.959 . S
C2389 H2396 0.961 . S
C2389 H2397 0.960 . S
C2390 C2388 1.381 . S
C2390 C2391 1.394 . S
C2390 H2398 0.930 . S
C2391 C2390 1.394 . S
C2391 C2392 1.383 . S
C2391 H2399 0.929 . S
C2392 C2391 1.383 . S
C2392 C2393 1.377 . S
C2393 H2377 0.930 . S
C2393 C2392 1.377 . S
C2393 C2394 1.379 . S
C2394 H2378 0.931 . S
C2394 C2388 1.383 . S
C2394 C2393 1.379 . S
H2395 C2389 0.959 . S
H2396 C2389 0.961 . S
H2397 C2389 0.960 . S
H2398 C2390 0.930 . S
H2399 C2391 0.929 . S
H2400 C2408 0.929 . S
H2401 C2410 0.930 . S
H2402 C2412 0.930 . S
H2403 C2415 0.929 . S
H2404 C2418 0.930 . S
H2405 C2420 0.960 . S
H2406 C2420 0.960 . S
H2407 C2420 0.960 . S
C2408 H2400 0.929 . S
C2408 C2409 1.377 . S
C2408 C2410 1.384 . S
C2409 C2408 1.377 . S
C2409 C2415 1.390 . S
C2410 H2401 0.930 . S
C2410 C2408 1.384 . S
C2410 C2411 1.372 . S
C2411 C2410 1.372 . S
C2411 C2412 1.400 . S
C2411 C2416 1.490 . S
C2412 H2402 0.930 . S
C2412 C2411 1.400 . S
C2412 C2415 1.386 . S
H2413 C2429 0.930 . S
H2414 C2430 0.931 . S
C2415 H2403 0.929 . S
C2415 C2409 1.390 . S
C2415 C2412 1.386 . S
C2416 C2411 1.490 . S
C2416 C2418 1.395 . S
C2416 C2419 1.403 . S
H2417 C2423 0.930 . S
C2418 H2404 0.930 . S
C2418 C2416 1.395 . S
C2418 C2421 1.403 1_545 S
C2419 C2416 1.403 . S
C2419 C2420 1.524 . S
C2419 C2423 1.400 1_545 S
C2420 H2405 0.960 . S
C2420 H2406 0.960 . S
C2420 H2407 0.960 . S
C2420 C2419 1.524 . S
C2421 C2418 1.403 1_565 S
C2421 C2422 1.392 . S
C2421 C2425 1.495 . S
C2422 C2421 1.392 . S
C2422 C2423 1.385 . S
C2422 C2424 1.478 . S
C2423 H2417 0.930 . S
C2423 C2419 1.400 1_565 S
C2423 C2422 1.385 . S
C2424 C2422 1.478 . S
C2424 C2426 1.381 . S
C2424 C2430 1.383 . S
C2425 C2421 1.495 . S
C2425 H2431 0.959 . S
C2425 H2432 0.961 . S
C2425 H2433 0.960 . S
C2426 C2424 1.381 . S
C2426 C2427 1.394 . S
C2426 H2434 0.930 . S
C2427 C2426 1.394 . S
C2427 C2428 1.383 . S
C2427 H2435 0.929 . S
C2428 C2427 1.383 . S
C2428 C2429 1.377 . S
C2429 H2413 0.930 . S
C2429 C2428 1.377 . S
C2429 C2430 1.379 . S
C2430 H2414 0.931 . S
C2430 C2424 1.383 . S
C2430 C2429 1.379 . S
H2431 C2425 0.959 . S
H2432 C2425 0.961 . S
H2433 C2425 0.960 . S
H2434 C2426 0.930 . S
H2435 C2427 0.929 . S
H2436 C2444 0.929 . S
H2437 C2446 0.930 . S
H2438 C2448 0.930 . S
H2439 C2451 0.929 . S
H2440 C2454 0.930 . S
H2441 C2456 0.960 . S
H2442 C2456 0.960 . S
H2443 C2456 0.960 . S
C2444 H2436 0.929 . S
C2444 C2445 1.377 . S
C2444 C2446 1.384 . S
C2445 C2444 1.377 . S
C2445 C2451 1.390 . S
C2446 H2437 0.930 . S
C2446 C2444 1.384 . S
C2446 C2447 1.372 . S
C2447 C2446 1.372 . S
C2447 C2448 1.400 . S
C2447 C2452 1.490 . S
C2448 H2438 0.930 . S
C2448 C2447 1.400 . S
C2448 C2451 1.386 . S
H2449 C2465 0.930 . S
H2450 C2466 0.931 . S
C2451 H2439 0.929 . S
C2451 C2445 1.390 . S
C2451 C2448 1.386 . S
C2452 C2447 1.490 . S
C2452 C2454 1.395 . S
C2452 C2455 1.403 . S
H2453 C2459 0.930 . S
C2454 H2440 0.930 . S
C2454 C2452 1.395 . S
C2454 C2457 1.403 . S
C2455 C2452 1.403 . S
C2455 C2456 1.524 . S
C2455 C2459 1.400 . S
C2456 H2441 0.960 . S
C2456 H2442 0.960 . S
C2456 H2443 0.960 . S
C2456 C2455 1.524 . S
C2457 C2454 1.403 . S
C2457 C2458 1.392 . S
C2457 C2461 1.495 . S
C2458 C2457 1.392 . S
C2458 C2459 1.385 . S
C2458 C2460 1.478 . S
C2459 H2453 0.930 . S
C2459 C2455 1.400 . S
C2459 C2458 1.385 . S
C2460 C2458 1.478 . S
C2460 C2462 1.381 . S
C2460 C2466 1.383 . S
C2461 C2457 1.495 . S
C2461 H2467 0.959 . S
C2461 H2468 0.961 . S
C2461 H2469 0.960 . S
C2462 C2460 1.381 . S
C2462 C2463 1.394 . S
C2462 H2470 0.930 . S
C2463 C2462 1.394 . S
C2463 C2464 1.383 . S
C2463 H2471 0.929 . S
C2464 C2463 1.383 . S
C2464 C2465 1.377 . S
C2465 H2449 0.930 . S
C2465 C2464 1.377 . S
C2465 C2466 1.379 . S
C2466 H2450 0.931 . S
C2466 C2460 1.383 . S
C2466 C2465 1.379 . S
H2467 C2461 0.959 . S
H2468 C2461 0.961 . S
H2469 C2461 0.960 . S
H2470 C2462 0.930 . S
H2471 C2463 0.929 . S
H2472 C2480 0.929 . S
H2473 C2482 0.930 . S
H2474 C2484 0.930 . S
H2475 C2487 0.929 . S
H2476 C2490 0.930 . S
H2477 C2492 0.960 . S
H2478 C2492 0.960 . S
H2479 C2492 0.960 . S
C2480 H2472 0.929 . S
C2480 C2481 1.377 . S
C2480 C2482 1.384 . S
C2481 C2480 1.377 . S
C2481 C2487 1.390 . S
C2482 H2473 0.930 . S
C2482 C2480 1.384 . S
C2482 C2483 1.372 . S
C2483 C2482 1.372 . S
C2483 C2484 1.400 . S
C2483 C2488 1.490 . S
C2484 H2474 0.930 . S
C2484 C2483 1.400 . S
C2484 C2487 1.386 . S
H2485 C2501 0.930 . S
H2486 C2502 0.931 . S
C2487 H2475 0.929 . S
C2487 C2481 1.390 . S
C2487 C2484 1.386 . S
C2488 C2483 1.490 . S
C2488 C2490 1.395 . S
C2488 C2491 1.403 . S
H2489 C2495 0.930 . S
C2490 H2476 0.930 . S
C2490 C2488 1.395 . S
C2490 C2493 1.403 1_565 S
C2491 C2488 1.403 . S
C2491 C2492 1.524 . S
C2491 C2495 1.400 1_565 S
C2492 H2477 0.960 . S
C2492 H2478 0.960 . S
C2492 H2479 0.960 . S
C2492 C2491 1.524 . S
C2493 C2490 1.403 1_545 S
C2493 C2494 1.392 . S
C2493 C2497 1.495 . S
C2494 C2493 1.392 . S
C2494 C2495 1.385 . S
C2494 C2496 1.478 . S
C2495 H2489 0.930 . S
C2495 C2491 1.400 1_545 S
C2495 C2494 1.385 . S
C2496 C2494 1.478 . S
C2496 C2498 1.381 . S
C2496 C2502 1.383 . S
C2497 C2493 1.495 . S
C2497 H2503 0.959 . S
C2497 H2504 0.961 . S
C2497 H2505 0.960 . S
C2498 C2496 1.381 . S
C2498 C2499 1.394 . S
C2498 H2506 0.930 . S
C2499 C2498 1.394 . S
C2499 C2500 1.383 . S
C2499 H2507 0.929 . S
C2500 C2499 1.383 . S
C2500 C2501 1.377 . S
C2501 H2485 0.930 . S
C2501 C2500 1.377 . S
C2501 C2502 1.379 . S
C2502 H2486 0.931 . S
C2502 C2496 1.383 . S
C2502 C2501 1.379 . S
H2503 C2497 0.959 . S
H2504 C2497 0.961 . S
H2505 C2497 0.960 . S
H2506 C2498 0.930 . S
H2507 C2499 0.929 . S
H2508 C2516 0.929 . S
H2509 C2518 0.930 . S
H2510 C2520 0.930 . S
H2511 C2523 0.929 . S
H2512 C2526 0.930 . S
H2513 C2528 0.960 . S
H2514 C2528 0.960 . S
H2515 C2528 0.960 . S
C2516 H2508 0.929 . S
C2516 C2517 1.377 . S
C2516 C2518 1.384 . S
C2517 C2516 1.377 . S
C2517 C2523 1.390 . S
C2518 H2509 0.930 . S
C2518 C2516 1.384 . S
C2518 C2519 1.372 . S
C2519 C2518 1.372 . S
C2519 C2520 1.400 . S
C2519 C2524 1.490 . S
C2520 H2510 0.930 . S
C2520 C2519 1.400 . S
C2520 C2523 1.386 . S
H2521 C2537 0.930 . S
H2522 C2538 0.931 . S
C2523 H2511 0.929 . S
C2523 C2517 1.390 . S
C2523 C2520 1.386 . S
C2524 C2519 1.490 . S
C2524 C2526 1.395 . S
C2524 C2527 1.403 . S
H2525 C2531 0.930 . S
C2526 H2512 0.930 . S
C2526 C2524 1.395 . S
C2526 C2529 1.403 . S
C2527 C2524 1.403 . S
C2527 C2528 1.524 . S
C2527 C2531 1.400 . S
C2528 H2513 0.960 . S
C2528 H2514 0.960 . S
C2528 H2515 0.960 . S
C2528 C2527 1.524 . S
C2529 C2526 1.403 . S
C2529 C2530 1.392 . S
C2529 C2533 1.495 . S
C2530 C2529 1.392 . S
C2530 C2531 1.385 . S
C2530 C2532 1.478 . S
C2531 H2525 0.930 . S
C2531 C2527 1.400 . S
C2531 C2530 1.385 . S
C2532 C2530 1.478 . S
C2532 C2534 1.381 . S
C2532 C2538 1.383 . S
C2533 C2529 1.495 . S
C2533 H2539 0.959 . S
C2533 H2540 0.961 . S
C2533 H2541 0.960 . S
C2534 C2532 1.381 . S
C2534 C2535 1.394 . S
C2534 H2542 0.930 . S
C2535 C2534 1.394 . S
C2535 C2536 1.383 . S
C2535 H2543 0.929 . S
C2536 C2535 1.383 . S
C2536 C2537 1.377 . S
C2537 H2521 0.930 . S
C2537 C2536 1.377 . S
C2537 C2538 1.379 . S
C2538 H2522 0.931 . S
C2538 C2532 1.383 . S
C2538 C2537 1.379 . S
H2539 C2533 0.959 . S
H2540 C2533 0.961 . S
H2541 C2533 0.960 . S
H2542 C2534 0.930 . S
H2543 C2535 0.929 . S
H2544 C2552 0.929 . S
H2545 C2554 0.930 . S
H2546 C2556 0.930 . S
H2547 C2559 0.929 . S
H2548 C2562 0.930 . S
H2549 C2564 0.960 . S
H2550 C2564 0.960 . S
H2551 C2564 0.960 . S
C2552 H2544 0.929 . S
C2552 C2553 1.377 . S
C2552 C2554 1.384 . S
C2553 C2552 1.377 . S
C2553 C2559 1.390 . S
C2554 H2545 0.930 . S
C2554 C2552 1.384 . S
C2554 C2555 1.372 . S
C2555 C2554 1.372 . S
C2555 C2556 1.400 . S
C2555 C2560 1.490 . S
C2556 H2546 0.930 . S
C2556 C2555 1.400 . S
C2556 C2559 1.386 . S
H2557 C2573 0.930 . S
H2558 C2574 0.931 . S
C2559 H2547 0.929 . S
C2559 C2553 1.390 . S
C2559 C2556 1.386 . S
C2560 C2555 1.490 . S
C2560 C2562 1.395 . S
C2560 C2563 1.403 . S
H2561 C2567 0.930 . S
C2562 H2548 0.930 . S
C2562 C2560 1.395 . S
C2562 C2565 1.403 1_655 S
C2563 C2560 1.403 . S
C2563 C2564 1.524 . S
C2563 C2567 1.400 1_655 S
C2564 H2549 0.960 . S
C2564 H2550 0.960 . S
C2564 H2551 0.960 . S
C2564 C2563 1.524 . S
C2565 C2562 1.403 1_455 S
C2565 C2566 1.392 . S
C2565 C2569 1.495 . S
C2566 C2565 1.392 . S
C2566 C2567 1.385 . S
C2566 C2568 1.478 . S
C2567 H2561 0.930 . S
C2567 C2563 1.400 1_455 S
C2567 C2566 1.385 . S
C2568 C2566 1.478 . S
C2568 C2570 1.381 . S
C2568 C2574 1.383 . S
C2569 C2565 1.495 . S
C2569 H2575 0.959 . S
C2569 H2576 0.961 . S
C2569 H2577 0.960 . S
C2570 C2568 1.381 . S
C2570 C2571 1.394 . S
C2570 H2578 0.930 . S
C2571 C2570 1.394 . S
C2571 C2572 1.383 . S
C2571 H2579 0.929 . S
C2572 C2571 1.383 . S
C2572 C2573 1.377 . S
C2573 H2557 0.930 . S
C2573 C2572 1.377 . S
C2573 C2574 1.379 . S
C2574 H2558 0.931 . S
C2574 C2568 1.383 . S
C2574 C2573 1.379 . S
H2575 C2569 0.959 . S
H2576 C2569 0.961 . S
H2577 C2569 0.960 . S
H2578 C2570 0.930 . S
H2579 C2571 0.929 . S
H2580 C2588 0.929 . S
H2581 C2590 0.930 . S
H2582 C2592 0.930 . S
H2583 C2595 0.929 . S
H2584 C2598 0.930 . S
H2585 C2600 0.960 . S
H2586 C2600 0.960 . S
H2587 C2600 0.960 . S
C2588 H2580 0.929 . S
C2588 C2589 1.377 . S
C2588 C2590 1.384 . S
C2589 C2588 1.377 . S
C2589 C2595 1.390 . S
C2590 H2581 0.930 . S
C2590 C2588 1.384 . S
C2590 C2591 1.372 . S
C2591 C2590 1.372 . S
C2591 C2592 1.400 . S
C2591 C2596 1.490 . S
C2592 H2582 0.930 . S
C2592 C2591 1.400 . S
C2592 C2595 1.386 . S
H2593 C2609 0.930 . S
H2594 C2610 0.931 . S
C2595 H2583 0.929 . S
C2595 C2589 1.390 . S
C2595 C2592 1.386 . S
C2596 C2591 1.490 . S
C2596 C2598 1.395 . S
C2596 C2599 1.403 . S
H2597 C2603 0.930 . S
C2598 H2584 0.930 . S
C2598 C2596 1.395 . S
C2598 C2601 1.403 1_565 S
C2599 C2596 1.403 . S
C2599 C2600 1.524 . S
C2599 C2603 1.400 1_565 S
C2600 H2585 0.960 . S
C2600 H2586 0.960 . S
C2600 H2587 0.960 . S
C2600 C2599 1.524 . S
C2601 C2598 1.403 1_545 S
C2601 C2602 1.392 . S
C2601 C2605 1.495 . S
C2602 C2601 1.392 . S
C2602 C2603 1.385 . S
C2602 C2604 1.478 . S
C2603 H2597 0.930 . S
C2603 C2599 1.400 1_545 S
C2603 C2602 1.385 . S
C2604 C2602 1.478 . S
C2604 C2606 1.381 . S
C2604 C2610 1.383 . S
C2605 C2601 1.495 . S
C2605 H2611 0.959 . S
C2605 H2612 0.961 . S
C2605 H2613 0.960 . S
C2606 C2604 1.381 . S
C2606 C2607 1.394 . S
C2606 H2614 0.930 . S
C2607 C2606 1.394 . S
C2607 C2608 1.383 . S
C2607 H2615 0.929 . S
C2608 C2607 1.383 . S
C2608 C2609 1.377 . S
C2609 H2593 0.930 . S
C2609 C2608 1.377 . S
C2609 C2610 1.379 . S
C2610 H2594 0.931 . S
C2610 C2604 1.383 . S
C2610 C2609 1.379 . S
H2611 C2605 0.959 . S
H2612 C2605 0.961 . S
H2613 C2605 0.960 . S
H2614 C2606 0.930 . S
H2615 C2607 0.929 . S
H2616 C2624 0.929 . S
H2617 C2626 0.930 . S
H2618 C2628 0.930 . S
H2619 C2631 0.929 . S
H2620 C2634 0.930 . S
H2621 C2636 0.960 . S
H2622 C2636 0.960 . S
H2623 C2636 0.960 . S
C2624 H2616 0.929 . S
C2624 C2625 1.377 . S
C2624 C2626 1.384 . S
C2625 C2624 1.377 . S
C2625 C2631 1.390 . S
C2626 H2617 0.930 . S
C2626 C2624 1.384 . S
C2626 C2627 1.372 . S
C2627 C2626 1.372 . S
C2627 C2628 1.400 . S
C2627 C2632 1.490 . S
C2628 H2618 0.930 . S
C2628 C2627 1.400 . S
C2628 C2631 1.386 . S
H2629 C2645 0.930 . S
H2630 C2646 0.931 . S
C2631 H2619 0.929 . S
C2631 C2625 1.390 . S
C2631 C2628 1.386 . S
C2632 C2627 1.490 . S
C2632 C2634 1.395 . S
C2632 C2635 1.403 . S
H2633 C2639 0.930 . S
C2634 H2620 0.930 . S
C2634 C2632 1.395 . S
C2634 C2637 1.403 . S
C2635 C2632 1.403 . S
C2635 C2636 1.524 . S
C2635 C2639 1.400 . S
C2636 H2621 0.960 . S
C2636 H2622 0.960 . S
C2636 H2623 0.960 . S
C2636 C2635 1.524 . S
C2637 C2634 1.403 . S
C2637 C2638 1.392 . S
C2637 C2641 1.495 . S
C2638 C2637 1.392 . S
C2638 C2639 1.385 . S
C2638 C2640 1.478 . S
C2639 H2633 0.930 . S
C2639 C2635 1.400 . S
C2639 C2638 1.385 . S
C2640 C2638 1.478 . S
C2640 C2642 1.381 . S
C2640 C2646 1.383 . S
C2641 C2637 1.495 . S
C2641 H2647 0.959 . S
C2641 H2648 0.961 . S
C2641 H2649 0.960 . S
C2642 C2640 1.381 . S
C2642 C2643 1.394 . S
C2642 H2650 0.930 . S
C2643 C2642 1.394 . S
C2643 C2644 1.383 . S
C2643 H2651 0.929 . S
C2644 C2643 1.383 . S
C2644 C2645 1.377 . S
C2645 H2629 0.930 . S
C2645 C2644 1.377 . S
C2645 C2646 1.379 . S
C2646 H2630 0.931 . S
C2646 C2640 1.383 . S
C2646 C2645 1.379 . S
H2647 C2641 0.959 . S
H2648 C2641 0.961 . S
H2649 C2641 0.960 . S
H2650 C2642 0.930 . S
H2651 C2643 0.929 . S
H2652 C2660 0.929 . S
H2653 C2662 0.930 . S
H2654 C2664 0.930 . S
H2655 C2667 0.929 . S
H2656 C2670 0.930 . S
H2657 C2672 0.960 . S
H2658 C2672 0.960 . S
H2659 C2672 0.960 . S
C2660 H2652 0.929 . S
C2660 C2661 1.377 . S
C2660 C2662 1.384 . S
C2661 C2660 1.377 . S
C2661 C2667 1.390 . S
C2662 H2653 0.930 . S
C2662 C2660 1.384 . S
C2662 C2663 1.372 . S
C2663 C2662 1.372 . S
C2663 C2664 1.400 . S
C2663 C2668 1.490 . S
C2664 H2654 0.930 . S
C2664 C2663 1.400 . S
C2664 C2667 1.386 . S
H2665 C2681 0.930 . S
H2666 C2682 0.931 . S
C2667 H2655 0.929 . S
C2667 C2661 1.390 . S
C2667 C2664 1.386 . S
C2668 C2663 1.490 . S
C2668 C2670 1.395 . S
C2668 C2671 1.403 . S
H2669 C2675 0.930 . S
C2670 H2656 0.930 . S
C2670 C2668 1.395 . S
C2670 C2673 1.403 1_655 S
C2671 C2668 1.403 . S
C2671 C2672 1.524 . S
C2671 C2675 1.400 1_655 S
C2672 H2657 0.960 . S
C2672 H2658 0.960 . S
C2672 H2659 0.960 . S
C2672 C2671 1.524 . S
C2673 C2670 1.403 1_455 S
C2673 C2674 1.392 . S
C2673 C2677 1.495 . S
C2674 C2673 1.392 . S
C2674 C2675 1.385 . S
C2674 C2676 1.478 . S
C2675 H2669 0.930 . S
C2675 C2671 1.400 1_455 S
C2675 C2674 1.385 . S
C2676 C2674 1.478 . S
C2676 C2678 1.381 . S
C2676 C2682 1.383 . S
C2677 C2673 1.495 . S
C2677 H2683 0.959 . S
C2677 H2684 0.961 . S
C2677 H2685 0.960 . S
C2678 C2676 1.381 . S
C2678 C2679 1.394 . S
C2678 H2686 0.930 . S
C2679 C2678 1.394 . S
C2679 C2680 1.383 . S
C2679 H2687 0.929 . S
C2680 C2679 1.383 . S
C2680 C2681 1.377 . S
C2681 H2665 0.930 . S
C2681 C2680 1.377 . S
C2681 C2682 1.379 . S
C2682 H2666 0.931 . S
C2682 C2676 1.383 . S
C2682 C2681 1.379 . S
H2683 C2677 0.959 . S
H2684 C2677 0.961 . S
H2685 C2677 0.960 . S
H2686 C2678 0.930 . S
H2687 C2679 0.929 . S
H2688 C2696 0.929 . S
H2689 C2698 0.930 . S
H2690 C2700 0.930 . S
H2691 C2703 0.929 . S
H2692 C2706 0.930 . S
H2693 C2708 0.960 . S
H2694 C2708 0.960 . S
H2695 C2708 0.960 1_556 S
C2696 H2688 0.929 . S
C2696 C2697 1.377 . S
C2696 C2698 1.384 . S
C2697 C2696 1.377 . S
C2697 C2703 1.390 . S
C2698 H2689 0.930 . S
C2698 C2696 1.384 . S
C2698 C2699 1.372 . S
C2699 C2698 1.372 . S
C2699 C2700 1.400 . S
C2699 C2704 1.490 . S
C2700 H2690 0.930 . S
C2700 C2699 1.400 . S
C2700 C2703 1.386 . S
H2701 C2717 0.930 . S
H2702 C2718 0.931 . S
C2703 H2691 0.929 . S
C2703 C2697 1.390 . S
C2703 C2700 1.386 . S
C2704 C2699 1.490 . S
C2704 C2706 1.395 . S
C2704 C2707 1.371 1_556 S
H2705 C2711 0.930 . S
C2706 H2692 0.930 . S
C2706 C2704 1.395 . S
C2706 C2709 1.403 . S
C2707 C2704 1.371 1_554 S
C2707 C2708 1.529 . S
C2707 C2711 1.429 . S
C2708 H2693 0.960 . S
C2708 H2694 0.960 . S
C2708 H2695 0.960 1_554 S
C2708 C2707 1.529 . S
C2709 C2706 1.403 . S
C2709 C2710 1.392 1_556 S
C2709 C2713 1.495 . S
C2710 C2709 1.392 1_554 S
C2710 C2711 1.385 . S
C2710 C2712 1.478 . S
C2711 H2705 0.930 . S
C2711 C2707 1.429 . S
C2711 C2710 1.385 . S
C2712 C2710 1.478 . S
C2712 C2714 1.381 . S
C2712 C2718 1.383 . S
C2713 C2709 1.495 . S
C2713 H2719 0.959 . S
C2713 H2720 0.961 . S
C2713 H2721 0.960 1_556 S
C2714 C2712 1.381 . S
C2714 C2715 1.394 . S
C2714 H2722 0.930 . S
C2715 C2714 1.394 . S
C2715 C2716 1.383 . S
C2715 H2723 0.929 . S
C2716 C2715 1.383 . S
C2716 C2717 1.377 . S
C2717 H2701 0.930 . S
C2717 C2716 1.377 . S
C2717 C2718 1.379 . S
C2718 H2702 0.931 . S
C2718 C2712 1.383 . S
C2718 C2717 1.379 . S
H2719 C2713 0.959 . S
H2720 C2713 0.961 . S
H2721 C2713 0.960 1_554 S
H2722 C2714 0.930 . S
H2723 C2715 0.929 . S
H2724 C2732 0.929 . S
H2725 C2734 0.930 . S
H2726 C2736 0.930 . S
H2727 C2739 0.929 . S
H2728 C2742 0.930 . S
H2729 C2744 0.960 . S
H2730 C2744 0.960 . S
H2731 C2744 0.960 . S
C2732 H2724 0.929 . S
C2732 C2733 1.377 . S
C2732 C2734 1.384 . S
C2733 C2732 1.377 . S
C2733 C2739 1.390 . S
C2734 H2725 0.930 . S
C2734 C2732 1.384 . S
C2734 C2735 1.372 . S
C2735 C2734 1.372 . S
C2735 C2736 1.400 . S
C2735 C2740 1.490 . S
C2736 H2726 0.930 . S
C2736 C2735 1.400 . S
C2736 C2739 1.386 . S
H2737 C2753 0.930 . S
H2738 C2754 0.931 . S
C2739 H2727 0.929 . S
C2739 C2733 1.390 . S
C2739 C2736 1.386 . S
C2740 C2735 1.490 . S
C2740 C2742 1.395 . S
C2740 C2743 1.403 . S
H2741 C2747 0.930 . S
C2742 H2728 0.930 . S
C2742 C2740 1.395 . S
C2742 C2745 1.403 . S
C2743 C2740 1.403 . S
C2743 C2744 1.524 . S
C2743 C2747 1.400 . S
C2744 H2729 0.960 . S
C2744 H2730 0.960 . S
C2744 H2731 0.960 . S
C2744 C2743 1.524 . S
C2745 C2742 1.403 . S
C2745 C2746 1.392 . S
C2745 C2749 1.495 . S
C2746 C2745 1.392 . S
C2746 C2747 1.385 . S
C2746 C2748 1.478 . S
C2747 H2741 0.930 . S
C2747 C2743 1.400 . S
C2747 C2746 1.385 . S
C2748 C2746 1.478 . S
C2748 C2750 1.381 . S
C2748 C2754 1.383 . S
C2749 C2745 1.495 . S
C2749 H2755 0.959 . S
C2749 H2756 0.961 . S
C2749 H2757 0.960 . S
C2750 C2748 1.381 . S
C2750 C2751 1.394 . S
C2750 H2758 0.930 . S
C2751 C2750 1.394 . S
C2751 C2752 1.383 . S
C2751 H2759 0.929 . S
C2752 C2751 1.383 . S
C2752 C2753 1.377 . S
C2753 H2737 0.930 . S
C2753 C2752 1.377 . S
C2753 C2754 1.379 . S
C2754 H2738 0.931 . S
C2754 C2748 1.383 . S
C2754 C2753 1.379 . S
H2755 C2749 0.959 . S
H2756 C2749 0.961 . S
H2757 C2749 0.960 . S
H2758 C2750 0.930 . S
H2759 C2751 0.929 . S
H2760 C2768 0.929 . S
H2761 C2770 0.930 . S
H2762 C2772 0.930 . S
H2763 C2775 0.929 . S
H2764 C2778 0.930 . S
H2765 C2780 0.960 . S
H2766 C2780 0.960 . S
H2767 C2780 0.960 . S
C2768 H2760 0.929 . S
C2768 C2769 1.377 . S
C2768 C2770 1.384 . S
C2769 C2768 1.377 . S
C2769 C2775 1.390 . S
C2770 H2761 0.930 . S
C2770 C2768 1.384 . S
C2770 C2771 1.372 . S
C2771 C2770 1.372 . S
C2771 C2772 1.400 . S
C2771 C2776 1.490 . S
C2772 H2762 0.930 . S
C2772 C2771 1.400 . S
C2772 C2775 1.386 . S
H2773 C2789 0.930 . S
H2774 C2790 0.931 . S
C2775 H2763 0.929 . S
C2775 C2769 1.390 . S
C2775 C2772 1.386 . S
C2776 C2771 1.490 . S
C2776 C2778 1.395 . S
C2776 C2779 1.403 . S
H2777 C2783 0.930 . S
C2778 H2764 0.930 . S
C2778 C2776 1.395 . S
C2778 C2781 1.403 1_554 S
C2779 C2776 1.403 . S
C2779 C2780 1.524 . S
C2779 C2783 1.400 1_554 S
C2780 H2765 0.960 . S
C2780 H2766 0.960 . S
C2780 H2767 0.960 . S
C2780 C2779 1.524 . S
C2781 C2778 1.403 1_556 S
C2781 C2782 1.392 . S
C2781 C2785 1.495 . S
C2782 C2781 1.392 . S
C2782 C2783 1.385 . S
C2782 C2784 1.478 . S
C2783 H2777 0.930 . S
C2783 C2779 1.400 1_556 S
C2783 C2782 1.385 . S
C2784 C2782 1.478 . S
C2784 C2786 1.381 . S
C2784 C2790 1.383 . S
C2785 C2781 1.495 . S
C2785 H2791 0.959 . S
C2785 H2792 0.961 . S
C2785 H2793 0.960 . S
C2786 C2784 1.381 . S
C2786 C2787 1.394 . S
C2786 H2794 0.930 . S
C2787 C2786 1.394 . S
C2787 C2788 1.383 . S
C2787 H2795 0.929 . S
C2788 C2787 1.383 . S
C2788 C2789 1.377 . S
C2789 H2773 0.930 . S
C2789 C2788 1.377 . S
C2789 C2790 1.379 . S
C2790 H2774 0.931 . S
C2790 C2784 1.383 . S
C2790 C2789 1.379 . S
H2791 C2785 0.959 . S
H2792 C2785 0.961 . S
H2793 C2785 0.960 . S
H2794 C2786 0.930 . S
H2795 C2787 0.929 . S
H2796 C2804 0.929 . S
H2797 C2806 0.930 . S
H2798 C2808 0.930 . S
H2799 C2811 0.929 . S
H2800 C2814 0.930 . S
H2801 C2816 0.960 . S
H2802 C2816 0.960 . S
H2803 C2816 0.960 . S
C2804 H2796 0.929 . S
C2804 C2805 1.377 . S
C2804 C2806 1.384 . S
C2805 C2804 1.377 . S
C2805 C2811 1.390 . S
C2806 H2797 0.930 . S
C2806 C2804 1.384 . S
C2806 C2807 1.372 . S
C2807 C2806 1.372 . S
C2807 C2808 1.400 . S
C2807 C2812 1.490 . S
C2808 H2798 0.930 . S
C2808 C2807 1.400 . S
C2808 C2811 1.386 . S
H2809 C2825 0.930 . S
H2810 C2826 0.931 . S
C2811 H2799 0.929 . S
C2811 C2805 1.390 . S
C2811 C2808 1.386 . S
C2812 C2807 1.490 . S
C2812 C2814 1.395 . S
C2812 C2815 1.403 . S
H2813 C2819 0.930 . S
C2814 H2800 0.930 . S
C2814 C2812 1.395 . S
C2814 C2817 1.403 . S
C2815 C2812 1.403 . S
C2815 C2816 1.524 . S
C2815 C2819 1.400 . S
C2816 H2801 0.960 . S
C2816 H2802 0.960 . S
C2816 H2803 0.960 . S
C2816 C2815 1.524 . S
C2817 C2814 1.403 . S
C2817 C2818 1.392 . S
C2817 C2821 1.495 . S
C2818 C2817 1.392 . S
C2818 C2819 1.385 . S
C2818 C2820 1.478 . S
C2819 H2813 0.930 . S
C2819 C2815 1.400 . S
C2819 C2818 1.385 . S
C2820 C2818 1.478 . S
C2820 C2822 1.381 . S
C2820 C2826 1.383 . S
C2821 C2817 1.495 . S
C2821 H2827 0.959 . S
C2821 H2828 0.961 . S
C2821 H2829 0.960 . S
C2822 C2820 1.381 . S
C2822 C2823 1.394 . S
C2822 H2830 0.930 . S
C2823 C2822 1.394 . S
C2823 C2824 1.383 . S
C2823 H2831 0.929 . S
C2824 C2823 1.383 . S
C2824 C2825 1.377 . S
C2825 H2809 0.930 . S
C2825 C2824 1.377 . S
C2825 C2826 1.379 . S
C2826 H2810 0.931 . S
C2826 C2820 1.383 . S
C2826 C2825 1.379 . S
H2827 C2821 0.959 . S
H2828 C2821 0.961 . S
H2829 C2821 0.960 . S
H2830 C2822 0.930 . S
H2831 C2823 0.929 . S
H2832 C2840 0.929 . S
H2833 C2842 0.930 . S
H2834 C2844 0.930 . S
H2835 C2847 0.929 . S
H2836 C2850 0.930 . S
H2837 C2852 0.960 . S
H2838 C2852 0.960 . S
H2839 C2852 0.960 . S
C2840 H2832 0.929 . S
C2840 C2841 1.377 . S
C2840 C2842 1.384 . S
C2841 C2840 1.377 . S
C2841 C2847 1.390 . S
C2842 H2833 0.930 . S
C2842 C2840 1.384 . S
C2842 C2843 1.372 . S
C2843 C2842 1.372 . S
C2843 C2844 1.400 . S
C2843 C2848 1.490 . S
C2844 H2834 0.930 . S
C2844 C2843 1.400 . S
C2844 C2847 1.386 . S
H2845 C2861 0.930 . S
H2846 C2862 0.931 . S
C2847 H2835 0.929 . S
C2847 C2841 1.390 . S
C2847 C2844 1.386 . S
C2848 C2843 1.490 . S
C2848 C2850 1.395 1_556 S
C2848 C2851 1.403 . S
H2849 C2855 0.930 . S
C2850 H2836 0.930 . S
C2850 C2848 1.395 1_554 S
C2850 C2853 1.403 . S
C2851 C2848 1.403 . S
C2851 C2852 1.524 . S
C2851 C2855 1.400 1_556 S
C2852 H2837 0.960 . S
C2852 H2838 0.960 . S
C2852 H2839 0.960 . S
C2852 C2851 1.524 . S
C2853 C2850 1.403 . S
C2853 C2854 1.392 . S
C2853 C2857 1.495 . S
C2854 C2853 1.392 . S
C2854 C2855 1.385 . S
C2854 C2856 1.478 . S
C2855 H2849 0.930 . S
C2855 C2851 1.400 1_554 S
C2855 C2854 1.385 . S
C2856 C2854 1.478 . S
C2856 C2858 1.381 . S
C2856 C2862 1.383 . S
C2857 C2853 1.495 . S
C2857 H2863 0.959 . S
C2857 H2864 0.961 . S
C2857 H2865 0.960 . S
C2858 C2856 1.381 . S
C2858 C2859 1.394 . S
C2858 H2866 0.930 . S
C2859 C2858 1.394 . S
C2859 C2860 1.383 . S
C2859 H2867 0.929 . S
C2860 C2859 1.383 . S
C2860 C2861 1.377 . S
C2861 H2845 0.930 . S
C2861 C2860 1.377 . S
C2861 C2862 1.379 . S
C2862 H2846 0.931 . S
C2862 C2856 1.383 . S
C2862 C2861 1.379 . S
H2863 C2857 0.959 . S
H2864 C2857 0.961 . S
H2865 C2857 0.960 . S
H2866 C2858 0.930 . S
H2867 C2859 0.929 . S
H2868 C2876 0.929 . S
H2869 C2878 0.930 . S
H2870 C2880 0.930 . S
H2871 C2883 0.929 . S
H2872 C2886 0.930 . S
H2873 C2888 0.960 . S
H2874 C2888 0.960 . S
H2875 C2888 0.960 . S
C2876 H2868 0.929 . S
C2876 C2877 1.377 . S
C2876 C2878 1.384 . S
C2877 C2876 1.377 . S
C2877 C2883 1.390 . S
C2878 H2869 0.930 . S
C2878 C2876 1.384 . S
C2878 C2879 1.372 . S
C2879 C2878 1.372 . S
C2879 C2880 1.400 . S
C2879 C2884 1.490 . S
C2880 H2870 0.930 . S
C2880 C2879 1.400 . S
C2880 C2883 1.386 . S
H2881 C2897 0.930 . S
H2882 C2898 0.931 . S
C2883 H2871 0.929 . S
C2883 C2877 1.390 . S
C2883 C2880 1.386 . S
C2884 C2879 1.490 . S
C2884 C2886 1.395 . S
C2884 C2887 1.403 . S
H2885 C2891 0.930 . S
C2886 H2872 0.930 . S
C2886 C2884 1.395 . S
C2886 C2889 1.403 . S
C2887 C2884 1.403 . S
C2887 C2888 1.524 . S
C2887 C2891 1.400 . S
C2888 H2873 0.960 . S
C2888 H2874 0.960 . S
C2888 H2875 0.960 . S
C2888 C2887 1.524 . S
C2889 C2886 1.403 . S
C2889 C2890 1.392 . S
C2889 C2893 1.495 . S
C2890 C2889 1.392 . S
C2890 C2891 1.385 . S
C2890 C2892 1.478 . S
C2891 H2885 0.930 . S
C2891 C2887 1.400 . S
C2891 C2890 1.385 . S
C2892 C2890 1.478 . S
C2892 C2894 1.381 . S
C2892 C2898 1.383 . S
C2893 C2889 1.495 . S
C2893 H2899 0.959 . S
C2893 H2900 0.961 . S
C2893 H2901 0.960 . S
C2894 C2892 1.381 . S
C2894 C2895 1.394 . S
C2894 H2902 0.930 . S
C2895 C2894 1.394 . S
C2895 C2896 1.383 . S
C2895 H2903 0.929 . S
C2896 C2895 1.383 . S
C2896 C2897 1.377 . S
C2897 H2881 0.930 . S
C2897 C2896 1.377 . S
C2897 C2898 1.379 . S
C2898 H2882 0.931 . S
C2898 C2892 1.383 . S
C2898 C2897 1.379 . S
H2899 C2893 0.959 . S
H2900 C2893 0.961 . S
H2901 C2893 0.960 . S
H2902 C2894 0.930 . S
H2903 C2895 0.929 . S
H2904 C2912 0.929 . S
H2905 C2914 0.930 . S
H2906 C2916 0.930 . S
H2907 C2919 0.929 . S
H2908 C2922 0.930 . S
H2909 C2924 0.960 . S
H2910 C2924 0.960 . S
H2911 C2924 0.960 . S
C2912 H2904 0.929 . S
C2912 C2913 1.377 . S
C2912 C2914 1.384 . S
C2913 C2912 1.377 . S
C2913 C2919 1.390 . S
C2914 H2905 0.930 . S
C2914 C2912 1.384 . S
C2914 C2915 1.372 . S
C2915 C2914 1.372 . S
C2915 C2916 1.400 . S
C2915 C2920 1.490 . S
C2916 H2906 0.930 . S
C2916 C2915 1.400 . S
C2916 C2919 1.386 . S
H2917 C2933 0.930 . S
H2918 C2934 0.931 . S
C2919 H2907 0.929 . S
C2919 C2913 1.390 . S
C2919 C2916 1.386 . S
C2920 C2915 1.490 . S
C2920 C2922 1.345 1_554 S
C2920 C2923 1.403 . S
H2921 C2927 0.930 . S
C2922 H2908 0.930 . S
C2922 C2920 1.345 1_556 S
C2922 C2925 1.455 . S
C2923 C2920 1.403 . S
C2923 C2924 1.524 . S
C2923 C2927 1.400 1_554 S
C2924 H2909 0.960 . S
C2924 H2910 0.960 . S
C2924 H2911 0.960 . S
C2924 C2923 1.524 . S
C2925 C2922 1.455 . S
C2925 C2926 1.392 . S
C2925 C2929 1.495 . S
C2926 C2925 1.392 . S
C2926 C2927 1.385 . S
C2926 C2928 1.478 . S
C2927 H2921 0.930 . S
C2927 C2923 1.400 1_556 S
C2927 C2926 1.385 . S
C2928 C2926 1.478 . S
C2928 C2930 1.381 . S
C2928 C2934 1.383 . S
C2929 C2925 1.495 . S
C2929 H2935 0.959 . S
C2929 H2936 0.961 . S
C2929 H2937 0.960 . S
C2930 C2928 1.381 . S
C2930 C2931 1.394 . S
C2930 H2938 0.930 . S
C2931 C2930 1.394 . S
C2931 C2932 1.383 . S
C2931 H2939 0.929 . S
C2932 C2931 1.383 . S
C2932 C2933 1.377 . S
C2933 H2917 0.930 . S
C2933 C2932 1.377 . S
C2933 C2934 1.379 . S
C2934 H2918 0.931 . S
C2934 C2928 1.383 . S
C2934 C2933 1.379 . S
H2935 C2929 0.959 . S
H2936 C2929 0.961 . S
H2937 C2929 0.960 . S
H2938 C2930 0.930 . S
H2939 C2931 0.929 . S
H2940 C2948 0.929 . S
H2941 C2950 0.930 . S
H2942 C2952 0.930 . S
H2943 C2955 0.929 . S
H2944 C2958 0.930 . S
H2945 C2960 0.960 . S
H2946 C2960 0.960 . S
H2947 C2960 0.960 . S
C2948 H2940 0.929 . S
C2948 C2949 1.377 . S
C2948 C2950 1.384 . S
C2949 C2948 1.377 . S
C2949 C2955 1.390 . S
C2950 H2941 0.930 . S
C2950 C2948 1.384 . S
C2950 C2951 1.372 . S
C2951 C2950 1.372 . S
C2951 C2952 1.400 . S
C2951 C2956 1.490 . S
C2952 H2942 0.930 . S
C2952 C2951 1.400 . S
C2952 C2955 1.386 . S
H2953 C2969 0.930 . S
H2954 C2970 0.931 . S
C2955 H2943 0.929 . S
C2955 C2949 1.390 . S
C2955 C2952 1.386 . S
C2956 C2951 1.490 . S
C2956 C2958 1.395 . S
C2956 C2959 1.403 . S
H2957 C2963 0.930 . S
C2958 H2944 0.930 . S
C2958 C2956 1.395 . S
C2958 C2961 1.403 . S
C2959 C2956 1.403 . S
C2959 C2960 1.524 . S
C2959 C2963 1.400 . S
C2960 H2945 0.960 . S
C2960 H2946 0.960 . S
C2960 H2947 0.960 . S
C2960 C2959 1.524 . S
C2961 C2958 1.403 . S
C2961 C2962 1.392 . S
C2961 C2965 1.495 . S
C2962 C2961 1.392 . S
C2962 C2963 1.385 . S
C2962 C2964 1.478 . S
C2963 H2957 0.930 . S
C2963 C2959 1.400 . S
C2963 C2962 1.385 . S
C2964 C2962 1.478 . S
C2964 C2966 1.381 . S
C2964 C2970 1.383 . S
C2965 C2961 1.495 . S
C2965 H2971 0.959 . S
C2965 H2972 0.961 . S
C2965 H2973 0.960 . S
C2966 C2964 1.381 . S
C2966 C2967 1.394 . S
C2966 H2974 0.930 . S
C2967 C2966 1.394 . S
C2967 C2968 1.383 . S
C2967 H2975 0.929 . S
C2968 C2967 1.383 . S
C2968 C2969 1.377 . S
C2969 H2953 0.930 . S
C2969 C2968 1.377 . S
C2969 C2970 1.379 . S
C2970 H2954 0.931 . S
C2970 C2964 1.383 . S
C2970 C2969 1.379 . S
H2971 C2965 0.959 . S
H2972 C2965 0.961 . S
H2973 C2965 0.960 . S
H2974 C2966 0.930 . S
H2975 C2967 0.929 . S
H2976 C2984 0.929 . S
H2977 C2986 0.930 . S
H2978 C2988 0.930 . S
H2979 C2991 0.929 . S
H2980 C2994 0.930 . S
H2981 C2996 0.960 . S
H2982 C2996 0.960 . S
H2983 C2996 0.960 . S
C2984 H2976 0.929 . S
C2984 C2985 1.377 . S
C2984 C2986 1.384 . S
C2985 C2984 1.377 . S
C2985 C2991 1.390 . S
C2986 H2977 0.930 . S
C2986 C2984 1.384 . S
C2986 C2987 1.372 . S
C2987 C2986 1.372 . S
C2987 C2988 1.400 . S
C2987 C2992 1.490 . S
C2988 H2978 0.930 . S
C2988 C2987 1.400 . S
C2988 C2991 1.386 . S
H2989 C3005 0.930 . S
H2990 C3006 0.931 . S
C2991 H2979 0.929 . S
C2991 C2985 1.390 . S
C2991 C2988 1.386 . S
C2992 C2987 1.490 . S
C2992 C2994 1.395 1_554 S
C2992 C2995 1.403 . S
H2993 C2999 0.930 . S
C2994 H2980 0.930 . S
C2994 C2992 1.395 1_556 S
C2994 C2997 1.403 . S
C2995 C2992 1.403 . S
C2995 C2996 1.524 . S
C2995 C2999 1.400 1_554 S
C2996 H2981 0.960 . S
C2996 H2982 0.960 . S
C2996 H2983 0.960 . S
C2996 C2995 1.524 . S
C2997 C2994 1.403 . S
C2997 C2998 1.392 . S
C2997 C3001 1.495 . S
C2998 C2997 1.392 . S
C2998 C2999 1.385 . S
C2998 C3000 1.478 . S
C2999 H2993 0.930 . S
C2999 C2995 1.400 1_556 S
C2999 C2998 1.385 . S
C3000 C2998 1.478 . S
C3000 C3002 1.381 . S
C3000 C3006 1.383 . S
C3001 C2997 1.495 . S
C3001 H3007 0.959 . S
C3001 H3008 0.961 . S
C3001 H3009 0.960 . S
C3002 C3000 1.381 . S
C3002 C3003 1.394 . S
C3002 H3010 0.930 . S
C3003 C3002 1.394 . S
C3003 C3004 1.383 . S
C3003 H3011 0.929 . S
C3004 C3003 1.383 . S
C3004 C3005 1.377 . S
C3005 H2989 0.930 . S
C3005 C3004 1.377 . S
C3005 C3006 1.379 . S
C3006 H2990 0.931 . S
C3006 C3000 1.383 . S
C3006 C3005 1.379 . S
H3007 C3001 0.959 . S
H3008 C3001 0.961 . S
H3009 C3001 0.960 . S
H3010 C3002 0.930 . S
H3011 C3003 0.929 . S
H3012 C3020 0.929 . S
H3013 C3022 0.930 . S
H3014 C3024 0.930 . S
H3015 C3027 0.929 . S
H3016 C3030 0.930 . S
H3017 C3032 0.960 . S
H3018 C3032 0.960 . S
H3019 C3032 0.960 . S
C3020 H3012 0.929 . S
C3020 C3021 1.377 . S
C3020 C3022 1.384 . S
C3021 C3020 1.377 . S
C3021 C3027 1.390 . S
C3022 H3013 0.930 . S
C3022 C3020 1.384 . S
C3022 C3023 1.372 . S
C3023 C3022 1.372 . S
C3023 C3024 1.400 . S
C3023 C3028 1.490 . S
C3024 H3014 0.930 . S
C3024 C3023 1.400 . S
C3024 C3027 1.386 . S
H3025 C3041 0.930 . S
H3026 C3042 0.931 . S
C3027 H3015 0.929 . S
C3027 C3021 1.390 . S
C3027 C3024 1.386 . S
C3028 C3023 1.490 . S
C3028 C3030 1.395 . S
C3028 C3031 1.403 . S
H3029 C3035 0.930 . S
C3030 H3016 0.930 . S
C3030 C3028 1.395 . S
C3030 C3033 1.403 . S
C3031 C3028 1.403 . S
C3031 C3032 1.524 . S
C3031 C3035 1.400 . S
C3032 H3017 0.960 . S
C3032 H3018 0.960 . S
C3032 H3019 0.960 . S
C3032 C3031 1.524 . S
C3033 C3030 1.403 . S
C3033 C3034 1.392 . S
C3033 C3037 1.495 . S
C3034 C3033 1.392 . S
C3034 C3035 1.385 . S
C3034 C3036 1.478 . S
C3035 H3029 0.930 . S
C3035 C3031 1.400 . S
C3035 C3034 1.385 . S
C3036 C3034 1.478 . S
C3036 C3038 1.381 . S
C3036 C3042 1.383 . S
C3037 C3033 1.495 . S
C3037 H3043 0.959 . S
C3037 H3044 0.961 . S
C3037 H3045 0.960 . S
C3038 C3036 1.381 . S
C3038 C3039 1.394 . S
C3038 H3046 0.930 . S
C3039 C3038 1.394 . S
C3039 C3040 1.383 . S
C3039 H3047 0.929 . S
C3040 C3039 1.383 . S
C3040 C3041 1.377 . S
C3041 H3025 0.930 . S
C3041 C3040 1.377 . S
C3041 C3042 1.379 . S
C3042 H3026 0.931 . S
C3042 C3036 1.383 . S
C3042 C3041 1.379 . S
H3043 C3037 0.959 . S
H3044 C3037 0.961 . S
H3045 C3037 0.960 . S
H3046 C3038 0.930 . S
H3047 C3039 0.929 . S
H3048 C3056 0.929 . S
H3049 C3058 0.930 . S
H3050 C3060 0.930 . S
H3051 C3063 0.929 . S
H3052 C3066 0.930 . S
H3053 C3068 0.960 . S
H3054 C3068 0.960 . S
H3055 C3068 0.960 1_554 S
C3056 H3048 0.929 . S
C3056 C3057 1.377 . S
C3056 C3058 1.384 . S
C3057 C3056 1.377 . S
C3057 C3063 1.390 . S
C3058 H3049 0.930 . S
C3058 C3056 1.384 . S
C3058 C3059 1.372 . S
C3059 C3058 1.372 . S
C3059 C3060 1.400 . S
C3059 C3064 1.490 . S
C3060 H3050 0.930 . S
C3060 C3059 1.400 . S
C3060 C3063 1.386 . S
H3061 C3077 0.930 . S
H3062 C3078 0.931 . S
C3063 H3051 0.929 . S
C3063 C3057 1.390 . S
C3063 C3060 1.386 . S
C3064 C3059 1.490 . S
C3064 C3066 1.395 . S
C3064 C3067 1.403 1_554 S
H3065 C3071 0.930 . S
C3066 H3052 0.930 . S
C3066 C3064 1.395 . S
C3066 C3069 1.403 . S
C3067 C3064 1.403 1_556 S
C3067 C3068 1.524 . S
C3067 C3071 1.400 . S
C3068 H3053 0.960 . S
C3068 H3054 0.960 . S
C3068 H3055 0.960 1_556 S
C3068 C3067 1.524 . S
C3069 C3066 1.403 . S
C3069 C3070 1.392 1_554 S
C3069 C3073 1.495 . S
C3070 C3069 1.392 1_556 S
C3070 C3071 1.385 . S
C3070 C3072 1.478 . S
C3071 H3065 0.930 . S
C3071 C3067 1.400 . S
C3071 C3070 1.385 . S
C3072 C3070 1.478 . S
C3072 C3074 1.381 . S
C3072 C3078 1.383 . S
C3073 C3069 1.495 . S
C3073 H3079 0.959 . S
C3073 H3080 0.961 . S
C3073 H3081 0.960 1_554 S
C3074 C3072 1.381 . S
C3074 C3075 1.394 . S
C3074 H3082 0.930 . S
C3075 C3074 1.394 . S
C3075 C3076 1.383 . S
C3075 H3083 0.929 . S
C3076 C3075 1.383 . S
C3076 C3077 1.377 . S
C3077 H3061 0.930 . S
C3077 C3076 1.377 . S
C3077 C3078 1.379 . S
C3078 H3062 0.931 . S
C3078 C3072 1.383 . S
C3078 C3077 1.379 . S
H3079 C3073 0.959 . S
H3080 C3073 0.961 . S
H3081 C3073 0.960 1_556 S
H3082 C3074 0.930 . S
H3083 C3075 0.929 . S
H3084 C3092 0.929 . S
H3085 C3094 0.930 . S
H3086 C3096 0.930 . S
H3087 C3099 0.929 . S
H3088 C3102 0.930 . S
H3089 C3104 0.960 . S
H3090 C3104 0.960 . S
H3091 C3104 0.960 . S
C3092 H3084 0.929 . S
C3092 C3093 1.377 . S
C3092 C3094 1.384 . S
C3093 C3092 1.377 . S
C3093 C3099 1.390 . S
C3094 H3085 0.930 . S
C3094 C3092 1.384 . S
C3094 C3095 1.372 . S
C3095 C3094 1.372 . S
C3095 C3096 1.400 . S
C3095 C3100 1.490 . S
C3096 H3086 0.930 . S
C3096 C3095 1.400 . S
C3096 C3099 1.386 . S
H3097 C3113 0.930 . S
H3098 C3114 0.931 . S
C3099 H3087 0.929 . S
C3099 C3093 1.390 . S
C3099 C3096 1.386 . S
C3100 C3095 1.490 . S
C3100 C3102 1.395 . S
C3100 C3103 1.403 . S
H3101 C3107 0.930 . S
C3102 H3088 0.930 . S
C3102 C3100 1.395 . S
C3102 C3105 1.403 . S
C3103 C3100 1.403 . S
C3103 C3104 1.524 . S
C3103 C3107 1.400 . S
C3104 H3089 0.960 . S
C3104 H3090 0.960 . S
C3104 H3091 0.960 . S
C3104 C3103 1.524 . S
C3105 C3102 1.403 . S
C3105 C3106 1.392 . S
C3105 C3109 1.495 . S
C3106 C3105 1.392 . S
C3106 C3107 1.385 . S
C3106 C3108 1.478 . S
C3107 H3101 0.930 . S
C3107 C3103 1.400 . S
C3107 C3106 1.385 . S
C3108 C3106 1.478 . S
C3108 C3110 1.381 . S
C3108 C3114 1.383 . S
C3109 C3105 1.495 . S
C3109 H3115 0.959 . S
C3109 H3116 0.961 . S
C3109 H3117 0.960 . S
C3110 C3108 1.381 . S
C3110 C3111 1.394 . S
C3110 H3118 0.930 . S
C3111 C3110 1.394 . S
C3111 C3112 1.383 . S
C3111 H3119 0.929 . S
C3112 C3111 1.383 . S
C3112 C3113 1.377 . S
C3113 H3097 0.930 . S
C3113 C3112 1.377 . S
C3113 C3114 1.379 . S
C3114 H3098 0.931 . S
C3114 C3108 1.383 . S
C3114 C3113 1.379 . S
H3115 C3109 0.959 . S
H3116 C3109 0.961 . S
H3117 C3109 0.960 . S
H3118 C3110 0.930 . S
H3119 C3111 0.929 . S
C537 C194 0.790 . S
C556 C10 0.812 . S
C573 C30 0.790 . S
C592 C206 0.805 . S
C609 C230 0.806 . S
C628 C52 0.787 . S
C645 C74 0.796 . S
C664 C260 0.766 . S
C681 C142 0.791 . S
C700 C106 0.792 . S
C717 C164 0.806 . S
C736 C118 0.779 . S
C753 C272 0.798 . S
C772 C458 0.764 . S
C789 C472 0.805 . S
C808 C296 0.798 . S
C825 C494 0.805 . S
C844 C326 0.796 . S
C861 C340 0.805 . S
C880 C516 0.800 . S
C897 C362 0.792 . S
C916 C404 0.792 . S
C933 C428 0.795 . S
C952 C392 0.836 . S
C969 C21 0.957 . S
C988 C65 0.976 . S
C1005 C87 0.967 . S
C1024 C29 0.987 . S
C1041 C51 0.968 . S
C1060 C95 0.940 . S
C1077 C73 0.968 . S
C1096 C131 0.940 . S
C1113 C15 0.979 . S
C1132 C103 0.916 . S
C1149 C43 0.968 . S
C1168 C117 0.986 . S
C1185 C235 0.969 . S
C1204 C153 0.975 . S
C1221 C175 0.957 . S
C1240 C249 0.980 . S
C1257 C191 0.953 . S
C1276 C147 0.991 . S
C1293 C169 0.967 . S
C1312 C205 0.993 . S
C1329 C183 0.970 . S
C1348 C241 0.974 . S
C1365 C219 0.978 . S
C1384 C257 0.921 . S
C1401 C315 0.973 . S
C1420 C271 0.925 . S
C1437 C307 0.962 . S
C1456 C345 1.002 . S
C1473 C323 0.950 . S
C1492 C367 0.955 . S
C1509 C351 0.963 . S
C1528 C381 1.002 . S
C1545 C285 0.977 . S
C1564 C373 0.997 . S
C1581 C301 0.975 . S
C1600 C389 1.000 . S
C1617 C403 0.956 . S
C1636 C499 0.991 . S
C1653 C439 0.968 . S
C1672 C521 0.986 . S
C1689 C455 0.968 . S
C1708 C417 0.988 . S
C1725 C483 0.953 . S
C1744 C433 0.980 . S
C1761 C447 0.966 . S
C1780 C505 0.935 . S
C1797 C477 0.977 . S
C1816 C527 0.999 . S
C1833 C7 1.456 . S
C1852 C337 1.455 . S
C1869 C359 1.456 . S
C1888 C37 1.456 . S
C1905 C59 1.456 . S
C1924 C395 1.455 . S
C1941 C81 1.456 . S
C1960 C279 1.456 . S
C1977 C293 1.456 . S
C1996 C109 1.454 . S
C2013 C125 1.456 . S
C2032 C329 1.457 . S
C2049 C139 1.456 . S
C2068 C469 1.456 . S
C2085 C491 1.457 . S
C2104 C161 1.452 . S
C2121 C197 1.457 . S
C2140 C513 1.456 . S
C2157 C213 1.456 . S
C2176 C411 1.452 . S
C2193 C425 1.456 . S
C2212 C227 1.457 . S
C2229 C461 1.457 . S
C2248 C263 1.452 . S
C2265 C448 1.105 . S
C2284 C18 1.113 . S
C2301 C480 1.095 . S
C2320 C32 1.115 . S
C2337 C502 1.098 . S
C2356 C54 1.128 . S
C2373 C524 1.097 . S
C2392 C76 1.126 . S
C2409 C406 1.098 . S
C2428 C96 1.128 . S
C2445 C120 1.096 . S
C2464 C436 1.110 . S
C2481 C150 1.107 . S
C2500 C370 1.077 . S
C2517 C382 1.096 . S
C2536 C172 1.104 . S
C2553 C274 1.096 . S
C2572 C184 1.125 . S
C2589 C304 1.106 . S
C2608 C208 1.074 . S
C2625 C238 1.107 . S
C2644 C316 1.075 . S
C2661 C250 1.100 . S
C2680 C348 1.127 . S
C2697 C228 0.812 . S
C2716 C8 0.803 . S
C2733 C252 0.824 . S
C2752 C40 0.800 . S
C2769 C62 0.814 . S
C2788 C140 0.849 . S
C2805 C84 0.807 . S
C2824 C162 0.836 . S
C2841 C186 0.823 . S
C2860 C98 0.811 . S
C2877 C128 0.818 . S
C2896 C216 0.835 . S
C2913 C492 0.808 . S
C2932 C282 0.796 . S
C2949 C514 0.825 . S
C2968 C294 0.818 . S
C2985 C414 0.807 . S
C3004 C318 0.804 . S
C3021 C338 0.807 . S
C3040 C426 0.840 . S
C3057 C450 0.824 . S
C3076 C360 0.835 . S
C3093 C384 0.809 . S
C3112 C470 0.785 . S
