# Generated by pormake.
# Topology wkc, (5)-cn, num edge types: 1
# Building blocks:
#     Node 0, Type 0, BuildingBlock: BEQFEK_clean_sbu_0, # of connection points: 5
#     Node 1, Type 0, BuildingBlock: BEQFEK_clean_sbu_0, # of connection points: 5
#     Node 2, Type 0, BuildingBlock: BEQFEK_clean_sbu_0, # of connection points: 5
#     Node 3, Type 0, BuildingBlock: BEQFEK_clean_sbu_0, # of connection points: 5
#     Node 4, Type 0, BuildingBlock: BEQFEK_clean_sbu_0, # of connection points: 5
#     Node 5, Type 0, BuildingBlock: BEQFEK_clean_sbu_0, # of connection points: 5
#     Node 6, Type 0, BuildingBlock: BEQFEK_clean_sbu_0, # of connection points: 5
#     Node 7, Type 0, BuildingBlock: BEQFEK_clean_sbu_0, # of connection points: 5
#     Node 8, Type 0, BuildingBlock: BEQFEK_clean_sbu_0, # of connection points: 5
#     Node 9, Type 0, BuildingBlock: BEQFEK_clean_sbu_0, # of connection points: 5
#     Node 10, Type 0, BuildingBlock: BEQFEK_clean_sbu_0, # of connection points: 5
#     Node 11, Type 0, BuildingBlock: BEQFEK_clean_sbu_0, # of connection points: 5
#     Edge 12, Type (0, 0), BuildingBlock: CIFDUS_clean_linker_0, # of connection points: 2
#     Edge 13, Type (0, 0), BuildingBlock: CIFDUS_clean_linker_0, # of connection points: 2
#     Edge 14, Type (0, 0), BuildingBlock: CIFDUS_clean_linker_0, # of connection points: 2
#     Edge 15, Type (0, 0), BuildingBlock: CIFDUS_clean_linker_0, # of connection points: 2
#     Edge 16, Type (0, 0), BuildingBlock: CIFDUS_clean_linker_0, # of connection points: 2
#     Edge 17, Type (0, 0), BuildingBlock: CIFDUS_clean_linker_0, # of connection points: 2
#     Edge 18, Type (0, 0), BuildingBlock: CIFDUS_clean_linker_0, # of connection points: 2
#     Edge 19, Type (0, 0), BuildingBlock: CIFDUS_clean_linker_0, # of connection points: 2
#     Edge 20, Type (0, 0), BuildingBlock: CIFDUS_clean_linker_0, # of connection points: 2
#     Edge 21, Type (0, 0), BuildingBlock: CIFDUS_clean_linker_0, # of connection points: 2
#     Edge 22, Type (0, 0), BuildingBlock: CIFDUS_clean_linker_0, # of connection points: 2
#     Edge 23, Type (0, 0), BuildingBlock: CIFDUS_clean_linker_0, # of connection points: 2
#     Edge 24, Type (0, 0), BuildingBlock: CIFDUS_clean_linker_0, # of connection points: 2
#     Edge 25, Type (0, 0), BuildingBlock: CIFDUS_clean_linker_0, # of connection points: 2
#     Edge 26, Type (0, 0), BuildingBlock: CIFDUS_clean_linker_0, # of connection points: 2
#     Edge 27, Type (0, 0), BuildingBlock: CIFDUS_clean_linker_0, # of connection points: 2
#     Edge 28, Type (0, 0), BuildingBlock: CIFDUS_clean_linker_0, # of connection points: 2
#     Edge 29, Type (0, 0), BuildingBlock: CIFDUS_clean_linker_0, # of connection points: 2
#     Edge 30, Type (0, 0), BuildingBlock: CIFDUS_clean_linker_0, # of connection points: 2
#     Edge 31, Type (0, 0), BuildingBlock: CIFDUS_clean_linker_0, # of connection points: 2
#     Edge 32, Type (0, 0), BuildingBlock: CIFDUS_clean_linker_0, # of connection points: 2
#     Edge 33, Type (0, 0), BuildingBlock: CIFDUS_clean_linker_0, # of connection points: 2
#     Edge 34, Type (0, 0), BuildingBlock: CIFDUS_clean_linker_0, # of connection points: 2
#     Edge 35, Type (0, 0), BuildingBlock: CIFDUS_clean_linker_0, # of connection points: 2
#     Edge 36, Type (0, 0), BuildingBlock: CIFDUS_clean_linker_0, # of connection points: 2
#     Edge 37, Type (0, 0), BuildingBlock: CIFDUS_clean_linker_0, # of connection points: 2
#     Edge 38, Type (0, 0), BuildingBlock: CIFDUS_clean_linker_0, # of connection points: 2
#     Edge 39, Type (0, 0), BuildingBlock: CIFDUS_clean_linker_0, # of connection points: 2
#     Edge 40, Type (0, 0), BuildingBlock: CIFDUS_clean_linker_0, # of connection points: 2
#     Edge 41, Type (0, 0), BuildingBlock: CIFDUS_clean_linker_0, # of connection points: 2
# Relax obj value: 0.261
# Max RMSD: 0.183
# Mean RMSD: 0.183
data_MOF--net-wkc--node1-BEQFEK_clean_sbu_0--edge1-CIFDUS_clean_linker_0
_symmetry_space_group_name_H-M    P1
_symmetry_Int_Tables_number       1
_symmetry_cell_setting            triclinic
loop_
_symmetry_equiv_pos_as_xyz
'x, y, z'
_cell_length_a     36.487668
_cell_length_b     36.482938
_cell_length_c     38.461388
_cell_angle_alpha  89.924602
_cell_angle_beta   90.052605
_cell_angle_gamma 120.00058
loop_
_atom_site_label
_atom_site_type_symbol
_atom_site_fract_x
_atom_site_fract_y
_atom_site_fract_z
_atom_type_partial_charge
Co0 Co 0.28737 0.36536 0.00948 0.0
Co1 Co 0.2933 0.44052 0.05407 0.0
C2 C 0.2105 0.37275 0.02817 0.0
O3 O 0.22707 0.3531 0.01355 0.0
O4 O 0.23332 0.40799 0.04326 0.0
C5 C 0.28237 0.32556 0.94271 0.0
O6 O 0.27624 0.35549 0.92997 0.0
C7 C 0.2894 0.51648 0.07229 0.0
C8 C 0.33917 0.54509 0.11253 0.0
C9 C 0.31105 0.55195 0.09324 0.0
N10 N 0.30463 0.49034 0.07857 0.0
N11 N 0.33362 0.50712 0.10322 0.0
C12 C 0.25876 0.50976 0.04371 0.0
H13 H 0.25778 0.48664 0.02448 0.0
H14 H 0.26757 0.54008 0.03041 0.0
H15 H 0.22669 0.49708 0.055 0.0
C16 C 0.35975 0.44012 0.97313 0.0
N17 N 0.3276 0.42288 0.99638 0.0
N18 N 0.32792 0.45383 0.01427 0.0
C19 C 0.35905 0.4913 0.0023 0.0
C20 C 0.38033 0.48386 0.97602 0.0
C21 C 0.37426 0.4158 0.95151 0.0
H22 H 0.36471 0.38466 0.96346 0.0
H23 H 0.36018 0.41134 0.92526 0.0
H24 H 0.40919 0.43377 0.94846 0.0
O25 O 0.30271 0.35327 0.05629 0.0
O26 O 0.30496 0.40616 0.08664 0.0
H27 H 0.38013 0.53784 0.04262 0.0
H28 H 0.39177 0.56 0.99936 0.0
C29 C 0.36817 0.53361 0.01558 0.0
H30 H 0.33874 0.53521 0.0153 0.0
H31 H 0.35106 0.49359 0.11248 0.0
O32 O 0.28786 0.3242 0.97528 0.0
C33 C 0.30761 0.37274 0.08499 0.0
Co34 Co 0.93143 0.27594 0.17886 0.0
Co35 Co 0.84824 0.26142 0.21474 0.0
C36 C 0.85726 0.18869 0.19112 0.0
O37 O 0.89545 0.21214 0.18097 0.0
O38 O 0.83574 0.20426 0.20351 0.0
C39 C 0.98924 0.27744 0.12378 0.0
O40 O 0.95894 0.24068 0.11255 0.0
C41 C 0.75872 0.23317 0.22775 0.0
C42 C 0.76454 0.2837 0.26295 0.0
C43 C 0.73531 0.24756 0.24556 0.0
N44 N 0.79992 0.26027 0.23378 0.0
N45 N 0.80316 0.28996 0.25526 0.0
C46 C 0.74269 0.19384 0.20632 0.0
H47 H 0.75801 0.17576 0.21503 0.0
H48 H 0.75133 0.20263 0.17868 0.0
H49 H 0.70797 0.17303 0.20877 0.0
C50 C 0.91143 0.3305 0.13365 0.0
N51 N 0.90207 0.30266 0.15996 0.0
N52 N 0.86696 0.29619 0.17497 0.0
C53 C 0.85238 0.3189 0.15836 0.0
C54 C 0.88021 0.34168 0.13174 0.0
C55 C 0.95156 0.34912 0.11308 0.0
H56 H 0.97876 0.35987 0.13107 0.0
H57 H 0.95086 0.32447 0.09579 0.0
H58 H 0.9562 0.37644 0.09711 0.0
O59 O 0.95103 0.29682 0.22701 0.0
O60 O 0.89086 0.28356 0.25201 0.0
H61 H 0.81533 0.33383 0.1923 0.0
H62 H 0.80255 0.33309 0.14679 0.0
C63 C 0.8118 0.31765 0.1671 0.0
H64 H 0.78614 0.28434 0.16965 0.0
H65 H 0.83184 0.31515 0.26392 0.0
O66 O 0.98315 0.29423 0.1505 0.0
C67 C 0.93029 0.29669 0.2537 0.0
Co68 Co 0.66131 0.9276 0.32836 0.0
Co69 Co 0.59092 0.85492 0.3738 0.0
C70 C 0.66477 0.84918 0.34892 0.0
O71 O 0.68125 0.8854 0.33436 0.0
O72 O 0.62909 0.83333 0.36393 0.0
C73 C 0.69873 0.96374 0.26124 0.0
O74 O 0.66941 0.92747 0.24839 0.0
C75 C 0.52165 0.77014 0.38984 0.0
C76 C 0.48932 0.78187 0.43331 0.0
C77 C 0.48682 0.75037 0.41166 0.0
N78 N 0.54317 0.81152 0.39773 0.0
N79 N 0.52416 0.81825 0.42415 0.0
C80 C 0.53532 0.75038 0.36243 0.0
H81 H 0.56512 0.75208 0.37103 0.0
H82 H 0.54221 0.76865 0.33787 0.0
H83 H 0.5116 0.71668 0.3579 0.0
C84 C 0.58327 0.91886 0.29412 0.0
N85 N 0.60293 0.90419 0.3151 0.0
N86 N 0.57395 0.87193 0.33307 0.0
C87 C 0.53523 0.86399 0.32308 0.0
C88 C 0.53973 0.8938 0.29848 0.0
C89 C 0.60537 0.96017 0.27511 0.0
H90 H 0.63591 0.98204 0.2878 0.0
H91 H 0.61133 0.95435 0.24798 0.0
H92 H 0.58543 0.97524 0.27422 0.0
O93 O 0.6684 0.95653 0.37342 0.0
O94 O 0.61966 0.90408 0.40572 0.0
H95 H 0.4908 0.83696 0.36484 0.0
H96 H 0.46681 0.82437 0.32216 0.0
C97 C 0.49453 0.82927 0.33766 0.0
H98 H 0.49506 0.79926 0.33744 0.0
H99 H 0.53422 0.8479 0.4352 0.0
O100 O 0.70019 0.97022 0.29384 0.0
C101 C 0.64925 0.94238 0.40229 0.0
Co102 Co 0.72727 0.64016 0.49087 0.0
Co103 Co 0.71806 0.57094 0.54442 0.0
C104 C 0.80333 0.64394 0.52268 0.0
O105 O 0.7887 0.66064 0.50162 0.0
O106 O 0.77877 0.61015 0.53915 0.0
C107 C 0.74443 0.70868 0.43947 0.0
O108 O 0.78362 0.73057 0.45065 0.0
C109 C 0.72489 0.49756 0.56533 0.0
C110 C 0.68398 0.47532 0.61191 0.0
C111 C 0.70811 0.46561 0.59009 0.0
N112 N 0.71049 0.5243 0.57179 0.0
N113 N 0.68654 0.5112 0.59994 0.0
C114 C 0.75521 0.50363 0.53668 0.0
H115 H 0.7758 0.53776 0.53093 0.0
H116 H 0.73745 0.4881 0.51265 0.0
H117 H 0.77498 0.4895 0.54381 0.0
C118 C 0.67493 0.56162 0.44891 0.0
N119 N 0.6968 0.5815 0.47788 0.0
N120 N 0.69108 0.55273 0.50124 0.0
C121 C 0.66455 0.51394 0.48842 0.0
C122 C 0.65409 0.51819 0.45464 0.0
C123 C 0.67349 0.58379 0.41667 0.0
H124 H 0.65191 0.59651 0.42103 0.0
H125 H 0.70549 0.61069 0.41084 0.0
H126 H 0.66183 0.56189 0.39413 0.0
O127 O 0.70134 0.6504 0.53338 0.0
O128 O 0.69479 0.60039 0.57001 0.0
H129 H 0.64101 0.48103 0.53699 0.0
H130 H 0.61247 0.45123 0.49931 0.0
C131 C 0.64433 0.47404 0.50955 0.0
H132 H 0.66396 0.45876 0.50829 0.0
H133 H 0.67101 0.52612 0.61041 0.0
O134 O 0.71949 0.67275 0.45286 0.0
C135 C 0.69055 0.63207 0.56292 0.0
Co136 Co 0.07636 0.72882 0.68101 0.0
Co137 Co 0.15784 0.74124 0.72054 0.0
C138 C 0.14907 0.81507 0.69805 0.0
O139 O 0.11188 0.79144 0.68606 0.0
O140 O 0.17091 0.79986 0.71078 0.0
C141 C 0.02048 0.7322 0.62567 0.0
O142 O 0.05036 0.77052 0.61718 0.0
C143 C 0.24671 0.76155 0.73371 0.0
C144 C 0.23681 0.72104 0.77955 0.0
C145 C 0.26768 0.74919 0.75704 0.0
N146 N 0.20524 0.74106 0.74192 0.0
N147 N 0.19977 0.71722 0.76952 0.0
C148 C 0.26591 0.79361 0.70519 0.0
H149 H 0.24506 0.80657 0.6984 0.0
H150 H 0.27001 0.77854 0.68165 0.0
H151 H 0.29758 0.81961 0.71314 0.0
C152 C 0.09625 0.67412 0.63778 0.0
N153 N 0.10645 0.70274 0.66343 0.0
N154 N 0.1398 0.70686 0.68015 0.0
C155 C 0.15176 0.68078 0.66571 0.0
C156 C 0.1246 0.65928 0.63832 0.0
C157 C 0.05688 0.65738 0.61629 0.0
H158 H 0.02913 0.64598 0.63376 0.0
H159 H 0.05858 0.68329 0.59999 0.0
H160 H 0.05216 0.63085 0.59931 0.0
O161 O 0.05402 0.70569 0.72773 0.0
O162 O 0.11213 0.71755 0.75588 0.0
H163 H 0.18218 0.66546 0.70615 0.0
H164 H 0.19202 0.65269 0.66291 0.0
C165 C 0.18772 0.67574 0.67857 0.0
H166 H 0.21729 0.70661 0.67714 0.0
H167 H 0.17054 0.69785 0.7813 0.0
O168 O 0.02632 0.7129 0.65077 0.0
C169 C 0.07256 0.70435 0.75538 0.0
Co170 Co 0.32782 0.07689 0.83447 0.0
Co171 Co 0.40326 0.1435 0.87968 0.0
C172 C 0.33412 0.1588 0.86095 0.0
O173 O 0.31411 0.12274 0.84609 0.0
O174 O 0.37078 0.17244 0.87376 0.0
C175 C 0.28668 0.04622 0.76699 0.0
O176 O 0.31562 0.08306 0.75469 0.0
C177 C 0.48018 0.21997 0.90356 0.0
C178 C 0.50753 0.19154 0.9383 0.0
C179 C 0.51524 0.22964 0.92405 0.0
N180 N 0.45346 0.17801 0.90531 0.0
N181 N 0.46955 0.16138 0.92673 0.0
C182 C 0.47416 0.24897 0.87964 0.0
H183 H 0.45005 0.23062 0.85955 0.0
H184 H 0.50449 0.27154 0.86689 0.0
H185 H 0.46319 0.26741 0.89496 0.0
C186 C 0.4012 0.08418 0.79327 0.0
N187 N 0.38474 0.09709 0.81875 0.0
N188 N 0.41611 0.12721 0.83663 0.0
C189 C 0.45322 0.1358 0.82207 0.0
C190 C 0.44502 0.10871 0.79416 0.0
C191 C 0.37646 0.04489 0.77217 0.0
H192 H 0.34647 0.0226 0.78538 0.0
H193 H 0.36968 0.05366 0.74639 0.0
H194 H 0.39518 0.02891 0.76784 0.0
O195 O 0.31893 0.04348 0.87718 0.0
O196 O 0.37014 0.09311 0.90948 0.0
H197 H 0.50336 0.15975 0.85944 0.0
H198 H 0.52099 0.17635 0.81533 0.0
C199 C 0.4957 0.16963 0.83446 0.0
H200 H 0.49495 0.19919 0.8387 0.0
H201 H 0.45544 0.12911 0.93221 0.0
O202 O 0.28632 0.03835 0.79927 0.0
C203 C 0.33872 0.0559 0.90591 0.0
Co204 Co 0.66231 0.7463 0.8114 0.0
Co205 Co 0.58862 0.74863 0.76992 0.0
C206 C 0.66674 0.82792 0.78967 0.0
O207 O 0.6831 0.80767 0.80338 0.0
O208 O 0.62982 0.80902 0.77661 0.0
C209 C 0.70833 0.7485 0.87496 0.0
O210 O 0.68277 0.75778 0.89186 0.0
C211 C 0.51693 0.76327 0.75426 0.0
C212 C 0.48539 0.71733 0.71176 0.0
C213 C 0.48243 0.74727 0.73178 0.0
N214 N 0.53874 0.7431 0.74808 0.0
N215 N 0.51982 0.71599 0.72242 0.0
C216 C 0.52967 0.79794 0.78042 0.0
H217 H 0.56433 0.81495 0.78449 0.0
H218 H 0.51431 0.78414 0.80569 0.0
H219 H 0.51956 0.82061 0.77186 0.0
C220 C 0.58812 0.68212 0.85153 0.0
N221 N 0.60577 0.71446 0.82857 0.0
N222 N 0.57537 0.71701 0.81216 0.0
C223 C 0.53767 0.68756 0.82518 0.0
C224 C 0.54444 0.66425 0.85036 0.0
C225 C 0.61151 0.66313 0.86891 0.0
H226 H 0.63957 0.66923 0.8534 0.0
H227 H 0.62184 0.67723 0.89511 0.0
H228 H 0.59088 0.62842 0.87216 0.0
O229 O 0.66335 0.72127 0.76656 0.0
O230 O 0.61326 0.72504 0.73632 0.0
H231 H 0.48945 0.6662 0.78623 0.0
H232 H 0.4697 0.65978 0.83028 0.0
C233 C 0.49586 0.68058 0.81252 0.0
H234 H 0.49686 0.71129 0.81079 0.0
H235 H 0.53021 0.6962 0.71238 0.0
O236 O 0.70427 0.74247 0.84227 0.0
C237 C 0.64216 0.71522 0.73871 0.0
Co238 Co 0.9015 0.63935 0.98734 0.0
Co239 Co 0.82473 0.56621 0.94773 0.0
C240 C 0.8237 0.64417 0.97026 0.0
O241 O 0.86118 0.66152 0.98267 0.0
O242 O 0.80577 0.60723 0.95707 0.0
C243 C 0.95808 0.7003 0.04229 0.0
O244 O 0.92794 0.70712 0.0533 0.0
C245 C 0.73928 0.49431 0.93542 0.0
C246 C 0.75251 0.46053 0.89403 0.0
C247 C 0.72063 0.45795 0.91523 0.0
N248 N 0.78041 0.51693 0.92677 0.0
N249 N 0.78789 0.497 0.90155 0.0
C250 C 0.71979 0.50528 0.9649 0.0
H251 H 0.74468 0.52888 0.9823 0.0
H252 H 0.69809 0.47646 0.9799 0.0
H253 H 0.70106 0.5191 0.95427 0.0
C254 C 0.8864 0.56687 0.0326 0.0
N255 N 0.87556 0.58325 0.00566 0.0
N256 N 0.84404 0.55223 0.98864 0.0
C257 C 0.83399 0.51512 0.00409 0.0
C258 C 0.86046 0.52321 0.03249 0.0
C259 C 0.92384 0.59214 0.0556 0.0
H260 H 0.95258 0.60915 0.03929 0.0
H261 H 0.9193 0.61589 0.06999 0.0
H262 H 0.92882 0.57202 0.07443 0.0
O263 O 0.92541 0.64089 0.94062 0.0
O264 O 0.86998 0.59067 0.91253 0.0
H265 H 0.80582 0.46813 0.96427 0.0
H266 H 0.79789 0.4465 0.00776 0.0
C267 C 0.79991 0.47273 0.99176 0.0
H268 H 0.76904 0.47151 0.99326 0.0
H269 H 0.8176 0.50745 0.89049 0.0
O270 O 0.95138 0.67577 0.01664 0.0
C271 C 0.90854 0.61981 0.91308 0.0
Co272 Co 0.25646 0.91269 0.16005 0.0
Co273 Co 0.26558 0.84742 0.11347 0.0
C274 C 0.18094 0.83094 0.13619 0.0
O275 O 0.19651 0.86566 0.15294 0.0
O276 O 0.20477 0.82004 0.12083 0.0
C277 C 0.24654 0.94654 0.22625 0.0
O278 O 0.2425 0.91231 0.24117 0.0
C279 C 0.2596 0.76717 0.0947 0.0
C280 C 0.31048 0.78713 0.05564 0.0
C281 C 0.28046 0.7523 0.07403 0.0
N282 N 0.27682 0.80891 0.08903 0.0
N283 N 0.30655 0.8205 0.06509 0.0
C284 C 0.22787 0.7436 0.12267 0.0
H285 H 0.22834 0.76586 0.14253 0.0
H286 H 0.23436 0.72005 0.13528 0.0
H287 H 0.19582 0.72648 0.11091 0.0
C288 C 0.32842 0.91095 0.19691 0.0
N289 N 0.29569 0.8949 0.17418 0.0
N290 N 0.29728 0.86557 0.15537 0.0
C291 C 0.3298 0.86094 0.16636 0.0
C292 C 0.35111 0.88993 0.19259 0.0
C293 C 0.34187 0.94995 0.2182 0.0
H294 H 0.3322 0.97101 0.20537 0.0
H295 H 0.32659 0.94069 0.24411 0.0
H296 H 0.37667 0.96742 0.22215 0.0
O297 O 0.27673 0.94373 0.11541 0.0
O298 O 0.28169 0.8963 0.08249 0.0
H299 H 0.35485 0.84101 0.12489 0.0
H300 H 0.36455 0.82703 0.16762 0.0
C301 C 0.34131 0.83025 0.1512 0.0
H302 H 0.31265 0.79869 0.14917 0.0
H303 H 0.32544 0.85155 0.05639 0.0
O304 O 0.25344 0.95219 0.19375 0.0
C305 C 0.2849 0.93244 0.08644 0.0
Co306 Co 0.33946 0.24726 0.32278 0.0
Co307 Co 0.40731 0.23621 0.28203 0.0
C308 C 0.33191 0.16279 0.31552 0.0
O309 O 0.31561 0.18458 0.32606 0.0
O310 O 0.36679 0.17954 0.29916 0.0
C311 C 0.27848 0.24592 0.37478 0.0
O312 O 0.26439 0.2055 0.38028 0.0
C313 C 0.4785 0.22167 0.27808 0.0
C314 C 0.50193 0.24309 0.22471 0.0
C315 C 0.51026 0.22783 0.25496 0.0
N316 N 0.45326 0.23355 0.26236 0.0
N317 N 0.46702 0.24581 0.23034 0.0
C318 C 0.4711 0.2037 0.31411 0.0
H319 H 0.43692 0.18718 0.32045 0.0
H320 H 0.48759 0.22973 0.33313 0.0
H321 H 0.48325 0.18137 0.31679 0.0
C322 C 0.41717 0.31167 0.35922 0.0
N323 N 0.3975 0.27934 0.33659 0.0
N324 N 0.42626 0.2772 0.31752 0.0
C325 C 0.46497 0.30896 0.32648 0.0
C326 C 0.46053 0.33179 0.35337 0.0
C327 C 0.39482 0.32371 0.38543 0.0
H328 H 0.36764 0.29489 0.39654 0.0
H329 H 0.41639 0.34263 0.40685 0.0
H330 H 0.38293 0.34284 0.37239 0.0
O331 O 0.33431 0.26256 0.27361 0.0
O332 O 0.38084 0.25157 0.24496 0.0
H333 H 0.52761 0.35557 0.30895 0.0
H334 H 0.51949 0.3033 0.31591 0.0
C335 C 0.50451 0.32131 0.30618 0.0
H336 H 0.49696 0.3141 0.27825 0.0
H337 H 0.45316 0.25695 0.21263 0.0
O338 O 0.30714 0.26581 0.35216 0.0
C339 C 0.35242 0.26197 0.24539 0.0
Co340 Co 0.08245 0.35068 0.49505 0.0
Co341 Co 0.16136 0.427 0.45885 0.0
C342 C 0.15941 0.34572 0.47509 0.0
O343 O 0.12248 0.32824 0.48854 0.0
O344 O 0.17726 0.38362 0.46396 0.0
C345 C 0.02728 0.27766 0.53955 0.0
O346 O 0.05415 0.26415 0.53453 0.0
C347 C 0.24909 0.49777 0.44876 0.0
C348 C 0.23834 0.53537 0.40918 0.0
C349 C 0.26946 0.53493 0.42951 0.0
N350 N 0.20764 0.4777 0.44062 0.0
N351 N 0.20163 0.50015 0.41666 0.0
C352 C 0.26875 0.48111 0.47378 0.0
H353 H 0.2503 0.44613 0.47485 0.0
H354 H 0.26899 0.49328 0.50022 0.0
H355 H 0.3019 0.49159 0.46619 0.0
C356 C 0.09673 0.4206 0.54312 0.0
N357 N 0.10861 0.40554 0.51595 0.0
N358 N 0.14167 0.4372 0.50091 0.0
C359 C 0.15211 0.47327 0.51807 0.0
C360 C 0.12386 0.46409 0.54527 0.0
C361 C 0.05719 0.39461 0.56369 0.0
H362 H 0.02988 0.37906 0.54564 0.0
H363 H 0.05973 0.36944 0.57781 0.0
H364 H 0.05123 0.41398 0.58256 0.0
O365 O 0.06008 0.35273 0.44798 0.0
O366 O 0.1167 0.40617 0.42335 0.0
H367 H 0.18189 0.52488 0.48218 0.0
H368 H 0.19315 0.54065 0.52732 0.0
C369 C 0.18806 0.51588 0.50817 0.0
H370 H 0.21749 0.51435 0.50676 0.0
H371 H 0.17223 0.49178 0.40584 0.0
O372 O 0.03364 0.31164 0.5249 0.0
C373 C 0.0783 0.37664 0.42188 0.0
Co374 Co 0.72916 0.08772 0.65466 0.0
Co375 Co 0.71505 0.15117 0.60927 0.0
C376 C 0.80177 0.17112 0.62906 0.0
O377 O 0.78811 0.13596 0.645 0.0
O378 O 0.77653 0.18132 0.61515 0.0
C379 C 0.74222 0.05682 0.72098 0.0
O380 O 0.7497 0.09323 0.73392 0.0
C381 C 0.71762 0.22935 0.58817 0.0
C382 C 0.66235 0.20608 0.55316 0.0
C383 C 0.6946 0.24242 0.5682 0.0
N384 N 0.69937 0.18712 0.58557 0.0
N385 N 0.66663 0.1734 0.56431 0.0
C386 C 0.75752 0.25624 0.60809 0.0
H387 H 0.78382 0.25494 0.59486 0.0
H388 H 0.75468 0.24323 0.63468 0.0
H389 H 0.76574 0.28982 0.6094 0.0
C390 C 0.6614 0.09131 0.69672 0.0
N391 N 0.69012 0.1049 0.67067 0.0
N392 N 0.68659 0.13362 0.65255 0.0
C393 C 0.65725 0.14071 0.66744 0.0
C394 C 0.64007 0.11393 0.69583 0.0
C395 C 0.64973 0.05323 0.71877 0.0
H396 H 0.6577 0.03124 0.70542 0.0
H397 H 0.66703 0.06359 0.74375 0.0
H398 H 0.61535 0.03625 0.72473 0.0
O399 O 0.70694 0.0555 0.611 0.0
O400 O 0.69928 0.10178 0.57861 0.0
H401 H 0.62798 0.16206 0.63067 0.0
H402 H 0.62809 0.17943 0.67469 0.0
C403 C 0.64654 0.17316 0.65509 0.0
H404 H 0.67603 0.20326 0.64979 0.0
H405 H 0.64675 0.14163 0.55794 0.0
O406 O 0.73358 0.04914 0.68884 0.0
C407 C 0.69714 0.06606 0.58239 0.0
H408 H 0.36003 0.2413 0.8483 0.0
H409 H 0.26035 0.1283 0.89573 0.0
H410 H 0.23371 0.16991 0.92497 0.0
H411 H 0.24463 0.23994 0.94257 0.0
H412 H 0.33926 0.35175 0.88998 0.0
H413 H 0.36208 0.30941 0.8571 0.0
C414 C 0.33168 0.22578 0.86415 0.0
C415 C 0.31205 0.18198 0.86991 0.0
C416 C 0.31621 0.24982 0.88043 0.0
C417 C 0.27553 0.16199 0.89063 0.0
C418 C 0.26063 0.18582 0.90766 0.0
C419 C 0.26973 0.25475 0.92345 0.0
C420 C 0.29095 0.29888 0.91918 0.0
C421 C 0.28159 0.22995 0.90365 0.0
C422 C 0.32291 0.31787 0.894 0.0
C423 C 0.33594 0.29367 0.87517 0.0
H424 H 0.16781 0.40461 0.06203 0.0
H425 H 0.14894 0.29191 0.00957 0.0
H426 H 0.0767 0.2526 0.0326 0.0
H427 H 0.02213 0.24853 0.07362 0.0
H428 H 0.04671 0.361 0.12992 0.0
H429 H 0.11358 0.40171 0.09981 0.0
C430 C 0.14787 0.37158 0.05506 0.0
C431 C 0.16413 0.35123 0.03435 0.0
C432 C 0.1075 0.34879 0.06978 0.0
C433 C 0.13738 0.30847 0.02547 0.0
C434 C 0.09618 0.28584 0.03896 0.0
C435 C 0.04206 0.28198 0.07908 0.0
C436 C 0.02939 0.3015 0.10422 0.0
C437 C 0.08145 0.30532 0.06219 0.0
C438 C 0.05561 0.34493 0.11098 0.0
C439 C 0.09393 0.36841 0.09365 0.0
H440 H 0.77986 0.12793 0.17041 0.0
H441 H 0.89245 0.14753 0.22313 0.0
H442 H 0.85325 0.07648 0.24841 0.0
H443 H 0.78396 0.01408 0.2631 0.0
H444 H 0.67246 0.99287 0.2075 0.0
H445 H 0.71401 0.05923 0.17561 0.0
C446 C 0.7961 0.11585 0.18629 0.0
C447 C 0.83883 0.14266 0.19498 0.0
C448 C 0.77327 0.0752 0.20086 0.0
C449 C 0.85968 0.1271 0.21576 0.0
C450 C 0.83709 0.08676 0.23065 0.0
C451 C 0.76913 0.02371 0.24343 0.0
C452 C 0.72527 -0.00069 0.23794 0.0
C453 C 0.79345 0.06137 0.22463 0.0
C454 C 0.7062 0.01146 0.21219 0.0
C455 C 0.72992 0.04937 0.19402 0.0
H456 H 0.78383 0.7887 0.41145 0.0
H457 H 0.66575 0.66996 0.41072 0.0
H458 H 0.63277 0.70179 0.37676 0.0
H459 H 0.63431 0.76516 0.35446 0.0
H460 H 0.7506 0.88492 0.35627 0.0
H461 H 0.78768 0.85072 0.38142 0.0
C462 C 0.7511 0.76963 0.40338 0.0
C463 C 0.72718 0.72714 0.41432 0.0
C464 C 0.73191 0.78835 0.38399 0.0
C465 C 0.68489 0.70284 0.40322 0.0
C466 C 0.66588 0.72101 0.38372 0.0
C467 C 0.66797 0.78361 0.35971 0.0
C468 C 0.68951 0.82753 0.35403 0.0
C469 C 0.68863 0.76401 0.37504 0.0
C470 C 0.73329 0.85099 0.36033 0.0
C471 C 0.75438 0.83151 0.37513 0.0
H472 H 0.9897 0.76483 0.5765 0.0
H473 H 0.96165 0.64876 0.62886 0.0
H474 H 0.89528 0.61081 0.59757 0.0
H475 H 0.84297 0.61078 0.55904 0.0
H476 H 0.86597 0.7262 0.50877 0.0
H477 H 0.93696 0.76381 0.53471 0.0
C478 C 0.96912 0.73121 0.58088 0.0
C479 C 0.98069 0.70987 0.60529 0.0
C480 C 0.93016 0.70934 0.56306 0.0
C481 C 0.95363 0.66623 0.61056 0.0
C482 C 0.91558 0.64433 0.59256 0.0
C483 C 0.8635 0.64413 0.55335 0.0
C484 C 0.84887 0.66569 0.53222 0.0
C485 C 0.90326 0.66566 0.56926 0.0
C486 C 0.87636 0.70876 0.52489 0.0
C487 C 0.91681 0.73035 0.54001 0.0
H488 H 0.22104 0.88421 0.67524 0.0
H489 H 0.11 0.84506 0.73828 0.0
H490 H 0.14132 0.9158 0.76369 0.0
H491 H 0.20484 0.98515 0.77417 0.0
H492 H 0.31284 0.02737 0.70675 0.0
H493 H 0.27815 0.95943 0.67637 0.0
C494 C 0.20332 0.89178 0.69366 0.0
C495 C 0.1635 0.85981 0.70508 0.0
C496 C 0.22122 0.93276 0.70769 0.0
C497 C 0.14061 0.86954 0.729 0.0
C498 C 0.15864 0.9098 0.74375 0.0
C499 C 0.22021 0.97977 0.75221 0.0
C500 C 0.26165 0.01056 0.74326 0.0
C501 C 0.19957 0.94115 0.73423 0.0
C502 C 0.28115 0.00377 0.71445 0.0
C503 C 0.26137 0.96489 0.69713 0.0
H504 H 0.84801 0.70774 0.92507 0.0
H505 H 0.7514 0.63365 1.00004 0.0
H506 H 0.70895 0.66471 0.97994 0.0
H507 H 0.69563 0.706 0.93578 0.0
H508 H 0.78829 0.77146 0.85558 0.0
H509 H 0.8362 0.75118 0.88276 0.0
C510 C 0.81828 0.69958 0.93767 0.0
C511 C 0.80313 0.66947 0.9645 0.0
C512 C 0.79311 0.71554 0.9245 0.0
C513 C 0.76389 0.6576 0.97986 0.0
C514 C 0.73953 0.675 0.96811 0.0
C515 C 0.72669 0.71645 0.92478 0.0
C516 C 0.73868 0.74031 0.89389 0.0
C517 C 0.75323 0.703 0.93969 0.0
C518 C 0.77853 0.75303 0.87935 0.0
C519 C 0.80586 0.74144 0.89486 0.0
H520 H 0.14018 0.7583 0.0996 0.0
H521 H 0.11799 0.8478 0.15565 0.0
H522 H 0.04537 0.81346 0.13323 0.0
H523 H 0.99065 0.76218 0.09261 0.0
H524 H 0.01808 0.67798 0.0336 0.0
H525 H 0.08616 0.7065 0.062 0.0
C526 C 0.11947 0.77018 0.10742 0.0
C527 C 0.13481 0.80589 0.12907 0.0
C528 C 0.07871 0.75159 0.09333 0.0
C529 C 0.10712 0.82037 0.139 0.0
C530 C 0.06568 0.80097 0.12591 0.0
C531 C 0.01149 0.75 0.08616 0.0
C532 C -0.00088 0.71806 0.06081 0.0
C533 C 0.05154 0.76731 0.10217 0.0
C534 C 0.02658 0.70263 0.05279 0.0
C535 C 0.06565 0.71885 0.0691 0.0
H536 H 0.26195 0.11543 0.27869 0.0
H537 H 0.35042 0.10812 0.34834 0.0
H538 H 0.325 0.03474 0.33071 0.0
H539 H 0.28779 0.97852 0.28705 0.0
H540 H 0.2084 0.99178 0.21099 0.0
H541 H 0.21949 0.0565 0.23931 0.0
C542 C 0.27416 0.09695 0.29107 0.0
C543 C 0.30719 0.11643 0.31524 0.0
C544 C 0.26169 0.05616 0.2788 0.0
C545 C 0.32422 0.09312 0.33024 0.0
C546 C 0.31014 0.05148 0.31975 0.0
C547 C 0.27209 0.99509 0.2774 0.0
C548 C 0.24741 0.98075 0.24709 0.0
C549 C 0.28042 0.03346 0.29278 0.0
C550 C 0.22771 0.00261 0.23426 0.0
C551 C 0.23406 0.03955 0.25041 0.0
H552 H 0.23661 0.37475 0.44679 0.0
H553 H 0.12788 0.25973 0.483 0.0
H554 H 0.15678 0.21809 0.45707 0.0
H555 H 0.2096 0.21453 0.41841 0.0
H556 H 0.31318 0.33111 0.37827 0.0
H557 H 0.28925 0.37172 0.41113 0.0
C558 C 0.21923 0.34057 0.44953 0.0
C559 C 0.17986 0.32046 0.46656 0.0
C560 C 0.23487 0.31697 0.43326 0.0
C561 C 0.15827 0.27613 0.47002 0.0
C562 C 0.17459 0.25228 0.45489 0.0
C563 C 0.227 0.24881 0.41707 0.0
C564 C 0.26322 0.26962 0.39581 0.0
C565 C 0.21226 0.27234 0.43544 0.0
C566 C 0.28532 0.31409 0.39433 0.0
C567 C 0.27167 0.3375 0.41318 0.0
H568 H 0.86073 0.14711 0.6188 0.0
H569 H 0.84479 0.2565 0.62162 0.0
H570 H 0.91453 0.29981 0.5957 0.0
H571 H 0.97617 0.30474 0.5663 0.0
H572 H 0.99296 0.19585 0.56256 0.0
H573 H 0.92694 0.15428 0.59485 0.0
C574 C 0.87308 0.18068 0.61463 0.0
C575 C 0.84745 0.1985 0.62178 0.0
C576 C 0.913 0.2053 0.59893 0.0
C577 C 0.86369 0.24196 0.61592 0.0
C578 C 0.90351 0.26672 0.60099 0.0
C579 C 0.96563 0.272 0.57272 0.0
C580 C 0.98918 0.25329 0.56152 0.0
C581 C 0.92775 0.24837 0.59126 0.0
C582 C 0.97529 0.21099 0.57061 0.0
C583 C 0.93751 0.18718 0.58909 0.0
H584 H 0.65841 0.89362 0.81309 0.0
H585 H 0.73361 0.86197 0.7468 0.0
H586 H 0.76745 0.93273 0.721 0.0
H587 H 0.76778 -0.00029 0.71178 0.0
H588 H 0.69807 0.03447 0.78173 0.0
H589 H 0.67033 0.96678 0.81213 0.0
C590 C 0.68319 0.90289 0.7938 0.0
C591 C 0.69368 0.87304 0.78169 0.0
C592 C 0.70298 0.94387 0.77951 0.0
C593 C 0.72554 0.88487 0.75661 0.0
C594 C 0.74457 0.92512 0.74167 0.0
C595 C 0.74736 0.99278 0.73424 0.0
C596 C 0.7342 0.02139 0.74412 0.0
C597 C 0.73244 0.95433 0.75208 0.0
C598 C 0.70825 0.01261 0.77348 0.0
C599 C 0.69225 0.97386 0.79078 0.0
H600 H 0.34598 0.7386 0.07943 0.0
H601 H 0.20983 0.67373 0.07398 0.0
H602 H 0.20687 0.60536 0.07993 0.0
H603 H 0.24353 0.5644 0.08732 0.0
H604 H 0.37977 0.63041 0.09425 0.0
H605 H 0.38227 0.69815 0.08768 0.0
C606 C 0.31571 0.70941 0.07926 0.0
C607 C 0.27819 0.7109 0.07622 0.0
C608 C 0.31434 0.67059 0.08327 0.0
C609 C 0.23908 0.67312 0.07653 0.0
C610 C 0.23742 0.63415 0.07989 0.0
C611 C 0.27369 0.59363 0.08709 0.0
C612 C 0.31142 0.5925 0.09083 0.0
C613 C 0.27489 0.63252 0.0834 0.0
C614 C 0.3503 0.63058 0.09147 0.0
C615 C 0.35179 0.66928 0.08751 0.0
H616 H 0.68544 0.24725 0.29703 0.0
H617 H 0.6845 0.21913 0.18803 0.0
H618 H 0.61187 0.20455 0.1829 0.0
H619 H 0.55167 0.20753 0.20785 0.0
H620 H 0.55655 0.24443 0.31509 0.0
H621 H 0.62404 0.24732 0.32258 0.0
C622 C 0.66896 0.23719 0.27233 0.0
C623 C 0.6898 0.23312 0.24324 0.0
C624 C 0.62789 0.23064 0.26923 0.0
C625 C 0.66856 0.22076 0.21119 0.0
C626 C 0.62723 0.2131 0.20809 0.0
C627 C 0.56727 0.21558 0.23299 0.0
C628 C 0.54853 0.22471 0.26103 0.0
C629 C 0.607 0.21894 0.23675 0.0
C630 C 0.56922 0.23554 0.29338 0.0
C631 C 0.6083 0.23791 0.29757 0.0
H632 H 0.44593 0.695 0.46382 0.0
H633 H 0.44328 0.71145 0.35301 0.0
H634 H 0.37764 0.64372 0.34846 0.0
H635 H 0.31811 0.58271 0.37657 0.0
H636 H 0.31867 0.56752 0.48773 0.0
H637 H 0.38809 0.63126 0.4916 0.0
C638 C 0.43118 0.68325 0.43869 0.0
C639 C 0.44977 0.7075 0.40871 0.0
C640 C 0.39305 0.64455 0.43636 0.0
C641 C 0.43024 0.69257 0.37628 0.0
C642 C 0.39246 0.6541 0.37372 0.0
C643 C 0.33378 0.59308 0.40155 0.0
C644 C 0.31362 0.57009 0.4317 0.0
C645 C 0.37327 0.63019 0.40364 0.0
C646 C 0.33402 0.58389 0.46398 0.0
C647 C 0.37351 0.62072 0.46628 0.0
H648 H 0.70366 0.41588 0.53586 0.0
H649 H 0.71369 0.42565 0.64758 0.0
H650 H 0.71123 0.35746 0.65072 0.0
H651 H 0.70361 0.29413 0.62174 0.0
H652 H 0.69315 0.28404 0.51014 0.0
H653 H 0.69833 0.35359 0.50672 0.0
C654 C 0.70659 0.40372 0.56079 0.0
C655 C 0.70999 0.42619 0.59141 0.0
C656 C 0.7047 0.36441 0.56236 0.0
C657 C 0.71155 0.40901 0.62368 0.0
C658 C 0.71007 0.37008 0.62547 0.0
C659 C 0.70356 0.30773 0.59665 0.0
C660 C 0.69929 0.28486 0.56613 0.0
C661 C 0.70642 0.34744 0.595 0.0
C662 C 0.69704 0.3016 0.53387 0.0
C663 C 0.70003 0.34124 0.53194 0.0
H664 H 0.31668 0.75455 0.70158 0.0
H665 H 0.3173 0.76258 0.81342 0.0
H666 H 0.3863 0.76692 0.81553 0.0
H667 H 0.44237 0.7606 0.78602 0.0
H668 H 0.44087 0.75033 0.67431 0.0
H669 H 0.37631 0.75487 0.67163 0.0
C670 C 0.33255 0.75875 0.7263 0.0
C671 C 0.3122 0.75887 0.75727 0.0
C672 C 0.37181 0.76024 0.72735 0.0
C673 C 0.33249 0.7626 0.78922 0.0
C674 C 0.37186 0.76495 0.79045 0.0
C675 C 0.42884 0.76086 0.76102 0.0
C676 C 0.44682 0.75584 0.73037 0.0
C677 C 0.39135 0.76278 0.75974 0.0
C678 C 0.42768 0.75435 0.69827 0.0
C679 C 0.39076 0.75691 0.69672 0.0
H680 H 0.70371 0.37767 0.91632 0.0
H681 H 0.64373 0.45353 0.9229 0.0
H682 H 0.57417 0.38922 0.92753 0.0
H683 H 0.53062 0.31102 0.92811 0.0
H684 H 0.59234 0.23656 0.92196 0.0
H685 H 0.66121 0.30081 0.91926 0.0
C686 C 0.67536 0.38009 0.91871 0.0
C687 C 0.67858 0.42002 0.91918 0.0
C688 C 0.63592 0.34328 0.92153 0.0
C689 C 0.64187 0.42297 0.9228 0.0
C690 C 0.60218 0.38626 0.92527 0.0
C691 C 0.55917 0.30901 0.92595 0.0
C692 C 0.55645 0.26921 0.92469 0.0
C693 C 0.59882 0.3462 0.9244 0.0
C694 C 0.59368 0.26689 0.92297 0.0
C695 C 0.63305 0.30356 0.92124 0.0
H696 H 0.32467 0.31781 0.23702 0.0
H697 H 0.35848 0.23739 0.17989 0.0
H698 H 0.34684 0.26374 0.12494 0.0
H699 H 0.32921 0.31148 0.09309 0.0
H700 H 0.29959 0.39481 0.15088 0.0
H701 H 0.30772 0.36574 0.20536 0.0
C702 C 0.32898 0.30573 0.21252 0.0
C703 C 0.34213 0.27559 0.21246 0.0
C704 C 0.32344 0.32189 0.18107 0.0
C705 C 0.34833 0.26067 0.18056 0.0
C706 C 0.34177 0.27576 0.14914 0.0
C707 C 0.32454 0.32324 0.1176 0.0
C708 C 0.31391 0.35533 0.11778 0.0
C709 C 0.32977 0.30674 0.14906 0.0
C710 C 0.30811 0.37034 0.14985 0.0
C711 C 0.31255 0.35361 0.18112 0.0
H712 H 0.99339 0.32923 0.40947 0.0
H713 H 0.11354 0.40502 0.3581 0.0
H714 H 0.07861 0.38732 0.30169 0.0
H715 H 0.01429 0.34822 0.2665 0.0
H716 H 0.89369 0.27505 0.3177 0.0
H717 H 0.92839 0.29388 0.37435 0.0
C718 C 0.01186 0.34204 0.38594 0.0
C719 C 0.05601 0.36818 0.3881 0.0
C720 C 0.99154 0.33209 0.35342 0.0
C721 C 0.07946 0.38485 0.35732 0.0
C722 C 0.05956 0.37464 0.32494 0.0
C723 C 0.99564 0.33649 0.29006 0.0
C724 C 0.95158 0.31006 0.28785 0.0
C725 C 0.01569 0.34792 0.32264 0.0
C726 C 0.92772 0.29552 0.31865 0.0
C727 C 0.94752 0.30618 0.3511 0.0
H728 H 0.63718 0.92085 0.4706 0.0
H729 H 0.6877 0.02851 0.4015 0.0
H730 H 0.70535 0.07608 0.45119 0.0
H731 H 0.7066 0.08707 0.51419 0.0
H732 H 0.66036 0.98 0.58356 0.0
H733 H 0.64068 0.93209 0.53379 0.0
C734 C 0.65201 0.95473 0.46644 0.0
C735 C 0.66098 0.97114 0.43244 0.0
C736 C 0.66273 0.98192 0.49513 0.0
C737 C 0.68064 0.01512 0.42743 0.0
C738 C 0.6906 0.04232 0.45581 0.0
C739 C 0.69197 0.05321 0.51839 0.0
C740 C 0.6846 0.037 0.55243 0.0
C741 C 0.68174 0.02606 0.48974 0.0
C742 C 0.66631 0.99317 0.55755 0.0
C743 C 0.65506 0.96581 0.52914 0.0
H744 H 0.69257 0.6187 0.63144 0.0
H745 H 0.65798 0.68571 0.55793 0.0
H746 H 0.63773 0.71609 0.60609 0.0
H747 H 0.63199 0.72484 0.66953 0.0
H748 H 0.67199 0.66076 0.7415 0.0
H749 H 0.68792 0.62781 0.6933 0.0
C750 C 0.68022 0.63964 0.62576 0.0
C751 C 0.67644 0.64967 0.59113 0.0
C752 C 0.66982 0.65762 0.65335 0.0
C753 C 0.6611 0.67745 0.5844 0.0
C754 C 0.64956 0.6948 0.6119 0.0
C755 C 0.64399 0.70348 0.67452 0.0
C756 C 0.65083 0.69521 0.70898 0.0
C757 C 0.65408 0.68531 0.64654 0.0
C758 C 0.66677 0.66784 0.7152 0.0
C759 C 0.67577 0.6489 0.68769 0.0
H760 H 0.98719 0.65663 0.76244 0.0
H761 H 0.10312 0.71784 0.82176 0.0
H762 H 0.06272 0.69676 0.87585 0.0
H763 H 0.99433 0.6631 0.90634 0.0
H764 H 0.87864 0.59964 0.84684 0.0
H765 H 0.91913 0.61939 0.79288 0.0
C766 C 0.00363 0.66525 0.7872 0.0
C767 C 0.04806 0.68904 0.78803 0.0
C768 C 0.98026 0.65274 0.81821 0.0
C769 C 0.0689 0.69951 0.82035 0.0
C770 C 0.04584 0.6876 0.85132 0.0
C771 C 0.97801 0.65354 0.88156 0.0
C772 C 0.93355 0.63023 0.88064 0.0
C773 C 0.00149 0.66458 0.85057 0.0
C774 C 0.91286 0.61761 0.84832 0.0
C775 C 0.93597 0.62896 0.81741 0.0
H776 H 0.2732 0.91091 0.01841 0.0
H777 H 0.32431 0.01868 0.08719 0.0
H778 H 0.34606 0.06646 0.03713 0.0
H779 H 0.35083 0.07741 0.97396 0.0
H780 H 0.29577 0.9695 0.90525 0.0
H781 H 0.27507 0.92177 0.95528 0.0
C782 C 0.28923 0.94488 0.02241 0.0
C783 C 0.29751 0.96135 0.05636 0.0
C784 C 0.3008 0.972 0.9936 0.0
C785 C 0.31762 0.00533 0.06126 0.0
C786 C 0.33011 0.03261 0.03268 0.0
C787 C 0.33437 0.04343 0.96995 0.0
C788 C 0.32511 0.02694 0.93601 0.0
C789 C 0.32192 0.01627 0.99877 0.0
C790 C 0.30319 0.98289 0.93116 0.0
C791 C 0.29147 0.95563 0.95972 0.0
H792 H 0.38928 0.49474 0.90629 0.0
H793 H 0.45486 0.54459 0.00312 0.0
H794 H 0.51267 0.60437 0.97249 0.0
H795 H 0.54141 0.6455 0.9187 0.0
H796 H 0.4768 0.59503 0.82156 0.0
H797 H 0.42161 0.53266 0.85158 0.0
C798 C 0.41666 0.51837 0.92045 0.0
C799 C 0.41781 0.51587 0.9568 0.0
C800 C 0.44947 0.55285 0.90269 0.0
C801 C 0.45329 0.54643 0.97508 0.0
C802 C 0.4862 0.58057 0.95763 0.0
C803 C 0.51541 0.62059 0.90415 0.0
C804 C 0.51245 0.62527 0.86821 0.0
C805 C 0.48411 0.58467 0.92154 0.0
C806 C 0.47893 0.5927 0.84948 0.0
C807 C 0.4476 0.55688 0.86656 0.0
H808 H 0.87306 0.45876 0.01384 0.0
H809 H 0.85448 0.5192 0.10283 0.0
H810 H 0.85997 0.46885 0.14168 0.0
H811 H 0.86994 0.40754 0.15012 0.0
H812 H 0.8864 0.3456 0.06113 0.0
H813 H 0.88215 0.39668 0.02229 0.0
C814 C 0.86989 0.46052 0.04174 0.0
C815 C 0.86314 0.49225 0.05564 0.0
C816 C 0.87289 0.43139 0.06377 0.0
C817 C 0.85969 0.49489 0.09175 0.0
C818 C 0.86279 0.46616 0.11387 0.0
C819 C 0.8723 0.40516 0.12219 0.0
C820 C 0.87834 0.37295 0.10836 0.0
C821 C 0.86934 0.43427 0.10016 0.0
C822 C 0.88199 0.3704 0.07224 0.0
C823 C 0.87938 0.39943 0.0501 0.0
H824 H 0.52642 0.90661 0.2312 0.0
H825 H 0.47778 0.89805 0.33473 0.0
H826 H 0.41623 0.89963 0.31143 0.0
H827 H 0.37266 0.89624 0.26093 0.0
H828 H 0.42272 0.90749 0.15761 0.0
H829 H 0.4874 0.91285 0.1813 0.0
C830 C 0.50263 0.90578 0.24859 0.0
C831 C 0.50584 0.90088 0.28446 0.0
C832 C 0.46742 0.90695 0.235 0.0
C833 C 0.47518 0.90042 0.30686 0.0
C834 C 0.4401 0.90154 0.29359 0.0
C835 C 0.39812 0.90063 0.24378 0.0
C836 C 0.39264 0.90036 0.20765 0.0
C837 C 0.43526 0.90361 0.25761 0.0
C838 C 0.42594 0.90654 0.18556 0.0
C839 C 0.46292 0.90966 0.19906 0.0
H840 H 0.5359 0.34634 0.37828 0.0
H841 H 0.46056 0.40589 0.36348 0.0
H842 H 0.51536 0.47049 0.39131 0.0
H843 H 0.58363 0.50889 0.42239 0.0
H844 H 0.65862 0.44894 0.43696 0.0
H845 H 0.60569 0.38603 0.40604 0.0
C846 C 0.53175 0.37365 0.38093 0.0
C847 C 0.49412 0.37127 0.3694 0.0
C848 C 0.56349 0.41068 0.39668 0.0
C849 C 0.48892 0.40672 0.37295 0.0
C850 C 0.52038 0.44376 0.38857 0.0
C851 C 0.58861 0.48232 0.41809 0.0
C852 C 0.62481 0.48333 0.43168 0.0
C853 C 0.55765 0.44598 0.40084 0.0
C854 C 0.63083 0.44861 0.42659 0.0
C855 C 0.60056 0.41266 0.40909 0.0
H856 H 0.11967 0.5326 0.52487 0.0
H857 H 0.12008 0.46417 0.61609 0.0
H858 H 0.11908 0.5182 0.65341 0.0
H859 H 0.12073 0.58646 0.65968 0.0
H860 H 0.12518 0.65665 0.56804 0.0
H861 H 0.1221 0.60065 0.53102 0.0
C862 C 0.11972 0.52971 0.55295 0.0
C863 C 0.1203 0.49488 0.56788 0.0
C864 C 0.12036 0.56133 0.57399 0.0
C865 C 0.11953 0.49082 0.60418 0.0
C866 C 0.11924 0.52177 0.62543 0.0
C867 C 0.12144 0.5895 0.6316 0.0
C868 C 0.12351 0.62554 0.61642 0.0
C869 C 0.12021 0.55745 0.61059 0.0
C870 C 0.12362 0.62905 0.5801 0.0
C871 C 0.12186 0.59713 0.55902 0.0
H872 H 0.56449 0.10566 0.67696 0.0
H873 H 0.63797 0.11074 0.76651 0.0
H874 H 0.58265 0.10648 0.80511 0.0
H875 H 0.51493 0.10497 0.81326 0.0
H876 H 0.44376 0.10455 0.72361 0.0
H877 H 0.49632 0.10305 0.6851 0.0
C878 C 0.56844 0.10612 0.70494 0.0
C879 C 0.60541 0.10907 0.71895 0.0
C880 C 0.53692 0.10453 0.72688 0.0
C881 C 0.60971 0.10844 0.75519 0.0
C882 C 0.57822 0.10624 0.77722 0.0
C883 C 0.51118 0.10485 0.78528 0.0
C884 C 0.4759 0.10545 0.77122 0.0
C885 C 0.54198 0.10491 0.76335 0.0
C886 C 0.47067 0.10405 0.73499 0.0
C887 C 0.50082 0.10344 0.71299 0.0
loop_
_geom_bond_atom_site_label_1
_geom_bond_atom_site_label_2
_geom_bond_distance
_geom_bond_site_symmetry_2
_ccdc_geom_bond_type
Co0 O3 1.970 . S
Co0 N17 1.989 1_554 S
Co0 O25 1.967 . S
Co0 O32 1.920 1_554 S
Co1 O4 1.966 . S
Co1 N10 2.022 . S
Co1 N18 1.990 1_554 S
Co1 O26 1.941 . S
C2 O3 1.258 . S
C2 O4 1.263 . S
O3 Co0 1.970 . S
O3 C2 1.258 . S
O4 Co1 1.966 . S
O4 C2 1.263 . S
C5 O6 1.235 . S
C5 O32 1.289 . S
O6 C5 1.235 . S
C7 C9 1.400 . S
C7 N10 1.351 . S
C7 C12 1.501 . S
C8 C9 1.387 . S
C8 N11 1.341 . S
C9 C7 1.400 . S
C9 C8 1.387 . S
N10 Co1 2.022 . S
N10 C7 1.351 . S
N10 N11 1.365 . S
N11 C8 1.341 . S
N11 N10 1.365 . S
N11 H31 0.862 . S
C12 C7 1.501 . S
C12 H13 0.961 . S
C12 H14 0.961 . S
C12 H15 0.960 . S
H13 C12 0.961 . S
H14 C12 0.961 . S
H15 C12 0.960 . S
C16 N17 1.342 . S
C16 C20 1.401 . S
C16 C21 1.499 . S
N17 Co0 1.989 1_556 S
N17 C16 1.342 . S
N17 N18 1.389 . S
N18 Co1 1.990 1_556 S
N18 N17 1.389 . S
N18 C19 1.347 . S
C19 N18 1.347 . S
C19 C20 1.396 . S
C19 C29 1.510 . S
C20 C16 1.401 . S
C20 C19 1.396 . S
C21 C16 1.499 . S
C21 H22 0.959 . S
C21 H23 0.960 . S
C21 H24 0.961 . S
H22 C21 0.959 . S
H23 C21 0.960 . S
H24 C21 0.961 . S
O25 Co0 1.967 . S
O25 C33 1.258 . S
O26 Co1 1.941 . S
O26 C33 1.266 . S
H27 C29 0.959 . S
H28 C29 0.961 . S
C29 C19 1.510 . S
C29 H27 0.959 . S
C29 H28 0.961 . S
C29 H30 0.960 1_556 S
H30 C29 0.960 1_554 S
H31 N11 0.862 . S
O32 Co0 1.920 1_556 S
O32 C5 1.289 . S
C33 O25 1.258 . S
C33 O26 1.266 . S
Co34 O37 1.970 . S
Co34 N51 1.989 . S
Co34 O59 1.967 . S
Co34 O66 1.920 . S
Co35 O38 1.966 . S
Co35 N44 2.022 . S
Co35 N52 1.993 . S
Co35 O60 1.941 . S
C36 O37 1.258 . S
C36 O38 1.263 . S
O37 Co34 1.970 . S
O37 C36 1.258 . S
O38 Co35 1.966 . S
O38 C36 1.263 . S
C39 O40 1.235 . S
C39 O66 1.289 . S
O40 C39 1.235 . S
C41 C43 1.400 . S
C41 N44 1.351 . S
C41 C46 1.501 . S
C42 C43 1.387 . S
C42 N45 1.341 . S
C43 C41 1.400 . S
C43 C42 1.387 . S
N44 Co35 2.022 . S
N44 C41 1.351 . S
N44 N45 1.365 . S
N45 C42 1.341 . S
N45 N44 1.365 . S
N45 H65 0.862 . S
C46 C41 1.501 . S
C46 H47 0.961 . S
C46 H48 0.961 . S
C46 H49 0.960 . S
H47 C46 0.961 . S
H48 C46 0.961 . S
H49 C46 0.960 . S
C50 N51 1.342 . S
C50 C54 1.401 . S
C50 C55 1.499 . S
N51 Co34 1.989 . S
N51 C50 1.342 . S
N51 N52 1.388 . S
N52 Co35 1.993 . S
N52 N51 1.388 . S
N52 C53 1.346 . S
C53 N52 1.346 . S
C53 C54 1.396 . S
C53 C63 1.510 . S
C54 C50 1.401 . S
C54 C53 1.396 . S
C55 C50 1.499 . S
C55 H56 0.959 . S
C55 H57 0.960 . S
C55 H58 0.961 . S
H56 C55 0.959 . S
H57 C55 0.960 . S
H58 C55 0.961 . S
O59 Co34 1.967 . S
O59 C67 1.258 . S
O60 Co35 1.941 . S
O60 C67 1.266 . S
H61 C63 0.959 . S
H62 C63 0.961 . S
C63 C53 1.510 . S
C63 H61 0.959 . S
C63 H62 0.961 . S
C63 H64 0.960 . S
H64 C63 0.960 . S
H65 N45 0.862 . S
O66 Co34 1.920 . S
O66 C39 1.289 . S
C67 O59 1.258 . S
C67 O60 1.266 . S
Co68 O71 1.970 . S
Co68 N85 1.989 . S
Co68 O93 1.967 . S
Co68 O100 1.920 . S
Co69 O72 1.966 . S
Co69 N78 2.022 . S
Co69 N86 1.993 . S
Co69 O94 1.941 . S
C70 O71 1.258 . S
C70 O72 1.263 . S
O71 Co68 1.970 . S
O71 C70 1.258 . S
O72 Co69 1.966 . S
O72 C70 1.263 . S
C73 O74 1.235 . S
C73 O100 1.289 . S
O74 C73 1.235 . S
C75 C77 1.400 . S
C75 N78 1.351 . S
C75 C80 1.501 . S
C76 C77 1.387 . S
C76 N79 1.341 . S
C77 C75 1.400 . S
C77 C76 1.387 . S
N78 Co69 2.022 . S
N78 C75 1.351 . S
N78 N79 1.365 . S
N79 C76 1.341 . S
N79 N78 1.365 . S
N79 H99 0.862 . S
C80 C75 1.501 . S
C80 H81 0.961 . S
C80 H82 0.961 . S
C80 H83 0.960 . S
H81 C80 0.961 . S
H82 C80 0.961 . S
H83 C80 0.960 . S
C84 N85 1.342 . S
C84 C88 1.401 . S
C84 C89 1.499 . S
N85 Co68 1.989 . S
N85 C84 1.342 . S
N85 N86 1.388 . S
N86 Co69 1.993 . S
N86 N85 1.388 . S
N86 C87 1.346 . S
C87 N86 1.346 . S
C87 C88 1.396 . S
C87 C97 1.510 . S
C88 C84 1.401 . S
C88 C87 1.396 . S
C89 C84 1.499 . S
C89 H90 0.959 . S
C89 H91 0.960 . S
C89 H92 0.961 . S
H90 C89 0.959 . S
H91 C89 0.960 . S
H92 C89 0.961 . S
O93 Co68 1.967 . S
O93 C101 1.258 . S
O94 Co69 1.941 . S
O94 C101 1.266 . S
H95 C97 0.959 . S
H96 C97 0.961 . S
C97 C87 1.510 . S
C97 H95 0.959 . S
C97 H96 0.961 . S
C97 H98 0.960 . S
H98 C97 0.960 . S
H99 N79 0.862 . S
O100 Co68 1.920 . S
O100 C73 1.289 . S
C101 O93 1.258 . S
C101 O94 1.266 . S
Co102 O105 1.970 . S
Co102 N119 1.989 . S
Co102 O127 1.967 . S
Co102 O134 1.920 . S
Co103 O106 1.966 . S
Co103 N112 2.022 . S
Co103 N120 1.993 . S
Co103 O128 1.941 . S
C104 O105 1.258 . S
C104 O106 1.263 . S
O105 Co102 1.970 . S
O105 C104 1.258 . S
O106 Co103 1.966 . S
O106 C104 1.263 . S
C107 O108 1.235 . S
C107 O134 1.289 . S
O108 C107 1.235 . S
C109 C111 1.400 . S
C109 N112 1.351 . S
C109 C114 1.501 . S
C110 C111 1.387 . S
C110 N113 1.341 . S
C111 C109 1.400 . S
C111 C110 1.387 . S
N112 Co103 2.022 . S
N112 C109 1.351 . S
N112 N113 1.365 . S
N113 C110 1.341 . S
N113 N112 1.365 . S
N113 H133 0.862 . S
C114 C109 1.501 . S
C114 H115 0.961 . S
C114 H116 0.961 . S
C114 H117 0.960 . S
H115 C114 0.961 . S
H116 C114 0.961 . S
H117 C114 0.960 . S
C118 N119 1.342 . S
C118 C122 1.401 . S
C118 C123 1.499 . S
N119 Co102 1.989 . S
N119 C118 1.342 . S
N119 N120 1.388 . S
N120 Co103 1.993 . S
N120 N119 1.388 . S
N120 C121 1.346 . S
C121 N120 1.346 . S
C121 C122 1.396 . S
C121 C131 1.510 . S
C122 C118 1.401 . S
C122 C121 1.396 . S
C123 C118 1.499 . S
C123 H124 0.959 . S
C123 H125 0.960 . S
C123 H126 0.961 . S
H124 C123 0.959 . S
H125 C123 0.960 . S
H126 C123 0.961 . S
O127 Co102 1.967 . S
O127 C135 1.258 . S
O128 Co103 1.941 . S
O128 C135 1.266 . S
H129 C131 0.959 . S
H130 C131 0.961 . S
C131 C121 1.510 . S
C131 H129 0.959 . S
C131 H130 0.961 . S
C131 H132 0.960 . S
H132 C131 0.960 . S
H133 N113 0.862 . S
O134 Co102 1.920 . S
O134 C107 1.289 . S
C135 O127 1.258 . S
C135 O128 1.266 . S
Co136 O139 1.970 . S
Co136 N153 1.989 . S
Co136 O161 1.967 . S
Co136 O168 1.920 . S
Co137 O140 1.966 . S
Co137 N146 2.022 . S
Co137 N154 1.993 . S
Co137 O162 1.941 . S
C138 O139 1.258 . S
C138 O140 1.263 . S
O139 Co136 1.970 . S
O139 C138 1.258 . S
O140 Co137 1.966 . S
O140 C138 1.263 . S
C141 O142 1.235 . S
C141 O168 1.289 . S
O142 C141 1.235 . S
C143 C145 1.400 . S
C143 N146 1.351 . S
C143 C148 1.501 . S
C144 C145 1.387 . S
C144 N147 1.341 . S
C145 C143 1.400 . S
C145 C144 1.387 . S
N146 Co137 2.022 . S
N146 C143 1.351 . S
N146 N147 1.365 . S
N147 C144 1.341 . S
N147 N146 1.365 . S
N147 H167 0.862 . S
C148 C143 1.501 . S
C148 H149 0.961 . S
C148 H150 0.961 . S
C148 H151 0.960 . S
H149 C148 0.961 . S
H150 C148 0.961 . S
H151 C148 0.960 . S
C152 N153 1.342 . S
C152 C156 1.401 . S
C152 C157 1.499 . S
N153 Co136 1.989 . S
N153 C152 1.342 . S
N153 N154 1.388 . S
N154 Co137 1.993 . S
N154 N153 1.388 . S
N154 C155 1.346 . S
C155 N154 1.346 . S
C155 C156 1.396 . S
C155 C165 1.510 . S
C156 C152 1.401 . S
C156 C155 1.396 . S
C157 C152 1.499 . S
C157 H158 0.959 . S
C157 H159 0.960 . S
C157 H160 0.961 . S
H158 C157 0.959 . S
H159 C157 0.960 . S
H160 C157 0.961 . S
O161 Co136 1.967 . S
O161 C169 1.258 . S
O162 Co137 1.941 . S
O162 C169 1.266 . S
H163 C165 0.959 . S
H164 C165 0.961 . S
C165 C155 1.510 . S
C165 H163 0.959 . S
C165 H164 0.961 . S
C165 H166 0.960 . S
H166 C165 0.960 . S
H167 N147 0.862 . S
O168 Co136 1.920 . S
O168 C141 1.289 . S
C169 O161 1.258 . S
C169 O162 1.266 . S
Co170 O173 1.970 . S
Co170 N187 1.989 . S
Co170 O195 1.967 . S
Co170 O202 1.920 . S
Co171 O174 1.966 . S
Co171 N180 2.022 . S
Co171 N188 1.993 . S
Co171 O196 1.941 . S
C172 O173 1.258 . S
C172 O174 1.263 . S
O173 Co170 1.970 . S
O173 C172 1.258 . S
O174 Co171 1.966 . S
O174 C172 1.263 . S
C175 O176 1.235 . S
C175 O202 1.289 . S
O176 C175 1.235 . S
C177 C179 1.400 . S
C177 N180 1.351 . S
C177 C182 1.501 . S
C178 C179 1.387 . S
C178 N181 1.341 . S
C179 C177 1.400 . S
C179 C178 1.387 . S
N180 Co171 2.022 . S
N180 C177 1.351 . S
N180 N181 1.365 . S
N181 C178 1.341 . S
N181 N180 1.365 . S
N181 H201 0.862 . S
C182 C177 1.501 . S
C182 H183 0.961 . S
C182 H184 0.961 . S
C182 H185 0.960 . S
H183 C182 0.961 . S
H184 C182 0.961 . S
H185 C182 0.960 . S
C186 N187 1.342 . S
C186 C190 1.401 . S
C186 C191 1.499 . S
N187 Co170 1.989 . S
N187 C186 1.342 . S
N187 N188 1.388 . S
N188 Co171 1.993 . S
N188 N187 1.388 . S
N188 C189 1.346 . S
C189 N188 1.346 . S
C189 C190 1.396 . S
C189 C199 1.510 . S
C190 C186 1.401 . S
C190 C189 1.396 . S
C191 C186 1.499 . S
C191 H192 0.959 . S
C191 H193 0.960 . S
C191 H194 0.961 . S
H192 C191 0.959 . S
H193 C191 0.960 . S
H194 C191 0.961 . S
O195 Co170 1.967 . S
O195 C203 1.258 . S
O196 Co171 1.941 . S
O196 C203 1.266 . S
H197 C199 0.959 . S
H198 C199 0.961 . S
C199 C189 1.510 . S
C199 H197 0.959 . S
C199 H198 0.961 . S
C199 H200 0.960 . S
H200 C199 0.960 . S
H201 N181 0.862 . S
O202 Co170 1.920 . S
O202 C175 1.289 . S
C203 O195 1.258 . S
C203 O196 1.266 . S
Co204 O207 1.970 . S
Co204 N221 1.989 . S
Co204 O229 1.967 . S
Co204 O236 1.920 . S
Co205 O208 1.966 . S
Co205 N214 2.022 . S
Co205 N222 1.993 . S
Co205 O230 1.941 . S
C206 O207 1.258 . S
C206 O208 1.263 . S
O207 Co204 1.970 . S
O207 C206 1.258 . S
O208 Co205 1.966 . S
O208 C206 1.263 . S
C209 O210 1.235 . S
C209 O236 1.289 . S
O210 C209 1.235 . S
C211 C213 1.400 . S
C211 N214 1.351 . S
C211 C216 1.501 . S
C212 C213 1.387 . S
C212 N215 1.341 . S
C213 C211 1.400 . S
C213 C212 1.387 . S
N214 Co205 2.022 . S
N214 C211 1.351 . S
N214 N215 1.365 . S
N215 C212 1.341 . S
N215 N214 1.365 . S
N215 H235 0.862 . S
C216 C211 1.501 . S
C216 H217 0.961 . S
C216 H218 0.961 . S
C216 H219 0.960 . S
H217 C216 0.961 . S
H218 C216 0.961 . S
H219 C216 0.960 . S
C220 N221 1.342 . S
C220 C224 1.401 . S
C220 C225 1.499 . S
N221 Co204 1.989 . S
N221 C220 1.342 . S
N221 N222 1.388 . S
N222 Co205 1.993 . S
N222 N221 1.388 . S
N222 C223 1.346 . S
C223 N222 1.346 . S
C223 C224 1.396 . S
C223 C233 1.510 . S
C224 C220 1.401 . S
C224 C223 1.396 . S
C225 C220 1.499 . S
C225 H226 0.959 . S
C225 H227 0.960 . S
C225 H228 0.961 . S
H226 C225 0.959 . S
H227 C225 0.960 . S
H228 C225 0.961 . S
O229 Co204 1.967 . S
O229 C237 1.258 . S
O230 Co205 1.941 . S
O230 C237 1.266 . S
H231 C233 0.959 . S
H232 C233 0.961 . S
C233 C223 1.510 . S
C233 H231 0.959 . S
C233 H232 0.961 . S
C233 H234 0.960 . S
H234 C233 0.960 . S
H235 N215 0.862 . S
O236 Co204 1.920 . S
O236 C209 1.289 . S
C237 O229 1.258 . S
C237 O230 1.266 . S
Co238 O241 1.970 . S
Co238 N255 1.989 1_556 S
Co238 O263 1.967 . S
Co238 O270 1.920 1_556 S
Co239 O242 1.966 . S
Co239 N248 2.022 . S
Co239 N256 1.993 . S
Co239 O264 1.941 . S
C240 O241 1.258 . S
C240 O242 1.263 . S
O241 Co238 1.970 . S
O241 C240 1.258 . S
O242 Co239 1.966 . S
O242 C240 1.263 . S
C243 O244 1.235 . S
C243 O270 1.289 . S
O244 C243 1.235 . S
C245 C247 1.400 . S
C245 N248 1.351 . S
C245 C250 1.501 . S
C246 C247 1.387 . S
C246 N249 1.341 . S
C247 C245 1.400 . S
C247 C246 1.387 . S
N248 Co239 2.022 . S
N248 C245 1.351 . S
N248 N249 1.365 . S
N249 C246 1.341 . S
N249 N248 1.365 . S
N249 H269 0.862 . S
C250 C245 1.501 . S
C250 H251 0.961 . S
C250 H252 0.961 . S
C250 H253 0.960 . S
H251 C250 0.961 . S
H252 C250 0.961 . S
H253 C250 0.960 . S
C254 N255 1.342 . S
C254 C258 1.401 . S
C254 C259 1.499 . S
N255 Co238 1.989 1_554 S
N255 C254 1.342 . S
N255 N256 1.388 1_554 S
N256 Co239 1.993 . S
N256 N255 1.388 1_556 S
N256 C257 1.346 1_556 S
C257 N256 1.346 1_554 S
C257 C258 1.396 . S
C257 C267 1.518 . S
C258 C254 1.401 . S
C258 C257 1.396 . S
C259 C254 1.499 . S
C259 H260 0.959 . S
C259 H261 0.960 . S
C259 H262 0.961 . S
H260 C259 0.959 . S
H261 C259 0.960 . S
H262 C259 0.961 . S
O263 Co238 1.967 . S
O263 C271 1.258 . S
O264 Co239 1.941 . S
O264 C271 1.266 . S
H265 C267 0.952 1_556 S
H266 C267 0.987 . S
C267 C257 1.518 . S
C267 H265 0.952 1_554 S
C267 H266 0.987 . S
C267 H268 0.934 1_554 S
H268 C267 0.934 1_556 S
H269 N249 0.862 . S
O270 Co238 1.920 1_554 S
O270 C243 1.289 . S
C271 O263 1.258 . S
C271 O264 1.266 . S
Co272 O275 1.970 . S
Co272 N289 1.989 . S
Co272 O297 1.967 . S
Co272 O304 1.920 . S
Co273 O276 1.966 . S
Co273 N282 2.022 . S
Co273 N290 1.993 . S
Co273 O298 1.941 . S
C274 O275 1.258 . S
C274 O276 1.263 . S
O275 Co272 1.970 . S
O275 C274 1.258 . S
O276 Co273 1.966 . S
O276 C274 1.263 . S
C277 O278 1.235 . S
C277 O304 1.289 . S
O278 C277 1.235 . S
C279 C281 1.400 . S
C279 N282 1.351 . S
C279 C284 1.501 . S
C280 C281 1.387 . S
C280 N283 1.341 . S
C281 C279 1.400 . S
C281 C280 1.387 . S
N282 Co273 2.022 . S
N282 C279 1.351 . S
N282 N283 1.365 . S
N283 C280 1.341 . S
N283 N282 1.365 . S
N283 H303 0.862 . S
C284 C279 1.501 . S
C284 H285 0.961 . S
C284 H286 0.961 . S
C284 H287 0.960 . S
H285 C284 0.961 . S
H286 C284 0.961 . S
H287 C284 0.960 . S
C288 N289 1.342 . S
C288 C292 1.401 . S
C288 C293 1.499 . S
N289 Co272 1.989 . S
N289 C288 1.342 . S
N289 N290 1.388 . S
N290 Co273 1.993 . S
N290 N289 1.388 . S
N290 C291 1.346 . S
C291 N290 1.346 . S
C291 C292 1.396 . S
C291 C301 1.510 . S
C292 C288 1.401 . S
C292 C291 1.396 . S
C293 C288 1.499 . S
C293 H294 0.959 . S
C293 H295 0.960 . S
C293 H296 0.961 . S
H294 C293 0.959 . S
H295 C293 0.960 . S
H296 C293 0.961 . S
O297 Co272 1.967 . S
O297 C305 1.258 . S
O298 Co273 1.941 . S
O298 C305 1.266 . S
H299 C301 0.959 . S
H300 C301 0.961 . S
C301 C291 1.510 . S
C301 H299 0.959 . S
C301 H300 0.961 . S
C301 H302 0.960 . S
H302 C301 0.960 . S
H303 N283 0.862 . S
O304 Co272 1.920 . S
O304 C277 1.289 . S
C305 O297 1.258 . S
C305 O298 1.266 . S
Co306 O309 1.970 . S
Co306 N323 1.989 . S
Co306 O331 1.967 . S
Co306 O338 1.920 . S
Co307 O310 1.966 . S
Co307 N316 2.022 . S
Co307 N324 1.993 . S
Co307 O332 1.941 . S
C308 O309 1.258 . S
C308 O310 1.263 . S
O309 Co306 1.970 . S
O309 C308 1.258 . S
O310 Co307 1.966 . S
O310 C308 1.263 . S
C311 O312 1.235 . S
C311 O338 1.289 . S
O312 C311 1.235 . S
C313 C315 1.400 . S
C313 N316 1.351 . S
C313 C318 1.501 . S
C314 C315 1.387 . S
C314 N317 1.341 . S
C315 C313 1.400 . S
C315 C314 1.387 . S
N316 Co307 2.022 . S
N316 C313 1.351 . S
N316 N317 1.365 . S
N317 C314 1.341 . S
N317 N316 1.365 . S
N317 H337 0.862 . S
C318 C313 1.501 . S
C318 H319 0.961 . S
C318 H320 0.961 . S
C318 H321 0.960 . S
H319 C318 0.961 . S
H320 C318 0.961 . S
H321 C318 0.960 . S
C322 N323 1.342 . S
C322 C326 1.401 . S
C322 C327 1.499 . S
N323 Co306 1.989 . S
N323 C322 1.342 . S
N323 N324 1.388 . S
N324 Co307 1.993 . S
N324 N323 1.388 . S
N324 C325 1.346 . S
C325 N324 1.346 . S
C325 C326 1.396 . S
C325 C335 1.510 . S
C326 C322 1.401 . S
C326 C325 1.396 . S
C327 C322 1.499 . S
C327 H328 0.959 . S
C327 H329 0.960 . S
C327 H330 0.961 . S
H328 C327 0.959 . S
H329 C327 0.960 . S
H330 C327 0.961 . S
O331 Co306 1.967 . S
O331 C339 1.258 . S
O332 Co307 1.941 . S
O332 C339 1.266 . S
H333 C335 0.959 . S
H334 C335 0.961 . S
C335 C325 1.510 . S
C335 H333 0.959 . S
C335 H334 0.961 . S
C335 H336 0.960 . S
H336 C335 0.960 . S
H337 N317 0.862 . S
O338 Co306 1.920 . S
O338 C311 1.289 . S
C339 O331 1.258 . S
C339 O332 1.266 . S
Co340 O343 1.970 . S
Co340 N357 1.989 . S
Co340 O365 1.967 . S
Co340 O372 1.920 . S
Co341 O344 1.966 . S
Co341 N350 2.022 . S
Co341 N358 1.993 . S
Co341 O366 1.941 . S
C342 O343 1.258 . S
C342 O344 1.263 . S
O343 Co340 1.970 . S
O343 C342 1.258 . S
O344 Co341 1.966 . S
O344 C342 1.263 . S
C345 O346 1.235 . S
C345 O372 1.289 . S
O346 C345 1.235 . S
C347 C349 1.400 . S
C347 N350 1.351 . S
C347 C352 1.501 . S
C348 C349 1.387 . S
C348 N351 1.341 . S
C349 C347 1.400 . S
C349 C348 1.387 . S
N350 Co341 2.022 . S
N350 C347 1.351 . S
N350 N351 1.365 . S
N351 C348 1.341 . S
N351 N350 1.365 . S
N351 H371 0.862 . S
C352 C347 1.501 . S
C352 H353 0.961 . S
C352 H354 0.961 . S
C352 H355 0.960 . S
H353 C352 0.961 . S
H354 C352 0.961 . S
H355 C352 0.960 . S
C356 N357 1.342 . S
C356 C360 1.401 . S
C356 C361 1.499 . S
N357 Co340 1.989 . S
N357 C356 1.342 . S
N357 N358 1.388 . S
N358 Co341 1.993 . S
N358 N357 1.388 . S
N358 C359 1.346 . S
C359 N358 1.346 . S
C359 C360 1.396 . S
C359 C369 1.510 . S
C360 C356 1.401 . S
C360 C359 1.396 . S
C361 C356 1.499 . S
C361 H362 0.959 . S
C361 H363 0.960 . S
C361 H364 0.961 . S
H362 C361 0.959 . S
H363 C361 0.960 . S
H364 C361 0.961 . S
O365 Co340 1.967 . S
O365 C373 1.258 . S
O366 Co341 1.941 . S
O366 C373 1.266 . S
H367 C369 0.959 . S
H368 C369 0.961 . S
C369 C359 1.510 . S
C369 H367 0.959 . S
C369 H368 0.961 . S
C369 H370 0.960 . S
H370 C369 0.960 . S
H371 N351 0.862 . S
O372 Co340 1.920 . S
O372 C345 1.289 . S
C373 O365 1.258 . S
C373 O366 1.266 . S
Co374 O377 1.970 . S
Co374 N391 1.989 . S
Co374 O399 1.967 . S
Co374 O406 1.920 . S
Co375 O378 1.966 . S
Co375 N384 2.022 . S
Co375 N392 1.993 . S
Co375 O400 1.941 . S
C376 O377 1.258 . S
C376 O378 1.263 . S
O377 Co374 1.970 . S
O377 C376 1.258 . S
O378 Co375 1.966 . S
O378 C376 1.263 . S
C379 O380 1.235 . S
C379 O406 1.289 . S
O380 C379 1.235 . S
C381 C383 1.400 . S
C381 N384 1.351 . S
C381 C386 1.501 . S
C382 C383 1.387 . S
C382 N385 1.341 . S
C383 C381 1.400 . S
C383 C382 1.387 . S
N384 Co375 2.022 . S
N384 C381 1.351 . S
N384 N385 1.365 . S
N385 C382 1.341 . S
N385 N384 1.365 . S
N385 H405 0.862 . S
C386 C381 1.501 . S
C386 H387 0.961 . S
C386 H388 0.961 . S
C386 H389 0.960 . S
H387 C386 0.961 . S
H388 C386 0.961 . S
H389 C386 0.960 . S
C390 N391 1.342 . S
C390 C394 1.401 . S
C390 C395 1.499 . S
N391 Co374 1.989 . S
N391 C390 1.342 . S
N391 N392 1.388 . S
N392 Co375 1.993 . S
N392 N391 1.388 . S
N392 C393 1.346 . S
C393 N392 1.346 . S
C393 C394 1.396 . S
C393 C403 1.510 . S
C394 C390 1.401 . S
C394 C393 1.396 . S
C395 C390 1.499 . S
C395 H396 0.959 . S
C395 H397 0.960 . S
C395 H398 0.961 . S
H396 C395 0.959 . S
H397 C395 0.960 . S
H398 C395 0.961 . S
O399 Co374 1.967 . S
O399 C407 1.258 . S
O400 Co375 1.941 . S
O400 C407 1.266 . S
H401 C403 0.959 . S
H402 C403 0.961 . S
C403 C393 1.510 . S
C403 H401 0.959 . S
C403 H402 0.961 . S
C403 H404 0.960 . S
H404 C403 0.960 . S
H405 N385 0.862 . S
O406 Co374 1.920 . S
O406 C379 1.289 . S
C407 O399 1.258 . S
C407 O400 1.266 . S
H408 C414 0.930 . S
H409 C417 0.930 . S
H410 C418 0.930 . S
H411 C419 0.930 . S
H412 C422 0.930 . S
H413 C423 0.930 . S
C414 H408 0.930 . S
C414 C415 1.355 . S
C414 C416 1.415 . S
C415 C414 1.355 . S
C415 C417 1.419 . S
C416 C414 1.415 . S
C416 C421 1.425 . S
C416 C423 1.409 . S
C417 H409 0.930 . S
C417 C415 1.419 . S
C417 C418 1.362 . S
C418 H410 0.930 . S
C418 C417 1.362 . S
C418 C421 1.409 . S
C419 H411 0.930 . S
C419 C420 1.355 . S
C419 C421 1.415 . S
C420 C419 1.355 . S
C420 C422 1.419 . S
C421 C416 1.425 . S
C421 C418 1.409 . S
C421 C419 1.415 . S
C422 H412 0.930 . S
C422 C420 1.419 . S
C422 C423 1.362 . S
C423 H413 0.930 . S
C423 C416 1.409 . S
C423 C422 1.362 . S
H424 C430 0.930 . S
H425 C433 0.930 . S
H426 C434 0.930 . S
H427 C435 0.930 . S
H428 C438 0.930 1_655 S
H429 C439 0.930 . S
C430 H424 0.930 . S
C430 C431 1.355 . S
C430 C432 1.415 . S
C431 C430 1.355 . S
C431 C433 1.419 . S
C432 C430 1.415 . S
C432 C437 1.425 . S
C432 C439 1.409 . S
C433 H425 0.930 . S
C433 C431 1.419 . S
C433 C434 1.362 . S
C434 H426 0.930 . S
C434 C433 1.362 . S
C434 C437 1.409 . S
C435 H427 0.930 . S
C435 C436 1.355 . S
C435 C437 1.415 . S
C436 C435 1.355 . S
C436 C438 1.419 . S
C437 C432 1.425 . S
C437 C434 1.409 . S
C437 C435 1.415 . S
C438 H428 0.930 1_455 S
C438 C436 1.419 . S
C438 C439 1.362 . S
C439 H429 0.930 . S
C439 C432 1.409 . S
C439 C438 1.362 . S
H440 C446 0.930 . S
H441 C449 0.930 . S
H442 C450 0.930 . S
H443 C451 0.930 . S
H444 C454 0.930 . S
H445 C455 0.930 . S
C446 H440 0.930 . S
C446 C447 1.355 . S
C446 C448 1.415 . S
C447 C446 1.355 . S
C447 C449 1.419 . S
C448 C446 1.415 . S
C448 C453 1.425 . S
C448 C455 1.409 . S
C449 H441 0.930 . S
C449 C447 1.419 . S
C449 C450 1.362 . S
C450 H442 0.930 . S
C450 C449 1.362 . S
C450 C453 1.409 . S
C451 H443 0.930 . S
C451 C452 1.355 . S
C451 C453 1.415 . S
C452 C451 1.355 . S
C452 C454 1.419 1_545 S
C453 C448 1.425 . S
C453 C450 1.409 . S
C453 C451 1.415 . S
C454 H444 0.930 . S
C454 C452 1.419 1_565 S
C454 C455 1.362 1_565 S
C455 H445 0.930 . S
C455 C448 1.409 . S
C455 C454 1.362 1_545 S
H456 C462 0.930 . S
H457 C465 0.930 . S
H458 C466 0.930 . S
H459 C467 0.930 . S
H460 C470 0.930 . S
H461 C471 0.930 . S
C462 H456 0.930 . S
C462 C463 1.355 . S
C462 C464 1.415 . S
C463 C462 1.355 . S
C463 C465 1.419 . S
C464 C462 1.415 . S
C464 C469 1.425 . S
C464 C471 1.409 . S
C465 H457 0.930 . S
C465 C463 1.419 . S
C465 C466 1.362 . S
C466 H458 0.930 . S
C466 C465 1.362 . S
C466 C469 1.409 . S
C467 H459 0.930 . S
C467 C468 1.355 . S
C467 C469 1.415 . S
C468 C467 1.355 . S
C468 C470 1.419 . S
C469 C464 1.425 . S
C469 C466 1.409 . S
C469 C467 1.415 . S
C470 H460 0.930 . S
C470 C468 1.419 . S
C470 C471 1.362 . S
C471 H461 0.930 . S
C471 C464 1.409 . S
C471 C470 1.362 . S
H472 C478 0.930 1_455 S
H473 C481 0.930 . S
H474 C482 0.930 . S
H475 C483 0.930 . S
H476 C486 0.930 . S
H477 C487 0.930 . S
C478 H472 0.930 1_655 S
C478 C479 1.355 . S
C478 C480 1.415 . S
C479 C478 1.355 . S
C479 C481 1.419 . S
C480 C478 1.415 . S
C480 C485 1.425 . S
C480 C487 1.409 . S
C481 H473 0.930 . S
C481 C479 1.419 . S
C481 C482 1.362 . S
C482 H474 0.930 . S
C482 C481 1.362 . S
C482 C485 1.409 . S
C483 H475 0.930 . S
C483 C484 1.355 . S
C483 C485 1.415 . S
C484 C483 1.355 . S
C484 C486 1.419 . S
C485 C480 1.425 . S
C485 C482 1.409 . S
C485 C483 1.415 . S
C486 H476 0.930 . S
C486 C484 1.419 . S
C486 C487 1.362 . S
C487 H477 0.930 . S
C487 C480 1.409 . S
C487 C486 1.362 . S
H488 C494 0.930 . S
H489 C497 0.930 . S
H490 C498 0.930 . S
H491 C499 0.930 . S
H492 C502 0.930 . S
H493 C503 0.930 . S
C494 H488 0.930 . S
C494 C495 1.355 . S
C494 C496 1.415 . S
C495 C494 1.355 . S
C495 C497 1.419 . S
C496 C494 1.415 . S
C496 C501 1.425 . S
C496 C503 1.409 . S
C497 H489 0.930 . S
C497 C495 1.419 . S
C497 C498 1.362 . S
C498 H490 0.930 . S
C498 C497 1.362 . S
C498 C501 1.409 . S
C499 H491 0.930 . S
C499 C500 1.355 . S
C499 C501 1.415 . S
C500 C499 1.355 . S
C500 C502 1.419 1_565 S
C501 C496 1.425 . S
C501 C498 1.409 . S
C501 C499 1.415 . S
C502 H492 0.930 . S
C502 C500 1.419 1_545 S
C502 C503 1.362 1_545 S
C503 H493 0.930 . S
C503 C496 1.409 . S
C503 C502 1.362 1_565 S
H504 C510 0.930 . S
H505 C513 0.909 1_554 S
H506 C514 0.930 . S
H507 C515 0.930 . S
H508 C518 0.930 . S
H509 C519 0.930 . S
C510 H504 0.930 . S
C510 C511 1.355 . S
C510 C512 1.415 . S
C511 C510 1.355 . S
C511 C513 1.419 . S
C512 C510 1.415 . S
C512 C517 1.425 . S
C512 C519 1.409 . S
C513 H505 0.909 1_556 S
C513 C511 1.419 . S
C513 C514 1.362 . S
C514 H506 0.930 . S
C514 C513 1.362 . S
C514 C517 1.409 . S
C515 H507 0.930 . S
C515 C516 1.355 . S
C515 C517 1.415 . S
C516 C515 1.355 . S
C516 C518 1.419 . S
C517 C512 1.425 . S
C517 C514 1.409 . S
C517 C515 1.415 . S
C518 H508 0.930 . S
C518 C516 1.419 . S
C518 C519 1.362 . S
C519 H509 0.930 . S
C519 C512 1.409 . S
C519 C518 1.362 . S
H520 C526 0.930 . S
H521 C529 0.930 . S
H522 C530 0.930 . S
H523 C531 0.930 1_655 S
H524 C534 0.930 . S
H525 C535 0.930 . S
C526 H520 0.930 . S
C526 C527 1.355 . S
C526 C528 1.415 . S
C527 C526 1.355 . S
C527 C529 1.419 . S
C528 C526 1.415 . S
C528 C533 1.425 . S
C528 C535 1.409 . S
C529 H521 0.930 . S
C529 C527 1.419 . S
C529 C530 1.362 . S
C530 H522 0.930 . S
C530 C529 1.362 . S
C530 C533 1.409 . S
C531 H523 0.930 1_455 S
C531 C532 1.355 . S
C531 C533 1.415 . S
C532 C531 1.355 . S
C532 C534 1.419 . S
C533 C528 1.425 . S
C533 C530 1.409 . S
C533 C531 1.415 . S
C534 H524 0.930 . S
C534 C532 1.419 . S
C534 C535 1.362 . S
C535 H525 0.930 . S
C535 C528 1.409 . S
C535 C534 1.362 . S
H536 C542 0.930 . S
H537 C545 0.930 . S
H538 C546 0.930 . S
H539 C547 0.930 1_565 S
H540 C550 0.930 . S
H541 C551 0.930 . S
C542 H536 0.930 . S
C542 C543 1.355 . S
C542 C544 1.415 . S
C543 C542 1.355 . S
C543 C545 1.419 . S
C544 C542 1.415 . S
C544 C549 1.425 . S
C544 C551 1.409 . S
C545 H537 0.930 . S
C545 C543 1.419 . S
C545 C546 1.362 . S
C546 H538 0.930 . S
C546 C545 1.362 . S
C546 C549 1.409 . S
C547 H539 0.930 1_545 S
C547 C548 1.355 . S
C547 C549 1.415 . S
C548 C547 1.355 . S
C548 C550 1.419 . S
C549 C544 1.425 . S
C549 C546 1.409 . S
C549 C547 1.415 . S
C550 H540 0.930 . S
C550 C548 1.419 . S
C550 C551 1.362 . S
C551 H541 0.930 . S
C551 C544 1.409 . S
C551 C550 1.362 . S
H552 C558 0.930 . S
H553 C561 0.930 . S
H554 C562 0.930 . S
H555 C563 0.930 . S
H556 C566 0.930 . S
H557 C567 0.930 . S
C558 H552 0.930 . S
C558 C559 1.355 . S
C558 C560 1.415 . S
C559 C558 1.355 . S
C559 C561 1.419 . S
C560 C558 1.415 . S
C560 C565 1.425 . S
C560 C567 1.409 . S
C561 H553 0.930 . S
C561 C559 1.419 . S
C561 C562 1.362 . S
C562 H554 0.930 . S
C562 C561 1.362 . S
C562 C565 1.409 . S
C563 H555 0.930 . S
C563 C564 1.355 . S
C563 C565 1.415 . S
C564 C563 1.355 . S
C564 C566 1.419 . S
C565 C560 1.425 . S
C565 C562 1.409 . S
C565 C563 1.415 . S
C566 H556 0.930 . S
C566 C564 1.419 . S
C566 C567 1.362 . S
C567 H557 0.930 . S
C567 C560 1.409 . S
C567 C566 1.362 . S
H568 C574 0.930 . S
H569 C577 0.930 . S
H570 C578 0.930 . S
H571 C579 0.930 . S
H572 C582 0.930 . S
H573 C583 0.930 . S
C574 H568 0.930 . S
C574 C575 1.355 . S
C574 C576 1.415 . S
C575 C574 1.355 . S
C575 C577 1.419 . S
C576 C574 1.415 . S
C576 C581 1.425 . S
C576 C583 1.409 . S
C577 H569 0.930 . S
C577 C575 1.419 . S
C577 C578 1.362 . S
C578 H570 0.930 . S
C578 C577 1.362 . S
C578 C581 1.409 . S
C579 H571 0.930 . S
C579 C580 1.355 . S
C579 C581 1.415 . S
C580 C579 1.355 . S
C580 C582 1.419 1_655 S
C581 C576 1.425 . S
C581 C578 1.409 . S
C581 C579 1.415 . S
C582 H572 0.930 . S
C582 C580 1.419 1_455 S
C582 C583 1.362 1_455 S
C583 H573 0.930 . S
C583 C576 1.409 . S
C583 C582 1.362 1_655 S
H584 C590 0.930 . S
H585 C593 0.930 . S
H586 C594 0.930 . S
H587 C595 0.930 . S
H588 C598 0.913 1_545 S
H589 C599 0.930 . S
C590 H584 0.930 . S
C590 C591 1.355 . S
C590 C592 1.415 . S
C591 C590 1.355 . S
C591 C593 1.419 . S
C592 C590 1.415 . S
C592 C597 1.425 . S
C592 C599 1.409 . S
C593 H585 0.930 . S
C593 C591 1.419 . S
C593 C594 1.362 . S
C594 H586 0.930 . S
C594 C593 1.362 . S
C594 C597 1.409 . S
C595 H587 0.930 . S
C595 C596 1.355 . S
C595 C597 1.415 . S
C596 C595 1.355 . S
C596 C598 1.425 . S
C597 C592 1.425 . S
C597 C594 1.409 . S
C597 C595 1.415 . S
C598 H588 0.913 1_565 S
C598 C596 1.425 . S
C598 C599 1.374 . S
C599 H589 0.930 . S
C599 C592 1.409 . S
C599 C598 1.374 . S
H600 C606 0.930 . S
H601 C609 0.930 . S
H602 C610 0.930 . S
H603 C611 0.930 . S
H604 C614 0.930 . S
H605 C615 0.930 . S
C606 H600 0.930 . S
C606 C607 1.355 . S
C606 C608 1.415 . S
C607 C606 1.355 . S
C607 C609 1.419 . S
C608 C606 1.415 . S
C608 C613 1.425 . S
C608 C615 1.409 . S
C609 H601 0.930 . S
C609 C607 1.419 . S
C609 C610 1.362 . S
C610 H602 0.930 . S
C610 C609 1.362 . S
C610 C613 1.409 . S
C611 H603 0.930 . S
C611 C612 1.355 . S
C611 C613 1.415 . S
C612 C611 1.355 . S
C612 C614 1.419 . S
C613 C608 1.425 . S
C613 C610 1.409 . S
C613 C611 1.415 . S
C614 H604 0.930 . S
C614 C612 1.419 . S
C614 C615 1.362 . S
C615 H605 0.930 . S
C615 C608 1.409 . S
C615 C614 1.362 . S
H616 C622 0.930 . S
H617 C625 0.930 . S
H618 C626 0.930 . S
H619 C627 0.930 . S
H620 C630 0.930 . S
H621 C631 0.930 . S
C622 H616 0.930 . S
C622 C623 1.355 . S
C622 C624 1.415 . S
C623 C622 1.355 . S
C623 C625 1.419 . S
C624 C622 1.415 . S
C624 C629 1.425 . S
C624 C631 1.409 . S
C625 H617 0.930 . S
C625 C623 1.419 . S
C625 C626 1.362 . S
C626 H618 0.930 . S
C626 C625 1.362 . S
C626 C629 1.409 . S
C627 H619 0.930 . S
C627 C628 1.355 . S
C627 C629 1.415 . S
C628 C627 1.355 . S
C628 C630 1.419 . S
C629 C624 1.425 . S
C629 C626 1.409 . S
C629 C627 1.415 . S
C630 H620 0.930 . S
C630 C628 1.419 . S
C630 C631 1.362 . S
C631 H621 0.930 . S
C631 C624 1.409 . S
C631 C630 1.362 . S
H632 C638 0.930 . S
H633 C641 0.930 . S
H634 C642 0.930 . S
H635 C643 0.930 . S
H636 C646 0.930 . S
H637 C647 0.930 . S
C638 H632 0.930 . S
C638 C639 1.355 . S
C638 C640 1.415 . S
C639 C638 1.355 . S
C639 C641 1.419 . S
C640 C638 1.415 . S
C640 C645 1.425 . S
C640 C647 1.409 . S
C641 H633 0.930 . S
C641 C639 1.419 . S
C641 C642 1.362 . S
C642 H634 0.930 . S
C642 C641 1.362 . S
C642 C645 1.409 . S
C643 H635 0.930 . S
C643 C644 1.355 . S
C643 C645 1.415 . S
C644 C643 1.355 . S
C644 C646 1.419 . S
C645 C640 1.425 . S
C645 C642 1.409 . S
C645 C643 1.415 . S
C646 H636 0.930 . S
C646 C644 1.419 . S
C646 C647 1.362 . S
C647 H637 0.930 . S
C647 C640 1.409 . S
C647 C646 1.362 . S
H648 C654 0.930 . S
H649 C657 0.930 . S
H650 C658 0.930 . S
H651 C659 0.930 . S
H652 C662 0.930 . S
H653 C663 0.930 . S
C654 H648 0.930 . S
C654 C655 1.355 . S
C654 C656 1.415 . S
C655 C654 1.355 . S
C655 C657 1.419 . S
C656 C654 1.415 . S
C656 C661 1.425 . S
C656 C663 1.409 . S
C657 H649 0.930 . S
C657 C655 1.419 . S
C657 C658 1.362 . S
C658 H650 0.930 . S
C658 C657 1.362 . S
C658 C661 1.409 . S
C659 H651 0.930 . S
C659 C660 1.355 . S
C659 C661 1.415 . S
C660 C659 1.355 . S
C660 C662 1.419 . S
C661 C656 1.425 . S
C661 C658 1.409 . S
C661 C659 1.415 . S
C662 H652 0.930 . S
C662 C660 1.419 . S
C662 C663 1.362 . S
C663 H653 0.930 . S
C663 C656 1.409 . S
C663 C662 1.362 . S
H664 C670 0.930 . S
H665 C673 0.930 . S
H666 C674 0.930 . S
H667 C675 0.930 . S
H668 C678 0.930 . S
H669 C679 0.930 . S
C670 H664 0.930 . S
C670 C671 1.355 . S
C670 C672 1.415 . S
C671 C670 1.355 . S
C671 C673 1.419 . S
C672 C670 1.415 . S
C672 C677 1.425 . S
C672 C679 1.409 . S
C673 H665 0.930 . S
C673 C671 1.419 . S
C673 C674 1.362 . S
C674 H666 0.930 . S
C674 C673 1.362 . S
C674 C677 1.409 . S
C675 H667 0.930 . S
C675 C676 1.355 . S
C675 C677 1.415 . S
C676 C675 1.355 . S
C676 C678 1.419 . S
C677 C672 1.425 . S
C677 C674 1.409 . S
C677 C675 1.415 . S
C678 H668 0.930 . S
C678 C676 1.419 . S
C678 C679 1.362 . S
C679 H669 0.930 . S
C679 C672 1.409 . S
C679 C678 1.362 . S
H680 C686 0.930 . S
H681 C689 0.930 . S
H682 C690 0.930 . S
H683 C691 0.930 . S
H684 C694 0.930 . S
H685 C695 0.930 . S
C686 H680 0.930 . S
C686 C687 1.355 . S
C686 C688 1.415 . S
C687 C686 1.355 . S
C687 C689 1.419 . S
C688 C686 1.415 . S
C688 C693 1.425 . S
C688 C695 1.409 . S
C689 H681 0.930 . S
C689 C687 1.419 . S
C689 C690 1.362 . S
C690 H682 0.930 . S
C690 C689 1.362 . S
C690 C693 1.409 . S
C691 H683 0.930 . S
C691 C692 1.355 . S
C691 C693 1.415 . S
C692 C691 1.355 . S
C692 C694 1.419 . S
C693 C688 1.425 . S
C693 C690 1.409 . S
C693 C691 1.415 . S
C694 H684 0.930 . S
C694 C692 1.419 . S
C694 C695 1.362 . S
C695 H685 0.930 . S
C695 C688 1.409 . S
C695 C694 1.362 . S
H696 C702 0.930 . S
H697 C705 0.930 . S
H698 C706 0.930 . S
H699 C707 0.930 . S
H700 C710 0.930 . S
H701 C711 0.930 . S
C702 H696 0.930 . S
C702 C703 1.355 . S
C702 C704 1.415 . S
C703 C702 1.355 . S
C703 C705 1.419 . S
C704 C702 1.415 . S
C704 C709 1.425 . S
C704 C711 1.409 . S
C705 H697 0.930 . S
C705 C703 1.419 . S
C705 C706 1.362 . S
C706 H698 0.930 . S
C706 C705 1.362 . S
C706 C709 1.409 . S
C707 H699 0.930 . S
C707 C708 1.355 . S
C707 C709 1.415 . S
C708 C707 1.355 . S
C708 C710 1.419 . S
C709 C704 1.425 . S
C709 C706 1.409 . S
C709 C707 1.415 . S
C710 H700 0.930 . S
C710 C708 1.419 . S
C710 C711 1.362 . S
C711 H701 0.930 . S
C711 C704 1.409 . S
C711 C710 1.362 . S
H712 C718 0.930 1_655 S
H713 C721 0.930 . S
H714 C722 0.930 . S
H715 C723 0.930 1_455 S
H716 C726 0.930 . S
H717 C727 0.930 . S
C718 H712 0.930 1_455 S
C718 C719 1.355 . S
C718 C720 1.415 1_455 S
C719 C718 1.355 . S
C719 C721 1.419 . S
C720 C718 1.415 1_655 S
C720 C725 1.425 1_655 S
C720 C727 1.409 . S
C721 H713 0.930 . S
C721 C719 1.419 . S
C721 C722 1.362 . S
C722 H714 0.930 . S
C722 C721 1.362 . S
C722 C725 1.409 . S
C723 H715 0.930 1_655 S
C723 C724 1.355 . S
C723 C725 1.415 1_655 S
C724 C723 1.355 . S
C724 C726 1.419 . S
C725 C720 1.425 1_455 S
C725 C722 1.409 . S
C725 C723 1.415 1_455 S
C726 H716 0.930 . S
C726 C724 1.419 . S
C726 C727 1.362 . S
C727 H717 0.930 . S
C727 C720 1.409 . S
C727 C726 1.362 . S
H728 C734 0.930 . S
H729 C737 0.930 . S
H730 C738 0.930 . S
H731 C739 0.930 . S
H732 C742 0.930 . S
H733 C743 0.930 . S
C734 H728 0.930 . S
C734 C735 1.355 . S
C734 C736 1.415 . S
C735 C734 1.355 . S
C735 C737 1.419 . S
C736 C734 1.415 . S
C736 C741 1.425 1_565 S
C736 C743 1.409 . S
C737 H729 0.930 . S
C737 C735 1.419 . S
C737 C738 1.362 1_565 S
C738 H730 0.930 . S
C738 C737 1.362 1_545 S
C738 C741 1.409 . S
C739 H731 0.930 . S
C739 C740 1.355 . S
C739 C741 1.415 . S
C740 C739 1.355 . S
C740 C742 1.419 . S
C741 C736 1.425 1_545 S
C741 C738 1.409 . S
C741 C739 1.415 . S
C742 H732 0.930 . S
C742 C740 1.419 . S
C742 C743 1.362 1_545 S
C743 H733 0.930 . S
C743 C736 1.409 . S
C743 C742 1.362 1_565 S
H744 C750 0.930 . S
H745 C753 0.930 . S
H746 C754 0.930 . S
H747 C755 0.930 . S
H748 C758 0.930 . S
H749 C759 0.930 . S
C750 H744 0.930 . S
C750 C751 1.355 . S
C750 C752 1.415 . S
C751 C750 1.355 . S
C751 C753 1.419 . S
C752 C750 1.415 . S
C752 C757 1.425 . S
C752 C759 1.409 . S
C753 H745 0.930 . S
C753 C751 1.419 . S
C753 C754 1.362 . S
C754 H746 0.930 . S
C754 C753 1.362 . S
C754 C757 1.409 . S
C755 H747 0.930 . S
C755 C756 1.355 . S
C755 C757 1.415 . S
C756 C755 1.355 . S
C756 C758 1.419 . S
C757 C752 1.425 . S
C757 C754 1.409 . S
C757 C755 1.415 . S
C758 H748 0.930 . S
C758 C756 1.419 . S
C758 C759 1.362 . S
C759 H749 0.930 . S
C759 C752 1.409 . S
C759 C758 1.362 . S
H760 C766 0.930 . S
H761 C769 0.930 . S
H762 C770 0.930 . S
H763 C771 0.930 . S
H764 C774 0.930 . S
H765 C775 0.930 . S
C766 H760 0.930 . S
C766 C767 1.355 . S
C766 C768 1.415 1_455 S
C767 C766 1.355 . S
C767 C769 1.419 . S
C768 C766 1.415 1_655 S
C768 C773 1.425 1_655 S
C768 C775 1.409 . S
C769 H761 0.930 . S
C769 C767 1.419 . S
C769 C770 1.362 . S
C770 H762 0.930 . S
C770 C769 1.362 . S
C770 C773 1.409 . S
C771 H763 0.930 . S
C771 C772 1.355 . S
C771 C773 1.415 1_655 S
C772 C771 1.355 . S
C772 C774 1.419 . S
C773 C768 1.425 1_455 S
C773 C770 1.409 . S
C773 C771 1.415 1_455 S
C774 H764 0.930 . S
C774 C772 1.419 . S
C774 C775 1.362 . S
C775 H765 0.930 . S
C775 C768 1.409 . S
C775 C774 1.362 . S
H776 C782 0.930 . S
H777 C785 0.931 . S
H778 C786 0.930 . S
H779 C787 0.930 . S
H780 C790 0.931 . S
H781 C791 0.930 . S
C782 H776 0.930 . S
C782 C783 1.355 . S
C782 C784 1.415 1_554 S
C783 C782 1.355 . S
C783 C785 1.416 1_565 S
C784 C782 1.415 1_556 S
C784 C789 1.425 1_566 S
C784 C791 1.409 . S
C785 H777 0.931 . S
C785 C783 1.416 1_545 S
C785 C786 1.365 . S
C786 H778 0.930 . S
C786 C785 1.365 . S
C786 C789 1.409 . S
C787 H779 0.930 . S
C787 C788 1.355 . S
C787 C789 1.415 1_556 S
C788 C787 1.355 . S
C788 C790 1.416 1_545 S
C789 C784 1.425 1_544 S
C789 C786 1.409 . S
C789 C787 1.415 1_554 S
C790 H780 0.931 . S
C790 C788 1.416 1_565 S
C790 C791 1.365 . S
C791 H781 0.930 . S
C791 C784 1.409 . S
C791 C790 1.365 . S
H792 C798 0.930 . S
H793 C801 0.930 . S
H794 C802 0.930 . S
H795 C803 0.930 . S
H796 C806 0.930 . S
H797 C807 0.930 . S
C798 H792 0.930 . S
C798 C799 1.355 . S
C798 C800 1.415 . S
C799 C798 1.355 . S
C799 C801 1.419 . S
C800 C798 1.415 . S
C800 C805 1.425 . S
C800 C807 1.409 . S
C801 H793 0.930 . S
C801 C799 1.419 . S
C801 C802 1.362 . S
C802 H794 0.930 . S
C802 C801 1.362 . S
C802 C805 1.409 . S
C803 H795 0.930 . S
C803 C804 1.355 . S
C803 C805 1.415 . S
C804 C803 1.355 . S
C804 C806 1.419 . S
C805 C800 1.425 . S
C805 C802 1.409 . S
C805 C803 1.415 . S
C806 H796 0.930 . S
C806 C804 1.419 . S
C806 C807 1.362 . S
C807 H797 0.930 . S
C807 C800 1.409 . S
C807 C806 1.362 . S
H808 C814 0.930 . S
H809 C817 0.930 . S
H810 C818 0.930 . S
H811 C819 0.930 . S
H812 C822 0.930 . S
H813 C823 0.930 . S
C814 H808 0.930 . S
C814 C815 1.355 . S
C814 C816 1.415 . S
C815 C814 1.355 . S
C815 C817 1.419 . S
C816 C814 1.415 . S
C816 C821 1.425 . S
C816 C823 1.409 . S
C817 H809 0.930 . S
C817 C815 1.419 . S
C817 C818 1.362 . S
C818 H810 0.930 . S
C818 C817 1.362 . S
C818 C821 1.409 . S
C819 H811 0.930 . S
C819 C820 1.355 . S
C819 C821 1.415 . S
C820 C819 1.355 . S
C820 C822 1.419 . S
C821 C816 1.425 . S
C821 C818 1.409 . S
C821 C819 1.415 . S
C822 H812 0.930 . S
C822 C820 1.419 . S
C822 C823 1.362 . S
C823 H813 0.930 . S
C823 C816 1.409 . S
C823 C822 1.362 . S
H824 C830 0.930 . S
H825 C833 0.930 . S
H826 C834 0.930 . S
H827 C835 0.930 . S
H828 C838 0.930 . S
H829 C839 0.930 . S
C830 H824 0.930 . S
C830 C831 1.355 . S
C830 C832 1.415 . S
C831 C830 1.355 . S
C831 C833 1.419 . S
C832 C830 1.415 . S
C832 C837 1.425 . S
C832 C839 1.409 . S
C833 H825 0.930 . S
C833 C831 1.419 . S
C833 C834 1.362 . S
C834 H826 0.930 . S
C834 C833 1.362 . S
C834 C837 1.409 . S
C835 H827 0.930 . S
C835 C836 1.355 . S
C835 C837 1.415 . S
C836 C835 1.355 . S
C836 C838 1.419 . S
C837 C832 1.425 . S
C837 C834 1.409 . S
C837 C835 1.415 . S
C838 H828 0.930 . S
C838 C836 1.419 . S
C838 C839 1.362 . S
C839 H829 0.930 . S
C839 C832 1.409 . S
C839 C838 1.362 . S
H840 C846 0.930 . S
H841 C849 0.930 . S
H842 C850 0.930 . S
H843 C851 0.930 . S
H844 C854 0.930 . S
H845 C855 0.930 . S
C846 H840 0.930 . S
C846 C847 1.355 . S
C846 C848 1.415 . S
C847 C846 1.355 . S
C847 C849 1.419 . S
C848 C846 1.415 . S
C848 C853 1.425 . S
C848 C855 1.409 . S
C849 H841 0.930 . S
C849 C847 1.419 . S
C849 C850 1.362 . S
C850 H842 0.930 . S
C850 C849 1.362 . S
C850 C853 1.409 . S
C851 H843 0.930 . S
C851 C852 1.355 . S
C851 C853 1.415 . S
C852 C851 1.355 . S
C852 C854 1.419 . S
C853 C848 1.425 . S
C853 C850 1.409 . S
C853 C851 1.415 . S
C854 H844 0.930 . S
C854 C852 1.419 . S
C854 C855 1.362 . S
C855 H845 0.930 . S
C855 C848 1.409 . S
C855 C854 1.362 . S
H856 C862 0.930 . S
H857 C865 0.930 . S
H858 C866 0.930 . S
H859 C867 0.930 . S
H860 C870 0.930 . S
H861 C871 0.930 . S
C862 H856 0.930 . S
C862 C863 1.355 . S
C862 C864 1.415 . S
C863 C862 1.355 . S
C863 C865 1.419 . S
C864 C862 1.415 . S
C864 C869 1.425 . S
C864 C871 1.409 . S
C865 H857 0.930 . S
C865 C863 1.419 . S
C865 C866 1.362 . S
C866 H858 0.930 . S
C866 C865 1.362 . S
C866 C869 1.409 . S
C867 H859 0.930 . S
C867 C868 1.355 . S
C867 C869 1.415 . S
C868 C867 1.355 . S
C868 C870 1.419 . S
C869 C864 1.425 . S
C869 C866 1.409 . S
C869 C867 1.415 . S
C870 H860 0.930 . S
C870 C868 1.419 . S
C870 C871 1.362 . S
C871 H861 0.930 . S
C871 C864 1.409 . S
C871 C870 1.362 . S
H872 C878 0.930 . S
H873 C881 0.930 . S
H874 C882 0.930 . S
H875 C883 0.930 . S
H876 C886 0.930 . S
H877 C887 0.930 . S
C878 H872 0.930 . S
C878 C879 1.355 . S
C878 C880 1.415 . S
C879 C878 1.355 . S
C879 C881 1.419 . S
C880 C878 1.415 . S
C880 C885 1.425 . S
C880 C887 1.409 . S
C881 H873 0.930 . S
C881 C879 1.419 . S
C881 C882 1.362 . S
C882 H874 0.930 . S
C882 C881 1.362 . S
C882 C885 1.409 . S
C883 H875 0.930 . S
C883 C884 1.355 . S
C883 C885 1.415 . S
C884 C883 1.355 . S
C884 C886 1.419 . S
C885 C880 1.425 . S
C885 C882 1.409 . S
C885 C883 1.415 . S
C886 H876 0.930 . S
C886 C884 1.419 . S
C886 C887 1.362 . S
C887 H877 0.930 . S
C887 C880 1.409 . S
C887 C886 1.362 . S
C415 C172 1.310 . S
C420 C5 1.331 . S
C431 C2 1.325 . S
C436 C39 1.304 1_455 S
C447 C36 1.311 . S
C452 C73 1.334 1_545 S
C463 C107 1.321 . S
C468 C70 1.309 . S
C479 C141 1.350 1_655 S
C484 C104 1.357 . S
C495 C138 1.311 . S
C500 C175 1.316 1_565 S
C511 C240 1.359 . S
C516 C209 1.343 . S
C527 C274 1.359 . S
C532 C243 1.332 1_455 S
C543 C308 1.359 . S
C548 C277 1.344 1_545 S
C559 C342 1.313 . S
C564 C311 1.311 . S
C575 C376 1.310 . S
C580 C345 1.332 1_655 S
C591 C206 1.313 . S
C596 C379 1.312 1_565 S
C607 C281 1.297 . S
C612 C9 1.228 . S
C623 C43 1.302 . S
C628 C315 1.249 . S
C639 C77 1.281 . S
C644 C349 1.285 . S
C655 C111 1.233 . S
C660 C383 1.253 . S
C671 C145 1.231 . S
C676 C213 1.255 . S
C687 C247 1.295 . S
C692 C179 1.227 . S
C703 C339 1.514 . S
C708 C33 1.515 . S
C719 C373 1.514 . S
C724 C67 1.514 . S
C735 C101 1.523 . S
C740 C407 1.520 . S
C751 C135 1.519 . S
C756 C237 1.522 . S
C767 C169 1.516 . S
C772 C271 1.514 . S
C783 C305 1.524 . S
C788 C203 1.523 . S
C799 C20 1.597 . S
C804 C224 1.591 . S
C815 C258 1.620 . S
C820 C54 1.624 . S
C831 C88 1.593 . S
C836 C292 1.589 . S
C847 C326 1.619 . S
C852 C122 1.611 . S
C863 C360 1.603 . S
C868 C156 1.613 . S
C879 C394 1.619 . S
C884 C190 1.623 . S
