# Generated by pormake.
# Topology yfl, (5)-cn, num edge types: 1
# Building blocks:
#     Node 0, Type 0, BuildingBlock: XOMCOT_clean_sbu_0, # of connection points: 5
#     Node 1, Type 0, BuildingBlock: XOMCOT_clean_sbu_0, # of connection points: 5
#     Node 2, Type 0, BuildingBlock: XOMCOT_clean_sbu_0, # of connection points: 5
#     Node 3, Type 0, BuildingBlock: XOMCOT_clean_sbu_0, # of connection points: 5
#     Node 4, Type 0, BuildingBlock: XOMCOT_clean_sbu_0, # of connection points: 5
#     Node 5, Type 0, BuildingBlock: XOMCOT_clean_sbu_0, # of connection points: 5
#     Node 6, Type 0, BuildingBlock: XOMCOT_clean_sbu_0, # of connection points: 5
#     Node 7, Type 0, BuildingBlock: XOMCOT_clean_sbu_0, # of connection points: 5
#     Node 8, Type 0, BuildingBlock: XOMCOT_clean_sbu_0, # of connection points: 5
#     Node 9, Type 0, BuildingBlock: XOMCOT_clean_sbu_0, # of connection points: 5
#     Node 10, Type 0, BuildingBlock: XOMCOT_clean_sbu_0, # of connection points: 5
#     Node 11, Type 0, BuildingBlock: XOMCOT_clean_sbu_0, # of connection points: 5
#     Node 12, Type 0, BuildingBlock: XOMCOT_clean_sbu_0, # of connection points: 5
#     Node 13, Type 0, BuildingBlock: XOMCOT_clean_sbu_0, # of connection points: 5
#     Node 14, Type 0, BuildingBlock: XOMCOT_clean_sbu_0, # of connection points: 5
#     Node 15, Type 0, BuildingBlock: XOMCOT_clean_sbu_0, # of connection points: 5
#     Edge 16, Type (0, 0), BuildingBlock: CIFDUS_clean_linker_0, # of connection points: 2
#     Edge 17, Type (0, 0), BuildingBlock: CIFDUS_clean_linker_0, # of connection points: 2
#     Edge 18, Type (0, 0), BuildingBlock: CIFDUS_clean_linker_0, # of connection points: 2
#     Edge 19, Type (0, 0), BuildingBlock: CIFDUS_clean_linker_0, # of connection points: 2
#     Edge 20, Type (0, 0), BuildingBlock: CIFDUS_clean_linker_0, # of connection points: 2
#     Edge 21, Type (0, 0), BuildingBlock: CIFDUS_clean_linker_0, # of connection points: 2
#     Edge 22, Type (0, 0), BuildingBlock: CIFDUS_clean_linker_0, # of connection points: 2
#     Edge 23, Type (0, 0), BuildingBlock: CIFDUS_clean_linker_0, # of connection points: 2
#     Edge 24, Type (0, 0), BuildingBlock: CIFDUS_clean_linker_0, # of connection points: 2
#     Edge 25, Type (0, 0), BuildingBlock: CIFDUS_clean_linker_0, # of connection points: 2
#     Edge 26, Type (0, 0), BuildingBlock: CIFDUS_clean_linker_0, # of connection points: 2
#     Edge 27, Type (0, 0), BuildingBlock: CIFDUS_clean_linker_0, # of connection points: 2
#     Edge 28, Type (0, 0), BuildingBlock: CIFDUS_clean_linker_0, # of connection points: 2
#     Edge 29, Type (0, 0), BuildingBlock: CIFDUS_clean_linker_0, # of connection points: 2
#     Edge 30, Type (0, 0), BuildingBlock: CIFDUS_clean_linker_0, # of connection points: 2
#     Edge 31, Type (0, 0), BuildingBlock: CIFDUS_clean_linker_0, # of connection points: 2
#     Edge 32, Type (0, 0), BuildingBlock: CIFDUS_clean_linker_0, # of connection points: 2
#     Edge 33, Type (0, 0), BuildingBlock: CIFDUS_clean_linker_0, # of connection points: 2
#     Edge 34, Type (0, 0), BuildingBlock: CIFDUS_clean_linker_0, # of connection points: 2
#     Edge 35, Type (0, 0), BuildingBlock: CIFDUS_clean_linker_0, # of connection points: 2
#     Edge 36, Type (0, 0), BuildingBlock: CIFDUS_clean_linker_0, # of connection points: 2
#     Edge 37, Type (0, 0), BuildingBlock: CIFDUS_clean_linker_0, # of connection points: 2
#     Edge 38, Type (0, 0), BuildingBlock: CIFDUS_clean_linker_0, # of connection points: 2
#     Edge 39, Type (0, 0), BuildingBlock: CIFDUS_clean_linker_0, # of connection points: 2
#     Edge 40, Type (0, 0), BuildingBlock: CIFDUS_clean_linker_0, # of connection points: 2
#     Edge 41, Type (0, 0), BuildingBlock: CIFDUS_clean_linker_0, # of connection points: 2
#     Edge 42, Type (0, 0), BuildingBlock: CIFDUS_clean_linker_0, # of connection points: 2
#     Edge 43, Type (0, 0), BuildingBlock: CIFDUS_clean_linker_0, # of connection points: 2
#     Edge 44, Type (0, 0), BuildingBlock: CIFDUS_clean_linker_0, # of connection points: 2
#     Edge 45, Type (0, 0), BuildingBlock: CIFDUS_clean_linker_0, # of connection points: 2
#     Edge 46, Type (0, 0), BuildingBlock: CIFDUS_clean_linker_0, # of connection points: 2
#     Edge 47, Type (0, 0), BuildingBlock: CIFDUS_clean_linker_0, # of connection points: 2
#     Edge 48, Type (0, 0), BuildingBlock: CIFDUS_clean_linker_0, # of connection points: 2
#     Edge 49, Type (0, 0), BuildingBlock: CIFDUS_clean_linker_0, # of connection points: 2
#     Edge 50, Type (0, 0), BuildingBlock: CIFDUS_clean_linker_0, # of connection points: 2
#     Edge 51, Type (0, 0), BuildingBlock: CIFDUS_clean_linker_0, # of connection points: 2
#     Edge 52, Type (0, 0), BuildingBlock: CIFDUS_clean_linker_0, # of connection points: 2
#     Edge 53, Type (0, 0), BuildingBlock: CIFDUS_clean_linker_0, # of connection points: 2
#     Edge 54, Type (0, 0), BuildingBlock: CIFDUS_clean_linker_0, # of connection points: 2
#     Edge 55, Type (0, 0), BuildingBlock: CIFDUS_clean_linker_0, # of connection points: 2
# Relax obj value: 0.340
# Max RMSD: 0.256
# Mean RMSD: 0.256
data_MOF--net-yfl--node1-XOMCOT_clean_sbu_0--edge1-CIFDUS_clean_linker_0
_symmetry_space_group_name_H-M    P1
_symmetry_Int_Tables_number       1
_symmetry_cell_setting            triclinic
loop_
_symmetry_equiv_pos_as_xyz
'x, y, z'
_cell_length_a     27.013904
_cell_length_b     27.007324
_cell_length_c     92.003603
_cell_angle_alpha  90.019394
_cell_angle_beta   90.043893
_cell_angle_gamma 89.943372
loop_
_atom_site_label
_atom_site_type_symbol
_atom_site_fract_x
_atom_site_fract_y
_atom_site_fract_z
_atom_type_partial_charge
Co0 Co 0.04093 0.30996 0.31429 0.0
C1 C 0.11916 0.29089 0.33623 0.0
C2 C 0.14535 0.33565 0.31868 0.0
C3 C 0.18115 0.33446 0.32929 0.0
N4 N 0.1067 0.30746 0.32285 0.0
N5 N 0.16451 0.30657 0.34041 0.0
H6 H 0.09424 0.27123 0.34328 0.0
H7 H 0.14589 0.35923 0.30919 0.0
C8 C 0.10687 0.30115 0.28772 0.0
O9 O 0.13272 0.26521 0.29366 0.0
N10 N 0.97522 0.31381 0.3059 0.0
C11 C 0.93237 0.29921 0.31209 0.0
C12 C 0.89437 0.30598 0.30225 0.0
C13 C 0.96279 0.32894 0.29242 0.0
N14 N 0.91383 0.32426 0.28989 0.0
C15 C 0.03425 0.2099 0.32428 0.0
C16 C 0.02537 0.16656 0.29717 0.0
C17 C 0.02276 0.1367 0.30957 0.0
C18 C 0.02725 0.1589 0.32326 0.0
C19 C 0.03192 0.21755 0.2987 0.0
N20 N 0.038 0.2385 0.31212 0.0
H21 H 0.0342 0.22647 0.33491 0.0
H22 H 0.02991 0.24018 0.28907 0.0
H23 H 0.92905 0.2836 0.32286 0.0
H24 H 0.98884 0.34265 0.28449 0.0
O25 O 0.01207 0.31706 0.33355 0.0
O26 O 0.03797 0.37839 0.31933 0.0
O27 O 0.07021 0.32015 0.29443 0.0
C28 C 0.01857 0.36434 0.33156 0.0
H29 H 0.21488 0.35605 0.32931 0.0
H30 H 0.85585 0.29641 0.30384 0.0
H31 H 0.02021 0.15097 0.28643 0.0
H32 H 0.02446 0.13717 0.33311 0.0
Co33 Co 0.33123 0.92451 0.68518 0.0
C34 C 0.30115 0.84252 0.66631 0.0
C35 C 0.33926 0.81585 0.68523 0.0
C36 C 0.33089 0.77655 0.676 0.0
N37 N 0.32063 0.85707 0.6791 0.0
N38 N 0.30735 0.79349 0.66402 0.0
H39 H 0.28498 0.86795 0.65857 0.0
H40 H 0.36027 0.81485 0.69523 0.0
C41 C 0.31621 0.91829 0.71789 0.0
O42 O 0.28569 0.95622 0.71768 0.0
N43 N 0.34323 0.99306 0.69101 0.0
C44 C 0.33587 0.03418 0.68289 0.0
C45 C 0.35203 0.07502 0.69047 0.0
C46 C 0.36611 0.00972 0.70314 0.0
N47 N 0.37048 0.05948 0.70324 0.0
C48 C 0.23879 0.96461 0.67567 0.0
C49 C 0.17938 0.91057 0.69426 0.0
C50 C 0.15752 0.94361 0.68447 0.0
C51 C 0.18763 0.97032 0.67496 0.0
C52 C 0.23078 0.90519 0.69438 0.0
N53 N 0.26001 0.93388 0.68566 0.0
H54 H 0.26104 0.98359 0.66776 0.0
H55 H 0.24683 0.87703 0.70124 0.0
H56 H 0.32134 0.035 0.67198 0.0
H57 H 0.3807 0.98622 0.71162 0.0
O58 O 0.3441 0.9431 0.66513 0.0
O59 O 0.40024 0.91705 0.68108 0.0
O60 O 0.33457 0.90157 0.70606 0.0
C61 C 0.38995 0.93203 0.668 0.0
H62 H 0.34438 0.73917 0.67753 0.0
H63 H 0.34976 0.11322 0.68696 0.0
H64 H 0.15685 0.888 0.70139 0.0
H65 H 0.1717 0.99516 0.66698 0.0
Co66 Co 0.92557 0.6791 0.31629 0.0
C67 C 0.84532 0.69432 0.33794 0.0
C68 C 0.81929 0.65687 0.31892 0.0
C69 C 0.78142 0.65851 0.32888 0.0
N70 N 0.85911 0.68061 0.3244 0.0
N71 N 0.79798 0.68186 0.34087 0.0
H72 H 0.87 0.71012 0.34589 0.0
H73 H 0.81859 0.63645 0.30883 0.0
C74 C 0.86334 0.69474 0.28908 0.0
O75 O 0.83823 0.7312 0.29502 0.0
N76 N 0.9917 0.67622 0.3082 0.0
C77 C 0.03421 0.69149 0.31445 0.0
C78 C 0.0721 0.68732 0.30444 0.0
C79 C 0.00423 0.66301 0.29456 0.0
N80 N 0.05282 0.6699 0.29194 0.0
C81 C 0.9298 0.77697 0.32808 0.0
C82 C 0.94305 0.82588 0.302 0.0
C83 C 0.94148 0.85346 0.3149 0.0
C84 C 0.93516 0.82825 0.32806 0.0
C85 C 0.93763 0.77451 0.30252 0.0
N86 N 0.92908 0.75083 0.3154 0.0
H87 H 0.92842 0.75826 0.33837 0.0
H88 H 0.94169 0.75381 0.29256 0.0
H89 H 0.03719 0.70634 0.32534 0.0
H90 H 0.97838 0.64958 0.28652 0.0
O91 O 0.95309 0.66821 0.33555 0.0
O92 O 0.92763 0.6098 0.32021 0.0
O93 O 0.89775 0.67307 0.29611 0.0
C94 C 0.94634 0.62143 0.33277 0.0
H95 H 0.74569 0.64078 0.32779 0.0
H96 H 0.11022 0.69846 0.306 0.0
H97 H 0.94879 0.84369 0.29159 0.0
H98 H 0.9361 0.84774 0.33835 0.0
Co99 Co 0.69547 0.00665 0.68421 0.0
C100 C 0.70403 0.08569 0.66215 0.0
C101 C 0.6785 0.11575 0.68231 0.0
C102 C 0.67838 0.15292 0.67205 0.0
N103 N 0.69592 0.07361 0.67622 0.0
N104 N 0.69413 0.13361 0.65941 0.0
H105 H 0.71477 0.05961 0.65381 0.0
H106 H 0.66303 0.11913 0.69305 0.0
C107 C 0.69982 0.06255 0.71307 0.0
O108 O 0.74052 0.08609 0.70944 0.0
N109 N 0.6937 0.94004 0.69181 0.0
C110 C 0.72276 0.90165 0.68801 0.0
C111 C 0.71448 0.8633 0.69759 0.0
C112 C 0.66728 0.9243 0.70327 0.0
N113 N 0.67988 0.87778 0.70731 0.0
C114 C 0.7972 0.01927 0.67637 0.0
C115 C 0.83634 0.98735 0.70253 0.0
C116 C 0.86859 -0.00147 0.69106 0.0
C117 C 0.84834 0.01561 0.67794 0.0
C118 C 0.78537 0.99233 0.70056 0.0
N119 N 0.76634 0.00823 0.68761 0.0
H120 H 0.78254 0.02915 0.66589 0.0
H121 H 0.76104 0.98147 0.70931 0.0
H122 H 0.75011 0.90257 0.67943 0.0
H123 H 0.64057 0.94739 0.70877 0.0
O124 O 0.69433 0.97863 0.66472 0.0
O125 O 0.62873 0.00021 0.67796 0.0
O126 O 0.67957 0.03225 0.70425 0.0
C127 C 0.64638 0.98213 0.66595 0.0
H128 H 0.66431 0.19016 0.67348 0.0
H129 H 0.73472 0.82873 0.69786 0.0
H130 H 0.85008 0.97295 0.71275 0.0
H131 H 0.87169 0.0251 0.66879 0.0
Co132 Co 0.04236 0.1748 0.93191 0.0
C133 C 0.11507 0.19962 0.90886 0.0
C134 C 0.15112 0.17241 0.92795 0.0
C135 C 0.18612 0.17881 0.91728 0.0
N136 N 0.10647 0.18665 0.92284 0.0
N137 N 0.16339 0.19581 0.90524 0.0
H138 H 0.08621 0.20886 0.9012 0.0
H139 H 0.15784 0.15458 0.93825 0.0
C140 C 0.10301 0.18922 0.95949 0.0
O141 O 0.11855 0.23341 0.95566 0.0
N142 N 0.97895 0.1613 0.94082 0.0
C143 C 0.93565 0.18411 0.93791 0.0
C144 C 0.9006 0.16758 0.94763 0.0
C145 C 0.96953 0.13033 0.95197 0.0
N146 N 0.92203 0.13377 0.95639 0.0
C147 C 0.03376 0.27689 0.92403 0.0
C148 C 0.00433 0.3105 0.95107 0.0
C149 C 0.00685 0.34408 0.93949 0.0
C150 C 0.02236 0.32673 0.92587 0.0
C151 C 0.01685 0.261 0.94879 0.0
N152 N 0.03205 0.24485 0.93544 0.0
H153 H 0.04216 0.26397 0.91327 0.0
H154 H 0.01266 0.23524 0.95769 0.0
H155 H 0.9305 0.21221 0.92967 0.0
H156 H -0.00273 0.10743 0.95717 0.0
O157 O 0.01085 0.16856 0.91303 0.0
O158 O 0.04636 0.10781 0.92565 0.0
O159 O 0.07438 0.16425 0.95128 0.0
C160 C 0.02222 0.12178 0.91414 0.0
H161 H 0.22465 0.16809 0.91804 0.0
H162 H 0.86258 0.18001 0.94841 0.0
H163 H 0.99132 0.3219 0.96169 0.0
H164 H 0.02511 0.35124 0.91659 0.0
Co165 Co 0.18268 0.96869 0.062 0.0
C166 C 0.18102 0.89283 0.08496 0.0
C167 C 0.14664 0.86507 0.06569 0.0
C168 C 0.14039 0.83082 0.07668 0.0
N169 N 0.17335 0.90365 0.07079 0.0
N170 N 0.16176 0.84883 0.0888 0.0
H171 H 0.19774 0.91791 0.09266 0.0
H172 H 0.12929 0.8632 0.05514 0.0
C173 C 0.18151 0.90693 0.03428 0.0
O174 O 0.21653 0.87747 0.03915 0.0
N175 N 0.19041 0.03365 0.05362 0.0
C176 C 0.22285 0.06918 0.05748 0.0
C177 C 0.21941 0.1075 0.0476 0.0
C178 C 0.1671 0.05095 0.04177 0.0
N179 N 0.18465 0.09555 0.03766 0.0
C180 C 0.28146 0.94509 0.07097 0.0
C181 C 0.32619 0.96692 0.04474 0.0
C182 C 0.35592 0.95495 0.05674 0.0
C183 C 0.3327 0.94247 0.06985 0.0
C184 C 0.27479 0.96784 0.04625 0.0
N185 N 0.25298 0.95719 0.05927 0.0
H186 H 0.26525 0.93981 0.08148 0.0
H187 H 0.25265 0.9797 0.0371 0.0
H188 H 0.24871 0.06637 0.06643 0.0
H189 H 0.13859 0.03067 0.03608 0.0
O190 O 0.18356 -0.00091 0.08119 0.0
O191 O 0.11692 0.98498 0.06749 0.0
O192 O 0.16551 0.94246 0.04211 0.0
C193 C 0.13572 0.00159 0.07953 0.0
H194 H 0.11883 0.79711 0.07608 0.0
H195 H 0.24249 0.14021 0.04731 0.0
H196 H 0.34235 0.97795 0.03448 0.0
H197 H 0.35394 0.93251 0.0794 0.0
Co198 Co 0.93801 0.80304 0.937 0.0
C199 C 0.85321 0.78489 0.91769 0.0
C200 C 0.83181 0.826 0.93665 0.0
C201 C 0.79141 0.82185 0.9276 0.0
N202 N 0.87037 0.80282 0.93039 0.0
N203 N 0.80492 0.79617 0.91563 0.0
H204 H 0.87624 0.7653 0.90999 0.0
H205 H 0.83349 0.84642 0.94675 0.0
C206 C 0.93196 0.78341 0.96906 0.0
O207 O 0.96963 0.75278 0.96817 0.0
N208 N 0.0066 0.80477 0.94366 0.0
C209 C 0.04645 0.78135 0.93811 0.0
C210 C 0.08679 0.79064 0.94683 0.0
C211 C 0.02424 0.83031 0.9552 0.0
N212 N 0.07264 0.82076 0.95777 0.0
C213 C 0.96225 0.70841 0.92501 0.0
C214 C 0.90809 0.65228 0.94441 0.0
C215 C 0.93645 0.62859 0.9338 0.0
C216 C 0.96266 0.65706 0.92375 0.0
C217 C 0.90782 0.70386 0.94505 0.0
N218 N 0.93756 0.73118 0.93609 0.0
H219 H 0.9815 0.72978 0.9169 0.0
H220 H 0.88296 0.72147 0.95261 0.0
H221 H 0.04698 0.75883 0.92846 0.0
H222 H 0.00121 0.85321 0.96207 0.0
O223 O 0.96029 0.81737 0.91744 0.0
O224 O 0.94012 0.8733 0.93417 0.0
O225 O 0.91406 0.80422 0.95775 0.0
C226 C 0.95496 0.86359 0.92104 0.0
H227 H 0.75568 0.83889 0.9294 0.0
H228 H 0.12355 0.77559 0.94531 0.0
H229 H 0.88581 0.63114 0.95198 0.0
H230 H 0.98389 0.63974 0.91515 0.0
Co231 Co 0.81569 0.04343 0.06324 0.0
C232 C 0.78304 0.11569 0.08445 0.0
C233 C 0.81291 0.15264 0.06578 0.0
C234 C 0.80424 0.18736 0.07654 0.0
N235 N 0.79976 0.1078 0.07089 0.0
N236 N 0.78614 0.16364 0.0883 0.0
H237 H 0.77246 0.08627 0.0918 0.0
H238 H 0.8311 0.15913 0.05549 0.0
C239 C 0.8023 0.04895 0.03086 0.0
O240 O 0.78204 0.00475 0.03097 0.0
N241 N 0.8325 0.97787 0.05603 0.0
C242 C 0.81346 0.93404 0.06031 0.0
C243 C 0.83341 0.89698 0.05196 0.0
C244 C 0.86595 0.96631 0.04564 0.0
N245 N 0.86605 0.91735 0.0427 0.0
C246 C 0.72679 0.00085 0.07461 0.0
C247 C 0.66293 0.04031 0.0542 0.0
C248 C 0.6441 0.00976 0.06512 0.0
C249 C 0.67636 0.99063 0.07559 0.0
C250 C 0.71348 0.05033 0.0538 0.0
N251 N 0.74529 0.02829 0.06339 0.0
H252 H 0.75088 0.98686 0.08301 0.0
H253 H 0.72621 0.07726 0.04604 0.0
H254 H 0.78648 0.92855 0.06874 0.0
H255 H 0.88717 0.99349 0.03965 0.0
O256 O 0.83382 0.02123 0.08263 0.0
O257 O 0.88435 0.05634 0.06665 0.0
O258 O 0.81403 0.07061 0.04274 0.0
C259 C 0.87778 0.0376 0.0795 0.0
H260 H 0.81463 0.22605 0.07623 0.0
H261 H 0.82353 0.85815 0.05231 0.0
H262 H 0.63852 0.05769 0.04636 0.0
H263 H 0.66274 0.968 0.08444 0.0
Co264 Co 0.55664 0.82069 0.81627 0.0
C265 C 0.63696 0.7832 0.83521 0.0
C266 C 0.66502 0.81676 0.81582 0.0
C267 C 0.70418 0.80674 0.82489 0.0
N268 N 0.62281 0.80127 0.82216 0.0
N269 N 0.68651 0.78604 0.83717 0.0
H270 H 0.61136 0.77183 0.84355 0.0
H271 H 0.66701 0.83811 0.80591 0.0
C272 C 0.6037 0.79234 0.78697 0.0
O273 O 0.62548 0.75179 0.7916 0.0
N274 N 0.49077 0.8412 0.81031 0.0
C275 C 0.44998 0.84555 0.81868 0.0
C276 C 0.41097 0.86118 0.81011 0.0
C277 C 0.47588 0.85379 0.7968 0.0
N278 N 0.42747 0.86588 0.79636 0.0
C279 C 0.52633 0.73064 0.82995 0.0
C280 C 0.50895 0.67752 0.8048 0.0
C281 C 0.50473 0.65311 0.81823 0.0
C282 C 0.51178 0.6812 0.83092 0.0
C283 C 0.52194 0.72752 0.80436 0.0
N284 N 0.53375 0.75252 0.81678 0.0
H285 H 0.53137 0.75134 0.83985 0.0
H286 H 0.52233 0.74574 0.79395 0.0
H287 H 0.44843 0.83753 0.83018 0.0
H288 H 0.49968 0.85453 0.78737 0.0
O289 O 0.54217 0.84135 0.83614 0.0
O290 O 0.57545 0.88816 0.81889 0.0
O291 O 0.57629 0.81801 0.79533 0.0
C292 C 0.56037 0.88394 0.8322 0.0
H293 H 0.74209 0.81817 0.82313 0.0
H294 H 0.37322 0.86737 0.81361 0.0
H295 H 0.50332 0.65834 0.79461 0.0
H296 H 0.50629 0.66536 0.8416 0.0
Co297 Co 0.7861 0.42417 0.19036 0.0
C298 C 0.76766 0.35362 0.16689 0.0
C299 C 0.7845 0.31549 0.18675 0.0
C300 C 0.77803 0.28102 0.17586 0.0
N301 N 0.77803 0.36087 0.18104 0.0
N302 N 0.76775 0.30513 0.16333 0.0
H303 H 0.76224 0.38356 0.15925 0.0
H304 H 0.7944 0.30788 0.19792 0.0
C305 C 0.75607 0.40782 0.22155 0.0
O306 O 0.72706 0.44689 0.22117 0.0
N307 N 0.79496 0.48861 0.19955 0.0
C308 C 0.78191 0.53347 0.19432 0.0
C309 C 0.79505 0.56928 0.2042 0.0
C310 C 0.81828 0.49834 0.21223 0.0
N311 N 0.81749 0.54713 0.21553 0.0
C312 C 0.7012 0.46845 0.17704 0.0
C313 C 0.63096 0.41646 0.19256 0.0
C314 C 0.61553 0.45373 0.18298 0.0
C315 C 0.65128 0.47888 0.17484 0.0
C316 C 0.68137 0.40733 0.19441 0.0
N317 N 0.71587 0.43574 0.18749 0.0
H318 H 0.72798 0.48646 0.17017 0.0
H319 H 0.69239 0.37712 0.20135 0.0
H320 H 0.76511 0.5407 0.18393 0.0
H321 H 0.8346 0.47012 0.21906 0.0
O322 O 0.81182 0.45175 0.17242 0.0
O323 O 0.85631 0.4157 0.1898 0.0
O324 O 0.77703 0.39231 0.20996 0.0
C325 C 0.85483 0.43734 0.17722 0.0
H326 H 0.78151 0.24136 0.17711 0.0
H327 H 0.78904 0.6087 0.20302 0.0
H328 H 0.60444 0.39506 0.19875 0.0
H329 H 0.64076 0.50611 0.16676 0.0
Co330 Co 0.4532 0.18709 0.80975 0.0
C331 C 0.37467 0.21254 0.83056 0.0
C332 C 0.34653 0.16922 0.81284 0.0
C333 C 0.30961 0.17484 0.823 0.0
N334 N 0.38724 0.19282 0.81762 0.0
N335 N 0.32742 0.20173 0.83423 0.0
H336 H 0.40056 0.23215 0.83744 0.0
H337 H 0.34473 0.1466 0.80316 0.0
C338 C 0.43105 0.19725 0.77744 0.0
O339 O 0.46269 0.23382 0.77591 0.0
N340 N 0.52038 0.17941 0.80198 0.0
C341 C 0.5633 0.18723 0.8092 0.0
C342 C 0.60254 0.17579 0.80031 0.0
C343 C 0.53475 0.16005 0.78906 0.0
N344 N 0.58455 0.15896 0.7876 0.0
C345 C 0.49276 0.28403 0.81482 0.0
C346 C 0.41746 0.33595 0.80136 0.0
C347 C 0.45617 0.36251 0.80793 0.0
C348 C 0.49443 0.33552 0.81456 0.0
C349 C 0.41801 0.28414 0.80153 0.0
N350 N 0.45593 0.25876 0.80796 0.0
H351 H 0.5204 0.26482 0.82101 0.0
H352 H 0.38712 0.26439 0.79683 0.0
H353 H 0.56655 0.19863 0.8204 0.0
H354 H 0.50974 0.14591 0.78094 0.0
O355 O 0.47896 0.17932 0.82939 0.0
O356 O 0.45304 0.11871 0.81484 0.0
O357 O 0.42358 0.17802 0.7899 0.0
C358 C 0.47033 0.13234 0.82739 0.0
H359 H 0.2737 0.15718 0.82259 0.0
H360 H 0.64134 0.17832 0.80315 0.0
H361 H 0.38626 0.35479 0.79646 0.0
H362 H 0.52548 0.35375 0.81972 0.0
Co363 Co 0.17218 0.58223 0.19051 0.0
C364 C 0.18094 0.65439 0.16708 0.0
C365 C 0.15009 0.68777 0.18622 0.0
C366 C 0.1477 0.72143 0.17498 0.0
N367 N 0.17091 0.64589 0.18118 0.0
N368 N 0.16672 0.70016 0.1629 0.0
H369 H 0.1962 0.62658 0.1599 0.0
H370 H 0.13481 0.69238 0.197 0.0
C371 C 0.20484 0.60091 0.22126 0.0
O372 O 0.23677 0.56428 0.22034 0.0
N373 N 0.17213 0.51741 0.19979 0.0
C374 C 0.1917 0.47449 0.19493 0.0
C375 C 0.18187 0.43761 0.20481 0.0
C376 C 0.14882 0.50528 0.21228 0.0
N377 N 0.15518 0.45707 0.21578 0.0
C378 C 0.25884 0.54794 0.17584 0.0
C379 C 0.32646 0.60344 0.19136 0.0
C380 C 0.34367 0.56734 0.18165 0.0
C381 C 0.30914 0.54101 0.17336 0.0
C382 C 0.2756 0.60928 0.19344 0.0
N383 N 0.24274 0.5786 0.18664 0.0
H384 H 0.23286 0.5278 0.1692 0.0
H385 H 0.26297 0.63812 0.20065 0.0
H386 H 0.21076 0.46912 0.18479 0.0
H387 H 0.12838 0.53161 0.2188 0.0
O388 O 0.14701 0.55201 0.17286 0.0
O389 O 0.1014 0.58257 0.19088 0.0
O390 O 0.18098 0.61512 0.21 0.0
C391 C 0.10348 0.56174 0.17818 0.0
H392 H 0.13036 0.75752 0.17547 0.0
H393 H 0.19279 0.3992 0.20382 0.0
H394 H 0.3519 0.62581 0.19766 0.0
H395 H 0.32089 0.51466 0.16518 0.0
Co396 Co 0.56387 0.70468 0.44368 0.0
C397 C 0.64751 0.70717 0.42359 0.0
C398 C 0.66618 0.66646 0.44287 0.0
C399 C 0.70517 0.66325 0.43323 0.0
N400 N 0.63022 0.69402 0.43675 0.0
N401 N 0.69307 0.68854 0.42107 0.0
H402 H 0.62632 0.72858 0.41583 0.0
H403 H 0.66339 0.648 0.45326 0.0
C404 C 0.5723 0.71546 0.47625 0.0
O405 O 0.53797 0.74989 0.47634 0.0
N406 N 0.49622 0.71478 0.45031 0.0
C407 C 0.46235 0.747 0.44509 0.0
C408 C 0.41927 0.74219 0.45289 0.0
C409 C 0.47213 0.68899 0.46069 0.0
N410 N 0.42562 0.70606 0.4628 0.0
C411 C 0.55753 0.80278 0.43219 0.0
C412 C 0.60631 0.84978 0.45469 0.0
C413 C 0.58125 0.87816 0.44432 0.0
C414 C 0.5589 0.85426 0.43254 0.0
C415 C 0.6048 0.79826 0.45373 0.0
N416 N 0.57637 0.77557 0.4434 0.0
H417 H 0.53894 0.78499 0.42323 0.0
H418 H 0.6259 0.77713 0.46149 0.0
H419 H 0.46758 0.77214 0.43616 0.0
H420 H 0.4892 0.6599 0.46705 0.0
O421 O 0.53833 0.69556 0.42409 0.0
O422 O 0.54951 0.63623 0.44053 0.0
O423 O 0.58802 0.69676 0.46436 0.0
C424 C 0.53551 0.64899 0.42756 0.0
H425 H 0.73853 0.64162 0.43473 0.0
H426 H 0.38589 0.7638 0.4514 0.0
H427 H 0.62594 0.86724 0.46359 0.0
H428 H 0.54009 0.87504 0.42411 0.0
Co429 Co 0.67554 0.43368 0.56725 0.0
C430 C 0.70056 0.35215 0.58729 0.0
C431 C 0.67362 0.32401 0.56708 0.0
C432 C 0.68048 0.28489 0.57646 0.0
N433 N 0.68758 0.36623 0.57374 0.0
N434 N 0.69725 0.3027 0.58926 0.0
H435 H 0.70761 0.37793 0.59598 0.0
H436 H 0.65645 0.32176 0.55649 0.0
C437 C 0.70442 0.38462 0.53864 0.0
O438 O 0.74236 0.36149 0.54448 0.0
N439 N 0.66247 0.50056 0.56095 0.0
C440 C 0.68391 0.5422 0.566 0.0
C441 C 0.66898 0.58138 0.55746 0.0
C442 C 0.63388 0.51493 0.5497 0.0
N443 N 0.63755 0.56406 0.54727 0.0
C444 C 0.7704 0.44893 0.58058 0.0
C445 C 0.82089 0.47169 0.55536 0.0
C446 C 0.84742 0.46824 0.56843 0.0
C447 C 0.82115 0.45802 0.58122 0.0
C448 C 0.77001 0.46302 0.55526 0.0
N449 N 0.74592 0.44875 0.56762 0.0
H450 H 0.75073 0.44315 0.59059 0.0
H451 H 0.75007 0.46822 0.54522 0.0
H452 H 0.71003 0.54366 0.5749 0.0
H453 H 0.61259 0.48973 0.54304 0.0
O454 O 0.65704 0.45279 0.5869 0.0
O455 O 0.60649 0.42266 0.56997 0.0
O456 O 0.67709 0.413 0.54628 0.0
C457 C 0.61268 0.43884 0.58313 0.0
H458 H 0.67145 0.24671 0.57414 0.0
H459 H 0.68105 0.61945 0.55844 0.0
H460 H 0.83916 0.48041 0.54521 0.0
H461 H 0.83944 0.45759 0.5917 0.0
Co462 Co 0.44912 0.32672 0.43815 0.0
C463 C 0.37405 0.30512 0.41566 0.0
C464 C 0.33989 0.32897 0.43539 0.0
C465 C 0.30396 0.32537 0.4248 0.0
N466 N 0.3839 0.31499 0.42977 0.0
N467 N 0.32568 0.31066 0.41235 0.0
H468 H 0.40214 0.29799 0.40763 0.0
H469 H 0.33456 0.34484 0.44605 0.0
C470 C 0.3923 0.29548 0.46507 0.0
O471 O 0.37343 0.25705 0.45829 0.0
N472 N 0.51391 0.33979 0.44616 0.0
C473 C 0.5575 0.32348 0.44088 0.0
C474 C 0.59432 0.3354 0.45064 0.0
C475 C 0.52475 0.36226 0.45883 0.0
N476 N 0.57356 0.3596 0.46193 0.0
C477 C 0.467 0.23089 0.42576 0.0
C478 C 0.50245 0.18805 0.45097 0.0
C479 C 0.50426 0.16087 0.43799 0.0
C480 C 0.48529 0.1827 0.42533 0.0
C481 C 0.48262 0.23571 0.45098 0.0
N482 N 0.46492 0.2566 0.43849 0.0
H483 H 0.45717 0.24811 0.41567 0.0
H484 H 0.48444 0.25692 0.46092 0.0
H485 H 0.56183 0.30254 0.43094 0.0
H486 H 0.49722 0.37825 0.46593 0.0
O487 O 0.475 0.34403 0.41917 0.0
O488 O 0.43964 0.39586 0.43484 0.0
O489 O 0.42147 0.32505 0.45848 0.0
C490 C 0.46123 0.38896 0.42238 0.0
H491 H 0.26569 0.33662 0.42591 0.0
H492 H 0.63312 0.32596 0.44966 0.0
H493 H 0.51803 0.17366 0.46096 0.0
H494 H 0.48551 0.16332 0.41503 0.0
Co495 Co 0.30854 0.55189 0.56223 0.0
C496 C 0.28696 0.63648 0.58183 0.0
C497 C 0.32899 0.6585 0.56323 0.0
C498 C 0.32625 0.69796 0.57264 0.0
N499 N 0.30339 0.62009 0.56881 0.0
N500 N 0.30011 0.68395 0.5844 0.0
H501 H 0.26923 0.61328 0.58979 0.0
H502 H 0.35176 0.65684 0.55359 0.0
C503 C 0.29403 0.60739 0.53378 0.0
O504 O 0.25977 0.63635 0.53932 0.0
N505 N 0.31549 0.48444 0.5556 0.0
C506 C 0.28905 0.44432 0.55949 0.0
C507 C 0.30183 0.40553 0.55043 0.0
C508 C 0.34447 0.46951 0.54455 0.0
N509 N 0.33663 0.42163 0.54102 0.0
C510 C 0.21056 0.54415 0.57381 0.0
C511 C 0.16234 0.53108 0.54758 0.0
C512 C 0.13457 0.53268 0.56041 0.0
C513 C 0.15929 0.53857 0.57366 0.0
C514 C 0.2137 0.53618 0.54825 0.0
N515 N 0.23699 0.54507 0.56118 0.0
H516 H 0.22901 0.54625 0.58416 0.0
H517 H 0.23458 0.53144 0.53837 0.0
H518 H 0.261 0.44384 0.56787 0.0
H519 H 0.36896 0.49409 0.5387 0.0
O520 O 0.32002 0.53027 0.58212 0.0
O521 O 0.37766 0.55456 0.5664 0.0
O522 O 0.3142 0.57364 0.54144 0.0
C523 C 0.36642 0.53929 0.57935 0.0
H524 H 0.34567 0.73276 0.57145 0.0
H525 H 0.28584 0.36881 0.55052 0.0
H526 H 0.14467 0.52447 0.53719 0.0
H527 H 0.13919 0.53877 0.58385 0.0
H528 H 0.06326 0.37812 0.27375 0.0
H529 H 0.18277 0.27275 0.26965 0.0
H530 H 0.20759 0.31128 0.2467 0.0
H531 H 0.19686 0.37673 0.22834 0.0
H532 H 0.0766 0.4811 0.23265 0.0
H533 H 0.05074 0.44105 0.25514 0.0
C534 C 0.0945 0.36308 0.26783 0.0
C535 C 0.12104 0.32241 0.27345 0.0
C536 C 0.10862 0.38548 0.25474 0.0
C537 C 0.16165 0.30394 0.2656 0.0
C538 C 0.17589 0.32601 0.25249 0.0
C539 C 0.16458 0.39035 0.23407 0.0
C540 C 0.13881 0.43206 0.22877 0.0
C541 C 0.14981 0.36702 0.24701 0.0
C542 C 0.09757 0.44961 0.23653 0.0
C543 C 0.08257 0.42653 0.24937 0.0
H544 H 0.43613 0.82532 0.76998 0.0
H545 H 0.35565 0.93545 0.79419 0.0
H546 H 0.31142 0.9605 0.77204 0.0
H547 H 0.29886 0.95315 0.74545 0.0
H548 H 0.37924 0.84072 0.72177 0.0
H549 H 0.41995 0.81438 0.74401 0.0
C550 C 0.40889 0.8548 0.77037 0.0
C551 C 0.39942 0.87888 0.7836 0.0
C552 C 0.3835 0.86848 0.75769 0.0
C553 C 0.36337 0.91637 0.78409 0.0
C554 C 0.33826 0.93073 0.77144 0.0
C555 C 0.32476 0.92247 0.74519 0.0
C556 C 0.336 0.89921 0.73187 0.0
C557 C 0.34834 0.90729 0.75812 0.0
C558 C 0.36984 0.85954 0.73179 0.0
C559 C 0.39336 0.84442 0.74452 0.0
H560 H 0.78082 0.63051 0.22763 0.0
H561 H 0.8902 0.51569 0.23359 0.0
H562 H 0.91467 0.55242 0.25674 0.0
H563 H 0.90337 0.6152 0.27546 0.0
H564 H 0.79416 0.73051 0.26982 0.0
H565 H 0.77154 0.69562 0.24615 0.0
C566 C 0.81053 0.61392 0.23386 0.0
C567 C 0.83363 0.57031 0.22884 0.0
C568 C 0.8243 0.6352 0.2472 0.0
C569 C 0.87141 0.54883 0.23724 0.0
C570 C 0.88556 0.56995 0.25046 0.0
C571 C 0.8749 0.63321 0.26905 0.0
C572 C 0.85056 0.6756 0.27444 0.0
C573 C 0.86196 0.61285 0.25557 0.0
C574 C 0.81348 0.6979 0.26596 0.0
C575 C 0.80053 0.67793 0.25244 0.0
H576 H 0.55919 0.09136 0.7673 0.0
H577 H 0.67381 0.19451 0.77938 0.0
H578 H 0.72078 0.17283 0.75763 0.0
H579 H 0.72813 0.12643 0.73466 0.0
H580 H 0.61282 0.02339 0.72275 0.0
H581 H 0.56758 0.04331 0.74481 0.0
C582 C 0.59431 0.10926 0.76514 0.0
C583 C 0.6128 0.14459 0.77497 0.0
C584 C 0.62113 0.0967 0.75258 0.0
C585 C 0.6589 0.16677 0.7721 0.0
C586 C 0.68569 0.15462 0.75961 0.0
C587 C 0.69322 0.10821 0.73691 0.0
C588 C 0.67402 0.07365 0.72695 0.0
C589 C 0.66705 0.11984 0.7497 0.0
C590 C 0.6287 0.05025 0.73014 0.0
C591 C 0.60257 0.06164 0.74278 0.0
H592 H 0.15446 0.054 0.01275 0.0
H593 H 0.19068 0.19439 0.03236 0.0
H594 H 0.1711 0.23677 0.00948 0.0
H595 H 0.14085 0.23342 0.98396 0.0
H596 H 0.10254 0.09135 0.9655 0.0
H597 H 0.12514 0.0503 0.98798 0.0
C598 C 0.15736 0.09395 0.01217 0.0
C599 C 0.17329 0.12104 0.02432 0.0
C600 C 0.14568 0.1178 0.99914 0.0
C601 C 0.17849 0.17269 0.02314 0.0
C602 C 0.16717 0.1969 0.01008 0.0
C603 C 0.13787 0.19351 0.98487 0.0
C604 C 0.11986 0.16562 0.97309 0.0
C605 C 0.15046 0.1698 0.998 0.0
C606 C 0.11591 0.11387 0.97443 0.0
C607 C 0.12887 0.09021 0.98728 0.0
H608 H 0.0564 0.89712 0.97625 0.0
H609 H 0.15218 0.77163 0.96877 0.0
H610 H 0.19548 0.78815 0.99143 0.0
H611 H 0.20395 0.8357 0.01413 0.0
H612 H 0.10638 0.95973 0.02182 0.0
H613 H 0.06613 0.94587 0.99854 0.0
C614 C 0.08666 0.87329 0.97955 0.0
C615 C 0.10068 0.83314 0.97069 0.0
C616 C 0.11111 0.88247 0.99278 0.0
C617 C 0.14069 0.80324 0.97515 0.0
C618 C 0.16536 0.81237 0.98824 0.0
C619 C 0.17398 0.85978 0.01071 0.0
C620 C 0.15834 0.89858 0.01982 0.0
C621 C 0.15054 0.85151 0.99724 0.0
C622 C 0.11944 0.9295 0.01511 0.0
C623 C 0.09621 0.92163 0.00175 0.0
H624 H 0.98395 0.83165 0.98961 0.0
H625 H 0.83935 0.77361 0.97964 0.0
H626 H 0.80666 0.80805 0.00235 0.0
H627 H 0.81847 0.85827 0.02426 0.0
H628 H 0.96017 0.92447 0.03308 0.0
H629 H 0.99528 0.88384 0.01148 0.0
C630 C 0.94553 0.82605 0.9926 0.0
C631 C 0.91402 0.79951 0.98329 0.0
C632 C 0.92667 0.84791 0.00529 0.0
C633 C 0.86405 0.79341 0.98688 0.0
C634 C 0.84544 0.81327 0.99977 0.0
C635 C 0.85716 0.8632 0.02149 0.0
C636 C 0.88711 0.89348 0.03023 0.0
C637 C 0.87627 0.84105 0.00894 0.0
C638 C 0.9368 0.90103 0.02644 0.0
C639 C 0.9567 0.87781 0.01416 0.0
H640 H 0.84665 0.00329 0.00827 0.0
H641 H 0.79312 0.1453 0.02278 0.0
H642 H 0.82292 0.18387 1.00031 0.0
H643 H 0.86749 0.17756 0.977 0.0
H644 H 0.92903 0.0376 0.96378 0.0
H645 H 0.89322 -0.00253 0.98528 0.0
C646 C 0.84095 0.04254 0.00636 0.0
C647 C 0.81705 0.07146 0.01695 0.0
C648 C 0.86004 0.06467 0.99374 0.0
C649 C 0.81107 0.12246 0.01466 0.0
C650 C 0.82819 0.14444 0.00186 0.0
C651 C 0.87249 0.13821 0.97882 0.0
C652 C 0.90025 0.11026 0.96885 0.0
C653 C 0.85315 0.116 0.99139 0.0
C654 C 0.90768 0.05956 0.97138 0.0
C655 C 0.88716 0.03675 0.98361 0.0
H656 H 0.64409 0.74603 0.76299 0.0
H657 H 0.58506 0.88582 0.77806 0.0
H658 H 0.60153 0.92322 0.75474 0.0
H659 H 0.63546 0.91851 0.73073 0.0
H660 H 0.69252 0.78007 0.7142 0.0
H661 H 0.67446 0.74038 0.73747 0.0
C662 C 0.63479 0.78456 0.76111 0.0
C663 C 0.61335 0.81281 0.77232 0.0
C664 C 0.64418 0.8064 0.74746 0.0
C665 C 0.60125 0.86277 0.76967 0.0
C666 C 0.61078 0.8845 0.75631 0.0
C667 C 0.64328 0.87945 0.73191 0.0
C668 C 0.6656 0.85273 0.72056 0.0
C669 C 0.63245 0.85682 0.74518 0.0
C670 C 0.67597 0.80209 0.72273 0.0
C671 C 0.66549 0.7792 0.73606 0.0
H672 H 0.83944 0.35485 0.22623 0.0
H673 H 0.71512 0.41998 0.24864 0.0
H674 H 0.75203 0.39715 0.27207 0.0
H675 H 0.82278 0.36321 0.28615 0.0
H676 H 0.94886 0.30444 0.26319 0.0
H677 H 0.90832 0.32063 0.23996 0.0
C678 C 0.81983 0.36342 0.2362 0.0
C679 C 0.77432 0.38877 0.23567 0.0
C680 C 0.84204 0.35191 0.24954 0.0
C681 C 0.75005 0.40027 0.24875 0.0
C682 C 0.77127 0.38744 0.26214 0.0
C683 C 0.84096 0.35366 0.27602 0.0
C684 C 0.88875 0.33289 0.27633 0.0
C685 C 0.81771 0.364 0.26267 0.0
C686 C 0.91236 0.32106 0.26319 0.0
C687 C 0.88909 0.33004 0.24992 0.0
H688 H 0.34928 0.04554 0.73126 0.0
H689 H 0.42561 0.14283 0.70181 0.0
H690 H 0.44985 0.19642 0.72217 0.0
H691 H 0.45005 0.21445 0.74856 0.0
H692 H 0.36938 0.11768 0.77747 0.0
H693 H 0.34581 0.06551 0.75716 0.0
C694 C 0.3716 0.07827 0.72937 0.0
C695 C 0.38627 0.09005 0.71517 0.0
C696 C 0.38418 0.10927 0.74102 0.0
C697 C 0.41413 0.13313 0.71271 0.0
C698 C 0.42786 0.1637 0.72433 0.0
C699 C 0.42679 0.18235 0.75038 0.0
C700 C 0.41182 0.17014 0.76459 0.0
C701 C 0.41301 0.15218 0.73856 0.0
C702 C 0.38167 0.12821 0.76671 0.0
C703 C 0.36823 0.09803 0.75509 0.0
H704 H 0.12085 0.65139 0.2273 0.0
H705 H 0.24996 0.5879 0.24775 0.0
H706 H 0.21545 0.60677 0.27175 0.0
H707 H 0.14513 0.63579 0.2869 0.0
H708 H 0.01463 0.69343 0.26587 0.0
H709 H 0.05294 0.68209 0.24211 0.0
C710 C 0.142 0.64235 0.23697 0.0
C711 C 0.18807 0.61842 0.23571 0.0
C712 C 0.12123 0.65165 0.25065 0.0
C713 C 0.21447 0.60647 0.24841 0.0
C714 C 0.19463 0.61702 0.26213 0.0
C715 C 0.12553 0.64624 0.27709 0.0
C716 C 0.07706 0.66503 0.27809 0.0
C717 C 0.14754 0.63871 0.26339 0.0
C718 C 0.05166 0.67817 0.26533 0.0
C719 C 0.07364 0.67195 0.25176 0.0
H720 H 0.6853 0.62913 0.53044 0.0
H721 H 0.54438 0.55833 0.53697 0.0
H722 H 0.5099 0.60283 0.51601 0.0
H723 H 0.52123 0.65991 0.49529 0.0
H724 H 0.66472 0.72372 0.48736 0.0
H725 H 0.69717 0.68459 0.50949 0.0
C726 C 0.64693 0.62404 0.52732 0.0
C727 C 0.6171 0.59111 0.53524 0.0
C728 C 0.62807 0.64855 0.51505 0.0
C729 C 0.56778 0.58364 0.53097 0.0
C730 C 0.54817 0.60908 0.51904 0.0
C731 C 0.55939 0.66557 0.49858 0.0
C732 C 0.59059 0.6951 0.49002 0.0
C733 C 0.57808 0.64139 0.51095 0.0
C734 C 0.64022 0.70149 0.49401 0.0
C735 C 0.65868 0.67903 0.50658 0.0
H736 H 0.65196 0.31578 0.47487 0.0
H737 H 0.54723 0.43555 0.47932 0.0
H738 H 0.58114 0.45561 0.50319 0.0
H739 H 0.63686 0.43634 0.52316 0.0
H740 H 0.74093 0.31565 0.51941 0.0
H741 H 0.71164 0.29934 0.49464 0.0
C742 C 0.63719 0.34681 0.48095 0.0
C743 C 0.59692 0.37401 0.47535 0.0
C744 C 0.65661 0.35782 0.49475 0.0
C745 C 0.57772 0.41367 0.48347 0.0
C746 C 0.59719 0.42524 0.49709 0.0
C747 C 0.65343 0.40651 0.51697 0.0
C748 C 0.69071 0.3769 0.52322 0.0
C749 C 0.636 0.39702 0.50292 0.0
C750 C 0.7121 0.33891 0.51488 0.0
C751 C 0.69524 0.32949 0.50075 0.0
H752 H 0.29265 0.34968 0.52508 0.0
H753 H 0.42606 0.43654 0.52876 0.0
H754 H 0.45644 0.40213 0.50594 0.0
H755 H 0.44257 0.3524 0.4842 0.0
H756 H 0.30959 0.2654 0.47999 0.0
H757 H 0.28203 0.29384 0.50397 0.0
C758 C 0.32875 0.36033 0.52103 0.0
C759 C 0.35675 0.39618 0.52856 0.0
C760 C 0.34594 0.34054 0.5078 0.0
C761 C 0.40335 0.4098 0.52307 0.0
C762 C 0.42084 0.39002 0.51004 0.0
C763 C 0.40761 0.33947 0.48851 0.0
C764 C 0.37784 0.30744 0.48021 0.0
C765 C 0.39194 0.3563 0.50217 0.0
C766 C 0.33316 0.29018 0.48614 0.0
C767 C 0.3173 0.30663 0.49982 0.0
H768 H 0.28627 0.69058 0.51707 0.0
H769 H 0.34682 0.54262 0.51732 0.0
H770 H 0.39105 0.55923 0.49484 0.0
H771 H 0.4179 0.61772 0.47609 0.0
H772 H 0.35874 0.76606 0.47587 0.0
H773 H 0.30806 0.74711 0.49707 0.0
C774 C 0.30841 0.66175 0.51206 0.0
C775 C 0.31377 0.61575 0.519 0.0
C776 C 0.33429 0.67166 0.49912 0.0
C777 C 0.34268 0.57871 0.51236 0.0
C778 C 0.36803 0.58811 0.49947 0.0
C779 C 0.39381 0.6458 0.48066 0.0
C780 C 0.39242 0.69324 0.47445 0.0
C781 C 0.36513 0.63483 0.49296 0.0
C782 C 0.36028 0.72904 0.48034 0.0
C783 C 0.33147 0.71836 0.49255 0.0
H784 H 0.95427 0.08431 0.32443 0.0
H785 H 0.06753 0.06953 0.29171 0.0
H786 H 0.05123 0.9805 0.29005 0.0
H787 H 0.00692 0.90669 0.29868 0.0
H788 H 0.89233 0.92247 0.33105 0.0
H789 H 0.90756 0.01138 0.33223 0.0
C790 C 0.97556 0.06148 0.317 0.0
C791 C 0.01236 0.08313 0.30831 0.0
C792 C 0.96588 0.01063 0.31609 0.0
C793 C 0.03897 0.0535 0.29849 0.0
C794 C 0.02976 0.0027 0.29758 0.0
C795 C 0.98474 0.92967 0.30582 0.0
C796 C 0.94872 0.9079 0.31482 0.0
C797 C 0.99348 0.98084 0.30639 0.0
C798 C 0.92081 0.93817 0.32417 0.0
C799 C 0.92933 0.98903 0.32482 0.0
H800 H 0.09586 0.97232 0.70602 0.0
H801 H 0.09894 0.92737 0.66108 0.0
H802 H 0.0093 0.93901 0.6593 0.0
H803 H 0.93089 0.96259 0.67043 0.0
H804 H 0.92794 0.01404 0.71488 0.0
H805 H 0.0167 -0.00169 0.71706 0.0
C806 C 0.07659 0.96485 0.69591 0.0
C807 C 0.10338 0.94894 0.68371 0.0
C808 C 0.02536 0.97273 0.69489 0.0
C809 C 0.07865 0.93978 0.67057 0.0
C810 C 0.0276 0.94641 0.66956 0.0
C811 C 0.94964 0.97123 0.68054 0.0
C812 C 0.92268 0.9898 0.69243 0.0
C813 C 0.0007 0.96326 0.68162 0.0
C814 C 0.94759 -0.00072 0.70558 0.0
C815 C -0.00158 0.99057 0.70682 0.0
H816 H 0.97078 0.56899 0.95492 0.0
H817 H 0.91114 0.56804 0.91147 0.0
H818 H 0.9242 0.47842 0.90987 0.0
H819 H 0.95641 0.40192 0.92039 0.0
H820 H 0.02379 0.40421 0.96297 0.0
H821 H 0.0027 0.49167 0.96555 0.0
C822 C 0.96011 0.54878 0.94522 0.0
C823 C 0.93993 0.57437 0.93335 0.0
C824 C 0.96919 0.49782 0.94423 0.0
C825 C 0.92674 0.54857 0.9207 0.0
C826 C 0.93427 0.49759 0.91979 0.0
C827 C 0.96705 0.42157 0.93018 0.0
C828 C 0.99215 0.39659 0.9414 0.0
C829 C 0.9563 0.47207 0.9314 0.0
C830 C 0.00416 0.42238 0.9542 0.0
C831 C 0.99242 0.47248 0.95565 0.0
H832 H 0.58514 0.97319 0.04395 0.0
H833 H 0.58401 0.02492 0.08829 0.0
H834 H 0.49453 0.01205 0.08959 0.0
H835 H 0.4171 0.98946 0.07784 0.0
H836 H 0.41782 0.93232 0.03397 0.0
H837 H 0.50725 0.94505 0.03263 0.0
C838 C 0.56507 0.98149 0.05387 0.0
C839 C 0.5906 6e-05 0.06599 0.0
C840 C 0.51388 0.97344 0.05457 0.0
C841 C 0.5648 0.01033 0.07887 0.0
C842 C 0.5138 0.00317 0.07959 0.0
C843 C 0.43672 0.97857 0.06807 0.0
C844 C 0.41061 0.95974 0.05605 0.0
C845 C 0.48802 0.98496 0.06749 0.0
C846 C 0.43682 0.94743 0.04334 0.0
C847 C 0.48799 0.95443 0.04259 0.0
H848 H 0.49195 0.42285 0.82933 0.0
H849 H 0.42066 0.42748 0.78728 0.0
H850 H 0.42461 0.51768 0.78752 0.0
H851 H 0.45207 0.59481 0.79906 0.0
H852 H 0.53573 0.58743 0.83915 0.0
H853 H 0.5228 0.49881 0.84019 0.0
C854 C 0.47803 0.44318 0.82003 0.0
C855 C 0.45656 0.41778 0.80823 0.0
C856 C 0.48243 0.49486 0.81989 0.0
C857 C 0.43698 0.44559 0.79662 0.0
C858 C 0.43961 0.49733 0.79667 0.0
C859 C 0.46825 0.57407 0.80795 0.0
C860 C 0.49479 0.59871 0.81902 0.0
C861 C 0.46297 0.5223 0.80816 0.0
C862 C 0.51403 0.57047 0.83061 0.0
C863 C 0.50722 0.51936 0.83115 0.0
H864 H 0.57601 0.54579 0.18188 0.0
H865 H 0.53652 0.39099 0.18117 0.0
H866 H 0.44885 0.41299 0.18022 0.0
H867 H 0.38385 0.47592 0.18056 0.0
H868 H 0.42278 0.63086 0.18107 0.0
H869 H 0.51071 0.60903 0.1811 0.0
C870 C 0.54821 0.5169 0.1813 0.0
C871 C 0.5626 0.46687 0.18162 0.0
C872 C 0.49801 0.52981 0.18079 0.0
C873 C 0.52625 0.42977 0.18111 0.0
C874 C 0.47621 0.44231 0.18051 0.0
C875 C 0.41156 0.50497 0.18041 0.0
C876 C 0.39692 0.55491 0.18076 0.0
C877 C 0.46174 0.49217 0.18047 0.0
C878 C 0.43321 0.59213 0.18092 0.0
C879 C 0.48339 0.57968 0.18089 0.0
H880 H 0.59766 0.95134 0.42479 0.0
H881 H 0.54646 0.92399 0.46842 0.0
H882 H 0.51939 0.01006 0.47057 0.0
H883 H 0.50259 0.08992 0.4591 0.0
H884 H 0.55835 0.11899 0.41591 0.0
H885 H 0.59008 0.03483 0.41441 0.0
C886 C 0.58128 0.96464 0.43482 0.0
C887 C 0.57378 0.93172 0.4464 0.0
C888 C 0.56559 0.01393 0.43594 0.0
C889 C 0.55291 0.94904 0.45942 0.0
C890 C 0.537 -0.002 0.4606 0.0
C891 C 0.52258 0.07844 0.44946 0.0
C892 C 0.52697 0.11073 0.43753 0.0
C893 C 0.54204 0.0304 0.44879 0.0
C894 C 0.55272 0.09459 0.42509 0.0
C895 C 0.57148 0.04657 0.42426 0.0
H896 H 0.07955 0.47058 0.57684 0.0
H897 H 0.06833 0.58068 0.54307 0.0
H898 H 0.97818 0.57137 0.54275 0.0
H899 H 0.90291 0.53281 0.55239 0.0
H900 H 0.91507 0.41902 0.5852 0.0
H901 H 0.00449 0.43001 0.58587 0.0
C902 C 0.05724 0.49269 0.56948 0.0
C903 C 0.08025 0.52643 0.56005 0.0
C904 C 0.00571 0.48681 0.56927 0.0
C905 C 0.05123 0.5543 0.55037 0.0
C906 C -0.0002 0.54913 0.55024 0.0
C907 C 0.92504 0.5099 0.55956 0.0
C908 C 0.902 0.47528 0.56877 0.0
C909 C 0.97666 0.51549 0.55965 0.0
C910 C 0.9315 0.44666 0.57818 0.0
C911 C 0.98277 0.45257 0.5785 0.0
H912 H 0.89458 0.54366 0.34248 0.0
H913 H 0.03925 0.6103 0.34313 0.0
H914 H 0.07708 0.52949 0.34764 0.0
H915 H 0.06906 0.44011 0.34306 0.0
H916 H 0.92449 0.37359 0.34107 0.0
H917 H 0.88598 0.45379 0.34599 0.0
C918 C 0.9341 0.54058 0.34443 0.0
C919 C 0.96446 0.582 0.34224 0.0
C920 C 0.95545 0.49386 0.34649 0.0
C921 C 0.01547 0.5785 0.34479 0.0
C922 C 0.03708 0.53221 0.34715 0.0
C923 C 0.02929 0.44296 0.34455 0.0
C924 C -0.00069 0.4019 0.34148 0.0
C925 C 0.00763 0.48943 0.34681 0.0
C926 C 0.94799 0.40511 0.34342 0.0
C927 C 0.92601 0.45109 0.346 0.0
H928 H 0.46304 0.86957 0.66067 0.0
H929 H 0.40748 0.01691 0.65331 0.0
H930 H 0.49001 0.04456 0.64608 0.0
H931 H 0.57892 0.0319 0.65042 0.0
H932 H 0.63426 0.88571 0.65943 0.0
H933 H 0.55124 0.85146 0.65665 0.0
C934 C 0.46877 0.90702 0.65674 0.0
C935 C 0.43024 0.94165 0.65779 0.0
C936 C 0.51648 0.92276 0.65304 0.0
C937 C 0.4371 0.98993 0.65261 0.0
C938 C 0.48437 0.0058 0.64863 0.0
C939 C 0.57306 0.99215 0.65079 0.0
C940 C 0.61173 0.9613 0.65545 0.0
C941 C 0.5248 0.97343 0.65 0.0
C942 C 0.60462 0.90994 0.65588 0.0
C943 C 0.55693 0.89056 0.6546 0.0
H944 H 0.06856 0.04541 0.90136 0.0
H945 H 0.92526 0.11139 0.90797 0.0
H946 H 0.88663 0.02978 0.90748 0.0
H947 H 0.89915 0.94161 0.91337 0.0
H948 H 0.04297 0.87562 0.90762 0.0
H949 H 0.07626 0.95499 0.89934 0.0
C950 C 0.02855 0.04188 0.90176 0.0
C951 C -0.00029 0.08359 0.90506 0.0
C952 C 0.00715 0.99471 0.90216 0.0
C953 C 0.94801 0.07942 0.90546 0.0
C954 C 0.92607 0.03265 0.90551 0.0
C955 C 0.93719 0.94441 0.90968 0.0
C956 C 0.96912 0.90389 0.91133 0.0
C957 C 0.95598 0.99016 0.90515 0.0
C958 C 0.01812 0.9069 0.90644 0.0
C959 C 0.03714 0.95227 0.90182 0.0
H960 H 0.94799 0.10486 0.08516 0.0
H961 H 0.90248 0.95591 0.09507 0.0
H962 H 0.98718 0.93469 0.10215 0.0
H963 H 0.07471 0.9518 0.09698 0.0
H964 H 0.11966 0.09855 0.08461 0.0
H965 H 0.03518 0.12863 0.08785 0.0
C966 C 0.95645 0.06848 0.08953 0.0
C967 C 0.92013 0.03144 0.08925 0.0
C968 C 0.00535 0.05631 0.09304 0.0
C969 C 0.93042 0.98466 0.0951 0.0
C970 C 0.9789 0.97248 0.09901 0.0
C971 C 0.06636 0.991 0.09598 0.0
C972 C 0.10238 0.02291 0.09028 0.0
C973 C 0.0171 0.00692 0.09684 0.0
C974 C 0.09207 0.07354 0.08898 0.0
C975 C 0.04352 0.09043 0.09051 0.0
H976 H 0.55993 0.1044 0.8368 0.0
H977 H 0.40435 0.07378 0.8409 0.0
H978 H 0.42231 0.98909 0.84857 0.0
H979 H 0.47997 0.91977 0.84567 0.0
H980 H 0.63404 0.94888 0.83754 0.0
H981 H 0.62015 0.0376 0.84053 0.0
C982 C 0.53036 0.07985 0.84022 0.0
C983 C 0.4811 0.0945 0.83826 0.0
C984 C 0.541 0.03031 0.84359 0.0
C985 C 0.4426 0.06271 0.8424 0.0
C986 C 0.45289 0.01417 0.8466 0.0
C987 C 0.51082 0.94547 0.84543 0.0
C988 C 0.55765 0.92852 0.8412 0.0
C989 C 0.50167 -0.00341 0.84603 0.0
C990 C 0.59758 0.96167 0.84073 0.0
C991 C 0.58947 0.01241 0.84222 0.0
H992 H 0.88151 0.52738 0.16811 0.0
H993 H 0.93175 0.3765 0.17141 0.0
H994 H 0.01738 0.40294 0.1677 0.0
H995 H 0.07779 0.47027 0.16993 0.0
H996 H 0.02703 0.62132 0.17121 0.0
H997 H 0.94213 0.59443 0.1664 0.0
C998 C 0.91116 0.50034 0.16734 0.0
C999 C 0.90107 0.45035 0.16999 0.0
C1000 C 0.96036 0.51628 0.16632 0.0
C1001 C 0.9393 0.41527 0.16934 0.0
C1002 C 0.98814 0.43043 0.16736 0.0
C1003 C 0.04825 0.49713 0.16852 0.0
C1004 C 0.05783 0.54739 0.17086 0.0
C1005 C -0.0007 0.48106 0.16678 0.0
C1006 C 0.01978 0.58234 0.16939 0.0
C1007 C 0.97138 0.56695 0.16675 0.0
H1008 H 0.58222 0.57422 0.4142 0.0
H1009 H 0.43889 0.63985 0.42108 0.0
H1010 H 0.39884 0.56084 0.41562 0.0
H1011 H 0.40782 0.47037 0.4164 0.0
H1012 H 0.55154 0.40421 0.41054 0.0
H1013 H 0.58849 0.48609 0.40748 0.0
C1014 C 0.54216 0.57157 0.41369 0.0
C1015 C 0.51322 0.61195 0.41808 0.0
C1016 C 0.51973 0.52573 0.41098 0.0
C1017 C 0.4615 0.60886 0.41759 0.0
C1018 C 0.43873 0.56359 0.41467 0.0
C1019 C 0.44677 0.47402 0.41371 0.0
C1020 C 0.47732 0.43203 0.41399 0.0
C1021 C 0.46778 0.52117 0.41244 0.0
C1022 C 0.52754 0.43639 0.41039 0.0
C1023 C 0.54875 0.48323 0.40885 0.0
H1024 H 0.39261 0.45139 0.59038 0.0
H1025 H 0.43079 0.60597 0.59011 0.0
H1026 H 0.51591 0.58615 0.59694 0.0
H1027 H 0.58204 0.52454 0.59464 0.0
H1028 H 0.5448 0.3703 0.59063 0.0
H1029 H 0.45736 0.38925 0.59441 0.0
C1030 C 0.41907 0.48061 0.59267 0.0
C1031 C 0.40624 0.52981 0.58972 0.0
C1032 C 0.46866 0.46855 0.5955 0.0
C1033 C 0.44045 0.56778 0.59237 0.0
C1034 C 0.48919 0.55637 0.59609 0.0
C1035 C 0.55493 0.49503 0.59547 0.0
C1036 C 0.5691 0.44636 0.59226 0.0
C1037 C 0.50446 0.50678 0.59649 0.0
C1038 C 0.53414 0.4081 0.59307 0.0
C1039 C 0.48413 0.41904 0.59503 0.0
H1040 H 0.22971 0.29333 0.40591 0.0
H1041 H 0.37166 0.32394 0.38634 0.0
H1042 H 0.3345 0.32176 0.36233 0.0
H1043 H 0.26151 0.31403 0.34678 0.0
H1044 H 0.11838 0.28883 0.36624 0.0
H1045 H 0.15623 0.28561 0.39023 0.0
C1046 C 0.25247 0.29976 0.39641 0.0
C1047 C 0.30353 0.30851 0.39806 0.0
C1048 C 0.23067 0.29933 0.38253 0.0
C1049 C 0.33252 0.31614 0.38554 0.0
C1050 C 0.3112 0.31532 0.37173 0.0
C1051 C 0.23847 0.30809 0.35625 0.0
C1052 C 0.18709 0.30182 0.35458 0.0
C1053 C 0.26029 0.30732 0.3701 0.0
C1054 C 0.15806 0.29316 0.36704 0.0
C1055 C 0.17966 0.29174 0.38085 0.0
H1056 H 0.30229 0.83147 0.63686 0.0
H1057 H 0.29433 0.69457 0.66093 0.0
H1058 H 0.28895 0.64813 0.63821 0.0
H1059 H 0.29208 0.64625 0.61159 0.0
H1060 H 0.29814 0.78339 0.58759 0.0
H1061 H 0.29833 0.83002 0.61032 0.0
C1062 C 0.29832 0.79161 0.63722 0.0
C1063 C 0.29902 0.76665 0.65067 0.0
C1064 C 0.29529 0.76514 0.62412 0.0
C1065 C 0.29466 0.71476 0.65077 0.0
C1066 C 0.29141 0.68816 0.63778 0.0
C1067 C 0.29238 0.68632 0.61126 0.0
C1068 C 0.29538 0.7112 0.59783 0.0
C1069 C 0.29251 0.71293 0.62438 0.0
C1070 C 0.2966 0.76325 0.59775 0.0
C1071 C 0.29652 0.78996 0.61074 0.0
H1072 H 0.83789 0.68097 0.36781 0.0
H1073 H 0.69965 0.69325 0.34459 0.0
H1074 H 0.65467 0.69772 0.36757 0.0
H1075 H 0.65449 0.69535 0.39414 0.0
H1076 H 0.79241 0.68345 0.41753 0.0
H1077 H 0.83787 0.68168 0.39454 0.0
C1078 C 0.79803 0.68541 0.36777 0.0
C1079 C 0.77214 0.68683 0.35448 0.0
C1080 C 0.77242 0.68776 0.38103 0.0
C1081 C 0.72034 0.69156 0.35466 0.0
C1082 C 0.69465 0.6943 0.36779 0.0
C1083 C 0.69453 0.69325 0.39425 0.0
C1084 C 0.72002 0.68976 0.40756 0.0
C1085 C 0.72028 0.69208 0.38103 0.0
C1086 C 0.7719 0.68579 0.40744 0.0
C1087 C 0.79789 0.68495 0.39431 0.0
H1088 H 0.72889 0.2236 0.65293 0.0
H1089 H 0.65709 0.09572 0.63464 0.0
H1090 H 0.65259 0.13645 0.61091 0.0
H1091 H 0.66642 0.20948 0.59576 0.0
H1092 H 0.7442 0.33538 0.61367 0.0
H1093 H 0.74872 0.29452 0.63711 0.0
C1094 C 0.71238 0.20492 0.64368 0.0
C1095 C 0.69319 0.15708 0.64543 0.0
C1096 C 0.71074 0.22824 0.63006 0.0
C1097 C 0.67236 0.13255 0.63344 0.0
C1098 C 0.66964 0.15587 0.61992 0.0
C1099 C 0.68491 0.22806 0.60465 0.0
C1100 C 0.70379 0.27628 0.60282 0.0
C1101 C 0.68849 0.20387 0.61812 0.0
C1102 C 0.72778 0.29907 0.61469 0.0
C1103 C 0.7308 0.27555 0.62816 0.0
H1104 H 0.25907 0.21525 0.89923 0.0
H1105 H 0.1171 0.18977 0.879 0.0
H1106 H 0.15511 0.19448 0.85509 0.0
H1107 H 0.22935 0.20022 0.83991 0.0
H1108 H 0.37218 0.21937 0.86026 0.0
H1109 H 0.33303 0.22329 0.884 0.0
C1110 C 0.23641 0.21052 0.88961 0.0
C1111 C 0.18527 0.20184 0.89103 0.0
C1112 C 0.25868 0.21216 0.87584 0.0
C1113 C 0.15639 0.19697 0.87836 0.0
C1114 C 0.1782 0.19929 0.86462 0.0
C1115 C 0.25204 0.20511 0.84951 0.0
C1116 C 0.30382 0.20903 0.84816 0.0
C1117 C 0.22943 0.206 0.86324 0.0
C1118 C 0.33231 0.21662 0.86079 0.0
C1119 C 0.30995 0.21845 0.87447 0.0
H1120 H 0.16385 0.79631 0.15511 0.0
H1121 H 0.1676 0.64809 0.13756 0.0
H1122 H 0.16575 0.68113 0.11297 0.0
H1123 H 0.16321 0.75248 0.09626 0.0
H1124 H 0.15613 0.90016 0.11399 0.0
H1125 H 0.15838 0.867 0.13858 0.0
C1126 C 0.16384 0.77114 0.14594 0.0
C1127 C 0.16619 0.71977 0.1483 0.0
C1128 C 0.16205 0.79033 0.13178 0.0
C1129 C 0.1668 0.68784 0.13619 0.0
C1130 C 0.16527 0.70668 0.12206 0.0
C1131 C 0.16172 0.77723 0.10553 0.0
C1132 C 0.16018 0.82864 0.10328 0.0
C1133 C 0.16289 0.75788 0.11971 0.0
C1134 C 0.15851 0.86044 0.11539 0.0
C1135 C 0.15949 0.84152 0.12948 0.0
H1136 H 0.83836 0.77689 0.88842 0.0
H1137 H 0.70466 0.79755 0.91342 0.0
H1138 H 0.65548 0.7933 0.89126 0.0
H1139 H 0.65101 0.78999 0.8647 0.0
H1140 H 0.78428 0.76625 0.83979 0.0
H1141 H 0.83298 0.76483 0.86213 0.0
C1142 C 0.79847 0.77954 0.88915 0.0
C1143 C 0.77558 0.78831 0.90267 0.0
C1144 C 0.77024 0.77677 0.87636 0.0
C1145 C 0.72362 0.79197 0.9032 0.0
C1146 C 0.69533 0.78926 0.89051 0.0
C1147 C 0.69048 0.78339 0.8641 0.0
C1148 C 0.7139 0.77879 0.85049 0.0
C1149 C 0.71833 0.78261 0.877 0.0
C1150 C 0.76536 0.77084 0.85007 0.0
C1151 C 0.79324 0.76988 0.86285 0.0
H1152 H 0.74877 0.25116 0.09697 0.0
H1153 H 0.81887 0.11774 0.11239 0.0
H1154 H 0.81741 0.14904 0.13722 0.0
H1155 H 0.79959 0.21534 0.15434 0.0
H1156 H 0.72622 0.34814 0.13948 0.0
H1157 H 0.72597 0.31634 0.1147 0.0
C1158 C 0.7635 0.22916 0.10583 0.0
C1159 C 0.78358 0.18225 0.10291 0.0
C1160 C 0.76226 0.2473 0.12016 0.0
C1161 C 0.80248 0.15368 0.11442 0.0
C1162 C 0.80194 0.17165 0.12861 0.0
C1163 C 0.78274 0.23719 0.14581 0.0
C1164 C 0.76352 0.28444 0.14889 0.0
C1165 C 0.78213 0.21848 0.1316 0.0
C1166 C 0.74233 0.31211 0.13749 0.0
C1167 C 0.74191 0.29385 0.12327 0.0
loop_
_geom_bond_atom_site_label_1
_geom_bond_atom_site_label_2
_geom_bond_distance
_geom_bond_site_symmetry_2
_ccdc_geom_bond_type
Co0 N4 2.148 . S
Co0 N10 2.128 1_455 S
Co0 N20 2.194 . S
Co0 O25 2.351 1_455 S
Co0 O26 2.155 . S
Co0 O27 2.096 . S
C1 N4 1.301 . S
C1 N5 1.328 . S
C1 H6 0.930 . S
C2 C3 1.333 . S
C2 N4 1.317 . S
C2 H7 0.930 . S
C3 C2 1.333 . S
C3 N5 1.350 . S
C3 H29 0.931 . S
N4 Co0 2.148 . S
N4 C1 1.301 . S
N4 C2 1.317 . S
N5 C1 1.328 . S
N5 C3 1.350 . S
H6 C1 0.930 . S
H7 C2 0.930 . S
C8 O9 1.224 . S
C8 O27 1.247 . S
O9 C8 1.224 . S
N10 Co0 2.128 1_655 S
N10 C11 1.355 . S
N10 C13 1.311 . S
C11 N10 1.355 . S
C11 C12 1.363 . S
C11 H23 0.929 . S
C12 C11 1.363 . S
C12 N14 1.375 . S
C12 H30 0.931 . S
C13 N10 1.311 . S
C13 N14 1.347 . S
C13 H24 0.929 . S
N14 C12 1.375 . S
N14 C13 1.347 . S
C15 C18 1.365 . S
C15 N20 1.328 1_655 S
C15 H21 0.929 . S
C16 C17 1.362 1_455 S
C16 C19 1.378 . S
C16 H31 0.929 . S
C17 C16 1.362 1_655 S
C17 C18 1.366 . S
C18 C15 1.365 . S
C18 C17 1.366 . S
C18 H32 0.930 . S
C19 C16 1.378 . S
C19 N20 1.315 . S
C19 H22 0.930 . S
N20 Co0 2.194 . S
N20 C15 1.328 1_455 S
N20 C19 1.315 . S
H21 C15 0.929 . S
H22 C19 0.930 . S
H23 C11 0.929 . S
H24 C13 0.929 . S
O25 Co0 2.351 1_655 S
O25 C28 1.244 . S
O26 Co0 2.155 . S
O26 C28 1.240 1_455 S
O27 Co0 2.096 . S
O27 C8 1.247 . S
C28 O25 1.244 . S
C28 O26 1.240 1_655 S
H29 C3 0.931 . S
H30 C12 0.931 . S
H31 C16 0.929 . S
H32 C18 0.930 . S
Co33 N37 2.148 . S
Co33 N43 2.128 1_565 S
Co33 N53 2.194 . S
Co33 O58 2.351 1_565 S
Co33 O59 2.155 . S
Co33 O60 2.096 . S
C34 N37 1.301 . S
C34 N38 1.328 . S
C34 H39 0.930 . S
C35 C36 1.333 . S
C35 N37 1.317 . S
C35 H40 0.930 . S
C36 C35 1.333 . S
C36 N38 1.350 . S
C36 H62 0.931 . S
N37 Co33 2.148 . S
N37 C34 1.301 . S
N37 C35 1.317 . S
N38 C34 1.328 . S
N38 C36 1.350 . S
H39 C34 0.930 . S
H40 C35 0.930 . S
C41 O42 1.224 . S
C41 O60 1.247 . S
O42 C41 1.224 . S
N43 Co33 2.128 1_545 S
N43 C44 1.355 . S
N43 C46 1.311 . S
C44 N43 1.355 . S
C44 C45 1.363 . S
C44 H56 0.929 . S
C45 C44 1.363 . S
C45 N47 1.375 . S
C45 H63 0.931 . S
C46 N43 1.311 . S
C46 N47 1.347 . S
C46 H57 0.929 . S
N47 C45 1.375 . S
N47 C46 1.347 . S
C48 C51 1.365 . S
C48 N53 1.328 1_545 S
C48 H54 0.929 . S
C49 C50 1.362 1_565 S
C49 C52 1.378 . S
C49 H64 0.929 . S
C50 C49 1.362 1_545 S
C50 C51 1.366 . S
C51 C48 1.365 . S
C51 C50 1.366 . S
C51 H65 0.930 . S
C52 C49 1.378 . S
C52 N53 1.315 . S
C52 H55 0.930 . S
N53 Co33 2.194 . S
N53 C48 1.328 1_565 S
N53 C52 1.315 . S
H54 C48 0.929 . S
H55 C52 0.930 . S
H56 C44 0.929 . S
H57 C46 0.929 . S
O58 Co33 2.351 1_545 S
O58 C61 1.244 . S
O59 Co33 2.155 . S
O59 C61 1.240 1_565 S
O60 Co33 2.096 . S
O60 C41 1.247 . S
C61 O58 1.244 . S
C61 O59 1.240 1_545 S
H62 C36 0.931 . S
H63 C45 0.931 . S
H64 C49 0.929 . S
H65 C51 0.930 . S
Co66 N70 2.148 . S
Co66 N76 2.128 1_655 S
Co66 N86 2.194 . S
Co66 O91 2.351 1_655 S
Co66 O92 2.155 . S
Co66 O93 2.096 . S
C67 N70 1.301 . S
C67 N71 1.328 . S
C67 H72 0.930 . S
C68 C69 1.333 . S
C68 N70 1.317 . S
C68 H73 0.930 . S
C69 C68 1.333 . S
C69 N71 1.350 . S
C69 H95 0.931 . S
N70 Co66 2.148 . S
N70 C67 1.301 . S
N70 C68 1.317 . S
N71 C67 1.328 . S
N71 C69 1.350 . S
H72 C67 0.930 . S
H73 C68 0.930 . S
C74 O75 1.224 . S
C74 O93 1.247 . S
O75 C74 1.224 . S
N76 Co66 2.128 1_455 S
N76 C77 1.355 . S
N76 C79 1.311 . S
C77 N76 1.355 . S
C77 C78 1.363 . S
C77 H89 0.929 . S
C78 C77 1.363 . S
C78 N80 1.375 . S
C78 H96 0.931 . S
C79 N76 1.311 . S
C79 N80 1.347 . S
C79 H90 0.929 . S
N80 C78 1.375 . S
N80 C79 1.347 . S
C81 C84 1.365 . S
C81 N86 1.328 1_455 S
C81 H87 0.929 . S
C82 C83 1.362 1_655 S
C82 C85 1.378 . S
C82 H97 0.929 . S
C83 C82 1.362 1_455 S
C83 C84 1.366 . S
C84 C81 1.365 . S
C84 C83 1.366 . S
C84 H98 0.930 . S
C85 C82 1.378 . S
C85 N86 1.315 . S
C85 H88 0.930 . S
N86 Co66 2.194 . S
N86 C81 1.328 1_655 S
N86 C85 1.315 . S
H87 C81 0.929 . S
H88 C85 0.930 . S
H89 C77 0.929 . S
H90 C79 0.929 . S
O91 Co66 2.351 1_455 S
O91 C94 1.244 . S
O92 Co66 2.155 . S
O92 C94 1.240 1_655 S
O93 Co66 2.096 . S
O93 C74 1.247 . S
C94 O91 1.244 . S
C94 O92 1.240 1_455 S
H95 C69 0.931 . S
H96 C78 0.931 . S
H97 C82 0.929 . S
H98 C84 0.930 . S
Co99 N103 2.148 . S
Co99 N109 2.128 1_545 S
Co99 N119 2.194 . S
Co99 O124 2.351 1_545 S
Co99 O125 2.155 . S
Co99 O126 2.096 . S
C100 N103 1.301 . S
C100 N104 1.328 . S
C100 H105 0.930 . S
C101 C102 1.333 . S
C101 N103 1.317 . S
C101 H106 0.930 . S
C102 C101 1.333 . S
C102 N104 1.350 . S
C102 H128 0.931 . S
N103 Co99 2.148 . S
N103 C100 1.301 . S
N103 C101 1.317 . S
N104 C100 1.328 . S
N104 C102 1.350 . S
H105 C100 0.930 . S
H106 C101 0.930 . S
C107 O108 1.224 . S
C107 O126 1.247 . S
O108 C107 1.224 . S
N109 Co99 2.128 1_565 S
N109 C110 1.355 . S
N109 C112 1.311 . S
C110 N109 1.355 . S
C110 C111 1.363 . S
C110 H122 0.929 . S
C111 C110 1.363 . S
C111 N113 1.375 . S
C111 H129 0.931 . S
C112 N109 1.311 . S
C112 N113 1.347 . S
C112 H123 0.929 . S
N113 C111 1.375 . S
N113 C112 1.347 . S
C114 C117 1.365 . S
C114 N119 1.328 1_565 S
C114 H120 0.929 . S
C115 C116 1.362 1_545 S
C115 C118 1.378 . S
C115 H130 0.929 . S
C116 C115 1.362 1_565 S
C116 C117 1.366 . S
C117 C114 1.365 . S
C117 C116 1.366 . S
C117 H131 0.930 . S
C118 C115 1.378 . S
C118 N119 1.315 . S
C118 H121 0.930 . S
N119 Co99 2.194 . S
N119 C114 1.328 1_545 S
N119 C118 1.315 . S
H120 C114 0.929 . S
H121 C118 0.930 . S
H122 C110 0.929 . S
H123 C112 0.929 . S
O124 Co99 2.351 1_565 S
O124 C127 1.244 . S
O125 Co99 2.155 . S
O125 C127 1.240 1_545 S
O126 Co99 2.096 . S
O126 C107 1.247 . S
C127 O124 1.244 . S
C127 O125 1.240 1_565 S
H128 C102 0.931 . S
H129 C111 0.931 . S
H130 C115 0.929 . S
H131 C117 0.930 . S
Co132 N136 2.148 . S
Co132 N142 2.128 1_455 S
Co132 N152 2.194 . S
Co132 O157 2.351 1_455 S
Co132 O158 2.155 . S
Co132 O159 2.096 . S
C133 N136 1.301 . S
C133 N137 1.328 . S
C133 H138 0.930 . S
C134 C135 1.333 . S
C134 N136 1.317 . S
C134 H139 0.930 . S
C135 C134 1.333 . S
C135 N137 1.350 . S
C135 H161 0.931 . S
N136 Co132 2.148 . S
N136 C133 1.301 . S
N136 C134 1.317 . S
N137 C133 1.328 . S
N137 C135 1.350 . S
H138 C133 0.930 . S
H139 C134 0.930 . S
C140 O141 1.224 . S
C140 O159 1.247 . S
O141 C140 1.224 . S
N142 Co132 2.128 1_655 S
N142 C143 1.355 . S
N142 C145 1.311 . S
C143 N142 1.355 . S
C143 C144 1.363 . S
C143 H155 0.929 . S
C144 C143 1.363 . S
C144 N146 1.375 . S
C144 H162 0.931 . S
C145 N142 1.311 . S
C145 N146 1.347 . S
C145 H156 0.929 . S
N146 C144 1.375 . S
N146 C145 1.347 . S
C147 C150 1.365 . S
C147 N152 1.328 1_655 S
C147 H153 0.929 . S
C148 C149 1.362 1_455 S
C148 C151 1.378 . S
C148 H163 0.929 . S
C149 C148 1.362 1_655 S
C149 C150 1.366 . S
C150 C147 1.365 . S
C150 C149 1.366 . S
C150 H164 0.930 . S
C151 C148 1.378 . S
C151 N152 1.315 . S
C151 H154 0.930 . S
N152 Co132 2.194 . S
N152 C147 1.328 1_455 S
N152 C151 1.315 . S
H153 C147 0.929 . S
H154 C151 0.930 . S
H155 C143 0.929 . S
H156 C145 0.929 . S
O157 Co132 2.351 1_655 S
O157 C160 1.244 . S
O158 Co132 2.155 . S
O158 C160 1.240 1_455 S
O159 Co132 2.096 . S
O159 C140 1.247 . S
C160 O157 1.244 . S
C160 O158 1.240 1_655 S
H161 C135 0.931 . S
H162 C144 0.931 . S
H163 C148 0.929 . S
H164 C150 0.930 . S
Co165 N169 2.148 . S
Co165 N175 2.128 1_565 S
Co165 N185 2.194 . S
Co165 O190 2.351 1_565 S
Co165 O191 2.155 . S
Co165 O192 2.096 . S
C166 N169 1.301 . S
C166 N170 1.328 . S
C166 H171 0.930 . S
C167 C168 1.333 . S
C167 N169 1.317 . S
C167 H172 0.930 . S
C168 C167 1.333 . S
C168 N170 1.350 . S
C168 H194 0.931 . S
N169 Co165 2.148 . S
N169 C166 1.301 . S
N169 C167 1.317 . S
N170 C166 1.328 . S
N170 C168 1.350 . S
H171 C166 0.930 . S
H172 C167 0.930 . S
C173 O174 1.224 . S
C173 O192 1.247 . S
O174 C173 1.224 . S
N175 Co165 2.128 1_545 S
N175 C176 1.355 . S
N175 C178 1.311 . S
C176 N175 1.355 . S
C176 C177 1.363 . S
C176 H188 0.929 . S
C177 C176 1.363 . S
C177 N179 1.375 . S
C177 H195 0.931 . S
C178 N175 1.311 . S
C178 N179 1.347 . S
C178 H189 0.929 . S
N179 C177 1.375 . S
N179 C178 1.347 . S
C180 C183 1.365 . S
C180 N185 1.328 1_545 S
C180 H186 0.929 . S
C181 C182 1.362 1_565 S
C181 C184 1.378 . S
C181 H196 0.929 . S
C182 C181 1.362 1_545 S
C182 C183 1.366 . S
C183 C180 1.365 . S
C183 C182 1.366 . S
C183 H197 0.930 . S
C184 C181 1.378 . S
C184 N185 1.315 . S
C184 H187 0.930 . S
N185 Co165 2.194 . S
N185 C180 1.328 1_565 S
N185 C184 1.315 . S
H186 C180 0.929 . S
H187 C184 0.930 . S
H188 C176 0.929 . S
H189 C178 0.929 . S
O190 Co165 2.351 1_545 S
O190 C193 1.244 . S
O191 Co165 2.155 . S
O191 C193 1.240 1_565 S
O192 Co165 2.096 . S
O192 C173 1.247 . S
C193 O190 1.244 . S
C193 O191 1.240 1_545 S
H194 C168 0.931 . S
H195 C177 0.931 . S
H196 C181 0.929 . S
H197 C183 0.930 . S
Co198 N202 2.148 . S
Co198 N208 2.128 1_655 S
Co198 N218 2.194 . S
Co198 O223 2.351 1_655 S
Co198 O224 2.155 . S
Co198 O225 2.096 . S
C199 N202 1.301 . S
C199 N203 1.328 . S
C199 H204 0.930 . S
C200 C201 1.333 . S
C200 N202 1.317 . S
C200 H205 0.930 . S
C201 C200 1.333 . S
C201 N203 1.350 . S
C201 H227 0.931 . S
N202 Co198 2.148 . S
N202 C199 1.301 . S
N202 C200 1.317 . S
N203 C199 1.328 . S
N203 C201 1.350 . S
H204 C199 0.930 . S
H205 C200 0.930 . S
C206 O207 1.224 . S
C206 O225 1.247 . S
O207 C206 1.224 . S
N208 Co198 2.128 1_455 S
N208 C209 1.355 . S
N208 C211 1.311 . S
C209 N208 1.355 . S
C209 C210 1.363 . S
C209 H221 0.929 . S
C210 C209 1.363 . S
C210 N212 1.375 . S
C210 H228 0.931 . S
C211 N208 1.311 . S
C211 N212 1.347 . S
C211 H222 0.929 . S
N212 C210 1.375 . S
N212 C211 1.347 . S
C213 C216 1.365 . S
C213 N218 1.328 1_455 S
C213 H219 0.929 . S
C214 C215 1.362 1_655 S
C214 C217 1.378 . S
C214 H229 0.929 . S
C215 C214 1.362 1_455 S
C215 C216 1.366 . S
C216 C213 1.365 . S
C216 C215 1.366 . S
C216 H230 0.930 . S
C217 C214 1.378 . S
C217 N218 1.315 . S
C217 H220 0.930 . S
N218 Co198 2.194 . S
N218 C213 1.328 1_655 S
N218 C217 1.315 . S
H219 C213 0.929 . S
H220 C217 0.930 . S
H221 C209 0.929 . S
H222 C211 0.929 . S
O223 Co198 2.351 1_455 S
O223 C226 1.244 . S
O224 Co198 2.155 . S
O224 C226 1.240 1_655 S
O225 Co198 2.096 . S
O225 C206 1.247 . S
C226 O223 1.244 . S
C226 O224 1.240 1_455 S
H227 C201 0.931 . S
H228 C210 0.931 . S
H229 C214 0.929 . S
H230 C216 0.930 . S
Co231 N235 2.148 . S
Co231 N241 2.128 1_545 S
Co231 N251 2.194 . S
Co231 O256 2.351 1_545 S
Co231 O257 2.155 . S
Co231 O258 2.096 . S
C232 N235 1.301 . S
C232 N236 1.328 . S
C232 H237 0.930 . S
C233 C234 1.333 . S
C233 N235 1.317 . S
C233 H238 0.930 . S
C234 C233 1.333 . S
C234 N236 1.350 . S
C234 H260 0.931 . S
N235 Co231 2.148 . S
N235 C232 1.301 . S
N235 C233 1.317 . S
N236 C232 1.328 . S
N236 C234 1.350 . S
H237 C232 0.930 . S
H238 C233 0.930 . S
C239 O240 1.224 . S
C239 O258 1.247 . S
O240 C239 1.224 . S
N241 Co231 2.128 1_565 S
N241 C242 1.355 . S
N241 C244 1.311 . S
C242 N241 1.355 . S
C242 C243 1.363 . S
C242 H254 0.929 . S
C243 C242 1.363 . S
C243 N245 1.375 . S
C243 H261 0.931 . S
C244 N241 1.311 . S
C244 N245 1.347 . S
C244 H255 0.929 . S
N245 C243 1.375 . S
N245 C244 1.347 . S
C246 C249 1.365 . S
C246 N251 1.328 1_565 S
C246 H252 0.929 . S
C247 C248 1.362 1_545 S
C247 C250 1.378 . S
C247 H262 0.929 . S
C248 C247 1.362 1_565 S
C248 C249 1.366 . S
C249 C246 1.365 . S
C249 C248 1.366 . S
C249 H263 0.930 . S
C250 C247 1.378 . S
C250 N251 1.315 . S
C250 H253 0.930 . S
N251 Co231 2.194 . S
N251 C246 1.328 1_545 S
N251 C250 1.315 . S
H252 C246 0.929 . S
H253 C250 0.930 . S
H254 C242 0.929 . S
H255 C244 0.929 . S
O256 Co231 2.351 1_565 S
O256 C259 1.244 . S
O257 Co231 2.155 . S
O257 C259 1.240 1_545 S
O258 Co231 2.096 . S
O258 C239 1.247 . S
C259 O256 1.244 . S
C259 O257 1.240 1_565 S
H260 C234 0.931 . S
H261 C243 0.931 . S
H262 C247 0.929 . S
H263 C249 0.930 . S
Co264 N268 2.148 . S
Co264 N274 2.128 . S
Co264 N284 2.194 . S
Co264 O289 2.351 . S
Co264 O290 2.155 . S
Co264 O291 2.096 . S
C265 N268 1.301 . S
C265 N269 1.328 . S
C265 H270 0.930 . S
C266 C267 1.333 . S
C266 N268 1.317 . S
C266 H271 0.930 . S
C267 C266 1.333 . S
C267 N269 1.350 . S
C267 H293 0.931 . S
N268 Co264 2.148 . S
N268 C265 1.301 . S
N268 C266 1.317 . S
N269 C265 1.328 . S
N269 C267 1.350 . S
H270 C265 0.930 . S
H271 C266 0.930 . S
C272 O273 1.224 . S
C272 O291 1.247 . S
O273 C272 1.224 . S
N274 Co264 2.128 . S
N274 C275 1.355 . S
N274 C277 1.311 . S
C275 N274 1.355 . S
C275 C276 1.363 . S
C275 H287 0.929 . S
C276 C275 1.363 . S
C276 N278 1.375 . S
C276 H294 0.931 . S
C277 N274 1.311 . S
C277 N278 1.347 . S
C277 H288 0.929 . S
N278 C276 1.375 . S
N278 C277 1.347 . S
C279 C282 1.365 . S
C279 N284 1.328 . S
C279 H285 0.929 . S
C280 C281 1.362 . S
C280 C283 1.378 . S
C280 H295 0.929 . S
C281 C280 1.362 . S
C281 C282 1.366 . S
C282 C279 1.365 . S
C282 C281 1.366 . S
C282 H296 0.930 . S
C283 C280 1.378 . S
C283 N284 1.315 . S
C283 H286 0.930 . S
N284 Co264 2.194 . S
N284 C279 1.328 . S
N284 C283 1.315 . S
H285 C279 0.929 . S
H286 C283 0.930 . S
H287 C275 0.929 . S
H288 C277 0.929 . S
O289 Co264 2.351 . S
O289 C292 1.244 . S
O290 Co264 2.155 . S
O290 C292 1.240 . S
O291 Co264 2.096 . S
O291 C272 1.247 . S
C292 O289 1.244 . S
C292 O290 1.240 . S
H293 C267 0.931 . S
H294 C276 0.931 . S
H295 C280 0.929 . S
H296 C282 0.930 . S
Co297 N301 2.148 . S
Co297 N307 2.128 . S
Co297 N317 2.194 . S
Co297 O322 2.351 . S
Co297 O323 2.155 . S
Co297 O324 2.096 . S
C298 N301 1.301 . S
C298 N302 1.328 . S
C298 H303 0.930 . S
C299 C300 1.333 . S
C299 N301 1.317 . S
C299 H304 0.930 . S
C300 C299 1.333 . S
C300 N302 1.350 . S
C300 H326 0.931 . S
N301 Co297 2.148 . S
N301 C298 1.301 . S
N301 C299 1.317 . S
N302 C298 1.328 . S
N302 C300 1.350 . S
H303 C298 0.930 . S
H304 C299 0.930 . S
C305 O306 1.224 . S
C305 O324 1.247 . S
O306 C305 1.224 . S
N307 Co297 2.128 . S
N307 C308 1.355 . S
N307 C310 1.311 . S
C308 N307 1.355 . S
C308 C309 1.363 . S
C308 H320 0.929 . S
C309 C308 1.363 . S
C309 N311 1.375 . S
C309 H327 0.931 . S
C310 N307 1.311 . S
C310 N311 1.347 . S
C310 H321 0.929 . S
N311 C309 1.375 . S
N311 C310 1.347 . S
C312 C315 1.365 . S
C312 N317 1.328 . S
C312 H318 0.929 . S
C313 C314 1.362 . S
C313 C316 1.378 . S
C313 H328 0.929 . S
C314 C313 1.362 . S
C314 C315 1.366 . S
C315 C312 1.365 . S
C315 C314 1.366 . S
C315 H329 0.930 . S
C316 C313 1.378 . S
C316 N317 1.315 . S
C316 H319 0.930 . S
N317 Co297 2.194 . S
N317 C312 1.328 . S
N317 C316 1.315 . S
H318 C312 0.929 . S
H319 C316 0.930 . S
H320 C308 0.929 . S
H321 C310 0.929 . S
O322 Co297 2.351 . S
O322 C325 1.244 . S
O323 Co297 2.155 . S
O323 C325 1.240 . S
O324 Co297 2.096 . S
O324 C305 1.247 . S
C325 O322 1.244 . S
C325 O323 1.240 . S
H326 C300 0.931 . S
H327 C309 0.931 . S
H328 C313 0.929 . S
H329 C315 0.930 . S
Co330 N334 2.148 . S
Co330 N340 2.128 . S
Co330 N350 2.194 . S
Co330 O355 2.351 . S
Co330 O356 2.155 . S
Co330 O357 2.096 . S
C331 N334 1.301 . S
C331 N335 1.328 . S
C331 H336 0.930 . S
C332 C333 1.333 . S
C332 N334 1.317 . S
C332 H337 0.930 . S
C333 C332 1.333 . S
C333 N335 1.350 . S
C333 H359 0.931 . S
N334 Co330 2.148 . S
N334 C331 1.301 . S
N334 C332 1.317 . S
N335 C331 1.328 . S
N335 C333 1.350 . S
H336 C331 0.930 . S
H337 C332 0.930 . S
C338 O339 1.224 . S
C338 O357 1.247 . S
O339 C338 1.224 . S
N340 Co330 2.128 . S
N340 C341 1.355 . S
N340 C343 1.311 . S
C341 N340 1.355 . S
C341 C342 1.363 . S
C341 H353 0.929 . S
C342 C341 1.363 . S
C342 N344 1.375 . S
C342 H360 0.931 . S
C343 N340 1.311 . S
C343 N344 1.347 . S
C343 H354 0.929 . S
N344 C342 1.375 . S
N344 C343 1.347 . S
C345 C348 1.365 . S
C345 N350 1.328 . S
C345 H351 0.929 . S
C346 C347 1.362 . S
C346 C349 1.378 . S
C346 H361 0.929 . S
C347 C346 1.362 . S
C347 C348 1.366 . S
C348 C345 1.365 . S
C348 C347 1.366 . S
C348 H362 0.930 . S
C349 C346 1.378 . S
C349 N350 1.315 . S
C349 H352 0.930 . S
N350 Co330 2.194 . S
N350 C345 1.328 . S
N350 C349 1.315 . S
H351 C345 0.929 . S
H352 C349 0.930 . S
H353 C341 0.929 . S
H354 C343 0.929 . S
O355 Co330 2.351 . S
O355 C358 1.244 . S
O356 Co330 2.155 . S
O356 C358 1.240 . S
O357 Co330 2.096 . S
O357 C338 1.247 . S
C358 O355 1.244 . S
C358 O356 1.240 . S
H359 C333 0.931 . S
H360 C342 0.931 . S
H361 C346 0.929 . S
H362 C348 0.930 . S
Co363 N367 2.148 . S
Co363 N373 2.128 . S
Co363 N383 2.194 . S
Co363 O388 2.351 . S
Co363 O389 2.155 . S
Co363 O390 2.096 . S
C364 N367 1.301 . S
C364 N368 1.328 . S
C364 H369 0.930 . S
C365 C366 1.333 . S
C365 N367 1.317 . S
C365 H370 0.930 . S
C366 C365 1.333 . S
C366 N368 1.350 . S
C366 H392 0.931 . S
N367 Co363 2.148 . S
N367 C364 1.301 . S
N367 C365 1.317 . S
N368 C364 1.328 . S
N368 C366 1.350 . S
H369 C364 0.930 . S
H370 C365 0.930 . S
C371 O372 1.224 . S
C371 O390 1.247 . S
O372 C371 1.224 . S
N373 Co363 2.128 . S
N373 C374 1.355 . S
N373 C376 1.311 . S
C374 N373 1.355 . S
C374 C375 1.363 . S
C374 H386 0.929 . S
C375 C374 1.363 . S
C375 N377 1.375 . S
C375 H393 0.931 . S
C376 N373 1.311 . S
C376 N377 1.347 . S
C376 H387 0.929 . S
N377 C375 1.375 . S
N377 C376 1.347 . S
C378 C381 1.365 . S
C378 N383 1.328 . S
C378 H384 0.929 . S
C379 C380 1.362 . S
C379 C382 1.378 . S
C379 H394 0.929 . S
C380 C379 1.362 . S
C380 C381 1.366 . S
C381 C378 1.365 . S
C381 C380 1.366 . S
C381 H395 0.930 . S
C382 C379 1.378 . S
C382 N383 1.315 . S
C382 H385 0.930 . S
N383 Co363 2.194 . S
N383 C378 1.328 . S
N383 C382 1.315 . S
H384 C378 0.929 . S
H385 C382 0.930 . S
H386 C374 0.929 . S
H387 C376 0.929 . S
O388 Co363 2.351 . S
O388 C391 1.244 . S
O389 Co363 2.155 . S
O389 C391 1.240 . S
O390 Co363 2.096 . S
O390 C371 1.247 . S
C391 O388 1.244 . S
C391 O389 1.240 . S
H392 C366 0.931 . S
H393 C375 0.931 . S
H394 C379 0.929 . S
H395 C381 0.930 . S
Co396 N400 2.148 . S
Co396 N406 2.128 . S
Co396 N416 2.194 . S
Co396 O421 2.351 . S
Co396 O422 2.155 . S
Co396 O423 2.096 . S
C397 N400 1.301 . S
C397 N401 1.328 . S
C397 H402 0.930 . S
C398 C399 1.333 . S
C398 N400 1.317 . S
C398 H403 0.930 . S
C399 C398 1.333 . S
C399 N401 1.350 . S
C399 H425 0.931 . S
N400 Co396 2.148 . S
N400 C397 1.301 . S
N400 C398 1.317 . S
N401 C397 1.328 . S
N401 C399 1.350 . S
H402 C397 0.930 . S
H403 C398 0.930 . S
C404 O405 1.224 . S
C404 O423 1.247 . S
O405 C404 1.224 . S
N406 Co396 2.128 . S
N406 C407 1.355 . S
N406 C409 1.311 . S
C407 N406 1.355 . S
C407 C408 1.363 . S
C407 H419 0.929 . S
C408 C407 1.363 . S
C408 N410 1.375 . S
C408 H426 0.931 . S
C409 N406 1.311 . S
C409 N410 1.347 . S
C409 H420 0.929 . S
N410 C408 1.375 . S
N410 C409 1.347 . S
C411 C414 1.365 . S
C411 N416 1.328 . S
C411 H417 0.929 . S
C412 C413 1.362 . S
C412 C415 1.378 . S
C412 H427 0.929 . S
C413 C412 1.362 . S
C413 C414 1.366 . S
C414 C411 1.365 . S
C414 C413 1.366 . S
C414 H428 0.930 . S
C415 C412 1.378 . S
C415 N416 1.315 . S
C415 H418 0.930 . S
N416 Co396 2.194 . S
N416 C411 1.328 . S
N416 C415 1.315 . S
H417 C411 0.929 . S
H418 C415 0.930 . S
H419 C407 0.929 . S
H420 C409 0.929 . S
O421 Co396 2.351 . S
O421 C424 1.244 . S
O422 Co396 2.155 . S
O422 C424 1.240 . S
O423 Co396 2.096 . S
O423 C404 1.247 . S
C424 O421 1.244 . S
C424 O422 1.240 . S
H425 C399 0.931 . S
H426 C408 0.931 . S
H427 C412 0.929 . S
H428 C414 0.930 . S
Co429 N433 2.148 . S
Co429 N439 2.128 . S
Co429 N449 2.194 . S
Co429 O454 2.351 . S
Co429 O455 2.155 . S
Co429 O456 2.096 . S
C430 N433 1.301 . S
C430 N434 1.328 . S
C430 H435 0.930 . S
C431 C432 1.333 . S
C431 N433 1.317 . S
C431 H436 0.930 . S
C432 C431 1.333 . S
C432 N434 1.350 . S
C432 H458 0.931 . S
N433 Co429 2.148 . S
N433 C430 1.301 . S
N433 C431 1.317 . S
N434 C430 1.328 . S
N434 C432 1.350 . S
H435 C430 0.930 . S
H436 C431 0.930 . S
C437 O438 1.224 . S
C437 O456 1.247 . S
O438 C437 1.224 . S
N439 Co429 2.128 . S
N439 C440 1.355 . S
N439 C442 1.311 . S
C440 N439 1.355 . S
C440 C441 1.363 . S
C440 H452 0.929 . S
C441 C440 1.363 . S
C441 N443 1.375 . S
C441 H459 0.931 . S
C442 N439 1.311 . S
C442 N443 1.347 . S
C442 H453 0.929 . S
N443 C441 1.375 . S
N443 C442 1.347 . S
C444 C447 1.365 . S
C444 N449 1.328 . S
C444 H450 0.929 . S
C445 C446 1.362 . S
C445 C448 1.378 . S
C445 H460 0.929 . S
C446 C445 1.362 . S
C446 C447 1.366 . S
C447 C444 1.365 . S
C447 C446 1.366 . S
C447 H461 0.930 . S
C448 C445 1.378 . S
C448 N449 1.315 . S
C448 H451 0.930 . S
N449 Co429 2.194 . S
N449 C444 1.328 . S
N449 C448 1.315 . S
H450 C444 0.929 . S
H451 C448 0.930 . S
H452 C440 0.929 . S
H453 C442 0.929 . S
O454 Co429 2.351 . S
O454 C457 1.244 . S
O455 Co429 2.155 . S
O455 C457 1.240 . S
O456 Co429 2.096 . S
O456 C437 1.247 . S
C457 O454 1.244 . S
C457 O455 1.240 . S
H458 C432 0.931 . S
H459 C441 0.931 . S
H460 C445 0.929 . S
H461 C447 0.930 . S
Co462 N466 2.148 . S
Co462 N472 2.128 . S
Co462 N482 2.194 . S
Co462 O487 2.351 . S
Co462 O488 2.155 . S
Co462 O489 2.096 . S
C463 N466 1.301 . S
C463 N467 1.328 . S
C463 H468 0.930 . S
C464 C465 1.333 . S
C464 N466 1.317 . S
C464 H469 0.930 . S
C465 C464 1.333 . S
C465 N467 1.350 . S
C465 H491 0.931 . S
N466 Co462 2.148 . S
N466 C463 1.301 . S
N466 C464 1.317 . S
N467 C463 1.328 . S
N467 C465 1.350 . S
H468 C463 0.930 . S
H469 C464 0.930 . S
C470 O471 1.224 . S
C470 O489 1.247 . S
O471 C470 1.224 . S
N472 Co462 2.128 . S
N472 C473 1.355 . S
N472 C475 1.311 . S
C473 N472 1.355 . S
C473 C474 1.363 . S
C473 H485 0.929 . S
C474 C473 1.363 . S
C474 N476 1.375 . S
C474 H492 0.931 . S
C475 N472 1.311 . S
C475 N476 1.347 . S
C475 H486 0.929 . S
N476 C474 1.375 . S
N476 C475 1.347 . S
C477 C480 1.365 . S
C477 N482 1.328 . S
C477 H483 0.929 . S
C478 C479 1.362 . S
C478 C481 1.378 . S
C478 H493 0.929 . S
C479 C478 1.362 . S
C479 C480 1.366 . S
C480 C477 1.365 . S
C480 C479 1.366 . S
C480 H494 0.930 . S
C481 C478 1.378 . S
C481 N482 1.315 . S
C481 H484 0.930 . S
N482 Co462 2.194 . S
N482 C477 1.328 . S
N482 C481 1.315 . S
H483 C477 0.929 . S
H484 C481 0.930 . S
H485 C473 0.929 . S
H486 C475 0.929 . S
O487 Co462 2.351 . S
O487 C490 1.244 . S
O488 Co462 2.155 . S
O488 C490 1.240 . S
O489 Co462 2.096 . S
O489 C470 1.247 . S
C490 O487 1.244 . S
C490 O488 1.240 . S
H491 C465 0.931 . S
H492 C474 0.931 . S
H493 C478 0.929 . S
H494 C480 0.930 . S
Co495 N499 2.148 . S
Co495 N505 2.128 . S
Co495 N515 2.194 . S
Co495 O520 2.351 . S
Co495 O521 2.155 . S
Co495 O522 2.096 . S
C496 N499 1.301 . S
C496 N500 1.328 . S
C496 H501 0.930 . S
C497 C498 1.333 . S
C497 N499 1.317 . S
C497 H502 0.930 . S
C498 C497 1.333 . S
C498 N500 1.350 . S
C498 H524 0.931 . S
N499 Co495 2.148 . S
N499 C496 1.301 . S
N499 C497 1.317 . S
N500 C496 1.328 . S
N500 C498 1.350 . S
H501 C496 0.930 . S
H502 C497 0.930 . S
C503 O504 1.224 . S
C503 O522 1.247 . S
O504 C503 1.224 . S
N505 Co495 2.128 . S
N505 C506 1.355 . S
N505 C508 1.311 . S
C506 N505 1.355 . S
C506 C507 1.363 . S
C506 H518 0.929 . S
C507 C506 1.363 . S
C507 N509 1.375 . S
C507 H525 0.931 . S
C508 N505 1.311 . S
C508 N509 1.347 . S
C508 H519 0.929 . S
N509 C507 1.375 . S
N509 C508 1.347 . S
C510 C513 1.365 . S
C510 N515 1.328 . S
C510 H516 0.929 . S
C511 C512 1.362 . S
C511 C514 1.378 . S
C511 H526 0.929 . S
C512 C511 1.362 . S
C512 C513 1.366 . S
C513 C510 1.365 . S
C513 C512 1.366 . S
C513 H527 0.930 . S
C514 C511 1.378 . S
C514 N515 1.315 . S
C514 H517 0.930 . S
N515 Co495 2.194 . S
N515 C510 1.328 . S
N515 C514 1.315 . S
H516 C510 0.929 . S
H517 C514 0.930 . S
H518 C506 0.929 . S
H519 C508 0.929 . S
O520 Co495 2.351 . S
O520 C523 1.244 . S
O521 Co495 2.155 . S
O521 C523 1.240 . S
O522 Co495 2.096 . S
O522 C503 1.247 . S
C523 O520 1.244 . S
C523 O521 1.240 . S
H524 C498 0.931 . S
H525 C507 0.931 . S
H526 C511 0.929 . S
H527 C513 0.930 . S
H528 C534 0.930 . S
H529 C537 0.930 . S
H530 C538 0.930 . S
H531 C539 0.930 . S
H532 C542 0.930 . S
H533 C543 0.930 . S
C534 H528 0.930 . S
C534 C535 1.355 . S
C534 C536 1.415 . S
C535 C534 1.355 . S
C535 C537 1.419 . S
C536 C534 1.415 . S
C536 C541 1.425 . S
C536 C543 1.409 . S
C537 H529 0.930 . S
C537 C535 1.419 . S
C537 C538 1.362 . S
C538 H530 0.930 . S
C538 C537 1.362 . S
C538 C541 1.409 . S
C539 H531 0.930 . S
C539 C540 1.355 . S
C539 C541 1.415 . S
C540 C539 1.355 . S
C540 C542 1.419 . S
C541 C536 1.425 . S
C541 C538 1.409 . S
C541 C539 1.415 . S
C542 H532 0.930 . S
C542 C540 1.419 . S
C542 C543 1.362 . S
C543 H533 0.930 . S
C543 C536 1.409 . S
C543 C542 1.362 . S
H544 C550 0.930 . S
H545 C553 0.930 . S
H546 C554 0.930 . S
H547 C555 0.930 . S
H548 C558 0.930 . S
H549 C559 0.930 . S
C550 H544 0.930 . S
C550 C551 1.355 . S
C550 C552 1.415 . S
C551 C550 1.355 . S
C551 C553 1.419 . S
C552 C550 1.415 . S
C552 C557 1.425 . S
C552 C559 1.409 . S
C553 H545 0.930 . S
C553 C551 1.419 . S
C553 C554 1.362 . S
C554 H546 0.930 . S
C554 C553 1.362 . S
C554 C557 1.409 . S
C555 H547 0.930 . S
C555 C556 1.355 . S
C555 C557 1.415 . S
C556 C555 1.355 . S
C556 C558 1.419 . S
C557 C552 1.425 . S
C557 C554 1.409 . S
C557 C555 1.415 . S
C558 H548 0.930 . S
C558 C556 1.419 . S
C558 C559 1.362 . S
C559 H549 0.930 . S
C559 C552 1.409 . S
C559 C558 1.362 . S
H560 C566 0.930 . S
H561 C569 0.930 . S
H562 C570 0.930 . S
H563 C571 0.930 . S
H564 C574 0.930 . S
H565 C575 0.930 . S
C566 H560 0.930 . S
C566 C567 1.355 . S
C566 C568 1.415 . S
C567 C566 1.355 . S
C567 C569 1.419 . S
C568 C566 1.415 . S
C568 C573 1.425 . S
C568 C575 1.409 . S
C569 H561 0.930 . S
C569 C567 1.419 . S
C569 C570 1.362 . S
C570 H562 0.930 . S
C570 C569 1.362 . S
C570 C573 1.409 . S
C571 H563 0.930 . S
C571 C572 1.355 . S
C571 C573 1.415 . S
C572 C571 1.355 . S
C572 C574 1.419 . S
C573 C568 1.425 . S
C573 C570 1.409 . S
C573 C571 1.415 . S
C574 H564 0.930 . S
C574 C572 1.419 . S
C574 C575 1.362 . S
C575 H565 0.930 . S
C575 C568 1.409 . S
C575 C574 1.362 . S
H576 C582 0.930 . S
H577 C585 0.930 . S
H578 C586 0.930 . S
H579 C587 0.930 . S
H580 C590 0.930 . S
H581 C591 0.930 . S
C582 H576 0.930 . S
C582 C583 1.355 . S
C582 C584 1.415 . S
C583 C582 1.355 . S
C583 C585 1.419 . S
C584 C582 1.415 . S
C584 C589 1.425 . S
C584 C591 1.409 . S
C585 H577 0.930 . S
C585 C583 1.419 . S
C585 C586 1.362 . S
C586 H578 0.930 . S
C586 C585 1.362 . S
C586 C589 1.409 . S
C587 H579 0.930 . S
C587 C588 1.355 . S
C587 C589 1.415 . S
C588 C587 1.355 . S
C588 C590 1.419 . S
C589 C584 1.425 . S
C589 C586 1.409 . S
C589 C587 1.415 . S
C590 H580 0.930 . S
C590 C588 1.419 . S
C590 C591 1.362 . S
C591 H581 0.930 . S
C591 C584 1.409 . S
C591 C590 1.362 . S
H592 C598 0.930 . S
H593 C601 0.930 . S
H594 C602 0.930 . S
H595 C603 0.930 . S
H596 C606 0.930 . S
H597 C607 0.930 . S
C598 H592 0.930 . S
C598 C599 1.355 . S
C598 C600 1.415 1_554 S
C599 C598 1.355 . S
C599 C601 1.419 . S
C600 C598 1.415 1_556 S
C600 C605 1.425 . S
C600 C607 1.409 . S
C601 H593 0.930 . S
C601 C599 1.419 . S
C601 C602 1.362 . S
C602 H594 0.930 . S
C602 C601 1.362 . S
C602 C605 1.409 1_554 S
C603 H595 0.930 . S
C603 C604 1.355 . S
C603 C605 1.415 . S
C604 C603 1.355 . S
C604 C606 1.419 . S
C605 C600 1.425 . S
C605 C602 1.409 1_556 S
C605 C603 1.415 . S
C606 H596 0.930 . S
C606 C604 1.419 . S
C606 C607 1.362 . S
C607 H597 0.930 . S
C607 C600 1.409 . S
C607 C606 1.362 . S
H608 C614 0.930 . S
H609 C617 0.930 . S
H610 C618 0.953 . S
H611 C619 0.930 . S
H612 C622 0.930 . S
H613 C623 0.930 . S
C614 H608 0.930 . S
C614 C615 1.355 . S
C614 C616 1.415 1_556 S
C615 C614 1.355 . S
C615 C617 1.419 . S
C616 C614 1.415 1_554 S
C616 C621 1.425 . S
C616 C623 1.409 . S
C617 H609 0.930 . S
C617 C615 1.419 . S
C617 C618 1.362 . S
C618 H610 0.953 . S
C618 C617 1.362 . S
C618 C621 1.409 1_556 S
C619 H611 0.930 . S
C619 C620 1.355 . S
C619 C621 1.415 . S
C620 C619 1.355 . S
C620 C622 1.419 . S
C621 C616 1.425 . S
C621 C618 1.409 1_554 S
C621 C619 1.415 . S
C622 H612 0.930 . S
C622 C620 1.419 . S
C622 C623 1.362 . S
C623 H613 0.930 . S
C623 C616 1.409 . S
C623 C622 1.362 . S
H624 C630 0.930 . S
H625 C633 0.930 . S
H626 C634 0.930 . S
H627 C635 0.930 . S
H628 C638 0.930 . S
H629 C639 0.930 . S
C630 H624 0.930 . S
C630 C631 1.355 . S
C630 C632 1.415 . S
C631 C630 1.355 . S
C631 C633 1.419 . S
C632 C630 1.415 . S
C632 C637 1.425 . S
C632 C639 1.409 1_556 S
C633 H625 0.930 . S
C633 C631 1.419 . S
C633 C634 1.362 . S
C634 H626 0.930 . S
C634 C633 1.362 . S
C634 C637 1.409 . S
C635 H627 0.930 . S
C635 C636 1.355 . S
C635 C637 1.415 1_554 S
C636 C635 1.355 . S
C636 C638 1.419 . S
C637 C632 1.425 . S
C637 C634 1.409 . S
C637 C635 1.415 1_556 S
C638 H628 0.930 . S
C638 C636 1.419 . S
C638 C639 1.362 . S
C639 H629 0.930 . S
C639 C632 1.409 1_554 S
C639 C638 1.362 . S
H640 C646 0.930 . S
H641 C649 0.930 . S
H642 C650 0.930 . S
H643 C651 0.930 . S
H644 C654 0.930 . S
H645 C655 0.930 . S
C646 H640 0.930 . S
C646 C647 1.355 . S
C646 C648 1.415 . S
C647 C646 1.355 . S
C647 C649 1.419 . S
C648 C646 1.415 . S
C648 C653 1.425 . S
C648 C655 1.409 1_554 S
C649 H641 0.930 . S
C649 C647 1.419 . S
C649 C650 1.362 . S
C650 H642 0.930 . S
C650 C649 1.362 . S
C650 C653 1.409 . S
C651 H643 0.930 . S
C651 C652 1.355 . S
C651 C653 1.415 1_556 S
C652 C651 1.355 . S
C652 C654 1.419 . S
C653 C648 1.425 . S
C653 C650 1.409 . S
C653 C651 1.415 1_554 S
C654 H644 0.930 . S
C654 C652 1.419 . S
C654 C655 1.362 . S
C655 H645 0.930 . S
C655 C648 1.409 1_556 S
C655 C654 1.362 . S
H656 C662 0.930 . S
H657 C665 0.930 . S
H658 C666 0.930 . S
H659 C667 0.930 . S
H660 C670 0.930 . S
H661 C671 0.930 . S
C662 H656 0.930 . S
C662 C663 1.355 . S
C662 C664 1.415 . S
C663 C662 1.355 . S
C663 C665 1.419 . S
C664 C662 1.415 . S
C664 C669 1.425 . S
C664 C671 1.409 . S
C665 H657 0.930 . S
C665 C663 1.419 . S
C665 C666 1.362 . S
C666 H658 0.930 . S
C666 C665 1.362 . S
C666 C669 1.409 . S
C667 H659 0.930 . S
C667 C668 1.355 . S
C667 C669 1.415 . S
C668 C667 1.355 . S
C668 C670 1.419 . S
C669 C664 1.425 . S
C669 C666 1.409 . S
C669 C667 1.415 . S
C670 H660 0.930 . S
C670 C668 1.419 . S
C670 C671 1.362 . S
C671 H661 0.930 . S
C671 C664 1.409 . S
C671 C670 1.362 . S
H672 C678 0.930 . S
H673 C681 0.930 . S
H674 C682 0.930 . S
H675 C683 0.930 . S
H676 C686 0.930 . S
H677 C687 0.930 . S
C678 H672 0.930 . S
C678 C679 1.355 . S
C678 C680 1.415 . S
C679 C678 1.355 . S
C679 C681 1.419 . S
C680 C678 1.415 . S
C680 C685 1.425 . S
C680 C687 1.409 . S
C681 H673 0.930 . S
C681 C679 1.419 . S
C681 C682 1.362 . S
C682 H674 0.930 . S
C682 C681 1.362 . S
C682 C685 1.409 . S
C683 H675 0.930 . S
C683 C684 1.355 . S
C683 C685 1.415 . S
C684 C683 1.355 . S
C684 C686 1.419 . S
C685 C680 1.425 . S
C685 C682 1.409 . S
C685 C683 1.415 . S
C686 H676 0.930 . S
C686 C684 1.419 . S
C686 C687 1.362 . S
C687 H677 0.930 . S
C687 C680 1.409 . S
C687 C686 1.362 . S
H688 C694 0.930 . S
H689 C697 0.930 . S
H690 C698 0.930 . S
H691 C699 0.930 . S
H692 C702 0.930 . S
H693 C703 0.930 . S
C694 H688 0.930 . S
C694 C695 1.355 . S
C694 C696 1.415 . S
C695 C694 1.355 . S
C695 C697 1.419 . S
C696 C694 1.415 . S
C696 C701 1.425 . S
C696 C703 1.409 . S
C697 H689 0.930 . S
C697 C695 1.419 . S
C697 C698 1.362 . S
C698 H690 0.930 . S
C698 C697 1.362 . S
C698 C701 1.409 . S
C699 H691 0.930 . S
C699 C700 1.355 . S
C699 C701 1.415 . S
C700 C699 1.355 . S
C700 C702 1.419 . S
C701 C696 1.425 . S
C701 C698 1.409 . S
C701 C699 1.415 . S
C702 H692 0.930 . S
C702 C700 1.419 . S
C702 C703 1.362 . S
C703 H693 0.930 . S
C703 C696 1.409 . S
C703 C702 1.362 . S
H704 C710 0.930 . S
H705 C713 0.930 . S
H706 C714 0.930 . S
H707 C715 0.930 . S
H708 C718 0.930 . S
H709 C719 0.930 . S
C710 H704 0.930 . S
C710 C711 1.355 . S
C710 C712 1.415 . S
C711 C710 1.355 . S
C711 C713 1.419 . S
C712 C710 1.415 . S
C712 C717 1.425 . S
C712 C719 1.409 . S
C713 H705 0.930 . S
C713 C711 1.419 . S
C713 C714 1.362 . S
C714 H706 0.930 . S
C714 C713 1.362 . S
C714 C717 1.409 . S
C715 H707 0.930 . S
C715 C716 1.355 . S
C715 C717 1.415 . S
C716 C715 1.355 . S
C716 C718 1.419 . S
C717 C712 1.425 . S
C717 C714 1.409 . S
C717 C715 1.415 . S
C718 H708 0.930 . S
C718 C716 1.419 . S
C718 C719 1.362 . S
C719 H709 0.930 . S
C719 C712 1.409 . S
C719 C718 1.362 . S
H720 C726 0.930 . S
H721 C729 0.930 . S
H722 C730 0.930 . S
H723 C731 0.930 . S
H724 C734 0.930 . S
H725 C735 0.930 . S
C726 H720 0.930 . S
C726 C727 1.355 . S
C726 C728 1.415 . S
C727 C726 1.355 . S
C727 C729 1.419 . S
C728 C726 1.415 . S
C728 C733 1.425 . S
C728 C735 1.409 . S
C729 H721 0.930 . S
C729 C727 1.419 . S
C729 C730 1.362 . S
C730 H722 0.930 . S
C730 C729 1.362 . S
C730 C733 1.409 . S
C731 H723 0.930 . S
C731 C732 1.355 . S
C731 C733 1.415 . S
C732 C731 1.355 . S
C732 C734 1.419 . S
C733 C728 1.425 . S
C733 C730 1.409 . S
C733 C731 1.415 . S
C734 H724 0.930 . S
C734 C732 1.419 . S
C734 C735 1.362 . S
C735 H725 0.930 . S
C735 C728 1.409 . S
C735 C734 1.362 . S
H736 C742 0.930 . S
H737 C745 0.930 . S
H738 C746 0.930 . S
H739 C747 0.930 . S
H740 C750 0.930 . S
H741 C751 0.930 . S
C742 H736 0.930 . S
C742 C743 1.355 . S
C742 C744 1.415 . S
C743 C742 1.355 . S
C743 C745 1.419 . S
C744 C742 1.415 . S
C744 C749 1.425 . S
C744 C751 1.409 . S
C745 H737 0.930 . S
C745 C743 1.419 . S
C745 C746 1.362 . S
C746 H738 0.930 . S
C746 C745 1.362 . S
C746 C749 1.409 . S
C747 H739 0.930 . S
C747 C748 1.355 . S
C747 C749 1.415 . S
C748 C747 1.355 . S
C748 C750 1.419 . S
C749 C744 1.425 . S
C749 C746 1.409 . S
C749 C747 1.415 . S
C750 H740 0.930 . S
C750 C748 1.419 . S
C750 C751 1.362 . S
C751 H741 0.930 . S
C751 C744 1.409 . S
C751 C750 1.362 . S
H752 C758 0.930 . S
H753 C761 0.930 . S
H754 C762 0.930 . S
H755 C763 0.930 . S
H756 C766 0.930 . S
H757 C767 0.930 . S
C758 H752 0.930 . S
C758 C759 1.355 . S
C758 C760 1.415 . S
C759 C758 1.355 . S
C759 C761 1.419 . S
C760 C758 1.415 . S
C760 C765 1.425 . S
C760 C767 1.409 . S
C761 H753 0.930 . S
C761 C759 1.419 . S
C761 C762 1.362 . S
C762 H754 0.930 . S
C762 C761 1.362 . S
C762 C765 1.409 . S
C763 H755 0.930 . S
C763 C764 1.355 . S
C763 C765 1.415 . S
C764 C763 1.355 . S
C764 C766 1.419 . S
C765 C760 1.425 . S
C765 C762 1.409 . S
C765 C763 1.415 . S
C766 H756 0.930 . S
C766 C764 1.419 . S
C766 C767 1.362 . S
C767 H757 0.930 . S
C767 C760 1.409 . S
C767 C766 1.362 . S
H768 C774 0.930 . S
H769 C777 0.930 . S
H770 C778 0.930 . S
H771 C779 0.930 . S
H772 C782 0.930 . S
H773 C783 0.930 . S
C774 H768 0.930 . S
C774 C775 1.355 . S
C774 C776 1.415 . S
C775 C774 1.355 . S
C775 C777 1.419 . S
C776 C774 1.415 . S
C776 C781 1.425 . S
C776 C783 1.409 . S
C777 H769 0.930 . S
C777 C775 1.419 . S
C777 C778 1.362 . S
C778 H770 0.930 . S
C778 C777 1.362 . S
C778 C781 1.409 . S
C779 H771 0.930 . S
C779 C780 1.355 . S
C779 C781 1.415 . S
C780 C779 1.355 . S
C780 C782 1.419 . S
C781 C776 1.425 . S
C781 C778 1.409 . S
C781 C779 1.415 . S
C782 H772 0.930 . S
C782 C780 1.419 . S
C782 C783 1.362 . S
C783 H773 0.930 . S
C783 C776 1.409 . S
C783 C782 1.362 . S
H784 C790 0.930 . S
H785 C793 0.930 . S
H786 C794 0.930 . S
H787 C795 0.930 . S
H788 C798 0.930 . S
H789 C799 0.930 . S
C790 H784 0.930 . S
C790 C791 1.355 . S
C790 C792 1.415 . S
C791 C790 1.355 . S
C791 C793 1.419 1_655 S
C792 C790 1.415 . S
C792 C797 1.425 1_645 S
C792 C799 1.409 1_545 S
C793 H785 0.930 . S
C793 C791 1.419 1_455 S
C793 C794 1.362 . S
C794 H786 0.930 . S
C794 C793 1.362 . S
C794 C797 1.409 1_545 S
C795 H787 0.930 . S
C795 C796 1.355 . S
C795 C797 1.415 . S
C796 C795 1.355 . S
C796 C798 1.419 1_455 S
C797 C792 1.425 1_465 S
C797 C794 1.409 1_565 S
C797 C795 1.415 . S
C798 H788 0.930 . S
C798 C796 1.419 1_655 S
C798 C799 1.362 . S
C799 H789 0.930 . S
C799 C792 1.409 1_565 S
C799 C798 1.362 . S
H800 C806 0.930 . S
H801 C809 0.930 . S
H802 C810 0.930 . S
H803 C811 0.930 . S
H804 C814 0.930 . S
H805 C815 0.930 . S
C806 H800 0.930 . S
C806 C807 1.355 . S
C806 C808 1.415 . S
C807 C806 1.355 . S
C807 C809 1.419 1_545 S
C808 C806 1.415 . S
C808 C813 1.425 1_445 S
C808 C815 1.409 1_455 S
C809 H801 0.930 . S
C809 C807 1.419 1_565 S
C809 C810 1.362 . S
C810 H802 0.930 . S
C810 C809 1.362 . S
C810 C813 1.409 1_455 S
C811 H803 0.930 . S
C811 C812 1.355 . S
C811 C813 1.415 . S
C812 C811 1.355 . S
C812 C814 1.419 1_565 S
C813 C808 1.425 1_665 S
C813 C810 1.409 1_655 S
C813 C811 1.415 . S
C814 H804 0.930 . S
C814 C812 1.419 1_545 S
C814 C815 1.362 . S
C815 H805 0.930 . S
C815 C808 1.409 1_655 S
C815 C814 1.362 . S
H816 C822 0.930 . S
H817 C825 0.930 . S
H818 C826 0.930 . S
H819 C827 0.930 . S
H820 C830 0.930 . S
H821 C831 0.930 . S
C822 H816 0.930 . S
C822 C823 1.355 . S
C822 C824 1.415 . S
C823 C822 1.355 . S
C823 C825 1.419 1_455 S
C824 C822 1.415 . S
C824 C829 1.425 1_455 S
C824 C831 1.409 . S
C825 H817 0.930 . S
C825 C823 1.419 1_655 S
C825 C826 1.362 . S
C826 H818 0.930 . S
C826 C825 1.362 . S
C826 C829 1.409 . S
C827 H819 0.930 . S
C827 C828 1.355 . S
C827 C829 1.415 . S
C828 C827 1.355 . S
C828 C830 1.419 1_655 S
C829 C824 1.425 1_655 S
C829 C826 1.409 . S
C829 C827 1.415 . S
C830 H820 0.930 . S
C830 C828 1.419 1_455 S
C830 C831 1.362 . S
C831 H821 0.930 . S
C831 C824 1.409 . S
C831 C830 1.362 . S
H832 C838 0.930 . S
H833 C841 0.930 . S
H834 C842 0.930 . S
H835 C843 0.930 . S
H836 C846 0.930 . S
H837 C847 0.930 . S
C838 H832 0.930 . S
C838 C839 1.355 . S
C838 C840 1.415 . S
C839 C838 1.355 . S
C839 C841 1.419 1_565 S
C840 C838 1.415 . S
C840 C845 1.425 1_565 S
C840 C847 1.409 . S
C841 H833 0.930 . S
C841 C839 1.419 1_545 S
C841 C842 1.362 . S
C842 H834 0.930 . S
C842 C841 1.362 . S
C842 C845 1.409 . S
C843 H835 0.930 . S
C843 C844 1.355 . S
C843 C845 1.415 . S
C844 C843 1.355 . S
C844 C846 1.419 1_545 S
C845 C840 1.425 1_545 S
C845 C842 1.409 . S
C845 C843 1.415 . S
C846 H836 0.930 . S
C846 C844 1.419 1_565 S
C846 C847 1.362 . S
C847 H837 0.930 . S
C847 C840 1.409 . S
C847 C846 1.362 . S
H848 C854 0.930 . S
H849 C857 0.930 . S
H850 C858 0.930 . S
H851 C859 0.930 . S
H852 C862 0.930 . S
H853 C863 0.930 . S
C854 H848 0.930 . S
C854 C855 1.355 . S
C854 C856 1.415 . S
C855 C854 1.355 . S
C855 C857 1.419 . S
C856 C854 1.415 . S
C856 C861 1.425 . S
C856 C863 1.409 . S
C857 H849 0.930 . S
C857 C855 1.419 . S
C857 C858 1.362 . S
C858 H850 0.930 . S
C858 C857 1.362 . S
C858 C861 1.409 . S
C859 H851 0.930 . S
C859 C860 1.355 . S
C859 C861 1.415 . S
C860 C859 1.355 . S
C860 C862 1.419 . S
C861 C856 1.425 . S
C861 C858 1.409 . S
C861 C859 1.415 . S
C862 H852 0.930 . S
C862 C860 1.419 . S
C862 C863 1.362 . S
C863 H853 0.930 . S
C863 C856 1.409 . S
C863 C862 1.362 . S
H864 C870 0.930 . S
H865 C873 0.930 . S
H866 C874 0.930 . S
H867 C875 0.930 . S
H868 C878 0.930 . S
H869 C879 0.930 . S
C870 H864 0.930 . S
C870 C871 1.355 . S
C870 C872 1.415 . S
C871 C870 1.355 . S
C871 C873 1.419 . S
C872 C870 1.415 . S
C872 C877 1.425 . S
C872 C879 1.409 . S
C873 H865 0.930 . S
C873 C871 1.419 . S
C873 C874 1.362 . S
C874 H866 0.930 . S
C874 C873 1.362 . S
C874 C877 1.409 . S
C875 H867 0.930 . S
C875 C876 1.355 . S
C875 C877 1.415 . S
C876 C875 1.355 . S
C876 C878 1.419 . S
C877 C872 1.425 . S
C877 C874 1.409 . S
C877 C875 1.415 . S
C878 H868 0.930 . S
C878 C876 1.419 . S
C878 C879 1.362 . S
C879 H869 0.930 . S
C879 C872 1.409 . S
C879 C878 1.362 . S
H880 C886 0.930 . S
H881 C889 0.930 . S
H882 C890 0.930 . S
H883 C891 0.930 . S
H884 C894 0.930 . S
H885 C895 0.930 . S
C886 H880 0.930 . S
C886 C887 1.355 . S
C886 C888 1.415 . S
C887 C886 1.355 . S
C887 C889 1.419 . S
C888 C886 1.415 . S
C888 C893 1.425 1_565 S
C888 C895 1.409 1_565 S
C889 H881 0.930 . S
C889 C887 1.419 . S
C889 C890 1.362 . S
C890 H882 0.930 . S
C890 C889 1.362 . S
C890 C893 1.409 1_565 S
C891 H883 0.930 . S
C891 C892 1.355 . S
C891 C893 1.415 . S
C892 C891 1.355 . S
C892 C894 1.419 . S
C893 C888 1.425 1_545 S
C893 C890 1.409 1_545 S
C893 C891 1.415 . S
C894 H884 0.930 . S
C894 C892 1.419 . S
C894 C895 1.362 . S
C895 H885 0.930 . S
C895 C888 1.409 1_545 S
C895 C894 1.362 . S
H896 C902 0.930 . S
H897 C905 0.930 . S
H898 C906 0.930 . S
H899 C907 0.930 . S
H900 C910 0.930 . S
H901 C911 0.930 . S
C902 H896 0.930 . S
C902 C903 1.355 . S
C902 C904 1.415 . S
C903 C902 1.355 . S
C903 C905 1.419 . S
C904 C902 1.415 . S
C904 C909 1.425 1_455 S
C904 C911 1.409 1_455 S
C905 H897 0.930 . S
C905 C903 1.419 . S
C905 C906 1.362 . S
C906 H898 0.930 . S
C906 C905 1.362 . S
C906 C909 1.409 1_455 S
C907 H899 0.930 . S
C907 C908 1.355 . S
C907 C909 1.415 . S
C908 C907 1.355 . S
C908 C910 1.419 . S
C909 C904 1.425 1_655 S
C909 C906 1.409 1_655 S
C909 C907 1.415 . S
C910 H900 0.930 . S
C910 C908 1.419 . S
C910 C911 1.362 . S
C911 H901 0.930 . S
C911 C904 1.409 1_655 S
C911 C910 1.362 . S
H912 C918 0.930 . S
H913 C921 0.930 . S
H914 C922 0.930 . S
H915 C923 0.930 . S
H916 C926 0.930 . S
H917 C927 0.930 . S
C918 H912 0.930 . S
C918 C919 1.355 1_655 S
C918 C920 1.415 . S
C919 C918 1.355 1_455 S
C919 C921 1.419 . S
C920 C918 1.415 . S
C920 C925 1.425 1_655 S
C920 C927 1.409 . S
C921 H913 0.930 . S
C921 C919 1.419 . S
C921 C922 1.362 . S
C922 H914 0.930 . S
C922 C921 1.362 . S
C922 C925 1.409 . S
C923 H915 0.930 . S
C923 C924 1.355 1_455 S
C923 C925 1.415 . S
C924 C923 1.355 1_655 S
C924 C926 1.419 . S
C925 C920 1.425 1_455 S
C925 C922 1.409 . S
C925 C923 1.415 . S
C926 H916 0.930 . S
C926 C924 1.419 . S
C926 C927 1.362 . S
C927 H917 0.930 . S
C927 C920 1.409 . S
C927 C926 1.362 . S
H928 C934 0.930 . S
H929 C937 0.930 . S
H930 C938 0.930 . S
H931 C939 0.930 . S
H932 C942 0.930 . S
H933 C943 0.930 . S
C934 H928 0.930 . S
C934 C935 1.355 1_565 S
C934 C936 1.415 . S
C935 C934 1.355 1_545 S
C935 C937 1.419 . S
C936 C934 1.415 . S
C936 C941 1.425 1_565 S
C936 C943 1.409 . S
C937 H929 0.930 . S
C937 C935 1.419 . S
C937 C938 1.362 . S
C938 H930 0.930 . S
C938 C937 1.362 . S
C938 C941 1.409 . S
C939 H931 0.930 . S
C939 C940 1.355 1_545 S
C939 C941 1.415 . S
C940 C939 1.355 1_565 S
C940 C942 1.419 . S
C941 C936 1.425 1_545 S
C941 C938 1.409 . S
C941 C939 1.415 . S
C942 H932 0.930 . S
C942 C940 1.419 . S
C942 C943 1.362 . S
C943 H933 0.930 . S
C943 C936 1.409 . S
C943 C942 1.362 . S
H944 C950 0.930 . S
H945 C953 0.930 . S
H946 C954 0.930 . S
H947 C955 0.930 . S
H948 C958 0.930 . S
H949 C959 0.930 . S
C950 H944 0.930 . S
C950 C951 1.355 1_455 S
C950 C952 1.415 . S
C951 C950 1.355 1_655 S
C951 C953 1.419 . S
C952 C950 1.415 . S
C952 C957 1.425 1_445 S
C952 C959 1.409 1_545 S
C953 H945 0.930 . S
C953 C951 1.419 . S
C953 C954 1.362 . S
C954 H946 0.930 . S
C954 C953 1.362 . S
C954 C957 1.409 1_545 S
C955 H947 0.930 . S
C955 C956 1.355 1_655 S
C955 C957 1.415 . S
C956 C955 1.355 1_455 S
C956 C958 1.419 . S
C957 C952 1.425 1_665 S
C957 C954 1.409 1_565 S
C957 C955 1.415 . S
C958 H948 0.930 . S
C958 C956 1.419 . S
C958 C959 1.362 . S
C959 H949 0.930 . S
C959 C952 1.409 1_565 S
C959 C958 1.362 . S
H960 C966 0.930 . S
H961 C969 0.930 . S
H962 C970 0.930 1_455 S
H963 C971 0.930 . S
H964 C974 0.930 . S
H965 C975 0.930 1_655 S
C966 H960 0.930 . S
C966 C967 1.355 1_545 S
C966 C968 1.415 . S
C967 C966 1.355 1_565 S
C967 C969 1.419 . S
C968 C966 1.415 . S
C968 C973 1.425 1_645 S
C968 C975 1.409 1_655 S
C969 H961 0.930 . S
C969 C967 1.419 . S
C969 C970 1.362 . S
C970 H962 0.930 1_655 S
C970 C969 1.362 . S
C970 C973 1.409 1_655 S
C971 H963 0.930 . S
C971 C972 1.355 1_565 S
C971 C973 1.415 . S
C972 C971 1.355 1_545 S
C972 C974 1.419 . S
C973 C968 1.425 1_465 S
C973 C970 1.409 1_455 S
C973 C971 1.415 . S
C974 H964 0.930 . S
C974 C972 1.419 . S
C974 C975 1.362 . S
C975 H965 0.930 1_455 S
C975 C968 1.409 1_455 S
C975 C974 1.362 . S
H976 C982 0.930 . S
H977 C985 0.930 . S
H978 C986 0.930 . S
H979 C987 0.930 . S
H980 C990 0.930 . S
H981 C991 0.930 . S
C982 H976 0.930 . S
C982 C983 1.355 . S
C982 C984 1.415 . S
C983 C982 1.355 . S
C983 C985 1.419 . S
C984 C982 1.415 . S
C984 C989 1.425 1_545 S
C984 C991 1.409 1_545 S
C985 H977 0.930 . S
C985 C983 1.419 . S
C985 C986 1.362 . S
C986 H978 0.930 . S
C986 C985 1.362 . S
C986 C989 1.409 1_545 S
C987 H979 0.930 . S
C987 C988 1.355 . S
C987 C989 1.415 . S
C988 C987 1.355 . S
C988 C990 1.419 . S
C989 C984 1.425 1_565 S
C989 C986 1.409 1_565 S
C989 C987 1.415 . S
C990 H980 0.930 . S
C990 C988 1.419 . S
C990 C991 1.362 . S
C991 H981 0.930 . S
C991 C984 1.409 1_565 S
C991 C990 1.362 . S
H992 C998 0.930 . S
H993 C1001 0.930 . S
H994 C1002 0.930 . S
H995 C1003 0.930 . S
H996 C1006 0.930 . S
H997 C1007 0.930 . S
C998 H992 0.930 . S
C998 C999 1.355 . S
C998 C1000 1.415 . S
C999 C998 1.355 . S
C999 C1001 1.419 . S
C1000 C998 1.415 . S
C1000 C1005 1.425 1_655 S
C1000 C1007 1.409 1_655 S
C1001 H993 0.930 . S
C1001 C999 1.419 . S
C1001 C1002 1.362 . S
C1002 H994 0.930 . S
C1002 C1001 1.362 . S
C1002 C1005 1.409 1_655 S
C1003 H995 0.930 . S
C1003 C1004 1.355 . S
C1003 C1005 1.415 . S
C1004 C1003 1.355 . S
C1004 C1006 1.419 . S
C1005 C1000 1.425 1_455 S
C1005 C1002 1.409 1_455 S
C1005 C1003 1.415 . S
C1006 H996 0.930 . S
C1006 C1004 1.419 . S
C1006 C1007 1.362 . S
C1007 H997 0.930 . S
C1007 C1000 1.409 1_455 S
C1007 C1006 1.362 . S
H1008 C1014 0.930 . S
H1009 C1017 0.930 . S
H1010 C1018 0.930 . S
H1011 C1019 0.930 . S
H1012 C1022 0.930 . S
H1013 C1023 0.930 . S
C1014 H1008 0.930 . S
C1014 C1015 1.355 . S
C1014 C1016 1.415 . S
C1015 C1014 1.355 . S
C1015 C1017 1.419 . S
C1016 C1014 1.415 . S
C1016 C1021 1.425 . S
C1016 C1023 1.409 . S
C1017 H1009 0.930 . S
C1017 C1015 1.419 . S
C1017 C1018 1.362 . S
C1018 H1010 0.930 . S
C1018 C1017 1.362 . S
C1018 C1021 1.409 . S
C1019 H1011 0.930 . S
C1019 C1020 1.355 . S
C1019 C1021 1.415 . S
C1020 C1019 1.355 . S
C1020 C1022 1.419 . S
C1021 C1016 1.425 . S
C1021 C1018 1.409 . S
C1021 C1019 1.415 . S
C1022 H1012 0.930 . S
C1022 C1020 1.419 . S
C1022 C1023 1.362 . S
C1023 H1013 0.930 . S
C1023 C1016 1.409 . S
C1023 C1022 1.362 . S
H1024 C1030 0.930 . S
H1025 C1033 0.930 . S
H1026 C1034 0.930 . S
H1027 C1035 0.930 . S
H1028 C1038 0.930 . S
H1029 C1039 0.930 . S
C1030 H1024 0.930 . S
C1030 C1031 1.355 . S
C1030 C1032 1.415 . S
C1031 C1030 1.355 . S
C1031 C1033 1.419 . S
C1032 C1030 1.415 . S
C1032 C1037 1.425 . S
C1032 C1039 1.409 . S
C1033 H1025 0.930 . S
C1033 C1031 1.419 . S
C1033 C1034 1.362 . S
C1034 H1026 0.930 . S
C1034 C1033 1.362 . S
C1034 C1037 1.409 . S
C1035 H1027 0.930 . S
C1035 C1036 1.355 . S
C1035 C1037 1.415 . S
C1036 C1035 1.355 . S
C1036 C1038 1.419 . S
C1037 C1032 1.425 . S
C1037 C1034 1.409 . S
C1037 C1035 1.415 . S
C1038 H1028 0.930 . S
C1038 C1036 1.419 . S
C1038 C1039 1.362 . S
C1039 H1029 0.930 . S
C1039 C1032 1.409 . S
C1039 C1038 1.362 . S
H1040 C1046 0.930 . S
H1041 C1049 0.930 . S
H1042 C1050 0.930 . S
H1043 C1051 0.930 . S
H1044 C1054 0.930 . S
H1045 C1055 0.930 . S
C1046 H1040 0.930 . S
C1046 C1047 1.355 . S
C1046 C1048 1.415 . S
C1047 C1046 1.355 . S
C1047 C1049 1.419 . S
C1048 C1046 1.415 . S
C1048 C1053 1.425 . S
C1048 C1055 1.409 . S
C1049 H1041 0.930 . S
C1049 C1047 1.419 . S
C1049 C1050 1.362 . S
C1050 H1042 0.930 . S
C1050 C1049 1.362 . S
C1050 C1053 1.409 . S
C1051 H1043 0.930 . S
C1051 C1052 1.355 . S
C1051 C1053 1.415 . S
C1052 C1051 1.355 . S
C1052 C1054 1.419 . S
C1053 C1048 1.425 . S
C1053 C1050 1.409 . S
C1053 C1051 1.415 . S
C1054 H1044 0.930 . S
C1054 C1052 1.419 . S
C1054 C1055 1.362 . S
C1055 H1045 0.930 . S
C1055 C1048 1.409 . S
C1055 C1054 1.362 . S
H1056 C1062 0.930 . S
H1057 C1065 0.930 . S
H1058 C1066 0.930 . S
H1059 C1067 0.930 . S
H1060 C1070 0.930 . S
H1061 C1071 0.930 . S
C1062 H1056 0.930 . S
C1062 C1063 1.355 . S
C1062 C1064 1.415 . S
C1063 C1062 1.355 . S
C1063 C1065 1.419 . S
C1064 C1062 1.415 . S
C1064 C1069 1.425 . S
C1064 C1071 1.409 . S
C1065 H1057 0.930 . S
C1065 C1063 1.419 . S
C1065 C1066 1.362 . S
C1066 H1058 0.930 . S
C1066 C1065 1.362 . S
C1066 C1069 1.409 . S
C1067 H1059 0.930 . S
C1067 C1068 1.355 . S
C1067 C1069 1.415 . S
C1068 C1067 1.355 . S
C1068 C1070 1.419 . S
C1069 C1064 1.425 . S
C1069 C1066 1.409 . S
C1069 C1067 1.415 . S
C1070 H1060 0.930 . S
C1070 C1068 1.419 . S
C1070 C1071 1.362 . S
C1071 H1061 0.930 . S
C1071 C1064 1.409 . S
C1071 C1070 1.362 . S
H1072 C1078 0.930 . S
H1073 C1081 0.930 . S
H1074 C1082 0.930 . S
H1075 C1083 0.930 . S
H1076 C1086 0.930 . S
H1077 C1087 0.930 . S
C1078 H1072 0.930 . S
C1078 C1079 1.355 . S
C1078 C1080 1.415 . S
C1079 C1078 1.355 . S
C1079 C1081 1.419 . S
C1080 C1078 1.415 . S
C1080 C1085 1.425 . S
C1080 C1087 1.409 . S
C1081 H1073 0.930 . S
C1081 C1079 1.419 . S
C1081 C1082 1.362 . S
C1082 H1074 0.930 . S
C1082 C1081 1.362 . S
C1082 C1085 1.409 . S
C1083 H1075 0.930 . S
C1083 C1084 1.355 . S
C1083 C1085 1.415 . S
C1084 C1083 1.355 . S
C1084 C1086 1.419 . S
C1085 C1080 1.425 . S
C1085 C1082 1.409 . S
C1085 C1083 1.415 . S
C1086 H1076 0.930 . S
C1086 C1084 1.419 . S
C1086 C1087 1.362 . S
C1087 H1077 0.930 . S
C1087 C1080 1.409 . S
C1087 C1086 1.362 . S
H1088 C1094 0.930 . S
H1089 C1097 0.930 . S
H1090 C1098 0.930 . S
H1091 C1099 0.930 . S
H1092 C1102 0.930 . S
H1093 C1103 0.930 . S
C1094 H1088 0.930 . S
C1094 C1095 1.355 . S
C1094 C1096 1.415 . S
C1095 C1094 1.355 . S
C1095 C1097 1.419 . S
C1096 C1094 1.415 . S
C1096 C1101 1.425 . S
C1096 C1103 1.409 . S
C1097 H1089 0.930 . S
C1097 C1095 1.419 . S
C1097 C1098 1.362 . S
C1098 H1090 0.930 . S
C1098 C1097 1.362 . S
C1098 C1101 1.409 . S
C1099 H1091 0.930 . S
C1099 C1100 1.355 . S
C1099 C1101 1.415 . S
C1100 C1099 1.355 . S
C1100 C1102 1.419 . S
C1101 C1096 1.425 . S
C1101 C1098 1.409 . S
C1101 C1099 1.415 . S
C1102 H1092 0.930 . S
C1102 C1100 1.419 . S
C1102 C1103 1.362 . S
C1103 H1093 0.930 . S
C1103 C1096 1.409 . S
C1103 C1102 1.362 . S
H1104 C1110 0.930 . S
H1105 C1113 0.930 . S
H1106 C1114 0.930 . S
H1107 C1115 0.930 . S
H1108 C1118 0.930 . S
H1109 C1119 0.930 . S
C1110 H1104 0.930 . S
C1110 C1111 1.355 . S
C1110 C1112 1.415 . S
C1111 C1110 1.355 . S
C1111 C1113 1.419 . S
C1112 C1110 1.415 . S
C1112 C1117 1.425 . S
C1112 C1119 1.409 . S
C1113 H1105 0.930 . S
C1113 C1111 1.419 . S
C1113 C1114 1.362 . S
C1114 H1106 0.930 . S
C1114 C1113 1.362 . S
C1114 C1117 1.409 . S
C1115 H1107 0.930 . S
C1115 C1116 1.355 . S
C1115 C1117 1.415 . S
C1116 C1115 1.355 . S
C1116 C1118 1.419 . S
C1117 C1112 1.425 . S
C1117 C1114 1.409 . S
C1117 C1115 1.415 . S
C1118 H1108 0.930 . S
C1118 C1116 1.419 . S
C1118 C1119 1.362 . S
C1119 H1109 0.930 . S
C1119 C1112 1.409 . S
C1119 C1118 1.362 . S
H1120 C1126 0.930 . S
H1121 C1129 0.930 . S
H1122 C1130 0.930 . S
H1123 C1131 0.930 . S
H1124 C1134 0.930 . S
H1125 C1135 0.930 . S
C1126 H1120 0.930 . S
C1126 C1127 1.355 . S
C1126 C1128 1.415 . S
C1127 C1126 1.355 . S
C1127 C1129 1.419 . S
C1128 C1126 1.415 . S
C1128 C1133 1.425 . S
C1128 C1135 1.409 . S
C1129 H1121 0.930 . S
C1129 C1127 1.419 . S
C1129 C1130 1.362 . S
C1130 H1122 0.930 . S
C1130 C1129 1.362 . S
C1130 C1133 1.409 . S
C1131 H1123 0.930 . S
C1131 C1132 1.355 . S
C1131 C1133 1.415 . S
C1132 C1131 1.355 . S
C1132 C1134 1.419 . S
C1133 C1128 1.425 . S
C1133 C1130 1.409 . S
C1133 C1131 1.415 . S
C1134 H1124 0.930 . S
C1134 C1132 1.419 . S
C1134 C1135 1.362 . S
C1135 H1125 0.930 . S
C1135 C1128 1.409 . S
C1135 C1134 1.362 . S
H1136 C1142 0.930 . S
H1137 C1145 0.930 . S
H1138 C1146 0.930 . S
H1139 C1147 0.930 . S
H1140 C1150 0.930 . S
H1141 C1151 0.930 . S
C1142 H1136 0.930 . S
C1142 C1143 1.355 . S
C1142 C1144 1.415 . S
C1143 C1142 1.355 . S
C1143 C1145 1.419 . S
C1144 C1142 1.415 . S
C1144 C1149 1.425 . S
C1144 C1151 1.409 . S
C1145 H1137 0.930 . S
C1145 C1143 1.419 . S
C1145 C1146 1.362 . S
C1146 H1138 0.930 . S
C1146 C1145 1.362 . S
C1146 C1149 1.409 . S
C1147 H1139 0.930 . S
C1147 C1148 1.355 . S
C1147 C1149 1.415 . S
C1148 C1147 1.355 . S
C1148 C1150 1.419 . S
C1149 C1144 1.425 . S
C1149 C1146 1.409 . S
C1149 C1147 1.415 . S
C1150 H1140 0.930 . S
C1150 C1148 1.419 . S
C1150 C1151 1.362 . S
C1151 H1141 0.930 . S
C1151 C1144 1.409 . S
C1151 C1150 1.362 . S
H1152 C1158 0.930 . S
H1153 C1161 0.930 . S
H1154 C1162 0.930 . S
H1155 C1163 0.930 . S
H1156 C1166 0.930 . S
H1157 C1167 0.930 . S
C1158 H1152 0.930 . S
C1158 C1159 1.355 . S
C1158 C1160 1.415 . S
C1159 C1158 1.355 . S
C1159 C1161 1.419 . S
C1160 C1158 1.415 . S
C1160 C1165 1.425 . S
C1160 C1167 1.409 . S
C1161 H1153 0.930 . S
C1161 C1159 1.419 . S
C1161 C1162 1.362 . S
C1162 H1154 0.930 . S
C1162 C1161 1.362 . S
C1162 C1165 1.409 . S
C1163 H1155 0.930 . S
C1163 C1164 1.355 . S
C1163 C1165 1.415 . S
C1164 C1163 1.355 . S
C1164 C1166 1.419 . S
C1165 C1160 1.425 . S
C1165 C1162 1.409 . S
C1165 C1163 1.415 . S
C1166 H1156 0.930 . S
C1166 C1164 1.419 . S
C1166 C1167 1.362 . S
C1167 H1157 0.930 . S
C1167 C1160 1.409 . S
C1167 C1166 1.362 . S
C535 C8 1.049 . S
C540 N377 1.093 . S
C551 N278 1.064 . S
C556 C41 1.098 . S
C567 N311 1.079 . S
C572 C74 1.075 . S
C583 N344 1.094 . S
C588 C107 1.048 . S
C599 N179 1.082 . S
C604 C140 1.071 . S
C615 N212 1.087 . S
C620 C173 1.062 . S
C631 C206 1.098 . S
C636 N245 1.064 . S
C647 C239 1.100 . S
C652 N146 1.063 . S
C663 C272 1.089 . S
C668 N113 1.071 . S
C679 C305 1.089 . S
C684 N14 1.069 . S
C695 N47 1.091 . S
C700 C338 1.055 . S
C711 C371 1.086 . S
C716 N80 1.070 . S
C727 N443 1.063 . S
C732 C404 1.100 . S
C743 N476 1.085 . S
C748 C437 1.062 . S
C759 N509 1.079 . S
C764 C470 1.071 . S
C775 C503 1.045 . S
C780 N410 1.095 . S
C791 C17 1.517 . S
C796 C83 1.526 . S
C807 C50 1.521 . S
C812 C116 1.514 . S
C823 C215 1.542 . S
C828 C149 1.530 . S
C839 C248 1.518 . S
C844 C182 1.513 . S
C855 C347 1.526 . S
C860 C281 1.538 . S
C871 C314 1.518 . S
C876 C380 1.513 . S
C887 C413 1.555 . S
C892 C479 1.565 . S
C903 C512 1.513 . S
C908 C446 1.520 . S
C919 C94 0.851 . S
C924 C28 0.674 . S
C935 C61 0.727 . S
C940 C127 0.864 . S
C951 C160 0.855 . S
C956 C226 0.681 . S
C967 C259 0.825 . S
C972 C193 0.820 . S
C983 C358 0.743 . S
C988 C292 0.662 . S
C999 C325 0.709 . S
C1004 C391 0.686 . S
C1015 C424 0.864 . S
C1020 C490 0.723 . S
C1031 C523 0.811 . S
C1036 C457 0.646 . S
C1047 N467 1.519 . S
C1052 N5 1.511 . S
C1063 N38 1.455 . S
C1068 N500 1.457 . S
C1079 N71 1.455 . S
C1084 N401 1.458 . S
C1095 N104 1.496 . S
C1100 N434 1.509 . S
C1111 N137 1.522 . S
C1116 N335 1.516 . S
C1127 N368 1.521 . S
C1132 N170 1.522 . S
C1143 N203 1.457 . S
C1148 N269 1.465 . S
C1159 N236 1.471 . S
C1164 N302 1.485 . S
