# Generated by pormake.
# Topology lcy-e, (6)-cn, num edge types: 1
# Building blocks:
#     Node 0, Type 0, BuildingBlock: KUMBOL_clean_sbu_0, # of connection points: 6
#     Node 1, Type 0, BuildingBlock: KUMBOL_clean_sbu_0, # of connection points: 6
#     Node 2, Type 0, BuildingBlock: KUMBOL_clean_sbu_0, # of connection points: 6
#     Node 3, Type 0, BuildingBlock: KUMBOL_clean_sbu_0, # of connection points: 6
#     Node 4, Type 0, BuildingBlock: KUMBOL_clean_sbu_0, # of connection points: 6
#     Node 5, Type 0, BuildingBlock: KUMBOL_clean_sbu_0, # of connection points: 6
#     Node 6, Type 0, BuildingBlock: KUMBOL_clean_sbu_0, # of connection points: 6
#     Node 7, Type 0, BuildingBlock: KUMBOL_clean_sbu_0, # of connection points: 6
#     Node 8, Type 0, BuildingBlock: KUMBOL_clean_sbu_0, # of connection points: 6
#     Node 9, Type 0, BuildingBlock: KUMBOL_clean_sbu_0, # of connection points: 6
#     Node 10, Type 0, BuildingBlock: KUMBOL_clean_sbu_0, # of connection points: 6
#     Node 11, Type 0, BuildingBlock: KUMBOL_clean_sbu_0, # of connection points: 6
#     Edge 12, Type (0, 0), BuildingBlock: TEMPAE_clean_linker_10, # of connection points: 2
#     Edge 13, Type (0, 0), BuildingBlock: TEMPAE_clean_linker_10, # of connection points: 2
#     Edge 14, Type (0, 0), BuildingBlock: TEMPAE_clean_linker_10, # of connection points: 2
#     Edge 15, Type (0, 0), BuildingBlock: TEMPAE_clean_linker_10, # of connection points: 2
#     Edge 16, Type (0, 0), BuildingBlock: TEMPAE_clean_linker_10, # of connection points: 2
#     Edge 17, Type (0, 0), BuildingBlock: TEMPAE_clean_linker_10, # of connection points: 2
#     Edge 18, Type (0, 0), BuildingBlock: TEMPAE_clean_linker_10, # of connection points: 2
#     Edge 19, Type (0, 0), BuildingBlock: TEMPAE_clean_linker_10, # of connection points: 2
#     Edge 20, Type (0, 0), BuildingBlock: TEMPAE_clean_linker_10, # of connection points: 2
#     Edge 21, Type (0, 0), BuildingBlock: TEMPAE_clean_linker_10, # of connection points: 2
#     Edge 22, Type (0, 0), BuildingBlock: TEMPAE_clean_linker_10, # of connection points: 2
#     Edge 23, Type (0, 0), BuildingBlock: TEMPAE_clean_linker_10, # of connection points: 2
#     Edge 24, Type (0, 0), BuildingBlock: TEMPAE_clean_linker_10, # of connection points: 2
#     Edge 25, Type (0, 0), BuildingBlock: TEMPAE_clean_linker_10, # of connection points: 2
#     Edge 26, Type (0, 0), BuildingBlock: TEMPAE_clean_linker_10, # of connection points: 2
#     Edge 27, Type (0, 0), BuildingBlock: TEMPAE_clean_linker_10, # of connection points: 2
#     Edge 28, Type (0, 0), BuildingBlock: TEMPAE_clean_linker_10, # of connection points: 2
#     Edge 29, Type (0, 0), BuildingBlock: TEMPAE_clean_linker_10, # of connection points: 2
#     Edge 30, Type (0, 0), BuildingBlock: TEMPAE_clean_linker_10, # of connection points: 2
#     Edge 31, Type (0, 0), BuildingBlock: TEMPAE_clean_linker_10, # of connection points: 2
#     Edge 32, Type (0, 0), BuildingBlock: TEMPAE_clean_linker_10, # of connection points: 2
#     Edge 33, Type (0, 0), BuildingBlock: TEMPAE_clean_linker_10, # of connection points: 2
#     Edge 34, Type (0, 0), BuildingBlock: TEMPAE_clean_linker_10, # of connection points: 2
#     Edge 35, Type (0, 0), BuildingBlock: TEMPAE_clean_linker_10, # of connection points: 2
#     Edge 36, Type (0, 0), BuildingBlock: TEMPAE_clean_linker_10, # of connection points: 2
#     Edge 37, Type (0, 0), BuildingBlock: TEMPAE_clean_linker_10, # of connection points: 2
#     Edge 38, Type (0, 0), BuildingBlock: TEMPAE_clean_linker_10, # of connection points: 2
#     Edge 39, Type (0, 0), BuildingBlock: TEMPAE_clean_linker_10, # of connection points: 2
#     Edge 40, Type (0, 0), BuildingBlock: TEMPAE_clean_linker_10, # of connection points: 2
#     Edge 41, Type (0, 0), BuildingBlock: TEMPAE_clean_linker_10, # of connection points: 2
#     Edge 42, Type (0, 0), BuildingBlock: TEMPAE_clean_linker_10, # of connection points: 2
#     Edge 43, Type (0, 0), BuildingBlock: TEMPAE_clean_linker_10, # of connection points: 2
#     Edge 44, Type (0, 0), BuildingBlock: TEMPAE_clean_linker_10, # of connection points: 2
#     Edge 45, Type (0, 0), BuildingBlock: TEMPAE_clean_linker_10, # of connection points: 2
#     Edge 46, Type (0, 0), BuildingBlock: TEMPAE_clean_linker_10, # of connection points: 2
#     Edge 47, Type (0, 0), BuildingBlock: TEMPAE_clean_linker_10, # of connection points: 2
# Relax obj value: 0.109
# Max RMSD: 0.285
# Mean RMSD: 0.284
data_MOF--net-lcy-e--node1-KUMBOL_clean_sbu_0--edge1-TEMPAE_clean_linker_10
_symmetry_space_group_name_H-M    P1
_symmetry_Int_Tables_number       1
_symmetry_cell_setting            triclinic
loop_
_symmetry_equiv_pos_as_xyz
'x, y, z'
_cell_length_a     44.072657
_cell_length_b     44.044062
_cell_length_c     44.185865
_cell_angle_alpha  89.754119
_cell_angle_beta   90.140131
_cell_angle_gamma 90.422304
loop_
_atom_site_label
_atom_site_type_symbol
_atom_site_fract_x
_atom_site_fract_y
_atom_site_fract_z
_atom_type_partial_charge
Gd0 Gd 0.12471 0.2682 0.46906 0.0
Gd1 Gd 0.14168 0.21002 0.5255 0.0
C2 C 0.22022 0.24226 0.58456 0.0
C3 C 0.26131 0.20973 0.56822 0.0
C4 C 0.21095 0.20391 0.54639 0.0
C5 C 0.20056 0.22757 0.56399 0.0
C6 C 0.24108 0.19381 0.54936 0.0
C7 C 0.25092 0.234 0.58571 0.0
C8 C 0.20808 0.26369 0.60439 0.0
C9 C 0.17682 0.26859 0.6046 0.0
N10 N 0.1706 0.23429 0.56303 0.0
C11 C 0.15825 0.25319 0.58394 0.0
H12 H 0.13416 0.25691 0.58433 0.0
C13 C 0.198 0.16123 0.51645 0.0
N14 N 0.19071 0.18887 0.52855 0.0
C15 C 0.22771 0.15047 0.51848 0.0
C16 C 0.24952 0.16718 0.53445 0.0
H17 H 0.18109 0.14844 0.504 0.0
H18 H 0.26648 0.24532 0.60106 0.0
H19 H 0.13454 0.21106 0.4159 0.0
H20 H 0.22242 0.27557 0.62047 0.0
H21 H 0.16699 0.28431 0.62053 0.0
H22 H 0.28472 0.20268 0.57037 0.0
H23 H 0.07638 0.32169 0.49632 0.0
H24 H 0.06007 0.21413 0.35531 0.0
H25 H 0.10941 0.19311 0.37075 0.0
H26 H 0.99345 0.28677 0.39828 0.0
H27 H 0.23378 0.12934 0.50774 0.0
H28 H 0.27248 0.15871 0.53611 0.0
H29 H 0.01778 0.24975 0.36516 0.0
H30 H 0.02528 0.33993 0.48668 0.0
N31 N 0.10035 0.24347 0.42772 0.0
C32 C 0.07105 0.22241 0.37567 0.0
C33 C 0.09892 0.21061 0.38421 0.0
C34 C 0.05741 0.24438 0.39366 0.0
C35 C 0.07258 0.25448 0.42005 0.0
C36 C 0.11339 0.22149 0.41013 0.0
N37 N 0.07469 0.28662 0.46283 0.0
C38 C 0.0592 0.27611 0.43836 0.0
C39 C 0.03422 0.32156 0.47326 0.0
C40 C 0.0176 0.31009 0.44906 0.0
C41 C 0.06309 0.31022 0.47927 0.0
C42 C 0.0303 0.28775 0.43079 0.0
H43 H 0.99549 0.31946 0.44398 0.0
O44 O 0.12845 0.31744 0.46714 0.0
O45 O 0.14676 0.26018 0.51429 0.0
O46 O 0.1001 0.2351 0.54005 0.0
O47 O 0.10379 0.28117 0.51477 0.0
O48 O 0.17309 0.2784 0.48051 0.0
O49 O 0.14338 0.29037 0.42914 0.0
O50 O 0.12597 0.1636 0.53369 0.0
O51 O 0.1094 0.22462 0.48955 0.0
O52 O 0.16144 0.23827 0.44961 0.0
O53 O 0.17891 0.21035 0.49087 0.0
O54 O 0.12392 0.18017 0.48772 0.0
O55 O 0.1261 0.19534 0.57025 0.0
C56 C 0.17167 0.27409 0.50925 0.0
C57 C 0.01541 0.27777 0.40458 0.0
C58 C 0.02921 0.25663 0.38578 0.0
C59 C 0.13958 0.31762 0.43976 0.0
C60 C 0.12927 0.34123 0.41818 0.0
C61 C 0.10353 0.35878 0.42422 0.0
C62 C 0.14687 0.34795 0.39226 0.0
C63 C 0.13919 0.37246 0.37318 0.0
C64 C 0.09561 0.38269 0.40505 0.0
C65 C 0.1134 0.38968 0.37987 0.0
C66 C 0.0928 0.26391 0.53702 0.0
C67 C 0.10551 0.19972 0.47608 0.0
C68 C 0.12158 0.16717 0.56254 0.0
C69 C 0.13496 0.14348 0.58251 0.0
C70 C 0.16641 0.14353 0.58692 0.0
C71 C 0.11714 0.1202 0.59634 0.0
C72 C 0.13124 0.09683 0.61365 0.0
C73 C 0.18047 0.12 0.60231 0.0
C74 C 0.16327 0.09663 0.61493 0.0
C75 C 0.18105 0.21974 0.46264 0.0
H76 H 0.08982 0.3545 0.44403 0.0
H77 H 0.16703 0.33483 0.38752 0.0
H78 H 0.07581 0.39617 0.40998 0.0
H79 H 0.10699 0.40857 0.36549 0.0
H80 H 0.1803 0.16167 0.57822 0.0
H81 H 0.09269 0.12062 0.59393 0.0
H82 H 0.20494 0.11985 0.60449 0.0
H83 H 0.17541 0.0784 0.62598 0.0
Gd84 Gd 0.06183 0.8954 0.78505 0.0
Gd85 Gd 1.00164 0.868 0.73319 0.0
C86 C 0.94089 0.78787 0.7593 0.0
C87 C 0.95703 0.74913 0.72391 0.0
C88 C 0.97965 0.79959 0.72223 0.0
C89 C 0.96211 0.80832 0.74656 0.0
C90 C 0.97668 0.77021 0.71004 0.0
C91 C 0.93916 0.75796 0.74852 0.0
C92 C 0.921 0.79852 0.78142 0.0
C93 C 0.9216 0.8292 0.78916 0.0
N94 N 0.96387 0.83757 0.75593 0.0
C95 C 0.94292 0.8486 0.77573 0.0
H96 H 0.94275 0.87226 0.78183 0.0
C97 C 0.01181 0.81484 0.68206 0.0
N98 N 0.99808 0.82062 0.70913 0.0
C99 C 0.00989 0.7859 0.66927 0.0
C100 C 0.99265 0.76331 0.68361 0.0
H101 H 0.02515 0.83233 0.67102 0.0
H102 H 0.92327 0.74182 0.75829 0.0
H103 H 0.11055 0.88532 0.7273 0.0
H104 H 0.90428 0.78358 0.79167 0.0
H105 H 0.90557 0.83802 0.80533 0.0
H106 H 0.95469 0.72631 0.71513 0.0
H107 H 0.03879 0.93992 0.84156 0.0
H108 H 0.1694 0.96236 0.72276 0.0
H109 H 0.15366 0.91184 0.70413 0.0
H110 H 0.13218 0.02752 0.80059 0.0
H111 H 0.02166 0.78104 0.6484 0.0
H112 H 0.99102 0.74096 0.67356 0.0
H113 H 0.16116 1.00542 0.75873 0.0
H114 H 0.05075 0.99042 0.86265 0.0
N115 N 0.10029 0.92104 0.75806 0.0
C116 C 0.14989 0.95107 0.73271 0.0
C117 C 0.14117 0.92253 0.72221 0.0
C118 C 0.13352 0.96462 0.75607 0.0
C119 C 0.10849 0.94884 0.76845 0.0
C120 C 0.11652 0.90757 0.7355 0.0
N121 N 0.07019 0.94409 0.8052 0.0
C122 C 0.09271 0.96089 0.79251 0.0
C123 C 0.06258 0.98251 0.84279 0.0
C124 C 0.08523 1.00039 0.82953 0.0
C125 C 0.05572 0.95404 0.83064 0.0
C126 C 0.101 0.98943 0.80444 0.0
H127 H 0.0909 0.02223 0.83929 0.0
O128 O 0.07247 0.87872 0.83023 0.0
O129 O 0.02263 0.86325 0.7798 0.0
O130 O 0.98303 0.90341 0.76373 0.0
O131 O 0.02357 0.93105 0.78479 0.0
O132 O 0.02846 0.88616 0.82115 0.0
O133 O 0.10631 0.87591 0.79545 0.0
O134 O 0.9928 0.88493 0.6878 0.0
O135 O 0.03788 0.90219 0.74178 0.0
O136 O 0.07712 0.85489 0.75612 0.0
O137 O 0.03457 0.83006 0.73638 0.0
O138 O 0.03637 0.88532 0.69887 0.0
O139 O 0.95723 0.88594 0.72129 0.0
C140 C 0.01183 0.86703 0.80646 0.0
C141 C 0.12541 1.0056 0.7917 0.0
C142 C 0.14191 0.99302 0.76787 0.0
C143 C 0.10048 0.87192 0.82406 0.0
C144 C 0.12383 0.88228 0.84619 0.0
C145 C 0.1197 0.90988 0.86129 0.0
C146 C 0.14967 0.86447 0.85332 0.0
C147 C 0.17103 0.87462 0.87527 0.0
C148 C 0.14027 0.91966 0.88311 0.0
C149 C 0.16549 0.90222 0.89019 0.0
C150 C 0.99424 0.92728 0.77785 0.0
C151 C 0.04928 0.90537 0.71587 0.0
C152 C 0.96444 0.89076 0.69306 0.0
C153 C 0.943 0.88003 0.66979 0.0
C154 C 0.93111 0.85043 0.67115 0.0
C155 C 0.93591 0.89882 0.6449 0.0
C156 C 0.91755 0.88772 0.62124 0.0
C157 C 0.9127 0.8395 0.64783 0.0
C158 C 0.90609 0.85792 0.62293 0.0
C159 C 0.06372 0.83155 0.74244 0.0
H160 H 0.10021 0.92376 0.8567 0.0
H161 H 0.15322 0.84317 0.84172 0.0
H162 H 0.13651 0.94086 0.89479 0.0
H163 H 0.1807 0.91039 0.9077 0.0
H164 H 0.93629 0.83567 0.69005 0.0
H165 H 0.94522 0.92164 0.64356 0.0
H166 H 0.90369 0.8166 0.64895 0.0
H167 H 0.89183 0.84899 0.60499 0.0
Gd168 Gd 0.37769 0.80405 0.03087 0.0
Gd169 Gd 0.40419 0.74297 0.97987 0.0
C170 C 0.48365 0.68262 1.006 0.0
C171 C 0.52284 0.70001 0.97121 0.0
C172 C 0.47243 0.72186 0.96913 0.0
C173 C 0.46329 0.70354 0.99302 0.0
C174 C 0.50206 0.71981 0.95747 0.0
C175 C 0.51367 0.68149 0.99546 0.0
C176 C 0.47297 0.66283 0.02851 0.0
C177 C 0.44235 0.66323 0.03645 0.0
N178 N 0.434 0.7049 1.00232 0.0
C179 C 0.42295 0.68411 0.0226 0.0
H180 H 0.39935 0.6839 0.02895 0.0
C181 C 0.45851 0.75662 0.93057 0.0
N182 N 0.45188 0.74091 0.95651 0.0
C183 C 0.48766 0.7554 0.9182 0.0
C184 C 0.50967 0.73725 0.93197 0.0
H185 H 0.44157 0.77092 0.92017 0.0
H186 H 0.52972 0.66578 1.00536 0.0
H187 H 0.3871 0.85054 0.97038 0.0
H188 H 0.48792 0.64655 0.03919 0.0
H189 H 0.43365 0.6475 0.05326 0.0
H190 H 0.54584 0.69834 0.96282 0.0
H191 H 0.33318 0.78208 0.08783 0.0
H192 H 0.31302 0.91213 0.96746 0.0
H193 H 0.36175 0.89399 0.94705 0.0
H194 H 0.24928 0.87868 0.04885 0.0
H195 H 0.49316 0.76854 0.89819 0.0
H196 H 0.53224 0.7364 0.92238 0.0
H197 H 0.27088 0.90587 1.00506 0.0
H198 H 0.28419 0.79613 0.11065 0.0
N199 N 0.3527 0.84271 1.00352 0.0
C200 C 0.32388 0.8926 0.97767 0.0
C201 C 0.35139 0.88247 0.96613 0.0
C202 C 0.3106 0.87733 1.00212 0.0
C203 C 0.32579 0.85219 0.01475 0.0
C204 C 0.36572 0.85764 0.97958 0.0
N205 N 0.32933 0.81335 0.05117 0.0
C206 C 0.31348 0.83672 0.03906 0.0
C207 C 0.29198 0.80753 0.09033 0.0
C208 C 0.27497 0.83093 0.07756 0.0
C209 C 0.31954 0.79941 0.07715 0.0
C210 C 0.28586 0.84618 0.0519 0.0
H211 H 0.25386 0.83754 0.08809 0.0
O212 O 0.39046 0.81703 0.07672 0.0
O213 O 0.40896 0.76453 0.02601 0.0
O214 O 0.369 0.72474 0.01125 0.0
O215 O 0.34219 0.76546 0.03231 0.0
O216 O 0.38849 0.7716 0.06801 0.0
O217 O 0.4024 0.84644 0.03962 0.0
O218 O 0.39004 0.73379 0.93348 0.0
O219 O 0.36981 0.77887 0.9882 0.0
O220 O 0.41752 0.81893 1.00056 0.0
O221 O 0.44305 0.7752 0.98676 0.0
O222 O 0.38717 0.77738 0.94547 0.0
O223 O 0.38428 0.69914 0.96765 0.0
C224 C 0.40656 0.75437 0.05313 0.0
C225 C 0.27051 0.87106 0.03931 0.0
C226 C 0.28286 0.88661 0.01447 0.0
C227 C 0.40182 0.84332 0.06894 0.0
C228 C 0.39145 0.86993 0.08677 0.0
C229 C 0.36053 0.87257 0.09358 0.0
C230 C 0.41197 0.8922 0.0981 0.0
C231 C 0.4011 0.91643 0.11612 0.0
C232 C 0.34971 0.89682 0.11025 0.0
C233 C 0.36971 0.91859 0.12132 0.0
C234 C 0.34571 0.73609 0.02595 0.0
C235 C 0.36649 0.78958 0.96195 0.0
C236 C 0.38146 0.70597 0.93896 0.0
C237 C 0.39124 0.68295 0.91663 0.0
C238 C 0.42056 0.67103 0.9186 0.0
C239 C 0.3717 0.67312 0.89289 0.0
C240 C 0.38145 0.65094 0.87188 0.0
C241 C 0.43039 0.64964 0.89773 0.0
C242 C 0.4111 0.63962 0.87471 0.0
C243 C 0.44192 0.80483 0.9903 0.0
H244 H 0.34456 0.85563 0.08653 0.0
H245 H 0.43605 0.89019 0.09378 0.0
H246 H 0.3257 0.89848 0.11501 0.0
H247 H 0.36058 0.93711 0.13447 0.0
H248 H 0.43591 0.67829 0.93633 0.0
H249 H 0.34901 0.68227 0.89111 0.0
H250 H 0.45315 0.64069 0.89944 0.0
H251 H 0.41953 0.62304 0.85883 0.0
Gd252 Gd 0.47105 0.12504 0.27821 0.0
Gd253 Gd 0.52437 0.15089 0.22112 0.0
C254 C 0.5787 0.23715 0.24057 0.0
C255 C 0.55981 0.27172 0.20194 0.0
C256 C 0.54051 0.21998 0.20487 0.0
C257 C 0.559 0.21435 0.22957 0.0
C258 C 0.54095 0.24859 0.19051 0.0
C259 C 0.57869 0.266 0.22688 0.0
C260 C 0.59815 0.23013 0.26466 0.0
C261 C 0.59783 0.20086 0.27692 0.0
N262 N 0.55839 0.18627 0.24227 0.0
C263 C 0.5777 0.17913 0.26535 0.0
H264 H 0.57658 0.15712 0.27589 0.0
C265 C 0.50619 0.20059 0.16832 0.0
N266 N 0.5225 0.19715 0.19446 0.0
C267 C 0.50566 0.22866 0.15344 0.0
C268 C 0.52284 0.25289 0.16479 0.0
H269 H 0.49289 0.18186 0.15957 0.0
H270 H 0.59349 0.28389 0.23515 0.0
H271 H 0.41718 0.14109 0.22272 0.0
H272 H 0.61357 0.24702 0.27383 0.0
H273 H 0.61262 0.19518 0.29567 0.0
H274 H 0.56034 0.29395 0.19134 0.0
H275 H 0.4992 0.07098 0.32582 0.0
H276 H 0.3591 0.06453 0.21508 0.0
H277 H 0.37257 0.11722 0.2014 0.0
H278 H 0.40326 0.9905 0.28006 0.0
H279 H 0.49205 0.23159 0.13324 0.0
H280 H 0.52242 0.2746 0.15318 0.0
H281 H 0.36994 0.0183 0.24536 0.0
H282 H 0.49085 0.01752 0.33748 0.0
N283 N 0.4302 0.10311 0.25024 0.0
C284 C 0.37906 0.07505 0.22498 0.0
C285 C 0.38648 0.1048 0.21736 0.0
C286 C 0.39753 0.05914 0.24515 0.0
C287 C 0.42358 0.07367 0.25726 0.0
C288 C 0.41204 0.11853 0.23021 0.0
N289 N 0.46641 0.0727 0.28989 0.0
C290 C 0.44236 0.058 0.27716 0.0
C291 C 0.47737 0.02839 0.32009 0.0
C292 C 0.45374 0.01265 0.30622 0.0
C293 C 0.48264 0.05873 0.3125 0.0
C294 C 0.43527 0.02765 0.28534 0.0
H295 H 0.44911 0.98935 0.31281 0.0
O296 O 0.47014 0.12144 0.32727 0.0
O297 O 0.51422 0.15104 0.27149 0.0
O298 O 0.54754 0.11451 0.24635 0.0
O299 O 0.51766 0.10266 0.28814 0.0
O300 O 0.481 0.17209 0.29534 0.0
O301 O 0.42909 0.13466 0.3023 0.0
O302 O 0.53327 0.13325 0.17599 0.0
O303 O 0.49194 0.1142 0.23424 0.0
O304 O 0.45015 0.16544 0.25318 0.0
O305 O 0.48982 0.18734 0.22554 0.0
O306 O 0.48704 0.13153 0.19127 0.0
O307 O 0.57006 0.13858 0.20783 0.0
C308 C 0.50925 0.17392 0.28829 0.0
C309 C 0.40918 0.01358 0.27368 0.0
C310 C 0.39022 0.02939 0.25391 0.0
C311 C 0.44164 0.12911 0.3285 0.0
C312 C 0.42496 0.13136 0.35738 0.0
C313 C 0.43863 0.1208 0.38413 0.0
C314 C 0.39525 0.14319 0.35855 0.0
C315 C 0.37933 0.14365 0.38616 0.0
C316 C 0.42294 0.12148 0.41146 0.0
C317 C 0.39345 0.13264 0.41249 0.0
C318 C 0.54302 0.10001 0.27192 0.0
C319 C 0.47807 0.11047 0.20958 0.0
C320 C 0.5623 0.13075 0.18048 0.0
C321 C 0.5823 0.14093 0.15569 0.0
C322 C 0.59314 0.17093 0.15468 0.0
C323 C 0.59111 0.12029 0.13303 0.0
C324 C 0.61086 0.12969 0.10973 0.0
C325 C 0.61264 0.18026 0.13154 0.0
C326 C 0.62152 0.15979 0.10925 0.0
C327 C 0.46192 0.18732 0.23597 0.0
H328 H 0.46139 0.11168 0.38391 0.0
H329 H 0.38437 0.15149 0.33813 0.0
H330 H 0.43363 0.11318 0.43192 0.0
H331 H 0.38167 0.13292 0.43398 0.0
H332 H 0.58671 0.18707 0.17187 0.0
H333 H 0.58284 0.09705 0.13364 0.0
H334 H 0.621 0.20342 0.13095 0.0
H335 H 0.63674 0.16745 0.09152 0.0
Gd336 Gd 0.65803 0.29868 0.4896 0.0
Gd337 Gd 0.62682 0.24216 0.54385 0.0
C338 C 0.53317 0.19776 0.5346 0.0
C339 C 0.50516 0.22095 0.57568 0.0
C340 C 0.55814 0.23416 0.56735 0.0
C341 C 0.5591 0.21479 0.54287 0.0
C342 C 0.53133 0.23711 0.58436 0.0
C343 C 0.50606 0.20136 0.55079 0.0
C344 C 0.53549 0.17705 0.51081 0.0
C345 C 0.56346 0.1729 0.49678 0.0
N346 N 0.58578 0.21155 0.52802 0.0
C347 C 0.58855 0.19006 0.50616 0.0
H348 H 0.60998 0.18638 0.49554 0.0
C349 C 0.58455 0.26738 0.60027 0.0
N350 N 0.58379 0.2498 0.5748 0.0
C351 C 0.55854 0.27086 0.61793 0.0
C352 C 0.53178 0.2558 0.60987 0.0
H353 H 0.605 0.27915 0.60692 0.0
H354 H 0.48585 0.18863 0.54465 0.0
H355 H 0.64095 0.34525 0.54913 0.0
H356 H 0.51609 0.16363 0.50365 0.0
H357 H 0.56577 0.15648 0.47879 0.0
H358 H 0.48425 0.22311 0.58831 0.0
H359 H 0.71281 0.27273 0.44321 0.0
H360 H 0.71164 0.41114 0.55525 0.0
H361 H 0.66162 0.39144 0.57146 0.0
H362 H 0.78612 0.37624 0.48544 0.0
H363 H 0.55917 0.28514 0.6378 0.0
H364 H 0.51172 0.25841 0.62371 0.0
H365 H 0.75676 0.40641 0.52147 0.0
H366 H 0.76519 0.28582 0.42954 0.0
N367 N 0.67887 0.33747 0.52019 0.0
C368 C 0.70273 0.39043 0.54537 0.0
C369 C 0.67448 0.37948 0.55448 0.0
C370 C 0.71923 0.37448 0.52372 0.0
C371 C 0.7069 0.34734 0.51189 0.0
C372 C 0.66266 0.35315 0.54134 0.0
N373 N 0.70984 0.30588 0.4783 0.0
C374 C 0.72308 0.33075 0.49085 0.0
C375 C 0.75381 0.29841 0.44711 0.0
C376 C 0.76784 0.3236 0.46014 0.0
C377 C 0.72433 0.29047 0.45569 0.0
C378 C 0.75216 0.34065 0.48157 0.0
H379 H 0.7903 0.33037 0.45268 0.0
O380 O 0.66771 0.32068 0.44672 0.0
O381 O 0.62423 0.26157 0.49606 0.0
O382 O 0.65448 0.21735 0.50966 0.0
O383 O 0.68476 0.25354 0.48469 0.0
O384 O 0.63993 0.26994 0.45224 0.0
O385 O 0.62934 0.3359 0.47309 0.0
O386 O 0.64868 0.23022 0.58661 0.0
O387 O 0.66538 0.27427 0.53287 0.0
O388 O 0.61556 0.31711 0.51333 0.0
O389 O 0.59078 0.27721 0.53835 0.0
O390 O 0.64933 0.27549 0.57627 0.0
O391 O 0.63668 0.19488 0.55538 0.0
C392 C 0.62167 0.25346 0.46823 0.0
C393 C 0.7641 0.36799 0.49275 0.0
C394 C 0.74736 0.38519 0.51324 0.0
C395 C 0.64574 0.34024 0.44887 0.0
C396 C 0.63129 0.35097 0.42037 0.0
C397 C 0.6297 0.33179 0.39512 0.0
C398 C 0.62246 0.38177 0.4171 0.0
C399 C 0.61275 0.39312 0.38868 0.0
C400 C 0.62011 0.343 0.3671 0.0
C401 C 0.6119 0.3734 0.36384 0.0
C402 C 0.67753 0.22485 0.492 0.0
C403 C 0.66992 0.28597 0.55847 0.0
C404 C 0.64724 0.2011 0.58232 0.0
C405 C 0.63528 0.18297 0.60824 0.0
C406 C 0.60386 0.17872 0.61083 0.0
C407 C 0.65462 0.17079 0.63108 0.0
C408 C 0.64225 0.1542 0.65591 0.0
C409 C 0.59159 0.1633 0.63549 0.0
C410 C 0.61044 0.15131 0.6578 0.0
C411 C 0.59218 0.30536 0.52845 0.0
H412 H 0.63664 0.3083 0.39684 0.0
H413 H 0.62403 0.39698 0.43626 0.0
H414 H 0.61946 0.32812 0.34767 0.0
H415 H 0.60492 0.38164 0.34177 0.0
H416 H 0.58869 0.18745 0.59376 0.0
H417 H 0.67897 0.17379 0.62925 0.0
H418 H 0.56723 0.16056 0.63732 0.0
H419 H 0.59993 0.13967 0.67676 0.0
Gd420 Gd 0.02704 0.3826 0.80114 0.0
Gd421 Gd 0.96897 0.39988 0.74556 0.0
C422 C 0.99763 0.47622 0.68203 0.0
C423 C 0.96318 0.51662 0.69624 0.0
C424 C 0.96002 0.46743 0.72116 0.0
C425 C 0.98398 0.45706 0.70379 0.0
C426 C 0.94879 0.49701 0.71694 0.0
C427 C 0.98758 0.50627 0.67887 0.0
C428 C 0.02044 0.46437 0.6636 0.0
C429 C 0.02839 0.43384 0.66645 0.0
N430 N 0.99287 0.42778 0.70705 0.0
C431 C 0.01401 0.41568 0.68821 0.0
H432 H 0.0203 0.39224 0.6904 0.0
C433 C 0.91995 0.45537 0.75496 0.0
N434 N 0.94661 0.44795 0.74105 0.0
C435 C 0.90811 0.48457 0.75167 0.0
C436 C 0.92287 0.50565 0.73298 0.0
H437 H 0.90867 0.43903 0.76948 0.0
H438 H 0.998 0.52144 0.6625 0.0
H439 H 0.98785 0.39788 0.86594 0.0
H440 H 0.03161 0.4784 0.64671 0.0
H441 H 0.04568 0.42431 0.65202 0.0
H442 H 0.95513 0.53958 0.69293 0.0
H443 H 0.07937 0.33294 0.77372 0.0
H444 H 0.97157 0.31535 0.91299 0.0
H445 H 0.96539 0.37075 0.90821 0.0
H446 H 0.02955 0.24307 0.85864 0.0
H447 H 0.88765 0.49081 0.76356 0.0
H448 H 0.9136 0.52823 0.73043 0.0
H449 H 0.99618 0.26838 0.89485 0.0
H450 H 0.09113 0.27894 0.77745 0.0
N451 N 1.00374 0.35823 0.84318 0.0
C452 C 0.98071 0.3271 0.8934 0.0
C453 C 0.97714 0.35831 0.89077 0.0
C454 C 0.99745 0.3117 0.87161 0.0
C455 C 0.00886 0.32798 0.84635 0.0
C456 C 0.98939 0.37363 0.86588 0.0
N457 N 0.04171 0.33083 0.80425 0.0
C458 C 0.02805 0.31381 0.82609 0.0
C459 C 0.07293 0.28823 0.79087 0.0
C460 C 0.0577 0.27004 0.81175 0.0
C461 C 0.06546 0.31885 0.78825 0.0
C462 C 0.03595 0.28301 0.83055 0.0
H463 H 0.06418 0.24649 0.81441 0.0
O464 O 0.07591 0.38103 0.80824 0.0
O465 O 0.01965 0.40341 0.75522 0.0
O466 O 0.99079 0.35581 0.73393 0.0
O467 O 0.03823 0.36071 0.75521 0.0
O468 O 0.04253 0.42906 0.7861 0.0
O469 O 0.04764 0.40542 0.83969 0.0
O470 O 0.92268 0.38374 0.73818 0.0
O471 O 0.98197 0.36897 0.78325 0.0
O472 O 0.99483 0.41846 0.81946 0.0
O473 O 0.97351 0.43987 0.77655 0.0
O474 O 0.93911 0.38648 0.78527 0.0
O475 O 0.95431 0.38306 0.70132 0.0
C476 C 0.03556 0.42754 0.75791 0.0
C477 C 0.02365 0.26664 0.85491 0.0
C478 C 1.0046 0.28101 0.87548 0.0
C479 C 0.07475 0.39543 0.834 0.0
C480 C 0.09126 0.38219 0.86009 0.0
C481 C 0.09559 0.3507 0.86207 0.0
C482 C 0.10271 0.40104 0.8834 0.0
C483 C 0.11897 0.38835 0.90793 0.0
C484 C 0.11116 0.33811 0.88647 0.0
C485 C 0.12285 0.35671 0.90914 0.0
C486 C 0.01962 0.34867 0.73472 0.0
C487 C 0.95735 0.36721 0.7977 0.0
C488 C 0.92635 0.37795 0.70958 0.0
C489 C 0.90195 0.38886 0.68905 0.0
C490 C 0.89963 0.42003 0.6833 0.0
C491 C 0.88034 0.3687 0.67586 0.0
C492 C 0.85661 0.3801 0.65722 0.0
C493 C 0.87588 0.43143 0.66607 0.0
C494 C 0.85445 0.41184 0.65348 0.0
C495 C 0.98025 0.44064 0.80551 0.0
H496 H 0.08713 0.33569 0.84475 0.0
H497 H 0.09959 0.4254 0.88212 0.0
H498 H 0.11434 0.31379 0.88771 0.0
H499 H 0.13497 0.34629 0.9278 0.0
H500 H 0.91608 0.43575 0.6923 0.0
H501 H 0.88229 0.34448 0.67969 0.0
H502 H 0.87406 0.45567 0.6624 0.0
H503 H 0.83607 0.42177 0.64059 0.0
Gd504 Gd 0.85755 0.72542 0.99421 0.0
Gd505 Gd 0.88602 0.78159 0.04779 0.0
C506 C 0.96637 0.84177 0.02155 0.0
C507 C 1.00445 0.82672 0.05846 0.0
C508 C 0.95454 0.80289 0.05878 0.0
C509 C 0.9459 0.82047 0.03416 0.0
C510 C 0.98349 0.80669 0.07191 0.0
C511 C 0.99595 0.84413 0.03325 0.0
C512 C 0.95615 0.86093 0.99838 0.0
C513 C 0.92585 0.85945 0.98922 0.0
N514 N 0.91684 0.81838 0.02404 0.0
C515 C 0.90629 0.83826 1.00269 0.0
H516 H 0.88295 0.83763 0.99538 0.0
C517 C 0.93911 0.7705 0.09894 0.0
N518 N 0.93359 0.78412 0.07161 0.0
C519 C 0.96753 0.77352 0.11277 0.0
C520 C 0.98997 0.79134 0.09898 0.0
H521 H 0.92171 0.75676 0.1096 0.0
H522 H 0.01207 0.86016 0.02366 0.0
H523 H 0.87127 0.67521 0.05063 0.0
H524 H 0.97121 0.8775 0.98802 0.0
H525 H 0.91753 0.87461 0.97178 0.0
H526 H 0.02695 0.82967 0.06799 0.0
H527 H 0.81116 0.7476 0.93892 0.0
H528 H 0.79778 0.61191 0.05395 0.0
H529 H 0.84765 0.62978 0.07258 0.0
H530 H 0.72945 0.64812 0.97766 0.0
H531 H 0.97212 0.76213 0.13403 0.0
H532 H 0.01192 0.79378 0.10983 0.0
H533 H 0.7537 0.61901 0.01854 0.0
H534 H 0.76113 0.73367 0.91777 0.0
N535 N 0.83462 0.68448 0.02033 0.0
C536 C 0.8078 0.63235 0.04447 0.0
C537 C 0.836 0.64228 0.05496 0.0
C538 C 0.79303 0.64868 0.02164 0.0
C539 C 0.80727 0.67491 1.00978 0.0
C540 C 0.84935 0.6682 0.04228 0.0
N541 N 0.8091 0.71495 0.9745 0.0
C542 C 0.79392 0.69091 0.98641 0.0
C543 C 0.76991 0.72163 0.93728 0.0
C544 C 0.75351 0.69753 0.94993 0.0
C545 C 0.79807 0.72969 0.94955 0.0
C546 C 0.7657 0.68147 0.97444 0.0
H547 H 0.7319 0.69099 0.94011 0.0
O548 O 0.87303 0.71945 0.948 0.0
O549 O 0.89218 0.76302 0.99982 0.0
O550 O 0.8494 0.8026 0.02007 0.0
O551 O 0.82275 0.76488 0.99364 0.0
O552 O 0.86261 0.76325 0.96269 0.0
O553 O 0.87678 0.6822 0.97921 0.0
O554 O 0.87109 0.79045 0.09388 0.0
O555 O 0.85046 0.74692 0.03836 0.0
O556 O 0.89989 0.70806 0.01941 0.0
O557 O 0.92363 0.74819 0.04422 0.0
O558 O 0.86854 0.7457 0.081 0.0
O559 O 0.87104 0.82673 0.0611 0.0
C560 C 0.88626 0.77615 0.97434 0.0
C561 C 0.75109 0.65578 0.98659 0.0
C562 C 0.76489 0.63923 1.00991 0.0
C563 C 0.88036 0.69115 0.95138 0.0
C564 C 0.87111 0.6701 0.92681 0.0
C565 C 0.84705 0.67788 0.90746 0.0
C566 C 0.88768 0.6433 0.921 0.0
C567 C 0.88029 0.62467 0.89587 0.0
C568 C 0.83983 0.65988 0.88267 0.0
C569 C 0.85638 0.6338 0.8767 0.0
C570 C 0.82629 0.79351 1.00336 0.0
C571 C 0.84778 0.73425 0.06382 0.0
C572 C 0.8668 0.81931 0.08941 0.0
C573 C 0.88014 0.83968 0.1126 0.0
C574 C 0.91096 0.84732 0.11082 0.0
C575 C 0.8628 0.85064 0.1372 0.0
C576 C 0.87669 0.86868 0.15998 0.0
C577 C 0.92504 0.86367 0.13375 0.0
C578 C 0.90829 0.87383 0.15827 0.0
C579 C 0.92315 0.71998 0.03456 0.0
H580 H 0.83427 0.6984 0.91092 0.0
H581 H 0.90622 0.63715 0.9359 0.0
H582 H 0.82158 0.66648 0.86764 0.0
H583 H 0.85064 0.62107 0.85656 0.0
H584 H 0.9243 0.84052 0.09177 0.0
H585 H 0.83874 0.84554 0.13825 0.0
H586 H 0.94911 0.86858 0.13246 0.0
H587 H 0.9203 0.88601 0.17589 0.0
Gd588 Gd 0.54983 0.61899 0.2431 0.0
Gd589 Gd 0.49124 0.6345 0.29911 0.0
C590 C 0.43652 0.71916 0.27567 0.0
C591 C 0.45175 0.7541 0.31543 0.0
C592 C 0.47231 0.70308 0.31402 0.0
C593 C 0.45604 0.69708 0.28801 0.0
C594 C 0.46933 0.73117 0.32882 0.0
C595 C 0.43539 0.74811 0.28883 0.0
C596 C 0.41765 0.71097 0.25147 0.0
C597 C 0.41756 0.68103 0.24122 0.0
N598 N 0.45691 0.66857 0.27665 0.0
C599 C 0.43714 0.65993 0.2545 0.0
H600 H 0.43646 0.63678 0.24714 0.0
C601 C 0.49864 0.68235 0.35581 0.0
N602 N 0.48837 0.68011 0.32665 0.0
C603 C 0.49651 0.70986 0.37137 0.0
C604 C 0.48251 0.73465 0.35748 0.0
H605 H 0.50962 0.66321 0.36648 0.0
H606 H 0.42088 0.76553 0.27943 0.0
H607 H 0.59942 0.63691 0.3021 0.0
H608 H 0.40235 0.72725 0.2413 0.0
H609 H 0.40238 0.67418 0.22318 0.0
H610 H 0.44954 0.77603 0.3262 0.0
H611 H 0.5266 0.56455 0.19339 0.0
H612 H 0.65912 0.56288 0.3137 0.0
H613 H 0.64233 0.61426 0.3273 0.0
H614 H 0.62314 0.48836 0.24426 0.0
H615 H 0.50573 0.71192 0.394 0.0
H616 H 0.48071 0.75586 0.36964 0.0
H617 H 0.65225 0.51663 0.28224 0.0
H618 H 0.53872 0.51226 0.18098 0.0
N619 N 0.59024 0.59907 0.27282 0.0
C620 C 0.63986 0.57276 0.30208 0.0
C621 C 0.6305 0.60175 0.30978 0.0
C622 C 0.62413 0.55669 0.27978 0.0
C623 C 0.59902 0.57047 0.26536 0.0
C624 C 0.6058 0.61468 0.29486 0.0
N625 N 0.55837 0.56782 0.23012 0.0
C626 C 0.58256 0.55443 0.2437 0.0
C627 C 0.5509 0.52361 0.19903 0.0
C628 C 0.57463 0.50906 0.21378 0.0
C629 C 0.54354 0.55328 0.20694 0.0
C630 C 0.59116 0.52457 0.23594 0.0
H631 H 0.58053 0.48614 0.20733 0.0
O632 O 0.5544 0.61796 0.19419 0.0
O633 O 0.50481 0.64121 0.2499 0.0
O634 O 0.47253 0.59774 0.26862 0.0
O635 O 0.50458 0.59787 0.22662 0.0
O636 O 0.53806 0.667 0.23038 0.0
O637 O 0.59242 0.63429 0.22171 0.0
O638 O 0.48135 0.61291 0.34282 0.0
O639 O 0.52724 0.60144 0.28519 0.0
O640 O 0.56612 0.65936 0.27003 0.0
O641 O 0.52741 0.67114 0.30409 0.0
O642 O 0.52774 0.6162 0.32966 0.0
O643 O 0.44538 0.6195 0.31106 0.0
C644 C 0.50938 0.66616 0.23579 0.0
C645 C 0.61624 0.51117 0.25006 0.0
C646 C 0.63277 0.52725 0.27174 0.0
C647 C 0.58191 0.62911 0.19461 0.0
C648 C 0.59956 0.63462 0.16622 0.0
C649 C 0.58519 0.62854 0.13846 0.0
C650 C 0.62996 0.64599 0.16596 0.0
C651 C 0.64547 0.65042 0.13805 0.0
C652 C 0.6003 0.63318 0.11119 0.0
C653 C 0.63009 0.64386 0.11095 0.0
C654 C 0.47933 0.58907 0.24088 0.0
C655 C 0.53957 0.59742 0.31087 0.0
C656 C 0.45227 0.61112 0.33852 0.0
C657 C 0.43273 0.62281 0.36342 0.0
C658 C 0.4247 0.65356 0.36304 0.0
C659 C 0.42185 0.60397 0.38747 0.0
C660 C 0.403 0.61623 0.4105 0.0
C661 C 0.40736 0.66585 0.38612 0.0
C662 C 0.39673 0.64752 0.40958 0.0
C663 C 0.55428 0.67621 0.29168 0.0
H664 H 0.56203 0.62014 0.13769 0.0
H665 H 0.64153 0.65087 0.18706 0.0
H666 H 0.58884 0.62835 0.09004 0.0
H667 H 0.64126 0.64711 0.08934 0.0
H668 H 0.43168 0.66821 0.34471 0.0
H669 H 0.4273 0.58003 0.38781 0.0
H670 H 0.40179 0.68974 0.38562 0.0
H671 H 0.38313 0.65792 0.42705 0.0
Gd672 Gd 0.27157 0.4668 0.12277 0.0
Gd673 Gd 0.21299 0.52143 0.13922 0.0
C674 C 0.24552 0.58096 0.21727 0.0
C675 C 0.21082 0.56637 0.25754 0.0
C676 C 0.20581 0.54389 0.2076 0.0
C677 C 0.23065 0.56046 0.19766 0.0
C678 C 0.19485 0.54761 0.23729 0.0
C679 C 0.23615 0.583 0.24754 0.0
C680 C 0.26863 0.59953 0.20557 0.0
C681 C 0.27555 0.59819 0.17479 0.0
N682 N 0.23869 0.55837 0.16815 0.0
C683 C 0.25998 0.57764 0.15626 0.0
H684 H 0.26545 0.57677 0.13268 0.0
C685 C 0.16217 0.5156 0.19389 0.0
N686 N 0.1906 0.52645 0.1873 0.0
C687 C 0.15055 0.51819 0.22318 0.0
C688 C 0.16732 0.53366 0.2452 0.0
H689 H 0.14928 0.50354 0.17684 0.0
H690 H 0.2476 0.59824 0.26308 0.0
H691 H 0.21939 0.41106 0.14541 0.0
H692 H 0.28069 0.61548 0.2199 0.0
H693 H 0.29295 0.61287 0.16533 0.0
H694 H 0.20304 0.56914 0.2806 0.0
H695 H 0.31441 0.49451 0.06472 0.0
H696 H 0.20955 0.34891 0.0733 0.0
H697 H 0.19761 0.36515 0.12518 0.0
H698 H 0.27212 0.38938 0.99507 0.0
H699 H 0.1287 0.50831 0.22873 0.0
H700 H 0.15817 0.53587 0.26782 0.0
H701 H 0.23817 0.3575 0.02573 0.0
H702 H 0.32503 0.48245 0.01223 0.0
N703 N 0.24419 0.42341 0.10528 0.0
C704 C 0.21931 0.3698 0.08197 0.0
C705 C 0.21258 0.37885 0.11124 0.0
C706 C 0.23863 0.38768 0.06425 0.0
C707 C 0.25055 0.41498 0.07637 0.0
C708 C 0.22537 0.40552 0.12267 0.0
N709 N 0.28117 0.45916 0.07083 0.0
C710 C 0.2693 0.43336 0.05873 0.0
C711 C 0.30893 0.4687 0.02483 0.0
C712 C 0.2963 0.44284 0.01186 0.0
C713 C 0.30188 0.47602 0.05466 0.0
C714 C 0.27695 0.42438 0.02902 0.0
H715 H 0.30244 0.43677 0.98895 0.0
O716 O 0.32077 0.46739 0.11808 0.0
O717 O 0.26335 0.51163 0.1447 0.0
O718 O 0.23523 0.53301 0.09516 0.0
O719 O 0.28298 0.5134 0.10129 0.0
O720 O 0.28374 0.47888 0.17058 0.0
O721 O 0.29774 0.42706 0.13628 0.0
O722 O 0.16689 0.53077 0.12392 0.0
O723 O 0.22779 0.48568 0.10737 0.0
O724 O 0.24728 0.44966 0.16478 0.0
O725 O 0.20843 0.48429 0.17404 0.0
O726 O 0.18344 0.48292 0.12175 0.0
O727 O 0.20075 0.56605 0.1219 0.0
C728 C 0.27793 0.50748 0.16933 0.0
C729 C 0.26601 0.39678 0.01759 0.0
C730 C 0.24672 0.37862 0.03505 0.0
C731 C 0.32338 0.44003 0.12907 0.0
C732 C 0.35304 0.42479 0.13264 0.0
C733 C 0.37951 0.43991 0.12309 0.0
C734 C 0.35538 0.39532 0.14536 0.0
C735 C 0.38393 0.38109 0.14781 0.0
C736 C 0.40769 0.42605 0.1258 0.0
C737 C 0.40993 0.3969 0.13793 0.0
C738 C 0.26438 0.53383 0.08928 0.0
C739 C 0.20314 0.4715 0.10348 0.0
C740 C 0.17223 0.5592 0.11797 0.0
C741 C 0.14979 0.58105 0.12952 0.0
C742 C 0.15327 0.59311 0.15864 0.0
C743 C 0.12453 0.58968 0.1117 0.0
C744 C 0.10276 0.61009 0.12318 0.0
C745 C 0.13207 0.61337 0.16998 0.0
C746 C 0.10712 0.62185 0.15249 0.0
C747 C 0.22358 0.45933 0.18036 0.0
H748 H 0.37846 0.46252 0.11342 0.0
H749 H 0.33518 0.38334 0.15288 0.0
H750 H 0.42794 0.43796 0.1184 0.0
H751 H 0.43218 0.38677 0.13992 0.0
H752 H 0.17248 0.58698 0.17259 0.0
H753 H 0.12165 0.58023 0.08926 0.0
H754 H 0.13504 0.62266 0.19244 0.0
H755 H 0.09135 0.63803 0.16186 0.0
Gd756 Gd 0.72591 0.99834 0.86779 0.0
Gd757 Gd 0.77683 0.05973 0.89178 0.0
C758 C 0.83826 0.02981 0.97 0.0
C759 C 0.81913 0.05974 0.01172 0.0
C760 C 0.79752 0.06531 0.9613 0.0
C761 C 0.81645 0.04299 0.95063 0.0
C762 C 0.79964 0.07493 0.99166 0.0
C763 C 0.8385 0.03721 1.00087 0.0
C764 C 0.86058 0.01137 0.95742 0.0
C765 C 0.86167 1.00776 0.92614 0.0
N766 N 0.81615 0.0371 0.92053 0.0
C767 C 0.83919 0.02076 0.90795 0.0
H768 H 0.8406 0.01727 0.88394 0.0
C769 C 0.76727 0.1075 0.94867 0.0
N770 N 0.77998 0.0803 0.94103 0.0
C771 C 0.76812 0.11763 0.9786 0.0
C772 C 0.78372 0.10081 1.0004 0.0
H773 H 0.75502 0.12051 0.93187 0.0
H774 H 0.85472 0.0269 0.01617 0.0
H775 H 0.67304 0.05143 0.88311 0.0
H776 H 0.87791 1.00108 0.97145 0.0
H777 H 0.87952 0.99449 0.91598 0.0
H778 H 0.82068 0.06644 0.03524 0.0
H779 H 0.7487 0.94406 0.82094 0.0
H780 H 0.61163 0.05624 0.80867 0.0
H781 H 0.62767 0.07292 0.85962 0.0
H782 H 0.64952 0.98218 0.73973 0.0
H783 H 0.75681 0.13842 0.9848 0.0
H784 H 0.78469 0.1089 0.02351 0.0
H785 H 0.61917 0.02124 0.76482 0.0
H786 H 0.73577 0.92396 0.77046 0.0
N787 N 0.68399 0.0232 0.84563 0.0
C788 C 0.63189 0.0468 0.81883 0.0
C789 C 0.64081 0.05619 0.8476 0.0
C790 C 0.64888 0.02487 0.80377 0.0
C791 C 0.67531 0.01356 0.81781 0.0
C792 C 0.66674 0.0438 0.8609 0.0
N793 N 0.71609 0.97944 0.81905 0.0
C794 C 0.69204 0.99117 0.80399 0.0
C795 C 0.72349 0.9431 0.77943 0.0
C796 C 0.69952 0.95569 0.76311 0.0
C797 C 0.73101 0.95483 0.80781 0.0
C798 C 0.68298 0.97951 0.77564 0.0
H799 H 0.69331 0.94618 0.74137 0.0
O800 O 0.72178 0.95051 0.87902 0.0
O801 O 0.76053 0.0115 0.90267 0.0
O802 O 0.79906 0.03313 0.85526 0.0
O803 O 0.76696 0.99545 0.8359 0.0
O804 O 0.76662 0.97135 0.87866 0.0
O805 O 0.68465 0.98022 0.88914 0.0
O806 O 0.78328 0.10786 0.88176 0.0
O807 O 0.74465 0.04378 0.85629 0.0
O808 O 0.70775 0.0204 0.91117 0.0
O809 O 0.73725 0.06292 0.9227 0.0
O810 O 0.7401 0.08812 0.86958 0.0
O811 O 0.81862 0.07628 0.87117 0.0
C812 C 0.7763 0.98712 0.90132 0.0
C813 C 0.65695 0.99095 0.76141 0.0
C814 C 0.6397 0.01325 0.77567 0.0
C815 C 0.69413 0.95233 0.88908 0.0
C816 C 0.67247 0.92802 0.87985 0.0
C817 C 0.67979 0.90881 0.85571 0.0
C818 C 0.64557 0.92217 0.89656 0.0
C819 C 0.62649 0.89707 0.88933 0.0
C820 C 0.66142 0.88404 0.84869 0.0
C821 C 0.63538 0.87795 0.86546 0.0
C822 C 0.79324 0.0106 0.83658 0.0
C823 C 0.73057 0.06801 0.85067 0.0
C824 C 0.81083 0.10471 0.87191 0.0
C825 C 0.83366 0.12622 0.8839 0.0
C826 C 0.84592 0.12146 0.91281 0.0
C827 C 0.84369 0.15133 0.86643 0.0
C828 C 0.86632 0.17116 0.8778 0.0
C829 C 0.86783 0.14125 0.92431 0.0
C830 C 0.87801 0.16582 0.90701 0.0
C831 C 0.71381 0.04497 0.92751 0.0
H832 H 0.70024 0.91233 0.84267 0.0
H833 H 0.63974 0.93702 0.91511 0.0
H834 H 0.66773 0.86906 0.83042 0.0
H835 H 0.62251 0.85771 0.85987 0.0
H836 H 0.8387 0.10231 0.92645 0.0
H837 H 0.8345 0.15494 0.84394 0.0
H838 H 0.87713 0.13741 0.94669 0.0
H839 H 0.8951 0.18079 0.91655 0.0
Gd840 Gd 0.81159 0.02022 0.37732 0.0
Gd841 Gd 0.75344 0.96488 0.39853 0.0
C842 C 0.70699 0.98129 0.48912 0.0
C843 C 0.72066 0.93603 0.51761 0.0
C844 C 0.73824 0.9429 0.46597 0.0
C845 C 0.72374 0.97051 0.46429 0.0
C846 C 0.73593 0.92477 0.4922 0.0
C847 C 0.70633 0.96434 0.51612 0.0
C848 C 0.69036 1.00804 0.48556 0.0
C849 C 0.68943 0.02235 0.45731 0.0
N850 N 0.72393 0.98558 0.4375 0.0
C851 C 0.70594 0.01033 0.43324 0.0
H852 H 0.70491 0.02139 0.41148 0.0
C853 C 0.76286 0.90357 0.43955 0.0
N854 N 0.75267 0.93274 0.44096 0.0
C855 C 0.76086 0.88453 0.46491 0.0
C856 C 0.74783 0.89538 0.49155 0.0
H857 H 0.77299 0.89521 0.41899 0.0
H858 H 0.69383 0.97235 0.53556 0.0
H859 H 0.85881 0.9584 0.39243 0.0
H860 H 0.6773 0.01719 0.50412 0.0
H861 H 0.67596 0.04254 0.45401 0.0
H862 H 0.71897 0.92263 0.53817 0.0
H863 H 0.78897 0.07163 0.32449 0.0
H864 H 0.92171 0.95274 0.32039 0.0
H865 H 0.90278 0.93525 0.36997 0.0
H866 H 0.88867 0.02715 0.24937 0.0
H867 H 0.7695 0.86163 0.46396 0.0
H868 H 0.74635 0.88063 0.51118 0.0
H869 H 0.91723 0.98807 0.27663 0.0
H870 H 0.80236 0.08696 0.27319 0.0
N871 N 0.8516 0.99077 0.35663 0.0
C872 C 0.90203 0.96346 0.33024 0.0
C873 C 0.89153 0.95366 0.35827 0.0
C874 C 0.88682 0.98667 0.31504 0.0
C875 C 0.86092 0.99962 0.32854 0.0
C876 C 0.86638 0.96757 0.37123 0.0
N877 N 0.82041 0.03469 0.32657 0.0
C878 C 0.84477 0.02184 0.31306 0.0
C879 C 0.81419 0.0683 0.28388 0.0
C880 C 0.83836 0.05458 0.26929 0.0
C881 C 0.80614 0.05876 0.31292 0.0
C882 C 0.8545 0.03173 0.28413 0.0
H883 H 0.84507 0.06257 0.24705 0.0
O884 O 0.81009 0.06934 0.37868 0.0
O885 O 0.76827 0.01397 0.40238 0.0
O886 O 0.73038 0.99714 0.36772 0.0
O887 O 0.76733 0.03207 0.35209 0.0
O888 O 0.8038 0.03238 0.42598 0.0
O889 O 0.85316 0.04604 0.38718 0.0
O890 O 0.73966 0.92361 0.37473 0.0
O891 O 0.78671 0.97894 0.36299 0.0
O892 O 0.83006 0.99285 0.41693 0.0
O893 O 0.79073 0.96056 0.43324 0.0
O894 O 0.78765 0.93408 0.37632 0.0
O895 O 0.70616 0.95655 0.38698 0.0
C896 C 0.77492 0.02811 0.4266 0.0
C897 C 0.88072 0.01951 0.27132 0.0
C898 C 0.89701 0.99731 0.28689 0.0
C899 C 0.83876 0.0718 0.38565 0.0
C900 C 0.85357 0.10175 0.39024 0.0
C901 C 0.83618 0.12815 0.38671 0.0
C902 C 0.88443 0.10448 0.39888 0.0
C903 C 0.89764 0.13347 0.40321 0.0
C904 C 0.84915 0.1567 0.39127 0.0
C905 C 0.87961 0.15939 0.39932 0.0
C906 C 0.73941 0.02038 0.35136 0.0
C907 C 0.79857 0.95363 0.35746 0.0
C908 C 0.7109 0.92964 0.37602 0.0
C909 C 0.69086 0.90494 0.38706 0.0
C910 C 0.68175 0.90418 0.41749 0.0
C911 C 0.68072 0.88187 0.36729 0.0
C912 C 0.66184 0.85827 0.37815 0.0
C913 C 0.66323 0.88072 0.42822 0.0
C914 C 0.65335 0.85788 0.40872 0.0
C915 C 0.81841 0.9722 0.43573 0.0
H916 H 0.81242 0.12682 0.38047 0.0
H917 H 0.89815 0.08436 0.40183 0.0
H918 H 0.8355 0.17686 0.38851 0.0
H919 H 0.88915 0.18187 0.4027 0.0
H920 H 0.68878 0.9218 0.43298 0.0
H921 H 0.68749 0.88224 0.34372 0.0
H922 H 0.65641 0.88032 0.45174 0.0
H923 H 0.63886 0.8399 0.41744 0.0
Gd924 Gd 0.2416 0.54456 0.62735 0.0
Gd925 Gd 0.30048 0.49052 0.64667 0.0
C926 C 0.28066 0.44027 0.7351 0.0
C927 C 0.32055 0.45938 0.76818 0.0
C928 C 0.3178 0.47618 0.71581 0.0
C929 C 0.29223 0.45843 0.71137 0.0
C930 C 0.33282 0.47619 0.74399 0.0
C931 C 0.29448 0.44146 0.76375 0.0
C932 C 0.25616 0.42078 0.72904 0.0
C933 C 0.24458 0.419 0.69967 0.0
N934 N 0.27982 0.45744 0.6833 0.0
C935 C 0.25705 0.43732 0.67689 0.0
H936 H 0.2473 0.43657 0.65462 0.0
C937 C 0.35726 0.50528 0.69354 0.0
N938 N 0.32912 0.49195 0.69185 0.0
C939 C 0.37283 0.50629 0.72113 0.0
C940 C 0.36028 0.49216 0.74662 0.0
H941 H 0.36687 0.51629 0.67382 0.0
H942 H 0.28575 0.42792 0.78236 0.0
H943 H 0.29465 0.60078 0.64539 0.0
H944 H 0.2465 0.40656 0.74667 0.0
H945 H 0.22583 0.40383 0.6946 0.0
H946 H 0.33154 0.45935 0.79014 0.0
H947 H 0.19178 0.51917 0.57422 0.0
H948 H 0.30645 0.65677 0.56823 0.0
H949 H 0.31769 0.64441 0.6215 0.0
H950 H 0.24209 0.61276 0.49343 0.0
H951 H 0.39449 0.51792 0.72272 0.0
H952 H 0.37247 0.49283 0.76794 0.0
H953 H 0.27778 0.64529 0.52127 0.0
H954 H 0.18036 0.52771 0.52083 0.0
N955 N 0.26914 0.58637 0.60637 0.0
C956 C 0.29586 0.63708 0.57865 0.0
C957 C 0.30219 0.63022 0.6087 0.0
C958 C 0.27583 0.61859 0.56244 0.0
C959 C 0.26267 0.593 0.57692 0.0
C960 C 0.28863 0.60488 0.62227 0.0
N961 N 0.22851 0.55121 0.57589 0.0
C962 C 0.24225 0.57471 0.56122 0.0
C963 C 0.19819 0.54077 0.53169 0.0
C964 C 0.21309 0.5638 0.51592 0.0
C965 C 0.20553 0.53539 0.56195 0.0
C966 C 0.23469 0.58169 0.53084 0.0
H967 H 0.20687 0.56839 0.49261 0.0
O968 O 0.19219 0.54839 0.62526 0.0
O969 O 0.25003 0.50033 0.65096 0.0
O970 O 0.27177 0.46858 0.61106 0.0
O971 O 0.22837 0.49804 0.60567 0.0
O972 O 0.22826 0.53295 0.67504 0.0
O973 O 0.21946 0.58425 0.64537 0.0
O974 O 0.34356 0.48087 0.62444 0.0
O975 O 0.28512 0.52431 0.61205 0.0
O976 O 0.26752 0.56359 0.66778 0.0
O977 O 0.30351 0.52754 0.68153 0.0
O978 O 0.32958 0.52774 0.62598 0.0
O979 O 0.31341 0.44418 0.63565 0.0
C980 C 0.23498 0.50469 0.67516 0.0
C981 C 0.24784 0.60701 0.5166 0.0
C982 C 0.26821 0.62548 0.53241 0.0
C983 C 0.19227 0.57509 0.63815 0.0
C984 C 0.17109 0.59885 0.6275 0.0
C985 C 0.1568 0.59682 0.59918 0.0
C986 C 0.16405 0.62343 0.64678 0.0
C987 C 0.14231 0.64523 0.63814 0.0
C988 C 0.13556 0.61853 0.5904 0.0
C989 C 0.12818 0.64238 0.60973 0.0
C990 C 0.24427 0.47284 0.60013 0.0
C991 C 0.30993 0.5381 0.60698 0.0
C992 C 0.33998 0.45161 0.62507 0.0
C993 C 0.36615 0.4338 0.63626 0.0
C994 C 0.36958 0.42889 0.66742 0.0
C995 C 0.38794 0.42176 0.61612 0.0
C996 C 0.413 0.40501 0.62734 0.0
C997 C 0.39452 0.41328 0.67865 0.0
C998 C 0.41611 0.40168 0.65894 0.0
C999 C 0.28969 0.55359 0.68537 0.0
H1000 H 0.16176 0.57835 0.58396 0.0
H1001 H 0.17486 0.62512 0.66878 0.0
H1002 H 0.12456 0.61675 0.56855 0.0
H1003 H 0.11155 0.65883 0.60236 0.0
H1004 H 0.35293 0.43709 0.68319 0.0
H1005 H 0.38506 0.42498 0.59196 0.0
H1006 H 0.39713 0.4101 0.70282 0.0
H1007 H 0.43543 0.39008 0.66866 0.0
C1008 C 0.16326 0.31497 0.54856 0.0
C1009 C 0.18188 0.30115 0.52693 0.0
C1010 C 0.17089 0.34333 0.56125 0.0
C1011 C 0.19618 0.35986 0.54995 0.0
C1012 C 0.2143 0.34664 0.52713 0.0
C1013 C 0.20761 0.31719 0.51683 0.0
C1014 C 0.15157 0.35551 0.58652 0.0
C1015 C 0.24047 0.36389 0.51302 0.0
C1016 C 0.20517 0.44512 0.56713 0.0
C1017 C 0.22999 0.44479 0.58706 0.0
C1018 C 0.19359 0.41772 0.55473 0.0
C1019 C 0.20597 0.38934 0.56388 0.0
C1020 C 0.2297 0.38898 0.58532 0.0
C1021 C 0.2421 0.4164 0.59547 0.0
C1022 C 0.16848 0.41921 0.53157 0.0
C1023 C 0.24236 0.35952 0.59755 0.0
H1024 H 0.14239 0.30401 0.55532 0.0
H1025 H 0.22165 0.30732 0.49936 0.0
H1026 H 0.16555 0.36745 0.60375 0.0
H1027 H 0.13512 0.37196 0.57707 0.0
H1028 H 0.1386 0.33705 0.59794 0.0
H1029 H 0.24899 0.35265 0.49229 0.0
H1030 H 0.23344 0.38734 0.50707 0.0
H1031 H 0.25947 0.36567 0.52941 0.0
H1032 H 0.19554 0.46664 0.56037 0.0
H1033 H 0.26144 0.4152 0.61053 0.0
H1034 H 0.14693 0.41142 0.54203 0.0
H1035 H 0.17332 0.40399 0.51223 0.0
H1036 H 0.16519 0.44265 0.52285 0.0
H1037 H 0.22368 0.34362 0.6037 0.0
H1038 H 0.25686 0.36313 0.61785 0.0
H1039 H 0.25628 0.34838 0.58 0.0
C1040 C 0.84382 0.0211 0.8143 0.0
C1041 C 0.82038 0.99999 0.81989 0.0
C1042 C 0.87344 0.01183 0.80782 0.0
C1043 C 0.87988 0.98054 0.80558 0.0
C1044 C 0.85591 0.95902 0.80903 0.0
C1045 C 0.82644 0.96898 0.81648 0.0
C1046 C 0.89818 0.03557 0.80488 0.0
C1047 C 0.86165 0.92544 0.80601 0.0
C1048 C 0.95097 0.95849 0.76254 0.0
C1049 C 0.97072 0.94951 0.78583 0.0
C1050 C 0.92157 0.96875 0.76869 0.0
C1051 C 0.91164 0.97067 0.79903 0.0
C1052 C 0.93219 0.96357 0.82284 0.0
C1053 C 0.96152 0.95291 0.81593 0.0
C1054 C 0.9005 0.97561 0.74257 0.0
C1055 C 0.92266 0.96575 0.85553 0.0
H1056 H 0.83941 0.04513 0.81694 0.0
H1057 H 0.80873 0.95249 0.82135 0.0
H1058 H 0.91575 0.03175 0.8225 0.0
H1059 H 0.90947 0.03369 0.78257 0.0
H1060 H 0.88943 0.05902 0.8073 0.0
H1061 H 0.84031 0.91188 0.80673 0.0
H1062 H 0.87352 0.92073 0.78442 0.0
H1063 H 0.87666 0.91771 0.82465 0.0
H1064 H 0.95774 0.95508 0.73921 0.0
H1065 H 0.97635 0.94519 0.83395 0.0
H1066 H 0.89117 0.99881 0.74471 0.0
H1067 H 0.881 0.95952 0.74297 0.0
H1068 H 0.91198 0.97379 0.7203 0.0
H1069 H 0.91293 0.98844 0.86012 0.0
H1070 H 0.94189 0.96181 0.87133 0.0
H1071 H 0.90469 0.94864 0.86032 0.0
C1072 C 0.31501 0.69146 0.01386 0.0
C1073 C 0.32397 0.71266 0.03576 0.0
C1074 C 0.30589 0.66206 0.02197 0.0
C1075 C 0.30474 0.65384 0.05291 0.0
C1076 C 0.3115 0.6759 0.07534 0.0
C1077 C 0.32129 0.70515 0.06645 0.0
C1078 C 0.29942 0.63924 0.99728 0.0
C1079 C 0.30962 0.66819 0.1086 0.0
C1080 C 0.2548 0.58554 0.06874 0.0
C1081 C 0.27588 0.56263 0.07562 0.0
C1082 C 0.26399 0.6154 0.06287 0.0
C1083 C 0.29521 0.62244 0.06144 0.0
C1084 C 0.31687 0.59918 0.06636 0.0
C1085 C 0.30694 0.56961 0.07411 0.0
C1086 C 0.24012 0.63961 0.05898 0.0
C1087 C 0.35045 0.6056 0.06375 0.0
H1088 H 0.31778 0.69712 0.99009 0.0
H1089 H 0.32896 0.72126 0.08335 0.0
H1090 H 0.31534 0.61993 0.99934 0.0
H1091 H 0.27611 0.6299 0.99966 0.0
H1092 H 0.30171 0.64927 0.97428 0.0
H1093 H 0.31388 0.6883 0.12313 0.0
H1094 H 0.28689 0.65862 0.11401 0.0
H1095 H 0.32654 0.65056 0.11434 0.0
H1096 H 0.23069 0.58066 0.06952 0.0
H1097 H 0.32342 0.55227 0.07956 0.0
H1098 H 0.24089 0.64895 0.03566 0.0
H1099 H 0.24469 0.65869 0.07471 0.0
H1100 H 0.21682 0.63082 0.06332 0.0
H1101 H 0.35552 0.6164 0.04156 0.0
H1102 H 0.36419 0.58467 0.06603 0.0
H1103 H 0.35764 0.6218 0.08157 0.0
C1104 C 0.57073 0.06089 0.30383 0.0
C1105 C 0.57091 0.08585 0.28415 0.0
C1106 C 0.59834 0.04793 0.31348 0.0
C1107 C 0.62632 0.0615 0.30456 0.0
C1108 C 0.62641 0.08687 0.28514 0.0
C1109 C 0.59898 0.09784 0.27439 0.0
C1110 C 0.59751 0.01986 0.33312 0.0
C1111 C 0.65549 0.10292 0.27593 0.0
C1112 C 0.69636 0.05516 0.35324 0.0
C1113 C 0.71467 0.03604 0.33601 0.0
C1114 C 0.66721 0.06295 0.34364 0.0
C1115 C 0.65582 0.05072 0.31634 0.0
C1116 C 0.67425 0.03143 0.29866 0.0
C1117 C 0.7036 0.02435 0.30875 0.0
C1118 C 0.64854 0.08408 0.36286 0.0
C1119 C 0.66308 0.01803 0.26925 0.0
H1120 H 0.54933 0.05098 0.31086 0.0
H1121 H 0.59992 0.1164 0.25835 0.0
H1122 H 0.61619 1.00419 0.32725 0.0
H1123 H 0.60038 0.02648 0.35715 0.0
H1124 H 0.57554 1.00753 0.33089 0.0
H1125 H 0.65123 0.12413 0.26295 0.0
H1126 H 0.66915 0.10881 0.29624 0.0
H1127 H 0.66937 0.08771 0.26173 0.0
H1128 H 0.70399 0.0627 0.37517 0.0
H1129 H 0.7173 1.00844 0.29616 0.0
H1130 H 0.62732 0.07251 0.37008 0.0
H1131 H 0.64199 0.10437 0.34944 0.0
H1132 H 0.66095 0.09177 0.38338 0.0
H1133 H 0.67564 0.99709 0.26338 0.0
H1134 H 0.66669 0.03473 0.25073 0.0
H1135 H 0.63847 0.01258 0.27022 0.0
C1136 C 0.72474 0.19802 0.47279 0.0
C1137 C 0.6934 0.19843 0.4782 0.0
C1138 C 0.73924 0.17083 0.46392 0.0
C1139 C 0.72195 0.14363 0.46039 0.0
C1140 C 0.69026 0.14447 0.46464 0.0
C1141 C 0.6766 0.17162 0.47329 0.0
C1142 C 0.77309 0.17095 0.45906 0.0
C1143 C 0.67064 0.11642 0.46072 0.0
C1144 C 0.7496 0.07703 0.41353 0.0
C1145 C 0.75826 0.05587 0.43568 0.0
C1146 C 0.73833 0.10573 0.42115 0.0
C1147 C 0.73635 0.11411 0.45194 0.0
C1148 C 0.74548 0.09305 0.47457 0.0
C1149 C 0.75651 0.06427 0.46616 0.0
C1150 C 0.72857 0.12708 0.39617 0.0
C1151 C 0.74363 0.10096 0.50769 0.0
H1152 H 0.738 0.21848 0.47656 0.0
H1153 H 0.65242 0.17159 0.47657 0.0
H1154 H 0.784 0.15551 0.47567 0.0
H1155 H 0.77845 0.16226 0.43617 0.0
H1156 H 0.78316 0.19401 0.46151 0.0
H1157 H 0.64613 0.12114 0.46397 0.0
H1158 H 0.67378 0.10682 0.4378 0.0
H1159 H 0.67754 0.09876 0.47729 0.0
H1160 H 0.75261 0.07161 0.38998 0.0
H1161 H 0.7642 0.04847 0.48337 0.0
H1162 H 0.74114 0.1489 0.39795 0.0
H1163 H 0.70407 0.13223 0.39848 0.0
H1164 H 0.73242 0.11747 0.3733 0.0
H1165 H 0.75645 0.12228 0.5121 0.0
H1166 H 0.7528 0.08271 0.52245 0.0
H1167 H 0.71966 0.10502 0.51401 0.0
C1168 C 0.085 0.41342 0.73365 0.0
C1169 C 0.06174 0.43479 0.73748 0.0
C1170 C 0.11349 0.42158 0.72149 0.0
C1171 C 0.11933 0.45206 0.71283 0.0
C1172 C 0.09544 0.47346 0.71516 0.0
C1173 C 0.06724 0.46472 0.72795 0.0
C1174 C 0.13801 0.39786 0.71994 0.0
C1175 C 0.10006 0.50599 0.70537 0.0
C1176 C 0.20015 0.48531 0.71573 0.0
C1177 C 0.20901 0.4849 0.68526 0.0
C1178 C 0.1717 0.47362 0.72509 0.0
C1179 C 0.15087 0.46195 0.7034 0.0
C1180 C 0.16013 0.46041 0.67274 0.0
C1181 C 0.18896 0.47169 0.66415 0.0
C1182 C 0.1635 0.47485 0.75818 0.0
C1183 C 0.13893 0.44838 0.64863 0.0
H1184 H 0.08194 0.39063 0.74214 0.0
H1185 H 0.04983 0.48159 0.73149 0.0
H1186 H 0.14915 0.39821 0.69746 0.0
H1187 H 0.15575 0.403 0.73708 0.0
H1188 H 0.12905 0.3746 0.72427 0.0
H1189 H 0.07847 0.51886 0.70519 0.0
H1190 H 0.11617 0.51737 0.72105 0.0
H1191 H 0.11014 0.50694 0.68239 0.0
H1192 H 0.21513 0.49587 0.73217 0.0
H1193 H 0.19488 0.47158 0.64054 0.0
H1194 H 0.15568 0.45218 0.76612 0.0
H1195 H 0.14449 0.49087 0.76146 0.0
H1196 H 0.18291 0.48229 0.7725 0.0
H1197 H 0.12998 0.42568 0.65511 0.0
H1198 H 0.15018 0.44659 0.62623 0.0
H1199 H 0.11918 0.46373 0.64637 0.0
C1200 C 0.81066 0.95127 0.9274 0.0
C1201 C 0.78309 0.967 0.92749 0.0
C1202 C 0.81429 0.92362 0.94301 0.0
C1203 C 0.78873 0.90916 0.95632 0.0
C1204 C 0.7607 0.92483 0.95668 0.0
C1205 C 0.75857 0.954 0.94337 0.0
C1206 C 0.84522 0.90907 0.94343 0.0
C1207 C 0.73224 0.90966 0.96845 0.0
C1208 C 0.79976 0.82285 0.96177 0.0
C1209 C 0.80731 0.81927 0.99241 0.0
C1210 C 0.79138 0.85161 0.95005 0.0
C1211 C 0.79153 0.87756 0.9692 0.0
C1212 C 0.79739 0.87352 1.00042 0.0
C1213 C 0.80445 0.84451 0.01163 0.0
C1214 C 0.78414 0.8545 0.91679 0.0
C1215 C 0.79923 0.90028 0.02164 0.0
H1216 H 0.82885 0.95913 0.91295 0.0
H1217 H 0.73665 0.96497 0.94215 0.0
H1218 H 0.85016 0.89911 0.96601 0.0
H1219 H 0.8459 0.89048 0.92661 0.0
H1220 H 0.86345 0.92568 0.93773 0.0
H1221 H 0.71286 0.9256 0.96957 0.0
H1222 H 0.72592 0.89068 0.95316 0.0
H1223 H 0.73605 0.89976 0.99123 0.0
H1224 H 0.80243 0.80383 0.94655 0.0
H1225 H 0.81041 0.84209 0.03534 0.0
H1226 H 0.80387 0.86456 0.90476 0.0
H1227 H 0.76452 0.86977 0.91319 0.0
H1228 H 0.77897 0.83209 0.90647 0.0
H1229 H 0.81919 0.91456 0.01555 0.0
H1230 H 0.80156 0.89314 0.04567 0.0
H1231 H 0.77884 0.91471 0.01944 0.0
C1232 C 0.44205 0.54709 0.23174 0.0
C1233 C 0.45372 0.57562 0.22364 0.0
C1234 C 0.41344 0.5372 0.22114 0.0
C1235 C 0.39494 0.55731 0.20408 0.0
C1236 C 0.40692 0.58608 0.19562 0.0
C1237 C 0.43657 0.59426 0.20444 0.0
C1238 C 0.40298 0.5054 0.22877 0.0
C1239 C 0.38843 0.6091 0.1783 0.0
C1240 C 0.32875 0.52902 0.156 0.0
C1241 C 0.30501 0.52642 0.17704 0.0
C1242 C 0.35799 0.53851 0.16452 0.0
C1243 C 0.36349 0.54796 0.1946 0.0
C1244 C 0.33895 0.5479 0.21547 0.0
C1245 C 0.31046 0.53579 0.20682 0.0
C1246 C 0.38311 0.53715 0.14134 0.0
C1247 C 0.34259 0.56 0.24715 0.0
H1248 H 0.45507 0.53272 0.24685 0.0
H1249 H 0.4452 0.61652 0.19841 0.0
H1250 H 0.38712 0.50611 0.24818 0.0
H1251 H 0.39084 0.49493 0.20934 0.0
H1252 H 0.42231 0.49064 0.23519 0.0
H1253 H 0.39322 0.63233 0.1868 0.0
H1254 H 0.39514 0.60863 0.15413 0.0
H1255 H 0.36363 0.60494 0.17983 0.0
H1256 H 0.32537 0.52161 0.13311 0.0
H1257 H 0.29258 0.53333 0.22346 0.0
H1258 H 0.40449 0.52871 0.15159 0.0
H1259 H 0.38747 0.56022 0.13217 0.0
H1260 H 0.37701 0.52222 0.12201 0.0
H1261 H 0.3497 0.54135 0.26245 0.0
H1262 H 0.32073 0.56889 0.25577 0.0
H1263 H 0.3599 0.57841 0.24825 0.0
C1264 C 0.53895 0.21151 0.31977 0.0
C1265 C 0.52905 0.18163 0.31477 0.0
C1266 C 0.55342 0.21987 0.34717 0.0
C1267 C 0.55592 0.19849 0.37128 0.0
C1268 C 0.54506 0.16852 0.36657 0.0
C1269 C 0.53278 0.16029 0.33823 0.0
C1270 C 0.56591 0.25168 0.35031 0.0
C1271 C 0.54545 0.1453 0.39182 0.0
C1272 C 0.6176 0.21283 0.43054 0.0
C1273 C 0.6027 0.23052 0.45226 0.0
C1274 C 0.6025 0.20135 0.40488 0.0
C1275 C 0.57118 0.20706 0.40075 0.0
C1276 C 0.55527 0.22249 0.42404 0.0
C1277 C 0.57129 0.23455 0.44919 0.0
C1278 C 0.62087 0.1857 0.38077 0.0
C1279 C 0.52165 0.228 0.42155 0.0
H1280 H 0.53549 0.22834 0.30213 0.0
H1281 H 0.52472 0.13731 0.33501 0.0
H1282 H 0.55282 0.26412 0.36763 0.0
H1283 H 0.58988 0.25097 0.35806 0.0
H1284 H 0.56486 0.26457 0.32867 0.0
H1285 H 0.53274 0.12429 0.38579 0.0
H1286 H 0.56915 0.13906 0.39733 0.0
H1287 H 0.53533 0.15499 0.41261 0.0
H1288 H 0.64204 0.21058 0.432 0.0
H1289 H 0.55966 0.24897 0.46519 0.0
H1290 H 0.62123 0.19994 0.35998 0.0
H1291 H 0.6104 0.16361 0.37464 0.0
H1292 H 0.64464 0.1816 0.38807 0.0
H1293 H 0.51758 0.24725 0.40582 0.0
H1294 H 0.51162 0.23376 0.44383 0.0
H1295 H 0.50972 0.20776 0.41234 0.0
C1296 C 0.07852 0.30928 0.56837 0.0
C1297 C 0.07818 0.27778 0.56376 0.0
C1298 C 0.07003 0.32155 0.59645 0.0
C1299 C 0.06189 0.30177 0.62053 0.0
C1300 C 0.06092 0.2701 0.61575 0.0
C1301 C 0.06828 0.25862 0.58732 0.0
C1302 C 0.07 0.35557 0.60048 0.0
C1303 C 0.05268 0.24818 0.6409 0.0
C1304 C 0.06248 0.33001 0.70196 0.0
C1305 C 0.03134 0.3335 0.70723 0.0
C1306 C 0.07299 0.31962 0.67378 0.0
C1307 C 0.0519 0.31389 0.65013 0.0
C1308 C 0.02059 0.31759 0.65532 0.0
C1309 C 0.01071 0.32635 0.68392 0.0
C1310 C 0.10656 0.31497 0.66923 0.0
C1311 C 0.99738 0.3127 0.63049 0.0
H1312 H 0.08639 0.32429 0.55052 0.0
H1313 H 0.06764 0.23424 0.58409 0.0
H1314 H 0.04739 0.3631 0.60835 0.0
H1315 H 0.08669 0.36216 0.61814 0.0
H1316 H 0.07567 0.36786 0.5792 0.0
H1317 H 0.05522 0.2241 0.63405 0.0
H1318 H 0.06727 0.2524 0.66098 0.0
H1319 H 0.02884 0.2517 0.64796 0.0
H1320 H 0.07864 0.33581 0.71952 0.0
H1321 H 0.98654 0.32882 0.68746 0.0
H1322 H 0.11526 0.33148 0.65228 0.0
H1323 H 0.11081 0.29188 0.66028 0.0
H1324 H 0.11965 0.31794 0.69055 0.0
H1325 H 1.00374 0.32602 0.61006 0.0
H1326 H 0.97419 0.31941 0.63747 0.0
H1327 H 0.99676 0.28843 0.62393 0.0
C1328 C 0.99398 0.81818 0.83015 0.0
C1329 C 0.98967 0.84913 0.82423 0.0
C1330 C 0.98015 0.80409 0.85554 0.0
C1331 C 0.96224 0.82156 0.87569 0.0
C1332 C 0.95727 0.85259 0.86903 0.0
C1333 C 0.97081 0.86576 0.84345 0.0
C1334 C 0.98501 0.77068 0.86106 0.0
C1335 C 0.93816 0.87227 0.88934 0.0
C1336 C 0.8963 0.79171 0.9213 0.0
C1337 C 0.90797 0.78827 0.95092 0.0
C1338 C 0.91459 0.79914 0.89663 0.0
C1339 C 0.94518 0.80714 0.90143 0.0
C1340 C 0.95748 0.80471 0.93123 0.0
C1341 C 0.93908 0.79374 0.95539 0.0
C1342 C 0.90057 0.79924 0.86536 0.0
C1343 C 0.98954 0.81484 0.93777 0.0
H1344 H 0.00939 0.80548 0.81602 0.0
H1345 H 0.96802 0.88985 0.83932 0.0
H1346 H 0.99534 0.7671 0.8837 0.0
H1347 H 0.96284 0.75858 0.86095 0.0
H1348 H 0.99991 0.76038 0.84371 0.0
H1349 H 0.93906 0.89661 0.88265 0.0
H1350 H 0.91414 0.86464 0.88848 0.0
H1351 H 0.9459 0.87014 0.91318 0.0
H1352 H 0.87242 0.78772 0.91676 0.0
H1353 H 0.94882 0.79031 0.97762 0.0
H1354 H 0.91626 0.78915 0.84867 0.0
H1355 H 0.89597 0.82293 0.85828 0.0
H1356 H 0.87883 0.78632 0.86464 0.0
H1357 H 1.00555 0.8042 0.92173 0.0
H1358 H 0.9966 0.80932 0.9613 0.0
H1359 H 0.99131 0.8398 0.93448 0.0
C1360 C 0.47922 0.70464 0.20602 0.0
C1361 C 0.49082 0.67523 0.20884 0.0
C1362 C 0.46612 0.71487 0.17854 0.0
C1363 C 0.46638 0.69601 0.15248 0.0
C1364 C 0.47881 0.66658 0.15507 0.0
C1365 C 0.49049 0.65658 0.18307 0.0
C1366 C 0.45222 0.74604 0.17735 0.0
C1367 C 0.48059 0.64585 0.12798 0.0
C1368 C 0.40839 0.71301 0.09043 0.0
C1369 C 0.42462 0.73194 0.0705 0.0
C1370 C 0.42192 0.70039 0.11637 0.0
C1371 C 0.4528 0.7066 0.12288 0.0
C1372 C 0.47005 0.7238 0.10158 0.0
C1373 C 0.45571 0.73651 0.07575 0.0
C1374 C 0.4025 0.68207 0.13789 0.0
C1375 C 0.50321 0.73042 0.10705 0.0
H1376 H 0.48063 0.71977 0.22524 0.0
H1377 H 0.50047 0.63434 0.18431 0.0
H1378 H 0.46487 0.76054 0.16106 0.0
H1379 H 0.42843 0.7444 0.1692 0.0
H1380 H 0.45236 0.75728 0.19981 0.0
H1381 H 0.49179 0.62398 0.13345 0.0
H1382 H 0.4575 0.64093 0.11916 0.0
H1383 H 0.49343 0.65723 0.10951 0.0
H1384 H 0.38424 0.7099 0.08688 0.0
H1385 H 0.46823 0.75187 0.06107 0.0
H1386 H 0.40046 0.69426 0.15971 0.0
H1387 H 0.41343 0.66003 0.1427 0.0
H1388 H 0.37938 0.67769 0.12876 0.0
H1389 H 0.50558 0.74675 0.12597 0.0
H1390 H 0.51438 0.74031 0.08672 0.0
H1391 H 0.51529 0.7094 0.11372 0.0
C1392 C 0.16095 0.36117 0.32201 0.0
C1393 C 0.15792 0.38102 0.34651 0.0
C1394 C 0.1742 0.3711 0.29467 0.0
C1395 C 0.1851 0.40138 0.29205 0.0
C1396 C 0.18374 0.42083 0.31746 0.0
C1397 C 0.16993 0.4105 0.34424 0.0
C1398 C 0.17484 0.34979 0.26803 0.0
C1399 C 0.19547 0.4531 0.31588 0.0
C1400 C 0.2348 0.42655 0.22565 0.0
C1401 C 0.21374 0.44186 0.20741 0.0
C1402 C 0.2258 0.41259 0.25299 0.0
C1403 C 0.195 0.41381 0.26209 0.0
C1404 C 0.17355 0.42833 0.2431 0.0
C1405 C 0.18318 0.44202 0.21603 0.0
C1406 C 0.24942 0.3976 0.27266 0.0
C1407 C 0.14047 0.43013 0.25171 0.0
H1408 H 0.15147 0.33844 0.32369 0.0
H1409 H 0.16769 0.4258 0.36326 0.0
H1410 H 0.15895 0.35799 0.25032 0.0
H1411 H 0.19781 0.34941 0.25785 0.0
H1412 H 0.1682 0.32625 0.27445 0.0
H1413 H 0.19563 0.46423 0.3384 0.0
H1414 H 0.21884 0.45366 0.3066 0.0
H1415 H 0.18097 0.46661 0.30037 0.0
H1416 H 0.2585 0.42643 0.21912 0.0
H1417 H 0.16667 0.45302 0.20159 0.0
H1418 H 0.24206 0.37426 0.2789 0.0
H1419 H 0.25209 0.41055 0.294 0.0
H1420 H 0.27185 0.39642 0.26132 0.0
H1421 H 0.13134 0.4071 0.25662 0.0
H1422 H 0.12645 0.44068 0.23363 0.0
H1423 H 0.13806 0.44379 0.27259 0.0
C1424 C 0.89115 0.93173 0.59708 0.0
C1425 C 0.91018 0.90656 0.59441 0.0
C1426 C 0.87926 0.9461 0.57117 0.0
C1427 C 0.887 0.9352 0.54206 0.0
C1428 C 0.908 0.91119 0.53939 0.0
C1429 C 0.91911 0.89697 0.56562 0.0
C1430 C 0.8567 0.9714 0.57501 0.0
C1431 C 0.91698 0.89895 0.50886 0.0
C1432 C 0.82665 0.93888 0.48098 0.0
C1433 C 0.83675 0.96282 0.4625 0.0
C1434 C 0.84275 0.92986 0.50678 0.0
C1435 C 0.86973 0.94543 0.51484 0.0
C1436 C 0.88018 0.96983 0.49654 0.0
C1437 C 0.86365 0.97817 0.47048 0.0
C1438 C 0.83077 0.90354 0.52543 0.0
C1439 C 0.9087 0.98717 0.50459 0.0
H1440 H 0.8841 0.93896 0.6194 0.0
H1441 H 0.93389 0.87751 0.56365 0.0
H1442 H 0.86207 0.99057 0.55951 0.0
H1443 H 0.83365 0.96299 0.56905 0.0
H1444 H 0.8562 0.97997 0.59861 0.0
H1445 H 0.93646 0.88315 0.51048 0.0
H1446 H 0.89745 0.88655 0.49874 0.0
H1447 H 0.92306 0.91778 0.49321 0.0
H1448 H 0.80604 0.92697 0.4754 0.0
H1449 H 0.87163 0.99694 0.45662 0.0
H1450 H 0.82553 0.91129 0.54867 0.0
H1451 H 0.84824 0.88562 0.52734 0.0
H1452 H 0.80995 0.89326 0.51554 0.0
H1453 H 0.90615 0.9977 0.5272 0.0
H1454 H 0.91406 1.0053 0.48784 0.0
H1455 H 0.92819 0.97143 0.50601 0.0
C1456 C 0.27946 0.57886 0.73516 0.0
C1457 C 0.2996 0.57215 0.71166 0.0
C1458 C 0.2897 0.59318 0.76192 0.0
C1459 C 0.32068 0.60186 0.7649 0.0
C1460 C 0.34074 0.59609 0.74053 0.0
C1461 C 0.3301 0.58085 0.71456 0.0
C1462 C 0.26766 0.59779 0.78753 0.0
C1463 C 0.37375 0.60532 0.74217 0.0
C1464 C 0.34752 0.6582 0.82587 0.0
C1465 C 0.36165 0.63884 0.84686 0.0
C1466 C 0.33327 0.64655 0.79953 0.0
C1467 C 0.33277 0.61475 0.79416 0.0
C1468 C 0.34563 0.59512 0.81613 0.0
C1469 C 0.3599 0.60735 0.84196 0.0
C1470 C 0.32013 0.66838 0.77669 0.0
C1471 C 0.34536 0.56111 0.81185 0.0
H1472 H 0.25596 0.57165 0.73319 0.0
H1473 H 0.34573 0.57556 0.69644 0.0
H1474 H 0.27489 0.5842 0.80746 0.0
H1475 H 0.26765 0.62194 0.79451 0.0
H1476 H 0.24415 0.59095 0.78132 0.0
H1477 H 0.38562 0.602 0.72029 0.0
H1478 H 0.37585 0.62954 0.74872 0.0
H1479 H 0.38543 0.59168 0.75978 0.0
H1480 H 0.34892 0.68253 0.82924 0.0
H1481 H 0.37048 0.59215 0.85814 0.0
H1482 H 0.29655 0.66166 0.7708 0.0
H1483 H 0.33363 0.66759 0.75555 0.0
H1484 H 0.32008 0.69211 0.78511 0.0
H1485 H 0.32201 0.55297 0.80683 0.0
H1486 H 0.35394 0.54882 0.83211 0.0
H1487 H 0.35975 0.55509 0.79224 0.0
C1488 C 0.60426 0.10676 0.05854 0.0
C1489 C 0.62078 0.10874 0.08558 0.0
C1490 C 0.61638 0.09217 0.03304 0.0
C1491 C 0.64579 0.07937 0.03461 0.0
C1492 C 0.66173 0.07978 0.06255 0.0
C1493 C 0.64907 0.0946 0.08766 0.0
C1494 C 0.59865 0.09248 1.00378 0.0
C1495 C 0.69312 0.06658 0.06533 0.0
C1496 C 0.67681 0.03154 0.96937 0.0
C1497 C 0.69388 0.05327 0.95335 0.0
C1498 C 0.66054 0.03962 0.99565 0.0
C1499 C 0.66165 0.07001 1.00622 0.0
C1500 C 0.6783 0.09202 0.98962 0.0
C1501 C 0.6936 0.0835 0.96328 0.0
C1502 C 0.64273 0.01557 0.01246 0.0
C1503 C 0.68051 0.12464 0.99997 0.0
H1504 H 0.58253 0.11805 0.05689 0.0
H1505 H 0.66194 0.09646 0.10852 0.0
H1506 H 0.60945 0.10866 0.98771 0.0
H1507 H 0.59887 0.06973 0.9931 0.0
H1508 H 0.57473 0.09943 1.00722 0.0
H1509 H 0.70073 0.06506 0.08928 0.0
H1510 H 0.69381 0.0436 0.0552 0.0
H1511 H 0.70949 0.0811 0.05272 0.0
H1512 H 0.67677 1.00814 0.96185 0.0
H1513 H 0.7056 0.10073 0.95045 0.0
H1514 H 0.61893 0.02298 0.01552 0.0
H1515 H 0.65259 0.01228 0.03536 0.0
H1516 H 0.64269 0.99345 1.00048 0.0
H1517 H 0.65752 0.13453 1.00181 0.0
H1518 H 0.6942 0.139 0.98434 0.0
H1519 H 0.69107 0.12562 0.02277 0.0
C1520 C 0.65261 0.11018 0.69069 0.0
C1521 C 0.66114 0.13916 0.68013 0.0
C1522 C 0.66549 0.09733 0.71686 0.0
C1523 C 0.68842 0.11314 0.73297 0.0
C1524 C 0.6989 0.14145 0.72121 0.0
C1525 C 0.68504 0.15423 0.6951 0.0
C1526 C 0.65277 0.06773 0.72847 0.0
C1527 C 0.72402 0.15877 0.73686 0.0
C1528 C 0.696 0.09966 0.81853 0.0
C1529 C 0.71845 0.07734 0.82038 0.0
C1530 C 0.68563 0.1108 0.7904 0.0
C1531 C 0.69944 0.10107 0.76316 0.0
C1532 C 0.72271 0.07893 0.76496 0.0
C1533 C 0.73141 0.06685 0.79341 0.0
C1534 C 0.65959 0.13286 0.78992 0.0
C1535 C 0.73889 0.06846 0.73687 0.0
H1536 H 0.63468 0.0979 0.67905 0.0
H1537 H 0.69201 0.17656 0.68725 0.0
H1538 H 0.67129 0.05187 0.73427 0.0
H1539 H 0.63974 0.07223 0.74941 0.0
H1540 H 0.63742 0.05654 0.71186 0.0
H1541 H 0.73246 0.17811 0.72294 0.0
H1542 H 0.71563 0.16778 0.75867 0.0
H1543 H 0.74325 0.14346 0.74206 0.0
H1544 H 0.68617 0.10815 0.83928 0.0
H1545 H 0.74927 0.05009 0.79463 0.0
H1546 H 0.64116 0.12413 0.77508 0.0
H1547 H 0.66724 0.15495 0.78041 0.0
H1548 H 0.65012 0.13677 0.81284 0.0
H1549 H 0.72289 0.05591 0.72201 0.0
H1550 H 0.75832 0.05342 0.74225 0.0
H1551 H 0.74737 0.08838 0.72384 0.0
C1552 C 0.20061 0.47747 0.04708 0.0
C1553 C 0.19318 0.46072 0.07318 0.0
C1554 C 0.1887 0.46953 0.01854 0.0
C1555 C 0.17026 0.44318 0.01563 0.0
C1556 C 0.16375 0.42558 0.04185 0.0
C1557 C 0.17421 0.43528 0.0704 0.0
C1558 C 0.19575 0.48943 0.99153 0.0
C1559 C 0.14617 0.39615 0.0397 0.0
C1560 C 0.11573 0.42703 0.94992 0.0
C1561 C 0.13298 0.40723 0.93222 0.0
C1562 C 0.12812 0.44032 0.97631 0.0
C1563 C 0.15831 0.43347 0.98525 0.0
C1564 C 0.17628 0.41542 0.96591 0.0
C1565 C 0.16342 0.40254 0.93988 0.0
C1566 C 0.10859 0.46085 0.99518 0.0
C1567 C 0.20851 0.40741 0.97338 0.0
H1568 H 0.21488 0.49749 0.04912 0.0
H1569 H 0.16803 0.42261 0.09056 0.0
H1570 H 0.21053 0.47704 0.97557 0.0
H1571 H 0.17453 0.49513 0.97924 0.0
H1572 H 0.20744 0.51085 0.99809 0.0
H1573 H 0.14467 0.38418 0.06183 0.0
H1574 H 0.12286 0.40057 0.03136 0.0
H1575 H 0.15726 0.38092 0.02317 0.0
H1576 H 0.0922 0.43093 0.94398 0.0
H1577 H 0.17702 0.38761 0.92602 0.0
H1578 H 0.12134 0.48181 1.00122 0.0
H1579 H 0.1024 0.44918 0.0166 0.0
H1580 H 0.08738 0.4673 0.98322 0.0
H1581 H 0.22219 0.40468 0.95248 0.0
H1582 H 0.20835 0.38529 0.98542 0.0
H1583 H 0.21967 0.42467 0.9878 0.0
C1584 C 0.79601 0.95553 0.30059 0.0
C1585 C 0.80904 0.94373 0.32711 0.0
C1586 C 0.80282 0.94315 0.27199 0.0
C1587 C 0.82427 0.91937 0.26965 0.0
C1588 C 0.83807 0.9081 0.29645 0.0
C1589 C 0.82951 0.91969 0.32478 0.0
C1590 C 0.78663 0.95514 0.24433 0.0
C1591 C 0.86227 0.88408 0.29524 0.0
C1592 C 0.83536 0.86801 0.20049 0.0
C1593 C 0.8594 0.88291 0.18553 0.0
C1594 C 0.8223 0.88044 0.22692 0.0
C1595 C 0.83417 0.90783 0.23924 0.0
C1596 C 0.85735 0.9234 0.22333 0.0
C1597 C 0.86888 0.91135 0.19647 0.0
C1598 C 0.79646 0.8638 0.24215 0.0
C1599 C 0.87194 0.95159 0.23595 0.0
H1600 H 0.77955 0.97361 0.30232 0.0
H1601 H 0.83918 0.91017 0.34528 0.0
H1602 H 0.80312 0.96603 0.2287 0.0
H1603 H 0.77575 0.93608 0.23192 0.0
H1604 H 0.769 0.97202 0.25015 0.0
H1605 H 0.87199 0.87905 0.31792 0.0
H1606 H 0.85269 0.86279 0.28578 0.0
H1607 H 0.88093 0.8916 0.28006 0.0
H1608 H 0.82743 0.84621 0.19226 0.0
H1609 H 0.88643 0.92392 0.18459 0.0
H1610 H 0.77853 0.87996 0.24895 0.0
H1611 H 0.80482 0.85248 0.263 0.0
H1612 H 0.78627 0.84624 0.22721 0.0
H1613 H 0.85452 0.96831 0.24244 0.0
H1614 H 0.88793 0.96258 0.2198 0.0
H1615 H 0.88471 0.94512 0.25661 0.0
C1616 C 0.34055 0.57315 0.5737 0.0
C1617 C 0.32052 0.54839 0.57635 0.0
C1618 C 0.35268 0.58212 0.54544 0.0
C1619 C 0.34716 0.56426 0.51928 0.0
C1620 C 0.3278 0.53842 0.5221 0.0
C1621 C 0.31408 0.53134 0.55027 0.0
C1622 C 0.371 0.61113 0.54356 0.0
C1623 C 0.32185 0.51804 0.49537 0.0
C1624 C 0.35745 0.60248 0.44174 0.0
C1625 C 0.38824 0.5977 0.43528 0.0
C1626 C 0.34365 0.59088 0.46808 0.0
C1627 C 0.36071 0.5734 0.48898 0.0
C1628 C 0.39129 0.56638 0.48145 0.0
C1629 C 0.40476 0.57878 0.45489 0.0
C1630 C 0.31137 0.59984 0.47415 0.0
C1631 C 0.41009 0.54647 0.5019 0.0
H1632 H 0.34643 0.58587 0.59382 0.0
H1633 H 0.29935 0.5116 0.5522 0.0
H1634 H 0.39474 0.60605 0.53725 0.0
H1635 H 0.36149 0.6261 0.52567 0.0
H1636 H 0.37115 0.62372 0.5653 0.0
H1637 H 0.30899 0.49721 0.50181 0.0
H1638 H 0.30867 0.53048 0.47792 0.0
H1639 H 0.34365 0.51131 0.48489 0.0
H1640 H 0.34422 0.61669 0.42664 0.0
H1641 H 0.42852 0.57476 0.45023 0.0
H1642 H 0.31171 0.62224 0.48549 0.0
H1643 H 0.29932 0.58332 0.48881 0.0
H1644 H 0.29837 0.60237 0.45272 0.0
H1645 H 0.4163 0.55912 0.52268 0.0
H1646 H 0.43132 0.539 0.49075 0.0
H1647 H 0.39685 0.52611 0.50897 0.0
C1648 C 0.20933 0.20557 0.41541 0.0
C1649 C 0.20924 0.21191 0.44644 0.0
C1650 C 0.23601 0.19577 0.40102 0.0
C1651 C 0.26317 0.19274 0.41805 0.0
C1652 C 0.26334 0.20058 0.44909 0.0
C1653 C 0.23644 0.21004 0.4628 0.0
C1654 C 0.2349 0.18757 0.36793 0.0
C1655 C 0.29171 0.19805 0.46819 0.0
C1656 C 0.32494 0.13636 0.39966 0.0
C1657 C 0.34795 0.15535 0.38839 0.0
C1658 C 0.29647 0.14799 0.40748 0.0
C1659 C 0.291 0.1795 0.40436 0.0
C1660 C 0.31367 0.19854 0.39149 0.0
C1661 C 0.34189 0.18616 0.38344 0.0
C1662 C 0.27293 0.12682 0.4209 0.0
C1663 C 0.30894 0.2323 0.38829 0.0
H1664 H 0.1884 0.20727 0.40263 0.0
H1665 H 0.2367 0.21598 0.48655 0.0
H1666 H 0.25322 0.19957 0.35543 0.0
H1667 H 0.23879 0.16286 0.36536 0.0
H1668 H 0.21274 0.19327 0.35737 0.0
H1669 H 0.28881 0.20808 0.49103 0.0
H1670 H 0.29771 0.17378 0.47102 0.0
H1671 H 0.31108 0.20956 0.45687 0.0
H1672 H 0.32968 0.11252 0.40348 0.0
H1673 H 0.35983 0.20088 0.37502 0.0
H1674 H 0.25062 0.13025 0.40978 0.0
H1675 H 0.27009 0.13189 0.44531 0.0
H1676 H 0.27936 0.10259 0.41864 0.0
H1677 H 0.28664 0.23705 0.37766 0.0
H1678 H 0.32706 0.24334 0.3746 0.0
H1679 H 0.30885 0.24282 0.41107 0.0
C1680 C 0.12676 0.06043 0.65755 0.0
C1681 C 0.11401 0.07248 0.63089 0.0
C1682 C 0.11489 0.0344 0.67169 0.0
C1683 C 0.08798 0.02069 0.6607 0.0
C1684 C 0.07292 0.03455 0.63576 0.0
C1685 C 0.0864 0.05981 0.62072 0.0
C1686 C 0.132 0.02091 0.69787 0.0
C1687 C 0.04271 0.02254 0.62489 0.0
C1688 C 0.07611 0.93546 0.67543 0.0
C1689 C 0.06017 0.93498 0.70284 0.0
C1690 C 0.08504 0.96305 0.66156 0.0
C1691 C 0.07679 0.99123 0.67461 0.0
C1692 C 0.06019 0.99081 0.70218 0.0
C1693 C 0.0525 0.96283 0.71607 0.0
C1694 C 0.10414 0.96195 0.63329 0.0
C1695 C 0.05057 0.01966 0.71764 0.0
H1696 H 0.14689 0.07087 0.66716 0.0
H1697 H 0.07564 0.06904 0.60066 0.0
H1698 H 0.11765 0.02168 0.71835 0.0
H1699 H 0.13706 0.99686 0.69287 0.0
H1700 H 0.15368 0.033 0.70264 0.0
H1701 H 0.03182 0.03817 0.6084 0.0
H1702 H 0.04577 1.00019 0.61392 0.0
H1703 H 0.0272 0.01907 0.6444 0.0
H1704 H 0.08203 0.91408 0.665 0.0
H1705 H 0.03981 0.9629 0.73701 0.0
H1706 H 0.1258 0.97441 0.63708 0.0
H1707 H 0.09221 0.97334 0.61433 0.0
H1708 H 0.1094 0.93834 0.62644 0.0
H1709 H 0.06667 0.02477 0.73632 0.0
H1710 H 0.02777 0.01672 0.72798 0.0
H1711 H 0.04993 0.03942 0.702 0.0
C1712 C 0.22648 0.87408 0.88802 0.0
C1713 C 0.19945 0.85766 0.88324 0.0
C1714 C 0.25239 0.86044 0.90043 0.0
C1715 C 0.2522 0.82901 0.90732 0.0
C1716 C 0.22561 0.81169 0.90075 0.0
C1717 C 0.19945 0.82628 0.88915 0.0
C1718 C 0.27958 0.88019 0.90749 0.0
C1719 C 0.2243 0.77793 0.90657 0.0
C1720 C 0.33345 0.80089 0.91677 0.0
C1721 C 0.3365 0.79836 0.94835 0.0
C1722 C 0.30539 0.80792 0.90311 0.0
C1723 C 0.28003 0.81499 0.92137 0.0
C1724 C 0.28266 0.81155 0.95321 0.0
C1725 C 0.31031 0.8017 0.96604 0.0
C1726 C 0.30293 0.80785 0.86905 0.0
C1727 C 0.25671 0.81948 0.97385 0.0
H1728 H 0.22709 0.89817 0.8829 0.0
H1729 H 0.17878 0.81327 0.88565 0.0
H1730 H 0.28549 0.87756 0.93171 0.0
H1731 H 0.29945 0.87289 0.89411 0.0
H1732 H 0.27546 0.9046 0.90273 0.0
H1733 H 0.20708 0.76671 0.89191 0.0
H1734 H 0.24664 0.76715 0.90272 0.0
H1735 H 0.21768 0.7737 0.93042 0.0
H1736 H 0.35296 0.79682 0.90251 0.0
H1737 H 0.31156 0.79725 0.99005 0.0
H1738 H 0.30259 0.83151 0.86042 0.0
H1739 H 0.28147 0.79663 0.86183 0.0
H1740 H 0.32226 0.79592 0.8584 0.0
H1741 H 0.25166 0.84405 0.97158 0.0
H1742 H 0.26182 0.81435 0.99794 0.0
H1743 H 0.23592 0.80686 0.9673 0.0
C1744 C 0.44528 0.07712 0.17702 0.0
C1745 C 0.46929 0.08004 0.19764 0.0
C1746 C 0.43716 0.04866 0.16484 0.0
C1747 C 0.45516 0.02279 0.17119 0.0
C1748 C 0.48034 0.02596 0.19105 0.0
C1749 C 0.48654 0.05427 0.2047 0.0
C1750 C 0.40883 0.04622 0.14574 0.0
C1751 C 0.50078 0.99944 0.19779 0.0
C1752 C 0.41637 0.94573 0.1618 0.0
C1753 C 0.4212 0.93938 0.13113 0.0
C1754 C 0.42839 0.97189 0.17541 0.0
C1755 C 0.44653 0.9923 0.15829 0.0
C1756 C 0.4541 0.9844 0.12806 0.0
C1757 C 0.44105 0.9582 0.11468 0.0
C1758 C 0.41853 0.97886 0.20715 0.0
C1759 C 0.47485 1.00432 0.10939 0.0
H1760 H 0.43234 0.09707 0.17096 0.0
H1761 H 0.50562 0.05651 0.22009 0.0
H1762 H 0.4148 0.03959 0.12234 0.0
H1763 H 0.39364 0.02827 0.15507 0.0
H1764 H 0.39612 0.06789 0.14482 0.0
H1765 H 0.52097 1.0062 0.21136 0.0
H1766 H 0.48805 0.98172 0.21048 0.0
H1767 H 0.50855 0.98908 0.17632 0.0
H1768 H 0.40131 0.93112 0.17481 0.0
H1769 H 0.44505 0.95342 0.09098 0.0
H1770 H 0.39708 0.99174 0.20565 0.0
H1771 H 0.43549 0.99266 0.21959 0.0
H1772 H 0.41393 0.95776 0.22029 0.0
H1773 H 0.46234 0.02468 0.10162 0.0
H1774 H 0.48343 0.99226 0.08915 0.0
H1775 H 0.49447 0.01224 0.12314 0.0
C1776 C 0.82421 0.36892 0.61179 0.0
C1777 C 0.83395 0.36023 0.64083 0.0
C1778 C 0.7992 0.35506 0.59764 0.0
C1779 C 0.78386 0.33053 0.61176 0.0
C1780 C 0.79527 0.31961 0.63989 0.0
C1781 C 0.81988 0.33479 0.65432 0.0
C1782 C 0.78782 0.36842 0.56852 0.0
C1783 C 0.78097 0.29238 0.6551 0.0
C1784 C 0.69918 0.31855 0.5948 0.0
C1785 C 0.69938 0.29814 0.57053 0.0
C1786 C 0.72633 0.32955 0.60784 0.0
C1787 C 0.75473 0.31823 0.59808 0.0
C1788 C 0.755 0.29676 0.57408 0.0
C1789 C 0.72746 0.28762 0.56011 0.0
C1790 C 0.72452 0.35392 0.63167 0.0
C1791 C 0.78428 0.28328 0.56297 0.0
H1792 H 0.83546 0.38772 0.60043 0.0
H1793 H 0.82727 0.32744 0.67656 0.0
H1794 H 0.78494 0.35037 0.55139 0.0
H1795 H 0.76534 0.37869 0.57278 0.0
H1796 H 0.80322 0.38622 0.55922 0.0
H1797 H 0.79509 0.28376 0.6741 0.0
H1798 H 0.75839 0.29854 0.66411 0.0
H1799 H 0.77746 0.27384 0.63847 0.0
H1800 H 0.67757 0.32658 0.60313 0.0
H1801 H 0.72786 0.27144 0.5417 0.0
H1802 H 0.73859 0.3738 0.62486 0.0
H1803 H 0.73368 0.34531 0.65344 0.0
H1804 H 0.7009 0.36168 0.6354 0.0
H1805 H 0.79456 0.29859 0.54579 0.0
H1806 H 0.78032 0.26089 0.55209 0.0
H1807 H 0.80085 0.28037 0.5817 0.0
C1808 C 0.96717 0.49568 0.80731 0.0
C1809 C 0.97047 0.46789 0.82259 0.0
C1810 C 0.95508 0.5212 0.82178 0.0
C1811 C 0.94599 0.51907 0.85246 0.0
C1812 C 0.95035 0.49139 0.86837 0.0
C1813 C 0.96261 0.46616 0.85327 0.0
C1814 C 0.95085 0.55007 0.80375 0.0
C1815 C 0.94083 0.48801 0.90099 0.0
C1816 C 0.92893 0.59416 0.89215 0.0
C1817 C 0.8973 0.59619 0.88846 0.0
C1818 C 0.94504 0.56865 0.8817 0.0
C1819 C 0.9293 0.54482 0.86675 0.0
C1820 C 0.89737 0.54627 0.86394 0.0
C1821 C 0.88183 0.57148 0.87529 0.0
C1822 C 0.97904 0.5677 0.88564 0.0
C1823 C 0.87958 0.52168 0.84783 0.0
H1824 H 0.97362 0.49739 0.7837 0.0
H1825 H 0.96481 0.44481 0.86521 0.0
H1826 H 0.92627 0.55452 0.80085 0.0
H1827 H 0.96084 0.56967 0.81602 0.0
H1828 H 0.96138 0.54882 0.78096 0.0
H1829 H 0.94822 0.46607 0.91097 0.0
H1830 H 0.95039 0.50685 0.91471 0.0
H1831 H 0.91576 0.48931 0.90261 0.0
H1832 H 0.94131 0.61295 0.90218 0.0
H1833 H 0.85735 0.57208 0.87315 0.0
H1834 H 0.99016 0.5696 0.86321 0.0
H1835 H 0.98591 0.54566 0.8957 0.0
H1836 H 0.9876 0.58636 0.90027 0.0
H1837 H 0.88701 0.52032 0.82389 0.0
H1838 H 0.85475 0.52582 0.84816 0.0
H1839 H 0.88403 0.49929 0.85845 0.0
C1840 C 0.79128 0.72287 0.06071 0.0
C1841 C 0.81894 0.7209 0.07644 0.0
C1842 C 0.76409 0.71075 0.07288 0.0
C1843 C 0.76399 0.69743 0.10225 0.0
C1844 C 0.79179 0.69603 0.11847 0.0
C1845 C 0.81877 0.70755 0.10537 0.0
C1846 C 0.73548 0.71196 0.05411 0.0
C1847 C 0.79305 0.68229 0.14977 0.0
C1848 C 0.68622 0.69112 0.14167 0.0
C1849 C 0.67778 0.66097 0.13551 0.0
C1850 C 0.71459 0.70302 0.13199 0.0
C1851 C 0.73504 0.68444 0.11563 0.0
C1852 C 0.72713 0.65353 0.11106 0.0
C1853 C 0.69876 0.64233 0.12082 0.0
C1854 C 0.72212 0.73588 0.13812 0.0
C1855 C 0.7476 0.6326 0.09387 0.0
H1856 H 0.7909 0.73374 0.03869 0.0
H1857 H 0.83989 0.70619 0.11791 0.0
H1858 H 0.72644 0.68864 0.0507 0.0
H1859 H 0.71785 0.725 0.06621 0.0
H1860 H 0.73932 0.72258 0.03158 0.0
H1861 H 0.81611 0.68373 0.15987 0.0
H1862 H 0.77689 0.69407 0.16486 0.0
H1863 H 0.78602 0.65808 0.1489 0.0
H1864 H 0.67 0.70585 0.15256 0.0
H1865 H 0.69226 0.61913 0.11559 0.0
H1866 H 0.72269 0.7487 0.11645 0.0
H1867 H 0.74499 0.73788 0.14853 0.0
H1868 H 0.70531 0.74662 0.15331 0.0
H1869 H 0.74638 0.63879 0.06964 0.0
H1870 H 0.74071 0.6084 0.09631 0.0
H1871 H 0.7715 0.63518 0.10136 0.0
C1872 C 0.62486 0.44579 0.37035 0.0
C1873 C 0.60415 0.42549 0.38365 0.0
C1874 C 0.61571 0.47459 0.3598 0.0
C1875 C 0.58483 0.48338 0.36218 0.0
C1876 C 0.56423 0.46348 0.37723 0.0
C1877 C 0.57405 0.43474 0.38747 0.0
C1878 C 0.63963 0.49497 0.34602 0.0
C1879 C 0.53159 0.47231 0.38209 0.0
C1880 C 0.56669 0.56778 0.35109 0.0
C1881 C 0.5527 0.5683 0.32248 0.0
C1882 C 0.57682 0.54049 0.36436 0.0
C1883 C 0.57379 0.51277 0.34842 0.0
C1884 C 0.5602 0.51323 0.31922 0.0
C1885 C 0.54892 0.54071 0.3071 0.0
C1886 C 0.59067 0.54131 0.39559 0.0
C1887 C 0.55791 0.48469 0.30058 0.0
H1888 H 0.64818 0.43876 0.3673 0.0
H1889 H 0.55791 0.41903 0.39757 0.0
H1890 H 0.63032 0.5157 0.33544 0.0
H1891 H 0.65588 0.50197 0.36396 0.0
H1892 H 0.65273 0.48225 0.32885 0.0
H1893 H 0.51969 0.45646 0.39776 0.0
H1894 H 0.53033 0.49563 0.3914 0.0
H1895 H 0.51936 0.47228 0.36013 0.0
H1896 H 0.56929 0.58887 0.36343 0.0
H1897 H 0.53712 0.54057 0.28558 0.0
H1898 H 0.61509 0.53559 0.39417 0.0
H1899 H 0.57961 0.5241 0.41041 0.0
H1900 H 0.58856 0.56397 0.40631 0.0
H1901 H 0.58079 0.47465 0.29796 0.0
H1902 H 0.54819 0.48899 0.27776 0.0
H1903 H 0.5435 0.46761 0.31231 0.0
C1904 C 0.37625 0.34252 0.18946 0.0
C1905 C 0.38751 0.34997 0.16068 0.0
C1906 C 0.38422 0.315 0.20376 0.0
C1907 C 0.40358 0.29438 0.18874 0.0
C1908 C 0.41341 0.30106 0.15894 0.0
C1909 C 0.40535 0.32874 0.14537 0.0
C1910 C 0.3735 0.30886 0.23562 0.0
C1911 C 0.43386 0.27974 0.14192 0.0
C1912 C 0.45845 0.24322 0.23087 0.0
C1913 C 0.44415 0.21477 0.22877 0.0
C1914 C 0.44465 0.26951 0.21952 0.0
C1915 C 0.41607 0.26729 0.20492 0.0
C1916 C 0.40106 0.23872 0.20356 0.0
C1917 C 0.41515 0.2128 0.21587 0.0
C1918 C 0.46147 0.29941 0.22187 0.0
C1919 C 0.37107 0.23515 0.1874 0.0
H1920 H 0.36261 0.35891 0.20146 0.0
H1921 H 0.41385 0.33426 0.123 0.0
H1922 H 0.36388 0.28559 0.23753 0.0
H1923 H 0.3931 0.31025 0.25138 0.0
H1924 H 0.3561 0.32538 0.24297 0.0
H1925 H 0.43636 0.28635 0.11776 0.0
H1926 H 0.45671 0.27983 0.1525 0.0
H1927 H 0.42495 0.25614 0.1431 0.0
H1928 H 0.48098 0.24476 0.24073 0.0
H1929 H 0.40423 0.19084 0.2137 0.0
H1930 H 0.4462 0.31732 0.23049 0.0
H1931 H 0.46934 0.30662 0.1991 0.0
H1932 H 0.48157 0.29791 0.23702 0.0
H1933 H 0.35471 0.25237 0.19536 0.0
H1934 H 0.361 0.21219 0.19074 0.0
H1935 H 0.37441 0.23899 0.16278 0.0
C1936 C 0.92941 0.33433 0.83516 0.0
C1937 C 0.9447 0.33738 0.80761 0.0
C1938 C 0.91714 0.30612 0.84441 0.0
C1939 C 0.91755 0.28097 0.82438 0.0
C1940 C 0.93162 0.28452 0.79574 0.0
C1941 C 0.94575 0.31231 0.7881 0.0
C1942 C 0.90474 0.30297 0.87608 0.0
C1943 C 0.932 0.25885 0.77323 0.0
C1944 C 0.9104 0.20134 0.85839 0.0
C1945 C 0.87891 0.19708 0.85973 0.0
C1946 C 0.92332 0.22764 0.84569 0.0
C1947 C 0.90436 0.25082 0.834 0.0
C1948 C 0.87252 0.24546 0.83292 0.0
C1949 C 0.86013 0.21876 0.84599 0.0
C1950 C 0.95739 0.22998 0.84588 0.0
C1951 C 0.85151 0.26805 0.81819 0.0
H1952 H 0.92772 0.35387 0.84985 0.0
H1953 H 0.95685 0.31473 0.76636 0.0
H1954 H 0.88025 0.29714 0.87532 0.0
H1955 H 0.91648 0.28416 0.88802 0.0
H1956 H 0.90773 0.32409 0.88945 0.0
H1957 H 0.93937 0.26659 0.75042 0.0
H1958 H 0.94788 0.24106 0.78114 0.0
H1959 H 0.90913 0.24829 0.77134 0.0
H1960 H 0.92518 0.18423 0.86804 0.0
H1961 H 0.83574 0.21543 0.84645 0.0
H1962 H 0.96558 0.22895 0.86962 0.0
H1963 H 0.9662 0.2508 0.83487 0.0
H1964 H 0.96705 0.21006 0.83408 0.0
H1965 H 0.84971 0.28855 0.83252 0.0
H1966 H 0.82835 0.2585 0.8148 0.0
H1967 H 0.86069 0.27539 0.79593 0.0
C1968 C 0.07793 0.62874 0.07481 0.0
C1969 C 0.07554 0.61979 0.10527 0.0
C1970 C 0.05317 0.64203 0.05944 0.0
C1971 C 0.02538 0.64665 0.0749 0.0
C1972 C 0.02245 0.63615 0.1051 0.0
C1973 C 0.04735 0.6227 0.11973 0.0
C1974 C 0.0573 0.65262 0.02719 0.0
C1975 C 0.99351 0.6407 0.12268 0.0
C1976 C 0.97606 0.71448 0.05503 0.0
C1977 C 0.95023 0.70092 0.04192 0.0
C1978 C 1.00077 0.69721 0.06513 0.0
C1979 C 1.00053 0.66535 0.06109 0.0
C1980 C 0.97551 0.65158 0.04605 0.0
C1981 C 0.95051 0.66943 0.03695 0.0
C1982 C 0.02653 0.71307 0.08142 0.0
C1983 C 0.97484 0.61787 0.04022 0.0
H1984 H 0.09955 0.62669 0.0634 0.0
H1985 H 0.045 0.61527 0.14302 0.0
H1986 H 0.03735 0.64617 0.01319 0.0
H1987 H 0.0592 0.67775 0.02664 0.0
H1988 H 0.07806 0.64307 0.0168 0.0
H1989 H 0.99415 0.62951 0.14525 0.0
H1990 H 0.98969 0.66535 0.12597 0.0
H1991 H 0.97381 0.6316 0.10986 0.0
H1992 H 0.97694 0.73879 0.05792 0.0
H1993 H 0.93103 0.65861 0.02643 0.0
H1994 H 0.0487 0.7063 0.07188 0.0
H1995 H 0.0264 0.70625 0.10564 0.0
H1996 H 0.0248 0.73817 0.08009 0.0
H1997 H 0.99637 0.61069 0.02952 0.0
H1998 H 0.95559 0.6111 0.02538 0.0
H1999 H 0.97279 0.60541 0.062 0.0
C2000 C 0.62319 0.83733 0.34239 0.0
C2001 C 0.65044 0.83369 0.35831 0.0
C2002 C 0.60861 0.81235 0.32871 0.0
C2003 C 0.62166 0.78309 0.33109 0.0
C2004 C 0.65002 0.77973 0.34589 0.0
C2005 C 0.66397 0.80506 0.35949 0.0
C2006 C 0.57838 0.81695 0.31331 0.0
C2007 C 0.66481 0.74905 0.3489 0.0
C2008 C 0.569 0.71419 0.33127 0.0
C2009 C 0.57194 0.70325 0.30173 0.0
C2010 C 0.58467 0.7403 0.3409 0.0
C2011 C 0.60444 0.75567 0.32065 0.0
C2012 C 0.60802 0.74444 0.29089 0.0
C2013 C 0.59173 0.71838 0.28177 0.0
C2014 C 0.58014 0.75134 0.37288 0.0
C2015 C 0.62896 0.76001 0.26865 0.0
H2016 H 0.61253 0.85944 0.34197 0.0
H2017 H 0.68484 0.80227 0.37221 0.0
H2018 H 0.57837 0.80641 0.29055 0.0
H2019 H 0.56025 0.80561 0.32669 0.0
H2020 H 0.57268 0.84137 0.31088 0.0
H2021 H 0.68813 0.75072 0.35836 0.0
H2022 H 0.65099 0.73433 0.36403 0.0
H2023 H 0.66587 0.73772 0.32655 0.0
H2024 H 0.55496 0.70193 0.34718 0.0
H2025 H 0.59423 0.71007 0.25886 0.0
H2026 H 0.57182 0.77505 0.37255 0.0
H2027 H 0.60209 0.75133 0.38521 0.0
H2028 H 0.56364 0.73706 0.38565 0.0
H2029 H 0.62143 0.7837 0.26477 0.0
H2030 H 0.6297 0.74814 0.24653 0.0
H2031 H 0.6523 0.76118 0.27807 0.0
C2032 C 0.56845 0.34836 0.55642 0.0
C2033 C 0.56568 0.32451 0.53573 0.0
C2034 C 0.54258 0.36276 0.56818 0.0
C2035 C 0.51317 0.35356 0.55852 0.0
C2036 C 0.51046 0.33039 0.53646 0.0
C2037 C 0.53667 0.31574 0.52586 0.0
C2038 C 0.54667 0.38645 0.59246 0.0
C2039 C 0.47982 0.32008 0.52497 0.0
C2040 C 0.44886 0.36256 0.61524 0.0
C2041 C 0.43619 0.39066 0.60707 0.0
C2042 C 0.47351 0.35028 0.5995 0.0
C2043 C 0.48548 0.36573 0.57398 0.0
C2044 C 0.47161 0.3931 0.56426 0.0
C2045 C 0.44733 0.40539 0.58103 0.0
C2046 C 0.4874 0.32115 0.61092 0.0
C2047 C 0.48293 0.40976 0.53657 0.0
H2048 H 0.59073 0.35454 0.56487 0.0
H2049 H 0.53445 0.29687 0.5103 0.0
H2050 H 0.53414 0.40736 0.58641 0.0
H2051 H 0.5371 0.37779 0.61408 0.0
H2052 H 0.57092 0.39245 0.59618 0.0
H2053 H 0.48176 0.30611 0.50419 0.0
H2054 H 0.46832 0.3062 0.54258 0.0
H2055 H 0.46518 0.33988 0.52001 0.0
H2056 H 0.43988 0.35028 0.63459 0.0
H2057 H 0.4378 0.427 0.57429 0.0
H2058 H 0.51172 0.32499 0.61639 0.0
H2059 H 0.48627 0.30357 0.59307 0.0
H2060 H 0.47584 0.31219 0.63144 0.0
H2061 H 0.50603 0.41894 0.54094 0.0
H2062 H 0.4679 0.42887 0.53009 0.0
H2063 H 0.48462 0.39392 0.51719 0.0
C2064 C 0.15569 0.69114 0.66965 0.0
C2065 C 0.13372 0.67089 0.65838 0.0
C2066 C 0.14723 0.71751 0.68553 0.0
C2067 C 0.11609 0.7235 0.69081 0.0
C2068 C 0.09398 0.70228 0.68073 0.0
C2069 C 0.10303 0.67649 0.66446 0.0
C2070 C 0.17151 0.73967 0.69547 0.0
C2071 C 0.06057 0.70735 0.68613 0.0
C2072 C 0.09019 0.78189 0.74917 0.0
C2073 C 0.08215 0.80637 0.73057 0.0
C2074 C 0.10233 0.75513 0.73674 0.0
C2075 C 0.10633 0.7528 0.70495 0.0
C2076 C 0.09905 0.77803 0.68631 0.0
C2077 C 0.08705 0.80442 0.69935 0.0
C2078 C 0.10937 0.7288 0.75746 0.0
C2079 C 0.10263 0.7767 0.65237 0.0
H2080 H 0.17942 0.68707 0.66486 0.0
H2081 H 0.08596 0.66079 0.65604 0.0
H2082 H 0.16897 0.76131 0.68278 0.0
H2083 H 0.16896 0.74495 0.71985 0.0
H2084 H 0.19472 0.73086 0.69157 0.0
H2085 H 0.04654 0.68733 0.67968 0.0
H2086 H 0.05639 0.71255 0.71031 0.0
H2087 H 0.05289 0.72718 0.67267 0.0
H2088 H 0.08574 0.78317 0.77325 0.0
H2089 H 0.08043 0.82325 0.68495 0.0
H2090 H 0.13255 0.72023 0.75305 0.0
H2091 H 0.09326 0.70988 0.7529 0.0
H2092 H 0.10765 0.73506 0.78172 0.0
H2093 H 0.12581 0.76911 0.64644 0.0
H2094 H 0.09843 0.799 0.64136 0.0
H2095 H 0.08638 0.75988 0.64288 0.0
C2096 C 0.49734 0.80823 0.97851 0.0
C2097 C 0.46911 0.82265 0.9806 0.0
C2098 C 0.52278 0.82312 0.96619 0.0
C2099 C 0.52022 0.85346 0.95574 0.0
C2100 C 0.49212 0.86865 0.95903 0.0
C2101 C 0.46692 0.85311 0.97149 0.0
C2102 C 0.55202 0.80577 0.96305 0.0
C2103 C 0.48833 0.90092 0.94817 0.0
C2104 C 0.59527 0.89424 0.93781 0.0
C2105 C 0.5978 0.88961 0.90642 0.0
C2106 C 0.56954 0.8839 0.95403 0.0
C2107 C 0.54602 0.86794 0.93875 0.0
C2108 C 0.548 0.8641 0.90705 0.0
C2109 C 0.57329 0.87556 0.89133 0.0
C2110 C 0.56799 0.88909 0.98772 0.0
C2111 C 0.52393 0.84671 0.88977 0.0
H2112 H 0.49946 0.78486 0.98594 0.0
H2113 H 0.44525 0.86447 0.97299 0.0
H2114 H 0.55685 0.80203 0.93872 0.0
H2115 H 0.57125 0.81904 0.97257 0.0
H2116 H 0.55105 0.78332 0.97458 0.0
H2117 H 0.46614 0.91054 0.95498 0.0
H2118 H 0.50681 0.91553 0.95725 0.0
H2119 H 0.4899 0.90171 0.92312 0.0
H2120 H 0.6138 0.90496 0.94997 0.0
H2121 H 0.57409 0.87279 0.86701 0.0
H2122 H 0.57003 0.86707 0.99982 0.0
H2123 H 0.54572 0.89886 0.9939 0.0
H2124 H 0.5863 0.90455 0.99578 0.0
H2125 H 0.5228 0.82295 0.89818 0.0
H2126 H 0.52844 0.84625 0.86505 0.0
H2127 H 0.50133 0.85691 0.89351 0.0
C2128 C 0.94235 0.12638 0.43821 0.0
C2129 C 0.93022 0.13778 0.41112 0.0
C2130 C 0.9716 0.13528 0.44807 0.0
C2131 C 0.98916 0.15577 0.43026 0.0
C2132 C 0.9774 0.16577 0.4021 0.0
C2133 C 0.94815 0.1569 0.39307 0.0
C2134 C 0.98319 0.12386 0.47815 0.0
C2135 C 0.99444 0.18765 0.38212 0.0
C2136 C 0.04913 0.2053 0.46925 0.0
C2137 C 0.076 0.18972 0.46283 0.0
C2138 C 0.02083 0.1947 0.45861 0.0
C2139 C 0.01919 0.16755 0.4415 0.0
C2140 C 0.04636 0.15201 0.43466 0.0
C2141 C 0.07434 0.16312 0.44561 0.0
C2142 C 0.99269 0.2126 0.46569 0.0
C2143 C 0.04588 0.12377 0.41547 0.0
H2144 H 0.92843 0.11175 0.45236 0.0
H2145 H 0.93881 0.16581 0.37212 0.0
H2146 H 1.00587 0.11348 0.47537 0.0
H2147 H 0.98587 0.14321 0.49396 0.0
H2148 H 0.96764 0.10682 0.48853 0.0
H2149 H 0.98833 0.1845 0.35792 0.0
H2150 H 0.98773 0.21089 0.3886 0.0
H2151 H 0.01932 0.18537 0.38459 0.0
H2152 H 0.05018 0.22564 0.48296 0.0
H2153 H 0.09504 0.15099 0.44064 0.0
H2154 H 0.9759 0.1979 0.47752 0.0
H2155 H 0.98204 0.22049 0.44431 0.0
H2156 H 0.99765 0.23273 0.48 0.0
H2157 H 0.0312 0.10618 0.42612 0.0
H2158 H 0.0689 0.11425 0.4122 0.0
H2159 H 0.03601 0.1291 0.39294 0.0
loop_
_geom_bond_atom_site_label_1
_geom_bond_atom_site_label_2
_geom_bond_distance
_geom_bond_site_symmetry_2
_ccdc_geom_bond_type
Gd0 N31 2.661 . S
Gd0 N37 2.601 . S
Gd0 O44 2.545 . S
Gd0 O45 2.606 . S
Gd0 O47 2.429 . S
Gd0 O48 2.545 . S
Gd0 O49 2.412 . S
Gd0 O51 2.362 . S
Gd0 O52 2.324 . S
Gd0 C59 2.828 . S
Gd1 N10 2.661 . S
Gd1 N14 2.601 . S
Gd1 O45 2.362 . S
Gd1 O46 2.324 . S
Gd1 O50 2.545 . S
Gd1 O51 2.606 . S
Gd1 O53 2.429 . S
Gd1 O54 2.545 . S
Gd1 O55 2.412 . S
Gd1 C68 2.828 . S
C2 C5 1.417 . S
C2 C7 1.431 . S
C2 C8 1.412 . S
C3 C6 1.437 . S
C3 C7 1.317 . S
C3 H22 0.929 . S
C4 C5 1.426 . S
C4 C6 1.413 . S
C4 N14 1.359 . S
C5 C2 1.417 . S
C5 C4 1.426 . S
C5 N10 1.350 . S
C6 C3 1.437 . S
C6 C4 1.413 . S
C6 C16 1.391 . S
C7 C2 1.431 . S
C7 C3 1.317 . S
C7 H18 0.930 . S
C8 C2 1.412 . S
C8 C9 1.355 . S
C8 H20 0.930 . S
C9 C8 1.355 . S
C9 C11 1.402 . S
C9 H21 0.930 . S
N10 Gd1 2.661 . S
N10 C5 1.350 . S
N10 C11 1.307 . S
C11 C9 1.402 . S
C11 N10 1.307 . S
C11 H12 0.930 . S
H12 C11 0.930 . S
C13 N14 1.334 . S
C13 C15 1.394 . S
C13 H17 0.930 . S
N14 Gd1 2.601 . S
N14 C4 1.359 . S
N14 C13 1.334 . S
C15 C13 1.394 . S
C15 C16 1.359 . S
C15 H27 0.930 . S
C16 C6 1.391 . S
C16 C15 1.359 . S
C16 H28 0.929 . S
H17 C13 0.930 . S
H18 C7 0.930 . S
H19 C36 0.930 . S
H20 C8 0.930 . S
H21 C9 0.930 . S
H22 C3 0.929 . S
H23 C41 0.930 . S
H24 C32 0.930 . S
H25 C33 0.930 . S
H26 C57 0.929 . S
H27 C15 0.930 . S
H28 C16 0.929 . S
H29 C58 0.930 . S
H30 C39 0.930 . S
N31 Gd0 2.661 . S
N31 C35 1.350 . S
N31 C36 1.307 . S
C32 H24 0.930 . S
C32 C33 1.355 . S
C32 C34 1.412 . S
C33 H25 0.930 . S
C33 C32 1.355 . S
C33 C36 1.402 . S
C34 C32 1.412 . S
C34 C35 1.417 . S
C34 C58 1.431 . S
C35 N31 1.350 . S
C35 C34 1.417 . S
C35 C38 1.426 . S
C36 H19 0.930 . S
C36 N31 1.307 . S
C36 C33 1.402 . S
N37 Gd0 2.601 . S
N37 C38 1.359 . S
N37 C41 1.334 . S
C38 C35 1.426 . S
C38 N37 1.359 . S
C38 C42 1.413 . S
C39 H30 0.930 . S
C39 C40 1.359 1_455 S
C39 C41 1.394 . S
C40 C39 1.359 1_655 S
C40 C42 1.391 1_655 S
C40 H43 0.929 . S
C41 H23 0.930 . S
C41 N37 1.334 . S
C41 C39 1.394 . S
C42 C38 1.413 . S
C42 C40 1.391 1_455 S
C42 C57 1.437 1_455 S
H43 C40 0.929 . S
O44 Gd0 2.545 . S
O44 C59 1.258 . S
O45 Gd0 2.606 . S
O45 Gd1 2.362 . S
O45 C56 1.284 . S
O46 Gd1 2.324 . S
O46 C66 1.254 . S
O47 Gd0 2.429 . S
O47 C66 1.268 . S
O48 Gd0 2.545 . S
O48 C56 1.250 . S
O49 Gd0 2.412 . S
O49 C59 1.252 . S
O50 Gd1 2.545 . S
O50 C68 1.258 . S
O51 Gd0 2.362 . S
O51 Gd1 2.606 . S
O51 C67 1.284 . S
O52 Gd0 2.324 . S
O52 C75 1.254 . S
O53 Gd1 2.429 . S
O53 C75 1.268 . S
O54 Gd1 2.545 . S
O54 C67 1.250 . S
O55 Gd1 2.412 . S
O55 C68 1.252 . S
C56 O45 1.284 . S
C56 O48 1.250 . S
C57 H26 0.929 . S
C57 C42 1.437 1_655 S
C57 C58 1.317 1_655 S
C58 H29 0.930 . S
C58 C34 1.431 . S
C58 C57 1.317 1_455 S
C59 Gd0 2.828 . S
C59 O44 1.258 . S
C59 O49 1.252 . S
C59 C60 1.497 . S
C60 C59 1.497 . S
C60 C61 1.395 . S
C60 C62 1.380 . S
C61 C60 1.395 . S
C61 C64 1.398 . S
C61 H76 0.930 . S
C62 C60 1.380 . S
C62 C63 1.391 . S
C62 H77 0.930 . S
C63 C62 1.391 . S
C63 C65 1.387 . S
C64 C61 1.398 . S
C64 C65 1.380 . S
C64 H78 0.930 . S
C65 C63 1.387 . S
C65 C64 1.380 . S
C65 H79 0.930 . S
C66 O46 1.254 . S
C66 O47 1.268 . S
C67 O51 1.284 . S
C67 O54 1.250 . S
C68 Gd1 2.828 . S
C68 O50 1.258 . S
C68 O55 1.252 . S
C68 C69 1.497 . S
C69 C68 1.497 . S
C69 C70 1.395 . S
C69 C71 1.380 . S
C70 C69 1.395 . S
C70 C73 1.398 . S
C70 H80 0.930 . S
C71 C69 1.380 . S
C71 C72 1.391 . S
C71 H81 0.930 . S
C72 C71 1.391 . S
C72 C74 1.387 . S
C73 C70 1.398 . S
C73 C74 1.380 . S
C73 H82 0.930 . S
C74 C72 1.387 . S
C74 C73 1.380 . S
C74 H83 0.930 . S
C75 O52 1.254 . S
C75 O53 1.268 . S
H76 C61 0.930 . S
H77 C62 0.930 . S
H78 C64 0.930 . S
H79 C65 0.930 . S
H80 C70 0.930 . S
H81 C71 0.930 . S
H82 C73 0.930 . S
H83 C74 0.930 . S
Gd84 N115 2.661 . S
Gd84 N121 2.601 . S
Gd84 O128 2.545 . S
Gd84 O129 2.606 . S
Gd84 O131 2.429 1_455 S
Gd84 O132 2.545 . S
Gd84 O133 2.412 . S
Gd84 O135 2.362 . S
Gd84 O136 2.324 . S
Gd84 C143 2.828 . S
Gd85 N94 2.661 . S
Gd85 N98 2.601 . S
Gd85 O129 2.362 1_655 S
Gd85 O130 2.324 . S
Gd85 O134 2.545 . S
Gd85 O135 2.606 1_655 S
Gd85 O137 2.429 1_655 S
Gd85 O138 2.545 1_655 S
Gd85 O139 2.412 . S
Gd85 C152 2.828 . S
C86 C89 1.417 . S
C86 C91 1.431 . S
C86 C92 1.412 . S
C87 C90 1.437 . S
C87 C91 1.317 . S
C87 H106 0.929 . S
C88 C89 1.426 . S
C88 C90 1.413 . S
C88 N98 1.359 . S
C89 C86 1.417 . S
C89 C88 1.426 . S
C89 N94 1.350 . S
C90 C87 1.437 . S
C90 C88 1.413 . S
C90 C100 1.391 . S
C91 C86 1.431 . S
C91 C87 1.317 . S
C91 H102 0.930 . S
C92 C86 1.412 . S
C92 C93 1.355 . S
C92 H104 0.930 . S
C93 C92 1.355 . S
C93 C95 1.402 . S
C93 H105 0.930 . S
N94 Gd85 2.661 . S
N94 C89 1.350 . S
N94 C95 1.307 . S
C95 C93 1.402 . S
C95 N94 1.307 . S
C95 H96 0.930 . S
H96 C95 0.930 . S
C97 N98 1.334 . S
C97 C99 1.394 . S
C97 H101 0.930 1_655 S
N98 Gd85 2.601 . S
N98 C88 1.359 . S
N98 C97 1.334 . S
C99 C97 1.394 . S
C99 C100 1.359 . S
C99 H111 0.930 . S
C100 C90 1.391 . S
C100 C99 1.359 . S
C100 H112 0.929 . S
H101 C97 0.930 1_455 S
H102 C91 0.930 . S
H103 C120 0.930 . S
H104 C92 0.930 . S
H105 C93 0.930 . S
H106 C87 0.929 . S
H107 C125 0.930 . S
H108 C116 0.930 . S
H109 C117 0.930 . S
H110 C141 0.905 1_545 S
H111 C99 0.930 . S
H112 C100 0.929 . S
H113 C142 0.930 . S
H114 C123 0.930 . S
N115 Gd84 2.661 . S
N115 C119 1.350 . S
N115 C120 1.307 . S
C116 H108 0.930 . S
C116 C117 1.355 . S
C116 C118 1.412 . S
C117 H109 0.930 . S
C117 C116 1.355 . S
C117 C120 1.402 . S
C118 C116 1.412 . S
C118 C119 1.417 . S
C118 C142 1.431 . S
C119 N115 1.350 . S
C119 C118 1.417 . S
C119 C122 1.426 . S
C120 H103 0.930 . S
C120 N115 1.307 . S
C120 C117 1.402 . S
N121 Gd84 2.601 . S
N121 C122 1.359 . S
N121 C125 1.334 . S
C122 C119 1.426 . S
C122 N121 1.359 . S
C122 C126 1.413 . S
C123 H114 0.930 . S
C123 C124 1.368 . S
C123 C125 1.394 . S
C124 C123 1.368 . S
C124 C126 1.400 . S
C124 H127 0.911 1_565 S
C125 H107 0.930 . S
C125 N121 1.334 . S
C125 C123 1.394 . S
C126 C122 1.413 . S
C126 C124 1.400 . S
C126 C141 1.448 . S
H127 C124 0.911 1_545 S
O128 Gd84 2.545 . S
O128 C143 1.258 . S
O129 Gd84 2.606 . S
O129 Gd85 2.362 1_455 S
O129 C140 1.284 . S
O130 Gd85 2.324 . S
O130 C150 1.254 . S
O131 Gd84 2.429 1_655 S
O131 C150 1.268 . S
O132 Gd84 2.545 . S
O132 C140 1.250 . S
O133 Gd84 2.412 . S
O133 C143 1.252 . S
O134 Gd85 2.545 . S
O134 C152 1.258 . S
O135 Gd84 2.362 . S
O135 Gd85 2.606 1_455 S
O135 C151 1.284 . S
O136 Gd84 2.324 . S
O136 C159 1.254 . S
O137 Gd85 2.429 1_455 S
O137 C159 1.268 . S
O138 Gd85 2.545 1_455 S
O138 C151 1.250 . S
O139 Gd85 2.412 . S
O139 C152 1.252 . S
C140 O129 1.284 . S
C140 O132 1.250 . S
C141 H110 0.905 1_565 S
C141 C126 1.448 . S
C141 C142 1.330 . S
C142 H113 0.930 . S
C142 C118 1.431 . S
C142 C141 1.330 . S
C143 Gd84 2.828 . S
C143 O128 1.258 . S
C143 O133 1.252 . S
C143 C144 1.497 . S
C144 C143 1.497 . S
C144 C145 1.395 . S
C144 C146 1.380 . S
C145 C144 1.395 . S
C145 C148 1.398 . S
C145 H160 0.930 . S
C146 C144 1.380 . S
C146 C147 1.391 . S
C146 H161 0.930 . S
C147 C146 1.391 . S
C147 C149 1.387 . S
C148 C145 1.398 . S
C148 C149 1.380 . S
C148 H162 0.930 . S
C149 C147 1.387 . S
C149 C148 1.380 . S
C149 H163 0.930 . S
C150 O130 1.254 . S
C150 O131 1.268 . S
C151 O135 1.284 . S
C151 O138 1.250 . S
C152 Gd85 2.828 . S
C152 O134 1.258 . S
C152 O139 1.252 . S
C152 C153 1.497 . S
C153 C152 1.497 . S
C153 C154 1.395 . S
C153 C155 1.380 . S
C154 C153 1.395 . S
C154 C157 1.398 . S
C154 H164 0.930 . S
C155 C153 1.380 . S
C155 C156 1.391 . S
C155 H165 0.930 . S
C156 C155 1.391 . S
C156 C158 1.387 . S
C157 C154 1.398 . S
C157 C158 1.380 . S
C157 H166 0.930 . S
C158 C156 1.387 . S
C158 C157 1.380 . S
C158 H167 0.930 . S
C159 O136 1.254 . S
C159 O137 1.268 . S
H160 C145 0.930 . S
H161 C146 0.930 . S
H162 C148 0.930 . S
H163 C149 0.930 . S
H164 C154 0.930 . S
H165 C155 0.930 . S
H166 C157 0.930 . S
H167 C158 0.930 . S
Gd168 N199 2.661 1_554 S
Gd168 N205 2.601 . S
Gd168 O212 2.545 . S
Gd168 O213 2.606 . S
Gd168 O215 2.429 . S
Gd168 O216 2.545 . S
Gd168 O217 2.412 . S
Gd168 O219 2.362 1_554 S
Gd168 O220 2.324 1_554 S
Gd168 C227 2.828 . S
Gd169 N178 2.661 . S
Gd169 N182 2.601 . S
Gd169 O213 2.362 1_556 S
Gd169 O214 2.324 . S
Gd169 O218 2.545 . S
Gd169 O219 2.606 . S
Gd169 O221 2.429 . S
Gd169 O222 2.545 . S
Gd169 O223 2.412 . S
Gd169 C236 2.828 . S
C170 C173 1.417 1_554 S
C170 C175 1.431 1_554 S
C170 C176 1.412 . S
C171 C174 1.437 . S
C171 C175 1.317 . S
C171 H190 0.929 . S
C172 C173 1.426 . S
C172 C174 1.413 . S
C172 N182 1.359 . S
C173 C170 1.417 1_556 S
C173 C172 1.426 . S
C173 N178 1.350 . S
C174 C171 1.437 . S
C174 C172 1.413 . S
C174 C184 1.391 . S
C175 C170 1.431 1_556 S
C175 C171 1.317 . S
C175 H186 0.930 1_556 S
C176 C170 1.412 . S
C176 C177 1.355 . S
C176 H188 0.930 . S
C177 C176 1.355 . S
C177 C179 1.402 . S
C177 H189 0.930 . S
N178 Gd169 2.661 . S
N178 C173 1.350 . S
N178 C179 1.307 1_556 S
C179 C177 1.402 . S
C179 N178 1.307 1_554 S
C179 H180 0.930 . S
H180 C179 0.930 . S
C181 N182 1.334 . S
C181 C183 1.394 . S
C181 H185 0.930 . S
N182 Gd169 2.601 . S
N182 C172 1.359 . S
N182 C181 1.334 . S
C183 C181 1.394 . S
C183 C184 1.359 . S
C183 H195 0.930 . S
C184 C174 1.391 . S
C184 C183 1.359 . S
C184 H196 0.929 . S
H185 C181 0.930 . S
H186 C175 0.930 1_554 S
H187 C204 0.930 . S
H188 C176 0.930 . S
H189 C177 0.930 . S
H190 C171 0.929 . S
H191 C209 0.930 . S
H192 C200 0.930 . S
H193 C201 0.930 . S
H194 C225 0.929 . S
H195 C183 0.930 . S
H196 C184 0.929 . S
H197 C226 0.930 . S
H198 C207 0.930 . S
N199 Gd168 2.661 1_556 S
N199 C203 1.350 . S
N199 C204 1.307 . S
C200 H192 0.930 . S
C200 C201 1.355 . S
C200 C202 1.412 . S
C201 H193 0.930 . S
C201 C200 1.355 . S
C201 C204 1.402 . S
C202 C200 1.412 . S
C202 C203 1.417 . S
C202 C226 1.431 . S
C203 N199 1.350 . S
C203 C202 1.417 . S
C203 C206 1.426 1_556 S
C204 H187 0.930 . S
C204 N199 1.307 . S
C204 C201 1.402 . S
N205 Gd168 2.601 . S
N205 C206 1.359 . S
N205 C209 1.334 . S
C206 C203 1.426 1_554 S
C206 N205 1.359 . S
C206 C210 1.413 . S
C207 H198 0.930 . S
C207 C208 1.359 . S
C207 C209 1.394 . S
C208 C207 1.359 . S
C208 C210 1.391 . S
C208 H211 0.929 . S
C209 H191 0.930 . S
C209 N205 1.334 . S
C209 C207 1.394 . S
C210 C206 1.413 . S
C210 C208 1.391 . S
C210 C225 1.437 . S
H211 C208 0.929 . S
O212 Gd168 2.545 . S
O212 C227 1.258 . S
O213 Gd168 2.606 . S
O213 Gd169 2.362 1_554 S
O213 C224 1.284 . S
O214 Gd169 2.324 . S
O214 C234 1.254 1_556 S
O215 Gd168 2.429 . S
O215 C234 1.268 . S
O216 Gd168 2.545 . S
O216 C224 1.250 . S
O217 Gd168 2.412 . S
O217 C227 1.252 . S
O218 Gd169 2.545 . S
O218 C236 1.258 . S
O219 Gd168 2.362 1_556 S
O219 Gd169 2.606 . S
O219 C235 1.284 . S
O220 Gd168 2.324 1_556 S
O220 C243 1.254 . S
O221 Gd169 2.429 . S
O221 C243 1.268 . S
O222 Gd169 2.545 . S
O222 C235 1.250 . S
O223 Gd169 2.412 . S
O223 C236 1.252 . S
C224 O213 1.284 . S
C224 O216 1.250 . S
C225 H194 0.929 . S
C225 C210 1.437 . S
C225 C226 1.317 1_554 S
C226 H197 0.930 . S
C226 C202 1.431 . S
C226 C225 1.317 1_556 S
C227 Gd168 2.828 . S
C227 O212 1.258 . S
C227 O217 1.252 . S
C227 C228 1.497 . S
C228 C227 1.497 . S
C228 C229 1.395 . S
C228 C230 1.380 . S
C229 C228 1.395 . S
C229 C232 1.398 . S
C229 H244 0.930 . S
C230 C228 1.380 . S
C230 C231 1.391 . S
C230 H245 0.930 . S
C231 C230 1.391 . S
C231 C233 1.387 . S
C232 C229 1.398 . S
C232 C233 1.380 . S
C232 H246 0.930 . S
C233 C231 1.387 . S
C233 C232 1.380 . S
C233 H247 0.930 . S
C234 O214 1.254 1_554 S
C234 O215 1.268 . S
C235 O219 1.284 . S
C235 O222 1.250 . S
C236 Gd169 2.828 . S
C236 O218 1.258 . S
C236 O223 1.252 . S
C236 C237 1.497 . S
C237 C236 1.497 . S
C237 C238 1.395 . S
C237 C239 1.380 . S
C238 C237 1.395 . S
C238 C241 1.398 . S
C238 H248 0.930 . S
C239 C237 1.380 . S
C239 C240 1.391 . S
C239 H249 0.930 . S
C240 C239 1.391 . S
C240 C242 1.387 . S
C241 C238 1.398 . S
C241 C242 1.380 . S
C241 H250 0.930 . S
C242 C240 1.387 . S
C242 C241 1.380 . S
C242 H251 0.930 . S
C243 O220 1.254 . S
C243 O221 1.268 . S
H244 C229 0.930 . S
H245 C230 0.930 . S
H246 C232 0.930 . S
H247 C233 0.930 . S
H248 C238 0.930 . S
H249 C239 0.930 . S
H250 C241 0.930 . S
H251 C242 0.930 . S
Gd252 N283 2.661 . S
Gd252 N289 2.601 . S
Gd252 O296 2.545 . S
Gd252 O297 2.606 . S
Gd252 O299 2.429 . S
Gd252 O300 2.545 . S
Gd252 O301 2.412 . S
Gd252 O303 2.362 . S
Gd252 O304 2.324 . S
Gd252 C311 2.828 . S
Gd253 N262 2.661 . S
Gd253 N266 2.601 . S
Gd253 O297 2.362 . S
Gd253 O298 2.324 . S
Gd253 O302 2.545 . S
Gd253 O303 2.606 . S
Gd253 O305 2.429 . S
Gd253 O306 2.545 . S
Gd253 O307 2.412 . S
Gd253 C320 2.828 . S
C254 C257 1.417 . S
C254 C259 1.431 . S
C254 C260 1.412 . S
C255 C258 1.437 . S
C255 C259 1.317 . S
C255 H274 0.929 . S
C256 C257 1.426 . S
C256 C258 1.413 . S
C256 N266 1.359 . S
C257 C254 1.417 . S
C257 C256 1.426 . S
C257 N262 1.350 . S
C258 C255 1.437 . S
C258 C256 1.413 . S
C258 C268 1.391 . S
C259 C254 1.431 . S
C259 C255 1.317 . S
C259 H270 0.930 . S
C260 C254 1.412 . S
C260 C261 1.355 . S
C260 H272 0.930 . S
C261 C260 1.355 . S
C261 C263 1.402 . S
C261 H273 0.930 . S
N262 Gd253 2.661 . S
N262 C257 1.350 . S
N262 C263 1.307 . S
C263 C261 1.402 . S
C263 N262 1.307 . S
C263 H264 0.930 . S
H264 C263 0.930 . S
C265 N266 1.334 . S
C265 C267 1.394 . S
C265 H269 0.930 . S
N266 Gd253 2.601 . S
N266 C256 1.359 . S
N266 C265 1.334 . S
C267 C265 1.394 . S
C267 C268 1.359 . S
C267 H279 0.930 . S
C268 C258 1.391 . S
C268 C267 1.359 . S
C268 H280 0.929 . S
H269 C265 0.930 . S
H270 C259 0.930 . S
H271 C288 0.930 . S
H272 C260 0.930 . S
H273 C261 0.930 . S
H274 C255 0.929 . S
H275 C293 0.930 . S
H276 C284 0.930 . S
H277 C285 0.930 . S
H278 C309 0.936 . S
H279 C267 0.930 . S
H280 C268 0.929 . S
H281 C310 0.930 . S
H282 C291 0.930 . S
N283 Gd252 2.661 . S
N283 C287 1.350 . S
N283 C288 1.307 . S
C284 H276 0.930 . S
C284 C285 1.355 . S
C284 C286 1.412 . S
C285 H277 0.930 . S
C285 C284 1.355 . S
C285 C288 1.402 . S
C286 C284 1.412 . S
C286 C287 1.417 . S
C286 C310 1.431 . S
C287 N283 1.350 . S
C287 C286 1.417 . S
C287 C290 1.426 . S
C288 H271 0.930 . S
C288 N283 1.307 . S
C288 C285 1.402 . S
N289 Gd252 2.601 . S
N289 C290 1.359 . S
N289 C293 1.334 . S
C290 C287 1.426 . S
C290 N289 1.359 . S
C290 C294 1.413 . S
C291 H282 0.930 . S
C291 C292 1.351 1_545 S
C291 C293 1.394 . S
C292 C291 1.351 1_565 S
C292 C294 1.383 1_565 S
C292 H295 0.945 . S
C293 H275 0.930 . S
C293 N289 1.334 . S
C293 C291 1.394 . S
C294 C290 1.413 . S
C294 C292 1.383 1_545 S
C294 C309 1.434 1_545 S
H295 C292 0.945 . S
O296 Gd252 2.545 . S
O296 C311 1.258 . S
O297 Gd252 2.606 . S
O297 Gd253 2.362 . S
O297 C308 1.284 . S
O298 Gd253 2.324 . S
O298 C318 1.254 . S
O299 Gd252 2.429 . S
O299 C318 1.268 . S
O300 Gd252 2.545 . S
O300 C308 1.250 . S
O301 Gd252 2.412 . S
O301 C311 1.252 . S
O302 Gd253 2.545 . S
O302 C320 1.258 . S
O303 Gd252 2.362 . S
O303 Gd253 2.606 . S
O303 C319 1.284 . S
O304 Gd252 2.324 . S
O304 C327 1.254 . S
O305 Gd253 2.429 . S
O305 C327 1.268 . S
O306 Gd253 2.545 . S
O306 C319 1.250 . S
O307 Gd253 2.412 . S
O307 C320 1.252 . S
C308 O297 1.284 . S
C308 O300 1.250 . S
C309 H278 0.936 . S
C309 C294 1.434 1_565 S
C309 C310 1.314 1_565 S
C310 H281 0.930 . S
C310 C286 1.431 . S
C310 C309 1.314 1_545 S
C311 Gd252 2.828 . S
C311 O296 1.258 . S
C311 O301 1.252 . S
C311 C312 1.497 . S
C312 C311 1.497 . S
C312 C313 1.395 . S
C312 C314 1.380 . S
C313 C312 1.395 . S
C313 C316 1.398 . S
C313 H328 0.930 . S
C314 C312 1.380 . S
C314 C315 1.391 . S
C314 H329 0.930 . S
C315 C314 1.391 . S
C315 C317 1.387 . S
C316 C313 1.398 . S
C316 C317 1.380 . S
C316 H330 0.930 . S
C317 C315 1.387 . S
C317 C316 1.380 . S
C317 H331 0.930 . S
C318 O298 1.254 . S
C318 O299 1.268 . S
C319 O303 1.284 . S
C319 O306 1.250 . S
C320 Gd253 2.828 . S
C320 O302 1.258 . S
C320 O307 1.252 . S
C320 C321 1.497 . S
C321 C320 1.497 . S
C321 C322 1.395 . S
C321 C323 1.380 . S
C322 C321 1.395 . S
C322 C325 1.398 . S
C322 H332 0.930 . S
C323 C321 1.380 . S
C323 C324 1.391 . S
C323 H333 0.930 . S
C324 C323 1.391 . S
C324 C326 1.387 . S
C325 C322 1.398 . S
C325 C326 1.380 . S
C325 H334 0.930 . S
C326 C324 1.387 . S
C326 C325 1.380 . S
C326 H335 0.930 . S
C327 O304 1.254 . S
C327 O305 1.268 . S
H328 C313 0.930 . S
H329 C314 0.930 . S
H330 C316 0.930 . S
H331 C317 0.930 . S
H332 C322 0.930 . S
H333 C323 0.930 . S
H334 C325 0.930 . S
H335 C326 0.930 . S
Gd336 N367 2.661 . S
Gd336 N373 2.601 . S
Gd336 O380 2.545 . S
Gd336 O381 2.606 . S
Gd336 O383 2.429 . S
Gd336 O384 2.545 . S
Gd336 O385 2.412 . S
Gd336 O387 2.362 . S
Gd336 O388 2.324 . S
Gd336 C395 2.828 . S
Gd337 N346 2.661 . S
Gd337 N350 2.601 . S
Gd337 O381 2.362 . S
Gd337 O382 2.324 . S
Gd337 O386 2.545 . S
Gd337 O387 2.606 . S
Gd337 O389 2.429 . S
Gd337 O390 2.545 . S
Gd337 O391 2.412 . S
Gd337 C404 2.828 . S
C338 C341 1.417 . S
C338 C343 1.431 . S
C338 C344 1.412 . S
C339 C342 1.437 . S
C339 C343 1.317 . S
C339 H358 0.929 . S
C340 C341 1.426 . S
C340 C342 1.413 . S
C340 N350 1.359 . S
C341 C338 1.417 . S
C341 C340 1.426 . S
C341 N346 1.350 . S
C342 C339 1.437 . S
C342 C340 1.413 . S
C342 C352 1.391 . S
C343 C338 1.431 . S
C343 C339 1.317 . S
C343 H354 0.930 . S
C344 C338 1.412 . S
C344 C345 1.355 . S
C344 H356 0.930 . S
C345 C344 1.355 . S
C345 C347 1.402 . S
C345 H357 0.930 . S
N346 Gd337 2.661 . S
N346 C341 1.350 . S
N346 C347 1.307 . S
C347 C345 1.402 . S
C347 N346 1.307 . S
C347 H348 0.930 . S
H348 C347 0.930 . S
C349 N350 1.334 . S
C349 C351 1.394 . S
C349 H353 0.930 . S
N350 Gd337 2.601 . S
N350 C340 1.359 . S
N350 C349 1.334 . S
C351 C349 1.394 . S
C351 C352 1.359 . S
C351 H363 0.930 . S
C352 C342 1.391 . S
C352 C351 1.359 . S
C352 H364 0.929 . S
H353 C349 0.930 . S
H354 C343 0.930 . S
H355 C372 0.930 . S
H356 C344 0.930 . S
H357 C345 0.930 . S
H358 C339 0.929 . S
H359 C377 0.930 . S
H360 C368 0.930 . S
H361 C369 0.930 . S
H362 C393 0.929 . S
H363 C351 0.930 . S
H364 C352 0.929 . S
H365 C394 0.930 . S
H366 C375 0.930 . S
N367 Gd336 2.661 . S
N367 C371 1.350 . S
N367 C372 1.307 . S
C368 H360 0.930 . S
C368 C369 1.355 . S
C368 C370 1.412 . S
C369 H361 0.930 . S
C369 C368 1.355 . S
C369 C372 1.402 . S
C370 C368 1.412 . S
C370 C371 1.417 . S
C370 C394 1.431 . S
C371 N367 1.350 . S
C371 C370 1.417 . S
C371 C374 1.426 . S
C372 H355 0.930 . S
C372 N367 1.307 . S
C372 C369 1.402 . S
N373 Gd336 2.601 . S
N373 C374 1.359 . S
N373 C377 1.334 . S
C374 C371 1.426 . S
C374 N373 1.359 . S
C374 C378 1.413 . S
C375 H366 0.930 . S
C375 C376 1.359 . S
C375 C377 1.394 . S
C376 C375 1.359 . S
C376 C378 1.391 . S
C376 H379 0.929 . S
C377 H359 0.930 . S
C377 N373 1.334 . S
C377 C375 1.394 . S
C378 C374 1.413 . S
C378 C376 1.391 . S
C378 C393 1.437 . S
H379 C376 0.929 . S
O380 Gd336 2.545 . S
O380 C395 1.258 . S
O381 Gd336 2.606 . S
O381 Gd337 2.362 . S
O381 C392 1.284 . S
O382 Gd337 2.324 . S
O382 C402 1.254 . S
O383 Gd336 2.429 . S
O383 C402 1.268 . S
O384 Gd336 2.545 . S
O384 C392 1.250 . S
O385 Gd336 2.412 . S
O385 C395 1.252 . S
O386 Gd337 2.545 . S
O386 C404 1.258 . S
O387 Gd336 2.362 . S
O387 Gd337 2.606 . S
O387 C403 1.284 . S
O388 Gd336 2.324 . S
O388 C411 1.254 . S
O389 Gd337 2.429 . S
O389 C411 1.268 . S
O390 Gd337 2.545 . S
O390 C403 1.250 . S
O391 Gd337 2.412 . S
O391 C404 1.252 . S
C392 O381 1.284 . S
C392 O384 1.250 . S
C393 H362 0.929 . S
C393 C378 1.437 . S
C393 C394 1.317 . S
C394 H365 0.930 . S
C394 C370 1.431 . S
C394 C393 1.317 . S
C395 Gd336 2.828 . S
C395 O380 1.258 . S
C395 O385 1.252 . S
C395 C396 1.497 . S
C396 C395 1.497 . S
C396 C397 1.395 . S
C396 C398 1.380 . S
C397 C396 1.395 . S
C397 C400 1.398 . S
C397 H412 0.930 . S
C398 C396 1.380 . S
C398 C399 1.391 . S
C398 H413 0.930 . S
C399 C398 1.391 . S
C399 C401 1.387 . S
C400 C397 1.398 . S
C400 C401 1.380 . S
C400 H414 0.930 . S
C401 C399 1.387 . S
C401 C400 1.380 . S
C401 H415 0.930 . S
C402 O382 1.254 . S
C402 O383 1.268 . S
C403 O387 1.284 . S
C403 O390 1.250 . S
C404 Gd337 2.828 . S
C404 O386 1.258 . S
C404 O391 1.252 . S
C404 C405 1.497 . S
C405 C404 1.497 . S
C405 C406 1.395 . S
C405 C407 1.380 . S
C406 C405 1.395 . S
C406 C409 1.398 . S
C406 H416 0.930 . S
C407 C405 1.380 . S
C407 C408 1.391 . S
C407 H417 0.930 . S
C408 C407 1.391 . S
C408 C410 1.387 . S
C409 C406 1.398 . S
C409 C410 1.380 . S
C409 H418 0.930 . S
C410 C408 1.387 . S
C410 C409 1.380 . S
C410 H419 0.930 . S
C411 O388 1.254 . S
C411 O389 1.268 . S
H412 C397 0.930 . S
H413 C398 0.930 . S
H414 C400 0.930 . S
H415 C401 0.930 . S
H416 C406 0.930 . S
H417 C407 0.930 . S
H418 C409 0.930 . S
H419 C410 0.930 . S
Gd420 N451 2.661 1_455 S
Gd420 N457 2.601 . S
Gd420 O464 2.545 . S
Gd420 O465 2.606 . S
Gd420 O467 2.429 . S
Gd420 O468 2.545 . S
Gd420 O469 2.412 . S
Gd420 O471 2.362 1_455 S
Gd420 O472 2.324 1_455 S
Gd420 C479 2.828 . S
Gd421 N430 2.661 . S
Gd421 N434 2.601 . S
Gd421 O465 2.362 1_655 S
Gd421 O466 2.324 . S
Gd421 O470 2.545 . S
Gd421 O471 2.606 . S
Gd421 O473 2.429 . S
Gd421 O474 2.545 . S
Gd421 O475 2.412 . S
Gd421 C488 2.828 . S
C422 C425 1.417 1_455 S
C422 C427 1.431 1_455 S
C422 C428 1.412 . S
C423 C426 1.437 . S
C423 C427 1.317 . S
C423 H442 0.929 . S
C424 C425 1.426 . S
C424 C426 1.413 . S
C424 N434 1.359 . S
C425 C422 1.417 1_655 S
C425 C424 1.426 . S
C425 N430 1.350 . S
C426 C423 1.437 . S
C426 C424 1.413 . S
C426 C436 1.391 . S
C427 C422 1.431 1_655 S
C427 C423 1.317 . S
C427 H438 0.930 1_655 S
C428 C422 1.412 . S
C428 C429 1.355 . S
C428 H440 0.930 . S
C429 C428 1.355 . S
C429 C431 1.402 . S
C429 H441 0.930 . S
N430 Gd421 2.661 . S
N430 C425 1.350 . S
N430 C431 1.307 1_655 S
C431 C429 1.402 . S
C431 N430 1.307 1_455 S
C431 H432 0.930 . S
H432 C431 0.930 . S
C433 N434 1.334 . S
C433 C435 1.394 . S
C433 H437 0.930 . S
N434 Gd421 2.601 . S
N434 C424 1.359 . S
N434 C433 1.334 . S
C435 C433 1.394 . S
C435 C436 1.359 . S
C435 H447 0.930 . S
C436 C426 1.391 . S
C436 C435 1.359 . S
C436 H448 0.929 . S
H437 C433 0.930 . S
H438 C427 0.930 1_455 S
H439 C456 0.930 . S
H440 C428 0.930 . S
H441 C429 0.930 . S
H442 C423 0.929 . S
H443 C461 0.930 . S
H444 C452 0.930 . S
H445 C453 0.930 . S
H446 C477 0.929 . S
H447 C435 0.930 . S
H448 C436 0.929 . S
H449 C478 0.930 . S
H450 C459 0.930 . S
N451 Gd420 2.661 1_655 S
N451 C455 1.350 . S
N451 C456 1.307 . S
C452 H444 0.930 . S
C452 C453 1.355 . S
C452 C454 1.412 . S
C453 H445 0.930 . S
C453 C452 1.355 . S
C453 C456 1.402 . S
C454 C452 1.412 . S
C454 C455 1.417 . S
C454 C478 1.431 . S
C455 N451 1.350 . S
C455 C454 1.417 . S
C455 C458 1.426 1_655 S
C456 H439 0.930 . S
C456 N451 1.307 . S
C456 C453 1.402 . S
N457 Gd420 2.601 . S
N457 C458 1.359 . S
N457 C461 1.334 . S
C458 C455 1.426 1_455 S
C458 N457 1.359 . S
C458 C462 1.413 . S
C459 H450 0.930 . S
C459 C460 1.359 . S
C459 C461 1.394 . S
C460 C459 1.359 . S
C460 C462 1.391 . S
C460 H463 0.929 . S
C461 H443 0.930 . S
C461 N457 1.334 . S
C461 C459 1.394 . S
C462 C458 1.413 . S
C462 C460 1.391 . S
C462 C477 1.437 . S
H463 C460 0.929 . S
O464 Gd420 2.545 . S
O464 C479 1.258 . S
O465 Gd420 2.606 . S
O465 Gd421 2.362 1_455 S
O465 C476 1.284 . S
O466 Gd421 2.324 . S
O466 C486 1.254 1_655 S
O467 Gd420 2.429 . S
O467 C486 1.268 . S
O468 Gd420 2.545 . S
O468 C476 1.250 . S
O469 Gd420 2.412 . S
O469 C479 1.252 . S
O470 Gd421 2.545 . S
O470 C488 1.258 . S
O471 Gd420 2.362 1_655 S
O471 Gd421 2.606 . S
O471 C487 1.284 . S
O472 Gd420 2.324 1_655 S
O472 C495 1.254 . S
O473 Gd421 2.429 . S
O473 C495 1.268 . S
O474 Gd421 2.545 . S
O474 C487 1.250 . S
O475 Gd421 2.412 . S
O475 C488 1.252 . S
C476 O465 1.284 . S
C476 O468 1.250 . S
C477 H446 0.929 . S
C477 C462 1.437 . S
C477 C478 1.317 1_455 S
C478 H449 0.930 . S
C478 C454 1.431 . S
C478 C477 1.317 1_655 S
C479 Gd420 2.828 . S
C479 O464 1.258 . S
C479 O469 1.252 . S
C479 C480 1.497 . S
C480 C479 1.497 . S
C480 C481 1.395 . S
C480 C482 1.380 . S
C481 C480 1.395 . S
C481 C484 1.398 . S
C481 H496 0.930 . S
C482 C480 1.380 . S
C482 C483 1.391 . S
C482 H497 0.930 . S
C483 C482 1.391 . S
C483 C485 1.387 . S
C484 C481 1.398 . S
C484 C485 1.380 . S
C484 H498 0.930 . S
C485 C483 1.387 . S
C485 C484 1.380 . S
C485 H499 0.930 . S
C486 O466 1.254 1_455 S
C486 O467 1.268 . S
C487 O471 1.284 . S
C487 O474 1.250 . S
C488 Gd421 2.828 . S
C488 O470 1.258 . S
C488 O475 1.252 . S
C488 C489 1.497 . S
C489 C488 1.497 . S
C489 C490 1.395 . S
C489 C491 1.380 . S
C490 C489 1.395 . S
C490 C493 1.398 . S
C490 H500 0.930 . S
C491 C489 1.380 . S
C491 C492 1.391 . S
C491 H501 0.930 . S
C492 C491 1.391 . S
C492 C494 1.387 . S
C493 C490 1.398 . S
C493 C494 1.380 . S
C493 H502 0.930 . S
C494 C492 1.387 . S
C494 C493 1.380 . S
C494 H503 0.930 . S
C495 O472 1.254 . S
C495 O473 1.268 . S
H496 C481 0.930 . S
H497 C482 0.930 . S
H498 C484 0.930 . S
H499 C485 0.930 . S
H500 C490 0.930 . S
H501 C491 0.930 . S
H502 C493 0.930 . S
H503 C494 0.930 . S
Gd504 N535 2.661 1_556 S
Gd504 N541 2.601 . S
Gd504 O548 2.545 . S
Gd504 O549 2.606 . S
Gd504 O551 2.429 . S
Gd504 O552 2.545 . S
Gd504 O553 2.412 . S
Gd504 O555 2.362 1_556 S
Gd504 O556 2.324 1_556 S
Gd504 C563 2.828 . S
Gd505 N514 2.661 . S
Gd505 N518 2.601 . S
Gd505 O549 2.362 1_554 S
Gd505 O550 2.324 . S
Gd505 O554 2.545 . S
Gd505 O555 2.606 . S
Gd505 O557 2.429 . S
Gd505 O558 2.545 . S
Gd505 O559 2.412 . S
Gd505 C572 2.828 . S
C506 C509 1.422 . S
C506 C511 1.433 . S
C506 C512 1.405 1_554 S
C507 C510 1.437 1_455 S
C507 C511 1.317 1_455 S
C507 H526 0.929 . S
C508 C509 1.426 . S
C508 C510 1.413 . S
C508 N518 1.359 . S
C509 C506 1.422 . S
C509 C508 1.426 . S
C509 N514 1.350 . S
C510 C507 1.437 1_655 S
C510 C508 1.413 . S
C510 C520 1.391 1_655 S
C511 C506 1.433 . S
C511 C507 1.317 1_655 S
C511 H522 0.930 1_554 S
C512 C506 1.405 1_556 S
C512 C513 1.355 . S
C512 H524 0.930 . S
C513 C512 1.355 . S
C513 C515 1.402 . S
C513 H525 0.930 . S
N514 Gd505 2.661 . S
N514 C509 1.350 . S
N514 C515 1.307 1_554 S
C515 C513 1.402 . S
C515 N514 1.307 1_556 S
C515 H516 0.930 . S
H516 C515 0.930 . S
C517 N518 1.334 . S
C517 C519 1.394 . S
C517 H521 0.930 . S
N518 Gd505 2.601 . S
N518 C508 1.359 . S
N518 C517 1.334 . S
C519 C517 1.394 . S
C519 C520 1.359 1_655 S
C519 H531 0.930 . S
C520 C510 1.391 1_455 S
C520 C519 1.359 1_455 S
C520 H532 0.929 . S
H521 C517 0.930 . S
H522 C511 0.930 1_556 S
H523 C540 0.930 . S
H524 C512 0.930 . S
H525 C513 0.930 . S
H526 C507 0.929 . S
H527 C545 0.930 . S
H528 C536 0.930 . S
H529 C537 0.930 . S
H530 C561 0.929 . S
H531 C519 0.930 . S
H532 C520 0.929 . S
H533 C562 0.930 . S
H534 C543 0.930 . S
N535 Gd504 2.661 1_554 S
N535 C539 1.350 . S
N535 C540 1.307 . S
C536 H528 0.930 . S
C536 C537 1.355 . S
C536 C538 1.412 . S
C537 H529 0.930 . S
C537 C536 1.355 . S
C537 C540 1.402 . S
C538 C536 1.412 . S
C538 C539 1.417 . S
C538 C562 1.431 . S
C539 N535 1.350 . S
C539 C538 1.417 . S
C539 C542 1.426 1_554 S
C540 H523 0.930 . S
C540 N535 1.307 . S
C540 C537 1.402 . S
N541 Gd504 2.601 . S
N541 C542 1.359 . S
N541 C545 1.334 . S
C542 C539 1.426 1_556 S
C542 N541 1.359 . S
C542 C546 1.413 . S
C543 H534 0.930 . S
C543 C544 1.359 . S
C543 C545 1.394 . S
C544 C543 1.359 . S
C544 C546 1.391 . S
C544 H547 0.929 . S
C545 H527 0.930 . S
C545 N541 1.334 . S
C545 C543 1.394 . S
C546 C542 1.413 . S
C546 C544 1.391 . S
C546 C561 1.437 . S
H547 C544 0.929 . S
O548 Gd504 2.545 . S
O548 C563 1.258 . S
O549 Gd504 2.606 . S
O549 Gd505 2.362 1_556 S
O549 C560 1.284 . S
O550 Gd505 2.324 . S
O550 C570 1.254 1_554 S
O551 Gd504 2.429 . S
O551 C570 1.268 . S
O552 Gd504 2.545 . S
O552 C560 1.250 . S
O553 Gd504 2.412 . S
O553 C563 1.252 . S
O554 Gd505 2.545 . S
O554 C572 1.258 . S
O555 Gd504 2.362 1_554 S
O555 Gd505 2.606 . S
O555 C571 1.284 . S
O556 Gd504 2.324 1_554 S
O556 C579 1.254 . S
O557 Gd505 2.429 . S
O557 C579 1.268 . S
O558 Gd505 2.545 . S
O558 C571 1.250 . S
O559 Gd505 2.412 . S
O559 C572 1.252 . S
C560 O549 1.284 . S
C560 O552 1.250 . S
C561 H530 0.929 . S
C561 C546 1.437 . S
C561 C562 1.317 1_556 S
C562 H533 0.930 . S
C562 C538 1.431 . S
C562 C561 1.317 1_554 S
C563 Gd504 2.828 . S
C563 O548 1.258 . S
C563 O553 1.252 . S
C563 C564 1.497 . S
C564 C563 1.497 . S
C564 C565 1.395 . S
C564 C566 1.380 . S
C565 C564 1.395 . S
C565 C568 1.398 . S
C565 H580 0.930 . S
C566 C564 1.380 . S
C566 C567 1.391 . S
C566 H581 0.930 . S
C567 C566 1.391 . S
C567 C569 1.387 . S
C568 C565 1.398 . S
C568 C569 1.380 . S
C568 H582 0.930 . S
C569 C567 1.387 . S
C569 C568 1.380 . S
C569 H583 0.930 . S
C570 O550 1.254 1_556 S
C570 O551 1.268 . S
C571 O555 1.284 . S
C571 O558 1.250 . S
C572 Gd505 2.828 . S
C572 O554 1.258 . S
C572 O559 1.252 . S
C572 C573 1.497 . S
C573 C572 1.497 . S
C573 C574 1.395 . S
C573 C575 1.380 . S
C574 C573 1.395 . S
C574 C577 1.398 . S
C574 H584 0.930 . S
C575 C573 1.380 . S
C575 C576 1.391 . S
C575 H585 0.930 . S
C576 C575 1.391 . S
C576 C578 1.387 . S
C577 C574 1.398 . S
C577 C578 1.380 . S
C577 H586 0.930 . S
C578 C576 1.387 . S
C578 C577 1.380 . S
C578 H587 0.930 . S
C579 O556 1.254 . S
C579 O557 1.268 . S
H580 C565 0.930 . S
H581 C566 0.930 . S
H582 C568 0.930 . S
H583 C569 0.930 . S
H584 C574 0.930 . S
H585 C575 0.930 . S
H586 C577 0.930 . S
H587 C578 0.930 . S
Gd588 N619 2.661 . S
Gd588 N625 2.601 . S
Gd588 O632 2.545 . S
Gd588 O633 2.606 . S
Gd588 O635 2.429 . S
Gd588 O636 2.545 . S
Gd588 O637 2.412 . S
Gd588 O639 2.362 . S
Gd588 O640 2.324 . S
Gd588 C647 2.828 . S
Gd589 N598 2.661 . S
Gd589 N602 2.601 . S
Gd589 O633 2.362 . S
Gd589 O634 2.324 . S
Gd589 O638 2.545 . S
Gd589 O639 2.606 . S
Gd589 O641 2.429 . S
Gd589 O642 2.545 . S
Gd589 O643 2.412 . S
Gd589 C656 2.828 . S
C590 C593 1.417 . S
C590 C595 1.431 . S
C590 C596 1.412 . S
C591 C594 1.437 . S
C591 C595 1.317 . S
C591 H610 0.929 . S
C592 C593 1.426 . S
C592 C594 1.413 . S
C592 N602 1.359 . S
C593 C590 1.417 . S
C593 C592 1.426 . S
C593 N598 1.350 . S
C594 C591 1.437 . S
C594 C592 1.413 . S
C594 C604 1.391 . S
C595 C590 1.431 . S
C595 C591 1.317 . S
C595 H606 0.930 . S
C596 C590 1.412 . S
C596 C597 1.355 . S
C596 H608 0.930 . S
C597 C596 1.355 . S
C597 C599 1.402 . S
C597 H609 0.930 . S
N598 Gd589 2.661 . S
N598 C593 1.350 . S
N598 C599 1.307 . S
C599 C597 1.402 . S
C599 N598 1.307 . S
C599 H600 0.930 . S
H600 C599 0.930 . S
C601 N602 1.334 . S
C601 C603 1.394 . S
C601 H605 0.930 . S
N602 Gd589 2.601 . S
N602 C592 1.359 . S
N602 C601 1.334 . S
C603 C601 1.394 . S
C603 C604 1.359 . S
C603 H615 0.930 . S
C604 C594 1.391 . S
C604 C603 1.359 . S
C604 H616 0.929 . S
H605 C601 0.930 . S
H606 C595 0.930 . S
H607 C624 0.930 . S
H608 C596 0.930 . S
H609 C597 0.930 . S
H610 C591 0.929 . S
H611 C629 0.930 . S
H612 C620 0.930 . S
H613 C621 0.930 . S
H614 C645 0.929 . S
H615 C603 0.930 . S
H616 C604 0.929 . S
H617 C646 0.930 . S
H618 C627 0.930 . S
N619 Gd588 2.661 . S
N619 C623 1.350 . S
N619 C624 1.307 . S
C620 H612 0.930 . S
C620 C621 1.355 . S
C620 C622 1.412 . S
C621 H613 0.930 . S
C621 C620 1.355 . S
C621 C624 1.402 . S
C622 C620 1.412 . S
C622 C623 1.417 . S
C622 C646 1.431 . S
C623 N619 1.350 . S
C623 C622 1.417 . S
C623 C626 1.426 . S
C624 H607 0.930 . S
C624 N619 1.307 . S
C624 C621 1.402 . S
N625 Gd588 2.601 . S
N625 C626 1.359 . S
N625 C629 1.334 . S
C626 C623 1.426 . S
C626 N625 1.359 . S
C626 C630 1.413 . S
C627 H618 0.930 . S
C627 C628 1.359 . S
C627 C629 1.394 . S
C628 C627 1.359 . S
C628 C630 1.391 . S
C628 H631 0.929 . S
C629 H611 0.930 . S
C629 N625 1.334 . S
C629 C627 1.394 . S
C630 C626 1.413 . S
C630 C628 1.391 . S
C630 C645 1.437 . S
H631 C628 0.929 . S
O632 Gd588 2.545 . S
O632 C647 1.258 . S
O633 Gd588 2.606 . S
O633 Gd589 2.362 . S
O633 C644 1.284 . S
O634 Gd589 2.324 . S
O634 C654 1.254 . S
O635 Gd588 2.429 . S
O635 C654 1.268 . S
O636 Gd588 2.545 . S
O636 C644 1.250 . S
O637 Gd588 2.412 . S
O637 C647 1.252 . S
O638 Gd589 2.545 . S
O638 C656 1.258 . S
O639 Gd588 2.362 . S
O639 Gd589 2.606 . S
O639 C655 1.284 . S
O640 Gd588 2.324 . S
O640 C663 1.254 . S
O641 Gd589 2.429 . S
O641 C663 1.268 . S
O642 Gd589 2.545 . S
O642 C655 1.250 . S
O643 Gd589 2.412 . S
O643 C656 1.252 . S
C644 O633 1.284 . S
C644 O636 1.250 . S
C645 H614 0.929 . S
C645 C630 1.437 . S
C645 C646 1.317 . S
C646 H617 0.930 . S
C646 C622 1.431 . S
C646 C645 1.317 . S
C647 Gd588 2.828 . S
C647 O632 1.258 . S
C647 O637 1.252 . S
C647 C648 1.497 . S
C648 C647 1.497 . S
C648 C649 1.395 . S
C648 C650 1.380 . S
C649 C648 1.395 . S
C649 C652 1.398 . S
C649 H664 0.930 . S
C650 C648 1.380 . S
C650 C651 1.391 . S
C650 H665 0.930 . S
C651 C650 1.391 . S
C651 C653 1.387 . S
C652 C649 1.398 . S
C652 C653 1.380 . S
C652 H666 0.930 . S
C653 C651 1.387 . S
C653 C652 1.380 . S
C653 H667 0.930 . S
C654 O634 1.254 . S
C654 O635 1.268 . S
C655 O639 1.284 . S
C655 O642 1.250 . S
C656 Gd589 2.828 . S
C656 O638 1.258 . S
C656 O643 1.252 . S
C656 C657 1.497 . S
C657 C656 1.497 . S
C657 C658 1.395 . S
C657 C659 1.380 . S
C658 C657 1.395 . S
C658 C661 1.398 . S
C658 H668 0.930 . S
C659 C657 1.380 . S
C659 C660 1.391 . S
C659 H669 0.930 . S
C660 C659 1.391 . S
C660 C662 1.387 . S
C661 C658 1.398 . S
C661 C662 1.380 . S
C661 H670 0.930 . S
C662 C660 1.387 . S
C662 C661 1.380 . S
C662 H671 0.930 . S
C663 O640 1.254 . S
C663 O641 1.268 . S
H664 C649 0.930 . S
H665 C650 0.930 . S
H666 C652 0.930 . S
H667 C653 0.930 . S
H668 C658 0.930 . S
H669 C659 0.930 . S
H670 C661 0.930 . S
H671 C662 0.930 . S
Gd672 N703 2.661 . S
Gd672 N709 2.601 . S
Gd672 O716 2.545 . S
Gd672 O717 2.606 . S
Gd672 O719 2.429 . S
Gd672 O720 2.545 . S
Gd672 O721 2.412 . S
Gd672 O723 2.362 . S
Gd672 O724 2.324 . S
Gd672 C731 2.828 . S
Gd673 N682 2.661 . S
Gd673 N686 2.601 . S
Gd673 O717 2.362 . S
Gd673 O718 2.324 . S
Gd673 O722 2.545 . S
Gd673 O723 2.606 . S
Gd673 O725 2.429 . S
Gd673 O726 2.545 . S
Gd673 O727 2.412 . S
Gd673 C740 2.828 . S
C674 C677 1.417 . S
C674 C679 1.431 . S
C674 C680 1.412 . S
C675 C678 1.437 . S
C675 C679 1.317 . S
C675 H694 0.929 . S
C676 C677 1.426 . S
C676 C678 1.413 . S
C676 N686 1.359 . S
C677 C674 1.417 . S
C677 C676 1.426 . S
C677 N682 1.350 . S
C678 C675 1.437 . S
C678 C676 1.413 . S
C678 C688 1.391 . S
C679 C674 1.431 . S
C679 C675 1.317 . S
C679 H690 0.930 . S
C680 C674 1.412 . S
C680 C681 1.355 . S
C680 H692 0.930 . S
C681 C680 1.355 . S
C681 C683 1.402 . S
C681 H693 0.930 . S
N682 Gd673 2.661 . S
N682 C677 1.350 . S
N682 C683 1.307 . S
C683 C681 1.402 . S
C683 N682 1.307 . S
C683 H684 0.930 . S
H684 C683 0.930 . S
C685 N686 1.334 . S
C685 C687 1.394 . S
C685 H689 0.930 . S
N686 Gd673 2.601 . S
N686 C676 1.359 . S
N686 C685 1.334 . S
C687 C685 1.394 . S
C687 C688 1.359 . S
C687 H699 0.930 . S
C688 C678 1.391 . S
C688 C687 1.359 . S
C688 H700 0.929 . S
H689 C685 0.930 . S
H690 C679 0.930 . S
H691 C708 0.930 . S
H692 C680 0.930 . S
H693 C681 0.930 . S
H694 C675 0.929 . S
H695 C713 0.930 . S
H696 C704 0.930 . S
H697 C705 0.930 . S
H698 C729 0.938 . S
H699 C687 0.930 . S
H700 C688 0.929 . S
H701 C730 0.930 . S
H702 C711 0.930 . S
N703 Gd672 2.661 . S
N703 C707 1.350 . S
N703 C708 1.307 . S
C704 H696 0.930 . S
C704 C705 1.355 . S
C704 C706 1.412 . S
C705 H697 0.930 . S
C705 C704 1.355 . S
C705 C708 1.402 . S
C706 C704 1.412 . S
C706 C707 1.417 . S
C706 C730 1.431 . S
C707 N703 1.350 . S
C707 C706 1.417 . S
C707 C710 1.426 . S
C708 H691 0.930 . S
C708 N703 1.307 . S
C708 C705 1.402 . S
N709 Gd672 2.601 . S
N709 C710 1.359 . S
N709 C713 1.334 . S
C710 C707 1.426 . S
C710 N709 1.359 . S
C710 C714 1.413 . S
C711 H702 0.930 . S
C711 C712 1.350 1_554 S
C711 C713 1.394 . S
C712 C711 1.350 1_556 S
C712 C714 1.383 1_556 S
C712 H715 0.946 . S
C713 H695 0.930 . S
C713 N709 1.334 . S
C713 C711 1.394 . S
C714 C710 1.413 . S
C714 C712 1.383 1_554 S
C714 C729 1.433 1_554 S
H715 C712 0.946 . S
O716 Gd672 2.545 . S
O716 C731 1.258 . S
O717 Gd672 2.606 . S
O717 Gd673 2.362 . S
O717 C728 1.284 . S
O718 Gd673 2.324 . S
O718 C738 1.254 . S
O719 Gd672 2.429 . S
O719 C738 1.268 . S
O720 Gd672 2.545 . S
O720 C728 1.250 . S
O721 Gd672 2.412 . S
O721 C731 1.252 . S
O722 Gd673 2.545 . S
O722 C740 1.258 . S
O723 Gd672 2.362 . S
O723 Gd673 2.606 . S
O723 C739 1.284 . S
O724 Gd672 2.324 . S
O724 C747 1.254 . S
O725 Gd673 2.429 . S
O725 C747 1.268 . S
O726 Gd673 2.545 . S
O726 C739 1.250 . S
O727 Gd673 2.412 . S
O727 C740 1.252 . S
C728 O717 1.284 . S
C728 O720 1.250 . S
C729 H698 0.938 . S
C729 C714 1.433 1_556 S
C729 C730 1.313 1_556 S
C730 H701 0.930 . S
C730 C706 1.431 . S
C730 C729 1.313 1_554 S
C731 Gd672 2.828 . S
C731 O716 1.258 . S
C731 O721 1.252 . S
C731 C732 1.497 . S
C732 C731 1.497 . S
C732 C733 1.395 . S
C732 C734 1.380 . S
C733 C732 1.395 . S
C733 C736 1.398 . S
C733 H748 0.930 . S
C734 C732 1.380 . S
C734 C735 1.391 . S
C734 H749 0.930 . S
C735 C734 1.391 . S
C735 C737 1.387 . S
C736 C733 1.398 . S
C736 C737 1.380 . S
C736 H750 0.930 . S
C737 C735 1.387 . S
C737 C736 1.380 . S
C737 H751 0.930 . S
C738 O718 1.254 . S
C738 O719 1.268 . S
C739 O723 1.284 . S
C739 O726 1.250 . S
C740 Gd673 2.828 . S
C740 O722 1.258 . S
C740 O727 1.252 . S
C740 C741 1.497 . S
C741 C740 1.497 . S
C741 C742 1.395 . S
C741 C743 1.380 . S
C742 C741 1.395 . S
C742 C745 1.398 . S
C742 H752 0.930 . S
C743 C741 1.380 . S
C743 C744 1.391 . S
C743 H753 0.930 . S
C744 C743 1.391 . S
C744 C746 1.387 . S
C745 C742 1.398 . S
C745 C746 1.380 . S
C745 H754 0.930 . S
C746 C744 1.387 . S
C746 C745 1.380 . S
C746 H755 0.930 . S
C747 O724 1.254 . S
C747 O725 1.268 . S
H748 C733 0.930 . S
H749 C734 0.930 . S
H750 C736 0.930 . S
H751 C737 0.930 . S
H752 C742 0.930 . S
H753 C743 0.930 . S
H754 C745 0.930 . S
H755 C746 0.930 . S
Gd756 N787 2.661 1_565 S
Gd756 N793 2.601 . S
Gd756 O800 2.545 . S
Gd756 O801 2.606 . S
Gd756 O803 2.429 . S
Gd756 O804 2.545 . S
Gd756 O805 2.412 . S
Gd756 O807 2.362 1_565 S
Gd756 O808 2.324 1_565 S
Gd756 C815 2.828 . S
Gd757 N766 2.661 . S
Gd757 N770 2.601 . S
Gd757 O801 2.362 1_545 S
Gd757 O802 2.324 . S
Gd757 O806 2.545 . S
Gd757 O807 2.606 . S
Gd757 O809 2.429 . S
Gd757 O810 2.545 . S
Gd757 O811 2.412 . S
Gd757 C824 2.828 . S
C758 C761 1.417 . S
C758 C763 1.431 . S
C758 C764 1.412 1_545 S
C759 C762 1.435 1_554 S
C759 C763 1.315 1_554 S
C759 H778 0.933 . S
C760 C761 1.426 . S
C760 C762 1.413 . S
C760 N770 1.359 . S
C761 C758 1.417 . S
C761 C760 1.426 . S
C761 N766 1.350 . S
C762 C759 1.435 1_556 S
C762 C760 1.413 . S
C762 C772 1.383 1_556 S
C763 C758 1.431 . S
C763 C759 1.315 1_556 S
C763 H774 0.942 . S
C764 C758 1.412 1_565 S
C764 C765 1.355 . S
C764 H776 0.930 . S
C765 C764 1.355 . S
C765 C767 1.402 . S
C765 H777 0.930 . S
N766 Gd757 2.661 . S
N766 C761 1.350 . S
N766 C767 1.307 1_545 S
C767 C765 1.402 . S
C767 N766 1.307 1_565 S
C767 H768 0.930 . S
H768 C767 0.930 . S
C769 N770 1.334 . S
C769 C771 1.394 . S
C769 H773 0.930 . S
N770 Gd757 2.601 . S
N770 C760 1.359 . S
N770 C769 1.334 . S
C771 C769 1.394 . S
C771 C772 1.351 1_556 S
C771 H783 0.930 . S
C772 C762 1.383 1_554 S
C772 C771 1.351 1_554 S
C772 H784 0.945 . S
H773 C769 0.930 . S
H774 C763 0.942 . S
H775 C792 0.930 . S
H776 C764 0.930 . S
H777 C765 0.930 . S
H778 C759 0.933 . S
H779 C797 0.930 . S
H780 C788 0.930 . S
H781 C789 0.930 . S
H782 C813 0.929 . S
H783 C771 0.930 . S
H784 C772 0.945 . S
H785 C814 0.930 . S
H786 C795 0.930 . S
N787 Gd756 2.661 1_545 S
N787 C791 1.350 . S
N787 C792 1.307 . S
C788 H780 0.930 . S
C788 C789 1.355 . S
C788 C790 1.412 . S
C789 H781 0.930 . S
C789 C788 1.355 . S
C789 C792 1.402 . S
C790 C788 1.412 . S
C790 C791 1.417 . S
C790 C814 1.431 . S
C791 N787 1.350 . S
C791 C790 1.417 . S
C791 C794 1.426 1_545 S
C792 H775 0.930 . S
C792 N787 1.307 . S
C792 C789 1.402 . S
N793 Gd756 2.601 . S
N793 C794 1.359 . S
N793 C797 1.334 . S
C794 C791 1.426 1_565 S
C794 N793 1.359 . S
C794 C798 1.413 . S
C795 H786 0.930 . S
C795 C796 1.359 . S
C795 C797 1.394 . S
C796 C795 1.359 . S
C796 C798 1.391 . S
C796 H799 0.929 . S
C797 H779 0.930 . S
C797 N793 1.334 . S
C797 C795 1.394 . S
C798 C794 1.413 . S
C798 C796 1.391 . S
C798 C813 1.437 . S
H799 C796 0.929 . S
O800 Gd756 2.545 . S
O800 C815 1.258 . S
O801 Gd756 2.606 . S
O801 Gd757 2.362 1_565 S
O801 C812 1.284 . S
O802 Gd757 2.324 . S
O802 C822 1.254 1_545 S
O803 Gd756 2.429 . S
O803 C822 1.268 . S
O804 Gd756 2.545 . S
O804 C812 1.250 . S
O805 Gd756 2.412 . S
O805 C815 1.252 . S
O806 Gd757 2.545 . S
O806 C824 1.258 . S
O807 Gd756 2.362 1_545 S
O807 Gd757 2.606 . S
O807 C823 1.284 . S
O808 Gd756 2.324 1_545 S
O808 C831 1.254 . S
O809 Gd757 2.429 . S
O809 C831 1.268 . S
O810 Gd757 2.545 . S
O810 C823 1.250 . S
O811 Gd757 2.412 . S
O811 C824 1.252 . S
C812 O801 1.284 . S
C812 O804 1.250 . S
C813 H782 0.929 . S
C813 C798 1.437 . S
C813 C814 1.317 1_565 S
C814 H785 0.930 . S
C814 C790 1.431 . S
C814 C813 1.317 1_545 S
C815 Gd756 2.828 . S
C815 O800 1.258 . S
C815 O805 1.252 . S
C815 C816 1.497 . S
C816 C815 1.497 . S
C816 C817 1.395 . S
C816 C818 1.380 . S
C817 C816 1.395 . S
C817 C820 1.398 . S
C817 H832 0.930 . S
C818 C816 1.380 . S
C818 C819 1.391 . S
C818 H833 0.930 . S
C819 C818 1.391 . S
C819 C821 1.387 . S
C820 C817 1.398 . S
C820 C821 1.380 . S
C820 H834 0.930 . S
C821 C819 1.387 . S
C821 C820 1.380 . S
C821 H835 0.930 . S
C822 O802 1.254 1_565 S
C822 O803 1.268 . S
C823 O807 1.284 . S
C823 O810 1.250 . S
C824 Gd757 2.828 . S
C824 O806 1.258 . S
C824 O811 1.252 . S
C824 C825 1.497 . S
C825 C824 1.497 . S
C825 C826 1.395 . S
C825 C827 1.380 . S
C826 C825 1.395 . S
C826 C829 1.398 . S
C826 H836 0.930 . S
C827 C825 1.380 . S
C827 C828 1.391 . S
C827 H837 0.930 . S
C828 C827 1.391 . S
C828 C830 1.387 . S
C829 C826 1.398 . S
C829 C830 1.380 . S
C829 H838 0.930 . S
C830 C828 1.387 . S
C830 C829 1.380 . S
C830 H839 0.930 . S
C831 O808 1.254 . S
C831 O809 1.268 . S
H832 C817 0.930 . S
H833 C818 0.930 . S
H834 C820 0.930 . S
H835 C821 0.930 . S
H836 C826 0.930 . S
H837 C827 0.930 . S
H838 C829 0.930 . S
H839 C830 0.930 . S
Gd840 N871 2.661 1_545 S
Gd840 N877 2.601 . S
Gd840 O884 2.545 . S
Gd840 O885 2.606 . S
Gd840 O887 2.429 . S
Gd840 O888 2.545 . S
Gd840 O889 2.412 . S
Gd840 O891 2.362 1_545 S
Gd840 O892 2.324 1_545 S
Gd840 C899 2.828 . S
Gd841 N850 2.661 . S
Gd841 N854 2.601 . S
Gd841 O885 2.362 1_565 S
Gd841 O886 2.324 . S
Gd841 O890 2.545 . S
Gd841 O891 2.606 . S
Gd841 O893 2.429 . S
Gd841 O894 2.545 . S
Gd841 O895 2.412 . S
Gd841 C908 2.828 . S
C842 C845 1.417 . S
C842 C847 1.431 . S
C842 C848 1.412 1_565 S
C843 C846 1.437 . S
C843 C847 1.317 . S
C843 H862 0.929 . S
C844 C845 1.426 . S
C844 C846 1.413 . S
C844 N854 1.359 . S
C845 C842 1.417 . S
C845 C844 1.426 . S
C845 N850 1.350 . S
C846 C843 1.437 . S
C846 C844 1.413 . S
C846 C856 1.391 . S
C847 C842 1.431 . S
C847 C843 1.317 . S
C847 H858 0.920 1_565 S
C848 C842 1.412 1_545 S
C848 C849 1.355 . S
C848 H860 0.930 . S
C849 C848 1.355 . S
C849 C851 1.402 . S
C849 H861 0.930 . S
N850 Gd841 2.661 . S
N850 C845 1.350 . S
N850 C851 1.307 1_565 S
C851 C849 1.402 . S
C851 N850 1.307 1_545 S
C851 H852 0.930 . S
H852 C851 0.930 . S
C853 N854 1.334 . S
C853 C855 1.394 . S
C853 H857 0.930 . S
N854 Gd841 2.601 . S
N854 C844 1.359 . S
N854 C853 1.334 . S
C855 C853 1.394 . S
C855 C856 1.359 . S
C855 H867 0.930 . S
C856 C846 1.391 . S
C856 C855 1.359 . S
C856 H868 0.929 . S
H857 C853 0.930 . S
H858 C847 0.920 1_545 S
H859 C876 0.930 . S
H860 C848 0.930 . S
H861 C849 0.930 . S
H862 C843 0.929 . S
H863 C881 0.930 . S
H864 C872 0.930 . S
H865 C873 0.930 . S
H866 C897 0.929 . S
H867 C855 0.930 . S
H868 C856 0.929 . S
H869 C898 0.930 . S
H870 C879 0.930 . S
N871 Gd840 2.661 1_565 S
N871 C875 1.350 . S
N871 C876 1.307 . S
C872 H864 0.930 . S
C872 C873 1.355 . S
C872 C874 1.412 . S
C873 H865 0.930 . S
C873 C872 1.355 . S
C873 C876 1.402 . S
C874 C872 1.412 . S
C874 C875 1.417 . S
C874 C898 1.431 . S
C875 N871 1.350 . S
C875 C874 1.417 . S
C875 C878 1.426 1_565 S
C876 H859 0.930 . S
C876 N871 1.307 . S
C876 C873 1.402 . S
N877 Gd840 2.601 . S
N877 C878 1.359 . S
N877 C881 1.334 . S
C878 C875 1.426 1_545 S
C878 N877 1.359 . S
C878 C882 1.413 . S
C879 H870 0.930 . S
C879 C880 1.359 . S
C879 C881 1.394 . S
C880 C879 1.359 . S
C880 C882 1.391 . S
C880 H883 0.929 . S
C881 H863 0.930 . S
C881 N877 1.334 . S
C881 C879 1.394 . S
C882 C878 1.413 . S
C882 C880 1.391 . S
C882 C897 1.437 . S
H883 C880 0.929 . S
O884 Gd840 2.545 . S
O884 C899 1.258 . S
O885 Gd840 2.606 . S
O885 Gd841 2.362 1_545 S
O885 C896 1.284 . S
O886 Gd841 2.324 . S
O886 C906 1.254 1_565 S
O887 Gd840 2.429 . S
O887 C906 1.268 . S
O888 Gd840 2.545 . S
O888 C896 1.250 . S
O889 Gd840 2.412 . S
O889 C899 1.252 . S
O890 Gd841 2.545 . S
O890 C908 1.258 . S
O891 Gd840 2.362 1_565 S
O891 Gd841 2.606 . S
O891 C907 1.284 . S
O892 Gd840 2.324 1_565 S
O892 C915 1.254 . S
O893 Gd841 2.429 . S
O893 C915 1.268 . S
O894 Gd841 2.545 . S
O894 C907 1.250 . S
O895 Gd841 2.412 . S
O895 C908 1.252 . S
C896 O885 1.284 . S
C896 O888 1.250 . S
C897 H866 0.929 . S
C897 C882 1.437 . S
C897 C898 1.317 1_545 S
C898 H869 0.930 . S
C898 C874 1.431 . S
C898 C897 1.317 1_565 S
C899 Gd840 2.828 . S
C899 O884 1.258 . S
C899 O889 1.252 . S
C899 C900 1.497 . S
C900 C899 1.497 . S
C900 C901 1.395 . S
C900 C902 1.380 . S
C901 C900 1.395 . S
C901 C904 1.398 . S
C901 H916 0.930 . S
C902 C900 1.380 . S
C902 C903 1.391 . S
C902 H917 0.930 . S
C903 C902 1.391 . S
C903 C905 1.387 . S
C904 C901 1.398 . S
C904 C905 1.380 . S
C904 H918 0.930 . S
C905 C903 1.387 . S
C905 C904 1.380 . S
C905 H919 0.930 . S
C906 O886 1.254 1_545 S
C906 O887 1.268 . S
C907 O891 1.284 . S
C907 O894 1.250 . S
C908 Gd841 2.828 . S
C908 O890 1.258 . S
C908 O895 1.252 . S
C908 C909 1.497 . S
C909 C908 1.497 . S
C909 C910 1.395 . S
C909 C911 1.380 . S
C910 C909 1.395 . S
C910 C913 1.398 . S
C910 H920 0.930 . S
C911 C909 1.380 . S
C911 C912 1.391 . S
C911 H921 0.930 . S
C912 C911 1.391 . S
C912 C914 1.387 . S
C913 C910 1.398 . S
C913 C914 1.380 . S
C913 H922 0.930 . S
C914 C912 1.387 . S
C914 C913 1.380 . S
C914 H923 0.930 . S
C915 O892 1.254 . S
C915 O893 1.268 . S
H916 C901 0.930 . S
H917 C902 0.930 . S
H918 C904 0.930 . S
H919 C905 0.930 . S
H920 C910 0.930 . S
H921 C911 0.930 . S
H922 C913 0.930 . S
H923 C914 0.930 . S
Gd924 N955 2.661 . S
Gd924 N961 2.601 . S
Gd924 O968 2.545 . S
Gd924 O969 2.606 . S
Gd924 O971 2.429 . S
Gd924 O972 2.545 . S
Gd924 O973 2.412 . S
Gd924 O975 2.362 . S
Gd924 O976 2.324 . S
Gd924 C983 2.828 . S
Gd925 N934 2.661 . S
Gd925 N938 2.601 . S
Gd925 O969 2.362 . S
Gd925 O970 2.324 . S
Gd925 O974 2.545 . S
Gd925 O975 2.606 . S
Gd925 O977 2.429 . S
Gd925 O978 2.545 . S
Gd925 O979 2.412 . S
Gd925 C992 2.828 . S
C926 C929 1.417 . S
C926 C931 1.431 . S
C926 C932 1.412 . S
C927 C930 1.437 . S
C927 C931 1.317 . S
C927 H946 0.929 . S
C928 C929 1.426 . S
C928 C930 1.413 . S
C928 N938 1.359 . S
C929 C926 1.417 . S
C929 C928 1.426 . S
C929 N934 1.350 . S
C930 C927 1.437 . S
C930 C928 1.413 . S
C930 C940 1.391 . S
C931 C926 1.431 . S
C931 C927 1.317 . S
C931 H942 0.930 . S
C932 C926 1.412 . S
C932 C933 1.355 . S
C932 H944 0.930 . S
C933 C932 1.355 . S
C933 C935 1.402 . S
C933 H945 0.930 . S
N934 Gd925 2.661 . S
N934 C929 1.350 . S
N934 C935 1.307 . S
C935 C933 1.402 . S
C935 N934 1.307 . S
C935 H936 0.930 . S
H936 C935 0.930 . S
C937 N938 1.334 . S
C937 C939 1.394 . S
C937 H941 0.930 . S
N938 Gd925 2.601 . S
N938 C928 1.359 . S
N938 C937 1.334 . S
C939 C937 1.394 . S
C939 C940 1.359 . S
C939 H951 0.930 . S
C940 C930 1.391 . S
C940 C939 1.359 . S
C940 H952 0.929 . S
H941 C937 0.930 . S
H942 C931 0.930 . S
H943 C960 0.930 . S
H944 C932 0.930 . S
H945 C933 0.930 . S
H946 C927 0.929 . S
H947 C965 0.930 . S
H948 C956 0.930 . S
H949 C957 0.930 . S
H950 C981 0.929 . S
H951 C939 0.930 . S
H952 C940 0.929 . S
H953 C982 0.930 . S
H954 C963 0.930 . S
N955 Gd924 2.661 . S
N955 C959 1.350 . S
N955 C960 1.307 . S
C956 H948 0.930 . S
C956 C957 1.355 . S
C956 C958 1.412 . S
C957 H949 0.930 . S
C957 C956 1.355 . S
C957 C960 1.402 . S
C958 C956 1.412 . S
C958 C959 1.417 . S
C958 C982 1.431 . S
C959 N955 1.350 . S
C959 C958 1.417 . S
C959 C962 1.426 . S
C960 H943 0.930 . S
C960 N955 1.307 . S
C960 C957 1.402 . S
N961 Gd924 2.601 . S
N961 C962 1.359 . S
N961 C965 1.334 . S
C962 C959 1.426 . S
C962 N961 1.359 . S
C962 C966 1.413 . S
C963 H954 0.930 . S
C963 C964 1.359 . S
C963 C965 1.394 . S
C964 C963 1.359 . S
C964 C966 1.391 . S
C964 H967 0.929 . S
C965 H947 0.930 . S
C965 N961 1.334 . S
C965 C963 1.394 . S
C966 C962 1.413 . S
C966 C964 1.391 . S
C966 C981 1.437 . S
H967 C964 0.929 . S
O968 Gd924 2.545 . S
O968 C983 1.258 . S
O969 Gd924 2.606 . S
O969 Gd925 2.362 . S
O969 C980 1.284 . S
O970 Gd925 2.324 . S
O970 C990 1.254 . S
O971 Gd924 2.429 . S
O971 C990 1.268 . S
O972 Gd924 2.545 . S
O972 C980 1.250 . S
O973 Gd924 2.412 . S
O973 C983 1.252 . S
O974 Gd925 2.545 . S
O974 C992 1.258 . S
O975 Gd924 2.362 . S
O975 Gd925 2.606 . S
O975 C991 1.284 . S
O976 Gd924 2.324 . S
O976 C999 1.254 . S
O977 Gd925 2.429 . S
O977 C999 1.268 . S
O978 Gd925 2.545 . S
O978 C991 1.250 . S
O979 Gd925 2.412 . S
O979 C992 1.252 . S
C980 O969 1.284 . S
C980 O972 1.250 . S
C981 H950 0.929 . S
C981 C966 1.437 . S
C981 C982 1.317 . S
C982 H953 0.930 . S
C982 C958 1.431 . S
C982 C981 1.317 . S
C983 Gd924 2.828 . S
C983 O968 1.258 . S
C983 O973 1.252 . S
C983 C984 1.497 . S
C984 C983 1.497 . S
C984 C985 1.395 . S
C984 C986 1.380 . S
C985 C984 1.395 . S
C985 C988 1.398 . S
C985 H1000 0.930 . S
C986 C984 1.380 . S
C986 C987 1.391 . S
C986 H1001 0.930 . S
C987 C986 1.391 . S
C987 C989 1.387 . S
C988 C985 1.398 . S
C988 C989 1.380 . S
C988 H1002 0.930 . S
C989 C987 1.387 . S
C989 C988 1.380 . S
C989 H1003 0.930 . S
C990 O970 1.254 . S
C990 O971 1.268 . S
C991 O975 1.284 . S
C991 O978 1.250 . S
C992 Gd925 2.828 . S
C992 O974 1.258 . S
C992 O979 1.252 . S
C992 C993 1.497 . S
C993 C992 1.497 . S
C993 C994 1.395 . S
C993 C995 1.380 . S
C994 C993 1.395 . S
C994 C997 1.398 . S
C994 H1004 0.930 . S
C995 C993 1.380 . S
C995 C996 1.391 . S
C995 H1005 0.930 . S
C996 C995 1.391 . S
C996 C998 1.387 . S
C997 C994 1.398 . S
C997 C998 1.380 . S
C997 H1006 0.930 . S
C998 C996 1.387 . S
C998 C997 1.380 . S
C998 H1007 0.930 . S
C999 O976 1.254 . S
C999 O977 1.268 . S
H1000 C985 0.930 . S
H1001 C986 0.930 . S
H1002 C988 0.930 . S
H1003 C989 0.930 . S
H1004 C994 0.930 . S
H1005 C995 0.930 . S
H1006 C997 0.930 . S
H1007 C998 0.930 . S
C1008 C1009 1.391 . S
C1008 C1010 1.394 . S
C1008 H1024 0.931 . S
C1009 C1008 1.391 . S
C1009 C1013 1.376 . S
C1010 C1008 1.394 . S
C1010 C1011 1.369 . S
C1010 C1014 1.531 . S
C1011 C1010 1.369 . S
C1011 C1012 1.410 . S
C1011 C1019 1.503 . S
C1012 C1011 1.410 . S
C1012 C1013 1.392 . S
C1012 C1015 1.511 . S
C1013 C1009 1.376 . S
C1013 C1012 1.392 . S
C1013 H1025 0.929 . S
C1014 C1010 1.531 . S
C1014 H1026 0.960 . S
C1014 H1027 0.962 . S
C1014 H1028 0.960 . S
C1015 C1012 1.511 . S
C1015 H1029 0.961 . S
C1015 H1030 0.961 . S
C1015 H1031 0.961 . S
C1016 C1017 1.370 . S
C1016 C1018 1.363 . S
C1016 H1032 0.931 . S
C1017 C1016 1.370 . S
C1017 C1021 1.408 . S
C1018 C1016 1.363 . S
C1018 C1019 1.370 . S
C1018 C1022 1.524 . S
C1019 C1011 1.503 . S
C1019 C1018 1.370 . S
C1019 C1020 1.403 . S
C1020 C1019 1.403 . S
C1020 C1021 1.404 . S
C1020 C1023 1.539 . S
C1021 C1017 1.408 . S
C1021 C1020 1.404 . S
C1021 H1033 0.930 . S
C1022 C1018 1.524 . S
C1022 H1034 0.956 . S
C1022 H1035 0.961 . S
C1022 H1036 0.961 . S
C1023 C1020 1.539 . S
C1023 H1037 0.958 . S
C1023 H1038 0.961 . S
C1023 H1039 0.960 . S
H1024 C1008 0.931 . S
H1025 C1013 0.929 . S
H1026 C1014 0.960 . S
H1027 C1014 0.962 . S
H1028 C1014 0.960 . S
H1029 C1015 0.961 . S
H1030 C1015 0.961 . S
H1031 C1015 0.961 . S
H1032 C1016 0.931 . S
H1033 C1021 0.930 . S
H1034 C1022 0.956 . S
H1035 C1022 0.961 . S
H1036 C1022 0.961 . S
H1037 C1023 0.958 . S
H1038 C1023 0.961 . S
H1039 C1023 0.960 . S
C1040 C1041 1.391 1_545 S
C1040 C1042 1.394 1_545 S
C1040 H1056 0.931 . S
C1041 C1040 1.391 1_565 S
C1041 C1045 1.376 . S
C1042 C1040 1.394 1_565 S
C1042 C1043 1.369 . S
C1042 C1046 1.531 1_565 S
C1043 C1042 1.369 . S
C1043 C1044 1.410 . S
C1043 C1051 1.503 . S
C1044 C1043 1.410 . S
C1044 C1045 1.392 . S
C1044 C1047 1.511 . S
C1045 C1041 1.376 . S
C1045 C1044 1.392 . S
C1045 H1057 0.929 . S
C1046 C1042 1.531 1_545 S
C1046 H1058 0.960 . S
C1046 H1059 0.962 . S
C1046 H1060 0.960 . S
C1047 C1044 1.511 . S
C1047 H1061 0.961 . S
C1047 H1062 0.961 . S
C1047 H1063 0.961 . S
C1048 C1049 1.370 . S
C1048 C1050 1.363 . S
C1048 H1064 0.931 . S
C1049 C1048 1.370 . S
C1049 C1053 1.408 . S
C1050 C1048 1.363 . S
C1050 C1051 1.370 . S
C1050 C1054 1.524 . S
C1051 C1043 1.503 . S
C1051 C1050 1.370 . S
C1051 C1052 1.403 . S
C1052 C1051 1.403 . S
C1052 C1053 1.404 . S
C1052 C1055 1.539 . S
C1053 C1049 1.408 . S
C1053 C1052 1.404 . S
C1053 H1065 0.930 . S
C1054 C1050 1.524 . S
C1054 H1066 0.956 . S
C1054 H1067 0.961 . S
C1054 H1068 0.961 . S
C1055 C1052 1.539 . S
C1055 H1069 0.958 . S
C1055 H1070 0.961 . S
C1055 H1071 0.960 . S
H1056 C1040 0.931 . S
H1057 C1045 0.929 . S
H1058 C1046 0.960 . S
H1059 C1046 0.962 . S
H1060 C1046 0.960 . S
H1061 C1047 0.961 . S
H1062 C1047 0.961 . S
H1063 C1047 0.961 . S
H1064 C1048 0.931 . S
H1065 C1053 0.930 . S
H1066 C1054 0.956 . S
H1067 C1054 0.961 . S
H1068 C1054 0.961 . S
H1069 C1055 0.958 . S
H1070 C1055 0.961 . S
H1071 C1055 0.960 . S
C1072 C1073 1.405 . S
C1072 C1074 1.404 . S
C1072 H1088 0.909 1_554 S
C1073 C1072 1.405 . S
C1073 C1077 1.376 . S
C1074 C1072 1.404 . S
C1074 C1075 1.369 . S
C1074 C1078 1.531 1_554 S
C1075 C1074 1.369 . S
C1075 C1076 1.410 . S
C1075 C1083 1.503 . S
C1076 C1075 1.410 . S
C1076 C1077 1.392 . S
C1076 C1079 1.511 . S
C1077 C1073 1.376 . S
C1077 C1076 1.392 . S
C1077 H1089 0.929 . S
C1078 C1074 1.531 1_556 S
C1078 H1090 0.960 . S
C1078 H1091 0.962 1_556 S
C1078 H1092 0.960 . S
C1079 C1076 1.511 . S
C1079 H1093 0.961 . S
C1079 H1094 0.961 . S
C1079 H1095 0.961 . S
C1080 C1081 1.370 . S
C1080 C1082 1.363 . S
C1080 H1096 0.931 . S
C1081 C1080 1.370 . S
C1081 C1085 1.408 . S
C1082 C1080 1.363 . S
C1082 C1083 1.370 . S
C1082 C1086 1.524 . S
C1083 C1075 1.503 . S
C1083 C1082 1.370 . S
C1083 C1084 1.403 . S
C1084 C1083 1.403 . S
C1084 C1085 1.404 . S
C1084 C1087 1.539 1_554 S
C1085 C1081 1.408 . S
C1085 C1084 1.404 . S
C1085 H1097 0.930 . S
C1086 C1082 1.524 . S
C1086 H1098 0.956 . S
C1086 H1099 0.961 . S
C1086 H1100 0.961 . S
C1087 C1084 1.539 1_556 S
C1087 H1101 0.958 . S
C1087 H1102 0.961 . S
C1087 H1103 0.960 . S
H1088 C1072 0.909 1_556 S
H1089 C1077 0.929 . S
H1090 C1078 0.960 . S
H1091 C1078 0.962 1_554 S
H1092 C1078 0.960 . S
H1093 C1079 0.961 . S
H1094 C1079 0.961 . S
H1095 C1079 0.961 . S
H1096 C1080 0.931 . S
H1097 C1085 0.930 . S
H1098 C1086 0.956 . S
H1099 C1086 0.961 . S
H1100 C1086 0.961 . S
H1101 C1087 0.958 . S
H1102 C1087 0.961 . S
H1103 C1087 0.960 . S
C1104 C1105 1.391 . S
C1104 C1106 1.394 . S
C1104 H1120 0.931 . S
C1105 C1104 1.391 . S
C1105 C1109 1.376 . S
C1106 C1104 1.394 . S
C1106 C1107 1.369 . S
C1106 C1110 1.531 1_545 S
C1107 C1106 1.369 . S
C1107 C1108 1.410 . S
C1107 C1115 1.503 . S
C1108 C1107 1.410 . S
C1108 C1109 1.392 . S
C1108 C1111 1.511 . S
C1109 C1105 1.376 . S
C1109 C1108 1.392 . S
C1109 H1121 0.929 . S
C1110 C1106 1.531 1_565 S
C1110 H1122 0.960 . S
C1110 H1123 0.962 . S
C1110 H1124 0.960 . S
C1111 C1108 1.511 . S
C1111 H1125 0.961 . S
C1111 H1126 0.961 . S
C1111 H1127 0.961 . S
C1112 C1113 1.370 . S
C1112 C1114 1.363 . S
C1112 H1128 0.931 . S
C1113 C1112 1.370 . S
C1113 C1117 1.408 . S
C1114 C1112 1.363 . S
C1114 C1115 1.370 . S
C1114 C1118 1.524 . S
C1115 C1107 1.503 . S
C1115 C1114 1.370 . S
C1115 C1116 1.403 . S
C1116 C1115 1.403 . S
C1116 C1117 1.404 . S
C1116 C1119 1.539 . S
C1117 C1113 1.408 . S
C1117 C1116 1.404 . S
C1117 H1129 0.930 . S
C1118 C1114 1.524 . S
C1118 H1130 0.956 . S
C1118 H1131 0.961 . S
C1118 H1132 0.961 . S
C1119 C1116 1.539 . S
C1119 H1133 0.958 . S
C1119 H1134 0.961 . S
C1119 H1135 0.960 . S
H1120 C1104 0.931 . S
H1121 C1109 0.929 . S
H1122 C1110 0.960 . S
H1123 C1110 0.962 . S
H1124 C1110 0.960 . S
H1125 C1111 0.961 . S
H1126 C1111 0.961 . S
H1127 C1111 0.961 . S
H1128 C1112 0.931 . S
H1129 C1117 0.930 . S
H1130 C1118 0.956 . S
H1131 C1118 0.961 . S
H1132 C1118 0.961 . S
H1133 C1119 0.958 . S
H1134 C1119 0.961 . S
H1135 C1119 0.960 . S
C1136 C1137 1.391 . S
C1136 C1138 1.394 . S
C1136 H1152 0.931 . S
C1137 C1136 1.391 . S
C1137 C1141 1.376 . S
C1138 C1136 1.394 . S
C1138 C1139 1.369 . S
C1138 C1142 1.531 . S
C1139 C1138 1.369 . S
C1139 C1140 1.410 . S
C1139 C1147 1.503 . S
C1140 C1139 1.410 . S
C1140 C1141 1.392 . S
C1140 C1143 1.511 . S
C1141 C1137 1.376 . S
C1141 C1140 1.392 . S
C1141 H1153 0.929 . S
C1142 C1138 1.531 . S
C1142 H1154 0.960 . S
C1142 H1155 0.962 . S
C1142 H1156 0.960 . S
C1143 C1140 1.511 . S
C1143 H1157 0.961 . S
C1143 H1158 0.961 . S
C1143 H1159 0.961 . S
C1144 C1145 1.370 . S
C1144 C1146 1.363 . S
C1144 H1160 0.931 . S
C1145 C1144 1.370 . S
C1145 C1149 1.408 . S
C1146 C1144 1.363 . S
C1146 C1147 1.370 . S
C1146 C1150 1.524 . S
C1147 C1139 1.503 . S
C1147 C1146 1.370 . S
C1147 C1148 1.403 . S
C1148 C1147 1.403 . S
C1148 C1149 1.404 . S
C1148 C1151 1.539 . S
C1149 C1145 1.408 . S
C1149 C1148 1.404 . S
C1149 H1161 0.930 . S
C1150 C1146 1.524 . S
C1150 H1162 0.956 . S
C1150 H1163 0.961 . S
C1150 H1164 0.961 . S
C1151 C1148 1.539 . S
C1151 H1165 0.958 . S
C1151 H1166 0.961 . S
C1151 H1167 0.960 . S
H1152 C1136 0.931 . S
H1153 C1141 0.929 . S
H1154 C1142 0.960 . S
H1155 C1142 0.962 . S
H1156 C1142 0.960 . S
H1157 C1143 0.961 . S
H1158 C1143 0.961 . S
H1159 C1143 0.961 . S
H1160 C1144 0.931 . S
H1161 C1149 0.930 . S
H1162 C1150 0.956 . S
H1163 C1150 0.961 . S
H1164 C1150 0.961 . S
H1165 C1151 0.958 . S
H1166 C1151 0.961 . S
H1167 C1151 0.960 . S
C1168 C1169 1.391 . S
C1168 C1170 1.394 . S
C1168 H1184 0.931 . S
C1169 C1168 1.391 . S
C1169 C1173 1.376 . S
C1170 C1168 1.394 . S
C1170 C1171 1.369 . S
C1170 C1174 1.531 . S
C1171 C1170 1.369 . S
C1171 C1172 1.410 . S
C1171 C1179 1.503 . S
C1172 C1171 1.410 . S
C1172 C1173 1.392 . S
C1172 C1175 1.511 . S
C1173 C1169 1.376 . S
C1173 C1172 1.392 . S
C1173 H1185 0.929 . S
C1174 C1170 1.531 . S
C1174 H1186 0.960 . S
C1174 H1187 0.962 . S
C1174 H1188 0.960 . S
C1175 C1172 1.511 . S
C1175 H1189 0.961 . S
C1175 H1190 0.961 . S
C1175 H1191 0.961 . S
C1176 C1177 1.370 . S
C1176 C1178 1.363 . S
C1176 H1192 0.931 . S
C1177 C1176 1.370 . S
C1177 C1181 1.408 . S
C1178 C1176 1.363 . S
C1178 C1179 1.370 . S
C1178 C1182 1.524 . S
C1179 C1171 1.503 . S
C1179 C1178 1.370 . S
C1179 C1180 1.403 . S
C1180 C1179 1.403 . S
C1180 C1181 1.404 . S
C1180 C1183 1.539 . S
C1181 C1177 1.408 . S
C1181 C1180 1.404 . S
C1181 H1193 0.930 . S
C1182 C1178 1.524 . S
C1182 H1194 0.956 . S
C1182 H1195 0.961 . S
C1182 H1196 0.961 . S
C1183 C1180 1.539 . S
C1183 H1197 0.958 . S
C1183 H1198 0.961 . S
C1183 H1199 0.960 . S
H1184 C1168 0.931 . S
H1185 C1173 0.929 . S
H1186 C1174 0.960 . S
H1187 C1174 0.962 . S
H1188 C1174 0.960 . S
H1189 C1175 0.961 . S
H1190 C1175 0.961 . S
H1191 C1175 0.961 . S
H1192 C1176 0.931 . S
H1193 C1181 0.930 . S
H1194 C1182 0.956 . S
H1195 C1182 0.961 . S
H1196 C1182 0.961 . S
H1197 C1183 0.958 . S
H1198 C1183 0.961 . S
H1199 C1183 0.960 . S
C1200 C1201 1.391 . S
C1200 C1202 1.394 . S
C1200 H1216 0.931 . S
C1201 C1200 1.391 . S
C1201 C1205 1.376 . S
C1202 C1200 1.394 . S
C1202 C1203 1.369 . S
C1202 C1206 1.531 . S
C1203 C1202 1.369 . S
C1203 C1204 1.410 . S
C1203 C1211 1.503 . S
C1204 C1203 1.410 . S
C1204 C1205 1.392 . S
C1204 C1207 1.511 . S
C1205 C1201 1.376 . S
C1205 C1204 1.392 . S
C1205 H1217 0.929 . S
C1206 C1202 1.531 . S
C1206 H1218 0.960 . S
C1206 H1219 0.962 . S
C1206 H1220 0.960 . S
C1207 C1204 1.511 . S
C1207 H1221 0.961 . S
C1207 H1222 0.961 . S
C1207 H1223 0.961 . S
C1208 C1209 1.370 . S
C1208 C1210 1.363 . S
C1208 H1224 0.931 . S
C1209 C1208 1.370 . S
C1209 C1213 1.408 1_556 S
C1210 C1208 1.363 . S
C1210 C1211 1.370 . S
C1210 C1214 1.524 . S
C1211 C1203 1.503 . S
C1211 C1210 1.370 . S
C1211 C1212 1.410 . S
C1212 C1211 1.410 . S
C1212 C1213 1.402 1_556 S
C1212 C1215 1.534 1_556 S
C1213 C1209 1.408 1_554 S
C1213 C1212 1.402 1_554 S
C1213 H1225 0.930 . S
C1214 C1210 1.524 . S
C1214 H1226 0.956 . S
C1214 H1227 0.961 . S
C1214 H1228 0.961 . S
C1215 C1212 1.534 1_554 S
C1215 H1229 0.958 . S
C1215 H1230 0.961 . S
C1215 H1231 0.960 . S
H1216 C1200 0.931 . S
H1217 C1205 0.929 . S
H1218 C1206 0.960 . S
H1219 C1206 0.962 . S
H1220 C1206 0.960 . S
H1221 C1207 0.961 . S
H1222 C1207 0.961 . S
H1223 C1207 0.961 . S
H1224 C1208 0.931 . S
H1225 C1213 0.930 . S
H1226 C1214 0.956 . S
H1227 C1214 0.961 . S
H1228 C1214 0.961 . S
H1229 C1215 0.958 . S
H1230 C1215 0.961 . S
H1231 C1215 0.960 . S
C1232 C1233 1.391 . S
C1232 C1234 1.394 . S
C1232 H1248 0.931 . S
C1233 C1232 1.391 . S
C1233 C1237 1.376 . S
C1234 C1232 1.394 . S
C1234 C1235 1.369 . S
C1234 C1238 1.531 . S
C1235 C1234 1.369 . S
C1235 C1236 1.410 . S
C1235 C1243 1.503 . S
C1236 C1235 1.410 . S
C1236 C1237 1.392 . S
C1236 C1239 1.511 . S
C1237 C1233 1.376 . S
C1237 C1236 1.392 . S
C1237 H1249 0.929 . S
C1238 C1234 1.531 . S
C1238 H1250 0.960 . S
C1238 H1251 0.962 . S
C1238 H1252 0.960 . S
C1239 C1236 1.511 . S
C1239 H1253 0.961 . S
C1239 H1254 0.961 . S
C1239 H1255 0.961 . S
C1240 C1241 1.370 . S
C1240 C1242 1.363 . S
C1240 H1256 0.931 . S
C1241 C1240 1.370 . S
C1241 C1245 1.408 . S
C1242 C1240 1.363 . S
C1242 C1243 1.370 . S
C1242 C1246 1.524 . S
C1243 C1235 1.503 . S
C1243 C1242 1.370 . S
C1243 C1244 1.403 . S
C1244 C1243 1.403 . S
C1244 C1245 1.404 . S
C1244 C1247 1.539 . S
C1245 C1241 1.408 . S
C1245 C1244 1.404 . S
C1245 H1257 0.930 . S
C1246 C1242 1.524 . S
C1246 H1258 0.956 . S
C1246 H1259 0.961 . S
C1246 H1260 0.961 . S
C1247 C1244 1.539 . S
C1247 H1261 0.958 . S
C1247 H1262 0.961 . S
C1247 H1263 0.960 . S
H1248 C1232 0.931 . S
H1249 C1237 0.929 . S
H1250 C1238 0.960 . S
H1251 C1238 0.962 . S
H1252 C1238 0.960 . S
H1253 C1239 0.961 . S
H1254 C1239 0.961 . S
H1255 C1239 0.961 . S
H1256 C1240 0.931 . S
H1257 C1245 0.930 . S
H1258 C1246 0.956 . S
H1259 C1246 0.961 . S
H1260 C1246 0.961 . S
H1261 C1247 0.958 . S
H1262 C1247 0.961 . S
H1263 C1247 0.960 . S
C1264 C1265 1.391 . S
C1264 C1266 1.394 . S
C1264 H1280 0.931 . S
C1265 C1264 1.391 . S
C1265 C1269 1.376 . S
C1266 C1264 1.394 . S
C1266 C1267 1.369 . S
C1266 C1270 1.531 . S
C1267 C1266 1.369 . S
C1267 C1268 1.410 . S
C1267 C1275 1.503 . S
C1268 C1267 1.410 . S
C1268 C1269 1.392 . S
C1268 C1271 1.511 . S
C1269 C1265 1.376 . S
C1269 C1268 1.392 . S
C1269 H1281 0.929 . S
C1270 C1266 1.531 . S
C1270 H1282 0.960 . S
C1270 H1283 0.962 . S
C1270 H1284 0.960 . S
C1271 C1268 1.511 . S
C1271 H1285 0.961 . S
C1271 H1286 0.961 . S
C1271 H1287 0.961 . S
C1272 C1273 1.370 . S
C1272 C1274 1.363 . S
C1272 H1288 0.931 . S
C1273 C1272 1.370 . S
C1273 C1277 1.408 . S
C1274 C1272 1.363 . S
C1274 C1275 1.370 . S
C1274 C1278 1.524 . S
C1275 C1267 1.503 . S
C1275 C1274 1.370 . S
C1275 C1276 1.403 . S
C1276 C1275 1.403 . S
C1276 C1277 1.404 . S
C1276 C1279 1.539 . S
C1277 C1273 1.408 . S
C1277 C1276 1.404 . S
C1277 H1289 0.930 . S
C1278 C1274 1.524 . S
C1278 H1290 0.956 . S
C1278 H1291 0.961 . S
C1278 H1292 0.961 . S
C1279 C1276 1.539 . S
C1279 H1293 0.958 . S
C1279 H1294 0.961 . S
C1279 H1295 0.960 . S
H1280 C1264 0.931 . S
H1281 C1269 0.929 . S
H1282 C1270 0.960 . S
H1283 C1270 0.962 . S
H1284 C1270 0.960 . S
H1285 C1271 0.961 . S
H1286 C1271 0.961 . S
H1287 C1271 0.961 . S
H1288 C1272 0.931 . S
H1289 C1277 0.930 . S
H1290 C1278 0.956 . S
H1291 C1278 0.961 . S
H1292 C1278 0.961 . S
H1293 C1279 0.958 . S
H1294 C1279 0.961 . S
H1295 C1279 0.960 . S
C1296 C1297 1.391 . S
C1296 C1298 1.394 . S
C1296 H1312 0.931 . S
C1297 C1296 1.391 . S
C1297 C1301 1.376 . S
C1298 C1296 1.394 . S
C1298 C1299 1.369 . S
C1298 C1302 1.531 . S
C1299 C1298 1.369 . S
C1299 C1300 1.410 . S
C1299 C1307 1.503 . S
C1300 C1299 1.410 . S
C1300 C1301 1.392 . S
C1300 C1303 1.532 . S
C1301 C1297 1.376 . S
C1301 C1300 1.392 . S
C1301 H1313 0.929 . S
C1302 C1298 1.531 . S
C1302 H1314 0.960 . S
C1302 H1315 0.962 . S
C1302 H1316 0.960 . S
C1303 C1300 1.532 . S
C1303 H1317 0.962 . S
C1303 H1318 0.964 . S
C1303 H1319 0.936 1_455 S
C1304 C1305 1.370 . S
C1304 C1306 1.363 . S
C1304 H1320 0.931 . S
C1305 C1304 1.370 . S
C1305 C1309 1.408 1_455 S
C1306 C1304 1.363 . S
C1306 C1307 1.370 . S
C1306 C1310 1.524 . S
C1307 C1299 1.503 . S
C1307 C1306 1.370 . S
C1307 C1308 1.403 . S
C1308 C1307 1.403 . S
C1308 C1309 1.404 1_455 S
C1308 C1311 1.539 1_455 S
C1309 C1305 1.408 1_655 S
C1309 C1308 1.404 1_655 S
C1309 H1321 0.930 . S
C1310 C1306 1.524 . S
C1310 H1322 0.956 . S
C1310 H1323 0.961 . S
C1310 H1324 0.961 . S
C1311 C1308 1.539 1_655 S
C1311 H1325 0.958 . S
C1311 H1326 0.961 . S
C1311 H1327 0.960 . S
H1312 C1296 0.931 . S
H1313 C1301 0.929 . S
H1314 C1302 0.960 . S
H1315 C1302 0.962 . S
H1316 C1302 0.960 . S
H1317 C1303 0.962 . S
H1318 C1303 0.964 . S
H1319 C1303 0.936 1_655 S
H1320 C1304 0.931 . S
H1321 C1309 0.930 . S
H1322 C1310 0.956 . S
H1323 C1310 0.961 . S
H1324 C1310 0.961 . S
H1325 C1311 0.958 . S
H1326 C1311 0.961 . S
H1327 C1311 0.960 . S
C1328 C1329 1.391 1_455 S
C1328 C1330 1.394 1_455 S
C1328 H1344 0.931 . S
C1329 C1328 1.391 1_655 S
C1329 C1333 1.376 . S
C1330 C1328 1.394 1_655 S
C1330 C1331 1.369 . S
C1330 C1334 1.531 1_655 S
C1331 C1330 1.369 . S
C1331 C1332 1.410 . S
C1331 C1339 1.503 . S
C1332 C1331 1.410 . S
C1332 C1333 1.392 . S
C1332 C1335 1.511 . S
C1333 C1329 1.376 . S
C1333 C1332 1.392 . S
C1333 H1345 0.929 . S
C1334 C1330 1.531 1_455 S
C1334 H1346 0.960 . S
C1334 H1347 0.962 . S
C1334 H1348 0.960 . S
C1335 C1332 1.511 . S
C1335 H1349 0.961 . S
C1335 H1350 0.961 . S
C1335 H1351 0.961 . S
C1336 C1337 1.370 . S
C1336 C1338 1.363 . S
C1336 H1352 0.931 . S
C1337 C1336 1.370 . S
C1337 C1341 1.408 . S
C1338 C1336 1.363 . S
C1338 C1339 1.370 . S
C1338 C1342 1.524 . S
C1339 C1331 1.503 . S
C1339 C1338 1.370 . S
C1339 C1340 1.403 . S
C1340 C1339 1.403 . S
C1340 C1341 1.404 . S
C1340 C1343 1.539 . S
C1341 C1337 1.408 . S
C1341 C1340 1.404 . S
C1341 H1353 0.930 . S
C1342 C1338 1.524 . S
C1342 H1354 0.956 . S
C1342 H1355 0.961 . S
C1342 H1356 0.961 . S
C1343 C1340 1.539 . S
C1343 H1357 0.958 1_655 S
C1343 H1358 0.961 . S
C1343 H1359 0.960 . S
H1344 C1328 0.931 . S
H1345 C1333 0.929 . S
H1346 C1334 0.960 . S
H1347 C1334 0.962 . S
H1348 C1334 0.960 . S
H1349 C1335 0.961 . S
H1350 C1335 0.961 . S
H1351 C1335 0.961 . S
H1352 C1336 0.931 . S
H1353 C1341 0.930 . S
H1354 C1342 0.956 . S
H1355 C1342 0.961 . S
H1356 C1342 0.961 . S
H1357 C1343 0.958 1_455 S
H1358 C1343 0.961 . S
H1359 C1343 0.960 . S
C1360 C1361 1.391 . S
C1360 C1362 1.394 . S
C1360 H1376 0.931 . S
C1361 C1360 1.391 . S
C1361 C1365 1.376 . S
C1362 C1360 1.394 . S
C1362 C1363 1.369 . S
C1362 C1366 1.531 . S
C1363 C1362 1.369 . S
C1363 C1364 1.410 . S
C1363 C1371 1.503 . S
C1364 C1363 1.410 . S
C1364 C1365 1.392 . S
C1364 C1367 1.511 . S
C1365 C1361 1.376 . S
C1365 C1364 1.392 . S
C1365 H1377 0.929 . S
C1366 C1362 1.531 . S
C1366 H1378 0.960 . S
C1366 H1379 0.962 . S
C1366 H1380 0.960 . S
C1367 C1364 1.511 . S
C1367 H1381 0.961 . S
C1367 H1382 0.961 . S
C1367 H1383 0.961 . S
C1368 C1369 1.370 . S
C1368 C1370 1.363 . S
C1368 H1384 0.931 . S
C1369 C1368 1.370 . S
C1369 C1373 1.408 . S
C1370 C1368 1.363 . S
C1370 C1371 1.370 . S
C1370 C1374 1.524 . S
C1371 C1363 1.503 . S
C1371 C1370 1.370 . S
C1371 C1372 1.403 . S
C1372 C1371 1.403 . S
C1372 C1373 1.404 . S
C1372 C1375 1.539 . S
C1373 C1369 1.408 . S
C1373 C1372 1.404 . S
C1373 H1385 0.930 . S
C1374 C1370 1.524 . S
C1374 H1386 0.956 . S
C1374 H1387 0.961 . S
C1374 H1388 0.961 . S
C1375 C1372 1.539 . S
C1375 H1389 0.958 . S
C1375 H1390 0.961 . S
C1375 H1391 0.960 . S
H1376 C1360 0.931 . S
H1377 C1365 0.929 . S
H1378 C1366 0.960 . S
H1379 C1366 0.962 . S
H1380 C1366 0.960 . S
H1381 C1367 0.961 . S
H1382 C1367 0.961 . S
H1383 C1367 0.961 . S
H1384 C1368 0.931 . S
H1385 C1373 0.930 . S
H1386 C1374 0.956 . S
H1387 C1374 0.961 . S
H1388 C1374 0.961 . S
H1389 C1375 0.958 . S
H1390 C1375 0.961 . S
H1391 C1375 0.960 . S
C1392 C1393 1.391 . S
C1392 C1394 1.394 . S
C1392 H1408 0.931 . S
C1393 C1392 1.391 . S
C1393 C1397 1.376 . S
C1394 C1392 1.394 . S
C1394 C1395 1.369 . S
C1394 C1398 1.531 . S
C1395 C1394 1.369 . S
C1395 C1396 1.410 . S
C1395 C1403 1.503 . S
C1396 C1395 1.410 . S
C1396 C1397 1.392 . S
C1396 C1399 1.511 . S
C1397 C1393 1.376 . S
C1397 C1396 1.392 . S
C1397 H1409 0.929 . S
C1398 C1394 1.531 . S
C1398 H1410 0.960 . S
C1398 H1411 0.962 . S
C1398 H1412 0.960 . S
C1399 C1396 1.511 . S
C1399 H1413 0.961 . S
C1399 H1414 0.961 . S
C1399 H1415 0.961 . S
C1400 C1401 1.370 . S
C1400 C1402 1.363 . S
C1400 H1416 0.931 . S
C1401 C1400 1.370 . S
C1401 C1405 1.408 . S
C1402 C1400 1.363 . S
C1402 C1403 1.370 . S
C1402 C1406 1.524 . S
C1403 C1395 1.503 . S
C1403 C1402 1.370 . S
C1403 C1404 1.403 . S
C1404 C1403 1.403 . S
C1404 C1405 1.404 . S
C1404 C1407 1.539 . S
C1405 C1401 1.408 . S
C1405 C1404 1.404 . S
C1405 H1417 0.930 . S
C1406 C1402 1.524 . S
C1406 H1418 0.956 . S
C1406 H1419 0.961 . S
C1406 H1420 0.961 . S
C1407 C1404 1.539 . S
C1407 H1421 0.958 . S
C1407 H1422 0.961 . S
C1407 H1423 0.960 . S
H1408 C1392 0.931 . S
H1409 C1397 0.929 . S
H1410 C1398 0.960 . S
H1411 C1398 0.962 . S
H1412 C1398 0.960 . S
H1413 C1399 0.961 . S
H1414 C1399 0.961 . S
H1415 C1399 0.961 . S
H1416 C1400 0.931 . S
H1417 C1405 0.930 . S
H1418 C1406 0.956 . S
H1419 C1406 0.961 . S
H1420 C1406 0.961 . S
H1421 C1407 0.958 . S
H1422 C1407 0.961 . S
H1423 C1407 0.960 . S
C1424 C1425 1.391 . S
C1424 C1426 1.394 . S
C1424 H1440 0.931 . S
C1425 C1424 1.391 . S
C1425 C1429 1.376 . S
C1426 C1424 1.394 . S
C1426 C1427 1.369 . S
C1426 C1430 1.531 . S
C1427 C1426 1.369 . S
C1427 C1428 1.410 . S
C1427 C1435 1.503 . S
C1428 C1427 1.410 . S
C1428 C1429 1.392 . S
C1428 C1431 1.511 . S
C1429 C1425 1.376 . S
C1429 C1428 1.392 . S
C1429 H1441 0.929 . S
C1430 C1426 1.531 . S
C1430 H1442 0.960 . S
C1430 H1443 0.962 . S
C1430 H1444 0.960 . S
C1431 C1428 1.511 . S
C1431 H1445 0.961 . S
C1431 H1446 0.961 . S
C1431 H1447 0.961 . S
C1432 C1433 1.370 . S
C1432 C1434 1.363 . S
C1432 H1448 0.931 . S
C1433 C1432 1.370 . S
C1433 C1437 1.408 . S
C1434 C1432 1.363 . S
C1434 C1435 1.370 . S
C1434 C1438 1.524 . S
C1435 C1427 1.503 . S
C1435 C1434 1.370 . S
C1435 C1436 1.403 . S
C1436 C1435 1.403 . S
C1436 C1437 1.404 . S
C1436 C1439 1.539 . S
C1437 C1433 1.408 . S
C1437 C1436 1.404 . S
C1437 H1449 0.930 . S
C1438 C1434 1.524 . S
C1438 H1450 0.956 . S
C1438 H1451 0.961 . S
C1438 H1452 0.961 . S
C1439 C1436 1.539 . S
C1439 H1453 0.958 1_565 S
C1439 H1454 0.961 . S
C1439 H1455 0.960 . S
H1440 C1424 0.931 . S
H1441 C1429 0.929 . S
H1442 C1430 0.960 . S
H1443 C1430 0.962 . S
H1444 C1430 0.960 . S
H1445 C1431 0.961 . S
H1446 C1431 0.961 . S
H1447 C1431 0.961 . S
H1448 C1432 0.931 . S
H1449 C1437 0.930 . S
H1450 C1438 0.956 . S
H1451 C1438 0.961 . S
H1452 C1438 0.961 . S
H1453 C1439 0.958 1_545 S
H1454 C1439 0.961 . S
H1455 C1439 0.960 . S
C1456 C1457 1.391 . S
C1456 C1458 1.394 . S
C1456 H1472 0.931 . S
C1457 C1456 1.391 . S
C1457 C1461 1.376 . S
C1458 C1456 1.394 . S
C1458 C1459 1.369 . S
C1458 C1462 1.531 . S
C1459 C1458 1.369 . S
C1459 C1460 1.410 . S
C1459 C1467 1.503 . S
C1460 C1459 1.410 . S
C1460 C1461 1.392 . S
C1460 C1463 1.511 . S
C1461 C1457 1.376 . S
C1461 C1460 1.392 . S
C1461 H1473 0.929 . S
C1462 C1458 1.531 . S
C1462 H1474 0.960 . S
C1462 H1475 0.962 . S
C1462 H1476 0.960 . S
C1463 C1460 1.511 . S
C1463 H1477 0.961 . S
C1463 H1478 0.961 . S
C1463 H1479 0.961 . S
C1464 C1465 1.370 . S
C1464 C1466 1.363 . S
C1464 H1480 0.931 . S
C1465 C1464 1.370 . S
C1465 C1469 1.408 . S
C1466 C1464 1.363 . S
C1466 C1467 1.370 . S
C1466 C1470 1.524 . S
C1467 C1459 1.503 . S
C1467 C1466 1.370 . S
C1467 C1468 1.403 . S
C1468 C1467 1.403 . S
C1468 C1469 1.404 . S
C1468 C1471 1.539 . S
C1469 C1465 1.408 . S
C1469 C1468 1.404 . S
C1469 H1481 0.930 . S
C1470 C1466 1.524 . S
C1470 H1482 0.956 . S
C1470 H1483 0.961 . S
C1470 H1484 0.961 . S
C1471 C1468 1.539 . S
C1471 H1485 0.958 . S
C1471 H1486 0.961 . S
C1471 H1487 0.960 . S
H1472 C1456 0.931 . S
H1473 C1461 0.929 . S
H1474 C1462 0.960 . S
H1475 C1462 0.962 . S
H1476 C1462 0.960 . S
H1477 C1463 0.961 . S
H1478 C1463 0.961 . S
H1479 C1463 0.961 . S
H1480 C1464 0.931 . S
H1481 C1469 0.930 . S
H1482 C1470 0.956 . S
H1483 C1470 0.961 . S
H1484 C1470 0.961 . S
H1485 C1471 0.958 . S
H1486 C1471 0.961 . S
H1487 C1471 0.960 . S
C1488 C1489 1.391 . S
C1488 C1490 1.394 . S
C1488 H1504 0.931 . S
C1489 C1488 1.391 . S
C1489 C1493 1.376 . S
C1490 C1488 1.394 . S
C1490 C1491 1.369 . S
C1490 C1494 1.531 . S
C1491 C1490 1.369 . S
C1491 C1492 1.410 . S
C1491 C1499 1.503 . S
C1492 C1491 1.410 . S
C1492 C1493 1.392 . S
C1492 C1495 1.511 . S
C1493 C1489 1.376 . S
C1493 C1492 1.392 . S
C1493 H1505 0.929 . S
C1494 C1490 1.531 . S
C1494 H1506 0.960 1_554 S
C1494 H1507 0.962 . S
C1494 H1508 0.960 . S
C1495 C1492 1.511 . S
C1495 H1509 0.961 . S
C1495 H1510 0.961 . S
C1495 H1511 0.961 . S
C1496 C1497 1.370 . S
C1496 C1498 1.363 . S
C1496 H1512 0.931 . S
C1497 C1496 1.370 . S
C1497 C1501 1.408 . S
C1498 C1496 1.363 . S
C1498 C1499 1.370 1_556 S
C1498 C1502 1.524 1_556 S
C1499 C1491 1.503 . S
C1499 C1498 1.370 1_554 S
C1499 C1500 1.403 1_554 S
C1500 C1499 1.403 1_556 S
C1500 C1501 1.404 . S
C1500 C1503 1.539 1_556 S
C1501 C1497 1.408 . S
C1501 C1500 1.404 . S
C1501 H1513 0.930 . S
C1502 C1498 1.524 1_554 S
C1502 H1514 0.956 . S
C1502 H1515 0.961 . S
C1502 H1516 0.942 1_544 S
C1503 C1500 1.539 1_554 S
C1503 H1517 0.958 1_554 S
C1503 H1518 0.961 1_554 S
C1503 H1519 0.960 . S
H1504 C1488 0.931 . S
H1505 C1493 0.929 . S
H1506 C1494 0.960 1_556 S
H1507 C1494 0.962 . S
H1508 C1494 0.960 . S
H1509 C1495 0.961 . S
H1510 C1495 0.961 . S
H1511 C1495 0.961 . S
H1512 C1496 0.931 . S
H1513 C1501 0.930 . S
H1514 C1502 0.956 . S
H1515 C1502 0.961 . S
H1516 C1502 0.942 1_566 S
H1517 C1503 0.958 1_556 S
H1518 C1503 0.961 1_556 S
H1519 C1503 0.960 . S
C1520 C1521 1.391 . S
C1520 C1522 1.394 . S
C1520 H1536 0.931 . S
C1521 C1520 1.391 . S
C1521 C1525 1.376 . S
C1522 C1520 1.394 . S
C1522 C1523 1.369 . S
C1522 C1526 1.531 . S
C1523 C1522 1.369 . S
C1523 C1524 1.410 . S
C1523 C1531 1.503 . S
C1524 C1523 1.410 . S
C1524 C1525 1.392 . S
C1524 C1527 1.511 . S
C1525 C1521 1.376 . S
C1525 C1524 1.392 . S
C1525 H1537 0.929 . S
C1526 C1522 1.531 . S
C1526 H1538 0.960 . S
C1526 H1539 0.962 . S
C1526 H1540 0.960 . S
C1527 C1524 1.511 . S
C1527 H1541 0.961 . S
C1527 H1542 0.961 . S
C1527 H1543 0.961 . S
C1528 C1529 1.370 . S
C1528 C1530 1.363 . S
C1528 H1544 0.931 . S
C1529 C1528 1.370 . S
C1529 C1533 1.408 . S
C1530 C1528 1.363 . S
C1530 C1531 1.370 . S
C1530 C1534 1.524 . S
C1531 C1523 1.503 . S
C1531 C1530 1.370 . S
C1531 C1532 1.403 . S
C1532 C1531 1.403 . S
C1532 C1533 1.404 . S
C1532 C1535 1.539 . S
C1533 C1529 1.408 . S
C1533 C1532 1.404 . S
C1533 H1545 0.930 . S
C1534 C1530 1.524 . S
C1534 H1546 0.956 . S
C1534 H1547 0.961 . S
C1534 H1548 0.961 . S
C1535 C1532 1.539 . S
C1535 H1549 0.958 . S
C1535 H1550 0.961 . S
C1535 H1551 0.960 . S
H1536 C1520 0.931 . S
H1537 C1525 0.929 . S
H1538 C1526 0.960 . S
H1539 C1526 0.962 . S
H1540 C1526 0.960 . S
H1541 C1527 0.961 . S
H1542 C1527 0.961 . S
H1543 C1527 0.961 . S
H1544 C1528 0.931 . S
H1545 C1533 0.930 . S
H1546 C1534 0.956 . S
H1547 C1534 0.961 . S
H1548 C1534 0.961 . S
H1549 C1535 0.958 . S
H1550 C1535 0.961 . S
H1551 C1535 0.960 . S
C1552 C1553 1.391 . S
C1552 C1554 1.394 1_554 S
C1552 H1568 0.931 . S
C1553 C1552 1.391 . S
C1553 C1557 1.376 . S
C1554 C1552 1.394 1_556 S
C1554 C1555 1.369 . S
C1554 C1558 1.531 . S
C1555 C1554 1.369 . S
C1555 C1556 1.410 1_556 S
C1555 C1563 1.503 . S
C1556 C1555 1.410 1_554 S
C1556 C1557 1.392 . S
C1556 C1559 1.511 . S
C1557 C1553 1.376 . S
C1557 C1556 1.392 . S
C1557 H1569 0.929 . S
C1558 C1554 1.531 . S
C1558 H1570 0.960 . S
C1558 H1571 0.962 . S
C1558 H1572 0.960 . S
C1559 C1556 1.511 . S
C1559 H1573 0.961 . S
C1559 H1574 0.961 1_554 S
C1559 H1575 0.961 . S
C1560 C1561 1.370 . S
C1560 C1562 1.363 . S
C1560 H1576 0.931 . S
C1561 C1560 1.370 . S
C1561 C1565 1.408 . S
C1562 C1560 1.363 . S
C1562 C1563 1.370 . S
C1562 C1566 1.524 . S
C1563 C1555 1.503 . S
C1563 C1562 1.370 . S
C1563 C1564 1.403 . S
C1564 C1563 1.403 . S
C1564 C1565 1.404 . S
C1564 C1567 1.539 . S
C1565 C1561 1.408 . S
C1565 C1564 1.404 . S
C1565 H1577 0.930 . S
C1566 C1562 1.524 . S
C1566 H1578 0.956 . S
C1566 H1579 0.974 . S
C1566 H1580 0.961 . S
C1567 C1564 1.539 . S
C1567 H1581 0.958 . S
C1567 H1582 0.961 . S
C1567 H1583 0.960 . S
H1568 C1552 0.931 . S
H1569 C1557 0.929 . S
H1570 C1558 0.960 . S
H1571 C1558 0.962 . S
H1572 C1558 0.960 . S
H1573 C1559 0.961 . S
H1574 C1559 0.961 1_556 S
H1575 C1559 0.961 . S
H1576 C1560 0.931 . S
H1577 C1565 0.930 . S
H1578 C1566 0.956 . S
H1579 C1566 0.974 . S
H1580 C1566 0.961 . S
H1581 C1567 0.958 . S
H1582 C1567 0.961 . S
H1583 C1567 0.960 . S
C1584 C1585 1.391 . S
C1584 C1586 1.394 . S
C1584 H1600 0.931 . S
C1585 C1584 1.391 . S
C1585 C1589 1.376 . S
C1586 C1584 1.394 . S
C1586 C1587 1.369 . S
C1586 C1590 1.531 . S
C1587 C1586 1.369 . S
C1587 C1588 1.410 . S
C1587 C1595 1.503 . S
C1588 C1587 1.410 . S
C1588 C1589 1.392 . S
C1588 C1591 1.511 . S
C1589 C1585 1.376 . S
C1589 C1588 1.392 . S
C1589 H1601 0.929 . S
C1590 C1586 1.531 . S
C1590 H1602 0.960 . S
C1590 H1603 0.962 . S
C1590 H1604 0.960 . S
C1591 C1588 1.511 . S
C1591 H1605 0.961 . S
C1591 H1606 0.961 . S
C1591 H1607 0.961 . S
C1592 C1593 1.370 . S
C1592 C1594 1.363 . S
C1592 H1608 0.931 . S
C1593 C1592 1.370 . S
C1593 C1597 1.408 . S
C1594 C1592 1.363 . S
C1594 C1595 1.370 . S
C1594 C1598 1.524 . S
C1595 C1587 1.503 . S
C1595 C1594 1.370 . S
C1595 C1596 1.403 . S
C1596 C1595 1.403 . S
C1596 C1597 1.404 . S
C1596 C1599 1.539 . S
C1597 C1593 1.408 . S
C1597 C1596 1.404 . S
C1597 H1609 0.930 . S
C1598 C1594 1.524 . S
C1598 H1610 0.956 . S
C1598 H1611 0.961 . S
C1598 H1612 0.961 . S
C1599 C1596 1.539 . S
C1599 H1613 0.958 . S
C1599 H1614 0.961 . S
C1599 H1615 0.960 . S
H1600 C1584 0.931 . S
H1601 C1589 0.929 . S
H1602 C1590 0.960 . S
H1603 C1590 0.962 . S
H1604 C1590 0.960 . S
H1605 C1591 0.961 . S
H1606 C1591 0.961 . S
H1607 C1591 0.961 . S
H1608 C1592 0.931 . S
H1609 C1597 0.930 . S
H1610 C1598 0.956 . S
H1611 C1598 0.961 . S
H1612 C1598 0.961 . S
H1613 C1599 0.958 . S
H1614 C1599 0.961 . S
H1615 C1599 0.960 . S
C1616 C1617 1.391 . S
C1616 C1618 1.394 . S
C1616 H1632 0.931 . S
C1617 C1616 1.391 . S
C1617 C1621 1.376 . S
C1618 C1616 1.394 . S
C1618 C1619 1.369 . S
C1618 C1622 1.531 . S
C1619 C1618 1.369 . S
C1619 C1620 1.410 . S
C1619 C1627 1.503 . S
C1620 C1619 1.410 . S
C1620 C1621 1.392 . S
C1620 C1623 1.511 . S
C1621 C1617 1.376 . S
C1621 C1620 1.392 . S
C1621 H1633 0.929 . S
C1622 C1618 1.531 . S
C1622 H1634 0.960 . S
C1622 H1635 0.962 . S
C1622 H1636 0.960 . S
C1623 C1620 1.511 . S
C1623 H1637 0.961 . S
C1623 H1638 0.961 . S
C1623 H1639 0.961 . S
C1624 C1625 1.370 . S
C1624 C1626 1.363 . S
C1624 H1640 0.931 . S
C1625 C1624 1.370 . S
C1625 C1629 1.408 . S
C1626 C1624 1.363 . S
C1626 C1627 1.370 . S
C1626 C1630 1.524 . S
C1627 C1619 1.503 . S
C1627 C1626 1.370 . S
C1627 C1628 1.403 . S
C1628 C1627 1.403 . S
C1628 C1629 1.404 . S
C1628 C1631 1.539 . S
C1629 C1625 1.408 . S
C1629 C1628 1.404 . S
C1629 H1641 0.930 . S
C1630 C1626 1.524 . S
C1630 H1642 0.956 . S
C1630 H1643 0.961 . S
C1630 H1644 0.961 . S
C1631 C1628 1.539 . S
C1631 H1645 0.958 . S
C1631 H1646 0.961 . S
C1631 H1647 0.960 . S
H1632 C1616 0.931 . S
H1633 C1621 0.929 . S
H1634 C1622 0.960 . S
H1635 C1622 0.962 . S
H1636 C1622 0.960 . S
H1637 C1623 0.961 . S
H1638 C1623 0.961 . S
H1639 C1623 0.961 . S
H1640 C1624 0.931 . S
H1641 C1629 0.930 . S
H1642 C1630 0.956 . S
H1643 C1630 0.961 . S
H1644 C1630 0.961 . S
H1645 C1631 0.958 . S
H1646 C1631 0.961 . S
H1647 C1631 0.960 . S
C1648 C1649 1.391 . S
C1648 C1650 1.394 . S
C1648 H1664 0.931 . S
C1649 C1648 1.391 . S
C1649 C1653 1.376 . S
C1650 C1648 1.394 . S
C1650 C1651 1.369 . S
C1650 C1654 1.531 . S
C1651 C1650 1.369 . S
C1651 C1652 1.410 . S
C1651 C1659 1.503 . S
C1652 C1651 1.410 . S
C1652 C1653 1.392 . S
C1652 C1655 1.511 . S
C1653 C1649 1.376 . S
C1653 C1652 1.392 . S
C1653 H1665 0.929 . S
C1654 C1650 1.531 . S
C1654 H1666 0.960 . S
C1654 H1667 0.962 . S
C1654 H1668 0.960 . S
C1655 C1652 1.511 . S
C1655 H1669 0.961 . S
C1655 H1670 0.961 . S
C1655 H1671 0.961 . S
C1656 C1657 1.370 . S
C1656 C1658 1.363 . S
C1656 H1672 0.931 . S
C1657 C1656 1.370 . S
C1657 C1661 1.408 . S
C1658 C1656 1.363 . S
C1658 C1659 1.370 . S
C1658 C1662 1.524 . S
C1659 C1651 1.503 . S
C1659 C1658 1.370 . S
C1659 C1660 1.403 . S
C1660 C1659 1.403 . S
C1660 C1661 1.404 . S
C1660 C1663 1.539 . S
C1661 C1657 1.408 . S
C1661 C1660 1.404 . S
C1661 H1673 0.930 . S
C1662 C1658 1.524 . S
C1662 H1674 0.956 . S
C1662 H1675 0.961 . S
C1662 H1676 0.961 . S
C1663 C1660 1.539 . S
C1663 H1677 0.958 . S
C1663 H1678 0.961 . S
C1663 H1679 0.960 . S
H1664 C1648 0.931 . S
H1665 C1653 0.929 . S
H1666 C1654 0.960 . S
H1667 C1654 0.962 . S
H1668 C1654 0.960 . S
H1669 C1655 0.961 . S
H1670 C1655 0.961 . S
H1671 C1655 0.961 . S
H1672 C1656 0.931 . S
H1673 C1661 0.930 . S
H1674 C1662 0.956 . S
H1675 C1662 0.961 . S
H1676 C1662 0.961 . S
H1677 C1663 0.958 . S
H1678 C1663 0.961 . S
H1679 C1663 0.960 . S
C1680 C1681 1.391 . S
C1680 C1682 1.394 . S
C1680 H1696 0.931 . S
C1681 C1680 1.391 . S
C1681 C1685 1.376 . S
C1682 C1680 1.394 . S
C1682 C1683 1.369 . S
C1682 C1686 1.531 . S
C1683 C1682 1.369 . S
C1683 C1684 1.410 . S
C1683 C1691 1.503 . S
C1684 C1683 1.410 . S
C1684 C1685 1.392 . S
C1684 C1687 1.511 . S
C1685 C1681 1.376 . S
C1685 C1684 1.392 . S
C1685 H1697 0.929 . S
C1686 C1682 1.531 . S
C1686 H1698 0.960 . S
C1686 H1699 0.962 . S
C1686 H1700 0.960 . S
C1687 C1684 1.511 . S
C1687 H1701 0.961 1_455 S
C1687 H1702 0.958 1_455 S
C1687 H1703 0.961 1_455 S
C1688 C1689 1.370 . S
C1688 C1690 1.363 . S
C1688 H1704 0.931 . S
C1689 C1688 1.370 . S
C1689 C1693 1.408 . S
C1690 C1688 1.363 . S
C1690 C1691 1.370 1_565 S
C1690 C1694 1.524 . S
C1691 C1683 1.503 . S
C1691 C1690 1.370 1_545 S
C1691 C1692 1.403 1_545 S
C1692 C1691 1.403 1_565 S
C1692 C1693 1.404 . S
C1692 C1695 1.539 1_565 S
C1693 C1689 1.408 . S
C1693 C1692 1.404 . S
C1693 H1705 0.930 . S
C1694 C1690 1.524 . S
C1694 H1706 0.956 . S
C1694 H1707 0.961 1_565 S
C1694 H1708 0.961 . S
C1695 C1692 1.539 1_545 S
C1695 H1709 0.958 . S
C1695 H1710 0.961 . S
C1695 H1711 0.960 . S
H1696 C1680 0.931 . S
H1697 C1685 0.929 . S
H1698 C1686 0.960 . S
H1699 C1686 0.962 . S
H1700 C1686 0.960 . S
H1701 C1687 0.961 1_655 S
H1702 C1687 0.958 1_655 S
H1703 C1687 0.961 1_655 S
H1704 C1688 0.931 . S
H1705 C1693 0.930 . S
H1706 C1694 0.956 . S
H1707 C1694 0.961 1_545 S
H1708 C1694 0.961 . S
H1709 C1695 0.958 . S
H1710 C1695 0.961 . S
H1711 C1695 0.960 . S
C1712 C1713 1.391 . S
C1712 C1714 1.394 . S
C1712 H1728 0.931 . S
C1713 C1712 1.391 . S
C1713 C1717 1.376 . S
C1714 C1712 1.394 . S
C1714 C1715 1.369 . S
C1714 C1718 1.531 . S
C1715 C1714 1.369 . S
C1715 C1716 1.410 . S
C1715 C1723 1.503 . S
C1716 C1715 1.410 . S
C1716 C1717 1.392 . S
C1716 C1719 1.511 . S
C1717 C1713 1.376 . S
C1717 C1716 1.392 . S
C1717 H1729 0.929 . S
C1718 C1714 1.531 . S
C1718 H1730 0.960 . S
C1718 H1731 0.962 . S
C1718 H1732 0.960 . S
C1719 C1716 1.511 . S
C1719 H1733 0.961 . S
C1719 H1734 0.961 . S
C1719 H1735 0.961 . S
C1720 C1721 1.370 . S
C1720 C1722 1.363 . S
C1720 H1736 0.931 . S
C1721 C1720 1.370 . S
C1721 C1725 1.408 . S
C1722 C1720 1.363 . S
C1722 C1723 1.370 . S
C1722 C1726 1.524 . S
C1723 C1715 1.503 . S
C1723 C1722 1.370 . S
C1723 C1724 1.403 . S
C1724 C1723 1.403 . S
C1724 C1725 1.404 . S
C1724 C1727 1.539 . S
C1725 C1721 1.408 . S
C1725 C1724 1.404 . S
C1725 H1737 0.930 . S
C1726 C1722 1.524 . S
C1726 H1738 0.956 . S
C1726 H1739 0.961 . S
C1726 H1740 0.961 . S
C1727 C1724 1.539 . S
C1727 H1741 0.958 . S
C1727 H1742 0.961 . S
C1727 H1743 0.960 . S
H1728 C1712 0.931 . S
H1729 C1717 0.929 . S
H1730 C1718 0.960 . S
H1731 C1718 0.962 . S
H1732 C1718 0.960 . S
H1733 C1719 0.961 . S
H1734 C1719 0.961 . S
H1735 C1719 0.961 . S
H1736 C1720 0.931 . S
H1737 C1725 0.930 . S
H1738 C1726 0.956 . S
H1739 C1726 0.961 . S
H1740 C1726 0.961 . S
H1741 C1727 0.958 . S
H1742 C1727 0.961 . S
H1743 C1727 0.960 . S
C1744 C1745 1.391 . S
C1744 C1746 1.394 . S
C1744 H1760 0.931 . S
C1745 C1744 1.391 . S
C1745 C1749 1.376 . S
C1746 C1744 1.394 . S
C1746 C1747 1.369 1_545 S
C1746 C1750 1.531 . S
C1747 C1746 1.369 1_565 S
C1747 C1748 1.410 1_565 S
C1747 C1755 1.503 . S
C1748 C1747 1.410 1_545 S
C1748 C1749 1.392 . S
C1748 C1751 1.511 1_545 S
C1749 C1745 1.376 . S
C1749 C1748 1.392 . S
C1749 H1761 0.929 . S
C1750 C1746 1.531 . S
C1750 H1762 0.960 . S
C1750 H1763 0.962 . S
C1750 H1764 0.960 . S
C1751 C1748 1.511 1_565 S
C1751 H1765 0.961 . S
C1751 H1766 0.961 . S
C1751 H1767 0.961 . S
C1752 C1753 1.370 . S
C1752 C1754 1.363 . S
C1752 H1768 0.931 . S
C1753 C1752 1.370 . S
C1753 C1757 1.408 . S
C1754 C1752 1.363 . S
C1754 C1755 1.370 . S
C1754 C1758 1.524 . S
C1755 C1747 1.503 . S
C1755 C1754 1.370 . S
C1755 C1756 1.403 . S
C1756 C1755 1.403 . S
C1756 C1757 1.404 . S
C1756 C1759 1.539 . S
C1757 C1753 1.408 . S
C1757 C1756 1.404 . S
C1757 H1769 0.930 . S
C1758 C1754 1.524 . S
C1758 H1770 0.956 . S
C1758 H1771 0.961 . S
C1758 H1772 0.961 . S
C1759 C1756 1.539 . S
C1759 H1773 0.958 . S
C1759 H1774 0.961 . S
C1759 H1775 0.960 . S
H1760 C1744 0.931 . S
H1761 C1749 0.929 . S
H1762 C1750 0.960 . S
H1763 C1750 0.962 . S
H1764 C1750 0.960 . S
H1765 C1751 0.961 . S
H1766 C1751 0.961 . S
H1767 C1751 0.961 . S
H1768 C1752 0.931 . S
H1769 C1757 0.930 . S
H1770 C1758 0.956 . S
H1771 C1758 0.961 . S
H1772 C1758 0.961 . S
H1773 C1759 0.958 . S
H1774 C1759 0.961 . S
H1775 C1759 0.960 . S
C1776 C1777 1.391 . S
C1776 C1778 1.394 . S
C1776 H1792 0.931 . S
C1777 C1776 1.391 . S
C1777 C1781 1.376 . S
C1778 C1776 1.394 . S
C1778 C1779 1.369 . S
C1778 C1782 1.531 . S
C1779 C1778 1.369 . S
C1779 C1780 1.410 . S
C1779 C1787 1.503 . S
C1780 C1779 1.410 . S
C1780 C1781 1.392 . S
C1780 C1783 1.511 . S
C1781 C1777 1.376 . S
C1781 C1780 1.392 . S
C1781 H1793 0.929 . S
C1782 C1778 1.531 . S
C1782 H1794 0.960 . S
C1782 H1795 0.962 . S
C1782 H1796 0.960 . S
C1783 C1780 1.511 . S
C1783 H1797 0.961 . S
C1783 H1798 0.961 . S
C1783 H1799 0.961 . S
C1784 C1785 1.370 . S
C1784 C1786 1.363 . S
C1784 H1800 0.931 . S
C1785 C1784 1.370 . S
C1785 C1789 1.408 . S
C1786 C1784 1.363 . S
C1786 C1787 1.370 . S
C1786 C1790 1.524 . S
C1787 C1779 1.503 . S
C1787 C1786 1.370 . S
C1787 C1788 1.403 . S
C1788 C1787 1.403 . S
C1788 C1789 1.404 . S
C1788 C1791 1.539 . S
C1789 C1785 1.408 . S
C1789 C1788 1.404 . S
C1789 H1801 0.930 . S
C1790 C1786 1.524 . S
C1790 H1802 0.956 . S
C1790 H1803 0.961 . S
C1790 H1804 0.961 . S
C1791 C1788 1.539 . S
C1791 H1805 0.958 . S
C1791 H1806 0.961 . S
C1791 H1807 0.960 . S
H1792 C1776 0.931 . S
H1793 C1781 0.929 . S
H1794 C1782 0.960 . S
H1795 C1782 0.962 . S
H1796 C1782 0.960 . S
H1797 C1783 0.961 . S
H1798 C1783 0.961 . S
H1799 C1783 0.961 . S
H1800 C1784 0.931 . S
H1801 C1789 0.930 . S
H1802 C1790 0.956 . S
H1803 C1790 0.961 . S
H1804 C1790 0.961 . S
H1805 C1791 0.958 . S
H1806 C1791 0.961 . S
H1807 C1791 0.960 . S
C1808 C1809 1.391 . S
C1808 C1810 1.394 . S
C1808 H1824 0.931 . S
C1809 C1808 1.391 . S
C1809 C1813 1.376 . S
C1810 C1808 1.394 . S
C1810 C1811 1.369 . S
C1810 C1814 1.531 . S
C1811 C1810 1.369 . S
C1811 C1812 1.410 . S
C1811 C1819 1.503 . S
C1812 C1811 1.410 . S
C1812 C1813 1.392 . S
C1812 C1815 1.511 . S
C1813 C1809 1.376 . S
C1813 C1812 1.392 . S
C1813 H1825 0.929 . S
C1814 C1810 1.531 . S
C1814 H1826 0.960 . S
C1814 H1827 0.962 . S
C1814 H1828 0.960 . S
C1815 C1812 1.511 . S
C1815 H1829 0.961 . S
C1815 H1830 0.961 . S
C1815 H1831 0.961 . S
C1816 C1817 1.370 . S
C1816 C1818 1.363 . S
C1816 H1832 0.931 . S
C1817 C1816 1.370 . S
C1817 C1821 1.408 . S
C1818 C1816 1.363 . S
C1818 C1819 1.370 . S
C1818 C1822 1.524 . S
C1819 C1811 1.503 . S
C1819 C1818 1.370 . S
C1819 C1820 1.403 . S
C1820 C1819 1.403 . S
C1820 C1821 1.404 . S
C1820 C1823 1.539 . S
C1821 C1817 1.408 . S
C1821 C1820 1.404 . S
C1821 H1833 0.930 . S
C1822 C1818 1.524 . S
C1822 H1834 0.956 . S
C1822 H1835 0.961 . S
C1822 H1836 0.961 . S
C1823 C1820 1.539 . S
C1823 H1837 0.958 . S
C1823 H1838 0.961 . S
C1823 H1839 0.960 . S
H1824 C1808 0.931 . S
H1825 C1813 0.929 . S
H1826 C1814 0.960 . S
H1827 C1814 0.962 . S
H1828 C1814 0.960 . S
H1829 C1815 0.961 . S
H1830 C1815 0.961 . S
H1831 C1815 0.961 . S
H1832 C1816 0.931 . S
H1833 C1821 0.930 . S
H1834 C1822 0.956 . S
H1835 C1822 0.961 . S
H1836 C1822 0.961 . S
H1837 C1823 0.958 . S
H1838 C1823 0.961 . S
H1839 C1823 0.960 . S
C1840 C1841 1.391 . S
C1840 C1842 1.394 . S
C1840 H1856 0.931 . S
C1841 C1840 1.391 . S
C1841 C1845 1.376 . S
C1842 C1840 1.394 . S
C1842 C1843 1.369 . S
C1842 C1846 1.531 . S
C1843 C1842 1.369 . S
C1843 C1844 1.410 . S
C1843 C1851 1.503 . S
C1844 C1843 1.410 . S
C1844 C1845 1.392 . S
C1844 C1847 1.511 . S
C1845 C1841 1.376 . S
C1845 C1844 1.392 . S
C1845 H1857 0.929 . S
C1846 C1842 1.531 . S
C1846 H1858 0.960 . S
C1846 H1859 0.962 . S
C1846 H1860 0.960 . S
C1847 C1844 1.511 . S
C1847 H1861 0.961 . S
C1847 H1862 0.961 . S
C1847 H1863 0.961 . S
C1848 C1849 1.370 . S
C1848 C1850 1.363 . S
C1848 H1864 0.931 . S
C1849 C1848 1.370 . S
C1849 C1853 1.408 . S
C1850 C1848 1.363 . S
C1850 C1851 1.370 . S
C1850 C1854 1.524 . S
C1851 C1843 1.503 . S
C1851 C1850 1.370 . S
C1851 C1852 1.403 . S
C1852 C1851 1.403 . S
C1852 C1853 1.404 . S
C1852 C1855 1.539 . S
C1853 C1849 1.408 . S
C1853 C1852 1.404 . S
C1853 H1865 0.930 . S
C1854 C1850 1.524 . S
C1854 H1866 0.956 . S
C1854 H1867 0.961 . S
C1854 H1868 0.961 . S
C1855 C1852 1.539 . S
C1855 H1869 0.958 . S
C1855 H1870 0.961 . S
C1855 H1871 0.960 . S
H1856 C1840 0.931 . S
H1857 C1845 0.929 . S
H1858 C1846 0.960 . S
H1859 C1846 0.962 . S
H1860 C1846 0.960 . S
H1861 C1847 0.961 . S
H1862 C1847 0.961 . S
H1863 C1847 0.961 . S
H1864 C1848 0.931 . S
H1865 C1853 0.930 . S
H1866 C1854 0.956 . S
H1867 C1854 0.961 . S
H1868 C1854 0.961 . S
H1869 C1855 0.958 . S
H1870 C1855 0.961 . S
H1871 C1855 0.960 . S
C1872 C1873 1.391 . S
C1872 C1874 1.394 . S
C1872 H1888 0.931 . S
C1873 C1872 1.391 . S
C1873 C1877 1.376 . S
C1874 C1872 1.394 . S
C1874 C1875 1.369 . S
C1874 C1878 1.531 . S
C1875 C1874 1.369 . S
C1875 C1876 1.410 . S
C1875 C1883 1.503 . S
C1876 C1875 1.410 . S
C1876 C1877 1.392 . S
C1876 C1879 1.511 . S
C1877 C1873 1.376 . S
C1877 C1876 1.392 . S
C1877 H1889 0.929 . S
C1878 C1874 1.531 . S
C1878 H1890 0.960 . S
C1878 H1891 0.962 . S
C1878 H1892 0.960 . S
C1879 C1876 1.511 . S
C1879 H1893 0.961 . S
C1879 H1894 0.961 . S
C1879 H1895 0.961 . S
C1880 C1881 1.370 . S
C1880 C1882 1.363 . S
C1880 H1896 0.931 . S
C1881 C1880 1.370 . S
C1881 C1885 1.408 . S
C1882 C1880 1.363 . S
C1882 C1883 1.370 . S
C1882 C1886 1.524 . S
C1883 C1875 1.503 . S
C1883 C1882 1.370 . S
C1883 C1884 1.403 . S
C1884 C1883 1.403 . S
C1884 C1885 1.404 . S
C1884 C1887 1.539 . S
C1885 C1881 1.408 . S
C1885 C1884 1.404 . S
C1885 H1897 0.930 . S
C1886 C1882 1.524 . S
C1886 H1898 0.956 . S
C1886 H1899 0.961 . S
C1886 H1900 0.961 . S
C1887 C1884 1.539 . S
C1887 H1901 0.958 . S
C1887 H1902 0.961 . S
C1887 H1903 0.960 . S
H1888 C1872 0.931 . S
H1889 C1877 0.929 . S
H1890 C1878 0.960 . S
H1891 C1878 0.962 . S
H1892 C1878 0.960 . S
H1893 C1879 0.961 . S
H1894 C1879 0.961 . S
H1895 C1879 0.961 . S
H1896 C1880 0.931 . S
H1897 C1885 0.930 . S
H1898 C1886 0.956 . S
H1899 C1886 0.961 . S
H1900 C1886 0.961 . S
H1901 C1887 0.958 . S
H1902 C1887 0.961 . S
H1903 C1887 0.960 . S
C1904 C1905 1.391 . S
C1904 C1906 1.394 . S
C1904 H1920 0.931 . S
C1905 C1904 1.391 . S
C1905 C1909 1.376 . S
C1906 C1904 1.394 . S
C1906 C1907 1.369 . S
C1906 C1910 1.531 . S
C1907 C1906 1.369 . S
C1907 C1908 1.410 . S
C1907 C1915 1.503 . S
C1908 C1907 1.410 . S
C1908 C1909 1.392 . S
C1908 C1911 1.511 . S
C1909 C1905 1.376 . S
C1909 C1908 1.392 . S
C1909 H1921 0.929 . S
C1910 C1906 1.531 . S
C1910 H1922 0.960 . S
C1910 H1923 0.962 . S
C1910 H1924 0.960 . S
C1911 C1908 1.511 . S
C1911 H1925 0.961 . S
C1911 H1926 0.961 . S
C1911 H1927 0.961 . S
C1912 C1913 1.370 . S
C1912 C1914 1.363 . S
C1912 H1928 0.931 . S
C1913 C1912 1.370 . S
C1913 C1917 1.408 . S
C1914 C1912 1.363 . S
C1914 C1915 1.370 . S
C1914 C1918 1.524 . S
C1915 C1907 1.503 . S
C1915 C1914 1.370 . S
C1915 C1916 1.403 . S
C1916 C1915 1.403 . S
C1916 C1917 1.404 . S
C1916 C1919 1.539 . S
C1917 C1913 1.408 . S
C1917 C1916 1.404 . S
C1917 H1929 0.930 . S
C1918 C1914 1.524 . S
C1918 H1930 0.956 . S
C1918 H1931 0.961 . S
C1918 H1932 0.961 . S
C1919 C1916 1.539 . S
C1919 H1933 0.958 . S
C1919 H1934 0.961 . S
C1919 H1935 0.960 . S
H1920 C1904 0.931 . S
H1921 C1909 0.929 . S
H1922 C1910 0.960 . S
H1923 C1910 0.962 . S
H1924 C1910 0.960 . S
H1925 C1911 0.961 . S
H1926 C1911 0.961 . S
H1927 C1911 0.961 . S
H1928 C1912 0.931 . S
H1929 C1917 0.930 . S
H1930 C1918 0.956 . S
H1931 C1918 0.961 . S
H1932 C1918 0.961 . S
H1933 C1919 0.958 . S
H1934 C1919 0.961 . S
H1935 C1919 0.960 . S
C1936 C1937 1.391 . S
C1936 C1938 1.394 . S
C1936 H1952 0.931 . S
C1937 C1936 1.391 . S
C1937 C1941 1.376 . S
C1938 C1936 1.394 . S
C1938 C1939 1.369 . S
C1938 C1942 1.531 . S
C1939 C1938 1.369 . S
C1939 C1940 1.410 . S
C1939 C1947 1.503 . S
C1940 C1939 1.410 . S
C1940 C1941 1.392 . S
C1940 C1943 1.511 . S
C1941 C1937 1.376 . S
C1941 C1940 1.392 . S
C1941 H1953 0.929 . S
C1942 C1938 1.531 . S
C1942 H1954 0.960 . S
C1942 H1955 0.962 . S
C1942 H1956 0.960 . S
C1943 C1940 1.511 . S
C1943 H1957 0.961 . S
C1943 H1958 0.961 . S
C1943 H1959 0.961 . S
C1944 C1945 1.370 . S
C1944 C1946 1.363 . S
C1944 H1960 0.931 . S
C1945 C1944 1.370 . S
C1945 C1949 1.408 . S
C1946 C1944 1.363 . S
C1946 C1947 1.370 . S
C1946 C1950 1.524 . S
C1947 C1939 1.503 . S
C1947 C1946 1.370 . S
C1947 C1948 1.403 . S
C1948 C1947 1.403 . S
C1948 C1949 1.404 . S
C1948 C1951 1.539 . S
C1949 C1945 1.408 . S
C1949 C1948 1.404 . S
C1949 H1961 0.930 . S
C1950 C1946 1.524 . S
C1950 H1962 0.956 . S
C1950 H1963 0.961 . S
C1950 H1964 0.961 . S
C1951 C1948 1.539 . S
C1951 H1965 0.958 . S
C1951 H1966 0.961 . S
C1951 H1967 0.960 . S
H1952 C1936 0.931 . S
H1953 C1941 0.929 . S
H1954 C1942 0.960 . S
H1955 C1942 0.962 . S
H1956 C1942 0.960 . S
H1957 C1943 0.961 . S
H1958 C1943 0.961 . S
H1959 C1943 0.961 . S
H1960 C1944 0.931 . S
H1961 C1949 0.930 . S
H1962 C1950 0.956 . S
H1963 C1950 0.961 . S
H1964 C1950 0.961 . S
H1965 C1951 0.958 . S
H1966 C1951 0.961 . S
H1967 C1951 0.960 . S
C1968 C1969 1.391 . S
C1968 C1970 1.394 . S
C1968 H1984 0.931 . S
C1969 C1968 1.391 . S
C1969 C1973 1.376 . S
C1970 C1968 1.394 . S
C1970 C1971 1.369 . S
C1970 C1974 1.531 . S
C1971 C1970 1.369 . S
C1971 C1972 1.410 . S
C1971 C1979 1.503 . S
C1972 C1971 1.410 . S
C1972 C1973 1.392 . S
C1972 C1975 1.511 . S
C1973 C1969 1.376 . S
C1973 C1972 1.392 . S
C1973 H1985 0.929 . S
C1974 C1970 1.531 . S
C1974 H1986 0.949 1_554 S
C1974 H1987 0.962 . S
C1974 H1988 0.960 1_554 S
C1975 C1972 1.511 . S
C1975 H1989 0.961 . S
C1975 H1990 0.961 1_455 S
C1975 H1991 0.968 . S
C1976 C1977 1.370 . S
C1976 C1978 1.363 . S
C1976 H1992 0.931 . S
C1977 C1976 1.370 . S
C1977 C1981 1.408 . S
C1978 C1976 1.363 . S
C1978 C1979 1.370 1_655 S
C1978 C1982 1.524 1_655 S
C1979 C1971 1.503 . S
C1979 C1978 1.370 1_455 S
C1979 C1980 1.403 1_455 S
C1980 C1979 1.403 1_655 S
C1980 C1981 1.404 . S
C1980 C1983 1.539 . S
C1981 C1977 1.408 . S
C1981 C1980 1.404 . S
C1981 H1993 0.930 . S
C1982 C1978 1.524 1_455 S
C1982 H1994 0.956 . S
C1982 H1995 0.961 . S
C1982 H1996 0.961 . S
C1983 C1980 1.539 . S
C1983 H1997 0.993 . S
C1983 H1998 0.961 . S
C1983 H1999 0.960 1_655 S
H1984 C1968 0.931 . S
H1985 C1973 0.929 . S
H1986 C1974 0.949 1_556 S
H1987 C1974 0.962 . S
H1988 C1974 0.960 1_556 S
H1989 C1975 0.961 . S
H1990 C1975 0.961 1_655 S
H1991 C1975 0.968 . S
H1992 C1976 0.931 . S
H1993 C1981 0.930 . S
H1994 C1982 0.956 . S
H1995 C1982 0.961 . S
H1996 C1982 0.961 . S
H1997 C1983 0.993 . S
H1998 C1983 0.961 . S
H1999 C1983 0.960 1_455 S
C2000 C2001 1.391 . S
C2000 C2002 1.394 . S
C2000 H2016 0.931 . S
C2001 C2000 1.391 . S
C2001 C2005 1.376 . S
C2002 C2000 1.394 . S
C2002 C2003 1.369 . S
C2002 C2006 1.531 . S
C2003 C2002 1.369 . S
C2003 C2004 1.410 . S
C2003 C2011 1.503 . S
C2004 C2003 1.410 . S
C2004 C2005 1.392 . S
C2004 C2007 1.511 . S
C2005 C2001 1.376 . S
C2005 C2004 1.392 . S
C2005 H2017 0.929 . S
C2006 C2002 1.531 . S
C2006 H2018 0.960 . S
C2006 H2019 0.962 . S
C2006 H2020 0.960 . S
C2007 C2004 1.511 . S
C2007 H2021 0.961 . S
C2007 H2022 0.961 . S
C2007 H2023 0.961 . S
C2008 C2009 1.370 . S
C2008 C2010 1.363 . S
C2008 H2024 0.931 . S
C2009 C2008 1.370 . S
C2009 C2013 1.408 . S
C2010 C2008 1.363 . S
C2010 C2011 1.370 . S
C2010 C2014 1.524 . S
C2011 C2003 1.503 . S
C2011 C2010 1.370 . S
C2011 C2012 1.403 . S
C2012 C2011 1.403 . S
C2012 C2013 1.404 . S
C2012 C2015 1.539 . S
C2013 C2009 1.408 . S
C2013 C2012 1.404 . S
C2013 H2025 0.930 . S
C2014 C2010 1.524 . S
C2014 H2026 0.956 . S
C2014 H2027 0.961 . S
C2014 H2028 0.961 . S
C2015 C2012 1.539 . S
C2015 H2029 0.958 . S
C2015 H2030 0.961 . S
C2015 H2031 0.960 . S
H2016 C2000 0.931 . S
H2017 C2005 0.929 . S
H2018 C2006 0.960 . S
H2019 C2006 0.962 . S
H2020 C2006 0.960 . S
H2021 C2007 0.961 . S
H2022 C2007 0.961 . S
H2023 C2007 0.961 . S
H2024 C2008 0.931 . S
H2025 C2013 0.930 . S
H2026 C2014 0.956 . S
H2027 C2014 0.961 . S
H2028 C2014 0.961 . S
H2029 C2015 0.958 . S
H2030 C2015 0.961 . S
H2031 C2015 0.960 . S
C2032 C2033 1.391 . S
C2032 C2034 1.394 . S
C2032 H2048 0.931 . S
C2033 C2032 1.391 . S
C2033 C2037 1.376 . S
C2034 C2032 1.394 . S
C2034 C2035 1.369 . S
C2034 C2038 1.531 . S
C2035 C2034 1.369 . S
C2035 C2036 1.410 . S
C2035 C2043 1.503 . S
C2036 C2035 1.410 . S
C2036 C2037 1.392 . S
C2036 C2039 1.511 . S
C2037 C2033 1.376 . S
C2037 C2036 1.392 . S
C2037 H2049 0.929 . S
C2038 C2034 1.531 . S
C2038 H2050 0.960 . S
C2038 H2051 0.962 . S
C2038 H2052 0.960 . S
C2039 C2036 1.511 . S
C2039 H2053 0.961 . S
C2039 H2054 0.961 . S
C2039 H2055 0.961 . S
C2040 C2041 1.370 . S
C2040 C2042 1.363 . S
C2040 H2056 0.931 . S
C2041 C2040 1.370 . S
C2041 C2045 1.408 . S
C2042 C2040 1.363 . S
C2042 C2043 1.370 . S
C2042 C2046 1.524 . S
C2043 C2035 1.503 . S
C2043 C2042 1.370 . S
C2043 C2044 1.403 . S
C2044 C2043 1.403 . S
C2044 C2045 1.404 . S
C2044 C2047 1.539 . S
C2045 C2041 1.408 . S
C2045 C2044 1.404 . S
C2045 H2057 0.930 . S
C2046 C2042 1.524 . S
C2046 H2058 0.956 . S
C2046 H2059 0.961 . S
C2046 H2060 0.961 . S
C2047 C2044 1.539 . S
C2047 H2061 0.958 . S
C2047 H2062 0.961 . S
C2047 H2063 0.960 . S
H2048 C2032 0.931 . S
H2049 C2037 0.929 . S
H2050 C2038 0.960 . S
H2051 C2038 0.962 . S
H2052 C2038 0.960 . S
H2053 C2039 0.961 . S
H2054 C2039 0.961 . S
H2055 C2039 0.961 . S
H2056 C2040 0.931 . S
H2057 C2045 0.930 . S
H2058 C2046 0.956 . S
H2059 C2046 0.961 . S
H2060 C2046 0.961 . S
H2061 C2047 0.958 . S
H2062 C2047 0.961 . S
H2063 C2047 0.960 . S
C2064 C2065 1.391 . S
C2064 C2066 1.394 . S
C2064 H2080 0.931 . S
C2065 C2064 1.391 . S
C2065 C2069 1.376 . S
C2066 C2064 1.394 . S
C2066 C2067 1.369 . S
C2066 C2070 1.531 . S
C2067 C2066 1.369 . S
C2067 C2068 1.410 . S
C2067 C2075 1.503 . S
C2068 C2067 1.410 . S
C2068 C2069 1.392 . S
C2068 C2071 1.511 . S
C2069 C2065 1.376 . S
C2069 C2068 1.392 . S
C2069 H2081 0.929 . S
C2070 C2066 1.531 . S
C2070 H2082 0.960 . S
C2070 H2083 0.962 . S
C2070 H2084 0.960 . S
C2071 C2068 1.511 . S
C2071 H2085 0.961 . S
C2071 H2086 0.961 . S
C2071 H2087 0.961 . S
C2072 C2073 1.370 . S
C2072 C2074 1.363 . S
C2072 H2088 0.931 . S
C2073 C2072 1.370 . S
C2073 C2077 1.408 . S
C2074 C2072 1.363 . S
C2074 C2075 1.370 . S
C2074 C2078 1.524 . S
C2075 C2067 1.503 . S
C2075 C2074 1.370 . S
C2075 C2076 1.403 . S
C2076 C2075 1.403 . S
C2076 C2077 1.404 . S
C2076 C2079 1.539 . S
C2077 C2073 1.408 . S
C2077 C2076 1.404 . S
C2077 H2089 0.930 . S
C2078 C2074 1.524 . S
C2078 H2090 0.956 . S
C2078 H2091 0.961 . S
C2078 H2092 0.961 . S
C2079 C2076 1.539 . S
C2079 H2093 0.958 . S
C2079 H2094 0.961 . S
C2079 H2095 0.960 . S
H2080 C2064 0.931 . S
H2081 C2069 0.929 . S
H2082 C2070 0.960 . S
H2083 C2070 0.962 . S
H2084 C2070 0.960 . S
H2085 C2071 0.961 . S
H2086 C2071 0.961 . S
H2087 C2071 0.961 . S
H2088 C2072 0.931 . S
H2089 C2077 0.930 . S
H2090 C2078 0.956 . S
H2091 C2078 0.961 . S
H2092 C2078 0.961 . S
H2093 C2079 0.958 . S
H2094 C2079 0.961 . S
H2095 C2079 0.960 . S
C2096 C2097 1.391 . S
C2096 C2098 1.394 . S
C2096 H2112 0.931 . S
C2097 C2096 1.391 . S
C2097 C2101 1.376 . S
C2098 C2096 1.394 . S
C2098 C2099 1.369 . S
C2098 C2102 1.531 . S
C2099 C2098 1.369 . S
C2099 C2100 1.410 . S
C2099 C2107 1.503 . S
C2100 C2099 1.410 . S
C2100 C2101 1.392 . S
C2100 C2103 1.511 . S
C2101 C2097 1.376 . S
C2101 C2100 1.392 . S
C2101 H2113 0.929 . S
C2102 C2098 1.531 . S
C2102 H2114 0.960 . S
C2102 H2115 0.973 . S
C2102 H2116 0.960 . S
C2103 C2100 1.511 . S
C2103 H2117 0.961 . S
C2103 H2118 0.961 . S
C2103 H2119 0.961 . S
C2104 C2105 1.370 . S
C2104 C2106 1.363 . S
C2104 H2120 0.931 . S
C2105 C2104 1.370 . S
C2105 C2109 1.408 . S
C2106 C2104 1.363 . S
C2106 C2107 1.370 . S
C2106 C2110 1.524 . S
C2107 C2099 1.503 . S
C2107 C2106 1.370 . S
C2107 C2108 1.403 . S
C2108 C2107 1.403 . S
C2108 C2109 1.404 . S
C2108 C2111 1.539 . S
C2109 C2105 1.408 . S
C2109 C2108 1.404 . S
C2109 H2121 0.930 . S
C2110 C2106 1.524 . S
C2110 H2122 0.956 . S
C2110 H2123 0.961 . S
C2110 H2124 0.961 . S
C2111 C2108 1.539 . S
C2111 H2125 0.958 . S
C2111 H2126 0.961 . S
C2111 H2127 0.960 . S
H2112 C2096 0.931 . S
H2113 C2101 0.929 . S
H2114 C2102 0.960 . S
H2115 C2102 0.973 . S
H2116 C2102 0.960 . S
H2117 C2103 0.961 . S
H2118 C2103 0.961 . S
H2119 C2103 0.961 . S
H2120 C2104 0.931 . S
H2121 C2109 0.930 . S
H2122 C2110 0.956 . S
H2123 C2110 0.961 . S
H2124 C2110 0.961 . S
H2125 C2111 0.958 . S
H2126 C2111 0.961 . S
H2127 C2111 0.960 . S
C2128 C2129 1.391 . S
C2128 C2130 1.394 . S
C2128 H2144 0.931 . S
C2129 C2128 1.391 . S
C2129 C2133 1.376 . S
C2130 C2128 1.394 . S
C2130 C2131 1.369 . S
C2130 C2134 1.531 . S
C2131 C2130 1.369 . S
C2131 C2132 1.410 . S
C2131 C2139 1.528 . S
C2132 C2131 1.410 . S
C2132 C2133 1.392 . S
C2132 C2135 1.511 . S
C2133 C2129 1.376 . S
C2133 C2132 1.392 . S
C2133 H2145 0.929 . S
C2134 C2130 1.531 . S
C2134 H2146 0.960 . S
C2134 H2147 0.962 . S
C2134 H2148 0.960 . S
C2135 C2132 1.511 . S
C2135 H2149 0.961 . S
C2135 H2150 0.961 . S
C2135 H2151 0.961 . S
C2136 C2137 1.370 . S
C2136 C2138 1.354 1_455 S
C2136 H2152 0.931 . S
C2137 C2136 1.370 . S
C2137 C2141 1.408 . S
C2138 C2136 1.354 1_655 S
C2138 C2139 1.370 . S
C2138 C2142 1.533 . S
C2139 C2131 1.528 . S
C2139 C2138 1.370 . S
C2139 C2140 1.378 1_655 S
C2140 C2139 1.378 1_455 S
C2140 C2141 1.404 . S
C2140 C2143 1.539 . S
C2141 C2137 1.408 . S
C2141 C2140 1.404 . S
C2141 H2153 0.930 . S
C2142 C2138 1.533 . S
C2142 H2154 0.956 . S
C2142 H2155 0.961 . S
C2142 H2156 0.961 . S
C2143 C2140 1.539 . S
C2143 H2157 0.958 . S
C2143 H2158 0.961 . S
C2143 H2159 0.960 . S
H2144 C2128 0.931 . S
H2145 C2133 0.929 . S
H2146 C2134 0.960 . S
H2147 C2134 0.962 . S
H2148 C2134 0.960 . S
H2149 C2135 0.961 . S
H2150 C2135 0.961 . S
H2151 C2135 0.961 . S
H2152 C2136 0.931 . S
H2153 C2141 0.930 . S
H2154 C2142 0.956 . S
H2155 C2142 0.961 . S
H2156 C2142 0.961 . S
H2157 C2143 0.958 . S
H2158 C2143 0.961 . S
H2159 C2143 0.960 . S
C1009 C56 1.589 . S
C1017 C990 1.597 . S
C1041 C822 1.511 . S
C1049 C150 1.558 . S
C1073 C234 1.485 . S
C1081 C738 1.499 . S
C1105 C318 1.544 . S
C1113 C906 1.543 . S
C1137 C402 1.670 . S
C1145 C896 1.622 . S
C1169 C476 1.645 . S
C1177 C980 1.631 . S
C1201 C812 1.601 . S
C1209 C570 1.637 . S
C1233 C654 1.593 . S
C1241 C728 1.555 . S
C1265 C308 1.643 . S
C1273 C392 1.656 . S
C1297 C66 1.563 . S
C1305 C486 1.552 . S
C1329 C140 1.593 1_655 S
C1337 C560 1.664 . S
C1361 C644 1.656 . S
C1369 C224 1.654 . S
C1393 C63 1.598 . S
C1401 C747 1.760 . S
C1425 C156 1.436 . S
C1433 C915 1.630 . S
C1457 C999 1.667 . S
C1465 C240 1.465 . S
C1489 C324 1.464 . S
C1497 C831 1.712 . S
C1521 C408 1.534 . S
C1529 C823 1.700 . S
C1553 C739 1.859 . S
C1561 C483 1.695 . S
C1585 C907 1.809 . S
C1593 C576 1.550 . S
C1617 C991 1.744 . S
C1625 C660 1.530 . S
C1649 C75 1.789 . S
C1657 C315 1.663 . S
C1681 C72 1.592 . S
C1689 C151 1.814 . S
C1713 C147 1.692 . S
C1721 C235 1.886 . S
C1745 C319 1.833 . S
C1753 C231 1.719 . S
C1777 C492 1.527 . S
C1785 C403 1.694 . S
C1809 C495 1.630 . S
C1817 C567 1.525 . S
C1841 C571 1.744 . S
C1849 C651 1.586 . S
C1873 C399 1.615 . S
C1881 C655 1.765 . S
C1905 C735 1.562 . S
C1913 C327 1.705 . S
C1937 C487 1.731 . S
C1945 C828 1.506 . S
C1969 C744 1.482 . S
C1977 C579 1.705 . S
C2001 C912 1.459 . S
C2009 C663 1.642 . S
C2033 C411 1.639 . S
C2041 C996 1.430 . S
C2065 C987 1.466 . S
C2073 C159 1.622 . S
C2097 C243 1.617 . S
C2105 C819 1.508 . S
C2129 C903 1.587 . S
C2137 C67 1.756 . S
