# Generated by pormake.
# Topology hcp, (12)-cn, num edge types: 1
# Building blocks:
#     Node 0, Type 0, BuildingBlock: ZALLEG_clean_sbu_0, # of connection points: 12
#     Node 1, Type 0, BuildingBlock: ZALLEG_clean_sbu_0, # of connection points: 12
#     Edge 2, Type (0, 0), BuildingBlock: AJUNOK_clean_linker_0, # of connection points: 2
#     Edge 3, Type (0, 0), BuildingBlock: AJUNOK_clean_linker_0, # of connection points: 2
#     Edge 4, Type (0, 0), BuildingBlock: AJUNOK_clean_linker_0, # of connection points: 2
#     Edge 5, Type (0, 0), BuildingBlock: AJUNOK_clean_linker_0, # of connection points: 2
#     Edge 6, Type (0, 0), BuildingBlock: AJUNOK_clean_linker_0, # of connection points: 2
#     Edge 7, Type (0, 0), BuildingBlock: AJUNOK_clean_linker_0, # of connection points: 2
#     Edge 8, Type (0, 0), BuildingBlock: AJUNOK_clean_linker_0, # of connection points: 2
#     Edge 9, Type (0, 0), BuildingBlock: AJUNOK_clean_linker_0, # of connection points: 2
#     Edge 10, Type (0, 0), BuildingBlock: AJUNOK_clean_linker_0, # of connection points: 2
#     Edge 11, Type (0, 0), BuildingBlock: AJUNOK_clean_linker_0, # of connection points: 2
#     Edge 12, Type (0, 0), BuildingBlock: AJUNOK_clean_linker_0, # of connection points: 2
#     Edge 13, Type (0, 0), BuildingBlock: AJUNOK_clean_linker_0, # of connection points: 2
# Relax obj value: 0.186
# Max RMSD: 0.270
# Mean RMSD: 0.270
data_MOF--net-hcp--node1-ZALLEG_clean_sbu_0--edge1-AJUNOK_clean_linker_0
_symmetry_space_group_name_H-M    P1
_symmetry_Int_Tables_number       1
_symmetry_cell_setting            triclinic
loop_
_symmetry_equiv_pos_as_xyz
'x, y, z'
_cell_length_a     14.649711
_cell_length_b     14.639459
_cell_length_c     21.732597
_cell_angle_alpha  90.179319
_cell_angle_beta   89.902313
_cell_angle_gamma 119.83301
loop_
_atom_site_label
_atom_site_type_symbol
_atom_site_fract_x
_atom_site_fract_y
_atom_site_fract_z
_atom_type_partial_charge
H0 H 0.54485 0.09964 0.27718 0.0
O1 O 0.58257 0.17392 0.29036 0.0
Tb2 Tb 0.51212 0.26232 0.2577 0.0
Tb3 Tb 0.59568 0.17589 0.38643 0.0
Tb4 Tb 0.73306 0.24425 0.25679 0.0
O5 O 0.5072 0.24716 0.35509 0.0
O6 O 0.66487 0.32947 0.22019 0.0
O7 O 0.59269 0.41181 0.29212 0.0
O8 O 0.66618 0.32869 0.42194 0.0
O9 O 0.82063 0.40216 0.29103 0.0
O10 O 0.74637 0.25383 0.35374 0.0
H11 H 0.43509 0.21218 0.3721 0.0
H12 H 0.66497 0.32986 0.17463 0.0
Tb13 Tb 0.58178 0.39748 0.38841 0.0
Tb14 Tb 0.75035 0.48178 0.25783 0.0
H15 H 0.55577 0.4493 0.27915 0.0
H16 H 0.66801 0.32998 0.4672 0.0
Tb17 Tb 0.81811 0.41303 0.38717 0.0
H18 H 0.89476 0.4396 0.27789 0.0
H19 H 0.78197 0.2163 0.36933 0.0
O20 O 0.74036 0.48626 0.35532 0.0
H21 H 0.77721 0.55837 0.37246 0.0
O22 O 0.37957 0.10445 0.27863 0.0
O23 O 0.95171 0.57099 0.37017 0.0
O24 O 0.86046 0.34345 0.45586 0.0
O25 O 0.50964 0.37537 0.18372 0.0
O26 O 0.61918 0.04203 0.36892 0.0
O27 O 0.72465 0.61359 0.28016 0.0
O28 O 0.86695 0.48465 0.18368 0.0
O29 O 0.50043 0.138 0.46346 0.0
O30 O 0.62001 0.12926 0.18241 0.0
O31 O 0.63588 0.48457 0.46857 0.0
O32 O 0.42507 0.37514 0.37096 0.0
O33 O 0.89289 0.27102 0.27814 0.0
O34 O 0.43509 0.04528 0.36612 0.0
O35 O 0.9035 0.6175 0.27661 0.0
O36 O 0.68635 0.51487 0.17938 0.0
O37 O 0.6945 0.19074 0.47341 0.0
O38 O 0.3768 0.28173 0.27658 0.0
O39 O 0.94989 0.38682 0.36562 0.0
O40 O 0.80664 0.50346 0.47435 0.0
O41 O 0.48039 0.16697 0.17848 0.0
O42 O 0.49801 0.29828 0.47598 0.0
O43 O 0.82761 0.30735 0.17762 0.0
O44 O 0.71451 0.09046 0.27562 0.0
O45 O 0.6114 0.55868 0.36852 0.0
C46 C 0.36469 0.03348 0.32243 0.0
C47 C 0.96894 0.63717 0.32363 0.0
C48 C 0.79637 0.26197 0.48888 0.0
C49 C 0.58731 0.46993 0.16146 0.0
C50 C 0.66688 0.02403 0.32192 0.0
C51 C 0.66806 0.62813 0.32392 0.0
C52 C 0.88402 0.40672 0.1611 0.0
C53 C 0.47716 0.20019 0.4948 0.0
C54 C 0.52525 0.11263 0.16031 0.0
C55 C 0.72662 0.51877 0.49626 0.0
C56 C 0.3594 0.32939 0.3238 0.0
C57 C 0.96365 0.32953 0.32189 0.0
H58 H 0.10225 0.53975 0.77572 0.0
O59 O 0.17632 0.57759 0.78909 0.0
Tb60 Tb 0.17987 0.59169 0.88532 0.0
Tb61 Tb 0.26476 0.50732 0.75614 0.0
Tb62 Tb 0.24515 0.72752 0.75506 0.0
O63 O 0.25145 0.50377 0.85328 0.0
O64 O 0.25477 0.74216 0.85236 0.0
O65 O 0.33237 0.66237 0.91895 0.0
O66 O 0.4155 0.58837 0.78882 0.0
O67 O 0.4035 0.81637 0.78832 0.0
O68 O 0.33166 0.66004 0.71899 0.0
H69 H 0.21657 0.43173 0.87033 0.0
H70 H 0.21733 0.77725 0.86915 0.0
Tb71 Tb 0.40251 0.5793 0.88499 0.0
Tb72 Tb 0.41378 0.81445 0.88452 0.0
H73 H 0.33248 0.66311 0.96406 0.0
H74 H 0.45268 0.55111 0.77557 0.0
Tb75 Tb 0.48521 0.74663 0.75519 0.0
H76 H 0.43964 0.89058 0.77523 0.0
H77 H 0.33132 0.65943 0.67344 0.0
O78 O 0.48941 0.73822 0.85244 0.0
H79 H 0.56174 0.77549 0.8691 0.0
O80 O 0.04938 0.43319 0.86503 0.0
O81 O 0.6202 0.90186 0.77399 0.0
O82 O 0.516 0.68477 0.67453 0.0
O83 O 0.19481 0.68932 0.97384 0.0
O84 O 0.17143 0.47468 0.67679 0.0
O85 O 0.49592 0.7999 0.97338 0.0
O86 O 0.38542 0.9457 0.8639 0.0
O87 O 0.28313 0.37179 0.77549 0.0
O88 O 0.08973 0.70643 0.77373 0.0
O89 O 0.56082 0.6074 0.86453 0.0
O90 O 0.30792 0.50015 0.97446 0.0
O91 O 0.30657 0.81998 0.67474 0.0
O92 O 0.1059 0.37397 0.77774 0.0
O93 O 0.57038 0.94727 0.86756 0.0
O94 O 0.35048 0.85416 0.95847 0.0
O95 O 0.37728 0.50693 0.68111 0.0
O96 O 0.1423 0.49033 0.95993 0.0
O97 O 0.48448 0.85926 0.68098 0.0
O98 O 0.61822 0.72007 0.77632 0.0
O99 O 0.04631 0.61508 0.86843 0.0
O100 O 0.37943 0.42127 0.86879 0.0
O101 O 0.26919 0.88599 0.77674 0.0
O102 O 0.13268 0.61362 0.68028 0.0
O103 O 0.50432 0.64298 0.95881 0.0
C104 C 0.03577 0.36137 0.82199 0.0
C105 C 0.63733 0.96702 0.82118 0.0
C106 C 0.46994 0.58524 0.65725 0.0
C107 C 0.26901 0.78943 0.99148 0.0
C108 C 0.11758 0.51928 0.65809 0.0
C109 C 0.52129 0.72524 0.99141 0.0
C110 C 0.32608 0.95702 0.82066 0.0
C111 C 0.33014 0.35407 0.82265 0.0
C112 C 0.02537 0.65961 0.82113 0.0
C113 C 0.63123 0.66319 0.82068 0.0
C114 C 0.20838 0.47508 0.99284 0.0
C115 C 0.4061 0.87448 0.65789 0.0
C116 C 0.36801 0.83413 0.0889 0.0
C117 C 0.28707 0.8368 1.05423 0.0
C118 C 0.44734 0.92285 0.12098 0.0
C119 C 0.451 0.02059 0.11981 0.0
H120 H 0.37855 0.76682 0.08503 0.0
H121 H 0.50719 0.91505 0.14575 0.0
S122 S 0.2539 0.0705 1.03991 0.0
N123 N 0.21205 0.94489 1.02645 0.0
N124 N 0.36067 0.11219 0.08234 0.0
C125 C 0.36688 0.0229 0.08814 0.0
C126 C 0.28461 0.93126 1.05786 0.0
C127 C 0.59361 0.63675 0.5678 0.0
C128 C 0.54279 0.56669 0.61712 0.0
C129 C 0.68517 0.64674 0.53938 0.0
C130 C 0.72407 0.57745 0.553 0.0
H131 H 0.56356 0.68679 0.55176 0.0
H132 H 0.71362 0.69561 0.49864 0.0
S133 S 0.67115 0.44731 0.70615 0.0
N134 N 0.57458 0.47327 0.69788 0.0
N135 N 0.73998 0.48602 0.64171 0.0
C136 C 0.68633 0.52311 0.60956 0.0
C137 C 0.59623 0.51722 0.64095 0.0
C138 C 0.0729 0.52153 0.12069 0.0
C139 C 0.97836 0.42462 0.12222 0.0
C140 C 0.16288 0.53294 0.08888 0.0
C141 C 0.16407 0.44912 1.05628 0.0
H142 H 0.07714 0.58974 0.14308 0.0
H143 H 0.22783 0.61159 0.0834 0.0
S144 S 0.94369 0.17452 1.05254 0.0
N145 N 0.89715 0.23854 0.09234 0.0
N146 N 0.06578 0.26304 1.03511 0.0
C147 C 0.07404 0.35015 1.06299 0.0
C148 C 0.98154 0.33775 0.09394 0.0
C149 C 0.34291 0.96003 0.58129 0.0
C150 C 0.42514 0.96739 0.61905 0.0
C151 C 0.34789 0.04864 0.55229 0.0
C152 C 0.43818 0.14965 0.55603 0.0
H153 H 0.2735 0.8841 0.57336 0.0
H154 H 0.28672 0.03485 0.51941 0.0
S155 S 0.65732 0.21652 0.66592 0.0
N156 N 0.58494 0.08783 0.67182 0.0
N157 N 0.59969 0.25302 0.61363 0.0
C158 C 0.51477 0.15923 0.59943 0.0
C159 C 0.50825 0.06895 0.63045 0.0
C160 C 0.4778 0.55139 0.12328 0.0
C161 C 0.5694 0.54325 0.12024 0.0
C162 C 0.46941 0.63097 0.09064 0.0
C163 C 0.55222 0.70827 1.05385 0.0
H164 H 0.41122 0.49483 0.15005 0.0
H165 H 0.39247 0.62318 0.08842 0.0
S166 S 0.81234 0.72758 1.03324 0.0
N167 N 0.74737 0.62407 0.07802 0.0
N168 N 0.73184 0.77403 1.0214 0.0
C169 C 0.64701 0.70603 1.05536 0.0
C170 C 0.65469 0.62303 0.08598 0.0
C171 C 0.8459 0.3714 0.58031 0.0
C172 C 0.84371 0.28371 0.55109 0.0
C173 C 0.93405 0.44927 0.613 0.0
C174 C 0.02715 0.44503 0.61711 0.0
H175 H 0.78286 0.38653 0.57025 0.0
H176 H 0.93061 0.51492 0.63349 0.0
S177 S 0.06743 0.23374 0.54682 0.0
N178 N 0.94442 0.19787 0.52985 0.0
N179 N 0.11198 0.34346 0.58704 0.0
C180 C 0.026 0.35599 0.58902 0.0
C181 C 0.93428 0.27539 0.55806 0.0
C182 C 0.6277 0.85461 0.37163 0.0
C183 C 0.66739 0.92335 0.32105 0.0
C184 C 0.62771 0.75915 0.37207 0.0
C185 C 0.66771 0.72881 0.32204 0.0
H186 H 0.59667 0.87449 0.41155 0.0
H187 H 0.59671 0.7094 0.41226 0.0
S188 S 0.77661 0.87858 0.17681 0.0
N189 N 0.74485 0.95269 0.21855 0.0
N190 N 0.74484 0.77385 0.21924 0.0
C191 C 0.7065 0.79625 0.27069 0.0
C192 C 0.70638 0.89332 0.27024 0.0
C193 C 0.90766 0.72379 0.78145 0.0
C194 C 0.92369 0.65759 0.82138 0.0
C195 C 0.813 0.72513 0.78149 0.0
C196 C 0.73033 0.65976 0.8212 0.0
H197 H 0.96893 0.77594 0.7501 0.0
H198 H 0.80524 0.7784 0.75028 0.0
S199 S 0.72917 0.46466 0.93122 0.0
N200 N 0.84674 0.52032 0.89925 0.0
N201 N 0.66885 0.52219 0.89943 0.0
C202 C 0.74444 0.59115 0.86049 0.0
C203 C 0.84101 0.59015 0.86052 0.0
C204 C 0.2484 0.84942 0.35972 0.0
C205 C 0.26233 0.93408 0.32257 0.0
C206 C 0.15301 0.75424 0.36033 0.0
C207 C 0.06775 0.73971 0.32372 0.0
H208 H 0.31188 0.85586 0.38829 0.0
H209 H 0.14682 0.69122 0.38917 0.0
S210 S 0.06038 0.9388 0.22112 0.0
N211 N 0.18035 -0.00179 0.24997 0.0
N212 N 0.00141 0.81993 0.25145 0.0
C213 C 0.07975 0.82424 0.28708 0.0
C214 C 0.17688 0.92115 0.2864 0.0
C215 C 0.41269 0.24483 0.84544 0.0
C216 C 0.3262 0.25184 0.8237 0.0
C217 C 0.41187 0.14886 0.84432 0.0
C218 C 0.32438 0.05679 0.82156 0.0
H219 H 0.48228 0.31431 0.86221 0.0
H220 H 0.481 0.14729 0.86052 0.0
S221 S 0.07357 0.03199 0.76604 0.0
N222 N 0.14794 0.158 0.7831 0.0
N223 N 0.14613 0.97735 0.78119 0.0
C224 C 0.23638 0.06245 0.80114 0.0
C225 C 0.23734 0.16012 0.8022 0.0
C226 C 0.17293 0.25533 0.29039 0.0
C227 C 0.26004 0.3318 0.32359 0.0
C228 C 0.07759 0.25555 0.28967 0.0
C229 C 0.06598 0.33253 0.32197 0.0
H230 H 0.17779 0.19386 0.2653 0.0
H231 H 0.01233 0.19401 0.26419 0.0
S232 S 0.27435 0.5566 0.41124 0.0
N233 N 0.33116 0.49045 0.38637 0.0
N234 N 0.15265 0.4917 0.38503 0.0
C235 C 0.15358 0.4111 0.35427 0.0
C236 C 0.25041 0.4105 0.3551 0.0
C237 C 0.90833 0.18723 0.77543 0.0
C238 C 0.93423 0.26111 0.82323 0.0
C239 C 0.81237 0.09264 0.77514 0.0
C240 C 0.73817 0.06799 0.82259 0.0
H241 H 0.96214 0.20237 0.73754 0.0
H242 H 0.7966 0.03871 0.73716 0.0
S243 S 0.76682 0.23504 0.95867 0.0
N244 N 0.87714 0.30269 0.91979 0.0
N245 N 0.69704 0.12622 0.91868 0.0
C246 C 0.76284 0.14137 0.87069 0.0
C247 C 0.86067 0.23748 0.87115 0.0
loop_
_geom_bond_atom_site_label_1
_geom_bond_atom_site_label_2
_geom_bond_distance
_geom_bond_site_symmetry_2
_ccdc_geom_bond_type
H0 O1 0.850 . S
O1 H0 0.850 . S
O1 Tb2 2.341 . S
O1 Tb3 2.341 . S
O1 Tb4 2.341 . S
Tb2 O1 2.341 . S
Tb2 O5 2.341 . S
Tb2 O6 2.341 . S
Tb2 O7 2.341 . S
Tb2 O22 2.344 . S
Tb2 O25 2.344 . S
Tb2 O38 2.344 . S
Tb2 O41 2.344 . S
Tb3 O1 2.341 . S
Tb3 O5 2.341 . S
Tb3 O8 2.341 . S
Tb3 O10 2.341 . S
Tb3 O26 2.344 . S
Tb3 O29 2.344 . S
Tb3 O34 2.344 . S
Tb3 O37 2.344 . S
Tb4 O1 2.341 . S
Tb4 O6 2.341 . S
Tb4 O9 2.341 . S
Tb4 O10 2.341 . S
Tb4 O30 2.344 . S
Tb4 O33 2.344 . S
Tb4 O43 2.344 . S
Tb4 O44 2.344 . S
O5 Tb2 2.341 . S
O5 Tb3 2.341 . S
O5 H11 0.850 . S
O5 Tb13 2.341 . S
O6 Tb2 2.341 . S
O6 Tb4 2.341 . S
O6 H12 0.850 . S
O6 Tb14 2.341 . S
O7 Tb2 2.341 . S
O7 Tb13 2.341 . S
O7 Tb14 2.341 . S
O7 H15 0.850 . S
O8 Tb3 2.341 . S
O8 Tb13 2.341 . S
O8 H16 0.850 . S
O8 Tb17 2.341 . S
O9 Tb4 2.341 . S
O9 Tb14 2.341 . S
O9 Tb17 2.341 . S
O9 H18 0.850 . S
O10 Tb3 2.341 . S
O10 Tb4 2.341 . S
O10 Tb17 2.341 . S
O10 H19 0.850 . S
H11 O5 0.850 . S
H12 O6 0.850 . S
Tb13 O5 2.341 . S
Tb13 O7 2.341 . S
Tb13 O8 2.341 . S
Tb13 O20 2.341 . S
Tb13 O31 2.344 . S
Tb13 O32 2.344 . S
Tb13 O42 2.344 . S
Tb13 O45 2.344 . S
Tb14 O6 2.341 . S
Tb14 O7 2.341 . S
Tb14 O9 2.341 . S
Tb14 O20 2.341 . S
Tb14 O27 2.344 . S
Tb14 O28 2.344 . S
Tb14 O35 2.344 . S
Tb14 O36 2.344 . S
H15 O7 0.850 . S
H16 O8 0.850 . S
Tb17 O8 2.341 . S
Tb17 O9 2.341 . S
Tb17 O10 2.341 . S
Tb17 O20 2.341 . S
Tb17 O23 2.344 . S
Tb17 O24 2.344 . S
Tb17 O39 2.344 . S
Tb17 O40 2.344 . S
H18 O9 0.850 . S
H19 O10 0.850 . S
O20 Tb13 2.341 . S
O20 Tb14 2.341 . S
O20 Tb17 2.341 . S
O20 H21 0.850 . S
H21 O20 0.850 . S
O22 Tb2 2.344 . S
O22 C46 1.272 1_545 S
O23 Tb17 2.344 . S
O23 C47 1.272 . S
O24 Tb17 2.344 . S
O24 C48 1.272 . S
O25 Tb2 2.344 . S
O25 C49 1.272 . S
O26 Tb3 2.344 . S
O26 C50 1.272 . S
O27 Tb14 2.344 . S
O27 C51 1.272 . S
O28 Tb14 2.344 . S
O28 C52 1.272 . S
O29 Tb3 2.344 . S
O29 C53 1.272 . S
O30 Tb4 2.344 . S
O30 C54 1.272 . S
O31 Tb13 2.344 . S
O31 C55 1.272 . S
O32 Tb13 2.344 . S
O32 C56 1.272 . S
O33 Tb4 2.344 . S
O33 C57 1.272 1_655 S
O34 Tb3 2.344 . S
O34 C46 1.272 1_545 S
O35 Tb14 2.344 . S
O35 C47 1.272 . S
O36 Tb14 2.344 . S
O36 C49 1.272 . S
O37 Tb3 2.344 . S
O37 C48 1.272 . S
O38 Tb2 2.344 . S
O38 C56 1.272 . S
O39 Tb17 2.344 . S
O39 C57 1.272 1_655 S
O40 Tb17 2.344 . S
O40 C55 1.272 . S
O41 Tb2 2.344 . S
O41 C54 1.272 . S
O42 Tb13 2.344 . S
O42 C53 1.272 . S
O43 Tb4 2.344 . S
O43 C52 1.272 . S
O44 Tb4 2.344 . S
O44 C50 1.272 . S
O45 Tb13 2.344 . S
O45 C51 1.272 . S
C46 O22 1.272 1_565 S
C46 O34 1.272 1_565 S
C47 O23 1.272 . S
C47 O35 1.272 . S
C48 O24 1.272 . S
C48 O37 1.272 . S
C49 O25 1.272 . S
C49 O36 1.272 . S
C50 O26 1.272 . S
C50 O44 1.272 . S
C51 O27 1.272 . S
C51 O45 1.272 . S
C52 O28 1.272 . S
C52 O43 1.272 . S
C53 O29 1.272 . S
C53 O42 1.272 . S
C54 O30 1.272 . S
C54 O41 1.272 . S
C55 O31 1.272 . S
C55 O40 1.272 . S
C56 O32 1.272 . S
C56 O38 1.272 . S
C57 O33 1.272 1_455 S
C57 O39 1.272 1_455 S
H58 O59 0.850 . S
O59 H58 0.850 . S
O59 Tb60 2.341 . S
O59 Tb61 2.341 . S
O59 Tb62 2.341 . S
Tb60 O59 2.341 . S
Tb60 O63 2.341 . S
Tb60 O64 2.341 . S
Tb60 O65 2.341 . S
Tb60 O80 2.344 . S
Tb60 O83 2.344 . S
Tb60 O96 2.344 . S
Tb60 O99 2.344 . S
Tb61 O59 2.341 . S
Tb61 O63 2.341 . S
Tb61 O66 2.341 . S
Tb61 O68 2.341 . S
Tb61 O84 2.344 . S
Tb61 O87 2.344 . S
Tb61 O92 2.344 . S
Tb61 O95 2.344 . S
Tb62 O59 2.341 . S
Tb62 O64 2.341 . S
Tb62 O67 2.341 . S
Tb62 O68 2.341 . S
Tb62 O88 2.344 . S
Tb62 O91 2.344 . S
Tb62 O101 2.344 . S
Tb62 O102 2.344 . S
O63 Tb60 2.341 . S
O63 Tb61 2.341 . S
O63 H69 0.850 . S
O63 Tb71 2.341 . S
O64 Tb60 2.341 . S
O64 Tb62 2.341 . S
O64 H70 0.850 . S
O64 Tb72 2.341 . S
O65 Tb60 2.341 . S
O65 Tb71 2.341 . S
O65 Tb72 2.341 . S
O65 H73 0.850 . S
O66 Tb61 2.341 . S
O66 Tb71 2.341 . S
O66 H74 0.850 . S
O66 Tb75 2.341 . S
O67 Tb62 2.341 . S
O67 Tb72 2.341 . S
O67 Tb75 2.341 . S
O67 H76 0.850 . S
O68 Tb61 2.341 . S
O68 Tb62 2.341 . S
O68 Tb75 2.341 . S
O68 H77 0.850 . S
H69 O63 0.850 . S
H70 O64 0.850 . S
Tb71 O63 2.341 . S
Tb71 O65 2.341 . S
Tb71 O66 2.341 . S
Tb71 O78 2.341 . S
Tb71 O89 2.344 . S
Tb71 O90 2.344 . S
Tb71 O100 2.344 . S
Tb71 O103 2.344 . S
Tb72 O64 2.341 . S
Tb72 O65 2.341 . S
Tb72 O67 2.341 . S
Tb72 O78 2.341 . S
Tb72 O85 2.344 . S
Tb72 O86 2.344 . S
Tb72 O93 2.344 . S
Tb72 O94 2.344 . S
H73 O65 0.850 . S
H74 O66 0.850 . S
Tb75 O66 2.341 . S
Tb75 O67 2.341 . S
Tb75 O68 2.341 . S
Tb75 O78 2.341 . S
Tb75 O81 2.344 . S
Tb75 O82 2.344 . S
Tb75 O97 2.344 . S
Tb75 O98 2.344 . S
H76 O67 0.850 . S
H77 O68 0.850 . S
O78 Tb71 2.341 . S
O78 Tb72 2.341 . S
O78 Tb75 2.341 . S
O78 H79 0.850 . S
H79 O78 0.850 . S
O80 Tb60 2.344 . S
O80 C104 1.272 1_455 S
O81 Tb75 2.344 . S
O81 C105 1.272 . S
O82 Tb75 2.344 . S
O82 C106 1.272 . S
O83 Tb60 2.344 . S
O83 C107 1.272 . S
O84 Tb61 2.344 . S
O84 C108 1.272 . S
O85 Tb72 2.344 . S
O85 C109 1.272 . S
O86 Tb72 2.344 . S
O86 C110 1.272 1_565 S
O87 Tb61 2.344 . S
O87 C111 1.272 . S
O88 Tb62 2.344 . S
O88 C112 1.272 . S
O89 Tb71 2.344 . S
O89 C113 1.272 . S
O90 Tb71 2.344 . S
O90 C114 1.272 . S
O91 Tb62 2.344 . S
O91 C115 1.272 . S
O92 Tb61 2.344 . S
O92 C104 1.272 1_455 S
O93 Tb72 2.344 . S
O93 C105 1.272 . S
O94 Tb72 2.344 . S
O94 C107 1.272 . S
O95 Tb61 2.344 . S
O95 C106 1.272 . S
O96 Tb60 2.344 . S
O96 C114 1.272 . S
O97 Tb75 2.344 . S
O97 C115 1.272 . S
O98 Tb75 2.344 . S
O98 C113 1.272 . S
O99 Tb60 2.344 . S
O99 C112 1.272 . S
O100 Tb71 2.344 . S
O100 C111 1.272 . S
O101 Tb62 2.344 . S
O101 C110 1.272 1_565 S
O102 Tb62 2.344 . S
O102 C108 1.272 . S
O103 Tb71 2.344 . S
O103 C109 1.272 . S
C104 O80 1.272 1_655 S
C104 O92 1.272 1_655 S
C105 O81 1.272 . S
C105 O93 1.272 . S
C106 O82 1.272 . S
C106 O95 1.272 . S
C107 O83 1.272 . S
C107 O94 1.272 . S
C108 O84 1.272 . S
C108 O102 1.272 . S
C109 O85 1.272 . S
C109 O103 1.272 . S
C110 O86 1.272 1_545 S
C110 O101 1.272 1_545 S
C111 O87 1.272 . S
C111 O100 1.272 . S
C112 O88 1.272 . S
C112 O99 1.272 . S
C113 O89 1.272 . S
C113 O98 1.272 . S
C114 O90 1.272 . S
C114 O96 1.272 . S
C115 O91 1.272 . S
C115 O97 1.272 . S
C116 C117 1.369 1_554 S
C116 C118 1.419 . S
C116 H120 0.930 . S
C117 C116 1.369 1_556 S
C117 C126 1.429 . S
C118 C116 1.419 . S
C118 C119 1.363 1_565 S
C118 H121 0.929 . S
C119 C118 1.363 1_545 S
C119 C125 1.428 1_554 S
H120 C116 0.930 . S
H121 C118 0.929 . S
S122 N123 1.613 1_545 S
S122 N124 1.610 . S
N123 S122 1.613 1_565 S
N123 C126 1.350 . S
N124 S122 1.610 . S
N124 C125 1.351 . S
C125 C119 1.428 1_556 S
C125 N124 1.351 . S
C125 C126 1.434 1_545 S
C126 C117 1.429 . S
C126 N123 1.350 . S
C126 C125 1.434 1_565 S
C127 C128 1.369 . S
C127 C129 1.419 . S
C127 H131 0.930 . S
C128 C127 1.369 . S
C128 C137 1.429 . S
C129 C127 1.419 . S
C129 C130 1.363 . S
C129 H132 0.929 . S
C130 C129 1.363 . S
C130 C136 1.428 . S
H131 C127 0.930 . S
H132 C129 0.929 . S
S133 N134 1.613 . S
S133 N135 1.610 . S
N134 S133 1.613 . S
N134 C137 1.350 . S
N135 S133 1.610 . S
N135 C136 1.351 . S
C136 C130 1.428 . S
C136 N135 1.351 . S
C136 C137 1.434 . S
C137 C128 1.429 . S
C137 N134 1.350 . S
C137 C136 1.434 . S
C138 C139 1.369 1_455 S
C138 C140 1.419 1_554 S
C138 H142 0.930 . S
C139 C138 1.369 1_655 S
C139 C148 1.429 . S
C140 C138 1.419 1_556 S
C140 C141 1.363 . S
C140 H143 0.929 . S
C141 C140 1.363 . S
C141 C147 1.428 . S
H142 C138 0.930 . S
H143 C140 0.929 . S
S144 N145 1.613 . S
S144 N146 1.610 1_554 S
N145 S144 1.613 . S
N145 C148 1.350 . S
N146 S144 1.610 1_556 S
N146 C147 1.351 1_655 S
C147 C141 1.428 . S
C147 N146 1.351 1_455 S
C147 C148 1.434 1_456 S
C148 C139 1.429 . S
C148 N145 1.350 . S
C148 C147 1.434 1_654 S
C149 C150 1.369 . S
C149 C151 1.419 1_565 S
C149 H153 0.930 . S
C150 C149 1.369 . S
C150 C159 1.429 1_565 S
C151 C149 1.419 1_545 S
C151 C152 1.363 . S
C151 H154 0.929 . S
C152 C151 1.363 . S
C152 C158 1.428 . S
H153 C149 0.930 . S
H154 C151 0.929 . S
S155 N156 1.613 . S
S155 N157 1.610 . S
N156 S155 1.613 . S
N156 C159 1.350 . S
N157 S155 1.610 . S
N157 C158 1.351 . S
C158 C152 1.428 . S
C158 N157 1.351 . S
C158 C159 1.434 . S
C159 C150 1.429 1_545 S
C159 N156 1.350 . S
C159 C158 1.434 . S
C160 C161 1.369 1_556 S
C160 C162 1.419 . S
C160 H164 0.930 . S
C161 C160 1.369 1_554 S
C161 C170 1.429 . S
C162 C160 1.419 . S
C162 C163 1.363 . S
C162 H165 0.929 . S
C163 C162 1.363 . S
C163 C169 1.428 1_556 S
H164 C160 0.930 . S
H165 C162 0.929 . S
S166 N167 1.613 . S
S166 N168 1.610 . S
N167 S166 1.613 . S
N167 C170 1.350 . S
N168 S166 1.610 . S
N168 C169 1.351 . S
C169 C163 1.428 1_554 S
C169 N168 1.351 . S
C169 C170 1.434 . S
C170 C161 1.429 . S
C170 N167 1.350 . S
C170 C169 1.434 . S
C171 C172 1.369 . S
C171 C173 1.419 . S
C171 H175 0.930 . S
C172 C171 1.369 . S
C172 C181 1.429 . S
C173 C171 1.419 . S
C173 C174 1.363 1_655 S
C173 H176 0.929 . S
C174 C173 1.363 1_455 S
C174 C180 1.428 . S
H175 C171 0.930 . S
H176 C173 0.929 . S
S177 N178 1.613 . S
S177 N179 1.610 . S
N178 S177 1.613 . S
N178 C181 1.350 1_455 S
N179 S177 1.610 . S
N179 C180 1.351 . S
C180 C174 1.428 . S
C180 N179 1.351 . S
C180 C181 1.434 1_455 S
C181 C172 1.429 . S
C181 N178 1.350 1_655 S
C181 C180 1.434 1_655 S
C182 C183 1.369 . S
C182 C184 1.419 . S
C182 H186 0.930 . S
C183 C182 1.369 . S
C183 C192 1.429 . S
C184 C182 1.419 . S
C184 C185 1.363 . S
C184 H187 0.929 . S
C185 C184 1.363 . S
C185 C191 1.428 . S
H186 C182 0.930 . S
H187 C184 0.929 . S
S188 N189 1.613 . S
S188 N190 1.610 . S
N189 S188 1.613 . S
N189 C192 1.350 . S
N190 S188 1.610 . S
N190 C191 1.351 . S
C191 C185 1.428 . S
C191 N190 1.351 . S
C191 C192 1.434 . S
C192 C183 1.429 . S
C192 N189 1.350 . S
C192 C191 1.434 . S
C193 C194 1.369 . S
C193 C195 1.419 . S
C193 H197 0.930 . S
C194 C193 1.369 . S
C194 C203 1.429 . S
C195 C193 1.419 . S
C195 C196 1.363 . S
C195 H198 0.929 . S
C196 C195 1.363 . S
C196 C202 1.428 . S
H197 C193 0.930 . S
H198 C195 0.929 . S
S199 N200 1.613 . S
S199 N201 1.610 . S
N200 S199 1.613 . S
N200 C203 1.350 . S
N201 S199 1.610 . S
N201 C202 1.351 . S
C202 C196 1.428 . S
C202 N201 1.351 . S
C202 C203 1.434 . S
C203 C194 1.429 . S
C203 N200 1.350 . S
C203 C202 1.434 . S
C204 C205 1.369 . S
C204 C206 1.419 . S
C204 H208 0.930 . S
C205 C204 1.369 . S
C205 C214 1.429 . S
C206 C204 1.419 . S
C206 C207 1.363 . S
C206 H209 0.929 . S
C207 C206 1.363 . S
C207 C213 1.428 . S
H208 C204 0.930 . S
H209 C206 0.929 . S
S210 N211 1.613 . S
S210 N212 1.610 1_545 S
N211 S210 1.613 . S
N211 C214 1.350 1_545 S
N212 S210 1.610 1_565 S
N212 C213 1.351 . S
C213 C207 1.428 . S
C213 N212 1.351 . S
C213 C214 1.434 . S
C214 C205 1.429 . S
C214 N211 1.350 1_565 S
C214 C213 1.434 . S
C215 C216 1.369 . S
C215 C217 1.419 . S
C215 H219 0.930 . S
C216 C215 1.369 . S
C216 C225 1.429 . S
C217 C215 1.419 . S
C217 C218 1.363 . S
C217 H220 0.929 . S
C218 C217 1.363 . S
C218 C224 1.428 . S
H219 C215 0.930 . S
H220 C217 0.929 . S
S221 N222 1.613 . S
S221 N223 1.610 . S
N222 S221 1.613 . S
N222 C225 1.350 . S
N223 S221 1.610 . S
N223 C224 1.351 . S
C224 C218 1.428 . S
C224 N223 1.351 . S
C224 C225 1.434 . S
C225 C216 1.429 . S
C225 N222 1.350 . S
C225 C224 1.434 . S
C226 C227 1.369 . S
C226 C228 1.419 . S
C226 H230 0.930 . S
C227 C226 1.369 . S
C227 C236 1.429 . S
C228 C226 1.419 . S
C228 C229 1.363 . S
C228 H231 0.929 1_455 S
C229 C228 1.363 . S
C229 C235 1.428 . S
H230 C226 0.930 . S
H231 C228 0.929 1_655 S
S232 N233 1.613 . S
S232 N234 1.610 . S
N233 S232 1.613 . S
N233 C236 1.350 . S
N234 S232 1.610 . S
N234 C235 1.351 . S
C235 C229 1.428 . S
C235 N234 1.351 . S
C235 C236 1.434 . S
C236 C227 1.429 . S
C236 N233 1.350 . S
C236 C235 1.434 . S
C237 C238 1.369 . S
C237 C239 1.419 . S
C237 H241 0.930 . S
C238 C237 1.369 . S
C238 C247 1.429 . S
C239 C237 1.419 . S
C239 C240 1.363 . S
C239 H242 0.929 . S
C240 C239 1.363 . S
C240 C246 1.428 . S
H241 C237 0.930 . S
H242 C239 0.929 . S
S243 N244 1.613 . S
S243 N245 1.610 . S
N244 S243 1.613 . S
N244 C247 1.350 . S
N245 S243 1.610 . S
N245 C246 1.351 . S
C246 C240 1.428 . S
C246 N245 1.351 . S
C246 C247 1.434 . S
C247 C238 1.429 . S
C247 N244 1.350 . S
C247 C246 1.434 . S
C117 C107 1.906 . S
C119 C54 2.096 . S
C128 C106 2.095 . S
C130 C55 1.910 . S
C139 C52 2.090 . S
C141 C114 1.916 . S
C150 C115 2.096 . S
C152 C53 1.908 . S
C161 C49 2.090 . S
C163 C109 1.916 . S
C172 C48 1.917 . S
C174 C108 2.091 . S
C183 C50 1.245 1_565 S
C185 C51 1.248 . S
C194 C112 1.243 1_655 S
C196 C113 1.250 . S
C205 C46 1.242 . S
C207 C47 1.250 1_455 S
C216 C111 1.245 . S
C218 C110 1.248 . S
C227 C56 1.243 . S
C229 C57 1.250 . S
C238 C104 1.245 . S
C240 C105 1.248 1_545 S
