# Generated by pormake.
# Topology whw, (6)-cn, num edge types: 1
# Building blocks:
#     Node 0, Type 0, BuildingBlock: GEDQOX_clean_sbu_0, # of connection points: 6
#     Node 1, Type 0, BuildingBlock: GEDQOX_clean_sbu_0, # of connection points: 6
#     Node 2, Type 0, BuildingBlock: GEDQOX_clean_sbu_0, # of connection points: 6
#     Node 3, Type 0, BuildingBlock: GEDQOX_clean_sbu_0, # of connection points: 6
#     Node 4, Type 0, BuildingBlock: GEDQOX_clean_sbu_0, # of connection points: 6
#     Node 5, Type 0, BuildingBlock: GEDQOX_clean_sbu_0, # of connection points: 6
#     Node 6, Type 0, BuildingBlock: GEDQOX_clean_sbu_0, # of connection points: 6
#     Node 7, Type 0, BuildingBlock: GEDQOX_clean_sbu_0, # of connection points: 6
#     Node 8, Type 0, BuildingBlock: GEDQOX_clean_sbu_0, # of connection points: 6
#     Node 9, Type 0, BuildingBlock: GEDQOX_clean_sbu_0, # of connection points: 6
#     Node 10, Type 0, BuildingBlock: GEDQOX_clean_sbu_0, # of connection points: 6
#     Node 11, Type 0, BuildingBlock: GEDQOX_clean_sbu_0, # of connection points: 6
#     Node 12, Type 0, BuildingBlock: GEDQOX_clean_sbu_0, # of connection points: 6
#     Node 13, Type 0, BuildingBlock: GEDQOX_clean_sbu_0, # of connection points: 6
#     Node 14, Type 0, BuildingBlock: GEDQOX_clean_sbu_0, # of connection points: 6
#     Node 15, Type 0, BuildingBlock: GEDQOX_clean_sbu_0, # of connection points: 6
#     Edge 16, Type (0, 0), BuildingBlock: EZIPEK_clean_linker_0, # of connection points: 2
#     Edge 17, Type (0, 0), BuildingBlock: EZIPEK_clean_linker_0, # of connection points: 2
#     Edge 18, Type (0, 0), BuildingBlock: EZIPEK_clean_linker_0, # of connection points: 2
#     Edge 19, Type (0, 0), BuildingBlock: EZIPEK_clean_linker_0, # of connection points: 2
#     Edge 20, Type (0, 0), BuildingBlock: EZIPEK_clean_linker_0, # of connection points: 2
#     Edge 21, Type (0, 0), BuildingBlock: EZIPEK_clean_linker_0, # of connection points: 2
#     Edge 22, Type (0, 0), BuildingBlock: EZIPEK_clean_linker_0, # of connection points: 2
#     Edge 23, Type (0, 0), BuildingBlock: EZIPEK_clean_linker_0, # of connection points: 2
#     Edge 24, Type (0, 0), BuildingBlock: EZIPEK_clean_linker_0, # of connection points: 2
#     Edge 25, Type (0, 0), BuildingBlock: EZIPEK_clean_linker_0, # of connection points: 2
#     Edge 26, Type (0, 0), BuildingBlock: EZIPEK_clean_linker_0, # of connection points: 2
#     Edge 27, Type (0, 0), BuildingBlock: EZIPEK_clean_linker_0, # of connection points: 2
#     Edge 28, Type (0, 0), BuildingBlock: EZIPEK_clean_linker_0, # of connection points: 2
#     Edge 29, Type (0, 0), BuildingBlock: EZIPEK_clean_linker_0, # of connection points: 2
#     Edge 30, Type (0, 0), BuildingBlock: EZIPEK_clean_linker_0, # of connection points: 2
#     Edge 31, Type (0, 0), BuildingBlock: EZIPEK_clean_linker_0, # of connection points: 2
#     Edge 32, Type (0, 0), BuildingBlock: EZIPEK_clean_linker_0, # of connection points: 2
#     Edge 33, Type (0, 0), BuildingBlock: EZIPEK_clean_linker_0, # of connection points: 2
#     Edge 34, Type (0, 0), BuildingBlock: EZIPEK_clean_linker_0, # of connection points: 2
#     Edge 35, Type (0, 0), BuildingBlock: EZIPEK_clean_linker_0, # of connection points: 2
#     Edge 36, Type (0, 0), BuildingBlock: EZIPEK_clean_linker_0, # of connection points: 2
#     Edge 37, Type (0, 0), BuildingBlock: EZIPEK_clean_linker_0, # of connection points: 2
#     Edge 38, Type (0, 0), BuildingBlock: EZIPEK_clean_linker_0, # of connection points: 2
#     Edge 39, Type (0, 0), BuildingBlock: EZIPEK_clean_linker_0, # of connection points: 2
#     Edge 40, Type (0, 0), BuildingBlock: EZIPEK_clean_linker_0, # of connection points: 2
#     Edge 41, Type (0, 0), BuildingBlock: EZIPEK_clean_linker_0, # of connection points: 2
#     Edge 42, Type (0, 0), BuildingBlock: EZIPEK_clean_linker_0, # of connection points: 2
#     Edge 43, Type (0, 0), BuildingBlock: EZIPEK_clean_linker_0, # of connection points: 2
#     Edge 44, Type (0, 0), BuildingBlock: EZIPEK_clean_linker_0, # of connection points: 2
#     Edge 45, Type (0, 0), BuildingBlock: EZIPEK_clean_linker_0, # of connection points: 2
#     Edge 46, Type (0, 0), BuildingBlock: EZIPEK_clean_linker_0, # of connection points: 2
#     Edge 47, Type (0, 0), BuildingBlock: EZIPEK_clean_linker_0, # of connection points: 2
#     Edge 48, Type (0, 0), BuildingBlock: EZIPEK_clean_linker_0, # of connection points: 2
#     Edge 49, Type (0, 0), BuildingBlock: EZIPEK_clean_linker_0, # of connection points: 2
#     Edge 50, Type (0, 0), BuildingBlock: EZIPEK_clean_linker_0, # of connection points: 2
#     Edge 51, Type (0, 0), BuildingBlock: EZIPEK_clean_linker_0, # of connection points: 2
#     Edge 52, Type (0, 0), BuildingBlock: EZIPEK_clean_linker_0, # of connection points: 2
#     Edge 53, Type (0, 0), BuildingBlock: EZIPEK_clean_linker_0, # of connection points: 2
#     Edge 54, Type (0, 0), BuildingBlock: EZIPEK_clean_linker_0, # of connection points: 2
#     Edge 55, Type (0, 0), BuildingBlock: EZIPEK_clean_linker_0, # of connection points: 2
#     Edge 56, Type (0, 0), BuildingBlock: EZIPEK_clean_linker_0, # of connection points: 2
#     Edge 57, Type (0, 0), BuildingBlock: EZIPEK_clean_linker_0, # of connection points: 2
#     Edge 58, Type (0, 0), BuildingBlock: EZIPEK_clean_linker_0, # of connection points: 2
#     Edge 59, Type (0, 0), BuildingBlock: EZIPEK_clean_linker_0, # of connection points: 2
#     Edge 60, Type (0, 0), BuildingBlock: EZIPEK_clean_linker_0, # of connection points: 2
#     Edge 61, Type (0, 0), BuildingBlock: EZIPEK_clean_linker_0, # of connection points: 2
#     Edge 62, Type (0, 0), BuildingBlock: EZIPEK_clean_linker_0, # of connection points: 2
#     Edge 63, Type (0, 0), BuildingBlock: EZIPEK_clean_linker_0, # of connection points: 2
# Relax obj value: 0.227
# Max RMSD: 0.208
# Mean RMSD: 0.208
data_MOF--net-whw--node1-GEDQOX_clean_sbu_0--edge1-EZIPEK_clean_linker_0
_symmetry_space_group_name_H-M    P1
_symmetry_Int_Tables_number       1
_symmetry_cell_setting            triclinic
loop_
_symmetry_equiv_pos_as_xyz
'x, y, z'
_cell_length_a     33.693023
_cell_length_b     33.5841
_cell_length_c     28.137039
_cell_angle_alpha  90.035366
_cell_angle_beta   90.050512
_cell_angle_gamma 89.874632
loop_
_atom_site_label
_atom_site_type_symbol
_atom_site_fract_x
_atom_site_fract_y
_atom_site_fract_z
_atom_type_partial_charge
Nd0 Nd 0.95359 0.09222 0.12465 0.0
Nd1 Nd 0.03052 0.08946 0.18159 0.0
C2 C 0.89807 0.09074 0.05781 0.0
C3 C 0.89732 0.09557 1.00574 0.0
C4 C 0.93134 0.08863 0.97797 0.0
C5 C 0.93138 0.0982 0.92947 0.0
C6 C 0.89757 0.11531 0.90835 0.0
C7 C 0.86333 0.12115 0.93589 0.0
C8 C 0.86323 0.11137 0.98418 0.0
C9 C 0.96654 0.15907 0.17798 0.0
C10 C 0.03844 0.11866 0.07474 0.0
C11 C 0.08971 0.09188 0.24445 0.0
C12 C 0.10163 0.10645 0.29219 0.0
C13 C 0.07367 0.11631 0.32738 0.0
C14 C 0.08626 0.12956 0.37239 0.0
C15 C 0.12699 0.13305 0.383 0.0
C16 C 0.15478 0.12303 0.34776 0.0
C17 C 0.14221 0.11001 0.30285 0.0
C18 C 0.01857 0.02576 0.119 0.0
C19 C 0.94396 0.07529 0.23498 0.0
O20 O 0.9148 0.05867 0.07497 0.0
O21 O 0.90761 0.12266 0.08157 0.0
O22 O 0.93236 0.14193 0.17372 0.0
O23 O -0.00696 0.14072 0.15494 0.0
O24 O 0.00296 0.10263 0.06899 0.0
O25 O 0.05363 0.12418 0.11747 0.0
O26 O 0.0847 0.11841 0.21096 0.0
O27 O 0.06373 0.06301 0.24221 0.0
O28 O 0.05264 0.0414 0.12895 0.0
O29 O -0.00686 0.042 0.14577 0.0
O30 O 0.98039 0.08971 0.23797 0.0
O31 O 0.92868 0.06512 0.1934 0.0
H32 H 0.95813 0.07685 0.99398 0.0
H33 H 0.95806 0.0934 0.90876 0.0
H34 H 0.83697 0.13424 0.92021 0.0
H35 H 0.83686 0.1173 1.00506 0.0
H36 H 0.0422 0.11372 0.32011 0.0
H37 H 0.06426 0.13703 0.399 0.0
H38 H 0.18626 0.12531 0.35507 0.0
H39 H 0.16432 0.10248 0.27636 0.0
Nd40 Nd 0.15063 0.70028 0.38214 0.0
Nd41 Nd 0.15085 0.78114 0.43109 0.0
C42 C 0.15605 0.64137 0.31963 0.0
C43 C 0.14384 0.63583 0.2693 0.0
C44 C 0.16227 0.6572 0.23243 0.0
C45 C 0.15005 0.65255 0.18528 0.0
C46 C 0.11884 0.6267 0.17405 0.0
C47 C 0.10034 0.60512 0.21052 0.0
C48 C 0.11288 0.60951 0.25774 0.0
C49 C 0.08445 0.71481 0.43513 0.0
C50 C 0.12085 0.78053 0.32218 0.0
C51 C 0.14421 0.84303 0.48949 0.0
C52 C 0.13207 0.85465 0.53852 0.0
C53 C 0.09193 0.86165 0.54973 0.0
C54 C 0.08074 0.87283 0.59579 0.0
C55 C 0.10943 0.87806 0.63144 0.0
C56 C 0.14963 0.87248 0.62013 0.0
C57 C 0.16085 0.86092 0.57411 0.0
C58 C 0.21513 0.76859 0.3714 0.0
C59 C 0.16981 0.69817 0.49199 0.0
O60 O 0.18469 0.66654 0.32814 0.0
O61 O 0.12759 0.64394 0.35095 0.0
O62 O 0.10253 0.68073 0.43353 0.0
O63 O 0.10115 0.7403 0.40889 0.0
O64 O 0.12708 0.74173 0.32342 0.0
O65 O 0.12483 0.80298 0.36048 0.0
O66 O 0.11635 0.83215 0.45964 0.0
O67 O 0.17694 0.82224 0.48457 0.0
O68 O 0.19793 0.80254 0.37849 0.0
O69 O 0.19973 0.74313 0.3991 0.0
O70 O 0.15427 0.73441 0.49184 0.0
O71 O 0.18048 0.68098 0.45174 0.0
H72 H 0.18585 0.67791 0.23993 0.0
H73 H 0.16466 0.66945 0.15759 0.0
H74 H 0.07626 0.5849 0.20238 0.0
H75 H 0.09815 0.59256 0.28529 0.0
H76 H 0.06902 0.8581 0.52307 0.0
H77 H 0.04953 0.87662 0.60392 0.0
H78 H 0.17218 0.87593 0.64727 0.0
H79 H 0.19206 0.85658 0.5665 0.0
Nd80 Nd 0.54558 0.90357 0.63525 0.0
Nd81 Nd 0.4642 0.90823 0.68447 0.0
C82 C 0.60247 0.90894 0.57069 0.0
C83 C 0.60497 0.89447 0.52131 0.0
C84 C 0.6306 0.91272 0.48868 0.0
C85 C 0.63266 0.89892 0.44171 0.0
C86 C 0.60877 0.867 0.42685 0.0
C87 C 0.58233 0.8496 0.45909 0.0
C88 C 0.58052 0.86318 0.50592 0.0
C89 C 0.52342 0.83534 0.68149 0.0
C90 C 0.46384 0.88219 0.57356 0.0
C91 C 0.40299 0.90082 0.74287 0.0
C92 C 0.39255 0.88699 0.7913 0.0
C93 C 0.40796 0.8514 0.8103 0.0
C94 C 0.39633 0.83843 0.8556 0.0
C95 C 0.36928 0.86087 0.88265 0.0
C96 C 0.35416 0.8965 0.86384 0.0
C97 C 0.36565 0.90939 0.81856 0.0
C98 C 0.48105 0.97351 0.62801 0.0
C99 C 0.54842 0.91789 0.7458 0.0
O100 O 0.57607 0.93663 0.57807 0.0
O101 O 0.60223 0.8818 0.60401 0.0
O102 O 0.5597 0.84824 0.67981 0.0
O103 O 0.50089 0.85754 0.65737 0.0
O104 O 0.50282 0.88327 0.57665 0.0
O105 O 0.44104 0.88861 0.61113 0.0
O106 O 0.4131 0.8737 0.71152 0.0
O107 O 0.42408 0.93347 0.73959 0.0
O108 O 0.44584 0.96015 0.637 0.0
O109 O 0.50565 0.95494 0.65438 0.0
O110 O 0.5112 0.90533 0.74486 0.0
O111 O 0.56685 0.92847 0.70641 0.0
H112 H 0.64932 0.93724 0.49969 0.0
H113 H 0.65355 0.91237 0.41732 0.0
H114 H 0.56396 0.82472 0.44835 0.0
H115 H 0.56019 0.84897 0.53013 0.0
H116 H 0.42883 0.83357 0.79013 0.0
H117 H 0.40851 0.81097 0.86965 0.0
H118 H 0.33343 0.91431 0.88425 0.0
H119 H 0.35334 0.93685 0.80467 0.0
Nd120 Nd 0.34634 0.28276 0.88301 0.0
Nd121 Nd 0.3438 0.20297 0.93296 0.0
C122 C 0.33867 0.33821 0.81651 0.0
C123 C 0.3541 0.34089 0.76751 0.0
C124 C 0.33619 0.36646 0.73437 0.0
C125 C 0.35133 0.36941 0.68808 0.0
C126 C 0.38426 0.34641 0.67425 0.0
C127 C 0.40133 0.31989 0.70696 0.0
C128 C 0.3865 0.3173 0.75326 0.0
C129 C 0.41652 0.26404 0.92474 0.0
C130 C 0.36898 0.20014 0.82285 0.0
C131 C 0.35077 0.1412 0.99138 0.0
C132 C 0.36497 0.13026 0.03983 0.0
C133 C 0.40572 0.12819 0.05075 0.0
C134 C 0.41853 0.11794 0.09658 0.0
C135 C 0.39095 0.10812 0.13211 0.0
C136 C 0.3503 0.10862 0.12075 0.0
C137 C 0.33747 0.11986 0.07528 0.0
C138 C 0.27678 0.21938 0.87878 0.0
C139 C 0.33747 0.28698 0.996 0.0
O140 O 0.31264 0.31028 0.82386 0.0
O141 O 0.36492 0.34016 0.85063 0.0
O142 O 0.40112 0.29953 0.92459 0.0
O143 O 0.39488 0.23909 0.9032 0.0
O144 O 0.36778 0.23933 0.82513 0.0
O145 O 0.36217 0.17798 0.86066 0.0
O146 O 0.37735 0.15045 0.95924 0.0
O147 O 0.31869 0.16322 0.98843 0.0
O148 O 0.29178 0.1844 0.88579 0.0
O149 O 0.29539 0.24403 0.9049 0.0
O150 O 0.34743 0.24888 0.99425 0.0
O151 O 0.32832 0.30679 0.95674 0.0
H152 H 0.31095 0.3846 0.74452 0.0
H153 H 0.33803 0.39029 0.66341 0.0
H154 H 0.42695 0.3022 0.69708 0.0
H155 H 0.40078 0.29731 0.77811 0.0
H156 H 0.42778 0.13422 1.02386 0.0
H157 H 0.45004 0.11744 0.10427 0.0
H158 H 0.32846 0.10084 0.14739 0.0
H159 H 0.30593 0.12024 0.06775 0.0
Nd160 Nd 0.95587 0.89557 0.87965 0.0
Nd161 Nd 0.03382 0.89462 0.93246 0.0
C162 C 0.89494 0.89104 0.81996 0.0
C163 C 0.88522 0.87516 0.77253 0.0
C164 C 0.91464 0.85865 0.74313 0.0
C165 C 0.90466 0.84372 0.69818 0.0
C166 C 0.86519 0.8452 0.682 0.0
C167 C 0.83587 0.86179 0.71142 0.0
C168 C 0.84582 0.87655 0.75641 0.0
C169 C 0.97101 0.96351 0.93368 0.0
C170 C 0.04006 0.89964 0.81933 0.0
C171 C 0.08877 0.90226 0.99911 0.0
C172 C 0.08798 0.88909 0.04899 0.0
C173 C 0.11246 0.90692 0.0832 0.0
C174 C 0.11288 0.89243 0.12991 0.0
C175 C 0.08851 0.86026 0.14279 0.0
C176 C 0.0626 0.84386 0.10914 0.0
C177 C 0.06245 0.85811 0.06259 0.0
C178 C 0.01583 0.82235 0.89353 0.0
C179 C 0.95001 0.87131 0.98863 0.0
O180 O 0.90181 0.86488 0.85337 0.0
O181 O 0.9194 0.92122 0.8215 0.0
O182 O 0.93657 0.94743 0.92736 0.0
O183 O -0.00423 0.94497 0.90781 0.0
O184 O 0.00262 0.8881 0.82027 0.0
O185 O 0.05831 0.91147 0.85862 0.0
O186 O 0.06377 0.93039 0.98817 0.0
O187 O 0.08922 0.87389 0.96741 0.0
O188 O 0.05122 0.83739 0.89481 0.0
O189 O 0.99091 0.84514 0.91305 0.0
O190 O 0.98713 0.88375 0.99137 0.0
O191 O 0.93168 0.86748 0.94749 0.0
H192 H 0.94524 0.85744 0.75484 0.0
H193 H 0.92773 0.83122 0.67586 0.0
H194 H 0.80534 0.86341 0.69944 0.0
H195 H 0.82275 0.88923 0.77859 0.0
H196 H 0.13204 0.93112 0.07346 0.0
H197 H 0.13344 0.90502 0.1554 0.0
H198 H 0.04406 0.81868 0.11829 0.0
H199 H 0.04341 0.84399 0.03668 0.0
Nd200 Nd 0.35012 0.71419 0.13086 0.0
Nd201 Nd 0.35162 0.79607 0.18073 0.0
C202 C 0.35965 0.65308 0.07243 0.0
C203 C 0.37304 0.64283 1.0238 0.0
C204 C 0.40863 0.65779 1.00479 0.0
C205 C 0.42116 0.64626 0.95927 0.0
C206 C 0.39825 0.61977 0.93207 0.0
C207 C 0.36263 0.60509 0.95088 0.0
C208 C 0.3502 0.61646 0.99638 0.0
C209 C 0.28476 0.72866 0.1876 0.0
C210 C 0.33643 0.79846 0.07033 0.0
C211 C 0.34551 0.85249 0.24617 0.0
C212 C 0.36045 0.8543 0.2954 0.0
C213 C 0.34381 0.88088 0.32835 0.0
C214 C 0.35824 0.88226 0.37509 0.0
C215 C 0.38895 0.85655 0.38947 0.0
C216 C 0.40457 0.8291 0.35696 0.0
C217 C 0.39069 0.82827 0.31026 0.0
C218 C 0.4199 0.77624 0.13353 0.0
C219 C 0.37521 0.71408 0.24154 0.0
O220 O 0.38669 0.66456 0.10309 0.0
O221 O 0.32615 0.67277 0.07634 0.0
O222 O 0.29939 0.69387 0.17837 0.0
O223 O 0.30223 0.75412 0.16147 0.0
O224 O 0.35035 0.76156 0.07089 0.0
O225 O 0.32548 0.81658 0.10989 0.0
O226 O 0.31829 0.82577 0.23851 0.0
O227 O 0.37229 0.85301 0.21256 0.0
O228 O 0.40566 0.81217 0.13533 0.0
O229 O 0.39896 0.75299 0.15808 0.0
O230 O 0.37265 0.75312 0.23883 0.0
O231 O 0.37032 0.69115 0.20376 0.0
H232 H 0.42681 0.67823 1.02509 0.0
H233 H 0.44862 0.65809 0.94517 0.0
H234 H 0.34449 0.5848 0.93031 0.0
H235 H 0.32273 0.60448 1.0103 0.0
H236 H 0.32017 0.90091 0.31774 0.0
H237 H 0.34618 0.90395 0.39969 0.0
H238 H 0.42859 0.8094 0.36726 0.0
H239 H 0.40405 0.80756 0.28572 0.0
Nd240 Nd 0.53995 0.09407 0.37924 0.0
Nd241 Nd 0.4598 0.0969 0.43158 0.0
C242 C 0.60106 0.09919 0.32002 0.0
C243 C 0.61098 0.11236 0.27137 0.0
C244 C 0.5817 0.1163 0.23611 0.0
C245 C 0.59177 0.13032 0.19076 0.0
C246 C 0.63121 0.14076 0.18003 0.0
C247 C 0.66048 0.13627 0.21517 0.0
C248 C 0.65043 0.1221 0.2604 0.0
C249 C 0.52541 0.02994 0.43926 0.0
C250 C 0.45538 0.0812 0.32054 0.0
C251 C 0.40036 0.09361 0.49332 0.0
C252 C 0.39747 0.09836 0.54509 0.0
C253 C 0.3604 0.10574 0.56579 0.0
C254 C 0.35791 0.11762 0.61329 0.0
C255 C 0.39257 0.12282 0.64042 0.0
C256 C 0.42952 0.11327 0.62045 0.0
C257 C 0.43189 0.10072 0.57318 0.0
C258 C 0.47894 0.16495 0.38185 0.0
C259 C 0.5433 0.12003 0.48835 0.0
O260 O 0.59164 0.12711 0.35048 0.0
O261 O 0.57895 0.06734 0.32422 0.0
O262 O 0.56007 0.04467 0.43024 0.0
O263 O 0.50056 0.04693 0.41208 0.0
O264 O 0.49223 0.09474 0.31986 0.0
O265 O 0.43775 0.0715 0.3608 0.0
O266 O 0.41909 0.06231 0.47763 0.0
O267 O 0.41014 0.12574 0.47029 0.0
O268 O 0.44348 0.1503 0.3843 0.0
O269 O 0.50228 0.14423 0.40649 0.0
O270 O 0.50691 0.10538 0.49089 0.0
O271 O 0.56103 0.12549 0.44701 0.0
H272 H 0.55104 0.10913 0.24385 0.0
H273 H 0.56865 0.13396 0.16432 0.0
H274 H 0.69092 0.14457 0.20787 0.0
H275 H 0.67343 0.11936 0.28715 0.0
H276 H 0.33356 0.10417 0.54462 0.0
H277 H 0.32916 0.12499 0.62813 0.0
H278 H 0.45658 0.11724 0.64073 0.0
H279 H 0.46071 0.09462 0.55813 0.0
Nd280 Nd 0.15134 0.28051 0.63037 0.0
Nd281 Nd 0.14656 0.20168 0.68086 0.0
C282 C 0.15164 0.34156 0.57037 0.0
C283 C 0.13804 0.35269 0.52183 0.0
C284 C 0.10377 0.37622 0.5161 0.0
C285 C 0.09037 0.3868 0.47073 0.0
C286 C 0.11121 0.37453 0.43013 0.0
C287 C 0.14607 0.352 0.43556 0.0
C288 C 0.15942 0.3412 0.481 0.0
C289 C 0.21355 0.2657 0.69349 0.0
C290 C 0.16372 0.19674 0.57012 0.0
C291 C 0.14573 0.14323 0.74414 0.0
C292 C 0.13609 0.14119 0.7952 0.0
C293 C 0.14585 0.17247 0.82637 0.0
C294 C 0.13282 0.17176 0.87362 0.0
C295 C 0.10929 0.14016 0.89002 0.0
C296 C 0.09988 0.10881 0.85905 0.0
C297 C 0.11327 0.10928 0.81204 0.0
C298 C 0.08066 0.21837 0.62744 0.0
C299 C 0.11932 0.28478 0.73595 0.0
O300 O 0.1243 0.33623 0.60276 0.0
O301 O 0.18094 0.31606 0.57415 0.0
O302 O 0.1977 0.30011 0.68545 0.0
O303 O 0.19809 0.24103 0.66492 0.0
O304 O 0.14996 0.23362 0.5702 0.0
O305 O 0.17376 0.17923 0.61054 0.0
O306 O 0.17799 0.16207 0.73182 0.0
O307 O 0.11584 0.15166 0.71653 0.0
O308 O 0.09751 0.18376 0.62939 0.0
O309 O 0.09873 0.24338 0.65302 0.0
O310 O 0.13398 0.24835 0.73974 0.0
O311 O 0.1159 0.30242 0.69432 0.0
H312 H 0.08691 0.386 0.54674 0.0
H313 H 0.06312 0.40373 0.46722 0.0
H314 H 0.16219 0.34172 0.40459 0.0
H315 H 0.18615 0.32341 0.48404 0.0
H316 H 0.16281 0.19778 0.81402 0.0
H317 H 0.14034 0.19619 0.89709 0.0
H318 H 0.08185 0.08416 0.87121 0.0
H319 H 0.10501 0.08516 0.78845 0.0
Nd320 Nd 0.83803 0.19965 0.62034 0.0
Nd321 Nd 0.86069 0.27475 0.67745 0.0
C322 C 0.82671 0.14361 0.55484 0.0
C323 C 0.84239 0.13207 0.50758 0.0
C324 C 0.87831 0.14757 0.49026 0.0
C325 C 0.89309 0.13544 0.44587 0.0
C326 C 0.87212 0.10778 0.41801 0.0
C327 C 0.83612 0.09251 0.43525 0.0
C328 C 0.82144 0.10452 0.47966 0.0
C329 C 0.78328 0.22248 0.68969 0.0
C330 C 0.83788 0.28907 0.56922 0.0
C331 C 0.87284 0.32996 0.74303 0.0
C332 C 0.87471 0.33182 0.79515 0.0
C333 C 0.86168 0.2999 0.82337 0.0
C334 C 0.86659 0.30107 0.87279 0.0
C335 C 0.88518 0.33389 0.8943 0.0
C336 C 0.89752 0.36598 0.86605 0.0
C337 C 0.8923 0.36494 0.81683 0.0
C338 C 0.91821 0.24819 0.61482 0.0
C339 C 0.87387 0.18554 0.7242 0.0
O340 O 0.85081 0.13961 0.59095 0.0
O341 O 0.80566 0.17636 0.55714 0.0
O342 O 0.78907 0.18634 0.67538 0.0
O343 O 0.80283 0.24503 0.66244 0.0
O344 O 0.84426 0.2503 0.56456 0.0
O345 O 0.83448 0.30552 0.61171 0.0
O346 O 0.83812 0.32317 0.72389 0.0
O347 O 0.90139 0.30991 0.72266 0.0
O348 O 0.9114 0.28533 0.62457 0.0
O349 O 0.8964 0.2268 0.64067 0.0
O350 O 0.86514 0.22344 0.73173 0.0
O351 O 0.8725 0.16978 0.68114 0.0
H352 H 0.89492 0.16898 0.51106 0.0
H353 H 0.92081 0.14773 0.43314 0.0
H354 H 0.81941 0.07129 0.41429 0.0
H355 H 0.7937 0.09218 0.49228 0.0
H356 H 0.84829 0.27393 0.80716 0.0
H357 H 0.85677 0.27613 0.89412 0.0
H358 H 0.91183 0.39154 0.8821 0.0
H359 H 0.90276 0.38966 0.79555 0.0
Nd360 Nd 0.66029 0.79218 0.13152 0.0
Nd361 Nd 0.65137 0.71033 0.17896 0.0
C362 C 0.6555 0.85383 0.07297 0.0
C363 C 0.64078 0.86389 1.02472 0.0
C364 C 0.60504 0.84814 1.00689 0.0
C365 C 0.59117 0.85918 0.9617 0.0
C366 C 0.61284 0.88596 0.93353 0.0
C367 C 0.64864 0.90142 0.95116 0.0
C368 C 0.66242 0.89052 0.99636 0.0
C369 C 0.72443 0.77053 0.18765 0.0
C370 C 0.66589 0.708 0.06873 0.0
C371 C 0.65192 0.65126 0.2412 0.0
C372 C 0.63897 0.64968 0.29105 0.0
C373 C 0.6545 0.62087 0.322 0.0
C374 C 0.64192 0.61954 0.3694 0.0
C375 C 0.61405 0.64732 0.38626 0.0
C376 C 0.5997 0.67697 0.35578 0.0
C377 C 0.61196 0.67804 0.3085 0.0
C378 C 0.58482 0.73731 0.13298 0.0
C379 C 0.63523 0.79296 0.24233 0.0
O380 O 0.62879 0.84578 0.10543 0.0
O381 O 0.68689 0.83078 0.07573 0.0
O382 O 0.71271 0.80678 0.1802 0.0
O383 O 0.70463 0.74752 0.16062 0.0
O384 O 0.65479 0.74584 0.07039 0.0
O385 O 0.67568 0.68863 0.10779 0.0
O386 O 0.68223 0.67419 0.23315 0.0
O387 O 0.62399 0.65581 0.20938 0.0
O388 O 0.59596 0.70032 0.13329 0.0
O389 O 0.60798 0.75802 0.15792 0.0
O390 O 0.63654 0.75382 0.23941 0.0
O391 O 0.6406 0.81578 0.20452 0.0
H392 H 0.5878 0.82744 1.0279 0.0
H393 H 0.56363 0.8467 0.9486 0.0
H394 H 0.6659 0.92192 0.92988 0.0
H395 H 0.69 0.90306 1.0093 0.0
H396 H 0.67577 0.59909 0.30932 0.0
H397 H 0.65287 0.59616 0.39249 0.0
H398 H 0.57782 0.69829 0.36811 0.0
H399 H 0.59971 0.70061 0.28546 0.0
Nd400 Nd 0.64938 0.21727 0.8827 0.0
Nd401 Nd 0.66258 0.29819 0.93095 0.0
C402 C 0.64934 0.15744 0.82105 0.0
C403 C 0.63704 0.15178 0.77081 0.0
C404 C 0.65877 0.16855 0.73313 0.0
C405 C 0.64565 0.16467 0.68616 0.0
C406 C 0.61079 0.14356 0.67596 0.0
C407 C 0.5895 0.12597 0.71324 0.0
C408 C 0.60254 0.12998 0.76023 0.0
C409 C 0.58442 0.24414 0.93165 0.0
C410 C 0.63483 0.30075 0.82094 0.0
C411 C 0.66005 0.35922 0.99104 0.0
C412 C 0.64232 0.36791 0.03828 0.0
C413 C 0.60589 0.35113 0.05225 0.0
C414 C 0.5894 0.36014 0.09685 0.0
C415 C 0.60906 0.386 0.1283 0.0
C416 C 0.6455 0.40259 0.11443 0.0
C417 C 0.66193 0.39367 0.06984 0.0
C418 C 0.72639 0.27334 0.87646 0.0
C419 C 0.66177 0.21488 0.99564 0.0
O420 O 0.68027 0.17983 0.82926 0.0
O421 O 0.62092 0.16359 0.85171 0.0
O422 O 0.59478 0.20701 0.92795 0.0
O423 O 0.60739 0.26563 0.90686 0.0
O424 O 0.63179 0.26159 0.82387 0.0
O425 O 0.64534 0.32279 0.85781 0.0
O426 O 0.6354 0.35478 0.95551 0.0
O427 O 0.68939 0.3336 0.98982 0.0
O428 O 0.71648 0.31016 0.88384 0.0
O429 O 0.70476 0.25116 0.90242 0.0
O430 O 0.66013 0.25406 0.99331 0.0
O431 O 0.66449 0.19281 0.95675 0.0
H432 H 0.68564 0.18511 0.73987 0.0
H433 H 0.6625 0.17839 0.65779 0.0
H434 H 0.56258 0.10945 0.70595 0.0
H435 H 0.58535 0.11641 0.7884 0.0
H436 H 0.59018 0.33106 1.02872 0.0
H437 H 0.56146 0.34671 0.10698 0.0
H438 H 0.6613 0.42235 0.13824 0.0
H439 H 0.69002 0.40692 0.05997 0.0
Nd440 Nd 0.86353 0.7702 0.38705 0.0
Nd441 Nd 0.84169 0.69131 0.43615 0.0
C442 C 0.87312 0.83063 0.32786 0.0
C443 C 0.88129 0.83526 0.27667 0.0
C444 C 0.85847 0.8151 0.24253 0.0
C445 C 0.86701 0.8188 0.19425 0.0
C446 C 0.89878 0.84252 0.17942 0.0
C447 C 0.92178 0.86273 0.21326 0.0
C448 C 0.91302 0.85918 0.26165 0.0
C449 C 0.92141 0.73965 0.4459 0.0
C450 C 0.87535 0.68476 0.32834 0.0
C451 C 0.83397 0.63339 0.49974 0.0
C452 C 0.85125 0.62427 0.54707 0.0
C453 C 0.88726 0.64149 0.56183 0.0
C454 C 0.90372 0.63196 0.60628 0.0
C455 C 0.88434 0.6053 0.63693 0.0
C456 C 0.84815 0.58846 0.62241 0.0
C457 C 0.83181 0.59781 0.57785 0.0
C458 C 0.78459 0.71828 0.37269 0.0
C459 C 0.84018 0.77727 0.49489 0.0
O460 O 0.83841 0.81639 0.33968 0.0
O461 O 0.90196 0.81586 0.35345 0.0
O462 O 0.91389 0.77735 0.44087 0.0
O463 O 0.89981 0.71976 0.41794 0.0
O464 O 0.87705 0.72407 0.32899 0.0
O465 O 0.8656 0.66397 0.36667 0.0
O466 O 0.85816 0.63151 0.46348 0.0
O467 O 0.80983 0.66395 0.49728 0.0
O468 O 0.79094 0.6813 0.38326 0.0
O469 O 0.8053 0.73958 0.40051 0.0
O470 O 0.84795 0.73865 0.49587 0.0
O471 O 0.83559 0.79604 0.45419 0.0
H472 H 0.83423 0.79622 0.25316 0.0
H473 H 0.84906 0.80299 0.16847 0.0
H474 H 0.94648 0.88113 0.20217 0.0
H475 H 0.93117 0.87484 0.28736 0.0
H476 H 0.90269 0.66226 0.53896 0.0
H477 H 0.93152 0.64548 0.61687 0.0
H478 H 0.83261 0.56801 0.64557 0.0
H479 H 0.80399 0.58429 0.56736 0.0
Nd480 Nd 0.46001 0.60257 0.63368 0.0
Nd481 Nd 0.54194 0.59575 0.68142 0.0
C482 C 0.40209 0.5998 0.5702 0.0
C483 C 0.40059 0.61387 0.52073 0.0
C484 C 0.3743 0.59664 0.48804 0.0
C485 C 0.37347 0.60995 0.44086 0.0
C486 C 0.39935 0.64022 0.42598 0.0
C487 C 0.42652 0.65641 0.45826 0.0
C488 C 0.42699 0.64345 0.50528 0.0
C489 C 0.48417 0.66979 0.68078 0.0
C490 C 0.54173 0.62203 0.57112 0.0
C491 C 0.60309 0.60218 0.74022 0.0
C492 C 0.61264 0.61685 0.78867 0.0
C493 C 0.59741 0.65313 0.806 0.0
C494 C 0.60802 0.66692 0.85136 0.0
C495 C 0.63387 0.64463 0.88022 0.0
C496 C 0.6488 0.60829 0.86311 0.0
C497 C 0.63833 0.59459 0.81773 0.0
C498 C 0.52291 0.53151 0.62392 0.0
C499 C 0.45822 0.58657 0.74343 0.0
O500 O 0.42672 0.5706 0.57782 0.0
O501 O 0.40427 0.62724 0.60309 0.0
O502 O 0.44768 0.65746 0.6798 0.0
O503 O 0.5059 0.64745 0.65584 0.0
O504 O 0.50278 0.62106 0.57445 0.0
O505 O 0.56484 0.61577 0.60845 0.0
O506 O 0.59413 0.62894 0.70798 0.0
O507 O 0.58133 0.56994 0.73706 0.0
O508 O 0.55858 0.544 0.63242 0.0
O509 O 0.49922 0.5503 0.65116 0.0
O510 O 0.49549 0.59887 0.74218 0.0
O511 O 0.43924 0.57662 0.7042 0.0
H512 H 0.35411 0.57337 0.49913 0.0
H513 H 0.35197 0.59755 0.41637 0.0
H514 H 0.44633 0.68011 0.44745 0.0
H515 H 0.44774 0.65694 0.52959 0.0
H516 H 0.57743 0.67089 0.78447 0.0
H517 H 0.59596 0.6949 0.86405 0.0
H518 H 0.66858 0.59056 0.88492 0.0
H519 H 0.65048 0.56659 0.8052 0.0
Nd520 Nd 0.02627 0.38209 0.13503 0.0
Nd521 Nd 0.94804 0.40326 0.18621 0.0
C522 C 0.08444 0.37269 0.07281 0.0
C523 C 0.08799 0.36664 1.02118 0.0
C524 C 0.05896 0.38085 0.98948 0.0
C525 C 0.06109 0.37124 0.94107 0.0
C526 C 0.09171 0.34654 0.92414 0.0
C527 C 0.12078 0.33268 0.95581 0.0
C528 C 0.11899 0.34278 1.00392 0.0
C529 C -0.00146 0.32225 0.19257 0.0
C530 C 0.93971 0.36505 0.08273 0.0
C531 C 0.88893 0.41288 0.24787 0.0
C532 C 0.87848 0.39603 0.29487 0.0
C533 C 0.90154 0.3656 0.31526 0.0
C534 C 0.89197 0.35018 0.36012 0.0
C535 C 0.85892 0.36468 0.38521 0.0
C536 C 0.83553 0.39477 0.36458 0.0
C537 C 0.84533 0.41041 0.31983 0.0
C538 C 0.97333 0.45907 0.11961 0.0
C539 C 0.0329 0.39945 0.24717 0.0
O540 O 0.07266 0.40764 0.08797 0.0
O541 O 0.06795 0.34332 0.09574 0.0
O542 O 0.03575 0.32986 0.18529 0.0
O543 O 0.97735 0.34486 0.16699 0.0
O544 O 0.97793 0.37299 0.07781 0.0
O545 O 0.92148 0.36823 0.1241 0.0
O546 O 0.88741 0.38843 0.21178 0.0
O547 O 0.9202 0.43589 0.24645 0.0
O548 O 0.93671 0.45177 0.1303 0.0
O549 O -0.00497 0.43992 0.14853 0.0
O550 O -0.00627 0.39938 0.24702 0.0
O551 O 0.05352 0.39973 0.20705 0.0
H552 H 0.03432 0.39862 1.00226 0.0
H553 H 0.03844 0.38223 0.91704 0.0
H554 H 0.14467 0.31375 0.94328 0.0
H555 H 0.14134 0.33114 1.02793 0.0
H556 H 0.92694 0.35385 0.29644 0.0
H557 H 0.91039 0.32697 0.37531 0.0
H558 H 0.80995 0.4064 0.38337 0.0
H559 H 0.82707 0.43381 0.30476 0.0
Nd560 Nd 0.4569 0.40548 0.37987 0.0
Nd561 Nd 0.53924 0.39925 0.42666 0.0
C562 C 0.39418 0.40059 0.32297 0.0
C563 C 0.38279 0.38786 0.27426 0.0
C564 C 0.40601 0.39752 0.23441 0.0
C565 C 0.39496 0.38444 0.18894 0.0
C566 C 0.36062 0.36126 0.18237 0.0
C567 C 0.33705 0.35221 0.22204 0.0
C568 C 0.34798 0.36552 0.2675 0.0
C569 C 0.47586 0.46958 0.43762 0.0
C570 C 0.54013 0.41331 0.31594 0.0
C571 C 0.59894 0.4027 0.4876 0.0
C572 C 0.60199 0.39113 0.53785 0.0
C573 C 0.6282 0.41118 0.56828 0.0
C574 C 0.63099 0.4002 0.61614 0.0
C575 C 0.60748 0.36914 0.63393 0.0
C576 C 0.58038 0.34998 0.60389 0.0
C577 C 0.57759 0.36096 0.55619 0.0
C578 C 0.51462 0.33139 0.38109 0.0
C579 C 0.4585 0.37891 0.49089 0.0
O580 O 0.40425 0.37249 0.35301 0.0
O581 O 0.41612 0.43264 0.32712 0.0
O582 O 0.44036 0.45639 0.42992 0.0
O583 O 0.49958 0.45131 0.40986 0.0
O584 O 0.5027 0.40133 0.31791 0.0
O585 O 0.5593 0.4238 0.35487 0.0
O586 O 0.57525 0.43249 0.47899 0.0
O587 O 0.59463 0.37377 0.45695 0.0
O588 O 0.55107 0.34372 0.38135 0.0
O589 O 0.49319 0.35415 0.40581 0.0
O590 O 0.49739 0.38244 0.48786 0.0
O591 O 0.43538 0.3834 0.45306 0.0
H592 H 0.43304 0.41459 0.23846 0.0
H593 H 0.41393 0.39128 0.15899 0.0
H594 H 0.31084 0.3339 0.218 0.0
H595 H 0.32954 0.35776 0.29761 0.0
H596 H 0.64683 0.4349 0.55487 0.0
H597 H 0.65231 0.41498 0.63891 0.0
H598 H 0.56228 0.32575 0.61706 0.0
H599 H 0.5568 0.34543 0.53353 0.0
Nd600 Nd 0.04719 0.57646 0.87568 0.0
Nd601 Nd 0.96962 0.58605 0.9317 0.0
C602 C 0.10599 0.57759 0.8126 0.0
C603 C 0.11686 0.59499 0.76596 0.0
C604 C 0.08798 0.6062 0.73239 0.0
C605 C 0.09936 0.62237 0.68842 0.0
C606 C 0.13973 0.62777 0.67736 0.0
C607 C 0.16848 0.61671 0.71105 0.0
C608 C 0.15712 0.60054 0.75492 0.0
C609 C 0.02675 0.5114 0.93211 0.0
C610 C 0.96001 0.57615 0.82027 0.0
C611 C 0.91316 0.58494 0.99712 0.0
C612 C 0.91316 0.58951 0.04921 0.0
C613 C 0.88175 0.5743 0.07631 0.0
C614 C 0.87907 0.58311 0.12487 0.0
C615 C 0.90773 0.6074 0.14666 0.0
C616 C 0.94055 0.62028 0.12026 0.0
C617 C 0.94329 0.61129 0.07189 0.0
C618 C -0.00565 0.65386 0.88459 0.0
C619 C 0.05608 0.59975 0.98582 0.0
O620 O 0.10353 0.6022 0.8485 0.0
O621 O 0.07823 0.55033 0.81328 0.0
O622 O 0.06272 0.52266 0.92313 0.0
O623 O 0.00346 0.53244 0.90708 0.0
O624 O -0.00213 0.58666 0.81903 0.0
O625 O 0.94301 0.5657 0.86068 0.0
O626 O 0.92981 0.55285 0.9803 0.0
O627 O 0.92257 0.61668 0.97286 0.0
O628 O 0.95754 0.64332 0.88952 0.0
O629 O 0.01613 0.62964 0.90678 0.0
O630 O 0.01812 0.59036 0.98958 0.0
O631 O 0.07412 0.60172 0.94421 0.0
H632 H 0.05673 0.60233 0.7401 0.0
H633 H 0.07668 0.63056 0.6629 0.0
H634 H 0.19973 0.62039 0.70324 0.0
H635 H 0.1799 0.59218 0.78025 0.0
H636 H 0.85841 0.55717 0.0595 0.0
H637 H 0.85332 0.57331 0.14466 0.0
H638 H 0.96268 0.63941 0.13633 0.0
H639 H 0.96785 0.62313 0.05169 0.0
C640 C 0.09815 0.11268 1.0209 0.0
C641 C 0.06074 0.1304 1.03127 0.0
C642 C 0.05929 0.16094 0.95168 0.0
C643 C 0.09428 0.13949 0.93977 0.0
N644 N 0.14678 0.09417 0.96112 0.0
N645 N 0.00703 0.1742 1.00925 0.0
C646 C 0.11389 0.11554 0.97407 0.0
C647 C 0.04185 0.15561 0.99742 0.0
N648 N 0.11883 0.09312 0.05565 0.0
N649 N 0.04289 0.18634 0.91908 0.0
H650 H -0.00428 0.17433 0.04377 0.0
H651 H 0.98886 0.18927 0.9854 0.0
H652 H 0.05407 0.1898 0.88481 0.0
H653 H 0.01932 0.20547 0.92602 0.0
H654 H 0.14818 0.08391 0.05205 0.0
H655 H 0.10795 0.08807 0.08964 0.0
H656 H 0.15931 0.0717 0.98175 0.0
H657 H 0.16059 0.09727 0.92816 0.0
C658 C 0.13214 0.78856 0.23347 0.0
C659 C 0.11075 0.79944 0.27546 0.0
C660 C 0.07317 0.84935 0.2295 0.0
C661 C 0.09518 0.83901 0.1884 0.0
N662 N 0.14606 0.80029 0.14987 0.0
N663 N 0.05343 0.83176 0.30967 0.0
C664 C 0.12429 0.80853 0.18989 0.0
C665 C 0.07931 0.82775 0.27253 0.0
N666 N 0.1598 0.75877 0.23477 0.0
N667 N 0.04699 0.88048 0.22755 0.0
H668 H 0.05526 0.81464 0.34049 0.0
H669 H 0.02765 0.84883 0.30822 0.0
H670 H 0.04083 0.89593 0.19622 0.0
H671 H 0.03334 0.89278 0.25733 0.0
H672 H 0.17042 0.74407 0.20485 0.0
H673 H 0.17255 0.74792 0.26572 0.0
H674 H 0.17097 0.78203 0.14891 0.0
H675 H 0.14052 0.81322 0.11685 0.0
C676 C 0.44414 0.88418 0.43878 0.0
C677 C 0.40862 0.86173 0.43638 0.0
C678 C 0.41249 0.84796 0.522 0.0
C679 C 0.4458 0.8738 0.5258 0.0
N680 N 0.49742 0.91164 0.48559 0.0
N681 N 0.35676 0.82465 0.47483 0.0
C682 C 0.46296 0.89024 0.48351 0.0
C683 C 0.39216 0.84434 0.47777 0.0
N684 N 0.45834 0.90207 0.39842 0.0
N685 N 0.40248 0.82407 0.55946 0.0
H686 H 0.34207 0.8197 0.44271 0.0
H687 H 0.34061 0.81559 0.50442 0.0
H688 H 0.4188 0.8229 0.59092 0.0
H689 H 0.38106 0.80184 0.55755 0.0
H690 H 0.48192 0.92193 0.39742 0.0
H691 H 0.44528 0.89887 0.36505 0.0
H692 H 0.51594 0.91649 0.45663 0.0
H693 H 0.50808 0.92539 0.51604 0.0
C694 C 0.39949 0.14474 0.77348 0.0
C695 C 0.37784 0.18116 0.77595 0.0
C696 C 0.37656 0.18305 0.68882 0.0
C697 C 0.39022 0.14322 0.6872 0.0
N698 N 0.41084 0.08398 0.72902 0.0
N699 N 0.33856 0.23071 0.73319 0.0
C700 C 0.40063 0.12334 0.72984 0.0
C701 C 0.36458 0.1994 0.73288 0.0
N702 N 0.42095 0.13165 0.81163 0.0
N703 N 0.37543 0.20556 0.64836 0.0
H704 H 0.3246 0.24136 0.76355 0.0
H705 H 0.32645 0.24278 0.70228 0.0
H706 H 0.38478 0.19486 0.61539 0.0
H707 H 0.36962 0.23606 0.64871 0.0
H708 H 0.43966 0.10693 0.81007 0.0
H709 H 0.42429 0.14827 0.84266 0.0
H710 H 0.41485 0.06721 0.75983 0.0
H711 H 0.41194 0.06732 0.69774 0.0
C712 C 0.88857 0.87577 0.10075 0.0
C713 C 0.90802 0.84613 0.12816 0.0
C714 C 0.94821 0.82653 0.05935 0.0
C715 C 0.93074 0.85817 0.03315 0.0
N716 N 0.87678 0.90457 1.02301 0.0
N717 N 0.9528 0.79034 0.13424 0.0
C718 C 0.89842 0.88012 0.05195 0.0
C719 C 0.93665 0.82033 0.10747 0.0
N720 N 0.86207 0.90101 0.12206 0.0
N721 N 0.97514 0.80213 0.03739 0.0
H722 H 0.94443 0.78488 0.16931 0.0
H723 H 0.97419 0.77036 0.12239 0.0
H724 H 0.98179 0.80453 1.0013 0.0
H725 H 0.99035 0.77892 0.05369 0.0
H726 H 0.85056 0.92637 0.10584 0.0
H727 H 0.85331 0.89813 0.15744 0.0
H728 H 0.85037 0.91823 0.03316 0.0
H729 H 0.88337 0.90883 0.98723 0.0
C730 C 0.91559 0.17772 0.79702 0.0
C731 C 0.88645 0.1615 0.76614 0.0
C732 C 0.87467 0.10784 0.82378 0.0
C733 C 0.8978 0.12864 0.85781 0.0
N734 N 0.9387 0.18515 0.87804 0.0
N735 N 0.83712 0.11093 0.75047 0.0
C736 C 0.91829 0.16383 0.84463 0.0
C737 C 0.86613 0.12605 0.77917 0.0
N738 N 0.9412 0.20598 0.78036 0.0
N739 N 0.86118 0.07049 0.8341 0.0
H740 H 0.83017 0.12259 0.71725 0.0
H741 H 0.81788 0.08837 0.76097 0.0
H742 H 0.86707 0.05642 0.86643 0.0
H743 H 0.84755 0.05203 0.80925 0.0
H744 H 0.96537 0.21647 0.79973 0.0
H745 H 0.94082 0.21571 0.74512 0.0
H746 H 0.95057 0.21322 0.87159 0.0
H747 H 0.94134 0.1762 0.91337 0.0
C748 C 0.61457 0.11407 0.59378 0.0
C749 C 0.59595 0.14043 0.62624 0.0
C750 C 0.54479 0.15606 0.56699 0.0
C751 C 0.56389 0.13036 0.53377 0.0
N752 N 0.62208 0.09168 0.51261 0.0
N753 N 0.54887 0.19299 0.64104 0.0
C754 C 0.60052 0.11173 0.5461 0.0
C755 C 0.56263 0.16332 0.61202 0.0
N756 N 0.64445 0.08962 0.60922 0.0
N757 N 0.50939 0.17354 0.55561 0.0
H758 H 0.5613 0.19923 0.67418 0.0
H759 H 0.52748 0.21371 0.6308 0.0
H760 H 0.49727 0.17239 0.52166 0.0
H761 H 0.49112 0.18767 0.58026 0.0
H762 H 0.6558 0.06613 0.58921 0.0
H763 H 0.65575 0.09053 0.64372 0.0
H764 H 0.65109 0.082 0.51817 0.0
H765 H 0.61248 0.08689 0.47799 0.0
C766 C 0.64083 0.81501 0.37626 0.0
C767 C 0.6149 0.84813 0.37962 0.0
C768 C 0.59914 0.84268 0.29454 0.0
C769 C 0.62733 0.81122 0.29005 0.0
N770 N 0.66901 0.762 0.32954 0.0
N771 N 0.57193 0.89633 0.34271 0.0
C772 C 0.64635 0.79577 0.33173 0.0
C773 C 0.59478 0.86277 0.33894 0.0
N774 N 0.66218 0.80341 0.4154 0.0
N775 N 0.57395 0.85093 0.25765 0.0
H776 H 0.5668 0.91075 0.375 0.0
H777 H 0.56029 0.91151 0.31361 0.0
H778 H 0.57378 0.8348 0.22599 0.0
H779 H 0.55014 0.87061 0.26006 0.0
H780 H 0.68524 0.7828 0.41464 0.0
H781 H 0.65881 0.81625 0.44891 0.0
H782 H 0.67583 0.74457 0.35904 0.0
H783 H 0.68065 0.75017 0.2985 0.0
C784 C 0.61179 0.66014 0.47429 0.0
C785 C 0.59525 0.64197 0.43341 0.0
C786 C 0.5423 0.61242 0.4815 0.0
C787 C 0.55937 0.62996 0.52325 0.0
N788 N 0.60196 0.6809 0.55587 0.0
N789 N 0.54621 0.60001 0.39653 0.0
C790 C 0.59203 0.6565 0.51879 0.0
C791 C 0.56047 0.61851 0.43652 0.0
N792 N 0.64684 0.68036 0.47065 0.0
N793 N 0.50831 0.59034 0.48428 0.0
H794 H 0.55804 0.60429 0.3627 0.0
H795 H 0.52386 0.57874 0.39633 0.0
H796 H 0.49782 0.57732 0.5152 0.0
H797 H 0.48978 0.58456 0.45552 0.0
H798 H 0.66305 0.69017 0.4999 0.0
H799 H 0.66129 0.68489 0.43831 0.0
H800 H 0.62283 0.70362 0.55337 0.0
H801 H 0.58611 0.68186 0.58765 0.0
C802 C 0.64728 0.30308 0.73253 0.0
C803 C 0.62813 0.31961 0.77337 0.0
C804 C 0.594 0.36834 0.72187 0.0
C805 C 0.61485 0.35297 0.68218 0.0
N806 N 0.66384 0.30885 0.64883 0.0
N807 N 0.58464 0.36955 0.80725 0.0
C808 C 0.64203 0.3211 0.68729 0.0
C809 C 0.60207 0.35289 0.76815 0.0
N810 N 0.67065 0.26995 0.73666 0.0
N811 N 0.56531 0.39665 0.71484 0.0
H812 H 0.58624 0.35711 0.84097 0.0
H813 H 0.56973 0.3967 0.80692 0.0
H814 H 0.55947 0.40921 0.68164 0.0
H815 H 0.5455 0.40607 0.74087 0.0
H816 H 0.67923 0.25243 0.70795 0.0
H817 H 0.6814 0.25911 0.76877 0.0
H818 H 0.68709 0.28852 0.65043 0.0
H819 H 0.66047 0.32073 0.61484 0.0
C820 C 0.88554 0.37206 1.02101 0.0
C821 C 0.91818 0.35047 0.04009 0.0
C822 C 0.92442 0.31239 0.96613 0.0
C823 C 0.89287 0.33504 0.94633 0.0
N824 N 0.8362 0.37755 0.95826 0.0
N825 N 0.95932 0.29185 0.0376 0.0
C826 C 0.87099 0.36194 0.97505 0.0
C827 C 0.93451 0.31783 1.01475 0.0
N828 N 0.86983 0.40352 0.04543 0.0
N829 N 0.94606 0.28726 0.93798 0.0
H830 H 0.96632 0.29471 0.0736 0.0
H831 H 0.96952 0.26541 1.02256 0.0
H832 H 0.93992 0.28275 0.90208 0.0
H833 H 0.97166 0.27271 0.94935 0.0
H834 H 0.84939 0.42337 1.0309 0.0
H835 H 0.87884 0.41144 0.07952 0.0
H836 H 0.81677 0.39438 0.97888 0.0
H837 H 0.82488 0.37046 0.92476 0.0
C838 C 0.90888 0.63007 0.27996 0.0
C839 C 0.88346 0.66406 0.28186 0.0
C840 C 0.87551 0.66098 0.19449 0.0
C841 C 0.89934 0.62621 0.19345 0.0
N842 N 0.93408 0.5739 0.23432 0.0
N843 N 0.84582 0.71437 0.23917 0.0
C844 C 0.91467 0.60967 0.23596 0.0
C845 C 0.86764 0.68008 0.23861 0.0
N846 N 0.93023 0.61928 0.31922 0.0
N847 N 0.85876 0.67471 0.15316 0.0
H848 H 0.83295 0.72619 0.26947 0.0
H849 H 0.84043 0.73186 0.20938 0.0
H850 H 0.86547 0.66328 0.11967 0.0
H851 H 0.83644 0.69608 0.15143 0.0
H852 H 0.95234 0.59759 0.319 0.0
H853 H 0.92908 0.63489 0.3511 0.0
H854 H 0.9419 0.55764 0.2644 0.0
H855 H 0.93971 0.55885 0.20256 0.0
C856 C 0.41007 0.34011 0.54189 0.0
C857 C 0.44084 0.36902 0.53856 0.0
C858 C 0.43687 0.37955 0.62551 0.0
C859 C 0.40396 0.35341 0.62756 0.0
N860 N 0.35629 0.31161 0.58812 0.0
N861 N 0.48915 0.4102 0.58015 0.0
C862 C 0.38975 0.33449 0.58585 0.0
C863 C 0.45596 0.38686 0.58121 0.0
N864 N 0.40271 0.31534 0.50429 0.0
N865 N 0.44825 0.3996 0.66572 0.0
H866 H 0.50047 0.42348 0.54983 0.0
H867 H 0.50645 0.41629 0.60992 0.0
H868 H 0.43541 0.39503 0.69896 0.0
H869 H 0.46872 0.42272 0.66629 0.0
H870 H 0.38364 0.29105 0.50597 0.0
H871 H 0.41922 0.31582 0.47299 0.0
H872 H 0.34143 0.30101 0.55824 0.0
H873 H 0.34163 0.30551 0.61994 0.0
C874 C 0.36926 0.69323 0.37552 0.0
C875 C 0.39421 0.65936 0.37892 0.0
C876 C 0.41062 0.66433 0.29416 0.0
C877 C 0.38286 0.69609 0.28933 0.0
N878 N 0.34007 0.74504 0.32769 0.0
N879 N 0.43608 0.60998 0.34241 0.0
C880 C 0.36357 0.71187 0.33069 0.0
C881 C 0.41417 0.64415 0.33849 0.0
N882 N 0.34898 0.70604 0.41495 0.0
N883 N 0.43606 0.65574 0.25768 0.0
H884 H 0.44057 0.59537 0.3747 0.0
H885 H 0.4475 0.59456 0.31335 0.0
H886 H 0.43682 0.67196 0.22612 0.0
H887 H 0.45954 0.63569 0.2605 0.0
H888 H 0.32692 0.72771 0.41473 0.0
H889 H 0.35255 0.69359 0.44861 0.0
H890 H 0.33284 0.76302 0.35653 0.0
H891 H 0.32731 0.75538 0.29649 0.0
C892 C 0.12051 0.59018 0.09608 0.0
C893 C 0.1056 0.62219 0.12384 0.0
C894 C 0.06332 0.64366 0.05737 0.0
C895 C 0.07739 0.61084 1.03018 0.0
N896 N 0.12632 0.55932 1.01844 0.0
N897 N 0.06769 0.6829 0.12997 0.0
C898 C 0.10825 0.58615 0.04788 0.0
C899 C 0.07852 0.65012 0.10406 0.0
N900 N 0.14552 0.56288 0.11635 0.0
N901 N 0.0353 0.66851 0.03825 0.0
H902 H 0.07712 0.68775 0.16481 0.0
H903 H 0.05096 0.70647 0.11674 0.0
H904 H 0.02629 0.66673 1.00282 0.0
H905 H 0.02016 0.69035 0.0572 0.0
H906 H 0.1535 0.53612 0.10029 0.0
H907 H 0.15654 0.56571 0.15084 0.0
H908 H 0.15174 0.54339 1.0275 0.0
H909 H 0.11788 0.55507 0.98321 0.0
C910 C 0.07802 0.28685 0.81003 0.0
C911 C 0.10654 0.30542 0.7802 0.0
C912 C 0.12145 0.35414 0.84291 0.0
C913 C 0.09389 0.33484 0.87317 0.0
N914 N 0.0412 0.2874 0.8843 0.0
N915 N 0.14875 0.36195 0.7639 0.0
C916 C 0.07055 0.30267 0.85619 0.0
C917 C 0.12602 0.34083 0.79518 0.0
N918 N 0.05854 0.25364 0.79425 0.0
N919 N 0.14435 0.38437 0.86049 0.0
H920 H 0.15428 0.35292 0.72921 0.0
H921 H 0.15994 0.3902 0.77095 0.0
H922 H 0.14011 0.39668 0.89416 0.0
H923 H 0.16897 0.39591 0.843 0.0
H924 H 0.04117 0.23546 0.81565 0.0
H925 H 0.06041 0.2435 0.75926 0.0
H926 H 0.02002 0.26717 0.87256 0.0
H927 H 0.03633 0.29684 0.91911 0.0
C928 C 0.9473 0.26942 0.19427 0.0
C929 C 0.98534 0.2821 0.20814 0.0
C930 C 0.00381 0.21246 0.221 0.0
C931 C 0.97083 0.201 0.19269 0.0
N932 N 0.91337 0.22172 0.14602 0.0
N933 N 0.04768 0.26564 0.2459 0.0
C934 C 0.94257 0.23008 0.17822 0.0
C935 C 0.01291 0.25359 0.22559 0.0
N936 N 0.91597 0.29498 0.19624 0.0
N937 N 0.02559 0.18425 0.24431 0.0
H938 H 0.05303 0.29516 0.25524 0.0
H939 H 0.0713 0.24651 0.25305 0.0
H940 H 0.01871 0.1541 0.24268 0.0
H941 H 0.04785 0.19086 0.26875 0.0
H942 H 0.88692 0.28631 0.18868 0.0
H943 H 0.91894 0.32282 0.2121 0.0
H944 H 0.89461 0.24368 0.13239 0.0
H945 H 0.91094 0.19474 0.12815 0.0
C946 C 0.97576 0.69009 0.44299 0.0
C947 C 0.96075 0.72557 0.46248 0.0
C948 C 0.02855 0.74655 0.4802 0.0
C949 C 0.04223 0.7173 0.44755 0.0
N950 N 0.02647 0.66376 0.39242 0.0
N951 N 0.97182 0.78246 0.51251 0.0
C952 C 0.01541 0.68918 0.428 0.0
C953 C 0.98694 0.75211 0.48575 0.0
N954 N 0.95223 0.65745 0.43899 0.0
N955 N 0.05511 0.76811 0.50624 0.0
H956 H 0.94175 0.78372 0.52138 0.0
H957 H 0.9887 0.80591 0.52574 0.0
H958 H 0.08567 0.76465 0.5026 0.0
H959 H 0.04698 0.78696 0.53393 0.0
H960 H 0.96302 0.62972 0.42828 0.0
H961 H 0.92369 0.65744 0.45288 0.0
H962 H 0.00631 0.64512 0.37526 0.0
H963 H 0.05409 0.66469 0.37595 0.0
C964 C 0.49943 0.73172 0.72711 0.0
C965 C 0.49239 0.71256 0.68302 0.0
C966 C 0.51273 0.77167 0.63984 0.0
C967 C 0.51581 0.79246 0.68342 0.0
N968 N 0.50962 0.79443 0.76866 0.0
N969 N 0.48151 0.71757 0.59832 0.0
C970 C 0.50852 0.77312 0.7273 0.0
C971 C 0.49583 0.7335 0.63961 0.0
N972 N 0.49806 0.71026 0.76831 0.0
N973 N 0.52714 0.78787 0.5988 0.0
H974 H 0.46679 0.69038 0.59718 0.0
H975 H 0.48 0.73337 0.56649 0.0
H976 H 0.54161 0.81521 0.59797 0.0
H977 H 0.52891 0.7722 0.56688 0.0
H978 H 0.50681 0.72147 0.80118 0.0
H979 H 0.49015 0.68024 0.76911 0.0
H980 H 0.50064 0.7831 0.80135 0.0
H981 H 0.5176 0.82442 0.76975 0.0
C982 C 0.51745 0.22722 0.9667 0.0
C983 C 0.54246 0.25475 0.94256 0.0
C984 C 0.48505 0.28584 0.9059 0.0
C985 C 0.45969 0.25901 0.92989 0.0
N986 N 0.45082 0.21036 0.99182 0.0
N987 N 0.5463 0.32165 0.91186 0.0
C988 C 0.47556 0.23142 0.96291 0.0
C989 C 0.52517 0.28777 0.91936 0.0
N990 N 0.53349 0.19692 0.99283 0.0
N991 N 0.47157 0.30828 0.86872 0.0
H992 H 0.57453 0.32544 0.92596 0.0
H993 H 0.5334 0.34758 0.89844 0.0
H994 H 0.44302 0.30551 0.85481 0.0
H995 H 0.49037 0.32595 0.84822 0.0
H996 H 0.51706 0.17283 1.00523 0.0
H997 H 0.56349 0.19545 1.0015 0.0
H998 H 0.46081 0.19505 1.02169 0.0
H999 H 0.42003 0.21136 0.9886 0.0
C1000 C 0.98238 0.76351 0.85518 0.0
C1001 C 0.00995 0.77901 0.88861 0.0
C1002 C 0.0377 0.71282 0.90008 0.0
C1003 C 0.00536 0.69607 0.87521 0.0
N1004 N 0.95076 0.70504 0.82105 0.0
N1005 N 0.05742 0.76634 0.95151 0.0
C1006 C 0.97876 0.7214 0.85019 0.0
C1007 C 0.03582 0.75311 0.91354 0.0
N1008 N 0.96076 0.78894 0.82746 0.0
N1009 N 0.07112 0.69109 0.90869 0.0
H1010 H 0.05475 0.79511 0.96511 0.0
H1011 H 0.07409 0.74722 0.9729 0.0
H1012 H 0.07587 0.66371 0.89234 0.0
H1013 H 0.09628 0.70304 0.92487 0.0
H1014 H 0.94273 0.77991 0.79944 0.0
H1015 H 0.96266 0.81975 0.83079 0.0
H1016 H 0.92714 0.72083 0.80637 0.0
H1017 H 0.95156 0.67505 0.8114 0.0
C1018 C 0.52294 0.75273 0.0872 0.0
C1019 C 0.5425 0.74696 0.13128 0.0
C1020 C 0.48399 0.76871 0.17446 0.0
C1021 C 0.46279 0.7701 0.13111 0.0
N1022 N 0.45995 0.7615 0.0462 0.0
N1023 N 0.53843 0.73872 0.21655 0.0
C1024 C 0.48164 0.76169 0.08725 0.0
C1025 C 0.52216 0.75192 0.17489 0.0
N1026 N 0.5439 0.75019 0.04574 0.0
N1027 N 0.46796 0.78417 0.21512 0.0
H1028 H 0.56545 0.72369 0.21806 0.0
H1029 H 0.523 0.73834 0.24864 0.0
H1030 H 0.44031 0.79808 0.21587 0.0
H1031 H 0.48391 0.78722 0.24667 0.0
H1032 H 0.5323 0.75794 1.01271 0.0
H1033 H 0.5739 0.74247 0.04479 0.0
H1034 H 0.47094 0.75155 1.01372 0.0
H1035 H 0.43002 0.76953 0.04521 0.0
C1036 C 0.49826 0.22594 0.33601 0.0
C1037 C 0.4846 0.20814 0.37865 0.0
C1038 C 0.49731 0.26902 0.42244 0.0
C1039 C 0.50641 0.28857 0.37935 0.0
N1040 N 0.51308 0.28749 0.29411 0.0
N1041 N 0.46071 0.21629 0.45915 0.0
C1042 C 0.50624 0.26758 0.33563 0.0
C1043 C 0.48065 0.23085 0.42074 0.0
N1044 N 0.50413 0.20302 0.2965 0.0
N1045 N 0.50704 0.28569 0.46523 0.0
H1046 H 0.44816 0.18808 0.45986 0.0
H1047 H 0.45357 0.23375 0.48861 0.0
H1048 H 0.52324 0.31196 0.46799 0.0
H1049 H 0.50383 0.27082 0.49751 0.0
H1050 H 0.51797 0.21333 0.26582 0.0
H1051 H 0.49693 0.17284 0.29541 0.0
H1052 H 0.50963 0.27468 0.26066 0.0
H1053 H 0.52002 0.31775 0.29314 0.0
C1054 C 0.0105 0.19411 0.6292 0.0
C1055 C 0.03863 0.2229 0.61399 0.0
C1056 C 0.98497 0.26247 0.57884 0.0
C1057 C 0.9576 0.2347 0.59761 0.0
N1058 N 0.9466 0.16529 0.61253 0.0
N1059 N 0.05402 0.27859 0.56301 0.0
C1060 C 0.97126 0.19732 0.61291 0.0
C1061 C 0.02635 0.25536 0.58498 0.0
N1062 N 0.0197 0.16599 0.66252 0.0
N1063 N 0.97112 0.29529 0.5555 0.0
H1064 H 0.08438 0.27341 0.56633 0.0
H1065 H 0.04715 0.30103 0.53888 0.0
H1066 H 0.9413 0.29793 0.54585 0.0
H1067 H 0.98873 0.3193 0.54559 0.0
H1068 H -0.00148 0.14676 0.67671 0.0
H1069 H 0.04651 0.16528 0.68079 0.0
H1070 H 0.95606 0.1366 0.62116 0.0
H1071 H 0.91853 0.16718 0.59722 0.0
C1072 C 0.9701 0.99049 0.06491 0.0
C1073 C 0.00865 0.00625 0.07193 0.0
C1074 C 0.01979 0.00219 0.98511 0.0
C1075 C 0.98148 0.9858 0.97873 0.0
N1076 N 0.91498 0.98541 1.01065 0.0
N1077 N 0.0748 0.01206 0.03894 0.0
C1078 C 0.95502 0.98575 1.01804 0.0
C1079 C 0.03484 0.00847 0.03208 0.0
N1080 N 0.9483 0.97818 0.10304 0.0
N1081 N 0.04137 0.01302 0.94618 0.0
H1082 H 0.08811 0.00896 0.07209 0.0
H1083 H 0.09539 0.01123 1.01137 0.0
H1084 H 0.0302 0.01046 0.91171 0.0
H1085 H 0.06782 0.02895 0.94832 0.0
H1086 H 0.92132 0.96334 0.09951 0.0
H1087 H 0.95952 0.97818 0.1376 0.0
H1088 H 0.89438 0.98771 0.03812 0.0
H1089 H 0.90245 0.98967 0.97717 0.0
C1090 C 0.2526 0.72057 0.31796 0.0
C1091 C 0.2386 0.75957 0.32702 0.0
C1092 C 0.2495 0.77673 0.24288 0.0
C1093 C 0.26294 0.73755 0.23334 0.0
N1094 N 0.26202 0.66867 0.25988 0.0
N1095 N 0.24248 0.82833 0.302 0.0
C1096 C 0.26046 0.70839 0.27032 0.0
C1097 C 0.24231 0.78879 0.29063 0.0
N1098 N 0.26129 0.69596 0.3552 0.0
N1099 N 0.24109 0.80191 0.20611 0.0
H1100 H 0.24468 0.83837 0.33694 0.0
H1101 H 0.24727 0.85078 0.27713 0.0
H1102 H 0.24289 0.79309 0.17064 0.0
H1103 H 0.22736 0.82946 0.21088 0.0
H1104 H 0.2758 0.66874 0.35119 0.0
H1105 H 0.2591 0.70514 0.39049 0.0
H1106 H 0.2583 0.64641 0.28523 0.0
H1107 H 0.25923 0.65765 0.22548 0.0
C1108 C 0.54324 0.0112 0.5248 0.0
C1109 C 0.51516 0.01164 0.48679 0.0
C1110 C 0.46253 -0.00449 0.54409 0.0
C1111 C 0.4908 -0.00568 0.58181 0.0
N1112 N 0.55395 0.01747 0.60979 0.0
N1113 N 0.45159 0.98857 0.45942 0.0
C1114 C 0.52986 0.00744 0.57266 0.0
C1115 C 0.47573 -0.00055 0.49622 0.0
N1116 N 0.58296 0.00974 0.51531 0.0
N1117 N 0.42284 -0.00373 0.55389 0.0
H1118 H 0.46114 0.98825 0.4242 0.0
H1119 H 0.42399 0.97525 0.46433 0.0
H1120 H 0.4119 0.00205 0.58781 0.0
H1121 H 0.40095 -0.00176 0.52785 0.0
H1122 H 0.60458 0.0072 0.54163 0.0
H1123 H 0.5941 0.00424 0.48144 0.0
H1124 H 0.58172 0.03048 0.60529 0.0
H1125 H 0.54409 0.01716 0.64493 0.0
C1126 C 0.2396 0.26859 0.82636 0.0
C1127 C 0.25395 0.22954 0.83404 0.0
C1128 C 0.24607 0.21542 0.74857 0.0
C1129 C 0.23291 0.25494 0.74034 0.0
N1130 N 0.23348 0.3226 0.77039 0.0
N1131 N 0.25097 0.16173 0.80516 0.0
C1132 C 0.23367 0.28257 0.77898 0.0
C1133 C 0.25156 0.20164 0.79597 0.0
N1134 N 0.23046 0.29207 0.86445 0.0
N1135 N 0.25641 0.19172 0.71107 0.0
H1136 H 0.24727 0.15042 0.83933 0.0
H1137 H 0.24706 0.14026 0.77884 0.0
H1138 H 0.25672 0.202 0.67611 0.0
H1139 H 0.27 0.16403 0.71527 0.0
H1140 H 0.21616 0.31948 0.86121 0.0
H1141 H 0.23257 0.28177 0.89934 0.0
H1142 H 0.23643 0.34391 0.79707 0.0
H1143 H 0.2374 0.33454 0.73661 0.0
C1144 C 0.75759 0.21989 0.82426 0.0
C1145 C 0.74961 0.26045 0.8331 0.0
C1146 C 0.76197 0.27537 0.74881 0.0
C1147 C 0.76789 0.23424 0.73851 0.0
N1148 N 0.76244 0.16616 0.77047 0.0
N1149 N 0.76625 0.32709 0.80819 0.0
C1150 C 0.7638 0.20628 0.77698 0.0
C1151 C 0.75843 0.28838 0.79678 0.0
N1152 N 0.75977 0.19373 0.86131 0.0
N1153 N 0.75608 0.30202 0.71279 0.0
H1154 H 0.77028 0.3364 0.84321 0.0
H1155 H 0.77539 0.34808 0.78325 0.0
H1156 H 0.75432 0.29372 0.6772 0.0
H1157 H 0.74751 0.33144 0.71879 0.0
H1158 H 0.76568 0.16345 0.85655 0.0
H1159 H 0.75875 0.20302 0.89668 0.0
H1160 H 0.76058 0.15179 0.73781 0.0
H1161 H 0.76058 0.15179 0.73781 0.0
C1162 C 0.7582 0.70385 0.28915 0.0
C1163 C 0.76563 0.73173 0.32652 0.0
C1164 C 0.75362 0.78628 0.2696 0.0
C1165 C 0.74592 0.75821 0.23263 0.0
N1166 N 0.75987 0.69229 0.20411 0.0
N1167 N 0.75559 0.7988 0.35436 0.0
C1168 C 0.75392 0.71758 0.24147 0.0
C1169 C 0.75952 0.77284 0.31726 0.0
N1170 N 0.75216 0.66452 0.29905 0.0
N1171 N 0.75904 0.82555 0.25886 0.0
H1172 H 0.75607 0.78965 0.38973 0.0
H1173 H 0.74651 0.82826 0.35014 0.0
H1174 H 0.76222 0.83566 0.2241 0.0
H1175 H 0.76759 0.84675 0.28387 0.0
H1176 H 0.74605 0.64327 0.2731 0.0
H1177 H 0.74602 0.65421 0.33311 0.0
H1178 H 0.76982 0.6631 0.2083 0.0
H1179 H 0.76008 0.70212 0.16895 0.0
C1180 C 0.47198 0.49994 0.56883 0.0
C1181 C 0.51185 0.51074 0.57793 0.0
C1182 C 0.52686 0.50122 0.49265 0.0
C1183 C 0.48704 0.49027 0.4836 0.0
N1184 N 0.41923 0.4976 0.51088 0.0
N1185 N 0.57969 0.50391 0.55044 0.0
C1186 C 0.45877 0.49459 0.52105 0.0
C1187 C 0.54011 0.50653 0.54042 0.0
N1188 N 0.44709 0.4923 0.60599 0.0
N1189 N 0.55151 0.50944 0.45545 0.0
H1190 H 0.5904 0.49932 0.58473 0.0
H1191 H 0.6013 0.49918 0.52458 0.0
H1192 H 0.54195 0.50868 0.42021 0.0
H1193 H 0.57962 0.52181 0.45985 0.0
H1194 H 0.41888 0.48017 0.60157 0.0
H1195 H 0.45652 0.49321 0.64127 0.0
H1196 H 0.39762 0.50269 0.53664 0.0
H1197 H 0.40866 0.50217 0.47652 0.0
C1198 C 0.97489 0.47968 0.98504 0.0
C1199 C 0.01487 0.4906 0.97764 0.0
C1200 C 0.02718 0.48381 0.06362 0.0
C1201 C 0.98654 0.47494 0.0717 0.0
N1202 N 0.9198 0.48007 0.03945 0.0
N1203 N 0.08138 0.48157 1.00762 0.0
C1204 C 0.95975 0.47671 0.03225 0.0
C1205 C 0.04187 0.48671 1.01623 0.0
N1206 N 0.95158 0.47074 0.94679 0.0
N1207 N 0.05145 0.4923 0.10115 0.0
H1208 H 0.09259 0.47705 0.97355 0.0
H1209 H 0.1019 0.47531 0.03434 0.0
H1210 H 0.04116 0.49393 0.13604 0.0
H1211 H 0.08038 0.50261 0.09695 0.0
H1212 H 0.92332 0.45845 0.94994 0.0
H1213 H 0.96257 0.47079 0.91212 0.0
H1214 H 0.89937 0.48325 1.01191 0.0
H1215 H 0.90738 0.48703 0.07221 0.0
C1216 C 0.159 0.18459 0.43654 0.0
C1217 C 0.14065 0.14685 0.43112 0.0
C1218 C 0.14309 0.13737 0.518 0.0
C1219 C 0.16256 0.17489 0.52334 0.0
N1220 N 0.19972 0.2274 0.48586 0.0
N1221 N 0.12497 0.08307 0.46524 0.0
C1222 C 0.17392 0.19622 0.48188 0.0
C1223 C 0.13578 0.12194 0.47144 0.0
N1224 N 0.16063 0.21023 0.3989 0.0
N1225 N 0.12943 0.11715 0.55676 0.0
H1226 H 0.11935 0.07073 0.43187 0.0
H1227 H 0.12527 0.06215 0.49257 0.0
H1228 H 0.13554 0.12504 0.59165 0.0
H1229 H 0.10991 0.09322 0.55426 0.0
H1230 H 0.16953 0.2398 0.40211 0.0
H1231 H 0.14969 0.20312 0.36527 0.0
H1232 H 0.21184 0.24205 0.45667 0.0
H1233 H 0.2124 0.23565 0.51826 0.0
C1234 C 0.08633 0.85058 0.70904 0.0
C1235 C 0.09661 0.88428 0.68172 0.0
C1236 C 0.07752 0.92802 0.74853 0.0
C1237 C 0.06245 0.89444 0.77348 0.0
N1238 N 0.04851 0.82363 0.77367 0.0
N1239 N 0.10092 0.95538 0.67335 0.0
C1240 C 0.0659 0.85574 0.7527 0.0
C1241 C 0.09224 0.92315 0.70106 0.0
N1242 N 0.09668 0.81331 0.69356 0.0
N1243 N 0.07725 0.96459 0.76987 0.0
H1244 H 0.11277 0.95264 0.63925 0.0
H1245 H 0.09446 0.98463 0.68281 0.0
H1246 H 0.06491 0.96962 0.8033 0.0
H1247 H 0.09134 0.98952 0.75591 0.0
H1248 H 0.09463 0.78791 0.71464 0.0
H1249 H 0.11082 0.808 0.6612 0.0
H1250 H 0.04478 0.79623 0.75691 0.0
H1251 H 0.03514 0.82496 0.80659 0.0
C1252 C 0.31934 0.80295 0.98334 0.0
C1253 C 0.33779 0.82021 1.02391 0.0
C1254 C 0.37627 0.86449 0.97166 0.0
C1255 C 0.35747 0.84761 0.93132 0.0
N1256 N 0.30598 0.80634 0.89844 0.0
N1257 N 0.37612 0.87469 0.05674 0.0
C1258 C 0.32738 0.81851 0.93711 0.0
C1259 C 0.36366 0.85338 1.01813 0.0
N1260 N 0.29443 0.77123 0.9891 0.0
N1261 N 0.40751 0.88993 0.96557 0.0
H1262 H 0.36773 0.86838 0.09141 0.0
H1263 H 0.39148 0.90146 0.05414 0.0
H1264 H 0.41728 0.89932 0.93225 0.0
H1265 H 0.42592 0.89919 0.99318 0.0
H1266 H 0.28415 0.75372 0.96117 0.0
H1267 H 0.285 0.76149 1.02243 0.0
H1268 H 0.28095 0.78834 0.90056 0.0
H1269 H 0.31152 0.81667 0.86413 0.0
C1270 C 0.44662 0.05874 0.23559 0.0
C1271 C 0.43287 0.08165 0.27473 0.0
C1272 C 0.39279 0.12238 0.22034 0.0
C1273 C 0.40458 0.09812 0.18146 0.0
N1274 N 0.43521 0.03722 0.15434 0.0
N1275 N 0.38303 0.12688 0.30518 0.0
C1276 C 0.42932 0.06445 0.18975 0.0
C1277 C 0.40268 0.11063 0.26743 0.0
N1278 N 0.47644 0.03166 0.24214 0.0
N1279 N 0.37406 0.15791 0.21236 0.0
H1280 H 0.38761 0.11771 0.34003 0.0
H1281 H 0.35859 0.14568 0.30136 0.0
H1282 H 0.36766 0.16862 0.17843 0.0
H1283 H 0.36875 0.1787 0.23913 0.0
H1284 H 0.49119 0.01767 0.2142 0.0
H1285 H 0.48771 0.02461 0.27567 0.0
H1286 H 0.4498 0.01019 0.15951 0.0
H1287 H 0.42219 0.03986 0.12084 0.0
C1288 C 0.86426 0.83464 0.54716 0.0
C1289 C 0.8409 0.79954 0.54102 0.0
C1290 C 0.83308 0.7947 0.62774 0.0
C1291 C 0.85487 0.83045 0.63353 0.0
N1292 N 0.88179 0.88993 0.59846 0.0
N1293 N 0.79358 0.75386 0.57488 0.0
C1294 C 0.86741 0.85215 0.5931 0.0
C1295 C 0.82237 0.78198 0.58123 0.0
N1296 N 0.88561 0.85024 0.51036 0.0
N1297 N 0.82392 0.77198 0.66647 0.0
H1298 H 0.78363 0.74525 0.54128 0.0
H1299 H 0.77656 0.74251 0.60261 0.0
H1300 H 0.83129 0.78019 0.70112 0.0
H1301 H 0.81207 0.74343 0.66386 0.0
H1302 H 0.90728 0.87197 0.51505 0.0
H1303 H 0.88441 0.83993 0.47565 0.0
H1304 H 0.8872 0.90892 0.56993 0.0
H1305 H 0.88459 0.90376 0.63151 0.0
C1306 C 0.87157 0.11306 0.32852 0.0
C1307 C 0.88742 0.09541 0.37023 0.0
C1308 C 0.93547 0.05802 0.32155 0.0
C1309 C 0.91952 0.07561 0.27961 0.0
N1310 N 0.86482 0.11115 0.24294 0.0
N1311 N 0.92879 0.04534 0.40631 0.0
C1312 C 0.88509 0.1002 0.28296 0.0
C1313 C 0.91766 0.06606 0.36664 0.0
N1314 N 0.84475 0.14352 0.33244 0.0
N1315 N 0.96811 0.03393 0.31818 0.0
H1316 H 0.91672 0.05085 0.43982 0.0
H1317 H 0.94768 0.02079 0.40569 0.0
H1318 H 0.97946 0.02427 0.28564 0.0
H1319 H 0.98471 0.02453 0.34731 0.0
H1320 H 0.83596 0.16122 0.30393 0.0
H1321 H 0.83364 0.15343 0.36497 0.0
H1322 H 0.83745 0.12557 0.24373 0.0
H1323 H 0.87262 0.10214 0.2089 0.0
C1324 C 0.67596 0.16051 0.05672 0.0
C1325 C 0.6554 0.1959 0.04347 0.0
C1326 C 0.62581 0.19826 0.12352 0.0
C1327 C 0.64101 0.15989 0.13353 0.0
N1328 N 0.67656 0.10167 0.10681 0.0
N1329 N 0.60221 0.24264 0.06295 0.0
C1330 C 0.66497 0.14015 0.09929 0.0
C1331 C 0.62811 0.21335 0.07655 0.0
N1332 N 0.70733 0.14734 1.03025 0.0
N1333 N 0.60964 0.22082 0.15908 0.0
H1334 H 0.59917 0.2528 1.0283 0.0
H1335 H 0.57959 0.25318 0.08489 0.0
H1336 H 0.60767 0.21108 0.1942 0.0
H1337 H 0.60216 0.25074 0.15467 0.0
H1338 H 0.72551 0.12379 0.04073 0.0
H1339 H 0.71807 0.16269 1.00078 0.0
H1340 H 0.69051 0.08446 0.0809 0.0
H1341 H 0.66914 0.08591 0.13746 0.0
C1342 C 0.60273 0.8891 0.7981 0.0
C1343 C 0.57005 0.91575 0.79234 0.0
C1344 C 0.56983 0.9275 0.87898 0.0
C1345 C 0.59867 0.89701 0.88488 0.0
N1346 N 0.63944 0.84536 0.85098 0.0
N1347 N 0.5223 0.96057 0.82725 0.0
C1348 C 0.61443 0.87708 0.84465 0.0
C1349 C 0.55367 0.9351 0.83288 0.0
N1350 N 0.62305 0.87536 0.75938 0.0
N1351 N 0.55853 0.94973 0.91741 0.0
H1352 H 0.51219 0.96979 0.79395 0.0
H1353 H 0.50539 0.97154 0.85531 0.0
H1354 H 0.56926 0.94449 0.95164 0.0
H1355 H 0.54083 0.97509 0.91512 0.0
H1356 H 0.64957 0.85952 0.7618 0.0
H1357 H 0.61616 0.88299 0.7246 0.0
H1358 H 0.64783 0.82617 0.82369 0.0
H1359 H 0.6493 0.83603 0.88433 0.0
C1360 C 0.67551 0.68683 0.9354 0.0
C1361 C 0.64452 0.65876 0.92901 0.0
C1362 C 0.6355 0.65505 1.01564 0.0
C1363 C 0.66297 0.6869 1.02186 0.0
N1364 N 0.70913 0.73353 0.98763 0.0
N1365 N 0.59153 0.61958 0.96197 0.0
C1366 C 0.68302 0.70282 0.98162 0.0
C1367 C 0.62375 0.64365 0.96888 0.0
N1368 N 0.69834 0.69751 0.89735 0.0
N1369 N 0.62068 0.63519 0.0541 0.0
H1370 H 0.58238 0.60995 0.92846 0.0
H1371 H 0.57183 0.61181 0.98889 0.0
H1372 H 0.62779 0.64203 0.08905 0.0
H1373 H 0.60425 0.60907 0.0514 0.0
H1374 H 0.72404 0.7145 0.90006 0.0
H1375 H 0.6932 0.68693 0.86302 0.0
H1376 H 0.72067 0.75022 0.95974 0.0
H1377 H 0.71831 0.7434 1.02104 0.0
C1378 C 0.59432 0.38434 0.26317 0.0
C1379 C 0.56134 0.41069 0.269 0.0
C1380 C 0.56268 0.42427 0.18265 0.0
C1381 C 0.59236 0.39461 0.17661 0.0
N1382 N 0.63202 0.34185 0.20986 0.0
N1383 N 0.51324 0.45506 0.23378 0.0
C1384 C 0.60701 0.3735 0.21656 0.0
C1385 C 0.54528 0.43041 0.22846 0.0
N1386 N 0.61419 0.36986 0.30186 0.0
N1387 N 0.55189 0.44733 0.14472 0.0
H1388 H 0.50213 0.4634 0.26692 0.0
H1389 H 0.49665 0.46607 0.20544 0.0
H1390 H 0.56346 0.44315 0.11069 0.0
H1391 H 0.53371 0.47231 0.14739 0.0
H1392 H 0.64094 0.3544 0.29945 0.0
H1393 H 0.6067 0.37643 0.33674 0.0
H1394 H 0.63964 0.32189 0.23669 0.0
H1395 H 0.64243 0.33323 0.17649 0.0
C1396 C 0.82439 0.3151 0.43856 0.0
C1397 C 0.84943 0.34873 0.43355 0.0
C1398 C 0.86314 0.34765 0.51952 0.0
C1399 C 0.83766 0.31397 0.52479 0.0
N1400 N 0.78554 0.2736 0.49152 0.0
N1401 N 0.88539 0.40252 0.47004 0.0
C1402 C 0.81573 0.30014 0.48485 0.0
C1403 C 0.86636 0.36678 0.47437 0.0
N1404 N 0.80962 0.29678 0.39895 0.0
N1405 N 0.88624 0.36024 0.55651 0.0
H1406 H 0.88953 0.41674 0.43747 0.0
H1407 H 0.89413 0.41975 0.49898 0.0
H1408 H 0.88422 0.34922 0.59084 0.0
H1409 H 0.90958 0.38024 0.55258 0.0
H1410 H 0.79522 0.26938 0.39977 0.0
H1411 H 0.81413 0.30767 0.36466 0.0
H1412 H 0.76601 0.26502 0.46473 0.0
H1413 H 0.77728 0.26344 0.52512 0.0
C1414 C 0.94999 0.5586 0.73365 0.0
C1415 C 0.93642 0.57902 0.77499 0.0
C1416 C 0.8888 0.61663 0.72551 0.0
C1417 C 0.90165 0.5955 0.68464 0.0
N1418 N 0.93953 0.5419 0.65039 0.0
N1419 N 0.8866 0.62137 0.81129 0.0
C1420 C 0.93084 0.56514 0.68894 0.0
C1421 C 0.90375 0.60595 0.77128 0.0
N1422 N 0.98145 0.53297 0.73714 0.0
N1423 N 0.86345 0.64822 0.72034 0.0
H1424 H 0.89669 0.61571 0.8455 0.0
H1425 H 0.86003 0.63724 0.81098 0.0
H1426 H 0.8512 0.65647 0.68773 0.0
H1427 H 0.85703 0.66829 0.7475 0.0
H1428 H -0.00348 0.52141 0.70793 0.0
H1429 H -0.00642 0.52417 0.76961 0.0
H1430 H 0.95722 0.5165 0.65192 0.0
H1431 H 0.92667 0.54634 0.61706 0.0
C1432 C 0.32004 0.354 0.10611 0.0
C1433 C 0.35263 0.34223 0.13514 0.0
C1434 C 0.37737 0.30057 0.07048 0.0
C1435 C 0.34261 0.30819 0.04293 0.0
N1436 N 0.27733 0.33776 0.03911 0.0
N1437 N 0.40609 0.29576 0.14886 0.0
C1438 C 0.31291 0.33386 0.06193 0.0
C1439 C 0.37921 0.31277 0.11855 0.0
N1440 N 0.29645 0.38494 0.12016 0.0
N1441 N 0.41015 0.28416 0.04996 0.0
H1442 H 0.40815 0.30332 0.18475 0.0
H1443 H 0.42335 0.27118 0.13949 0.0
H1444 H 0.41171 0.27886 1.01384 0.0
H1445 H 0.43736 0.28129 0.0673 0.0
H1446 H 0.27482 0.39764 0.09844 0.0
H1447 H 0.30066 0.39993 0.15226 0.0
H1448 H 0.25318 0.35286 0.05362 0.0
H1449 H 0.27074 0.32289 1.00756 0.0
C1450 C 0.43886 0.57695 0.87663 0.0
C1451 C 0.41096 0.60819 0.88318 0.0
C1452 C 0.40518 0.61598 0.79662 0.0
C1453 C 0.43717 0.58867 0.79014 0.0
N1454 N 0.4845 0.54268 0.82368 0.0
N1455 N 0.37052 0.66061 0.85036 0.0
C1456 C 0.45387 0.5689 0.83017 0.0
C1457 C 0.39473 0.62836 0.84341 0.0
N1458 N 0.45039 0.55453 0.91479 0.0
N1459 N 0.38438 0.63003 0.75841 0.0
H1460 H 0.36155 0.67021 0.88395 0.0
H1461 H 0.36193 0.6799 0.82326 0.0
H1462 H 0.39035 0.6221 0.72348 0.0
H1463 H 0.35828 0.64649 0.76149 0.0
H1464 H 0.46741 0.52874 0.91207 0.0
H1465 H 0.4405 0.5601 0.94929 0.0
H1466 H 0.50167 0.53125 0.85127 0.0
H1467 H 0.49374 0.53327 0.7901 0.0
C1468 C 0.15359 0.63674 0.54279 0.0
C1469 C 0.16991 0.67589 0.53847 0.0
C1470 C 0.16702 0.6831 0.62568 0.0
C1471 C 0.15195 0.64384 0.62987 0.0
N1472 N 0.14116 0.5798 0.59374 0.0
N1473 N 0.20309 0.7305 0.57729 0.0
C1474 C 0.14853 0.61961 0.58881 0.0
C1475 C 0.18003 0.69718 0.5805 0.0
N1476 N 0.14054 0.61638 0.50375 0.0
N1477 N 0.1675 0.7076 0.66447 0.0
H1478 H 0.21466 0.74054 0.54506 0.0
H1479 H 0.21436 0.74543 0.60681 0.0
H1480 H 0.15831 0.69842 0.69811 0.0
H1481 H 0.17381 0.73791 0.66244 0.0
H1482 H 0.12298 0.59096 0.50605 0.0
H1483 H 0.1448 0.62545 0.46893 0.0
H1484 H 0.14294 0.55965 0.56565 0.0
H1485 H 0.13705 0.56621 0.6267 0.0
C1486 C 0.04236 0.36138 0.32452 0.0
C1487 C 0.05369 0.39358 0.29403 0.0
C1488 C 0.10295 0.41446 0.35424 0.0
C1489 C 0.09328 0.38066 0.38219 0.0
N1490 N 0.05979 0.31777 0.38975 0.0
N1491 N 0.09618 0.45006 0.27936 0.0
C1492 C 0.06473 0.35305 0.36609 0.0
C1493 C 0.08469 0.41973 0.30863 0.0
N1494 N 0.00975 0.33865 0.31486 0.0
N1495 N 0.12867 0.44211 0.37212 0.0
H1496 H 0.08109 0.45751 0.24826 0.0
H1497 H 0.12151 0.46712 0.28484 0.0
H1498 H 0.14317 0.43846 0.40462 0.0
H1499 H 0.13406 0.46962 0.35644 0.0
H1500 H -0.00356 0.32017 0.33992 0.0
H1501 H -0.00552 0.33898 0.283 0.0
H1502 H 0.04362 0.29395 0.37607 0.0
H1503 H 0.07473 0.31061 0.42109 0.0
loop_
_geom_bond_atom_site_label_1
_geom_bond_atom_site_label_2
_geom_bond_distance
_geom_bond_site_symmetry_2
_ccdc_geom_bond_type
Nd0 C2 2.836 1_554 S
Nd0 O20 2.500 . S
Nd0 O21 2.492 . S
Nd0 O22 2.487 . S
Nd0 O23 2.682 1_655 S
Nd0 O24 2.410 1_655 S
Nd0 O29 2.414 . S
Nd0 O31 2.424 . S
Nd1 C11 2.836 . S
Nd1 O23 2.414 . S
Nd1 O25 2.424 . S
Nd1 O26 2.500 . S
Nd1 O27 2.492 . S
Nd1 O28 2.487 . S
Nd1 O29 2.682 1_455 S
Nd1 O30 2.410 1_455 S
C2 Nd0 2.836 1_556 S
C2 C3 1.498 . S
C2 O20 1.258 1_556 S
C2 O21 1.239 1_556 S
C3 C2 1.498 . S
C3 C4 1.366 . S
C3 C8 1.407 . S
C4 C3 1.366 . S
C4 C5 1.392 . S
C4 H32 0.930 . S
C5 C4 1.392 . S
C5 C6 1.398 . S
C5 H33 0.929 . S
C6 C5 1.398 . S
C6 C7 1.352 . S
C7 C6 1.352 . S
C7 C8 1.384 . S
C7 H34 0.930 . S
C8 C3 1.407 . S
C8 C7 1.384 . S
C8 H35 0.929 . S
C9 O22 1.241 . S
C9 O23 1.273 1_655 S
C10 O24 1.251 . S
C10 O25 1.268 . S
C11 Nd1 2.836 . S
C11 C12 1.498 . S
C11 O26 1.258 . S
C11 O27 1.239 . S
C12 C11 1.498 . S
C12 C13 1.366 . S
C12 C17 1.407 . S
C13 C12 1.366 . S
C13 C14 1.392 . S
C13 H36 0.930 . S
C14 C13 1.392 . S
C14 C15 1.398 . S
C14 H37 0.929 . S
C15 C14 1.398 . S
C15 C16 1.352 . S
C16 C15 1.352 . S
C16 C17 1.384 . S
C16 H38 0.930 . S
C17 C12 1.407 . S
C17 C16 1.384 . S
C17 H39 0.929 . S
C18 O28 1.241 . S
C18 O29 1.273 1_455 S
C19 O30 1.251 . S
C19 O31 1.268 . S
O20 Nd0 2.500 . S
O20 C2 1.258 1_554 S
O21 Nd0 2.492 . S
O21 C2 1.239 1_554 S
O22 Nd0 2.487 . S
O22 C9 1.241 . S
O23 Nd0 2.682 1_455 S
O23 Nd1 2.414 . S
O23 C9 1.273 1_455 S
O24 Nd0 2.410 1_455 S
O24 C10 1.251 . S
O25 Nd1 2.424 . S
O25 C10 1.268 . S
O26 Nd1 2.500 . S
O26 C11 1.258 . S
O27 Nd1 2.492 . S
O27 C11 1.239 . S
O28 Nd1 2.487 . S
O28 C18 1.241 . S
O29 Nd0 2.414 . S
O29 Nd1 2.682 1_655 S
O29 C18 1.273 1_655 S
O30 Nd1 2.410 1_655 S
O30 C19 1.251 . S
O31 Nd0 2.424 . S
O31 C19 1.268 . S
H32 C4 0.930 . S
H33 C5 0.929 . S
H34 C7 0.930 . S
H35 C8 0.929 . S
H36 C13 0.930 . S
H37 C14 0.929 . S
H38 C16 0.930 . S
H39 C17 0.929 . S
Nd40 C42 2.836 . S
Nd40 O60 2.500 . S
Nd40 O61 2.492 . S
Nd40 O62 2.487 . S
Nd40 O63 2.682 . S
Nd40 O64 2.410 . S
Nd40 O69 2.414 . S
Nd40 O71 2.424 . S
Nd41 C51 2.836 . S
Nd41 O63 2.414 . S
Nd41 O65 2.424 . S
Nd41 O66 2.500 . S
Nd41 O67 2.492 . S
Nd41 O68 2.487 . S
Nd41 O69 2.682 . S
Nd41 O70 2.410 . S
C42 Nd40 2.836 . S
C42 C43 1.498 . S
C42 O60 1.258 . S
C42 O61 1.239 . S
C43 C42 1.498 . S
C43 C44 1.366 . S
C43 C48 1.407 . S
C44 C43 1.366 . S
C44 C45 1.392 . S
C44 H72 0.930 . S
C45 C44 1.392 . S
C45 C46 1.398 . S
C45 H73 0.929 . S
C46 C45 1.398 . S
C46 C47 1.352 . S
C47 C46 1.352 . S
C47 C48 1.384 . S
C47 H74 0.930 . S
C48 C43 1.407 . S
C48 C47 1.384 . S
C48 H75 0.929 . S
C49 O62 1.241 . S
C49 O63 1.273 . S
C50 O64 1.251 . S
C50 O65 1.268 . S
C51 Nd41 2.836 . S
C51 C52 1.498 . S
C51 O66 1.258 . S
C51 O67 1.239 . S
C52 C51 1.498 . S
C52 C53 1.366 . S
C52 C57 1.407 . S
C53 C52 1.366 . S
C53 C54 1.392 . S
C53 H76 0.930 . S
C54 C53 1.392 . S
C54 C55 1.398 . S
C54 H77 0.929 . S
C55 C54 1.398 . S
C55 C56 1.352 . S
C56 C55 1.352 . S
C56 C57 1.384 . S
C56 H78 0.930 . S
C57 C52 1.407 . S
C57 C56 1.384 . S
C57 H79 0.929 . S
C58 O68 1.241 . S
C58 O69 1.273 . S
C59 O70 1.251 . S
C59 O71 1.268 . S
O60 Nd40 2.500 . S
O60 C42 1.258 . S
O61 Nd40 2.492 . S
O61 C42 1.239 . S
O62 Nd40 2.487 . S
O62 C49 1.241 . S
O63 Nd40 2.682 . S
O63 Nd41 2.414 . S
O63 C49 1.273 . S
O64 Nd40 2.410 . S
O64 C50 1.251 . S
O65 Nd41 2.424 . S
O65 C50 1.268 . S
O66 Nd41 2.500 . S
O66 C51 1.258 . S
O67 Nd41 2.492 . S
O67 C51 1.239 . S
O68 Nd41 2.487 . S
O68 C58 1.241 . S
O69 Nd40 2.414 . S
O69 Nd41 2.682 . S
O69 C58 1.273 . S
O70 Nd41 2.410 . S
O70 C59 1.251 . S
O71 Nd40 2.424 . S
O71 C59 1.268 . S
H72 C44 0.930 . S
H73 C45 0.929 . S
H74 C47 0.930 . S
H75 C48 0.929 . S
H76 C53 0.930 . S
H77 C54 0.929 . S
H78 C56 0.930 . S
H79 C57 0.929 . S
Nd80 C82 2.836 . S
Nd80 O100 2.500 . S
Nd80 O101 2.492 . S
Nd80 O102 2.487 . S
Nd80 O103 2.682 . S
Nd80 O104 2.410 . S
Nd80 O109 2.414 . S
Nd80 O111 2.424 . S
Nd81 C91 2.836 . S
Nd81 O103 2.414 . S
Nd81 O105 2.424 . S
Nd81 O106 2.500 . S
Nd81 O107 2.492 . S
Nd81 O108 2.487 . S
Nd81 O109 2.682 . S
Nd81 O110 2.410 . S
C82 Nd80 2.836 . S
C82 C83 1.498 . S
C82 O100 1.258 . S
C82 O101 1.239 . S
C83 C82 1.498 . S
C83 C84 1.366 . S
C83 C88 1.407 . S
C84 C83 1.366 . S
C84 C85 1.392 . S
C84 H112 0.930 . S
C85 C84 1.392 . S
C85 C86 1.398 . S
C85 H113 0.929 . S
C86 C85 1.398 . S
C86 C87 1.352 . S
C87 C86 1.352 . S
C87 C88 1.384 . S
C87 H114 0.930 . S
C88 C83 1.407 . S
C88 C87 1.384 . S
C88 H115 0.929 . S
C89 O102 1.241 . S
C89 O103 1.273 . S
C90 O104 1.251 . S
C90 O105 1.268 . S
C91 Nd81 2.836 . S
C91 C92 1.498 . S
C91 O106 1.258 . S
C91 O107 1.239 . S
C92 C91 1.498 . S
C92 C93 1.366 . S
C92 C97 1.407 . S
C93 C92 1.366 . S
C93 C94 1.392 . S
C93 H116 0.930 . S
C94 C93 1.392 . S
C94 C95 1.398 . S
C94 H117 0.929 . S
C95 C94 1.398 . S
C95 C96 1.352 . S
C96 C95 1.352 . S
C96 C97 1.384 . S
C96 H118 0.930 . S
C97 C92 1.407 . S
C97 C96 1.384 . S
C97 H119 0.929 . S
C98 O108 1.241 . S
C98 O109 1.273 . S
C99 O110 1.251 . S
C99 O111 1.268 . S
O100 Nd80 2.500 . S
O100 C82 1.258 . S
O101 Nd80 2.492 . S
O101 C82 1.239 . S
O102 Nd80 2.487 . S
O102 C89 1.241 . S
O103 Nd80 2.682 . S
O103 Nd81 2.414 . S
O103 C89 1.273 . S
O104 Nd80 2.410 . S
O104 C90 1.251 . S
O105 Nd81 2.424 . S
O105 C90 1.268 . S
O106 Nd81 2.500 . S
O106 C91 1.258 . S
O107 Nd81 2.492 . S
O107 C91 1.239 . S
O108 Nd81 2.487 . S
O108 C98 1.241 . S
O109 Nd80 2.414 . S
O109 Nd81 2.682 . S
O109 C98 1.273 . S
O110 Nd81 2.410 . S
O110 C99 1.251 . S
O111 Nd80 2.424 . S
O111 C99 1.268 . S
H112 C84 0.930 . S
H113 C85 0.929 . S
H114 C87 0.930 . S
H115 C88 0.929 . S
H116 C93 0.930 . S
H117 C94 0.929 . S
H118 C96 0.930 . S
H119 C97 0.929 . S
Nd120 C122 2.836 . S
Nd120 O140 2.500 . S
Nd120 O141 2.492 . S
Nd120 O142 2.487 . S
Nd120 O143 2.682 . S
Nd120 O144 2.410 . S
Nd120 O149 2.414 . S
Nd120 O151 2.424 . S
Nd121 C131 2.836 . S
Nd121 O143 2.414 . S
Nd121 O145 2.424 . S
Nd121 O146 2.500 . S
Nd121 O147 2.492 . S
Nd121 O148 2.487 . S
Nd121 O149 2.682 . S
Nd121 O150 2.410 . S
C122 Nd120 2.836 . S
C122 C123 1.498 . S
C122 O140 1.258 . S
C122 O141 1.239 . S
C123 C122 1.498 . S
C123 C124 1.366 . S
C123 C128 1.407 . S
C124 C123 1.366 . S
C124 C125 1.392 . S
C124 H152 0.930 . S
C125 C124 1.392 . S
C125 C126 1.398 . S
C125 H153 0.929 . S
C126 C125 1.398 . S
C126 C127 1.352 . S
C127 C126 1.352 . S
C127 C128 1.384 . S
C127 H154 0.930 . S
C128 C123 1.407 . S
C128 C127 1.384 . S
C128 H155 0.929 . S
C129 O142 1.241 . S
C129 O143 1.273 . S
C130 O144 1.251 . S
C130 O145 1.268 . S
C131 Nd121 2.836 . S
C131 C132 1.498 1_556 S
C131 O146 1.258 . S
C131 O147 1.239 . S
C132 C131 1.498 1_554 S
C132 C133 1.366 . S
C132 C137 1.407 . S
C133 C132 1.366 . S
C133 C134 1.392 . S
C133 H156 0.930 . S
C134 C133 1.392 . S
C134 C135 1.398 . S
C134 H157 0.929 . S
C135 C134 1.398 . S
C135 C136 1.352 . S
C136 C135 1.352 . S
C136 C137 1.384 . S
C136 H158 0.930 . S
C137 C132 1.407 . S
C137 C136 1.384 . S
C137 H159 0.929 . S
C138 O148 1.241 . S
C138 O149 1.273 . S
C139 O150 1.251 . S
C139 O151 1.268 . S
O140 Nd120 2.500 . S
O140 C122 1.258 . S
O141 Nd120 2.492 . S
O141 C122 1.239 . S
O142 Nd120 2.487 . S
O142 C129 1.241 . S
O143 Nd120 2.682 . S
O143 Nd121 2.414 . S
O143 C129 1.273 . S
O144 Nd120 2.410 . S
O144 C130 1.251 . S
O145 Nd121 2.424 . S
O145 C130 1.268 . S
O146 Nd121 2.500 . S
O146 C131 1.258 . S
O147 Nd121 2.492 . S
O147 C131 1.239 . S
O148 Nd121 2.487 . S
O148 C138 1.241 . S
O149 Nd120 2.414 . S
O149 Nd121 2.682 . S
O149 C138 1.273 . S
O150 Nd121 2.410 . S
O150 C139 1.251 . S
O151 Nd120 2.424 . S
O151 C139 1.268 . S
H152 C124 0.930 . S
H153 C125 0.929 . S
H154 C127 0.930 . S
H155 C128 0.929 . S
H156 C133 0.930 . S
H157 C134 0.929 . S
H158 C136 0.930 . S
H159 C137 0.929 . S
Nd160 C162 2.836 . S
Nd160 O180 2.500 . S
Nd160 O181 2.492 . S
Nd160 O182 2.487 . S
Nd160 O183 2.682 1_655 S
Nd160 O184 2.410 1_655 S
Nd160 O189 2.414 1_655 S
Nd160 O191 2.424 . S
Nd161 C171 2.836 1_556 S
Nd161 O183 2.414 . S
Nd161 O185 2.424 . S
Nd161 O186 2.500 . S
Nd161 O187 2.492 . S
Nd161 O188 2.487 . S
Nd161 O189 2.682 . S
Nd161 O190 2.410 . S
C162 Nd160 2.836 . S
C162 C163 1.498 . S
C162 O180 1.258 . S
C162 O181 1.239 . S
C163 C162 1.498 . S
C163 C164 1.366 . S
C163 C168 1.407 . S
C164 C163 1.366 . S
C164 C165 1.392 . S
C164 H192 0.930 . S
C165 C164 1.392 . S
C165 C166 1.398 . S
C165 H193 0.929 . S
C166 C165 1.398 . S
C166 C167 1.352 . S
C167 C166 1.352 . S
C167 C168 1.384 . S
C167 H194 0.930 . S
C168 C163 1.407 . S
C168 C167 1.384 . S
C168 H195 0.929 . S
C169 O182 1.241 1_455 S
C169 O183 1.273 . S
C170 O184 1.251 . S
C170 O185 1.268 . S
C171 Nd161 2.836 1_554 S
C171 C172 1.498 . S
C171 O186 1.258 1_554 S
C171 O187 1.239 1_554 S
C172 C171 1.498 . S
C172 C173 1.366 . S
C172 C177 1.407 . S
C173 C172 1.366 . S
C173 C174 1.392 . S
C173 H196 0.930 . S
C174 C173 1.392 . S
C174 C175 1.398 . S
C174 H197 0.929 . S
C175 C174 1.398 . S
C175 C176 1.352 . S
C176 C175 1.352 . S
C176 C177 1.384 . S
C176 H198 0.930 . S
C177 C172 1.407 . S
C177 C176 1.384 . S
C177 H199 0.929 . S
C178 O188 1.241 . S
C178 O189 1.273 . S
C179 O190 1.251 1_655 S
C179 O191 1.268 . S
O180 Nd160 2.500 . S
O180 C162 1.258 . S
O181 Nd160 2.492 . S
O181 C162 1.239 . S
O182 Nd160 2.487 . S
O182 C169 1.241 1_655 S
O183 Nd160 2.682 1_455 S
O183 Nd161 2.414 . S
O183 C169 1.273 . S
O184 Nd160 2.410 1_455 S
O184 C170 1.251 . S
O185 Nd161 2.424 . S
O185 C170 1.268 . S
O186 Nd161 2.500 . S
O186 C171 1.258 1_556 S
O187 Nd161 2.492 . S
O187 C171 1.239 1_556 S
O188 Nd161 2.487 . S
O188 C178 1.241 . S
O189 Nd160 2.414 1_455 S
O189 Nd161 2.682 . S
O189 C178 1.273 . S
O190 Nd161 2.410 . S
O190 C179 1.251 1_455 S
O191 Nd160 2.424 . S
O191 C179 1.268 . S
H192 C164 0.930 . S
H193 C165 0.929 . S
H194 C167 0.930 . S
H195 C168 0.929 . S
H196 C173 0.930 . S
H197 C174 0.929 . S
H198 C176 0.930 . S
H199 C177 0.929 . S
Nd200 C202 2.836 . S
Nd200 O220 2.500 . S
Nd200 O221 2.492 . S
Nd200 O222 2.487 . S
Nd200 O223 2.682 . S
Nd200 O224 2.410 . S
Nd200 O229 2.414 . S
Nd200 O231 2.424 . S
Nd201 C211 2.836 . S
Nd201 O223 2.414 . S
Nd201 O225 2.424 . S
Nd201 O226 2.500 . S
Nd201 O227 2.492 . S
Nd201 O228 2.487 . S
Nd201 O229 2.682 . S
Nd201 O230 2.410 . S
C202 Nd200 2.836 . S
C202 C203 1.498 1_554 S
C202 O220 1.258 . S
C202 O221 1.239 . S
C203 C202 1.498 1_556 S
C203 C204 1.366 . S
C203 C208 1.407 . S
C204 C203 1.366 . S
C204 C205 1.392 . S
C204 H232 0.930 . S
C205 C204 1.392 . S
C205 C206 1.398 . S
C205 H233 0.929 . S
C206 C205 1.398 . S
C206 C207 1.352 . S
C207 C206 1.352 . S
C207 C208 1.384 . S
C207 H234 0.930 . S
C208 C203 1.407 . S
C208 C207 1.384 . S
C208 H235 0.929 . S
C209 O222 1.241 . S
C209 O223 1.273 . S
C210 O224 1.251 . S
C210 O225 1.268 . S
C211 Nd201 2.836 . S
C211 C212 1.498 . S
C211 O226 1.258 . S
C211 O227 1.239 . S
C212 C211 1.498 . S
C212 C213 1.366 . S
C212 C217 1.407 . S
C213 C212 1.366 . S
C213 C214 1.392 . S
C213 H236 0.930 . S
C214 C213 1.392 . S
C214 C215 1.398 . S
C214 H237 0.929 . S
C215 C214 1.398 . S
C215 C216 1.352 . S
C216 C215 1.352 . S
C216 C217 1.384 . S
C216 H238 0.930 . S
C217 C212 1.407 . S
C217 C216 1.384 . S
C217 H239 0.929 . S
C218 O228 1.241 . S
C218 O229 1.273 . S
C219 O230 1.251 . S
C219 O231 1.268 . S
O220 Nd200 2.500 . S
O220 C202 1.258 . S
O221 Nd200 2.492 . S
O221 C202 1.239 . S
O222 Nd200 2.487 . S
O222 C209 1.241 . S
O223 Nd200 2.682 . S
O223 Nd201 2.414 . S
O223 C209 1.273 . S
O224 Nd200 2.410 . S
O224 C210 1.251 . S
O225 Nd201 2.424 . S
O225 C210 1.268 . S
O226 Nd201 2.500 . S
O226 C211 1.258 . S
O227 Nd201 2.492 . S
O227 C211 1.239 . S
O228 Nd201 2.487 . S
O228 C218 1.241 . S
O229 Nd200 2.414 . S
O229 Nd201 2.682 . S
O229 C218 1.273 . S
O230 Nd201 2.410 . S
O230 C219 1.251 . S
O231 Nd200 2.424 . S
O231 C219 1.268 . S
H232 C204 0.930 . S
H233 C205 0.929 . S
H234 C207 0.930 . S
H235 C208 0.929 . S
H236 C213 0.930 . S
H237 C214 0.929 . S
H238 C216 0.930 . S
H239 C217 0.929 . S
Nd240 C242 2.836 . S
Nd240 O260 2.500 . S
Nd240 O261 2.492 . S
Nd240 O262 2.487 . S
Nd240 O263 2.682 . S
Nd240 O264 2.410 . S
Nd240 O269 2.414 . S
Nd240 O271 2.424 . S
Nd241 C251 2.836 . S
Nd241 O263 2.414 . S
Nd241 O265 2.424 . S
Nd241 O266 2.500 . S
Nd241 O267 2.492 . S
Nd241 O268 2.487 . S
Nd241 O269 2.682 . S
Nd241 O270 2.410 . S
C242 Nd240 2.836 . S
C242 C243 1.498 . S
C242 O260 1.258 . S
C242 O261 1.239 . S
C243 C242 1.498 . S
C243 C244 1.366 . S
C243 C248 1.407 . S
C244 C243 1.366 . S
C244 C245 1.392 . S
C244 H272 0.930 . S
C245 C244 1.392 . S
C245 C246 1.398 . S
C245 H273 0.929 . S
C246 C245 1.398 . S
C246 C247 1.352 . S
C247 C246 1.352 . S
C247 C248 1.384 . S
C247 H274 0.930 . S
C248 C243 1.407 . S
C248 C247 1.384 . S
C248 H275 0.929 . S
C249 O262 1.241 . S
C249 O263 1.273 . S
C250 O264 1.251 . S
C250 O265 1.268 . S
C251 Nd241 2.836 . S
C251 C252 1.498 . S
C251 O266 1.258 . S
C251 O267 1.239 . S
C252 C251 1.498 . S
C252 C253 1.366 . S
C252 C257 1.407 . S
C253 C252 1.366 . S
C253 C254 1.392 . S
C253 H276 0.930 . S
C254 C253 1.392 . S
C254 C255 1.398 . S
C254 H277 0.929 . S
C255 C254 1.398 . S
C255 C256 1.352 . S
C256 C255 1.352 . S
C256 C257 1.384 . S
C256 H278 0.930 . S
C257 C252 1.407 . S
C257 C256 1.384 . S
C257 H279 0.929 . S
C258 O268 1.241 . S
C258 O269 1.273 . S
C259 O270 1.251 . S
C259 O271 1.268 . S
O260 Nd240 2.500 . S
O260 C242 1.258 . S
O261 Nd240 2.492 . S
O261 C242 1.239 . S
O262 Nd240 2.487 . S
O262 C249 1.241 . S
O263 Nd240 2.682 . S
O263 Nd241 2.414 . S
O263 C249 1.273 . S
O264 Nd240 2.410 . S
O264 C250 1.251 . S
O265 Nd241 2.424 . S
O265 C250 1.268 . S
O266 Nd241 2.500 . S
O266 C251 1.258 . S
O267 Nd241 2.492 . S
O267 C251 1.239 . S
O268 Nd241 2.487 . S
O268 C258 1.241 . S
O269 Nd240 2.414 . S
O269 Nd241 2.682 . S
O269 C258 1.273 . S
O270 Nd241 2.410 . S
O270 C259 1.251 . S
O271 Nd240 2.424 . S
O271 C259 1.268 . S
H272 C244 0.930 . S
H273 C245 0.929 . S
H274 C247 0.930 . S
H275 C248 0.929 . S
H276 C253 0.930 . S
H277 C254 0.929 . S
H278 C256 0.930 . S
H279 C257 0.929 . S
Nd280 C282 2.836 . S
Nd280 O300 2.500 . S
Nd280 O301 2.492 . S
Nd280 O302 2.487 . S
Nd280 O303 2.682 . S
Nd280 O304 2.410 . S
Nd280 O309 2.414 . S
Nd280 O311 2.424 . S
Nd281 C291 2.836 . S
Nd281 O303 2.414 . S
Nd281 O305 2.424 . S
Nd281 O306 2.500 . S
Nd281 O307 2.492 . S
Nd281 O308 2.487 . S
Nd281 O309 2.682 . S
Nd281 O310 2.410 . S
C282 Nd280 2.836 . S
C282 C283 1.498 . S
C282 O300 1.258 . S
C282 O301 1.239 . S
C283 C282 1.498 . S
C283 C284 1.366 . S
C283 C288 1.407 . S
C284 C283 1.366 . S
C284 C285 1.392 . S
C284 H312 0.930 . S
C285 C284 1.392 . S
C285 C286 1.398 . S
C285 H313 0.929 . S
C286 C285 1.398 . S
C286 C287 1.352 . S
C287 C286 1.352 . S
C287 C288 1.384 . S
C287 H314 0.930 . S
C288 C283 1.407 . S
C288 C287 1.384 . S
C288 H315 0.929 . S
C289 O302 1.241 . S
C289 O303 1.273 . S
C290 O304 1.251 . S
C290 O305 1.268 . S
C291 Nd281 2.836 . S
C291 C292 1.498 . S
C291 O306 1.258 . S
C291 O307 1.239 . S
C292 C291 1.498 . S
C292 C293 1.366 . S
C292 C297 1.407 . S
C293 C292 1.366 . S
C293 C294 1.392 . S
C293 H316 0.930 . S
C294 C293 1.392 . S
C294 C295 1.398 . S
C294 H317 0.929 . S
C295 C294 1.398 . S
C295 C296 1.352 . S
C296 C295 1.352 . S
C296 C297 1.384 . S
C296 H318 0.930 . S
C297 C292 1.407 . S
C297 C296 1.384 . S
C297 H319 0.929 . S
C298 O308 1.241 . S
C298 O309 1.273 . S
C299 O310 1.251 . S
C299 O311 1.268 . S
O300 Nd280 2.500 . S
O300 C282 1.258 . S
O301 Nd280 2.492 . S
O301 C282 1.239 . S
O302 Nd280 2.487 . S
O302 C289 1.241 . S
O303 Nd280 2.682 . S
O303 Nd281 2.414 . S
O303 C289 1.273 . S
O304 Nd280 2.410 . S
O304 C290 1.251 . S
O305 Nd281 2.424 . S
O305 C290 1.268 . S
O306 Nd281 2.500 . S
O306 C291 1.258 . S
O307 Nd281 2.492 . S
O307 C291 1.239 . S
O308 Nd281 2.487 . S
O308 C298 1.241 . S
O309 Nd280 2.414 . S
O309 Nd281 2.682 . S
O309 C298 1.273 . S
O310 Nd281 2.410 . S
O310 C299 1.251 . S
O311 Nd280 2.424 . S
O311 C299 1.268 . S
H312 C284 0.930 . S
H313 C285 0.929 . S
H314 C287 0.930 . S
H315 C288 0.929 . S
H316 C293 0.930 . S
H317 C294 0.929 . S
H318 C296 0.930 . S
H319 C297 0.929 . S
Nd320 C322 2.836 . S
Nd320 O340 2.500 . S
Nd320 O341 2.492 . S
Nd320 O342 2.487 . S
Nd320 O343 2.682 . S
Nd320 O344 2.410 . S
Nd320 O349 2.414 . S
Nd320 O351 2.424 . S
Nd321 C331 2.836 . S
Nd321 O343 2.414 . S
Nd321 O345 2.424 . S
Nd321 O346 2.500 . S
Nd321 O347 2.492 . S
Nd321 O348 2.487 . S
Nd321 O349 2.682 . S
Nd321 O350 2.410 . S
C322 Nd320 2.836 . S
C322 C323 1.498 . S
C322 O340 1.258 . S
C322 O341 1.239 . S
C323 C322 1.498 . S
C323 C324 1.366 . S
C323 C328 1.407 . S
C324 C323 1.366 . S
C324 C325 1.392 . S
C324 H352 0.930 . S
C325 C324 1.392 . S
C325 C326 1.398 . S
C325 H353 0.929 . S
C326 C325 1.398 . S
C326 C327 1.352 . S
C327 C326 1.352 . S
C327 C328 1.384 . S
C327 H354 0.930 . S
C328 C323 1.407 . S
C328 C327 1.384 . S
C328 H355 0.929 . S
C329 O342 1.241 . S
C329 O343 1.273 . S
C330 O344 1.251 . S
C330 O345 1.268 . S
C331 Nd321 2.836 . S
C331 C332 1.498 . S
C331 O346 1.258 . S
C331 O347 1.239 . S
C332 C331 1.498 . S
C332 C333 1.366 . S
C332 C337 1.407 . S
C333 C332 1.366 . S
C333 C334 1.392 . S
C333 H356 0.930 . S
C334 C333 1.392 . S
C334 C335 1.398 . S
C334 H357 0.929 . S
C335 C334 1.398 . S
C335 C336 1.352 . S
C336 C335 1.352 . S
C336 C337 1.384 . S
C336 H358 0.930 . S
C337 C332 1.407 . S
C337 C336 1.384 . S
C337 H359 0.929 . S
C338 O348 1.241 . S
C338 O349 1.273 . S
C339 O350 1.251 . S
C339 O351 1.268 . S
O340 Nd320 2.500 . S
O340 C322 1.258 . S
O341 Nd320 2.492 . S
O341 C322 1.239 . S
O342 Nd320 2.487 . S
O342 C329 1.241 . S
O343 Nd320 2.682 . S
O343 Nd321 2.414 . S
O343 C329 1.273 . S
O344 Nd320 2.410 . S
O344 C330 1.251 . S
O345 Nd321 2.424 . S
O345 C330 1.268 . S
O346 Nd321 2.500 . S
O346 C331 1.258 . S
O347 Nd321 2.492 . S
O347 C331 1.239 . S
O348 Nd321 2.487 . S
O348 C338 1.241 . S
O349 Nd320 2.414 . S
O349 Nd321 2.682 . S
O349 C338 1.273 . S
O350 Nd321 2.410 . S
O350 C339 1.251 . S
O351 Nd320 2.424 . S
O351 C339 1.268 . S
H352 C324 0.930 . S
H353 C325 0.929 . S
H354 C327 0.930 . S
H355 C328 0.929 . S
H356 C333 0.930 . S
H357 C334 0.929 . S
H358 C336 0.930 . S
H359 C337 0.929 . S
Nd360 C362 2.836 . S
Nd360 O380 2.500 . S
Nd360 O381 2.492 . S
Nd360 O382 2.487 . S
Nd360 O383 2.682 . S
Nd360 O384 2.410 . S
Nd360 O389 2.414 . S
Nd360 O391 2.424 . S
Nd361 C371 2.836 . S
Nd361 O383 2.414 . S
Nd361 O385 2.424 . S
Nd361 O386 2.500 . S
Nd361 O387 2.492 . S
Nd361 O388 2.487 . S
Nd361 O389 2.682 . S
Nd361 O390 2.410 . S
C362 Nd360 2.836 . S
C362 C363 1.498 1_554 S
C362 O380 1.258 . S
C362 O381 1.239 . S
C363 C362 1.498 1_556 S
C363 C364 1.366 . S
C363 C368 1.407 . S
C364 C363 1.366 . S
C364 C365 1.392 . S
C364 H392 0.930 . S
C365 C364 1.392 . S
C365 C366 1.398 . S
C365 H393 0.929 . S
C366 C365 1.398 . S
C366 C367 1.352 . S
C367 C366 1.352 . S
C367 C368 1.384 . S
C367 H394 0.930 . S
C368 C363 1.407 . S
C368 C367 1.384 . S
C368 H395 0.929 . S
C369 O382 1.241 . S
C369 O383 1.273 . S
C370 O384 1.251 . S
C370 O385 1.268 . S
C371 Nd361 2.836 . S
C371 C372 1.498 . S
C371 O386 1.258 . S
C371 O387 1.239 . S
C372 C371 1.498 . S
C372 C373 1.366 . S
C372 C377 1.407 . S
C373 C372 1.366 . S
C373 C374 1.392 . S
C373 H396 0.930 . S
C374 C373 1.392 . S
C374 C375 1.398 . S
C374 H397 0.929 . S
C375 C374 1.398 . S
C375 C376 1.352 . S
C376 C375 1.352 . S
C376 C377 1.384 . S
C376 H398 0.930 . S
C377 C372 1.407 . S
C377 C376 1.384 . S
C377 H399 0.929 . S
C378 O388 1.241 . S
C378 O389 1.273 . S
C379 O390 1.251 . S
C379 O391 1.268 . S
O380 Nd360 2.500 . S
O380 C362 1.258 . S
O381 Nd360 2.492 . S
O381 C362 1.239 . S
O382 Nd360 2.487 . S
O382 C369 1.241 . S
O383 Nd360 2.682 . S
O383 Nd361 2.414 . S
O383 C369 1.273 . S
O384 Nd360 2.410 . S
O384 C370 1.251 . S
O385 Nd361 2.424 . S
O385 C370 1.268 . S
O386 Nd361 2.500 . S
O386 C371 1.258 . S
O387 Nd361 2.492 . S
O387 C371 1.239 . S
O388 Nd361 2.487 . S
O388 C378 1.241 . S
O389 Nd360 2.414 . S
O389 Nd361 2.682 . S
O389 C378 1.273 . S
O390 Nd361 2.410 . S
O390 C379 1.251 . S
O391 Nd360 2.424 . S
O391 C379 1.268 . S
H392 C364 0.930 . S
H393 C365 0.929 . S
H394 C367 0.930 . S
H395 C368 0.929 . S
H396 C373 0.930 . S
H397 C374 0.929 . S
H398 C376 0.930 . S
H399 C377 0.929 . S
Nd400 C402 2.836 . S
Nd400 O420 2.500 . S
Nd400 O421 2.492 . S
Nd400 O422 2.487 . S
Nd400 O423 2.682 . S
Nd400 O424 2.410 . S
Nd400 O429 2.414 . S
Nd400 O431 2.424 . S
Nd401 C411 2.836 . S
Nd401 O423 2.414 . S
Nd401 O425 2.424 . S
Nd401 O426 2.500 . S
Nd401 O427 2.492 . S
Nd401 O428 2.487 . S
Nd401 O429 2.682 . S
Nd401 O430 2.410 . S
C402 Nd400 2.836 . S
C402 C403 1.498 . S
C402 O420 1.258 . S
C402 O421 1.239 . S
C403 C402 1.498 . S
C403 C404 1.366 . S
C403 C408 1.407 . S
C404 C403 1.366 . S
C404 C405 1.392 . S
C404 H432 0.930 . S
C405 C404 1.392 . S
C405 C406 1.398 . S
C405 H433 0.929 . S
C406 C405 1.398 . S
C406 C407 1.352 . S
C407 C406 1.352 . S
C407 C408 1.384 . S
C407 H434 0.930 . S
C408 C403 1.407 . S
C408 C407 1.384 . S
C408 H435 0.929 . S
C409 O422 1.241 . S
C409 O423 1.273 . S
C410 O424 1.251 . S
C410 O425 1.268 . S
C411 Nd401 2.836 . S
C411 C412 1.498 1_556 S
C411 O426 1.258 . S
C411 O427 1.239 . S
C412 C411 1.498 1_554 S
C412 C413 1.366 . S
C412 C417 1.407 . S
C413 C412 1.366 . S
C413 C414 1.392 . S
C413 H436 0.930 . S
C414 C413 1.392 . S
C414 C415 1.398 . S
C414 H437 0.929 . S
C415 C414 1.398 . S
C415 C416 1.352 . S
C416 C415 1.352 . S
C416 C417 1.384 . S
C416 H438 0.930 . S
C417 C412 1.407 . S
C417 C416 1.384 . S
C417 H439 0.929 . S
C418 O428 1.241 . S
C418 O429 1.273 . S
C419 O430 1.251 . S
C419 O431 1.268 . S
O420 Nd400 2.500 . S
O420 C402 1.258 . S
O421 Nd400 2.492 . S
O421 C402 1.239 . S
O422 Nd400 2.487 . S
O422 C409 1.241 . S
O423 Nd400 2.682 . S
O423 Nd401 2.414 . S
O423 C409 1.273 . S
O424 Nd400 2.410 . S
O424 C410 1.251 . S
O425 Nd401 2.424 . S
O425 C410 1.268 . S
O426 Nd401 2.500 . S
O426 C411 1.258 . S
O427 Nd401 2.492 . S
O427 C411 1.239 . S
O428 Nd401 2.487 . S
O428 C418 1.241 . S
O429 Nd400 2.414 . S
O429 Nd401 2.682 . S
O429 C418 1.273 . S
O430 Nd401 2.410 . S
O430 C419 1.251 . S
O431 Nd400 2.424 . S
O431 C419 1.268 . S
H432 C404 0.930 . S
H433 C405 0.929 . S
H434 C407 0.930 . S
H435 C408 0.929 . S
H436 C413 0.930 . S
H437 C414 0.929 . S
H438 C416 0.930 . S
H439 C417 0.929 . S
Nd440 C442 2.836 . S
Nd440 O460 2.500 . S
Nd440 O461 2.492 . S
Nd440 O462 2.487 . S
Nd440 O463 2.682 . S
Nd440 O464 2.410 . S
Nd440 O469 2.414 . S
Nd440 O471 2.424 . S
Nd441 C451 2.836 . S
Nd441 O463 2.414 . S
Nd441 O465 2.424 . S
Nd441 O466 2.500 . S
Nd441 O467 2.492 . S
Nd441 O468 2.487 . S
Nd441 O469 2.682 . S
Nd441 O470 2.410 . S
C442 Nd440 2.836 . S
C442 C443 1.498 . S
C442 O460 1.258 . S
C442 O461 1.239 . S
C443 C442 1.498 . S
C443 C444 1.366 . S
C443 C448 1.407 . S
C444 C443 1.366 . S
C444 C445 1.392 . S
C444 H472 0.930 . S
C445 C444 1.392 . S
C445 C446 1.398 . S
C445 H473 0.929 . S
C446 C445 1.398 . S
C446 C447 1.352 . S
C447 C446 1.352 . S
C447 C448 1.384 . S
C447 H474 0.930 . S
C448 C443 1.407 . S
C448 C447 1.384 . S
C448 H475 0.929 . S
C449 O462 1.241 . S
C449 O463 1.273 . S
C450 O464 1.251 . S
C450 O465 1.268 . S
C451 Nd441 2.836 . S
C451 C452 1.498 . S
C451 O466 1.258 . S
C451 O467 1.239 . S
C452 C451 1.498 . S
C452 C453 1.366 . S
C452 C457 1.407 . S
C453 C452 1.366 . S
C453 C454 1.392 . S
C453 H476 0.930 . S
C454 C453 1.392 . S
C454 C455 1.398 . S
C454 H477 0.929 . S
C455 C454 1.398 . S
C455 C456 1.352 . S
C456 C455 1.352 . S
C456 C457 1.384 . S
C456 H478 0.930 . S
C457 C452 1.407 . S
C457 C456 1.384 . S
C457 H479 0.929 . S
C458 O468 1.241 . S
C458 O469 1.273 . S
C459 O470 1.251 . S
C459 O471 1.268 . S
O460 Nd440 2.500 . S
O460 C442 1.258 . S
O461 Nd440 2.492 . S
O461 C442 1.239 . S
O462 Nd440 2.487 . S
O462 C449 1.241 . S
O463 Nd440 2.682 . S
O463 Nd441 2.414 . S
O463 C449 1.273 . S
O464 Nd440 2.410 . S
O464 C450 1.251 . S
O465 Nd441 2.424 . S
O465 C450 1.268 . S
O466 Nd441 2.500 . S
O466 C451 1.258 . S
O467 Nd441 2.492 . S
O467 C451 1.239 . S
O468 Nd441 2.487 . S
O468 C458 1.241 . S
O469 Nd440 2.414 . S
O469 Nd441 2.682 . S
O469 C458 1.273 . S
O470 Nd441 2.410 . S
O470 C459 1.251 . S
O471 Nd440 2.424 . S
O471 C459 1.268 . S
H472 C444 0.930 . S
H473 C445 0.929 . S
H474 C447 0.930 . S
H475 C448 0.929 . S
H476 C453 0.930 . S
H477 C454 0.929 . S
H478 C456 0.930 . S
H479 C457 0.929 . S
Nd480 C482 2.836 . S
Nd480 O500 2.500 . S
Nd480 O501 2.492 . S
Nd480 O502 2.487 . S
Nd480 O503 2.682 . S
Nd480 O504 2.410 . S
Nd480 O509 2.414 . S
Nd480 O511 2.424 . S
Nd481 C491 2.836 . S
Nd481 O503 2.414 . S
Nd481 O505 2.424 . S
Nd481 O506 2.500 . S
Nd481 O507 2.492 . S
Nd481 O508 2.487 . S
Nd481 O509 2.682 . S
Nd481 O510 2.410 . S
C482 Nd480 2.836 . S
C482 C483 1.498 . S
C482 O500 1.258 . S
C482 O501 1.239 . S
C483 C482 1.498 . S
C483 C484 1.366 . S
C483 C488 1.407 . S
C484 C483 1.366 . S
C484 C485 1.392 . S
C484 H512 0.930 . S
C485 C484 1.392 . S
C485 C486 1.398 . S
C485 H513 0.929 . S
C486 C485 1.398 . S
C486 C487 1.352 . S
C487 C486 1.352 . S
C487 C488 1.384 . S
C487 H514 0.930 . S
C488 C483 1.407 . S
C488 C487 1.384 . S
C488 H515 0.929 . S
C489 O502 1.241 . S
C489 O503 1.273 . S
C490 O504 1.251 . S
C490 O505 1.268 . S
C491 Nd481 2.836 . S
C491 C492 1.498 . S
C491 O506 1.258 . S
C491 O507 1.239 . S
C492 C491 1.498 . S
C492 C493 1.366 . S
C492 C497 1.407 . S
C493 C492 1.366 . S
C493 C494 1.392 . S
C493 H516 0.930 . S
C494 C493 1.392 . S
C494 C495 1.398 . S
C494 H517 0.929 . S
C495 C494 1.398 . S
C495 C496 1.352 . S
C496 C495 1.352 . S
C496 C497 1.384 . S
C496 H518 0.930 . S
C497 C492 1.407 . S
C497 C496 1.384 . S
C497 H519 0.929 . S
C498 O508 1.241 . S
C498 O509 1.273 . S
C499 O510 1.251 . S
C499 O511 1.268 . S
O500 Nd480 2.500 . S
O500 C482 1.258 . S
O501 Nd480 2.492 . S
O501 C482 1.239 . S
O502 Nd480 2.487 . S
O502 C489 1.241 . S
O503 Nd480 2.682 . S
O503 Nd481 2.414 . S
O503 C489 1.273 . S
O504 Nd480 2.410 . S
O504 C490 1.251 . S
O505 Nd481 2.424 . S
O505 C490 1.268 . S
O506 Nd481 2.500 . S
O506 C491 1.258 . S
O507 Nd481 2.492 . S
O507 C491 1.239 . S
O508 Nd481 2.487 . S
O508 C498 1.241 . S
O509 Nd480 2.414 . S
O509 Nd481 2.682 . S
O509 C498 1.273 . S
O510 Nd481 2.410 . S
O510 C499 1.251 . S
O511 Nd480 2.424 . S
O511 C499 1.268 . S
H512 C484 0.930 . S
H513 C485 0.929 . S
H514 C487 0.930 . S
H515 C488 0.929 . S
H516 C493 0.930 . S
H517 C494 0.929 . S
H518 C496 0.930 . S
H519 C497 0.929 . S
Nd520 C522 2.836 1_554 S
Nd520 O540 2.500 . S
Nd520 O541 2.492 . S
Nd520 O542 2.487 . S
Nd520 O543 2.682 . S
Nd520 O544 2.410 . S
Nd520 O549 2.414 . S
Nd520 O551 2.424 . S
Nd521 C531 2.836 . S
Nd521 O543 2.414 1_655 S
Nd521 O545 2.424 . S
Nd521 O546 2.500 . S
Nd521 O547 2.492 . S
Nd521 O548 2.487 . S
Nd521 O549 2.682 1_655 S
Nd521 O550 2.410 1_655 S
C522 Nd520 2.836 1_556 S
C522 C523 1.498 . S
C522 O540 1.258 1_556 S
C522 O541 1.239 1_556 S
C523 C522 1.498 . S
C523 C524 1.366 . S
C523 C528 1.407 . S
C524 C523 1.366 . S
C524 C525 1.392 . S
C524 H552 0.930 . S
C525 C524 1.392 . S
C525 C526 1.398 . S
C525 H553 0.929 . S
C526 C525 1.398 . S
C526 C527 1.352 . S
C527 C526 1.352 . S
C527 C528 1.384 . S
C527 H554 0.930 . S
C528 C523 1.407 . S
C528 C527 1.384 . S
C528 H555 0.929 . S
C529 O542 1.241 . S
C529 O543 1.273 . S
C530 O544 1.251 1_655 S
C530 O545 1.268 . S
C531 Nd521 2.836 . S
C531 C532 1.498 . S
C531 O546 1.258 . S
C531 O547 1.239 . S
C532 C531 1.498 . S
C532 C533 1.366 . S
C532 C537 1.407 . S
C533 C532 1.366 . S
C533 C534 1.392 . S
C533 H556 0.930 . S
C534 C533 1.392 . S
C534 C535 1.398 . S
C534 H557 0.929 . S
C535 C534 1.398 . S
C535 C536 1.352 . S
C536 C535 1.352 . S
C536 C537 1.384 . S
C536 H558 0.930 . S
C537 C532 1.407 . S
C537 C536 1.384 . S
C537 H559 0.929 . S
C538 O548 1.241 1_455 S
C538 O549 1.273 . S
C539 O550 1.251 . S
C539 O551 1.268 . S
O540 Nd520 2.500 . S
O540 C522 1.258 1_554 S
O541 Nd520 2.492 . S
O541 C522 1.239 1_554 S
O542 Nd520 2.487 . S
O542 C529 1.241 . S
O543 Nd520 2.682 . S
O543 Nd521 2.414 1_455 S
O543 C529 1.273 . S
O544 Nd520 2.410 . S
O544 C530 1.251 1_455 S
O545 Nd521 2.424 . S
O545 C530 1.268 . S
O546 Nd521 2.500 . S
O546 C531 1.258 . S
O547 Nd521 2.492 . S
O547 C531 1.239 . S
O548 Nd521 2.487 . S
O548 C538 1.241 1_655 S
O549 Nd520 2.414 . S
O549 Nd521 2.682 1_455 S
O549 C538 1.273 . S
O550 Nd521 2.410 1_455 S
O550 C539 1.251 . S
O551 Nd520 2.424 . S
O551 C539 1.268 . S
H552 C524 0.930 . S
H553 C525 0.929 . S
H554 C527 0.930 . S
H555 C528 0.929 . S
H556 C533 0.930 . S
H557 C534 0.929 . S
H558 C536 0.930 . S
H559 C537 0.929 . S
Nd560 C562 2.836 . S
Nd560 O580 2.500 . S
Nd560 O581 2.492 . S
Nd560 O582 2.487 . S
Nd560 O583 2.682 . S
Nd560 O584 2.410 . S
Nd560 O589 2.414 . S
Nd560 O591 2.424 . S
Nd561 C571 2.836 . S
Nd561 O583 2.414 . S
Nd561 O585 2.424 . S
Nd561 O586 2.500 . S
Nd561 O587 2.492 . S
Nd561 O588 2.487 . S
Nd561 O589 2.682 . S
Nd561 O590 2.410 . S
C562 Nd560 2.836 . S
C562 C563 1.498 . S
C562 O580 1.258 . S
C562 O581 1.239 . S
C563 C562 1.498 . S
C563 C564 1.366 . S
C563 C568 1.407 . S
C564 C563 1.366 . S
C564 C565 1.392 . S
C564 H592 0.930 . S
C565 C564 1.392 . S
C565 C566 1.398 . S
C565 H593 0.929 . S
C566 C565 1.398 . S
C566 C567 1.352 . S
C567 C566 1.352 . S
C567 C568 1.384 . S
C567 H594 0.930 . S
C568 C563 1.407 . S
C568 C567 1.384 . S
C568 H595 0.929 . S
C569 O582 1.241 . S
C569 O583 1.273 . S
C570 O584 1.251 . S
C570 O585 1.268 . S
C571 Nd561 2.836 . S
C571 C572 1.498 . S
C571 O586 1.258 . S
C571 O587 1.239 . S
C572 C571 1.498 . S
C572 C573 1.366 . S
C572 C577 1.407 . S
C573 C572 1.366 . S
C573 C574 1.392 . S
C573 H596 0.930 . S
C574 C573 1.392 . S
C574 C575 1.398 . S
C574 H597 0.929 . S
C575 C574 1.398 . S
C575 C576 1.352 . S
C576 C575 1.352 . S
C576 C577 1.384 . S
C576 H598 0.930 . S
C577 C572 1.407 . S
C577 C576 1.384 . S
C577 H599 0.929 . S
C578 O588 1.241 . S
C578 O589 1.273 . S
C579 O590 1.251 . S
C579 O591 1.268 . S
O580 Nd560 2.500 . S
O580 C562 1.258 . S
O581 Nd560 2.492 . S
O581 C562 1.239 . S
O582 Nd560 2.487 . S
O582 C569 1.241 . S
O583 Nd560 2.682 . S
O583 Nd561 2.414 . S
O583 C569 1.273 . S
O584 Nd560 2.410 . S
O584 C570 1.251 . S
O585 Nd561 2.424 . S
O585 C570 1.268 . S
O586 Nd561 2.500 . S
O586 C571 1.258 . S
O587 Nd561 2.492 . S
O587 C571 1.239 . S
O588 Nd561 2.487 . S
O588 C578 1.241 . S
O589 Nd560 2.414 . S
O589 Nd561 2.682 . S
O589 C578 1.273 . S
O590 Nd561 2.410 . S
O590 C579 1.251 . S
O591 Nd560 2.424 . S
O591 C579 1.268 . S
H592 C564 0.930 . S
H593 C565 0.929 . S
H594 C567 0.930 . S
H595 C568 0.929 . S
H596 C573 0.930 . S
H597 C574 0.929 . S
H598 C576 0.930 . S
H599 C577 0.929 . S
Nd600 C602 2.836 . S
Nd600 O620 2.500 . S
Nd600 O621 2.492 . S
Nd600 O622 2.487 . S
Nd600 O623 2.682 1_455 S
Nd600 O624 2.410 1_455 S
Nd600 O629 2.414 . S
Nd600 O631 2.424 . S
Nd601 C611 2.836 1_556 S
Nd601 O623 2.414 . S
Nd601 O625 2.424 . S
Nd601 O626 2.500 . S
Nd601 O627 2.492 . S
Nd601 O628 2.487 . S
Nd601 O629 2.682 1_655 S
Nd601 O630 2.410 1_655 S
C602 Nd600 2.836 . S
C602 C603 1.498 . S
C602 O620 1.258 . S
C602 O621 1.239 . S
C603 C602 1.498 . S
C603 C604 1.366 . S
C603 C608 1.407 . S
C604 C603 1.366 . S
C604 C605 1.392 . S
C604 H632 0.930 . S
C605 C604 1.392 . S
C605 C606 1.398 . S
C605 H633 0.929 . S
C606 C605 1.398 . S
C606 C607 1.352 . S
C607 C606 1.352 . S
C607 C608 1.384 . S
C607 H634 0.930 . S
C608 C603 1.407 . S
C608 C607 1.384 . S
C608 H635 0.929 . S
C609 O622 1.241 . S
C609 O623 1.273 1_455 S
C610 O624 1.251 . S
C610 O625 1.268 . S
C611 Nd601 2.836 1_554 S
C611 C612 1.498 . S
C611 O626 1.258 1_554 S
C611 O627 1.239 1_554 S
C612 C611 1.498 . S
C612 C613 1.366 . S
C612 C617 1.407 . S
C613 C612 1.366 . S
C613 C614 1.392 . S
C613 H636 0.930 . S
C614 C613 1.392 . S
C614 C615 1.398 . S
C614 H637 0.929 . S
C615 C614 1.398 . S
C615 C616 1.352 . S
C616 C615 1.352 . S
C616 C617 1.384 . S
C616 H638 0.930 . S
C617 C612 1.407 . S
C617 C616 1.384 . S
C617 H639 0.929 . S
C618 O628 1.241 . S
C618 O629 1.273 1_655 S
C619 O630 1.251 . S
C619 O631 1.268 . S
O620 Nd600 2.500 . S
O620 C602 1.258 . S
O621 Nd600 2.492 . S
O621 C602 1.239 . S
O622 Nd600 2.487 . S
O622 C609 1.241 . S
O623 Nd600 2.682 1_655 S
O623 Nd601 2.414 . S
O623 C609 1.273 1_655 S
O624 Nd600 2.410 1_655 S
O624 C610 1.251 . S
O625 Nd601 2.424 . S
O625 C610 1.268 . S
O626 Nd601 2.500 . S
O626 C611 1.258 1_556 S
O627 Nd601 2.492 . S
O627 C611 1.239 1_556 S
O628 Nd601 2.487 . S
O628 C618 1.241 . S
O629 Nd600 2.414 . S
O629 Nd601 2.682 1_455 S
O629 C618 1.273 1_455 S
O630 Nd601 2.410 1_455 S
O630 C619 1.251 . S
O631 Nd600 2.424 . S
O631 C619 1.268 . S
H632 C604 0.930 . S
H633 C605 0.929 . S
H634 C607 0.930 . S
H635 C608 0.929 . S
H636 C613 0.930 . S
H637 C614 0.929 . S
H638 C616 0.930 . S
H639 C617 0.929 . S
C640 C641 1.363 . S
C640 C646 1.379 . S
C640 N648 1.356 1_556 S
C641 C640 1.363 . S
C641 C647 1.363 . S
C642 C643 1.363 . S
C642 C647 1.379 . S
C642 N649 1.356 . S
C643 C642 1.363 . S
C643 C646 1.363 . S
N644 C646 1.356 . S
N644 H656 0.984 . S
N644 H657 0.985 . S
N645 C647 1.356 . S
N645 H650 0.984 1_556 S
N645 H651 0.985 . S
C646 C640 1.379 . S
C646 C643 1.363 . S
C646 N644 1.356 . S
C647 C641 1.363 . S
C647 C642 1.379 . S
C647 N645 1.356 . S
N648 C640 1.356 1_554 S
N648 H654 0.984 . S
N648 H655 0.984 . S
N649 C642 1.356 . S
N649 H652 0.984 . S
N649 H653 0.985 . S
H650 N645 0.984 1_554 S
H651 N645 0.985 . S
H652 N649 0.984 . S
H653 N649 0.985 . S
H654 N648 0.984 . S
H655 N648 0.984 . S
H656 N644 0.984 . S
H657 N644 0.985 . S
C658 C659 1.363 . S
C658 C664 1.379 . S
C658 N666 1.356 . S
C659 C658 1.363 . S
C659 C665 1.363 . S
C660 C661 1.363 . S
C660 C665 1.379 . S
C660 N667 1.356 . S
C661 C660 1.363 . S
C661 C664 1.363 . S
N662 C664 1.356 . S
N662 H674 0.984 . S
N662 H675 0.985 . S
N663 C665 1.356 . S
N663 H668 0.984 . S
N663 H669 0.985 . S
C664 C658 1.379 . S
C664 C661 1.363 . S
C664 N662 1.356 . S
C665 C659 1.363 . S
C665 C660 1.379 . S
C665 N663 1.356 . S
N666 C658 1.356 . S
N666 H672 0.984 . S
N666 H673 0.984 . S
N667 C660 1.356 . S
N667 H670 0.984 . S
N667 H671 0.985 . S
H668 N663 0.984 . S
H669 N663 0.985 . S
H670 N667 0.984 . S
H671 N667 0.985 . S
H672 N666 0.984 . S
H673 N666 0.984 . S
H674 N662 0.984 . S
H675 N662 0.985 . S
C676 C677 1.363 . S
C676 C682 1.379 . S
C676 N684 1.356 . S
C677 C676 1.363 . S
C677 C683 1.363 . S
C678 C679 1.363 . S
C678 C683 1.379 . S
C678 N685 1.356 . S
C679 C678 1.363 . S
C679 C682 1.363 . S
N680 C682 1.356 . S
N680 H692 0.984 . S
N680 H693 0.985 . S
N681 C683 1.356 . S
N681 H686 0.984 . S
N681 H687 0.985 . S
C682 C676 1.379 . S
C682 C679 1.363 . S
C682 N680 1.356 . S
C683 C677 1.363 . S
C683 C678 1.379 . S
C683 N681 1.356 . S
N684 C676 1.356 . S
N684 H690 0.984 . S
N684 H691 0.984 . S
N685 C678 1.356 . S
N685 H688 0.984 . S
N685 H689 0.985 . S
H686 N681 0.984 . S
H687 N681 0.985 . S
H688 N685 0.984 . S
H689 N685 0.985 . S
H690 N684 0.984 . S
H691 N684 0.984 . S
H692 N680 0.984 . S
H693 N680 0.985 . S
C694 C695 1.363 . S
C694 C700 1.379 . S
C694 N702 1.356 . S
C695 C694 1.363 . S
C695 C701 1.363 . S
C696 C697 1.363 . S
C696 C701 1.379 . S
C696 N703 1.356 . S
C697 C696 1.363 . S
C697 C700 1.363 . S
N698 C700 1.356 . S
N698 H710 0.984 . S
N698 H711 0.985 . S
N699 C701 1.356 . S
N699 H704 0.984 . S
N699 H705 0.985 . S
C700 C694 1.379 . S
C700 C697 1.363 . S
C700 N698 1.356 . S
C701 C695 1.363 . S
C701 C696 1.379 . S
C701 N699 1.356 . S
N702 C694 1.356 . S
N702 H708 0.984 . S
N702 H709 0.984 . S
N703 C696 1.356 . S
N703 H706 0.984 . S
N703 H707 0.985 . S
H704 N699 0.984 . S
H705 N699 0.985 . S
H706 N703 0.984 . S
H707 N703 0.985 . S
H708 N702 0.984 . S
H709 N702 0.984 . S
H710 N698 0.984 . S
H711 N698 0.985 . S
C712 C713 1.363 . S
C712 C718 1.379 . S
C712 N720 1.356 . S
C713 C712 1.363 . S
C713 C719 1.363 . S
C714 C715 1.363 . S
C714 C719 1.379 . S
C714 N721 1.356 . S
C715 C714 1.363 . S
C715 C718 1.363 . S
N716 C718 1.356 1_556 S
N716 H728 0.984 . S
N716 H729 0.985 . S
N717 C719 1.356 . S
N717 H722 0.984 . S
N717 H723 0.985 . S
C718 C712 1.379 . S
C718 C715 1.363 . S
C718 N716 1.356 1_554 S
C719 C713 1.363 . S
C719 C714 1.379 . S
C719 N717 1.356 . S
N720 C712 1.356 . S
N720 H726 0.984 . S
N720 H727 0.984 . S
N721 C714 1.356 . S
N721 H724 0.984 1_654 S
N721 H725 0.987 . S
H722 N717 0.984 . S
H723 N717 0.985 . S
H724 N721 0.984 1_456 S
H725 N721 0.987 . S
H726 N720 0.984 . S
H727 N720 0.984 . S
H728 N716 0.984 . S
H729 N716 0.985 . S
C730 C731 1.363 . S
C730 C736 1.379 . S
C730 N738 1.356 . S
C731 C730 1.363 . S
C731 C737 1.363 . S
C732 C733 1.363 . S
C732 C737 1.379 . S
C732 N739 1.356 . S
C733 C732 1.363 . S
C733 C736 1.363 . S
N734 C736 1.356 . S
N734 H746 0.984 . S
N734 H747 0.985 . S
N735 C737 1.356 . S
N735 H740 0.984 . S
N735 H741 0.985 . S
C736 C730 1.379 . S
C736 C733 1.363 . S
C736 N734 1.356 . S
C737 C731 1.363 . S
C737 C732 1.379 . S
C737 N735 1.356 . S
N738 C730 1.356 . S
N738 H744 0.984 . S
N738 H745 0.984 . S
N739 C732 1.356 . S
N739 H742 0.984 . S
N739 H743 0.985 . S
H740 N735 0.984 . S
H741 N735 0.985 . S
H742 N739 0.984 . S
H743 N739 0.985 . S
H744 N738 0.984 . S
H745 N738 0.984 . S
H746 N734 0.984 . S
H747 N734 0.985 . S
C748 C749 1.363 . S
C748 C754 1.379 . S
C748 N756 1.356 . S
C749 C748 1.363 . S
C749 C755 1.363 . S
C750 C751 1.363 . S
C750 C755 1.379 . S
C750 N757 1.356 . S
C751 C750 1.363 . S
C751 C754 1.363 . S
N752 C754 1.356 . S
N752 H764 0.984 . S
N752 H765 0.985 . S
N753 C755 1.356 . S
N753 H758 0.984 . S
N753 H759 0.985 . S
C754 C748 1.379 . S
C754 C751 1.363 . S
C754 N752 1.356 . S
C755 C749 1.363 . S
C755 C750 1.379 . S
C755 N753 1.356 . S
N756 C748 1.356 . S
N756 H762 0.984 . S
N756 H763 0.984 . S
N757 C750 1.356 . S
N757 H760 0.984 . S
N757 H761 0.985 . S
H758 N753 0.984 . S
H759 N753 0.985 . S
H760 N757 0.984 . S
H761 N757 0.985 . S
H762 N756 0.984 . S
H763 N756 0.984 . S
H764 N752 0.984 . S
H765 N752 0.985 . S
C766 C767 1.363 . S
C766 C772 1.379 . S
C766 N774 1.356 . S
C767 C766 1.363 . S
C767 C773 1.363 . S
C768 C769 1.363 . S
C768 C773 1.379 . S
C768 N775 1.356 . S
C769 C768 1.363 . S
C769 C772 1.363 . S
N770 C772 1.356 . S
N770 H782 0.984 . S
N770 H783 0.985 . S
N771 C773 1.356 . S
N771 H776 0.984 . S
N771 H777 0.985 . S
C772 C766 1.379 . S
C772 C769 1.363 . S
C772 N770 1.356 . S
C773 C767 1.363 . S
C773 C768 1.379 . S
C773 N771 1.356 . S
N774 C766 1.356 . S
N774 H780 0.984 . S
N774 H781 0.984 . S
N775 C768 1.356 . S
N775 H778 0.984 . S
N775 H779 0.985 . S
H776 N771 0.984 . S
H777 N771 0.985 . S
H778 N775 0.984 . S
H779 N775 0.985 . S
H780 N774 0.984 . S
H781 N774 0.984 . S
H782 N770 0.984 . S
H783 N770 0.985 . S
C784 C785 1.363 . S
C784 C790 1.379 . S
C784 N792 1.356 . S
C785 C784 1.363 . S
C785 C791 1.363 . S
C786 C787 1.363 . S
C786 C791 1.379 . S
C786 N793 1.356 . S
C787 C786 1.363 . S
C787 C790 1.363 . S
N788 C790 1.356 . S
N788 H800 0.984 . S
N788 H801 0.985 . S
N789 C791 1.356 . S
N789 H794 0.984 . S
N789 H795 0.985 . S
C790 C784 1.379 . S
C790 C787 1.363 . S
C790 N788 1.356 . S
C791 C785 1.363 . S
C791 C786 1.379 . S
C791 N789 1.356 . S
N792 C784 1.356 . S
N792 H798 0.984 . S
N792 H799 0.984 . S
N793 C786 1.356 . S
N793 H796 0.984 . S
N793 H797 0.985 . S
H794 N789 0.984 . S
H795 N789 0.985 . S
H796 N793 0.984 . S
H797 N793 0.985 . S
H798 N792 0.984 . S
H799 N792 0.984 . S
H800 N788 0.984 . S
H801 N788 0.985 . S
C802 C803 1.363 . S
C802 C808 1.379 . S
C802 N810 1.356 . S
C803 C802 1.363 . S
C803 C809 1.363 . S
C804 C805 1.363 . S
C804 C809 1.379 . S
C804 N811 1.356 . S
C805 C804 1.363 . S
C805 C808 1.363 . S
N806 C808 1.356 . S
N806 H818 0.984 . S
N806 H819 0.985 . S
N807 C809 1.356 . S
N807 H812 0.984 . S
N807 H813 0.985 . S
C808 C802 1.379 . S
C808 C805 1.363 . S
C808 N806 1.356 . S
C809 C803 1.363 . S
C809 C804 1.379 . S
C809 N807 1.356 . S
N810 C802 1.356 . S
N810 H816 0.984 . S
N810 H817 0.984 . S
N811 C804 1.356 . S
N811 H814 0.984 . S
N811 H815 0.985 . S
H812 N807 0.984 . S
H813 N807 0.985 . S
H814 N811 0.984 . S
H815 N811 0.985 . S
H816 N810 0.984 . S
H817 N810 0.984 . S
H818 N806 0.984 . S
H819 N806 0.985 . S
C820 C821 1.363 . S
C820 C826 1.379 . S
C820 N828 1.356 1_556 S
C821 C820 1.363 . S
C821 C827 1.363 . S
C822 C823 1.363 . S
C822 C827 1.379 . S
C822 N829 1.356 . S
C823 C822 1.363 . S
C823 C826 1.363 . S
N824 C826 1.356 . S
N824 H836 0.984 . S
N824 H837 0.985 . S
N825 C827 1.356 . S
N825 H830 0.984 1_656 S
N825 H831 0.985 . S
C826 C820 1.379 . S
C826 C823 1.363 . S
C826 N824 1.356 . S
C827 C821 1.363 . S
C827 C822 1.379 . S
C827 N825 1.356 . S
N828 C820 1.356 1_554 S
N828 H834 0.984 . S
N828 H835 0.984 . S
N829 C822 1.356 . S
N829 H832 0.984 . S
N829 H833 0.985 . S
H830 N825 0.984 1_454 S
H831 N825 0.985 . S
H832 N829 0.984 . S
H833 N829 0.985 . S
H834 N828 0.984 . S
H835 N828 0.984 . S
H836 N824 0.984 . S
H837 N824 0.985 . S
C838 C839 1.363 . S
C838 C844 1.379 . S
C838 N846 1.356 . S
C839 C838 1.363 . S
C839 C845 1.363 . S
C840 C841 1.363 . S
C840 C845 1.379 . S
C840 N847 1.356 . S
C841 C840 1.363 . S
C841 C844 1.363 . S
N842 C844 1.356 . S
N842 H854 0.984 . S
N842 H855 0.985 . S
N843 C845 1.356 . S
N843 H848 0.984 . S
N843 H849 0.985 . S
C844 C838 1.379 . S
C844 C841 1.363 . S
C844 N842 1.356 . S
C845 C839 1.363 . S
C845 C840 1.379 . S
C845 N843 1.356 . S
N846 C838 1.356 . S
N846 H852 0.984 . S
N846 H853 0.984 . S
N847 C840 1.356 . S
N847 H850 0.984 . S
N847 H851 0.985 . S
H848 N843 0.984 . S
H849 N843 0.985 . S
H850 N847 0.984 . S
H851 N847 0.985 . S
H852 N846 0.984 . S
H853 N846 0.984 . S
H854 N842 0.984 . S
H855 N842 0.985 . S
C856 C857 1.363 . S
C856 C862 1.379 . S
C856 N864 1.356 . S
C857 C856 1.363 . S
C857 C863 1.363 . S
C858 C859 1.363 . S
C858 C863 1.379 . S
C858 N865 1.356 . S
C859 C858 1.363 . S
C859 C862 1.363 . S
N860 C862 1.356 . S
N860 H872 0.984 . S
N860 H873 0.985 . S
N861 C863 1.356 . S
N861 H866 0.984 . S
N861 H867 0.985 . S
C862 C856 1.379 . S
C862 C859 1.363 . S
C862 N860 1.356 . S
C863 C857 1.363 . S
C863 C858 1.379 . S
C863 N861 1.356 . S
N864 C856 1.356 . S
N864 H870 0.984 . S
N864 H871 0.984 . S
N865 C858 1.356 . S
N865 H868 0.984 . S
N865 H869 0.985 . S
H866 N861 0.984 . S
H867 N861 0.985 . S
H868 N865 0.984 . S
H869 N865 0.985 . S
H870 N864 0.984 . S
H871 N864 0.984 . S
H872 N860 0.984 . S
H873 N860 0.985 . S
C874 C875 1.363 . S
C874 C880 1.379 . S
C874 N882 1.356 . S
C875 C874 1.363 . S
C875 C881 1.363 . S
C876 C877 1.363 . S
C876 C881 1.379 . S
C876 N883 1.356 . S
C877 C876 1.363 . S
C877 C880 1.363 . S
N878 C880 1.356 . S
N878 H890 0.984 . S
N878 H891 0.985 . S
N879 C881 1.356 . S
N879 H884 0.984 . S
N879 H885 0.985 . S
C880 C874 1.379 . S
C880 C877 1.363 . S
C880 N878 1.356 . S
C881 C875 1.363 . S
C881 C876 1.379 . S
C881 N879 1.356 . S
N882 C874 1.356 . S
N882 H888 0.984 . S
N882 H889 0.984 . S
N883 C876 1.356 . S
N883 H886 0.984 . S
N883 H887 0.985 . S
H884 N879 0.984 . S
H885 N879 0.985 . S
H886 N883 0.984 . S
H887 N883 0.985 . S
H888 N882 0.984 . S
H889 N882 0.984 . S
H890 N878 0.984 . S
H891 N878 0.985 . S
C892 C893 1.363 . S
C892 C898 1.379 . S
C892 N900 1.356 . S
C893 C892 1.363 . S
C893 C899 1.363 . S
C894 C895 1.363 . S
C894 C899 1.379 . S
C894 N901 1.356 . S
C895 C894 1.363 . S
C895 C898 1.363 . S
N896 C898 1.356 1_556 S
N896 H908 0.984 . S
N896 H909 0.985 . S
N897 C899 1.356 . S
N897 H902 0.984 . S
N897 H903 0.985 . S
C898 C892 1.379 . S
C898 C895 1.363 . S
C898 N896 1.356 1_554 S
C899 C893 1.363 . S
C899 C894 1.379 . S
C899 N897 1.356 . S
N900 C892 1.356 . S
N900 H906 0.984 . S
N900 H907 0.984 . S
N901 C894 1.356 . S
N901 H904 0.984 1_554 S
N901 H905 0.985 . S
H902 N897 0.984 . S
H903 N897 0.985 . S
H904 N901 0.984 1_556 S
H905 N901 0.985 . S
H906 N900 0.984 . S
H907 N900 0.984 . S
H908 N896 0.984 . S
H909 N896 0.985 . S
C910 C911 1.363 . S
C910 C916 1.379 . S
C910 N918 1.356 . S
C911 C910 1.363 . S
C911 C917 1.363 . S
C912 C913 1.363 . S
C912 C917 1.379 . S
C912 N919 1.356 . S
C913 C912 1.363 . S
C913 C916 1.363 . S
N914 C916 1.356 . S
N914 H926 0.984 . S
N914 H927 0.985 . S
N915 C917 1.356 . S
N915 H920 0.984 . S
N915 H921 0.985 . S
C916 C910 1.379 . S
C916 C913 1.363 . S
C916 N914 1.356 . S
C917 C911 1.363 . S
C917 C912 1.379 . S
C917 N915 1.356 . S
N918 C910 1.356 . S
N918 H924 0.984 . S
N918 H925 0.984 . S
N919 C912 1.356 . S
N919 H922 0.984 . S
N919 H923 0.985 . S
H920 N915 0.984 . S
H921 N915 0.985 . S
H922 N919 0.984 . S
H923 N919 0.985 . S
H924 N918 0.984 . S
H925 N918 0.984 . S
H926 N914 0.984 . S
H927 N914 0.985 . S
C928 C929 1.363 1_655 S
C928 C934 1.379 . S
C928 N936 1.356 . S
C929 C928 1.363 1_455 S
C929 C935 1.363 . S
C930 C931 1.363 . S
C930 C935 1.379 . S
C930 N937 1.356 . S
C931 C930 1.363 . S
C931 C934 1.363 1_455 S
N932 C934 1.356 . S
N932 H944 0.984 . S
N932 H945 0.985 . S
N933 C935 1.356 . S
N933 H938 0.984 . S
N933 H939 0.985 . S
C934 C928 1.379 . S
C934 C931 1.363 1_655 S
C934 N932 1.356 . S
C935 C929 1.363 . S
C935 C930 1.379 . S
C935 N933 1.356 . S
N936 C928 1.356 . S
N936 H942 0.984 . S
N936 H943 0.984 . S
N937 C930 1.356 . S
N937 H940 0.984 . S
N937 H941 0.985 . S
H938 N933 0.984 . S
H939 N933 0.985 . S
H940 N937 0.984 . S
H941 N937 0.985 . S
H942 N936 0.984 . S
H943 N936 0.984 . S
H944 N932 0.984 . S
H945 N932 0.985 . S
C946 C947 1.363 . S
C946 C952 1.379 1_655 S
C946 N954 1.356 . S
C947 C946 1.363 . S
C947 C953 1.363 . S
C948 C949 1.363 . S
C948 C953 1.379 1_455 S
C948 N955 1.356 . S
C949 C948 1.363 . S
C949 C952 1.363 . S
N950 C952 1.356 . S
N950 H962 0.984 . S
N950 H963 0.985 . S
N951 C953 1.356 . S
N951 H956 0.984 . S
N951 H957 0.985 . S
C952 C946 1.379 1_455 S
C952 C949 1.363 . S
C952 N950 1.356 . S
C953 C947 1.363 . S
C953 C948 1.379 1_655 S
C953 N951 1.356 . S
N954 C946 1.356 . S
N954 H960 0.984 . S
N954 H961 0.984 . S
N955 C948 1.356 . S
N955 H958 0.984 . S
N955 H959 0.985 . S
H956 N951 0.984 . S
H957 N951 0.985 . S
H958 N955 0.984 . S
H959 N955 0.985 . S
H960 N954 0.984 . S
H961 N954 0.984 . S
H962 N950 0.984 . S
H963 N950 0.985 . S
C964 C965 1.363 . S
C964 C970 1.379 . S
C964 N972 1.356 . S
C965 C964 1.363 . S
C965 C971 1.363 . S
C966 C967 1.363 . S
C966 C971 1.379 . S
C966 N973 1.356 . S
C967 C966 1.363 . S
C967 C970 1.363 . S
N968 C970 1.356 . S
N968 H980 0.984 . S
N968 H981 0.985 . S
N969 C971 1.356 . S
N969 H974 0.984 . S
N969 H975 0.985 . S
C970 C964 1.379 . S
C970 C967 1.363 . S
C970 N968 1.356 . S
C971 C965 1.363 . S
C971 C966 1.379 . S
C971 N969 1.356 . S
N972 C964 1.356 . S
N972 H978 0.984 . S
N972 H979 0.984 . S
N973 C966 1.356 . S
N973 H976 0.984 . S
N973 H977 0.985 . S
H974 N969 0.984 . S
H975 N969 0.985 . S
H976 N973 0.984 . S
H977 N973 0.985 . S
H978 N972 0.984 . S
H979 N972 0.984 . S
H980 N968 0.984 . S
H981 N968 0.985 . S
C982 C983 1.363 . S
C982 C988 1.379 . S
C982 N990 1.356 . S
C983 C982 1.363 . S
C983 C989 1.363 . S
C984 C985 1.363 . S
C984 C989 1.379 . S
C984 N991 1.356 . S
C985 C984 1.363 . S
C985 C988 1.363 . S
N986 C988 1.356 . S
N986 H998 0.984 . S
N986 H999 0.985 . S
N987 C989 1.356 . S
N987 H992 0.984 . S
N987 H993 0.985 . S
C988 C982 1.379 . S
C988 C985 1.363 . S
C988 N986 1.356 . S
C989 C983 1.363 . S
C989 C984 1.379 . S
C989 N987 1.356 . S
N990 C982 1.356 . S
N990 H996 0.984 . S
N990 H997 0.984 . S
N991 C984 1.356 . S
N991 H994 0.984 . S
N991 H995 0.985 . S
H992 N987 0.984 . S
H993 N987 0.985 . S
H994 N991 0.984 . S
H995 N991 0.985 . S
H996 N990 0.984 . S
H997 N990 0.984 . S
H998 N986 0.984 . S
H999 N986 0.985 . S
C1000 C1001 1.363 1_655 S
C1000 C1006 1.379 . S
C1000 N1008 1.356 . S
C1001 C1000 1.363 1_455 S
C1001 C1007 1.363 . S
C1002 C1003 1.363 . S
C1002 C1007 1.379 . S
C1002 N1009 1.356 . S
C1003 C1002 1.363 . S
C1003 C1006 1.363 1_455 S
N1004 C1006 1.356 . S
N1004 H1016 0.984 . S
N1004 H1017 0.985 . S
N1005 C1007 1.356 . S
N1005 H1010 0.984 . S
N1005 H1011 0.985 . S
C1006 C1000 1.379 . S
C1006 C1003 1.363 1_655 S
C1006 N1004 1.356 . S
C1007 C1001 1.363 . S
C1007 C1002 1.379 . S
C1007 N1005 1.356 . S
N1008 C1000 1.356 . S
N1008 H1014 0.984 . S
N1008 H1015 0.984 . S
N1009 C1002 1.356 . S
N1009 H1012 0.984 . S
N1009 H1013 0.985 . S
H1010 N1005 0.984 . S
H1011 N1005 0.985 . S
H1012 N1009 0.984 . S
H1013 N1009 0.985 . S
H1014 N1008 0.984 . S
H1015 N1008 0.984 . S
H1016 N1004 0.984 . S
H1017 N1004 0.985 . S
C1018 C1019 1.363 . S
C1018 C1024 1.379 . S
C1018 N1026 1.356 . S
C1019 C1018 1.363 . S
C1019 C1025 1.363 . S
C1020 C1021 1.363 . S
C1020 C1025 1.379 . S
C1020 N1027 1.356 . S
C1021 C1020 1.363 . S
C1021 C1024 1.363 . S
N1022 C1024 1.356 . S
N1022 H1034 0.984 . S
N1022 H1035 0.985 . S
N1023 C1025 1.356 . S
N1023 H1028 0.984 . S
N1023 H1029 0.985 . S
C1024 C1018 1.379 . S
C1024 C1021 1.363 . S
C1024 N1022 1.356 . S
C1025 C1019 1.363 . S
C1025 C1020 1.379 . S
C1025 N1023 1.356 . S
N1026 C1018 1.356 . S
N1026 H1032 0.984 . S
N1026 H1033 0.984 . S
N1027 C1020 1.356 . S
N1027 H1030 0.984 . S
N1027 H1031 0.985 . S
H1028 N1023 0.984 . S
H1029 N1023 0.985 . S
H1030 N1027 0.984 . S
H1031 N1027 0.985 . S
H1032 N1026 0.984 . S
H1033 N1026 0.984 . S
H1034 N1022 0.984 . S
H1035 N1022 0.985 . S
C1036 C1037 1.363 . S
C1036 C1042 1.379 . S
C1036 N1044 1.356 . S
C1037 C1036 1.363 . S
C1037 C1043 1.363 . S
C1038 C1039 1.363 . S
C1038 C1043 1.379 . S
C1038 N1045 1.356 . S
C1039 C1038 1.363 . S
C1039 C1042 1.363 . S
N1040 C1042 1.356 . S
N1040 H1052 0.984 . S
N1040 H1053 0.985 . S
N1041 C1043 1.356 . S
N1041 H1046 0.984 . S
N1041 H1047 0.985 . S
C1042 C1036 1.379 . S
C1042 C1039 1.363 . S
C1042 N1040 1.356 . S
C1043 C1037 1.363 . S
C1043 C1038 1.379 . S
C1043 N1041 1.356 . S
N1044 C1036 1.356 . S
N1044 H1050 0.984 . S
N1044 H1051 0.984 . S
N1045 C1038 1.356 . S
N1045 H1048 0.984 . S
N1045 H1049 0.985 . S
H1046 N1041 0.984 . S
H1047 N1041 0.985 . S
H1048 N1045 0.984 . S
H1049 N1045 0.985 . S
H1050 N1044 0.984 . S
H1051 N1044 0.984 . S
H1052 N1040 0.984 . S
H1053 N1040 0.985 . S
C1054 C1055 1.363 . S
C1054 C1060 1.379 1_455 S
C1054 N1062 1.356 . S
C1055 C1054 1.363 . S
C1055 C1061 1.363 . S
C1056 C1057 1.363 . S
C1056 C1061 1.379 1_655 S
C1056 N1063 1.356 . S
C1057 C1056 1.363 . S
C1057 C1060 1.363 . S
N1058 C1060 1.356 . S
N1058 H1070 0.984 . S
N1058 H1071 0.985 . S
N1059 C1061 1.356 . S
N1059 H1064 0.984 . S
N1059 H1065 0.985 . S
C1060 C1054 1.379 1_655 S
C1060 C1057 1.363 . S
C1060 N1058 1.356 . S
C1061 C1055 1.363 . S
C1061 C1056 1.379 1_455 S
C1061 N1059 1.356 . S
N1062 C1054 1.356 . S
N1062 H1068 0.984 . S
N1062 H1069 0.984 . S
N1063 C1056 1.356 . S
N1063 H1066 0.984 . S
N1063 H1067 0.985 . S
H1064 N1059 0.984 . S
H1065 N1059 0.985 . S
H1066 N1063 0.984 . S
H1067 N1063 0.985 . S
H1068 N1062 0.984 . S
H1069 N1062 0.984 . S
H1070 N1058 0.984 . S
H1071 N1058 0.985 . S
C1072 C1073 1.363 1_655 S
C1072 C1078 1.379 1_554 S
C1072 N1080 1.356 . S
C1073 C1072 1.363 1_455 S
C1073 C1079 1.363 1_545 S
C1074 C1075 1.363 . S
C1074 C1079 1.379 1_556 S
C1074 N1081 1.356 . S
C1075 C1074 1.363 . S
C1075 C1078 1.363 1_465 S
N1076 C1078 1.356 . S
N1076 H1088 0.984 . S
N1076 H1089 0.985 . S
N1077 C1079 1.356 . S
N1077 H1082 0.984 . S
N1077 H1083 0.985 . S
C1078 C1072 1.379 1_556 S
C1078 C1075 1.363 1_645 S
C1078 N1076 1.356 . S
C1079 C1073 1.363 1_565 S
C1079 C1074 1.379 1_554 S
C1079 N1077 1.356 . S
N1080 C1072 1.356 . S
N1080 H1086 0.984 . S
N1080 H1087 0.984 . S
N1081 C1074 1.356 . S
N1081 H1084 0.984 . S
N1081 H1085 0.985 . S
H1082 N1077 0.984 . S
H1083 N1077 0.985 . S
H1084 N1081 0.984 . S
H1085 N1081 0.985 . S
H1086 N1080 0.984 . S
H1087 N1080 0.984 . S
H1088 N1076 0.984 . S
H1089 N1076 0.985 . S
C1090 C1091 1.363 . S
C1090 C1096 1.379 . S
C1090 N1098 1.356 . S
C1091 C1090 1.363 . S
C1091 C1097 1.363 . S
C1092 C1093 1.363 . S
C1092 C1097 1.379 . S
C1092 N1099 1.356 . S
C1093 C1092 1.363 . S
C1093 C1096 1.363 . S
N1094 C1096 1.356 . S
N1094 H1106 0.984 . S
N1094 H1107 0.985 . S
N1095 C1097 1.356 . S
N1095 H1100 0.984 . S
N1095 H1101 0.985 . S
C1096 C1090 1.379 . S
C1096 C1093 1.363 . S
C1096 N1094 1.356 . S
C1097 C1091 1.363 . S
C1097 C1092 1.379 . S
C1097 N1095 1.356 . S
N1098 C1090 1.356 . S
N1098 H1104 0.984 . S
N1098 H1105 0.984 . S
N1099 C1092 1.356 . S
N1099 H1102 0.984 . S
N1099 H1103 0.985 . S
H1100 N1095 0.984 . S
H1101 N1095 0.985 . S
H1102 N1099 0.984 . S
H1103 N1099 0.985 . S
H1104 N1098 0.984 . S
H1105 N1098 0.984 . S
H1106 N1094 0.984 . S
H1107 N1094 0.985 . S
C1108 C1109 1.363 . S
C1108 C1114 1.379 . S
C1108 N1116 1.356 . S
C1109 C1108 1.363 . S
C1109 C1115 1.363 1_545 S
C1110 C1111 1.363 . S
C1110 C1115 1.379 . S
C1110 N1117 1.356 . S
C1111 C1110 1.363 . S
C1111 C1114 1.363 1_565 S
N1112 C1114 1.356 . S
N1112 H1124 0.984 . S
N1112 H1125 0.985 . S
N1113 C1115 1.356 . S
N1113 H1118 0.984 . S
N1113 H1119 0.985 . S
C1114 C1108 1.379 . S
C1114 C1111 1.363 1_545 S
C1114 N1112 1.356 . S
C1115 C1109 1.363 1_565 S
C1115 C1110 1.379 . S
C1115 N1113 1.356 . S
N1116 C1108 1.356 . S
N1116 H1122 0.984 . S
N1116 H1123 0.984 . S
N1117 C1110 1.356 . S
N1117 H1120 0.984 . S
N1117 H1121 0.985 . S
H1118 N1113 0.984 . S
H1119 N1113 0.985 . S
H1120 N1117 0.984 . S
H1121 N1117 0.985 . S
H1122 N1116 0.984 . S
H1123 N1116 0.984 . S
H1124 N1112 0.984 . S
H1125 N1112 0.985 . S
C1126 C1127 1.363 . S
C1126 C1132 1.379 . S
C1126 N1134 1.356 . S
C1127 C1126 1.363 . S
C1127 C1133 1.363 . S
C1128 C1129 1.363 . S
C1128 C1133 1.379 . S
C1128 N1135 1.356 . S
C1129 C1128 1.363 . S
C1129 C1132 1.363 . S
N1130 C1132 1.356 . S
N1130 H1142 0.984 . S
N1130 H1143 0.985 . S
N1131 C1133 1.356 . S
N1131 H1136 0.984 . S
N1131 H1137 0.985 . S
C1132 C1126 1.379 . S
C1132 C1129 1.363 . S
C1132 N1130 1.356 . S
C1133 C1127 1.363 . S
C1133 C1128 1.379 . S
C1133 N1131 1.356 . S
N1134 C1126 1.356 . S
N1134 H1140 0.984 . S
N1134 H1141 0.984 . S
N1135 C1128 1.356 . S
N1135 H1138 0.984 . S
N1135 H1139 0.985 . S
H1136 N1131 0.984 . S
H1137 N1131 0.985 . S
H1138 N1135 0.984 . S
H1139 N1135 0.985 . S
H1140 N1134 0.984 . S
H1141 N1134 0.984 . S
H1142 N1130 0.984 . S
H1143 N1130 0.985 . S
C1144 C1145 1.363 . S
C1144 C1150 1.379 . S
C1144 N1152 1.356 . S
C1145 C1144 1.363 . S
C1145 C1151 1.363 . S
C1146 C1147 1.363 . S
C1146 C1151 1.379 . S
C1146 N1153 1.356 . S
C1147 C1146 1.363 . S
C1147 C1150 1.363 . S
N1148 C1150 1.356 . S
N1148 H1160 0.984 . S
N1148 H1161 0.985 . S
N1149 C1151 1.356 . S
N1149 H1154 0.984 . S
N1149 H1155 0.985 . S
C1150 C1144 1.379 . S
C1150 C1147 1.363 . S
C1150 N1148 1.356 . S
C1151 C1145 1.363 . S
C1151 C1146 1.379 . S
C1151 N1149 1.356 . S
N1152 C1144 1.356 . S
N1152 H1158 0.984 . S
N1152 H1159 0.984 . S
N1153 C1146 1.356 . S
N1153 H1156 0.984 . S
N1153 H1157 0.985 . S
H1154 N1149 0.984 . S
H1155 N1149 0.985 . S
H1156 N1153 0.984 . S
H1157 N1153 0.985 . S
H1158 N1152 0.984 . S
H1159 N1152 0.984 . S
H1160 N1148 0.984 . S
H1161 N1148 0.985 . S
C1162 C1163 1.363 . S
C1162 C1168 1.379 . S
C1162 N1170 1.356 . S
C1163 C1162 1.363 . S
C1163 C1169 1.363 . S
C1164 C1165 1.363 . S
C1164 C1169 1.379 . S
C1164 N1171 1.356 . S
C1165 C1164 1.363 . S
C1165 C1168 1.363 . S
N1166 C1168 1.356 . S
N1166 H1178 0.984 . S
N1166 H1179 0.985 . S
N1167 C1169 1.356 . S
N1167 H1172 0.984 . S
N1167 H1173 0.985 . S
C1168 C1162 1.379 . S
C1168 C1165 1.363 . S
C1168 N1166 1.356 . S
C1169 C1163 1.363 . S
C1169 C1164 1.379 . S
C1169 N1167 1.356 . S
N1170 C1162 1.356 . S
N1170 H1176 0.984 . S
N1170 H1177 0.984 . S
N1171 C1164 1.356 . S
N1171 H1174 0.984 . S
N1171 H1175 0.985 . S
H1172 N1167 0.984 . S
H1173 N1167 0.985 . S
H1174 N1171 0.984 . S
H1175 N1171 0.985 . S
H1176 N1170 0.984 . S
H1177 N1170 0.984 . S
H1178 N1166 0.984 . S
H1179 N1166 0.985 . S
C1180 C1181 1.363 . S
C1180 C1186 1.379 . S
C1180 N1188 1.356 . S
C1181 C1180 1.363 . S
C1181 C1187 1.363 . S
C1182 C1183 1.363 . S
C1182 C1187 1.379 . S
C1182 N1189 1.356 . S
C1183 C1182 1.363 . S
C1183 C1186 1.363 . S
N1184 C1186 1.356 . S
N1184 H1196 0.984 . S
N1184 H1197 0.985 . S
N1185 C1187 1.356 . S
N1185 H1190 0.984 . S
N1185 H1191 0.985 . S
C1186 C1180 1.379 . S
C1186 C1183 1.363 . S
C1186 N1184 1.356 . S
C1187 C1181 1.363 . S
C1187 C1182 1.379 . S
C1187 N1185 1.356 . S
N1188 C1180 1.356 . S
N1188 H1194 0.984 . S
N1188 H1195 0.984 . S
N1189 C1182 1.356 . S
N1189 H1192 0.984 . S
N1189 H1193 0.985 . S
H1190 N1185 0.984 . S
H1191 N1185 0.985 . S
H1192 N1189 0.984 . S
H1193 N1189 0.985 . S
H1194 N1188 0.984 . S
H1195 N1188 0.984 . S
H1196 N1184 0.984 . S
H1197 N1184 0.985 . S
C1198 C1199 1.363 1_655 S
C1198 C1204 1.379 1_556 S
C1198 N1206 1.356 . S
C1199 C1198 1.363 1_455 S
C1199 C1205 1.363 . S
C1200 C1201 1.363 . S
C1200 C1205 1.379 1_554 S
C1200 N1207 1.356 . S
C1201 C1200 1.363 . S
C1201 C1204 1.363 1_455 S
N1202 C1204 1.356 . S
N1202 H1214 0.984 . S
N1202 H1215 0.985 . S
N1203 C1205 1.356 . S
N1203 H1208 0.984 . S
N1203 H1209 0.985 . S
C1204 C1198 1.379 1_554 S
C1204 C1201 1.363 1_655 S
C1204 N1202 1.356 . S
C1205 C1199 1.363 . S
C1205 C1200 1.379 1_556 S
C1205 N1203 1.356 . S
N1206 C1198 1.356 . S
N1206 H1212 0.984 . S
N1206 H1213 0.984 . S
N1207 C1200 1.356 . S
N1207 H1210 0.984 . S
N1207 H1211 0.985 . S
H1208 N1203 0.984 . S
H1209 N1203 0.985 . S
H1210 N1207 0.984 . S
H1211 N1207 0.985 . S
H1212 N1206 0.984 . S
H1213 N1206 0.984 . S
H1214 N1202 0.984 . S
H1215 N1202 0.985 . S
C1216 C1217 1.363 . S
C1216 C1222 1.379 . S
C1216 N1224 1.356 . S
C1217 C1216 1.363 . S
C1217 C1223 1.363 . S
C1218 C1219 1.363 . S
C1218 C1223 1.379 . S
C1218 N1225 1.356 . S
C1219 C1218 1.363 . S
C1219 C1222 1.363 . S
N1220 C1222 1.356 . S
N1220 H1232 0.984 . S
N1220 H1233 0.985 . S
N1221 C1223 1.356 . S
N1221 H1226 0.984 . S
N1221 H1227 0.985 . S
C1222 C1216 1.379 . S
C1222 C1219 1.363 . S
C1222 N1220 1.356 . S
C1223 C1217 1.363 . S
C1223 C1218 1.379 . S
C1223 N1221 1.356 . S
N1224 C1216 1.356 . S
N1224 H1230 0.984 . S
N1224 H1231 0.984 . S
N1225 C1218 1.356 . S
N1225 H1228 0.984 . S
N1225 H1229 0.985 . S
H1226 N1221 0.984 . S
H1227 N1221 0.985 . S
H1228 N1225 0.984 . S
H1229 N1225 0.985 . S
H1230 N1224 0.984 . S
H1231 N1224 0.984 . S
H1232 N1220 0.984 . S
H1233 N1220 0.985 . S
C1234 C1235 1.363 . S
C1234 C1240 1.379 . S
C1234 N1242 1.356 . S
C1235 C1234 1.363 . S
C1235 C1241 1.363 . S
C1236 C1237 1.363 . S
C1236 C1241 1.379 . S
C1236 N1243 1.356 . S
C1237 C1236 1.363 . S
C1237 C1240 1.363 . S
N1238 C1240 1.356 . S
N1238 H1250 0.984 . S
N1238 H1251 0.985 . S
N1239 C1241 1.356 . S
N1239 H1244 0.984 . S
N1239 H1245 0.985 . S
C1240 C1234 1.379 . S
C1240 C1237 1.363 . S
C1240 N1238 1.356 . S
C1241 C1235 1.363 . S
C1241 C1236 1.379 . S
C1241 N1239 1.356 . S
N1242 C1234 1.356 . S
N1242 H1248 0.984 . S
N1242 H1249 0.984 . S
N1243 C1236 1.356 . S
N1243 H1246 0.984 . S
N1243 H1247 0.985 . S
H1244 N1239 0.984 . S
H1245 N1239 0.985 . S
H1246 N1243 0.984 . S
H1247 N1243 0.985 . S
H1248 N1242 0.984 . S
H1249 N1242 0.984 . S
H1250 N1238 0.984 . S
H1251 N1238 0.985 . S
C1252 C1253 1.363 . S
C1252 C1258 1.379 . S
C1252 N1260 1.356 . S
C1253 C1252 1.363 . S
C1253 C1259 1.363 . S
C1254 C1255 1.363 . S
C1254 C1259 1.379 . S
C1254 N1261 1.356 . S
C1255 C1254 1.363 . S
C1255 C1258 1.363 . S
N1256 C1258 1.356 . S
N1256 H1268 0.984 . S
N1256 H1269 0.985 . S
N1257 C1259 1.356 1_554 S
N1257 H1262 0.984 . S
N1257 H1263 0.985 . S
C1258 C1252 1.379 . S
C1258 C1255 1.363 . S
C1258 N1256 1.356 . S
C1259 C1253 1.363 . S
C1259 C1254 1.379 . S
C1259 N1257 1.356 1_556 S
N1260 C1252 1.356 . S
N1260 H1266 0.984 . S
N1260 H1267 0.984 1_556 S
N1261 C1254 1.356 . S
N1261 H1264 0.984 . S
N1261 H1265 0.985 . S
H1262 N1257 0.984 . S
H1263 N1257 0.985 . S
H1264 N1261 0.984 . S
H1265 N1261 0.985 . S
H1266 N1260 0.984 . S
H1267 N1260 0.984 1_554 S
H1268 N1256 0.984 . S
H1269 N1256 0.985 . S
C1270 C1271 1.363 . S
C1270 C1276 1.379 . S
C1270 N1278 1.356 . S
C1271 C1270 1.363 . S
C1271 C1277 1.363 . S
C1272 C1273 1.363 . S
C1272 C1277 1.379 . S
C1272 N1279 1.356 . S
C1273 C1272 1.363 . S
C1273 C1276 1.363 . S
N1274 C1276 1.356 . S
N1274 H1286 0.984 . S
N1274 H1287 0.985 . S
N1275 C1277 1.356 . S
N1275 H1280 0.984 . S
N1275 H1281 0.985 . S
C1276 C1270 1.379 . S
C1276 C1273 1.363 . S
C1276 N1274 1.356 . S
C1277 C1271 1.363 . S
C1277 C1272 1.379 . S
C1277 N1275 1.356 . S
N1278 C1270 1.356 . S
N1278 H1284 0.984 . S
N1278 H1285 0.984 . S
N1279 C1272 1.356 . S
N1279 H1282 0.984 . S
N1279 H1283 0.985 . S
H1280 N1275 0.984 . S
H1281 N1275 0.985 . S
H1282 N1279 0.984 . S
H1283 N1279 0.985 . S
H1284 N1278 0.984 . S
H1285 N1278 0.984 . S
H1286 N1274 0.984 . S
H1287 N1274 0.985 . S
C1288 C1289 1.363 . S
C1288 C1294 1.379 . S
C1288 N1296 1.356 . S
C1289 C1288 1.363 . S
C1289 C1295 1.363 . S
C1290 C1291 1.363 . S
C1290 C1295 1.379 . S
C1290 N1297 1.356 . S
C1291 C1290 1.363 . S
C1291 C1294 1.363 . S
N1292 C1294 1.356 . S
N1292 H1304 0.984 . S
N1292 H1305 0.985 . S
N1293 C1295 1.356 . S
N1293 H1298 0.984 . S
N1293 H1299 0.985 . S
C1294 C1288 1.379 . S
C1294 C1291 1.363 . S
C1294 N1292 1.356 . S
C1295 C1289 1.363 . S
C1295 C1290 1.379 . S
C1295 N1293 1.356 . S
N1296 C1288 1.356 . S
N1296 H1302 0.984 . S
N1296 H1303 0.984 . S
N1297 C1290 1.356 . S
N1297 H1300 0.984 . S
N1297 H1301 0.985 . S
H1298 N1293 0.984 . S
H1299 N1293 0.985 . S
H1300 N1297 0.984 . S
H1301 N1297 0.985 . S
H1302 N1296 0.984 . S
H1303 N1296 0.984 . S
H1304 N1292 0.984 . S
H1305 N1292 0.985 . S
C1306 C1307 1.363 . S
C1306 C1312 1.379 . S
C1306 N1314 1.356 . S
C1307 C1306 1.363 . S
C1307 C1313 1.363 . S
C1308 C1309 1.363 . S
C1308 C1313 1.379 . S
C1308 N1315 1.356 . S
C1309 C1308 1.363 . S
C1309 C1312 1.363 . S
N1310 C1312 1.356 . S
N1310 H1322 0.984 . S
N1310 H1323 0.985 . S
N1311 C1313 1.356 . S
N1311 H1316 0.984 . S
N1311 H1317 0.985 . S
C1312 C1306 1.379 . S
C1312 C1309 1.363 . S
C1312 N1310 1.356 . S
C1313 C1307 1.363 . S
C1313 C1308 1.379 . S
C1313 N1311 1.356 . S
N1314 C1306 1.356 . S
N1314 H1320 0.984 . S
N1314 H1321 0.984 . S
N1315 C1308 1.356 . S
N1315 H1318 0.984 . S
N1315 H1319 0.985 . S
H1316 N1311 0.984 . S
H1317 N1311 0.985 . S
H1318 N1315 0.984 . S
H1319 N1315 0.985 . S
H1320 N1314 0.984 . S
H1321 N1314 0.984 . S
H1322 N1310 0.984 . S
H1323 N1310 0.985 . S
C1324 C1325 1.363 1_556 S
C1324 C1330 1.379 1_556 S
C1324 N1332 1.356 . S
C1325 C1324 1.363 1_554 S
C1325 C1331 1.363 . S
C1326 C1327 1.363 . S
C1326 C1331 1.379 . S
C1326 N1333 1.356 . S
C1327 C1326 1.363 . S
C1327 C1330 1.363 . S
N1328 C1330 1.356 . S
N1328 H1340 0.984 . S
N1328 H1341 0.985 . S
N1329 C1331 1.356 . S
N1329 H1334 0.984 . S
N1329 H1335 0.985 . S
C1330 C1324 1.379 1_554 S
C1330 C1327 1.363 . S
C1330 N1328 1.356 . S
C1331 C1325 1.363 . S
C1331 C1326 1.379 . S
C1331 N1329 1.356 . S
N1332 C1324 1.356 . S
N1332 H1338 0.984 . S
N1332 H1339 0.984 . S
N1333 C1326 1.356 . S
N1333 H1336 0.984 . S
N1333 H1337 0.985 . S
H1334 N1329 0.984 . S
H1335 N1329 0.985 . S
H1336 N1333 0.984 . S
H1337 N1333 0.985 . S
H1338 N1332 0.984 . S
H1339 N1332 0.984 . S
H1340 N1328 0.984 . S
H1341 N1328 0.985 . S
C1342 C1343 1.363 . S
C1342 C1348 1.379 . S
C1342 N1350 1.356 . S
C1343 C1342 1.363 . S
C1343 C1349 1.363 . S
C1344 C1345 1.363 . S
C1344 C1349 1.379 . S
C1344 N1351 1.356 . S
C1345 C1344 1.363 . S
C1345 C1348 1.363 . S
N1346 C1348 1.356 . S
N1346 H1358 0.984 . S
N1346 H1359 0.985 . S
N1347 C1349 1.356 . S
N1347 H1352 0.984 . S
N1347 H1353 0.985 . S
C1348 C1342 1.379 . S
C1348 C1345 1.363 . S
C1348 N1346 1.356 . S
C1349 C1343 1.363 . S
C1349 C1344 1.379 . S
C1349 N1347 1.356 . S
N1350 C1342 1.356 . S
N1350 H1356 0.984 . S
N1350 H1357 0.984 . S
N1351 C1344 1.356 . S
N1351 H1354 0.984 . S
N1351 H1355 0.985 . S
H1352 N1347 0.984 . S
H1353 N1347 0.985 . S
H1354 N1351 0.984 . S
H1355 N1351 0.985 . S
H1356 N1350 0.984 . S
H1357 N1350 0.984 . S
H1358 N1346 0.984 . S
H1359 N1346 0.985 . S
C1360 C1361 1.363 . S
C1360 C1366 1.379 . S
C1360 N1368 1.356 . S
C1361 C1360 1.363 . S
C1361 C1367 1.363 . S
C1362 C1363 1.363 . S
C1362 C1367 1.379 . S
C1362 N1369 1.356 . S
C1363 C1362 1.363 . S
C1363 C1366 1.363 . S
N1364 C1366 1.356 1_554 S
N1364 H1376 0.984 . S
N1364 H1377 0.985 . S
N1365 C1367 1.356 . S
N1365 H1370 0.984 . S
N1365 H1371 0.985 . S
C1366 C1360 1.379 . S
C1366 C1363 1.363 . S
C1366 N1364 1.356 1_556 S
C1367 C1361 1.363 . S
C1367 C1362 1.379 . S
C1367 N1365 1.356 . S
N1368 C1360 1.356 . S
N1368 H1374 0.984 . S
N1368 H1375 0.984 . S
N1369 C1362 1.356 . S
N1369 H1372 0.984 1_556 S
N1369 H1373 0.985 . S
H1370 N1365 0.984 . S
H1371 N1365 0.985 . S
H1372 N1369 0.984 1_554 S
H1373 N1369 0.985 . S
H1374 N1368 0.984 . S
H1375 N1368 0.984 . S
H1376 N1364 0.984 . S
H1377 N1364 0.985 . S
C1378 C1379 1.363 . S
C1378 C1384 1.379 . S
C1378 N1386 1.356 . S
C1379 C1378 1.363 . S
C1379 C1385 1.363 . S
C1380 C1381 1.363 . S
C1380 C1385 1.379 . S
C1380 N1387 1.356 . S
C1381 C1380 1.363 . S
C1381 C1384 1.363 . S
N1382 C1384 1.356 . S
N1382 H1394 0.984 . S
N1382 H1395 0.985 . S
N1383 C1385 1.356 . S
N1383 H1388 0.984 . S
N1383 H1389 0.985 . S
C1384 C1378 1.379 . S
C1384 C1381 1.363 . S
C1384 N1382 1.356 . S
C1385 C1379 1.363 . S
C1385 C1380 1.379 . S
C1385 N1383 1.356 . S
N1386 C1378 1.356 . S
N1386 H1392 0.984 . S
N1386 H1393 0.984 . S
N1387 C1380 1.356 . S
N1387 H1390 0.984 . S
N1387 H1391 0.985 . S
H1388 N1383 0.984 . S
H1389 N1383 0.985 . S
H1390 N1387 0.984 . S
H1391 N1387 0.985 . S
H1392 N1386 0.984 . S
H1393 N1386 0.984 . S
H1394 N1382 0.984 . S
H1395 N1382 0.985 . S
C1396 C1397 1.363 . S
C1396 C1402 1.379 . S
C1396 N1404 1.356 . S
C1397 C1396 1.363 . S
C1397 C1403 1.363 . S
C1398 C1399 1.363 . S
C1398 C1403 1.379 . S
C1398 N1405 1.356 . S
C1399 C1398 1.363 . S
C1399 C1402 1.363 . S
N1400 C1402 1.356 . S
N1400 H1412 0.984 . S
N1400 H1413 0.985 . S
N1401 C1403 1.356 . S
N1401 H1406 0.984 . S
N1401 H1407 0.985 . S
C1402 C1396 1.379 . S
C1402 C1399 1.363 . S
C1402 N1400 1.356 . S
C1403 C1397 1.363 . S
C1403 C1398 1.379 . S
C1403 N1401 1.356 . S
N1404 C1396 1.356 . S
N1404 H1410 0.984 . S
N1404 H1411 0.984 . S
N1405 C1398 1.356 . S
N1405 H1408 0.984 . S
N1405 H1409 0.985 . S
H1406 N1401 0.984 . S
H1407 N1401 0.985 . S
H1408 N1405 0.984 . S
H1409 N1405 0.985 . S
H1410 N1404 0.984 . S
H1411 N1404 0.984 . S
H1412 N1400 0.984 . S
H1413 N1400 0.985 . S
C1414 C1415 1.363 . S
C1414 C1420 1.379 . S
C1414 N1422 1.356 . S
C1415 C1414 1.363 . S
C1415 C1421 1.363 . S
C1416 C1417 1.363 . S
C1416 C1421 1.379 . S
C1416 N1423 1.356 . S
C1417 C1416 1.363 . S
C1417 C1420 1.363 . S
N1418 C1420 1.356 . S
N1418 H1430 0.984 . S
N1418 H1431 0.985 . S
N1419 C1421 1.356 . S
N1419 H1424 0.984 . S
N1419 H1425 0.985 . S
C1420 C1414 1.379 . S
C1420 C1417 1.363 . S
C1420 N1418 1.356 . S
C1421 C1415 1.363 . S
C1421 C1416 1.379 . S
C1421 N1419 1.356 . S
N1422 C1414 1.356 . S
N1422 H1428 0.984 . S
N1422 H1429 0.984 . S
N1423 C1416 1.356 . S
N1423 H1426 0.984 . S
N1423 H1427 0.985 . S
H1424 N1419 0.984 . S
H1425 N1419 0.985 . S
H1426 N1423 0.984 . S
H1427 N1423 0.985 . S
H1428 N1422 0.984 . S
H1429 N1422 0.984 . S
H1430 N1418 0.984 . S
H1431 N1418 0.985 . S
C1432 C1433 1.363 . S
C1432 C1438 1.379 1_554 S
C1432 N1440 1.356 . S
C1433 C1432 1.363 . S
C1433 C1439 1.363 . S
C1434 C1435 1.363 . S
C1434 C1439 1.379 . S
C1434 N1441 1.356 . S
C1435 C1434 1.363 . S
C1435 C1438 1.363 1_554 S
N1436 C1438 1.356 . S
N1436 H1448 0.984 . S
N1436 H1449 0.985 . S
N1437 C1439 1.356 . S
N1437 H1442 0.984 . S
N1437 H1443 0.985 . S
C1438 C1432 1.379 1_556 S
C1438 C1435 1.363 1_556 S
C1438 N1436 1.356 . S
C1439 C1433 1.363 . S
C1439 C1434 1.379 . S
C1439 N1437 1.356 . S
N1440 C1432 1.356 . S
N1440 H1446 0.984 . S
N1440 H1447 0.984 . S
N1441 C1434 1.356 . S
N1441 H1444 0.984 . S
N1441 H1445 0.985 . S
H1442 N1437 0.984 . S
H1443 N1437 0.985 . S
H1444 N1441 0.984 . S
H1445 N1441 0.985 . S
H1446 N1440 0.984 . S
H1447 N1440 0.984 . S
H1448 N1436 0.984 . S
H1449 N1436 0.985 . S
C1450 C1451 1.363 . S
C1450 C1456 1.379 . S
C1450 N1458 1.356 . S
C1451 C1450 1.363 . S
C1451 C1457 1.363 . S
C1452 C1453 1.363 . S
C1452 C1457 1.379 . S
C1452 N1459 1.356 . S
C1453 C1452 1.363 . S
C1453 C1456 1.363 . S
N1454 C1456 1.356 . S
N1454 H1466 0.984 . S
N1454 H1467 0.985 . S
N1455 C1457 1.356 . S
N1455 H1460 0.984 . S
N1455 H1461 0.985 . S
C1456 C1450 1.379 . S
C1456 C1453 1.363 . S
C1456 N1454 1.356 . S
C1457 C1451 1.363 . S
C1457 C1452 1.379 . S
C1457 N1455 1.356 . S
N1458 C1450 1.356 . S
N1458 H1464 0.984 . S
N1458 H1465 0.984 . S
N1459 C1452 1.356 . S
N1459 H1462 0.984 . S
N1459 H1463 0.985 . S
H1460 N1455 0.984 . S
H1461 N1455 0.985 . S
H1462 N1459 0.984 . S
H1463 N1459 0.985 . S
H1464 N1458 0.984 . S
H1465 N1458 0.984 . S
H1466 N1454 0.984 . S
H1467 N1454 0.985 . S
C1468 C1469 1.363 . S
C1468 C1474 1.379 . S
C1468 N1476 1.356 . S
C1469 C1468 1.363 . S
C1469 C1475 1.363 . S
C1470 C1471 1.363 . S
C1470 C1475 1.379 . S
C1470 N1477 1.356 . S
C1471 C1470 1.363 . S
C1471 C1474 1.363 . S
N1472 C1474 1.356 . S
N1472 H1484 0.984 . S
N1472 H1485 0.985 . S
N1473 C1475 1.356 . S
N1473 H1478 0.984 . S
N1473 H1479 0.985 . S
C1474 C1468 1.379 . S
C1474 C1471 1.363 . S
C1474 N1472 1.356 . S
C1475 C1469 1.363 . S
C1475 C1470 1.379 . S
C1475 N1473 1.356 . S
N1476 C1468 1.356 . S
N1476 H1482 0.984 . S
N1476 H1483 0.984 . S
N1477 C1470 1.356 . S
N1477 H1480 0.984 . S
N1477 H1481 0.985 . S
H1478 N1473 0.984 . S
H1479 N1473 0.985 . S
H1480 N1477 0.984 . S
H1481 N1477 0.985 . S
H1482 N1476 0.984 . S
H1483 N1476 0.984 . S
H1484 N1472 0.984 . S
H1485 N1472 0.985 . S
C1486 C1487 1.363 . S
C1486 C1492 1.379 . S
C1486 N1494 1.356 . S
C1487 C1486 1.363 . S
C1487 C1493 1.363 . S
C1488 C1489 1.363 . S
C1488 C1493 1.379 . S
C1488 N1495 1.356 . S
C1489 C1488 1.363 . S
C1489 C1492 1.363 . S
N1490 C1492 1.356 . S
N1490 H1502 0.984 . S
N1490 H1503 0.985 . S
N1491 C1493 1.356 . S
N1491 H1496 0.984 . S
N1491 H1497 0.985 . S
C1492 C1486 1.379 . S
C1492 C1489 1.363 . S
C1492 N1490 1.356 . S
C1493 C1487 1.363 . S
C1493 C1488 1.379 . S
C1493 N1491 1.356 . S
N1494 C1486 1.356 . S
N1494 H1500 0.984 . S
N1494 H1501 0.984 . S
N1495 C1488 1.356 . S
N1495 H1498 0.984 . S
N1495 H1499 0.985 . S
H1496 N1491 0.984 . S
H1497 N1491 0.985 . S
H1498 N1495 0.984 . S
H1499 N1495 0.985 . S
H1500 N1494 0.984 . S
H1501 N1494 0.984 . S
H1502 N1490 0.984 . S
H1503 N1490 0.985 . S
C641 C10 1.195 1_556 S
C643 C295 1.138 . S
C659 C50 1.194 . S
C661 C175 1.137 . S
C677 C215 1.138 . S
C679 C90 1.195 . S
C695 C130 1.194 . S
C697 C255 1.137 . S
C713 C446 1.138 . S
C715 C179 1.195 1_554 S
C731 C339 1.194 . S
C733 C6 1.137 . S
C749 C406 1.138 . S
C751 C259 1.195 . S
C767 C86 1.137 . S
C769 C379 1.194 . S
C785 C375 1.138 . S
C787 C490 1.195 . S
C803 C410 1.194 . S
C805 C575 1.137 . S
C821 C530 1.195 1_556 S
C823 C335 1.138 . S
C839 C450 1.194 . S
C841 C615 1.137 . S
C857 C579 1.195 . S
C859 C126 1.138 . S
C875 C486 1.137 . S
C877 C219 1.194 . S
C893 C46 1.138 . S
C895 C619 1.195 1_554 S
C911 C299 1.194 . S
C913 C526 1.137 . S
C929 C529 0.748 . S
C931 C9 0.748 1_455 S
C947 C449 0.749 . S
C949 C49 0.749 . S
C965 C489 0.748 . S
C967 C89 0.748 . S
C983 C409 0.749 . S
C985 C129 0.749 . S
C1001 C178 0.748 . S
C1003 C618 0.748 1_455 S
C1019 C378 0.749 . S
C1021 C218 0.749 . S
C1037 C258 0.748 . S
C1039 C578 0.748 . S
C1055 C298 0.749 . S
C1057 C338 0.749 . S
C1073 C18 1.915 . S
C1075 C169 1.915 . S
C1091 C58 1.915 . S
C1093 C209 1.915 . S
C1109 C249 1.915 . S
C1111 C98 1.915 . S
C1127 C138 1.915 . S
C1129 C289 1.915 . S
C1145 C418 1.915 . S
C1147 C329 1.915 . S
C1163 C458 1.915 . S
C1165 C369 1.915 . S
C1181 C498 1.915 . S
C1183 C569 1.915 . S
C1199 C609 1.915 . S
C1201 C538 1.915 . S
C1217 C15 1.971 . S
C1219 C290 2.082 . S
C1235 C55 1.970 . S
C1237 C170 2.081 . S
C1253 C210 2.082 1_556 S
C1255 C95 1.971 . S
C1271 C250 2.081 . S
C1273 C135 1.970 . S
C1289 C459 2.082 . S
C1291 C166 1.971 . S
C1307 C326 1.970 . S
C1309 C19 2.081 . S
C1325 C419 2.082 1_554 S
C1327 C246 1.971 . S
C1343 C99 2.082 . S
C1345 C366 1.970 . S
C1361 C495 1.971 . S
C1363 C370 2.082 1_556 S
C1379 C570 2.082 . S
C1381 C415 1.970 . S
C1397 C535 1.971 . S
C1399 C330 2.082 . S
C1415 C610 2.081 . S
C1417 C455 1.970 . S
C1433 C566 1.971 . S
C1435 C139 2.082 1_554 S
C1451 C206 1.970 . S
C1453 C499 2.081 . S
C1469 C59 2.082 . S
C1471 C606 1.971 . S
C1487 C539 2.081 . S
C1489 C286 1.970 . S
