# Generated by pormake.
# Topology sra, (4)-cn, num edge types: 1
# Building blocks:
#     Node 0, Type 0, BuildingBlock: GALJAG_clean_sbu_0, # of connection points: 4
#     Node 1, Type 0, BuildingBlock: GALJAG_clean_sbu_0, # of connection points: 4
#     Node 2, Type 0, BuildingBlock: GALJAG_clean_sbu_0, # of connection points: 4
#     Node 3, Type 0, BuildingBlock: GALJAG_clean_sbu_0, # of connection points: 4
#     Node 4, Type 0, BuildingBlock: GALJAG_clean_sbu_0, # of connection points: 4
#     Node 5, Type 0, BuildingBlock: GALJAG_clean_sbu_0, # of connection points: 4
#     Node 6, Type 0, BuildingBlock: GALJAG_clean_sbu_0, # of connection points: 4
#     Node 7, Type 0, BuildingBlock: GALJAG_clean_sbu_0, # of connection points: 4
#     Edge 8, Type (0, 0), BuildingBlock: UVAHIK_clean_linker_0, # of connection points: 2
#     Edge 9, Type (0, 0), BuildingBlock: UVAHIK_clean_linker_0, # of connection points: 2
#     Edge 10, Type (0, 0), BuildingBlock: UVAHIK_clean_linker_0, # of connection points: 2
#     Edge 11, Type (0, 0), BuildingBlock: UVAHIK_clean_linker_0, # of connection points: 2
#     Edge 12, Type (0, 0), BuildingBlock: UVAHIK_clean_linker_0, # of connection points: 2
#     Edge 13, Type (0, 0), BuildingBlock: UVAHIK_clean_linker_0, # of connection points: 2
#     Edge 14, Type (0, 0), BuildingBlock: UVAHIK_clean_linker_0, # of connection points: 2
#     Edge 15, Type (0, 0), BuildingBlock: UVAHIK_clean_linker_0, # of connection points: 2
#     Edge 16, Type (0, 0), BuildingBlock: UVAHIK_clean_linker_0, # of connection points: 2
#     Edge 17, Type (0, 0), BuildingBlock: UVAHIK_clean_linker_0, # of connection points: 2
#     Edge 18, Type (0, 0), BuildingBlock: UVAHIK_clean_linker_0, # of connection points: 2
#     Edge 19, Type (0, 0), BuildingBlock: UVAHIK_clean_linker_0, # of connection points: 2
#     Edge 20, Type (0, 0), BuildingBlock: UVAHIK_clean_linker_0, # of connection points: 2
#     Edge 21, Type (0, 0), BuildingBlock: UVAHIK_clean_linker_0, # of connection points: 2
#     Edge 22, Type (0, 0), BuildingBlock: UVAHIK_clean_linker_0, # of connection points: 2
#     Edge 23, Type (0, 0), BuildingBlock: UVAHIK_clean_linker_0, # of connection points: 2
# Relax obj value: 0.075
# Max RMSD: 0.110
# Mean RMSD: 0.110
data_MOF--net-sra--node1-GALJAG_clean_sbu_0--edge1-UVAHIK_clean_linker_0
_symmetry_space_group_name_H-M    P1
_symmetry_Int_Tables_number       1
_symmetry_cell_setting            triclinic
loop_
_symmetry_equiv_pos_as_xyz
'x, y, z'
_cell_length_a     36.81769
_cell_length_b     70.024154
_cell_length_c     36.904026
_cell_angle_alpha  90.026199
_cell_angle_beta   90.016713
_cell_angle_gamma 89.966917
loop_
_atom_site_label
_atom_site_type_symbol
_atom_site_fract_x
_atom_site_fract_y
_atom_site_fract_z
_atom_type_partial_charge
In0 In 0.03548 0.10401 0.14996 0.0
O1 O 0.03556 0.09045 0.09406 0.0
O2 O 0.04355 0.07244 0.13998 0.0
C3 C 0.02291 0.14083 0.13404 0.0
C4 C 0.97134 0.09542 0.18075 0.0
C5 C 0.10392 0.10505 0.17566 0.0
O6 O 0.02914 0.12855 0.10974 0.0
O7 O 0.02359 0.13452 0.16604 0.0
O8 O 0.07717 0.10102 0.19573 0.0
O9 O 0.0959 0.10873 0.1432 0.0
C10 C 0.04081 0.07376 0.10598 0.0
O11 O 3e-05 0.09718 0.19935 0.0
O12 O 0.97538 0.09786 0.14715 0.0
In13 In 0.03032 0.3772 0.15608 0.0
O14 O 0.03354 0.39116 0.1007 0.0
O15 O 0.04129 0.40862 0.14748 0.0
C16 C 0.01725 0.34065 0.13844 0.0
C17 C 0.09762 0.37515 0.1843 0.0
C18 C 0.96507 0.38663 0.18356 0.0
O19 O 0.02466 0.3531 0.11484 0.0
O20 O 0.01681 0.34665 0.17067 0.0
O21 O 0.99236 0.38386 0.20376 0.0
O22 O 0.97104 0.3847 0.15013 0.0
C23 C 0.03972 0.40762 0.11335 0.0
O24 O 0.07042 0.37964 0.20345 0.0
O25 O 0.09052 0.37147 0.15163 0.0
In26 In 0.03667 0.87778 0.8334 0.0
O27 O -0.00277 0.88416 0.78691 0.0
O28 O 0.97565 0.87448 0.8371 0.0
C29 C 0.10274 0.88233 0.80352 0.0
C30 C 0.03518 0.90832 0.87698 0.0
C31 C 0.04221 0.84078 0.85155 0.0
O32 O 0.0745 0.88037 0.78435 0.0
O33 O 0.09731 0.88223 0.83724 0.0
O34 O 0.03726 0.85365 0.87501 0.0
O35 O 0.04385 0.84661 0.81927 0.0
C36 C 0.96932 0.87994 0.80518 0.0
O37 O 0.03795 0.89151 0.8891 0.0
O38 O 0.03298 0.90964 0.84294 0.0
In39 In 0.02468 0.60322 0.84181 0.0
O40 O 0.029 0.59012 0.89788 0.0
O41 O 0.0216 0.5715 0.85268 0.0
C42 C 0.03229 0.64039 0.85778 0.0
C43 C 0.0892 0.5979 0.80922 0.0
C44 C 0.95586 0.60103 0.8175 0.0
O45 O 0.02766 0.62795 0.88211 0.0
O46 O 0.03243 0.63405 0.82579 0.0
O47 O 0.98262 0.59641 0.7979 0.0
O48 O 0.96404 0.60687 0.84876 0.0
C49 C 0.02581 0.57317 0.88649 0.0
O50 O 0.06031 0.60018 0.79113 0.0
O51 O 0.08513 0.59808 0.84312 0.0
In52 In 0.52479 0.60643 0.65586 0.0
O53 O 0.48337 0.60263 0.70157 0.0
O54 O 0.46502 0.61368 0.65115 0.0
C55 C 0.58873 0.59887 0.68812 0.0
C56 C 0.51693 0.57521 0.61471 0.0
C57 C 0.53916 0.64222 0.6341 0.0
O58 O 0.56078 0.60335 0.70614 0.0
O59 O 0.58406 0.598 0.65431 0.0
O60 O 0.53193 0.62904 0.61189 0.0
O61 O 0.53855 0.63735 0.66701 0.0
C62 C 0.4569 0.60848 0.6828 0.0
O63 O 0.52235 0.59154 0.60124 0.0
O64 O 0.5156 0.57469 0.64886 0.0
In65 In 0.53723 0.87638 0.64436 0.0
O66 O 0.5753 0.88048 0.69281 0.0
O67 O 0.59671 0.88388 0.63959 0.0
C68 C 0.47016 0.87464 0.67319 0.0
C69 C 0.52827 0.90748 0.6032 0.0
C70 C 0.54973 0.84005 0.62477 0.0
O71 O 0.49732 0.88004 0.6915 0.0
O72 O 0.47719 0.86984 0.64104 0.0
O73 O 0.54228 0.85282 0.60176 0.0
O74 O 0.55035 0.84564 0.65726 0.0
C75 C 0.60271 0.88397 0.67323 0.0
O76 O 0.53347 0.89112 0.58964 0.0
O77 O 0.52773 0.90805 0.63738 0.0
In78 In 0.53387 0.3809 0.34078 0.0
O79 O 0.49421 0.38354 0.29302 0.0
O80 O 0.47307 0.37777 0.34557 0.0
C81 C 0.59984 0.38947 0.31413 0.0
C82 C 0.5263 0.41031 0.38639 0.0
C83 C 0.54347 0.34354 0.35379 0.0
O84 O 0.57162 0.38997 0.29455 0.0
O85 O 0.59444 0.38481 0.34669 0.0
O86 O 0.5388 0.35545 0.37909 0.0
O87 O 0.543 0.35052 0.32229 0.0
C88 C 0.46649 0.38061 0.3125 0.0
O89 O 0.52971 0.39332 0.39747 0.0
O90 O 0.52696 0.41236 0.3524 0.0
In91 In 0.53871 0.10426 0.33561 0.0
O92 O 0.57905 0.09632 0.29076 0.0
O93 O 0.59893 0.10055 0.3444 0.0
C94 C 0.47235 0.1039 0.30509 0.0
C95 C 0.53058 0.0743 0.37977 0.0
C96 C 0.54639 0.14161 0.34988 0.0
O97 O 0.50079 0.10114 0.28654 0.0
O98 O 0.47776 0.10695 0.33831 0.0
O99 O 0.54135 0.12948 0.37471 0.0
O100 O 0.54722 0.13484 0.3182 0.0
C101 C 0.60616 0.09654 0.31188 0.0
O102 O 0.53286 0.0912 0.39163 0.0
O103 O 0.53254 0.07262 0.34575 0.0
C104 C 0.01541 0.31358 0.0941 0.0
C105 C 0.00995 0.32053 0.1294 0.0
C106 C 0.00999 0.29423 0.08635 0.0
C107 C 0.96715 0.25033 0.12222 0.0
H108 H 0.0476 0.22398 0.0763 0.0
C109 C 0.0033 0.17315 0.15387 0.0
C110 C 0.01513 0.16101 0.12601 0.0
C111 C -0.00344 0.19237 0.14697 0.0
C112 C 0.02452 0.23115 0.08842 0.0
H113 H 0.99357 0.31295 0.18397 0.0
H114 H 0.9843 0.27933 0.17058 0.0
H115 H 0.04633 0.25883 0.07704 0.0
H116 H 0.02868 0.1593 0.06892 0.0
H117 H 0.01732 0.19323 0.05691 0.0
H118 H 0.94622 0.22267 0.1351 0.0
C119 C 0.99242 0.28875 0.14876 0.0
C120 C 0.02379 0.25109 0.08884 0.0
C121 C -0.00193 0.30798 0.15653 0.0
C122 C 0.01965 0.1684 0.0909 0.0
C123 C 0.01321 0.18775 0.08404 0.0
C124 C 0.9679 0.23043 0.12184 0.0
C125 C -0.00133 0.28162 0.11372 0.0
C126 C 0.9958 0.26084 0.10697 0.0
C127 C 0.0017 0.19991 0.11209 0.0
C128 C -0.0027 0.22067 0.10616 0.0
H129 H 0.02449 0.32299 0.07266 0.0
H130 H 0.01489 0.2891 0.05909 0.0
H131 H 0.94487 0.2575 0.13575 0.0
H132 H -0.0005 0.16784 0.18118 0.0
H133 H 0.98834 0.20146 0.16927 0.0
C134 C 0.05701 0.80744 0.83391 0.0
C135 C 0.04635 0.82044 0.8608 0.0
C136 C 0.06083 0.78814 0.84203 0.0
C137 C 0.02742 0.75115 0.90191 0.0
H138 H 0.10592 0.72215 0.8584 0.0
C139 C 0.03273 0.66813 0.90076 0.0
C140 C 0.03807 0.66076 0.86574 0.0
C141 C 0.03812 0.68758 0.90763 0.0
C142 C 0.08398 0.73008 0.87092 0.0
H143 H 0.03149 0.82358 0.91735 0.0
H144 H 0.03773 0.78949 0.93151 0.0
H145 H 0.10785 0.75696 0.85736 0.0
H146 H 0.05367 0.66776 0.81064 0.0
H147 H 0.06313 0.7015 0.82261 0.0
H148 H 0.00282 0.72416 0.91404 0.0
C149 C 0.04324 0.79437 0.9042 0.0
C150 C 0.08506 0.74995 0.87031 0.0
C151 C 0.03973 0.81381 0.89612 0.0
C152 C 0.04929 0.67304 0.83789 0.0
C153 C 0.05504 0.69233 0.84482 0.0
C154 C 0.02634 0.7312 0.90255 0.0
C155 C 0.05389 0.78139 0.87718 0.0
C156 C 0.05611 0.76066 0.88448 0.0
C157 C 0.04946 0.69981 0.87968 0.0
C158 C 0.05393 0.72054 0.88574 0.0
H159 H 0.06232 0.81215 0.80646 0.0
H160 H 0.06842 0.77841 0.82049 0.0
H161 H 0.00469 0.75908 0.91293 0.0
H162 H 0.02408 0.65892 0.9227 0.0
H163 H 0.0336 0.69304 0.93473 0.0
C164 C 0.56224 0.67472 0.64818 0.0
C165 C 0.5479 0.66185 0.62281 0.0
C166 C 0.56976 0.69348 0.63826 0.0
C167 C 0.53949 0.73063 0.57761 0.0
H168 H 0.62338 0.75715 0.61647 0.0
C169 C 0.54943 0.8131 0.58001 0.0
C170 C 0.55701 0.82003 0.61494 0.0
C171 C 0.55463 0.79377 0.57187 0.0
C172 C 0.59996 0.74992 0.60517 0.0
H173 H 0.53069 0.65831 0.56702 0.0
H174 H 0.54325 0.6915 0.54977 0.0
H175 H 0.62109 0.72234 0.61852 0.0
H176 H 0.57714 0.81248 0.66828 0.0
H177 H 0.58614 0.77895 0.6542 0.0
H178 H 0.51746 0.75827 0.56614 0.0
C179 C 0.54884 0.68692 0.57724 0.0
C180 C 0.59866 0.73004 0.60634 0.0
C181 C 0.5417 0.668 0.5871 0.0
C182 C 0.57093 0.80752 0.64116 0.0
C183 C 0.57645 0.78834 0.63297 0.0
C184 C 0.54076 0.75056 0.5765 0.0
C185 C 0.56282 0.69983 0.60283 0.0
C186 C 0.56773 0.72027 0.59403 0.0
C187 C 0.56796 0.78119 0.59842 0.0
C188 C 0.57031 0.76039 0.59175 0.0
H189 H 0.56741 0.67035 0.67587 0.0
H190 H 0.57993 0.70321 0.65873 0.0
H191 H 0.51527 0.72344 0.56806 0.0
H192 H 0.53872 0.8225 0.55929 0.0
H193 H 0.5479 0.7886 0.54503 0.0
C194 C 0.54532 0.31511 0.39495 0.0
C195 C 0.54916 0.323 0.36016 0.0
C196 C 0.54997 0.29548 0.40032 0.0
C197 C 0.59038 0.25265 0.35827 0.0
H198 H 0.51396 0.22479 0.40756 0.0
C199 C 0.56019 0.17444 0.32836 0.0
C200 C 0.55121 0.16214 0.35699 0.0
C201 C 0.56448 0.19393 0.33449 0.0
C202 C 0.5359 0.23239 0.39437 0.0
H203 H 0.5614 0.31673 0.30391 0.0
H204 H 0.56944 0.28263 0.31324 0.0
H205 H 0.51363 0.25969 0.40831 0.0
H206 H 0.53989 0.16048 0.41456 0.0
H207 H 0.54717 0.19482 0.42529 0.0
H208 H 0.61197 0.22543 0.34325 0.0
C209 C 0.56316 0.29154 0.33642 0.0
C210 C 0.53571 0.25235 0.3948 0.0
C211 C 0.55826 0.31104 0.33102 0.0
C212 C 0.54679 0.16968 0.392 0.0
C213 C 0.55086 0.18928 0.39812 0.0
C214 C 0.59058 0.23276 0.35786 0.0
C215 C 0.55893 0.28354 0.37105 0.0
C216 C 0.56231 0.26263 0.37574 0.0
C217 C 0.55978 0.20157 0.36938 0.0
C218 C 0.56269 0.22244 0.37489 0.0
H219 H 0.53833 0.32404 0.41788 0.0
H220 H 0.54664 0.28966 0.4273 0.0
H221 H 0.61161 0.26025 0.34396 0.0
H222 H 0.56374 0.16904 0.30107 0.0
H223 H 0.5707 0.20309 0.31168 0.0
C224 C 0.4053 0.1033 0.31335 0.0
C225 C 0.43531 0.10335 0.28985 0.0
C226 C 0.37004 0.10279 0.29965 0.0
C227 C 0.31569 0.1149 0.2204 0.0
H228 H 0.24504 0.0806 0.26326 0.0
C229 C 0.17043 0.10725 0.16358 0.0
C230 C 0.1419 0.10496 0.18847 0.0
C231 C 0.20651 0.10671 0.17514 0.0
C232 C 0.26428 0.09045 0.25131 0.0
H233 H 0.45204 0.10295 0.23356 0.0
H234 H 0.38993 0.10231 0.20941 0.0
H235 H 0.30781 0.07997 0.28423 0.0
H236 H 0.12866 0.10055 0.24504 0.0
H237 H 0.19173 0.10007 0.26552 0.0
H238 H 0.27211 0.12573 0.18807 0.0
C239 C 0.39392 0.10263 0.23849 0.0
C240 C 0.30027 0.09 0.2632 0.0
C241 C 0.42937 0.10292 0.25226 0.0
C242 C 0.15012 0.10229 0.22525 0.0
C243 C 0.18627 0.10188 0.2369 0.0
C244 C 0.2796 0.11547 0.20869 0.0
C245 C 0.36395 0.10249 0.26212 0.0
C246 C 0.32628 0.10229 0.24802 0.0
C247 C 0.21491 0.104 0.21194 0.0
C248 C 0.2534 0.1033 0.22413 0.0
H249 H 0.40901 0.10361 0.34246 0.0
H250 H 0.34747 0.10293 0.31848 0.0
H251 H 0.3351 0.12469 0.20855 0.0
H252 H 0.16494 0.10923 0.13499 0.0
H253 H 0.22781 0.10809 0.15509 0.0
C254 C 0.64265 0.39714 0.26334 0.0
C255 C 0.63672 0.39324 0.30017 0.0
C256 C 0.678 0.39944 0.25015 0.0
C257 C 0.77337 0.40804 0.27891 0.0
H258 H 0.79676 0.3809 0.19037 0.0
C259 C 0.92058 0.39019 0.23463 0.0
C260 C 0.9284 0.39101 0.19743 0.0
C261 C 0.88498 0.39292 0.24694 0.0
C262 C 0.79063 0.38882 0.21484 0.0
H263 H 0.66295 0.38923 0.35228 0.0
H264 H 0.7244 0.393 0.32927 0.0
H265 H 0.73429 0.38167 0.21166 0.0
H266 H 0.90557 0.39617 0.14411 0.0
H267 H 0.84385 0.40116 0.16557 0.0
H268 H 0.83 0.41487 0.28234 0.0
C269 C 0.7019 0.39452 0.31058 0.0
C270 C 0.75476 0.38928 0.22701 0.0
C271 C 0.66665 0.39222 0.32371 0.0
C272 C 0.90032 0.39526 0.17294 0.0
C273 C 0.8649 0.39803 0.1852 0.0
C274 C 0.80932 0.40757 0.26672 0.0
C275 C 0.70804 0.3979 0.27357 0.0
C276 C 0.74574 0.39874 0.25936 0.0
C277 C 0.85666 0.39654 0.22225 0.0
C278 C 0.81838 0.39783 0.23468 0.0
H279 H 0.62006 0.39808 0.24461 0.0
H280 H 0.68184 0.40227 0.22155 0.0
H281 H 0.76721 0.41566 0.30371 0.0
H282 H 0.94171 0.38693 0.25409 0.0
H283 H 0.87946 0.39153 0.27564 0.0
C284 C 0.14616 0.87991 0.75144 0.0
C285 C 0.13968 0.88363 0.78826 0.0
C286 C 0.1817 0.87968 0.73802 0.0
C287 C 0.27504 0.89581 0.75784 0.0
H288 H 0.30357 0.85283 0.69798 0.0
C289 C 0.42517 0.8806 0.72292 0.0
C290 C 0.43263 0.87485 0.68725 0.0
C291 C 0.38929 0.88168 0.73523 0.0
C292 C 0.29598 0.86505 0.71431 0.0
H293 H 0.16501 0.8906 0.83967 0.0
H294 H 0.22681 0.89029 0.81626 0.0
H295 H 0.2407 0.85578 0.71789 0.0
H296 H 0.40853 0.86557 0.63656 0.0
H297 H 0.34616 0.86771 0.65777 0.0
H298 H 0.33023 0.90516 0.75417 0.0
C299 C 0.20458 0.88759 0.79771 0.0
C300 C 0.25993 0.86674 0.72565 0.0
C301 C 0.16918 0.88767 0.81115 0.0
C302 C 0.40365 0.86997 0.66428 0.0
C303 C 0.36787 0.8711 0.6765 0.0
C304 C 0.31106 0.89418 0.74635 0.0
C305 C 0.21127 0.88335 0.76113 0.0
C306 C 0.24913 0.88209 0.74766 0.0
C307 C 0.36021 0.87707 0.71204 0.0
C308 C 0.32198 0.87874 0.72455 0.0
H309 H 0.12391 0.87673 0.73321 0.0
H310 H 0.18607 0.87655 0.7096 0.0
H311 H 0.26739 0.90791 0.77448 0.0
H312 H 0.447 0.88442 0.74122 0.0
H313 H 0.38434 0.88607 0.76293 0.0
C314 C 0.6541 0.59003 0.68302 0.0
C315 C 0.6248 0.59594 0.70466 0.0
C316 C 0.68899 0.58872 0.69755 0.0
C317 C 0.7451 0.60877 0.76998 0.0
H318 H 0.81203 0.56834 0.74329 0.0
C319 C 0.88948 0.60426 0.82938 0.0
C320 C 0.91774 0.59949 0.80546 0.0
C321 C 0.85331 0.60275 0.81852 0.0
C322 C 0.79376 0.57982 0.7507 0.0
H323 H 0.60873 0.60457 0.75874 0.0
H324 H 0.66992 0.60224 0.78429 0.0
H325 H 0.74902 0.56691 0.72287 0.0
H326 H 0.93036 0.58933 0.75144 0.0
H327 H 0.86699 0.58693 0.73215 0.0
H328 H 0.78985 0.62186 0.79729 0.0
C329 C 0.66587 0.59878 0.75597 0.0
C330 C 0.75766 0.57897 0.73911 0.0
C331 C 0.63085 0.6 0.74143 0.0
C332 C 0.90912 0.5931 0.77043 0.0
C333 C 0.87284 0.59161 0.75951 0.0
C334 C 0.78118 0.60964 0.7815 0.0
C335 C 0.69538 0.59337 0.73403 0.0
C336 C 0.73302 0.59352 0.7484 0.0
C337 C 0.84454 0.59646 0.78344 0.0
C338 C 0.80599 0.59525 0.77179 0.0
H339 H 0.65026 0.58679 0.65457 0.0
H340 H 0.71118 0.58471 0.67984 0.0
H341 H 0.72695 0.62036 0.77706 0.0
H342 H 0.89527 0.60912 0.85665 0.0
H343 H 0.83218 0.60634 0.83777 0.0
C344 C 0.66808 0.89195 0.66467 0.0
C345 C 0.63958 0.88677 0.68796 0.0
C346 C 0.70366 0.89303 0.6775 0.0
C347 C 0.75912 0.89568 0.76107 0.0
H348 H 0.83356 0.87344 0.69973 0.0
C349 C 0.9023 0.87742 0.81356 0.0
C350 C 0.93197 0.88161 0.79099 0.0
C351 C 0.86682 0.87923 0.80076 0.0
C352 C 0.81319 0.87993 0.71697 0.0
H353 H 0.62571 0.87919 0.74316 0.0
H354 H 0.6881 0.8808 0.7656 0.0
H355 H 0.77103 0.8748 0.67837 0.0
H356 H 0.94783 0.89099 0.73733 0.0
H357 H 0.8856 0.89418 0.71483 0.0
H358 H 0.80135 0.90051 0.7999 0.0
C359 C 0.68287 0.88426 0.73748 0.0
C360 C 0.77734 0.88074 0.70474 0.0
C361 C 0.64717 0.88326 0.72464 0.0
C362 C 0.92547 0.88761 0.75528 0.0
C363 C 0.88988 0.88937 0.74239 0.0
C364 C 0.795 0.89483 0.77334 0.0
C365 C 0.7116 0.88885 0.71388 0.0
C366 C 0.74985 0.88855 0.72669 0.0
C367 C 0.86019 0.88523 0.76506 0.0
C368 C 0.82237 0.88685 0.75149 0.0
H369 H 0.66302 0.89489 0.63629 0.0
H370 H 0.72502 0.89699 0.65878 0.0
H371 H 0.7387 0.90203 0.77842 0.0
H372 H 0.90646 0.87273 0.84123 0.0
H373 H 0.84456 0.87566 0.8187 0.0
C374 C 0.41036 0.6012 0.73028 0.0
C375 C 0.41895 0.60807 0.69561 0.0
C376 C 0.37411 0.59959 0.74115 0.0
C377 C 0.28117 0.61633 0.71949 0.0
H378 H 0.25232 0.57134 0.77354 0.0
C379 C 0.1313 0.60095 0.75614 0.0
C380 C 0.12552 0.59628 0.79268 0.0
C381 C 0.16655 0.60118 0.74193 0.0
C382 C 0.26002 0.58401 0.75855 0.0
H383 H 0.39648 0.61893 0.64531 0.0
H384 H 0.33339 0.61594 0.66408 0.0
H385 H 0.31536 0.57496 0.75446 0.0
H386 H 0.1517 0.58748 0.84263 0.0
H387 H 0.2129 0.58778 0.81788 0.0
H388 H 0.22577 0.62537 0.72372 0.0
C389 C 0.35452 0.612 0.68309 0.0
C390 C 0.29615 0.58613 0.7478 0.0
C391 C 0.3907 0.61365 0.67228 0.0
C392 C 0.15534 0.59117 0.81436 0.0
C393 C 0.1904 0.59124 0.80013 0.0
C394 C 0.245 0.61416 0.73014 0.0
C395 C 0.34577 0.60478 0.71751 0.0
C396 C 0.30722 0.60241 0.72845 0.0
C397 C 0.19647 0.59654 0.76396 0.0
C398 C 0.23414 0.59807 0.7501 0.0
H399 H 0.43159 0.59683 0.74884 0.0
H400 H 0.3683 0.59427 0.76808 0.0
H401 H 0.28888 0.62913 0.70497 0.0
H402 H 0.10877 0.60497 0.73886 0.0
H403 H 0.17045 0.60517 0.71384 0.0
C404 C 0.67216 0.09299 0.3253 0.0
C405 C 0.64379 0.09299 0.29982 0.0
C406 C 0.7081 0.09067 0.31422 0.0
C407 C 0.76563 0.07433 0.23818 0.0
H408 H 0.8365 0.10872 0.28053 0.0
C409 C 0.90517 0.08897 0.17388 0.0
C410 C 0.9353 0.09162 0.19669 0.0
C411 C 0.87048 0.0867 0.18838 0.0
C412 C 0.81722 0.09878 0.26889 0.0
H413 H 0.63067 0.09012 0.24284 0.0
H414 H 0.69373 0.08626 0.22329 0.0
H415 H 0.77392 0.10945 0.30173 0.0
H416 H 0.95298 0.09341 0.2526 0.0
H417 H 0.89208 0.08937 0.27811 0.0
H418 H 0.80894 0.06392 0.20485 0.0
C419 C 0.68808 0.08786 0.25192 0.0
C420 C 0.78131 0.09922 0.28099 0.0
C421 C 0.652 0.09017 0.26306 0.0
C422 C 0.93021 0.09144 0.23439 0.0
C423 C 0.89537 0.08923 0.24895 0.0
C424 C 0.80159 0.0739 0.22606 0.0
C425 C 0.71655 0.08833 0.27738 0.0
C426 C 0.75502 0.08714 0.26552 0.0
C427 C 0.86507 0.08706 0.22604 0.0
C428 C 0.82768 0.08628 0.241 0.0
H429 H 0.66667 0.095 0.35389 0.0
H430 H 0.72932 0.09078 0.33455 0.0
H431 H 0.74615 0.06464 0.22613 0.0
H432 H 0.90825 0.08902 0.14469 0.0
H433 H 0.84771 0.08531 0.16997 0.0
C434 C 0.16427 0.37232 0.17398 0.0
C435 C 0.13524 0.37498 0.19815 0.0
C436 C 0.20008 0.37288 0.18627 0.0
C437 C 0.25642 0.39016 0.26258 0.0
H438 H 0.32859 0.35628 0.22085 0.0
C439 C 0.39964 0.38046 0.32263 0.0
C440 C 0.42901 0.38055 0.29833 0.0
C441 C 0.36401 0.3802 0.30986 0.0
C442 C 0.30878 0.36595 0.23244 0.0
H443 H 0.12081 0.38 0.25425 0.0
H444 H 0.18351 0.38049 0.27607 0.0
H445 H 0.26559 0.3542 0.20081 0.0
H446 H 0.44422 0.38044 0.24161 0.0
H447 H 0.38154 0.37973 0.21913 0.0
H448 H 0.29967 0.4016 0.29474 0.0
C449 C 0.17861 0.37838 0.24741 0.0
C450 C 0.27268 0.36479 0.22099 0.0
C451 C 0.14269 0.37796 0.23502 0.0
C452 C 0.42207 0.38039 0.26092 0.0
C453 C 0.38629 0.3799 0.2481 0.0
C454 C 0.29245 0.39119 0.27425 0.0
C455 C 0.20775 0.37596 0.22312 0.0
C456 C 0.24604 0.37691 0.23588 0.0
C457 C 0.35694 0.37983 0.2725 0.0
C458 C 0.31897 0.3791 0.25929 0.0
H459 H 0.1594 0.37011 0.14533 0.0
H460 H 0.22175 0.37129 0.16667 0.0
H461 H 0.23682 0.39996 0.27413 0.0
H462 H 0.40415 0.38061 0.35164 0.0
H463 H 0.34194 0.37995 0.32927 0.0
C464 C 0.03824 0.05887 0.04456 0.0
C465 C 0.04246 0.05692 0.08218 0.0
C466 C 0.03841 0.04276 0.02226 0.0
C467 C 0.02203 0.99111 0.02465 0.0
H468 H 0.07363 0.99108 0.93305 0.0
C469 C 0.03972 0.9232 0.93826 0.0
C470 C 0.03539 0.92522 0.90067 0.0
C471 C 0.04081 0.93929 0.96055 0.0
C472 C 0.05878 0.99096 0.95838 0.0
H473 H 0.05085 0.03676 0.12602 0.0
H474 H 0.05143 0.00866 0.08703 0.0
H475 H 0.07579 0.01932 0.97173 0.0
H476 H 0.02841 0.94552 0.85684 0.0
H477 H 0.02985 0.97361 0.89582 0.0
H478 H 0.00486 0.9628 0.01127 0.0
C479 C 0.04751 0.02258 0.07483 0.0
C480 C 0.06005 0.0071 0.9805 0.0
C481 C 0.04739 0.03866 0.09709 0.0
C482 C 0.0319 0.94356 0.88575 0.0
C483 C 0.03295 0.95964 0.90802 0.0
C484 C 0.02072 0.97498 0.00252 0.0
C485 C 0.04275 0.02446 0.03724 0.0
C486 C 0.04168 0.00733 0.01384 0.0
C487 C 0.03756 0.95767 0.94562 0.0
C488 C 0.03906 0.97475 0.96916 0.0
H489 H 0.03434 0.07279 0.03239 0.0
H490 H 0.03435 0.04461 0.9934 0.0
H491 H 0.00714 0.991 0.04996 0.0
H492 H 0.0426 0.90921 0.95045 0.0
H493 H 0.04479 0.93735 0.98939 0.0
C494 C 0.02497 0.53799 0.89633 0.0
C495 C 0.02829 0.55649 0.91058 0.0
C496 C 0.02854 0.52211 0.91881 0.0
C497 C 0.0226 0.50723 0.01391 0.0
H498 H 0.07706 0.46319 0.98038 0.0
C499 C 0.0496 0.44258 0.1058 0.0
C500 C 0.04329 0.4246 0.09019 0.0
C501 C 0.05076 0.45889 0.08418 0.0
C502 C 0.06158 0.47534 0.98997 0.0
H503 H 0.03782 0.573 0.9594 0.0
H504 H 0.04426 0.54519 -0.00124 0.0
H505 H 0.0727 0.49149 0.94207 0.0
H506 H 0.03419 0.40942 0.03978 0.0
H507 H 0.03588 0.43797 0.00196 0.0
H508 H 0.01117 0.49104 0.06164 0.0
C509 C 0.03856 0.54298 0.97027 0.0
C510 C 0.05905 0.49151 0.96807 0.0
C511 C 0.03498 0.55887 0.94776 0.0
C512 C 0.0391 0.42312 0.05249 0.0
C513 C 0.04027 0.43944 0.03085 0.0
C514 C 0.02513 0.49107 0.03581 0.0
C515 C 0.03551 0.52444 0.95597 0.0
C516 C 0.0393 0.50756 0.97972 0.0
C517 C 0.04564 0.45751 0.04656 0.0
C518 C 0.04444 0.47492 0.02395 0.0
H519 H 0.01973 0.53575 0.86775 0.0
H520 H 0.02549 0.508 0.90715 0.0
H521 H 0.00679 0.51929 0.02338 0.0
H522 H 0.05313 0.44411 0.1348 0.0
H523 H 0.05548 0.4726 0.09693 0.0
C524 C 0.51985 0.44524 0.39728 0.0
C525 C 0.52175 0.42661 0.41115 0.0
C526 C 0.51582 0.46077 0.42056 0.0
C527 C 0.53092 0.47529 0.51491 0.0
H528 H 0.46964 0.51812 0.48812 0.0
C529 C 0.50949 0.53996 0.60887 0.0
C530 C 0.51321 0.55792 0.59236 0.0
C531 C 0.50727 0.52347 0.58778 0.0
C532 C 0.48697 0.50629 0.49583 0.0
H533 H 0.52048 0.40949 0.46008 0.0
H534 H 0.51303 0.43668 0.50088 0.0
H535 H 0.47151 0.48984 0.44949 0.0
H536 H 0.51683 0.57284 0.54101 0.0
H537 H 0.51309 0.54398 0.50411 0.0
H538 H 0.54659 0.49182 0.56108 0.0
C539 C 0.51514 0.43929 0.47203 0.0
C540 C 0.48808 0.49013 0.47374 0.0
C541 C 0.51926 0.42374 0.4487 0.0
C542 C 0.51399 0.55916 0.55442 0.0
C543 C 0.51162 0.54267 0.53332 0.0
C544 C 0.5297 0.49142 0.53705 0.0
C545 C 0.5135 0.45797 0.45818 0.0
C546 C 0.51043 0.47457 0.48282 0.0
C547 C 0.50857 0.52467 0.54982 0.0
C548 C 0.50806 0.50715 0.52748 0.0
H549 H 0.52178 0.44787 0.36841 0.0
H550 H 0.51524 0.47501 0.40911 0.0
H551 H 0.54878 0.46364 0.52236 0.0
H552 H 0.50868 0.53861 0.63809 0.0
H553 H 0.50454 0.50978 0.60116 0.0
C554 C 0.52477 0.92364 0.543 0.0
C555 C 0.52391 0.92477 0.58096 0.0
C556 C 0.52182 0.94017 0.52209 0.0
C557 C 0.53752 -0.0083 0.5269 0.0
H558 H 0.4797 -0.00693 0.43908 0.0
C559 C 0.52306 0.06005 0.44134 0.0
C560 C 0.52623 0.05767 0.40371 0.0
C561 C 0.51963 0.04417 0.46394 0.0
C562 C 0.49616 -0.00715 0.46342 0.0
H563 H 0.51853 0.94391 0.6269 0.0
H564 H 0.51328 0.97276 0.59034 0.0
H565 H 0.47939 0.96445 0.47679 0.0
H566 H 0.52801 0.03692 0.36007 0.0
H567 H 0.52263 0.00922 0.39951 0.0
H568 H 0.55485 0.01992 0.51328 0.0
C569 C 0.51661 0.95915 0.57678 0.0
C570 C 0.49596 0.97648 0.48497 0.0
C571 C 0.51947 0.94264 0.59766 0.0
C572 C 0.52554 0.03918 0.38901 0.0
C573 C 0.52219 0.02332 0.41157 0.0
C574 C 0.5378 0.00804 0.50532 0.0
C575 C 0.51805 0.9581 0.53881 0.0
C576 C 0.51687 0.97571 0.51675 0.0
C577 C 0.51938 0.02564 0.44927 0.0
C578 C 0.51738 0.00871 0.47319 0.0
H579 H 0.52817 0.91003 0.52945 0.0
H580 H 0.5234 0.93897 0.49286 0.0
H581 H 0.55429 -0.0086 0.55102 0.0
H582 H 0.52334 0.07417 0.45335 0.0
H583 H 0.51709 0.04641 0.49287 0.0
loop_
_geom_bond_atom_site_label_1
_geom_bond_atom_site_label_2
_geom_bond_distance
_geom_bond_site_symmetry_2
_ccdc_geom_bond_type
In0 O1 2.294 . S
In0 O2 2.326 . S
In0 O6 2.266 . S
In0 O7 2.326 . S
In0 O8 2.266 . S
In0 O9 2.326 . S
In0 O11 2.294 1_455 S
In0 O12 2.326 1_455 S
O1 In0 2.294 . S
O1 C10 1.240 . S
O2 In0 2.326 . S
O2 C10 1.252 . S
C3 O6 1.252 . S
C3 O7 1.260 . S
C4 O11 1.240 . S
C4 O12 1.252 . S
C5 O8 1.252 . S
C5 O9 1.260 . S
O6 In0 2.266 . S
O6 C3 1.252 . S
O7 In0 2.326 . S
O7 C3 1.260 . S
O8 In0 2.266 . S
O8 C5 1.252 . S
O9 In0 2.326 . S
O9 C5 1.260 . S
C10 O1 1.240 . S
C10 O2 1.252 . S
O11 In0 2.294 1_655 S
O11 C4 1.240 . S
O12 In0 2.326 1_655 S
O12 C4 1.252 . S
In13 O14 2.294 . S
In13 O15 2.326 . S
In13 O19 2.266 . S
In13 O20 2.326 . S
In13 O21 2.266 . S
In13 O22 2.326 1_455 S
In13 O24 2.294 . S
In13 O25 2.326 . S
O14 In13 2.294 . S
O14 C23 1.240 . S
O15 In13 2.326 . S
O15 C23 1.252 . S
C16 O19 1.252 . S
C16 O20 1.260 . S
C17 O24 1.240 . S
C17 O25 1.252 . S
C18 O21 1.252 1_655 S
C18 O22 1.260 . S
O19 In13 2.266 . S
O19 C16 1.252 . S
O20 In13 2.326 . S
O20 C16 1.260 . S
O21 In13 2.266 . S
O21 C18 1.252 1_455 S
O22 In13 2.326 1_655 S
O22 C18 1.260 . S
C23 O14 1.240 . S
C23 O15 1.252 . S
O24 In13 2.294 . S
O24 C17 1.240 . S
O25 In13 2.326 . S
O25 C17 1.252 . S
In26 O27 2.294 1_455 S
In26 O28 2.326 1_455 S
In26 O32 2.266 . S
In26 O33 2.326 . S
In26 O34 2.266 . S
In26 O35 2.326 . S
In26 O37 2.294 . S
In26 O38 2.326 . S
O27 In26 2.294 1_655 S
O27 C36 1.240 . S
O28 In26 2.326 1_655 S
O28 C36 1.252 . S
C29 O32 1.252 . S
C29 O33 1.260 . S
C30 O37 1.240 . S
C30 O38 1.252 . S
C31 O34 1.252 . S
C31 O35 1.260 . S
O32 In26 2.266 . S
O32 C29 1.252 . S
O33 In26 2.326 . S
O33 C29 1.260 . S
O34 In26 2.266 . S
O34 C31 1.252 . S
O35 In26 2.326 . S
O35 C31 1.260 . S
C36 O27 1.240 . S
C36 O28 1.252 . S
O37 In26 2.294 . S
O37 C30 1.240 . S
O38 In26 2.326 . S
O38 C30 1.252 . S
In39 O40 2.294 . S
In39 O41 2.326 . S
In39 O45 2.266 . S
In39 O46 2.326 . S
In39 O47 2.266 . S
In39 O48 2.326 1_455 S
In39 O50 2.294 . S
In39 O51 2.326 . S
O40 In39 2.294 . S
O40 C49 1.240 . S
O41 In39 2.326 . S
O41 C49 1.252 . S
C42 O45 1.252 . S
C42 O46 1.260 . S
C43 O50 1.240 . S
C43 O51 1.252 . S
C44 O47 1.252 1_655 S
C44 O48 1.260 . S
O45 In39 2.266 . S
O45 C42 1.252 . S
O46 In39 2.326 . S
O46 C42 1.260 . S
O47 In39 2.266 . S
O47 C44 1.252 1_455 S
O48 In39 2.326 1_655 S
O48 C44 1.260 . S
C49 O40 1.240 . S
C49 O41 1.252 . S
O50 In39 2.294 . S
O50 C43 1.240 . S
O51 In39 2.326 . S
O51 C43 1.252 . S
In52 O53 2.294 . S
In52 O54 2.326 . S
In52 O58 2.266 . S
In52 O59 2.326 . S
In52 O60 2.266 . S
In52 O61 2.326 . S
In52 O63 2.294 . S
In52 O64 2.326 . S
O53 In52 2.294 . S
O53 C62 1.240 . S
O54 In52 2.326 . S
O54 C62 1.252 . S
C55 O58 1.252 . S
C55 O59 1.260 . S
C56 O63 1.240 . S
C56 O64 1.252 . S
C57 O60 1.252 . S
C57 O61 1.260 . S
O58 In52 2.266 . S
O58 C55 1.252 . S
O59 In52 2.326 . S
O59 C55 1.260 . S
O60 In52 2.266 . S
O60 C57 1.252 . S
O61 In52 2.326 . S
O61 C57 1.260 . S
C62 O53 1.240 . S
C62 O54 1.252 . S
O63 In52 2.294 . S
O63 C56 1.240 . S
O64 In52 2.326 . S
O64 C56 1.252 . S
In65 O66 2.294 . S
In65 O67 2.326 . S
In65 O71 2.266 . S
In65 O72 2.326 . S
In65 O73 2.266 . S
In65 O74 2.326 . S
In65 O76 2.294 . S
In65 O77 2.326 . S
O66 In65 2.294 . S
O66 C75 1.240 . S
O67 In65 2.326 . S
O67 C75 1.252 . S
C68 O71 1.252 . S
C68 O72 1.260 . S
C69 O76 1.240 . S
C69 O77 1.252 . S
C70 O73 1.252 . S
C70 O74 1.260 . S
O71 In65 2.266 . S
O71 C68 1.252 . S
O72 In65 2.326 . S
O72 C68 1.260 . S
O73 In65 2.266 . S
O73 C70 1.252 . S
O74 In65 2.326 . S
O74 C70 1.260 . S
C75 O66 1.240 . S
C75 O67 1.252 . S
O76 In65 2.294 . S
O76 C69 1.240 . S
O77 In65 2.326 . S
O77 C69 1.252 . S
In78 O79 2.294 . S
In78 O80 2.326 . S
In78 O84 2.266 . S
In78 O85 2.326 . S
In78 O86 2.266 . S
In78 O87 2.326 . S
In78 O89 2.294 . S
In78 O90 2.326 . S
O79 In78 2.294 . S
O79 C88 1.240 . S
O80 In78 2.326 . S
O80 C88 1.252 . S
C81 O84 1.252 . S
C81 O85 1.260 . S
C82 O89 1.240 . S
C82 O90 1.252 . S
C83 O86 1.252 . S
C83 O87 1.260 . S
O84 In78 2.266 . S
O84 C81 1.252 . S
O85 In78 2.326 . S
O85 C81 1.260 . S
O86 In78 2.266 . S
O86 C83 1.252 . S
O87 In78 2.326 . S
O87 C83 1.260 . S
C88 O79 1.240 . S
C88 O80 1.252 . S
O89 In78 2.294 . S
O89 C82 1.240 . S
O90 In78 2.326 . S
O90 C82 1.252 . S
In91 O92 2.294 . S
In91 O93 2.326 . S
In91 O97 2.266 . S
In91 O98 2.326 . S
In91 O99 2.266 . S
In91 O100 2.326 . S
In91 O102 2.294 . S
In91 O103 2.326 . S
O92 In91 2.294 . S
O92 C101 1.240 . S
O93 In91 2.326 . S
O93 C101 1.252 . S
C94 O97 1.252 . S
C94 O98 1.260 . S
C95 O102 1.240 . S
C95 O103 1.252 . S
C96 O99 1.252 . S
C96 O100 1.260 . S
O97 In91 2.266 . S
O97 C94 1.252 . S
O98 In91 2.326 . S
O98 C94 1.260 . S
O99 In91 2.266 . S
O99 C96 1.252 . S
O100 In91 2.326 . S
O100 C96 1.260 . S
C101 O92 1.240 . S
C101 O93 1.252 . S
O102 In91 2.294 . S
O102 C95 1.240 . S
O103 In91 2.326 . S
O103 C95 1.252 . S
C104 C105 1.349 . S
C104 C106 1.327 . S
C104 H129 0.950 . S
C105 C104 1.349 . S
C105 C121 1.349 . S
C106 C104 1.327 . S
C106 C125 1.429 . S
C106 H130 0.950 . S
C107 C124 1.574 . S
C107 C126 1.368 . S
C107 H131 0.949 . S
H108 C112 0.949 . S
C109 C110 1.349 . S
C109 C111 1.327 . S
C109 H132 0.950 . S
C110 C109 1.349 . S
C110 C122 1.349 . S
C111 C109 1.327 . S
C111 C127 1.429 . S
C111 H133 0.950 . S
C112 H108 0.949 . S
C112 C120 1.574 . S
C112 C128 1.368 . S
H113 C121 0.950 . S
H114 C119 0.950 . S
H115 C120 0.949 . S
H116 C122 0.950 . S
H117 C123 0.950 . S
H118 C124 0.949 . S
C119 H114 0.950 . S
C119 C121 1.327 . S
C119 C125 1.429 . S
C120 C112 1.574 . S
C120 H115 0.949 . S
C120 C126 1.368 . S
C121 C105 1.349 . S
C121 H113 0.950 . S
C121 C119 1.327 . S
C122 C110 1.349 . S
C122 H116 0.950 . S
C122 C123 1.327 . S
C123 H117 0.950 . S
C123 C122 1.327 . S
C123 C127 1.429 . S
C124 C107 1.574 . S
C124 H118 0.949 . S
C124 C128 1.368 . S
C125 C106 1.429 . S
C125 C119 1.429 . S
C125 C126 1.523 . S
C126 C107 1.368 . S
C126 C120 1.368 . S
C126 C125 1.523 . S
C127 C111 1.429 . S
C127 C123 1.429 . S
C127 C128 1.523 . S
C128 C112 1.368 . S
C128 C124 1.368 . S
C128 C127 1.523 . S
H129 C104 0.950 . S
H130 C106 0.950 . S
H131 C107 0.949 . S
H132 C109 0.950 . S
H133 C111 0.950 . S
C134 C135 1.349 . S
C134 C136 1.327 . S
C134 H159 0.950 . S
C135 C134 1.349 . S
C135 C151 1.349 . S
C136 C134 1.327 . S
C136 C155 1.429 . S
C136 H160 0.950 . S
C137 C154 1.574 . S
C137 C156 1.368 . S
C137 H161 0.949 . S
H138 C142 0.949 . S
C139 C140 1.349 . S
C139 C141 1.327 . S
C139 H162 0.950 . S
C140 C139 1.349 . S
C140 C152 1.349 . S
C141 C139 1.327 . S
C141 C157 1.429 . S
C141 H163 0.950 . S
C142 H138 0.949 . S
C142 C150 1.574 . S
C142 C158 1.368 . S
H143 C151 0.950 . S
H144 C149 0.950 . S
H145 C150 0.949 . S
H146 C152 0.950 . S
H147 C153 0.950 . S
H148 C154 0.949 . S
C149 H144 0.950 . S
C149 C151 1.327 . S
C149 C155 1.429 . S
C150 C142 1.574 . S
C150 H145 0.949 . S
C150 C156 1.368 . S
C151 C135 1.349 . S
C151 H143 0.950 . S
C151 C149 1.327 . S
C152 C140 1.349 . S
C152 H146 0.950 . S
C152 C153 1.327 . S
C153 H147 0.950 . S
C153 C152 1.327 . S
C153 C157 1.429 . S
C154 C137 1.574 . S
C154 H148 0.949 . S
C154 C158 1.368 . S
C155 C136 1.429 . S
C155 C149 1.429 . S
C155 C156 1.523 . S
C156 C137 1.368 . S
C156 C150 1.368 . S
C156 C155 1.523 . S
C157 C141 1.429 . S
C157 C153 1.429 . S
C157 C158 1.523 . S
C158 C142 1.368 . S
C158 C154 1.368 . S
C158 C157 1.523 . S
H159 C134 0.950 . S
H160 C136 0.950 . S
H161 C137 0.949 . S
H162 C139 0.950 . S
H163 C141 0.950 . S
C164 C165 1.349 . S
C164 C166 1.327 . S
C164 H189 0.950 . S
C165 C164 1.349 . S
C165 C181 1.349 . S
C166 C164 1.327 . S
C166 C185 1.429 . S
C166 H190 0.950 . S
C167 C184 1.574 . S
C167 C186 1.368 . S
C167 H191 0.949 . S
H168 C172 0.949 . S
C169 C170 1.349 . S
C169 C171 1.327 . S
C169 H192 0.950 . S
C170 C169 1.349 . S
C170 C182 1.349 . S
C171 C169 1.327 . S
C171 C187 1.429 . S
C171 H193 0.950 . S
C172 H168 0.949 . S
C172 C180 1.574 . S
C172 C188 1.368 . S
H173 C181 0.950 . S
H174 C179 0.950 . S
H175 C180 0.949 . S
H176 C182 0.950 . S
H177 C183 0.950 . S
H178 C184 0.949 . S
C179 H174 0.950 . S
C179 C181 1.327 . S
C179 C185 1.429 . S
C180 C172 1.574 . S
C180 H175 0.949 . S
C180 C186 1.368 . S
C181 C165 1.349 . S
C181 H173 0.950 . S
C181 C179 1.327 . S
C182 C170 1.349 . S
C182 H176 0.950 . S
C182 C183 1.327 . S
C183 H177 0.950 . S
C183 C182 1.327 . S
C183 C187 1.429 . S
C184 C167 1.574 . S
C184 H178 0.949 . S
C184 C188 1.368 . S
C185 C166 1.429 . S
C185 C179 1.429 . S
C185 C186 1.523 . S
C186 C167 1.368 . S
C186 C180 1.368 . S
C186 C185 1.523 . S
C187 C171 1.429 . S
C187 C183 1.429 . S
C187 C188 1.523 . S
C188 C172 1.368 . S
C188 C184 1.368 . S
C188 C187 1.523 . S
H189 C164 0.950 . S
H190 C166 0.950 . S
H191 C167 0.949 . S
H192 C169 0.950 . S
H193 C171 0.950 . S
C194 C195 1.349 . S
C194 C196 1.327 . S
C194 H219 0.950 . S
C195 C194 1.349 . S
C195 C211 1.349 . S
C196 C194 1.327 . S
C196 C215 1.429 . S
C196 H220 0.950 . S
C197 C214 1.574 . S
C197 C216 1.368 . S
C197 H221 0.949 . S
H198 C202 0.949 . S
C199 C200 1.349 . S
C199 C201 1.327 . S
C199 H222 0.950 . S
C200 C199 1.349 . S
C200 C212 1.349 . S
C201 C199 1.327 . S
C201 C217 1.429 . S
C201 H223 0.950 . S
C202 H198 0.949 . S
C202 C210 1.574 . S
C202 C218 1.368 . S
H203 C211 0.950 . S
H204 C209 0.950 . S
H205 C210 0.949 . S
H206 C212 0.950 . S
H207 C213 0.950 . S
H208 C214 0.949 . S
C209 H204 0.950 . S
C209 C211 1.327 . S
C209 C215 1.429 . S
C210 C202 1.574 . S
C210 H205 0.949 . S
C210 C216 1.368 . S
C211 C195 1.349 . S
C211 H203 0.950 . S
C211 C209 1.327 . S
C212 C200 1.349 . S
C212 H206 0.950 . S
C212 C213 1.327 . S
C213 H207 0.950 . S
C213 C212 1.327 . S
C213 C217 1.429 . S
C214 C197 1.574 . S
C214 H208 0.949 . S
C214 C218 1.368 . S
C215 C196 1.429 . S
C215 C209 1.429 . S
C215 C216 1.523 . S
C216 C197 1.368 . S
C216 C210 1.368 . S
C216 C215 1.523 . S
C217 C201 1.429 . S
C217 C213 1.429 . S
C217 C218 1.523 . S
C218 C202 1.368 . S
C218 C214 1.368 . S
C218 C217 1.523 . S
H219 C194 0.950 . S
H220 C196 0.950 . S
H221 C197 0.949 . S
H222 C199 0.950 . S
H223 C201 0.950 . S
C224 C225 1.349 . S
C224 C226 1.327 . S
C224 H249 0.950 . S
C225 C224 1.349 . S
C225 C241 1.349 . S
C226 C224 1.327 . S
C226 C245 1.429 . S
C226 H250 0.950 . S
C227 C244 1.574 . S
C227 C246 1.368 . S
C227 H251 0.949 . S
H228 C232 0.949 . S
C229 C230 1.349 . S
C229 C231 1.327 . S
C229 H252 0.950 . S
C230 C229 1.349 . S
C230 C242 1.349 . S
C231 C229 1.327 . S
C231 C247 1.429 . S
C231 H253 0.950 . S
C232 H228 0.949 . S
C232 C240 1.574 . S
C232 C248 1.368 . S
H233 C241 0.950 . S
H234 C239 0.950 . S
H235 C240 0.949 . S
H236 C242 0.950 . S
H237 C243 0.950 . S
H238 C244 0.949 . S
C239 H234 0.950 . S
C239 C241 1.327 . S
C239 C245 1.429 . S
C240 C232 1.574 . S
C240 H235 0.949 . S
C240 C246 1.368 . S
C241 C225 1.349 . S
C241 H233 0.950 . S
C241 C239 1.327 . S
C242 C230 1.349 . S
C242 H236 0.950 . S
C242 C243 1.327 . S
C243 H237 0.950 . S
C243 C242 1.327 . S
C243 C247 1.429 . S
C244 C227 1.574 . S
C244 H238 0.949 . S
C244 C248 1.368 . S
C245 C226 1.429 . S
C245 C239 1.429 . S
C245 C246 1.523 . S
C246 C227 1.368 . S
C246 C240 1.368 . S
C246 C245 1.523 . S
C247 C231 1.429 . S
C247 C243 1.429 . S
C247 C248 1.523 . S
C248 C232 1.368 . S
C248 C244 1.368 . S
C248 C247 1.523 . S
H249 C224 0.950 . S
H250 C226 0.950 . S
H251 C227 0.949 . S
H252 C229 0.950 . S
H253 C231 0.950 . S
C254 C255 1.349 . S
C254 C256 1.327 . S
C254 H279 0.950 . S
C255 C254 1.349 . S
C255 C271 1.349 . S
C256 C254 1.327 . S
C256 C275 1.429 . S
C256 H280 0.950 . S
C257 C274 1.574 . S
C257 C276 1.368 . S
C257 H281 0.949 . S
H258 C262 0.949 . S
C259 C260 1.349 . S
C259 C261 1.327 . S
C259 H282 0.950 . S
C260 C259 1.349 . S
C260 C272 1.349 . S
C261 C259 1.327 . S
C261 C277 1.429 . S
C261 H283 0.950 . S
C262 H258 0.949 . S
C262 C270 1.574 . S
C262 C278 1.368 . S
H263 C271 0.950 . S
H264 C269 0.950 . S
H265 C270 0.949 . S
H266 C272 0.950 . S
H267 C273 0.950 . S
H268 C274 0.949 . S
C269 H264 0.950 . S
C269 C271 1.327 . S
C269 C275 1.429 . S
C270 C262 1.574 . S
C270 H265 0.949 . S
C270 C276 1.368 . S
C271 C255 1.349 . S
C271 H263 0.950 . S
C271 C269 1.327 . S
C272 C260 1.349 . S
C272 H266 0.950 . S
C272 C273 1.327 . S
C273 H267 0.950 . S
C273 C272 1.327 . S
C273 C277 1.429 . S
C274 C257 1.574 . S
C274 H268 0.949 . S
C274 C278 1.368 . S
C275 C256 1.429 . S
C275 C269 1.429 . S
C275 C276 1.523 . S
C276 C257 1.368 . S
C276 C270 1.368 . S
C276 C275 1.523 . S
C277 C261 1.429 . S
C277 C273 1.429 . S
C277 C278 1.523 . S
C278 C262 1.368 . S
C278 C274 1.368 . S
C278 C277 1.523 . S
H279 C254 0.950 . S
H280 C256 0.950 . S
H281 C257 0.949 . S
H282 C259 0.950 . S
H283 C261 0.950 . S
C284 C285 1.349 . S
C284 C286 1.327 . S
C284 H309 0.950 . S
C285 C284 1.349 . S
C285 C301 1.349 . S
C286 C284 1.327 . S
C286 C305 1.429 . S
C286 H310 0.950 . S
C287 C304 1.574 . S
C287 C306 1.368 . S
C287 H311 0.949 . S
H288 C292 0.949 . S
C289 C290 1.349 . S
C289 C291 1.327 . S
C289 H312 0.950 . S
C290 C289 1.349 . S
C290 C302 1.349 . S
C291 C289 1.327 . S
C291 C307 1.429 . S
C291 H313 0.950 . S
C292 H288 0.949 . S
C292 C300 1.574 . S
C292 C308 1.368 . S
H293 C301 0.950 . S
H294 C299 0.950 . S
H295 C300 0.949 . S
H296 C302 0.950 . S
H297 C303 0.950 . S
H298 C304 0.949 . S
C299 H294 0.950 . S
C299 C301 1.327 . S
C299 C305 1.429 . S
C300 C292 1.574 . S
C300 H295 0.949 . S
C300 C306 1.368 . S
C301 C285 1.349 . S
C301 H293 0.950 . S
C301 C299 1.327 . S
C302 C290 1.349 . S
C302 H296 0.950 . S
C302 C303 1.327 . S
C303 H297 0.950 . S
C303 C302 1.327 . S
C303 C307 1.429 . S
C304 C287 1.574 . S
C304 H298 0.949 . S
C304 C308 1.368 . S
C305 C286 1.429 . S
C305 C299 1.429 . S
C305 C306 1.523 . S
C306 C287 1.368 . S
C306 C300 1.368 . S
C306 C305 1.523 . S
C307 C291 1.429 . S
C307 C303 1.429 . S
C307 C308 1.523 . S
C308 C292 1.368 . S
C308 C304 1.368 . S
C308 C307 1.523 . S
H309 C284 0.950 . S
H310 C286 0.950 . S
H311 C287 0.949 . S
H312 C289 0.950 . S
H313 C291 0.950 . S
C314 C315 1.349 . S
C314 C316 1.327 . S
C314 H339 0.950 . S
C315 C314 1.349 . S
C315 C331 1.349 . S
C316 C314 1.327 . S
C316 C335 1.429 . S
C316 H340 0.950 . S
C317 C334 1.574 . S
C317 C336 1.368 . S
C317 H341 0.949 . S
H318 C322 0.949 . S
C319 C320 1.349 . S
C319 C321 1.327 . S
C319 H342 0.950 . S
C320 C319 1.349 . S
C320 C332 1.349 . S
C321 C319 1.327 . S
C321 C337 1.429 . S
C321 H343 0.950 . S
C322 H318 0.949 . S
C322 C330 1.574 . S
C322 C338 1.368 . S
H323 C331 0.950 . S
H324 C329 0.950 . S
H325 C330 0.949 . S
H326 C332 0.950 . S
H327 C333 0.950 . S
H328 C334 0.949 . S
C329 H324 0.950 . S
C329 C331 1.327 . S
C329 C335 1.429 . S
C330 C322 1.574 . S
C330 H325 0.949 . S
C330 C336 1.368 . S
C331 C315 1.349 . S
C331 H323 0.950 . S
C331 C329 1.327 . S
C332 C320 1.349 . S
C332 H326 0.950 . S
C332 C333 1.327 . S
C333 H327 0.950 . S
C333 C332 1.327 . S
C333 C337 1.429 . S
C334 C317 1.574 . S
C334 H328 0.949 . S
C334 C338 1.368 . S
C335 C316 1.429 . S
C335 C329 1.429 . S
C335 C336 1.523 . S
C336 C317 1.368 . S
C336 C330 1.368 . S
C336 C335 1.523 . S
C337 C321 1.429 . S
C337 C333 1.429 . S
C337 C338 1.523 . S
C338 C322 1.368 . S
C338 C334 1.368 . S
C338 C337 1.523 . S
H339 C314 0.950 . S
H340 C316 0.950 . S
H341 C317 0.949 . S
H342 C319 0.950 . S
H343 C321 0.950 . S
C344 C345 1.349 . S
C344 C346 1.327 . S
C344 H369 0.950 . S
C345 C344 1.349 . S
C345 C361 1.349 . S
C346 C344 1.327 . S
C346 C365 1.429 . S
C346 H370 0.950 . S
C347 C364 1.574 . S
C347 C366 1.368 . S
C347 H371 0.949 . S
H348 C352 0.949 . S
C349 C350 1.349 . S
C349 C351 1.327 . S
C349 H372 0.950 . S
C350 C349 1.349 . S
C350 C362 1.349 . S
C351 C349 1.327 . S
C351 C367 1.429 . S
C351 H373 0.950 . S
C352 H348 0.949 . S
C352 C360 1.574 . S
C352 C368 1.368 . S
H353 C361 0.950 . S
H354 C359 0.950 . S
H355 C360 0.949 . S
H356 C362 0.950 . S
H357 C363 0.950 . S
H358 C364 0.949 . S
C359 H354 0.950 . S
C359 C361 1.327 . S
C359 C365 1.429 . S
C360 C352 1.574 . S
C360 H355 0.949 . S
C360 C366 1.368 . S
C361 C345 1.349 . S
C361 H353 0.950 . S
C361 C359 1.327 . S
C362 C350 1.349 . S
C362 H356 0.950 . S
C362 C363 1.327 . S
C363 H357 0.950 . S
C363 C362 1.327 . S
C363 C367 1.429 . S
C364 C347 1.574 . S
C364 H358 0.949 . S
C364 C368 1.368 . S
C365 C346 1.429 . S
C365 C359 1.429 . S
C365 C366 1.523 . S
C366 C347 1.368 . S
C366 C360 1.368 . S
C366 C365 1.523 . S
C367 C351 1.429 . S
C367 C363 1.429 . S
C367 C368 1.523 . S
C368 C352 1.368 . S
C368 C364 1.368 . S
C368 C367 1.523 . S
H369 C344 0.950 . S
H370 C346 0.950 . S
H371 C347 0.949 . S
H372 C349 0.950 . S
H373 C351 0.950 . S
C374 C375 1.349 . S
C374 C376 1.327 . S
C374 H399 0.950 . S
C375 C374 1.349 . S
C375 C391 1.349 . S
C376 C374 1.327 . S
C376 C395 1.429 . S
C376 H400 0.950 . S
C377 C394 1.574 . S
C377 C396 1.368 . S
C377 H401 0.949 . S
H378 C382 0.949 . S
C379 C380 1.349 . S
C379 C381 1.327 . S
C379 H402 0.950 . S
C380 C379 1.349 . S
C380 C392 1.349 . S
C381 C379 1.327 . S
C381 C397 1.429 . S
C381 H403 0.950 . S
C382 H378 0.949 . S
C382 C390 1.574 . S
C382 C398 1.368 . S
H383 C391 0.950 . S
H384 C389 0.950 . S
H385 C390 0.949 . S
H386 C392 0.950 . S
H387 C393 0.950 . S
H388 C394 0.949 . S
C389 H384 0.950 . S
C389 C391 1.327 . S
C389 C395 1.429 . S
C390 C382 1.574 . S
C390 H385 0.949 . S
C390 C396 1.368 . S
C391 C375 1.349 . S
C391 H383 0.950 . S
C391 C389 1.327 . S
C392 C380 1.349 . S
C392 H386 0.950 . S
C392 C393 1.327 . S
C393 H387 0.950 . S
C393 C392 1.327 . S
C393 C397 1.429 . S
C394 C377 1.574 . S
C394 H388 0.949 . S
C394 C398 1.368 . S
C395 C376 1.429 . S
C395 C389 1.429 . S
C395 C396 1.523 . S
C396 C377 1.368 . S
C396 C390 1.368 . S
C396 C395 1.523 . S
C397 C381 1.429 . S
C397 C393 1.429 . S
C397 C398 1.523 . S
C398 C382 1.368 . S
C398 C394 1.368 . S
C398 C397 1.523 . S
H399 C374 0.950 . S
H400 C376 0.950 . S
H401 C377 0.949 . S
H402 C379 0.950 . S
H403 C381 0.950 . S
C404 C405 1.349 . S
C404 C406 1.327 . S
C404 H429 0.950 . S
C405 C404 1.349 . S
C405 C421 1.349 . S
C406 C404 1.327 . S
C406 C425 1.429 . S
C406 H430 0.950 . S
C407 C424 1.574 . S
C407 C426 1.368 . S
C407 H431 0.949 . S
H408 C412 0.949 . S
C409 C410 1.349 . S
C409 C411 1.327 . S
C409 H432 0.950 . S
C410 C409 1.349 . S
C410 C422 1.349 . S
C411 C409 1.327 . S
C411 C427 1.429 . S
C411 H433 0.950 . S
C412 H408 0.949 . S
C412 C420 1.574 . S
C412 C428 1.368 . S
H413 C421 0.950 . S
H414 C419 0.950 . S
H415 C420 0.949 . S
H416 C422 0.950 . S
H417 C423 0.950 . S
H418 C424 0.949 . S
C419 H414 0.950 . S
C419 C421 1.327 . S
C419 C425 1.429 . S
C420 C412 1.574 . S
C420 H415 0.949 . S
C420 C426 1.368 . S
C421 C405 1.349 . S
C421 H413 0.950 . S
C421 C419 1.327 . S
C422 C410 1.349 . S
C422 H416 0.950 . S
C422 C423 1.327 . S
C423 H417 0.950 . S
C423 C422 1.327 . S
C423 C427 1.429 . S
C424 C407 1.574 . S
C424 H418 0.949 . S
C424 C428 1.368 . S
C425 C406 1.429 . S
C425 C419 1.429 . S
C425 C426 1.523 . S
C426 C407 1.368 . S
C426 C420 1.368 . S
C426 C425 1.523 . S
C427 C411 1.429 . S
C427 C423 1.429 . S
C427 C428 1.523 . S
C428 C412 1.368 . S
C428 C424 1.368 . S
C428 C427 1.523 . S
H429 C404 0.950 . S
H430 C406 0.950 . S
H431 C407 0.949 . S
H432 C409 0.950 . S
H433 C411 0.950 . S
C434 C435 1.349 . S
C434 C436 1.327 . S
C434 H459 0.950 . S
C435 C434 1.349 . S
C435 C451 1.349 . S
C436 C434 1.327 . S
C436 C455 1.429 . S
C436 H460 0.950 . S
C437 C454 1.574 . S
C437 C456 1.368 . S
C437 H461 0.949 . S
H438 C442 0.949 . S
C439 C440 1.349 . S
C439 C441 1.327 . S
C439 H462 0.950 . S
C440 C439 1.349 . S
C440 C452 1.349 . S
C441 C439 1.327 . S
C441 C457 1.429 . S
C441 H463 0.950 . S
C442 H438 0.949 . S
C442 C450 1.574 . S
C442 C458 1.368 . S
H443 C451 0.950 . S
H444 C449 0.950 . S
H445 C450 0.949 . S
H446 C452 0.950 . S
H447 C453 0.950 . S
H448 C454 0.949 . S
C449 H444 0.950 . S
C449 C451 1.327 . S
C449 C455 1.429 . S
C450 C442 1.574 . S
C450 H445 0.949 . S
C450 C456 1.368 . S
C451 C435 1.349 . S
C451 H443 0.950 . S
C451 C449 1.327 . S
C452 C440 1.349 . S
C452 H446 0.950 . S
C452 C453 1.327 . S
C453 H447 0.950 . S
C453 C452 1.327 . S
C453 C457 1.429 . S
C454 C437 1.574 . S
C454 H448 0.949 . S
C454 C458 1.368 . S
C455 C436 1.429 . S
C455 C449 1.429 . S
C455 C456 1.523 . S
C456 C437 1.368 . S
C456 C450 1.368 . S
C456 C455 1.523 . S
C457 C441 1.429 . S
C457 C453 1.429 . S
C457 C458 1.523 . S
C458 C442 1.368 . S
C458 C454 1.368 . S
C458 C457 1.523 . S
H459 C434 0.950 . S
H460 C436 0.950 . S
H461 C437 0.949 . S
H462 C439 0.950 . S
H463 C441 0.950 . S
C464 C465 1.349 . S
C464 C466 1.327 . S
C464 H489 0.950 . S
C465 C464 1.349 . S
C465 C481 1.349 1_455 S
C466 C464 1.327 . S
C466 C485 1.429 . S
C466 H490 0.950 . S
C467 C484 1.574 1_545 S
C467 C486 1.368 1_655 S
C467 H491 0.949 . S
H468 C472 0.949 . S
C469 C470 1.349 1_655 S
C469 C471 1.327 . S
C469 H492 0.950 . S
C470 C469 1.349 1_455 S
C470 C482 1.349 . S
C471 C469 1.327 . S
C471 C487 1.429 1_655 S
C471 H493 0.950 . S
C472 H468 0.949 . S
C472 C480 1.574 1_565 S
C472 C488 1.368 . S
H473 C481 0.950 . S
H474 C479 0.950 . S
H475 C480 0.949 . S
H476 C482 0.950 . S
H477 C483 0.950 . S
H478 C484 0.949 . S
C479 H474 0.950 . S
C479 C481 1.327 . S
C479 C485 1.429 1_655 S
C480 C472 1.574 1_545 S
C480 H475 0.949 . S
C480 C486 1.368 1_556 S
C481 C465 1.349 1_655 S
C481 H473 0.950 . S
C481 C479 1.327 . S
C482 C470 1.349 . S
C482 H476 0.950 . S
C482 C483 1.327 . S
C483 H477 0.950 . S
C483 C482 1.327 . S
C483 C487 1.429 . S
C484 C467 1.574 1_565 S
C484 H478 0.949 . S
C484 C488 1.368 1_654 S
C485 C466 1.429 . S
C485 C479 1.429 1_455 S
C485 C486 1.523 . S
C486 C467 1.368 1_455 S
C486 C480 1.368 1_554 S
C486 C485 1.523 . S
C487 C471 1.429 1_455 S
C487 C483 1.429 . S
C487 C488 1.523 . S
C488 C472 1.368 . S
C488 C484 1.368 1_456 S
C488 C487 1.523 . S
H489 C464 0.950 . S
H490 C466 0.950 . S
H491 C467 0.949 . S
H492 C469 0.950 . S
H493 C471 0.950 . S
C494 C495 1.349 . S
C494 C496 1.327 . S
C494 H519 0.950 . S
C495 C494 1.349 . S
C495 C511 1.349 . S
C496 C494 1.327 . S
C496 C515 1.429 . S
C496 H520 0.950 . S
C497 C514 1.574 . S
C497 C516 1.368 1_554 S
C497 H521 0.949 . S
H498 C502 0.949 . S
C499 C500 1.349 . S
C499 C501 1.327 . S
C499 H522 0.950 . S
C500 C499 1.349 . S
C500 C512 1.349 . S
C501 C499 1.327 . S
C501 C517 1.429 . S
C501 H523 0.950 . S
C502 H498 0.949 . S
C502 C510 1.574 . S
C502 C518 1.368 1_556 S
H503 C511 0.950 . S
H504 C509 0.950 . S
H505 C510 0.949 . S
H506 C512 0.950 . S
H507 C513 0.950 . S
H508 C514 0.949 . S
C509 H504 0.950 . S
C509 C511 1.327 . S
C509 C515 1.429 . S
C510 C502 1.574 . S
C510 H505 0.949 . S
C510 C516 1.368 . S
C511 C495 1.349 . S
C511 H503 0.950 . S
C511 C509 1.327 . S
C512 C500 1.349 . S
C512 H506 0.950 . S
C512 C513 1.327 . S
C513 H507 0.950 . S
C513 C512 1.327 . S
C513 C517 1.429 . S
C514 C497 1.574 . S
C514 H508 0.949 . S
C514 C518 1.368 . S
C515 C496 1.429 . S
C515 C509 1.429 . S
C515 C516 1.523 . S
C516 C497 1.368 1_556 S
C516 C510 1.368 . S
C516 C515 1.523 . S
C517 C501 1.429 . S
C517 C513 1.429 . S
C517 C518 1.523 . S
C518 C502 1.368 1_554 S
C518 C514 1.368 . S
C518 C517 1.523 . S
H519 C494 0.950 . S
H520 C496 0.950 . S
H521 C497 0.949 . S
H522 C499 0.950 . S
H523 C501 0.950 . S
C524 C525 1.349 . S
C524 C526 1.327 . S
C524 H549 0.950 . S
C525 C524 1.349 . S
C525 C541 1.349 . S
C526 C524 1.327 . S
C526 C545 1.429 . S
C526 H550 0.950 . S
C527 C544 1.574 . S
C527 C546 1.368 . S
C527 H551 0.949 . S
H528 C532 0.949 . S
C529 C530 1.349 . S
C529 C531 1.327 . S
C529 H552 0.950 . S
C530 C529 1.349 . S
C530 C542 1.349 . S
C531 C529 1.327 . S
C531 C547 1.429 . S
C531 H553 0.950 . S
C532 H528 0.949 . S
C532 C540 1.574 . S
C532 C548 1.368 . S
H533 C541 0.950 . S
H534 C539 0.950 . S
H535 C540 0.949 . S
H536 C542 0.950 . S
H537 C543 0.950 . S
H538 C544 0.949 . S
C539 H534 0.950 . S
C539 C541 1.327 . S
C539 C545 1.429 . S
C540 C532 1.574 . S
C540 H535 0.949 . S
C540 C546 1.368 . S
C541 C525 1.349 . S
C541 H533 0.950 . S
C541 C539 1.327 . S
C542 C530 1.349 . S
C542 H536 0.950 . S
C542 C543 1.327 . S
C543 H537 0.950 . S
C543 C542 1.327 . S
C543 C547 1.429 . S
C544 C527 1.574 . S
C544 H538 0.949 . S
C544 C548 1.368 . S
C545 C526 1.429 . S
C545 C539 1.429 . S
C545 C546 1.523 . S
C546 C527 1.368 . S
C546 C540 1.368 . S
C546 C545 1.523 . S
C547 C531 1.429 . S
C547 C543 1.429 . S
C547 C548 1.523 . S
C548 C532 1.368 . S
C548 C544 1.368 . S
C548 C547 1.523 . S
H549 C524 0.950 . S
H550 C526 0.950 . S
H551 C527 0.949 . S
H552 C529 0.950 . S
H553 C531 0.950 . S
C554 C555 1.349 . S
C554 C556 1.327 . S
C554 H579 0.950 . S
C555 C554 1.349 . S
C555 C571 1.349 . S
C556 C554 1.327 . S
C556 C575 1.429 . S
C556 H580 0.950 . S
C557 C574 1.574 . S
C557 C576 1.368 1_545 S
C557 H581 0.949 . S
H558 C562 0.949 . S
C559 C560 1.349 . S
C559 C561 1.327 . S
C559 H582 0.950 . S
C560 C559 1.349 . S
C560 C572 1.349 . S
C561 C559 1.327 . S
C561 C577 1.429 . S
C561 H583 0.950 . S
C562 H558 0.949 . S
C562 C570 1.574 . S
C562 C578 1.368 1_565 S
H563 C571 0.950 . S
H564 C569 0.950 . S
H565 C570 0.949 . S
H566 C572 0.950 . S
H567 C573 0.950 . S
H568 C574 0.949 . S
C569 H564 0.950 . S
C569 C571 1.327 . S
C569 C575 1.429 . S
C570 C562 1.574 . S
C570 H565 0.949 . S
C570 C576 1.368 . S
C571 C555 1.349 . S
C571 H563 0.950 . S
C571 C569 1.327 . S
C572 C560 1.349 . S
C572 H566 0.950 . S
C572 C573 1.327 . S
C573 H567 0.950 . S
C573 C572 1.327 . S
C573 C577 1.429 . S
C574 C557 1.574 . S
C574 H568 0.949 . S
C574 C578 1.368 . S
C575 C556 1.429 . S
C575 C569 1.429 . S
C575 C576 1.523 . S
C576 C557 1.368 1_565 S
C576 C570 1.368 . S
C576 C575 1.523 . S
C577 C561 1.429 . S
C577 C573 1.429 . S
C577 C578 1.523 . S
C578 C562 1.368 1_545 S
C578 C574 1.368 . S
C578 C577 1.523 . S
H579 C554 0.950 . S
H580 C556 0.950 . S
H581 C557 0.949 . S
H582 C559 0.950 . S
H583 C561 0.950 . S
C105 C16 1.440 . S
C110 C3 1.440 . S
C135 C31 1.440 . S
C140 C42 1.440 . S
C165 C57 1.440 . S
C170 C70 1.440 . S
C195 C83 1.440 . S
C200 C96 1.440 . S
C225 C94 1.723 . S
C230 C5 1.723 . S
C255 C81 1.722 . S
C260 C18 1.722 . S
C285 C29 1.723 . S
C290 C68 1.723 . S
C315 C55 1.722 . S
C320 C44 1.722 . S
C345 C75 1.086 . S
C350 C36 1.086 . S
C375 C62 1.086 . S
C380 C43 1.086 . S
C405 C101 1.086 . S
C410 C4 1.086 . S
C435 C17 1.086 . S
C440 C88 1.086 . S
C465 C10 1.386 . S
C470 C30 1.386 . S
C495 C49 1.386 . S
C500 C23 1.386 . S
C525 C82 1.386 . S
C530 C56 1.386 . S
C555 C69 1.386 . S
C560 C95 1.386 . S
