# Generated by pormake.
# Topology wnd, (6)-cn, num edge types: 1
# Building blocks:
#     Node 0, Type 0, BuildingBlock: GEDQOX_clean_sbu_0, # of connection points: 6
#     Node 1, Type 0, BuildingBlock: GEDQOX_clean_sbu_0, # of connection points: 6
#     Node 2, Type 0, BuildingBlock: GEDQOX_clean_sbu_0, # of connection points: 6
#     Node 3, Type 0, BuildingBlock: GEDQOX_clean_sbu_0, # of connection points: 6
#     Node 4, Type 0, BuildingBlock: GEDQOX_clean_sbu_0, # of connection points: 6
#     Node 5, Type 0, BuildingBlock: GEDQOX_clean_sbu_0, # of connection points: 6
#     Node 6, Type 0, BuildingBlock: GEDQOX_clean_sbu_0, # of connection points: 6
#     Node 7, Type 0, BuildingBlock: GEDQOX_clean_sbu_0, # of connection points: 6
#     Node 8, Type 0, BuildingBlock: GEDQOX_clean_sbu_0, # of connection points: 6
#     Node 9, Type 0, BuildingBlock: GEDQOX_clean_sbu_0, # of connection points: 6
#     Node 10, Type 0, BuildingBlock: GEDQOX_clean_sbu_0, # of connection points: 6
#     Node 11, Type 0, BuildingBlock: GEDQOX_clean_sbu_0, # of connection points: 6
#     Node 12, Type 0, BuildingBlock: GEDQOX_clean_sbu_0, # of connection points: 6
#     Node 13, Type 0, BuildingBlock: GEDQOX_clean_sbu_0, # of connection points: 6
#     Node 14, Type 0, BuildingBlock: GEDQOX_clean_sbu_0, # of connection points: 6
#     Node 15, Type 0, BuildingBlock: GEDQOX_clean_sbu_0, # of connection points: 6
#     Node 16, Type 0, BuildingBlock: GEDQOX_clean_sbu_0, # of connection points: 6
#     Node 17, Type 0, BuildingBlock: GEDQOX_clean_sbu_0, # of connection points: 6
#     Node 18, Type 0, BuildingBlock: GEDQOX_clean_sbu_0, # of connection points: 6
#     Node 19, Type 0, BuildingBlock: GEDQOX_clean_sbu_0, # of connection points: 6
#     Node 20, Type 0, BuildingBlock: GEDQOX_clean_sbu_0, # of connection points: 6
#     Node 21, Type 0, BuildingBlock: GEDQOX_clean_sbu_0, # of connection points: 6
#     Node 22, Type 0, BuildingBlock: GEDQOX_clean_sbu_0, # of connection points: 6
#     Node 23, Type 0, BuildingBlock: GEDQOX_clean_sbu_0, # of connection points: 6
#     Node 24, Type 0, BuildingBlock: GEDQOX_clean_sbu_0, # of connection points: 6
#     Node 25, Type 0, BuildingBlock: GEDQOX_clean_sbu_0, # of connection points: 6
#     Node 26, Type 0, BuildingBlock: GEDQOX_clean_sbu_0, # of connection points: 6
#     Node 27, Type 0, BuildingBlock: GEDQOX_clean_sbu_0, # of connection points: 6
#     Node 28, Type 0, BuildingBlock: GEDQOX_clean_sbu_0, # of connection points: 6
#     Node 29, Type 0, BuildingBlock: GEDQOX_clean_sbu_0, # of connection points: 6
#     Node 30, Type 0, BuildingBlock: GEDQOX_clean_sbu_0, # of connection points: 6
#     Node 31, Type 0, BuildingBlock: GEDQOX_clean_sbu_0, # of connection points: 6
#     Node 32, Type 0, BuildingBlock: GEDQOX_clean_sbu_0, # of connection points: 6
#     Node 33, Type 0, BuildingBlock: GEDQOX_clean_sbu_0, # of connection points: 6
#     Node 34, Type 0, BuildingBlock: GEDQOX_clean_sbu_0, # of connection points: 6
#     Node 35, Type 0, BuildingBlock: GEDQOX_clean_sbu_0, # of connection points: 6
#     Edge 36, Type (0, 0), BuildingBlock: XIVTED_clean_linker_0, # of connection points: 2
#     Edge 37, Type (0, 0), BuildingBlock: XIVTED_clean_linker_0, # of connection points: 2
#     Edge 38, Type (0, 0), BuildingBlock: XIVTED_clean_linker_0, # of connection points: 2
#     Edge 39, Type (0, 0), BuildingBlock: XIVTED_clean_linker_0, # of connection points: 2
#     Edge 40, Type (0, 0), BuildingBlock: XIVTED_clean_linker_0, # of connection points: 2
#     Edge 41, Type (0, 0), BuildingBlock: XIVTED_clean_linker_0, # of connection points: 2
#     Edge 42, Type (0, 0), BuildingBlock: XIVTED_clean_linker_0, # of connection points: 2
#     Edge 43, Type (0, 0), BuildingBlock: XIVTED_clean_linker_0, # of connection points: 2
#     Edge 44, Type (0, 0), BuildingBlock: XIVTED_clean_linker_0, # of connection points: 2
#     Edge 45, Type (0, 0), BuildingBlock: XIVTED_clean_linker_0, # of connection points: 2
#     Edge 46, Type (0, 0), BuildingBlock: XIVTED_clean_linker_0, # of connection points: 2
#     Edge 47, Type (0, 0), BuildingBlock: XIVTED_clean_linker_0, # of connection points: 2
#     Edge 48, Type (0, 0), BuildingBlock: XIVTED_clean_linker_0, # of connection points: 2
#     Edge 49, Type (0, 0), BuildingBlock: XIVTED_clean_linker_0, # of connection points: 2
#     Edge 50, Type (0, 0), BuildingBlock: XIVTED_clean_linker_0, # of connection points: 2
#     Edge 51, Type (0, 0), BuildingBlock: XIVTED_clean_linker_0, # of connection points: 2
#     Edge 52, Type (0, 0), BuildingBlock: XIVTED_clean_linker_0, # of connection points: 2
#     Edge 53, Type (0, 0), BuildingBlock: XIVTED_clean_linker_0, # of connection points: 2
#     Edge 54, Type (0, 0), BuildingBlock: XIVTED_clean_linker_0, # of connection points: 2
#     Edge 55, Type (0, 0), BuildingBlock: XIVTED_clean_linker_0, # of connection points: 2
#     Edge 56, Type (0, 0), BuildingBlock: XIVTED_clean_linker_0, # of connection points: 2
#     Edge 57, Type (0, 0), BuildingBlock: XIVTED_clean_linker_0, # of connection points: 2
#     Edge 58, Type (0, 0), BuildingBlock: XIVTED_clean_linker_0, # of connection points: 2
#     Edge 59, Type (0, 0), BuildingBlock: XIVTED_clean_linker_0, # of connection points: 2
#     Edge 60, Type (0, 0), BuildingBlock: XIVTED_clean_linker_0, # of connection points: 2
#     Edge 61, Type (0, 0), BuildingBlock: XIVTED_clean_linker_0, # of connection points: 2
#     Edge 62, Type (0, 0), BuildingBlock: XIVTED_clean_linker_0, # of connection points: 2
#     Edge 63, Type (0, 0), BuildingBlock: XIVTED_clean_linker_0, # of connection points: 2
#     Edge 64, Type (0, 0), BuildingBlock: XIVTED_clean_linker_0, # of connection points: 2
#     Edge 65, Type (0, 0), BuildingBlock: XIVTED_clean_linker_0, # of connection points: 2
#     Edge 66, Type (0, 0), BuildingBlock: XIVTED_clean_linker_0, # of connection points: 2
#     Edge 67, Type (0, 0), BuildingBlock: XIVTED_clean_linker_0, # of connection points: 2
#     Edge 68, Type (0, 0), BuildingBlock: XIVTED_clean_linker_0, # of connection points: 2
#     Edge 69, Type (0, 0), BuildingBlock: XIVTED_clean_linker_0, # of connection points: 2
#     Edge 70, Type (0, 0), BuildingBlock: XIVTED_clean_linker_0, # of connection points: 2
#     Edge 71, Type (0, 0), BuildingBlock: XIVTED_clean_linker_0, # of connection points: 2
#     Edge 72, Type (0, 0), BuildingBlock: XIVTED_clean_linker_0, # of connection points: 2
#     Edge 73, Type (0, 0), BuildingBlock: XIVTED_clean_linker_0, # of connection points: 2
#     Edge 74, Type (0, 0), BuildingBlock: XIVTED_clean_linker_0, # of connection points: 2
#     Edge 75, Type (0, 0), BuildingBlock: XIVTED_clean_linker_0, # of connection points: 2
#     Edge 76, Type (0, 0), BuildingBlock: XIVTED_clean_linker_0, # of connection points: 2
#     Edge 77, Type (0, 0), BuildingBlock: XIVTED_clean_linker_0, # of connection points: 2
#     Edge 78, Type (0, 0), BuildingBlock: XIVTED_clean_linker_0, # of connection points: 2
#     Edge 79, Type (0, 0), BuildingBlock: XIVTED_clean_linker_0, # of connection points: 2
#     Edge 80, Type (0, 0), BuildingBlock: XIVTED_clean_linker_0, # of connection points: 2
#     Edge 81, Type (0, 0), BuildingBlock: XIVTED_clean_linker_0, # of connection points: 2
#     Edge 82, Type (0, 0), BuildingBlock: XIVTED_clean_linker_0, # of connection points: 2
#     Edge 83, Type (0, 0), BuildingBlock: XIVTED_clean_linker_0, # of connection points: 2
#     Edge 84, Type (0, 0), BuildingBlock: XIVTED_clean_linker_0, # of connection points: 2
#     Edge 85, Type (0, 0), BuildingBlock: XIVTED_clean_linker_0, # of connection points: 2
#     Edge 86, Type (0, 0), BuildingBlock: XIVTED_clean_linker_0, # of connection points: 2
#     Edge 87, Type (0, 0), BuildingBlock: XIVTED_clean_linker_0, # of connection points: 2
#     Edge 88, Type (0, 0), BuildingBlock: XIVTED_clean_linker_0, # of connection points: 2
#     Edge 89, Type (0, 0), BuildingBlock: XIVTED_clean_linker_0, # of connection points: 2
#     Edge 90, Type (0, 0), BuildingBlock: XIVTED_clean_linker_0, # of connection points: 2
#     Edge 91, Type (0, 0), BuildingBlock: XIVTED_clean_linker_0, # of connection points: 2
#     Edge 92, Type (0, 0), BuildingBlock: XIVTED_clean_linker_0, # of connection points: 2
#     Edge 93, Type (0, 0), BuildingBlock: XIVTED_clean_linker_0, # of connection points: 2
#     Edge 94, Type (0, 0), BuildingBlock: XIVTED_clean_linker_0, # of connection points: 2
#     Edge 95, Type (0, 0), BuildingBlock: XIVTED_clean_linker_0, # of connection points: 2
#     Edge 96, Type (0, 0), BuildingBlock: XIVTED_clean_linker_0, # of connection points: 2
#     Edge 97, Type (0, 0), BuildingBlock: XIVTED_clean_linker_0, # of connection points: 2
#     Edge 98, Type (0, 0), BuildingBlock: XIVTED_clean_linker_0, # of connection points: 2
#     Edge 99, Type (0, 0), BuildingBlock: XIVTED_clean_linker_0, # of connection points: 2
#     Edge 100, Type (0, 0), BuildingBlock: XIVTED_clean_linker_0, # of connection points: 2
#     Edge 101, Type (0, 0), BuildingBlock: XIVTED_clean_linker_0, # of connection points: 2
#     Edge 102, Type (0, 0), BuildingBlock: XIVTED_clean_linker_0, # of connection points: 2
#     Edge 103, Type (0, 0), BuildingBlock: XIVTED_clean_linker_0, # of connection points: 2
#     Edge 104, Type (0, 0), BuildingBlock: XIVTED_clean_linker_0, # of connection points: 2
#     Edge 105, Type (0, 0), BuildingBlock: XIVTED_clean_linker_0, # of connection points: 2
#     Edge 106, Type (0, 0), BuildingBlock: XIVTED_clean_linker_0, # of connection points: 2
#     Edge 107, Type (0, 0), BuildingBlock: XIVTED_clean_linker_0, # of connection points: 2
#     Edge 108, Type (0, 0), BuildingBlock: XIVTED_clean_linker_0, # of connection points: 2
#     Edge 109, Type (0, 0), BuildingBlock: XIVTED_clean_linker_0, # of connection points: 2
#     Edge 110, Type (0, 0), BuildingBlock: XIVTED_clean_linker_0, # of connection points: 2
#     Edge 111, Type (0, 0), BuildingBlock: XIVTED_clean_linker_0, # of connection points: 2
#     Edge 112, Type (0, 0), BuildingBlock: XIVTED_clean_linker_0, # of connection points: 2
#     Edge 113, Type (0, 0), BuildingBlock: XIVTED_clean_linker_0, # of connection points: 2
#     Edge 114, Type (0, 0), BuildingBlock: XIVTED_clean_linker_0, # of connection points: 2
#     Edge 115, Type (0, 0), BuildingBlock: XIVTED_clean_linker_0, # of connection points: 2
#     Edge 116, Type (0, 0), BuildingBlock: XIVTED_clean_linker_0, # of connection points: 2
#     Edge 117, Type (0, 0), BuildingBlock: XIVTED_clean_linker_0, # of connection points: 2
#     Edge 118, Type (0, 0), BuildingBlock: XIVTED_clean_linker_0, # of connection points: 2
#     Edge 119, Type (0, 0), BuildingBlock: XIVTED_clean_linker_0, # of connection points: 2
#     Edge 120, Type (0, 0), BuildingBlock: XIVTED_clean_linker_0, # of connection points: 2
#     Edge 121, Type (0, 0), BuildingBlock: XIVTED_clean_linker_0, # of connection points: 2
#     Edge 122, Type (0, 0), BuildingBlock: XIVTED_clean_linker_0, # of connection points: 2
#     Edge 123, Type (0, 0), BuildingBlock: XIVTED_clean_linker_0, # of connection points: 2
#     Edge 124, Type (0, 0), BuildingBlock: XIVTED_clean_linker_0, # of connection points: 2
#     Edge 125, Type (0, 0), BuildingBlock: XIVTED_clean_linker_0, # of connection points: 2
#     Edge 126, Type (0, 0), BuildingBlock: XIVTED_clean_linker_0, # of connection points: 2
#     Edge 127, Type (0, 0), BuildingBlock: XIVTED_clean_linker_0, # of connection points: 2
#     Edge 128, Type (0, 0), BuildingBlock: XIVTED_clean_linker_0, # of connection points: 2
#     Edge 129, Type (0, 0), BuildingBlock: XIVTED_clean_linker_0, # of connection points: 2
#     Edge 130, Type (0, 0), BuildingBlock: XIVTED_clean_linker_0, # of connection points: 2
#     Edge 131, Type (0, 0), BuildingBlock: XIVTED_clean_linker_0, # of connection points: 2
#     Edge 132, Type (0, 0), BuildingBlock: XIVTED_clean_linker_0, # of connection points: 2
#     Edge 133, Type (0, 0), BuildingBlock: XIVTED_clean_linker_0, # of connection points: 2
#     Edge 134, Type (0, 0), BuildingBlock: XIVTED_clean_linker_0, # of connection points: 2
#     Edge 135, Type (0, 0), BuildingBlock: XIVTED_clean_linker_0, # of connection points: 2
#     Edge 136, Type (0, 0), BuildingBlock: XIVTED_clean_linker_0, # of connection points: 2
#     Edge 137, Type (0, 0), BuildingBlock: XIVTED_clean_linker_0, # of connection points: 2
#     Edge 138, Type (0, 0), BuildingBlock: XIVTED_clean_linker_0, # of connection points: 2
#     Edge 139, Type (0, 0), BuildingBlock: XIVTED_clean_linker_0, # of connection points: 2
#     Edge 140, Type (0, 0), BuildingBlock: XIVTED_clean_linker_0, # of connection points: 2
#     Edge 141, Type (0, 0), BuildingBlock: XIVTED_clean_linker_0, # of connection points: 2
#     Edge 142, Type (0, 0), BuildingBlock: XIVTED_clean_linker_0, # of connection points: 2
#     Edge 143, Type (0, 0), BuildingBlock: XIVTED_clean_linker_0, # of connection points: 2
# Relax obj value: 0.096
# Max RMSD: 0.206
# Mean RMSD: 0.206
data_MOF--net-wnd--node1-GEDQOX_clean_sbu_0--edge1-XIVTED_clean_linker_0
_symmetry_space_group_name_H-M    P1
_symmetry_Int_Tables_number       1
_symmetry_cell_setting            triclinic
loop_
_symmetry_equiv_pos_as_xyz
'x, y, z'
_cell_length_a     40.554627
_cell_length_b     40.596628
_cell_length_c     156.79106
_cell_angle_alpha  89.960416
_cell_angle_beta   89.953433
_cell_angle_gamma 119.90894
loop_
_atom_site_label
_atom_site_type_symbol
_atom_site_fract_x
_atom_site_fract_y
_atom_site_fract_z
_atom_type_partial_charge
Nd0 Nd 0.53704 0.05833 0.06172 0.0
Nd1 Nd 0.45524 1.00313 0.05447 0.0
C2 C 0.59786 0.10517 0.07068 0.0
C3 C 0.63822 0.13286 0.06878 0.0
C4 C 0.66698 0.13165 0.07349 0.0
C5 C 0.70534 0.1574 0.07181 0.0
C6 C 0.71594 0.18527 0.0654 0.0
C7 C 0.68699 0.18604 0.0606 0.0
C8 C 0.64857 0.16007 0.06225 0.0
C9 C 0.54197 0.04923 0.04425 0.0
C10 C 0.49 0.0934 0.05227 0.0
C11 C 0.39325 0.94748 0.04725 0.0
C12 C 0.36465 0.90755 0.04938 0.0
C13 C 0.35379 0.87904 0.04319 0.0
C14 C 0.32615 0.84136 0.04502 0.0
C15 C 0.30852 0.83131 0.05309 0.0
C16 C 0.31964 0.85993 0.0593 0.0
C17 C 0.34746 0.89754 0.05748 0.0
C18 C 0.45457 0.03578 0.06971 0.0
C19 C 0.50599 0.96675 0.06246 0.0
O20 O 0.57222 0.11371 0.06817 0.0
O21 O 0.58725 0.06933 0.06951 0.0
O22 O 0.57109 0.07055 0.04898 0.0
O23 O 0.51289 0.03456 0.04889 0.0
O24 O 0.51329 0.0973 0.05856 0.0
O25 O 0.46862 0.06042 0.04835 0.0
O26 O 0.42762 0.95464 0.04534 0.0
O27 O 0.3933 0.97397 0.05198 0.0
O28 O 0.42922 0.02566 0.06378 0.0
O29 O 0.47831 0.02457 0.06802 0.0
O30 O 0.4731 0.96069 0.05937 0.0
O31 O 0.53401 1.00121 0.06425 0.0
H32 H 0.65975 0.11069 0.07848 0.0
H33 H 0.7267 0.15534 0.07554 0.0
H34 H 0.6939 0.20726 0.05569 0.0
H35 H 0.62701 0.16149 0.05845 0.0
H36 H 0.36651 0.88597 0.03689 0.0
H37 H 0.31808 0.82022 0.04005 0.0
H38 H 0.30711 0.8532 0.06562 0.0
H39 H 0.35541 0.91879 0.06243 0.0
Nd40 Nd 1.00667 0.49878 0.06332 0.0
Nd41 Nd 0.06505 0.47051 0.05606 0.0
C42 C 0.96003 0.51457 0.07184 0.0
C43 C 0.9348 0.53012 0.06975 0.0
C44 C 0.93552 0.55892 0.07481 0.0
C45 C 0.9107 0.57279 0.07315 0.0
C46 C 0.8843 0.55795 0.0664 0.0
C47 C 0.88437 0.52971 0.0612 0.0
C48 C 0.90939 0.51607 0.06283 0.0
C49 C 1.01273 0.50374 0.0456 0.0
C50 C 0.97551 0.4098 0.05845 0.0
C51 C 0.11477 0.45972 0.04737 0.0
C52 C 0.1532 0.46541 0.04928 0.0
C53 C 0.18307 0.4853 0.04347 0.0
C54 C 0.22009 0.49316 0.04537 0.0
C55 C 0.22821 0.4812 0.05313 0.0
C56 C 0.19807 0.46069 0.05889 0.0
C57 C 0.16107 0.45306 0.05701 0.0
C58 C 0.05416 0.45871 0.07359 0.0
C59 C 0.09825 0.56058 0.06175 0.0
O60 O 0.95004 0.48071 0.06885 0.0
O61 O 0.99681 0.53812 0.07141 0.0
O62 O 0.99161 0.51317 0.04998 0.0
O63 O 0.02837 0.49207 0.05073 0.0
O64 O 0.97394 0.43389 0.06389 0.0
O65 O 1.00504 0.41948 0.0533 0.0
O66 O 0.11247 0.49069 0.04673 0.0
O67 O 0.08573 0.43232 0.05144 0.0
O68 O 0.07723 0.45227 0.06912 0.0
O69 O 0.04103 0.4743 0.06877 0.0
O70 O 0.10367 0.53488 0.05778 0.0
O71 O 0.0652 0.55261 0.06521 0.0
H72 H 0.95505 0.57045 0.08013 0.0
H73 H 0.91211 0.59504 0.0772 0.0
H74 H 0.86428 0.5172 0.05601 0.0
H75 H 0.90833 0.49403 0.05876 0.0
H76 H 0.17786 0.49524 0.03748 0.0
H77 H 0.24238 0.50857 0.04073 0.0
H78 H 0.20325 0.45139 0.06497 0.0
H79 H 0.13878 0.43802 0.06167 0.0
Nd80 Nd 0.56601 0.52339 0.06396 0.0
Nd81 Nd 0.59147 0.6106 0.05766 0.0
C82 C 0.55196 0.45939 0.07152 0.0
C83 C 0.5406 0.42084 0.06833 0.0
C84 C 0.52046 0.38896 0.0736 0.0
C85 C 0.51038 0.3525 0.07064 0.0
C86 C 0.52031 0.34721 0.06234 0.0
C87 C 0.53998 0.37929 0.05705 0.0
C88 C 0.54998 0.41562 0.06001 0.0
C89 C 0.56412 0.52825 0.04627 0.0
C90 C 0.65501 0.58502 0.05967 0.0
C91 C 0.60003 0.67158 0.04953 0.0
C92 C 0.59001 0.70136 0.05149 0.0
C93 C 0.55727 0.69284 0.05625 0.0
C94 C 0.54795 0.7211 0.05804 0.0
C95 C 0.57131 0.75872 0.05518 0.0
C96 C 0.60427 0.76716 0.05049 0.0
C97 C 0.61344 0.7388 0.04865 0.0
C98 C 0.60226 0.6083 0.07517 0.0
C99 C 0.50141 0.5501 0.06283 0.0
O100 O 0.5862 0.48627 0.06939 0.0
O101 O 0.52651 0.47019 0.0709 0.0
O102 O 0.55535 0.49725 0.05035 0.0
O103 O 0.57337 0.55424 0.05166 0.0
O104 O 0.63096 0.5574 0.06476 0.0
O105 O 0.64475 0.60529 0.05482 0.0
O106 O 0.57155 0.63722 0.04816 0.0
O107 O 0.62702 0.67169 0.05415 0.0
O108 O 0.60765 0.6382 0.07101 0.0
O109 O 0.58772 0.58057 0.07006 0.0
O110 O 0.5268 0.58268 0.05932 0.0
O111 O 0.51023 0.52493 0.06587 0.0
H112 H 0.51289 0.3923 0.08004 0.0
H113 H 0.49562 0.32859 0.07493 0.0
H114 H 0.54762 0.37636 0.05059 0.0
H115 H 0.56536 0.4397 0.05579 0.0
H116 H 0.53886 0.66429 0.0586 0.0
H117 H 0.52266 0.71354 0.06177 0.0
H118 H 0.62276 0.79562 0.0481 0.0
H119 H 0.63885 0.74614 0.04499 0.0
Nd120 Nd 0.0753 0.53956 0.46435 0.0
Nd121 Nd 1.01236 0.45257 0.47069 0.0
C122 C 0.12511 0.60104 0.45596 0.0
C123 C 0.14865 0.64197 0.45778 0.0
C124 C 0.17313 0.66645 0.45149 0.0
C125 C 0.1975 0.70494 0.45328 0.0
C126 C 0.19793 0.71977 0.46143 0.0
C127 C 0.17289 0.69509 0.4677 0.0
C128 C 0.14846 0.65656 0.46588 0.0
C129 C 0.06228 0.53629 0.48182 0.0
C130 C 0.10312 0.48108 0.47105 0.0
C131 C 0.9596 0.39202 0.47885 0.0
C132 C 0.92107 0.36085 0.47661 0.0
C133 C 0.89842 0.3667 0.47071 0.0
C134 C 0.86175 0.3373 0.46873 0.0
C135 C 0.84694 0.30122 0.47254 0.0
C136 C 0.87003 0.29533 0.47834 0.0
C137 C 0.90666 0.32486 0.48036 0.0
C138 C 0.03124 0.45323 0.4536 0.0
C139 C 0.98367 0.5127 0.46444 0.0
O140 O 0.13426 0.57886 0.46015 0.0
O141 O 0.08824 0.58723 0.45548 0.0
O142 O 0.08544 0.56737 0.47782 0.0
O143 O 0.04793 0.50989 0.47646 0.0
O144 O 0.10892 0.50854 0.46567 0.0
O145 O 0.07002 0.45911 0.47492 0.0
O146 O 0.96348 0.42595 0.47959 0.0
O147 O 0.98818 0.39243 0.47484 0.0
O148 O 1.00536 0.42362 0.45761 0.0
O149 O 0.04269 0.48145 0.45852 0.0
O150 O 0.97532 0.47963 0.46791 0.0
O151 O 1.01849 0.53817 0.46191 0.0
H152 H 0.17391 0.65566 0.44521 0.0
H153 H 0.21676 0.72285 0.44833 0.0
H154 H 0.17213 0.70553 0.47401 0.0
H155 H 0.12977 0.63807 0.47084 0.0
H156 H 0.90902 0.3941 0.46765 0.0
H157 H 0.84509 0.34278 0.46414 0.0
H158 H 0.8595 0.26809 0.48146 0.0
H159 H 0.92366 0.31966 0.48491 0.0
Nd160 Nd 0.5369 0.55802 0.46484 0.0
Nd161 Nd 0.62249 0.59145 0.46953 0.0
C162 C 0.47129 0.53674 0.45704 0.0
C163 C 0.43225 0.52542 0.45977 0.0
C164 C 0.40228 0.5093 0.45389 0.0
C165 C 0.36528 0.49944 0.45638 0.0
C166 C 0.35756 0.50555 0.46482 0.0
C167 C 0.38773 0.52114 0.47072 0.0
C168 C 0.42468 0.53097 0.46822 0.0
C169 C 0.54064 0.54588 0.48209 0.0
C170 C 0.58297 0.64481 0.47224 0.0
C171 C 0.69284 0.61601 0.47503 0.0
C172 C 0.72272 0.60532 0.47353 0.0
C173 C 0.72483 0.57812 0.47871 0.0
C174 C 0.75252 0.56768 0.47724 0.0
C175 C 0.77913 0.58424 0.47057 0.0
C176 C 0.77731 0.61182 0.46545 0.0
C177 C 0.74957 0.62225 0.46692 0.0
C178 C 0.60861 0.5957 0.45229 0.0
C179 C 0.57298 0.5024 0.4647 0.0
O180 O 0.49703 0.57223 0.45836 0.0
O181 O 0.48343 0.51324 0.45893 0.0
O182 O 0.50928 0.53572 0.47802 0.0
O183 O 0.56831 0.56187 0.477 0.0
O184 O 0.55123 0.61743 0.46889 0.0
O185 O 0.61361 0.64156 0.47351 0.0
O186 O 0.66247 0.59188 0.47928 0.0
O187 O 0.68473 0.63178 0.4687 0.0
O188 O 0.631 0.58406 0.45524 0.0
O189 O 0.59213 0.60109 0.4585 0.0
O190 O 0.60091 0.52766 0.46945 0.0
O191 O 0.54989 0.51115 0.4606 0.0
H192 H 0.40757 0.50481 0.44734 0.0
H193 H 0.34293 0.48799 0.45164 0.0
H194 H 0.38283 0.52579 0.47729 0.0
H195 H 0.44741 0.54324 0.47287 0.0
H196 H 0.70501 0.56477 0.48393 0.0
H197 H 0.75333 0.54689 0.48144 0.0
H198 H 0.79696 0.62502 0.4602 0.0
H199 H 0.74907 0.64349 0.46282 0.0
Nd200 Nd 0.51037 1.00229 0.46412 0.0
Nd201 Nd 0.48583 0.06392 0.47124 0.0
C202 C 0.52187 0.95282 0.4556 0.0
C203 C 0.53472 0.92547 0.45771 0.0
C204 C 0.51226 0.88745 0.4552 0.0
C205 C 0.52169 0.86015 0.45772 0.0
C206 C 0.55399 0.87028 0.46278 0.0
C207 C 0.57722 0.90862 0.46508 0.0
C208 C 0.56754 0.93596 0.46261 0.0
C209 C 0.51636 1.00969 0.4818 0.0
C210 C 0.42253 0.97517 0.46948 0.0
C211 C 0.47816 0.11546 0.47992 0.0
C212 C 0.48528 0.15416 0.47792 0.0
C213 C 0.50035 0.18256 0.48419 0.0
C214 C 0.50943 0.21987 0.48225 0.0
C215 C 0.5036 0.22967 0.47398 0.0
C216 C 0.48804 0.20096 0.46774 0.0
C217 C 0.47916 0.16369 0.46968 0.0
C218 C 0.47165 0.05057 0.45383 0.0
C219 C 0.57476 0.09344 0.46499 0.0
O220 O 0.48874 0.94475 0.45874 0.0
O221 O 0.54705 0.9892 0.45593 0.0
O222 O 0.52447 0.98735 0.47751 0.0
O223 O 0.50556 0.02586 0.4766 0.0
O224 O 0.44533 0.97185 0.46394 0.0
O225 O 0.43384 1.00535 0.47447 0.0
O226 O 0.50844 0.11182 0.48044 0.0
O227 O 0.44983 0.08703 0.47594 0.0
O228 O 0.46619 0.07462 0.45817 0.0
O229 O 0.48751 0.03796 0.45871 0.0
O230 O 0.55 0.10079 0.46882 0.0
O231 O 0.56569 0.05938 0.46198 0.0
H232 H 0.48685 0.87867 0.45142 0.0
H233 H 0.5035 0.83096 0.45575 0.0
H234 H 0.60216 0.91725 0.469 0.0
H235 H 0.58526 0.96505 0.4647 0.0
H236 H 0.5055 0.17595 0.49057 0.0
H237 H 0.52091 0.24106 0.48725 0.0
H238 H 0.48359 0.20748 0.46129 0.0
H239 H 0.46803 0.14247 0.46468 0.0
Nd240 Nd 0.63211 0.06643 0.9704 0.0
Nd241 Nd 0.54686 1.00351 0.96322 0.0
C242 C 0.69022 0.11826 0.97927 0.0
C243 C 0.72198 0.15676 0.9773 0.0
C244 C 0.73506 0.18515 0.98356 0.0
C245 C 0.76337 0.22239 0.98164 0.0
C246 C 0.77927 0.23205 0.9734 0.0
C247 C 0.76643 0.20334 0.96717 0.0
C248 C 0.73795 0.16614 0.96909 0.0
C249 C 0.63457 0.05129 0.95313 0.0
C250 C 0.57233 0.09457 0.96365 0.0
C251 C 0.48529 0.95298 0.95503 0.0
C252 C 0.44606 0.92576 0.95781 0.0
C253 C 0.41569 0.91234 0.95204 0.0
C254 C 0.37867 0.88564 0.95464 0.0
C255 C 0.3714 0.87184 0.96308 0.0
C256 C 0.4019 0.8861 0.96888 0.0
C257 C 0.43875 0.9127 0.96628 0.0
C258 C 0.54749 1.01166 0.9809 0.0
C259 C 0.60833 0.97803 0.96891 0.0
O260 O 0.65633 0.11481 0.97947 0.0
O261 O 0.69058 0.08968 0.97546 0.0
O262 O 0.66356 0.07598 0.95752 0.0
O263 O 0.60557 0.0397 0.95785 0.0
O264 O 0.60418 0.10256 0.96767 0.0
O265 O 0.54821 0.06025 0.96063 0.0
O266 O 0.51174 0.94603 0.95778 0.0
O267 O 0.49556 0.98911 0.95543 0.0
O268 O 0.51752 0.98874 0.97659 0.0
O269 O 0.57447 0.02803 0.97573 0.0
O270 O 0.58224 0.97382 0.96328 0.0
O271 O 0.62615 1.00838 0.97389 0.0
H272 H 0.72302 0.17862 0.98993 0.0
H273 H 0.77288 0.24364 0.98662 0.0
H274 H 0.77766 0.20981 0.96073 0.0
H275 H 0.72801 0.14487 0.9641 0.0
H276 H 0.42068 0.92209 0.94548 0.0
H277 H 0.35598 0.87504 0.94998 0.0
H278 H 0.39735 0.87663 0.97546 0.0
H279 H 0.46163 0.9227 0.97087 0.0
Nd280 Nd 1.02154 0.59288 0.96971 0.0
Nd281 Nd 0.0741 0.55972 0.96517 0.0
C282 C 0.97555 0.61747 0.97519 0.0
C283 C 0.93523 0.60624 0.97356 0.0
C284 C 0.91014 0.57112 0.96978 0.0
C285 C 0.87204 0.56069 0.96825 0.0
C286 C 0.85806 0.58519 0.97043 0.0
C287 C 0.88351 0.6205 0.97417 0.0
C288 C 0.92159 0.63085 0.97571 0.0
C289 C 0.03979 0.59662 0.95252 0.0
C290 C 0.98262 0.50426 0.96467 0.0
C291 C 0.1191 0.53851 0.95767 0.0
C292 C 0.14852 0.52914 0.96046 0.0
C293 C 0.1863 0.55803 0.96182 0.0
C294 C 0.21383 0.54922 0.96454 0.0
C295 C 0.20444 0.51128 0.96596 0.0
C296 C 0.16678 0.48231 0.96447 0.0
C297 C 0.13919 0.49114 0.96174 0.0
C298 C 0.0581 0.54758 0.9824 0.0
C299 C 0.11449 0.64709 0.97218 0.0
O300 O 0.98158 0.5931 0.97938 0.0
O301 O 0.99904 0.6328 0.96878 0.0
O302 O 1.00581 0.58547 0.95543 0.0
O303 O 0.0616 0.60214 0.95873 0.0
O304 O 0.97963 0.52917 0.96949 0.0
O305 O 1.01473 0.5132 0.96068 0.0
O306 O 0.12744 0.57399 0.95831 0.0
O307 O 0.08382 0.51464 0.9598 0.0
O308 O 0.07972 0.53794 0.97832 0.0
O309 O 0.04618 0.56358 0.97735 0.0
O310 O 0.11904 0.61942 0.96907 0.0
O311 O 0.0805 0.64372 0.97342 0.0
H312 H 0.92005 0.55175 0.96799 0.0
H313 H 0.85365 0.53354 0.96526 0.0
H314 H 0.87388 0.63998 0.97604 0.0
H315 H 0.94039 0.6581 0.97862 0.0
H316 H 0.19474 0.58758 0.96078 0.0
H317 H 0.2427 0.57225 0.96543 0.0
H318 H 0.15845 0.45281 0.96554 0.0
H319 H 0.11044 0.46815 0.96068 0.0
Nd320 Nd 0.49293 0.45711 0.9697 0.0
Nd321 Nd 0.51892 0.54254 0.96595 0.0
C322 C 0.47272 0.38705 0.97477 0.0
C323 C 0.48367 0.35766 0.97294 0.0
C324 C 0.51111 0.35519 0.97796 0.0
C325 C 0.52107 0.32729 0.97634 0.0
C326 C 0.50377 0.30083 0.96969 0.0
C327 C 0.47605 0.3031 0.96472 0.0
C328 C 0.4661 0.33105 0.96633 0.0
C329 C 0.4807 0.47278 0.95308 0.0
C330 C 0.5819 0.51421 0.9646 0.0
C331 C 0.53177 0.60646 0.95852 0.0
C332 C 0.55478 0.6478 0.95982 0.0
C333 C 0.55568 0.67233 0.95342 0.0
C334 C 0.57207 0.71128 0.955 0.0
C335 C 0.58784 0.72651 0.96303 0.0
C336 C 0.58828 0.70193 0.96932 0.0
C337 C 0.57189 0.66292 0.96772 0.0
C338 C 0.53625 0.53806 0.98273 0.0
C339 C 0.43313 0.48775 0.97348 0.0
O340 O 0.49729 0.41763 0.97886 0.0
O341 O 0.45506 0.39456 0.96876 0.0
O342 O 0.49445 0.45081 0.95499 0.0
O343 O 0.47673 0.48702 0.95984 0.0
O344 O 0.55732 0.48208 0.96836 0.0
O345 O 0.57184 0.53881 0.96185 0.0
O346 O 0.50528 0.58825 0.96423 0.0
O347 O 0.54927 0.58805 0.95622 0.0
O348 O 0.54361 0.56937 0.97894 0.0
O349 O 0.52085 0.51062 0.97754 0.0
O350 O 0.45674 0.51949 0.96948 0.0
O351 O 0.44123 0.4604 0.975 0.0
H352 H 0.52485 0.37475 0.98318 0.0
H353 H 0.54199 0.32612 0.98042 0.0
H354 H 0.46229 0.28354 0.95949 0.0
H355 H 0.44458 0.33177 0.96238 0.0
H356 H 0.54224 0.66114 0.94732 0.0
H357 H 0.57067 0.72912 0.95004 0.0
H358 H 0.60058 0.7127 0.97553 0.0
H359 H 0.57135 0.64438 0.97276 0.0
Nd360 Nd 0.06794 0.61102 0.55643 0.0
Nd361 Nd 1.00769 0.52304 0.56277 0.0
C362 C 0.12074 0.67154 0.54828 0.0
C363 C 0.15976 0.70223 0.55042 0.0
C364 C 0.1886 0.71509 0.54424 0.0
C365 C 0.2261 0.74256 0.54626 0.0
C366 C 0.23569 0.75795 0.55454 0.0
C367 C 0.2066 0.74518 0.56071 0.0
C368 C 0.16914 0.71752 0.55869 0.0
C369 C 0.05092 0.60893 0.57368 0.0
C370 C 0.09972 0.55369 0.56279 0.0
C371 C 0.95966 0.45947 0.57071 0.0
C372 C 0.92913 0.42214 0.56774 0.0
C373 C 0.91189 0.41853 0.55977 0.0
C374 C 0.88374 0.38291 0.55685 0.0
C375 C 0.87236 0.35007 0.56182 0.0
C376 C 0.89001 0.35383 0.56978 0.0
C377 C 0.91812 0.38954 0.5727 0.0
C378 C 1.01876 0.52758 0.54519 0.0
C379 C 0.97567 0.5786 0.55607 0.0
O380 O 0.11648 0.63756 0.54738 0.0
O381 O 0.09237 0.67118 0.5524 0.0
O382 O 0.07531 0.63923 0.56962 0.0
O383 O 0.04005 0.581 0.56869 0.0
O384 O 0.10641 0.58537 0.55889 0.0
O385 O 0.06577 0.52847 0.56579 0.0
O386 O 0.95367 0.48817 0.56978 0.0
O387 O 0.99427 0.46795 0.56861 0.0
O388 O 0.99647 0.49619 0.54918 0.0
O389 O 0.03315 0.55373 0.55062 0.0
O390 O 0.97013 0.54944 0.56086 0.0
O391 O 1.00918 0.6035 0.55268 0.0
H392 H 0.18216 0.7036 0.53783 0.0
H393 H 0.24756 0.75196 0.54131 0.0
H394 H 0.21292 0.75596 0.56718 0.0
H395 H 0.14761 0.70777 0.56364 0.0
H396 H 0.92031 0.44327 0.55578 0.0
H397 H 0.87116 0.38106 0.55066 0.0
H398 H 0.88167 0.32926 0.57382 0.0
H399 H 0.93127 0.3917 0.57885 0.0
Nd400 Nd 0.45567 0.47235 0.55617 0.0
Nd401 Nd 0.54328 0.50387 0.56331 0.0
C402 C 0.39496 0.46225 0.54771 0.0
C403 C 0.36475 0.47133 0.54983 0.0
C404 C 0.37214 0.50108 0.55549 0.0
C405 C 0.34378 0.50996 0.55747 0.0
C406 C 0.30716 0.48908 0.55391 0.0
C407 C 0.29969 0.45888 0.54834 0.0
C408 C 0.32823 0.45018 0.54631 0.0
C409 C 0.45519 0.45723 0.57349 0.0
C410 C 0.50801 0.56132 0.56297 0.0
C411 C 0.60631 0.5216 0.57181 0.0
C412 C 0.64485 0.53024 0.56924 0.0
C413 C 0.6753 0.54779 0.57497 0.0
C414 C 0.71208 0.55678 0.57247 0.0
C415 C 0.71912 0.54842 0.56418 0.0
C416 C 0.68839 0.53107 0.55844 0.0
C417 C 0.6517 0.52208 0.56095 0.0
C418 C 0.54157 0.5114 0.54569 0.0
C419 C 0.49255 0.41638 0.55612 0.0
O420 O 0.42906 0.49148 0.5465 0.0
O421 O 0.3954 0.43528 0.55222 0.0
O422 O 0.42534 0.45019 0.56909 0.0
O423 O 0.48404 0.4753 0.56876 0.0
O424 O 0.47809 0.53577 0.55866 0.0
O425 O 0.53359 0.55394 0.56635 0.0
O426 O 0.57889 0.48652 0.57065 0.0
O427 O 0.59668 0.5467 0.56955 0.0
O428 O 0.57258 0.522 0.54997 0.0
O429 O 0.51436 0.498 0.55088 0.0
O430 O 0.52024 0.44057 0.56116 0.0
O431 O 0.46687 0.4234 0.55255 0.0
H432 H 0.39992 0.51752 0.55839 0.0
H433 H 0.35046 0.53299 0.56187 0.0
H434 H 0.27195 0.44238 0.54543 0.0
H435 H 0.32182 0.42702 0.54196 0.0
H436 H 0.67063 0.55446 0.58139 0.0
H437 H 0.73486 0.56966 0.5771 0.0
H438 H 0.6927 0.52468 0.55197 0.0
H439 H 0.62865 0.5088 0.5564 0.0
Nd440 Nd 0.59625 1.00448 0.55597 0.0
Nd441 Nd 0.56414 0.05577 0.56283 0.0
C442 C 0.6066 0.95023 0.54929 0.0
C443 C 0.59465 0.91015 0.55144 0.0
C444 C 0.57856 0.88192 0.54515 0.0
C445 C 0.56785 0.8441 0.54703 0.0
C446 C 0.57321 0.83363 0.55526 0.0
C447 C 0.58912 0.86196 0.56158 0.0
C448 C 0.59956 0.89969 0.5597 0.0
C449 C 0.62401 0.03605 0.57164 0.0
C450 C 0.50743 0.96406 0.56335 0.0
C451 C 0.54754 0.10179 0.57138 0.0
C452 C 0.53821 0.13175 0.56909 0.0
C453 C 0.56454 0.17011 0.57071 0.0
C454 C 0.55658 0.19872 0.56837 0.0
C455 C 0.52193 0.18968 0.5644 0.0
C456 C 0.49528 0.15123 0.56292 0.0
C457 C 0.50332 0.12262 0.56522 0.0
C458 C 0.55282 0.0468 0.54529 0.0
C459 C 0.64775 0.09491 0.55371 0.0
O460 O 0.58019 0.95734 0.54665 0.0
O461 O 0.63069 0.97634 0.55447 0.0
O462 O 0.64259 0.02905 0.56591 0.0
O463 O 0.58936 0.023 0.56944 0.0
O464 O 0.53504 0.95999 0.55995 0.0
O465 O 0.5125 0.99752 0.56564 0.0
O466 O 0.58253 0.10942 0.57 0.0
O467 O 0.52233 0.06668 0.56947 0.0
O468 O 0.54241 0.06641 0.54991 0.0
O469 O 0.56805 0.03338 0.55005 0.0
O470 O 0.62645 0.09748 0.55975 0.0
O471 O 0.63898 0.06221 0.54997 0.0
H472 H 0.5745 0.88919 0.53873 0.0
H473 H 0.55604 0.82317 0.54199 0.0
H474 H 0.59318 0.8549 0.56801 0.0
H475 H 0.61157 0.92068 0.56473 0.0
H476 H 0.59147 0.17805 0.57375 0.0
H477 H 0.57751 0.22797 0.56974 0.0
H478 H 0.46846 0.14325 0.55983 0.0
H479 H 0.48225 0.09336 0.56389 0.0
Nd480 Nd 0.21364 0.40054 0.39706 0.0
Nd481 Nd 0.12684 0.3381 0.39053 0.0
C482 C 0.27536 0.45025 0.40535 0.0
C483 C 0.31647 0.47327 0.40356 0.0
C484 C 0.34085 0.49832 0.40978 0.0
C485 C 0.37942 0.52256 0.40797 0.0
C486 C 0.39449 0.52233 0.39988 0.0
C487 C 0.36995 0.49665 0.3937 0.0
C488 C 0.33132 0.47234 0.39553 0.0
C489 C 0.21015 0.39157 0.37941 0.0
C490 C 0.15182 0.42681 0.39225 0.0
C491 C 0.06671 0.28629 0.38212 0.0
C492 C 0.03475 0.24746 0.38398 0.0
C493 C 1.02542 0.21817 0.37807 0.0
C494 C 0.99649 0.18095 0.37982 0.0
C495 C 0.97598 0.17202 0.38754 0.0
C496 C 0.98508 0.20155 0.39342 0.0
C497 C 1.01423 0.23878 0.39168 0.0
C498 C 0.12748 0.35268 0.40791 0.0
C499 C 0.18825 0.30964 0.39595 0.0
O500 O 0.25364 0.45956 0.401 0.0
O501 O 0.26097 0.41335 0.40603 0.0
O502 O 0.24106 0.41427 0.38349 0.0
O503 O 0.18383 0.37585 0.38479 0.0
O504 O 0.17839 0.43026 0.39765 0.0
O505 O 0.13275 0.39652 0.3873 0.0
O506 O 0.10051 0.28973 0.38146 0.0
O507 O 0.06724 0.31481 0.38618 0.0
O508 O 0.09789 0.32777 0.40374 0.0
O509 O 0.15566 0.36548 0.40291 0.0
O510 O 0.15488 0.30159 0.39271 0.0
O511 O 0.21389 0.3441 0.39862 0.0
H512 H 0.32987 0.49972 0.41599 0.0
H513 H 0.39719 0.54229 0.41285 0.0
H514 H 0.38055 0.49535 0.38744 0.0
H515 H 0.31293 0.45323 0.39063 0.0
H516 H 0.04078 0.22403 0.37209 0.0
H517 H 0.99003 0.15916 0.37508 0.0
H518 H 0.97025 0.19575 0.39947 0.0
H519 H 1.02097 0.26065 0.39642 0.0
Nd520 Nd 0.67865 0.83451 0.39634 0.0
Nd521 Nd 0.7396 0.80932 0.38907 0.0
C522 C 0.62953 0.84673 0.40487 0.0
C523 C 0.6022 0.85982 0.4028 0.0
C524 C 0.56325 0.83516 0.40423 0.0
C525 C 0.53643 0.84548 0.40183 0.0
C526 C 0.54788 0.88091 0.398 0.0
C527 C 0.58699 0.90618 0.3968 0.0
C528 C 0.6139 0.89567 0.39913 0.0
C529 C 0.68518 0.83994 0.37861 0.0
C530 C 0.65074 0.74634 0.39118 0.0
C531 C 0.79128 0.80167 0.3804 0.0
C532 C 0.83088 0.81158 0.38241 0.0
C533 C 0.85334 0.84205 0.38789 0.0
C534 C 0.89069 0.85132 0.38984 0.0
C535 C 0.90642 0.83011 0.38643 0.0
C536 C 0.88365 0.79928 0.38103 0.0
C537 C 0.8463 0.79019 0.37903 0.0
C538 C 0.72638 0.79466 0.40649 0.0
C539 C 0.77005 0.89849 0.39523 0.0
O540 O 0.62121 0.81346 0.4018 0.0
O541 O 0.66603 0.87163 0.40449 0.0
O542 O 0.66321 0.84838 0.38296 0.0
O543 O 0.70145 0.82914 0.38378 0.0
O544 O 0.64794 0.7695 0.39669 0.0
O545 O 0.68065 0.75726 0.38609 0.0
O546 O 0.78534 0.83035 0.37936 0.0
O547 O 0.76446 0.77397 0.38488 0.0
O548 O 0.75037 0.78934 0.40206 0.0
O549 O 0.71429 0.81133 0.40169 0.0
O550 O 0.77695 0.87345 0.3914 0.0
O551 O 0.73615 0.88967 0.39834 0.0
H552 H 0.55343 0.80749 0.40709 0.0
H553 H 0.50659 0.82559 0.40298 0.0
H554 H 0.5967 0.93361 0.39383 0.0
H555 H 0.64372 0.91534 0.39792 0.0
H556 H 0.84196 0.85868 0.39069 0.0
H557 H 0.9071 0.87484 0.39412 0.0
H558 H 0.89489 0.78252 0.37823 0.0
H559 H 0.82947 0.76646 0.37483 0.0
Nd560 Nd 0.23976 0.86431 0.39637 0.0
Nd561 Nd 0.2676 0.95156 0.3895 0.0
C562 C 0.22383 0.802 0.40494 0.0
C563 C 0.20967 0.76154 0.40284 0.0
C564 C 0.17862 0.73302 0.40734 0.0
C565 C 0.16519 0.6946 0.40555 0.0
C566 C 0.18268 0.68372 0.39925 0.0
C567 C 0.21344 0.71247 0.39465 0.0
C568 C 0.2267 0.7509 0.3964 0.0
C569 C 0.23193 0.86624 0.37881 0.0
C570 C 0.32724 0.91929 0.38977 0.0
C571 C 0.27749 1.01256 0.38118 0.0
C572 C 0.26979 0.04366 0.38334 0.0
C573 C 0.29085 0.07951 0.3795 0.0
C574 C 0.28344 0.10892 0.3815 0.0
C575 C 0.25466 0.10306 0.38737 0.0
C576 C 0.23389 0.0671 0.39127 0.0
C577 C 0.24146 0.03783 0.3893 0.0
C578 C 0.28202 0.951 0.40684 0.0
C579 C 0.17815 0.89487 0.39565 0.0
O580 O 0.25818 0.82673 0.40235 0.0
O581 O 0.19959 0.81424 0.4041 0.0
O582 O 0.22288 0.83541 0.38305 0.0
O583 O 0.24448 0.89341 0.38399 0.0
O584 O 0.30412 0.89194 0.39502 0.0
O585 O 0.31811 0.94275 0.38585 0.0
O586 O 0.24754 0.97877 0.3802 0.0
O587 O 0.30477 1.01166 0.38547 0.0
O588 O 0.28798 0.98091 0.40261 0.0
O589 O 0.26553 0.92277 0.40194 0.0
O590 O 0.20346 0.92649 0.39177 0.0
O591 O 0.18653 0.86956 0.39877 0.0
H592 H 0.1648 0.74047 0.41228 0.0
H593 H 0.14103 0.67342 0.40913 0.0
H594 H 0.228 0.70536 0.38983 0.0
H595 H 0.25055 0.77224 0.39277 0.0
H596 H 0.3129 0.08471 0.37491 0.0
H597 H 0.29978 0.13605 0.37831 0.0
H598 H 0.21194 0.06162 0.39591 0.0
H599 H 0.22507 1.01055 0.39243 0.0
Nd600 Nd 0.74309 0.86705 0.79692 0.0
Nd601 Nd 0.67953 0.78113 0.80373 0.0
C602 C 0.79443 0.92864 0.78886 0.0
C603 C 0.8217 0.96841 0.79129 0.0
C604 C 0.85979 0.98456 0.78873 0.0
C605 C 0.88701 0.02075 0.79155 0.0
C606 C 0.87677 0.04181 0.79697 0.0
C607 C 0.83835 0.02611 0.79933 0.0
C608 C 0.81109 0.98962 0.79657 0.0
C609 C 0.73489 0.86445 0.8146 0.0
C610 C 0.76811 0.80447 0.80201 0.0
C611 C 0.62609 0.72258 0.81227 0.0
C612 C 0.58571 0.69397 0.81052 0.0
C613 C 0.56077 0.70458 0.80682 0.0
C614 C 0.5228 0.67735 0.80513 0.0
C615 C 0.50884 0.63871 0.80702 0.0
C616 C 0.53398 0.62815 0.81067 0.0
C617 C 0.57191 0.65548 0.81242 0.0
C618 C 0.69425 0.78043 0.78637 0.0
C619 C 0.65217 0.84252 0.79762 0.0
O620 O 0.80163 0.90296 0.79199 0.0
O621 O 0.75804 0.91777 0.78891 0.0
O622 O 0.75793 0.89497 0.81043 0.0
O623 O 0.71848 0.8381 0.80929 0.0
O624 O 0.77223 0.83119 0.79657 0.0
O625 O 0.73748 0.78567 0.80692 0.0
O626 O 0.6338 0.7577 0.81345 0.0
O627 O 0.65188 0.72035 0.80765 0.0
O628 O 0.66911 0.7513 0.79065 0.0
O629 O 0.70698 0.80897 0.79125 0.0
O630 O 0.64369 0.80958 0.80117 0.0
O631 O 0.68681 0.86736 0.79485 0.0
H632 H 0.86869 0.96878 0.78468 0.0
H633 H 0.91624 0.0322 0.7895 0.0
H634 H 0.82959 0.0415 0.80354 0.0
H635 H 0.78195 0.97772 0.79872 0.0
H636 H 0.57063 0.73397 0.80519 0.0
H637 H 0.50453 0.68652 0.80221 0.0
H638 H 0.5242 0.59876 0.81229 0.0
H639 H 0.59052 0.64651 0.81525 0.0
Nd640 Nd 0.2072 0.89866 0.79765 0.0
Nd641 Nd 0.29425 0.92377 0.80426 0.0
C642 C 0.14542 0.88647 0.7893 0.0
C643 C 0.10415 0.86802 0.79097 0.0
C644 C 0.07982 0.86794 0.78463 0.0
C645 C 0.04106 0.85327 0.78631 0.0
C646 C 1.02572 0.83837 0.79441 0.0
C647 C 0.05023 0.83799 0.80073 0.0
C648 C 0.08904 0.85265 0.79902 0.0
C649 C 0.20999 0.89108 0.81523 0.0
C650 C 0.26717 0.9863 0.80308 0.0
C651 C 0.355 0.93211 0.81245 0.0
C652 C 0.38564 0.92373 0.81022 0.0
C653 C 0.37908 0.895 0.80433 0.0
C654 C 0.40791 0.8868 0.80231 0.0
C655 C 0.44418 0.9073 0.80608 0.0
C656 C 0.45079 0.9365 0.81188 0.0
C657 C 0.42181 0.94455 0.81393 0.0
C658 C 0.29373 0.93899 0.78695 0.0
C659 C 0.23451 0.83433 0.79849 0.0
O660 O 0.16669 0.91725 0.79373 0.0
O661 O 0.16025 0.8643 0.78858 0.0
O662 O 0.17911 0.88278 0.81111 0.0
O663 O 0.23672 0.90291 0.80993 0.0
O664 O 0.24091 0.96366 0.79758 0.0
O665 O 0.28699 0.97517 0.80783 0.0
O666 O 0.32088 0.9026 0.81345 0.0
O667 O 0.35466 0.95981 0.80822 0.0
O668 O 0.3234 0.94378 0.79111 0.0
O669 O 0.26548 0.9229 0.7919 0.0
O670 O 0.26748 0.85968 0.80185 0.0
O671 O 0.20856 0.84286 0.79581 0.0
H672 H 0.09097 0.87999 0.7784 0.0
H673 H 1.02335 0.85467 0.78133 0.0
H674 H 0.03945 0.82641 0.807 0.0
H675 H 0.10737 0.8525 0.80402 0.0
H676 H 0.35156 0.87878 0.8013 0.0
H677 H 0.40184 0.86454 0.79773 0.0
H678 H 0.47816 0.95267 0.81497 0.0
H679 H 0.42759 0.96691 0.81847 0.0
Nd680 Nd 0.18207 0.33994 0.79834 0.0
Nd681 Nd 0.14637 0.38916 0.80421 0.0
C682 C 0.20099 0.29491 0.79004 0.0
C683 C 0.21005 0.26482 0.79214 0.0
C684 C 0.21015 0.24109 0.78568 0.0
C685 C 0.22043 0.21361 0.78746 0.0
C686 C 0.23098 0.2093 0.79578 0.0
C687 C 0.23018 0.23281 0.80228 0.0
C688 C 0.21983 0.26029 0.80048 0.0
C689 C 0.1931 0.35222 0.81579 0.0
C690 C 0.09661 0.29856 0.80706 0.0
C691 C 0.12881 0.44157 0.80881 0.0
C692 C 0.14497 0.48328 0.80897 0.0
C693 C 0.12368 0.4983 0.81261 0.0
C694 C 0.13472 0.5367 0.81151 0.0
C695 C 0.16735 0.56107 0.80672 0.0
C696 C 0.18955 0.54622 0.80339 0.0
C697 C 0.17838 0.50769 0.80447 0.0
C698 C 0.12044 0.35251 0.78888 0.0
C699 C 0.23723 0.43099 0.79817 0.0
O700 O 0.16569 0.28679 0.79113 0.0
O701 O 0.22566 0.32926 0.79257 0.0
O702 O 0.20478 0.33299 0.81141 0.0
O703 O 0.17687 0.36405 0.81086 0.0
O704 O 0.12064 0.29605 0.80176 0.0
O705 O 0.10218 0.33158 0.81006 0.0
O706 O 0.14145 0.42581 0.81423 0.0
O707 O 0.12327 0.42671 0.8012 0.0
O708 O 0.09957 0.35588 0.79465 0.0
O709 O 0.15531 0.36958 0.7911 0.0
O710 O 0.21003 0.43377 0.8022 0.0
O711 O 0.23137 0.39856 0.79494 0.0
H712 H 0.20257 0.24402 0.77921 0.0
H713 H 0.21993 0.19559 0.78232 0.0
H714 H 0.23838 0.23061 0.80874 0.0
H715 H 0.21998 0.27834 0.80558 0.0
H716 H 0.09761 0.47995 0.81603 0.0
H717 H 0.11727 0.54717 0.8143 0.0
H718 H 0.21468 0.56393 0.79962 0.0
H719 H 0.19497 0.49663 0.80149 0.0
Nd720 Nd 0.28645 0.38615 0.30311 0.0
Nd721 Nd 0.2006 0.33352 0.29879 0.0
C722 C 0.35717 0.43189 0.3084 0.0
C723 C 0.38605 0.47207 0.30667 0.0
C724 C 0.37568 0.49707 0.30294 0.0
C725 C 0.40316 0.53503 0.30128 0.0
C726 C 0.44178 0.5489 0.30327 0.0
C727 C 0.45198 0.52355 0.30696 0.0
C728 C 0.42443 0.48563 0.30864 0.0
C729 C 0.27163 0.36724 0.28596 0.0
C730 C 0.23627 0.42518 0.29833 0.0
C731 C 0.13431 0.28829 0.29138 0.0
C732 C 0.09544 0.25854 0.29403 0.0
C733 C 0.08524 0.21998 0.29396 0.0
C734 C 0.04869 0.19181 0.2964 0.0
C735 C 1.02119 0.20136 0.29893 0.0
C736 C 0.03123 0.23991 0.2989 0.0
C737 C 0.06787 0.26815 0.29648 0.0
C738 C 0.20561 0.34965 0.31603 0.0
C739 C 0.24799 0.29343 0.30585 0.0
O740 O 0.327 0.42609 0.31268 0.0
O741 O 0.34874 0.40827 0.30203 0.0
O742 O 0.29393 0.40139 0.28879 0.0
O743 O 0.25543 0.34565 0.29222 0.0
O744 O 0.26458 0.42816 0.303 0.0
O745 O 0.21281 0.39303 0.29441 0.0
O746 O 0.16154 0.28001 0.29204 0.0
O747 O 0.14548 0.32345 0.29353 0.0
O748 O 0.17401 0.32805 0.31209 0.0
O749 O 0.23293 0.36142 0.31083 0.0
O750 O 0.21564 0.28872 0.30276 0.0
O751 O 0.27854 0.32743 0.30697 0.0
H752 H 0.34627 0.48721 0.30129 0.0
H753 H 0.39417 0.55337 0.29833 0.0
H754 H 0.48124 0.53315 0.30869 0.0
H755 H 0.43312 0.46687 0.31151 0.0
H756 H 0.10548 0.21144 0.29199 0.0
H757 H 0.04183 0.16241 0.29616 0.0
H758 H 1.0109 0.24836 0.30085 0.0
H759 H 0.07457 0.29752 0.29653 0.0
Nd760 Nd 0.67489 0.91282 0.30461 0.0
Nd761 Nd 0.73516 0.88673 0.29753 0.0
C762 C 0.62217 0.9188 0.31327 0.0
C763 C 0.58327 0.91098 0.31122 0.0
C764 C 0.55475 0.89569 0.31748 0.0
C765 C 0.51718 0.8856 0.31549 0.0
C766 C 0.50726 0.89064 0.30717 0.0
C767 C 0.53608 0.90641 0.30093 0.0
C768 C 0.57361 0.91628 0.30292 0.0
C769 C 0.69248 0.93279 0.28753 0.0
C770 C 0.64318 0.82524 0.29724 0.0
C771 C 0.78398 0.87323 0.28926 0.0
C772 C 0.81487 0.86664 0.29215 0.0
C773 C 0.82605 0.84528 0.28714 0.0
C774 C 0.85432 0.8377 0.29003 0.0
C775 C 0.87196 0.85139 0.29799 0.0
C776 C 0.86044 0.87266 0.303 0.0
C777 C 0.83214 0.8801 0.30012 0.0
C778 C 0.72422 0.87642 0.31508 0.0
C779 C 0.767 0.97218 0.30545 0.0
O780 O 0.62641 0.88891 0.31368 0.0
O781 O 0.65054 0.94765 0.30938 0.0
O782 O 0.66779 0.93724 0.29189 0.0
O783 O 0.70335 0.91429 0.29211 0.0
O784 O 0.63642 0.84943 0.30149 0.0
O785 O 0.67721 0.83461 0.29416 0.0
O786 O 0.78925 0.90751 0.29042 0.0
O787 O 0.74948 0.84652 0.29123 0.0
O788 O 0.7466 0.86832 0.3108 0.0
O789 O 0.7096 0.88912 0.30992 0.0
O790 O 0.7728 0.94996 0.30023 0.0
O791 O 0.73334 0.96268 0.30887 0.0
H792 H 0.56146 0.89109 0.3239 0.0
H793 H 0.4959 0.87399 0.32048 0.0
H794 H 0.52948 0.91027 0.29445 0.0
H795 H 0.59494 0.92749 0.29793 0.0
H796 H 0.81287 0.8344 0.281 0.0
H797 H 0.86276 0.82162 0.28597 0.0
H798 H 0.87299 0.88322 0.3092 0.0
H799 H 0.82358 0.8962 0.30415 0.0
Nd800 Nd 0.14827 0.78053 0.30504 0.0
Nd801 Nd 0.18063 0.86388 0.29794 0.0
C802 C 0.13796 0.71634 0.31195 0.0
C803 C 0.14948 0.6878 0.30986 0.0
C804 C 0.16443 0.67474 0.31624 0.0
C805 C 0.17483 0.64734 0.31439 0.0
C806 C 0.17034 0.63214 0.30612 0.0
C807 C 0.15554 0.64545 0.29973 0.0
C808 C 0.1454 0.67305 0.30156 0.0
C809 C 0.12229 0.78406 0.28913 0.0
C810 C 0.23702 0.82835 0.29761 0.0
C811 C 0.19757 0.92639 0.28933 0.0
C812 C 0.20515 0.96512 0.29163 0.0
C813 C 0.24268 0.99487 0.29287 0.0
C814 C 0.25 0.031 0.29538 0.0
C815 C 0.22001 0.03848 0.29666 0.0
C816 C 0.18251 1.00889 0.29522 0.0
C817 C 0.17518 0.97272 0.29274 0.0
C818 C 0.19118 0.86642 0.31552 0.0
C819 C 0.09641 0.81964 0.3068 0.0
O820 O 0.16475 0.74989 0.31442 0.0
O821 O 0.11356 0.71823 0.30683 0.0
O822 O 0.10321 0.75836 0.2948 0.0
O823 O 0.15654 0.80578 0.29153 0.0
O824 O 0.20973 0.79729 0.30126 0.0
O825 O 0.2317 0.85632 0.29505 0.0
O826 O 0.16265 0.8981 0.29022 0.0
O827 O 0.22306 0.91749 0.29174 0.0
O828 O 0.2018 0.89634 0.31085 0.0
O829 O 0.17611 0.83782 0.31077 0.0
O830 O 0.11812 0.84341 0.30078 0.0
O831 O 0.10496 0.79577 0.31068 0.0
H832 H 0.16784 0.6856 0.32268 0.0
H833 H 0.18577 0.63754 0.3195 0.0
H834 H 0.15218 0.63485 0.29326 0.0
H835 H 0.1343 0.68277 0.29646 0.0
H836 H 0.2665 0.99015 0.29201 0.0
H837 H 0.27921 0.05286 0.29648 0.0
H838 H 0.15868 1.01369 0.29595 0.0
H839 H 0.14595 0.95068 0.29174 0.0
Nd840 Nd 0.73249 0.94112 0.89126 0.0
Nd841 Nd 0.67695 0.85556 0.89521 0.0
C842 C 0.78078 1.01174 0.88622 0.0
C843 C 0.82114 0.04009 0.88804 0.0
C844 C 0.83472 0.07883 0.88653 0.0
C845 C 0.87272 0.10599 0.88828 0.0
C846 C 0.89822 0.09511 0.89159 0.0
C847 C 0.88439 0.05611 0.89309 0.0
C848 C 0.84631 0.02897 0.89137 0.0
C849 C 0.7117 0.92548 0.90833 0.0
C850 C 0.76805 0.8877 0.89598 0.0
C851 C 0.62945 0.78917 0.90234 0.0
C852 C 0.6007 0.75123 0.89922 0.0
C853 C 0.58976 0.71909 0.90435 0.0
C854 C 0.56203 0.68303 0.90152 0.0
C855 C 0.54459 0.67838 0.8935 0.0
C856 C 0.55612 0.71072 0.88834 0.0
C857 C 0.58395 0.74674 0.89115 0.0
C858 C 0.69448 0.86113 0.87804 0.0
C859 C 0.64023 0.90596 0.88816 0.0
O860 O 0.7745 0.98151 0.88193 0.0
O861 O 0.75664 1.00365 0.89248 0.0
O862 O 0.74634 0.94703 0.90563 0.0
O863 O 0.69048 0.91033 0.90197 0.0
O864 O 0.77287 0.91718 0.89149 0.0
O865 O 0.73516 0.8647 0.8997 0.0
O866 O 0.62161 0.81651 0.90132 0.0
O867 O 0.66494 0.79993 0.90059 0.0
O868 O 0.67176 0.82963 0.8819 0.0
O869 O 0.70682 0.88827 0.8833 0.0
O870 O 0.63407 0.87303 0.89118 0.0
O871 O 0.67489 0.93584 0.8872 0.0
H872 H 0.8159 0.08813 0.88398 0.0
H873 H 0.88223 0.13555 0.88692 0.0
H874 H 0.90284 0.04653 0.89573 0.0
H875 H 0.83649 0.99928 0.89265 0.0
H876 H 0.60239 0.72194 0.91058 0.0
H877 H 0.55358 0.65891 0.90572 0.0
H878 H 0.54369 0.70819 0.88209 0.0
H879 H 0.59222 0.77113 0.88706 0.0
Nd880 Nd 0.12217 0.80475 0.88864 0.0
Nd881 Nd 0.20978 0.83685 0.89595 0.0
C882 C 0.06148 0.79451 0.88016 0.0
C883 C 0.03135 0.80366 0.88232 0.0
C884 C 0.9946 0.78226 0.87893 0.0
C885 C 0.96615 0.79102 0.88103 0.0
C886 C 0.97398 0.82155 0.88652 0.0
C887 C 1.01081 0.84265 0.88995 0.0
C888 C 0.03905 0.83369 0.88792 0.0
C889 C 0.12163 0.79043 0.90599 0.0
C890 C 0.17353 0.89339 0.89566 0.0
C891 C 0.27271 0.85468 0.90448 0.0
C892 C 0.312 0.86374 0.90217 0.0
C893 C 0.32153 0.83489 0.90173 0.0
C894 C 0.35814 0.84322 0.89931 0.0
C895 C 0.38633 0.88066 0.89729 0.0
C896 C 0.37701 0.90964 0.89789 0.0
C897 C 0.34037 0.90131 0.90031 0.0
C898 C 0.20859 0.84501 0.87835 0.0
C899 C 0.15935 0.74909 0.88883 0.0
O900 O 0.09558 0.82371 0.87893 0.0
O901 O 0.06195 0.76755 0.88468 0.0
O902 O 0.0917 0.78279 0.90156 0.0
O903 O 0.15041 0.80838 0.90125 0.0
O904 O 0.14415 0.86796 0.8912 0.0
O905 O 0.19916 0.88622 0.8991 0.0
O906 O 0.24527 0.81953 0.90336 0.0
O907 O 0.26269 0.87967 0.90232 0.0
O908 O 0.23952 0.85571 0.88267 0.0
O909 O 0.18117 0.83098 0.88348 0.0
O910 O 0.18695 0.77354 0.89386 0.0
O911 O 0.13363 0.75584 0.88518 0.0
H912 H 0.98793 0.75886 0.87464 0.0
H913 H 0.93821 0.77433 0.87822 0.0
H914 H 1.01776 0.86594 0.8943 0.0
H915 H 0.06699 0.85029 0.89074 0.0
H916 H 0.30063 0.80573 0.90323 0.0
H917 H 0.36442 0.82025 0.89911 0.0
H918 H 0.39784 0.93874 0.89634 0.0
H919 H 0.33421 0.92435 0.90064 0.0
Nd920 Nd 0.26052 0.33611 0.8899 0.0
Nd921 Nd 0.23272 0.39118 0.89703 0.0
C922 C 0.26767 0.28069 0.88281 0.0
C923 C 0.25548 0.24061 0.8849 0.0
C924 C 0.24204 0.21309 0.87844 0.0
C925 C 0.23153 0.17531 0.88029 0.0
C926 C 0.23447 0.16428 0.88865 0.0
C927 C 0.2476 0.19189 0.89513 0.0
C928 C 0.25779 0.22957 0.89329 0.0
C929 C 0.29417 0.37056 0.90494 0.0
C930 C 0.1735 0.29942 0.89813 0.0
C931 C 0.21904 0.43918 0.90561 0.0
C932 C 0.21154 0.46971 0.90294 0.0
C933 C 0.19175 0.48135 0.90836 0.0
C934 C 0.18305 0.50911 0.90569 0.0
C935 C 0.19398 0.52575 0.89754 0.0
C936 C 0.2137 0.51377 0.89213 0.0
C937 C 0.22232 0.48602 0.8948 0.0
C938 C 0.2191 0.38074 0.87955 0.0
C939 C 0.31399 0.42653 0.88699 0.0
O940 O 0.24113 0.28839 0.8806 0.0
O941 O 0.29319 0.30653 0.88781 0.0
O942 O 0.30956 0.3603 0.89907 0.0
O943 O 0.25904 0.35871 0.90333 0.0
O944 O 0.2 0.29357 0.89472 0.0
O945 O 0.18009 0.33375 0.90016 0.0
O946 O 0.25342 0.44502 0.90421 0.0
O947 O 0.19255 0.40471 0.90363 0.0
O948 O 0.21055 0.40193 0.88414 0.0
O949 O 0.23358 0.36674 0.88435 0.0
O950 O 0.29444 0.43112 0.89316 0.0
O951 O 0.30333 0.39293 0.88346 0.0
H952 H 0.24002 0.2209 0.87193 0.0
H953 H 0.22186 0.15488 0.87513 0.0
H954 H 0.24971 0.18431 0.90165 0.0
H955 H 0.26771 0.2501 0.89843 0.0
H956 H 0.18292 0.46888 0.91465 0.0
H957 H 0.16826 0.51794 0.91007 0.0
H958 H 0.22211 0.52551 0.88578 0.0
H959 H 0.2372 0.47711 0.89047 0.0
Nd960 Nd 0.87313 0.722 0.72577 0.0
Nd961 Nd 0.79162 0.67397 0.72392 0.0
C962 C 0.94559 0.77257 0.72745 0.0
C963 C 0.98613 0.80194 0.72798 0.0
C964 C 1.01 0.79995 0.73419 0.0
C965 C 0.04917 0.82581 0.73405 0.0
C966 C 0.0651 0.85413 0.72771 0.0
C967 C 0.04087 0.8565 0.72165 0.0
C968 C 1.00191 0.83068 0.72177 0.0
C969 C 0.85325 0.68658 0.71003 0.0
C970 C 0.82507 0.76454 0.7213 0.0
C971 C 0.71915 0.62849 0.71986 0.0
C972 C 0.69027 0.58917 0.72209 0.0
C973 C 0.70067 0.56547 0.72642 0.0
C974 C 0.67347 0.52769 0.72823 0.0
C975 C 0.63527 0.51284 0.72576 0.0
C976 C 0.62493 0.53702 0.72154 0.0
C977 C 0.65221 0.57479 0.71971 0.0
C978 C 0.81102 0.69719 0.7407 0.0
C979 C 0.84131 0.6344 0.72902 0.0
O980 O 0.92628 0.74937 0.7337 0.0
O981 O 0.92595 0.76923 0.72059 0.0
O982 O 0.87966 0.68792 0.71486 0.0
O983 O 0.83672 0.7019 0.71375 0.0
O984 O 0.85762 0.7683 0.7239 0.0
O985 O 0.79463 0.73067 0.72031 0.0
O986 O 0.7476 0.63218 0.71522 0.0
O987 O 0.73012 0.65343 0.72601 0.0
O988 O 0.78919 0.66221 0.73833 0.0
O989 O 0.8255 0.71765 0.73418 0.0
O990 O 0.81249 0.63045 0.72437 0.0
O991 O 0.86539 0.66793 0.73222 0.0
H992 H 0.99858 0.77783 0.739 0.0
H993 H 0.06705 0.82308 0.7388 0.0
H994 H 0.05194 0.87851 0.71682 0.0
H995 H 0.9842 0.83303 0.71692 0.0
H996 H 0.72992 0.57611 0.72835 0.0
H997 H 0.68238 0.51012 0.73159 0.0
H998 H 0.59593 0.52649 0.71946 0.0
H999 H 0.64366 0.59264 0.71635 0.0
Nd1000 Nd 0.343 0.17261 0.73064 0.0
Nd1001 Nd 0.40584 0.1499 0.72355 0.0
C1002 C 0.29279 0.18428 0.7388 0.0
C1003 C 0.26548 0.19599 0.73596 0.0
C1004 C 0.25247 0.21372 0.74163 0.0
C1005 C 0.22596 0.22414 0.73894 0.0
C1006 C 0.21199 0.21691 0.73052 0.0
C1007 C 0.22579 0.19982 0.72483 0.0
C1008 C 0.2522 0.18947 0.72752 0.0
C1009 C 0.35095 0.17911 0.71292 0.0
C1010 C 0.31775 0.08524 0.72559 0.0
C1011 C 0.45691 0.14258 0.71457 0.0
C1012 C 0.49558 0.14946 0.71641 0.0
C1013 C 0.52337 0.1636 0.71 0.0
C1014 C 0.56082 0.17279 0.7118 0.0
C1015 C 0.57126 0.16799 0.72008 0.0
C1016 C 0.54313 0.15322 0.72647 0.0
C1017 C 0.50573 0.14424 0.72467 0.0
C1018 C 0.39246 0.13465 0.74092 0.0
C1019 C 0.43397 0.23729 0.7304 0.0
O1020 O 0.28576 0.15067 0.73623 0.0
O1021 O 0.32889 0.21012 0.73825 0.0
O1022 O 0.32817 0.18662 0.71718 0.0
O1023 O 0.36734 0.16883 0.71816 0.0
O1024 O 0.31362 0.10793 0.73099 0.0
O1025 O 0.34776 0.09717 0.7205 0.0
O1026 O 0.45343 0.17297 0.71425 0.0
O1027 O 0.42866 0.11413 0.71859 0.0
O1028 O 0.41734 0.13054 0.73654 0.0
O1029 O 0.37904 0.15008 0.73612 0.0
O1030 O 0.44196 0.21391 0.72616 0.0
O1031 O 0.39973 0.22686 0.73351 0.0
H1032 H 0.26247 0.2191 0.74816 0.0
H1033 H 0.21566 0.2369 0.74351 0.0
H1034 H 0.21612 0.19434 0.71828 0.0
H1035 H 0.26195 0.17599 0.72301 0.0
H1036 H 0.51622 0.16803 0.7036 0.0
H1037 H 0.58163 0.18366 0.7067 0.0
H1038 H 0.55023 0.14958 0.73293 0.0
H1039 H 0.48491 0.13383 0.72977 0.0
Nd1040 Nd 0.89811 0.19739 0.72867 0.0
Nd1041 Nd 0.93118 0.28321 0.7235 0.0
C1042 C 0.87802 0.1328 0.73675 0.0
C1043 C 0.86882 0.09372 0.73438 0.0
C1044 C 0.89612 0.08243 0.73551 0.0
C1045 C 0.88832 0.0461 0.7331 0.0
C1046 C 0.85288 0.01997 0.72957 0.0
C1047 C 0.82517 0.03086 0.72864 0.0
C1048 C 0.83305 0.06735 0.73101 0.0
C1049 C 0.88635 0.20023 0.71139 0.0
C1050 C 0.98493 0.24398 0.72108 0.0
C1051 C 0.95422 0.35247 0.71752 0.0
C1052 C 0.94137 0.38035 0.71904 0.0
C1053 C 0.90482 0.36853 0.72228 0.0
C1054 C 0.89284 0.39497 0.72382 0.0
C1055 C 0.91724 0.43397 0.72223 0.0
C1056 C 0.95399 0.44568 0.71904 0.0
C1057 C 0.96586 0.41914 0.71746 0.0
C1058 C 0.93631 0.27016 0.74074 0.0
C1059 C 0.84276 0.23375 0.72895 0.0
O1060 O 0.91343 0.15974 0.7358 0.0
O1061 O 0.85377 0.14364 0.73452 0.0
O1062 O 0.87606 0.16904 0.71557 0.0
O1063 O 0.90186 0.22802 0.71644 0.0
O1064 O 0.9578 0.21231 0.72455 0.0
O1065 O 0.98139 0.27435 0.71964 0.0
O1066 O 0.93044 0.32141 0.71346 0.0
O1067 O 0.97044 0.34572 0.72397 0.0
O1068 O 0.92608 0.2937 0.73782 0.0
O1069 O 0.94096 0.25333 0.73453 0.0
O1070 O 0.86732 0.26104 0.72394 0.0
O1071 O 0.85197 0.21109 0.73308 0.0
H1072 H 0.92371 0.1018 0.73821 0.0
H1073 H 0.91004 0.03837 0.73407 0.0
H1074 H 0.79765 1.01145 0.72591 0.0
H1075 H 0.8112 0.07495 0.73011 0.0
H1076 H 0.88552 0.3388 0.72366 0.0
H1077 H 0.8646 0.38487 0.72639 0.0
H1078 H 0.97345 0.47534 0.71764 0.0
H1079 H 0.99423 0.42894 0.71499 0.0
Nd1080 Nd 0.40783 0.2022 0.133 0.0
Nd1081 Nd 0.35198 0.11634 0.13689 0.0
C1082 C 0.45523 0.2677 0.12551 0.0
C1083 C 0.47909 0.30779 0.12805 0.0
C1084 C 0.49515 0.33616 0.12179 0.0
C1085 C 0.52056 0.37389 0.12407 0.0
C1086 C 0.5305 0.38394 0.13267 0.0
C1087 C 0.51334 0.35548 0.13895 0.0
C1088 C 0.48789 0.3178 0.13666 0.0
C1089 C 0.38896 0.19692 0.15005 0.0
C1090 C 0.44369 0.15072 0.14 0.0
C1091 C 0.30391 0.04554 0.14181 0.0
C1092 C 0.26341 1.01628 0.14009 0.0
C1093 C 0.23345 1.01558 0.14478 0.0
C1094 C 0.1955 0.98793 0.14318 0.0
C1095 C 0.18628 0.96 0.13686 0.0
C1096 C 0.21632 0.96055 0.13222 0.0
C1097 C 0.25429 0.9882 0.13382 0.0
C1098 C 0.37502 0.13338 0.11996 0.0
C1099 C 0.31626 0.16978 0.1322 0.0
O1100 O 0.46552 0.2442 0.12854 0.0
O1101 O 0.41834 0.25356 0.12566 0.0
O1102 O 0.41169 0.22843 0.14618 0.0
O1103 O 0.37696 0.16952 0.14486 0.0
O1104 O 0.45007 0.18316 0.13662 0.0
O1105 O 0.40897 0.12151 0.14127 0.0
O1106 O 0.31028 0.07552 0.14623 0.0
O1107 O 0.32828 0.054 0.13557 0.0
O1108 O 0.34007 0.11085 0.12233 0.0
O1109 O 0.39503 0.14752 0.1265 0.0
O1110 O 0.31124 0.13974 0.13649 0.0
O1111 O 0.34947 0.1936 0.12869 0.0
H1112 H 0.48883 0.32897 0.11511 0.0
H1113 H 0.53352 0.39488 0.11905 0.0
H1114 H 0.51991 0.36224 0.14563 0.0
H1115 H 0.47577 0.29632 0.1416 0.0
H1116 H 0.23926 0.03637 0.14973 0.0
H1117 H 0.1734 0.98817 0.14701 0.0
H1118 H 0.21054 0.93989 0.12724 0.0
H1119 H 0.27655 0.9876 0.13013 0.0
Nd1120 Nd 0.8768 0.23079 0.13186 0.0
Nd1121 Nd 0.96382 0.257 0.13852 0.0
C1122 C 0.81378 0.21639 0.12378 0.0
C1123 C 0.77415 0.20247 0.12652 0.0
C1124 C 0.7445 0.18812 0.12055 0.0
C1125 C 0.70716 0.17664 0.12313 0.0
C1126 C 0.69888 0.17942 0.13174 0.0
C1127 C 0.72866 0.1929 0.13772 0.0
C1128 C 0.76582 0.20434 0.13514 0.0
C1129 C 0.87996 0.22575 0.14956 0.0
C1130 C 0.93646 0.31922 0.13679 0.0
C1131 C 1.02419 0.26609 0.14696 0.0
C1132 C 0.05599 0.25913 0.14497 0.0
C1133 C 0.06717 0.24109 0.15101 0.0
C1134 C 0.09557 0.23217 0.14908 0.0
C1135 C 0.11361 0.24116 0.14105 0.0
C1136 C 0.10272 0.25975 0.13504 0.0
C1137 C 0.07411 0.26845 0.13696 0.0
C1138 C 0.96315 0.27055 0.12111 0.0
C1139 C 0.90545 0.16768 0.13256 0.0
O1140 O 0.83883 0.25018 0.12656 0.0
O1141 O 0.82597 0.19198 0.12418 0.0
O1142 O 0.84912 0.21696 0.14539 0.0
O1143 O 0.9065 0.23658 0.14423 0.0
O1144 O 0.90958 0.29576 0.13151 0.0
O1145 O 0.95669 0.30884 0.14161 0.0
O1146 O 0.99053 0.23574 0.14771 0.0
O1147 O 1.02329 0.29382 0.14286 0.0
O1148 O 0.99298 0.27608 0.12534 0.0
O1149 O 0.93494 0.25461 0.12608 0.0
O1150 O 0.93744 0.19285 0.13632 0.0
O1151 O 0.88006 0.17628 0.12957 0.0
H1152 H 0.75032 0.18644 0.11387 0.0
H1153 H 0.68503 0.16677 0.11834 0.0
H1154 H 0.72331 0.19491 0.14442 0.0
H1155 H 0.78818 0.21529 0.13987 0.0
H1156 H 0.05357 0.23348 0.15721 0.0
H1157 H 0.10349 0.2183 0.1539 0.0
H1158 H 0.11562 0.26673 0.12877 0.0
H1159 H 0.0658 0.28196 0.13213 0.0
Nd1160 Nd 0.84508 0.6643 0.13031 0.0
Nd1161 Nd 0.82297 0.72801 0.13715 0.0
C1162 C 0.85548 0.61413 0.12171 0.0
C1163 C 0.87295 0.59058 0.12356 0.0
C1164 C 0.87037 0.56374 0.11759 0.0
C1165 C 0.88427 0.53922 0.11955 0.0
C1166 C 0.90088 0.54094 0.12755 0.0
C1167 C 0.90396 0.56842 0.13346 0.0
C1168 C 0.89018 0.59302 0.13147 0.0
C1169 C 0.85621 0.67593 0.14778 0.0
C1170 C 0.7599 0.63797 0.13756 0.0
C1171 C 0.81724 0.78111 0.14571 0.0
C1172 C 0.82361 0.8197 0.14383 0.0
C1173 C 0.84373 0.8492 0.14967 0.0
C1174 C 0.85168 0.88627 0.14788 0.0
C1175 C 0.83961 0.89481 0.14018 0.0
C1176 C 0.81898 0.86505 0.13437 0.0
C1177 C 0.81124 0.82796 0.13615 0.0
C1178 C 0.80204 0.70914 0.12016 0.0
C1179 C 0.91094 0.7555 0.13046 0.0
O1180 O 0.82449 0.60532 0.12602 0.0
O1181 O 0.87852 0.65093 0.12113 0.0
O1182 O 0.86306 0.65254 0.14355 0.0
O1183 O 0.84439 0.69138 0.14261 0.0
O1184 O 0.78046 0.63185 0.1319 0.0
O1185 O 0.77228 0.6708 0.14161 0.0
O1186 O 0.84769 0.77767 0.14588 0.0
O1187 O 0.78816 0.7522 0.14204 0.0
O1188 O 0.79906 0.73515 0.12432 0.0
O1189 O 0.81958 0.69772 0.12486 0.0
O1190 O 0.88666 0.76426 0.13401 0.0
O1191 O 0.90112 0.72058 0.12792 0.0
H1192 H 0.85691 0.56122 0.11147 0.0
H1193 H 0.88093 0.51813 0.11488 0.0
H1194 H 0.91698 0.5709 0.13963 0.0
H1195 H 0.89249 0.61358 0.13617 0.0
H1196 H 0.85362 0.84361 0.15562 0.0
H1197 H 0.86717 0.90827 0.15256 0.0
H1198 H 0.80958 0.87058 0.12835 0.0
H1199 H 0.79598 0.80587 0.13147 0.0
Nd1200 Nd 0.95471 0.72846 0.6361 0.0
Nd1201 Nd 0.86824 0.67058 0.62859 0.0
C1202 C 1.01406 0.77957 0.6448 0.0
C1203 C 0.04419 0.81918 0.64296 0.0
C1204 C 0.03613 0.84355 0.63814 0.0
C1205 C 0.06464 0.88091 0.63639 0.0
C1206 C 0.10206 0.89475 0.63933 0.0
C1207 C 0.11017 0.87008 0.64404 0.0
C1208 C 0.0815 0.83273 0.64585 0.0
C1209 C 0.95655 0.71225 0.61889 0.0
C1210 C 0.9009 0.76291 0.62879 0.0
C1211 C 0.80704 0.62344 0.61988 0.0
C1212 C 0.76814 0.59344 0.62235 0.0
C1213 C 0.75625 0.55517 0.62064 0.0
C1214 C 0.72073 0.5263 0.62346 0.0
C1215 C 0.69608 0.53502 0.62799 0.0
C1216 C 0.70752 0.57338 0.62949 0.0
C1217 C 0.7432 0.60227 0.62673 0.0
C1218 C 0.86733 0.67969 0.64612 0.0
C1219 C 0.92033 0.63638 0.63653 0.0
O1220 O 0.97951 0.77392 0.64584 0.0
O1221 O 1.01487 0.75286 0.64027 0.0
O1222 O 0.98614 0.73552 0.6233 0.0
O1223 O 0.92768 0.70212 0.62354 0.0
O1224 O 0.93131 0.76845 0.63311 0.0
O1225 O 0.87582 0.7295 0.62555 0.0
O1226 O 0.83464 0.61644 0.62154 0.0
O1227 O 0.81635 0.65874 0.62147 0.0
O1228 O 0.83703 0.65914 0.64163 0.0
O1229 O 0.89547 0.69417 0.64116 0.0
O1230 O 0.89294 0.63189 0.63124 0.0
O1231 O 0.94481 0.66937 0.64011 0.0
H1232 H 1.00776 0.83369 0.63571 0.0
H1233 H 0.05744 0.89884 0.63264 0.0
H1234 H 0.13857 0.87983 0.64646 0.0
H1235 H 0.08847 0.81444 0.64954 0.0
H1236 H 0.77473 0.54751 0.61725 0.0
H1237 H 0.71254 0.49707 0.62207 0.0
H1238 H 0.68934 0.58105 0.633 0.0
H1239 H 0.75141 0.63145 0.62817 0.0
Nd1240 Nd 0.35176 0.25426 0.63651 0.0
Nd1241 Nd 0.40404 0.22104 0.63199 0.0
C1242 C 0.30642 0.27942 0.64202 0.0
C1243 C 0.26628 0.26816 0.64025 0.0
C1244 C 0.25299 0.29353 0.64184 0.0
C1245 C 0.21511 0.28316 0.64006 0.0
C1246 C 0.18965 0.24709 0.63666 0.0
C1247 C 0.20325 0.22182 0.63506 0.0
C1248 C 0.24114 0.23228 0.6368 0.0
C1249 C 0.37085 0.25932 0.61933 0.0
C1250 C 0.31246 0.16551 0.63144 0.0
C1251 C 0.44872 0.19996 0.62429 0.0
C1252 C 0.4784 0.19167 0.62714 0.0
C1253 C 0.49021 0.17191 0.62178 0.0
C1254 C 0.51877 0.16434 0.62441 0.0
C1255 C 0.53607 0.1765 0.63245 0.0
C1256 C 0.52364 0.19584 0.63785 0.0
C1257 C 0.49504 0.20328 0.63523 0.0
C1258 C 0.38847 0.20954 0.64926 0.0
C1259 C 0.44461 0.3079 0.63923 0.0
O1260 O 0.3121 0.25478 0.6462 0.0
O1261 O 0.33021 0.29496 0.63568 0.0
O1262 O 0.33672 0.24791 0.62219 0.0
O1263 O 0.39229 0.26415 0.62558 0.0
O1264 O 0.30925 0.19049 0.6362 0.0
O1265 O 0.3447 0.17449 0.62751 0.0
O1266 O 0.45688 0.23536 0.62493 0.0
O1267 O 0.41404 0.17594 0.62676 0.0
O1268 O 0.40985 0.19952 0.6452 0.0
O1269 O 0.37648 0.22523 0.64415 0.0
O1270 O 0.44914 0.28035 0.63602 0.0
O1271 O 0.41064 0.30457 0.64043 0.0
H1272 H 0.27191 0.32139 0.64447 0.0
H1273 H 0.20564 0.30323 0.64147 0.0
H1274 H 0.18475 0.19406 0.63234 0.0
H1275 H 0.25085 0.21236 0.63543 0.0
H1276 H 0.47761 0.16265 0.61553 0.0
H1277 H 0.52795 0.14982 0.62005 0.0
H1278 H 0.536 0.20519 0.64412 0.0
H1279 H 0.48606 0.21833 0.63949 0.0
Nd1280 Nd 0.82585 0.12363 0.63528 0.0
Nd1281 Nd 0.85762 0.20871 0.63019 0.0
C1282 C 0.80193 0.05413 0.64123 0.0
C1283 C 0.81224 0.02465 0.63937 0.0
C1284 C 0.84686 0.03425 0.63534 0.0
C1285 C 0.85649 1.00626 0.63355 0.0
C1286 C 0.8316 0.96792 0.63569 0.0
C1287 C 0.79678 0.95845 0.63966 0.0
C1288 C 0.78726 0.98654 0.64149 0.0
C1289 C 0.81788 0.13538 0.61811 0.0
C1290 C 0.91414 0.17349 0.62966 0.0
C1291 C 0.87707 0.27341 0.62221 0.0
C1292 C 0.88612 0.31171 0.62495 0.0
C1293 C 0.90532 0.34273 0.61942 0.0
C1294 C 0.91377 0.37917 0.62198 0.0
C1295 C 0.90309 0.38521 0.63013 0.0
C1296 C 0.88433 0.35398 0.63569 0.0
C1297 C 0.876 0.31762 0.63314 0.0
C1298 C 0.87074 0.20641 0.64742 0.0
C1299 C 0.77233 0.16275 0.63844 0.0
O1300 O 0.82802 0.08495 0.64499 0.0
O1301 O 0.78464 0.06152 0.63512 0.0
O1302 O 0.8297 0.11298 0.62095 0.0
O1303 O 0.81399 0.15273 0.62433 0.0
O1304 O 0.8898 0.14563 0.63459 0.0
O1305 O 0.90439 0.19605 0.62567 0.0
O1306 O 0.84179 0.24638 0.62325 0.0
O1307 O 0.90158 0.26291 0.62439 0.0
O1308 O 0.88043 0.23742 0.64324 0.0
O1309 O 0.85508 0.17849 0.64242 0.0
O1310 O 0.7986 0.19418 0.63472 0.0
O1311 O 0.77651 0.13272 0.63978 0.0
H1312 H 0.86646 0.06345 0.63356 0.0
H1313 H 0.88327 1.01462 0.63038 0.0
H1314 H 0.77708 0.92938 0.6415 0.0
H1315 H 0.76037 0.97848 0.64458 0.0
H1316 H 0.91348 0.33872 0.6131 0.0
H1317 H 0.92782 0.40244 0.6175 0.0
H1318 H 0.87612 0.35765 0.64204 0.0
H1319 H 0.86144 0.29406 0.63753 0.0
Nd1320 Nd 0.40653 0.28186 0.22382 0.0
Nd1321 Nd 0.34427 0.19655 0.23123 0.0
C1322 C 0.45796 0.33979 0.2148 0.0
C1323 C 0.49671 0.37149 0.2166 0.0
C1324 C 0.52451 0.38469 0.21019 0.0
C1325 C 0.56197 0.41298 0.21194 0.0
C1326 C 0.57246 0.42875 0.22017 0.0
C1327 C 0.54432 0.41579 0.22656 0.0
C1328 C 0.50691 0.38734 0.22481 0.0
C1329 C 0.39242 0.28447 0.24114 0.0
C1330 C 0.43545 0.22271 0.23059 0.0
C1331 C 0.2943 0.13497 0.23952 0.0
C1332 C 0.2665 0.09615 0.23667 0.0
C1333 C 0.25339 0.06525 0.24229 0.0
C1334 C 0.22651 0.02855 0.23958 0.0
C1335 C 0.21224 0.02214 0.23119 0.0
C1336 C 0.22613 0.05321 0.22555 0.0
C1337 C 0.25287 0.08973 0.22825 0.0
C1338 C 0.35146 0.19726 0.21351 0.0
C1339 C 0.31783 0.25739 0.22566 0.0
O1340 O 0.45435 0.30588 0.21456 0.0
O1341 O 0.42968 0.34029 0.21875 0.0
O1342 O 0.41667 0.31343 0.23667 0.0
O1343 O 0.38084 0.25541 0.23647 0.0
O1344 O 0.44295 0.25409 0.22641 0.0
O1345 O 0.40142 0.19883 0.23381 0.0
O1346 O 0.28744 0.16187 0.23708 0.0
O1347 O 0.33028 0.14484 0.23881 0.0
O1348 O 0.32898 0.16715 0.21785 0.0
O1349 O 0.36789 0.2241 0.21869 0.0
O1350 O 0.31416 0.23143 0.23127 0.0
O1351 O 0.34796 0.27549 0.22059 0.0
H1352 H 0.51735 0.37276 0.20383 0.0
H1353 H 0.58273 0.42256 0.20684 0.0
H1354 H 0.55143 0.42692 0.23298 0.0
H1355 H 0.4861 0.37731 0.22991 0.0
H1356 H 0.26361 0.06955 0.24881 0.0
H1357 H 0.21619 1.00539 0.24413 0.0
H1358 H 0.21631 0.04934 0.21901 0.0
H1359 H 0.26263 0.11306 0.22378 0.0
Nd1360 Nd 0.79723 0.14544 0.22562 0.0
Nd1361 Nd 0.88196 0.17602 0.23033 0.0
C1362 C 0.72737 0.12187 0.21991 0.0
C1363 C 0.69702 0.13171 0.22152 0.0
C1364 C 0.69145 0.15505 0.21575 0.0
C1365 C 0.66353 0.16509 0.21725 0.0
C1366 C 0.64012 0.15189 0.22454 0.0
C1367 C 0.64525 0.12799 0.23024 0.0
C1368 C 0.67331 0.11804 0.22875 0.0
C1369 C 0.80957 0.13753 0.24278 0.0
C1370 C 0.84843 0.23406 0.23081 0.0
C1371 C 0.94687 0.19557 0.23821 0.0
C1372 C 0.98685 0.20924 0.23576 0.0
C1373 C 1.0162 0.24022 0.24007 0.0
C1374 C 0.05428 0.25283 0.23805 0.0
C1375 C 0.06393 0.23452 0.23171 0.0
C1376 C 0.03434 0.20398 0.22726 0.0
C1377 C 0.99623 0.19155 0.22924 0.0
C1378 C 0.87958 0.19017 0.21316 0.0
C1379 C 0.83462 0.09042 0.22248 0.0
O1380 O 0.75806 0.14734 0.21598 0.0
O1381 O 0.73502 0.10478 0.22602 0.0
O1382 O 0.78779 0.15023 0.23999 0.0
O1383 O 0.82631 0.13297 0.23651 0.0
O1384 O 0.81977 0.20955 0.22609 0.0
O1385 O 0.87092 0.22402 0.23473 0.0
O1386 O 0.92191 0.1605 0.23624 0.0
O1387 O 0.93407 0.2191 0.23704 0.0
O1388 O 0.91057 0.19906 0.21727 0.0
O1389 O 0.85156 0.17438 0.21817 0.0
O1390 O 0.86625 0.1164 0.22615 0.0
O1391 O 0.80499 0.09526 0.22113 0.0
H1392 H 0.70881 0.1657 0.21006 0.0
H1393 H 0.66003 0.18295 0.21263 0.0
H1394 H 0.62803 0.11747 0.23595 0.0
H1395 H 0.67655 0.09983 0.23332 0.0
H1396 H 1.00965 0.25451 0.24506 0.0
H1397 H 0.07618 0.27687 0.24151 0.0
H1398 H 0.04054 0.18887 0.22241 0.0
H1399 H 0.97416 0.16773 0.22575 0.0
Nd1400 Nd 0.93286 0.67371 0.22385 0.0
Nd1401 Nd 0.89983 0.72641 0.22861 0.0
C1402 C 0.95676 0.62746 0.21826 0.0
C1403 C 0.9446 0.58696 0.21991 0.0
C1404 C 0.90795 0.56178 0.22303 0.0
C1405 C 0.89669 0.52361 0.22467 0.0
C1406 C 0.92188 0.50967 0.22329 0.0
C1407 C 0.9587 0.53516 0.22022 0.0
C1408 C 0.96988 0.57332 0.21855 0.0
C1409 C 0.93699 0.69161 0.24106 0.0
C1410 C 0.84403 0.63499 0.2289 0.0
C1411 C 0.87879 0.77085 0.23643 0.0
C1412 C 0.86905 0.79965 0.23365 0.0
C1413 C 0.8502 0.81169 0.23924 0.0
C1414 C 0.84152 0.83959 0.2367 0.0
C1415 C 0.85162 0.85601 0.22852 0.0
C1416 C 0.86998 0.84328 0.22289 0.0
C1417 C 0.87856 0.81535 0.22543 0.0
C1418 C 0.88851 0.71168 0.21134 0.0
C1419 C 0.98736 0.76657 0.22153 0.0
O1420 O 0.93282 0.63417 0.21406 0.0
O1421 O 0.97247 0.65078 0.22465 0.0
O1422 O 0.92595 0.65774 0.23814 0.0
O1423 O 0.94225 0.71341 0.23487 0.0
O1424 O 0.86895 0.63214 0.22403 0.0
O1425 O 0.85311 0.66686 0.23299 0.0
O1426 O 0.9143 0.77973 0.23543 0.0
O1427 O 0.85489 0.73576 0.23425 0.0
O1428 O 0.87847 0.73287 0.21547 0.0
O1429 O 0.90403 0.69931 0.2164 0.0
O1430 O 0.95989 0.77113 0.22481 0.0
O1431 O 0.98376 0.73262 0.22014 0.0
H1432 H 0.88803 0.57168 0.22423 0.0
H1433 H 0.86835 0.50514 0.22713 0.0
H1434 H 0.97878 0.52551 0.21899 0.0
H1435 H 0.99832 0.59221 0.21617 0.0
H1436 H 0.84258 0.79984 0.24561 0.0
H1437 H 0.82781 0.84902 0.24124 0.0
H1438 H 0.87774 0.85491 0.21652 0.0
H1439 H 0.89291 0.80622 0.221 0.0
H1440 H 0.34166 0.10847 0.10433 0.0
H1441 H 0.48488 0.04432 0.0863 0.0
H1442 H 0.44396 0.13647 0.11826 0.0
H1443 H 0.41723 0.07449 0.07038 0.0
H1444 H 0.46881 0.07196 0.09868 0.0
H1445 H 0.36593 0.08836 0.09226 0.0
C1446 C 0.36936 0.11074 0.10481 0.0
C1447 C 0.39089 0.1246 0.11227 0.0
C1448 C 0.45793 0.0727 0.09242 0.0
C1449 C 0.41856 0.10052 0.09857 0.0
C1450 C 0.46724 0.05711 0.08537 0.0
C1451 C 0.45198 0.05654 0.0773 0.0
C1452 C 0.43295 0.0872 0.09133 0.0
C1453 C 0.42917 0.07352 0.07648 0.0
C1454 C 0.38324 0.09918 0.09794 0.0
C1455 C 0.42656 0.12643 0.11258 0.0
N1456 N 0.42004 0.08754 0.08337 0.0
N1457 N 0.43911 0.11416 0.10588 0.0
H1458 H 0.9179 0.29903 0.11459 0.0
H1459 H 0.09211 0.44151 0.08507 0.0
H1460 H 1.01959 0.29345 0.10969 0.0
H1461 H 0.98139 0.42863 0.08073 0.0
H1462 H 0.06557 0.39408 0.09629 0.0
H1463 H 0.93815 0.3491 0.10353 0.0
C1464 C 0.94387 0.30753 0.11106 0.0
C1465 C 0.96725 0.29215 0.11312 0.0
C1466 C 0.04685 0.4016 0.09296 0.0
C1467 C 0.99095 0.34987 0.10071 0.0
C1468 C 0.0622 0.42921 0.08661 0.0
C1469 C 0.03897 0.43888 0.08187 0.0
C1470 C 1.00763 0.38288 0.09466 0.0
C1471 C 1.00033 0.4219 0.0842 0.0
C1472 C 0.95559 0.33637 0.10482 0.0
C1473 C 1.00073 0.30454 0.10838 0.0
N1474 N 0.98565 0.39427 0.09038 0.0
N1475 N 1.01166 0.33273 0.10253 0.0
H1476 H 0.61998 0.66213 0.08701 0.0
H1477 H 0.76966 0.63376 0.11455 0.0
H1478 H 0.63408 0.56581 0.08163 0.0
H1479 H 0.77594 0.74072 0.10898 0.0
H1480 H 0.71655 0.60246 0.10422 0.0
H1481 H 0.66955 0.68324 0.09773 0.0
C1482 C 0.63299 0.64485 0.08822 0.0
C1483 C 0.62314 0.61246 0.08329 0.0
C1484 C 0.73007 0.63286 0.1052 0.0
C1485 C 0.68149 0.63737 0.09552 0.0
C1486 C 0.76063 0.6508 0.11102 0.0
C1487 C 0.77735 0.69003 0.11264 0.0
C1488 C 0.71604 0.65433 0.10112 0.0
C1489 C 0.764 0.71049 0.10797 0.0
C1490 C 0.6618 0.65727 0.09428 0.0
C1491 C 0.64101 0.59119 0.08522 0.0
N1492 N 0.73414 0.69247 0.10256 0.0
N1493 N 0.6698 0.60429 0.09112 0.0
H1494 H 0.10739 0.49381 0.44842 0.0
H1495 H 0.07115 0.31817 0.41932 0.0
H1496 H 0.99764 0.40038 0.44145 0.0
H1497 H 0.17171 0.42623 0.41459 0.0
H1498 H 0.05117 0.34769 0.43004 0.0
H1499 H 0.13714 0.47172 0.43772 0.0
C1500 C 0.08948 0.46946 0.44448 0.0
C1501 C 0.04986 0.44891 0.44583 0.0
C1502 C 0.07779 0.36513 0.42673 0.0
C1503 C 0.0837 0.42283 0.4339 0.0
C1504 C 0.08953 0.34812 0.42066 0.0
C1505 C 0.12291 0.36973 0.41593 0.0
C1506 C 0.09944 0.4044 0.42819 0.0
C1507 C 0.14561 0.40847 0.41803 0.0
C1508 C 0.10652 0.45663 0.43846 0.0
C1509 C 0.0282 0.41713 0.44066 0.0
N1510 N 0.13325 0.42479 0.42396 0.0
N1511 N 0.04533 0.40492 0.43506 0.0
H1512 H 0.66363 0.60845 0.44051 0.0
H1513 H 0.65602 0.77381 0.41409 0.0
H1514 H 0.58142 0.64246 0.44687 0.0
H1515 H 0.75459 0.7603 0.41633 0.0
H1516 H 0.62348 0.72322 0.42492 0.0
H1517 H 0.69087 0.6588 0.4298 0.0
C1518 C 0.65084 0.62608 0.43956 0.0
C1519 C 0.62025 0.62117 0.44466 0.0
C1520 C 0.6524 0.73178 0.42308 0.0
C1521 C 0.65188 0.67974 0.43239 0.0
C1522 C 0.67109 0.76088 0.41696 0.0
C1523 C 0.70809 0.77126 0.41424 0.0
C1524 C 0.67078 0.71282 0.42639 0.0
C1525 C 0.72603 0.7532 0.41816 0.0
C1526 C 0.66669 0.65518 0.43349 0.0
C1527 C 0.60502 0.64517 0.44309 0.0
N1528 N 0.70718 0.72481 0.4239 0.0
N1529 N 0.62106 0.67351 0.43713 0.0
H1530 H 0.31701 0.91068 0.41244 0.0
H1531 H 0.44865 0.0848 0.44264 0.0
H1532 H 0.29711 1.00221 0.41917 0.0
H1533 H 0.44399 0.97769 0.44696 0.0
H1534 H 0.40022 0.05529 0.43172 0.0
H1535 H 0.36665 0.93255 0.42363 0.0
C1536 C 0.32211 0.93447 0.41645 0.0
C1537 C 0.30278 0.95462 0.4149 0.0
C1538 C 0.40978 0.03806 0.43499 0.0
C1539 C 0.36022 0.98052 0.42737 0.0
C1540 C 0.4379 0.05508 0.44117 0.0
C1541 C 0.45023 0.03371 0.44581 0.0
C1542 C 0.39337 0.99903 0.43332 0.0
C1543 C 0.43524 0.99524 0.44356 0.0
C1544 C 0.35075 0.94721 0.42275 0.0
C1545 C 0.3112 0.98579 0.42014 0.0
N1546 N 0.40721 0.97892 0.43751 0.0
N1547 N 0.33941 0.99795 0.42601 0.0
H1548 H 0.69765 0.07863 0.94349 0.0
H1549 H 0.63759 0.89883 0.91353 0.0
H1550 H 0.58575 0.98026 0.94576 0.0
H1551 H 0.75331 0.981 0.92005 0.0
H1552 H 0.61509 0.92789 0.92415 0.0
H1553 H 0.71469 0.04498 0.9332 0.0
C1554 C 0.67632 0.04999 0.94173 0.0
C1555 C 0.64024 0.03227 0.94559 0.0
C1556 C 0.64535 0.93917 0.92332 0.0
C1557 C 0.66004 0.9929 0.93373 0.0
C1558 C 0.65829 0.92248 0.9173 0.0
C1559 C 0.69753 0.93748 0.91585 0.0
C1560 C 0.67182 0.97149 0.92784 0.0
C1561 C 0.72288 0.96835 0.9209 0.0
C1562 C 0.6863 0.03059 0.93589 0.0
C1563 C 0.61388 0.9951 0.94296 0.0
N1564 N 0.70963 0.98449 0.92655 0.0
N1565 N 0.62436 0.97652 0.93721 0.0
H1566 H 0.06618 0.76947 0.91761 0.0
H1567 H 0.11289 0.63558 0.94622 0.0
H1568 H 0.16645 0.76176 0.91237 0.0
H1569 H 0.99988 0.6165 0.94158 0.0
H1570 H 0.13772 0.6862 0.93534 0.0
H1571 H 0.04778 0.721 0.92859 0.0
C1572 C 0.08493 0.75824 0.91894 0.0
C1573 C 0.118 0.76987 0.91408 0.0
C1574 C 0.10747 0.67056 0.93665 0.0
C1575 C 0.09638 0.71313 0.92659 0.0
C1576 C 0.0932 0.6415 0.94281 0.0
C1577 C 0.05415 0.62164 0.94484 0.0
C1578 C 0.08263 0.68033 0.93262 0.0
C1579 C 0.0301 0.63083 0.94026 0.0
C1580 C 0.07407 0.7301 0.92514 0.0
C1581 C 0.14099 0.754 0.91605 0.0
N1582 N 0.04476 0.65971 0.93448 0.0
N1583 N 0.12961 0.72615 0.92213 0.0
H1584 H 0.41179 0.47013 0.95333 0.0
H1585 H 0.36846 0.4211 0.90416 0.0
H1586 H 0.48576 0.4519 0.93664 0.0
H1587 H 0.27589 0.3724 0.92221 0.0
H1588 H 0.41342 0.44867 0.91584 0.0
H1589 H 0.36395 0.44877 0.94193 0.0
C1590 C 0.41828 0.46219 0.94723 0.0
C1591 C 0.45316 0.46312 0.94592 0.0
C1592 C 0.3833 0.43235 0.91728 0.0
C1593 C 0.39839 0.43897 0.93284 0.0
C1594 C 0.35742 0.41674 0.91061 0.0
C1595 C 0.31819 0.39399 0.91218 0.0
C1596 C 0.37025 0.42581 0.9257 0.0
C1597 C 0.30579 0.38982 0.92069 0.0
C1598 C 0.39073 0.44969 0.94077 0.0
C1599 C 0.45951 0.45187 0.93792 0.0
N1600 N 0.33184 0.40542 0.92717 0.0
N1601 N 0.4326 0.44064 0.93168 0.0
H1602 H 1.01142 0.74519 0.60712 0.0
H1603 H 0.97448 0.56916 0.57852 0.0
H1604 H 0.91325 0.63721 0.61323 0.0
H1605 H 0.08481 0.65909 0.5863 0.0
H1606 H 0.94496 0.59124 0.58929 0.0
H1607 H 0.03073 0.71407 0.59661 0.0
C1608 C 0.99332 0.71493 0.60609 0.0
C1609 C 0.96064 0.69389 0.61106 0.0
C1610 C 0.97564 0.60543 0.58874 0.0
C1611 C 0.98334 0.65749 0.5991 0.0
C1612 C 0.99252 0.59257 0.58268 0.0
C1613 C 0.03227 0.61222 0.58155 0.0
C1614 C 0.99878 0.63845 0.59351 0.0
C1615 C 0.05414 0.64301 0.58696 0.0
C1616 C 1.00466 0.69705 0.60015 0.0
C1617 C 0.93846 0.65459 0.60946 0.0
N1618 N 0.0372 0.65541 0.59256 0.0
N1619 N 0.95037 0.63747 0.60364 0.0
H1620 H 0.39957 0.43569 0.5851 0.0
H1621 H 0.44426 0.2987 0.61317 0.0
H1622 H 0.49935 0.42735 0.5797 0.0
H1623 H 0.33169 0.28088 0.60856 0.0
H1624 H 0.46967 0.35017 0.60248 0.0
H1625 H 0.38061 0.38642 0.59591 0.0
C1626 C 0.4181 0.42414 0.58635 0.0
C1627 C 0.45122 0.43591 0.5815 0.0
C1628 C 0.4394 0.33464 0.60376 0.0
C1629 C 0.42895 0.37819 0.59383 0.0
C1630 C 0.42478 0.30509 0.60981 0.0
C1631 C 0.38566 0.28525 0.61179 0.0
C1632 C 0.41485 0.34497 0.59977 0.0
C1633 C 0.36194 0.29512 0.60728 0.0
C1634 C 0.40692 0.39554 0.59246 0.0
C1635 C 0.47388 0.41955 0.58338 0.0
N1636 N 0.37693 0.32444 0.6016 0.0
N1637 N 0.4622 0.39127 0.58937 0.0
H1638 H 0.79684 0.07517 0.60723 0.0
H1639 H 0.64418 0.10222 0.58036 0.0
H1640 H 0.77585 0.16739 0.61249 0.0
H1641 H 0.64656 0.99756 0.58181 0.0
H1642 H 0.69227 0.12853 0.59181 0.0
H1643 H 0.74465 0.04969 0.59696 0.0
C1644 C 0.78169 0.09047 0.60613 0.0
C1645 C 0.79094 0.12356 0.61076 0.0
C1646 C 0.68152 0.09946 0.58977 0.0
C1647 C 0.73028 0.09403 0.599 0.0
C1648 C 0.65352 0.08422 0.58335 0.0
C1649 C 0.64058 0.04727 0.58029 0.0
C1650 C 0.69719 0.07782 0.59298 0.0
C1651 C 0.6551 0.02585 0.58411 0.0
C1652 C 0.75149 0.07562 0.60032 0.0
C1653 C 0.76987 0.14187 0.60906 0.0
N1654 N 0.68278 0.04149 0.59014 0.0
N1655 N 0.74057 0.12689 0.60333 0.0
H1656 H 0.84037 0.77183 0.74572 0.0
H1657 H 0.6632 0.7196 0.77604 0.0
H1658 H 0.75571 0.65755 0.75266 0.0
H1659 H 0.76639 0.82709 0.77916 0.0
H1660 H 0.69471 0.70121 0.76544 0.0
H1661 H 0.81371 0.79631 0.7565 0.0
C1662 C 0.81667 0.75185 0.74961 0.0
C1663 C 0.80031 0.71244 0.74825 0.0
C1664 C 0.71058 0.72895 0.76838 0.0
C1665 C 0.76899 0.74043 0.76039 0.0
C1666 C 0.69244 0.73975 0.77439 0.0
C1667 C 0.71213 0.7749 0.77858 0.0
C1668 C 0.74897 0.75348 0.76638 0.0
C1669 C 0.75003 0.79973 0.7761 0.0
C1670 C 0.80137 0.76592 0.75572 0.0
C1671 C 0.76941 0.68806 0.75344 0.0
N1672 N 0.76734 0.78847 0.77018 0.0
N1673 N 0.75457 0.70241 0.75916 0.0
H1674 H 0.25076 0.97083 0.78086 0.0
H1675 H 0.42764 0.11175 0.75189 0.0
H1676 H 0.34876 0.95964 0.77524 0.0
H1677 H 0.31937 0.10517 0.74792 0.0
H1678 H 0.39885 0.06211 0.76258 0.0
H1679 H 0.2728 0.02214 0.77007 0.0
C1680 C 0.27624 0.97834 0.77722 0.0
C1681 C 0.29814 0.96105 0.77902 0.0
C1682 C 0.38115 0.07143 0.75944 0.0
C1683 C 0.3239 0.02015 0.76691 0.0
C1684 C 0.39778 0.10027 0.75338 0.0
C1685 C 0.37589 0.1124 0.74889 0.0
C1686 C 0.34197 0.05402 0.76111 0.0
C1687 C 0.33729 0.09646 0.75117 0.0
C1688 C 0.28899 1.00789 0.77113 0.0
C1689 C 0.33104 0.97221 0.77413 0.0
N1690 N 0.32135 0.0677 0.75708 0.0
N1691 N 0.34303 1.00112 0.76844 0.0
H1692 H 0.96038 0.33133 0.75149 0.0
H1693 H 0.09488 0.28547 0.78036 0.0
H1694 H 0.97101 0.23216 0.74709 0.0
H1695 H 0.10661 0.39652 0.77826 0.0
H1696 H 0.04899 0.2636 0.76851 0.0
H1697 H 1.01054 0.35271 0.76225 0.0
C1698 C 0.97275 0.31367 0.75289 0.0
C1699 C 0.96132 0.27982 0.74837 0.0
C1700 C 0.06237 0.29303 0.77049 0.0
C1701 C 1.01949 0.30455 0.76064 0.0
C1702 C 0.08909 0.30567 0.77714 0.0
C1703 C 0.10546 0.34318 0.7801 0.0
C1704 C 0.05122 0.31786 0.76695 0.0
C1705 C 0.09548 0.36769 0.776 0.0
C1706 C 1.00181 0.32616 0.75896 0.0
C1707 C 0.97881 0.25837 0.75044 0.0
N1708 N 0.06875 0.35454 0.76973 0.0
N1709 N 1.00699 0.27107 0.75641 0.0
H1710 H 0.32583 0.40895 0.27398 0.0
H1711 H 0.32217 0.23505 0.2488 0.0
H1712 H 0.2455 0.29314 0.28089 0.0
H1713 H 0.41895 0.34818 0.25048 0.0
H1714 H 0.28868 0.25343 0.25934 0.0
H1715 H 0.3536 0.38558 0.26345 0.0
C1716 C 0.31354 0.37855 0.27319 0.0
C1717 C 0.28336 0.35309 0.27839 0.0
C1718 C 0.31741 0.27397 0.25743 0.0
C1719 C 0.31561 0.32586 0.26634 0.0
C1720 C 0.33663 0.26339 0.25148 0.0
C1721 C 0.37341 0.29017 0.24869 0.0
C1722 C 0.33503 0.31162 0.2605 0.0
C1723 C 0.39058 0.32658 0.25236 0.0
C1724 C 0.3297 0.36515 0.26722 0.0
C1725 C 0.26877 0.31388 0.27703 0.0
N1726 N 0.37123 0.33625 0.25794 0.0
N1727 N 0.28513 0.30144 0.27117 0.0
H1728 H 0.76579 0.95971 0.28096 0.0
H1729 H 0.75123 0.11995 0.25403 0.0
H1730 H 0.66263 0.96374 0.27712 0.0
H1731 H 0.83899 0.09279 0.24831 0.0
H1732 H 0.72443 0.06829 0.26444 0.0
H1733 H 0.79782 1.01137 0.27031 0.0
C1734 C 0.74965 0.97068 0.27774 0.0
C1735 C 0.71134 0.95714 0.27992 0.0
C1736 C 0.74973 0.07371 0.26096 0.0
C1737 C 0.74807 1.01709 0.26805 0.0
C1738 C 0.76533 0.10358 0.25506 0.0
C1739 C 0.79744 0.11087 0.25023 0.0
C1740 C 0.76637 0.05081 0.26219 0.0
C1741 C 0.81422 0.08829 0.25188 0.0
C1742 C 0.76803 1.00046 0.27175 0.0
C1743 C 0.69213 0.97314 0.27567 0.0
N1744 N 0.79849 0.05926 0.25769 0.0
N1745 N 0.71067 1.00228 0.27007 0.0
H1746 H 0.95608 0.65176 0.25224 0.0
H1747 H 0.10358 0.83023 0.28001 0.0
H1748 H 0.97703 0.76493 0.247 0.0
H1749 H 0.10128 0.72315 0.27908 0.0
H1750 H 0.05737 0.80879 0.26818 0.0
H1751 H 1.00631 0.67791 0.26299 0.0
C1752 C 0.97077 0.68205 0.25345 0.0
C1753 C 0.96218 0.7061 0.24869 0.0
C1754 C 0.06774 0.79039 0.27043 0.0
C1755 C 1.02057 0.73655 0.26096 0.0
C1756 C 0.09466 0.80294 0.27706 0.0
C1757 C 0.10699 0.77878 0.28037 0.0
C1758 C 0.05258 0.75316 0.26724 0.0
C1759 C 0.09312 0.74295 0.27659 0.0
C1760 C 0.99987 0.69709 0.25953 0.0
C1761 C 0.98258 0.74527 0.25053 0.0
N1762 N 0.06646 0.73111 0.27033 0.0
N1763 N 1.01082 0.75928 0.2565 0.0
H1764 H 0.60434 0.08147 0.0339 0.0
H1765 H 0.48744 0.97778 0.99165 0.0
H1766 H 0.48308 1.00542 0.0334 0.0
H1767 H 0.60772 0.05841 0.9914 0.0
H1768 H 0.4861 0.98684 1.00698 0.0
H1769 H 0.60686 0.07291 0.01849 0.0
C1770 C 0.57821 0.06293 0.03054 0.0
C1771 C 0.54342 0.04405 0.03493 0.0
C1772 C 0.51286 1.00264 1.00362 0.0
C1773 C 0.54611 0.03408 0.01728 0.0
C1774 C 0.51368 0.99745 0.99484 0.0
C1775 C 0.54777 1.01744 0.99024 0.0
C1776 C 0.54644 0.02803 1.0079 0.0
C1777 C 0.58084 0.04252 0.99471 0.0
C1778 C 0.57969 0.05808 0.02174 0.0
C1779 C 0.51049 0.02043 0.03026 0.0
N1780 N 0.57937 0.04711 1.0033 0.0
N1781 N 0.51265 1.0161 0.0217 0.0
H1782 H 0.08581 0.51512 0.99316 0.0
H1783 H 0.98097 0.5323 0.0348 0.0
H1784 H 1.01334 0.56472 0.99278 0.0
H1785 H 0.05745 0.4874 0.03513 0.0
H1786 H 0.99106 0.54295 0.01945 0.0
H1787 H 0.07451 0.50367 1.00842 0.0
C1788 C 0.06743 0.52364 0.9963 0.0
C1789 C 0.05051 0.54098 0.99168 0.0
C1790 C 1.00565 0.53075 0.02285 0.0
C1791 C 0.03735 0.52779 1.00926 0.0
C1792 C 0.99988 0.52458 0.03163 0.0
C1793 C 1.01848 0.50898 0.03626 0.0
C1794 C 0.03022 0.5212 0.01862 0.0
C1795 C 0.04263 0.49955 0.03181 0.0
C1796 C 0.06101 0.51706 1.00504 0.0
C1797 C 1.02698 0.55133 0.9961 0.0
N1798 N 0.04782 0.50583 0.02324 0.0
N1799 N 1.02108 0.54457 1.00465 0.0
H1800 H 0.54009 0.47008 0.03507 0.0
H1801 H 0.56958 0.59727 0.99368 0.0
H1802 H 0.58247 0.59078 0.03609 0.0
H1803 H 0.51771 0.47521 0.99285 0.0
H1804 H 0.57772 0.59569 1.00904 0.0
H1805 H 0.53472 0.47183 0.01961 0.0
C1806 C 0.54833 0.49707 0.03203 0.0
C1807 C 0.56166 0.53038 0.03688 0.0
C1808 C 0.56465 0.56921 1.00553 0.0
C1809 C 0.55561 0.53255 0.01909 0.0
C1810 C 0.56004 0.57004 0.99673 0.0
C1811 C 0.54286 0.53625 0.99197 0.0
C1812 C 0.55204 0.5343 1.00966 0.0
C1813 C 0.53112 0.5019 0.99628 0.0
C1814 C 0.54521 0.49798 0.02318 0.0
C1815 C 0.57195 0.56446 0.03259 0.0
N1816 N 0.53586 0.5018 1.00489 0.0
N1817 N 0.5687 0.56466 0.02393 0.0
H1818 H 0.06361 0.59118 0.53545 0.0
H1819 H 1.01642 0.47316 0.49156 0.0
H1820 H 0.98899 0.47001 0.53373 0.0
H1821 H 0.09126 0.59431 0.49321 0.0
H1822 H 1.00549 0.47139 0.50702 0.0
H1823 H 0.07393 0.59326 0.51995 0.0
C1824 C 0.04949 0.56508 0.53181 0.0
C1825 C 1.02557 0.5304 0.53587 0.0
C1826 C 1.02427 0.49839 0.50399 0.0
C1827 C 0.03699 0.53239 0.51818 0.0
C1828 C 0.03041 0.49934 0.49517 0.0
C1829 C 0.05466 0.5339 0.49111 0.0
C1830 C 0.04256 0.53225 0.50877 0.0
C1831 C 0.07231 0.56702 0.49609 0.0
C1832 C 0.05529 0.56621 0.52297 0.0
C1833 C 1.00774 0.49738 0.53086 0.0
N1834 N 0.06594 0.56539 0.50464 0.0
N1835 N 1.01381 0.49918 0.5223 0.0
H1836 H 0.6035 0.56748 0.49235 0.0
H1837 H 0.47894 0.48828 0.53531 0.0
H1838 H 0.48104 0.5121 0.49303 0.0
H1839 H 0.60137 0.54373 0.53475 0.0
H1840 H 0.47901 0.49634 0.51977 0.0
H1841 H 0.60359 0.55858 0.50787 0.0
C1842 C 0.5767 0.5534 0.49576 0.0
C1843 C 0.54226 0.54054 0.49141 0.0
C1844 C 0.50589 0.50678 0.52305 0.0
C1845 C 0.54198 0.53029 0.50913 0.0
C1846 C 0.50578 0.50223 0.53192 0.0
C1847 C 0.54015 0.51552 0.53632 0.0
C1848 C 0.54065 0.5247 0.51856 0.0
C1849 C 0.57418 0.53311 0.53161 0.0
C1850 C 0.57669 0.54833 0.50462 0.0
C1851 C 0.50829 0.52249 0.49614 0.0
N1852 N 0.57358 0.53722 0.52301 0.0
N1853 N 0.50901 0.51796 0.50471 0.0
H1854 H 0.52097 0.07649 0.53473 0.0
H1855 H 0.54413 0.97763 0.49268 0.0
H1856 H 0.57234 1.00566 0.53458 0.0
H1857 H 0.49973 0.05449 0.49219 0.0
H1858 H 0.55317 0.98664 0.50805 0.0
H1859 H 0.51172 0.06806 0.51929 0.0
C1860 C 0.5303 0.05912 0.53143 0.0
C1861 C 0.54739 0.04166 0.53594 0.0
C1862 C 0.54147 1.00162 0.50462 0.0
C1863 C 0.53684 0.03184 0.51824 0.0
C1864 C 0.53624 0.99645 0.49582 0.0
C1865 C 0.5212 1.01541 0.49114 0.0
C1866 C 0.5315 0.02589 0.50884 0.0
C1867 C 0.5115 0.03943 0.49556 0.0
C1868 C 0.52502 0.05434 0.52261 0.0
C1869 C 0.55897 0.01953 0.53136 0.0
N1870 N 0.5168 0.04398 0.50417 0.0
N1871 N 0.55343 1.01522 0.52277 0.0
H1872 H 0.2688 0.39394 0.32596 0.0
H1873 H 0.14764 0.34567 0.36951 0.0
H1874 H 0.14697 0.32187 0.32727 0.0
H1875 H 0.26858 0.42269 0.36811 0.0
H1876 H 0.14688 0.33572 0.35403 0.0
H1877 H 0.26977 0.40429 0.34144 0.0
C1878 C 0.24233 0.38036 0.3295 0.0
C1879 C 0.2078 0.35705 0.32533 0.0
C1880 C 0.1736 0.35482 0.35711 0.0
C1881 C 0.20854 0.36856 0.34301 0.0
C1882 C 0.17397 0.36042 0.36595 0.0
C1883 C 0.20818 0.38495 0.37009 0.0
C1884 C 0.20772 0.37387 0.35241 0.0
C1885 C 0.24154 0.4035 0.36516 0.0
C1886 C 0.24282 0.38622 0.33833 0.0
C1887 C 0.17427 0.34009 0.33022 0.0
N1888 N 0.2405 0.39756 0.35661 0.0
N1889 N 0.17548 0.34613 0.33877 0.0
H1890 H 0.65252 0.86725 0.36772 0.0
H1891 H 0.75534 0.84752 0.32594 0.0
H1892 H 0.72983 0.82336 0.36816 0.0
H1893 H 0.67949 0.89315 0.3255 0.0
H1894 H 0.74597 0.83813 0.34132 0.0
H1895 H 0.66143 0.87624 0.35231 0.0
C1896 C 0.67142 0.85946 0.36456 0.0
C1897 C 0.69058 0.84462 0.36924 0.0
C1898 C 0.73129 0.85016 0.33789 0.0
C1899 C 0.70096 0.85491 0.35153 0.0
C1900 C 0.73662 0.85555 0.32909 0.0
C1901 C 0.71806 0.87106 0.32442 0.0
C1902 C 0.70716 0.86033 0.34212 0.0
C1903 C 0.69421 0.88097 0.32885 0.0
C1904 C 0.6765 0.86465 0.35575 0.0
C1905 C 0.71466 0.83503 0.36481 0.0
N1906 N 0.68943 0.87543 0.33745 0.0
N1907 N 0.71918 0.84036 0.3562 0.0
H1908 H 0.22404 0.92808 0.32598 0.0
H1909 H 0.20133 0.80629 0.36804 0.0
H1910 H 0.17151 0.80597 0.32628 0.0
H1911 H 0.24979 0.92797 0.36839 0.0
H1912 H 0.19111 0.80621 0.35273 0.0
H1913 H 0.2343 0.92913 0.34139 0.0
C1914 C 0.21464 0.90144 0.3293 0.0
C1915 C 0.19695 0.86685 0.32485 0.0
C1916 C 0.20395 0.833 0.35612 0.0
C1917 C 0.20868 0.86785 0.3425 0.0
C1918 C 0.20985 0.8331 0.36488 0.0
C1919 C 0.22638 0.86722 0.3695 0.0
C1920 C 0.2147 0.86734 0.35187 0.0
C1921 C 0.23685 0.90105 0.36506 0.0
C1922 C 0.22052 0.90209 0.3381 0.0
C1923 C 0.18533 0.83324 0.32946 0.0
N1924 N 0.23085 0.90027 0.35648 0.0
N1925 N 0.19144 0.83459 0.33803 0.0
H1926 H 0.68979 0.80237 0.82469 0.0
H1927 H 0.73987 0.92419 0.8681 0.0
H1928 H 0.76657 0.92328 0.82577 0.0
H1929 H 0.66634 0.80267 0.86684 0.0
H1930 H 0.75015 0.925 0.8526 0.0
H1931 H 0.68056 0.80206 0.84018 0.0
C1932 C 0.70459 0.8288 0.82819 0.0
C1933 C 0.7288 0.86286 0.82395 0.0
C1934 C 0.73181 0.89816 0.85573 0.0
C1935 C 0.71866 0.86292 0.84166 0.0
C1936 C 0.72599 0.89776 0.86457 0.0
C1937 C 0.70224 0.86336 0.86876 0.0
C1938 C 0.71367 0.86392 0.85107 0.0
C1939 C 0.6849 0.82988 0.86388 0.0
C1940 C 0.69945 0.82869 0.83703 0.0
C1941 C 0.74759 0.89635 0.8288 0.0
N1942 N 0.6909 0.83101 0.85533 0.0
N1943 N 0.7421 0.89556 0.83737 0.0
H1944 H 0.14643 0.82423 0.86797 0.0
H1945 H 0.27214 0.90755 0.82532 0.0
H1946 H 0.26876 0.87817 0.86752 0.0
H1947 H 0.15052 0.86022 0.82623 0.0
H1948 H 0.27166 0.89557 0.84071 0.0
H1949 H 0.1471 0.8355 0.85256 0.0
C1950 C 0.17337 0.83849 0.86463 0.0
C1951 C 0.20754 0.85049 0.86903 0.0
C1952 C 0.24508 0.8878 0.83753 0.0
C1953 C 0.20873 0.86332 0.85141 0.0
C1954 C 0.24541 0.89462 0.82875 0.0
C1955 C 0.21136 0.88482 0.8245 0.0
C1956 C 0.21042 0.871 0.84207 0.0
C1957 C 0.17746 0.86825 0.82926 0.0
C1958 C 0.17382 0.8449 0.85584 0.0
C1959 C 0.24171 0.86853 0.86438 0.0
N1960 N 0.17784 0.86184 0.83776 0.0
N1961 N 0.24146 0.87441 0.85584 0.0
H1962 H 0.22675 0.32539 0.8265 0.0
H1963 H 0.18686 0.40993 0.86896 0.0
H1964 H 0.16854 0.38988 0.82639 0.0
H1965 H 0.24092 0.34155 0.86885 0.0
H1966 H 0.18025 0.40358 0.85344 0.0
H1967 H 0.23276 0.33188 0.84197 0.0
C1968 C 0.21527 0.34103 0.82975 0.0
C1969 C 0.19714 0.35717 0.82515 0.0
C1970 C 0.19348 0.38987 0.8568 0.0
C1971 C 0.20387 0.36468 0.84295 0.0
C1972 C 0.19725 0.39346 0.86566 0.0
C1973 C 0.21437 0.37613 0.8702 0.0
C1974 C 0.20705 0.36886 0.85241 0.0
C1975 C 0.2274 0.35522 0.8656 0.0
C1976 C 0.21868 0.34468 0.8386 0.0
C1977 C 0.18278 0.37707 0.82969 0.0
N1978 N 0.22351 0.35222 0.85697 0.0
N1979 N 0.18645 0.38027 0.83835 0.0
H1980 H 0.90648 0.68057 0.70048 0.0
H1981 H 0.80671 0.66572 0.65582 0.0
H1982 H 0.80377 0.68681 0.69815 0.0
H1983 H 0.9262 0.70249 0.65769 0.0
H1984 H 0.80304 0.66733 0.67134 0.0
H1985 H 0.91164 0.68149 0.68491 0.0
C1986 C 0.88479 0.68178 0.69669 0.0
C1987 C 0.85458 0.6836 0.70063 0.0
C1988 C 0.83016 0.67531 0.66838 0.0
C1989 C 0.86044 0.68469 0.68279 0.0
C1990 C 0.83231 0.6744 0.65952 0.0
C1991 C 0.86686 0.68409 0.65547 0.0
C1992 C 0.86265 0.68529 0.6733 0.0
C1993 C 0.89909 0.69506 0.66057 0.0
C1994 C 0.88798 0.68263 0.6878 0.0
C1995 C 0.82747 0.68533 0.69539 0.0
N1996 N 0.89614 0.695 0.66925 0.0
N1997 N 0.83096 0.68569 0.68674 0.0
H1998 H 0.417 0.17861 0.66027 0.0
H1999 H 0.3183 0.20587 0.70188 0.0
H2000 H 0.34572 0.2295 0.65956 0.0
H2001 H 0.39564 0.16204 0.70262 0.0
H2002 H 0.32667 0.21337 0.68642 0.0
H2003 H 0.40813 0.171 0.67568 0.0
C2004 C 0.39936 0.18816 0.66336 0.0
C2005 C 0.38205 0.20474 0.65861 0.0
C2006 C 0.34188 0.20215 0.68994 0.0
C2007 C 0.37175 0.19606 0.67635 0.0
C2008 C 0.33711 0.19782 0.69878 0.0
C2009 C 0.35641 0.18338 0.70355 0.0
C2010 C 0.36608 0.19185 0.68579 0.0
C2011 C 0.38036 0.17341 0.69919 0.0
C2012 C 0.39437 0.18383 0.67218 0.0
C2013 C 0.35956 0.21657 0.66297 0.0
N2014 N 0.38448 0.1778 0.69056 0.0
N2015 N 0.35505 0.21199 0.6716 0.0
H2016 H 0.90468 0.2665 0.65818 0.0
H2017 H 0.85252 0.14029 0.70061 0.0
H2018 H 0.84474 0.14398 0.65802 0.0
H2019 H 0.91304 0.26282 0.7008 0.0
H2020 H 0.84915 0.14119 0.68509 0.0
H2021 H 0.90834 0.2657 0.6737 0.0
C2022 C 0.89241 0.23934 0.66142 0.0
C2023 C 0.87439 0.2052 0.6568 0.0
C2024 C 0.86312 0.16793 0.68849 0.0
C2025 C 0.8783 0.20412 0.67465 0.0
C2026 C 0.86501 0.16748 0.69737 0.0
C2027 C 0.88309 0.20159 0.70201 0.0
C2028 C 0.87947 0.20278 0.68415 0.0
C2029 C 0.89875 0.2359 0.69747 0.0
C2030 C 0.89446 0.23895 0.6703 0.0
C2031 C 0.85897 0.17092 0.66134 0.0
N2032 N 0.89664 0.23563 0.68879 0.0
N2033 N 0.86121 0.17125 0.67002 0.0
H2034 H 0.39609 0.25854 0.20321 0.0
H2035 H 0.34422 0.13415 0.16017 0.0
H2036 H 0.31874 0.13765 0.20255 0.0
H2037 H 0.41622 0.25597 0.16106 0.0
H2038 H 0.3344 0.13412 0.17568 0.0
H2039 H 0.40418 0.25784 0.1877 0.0
C2040 C 0.38088 0.2319 0.19979 0.0
C2041 C 0.35684 0.19814 0.20415 0.0
C2042 C 0.35228 0.16084 0.17246 0.0
C2043 C 0.36577 0.19693 0.18642 0.0
C2044 C 0.35782 0.1608 0.16362 0.0
C2045 C 0.38106 0.19506 0.15932 0.0
C2046 C 0.37021 0.19538 0.17701 0.0
C2047 C 0.39808 0.22884 0.1641 0.0
C2048 C 0.3854 0.23143 0.19094 0.0
C2049 C 0.33761 0.16436 0.19942 0.0
N2050 N 0.39239 0.22813 0.17265 0.0
N2051 N 0.34252 0.16458 0.19083 0.0
H2052 H 0.94216 0.24337 0.15976 0.0
H2053 H 0.81753 0.17179 0.20288 0.0
H2054 H 0.82096 0.19891 0.16067 0.0
H2055 H 0.9395 0.22162 0.20222 0.0
H2056 H 0.81802 0.18107 0.18737 0.0
H2057 H 0.94198 0.23517 0.17531 0.0
C2058 C 0.91559 0.2319 0.16323 0.0
C2059 C 0.88157 0.22175 0.15892 0.0
C2060 C 0.8447 0.19003 0.19062 0.0
C2061 C 0.88096 0.21227 0.17668 0.0
C2062 C 0.84436 0.18474 0.19947 0.0
C2063 C 0.87848 0.19595 0.20384 0.0
C2064 C 0.87942 0.20656 0.18611 0.0
C2065 C 0.91249 0.21255 0.19911 0.0
C2066 C 0.91542 0.22724 0.1721 0.0
C2067 C 0.84788 0.2071 0.16373 0.0
N2068 N 0.9121 0.21728 0.19053 0.0
N2069 N 0.84842 0.20276 0.17232 0.0
H2070 H 0.88522 0.64475 0.15858 0.0
H2071 H 0.85738 0.74062 0.20052 0.0
H2072 H 0.83938 0.72042 0.15819 0.0
H2073 H 0.90881 0.66981 0.20087 0.0
H2074 H 0.84985 0.73273 0.18511 0.0
H2075 H 0.89346 0.65298 0.174 0.0
C2076 C 0.87693 0.66322 0.16175 0.0
C2077 C 0.86161 0.682 0.1571 0.0
C2078 C 0.86279 0.71886 0.18852 0.0
C2079 C 0.8709 0.69145 0.17482 0.0
C2080 C 0.86708 0.72329 0.19734 0.0
C2081 C 0.88376 0.7058 0.202 0.0
C2082 C 0.87519 0.69666 0.18425 0.0
C2083 C 0.89579 0.68375 0.19753 0.0
C2084 C 0.88167 0.66788 0.17057 0.0
C2085 C 0.85139 0.70552 0.16154 0.0
N2086 N 0.89125 0.67979 0.1889 0.0
N2087 N 0.85616 0.70953 0.17016 0.0
H2088 H 0.45618 0.89085 0.05937 0.0
H2089 H 0.61906 0.83348 0.05968 0.0
H2090 H 0.57269 0.968 0.06648 0.0
H2091 H 0.50066 0.75318 0.05504 0.0
H2092 H 0.60232 0.88267 0.06241 0.0
H2093 H 0.47123 0.83965 0.05827 0.0
C2094 C 0.48481 0.89702 0.06082 0.0
C2095 C 0.51317 0.93407 0.06302 0.0
C2096 C 0.57994 0.85426 0.06083 0.0
C2097 C 0.5308 0.87529 0.06161 0.0
C2098 C 0.58953 0.82614 0.0592 0.0
C2099 C 0.56132 0.78895 0.05707 0.0
C2100 C 0.54178 0.84547 0.06029 0.0
C2101 C 0.52342 0.78123 0.05672 0.0
C2102 C 0.49343 0.86769 0.06015 0.0
C2103 C 0.54978 0.94005 0.06478 0.0
N2104 N 0.51485 0.80919 0.05825 0.0
N2105 N 0.55756 0.91117 0.06397 0.0
H2106 H 0.09931 0.62545 0.06756 0.0
H2107 H 0.30735 0.76536 0.04856 0.0
H2108 H 0.17073 0.58754 0.05572 0.0
H2109 H 0.24138 0.80555 0.062 0.0
H2110 H 0.25756 0.70003 0.05139 0.0
H2111 H 0.15111 0.69135 0.06605 0.0
C2112 C 0.12591 0.63083 0.06473 0.0
C2113 C 0.13039 0.60063 0.06174 0.0
C2114 C 0.25394 0.72308 0.05375 0.0
C2115 C 0.1898 0.67625 0.05991 0.0
C2116 C 0.28234 0.76049 0.05208 0.0
C2117 C 0.27863 0.7912 0.055 0.0
C2118 C 0.22122 0.71598 0.05834 0.0
C2119 C 0.24572 0.7829 0.05968 0.0
C2120 C 0.15547 0.66854 0.06384 0.0
C2121 C 0.16564 0.60964 0.0581 0.0
N2122 N 0.21827 0.74618 0.06116 0.0
N2123 N 0.19372 0.64645 0.05725 0.0
H2124 H 0.25307 0.43651 0.06097 0.0
H2125 H 0.47355 0.59695 0.05846 0.0
H2126 H 0.29458 0.54828 0.05026 0.0
H2127 H 0.43627 0.4822 0.06675 0.0
H2128 H 0.4075 0.58045 0.0567 0.0
H2129 H 0.31884 0.45338 0.06425 0.0
C2130 C 0.27592 0.46465 0.05934 0.0
C2131 C 0.26807 0.4909 0.05527 0.0
C2132 C 0.41361 0.55883 0.05895 0.0
C2133 C 0.34365 0.5104 0.05901 0.0
C2134 C 0.45153 0.56827 0.05999 0.0
C2135 C 0.46084 0.54092 0.06273 0.0
C2136 C 0.38429 0.52164 0.06063 0.0
C2137 C 0.43065 0.5043 0.06463 0.0
C2138 C 0.31351 0.4742 0.06119 0.0
C2139 C 0.29907 0.52682 0.05326 0.0
N2140 N 0.39379 0.49568 0.0635 0.0
N2141 N 0.33526 0.53543 0.05515 0.0
H2142 H 0.98909 0.58112 0.46005 0.0
H2143 H 0.77148 0.51301 0.47185 0.0
H2144 H 0.9076 0.46717 0.46806 0.0
H2145 H 0.85414 0.62903 0.46559 0.0
H2146 H 0.82009 0.49512 0.46962 0.0
H2147 H 0.93915 0.59818 0.46094 0.0
C2148 C 0.96067 0.55951 0.4619 0.0
C2149 C 0.9528 0.52259 0.464 0.0
C2150 C 0.82763 0.5245 0.46871 0.0
C2151 C 0.8953 0.5422 0.46511 0.0
C2152 C 0.79986 0.53485 0.47005 0.0
C2153 C 0.80853 0.57275 0.46898 0.0
C2154 C 0.86463 0.55213 0.46627 0.0
C2155 C 0.84581 0.59943 0.46643 0.0
C2156 C 0.93215 0.56938 0.46245 0.0
C2157 C 0.91528 0.49601 0.4664 0.0
N2158 N 0.8724 0.58866 0.4652 0.0
N2159 N 0.88814 0.50636 0.46691 0.0
H2160 H 0.46503 0.25543 0.46402 0.0
H2161 H 0.61723 0.47562 0.47152 0.0
H2162 H 0.56702 0.2956 0.47905 0.0
H2163 H 0.51146 0.43794 0.45812 0.0
H2164 H 0.60144 0.40967 0.47316 0.0
H2165 H 0.48335 0.32148 0.46078 0.0
C2166 C 0.49138 0.27807 0.4666 0.0
C2167 C 0.51437 0.26975 0.47186 0.0
C2168 C 0.58172 0.41572 0.46981 0.0
C2169 C 0.53551 0.34566 0.46818 0.0
C2170 C 0.5908 0.45353 0.46883 0.0
C2171 C 0.56559 0.46257 0.4647 0.0
C2172 C 0.54706 0.38635 0.46665 0.0
C2173 C 0.53182 0.43246 0.46134 0.0
C2174 C 0.50174 0.31582 0.46477 0.0
C2175 C 0.54802 0.30046 0.47508 0.0
N2176 N 0.52344 0.39573 0.46244 0.0
N2177 N 0.55749 0.33687 0.4732 0.0
H2178 H 0.82076 0.22485 0.47001 0.0
H2179 H 0.60205 0.16967 0.46704 0.0
H2180 H 0.7825 0.30674 0.47069 0.0
H2181 H 0.63973 0.08886 0.46242 0.0
H2182 H 0.6682 0.22005 0.46818 0.0
H2183 H 0.75521 0.17458 0.46723 0.0
C2184 C 0.79863 0.23231 0.46959 0.0
C2185 C 0.80734 0.27024 0.47061 0.0
C2186 C 0.66213 0.19139 0.46685 0.0
C2187 C 0.73205 0.21266 0.46738 0.0
C2188 C 0.62423 0.16249 0.46618 0.0
C2189 C 0.61509 0.12477 0.46465 0.0
C2190 C 0.69148 0.18272 0.46607 0.0
C2191 C 0.6453 0.11747 0.46357 0.0
C2192 C 0.76121 0.20359 0.46794 0.0
C2193 C 0.7774 0.2781 0.46987 0.0
N2194 N 0.68208 0.14607 0.46439 0.0
N2195 N 0.74123 0.24964 0.46836 0.0
H2196 H 0.5747 0.30761 0.97056 0.0
H2197 H 0.50386 0.08929 0.95921 0.0
H2198 H 0.45772 0.2259 0.96486 0.0
H2199 H 0.61814 0.17044 0.96705 0.0
H2200 H 0.48723 0.13966 0.95999 0.0
H2201 H 0.5916 0.25842 0.96826 0.0
C2202 C 0.55245 0.27931 0.96886 0.0
C2203 C 0.51459 0.27107 0.96798 0.0
C2204 C 0.51601 0.14645 0.96148 0.0
C2205 C 0.53403 0.21425 0.9652 0.0
C2206 C 0.52561 0.11771 0.96099 0.0
C2207 C 0.56248 0.1254 0.9631 0.0
C2208 C 0.54346 0.18327 0.96407 0.0
C2209 C 0.58929 0.16288 0.96541 0.0
C2210 C 0.56222 0.25119 0.96749 0.0
C2211 C 0.48732 0.23386 0.96556 0.0
N2212 N 0.57923 0.19019 0.96586 0.0
N2213 N 0.49752 0.20689 0.96429 0.0
H2214 H 0.91072 0.47766 0.97091 0.0
H2215 H 0.8442 0.25768 0.96367 0.0
H2216 H 0.98058 0.44006 0.9582 0.0
H2217 H 0.7809 0.2978 0.97822 0.0
H2218 H 0.89194 0.32373 0.96046 0.0
H2219 H 0.86035 0.41173 0.97233 0.0
C2220 C 0.91541 0.45558 0.96833 0.0
C2221 C 0.9502 0.46459 0.96447 0.0
C2222 C 0.86756 0.31805 0.96434 0.0
C2223 C 0.89233 0.38848 0.96617 0.0
C2224 C 0.84019 0.28032 0.96615 0.0
C2225 C 0.8085 0.27204 0.97128 0.0
C2226 C 0.86318 0.34785 0.96763 0.0
C2227 C 0.80509 0.30269 0.97437 0.0
C2228 C 0.88656 0.4178 0.96917 0.0
C2229 C 0.95431 0.43456 0.96122 0.0
N2230 N 0.83202 0.33908 0.97251 0.0
N2231 N 0.92586 0.39785 0.9622 0.0
H2232 H 0.64476 0.58203 0.95982 0.0
H2233 H 0.79427 0.51455 0.97234 0.0
H2234 H 0.61252 0.46912 0.9686 0.0
H2235 H 0.82794 0.62966 0.96509 0.0
H2236 H 0.72783 0.49668 0.97005 0.0
H2237 H 0.71181 0.59902 0.96068 0.0
C2238 C 0.65164 0.56063 0.96182 0.0
C2239 C 0.62265 0.52403 0.96415 0.0
C2240 C 0.74971 0.52586 0.96893 0.0
C2241 C 0.69975 0.54352 0.96523 0.0
C2242 C 0.78785 0.5361 0.9702 0.0
C2243 C 0.81714 0.57379 0.96892 0.0
C2244 C 0.74037 0.55338 0.96635 0.0
C2245 C 0.80655 0.60039 0.96628 0.0
C2246 C 0.69004 0.57045 0.96236 0.0
C2247 C 0.63364 0.49771 0.96675 0.0
N2248 N 0.7692 0.58971 0.96508 0.0
N2249 N 0.6711 0.50798 0.96725 0.0
H2250 H 0.31497 0.56013 0.55518 0.0
H2251 H 0.09556 0.48524 0.56637 0.0
H2252 H 0.23093 0.44122 0.55724 0.0
H2253 H 0.17568 0.60132 0.55952 0.0
H2254 H 0.14626 0.4695 0.56483 0.0
H2255 H 0.26574 0.57631 0.55838 0.0
C2256 C 0.28622 0.53737 0.55636 0.0
C2257 C 0.27721 0.49919 0.55592 0.0
C2258 C 0.15278 0.49847 0.56373 0.0
C2259 C 0.22037 0.51765 0.55958 0.0
C2260 C 0.12388 0.50759 0.56467 0.0
C2261 C 0.13117 0.54471 0.56306 0.0
C2262 C 0.18942 0.52668 0.5612 0.0
C2263 C 0.16851 0.57229 0.56081 0.0
C2264 C 0.25803 0.54666 0.55815 0.0
C2265 C 0.2392 0.47101 0.55741 0.0
N2266 N 0.19608 0.56271 0.55993 0.0
N2267 N 0.21227 0.48079 0.55918 0.0
H2268 H 0.46146 0.58743 0.55709 0.0
H2269 H 0.61241 0.80769 0.56489 0.0
H2270 H 0.57002 0.62604 0.56931 0.0
H2271 H 0.5097 0.76773 0.55014 0.0
H2272 H 0.59494 0.74165 0.56779 0.0
H2273 H 0.47599 0.65317 0.55588 0.0
C2274 C 0.48823 0.60963 0.55962 0.0
C2275 C 0.51461 0.6009 0.56328 0.0
C2276 C 0.57617 0.74732 0.56394 0.0
C2277 C 0.53161 0.67688 0.56182 0.0
C2278 C 0.58603 0.78507 0.56231 0.0
C2279 C 0.56258 0.79346 0.55723 0.0
C2280 C 0.54244 0.71751 0.56052 0.0
C2281 C 0.52897 0.76279 0.55399 0.0
C2282 C 0.49657 0.64732 0.55888 0.0
C2283 C 0.54876 0.63121 0.56644 0.0
N2284 N 0.51996 0.72633 0.55568 0.0
N2285 N 0.55635 0.66778 0.56559 0.0
H2286 H 0.48264 0.8916 0.55744 0.0
H2287 H 0.26123 0.82204 0.56449 0.0
H2288 H 0.44209 0.95994 0.56969 0.0
H2289 H 0.30204 0.76028 0.5496 0.0
H2290 H 0.32713 0.8697 0.56775 0.0
H2291 H 0.41687 0.84013 0.55599 0.0
C2292 C 0.46004 0.89569 0.55996 0.0
C2293 C 0.4682 0.93046 0.56367 0.0
C2294 C 0.32168 0.84567 0.56379 0.0
C2295 C 0.39235 0.87139 0.56192 0.0
C2296 C 0.28397 0.81828 0.56195 0.0
C2297 C 0.27584 0.78701 0.55672 0.0
C2298 C 0.35174 0.84185 0.56042 0.0
C2299 C 0.30676 0.78411 0.55355 0.0
C2300 C 0.42236 0.86626 0.55906 0.0
C2301 C 0.43741 0.93382 0.56676 0.0
N2302 N 0.34318 0.81108 0.55544 0.0
N2303 N 0.40098 0.90485 0.56577 0.0
H2304 H 0.30444 0.17973 0.38964 0.0
H2305 H 0.13975 0.23314 0.39407 0.0
H2306 H 0.18459 0.09712 0.38955 0.0
H2307 H 0.25856 0.31501 0.39772 0.0
H2308 H 0.15608 0.1832 0.39258 0.0
H2309 H 0.28882 0.22973 0.39255 0.0
C2310 C 0.27484 0.17205 0.39021 0.0
C2311 C 0.24583 0.13397 0.38933 0.0
C2312 C 0.17863 0.212 0.39377 0.0
C2313 C 0.22772 0.1913 0.39272 0.0
C2314 C 0.16931 0.24067 0.39464 0.0
C2315 C 0.1978 0.27857 0.39601 0.0
C2316 C 0.21685 0.22106 0.39419 0.0
C2317 C 0.23558 0.28627 0.3967 0.0
C2318 C 0.26596 0.20063 0.39193 0.0
C2319 C 0.20801 0.12587 0.39026 0.0
N2320 N 0.24403 0.25788 0.3957 0.0
N2321 N 0.20012 0.15419 0.39185 0.0
H2322 H 0.90598 0.14647 0.39521 0.0
H2323 H 0.84477 0.92622 0.39087 0.0
H2324 H 0.97689 0.10594 0.38432 0.0
H2325 H 0.76786 0.96327 0.39983 0.0
H2326 H 0.89482 0.99227 0.38964 0.0
H2327 H 0.85673 0.08046 0.39802 0.0
C2328 C 0.91136 0.12378 0.39346 0.0
C2329 C 0.94573 0.132 0.38946 0.0
C2330 C 0.8671 0.98609 0.39192 0.0
C2331 C 0.88922 0.05612 0.39266 0.0
C2332 C 0.83834 0.94818 0.39265 0.0
C2333 C 0.80169 0.93883 0.39543 0.0
C2334 C 0.85952 1.01537 0.39395 0.0
C2335 C 0.79556 0.96892 0.39767 0.0
C2336 C 0.8831 0.08604 0.39503 0.0
C2337 C 0.95074 0.10119 0.38727 0.0
N2338 N 0.82406 1.00577 0.39683 0.0
N2339 N 0.92293 0.06484 0.38889 0.0
H2340 H 0.96964 0.90125 0.38737 0.0
H2341 H 0.1138 0.82685 0.39938 0.0
H2342 H 0.93477 0.78253 0.39012 0.0
H2343 H 0.15005 0.9424 0.39194 0.0
H2344 H 0.0475 0.81122 0.39773 0.0
H2345 H 0.03505 0.91763 0.39061 0.0
C2346 C 0.97564 0.87858 0.38872 0.0
C2347 C 0.94648 0.84039 0.38845 0.0
C2348 C 0.06998 0.84005 0.39652 0.0
C2349 C 1.02172 0.85906 0.39215 0.0
C2350 C 0.10792 0.84911 0.39752 0.0
C2351 C 0.13779 0.88603 0.39577 0.0
C2352 C 0.06165 0.86812 0.39381 0.0
C2353 C 0.12814 0.91351 0.39333 0.0
C2354 C 1.01311 0.88798 0.39052 0.0
C2355 C 0.95628 0.81232 0.39014 0.0
N2356 N 0.09105 0.90398 0.3924 0.0
N2357 N 0.99297 0.82219 0.39193 0.0
H2358 H 0.4368 0.83667 0.80403 0.0
H2359 H 0.65875 0.91306 0.79535 0.0
H2360 H 0.52116 0.95587 0.80359 0.0
H2361 H 0.57537 0.79524 0.79961 0.0
H2362 H 0.60825 0.92935 0.79679 0.0
H2363 H 0.4866 0.82124 0.80097 0.0
C2364 C 0.46574 0.85969 0.80323 0.0
C2365 C 0.47459 0.8977 0.80409 0.0
C2366 C 0.60102 0.89991 0.79735 0.0
C2367 C 0.53225 0.88006 0.80061 0.0
C2368 C 0.62983 0.89053 0.79646 0.0
C2369 C 0.6215 0.85268 0.79738 0.0
C2370 C 0.56348 0.87124 0.79912 0.0
C2371 C 0.58339 0.82483 0.7989 0.0
C2372 C 0.49429 0.85081 0.80152 0.0
C2373 C 0.51291 0.92616 0.80309 0.0
N2374 N 0.556 0.83466 0.79973 0.0
N2375 N 0.54024 0.91678 0.80141 0.0
H2376 H 0.2833 0.80687 0.80113 0.0
H2377 H 0.119 0.58828 0.80294 0.0
H2378 H 0.16536 0.76928 0.79581 0.0
H2379 H 0.23816 0.62578 0.80631 0.0
H2380 H 0.13534 0.65396 0.80014 0.0
H2381 H 0.26742 0.74074 0.8026 0.0
C2382 C 0.25405 0.78475 0.80019 0.0
C2383 C 0.22563 0.79394 0.79836 0.0
C2384 C 0.15795 0.64786 0.80147 0.0
C2385 C 0.20712 0.71756 0.80015 0.0
C2386 C 0.14862 0.6103 0.80315 0.0
C2387 C 0.17718 0.60125 0.80494 0.0
C2388 C 0.19619 0.67694 0.80161 0.0
C2389 C 0.21512 0.63115 0.80492 0.0
C2390 C 0.245 0.74685 0.80105 0.0
C2391 C 0.18829 0.76375 0.79719 0.0
N2392 N 0.22345 0.66752 0.80332 0.0
N2393 N 0.18011 0.72703 0.79818 0.0
H2394 H 0.44429 0.64398 0.80941 0.0
H2395 H 0.30194 0.43435 0.7918 0.0
H2396 H 0.48076 0.5669 0.80036 0.0
H2397 H 0.26338 0.50311 0.80463 0.0
H2398 H 0.3675 0.48566 0.79343 0.0
H2399 H 0.37825 0.5957 0.8064 0.0
C2400 C 0.43851 0.61702 0.80674 0.0
C2401 C 0.46835 0.6096 0.80517 0.0
C2402 C 0.34472 0.48968 0.79584 0.0
C2403 C 0.39246 0.55397 0.80171 0.0
C2404 C 0.30709 0.46039 0.79487 0.0
C2405 C 0.27677 0.46414 0.7981 0.0
C2406 C 0.35245 0.5233 0.80006 0.0
C2407 C 0.28564 0.49875 0.80203 0.0
C2408 C 0.4007 0.58937 0.80506 0.0
C2409 C 0.45883 0.57385 0.80179 0.0
N2410 N 0.32258 0.52684 0.80293 0.0
N2411 N 0.42187 0.54752 0.80018 0.0
H2412 H 0.28128 0.49653 0.30482 0.0
H2413 H 0.13211 0.56804 0.29616 0.0
H2414 H 0.17487 0.42852 0.29168 0.0
H2415 H 0.23273 0.62838 0.31166 0.0
H2416 H 0.14952 0.51929 0.29333 0.0
H2417 H 0.26644 0.54754 0.30611 0.0
C2418 C 0.25488 0.49235 0.30212 0.0
C2419 C 0.22922 0.45788 0.29816 0.0
C2420 C 0.16783 0.54324 0.29733 0.0
C2421 C 0.21184 0.51663 0.2997 0.0
C2422 C 0.15802 0.57124 0.29892 0.0
C2423 C 0.18089 0.60246 0.30419 0.0
C2424 C 0.20095 0.54645 0.30098 0.0
C2425 C 0.21388 0.60467 0.30766 0.0
C2426 C 0.24636 0.52159 0.3029 0.0
C2427 C 0.19556 0.4545 0.29478 0.0
N2428 N 0.22286 0.57715 0.306 0.0
N2429 N 0.18776 0.48337 0.29566 0.0
H2430 H 0.51542 0.57803 0.29743 0.0
H2431 H 0.5677 0.79591 0.30129 0.0
H2432 H 0.4355 0.61306 0.30523 0.0
H2433 H 0.64674 0.76197 0.29214 0.0
H2434 H 0.51839 0.72914 0.30212 0.0
H2435 H 0.56326 0.64476 0.29507 0.0
C2436 C 0.50786 0.59967 0.29868 0.0
C2437 C 0.47116 0.58959 0.30158 0.0
C2438 C 0.54641 0.73622 0.29986 0.0
C2439 C 0.52608 0.6665 0.29879 0.0
C2440 C 0.5747 0.77451 0.29936 0.0
C2441 C 0.61172 0.7849 0.29665 0.0
C2442 C 0.55497 0.70771 0.29771 0.0
C2443 C 0.61872 0.75555 0.29424 0.0
C2444 C 0.53521 0.63785 0.29726 0.0
C2445 C 0.46312 0.61915 0.30292 0.0
N2446 N 0.59079 0.71841 0.29489 0.0
N2447 N 0.49029 0.65606 0.30156 0.0
H2448 H 0.30149 0.88797 0.29062 0.0
H2449 H 0.44168 0.82679 0.31233 0.0
H2450 H 0.26263 0.78227 0.30415 0.0
H2451 H 0.48079 0.92794 0.29703 0.0
H2452 H 0.37601 0.80911 0.30899 0.0
H2453 H 0.36701 0.90143 0.29221 0.0
C2454 C 0.30658 0.86727 0.29381 0.0
C2455 C 0.27624 0.83395 0.29728 0.0
C2456 C 0.39893 0.8351 0.30633 0.0
C2457 C 0.35167 0.84962 0.29925 0.0
C2458 C 0.43651 0.8454 0.30829 0.0
C2459 C 0.46701 0.8791 0.30501 0.0
C2460 C 0.39148 0.85872 0.30108 0.0
C2461 C 0.45834 0.9016 0.29967 0.0
C2462 C 0.34413 0.8751 0.29475 0.0
C2463 C 0.28491 0.80834 0.30137 0.0
N2464 N 0.42149 0.89115 0.29792 0.0
N2465 N 0.32172 0.81688 0.30231 0.0
H2466 H 0.98191 0.89267 0.88746 0.0
H2467 H 0.76445 0.82007 0.90019 0.0
H2468 H 0.8981 0.77405 0.89027 0.0
H2469 H 0.84297 0.93422 0.89178 0.0
H2470 H 0.81485 0.80385 0.89847 0.0
H2471 H 0.93308 0.90925 0.89078 0.0
C2472 C 0.95329 0.87007 0.88883 0.0
C2473 C 0.94422 0.83185 0.88857 0.0
C2474 C 0.82108 0.83251 0.89707 0.0
C2475 C 0.88784 0.85075 0.89237 0.0
C2476 C 0.7924 0.8419 0.89811 0.0
C2477 C 0.79936 0.87858 0.89611 0.0
C2478 C 0.85716 0.86007 0.89407 0.0
C2479 C 0.83613 0.90554 0.89337 0.0
C2480 C 0.92532 0.87958 0.89069 0.0
C2481 C 0.90638 0.80385 0.8903 0.0
N2482 N 0.8635 0.89574 0.89242 0.0
N2483 N 0.87965 0.81384 0.89214 0.0
H2484 H 0.27234 0.1389 0.89888 0.0
H2485 H 0.12656 0.91871 0.88969 0.0
H2486 H 0.1733 0.0983 0.88282 0.0
H2487 H 0.23421 0.95809 0.90241 0.0
H2488 H 0.13989 0.98406 0.88871 0.0
H2489 H 0.25575 0.07297 0.90165 0.0
C2490 C 0.24693 0.11614 0.89598 0.0
C2491 C 0.22426 0.12427 0.89057 0.0
C2492 C 0.16054 0.97847 0.89176 0.0
C2493 C 0.20515 0.0486 0.89371 0.0
C2494 C 0.15288 0.94099 0.89237 0.0
C2495 C 0.17939 0.93263 0.8961 0.0
C2496 C 0.195 1.00816 0.89491 0.0
C2497 C 0.21291 0.96301 0.89947 0.0
C2498 C 0.2376 0.0785 0.89754 0.0
C2499 C 0.19192 0.09352 0.88693 0.0
N2500 N 0.21985 0.99941 0.89875 0.0
N2501 N 0.18337 0.05718 0.88857 0.0
H2502 H 0.9267 0.16712 0.89827 0.0
H2503 H 0.14629 0.22428 0.89386 0.0
H2504 H 0.96313 0.09006 0.88917 0.0
H2505 H 0.10906 0.29988 0.90355 0.0
H2506 H 0.07977 0.17368 0.89293 0.0
H2507 H 0.99316 0.21493 0.9008 0.0
C2508 C 0.94859 0.16018 0.89677 0.0
C2509 C 0.93892 0.12429 0.89344 0.0
C2510 C 0.08615 0.20122 0.89534 0.0
C2511 C 1.01575 0.17931 0.89643 0.0
C2512 C 0.12428 0.23021 0.89592 0.0
C2513 C 0.13366 0.26671 0.89878 0.0
C2514 C 0.05687 0.20859 0.8976 0.0
C2515 C 0.10353 0.27237 0.90131 0.0
C2516 C 0.98667 0.18753 0.89828 0.0
C2517 C 0.96888 0.11704 0.8918 0.0
N2518 N 0.06669 0.24385 0.9006 0.0
N2519 N 1.00576 0.14425 0.89327 0.0
H2520 H 0.84701 0.4266 0.71912 0.0
H2521 H 0.9048 0.63581 0.73565 0.0
H2522 H 0.95794 0.50595 0.72907 0.0
H2523 H 0.79852 0.56123 0.72311 0.0
H2524 H 0.92228 0.58632 0.73458 0.0
H2525 H 0.82675 0.47329 0.72169 0.0
C2526 C 0.86709 0.45371 0.7219 0.0
C2527 C 0.90437 0.4622 0.72385 0.0
C2528 C 0.89501 0.58065 0.73211 0.0
C2529 C 0.88124 0.51619 0.72679 0.0
C2530 C 0.88486 0.60888 0.73277 0.0
C2531 C 0.85011 0.60287 0.72945 0.0
C2532 C 0.87026 0.54596 0.72811 0.0
C2533 C 0.82563 0.56731 0.72575 0.0
C2534 C 0.85551 0.48049 0.72333 0.0
C2535 C 0.92913 0.49818 0.72734 0.0
N2536 N 0.83622 0.54037 0.72515 0.0
N2537 N 0.91715 0.52372 0.72869 0.0
H2538 H 0.42799 0.29863 0.73585 0.0
H2539 H 0.6444 0.4505 0.72418 0.0
H2540 H 0.50967 0.26864 0.72645 0.0
H2541 H 0.5606 0.48198 0.73091 0.0
H2542 H 0.59677 0.38382 0.72635 0.0
H2543 H 0.4775 0.36571 0.7355 0.0
C2544 C 0.45637 0.30601 0.73381 0.0
C2545 C 0.46448 0.27775 0.73114 0.0
C2546 C 0.58877 0.40528 0.72739 0.0
C2547 C 0.52133 0.35472 0.73067 0.0
C2548 C 0.61609 0.44348 0.72619 0.0
C2549 C 0.60661 0.47209 0.72734 0.0
C2550 C 0.55153 0.39533 0.72977 0.0
C2551 C 0.56915 0.46097 0.72983 0.0
C2552 C 0.48461 0.3444 0.73357 0.0
C2553 C 0.50187 0.28927 0.72853 0.0
N2554 N 0.54303 0.42354 0.73095 0.0
N2555 N 0.52875 0.32674 0.72833 0.0
H2556 H 0.63628 0.23139 0.7147 0.0
H2557 H 0.7794 0.1733 0.73619 0.0
H2558 H 0.59815 0.13056 0.73007 0.0
H2559 H 0.81508 0.27705 0.72206 0.0
H2560 H 0.71313 0.1583 0.73473 0.0
H2561 H 0.70203 0.24912 0.71779 0.0
C2562 C 0.64171 0.21283 0.7187 0.0
C2563 C 0.61151 0.17924 0.72207 0.0
C2564 C 0.73554 0.1845 0.73202 0.0
C2565 C 0.68714 0.19966 0.72573 0.0
C2566 C 0.77344 0.1932 0.73289 0.0
C2567 C 0.803 0.22641 0.7292 0.0
C2568 C 0.7271 0.20915 0.72742 0.0
C2569 C 0.79338 0.25099 0.72497 0.0
C2570 C 0.67935 0.22314 0.72052 0.0
C2571 C 0.62046 0.1568 0.72736 0.0
N2572 N 0.75639 0.24173 0.72415 0.0
N2573 N 0.65742 0.16728 0.72898 0.0
H2574 H 0.24281 0.12417 0.13751 0.0
H2575 H 0.18108 0.28268 0.13224 0.0
H2576 H 0.31711 0.23504 0.12676 0.0
H2577 H 0.11332 0.17502 0.14493 0.0
H2578 H 0.22909 0.26447 0.12905 0.0
H2579 H 0.19309 0.14078 0.13898 0.0
C2580 C 0.24865 0.15195 0.13537 0.0
C2581 C 0.28448 0.17828 0.13203 0.0
C2582 C 0.20367 0.24483 0.13252 0.0
C2583 C 0.22722 0.19773 0.1338 0.0
C2584 C 0.17613 0.25513 0.13431 0.0
C2585 C 0.14306 0.23049 0.13892 0.0
C2586 C 0.19811 0.20946 0.13529 0.0
C2587 C 0.13853 0.19529 0.1415 0.0
C2588 C 0.22014 0.16148 0.13625 0.0
C2589 C 0.29 0.21377 0.12936 0.0
N2590 N 0.16563 0.18591 0.13965 0.0
N2591 N 0.26181 0.22254 0.13035 0.0
H2592 H 0.95305 0.14033 0.13664 0.0
H2593 H 0.79449 0.91995 0.13269 0.0
H2594 H 0.83854 0.10282 0.1281 0.0
H2595 H 0.90671 0.96093 0.14311 0.0
H2596 H 0.81086 0.98585 0.12985 0.0
H2597 H 0.9375 0.07435 0.13779 0.0
C2598 C 0.92464 0.11828 0.13493 0.0
C2599 C 0.89704 0.12745 0.1323 0.0
C2600 C 0.8319 0.98038 0.13274 0.0
C2601 C 0.87885 0.05106 0.1337 0.0
C2602 C 0.82264 0.94272 0.13433 0.0
C2603 C 0.84915 0.9347 0.13821 0.0
C2604 C 0.86806 1.01039 0.13498 0.0
C2605 C 0.88507 0.96557 0.14025 0.0
C2606 C 0.91574 0.08042 0.13562 0.0
C2607 C 0.8608 0.09729 0.13015 0.0
N2608 N 0.89338 1.00184 0.13862 0.0
N2609 N 0.85269 0.06049 0.13094 0.0
H2610 H 0.12267 0.9681 0.13708 0.0
H2611 H 0.97408 0.74916 0.1266 0.0
H2612 H 0.15649 0.88417 0.13268 0.0
H2613 H 0.94138 0.8319 0.13343 0.0
H2614 H 0.04108 0.79902 0.12751 0.0
H2615 H 0.05651 0.91937 0.13472 0.0
C2616 C 0.11632 0.93943 0.13566 0.0
C2617 C 0.1456 0.93047 0.13515 0.0
C2618 C 1.01921 0.80629 0.12875 0.0
C2619 C 0.06922 0.87416 0.13229 0.0
C2620 C 0.98085 0.77782 0.12818 0.0
C2621 C 0.95174 0.78609 0.12996 0.0
C2622 C 0.02874 0.84345 0.1311 0.0
C2623 C 0.96259 0.8239 0.13203 0.0
C2624 C 0.07838 0.91157 0.13425 0.0
C2625 C 0.13521 0.89276 0.13307 0.0
N2626 N 1.00001 0.85096 0.13257 0.0
N2627 N 0.09802 0.86609 0.13175 0.0
H2628 H 0.94824 0.83774 0.63305 0.0
H2629 H 0.78572 0.89476 0.62988 0.0
H2630 H 0.83509 0.76149 0.62372 0.0
H2631 H 0.9015 0.97277 0.63731 0.0
H2632 H 0.80336 0.84609 0.62726 0.0
H2633 H 0.93218 0.88806 0.63406 0.0
C2634 C 0.92011 0.83159 0.63111 0.0
C2635 C 0.893 0.79505 0.62831 0.0
C2636 C 0.82495 0.87391 0.62943 0.0
C2637 C 0.87416 0.8529 0.62957 0.0
C2638 C 0.81483 0.9017 0.63099 0.0
C2639 C 0.84208 0.93808 0.63386 0.0
C2640 C 0.86262 0.88229 0.63079 0.0
C2641 C 0.87953 0.94539 0.63503 0.0
C2642 C 0.91092 0.86044 0.63172 0.0
C2643 C 0.85703 0.78911 0.62589 0.0
N2644 N 0.88858 0.91779 0.63353 0.0
N2645 N 0.84858 0.81756 0.62665 0.0
H2646 H 0.31264 0.10117 0.62597 0.0
H2647 H 0.09647 0.9594 0.64004 0.0
H2648 H 0.23876 0.13867 0.63661 0.0
H2649 H 0.17664 0.92173 0.63453 0.0
H2650 H 0.1462 0.02486 0.63719 0.0
H2651 H 0.26103 0.03516 0.62733 0.0
C2652 C 0.28545 0.09563 0.62848 0.0
C2653 C 0.28018 0.12567 0.6312 0.0
C2654 C 0.15294 1.0023 0.63659 0.0
C2655 C 0.22094 0.04997 0.63282 0.0
C2656 C 0.12446 0.96482 0.63817 0.0
C2657 C 0.13227 0.93484 0.63754 0.0
C2658 C 0.18965 1.01013 0.63428 0.0
C2659 C 0.16935 0.94387 0.6352 0.0
C2660 C 0.25606 0.05787 0.62931 0.0
C2661 C 0.2443 0.11655 0.63446 0.0
N2662 N 0.19657 0.9806 0.63364 0.0
N2663 N 0.21619 0.07965 0.63519 0.0
H2664 H 0.16111 0.29042 0.62983 0.0
H2665 H 0.94267 0.12874 0.63532 0.0
H2666 H 0.12529 0.17781 0.63939 0.0
H2667 H 0.9775 0.23726 0.62349 0.0
H2668 H 1.00935 0.14565 0.63641 0.0
H2669 H 0.09442 0.27146 0.62726 0.0
C2670 C 0.13928 0.26173 0.63142 0.0
C2671 C 0.14907 0.23576 0.63487 0.0
C2672 C 1.00248 0.16569 0.63351 0.0
C2673 C 0.07231 0.2137 0.63185 0.0
C2674 C 0.96428 0.15601 0.63286 0.0
C2675 C 0.95425 0.18161 0.62932 0.0
C2676 C 0.03119 0.20147 0.63066 0.0
C2677 C 0.98373 0.21651 0.62624 0.0
C2678 C 0.10115 0.25084 0.62988 0.0
C2679 C 0.11935 0.19877 0.63665 0.0
N2680 N 1.02079 0.22552 0.62705 0.0
N2681 N 0.08248 0.18898 0.63516 0.0
H2682 H 0.43116 0.15579 0.23596 0.0
H2683 H 0.64582 0.22151 0.22192 0.0
H2684 H 0.51051 0.26718 0.22615 0.0
H2685 H 0.56733 0.10847 0.23097 0.0
H2686 H 0.59722 0.23929 0.22421 0.0
H2687 H 0.48133 0.13886 0.23516 0.0
C2688 C 0.45916 0.17687 0.23373 0.0
C2689 C 0.46638 0.21298 0.23109 0.0
C2690 C 0.59055 0.21058 0.22572 0.0
C2691 C 0.52398 0.19358 0.23008 0.0
C2692 C 0.61831 0.2003 0.22435 0.0
C2693 C 0.61076 0.16327 0.22618 0.0
C2694 C 0.55466 0.18373 0.22893 0.0
C2695 C 0.57468 0.13741 0.22952 0.0
C2696 C 0.48778 0.16708 0.23324 0.0
C2697 C 0.50331 0.23894 0.22823 0.0
N2698 N 0.54799 0.14805 0.23074 0.0
N2699 N 0.5305 0.22868 0.22777 0.0
H2700 H 0.85245 0.44617 0.22006 0.0
H2701 H 0.91201 0.29657 0.2373 0.0
H2702 H 0.96333 0.47936 0.23036 0.0
H2703 H 0.80603 0.26432 0.2245 0.0
H2704 H 0.92922 0.36344 0.23599 0.0
H2705 H 0.83325 0.37964 0.22272 0.0
C2706 C 0.87275 0.4396 0.22294 0.0
C2707 C 0.90969 0.46874 0.22497 0.0
C2708 C 0.90208 0.34171 0.23352 0.0
C2709 C 0.88776 0.39199 0.228 0.0
C2710 C 0.89209 0.30341 0.23432 0.0
C2711 C 0.85746 0.27451 0.231 0.0
C2712 C 0.87727 0.35141 0.22941 0.0
C2713 C 0.83305 0.28543 0.22715 0.0
C2714 C 0.86178 0.40145 0.22442 0.0
C2715 C 0.93475 0.45804 0.22858 0.0
N2716 N 0.84345 0.32283 0.22644 0.0
N2717 N 0.92336 0.42069 0.22998 0.0
H2718 H 0.63774 0.43052 0.2148 0.0
H2719 H 0.78036 0.63213 0.23601 0.0
H2720 H 0.59923 0.49342 0.23 0.0
H2721 H 0.81649 0.56424 0.22195 0.0
H2722 H 0.71415 0.58094 0.23454 0.0
H2723 H 0.70343 0.47883 0.21777 0.0
C2724 C 0.64306 0.45461 0.21873 0.0
C2725 C 0.61273 0.45793 0.2221 0.0
C2726 C 0.73663 0.57716 0.23184 0.0
C2727 C 0.68838 0.51352 0.22562 0.0
C2728 C 0.7745 0.60634 0.23272 0.0
C2729 C 0.8042 0.6027 0.22907 0.0
C2730 C 0.72833 0.54411 0.22727 0.0
C2731 C 0.7947 0.56858 0.22484 0.0
C2732 C 0.68068 0.48211 0.22048 0.0
C2733 C 0.6216 0.48949 0.22731 0.0
N2734 N 0.75773 0.54087 0.22401 0.0
N2735 N 0.65854 0.51612 0.22887 0.0
H2736 H 0.45545 0.27794 0.06506 0.0
H2737 H 0.54573 0.15905 0.04566 0.0
H2738 H 0.56507 0.32844 0.05269 0.0
H2739 H 0.43104 0.10633 0.05522 0.0
H2740 H 0.55011 0.22118 0.04669 0.0
H2741 H 0.44343 0.21509 0.06056 0.0
C2742 C 0.47698 0.2759 0.06139 0.0
C2743 C 0.51145 0.30873 0.0593 0.0
C2744 C 0.52356 0.19607 0.04837 0.0
C2745 C 0.49766 0.23668 0.05404 0.0
C2746 C 0.52093 0.16055 0.04767 0.0
C2747 C 0.48771 0.12758 0.05018 0.0
C2748 C 0.49307 0.19883 0.05185 0.0
C2749 C 0.45682 0.13108 0.05303 0.0
C2750 C 0.46994 0.23998 0.05876 0.0
C2751 C 0.53795 0.30417 0.0544 0.0
N2752 N 0.46042 0.16616 0.05392 0.0
N2753 N 0.53062 0.26895 0.05201 0.0
H2754 H 0.9328 0.36432 0.04506 0.0
H2755 H 0.77211 0.21995 0.0774 0.0
H2756 H 0.94302 0.36725 0.07243 0.0
H2757 H 0.75353 0.21732 0.05024 0.0
H2758 H 0.83798 0.2687 0.07524 0.0
H2759 H 0.87075 0.30527 0.04633 0.0
C2760 C 0.92246 0.35198 0.0513 0.0
C2761 C 0.9429 0.3706 0.05866 0.0
C2762 C 0.81966 0.25741 0.06972 0.0
C2763 C 0.8722 0.3039 0.06018 0.0
C2764 C 0.7819 0.22921 0.07095 0.0
C2765 C 0.75688 0.21426 0.06401 0.0
C2766 C 0.83293 0.27132 0.06147 0.0
C2767 C 0.77148 0.22831 0.05581 0.0
C2768 C 0.88695 0.31858 0.05203 0.0
C2769 C 0.92804 0.3539 0.0666 0.0
N2770 N 0.80845 0.25616 0.05478 0.0
N2771 N 0.89366 0.32178 0.06715 0.0
H2772 H 0.84738 0.57609 0.07858 0.0
H2773 H 0.70293 0.5926 0.04634 0.0
H2774 H 0.85461 0.56741 0.05127 0.0
H2775 H 0.69681 0.59447 0.07375 0.0
H2776 H 0.76365 0.5926 0.04761 0.0
H2777 H 0.79759 0.59195 0.07656 0.0
C2778 C 0.83898 0.57803 0.07213 0.0
C2779 C 0.85543 0.5702 0.0651 0.0
C2780 C 0.74926 0.59367 0.05333 0.0
C2781 C 0.79708 0.58763 0.06272 0.0
C2782 C 0.71488 0.59405 0.0526 0.0
C2783 C 0.6949 0.59343 0.05996 0.0
C2784 C 0.76353 0.59288 0.06148 0.0
C2785 C 0.71118 0.59468 0.06792 0.0
C2786 C 0.81015 0.58684 0.07098 0.0
C2787 C 0.84242 0.57252 0.05691 0.0
N2788 N 0.74426 0.59411 0.06847 0.0
N2789 N 0.81387 0.58075 0.05595 0.0
H2790 H 0.33831 0.54774 0.47519 0.0
H2791 H 0.11366 0.42112 0.46716 0.0
H2792 H 0.28794 0.44504 0.46016 0.0
H2793 H 0.16906 0.53313 0.47818 0.0
H2794 H 0.17531 0.42289 0.46688 0.0
H2795 H 0.27486 0.53643 0.47859 0.0
C2796 C 0.31393 0.5225 0.47268 0.0
C2797 C 0.31868 0.49743 0.46733 0.0
C2798 C 0.17379 0.44672 0.46953 0.0
C2799 C 0.24547 0.48453 0.47113 0.0
C2800 C 0.13859 0.44546 0.46979 0.0
C2801 C 0.13645 0.47683 0.4728 0.0
C2802 C 0.2068 0.47957 0.47232 0.0
C2803 C 0.16963 0.50823 0.4759 0.0
C2804 C 0.2776 0.51617 0.47459 0.0
C2805 C 0.28576 0.46549 0.4642 0.0
N2806 N 0.2034 0.5089 0.47554 0.0
N2807 N 0.2506 0.46006 0.4661 0.0
H2808 H 0.52523 0.65431 0.47792 0.0
H2809 H 0.62265 0.87155 0.46305 0.0
H2810 H 0.64206 0.71769 0.46964 0.0
H2811 H 0.50419 0.80113 0.4696 0.0
H2812 H 0.63388 0.81969 0.46737 0.0
H2813 H 0.52113 0.71206 0.47722 0.0
C2814 C 0.55033 0.68069 0.47612 0.0
C2815 C 0.58398 0.68121 0.4738 0.0
C2816 C 0.60552 0.81577 0.46791 0.0
C2817 C 0.57922 0.74758 0.47273 0.0
C2818 C 0.59912 0.84535 0.46547 0.0
C2819 C 0.5623 0.84045 0.46585 0.0
C2820 C 0.57494 0.78122 0.47083 0.0
C2821 C 0.53286 0.80591 0.46903 0.0
C2822 C 0.54792 0.71369 0.47567 0.0
C2823 C 0.61565 0.71617 0.47153 0.0
N2824 N 0.53979 0.77771 0.47135 0.0
N2825 N 0.61234 0.74794 0.47091 0.0
H2826 H 0.3815 0.929 0.48283 0.0
H2827 H 0.21927 0.78214 0.4512 0.0
H2828 H 0.37466 0.94905 0.45609 0.0
H2829 H 0.23908 0.75056 0.47616 0.0
H2830 H 0.26841 0.84766 0.45397 0.0
H2831 H 0.32126 0.8682 0.48162 0.0
C2832 C 0.36666 0.92111 0.47678 0.0
C2833 C 0.38275 0.94392 0.46955 0.0
C2834 C 0.26185 0.82647 0.45887 0.0
C2835 C 0.31469 0.87466 0.46806 0.0
C2836 C 0.23389 0.78893 0.45728 0.0
C2837 C 0.22528 0.76049 0.4634 0.0
C2838 C 0.28158 0.83595 0.46666 0.0
C2839 C 0.2446 0.77143 0.47125 0.0
C2840 C 0.3326 0.88631 0.47606 0.0
C2841 C 0.36303 0.93218 0.46181 0.0
N2842 N 0.27206 0.80819 0.47263 0.0
N2843 N 0.33021 0.89835 0.46125 0.0
H2844 H 0.57833 0.75731 0.97783 0.0
H2845 H 0.63248 0.95348 0.95565 0.0
H2846 H 0.62719 0.78875 0.95263 0.0
H2847 H 0.60507 0.93315 0.98237 0.0
H2848 H 0.63636 0.8955 0.95492 0.0
H2849 H 0.59317 0.82284 0.98019 0.0
C2850 C 0.59281 0.77807 0.97284 0.0
C2851 C 0.60108 0.76721 0.96497 0.0
C2852 C 0.63015 0.90387 0.961 0.0
C2853 C 0.61758 0.84233 0.96759 0.0
C2854 C 0.62805 0.93705 0.96141 0.0
C2855 C 0.61855 0.94797 0.96908 0.0
C2856 C 0.62174 0.8808 0.96827 0.0
C2857 C 0.61284 0.92572 0.97636 0.0
C2858 C 0.60111 0.81551 0.97419 0.0
C2859 C 0.61946 0.79546 0.95873 0.0
N2860 N 0.61389 0.89274 0.97575 0.0
N2861 N 0.62667 0.83148 0.96014 0.0
H2862 H 0.12695 0.71877 0.96866 0.0
H2863 H 0.35287 0.81028 0.97331 0.0
H2864 H 0.18261 0.65889 0.97791 0.0
H2865 H 0.30146 0.86371 0.95896 0.0
H2866 H 0.28972 0.7595 0.97731 0.0
H2867 H 0.18946 0.77694 0.96749 0.0
C2868 C 0.15217 0.71818 0.97069 0.0
C2869 C 0.14967 0.68404 0.97339 0.0
C2870 C 0.29216 0.78241 0.97332 0.0
C2871 C 0.22102 0.74998 0.97195 0.0
C2872 C 0.32832 0.81164 0.97107 0.0
C2873 C 0.33268 0.84145 0.96577 0.0
C2874 C 0.25975 0.78271 0.97027 0.0
C2875 C 0.29954 0.8411 0.96296 0.0
C2876 C 0.18784 0.7512 0.96992 0.0
C2877 C 0.18329 0.68461 0.97578 0.0
N2878 N 0.26449 0.81216 0.96523 0.0
N2879 N 0.21747 0.71689 0.97496 0.0
H2880 H 0.26116 0.54973 0.97767 0.0
H2881 H 0.36338 0.42691 0.96958 0.0
H2882 H 0.21533 0.45209 0.96105 0.0
H2883 H 0.41734 0.53815 0.98101 0.0
H2884 H 0.30296 0.42751 0.96919 0.0
H2885 H 0.31274 0.53811 0.9815 0.0
C2886 C 0.26189 0.52581 0.97482 0.0
C2887 C 0.23409 0.50228 0.9689 0.0
C2888 C 0.32784 0.45137 0.97197 0.0
C2889 C 0.29311 0.48844 0.97338 0.0
C2890 C 0.36211 0.45078 0.97229 0.0
C2891 C 0.39516 0.48244 0.97538 0.0
C2892 C 0.32682 0.48375 0.9748 0.0
C2893 C 0.39237 0.51314 0.97861 0.0
C2894 C 0.29127 0.51903 0.97706 0.0
C2895 C 0.23605 0.47102 0.96563 0.0
N2896 N 0.35895 0.51315 0.97819 0.0
N2897 N 0.26524 0.46522 0.96785 0.0
H2898 H 0.73835 0.50483 0.55427 0.0
H2899 H 0.96387 0.63786 0.56001 0.0
H2900 H 0.78881 0.61067 0.56814 0.0
H2901 H 0.90912 0.52497 0.54945 0.0
H2902 H 0.90139 0.63417 0.5609 0.0
H2903 H 0.80174 0.51721 0.55045 0.0
C2904 C 0.76272 0.53094 0.55645 0.0
C2905 C 0.75799 0.55664 0.56158 0.0
C2906 C 0.90321 0.61055 0.55822 0.0
C2907 C 0.83128 0.57084 0.55729 0.0
C2908 C 0.93888 0.61291 0.5576 0.0
C2909 C 0.94151 0.58183 0.55456 0.0
C2910 C 0.87021 0.57691 0.55575 0.0
C2911 C 0.90823 0.54965 0.55176 0.0
C2912 C 0.79905 0.5379 0.5543 0.0
C2913 C 0.79096 0.5897 0.56429 0.0
N2914 N 0.87404 0.54794 0.55246 0.0
N2915 N 0.82616 0.59577 0.56215 0.0
H2916 H 0.45483 0.19122 0.56571 0.0
H2917 H 0.55138 0.40818 0.55099 0.0
H2918 H 0.5708 0.25816 0.55697 0.0
H2919 H 0.43346 0.34318 0.55831 0.0
H2920 H 0.55607 0.35069 0.55162 0.0
H2921 H 0.4438 0.24349 0.56183 0.0
C2922 C 0.47788 0.21672 0.5629 0.0
C2923 C 0.51398 0.22038 0.56176 0.0
C2924 C 0.5289 0.3486 0.55296 0.0
C2925 C 0.5015 0.28038 0.55733 0.0
C2926 C 0.52617 0.38143 0.55254 0.0
C2927 C 0.49194 0.38027 0.55455 0.0
C2928 C 0.49734 0.31426 0.5556 0.0
C2929 C 0.46022 0.34506 0.55661 0.0
C2930 C 0.47156 0.24659 0.56071 0.0
C2931 C 0.54277 0.25425 0.55815 0.0
N2932 N 0.46381 0.31343 0.55721 0.0
N2933 N 0.53595 0.28285 0.55611 0.0
H2934 H 0.8059 0.33358 0.55377 0.0
H2935 H 0.72095 0.10785 0.55356 0.0
H2936 H 0.86817 0.28029 0.56305 0.0
H2937 H 0.65453 0.16284 0.54996 0.0
H2938 H 0.77898 0.1708 0.55406 0.0
H2939 H 0.75412 0.27136 0.54952 0.0
C2940 C 0.80894 0.30886 0.55483 0.0
C2941 C 0.84146 0.31229 0.55883 0.0
C2942 C 0.75176 0.169 0.55297 0.0
C2943 C 0.7818 0.24054 0.55403 0.0
C2944 C 0.71881 0.13313 0.55256 0.0
C2945 C 0.68312 0.13035 0.55165 0.0
C2946 C 0.74876 0.20202 0.55241 0.0
C2947 C 0.68162 0.16389 0.55063 0.0
C2948 C 0.77921 0.27324 0.55243 0.0
C2949 C 0.8434 0.27899 0.56012 0.0
N2950 N 0.71386 0.19826 0.55108 0.0
N2951 N 0.81394 0.24451 0.55776 0.0
H2952 H 0.15135 0.47028 0.3788 0.0
H2953 H 0.15808 0.62636 0.41108 0.0
H2954 H 0.13515 0.45564 0.40598 0.0
H2955 H 0.17879 0.64715 0.38406 0.0
H2956 H 0.14098 0.56056 0.4088 0.0
H2957 H 0.15235 0.53137 0.38001 0.0
C2958 C 0.14686 0.4794 0.38497 0.0
C2959 C 0.14316 0.45806 0.39231 0.0
C2960 C 0.149 0.57936 0.40334 0.0
C2961 C 0.14504 0.52777 0.39379 0.0
C2962 C 0.15856 0.61708 0.40464 0.0
C2963 C 0.17009 0.64272 0.39777 0.0
C2964 C 0.15116 0.56679 0.39512 0.0
C2965 C 0.17076 0.62874 0.38959 0.0
C2966 C 0.14785 0.51439 0.38568 0.0
C2967 C 0.13822 0.47138 0.40018 0.0
N2968 N 0.16171 0.59184 0.3885 0.0
N2969 N 0.13958 0.50537 0.40072 0.0
H2970 H 0.60431 0.70429 0.37796 0.0
H2971 H 0.45681 0.54516 0.41022 0.0
H2972 H 0.62424 0.69962 0.40479 0.0
H2973 H 0.42557 0.56201 0.38496 0.0
H2974 H 0.52235 0.59422 0.40736 0.0
H2975 H 0.54328 0.64437 0.37939 0.0
C2976 C 0.59634 0.69 0.38408 0.0
C2977 C 0.61922 0.70665 0.39127 0.0
C2978 C 0.50124 0.58704 0.40241 0.0
C2979 C 0.54965 0.63892 0.393 0.0
C2980 C 0.46368 0.55911 0.40406 0.0
C2981 C 0.4353 0.54967 0.39788 0.0
C2982 C 0.51085 0.60593 0.39451 0.0
C2983 C 0.44638 0.56817 0.38992 0.0
C2984 C 0.5614 0.65613 0.38493 0.0
C2985 C 0.60734 0.68761 0.3991 0.0
N2986 N 0.48316 0.59562 0.38849 0.0
N2987 N 0.57339 0.65495 0.39977 0.0
H2988 H 0.39949 0.97781 0.39317 0.0
H2989 H 0.4823 0.83578 0.38929 0.0
H2990 H 0.3375 0.86357 0.38344 0.0
H2991 H 0.54715 0.94816 0.39999 0.0
H2992 H 0.43234 0.84962 0.3854 0.0
H2993 H 0.45731 0.97224 0.39383 0.0
C2994 C 0.39846 0.95212 0.3909 0.0
C2995 C 0.36397 0.92122 0.38816 0.0
C2996 C 0.45751 0.87146 0.38856 0.0
C2997 C 0.42921 0.91418 0.38911 0.0
C2998 C 0.48601 0.86344 0.39083 0.0
C2999 C 0.51875 0.89062 0.39509 0.0
C3000 C 0.46135 0.90691 0.39061 0.0
C3001 C 0.52234 0.92633 0.39673 0.0
C3002 C 0.43125 0.94874 0.39137 0.0
C3003 C 0.3637 0.88812 0.38552 0.0
N3004 N 0.49379 0.93332 0.39457 0.0
N3005 N 0.39563 0.88539 0.38612 0.0
H3006 H 0.96403 0.79799 0.78395 0.0
H3007 H 0.81384 0.80941 0.81544 0.0
H3008 H 0.99339 0.84701 0.80914 0.0
H3009 H 0.79493 0.7829 0.78868 0.0
H3010 H 0.87522 0.81088 0.81429 0.0
H3011 H 0.89805 0.78083 0.78657 0.0
C3012 C 0.95667 0.80514 0.79004 0.0
C3013 C 0.98466 0.82453 0.79627 0.0
C3014 C 0.85723 0.80395 0.80872 0.0
C3015 C 0.90857 0.80443 0.79937 0.0
C3016 C 0.82206 0.80265 0.8094 0.0
C3017 C 0.79933 0.79574 0.80215 0.0
C3018 C 0.86944 0.79815 0.80073 0.0
C3019 C 0.81163 0.78816 0.79442 0.0
C3020 C 0.91885 0.79511 0.79156 0.0
C3021 C 0.97293 0.83202 0.80414 0.0
N3022 N 0.84584 0.78977 0.7939 0.0
N3023 N 0.93591 0.82228 0.80544 0.0
H3024 H 0.25493 0.02264 0.81639 0.0
H3025 H 0.27415 0.18982 0.78574 0.0
H3026 H 0.29255 0.03754 0.79027 0.0
H3027 H 0.21587 0.16353 0.80998 0.0
H3028 H 0.29076 0.14068 0.78837 0.0
H3029 H 0.25138 0.08139 0.81534 0.0
C3030 C 0.26366 0.03902 0.81054 0.0
C3031 C 0.27444 0.02565 0.80343 0.0
C3032 C 0.27448 0.14573 0.79314 0.0
C3033 C 0.26957 0.09195 0.80208 0.0
C3034 C 0.26469 0.17367 0.79161 0.0
C3035 C 0.24302 0.18064 0.79758 0.0
C3036 C 0.26266 0.12436 0.80071 0.0
C3037 C 0.23267 0.15936 0.80519 0.0
C3038 C 0.26116 0.0722 0.80989 0.0
C3039 C 0.28438 0.04716 0.79591 0.0
N3040 N 0.24234 0.13204 0.80651 0.0
N3041 N 0.28154 0.07906 0.79541 0.0
H3042 H 1.02255 0.2838 0.8066 0.0
H3043 H 0.94647 0.06036 0.80337 0.0
H3044 H 0.09056 0.23097 0.81089 0.0
H3045 H 0.87493 0.10877 0.7983 0.0
H3046 H 0.99695 0.12247 0.80799 0.0
H3047 H 0.96554 0.22022 0.80565 0.0
C3048 C 1.02524 0.25887 0.80764 0.0
C3049 C 0.0612 0.26252 0.80885 0.0
C3050 C 0.97022 0.11968 0.80591 0.0
C3051 C 0.99666 0.19003 0.80757 0.0
C3052 C 0.9414 0.08415 0.80322 0.0
C3053 C 0.90657 0.07939 0.80032 0.0
C3054 C 0.96458 0.15114 0.80565 0.0
C3055 C 0.90137 0.11116 0.80047 0.0
C3056 C 0.99284 0.2226 0.80699 0.0
C3057 C 0.06333 0.22935 0.80995 0.0
N3058 N 0.93021 0.14579 0.803 0.0
N3059 N 0.03169 0.19466 0.80921 0.0
H3060 H 0.17833 0.05578 0.30776 0.0
H3061 H 0.30785 0.28174 0.30251 0.0
H3062 H 0.2794 0.10905 0.2921 0.0
H3063 H 0.19198 0.22501 0.31155 0.0
H3064 H 0.30458 0.21969 0.30146 0.0
H3065 H 0.18922 0.11857 0.3117 0.0
C3066 C 0.20277 0.0806 0.30512 0.0
C3067 C 0.22763 0.07684 0.29947 0.0
C3068 C 0.28014 0.22098 0.30381 0.0
C3069 C 0.24072 0.14921 0.30414 0.0
C3070 C 0.28216 0.25638 0.30452 0.0
C3071 C 0.25012 0.25843 0.30711 0.0
C3072 C 0.24598 0.18761 0.30582 0.0
C3073 C 0.21729 0.22464 0.30949 0.0
C3074 C 0.20913 0.11651 0.30743 0.0
C3075 C 0.25949 0.11034 0.29649 0.0
N3076 N 0.216 0.19068 0.30874 0.0
N3077 N 0.26499 0.14505 0.29882 0.0
H3078 H 0.95211 0.19603 0.29528 0.0
H3079 H 0.83254 0.98317 0.31232 0.0
H3080 H 1.00112 0.13732 0.30846 0.0
H3081 H 0.77938 0.04397 0.30225 0.0
H3082 H 0.89383 0.04192 0.31223 0.0
H3083 H 0.88852 0.1436 0.29879 0.0
C3084 C 0.94959 0.17239 0.29899 0.0
C3085 C 0.98221 0.17101 0.30148 0.0
C3086 C 0.86879 0.04283 0.31019 0.0
C3087 C 0.9093 0.11065 0.30546 0.0
C3088 C 0.83375 1.00931 0.31032 0.0
C3089 C 0.80095 1.00897 0.3074 0.0
C3090 C 0.87137 0.07625 0.30691 0.0
C3091 C 0.80402 0.04333 0.3047 0.0
C3092 C 0.91321 0.14238 0.30097 0.0
C3093 C 0.97696 0.13937 0.30622 0.0
N3094 N 0.83879 0.07557 0.30439 0.0
N3095 N 0.94135 0.11048 0.308 0.0
H3096 H 1.02311 0.75975 0.30673 0.0
H3097 H 0.93831 0.90103 0.3061 0.0
H3098 H 0.08948 0.88087 0.31035 0.0
H3099 H 0.87641 0.78593 0.2967 0.0
H3100 H 0.98998 0.89034 0.31043 0.0
H3101 H 0.96519 0.76504 0.30595 0.0
C3102 C 1.02525 0.78719 0.30766 0.0
C3103 C 0.06091 0.8199 0.30867 0.0
C3104 C 0.965 0.86729 0.30747 0.0
C3105 C 0.9954 0.82635 0.30761 0.0
C3106 C 0.93533 0.87333 0.30503 0.0
C3107 C 0.90292 0.84443 0.30098 0.0
C3108 C 0.96247 0.83203 0.30588 0.0
C3109 C 0.90108 0.80925 0.29968 0.0
C3110 C 0.99237 0.79031 0.3071 0.0
C3111 C 0.06241 0.85497 0.30962 0.0
N3112 N 0.93047 0.80408 0.30209 0.0
N3113 N 0.03024 0.8573 0.30902 0.0
H3114 H 0.4559 0.94261 0.90139 0.0
H3115 H 0.57383 0.85322 0.88107 0.0
H3116 H 0.4056 0.83844 0.88689 0.0
H3117 H 0.62783 0.96447 0.8925 0.0
H3118 H 0.51261 0.85076 0.88195 0.0
H3119 H 0.51912 0.95415 0.89732 0.0
C3120 C 0.45804 0.92233 0.89728 0.0
C3121 C 0.42516 0.88922 0.89457 0.0
C3122 C 0.53782 0.87609 0.88414 0.0
C3123 C 0.4977 0.90223 0.88992 0.0
C3124 C 0.57285 0.87759 0.88357 0.0
C3125 C 0.60592 0.90915 0.88669 0.0
C3126 C 0.5355 0.90604 0.88803 0.0
C3127 C 0.60304 0.93981 0.88994 0.0
C3128 C 0.49423 0.92893 0.89497 0.0
C3129 C 0.42997 0.8639 0.88931 0.0
N3130 N 0.56829 0.93724 0.89067 0.0
N3131 N 0.46541 0.87081 0.88722 0.0
H3132 H 0.09975 0.67617 0.89094 0.0
H3133 H 0.2403 0.59064 0.88854 0.0
H3134 H 0.21843 0.74027 0.88417 0.0
H3135 H 0.12918 0.53055 0.90022 0.0
H3136 H 0.22794 0.64144 0.88451 0.0
H3137 H 0.10513 0.61835 0.89187 0.0
C3138 C 0.12655 0.67777 0.88939 0.0
C3139 C 0.15867 0.71282 0.88743 0.0
C3140 C 0.20611 0.61707 0.88791 0.0
C3141 C 0.16527 0.64749 0.88862 0.0
C3142 C 0.21309 0.58786 0.89018 0.0
C3143 C 0.18585 0.5562 0.89478 0.0
C3144 C 0.1716 0.61489 0.89023 0.0
C3145 C 0.15129 0.55466 0.89681 0.0
C3146 C 0.12977 0.64497 0.89002 0.0
C3147 C 0.19299 0.71369 0.88568 0.0
N3148 N 0.1452 0.58363 0.89456 0.0
N3149 N 0.19543 0.68165 0.88635 0.0
H3150 H 0.32201 0.49348 0.88181 0.0
H3151 H 0.53972 0.60852 0.8954 0.0
H3152 H 0.38662 0.43827 0.88747 0.0
H3153 H 0.47817 0.6611 0.88528 0.0
H3154 H 0.48601 0.54608 0.89169 0.0
H3155 H 0.38074 0.55486 0.88174 0.0
C3156 C 0.34888 0.4943 0.88276 0.0
C3157 C 0.34966 0.46085 0.88453 0.0
C3158 C 0.48446 0.57131 0.89019 0.0
C3159 C 0.41701 0.53125 0.88487 0.0
C3160 C 0.51501 0.607 0.89237 0.0
C3161 C 0.51348 0.64026 0.89071 0.0
C3162 C 0.45188 0.56871 0.88639 0.0
C3163 C 0.4809 0.63642 0.88664 0.0
C3164 C 0.3824 0.52938 0.88281 0.0
C3165 C 0.38501 0.46343 0.88593 0.0
N3166 N 0.45137 0.6014 0.8847 0.0
N3167 N 0.41729 0.49814 0.88622 0.0
H3168 H 0.76487 0.77658 0.72432 0.0
H3169 H 0.9005 1.00241 0.72089 0.0
H3170 H 0.8821 0.83309 0.71619 0.0
H3171 H 0.788 0.95044 0.73187 0.0
H3172 H 0.88996 0.93961 0.71722 0.0
H3173 H 0.76822 0.83881 0.72506 0.0
C3174 C 0.79095 0.80194 0.7225 0.0
C3175 C 0.82333 0.79981 0.72024 0.0
C3176 C 0.86742 0.94179 0.7204 0.0
C3177 C 0.82753 0.87071 0.72116 0.0
C3178 C 0.87354 0.97772 0.72254 0.0
C3179 C 0.84534 0.98173 0.72681 0.0
C3180 C 0.83284 0.90931 0.72256 0.0
C3181 C 0.81056 0.94868 0.72858 0.0
C3182 C 0.79298 0.83743 0.723 0.0
C3183 C 0.85656 0.8335 0.71804 0.0
N3184 N 0.8054 0.9138 0.72653 0.0
N3185 N 0.85785 0.86745 0.71861 0.0
H3186 H 0.11302 0.8889 0.7412 0.0
H3187 H 0.28685 0.03551 0.71208 0.0
H3188 H 0.11195 0.88271 0.71371 0.0
H3189 H 0.27916 0.04416 0.73933 0.0
H3190 H 0.22837 0.97289 0.71255 0.0
H3191 H 0.17943 0.93889 0.74065 0.0
C3192 C 0.12686 0.89764 0.73505 0.0
C3193 C 0.1066 0.88189 0.72749 0.0
C3194 C 0.23994 0.98834 0.71843 0.0
C3195 C 0.18275 0.93986 0.72679 0.0
C3196 C 0.27335 0.02385 0.71816 0.0
C3197 C 0.2874 0.0451 0.72566 0.0
C3198 C 0.22101 0.97422 0.72627 0.0
C3199 C 0.2689 0.02894 0.73339 0.0
C3200 C 0.16481 0.92643 0.73472 0.0
C3201 C 0.12616 0.89471 0.71969 0.0
N3202 N 0.23659 0.99471 0.73348 0.0
N3203 N 0.16301 0.92322 0.71953 0.0
H3204 H 0.20524 0.27975 0.7342 0.0
H3205 H 0.99612 0.18767 0.71514 0.0
H3206 H 0.14974 0.17328 0.72058 0.0
H3207 H 0.05671 0.30294 0.72436 0.0
H3208 H 0.05445 0.18448 0.71609 0.0
H3209 H 0.15323 0.29089 0.7301 0.0
C3210 C 0.18222 0.25878 0.73033 0.0
C3211 C 0.18187 0.22544 0.72776 0.0
C3212 C 0.05536 0.21078 0.71777 0.0
C3213 C 0.12241 0.23814 0.72301 0.0
C3214 C 1.02206 0.21266 0.71718 0.0
C3215 C 1.02169 0.24563 0.71966 0.0
C3216 C 0.08849 0.24183 0.72106 0.0
C3217 C 0.05597 0.27712 0.72231 0.0
C3218 C 0.15271 0.26532 0.72794 0.0
C3219 C 0.15154 0.19955 0.72265 0.0
N3220 N 0.08793 0.27424 0.72309 0.0
N3221 N 0.123 0.20631 0.72051 0.0
H3222 H 0.6796 0.21828 0.14308 0.0
H3223 H 0.45462 0.09128 0.13578 0.0
H3224 H 0.62932 0.12033 0.12654 0.0
H3225 H 0.51055 0.2031 0.14695 0.0
H3226 H 0.51649 0.0938 0.13493 0.0
H3227 H 0.61617 0.20552 0.14699 0.0
C3228 C 0.65522 0.19375 0.14034 0.0
C3229 C 0.65997 0.17042 0.13444 0.0
C3230 C 0.51503 0.11741 0.13773 0.0
C3231 C 0.5868 0.15589 0.13884 0.0
C3232 C 0.47971 0.11575 0.13832 0.0
C3233 C 0.47761 0.14699 0.14147 0.0
C3234 C 0.54818 0.1504 0.14039 0.0
C3235 C 0.51102 0.17842 0.14449 0.0
C3236 C 0.61892 0.18661 0.14255 0.0
C3237 C 0.62709 0.1394 0.13102 0.0
N3238 N 0.54488 0.17942 0.14383 0.0
N3239 N 0.5919 0.13311 0.13324 0.0
H3240 H 0.96498 0.3686 0.12369 0.0
H3241 H 0.89291 0.50404 0.14281 0.0
H3242 H 0.92311 0.35799 0.14936 0.0
H3243 H 0.93809 0.51465 0.11739 0.0
H3244 H 0.91038 0.45569 0.14599 0.0
H3245 H 0.96302 0.42742 0.12199 0.0
C3246 C 0.95633 0.37936 0.12905 0.0
C3247 C 0.94459 0.35883 0.13669 0.0
C3248 C 0.91678 0.46884 0.13974 0.0
C3249 C 0.94087 0.42545 0.13474 0.0
C3250 C 0.90695 0.49662 0.13792 0.0
C3251 C 0.91373 0.51335 0.12978 0.0
C3252 C 0.93353 0.45759 0.13338 0.0
C3253 C 0.93161 0.50211 0.1237 0.0
C3254 C 0.95491 0.41278 0.12807 0.0
C3255 C 0.933 0.37348 0.14341 0.0
N3256 N 0.94065 0.47488 0.1256 0.0
N3257 N 0.93095 0.40571 0.14225 0.0
H3258 H 0.69156 0.62642 0.13178 0.0
H3259 H 0.58754 0.40581 0.14446 0.0
H3260 H 0.74321 0.57496 0.14661 0.0
H3261 H 0.54208 0.45204 0.12614 0.0
H3262 H 0.63933 0.46991 0.14741 0.0
H3263 H 0.63137 0.56545 0.13181 0.0
C3264 C 0.68971 0.60256 0.13529 0.0
C3265 C 0.72189 0.60562 0.13934 0.0
C3266 C 0.61787 0.46612 0.14279 0.0
C3267 C 0.65398 0.53583 0.1392 0.0
C3268 C 0.58806 0.42946 0.14114 0.0
C3269 C 0.56038 0.42333 0.135 0.0
C3270 C 0.62024 0.49714 0.13828 0.0
C3271 C 0.56307 0.45527 0.13082 0.0
C3272 C 0.65561 0.56771 0.13522 0.0
C3273 C 0.71869 0.57372 0.14355 0.0
N3274 N 0.59255 0.49072 0.13251 0.0
N3275 N 0.68542 0.54011 0.14334 0.0
H3276 H 0.96644 0.45524 0.62719 0.0
H3277 H 0.86269 0.56846 0.64154 0.0
H3278 H 0.85507 0.4026 0.63878 0.0
H3279 H 0.9817 0.62543 0.63499 0.0
H3280 H 0.8614 0.50776 0.64149 0.0
H3281 H 0.9745 0.51783 0.63056 0.0
C3282 C 0.94375 0.4568 0.63047 0.0
C3283 C 0.90989 0.4235 0.63265 0.0
C3284 C 0.88807 0.53347 0.64021 0.0
C3285 C 0.91906 0.49507 0.63657 0.0
C3286 C 0.88881 0.56813 0.64028 0.0
C3287 C 0.92239 0.60184 0.63832 0.0
C3288 C 0.92096 0.53226 0.63794 0.0
C3289 C 0.95539 0.59999 0.63664 0.0
C3290 C 0.94851 0.49255 0.63245 0.0
C3291 C 0.88175 0.42734 0.63702 0.0
N3292 N 0.95373 0.5656 0.63634 0.0
N3293 N 0.88683 0.46236 0.63875 0.0
H3294 H 0.68164 0.46879 0.63575 0.0
H3295 H 0.45559 0.37999 0.63709 0.0
H3296 H 0.6261 0.53083 0.62784 0.0
H3297 H 0.51413 0.31945 0.64378 0.0
H3298 H 0.51743 0.43867 0.63575 0.0
H3299 H 0.62046 0.41674 0.64049 0.0
C3300 C 0.65651 0.47143 0.63499 0.0
C3301 C 0.659 0.50405 0.63127 0.0
C3302 C 0.51665 0.41266 0.63767 0.0
C3303 C 0.58848 0.44439 0.63677 0.0
C3304 C 0.48135 0.37928 0.63852 0.0
C3305 C 0.47979 0.3448 0.64049 0.0
C3306 C 0.55042 0.41138 0.63883 0.0
C3307 C 0.51405 0.34536 0.64217 0.0
C3308 C 0.62154 0.44176 0.63776 0.0
C3309 C 0.62553 0.50621 0.63066 0.0
N3310 N 0.54785 0.37793 0.64122 0.0
N3311 N 0.59159 0.47663 0.6333 0.0
H3312 H 0.76149 0.22061 0.64346 0.0
H3313 H 0.54337 0.11318 0.63011 0.0
H3314 H 0.70016 0.10126 0.6373 0.0
H3315 H 0.602 0.22642 0.64062 0.0
H3316 H 0.59868 0.10636 0.63346 0.0
H3317 H 0.7017 0.22122 0.64358 0.0
C3318 C 0.73523 0.1943 0.64229 0.0
C3319 C 0.73574 0.16086 0.64034 0.0
C3320 C 0.59923 0.13251 0.63512 0.0
C3321 C 0.66706 0.16151 0.64023 0.0
C3322 C 0.56778 0.13655 0.63315 0.0
C3323 C 0.56807 0.17055 0.63503 0.0
C3324 C 0.6314 0.16283 0.63893 0.0
C3325 C 0.60028 0.19961 0.63911 0.0
C3326 C 0.70106 0.19467 0.64233 0.0
C3327 C 0.70093 0.12759 0.63888 0.0
N3328 N 0.63069 0.19521 0.64083 0.0
N3329 N 0.66799 0.12888 0.63871 0.0
H3330 H 0.09905 0.23713 0.21639 0.0
H3331 H 0.29228 0.2789 0.23916 0.0
H3332 H 0.12171 0.25743 0.24335 0.0
H3333 H 0.27287 0.25536 0.2123 0.0
H3334 H 0.23325 0.28063 0.24019 0.0
H3335 H 0.16467 0.25114 0.21422 0.0
C3336 C 0.11774 0.24464 0.22185 0.0
C3337 C 0.10452 0.24585 0.23008 0.0
C3338 C 0.24194 0.27562 0.23402 0.0
C3339 C 0.1799 0.26241 0.22761 0.0
C3340 C 0.27579 0.27486 0.23344 0.0
C3341 C 0.28731 0.26702 0.22564 0.0
C3342 C 0.21884 0.26772 0.22678 0.0
C3343 C 0.26499 0.26185 0.2184 0.0
C3344 C 0.15531 0.2529 0.22059 0.0
C3345 C 0.13044 0.2565 0.23687 0.0
N3346 N 0.23139 0.26172 0.21916 0.0
N3347 N 0.16662 0.26408 0.23548 0.0
H3348 H 0.8912 0.07913 0.21671 0.0
H3349 H 0.78865 0.86323 0.23174 0.0
H3350 H 0.77359 0.0184 0.2245 0.0
H3351 H 0.89896 0.9209 0.21964 0.0
H3352 H 0.78047 0.91777 0.22844 0.0
H3353 H 0.89217 0.01958 0.21667 0.0
C3354 C 0.86529 0.053 0.21825 0.0
C3355 C 0.83227 0.05364 0.22062 0.0
C3356 C 0.80625 0.91825 0.22642 0.0
C3357 C 0.83341 0.98525 0.22085 0.0
C3358 C 0.81109 0.88725 0.22836 0.0
C3359 C 0.84468 0.88749 0.22602 0.0
C3360 C 0.83537 0.94994 0.22218 0.0
C3361 C 0.87247 0.91919 0.22153 0.0
C3362 C 0.86588 0.01897 0.21826 0.0
C3363 C 0.79953 0.01903 0.22257 0.0
N3364 N 0.86733 0.94916 0.21984 0.0
N3365 N 0.80109 0.98624 0.22279 0.0
H3366 H 0.05901 0.77855 0.22491 0.0
H3367 H 0.15028 1.00449 0.22118 0.0
H3368 H 0.99932 0.83487 0.21596 0.0
H3369 H 0.20449 0.95199 0.23483 0.0
H3370 H 0.09958 0.94179 0.21698 0.0
H3371 H 0.11732 0.84086 0.22617 0.0
C3372 C 0.0585 0.8039 0.22296 0.0
C3373 C 1.02438 0.80165 0.22032 0.0
C3374 C 0.12264 0.94389 0.22086 0.0
C3375 C 0.09044 0.87273 0.22188 0.0
C3376 C 0.15182 0.97981 0.22323 0.0
C3377 C 0.18183 0.98371 0.2284 0.0
C3378 C 0.12316 0.91128 0.22366 0.0
C3379 C 0.18171 0.9504 0.23094 0.0
C3380 C 0.0916 0.83944 0.22378 0.0
C3381 C 1.02504 0.83538 0.21804 0.0
N3382 N 0.15278 0.9156 0.22857 0.0
N3383 N 0.05737 0.86944 0.21891 0.0
loop_
_geom_bond_atom_site_label_1
_geom_bond_atom_site_label_2
_geom_bond_distance
_geom_bond_site_symmetry_2
_ccdc_geom_bond_type
Nd0 C2 2.836 . S
Nd0 O20 2.500 . S
Nd0 O21 2.492 . S
Nd0 O22 2.487 . S
Nd0 O23 2.682 . S
Nd0 O24 2.410 . S
Nd0 O29 2.414 . S
Nd0 O31 2.424 1_545 S
Nd1 C11 2.836 . S
Nd1 O23 2.414 1_565 S
Nd1 O25 2.424 1_565 S
Nd1 O26 2.500 . S
Nd1 O27 2.492 . S
Nd1 O28 2.487 1_565 S
Nd1 O29 2.682 1_565 S
Nd1 O30 2.410 . S
C2 Nd0 2.836 . S
C2 C3 1.498 . S
C2 O20 1.258 . S
C2 O21 1.239 . S
C3 C2 1.498 . S
C3 C4 1.366 . S
C3 C8 1.407 . S
C4 C3 1.366 . S
C4 C5 1.392 . S
C4 H32 0.930 . S
C5 C4 1.392 . S
C5 C6 1.398 . S
C5 H33 0.929 . S
C6 C5 1.398 . S
C6 C7 1.352 . S
C7 C6 1.352 . S
C7 C8 1.384 . S
C7 H34 0.930 . S
C8 C3 1.407 . S
C8 C7 1.384 . S
C8 H35 0.929 . S
C9 O22 1.241 . S
C9 O23 1.273 . S
C10 O24 1.251 . S
C10 O25 1.268 . S
C11 Nd1 2.836 . S
C11 C12 1.498 . S
C11 O26 1.258 . S
C11 O27 1.239 . S
C12 C11 1.498 . S
C12 C13 1.366 . S
C12 C17 1.407 . S
C13 C12 1.366 . S
C13 C14 1.392 . S
C13 H36 0.930 . S
C14 C13 1.392 . S
C14 C15 1.398 . S
C14 H37 0.929 . S
C15 C14 1.398 . S
C15 C16 1.352 . S
C16 C15 1.352 . S
C16 C17 1.384 . S
C16 H38 0.930 . S
C17 C12 1.407 . S
C17 C16 1.384 . S
C17 H39 0.929 . S
C18 O28 1.241 . S
C18 O29 1.273 . S
C19 O30 1.251 . S
C19 O31 1.268 . S
O20 Nd0 2.500 . S
O20 C2 1.258 . S
O21 Nd0 2.492 . S
O21 C2 1.239 . S
O22 Nd0 2.487 . S
O22 C9 1.241 . S
O23 Nd0 2.682 . S
O23 Nd1 2.414 1_545 S
O23 C9 1.273 . S
O24 Nd0 2.410 . S
O24 C10 1.251 . S
O25 Nd1 2.424 1_545 S
O25 C10 1.268 . S
O26 Nd1 2.500 . S
O26 C11 1.258 . S
O27 Nd1 2.492 . S
O27 C11 1.239 . S
O28 Nd1 2.487 1_545 S
O28 C18 1.241 . S
O29 Nd0 2.414 . S
O29 Nd1 2.682 1_545 S
O29 C18 1.273 . S
O30 Nd1 2.410 . S
O30 C19 1.251 . S
O31 Nd0 2.424 1_565 S
O31 C19 1.268 . S
H32 C4 0.930 . S
H33 C5 0.929 . S
H34 C7 0.930 . S
H35 C8 0.929 . S
H36 C13 0.930 . S
H37 C14 0.929 . S
H38 C16 0.930 . S
H39 C17 0.929 . S
Nd40 C42 2.836 . S
Nd40 O60 2.500 . S
Nd40 O61 2.492 . S
Nd40 O62 2.487 . S
Nd40 O63 2.682 1_655 S
Nd40 O64 2.410 . S
Nd40 O69 2.414 . S
Nd40 O71 2.424 1_655 S
Nd41 C51 2.836 . S
Nd41 O63 2.414 . S
Nd41 O65 2.424 1_455 S
Nd41 O66 2.500 . S
Nd41 O67 2.492 . S
Nd41 O68 2.487 . S
Nd41 O69 2.682 1_455 S
Nd41 O70 2.410 . S
C42 Nd40 2.836 . S
C42 C43 1.498 . S
C42 O60 1.258 . S
C42 O61 1.239 . S
C43 C42 1.498 . S
C43 C44 1.366 . S
C43 C48 1.407 . S
C44 C43 1.366 . S
C44 C45 1.392 . S
C44 H72 0.930 . S
C45 C44 1.392 . S
C45 C46 1.398 . S
C45 H73 0.929 . S
C46 C45 1.398 . S
C46 C47 1.352 . S
C47 C46 1.352 . S
C47 C48 1.384 . S
C47 H74 0.930 . S
C48 C43 1.407 . S
C48 C47 1.384 . S
C48 H75 0.929 . S
C49 O62 1.241 1_455 S
C49 O63 1.273 . S
C50 O64 1.251 . S
C50 O65 1.268 . S
C51 Nd41 2.836 . S
C51 C52 1.498 . S
C51 O66 1.258 . S
C51 O67 1.239 . S
C52 C51 1.498 . S
C52 C53 1.366 . S
C52 C57 1.407 . S
C53 C52 1.366 . S
C53 C54 1.392 . S
C53 H76 0.930 . S
C54 C53 1.392 . S
C54 C55 1.398 . S
C54 H77 0.929 . S
C55 C54 1.398 . S
C55 C56 1.352 . S
C56 C55 1.352 . S
C56 C57 1.384 . S
C56 H78 0.930 . S
C57 C52 1.407 . S
C57 C56 1.384 . S
C57 H79 0.929 . S
C58 O68 1.211 1_655 S
C58 O69 1.289 . S
C59 O70 1.251 . S
C59 O71 1.268 . S
O60 Nd40 2.500 . S
O60 C42 1.258 . S
O61 Nd40 2.492 . S
O61 C42 1.239 . S
O62 Nd40 2.487 . S
O62 C49 1.241 1_655 S
O63 Nd40 2.682 1_455 S
O63 Nd41 2.414 . S
O63 C49 1.273 . S
O64 Nd40 2.410 . S
O64 C50 1.251 . S
O65 Nd41 2.424 1_655 S
O65 C50 1.268 . S
O66 Nd41 2.500 . S
O66 C51 1.258 . S
O67 Nd41 2.492 . S
O67 C51 1.239 . S
O68 Nd41 2.487 . S
O68 C58 1.211 1_455 S
O69 Nd40 2.414 . S
O69 Nd41 2.682 1_655 S
O69 C58 1.289 . S
O70 Nd41 2.410 . S
O70 C59 1.251 . S
O71 Nd40 2.424 1_455 S
O71 C59 1.268 . S
H72 C44 0.930 . S
H73 C45 0.929 . S
H74 C47 0.930 . S
H75 C48 0.929 . S
H76 C53 0.930 . S
H77 C54 0.929 . S
H78 C56 0.930 . S
H79 C57 0.929 . S
Nd80 C82 2.836 . S
Nd80 O100 2.500 . S
Nd80 O101 2.492 . S
Nd80 O102 2.487 . S
Nd80 O103 2.682 . S
Nd80 O104 2.410 . S
Nd80 O109 2.414 . S
Nd80 O111 2.424 . S
Nd81 C91 2.836 . S
Nd81 O103 2.414 . S
Nd81 O105 2.424 . S
Nd81 O106 2.500 . S
Nd81 O107 2.492 . S
Nd81 O108 2.487 . S
Nd81 O109 2.682 . S
Nd81 O110 2.410 . S
C82 Nd80 2.836 . S
C82 C83 1.498 . S
C82 O100 1.258 . S
C82 O101 1.239 . S
C83 C82 1.498 . S
C83 C84 1.366 . S
C83 C88 1.407 . S
C84 C83 1.366 . S
C84 C85 1.392 . S
C84 H112 0.930 . S
C85 C84 1.392 . S
C85 C86 1.398 . S
C85 H113 0.929 . S
C86 C85 1.398 . S
C86 C87 1.352 . S
C87 C86 1.352 . S
C87 C88 1.384 . S
C87 H114 0.930 . S
C88 C83 1.407 . S
C88 C87 1.384 . S
C88 H115 0.929 . S
C89 O102 1.241 . S
C89 O103 1.273 . S
C90 O104 1.251 . S
C90 O105 1.268 . S
C91 Nd81 2.836 . S
C91 C92 1.498 . S
C91 O106 1.258 . S
C91 O107 1.239 . S
C92 C91 1.498 . S
C92 C93 1.366 . S
C92 C97 1.407 . S
C93 C92 1.366 . S
C93 C94 1.392 . S
C93 H116 0.930 . S
C94 C93 1.392 . S
C94 C95 1.398 . S
C94 H117 0.929 . S
C95 C94 1.398 . S
C95 C96 1.352 . S
C96 C95 1.352 . S
C96 C97 1.384 . S
C96 H118 0.930 . S
C97 C92 1.407 . S
C97 C96 1.384 . S
C97 H119 0.929 . S
C98 O108 1.241 . S
C98 O109 1.273 . S
C99 O110 1.251 . S
C99 O111 1.268 . S
O100 Nd80 2.500 . S
O100 C82 1.258 . S
O101 Nd80 2.492 . S
O101 C82 1.239 . S
O102 Nd80 2.487 . S
O102 C89 1.241 . S
O103 Nd80 2.682 . S
O103 Nd81 2.414 . S
O103 C89 1.273 . S
O104 Nd80 2.410 . S
O104 C90 1.251 . S
O105 Nd81 2.424 . S
O105 C90 1.268 . S
O106 Nd81 2.500 . S
O106 C91 1.258 . S
O107 Nd81 2.492 . S
O107 C91 1.239 . S
O108 Nd81 2.487 . S
O108 C98 1.241 . S
O109 Nd80 2.414 . S
O109 Nd81 2.682 . S
O109 C98 1.273 . S
O110 Nd81 2.410 . S
O110 C99 1.251 . S
O111 Nd80 2.424 . S
O111 C99 1.268 . S
H112 C84 0.930 . S
H113 C85 0.929 . S
H114 C87 0.930 . S
H115 C88 0.929 . S
H116 C93 0.930 . S
H117 C94 0.929 . S
H118 C96 0.930 . S
H119 C97 0.929 . S
Nd120 C122 2.836 . S
Nd120 O140 2.500 . S
Nd120 O141 2.492 . S
Nd120 O142 2.487 . S
Nd120 O143 2.682 . S
Nd120 O144 2.410 . S
Nd120 O149 2.414 . S
Nd120 O151 2.424 1_455 S
Nd121 C131 2.836 . S
Nd121 O143 2.414 1_655 S
Nd121 O145 2.424 1_655 S
Nd121 O146 2.500 . S
Nd121 O147 2.492 . S
Nd121 O148 2.487 1_655 S
Nd121 O149 2.682 1_655 S
Nd121 O150 2.410 . S
C122 Nd120 2.836 . S
C122 C123 1.498 . S
C122 O140 1.258 . S
C122 O141 1.239 . S
C123 C122 1.498 . S
C123 C124 1.366 . S
C123 C128 1.407 . S
C124 C123 1.366 . S
C124 C125 1.392 . S
C124 H152 0.930 . S
C125 C124 1.392 . S
C125 C126 1.398 . S
C125 H153 0.929 . S
C126 C125 1.398 . S
C126 C127 1.352 . S
C127 C126 1.352 . S
C127 C128 1.384 . S
C127 H154 0.930 . S
C128 C123 1.407 . S
C128 C127 1.384 . S
C128 H155 0.929 . S
C129 O142 1.241 . S
C129 O143 1.273 . S
C130 O144 1.251 . S
C130 O145 1.268 . S
C131 Nd121 2.836 . S
C131 C132 1.498 . S
C131 O146 1.258 . S
C131 O147 1.239 . S
C132 C131 1.498 . S
C132 C133 1.366 . S
C132 C137 1.407 . S
C133 C132 1.366 . S
C133 C134 1.392 . S
C133 H156 0.930 . S
C134 C133 1.392 . S
C134 C135 1.398 . S
C134 H157 0.929 . S
C135 C134 1.398 . S
C135 C136 1.352 . S
C136 C135 1.352 . S
C136 C137 1.384 . S
C136 H158 0.930 . S
C137 C132 1.407 . S
C137 C136 1.384 . S
C137 H159 0.929 . S
C138 O148 1.241 . S
C138 O149 1.273 . S
C139 O150 1.251 . S
C139 O151 1.268 . S
O140 Nd120 2.500 . S
O140 C122 1.258 . S
O141 Nd120 2.492 . S
O141 C122 1.239 . S
O142 Nd120 2.487 . S
O142 C129 1.241 . S
O143 Nd120 2.682 . S
O143 Nd121 2.414 1_455 S
O143 C129 1.273 . S
O144 Nd120 2.410 . S
O144 C130 1.251 . S
O145 Nd121 2.424 1_455 S
O145 C130 1.268 . S
O146 Nd121 2.500 . S
O146 C131 1.258 . S
O147 Nd121 2.492 . S
O147 C131 1.239 . S
O148 Nd121 2.487 1_455 S
O148 C138 1.241 . S
O149 Nd120 2.414 . S
O149 Nd121 2.682 1_455 S
O149 C138 1.273 . S
O150 Nd121 2.410 . S
O150 C139 1.251 . S
O151 Nd120 2.424 1_655 S
O151 C139 1.268 . S
H152 C124 0.930 . S
H153 C125 0.929 . S
H154 C127 0.930 . S
H155 C128 0.929 . S
H156 C133 0.930 . S
H157 C134 0.929 . S
H158 C136 0.930 . S
H159 C137 0.929 . S
Nd160 C162 2.836 . S
Nd160 O180 2.500 . S
Nd160 O181 2.492 . S
Nd160 O182 2.487 . S
Nd160 O183 2.682 . S
Nd160 O184 2.410 . S
Nd160 O189 2.414 . S
Nd160 O191 2.424 . S
Nd161 C171 2.836 . S
Nd161 O183 2.414 . S
Nd161 O185 2.424 . S
Nd161 O186 2.500 . S
Nd161 O187 2.492 . S
Nd161 O188 2.487 . S
Nd161 O189 2.682 . S
Nd161 O190 2.410 . S
C162 Nd160 2.836 . S
C162 C163 1.498 . S
C162 O180 1.258 . S
C162 O181 1.239 . S
C163 C162 1.498 . S
C163 C164 1.366 . S
C163 C168 1.407 . S
C164 C163 1.366 . S
C164 C165 1.392 . S
C164 H192 0.930 . S
C165 C164 1.392 . S
C165 C166 1.398 . S
C165 H193 0.929 . S
C166 C165 1.398 . S
C166 C167 1.352 . S
C167 C166 1.352 . S
C167 C168 1.384 . S
C167 H194 0.930 . S
C168 C163 1.407 . S
C168 C167 1.384 . S
C168 H195 0.929 . S
C169 O182 1.241 . S
C169 O183 1.273 . S
C170 O184 1.251 . S
C170 O185 1.268 . S
C171 Nd161 2.836 . S
C171 C172 1.498 . S
C171 O186 1.258 . S
C171 O187 1.239 . S
C172 C171 1.498 . S
C172 C173 1.366 . S
C172 C177 1.407 . S
C173 C172 1.366 . S
C173 C174 1.392 . S
C173 H196 0.930 . S
C174 C173 1.392 . S
C174 C175 1.398 . S
C174 H197 0.929 . S
C175 C174 1.398 . S
C175 C176 1.352 . S
C176 C175 1.352 . S
C176 C177 1.384 . S
C176 H198 0.930 . S
C177 C172 1.407 . S
C177 C176 1.384 . S
C177 H199 0.929 . S
C178 O188 1.241 . S
C178 O189 1.273 . S
C179 O190 1.251 . S
C179 O191 1.268 . S
O180 Nd160 2.500 . S
O180 C162 1.258 . S
O181 Nd160 2.492 . S
O181 C162 1.239 . S
O182 Nd160 2.487 . S
O182 C169 1.241 . S
O183 Nd160 2.682 . S
O183 Nd161 2.414 . S
O183 C169 1.273 . S
O184 Nd160 2.410 . S
O184 C170 1.251 . S
O185 Nd161 2.424 . S
O185 C170 1.268 . S
O186 Nd161 2.500 . S
O186 C171 1.258 . S
O187 Nd161 2.492 . S
O187 C171 1.239 . S
O188 Nd161 2.487 . S
O188 C178 1.241 . S
O189 Nd160 2.414 . S
O189 Nd161 2.682 . S
O189 C178 1.273 . S
O190 Nd161 2.410 . S
O190 C179 1.251 . S
O191 Nd160 2.424 . S
O191 C179 1.268 . S
H192 C164 0.930 . S
H193 C165 0.929 . S
H194 C167 0.930 . S
H195 C168 0.929 . S
H196 C173 0.930 . S
H197 C174 0.929 . S
H198 C176 0.930 . S
H199 C177 0.929 . S
Nd200 C202 2.836 . S
Nd200 O220 2.500 . S
Nd200 O221 2.492 . S
Nd200 O222 2.487 . S
Nd200 O223 2.682 1_565 S
Nd200 O224 2.410 . S
Nd200 O229 2.414 . S
Nd200 O231 2.424 1_565 S
Nd201 C211 2.836 . S
Nd201 O223 2.414 . S
Nd201 O225 2.424 1_545 S
Nd201 O226 2.500 . S
Nd201 O227 2.492 . S
Nd201 O228 2.487 . S
Nd201 O229 2.682 1_545 S
Nd201 O230 2.410 . S
C202 Nd200 2.836 . S
C202 C203 1.498 . S
C202 O220 1.258 . S
C202 O221 1.239 . S
C203 C202 1.498 . S
C203 C204 1.366 . S
C203 C208 1.407 . S
C204 C203 1.366 . S
C204 C205 1.392 . S
C204 H232 0.930 . S
C205 C204 1.392 . S
C205 C206 1.398 . S
C205 H233 0.929 . S
C206 C205 1.398 . S
C206 C207 1.352 . S
C207 C206 1.352 . S
C207 C208 1.384 . S
C207 H234 0.930 . S
C208 C203 1.407 . S
C208 C207 1.384 . S
C208 H235 0.929 . S
C209 O222 1.241 1_545 S
C209 O223 1.273 . S
C210 O224 1.251 . S
C210 O225 1.268 . S
C211 Nd201 2.836 . S
C211 C212 1.498 . S
C211 O226 1.258 . S
C211 O227 1.239 . S
C212 C211 1.498 . S
C212 C213 1.366 . S
C212 C217 1.407 . S
C213 C212 1.366 . S
C213 C214 1.392 . S
C213 H236 0.930 . S
C214 C213 1.392 . S
C214 C215 1.398 . S
C214 H237 0.929 . S
C215 C214 1.398 . S
C215 C216 1.352 . S
C216 C215 1.352 . S
C216 C217 1.384 . S
C216 H238 0.930 . S
C217 C212 1.407 . S
C217 C216 1.384 . S
C217 H239 0.929 . S
C218 O228 1.211 1_565 S
C218 O229 1.289 . S
C219 O230 1.251 . S
C219 O231 1.268 . S
O220 Nd200 2.500 . S
O220 C202 1.258 . S
O221 Nd200 2.492 . S
O221 C202 1.239 . S
O222 Nd200 2.487 . S
O222 C209 1.241 1_565 S
O223 Nd200 2.682 1_545 S
O223 Nd201 2.414 . S
O223 C209 1.273 . S
O224 Nd200 2.410 . S
O224 C210 1.251 . S
O225 Nd201 2.424 1_565 S
O225 C210 1.268 . S
O226 Nd201 2.500 . S
O226 C211 1.258 . S
O227 Nd201 2.492 . S
O227 C211 1.239 . S
O228 Nd201 2.487 . S
O228 C218 1.211 1_545 S
O229 Nd200 2.414 . S
O229 Nd201 2.682 1_565 S
O229 C218 1.289 . S
O230 Nd201 2.410 . S
O230 C219 1.251 . S
O231 Nd200 2.424 1_545 S
O231 C219 1.268 . S
H232 C204 0.930 . S
H233 C205 0.929 . S
H234 C207 0.930 . S
H235 C208 0.929 . S
H236 C213 0.930 . S
H237 C214 0.929 . S
H238 C216 0.930 . S
H239 C217 0.929 . S
Nd240 C242 2.836 . S
Nd240 O260 2.500 . S
Nd240 O261 2.492 . S
Nd240 O262 2.487 . S
Nd240 O263 2.682 1_545 S
Nd240 O264 2.410 . S
Nd240 O269 2.414 . S
Nd240 O271 2.424 1_545 S
Nd241 C251 2.836 . S
Nd241 O263 2.414 . S
Nd241 O265 2.424 1_565 S
Nd241 O266 2.500 . S
Nd241 O267 2.492 . S
Nd241 O268 2.487 . S
Nd241 O269 2.682 1_565 S
Nd241 O270 2.410 . S
C242 Nd240 2.836 . S
C242 C243 1.498 . S
C242 O260 1.258 . S
C242 O261 1.239 . S
C243 C242 1.498 . S
C243 C244 1.366 . S
C243 C248 1.407 . S
C244 C243 1.366 . S
C244 C245 1.392 . S
C244 H272 0.930 . S
C245 C244 1.392 . S
C245 C246 1.398 . S
C245 H273 0.929 . S
C246 C245 1.398 . S
C246 C247 1.352 . S
C247 C246 1.352 . S
C247 C248 1.384 . S
C247 H274 0.930 . S
C248 C243 1.407 . S
C248 C247 1.384 . S
C248 H275 0.929 . S
C249 O262 1.236 1_565 S
C249 O263 1.270 . S
C250 O264 1.251 . S
C250 O265 1.268 . S
C251 Nd241 2.836 . S
C251 C252 1.498 . S
C251 O266 1.258 . S
C251 O267 1.239 . S
C252 C251 1.498 . S
C252 C253 1.366 . S
C252 C257 1.407 . S
C253 C252 1.366 . S
C253 C254 1.392 . S
C253 H276 0.930 . S
C254 C253 1.392 . S
C254 C255 1.398 . S
C254 H277 0.929 . S
C255 C254 1.398 . S
C255 C256 1.352 . S
C256 C255 1.352 . S
C256 C257 1.384 . S
C256 H278 0.930 . S
C257 C252 1.407 . S
C257 C256 1.384 . S
C257 H279 0.929 . S
C258 O268 1.241 1_545 S
C258 O269 1.273 . S
C259 O270 1.251 . S
C259 O271 1.268 . S
O260 Nd240 2.500 . S
O260 C242 1.258 . S
O261 Nd240 2.492 . S
O261 C242 1.239 . S
O262 Nd240 2.487 . S
O262 C249 1.236 1_545 S
O263 Nd240 2.682 1_565 S
O263 Nd241 2.414 . S
O263 C249 1.270 . S
O264 Nd240 2.410 . S
O264 C250 1.251 . S
O265 Nd241 2.424 1_545 S
O265 C250 1.268 . S
O266 Nd241 2.500 . S
O266 C251 1.258 . S
O267 Nd241 2.492 . S
O267 C251 1.239 . S
O268 Nd241 2.487 . S
O268 C258 1.241 1_565 S
O269 Nd240 2.414 . S
O269 Nd241 2.682 1_545 S
O269 C258 1.273 . S
O270 Nd241 2.410 . S
O270 C259 1.251 . S
O271 Nd240 2.424 1_565 S
O271 C259 1.268 . S
H272 C244 0.930 . S
H273 C245 0.929 . S
H274 C247 0.930 . S
H275 C248 0.929 . S
H276 C253 0.930 . S
H277 C254 0.929 . S
H278 C256 0.930 . S
H279 C257 0.929 . S
Nd280 C282 2.836 . S
Nd280 O300 2.500 . S
Nd280 O301 2.492 . S
Nd280 O302 2.487 1_655 S
Nd280 O303 2.682 1_655 S
Nd280 O304 2.410 . S
Nd280 O309 2.414 1_655 S
Nd280 O311 2.424 1_655 S
Nd281 C291 2.836 . S
Nd281 O303 2.414 . S
Nd281 O305 2.424 1_455 S
Nd281 O306 2.500 . S
Nd281 O307 2.492 . S
Nd281 O308 2.487 . S
Nd281 O309 2.682 . S
Nd281 O310 2.410 . S
C282 Nd280 2.836 . S
C282 C283 1.498 . S
C282 O300 1.258 . S
C282 O301 1.239 . S
C283 C282 1.498 . S
C283 C284 1.366 . S
C283 C288 1.407 . S
C284 C283 1.366 . S
C284 C285 1.392 . S
C284 H312 0.930 . S
C285 C284 1.392 . S
C285 C286 1.398 . S
C285 H313 0.929 . S
C286 C285 1.398 . S
C286 C287 1.352 . S
C287 C286 1.352 . S
C287 C288 1.384 . S
C287 H314 0.930 . S
C288 C283 1.407 . S
C288 C287 1.384 . S
C288 H315 0.929 . S
C289 O302 1.241 . S
C289 O303 1.273 . S
C290 O304 1.251 . S
C290 O305 1.268 . S
C291 Nd281 2.836 . S
C291 C292 1.498 . S
C291 O306 1.258 . S
C291 O307 1.239 . S
C292 C291 1.498 . S
C292 C293 1.366 . S
C292 C297 1.407 . S
C293 C292 1.366 . S
C293 C294 1.392 . S
C293 H316 0.930 . S
C294 C293 1.392 . S
C294 C295 1.398 . S
C294 H317 0.929 . S
C295 C294 1.398 . S
C295 C296 1.352 . S
C296 C295 1.352 . S
C296 C297 1.384 . S
C296 H318 0.930 . S
C297 C292 1.407 . S
C297 C296 1.384 . S
C297 H319 0.929 . S
C298 O308 1.241 . S
C298 O309 1.273 . S
C299 O310 1.251 . S
C299 O311 1.268 . S
O300 Nd280 2.500 . S
O300 C282 1.258 . S
O301 Nd280 2.492 . S
O301 C282 1.239 . S
O302 Nd280 2.487 1_455 S
O302 C289 1.241 . S
O303 Nd280 2.682 1_455 S
O303 Nd281 2.414 . S
O303 C289 1.273 . S
O304 Nd280 2.410 . S
O304 C290 1.251 . S
O305 Nd281 2.424 1_655 S
O305 C290 1.268 . S
O306 Nd281 2.500 . S
O306 C291 1.258 . S
O307 Nd281 2.492 . S
O307 C291 1.239 . S
O308 Nd281 2.487 . S
O308 C298 1.241 . S
O309 Nd280 2.414 1_455 S
O309 Nd281 2.682 . S
O309 C298 1.273 . S
O310 Nd281 2.410 . S
O310 C299 1.251 . S
O311 Nd280 2.424 1_455 S
O311 C299 1.268 . S
H312 C284 0.930 . S
H313 C285 0.929 . S
H314 C287 0.930 . S
H315 C288 0.929 . S
H316 C293 0.930 . S
H317 C294 0.929 . S
H318 C296 0.930 . S
H319 C297 0.929 . S
Nd320 C322 2.836 . S
Nd320 O340 2.500 . S
Nd320 O341 2.492 . S
Nd320 O342 2.487 . S
Nd320 O343 2.682 . S
Nd320 O344 2.410 . S
Nd320 O349 2.414 . S
Nd320 O351 2.424 . S
Nd321 C331 2.836 . S
Nd321 O343 2.414 . S
Nd321 O345 2.424 . S
Nd321 O346 2.500 . S
Nd321 O347 2.492 . S
Nd321 O348 2.487 . S
Nd321 O349 2.682 . S
Nd321 O350 2.410 . S
C322 Nd320 2.836 . S
C322 C323 1.498 . S
C322 O340 1.258 . S
C322 O341 1.239 . S
C323 C322 1.498 . S
C323 C324 1.366 . S
C323 C328 1.407 . S
C324 C323 1.366 . S
C324 C325 1.392 . S
C324 H352 0.930 . S
C325 C324 1.392 . S
C325 C326 1.398 . S
C325 H353 0.929 . S
C326 C325 1.398 . S
C326 C327 1.352 . S
C327 C326 1.352 . S
C327 C328 1.384 . S
C327 H354 0.930 . S
C328 C323 1.407 . S
C328 C327 1.384 . S
C328 H355 0.929 . S
C329 O342 1.241 . S
C329 O343 1.273 . S
C330 O344 1.251 . S
C330 O345 1.268 . S
C331 Nd321 2.836 . S
C331 C332 1.498 . S
C331 O346 1.258 . S
C331 O347 1.239 . S
C332 C331 1.498 . S
C332 C333 1.366 . S
C332 C337 1.407 . S
C333 C332 1.366 . S
C333 C334 1.392 . S
C333 H356 0.930 . S
C334 C333 1.392 . S
C334 C335 1.398 . S
C334 H357 0.929 . S
C335 C334 1.398 . S
C335 C336 1.352 . S
C336 C335 1.352 . S
C336 C337 1.384 . S
C336 H358 0.930 . S
C337 C332 1.407 . S
C337 C336 1.384 . S
C337 H359 0.929 . S
C338 O348 1.241 . S
C338 O349 1.273 . S
C339 O350 1.251 . S
C339 O351 1.268 . S
O340 Nd320 2.500 . S
O340 C322 1.258 . S
O341 Nd320 2.492 . S
O341 C322 1.239 . S
O342 Nd320 2.487 . S
O342 C329 1.241 . S
O343 Nd320 2.682 . S
O343 Nd321 2.414 . S
O343 C329 1.273 . S
O344 Nd320 2.410 . S
O344 C330 1.251 . S
O345 Nd321 2.424 . S
O345 C330 1.268 . S
O346 Nd321 2.500 . S
O346 C331 1.258 . S
O347 Nd321 2.492 . S
O347 C331 1.239 . S
O348 Nd321 2.487 . S
O348 C338 1.241 . S
O349 Nd320 2.414 . S
O349 Nd321 2.682 . S
O349 C338 1.273 . S
O350 Nd321 2.410 . S
O350 C339 1.251 . S
O351 Nd320 2.424 . S
O351 C339 1.268 . S
H352 C324 0.930 . S
H353 C325 0.929 . S
H354 C327 0.930 . S
H355 C328 0.929 . S
H356 C333 0.930 . S
H357 C334 0.929 . S
H358 C336 0.930 . S
H359 C337 0.929 . S
Nd360 C362 2.836 . S
Nd360 O380 2.500 . S
Nd360 O381 2.492 . S
Nd360 O382 2.487 . S
Nd360 O383 2.682 1_455 S
Nd360 O384 2.410 . S
Nd360 O389 2.414 . S
Nd360 O391 2.424 1_455 S
Nd361 C371 2.836 . S
Nd361 O383 2.414 . S
Nd361 O385 2.424 1_655 S
Nd361 O386 2.500 . S
Nd361 O387 2.492 . S
Nd361 O388 2.487 . S
Nd361 O389 2.682 1_655 S
Nd361 O390 2.410 . S
C362 Nd360 2.836 . S
C362 C363 1.498 . S
C362 O380 1.258 . S
C362 O381 1.239 . S
C363 C362 1.498 . S
C363 C364 1.366 . S
C363 C368 1.407 . S
C364 C363 1.366 . S
C364 C365 1.392 . S
C364 H392 0.930 . S
C365 C364 1.392 . S
C365 C366 1.398 . S
C365 H393 0.929 . S
C366 C365 1.398 . S
C366 C367 1.352 . S
C367 C366 1.352 . S
C367 C368 1.384 . S
C367 H394 0.930 . S
C368 C363 1.407 . S
C368 C367 1.384 . S
C368 H395 0.929 . S
C369 O382 1.236 1_655 S
C369 O383 1.270 . S
C370 O384 1.251 . S
C370 O385 1.268 . S
C371 Nd361 2.836 . S
C371 C372 1.498 . S
C371 O386 1.258 . S
C371 O387 1.239 . S
C372 C371 1.498 . S
C372 C373 1.366 . S
C372 C377 1.407 . S
C373 C372 1.366 . S
C373 C374 1.392 . S
C373 H396 0.930 . S
C374 C373 1.392 . S
C374 C375 1.398 . S
C374 H397 0.929 . S
C375 C374 1.398 . S
C375 C376 1.352 . S
C376 C375 1.352 . S
C376 C377 1.384 . S
C376 H398 0.930 . S
C377 C372 1.407 . S
C377 C376 1.384 . S
C377 H399 0.929 . S
C378 O388 1.241 1_455 S
C378 O389 1.273 . S
C379 O390 1.251 . S
C379 O391 1.268 . S
O380 Nd360 2.500 . S
O380 C362 1.258 . S
O381 Nd360 2.492 . S
O381 C362 1.239 . S
O382 Nd360 2.487 . S
O382 C369 1.236 1_455 S
O383 Nd360 2.682 1_655 S
O383 Nd361 2.414 . S
O383 C369 1.270 . S
O384 Nd360 2.410 . S
O384 C370 1.251 . S
O385 Nd361 2.424 1_455 S
O385 C370 1.268 . S
O386 Nd361 2.500 . S
O386 C371 1.258 . S
O387 Nd361 2.492 . S
O387 C371 1.239 . S
O388 Nd361 2.487 . S
O388 C378 1.241 1_655 S
O389 Nd360 2.414 . S
O389 Nd361 2.682 1_455 S
O389 C378 1.273 . S
O390 Nd361 2.410 . S
O390 C379 1.251 . S
O391 Nd360 2.424 1_655 S
O391 C379 1.268 . S
H392 C364 0.930 . S
H393 C365 0.929 . S
H394 C367 0.930 . S
H395 C368 0.929 . S
H396 C373 0.930 . S
H397 C374 0.929 . S
H398 C376 0.930 . S
H399 C377 0.929 . S
Nd400 C402 2.836 . S
Nd400 O420 2.500 . S
Nd400 O421 2.492 . S
Nd400 O422 2.487 . S
Nd400 O423 2.682 . S
Nd400 O424 2.410 . S
Nd400 O429 2.414 . S
Nd400 O431 2.424 . S
Nd401 C411 2.836 . S
Nd401 O423 2.414 . S
Nd401 O425 2.424 . S
Nd401 O426 2.500 . S
Nd401 O427 2.492 . S
Nd401 O428 2.487 . S
Nd401 O429 2.682 . S
Nd401 O430 2.410 . S
C402 Nd400 2.836 . S
C402 C403 1.498 . S
C402 O420 1.258 . S
C402 O421 1.239 . S
C403 C402 1.498 . S
C403 C404 1.366 . S
C403 C408 1.407 . S
C404 C403 1.366 . S
C404 C405 1.392 . S
C404 H432 0.930 . S
C405 C404 1.392 . S
C405 C406 1.398 . S
C405 H433 0.929 . S
C406 C405 1.398 . S
C406 C407 1.352 . S
C407 C406 1.352 . S
C407 C408 1.384 . S
C407 H434 0.930 . S
C408 C403 1.407 . S
C408 C407 1.384 . S
C408 H435 0.929 . S
C409 O422 1.241 . S
C409 O423 1.273 . S
C410 O424 1.251 . S
C410 O425 1.268 . S
C411 Nd401 2.836 . S
C411 C412 1.498 . S
C411 O426 1.258 . S
C411 O427 1.239 . S
C412 C411 1.498 . S
C412 C413 1.366 . S
C412 C417 1.407 . S
C413 C412 1.366 . S
C413 C414 1.392 . S
C413 H436 0.930 . S
C414 C413 1.392 . S
C414 C415 1.398 . S
C414 H437 0.929 . S
C415 C414 1.398 . S
C415 C416 1.352 . S
C416 C415 1.352 . S
C416 C417 1.384 . S
C416 H438 0.930 . S
C417 C412 1.407 . S
C417 C416 1.384 . S
C417 H439 0.929 . S
C418 O428 1.241 . S
C418 O429 1.273 . S
C419 O430 1.251 . S
C419 O431 1.268 . S
O420 Nd400 2.500 . S
O420 C402 1.258 . S
O421 Nd400 2.492 . S
O421 C402 1.239 . S
O422 Nd400 2.487 . S
O422 C409 1.241 . S
O423 Nd400 2.682 . S
O423 Nd401 2.414 . S
O423 C409 1.273 . S
O424 Nd400 2.410 . S
O424 C410 1.251 . S
O425 Nd401 2.424 . S
O425 C410 1.268 . S
O426 Nd401 2.500 . S
O426 C411 1.258 . S
O427 Nd401 2.492 . S
O427 C411 1.239 . S
O428 Nd401 2.487 . S
O428 C418 1.241 . S
O429 Nd400 2.414 . S
O429 Nd401 2.682 . S
O429 C418 1.273 . S
O430 Nd401 2.410 . S
O430 C419 1.251 . S
O431 Nd400 2.424 . S
O431 C419 1.268 . S
H432 C404 0.930 . S
H433 C405 0.929 . S
H434 C407 0.930 . S
H435 C408 0.929 . S
H436 C413 0.930 . S
H437 C414 0.929 . S
H438 C416 0.930 . S
H439 C417 0.929 . S
Nd440 C442 2.836 . S
Nd440 O460 2.500 . S
Nd440 O461 2.492 . S
Nd440 O462 2.487 1_565 S
Nd440 O463 2.682 1_565 S
Nd440 O464 2.410 . S
Nd440 O469 2.414 1_565 S
Nd440 O471 2.424 1_565 S
Nd441 C451 2.836 . S
Nd441 O463 2.414 . S
Nd441 O465 2.424 1_545 S
Nd441 O466 2.500 . S
Nd441 O467 2.492 . S
Nd441 O468 2.487 . S
Nd441 O469 2.682 . S
Nd441 O470 2.410 . S
C442 Nd440 2.836 . S
C442 C443 1.498 . S
C442 O460 1.258 . S
C442 O461 1.239 . S
C443 C442 1.498 . S
C443 C444 1.366 . S
C443 C448 1.407 . S
C444 C443 1.366 . S
C444 C445 1.392 . S
C444 H472 0.930 . S
C445 C444 1.392 . S
C445 C446 1.398 . S
C445 H473 0.929 . S
C446 C445 1.398 . S
C446 C447 1.352 . S
C447 C446 1.352 . S
C447 C448 1.384 . S
C447 H474 0.930 . S
C448 C443 1.407 . S
C448 C447 1.384 . S
C448 H475 0.929 . S
C449 O462 1.241 . S
C449 O463 1.273 . S
C450 O464 1.251 . S
C450 O465 1.268 . S
C451 Nd441 2.836 . S
C451 C452 1.498 . S
C451 O466 1.258 . S
C451 O467 1.239 . S
C452 C451 1.498 . S
C452 C453 1.366 . S
C452 C457 1.407 . S
C453 C452 1.366 . S
C453 C454 1.392 . S
C453 H476 0.930 . S
C454 C453 1.392 . S
C454 C455 1.398 . S
C454 H477 0.929 . S
C455 C454 1.398 . S
C455 C456 1.352 . S
C456 C455 1.352 . S
C456 C457 1.384 . S
C456 H478 0.930 . S
C457 C452 1.407 . S
C457 C456 1.384 . S
C457 H479 0.929 . S
C458 O468 1.241 . S
C458 O469 1.273 . S
C459 O470 1.251 . S
C459 O471 1.268 . S
O460 Nd440 2.500 . S
O460 C442 1.258 . S
O461 Nd440 2.492 . S
O461 C442 1.239 . S
O462 Nd440 2.487 1_545 S
O462 C449 1.241 . S
O463 Nd440 2.682 1_545 S
O463 Nd441 2.414 . S
O463 C449 1.273 . S
O464 Nd440 2.410 . S
O464 C450 1.251 . S
O465 Nd441 2.424 1_565 S
O465 C450 1.268 . S
O466 Nd441 2.500 . S
O466 C451 1.258 . S
O467 Nd441 2.492 . S
O467 C451 1.239 . S
O468 Nd441 2.487 . S
O468 C458 1.241 . S
O469 Nd440 2.414 1_545 S
O469 Nd441 2.682 . S
O469 C458 1.273 . S
O470 Nd441 2.410 . S
O470 C459 1.251 . S
O471 Nd440 2.424 1_545 S
O471 C459 1.268 . S
H472 C444 0.930 . S
H473 C445 0.929 . S
H474 C447 0.930 . S
H475 C448 0.929 . S
H476 C453 0.930 . S
H477 C454 0.929 . S
H478 C456 0.930 . S
H479 C457 0.929 . S
Nd480 C482 2.836 . S
Nd480 O500 2.500 . S
Nd480 O501 2.492 . S
Nd480 O502 2.487 . S
Nd480 O503 2.682 . S
Nd480 O504 2.410 . S
Nd480 O509 2.414 . S
Nd480 O511 2.424 . S
Nd481 C491 2.836 . S
Nd481 O503 2.414 . S
Nd481 O505 2.424 . S
Nd481 O506 2.500 . S
Nd481 O507 2.492 . S
Nd481 O508 2.487 . S
Nd481 O509 2.682 . S
Nd481 O510 2.410 . S
C482 Nd480 2.836 . S
C482 C483 1.498 . S
C482 O500 1.258 . S
C482 O501 1.239 . S
C483 C482 1.498 . S
C483 C484 1.366 . S
C483 C488 1.407 . S
C484 C483 1.366 . S
C484 C485 1.392 . S
C484 H512 0.930 . S
C485 C484 1.392 . S
C485 C486 1.398 . S
C485 H513 0.929 . S
C486 C485 1.398 . S
C486 C487 1.352 . S
C487 C486 1.352 . S
C487 C488 1.384 . S
C487 H514 0.930 . S
C488 C483 1.407 . S
C488 C487 1.384 . S
C488 H515 0.929 . S
C489 O502 1.241 . S
C489 O503 1.273 . S
C490 O504 1.251 . S
C490 O505 1.268 . S
C491 Nd481 2.836 . S
C491 C492 1.498 . S
C491 O506 1.258 . S
C491 O507 1.239 . S
C492 C491 1.498 . S
C492 C493 1.366 . S
C492 C497 1.407 1_455 S
C493 C492 1.366 . S
C493 C494 1.392 1_455 S
C493 H516 0.930 . S
C494 C493 1.392 1_655 S
C494 C495 1.398 . S
C494 H517 0.929 . S
C495 C494 1.398 . S
C495 C496 1.352 . S
C496 C495 1.352 . S
C496 C497 1.384 . S
C496 H518 0.930 . S
C497 C492 1.407 1_655 S
C497 C496 1.384 . S
C497 H519 0.929 . S
C498 O508 1.241 . S
C498 O509 1.273 . S
C499 O510 1.251 . S
C499 O511 1.268 . S
O500 Nd480 2.500 . S
O500 C482 1.258 . S
O501 Nd480 2.492 . S
O501 C482 1.239 . S
O502 Nd480 2.487 . S
O502 C489 1.241 . S
O503 Nd480 2.682 . S
O503 Nd481 2.414 . S
O503 C489 1.273 . S
O504 Nd480 2.410 . S
O504 C490 1.251 . S
O505 Nd481 2.424 . S
O505 C490 1.268 . S
O506 Nd481 2.500 . S
O506 C491 1.258 . S
O507 Nd481 2.492 . S
O507 C491 1.239 . S
O508 Nd481 2.487 . S
O508 C498 1.241 . S
O509 Nd480 2.414 . S
O509 Nd481 2.682 . S
O509 C498 1.273 . S
O510 Nd481 2.410 . S
O510 C499 1.251 . S
O511 Nd480 2.424 . S
O511 C499 1.268 . S
H512 C484 0.930 . S
H513 C485 0.929 . S
H514 C487 0.930 . S
H515 C488 0.929 . S
H516 C493 0.930 . S
H517 C494 0.929 . S
H518 C496 0.930 . S
H519 C497 0.929 . S
Nd520 C522 2.836 . S
Nd520 O540 2.500 . S
Nd520 O541 2.492 . S
Nd520 O542 2.487 . S
Nd520 O543 2.682 . S
Nd520 O544 2.410 . S
Nd520 O549 2.414 . S
Nd520 O551 2.424 . S
Nd521 C531 2.836 . S
Nd521 O543 2.414 . S
Nd521 O545 2.424 . S
Nd521 O546 2.500 . S
Nd521 O547 2.492 . S
Nd521 O548 2.487 . S
Nd521 O549 2.682 . S
Nd521 O550 2.410 . S
C522 Nd520 2.836 . S
C522 C523 1.498 . S
C522 O540 1.258 . S
C522 O541 1.239 . S
C523 C522 1.498 . S
C523 C524 1.366 . S
C523 C528 1.407 . S
C524 C523 1.366 . S
C524 C525 1.392 . S
C524 H552 0.930 . S
C525 C524 1.392 . S
C525 C526 1.398 . S
C525 H553 0.929 . S
C526 C525 1.398 . S
C526 C527 1.352 . S
C527 C526 1.352 . S
C527 C528 1.384 . S
C527 H554 0.930 . S
C528 C523 1.407 . S
C528 C527 1.384 . S
C528 H555 0.929 . S
C529 O542 1.241 . S
C529 O543 1.273 . S
C530 O544 1.251 . S
C530 O545 1.268 . S
C531 Nd521 2.836 . S
C531 C532 1.498 . S
C531 O546 1.258 . S
C531 O547 1.239 . S
C532 C531 1.498 . S
C532 C533 1.366 . S
C532 C537 1.407 . S
C533 C532 1.366 . S
C533 C534 1.392 . S
C533 H556 0.930 . S
C534 C533 1.392 . S
C534 C535 1.398 . S
C534 H557 0.929 . S
C535 C534 1.398 . S
C535 C536 1.352 . S
C536 C535 1.352 . S
C536 C537 1.384 . S
C536 H558 0.930 . S
C537 C532 1.407 . S
C537 C536 1.384 . S
C537 H559 0.929 . S
C538 O548 1.241 . S
C538 O549 1.273 . S
C539 O550 1.251 . S
C539 O551 1.268 . S
O540 Nd520 2.500 . S
O540 C522 1.258 . S
O541 Nd520 2.492 . S
O541 C522 1.239 . S
O542 Nd520 2.487 . S
O542 C529 1.241 . S
O543 Nd520 2.682 . S
O543 Nd521 2.414 . S
O543 C529 1.273 . S
O544 Nd520 2.410 . S
O544 C530 1.251 . S
O545 Nd521 2.424 . S
O545 C530 1.268 . S
O546 Nd521 2.500 . S
O546 C531 1.258 . S
O547 Nd521 2.492 . S
O547 C531 1.239 . S
O548 Nd521 2.487 . S
O548 C538 1.241 . S
O549 Nd520 2.414 . S
O549 Nd521 2.682 . S
O549 C538 1.273 . S
O550 Nd521 2.410 . S
O550 C539 1.251 . S
O551 Nd520 2.424 . S
O551 C539 1.268 . S
H552 C524 0.930 . S
H553 C525 0.929 . S
H554 C527 0.930 . S
H555 C528 0.929 . S
H556 C533 0.930 . S
H557 C534 0.929 . S
H558 C536 0.930 . S
H559 C537 0.929 . S
Nd560 C562 2.836 . S
Nd560 O580 2.500 . S
Nd560 O581 2.492 . S
Nd560 O582 2.487 . S
Nd560 O583 2.682 . S
Nd560 O584 2.410 . S
Nd560 O589 2.414 . S
Nd560 O591 2.424 . S
Nd561 C571 2.836 . S
Nd561 O583 2.414 . S
Nd561 O585 2.424 . S
Nd561 O586 2.500 . S
Nd561 O587 2.492 . S
Nd561 O588 2.487 . S
Nd561 O589 2.682 . S
Nd561 O590 2.410 . S
C562 Nd560 2.836 . S
C562 C563 1.498 . S
C562 O580 1.258 . S
C562 O581 1.239 . S
C563 C562 1.498 . S
C563 C564 1.366 . S
C563 C568 1.407 . S
C564 C563 1.366 . S
C564 C565 1.392 . S
C564 H592 0.930 . S
C565 C564 1.392 . S
C565 C566 1.398 . S
C565 H593 0.929 . S
C566 C565 1.398 . S
C566 C567 1.352 . S
C567 C566 1.352 . S
C567 C568 1.384 . S
C567 H594 0.930 . S
C568 C563 1.407 . S
C568 C567 1.384 . S
C568 H595 0.929 . S
C569 O582 1.241 . S
C569 O583 1.273 . S
C570 O584 1.251 . S
C570 O585 1.268 . S
C571 Nd561 2.836 . S
C571 C572 1.498 1_565 S
C571 O586 1.258 . S
C571 O587 1.239 . S
C572 C571 1.498 1_545 S
C572 C573 1.366 . S
C572 C577 1.407 . S
C573 C572 1.366 . S
C573 C574 1.392 . S
C573 H596 0.930 1_545 S
C574 C573 1.392 . S
C574 C575 1.398 . S
C574 H597 0.929 . S
C575 C574 1.398 . S
C575 C576 1.352 . S
C576 C575 1.352 . S
C576 C577 1.384 . S
C576 H598 0.930 . S
C577 C572 1.407 . S
C577 C576 1.384 . S
C577 H599 0.929 . S
C578 O588 1.241 . S
C578 O589 1.273 . S
C579 O590 1.251 . S
C579 O591 1.268 . S
O580 Nd560 2.500 . S
O580 C562 1.258 . S
O581 Nd560 2.492 . S
O581 C562 1.239 . S
O582 Nd560 2.487 . S
O582 C569 1.241 . S
O583 Nd560 2.682 . S
O583 Nd561 2.414 . S
O583 C569 1.273 . S
O584 Nd560 2.410 . S
O584 C570 1.251 . S
O585 Nd561 2.424 . S
O585 C570 1.268 . S
O586 Nd561 2.500 . S
O586 C571 1.258 . S
O587 Nd561 2.492 . S
O587 C571 1.239 . S
O588 Nd561 2.487 . S
O588 C578 1.241 . S
O589 Nd560 2.414 . S
O589 Nd561 2.682 . S
O589 C578 1.273 . S
O590 Nd561 2.410 . S
O590 C579 1.251 . S
O591 Nd560 2.424 . S
O591 C579 1.268 . S
H592 C564 0.930 . S
H593 C565 0.929 . S
H594 C567 0.930 . S
H595 C568 0.929 . S
H596 C573 0.930 1_565 S
H597 C574 0.929 . S
H598 C576 0.930 . S
H599 C577 0.929 . S
Nd600 C602 2.836 . S
Nd600 O620 2.500 . S
Nd600 O621 2.492 . S
Nd600 O622 2.487 . S
Nd600 O623 2.682 . S
Nd600 O624 2.410 . S
Nd600 O629 2.414 . S
Nd600 O631 2.424 . S
Nd601 C611 2.836 . S
Nd601 O623 2.414 . S
Nd601 O625 2.424 . S
Nd601 O626 2.500 . S
Nd601 O627 2.492 . S
Nd601 O628 2.487 . S
Nd601 O629 2.682 . S
Nd601 O630 2.410 . S
C602 Nd600 2.836 . S
C602 C603 1.498 . S
C602 O620 1.258 . S
C602 O621 1.239 . S
C603 C602 1.498 . S
C603 C604 1.366 . S
C603 C608 1.427 . S
C604 C603 1.366 . S
C604 C605 1.392 . S
C604 H632 0.930 . S
C605 C604 1.392 . S
C605 C606 1.398 1_565 S
C605 H633 0.929 . S
C606 C605 1.398 1_545 S
C606 C607 1.352 . S
C607 C606 1.352 . S
C607 C608 1.375 1_545 S
C607 H634 0.930 . S
C608 C603 1.427 . S
C608 C607 1.375 1_565 S
C608 H635 0.924 . S
C609 O622 1.241 . S
C609 O623 1.273 . S
C610 O624 1.251 . S
C610 O625 1.268 . S
C611 Nd601 2.836 . S
C611 C612 1.498 . S
C611 O626 1.258 . S
C611 O627 1.239 . S
C612 C611 1.498 . S
C612 C613 1.366 . S
C612 C617 1.407 . S
C613 C612 1.366 . S
C613 C614 1.392 . S
C613 H636 0.930 . S
C614 C613 1.392 . S
C614 C615 1.398 . S
C614 H637 0.929 . S
C615 C614 1.398 . S
C615 C616 1.352 . S
C616 C615 1.352 . S
C616 C617 1.384 . S
C616 H638 0.930 . S
C617 C612 1.407 . S
C617 C616 1.384 . S
C617 H639 0.929 . S
C618 O628 1.241 . S
C618 O629 1.273 . S
C619 O630 1.251 . S
C619 O631 1.268 . S
O620 Nd600 2.500 . S
O620 C602 1.258 . S
O621 Nd600 2.492 . S
O621 C602 1.239 . S
O622 Nd600 2.487 . S
O622 C609 1.241 . S
O623 Nd600 2.682 . S
O623 Nd601 2.414 . S
O623 C609 1.273 . S
O624 Nd600 2.410 . S
O624 C610 1.251 . S
O625 Nd601 2.424 . S
O625 C610 1.268 . S
O626 Nd601 2.500 . S
O626 C611 1.258 . S
O627 Nd601 2.492 . S
O627 C611 1.239 . S
O628 Nd601 2.487 . S
O628 C618 1.241 . S
O629 Nd600 2.414 . S
O629 Nd601 2.682 . S
O629 C618 1.273 . S
O630 Nd601 2.410 . S
O630 C619 1.251 . S
O631 Nd600 2.424 . S
O631 C619 1.268 . S
H632 C604 0.930 . S
H633 C605 0.929 . S
H634 C607 0.930 . S
H635 C608 0.924 . S
H636 C613 0.930 . S
H637 C614 0.929 . S
H638 C616 0.930 . S
H639 C617 0.929 . S
Nd640 C642 2.836 . S
Nd640 O660 2.500 . S
Nd640 O661 2.492 . S
Nd640 O662 2.487 . S
Nd640 O663 2.682 . S
Nd640 O664 2.410 . S
Nd640 O669 2.414 . S
Nd640 O671 2.424 . S
Nd641 C651 2.836 . S
Nd641 O663 2.414 . S
Nd641 O665 2.424 . S
Nd641 O666 2.500 . S
Nd641 O667 2.492 . S
Nd641 O668 2.487 . S
Nd641 O669 2.682 . S
Nd641 O670 2.410 . S
C642 Nd640 2.836 . S
C642 C643 1.498 . S
C642 O660 1.258 . S
C642 O661 1.239 . S
C643 C642 1.498 . S
C643 C644 1.366 . S
C643 C648 1.407 . S
C644 C643 1.366 . S
C644 C645 1.392 . S
C644 H672 0.930 . S
C645 C644 1.392 . S
C645 C646 1.398 . S
C645 H673 0.929 . S
C646 C645 1.398 . S
C646 C647 1.352 . S
C647 C646 1.352 . S
C647 C648 1.384 . S
C647 H674 0.930 1_455 S
C648 C643 1.407 . S
C648 C647 1.384 . S
C648 H675 0.929 . S
C649 O662 1.241 . S
C649 O663 1.273 . S
C650 O664 1.251 . S
C650 O665 1.268 . S
C651 Nd641 2.836 . S
C651 C652 1.498 . S
C651 O666 1.258 . S
C651 O667 1.239 . S
C652 C651 1.498 . S
C652 C653 1.366 . S
C652 C657 1.407 . S
C653 C652 1.366 . S
C653 C654 1.392 . S
C653 H676 0.930 . S
C654 C653 1.392 . S
C654 C655 1.398 . S
C654 H677 0.929 . S
C655 C654 1.398 . S
C655 C656 1.352 . S
C656 C655 1.352 . S
C656 C657 1.384 . S
C656 H678 0.930 . S
C657 C652 1.407 . S
C657 C656 1.384 . S
C657 H679 0.929 . S
C658 O668 1.241 . S
C658 O669 1.273 . S
C659 O670 1.251 . S
C659 O671 1.268 . S
O660 Nd640 2.500 . S
O660 C642 1.258 . S
O661 Nd640 2.492 . S
O661 C642 1.239 . S
O662 Nd640 2.487 . S
O662 C649 1.241 . S
O663 Nd640 2.682 . S
O663 Nd641 2.414 . S
O663 C649 1.273 . S
O664 Nd640 2.410 . S
O664 C650 1.251 . S
O665 Nd641 2.424 . S
O665 C650 1.268 . S
O666 Nd641 2.500 . S
O666 C651 1.258 . S
O667 Nd641 2.492 . S
O667 C651 1.239 . S
O668 Nd641 2.487 . S
O668 C658 1.241 . S
O669 Nd640 2.414 . S
O669 Nd641 2.682 . S
O669 C658 1.273 . S
O670 Nd641 2.410 . S
O670 C659 1.251 . S
O671 Nd640 2.424 . S
O671 C659 1.268 . S
H672 C644 0.930 . S
H673 C645 0.929 . S
H674 C647 0.930 1_655 S
H675 C648 0.929 . S
H676 C653 0.930 . S
H677 C654 0.929 . S
H678 C656 0.930 . S
H679 C657 0.929 . S
Nd680 C682 2.836 . S
Nd680 O700 2.500 . S
Nd680 O701 2.492 . S
Nd680 O702 2.487 . S
Nd680 O703 2.682 . S
Nd680 O704 2.410 . S
Nd680 O709 2.414 . S
Nd680 O711 2.424 . S
Nd681 C691 2.836 . S
Nd681 O703 2.414 . S
Nd681 O705 2.424 . S
Nd681 O706 2.500 . S
Nd681 O707 2.492 . S
Nd681 O708 2.487 . S
Nd681 O709 2.682 . S
Nd681 O710 2.410 . S
C682 Nd680 2.836 . S
C682 C683 1.498 . S
C682 O700 1.258 . S
C682 O701 1.239 . S
C683 C682 1.498 . S
C683 C684 1.366 . S
C683 C688 1.407 . S
C684 C683 1.366 . S
C684 C685 1.392 . S
C684 H712 0.930 . S
C685 C684 1.392 . S
C685 C686 1.398 . S
C685 H713 0.929 . S
C686 C685 1.398 . S
C686 C687 1.352 . S
C687 C686 1.352 . S
C687 C688 1.384 . S
C687 H714 0.930 . S
C688 C683 1.407 . S
C688 C687 1.384 . S
C688 H715 0.929 . S
C689 O702 1.241 . S
C689 O703 1.273 . S
C690 O704 1.251 . S
C690 O705 1.268 . S
C691 Nd681 2.836 . S
C691 C692 1.498 . S
C691 O706 1.258 . S
C691 O707 1.239 . S
C692 C691 1.498 . S
C692 C693 1.366 . S
C692 C697 1.407 . S
C693 C692 1.366 . S
C693 C694 1.392 . S
C693 H716 0.930 . S
C694 C693 1.392 . S
C694 C695 1.398 . S
C694 H717 0.929 . S
C695 C694 1.398 . S
C695 C696 1.352 . S
C696 C695 1.352 . S
C696 C697 1.384 . S
C696 H718 0.930 . S
C697 C692 1.407 . S
C697 C696 1.384 . S
C697 H719 0.929 . S
C698 O708 1.241 . S
C698 O709 1.273 . S
C699 O710 1.251 . S
C699 O711 1.268 . S
O700 Nd680 2.500 . S
O700 C682 1.258 . S
O701 Nd680 2.492 . S
O701 C682 1.239 . S
O702 Nd680 2.487 . S
O702 C689 1.241 . S
O703 Nd680 2.682 . S
O703 Nd681 2.414 . S
O703 C689 1.273 . S
O704 Nd680 2.410 . S
O704 C690 1.251 . S
O705 Nd681 2.424 . S
O705 C690 1.268 . S
O706 Nd681 2.500 . S
O706 C691 1.258 . S
O707 Nd681 2.492 . S
O707 C691 1.239 . S
O708 Nd681 2.487 . S
O708 C698 1.241 . S
O709 Nd680 2.414 . S
O709 Nd681 2.682 . S
O709 C698 1.273 . S
O710 Nd681 2.410 . S
O710 C699 1.251 . S
O711 Nd680 2.424 . S
O711 C699 1.268 . S
H712 C684 0.930 . S
H713 C685 0.929 . S
H714 C687 0.930 . S
H715 C688 0.929 . S
H716 C693 0.930 . S
H717 C694 0.929 . S
H718 C696 0.930 . S
H719 C697 0.929 . S
Nd720 C722 2.836 . S
Nd720 O740 2.500 . S
Nd720 O741 2.492 . S
Nd720 O742 2.487 . S
Nd720 O743 2.682 . S
Nd720 O744 2.410 . S
Nd720 O749 2.414 . S
Nd720 O751 2.424 . S
Nd721 C731 2.836 . S
Nd721 O743 2.414 . S
Nd721 O745 2.424 . S
Nd721 O746 2.500 . S
Nd721 O747 2.492 . S
Nd721 O748 2.487 . S
Nd721 O749 2.682 . S
Nd721 O750 2.410 . S
C722 Nd720 2.836 . S
C722 C723 1.498 . S
C722 O740 1.258 . S
C722 O741 1.239 . S
C723 C722 1.498 . S
C723 C724 1.366 . S
C723 C728 1.407 . S
C724 C723 1.366 . S
C724 C725 1.392 . S
C724 H752 0.930 . S
C725 C724 1.392 . S
C725 C726 1.398 . S
C725 H753 0.929 . S
C726 C725 1.398 . S
C726 C727 1.352 . S
C727 C726 1.352 . S
C727 C728 1.384 . S
C727 H754 0.930 . S
C728 C723 1.407 . S
C728 C727 1.384 . S
C728 H755 0.929 . S
C729 O742 1.241 . S
C729 O743 1.273 . S
C730 O744 1.251 . S
C730 O745 1.268 . S
C731 Nd721 2.836 . S
C731 C732 1.498 . S
C731 O746 1.258 . S
C731 O747 1.239 . S
C732 C731 1.498 . S
C732 C733 1.366 . S
C732 C737 1.407 . S
C733 C732 1.366 . S
C733 C734 1.392 . S
C733 H756 0.930 . S
C734 C733 1.392 . S
C734 C735 1.398 . S
C734 H757 0.929 . S
C735 C734 1.398 . S
C735 C736 1.352 . S
C736 C735 1.352 . S
C736 C737 1.384 . S
C736 H758 0.930 1_455 S
C737 C732 1.407 . S
C737 C736 1.384 . S
C737 H759 0.929 . S
C738 O748 1.241 . S
C738 O749 1.273 . S
C739 O750 1.251 . S
C739 O751 1.268 . S
O740 Nd720 2.500 . S
O740 C722 1.258 . S
O741 Nd720 2.492 . S
O741 C722 1.239 . S
O742 Nd720 2.487 . S
O742 C729 1.241 . S
O743 Nd720 2.682 . S
O743 Nd721 2.414 . S
O743 C729 1.273 . S
O744 Nd720 2.410 . S
O744 C730 1.251 . S
O745 Nd721 2.424 . S
O745 C730 1.268 . S
O746 Nd721 2.500 . S
O746 C731 1.258 . S
O747 Nd721 2.492 . S
O747 C731 1.239 . S
O748 Nd721 2.487 . S
O748 C738 1.241 . S
O749 Nd720 2.414 . S
O749 Nd721 2.682 . S
O749 C738 1.273 . S
O750 Nd721 2.410 . S
O750 C739 1.251 . S
O751 Nd720 2.424 . S
O751 C739 1.268 . S
H752 C724 0.930 . S
H753 C725 0.929 . S
H754 C727 0.930 . S
H755 C728 0.929 . S
H756 C733 0.930 . S
H757 C734 0.929 . S
H758 C736 0.930 1_655 S
H759 C737 0.929 . S
Nd760 C762 2.836 . S
Nd760 O780 2.500 . S
Nd760 O781 2.492 . S
Nd760 O782 2.487 . S
Nd760 O783 2.682 . S
Nd760 O784 2.410 . S
Nd760 O789 2.414 . S
Nd760 O791 2.424 . S
Nd761 C771 2.836 . S
Nd761 O783 2.414 . S
Nd761 O785 2.424 . S
Nd761 O786 2.500 . S
Nd761 O787 2.492 . S
Nd761 O788 2.487 . S
Nd761 O789 2.682 . S
Nd761 O790 2.410 . S
C762 Nd760 2.836 . S
C762 C763 1.498 . S
C762 O780 1.258 . S
C762 O781 1.239 . S
C763 C762 1.498 . S
C763 C764 1.366 . S
C763 C768 1.407 . S
C764 C763 1.366 . S
C764 C765 1.392 . S
C764 H792 0.930 . S
C765 C764 1.392 . S
C765 C766 1.398 . S
C765 H793 0.929 . S
C766 C765 1.398 . S
C766 C767 1.352 . S
C767 C766 1.352 . S
C767 C768 1.384 . S
C767 H794 0.930 . S
C768 C763 1.407 . S
C768 C767 1.384 . S
C768 H795 0.929 . S
C769 O782 1.241 . S
C769 O783 1.273 . S
C770 O784 1.251 . S
C770 O785 1.268 . S
C771 Nd761 2.836 . S
C771 C772 1.498 . S
C771 O786 1.258 . S
C771 O787 1.239 . S
C772 C771 1.498 . S
C772 C773 1.366 . S
C772 C777 1.407 . S
C773 C772 1.366 . S
C773 C774 1.392 . S
C773 H796 0.930 . S
C774 C773 1.392 . S
C774 C775 1.398 . S
C774 H797 0.929 . S
C775 C774 1.398 . S
C775 C776 1.352 . S
C776 C775 1.352 . S
C776 C777 1.384 . S
C776 H798 0.930 . S
C777 C772 1.407 . S
C777 C776 1.384 . S
C777 H799 0.929 . S
C778 O788 1.241 . S
C778 O789 1.273 . S
C779 O790 1.251 . S
C779 O791 1.268 . S
O780 Nd760 2.500 . S
O780 C762 1.258 . S
O781 Nd760 2.492 . S
O781 C762 1.239 . S
O782 Nd760 2.487 . S
O782 C769 1.241 . S
O783 Nd760 2.682 . S
O783 Nd761 2.414 . S
O783 C769 1.273 . S
O784 Nd760 2.410 . S
O784 C770 1.251 . S
O785 Nd761 2.424 . S
O785 C770 1.268 . S
O786 Nd761 2.500 . S
O786 C771 1.258 . S
O787 Nd761 2.492 . S
O787 C771 1.239 . S
O788 Nd761 2.487 . S
O788 C778 1.241 . S
O789 Nd760 2.414 . S
O789 Nd761 2.682 . S
O789 C778 1.273 . S
O790 Nd761 2.410 . S
O790 C779 1.251 . S
O791 Nd760 2.424 . S
O791 C779 1.268 . S
H792 C764 0.930 . S
H793 C765 0.929 . S
H794 C767 0.930 . S
H795 C768 0.929 . S
H796 C773 0.930 . S
H797 C774 0.929 . S
H798 C776 0.930 . S
H799 C777 0.929 . S
Nd800 C802 2.836 . S
Nd800 O820 2.500 . S
Nd800 O821 2.492 . S
Nd800 O822 2.487 . S
Nd800 O823 2.682 . S
Nd800 O824 2.410 . S
Nd800 O829 2.414 . S
Nd800 O831 2.424 . S
Nd801 C811 2.836 . S
Nd801 O823 2.414 . S
Nd801 O825 2.424 . S
Nd801 O826 2.500 . S
Nd801 O827 2.492 . S
Nd801 O828 2.487 . S
Nd801 O829 2.682 . S
Nd801 O830 2.410 . S
C802 Nd800 2.836 . S
C802 C803 1.498 . S
C802 O820 1.258 . S
C802 O821 1.239 . S
C803 C802 1.498 . S
C803 C804 1.366 . S
C803 C808 1.407 . S
C804 C803 1.366 . S
C804 C805 1.392 . S
C804 H832 0.930 . S
C805 C804 1.392 . S
C805 C806 1.398 . S
C805 H833 0.929 . S
C806 C805 1.398 . S
C806 C807 1.352 . S
C807 C806 1.352 . S
C807 C808 1.384 . S
C807 H834 0.930 . S
C808 C803 1.407 . S
C808 C807 1.384 . S
C808 H835 0.929 . S
C809 O822 1.241 . S
C809 O823 1.273 . S
C810 O824 1.251 . S
C810 O825 1.268 . S
C811 Nd801 2.836 . S
C811 C812 1.498 . S
C811 O826 1.258 . S
C811 O827 1.239 . S
C812 C811 1.498 . S
C812 C813 1.366 . S
C812 C817 1.429 . S
C813 C812 1.366 . S
C813 C814 1.392 . S
C813 H836 0.930 . S
C814 C813 1.392 . S
C814 C815 1.398 1_565 S
C814 H837 0.929 . S
C815 C814 1.398 1_545 S
C815 C816 1.352 . S
C816 C815 1.352 . S
C816 C817 1.353 1_545 S
C816 H838 0.930 . S
C817 C812 1.429 . S
C817 C816 1.353 1_565 S
C817 H839 0.934 . S
C818 O828 1.241 . S
C818 O829 1.273 . S
C819 O830 1.251 . S
C819 O831 1.268 . S
O820 Nd800 2.500 . S
O820 C802 1.258 . S
O821 Nd800 2.492 . S
O821 C802 1.239 . S
O822 Nd800 2.487 . S
O822 C809 1.241 . S
O823 Nd800 2.682 . S
O823 Nd801 2.414 . S
O823 C809 1.273 . S
O824 Nd800 2.410 . S
O824 C810 1.251 . S
O825 Nd801 2.424 . S
O825 C810 1.268 . S
O826 Nd801 2.500 . S
O826 C811 1.258 . S
O827 Nd801 2.492 . S
O827 C811 1.239 . S
O828 Nd801 2.487 . S
O828 C818 1.241 . S
O829 Nd800 2.414 . S
O829 Nd801 2.682 . S
O829 C818 1.273 . S
O830 Nd801 2.410 . S
O830 C819 1.251 . S
O831 Nd800 2.424 . S
O831 C819 1.268 . S
H832 C804 0.930 . S
H833 C805 0.929 . S
H834 C807 0.930 . S
H835 C808 0.929 . S
H836 C813 0.930 . S
H837 C814 0.929 . S
H838 C816 0.930 . S
H839 C817 0.934 . S
Nd840 C842 2.836 . S
Nd840 O860 2.500 . S
Nd840 O861 2.492 . S
Nd840 O862 2.487 . S
Nd840 O863 2.682 . S
Nd840 O864 2.410 . S
Nd840 O869 2.414 . S
Nd840 O871 2.424 . S
Nd841 C851 2.836 . S
Nd841 O863 2.414 . S
Nd841 O865 2.424 . S
Nd841 O866 2.500 . S
Nd841 O867 2.492 . S
Nd841 O868 2.487 . S
Nd841 O869 2.682 . S
Nd841 O870 2.410 . S
C842 Nd840 2.836 . S
C842 C843 1.498 1_565 S
C842 O860 1.258 . S
C842 O861 1.239 . S
C843 C842 1.498 1_545 S
C843 C844 1.366 . S
C843 C848 1.407 . S
C844 C843 1.366 . S
C844 C845 1.392 . S
C844 H872 0.930 1_545 S
C845 C844 1.392 . S
C845 C846 1.398 . S
C845 H873 0.929 . S
C846 C845 1.398 . S
C846 C847 1.352 . S
C847 C846 1.352 . S
C847 C848 1.384 . S
C847 H874 0.930 . S
C848 C843 1.407 . S
C848 C847 1.384 . S
C848 H875 0.929 . S
C849 O862 1.241 . S
C849 O863 1.273 . S
C850 O864 1.251 . S
C850 O865 1.268 . S
C851 Nd841 2.836 . S
C851 C852 1.498 . S
C851 O866 1.258 . S
C851 O867 1.239 . S
C852 C851 1.498 . S
C852 C853 1.366 . S
C852 C857 1.407 . S
C853 C852 1.366 . S
C853 C854 1.392 . S
C853 H876 0.930 . S
C854 C853 1.392 . S
C854 C855 1.398 . S
C854 H877 0.929 . S
C855 C854 1.398 . S
C855 C856 1.352 . S
C856 C855 1.352 . S
C856 C857 1.384 . S
C856 H878 0.930 . S
C857 C852 1.407 . S
C857 C856 1.384 . S
C857 H879 0.929 . S
C858 O868 1.241 . S
C858 O869 1.273 . S
C859 O870 1.251 . S
C859 O871 1.268 . S
O860 Nd840 2.500 . S
O860 C842 1.258 . S
O861 Nd840 2.492 . S
O861 C842 1.239 . S
O862 Nd840 2.487 . S
O862 C849 1.241 . S
O863 Nd840 2.682 . S
O863 Nd841 2.414 . S
O863 C849 1.273 . S
O864 Nd840 2.410 . S
O864 C850 1.251 . S
O865 Nd841 2.424 . S
O865 C850 1.268 . S
O866 Nd841 2.500 . S
O866 C851 1.258 . S
O867 Nd841 2.492 . S
O867 C851 1.239 . S
O868 Nd841 2.487 . S
O868 C858 1.241 . S
O869 Nd840 2.414 . S
O869 Nd841 2.682 . S
O869 C858 1.273 . S
O870 Nd841 2.410 . S
O870 C859 1.251 . S
O871 Nd840 2.424 . S
O871 C859 1.268 . S
H872 C844 0.930 1_565 S
H873 C845 0.929 . S
H874 C847 0.930 . S
H875 C848 0.929 . S
H876 C853 0.930 . S
H877 C854 0.929 . S
H878 C856 0.930 . S
H879 C857 0.929 . S
Nd880 C882 2.836 . S
Nd880 O900 2.500 . S
Nd880 O901 2.492 . S
Nd880 O902 2.487 . S
Nd880 O903 2.682 . S
Nd880 O904 2.410 . S
Nd880 O909 2.414 . S
Nd880 O911 2.424 . S
Nd881 C891 2.836 . S
Nd881 O903 2.414 . S
Nd881 O905 2.424 . S
Nd881 O906 2.500 . S
Nd881 O907 2.492 . S
Nd881 O908 2.487 . S
Nd881 O909 2.682 . S
Nd881 O910 2.410 . S
C882 Nd880 2.836 . S
C882 C883 1.498 . S
C882 O900 1.258 . S
C882 O901 1.239 . S
C883 C882 1.498 . S
C883 C884 1.366 . S
C883 C888 1.407 1_455 S
C884 C883 1.366 . S
C884 C885 1.392 1_455 S
C884 H912 0.930 . S
C885 C884 1.392 1_655 S
C885 C886 1.398 . S
C885 H913 0.929 . S
C886 C885 1.398 . S
C886 C887 1.352 . S
C887 C886 1.352 . S
C887 C888 1.384 . S
C887 H914 0.930 . S
C888 C883 1.407 1_655 S
C888 C887 1.384 . S
C888 H915 0.929 . S
C889 O902 1.241 . S
C889 O903 1.273 . S
C890 O904 1.251 . S
C890 O905 1.268 . S
C891 Nd881 2.836 . S
C891 C892 1.498 . S
C891 O906 1.258 . S
C891 O907 1.239 . S
C892 C891 1.498 . S
C892 C893 1.366 . S
C892 C897 1.407 . S
C893 C892 1.366 . S
C893 C894 1.392 . S
C893 H916 0.930 . S
C894 C893 1.392 . S
C894 C895 1.398 . S
C894 H917 0.929 . S
C895 C894 1.398 . S
C895 C896 1.352 . S
C896 C895 1.352 . S
C896 C897 1.384 . S
C896 H918 0.930 . S
C897 C892 1.407 . S
C897 C896 1.384 . S
C897 H919 0.929 . S
C898 O908 1.241 . S
C898 O909 1.273 . S
C899 O910 1.251 . S
C899 O911 1.268 . S
O900 Nd880 2.500 . S
O900 C882 1.258 . S
O901 Nd880 2.492 . S
O901 C882 1.239 . S
O902 Nd880 2.487 . S
O902 C889 1.241 . S
O903 Nd880 2.682 . S
O903 Nd881 2.414 . S
O903 C889 1.273 . S
O904 Nd880 2.410 . S
O904 C890 1.251 . S
O905 Nd881 2.424 . S
O905 C890 1.268 . S
O906 Nd881 2.500 . S
O906 C891 1.258 . S
O907 Nd881 2.492 . S
O907 C891 1.239 . S
O908 Nd881 2.487 . S
O908 C898 1.241 . S
O909 Nd880 2.414 . S
O909 Nd881 2.682 . S
O909 C898 1.273 . S
O910 Nd881 2.410 . S
O910 C899 1.251 . S
O911 Nd880 2.424 . S
O911 C899 1.268 . S
H912 C884 0.930 . S
H913 C885 0.929 . S
H914 C887 0.930 . S
H915 C888 0.929 . S
H916 C893 0.930 . S
H917 C894 0.929 . S
H918 C896 0.930 . S
H919 C897 0.929 . S
Nd920 C922 2.836 . S
Nd920 O940 2.500 . S
Nd920 O941 2.492 . S
Nd920 O942 2.487 . S
Nd920 O943 2.682 . S
Nd920 O944 2.410 . S
Nd920 O949 2.414 . S
Nd920 O951 2.424 . S
Nd921 C931 2.836 . S
Nd921 O943 2.414 . S
Nd921 O945 2.424 . S
Nd921 O946 2.500 . S
Nd921 O947 2.492 . S
Nd921 O948 2.487 . S
Nd921 O949 2.682 . S
Nd921 O950 2.410 . S
C922 Nd920 2.836 . S
C922 C923 1.498 . S
C922 O940 1.258 . S
C922 O941 1.239 . S
C923 C922 1.498 . S
C923 C924 1.366 . S
C923 C928 1.407 . S
C924 C923 1.366 . S
C924 C925 1.392 . S
C924 H952 0.930 . S
C925 C924 1.392 . S
C925 C926 1.398 . S
C925 H953 0.929 . S
C926 C925 1.398 . S
C926 C927 1.352 . S
C927 C926 1.352 . S
C927 C928 1.384 . S
C927 H954 0.930 . S
C928 C923 1.407 . S
C928 C927 1.384 . S
C928 H955 0.929 . S
C929 O942 1.241 . S
C929 O943 1.273 . S
C930 O944 1.251 . S
C930 O945 1.268 . S
C931 Nd921 2.836 . S
C931 C932 1.498 . S
C931 O946 1.258 . S
C931 O947 1.239 . S
C932 C931 1.498 . S
C932 C933 1.366 . S
C932 C937 1.407 . S
C933 C932 1.366 . S
C933 C934 1.392 . S
C933 H956 0.930 . S
C934 C933 1.392 . S
C934 C935 1.398 . S
C934 H957 0.929 . S
C935 C934 1.398 . S
C935 C936 1.352 . S
C936 C935 1.352 . S
C936 C937 1.384 . S
C936 H958 0.930 . S
C937 C932 1.407 . S
C937 C936 1.384 . S
C937 H959 0.929 . S
C938 O948 1.241 . S
C938 O949 1.273 . S
C939 O950 1.251 . S
C939 O951 1.268 . S
O940 Nd920 2.500 . S
O940 C922 1.258 . S
O941 Nd920 2.492 . S
O941 C922 1.239 . S
O942 Nd920 2.487 . S
O942 C929 1.241 . S
O943 Nd920 2.682 . S
O943 Nd921 2.414 . S
O943 C929 1.273 . S
O944 Nd920 2.410 . S
O944 C930 1.251 . S
O945 Nd921 2.424 . S
O945 C930 1.268 . S
O946 Nd921 2.500 . S
O946 C931 1.258 . S
O947 Nd921 2.492 . S
O947 C931 1.239 . S
O948 Nd921 2.487 . S
O948 C938 1.241 . S
O949 Nd920 2.414 . S
O949 Nd921 2.682 . S
O949 C938 1.273 . S
O950 Nd921 2.410 . S
O950 C939 1.251 . S
O951 Nd920 2.424 . S
O951 C939 1.268 . S
H952 C924 0.930 . S
H953 C925 0.929 . S
H954 C927 0.930 . S
H955 C928 0.929 . S
H956 C933 0.930 . S
H957 C934 0.929 . S
H958 C936 0.930 . S
H959 C937 0.929 . S
Nd960 C962 2.836 . S
Nd960 O980 2.500 . S
Nd960 O981 2.492 . S
Nd960 O982 2.487 . S
Nd960 O983 2.682 . S
Nd960 O984 2.410 . S
Nd960 O989 2.414 . S
Nd960 O991 2.424 . S
Nd961 C971 2.836 . S
Nd961 O983 2.414 . S
Nd961 O985 2.424 . S
Nd961 O986 2.500 . S
Nd961 O987 2.492 . S
Nd961 O988 2.487 . S
Nd961 O989 2.682 . S
Nd961 O990 2.410 . S
C962 Nd960 2.836 . S
C962 C963 1.498 . S
C962 O980 1.258 . S
C962 O981 1.239 . S
C963 C962 1.498 . S
C963 C964 1.366 . S
C963 C968 1.427 . S
C964 C963 1.366 . S
C964 C965 1.392 . S
C964 H992 0.930 . S
C965 C964 1.392 . S
C965 C966 1.398 1_655 S
C965 H993 0.929 . S
C966 C965 1.398 1_455 S
C966 C967 1.352 . S
C967 C966 1.352 . S
C967 C968 1.375 1_455 S
C967 H994 0.930 . S
C968 C963 1.427 . S
C968 C967 1.375 1_655 S
C968 H995 0.924 . S
C969 O982 1.241 . S
C969 O983 1.273 . S
C970 O984 1.251 . S
C970 O985 1.268 . S
C971 Nd961 2.836 . S
C971 C972 1.498 . S
C971 O986 1.258 . S
C971 O987 1.239 . S
C972 C971 1.498 . S
C972 C973 1.366 . S
C972 C977 1.407 . S
C973 C972 1.366 . S
C973 C974 1.392 . S
C973 H996 0.930 . S
C974 C973 1.392 . S
C974 C975 1.398 . S
C974 H997 0.929 . S
C975 C974 1.398 . S
C975 C976 1.352 . S
C976 C975 1.352 . S
C976 C977 1.384 . S
C976 H998 0.930 . S
C977 C972 1.407 . S
C977 C976 1.384 . S
C977 H999 0.929 . S
C978 O988 1.241 . S
C978 O989 1.273 . S
C979 O990 1.251 . S
C979 O991 1.268 . S
O980 Nd960 2.500 . S
O980 C962 1.258 . S
O981 Nd960 2.492 . S
O981 C962 1.239 . S
O982 Nd960 2.487 . S
O982 C969 1.241 . S
O983 Nd960 2.682 . S
O983 Nd961 2.414 . S
O983 C969 1.273 . S
O984 Nd960 2.410 . S
O984 C970 1.251 . S
O985 Nd961 2.424 . S
O985 C970 1.268 . S
O986 Nd961 2.500 . S
O986 C971 1.258 . S
O987 Nd961 2.492 . S
O987 C971 1.239 . S
O988 Nd961 2.487 . S
O988 C978 1.241 . S
O989 Nd960 2.414 . S
O989 Nd961 2.682 . S
O989 C978 1.273 . S
O990 Nd961 2.410 . S
O990 C979 1.251 . S
O991 Nd960 2.424 . S
O991 C979 1.268 . S
H992 C964 0.930 . S
H993 C965 0.929 . S
H994 C967 0.930 . S
H995 C968 0.924 . S
H996 C973 0.930 . S
H997 C974 0.929 . S
H998 C976 0.930 . S
H999 C977 0.929 . S
Nd1000 C1002 2.836 . S
Nd1000 O1020 2.500 . S
Nd1000 O1021 2.492 . S
Nd1000 O1022 2.487 . S
Nd1000 O1023 2.682 . S
Nd1000 O1024 2.410 . S
Nd1000 O1029 2.414 . S
Nd1000 O1031 2.424 . S
Nd1001 C1011 2.836 . S
Nd1001 O1023 2.414 . S
Nd1001 O1025 2.424 . S
Nd1001 O1026 2.500 . S
Nd1001 O1027 2.492 . S
Nd1001 O1028 2.487 . S
Nd1001 O1029 2.682 . S
Nd1001 O1030 2.410 . S
C1002 Nd1000 2.836 . S
C1002 C1003 1.498 . S
C1002 O1020 1.258 . S
C1002 O1021 1.239 . S
C1003 C1002 1.498 . S
C1003 C1004 1.366 . S
C1003 C1008 1.407 . S
C1004 C1003 1.366 . S
C1004 C1005 1.392 . S
C1004 H1032 0.930 . S
C1005 C1004 1.392 . S
C1005 C1006 1.398 . S
C1005 H1033 0.929 . S
C1006 C1005 1.398 . S
C1006 C1007 1.352 . S
C1007 C1006 1.352 . S
C1007 C1008 1.384 . S
C1007 H1034 0.930 . S
C1008 C1003 1.407 . S
C1008 C1007 1.384 . S
C1008 H1035 0.929 . S
C1009 O1022 1.241 . S
C1009 O1023 1.273 . S
C1010 O1024 1.251 . S
C1010 O1025 1.268 . S
C1011 Nd1001 2.836 . S
C1011 C1012 1.498 . S
C1011 O1026 1.258 . S
C1011 O1027 1.239 . S
C1012 C1011 1.498 . S
C1012 C1013 1.366 . S
C1012 C1017 1.407 . S
C1013 C1012 1.366 . S
C1013 C1014 1.392 . S
C1013 H1036 0.930 . S
C1014 C1013 1.392 . S
C1014 C1015 1.398 . S
C1014 H1037 0.929 . S
C1015 C1014 1.398 . S
C1015 C1016 1.352 . S
C1016 C1015 1.352 . S
C1016 C1017 1.384 . S
C1016 H1038 0.930 . S
C1017 C1012 1.407 . S
C1017 C1016 1.384 . S
C1017 H1039 0.929 . S
C1018 O1028 1.241 . S
C1018 O1029 1.273 . S
C1019 O1030 1.251 . S
C1019 O1031 1.268 . S
O1020 Nd1000 2.500 . S
O1020 C1002 1.258 . S
O1021 Nd1000 2.492 . S
O1021 C1002 1.239 . S
O1022 Nd1000 2.487 . S
O1022 C1009 1.241 . S
O1023 Nd1000 2.682 . S
O1023 Nd1001 2.414 . S
O1023 C1009 1.273 . S
O1024 Nd1000 2.410 . S
O1024 C1010 1.251 . S
O1025 Nd1001 2.424 . S
O1025 C1010 1.268 . S
O1026 Nd1001 2.500 . S
O1026 C1011 1.258 . S
O1027 Nd1001 2.492 . S
O1027 C1011 1.239 . S
O1028 Nd1001 2.487 . S
O1028 C1018 1.241 . S
O1029 Nd1000 2.414 . S
O1029 Nd1001 2.682 . S
O1029 C1018 1.273 . S
O1030 Nd1001 2.410 . S
O1030 C1019 1.251 . S
O1031 Nd1000 2.424 . S
O1031 C1019 1.268 . S
H1032 C1004 0.930 . S
H1033 C1005 0.929 . S
H1034 C1007 0.930 . S
H1035 C1008 0.929 . S
H1036 C1013 0.930 . S
H1037 C1014 0.929 . S
H1038 C1016 0.930 . S
H1039 C1017 0.929 . S
Nd1040 C1042 2.836 . S
Nd1040 O1060 2.500 . S
Nd1040 O1061 2.492 . S
Nd1040 O1062 2.487 . S
Nd1040 O1063 2.682 . S
Nd1040 O1064 2.410 . S
Nd1040 O1069 2.414 . S
Nd1040 O1071 2.424 . S
Nd1041 C1051 2.836 . S
Nd1041 O1063 2.414 . S
Nd1041 O1065 2.424 . S
Nd1041 O1066 2.500 . S
Nd1041 O1067 2.492 . S
Nd1041 O1068 2.487 . S
Nd1041 O1069 2.682 . S
Nd1041 O1070 2.410 . S
C1042 Nd1040 2.836 . S
C1042 C1043 1.498 . S
C1042 O1060 1.258 . S
C1042 O1061 1.239 . S
C1043 C1042 1.498 . S
C1043 C1044 1.366 . S
C1043 C1048 1.407 . S
C1044 C1043 1.366 . S
C1044 C1045 1.392 . S
C1044 H1072 0.930 . S
C1045 C1044 1.392 . S
C1045 C1046 1.398 . S
C1045 H1073 0.929 . S
C1046 C1045 1.398 . S
C1046 C1047 1.352 . S
C1047 C1046 1.352 . S
C1047 C1048 1.384 . S
C1047 H1074 0.930 1_545 S
C1048 C1043 1.407 . S
C1048 C1047 1.384 . S
C1048 H1075 0.929 . S
C1049 O1062 1.241 . S
C1049 O1063 1.273 . S
C1050 O1064 1.251 . S
C1050 O1065 1.268 . S
C1051 Nd1041 2.836 . S
C1051 C1052 1.498 . S
C1051 O1066 1.258 . S
C1051 O1067 1.239 . S
C1052 C1051 1.498 . S
C1052 C1053 1.366 . S
C1052 C1057 1.407 . S
C1053 C1052 1.366 . S
C1053 C1054 1.392 . S
C1053 H1076 0.930 . S
C1054 C1053 1.392 . S
C1054 C1055 1.398 . S
C1054 H1077 0.929 . S
C1055 C1054 1.398 . S
C1055 C1056 1.352 . S
C1056 C1055 1.352 . S
C1056 C1057 1.384 . S
C1056 H1078 0.930 . S
C1057 C1052 1.407 . S
C1057 C1056 1.384 . S
C1057 H1079 0.929 . S
C1058 O1068 1.241 . S
C1058 O1069 1.273 . S
C1059 O1070 1.251 . S
C1059 O1071 1.268 . S
O1060 Nd1040 2.500 . S
O1060 C1042 1.258 . S
O1061 Nd1040 2.492 . S
O1061 C1042 1.239 . S
O1062 Nd1040 2.487 . S
O1062 C1049 1.241 . S
O1063 Nd1040 2.682 . S
O1063 Nd1041 2.414 . S
O1063 C1049 1.273 . S
O1064 Nd1040 2.410 . S
O1064 C1050 1.251 . S
O1065 Nd1041 2.424 . S
O1065 C1050 1.268 . S
O1066 Nd1041 2.500 . S
O1066 C1051 1.258 . S
O1067 Nd1041 2.492 . S
O1067 C1051 1.239 . S
O1068 Nd1041 2.487 . S
O1068 C1058 1.241 . S
O1069 Nd1040 2.414 . S
O1069 Nd1041 2.682 . S
O1069 C1058 1.273 . S
O1070 Nd1041 2.410 . S
O1070 C1059 1.251 . S
O1071 Nd1040 2.424 . S
O1071 C1059 1.268 . S
H1072 C1044 0.930 . S
H1073 C1045 0.929 . S
H1074 C1047 0.930 1_565 S
H1075 C1048 0.929 . S
H1076 C1053 0.930 . S
H1077 C1054 0.929 . S
H1078 C1056 0.930 . S
H1079 C1057 0.929 . S
Nd1080 C1082 2.836 . S
Nd1080 O1100 2.500 . S
Nd1080 O1101 2.492 . S
Nd1080 O1102 2.487 . S
Nd1080 O1103 2.682 . S
Nd1080 O1104 2.410 . S
Nd1080 O1109 2.414 . S
Nd1080 O1111 2.424 . S
Nd1081 C1091 2.836 . S
Nd1081 O1103 2.414 . S
Nd1081 O1105 2.424 . S
Nd1081 O1106 2.500 . S
Nd1081 O1107 2.492 . S
Nd1081 O1108 2.487 . S
Nd1081 O1109 2.682 . S
Nd1081 O1110 2.410 . S
C1082 Nd1080 2.836 . S
C1082 C1083 1.498 . S
C1082 O1100 1.258 . S
C1082 O1101 1.239 . S
C1083 C1082 1.498 . S
C1083 C1084 1.366 . S
C1083 C1088 1.407 . S
C1084 C1083 1.366 . S
C1084 C1085 1.392 . S
C1084 H1112 0.930 . S
C1085 C1084 1.392 . S
C1085 C1086 1.398 . S
C1085 H1113 0.929 . S
C1086 C1085 1.398 . S
C1086 C1087 1.352 . S
C1087 C1086 1.352 . S
C1087 C1088 1.384 . S
C1087 H1114 0.930 . S
C1088 C1083 1.407 . S
C1088 C1087 1.384 . S
C1088 H1115 0.929 . S
C1089 O1102 1.241 . S
C1089 O1103 1.273 . S
C1090 O1104 1.251 . S
C1090 O1105 1.268 . S
C1091 Nd1081 2.836 . S
C1091 C1092 1.498 . S
C1091 O1106 1.258 . S
C1091 O1107 1.239 . S
C1092 C1091 1.498 . S
C1092 C1093 1.366 . S
C1092 C1097 1.407 1_545 S
C1093 C1092 1.366 . S
C1093 C1094 1.392 1_545 S
C1093 H1116 0.930 . S
C1094 C1093 1.392 1_565 S
C1094 C1095 1.398 . S
C1094 H1117 0.929 . S
C1095 C1094 1.398 . S
C1095 C1096 1.352 . S
C1096 C1095 1.352 . S
C1096 C1097 1.384 . S
C1096 H1118 0.930 . S
C1097 C1092 1.407 1_565 S
C1097 C1096 1.384 . S
C1097 H1119 0.929 . S
C1098 O1108 1.241 . S
C1098 O1109 1.273 . S
C1099 O1110 1.251 . S
C1099 O1111 1.268 . S
O1100 Nd1080 2.500 . S
O1100 C1082 1.258 . S
O1101 Nd1080 2.492 . S
O1101 C1082 1.239 . S
O1102 Nd1080 2.487 . S
O1102 C1089 1.241 . S
O1103 Nd1080 2.682 . S
O1103 Nd1081 2.414 . S
O1103 C1089 1.273 . S
O1104 Nd1080 2.410 . S
O1104 C1090 1.251 . S
O1105 Nd1081 2.424 . S
O1105 C1090 1.268 . S
O1106 Nd1081 2.500 . S
O1106 C1091 1.258 . S
O1107 Nd1081 2.492 . S
O1107 C1091 1.239 . S
O1108 Nd1081 2.487 . S
O1108 C1098 1.241 . S
O1109 Nd1080 2.414 . S
O1109 Nd1081 2.682 . S
O1109 C1098 1.273 . S
O1110 Nd1081 2.410 . S
O1110 C1099 1.251 . S
O1111 Nd1080 2.424 . S
O1111 C1099 1.268 . S
H1112 C1084 0.930 . S
H1113 C1085 0.929 . S
H1114 C1087 0.930 . S
H1115 C1088 0.929 . S
H1116 C1093 0.930 . S
H1117 C1094 0.929 . S
H1118 C1096 0.930 . S
H1119 C1097 0.929 . S
Nd1120 C1122 2.836 . S
Nd1120 O1140 2.500 . S
Nd1120 O1141 2.492 . S
Nd1120 O1142 2.487 . S
Nd1120 O1143 2.682 . S
Nd1120 O1144 2.410 . S
Nd1120 O1149 2.414 . S
Nd1120 O1151 2.424 . S
Nd1121 C1131 2.836 . S
Nd1121 O1143 2.414 . S
Nd1121 O1145 2.424 . S
Nd1121 O1146 2.500 . S
Nd1121 O1147 2.492 . S
Nd1121 O1148 2.487 . S
Nd1121 O1149 2.682 . S
Nd1121 O1150 2.410 . S
C1122 Nd1120 2.836 . S
C1122 C1123 1.498 . S
C1122 O1140 1.258 . S
C1122 O1141 1.239 . S
C1123 C1122 1.498 . S
C1123 C1124 1.366 . S
C1123 C1128 1.407 . S
C1124 C1123 1.366 . S
C1124 C1125 1.392 . S
C1124 H1152 0.930 . S
C1125 C1124 1.392 . S
C1125 C1126 1.398 . S
C1125 H1153 0.929 . S
C1126 C1125 1.398 . S
C1126 C1127 1.352 . S
C1127 C1126 1.352 . S
C1127 C1128 1.384 . S
C1127 H1154 0.930 . S
C1128 C1123 1.407 . S
C1128 C1127 1.384 . S
C1128 H1155 0.929 . S
C1129 O1142 1.241 . S
C1129 O1143 1.273 . S
C1130 O1144 1.251 . S
C1130 O1145 1.268 . S
C1131 Nd1121 2.836 . S
C1131 C1132 1.498 1_655 S
C1131 O1146 1.258 . S
C1131 O1147 1.239 . S
C1132 C1131 1.498 1_455 S
C1132 C1133 1.366 . S
C1132 C1137 1.407 . S
C1133 C1132 1.366 . S
C1133 C1134 1.392 . S
C1133 H1156 0.930 1_455 S
C1134 C1133 1.392 . S
C1134 C1135 1.398 . S
C1134 H1157 0.929 . S
C1135 C1134 1.398 . S
C1135 C1136 1.352 . S
C1136 C1135 1.352 . S
C1136 C1137 1.384 . S
C1136 H1158 0.930 . S
C1137 C1132 1.407 . S
C1137 C1136 1.384 . S
C1137 H1159 0.929 . S
C1138 O1148 1.241 . S
C1138 O1149 1.273 . S
C1139 O1150 1.251 . S
C1139 O1151 1.268 . S
O1140 Nd1120 2.500 . S
O1140 C1122 1.258 . S
O1141 Nd1120 2.492 . S
O1141 C1122 1.239 . S
O1142 Nd1120 2.487 . S
O1142 C1129 1.241 . S
O1143 Nd1120 2.682 . S
O1143 Nd1121 2.414 . S
O1143 C1129 1.273 . S
O1144 Nd1120 2.410 . S
O1144 C1130 1.251 . S
O1145 Nd1121 2.424 . S
O1145 C1130 1.268 . S
O1146 Nd1121 2.500 . S
O1146 C1131 1.258 . S
O1147 Nd1121 2.492 . S
O1147 C1131 1.239 . S
O1148 Nd1121 2.487 . S
O1148 C1138 1.241 . S
O1149 Nd1120 2.414 . S
O1149 Nd1121 2.682 . S
O1149 C1138 1.273 . S
O1150 Nd1121 2.410 . S
O1150 C1139 1.251 . S
O1151 Nd1120 2.424 . S
O1151 C1139 1.268 . S
H1152 C1124 0.930 . S
H1153 C1125 0.929 . S
H1154 C1127 0.930 . S
H1155 C1128 0.929 . S
H1156 C1133 0.930 1_655 S
H1157 C1134 0.929 . S
H1158 C1136 0.930 . S
H1159 C1137 0.929 . S
Nd1160 C1162 2.836 . S
Nd1160 O1180 2.500 . S
Nd1160 O1181 2.492 . S
Nd1160 O1182 2.487 . S
Nd1160 O1183 2.682 . S
Nd1160 O1184 2.410 . S
Nd1160 O1189 2.414 . S
Nd1160 O1191 2.424 . S
Nd1161 C1171 2.836 . S
Nd1161 O1183 2.414 . S
Nd1161 O1185 2.424 . S
Nd1161 O1186 2.500 . S
Nd1161 O1187 2.492 . S
Nd1161 O1188 2.487 . S
Nd1161 O1189 2.682 . S
Nd1161 O1190 2.410 . S
C1162 Nd1160 2.836 . S
C1162 C1163 1.498 . S
C1162 O1180 1.258 . S
C1162 O1181 1.239 . S
C1163 C1162 1.498 . S
C1163 C1164 1.366 . S
C1163 C1168 1.407 . S
C1164 C1163 1.366 . S
C1164 C1165 1.392 . S
C1164 H1192 0.930 . S
C1165 C1164 1.392 . S
C1165 C1166 1.398 . S
C1165 H1193 0.929 . S
C1166 C1165 1.398 . S
C1166 C1167 1.352 . S
C1167 C1166 1.352 . S
C1167 C1168 1.384 . S
C1167 H1194 0.930 . S
C1168 C1163 1.407 . S
C1168 C1167 1.384 . S
C1168 H1195 0.929 . S
C1169 O1182 1.241 . S
C1169 O1183 1.273 . S
C1170 O1184 1.251 . S
C1170 O1185 1.268 . S
C1171 Nd1161 2.836 . S
C1171 C1172 1.498 . S
C1171 O1186 1.258 . S
C1171 O1187 1.239 . S
C1172 C1171 1.498 . S
C1172 C1173 1.366 . S
C1172 C1177 1.407 . S
C1173 C1172 1.366 . S
C1173 C1174 1.392 . S
C1173 H1196 0.930 . S
C1174 C1173 1.392 . S
C1174 C1175 1.398 . S
C1174 H1197 0.929 . S
C1175 C1174 1.398 . S
C1175 C1176 1.352 . S
C1176 C1175 1.352 . S
C1176 C1177 1.384 . S
C1176 H1198 0.930 . S
C1177 C1172 1.407 . S
C1177 C1176 1.384 . S
C1177 H1199 0.929 . S
C1178 O1188 1.241 . S
C1178 O1189 1.273 . S
C1179 O1190 1.251 . S
C1179 O1191 1.268 . S
O1180 Nd1160 2.500 . S
O1180 C1162 1.258 . S
O1181 Nd1160 2.492 . S
O1181 C1162 1.239 . S
O1182 Nd1160 2.487 . S
O1182 C1169 1.241 . S
O1183 Nd1160 2.682 . S
O1183 Nd1161 2.414 . S
O1183 C1169 1.273 . S
O1184 Nd1160 2.410 . S
O1184 C1170 1.251 . S
O1185 Nd1161 2.424 . S
O1185 C1170 1.268 . S
O1186 Nd1161 2.500 . S
O1186 C1171 1.258 . S
O1187 Nd1161 2.492 . S
O1187 C1171 1.239 . S
O1188 Nd1161 2.487 . S
O1188 C1178 1.241 . S
O1189 Nd1160 2.414 . S
O1189 Nd1161 2.682 . S
O1189 C1178 1.273 . S
O1190 Nd1161 2.410 . S
O1190 C1179 1.251 . S
O1191 Nd1160 2.424 . S
O1191 C1179 1.268 . S
H1192 C1164 0.930 . S
H1193 C1165 0.929 . S
H1194 C1167 0.930 . S
H1195 C1168 0.929 . S
H1196 C1173 0.930 . S
H1197 C1174 0.929 . S
H1198 C1176 0.930 . S
H1199 C1177 0.929 . S
Nd1200 C1202 2.836 . S
Nd1200 O1220 2.500 . S
Nd1200 O1221 2.492 . S
Nd1200 O1222 2.487 . S
Nd1200 O1223 2.682 . S
Nd1200 O1224 2.410 . S
Nd1200 O1229 2.414 . S
Nd1200 O1231 2.424 . S
Nd1201 C1211 2.836 . S
Nd1201 O1223 2.414 . S
Nd1201 O1225 2.424 . S
Nd1201 O1226 2.500 . S
Nd1201 O1227 2.492 . S
Nd1201 O1228 2.487 . S
Nd1201 O1229 2.682 . S
Nd1201 O1230 2.410 . S
C1202 Nd1200 2.836 . S
C1202 C1203 1.498 1_655 S
C1202 O1220 1.258 . S
C1202 O1221 1.239 . S
C1203 C1202 1.498 1_455 S
C1203 C1204 1.366 . S
C1203 C1208 1.407 . S
C1204 C1203 1.366 . S
C1204 C1205 1.392 . S
C1204 H1232 0.930 1_455 S
C1205 C1204 1.392 . S
C1205 C1206 1.398 . S
C1205 H1233 0.929 . S
C1206 C1205 1.398 . S
C1206 C1207 1.352 . S
C1207 C1206 1.352 . S
C1207 C1208 1.384 . S
C1207 H1234 0.930 . S
C1208 C1203 1.407 . S
C1208 C1207 1.384 . S
C1208 H1235 0.929 . S
C1209 O1222 1.241 . S
C1209 O1223 1.273 . S
C1210 O1224 1.251 . S
C1210 O1225 1.268 . S
C1211 Nd1201 2.836 . S
C1211 C1212 1.498 . S
C1211 O1226 1.258 . S
C1211 O1227 1.239 . S
C1212 C1211 1.498 . S
C1212 C1213 1.366 . S
C1212 C1217 1.407 . S
C1213 C1212 1.366 . S
C1213 C1214 1.392 . S
C1213 H1236 0.930 . S
C1214 C1213 1.392 . S
C1214 C1215 1.398 . S
C1214 H1237 0.929 . S
C1215 C1214 1.398 . S
C1215 C1216 1.352 . S
C1216 C1215 1.352 . S
C1216 C1217 1.384 . S
C1216 H1238 0.930 . S
C1217 C1212 1.407 . S
C1217 C1216 1.384 . S
C1217 H1239 0.929 . S
C1218 O1228 1.241 . S
C1218 O1229 1.273 . S
C1219 O1230 1.251 . S
C1219 O1231 1.268 . S
O1220 Nd1200 2.500 . S
O1220 C1202 1.258 . S
O1221 Nd1200 2.492 . S
O1221 C1202 1.239 . S
O1222 Nd1200 2.487 . S
O1222 C1209 1.241 . S
O1223 Nd1200 2.682 . S
O1223 Nd1201 2.414 . S
O1223 C1209 1.273 . S
O1224 Nd1200 2.410 . S
O1224 C1210 1.251 . S
O1225 Nd1201 2.424 . S
O1225 C1210 1.268 . S
O1226 Nd1201 2.500 . S
O1226 C1211 1.258 . S
O1227 Nd1201 2.492 . S
O1227 C1211 1.239 . S
O1228 Nd1201 2.487 . S
O1228 C1218 1.241 . S
O1229 Nd1200 2.414 . S
O1229 Nd1201 2.682 . S
O1229 C1218 1.273 . S
O1230 Nd1201 2.410 . S
O1230 C1219 1.251 . S
O1231 Nd1200 2.424 . S
O1231 C1219 1.268 . S
H1232 C1204 0.930 1_655 S
H1233 C1205 0.929 . S
H1234 C1207 0.930 . S
H1235 C1208 0.929 . S
H1236 C1213 0.930 . S
H1237 C1214 0.929 . S
H1238 C1216 0.930 . S
H1239 C1217 0.929 . S
Nd1240 C1242 2.836 . S
Nd1240 O1260 2.500 . S
Nd1240 O1261 2.492 . S
Nd1240 O1262 2.487 . S
Nd1240 O1263 2.682 . S
Nd1240 O1264 2.410 . S
Nd1240 O1269 2.414 . S
Nd1240 O1271 2.424 . S
Nd1241 C1251 2.836 . S
Nd1241 O1263 2.414 . S
Nd1241 O1265 2.424 . S
Nd1241 O1266 2.500 . S
Nd1241 O1267 2.492 . S
Nd1241 O1268 2.487 . S
Nd1241 O1269 2.682 . S
Nd1241 O1270 2.410 . S
C1242 Nd1240 2.836 . S
C1242 C1243 1.498 . S
C1242 O1260 1.258 . S
C1242 O1261 1.239 . S
C1243 C1242 1.498 . S
C1243 C1244 1.366 . S
C1243 C1248 1.407 . S
C1244 C1243 1.366 . S
C1244 C1245 1.392 . S
C1244 H1272 0.930 . S
C1245 C1244 1.392 . S
C1245 C1246 1.398 . S
C1245 H1273 0.929 . S
C1246 C1245 1.398 . S
C1246 C1247 1.352 . S
C1247 C1246 1.352 . S
C1247 C1248 1.384 . S
C1247 H1274 0.930 . S
C1248 C1243 1.407 . S
C1248 C1247 1.384 . S
C1248 H1275 0.929 . S
C1249 O1262 1.241 . S
C1249 O1263 1.273 . S
C1250 O1264 1.251 . S
C1250 O1265 1.268 . S
C1251 Nd1241 2.836 . S
C1251 C1252 1.498 . S
C1251 O1266 1.258 . S
C1251 O1267 1.239 . S
C1252 C1251 1.498 . S
C1252 C1253 1.366 . S
C1252 C1257 1.407 . S
C1253 C1252 1.366 . S
C1253 C1254 1.392 . S
C1253 H1276 0.930 . S
C1254 C1253 1.392 . S
C1254 C1255 1.398 . S
C1254 H1277 0.929 . S
C1255 C1254 1.398 . S
C1255 C1256 1.352 . S
C1256 C1255 1.352 . S
C1256 C1257 1.384 . S
C1256 H1278 0.930 . S
C1257 C1252 1.407 . S
C1257 C1256 1.384 . S
C1257 H1279 0.929 . S
C1258 O1268 1.241 . S
C1258 O1269 1.273 . S
C1259 O1270 1.251 . S
C1259 O1271 1.268 . S
O1260 Nd1240 2.500 . S
O1260 C1242 1.258 . S
O1261 Nd1240 2.492 . S
O1261 C1242 1.239 . S
O1262 Nd1240 2.487 . S
O1262 C1249 1.241 . S
O1263 Nd1240 2.682 . S
O1263 Nd1241 2.414 . S
O1263 C1249 1.273 . S
O1264 Nd1240 2.410 . S
O1264 C1250 1.251 . S
O1265 Nd1241 2.424 . S
O1265 C1250 1.268 . S
O1266 Nd1241 2.500 . S
O1266 C1251 1.258 . S
O1267 Nd1241 2.492 . S
O1267 C1251 1.239 . S
O1268 Nd1241 2.487 . S
O1268 C1258 1.241 . S
O1269 Nd1240 2.414 . S
O1269 Nd1241 2.682 . S
O1269 C1258 1.273 . S
O1270 Nd1241 2.410 . S
O1270 C1259 1.251 . S
O1271 Nd1240 2.424 . S
O1271 C1259 1.268 . S
H1272 C1244 0.930 . S
H1273 C1245 0.929 . S
H1274 C1247 0.930 . S
H1275 C1248 0.929 . S
H1276 C1253 0.930 . S
H1277 C1254 0.929 . S
H1278 C1256 0.930 . S
H1279 C1257 0.929 . S
Nd1280 C1282 2.836 . S
Nd1280 O1300 2.500 . S
Nd1280 O1301 2.492 . S
Nd1280 O1302 2.487 . S
Nd1280 O1303 2.682 . S
Nd1280 O1304 2.410 . S
Nd1280 O1309 2.414 . S
Nd1280 O1311 2.424 . S
Nd1281 C1291 2.836 . S
Nd1281 O1303 2.414 . S
Nd1281 O1305 2.424 . S
Nd1281 O1306 2.500 . S
Nd1281 O1307 2.492 . S
Nd1281 O1308 2.487 . S
Nd1281 O1309 2.682 . S
Nd1281 O1310 2.410 . S
C1282 Nd1280 2.836 . S
C1282 C1283 1.498 . S
C1282 O1300 1.258 . S
C1282 O1301 1.239 . S
C1283 C1282 1.498 . S
C1283 C1284 1.366 . S
C1283 C1288 1.407 1_545 S
C1284 C1283 1.366 . S
C1284 C1285 1.392 1_545 S
C1284 H1312 0.930 . S
C1285 C1284 1.392 1_565 S
C1285 C1286 1.398 . S
C1285 H1313 0.929 . S
C1286 C1285 1.398 . S
C1286 C1287 1.352 . S
C1287 C1286 1.352 . S
C1287 C1288 1.384 . S
C1287 H1314 0.930 . S
C1288 C1283 1.407 1_565 S
C1288 C1287 1.384 . S
C1288 H1315 0.929 . S
C1289 O1302 1.241 . S
C1289 O1303 1.273 . S
C1290 O1304 1.251 . S
C1290 O1305 1.268 . S
C1291 Nd1281 2.836 . S
C1291 C1292 1.498 . S
C1291 O1306 1.258 . S
C1291 O1307 1.239 . S
C1292 C1291 1.498 . S
C1292 C1293 1.366 . S
C1292 C1297 1.407 . S
C1293 C1292 1.366 . S
C1293 C1294 1.392 . S
C1293 H1316 0.930 . S
C1294 C1293 1.392 . S
C1294 C1295 1.398 . S
C1294 H1317 0.929 . S
C1295 C1294 1.398 . S
C1295 C1296 1.352 . S
C1296 C1295 1.352 . S
C1296 C1297 1.384 . S
C1296 H1318 0.930 . S
C1297 C1292 1.407 . S
C1297 C1296 1.384 . S
C1297 H1319 0.929 . S
C1298 O1308 1.241 . S
C1298 O1309 1.273 . S
C1299 O1310 1.251 . S
C1299 O1311 1.268 . S
O1300 Nd1280 2.500 . S
O1300 C1282 1.258 . S
O1301 Nd1280 2.492 . S
O1301 C1282 1.239 . S
O1302 Nd1280 2.487 . S
O1302 C1289 1.241 . S
O1303 Nd1280 2.682 . S
O1303 Nd1281 2.414 . S
O1303 C1289 1.273 . S
O1304 Nd1280 2.410 . S
O1304 C1290 1.251 . S
O1305 Nd1281 2.424 . S
O1305 C1290 1.268 . S
O1306 Nd1281 2.500 . S
O1306 C1291 1.258 . S
O1307 Nd1281 2.492 . S
O1307 C1291 1.239 . S
O1308 Nd1281 2.487 . S
O1308 C1298 1.241 . S
O1309 Nd1280 2.414 . S
O1309 Nd1281 2.682 . S
O1309 C1298 1.273 . S
O1310 Nd1281 2.410 . S
O1310 C1299 1.251 . S
O1311 Nd1280 2.424 . S
O1311 C1299 1.268 . S
H1312 C1284 0.930 . S
H1313 C1285 0.929 . S
H1314 C1287 0.930 . S
H1315 C1288 0.929 . S
H1316 C1293 0.930 . S
H1317 C1294 0.929 . S
H1318 C1296 0.930 . S
H1319 C1297 0.929 . S
Nd1320 C1322 2.836 . S
Nd1320 O1340 2.500 . S
Nd1320 O1341 2.492 . S
Nd1320 O1342 2.487 . S
Nd1320 O1343 2.682 . S
Nd1320 O1344 2.410 . S
Nd1320 O1349 2.414 . S
Nd1320 O1351 2.424 . S
Nd1321 C1331 2.836 . S
Nd1321 O1343 2.414 . S
Nd1321 O1345 2.424 . S
Nd1321 O1346 2.500 . S
Nd1321 O1347 2.492 . S
Nd1321 O1348 2.487 . S
Nd1321 O1349 2.682 . S
Nd1321 O1350 2.410 . S
C1322 Nd1320 2.836 . S
C1322 C1323 1.498 . S
C1322 O1340 1.258 . S
C1322 O1341 1.239 . S
C1323 C1322 1.498 . S
C1323 C1324 1.366 . S
C1323 C1328 1.407 . S
C1324 C1323 1.366 . S
C1324 C1325 1.392 . S
C1324 H1352 0.930 . S
C1325 C1324 1.392 . S
C1325 C1326 1.398 . S
C1325 H1353 0.929 . S
C1326 C1325 1.398 . S
C1326 C1327 1.352 . S
C1327 C1326 1.352 . S
C1327 C1328 1.384 . S
C1327 H1354 0.930 . S
C1328 C1323 1.407 . S
C1328 C1327 1.384 . S
C1328 H1355 0.929 . S
C1329 O1342 1.241 . S
C1329 O1343 1.273 . S
C1330 O1344 1.251 . S
C1330 O1345 1.268 . S
C1331 Nd1321 2.836 . S
C1331 C1332 1.498 . S
C1331 O1346 1.258 . S
C1331 O1347 1.239 . S
C1332 C1331 1.498 . S
C1332 C1333 1.366 . S
C1332 C1337 1.407 . S
C1333 C1332 1.366 . S
C1333 C1334 1.392 . S
C1333 H1356 0.930 . S
C1334 C1333 1.392 . S
C1334 C1335 1.398 . S
C1334 H1357 0.929 . S
C1335 C1334 1.398 . S
C1335 C1336 1.352 . S
C1336 C1335 1.352 . S
C1336 C1337 1.384 . S
C1336 H1358 0.930 1_545 S
C1337 C1332 1.407 . S
C1337 C1336 1.384 . S
C1337 H1359 0.929 . S
C1338 O1348 1.241 . S
C1338 O1349 1.273 . S
C1339 O1350 1.251 . S
C1339 O1351 1.268 . S
O1340 Nd1320 2.500 . S
O1340 C1322 1.258 . S
O1341 Nd1320 2.492 . S
O1341 C1322 1.239 . S
O1342 Nd1320 2.487 . S
O1342 C1329 1.241 . S
O1343 Nd1320 2.682 . S
O1343 Nd1321 2.414 . S
O1343 C1329 1.273 . S
O1344 Nd1320 2.410 . S
O1344 C1330 1.251 . S
O1345 Nd1321 2.424 . S
O1345 C1330 1.268 . S
O1346 Nd1321 2.500 . S
O1346 C1331 1.258 . S
O1347 Nd1321 2.492 . S
O1347 C1331 1.239 . S
O1348 Nd1321 2.487 . S
O1348 C1338 1.241 . S
O1349 Nd1320 2.414 . S
O1349 Nd1321 2.682 . S
O1349 C1338 1.273 . S
O1350 Nd1321 2.410 . S
O1350 C1339 1.251 . S
O1351 Nd1320 2.424 . S
O1351 C1339 1.268 . S
H1352 C1324 0.930 . S
H1353 C1325 0.929 . S
H1354 C1327 0.930 . S
H1355 C1328 0.929 . S
H1356 C1333 0.930 . S
H1357 C1334 0.929 . S
H1358 C1336 0.930 1_565 S
H1359 C1337 0.929 . S
Nd1360 C1362 2.836 . S
Nd1360 O1380 2.500 . S
Nd1360 O1381 2.492 . S
Nd1360 O1382 2.487 . S
Nd1360 O1383 2.682 . S
Nd1360 O1384 2.410 . S
Nd1360 O1389 2.414 . S
Nd1360 O1391 2.424 . S
Nd1361 C1371 2.836 . S
Nd1361 O1383 2.414 . S
Nd1361 O1385 2.424 . S
Nd1361 O1386 2.500 . S
Nd1361 O1387 2.492 . S
Nd1361 O1388 2.487 . S
Nd1361 O1389 2.682 . S
Nd1361 O1390 2.410 . S
C1362 Nd1360 2.836 . S
C1362 C1363 1.498 . S
C1362 O1380 1.258 . S
C1362 O1381 1.239 . S
C1363 C1362 1.498 . S
C1363 C1364 1.366 . S
C1363 C1368 1.407 . S
C1364 C1363 1.366 . S
C1364 C1365 1.392 . S
C1364 H1392 0.930 . S
C1365 C1364 1.392 . S
C1365 C1366 1.398 . S
C1365 H1393 0.929 . S
C1366 C1365 1.398 . S
C1366 C1367 1.352 . S
C1367 C1366 1.352 . S
C1367 C1368 1.384 . S
C1367 H1394 0.930 . S
C1368 C1363 1.407 . S
C1368 C1367 1.384 . S
C1368 H1395 0.929 . S
C1369 O1382 1.241 . S
C1369 O1383 1.273 . S
C1370 O1384 1.251 . S
C1370 O1385 1.268 . S
C1371 Nd1361 2.836 . S
C1371 C1372 1.498 . S
C1371 O1386 1.258 . S
C1371 O1387 1.239 . S
C1372 C1371 1.498 . S
C1372 C1373 1.366 . S
C1372 C1377 1.429 . S
C1373 C1372 1.366 . S
C1373 C1374 1.392 . S
C1373 H1396 0.930 . S
C1374 C1373 1.392 . S
C1374 C1375 1.398 1_655 S
C1374 H1397 0.929 . S
C1375 C1374 1.398 1_455 S
C1375 C1376 1.352 . S
C1376 C1375 1.352 . S
C1376 C1377 1.353 1_455 S
C1376 H1398 0.930 . S
C1377 C1372 1.429 . S
C1377 C1376 1.353 1_655 S
C1377 H1399 0.934 . S
C1378 O1388 1.241 . S
C1378 O1389 1.273 . S
C1379 O1390 1.251 . S
C1379 O1391 1.268 . S
O1380 Nd1360 2.500 . S
O1380 C1362 1.258 . S
O1381 Nd1360 2.492 . S
O1381 C1362 1.239 . S
O1382 Nd1360 2.487 . S
O1382 C1369 1.241 . S
O1383 Nd1360 2.682 . S
O1383 Nd1361 2.414 . S
O1383 C1369 1.273 . S
O1384 Nd1360 2.410 . S
O1384 C1370 1.251 . S
O1385 Nd1361 2.424 . S
O1385 C1370 1.268 . S
O1386 Nd1361 2.500 . S
O1386 C1371 1.258 . S
O1387 Nd1361 2.492 . S
O1387 C1371 1.239 . S
O1388 Nd1361 2.487 . S
O1388 C1378 1.241 . S
O1389 Nd1360 2.414 . S
O1389 Nd1361 2.682 . S
O1389 C1378 1.273 . S
O1390 Nd1361 2.410 . S
O1390 C1379 1.251 . S
O1391 Nd1360 2.424 . S
O1391 C1379 1.268 . S
H1392 C1364 0.930 . S
H1393 C1365 0.929 . S
H1394 C1367 0.930 . S
H1395 C1368 0.929 . S
H1396 C1373 0.930 . S
H1397 C1374 0.929 . S
H1398 C1376 0.930 . S
H1399 C1377 0.934 . S
Nd1400 C1402 2.836 . S
Nd1400 O1420 2.500 . S
Nd1400 O1421 2.492 . S
Nd1400 O1422 2.487 . S
Nd1400 O1423 2.682 . S
Nd1400 O1424 2.410 . S
Nd1400 O1429 2.414 . S
Nd1400 O1431 2.424 . S
Nd1401 C1411 2.836 . S
Nd1401 O1423 2.414 . S
Nd1401 O1425 2.424 . S
Nd1401 O1426 2.500 . S
Nd1401 O1427 2.492 . S
Nd1401 O1428 2.487 . S
Nd1401 O1429 2.682 . S
Nd1401 O1430 2.410 . S
C1402 Nd1400 2.836 . S
C1402 C1403 1.498 . S
C1402 O1420 1.258 . S
C1402 O1421 1.239 . S
C1403 C1402 1.498 . S
C1403 C1404 1.366 . S
C1403 C1408 1.407 . S
C1404 C1403 1.366 . S
C1404 C1405 1.392 . S
C1404 H1432 0.930 . S
C1405 C1404 1.392 . S
C1405 C1406 1.398 . S
C1405 H1433 0.929 . S
C1406 C1405 1.398 . S
C1406 C1407 1.352 . S
C1407 C1406 1.352 . S
C1407 C1408 1.384 . S
C1407 H1434 0.930 . S
C1408 C1403 1.407 . S
C1408 C1407 1.384 . S
C1408 H1435 0.929 . S
C1409 O1422 1.241 . S
C1409 O1423 1.273 . S
C1410 O1424 1.251 . S
C1410 O1425 1.268 . S
C1411 Nd1401 2.836 . S
C1411 C1412 1.498 . S
C1411 O1426 1.258 . S
C1411 O1427 1.239 . S
C1412 C1411 1.498 . S
C1412 C1413 1.366 . S
C1412 C1417 1.407 . S
C1413 C1412 1.366 . S
C1413 C1414 1.392 . S
C1413 H1436 0.930 . S
C1414 C1413 1.392 . S
C1414 C1415 1.398 . S
C1414 H1437 0.929 . S
C1415 C1414 1.398 . S
C1415 C1416 1.352 . S
C1416 C1415 1.352 . S
C1416 C1417 1.384 . S
C1416 H1438 0.930 . S
C1417 C1412 1.407 . S
C1417 C1416 1.384 . S
C1417 H1439 0.929 . S
C1418 O1428 1.241 . S
C1418 O1429 1.273 . S
C1419 O1430 1.251 . S
C1419 O1431 1.268 . S
O1420 Nd1400 2.500 . S
O1420 C1402 1.258 . S
O1421 Nd1400 2.492 . S
O1421 C1402 1.239 . S
O1422 Nd1400 2.487 . S
O1422 C1409 1.241 . S
O1423 Nd1400 2.682 . S
O1423 Nd1401 2.414 . S
O1423 C1409 1.273 . S
O1424 Nd1400 2.410 . S
O1424 C1410 1.251 . S
O1425 Nd1401 2.424 . S
O1425 C1410 1.268 . S
O1426 Nd1401 2.500 . S
O1426 C1411 1.258 . S
O1427 Nd1401 2.492 . S
O1427 C1411 1.239 . S
O1428 Nd1401 2.487 . S
O1428 C1418 1.241 . S
O1429 Nd1400 2.414 . S
O1429 Nd1401 2.682 . S
O1429 C1418 1.273 . S
O1430 Nd1401 2.410 . S
O1430 C1419 1.251 . S
O1431 Nd1400 2.424 . S
O1431 C1419 1.268 . S
H1432 C1404 0.930 . S
H1433 C1405 0.929 . S
H1434 C1407 0.930 . S
H1435 C1408 0.929 . S
H1436 C1413 0.930 . S
H1437 C1414 0.929 . S
H1438 C1416 0.930 . S
H1439 C1417 0.929 . S
H1440 C1446 0.930 . S
H1441 C1450 0.930 . S
H1442 C1455 0.929 . S
H1443 C1453 0.929 . S
H1444 C1448 0.929 . S
H1445 C1454 0.929 . S
C1446 H1440 0.930 . S
C1446 C1447 1.367 . S
C1446 C1454 1.378 . S
C1447 C1446 1.367 . S
C1447 C1455 1.433 . S
C1448 H1444 0.929 . S
C1448 C1450 1.378 . S
C1448 C1452 1.350 . S
C1449 C1452 1.463 . S
C1449 C1454 1.350 . S
C1449 N1457 1.427 . S
C1450 H1441 0.930 . S
C1450 C1448 1.378 . S
C1450 C1451 1.367 . S
C1451 C1450 1.367 . S
C1451 C1453 1.433 . S
C1452 C1448 1.350 . S
C1452 C1449 1.463 . S
C1452 N1456 1.427 . S
C1453 H1443 0.929 . S
C1453 C1451 1.433 . S
C1453 N1456 1.384 . S
C1454 H1445 0.929 . S
C1454 C1446 1.378 . S
C1454 C1449 1.350 . S
C1455 H1442 0.929 . S
C1455 C1447 1.433 . S
C1455 N1457 1.384 . S
N1456 C1452 1.427 . S
N1456 C1453 1.384 . S
N1457 C1449 1.427 . S
N1457 C1455 1.384 . S
H1458 C1464 0.930 . S
H1459 C1468 0.930 1_455 S
H1460 C1473 0.929 . S
H1461 C1471 0.929 . S
H1462 C1466 0.929 . S
H1463 C1472 0.929 . S
C1464 H1458 0.930 . S
C1464 C1465 1.367 . S
C1464 C1472 1.378 . S
C1465 C1464 1.367 . S
C1465 C1473 1.433 . S
C1466 H1462 0.929 . S
C1466 C1468 1.378 . S
C1466 C1470 1.350 . S
C1467 C1470 1.463 . S
C1467 C1472 1.350 . S
C1467 N1475 1.427 . S
C1468 H1459 0.930 1_655 S
C1468 C1466 1.378 . S
C1468 C1469 1.367 . S
C1469 C1468 1.367 . S
C1469 C1471 1.433 . S
C1470 C1466 1.350 . S
C1470 C1467 1.463 . S
C1470 N1474 1.427 . S
C1471 H1461 0.929 . S
C1471 C1469 1.433 . S
C1471 N1474 1.384 . S
C1472 H1463 0.929 . S
C1472 C1464 1.378 . S
C1472 C1467 1.350 . S
C1473 H1460 0.929 . S
C1473 C1465 1.433 . S
C1473 N1475 1.384 . S
N1474 C1470 1.427 . S
N1474 C1471 1.384 . S
N1475 C1467 1.427 . S
N1475 C1473 1.384 . S
H1476 C1482 0.930 . S
H1477 C1486 0.930 . S
H1478 C1491 0.929 . S
H1479 C1489 0.929 . S
H1480 C1484 0.929 . S
H1481 C1490 0.929 . S
C1482 H1476 0.930 . S
C1482 C1483 1.367 . S
C1482 C1490 1.378 . S
C1483 C1482 1.367 . S
C1483 C1491 1.433 . S
C1484 H1480 0.929 . S
C1484 C1486 1.378 . S
C1484 C1488 1.350 . S
C1485 C1488 1.463 . S
C1485 C1490 1.350 . S
C1485 N1493 1.427 . S
C1486 H1477 0.930 . S
C1486 C1484 1.378 . S
C1486 C1487 1.367 . S
C1487 C1486 1.367 . S
C1487 C1489 1.433 . S
C1488 C1484 1.350 . S
C1488 C1485 1.463 . S
C1488 N1492 1.427 . S
C1489 H1479 0.929 . S
C1489 C1487 1.433 . S
C1489 N1492 1.384 . S
C1490 H1481 0.929 . S
C1490 C1482 1.378 . S
C1490 C1485 1.350 . S
C1491 H1478 0.929 . S
C1491 C1483 1.433 . S
C1491 N1493 1.384 . S
N1492 C1488 1.427 . S
N1492 C1489 1.384 . S
N1493 C1485 1.427 . S
N1493 C1491 1.384 . S
H1494 C1500 0.930 . S
H1495 C1504 0.930 . S
H1496 C1509 0.929 . S
H1497 C1507 0.929 . S
H1498 C1502 0.929 . S
H1499 C1508 0.929 . S
C1500 H1494 0.930 . S
C1500 C1501 1.367 . S
C1500 C1508 1.378 . S
C1501 C1500 1.367 . S
C1501 C1509 1.433 . S
C1502 H1498 0.929 . S
C1502 C1504 1.378 . S
C1502 C1506 1.350 . S
C1503 C1506 1.463 . S
C1503 C1508 1.350 . S
C1503 N1511 1.427 . S
C1504 H1495 0.930 . S
C1504 C1502 1.378 . S
C1504 C1505 1.367 . S
C1505 C1504 1.367 . S
C1505 C1507 1.433 . S
C1506 C1502 1.350 . S
C1506 C1503 1.463 . S
C1506 N1510 1.427 . S
C1507 H1497 0.929 . S
C1507 C1505 1.433 . S
C1507 N1510 1.384 . S
C1508 H1499 0.929 . S
C1508 C1500 1.378 . S
C1508 C1503 1.350 . S
C1509 H1496 0.929 . S
C1509 C1501 1.433 . S
C1509 N1511 1.384 . S
N1510 C1506 1.427 . S
N1510 C1507 1.384 . S
N1511 C1503 1.427 . S
N1511 C1509 1.384 . S
H1512 C1518 0.930 . S
H1513 C1522 0.930 . S
H1514 C1527 0.929 . S
H1515 C1525 0.929 . S
H1516 C1520 0.929 . S
H1517 C1526 0.929 . S
C1518 H1512 0.930 . S
C1518 C1519 1.367 . S
C1518 C1526 1.378 . S
C1519 C1518 1.367 . S
C1519 C1527 1.433 . S
C1520 H1516 0.929 . S
C1520 C1522 1.378 . S
C1520 C1524 1.350 . S
C1521 C1524 1.463 . S
C1521 C1526 1.350 . S
C1521 N1529 1.427 . S
C1522 H1513 0.930 . S
C1522 C1520 1.378 . S
C1522 C1523 1.367 . S
C1523 C1522 1.367 . S
C1523 C1525 1.433 . S
C1524 C1520 1.350 . S
C1524 C1521 1.463 . S
C1524 N1528 1.427 . S
C1525 H1515 0.929 . S
C1525 C1523 1.433 . S
C1525 N1528 1.384 . S
C1526 H1517 0.929 . S
C1526 C1518 1.378 . S
C1526 C1521 1.350 . S
C1527 H1514 0.929 . S
C1527 C1519 1.433 . S
C1527 N1529 1.384 . S
N1528 C1524 1.427 . S
N1528 C1525 1.384 . S
N1529 C1521 1.427 . S
N1529 C1527 1.384 . S
H1530 C1536 0.930 . S
H1531 C1540 0.930 1_545 S
H1532 C1545 0.929 . S
H1533 C1543 0.929 . S
H1534 C1538 0.929 . S
H1535 C1544 0.929 . S
C1536 H1530 0.930 . S
C1536 C1537 1.367 . S
C1536 C1544 1.378 . S
C1537 C1536 1.367 . S
C1537 C1545 1.433 . S
C1538 H1534 0.929 . S
C1538 C1540 1.378 . S
C1538 C1542 1.350 . S
C1539 C1542 1.463 . S
C1539 C1544 1.350 . S
C1539 N1547 1.427 . S
C1540 H1531 0.930 1_565 S
C1540 C1538 1.378 . S
C1540 C1541 1.367 . S
C1541 C1540 1.367 . S
C1541 C1543 1.433 . S
C1542 C1538 1.350 . S
C1542 C1539 1.463 . S
C1542 N1546 1.427 . S
C1543 H1533 0.929 . S
C1543 C1541 1.433 . S
C1543 N1546 1.384 . S
C1544 H1535 0.929 . S
C1544 C1536 1.378 . S
C1544 C1539 1.350 . S
C1545 H1532 0.929 . S
C1545 C1537 1.433 . S
C1545 N1547 1.384 . S
N1546 C1542 1.427 . S
N1546 C1543 1.384 . S
N1547 C1539 1.427 . S
N1547 C1545 1.384 . S
H1548 C1554 0.930 1_545 S
H1549 C1558 0.930 . S
H1550 C1563 0.929 . S
H1551 C1561 0.929 . S
H1552 C1556 0.929 . S
H1553 C1562 0.929 . S
C1554 H1548 0.930 1_565 S
C1554 C1555 1.367 . S
C1554 C1562 1.378 . S
C1555 C1554 1.367 . S
C1555 C1563 1.433 . S
C1556 H1552 0.929 . S
C1556 C1558 1.378 . S
C1556 C1560 1.350 . S
C1557 C1560 1.463 . S
C1557 C1562 1.350 . S
C1557 N1565 1.427 . S
C1558 H1549 0.930 . S
C1558 C1556 1.378 . S
C1558 C1559 1.367 . S
C1559 C1558 1.367 . S
C1559 C1561 1.433 . S
C1560 C1556 1.350 . S
C1560 C1557 1.463 . S
C1560 N1564 1.427 . S
C1561 H1551 0.929 . S
C1561 C1559 1.433 . S
C1561 N1564 1.384 . S
C1562 H1553 0.929 . S
C1562 C1554 1.378 . S
C1562 C1557 1.350 . S
C1563 H1550 0.929 . S
C1563 C1555 1.433 . S
C1563 N1565 1.384 . S
N1564 C1560 1.427 . S
N1564 C1561 1.384 . S
N1565 C1557 1.427 . S
N1565 C1563 1.384 . S
H1566 C1572 0.930 . S
H1567 C1576 0.930 . S
H1568 C1581 0.929 . S
H1569 C1579 0.929 . S
H1570 C1574 0.929 . S
H1571 C1580 0.929 . S
C1572 H1566 0.930 . S
C1572 C1573 1.367 . S
C1572 C1580 1.378 . S
C1573 C1572 1.367 . S
C1573 C1581 1.433 . S
C1574 H1570 0.929 . S
C1574 C1576 1.378 . S
C1574 C1578 1.350 . S
C1575 C1578 1.463 . S
C1575 C1580 1.350 . S
C1575 N1583 1.427 . S
C1576 H1567 0.930 . S
C1576 C1574 1.378 . S
C1576 C1577 1.367 . S
C1577 C1576 1.367 . S
C1577 C1579 1.433 . S
C1578 C1574 1.350 . S
C1578 C1575 1.463 . S
C1578 N1582 1.427 . S
C1579 H1569 0.929 . S
C1579 C1577 1.433 . S
C1579 N1582 1.384 . S
C1580 H1571 0.929 . S
C1580 C1572 1.378 . S
C1580 C1575 1.350 . S
C1581 H1568 0.929 . S
C1581 C1573 1.433 . S
C1581 N1583 1.384 . S
N1582 C1578 1.427 . S
N1582 C1579 1.384 . S
N1583 C1575 1.427 . S
N1583 C1581 1.384 . S
H1584 C1590 0.930 . S
H1585 C1594 0.930 . S
H1586 C1599 0.929 . S
H1587 C1597 0.929 . S
H1588 C1592 0.929 . S
H1589 C1598 0.929 . S
C1590 H1584 0.930 . S
C1590 C1591 1.367 . S
C1590 C1598 1.378 . S
C1591 C1590 1.367 . S
C1591 C1599 1.433 . S
C1592 H1588 0.929 . S
C1592 C1594 1.378 . S
C1592 C1596 1.350 . S
C1593 C1596 1.463 . S
C1593 C1598 1.350 . S
C1593 N1601 1.427 . S
C1594 H1585 0.930 . S
C1594 C1592 1.378 . S
C1594 C1595 1.367 . S
C1595 C1594 1.367 . S
C1595 C1597 1.433 . S
C1596 C1592 1.350 . S
C1596 C1593 1.463 . S
C1596 N1600 1.427 . S
C1597 H1587 0.929 . S
C1597 C1595 1.433 . S
C1597 N1600 1.384 . S
C1598 H1589 0.929 . S
C1598 C1590 1.378 . S
C1598 C1593 1.350 . S
C1599 H1586 0.929 . S
C1599 C1591 1.433 . S
C1599 N1601 1.384 . S
N1600 C1596 1.427 . S
N1600 C1597 1.384 . S
N1601 C1593 1.427 . S
N1601 C1599 1.384 . S
H1602 C1608 0.930 . S
H1603 C1612 0.930 . S
H1604 C1617 0.929 . S
H1605 C1615 0.929 1_455 S
H1606 C1610 0.929 . S
H1607 C1616 0.929 . S
C1608 H1602 0.930 . S
C1608 C1609 1.367 . S
C1608 C1616 1.378 . S
C1609 C1608 1.367 . S
C1609 C1617 1.433 . S
C1610 H1606 0.929 . S
C1610 C1612 1.378 . S
C1610 C1614 1.350 . S
C1611 C1614 1.463 . S
C1611 C1616 1.350 . S
C1611 N1619 1.427 . S
C1612 H1603 0.930 . S
C1612 C1610 1.378 . S
C1612 C1613 1.367 . S
C1613 C1612 1.367 . S
C1613 C1615 1.433 . S
C1614 C1610 1.350 . S
C1614 C1611 1.463 . S
C1614 N1618 1.427 . S
C1615 H1605 0.929 1_655 S
C1615 C1613 1.433 . S
C1615 N1618 1.384 . S
C1616 H1607 0.929 . S
C1616 C1608 1.378 . S
C1616 C1611 1.350 . S
C1617 H1604 0.929 . S
C1617 C1609 1.433 . S
C1617 N1619 1.384 . S
N1618 C1614 1.427 . S
N1618 C1615 1.384 . S
N1619 C1611 1.427 . S
N1619 C1617 1.384 . S
H1620 C1626 0.930 . S
H1621 C1630 0.930 . S
H1622 C1635 0.929 . S
H1623 C1633 0.929 . S
H1624 C1628 0.929 . S
H1625 C1634 0.929 . S
C1626 H1620 0.930 . S
C1626 C1627 1.367 . S
C1626 C1634 1.378 . S
C1627 C1626 1.367 . S
C1627 C1635 1.433 . S
C1628 H1624 0.929 . S
C1628 C1630 1.378 . S
C1628 C1632 1.350 . S
C1629 C1632 1.463 . S
C1629 C1634 1.350 . S
C1629 N1637 1.427 . S
C1630 H1621 0.930 . S
C1630 C1628 1.378 . S
C1630 C1631 1.367 . S
C1631 C1630 1.367 . S
C1631 C1633 1.433 . S
C1632 C1628 1.350 . S
C1632 C1629 1.463 . S
C1632 N1636 1.427 . S
C1633 H1623 0.929 . S
C1633 C1631 1.433 . S
C1633 N1636 1.384 . S
C1634 H1625 0.929 . S
C1634 C1626 1.378 . S
C1634 C1629 1.350 . S
C1635 H1622 0.929 . S
C1635 C1627 1.433 . S
C1635 N1637 1.384 . S
N1636 C1632 1.427 . S
N1636 C1633 1.384 . S
N1637 C1629 1.427 . S
N1637 C1635 1.384 . S
H1638 C1644 0.930 . S
H1639 C1648 0.930 . S
H1640 C1653 0.929 . S
H1641 C1651 0.929 . S
H1642 C1646 0.929 . S
H1643 C1652 0.929 . S
C1644 H1638 0.930 . S
C1644 C1645 1.367 . S
C1644 C1652 1.378 . S
C1645 C1644 1.367 . S
C1645 C1653 1.433 . S
C1646 H1642 0.929 . S
C1646 C1648 1.378 . S
C1646 C1650 1.350 . S
C1647 C1650 1.463 . S
C1647 C1652 1.350 . S
C1647 N1655 1.427 . S
C1648 H1639 0.930 . S
C1648 C1646 1.378 . S
C1648 C1649 1.367 . S
C1649 C1648 1.367 . S
C1649 C1651 1.433 . S
C1650 C1646 1.350 . S
C1650 C1647 1.463 . S
C1650 N1654 1.427 . S
C1651 H1641 0.929 . S
C1651 C1649 1.433 . S
C1651 N1654 1.384 . S
C1652 H1643 0.929 . S
C1652 C1644 1.378 . S
C1652 C1647 1.350 . S
C1653 H1640 0.929 . S
C1653 C1645 1.433 . S
C1653 N1655 1.384 . S
N1654 C1650 1.427 . S
N1654 C1651 1.384 . S
N1655 C1647 1.427 . S
N1655 C1653 1.384 . S
H1656 C1662 0.930 . S
H1657 C1666 0.930 . S
H1658 C1671 0.929 . S
H1659 C1669 0.929 . S
H1660 C1664 0.929 . S
H1661 C1670 0.929 . S
C1662 H1656 0.930 . S
C1662 C1663 1.367 . S
C1662 C1670 1.378 . S
C1663 C1662 1.367 . S
C1663 C1671 1.433 . S
C1664 H1660 0.929 . S
C1664 C1666 1.378 . S
C1664 C1668 1.350 . S
C1665 C1668 1.463 . S
C1665 C1670 1.350 . S
C1665 N1673 1.427 . S
C1666 H1657 0.930 . S
C1666 C1664 1.378 . S
C1666 C1667 1.367 . S
C1667 C1666 1.367 . S
C1667 C1669 1.433 . S
C1668 C1664 1.350 . S
C1668 C1665 1.463 . S
C1668 N1672 1.427 . S
C1669 H1659 0.929 . S
C1669 C1667 1.433 . S
C1669 N1672 1.384 . S
C1670 H1661 0.929 . S
C1670 C1662 1.378 . S
C1670 C1665 1.350 . S
C1671 H1658 0.929 . S
C1671 C1663 1.433 . S
C1671 N1673 1.384 . S
N1672 C1668 1.427 . S
N1672 C1669 1.384 . S
N1673 C1665 1.427 . S
N1673 C1671 1.384 . S
H1674 C1680 0.930 . S
H1675 C1684 0.930 . S
H1676 C1689 0.929 . S
H1677 C1687 0.929 . S
H1678 C1682 0.929 . S
H1679 C1688 0.929 . S
C1680 H1674 0.930 . S
C1680 C1681 1.367 . S
C1680 C1688 1.378 . S
C1681 C1680 1.367 . S
C1681 C1689 1.433 . S
C1682 H1678 0.929 . S
C1682 C1684 1.378 . S
C1682 C1686 1.350 . S
C1683 C1686 1.463 1_565 S
C1683 C1688 1.350 . S
C1683 N1691 1.427 . S
C1684 H1675 0.930 . S
C1684 C1682 1.378 . S
C1684 C1685 1.367 . S
C1685 C1684 1.367 . S
C1685 C1687 1.433 . S
C1686 C1682 1.350 . S
C1686 C1683 1.463 1_545 S
C1686 N1690 1.427 . S
C1687 H1677 0.929 . S
C1687 C1685 1.433 . S
C1687 N1690 1.384 . S
C1688 H1679 0.929 . S
C1688 C1680 1.378 . S
C1688 C1683 1.350 . S
C1689 H1676 0.929 . S
C1689 C1681 1.433 . S
C1689 N1691 1.384 . S
N1690 C1686 1.427 . S
N1690 C1687 1.384 . S
N1691 C1683 1.427 . S
N1691 C1689 1.384 . S
H1692 C1698 0.930 . S
H1693 C1702 0.930 . S
H1694 C1707 0.929 . S
H1695 C1705 0.929 . S
H1696 C1700 0.929 . S
H1697 C1706 0.932 . S
C1698 H1692 0.930 . S
C1698 C1699 1.367 . S
C1698 C1706 1.374 1_655 S
C1699 C1698 1.367 . S
C1699 C1707 1.433 . S
C1700 H1696 0.929 . S
C1700 C1702 1.378 . S
C1700 C1704 1.350 . S
C1701 C1704 1.463 1_655 S
C1701 C1706 1.350 1_655 S
C1701 N1709 1.427 . S
C1702 H1693 0.930 . S
C1702 C1700 1.378 . S
C1702 C1703 1.367 . S
C1703 C1702 1.367 . S
C1703 C1705 1.433 . S
C1704 C1700 1.350 . S
C1704 C1701 1.463 1_455 S
C1704 N1708 1.427 . S
C1705 H1695 0.929 . S
C1705 C1703 1.433 . S
C1705 N1708 1.384 . S
C1706 H1697 0.932 . S
C1706 C1698 1.374 1_455 S
C1706 C1701 1.350 1_455 S
C1707 H1694 0.929 . S
C1707 C1699 1.433 . S
C1707 N1709 1.384 . S
N1708 C1704 1.427 . S
N1708 C1705 1.384 . S
N1709 C1701 1.427 . S
N1709 C1707 1.384 . S
H1710 C1716 0.930 . S
H1711 C1720 0.930 . S
H1712 C1725 0.929 . S
H1713 C1723 0.929 . S
H1714 C1718 0.929 . S
H1715 C1724 0.929 . S
C1716 H1710 0.930 . S
C1716 C1717 1.367 . S
C1716 C1724 1.378 . S
C1717 C1716 1.367 . S
C1717 C1725 1.433 . S
C1718 H1714 0.929 . S
C1718 C1720 1.378 . S
C1718 C1722 1.350 . S
C1719 C1722 1.463 . S
C1719 C1724 1.350 . S
C1719 N1727 1.427 . S
C1720 H1711 0.930 . S
C1720 C1718 1.378 . S
C1720 C1721 1.367 . S
C1721 C1720 1.367 . S
C1721 C1723 1.433 . S
C1722 C1718 1.350 . S
C1722 C1719 1.463 . S
C1722 N1726 1.427 . S
C1723 H1713 0.929 . S
C1723 C1721 1.433 . S
C1723 N1726 1.384 . S
C1724 H1715 0.929 . S
C1724 C1716 1.378 . S
C1724 C1719 1.350 . S
C1725 H1712 0.929 . S
C1725 C1717 1.433 . S
C1725 N1727 1.384 . S
N1726 C1722 1.427 . S
N1726 C1723 1.384 . S
N1727 C1719 1.427 . S
N1727 C1725 1.384 . S
H1728 C1734 0.930 . S
H1729 C1738 0.930 . S
H1730 C1743 0.929 . S
H1731 C1741 0.929 . S
H1732 C1736 0.929 . S
H1733 C1742 0.929 1_545 S
C1734 H1728 0.930 . S
C1734 C1735 1.367 . S
C1734 C1742 1.378 . S
C1735 C1734 1.367 . S
C1735 C1743 1.433 . S
C1736 H1732 0.929 . S
C1736 C1738 1.378 . S
C1736 C1740 1.350 . S
C1737 C1740 1.463 1_565 S
C1737 C1742 1.350 . S
C1737 N1745 1.427 . S
C1738 H1729 0.930 . S
C1738 C1736 1.378 . S
C1738 C1739 1.367 . S
C1739 C1738 1.367 . S
C1739 C1741 1.433 . S
C1740 C1736 1.350 . S
C1740 C1737 1.463 1_545 S
C1740 N1744 1.427 . S
C1741 H1731 0.929 . S
C1741 C1739 1.433 . S
C1741 N1744 1.384 . S
C1742 H1733 0.929 1_565 S
C1742 C1734 1.378 . S
C1742 C1737 1.350 . S
C1743 H1730 0.929 . S
C1743 C1735 1.433 . S
C1743 N1745 1.384 . S
N1744 C1740 1.427 . S
N1744 C1741 1.384 . S
N1745 C1737 1.427 . S
N1745 C1743 1.384 . S
H1746 C1752 0.930 . S
H1747 C1756 0.930 . S
H1748 C1761 0.929 . S
H1749 C1759 0.929 . S
H1750 C1754 0.929 . S
H1751 C1760 0.952 . S
C1752 H1746 0.930 . S
C1752 C1753 1.367 . S
C1752 C1760 1.358 1_655 S
C1753 C1752 1.367 . S
C1753 C1761 1.433 . S
C1754 H1750 0.929 . S
C1754 C1756 1.378 . S
C1754 C1758 1.350 . S
C1755 C1758 1.463 1_655 S
C1755 C1760 1.346 1_655 S
C1755 N1763 1.427 . S
C1756 H1747 0.930 . S
C1756 C1754 1.378 . S
C1756 C1757 1.367 . S
C1757 C1756 1.367 . S
C1757 C1759 1.433 . S
C1758 C1754 1.350 . S
C1758 C1755 1.463 1_455 S
C1758 N1762 1.427 . S
C1759 H1749 0.929 . S
C1759 C1757 1.433 . S
C1759 N1762 1.384 . S
C1760 H1751 0.952 . S
C1760 C1752 1.358 1_455 S
C1760 C1755 1.346 1_455 S
C1761 H1748 0.929 . S
C1761 C1753 1.433 . S
C1761 N1763 1.384 . S
N1762 C1758 1.427 . S
N1762 C1759 1.384 . S
N1763 C1755 1.427 . S
N1763 C1761 1.384 . S
H1764 C1770 0.930 . S
H1765 C1774 0.930 . S
H1766 C1779 0.929 . S
H1767 C1777 0.929 . S
H1768 C1772 0.929 . S
H1769 C1778 0.929 . S
C1770 H1764 0.930 . S
C1770 C1771 1.367 . S
C1770 C1778 1.378 . S
C1771 C1770 1.367 . S
C1771 C1779 1.433 1_545 S
C1772 H1768 0.929 . S
C1772 C1774 1.378 . S
C1772 C1776 1.350 1_565 S
C1773 C1776 1.463 1_554 S
C1773 C1778 1.350 . S
C1773 N1781 1.427 1_545 S
C1774 H1765 0.930 . S
C1774 C1772 1.378 . S
C1774 C1775 1.367 1_565 S
C1775 C1774 1.367 1_545 S
C1775 C1777 1.433 . S
C1776 C1772 1.350 1_545 S
C1776 C1773 1.463 1_556 S
C1776 N1780 1.427 . S
C1777 H1767 0.929 . S
C1777 C1775 1.433 . S
C1777 N1780 1.384 . S
C1778 H1769 0.929 . S
C1778 C1770 1.378 . S
C1778 C1773 1.350 . S
C1779 H1766 0.929 . S
C1779 C1771 1.433 1_565 S
C1779 N1781 1.384 . S
N1780 C1776 1.427 . S
N1780 C1777 1.384 . S
N1781 C1773 1.427 1_565 S
N1781 C1779 1.384 . S
H1782 C1788 0.930 . S
H1783 C1792 0.930 . S
H1784 C1797 0.929 1_655 S
H1785 C1795 0.929 . S
H1786 C1790 0.935 . S
H1787 C1796 0.929 . S
C1788 H1782 0.930 . S
C1788 C1789 1.367 . S
C1788 C1796 1.378 . S
C1789 C1788 1.367 . S
C1789 C1797 1.433 . S
C1790 H1786 0.935 . S
C1790 C1792 1.378 . S
C1790 C1794 1.350 . S
C1791 C1794 1.463 1_556 S
C1791 C1796 1.350 . S
C1791 N1799 1.427 . S
C1792 H1783 0.930 . S
C1792 C1790 1.378 . S
C1792 C1793 1.367 . S
C1793 C1792 1.367 . S
C1793 C1795 1.433 . S
C1794 C1790 1.350 . S
C1794 C1791 1.463 1_554 S
C1794 N1798 1.427 . S
C1795 H1785 0.929 . S
C1795 C1793 1.433 . S
C1795 N1798 1.384 . S
C1796 H1787 0.929 . S
C1796 C1788 1.378 . S
C1796 C1791 1.350 . S
C1797 H1784 0.929 1_455 S
C1797 C1789 1.433 . S
C1797 N1799 1.384 . S
N1798 C1794 1.427 . S
N1798 C1795 1.384 . S
N1799 C1791 1.427 . S
N1799 C1797 1.384 . S
H1800 C1806 0.930 . S
H1801 C1810 0.930 . S
H1802 C1815 0.929 . S
H1803 C1813 0.929 . S
H1804 C1808 0.929 . S
H1805 C1814 0.929 . S
C1806 H1800 0.930 . S
C1806 C1807 1.367 . S
C1806 C1814 1.378 . S
C1807 C1806 1.367 . S
C1807 C1815 1.433 . S
C1808 H1804 0.929 . S
C1808 C1810 1.378 . S
C1808 C1812 1.350 . S
C1809 C1812 1.463 1_554 S
C1809 C1814 1.350 . S
C1809 N1817 1.427 . S
C1810 H1801 0.930 . S
C1810 C1808 1.378 . S
C1810 C1811 1.367 . S
C1811 C1810 1.367 . S
C1811 C1813 1.433 . S
C1812 C1808 1.350 . S
C1812 C1809 1.463 1_556 S
C1812 N1816 1.427 . S
C1813 H1803 0.929 . S
C1813 C1811 1.433 . S
C1813 N1816 1.384 . S
C1814 H1805 0.929 . S
C1814 C1806 1.378 . S
C1814 C1809 1.350 . S
C1815 H1802 0.929 . S
C1815 C1807 1.433 . S
C1815 N1817 1.384 . S
N1816 C1812 1.427 . S
N1816 C1813 1.384 . S
N1817 C1809 1.427 . S
N1817 C1815 1.384 . S
H1818 C1824 0.930 . S
H1819 C1828 0.930 . S
H1820 C1833 0.929 . S
H1821 C1831 0.929 . S
H1822 C1826 0.929 . S
H1823 C1832 0.929 . S
C1824 H1818 0.930 . S
C1824 C1825 1.367 . S
C1824 C1832 1.378 . S
C1825 C1824 1.367 . S
C1825 C1833 1.433 1_455 S
C1826 H1822 0.929 . S
C1826 C1828 1.378 . S
C1826 C1830 1.350 1_655 S
C1827 C1830 1.463 . S
C1827 C1832 1.350 . S
C1827 N1835 1.427 1_455 S
C1828 H1819 0.930 . S
C1828 C1826 1.378 . S
C1828 C1829 1.367 1_655 S
C1829 C1828 1.367 1_455 S
C1829 C1831 1.433 . S
C1830 C1826 1.350 1_455 S
C1830 C1827 1.463 . S
C1830 N1834 1.427 . S
C1831 H1821 0.929 . S
C1831 C1829 1.433 . S
C1831 N1834 1.384 . S
C1832 H1823 0.929 . S
C1832 C1824 1.378 . S
C1832 C1827 1.350 . S
C1833 H1820 0.929 . S
C1833 C1825 1.433 1_655 S
C1833 N1835 1.384 . S
N1834 C1830 1.427 . S
N1834 C1831 1.384 . S
N1835 C1827 1.427 1_655 S
N1835 C1833 1.384 . S
H1836 C1842 0.930 . S
H1837 C1846 0.930 . S
H1838 C1851 0.929 . S
H1839 C1849 0.929 . S
H1840 C1844 0.929 . S
H1841 C1850 0.929 . S
C1842 H1836 0.930 . S
C1842 C1843 1.367 . S
C1842 C1850 1.378 . S
C1843 C1842 1.367 . S
C1843 C1851 1.433 . S
C1844 H1840 0.929 . S
C1844 C1846 1.378 . S
C1844 C1848 1.350 . S
C1845 C1848 1.463 . S
C1845 C1850 1.350 . S
C1845 N1853 1.427 . S
C1846 H1837 0.930 . S
C1846 C1844 1.378 . S
C1846 C1847 1.367 . S
C1847 C1846 1.367 . S
C1847 C1849 1.433 . S
C1848 C1844 1.350 . S
C1848 C1845 1.463 . S
C1848 N1852 1.427 . S
C1849 H1839 0.929 . S
C1849 C1847 1.433 . S
C1849 N1852 1.384 . S
C1850 H1841 0.929 . S
C1850 C1842 1.378 . S
C1850 C1845 1.350 . S
C1851 H1838 0.929 . S
C1851 C1843 1.433 . S
C1851 N1853 1.384 . S
N1852 C1848 1.427 . S
N1852 C1849 1.384 . S
N1853 C1845 1.427 . S
N1853 C1851 1.384 . S
H1854 C1860 0.930 . S
H1855 C1864 0.930 . S
H1856 C1869 0.929 . S
H1857 C1867 0.929 . S
H1858 C1862 0.929 . S
H1859 C1868 0.929 . S
C1860 H1854 0.930 . S
C1860 C1861 1.367 . S
C1860 C1868 1.378 . S
C1861 C1860 1.367 . S
C1861 C1869 1.433 1_545 S
C1862 H1858 0.929 . S
C1862 C1864 1.378 . S
C1862 C1866 1.350 1_565 S
C1863 C1866 1.463 . S
C1863 C1868 1.350 . S
C1863 N1871 1.427 1_545 S
C1864 H1855 0.930 . S
C1864 C1862 1.378 . S
C1864 C1865 1.367 1_565 S
C1865 C1864 1.367 1_545 S
C1865 C1867 1.433 . S
C1866 C1862 1.350 1_545 S
C1866 C1863 1.463 . S
C1866 N1870 1.427 . S
C1867 H1857 0.929 . S
C1867 C1865 1.433 . S
C1867 N1870 1.384 . S
C1868 H1859 0.929 . S
C1868 C1860 1.378 . S
C1868 C1863 1.350 . S
C1869 H1856 0.929 . S
C1869 C1861 1.433 1_565 S
C1869 N1871 1.384 . S
N1870 C1866 1.427 . S
N1870 C1867 1.384 . S
N1871 C1863 1.427 1_565 S
N1871 C1869 1.384 . S
H1872 C1878 0.930 . S
H1873 C1882 0.930 . S
H1874 C1887 0.929 . S
H1875 C1885 0.929 . S
H1876 C1880 0.929 . S
H1877 C1886 0.929 . S
C1878 H1872 0.930 . S
C1878 C1879 1.367 . S
C1878 C1886 1.378 . S
C1879 C1878 1.367 . S
C1879 C1887 1.433 . S
C1880 H1876 0.929 . S
C1880 C1882 1.378 . S
C1880 C1884 1.350 . S
C1881 C1884 1.463 . S
C1881 C1886 1.350 . S
C1881 N1889 1.427 . S
C1882 H1873 0.930 . S
C1882 C1880 1.378 . S
C1882 C1883 1.367 . S
C1883 C1882 1.367 . S
C1883 C1885 1.433 . S
C1884 C1880 1.350 . S
C1884 C1881 1.463 . S
C1884 N1888 1.427 . S
C1885 H1875 0.929 . S
C1885 C1883 1.433 . S
C1885 N1888 1.384 . S
C1886 H1877 0.929 . S
C1886 C1878 1.378 . S
C1886 C1881 1.350 . S
C1887 H1874 0.929 . S
C1887 C1879 1.433 . S
C1887 N1889 1.384 . S
N1888 C1884 1.427 . S
N1888 C1885 1.384 . S
N1889 C1881 1.427 . S
N1889 C1887 1.384 . S
H1890 C1896 0.930 . S
H1891 C1900 0.930 . S
H1892 C1905 0.929 . S
H1893 C1903 0.929 . S
H1894 C1898 0.929 . S
H1895 C1904 0.929 . S
C1896 H1890 0.930 . S
C1896 C1897 1.367 . S
C1896 C1904 1.378 . S
C1897 C1896 1.367 . S
C1897 C1905 1.433 . S
C1898 H1894 0.929 . S
C1898 C1900 1.378 . S
C1898 C1902 1.350 . S
C1899 C1902 1.463 . S
C1899 C1904 1.350 . S
C1899 N1907 1.427 . S
C1900 H1891 0.930 . S
C1900 C1898 1.378 . S
C1900 C1901 1.367 . S
C1901 C1900 1.367 . S
C1901 C1903 1.433 . S
C1902 C1898 1.350 . S
C1902 C1899 1.463 . S
C1902 N1906 1.427 . S
C1903 H1893 0.929 . S
C1903 C1901 1.433 . S
C1903 N1906 1.384 . S
C1904 H1895 0.929 . S
C1904 C1896 1.378 . S
C1904 C1899 1.350 . S
C1905 H1892 0.929 . S
C1905 C1897 1.433 . S
C1905 N1907 1.384 . S
N1906 C1902 1.427 . S
N1906 C1903 1.384 . S
N1907 C1899 1.427 . S
N1907 C1905 1.384 . S
H1908 C1914 0.930 . S
H1909 C1918 0.930 . S
H1910 C1923 0.929 . S
H1911 C1921 0.929 . S
H1912 C1916 0.929 . S
H1913 C1922 0.929 . S
C1914 H1908 0.930 . S
C1914 C1915 1.367 . S
C1914 C1922 1.378 . S
C1915 C1914 1.367 . S
C1915 C1923 1.433 . S
C1916 H1912 0.929 . S
C1916 C1918 1.378 . S
C1916 C1920 1.350 . S
C1917 C1920 1.463 . S
C1917 C1922 1.350 . S
C1917 N1925 1.427 . S
C1918 H1909 0.930 . S
C1918 C1916 1.378 . S
C1918 C1919 1.367 . S
C1919 C1918 1.367 . S
C1919 C1921 1.433 . S
C1920 C1916 1.350 . S
C1920 C1917 1.463 . S
C1920 N1924 1.427 . S
C1921 H1911 0.929 . S
C1921 C1919 1.433 . S
C1921 N1924 1.384 . S
C1922 H1913 0.929 . S
C1922 C1914 1.378 . S
C1922 C1917 1.350 . S
C1923 H1910 0.929 . S
C1923 C1915 1.433 . S
C1923 N1925 1.384 . S
N1924 C1920 1.427 . S
N1924 C1921 1.384 . S
N1925 C1917 1.427 . S
N1925 C1923 1.384 . S
H1926 C1932 0.930 . S
H1927 C1936 0.930 . S
H1928 C1941 0.929 . S
H1929 C1939 0.929 . S
H1930 C1934 0.929 . S
H1931 C1940 0.929 . S
C1932 H1926 0.930 . S
C1932 C1933 1.367 . S
C1932 C1940 1.378 . S
C1933 C1932 1.367 . S
C1933 C1941 1.433 . S
C1934 H1930 0.929 . S
C1934 C1936 1.378 . S
C1934 C1938 1.350 . S
C1935 C1938 1.463 . S
C1935 C1940 1.350 . S
C1935 N1943 1.427 . S
C1936 H1927 0.930 . S
C1936 C1934 1.378 . S
C1936 C1937 1.367 . S
C1937 C1936 1.367 . S
C1937 C1939 1.433 . S
C1938 C1934 1.350 . S
C1938 C1935 1.463 . S
C1938 N1942 1.427 . S
C1939 H1929 0.929 . S
C1939 C1937 1.433 . S
C1939 N1942 1.384 . S
C1940 H1931 0.929 . S
C1940 C1932 1.378 . S
C1940 C1935 1.350 . S
C1941 H1928 0.929 . S
C1941 C1933 1.433 . S
C1941 N1943 1.384 . S
N1942 C1938 1.427 . S
N1942 C1939 1.384 . S
N1943 C1935 1.427 . S
N1943 C1941 1.384 . S
H1944 C1950 0.930 . S
H1945 C1954 0.930 . S
H1946 C1959 0.929 . S
H1947 C1957 0.929 . S
H1948 C1952 0.929 . S
H1949 C1958 0.929 . S
C1950 H1944 0.930 . S
C1950 C1951 1.367 . S
C1950 C1958 1.378 . S
C1951 C1950 1.367 . S
C1951 C1959 1.433 . S
C1952 H1948 0.929 . S
C1952 C1954 1.378 . S
C1952 C1956 1.350 . S
C1953 C1956 1.463 . S
C1953 C1958 1.350 . S
C1953 N1961 1.427 . S
C1954 H1945 0.930 . S
C1954 C1952 1.378 . S
C1954 C1955 1.367 . S
C1955 C1954 1.367 . S
C1955 C1957 1.433 . S
C1956 C1952 1.350 . S
C1956 C1953 1.463 . S
C1956 N1960 1.427 . S
C1957 H1947 0.929 . S
C1957 C1955 1.433 . S
C1957 N1960 1.384 . S
C1958 H1949 0.929 . S
C1958 C1950 1.378 . S
C1958 C1953 1.350 . S
C1959 H1946 0.929 . S
C1959 C1951 1.433 . S
C1959 N1961 1.384 . S
N1960 C1956 1.427 . S
N1960 C1957 1.384 . S
N1961 C1953 1.427 . S
N1961 C1959 1.384 . S
H1962 C1968 0.930 . S
H1963 C1972 0.930 . S
H1964 C1977 0.929 . S
H1965 C1975 0.929 . S
H1966 C1970 0.929 . S
H1967 C1976 0.929 . S
C1968 H1962 0.930 . S
C1968 C1969 1.367 . S
C1968 C1976 1.378 . S
C1969 C1968 1.367 . S
C1969 C1977 1.433 . S
C1970 H1966 0.929 . S
C1970 C1972 1.378 . S
C1970 C1974 1.350 . S
C1971 C1974 1.463 . S
C1971 C1976 1.350 . S
C1971 N1979 1.427 . S
C1972 H1963 0.930 . S
C1972 C1970 1.378 . S
C1972 C1973 1.367 . S
C1973 C1972 1.367 . S
C1973 C1975 1.433 . S
C1974 C1970 1.350 . S
C1974 C1971 1.463 . S
C1974 N1978 1.427 . S
C1975 H1965 0.929 . S
C1975 C1973 1.433 . S
C1975 N1978 1.384 . S
C1976 H1967 0.929 . S
C1976 C1968 1.378 . S
C1976 C1971 1.350 . S
C1977 H1964 0.929 . S
C1977 C1969 1.433 . S
C1977 N1979 1.384 . S
N1978 C1974 1.427 . S
N1978 C1975 1.384 . S
N1979 C1971 1.427 . S
N1979 C1977 1.384 . S
H1980 C1986 0.930 . S
H1981 C1990 0.930 . S
H1982 C1995 0.929 . S
H1983 C1993 0.929 . S
H1984 C1988 0.929 . S
H1985 C1994 0.929 . S
C1986 H1980 0.930 . S
C1986 C1987 1.367 . S
C1986 C1994 1.378 . S
C1987 C1986 1.367 . S
C1987 C1995 1.433 . S
C1988 H1984 0.929 . S
C1988 C1990 1.378 . S
C1988 C1992 1.350 . S
C1989 C1992 1.463 . S
C1989 C1994 1.350 . S
C1989 N1997 1.427 . S
C1990 H1981 0.930 . S
C1990 C1988 1.378 . S
C1990 C1991 1.367 . S
C1991 C1990 1.367 . S
C1991 C1993 1.433 . S
C1992 C1988 1.350 . S
C1992 C1989 1.463 . S
C1992 N1996 1.427 . S
C1993 H1983 0.929 . S
C1993 C1991 1.433 . S
C1993 N1996 1.384 . S
C1994 H1985 0.929 . S
C1994 C1986 1.378 . S
C1994 C1989 1.350 . S
C1995 H1982 0.929 . S
C1995 C1987 1.433 . S
C1995 N1997 1.384 . S
N1996 C1992 1.427 . S
N1996 C1993 1.384 . S
N1997 C1989 1.427 . S
N1997 C1995 1.384 . S
H1998 C2004 0.930 . S
H1999 C2008 0.930 . S
H2000 C2013 0.929 . S
H2001 C2011 0.929 . S
H2002 C2006 0.929 . S
H2003 C2012 0.929 . S
C2004 H1998 0.930 . S
C2004 C2005 1.367 . S
C2004 C2012 1.378 . S
C2005 C2004 1.367 . S
C2005 C2013 1.433 . S
C2006 H2002 0.929 . S
C2006 C2008 1.378 . S
C2006 C2010 1.350 . S
C2007 C2010 1.463 . S
C2007 C2012 1.350 . S
C2007 N2015 1.427 . S
C2008 H1999 0.930 . S
C2008 C2006 1.378 . S
C2008 C2009 1.367 . S
C2009 C2008 1.367 . S
C2009 C2011 1.433 . S
C2010 C2006 1.350 . S
C2010 C2007 1.463 . S
C2010 N2014 1.427 . S
C2011 H2001 0.929 . S
C2011 C2009 1.433 . S
C2011 N2014 1.384 . S
C2012 H2003 0.929 . S
C2012 C2004 1.378 . S
C2012 C2007 1.350 . S
C2013 H2000 0.929 . S
C2013 C2005 1.433 . S
C2013 N2015 1.384 . S
N2014 C2010 1.427 . S
N2014 C2011 1.384 . S
N2015 C2007 1.427 . S
N2015 C2013 1.384 . S
H2016 C2022 0.930 . S
H2017 C2026 0.930 . S
H2018 C2031 0.929 . S
H2019 C2029 0.929 . S
H2020 C2024 0.929 . S
H2021 C2030 0.929 . S
C2022 H2016 0.930 . S
C2022 C2023 1.367 . S
C2022 C2030 1.378 . S
C2023 C2022 1.367 . S
C2023 C2031 1.433 . S
C2024 H2020 0.929 . S
C2024 C2026 1.378 . S
C2024 C2028 1.350 . S
C2025 C2028 1.463 . S
C2025 C2030 1.350 . S
C2025 N2033 1.427 . S
C2026 H2017 0.930 . S
C2026 C2024 1.378 . S
C2026 C2027 1.367 . S
C2027 C2026 1.367 . S
C2027 C2029 1.433 . S
C2028 C2024 1.350 . S
C2028 C2025 1.463 . S
C2028 N2032 1.427 . S
C2029 H2019 0.929 . S
C2029 C2027 1.433 . S
C2029 N2032 1.384 . S
C2030 H2021 0.929 . S
C2030 C2022 1.378 . S
C2030 C2025 1.350 . S
C2031 H2018 0.929 . S
C2031 C2023 1.433 . S
C2031 N2033 1.384 . S
N2032 C2028 1.427 . S
N2032 C2029 1.384 . S
N2033 C2025 1.427 . S
N2033 C2031 1.384 . S
H2034 C2040 0.930 . S
H2035 C2044 0.930 . S
H2036 C2049 0.929 . S
H2037 C2047 0.929 . S
H2038 C2042 0.929 . S
H2039 C2048 0.929 . S
C2040 H2034 0.930 . S
C2040 C2041 1.367 . S
C2040 C2048 1.378 . S
C2041 C2040 1.367 . S
C2041 C2049 1.433 . S
C2042 H2038 0.929 . S
C2042 C2044 1.378 . S
C2042 C2046 1.350 . S
C2043 C2046 1.463 . S
C2043 C2048 1.350 . S
C2043 N2051 1.427 . S
C2044 H2035 0.930 . S
C2044 C2042 1.378 . S
C2044 C2045 1.367 . S
C2045 C2044 1.367 . S
C2045 C2047 1.433 . S
C2046 C2042 1.350 . S
C2046 C2043 1.463 . S
C2046 N2050 1.427 . S
C2047 H2037 0.929 . S
C2047 C2045 1.433 . S
C2047 N2050 1.384 . S
C2048 H2039 0.929 . S
C2048 C2040 1.378 . S
C2048 C2043 1.350 . S
C2049 H2036 0.929 . S
C2049 C2041 1.433 . S
C2049 N2051 1.384 . S
N2050 C2046 1.427 . S
N2050 C2047 1.384 . S
N2051 C2043 1.427 . S
N2051 C2049 1.384 . S
H2052 C2058 0.930 . S
H2053 C2062 0.930 . S
H2054 C2067 0.929 . S
H2055 C2065 0.929 . S
H2056 C2060 0.929 . S
H2057 C2066 0.929 . S
C2058 H2052 0.930 . S
C2058 C2059 1.367 . S
C2058 C2066 1.378 . S
C2059 C2058 1.367 . S
C2059 C2067 1.433 . S
C2060 H2056 0.929 . S
C2060 C2062 1.378 . S
C2060 C2064 1.350 . S
C2061 C2064 1.463 . S
C2061 C2066 1.350 . S
C2061 N2069 1.427 . S
C2062 H2053 0.930 . S
C2062 C2060 1.378 . S
C2062 C2063 1.367 . S
C2063 C2062 1.367 . S
C2063 C2065 1.433 . S
C2064 C2060 1.350 . S
C2064 C2061 1.463 . S
C2064 N2068 1.427 . S
C2065 H2055 0.929 . S
C2065 C2063 1.433 . S
C2065 N2068 1.384 . S
C2066 H2057 0.929 . S
C2066 C2058 1.378 . S
C2066 C2061 1.350 . S
C2067 H2054 0.929 . S
C2067 C2059 1.433 . S
C2067 N2069 1.384 . S
N2068 C2064 1.427 . S
N2068 C2065 1.384 . S
N2069 C2061 1.427 . S
N2069 C2067 1.384 . S
H2070 C2076 0.930 . S
H2071 C2080 0.930 . S
H2072 C2085 0.929 . S
H2073 C2083 0.929 . S
H2074 C2078 0.929 . S
H2075 C2084 0.929 . S
C2076 H2070 0.930 . S
C2076 C2077 1.367 . S
C2076 C2084 1.378 . S
C2077 C2076 1.367 . S
C2077 C2085 1.433 . S
C2078 H2074 0.929 . S
C2078 C2080 1.378 . S
C2078 C2082 1.350 . S
C2079 C2082 1.463 . S
C2079 C2084 1.350 . S
C2079 N2087 1.427 . S
C2080 H2071 0.930 . S
C2080 C2078 1.378 . S
C2080 C2081 1.367 . S
C2081 C2080 1.367 . S
C2081 C2083 1.433 . S
C2082 C2078 1.350 . S
C2082 C2079 1.463 . S
C2082 N2086 1.427 . S
C2083 H2073 0.929 . S
C2083 C2081 1.433 . S
C2083 N2086 1.384 . S
C2084 H2075 0.929 . S
C2084 C2076 1.378 . S
C2084 C2079 1.350 . S
C2085 H2072 0.929 . S
C2085 C2077 1.433 . S
C2085 N2087 1.384 . S
N2086 C2082 1.427 . S
N2086 C2083 1.384 . S
N2087 C2079 1.427 . S
N2087 C2085 1.384 . S
H2088 C2094 0.930 . S
H2089 C2098 0.930 . S
H2090 C2103 0.929 . S
H2091 C2101 0.929 . S
H2092 C2096 0.929 . S
H2093 C2102 0.929 . S
C2094 H2088 0.930 . S
C2094 C2095 1.367 . S
C2094 C2102 1.378 . S
C2095 C2094 1.367 . S
C2095 C2103 1.433 . S
C2096 H2092 0.929 . S
C2096 C2098 1.378 . S
C2096 C2100 1.350 . S
C2097 C2100 1.463 . S
C2097 C2102 1.350 . S
C2097 N2105 1.427 . S
C2098 H2089 0.930 . S
C2098 C2096 1.378 . S
C2098 C2099 1.367 . S
C2099 C2098 1.367 . S
C2099 C2101 1.433 . S
C2100 C2096 1.350 . S
C2100 C2097 1.463 . S
C2100 N2104 1.427 . S
C2101 H2091 0.929 . S
C2101 C2099 1.433 . S
C2101 N2104 1.384 . S
C2102 H2093 0.929 . S
C2102 C2094 1.378 . S
C2102 C2097 1.350 . S
C2103 H2090 0.929 . S
C2103 C2095 1.433 . S
C2103 N2105 1.384 . S
N2104 C2100 1.427 . S
N2104 C2101 1.384 . S
N2105 C2097 1.427 . S
N2105 C2103 1.384 . S
H2106 C2112 0.930 . S
H2107 C2116 0.930 . S
H2108 C2121 0.929 . S
H2109 C2119 0.929 . S
H2110 C2114 0.929 . S
H2111 C2120 0.929 . S
C2112 H2106 0.930 . S
C2112 C2113 1.367 . S
C2112 C2120 1.378 . S
C2113 C2112 1.367 . S
C2113 C2121 1.433 . S
C2114 H2110 0.929 . S
C2114 C2116 1.378 . S
C2114 C2118 1.350 . S
C2115 C2118 1.463 . S
C2115 C2120 1.350 . S
C2115 N2123 1.427 . S
C2116 H2107 0.930 . S
C2116 C2114 1.378 . S
C2116 C2117 1.367 . S
C2117 C2116 1.367 . S
C2117 C2119 1.433 . S
C2118 C2114 1.350 . S
C2118 C2115 1.463 . S
C2118 N2122 1.427 . S
C2119 H2109 0.929 . S
C2119 C2117 1.433 . S
C2119 N2122 1.384 . S
C2120 H2111 0.929 . S
C2120 C2112 1.378 . S
C2120 C2115 1.350 . S
C2121 H2108 0.929 . S
C2121 C2113 1.433 . S
C2121 N2123 1.384 . S
N2122 C2118 1.427 . S
N2122 C2119 1.384 . S
N2123 C2115 1.427 . S
N2123 C2121 1.384 . S
H2124 C2130 0.930 . S
H2125 C2134 0.930 . S
H2126 C2139 0.929 . S
H2127 C2137 0.929 . S
H2128 C2132 0.929 . S
H2129 C2138 0.929 . S
C2130 H2124 0.930 . S
C2130 C2131 1.367 . S
C2130 C2138 1.378 . S
C2131 C2130 1.367 . S
C2131 C2139 1.433 . S
C2132 H2128 0.929 . S
C2132 C2134 1.378 . S
C2132 C2136 1.350 . S
C2133 C2136 1.463 . S
C2133 C2138 1.350 . S
C2133 N2141 1.427 . S
C2134 H2125 0.930 . S
C2134 C2132 1.378 . S
C2134 C2135 1.367 . S
C2135 C2134 1.367 . S
C2135 C2137 1.433 . S
C2136 C2132 1.350 . S
C2136 C2133 1.463 . S
C2136 N2140 1.427 . S
C2137 H2127 0.929 . S
C2137 C2135 1.433 . S
C2137 N2140 1.384 . S
C2138 H2129 0.929 . S
C2138 C2130 1.378 . S
C2138 C2133 1.350 . S
C2139 H2126 0.929 . S
C2139 C2131 1.433 . S
C2139 N2141 1.384 . S
N2140 C2136 1.427 . S
N2140 C2137 1.384 . S
N2141 C2133 1.427 . S
N2141 C2139 1.384 . S
H2142 C2148 0.930 . S
H2143 C2152 0.930 . S
H2144 C2157 0.929 . S
H2145 C2155 0.929 . S
H2146 C2150 0.929 . S
H2147 C2156 0.929 . S
C2148 H2142 0.930 . S
C2148 C2149 1.367 . S
C2148 C2156 1.378 . S
C2149 C2148 1.367 . S
C2149 C2157 1.433 . S
C2150 H2146 0.929 . S
C2150 C2152 1.378 . S
C2150 C2154 1.350 . S
C2151 C2154 1.463 . S
C2151 C2156 1.350 . S
C2151 N2159 1.427 . S
C2152 H2143 0.930 . S
C2152 C2150 1.378 . S
C2152 C2153 1.367 . S
C2153 C2152 1.367 . S
C2153 C2155 1.433 . S
C2154 C2150 1.350 . S
C2154 C2151 1.463 . S
C2154 N2158 1.427 . S
C2155 H2145 0.929 . S
C2155 C2153 1.433 . S
C2155 N2158 1.384 . S
C2156 H2147 0.929 . S
C2156 C2148 1.378 . S
C2156 C2151 1.350 . S
C2157 H2144 0.929 . S
C2157 C2149 1.433 . S
C2157 N2159 1.384 . S
N2158 C2154 1.427 . S
N2158 C2155 1.384 . S
N2159 C2151 1.427 . S
N2159 C2157 1.384 . S
H2160 C2166 0.930 . S
H2161 C2170 0.930 . S
H2162 C2175 0.929 . S
H2163 C2173 0.929 . S
H2164 C2168 0.929 . S
H2165 C2174 0.929 . S
C2166 H2160 0.930 . S
C2166 C2167 1.367 . S
C2166 C2174 1.378 . S
C2167 C2166 1.367 . S
C2167 C2175 1.433 . S
C2168 H2164 0.929 . S
C2168 C2170 1.378 . S
C2168 C2172 1.350 . S
C2169 C2172 1.463 . S
C2169 C2174 1.350 . S
C2169 N2177 1.427 . S
C2170 H2161 0.930 . S
C2170 C2168 1.378 . S
C2170 C2171 1.367 . S
C2171 C2170 1.367 . S
C2171 C2173 1.433 . S
C2172 C2168 1.350 . S
C2172 C2169 1.463 . S
C2172 N2176 1.427 . S
C2173 H2163 0.929 . S
C2173 C2171 1.433 . S
C2173 N2176 1.384 . S
C2174 H2165 0.929 . S
C2174 C2166 1.378 . S
C2174 C2169 1.350 . S
C2175 H2162 0.929 . S
C2175 C2167 1.433 . S
C2175 N2177 1.384 . S
N2176 C2172 1.427 . S
N2176 C2173 1.384 . S
N2177 C2169 1.427 . S
N2177 C2175 1.384 . S
H2178 C2184 0.930 . S
H2179 C2188 0.930 . S
H2180 C2193 0.929 . S
H2181 C2191 0.929 . S
H2182 C2186 0.929 . S
H2183 C2192 0.929 . S
C2184 H2178 0.930 . S
C2184 C2185 1.367 . S
C2184 C2192 1.378 . S
C2185 C2184 1.367 . S
C2185 C2193 1.433 . S
C2186 H2182 0.929 . S
C2186 C2188 1.378 . S
C2186 C2190 1.350 . S
C2187 C2190 1.463 . S
C2187 C2192 1.350 . S
C2187 N2195 1.427 . S
C2188 H2179 0.930 . S
C2188 C2186 1.378 . S
C2188 C2189 1.367 . S
C2189 C2188 1.367 . S
C2189 C2191 1.433 . S
C2190 C2186 1.350 . S
C2190 C2187 1.463 . S
C2190 N2194 1.427 . S
C2191 H2181 0.929 . S
C2191 C2189 1.433 . S
C2191 N2194 1.384 . S
C2192 H2183 0.929 . S
C2192 C2184 1.378 . S
C2192 C2187 1.350 . S
C2193 H2180 0.929 . S
C2193 C2185 1.433 . S
C2193 N2195 1.384 . S
N2194 C2190 1.427 . S
N2194 C2191 1.384 . S
N2195 C2187 1.427 . S
N2195 C2193 1.384 . S
H2196 C2202 0.930 . S
H2197 C2206 0.930 . S
H2198 C2211 0.929 . S
H2199 C2209 0.929 . S
H2200 C2204 0.929 . S
H2201 C2210 0.929 . S
C2202 H2196 0.930 . S
C2202 C2203 1.367 . S
C2202 C2210 1.378 . S
C2203 C2202 1.367 . S
C2203 C2211 1.433 . S
C2204 H2200 0.929 . S
C2204 C2206 1.378 . S
C2204 C2208 1.350 . S
C2205 C2208 1.463 . S
C2205 C2210 1.350 . S
C2205 N2213 1.427 . S
C2206 H2197 0.930 . S
C2206 C2204 1.378 . S
C2206 C2207 1.367 . S
C2207 C2206 1.367 . S
C2207 C2209 1.433 . S
C2208 C2204 1.350 . S
C2208 C2205 1.463 . S
C2208 N2212 1.427 . S
C2209 H2199 0.929 . S
C2209 C2207 1.433 . S
C2209 N2212 1.384 . S
C2210 H2201 0.929 . S
C2210 C2202 1.378 . S
C2210 C2205 1.350 . S
C2211 H2198 0.929 . S
C2211 C2203 1.433 . S
C2211 N2213 1.384 . S
N2212 C2208 1.427 . S
N2212 C2209 1.384 . S
N2213 C2205 1.427 . S
N2213 C2211 1.384 . S
H2214 C2220 0.930 . S
H2215 C2224 0.930 . S
H2216 C2229 0.929 . S
H2217 C2227 0.929 . S
H2218 C2222 0.929 . S
H2219 C2228 0.929 . S
C2220 H2214 0.930 . S
C2220 C2221 1.367 . S
C2220 C2228 1.378 . S
C2221 C2220 1.367 . S
C2221 C2229 1.433 . S
C2222 H2218 0.929 . S
C2222 C2224 1.378 . S
C2222 C2226 1.350 . S
C2223 C2226 1.463 . S
C2223 C2228 1.350 . S
C2223 N2231 1.427 . S
C2224 H2215 0.930 . S
C2224 C2222 1.378 . S
C2224 C2225 1.367 . S
C2225 C2224 1.367 . S
C2225 C2227 1.433 . S
C2226 C2222 1.350 . S
C2226 C2223 1.463 . S
C2226 N2230 1.427 . S
C2227 H2217 0.929 . S
C2227 C2225 1.433 . S
C2227 N2230 1.384 . S
C2228 H2219 0.929 . S
C2228 C2220 1.378 . S
C2228 C2223 1.350 . S
C2229 H2216 0.929 . S
C2229 C2221 1.433 . S
C2229 N2231 1.384 . S
N2230 C2226 1.427 . S
N2230 C2227 1.384 . S
N2231 C2223 1.427 . S
N2231 C2229 1.384 . S
H2232 C2238 0.930 . S
H2233 C2242 0.930 . S
H2234 C2247 0.929 . S
H2235 C2245 0.929 . S
H2236 C2240 0.929 . S
H2237 C2246 0.929 . S
C2238 H2232 0.930 . S
C2238 C2239 1.367 . S
C2238 C2246 1.378 . S
C2239 C2238 1.367 . S
C2239 C2247 1.433 . S
C2240 H2236 0.929 . S
C2240 C2242 1.378 . S
C2240 C2244 1.350 . S
C2241 C2244 1.463 . S
C2241 C2246 1.350 . S
C2241 N2249 1.427 . S
C2242 H2233 0.930 . S
C2242 C2240 1.378 . S
C2242 C2243 1.367 . S
C2243 C2242 1.367 . S
C2243 C2245 1.433 . S
C2244 C2240 1.350 . S
C2244 C2241 1.463 . S
C2244 N2248 1.427 . S
C2245 H2235 0.929 . S
C2245 C2243 1.433 . S
C2245 N2248 1.384 . S
C2246 H2237 0.929 . S
C2246 C2238 1.378 . S
C2246 C2241 1.350 . S
C2247 H2234 0.929 . S
C2247 C2239 1.433 . S
C2247 N2249 1.384 . S
N2248 C2244 1.427 . S
N2248 C2245 1.384 . S
N2249 C2241 1.427 . S
N2249 C2247 1.384 . S
H2250 C2256 0.930 . S
H2251 C2260 0.930 . S
H2252 C2265 0.929 . S
H2253 C2263 0.929 . S
H2254 C2258 0.929 . S
H2255 C2264 0.929 . S
C2256 H2250 0.930 . S
C2256 C2257 1.367 . S
C2256 C2264 1.378 . S
C2257 C2256 1.367 . S
C2257 C2265 1.433 . S
C2258 H2254 0.929 . S
C2258 C2260 1.378 . S
C2258 C2262 1.350 . S
C2259 C2262 1.463 . S
C2259 C2264 1.350 . S
C2259 N2267 1.427 . S
C2260 H2251 0.930 . S
C2260 C2258 1.378 . S
C2260 C2261 1.367 . S
C2261 C2260 1.367 . S
C2261 C2263 1.433 . S
C2262 C2258 1.350 . S
C2262 C2259 1.463 . S
C2262 N2266 1.427 . S
C2263 H2253 0.929 . S
C2263 C2261 1.433 . S
C2263 N2266 1.384 . S
C2264 H2255 0.929 . S
C2264 C2256 1.378 . S
C2264 C2259 1.350 . S
C2265 H2252 0.929 . S
C2265 C2257 1.433 . S
C2265 N2267 1.384 . S
N2266 C2262 1.427 . S
N2266 C2263 1.384 . S
N2267 C2259 1.427 . S
N2267 C2265 1.384 . S
H2268 C2274 0.930 . S
H2269 C2278 0.930 . S
H2270 C2283 0.929 . S
H2271 C2281 0.929 . S
H2272 C2276 0.929 . S
H2273 C2282 0.929 . S
C2274 H2268 0.930 . S
C2274 C2275 1.367 . S
C2274 C2282 1.378 . S
C2275 C2274 1.367 . S
C2275 C2283 1.433 . S
C2276 H2272 0.929 . S
C2276 C2278 1.378 . S
C2276 C2280 1.350 . S
C2277 C2280 1.463 . S
C2277 C2282 1.350 . S
C2277 N2285 1.427 . S
C2278 H2269 0.930 . S
C2278 C2276 1.378 . S
C2278 C2279 1.367 . S
C2279 C2278 1.367 . S
C2279 C2281 1.433 . S
C2280 C2276 1.350 . S
C2280 C2277 1.463 . S
C2280 N2284 1.427 . S
C2281 H2271 0.929 . S
C2281 C2279 1.433 . S
C2281 N2284 1.384 . S
C2282 H2273 0.929 . S
C2282 C2274 1.378 . S
C2282 C2277 1.350 . S
C2283 H2270 0.929 . S
C2283 C2275 1.433 . S
C2283 N2285 1.384 . S
N2284 C2280 1.427 . S
N2284 C2281 1.384 . S
N2285 C2277 1.427 . S
N2285 C2283 1.384 . S
H2286 C2292 0.930 . S
H2287 C2296 0.930 . S
H2288 C2301 0.929 . S
H2289 C2299 0.929 . S
H2290 C2294 0.929 . S
H2291 C2300 0.929 . S
C2292 H2286 0.930 . S
C2292 C2293 1.367 . S
C2292 C2300 1.378 . S
C2293 C2292 1.367 . S
C2293 C2301 1.433 . S
C2294 H2290 0.929 . S
C2294 C2296 1.378 . S
C2294 C2298 1.350 . S
C2295 C2298 1.463 . S
C2295 C2300 1.350 . S
C2295 N2303 1.427 . S
C2296 H2287 0.930 . S
C2296 C2294 1.378 . S
C2296 C2297 1.367 . S
C2297 C2296 1.367 . S
C2297 C2299 1.433 . S
C2298 C2294 1.350 . S
C2298 C2295 1.463 . S
C2298 N2302 1.427 . S
C2299 H2289 0.929 . S
C2299 C2297 1.433 . S
C2299 N2302 1.384 . S
C2300 H2291 0.929 . S
C2300 C2292 1.378 . S
C2300 C2295 1.350 . S
C2301 H2288 0.929 . S
C2301 C2293 1.433 . S
C2301 N2303 1.384 . S
N2302 C2298 1.427 . S
N2302 C2299 1.384 . S
N2303 C2295 1.427 . S
N2303 C2301 1.384 . S
H2304 C2310 0.930 . S
H2305 C2314 0.930 . S
H2306 C2319 0.929 . S
H2307 C2317 0.929 . S
H2308 C2312 0.929 . S
H2309 C2318 0.929 . S
C2310 H2304 0.930 . S
C2310 C2311 1.367 . S
C2310 C2318 1.378 . S
C2311 C2310 1.367 . S
C2311 C2319 1.433 . S
C2312 H2308 0.929 . S
C2312 C2314 1.378 . S
C2312 C2316 1.350 . S
C2313 C2316 1.463 . S
C2313 C2318 1.350 . S
C2313 N2321 1.427 . S
C2314 H2305 0.930 . S
C2314 C2312 1.378 . S
C2314 C2315 1.367 . S
C2315 C2314 1.367 . S
C2315 C2317 1.433 . S
C2316 C2312 1.350 . S
C2316 C2313 1.463 . S
C2316 N2320 1.427 . S
C2317 H2307 0.929 . S
C2317 C2315 1.433 . S
C2317 N2320 1.384 . S
C2318 H2309 0.929 . S
C2318 C2310 1.378 . S
C2318 C2313 1.350 . S
C2319 H2306 0.929 . S
C2319 C2311 1.433 . S
C2319 N2321 1.384 . S
N2320 C2316 1.427 . S
N2320 C2317 1.384 . S
N2321 C2313 1.427 . S
N2321 C2319 1.384 . S
H2322 C2328 0.930 . S
H2323 C2332 0.930 . S
H2324 C2337 0.929 . S
H2325 C2335 0.929 . S
H2326 C2330 0.929 . S
H2327 C2336 0.929 . S
C2328 H2322 0.930 . S
C2328 C2329 1.367 . S
C2328 C2336 1.378 . S
C2329 C2328 1.367 . S
C2329 C2337 1.433 . S
C2330 H2326 0.929 . S
C2330 C2332 1.378 . S
C2330 C2334 1.350 . S
C2331 C2334 1.463 1_545 S
C2331 C2336 1.350 . S
C2331 N2339 1.427 . S
C2332 H2323 0.930 . S
C2332 C2330 1.378 . S
C2332 C2333 1.367 . S
C2333 C2332 1.367 . S
C2333 C2335 1.433 . S
C2334 C2330 1.350 . S
C2334 C2331 1.463 1_565 S
C2334 N2338 1.427 . S
C2335 H2325 0.929 . S
C2335 C2333 1.433 . S
C2335 N2338 1.384 . S
C2336 H2327 0.929 . S
C2336 C2328 1.378 . S
C2336 C2331 1.350 . S
C2337 H2324 0.929 . S
C2337 C2329 1.433 . S
C2337 N2339 1.384 . S
N2338 C2334 1.427 . S
N2338 C2335 1.384 . S
N2339 C2331 1.427 . S
N2339 C2337 1.384 . S
H2340 C2346 0.930 . S
H2341 C2350 0.930 . S
H2342 C2355 0.929 . S
H2343 C2353 0.929 . S
H2344 C2348 0.929 . S
H2345 C2354 0.929 . S
C2346 H2340 0.930 . S
C2346 C2347 1.367 . S
C2346 C2354 1.378 . S
C2347 C2346 1.367 . S
C2347 C2355 1.433 . S
C2348 H2344 0.929 . S
C2348 C2350 1.378 . S
C2348 C2352 1.350 . S
C2349 C2352 1.463 1_655 S
C2349 C2354 1.350 . S
C2349 N2357 1.427 . S
C2350 H2341 0.930 . S
C2350 C2348 1.378 . S
C2350 C2351 1.367 . S
C2351 C2350 1.367 . S
C2351 C2353 1.433 . S
C2352 C2348 1.350 . S
C2352 C2349 1.463 1_455 S
C2352 N2356 1.427 . S
C2353 H2343 0.929 . S
C2353 C2351 1.433 . S
C2353 N2356 1.384 . S
C2354 H2345 0.929 . S
C2354 C2346 1.378 . S
C2354 C2349 1.350 . S
C2355 H2342 0.929 . S
C2355 C2347 1.433 . S
C2355 N2357 1.384 . S
N2356 C2352 1.427 . S
N2356 C2353 1.384 . S
N2357 C2349 1.427 . S
N2357 C2355 1.384 . S
H2358 C2364 0.930 . S
H2359 C2368 0.930 . S
H2360 C2373 0.929 . S
H2361 C2371 0.929 . S
H2362 C2366 0.929 . S
H2363 C2372 0.929 . S
C2364 H2358 0.930 . S
C2364 C2365 1.367 . S
C2364 C2372 1.378 . S
C2365 C2364 1.367 . S
C2365 C2373 1.433 . S
C2366 H2362 0.929 . S
C2366 C2368 1.378 . S
C2366 C2370 1.350 . S
C2367 C2370 1.463 . S
C2367 C2372 1.350 . S
C2367 N2375 1.427 . S
C2368 H2359 0.930 . S
C2368 C2366 1.378 . S
C2368 C2369 1.367 . S
C2369 C2368 1.367 . S
C2369 C2371 1.433 . S
C2370 C2366 1.350 . S
C2370 C2367 1.463 . S
C2370 N2374 1.427 . S
C2371 H2361 0.929 . S
C2371 C2369 1.433 . S
C2371 N2374 1.384 . S
C2372 H2363 0.929 . S
C2372 C2364 1.378 . S
C2372 C2367 1.350 . S
C2373 H2360 0.929 . S
C2373 C2365 1.433 . S
C2373 N2375 1.384 . S
N2374 C2370 1.427 . S
N2374 C2371 1.384 . S
N2375 C2367 1.427 . S
N2375 C2373 1.384 . S
H2376 C2382 0.930 . S
H2377 C2386 0.930 . S
H2378 C2391 0.929 . S
H2379 C2389 0.929 . S
H2380 C2384 0.929 . S
H2381 C2390 0.929 . S
C2382 H2376 0.930 . S
C2382 C2383 1.367 . S
C2382 C2390 1.378 . S
C2383 C2382 1.367 . S
C2383 C2391 1.433 . S
C2384 H2380 0.929 . S
C2384 C2386 1.378 . S
C2384 C2388 1.350 . S
C2385 C2388 1.463 . S
C2385 C2390 1.350 . S
C2385 N2393 1.427 . S
C2386 H2377 0.930 . S
C2386 C2384 1.378 . S
C2386 C2387 1.367 . S
C2387 C2386 1.367 . S
C2387 C2389 1.433 . S
C2388 C2384 1.350 . S
C2388 C2385 1.463 . S
C2388 N2392 1.427 . S
C2389 H2379 0.929 . S
C2389 C2387 1.433 . S
C2389 N2392 1.384 . S
C2390 H2381 0.929 . S
C2390 C2382 1.378 . S
C2390 C2385 1.350 . S
C2391 H2378 0.929 . S
C2391 C2383 1.433 . S
C2391 N2393 1.384 . S
N2392 C2388 1.427 . S
N2392 C2389 1.384 . S
N2393 C2385 1.427 . S
N2393 C2391 1.384 . S
H2394 C2400 0.930 . S
H2395 C2404 0.930 . S
H2396 C2409 0.929 . S
H2397 C2407 0.929 . S
H2398 C2402 0.929 . S
H2399 C2408 0.929 . S
C2400 H2394 0.930 . S
C2400 C2401 1.367 . S
C2400 C2408 1.378 . S
C2401 C2400 1.367 . S
C2401 C2409 1.433 . S
C2402 H2398 0.929 . S
C2402 C2404 1.378 . S
C2402 C2406 1.350 . S
C2403 C2406 1.463 . S
C2403 C2408 1.350 . S
C2403 N2411 1.427 . S
C2404 H2395 0.930 . S
C2404 C2402 1.378 . S
C2404 C2405 1.367 . S
C2405 C2404 1.367 . S
C2405 C2407 1.433 . S
C2406 C2402 1.350 . S
C2406 C2403 1.463 . S
C2406 N2410 1.427 . S
C2407 H2397 0.929 . S
C2407 C2405 1.433 . S
C2407 N2410 1.384 . S
C2408 H2399 0.929 . S
C2408 C2400 1.378 . S
C2408 C2403 1.350 . S
C2409 H2396 0.929 . S
C2409 C2401 1.433 . S
C2409 N2411 1.384 . S
N2410 C2406 1.427 . S
N2410 C2407 1.384 . S
N2411 C2403 1.427 . S
N2411 C2409 1.384 . S
H2412 C2418 0.930 . S
H2413 C2422 0.930 . S
H2414 C2427 0.929 . S
H2415 C2425 0.929 . S
H2416 C2420 0.929 . S
H2417 C2426 0.929 . S
C2418 H2412 0.930 . S
C2418 C2419 1.367 . S
C2418 C2426 1.378 . S
C2419 C2418 1.367 . S
C2419 C2427 1.433 . S
C2420 H2416 0.929 . S
C2420 C2422 1.378 . S
C2420 C2424 1.350 . S
C2421 C2424 1.463 . S
C2421 C2426 1.350 . S
C2421 N2429 1.427 . S
C2422 H2413 0.930 . S
C2422 C2420 1.378 . S
C2422 C2423 1.367 . S
C2423 C2422 1.367 . S
C2423 C2425 1.433 . S
C2424 C2420 1.350 . S
C2424 C2421 1.463 . S
C2424 N2428 1.427 . S
C2425 H2415 0.929 . S
C2425 C2423 1.433 . S
C2425 N2428 1.384 . S
C2426 H2417 0.929 . S
C2426 C2418 1.378 . S
C2426 C2421 1.350 . S
C2427 H2414 0.929 . S
C2427 C2419 1.433 . S
C2427 N2429 1.384 . S
N2428 C2424 1.427 . S
N2428 C2425 1.384 . S
N2429 C2421 1.427 . S
N2429 C2427 1.384 . S
H2430 C2436 0.930 . S
H2431 C2440 0.930 . S
H2432 C2445 0.929 . S
H2433 C2443 0.929 . S
H2434 C2438 0.929 . S
H2435 C2444 0.929 . S
C2436 H2430 0.930 . S
C2436 C2437 1.367 . S
C2436 C2444 1.378 . S
C2437 C2436 1.367 . S
C2437 C2445 1.433 . S
C2438 H2434 0.929 . S
C2438 C2440 1.378 . S
C2438 C2442 1.350 . S
C2439 C2442 1.463 . S
C2439 C2444 1.350 . S
C2439 N2447 1.427 . S
C2440 H2431 0.930 . S
C2440 C2438 1.378 . S
C2440 C2441 1.367 . S
C2441 C2440 1.367 . S
C2441 C2443 1.433 . S
C2442 C2438 1.350 . S
C2442 C2439 1.463 . S
C2442 N2446 1.427 . S
C2443 H2433 0.929 . S
C2443 C2441 1.433 . S
C2443 N2446 1.384 . S
C2444 H2435 0.929 . S
C2444 C2436 1.378 . S
C2444 C2439 1.350 . S
C2445 H2432 0.929 . S
C2445 C2437 1.433 . S
C2445 N2447 1.384 . S
N2446 C2442 1.427 . S
N2446 C2443 1.384 . S
N2447 C2439 1.427 . S
N2447 C2445 1.384 . S
H2448 C2454 0.930 . S
H2449 C2458 0.930 . S
H2450 C2463 0.929 . S
H2451 C2461 0.929 . S
H2452 C2456 0.929 . S
H2453 C2462 0.929 . S
C2454 H2448 0.930 . S
C2454 C2455 1.367 . S
C2454 C2462 1.378 . S
C2455 C2454 1.367 . S
C2455 C2463 1.433 . S
C2456 H2452 0.929 . S
C2456 C2458 1.378 . S
C2456 C2460 1.350 . S
C2457 C2460 1.463 . S
C2457 C2462 1.350 . S
C2457 N2465 1.427 . S
C2458 H2449 0.930 . S
C2458 C2456 1.378 . S
C2458 C2459 1.367 . S
C2459 C2458 1.367 . S
C2459 C2461 1.433 . S
C2460 C2456 1.350 . S
C2460 C2457 1.463 . S
C2460 N2464 1.427 . S
C2461 H2451 0.929 . S
C2461 C2459 1.433 . S
C2461 N2464 1.384 . S
C2462 H2453 0.929 . S
C2462 C2454 1.378 . S
C2462 C2457 1.350 . S
C2463 H2450 0.929 . S
C2463 C2455 1.433 . S
C2463 N2465 1.384 . S
N2464 C2460 1.427 . S
N2464 C2461 1.384 . S
N2465 C2457 1.427 . S
N2465 C2463 1.384 . S
H2466 C2472 0.930 . S
H2467 C2476 0.930 . S
H2468 C2481 0.929 . S
H2469 C2479 0.929 . S
H2470 C2474 0.929 . S
H2471 C2480 0.929 . S
C2472 H2466 0.930 . S
C2472 C2473 1.367 . S
C2472 C2480 1.378 . S
C2473 C2472 1.367 . S
C2473 C2481 1.433 . S
C2474 H2470 0.929 . S
C2474 C2476 1.378 . S
C2474 C2478 1.350 . S
C2475 C2478 1.463 . S
C2475 C2480 1.350 . S
C2475 N2483 1.427 . S
C2476 H2467 0.930 . S
C2476 C2474 1.378 . S
C2476 C2477 1.367 . S
C2477 C2476 1.367 . S
C2477 C2479 1.433 . S
C2478 C2474 1.350 . S
C2478 C2475 1.463 . S
C2478 N2482 1.427 . S
C2479 H2469 0.929 . S
C2479 C2477 1.433 . S
C2479 N2482 1.384 . S
C2480 H2471 0.929 . S
C2480 C2472 1.378 . S
C2480 C2475 1.350 . S
C2481 H2468 0.929 . S
C2481 C2473 1.433 . S
C2481 N2483 1.384 . S
N2482 C2478 1.427 . S
N2482 C2479 1.384 . S
N2483 C2475 1.427 . S
N2483 C2481 1.384 . S
H2484 C2490 0.930 . S
H2485 C2494 0.930 . S
H2486 C2499 0.929 . S
H2487 C2497 0.929 . S
H2488 C2492 0.929 . S
H2489 C2498 0.929 . S
C2490 H2484 0.930 . S
C2490 C2491 1.367 . S
C2490 C2498 1.378 . S
C2491 C2490 1.367 . S
C2491 C2499 1.433 . S
C2492 H2488 0.929 . S
C2492 C2494 1.378 . S
C2492 C2496 1.350 . S
C2493 C2496 1.463 1_545 S
C2493 C2498 1.350 . S
C2493 N2501 1.427 . S
C2494 H2485 0.930 . S
C2494 C2492 1.378 . S
C2494 C2495 1.367 . S
C2495 C2494 1.367 . S
C2495 C2497 1.433 . S
C2496 C2492 1.350 . S
C2496 C2493 1.463 1_565 S
C2496 N2500 1.427 . S
C2497 H2487 0.929 . S
C2497 C2495 1.433 . S
C2497 N2500 1.384 . S
C2498 H2489 0.929 . S
C2498 C2490 1.378 . S
C2498 C2493 1.350 . S
C2499 H2486 0.929 . S
C2499 C2491 1.433 . S
C2499 N2501 1.384 . S
N2500 C2496 1.427 . S
N2500 C2497 1.384 . S
N2501 C2493 1.427 . S
N2501 C2499 1.384 . S
H2502 C2508 0.930 . S
H2503 C2512 0.930 . S
H2504 C2517 0.929 . S
H2505 C2515 0.929 . S
H2506 C2510 0.929 . S
H2507 C2516 0.929 . S
C2508 H2502 0.930 . S
C2508 C2509 1.367 . S
C2508 C2516 1.378 . S
C2509 C2508 1.367 . S
C2509 C2517 1.433 . S
C2510 H2506 0.929 . S
C2510 C2512 1.378 . S
C2510 C2514 1.350 . S
C2511 C2514 1.463 1_655 S
C2511 C2516 1.350 . S
C2511 N2519 1.427 . S
C2512 H2503 0.930 . S
C2512 C2510 1.378 . S
C2512 C2513 1.367 . S
C2513 C2512 1.367 . S
C2513 C2515 1.433 . S
C2514 C2510 1.350 . S
C2514 C2511 1.463 1_455 S
C2514 N2518 1.427 . S
C2515 H2505 0.929 . S
C2515 C2513 1.433 . S
C2515 N2518 1.384 . S
C2516 H2507 0.929 . S
C2516 C2508 1.378 . S
C2516 C2511 1.350 . S
C2517 H2504 0.929 . S
C2517 C2509 1.433 . S
C2517 N2519 1.384 . S
N2518 C2514 1.427 . S
N2518 C2515 1.384 . S
N2519 C2511 1.427 . S
N2519 C2517 1.384 . S
H2520 C2526 0.930 . S
H2521 C2530 0.930 . S
H2522 C2535 0.929 . S
H2523 C2533 0.929 . S
H2524 C2528 0.929 . S
H2525 C2534 0.929 . S
C2526 H2520 0.930 . S
C2526 C2527 1.367 . S
C2526 C2534 1.378 . S
C2527 C2526 1.367 . S
C2527 C2535 1.433 . S
C2528 H2524 0.929 . S
C2528 C2530 1.378 . S
C2528 C2532 1.350 . S
C2529 C2532 1.463 . S
C2529 C2534 1.350 . S
C2529 N2537 1.427 . S
C2530 H2521 0.930 . S
C2530 C2528 1.378 . S
C2530 C2531 1.367 . S
C2531 C2530 1.367 . S
C2531 C2533 1.433 . S
C2532 C2528 1.350 . S
C2532 C2529 1.463 . S
C2532 N2536 1.427 . S
C2533 H2523 0.929 . S
C2533 C2531 1.433 . S
C2533 N2536 1.384 . S
C2534 H2525 0.929 . S
C2534 C2526 1.378 . S
C2534 C2529 1.350 . S
C2535 H2522 0.929 . S
C2535 C2527 1.433 . S
C2535 N2537 1.384 . S
N2536 C2532 1.427 . S
N2536 C2533 1.384 . S
N2537 C2529 1.427 . S
N2537 C2535 1.384 . S
H2538 C2544 0.930 . S
H2539 C2548 0.930 . S
H2540 C2553 0.929 . S
H2541 C2551 0.929 . S
H2542 C2546 0.929 . S
H2543 C2552 0.929 . S
C2544 H2538 0.930 . S
C2544 C2545 1.367 . S
C2544 C2552 1.378 . S
C2545 C2544 1.367 . S
C2545 C2553 1.433 . S
C2546 H2542 0.929 . S
C2546 C2548 1.378 . S
C2546 C2550 1.350 . S
C2547 C2550 1.463 . S
C2547 C2552 1.350 . S
C2547 N2555 1.427 . S
C2548 H2539 0.930 . S
C2548 C2546 1.378 . S
C2548 C2549 1.367 . S
C2549 C2548 1.367 . S
C2549 C2551 1.433 . S
C2550 C2546 1.350 . S
C2550 C2547 1.463 . S
C2550 N2554 1.427 . S
C2551 H2541 0.929 . S
C2551 C2549 1.433 . S
C2551 N2554 1.384 . S
C2552 H2543 0.929 . S
C2552 C2544 1.378 . S
C2552 C2547 1.350 . S
C2553 H2540 0.929 . S
C2553 C2545 1.433 . S
C2553 N2555 1.384 . S
N2554 C2550 1.427 . S
N2554 C2551 1.384 . S
N2555 C2547 1.427 . S
N2555 C2553 1.384 . S
H2556 C2562 0.930 . S
H2557 C2566 0.930 . S
H2558 C2571 0.929 . S
H2559 C2569 0.929 . S
H2560 C2564 0.929 . S
H2561 C2570 0.929 . S
C2562 H2556 0.930 . S
C2562 C2563 1.367 . S
C2562 C2570 1.378 . S
C2563 C2562 1.367 . S
C2563 C2571 1.433 . S
C2564 H2560 0.929 . S
C2564 C2566 1.378 . S
C2564 C2568 1.350 . S
C2565 C2568 1.463 . S
C2565 C2570 1.350 . S
C2565 N2573 1.427 . S
C2566 H2557 0.930 . S
C2566 C2564 1.378 . S
C2566 C2567 1.367 . S
C2567 C2566 1.367 . S
C2567 C2569 1.433 . S
C2568 C2564 1.350 . S
C2568 C2565 1.463 . S
C2568 N2572 1.427 . S
C2569 H2559 0.929 . S
C2569 C2567 1.433 . S
C2569 N2572 1.384 . S
C2570 H2561 0.929 . S
C2570 C2562 1.378 . S
C2570 C2565 1.350 . S
C2571 H2558 0.929 . S
C2571 C2563 1.433 . S
C2571 N2573 1.384 . S
N2572 C2568 1.427 . S
N2572 C2569 1.384 . S
N2573 C2565 1.427 . S
N2573 C2571 1.384 . S
H2574 C2580 0.930 . S
H2575 C2584 0.930 . S
H2576 C2589 0.929 . S
H2577 C2587 0.929 . S
H2578 C2582 0.929 . S
H2579 C2588 0.929 . S
C2580 H2574 0.930 . S
C2580 C2581 1.367 . S
C2580 C2588 1.378 . S
C2581 C2580 1.367 . S
C2581 C2589 1.433 . S
C2582 H2578 0.929 . S
C2582 C2584 1.378 . S
C2582 C2586 1.350 . S
C2583 C2586 1.463 . S
C2583 C2588 1.350 . S
C2583 N2591 1.427 . S
C2584 H2575 0.930 . S
C2584 C2582 1.378 . S
C2584 C2585 1.367 . S
C2585 C2584 1.367 . S
C2585 C2587 1.433 . S
C2586 C2582 1.350 . S
C2586 C2583 1.463 . S
C2586 N2590 1.427 . S
C2587 H2577 0.929 . S
C2587 C2585 1.433 . S
C2587 N2590 1.384 . S
C2588 H2579 0.929 . S
C2588 C2580 1.378 . S
C2588 C2583 1.350 . S
C2589 H2576 0.929 . S
C2589 C2581 1.433 . S
C2589 N2591 1.384 . S
N2590 C2586 1.427 . S
N2590 C2587 1.384 . S
N2591 C2583 1.427 . S
N2591 C2589 1.384 . S
H2592 C2598 0.930 . S
H2593 C2602 0.930 . S
H2594 C2607 0.929 . S
H2595 C2605 0.929 . S
H2596 C2600 0.929 . S
H2597 C2606 0.929 . S
C2598 H2592 0.930 . S
C2598 C2599 1.367 . S
C2598 C2606 1.378 . S
C2599 C2598 1.367 . S
C2599 C2607 1.433 . S
C2600 H2596 0.929 . S
C2600 C2602 1.378 . S
C2600 C2604 1.350 . S
C2601 C2604 1.463 1_545 S
C2601 C2606 1.350 . S
C2601 N2609 1.427 . S
C2602 H2593 0.930 . S
C2602 C2600 1.378 . S
C2602 C2603 1.367 . S
C2603 C2602 1.367 . S
C2603 C2605 1.433 . S
C2604 C2600 1.350 . S
C2604 C2601 1.463 1_565 S
C2604 N2608 1.427 . S
C2605 H2595 0.929 . S
C2605 C2603 1.433 . S
C2605 N2608 1.384 . S
C2606 H2597 0.929 . S
C2606 C2598 1.378 . S
C2606 C2601 1.350 . S
C2607 H2594 0.929 . S
C2607 C2599 1.433 . S
C2607 N2609 1.384 . S
N2608 C2604 1.427 . S
N2608 C2605 1.384 . S
N2609 C2601 1.427 . S
N2609 C2607 1.384 . S
H2610 C2616 0.930 . S
H2611 C2620 0.930 . S
H2612 C2625 0.929 . S
H2613 C2623 0.929 . S
H2614 C2618 0.929 1_455 S
H2615 C2624 0.929 . S
C2616 H2610 0.930 . S
C2616 C2617 1.367 . S
C2616 C2624 1.378 . S
C2617 C2616 1.367 . S
C2617 C2625 1.433 . S
C2618 H2614 0.929 1_655 S
C2618 C2620 1.378 . S
C2618 C2622 1.350 . S
C2619 C2622 1.463 1_455 S
C2619 C2624 1.350 . S
C2619 N2627 1.427 . S
C2620 H2611 0.930 . S
C2620 C2618 1.378 . S
C2620 C2621 1.367 . S
C2621 C2620 1.367 . S
C2621 C2623 1.433 . S
C2622 C2618 1.350 . S
C2622 C2619 1.463 1_655 S
C2622 N2626 1.427 . S
C2623 H2613 0.929 . S
C2623 C2621 1.433 . S
C2623 N2626 1.384 . S
C2624 H2615 0.929 . S
C2624 C2616 1.378 . S
C2624 C2619 1.350 . S
C2625 H2612 0.929 . S
C2625 C2617 1.433 . S
C2625 N2627 1.384 . S
N2626 C2622 1.427 . S
N2626 C2623 1.384 . S
N2627 C2619 1.427 . S
N2627 C2625 1.384 . S
H2628 C2634 0.930 . S
H2629 C2638 0.930 . S
H2630 C2643 0.929 . S
H2631 C2641 0.929 . S
H2632 C2636 0.929 . S
H2633 C2642 0.929 . S
C2634 H2628 0.930 . S
C2634 C2635 1.367 . S
C2634 C2642 1.378 . S
C2635 C2634 1.367 . S
C2635 C2643 1.433 . S
C2636 H2632 0.929 . S
C2636 C2638 1.378 . S
C2636 C2640 1.350 . S
C2637 C2640 1.463 . S
C2637 C2642 1.350 . S
C2637 N2645 1.427 . S
C2638 H2629 0.930 . S
C2638 C2636 1.378 . S
C2638 C2639 1.367 . S
C2639 C2638 1.367 . S
C2639 C2641 1.433 . S
C2640 C2636 1.350 . S
C2640 C2637 1.463 . S
C2640 N2644 1.427 . S
C2641 H2631 0.929 . S
C2641 C2639 1.433 . S
C2641 N2644 1.384 . S
C2642 H2633 0.929 . S
C2642 C2634 1.378 . S
C2642 C2637 1.350 . S
C2643 H2630 0.929 . S
C2643 C2635 1.433 . S
C2643 N2645 1.384 . S
N2644 C2640 1.427 . S
N2644 C2641 1.384 . S
N2645 C2637 1.427 . S
N2645 C2643 1.384 . S
H2646 C2652 0.930 . S
H2647 C2656 0.930 . S
H2648 C2661 0.929 . S
H2649 C2659 0.929 . S
H2650 C2654 0.929 . S
H2651 C2660 0.929 . S
C2652 H2646 0.930 . S
C2652 C2653 1.367 . S
C2652 C2660 1.378 . S
C2653 C2652 1.367 . S
C2653 C2661 1.433 . S
C2654 H2650 0.929 . S
C2654 C2656 1.378 . S
C2654 C2658 1.350 . S
C2655 C2658 1.463 1_545 S
C2655 C2660 1.350 . S
C2655 N2663 1.427 . S
C2656 H2647 0.930 . S
C2656 C2654 1.378 . S
C2656 C2657 1.367 . S
C2657 C2656 1.367 . S
C2657 C2659 1.433 . S
C2658 C2654 1.350 . S
C2658 C2655 1.463 1_565 S
C2658 N2662 1.427 . S
C2659 H2649 0.929 . S
C2659 C2657 1.433 . S
C2659 N2662 1.384 . S
C2660 H2651 0.929 . S
C2660 C2652 1.378 . S
C2660 C2655 1.350 . S
C2661 H2648 0.929 . S
C2661 C2653 1.433 . S
C2661 N2663 1.384 . S
N2662 C2658 1.427 . S
N2662 C2659 1.384 . S
N2663 C2655 1.427 . S
N2663 C2661 1.384 . S
H2664 C2670 0.930 . S
H2665 C2674 0.930 . S
H2666 C2679 0.929 . S
H2667 C2677 0.929 . S
H2668 C2672 0.929 . S
H2669 C2678 0.929 . S
C2670 H2664 0.930 . S
C2670 C2671 1.367 . S
C2670 C2678 1.378 . S
C2671 C2670 1.367 . S
C2671 C2679 1.433 . S
C2672 H2668 0.929 . S
C2672 C2674 1.378 . S
C2672 C2676 1.350 . S
C2673 C2676 1.463 1_455 S
C2673 C2678 1.350 . S
C2673 N2681 1.427 . S
C2674 H2665 0.930 . S
C2674 C2672 1.378 . S
C2674 C2675 1.367 . S
C2675 C2674 1.367 . S
C2675 C2677 1.433 . S
C2676 C2672 1.350 . S
C2676 C2673 1.463 1_655 S
C2676 N2680 1.427 . S
C2677 H2667 0.929 . S
C2677 C2675 1.433 . S
C2677 N2680 1.384 . S
C2678 H2669 0.929 . S
C2678 C2670 1.378 . S
C2678 C2673 1.350 . S
C2679 H2666 0.929 . S
C2679 C2671 1.433 . S
C2679 N2681 1.384 . S
N2680 C2676 1.427 . S
N2680 C2677 1.384 . S
N2681 C2673 1.427 . S
N2681 C2679 1.384 . S
H2682 C2688 0.930 . S
H2683 C2692 0.930 . S
H2684 C2697 0.929 . S
H2685 C2695 0.929 . S
H2686 C2690 0.929 . S
H2687 C2696 0.929 . S
C2688 H2682 0.930 . S
C2688 C2689 1.367 . S
C2688 C2696 1.378 . S
C2689 C2688 1.367 . S
C2689 C2697 1.433 . S
C2690 H2686 0.929 . S
C2690 C2692 1.378 . S
C2690 C2694 1.350 . S
C2691 C2694 1.463 . S
C2691 C2696 1.350 . S
C2691 N2699 1.427 . S
C2692 H2683 0.930 . S
C2692 C2690 1.378 . S
C2692 C2693 1.367 . S
C2693 C2692 1.367 . S
C2693 C2695 1.433 . S
C2694 C2690 1.350 . S
C2694 C2691 1.463 . S
C2694 N2698 1.427 . S
C2695 H2685 0.929 . S
C2695 C2693 1.433 . S
C2695 N2698 1.384 . S
C2696 H2687 0.929 . S
C2696 C2688 1.378 . S
C2696 C2691 1.350 . S
C2697 H2684 0.929 . S
C2697 C2689 1.433 . S
C2697 N2699 1.384 . S
N2698 C2694 1.427 . S
N2698 C2695 1.384 . S
N2699 C2691 1.427 . S
N2699 C2697 1.384 . S
H2700 C2706 0.930 . S
H2701 C2710 0.930 . S
H2702 C2715 0.929 . S
H2703 C2713 0.929 . S
H2704 C2708 0.929 . S
H2705 C2714 0.929 . S
C2706 H2700 0.930 . S
C2706 C2707 1.367 . S
C2706 C2714 1.378 . S
C2707 C2706 1.367 . S
C2707 C2715 1.433 . S
C2708 H2704 0.929 . S
C2708 C2710 1.378 . S
C2708 C2712 1.350 . S
C2709 C2712 1.463 . S
C2709 C2714 1.350 . S
C2709 N2717 1.427 . S
C2710 H2701 0.930 . S
C2710 C2708 1.378 . S
C2710 C2711 1.367 . S
C2711 C2710 1.367 . S
C2711 C2713 1.433 . S
C2712 C2708 1.350 . S
C2712 C2709 1.463 . S
C2712 N2716 1.427 . S
C2713 H2703 0.929 . S
C2713 C2711 1.433 . S
C2713 N2716 1.384 . S
C2714 H2705 0.929 . S
C2714 C2706 1.378 . S
C2714 C2709 1.350 . S
C2715 H2702 0.929 . S
C2715 C2707 1.433 . S
C2715 N2717 1.384 . S
N2716 C2712 1.427 . S
N2716 C2713 1.384 . S
N2717 C2709 1.427 . S
N2717 C2715 1.384 . S
H2718 C2724 0.930 . S
H2719 C2728 0.930 . S
H2720 C2733 0.929 . S
H2721 C2731 0.929 . S
H2722 C2726 0.929 . S
H2723 C2732 0.929 . S
C2724 H2718 0.930 . S
C2724 C2725 1.367 . S
C2724 C2732 1.378 . S
C2725 C2724 1.367 . S
C2725 C2733 1.433 . S
C2726 H2722 0.929 . S
C2726 C2728 1.378 . S
C2726 C2730 1.350 . S
C2727 C2730 1.463 . S
C2727 C2732 1.350 . S
C2727 N2735 1.427 . S
C2728 H2719 0.930 . S
C2728 C2726 1.378 . S
C2728 C2729 1.367 . S
C2729 C2728 1.367 . S
C2729 C2731 1.433 . S
C2730 C2726 1.350 . S
C2730 C2727 1.463 . S
C2730 N2734 1.427 . S
C2731 H2721 0.929 . S
C2731 C2729 1.433 . S
C2731 N2734 1.384 . S
C2732 H2723 0.929 . S
C2732 C2724 1.378 . S
C2732 C2727 1.350 . S
C2733 H2720 0.929 . S
C2733 C2725 1.433 . S
C2733 N2735 1.384 . S
N2734 C2730 1.427 . S
N2734 C2731 1.384 . S
N2735 C2727 1.427 . S
N2735 C2733 1.384 . S
H2736 C2742 0.930 . S
H2737 C2746 0.930 . S
H2738 C2751 0.929 . S
H2739 C2749 0.929 . S
H2740 C2744 0.929 . S
H2741 C2750 0.929 . S
C2742 H2736 0.930 . S
C2742 C2743 1.367 . S
C2742 C2750 1.378 . S
C2743 C2742 1.367 . S
C2743 C2751 1.433 . S
C2744 H2740 0.929 . S
C2744 C2746 1.378 . S
C2744 C2748 1.350 . S
C2745 C2748 1.463 . S
C2745 C2750 1.350 . S
C2745 N2753 1.427 . S
C2746 H2737 0.930 . S
C2746 C2744 1.378 . S
C2746 C2747 1.367 . S
C2747 C2746 1.367 . S
C2747 C2749 1.433 . S
C2748 C2744 1.350 . S
C2748 C2745 1.463 . S
C2748 N2752 1.427 . S
C2749 H2739 0.929 . S
C2749 C2747 1.433 . S
C2749 N2752 1.384 . S
C2750 H2741 0.929 . S
C2750 C2742 1.378 . S
C2750 C2745 1.350 . S
C2751 H2738 0.929 . S
C2751 C2743 1.433 . S
C2751 N2753 1.384 . S
N2752 C2748 1.427 . S
N2752 C2749 1.384 . S
N2753 C2745 1.427 . S
N2753 C2751 1.384 . S
H2754 C2760 0.930 . S
H2755 C2764 0.930 . S
H2756 C2769 0.929 . S
H2757 C2767 0.929 . S
H2758 C2762 0.929 . S
H2759 C2768 0.929 . S
C2760 H2754 0.930 . S
C2760 C2761 1.367 . S
C2760 C2768 1.378 . S
C2761 C2760 1.367 . S
C2761 C2769 1.433 . S
C2762 H2758 0.929 . S
C2762 C2764 1.378 . S
C2762 C2766 1.350 . S
C2763 C2766 1.463 . S
C2763 C2768 1.350 . S
C2763 N2771 1.427 . S
C2764 H2755 0.930 . S
C2764 C2762 1.378 . S
C2764 C2765 1.367 . S
C2765 C2764 1.367 . S
C2765 C2767 1.433 . S
C2766 C2762 1.350 . S
C2766 C2763 1.463 . S
C2766 N2770 1.427 . S
C2767 H2757 0.929 . S
C2767 C2765 1.433 . S
C2767 N2770 1.384 . S
C2768 H2759 0.929 . S
C2768 C2760 1.378 . S
C2768 C2763 1.350 . S
C2769 H2756 0.929 . S
C2769 C2761 1.433 . S
C2769 N2771 1.384 . S
N2770 C2766 1.427 . S
N2770 C2767 1.384 . S
N2771 C2763 1.427 . S
N2771 C2769 1.384 . S
H2772 C2778 0.930 . S
H2773 C2782 0.930 . S
H2774 C2787 0.929 . S
H2775 C2785 0.929 . S
H2776 C2780 0.929 . S
H2777 C2786 0.929 . S
C2778 H2772 0.930 . S
C2778 C2779 1.367 . S
C2778 C2786 1.378 . S
C2779 C2778 1.367 . S
C2779 C2787 1.433 . S
C2780 H2776 0.929 . S
C2780 C2782 1.378 . S
C2780 C2784 1.350 . S
C2781 C2784 1.463 . S
C2781 C2786 1.350 . S
C2781 N2789 1.427 . S
C2782 H2773 0.930 . S
C2782 C2780 1.378 . S
C2782 C2783 1.367 . S
C2783 C2782 1.367 . S
C2783 C2785 1.433 . S
C2784 C2780 1.350 . S
C2784 C2781 1.463 . S
C2784 N2788 1.427 . S
C2785 H2775 0.929 . S
C2785 C2783 1.433 . S
C2785 N2788 1.384 . S
C2786 H2777 0.929 . S
C2786 C2778 1.378 . S
C2786 C2781 1.350 . S
C2787 H2774 0.929 . S
C2787 C2779 1.433 . S
C2787 N2789 1.384 . S
N2788 C2784 1.427 . S
N2788 C2785 1.384 . S
N2789 C2781 1.427 . S
N2789 C2787 1.384 . S
H2790 C2796 0.930 . S
H2791 C2800 0.930 . S
H2792 C2805 0.929 . S
H2793 C2803 0.929 . S
H2794 C2798 0.929 . S
H2795 C2804 0.929 . S
C2796 H2790 0.930 . S
C2796 C2797 1.367 . S
C2796 C2804 1.378 . S
C2797 C2796 1.367 . S
C2797 C2805 1.433 . S
C2798 H2794 0.929 . S
C2798 C2800 1.378 . S
C2798 C2802 1.350 . S
C2799 C2802 1.463 . S
C2799 C2804 1.350 . S
C2799 N2807 1.427 . S
C2800 H2791 0.930 . S
C2800 C2798 1.378 . S
C2800 C2801 1.367 . S
C2801 C2800 1.367 . S
C2801 C2803 1.433 . S
C2802 C2798 1.350 . S
C2802 C2799 1.463 . S
C2802 N2806 1.427 . S
C2803 H2793 0.929 . S
C2803 C2801 1.433 . S
C2803 N2806 1.384 . S
C2804 H2795 0.929 . S
C2804 C2796 1.378 . S
C2804 C2799 1.350 . S
C2805 H2792 0.929 . S
C2805 C2797 1.433 . S
C2805 N2807 1.384 . S
N2806 C2802 1.427 . S
N2806 C2803 1.384 . S
N2807 C2799 1.427 . S
N2807 C2805 1.384 . S
H2808 C2814 0.930 . S
H2809 C2818 0.930 . S
H2810 C2823 0.929 . S
H2811 C2821 0.929 . S
H2812 C2816 0.929 . S
H2813 C2822 0.929 . S
C2814 H2808 0.930 . S
C2814 C2815 1.367 . S
C2814 C2822 1.378 . S
C2815 C2814 1.367 . S
C2815 C2823 1.433 . S
C2816 H2812 0.929 . S
C2816 C2818 1.378 . S
C2816 C2820 1.350 . S
C2817 C2820 1.463 . S
C2817 C2822 1.350 . S
C2817 N2825 1.427 . S
C2818 H2809 0.930 . S
C2818 C2816 1.378 . S
C2818 C2819 1.367 . S
C2819 C2818 1.367 . S
C2819 C2821 1.433 . S
C2820 C2816 1.350 . S
C2820 C2817 1.463 . S
C2820 N2824 1.427 . S
C2821 H2811 0.929 . S
C2821 C2819 1.433 . S
C2821 N2824 1.384 . S
C2822 H2813 0.929 . S
C2822 C2814 1.378 . S
C2822 C2817 1.350 . S
C2823 H2810 0.929 . S
C2823 C2815 1.433 . S
C2823 N2825 1.384 . S
N2824 C2820 1.427 . S
N2824 C2821 1.384 . S
N2825 C2817 1.427 . S
N2825 C2823 1.384 . S
H2826 C2832 0.930 . S
H2827 C2836 0.930 . S
H2828 C2841 0.929 . S
H2829 C2839 0.929 . S
H2830 C2834 0.929 . S
H2831 C2840 0.929 . S
C2832 H2826 0.930 . S
C2832 C2833 1.367 . S
C2832 C2840 1.378 . S
C2833 C2832 1.367 . S
C2833 C2841 1.433 . S
C2834 H2830 0.929 . S
C2834 C2836 1.378 . S
C2834 C2838 1.350 . S
C2835 C2838 1.463 . S
C2835 C2840 1.350 . S
C2835 N2843 1.427 . S
C2836 H2827 0.930 . S
C2836 C2834 1.378 . S
C2836 C2837 1.367 . S
C2837 C2836 1.367 . S
C2837 C2839 1.433 . S
C2838 C2834 1.350 . S
C2838 C2835 1.463 . S
C2838 N2842 1.427 . S
C2839 H2829 0.929 . S
C2839 C2837 1.433 . S
C2839 N2842 1.384 . S
C2840 H2831 0.929 . S
C2840 C2832 1.378 . S
C2840 C2835 1.350 . S
C2841 H2828 0.929 . S
C2841 C2833 1.433 . S
C2841 N2843 1.384 . S
N2842 C2838 1.427 . S
N2842 C2839 1.384 . S
N2843 C2835 1.427 . S
N2843 C2841 1.384 . S
H2844 C2850 0.930 . S
H2845 C2854 0.930 . S
H2846 C2859 0.929 . S
H2847 C2857 0.929 . S
H2848 C2852 0.929 . S
H2849 C2858 0.929 . S
C2850 H2844 0.930 . S
C2850 C2851 1.367 . S
C2850 C2858 1.378 . S
C2851 C2850 1.367 . S
C2851 C2859 1.433 . S
C2852 H2848 0.929 . S
C2852 C2854 1.378 . S
C2852 C2856 1.350 . S
C2853 C2856 1.463 . S
C2853 C2858 1.350 . S
C2853 N2861 1.427 . S
C2854 H2845 0.930 . S
C2854 C2852 1.378 . S
C2854 C2855 1.367 . S
C2855 C2854 1.367 . S
C2855 C2857 1.433 . S
C2856 C2852 1.350 . S
C2856 C2853 1.463 . S
C2856 N2860 1.427 . S
C2857 H2847 0.929 . S
C2857 C2855 1.433 . S
C2857 N2860 1.384 . S
C2858 H2849 0.929 . S
C2858 C2850 1.378 . S
C2858 C2853 1.350 . S
C2859 H2846 0.929 . S
C2859 C2851 1.433 . S
C2859 N2861 1.384 . S
N2860 C2856 1.427 . S
N2860 C2857 1.384 . S
N2861 C2853 1.427 . S
N2861 C2859 1.384 . S
H2862 C2868 0.930 . S
H2863 C2872 0.930 . S
H2864 C2877 0.929 . S
H2865 C2875 0.929 . S
H2866 C2870 0.929 . S
H2867 C2876 0.929 . S
C2868 H2862 0.930 . S
C2868 C2869 1.367 . S
C2868 C2876 1.378 . S
C2869 C2868 1.367 . S
C2869 C2877 1.433 . S
C2870 H2866 0.929 . S
C2870 C2872 1.378 . S
C2870 C2874 1.350 . S
C2871 C2874 1.463 . S
C2871 C2876 1.350 . S
C2871 N2879 1.427 . S
C2872 H2863 0.930 . S
C2872 C2870 1.378 . S
C2872 C2873 1.367 . S
C2873 C2872 1.367 . S
C2873 C2875 1.433 . S
C2874 C2870 1.350 . S
C2874 C2871 1.463 . S
C2874 N2878 1.427 . S
C2875 H2865 0.929 . S
C2875 C2873 1.433 . S
C2875 N2878 1.384 . S
C2876 H2867 0.929 . S
C2876 C2868 1.378 . S
C2876 C2871 1.350 . S
C2877 H2864 0.929 . S
C2877 C2869 1.433 . S
C2877 N2879 1.384 . S
N2878 C2874 1.427 . S
N2878 C2875 1.384 . S
N2879 C2871 1.427 . S
N2879 C2877 1.384 . S
H2880 C2886 0.930 . S
H2881 C2890 0.930 . S
H2882 C2895 0.929 . S
H2883 C2893 0.929 . S
H2884 C2888 0.929 . S
H2885 C2894 0.929 . S
C2886 H2880 0.930 . S
C2886 C2887 1.367 . S
C2886 C2894 1.378 . S
C2887 C2886 1.367 . S
C2887 C2895 1.433 . S
C2888 H2884 0.929 . S
C2888 C2890 1.378 . S
C2888 C2892 1.350 . S
C2889 C2892 1.463 . S
C2889 C2894 1.350 . S
C2889 N2897 1.427 . S
C2890 H2881 0.930 . S
C2890 C2888 1.378 . S
C2890 C2891 1.367 . S
C2891 C2890 1.367 . S
C2891 C2893 1.433 . S
C2892 C2888 1.350 . S
C2892 C2889 1.463 . S
C2892 N2896 1.427 . S
C2893 H2883 0.929 . S
C2893 C2891 1.433 . S
C2893 N2896 1.384 . S
C2894 H2885 0.929 . S
C2894 C2886 1.378 . S
C2894 C2889 1.350 . S
C2895 H2882 0.929 . S
C2895 C2887 1.433 . S
C2895 N2897 1.384 . S
N2896 C2892 1.427 . S
N2896 C2893 1.384 . S
N2897 C2889 1.427 . S
N2897 C2895 1.384 . S
H2898 C2904 0.930 . S
H2899 C2908 0.930 . S
H2900 C2913 0.929 . S
H2901 C2911 0.929 . S
H2902 C2906 0.929 . S
H2903 C2912 0.929 . S
C2904 H2898 0.930 . S
C2904 C2905 1.367 . S
C2904 C2912 1.378 . S
C2905 C2904 1.367 . S
C2905 C2913 1.433 . S
C2906 H2902 0.929 . S
C2906 C2908 1.378 . S
C2906 C2910 1.350 . S
C2907 C2910 1.463 . S
C2907 C2912 1.350 . S
C2907 N2915 1.427 . S
C2908 H2899 0.930 . S
C2908 C2906 1.378 . S
C2908 C2909 1.367 . S
C2909 C2908 1.367 . S
C2909 C2911 1.433 . S
C2910 C2906 1.350 . S
C2910 C2907 1.463 . S
C2910 N2914 1.427 . S
C2911 H2901 0.929 . S
C2911 C2909 1.433 . S
C2911 N2914 1.384 . S
C2912 H2903 0.929 . S
C2912 C2904 1.378 . S
C2912 C2907 1.350 . S
C2913 H2900 0.929 . S
C2913 C2905 1.433 . S
C2913 N2915 1.384 . S
N2914 C2910 1.427 . S
N2914 C2911 1.384 . S
N2915 C2907 1.427 . S
N2915 C2913 1.384 . S
H2916 C2922 0.930 . S
H2917 C2926 0.930 . S
H2918 C2931 0.929 . S
H2919 C2929 0.929 . S
H2920 C2924 0.929 . S
H2921 C2930 0.929 . S
C2922 H2916 0.930 . S
C2922 C2923 1.367 . S
C2922 C2930 1.378 . S
C2923 C2922 1.367 . S
C2923 C2931 1.433 . S
C2924 H2920 0.929 . S
C2924 C2926 1.378 . S
C2924 C2928 1.350 . S
C2925 C2928 1.463 . S
C2925 C2930 1.350 . S
C2925 N2933 1.427 . S
C2926 H2917 0.930 . S
C2926 C2924 1.378 . S
C2926 C2927 1.367 . S
C2927 C2926 1.367 . S
C2927 C2929 1.433 . S
C2928 C2924 1.350 . S
C2928 C2925 1.463 . S
C2928 N2932 1.427 . S
C2929 H2919 0.929 . S
C2929 C2927 1.433 . S
C2929 N2932 1.384 . S
C2930 H2921 0.929 . S
C2930 C2922 1.378 . S
C2930 C2925 1.350 . S
C2931 H2918 0.929 . S
C2931 C2923 1.433 . S
C2931 N2933 1.384 . S
N2932 C2928 1.427 . S
N2932 C2929 1.384 . S
N2933 C2925 1.427 . S
N2933 C2931 1.384 . S
H2934 C2940 0.930 . S
H2935 C2944 0.930 . S
H2936 C2949 0.929 . S
H2937 C2947 0.929 . S
H2938 C2942 0.929 . S
H2939 C2948 0.929 . S
C2940 H2934 0.930 . S
C2940 C2941 1.367 . S
C2940 C2948 1.378 . S
C2941 C2940 1.367 . S
C2941 C2949 1.433 . S
C2942 H2938 0.929 . S
C2942 C2944 1.378 . S
C2942 C2946 1.350 . S
C2943 C2946 1.463 . S
C2943 C2948 1.350 . S
C2943 N2951 1.427 . S
C2944 H2935 0.930 . S
C2944 C2942 1.378 . S
C2944 C2945 1.367 . S
C2945 C2944 1.367 . S
C2945 C2947 1.433 . S
C2946 C2942 1.350 . S
C2946 C2943 1.463 . S
C2946 N2950 1.427 . S
C2947 H2937 0.929 . S
C2947 C2945 1.433 . S
C2947 N2950 1.384 . S
C2948 H2939 0.929 . S
C2948 C2940 1.378 . S
C2948 C2943 1.350 . S
C2949 H2936 0.929 . S
C2949 C2941 1.433 . S
C2949 N2951 1.384 . S
N2950 C2946 1.427 . S
N2950 C2947 1.384 . S
N2951 C2943 1.427 . S
N2951 C2949 1.384 . S
H2952 C2958 0.930 . S
H2953 C2962 0.930 . S
H2954 C2967 0.929 . S
H2955 C2965 0.929 . S
H2956 C2960 0.929 . S
H2957 C2966 0.929 . S
C2958 H2952 0.930 . S
C2958 C2959 1.367 . S
C2958 C2966 1.378 . S
C2959 C2958 1.367 . S
C2959 C2967 1.433 . S
C2960 H2956 0.929 . S
C2960 C2962 1.378 . S
C2960 C2964 1.350 . S
C2961 C2964 1.463 . S
C2961 C2966 1.350 . S
C2961 N2969 1.427 . S
C2962 H2953 0.930 . S
C2962 C2960 1.378 . S
C2962 C2963 1.367 . S
C2963 C2962 1.367 . S
C2963 C2965 1.433 . S
C2964 C2960 1.350 . S
C2964 C2961 1.463 . S
C2964 N2968 1.427 . S
C2965 H2955 0.929 . S
C2965 C2963 1.433 . S
C2965 N2968 1.384 . S
C2966 H2957 0.929 . S
C2966 C2958 1.378 . S
C2966 C2961 1.350 . S
C2967 H2954 0.929 . S
C2967 C2959 1.433 . S
C2967 N2969 1.384 . S
N2968 C2964 1.427 . S
N2968 C2965 1.384 . S
N2969 C2961 1.427 . S
N2969 C2967 1.384 . S
H2970 C2976 0.930 . S
H2971 C2980 0.930 . S
H2972 C2985 0.929 . S
H2973 C2983 0.929 . S
H2974 C2978 0.929 . S
H2975 C2984 0.929 . S
C2976 H2970 0.930 . S
C2976 C2977 1.367 . S
C2976 C2984 1.378 . S
C2977 C2976 1.367 . S
C2977 C2985 1.433 . S
C2978 H2974 0.929 . S
C2978 C2980 1.378 . S
C2978 C2982 1.350 . S
C2979 C2982 1.463 . S
C2979 C2984 1.350 . S
C2979 N2987 1.427 . S
C2980 H2971 0.930 . S
C2980 C2978 1.378 . S
C2980 C2981 1.367 . S
C2981 C2980 1.367 . S
C2981 C2983 1.433 . S
C2982 C2978 1.350 . S
C2982 C2979 1.463 . S
C2982 N2986 1.427 . S
C2983 H2973 0.929 . S
C2983 C2981 1.433 . S
C2983 N2986 1.384 . S
C2984 H2975 0.929 . S
C2984 C2976 1.378 . S
C2984 C2979 1.350 . S
C2985 H2972 0.929 . S
C2985 C2977 1.433 . S
C2985 N2987 1.384 . S
N2986 C2982 1.427 . S
N2986 C2983 1.384 . S
N2987 C2979 1.427 . S
N2987 C2985 1.384 . S
H2988 C2994 0.930 . S
H2989 C2998 0.930 . S
H2990 C3003 0.929 . S
H2991 C3001 0.929 . S
H2992 C2996 0.929 . S
H2993 C3002 0.929 . S
C2994 H2988 0.930 . S
C2994 C2995 1.367 . S
C2994 C3002 1.378 . S
C2995 C2994 1.367 . S
C2995 C3003 1.433 . S
C2996 H2992 0.929 . S
C2996 C2998 1.378 . S
C2996 C3000 1.350 . S
C2997 C3000 1.463 . S
C2997 C3002 1.350 . S
C2997 N3005 1.427 . S
C2998 H2989 0.930 . S
C2998 C2996 1.378 . S
C2998 C2999 1.367 . S
C2999 C2998 1.367 . S
C2999 C3001 1.433 . S
C3000 C2996 1.350 . S
C3000 C2997 1.463 . S
C3000 N3004 1.427 . S
C3001 H2991 0.929 . S
C3001 C2999 1.433 . S
C3001 N3004 1.384 . S
C3002 H2993 0.929 . S
C3002 C2994 1.378 . S
C3002 C2997 1.350 . S
C3003 H2990 0.929 . S
C3003 C2995 1.433 . S
C3003 N3005 1.384 . S
N3004 C3000 1.427 . S
N3004 C3001 1.384 . S
N3005 C2997 1.427 . S
N3005 C3003 1.384 . S
H3006 C3012 0.930 . S
H3007 C3016 0.930 . S
H3008 C3021 0.929 . S
H3009 C3019 0.929 . S
H3010 C3014 0.929 . S
H3011 C3020 0.929 . S
C3012 H3006 0.930 . S
C3012 C3013 1.367 . S
C3012 C3020 1.378 . S
C3013 C3012 1.367 . S
C3013 C3021 1.433 . S
C3014 H3010 0.929 . S
C3014 C3016 1.378 . S
C3014 C3018 1.350 . S
C3015 C3018 1.463 . S
C3015 C3020 1.350 . S
C3015 N3023 1.427 . S
C3016 H3007 0.930 . S
C3016 C3014 1.378 . S
C3016 C3017 1.367 . S
C3017 C3016 1.367 . S
C3017 C3019 1.433 . S
C3018 C3014 1.350 . S
C3018 C3015 1.463 . S
C3018 N3022 1.427 . S
C3019 H3009 0.929 . S
C3019 C3017 1.433 . S
C3019 N3022 1.384 . S
C3020 H3011 0.929 . S
C3020 C3012 1.378 . S
C3020 C3015 1.350 . S
C3021 H3008 0.929 . S
C3021 C3013 1.433 . S
C3021 N3023 1.384 . S
N3022 C3018 1.427 . S
N3022 C3019 1.384 . S
N3023 C3015 1.427 . S
N3023 C3021 1.384 . S
H3024 C3030 0.930 . S
H3025 C3034 0.930 . S
H3026 C3039 0.929 . S
H3027 C3037 0.929 . S
H3028 C3032 0.929 . S
H3029 C3038 0.929 . S
C3030 H3024 0.930 . S
C3030 C3031 1.367 . S
C3030 C3038 1.378 1_565 S
C3031 C3030 1.367 . S
C3031 C3039 1.433 . S
C3032 H3028 0.929 . S
C3032 C3034 1.378 . S
C3032 C3036 1.350 . S
C3033 C3036 1.463 . S
C3033 C3038 1.350 . S
C3033 N3041 1.427 1_545 S
C3034 H3025 0.930 . S
C3034 C3032 1.378 . S
C3034 C3035 1.367 . S
C3035 C3034 1.367 . S
C3035 C3037 1.433 . S
C3036 C3032 1.350 . S
C3036 C3033 1.463 . S
C3036 N3040 1.427 . S
C3037 H3027 0.929 . S
C3037 C3035 1.433 . S
C3037 N3040 1.384 . S
C3038 H3029 0.929 . S
C3038 C3030 1.378 1_545 S
C3038 C3033 1.350 . S
C3039 H3026 0.929 . S
C3039 C3031 1.433 . S
C3039 N3041 1.384 . S
N3040 C3036 1.427 . S
N3040 C3037 1.384 . S
N3041 C3033 1.427 1_565 S
N3041 C3039 1.384 . S
H3042 C3048 0.930 . S
H3043 C3052 0.930 . S
H3044 C3057 0.929 . S
H3045 C3055 0.929 . S
H3046 C3050 0.929 1_455 S
H3047 C3056 0.929 1_655 S
C3048 H3042 0.930 . S
C3048 C3049 1.367 . S
C3048 C3056 1.378 . S
C3049 C3048 1.367 . S
C3049 C3057 1.433 . S
C3050 H3046 0.929 1_655 S
C3050 C3052 1.378 . S
C3050 C3054 1.350 . S
C3051 C3054 1.463 1_455 S
C3051 C3056 1.350 . S
C3051 N3059 1.427 . S
C3052 H3043 0.930 . S
C3052 C3050 1.378 . S
C3052 C3053 1.367 . S
C3053 C3052 1.367 . S
C3053 C3055 1.433 . S
C3054 C3050 1.350 . S
C3054 C3051 1.463 1_655 S
C3054 N3058 1.427 . S
C3055 H3045 0.929 . S
C3055 C3053 1.433 . S
C3055 N3058 1.384 . S
C3056 H3047 0.929 1_455 S
C3056 C3048 1.378 . S
C3056 C3051 1.350 . S
C3057 H3044 0.929 . S
C3057 C3049 1.433 . S
C3057 N3059 1.384 . S
N3058 C3054 1.427 . S
N3058 C3055 1.384 . S
N3059 C3051 1.427 . S
N3059 C3057 1.384 . S
H3060 C3066 0.930 . S
H3061 C3070 0.930 . S
H3062 C3075 0.929 . S
H3063 C3073 0.929 . S
H3064 C3068 0.929 . S
H3065 C3074 0.929 . S
C3066 H3060 0.930 . S
C3066 C3067 1.367 . S
C3066 C3074 1.378 . S
C3067 C3066 1.367 . S
C3067 C3075 1.433 . S
C3068 H3064 0.929 . S
C3068 C3070 1.378 . S
C3068 C3072 1.350 . S
C3069 C3072 1.463 . S
C3069 C3074 1.350 . S
C3069 N3077 1.427 . S
C3070 H3061 0.930 . S
C3070 C3068 1.378 . S
C3070 C3071 1.367 . S
C3071 C3070 1.367 . S
C3071 C3073 1.433 . S
C3072 C3068 1.350 . S
C3072 C3069 1.463 . S
C3072 N3076 1.427 . S
C3073 H3063 0.929 . S
C3073 C3071 1.433 . S
C3073 N3076 1.384 . S
C3074 H3065 0.929 . S
C3074 C3066 1.378 . S
C3074 C3069 1.350 . S
C3075 H3062 0.929 . S
C3075 C3067 1.433 . S
C3075 N3077 1.384 . S
N3076 C3072 1.427 . S
N3076 C3073 1.384 . S
N3077 C3069 1.427 . S
N3077 C3075 1.384 . S
H3078 C3084 0.930 . S
H3079 C3088 0.930 . S
H3080 C3093 0.929 . S
H3081 C3091 0.947 . S
H3082 C3086 0.929 . S
H3083 C3092 0.929 . S
C3084 H3078 0.930 . S
C3084 C3085 1.367 . S
C3084 C3092 1.378 . S
C3085 C3084 1.367 . S
C3085 C3093 1.433 . S
C3086 H3082 0.929 . S
C3086 C3088 1.378 . S
C3086 C3090 1.350 1_565 S
C3087 C3090 1.463 . S
C3087 C3092 1.350 . S
C3087 N3095 1.427 . S
C3088 H3079 0.930 . S
C3088 C3086 1.378 . S
C3088 C3089 1.367 . S
C3089 C3088 1.367 . S
C3089 C3091 1.408 1_565 S
C3090 C3086 1.350 1_545 S
C3090 C3087 1.463 . S
C3090 N3094 1.427 . S
C3091 H3081 0.947 . S
C3091 C3089 1.408 1_545 S
C3091 N3094 1.391 . S
C3092 H3083 0.929 . S
C3092 C3084 1.378 . S
C3092 C3087 1.350 . S
C3093 H3080 0.929 . S
C3093 C3085 1.433 . S
C3093 N3095 1.384 . S
N3094 C3090 1.427 . S
N3094 C3091 1.391 . S
N3095 C3087 1.427 . S
N3095 C3093 1.384 . S
H3096 C3102 0.930 . S
H3097 C3106 0.930 . S
H3098 C3111 0.929 . S
H3099 C3109 0.929 . S
H3100 C3104 0.929 1_455 S
H3101 C3110 0.929 1_655 S
C3102 H3096 0.930 . S
C3102 C3103 1.367 . S
C3102 C3110 1.378 . S
C3103 C3102 1.367 . S
C3103 C3111 1.433 . S
C3104 H3100 0.929 1_655 S
C3104 C3106 1.378 . S
C3104 C3108 1.350 . S
C3105 C3108 1.463 1_455 S
C3105 C3110 1.350 . S
C3105 N3113 1.427 . S
C3106 H3097 0.930 . S
C3106 C3104 1.378 . S
C3106 C3107 1.367 . S
C3107 C3106 1.367 . S
C3107 C3109 1.433 . S
C3108 C3104 1.350 . S
C3108 C3105 1.463 1_655 S
C3108 N3112 1.427 . S
C3109 H3099 0.929 . S
C3109 C3107 1.433 . S
C3109 N3112 1.384 . S
C3110 H3101 0.929 1_455 S
C3110 C3102 1.378 . S
C3110 C3105 1.350 . S
C3111 H3098 0.929 . S
C3111 C3103 1.433 . S
C3111 N3113 1.384 . S
N3112 C3108 1.427 . S
N3112 C3109 1.384 . S
N3113 C3105 1.427 . S
N3113 C3111 1.384 . S
H3114 C3120 0.930 . S
H3115 C3124 0.930 . S
H3116 C3129 0.929 . S
H3117 C3127 0.929 . S
H3118 C3122 0.929 . S
H3119 C3128 0.929 . S
C3120 H3114 0.930 . S
C3120 C3121 1.367 . S
C3120 C3128 1.378 . S
C3121 C3120 1.367 . S
C3121 C3129 1.433 . S
C3122 H3118 0.929 . S
C3122 C3124 1.378 . S
C3122 C3126 1.350 . S
C3123 C3126 1.463 . S
C3123 C3128 1.350 . S
C3123 N3131 1.427 . S
C3124 H3115 0.930 . S
C3124 C3122 1.378 . S
C3124 C3125 1.367 . S
C3125 C3124 1.367 . S
C3125 C3127 1.433 . S
C3126 C3122 1.350 . S
C3126 C3123 1.463 . S
C3126 N3130 1.427 . S
C3127 H3117 0.929 . S
C3127 C3125 1.433 . S
C3127 N3130 1.384 . S
C3128 H3119 0.929 . S
C3128 C3120 1.378 . S
C3128 C3123 1.350 . S
C3129 H3116 0.929 . S
C3129 C3121 1.433 . S
C3129 N3131 1.384 . S
N3130 C3126 1.427 . S
N3130 C3127 1.384 . S
N3131 C3123 1.427 . S
N3131 C3129 1.384 . S
H3132 C3138 0.930 . S
H3133 C3142 0.930 . S
H3134 C3147 0.929 . S
H3135 C3145 0.929 . S
H3136 C3140 0.929 . S
H3137 C3146 0.929 . S
C3138 H3132 0.930 . S
C3138 C3139 1.367 . S
C3138 C3146 1.378 . S
C3139 C3138 1.367 . S
C3139 C3147 1.433 . S
C3140 H3136 0.929 . S
C3140 C3142 1.378 . S
C3140 C3144 1.350 . S
C3141 C3144 1.463 . S
C3141 C3146 1.350 . S
C3141 N3149 1.427 . S
C3142 H3133 0.930 . S
C3142 C3140 1.378 . S
C3142 C3143 1.367 . S
C3143 C3142 1.367 . S
C3143 C3145 1.433 . S
C3144 C3140 1.350 . S
C3144 C3141 1.463 . S
C3144 N3148 1.427 . S
C3145 H3135 0.929 . S
C3145 C3143 1.433 . S
C3145 N3148 1.384 . S
C3146 H3137 0.929 . S
C3146 C3138 1.378 . S
C3146 C3141 1.350 . S
C3147 H3134 0.929 . S
C3147 C3139 1.433 . S
C3147 N3149 1.384 . S
N3148 C3144 1.427 . S
N3148 C3145 1.384 . S
N3149 C3141 1.427 . S
N3149 C3147 1.384 . S
H3150 C3156 0.930 . S
H3151 C3160 0.930 . S
H3152 C3165 0.929 . S
H3153 C3163 0.929 . S
H3154 C3158 0.929 . S
H3155 C3164 0.929 . S
C3156 H3150 0.930 . S
C3156 C3157 1.367 . S
C3156 C3164 1.378 . S
C3157 C3156 1.367 . S
C3157 C3165 1.433 . S
C3158 H3154 0.929 . S
C3158 C3160 1.378 . S
C3158 C3162 1.350 . S
C3159 C3162 1.463 . S
C3159 C3164 1.350 . S
C3159 N3167 1.427 . S
C3160 H3151 0.930 . S
C3160 C3158 1.378 . S
C3160 C3161 1.367 . S
C3161 C3160 1.367 . S
C3161 C3163 1.433 . S
C3162 C3158 1.350 . S
C3162 C3159 1.463 . S
C3162 N3166 1.427 . S
C3163 H3153 0.929 . S
C3163 C3161 1.433 . S
C3163 N3166 1.384 . S
C3164 H3155 0.929 . S
C3164 C3156 1.378 . S
C3164 C3159 1.350 . S
C3165 H3152 0.929 . S
C3165 C3157 1.433 . S
C3165 N3167 1.384 . S
N3166 C3162 1.427 . S
N3166 C3163 1.384 . S
N3167 C3159 1.427 . S
N3167 C3165 1.384 . S
H3168 C3174 0.930 . S
H3169 C3178 0.930 . S
H3170 C3183 0.929 . S
H3171 C3181 0.929 . S
H3172 C3176 0.929 . S
H3173 C3182 0.929 . S
C3174 H3168 0.930 . S
C3174 C3175 1.367 . S
C3174 C3182 1.378 . S
C3175 C3174 1.367 . S
C3175 C3183 1.433 . S
C3176 H3172 0.929 . S
C3176 C3178 1.378 . S
C3176 C3180 1.350 . S
C3177 C3180 1.463 . S
C3177 C3182 1.350 . S
C3177 N3185 1.427 . S
C3178 H3169 0.930 . S
C3178 C3176 1.378 . S
C3178 C3179 1.367 . S
C3179 C3178 1.367 . S
C3179 C3181 1.433 . S
C3180 C3176 1.350 . S
C3180 C3177 1.463 . S
C3180 N3184 1.427 . S
C3181 H3171 0.929 . S
C3181 C3179 1.433 . S
C3181 N3184 1.384 . S
C3182 H3173 0.929 . S
C3182 C3174 1.378 . S
C3182 C3177 1.350 . S
C3183 H3170 0.929 . S
C3183 C3175 1.433 . S
C3183 N3185 1.384 . S
N3184 C3180 1.427 . S
N3184 C3181 1.384 . S
N3185 C3177 1.427 . S
N3185 C3183 1.384 . S
H3186 C3192 0.930 . S
H3187 C3196 0.930 . S
H3188 C3201 0.929 . S
H3189 C3199 0.929 . S
H3190 C3194 0.929 1_565 S
H3191 C3200 0.929 1_545 S
C3192 H3186 0.930 . S
C3192 C3193 1.367 . S
C3192 C3200 1.378 . S
C3193 C3192 1.367 . S
C3193 C3201 1.433 . S
C3194 H3190 0.929 1_545 S
C3194 C3196 1.378 . S
C3194 C3198 1.350 . S
C3195 C3198 1.463 1_565 S
C3195 C3200 1.350 . S
C3195 N3203 1.427 . S
C3196 H3187 0.930 . S
C3196 C3194 1.378 . S
C3196 C3197 1.367 . S
C3197 C3196 1.367 . S
C3197 C3199 1.433 . S
C3198 C3194 1.350 . S
C3198 C3195 1.463 1_545 S
C3198 N3202 1.427 . S
C3199 H3189 0.929 . S
C3199 C3197 1.433 . S
C3199 N3202 1.384 . S
C3200 H3191 0.929 1_565 S
C3200 C3192 1.378 . S
C3200 C3195 1.350 . S
C3201 H3188 0.929 . S
C3201 C3193 1.433 . S
C3201 N3203 1.384 . S
N3202 C3198 1.427 . S
N3202 C3199 1.384 . S
N3203 C3195 1.427 . S
N3203 C3201 1.384 . S
H3204 C3210 0.930 . S
H3205 C3214 0.930 . S
H3206 C3219 0.929 . S
H3207 C3217 0.929 . S
H3208 C3212 0.929 . S
H3209 C3218 0.929 . S
C3210 H3204 0.930 . S
C3210 C3211 1.367 . S
C3210 C3218 1.378 . S
C3211 C3210 1.367 . S
C3211 C3219 1.433 . S
C3212 H3208 0.929 . S
C3212 C3214 1.378 1_455 S
C3212 C3216 1.350 . S
C3213 C3216 1.463 . S
C3213 C3218 1.350 . S
C3213 N3221 1.427 . S
C3214 H3205 0.930 . S
C3214 C3212 1.378 1_655 S
C3214 C3215 1.367 . S
C3215 C3214 1.367 . S
C3215 C3217 1.433 . S
C3216 C3212 1.350 . S
C3216 C3213 1.463 . S
C3216 N3220 1.427 1_455 S
C3217 H3207 0.929 . S
C3217 C3215 1.433 . S
C3217 N3220 1.384 . S
C3218 H3209 0.929 . S
C3218 C3210 1.378 . S
C3218 C3213 1.350 . S
C3219 H3206 0.929 . S
C3219 C3211 1.433 . S
C3219 N3221 1.384 . S
N3220 C3216 1.427 1_655 S
N3220 C3217 1.384 . S
N3221 C3213 1.427 . S
N3221 C3219 1.384 . S
H3222 C3228 0.930 . S
H3223 C3232 0.930 . S
H3224 C3237 0.929 . S
H3225 C3235 0.929 . S
H3226 C3230 0.929 . S
H3227 C3236 0.929 . S
C3228 H3222 0.930 . S
C3228 C3229 1.367 . S
C3228 C3236 1.378 . S
C3229 C3228 1.367 . S
C3229 C3237 1.433 . S
C3230 H3226 0.929 . S
C3230 C3232 1.378 . S
C3230 C3234 1.350 . S
C3231 C3234 1.463 . S
C3231 C3236 1.350 . S
C3231 N3239 1.427 . S
C3232 H3223 0.930 . S
C3232 C3230 1.378 . S
C3232 C3233 1.367 . S
C3233 C3232 1.367 . S
C3233 C3235 1.433 . S
C3234 C3230 1.350 . S
C3234 C3231 1.463 . S
C3234 N3238 1.427 . S
C3235 H3225 0.929 . S
C3235 C3233 1.433 . S
C3235 N3238 1.384 . S
C3236 H3227 0.929 . S
C3236 C3228 1.378 . S
C3236 C3231 1.350 . S
C3237 H3224 0.929 . S
C3237 C3229 1.433 . S
C3237 N3239 1.384 . S
N3238 C3234 1.427 . S
N3238 C3235 1.384 . S
N3239 C3231 1.427 . S
N3239 C3237 1.384 . S
H3240 C3246 0.930 . S
H3241 C3250 0.930 . S
H3242 C3255 0.929 . S
H3243 C3253 0.929 . S
H3244 C3248 0.929 . S
H3245 C3254 0.929 . S
C3246 H3240 0.930 . S
C3246 C3247 1.367 . S
C3246 C3254 1.378 . S
C3247 C3246 1.367 . S
C3247 C3255 1.433 . S
C3248 H3244 0.929 . S
C3248 C3250 1.378 . S
C3248 C3252 1.350 . S
C3249 C3252 1.463 . S
C3249 C3254 1.350 . S
C3249 N3257 1.427 . S
C3250 H3241 0.930 . S
C3250 C3248 1.378 . S
C3250 C3251 1.367 . S
C3251 C3250 1.367 . S
C3251 C3253 1.433 . S
C3252 C3248 1.350 . S
C3252 C3249 1.463 . S
C3252 N3256 1.427 . S
C3253 H3243 0.929 . S
C3253 C3251 1.433 . S
C3253 N3256 1.384 . S
C3254 H3245 0.929 . S
C3254 C3246 1.378 . S
C3254 C3249 1.350 . S
C3255 H3242 0.929 . S
C3255 C3247 1.433 . S
C3255 N3257 1.384 . S
N3256 C3252 1.427 . S
N3256 C3253 1.384 . S
N3257 C3249 1.427 . S
N3257 C3255 1.384 . S
H3258 C3264 0.930 . S
H3259 C3268 0.930 . S
H3260 C3273 0.929 . S
H3261 C3271 0.929 . S
H3262 C3266 0.929 . S
H3263 C3272 0.929 . S
C3264 H3258 0.930 . S
C3264 C3265 1.367 . S
C3264 C3272 1.378 . S
C3265 C3264 1.367 . S
C3265 C3273 1.433 . S
C3266 H3262 0.929 . S
C3266 C3268 1.378 . S
C3266 C3270 1.350 . S
C3267 C3270 1.463 . S
C3267 C3272 1.350 . S
C3267 N3275 1.427 . S
C3268 H3259 0.930 . S
C3268 C3266 1.378 . S
C3268 C3269 1.367 . S
C3269 C3268 1.367 . S
C3269 C3271 1.433 . S
C3270 C3266 1.350 . S
C3270 C3267 1.463 . S
C3270 N3274 1.427 . S
C3271 H3261 0.929 . S
C3271 C3269 1.433 . S
C3271 N3274 1.384 . S
C3272 H3263 0.929 . S
C3272 C3264 1.378 . S
C3272 C3267 1.350 . S
C3273 H3260 0.929 . S
C3273 C3265 1.433 . S
C3273 N3275 1.384 . S
N3274 C3270 1.427 . S
N3274 C3271 1.384 . S
N3275 C3267 1.427 . S
N3275 C3273 1.384 . S
H3276 C3282 0.930 . S
H3277 C3286 0.930 . S
H3278 C3291 0.929 . S
H3279 C3289 0.929 . S
H3280 C3284 0.929 . S
H3281 C3290 0.929 . S
C3282 H3276 0.930 . S
C3282 C3283 1.367 . S
C3282 C3290 1.378 . S
C3283 C3282 1.367 . S
C3283 C3291 1.433 . S
C3284 H3280 0.929 . S
C3284 C3286 1.378 . S
C3284 C3288 1.350 . S
C3285 C3288 1.463 . S
C3285 C3290 1.350 . S
C3285 N3293 1.427 . S
C3286 H3277 0.930 . S
C3286 C3284 1.378 . S
C3286 C3287 1.367 . S
C3287 C3286 1.367 . S
C3287 C3289 1.433 . S
C3288 C3284 1.350 . S
C3288 C3285 1.463 . S
C3288 N3292 1.427 . S
C3289 H3279 0.929 . S
C3289 C3287 1.433 . S
C3289 N3292 1.384 . S
C3290 H3281 0.929 . S
C3290 C3282 1.378 . S
C3290 C3285 1.350 . S
C3291 H3278 0.929 . S
C3291 C3283 1.433 . S
C3291 N3293 1.384 . S
N3292 C3288 1.427 . S
N3292 C3289 1.384 . S
N3293 C3285 1.427 . S
N3293 C3291 1.384 . S
H3294 C3300 0.930 . S
H3295 C3304 0.930 . S
H3296 C3309 0.929 . S
H3297 C3307 0.929 . S
H3298 C3302 0.929 . S
H3299 C3308 0.929 . S
C3300 H3294 0.930 . S
C3300 C3301 1.367 . S
C3300 C3308 1.378 . S
C3301 C3300 1.367 . S
C3301 C3309 1.433 . S
C3302 H3298 0.929 . S
C3302 C3304 1.378 . S
C3302 C3306 1.350 . S
C3303 C3306 1.463 . S
C3303 C3308 1.350 . S
C3303 N3311 1.427 . S
C3304 H3295 0.930 . S
C3304 C3302 1.378 . S
C3304 C3305 1.367 . S
C3305 C3304 1.367 . S
C3305 C3307 1.433 . S
C3306 C3302 1.350 . S
C3306 C3303 1.463 . S
C3306 N3310 1.427 . S
C3307 H3297 0.929 . S
C3307 C3305 1.433 . S
C3307 N3310 1.384 . S
C3308 H3299 0.929 . S
C3308 C3300 1.378 . S
C3308 C3303 1.350 . S
C3309 H3296 0.929 . S
C3309 C3301 1.433 . S
C3309 N3311 1.384 . S
N3310 C3306 1.427 . S
N3310 C3307 1.384 . S
N3311 C3303 1.427 . S
N3311 C3309 1.384 . S
H3312 C3318 0.930 . S
H3313 C3322 0.930 . S
H3314 C3327 0.929 . S
H3315 C3325 0.929 . S
H3316 C3320 0.929 . S
H3317 C3326 0.929 . S
C3318 H3312 0.930 . S
C3318 C3319 1.367 . S
C3318 C3326 1.378 . S
C3319 C3318 1.367 . S
C3319 C3327 1.433 . S
C3320 H3316 0.929 . S
C3320 C3322 1.378 . S
C3320 C3324 1.350 . S
C3321 C3324 1.463 . S
C3321 C3326 1.350 . S
C3321 N3329 1.427 . S
C3322 H3313 0.930 . S
C3322 C3320 1.378 . S
C3322 C3323 1.367 . S
C3323 C3322 1.367 . S
C3323 C3325 1.433 . S
C3324 C3320 1.350 . S
C3324 C3321 1.463 . S
C3324 N3328 1.427 . S
C3325 H3315 0.929 . S
C3325 C3323 1.433 . S
C3325 N3328 1.384 . S
C3326 H3317 0.929 . S
C3326 C3318 1.378 . S
C3326 C3321 1.350 . S
C3327 H3314 0.929 . S
C3327 C3319 1.433 . S
C3327 N3329 1.384 . S
N3328 C3324 1.427 . S
N3328 C3325 1.384 . S
N3329 C3321 1.427 . S
N3329 C3327 1.384 . S
H3330 C3336 0.930 . S
H3331 C3340 0.930 . S
H3332 C3345 0.929 . S
H3333 C3343 0.929 . S
H3334 C3338 0.929 . S
H3335 C3344 0.929 . S
C3336 H3330 0.930 . S
C3336 C3337 1.367 . S
C3336 C3344 1.378 . S
C3337 C3336 1.367 . S
C3337 C3345 1.433 . S
C3338 H3334 0.929 . S
C3338 C3340 1.378 . S
C3338 C3342 1.350 . S
C3339 C3342 1.463 . S
C3339 C3344 1.350 . S
C3339 N3347 1.427 . S
C3340 H3331 0.930 . S
C3340 C3338 1.378 . S
C3340 C3341 1.367 . S
C3341 C3340 1.367 . S
C3341 C3343 1.433 . S
C3342 C3338 1.350 . S
C3342 C3339 1.463 . S
C3342 N3346 1.427 . S
C3343 H3333 0.929 . S
C3343 C3341 1.433 . S
C3343 N3346 1.384 . S
C3344 H3335 0.929 . S
C3344 C3336 1.378 . S
C3344 C3339 1.350 . S
C3345 H3332 0.929 . S
C3345 C3337 1.433 . S
C3345 N3347 1.384 . S
N3346 C3342 1.427 . S
N3346 C3343 1.384 . S
N3347 C3339 1.427 . S
N3347 C3345 1.384 . S
H3348 C3354 0.930 . S
H3349 C3358 0.930 . S
H3350 C3363 0.929 . S
H3351 C3361 0.929 . S
H3352 C3356 0.929 . S
H3353 C3362 0.929 . S
C3354 H3348 0.930 . S
C3354 C3355 1.367 . S
C3354 C3362 1.378 . S
C3355 C3354 1.367 . S
C3355 C3363 1.433 . S
C3356 H3352 0.929 . S
C3356 C3358 1.378 . S
C3356 C3360 1.350 . S
C3357 C3360 1.463 1_545 S
C3357 C3362 1.350 . S
C3357 N3365 1.427 . S
C3358 H3349 0.930 . S
C3358 C3356 1.378 . S
C3358 C3359 1.367 . S
C3359 C3358 1.367 . S
C3359 C3361 1.433 . S
C3360 C3356 1.350 . S
C3360 C3357 1.463 1_565 S
C3360 N3364 1.427 . S
C3361 H3351 0.929 . S
C3361 C3359 1.433 . S
C3361 N3364 1.384 . S
C3362 H3353 0.929 . S
C3362 C3354 1.378 . S
C3362 C3357 1.350 . S
C3363 H3350 0.929 . S
C3363 C3355 1.433 . S
C3363 N3365 1.384 . S
N3364 C3360 1.427 . S
N3364 C3361 1.384 . S
N3365 C3357 1.427 . S
N3365 C3363 1.384 . S
H3366 C3372 0.930 . S
H3367 C3376 0.930 . S
H3368 C3381 0.929 . S
H3369 C3379 0.929 . S
H3370 C3374 0.929 . S
H3371 C3380 0.929 . S
C3372 H3366 0.930 . S
C3372 C3373 1.367 . S
C3372 C3380 1.378 1_655 S
C3373 C3372 1.367 . S
C3373 C3381 1.433 . S
C3374 H3370 0.929 . S
C3374 C3376 1.378 . S
C3374 C3378 1.350 . S
C3375 C3378 1.463 . S
C3375 C3380 1.350 . S
C3375 N3383 1.427 1_455 S
C3376 H3367 0.930 . S
C3376 C3374 1.378 . S
C3376 C3377 1.367 . S
C3377 C3376 1.367 . S
C3377 C3379 1.433 . S
C3378 C3374 1.350 . S
C3378 C3375 1.463 . S
C3378 N3382 1.427 . S
C3379 H3369 0.929 . S
C3379 C3377 1.433 . S
C3379 N3382 1.384 . S
C3380 H3371 0.929 . S
C3380 C3372 1.378 1_455 S
C3380 C3375 1.350 . S
C3381 H3368 0.929 . S
C3381 C3373 1.433 . S
C3381 N3383 1.384 . S
N3382 C3378 1.427 . S
N3382 C3379 1.384 . S
N3383 C3375 1.427 1_655 S
N3383 C3381 1.384 . S
C1447 C1098 1.983 . S
C1451 C18 1.979 . S
C1465 C1138 1.977 . S
C1469 C58 1.973 . S
C1483 C98 1.968 . S
C1487 C1178 1.977 . S
C1501 C138 1.978 . S
C1505 C498 1.969 . S
C1519 C178 1.966 . S
C1523 C538 1.973 . S
C1537 C578 1.979 . S
C1541 C218 1.975 . S
C1555 C249 1.994 . S
C1559 C849 1.982 . S
C1573 C889 1.975 . S
C1577 C289 1.983 . S
C1591 C329 1.965 . S
C1595 C929 1.968 . S
C1609 C1209 1.971 . S
C1613 C369 2.001 . S
C1627 C409 1.975 . S
C1631 C1249 1.983 . S
C1645 C1289 1.966 . S
C1649 C449 1.968 . S
C1663 C978 1.980 . S
C1667 C618 1.972 . S
C1681 C658 1.980 . S
C1685 C1018 1.971 . S
C1699 C1058 1.966 . S
C1703 C698 1.969 . S
C1717 C729 1.966 . S
C1721 C1329 1.975 . S
C1735 C769 1.971 . S
C1739 C1369 1.965 . S
C1753 C1409 1.966 . S
C1757 C809 1.968 . S
C1771 C9 1.686 . S
C1775 C258 1.686 . S
C1789 C298 1.685 . S
C1793 C49 1.685 . S
C1807 C89 1.688 . S
C1811 C338 1.688 . S
C1825 C378 1.695 . S
C1829 C129 1.695 . S
C1843 C169 1.687 . S
C1847 C418 1.687 . S
C1861 C458 1.684 . S
C1865 C209 1.684 . S
C1879 C738 1.693 . S
C1883 C489 1.693 . S
C1897 C529 1.684 . S
C1901 C778 1.684 . S
C1915 C818 1.683 . S
C1919 C569 1.683 . S
C1933 C609 1.695 . S
C1937 C858 1.695 . S
C1951 C898 1.693 . S
C1955 C649 1.693 . S
C1969 C689 1.688 . S
C1973 C938 1.688 . S
C1987 C969 1.684 . S
C1991 C1218 1.684 . S
C2005 C1258 1.687 . S
C2009 C1009 1.687 . S
C2023 C1298 1.684 . S
C2027 C1049 1.684 . S
C2041 C1338 1.695 . S
C2045 C1089 1.695 . S
C2059 C1129 1.693 . S
C2063 C1378 1.693 . S
C2077 C1169 1.685 . S
C2081 C1418 1.685 . S
C2095 C19 1.809 . S
C2099 C95 1.815 . S
C2113 C59 1.806 . S
C2117 C15 1.817 . S
C2131 C55 1.815 . S
C2135 C99 1.811 . S
C2149 C139 1.808 . S
C2153 C175 1.819 . S
C2167 C215 1.815 . S
C2171 C179 1.811 . S
C2185 C135 1.815 . S
C2189 C219 1.810 . S
C2203 C326 1.819 . S
C2207 C250 1.807 . S
C2221 C290 1.813 . S
C2225 C246 1.819 . S
C2239 C330 1.810 . S
C2243 C286 1.820 . S
C2257 C406 1.820 . S
C2261 C370 1.810 . S
C2275 C410 1.811 . S
C2279 C446 1.815 . S
C2293 C450 1.811 . S
C2297 C366 1.815 . S
C2311 C575 1.819 . S
C2315 C499 1.812 . S
C2329 C495 1.816 . S
C2333 C539 1.812 . S
C2347 C535 1.820 . S
C2351 C579 1.810 . S
C2365 C655 1.820 . S
C2369 C619 1.811 . S
C2383 C659 1.812 . S
C2387 C695 1.819 . S
C2401 C615 1.820 . S
C2405 C699 1.809 . S
C2419 C730 1.812 . S
C2423 C806 1.818 . S
C2437 C726 1.815 . S
C2441 C770 1.808 . S
C2455 C810 1.807 . S
C2459 C766 1.819 . S
C2473 C886 1.815 . S
C2477 C850 1.807 . S
C2491 C926 1.816 . S
C2495 C890 1.812 . S
C2509 C846 1.820 . S
C2513 C930 1.812 . S
C2527 C1055 1.820 . S
C2531 C979 1.809 . S
C2545 C1019 1.809 . S
C2549 C975 1.820 . S
C2563 C1015 1.819 . S
C2567 C1059 1.807 . S
C2581 C1099 1.812 . S
C2585 C1135 1.816 . S
C2599 C1139 1.813 . S
C2603 C1175 1.817 . S
C2617 C1095 1.819 . S
C2621 C1179 1.808 . S
C2635 C1210 1.810 . S
C2639 C1286 1.815 . S
C2653 C1250 1.811 . S
C2657 C1206 1.820 . S
C2671 C1246 1.819 . S
C2675 C1290 1.812 . S
C2689 C1330 1.806 . S
C2693 C1366 1.818 . S
C2707 C1406 1.820 . S
C2711 C1370 1.809 . S
C2725 C1326 1.816 . S
C2729 C1410 1.806 . S
C2743 C86 1.262 . S
C2747 C10 1.297 . S
C2761 C50 1.299 . S
C2765 C6 1.269 . S
C2779 C46 1.269 . S
C2783 C90 1.299 . S
C2797 C166 1.259 . S
C2801 C130 1.295 . S
C2815 C170 1.294 . S
C2819 C206 1.254 . S
C2833 C210 1.299 . S
C2837 C126 1.268 . S
C2851 C335 1.256 . S
C2855 C259 1.295 . S
C2869 C299 1.295 . S
C2873 C255 1.257 . S
C2887 C295 1.269 . S
C2891 C339 1.299 . S
C2905 C415 1.258 . S
C2909 C379 1.295 . S
C2923 C455 1.254 . S
C2927 C419 1.294 . S
C2941 C375 1.268 . S
C2945 C459 1.299 . S
C2959 C490 1.299 . S
C2963 C566 1.269 . S
C2977 C530 1.298 . S
C2981 C486 1.266 . S
C2995 C570 1.298 . S
C2999 C526 1.267 . S
C3013 C646 1.266 1_655 S
C3017 C610 1.298 . S
C3031 C650 1.299 . S
C3035 C686 1.267 . S
C3049 C690 1.299 . S
C3053 C606 1.270 . S
C3067 C815 1.254 . S
C3071 C739 1.294 . S
C3085 C735 1.253 1_655 S
C3089 C779 1.294 . S
C3103 C819 1.298 . S
C3107 C775 1.266 . S
C3121 C895 1.255 . S
C3125 C859 1.295 . S
C3139 C899 1.297 . S
C3143 C935 1.265 . S
C3157 C939 1.297 . S
C3161 C855 1.262 . S
C3175 C970 1.299 . S
C3179 C1046 1.269 1_565 S
C3193 C966 1.269 . S
C3197 C1010 1.299 . S
C3211 C1006 1.268 . S
C3215 C1050 1.299 . S
C3229 C1126 1.261 . S
C3233 C1090 1.296 . S
C3247 C1130 1.294 . S
C3251 C1166 1.254 . S
C3265 C1170 1.297 . S
C3269 C1086 1.263 . S
C3283 C1295 1.265 . S
C3287 C1219 1.298 . S
C3301 C1215 1.269 . S
C3305 C1259 1.299 . S
C3319 C1299 1.298 . S
C3323 C1255 1.267 . S
C3337 C1375 1.254 . S
C3341 C1339 1.294 . S
C3355 C1379 1.298 . S
C3359 C1415 1.266 . S
C3373 C1419 1.296 . S
C3377 C1335 1.262 1_565 S
