# Generated by pormake.
# Topology can, (4)-cn, num edge types: 1
# Building blocks:
#     Node 0, Type 0, BuildingBlock: ICAMEG_clean_sbu_1, # of connection points: 4
#     Node 1, Type 0, BuildingBlock: ICAMEG_clean_sbu_1, # of connection points: 4
#     Node 2, Type 0, BuildingBlock: ICAMEG_clean_sbu_1, # of connection points: 4
#     Node 3, Type 0, BuildingBlock: ICAMEG_clean_sbu_1, # of connection points: 4
#     Node 4, Type 0, BuildingBlock: ICAMEG_clean_sbu_1, # of connection points: 4
#     Node 5, Type 0, BuildingBlock: ICAMEG_clean_sbu_1, # of connection points: 4
#     Node 6, Type 0, BuildingBlock: ICAMEG_clean_sbu_1, # of connection points: 4
#     Node 7, Type 0, BuildingBlock: ICAMEG_clean_sbu_1, # of connection points: 4
#     Node 8, Type 0, BuildingBlock: ICAMEG_clean_sbu_1, # of connection points: 4
#     Node 9, Type 0, BuildingBlock: ICAMEG_clean_sbu_1, # of connection points: 4
#     Node 10, Type 0, BuildingBlock: ICAMEG_clean_sbu_1, # of connection points: 4
#     Node 11, Type 0, BuildingBlock: ICAMEG_clean_sbu_1, # of connection points: 4
#     Edge 12, Type (0, 0), None
#     Edge 13, Type (0, 0), None
#     Edge 14, Type (0, 0), None
#     Edge 15, Type (0, 0), None
#     Edge 16, Type (0, 0), None
#     Edge 17, Type (0, 0), None
#     Edge 18, Type (0, 0), None
#     Edge 19, Type (0, 0), None
#     Edge 20, Type (0, 0), None
#     Edge 21, Type (0, 0), None
#     Edge 22, Type (0, 0), None
#     Edge 23, Type (0, 0), None
#     Edge 24, Type (0, 0), None
#     Edge 25, Type (0, 0), None
#     Edge 26, Type (0, 0), None
#     Edge 27, Type (0, 0), None
#     Edge 28, Type (0, 0), None
#     Edge 29, Type (0, 0), None
#     Edge 30, Type (0, 0), None
#     Edge 31, Type (0, 0), None
#     Edge 32, Type (0, 0), None
#     Edge 33, Type (0, 0), None
#     Edge 34, Type (0, 0), None
#     Edge 35, Type (0, 0), None
# Relax obj value: 0.073
# Max RMSD: 0.076
# Mean RMSD: 0.076
data_MOF--net-can--node1-ICAMEG_clean_sbu_1--edge1-none
_symmetry_space_group_name_H-M    P1
_symmetry_Int_Tables_number       1
_symmetry_cell_setting            triclinic
loop_
_symmetry_equiv_pos_as_xyz
'x, y, z'
_cell_length_a     28.118437
_cell_length_b     28.118013
_cell_length_c     14.412002
_cell_angle_alpha  90.194071
_cell_angle_beta   89.800828
_cell_angle_gamma 119.88865
loop_
_atom_site_label
_atom_site_type_symbol
_atom_site_fract_x
_atom_site_fract_y
_atom_site_fract_z
_atom_type_partial_charge
Co0 Co 0.97417 0.36628 0.28331 0.0
Co1 Co 0.09839 0.45178 0.18348 0.0
O2 O 0.05406 0.39998 0.27658 0.0
C3 C 0.01463 0.41054 0.46806 0.0
O4 O 0.04 0.45746 0.4245 0.0
C5 C 0.16421 0.39848 0.25361 0.0
O6 O 0.13302 0.38018 0.32738 0.0
O7 O 0.04941 0.40016 0.08411 0.0
O8 O 0.96443 0.36635 0.14058 0.0
H9 H 0.11107 0.56779 0.91284 0.0
H10 H 0.02885 0.31266 0.37887 0.0
O11 O 0.98312 0.36663 0.42343 0.0
H12 H 0.90029 0.17497 0.15713 0.0
H13 H 0.79567 0.22737 0.42605 0.0
H14 H 0.88673 0.39068 0.22529 0.0
H15 H 0.90803 0.26605 0.16867 0.0
H16 H 0.89412 0.27035 0.39168 0.0
O17 O 0.1498 0.41777 0.18329 0.0
H18 H 0.06456 0.49962 0.03499 0.0
H19 H 0.21081 0.49869 0.09562 0.0
H20 H 0.78904 0.35247 0.26986 0.0
H21 H 0.02233 0.22203 0.36968 0.0
H22 H 0.74267 0.2687 0.36278 0.0
H23 H 0.95749 0.15234 0.25843 0.0
O24 O 0.97992 0.44086 0.2903 0.0
H25 H 0.191 0.50934 0.49602 0.0
H26 H 0.18286 0.57254 0.18482 0.0
H27 H 0.26209 0.62987 0.28143 0.0
H28 H 0.26759 0.5996 0.43784 0.0
H29 H 0.11991 0.44928 0.39129 0.0
H30 H 0.26123 0.57515 0.98008 0.0
H31 H 0.21172 0.60905 0.89183 0.0
O32 O 0.05334 0.49105 0.19888 0.0
C33 C -0.0023 0.37713 0.07149 0.0
C34 C 0.13385 0.55397 0.95429 0.0
C35 C 0.21793 0.55649 0.99153 0.0
N36 N 0.13688 0.49947 0.07929 0.0
C37 C 0.10793 0.51569 0.02444 0.0
C38 C 0.1898 0.51512 0.05726 0.0
C39 C 0.18982 0.57618 0.94095 0.0
C40 C 0.00088 0.28278 0.32978 0.0
N41 N 0.96926 0.29494 0.27387 0.0
C42 C -0.00272 0.23145 0.325 0.0
C43 C 0.96093 0.19239 0.26251 0.0
C44 C 0.9289 0.2051 0.20552 0.0
C45 C 0.93379 0.25692 0.21191 0.0
C46 C 0.81522 0.26291 0.38125 0.0
C47 C 0.86673 0.35452 0.26809 0.0
C48 C 0.87082 0.28701 0.36002 0.0
N49 N 0.89562 0.33137 0.30197 0.0
C50 C 0.81161 0.333 0.29191 0.0
C51 C 0.7856 0.28624 0.34654 0.0
C52 C 0.01369 0.48621 0.25113 0.0
C53 C 0.19135 0.52277 0.42577 0.0
C54 C 0.18602 0.55642 0.24984 0.0
C55 C 0.2304 0.5903 0.30596 0.0
C56 C 0.23343 0.57299 0.39405 0.0
N57 N 0.1486 0.50418 0.27597 0.0
C58 C 0.14991 0.48855 0.3652 0.0
Co59 Co 0.61567 0.97376 0.74523 0.0
Co60 Co 0.65143 0.10057 0.66635 0.0
O61 O 0.66437 0.05204 0.74167 0.0
C62 C 0.58519 0.95807 0.94136 0.0
O63 O 0.53588 0.9258 0.90873 0.0
C64 C 0.76484 0.17219 0.74856 0.0
O65 O 0.74519 0.14459 0.82575 0.0
O66 O 0.6528 0.05767 0.5516 0.0
O67 O 0.60496 0.97016 0.60346 0.0
H68 H 0.54913 0.13032 0.41024 0.0
H69 H 0.72493 0.02197 0.83542 0.0
O70 O 0.62611 0.97928 0.88572 0.0
H71 H 0.726 0.89839 0.59276 0.0
H72 H 0.56617 0.7887 0.86845 0.0
H73 H 0.50232 0.89453 0.68819 0.0
H74 H 0.64482 0.90893 0.61564 0.0
H75 H 0.62937 0.88432 0.82825 0.0
O76 O 0.73612 0.15493 0.67187 0.0
H77 H 0.56739 0.07766 0.52422 0.0
H78 H 0.71703 0.21916 0.59412 0.0
H79 H 0.43529 0.8006 0.74106 0.0
H80 H 0.80676 0.01214 0.81546 0.0
H81 H 0.46644 0.7504 0.84101 0.0
H82 H 0.80759 0.94992 0.69349 0.0
O83 O 0.54865 0.98269 0.76561 0.0
H84 H 0.63046 0.10276 0.00587 0.0
H85 H 0.67991 0.21786 0.72817 0.0
H86 H 0.68359 0.25858 0.87856 0.0
H87 H 0.66815 0.20154 0.01996 0.0
H88 H 0.61216 0.06141 0.85567 0.0
H89 H 0.69213 0.27429 0.49012 0.0
H90 H 0.60932 0.23005 0.3987 0.0
O91 O 0.5684 0.05421 0.67631 0.0
C92 C 0.62588 0.00521 0.53635 0.0
C93 C 0.58359 0.15055 0.45584 0.0
C94 C 0.66578 0.23122 0.49905 0.0
N95 N 0.63917 0.14709 0.57981 0.0
C96 C 0.59428 0.12146 0.52266 0.0
C97 C 0.67762 0.20019 0.56083 0.0
C98 C 0.61833 0.2063 0.44716 0.0
C99 C 0.72491 -0.00526 0.7823 0.0
N100 N 0.68005 0.96604 0.72691 0.0
C101 C 0.77142 0.98943 0.77118 0.0
C102 C 0.77191 0.95459 0.70263 0.0
C103 C 0.72618 0.92574 0.64597 0.0
C104 C 0.68046 0.93219 0.65885 0.0
C105 C 0.55149 0.81185 0.83008 0.0
C106 C 0.51621 0.87111 0.72717 0.0
C107 C 0.58763 0.86554 0.80375 0.0
N108 N 0.56951 0.89499 0.75466 0.0
C109 C 0.47821 0.81849 0.75752 0.0
C110 C 0.4958 0.78988 0.81273 0.0
C111 C 0.53566 0.01621 0.7308 0.0
C112 C 0.63976 0.12814 0.94477 0.0
C113 C 0.66651 0.19154 0.78672 0.0
C114 C 0.67097 0.21556 0.87315 0.0
C115 C 0.66116 0.18396 0.95225 0.0
N116 N 0.64628 0.1364 0.77904 0.0
C117 C 0.62939 0.10482 0.85767 0.0
Co118 Co 0.62518 0.59834 0.26198 0.0
Co119 Co 0.54332 0.64969 0.1938 0.0
O120 O 0.6027 0.65371 0.26622 0.0
C121 C 0.59802 0.60503 0.45606 0.0
O122 O 0.55083 0.59623 0.42425 0.0
C123 C 0.61569 0.77419 0.24496 0.0
O124 O 0.6549 0.76792 0.2815 0.0
O125 O 0.58281 0.64603 0.07632 0.0
O126 O 0.61581 0.59076 0.12018 0.0
H127 H 0.4147 0.57512 0.92821 0.0
H128 H 0.69675 0.70448 0.35719 0.0
O129 O 0.63379 0.60518 0.401 0.0
H130 H 0.8107 0.69255 0.10734 0.0
H131 H 0.7482 0.52756 0.36656 0.0
H132 H 0.58185 0.48481 0.18982 0.0
H133 H 0.71489 0.619 0.12859 0.0
H134 H 0.72046 0.59711 0.34652 0.0
O135 O 0.57889 0.73562 0.19279 0.0
H136 H 0.48812 0.58513 0.02961 0.0
H137 H 0.46997 0.70042 0.19513 0.0
H138 H 0.60649 0.41248 0.21814 0.0
H139 H 0.79255 0.77887 0.33866 0.0
H140 H 0.68794 0.43318 0.30903 0.0
H141 H 0.85024 0.77309 0.21316 0.0
O142 O 0.54767 0.53611 0.28243 0.0
H143 H 0.53954 0.71805 0.50995 0.0
H144 H 0.42725 0.5926 0.26178 0.0
H145 H 0.38145 0.60611 0.39675 0.0
H146 H 0.43788 0.66571 0.5268 0.0
H147 H 0.58166 0.70482 0.37687 0.0
H148 H 0.38672 0.67953 0.10546 0.0
H149 H 0.36876 0.62973 0.95688 0.0
O150 O 0.4992 0.56552 0.20332 0.0
C151 C 0.60392 0.61547 0.05659 0.0
C152 C 0.42883 0.60539 0.98274 0.0
C153 C 0.41318 0.66412 0.08313 0.0
N154 N 0.48517 0.64508 0.11648 0.0
C155 C 0.46974 0.61033 0.04222 0.0
C156 C 0.45844 0.67327 0.13591 0.0
C157 C 0.40196 0.63458 1.00103 0.0
C158 C 0.72149 0.70181 0.3021 0.0
N159 N 0.70004 0.65761 0.24368 0.0
C160 C 0.77573 0.74404 0.29198 0.0
C161 C 0.80808 0.7408 0.22151 0.0
C162 C 0.78588 0.6957 0.16196 0.0
C163 C 0.73142 0.65437 0.1739 0.0
C164 C 0.71124 0.51773 0.32864 0.0
C165 C 0.61841 0.49436 0.22845 0.0
C166 C 0.69599 0.5573 0.31482 0.0
N167 N 0.64999 0.54538 0.26512 0.0
C168 C 0.6317 0.45333 0.24421 0.0
C169 C 0.67771 0.46491 0.29582 0.0
C170 C 0.50211 0.52844 0.2509 0.0
C171 C 0.51372 0.6902 0.45724 0.0
C172 C 0.45154 0.62043 0.3161 0.0
C173 C 0.42559 0.62689 0.39329 0.0
C174 C 0.45723 0.66083 0.46561 0.0
N175 N 0.50701 0.65147 0.30681 0.0
C176 C 0.53784 0.68448 0.37793 0.0
Co177 Co 0.00996 0.63362 0.78632 0.0
Co178 Co 0.88131 0.54955 0.69971 0.0
O179 O 0.93165 0.6066 0.78049 0.0
C180 C 0.96529 0.59163 0.96972 0.0
O181 O 0.93494 0.54669 0.92279 0.0
C182 C 0.8259 0.61924 0.74999 0.0
O183 O 0.86995 0.65767 0.79105 0.0
O184 O 0.92876 0.59348 0.5888 0.0
O185 O 0.01562 0.63124 0.64354 0.0
H186 H 0.83706 0.4335 0.41433 0.0
H187 H 0.96526 0.69536 0.88824 0.0
O188 O 0.00244 0.63404 0.92752 0.0
H189 H 0.09432 0.82516 0.65777 0.0
H190 H 0.1956 0.76648 0.91242 0.0
H191 H 0.09169 0.6061 0.70822 0.0
H192 H 0.07843 0.73085 0.66726 0.0
H193 H 0.09552 0.72446 0.8964 0.0
O194 O 0.82951 0.58367 0.69671 0.0
H195 H 0.89738 0.50105 0.52956 0.0
H196 H 0.75832 0.47475 0.68705 0.0
H197 H 0.19161 0.64401 0.73189 0.0
H198 H 0.98026 0.78944 0.88149 0.0
H199 H 0.24374 0.72552 0.8284 0.0
H200 H 0.04532 0.85515 0.76577 0.0
O201 O 0.00014 0.55702 0.79467 0.0
H202 H 0.79414 0.5309 0.00908 0.0
H203 H 0.82386 0.43225 0.7549 0.0
H204 H 0.76266 0.3802 0.88448 0.0
H205 H 0.75213 0.4307 0.01784 0.0
H206 H 0.85403 0.58034 0.88305 0.0
H207 H 0.69934 0.39714 0.58347 0.0
H208 H 0.73646 0.38595 0.43503 0.0
O209 O 0.92359 0.50725 0.7115 0.0
C210 C 0.98132 0.61789 0.57539 0.0
C211 C 0.81958 0.44451 0.47151 0.0
C212 C 0.74188 0.42428 0.56664 0.0
N213 N 0.83162 0.49353 0.61394 0.0
C214 C 0.85349 0.48194 0.53826 0.0
C215 C 0.77612 0.46614 0.62732 0.0
C216 C 0.76309 0.4169 0.48431 0.0
C217 C -0.00655 0.72355 0.83741 0.0
N218 N 0.0205 0.7073 0.77769 0.0
C219 C 0.00179 0.77682 0.83391 0.0
C220 C 0.03823 0.81365 0.7689 0.0
C221 C 0.06563 0.79681 0.70813 0.0
C222 C 0.05609 0.74316 0.71336 0.0
C223 C 0.17315 0.73143 0.86726 0.0
C224 C 0.11439 0.64121 0.75291 0.0
C225 C 0.11655 0.70758 0.85739 0.0
N226 N 0.08814 0.66385 0.7991 0.0
C227 C 0.17067 0.6627 0.76453 0.0
C228 C 0.20015 0.70851 0.82042 0.0
C229 C 0.96426 0.51133 0.75913 0.0
C230 C 0.80137 0.50874 0.95569 0.0
C231 C 0.81739 0.45367 0.81105 0.0
C232 C 0.78428 0.42431 0.88535 0.0
C233 C 0.77789 0.45248 0.95953 0.0
N234 N 0.8394 0.50905 0.80699 0.0
C235 C 0.83296 0.53652 0.8799 0.0
Co236 Co 0.37813 0.01145 0.25036 0.0
Co237 Co 0.33859 0.88504 0.16692 0.0
O238 O 0.32946 0.9335 0.24836 0.0
C239 C 0.41078 0.02611 0.44368 0.0
O240 O 0.45964 0.0556 0.40812 0.0
C241 C 0.22579 0.8182 0.2561 0.0
O242 O 0.24949 0.84277 0.33388 0.0
O243 O 0.33529 0.92806 0.05651 0.0
O244 O 0.38738 0.01493 0.10752 0.0
H245 H 0.43424 0.85729 0.89621 0.0
H246 H 0.26976 0.96365 0.34508 0.0
O247 O 0.36898 0.00596 0.3906 0.0
H248 H 0.26658 0.08694 0.10562 0.0
H249 H 0.42462 0.19846 0.36767 0.0
H250 H 0.49373 0.09104 0.20418 0.0
H251 H 0.34776 0.07609 0.12408 0.0
H252 H 0.36417 0.10036 0.3374 0.0
O253 O 0.25331 0.8339 0.1778 0.0
H254 H 0.42147 0.90787 0.02085 0.0
H255 H 0.26654 0.77229 0.08316 0.0
H256 H 0.55762 0.18703 0.24946 0.0
H257 H 0.188 0.97386 0.32962 0.0
H258 H 0.52262 0.24244 0.31982 0.0
H259 H 0.18614 0.03604 0.20945 0.0
O260 O 0.44498 0.00112 0.26477 0.0
H261 H 0.37155 0.87585 0.50229 0.0
H262 H 0.3082 0.76674 0.21587 0.0
H263 H 0.30501 0.7214 0.36156 0.0
H264 H 0.32943 0.77689 0.50834 0.0
H265 H 0.38279 0.92036 0.35565 0.0
H266 H 0.28345 0.71642 0.96565 0.0
H267 H 0.36621 0.75894 0.87247 0.0
O268 O 0.4224 0.92935 0.17323 0.0
C269 C 0.36442 0.9798 0.04061 0.0
C270 C 0.39861 0.83708 0.94037 0.0
C271 C 0.31277 0.75857 0.97872 0.0
N272 N 0.34707 0.83956 0.07281 0.0
C273 C 0.39159 0.86498 0.01434 0.0
C274 C 0.30521 0.78916 0.04821 0.0
C275 C 0.3598 0.78268 0.92511 0.0
C276 C 0.26936 0.99085 0.29269 0.0
N277 N 0.31365 0.01935 0.23582 0.0
C278 C 0.22286 -0.00363 0.28413 0.0
C279 C 0.22179 0.03118 0.21656 0.0
C280 C 0.26687 0.05968 0.15818 0.0
C281 C 0.31258 0.05302 0.16852 0.0
C282 C 0.43996 0.17528 0.3306 0.0
C283 C 0.47807 0.11485 0.2367 0.0
C284 C 0.40547 0.11991 0.31041 0.0
N285 N 0.42431 0.09058 0.26162 0.0
C286 C 0.51434 0.16912 0.26132 0.0
C287 C 0.49485 0.1998 0.3055 0.0
C288 C 0.45674 0.96711 0.22696 0.0
C289 C 0.35851 0.85176 0.4391 0.0
C290 C 0.32374 0.7913 0.27666 0.0
C291 C 0.32054 0.76512 0.36009 0.0
C292 C 0.33466 0.79556 0.44189 0.0
N293 N 0.34481 0.84671 0.2743 0.0
C294 C 0.36509 0.87678 0.35422 0.0
Co295 Co 0.35332 0.36991 0.76534 0.0
Co296 Co 0.44181 0.33448 0.67098 0.0
O297 O 0.38582 0.32407 0.75614 0.0
C298 C 0.38237 0.3976 0.96062 0.0
O299 O 0.40742 0.44915 0.93513 0.0
C300 C 0.39956 0.22165 0.75475 0.0
O301 O 0.39962 0.24433 0.83436 0.0
O302 O 0.39277 0.33171 0.56634 0.0
O303 O 0.35426 0.37971 0.62377 0.0
H304 H 0.56478 0.43456 0.40345 0.0
H305 H 0.30081 0.2597 0.85509 0.0
O306 O 0.35463 0.35937 0.90287 0.0
H307 H 0.16231 0.25412 0.63939 0.0
H308 H 0.21687 0.40497 0.92858 0.0
H309 H 0.37258 0.48103 0.70909 0.0
H310 H 0.25302 0.33752 0.65328 0.0
H311 H 0.25956 0.3513 0.88049 0.0
O312 O 0.40885 0.2495 0.67767 0.0
H313 H 0.50035 0.41918 0.52766 0.0
H314 H 0.48235 0.26311 0.58159 0.0
H315 H 0.33071 0.53717 0.76019 0.0
H316 H 0.21055 0.17563 0.84364 0.0
H317 H 0.25375 0.49934 0.86915 0.0
H318 H 0.14049 0.17253 0.73541 0.0
O319 O 0.42864 0.439 0.77332 0.0
H320 H 0.48232 0.35396 1.00427 0.0
H321 H 0.53488 0.30733 0.70736 0.0
H322 H 0.57275 0.29512 0.85097 0.0
H323 H 0.53713 0.31029 1.0017 0.0
H324 H 0.45526 0.3774 0.86034 0.0
H325 H 0.54899 0.27852 0.45716 0.0
H326 H 0.59326 0.36488 0.37262 0.0
O327 O 0.47955 0.41793 0.68129 0.0
C328 C 0.3673 0.35864 0.5549 0.0
C329 C 0.5484 0.39745 0.44417 0.0
C330 C 0.53886 0.30952 0.47458 0.0
N331 N 0.494 0.34369 0.57366 0.0
C332 C 0.51297 0.38909 0.51784 0.0
C333 C 0.50232 0.30187 0.54637 0.0
C334 C 0.56339 0.35824 0.4256 0.0
C335 C 0.27062 0.25872 0.80773 0.0
N336 N 0.28223 0.30354 0.75494 0.0
C337 C 0.21956 0.21095 0.80151 0.0
C338 C 0.18029 0.2092 0.74068 0.0
C339 C 0.19253 0.25494 0.68668 0.0
C340 C 0.24407 0.30194 0.69448 0.0
C341 C 0.25042 0.42181 0.87925 0.0
C342 C 0.33763 0.46405 0.755 0.0
C343 C 0.27443 0.39135 0.85027 0.0
N344 N 0.31719 0.41226 0.78816 0.0
C345 C 0.31488 0.496 0.78403 0.0
C346 C 0.27123 0.47471 0.84623 0.0
C347 C 0.47453 0.45169 0.73469 0.0
C348 C 0.49468 0.34492 0.93877 0.0
C349 C 0.52408 0.31943 0.77062 0.0
C350 C 0.54487 0.31112 0.85252 0.0
C351 C 0.5259 0.31981 0.93666 0.0
N352 N 0.48918 0.34008 0.7733 0.0
C353 C 0.4796 0.35796 0.85602 0.0
Co354 Co 0.63133 0.01204 0.22544 0.0
Co355 Co 0.54702 0.88345 0.31206 0.0
O356 O 0.6041 0.93372 0.23131 0.0
C357 C 0.58919 0.96737 0.04211 0.0
O358 O 0.54423 0.93716 0.08909 0.0
C359 C 0.61667 0.82803 0.26184 0.0
O360 O 0.65514 0.87212 0.22094 0.0
O361 O 0.59095 0.93085 0.42299 0.0
O362 O 0.62897 0.01773 0.36824 0.0
H363 H 0.43081 0.83931 0.59723 0.0
H364 H 0.69281 0.96714 0.12331 0.0
O365 O 0.63166 0.00446 0.08424 0.0
H366 H 0.82277 0.09566 0.35411 0.0
H367 H 0.76476 0.19743 0.09917 0.0
H368 H 0.60422 0.09414 0.30339 0.0
H369 H 0.72861 0.08018 0.34458 0.0
H370 H 0.7223 0.09731 0.11527 0.0
O371 O 0.58104 0.83158 0.31507 0.0
H372 H 0.4985 0.89958 0.48211 0.0
H373 H 0.47214 0.76048 0.32472 0.0
H374 H 0.64262 0.19415 0.27971 0.0
H375 H 0.78674 0.98175 0.13008 0.0
H376 H 0.72419 0.24594 0.18308 0.0
H377 H 0.85253 0.04653 0.24599 0.0
O378 O 0.5548 0.00245 0.21721 0.0
H379 H 0.52836 0.7964 1.00258 0.0
H380 H 0.42975 0.82612 0.25684 0.0
H381 H 0.37768 0.76494 0.12726 0.0
H382 H 0.42814 0.75446 0.99382 0.0
H383 H 0.5778 0.85613 0.12873 0.0
H384 H 0.39443 0.70153 0.4282 0.0
H385 H 0.38314 0.7387 0.57652 0.0
O386 O 0.50486 0.92586 0.30024 0.0
C387 C 0.61548 0.98341 0.43639 0.0
C388 C 0.44183 0.8218 0.54011 0.0
C389 C 0.42159 0.74408 0.44503 0.0
N390 N 0.49094 0.83379 0.39779 0.0
C391 C 0.47934 0.85568 0.47341 0.0
C392 C 0.4635 0.77829 0.38442 0.0
C393 C 0.41415 0.76531 0.52729 0.0
C394 C 0.72104 -0.00478 0.17421 0.0
N395 N 0.70491 0.02233 0.23401 0.0
C396 C 0.77423 0.00333 0.17772 0.0
C397 C 0.8111 0.03961 0.24283 0.0
C398 C 0.79439 0.06709 0.30367 0.0
C399 C 0.74081 0.05778 0.29842 0.0
C400 C 0.72968 0.17512 0.14435 0.0
C401 C 0.63937 0.11671 0.25871 0.0
C402 C 0.70558 0.1185 0.15426 0.0
N403 N 0.66181 0.09026 0.21256 0.0
C404 C 0.66113 0.17304 0.24707 0.0
C405 C 0.70699 0.20233 0.19117 0.0
C406 C 0.50906 0.96663 0.25275 0.0
C407 C 0.5062 0.80362 0.056 0.0
C408 C 0.45115 0.81963 0.20069 0.0
C409 C 0.42178 0.78655 0.12637 0.0
C410 C 0.44995 0.78018 0.05216 0.0
N411 N 0.50653 0.84158 0.20476 0.0
C412 C 0.53399 0.83513 0.13184 0.0
Co413 Co 0.59599 0.62763 0.74957 0.0
Co414 Co 0.64748 0.54587 0.81775 0.0
O415 O 0.65146 0.60525 0.74536 0.0
C416 C 0.60269 0.60044 0.55553 0.0
O417 O 0.59396 0.55329 0.58738 0.0
C418 C 0.77204 0.61828 0.7667 0.0
O419 O 0.76581 0.65749 0.73007 0.0
O420 O 0.64371 0.58529 0.93524 0.0
O421 O 0.58839 0.61823 0.89137 0.0
H422 H 0.5729 0.41716 0.08326 0.0
H423 H 0.70214 0.6993 0.65444 0.0
O424 O 0.60284 0.63622 0.61054 0.0
H425 H 0.68997 0.81309 0.90431 0.0
H426 H 0.52499 0.75045 0.64492 0.0
H427 H 0.48243 0.58415 0.82168 0.0
H428 H 0.61648 0.71728 0.88293 0.0
H429 H 0.59464 0.72285 0.66502 0.0
O430 O 0.73342 0.58148 0.81885 0.0
H431 H 0.58291 0.49061 0.98192 0.0
H432 H 0.69823 0.47254 0.81633 0.0
H433 H 0.41 0.60862 0.79324 0.0
H434 H 0.77648 0.79511 0.67312 0.0
H435 H 0.43059 0.69003 0.70231 0.0
H436 H 0.77059 0.85272 0.79867 0.0
O437 O 0.53382 0.55009 0.7291 0.0
H438 H 0.71592 0.54232 0.50154 0.0
H439 H 0.59047 0.42984 0.74962 0.0
H440 H 0.60403 0.38415 0.61458 0.0
H441 H 0.66362 0.44065 0.48458 0.0
H442 H 0.70266 0.58435 0.63474 0.0
H443 H 0.6773 0.38924 0.90588 0.0
H444 H 0.62753 0.37124 0.0545 0.0
O445 O 0.56331 0.50167 0.80816 0.0
C446 C 0.61311 0.60635 0.95497 0.0
C447 C 0.60318 0.43131 0.02872 0.0
C448 C 0.6619 0.41569 0.92826 0.0
N449 N 0.64288 0.48771 0.89503 0.0
C450 C 0.60812 0.47224 0.96928 0.0
C451 C 0.67107 0.46098 0.87555 0.0
C452 C 0.63237 0.40445 0.01038 0.0
C453 C 0.69942 0.72401 0.70953 0.0
N454 N 0.65519 0.70251 0.76788 0.0
C455 C 0.74162 0.77826 0.71973 0.0
C456 C 0.73831 0.81056 0.79022 0.0
C457 C 0.69317 0.78831 0.84968 0.0
C458 C 0.65188 0.73385 0.83767 0.0
C459 C 0.5152 0.71349 0.68283 0.0
C460 C 0.49193 0.62069 0.78303 0.0
C461 C 0.55482 0.69833 0.6967 0.0
N462 N 0.54295 0.65234 0.7464 0.0
C463 C 0.45085 0.63389 0.76721 0.0
C464 C 0.46238 0.67989 0.71558 0.0
C465 C 0.5262 0.50454 0.76061 0.0
C466 C 0.68808 0.51646 0.55424 0.0
C467 C 0.61831 0.45418 0.69533 0.0
C468 C 0.62479 0.42829 0.61809 0.0
C469 C 0.65873 0.45997 0.54579 0.0
N470 N 0.64933 0.50964 0.70471 0.0
C471 C 0.68235 0.54053 0.63362 0.0
Co472 Co 0.97182 0.61827 0.26654 0.0
Co473 Co 0.09855 0.65379 0.34551 0.0
O474 O 0.05011 0.66678 0.27014 0.0
C475 C 0.95609 0.58768 0.07049 0.0
O476 O 0.92375 0.5384 0.10319 0.0
C477 C 0.17008 0.76726 0.26342 0.0
O478 O 0.14253 0.74755 0.1862 0.0
O479 O 0.05562 0.65509 0.46026 0.0
O480 O 0.96811 0.60757 0.40831 0.0
H481 H 0.12838 0.55089 0.60062 0.0
H482 H 0.02037 0.7275 0.17613 0.0
O483 O 0.9774 0.62863 0.12605 0.0
H484 H 0.89704 0.72923 0.41864 0.0
H485 H 0.78709 0.56949 0.14287 0.0
H486 H 0.89223 0.505 0.32353 0.0
H487 H 0.90723 0.64783 0.39601 0.0
H488 H 0.88271 0.63239 0.18332 0.0
O489 O 0.15289 0.7385 0.3401 0.0
H490 H 0.07567 0.5694 0.48714 0.0
H491 H 0.21698 0.71944 0.41829 0.0
H492 H 0.79824 0.43825 0.27053 0.0
H493 H 0.01088 0.80954 0.19584 0.0
H494 H 0.74842 0.46971 0.17029 0.0
H495 H 0.94878 0.8107 0.31771 0.0
O496 O 0.98052 0.55109 0.24638 0.0
H497 H 0.10081 0.63245 0.00607 0.0
H498 H 0.21591 0.68262 0.28381 0.0
H499 H 0.25669 0.68606 0.1335 0.0
H500 H 0.19955 0.67001 0.99203 0.0
H501 H 0.05946 0.61447 0.15626 0.0
H502 H 0.27217 0.69454 0.52217 0.0
H503 H 0.22804 0.61136 0.61273 0.0
O504 O 0.05217 0.57077 0.33533 0.0
C505 C 0.00315 0.62831 0.47546 0.0
C506 C 0.14856 0.58557 0.55546 0.0
C507 C 0.22913 0.66807 0.51295 0.0
N508 N 0.14503 0.64144 0.43204 0.0
C509 C 0.11946 0.59638 0.48885 0.0
C510 C 0.19808 0.67995 0.45128 0.0
C511 C 0.20427 0.62044 0.56441 0.0
C512 C -0.00681 0.72762 0.22922 0.0
N513 N 0.96436 0.68282 0.28469 0.0
C514 C 0.98807 0.77425 0.24018 0.0
C515 C 0.9533 0.77492 0.30869 0.0
C516 C 0.92433 0.72926 0.36546 0.0
C517 C 0.93059 0.68341 0.35272 0.0
C518 C 0.81007 0.55466 0.18137 0.0
C519 C 0.86895 0.51903 0.28451 0.0
C520 C 0.86377 0.59064 0.20784 0.0
N521 N 0.89303 0.57235 0.25703 0.0
C522 C 0.8163 0.48118 0.25406 0.0
C523 C 0.7879 0.49895 0.19872 0.0
C524 C 0.01403 0.53804 0.28105 0.0
C525 C 0.12619 0.64186 0.06718 0.0
C526 C 0.18961 0.66904 0.22524 0.0
C527 C 0.21364 0.67334 0.13887 0.0
C528 C 0.182 0.66322 0.05973 0.0
N529 N 0.13445 0.6487 0.23288 0.0
C530 C 0.10287 0.63169 0.15427 0.0
Co531 Co 0.36403 0.9768 0.72855 0.0
Co532 Co 0.44978 0.10096 0.82829 0.0
O533 O 0.39796 0.05669 0.73525 0.0
C534 C 0.40842 0.01717 0.54378 0.0
O535 O 0.45535 0.04231 0.58731 0.0
C536 C 0.39653 0.16678 0.75811 0.0
O537 O 0.37835 0.13561 0.68429 0.0
O538 O 0.39818 0.05204 0.92774 0.0
O539 O 0.36404 0.96701 0.87128 0.0
H540 H 0.56595 0.11365 0.09868 0.0
H541 H 0.31075 0.03177 0.63281 0.0
O542 O 0.36446 0.9858 0.58843 0.0
H543 H 0.17289 0.90381 0.855 0.0
H544 H 0.22459 0.79864 0.58569 0.0
H545 H 0.38794 0.88898 0.78645 0.0
H546 H 0.26374 0.91103 0.8433 0.0
H547 H 0.26799 0.8971 0.62015 0.0
O548 O 0.41581 0.15241 0.82848 0.0
H549 H 0.49771 0.06713 0.97666 0.0
H550 H 0.49661 0.21333 0.91637 0.0
H551 H 0.34925 0.7912 0.74191 0.0
H552 H 0.22036 0.02577 0.64216 0.0
H553 H 0.26548 0.74523 0.64883 0.0
H554 H 0.15059 0.96124 0.75365 0.0
O555 O 0.43851 0.98229 0.72168 0.0
H556 H 0.50743 0.19329 0.51542 0.0
H557 H 0.5705 0.18568 0.82696 0.0
H558 H 0.6278 0.26474 0.73015 0.0
H559 H 0.59763 0.26998 0.57351 0.0
H560 H 0.44734 0.12231 0.62033 0.0
H561 H 0.57318 0.26379 0.03166 0.0
H562 H 0.60729 0.21432 0.11957 0.0
O563 O 0.48892 0.05582 0.81281 0.0
C564 C 0.375 0.00031 0.94037 0.0
C565 C 0.55211 0.13643 0.05728 0.0
C566 C 0.55456 0.22049 0.02017 0.0
N567 N 0.49751 0.13944 0.93245 0.0
C568 C 0.51378 0.1105 0.98721 0.0
C569 C 0.51311 0.19234 0.95459 0.0
C570 C 0.57436 0.19241 0.07056 0.0
C571 C 0.28084 0.00393 0.682 0.0
N572 N 0.29282 0.9722 0.73797 0.0
C573 C 0.22964 0.00062 0.68687 0.0
C574 C 0.19053 0.96445 0.74948 0.0
C575 C 0.20305 0.93229 0.80651 0.0
C576 C 0.25475 0.93688 0.80002 0.0
C577 C 0.26012 0.81802 0.63052 0.0
C578 C 0.35176 0.86912 0.74369 0.0
C579 C 0.28446 0.87363 0.6518 0.0
N580 N 0.32884 0.89824 0.70985 0.0
C581 C 0.32997 0.81396 0.71986 0.0
C582 C 0.2832 0.78816 0.66521 0.0
C583 C 0.48392 0.01603 0.76074 0.0
C584 C 0.52083 0.19373 0.58572 0.0
C585 C 0.55438 0.18869 0.76186 0.0
C586 C 0.58826 0.233 0.7056 0.0
C587 C 0.571 0.23588 0.6174 0.0
N588 N 0.50218 0.15117 0.73571 0.0
C589 C 0.48659 0.15235 0.6464 0.0
Co590 Co 0.36764 0.3555 0.24611 0.0
Co591 Co 0.33203 0.44386 0.34051 0.0
O592 O 0.32166 0.38786 0.25535 0.0
C593 C 0.39537 0.3846 0.05085 0.0
O594 O 0.44691 0.40971 0.07636 0.0
C595 C 0.21912 0.40155 0.25688 0.0
O596 O 0.24179 0.40166 0.17722 0.0
O597 O 0.32936 0.39486 0.44515 0.0
O598 O 0.37745 0.35645 0.38769 0.0
H599 H 0.43214 0.56687 0.60795 0.0
H600 H 0.25745 0.30277 0.15631 0.0
O601 O 0.35713 0.35682 0.10857 0.0
H602 H 0.25232 0.1643 0.37164 0.0
H603 H 0.40309 0.21929 0.08288 0.0
H604 H 0.47881 0.37491 0.30252 0.0
H605 H 0.33547 0.25522 0.35812 0.0
H606 H 0.34929 0.26186 0.13084 0.0
O607 O 0.24702 0.41083 0.33392 0.0
H608 H 0.41676 0.50246 0.48374 0.0
H609 H 0.26064 0.48433 0.43002 0.0
H610 H 0.53509 0.33318 0.25152 0.0
H611 H 0.17361 0.2123 0.16739 0.0
H612 H 0.49743 0.25625 0.14254 0.0
H613 H 0.17074 0.14224 0.2754 0.0
O614 O 0.43666 0.43087 0.23814 0.0
H615 H 0.35156 0.48447 0.0072 0.0
H616 H 0.30475 0.53683 0.30414 0.0
H617 H 0.29267 0.57483 0.16056 0.0
H618 H 0.30794 0.53931 0.00979 0.0
H619 H 0.37491 0.45731 0.15113 0.0
H620 H 0.27607 0.55101 0.55445 0.0
H621 H 0.36241 0.59527 0.63892 0.0
O622 O 0.41547 0.4817 0.33013 0.0
C623 C 0.35637 0.36947 0.45658 0.0
C624 C 0.39501 0.55047 0.56726 0.0
C625 C 0.30706 0.54087 0.53698 0.0
N626 N 0.34123 0.49605 0.43782 0.0
C627 C 0.38666 0.51505 0.49359 0.0
C628 C 0.29941 0.50434 0.46518 0.0
C629 C 0.35578 0.56541 0.58592 0.0
C630 C 0.25656 0.27259 0.20361 0.0
N631 N 0.30138 0.28433 0.25649 0.0
C632 C 0.20892 0.22141 0.20962 0.0
C633 C 0.20731 0.18214 0.27032 0.0
C634 C 0.25303 0.19452 0.32444 0.0
C635 C 0.29989 0.24618 0.31687 0.0
C636 C 0.41986 0.25283 0.13224 0.0
C637 C 0.4619 0.33999 0.25657 0.0
C638 C 0.38933 0.27678 0.16114 0.0
N639 N 0.41014 0.3195 0.22329 0.0
C640 C 0.49393 0.3173 0.22761 0.0
C641 C 0.47274 0.27368 0.16538 0.0
C642 C 0.44929 0.47673 0.27678 0.0
C643 C 0.34248 0.49679 0.07271 0.0
C644 C 0.3169 0.52609 0.24087 0.0
C645 C 0.30866 0.54695 0.15899 0.0
C646 C 0.31739 0.52803 0.07483 0.0
N647 N 0.33756 0.4912 0.23817 0.0
C648 C 0.35546 0.48164 0.15545 0.0
Co649 Co 0.00874 0.38015 0.76149 0.0
Co650 Co 0.88239 0.34081 0.84504 0.0
O651 O 0.93079 0.33165 0.76354 0.0
C652 C 0.02342 0.41287 0.5682 0.0
O653 O 0.05293 0.46173 0.60379 0.0
C654 C 0.81565 0.22801 0.75589 0.0
O655 O 0.84016 0.25176 0.67809 0.0
O656 O 0.92541 0.33751 0.95542 0.0
O657 O 0.0123 0.38939 0.90432 0.0
H658 H 0.85454 0.43662 0.11545 0.0
H659 H 0.9606 0.27179 0.66668 0.0
O660 O 0.00321 0.37106 0.62125 0.0
H661 H 0.08341 0.26788 0.90631 0.0
H662 H 0.19545 0.42586 0.64386 0.0
H663 H 0.08869 0.49571 0.80735 0.0
H664 H 0.07312 0.34938 0.8877 0.0
H665 H 0.09734 0.36574 0.67435 0.0
O666 O 0.83128 0.25552 0.83419 0.0
H667 H 0.9052 0.42379 0.99098 0.0
H668 H 0.76978 0.26876 0.929 0.0
H669 H 0.18478 0.55927 0.76205 0.0
H670 H 0.97026 0.18972 0.68227 0.0
H671 H 0.23981 0.52388 0.69152 0.0
H672 H 0.03218 0.18748 0.80255 0.0
O673 O -0.00139 0.44713 0.74724 0.0
H674 H 0.87321 0.37411 0.50977 0.0
H675 H 0.76408 0.31035 0.79616 0.0
H676 H 0.71874 0.30733 0.65054 0.0
H677 H 0.77427 0.33209 0.50379 0.0
H678 H 0.91771 0.38507 0.65634 0.0
H679 H 0.71377 0.28562 0.04631 0.0
H680 H 0.75618 0.36853 0.1392 0.0
O681 O 0.92676 0.42463 0.83862 0.0
C682 C 0.97717 0.36654 0.97127 0.0
C683 C 0.83438 0.40093 0.07142 0.0
C684 C 0.75591 0.31502 0.03318 0.0
N685 N 0.83693 0.34932 0.93916 0.0
C686 C 0.86232 0.39389 0.99754 0.0
C687 C 0.78656 0.30745 0.96381 0.0
C688 C 0.77996 0.3621 0.08665 0.0
C689 C 0.98771 0.27124 0.71909 0.0
N690 N 0.01637 0.3155 0.77594 0.0
C691 C -0.00708 0.22456 0.72773 0.0
C692 C 0.02758 0.22328 0.79536 0.0
C693 C 0.05626 0.26834 0.85369 0.0
C694 C 0.04992 0.31424 0.84327 0.0
C695 C 0.17242 0.44135 0.68096 0.0
C696 C 0.11237 0.47989 0.77489 0.0
C697 C 0.11704 0.40706 0.70128 0.0
N698 N 0.08789 0.42611 0.7501 0.0
C699 C 0.16667 0.51597 0.75021 0.0
C700 C 0.19715 0.49627 0.70597 0.0
C701 C 0.96461 0.45894 0.78496 0.0
C702 C 0.84912 0.36098 0.57296 0.0
C703 C 0.78865 0.32598 0.73538 0.0
C704 C 0.76246 0.3229 0.652 0.0
C705 C 0.79292 0.33719 0.5702 0.0
N706 N 0.84405 0.34705 0.7377 0.0
C707 C 0.87413 0.3674 0.65779 0.0
loop_
_geom_bond_atom_site_label_1
_geom_bond_atom_site_label_2
_geom_bond_distance
_geom_bond_site_symmetry_2
_ccdc_geom_bond_type
Co0 O2 2.143 1_655 S
Co0 O8 2.074 . S
Co0 O11 2.093 . S
Co0 O24 2.097 . S
Co0 N41 2.151 . S
Co0 N49 2.214 . S
Co1 O2 2.160 . S
Co1 O7 2.058 . S
Co1 O17 2.057 . S
Co1 O32 2.037 . S
Co1 N36 2.145 . S
Co1 N57 2.257 . S
O2 Co0 2.143 1_455 S
O2 Co1 2.160 . S
C3 O4 1.278 1_655 S
C3 O11 1.224 . S
O4 C3 1.278 1_455 S
C5 O6 1.245 . S
C5 O17 1.232 . S
O6 C5 1.245 . S
O7 Co1 2.058 . S
O7 C33 1.269 . S
O8 Co0 2.074 . S
O8 C33 1.257 1_655 S
H9 C34 0.930 . S
H10 C40 0.930 . S
O11 Co0 2.093 . S
O11 C3 1.224 . S
H12 C44 0.929 . S
H13 C46 0.930 . S
H14 C47 0.930 . S
H15 C45 0.929 . S
H16 C48 0.928 . S
O17 Co1 2.057 . S
O17 C5 1.232 . S
H18 C37 0.929 . S
H19 C38 0.929 . S
H20 C50 0.931 . S
H21 C42 0.929 . S
H22 C51 0.930 . S
H23 C43 0.931 . S
O24 Co0 2.097 . S
O24 C52 1.214 1_655 S
H25 C53 0.929 . S
H26 C54 0.929 . S
H27 C55 0.930 . S
H28 C56 0.929 . S
H29 C58 0.930 . S
H30 C35 0.930 . S
H31 C39 0.930 . S
O32 Co1 2.037 . S
O32 C52 1.234 . S
C33 O7 1.269 . S
C33 O8 1.257 1_455 S
C34 H9 0.930 . S
C34 C37 1.388 1_556 S
C34 C39 1.418 . S
C35 H30 0.930 . S
C35 C38 1.404 . S
C35 C39 1.353 1_554 S
N36 Co1 2.145 . S
N36 C37 1.397 . S
N36 C38 1.334 . S
C37 H18 0.929 . S
C37 C34 1.388 1_554 S
C37 N36 1.397 . S
C38 H19 0.929 . S
C38 C35 1.404 . S
C38 N36 1.334 . S
C39 H31 0.930 . S
C39 C34 1.418 . S
C39 C35 1.353 1_556 S
C40 H10 0.930 . S
C40 N41 1.330 . S
C40 C42 1.446 . S
N41 Co0 2.151 . S
N41 C40 1.330 . S
N41 C45 1.418 . S
C42 H21 0.929 . S
C42 C40 1.446 . S
C42 C43 1.332 . S
C43 H23 0.931 . S
C43 C42 1.332 . S
C43 C44 1.267 . S
C44 H12 0.929 . S
C44 C43 1.267 . S
C44 C45 1.251 . S
C45 H15 0.929 . S
C45 N41 1.418 . S
C45 C44 1.251 . S
C46 H13 0.930 . S
C46 C48 1.406 . S
C46 C51 1.261 . S
C47 H14 0.930 . S
C47 N49 1.325 . S
C47 C50 1.357 . S
C48 H16 0.928 . S
C48 C46 1.406 . S
C48 N49 1.261 . S
N49 Co0 2.214 . S
N49 C47 1.325 . S
N49 C48 1.261 . S
C50 H20 0.931 . S
C50 C47 1.357 . S
C50 C51 1.312 . S
C51 H22 0.930 . S
C51 C46 1.261 . S
C51 C50 1.312 . S
C52 O24 1.214 1_455 S
C52 O32 1.234 . S
C53 H25 0.929 . S
C53 C56 1.391 . S
C53 C58 1.391 . S
C54 H26 0.929 . S
C54 C55 1.390 . S
C54 N57 1.391 . S
C55 H27 0.930 . S
C55 C54 1.390 . S
C55 C56 1.392 . S
C56 H28 0.929 . S
C56 C53 1.391 . S
C56 C55 1.392 . S
N57 Co1 2.257 . S
N57 C54 1.391 . S
N57 C58 1.388 . S
C58 H29 0.930 . S
C58 C53 1.391 . S
C58 N57 1.388 . S
Co59 O61 2.143 1_565 S
Co59 O67 2.074 . S
Co59 O70 2.093 . S
Co59 O83 2.097 . S
Co59 N100 2.151 . S
Co59 N108 2.214 . S
Co60 O61 2.160 . S
Co60 O66 2.058 . S
Co60 O76 2.057 . S
Co60 O91 2.037 . S
Co60 N95 2.145 . S
Co60 N116 2.257 . S
O61 Co59 2.143 1_545 S
O61 Co60 2.160 . S
C62 O63 1.278 1_565 S
C62 O70 1.224 . S
O63 C62 1.278 1_545 S
C64 O65 1.245 . S
C64 O76 1.232 . S
O65 C64 1.245 . S
O66 Co60 2.058 . S
O66 C92 1.269 . S
O67 Co59 2.074 . S
O67 C92 1.257 1_565 S
H68 C93 0.930 . S
H69 C99 0.930 . S
O70 Co59 2.093 . S
O70 C62 1.224 . S
H71 C103 0.929 . S
H72 C105 0.930 . S
H73 C106 0.930 . S
H74 C104 0.929 . S
H75 C107 0.928 . S
O76 Co60 2.057 . S
O76 C64 1.232 . S
H77 C96 0.929 . S
H78 C97 0.929 . S
H79 C109 0.931 . S
H80 C101 0.929 . S
H81 C110 0.930 . S
H82 C102 0.931 . S
O83 Co59 2.097 . S
O83 C111 1.214 1_565 S
H84 C112 0.929 1_554 S
H85 C113 0.929 . S
H86 C114 0.930 . S
H87 C115 0.929 1_554 S
H88 C117 0.930 . S
H89 C94 0.930 . S
H90 C98 0.930 . S
O91 Co60 2.037 . S
O91 C111 1.234 . S
C92 O66 1.269 . S
C92 O67 1.257 1_545 S
C93 H68 0.930 . S
C93 C96 1.388 . S
C93 C98 1.418 . S
C94 H89 0.930 . S
C94 C97 1.404 . S
C94 C98 1.353 . S
N95 Co60 2.145 . S
N95 C96 1.397 . S
N95 C97 1.334 . S
C96 H77 0.929 . S
C96 C93 1.388 . S
C96 N95 1.397 . S
C97 H78 0.929 . S
C97 C94 1.404 . S
C97 N95 1.334 . S
C98 H90 0.930 . S
C98 C93 1.418 . S
C98 C94 1.353 . S
C99 H69 0.930 . S
C99 N100 1.330 . S
C99 C101 1.446 . S
N100 Co59 2.151 . S
N100 C99 1.330 . S
N100 C104 1.418 . S
C101 H80 0.929 . S
C101 C99 1.446 . S
C101 C102 1.332 . S
C102 H82 0.931 . S
C102 C101 1.332 . S
C102 C103 1.267 . S
C103 H71 0.929 . S
C103 C102 1.267 . S
C103 C104 1.251 . S
C104 H74 0.929 . S
C104 N100 1.418 . S
C104 C103 1.251 . S
C105 H72 0.930 . S
C105 C107 1.406 . S
C105 C110 1.261 . S
C106 H73 0.930 . S
C106 N108 1.325 . S
C106 C109 1.357 . S
C107 H75 0.928 . S
C107 C105 1.406 . S
C107 N108 1.261 . S
N108 Co59 2.214 . S
N108 C106 1.325 . S
N108 C107 1.261 . S
C109 H79 0.931 . S
C109 C106 1.357 . S
C109 C110 1.312 . S
C110 H81 0.930 . S
C110 C105 1.261 . S
C110 C109 1.312 . S
C111 O83 1.214 1_545 S
C111 O91 1.234 . S
C112 H84 0.929 1_556 S
C112 C115 1.391 . S
C112 C117 1.391 . S
C113 H85 0.929 . S
C113 C114 1.390 . S
C113 N116 1.391 . S
C114 H86 0.930 . S
C114 C113 1.390 . S
C114 C115 1.392 . S
C115 H87 0.929 1_556 S
C115 C112 1.391 . S
C115 C114 1.392 . S
N116 Co60 2.257 . S
N116 C113 1.391 . S
N116 C117 1.388 . S
C117 H88 0.930 . S
C117 C112 1.391 . S
C117 N116 1.388 . S
Co118 O120 2.143 . S
Co118 O126 2.074 . S
Co118 O129 2.093 . S
Co118 O142 2.097 . S
Co118 N159 2.151 . S
Co118 N167 2.214 . S
Co119 O120 2.160 . S
Co119 O125 2.058 . S
Co119 O135 2.057 . S
Co119 O150 2.037 . S
Co119 N154 2.145 . S
Co119 N175 2.257 . S
O120 Co118 2.143 . S
O120 Co119 2.160 . S
C121 O122 1.278 . S
C121 O129 1.224 . S
O122 C121 1.278 . S
C123 O124 1.245 . S
C123 O135 1.232 . S
O124 C123 1.245 . S
O125 Co119 2.058 . S
O125 C151 1.269 . S
O126 Co118 2.074 . S
O126 C151 1.257 . S
H127 C152 0.930 . S
H128 C158 0.930 . S
O129 Co118 2.093 . S
O129 C121 1.224 . S
H130 C162 0.929 . S
H131 C164 0.930 . S
H132 C165 0.930 . S
H133 C163 0.929 . S
H134 C166 0.928 . S
O135 Co119 2.057 . S
O135 C123 1.232 . S
H136 C155 0.929 . S
H137 C156 0.929 . S
H138 C168 0.931 . S
H139 C160 0.929 . S
H140 C169 0.930 . S
H141 C161 0.931 . S
O142 Co118 2.097 . S
O142 C170 1.214 . S
H143 C171 0.929 . S
H144 C172 0.929 . S
H145 C173 0.930 . S
H146 C174 0.929 . S
H147 C176 0.930 . S
H148 C153 0.930 . S
H149 C157 0.930 . S
O150 Co119 2.037 . S
O150 C170 1.234 . S
C151 O125 1.269 . S
C151 O126 1.257 . S
C152 H127 0.930 . S
C152 C155 1.388 1_556 S
C152 C157 1.418 . S
C153 H148 0.930 . S
C153 C156 1.404 . S
C153 C157 1.353 1_554 S
N154 Co119 2.145 . S
N154 C155 1.397 . S
N154 C156 1.334 . S
C155 H136 0.929 . S
C155 C152 1.388 1_554 S
C155 N154 1.397 . S
C156 H137 0.929 . S
C156 C153 1.404 . S
C156 N154 1.334 . S
C157 H149 0.930 . S
C157 C152 1.418 . S
C157 C153 1.353 1_556 S
C158 H128 0.930 . S
C158 N159 1.330 . S
C158 C160 1.446 . S
N159 Co118 2.151 . S
N159 C158 1.330 . S
N159 C163 1.418 . S
C160 H139 0.929 . S
C160 C158 1.446 . S
C160 C161 1.332 . S
C161 H141 0.931 . S
C161 C160 1.332 . S
C161 C162 1.267 . S
C162 H130 0.929 . S
C162 C161 1.267 . S
C162 C163 1.251 . S
C163 H133 0.929 . S
C163 N159 1.418 . S
C163 C162 1.251 . S
C164 H131 0.930 . S
C164 C166 1.406 . S
C164 C169 1.261 . S
C165 H132 0.930 . S
C165 N167 1.325 . S
C165 C168 1.357 . S
C166 H134 0.928 . S
C166 C164 1.406 . S
C166 N167 1.261 . S
N167 Co118 2.214 . S
N167 C165 1.325 . S
N167 C166 1.261 . S
C168 H138 0.931 . S
C168 C165 1.357 . S
C168 C169 1.312 . S
C169 H140 0.930 . S
C169 C164 1.261 . S
C169 C168 1.312 . S
C170 O142 1.214 . S
C170 O150 1.234 . S
C171 H143 0.929 . S
C171 C174 1.391 . S
C171 C176 1.391 . S
C172 H144 0.929 . S
C172 C173 1.390 . S
C172 N175 1.391 . S
C173 H145 0.930 . S
C173 C172 1.390 . S
C173 C174 1.392 . S
C174 H146 0.929 . S
C174 C171 1.391 . S
C174 C173 1.392 . S
N175 Co119 2.257 . S
N175 C172 1.391 . S
N175 C176 1.388 . S
C176 H147 0.930 . S
C176 C171 1.391 . S
C176 N175 1.388 . S
Co177 O179 2.143 1_455 S
Co177 O185 2.074 . S
Co177 O188 2.093 . S
Co177 O201 2.097 . S
Co177 N218 2.151 . S
Co177 N226 2.214 . S
Co178 O179 2.160 . S
Co178 O184 2.058 . S
Co178 O194 2.057 . S
Co178 O209 2.037 . S
Co178 N213 2.145 . S
Co178 N234 2.257 . S
O179 Co177 2.143 1_655 S
O179 Co178 2.160 . S
C180 O181 1.278 1_455 S
C180 O188 1.224 . S
O181 C180 1.278 1_655 S
C182 O183 1.245 . S
C182 O194 1.232 . S
O183 C182 1.245 . S
O184 Co178 2.058 . S
O184 C210 1.269 . S
O185 Co177 2.074 . S
O185 C210 1.257 1_455 S
H186 C211 0.930 . S
H187 C217 0.930 . S
O188 Co177 2.093 . S
O188 C180 1.224 . S
H189 C221 0.929 . S
H190 C223 0.930 . S
H191 C224 0.930 . S
H192 C222 0.929 . S
H193 C225 0.928 . S
O194 Co178 2.057 . S
O194 C182 1.232 . S
H195 C214 0.929 . S
H196 C215 0.929 . S
H197 C227 0.931 . S
H198 C219 0.929 . S
H199 C228 0.930 . S
H200 C220 0.931 . S
O201 Co177 2.097 . S
O201 C229 1.214 1_455 S
H202 C230 0.929 1_554 S
H203 C231 0.929 . S
H204 C232 0.930 . S
H205 C233 0.929 1_554 S
H206 C235 0.930 . S
H207 C212 0.930 . S
H208 C216 0.930 . S
O209 Co178 2.037 . S
O209 C229 1.234 . S
C210 O184 1.269 . S
C210 O185 1.257 1_655 S
C211 H186 0.930 . S
C211 C214 1.388 . S
C211 C216 1.418 . S
C212 H207 0.930 . S
C212 C215 1.404 . S
C212 C216 1.353 . S
N213 Co178 2.145 . S
N213 C214 1.397 . S
N213 C215 1.334 . S
C214 H195 0.929 . S
C214 C211 1.388 . S
C214 N213 1.397 . S
C215 H196 0.929 . S
C215 C212 1.404 . S
C215 N213 1.334 . S
C216 H208 0.930 . S
C216 C211 1.418 . S
C216 C212 1.353 . S
C217 H187 0.930 . S
C217 N218 1.330 . S
C217 C219 1.446 . S
N218 Co177 2.151 . S
N218 C217 1.330 . S
N218 C222 1.418 . S
C219 H198 0.929 . S
C219 C217 1.446 . S
C219 C220 1.332 . S
C220 H200 0.931 . S
C220 C219 1.332 . S
C220 C221 1.267 . S
C221 H189 0.929 . S
C221 C220 1.267 . S
C221 C222 1.251 . S
C222 H192 0.929 . S
C222 N218 1.418 . S
C222 C221 1.251 . S
C223 H190 0.930 . S
C223 C225 1.406 . S
C223 C228 1.261 . S
C224 H191 0.930 . S
C224 N226 1.325 . S
C224 C227 1.357 . S
C225 H193 0.928 . S
C225 C223 1.406 . S
C225 N226 1.261 . S
N226 Co177 2.214 . S
N226 C224 1.325 . S
N226 C225 1.261 . S
C227 H197 0.931 . S
C227 C224 1.357 . S
C227 C228 1.312 . S
C228 H199 0.930 . S
C228 C223 1.261 . S
C228 C227 1.312 . S
C229 O201 1.214 1_655 S
C229 O209 1.234 . S
C230 H202 0.929 1_556 S
C230 C233 1.391 . S
C230 C235 1.391 . S
C231 H203 0.929 . S
C231 C232 1.390 . S
C231 N234 1.391 . S
C232 H204 0.930 . S
C232 C231 1.390 . S
C232 C233 1.392 . S
C233 H205 0.929 1_556 S
C233 C230 1.391 . S
C233 C232 1.392 . S
N234 Co178 2.257 . S
N234 C231 1.391 . S
N234 C235 1.388 . S
C235 H206 0.930 . S
C235 C230 1.391 . S
C235 N234 1.388 . S
Co236 O238 2.143 1_545 S
Co236 O244 2.074 . S
Co236 O247 2.093 . S
Co236 O260 2.097 . S
Co236 N277 2.151 . S
Co236 N285 2.214 . S
Co237 O238 2.160 . S
Co237 O243 2.058 . S
Co237 O253 2.057 . S
Co237 O268 2.037 . S
Co237 N272 2.145 . S
Co237 N293 2.257 . S
O238 Co236 2.143 1_565 S
O238 Co237 2.160 . S
C239 O240 1.278 1_545 S
C239 O247 1.224 . S
O240 C239 1.278 1_565 S
C241 O242 1.245 . S
C241 O253 1.232 . S
O242 C241 1.245 . S
O243 Co237 2.058 . S
O243 C269 1.269 . S
O244 Co236 2.074 . S
O244 C269 1.257 1_545 S
H245 C270 0.930 . S
H246 C276 0.930 . S
O247 Co236 2.093 . S
O247 C239 1.224 . S
H248 C280 0.929 . S
H249 C282 0.930 . S
H250 C283 0.930 . S
H251 C281 0.929 . S
H252 C284 0.928 . S
O253 Co237 2.057 . S
O253 C241 1.232 . S
H254 C273 0.929 . S
H255 C274 0.929 . S
H256 C286 0.931 . S
H257 C278 0.929 . S
H258 C287 0.930 . S
H259 C279 0.931 . S
O260 Co236 2.097 . S
O260 C288 1.214 1_545 S
H261 C289 0.929 . S
H262 C290 0.929 . S
H263 C291 0.930 . S
H264 C292 0.929 . S
H265 C294 0.930 . S
H266 C271 0.930 . S
H267 C275 0.930 . S
O268 Co237 2.037 . S
O268 C288 1.234 . S
C269 O243 1.269 . S
C269 O244 1.257 1_565 S
C270 H245 0.930 . S
C270 C273 1.388 1_556 S
C270 C275 1.418 . S
C271 H266 0.930 . S
C271 C274 1.404 . S
C271 C275 1.353 1_554 S
N272 Co237 2.145 . S
N272 C273 1.397 . S
N272 C274 1.334 . S
C273 H254 0.929 . S
C273 C270 1.388 1_554 S
C273 N272 1.397 . S
C274 H255 0.929 . S
C274 C271 1.404 . S
C274 N272 1.334 . S
C275 H267 0.930 . S
C275 C270 1.418 . S
C275 C271 1.353 1_556 S
C276 H246 0.930 . S
C276 N277 1.330 . S
C276 C278 1.446 . S
N277 Co236 2.151 . S
N277 C276 1.330 . S
N277 C281 1.418 . S
C278 H257 0.929 . S
C278 C276 1.446 . S
C278 C279 1.332 . S
C279 H259 0.931 . S
C279 C278 1.332 . S
C279 C280 1.267 . S
C280 H248 0.929 . S
C280 C279 1.267 . S
C280 C281 1.251 . S
C281 H251 0.929 . S
C281 N277 1.418 . S
C281 C280 1.251 . S
C282 H249 0.930 . S
C282 C284 1.406 . S
C282 C287 1.261 . S
C283 H250 0.930 . S
C283 N285 1.325 . S
C283 C286 1.357 . S
C284 H252 0.928 . S
C284 C282 1.406 . S
C284 N285 1.261 . S
N285 Co236 2.214 . S
N285 C283 1.325 . S
N285 C284 1.261 . S
C286 H256 0.931 . S
C286 C283 1.357 . S
C286 C287 1.312 . S
C287 H258 0.930 . S
C287 C282 1.261 . S
C287 C286 1.312 . S
C288 O260 1.214 1_565 S
C288 O268 1.234 . S
C289 H261 0.929 . S
C289 C292 1.391 . S
C289 C294 1.391 . S
C290 H262 0.929 . S
C290 C291 1.390 . S
C290 N293 1.391 . S
C291 H263 0.930 . S
C291 C290 1.390 . S
C291 C292 1.392 . S
C292 H264 0.929 . S
C292 C289 1.391 . S
C292 C291 1.392 . S
N293 Co237 2.257 . S
N293 C290 1.391 . S
N293 C294 1.388 . S
C294 H265 0.930 . S
C294 C289 1.391 . S
C294 N293 1.388 . S
Co295 O297 2.143 . S
Co295 O303 2.074 . S
Co295 O306 2.093 . S
Co295 O319 2.097 . S
Co295 N336 2.151 . S
Co295 N344 2.214 . S
Co296 O297 2.160 . S
Co296 O302 2.058 . S
Co296 O312 2.057 . S
Co296 O327 2.037 . S
Co296 N331 2.145 . S
Co296 N352 2.257 . S
O297 Co295 2.143 . S
O297 Co296 2.160 . S
C298 O299 1.278 . S
C298 O306 1.224 . S
O299 C298 1.278 . S
C300 O301 1.245 . S
C300 O312 1.232 . S
O301 C300 1.245 . S
O302 Co296 2.058 . S
O302 C328 1.269 . S
O303 Co295 2.074 . S
O303 C328 1.257 . S
H304 C329 0.930 . S
H305 C335 0.930 . S
O306 Co295 2.093 . S
O306 C298 1.224 . S
H307 C339 0.929 . S
H308 C341 0.930 . S
H309 C342 0.930 . S
H310 C340 0.929 . S
H311 C343 0.928 . S
O312 Co296 2.057 . S
O312 C300 1.232 . S
H313 C332 0.929 . S
H314 C333 0.929 . S
H315 C345 0.931 . S
H316 C337 0.929 . S
H317 C346 0.930 . S
H318 C338 0.931 . S
O319 Co295 2.097 . S
O319 C347 1.214 . S
H320 C348 0.929 1_554 S
H321 C349 0.929 . S
H322 C350 0.930 . S
H323 C351 0.929 1_554 S
H324 C353 0.930 . S
H325 C330 0.930 . S
H326 C334 0.930 . S
O327 Co296 2.037 . S
O327 C347 1.234 . S
C328 O302 1.269 . S
C328 O303 1.257 . S
C329 H304 0.930 . S
C329 C332 1.388 . S
C329 C334 1.418 . S
C330 H325 0.930 . S
C330 C333 1.404 . S
C330 C334 1.353 . S
N331 Co296 2.145 . S
N331 C332 1.397 . S
N331 C333 1.334 . S
C332 H313 0.929 . S
C332 C329 1.388 . S
C332 N331 1.397 . S
C333 H314 0.929 . S
C333 C330 1.404 . S
C333 N331 1.334 . S
C334 H326 0.930 . S
C334 C329 1.418 . S
C334 C330 1.353 . S
C335 H305 0.930 . S
C335 N336 1.330 . S
C335 C337 1.446 . S
N336 Co295 2.151 . S
N336 C335 1.330 . S
N336 C340 1.418 . S
C337 H316 0.929 . S
C337 C335 1.446 . S
C337 C338 1.332 . S
C338 H318 0.931 . S
C338 C337 1.332 . S
C338 C339 1.267 . S
C339 H307 0.929 . S
C339 C338 1.267 . S
C339 C340 1.251 . S
C340 H310 0.929 . S
C340 N336 1.418 . S
C340 C339 1.251 . S
C341 H308 0.930 . S
C341 C343 1.406 . S
C341 C346 1.261 . S
C342 H309 0.930 . S
C342 N344 1.325 . S
C342 C345 1.357 . S
C343 H311 0.928 . S
C343 C341 1.406 . S
C343 N344 1.261 . S
N344 Co295 2.214 . S
N344 C342 1.325 . S
N344 C343 1.261 . S
C345 H315 0.931 . S
C345 C342 1.357 . S
C345 C346 1.312 . S
C346 H317 0.930 . S
C346 C341 1.261 . S
C346 C345 1.312 . S
C347 O319 1.214 . S
C347 O327 1.234 . S
C348 H320 0.929 1_556 S
C348 C351 1.391 . S
C348 C353 1.391 . S
C349 H321 0.929 . S
C349 C350 1.390 . S
C349 N352 1.391 . S
C350 H322 0.930 . S
C350 C349 1.390 . S
C350 C351 1.392 . S
C351 H323 0.929 1_556 S
C351 C348 1.391 . S
C351 C350 1.392 . S
N352 Co296 2.257 . S
N352 C349 1.391 . S
N352 C353 1.388 . S
C353 H324 0.930 . S
C353 C348 1.391 . S
C353 N352 1.388 . S
Co354 O356 2.143 1_545 S
Co354 O362 2.074 . S
Co354 O365 2.093 . S
Co354 O378 2.097 . S
Co354 N395 2.151 . S
Co354 N403 2.214 . S
Co355 O356 2.160 . S
Co355 O361 2.058 . S
Co355 O371 2.057 . S
Co355 O386 2.037 . S
Co355 N390 2.145 . S
Co355 N411 2.257 . S
O356 Co354 2.143 1_565 S
O356 Co355 2.160 . S
C357 O358 1.278 1_545 S
C357 O365 1.224 . S
O358 C357 1.278 1_565 S
C359 O360 1.245 . S
C359 O371 1.232 . S
O360 C359 1.245 . S
O361 Co355 2.058 . S
O361 C387 1.269 . S
O362 Co354 2.074 . S
O362 C387 1.257 1_545 S
H363 C388 0.930 . S
H364 C394 0.930 . S
O365 Co354 2.093 . S
O365 C357 1.224 . S
H366 C398 0.929 . S
H367 C400 0.930 . S
H368 C401 0.930 . S
H369 C399 0.929 . S
H370 C402 0.928 . S
O371 Co355 2.057 . S
O371 C359 1.232 . S
H372 C391 0.929 . S
H373 C392 0.929 . S
H374 C404 0.931 . S
H375 C396 0.929 . S
H376 C405 0.930 . S
H377 C397 0.931 . S
O378 Co354 2.097 . S
O378 C406 1.214 1_545 S
H379 C407 0.929 1_556 S
H380 C408 0.929 . S
H381 C409 0.930 . S
H382 C410 0.929 1_556 S
H383 C412 0.930 . S
H384 C389 0.930 . S
H385 C393 0.930 . S
O386 Co355 2.037 . S
O386 C406 1.234 . S
C387 O361 1.269 . S
C387 O362 1.257 1_565 S
C388 H363 0.930 . S
C388 C391 1.388 . S
C388 C393 1.418 . S
C389 H384 0.930 . S
C389 C392 1.404 . S
C389 C393 1.353 . S
N390 Co355 2.145 . S
N390 C391 1.397 . S
N390 C392 1.334 . S
C391 H372 0.929 . S
C391 C388 1.388 . S
C391 N390 1.397 . S
C392 H373 0.929 . S
C392 C389 1.404 . S
C392 N390 1.334 . S
C393 H385 0.930 . S
C393 C388 1.418 . S
C393 C389 1.353 . S
C394 H364 0.930 . S
C394 N395 1.330 . S
C394 C396 1.446 . S
N395 Co354 2.151 . S
N395 C394 1.330 . S
N395 C399 1.418 . S
C396 H375 0.929 . S
C396 C394 1.446 . S
C396 C397 1.332 . S
C397 H377 0.931 . S
C397 C396 1.332 . S
C397 C398 1.267 . S
C398 H366 0.929 . S
C398 C397 1.267 . S
C398 C399 1.251 . S
C399 H369 0.929 . S
C399 N395 1.418 . S
C399 C398 1.251 . S
C400 H367 0.930 . S
C400 C402 1.406 . S
C400 C405 1.261 . S
C401 H368 0.930 . S
C401 N403 1.325 . S
C401 C404 1.357 . S
C402 H370 0.928 . S
C402 C400 1.406 . S
C402 N403 1.261 . S
N403 Co354 2.214 . S
N403 C401 1.325 . S
N403 C402 1.261 . S
C404 H374 0.931 . S
C404 C401 1.357 . S
C404 C405 1.312 . S
C405 H376 0.930 . S
C405 C400 1.261 . S
C405 C404 1.312 . S
C406 O378 1.214 1_565 S
C406 O386 1.234 . S
C407 H379 0.929 1_554 S
C407 C410 1.391 . S
C407 C412 1.391 . S
C408 H380 0.929 . S
C408 C409 1.390 . S
C408 N411 1.391 . S
C409 H381 0.930 . S
C409 C408 1.390 . S
C409 C410 1.392 . S
C410 H382 0.929 1_554 S
C410 C407 1.391 . S
C410 C409 1.392 . S
N411 Co355 2.257 . S
N411 C408 1.391 . S
N411 C412 1.388 . S
C412 H383 0.930 . S
C412 C407 1.391 . S
C412 N411 1.388 . S
Co413 O415 2.143 . S
Co413 O421 2.074 . S
Co413 O424 2.093 . S
Co413 O437 2.097 . S
Co413 N454 2.151 . S
Co413 N462 2.214 . S
Co414 O415 2.160 . S
Co414 O420 2.058 . S
Co414 O430 2.057 . S
Co414 O445 2.037 . S
Co414 N449 2.145 . S
Co414 N470 2.257 . S
O415 Co413 2.143 . S
O415 Co414 2.160 . S
C416 O417 1.278 . S
C416 O424 1.224 . S
O417 C416 1.278 . S
C418 O419 1.245 . S
C418 O430 1.232 . S
O419 C418 1.245 . S
O420 Co414 2.058 . S
O420 C446 1.269 . S
O421 Co413 2.074 . S
O421 C446 1.257 . S
H422 C447 0.930 . S
H423 C453 0.930 . S
O424 Co413 2.093 . S
O424 C416 1.224 . S
H425 C457 0.929 . S
H426 C459 0.930 . S
H427 C460 0.930 . S
H428 C458 0.929 . S
H429 C461 0.928 . S
O430 Co414 2.057 . S
O430 C418 1.232 . S
H431 C450 0.929 . S
H432 C451 0.929 . S
H433 C463 0.931 . S
H434 C455 0.929 . S
H435 C464 0.930 . S
H436 C456 0.931 . S
O437 Co413 2.097 . S
O437 C465 1.214 . S
H438 C466 0.929 . S
H439 C467 0.929 . S
H440 C468 0.930 . S
H441 C469 0.929 . S
H442 C471 0.930 . S
H443 C448 0.930 . S
H444 C452 0.930 . S
O445 Co414 2.037 . S
O445 C465 1.234 . S
C446 O420 1.269 . S
C446 O421 1.257 . S
C447 H422 0.930 . S
C447 C450 1.388 1_554 S
C447 C452 1.418 . S
C448 H443 0.930 . S
C448 C451 1.404 . S
C448 C452 1.353 1_556 S
N449 Co414 2.145 . S
N449 C450 1.397 . S
N449 C451 1.334 . S
C450 H431 0.929 . S
C450 C447 1.388 1_556 S
C450 N449 1.397 . S
C451 H432 0.929 . S
C451 C448 1.404 . S
C451 N449 1.334 . S
C452 H444 0.930 . S
C452 C447 1.418 . S
C452 C448 1.353 1_554 S
C453 H423 0.930 . S
C453 N454 1.330 . S
C453 C455 1.446 . S
N454 Co413 2.151 . S
N454 C453 1.330 . S
N454 C458 1.418 . S
C455 H434 0.929 . S
C455 C453 1.446 . S
C455 C456 1.332 . S
C456 H436 0.931 . S
C456 C455 1.332 . S
C456 C457 1.267 . S
C457 H425 0.929 . S
C457 C456 1.267 . S
C457 C458 1.251 . S
C458 H428 0.929 . S
C458 N454 1.418 . S
C458 C457 1.251 . S
C459 H426 0.930 . S
C459 C461 1.406 . S
C459 C464 1.261 . S
C460 H427 0.930 . S
C460 N462 1.325 . S
C460 C463 1.357 . S
C461 H429 0.928 . S
C461 C459 1.406 . S
C461 N462 1.261 . S
N462 Co413 2.214 . S
N462 C460 1.325 . S
N462 C461 1.261 . S
C463 H433 0.931 . S
C463 C460 1.357 . S
C463 C464 1.312 . S
C464 H435 0.930 . S
C464 C459 1.261 . S
C464 C463 1.312 . S
C465 O437 1.214 . S
C465 O445 1.234 . S
C466 H438 0.929 . S
C466 C469 1.391 . S
C466 C471 1.391 . S
C467 H439 0.929 . S
C467 C468 1.390 . S
C467 N470 1.391 . S
C468 H440 0.930 . S
C468 C467 1.390 . S
C468 C469 1.392 . S
C469 H441 0.929 . S
C469 C466 1.391 . S
C469 C468 1.392 . S
N470 Co414 2.257 . S
N470 C467 1.391 . S
N470 C471 1.388 . S
C471 H442 0.930 . S
C471 C466 1.391 . S
C471 N470 1.388 . S
Co472 O474 2.143 1_655 S
Co472 O480 2.074 . S
Co472 O483 2.093 . S
Co472 O496 2.097 . S
Co472 N513 2.151 . S
Co472 N521 2.214 . S
Co473 O474 2.160 . S
Co473 O479 2.058 . S
Co473 O489 2.057 . S
Co473 O504 2.037 . S
Co473 N508 2.145 . S
Co473 N529 2.257 . S
O474 Co472 2.143 1_455 S
O474 Co473 2.160 . S
C475 O476 1.278 1_655 S
C475 O483 1.224 . S
O476 C475 1.278 1_455 S
C477 O478 1.245 . S
C477 O489 1.232 . S
O478 C477 1.245 . S
O479 Co473 2.058 . S
O479 C505 1.269 . S
O480 Co472 2.074 . S
O480 C505 1.257 1_655 S
H481 C506 0.930 . S
H482 C512 0.930 . S
O483 Co472 2.093 . S
O483 C475 1.224 . S
H484 C516 0.929 . S
H485 C518 0.930 . S
H486 C519 0.930 . S
H487 C517 0.929 . S
H488 C520 0.928 . S
O489 Co473 2.057 . S
O489 C477 1.232 . S
H490 C509 0.929 . S
H491 C510 0.929 . S
H492 C522 0.931 . S
H493 C514 0.929 . S
H494 C523 0.930 . S
H495 C515 0.931 . S
O496 Co472 2.097 . S
O496 C524 1.214 1_655 S
H497 C525 0.929 1_556 S
H498 C526 0.929 . S
H499 C527 0.930 . S
H500 C528 0.929 1_556 S
H501 C530 0.930 . S
H502 C507 0.930 . S
H503 C511 0.930 . S
O504 Co473 2.037 . S
O504 C524 1.234 . S
C505 O479 1.269 . S
C505 O480 1.257 1_455 S
C506 H481 0.930 . S
C506 C509 1.388 . S
C506 C511 1.418 . S
C507 H502 0.930 . S
C507 C510 1.404 . S
C507 C511 1.353 . S
N508 Co473 2.145 . S
N508 C509 1.397 . S
N508 C510 1.334 . S
C509 H490 0.929 . S
C509 C506 1.388 . S
C509 N508 1.397 . S
C510 H491 0.929 . S
C510 C507 1.404 . S
C510 N508 1.334 . S
C511 H503 0.930 . S
C511 C506 1.418 . S
C511 C507 1.353 . S
C512 H482 0.930 . S
C512 N513 1.330 . S
C512 C514 1.446 . S
N513 Co472 2.151 . S
N513 C512 1.330 . S
N513 C517 1.418 . S
C514 H493 0.929 . S
C514 C512 1.446 . S
C514 C515 1.332 . S
C515 H495 0.931 . S
C515 C514 1.332 . S
C515 C516 1.267 . S
C516 H484 0.929 . S
C516 C515 1.267 . S
C516 C517 1.251 . S
C517 H487 0.929 . S
C517 N513 1.418 . S
C517 C516 1.251 . S
C518 H485 0.930 . S
C518 C520 1.406 . S
C518 C523 1.261 . S
C519 H486 0.930 . S
C519 N521 1.325 . S
C519 C522 1.357 . S
C520 H488 0.928 . S
C520 C518 1.406 . S
C520 N521 1.261 . S
N521 Co472 2.214 . S
N521 C519 1.325 . S
N521 C520 1.261 . S
C522 H492 0.931 . S
C522 C519 1.357 . S
C522 C523 1.312 . S
C523 H494 0.930 . S
C523 C518 1.261 . S
C523 C522 1.312 . S
C524 O496 1.214 1_455 S
C524 O504 1.234 . S
C525 H497 0.929 1_554 S
C525 C528 1.391 . S
C525 C530 1.391 . S
C526 H498 0.929 . S
C526 C527 1.390 . S
C526 N529 1.391 . S
C527 H499 0.930 . S
C527 C526 1.390 . S
C527 C528 1.392 . S
C528 H500 0.929 1_554 S
C528 C525 1.391 . S
C528 C527 1.392 . S
N529 Co473 2.257 . S
N529 C526 1.391 . S
N529 C530 1.388 . S
C530 H501 0.930 . S
C530 C525 1.391 . S
C530 N529 1.388 . S
Co531 O533 2.143 1_565 S
Co531 O539 2.074 . S
Co531 O542 2.093 . S
Co531 O555 2.097 . S
Co531 N572 2.151 . S
Co531 N580 2.214 . S
Co532 O533 2.160 . S
Co532 O538 2.058 . S
Co532 O548 2.057 . S
Co532 O563 2.037 . S
Co532 N567 2.145 . S
Co532 N588 2.257 . S
O533 Co531 2.143 1_545 S
O533 Co532 2.160 . S
C534 O535 1.278 1_565 S
C534 O542 1.224 . S
O535 C534 1.278 1_545 S
C536 O537 1.245 . S
C536 O548 1.232 . S
O537 C536 1.245 . S
O538 Co532 2.058 . S
O538 C564 1.269 . S
O539 Co531 2.074 . S
O539 C564 1.257 1_565 S
H540 C565 0.930 . S
H541 C571 0.930 . S
O542 Co531 2.093 . S
O542 C534 1.224 . S
H543 C575 0.929 . S
H544 C577 0.930 . S
H545 C578 0.930 . S
H546 C576 0.929 . S
H547 C579 0.928 . S
O548 Co532 2.057 . S
O548 C536 1.232 . S
H549 C568 0.929 . S
H550 C569 0.929 . S
H551 C581 0.931 . S
H552 C573 0.929 . S
H553 C582 0.930 . S
H554 C574 0.931 . S
O555 Co531 2.097 . S
O555 C583 1.214 1_565 S
H556 C584 0.929 . S
H557 C585 0.929 . S
H558 C586 0.930 . S
H559 C587 0.929 . S
H560 C589 0.930 . S
H561 C566 0.930 . S
H562 C570 0.930 . S
O563 Co532 2.037 . S
O563 C583 1.234 . S
C564 O538 1.269 . S
C564 O539 1.257 1_545 S
C565 H540 0.930 . S
C565 C568 1.388 1_554 S
C565 C570 1.418 . S
C566 H561 0.930 . S
C566 C569 1.404 . S
C566 C570 1.353 1_556 S
N567 Co532 2.145 . S
N567 C568 1.397 . S
N567 C569 1.334 . S
C568 H549 0.929 . S
C568 C565 1.388 1_556 S
C568 N567 1.397 . S
C569 H550 0.929 . S
C569 C566 1.404 . S
C569 N567 1.334 . S
C570 H562 0.930 . S
C570 C565 1.418 . S
C570 C566 1.353 1_554 S
C571 H541 0.930 . S
C571 N572 1.330 . S
C571 C573 1.446 . S
N572 Co531 2.151 . S
N572 C571 1.330 . S
N572 C576 1.418 . S
C573 H552 0.929 . S
C573 C571 1.446 . S
C573 C574 1.332 . S
C574 H554 0.931 . S
C574 C573 1.332 . S
C574 C575 1.267 . S
C575 H543 0.929 . S
C575 C574 1.267 . S
C575 C576 1.251 . S
C576 H546 0.929 . S
C576 N572 1.418 . S
C576 C575 1.251 . S
C577 H544 0.930 . S
C577 C579 1.406 . S
C577 C582 1.261 . S
C578 H545 0.930 . S
C578 N580 1.325 . S
C578 C581 1.357 . S
C579 H547 0.928 . S
C579 C577 1.406 . S
C579 N580 1.261 . S
N580 Co531 2.214 . S
N580 C578 1.325 . S
N580 C579 1.261 . S
C581 H551 0.931 . S
C581 C578 1.357 . S
C581 C582 1.312 . S
C582 H553 0.930 . S
C582 C577 1.261 . S
C582 C581 1.312 . S
C583 O555 1.214 1_545 S
C583 O563 1.234 . S
C584 H556 0.929 . S
C584 C587 1.391 . S
C584 C589 1.391 . S
C585 H557 0.929 . S
C585 C586 1.390 . S
C585 N588 1.391 . S
C586 H558 0.930 . S
C586 C585 1.390 . S
C586 C587 1.392 . S
C587 H559 0.929 . S
C587 C584 1.391 . S
C587 C586 1.392 . S
N588 Co532 2.257 . S
N588 C585 1.391 . S
N588 C589 1.388 . S
C589 H560 0.930 . S
C589 C584 1.391 . S
C589 N588 1.388 . S
Co590 O592 2.143 . S
Co590 O598 2.074 . S
Co590 O601 2.093 . S
Co590 O614 2.097 . S
Co590 N631 2.151 . S
Co590 N639 2.214 . S
Co591 O592 2.160 . S
Co591 O597 2.058 . S
Co591 O607 2.057 . S
Co591 O622 2.037 . S
Co591 N626 2.145 . S
Co591 N647 2.257 . S
O592 Co590 2.143 . S
O592 Co591 2.160 . S
C593 O594 1.278 . S
C593 O601 1.224 . S
O594 C593 1.278 . S
C595 O596 1.245 . S
C595 O607 1.232 . S
O596 C595 1.245 . S
O597 Co591 2.058 . S
O597 C623 1.269 . S
O598 Co590 2.074 . S
O598 C623 1.257 . S
H599 C624 0.930 . S
H600 C630 0.930 . S
O601 Co590 2.093 . S
O601 C593 1.224 . S
H602 C634 0.929 . S
H603 C636 0.930 . S
H604 C637 0.930 . S
H605 C635 0.929 . S
H606 C638 0.928 . S
O607 Co591 2.057 . S
O607 C595 1.232 . S
H608 C627 0.929 . S
H609 C628 0.929 . S
H610 C640 0.931 . S
H611 C632 0.929 . S
H612 C641 0.930 . S
H613 C633 0.931 . S
O614 Co590 2.097 . S
O614 C642 1.214 . S
H615 C643 0.929 1_556 S
H616 C644 0.929 . S
H617 C645 0.930 . S
H618 C646 0.929 1_556 S
H619 C648 0.930 . S
H620 C625 0.930 . S
H621 C629 0.930 . S
O622 Co591 2.037 . S
O622 C642 1.234 . S
C623 O597 1.269 . S
C623 O598 1.257 . S
C624 H599 0.930 . S
C624 C627 1.388 . S
C624 C629 1.418 . S
C625 H620 0.930 . S
C625 C628 1.404 . S
C625 C629 1.353 . S
N626 Co591 2.145 . S
N626 C627 1.397 . S
N626 C628 1.334 . S
C627 H608 0.929 . S
C627 C624 1.388 . S
C627 N626 1.397 . S
C628 H609 0.929 . S
C628 C625 1.404 . S
C628 N626 1.334 . S
C629 H621 0.930 . S
C629 C624 1.418 . S
C629 C625 1.353 . S
C630 H600 0.930 . S
C630 N631 1.330 . S
C630 C632 1.446 . S
N631 Co590 2.151 . S
N631 C630 1.330 . S
N631 C635 1.418 . S
C632 H611 0.929 . S
C632 C630 1.446 . S
C632 C633 1.332 . S
C633 H613 0.931 . S
C633 C632 1.332 . S
C633 C634 1.267 . S
C634 H602 0.929 . S
C634 C633 1.267 . S
C634 C635 1.251 . S
C635 H605 0.929 . S
C635 N631 1.418 . S
C635 C634 1.251 . S
C636 H603 0.930 . S
C636 C638 1.406 . S
C636 C641 1.261 . S
C637 H604 0.930 . S
C637 N639 1.325 . S
C637 C640 1.357 . S
C638 H606 0.928 . S
C638 C636 1.406 . S
C638 N639 1.261 . S
N639 Co590 2.214 . S
N639 C637 1.325 . S
N639 C638 1.261 . S
C640 H610 0.931 . S
C640 C637 1.357 . S
C640 C641 1.312 . S
C641 H612 0.930 . S
C641 C636 1.261 . S
C641 C640 1.312 . S
C642 O614 1.214 . S
C642 O622 1.234 . S
C643 H615 0.929 1_554 S
C643 C646 1.391 . S
C643 C648 1.391 . S
C644 H616 0.929 . S
C644 C645 1.390 . S
C644 N647 1.391 . S
C645 H617 0.930 . S
C645 C644 1.390 . S
C645 C646 1.392 . S
C646 H618 0.929 1_554 S
C646 C643 1.391 . S
C646 C645 1.392 . S
N647 Co591 2.257 . S
N647 C644 1.391 . S
N647 C648 1.388 . S
C648 H619 0.930 . S
C648 C643 1.391 . S
C648 N647 1.388 . S
Co649 O651 2.143 1_455 S
Co649 O657 2.074 . S
Co649 O660 2.093 . S
Co649 O673 2.097 . S
Co649 N690 2.151 . S
Co649 N698 2.214 . S
Co650 O651 2.160 . S
Co650 O656 2.058 . S
Co650 O666 2.057 . S
Co650 O681 2.037 . S
Co650 N685 2.145 . S
Co650 N706 2.257 . S
O651 Co649 2.143 1_655 S
O651 Co650 2.160 . S
C652 O653 1.278 1_455 S
C652 O660 1.224 . S
O653 C652 1.278 1_655 S
C654 O655 1.245 . S
C654 O666 1.232 . S
O655 C654 1.245 . S
O656 Co650 2.058 . S
O656 C682 1.269 . S
O657 Co649 2.074 . S
O657 C682 1.257 1_455 S
H658 C683 0.930 . S
H659 C689 0.930 . S
O660 Co649 2.093 . S
O660 C652 1.224 . S
H661 C693 0.929 . S
H662 C695 0.930 . S
H663 C696 0.930 . S
H664 C694 0.929 . S
H665 C697 0.928 . S
O666 Co650 2.057 . S
O666 C654 1.232 . S
H667 C686 0.929 . S
H668 C687 0.929 . S
H669 C699 0.931 . S
H670 C691 0.929 . S
H671 C700 0.930 . S
H672 C692 0.931 . S
O673 Co649 2.097 . S
O673 C701 1.214 1_455 S
H674 C702 0.929 . S
H675 C703 0.929 . S
H676 C704 0.930 . S
H677 C705 0.929 . S
H678 C707 0.930 . S
H679 C684 0.930 . S
H680 C688 0.930 . S
O681 Co650 2.037 . S
O681 C701 1.234 . S
C682 O656 1.269 . S
C682 O657 1.257 1_655 S
C683 H658 0.930 . S
C683 C686 1.388 1_554 S
C683 C688 1.418 . S
C684 H679 0.930 . S
C684 C687 1.404 . S
C684 C688 1.353 1_556 S
N685 Co650 2.145 . S
N685 C686 1.397 . S
N685 C687 1.334 . S
C686 H667 0.929 . S
C686 C683 1.388 1_556 S
C686 N685 1.397 . S
C687 H668 0.929 . S
C687 C684 1.404 . S
C687 N685 1.334 . S
C688 H680 0.930 . S
C688 C683 1.418 . S
C688 C684 1.353 1_554 S
C689 H659 0.930 . S
C689 N690 1.330 . S
C689 C691 1.446 . S
N690 Co649 2.151 . S
N690 C689 1.330 . S
N690 C694 1.418 . S
C691 H670 0.929 . S
C691 C689 1.446 . S
C691 C692 1.332 . S
C692 H672 0.931 . S
C692 C691 1.332 . S
C692 C693 1.267 . S
C693 H661 0.929 . S
C693 C692 1.267 . S
C693 C694 1.251 . S
C694 H664 0.929 . S
C694 N690 1.418 . S
C694 C693 1.251 . S
C695 H662 0.930 . S
C695 C697 1.406 . S
C695 C700 1.261 . S
C696 H663 0.930 . S
C696 N698 1.325 . S
C696 C699 1.357 . S
C697 H665 0.928 . S
C697 C695 1.406 . S
C697 N698 1.261 . S
N698 Co649 2.214 . S
N698 C696 1.325 . S
N698 C697 1.261 . S
C699 H669 0.931 . S
C699 C696 1.357 . S
C699 C700 1.312 . S
C700 H671 0.930 . S
C700 C695 1.261 . S
C700 C699 1.312 . S
C701 O673 1.214 1_655 S
C701 O681 1.234 . S
C702 H674 0.929 . S
C702 C705 1.391 . S
C702 C707 1.391 . S
C703 H675 0.929 . S
C703 C704 1.390 . S
C703 N706 1.391 . S
C704 H676 0.930 . S
C704 C703 1.390 . S
C704 C705 1.392 . S
C705 H677 0.929 . S
C705 C702 1.391 . S
C705 C704 1.392 . S
N706 Co650 2.257 . S
N706 C703 1.391 . S
N706 C707 1.388 . S
C707 H678 0.930 . S
C707 C702 1.391 . S
C707 N706 1.388 . S
C33 C682 1.851 1_454 S
C387 C92 1.851 1_565 S
C151 C446 1.851 1_554 S
C505 C210 1.851 1_455 S
C564 C269 1.851 1_546 S
C623 C328 1.851 . S
C180 C475 1.215 1_456 S
C239 C534 1.215 1_545 S
C298 C593 1.215 1_556 S
C652 C3 1.215 1_455 S
C62 C357 1.215 1_566 S
C121 C416 1.215 . S
C524 C52 2.009 . S
C583 C111 2.009 . S
C170 C642 2.009 . S
C229 C701 2.009 . S
C288 C406 2.009 . S
C465 C347 2.009 . S
C5 C595 1.941 . S
C654 C64 1.941 . S
C123 C359 1.941 . S
C182 C418 1.941 . S
C241 C477 1.941 . S
C300 C536 1.941 . S
