# Generated by pormake.
# Topology wmi, (6)-cn, num edge types: 1
# Building blocks:
#     Node 0, Type 0, BuildingBlock: KUMBOL_clean_sbu_0, # of connection points: 6
#     Node 1, Type 0, BuildingBlock: KUMBOL_clean_sbu_0, # of connection points: 6
#     Node 2, Type 0, BuildingBlock: KUMBOL_clean_sbu_0, # of connection points: 6
#     Node 3, Type 0, BuildingBlock: KUMBOL_clean_sbu_0, # of connection points: 6
#     Node 4, Type 0, BuildingBlock: KUMBOL_clean_sbu_0, # of connection points: 6
#     Node 5, Type 0, BuildingBlock: KUMBOL_clean_sbu_0, # of connection points: 6
#     Node 6, Type 0, BuildingBlock: KUMBOL_clean_sbu_0, # of connection points: 6
#     Node 7, Type 0, BuildingBlock: KUMBOL_clean_sbu_0, # of connection points: 6
#     Node 8, Type 0, BuildingBlock: KUMBOL_clean_sbu_0, # of connection points: 6
#     Node 9, Type 0, BuildingBlock: KUMBOL_clean_sbu_0, # of connection points: 6
#     Node 10, Type 0, BuildingBlock: KUMBOL_clean_sbu_0, # of connection points: 6
#     Node 11, Type 0, BuildingBlock: KUMBOL_clean_sbu_0, # of connection points: 6
#     Node 12, Type 0, BuildingBlock: KUMBOL_clean_sbu_0, # of connection points: 6
#     Node 13, Type 0, BuildingBlock: KUMBOL_clean_sbu_0, # of connection points: 6
#     Node 14, Type 0, BuildingBlock: KUMBOL_clean_sbu_0, # of connection points: 6
#     Node 15, Type 0, BuildingBlock: KUMBOL_clean_sbu_0, # of connection points: 6
#     Node 16, Type 0, BuildingBlock: KUMBOL_clean_sbu_0, # of connection points: 6
#     Node 17, Type 0, BuildingBlock: KUMBOL_clean_sbu_0, # of connection points: 6
#     Edge 18, Type (0, 0), BuildingBlock: CIFDUS_clean_linker_0, # of connection points: 2
#     Edge 19, Type (0, 0), BuildingBlock: CIFDUS_clean_linker_0, # of connection points: 2
#     Edge 20, Type (0, 0), BuildingBlock: CIFDUS_clean_linker_0, # of connection points: 2
#     Edge 21, Type (0, 0), BuildingBlock: CIFDUS_clean_linker_0, # of connection points: 2
#     Edge 22, Type (0, 0), BuildingBlock: CIFDUS_clean_linker_0, # of connection points: 2
#     Edge 23, Type (0, 0), BuildingBlock: CIFDUS_clean_linker_0, # of connection points: 2
#     Edge 24, Type (0, 0), BuildingBlock: CIFDUS_clean_linker_0, # of connection points: 2
#     Edge 25, Type (0, 0), BuildingBlock: CIFDUS_clean_linker_0, # of connection points: 2
#     Edge 26, Type (0, 0), BuildingBlock: CIFDUS_clean_linker_0, # of connection points: 2
#     Edge 27, Type (0, 0), BuildingBlock: CIFDUS_clean_linker_0, # of connection points: 2
#     Edge 28, Type (0, 0), BuildingBlock: CIFDUS_clean_linker_0, # of connection points: 2
#     Edge 29, Type (0, 0), BuildingBlock: CIFDUS_clean_linker_0, # of connection points: 2
#     Edge 30, Type (0, 0), BuildingBlock: CIFDUS_clean_linker_0, # of connection points: 2
#     Edge 31, Type (0, 0), BuildingBlock: CIFDUS_clean_linker_0, # of connection points: 2
#     Edge 32, Type (0, 0), BuildingBlock: CIFDUS_clean_linker_0, # of connection points: 2
#     Edge 33, Type (0, 0), BuildingBlock: CIFDUS_clean_linker_0, # of connection points: 2
#     Edge 34, Type (0, 0), BuildingBlock: CIFDUS_clean_linker_0, # of connection points: 2
#     Edge 35, Type (0, 0), BuildingBlock: CIFDUS_clean_linker_0, # of connection points: 2
#     Edge 36, Type (0, 0), BuildingBlock: CIFDUS_clean_linker_0, # of connection points: 2
#     Edge 37, Type (0, 0), BuildingBlock: CIFDUS_clean_linker_0, # of connection points: 2
#     Edge 38, Type (0, 0), BuildingBlock: CIFDUS_clean_linker_0, # of connection points: 2
#     Edge 39, Type (0, 0), BuildingBlock: CIFDUS_clean_linker_0, # of connection points: 2
#     Edge 40, Type (0, 0), BuildingBlock: CIFDUS_clean_linker_0, # of connection points: 2
#     Edge 41, Type (0, 0), BuildingBlock: CIFDUS_clean_linker_0, # of connection points: 2
#     Edge 42, Type (0, 0), BuildingBlock: CIFDUS_clean_linker_0, # of connection points: 2
#     Edge 43, Type (0, 0), BuildingBlock: CIFDUS_clean_linker_0, # of connection points: 2
#     Edge 44, Type (0, 0), BuildingBlock: CIFDUS_clean_linker_0, # of connection points: 2
#     Edge 45, Type (0, 0), BuildingBlock: CIFDUS_clean_linker_0, # of connection points: 2
#     Edge 46, Type (0, 0), BuildingBlock: CIFDUS_clean_linker_0, # of connection points: 2
#     Edge 47, Type (0, 0), BuildingBlock: CIFDUS_clean_linker_0, # of connection points: 2
#     Edge 48, Type (0, 0), BuildingBlock: CIFDUS_clean_linker_0, # of connection points: 2
#     Edge 49, Type (0, 0), BuildingBlock: CIFDUS_clean_linker_0, # of connection points: 2
#     Edge 50, Type (0, 0), BuildingBlock: CIFDUS_clean_linker_0, # of connection points: 2
#     Edge 51, Type (0, 0), BuildingBlock: CIFDUS_clean_linker_0, # of connection points: 2
#     Edge 52, Type (0, 0), BuildingBlock: CIFDUS_clean_linker_0, # of connection points: 2
#     Edge 53, Type (0, 0), BuildingBlock: CIFDUS_clean_linker_0, # of connection points: 2
#     Edge 54, Type (0, 0), BuildingBlock: CIFDUS_clean_linker_0, # of connection points: 2
#     Edge 55, Type (0, 0), BuildingBlock: CIFDUS_clean_linker_0, # of connection points: 2
#     Edge 56, Type (0, 0), BuildingBlock: CIFDUS_clean_linker_0, # of connection points: 2
#     Edge 57, Type (0, 0), BuildingBlock: CIFDUS_clean_linker_0, # of connection points: 2
#     Edge 58, Type (0, 0), BuildingBlock: CIFDUS_clean_linker_0, # of connection points: 2
#     Edge 59, Type (0, 0), BuildingBlock: CIFDUS_clean_linker_0, # of connection points: 2
#     Edge 60, Type (0, 0), BuildingBlock: CIFDUS_clean_linker_0, # of connection points: 2
#     Edge 61, Type (0, 0), BuildingBlock: CIFDUS_clean_linker_0, # of connection points: 2
#     Edge 62, Type (0, 0), BuildingBlock: CIFDUS_clean_linker_0, # of connection points: 2
#     Edge 63, Type (0, 0), BuildingBlock: CIFDUS_clean_linker_0, # of connection points: 2
#     Edge 64, Type (0, 0), BuildingBlock: CIFDUS_clean_linker_0, # of connection points: 2
#     Edge 65, Type (0, 0), BuildingBlock: CIFDUS_clean_linker_0, # of connection points: 2
#     Edge 66, Type (0, 0), BuildingBlock: CIFDUS_clean_linker_0, # of connection points: 2
#     Edge 67, Type (0, 0), BuildingBlock: CIFDUS_clean_linker_0, # of connection points: 2
#     Edge 68, Type (0, 0), BuildingBlock: CIFDUS_clean_linker_0, # of connection points: 2
#     Edge 69, Type (0, 0), BuildingBlock: CIFDUS_clean_linker_0, # of connection points: 2
#     Edge 70, Type (0, 0), BuildingBlock: CIFDUS_clean_linker_0, # of connection points: 2
#     Edge 71, Type (0, 0), BuildingBlock: CIFDUS_clean_linker_0, # of connection points: 2
# Relax obj value: 0.081
# Max RMSD: 0.202
# Mean RMSD: 0.202
data_MOF--net-wmi--node1-KUMBOL_clean_sbu_0--edge1-CIFDUS_clean_linker_0
_symmetry_space_group_name_H-M    P1
_symmetry_Int_Tables_number       1
_symmetry_cell_setting            triclinic
loop_
_symmetry_equiv_pos_as_xyz
'x, y, z'
_cell_length_a     34.938153
_cell_length_b     34.944637
_cell_length_c     72.097434
_cell_angle_alpha  90.092297
_cell_angle_beta   89.941242
_cell_angle_gamma 120.00961
loop_
_atom_site_label
_atom_site_type_symbol
_atom_site_fract_x
_atom_site_fract_y
_atom_site_fract_z
_atom_type_partial_charge
Gd0 Gd 0.45447 0.99779 0.08335 0.0
Gd1 Gd 0.56321 0.06949 0.10311 0.0
C2 C 0.66671 0.02517 0.10432 0.0
C3 C 0.67583 0.01884 0.1373 0.0
C4 C 0.62225 0.03885 0.12619 0.0
C5 C 0.63295 0.03528 0.10806 0.0
C6 C 0.64466 0.03197 0.14101 0.0
C7 C 0.68689 1.0155 0.11898 0.0
C8 C 0.68094 0.02729 0.08604 0.0
C9 C 0.66232 0.04008 0.07204 0.0
N10 N 0.61326 0.04542 0.09414 0.0
C11 C 0.62864 0.0492 0.07632 0.0
H12 H 0.61596 0.05965 0.06512 0.0
C13 C 0.58907 0.0659 0.14694 0.0
N14 N 0.59354 0.05359 0.12937 0.0
C15 C 0.60968 0.05876 0.16204 0.0
C16 C 0.63724 0.04124 0.1591 0.0
H17 H 0.57027 0.08237 0.1493 0.0
H18 H 0.71238 1.00716 0.11631 0.0
H19 H 0.4223 0.04004 0.11911 0.0
H20 H 0.707 0.0202 0.08266 0.0
H21 H 0.67376 0.0428 0.05788 0.0
H22 H 0.69304 1.01316 0.14851 0.0
H23 H 0.4396 0.96893 0.03829 0.0
H24 H 0.3405 0.08738 0.09774 0.0
H25 H 0.3771 0.07386 0.12414 0.0
H26 H 0.33243 0.05583 0.03288 0.0
H27 H 0.60537 0.06809 0.17588 0.0
H28 H 0.65453 0.03739 0.17075 0.0
H29 H 0.3243 0.08078 0.06378 0.0
H30 H 0.40382 0.97816 0.01065 0.0
N31 N 0.41302 0.03361 0.08967 0.0
C32 C 0.36047 0.0721 0.09534 0.0
C33 C 0.38099 0.06448 0.11025 0.0
C34 C 0.36556 0.05947 0.07753 0.0
C35 C 0.39213 0.03982 0.07512 0.0
C36 C 0.40667 0.04471 0.10721 0.0
N37 N 0.42182 1.00651 0.05605 0.0
C38 C 0.39723 0.02646 0.05774 0.0
C39 C 0.40205 0.99233 0.02376 0.0
C40 C 0.37849 1.01467 0.02513 0.0
C41 C 0.42273 0.98768 0.03947 0.0
C42 C 0.37518 0.03141 0.04231 0.0
H43 H 0.36184 0.01759 0.01301 0.0
O44 O 0.41466 0.9321 0.07156 0.0
O45 O 0.51344 1.00022 0.09693 0.0
O46 O 0.56295 0.07862 0.07105 0.0
O47 O 0.49789 0.02087 0.0589 0.0
O48 O 0.49041 0.96301 0.0734 0.0
O49 O 0.40008 0.94577 0.09894 0.0
O50 O 0.59667 0.13331 0.11694 0.0
O51 O 0.506 0.07024 0.08927 0.0
O52 O 0.44656 0.98986 0.11374 0.0
O53 O 0.51532 0.03184 0.12762 0.0
O54 O 0.52547 0.09816 0.11561 0.0
O55 O 0.62315 0.12505 0.09132 0.0
C56 C 0.51892 0.97414 0.08659 0.0
C57 C 0.34942 0.05161 0.04458 0.0
C58 C 0.34467 0.06567 0.06217 0.0
C59 C 0.38875 0.91651 0.08586 0.0
C60 C 0.34125 0.88863 0.08216 0.0
C61 C 0.31926 0.90305 0.07029 0.0
C62 C 0.31805 0.84602 0.08992 0.0
C63 C 0.27345 0.8175 0.08537 0.0
C64 C 0.27482 0.87498 0.06592 0.0
C65 C 0.25209 0.83231 0.07327 0.0
C66 C 0.53792 0.05418 0.0569 0.0
C67 C 0.50298 0.0961 0.10107 0.0
C68 C 0.6297 0.15098 0.10537 0.0
C69 C 0.67508 0.17482 0.11348 0.0
C70 C 0.68118 0.1695 0.13239 0.0
C71 C 0.71251 0.20386 0.10267 0.0
C72 C 0.75516 0.22612 0.11079 0.0
C73 C 0.72306 0.1913 0.14033 0.0
C74 C 0.75969 0.21924 0.12966 0.0
C75 C 0.47169 1.00405 0.12847 0.0
H76 H 0.33654 0.93563 0.06418 0.0
H77 H 0.3351 0.83448 0.09888 0.0
H78 H 0.25814 0.88606 0.05657 0.0
H79 H 0.2179 0.81062 0.06939 0.0
H80 H 0.65355 0.14881 0.14123 0.0
H81 H 0.70859 0.20868 0.0881 0.0
H82 H 0.72712 0.18663 0.15488 0.0
H83 H 0.79192 0.23583 0.13623 0.0
Gd84 Gd 0.08182 0.47127 0.08232 0.0
Gd85 Gd 0.02475 0.52552 0.10161 0.0
C86 C 0.0942 0.67265 0.1156 0.0
C87 C 0.0794 0.67146 0.14849 0.0
C88 C 0.05734 0.60263 0.13199 0.0
C89 C 0.07371 0.62602 0.11563 0.0
C90 C 0.05994 0.62525 0.14861 0.0
C91 C 0.09717 0.69516 0.13212 0.0
C92 C 0.10971 0.69531 0.09884 0.0
C93 C 0.10364 0.67154 0.08255 0.0
N94 N 0.06812 0.60327 0.09964 0.0
C95 C 0.08211 0.62544 0.08315 0.0
H96 H 0.07721 0.6082 0.0703 0.0
C97 C 1.0161 0.5336 0.14705 0.0
N98 N 0.03644 0.55775 0.13145 0.0
C99 C 1.01926 0.55466 0.16396 0.0
C100 C 0.04124 0.6007 0.16474 0.0
H101 H 0.9969 0.49792 0.14629 0.0
H102 H 0.11199 0.7308 0.13226 0.0
H103 H 0.02691 0.40435 0.12177 0.0
H104 H 0.12593 0.73105 0.09829 0.0
H105 H 0.11519 0.68867 0.06945 0.0
H106 H 0.07972 0.68913 0.16086 0.0
H107 H 0.05459 0.46646 0.03636 0.0
H108 H 0.99513 0.27402 0.10743 0.0
H109 H 1.00502 0.32939 0.13106 0.0
H110 H 0.98784 0.2756 0.0415 0.0
H111 H 1.00361 0.53535 0.17624 0.0
H112 H 0.04265 0.61694 0.17775 0.0
H113 H 0.98828 0.25416 0.07387 0.0
H114 H 1.02198 0.41147 0.01205 0.0
N115 N 0.04067 0.39654 0.09344 0.0
C116 C 1.00777 0.3081 0.10336 0.0
C117 C 1.01351 0.33925 0.11673 0.0
C118 C 1.01375 0.32041 0.08471 0.0
C119 C 0.0302 0.36538 0.08011 0.0
C120 C 0.0282 0.38289 0.11141 0.0
N121 N 0.04351 0.42039 0.05809 0.0
C122 C 0.03006 0.37742 0.06191 0.0
C123 C 0.02378 0.40129 0.02604 0.0
C124 C 1.00977 0.35722 0.02988 0.0
C125 C 0.04133 0.4326 0.04024 0.0
C126 C 1.01341 0.34486 0.04786 0.0
H127 H 0.99571 0.33271 0.01902 0.0
O128 O 0.1263 0.4793 0.05972 0.0
O129 O 0.087 0.53575 0.08968 0.0
O130 O 0.02587 0.53031 0.06958 0.0
O131 O 0.08225 0.51701 0.06047 0.0
O132 O 0.14004 0.52967 0.09649 0.0
O133 O 0.13589 0.45775 0.08644 0.0
O134 O 0.95514 0.49846 0.10816 0.0
O135 O 1.01456 0.46462 0.08631 0.0
O136 O 0.0888 0.46888 0.11259 0.0
O137 O 0.06312 0.51349 0.1255 0.0
O138 O 0.98188 0.45567 0.11116 0.0
O139 O 0.98702 0.55593 0.09101 0.0
C140 C 0.12492 0.55655 0.09696 0.0
C141 C 0.99992 0.30077 0.05221 0.0
C142 C 1.00045 0.28862 0.0706 0.0
C143 C 0.1529 0.47261 0.07013 0.0
C144 C 0.20056 0.50707 0.06964 0.0
C145 C 0.21359 0.54839 0.06157 0.0
C146 C 0.23342 0.49941 0.07727 0.0
C147 C 0.27826 0.5334 0.0774 0.0
C148 C 0.25743 0.58235 0.06226 0.0
C149 C 0.28951 0.57512 0.07026 0.0
C150 C 0.05395 0.53063 0.05698 0.0
C151 C 0.98445 0.43547 0.09658 0.0
C152 C 0.9505 0.52839 0.09938 0.0
C153 C 0.92556 0.54651 0.10946 0.0
C154 C 0.93358 0.5556 0.12841 0.0
C155 C 0.89132 0.5513 0.10095 0.0
C156 C 0.86521 0.56417 0.11168 0.0
C157 C 0.90765 0.56686 0.13906 0.0
C158 C 0.87342 0.57014 0.13096 0.0
C159 C 0.08194 0.48823 0.12684 0.0
H160 H 0.18993 0.55442 0.05451 0.0
H161 H 0.22432 0.46716 0.08284 0.0
H162 H 0.26676 0.61413 0.05617 0.0
H163 H 0.32365 0.60154 0.06994 0.0
H164 H 0.95893 0.55241 0.13528 0.0
H165 H 0.88508 0.54483 0.08625 0.0
H166 H 0.91357 0.57221 0.15382 0.0
H167 H 0.85294 0.57682 0.14014 0.0
Gd168 Gd 0.61045 0.62976 0.08099 0.0
Gd169 Gd 0.55662 0.5269 0.10806 0.0
C170 C 0.4051 0.4522 0.11425 0.0
C171 C 0.39569 0.46699 0.14631 0.0
C172 C 0.46948 0.49625 0.13325 0.0
C173 C 0.45148 0.4785 0.11623 0.0
C174 C 0.44174 0.48918 0.14869 0.0
C175 C 0.37736 0.44838 0.12908 0.0
C176 C 0.38807 0.42758 0.098 0.0
C177 C 0.41705 0.42716 0.08485 0.0
N178 N 0.47934 0.4814 0.10247 0.0
C179 C 0.46263 0.4534 0.08753 0.0
H180 H 0.48387 0.44954 0.07779 0.0
C181 C 0.53193 0.52297 0.15267 0.0
N182 N 0.51384 0.51504 0.13527 0.0
C183 C 0.5061 0.51777 0.16833 0.0
C184 C 0.4609 0.50176 0.16628 0.0
H185 H 0.56681 0.5346 0.15442 0.0
H186 H 0.34174 0.42891 0.1277 0.0
H187 H 0.68338 0.67018 0.11794 0.0
H188 H 0.35277 0.4067 0.09602 0.0
H189 H 0.40435 0.40595 0.07279 0.0
H190 H 0.37394 0.46171 0.15794 0.0
H191 H 0.59941 0.62437 0.03539 0.0
H192 H 0.8129 0.75033 0.09692 0.0
H193 H 0.76125 0.72038 0.12332 0.0
H194 H 0.79303 0.7404 0.03134 0.0
H195 H 0.521 0.52568 0.18197 0.0
H196 H 0.4408 0.49701 0.17846 0.0
H197 H 0.82454 0.75657 0.06271 0.0
H198 H 0.64508 0.65958 0.00793 0.0
N199 N 0.68721 0.67295 0.08841 0.0
C200 C 0.77791 0.72876 0.09438 0.0
C201 C 0.74888 0.71234 0.10925 0.0
C202 C 0.76135 0.71747 0.0764 0.0
C203 C 0.71535 0.68903 0.07381 0.0
C204 C 0.70378 0.68438 0.10601 0.0
N205 N 0.6538 0.65163 0.05409 0.0
C206 C 0.69802 0.67853 0.05618 0.0
C207 C 0.66072 0.66435 0.02132 0.0
C208 C 0.70642 0.69129 0.02331 0.0
C209 C 0.63486 0.64436 0.03693 0.0
C210 C 0.72566 0.69804 0.04073 0.0
H211 H 0.72712 0.70813 0.01159 0.0
O212 O 0.58077 0.65653 0.06331 0.0
O213 O 0.55015 0.58128 0.0966 0.0
O214 O 0.54436 0.51885 0.0759 0.0
O215 O 0.60677 0.57643 0.06269 0.0
O216 O 0.53956 0.59885 0.07071 0.0
O217 O 0.61733 0.69488 0.08782 0.0
O218 O 0.56078 0.4767 0.12447 0.0
O219 O 0.61933 0.57587 0.09405 0.0
O220 O 0.61146 0.64932 0.1099 0.0
O221 O 0.57703 0.58704 0.12877 0.0
O222 O 0.62357 0.55593 0.12087 0.0
O223 O 0.56532 0.47527 0.09485 0.0
C224 C 0.5205 0.57678 0.08547 0.0
C225 C 0.77137 0.72552 0.04315 0.0
C226 C 0.78927 0.73484 0.06098 0.0
C227 C 0.59222 0.69116 0.07366 0.0
C228 C 0.57896 0.72361 0.06805 0.0
C229 C 0.55643 0.71695 0.0511 0.0
C230 C 0.5828 0.7572 0.08017 0.0
C231 C 0.56262 0.78224 0.07551 0.0
C232 C 0.53703 0.74203 0.0465 0.0
C233 C 0.53969 0.77414 0.05867 0.0
C234 C 0.56998 0.53836 0.06115 0.0
C235 C 0.64602 0.57935 0.10687 0.0
C236 C 0.56182 0.4543 0.11022 0.0
C237 C 0.52964 0.40581 0.11029 0.0
C238 C 0.48575 0.39066 0.11567 0.0
C239 C 0.5421 0.37423 0.10522 0.0
C240 C 0.51031 0.32833 0.10492 0.0
C241 C 0.45437 0.34581 0.11508 0.0
C242 C 0.46635 0.31495 0.10962 0.0
C243 C 0.59836 0.63115 0.12624 0.0
H244 H 0.5528 0.69151 0.04147 0.0
H245 H 0.60017 0.76304 0.09324 0.0
H246 H 0.51964 0.7364 0.03346 0.0
H247 H 0.52478 0.79366 0.0547 0.0
H248 H 0.47563 0.41349 0.12051 0.0
H249 H 0.5762 0.38519 0.1017 0.0
H250 H 0.42064 0.3348 0.11921 0.0
H251 H 0.4415 0.28021 0.1099 0.0
Gd252 Gd 1.01122 0.43618 0.91821 0.0
Gd253 Gd 0.06852 0.55076 0.90477 0.0
C254 C 1.00411 0.63737 0.90225 0.0
C255 C 0.99969 0.64603 0.86916 0.0
C256 C 0.02587 0.59781 0.88098 0.0
C257 C 1.02041 0.60806 0.89902 0.0
C258 C 1.01507 0.61653 0.86589 0.0
C259 C 0.99484 0.65697 0.88727 0.0
C260 C 0.99631 0.6454 0.92041 0.0
C261 C 1.00371 0.62379 0.93487 0.0
N262 N 0.0294 0.58835 0.91332 0.0
C263 C 1.02038 0.59567 0.93117 0.0
H264 H 0.02493 0.58029 0.94311 0.0
C265 C 0.05345 0.5649 0.86031 0.0
N266 N 0.04357 0.57139 0.87807 0.0
C267 C 0.04124 0.58083 0.84506 0.0
C268 C 1.02148 0.60632 0.84785 0.0
H269 H 0.07278 0.54935 0.85751 0.0
H270 H 0.98272 0.67972 0.88956 0.0
H271 H 0.09015 0.43736 0.88949 0.0
H272 H 0.98354 0.66734 0.92338 0.0
H273 H 0.99678 0.62896 0.949 0.0
H274 H 0.99167 0.66068 0.85773 0.0
H275 H 0.95487 0.39879 0.95776 0.0
H276 H 0.1505 0.3739 0.91732 0.0
H277 H 0.14159 0.40916 0.88928 0.0
H278 H 0.07849 0.33574 0.97624 0.0
H279 H 0.04851 0.5747 0.83113 0.0
H280 H 1.01262 0.61901 0.83597 0.0
H281 H 0.12777 0.348 0.94984 0.0
H282 H 0.95714 0.36053 0.98612 0.0
N283 N 0.06539 0.41422 0.91656 0.0
C284 C 0.12646 0.38486 0.91725 0.0
C285 C 0.12118 0.40423 0.90135 0.0
C286 C 0.10065 0.37984 0.93287 0.0
C287 C 0.06989 0.3949 0.93212 0.0
C288 C 0.09051 0.41876 0.90128 0.0
N289 N 1.01225 0.40195 0.94595 0.0
C290 C 0.04261 0.38862 0.94718 0.0
C291 C 0.98169 0.36875 0.97538 0.0
C292 C 1.01406 0.35679 0.97725 0.0
C293 C 0.98074 0.39072 0.95937 0.0
C294 C 0.04473 0.36628 0.96306 0.0
H295 H 1.01432 0.33879 0.98934 0.0
O296 O 0.94023 0.39303 0.91714 0.0
O297 O 1.00096 0.49278 0.90987 0.0
O298 O 0.06248 0.54672 0.93653 0.0
O299 O 0.03581 0.47298 0.94513 0.0
O300 O 0.97068 0.45646 0.93398 0.0
O301 O 0.98223 0.36965 0.90634 0.0
O302 O 0.12541 0.59267 0.88693 0.0
O303 O 0.07621 0.49141 0.90712 0.0
O304 O 0.99154 0.44295 0.88974 0.0
O305 O 0.05763 0.49974 0.88069 0.0
O306 O 0.11864 0.54673 0.92247 0.0
O307 O 0.12198 0.61411 0.91447 0.0
C308 C 0.97382 0.48703 0.92294 0.0
C309 C 0.07619 0.35257 0.96405 0.0
C310 C 0.10417 0.35946 0.94901 0.0
C311 C 0.9417 0.35986 0.90997 0.0
C312 C 0.91074 0.31666 0.91839 0.0
C313 C 0.92635 0.29421 0.92934 0.0
C314 C 0.86456 0.29932 0.91662 0.0
C315 C 0.83449 0.26034 0.92602 0.0
C316 C 0.89661 0.25529 0.93844 0.0
C317 C 0.85112 0.2386 0.93689 0.0
C318 C 0.05068 0.51501 0.94918 0.0
C319 C 0.11182 0.5091 0.91669 0.0
C320 C 0.14469 0.62422 0.89918 0.0
C321 C 0.16448 0.67121 0.89304 0.0
C322 C 0.13933 0.68434 0.88253 0.0
C323 C 0.2081 0.70386 0.89832 0.0
C324 C 0.22514 0.74895 0.89347 0.0
C325 C 0.1558 0.7286 0.87794 0.0
C326 C 0.19814 0.76064 0.88345 0.0
C327 C 1.01995 0.46242 0.87662 0.0
H328 H 0.96148 0.3071 0.93113 0.0
H329 H 0.85217 0.31697 0.90854 0.0
H330 H 0.90889 0.23833 0.94699 0.0
H331 H 0.82874 0.20877 0.94437 0.0
H332 H 0.1069 0.66046 0.87779 0.0
H333 H 0.22866 0.69426 0.90594 0.0
H334 H 0.13579 0.73805 0.86984 0.0
H335 H 0.21057 0.79461 0.87924 0.0
Gd336 Gd 0.64819 0.60037 0.92016 0.0
Gd337 Gd 0.53211 0.5446 0.90736 0.0
C338 C 0.45748 0.39529 0.89631 0.0
C339 C 0.44907 0.39198 0.86289 0.0
C340 C 0.4888 0.46338 0.87856 0.0
C341 C 0.48152 0.44208 0.89556 0.0
C342 C 0.47155 0.43826 0.86213 0.0
C343 C 0.44193 0.37056 0.87992 0.0
C344 C 0.44937 0.3744 0.91351 0.0
C345 C 0.46458 0.3998 0.92952 0.0
N346 N 0.49679 0.46668 0.91134 0.0
C347 C 0.48792 0.44582 0.92823 0.0
H348 H 0.49866 0.46343 0.94108 0.0
C349 C 0.5087 0.52921 0.86208 0.0
N350 N 0.50942 0.5083 0.87815 0.0
C351 C 0.49338 0.50583 0.84548 0.0
C352 C 0.47537 0.4602 0.84544 0.0
H353 H 0.52085 0.56442 0.86204 0.0
H354 H 0.42372 0.33475 0.88032 0.0
H355 H 0.67782 0.66706 0.88089 0.0
H356 H 0.43133 0.33868 0.91461 0.0
H357 H 0.45849 0.38392 0.94293 0.0
H358 H 0.43604 0.37242 0.8504 0.0
H359 H 0.67572 0.605 0.9647 0.0
H360 H 0.71155 0.79636 0.89806 0.0
H361 H 0.69987 0.74275 0.87331 0.0
H362 H 0.71549 0.79005 0.96405 0.0
H363 H 0.4946 0.52295 0.8328 0.0
H364 H 0.46269 0.44204 0.8326 0.0
H365 H 0.7157 0.81328 0.93189 0.0
H366 H 0.70341 0.6575 0.98971 0.0
N367 N 0.67448 0.6746 0.9103 0.0
C368 C 0.70145 0.76251 0.90165 0.0
C369 C 0.69499 0.73239 0.88767 0.0
C370 C 0.69646 0.74902 0.92013 0.0
C371 C 0.68299 0.70439 0.9241 0.0
C372 C 0.68193 0.68867 0.89221 0.0
N373 N 0.67013 0.64855 0.94563 0.0
C374 C 0.6809 0.69096 0.94227 0.0
C375 C 0.69531 0.66748 0.97689 0.0
C376 C 0.70107 0.70968 0.97436 0.0
C377 C 0.67964 0.63734 0.96243 0.0
C378 C 0.69486 0.72225 0.95677 0.0
H379 H 0.71293 0.73334 0.9856 0.0
O380 O 0.6846 0.57424 0.9342 0.0
O381 O 0.58549 0.53468 0.91788 0.0
O382 O 0.53358 0.53732 0.93925 0.0
O383 O 0.60861 0.57441 0.94632 0.0
O384 O 0.64199 0.53892 0.90676 0.0
O385 O 0.71842 0.62763 0.91403 0.0
O386 O 0.49219 0.57031 0.89521 0.0
O387 O 0.59422 0.61097 0.90871 0.0
O388 O 0.65271 0.59568 0.8905 0.0
O389 O 0.57937 0.56486 0.88107 0.0
O390 O 0.54024 0.60414 0.92284 0.0
O391 O 0.46503 0.52136 0.91702 0.0
C392 C 0.60048 0.51321 0.90945 0.0
C393 C 0.70556 0.76587 0.953 0.0
C394 C 0.70597 0.77914 0.9347 0.0
C395 C 0.72065 0.59894 0.92487 0.0
C396 C 0.76262 0.60753 0.93281 0.0
C397 C 0.77509 0.62421 0.95085 0.0
C398 C 0.78699 0.59202 0.92308 0.0
C399 C 0.8227 0.59158 0.9316 0.0
C400 C 0.81142 0.62487 0.9592 0.0
C401 C 0.8349 0.60832 0.94972 0.0
C402 C 0.56682 0.55145 0.95133 0.0
C403 C 0.57942 0.63237 0.91756 0.0
C404 C 0.45758 0.54551 0.90544 0.0
C405 C 0.41338 0.52408 0.89645 0.0
C406 C 0.40443 0.49682 0.88089 0.0
C407 C 0.37913 0.52997 0.90381 0.0
C408 C 0.33686 0.50943 0.89538 0.0
C409 C 0.3631 0.47684 0.87242 0.0
C410 C 0.32957 0.48304 0.87955 0.0
C411 C 0.62263 0.58106 0.8776 0.0
H412 H 0.75623 0.6355 0.95864 0.0
H413 H 0.77625 0.57738 0.90943 0.0
H414 H 0.82055 0.63695 0.97326 0.0
H415 H 0.86193 0.60746 0.95669 0.0
H416 H 0.42887 0.49025 0.87528 0.0
H417 H 0.38541 0.55057 0.91596 0.0
H418 H 0.35686 0.45596 0.86039 0.0
H419 H 0.29749 0.46621 0.8729 0.0
Gd420 Gd 0.48155 0.07524 0.91802 0.0
Gd421 Gd 0.54219 0.02047 0.9018 0.0
C422 C 0.69198 0.08335 0.89471 0.0
C423 C 0.69836 0.07345 0.86178 0.0
C424 C 0.62668 0.0529 0.87527 0.0
C425 C 0.64587 0.0653 0.89262 0.0
C426 C 0.6527 0.0562 0.85967 0.0
C427 C 0.71807 0.08767 0.87919 0.0
C428 C 0.71045 0.0955 0.91241 0.0
C429 C 0.68304 0.08851 0.92757 0.0
N430 N 0.61941 0.05866 0.90752 0.0
C431 C 0.63746 0.06931 0.92494 0.0
H432 H 0.61749 0.06409 0.93703 0.0
C433 C 0.5613 1.01518 0.85747 0.0
N434 N 0.58207 0.03367 0.87389 0.0
C435 C 0.58577 0.01899 0.84154 0.0
C436 C 0.63172 0.03972 0.84262 0.0
H437 H 0.5256 0.99719 0.85675 0.0
H438 H 0.75336 0.1008 0.88059 0.0
H439 H 0.39758 1.01325 0.88801 0.0
H440 H 0.7457 0.10985 0.91454 0.0
H441 H 0.69694 0.09758 0.94137 0.0
H442 H 0.71856 0.07466 0.85018 0.0
H443 H 0.50547 0.13541 0.95625 0.0
H444 H 0.27686 0.95189 0.91845 0.0
H445 H 0.31755 0.96421 0.88898 0.0
H446 H 0.31942 0.01861 0.97851 0.0
H447 H 0.5691 1.0049 0.82855 0.0
H448 H 0.65052 0.0415 0.83037 0.0
H449 H 0.27807 0.97147 0.95203 0.0
H450 H 0.46865 0.13787 0.98521 0.0
N451 N 0.40396 0.02813 0.91701 0.0
C452 C 0.31239 0.97349 0.9182 0.0
C453 C 0.3352 0.98049 0.90153 0.0
C454 C 0.33548 0.9959 0.93416 0.0
C455 C 0.38179 0.02358 0.93308 0.0
C456 C 0.38102 1.00858 0.90111 0.0
N457 N 0.44886 0.07805 0.94597 0.0
C458 C 0.40502 0.04946 0.94805 0.0
C459 C 0.45051 0.11242 0.97499 0.0
C460 C 0.40633 0.08068 0.97812 0.0
C461 C 0.47124 0.11097 0.9586 0.0
C462 C 0.38267 0.0493 0.96437 0.0
H463 H 0.39031 0.08199 0.99079 0.0
O464 O 0.51488 0.14714 0.91755 0.0
O465 O 0.54584 0.08371 0.90811 0.0
O466 O 0.54177 0.02583 0.93418 0.0
O467 O 0.48916 0.04473 0.94381 0.0
O468 O 0.54896 0.12233 0.9304 0.0
O469 O 0.45167 0.10953 0.90427 0.0
O470 O 0.51832 0.95245 0.89281 0.0
O471 O 0.47662 1.00863 0.91246 0.0
O472 O 0.47331 0.06409 0.88758 0.0
O473 O 0.53551 0.06198 0.87777 0.0
O474 O 0.4777 0.97766 0.88801 0.0
O475 O 0.56074 0.97708 0.91653 0.0
C476 C 0.57217 0.11378 0.91897 0.0
C477 C 0.33707 0.01973 0.96597 0.0
C478 C 0.31352 0.99296 0.95088 0.0
C479 C 0.48275 0.14871 0.90935 0.0
C480 C 0.46945 0.1786 0.91806 0.0
C481 C 0.43162 0.16152 0.9293 0.0
C482 C 0.49676 0.22489 0.91639 0.0
C483 C 0.48682 0.25367 0.92631 0.0
C484 C 0.42162 0.18991 0.93905 0.0
C485 C 0.44907 0.23559 0.93767 0.0
C486 C 0.51915 0.03318 0.94743 0.0
C487 C 0.45223 0.9794 0.90053 0.0
C488 C 0.54032 0.94393 0.9051 0.0
C489 C 0.56519 0.92206 0.89805 0.0
C490 C 0.59247 0.93989 0.88249 0.0
C491 C 0.56074 0.88259 0.90595 0.0
C492 C 0.58376 0.86205 0.89821 0.0
C493 C 0.61608 0.92102 0.87526 0.0
C494 C 0.61216 0.8829 0.88308 0.0
C495 C 0.50297 0.07119 0.87491 0.0
H496 H 0.41012 0.12623 0.9308 0.0
H497 H 0.52633 0.23839 0.90791 0.0
H498 H 0.39266 0.17643 0.94785 0.0
H499 H 0.44067 0.25694 0.94545 0.0
H500 H 0.59524 0.96824 0.87563 0.0
H501 H 0.53883 0.86753 0.91766 0.0
H502 H 0.63741 0.93594 0.86338 0.0
H503 H 0.63173 0.86979 0.87714 0.0
Gd504 Gd 0.11553 0.33903 0.41678 0.0
Gd505 Gd 0.22958 0.40212 0.43559 0.0
C506 C 0.30394 0.3259 0.44413 0.0
C507 C 0.29229 0.30791 0.47687 0.0
C508 C 0.26398 0.35199 0.4627 0.0
C509 C 0.2793 0.34779 0.44569 0.0
C510 C 0.27285 0.3345 0.4787 0.0
C511 C 0.30804 0.30374 0.45956 0.0
C512 C 0.32641 0.32968 0.42758 0.0
C513 C 0.32588 0.35671 0.41351 0.0
N514 N 0.27541 0.37038 0.43124 0.0
C515 C 0.30059 0.37729 0.41565 0.0
H516 H 0.30131 0.39826 0.40455 0.0
C517 C 0.24598 0.39679 0.48089 0.0
N518 N 0.2469 0.37922 0.46395 0.0
C519 C 0.25381 0.3801 0.49719 0.0
C520 C 0.26551 0.34739 0.4961 0.0
H521 H 0.23639 0.42178 0.4818 0.0
H522 H 0.32575 0.28572 0.4585 0.0
H523 H 0.09918 0.39682 0.45369 0.0
H524 H 0.34592 0.31367 0.42586 0.0
H525 H 0.34464 0.36145 0.40092 0.0
H526 H 0.29798 0.29298 0.48892 0.0
H527 H 0.10296 0.31943 0.37044 0.0
H528 H 1.00276 0.42808 0.43609 0.0
H529 H 0.04939 0.4236 0.46059 0.0
H530 H 0.9883 0.39792 0.37135 0.0
H531 H 0.25054 0.39228 0.51057 0.0
H532 H 0.2716 0.33456 0.50873 0.0
H533 H 0.98167 0.42001 0.40292 0.0
H534 H 0.06416 0.32982 0.34456 0.0
N535 N 0.07798 0.37824 0.42533 0.0
C536 C 0.02357 0.41409 0.43294 0.0
C537 C 0.04963 0.41142 0.4468 0.0
C538 C 0.02623 0.40068 0.41497 0.0
C539 C 0.05391 0.38253 0.41148 0.0
C540 C 0.07727 0.3944 0.44272 0.0
N541 N 0.08442 0.35293 0.39032 0.0
C542 C 0.05802 0.37052 0.39354 0.0
C543 C 0.06285 0.34226 0.35816 0.0
C544 C 0.03715 0.36182 0.36116 0.0
C545 C 0.08566 0.33733 0.37296 0.0
C546 C 0.03404 0.37575 0.37893 0.0
H547 H 1.01858 0.36487 0.34987 0.0
O548 O 0.08304 0.27718 0.4014 0.0
O549 O 0.17945 0.34139 0.42252 0.0
O550 O 0.23214 0.39435 0.40355 0.0
O551 O 0.15972 0.35967 0.39204 0.0
O552 O 0.12455 0.28342 0.42861 0.0
O553 O 0.05202 0.28577 0.42615 0.0
O554 O 0.27251 0.46548 0.44896 0.0
O555 O 0.17501 0.40746 0.42124 0.0
O556 O 0.10992 0.34031 0.44666 0.0
O557 O 0.17908 0.36175 0.45907 0.0
O558 O 0.19952 0.44227 0.44529 0.0
O559 O 0.28838 0.45388 0.4216 0.0
C560 C 0.16677 0.30313 0.42839 0.0
C561 C 1.00674 0.39369 0.38246 0.0
C562 C 1.00278 0.40603 0.40043 0.0
C563 C 0.04998 0.25887 0.41308 0.0
C564 C 1.0061 0.22593 0.40609 0.0
C565 C 0.98714 0.23459 0.39072 0.0
C566 C 0.98349 0.18421 0.41475 0.0
C567 C 0.94271 0.1508 0.40776 0.0
C568 C 0.9465 0.20172 0.38383 0.0
C569 C 0.92454 0.16005 0.39217 0.0
C570 C 0.20277 0.3787 0.38965 0.0
C571 C 0.17525 0.43778 0.43106 0.0
C572 C 0.30226 0.47974 0.43595 0.0
C573 C 0.34864 0.49606 0.44182 0.0
C574 C 0.35758 0.47375 0.45584 0.0
C575 C 0.38433 0.53368 0.43348 0.0
C576 C 0.42835 0.54794 0.43896 0.0
C577 C 0.40088 0.48813 0.46141 0.0
C578 C 0.43602 0.52476 0.45299 0.0
C579 C 0.13545 0.34502 0.46065 0.0
H580 H 1.00373 0.26649 0.38401 0.0
H581 H 0.99824 0.17736 0.42659 0.0
H582 H 0.93206 0.20847 0.37189 0.0
H583 H 0.89314 0.13506 0.38652 0.0
H584 H 0.33112 0.44518 0.46257 0.0
H585 H 0.37796 0.55148 0.42276 0.0
H586 H 0.40723 0.47081 0.47233 0.0
H587 H 0.46937 0.5355 0.45766 0.0
Gd588 Gd 0.74707 0.80622 0.42216 0.0
Gd589 Gd 0.69321 0.86761 0.4367 0.0
C590 C 0.7681 0.01771 0.44575 0.0
C591 C 0.75557 0.02326 0.4785 0.0
C592 C 0.72896 0.95124 0.46417 0.0
C593 C 0.74597 0.97116 0.44732 0.0
C594 C 0.73323 0.97706 0.47994 0.0
C595 C 0.77336 0.04361 0.46148 0.0
C596 C 0.78271 0.03681 0.42828 0.0
C597 C 0.77453 1.00969 0.41289 0.0
N598 N 0.73834 0.945 0.43223 0.0
C599 C 0.7519 0.9638 0.41507 0.0
H600 H 0.74629 0.94413 0.40285 0.0
C601 C 0.68417 0.88553 0.48082 0.0
N602 N 0.70556 0.90653 0.46486 0.0
C603 C 0.68846 0.90963 0.49695 0.0
C604 C 0.71322 0.95565 0.49653 0.0
H605 H 0.66373 0.84993 0.48107 0.0
H606 H 0.78997 0.07932 0.4605 0.0
H607 H 0.68077 0.72206 0.45362 0.0
H608 H 0.79995 0.07236 0.42651 0.0
H609 H 0.78562 0.0241 0.39928 0.0
H610 H 0.75793 0.04337 0.49035 0.0
H611 H 0.79587 0.8281 0.3803 0.0
H612 H 0.63453 0.59959 0.42643 0.0
H613 H 0.64102 0.64285 0.45443 0.0
H614 H 0.6906 0.63742 0.36495 0.0
H615 H 0.67195 0.89272 0.50958 0.0
H616 H 0.71573 0.97434 0.50893 0.0
H617 H 0.65166 0.59798 0.39315 0.0
H618 H 0.79359 0.78881 0.3518 0.0
N619 N 0.70111 0.7279 0.42499 0.0
C620 C 0.65322 0.63537 0.42586 0.0
C621 C 0.65699 0.65963 0.44169 0.0
C622 C 0.6733 0.65744 0.40944 0.0
C623 C 0.69748 0.70427 0.40936 0.0
C624 C 0.68087 0.7057 0.44106 0.0
N625 N 0.74412 0.77134 0.39368 0.0
C626 C 0.71897 0.72656 0.39328 0.0
C627 C 0.77164 0.77088 0.36312 0.0
C628 C 0.74327 0.72545 0.36188 0.0
C629 C 0.77251 0.79313 0.37931 0.0
C630 C 0.71748 0.70251 0.37721 0.0
H631 H 0.74308 0.70815 0.34936 0.0
O632 O 0.81605 0.83577 0.41446 0.0
O633 O 0.75344 0.87316 0.42496 0.0
O634 O 0.69698 0.86919 0.40459 0.0
O635 O 0.73292 0.83067 0.39579 0.0
O636 O 0.80391 0.86755 0.43544 0.0
O637 O 0.78766 0.78156 0.43427 0.0
O638 O 0.62915 0.85609 0.44681 0.0
O639 O 0.67964 0.80142 0.42559 0.0
O640 O 0.72796 0.79421 0.45153 0.0
O641 O 0.73249 0.85884 0.46132 0.0
O642 O 0.65085 0.80249 0.45029 0.0
O643 O 0.64951 0.87996 0.41926 0.0
C644 C 0.79077 0.89525 0.43249 0.0
C645 C 0.69225 0.65624 0.37719 0.0
C646 C 0.67026 0.63379 0.39326 0.0
C647 C 0.82307 0.80981 0.42512 0.0
C648 C 0.8521 0.7945 0.41739 0.0
C649 C 0.83463 0.75452 0.40764 0.0
C650 C 0.89837 0.82184 0.41891 0.0
C651 C 0.92689 0.80949 0.41045 0.0
C652 C 0.8629 0.74212 0.39931 0.0
C653 C 0.9087 0.76949 0.4006 0.0
C654 C 0.71418 0.85438 0.39184 0.0
C655 C 0.64932 0.77696 0.43706 0.0
C656 C 0.61951 0.87021 0.4319 0.0
C657 C 0.60292 0.90174 0.43434 0.0
C658 C 0.63313 0.94703 0.43631 0.0
C659 C 0.55703 0.88723 0.43427 0.0
C660 C 0.54214 0.91819 0.43569 0.0
C661 C 0.61851 0.97738 0.43807 0.0
C662 C 0.57346 0.9632 0.43762 0.0
C663 C 0.73795 0.82404 0.46433 0.0
H664 H 0.79928 0.73316 0.4063 0.0
H665 H 0.91211 0.85318 0.42617 0.0
H666 H 0.84927 0.71142 0.39164 0.0
H667 H 0.93006 0.75958 0.39379 0.0
H668 H 0.66815 0.95912 0.43628 0.0
H669 H 0.53319 0.85233 0.43293 0.0
H670 H 0.64228 1.01218 0.43971 0.0
H671 H 0.56294 0.98743 0.43913 0.0
Gd672 Gd 0.27849 0.9707 0.41866 0.0
Gd673 Gd 0.21672 0.8562 0.43654 0.0
C674 C 0.06791 0.76797 0.44667 0.0
C675 C 0.06549 0.75328 0.47964 0.0
C676 C 0.13559 0.80316 0.46464 0.0
C677 C 0.11425 0.79608 0.44778 0.0
C678 C 0.11143 0.78141 0.48074 0.0
C679 C 0.04372 0.74694 0.46269 0.0
C680 C 0.04723 0.76097 0.42943 0.0
C681 C 0.07266 0.78086 0.41375 0.0
N682 N 0.13877 0.81575 0.43241 0.0
C683 C 0.11845 0.80754 0.41541 0.0
H684 H 0.1366 0.82178 0.40288 0.0
C685 C 0.20288 0.83309 0.48119 0.0
N686 N 0.18021 0.82929 0.46516 0.0
C687 C 0.1803 0.81313 0.49757 0.0
C688 C 0.13433 0.78729 0.49737 0.0
H689 H 0.23861 0.85138 0.48124 0.0
H690 H 1.00827 0.72496 0.46204 0.0
H691 H 0.34653 0.98815 0.45622 0.0
H692 H 1.01176 0.73994 0.42805 0.0
H693 H 0.05704 0.77547 0.40029 0.0
H694 H 0.04659 0.73551 0.49172 0.0
H695 H 0.27184 0.99115 0.37414 0.0
H696 H 0.47951 0.05959 0.43742 0.0
H697 H 0.42522 0.02406 0.46263 0.0
H698 H 0.46672 0.08193 0.37293 0.0
H699 H 0.19845 0.8169 0.51024 0.0
H700 H 0.11694 0.77113 0.51 0.0
H701 H 0.4946 0.08073 0.40405 0.0
H702 H 0.32166 0.03019 0.34816 0.0
N703 N 0.35397 1.00214 0.42705 0.0
C704 C 0.44449 0.04373 0.43436 0.0
C705 C 0.41399 0.02386 0.44863 0.0
C706 C 0.42952 0.04335 0.41637 0.0
C707 C 0.38348 0.02194 0.41305 0.0
C708 C 0.36883 1.00365 0.4448 0.0
N709 N 0.32343 1.00066 0.39245 0.0
C710 C 0.36777 0.02127 0.39532 0.0
C711 C 0.33525 0.02681 0.3611 0.0
C712 C 0.38088 0.0463 0.36356 0.0
C713 C 0.30692 1.0042 0.37578 0.0
C714 C 0.39767 0.0438 0.38078 0.0
H715 H 0.40325 0.06479 0.35242 0.0
O716 O 0.24606 1.00774 0.41242 0.0
O717 O 0.21461 0.91624 0.42949 0.0
O718 O 0.21163 0.86045 0.40444 0.0
O719 O 0.26943 0.92799 0.39396 0.0
O720 O 0.21099 0.95078 0.4069 0.0
O721 O 0.3057 0.03881 0.42881 0.0
O722 O 0.24526 0.81506 0.44325 0.0
O723 O 0.28131 0.90933 0.42529 0.0
O724 O 0.27613 0.97307 0.44945 0.0
O725 O 0.2233 0.90369 0.46072 0.0
O726 O 0.28253 0.87814 0.44956 0.0
O727 O 0.19604 0.79382 0.42184 0.0
C728 C 0.1881 0.92014 0.41882 0.0
C729 C 0.44336 0.0647 0.384 0.0
C730 C 0.45924 0.06418 0.40173 0.0
C731 C 0.27383 0.04284 0.42144 0.0
C732 C 0.28343 0.08426 0.41242 0.0
C733 C 0.30048 0.09345 0.39441 0.0
C734 C 0.26561 0.10895 0.42014 0.0
C735 C 0.26146 0.14041 0.40938 0.0
C736 C 0.29559 0.12335 0.38344 0.0
C737 C 0.27503 0.14552 0.3906 0.0
C738 C 0.23555 0.88812 0.39084 0.0
C739 C 0.30674 0.90575 0.4369 0.0
C740 C 0.2203 0.78327 0.43192 0.0
C741 C 0.19888 0.73783 0.43978 0.0
C742 C 0.1831 0.7307 0.4581 0.0
C743 C 0.19563 0.70164 0.42953 0.0
C744 C 0.17605 0.6591 0.43766 0.0
C745 C 0.16411 0.68897 0.46611 0.0
C746 C 0.16049 0.65342 0.45599 0.0
C747 C 0.25125 0.94719 0.46287 0.0
H748 H 0.31557 0.07601 0.3885 0.0
H749 H 0.25374 0.10217 0.43429 0.0
H750 H 0.30656 0.12839 0.36915 0.0
H751 H 0.26953 0.16619 0.38111 0.0
H752 H 0.18598 0.75747 0.46644 0.0
H753 H 0.20796 0.70645 0.41544 0.0
H754 H 0.1523 0.68421 0.48027 0.0
H755 H 0.14566 0.62123 0.46254 0.0
Gd756 Gd 0.67536 0.77607 0.25765 0.0
Gd757 Gd 0.73678 0.88918 0.23886 0.0
C758 C 0.66543 0.96799 0.23042 0.0
C759 C 0.65386 0.96298 0.19713 0.0
C760 C 0.6922 0.92884 0.21164 0.0
C761 C 0.68579 0.94192 0.22885 0.0
C762 C 0.678 0.94092 0.1955 0.0
C763 C 0.64783 0.97681 0.21458 0.0
C764 C 0.66563 0.98651 0.24765 0.0
C765 C 0.68714 0.98014 0.26257 0.0
N766 N 0.70364 0.93318 0.24381 0.0
C767 C 0.70625 0.95355 0.26039 0.0
H768 H 0.72305 0.9498 0.27213 0.0
C769 C 0.73338 0.90541 0.1938 0.0
N770 N 0.71692 0.90895 0.21058 0.0
C771 C 0.71955 0.91604 0.17737 0.0
C772 C 0.69084 0.93291 0.17821 0.0
H773 H 0.75574 0.89247 0.19313 0.0
H774 H 0.63127 0.99596 0.21557 0.0
H775 H 0.66427 0.69654 0.22718 0.0
H776 H 0.65075 1.00704 0.2494 0.0
H777 H 0.68886 0.99555 0.27582 0.0
H778 H 0.64158 0.9713 0.18492 0.0
H779 H 0.69183 0.79314 0.30469 0.0
H780 H 0.76363 0.66324 0.23928 0.0
H781 H 0.70194 0.65512 0.21971 0.0
H782 H 0.82167 0.73426 0.29738 0.0
H783 H 0.73123 0.91146 0.16411 0.0
H784 H 0.68061 0.94169 0.16549 0.0
H785 H 0.80911 0.69412 0.26798 0.0
H786 H 0.74442 0.79713 0.32778 0.0
N787 N 0.70694 0.73186 0.24984 0.0
C788 C 0.7476 0.68217 0.2425 0.0
C789 C 0.7129 0.67756 0.23141 0.0
C790 C 0.75959 0.7093 0.25819 0.0
C791 C 0.7377 0.73335 0.26177 0.0
C792 C 0.69207 0.7018 0.23558 0.0
N793 N 0.7192 0.77412 0.28236 0.0
C794 C 0.74468 0.75591 0.27836 0.0
C795 C 0.74588 0.78662 0.3138 0.0
C796 C 0.77551 0.77239 0.30931 0.0
C797 C 0.71693 0.78589 0.30029 0.0
C798 C 0.77395 0.7551 0.29167 0.0
H799 H 0.79742 0.77215 0.31986 0.0
O800 O 0.63234 0.73162 0.27923 0.0
O801 O 0.67344 0.83753 0.25072 0.0
O802 O 0.73519 0.88914 0.27115 0.0
O803 O 0.67385 0.82178 0.27921 0.0
O804 O 0.61756 0.77899 0.24447 0.0
O805 O 0.61563 0.71525 0.24983 0.0
O806 O 0.80215 0.93214 0.22698 0.0
O807 O 0.74351 0.83307 0.25083 0.0
O808 O 0.68717 0.77351 0.22753 0.0
O809 O 0.69267 0.8379 0.21601 0.0
O810 O 0.77702 0.86257 0.22623 0.0
O811 O 0.78614 0.94913 0.25321 0.0
C812 C 0.63504 0.82127 0.24402 0.0
C813 C 0.79861 0.73456 0.28742 0.0
C814 C 0.79137 0.7116 0.27071 0.0
C815 C 0.60485 0.70381 0.26701 0.0
C816 C 0.56468 0.66258 0.27238 0.0
C817 C 0.56792 0.63641 0.28631 0.0
C818 C 0.52374 0.64799 0.26332 0.0
C819 C 0.4864 0.60768 0.26857 0.0
C820 C 0.53129 0.59607 0.29112 0.0
C821 C 0.49083 0.58181 0.28235 0.0
C822 C 0.70448 0.86267 0.28331 0.0
C823 C 0.77027 0.83345 0.23864 0.0
C824 C 0.81507 0.9621 0.23992 0.0
C825 C 0.83469 1.00904 0.23368 0.0
C826 C 0.81402 0.01896 0.2193 0.0
C827 C 0.87395 0.04413 0.24169 0.0
C828 C 0.89135 0.08836 0.23536 0.0
C829 C 0.8313 0.06217 0.21298 0.0
C830 C 0.86939 0.09651 0.22095 0.0
C831 C 0.68033 0.79505 0.21435 0.0
H832 H 0.5991 0.64687 0.29328 0.0
H833 H 0.52069 0.6683 0.25274 0.0
H834 H 0.53414 0.57595 0.30181 0.0
H835 H 0.4625 0.55085 0.28664 0.0
H836 H 0.78448 0.99319 0.21281 0.0
H837 H 0.89055 0.03718 0.25274 0.0
H838 H 0.81501 0.0691 0.2018 0.0
H839 H 0.88207 0.12975 0.21571 0.0
Gd840 Gd 0.30631 0.92491 0.25586 0.0
Gd841 Gd 0.19549 0.87746 0.23664 0.0
C842 C 0.12495 0.72711 0.22878 0.0
C843 C 0.13319 0.72032 0.19575 0.0
C844 C 0.16026 0.79275 0.20973 0.0
C845 C 0.14779 0.77357 0.22697 0.0
C846 C 0.1511 0.76614 0.19377 0.0
C847 C 0.11945 0.70071 0.21321 0.0
C848 C 0.10689 0.70856 0.24601 0.0
C849 C 0.11107 0.73619 0.26078 0.0
N850 N 0.1546 0.80018 0.24177 0.0
C851 C 0.13506 0.78203 0.25841 0.0
H852 H 0.13748 0.80244 0.27005 0.0
C853 C 0.17882 0.85551 0.19146 0.0
N854 N 0.17708 0.83698 0.20841 0.0
C855 C 0.17039 0.83067 0.17519 0.0
C856 C 0.15788 0.78603 0.17634 0.0
H857 H 0.18858 0.89012 0.19052 0.0
H858 H 0.10329 0.66507 0.21442 0.0
H859 H 0.3271 0.99829 0.21844 0.0
H860 H 0.08872 0.67305 0.24793 0.0
H861 H 0.09623 0.72223 0.27406 0.0
H862 H 0.12814 0.69951 0.18384 0.0
H863 H 0.30252 0.91884 0.30296 0.0
H864 H 0.40673 0.12862 0.2381 0.0
H865 H 0.37024 0.07614 0.21247 0.0
H866 H 0.40736 0.11267 0.30355 0.0
H867 H 0.17369 0.84599 0.16181 0.0
H868 H 0.1513 0.76682 0.16374 0.0
H869 H 0.42011 0.14182 0.27187 0.0
H870 H 0.32978 0.96807 0.32944 0.0
N871 N 0.34165 1.00208 0.24758 0.0
C872 C 0.38871 0.09344 0.2409 0.0
C873 C 0.36841 0.06397 0.22643 0.0
C874 C 0.38384 0.07731 0.25892 0.0
C875 C 0.35962 0.031 0.26193 0.0
C876 C 0.34469 0.01868 0.23 0.0
N877 N 0.32597 0.97042 0.28256 0.0
C878 C 0.35146 1.0147 0.27984 0.0
C879 C 0.33551 0.98172 0.31558 0.0
C880 C 0.36032 0.02709 0.31288 0.0
C881 C 0.31905 0.95378 0.30025 0.0
C882 C 0.36869 0.04416 0.295 0.0
H883 H 0.37352 0.04906 0.32455 0.0
O884 O 0.32957 0.8946 0.27496 0.0
O885 O 0.24434 0.86243 0.24855 0.0
O886 O 0.19255 0.87828 0.269 0.0
O887 O 0.25861 0.88313 0.27764 0.0
O888 O 0.3025 0.86843 0.23879 0.0
O889 O 0.37614 0.93983 0.2543 0.0
O890 O 0.15712 0.90645 0.22616 0.0
O891 O 0.24899 0.93742 0.25134 0.0
O892 O 0.31849 0.93038 0.22595 0.0
O893 O 0.24798 0.89501 0.2125 0.0
O894 O 0.22624 0.94514 0.22548 0.0
O895 O 0.12958 0.85833 0.24767 0.0
C896 C 0.26043 0.84208 0.24001 0.0
C897 C 0.3939 0.08982 0.292 0.0
C898 C 0.40134 0.10638 0.27399 0.0
C899 C 0.36908 0.91255 0.26796 0.0
C900 C 0.40219 0.90351 0.27667 0.0
C901 C 0.39296 0.88524 0.29462 0.0
C902 C 0.44011 0.90869 0.2672 0.0
C903 C 0.46799 0.89545 0.27589 0.0
C904 C 0.41993 0.87162 0.30294 0.0
C905 C 0.45688 0.87641 0.29367 0.0
C906 C 0.21865 0.87495 0.28162 0.0
C907 C 0.24916 0.96555 0.23992 0.0
C908 C 0.12252 0.88291 0.23637 0.0
C909 C 0.07863 0.86295 0.22696 0.0
C910 C 0.07511 0.84963 0.20839 0.0
C911 C 0.0407 0.85945 0.23594 0.0
C912 C 0.99991 0.84329 0.22623 0.0
C913 C 0.03572 0.83443 0.19872 0.0
C914 C 0.99883 0.83179 0.20739 0.0
C915 C 0.29249 0.91673 0.21138 0.0
H916 H 0.36421 0.88066 0.30223 0.0
H917 H 0.44761 0.92241 0.25333 0.0
H918 H 0.41198 0.85698 0.31663 0.0
H919 H 0.47702 0.86504 0.30048 0.0
H920 H 0.10319 0.85195 0.20114 0.0
H921 H 0.04315 0.86941 0.25031 0.0
H922 H 0.03394 0.82529 0.18426 0.0
H923 H 0.96962 0.82147 0.19899 0.0
Gd924 Gd 0.15603 0.40911 0.25396 0.0
Gd925 Gd 0.21273 0.35307 0.23666 0.0
C926 C 0.36391 0.42428 0.2294 0.0
C927 C 0.37109 0.40845 0.19721 0.0
C928 C 0.29841 0.38415 0.21053 0.0
C929 C 0.31744 0.40222 0.22736 0.0
C930 C 0.32499 0.3872 0.1952 0.0
C931 C 0.39052 0.42696 0.2143 0.0
C932 C 0.38241 0.4438 0.24644 0.0
C933 C 0.3549 0.44221 0.26073 0.0
N934 N 0.29059 0.39937 0.24158 0.0
C935 C 0.30916 0.4201 0.25806 0.0
H936 H 0.28967 0.42186 0.26919 0.0
C937 C 0.23358 0.34414 0.19274 0.0
N938 N 0.25382 0.36361 0.20912 0.0
C939 C 0.25849 0.34678 0.1771 0.0
C940 C 0.30445 0.36844 0.17832 0.0
H941 H 0.1979 0.32566 0.19184 0.0
H942 H 0.42618 0.44367 0.21563 0.0
H943 H 0.08784 0.35765 0.21496 0.0
H944 H 0.41788 0.46128 0.24852 0.0
H945 H 0.36892 0.4586 0.27378 0.0
H946 H 0.39197 0.41081 0.18564 0.0
H947 H 0.15656 0.42325 0.30031 0.0
H948 H 0.95497 0.30524 0.23153 0.0
H949 H 1.01072 0.32124 0.20734 0.0
H950 H 0.96237 0.32691 0.29685 0.0
H951 H 0.24215 0.33145 0.1642 0.0
H952 H 0.3237 0.37009 0.16624 0.0
H953 H 0.93738 0.30672 0.26473 0.0
H954 H 0.10399 0.40503 0.32565 0.0
N955 N 0.0802 0.36874 0.24381 0.0
C956 C 0.98976 0.32307 0.23511 0.0
C957 C 1.02109 0.33215 0.22144 0.0
C958 C 1.00353 0.3356 0.25335 0.0
C959 C 0.04942 0.35857 0.2574 0.0
C960 C 0.06592 0.35441 0.226 0.0
N961 N 0.10718 0.38943 0.27945 0.0
C962 C 0.06329 0.36868 0.27565 0.0
C963 C 0.092 0.3939 0.31173 0.0
C964 C 0.04687 0.37039 0.30814 0.0
C965 C 0.12175 0.40372 0.29717 0.0
C966 C 0.03196 0.35788 0.29002 0.0
H967 H 0.0236 0.36289 0.3193 0.0
O968 O 0.19388 0.46437 0.2718 0.0
O969 O 0.22196 0.41587 0.24762 0.0
O970 O 0.22246 0.35827 0.26805 0.0
O971 O 0.17691 0.38477 0.27845 0.0
O972 O 0.21084 0.46466 0.23758 0.0
O973 O 0.14146 0.46408 0.25482 0.0
O974 O 0.20594 0.29196 0.22522 0.0
O975 O 0.14796 0.34094 0.24907 0.0
O976 O 0.15416 0.41538 0.22356 0.0
O977 O 0.19516 0.384 0.2117 0.0
O978 O 0.14684 0.31713 0.22291 0.0
O979 O 0.20969 0.30091 0.25447 0.0
C980 C 0.23958 0.45198 0.23867 0.0
C981 C 0.9867 0.33561 0.28594 0.0
C982 C 0.97252 0.32441 0.26765 0.0
C983 C 0.17395 0.48564 0.26656 0.0
C984 C 0.18612 0.52869 0.27531 0.0
C985 C 0.20751 0.53807 0.29261 0.0
C986 C 0.18084 0.56188 0.26632 0.0
C987 C 0.19702 0.60376 0.27485 0.0
C988 C 0.22381 0.57931 0.30082 0.0
C989 C 0.21885 0.61187 0.29202 0.0
C990 C 0.20493 0.37077 0.28139 0.0
C991 C 0.12225 0.31369 0.23685 0.0
C992 C 0.20865 0.27583 0.24096 0.0
C993 C 0.24038 0.25928 0.24187 0.0
C994 C 0.28583 0.28966 0.24259 0.0
C995 C 0.22596 0.21344 0.24165 0.0
C996 C 0.25708 0.19866 0.24259 0.0
C997 C 0.31648 0.27524 0.24306 0.0
C998 C 0.3023 0.23019 0.24318 0.0
C999 C 0.17217 0.40511 0.20977 0.0
H1000 H 0.21232 0.51357 0.29979 0.0
H1001 H 0.16477 0.55538 0.25291 0.0
H1002 H 0.24066 0.58617 0.31404 0.0
H1003 H 0.23226 0.64382 0.29872 0.0
H1004 H 0.2977 0.32467 0.24284 0.0
H1005 H 0.19096 0.18955 0.24084 0.0
H1006 H 0.35148 0.29914 0.24333 0.0
H1007 H 0.32685 0.21989 0.24334 0.0
Gd1008 Gd 0.7785 0.67466 0.75434 0.0
Gd1009 Gd 0.8939 0.72636 0.77162 0.0
C1010 C 0.98432 0.66782 0.77872 0.0
C1011 C 1.00234 0.68117 0.81143 0.0
C1012 C 0.94714 0.69605 0.79808 0.0
C1013 C 0.95451 0.6838 0.78076 0.0
C1014 C 0.97171 0.69568 0.81355 0.0
C1015 C 1.00795 0.66635 0.79417 0.0
C1016 C 0.9907 0.65514 0.76112 0.0
C1017 C 0.96871 0.65977 0.74598 0.0
N1018 N 0.93375 0.6889 0.76584 0.0
C1019 C 0.94107 0.67755 0.7485 0.0
H1020 H 0.92541 0.68104 0.73633 0.0
C1021 C 0.91601 0.7308 0.81579 0.0
N1022 N 0.91968 0.71294 0.79946 0.0
C1023 C 0.93882 0.73015 0.83156 0.0
C1024 C 0.96705 0.71284 0.8304 0.0
H1025 H 0.89632 0.74675 0.81644 0.0
H1026 H 0.03169 0.65518 0.79277 0.0
H1027 H 0.75703 0.73665 0.78519 0.0
H1028 H 1.01286 0.64223 0.75905 0.0
H1029 H 0.97347 0.65017 0.73227 0.0
H1030 H 1.02276 0.68255 0.82297 0.0
H1031 H 0.75544 0.62636 0.71301 0.0
H1032 H 0.68911 0.79108 0.75658 0.0
H1033 H 0.72197 0.78158 0.78526 0.0
H1034 H 0.67007 0.73122 0.69539 0.0
H1035 H 0.93591 0.74451 0.84442 0.0
H1036 H 0.9864 0.71462 0.84241 0.0
H1037 H 0.67027 0.77246 0.7231 0.0
H1038 H 0.71937 0.62754 0.68378 0.0
N1039 N 0.74608 0.7202 0.75628 0.0
C1040 C 0.70487 0.77112 0.75634 0.0
C1041 C 0.72326 0.76574 0.77254 0.0
C1042 C 0.70624 0.74995 0.7401 0.0
C1043 C 0.72727 0.72435 0.7405 0.0
C1044 C 0.7433 0.73976 0.77234 0.0
N1045 N 0.74674 0.67619 0.72589 0.0
C1046 C 0.72768 0.70171 0.72484 0.0
C1047 C 0.72193 0.64902 0.69511 0.0
C1048 C 0.70428 0.67695 0.69342 0.0
C1049 C 0.74253 0.64856 0.71164 0.0
C1050 C 0.70634 0.7032 0.70847 0.0
H1051 H 0.68802 0.67707 0.68065 0.0
O1052 O 0.73983 0.60275 0.7542 0.0
O1053 O 0.83324 0.66476 0.76444 0.0
O1054 O 0.8888 0.71903 0.73979 0.0
O1055 O 0.81959 0.70579 0.72922 0.0
O1056 O 0.79643 0.6254 0.74253 0.0
O1057 O 0.71445 0.63946 0.76828 0.0
O1058 O 0.93792 0.79392 0.78093 0.0
O1059 O 0.84161 0.73909 0.7602 0.0
O1060 O 0.78651 0.69125 0.78444 0.0
O1061 O 0.84374 0.68224 0.79454 0.0
O1062 O 0.8742 0.77244 0.78416 0.0
O1063 O 0.95534 0.76999 0.75669 0.0
C1064 C 0.82835 0.63383 0.75384 0.0
C1065 C 0.68642 0.7295 0.70787 0.0
C1066 C 0.68645 0.75291 0.72364 0.0
C1067 C 0.70678 0.60043 0.76322 0.0
C1068 C 0.66282 0.56878 0.7556 0.0
C1069 C 0.6392 0.58366 0.74499 0.0
C1070 C 0.64567 0.52279 0.75782 0.0
C1071 C 0.60527 0.49218 0.74947 0.0
C1072 C 0.59902 0.55336 0.73685 0.0
C1073 C 0.5822 0.50799 0.73902 0.0
C1074 C 0.86034 0.71391 0.72638 0.0
C1075 C 0.84723 0.76981 0.77134 0.0
C1076 C 0.96807 0.80276 0.76836 0.0
C1077 C 1.01478 0.82457 0.77514 0.0
C1078 C 0.02466 0.80746 0.7908 0.0
C1079 C 0.04932 0.86361 0.76689 0.0
C1080 C 0.09297 0.88434 0.77433 0.0
C1081 C 0.06749 0.82628 0.79761 0.0
C1082 C 0.10136 0.86398 0.7894 0.0
C1083 C 0.80339 0.67708 0.79699 0.0
H1084 H 0.65207 0.61866 0.74279 0.0
H1085 H 0.66426 0.51093 0.76555 0.0
H1086 H 0.58113 0.56508 0.72858 0.0
H1087 H 0.55138 0.48506 0.73228 0.0
H1088 H 0.99914 0.77994 0.7981 0.0
H1089 H 0.04198 0.87834 0.75522 0.0
H1090 H 0.07434 0.81187 0.80954 0.0
H1091 H 0.13433 0.87747 0.79506 0.0
Gd1092 Gd 0.41546 0.1392 0.75489 0.0
Gd1093 Gd 0.3584 0.20062 0.76728 0.0
C1094 C 0.4164 0.3504 0.77037 0.0
C1095 C 0.40221 0.35985 0.80252 0.0
C1096 C 0.38421 0.28708 0.79102 0.0
C1097 C 0.39844 0.3045 0.77332 0.0
C1098 C 0.38552 0.31467 0.80568 0.0
C1099 C 0.41796 0.37772 0.78498 0.0
C1100 C 0.43298 0.36793 0.75288 0.0
C1101 C 0.43179 0.34017 0.73881 0.0
N1102 N 0.39605 0.27719 0.75922 0.0
C1103 C 0.41311 0.29495 0.74212 0.0
H1104 H 0.41477 0.27578 0.73085 0.0
C1105 C 0.35147 0.22477 0.81083 0.0
N1106 N 0.36851 0.24331 0.79392 0.0
C1107 C 0.35209 0.25079 0.82566 0.0
C1108 C 0.36923 0.29595 0.82309 0.0
H1109 H 0.33649 0.18948 0.8128 0.0
H1110 H 0.43131 0.41283 0.78284 0.0
H1111 H 0.34878 0.05023 0.78223 0.0
H1112 H 0.44749 0.40299 0.75019 0.0
H1113 H 0.44558 0.35366 0.72533 0.0
H1114 H 0.40314 0.38131 0.81359 0.0
H1115 H 0.47796 0.16432 0.7171 0.0
H1116 H 0.27762 0.93787 0.74762 0.0
H1117 H 0.29307 0.97287 0.77856 0.0
H1118 H 0.35031 0.98608 0.68916 0.0
H1119 H 0.33857 0.23583 0.83897 0.0
H1120 H 0.36902 0.31593 0.83455 0.0
H1121 H 0.29898 0.94331 0.71418 0.0
H1122 H 0.47765 0.13155 0.68658 0.0
N1123 N 0.36369 0.06222 0.75327 0.0
C1124 C 0.30186 0.97263 0.74904 0.0
C1125 C 0.31063 0.99218 0.76651 0.0
C1126 C 0.32638 0.99756 0.73381 0.0
C1127 C 0.35739 0.04286 0.73638 0.0
C1128 C 0.34248 0.03677 0.76845 0.0
N1129 N 0.4168 0.1097 0.72565 0.0
C1130 C 0.3853 0.06727 0.72214 0.0
C1131 C 0.45112 0.11332 0.69635 0.0
C1132 C 0.41709 0.07087 0.69197 0.0
C1133 C 0.4511 0.13186 0.71356 0.0
C1134 C 0.38411 0.04685 0.70508 0.0
H1135 H 0.41787 0.05625 0.67883 0.0
O1136 O 0.48464 0.17028 0.76398 0.0
O1137 O 0.42266 0.20348 0.76429 0.0
O1138 O 0.36728 0.20398 0.73565 0.0
O1139 O 0.39559 0.15723 0.72778 0.0
O1140 O 0.46711 0.20709 0.74443 0.0
O1141 O 0.44389 0.10039 0.76543 0.0
O1142 O 0.29474 0.1651 0.78106 0.0
O1143 O 0.35201 0.13351 0.76497 0.0
O1144 O 0.38665 0.12585 0.78335 0.0
O1145 O 0.3961 0.19175 0.79281 0.0
O1146 O 0.30868 0.1439 0.74971 0.0
O1147 O 0.30725 0.21858 0.76223 0.0
C1148 C 0.45575 0.23002 0.75478 0.0
C1149 C 0.35183 1.00243 0.70213 0.0
C1150 C 0.3227 0.97796 0.71642 0.0
C1151 C 0.48398 0.13338 0.76643 0.0
C1152 C 0.51903 0.12842 0.75683 0.0
C1153 C 0.50763 0.09807 0.74218 0.0
C1154 C 0.56411 0.15435 0.76195 0.0
C1155 C 0.59733 0.14986 0.75249 0.0
C1156 C 0.54001 0.09344 0.73285 0.0
C1157 C 0.58428 0.11879 0.73796 0.0
C1158 C 0.38108 0.18474 0.72338 0.0
C1159 C 0.31707 0.11395 0.75531 0.0
C1160 C 0.27882 0.18831 0.77346 0.0
C1161 C 0.24781 0.19732 0.78469 0.0
C1162 C 0.23949 0.18295 0.80322 0.0
C1163 C 0.22267 0.2155 0.77679 0.0
C1164 C 0.1906 0.21958 0.78762 0.0
C1165 C 0.20796 0.18645 0.8137 0.0
C1166 C 0.18381 0.20429 0.80604 0.0
C1167 C 0.40001 0.15619 0.79618 0.0
H1168 H 0.47356 0.07766 0.7379 0.0
H1169 H 0.5732 0.17818 0.77309 0.0
H1170 H 0.53067 0.06977 0.72164 0.0
H1171 H 0.60825 0.11335 0.73067 0.0
H1172 H 0.25664 0.16785 0.80966 0.0
H1173 H 0.22808 0.2264 0.76249 0.0
H1174 H 0.20191 0.17487 0.8279 0.0
H1175 H 0.15942 0.20617 0.8147 0.0
Gd1176 Gd 0.9506 0.31343 0.75399 0.0
Gd1177 Gd 0.89277 0.19643 0.76782 0.0
C1178 C 0.74378 0.12789 0.77917 0.0
C1179 C 0.74126 0.12624 0.8128 0.0
C1180 C 0.81168 0.15698 0.79671 0.0
C1181 C 0.79039 0.1496 0.77989 0.0
C1182 C 0.78728 0.14402 0.81336 0.0
C1183 C 0.71946 0.11765 0.79572 0.0
C1184 C 0.723 0.11605 0.76188 0.0
C1185 C 0.74856 0.12491 0.7459 0.0
N1186 N 0.81503 0.16011 0.76419 0.0
C1187 C 0.79465 0.14678 0.74731 0.0
H1188 H 0.81337 0.15281 0.73473 0.0
C1189 C 0.87732 0.17348 0.81256 0.0
N1190 N 0.85601 0.1736 0.79665 0.0
C1191 C 0.85471 0.16151 0.82949 0.0
C1192 C 0.80964 0.14763 0.82995 0.0
H1193 H 0.91229 0.1846 0.81224 0.0
H1194 H 0.68374 0.10211 0.79545 0.0
H1195 H 0.02968 0.36446 0.78826 0.0
H1196 H 0.68731 0.09937 0.76073 0.0
H1197 H 0.73281 0.11517 0.73246 0.0
H1198 H 0.72202 0.11772 0.82541 0.0
H1199 H 0.94423 0.34615 0.71056 0.0
H1200 H 0.15348 0.39233 0.76538 0.0
H1201 H 0.1084 0.39064 0.79212 0.0
H1202 H 0.12595 0.37936 0.70025 0.0
H1203 H 0.87203 0.16301 0.84215 0.0
H1204 H 0.79221 0.13825 0.84306 0.0
H1205 H 0.15918 0.38572 0.73097 0.0
H1206 H 0.98813 0.36808 0.6823 0.0
N1207 N 0.02784 0.3471 0.75959 0.0
C1208 C 0.11842 0.37988 0.76357 0.0
C1209 C 0.09311 0.37908 0.77868 0.0
C1210 C 0.09884 0.36795 0.74604 0.0
C1211 C 0.05306 0.35225 0.74444 0.0
C1212 C 0.04786 0.36317 0.77641 0.0
N1213 N 0.99191 0.33922 0.72639 0.0
C1214 C 0.03436 0.34825 0.72718 0.0
C1215 C 1.00156 0.36153 0.69456 0.0
C1216 C 0.04335 0.36539 0.69448 0.0
C1217 C 0.97661 0.34929 0.71075 0.0
C1218 C 0.06097 0.36043 0.71112 0.0
H1219 H 0.0629 0.37512 0.6819 0.0
O1220 O 0.92324 0.35256 0.74344 0.0
O1221 O 0.88562 0.2504 0.7562 0.0
O1222 O 0.88986 0.20027 0.73558 0.0
O1223 O 0.92526 0.27516 0.72762 0.0
O1224 O 0.88576 0.30569 0.76491 0.0
O1225 O 0.9698 0.37752 0.76637 0.0
O1226 O 0.91112 0.14807 0.77697 0.0
O1227 O 0.95786 0.25288 0.75788 0.0
O1228 O 0.96009 0.30477 0.78371 0.0
O1229 O 0.89512 0.24274 0.79183 0.0
O1230 O 0.9592 0.21824 0.7807 0.0
O1231 O 0.87696 0.13824 0.75118 0.0
C1232 C 0.86096 0.26403 0.76256 0.0
C1233 C 0.10529 0.37102 0.7125 0.0
C1234 C 0.12423 0.37468 0.72999 0.0
C1235 C 0.94408 0.38437 0.75538 0.0
C1236 C 0.95972 0.42922 0.74845 0.0
C1237 C 0.99894 0.45166 0.73822 0.0
C1238 C 0.93271 0.44821 0.75083 0.0
C1239 C 0.94448 0.48914 0.74269 0.0
C1240 C 1.01102 0.49267 0.73034 0.0
C1241 C 0.98385 0.51119 0.73244 0.0
C1242 C 0.90314 0.23289 0.72315 0.0
C1243 C 0.98374 0.24881 0.76916 0.0
C1244 C 0.89177 0.12112 0.76322 0.0
C1245 C 0.86169 0.07393 0.76797 0.0
C1246 C 0.81883 0.06043 0.77432 0.0
C1247 C 0.87503 0.04193 0.76606 0.0
C1248 C 0.845 0.99691 0.77 0.0
C1249 C 0.78939 0.01619 0.77834 0.0
C1250 C 0.80221 0.98459 0.77609 0.0
C1251 C 0.9281 0.28344 0.79548 0.0
H1252 H 1.01967 0.43712 0.73606 0.0
H1253 H 0.90177 0.43039 0.75835 0.0
H1254 H 0.04112 0.50981 0.7223 0.0
H1255 H 0.99326 0.54253 0.72585 0.0
H1256 H 0.80793 0.08402 0.77614 0.0
H1257 H 0.90831 0.05189 0.76154 0.0
H1258 H 0.7565 1.00639 0.7833 0.0
H1259 H 0.779 0.95049 0.77957 0.0
Gd1260 Gd 0.34983 0.1106 0.58676 0.0
Gd1261 Gd 0.39886 0.22247 0.56841 0.0
C1262 C 0.33955 0.31212 0.56263 0.0
C1263 C 0.34608 0.32641 0.52949 0.0
C1264 C 0.36581 0.27438 0.54256 0.0
C1265 C 0.35572 0.28263 0.56015 0.0
C1266 C 0.36159 0.29664 0.52705 0.0
C1267 C 0.3348 0.33392 0.54722 0.0
C1268 C 0.32885 0.31906 0.58055 0.0
C1269 C 0.33454 0.29705 0.59545 0.0
N1270 N 0.36183 0.26195 0.57484 0.0
C1271 C 0.35159 0.26892 0.5924 0.0
H1272 H 0.35613 0.2529 0.60423 0.0
C1273 C 0.39779 0.24199 0.52392 0.0
N1274 N 0.38269 0.24703 0.54075 0.0
C1275 C 0.39321 0.2624 0.50809 0.0
C1276 C 0.37503 0.28987 0.50965 0.0
H1277 H 0.41397 0.22257 0.5228 0.0
H1278 H 0.32286 0.35699 0.5489 0.0
H1279 H 0.40613 0.08292 0.55592 0.0
H1280 H 0.31609 0.34121 0.583 0.0
H1281 H 0.32624 0.30208 0.60937 0.0
H1282 H 0.34342 0.34435 0.5178 0.0
H1283 H 0.31313 0.10261 0.63057 0.0
H1284 H 0.44748 1.00251 0.58378 0.0
H1285 H 0.44294 0.03936 0.55534 0.0
H1286 H 0.39369 0.99249 0.64566 0.0
H1287 H 0.40481 0.25792 0.49478 0.0
H1288 H 0.37279 0.30671 0.49746 0.0
H1289 H 0.42894 0.98517 0.61737 0.0
H1290 H 0.31294 0.06642 0.65969 0.0
N1291 N 0.38971 0.0725 0.58479 0.0
C1292 C 0.43127 0.02205 0.58423 0.0
C1293 C 0.4287 0.0427 0.56816 0.0
C1294 C 0.41253 0.02646 0.60065 0.0
C1295 C 0.39182 0.05233 0.60053 0.0
C1296 C 0.40743 0.06753 0.56862 0.0
N1297 N 0.35209 0.08119 0.61583 0.0
C1298 C 0.37253 0.05689 0.61651 0.0
C1299 C 0.32997 0.06361 0.64767 0.0
C1300 C 0.35098 0.03871 0.64858 0.0
C1301 C 0.3303 0.08422 0.63105 0.0
C1302 C 0.37263 0.03506 0.63295 0.0
H1303 H 0.34957 0.02178 0.66131 0.0
O1304 O 0.27844 0.07238 0.59013 0.0
O1305 O 0.33539 0.16344 0.57661 0.0
O1306 O 0.40001 0.22035 0.60087 0.0
O1307 O 0.39407 0.153 0.60947 0.0
O1308 O 0.3115 0.13564 0.60215 0.0
O1309 O 0.31092 0.04779 0.57245 0.0
O1310 O 0.46502 0.26599 0.55762 0.0
O1311 O 0.41292 0.17119 0.57899 0.0
O1312 O 0.36072 0.11329 0.55614 0.0
O1313 O 0.35306 0.17144 0.54605 0.0
O1314 O 0.44352 0.20204 0.55459 0.0
O1315 O 0.44334 0.28591 0.58187 0.0
C1316 C 0.31066 0.16183 0.58983 0.0
C1317 C 0.39333 1.00948 0.63316 0.0
C1318 C 0.41334 1.00528 0.61705 0.0
C1319 C 0.27345 0.0405 0.57936 0.0
C1320 C 0.24263 0.99579 0.58608 0.0
C1321 C 0.25528 0.97634 0.59997 0.0
C1322 C 0.1988 0.97379 0.57955 0.0
C1323 C 0.16743 0.93286 0.58714 0.0
C1324 C 0.22446 0.9355 0.60739 0.0
C1325 C 0.18079 0.91395 0.60111 0.0
C1326 C 0.40218 0.19328 0.61345 0.0
C1327 C 0.44174 0.1752 0.56728 0.0
C1328 C 0.47487 0.29745 0.56966 0.0
C1329 C 0.49616 0.34343 0.5621 0.0
C1330 C 0.47946 0.35159 0.54586 0.0
C1331 C 0.5345 0.37898 0.57032 0.0
C1332 C 0.55501 0.42218 0.56241 0.0
C1333 C 0.49827 0.39381 0.5384 0.0
C1334 C 0.53517 0.42879 0.54665 0.0
C1335 C 0.34721 0.13084 0.54356 0.0
H1336 H 0.2887 0.9929 0.60523 0.0
H1337 H 0.18875 0.98927 0.56909 0.0
H1338 H 0.23432 0.92075 0.6182 0.0
H1339 H 0.15736 0.88244 0.60719 0.0
H1340 H 0.45216 0.32525 0.53867 0.0
H1341 H 0.54874 0.37267 0.58245 0.0
H1342 H 0.48427 0.39942 0.52601 0.0
H1343 H 0.54804 0.46121 0.54055 0.0
Gd1344 Gd 0.97763 0.26694 0.58864 0.0
Gd1345 Gd 0.86687 0.21934 0.5699 0.0
C1346 C 0.7944 0.0673 0.56676 0.0
C1347 C 0.80226 0.05433 0.53427 0.0
C1348 C 0.83148 0.12934 0.54591 0.0
C1349 C 0.81846 0.11337 0.56358 0.0
C1350 C 0.82236 0.09993 0.53092 0.0
C1351 C 0.78783 0.03797 0.55217 0.0
C1352 C 0.77635 0.05207 0.58434 0.0
C1353 C 0.78129 0.08245 0.598 0.0
N1354 N 0.82588 0.14279 0.57737 0.0
C1355 C 0.80555 0.12771 0.59418 0.0
H1356 H 0.80649 0.14998 0.6047 0.0
C1357 C 0.85027 0.18838 0.52542 0.0
N1358 N 0.84863 0.17325 0.54312 0.0
C1359 C 0.84371 0.16117 0.51011 0.0
C1360 C 0.83128 0.11701 0.51292 0.0
H1361 H 0.85874 0.2223 0.52308 0.0
H1362 H 0.77033 1.00258 0.55445 0.0
H1363 H 1.01825 0.33868 0.54988 0.0
H1364 H 0.75743 0.01702 0.58732 0.0
H1365 H 0.76594 0.07105 0.61143 0.0
H1366 H 0.79557 0.03133 0.52297 0.0
H1367 H 0.96484 0.26219 0.63536 0.0
H1368 H 0.094 0.46867 0.57027 0.0
H1369 H 0.06669 0.41562 0.54436 0.0
H1370 H 0.06932 0.45553 0.63537 0.0
H1371 H 0.84793 0.17419 0.49619 0.0
H1372 H 0.82645 0.09603 0.50108 0.0
H1373 H 0.09399 0.48319 0.60389 0.0
H1374 H 0.98426 0.31167 0.66143 0.0
N1375 N 1.01585 0.34335 0.57966 0.0
C1376 C 0.07227 0.43384 0.57306 0.0
C1377 C 0.05696 0.40404 0.55844 0.0
C1378 C 0.05848 0.41854 0.59105 0.0
C1379 C 0.02988 0.37262 0.59403 0.0
C1380 C 0.02882 0.35916 0.56192 0.0
N1381 N 0.99001 0.31286 0.61466 0.0
C1382 C 1.01583 0.35708 0.61184 0.0
C1383 C 0.99255 0.32522 0.64758 0.0
C1384 C 1.01755 0.3706 0.6448 0.0
C1385 C 0.97998 0.29683 0.6324 0.0
C1386 C 0.03016 0.38702 0.62691 0.0
H1387 H 0.02866 0.39298 0.65649 0.0
O1388 O 1.01151 0.24994 0.60964 0.0
O1389 O 0.91606 0.20403 0.58116 0.0
O1390 O 0.86678 0.22159 0.60213 0.0
O1391 O 0.93004 0.2193 0.6095 0.0
O1392 O 0.97492 0.20957 0.57277 0.0
O1393 O 0.04559 0.28295 0.58383 0.0
O1394 O 0.81778 0.22811 0.5547 0.0
O1395 O 0.92117 0.28064 0.58371 0.0
O1396 O 0.98752 0.26773 0.55868 0.0
O1397 O 0.91763 0.24041 0.54566 0.0
O1398 O 0.89804 0.28803 0.55853 0.0
O1399 O 0.81098 0.2181 0.58403 0.0
C1400 C 0.93268 0.18406 0.57283 0.0
C1401 C 0.05802 0.43236 0.62389 0.0
C1402 C 0.07223 0.44806 0.60601 0.0
C1403 C 0.0472 0.26559 0.59956 0.0
C1404 C 0.08683 0.26471 0.60566 0.0
C1405 C 0.10184 0.27759 0.62386 0.0
C1406 C 0.10914 0.25015 0.59375 0.0
C1407 C 0.14581 0.24778 0.60037 0.0
C1408 C 0.13893 0.27656 0.6302 0.0
C1409 C 0.16073 0.26173 0.61859 0.0
C1410 C 0.89111 0.21373 0.61409 0.0
C1411 C 0.92202 0.30952 0.57261 0.0
C1412 C 0.79257 0.22144 0.56897 0.0
C1413 C 0.74496 0.18907 0.56665 0.0
C1414 C 0.7313 0.14497 0.56224 0.0
C1415 C 0.71273 0.20183 0.5689 0.0
C1416 C 0.66731 0.1702 0.56733 0.0
C1417 C 0.68652 0.11366 0.56082 0.0
C1418 C 0.65467 0.12604 0.56349 0.0
C1419 C 0.96118 0.25665 0.54434 0.0
H1420 H 0.08492 0.28865 0.63316 0.0
H1421 H 0.09691 0.23891 0.57984 0.0
H1422 H 0.15042 0.28659 0.64427 0.0
H1423 H 0.18879 0.26006 0.624 0.0
H1424 H 0.75519 0.13469 0.55978 0.0
H1425 H 0.72285 0.23605 0.5718 0.0
H1426 H 0.67646 0.07973 0.55742 0.0
H1427 H 0.62008 0.10137 0.5619 0.0
Gd1428 Gd 0.81828 0.74756 0.58943 0.0
Gd1429 Gd 0.86943 0.6845 0.57448 0.0
C1430 C 1.0188 0.76292 0.56386 0.0
C1431 C 1.02268 0.76425 0.5303 0.0
C1432 C 0.95106 0.72726 0.54585 0.0
C1433 C 0.97204 0.73926 0.56296 0.0
C1434 C 0.97645 0.73878 0.52937 0.0
C1435 C 0.04381 0.77593 0.54749 0.0
C1436 C 0.0393 0.77281 0.58121 0.0
C1437 C 1.01349 0.75837 0.59714 0.0
N1438 N 0.94713 0.72661 0.57868 0.0
C1439 C 0.96747 0.73474 0.59564 0.0
H1440 H 0.94917 0.72293 0.60828 0.0
C1441 C 0.8858 0.68286 0.52883 0.0
N1442 N 0.90628 0.7019 0.54531 0.0
C1443 C 0.90941 0.69406 0.51219 0.0
C1444 C 0.95486 0.72285 0.51241 0.0
H1445 H 0.85088 0.65872 0.52848 0.0
H1446 H 0.07961 0.79468 0.54799 0.0
H1447 H 0.75155 0.73075 0.55178 0.0
H1448 H 0.075 0.79118 0.58244 0.0
H1449 H 0.02905 0.76519 0.61065 0.0
H1450 H 0.04255 0.77422 0.51782 0.0
H1451 H 0.81482 0.73806 0.63698 0.0
H1452 H 0.62246 0.6259 0.56419 0.0
H1453 H 0.67622 0.67979 0.54203 0.0
H1454 H 0.62961 0.5982 0.62854 0.0
H1455 H 0.89261 0.67976 0.49924 0.0
H1456 H 0.97318 0.73101 0.4995 0.0
H1457 H 0.60539 0.59605 0.59641 0.0
H1458 H 0.765 0.68984 0.66068 0.0
N1459 N 0.74403 0.7038 0.57905 0.0
C1460 C 0.65622 0.64788 0.56857 0.0
C1461 C 0.6865 0.67803 0.55601 0.0
C1462 C 0.66951 0.64731 0.58677 0.0
C1463 C 0.7141 0.67628 0.59175 0.0
C1464 C 0.73005 0.70645 0.5616 0.0
N1465 N 0.77092 0.70512 0.61422 0.0
C1466 C 0.728 0.67671 0.60977 0.0
C1467 C 0.75423 0.68486 0.64638 0.0
C1468 C 0.71131 0.65287 0.64172 0.0
C1469 C 0.7832 0.71148 0.63255 0.0
C1470 C 0.69731 0.64922 0.62334 0.0
H1471 H 0.6887 0.63241 0.65248 0.0
O1472 O 0.81878 0.79156 0.61075 0.0
O1473 O 0.8829 0.74949 0.58487 0.0
O1474 O 0.87351 0.6896 0.60648 0.0
O1475 O 0.86185 0.74836 0.61252 0.0
O1476 O 0.88 0.80324 0.57597 0.0
O1477 O 0.80281 0.79921 0.58265 0.0
O1478 O 0.84401 0.61957 0.56161 0.0
O1479 O 0.8043 0.6823 0.57716 0.0
O1480 O 0.82541 0.76088 0.55977 0.0
O1481 O 0.84176 0.70737 0.54938 0.0
O1482 O 0.8106 0.63356 0.59025 0.0
O1483 O 0.89258 0.63982 0.58344 0.0
C1484 C 0.90542 0.78641 0.57685 0.0
C1485 C 0.65336 0.61978 0.61832 0.0
C1486 C 0.63953 0.61871 0.60006 0.0
C1487 C 0.81385 0.81706 0.59905 0.0
C1488 C 0.84849 0.86411 0.59964 0.0
C1489 C 0.89162 0.87559 0.60506 0.0
C1490 C 0.8396 0.89765 0.59432 0.0
C1491 C 0.87397 0.94199 0.59419 0.0
C1492 C 0.92556 0.91941 0.60479 0.0
C1493 C 0.91688 0.95247 0.59932 0.0
C1494 C 0.87301 0.71923 0.61796 0.0
C1495 C 0.78281 0.64554 0.58552 0.0
C1496 C 0.86828 0.60872 0.57167 0.0
C1497 C 0.88879 0.58496 0.56245 0.0
C1498 C 0.90429 0.5956 0.54418 0.0
C1499 C 0.89272 0.55109 0.57175 0.0
C1500 C 0.91238 0.52902 0.56269 0.0
C1501 C 0.92305 0.57364 0.53521 0.0
C1502 C 0.92709 0.54077 0.54433 0.0
C1503 C 0.83216 0.7397 0.54638 0.0
H1504 H 0.89913 0.85056 0.60947 0.0
H1505 H 0.80644 0.88939 0.59031 0.0
H1506 H 0.95863 0.92777 0.60894 0.0
H1507 H 0.94355 0.98652 0.59945 0.0
H1508 H 0.9019 0.62083 0.53668 0.0
H1509 H 0.88133 0.54258 0.58593 0.0
H1510 H 0.93475 0.58231 0.52109 0.0
H1511 H 0.94214 0.52452 0.53701 0.0
H1512 H 0.59111 0.96572 0.08148 0.0
H1513 H 0.4609 0.89946 0.10479 0.0
H1514 H 0.46448 0.83125 0.10704 0.0
H1515 H 0.50119 0.78939 0.09634 0.0
H1516 H 0.63642 0.86154 0.07775 0.0
H1517 H 0.63705 0.93111 0.0819 0.0
C1518 C 0.56554 0.9385 0.08889 0.0
C1519 C 0.52702 0.93904 0.09377 0.0
C1520 C 0.56897 0.90049 0.09107 0.0
C1521 C 0.49156 0.90043 0.10132 0.0
C1522 C 0.49353 0.86134 0.10253 0.0
C1523 C 0.53148 0.82056 0.09422 0.0
C1524 C 0.56862 0.82058 0.08651 0.0
C1525 C 0.53157 0.86064 0.09666 0.0
C1526 C 0.6076 0.8609 0.0837 0.0
C1527 C 0.6077 0.90063 0.08579 0.0
H1528 H 0.24505 0.74595 0.06392 0.0
H1529 H 0.24929 0.78536 0.12078 0.0
H1530 H 0.205 0.70732 0.13018 0.0
H1531 H 0.16158 0.62704 0.12146 0.0
H1532 H 0.15806 0.59109 0.06428 0.0
H1533 H 0.20639 0.66792 0.05564 0.0
C1534 C 0.23654 0.73731 0.07838 0.0
C1535 C 0.25001 0.77093 0.09164 0.0
C1536 C 0.21142 0.69285 0.08357 0.0
C1537 C 0.23921 0.75969 0.11038 0.0
C1538 C 0.21393 0.71517 0.11571 0.0
C1539 C 0.17171 0.63637 0.10718 0.0
C1540 C 0.15564 0.60375 0.09324 0.0
C1541 C 0.1993 0.68132 0.10236 0.0
C1542 C 0.1695 0.6159 0.07493 0.0
C1543 C 0.19711 0.6598 0.07007 0.0
H1544 H 0.34492 0.57748 0.10254 0.0
H1545 H 0.29456 0.47201 0.06232 0.0
H1546 H 0.3653 0.47357 0.06223 0.0
H1547 H 0.44503 0.51464 0.06919 0.0
H1548 H 0.49422 0.61394 0.11195 0.0
H1549 H 0.42063 0.606 0.11526 0.0
C1550 C 0.34907 0.55387 0.09424 0.0
C1551 C 0.31481 0.52506 0.08222 0.0
C1552 C 0.38988 0.55481 0.09434 0.0
C1553 C 0.3204 0.49446 0.07164 0.0
C1554 C 0.36105 0.49576 0.07141 0.0
C1555 C 0.43925 0.53338 0.07967 0.0
C1556 C 0.47475 0.5646 0.09037 0.0
C1557 C 0.39659 0.52726 0.082 0.0
C1558 C 0.46709 0.58922 0.10375 0.0
C1559 C 0.4251 0.5848 0.10558 0.0
H1560 H 0.94938 0.53083 0.89689 0.0
H1561 H 0.9068 0.45405 0.94722 0.0
H1562 H 0.84831 0.47046 0.95093 0.0
H1563 H 0.82054 0.52 0.945 0.0
H1564 H 0.86985 0.60981 0.89886 0.0
H1565 H 0.91436 0.57672 0.88867 0.0
C1566 C 0.929 0.52002 0.90915 0.0
C1567 C 0.93604 0.49531 0.92273 0.0
C1568 C 0.89692 0.53273 0.91226 0.0
C1569 C 0.90474 0.47585 0.93713 0.0
C1570 C 0.87081 0.485 0.93934 0.0
C1571 C 0.84111 0.53232 0.93269 0.0
C1572 C 0.84339 0.56799 0.92306 0.0
C1573 C 0.86868 0.51577 0.92784 0.0
C1574 C 0.86852 0.58275 0.9067 0.0
C1575 C 0.89433 0.56428 0.90104 0.0
H1576 H 0.51242 0.30742 0.89577 0.0
H1577 H 0.52529 0.30947 0.95527 0.0
H1578 H 0.56293 0.39017 0.95527 0.0
H1579 H 0.58604 0.45992 0.93871 0.0
H1580 H 0.57576 0.4594 0.87926 0.0
H1581 H 0.54326 0.37868 0.87874 0.0
C1582 C 0.52427 0.32569 0.90865 0.0
C1583 C 0.51568 0.30256 0.92553 0.0
C1584 C 0.54557 0.3723 0.90856 0.0
C1585 C 0.53104 0.32658 0.94215 0.0
C1586 C 0.55249 0.37269 0.94216 0.0
C1587 C 0.57647 0.4419 0.9257 0.0
C1588 C 0.581 0.4648 0.90913 0.0
C1589 C 0.55872 0.39582 0.92554 0.0
C1590 C 0.57091 0.44187 0.89222 0.0
C1591 C 0.55266 0.39586 0.89193 0.0
H1592 H 0.63157 0.16643 0.94457 0.0
H1593 H 0.62008 0.13341 0.88654 0.0
H1594 H 0.70049 0.17946 0.88286 0.0
H1595 H 0.77534 0.22334 0.89724 0.0
H1596 H 0.78483 0.2582 0.95508 0.0
H1597 H 0.70428 0.2185 0.95767 0.0
C1598 C 0.64668 0.16955 0.93109 0.0
C1599 C 0.62026 0.14461 0.91607 0.0
C1600 C 0.69275 0.19666 0.92907 0.0
C1601 C 0.64 0.15062 0.89851 0.0
C1602 C 0.68597 0.17728 0.89639 0.0
C1603 C 0.75961 0.22293 0.91027 0.0
C1604 C 0.78595 0.24329 0.92603 0.0
C1605 C 0.71293 0.19947 0.91171 0.0
C1606 C 0.7652 0.24244 0.94284 0.0
C1607 C 0.71915 0.21959 0.94434 0.0
H1608 H 0.27602 0.22054 0.39747 0.0
H1609 H 0.20402 0.12231 0.43961 0.0
H1610 H 0.17247 0.1665 0.45077 0.0
H1611 H 0.16057 0.23126 0.44676 0.0
H1612 H 0.221 0.31639 0.39981 0.0
H1613 H 0.25752 0.27623 0.39108 0.0
C1614 C 0.25208 0.20704 0.4086 0.0
C1615 C 0.24219 0.16704 0.41716 0.0
C1616 C 0.23088 0.23013 0.4139 0.0
C1617 C 0.21319 0.15299 0.43256 0.0
C1618 C 0.19442 0.17803 0.43889 0.0
C1619 C 0.18231 0.24116 0.43481 0.0
C1620 C 0.18983 0.27839 0.42439 0.0
C1621 C 0.20253 0.2165 0.42945 0.0
C1622 C 0.21596 0.28928 0.40842 0.0
C1623 C 0.23686 0.26609 0.40337 0.0
H1624 H 0.91238 0.07256 0.39016 0.0
H1625 H 0.92096 0.12844 0.44433 0.0
H1626 H 0.87724 0.05396 0.45751 0.0
H1627 H 0.83168 0.9722 0.45293 0.0
H1628 H 0.82548 0.91831 0.39869 0.0
H1629 H 0.87324 0.99226 0.38615 0.0
C1630 C 0.90483 0.0684 0.40487 0.0
C1631 C 0.91943 0.10589 0.41621 0.0
C1632 C 0.8799 0.0257 0.41228 0.0
C1633 C 0.9101 0.10003 0.43532 0.0
C1634 C 0.88509 0.05746 0.44285 0.0
C1635 C 0.84113 0.97695 0.43842 0.0
C1636 C 0.82339 0.94034 0.42635 0.0
C1637 C 0.86911 0.01994 0.4314 0.0
C1638 C 0.83691 0.94646 0.40779 0.0
C1639 C 0.86457 0.98864 0.40074 0.0
H1640 H 0.1301 0.91392 0.39296 0.0
H1641 H 0.13912 0.89064 0.45098 0.0
H1642 H 0.05863 0.85726 0.45415 0.0
H1643 H 0.9846 0.82872 0.43934 0.0
H1644 H 0.97787 0.85552 0.38149 0.0
H1645 H 0.05853 0.89462 0.37936 0.0
C1646 C 0.11445 0.90166 0.40632 0.0
C1647 C 0.14006 0.90249 0.42149 0.0
C1648 C 0.06853 0.88339 0.40803 0.0
C1649 C 0.11971 0.88844 0.43891 0.0
C1650 C 0.07376 0.86973 0.44073 0.0
C1651 C 1.00103 0.84389 0.42641 0.0
C1652 C 0.97555 0.83904 0.41052 0.0
C1653 C 0.04762 0.86597 0.42525 0.0
C1654 C 0.99697 0.85865 0.39381 0.0
C1655 C 0.04299 0.88081 0.39258 0.0
H1656 H 0.47852 0.8617 0.2428 0.0
H1657 H 0.5495 0.93863 0.29065 0.0
H1658 H 0.60913 0.92357 0.28461 0.0
H1659 H 0.63433 0.87789 0.2691 0.0
H1660 H 0.57027 0.80736 0.21931 0.0
H1661 H 0.51443 0.83014 0.22261 0.0
C1662 C 0.50803 0.87688 0.25133 0.0
C1663 C 0.50915 0.90047 0.26742 0.0
C1664 C 0.54305 0.86861 0.24758 0.0
C1665 C 0.54764 0.91991 0.27834 0.0
C1666 C 0.58166 0.91104 0.27498 0.0
C1667 C 0.60987 0.86981 0.25835 0.0
C1668 C 0.60749 0.8425 0.24364 0.0
C1669 C 0.57884 0.88394 0.26013 0.0
C1670 C 0.57332 0.82929 0.23057 0.0
C1671 C 0.54137 0.84224 0.23249 0.0
H1672 H 0.21199 0.78742 0.26752 0.0
H1673 H 0.27302 0.7895 0.21551 0.0
H1674 H 0.25346 0.71198 0.21996 0.0
H1675 H 0.22604 0.64631 0.24108 0.0
H1676 H 0.15827 0.64467 0.29137 0.0
H1677 H 0.17144 0.71854 0.28483 0.0
C1678 C 0.21912 0.77033 0.25674 0.0
C1679 C 0.24258 0.79369 0.24098 0.0
C1680 C 0.20666 0.72576 0.25919 0.0
C1681 C 0.25414 0.77186 0.22764 0.0
C1682 C 0.24296 0.72756 0.2302 0.0
C1683 C 0.21261 0.66146 0.25015 0.0
C1684 C 0.19188 0.6403 0.2669 0.0
C1685 C 0.21995 0.70433 0.24619 0.0
C1686 C 0.17475 0.66046 0.27854 0.0
C1687 C 0.18263 0.7029 0.2749 0.0
H1688 H 0.44752 0.56717 0.23556 0.0
H1689 H 0.42365 0.61455 0.28706 0.0
H1690 H 0.34409 0.57223 0.28165 0.0
H1691 H 0.28174 0.51255 0.26504 0.0
H1692 H 0.30247 0.46969 0.21196 0.0
H1693 H 0.38284 0.51956 0.21496 0.0
C1694 C 0.42485 0.56938 0.2452 0.0
C1695 C 0.44121 0.59359 0.26179 0.0
C1696 C 0.37879 0.54479 0.24197 0.0
C1697 C 0.41163 0.59605 0.27425 0.0
C1698 C 0.36617 0.57155 0.27125 0.0
C1699 C 0.30391 0.51441 0.25409 0.0
C1700 C 0.28707 0.48541 0.23896 0.0
C1701 C 0.34942 0.54416 0.25566 0.0
C1702 C 0.31543 0.48996 0.22427 0.0
C1703 C 0.3612 0.5188 0.22592 0.0
H1704 H 0.83359 0.58209 0.7276 0.0
H1705 H 0.85976 0.61481 0.78551 0.0
H1706 H 0.8953 0.56955 0.78782 0.0
H1707 H 0.92539 0.52629 0.77218 0.0
H1708 H 0.89648 0.49308 0.71435 0.0
H1709 H 0.85474 0.53207 0.71319 0.0
C1710 C 0.84711 0.57938 0.74073 0.0
C1711 C 0.84661 0.60391 0.75608 0.0
C1712 C 0.86687 0.55302 0.74192 0.0
C1713 C 0.86186 0.59799 0.77326 0.0
C1714 C 0.88183 0.57182 0.7746 0.0
C1715 C 0.90932 0.52717 0.75946 0.0
C1716 C 0.91434 0.50747 0.74327 0.0
C1717 C 0.88573 0.55021 0.75885 0.0
C1718 C 0.89338 0.50855 0.72686 0.0
C1719 C 0.86963 0.53087 0.7262 0.0
H1720 H 0.55648 0.43317 0.77671 0.0
H1721 H 0.6143 0.44284 0.7229 0.0
H1722 H 0.57486 0.3622 0.72019 0.0
H1723 H 0.51757 0.28945 0.73154 0.0
H1724 H 0.46307 0.27808 0.78616 0.0
H1725 H 0.50712 0.35849 0.79021 0.0
C1726 C 0.5611 0.41742 0.76462 0.0
C1727 C 0.58813 0.44376 0.74997 0.0
C1728 C 0.53803 0.37082 0.76312 0.0
C1729 C 0.59366 0.42313 0.73431 0.0
C1730 C 0.5709 0.37707 0.73271 0.0
C1731 C 0.51554 0.30458 0.74437 0.0
C1732 C 0.48514 0.27818 0.75811 0.0
C1733 C 0.5419 0.35065 0.74675 0.0
C1734 C 0.48446 0.29798 0.775 0.0
C1735 C 0.51004 0.34394 0.77738 0.0
H1736 H 0.66906 0.18479 0.72935 0.0
H1737 H 0.63457 0.17413 0.78734 0.0
H1738 H 0.71299 0.21088 0.79567 0.0
H1739 H 0.79197 0.24207 0.78647 0.0
H1740 H 0.82395 0.24573 0.72863 0.0
H1741 H 0.74643 0.21588 0.72023 0.0
C1742 C 0.67844 0.19024 0.74385 0.0
C1743 C 0.64543 0.17621 0.75766 0.0
C1744 C 0.7235 0.21022 0.74857 0.0
C1745 C 0.65889 0.18484 0.77634 0.0
C1746 C 0.70387 0.20566 0.78114 0.0
C1747 C 0.78171 0.23619 0.77206 0.0
C1748 C 0.8134 0.24491 0.75814 0.0
C1749 C 0.73652 0.21788 0.76739 0.0
C1750 C 0.8 0.23819 0.73952 0.0
C1751 C 0.75567 0.22131 0.73475 0.0
H1752 H 0.14271 0.17282 0.60936 0.0
H1753 H 0.19633 0.27568 0.56829 0.0
H1754 H 0.24663 0.24992 0.55747 0.0
H1755 H 0.28426 0.20563 0.56417 0.0
H1756 H 0.23838 0.11749 0.61118 0.0
H1757 H 0.1751 0.1268 0.61415 0.0
C1758 C 0.16486 0.18903 0.59777 0.0
C1759 C 0.16635 0.22622 0.58981 0.0
C1760 C 0.19597 0.17679 0.59289 0.0
C1761 C 0.19472 0.24687 0.57467 0.0
C1762 C 0.22395 0.23256 0.56872 0.0
C1763 C 0.26185 0.19045 0.57561 0.0
C1764 C 0.26925 0.16445 0.5885 0.0
C1765 C 0.22685 0.19928 0.57857 0.0
C1766 C 0.23584 0.14002 0.60164 0.0
C1767 C 0.19914 0.14513 0.60342 0.0
H1768 H 0.8956 0.99044 0.56278 0.0
H1769 H 0.8383 0.97718 0.61695 0.0
H1770 H 0.84862 0.05168 0.6146 0.0
H1771 H 0.8854 0.12428 0.59926 0.0
H1772 H 0.94042 0.13734 0.54464 0.0
H1773 H 0.91998 0.05918 0.54494 0.0
C1774 C 0.88388 1.00342 0.5737 0.0
C1775 C 0.86624 0.9788 0.59 0.0
C1776 C 0.89054 0.04642 0.57233 0.0
C1777 C 0.85158 0.9957 0.60424 0.0
C1778 C 0.85811 0.03843 0.60301 0.0
C1779 C 0.89152 0.10953 0.58722 0.0
C1780 C 0.91348 0.13592 0.5718 0.0
C1781 C 0.87931 0.0647 0.58747 0.0
C1782 C 0.92288 0.11715 0.55651 0.0
C1783 C 0.91125 0.07262 0.5567 0.0
H1784 H 0.09632 0.90225 0.60944 0.0
H1785 H 0.13308 0.91408 0.55182 0.0
H1786 H 0.0547 0.87226 0.54289 0.0
H1787 H 0.97493 0.82722 0.55204 0.0
H1788 H 0.94144 0.81629 0.60961 0.0
H1789 H 1.01863 0.86292 0.61824 0.0
C1790 C 0.08717 0.8957 0.59492 0.0
C1791 C 0.12031 0.91064 0.58134 0.0
C1792 C 0.04246 0.87153 0.58997 0.0
C1793 C 0.10802 0.90283 0.56254 0.0
C1794 C 0.06325 0.87889 0.55744 0.0
C1795 C 0.98488 0.83513 0.56642 0.0
C1796 C 0.95295 0.81629 0.58056 0.0
C1797 C 0.03004 0.86224 0.57109 0.0
C1798 C 0.96591 0.8282 0.59895 0.0
C1799 C 1.00997 0.85537 0.60373 0.0
H1800 H 0.58398 0.0344 0.03086 0.0
H1801 H 0.50775 0.0993 0.03882 0.0
H1802 H 0.48995 0.09173 0.00605 0.0
H1803 H 0.48824 0.05883 0.97646 0.0
H1804 H 0.57627 1.00933 0.96469 0.0
H1805 H 0.59601 0.01652 0.9979 0.0
C1806 C 0.56579 0.04929 0.02517 0.0
C1807 C 0.54805 0.06844 0.03734 0.0
C1808 C 0.55642 0.04585 0.00585 0.0
C1809 C 0.52311 0.08598 0.02979 0.0
C1810 C 0.51204 0.08072 0.01105 0.0
C1811 C 0.51332 0.05151 0.98063 0.0
C1812 C 0.53102 0.03439 0.96762 0.0
C1813 C 0.5274 0.0596 0.99913 0.0
C1814 C 0.56165 0.02249 0.97416 0.0
C1815 C 0.57334 0.0271 0.99318 0.0
H1816 H 0.11026 0.57394 0.97441 0.0
H1817 H 0.97314 0.47542 0.96737 0.0
H1818 H 0.95912 0.47864 1.00007 0.0
H1819 H 0.98818 0.49984 0.03166 0.0
H1820 H 0.12527 0.5967 0.03934 0.0
H1821 H 0.13681 0.60429 0.00598 0.0
C1822 C 0.07728 0.55391 0.98005 0.0
C1823 C 0.04309 0.52371 0.96854 0.0
C1824 C 0.0694 0.55533 0.9992 0.0
C1825 C 1.00037 0.49813 0.97597 0.0
C1826 C 0.99215 0.50004 0.99475 0.0
C1827 C 1.02 0.52398 0.02599 0.0
C1828 C 0.05586 0.54724 0.03797 0.0
C1829 C 0.0267 0.52721 0.00666 0.0
C1830 C 0.09723 0.57782 0.03044 0.0
C1831 C 0.10395 0.58209 0.01127 0.0
H1832 H 0.50997 0.54941 0.9796 0.0
H1833 H 0.61069 0.51605 0.96733 0.0
H1834 H 0.6176 0.50409 0.99998 0.0
H1835 H 0.60348 0.51347 0.03258 0.0
H1836 H 0.49893 0.5399 0.04583 0.0
H1837 H 0.48514 0.54398 0.01285 0.0
C1838 C 0.53245 0.53832 0.98405 0.0
C1839 C 0.56042 0.53457 0.97087 0.0
C1840 C 0.53622 0.53086 1.00325 0.0
C1841 C 0.5893 0.52008 0.97707 0.0
C1842 C 0.59344 0.51324 0.99584 0.0
C1843 C 0.57654 0.51841 0.02826 0.0
C1844 C 0.55227 0.52613 0.04183 0.0
C1845 C 0.56831 0.52003 0.00915 0.0
C1846 C 0.51792 0.53325 0.03586 0.0
C1847 C 0.51027 0.53605 0.01685 0.0
H1848 H 0.25187 0.44021 0.36293 0.0
H1849 H 0.17686 0.3003 0.37361 0.0
H1850 H 0.17802 0.28428 0.34092 0.0
H1851 H 0.18815 0.30973 0.3085 0.0
H1852 H 0.25818 0.44931 0.29723 0.0
H1853 H 0.27128 0.4657 0.33035 0.0
C1854 C 0.23741 0.40636 0.35813 0.0
C1855 C 0.21541 0.37161 0.37084 0.0
C1856 C 0.23637 0.39718 0.33892 0.0
C1857 C 0.19537 0.32777 0.36427 0.0
C1858 C 0.19532 0.31845 0.34544 0.0
C1859 C 0.20774 0.34356 0.31332 0.0
C1860 C 0.22268 0.3782 0.30049 0.0
C1861 C 0.21409 0.35281 0.33252 0.0
C1862 C 0.24694 0.42206 0.30691 0.0
C1863 C 0.2541 0.43149 0.32588 0.0
H1864 H 0.65264 0.85247 0.36699 0.0
H1865 H 0.78999 0.89095 0.37246 0.0
H1866 H 0.80196 0.90666 0.33966 0.0
H1867 H 0.77143 0.89846 0.30837 0.0
H1868 H 0.63296 0.85372 0.30181 0.0
H1869 H 0.62364 0.85263 0.33543 0.0
C1870 C 0.6853 0.86534 0.36102 0.0
C1871 C 0.72035 0.87041 0.37233 0.0
C1872 C 0.69182 0.8731 0.34165 0.0
C1873 C 0.76237 0.88665 0.36425 0.0
C1874 C 0.76934 0.89562 0.34534 0.0
C1875 C 0.73974 0.8904 0.31432 0.0
C1876 C 0.70317 0.87677 0.30261 0.0
C1877 C 0.73409 0.88761 0.33375 0.0
C1878 C 0.66184 0.8649 0.31055 0.0
C1879 C 0.65632 0.8637 0.32983 0.0
H1880 H 0.18856 0.90977 0.30842 0.0
H1881 H 0.22329 0.80923 0.29902 0.0
H1882 H 0.2283 0.80064 0.33227 0.0
H1883 H 0.23415 0.82993 0.36427 0.0
H1884 H 0.19763 0.92921 0.37356 0.0
H1885 H 0.18192 0.92977 0.34079 0.0
C1886 C 0.19513 0.88457 0.31367 0.0
C1887 C 0.20483 0.85979 0.30108 0.0
C1888 C 0.19899 0.88036 0.33307 0.0
C1889 C 0.21481 0.82826 0.30829 0.0
C1890 C 0.21839 0.82374 0.32741 0.0
C1891 C 0.22168 0.85079 0.35917 0.0
C1892 C 0.21783 0.88002 0.37147 0.0
C1893 C 0.21229 0.85083 0.33999 0.0
C1894 C 0.20166 0.90685 0.36451 0.0
C1895 C 0.19253 0.90721 0.34563 0.0
H1896 H 0.91042 0.77671 0.70112 0.0
H1897 H 0.83109 0.63626 0.70879 0.0
H1898 H 0.83448 0.62371 0.67565 0.0
H1899 H 0.85082 0.65389 0.64369 0.0
H1900 H 0.92468 0.79529 0.63695 0.0
H1901 H 0.93422 0.80605 0.66979 0.0
C1902 C 0.89502 0.74343 0.69552 0.0
C1903 C 0.87058 0.70747 0.70724 0.0
C1904 C 0.89624 0.73655 0.67635 0.0
C1905 C 0.85017 0.66443 0.69992 0.0
C1906 C 0.85196 0.65723 0.68095 0.0
C1907 C 0.87037 0.68684 0.64943 0.0
C1908 C 0.8878 0.72354 0.63754 0.0
C1909 C 0.87366 0.69317 0.66886 0.0
C1910 C 0.91189 0.76615 0.64534 0.0
C1911 C 0.91682 0.77258 0.66441 0.0
H1912 H 0.35053 0.20759 0.63795 0.0
H1913 H 0.47023 0.20124 0.63377 0.0
H1914 H 0.47583 0.20156 0.66755 0.0
H1915 H 0.44373 0.1974 0.69814 0.0
H1916 H 0.32146 0.19814 0.70328 0.0
H1917 H 0.32043 0.20799 0.66951 0.0
C1918 C 0.37862 0.20793 0.64451 0.0
C1919 C 0.41072 0.20567 0.63335 0.0
C1920 C 0.3807 0.20642 0.66413 0.0
C1921 C 0.4459 0.20421 0.64202 0.0
C1922 C 0.44879 0.20385 0.66135 0.0
C1923 C 0.41636 0.19876 0.69189 0.0
C1924 C 0.38185 0.19518 0.70321 0.0
C1925 C 0.41575 0.20363 0.67252 0.0
C1926 C 0.34814 0.20008 0.69491 0.0
C1927 C 0.34753 0.20559 0.67557 0.0
H1928 H 0.86273 0.25163 0.63956 0.0
H1929 H 0.89296 0.14729 0.63265 0.0
H1930 H 0.89424 0.1391 0.66629 0.0
H1931 H 0.89833 0.16991 0.69797 0.0
H1932 H 0.87305 0.27817 0.70382 0.0
H1933 H 0.85808 0.27615 0.67096 0.0
C1934 C 0.86772 0.2259 0.64544 0.0
C1935 C 0.87721 0.19985 0.63359 0.0
C1936 C 0.87045 0.22273 0.66488 0.0
C1937 C 0.88507 0.16753 0.64147 0.0
C1938 C 0.88636 0.16316 0.66077 0.0
C1939 C 0.88852 0.19224 0.69209 0.0
C1940 C 0.88714 0.22426 0.70352 0.0
C1941 C 0.88091 0.19184 0.6727 0.0
C1942 C 0.87472 0.25325 0.69549 0.0
C1943 C 0.86613 0.25227 0.67657 0.0
H1944 H 0.37917 0.97826 0.20645 0.0
H1945 H 0.26623 0.87934 0.17602 0.0
H1946 H 0.31347 0.8954 0.14846 0.0
H1947 H 0.38642 0.93703 0.13352 0.0
H1948 H 0.49774 0.03829 0.16392 0.0
H1949 H 0.45096 0.0203 0.19157 0.0
C1950 C 0.36403 0.96011 0.19384 0.0
C1951 C 0.31822 0.92761 0.1935 0.0
C1952 C 0.39141 0.96945 0.17823 0.0
C1953 C 0.30059 0.90485 0.17681 0.0
C1954 C 0.32791 0.91383 0.1611 0.0
C1955 C 0.40097 0.95551 0.14609 0.0
C1956 C 0.44627 0.98943 0.14639 0.0
C1957 C 0.37337 0.94596 0.16173 0.0
C1958 C 0.46371 1.01193 0.16313 0.0
C1959 C 0.43665 1.0019 0.1789 0.0
H1960 H 0.09033 0.41752 0.13527 0.0
H1961 H 0.11772 0.54318 0.15774 0.0
H1962 H 0.15541 0.53125 0.1842 0.0
H1963 H 0.17741 0.48285 0.2011 0.0
H1964 H 0.14308 0.35526 0.17845 0.0
H1965 H 0.10945 0.36978 0.15158 0.0
C1966 C 0.10247 0.4419 0.14612 0.0
C1967 C 0.09916 0.48057 0.14463 0.0
C1968 C 0.12333 0.4345 0.16104 0.0
C1969 C 0.1182 0.5125 0.1587 0.0
C1970 C 0.14022 0.50581 0.17368 0.0
C1971 C 0.16353 0.45875 0.18999 0.0
C1972 C 0.16367 0.41833 0.19147 0.0
C1973 C 0.14287 0.46681 0.17494 0.0
C1974 C 0.14495 0.38706 0.17726 0.0
C1975 C 0.12501 0.39512 0.16213 0.0
H1976 H 0.69775 0.80357 0.17679 0.0
H1977 H 0.60143 0.71938 0.21693 0.0
H1978 H 0.56863 0.65877 0.19477 0.0
H1979 H 0.57087 0.62663 0.16382 0.0
H1980 H 0.65843 0.71896 0.12258 0.0
H1981 H 0.69014 0.77665 0.1448 0.0
C1982 C 0.66874 0.77252 0.18051 0.0
C1983 C 0.65303 0.76607 0.19874 0.0
C1984 C 0.64889 0.73763 0.16742 0.0
C1985 C 0.61525 0.7252 0.20316 0.0
C1986 C 0.59632 0.69013 0.19043 0.0
C1987 C 0.59691 0.65917 0.1597 0.0
C1988 C 0.6135 0.66599 0.14142 0.0
C1989 C 0.61372 0.69525 0.17254 0.0
C1990 C 0.64595 0.71 0.13654 0.0
C1991 C 0.66421 0.74438 0.1493 0.0
H1992 H 0.97472 0.45171 0.84365 0.0
H1993 H 0.03296 0.39279 0.87659 0.0
H1994 H 1.01105 0.33345 0.85555 0.0
H1995 H 0.96997 0.29301 0.82799 0.0
H1996 H 0.89637 0.34033 0.7975 0.0
H1997 H 0.92546 0.40584 0.81741 0.0
C1998 C 0.98439 0.42697 0.84566 0.0
C1999 C 1.01298 0.43193 0.86057 0.0
C2000 C 0.96537 0.38815 0.83434 0.0
C2001 C 1.02002 0.39618 0.86383 0.0
C2002 C 1.00411 0.35962 0.85218 0.0
C2003 C 0.95878 0.31668 0.82619 0.0
C2004 C 0.92969 0.31059 0.81164 0.0
C2005 C 0.97624 0.35476 0.83752 0.0
C2006 C 0.91732 0.34297 0.80904 0.0
C2007 C 0.93486 0.38119 0.8202 0.0
H2008 H 0.69464 0.57531 0.86881 0.0
H2009 H 0.59931 0.60449 0.84444 0.0
H2010 H 0.64794 0.63638 0.81734 0.0
H2011 H 0.72037 0.6636 0.80282 0.0
H2012 H 0.81809 0.63871 0.82795 0.0
H2013 H 0.76616 0.59967 0.85345 0.0
C2014 C 0.68389 0.58793 0.85742 0.0
C2015 C 0.64291 0.58734 0.85875 0.0
C2016 C 0.71321 0.60853 0.84253 0.0
C2017 C 0.62985 0.60366 0.84378 0.0
C2018 C 0.65824 0.62274 0.82847 0.0
C2019 C 0.73072 0.64939 0.81367 0.0
C2020 C 0.77372 0.65427 0.81325 0.0
C2021 C 0.70053 0.62667 0.82806 0.0
C2022 C 0.78572 0.63577 0.82779 0.0
C2023 C 0.75579 0.61317 0.84229 0.0
H2024 H 0.40598 0.08327 0.8041 0.0
H2025 H 0.44811 0.21394 0.8253 0.0
H2026 H 0.48904 0.20134 0.8502 0.0
H2027 H 0.51023 0.15098 0.86665 0.0
H2028 H 0.46855 0.02204 0.84383 0.0
H2029 H 0.43044 0.03642 0.81868 0.0
C2030 C 0.42393 0.10944 0.81406 0.0
C2031 C 0.4231 0.14963 0.81266 0.0
C2032 C 0.44824 0.10233 0.82792 0.0
C2033 C 0.44718 0.18253 0.82597 0.0
C2034 C 0.471 0.17535 0.84015 0.0
C2035 C 0.49444 0.12683 0.85568 0.0
C2036 C 0.4942 0.08602 0.85674 0.0
C2037 C 0.47184 0.13532 0.84125 0.0
C2038 C 0.47149 0.05435 0.84292 0.0
C2039 C 0.44884 0.06233 0.82873 0.0
H2040 H 0.04364 0.26941 0.53847 0.0
H2041 H 0.93369 0.26635 0.50962 0.0
H2042 H 0.97915 0.29361 0.4816 0.0
H2043 H 0.04966 0.32172 0.46638 0.0
H2044 H 0.16152 0.3281 0.4949 0.0
H2045 H 0.11526 0.2972 0.52269 0.0
C2046 C 0.02922 0.27447 0.52606 0.0
C2047 C 0.98489 0.26589 0.52626 0.0
C2048 C 0.0561 0.2917 0.51028 0.0
C2049 C 0.96712 0.2721 0.50991 0.0
C2050 C 0.99341 0.28825 0.49398 0.0
C2051 C 0.06487 0.31704 0.47857 0.0
C2052 C 0.11011 0.32849 0.47843 0.0
C2053 C 0.03804 0.29893 0.4942 0.0
C2054 C 0.12767 0.32092 0.49457 0.0
C2055 C 0.1009 0.30271 0.51038 0.0
H2056 H 0.74239 0.75042 0.47273 0.0
H2057 H 0.7811 0.88036 0.49419 0.0
H2058 H 0.81967 0.86727 0.51986 0.0
H2059 H 0.84071 0.8183 0.53619 0.0
H2060 H 0.79793 0.68724 0.51512 0.0
H2061 H 0.76419 0.70264 0.48839 0.0
C2062 C 0.75878 0.77624 0.48296 0.0
C2063 C 0.75808 0.81654 0.48141 0.0
C2064 C 0.7811 0.76857 0.49741 0.0
C2065 C 0.78028 0.84902 0.495 0.0
C2066 C 0.80273 0.84158 0.50957 0.0
C2067 C 0.82452 0.79308 0.52562 0.0
C2068 C 0.82203 0.75136 0.52774 0.0
C2069 C 0.80336 0.8015 0.51084 0.0
C2070 C 0.80115 0.71959 0.51381 0.0
C2071 C 0.78115 0.72825 0.49871 0.0
H2072 H 0.25832 0.02762 0.46812 0.0
H2073 H 0.26362 0.9232 0.4977 0.0
H2074 H 0.29437 0.97175 0.52475 0.0
H2075 H 0.32582 0.04493 0.53866 0.0
H2076 H 0.31833 0.14992 0.51045 0.0
H2077 H 0.28331 0.10015 0.48381 0.0
C2078 C 0.26505 1.01502 0.4807 0.0
C2079 C 0.25787 0.97117 0.48088 0.0
C2080 C 0.28335 0.04358 0.49617 0.0
C2081 C 0.26746 0.95589 0.49721 0.0
C2082 C 0.28581 0.98409 0.51259 0.0
C2083 C 0.316 0.05737 0.52697 0.0
C2084 C 0.32504 0.10187 0.52686 0.0
C2085 C 0.29481 0.02821 0.51204 0.0
C2086 C 0.31225 0.11637 0.51112 0.0
C2087 C 0.292 0.08769 0.49589 0.0
H2088 H 0.47387 0.2574 0.0808 0.0
H2089 H 0.57261 0.31911 0.12355 0.0
H2090 H 0.57964 0.25312 0.1255 0.0
H2091 H 0.55077 0.17562 0.11827 0.0
H2092 H 0.46293 0.11622 0.07183 0.0
H2093 H 0.45721 0.18312 0.06849 0.0
C2094 C 0.49768 0.25671 0.09022 0.0
C2095 C 0.52239 0.29318 0.10221 0.0
C2096 C 0.502 0.21853 0.09112 0.0
C2097 C 0.55336 0.29186 0.11418 0.0
C2098 C 0.55699 0.25384 0.11544 0.0
C2099 C 0.5303 0.17671 0.10724 0.0
C2100 C 0.50404 0.13863 0.09628 0.0
C2101 C 0.53025 0.2165 0.1045 0.0
C2102 C 0.48022 0.14289 0.08152 0.0
C2103 C 0.47792 0.18182 0.07935 0.0
H2104 H 0.78065 0.30718 0.09493 0.0
H2105 H 0.82334 0.21248 0.1043 0.0
H2106 H 0.89931 0.2682 0.097 0.0
H2107 H 0.95358 0.34588 0.09476 0.0
H2108 H 0.91442 0.44181 0.08322 0.0
H2109 H 0.83678 0.38371 0.08458 0.0
C2110 C 0.80634 0.2984 0.09462 0.0
C2111 C 0.79638 0.25574 0.1003 0.0
C2112 C 0.85055 0.33106 0.09057 0.0
C2113 C 0.83015 0.245 0.10001 0.0
C2114 C 0.8737 0.277 0.09598 0.0
C2115 C 0.92907 0.3545 0.09171 0.0
C2116 C 0.941 0.39903 0.08945 0.0
C2117 C 0.88455 0.32063 0.09219 0.0
C2118 C 0.90684 0.4082 0.08555 0.0
C2119 C 0.86215 0.3748 0.08632 0.0
H2120 H 0.68548 0.54897 0.08171 0.0
H2121 H 0.7092 0.62654 0.13131 0.0
H2122 H 0.78353 0.63871 0.13344 0.0
H2123 H 0.83893 0.62153 0.1237 0.0
H2124 H 0.80801 0.52232 0.08164 0.0
H2125 H 0.74143 0.5257 0.0734 0.0
C2126 C 0.70772 0.56981 0.09252 0.0
C2127 C 0.69314 0.59073 0.1053 0.0
C2128 C 0.74923 0.57198 0.09515 0.0
C2129 C 0.72077 0.61367 0.12032 0.0
C2130 C 0.76315 0.61984 0.1218 0.0
C2131 C 0.81747 0.59954 0.11297 0.0
C2132 C 0.82841 0.57045 0.10389 0.0
C2133 C 0.77728 0.59825 0.10963 0.0
C2134 C 0.8009 0.5449 0.08914 0.0
C2135 C 0.76232 0.54647 0.08454 0.0
H2136 H 0.27857 0.52392 0.87612 0.0
H2137 H 0.31054 0.50403 0.9317 0.0
H2138 H 0.24356 0.50193 0.9434 0.0
H2139 H 0.17338 0.50213 0.93743 0.0
H2140 H 0.14305 0.5219 0.88156 0.0
H2141 H 0.21125 0.52691 0.87035 0.0
C2142 C 0.27094 0.51912 0.89081 0.0
C2143 C 0.29943 0.51377 0.90298 0.0
C2144 C 0.23215 0.51722 0.89735 0.0
C2145 C 0.28943 0.50855 0.92203 0.0
C2146 C 0.25087 0.50692 0.9287 0.0
C2147 C 0.18178 0.50721 0.92281 0.0
C2148 C 0.15251 0.51 0.91022 0.0
C2149 C 0.22156 0.5105 0.91644 0.0
C2150 C 0.16432 0.51814 0.8914 0.0
C2151 C 0.20347 0.52132 0.885 0.0
H2152 H 0.58203 0.79474 0.87792 0.0
H2153 H 0.57618 0.8323 0.93443 0.0
H2154 H 0.57679 0.76618 0.9455 0.0
H2155 H 0.57996 0.69742 0.939 0.0
H2156 H 0.58826 0.66299 0.88232 0.0
H2157 H 0.5874 0.72881 0.87152 0.0
C2158 C 0.58144 0.78907 0.89272 0.0
C2159 C 0.57951 0.81933 0.90528 0.0
C2160 C 0.58308 0.75168 0.89898 0.0
C2161 C 0.57727 0.80987 0.92435 0.0
C2162 C 0.57812 0.77216 0.93071 0.0
C2163 C 0.58245 0.70494 0.92432 0.0
C2164 C 0.58582 0.67604 0.91151 0.0
C2165 C 0.58142 0.74296 0.91816 0.0
C2166 C 0.58741 0.6854 0.8925 0.0
C2167 C 0.58631 0.72281 0.88631 0.0
H2168 H 0.41358 0.9083 0.87811 0.0
H2169 H 0.39625 0.95245 0.93167 0.0
H2170 H 0.32438 0.88403 0.93495 0.0
H2171 H 0.26414 0.81241 0.9211 0.0
H2172 H 0.29154 0.76571 0.87019 0.0
H2173 H 0.36306 0.83339 0.86783 0.0
C2174 C 0.39447 0.90332 0.89064 0.0
C2175 C 0.40933 0.93734 0.90409 0.0
C2176 C 0.35533 0.86262 0.89305 0.0
C2177 C 0.38455 0.92854 0.92052 0.0
C2178 C 0.34376 0.88887 0.92253 0.0
C2179 C 0.2865 0.81655 0.90985 0.0
C2180 C 0.27254 0.78374 0.89584 0.0
C2181 C 0.3284 0.85578 0.9087 0.0
C2182 C 0.30164 0.78995 0.88123 0.0
C2183 C 0.34233 0.82898 0.87975 0.0
H2184 H 0.23967 0.63906 0.42793 0.0
H2185 H 0.09919 0.58852 0.42678 0.0
H2186 H 0.08601 0.51421 0.42038 0.0
H2187 H 0.11406 0.46296 0.42106 0.0
H2188 H 0.25355 0.51158 0.42305 0.0
H2189 H 0.26795 0.58725 0.42234 0.0
C2190 C 0.20637 0.61206 0.4255 0.0
C2191 C 0.17041 0.61924 0.42777 0.0
C2192 C 0.19891 0.56893 0.42231 0.0
C2193 C 0.12734 0.5838 0.42494 0.0
C2194 C 0.11979 0.54121 0.42146 0.0
C2195 C 0.1474 0.48936 0.42114 0.0
C2196 C 0.18225 0.48056 0.42316 0.0
C2197 C 0.15522 0.53304 0.42106 0.0
C2198 C 0.2257 0.51675 0.42219 0.0
C2199 C 0.23403 0.56036 0.42182 0.0
H2200 H 0.61939 0.69821 0.41651 0.0
H2201 H 0.57222 0.77507 0.44506 0.0
H2202 H 0.49806 0.71323 0.44473 0.0
H2203 H 0.44833 0.63312 0.44246 0.0
H2204 H 0.49649 0.55202 0.41888 0.0
H2205 H 0.56771 0.6179 0.41194 0.0
C2206 C 0.59354 0.70132 0.4231 0.0
C2207 C 0.60327 0.74121 0.43191 0.0
C2208 C 0.55043 0.66394 0.42413 0.0
C2209 C 0.56724 0.74491 0.43871 0.0
C2210 C 0.52421 0.70916 0.43866 0.0
C2211 C 0.47407 0.63009 0.43535 0.0
C2212 C 0.46708 0.5879 0.43105 0.0
C2213 C 0.51576 0.66787 0.43236 0.0
C2214 C 0.50104 0.58429 0.42218 0.0
C2215 C 0.54194 0.62198 0.41837 0.0
H2216 H 0.49493 0.93751 0.41091 0.0
H2217 H 0.48316 0.87126 0.46275 0.0
H2218 H 0.41025 0.86346 0.46788 0.0
H2219 H 0.35302 0.88091 0.45891 0.0
H2220 H 0.35741 0.93529 0.40485 0.0
H2221 H 0.43078 0.94392 0.39948 0.0
C2222 C 0.47586 0.9205 0.42312 0.0
C2223 C 0.49441 0.90492 0.43647 0.0
C2224 C 0.43352 0.91557 0.42583 0.0
C2225 C 0.46947 0.88309 0.45223 0.0
C2226 C 0.42801 0.8791 0.45525 0.0
C2227 C 0.36988 0.89471 0.4459 0.0
C2228 C 0.35083 0.91023 0.43276 0.0
C2229 C 0.41027 0.89623 0.44238 0.0
C2230 C 0.37249 0.92593 0.41569 0.0
C2231 C 0.41408 0.92998 0.41249 0.0
H2232 H 0.84567 0.87034 0.25937 0.0
H2233 H 0.77235 0.76973 0.21871 0.0
H2234 H 0.835 0.75821 0.21407 0.0
H2235 H 0.91305 0.78297 0.21845 0.0
H2236 H 0.99243 0.89528 0.25369 0.0
H2237 H 0.92561 0.89517 0.264 0.0
C2238 C 0.843 0.84459 0.25013 0.0
C2239 C 0.80306 0.8185 0.24039 0.0
C2240 C 0.88095 0.84105 0.24626 0.0
C2241 C 0.80137 0.7879 0.22732 0.0
C2242 C 0.83767 0.78205 0.22437 0.0
C2243 C 0.91631 0.80795 0.22825 0.0
C2244 C 0.95868 0.83977 0.23484 0.0
C2245 C 0.87808 0.80946 0.23327 0.0
C2246 C 0.96086 0.87023 0.24825 0.0
C2247 C 0.92244 0.87045 0.25406 0.0
H2248 H 0.22348 1.01184 0.21839 0.0
H2249 H 0.27531 1.01414 0.27284 0.0
H2250 H 0.28236 0.08673 0.27867 0.0
H2251 H 0.27557 0.15085 0.26741 0.0
H2252 H 0.21121 0.1401 0.2151 0.0
H2253 H 0.20451 0.06779 0.20973 0.0
C2254 C 0.23638 0.0279 0.23163 0.0
C2255 C 0.25191 1.00865 0.24472 0.0
C2256 C 0.23671 0.06755 0.23539 0.0
C2257 C 0.26635 0.02948 0.26201 0.0
C2258 C 0.26933 0.07056 0.26548 0.0
C2259 C 0.2593 0.13218 0.25502 0.0
C2260 C 0.24418 0.15101 0.24157 0.0
C2261 C 0.25506 0.09019 0.25214 0.0
C2262 C 0.22291 0.12637 0.22566 0.0
C2263 C 0.21956 0.08525 0.22251 0.0
H2264 H 0.97718 0.11149 0.22891 0.0
H2265 H 0.89724 0.15491 0.25722 0.0
H2266 H 0.96271 0.22745 0.26293 0.0
H2267 H 0.04218 0.28142 0.25677 0.0
H2268 H 0.11863 0.23769 0.22562 0.0
H2269 H 0.05684 0.16325 0.22507 0.0
C2270 C 0.97438 0.13632 0.23689 0.0
C2271 C 0.93238 0.12727 0.24296 0.0
C2272 C 1.01203 0.17866 0.23951 0.0
C2273 C 0.92926 0.16057 0.25274 0.0
C2274 C 0.96675 0.20233 0.25584 0.0
C2275 C 0.0454 0.25604 0.24976 0.0
C2276 C 0.08545 0.26691 0.24069 0.0
C2277 C 1.00829 0.21242 0.24876 0.0
C2278 C 0.08864 0.23175 0.2325 0.0
C2279 C 0.05291 0.18855 0.23207 0.0
H2280 H 0.87995 0.84411 0.79177 0.0
H2281 H 0.81491 0.78961 0.73967 0.0
H2282 H 0.80899 0.85589 0.73417 0.0
H2283 H 0.81987 0.92867 0.7454 0.0
H2284 H 0.89675 0.98648 0.79485 0.0
H2285 H 0.90288 0.92047 0.79971 0.0
C2286 C 0.86441 0.84645 0.77914 0.0
C2287 C 0.84488 0.81028 0.76676 0.0
C2288 C 0.86453 0.88595 0.77542 0.0
C2289 C 0.82719 0.81536 0.75007 0.0
C2290 C 0.82473 0.85376 0.74676 0.0
C2291 C 0.83897 0.92713 0.75693 0.0
C2292 C 0.85798 0.9624 0.76977 0.0
C2293 C 0.84281 0.8891 0.7595 0.0
C2294 C 0.88235 0.96003 0.78472 0.0
C2295 C 0.88535 0.92207 0.78761 0.0
H2296 H 0.25243 0.04959 0.73357 0.0
H2297 H 0.29327 0.08441 0.79046 0.0
H2298 H 0.22631 0.01905 0.80111 0.0
H2299 H 0.15619 0.95254 0.79458 0.0
H2300 H 0.11484 0.91336 0.73803 0.0
H2301 H 0.18094 0.98031 0.72697 0.0
C2302 C 0.24676 0.04235 0.74826 0.0
C2303 C 0.27842 0.07129 0.76118 0.0
C2304 C 0.20776 1.00427 0.75437 0.0
C2305 C 0.27016 0.06216 0.78021 0.0
C2306 C 0.23161 0.02494 0.78632 0.0
C2307 C 0.16162 0.95814 0.77978 0.0
C2308 C 0.13048 0.92724 0.76719 0.0
C2309 C 0.20023 0.99581 0.77356 0.0
C2310 C 0.13783 0.93638 0.7481 0.0
C2311 C 0.17596 0.97452 0.74176 0.0
H2312 H 0.13229 0.19885 0.75754 0.0
H2313 H 0.18798 0.28764 0.80405 0.0
H2314 H 0.13144 0.30854 0.8013 0.0
H2315 H 0.05827 0.29103 0.78965 0.0
H2316 H 1.00551 0.21065 0.74089 0.0
H2317 H 0.06772 0.19647 0.74065 0.0
C2318 C 0.13306 0.22398 0.76661 0.0
C2319 C 0.16437 0.24095 0.78126 0.0
C2320 C 0.10019 0.2367 0.7648 0.0
C2321 C 0.16429 0.27347 0.79284 0.0
C2322 C 0.13165 0.28534 0.79136 0.0
C2323 C 0.06181 0.27286 0.77822 0.0
C2324 C 0.0279 0.25359 0.76487 0.0
C2325 C 0.09835 0.26584 0.77793 0.0
C2326 C 0.03182 0.22745 0.75093 0.0
C2327 C 0.06725 0.2188 0.75097 0.0
H2328 H 0.51657 0.20985 0.54706 0.0
H2329 H 0.46061 0.1398 0.59806 0.0
H2330 H 0.52564 0.13172 0.60284 0.0
H2331 H 0.59783 0.14235 0.59134 0.0
H2332 H 0.65835 0.22501 0.54358 0.0
H2333 H 0.59317 0.23289 0.53926 0.0
C2334 C 0.51833 0.19267 0.55925 0.0
C2335 C 0.48191 0.17213 0.57141 0.0
C2336 C 0.55737 0.19169 0.5627 0.0
C2337 C 0.48634 0.15261 0.58768 0.0
C2338 C 0.5241 0.14895 0.59063 0.0
C2339 C 0.59696 0.16282 0.58025 0.0
C2340 C 0.63258 0.18281 0.56766 0.0
C2341 C 0.5596 0.16782 0.57804 0.0
C2342 C 0.63139 0.20949 0.55342 0.0
C2343 C 0.59395 0.21357 0.55084 0.0
H2344 H 0.98202 0.39844 0.57387 0.0
H2345 H 0.84479 0.30539 0.58248 0.0
H2346 H 0.82801 0.36532 0.58191 0.0
H2347 H 0.85237 0.44442 0.5746 0.0
H2348 H 0.99184 0.53718 0.56992 0.0
H2349 H 1.00846 0.47796 0.57496 0.0
C2350 C 0.94919 0.3912 0.57707 0.0
C2351 C 0.91538 0.34695 0.57873 0.0
C2352 C 0.9401 0.42632 0.5774 0.0
C2353 C 0.87193 0.33887 0.5814 0.0
C2354 C 0.8622 0.37335 0.58098 0.0
C2355 C 0.88641 0.45189 0.57543 0.0
C2356 C 0.92084 0.49535 0.57174 0.0
C2357 C 0.89595 0.41731 0.57838 0.0
C2358 C 0.96476 0.50415 0.57265 0.0
C2359 C 0.97429 0.47017 0.57536 0.0
H2360 H 0.6218 0.49131 0.54321 0.0
H2361 H 0.58344 0.44121 0.59892 0.0
H2362 H 0.64943 0.50625 0.61101 0.0
H2363 H 0.71866 0.57796 0.6057 0.0
H2364 H 0.75144 0.62998 0.55017 0.0
H2365 H 0.68619 0.56434 0.53818 0.0
C2366 C 0.62693 0.49463 0.55807 0.0
C2367 C 0.59673 0.46085 0.57005 0.0
C2368 C 0.66395 0.53298 0.56501 0.0
C2369 C 0.60586 0.46587 0.58921 0.0
C2370 C 0.64351 0.50345 0.59619 0.0
C2371 C 0.71086 0.57517 0.59103 0.0
C2372 C 0.73938 0.60928 0.57889 0.0
C2373 C 0.67273 0.53734 0.58423 0.0
C2374 C 0.72949 0.60488 0.55987 0.0
C2375 C 0.69238 0.56707 0.55299 0.0
loop_
_geom_bond_atom_site_label_1
_geom_bond_atom_site_label_2
_geom_bond_distance
_geom_bond_site_symmetry_2
_ccdc_geom_bond_type
Gd0 N31 2.661 1_565 S
Gd0 N37 2.601 . S
Gd0 O44 2.545 . S
Gd0 O45 2.606 . S
Gd0 O47 2.429 . S
Gd0 O48 2.545 . S
Gd0 O49 2.412 . S
Gd0 O51 2.362 1_565 S
Gd0 O52 2.324 . S
Gd0 C59 2.828 . S
Gd1 N10 2.661 1_545 S
Gd1 N14 2.601 . S
Gd1 O45 2.362 1_545 S
Gd1 O46 2.324 . S
Gd1 O50 2.545 . S
Gd1 O51 2.606 . S
Gd1 O53 2.429 . S
Gd1 O54 2.545 . S
Gd1 O55 2.412 . S
Gd1 C68 2.828 . S
C2 C5 1.417 . S
C2 C7 1.431 . S
C2 C8 1.412 . S
C3 C6 1.437 . S
C3 C7 1.317 . S
C3 H22 0.929 . S
C4 C5 1.426 . S
C4 C6 1.413 . S
C4 N14 1.359 1_565 S
C5 C2 1.417 . S
C5 C4 1.426 . S
C5 N10 1.350 . S
C6 C3 1.437 . S
C6 C4 1.413 . S
C6 C16 1.391 . S
C7 C2 1.431 . S
C7 C3 1.317 . S
C7 H18 0.930 . S
C8 C2 1.412 . S
C8 C9 1.355 . S
C8 H20 0.930 . S
C9 C8 1.355 . S
C9 C11 1.402 . S
C9 H21 0.930 . S
N10 Gd1 2.661 1_565 S
N10 C5 1.350 . S
N10 C11 1.307 . S
C11 C9 1.402 . S
C11 N10 1.307 . S
C11 H12 0.930 . S
H12 C11 0.930 . S
C13 N14 1.334 . S
C13 C15 1.394 . S
C13 H17 0.930 . S
N14 Gd1 2.601 . S
N14 C4 1.359 1_545 S
N14 C13 1.334 . S
C15 C13 1.394 . S
C15 C16 1.359 1_545 S
C15 H27 0.930 . S
C16 C6 1.391 . S
C16 C15 1.359 1_565 S
C16 H28 0.929 . S
H17 C13 0.930 . S
H18 C7 0.930 . S
H19 C36 0.930 . S
H20 C8 0.930 . S
H21 C9 0.930 . S
H22 C3 0.929 . S
H23 C41 0.930 . S
H24 C32 0.930 . S
H25 C33 0.930 . S
H26 C57 0.929 . S
H27 C15 0.930 . S
H28 C16 0.929 . S
H29 C58 0.930 . S
H30 C39 0.930 . S
N31 Gd0 2.661 1_545 S
N31 C35 1.350 . S
N31 C36 1.307 . S
C32 H24 0.930 . S
C32 C33 1.355 . S
C32 C34 1.412 . S
C33 H25 0.930 . S
C33 C32 1.355 . S
C33 C36 1.402 . S
C34 C32 1.412 . S
C34 C35 1.417 . S
C34 C58 1.431 . S
C35 N31 1.350 . S
C35 C34 1.417 . S
C35 C38 1.426 . S
C36 H19 0.930 . S
C36 N31 1.307 . S
C36 C33 1.402 . S
N37 Gd0 2.601 . S
N37 C38 1.359 1_565 S
N37 C41 1.334 . S
C38 C35 1.426 . S
C38 N37 1.359 1_545 S
C38 C42 1.413 . S
C39 H30 0.930 . S
C39 C40 1.359 1_565 S
C39 C41 1.394 . S
C40 C39 1.359 1_545 S
C40 C42 1.391 . S
C40 H43 0.929 . S
C41 H23 0.930 . S
C41 N37 1.334 . S
C41 C39 1.394 . S
C42 C38 1.413 . S
C42 C40 1.391 . S
C42 C57 1.437 . S
H43 C40 0.929 . S
O44 Gd0 2.545 . S
O44 C59 1.258 . S
O45 Gd0 2.606 . S
O45 Gd1 2.362 1_565 S
O45 C56 1.284 . S
O46 Gd1 2.324 . S
O46 C66 1.254 . S
O47 Gd0 2.429 . S
O47 C66 1.268 1_565 S
O48 Gd0 2.545 . S
O48 C56 1.250 . S
O49 Gd0 2.412 . S
O49 C59 1.252 . S
O50 Gd1 2.545 . S
O50 C68 1.258 . S
O51 Gd0 2.362 1_545 S
O51 Gd1 2.606 . S
O51 C67 1.284 . S
O52 Gd0 2.324 . S
O52 C75 1.254 . S
O53 Gd1 2.429 . S
O53 C75 1.268 1_545 S
O54 Gd1 2.545 . S
O54 C67 1.250 . S
O55 Gd1 2.412 . S
O55 C68 1.252 . S
C56 O45 1.284 . S
C56 O48 1.250 . S
C57 H26 0.929 . S
C57 C42 1.437 . S
C57 C58 1.317 . S
C58 H29 0.930 . S
C58 C34 1.431 . S
C58 C57 1.317 . S
C59 Gd0 2.828 . S
C59 O44 1.258 . S
C59 O49 1.252 . S
C59 C60 1.497 . S
C60 C59 1.497 . S
C60 C61 1.395 . S
C60 C62 1.380 . S
C61 C60 1.395 . S
C61 C64 1.398 . S
C61 H76 0.930 . S
C62 C60 1.380 . S
C62 C63 1.391 . S
C62 H77 0.930 . S
C63 C62 1.391 . S
C63 C65 1.387 . S
C64 C61 1.398 . S
C64 C65 1.380 . S
C64 H78 0.930 . S
C65 C63 1.387 . S
C65 C64 1.380 . S
C65 H79 0.930 . S
C66 O46 1.254 . S
C66 O47 1.268 1_545 S
C67 O51 1.284 . S
C67 O54 1.250 . S
C68 Gd1 2.828 . S
C68 O50 1.258 . S
C68 O55 1.252 . S
C68 C69 1.497 . S
C69 C68 1.497 . S
C69 C70 1.395 . S
C69 C71 1.380 . S
C70 C69 1.395 . S
C70 C73 1.398 . S
C70 H80 0.930 . S
C71 C69 1.380 . S
C71 C72 1.391 . S
C71 H81 0.930 . S
C72 C71 1.391 . S
C72 C74 1.387 . S
C73 C70 1.398 . S
C73 C74 1.380 . S
C73 H82 0.930 . S
C74 C72 1.387 . S
C74 C73 1.380 . S
C74 H83 0.930 . S
C75 O52 1.254 . S
C75 O53 1.268 1_565 S
H76 C61 0.930 . S
H77 C62 0.930 . S
H78 C64 0.930 . S
H79 C65 0.930 . S
H80 C70 0.930 . S
H81 C71 0.930 . S
H82 C73 0.930 . S
H83 C74 0.930 . S
Gd84 N115 2.661 . S
Gd84 N121 2.601 . S
Gd84 O128 2.545 . S
Gd84 O129 2.606 . S
Gd84 O131 2.429 . S
Gd84 O132 2.545 . S
Gd84 O133 2.412 . S
Gd84 O135 2.362 . S
Gd84 O136 2.324 . S
Gd84 C143 2.828 . S
Gd85 N94 2.661 . S
Gd85 N98 2.601 . S
Gd85 O129 2.362 . S
Gd85 O130 2.324 . S
Gd85 O134 2.545 1_455 S
Gd85 O135 2.606 . S
Gd85 O137 2.429 . S
Gd85 O138 2.545 1_455 S
Gd85 O139 2.412 1_455 S
Gd85 C152 2.828 1_455 S
C86 C89 1.417 . S
C86 C91 1.431 . S
C86 C92 1.412 . S
C87 C90 1.437 . S
C87 C91 1.317 . S
C87 H106 0.929 . S
C88 C89 1.426 . S
C88 C90 1.413 . S
C88 N98 1.359 . S
C89 C86 1.417 . S
C89 C88 1.426 . S
C89 N94 1.350 . S
C90 C87 1.437 . S
C90 C88 1.413 . S
C90 C100 1.391 . S
C91 C86 1.431 . S
C91 C87 1.317 . S
C91 H102 0.930 . S
C92 C86 1.412 . S
C92 C93 1.355 . S
C92 H104 0.930 . S
C93 C92 1.355 . S
C93 C95 1.402 . S
C93 H105 0.930 . S
N94 Gd85 2.661 . S
N94 C89 1.350 . S
N94 C95 1.307 . S
C95 C93 1.402 . S
C95 N94 1.307 . S
C95 H96 0.930 . S
H96 C95 0.930 . S
C97 N98 1.334 . S
C97 C99 1.394 . S
C97 H101 0.930 . S
N98 Gd85 2.601 . S
N98 C88 1.359 . S
N98 C97 1.334 . S
C99 C97 1.394 . S
C99 C100 1.359 . S
C99 H111 0.930 . S
C100 C90 1.391 . S
C100 C99 1.359 . S
C100 H112 0.929 . S
H101 C97 0.930 . S
H102 C91 0.930 . S
H103 C120 0.930 . S
H104 C92 0.930 . S
H105 C93 0.930 . S
H106 C87 0.929 . S
H107 C125 0.930 . S
H108 C116 0.930 . S
H109 C117 0.930 1_655 S
H110 C141 0.929 1_655 S
H111 C99 0.930 . S
H112 C100 0.929 . S
H113 C142 0.930 . S
H114 C123 0.930 . S
N115 Gd84 2.661 . S
N115 C119 1.350 . S
N115 C120 1.307 . S
C116 H108 0.930 . S
C116 C117 1.355 1_655 S
C116 C118 1.412 1_655 S
C117 H109 0.930 1_455 S
C117 C116 1.355 1_455 S
C117 C120 1.402 . S
C118 C116 1.412 1_455 S
C118 C119 1.417 . S
C118 C142 1.431 1_455 S
C119 N115 1.350 . S
C119 C118 1.417 . S
C119 C122 1.426 . S
C120 H103 0.930 . S
C120 N115 1.307 . S
C120 C117 1.402 . S
N121 Gd84 2.601 . S
N121 C122 1.359 . S
N121 C125 1.334 . S
C122 C119 1.426 . S
C122 N121 1.359 . S
C122 C126 1.413 . S
C123 H114 0.930 . S
C123 C124 1.359 . S
C123 C125 1.394 . S
C124 C123 1.359 . S
C124 C126 1.391 . S
C124 H127 0.929 . S
C125 H107 0.930 . S
C125 N121 1.334 . S
C125 C123 1.394 . S
C126 C122 1.413 . S
C126 C124 1.391 . S
C126 C141 1.437 . S
H127 C124 0.929 . S
O128 Gd84 2.545 . S
O128 C143 1.258 . S
O129 Gd84 2.606 . S
O129 Gd85 2.362 . S
O129 C140 1.284 . S
O130 Gd85 2.324 . S
O130 C150 1.254 . S
O131 Gd84 2.429 . S
O131 C150 1.268 . S
O132 Gd84 2.545 . S
O132 C140 1.250 . S
O133 Gd84 2.412 . S
O133 C143 1.252 . S
O134 Gd85 2.545 1_655 S
O134 C152 1.258 . S
O135 Gd84 2.362 . S
O135 Gd85 2.606 . S
O135 C151 1.284 1_455 S
O136 Gd84 2.324 . S
O136 C159 1.254 . S
O137 Gd85 2.429 . S
O137 C159 1.268 . S
O138 Gd85 2.545 1_655 S
O138 C151 1.250 . S
O139 Gd85 2.412 1_655 S
O139 C152 1.252 . S
C140 O129 1.284 . S
C140 O132 1.250 . S
C141 H110 0.929 1_455 S
C141 C126 1.437 . S
C141 C142 1.317 1_455 S
C142 H113 0.930 . S
C142 C118 1.431 1_655 S
C142 C141 1.317 1_655 S
C143 Gd84 2.828 . S
C143 O128 1.258 . S
C143 O133 1.252 . S
C143 C144 1.497 . S
C144 C143 1.497 . S
C144 C145 1.395 . S
C144 C146 1.380 . S
C145 C144 1.395 . S
C145 C148 1.398 . S
C145 H160 0.930 . S
C146 C144 1.380 . S
C146 C147 1.391 . S
C146 H161 0.930 . S
C147 C146 1.391 . S
C147 C149 1.387 . S
C148 C145 1.398 . S
C148 C149 1.380 . S
C148 H162 0.930 . S
C149 C147 1.387 . S
C149 C148 1.380 . S
C149 H163 0.930 . S
C150 O130 1.254 . S
C150 O131 1.268 . S
C151 O135 1.284 1_655 S
C151 O138 1.250 . S
C152 Gd85 2.828 1_655 S
C152 O134 1.258 . S
C152 O139 1.252 . S
C152 C153 1.497 . S
C153 C152 1.497 . S
C153 C154 1.395 . S
C153 C155 1.380 . S
C154 C153 1.395 . S
C154 C157 1.398 . S
C154 H164 0.930 . S
C155 C153 1.380 . S
C155 C156 1.391 . S
C155 H165 0.930 . S
C156 C155 1.391 . S
C156 C158 1.387 . S
C157 C154 1.398 . S
C157 C158 1.380 . S
C157 H166 0.930 . S
C158 C156 1.387 . S
C158 C157 1.380 . S
C158 H167 0.930 . S
C159 O136 1.254 . S
C159 O137 1.268 . S
H160 C145 0.930 . S
H161 C146 0.930 . S
H162 C148 0.930 . S
H163 C149 0.930 . S
H164 C154 0.930 . S
H165 C155 0.930 . S
H166 C157 0.930 . S
H167 C158 0.930 . S
Gd168 N199 2.661 . S
Gd168 N205 2.601 . S
Gd168 O212 2.545 . S
Gd168 O213 2.606 . S
Gd168 O215 2.429 . S
Gd168 O216 2.545 . S
Gd168 O217 2.412 . S
Gd168 O219 2.362 . S
Gd168 O220 2.324 . S
Gd168 C227 2.828 . S
Gd169 N178 2.661 . S
Gd169 N182 2.601 . S
Gd169 O213 2.362 . S
Gd169 O214 2.324 . S
Gd169 O218 2.545 . S
Gd169 O219 2.606 . S
Gd169 O221 2.429 . S
Gd169 O222 2.545 . S
Gd169 O223 2.412 . S
Gd169 C236 2.828 . S
C170 C173 1.417 . S
C170 C175 1.431 . S
C170 C176 1.412 . S
C171 C174 1.437 . S
C171 C175 1.317 . S
C171 H190 0.929 . S
C172 C173 1.426 . S
C172 C174 1.413 . S
C172 N182 1.359 . S
C173 C170 1.417 . S
C173 C172 1.426 . S
C173 N178 1.350 . S
C174 C171 1.437 . S
C174 C172 1.413 . S
C174 C184 1.391 . S
C175 C170 1.431 . S
C175 C171 1.317 . S
C175 H186 0.930 . S
C176 C170 1.412 . S
C176 C177 1.355 . S
C176 H188 0.930 . S
C177 C176 1.355 . S
C177 C179 1.402 . S
C177 H189 0.930 . S
N178 Gd169 2.661 . S
N178 C173 1.350 . S
N178 C179 1.307 . S
C179 C177 1.402 . S
C179 N178 1.307 . S
C179 H180 0.930 . S
H180 C179 0.930 . S
C181 N182 1.334 . S
C181 C183 1.394 . S
C181 H185 0.930 . S
N182 Gd169 2.601 . S
N182 C172 1.359 . S
N182 C181 1.334 . S
C183 C181 1.394 . S
C183 C184 1.359 . S
C183 H195 0.930 . S
C184 C174 1.391 . S
C184 C183 1.359 . S
C184 H196 0.929 . S
H185 C181 0.930 . S
H186 C175 0.930 . S
H187 C204 0.930 . S
H188 C176 0.930 . S
H189 C177 0.930 . S
H190 C171 0.929 . S
H191 C209 0.930 . S
H192 C200 0.930 . S
H193 C201 0.930 . S
H194 C225 0.929 . S
H195 C183 0.930 . S
H196 C184 0.929 . S
H197 C226 0.930 . S
H198 C207 0.930 . S
N199 Gd168 2.661 . S
N199 C203 1.350 . S
N199 C204 1.307 . S
C200 H192 0.930 . S
C200 C201 1.355 . S
C200 C202 1.412 . S
C201 H193 0.930 . S
C201 C200 1.355 . S
C201 C204 1.402 . S
C202 C200 1.412 . S
C202 C203 1.417 . S
C202 C226 1.431 . S
C203 N199 1.350 . S
C203 C202 1.417 . S
C203 C206 1.426 . S
C204 H187 0.930 . S
C204 N199 1.307 . S
C204 C201 1.402 . S
N205 Gd168 2.601 . S
N205 C206 1.359 . S
N205 C209 1.334 . S
C206 C203 1.426 . S
C206 N205 1.359 . S
C206 C210 1.413 . S
C207 H198 0.930 . S
C207 C208 1.359 . S
C207 C209 1.394 . S
C208 C207 1.359 . S
C208 C210 1.391 . S
C208 H211 0.929 . S
C209 H191 0.930 . S
C209 N205 1.334 . S
C209 C207 1.394 . S
C210 C206 1.413 . S
C210 C208 1.391 . S
C210 C225 1.437 . S
H211 C208 0.929 . S
O212 Gd168 2.545 . S
O212 C227 1.258 . S
O213 Gd168 2.606 . S
O213 Gd169 2.362 . S
O213 C224 1.284 . S
O214 Gd169 2.324 . S
O214 C234 1.254 . S
O215 Gd168 2.429 . S
O215 C234 1.268 . S
O216 Gd168 2.545 . S
O216 C224 1.250 . S
O217 Gd168 2.412 . S
O217 C227 1.252 . S
O218 Gd169 2.545 . S
O218 C236 1.258 . S
O219 Gd168 2.362 . S
O219 Gd169 2.606 . S
O219 C235 1.284 . S
O220 Gd168 2.324 . S
O220 C243 1.254 . S
O221 Gd169 2.429 . S
O221 C243 1.268 . S
O222 Gd169 2.545 . S
O222 C235 1.250 . S
O223 Gd169 2.412 . S
O223 C236 1.252 . S
C224 O213 1.284 . S
C224 O216 1.250 . S
C225 H194 0.929 . S
C225 C210 1.437 . S
C225 C226 1.317 . S
C226 H197 0.930 . S
C226 C202 1.431 . S
C226 C225 1.317 . S
C227 Gd168 2.828 . S
C227 O212 1.258 . S
C227 O217 1.252 . S
C227 C228 1.497 . S
C228 C227 1.497 . S
C228 C229 1.395 . S
C228 C230 1.380 . S
C229 C228 1.395 . S
C229 C232 1.398 . S
C229 H244 0.930 . S
C230 C228 1.380 . S
C230 C231 1.391 . S
C230 H245 0.930 . S
C231 C230 1.391 . S
C231 C233 1.387 . S
C232 C229 1.398 . S
C232 C233 1.380 . S
C232 H246 0.930 . S
C233 C231 1.387 . S
C233 C232 1.380 . S
C233 H247 0.930 . S
C234 O214 1.254 . S
C234 O215 1.268 . S
C235 O219 1.284 . S
C235 O222 1.250 . S
C236 Gd169 2.828 . S
C236 O218 1.258 . S
C236 O223 1.252 . S
C236 C237 1.497 . S
C237 C236 1.497 . S
C237 C238 1.395 . S
C237 C239 1.380 . S
C238 C237 1.395 . S
C238 C241 1.398 . S
C238 H248 0.930 . S
C239 C237 1.380 . S
C239 C240 1.391 . S
C239 H249 0.930 . S
C240 C239 1.391 . S
C240 C242 1.387 . S
C241 C238 1.398 . S
C241 C242 1.380 . S
C241 H250 0.930 . S
C242 C240 1.387 . S
C242 C241 1.380 . S
C242 H251 0.930 . S
C243 O220 1.254 . S
C243 O221 1.268 . S
H244 C229 0.930 . S
H245 C230 0.930 . S
H246 C232 0.930 . S
H247 C233 0.930 . S
H248 C238 0.930 . S
H249 C239 0.930 . S
H250 C241 0.930 . S
H251 C242 0.930 . S
Gd252 N283 2.661 1_655 S
Gd252 N289 2.601 . S
Gd252 O296 2.545 . S
Gd252 O297 2.606 . S
Gd252 O299 2.429 . S
Gd252 O300 2.545 . S
Gd252 O301 2.412 . S
Gd252 O303 2.362 1_655 S
Gd252 O304 2.324 . S
Gd252 C311 2.828 . S
Gd253 N262 2.661 1_455 S
Gd253 N266 2.601 . S
Gd253 O297 2.362 1_455 S
Gd253 O298 2.324 . S
Gd253 O302 2.545 . S
Gd253 O303 2.606 . S
Gd253 O305 2.429 . S
Gd253 O306 2.545 . S
Gd253 O307 2.412 . S
Gd253 C320 2.828 . S
C254 C257 1.417 . S
C254 C259 1.431 . S
C254 C260 1.412 . S
C255 C258 1.437 . S
C255 C259 1.317 . S
C255 H274 0.929 . S
C256 C257 1.426 . S
C256 C258 1.413 . S
C256 N266 1.359 1_655 S
C257 C254 1.417 . S
C257 C256 1.426 . S
C257 N262 1.350 . S
C258 C255 1.437 . S
C258 C256 1.413 . S
C258 C268 1.391 . S
C259 C254 1.431 . S
C259 C255 1.317 . S
C259 H270 0.930 . S
C260 C254 1.412 . S
C260 C261 1.355 . S
C260 H272 0.930 . S
C261 C260 1.355 . S
C261 C263 1.402 . S
C261 H273 0.930 . S
N262 Gd253 2.661 1_655 S
N262 C257 1.350 . S
N262 C263 1.307 . S
C263 C261 1.402 . S
C263 N262 1.307 . S
C263 H264 0.930 . S
H264 C263 0.930 . S
C265 N266 1.334 . S
C265 C267 1.394 . S
C265 H269 0.930 . S
N266 Gd253 2.601 . S
N266 C256 1.359 1_455 S
N266 C265 1.334 . S
C267 C265 1.394 . S
C267 C268 1.359 1_455 S
C267 H279 0.930 . S
C268 C258 1.391 . S
C268 C267 1.359 1_655 S
C268 H280 0.929 . S
H269 C265 0.930 . S
H270 C259 0.930 . S
H271 C288 0.930 . S
H272 C260 0.930 . S
H273 C261 0.930 . S
H274 C255 0.929 . S
H275 C293 0.930 . S
H276 C284 0.930 . S
H277 C285 0.930 . S
H278 C309 0.929 . S
H279 C267 0.930 . S
H280 C268 0.929 . S
H281 C310 0.930 . S
H282 C291 0.930 . S
N283 Gd252 2.661 1_455 S
N283 C287 1.350 . S
N283 C288 1.307 . S
C284 H276 0.930 . S
C284 C285 1.355 . S
C284 C286 1.412 . S
C285 H277 0.930 . S
C285 C284 1.355 . S
C285 C288 1.402 . S
C286 C284 1.412 . S
C286 C287 1.417 . S
C286 C310 1.431 . S
C287 N283 1.350 . S
C287 C286 1.417 . S
C287 C290 1.426 . S
C288 H271 0.930 . S
C288 N283 1.307 . S
C288 C285 1.402 . S
N289 Gd252 2.601 . S
N289 C290 1.359 1_655 S
N289 C293 1.334 . S
C290 C287 1.426 . S
C290 N289 1.359 1_455 S
C290 C294 1.413 . S
C291 H282 0.930 . S
C291 C292 1.359 1_655 S
C291 C293 1.394 . S
C292 C291 1.359 1_455 S
C292 C294 1.391 . S
C292 H295 0.929 . S
C293 H275 0.930 . S
C293 N289 1.334 . S
C293 C291 1.394 . S
C294 C290 1.413 . S
C294 C292 1.391 . S
C294 C309 1.437 . S
H295 C292 0.929 . S
O296 Gd252 2.545 . S
O296 C311 1.258 . S
O297 Gd252 2.606 . S
O297 Gd253 2.362 1_655 S
O297 C308 1.284 . S
O298 Gd253 2.324 . S
O298 C318 1.254 . S
O299 Gd252 2.429 . S
O299 C318 1.268 1_655 S
O300 Gd252 2.545 . S
O300 C308 1.250 . S
O301 Gd252 2.412 . S
O301 C311 1.252 . S
O302 Gd253 2.545 . S
O302 C320 1.258 . S
O303 Gd252 2.362 1_455 S
O303 Gd253 2.606 . S
O303 C319 1.284 . S
O304 Gd252 2.324 . S
O304 C327 1.254 . S
O305 Gd253 2.429 . S
O305 C327 1.268 1_455 S
O306 Gd253 2.545 . S
O306 C319 1.250 . S
O307 Gd253 2.412 . S
O307 C320 1.252 . S
C308 O297 1.284 . S
C308 O300 1.250 . S
C309 H278 0.929 . S
C309 C294 1.437 . S
C309 C310 1.317 . S
C310 H281 0.930 . S
C310 C286 1.431 . S
C310 C309 1.317 . S
C311 Gd252 2.828 . S
C311 O296 1.258 . S
C311 O301 1.252 . S
C311 C312 1.497 . S
C312 C311 1.497 . S
C312 C313 1.395 . S
C312 C314 1.380 . S
C313 C312 1.395 . S
C313 C316 1.398 . S
C313 H328 0.930 . S
C314 C312 1.380 . S
C314 C315 1.391 . S
C314 H329 0.930 . S
C315 C314 1.391 . S
C315 C317 1.387 . S
C316 C313 1.398 . S
C316 C317 1.380 . S
C316 H330 0.930 . S
C317 C315 1.387 . S
C317 C316 1.380 . S
C317 H331 0.930 . S
C318 O298 1.254 . S
C318 O299 1.268 1_455 S
C319 O303 1.284 . S
C319 O306 1.250 . S
C320 Gd253 2.828 . S
C320 O302 1.258 . S
C320 O307 1.252 . S
C320 C321 1.497 . S
C321 C320 1.497 . S
C321 C322 1.395 . S
C321 C323 1.380 . S
C322 C321 1.395 . S
C322 C325 1.398 . S
C322 H332 0.930 . S
C323 C321 1.380 . S
C323 C324 1.391 . S
C323 H333 0.930 . S
C324 C323 1.391 . S
C324 C326 1.387 . S
C325 C322 1.398 . S
C325 C326 1.380 . S
C325 H334 0.930 . S
C326 C324 1.387 . S
C326 C325 1.380 . S
C326 H335 0.930 . S
C327 O304 1.254 . S
C327 O305 1.268 1_655 S
H328 C313 0.930 . S
H329 C314 0.930 . S
H330 C316 0.930 . S
H331 C317 0.930 . S
H332 C322 0.930 . S
H333 C323 0.930 . S
H334 C325 0.930 . S
H335 C326 0.930 . S
Gd336 N367 2.661 . S
Gd336 N373 2.601 . S
Gd336 O380 2.545 . S
Gd336 O381 2.606 . S
Gd336 O383 2.429 . S
Gd336 O384 2.545 . S
Gd336 O385 2.412 . S
Gd336 O387 2.362 . S
Gd336 O388 2.324 . S
Gd336 C395 2.828 . S
Gd337 N346 2.661 . S
Gd337 N350 2.601 . S
Gd337 O381 2.362 . S
Gd337 O382 2.324 . S
Gd337 O386 2.545 . S
Gd337 O387 2.606 . S
Gd337 O389 2.429 . S
Gd337 O390 2.545 . S
Gd337 O391 2.412 . S
Gd337 C404 2.828 . S
C338 C341 1.417 . S
C338 C343 1.431 . S
C338 C344 1.412 . S
C339 C342 1.437 . S
C339 C343 1.317 . S
C339 H358 0.929 . S
C340 C341 1.426 . S
C340 C342 1.413 . S
C340 N350 1.359 . S
C341 C338 1.417 . S
C341 C340 1.426 . S
C341 N346 1.350 . S
C342 C339 1.437 . S
C342 C340 1.413 . S
C342 C352 1.391 . S
C343 C338 1.431 . S
C343 C339 1.317 . S
C343 H354 0.930 . S
C344 C338 1.412 . S
C344 C345 1.355 . S
C344 H356 0.930 . S
C345 C344 1.355 . S
C345 C347 1.402 . S
C345 H357 0.930 . S
N346 Gd337 2.661 . S
N346 C341 1.350 . S
N346 C347 1.307 . S
C347 C345 1.402 . S
C347 N346 1.307 . S
C347 H348 0.930 . S
H348 C347 0.930 . S
C349 N350 1.334 . S
C349 C351 1.394 . S
C349 H353 0.930 . S
N350 Gd337 2.601 . S
N350 C340 1.359 . S
N350 C349 1.334 . S
C351 C349 1.394 . S
C351 C352 1.359 . S
C351 H363 0.930 . S
C352 C342 1.391 . S
C352 C351 1.359 . S
C352 H364 0.929 . S
H353 C349 0.930 . S
H354 C343 0.930 . S
H355 C372 0.930 . S
H356 C344 0.930 . S
H357 C345 0.930 . S
H358 C339 0.929 . S
H359 C377 0.930 . S
H360 C368 0.930 . S
H361 C369 0.930 . S
H362 C393 0.929 . S
H363 C351 0.930 . S
H364 C352 0.929 . S
H365 C394 0.930 . S
H366 C375 0.930 . S
N367 Gd336 2.661 . S
N367 C371 1.350 . S
N367 C372 1.307 . S
C368 H360 0.930 . S
C368 C369 1.355 . S
C368 C370 1.412 . S
C369 H361 0.930 . S
C369 C368 1.355 . S
C369 C372 1.402 . S
C370 C368 1.412 . S
C370 C371 1.417 . S
C370 C394 1.431 . S
C371 N367 1.350 . S
C371 C370 1.417 . S
C371 C374 1.426 . S
C372 H355 0.930 . S
C372 N367 1.307 . S
C372 C369 1.402 . S
N373 Gd336 2.601 . S
N373 C374 1.359 . S
N373 C377 1.334 . S
C374 C371 1.426 . S
C374 N373 1.359 . S
C374 C378 1.413 . S
C375 H366 0.930 . S
C375 C376 1.359 . S
C375 C377 1.394 . S
C376 C375 1.359 . S
C376 C378 1.391 . S
C376 H379 0.929 . S
C377 H359 0.930 . S
C377 N373 1.334 . S
C377 C375 1.394 . S
C378 C374 1.413 . S
C378 C376 1.391 . S
C378 C393 1.437 . S
H379 C376 0.929 . S
O380 Gd336 2.545 . S
O380 C395 1.258 . S
O381 Gd336 2.606 . S
O381 Gd337 2.362 . S
O381 C392 1.284 . S
O382 Gd337 2.324 . S
O382 C402 1.254 . S
O383 Gd336 2.429 . S
O383 C402 1.268 . S
O384 Gd336 2.545 . S
O384 C392 1.250 . S
O385 Gd336 2.412 . S
O385 C395 1.252 . S
O386 Gd337 2.545 . S
O386 C404 1.258 . S
O387 Gd336 2.362 . S
O387 Gd337 2.606 . S
O387 C403 1.284 . S
O388 Gd336 2.324 . S
O388 C411 1.254 . S
O389 Gd337 2.429 . S
O389 C411 1.268 . S
O390 Gd337 2.545 . S
O390 C403 1.250 . S
O391 Gd337 2.412 . S
O391 C404 1.252 . S
C392 O381 1.284 . S
C392 O384 1.250 . S
C393 H362 0.929 . S
C393 C378 1.437 . S
C393 C394 1.317 . S
C394 H365 0.930 . S
C394 C370 1.431 . S
C394 C393 1.317 . S
C395 Gd336 2.828 . S
C395 O380 1.258 . S
C395 O385 1.252 . S
C395 C396 1.497 . S
C396 C395 1.497 . S
C396 C397 1.395 . S
C396 C398 1.380 . S
C397 C396 1.395 . S
C397 C400 1.398 . S
C397 H412 0.930 . S
C398 C396 1.380 . S
C398 C399 1.391 . S
C398 H413 0.930 . S
C399 C398 1.391 . S
C399 C401 1.387 . S
C400 C397 1.398 . S
C400 C401 1.380 . S
C400 H414 0.930 . S
C401 C399 1.387 . S
C401 C400 1.380 . S
C401 H415 0.930 . S
C402 O382 1.254 . S
C402 O383 1.268 . S
C403 O387 1.284 . S
C403 O390 1.250 . S
C404 Gd337 2.828 . S
C404 O386 1.258 . S
C404 O391 1.252 . S
C404 C405 1.497 . S
C405 C404 1.497 . S
C405 C406 1.395 . S
C405 C407 1.380 . S
C406 C405 1.395 . S
C406 C409 1.398 . S
C406 H416 0.930 . S
C407 C405 1.380 . S
C407 C408 1.391 . S
C407 H417 0.930 . S
C408 C407 1.391 . S
C408 C410 1.387 . S
C409 C406 1.398 . S
C409 C410 1.380 . S
C409 H418 0.930 . S
C410 C408 1.387 . S
C410 C409 1.380 . S
C410 H419 0.930 . S
C411 O388 1.254 . S
C411 O389 1.268 . S
H412 C397 0.930 . S
H413 C398 0.930 . S
H414 C400 0.930 . S
H415 C401 0.930 . S
H416 C406 0.930 . S
H417 C407 0.930 . S
H418 C409 0.930 . S
H419 C410 0.930 . S
Gd420 N451 2.661 . S
Gd420 N457 2.601 . S
Gd420 O464 2.545 . S
Gd420 O465 2.606 . S
Gd420 O467 2.429 . S
Gd420 O468 2.545 . S
Gd420 O469 2.412 . S
Gd420 O471 2.362 . S
Gd420 O472 2.324 . S
Gd420 C479 2.828 . S
Gd421 N430 2.661 . S
Gd421 N434 2.601 . S
Gd421 O465 2.362 . S
Gd421 O466 2.324 . S
Gd421 O470 2.545 1_545 S
Gd421 O471 2.606 . S
Gd421 O473 2.429 . S
Gd421 O474 2.545 1_545 S
Gd421 O475 2.412 1_545 S
Gd421 C488 2.828 1_545 S
C422 C425 1.417 . S
C422 C427 1.431 . S
C422 C428 1.412 . S
C423 C426 1.437 . S
C423 C427 1.317 . S
C423 H442 0.929 . S
C424 C425 1.426 . S
C424 C426 1.413 . S
C424 N434 1.359 . S
C425 C422 1.417 . S
C425 C424 1.426 . S
C425 N430 1.350 . S
C426 C423 1.437 . S
C426 C424 1.413 . S
C426 C436 1.391 . S
C427 C422 1.431 . S
C427 C423 1.317 . S
C427 H438 0.930 . S
C428 C422 1.412 . S
C428 C429 1.355 . S
C428 H440 0.930 . S
C429 C428 1.355 . S
C429 C431 1.402 . S
C429 H441 0.930 . S
N430 Gd421 2.661 . S
N430 C425 1.350 . S
N430 C431 1.307 . S
C431 C429 1.402 . S
C431 N430 1.307 . S
C431 H432 0.930 . S
H432 C431 0.930 . S
C433 N434 1.334 . S
C433 C435 1.394 . S
C433 H437 0.930 . S
N434 Gd421 2.601 . S
N434 C424 1.359 . S
N434 C433 1.334 . S
C435 C433 1.394 . S
C435 C436 1.359 . S
C435 H447 0.930 . S
C436 C426 1.391 . S
C436 C435 1.359 . S
C436 H448 0.929 . S
H437 C433 0.930 . S
H438 C427 0.930 . S
H439 C456 0.930 . S
H440 C428 0.930 . S
H441 C429 0.930 . S
H442 C423 0.929 . S
H443 C461 0.930 . S
H444 C452 0.930 . S
H445 C453 0.930 1_565 S
H446 C477 0.929 1_565 S
H447 C435 0.930 . S
H448 C436 0.929 . S
H449 C478 0.930 . S
H450 C459 0.930 . S
N451 Gd420 2.661 . S
N451 C455 1.350 . S
N451 C456 1.307 . S
C452 H444 0.930 . S
C452 C453 1.355 1_565 S
C452 C454 1.412 1_565 S
C453 H445 0.930 1_545 S
C453 C452 1.355 1_545 S
C453 C456 1.402 . S
C454 C452 1.412 1_545 S
C454 C455 1.417 . S
C454 C478 1.431 1_545 S
C455 N451 1.350 . S
C455 C454 1.417 . S
C455 C458 1.426 . S
C456 H439 0.930 . S
C456 N451 1.307 . S
C456 C453 1.402 . S
N457 Gd420 2.601 . S
N457 C458 1.359 . S
N457 C461 1.334 . S
C458 C455 1.426 . S
C458 N457 1.359 . S
C458 C462 1.413 . S
C459 H450 0.930 . S
C459 C460 1.359 . S
C459 C461 1.394 . S
C460 C459 1.359 . S
C460 C462 1.391 . S
C460 H463 0.929 . S
C461 H443 0.930 . S
C461 N457 1.334 . S
C461 C459 1.394 . S
C462 C458 1.413 . S
C462 C460 1.391 . S
C462 C477 1.437 . S
H463 C460 0.929 . S
O464 Gd420 2.545 . S
O464 C479 1.258 . S
O465 Gd420 2.606 . S
O465 Gd421 2.362 . S
O465 C476 1.284 . S
O466 Gd421 2.324 . S
O466 C486 1.254 . S
O467 Gd420 2.429 . S
O467 C486 1.268 . S
O468 Gd420 2.545 . S
O468 C476 1.250 . S
O469 Gd420 2.412 . S
O469 C479 1.252 . S
O470 Gd421 2.545 1_565 S
O470 C488 1.258 . S
O471 Gd420 2.362 . S
O471 Gd421 2.606 . S
O471 C487 1.284 1_545 S
O472 Gd420 2.324 . S
O472 C495 1.254 . S
O473 Gd421 2.429 . S
O473 C495 1.268 . S
O474 Gd421 2.545 1_565 S
O474 C487 1.250 . S
O475 Gd421 2.412 1_565 S
O475 C488 1.252 . S
C476 O465 1.284 . S
C476 O468 1.250 . S
C477 H446 0.929 1_545 S
C477 C462 1.437 . S
C477 C478 1.317 1_545 S
C478 H449 0.930 . S
C478 C454 1.431 1_565 S
C478 C477 1.317 1_565 S
C479 Gd420 2.828 . S
C479 O464 1.258 . S
C479 O469 1.252 . S
C479 C480 1.497 . S
C480 C479 1.497 . S
C480 C481 1.395 . S
C480 C482 1.380 . S
C481 C480 1.395 . S
C481 C484 1.398 . S
C481 H496 0.930 . S
C482 C480 1.380 . S
C482 C483 1.391 . S
C482 H497 0.930 . S
C483 C482 1.391 . S
C483 C485 1.387 . S
C484 C481 1.398 . S
C484 C485 1.380 . S
C484 H498 0.930 . S
C485 C483 1.387 . S
C485 C484 1.380 . S
C485 H499 0.930 . S
C486 O466 1.254 . S
C486 O467 1.268 . S
C487 O471 1.284 1_565 S
C487 O474 1.250 . S
C488 Gd421 2.828 1_565 S
C488 O470 1.258 . S
C488 O475 1.252 . S
C488 C489 1.497 . S
C489 C488 1.497 . S
C489 C490 1.395 . S
C489 C491 1.380 . S
C490 C489 1.395 . S
C490 C493 1.398 . S
C490 H500 0.930 . S
C491 C489 1.380 . S
C491 C492 1.391 . S
C491 H501 0.930 . S
C492 C491 1.391 . S
C492 C494 1.387 . S
C493 C490 1.398 . S
C493 C494 1.380 . S
C493 H502 0.930 . S
C494 C492 1.387 . S
C494 C493 1.380 . S
C494 H503 0.930 . S
C495 O472 1.254 . S
C495 O473 1.268 . S
H496 C481 0.930 . S
H497 C482 0.930 . S
H498 C484 0.930 . S
H499 C485 0.930 . S
H500 C490 0.930 . S
H501 C491 0.930 . S
H502 C493 0.930 . S
H503 C494 0.930 . S
Gd504 N535 2.661 . S
Gd504 N541 2.601 . S
Gd504 O548 2.545 . S
Gd504 O549 2.606 . S
Gd504 O551 2.429 . S
Gd504 O552 2.545 . S
Gd504 O553 2.412 . S
Gd504 O555 2.362 . S
Gd504 O556 2.324 . S
Gd504 C563 2.828 . S
Gd505 N514 2.661 . S
Gd505 N518 2.601 . S
Gd505 O549 2.362 . S
Gd505 O550 2.324 . S
Gd505 O554 2.545 . S
Gd505 O555 2.606 . S
Gd505 O557 2.429 . S
Gd505 O558 2.545 . S
Gd505 O559 2.412 . S
Gd505 C572 2.828 . S
C506 C509 1.417 . S
C506 C511 1.431 . S
C506 C512 1.412 . S
C507 C510 1.437 . S
C507 C511 1.317 . S
C507 H526 0.929 . S
C508 C509 1.426 . S
C508 C510 1.413 . S
C508 N518 1.359 . S
C509 C506 1.417 . S
C509 C508 1.426 . S
C509 N514 1.350 . S
C510 C507 1.437 . S
C510 C508 1.413 . S
C510 C520 1.391 . S
C511 C506 1.431 . S
C511 C507 1.317 . S
C511 H522 0.930 . S
C512 C506 1.412 . S
C512 C513 1.355 . S
C512 H524 0.930 . S
C513 C512 1.355 . S
C513 C515 1.402 . S
C513 H525 0.930 . S
N514 Gd505 2.661 . S
N514 C509 1.350 . S
N514 C515 1.307 . S
C515 C513 1.402 . S
C515 N514 1.307 . S
C515 H516 0.930 . S
H516 C515 0.930 . S
C517 N518 1.334 . S
C517 C519 1.394 . S
C517 H521 0.930 . S
N518 Gd505 2.601 . S
N518 C508 1.359 . S
N518 C517 1.334 . S
C519 C517 1.394 . S
C519 C520 1.359 . S
C519 H531 0.930 . S
C520 C510 1.391 . S
C520 C519 1.359 . S
C520 H532 0.929 . S
H521 C517 0.930 . S
H522 C511 0.930 . S
H523 C540 0.930 . S
H524 C512 0.930 . S
H525 C513 0.930 . S
H526 C507 0.929 . S
H527 C545 0.930 . S
H528 C536 0.930 . S
H529 C537 0.930 . S
H530 C561 0.929 1_655 S
H531 C519 0.930 . S
H532 C520 0.929 . S
H533 C562 0.930 1_655 S
H534 C543 0.930 . S
N535 Gd504 2.661 . S
N535 C539 1.350 . S
N535 C540 1.307 . S
C536 H528 0.930 . S
C536 C537 1.355 . S
C536 C538 1.412 . S
C537 H529 0.930 . S
C537 C536 1.355 . S
C537 C540 1.402 . S
C538 C536 1.412 . S
C538 C539 1.417 . S
C538 C562 1.431 . S
C539 N535 1.350 . S
C539 C538 1.417 . S
C539 C542 1.426 . S
C540 H523 0.930 . S
C540 N535 1.307 . S
C540 C537 1.402 . S
N541 Gd504 2.601 . S
N541 C542 1.359 . S
N541 C545 1.334 . S
C542 C539 1.426 . S
C542 N541 1.359 . S
C542 C546 1.413 . S
C543 H534 0.930 . S
C543 C544 1.359 . S
C543 C545 1.394 . S
C544 C543 1.359 . S
C544 C546 1.391 . S
C544 H547 0.929 . S
C545 H527 0.930 . S
C545 N541 1.334 . S
C545 C543 1.394 . S
C546 C542 1.413 . S
C546 C544 1.391 . S
C546 C561 1.437 . S
H547 C544 0.929 . S
O548 Gd504 2.545 . S
O548 C563 1.258 . S
O549 Gd504 2.606 . S
O549 Gd505 2.362 . S
O549 C560 1.284 . S
O550 Gd505 2.324 . S
O550 C570 1.254 . S
O551 Gd504 2.429 . S
O551 C570 1.268 . S
O552 Gd504 2.545 . S
O552 C560 1.250 . S
O553 Gd504 2.412 . S
O553 C563 1.252 . S
O554 Gd505 2.545 . S
O554 C572 1.258 . S
O555 Gd504 2.362 . S
O555 Gd505 2.606 . S
O555 C571 1.284 . S
O556 Gd504 2.324 . S
O556 C579 1.254 . S
O557 Gd505 2.429 . S
O557 C579 1.268 . S
O558 Gd505 2.545 . S
O558 C571 1.250 . S
O559 Gd505 2.412 . S
O559 C572 1.252 . S
C560 O549 1.284 . S
C560 O552 1.250 . S
C561 H530 0.929 1_455 S
C561 C546 1.437 . S
C561 C562 1.317 . S
C562 H533 0.930 1_455 S
C562 C538 1.431 . S
C562 C561 1.317 . S
C563 Gd504 2.828 . S
C563 O548 1.258 . S
C563 O553 1.252 . S
C563 C564 1.497 1_455 S
C564 C563 1.497 1_655 S
C564 C565 1.395 . S
C564 C566 1.380 . S
C565 C564 1.395 . S
C565 C568 1.398 . S
C565 H580 0.930 . S
C566 C564 1.380 . S
C566 C567 1.391 . S
C566 H581 0.930 . S
C567 C566 1.391 . S
C567 C569 1.387 . S
C568 C565 1.398 . S
C568 C569 1.380 . S
C568 H582 0.930 . S
C569 C567 1.387 . S
C569 C568 1.380 . S
C569 H583 0.930 . S
C570 O550 1.254 . S
C570 O551 1.268 . S
C571 O555 1.284 . S
C571 O558 1.250 . S
C572 Gd505 2.828 . S
C572 O554 1.258 . S
C572 O559 1.252 . S
C572 C573 1.497 . S
C573 C572 1.497 . S
C573 C574 1.395 . S
C573 C575 1.380 . S
C574 C573 1.395 . S
C574 C577 1.398 . S
C574 H584 0.930 . S
C575 C573 1.380 . S
C575 C576 1.391 . S
C575 H585 0.930 . S
C576 C575 1.391 . S
C576 C578 1.387 . S
C577 C574 1.398 . S
C577 C578 1.380 . S
C577 H586 0.930 . S
C578 C576 1.387 . S
C578 C577 1.380 . S
C578 H587 0.930 . S
C579 O556 1.254 . S
C579 O557 1.268 . S
H580 C565 0.930 . S
H581 C566 0.930 . S
H582 C568 0.930 . S
H583 C569 0.930 . S
H584 C574 0.930 . S
H585 C575 0.930 . S
H586 C577 0.930 . S
H587 C578 0.930 . S
Gd588 N619 2.661 . S
Gd588 N625 2.601 . S
Gd588 O632 2.545 . S
Gd588 O633 2.606 . S
Gd588 O635 2.429 . S
Gd588 O636 2.545 . S
Gd588 O637 2.412 . S
Gd588 O639 2.362 . S
Gd588 O640 2.324 . S
Gd588 C647 2.828 . S
Gd589 N598 2.661 . S
Gd589 N602 2.601 . S
Gd589 O633 2.362 . S
Gd589 O634 2.324 . S
Gd589 O638 2.545 . S
Gd589 O639 2.606 . S
Gd589 O641 2.429 . S
Gd589 O642 2.545 . S
Gd589 O643 2.412 . S
Gd589 C656 2.828 . S
C590 C593 1.417 1_545 S
C590 C595 1.431 . S
C590 C596 1.412 . S
C591 C594 1.437 . S
C591 C595 1.317 . S
C591 H610 0.929 . S
C592 C593 1.426 . S
C592 C594 1.413 1_565 S
C592 N602 1.359 . S
C593 C590 1.417 1_565 S
C593 C592 1.426 . S
C593 N598 1.350 . S
C594 C591 1.437 . S
C594 C592 1.413 1_545 S
C594 C604 1.391 1_545 S
C595 C590 1.431 . S
C595 C591 1.317 . S
C595 H606 0.930 . S
C596 C590 1.412 . S
C596 C597 1.355 . S
C596 H608 0.930 . S
C597 C596 1.355 . S
C597 C599 1.402 1_545 S
C597 H609 0.930 . S
N598 Gd589 2.661 . S
N598 C593 1.350 . S
N598 C599 1.307 . S
C599 C597 1.402 1_565 S
C599 N598 1.307 . S
C599 H600 0.930 . S
H600 C599 0.930 . S
C601 N602 1.334 . S
C601 C603 1.394 . S
C601 H605 0.930 . S
N602 Gd589 2.601 . S
N602 C592 1.359 . S
N602 C601 1.334 . S
C603 C601 1.394 . S
C603 C604 1.359 . S
C603 H615 0.930 . S
C604 C594 1.391 1_565 S
C604 C603 1.359 . S
C604 H616 0.929 1_565 S
H605 C601 0.930 . S
H606 C595 0.930 . S
H607 C624 0.930 . S
H608 C596 0.930 . S
H609 C597 0.930 . S
H610 C591 0.929 . S
H611 C629 0.930 . S
H612 C620 0.930 . S
H613 C621 0.930 . S
H614 C645 0.929 . S
H615 C603 0.930 . S
H616 C604 0.929 1_545 S
H617 C646 0.930 . S
H618 C627 0.930 . S
N619 Gd588 2.661 . S
N619 C623 1.350 . S
N619 C624 1.307 . S
C620 H612 0.930 . S
C620 C621 1.355 . S
C620 C622 1.412 . S
C621 H613 0.930 . S
C621 C620 1.355 . S
C621 C624 1.402 . S
C622 C620 1.412 . S
C622 C623 1.417 . S
C622 C646 1.431 . S
C623 N619 1.350 . S
C623 C622 1.417 . S
C623 C626 1.426 . S
C624 H607 0.930 . S
C624 N619 1.307 . S
C624 C621 1.402 . S
N625 Gd588 2.601 . S
N625 C626 1.359 . S
N625 C629 1.334 . S
C626 C623 1.426 . S
C626 N625 1.359 . S
C626 C630 1.413 . S
C627 H618 0.930 . S
C627 C628 1.359 . S
C627 C629 1.394 . S
C628 C627 1.359 . S
C628 C630 1.391 . S
C628 H631 0.929 . S
C629 H611 0.930 . S
C629 N625 1.334 . S
C629 C627 1.394 . S
C630 C626 1.413 . S
C630 C628 1.391 . S
C630 C645 1.437 . S
H631 C628 0.929 . S
O632 Gd588 2.545 . S
O632 C647 1.258 . S
O633 Gd588 2.606 . S
O633 Gd589 2.362 . S
O633 C644 1.284 . S
O634 Gd589 2.324 . S
O634 C654 1.254 . S
O635 Gd588 2.429 . S
O635 C654 1.268 . S
O636 Gd588 2.545 . S
O636 C644 1.250 . S
O637 Gd588 2.412 . S
O637 C647 1.252 . S
O638 Gd589 2.545 . S
O638 C656 1.258 . S
O639 Gd588 2.362 . S
O639 Gd589 2.606 . S
O639 C655 1.284 . S
O640 Gd588 2.324 . S
O640 C663 1.254 . S
O641 Gd589 2.429 . S
O641 C663 1.268 . S
O642 Gd589 2.545 . S
O642 C655 1.250 . S
O643 Gd589 2.412 . S
O643 C656 1.252 . S
C644 O633 1.284 . S
C644 O636 1.250 . S
C645 H614 0.929 . S
C645 C630 1.437 . S
C645 C646 1.317 . S
C646 H617 0.930 . S
C646 C622 1.431 . S
C646 C645 1.317 . S
C647 Gd588 2.828 . S
C647 O632 1.258 . S
C647 O637 1.252 . S
C647 C648 1.497 . S
C648 C647 1.497 . S
C648 C649 1.395 . S
C648 C650 1.380 . S
C649 C648 1.395 . S
C649 C652 1.398 . S
C649 H664 0.930 . S
C650 C648 1.380 . S
C650 C651 1.391 . S
C650 H665 0.930 . S
C651 C650 1.391 . S
C651 C653 1.387 . S
C652 C649 1.398 . S
C652 C653 1.380 . S
C652 H666 0.930 . S
C653 C651 1.387 . S
C653 C652 1.380 . S
C653 H667 0.930 . S
C654 O634 1.254 . S
C654 O635 1.268 . S
C655 O639 1.284 . S
C655 O642 1.250 . S
C656 Gd589 2.828 . S
C656 O638 1.258 . S
C656 O643 1.252 . S
C656 C657 1.497 . S
C657 C656 1.497 . S
C657 C658 1.395 . S
C657 C659 1.380 . S
C658 C657 1.395 . S
C658 C661 1.398 . S
C658 H668 0.930 . S
C659 C657 1.380 . S
C659 C660 1.391 . S
C659 H669 0.930 . S
C660 C659 1.391 . S
C660 C662 1.387 . S
C661 C658 1.398 . S
C661 C662 1.380 . S
C661 H670 0.930 . S
C662 C660 1.387 . S
C662 C661 1.380 . S
C662 H671 0.930 . S
C663 O640 1.254 . S
C663 O641 1.268 . S
H664 C649 0.930 . S
H665 C650 0.930 . S
H666 C652 0.930 . S
H667 C653 0.930 . S
H668 C658 0.930 . S
H669 C659 0.930 . S
H670 C661 0.930 . S
H671 C662 0.930 . S
Gd672 N703 2.661 . S
Gd672 N709 2.601 . S
Gd672 O716 2.545 . S
Gd672 O717 2.606 . S
Gd672 O719 2.429 . S
Gd672 O720 2.545 . S
Gd672 O721 2.412 1_565 S
Gd672 O723 2.362 . S
Gd672 O724 2.324 . S
Gd672 C731 2.828 1_565 S
Gd673 N682 2.661 . S
Gd673 N686 2.601 . S
Gd673 O717 2.362 . S
Gd673 O718 2.324 . S
Gd673 O722 2.545 . S
Gd673 O723 2.606 . S
Gd673 O725 2.429 . S
Gd673 O726 2.545 . S
Gd673 O727 2.412 . S
Gd673 C740 2.828 . S
C674 C677 1.417 . S
C674 C679 1.431 1_455 S
C674 C680 1.412 1_455 S
C675 C678 1.437 1_655 S
C675 C679 1.317 . S
C675 H694 0.929 . S
C676 C677 1.426 . S
C676 C678 1.413 . S
C676 N686 1.359 . S
C677 C674 1.417 . S
C677 C676 1.426 . S
C677 N682 1.350 . S
C678 C675 1.437 1_455 S
C678 C676 1.413 . S
C678 C688 1.391 . S
C679 C674 1.431 1_655 S
C679 C675 1.317 . S
C679 H690 0.930 . S
C680 C674 1.412 1_655 S
C680 C681 1.355 1_655 S
C680 H692 0.930 . S
C681 C680 1.355 1_455 S
C681 C683 1.402 . S
C681 H693 0.930 . S
N682 Gd673 2.661 . S
N682 C677 1.350 . S
N682 C683 1.307 . S
C683 C681 1.402 . S
C683 N682 1.307 . S
C683 H684 0.930 . S
H684 C683 0.930 . S
C685 N686 1.334 . S
C685 C687 1.394 . S
C685 H689 0.930 . S
N686 Gd673 2.601 . S
N686 C676 1.359 . S
N686 C685 1.334 . S
C687 C685 1.394 . S
C687 C688 1.359 . S
C687 H699 0.930 . S
C688 C678 1.391 . S
C688 C687 1.359 . S
C688 H700 0.929 . S
H689 C685 0.930 . S
H690 C679 0.930 . S
H691 C708 0.930 . S
H692 C680 0.930 . S
H693 C681 0.930 . S
H694 C675 0.929 . S
H695 C713 0.930 . S
H696 C704 0.930 . S
H697 C705 0.930 . S
H698 C729 0.929 . S
H699 C687 0.930 . S
H700 C688 0.929 . S
H701 C730 0.930 . S
H702 C711 0.930 . S
N703 Gd672 2.661 . S
N703 C707 1.350 . S
N703 C708 1.307 . S
C704 H696 0.930 . S
C704 C705 1.355 . S
C704 C706 1.412 . S
C705 H697 0.930 . S
C705 C704 1.355 . S
C705 C708 1.402 1_545 S
C706 C704 1.412 . S
C706 C707 1.417 1_545 S
C706 C730 1.431 . S
C707 N703 1.350 . S
C707 C706 1.417 1_565 S
C707 C710 1.426 . S
C708 H691 0.930 . S
C708 N703 1.307 . S
C708 C705 1.402 1_565 S
N709 Gd672 2.601 . S
N709 C710 1.359 . S
N709 C713 1.334 . S
C710 C707 1.426 . S
C710 N709 1.359 . S
C710 C714 1.413 1_565 S
C711 H702 0.930 . S
C711 C712 1.359 1_565 S
C711 C713 1.394 . S
C712 C711 1.359 1_545 S
C712 C714 1.391 . S
C712 H715 0.929 . S
C713 H695 0.930 . S
C713 N709 1.334 . S
C713 C711 1.394 . S
C714 C710 1.413 1_545 S
C714 C712 1.391 . S
C714 C729 1.437 . S
H715 C712 0.929 . S
O716 Gd672 2.545 . S
O716 C731 1.258 1_565 S
O717 Gd672 2.606 . S
O717 Gd673 2.362 . S
O717 C728 1.284 . S
O718 Gd673 2.324 . S
O718 C738 1.254 . S
O719 Gd672 2.429 . S
O719 C738 1.268 . S
O720 Gd672 2.545 . S
O720 C728 1.250 . S
O721 Gd672 2.412 1_545 S
O721 C731 1.252 . S
O722 Gd673 2.545 . S
O722 C740 1.258 . S
O723 Gd672 2.362 . S
O723 Gd673 2.606 . S
O723 C739 1.284 . S
O724 Gd672 2.324 . S
O724 C747 1.254 . S
O725 Gd673 2.429 . S
O725 C747 1.268 . S
O726 Gd673 2.545 . S
O726 C739 1.250 . S
O727 Gd673 2.412 . S
O727 C740 1.252 . S
C728 O717 1.284 . S
C728 O720 1.250 . S
C729 H698 0.929 . S
C729 C714 1.437 . S
C729 C730 1.317 . S
C730 H701 0.930 . S
C730 C706 1.431 . S
C730 C729 1.317 . S
C731 Gd672 2.828 1_545 S
C731 O716 1.258 1_545 S
C731 O721 1.252 . S
C731 C732 1.497 . S
C732 C731 1.497 . S
C732 C733 1.395 . S
C732 C734 1.380 . S
C733 C732 1.395 . S
C733 C736 1.398 . S
C733 H748 0.930 . S
C734 C732 1.380 . S
C734 C735 1.391 . S
C734 H749 0.930 . S
C735 C734 1.391 . S
C735 C737 1.387 . S
C736 C733 1.398 . S
C736 C737 1.380 . S
C736 H750 0.930 . S
C737 C735 1.387 . S
C737 C736 1.380 . S
C737 H751 0.930 . S
C738 O718 1.254 . S
C738 O719 1.268 . S
C739 O723 1.284 . S
C739 O726 1.250 . S
C740 Gd673 2.828 . S
C740 O722 1.258 . S
C740 O727 1.252 . S
C740 C741 1.497 . S
C741 C740 1.497 . S
C741 C742 1.395 . S
C741 C743 1.380 . S
C742 C741 1.395 . S
C742 C745 1.398 . S
C742 H752 0.930 . S
C743 C741 1.380 . S
C743 C744 1.391 . S
C743 H753 0.930 . S
C744 C743 1.391 . S
C744 C746 1.387 . S
C745 C742 1.398 . S
C745 C746 1.380 . S
C745 H754 0.930 . S
C746 C744 1.387 . S
C746 C745 1.380 . S
C746 H755 0.930 . S
C747 O724 1.254 . S
C747 O725 1.268 . S
H748 C733 0.930 . S
H749 C734 0.930 . S
H750 C736 0.930 . S
H751 C737 0.930 . S
H752 C742 0.930 . S
H753 C743 0.930 . S
H754 C745 0.930 . S
H755 C746 0.930 . S
Gd756 N787 2.661 . S
Gd756 N793 2.601 . S
Gd756 O800 2.545 . S
Gd756 O801 2.606 . S
Gd756 O803 2.429 . S
Gd756 O804 2.545 . S
Gd756 O805 2.412 . S
Gd756 O807 2.362 . S
Gd756 O808 2.324 . S
Gd756 C815 2.828 . S
Gd757 N766 2.661 . S
Gd757 N770 2.601 . S
Gd757 O801 2.362 . S
Gd757 O802 2.324 . S
Gd757 O806 2.545 . S
Gd757 O807 2.606 . S
Gd757 O809 2.429 . S
Gd757 O810 2.545 . S
Gd757 O811 2.412 . S
Gd757 C824 2.828 . S
C758 C761 1.417 . S
C758 C763 1.431 . S
C758 C764 1.412 . S
C759 C762 1.437 . S
C759 C763 1.317 . S
C759 H778 0.929 1_565 S
C760 C761 1.426 . S
C760 C762 1.413 . S
C760 N770 1.359 . S
C761 C758 1.417 . S
C761 C760 1.426 . S
C761 N766 1.350 . S
C762 C759 1.437 . S
C762 C760 1.413 . S
C762 C772 1.391 . S
C763 C758 1.431 . S
C763 C759 1.317 . S
C763 H774 0.930 1_565 S
C764 C758 1.412 . S
C764 C765 1.355 . S
C764 H776 0.930 . S
C765 C764 1.355 . S
C765 C767 1.402 . S
C765 H777 0.930 . S
N766 Gd757 2.661 . S
N766 C761 1.350 . S
N766 C767 1.307 . S
C767 C765 1.402 . S
C767 N766 1.307 . S
C767 H768 0.930 . S
H768 C767 0.930 . S
C769 N770 1.334 . S
C769 C771 1.394 . S
C769 H773 0.930 . S
N770 Gd757 2.601 . S
N770 C760 1.359 . S
N770 C769 1.334 . S
C771 C769 1.394 . S
C771 C772 1.359 . S
C771 H783 0.930 . S
C772 C762 1.391 . S
C772 C771 1.359 . S
C772 H784 0.929 . S
H773 C769 0.930 . S
H774 C763 0.930 1_545 S
H775 C792 0.930 . S
H776 C764 0.930 . S
H777 C765 0.930 . S
H778 C759 0.929 1_545 S
H779 C797 0.930 . S
H780 C788 0.930 . S
H781 C789 0.930 . S
H782 C813 0.929 . S
H783 C771 0.930 . S
H784 C772 0.929 . S
H785 C814 0.930 . S
H786 C795 0.930 . S
N787 Gd756 2.661 . S
N787 C791 1.350 . S
N787 C792 1.307 . S
C788 H780 0.930 . S
C788 C789 1.355 . S
C788 C790 1.412 . S
C789 H781 0.930 . S
C789 C788 1.355 . S
C789 C792 1.402 . S
C790 C788 1.412 . S
C790 C791 1.417 . S
C790 C814 1.431 . S
C791 N787 1.350 . S
C791 C790 1.417 . S
C791 C794 1.426 . S
C792 H775 0.930 . S
C792 N787 1.307 . S
C792 C789 1.402 . S
N793 Gd756 2.601 . S
N793 C794 1.359 . S
N793 C797 1.334 . S
C794 C791 1.426 . S
C794 N793 1.359 . S
C794 C798 1.413 . S
C795 H786 0.930 . S
C795 C796 1.359 . S
C795 C797 1.394 . S
C796 C795 1.359 . S
C796 C798 1.391 . S
C796 H799 0.929 . S
C797 H779 0.930 . S
C797 N793 1.334 . S
C797 C795 1.394 . S
C798 C794 1.413 . S
C798 C796 1.391 . S
C798 C813 1.437 . S
H799 C796 0.929 . S
O800 Gd756 2.545 . S
O800 C815 1.258 . S
O801 Gd756 2.606 . S
O801 Gd757 2.362 . S
O801 C812 1.284 . S
O802 Gd757 2.324 . S
O802 C822 1.254 . S
O803 Gd756 2.429 . S
O803 C822 1.268 . S
O804 Gd756 2.545 . S
O804 C812 1.250 . S
O805 Gd756 2.412 . S
O805 C815 1.252 . S
O806 Gd757 2.545 . S
O806 C824 1.258 . S
O807 Gd756 2.362 . S
O807 Gd757 2.606 . S
O807 C823 1.284 . S
O808 Gd756 2.324 . S
O808 C831 1.254 . S
O809 Gd757 2.429 . S
O809 C831 1.268 . S
O810 Gd757 2.545 . S
O810 C823 1.250 . S
O811 Gd757 2.412 . S
O811 C824 1.252 . S
C812 O801 1.284 . S
C812 O804 1.250 . S
C813 H782 0.929 . S
C813 C798 1.437 . S
C813 C814 1.317 . S
C814 H785 0.930 . S
C814 C790 1.431 . S
C814 C813 1.317 . S
C815 Gd756 2.828 . S
C815 O800 1.258 . S
C815 O805 1.252 . S
C815 C816 1.497 . S
C816 C815 1.497 . S
C816 C817 1.395 . S
C816 C818 1.380 . S
C817 C816 1.395 . S
C817 C820 1.398 . S
C817 H832 0.930 . S
C818 C816 1.380 . S
C818 C819 1.391 . S
C818 H833 0.930 . S
C819 C818 1.391 . S
C819 C821 1.387 . S
C820 C817 1.398 . S
C820 C821 1.380 . S
C820 H834 0.930 . S
C821 C819 1.387 . S
C821 C820 1.380 . S
C821 H835 0.930 . S
C822 O802 1.254 . S
C822 O803 1.268 . S
C823 O807 1.284 . S
C823 O810 1.250 . S
C824 Gd757 2.828 . S
C824 O806 1.258 . S
C824 O811 1.252 . S
C824 C825 1.497 1_565 S
C825 C824 1.497 1_545 S
C825 C826 1.395 . S
C825 C827 1.380 . S
C826 C825 1.395 . S
C826 C829 1.398 . S
C826 H836 0.930 . S
C827 C825 1.380 . S
C827 C828 1.391 . S
C827 H837 0.930 . S
C828 C827 1.391 . S
C828 C830 1.387 . S
C829 C826 1.398 . S
C829 C830 1.380 . S
C829 H838 0.930 . S
C830 C828 1.387 . S
C830 C829 1.380 . S
C830 H839 0.930 . S
C831 O808 1.254 . S
C831 O809 1.268 . S
H832 C817 0.930 . S
H833 C818 0.930 . S
H834 C820 0.930 . S
H835 C821 0.930 . S
H836 C826 0.930 . S
H837 C827 0.930 . S
H838 C829 0.930 . S
H839 C830 0.930 . S
Gd840 N871 2.661 . S
Gd840 N877 2.601 . S
Gd840 O884 2.545 . S
Gd840 O885 2.606 . S
Gd840 O887 2.429 . S
Gd840 O888 2.545 . S
Gd840 O889 2.412 . S
Gd840 O891 2.362 . S
Gd840 O892 2.324 . S
Gd840 C899 2.828 . S
Gd841 N850 2.661 . S
Gd841 N854 2.601 . S
Gd841 O885 2.362 . S
Gd841 O886 2.324 . S
Gd841 O890 2.545 . S
Gd841 O891 2.606 . S
Gd841 O893 2.429 . S
Gd841 O894 2.545 . S
Gd841 O895 2.412 . S
Gd841 C908 2.828 . S
C842 C845 1.417 . S
C842 C847 1.431 . S
C842 C848 1.412 . S
C843 C846 1.437 . S
C843 C847 1.317 . S
C843 H862 0.929 . S
C844 C845 1.426 . S
C844 C846 1.413 . S
C844 N854 1.359 . S
C845 C842 1.417 . S
C845 C844 1.426 . S
C845 N850 1.350 . S
C846 C843 1.437 . S
C846 C844 1.413 . S
C846 C856 1.391 . S
C847 C842 1.431 . S
C847 C843 1.317 . S
C847 H858 0.930 . S
C848 C842 1.412 . S
C848 C849 1.355 . S
C848 H860 0.930 . S
C849 C848 1.355 . S
C849 C851 1.402 . S
C849 H861 0.930 . S
N850 Gd841 2.661 . S
N850 C845 1.350 . S
N850 C851 1.307 . S
C851 C849 1.402 . S
C851 N850 1.307 . S
C851 H852 0.930 . S
H852 C851 0.930 . S
C853 N854 1.334 . S
C853 C855 1.394 . S
C853 H857 0.930 . S
N854 Gd841 2.601 . S
N854 C844 1.359 . S
N854 C853 1.334 . S
C855 C853 1.394 . S
C855 C856 1.359 . S
C855 H867 0.930 . S
C856 C846 1.391 . S
C856 C855 1.359 . S
C856 H868 0.929 . S
H857 C853 0.930 . S
H858 C847 0.930 . S
H859 C876 0.930 . S
H860 C848 0.930 . S
H861 C849 0.930 . S
H862 C843 0.929 . S
H863 C881 0.930 . S
H864 C872 0.930 . S
H865 C873 0.930 . S
H866 C897 0.929 . S
H867 C855 0.930 . S
H868 C856 0.929 . S
H869 C898 0.930 . S
H870 C879 0.930 . S
N871 Gd840 2.661 . S
N871 C875 1.350 . S
N871 C876 1.307 . S
C872 H864 0.930 . S
C872 C873 1.355 . S
C872 C874 1.412 . S
C873 H865 0.930 . S
C873 C872 1.355 . S
C873 C876 1.402 1_545 S
C874 C872 1.412 . S
C874 C875 1.417 1_545 S
C874 C898 1.431 . S
C875 N871 1.350 . S
C875 C874 1.417 1_565 S
C875 C878 1.426 . S
C876 H859 0.930 . S
C876 N871 1.307 . S
C876 C873 1.402 1_565 S
N877 Gd840 2.601 . S
N877 C878 1.359 . S
N877 C881 1.334 . S
C878 C875 1.426 . S
C878 N877 1.359 . S
C878 C882 1.413 1_565 S
C879 H870 0.930 . S
C879 C880 1.359 . S
C879 C881 1.394 . S
C880 C879 1.359 . S
C880 C882 1.391 1_565 S
C880 H883 0.929 1_565 S
C881 H863 0.930 . S
C881 N877 1.334 . S
C881 C879 1.394 . S
C882 C878 1.413 1_545 S
C882 C880 1.391 1_545 S
C882 C897 1.437 . S
H883 C880 0.929 1_545 S
O884 Gd840 2.545 . S
O884 C899 1.258 . S
O885 Gd840 2.606 . S
O885 Gd841 2.362 . S
O885 C896 1.284 . S
O886 Gd841 2.324 . S
O886 C906 1.254 . S
O887 Gd840 2.429 . S
O887 C906 1.268 . S
O888 Gd840 2.545 . S
O888 C896 1.250 . S
O889 Gd840 2.412 . S
O889 C899 1.252 . S
O890 Gd841 2.545 . S
O890 C908 1.258 . S
O891 Gd840 2.362 . S
O891 Gd841 2.606 . S
O891 C907 1.284 . S
O892 Gd840 2.324 . S
O892 C915 1.254 . S
O893 Gd841 2.429 . S
O893 C915 1.268 . S
O894 Gd841 2.545 . S
O894 C907 1.250 . S
O895 Gd841 2.412 . S
O895 C908 1.252 . S
C896 O885 1.284 . S
C896 O888 1.250 . S
C897 H866 0.929 . S
C897 C882 1.437 . S
C897 C898 1.317 . S
C898 H869 0.930 . S
C898 C874 1.431 . S
C898 C897 1.317 . S
C899 Gd840 2.828 . S
C899 O884 1.258 . S
C899 O889 1.252 . S
C899 C900 1.497 . S
C900 C899 1.497 . S
C900 C901 1.395 . S
C900 C902 1.380 . S
C901 C900 1.395 . S
C901 C904 1.398 . S
C901 H916 0.930 . S
C902 C900 1.380 . S
C902 C903 1.391 . S
C902 H917 0.930 . S
C903 C902 1.391 . S
C903 C905 1.387 . S
C904 C901 1.398 . S
C904 C905 1.380 . S
C904 H918 0.930 . S
C905 C903 1.387 . S
C905 C904 1.380 . S
C905 H919 0.930 . S
C906 O886 1.254 . S
C906 O887 1.268 . S
C907 O891 1.284 . S
C907 O894 1.250 . S
C908 Gd841 2.828 . S
C908 O890 1.258 . S
C908 O895 1.252 . S
C908 C909 1.497 . S
C909 C908 1.497 . S
C909 C910 1.395 . S
C909 C911 1.380 . S
C910 C909 1.395 . S
C910 C913 1.398 1_455 S
C910 H920 0.930 . S
C911 C909 1.380 . S
C911 C912 1.391 1_455 S
C911 H921 0.930 . S
C912 C911 1.391 1_655 S
C912 C914 1.387 . S
C913 C910 1.398 1_655 S
C913 C914 1.380 . S
C913 H922 0.930 . S
C914 C912 1.387 . S
C914 C913 1.380 . S
C914 H923 0.930 . S
C915 O892 1.254 . S
C915 O893 1.268 . S
H916 C901 0.930 . S
H917 C902 0.930 . S
H918 C904 0.930 . S
H919 C905 0.930 . S
H920 C910 0.930 . S
H921 C911 0.930 . S
H922 C913 0.930 . S
H923 C914 0.930 . S
Gd924 N955 2.661 . S
Gd924 N961 2.601 . S
Gd924 O968 2.545 . S
Gd924 O969 2.606 . S
Gd924 O971 2.429 . S
Gd924 O972 2.545 . S
Gd924 O973 2.412 . S
Gd924 O975 2.362 . S
Gd924 O976 2.324 . S
Gd924 C983 2.828 . S
Gd925 N934 2.661 . S
Gd925 N938 2.601 . S
Gd925 O969 2.362 . S
Gd925 O970 2.324 . S
Gd925 O974 2.545 . S
Gd925 O975 2.606 . S
Gd925 O977 2.429 . S
Gd925 O978 2.545 . S
Gd925 O979 2.412 . S
Gd925 C992 2.828 . S
C926 C929 1.417 . S
C926 C931 1.431 . S
C926 C932 1.412 . S
C927 C930 1.437 . S
C927 C931 1.317 . S
C927 H946 0.929 . S
C928 C929 1.426 . S
C928 C930 1.413 . S
C928 N938 1.359 . S
C929 C926 1.417 . S
C929 C928 1.426 . S
C929 N934 1.350 . S
C930 C927 1.437 . S
C930 C928 1.413 . S
C930 C940 1.391 . S
C931 C926 1.431 . S
C931 C927 1.317 . S
C931 H942 0.930 . S
C932 C926 1.412 . S
C932 C933 1.355 . S
C932 H944 0.930 . S
C933 C932 1.355 . S
C933 C935 1.402 . S
C933 H945 0.930 . S
N934 Gd925 2.661 . S
N934 C929 1.350 . S
N934 C935 1.307 . S
C935 C933 1.402 . S
C935 N934 1.307 . S
C935 H936 0.930 . S
H936 C935 0.930 . S
C937 N938 1.334 . S
C937 C939 1.394 . S
C937 H941 0.930 . S
N938 Gd925 2.601 . S
N938 C928 1.359 . S
N938 C937 1.334 . S
C939 C937 1.394 . S
C939 C940 1.359 . S
C939 H951 0.930 . S
C940 C930 1.391 . S
C940 C939 1.359 . S
C940 H952 0.929 . S
H941 C937 0.930 . S
H942 C931 0.930 . S
H943 C960 0.930 . S
H944 C932 0.930 . S
H945 C933 0.930 . S
H946 C927 0.929 . S
H947 C965 0.930 . S
H948 C956 0.930 . S
H949 C957 0.930 . S
H950 C981 0.929 . S
H951 C939 0.930 . S
H952 C940 0.929 . S
H953 C982 0.930 . S
H954 C963 0.930 . S
N955 Gd924 2.661 . S
N955 C959 1.350 . S
N955 C960 1.307 . S
C956 H948 0.930 . S
C956 C957 1.355 1_655 S
C956 C958 1.412 1_655 S
C957 H949 0.930 . S
C957 C956 1.355 1_455 S
C957 C960 1.402 . S
C958 C956 1.412 1_455 S
C958 C959 1.417 . S
C958 C982 1.431 1_455 S
C959 N955 1.350 . S
C959 C958 1.417 . S
C959 C962 1.426 . S
C960 H943 0.930 . S
C960 N955 1.307 . S
C960 C957 1.402 . S
N961 Gd924 2.601 . S
N961 C962 1.359 . S
N961 C965 1.334 . S
C962 C959 1.426 . S
C962 N961 1.359 . S
C962 C966 1.413 . S
C963 H954 0.930 . S
C963 C964 1.359 . S
C963 C965 1.394 . S
C964 C963 1.359 . S
C964 C966 1.391 . S
C964 H967 0.929 . S
C965 H947 0.930 . S
C965 N961 1.334 . S
C965 C963 1.394 . S
C966 C962 1.413 . S
C966 C964 1.391 . S
C966 C981 1.437 1_455 S
H967 C964 0.929 . S
O968 Gd924 2.545 . S
O968 C983 1.258 . S
O969 Gd924 2.606 . S
O969 Gd925 2.362 . S
O969 C980 1.284 . S
O970 Gd925 2.324 . S
O970 C990 1.254 . S
O971 Gd924 2.429 . S
O971 C990 1.268 . S
O972 Gd924 2.545 . S
O972 C980 1.250 . S
O973 Gd924 2.412 . S
O973 C983 1.252 . S
O974 Gd925 2.545 . S
O974 C992 1.258 . S
O975 Gd924 2.362 . S
O975 Gd925 2.606 . S
O975 C991 1.284 . S
O976 Gd924 2.324 . S
O976 C999 1.254 . S
O977 Gd925 2.429 . S
O977 C999 1.268 . S
O978 Gd925 2.545 . S
O978 C991 1.250 . S
O979 Gd925 2.412 . S
O979 C992 1.252 . S
C980 O969 1.284 . S
C980 O972 1.250 . S
C981 H950 0.929 . S
C981 C966 1.437 1_655 S
C981 C982 1.317 . S
C982 H953 0.930 . S
C982 C958 1.431 1_655 S
C982 C981 1.317 . S
C983 Gd924 2.828 . S
C983 O968 1.258 . S
C983 O973 1.252 . S
C983 C984 1.497 . S
C984 C983 1.497 . S
C984 C985 1.395 . S
C984 C986 1.380 . S
C985 C984 1.395 . S
C985 C988 1.398 . S
C985 H1000 0.930 . S
C986 C984 1.380 . S
C986 C987 1.391 . S
C986 H1001 0.930 . S
C987 C986 1.391 . S
C987 C989 1.387 . S
C988 C985 1.398 . S
C988 C989 1.380 . S
C988 H1002 0.930 . S
C989 C987 1.387 . S
C989 C988 1.380 . S
C989 H1003 0.930 . S
C990 O970 1.254 . S
C990 O971 1.268 . S
C991 O975 1.284 . S
C991 O978 1.250 . S
C992 Gd925 2.828 . S
C992 O974 1.258 . S
C992 O979 1.252 . S
C992 C993 1.497 . S
C993 C992 1.497 . S
C993 C994 1.395 . S
C993 C995 1.380 . S
C994 C993 1.395 . S
C994 C997 1.398 . S
C994 H1004 0.930 . S
C995 C993 1.380 . S
C995 C996 1.391 . S
C995 H1005 0.930 . S
C996 C995 1.391 . S
C996 C998 1.387 . S
C997 C994 1.398 . S
C997 C998 1.380 . S
C997 H1006 0.930 . S
C998 C996 1.387 . S
C998 C997 1.380 . S
C998 H1007 0.930 . S
C999 O976 1.254 . S
C999 O977 1.268 . S
H1000 C985 0.930 . S
H1001 C986 0.930 . S
H1002 C988 0.930 . S
H1003 C989 0.930 . S
H1004 C994 0.930 . S
H1005 C995 0.930 . S
H1006 C997 0.930 . S
H1007 C998 0.930 . S
Gd1008 N1039 2.661 . S
Gd1008 N1045 2.601 . S
Gd1008 O1052 2.545 . S
Gd1008 O1053 2.606 . S
Gd1008 O1055 2.429 . S
Gd1008 O1056 2.545 . S
Gd1008 O1057 2.412 . S
Gd1008 O1059 2.362 . S
Gd1008 O1060 2.324 . S
Gd1008 C1067 2.828 . S
Gd1009 N1018 2.661 . S
Gd1009 N1022 2.601 . S
Gd1009 O1053 2.362 . S
Gd1009 O1054 2.324 . S
Gd1009 O1058 2.545 . S
Gd1009 O1059 2.606 . S
Gd1009 O1061 2.429 . S
Gd1009 O1062 2.545 . S
Gd1009 O1063 2.412 . S
Gd1009 C1076 2.828 . S
C1010 C1013 1.417 . S
C1010 C1015 1.431 . S
C1010 C1016 1.412 . S
C1011 C1014 1.437 . S
C1011 C1015 1.317 . S
C1011 H1030 0.929 1_655 S
C1012 C1013 1.426 . S
C1012 C1014 1.413 . S
C1012 N1022 1.359 . S
C1013 C1010 1.417 . S
C1013 C1012 1.426 . S
C1013 N1018 1.350 . S
C1014 C1011 1.437 . S
C1014 C1012 1.413 . S
C1014 C1024 1.391 . S
C1015 C1010 1.431 . S
C1015 C1011 1.317 . S
C1015 H1026 0.930 1_655 S
C1016 C1010 1.412 . S
C1016 C1017 1.355 . S
C1016 H1028 0.930 . S
C1017 C1016 1.355 . S
C1017 C1019 1.402 . S
C1017 H1029 0.930 . S
N1018 Gd1009 2.661 . S
N1018 C1013 1.350 . S
N1018 C1019 1.307 . S
C1019 C1017 1.402 . S
C1019 N1018 1.307 . S
C1019 H1020 0.930 . S
H1020 C1019 0.930 . S
C1021 N1022 1.334 . S
C1021 C1023 1.394 . S
C1021 H1025 0.930 . S
N1022 Gd1009 2.601 . S
N1022 C1012 1.359 . S
N1022 C1021 1.334 . S
C1023 C1021 1.394 . S
C1023 C1024 1.359 . S
C1023 H1035 0.930 . S
C1024 C1014 1.391 . S
C1024 C1023 1.359 . S
C1024 H1036 0.929 . S
H1025 C1021 0.930 . S
H1026 C1015 0.930 1_455 S
H1027 C1044 0.930 . S
H1028 C1016 0.930 . S
H1029 C1017 0.930 . S
H1030 C1011 0.929 1_455 S
H1031 C1049 0.930 . S
H1032 C1040 0.930 . S
H1033 C1041 0.930 . S
H1034 C1065 0.929 . S
H1035 C1023 0.930 . S
H1036 C1024 0.929 . S
H1037 C1066 0.930 . S
H1038 C1047 0.930 . S
N1039 Gd1008 2.661 . S
N1039 C1043 1.350 . S
N1039 C1044 1.307 . S
C1040 H1032 0.930 . S
C1040 C1041 1.355 . S
C1040 C1042 1.412 . S
C1041 H1033 0.930 . S
C1041 C1040 1.355 . S
C1041 C1044 1.402 . S
C1042 C1040 1.412 . S
C1042 C1043 1.417 . S
C1042 C1066 1.431 . S
C1043 N1039 1.350 . S
C1043 C1042 1.417 . S
C1043 C1046 1.426 . S
C1044 H1027 0.930 . S
C1044 N1039 1.307 . S
C1044 C1041 1.402 . S
N1045 Gd1008 2.601 . S
N1045 C1046 1.359 . S
N1045 C1049 1.334 . S
C1046 C1043 1.426 . S
C1046 N1045 1.359 . S
C1046 C1050 1.413 . S
C1047 H1038 0.930 . S
C1047 C1048 1.359 . S
C1047 C1049 1.394 . S
C1048 C1047 1.359 . S
C1048 C1050 1.391 . S
C1048 H1051 0.929 . S
C1049 H1031 0.930 . S
C1049 N1045 1.334 . S
C1049 C1047 1.394 . S
C1050 C1046 1.413 . S
C1050 C1048 1.391 . S
C1050 C1065 1.437 . S
H1051 C1048 0.929 . S
O1052 Gd1008 2.545 . S
O1052 C1067 1.258 . S
O1053 Gd1008 2.606 . S
O1053 Gd1009 2.362 . S
O1053 C1064 1.284 . S
O1054 Gd1009 2.324 . S
O1054 C1074 1.254 . S
O1055 Gd1008 2.429 . S
O1055 C1074 1.268 . S
O1056 Gd1008 2.545 . S
O1056 C1064 1.250 . S
O1057 Gd1008 2.412 . S
O1057 C1067 1.252 . S
O1058 Gd1009 2.545 . S
O1058 C1076 1.258 . S
O1059 Gd1008 2.362 . S
O1059 Gd1009 2.606 . S
O1059 C1075 1.284 . S
O1060 Gd1008 2.324 . S
O1060 C1083 1.254 . S
O1061 Gd1009 2.429 . S
O1061 C1083 1.268 . S
O1062 Gd1009 2.545 . S
O1062 C1075 1.250 . S
O1063 Gd1009 2.412 . S
O1063 C1076 1.252 . S
C1064 O1053 1.284 . S
C1064 O1056 1.250 . S
C1065 H1034 0.929 . S
C1065 C1050 1.437 . S
C1065 C1066 1.317 . S
C1066 H1037 0.930 . S
C1066 C1042 1.431 . S
C1066 C1065 1.317 . S
C1067 Gd1008 2.828 . S
C1067 O1052 1.258 . S
C1067 O1057 1.252 . S
C1067 C1068 1.497 . S
C1068 C1067 1.497 . S
C1068 C1069 1.395 . S
C1068 C1070 1.380 . S
C1069 C1068 1.395 . S
C1069 C1072 1.398 . S
C1069 H1084 0.930 . S
C1070 C1068 1.380 . S
C1070 C1071 1.391 . S
C1070 H1085 0.930 . S
C1071 C1070 1.391 . S
C1071 C1073 1.387 . S
C1072 C1069 1.398 . S
C1072 C1073 1.380 . S
C1072 H1086 0.930 . S
C1073 C1071 1.387 . S
C1073 C1072 1.380 . S
C1073 H1087 0.930 . S
C1074 O1054 1.254 . S
C1074 O1055 1.268 . S
C1075 O1059 1.284 . S
C1075 O1062 1.250 . S
C1076 Gd1009 2.828 . S
C1076 O1058 1.258 . S
C1076 O1063 1.252 . S
C1076 C1077 1.497 1_655 S
C1077 C1076 1.497 1_455 S
C1077 C1078 1.395 . S
C1077 C1079 1.380 . S
C1078 C1077 1.395 . S
C1078 C1081 1.398 . S
C1078 H1088 0.930 . S
C1079 C1077 1.380 . S
C1079 C1080 1.391 . S
C1079 H1089 0.930 . S
C1080 C1079 1.391 . S
C1080 C1082 1.387 . S
C1081 C1078 1.398 . S
C1081 C1082 1.380 . S
C1081 H1090 0.930 . S
C1082 C1080 1.387 . S
C1082 C1081 1.380 . S
C1082 H1091 0.930 . S
C1083 O1060 1.254 . S
C1083 O1061 1.268 . S
H1084 C1069 0.930 . S
H1085 C1070 0.930 . S
H1086 C1072 0.930 . S
H1087 C1073 0.930 . S
H1088 C1078 0.930 . S
H1089 C1079 0.930 . S
H1090 C1081 0.930 . S
H1091 C1082 0.930 . S
Gd1092 N1123 2.661 . S
Gd1092 N1129 2.601 . S
Gd1092 O1136 2.545 . S
Gd1092 O1137 2.606 . S
Gd1092 O1139 2.429 . S
Gd1092 O1140 2.545 . S
Gd1092 O1141 2.412 . S
Gd1092 O1143 2.362 . S
Gd1092 O1144 2.324 . S
Gd1092 C1151 2.828 . S
Gd1093 N1102 2.661 . S
Gd1093 N1106 2.601 . S
Gd1093 O1137 2.362 . S
Gd1093 O1138 2.324 . S
Gd1093 O1142 2.545 . S
Gd1093 O1143 2.606 . S
Gd1093 O1145 2.429 . S
Gd1093 O1146 2.545 . S
Gd1093 O1147 2.412 . S
Gd1093 C1160 2.828 . S
C1094 C1097 1.417 . S
C1094 C1099 1.431 . S
C1094 C1100 1.412 . S
C1095 C1098 1.437 . S
C1095 C1099 1.317 . S
C1095 H1114 0.929 . S
C1096 C1097 1.426 . S
C1096 C1098 1.413 . S
C1096 N1106 1.359 . S
C1097 C1094 1.417 . S
C1097 C1096 1.426 . S
C1097 N1102 1.350 . S
C1098 C1095 1.437 . S
C1098 C1096 1.413 . S
C1098 C1108 1.391 . S
C1099 C1094 1.431 . S
C1099 C1095 1.317 . S
C1099 H1110 0.930 . S
C1100 C1094 1.412 . S
C1100 C1101 1.355 . S
C1100 H1112 0.930 . S
C1101 C1100 1.355 . S
C1101 C1103 1.402 . S
C1101 H1113 0.930 . S
N1102 Gd1093 2.661 . S
N1102 C1097 1.350 . S
N1102 C1103 1.307 . S
C1103 C1101 1.402 . S
C1103 N1102 1.307 . S
C1103 H1104 0.930 . S
H1104 C1103 0.930 . S
C1105 N1106 1.334 . S
C1105 C1107 1.394 . S
C1105 H1109 0.930 . S
N1106 Gd1093 2.601 . S
N1106 C1096 1.359 . S
N1106 C1105 1.334 . S
C1107 C1105 1.394 . S
C1107 C1108 1.359 . S
C1107 H1119 0.930 . S
C1108 C1098 1.391 . S
C1108 C1107 1.359 . S
C1108 H1120 0.929 . S
H1109 C1105 0.930 . S
H1110 C1099 0.930 . S
H1111 C1128 0.930 . S
H1112 C1100 0.930 . S
H1113 C1101 0.930 . S
H1114 C1095 0.929 . S
H1115 C1133 0.930 . S
H1116 C1124 0.930 . S
H1117 C1125 0.930 . S
H1118 C1149 0.929 . S
H1119 C1107 0.930 . S
H1120 C1108 0.929 . S
H1121 C1150 0.930 . S
H1122 C1131 0.930 . S
N1123 Gd1092 2.661 . S
N1123 C1127 1.350 . S
N1123 C1128 1.307 . S
C1124 H1116 0.930 . S
C1124 C1125 1.355 1_565 S
C1124 C1126 1.412 1_565 S
C1125 H1117 0.930 . S
C1125 C1124 1.355 1_545 S
C1125 C1128 1.402 . S
C1126 C1124 1.412 1_545 S
C1126 C1127 1.417 . S
C1126 C1150 1.431 1_545 S
C1127 N1123 1.350 . S
C1127 C1126 1.417 . S
C1127 C1130 1.426 . S
C1128 H1111 0.930 . S
C1128 N1123 1.307 . S
C1128 C1125 1.402 . S
N1129 Gd1092 2.601 . S
N1129 C1130 1.359 . S
N1129 C1133 1.334 . S
C1130 C1127 1.426 . S
C1130 N1129 1.359 . S
C1130 C1134 1.413 . S
C1131 H1122 0.930 . S
C1131 C1132 1.359 . S
C1131 C1133 1.394 . S
C1132 C1131 1.359 . S
C1132 C1134 1.391 . S
C1132 H1135 0.929 . S
C1133 H1115 0.930 . S
C1133 N1129 1.334 . S
C1133 C1131 1.394 . S
C1134 C1130 1.413 . S
C1134 C1132 1.391 . S
C1134 C1149 1.437 1_545 S
H1135 C1132 0.929 . S
O1136 Gd1092 2.545 . S
O1136 C1151 1.258 . S
O1137 Gd1092 2.606 . S
O1137 Gd1093 2.362 . S
O1137 C1148 1.284 . S
O1138 Gd1093 2.324 . S
O1138 C1158 1.254 . S
O1139 Gd1092 2.429 . S
O1139 C1158 1.268 . S
O1140 Gd1092 2.545 . S
O1140 C1148 1.250 . S
O1141 Gd1092 2.412 . S
O1141 C1151 1.252 . S
O1142 Gd1093 2.545 . S
O1142 C1160 1.258 . S
O1143 Gd1092 2.362 . S
O1143 Gd1093 2.606 . S
O1143 C1159 1.284 . S
O1144 Gd1092 2.324 . S
O1144 C1167 1.254 . S
O1145 Gd1093 2.429 . S
O1145 C1167 1.268 . S
O1146 Gd1093 2.545 . S
O1146 C1159 1.250 . S
O1147 Gd1093 2.412 . S
O1147 C1160 1.252 . S
C1148 O1137 1.284 . S
C1148 O1140 1.250 . S
C1149 H1118 0.929 . S
C1149 C1134 1.437 1_565 S
C1149 C1150 1.317 . S
C1150 H1121 0.930 . S
C1150 C1126 1.431 1_565 S
C1150 C1149 1.317 . S
C1151 Gd1092 2.828 . S
C1151 O1136 1.258 . S
C1151 O1141 1.252 . S
C1151 C1152 1.497 . S
C1152 C1151 1.497 . S
C1152 C1153 1.395 . S
C1152 C1154 1.380 . S
C1153 C1152 1.395 . S
C1153 C1156 1.398 . S
C1153 H1168 0.930 . S
C1154 C1152 1.380 . S
C1154 C1155 1.391 . S
C1154 H1169 0.930 . S
C1155 C1154 1.391 . S
C1155 C1157 1.387 . S
C1156 C1153 1.398 . S
C1156 C1157 1.380 . S
C1156 H1170 0.930 . S
C1157 C1155 1.387 . S
C1157 C1156 1.380 . S
C1157 H1171 0.930 . S
C1158 O1138 1.254 . S
C1158 O1139 1.268 . S
C1159 O1143 1.284 . S
C1159 O1146 1.250 . S
C1160 Gd1093 2.828 . S
C1160 O1142 1.258 . S
C1160 O1147 1.252 . S
C1160 C1161 1.497 . S
C1161 C1160 1.497 . S
C1161 C1162 1.395 . S
C1161 C1163 1.380 . S
C1162 C1161 1.395 . S
C1162 C1165 1.398 . S
C1162 H1172 0.930 . S
C1163 C1161 1.380 . S
C1163 C1164 1.391 . S
C1163 H1173 0.930 . S
C1164 C1163 1.391 . S
C1164 C1166 1.387 . S
C1165 C1162 1.398 . S
C1165 C1166 1.380 . S
C1165 H1174 0.930 . S
C1166 C1164 1.387 . S
C1166 C1165 1.380 . S
C1166 H1175 0.930 . S
C1167 O1144 1.254 . S
C1167 O1145 1.268 . S
H1168 C1153 0.930 . S
H1169 C1154 0.930 . S
H1170 C1156 0.930 . S
H1171 C1157 0.930 . S
H1172 C1162 0.930 . S
H1173 C1163 0.930 . S
H1174 C1165 0.930 . S
H1175 C1166 0.930 . S
Gd1176 N1207 2.661 . S
Gd1176 N1213 2.601 . S
Gd1176 O1220 2.545 . S
Gd1176 O1221 2.606 . S
Gd1176 O1223 2.429 . S
Gd1176 O1224 2.545 . S
Gd1176 O1225 2.412 . S
Gd1176 O1227 2.362 . S
Gd1176 O1228 2.324 . S
Gd1176 C1235 2.828 . S
Gd1177 N1186 2.661 . S
Gd1177 N1190 2.601 . S
Gd1177 O1221 2.362 . S
Gd1177 O1222 2.324 . S
Gd1177 O1226 2.545 . S
Gd1177 O1227 2.606 . S
Gd1177 O1229 2.429 . S
Gd1177 O1230 2.545 . S
Gd1177 O1231 2.412 . S
Gd1177 C1244 2.828 . S
C1178 C1181 1.417 . S
C1178 C1183 1.431 . S
C1178 C1184 1.412 . S
C1179 C1182 1.437 . S
C1179 C1183 1.317 . S
C1179 H1198 0.929 . S
C1180 C1181 1.426 . S
C1180 C1182 1.413 . S
C1180 N1190 1.359 . S
C1181 C1178 1.417 . S
C1181 C1180 1.426 . S
C1181 N1186 1.350 . S
C1182 C1179 1.437 . S
C1182 C1180 1.413 . S
C1182 C1192 1.391 . S
C1183 C1178 1.431 . S
C1183 C1179 1.317 . S
C1183 H1194 0.930 . S
C1184 C1178 1.412 . S
C1184 C1185 1.355 . S
C1184 H1196 0.930 . S
C1185 C1184 1.355 . S
C1185 C1187 1.402 . S
C1185 H1197 0.930 . S
N1186 Gd1177 2.661 . S
N1186 C1181 1.350 . S
N1186 C1187 1.307 . S
C1187 C1185 1.402 . S
C1187 N1186 1.307 . S
C1187 H1188 0.930 . S
H1188 C1187 0.930 . S
C1189 N1190 1.334 . S
C1189 C1191 1.394 . S
C1189 H1193 0.930 . S
N1190 Gd1177 2.601 . S
N1190 C1180 1.359 . S
N1190 C1189 1.334 . S
C1191 C1189 1.394 . S
C1191 C1192 1.359 . S
C1191 H1203 0.930 . S
C1192 C1182 1.391 . S
C1192 C1191 1.359 . S
C1192 H1204 0.929 . S
H1193 C1189 0.930 . S
H1194 C1183 0.930 . S
H1195 C1212 0.930 . S
H1196 C1184 0.930 . S
H1197 C1185 0.930 . S
H1198 C1179 0.929 . S
H1199 C1217 0.930 . S
H1200 C1208 0.930 . S
H1201 C1209 0.930 . S
H1202 C1233 0.929 . S
H1203 C1191 0.930 . S
H1204 C1192 0.929 . S
H1205 C1234 0.930 . S
H1206 C1215 0.930 . S
N1207 Gd1176 2.661 . S
N1207 C1211 1.350 . S
N1207 C1212 1.307 . S
C1208 H1200 0.930 . S
C1208 C1209 1.355 . S
C1208 C1210 1.412 . S
C1209 H1201 0.930 . S
C1209 C1208 1.355 . S
C1209 C1212 1.402 1_455 S
C1210 C1208 1.412 . S
C1210 C1211 1.417 1_455 S
C1210 C1234 1.431 . S
C1211 N1207 1.350 . S
C1211 C1210 1.417 1_655 S
C1211 C1214 1.426 . S
C1212 H1195 0.930 . S
C1212 N1207 1.307 . S
C1212 C1209 1.402 1_655 S
N1213 Gd1176 2.601 . S
N1213 C1214 1.359 . S
N1213 C1217 1.334 . S
C1214 C1211 1.426 . S
C1214 N1213 1.359 . S
C1214 C1218 1.413 1_655 S
C1215 H1206 0.930 . S
C1215 C1216 1.359 . S
C1215 C1217 1.394 . S
C1216 C1215 1.359 . S
C1216 C1218 1.391 1_655 S
C1216 H1219 0.929 1_655 S
C1217 H1199 0.930 . S
C1217 N1213 1.334 . S
C1217 C1215 1.394 . S
C1218 C1214 1.413 1_455 S
C1218 C1216 1.391 1_455 S
C1218 C1233 1.437 . S
H1219 C1216 0.929 1_455 S
O1220 Gd1176 2.545 . S
O1220 C1235 1.258 . S
O1221 Gd1176 2.606 . S
O1221 Gd1177 2.362 . S
O1221 C1232 1.284 . S
O1222 Gd1177 2.324 . S
O1222 C1242 1.254 . S
O1223 Gd1176 2.429 . S
O1223 C1242 1.268 . S
O1224 Gd1176 2.545 . S
O1224 C1232 1.250 . S
O1225 Gd1176 2.412 . S
O1225 C1235 1.252 . S
O1226 Gd1177 2.545 . S
O1226 C1244 1.258 . S
O1227 Gd1176 2.362 . S
O1227 Gd1177 2.606 . S
O1227 C1243 1.284 . S
O1228 Gd1176 2.324 . S
O1228 C1251 1.254 . S
O1229 Gd1177 2.429 . S
O1229 C1251 1.268 . S
O1230 Gd1177 2.545 . S
O1230 C1243 1.250 . S
O1231 Gd1177 2.412 . S
O1231 C1244 1.252 . S
C1232 O1221 1.284 . S
C1232 O1224 1.250 . S
C1233 H1202 0.929 . S
C1233 C1218 1.437 . S
C1233 C1234 1.317 . S
C1234 H1205 0.930 . S
C1234 C1210 1.431 . S
C1234 C1233 1.317 . S
C1235 Gd1176 2.828 . S
C1235 O1220 1.258 . S
C1235 O1225 1.252 . S
C1235 C1236 1.497 . S
C1236 C1235 1.497 . S
C1236 C1237 1.395 . S
C1236 C1238 1.380 . S
C1237 C1236 1.395 . S
C1237 C1240 1.398 . S
C1237 H1252 0.930 . S
C1238 C1236 1.380 . S
C1238 C1239 1.391 . S
C1238 H1253 0.930 . S
C1239 C1238 1.391 . S
C1239 C1241 1.387 . S
C1240 C1237 1.398 . S
C1240 C1241 1.380 . S
C1240 H1254 0.930 . S
C1241 C1239 1.387 . S
C1241 C1240 1.380 . S
C1241 H1255 0.930 . S
C1242 O1222 1.254 . S
C1242 O1223 1.268 . S
C1243 O1227 1.284 . S
C1243 O1230 1.250 . S
C1244 Gd1177 2.828 . S
C1244 O1226 1.258 . S
C1244 O1231 1.252 . S
C1244 C1245 1.497 . S
C1245 C1244 1.497 . S
C1245 C1246 1.395 . S
C1245 C1247 1.380 . S
C1246 C1245 1.395 . S
C1246 C1249 1.398 1_545 S
C1246 H1256 0.930 . S
C1247 C1245 1.380 . S
C1247 C1248 1.391 1_545 S
C1247 H1257 0.930 . S
C1248 C1247 1.391 1_565 S
C1248 C1250 1.387 . S
C1249 C1246 1.398 1_565 S
C1249 C1250 1.380 . S
C1249 H1258 0.930 . S
C1250 C1248 1.387 . S
C1250 C1249 1.380 . S
C1250 H1259 0.930 . S
C1251 O1228 1.254 . S
C1251 O1229 1.268 . S
H1252 C1237 0.930 . S
H1253 C1238 0.930 . S
H1254 C1240 0.930 . S
H1255 C1241 0.930 . S
H1256 C1246 0.930 . S
H1257 C1247 0.930 . S
H1258 C1249 0.930 . S
H1259 C1250 0.930 . S
Gd1260 N1291 2.661 . S
Gd1260 N1297 2.601 . S
Gd1260 O1304 2.545 . S
Gd1260 O1305 2.606 . S
Gd1260 O1307 2.429 . S
Gd1260 O1308 2.545 . S
Gd1260 O1309 2.412 . S
Gd1260 O1311 2.362 . S
Gd1260 O1312 2.324 . S
Gd1260 C1319 2.828 . S
Gd1261 N1270 2.661 . S
Gd1261 N1274 2.601 . S
Gd1261 O1305 2.362 . S
Gd1261 O1306 2.324 . S
Gd1261 O1310 2.545 . S
Gd1261 O1311 2.606 . S
Gd1261 O1313 2.429 . S
Gd1261 O1314 2.545 . S
Gd1261 O1315 2.412 . S
Gd1261 C1328 2.828 . S
C1262 C1265 1.417 . S
C1262 C1267 1.431 . S
C1262 C1268 1.412 . S
C1263 C1266 1.437 . S
C1263 C1267 1.317 . S
C1263 H1282 0.929 . S
C1264 C1265 1.426 . S
C1264 C1266 1.413 . S
C1264 N1274 1.359 . S
C1265 C1262 1.417 . S
C1265 C1264 1.426 . S
C1265 N1270 1.350 . S
C1266 C1263 1.437 . S
C1266 C1264 1.413 . S
C1266 C1276 1.391 . S
C1267 C1262 1.431 . S
C1267 C1263 1.317 . S
C1267 H1278 0.930 . S
C1268 C1262 1.412 . S
C1268 C1269 1.355 . S
C1268 H1280 0.930 . S
C1269 C1268 1.355 . S
C1269 C1271 1.402 . S
C1269 H1281 0.930 . S
N1270 Gd1261 2.661 . S
N1270 C1265 1.350 . S
N1270 C1271 1.307 . S
C1271 C1269 1.402 . S
C1271 N1270 1.307 . S
C1271 H1272 0.930 . S
H1272 C1271 0.930 . S
C1273 N1274 1.334 . S
C1273 C1275 1.394 . S
C1273 H1277 0.930 . S
N1274 Gd1261 2.601 . S
N1274 C1264 1.359 . S
N1274 C1273 1.334 . S
C1275 C1273 1.394 . S
C1275 C1276 1.359 . S
C1275 H1287 0.930 . S
C1276 C1266 1.391 . S
C1276 C1275 1.359 . S
C1276 H1288 0.929 . S
H1277 C1273 0.930 . S
H1278 C1267 0.930 . S
H1279 C1296 0.930 . S
H1280 C1268 0.930 . S
H1281 C1269 0.930 . S
H1282 C1263 0.929 . S
H1283 C1301 0.930 . S
H1284 C1292 0.930 . S
H1285 C1293 0.930 . S
H1286 C1317 0.929 1_565 S
H1287 C1275 0.930 . S
H1288 C1276 0.929 . S
H1289 C1318 0.930 1_565 S
H1290 C1299 0.930 . S
N1291 Gd1260 2.661 . S
N1291 C1295 1.350 . S
N1291 C1296 1.307 . S
C1292 H1284 0.930 . S
C1292 C1293 1.355 . S
C1292 C1294 1.412 . S
C1293 H1285 0.930 . S
C1293 C1292 1.355 . S
C1293 C1296 1.402 . S
C1294 C1292 1.412 . S
C1294 C1295 1.417 . S
C1294 C1318 1.431 . S
C1295 N1291 1.350 . S
C1295 C1294 1.417 . S
C1295 C1298 1.426 . S
C1296 H1279 0.930 . S
C1296 N1291 1.307 . S
C1296 C1293 1.402 . S
N1297 Gd1260 2.601 . S
N1297 C1298 1.359 . S
N1297 C1301 1.334 . S
C1298 C1295 1.426 . S
C1298 N1297 1.359 . S
C1298 C1302 1.413 . S
C1299 H1290 0.930 . S
C1299 C1300 1.359 . S
C1299 C1301 1.394 . S
C1300 C1299 1.359 . S
C1300 C1302 1.391 . S
C1300 H1303 0.929 . S
C1301 H1283 0.930 . S
C1301 N1297 1.334 . S
C1301 C1299 1.394 . S
C1302 C1298 1.413 . S
C1302 C1300 1.391 . S
C1302 C1317 1.437 . S
H1303 C1300 0.929 . S
O1304 Gd1260 2.545 . S
O1304 C1319 1.258 . S
O1305 Gd1260 2.606 . S
O1305 Gd1261 2.362 . S
O1305 C1316 1.284 . S
O1306 Gd1261 2.324 . S
O1306 C1326 1.254 . S
O1307 Gd1260 2.429 . S
O1307 C1326 1.268 . S
O1308 Gd1260 2.545 . S
O1308 C1316 1.250 . S
O1309 Gd1260 2.412 . S
O1309 C1319 1.252 . S
O1310 Gd1261 2.545 . S
O1310 C1328 1.258 . S
O1311 Gd1260 2.362 . S
O1311 Gd1261 2.606 . S
O1311 C1327 1.284 . S
O1312 Gd1260 2.324 . S
O1312 C1335 1.254 . S
O1313 Gd1261 2.429 . S
O1313 C1335 1.268 . S
O1314 Gd1261 2.545 . S
O1314 C1327 1.250 . S
O1315 Gd1261 2.412 . S
O1315 C1328 1.252 . S
C1316 O1305 1.284 . S
C1316 O1308 1.250 . S
C1317 H1286 0.929 1_545 S
C1317 C1302 1.437 . S
C1317 C1318 1.317 . S
C1318 H1289 0.930 1_545 S
C1318 C1294 1.431 . S
C1318 C1317 1.317 . S
C1319 Gd1260 2.828 . S
C1319 O1304 1.258 . S
C1319 O1309 1.252 . S
C1319 C1320 1.497 1_545 S
C1320 C1319 1.497 1_565 S
C1320 C1321 1.395 . S
C1320 C1322 1.380 . S
C1321 C1320 1.395 . S
C1321 C1324 1.398 . S
C1321 H1336 0.930 . S
C1322 C1320 1.380 . S
C1322 C1323 1.391 . S
C1322 H1337 0.930 . S
C1323 C1322 1.391 . S
C1323 C1325 1.387 . S
C1324 C1321 1.398 . S
C1324 C1325 1.380 . S
C1324 H1338 0.930 . S
C1325 C1323 1.387 . S
C1325 C1324 1.380 . S
C1325 H1339 0.930 . S
C1326 O1306 1.254 . S
C1326 O1307 1.268 . S
C1327 O1311 1.284 . S
C1327 O1314 1.250 . S
C1328 Gd1261 2.828 . S
C1328 O1310 1.258 . S
C1328 O1315 1.252 . S
C1328 C1329 1.497 . S
C1329 C1328 1.497 . S
C1329 C1330 1.395 . S
C1329 C1331 1.380 . S
C1330 C1329 1.395 . S
C1330 C1333 1.398 . S
C1330 H1340 0.930 . S
C1331 C1329 1.380 . S
C1331 C1332 1.391 . S
C1331 H1341 0.930 . S
C1332 C1331 1.391 . S
C1332 C1334 1.387 . S
C1333 C1330 1.398 . S
C1333 C1334 1.380 . S
C1333 H1342 0.930 . S
C1334 C1332 1.387 . S
C1334 C1333 1.380 . S
C1334 H1343 0.930 . S
C1335 O1312 1.254 . S
C1335 O1313 1.268 . S
H1336 C1321 0.930 . S
H1337 C1322 0.930 . S
H1338 C1324 0.930 . S
H1339 C1325 0.930 . S
H1340 C1330 0.930 . S
H1341 C1331 0.930 . S
H1342 C1333 0.930 . S
H1343 C1334 0.930 . S
Gd1344 N1375 2.661 . S
Gd1344 N1381 2.601 . S
Gd1344 O1388 2.545 . S
Gd1344 O1389 2.606 . S
Gd1344 O1391 2.429 . S
Gd1344 O1392 2.545 . S
Gd1344 O1393 2.412 1_655 S
Gd1344 O1395 2.362 . S
Gd1344 O1396 2.324 . S
Gd1344 C1403 2.828 1_655 S
Gd1345 N1354 2.661 . S
Gd1345 N1358 2.601 . S
Gd1345 O1389 2.362 . S
Gd1345 O1390 2.324 . S
Gd1345 O1394 2.545 . S
Gd1345 O1395 2.606 . S
Gd1345 O1397 2.429 . S
Gd1345 O1398 2.545 . S
Gd1345 O1399 2.412 . S
Gd1345 C1412 2.828 . S
C1346 C1349 1.417 . S
C1346 C1351 1.431 1_545 S
C1346 C1352 1.412 1_545 S
C1347 C1350 1.437 1_565 S
C1347 C1351 1.317 . S
C1347 H1366 0.929 . S
C1348 C1349 1.426 . S
C1348 C1350 1.413 . S
C1348 N1358 1.359 . S
C1349 C1346 1.417 . S
C1349 C1348 1.426 . S
C1349 N1354 1.350 . S
C1350 C1347 1.437 1_545 S
C1350 C1348 1.413 . S
C1350 C1360 1.391 . S
C1351 C1346 1.431 1_565 S
C1351 C1347 1.317 . S
C1351 H1362 0.930 . S
C1352 C1346 1.412 1_565 S
C1352 C1353 1.355 1_565 S
C1352 H1364 0.930 . S
C1353 C1352 1.355 1_545 S
C1353 C1355 1.402 . S
C1353 H1365 0.930 . S
N1354 Gd1345 2.661 . S
N1354 C1349 1.350 . S
N1354 C1355 1.307 . S
C1355 C1353 1.402 . S
C1355 N1354 1.307 . S
C1355 H1356 0.930 . S
H1356 C1355 0.930 . S
C1357 N1358 1.334 . S
C1357 C1359 1.394 . S
C1357 H1361 0.930 . S
N1358 Gd1345 2.601 . S
N1358 C1348 1.359 . S
N1358 C1357 1.334 . S
C1359 C1357 1.394 . S
C1359 C1360 1.359 . S
C1359 H1371 0.930 . S
C1360 C1350 1.391 . S
C1360 C1359 1.359 . S
C1360 H1372 0.929 . S
H1361 C1357 0.930 . S
H1362 C1351 0.930 . S
H1363 C1380 0.930 . S
H1364 C1352 0.930 . S
H1365 C1353 0.930 . S
H1366 C1347 0.929 . S
H1367 C1385 0.930 . S
H1368 C1376 0.930 . S
H1369 C1377 0.930 . S
H1370 C1401 0.929 . S
H1371 C1359 0.930 . S
H1372 C1360 0.929 . S
H1373 C1402 0.930 . S
H1374 C1383 0.930 . S
N1375 Gd1344 2.661 . S
N1375 C1379 1.350 . S
N1375 C1380 1.307 . S
C1376 H1368 0.930 . S
C1376 C1377 1.355 . S
C1376 C1378 1.412 . S
C1377 H1369 0.930 . S
C1377 C1376 1.355 . S
C1377 C1380 1.402 1_455 S
C1378 C1376 1.412 . S
C1378 C1379 1.417 1_455 S
C1378 C1402 1.431 . S
C1379 N1375 1.350 . S
C1379 C1378 1.417 1_655 S
C1379 C1382 1.426 . S
C1380 H1363 0.930 . S
C1380 N1375 1.307 . S
C1380 C1377 1.402 1_655 S
N1381 Gd1344 2.601 . S
N1381 C1382 1.359 . S
N1381 C1385 1.334 . S
C1382 C1379 1.426 . S
C1382 N1381 1.359 . S
C1382 C1386 1.413 1_655 S
C1383 H1374 0.930 . S
C1383 C1384 1.359 1_655 S
C1383 C1385 1.394 . S
C1384 C1383 1.359 1_455 S
C1384 C1386 1.391 . S
C1384 H1387 0.929 . S
C1385 H1367 0.930 . S
C1385 N1381 1.334 . S
C1385 C1383 1.394 . S
C1386 C1382 1.413 1_455 S
C1386 C1384 1.391 . S
C1386 C1401 1.437 . S
H1387 C1384 0.929 . S
O1388 Gd1344 2.545 . S
O1388 C1403 1.258 1_655 S
O1389 Gd1344 2.606 . S
O1389 Gd1345 2.362 . S
O1389 C1400 1.284 . S
O1390 Gd1345 2.324 . S
O1390 C1410 1.254 . S
O1391 Gd1344 2.429 . S
O1391 C1410 1.268 . S
O1392 Gd1344 2.545 . S
O1392 C1400 1.250 . S
O1393 Gd1344 2.412 1_455 S
O1393 C1403 1.252 . S
O1394 Gd1345 2.545 . S
O1394 C1412 1.258 . S
O1395 Gd1344 2.362 . S
O1395 Gd1345 2.606 . S
O1395 C1411 1.284 . S
O1396 Gd1344 2.324 . S
O1396 C1419 1.254 . S
O1397 Gd1345 2.429 . S
O1397 C1419 1.268 . S
O1398 Gd1345 2.545 . S
O1398 C1411 1.250 . S
O1399 Gd1345 2.412 . S
O1399 C1412 1.252 . S
C1400 O1389 1.284 . S
C1400 O1392 1.250 . S
C1401 H1370 0.929 . S
C1401 C1386 1.437 . S
C1401 C1402 1.317 . S
C1402 H1373 0.930 . S
C1402 C1378 1.431 . S
C1402 C1401 1.317 . S
C1403 Gd1344 2.828 1_455 S
C1403 O1388 1.258 1_455 S
C1403 O1393 1.252 . S
C1403 C1404 1.497 . S
C1404 C1403 1.497 . S
C1404 C1405 1.395 . S
C1404 C1406 1.380 . S
C1405 C1404 1.395 . S
C1405 C1408 1.398 . S
C1405 H1420 0.930 . S
C1406 C1404 1.380 . S
C1406 C1407 1.391 . S
C1406 H1421 0.930 . S
C1407 C1406 1.391 . S
C1407 C1409 1.387 . S
C1408 C1405 1.398 . S
C1408 C1409 1.380 . S
C1408 H1422 0.930 . S
C1409 C1407 1.387 . S
C1409 C1408 1.380 . S
C1409 H1423 0.930 . S
C1410 O1390 1.254 . S
C1410 O1391 1.268 . S
C1411 O1395 1.284 . S
C1411 O1398 1.250 . S
C1412 Gd1345 2.828 . S
C1412 O1394 1.258 . S
C1412 O1399 1.252 . S
C1412 C1413 1.497 . S
C1413 C1412 1.497 . S
C1413 C1414 1.395 . S
C1413 C1415 1.380 . S
C1414 C1413 1.395 . S
C1414 C1417 1.398 . S
C1414 H1424 0.930 . S
C1415 C1413 1.380 . S
C1415 C1416 1.391 . S
C1415 H1425 0.930 . S
C1416 C1415 1.391 . S
C1416 C1418 1.387 . S
C1417 C1414 1.398 . S
C1417 C1418 1.380 . S
C1417 H1426 0.930 . S
C1418 C1416 1.387 . S
C1418 C1417 1.380 . S
C1418 H1427 0.930 . S
C1419 O1396 1.254 . S
C1419 O1397 1.268 . S
H1420 C1405 0.930 . S
H1421 C1406 0.930 . S
H1422 C1408 0.930 . S
H1423 C1409 0.930 . S
H1424 C1414 0.930 . S
H1425 C1415 0.930 . S
H1426 C1417 0.930 . S
H1427 C1418 0.930 . S
Gd1428 N1459 2.661 . S
Gd1428 N1465 2.601 . S
Gd1428 O1472 2.545 . S
Gd1428 O1473 2.606 . S
Gd1428 O1475 2.429 . S
Gd1428 O1476 2.545 . S
Gd1428 O1477 2.412 . S
Gd1428 O1479 2.362 . S
Gd1428 O1480 2.324 . S
Gd1428 C1487 2.828 . S
Gd1429 N1438 2.661 . S
Gd1429 N1442 2.601 . S
Gd1429 O1473 2.362 . S
Gd1429 O1474 2.324 . S
Gd1429 O1478 2.545 . S
Gd1429 O1479 2.606 . S
Gd1429 O1481 2.429 . S
Gd1429 O1482 2.545 . S
Gd1429 O1483 2.412 . S
Gd1429 C1496 2.828 . S
C1430 C1433 1.417 1_455 S
C1430 C1435 1.431 . S
C1430 C1436 1.412 . S
C1431 C1434 1.437 . S
C1431 C1435 1.317 . S
C1431 H1450 0.929 . S
C1432 C1433 1.426 . S
C1432 C1434 1.413 1_655 S
C1432 N1442 1.359 . S
C1433 C1430 1.417 1_655 S
C1433 C1432 1.426 . S
C1433 N1438 1.350 . S
C1434 C1431 1.437 . S
C1434 C1432 1.413 1_455 S
C1434 C1444 1.391 1_455 S
C1435 C1430 1.431 . S
C1435 C1431 1.317 . S
C1435 H1446 0.930 . S
C1436 C1430 1.412 . S
C1436 C1437 1.355 . S
C1436 H1448 0.930 . S
C1437 C1436 1.355 . S
C1437 C1439 1.402 1_455 S
C1437 H1449 0.930 . S
N1438 Gd1429 2.661 . S
N1438 C1433 1.350 . S
N1438 C1439 1.307 . S
C1439 C1437 1.402 1_655 S
C1439 N1438 1.307 . S
C1439 H1440 0.930 . S
H1440 C1439 0.930 . S
C1441 N1442 1.334 . S
C1441 C1443 1.394 . S
C1441 H1445 0.930 . S
N1442 Gd1429 2.601 . S
N1442 C1432 1.359 . S
N1442 C1441 1.334 . S
C1443 C1441 1.394 . S
C1443 C1444 1.359 . S
C1443 H1455 0.930 . S
C1444 C1434 1.391 1_655 S
C1444 C1443 1.359 . S
C1444 H1456 0.929 1_655 S
H1445 C1441 0.930 . S
H1446 C1435 0.930 . S
H1447 C1464 0.930 . S
H1448 C1436 0.930 . S
H1449 C1437 0.930 . S
H1450 C1431 0.929 . S
H1451 C1469 0.930 . S
H1452 C1460 0.930 . S
H1453 C1461 0.930 . S
H1454 C1485 0.929 . S
H1455 C1443 0.930 . S
H1456 C1444 0.929 1_455 S
H1457 C1486 0.930 . S
H1458 C1467 0.930 . S
N1459 Gd1428 2.661 . S
N1459 C1463 1.350 . S
N1459 C1464 1.307 . S
C1460 H1452 0.930 . S
C1460 C1461 1.355 . S
C1460 C1462 1.412 . S
C1461 H1453 0.930 . S
C1461 C1460 1.355 . S
C1461 C1464 1.402 . S
C1462 C1460 1.412 . S
C1462 C1463 1.417 . S
C1462 C1486 1.431 . S
C1463 N1459 1.350 . S
C1463 C1462 1.417 . S
C1463 C1466 1.426 . S
C1464 H1447 0.930 . S
C1464 N1459 1.307 . S
C1464 C1461 1.402 . S
N1465 Gd1428 2.601 . S
N1465 C1466 1.359 . S
N1465 C1469 1.334 . S
C1466 C1463 1.426 . S
C1466 N1465 1.359 . S
C1466 C1470 1.413 . S
C1467 H1458 0.930 . S
C1467 C1468 1.359 . S
C1467 C1469 1.394 . S
C1468 C1467 1.359 . S
C1468 C1470 1.391 . S
C1468 H1471 0.929 . S
C1469 H1451 0.930 . S
C1469 N1465 1.334 . S
C1469 C1467 1.394 . S
C1470 C1466 1.413 . S
C1470 C1468 1.391 . S
C1470 C1485 1.437 . S
H1471 C1468 0.929 . S
O1472 Gd1428 2.545 . S
O1472 C1487 1.258 . S
O1473 Gd1428 2.606 . S
O1473 Gd1429 2.362 . S
O1473 C1484 1.284 . S
O1474 Gd1429 2.324 . S
O1474 C1494 1.254 . S
O1475 Gd1428 2.429 . S
O1475 C1494 1.268 . S
O1476 Gd1428 2.545 . S
O1476 C1484 1.250 . S
O1477 Gd1428 2.412 . S
O1477 C1487 1.252 . S
O1478 Gd1429 2.545 . S
O1478 C1496 1.258 . S
O1479 Gd1428 2.362 . S
O1479 Gd1429 2.606 . S
O1479 C1495 1.284 . S
O1480 Gd1428 2.324 . S
O1480 C1503 1.254 . S
O1481 Gd1429 2.429 . S
O1481 C1503 1.268 . S
O1482 Gd1429 2.545 . S
O1482 C1495 1.250 . S
O1483 Gd1429 2.412 . S
O1483 C1496 1.252 . S
C1484 O1473 1.284 . S
C1484 O1476 1.250 . S
C1485 H1454 0.929 . S
C1485 C1470 1.437 . S
C1485 C1486 1.317 . S
C1486 H1457 0.930 . S
C1486 C1462 1.431 . S
C1486 C1485 1.317 . S
C1487 Gd1428 2.828 . S
C1487 O1472 1.258 . S
C1487 O1477 1.252 . S
C1487 C1488 1.497 . S
C1488 C1487 1.497 . S
C1488 C1489 1.395 . S
C1488 C1490 1.380 . S
C1489 C1488 1.395 . S
C1489 C1492 1.398 . S
C1489 H1504 0.930 . S
C1490 C1488 1.380 . S
C1490 C1491 1.391 . S
C1490 H1505 0.930 . S
C1491 C1490 1.391 . S
C1491 C1493 1.387 . S
C1492 C1489 1.398 . S
C1492 C1493 1.380 . S
C1492 H1506 0.930 . S
C1493 C1491 1.387 . S
C1493 C1492 1.380 . S
C1493 H1507 0.930 . S
C1494 O1474 1.254 . S
C1494 O1475 1.268 . S
C1495 O1479 1.284 . S
C1495 O1482 1.250 . S
C1496 Gd1429 2.828 . S
C1496 O1478 1.258 . S
C1496 O1483 1.252 . S
C1496 C1497 1.497 . S
C1497 C1496 1.497 . S
C1497 C1498 1.395 . S
C1497 C1499 1.380 . S
C1498 C1497 1.395 . S
C1498 C1501 1.398 . S
C1498 H1508 0.930 . S
C1499 C1497 1.380 . S
C1499 C1500 1.391 . S
C1499 H1509 0.930 . S
C1500 C1499 1.391 . S
C1500 C1502 1.387 . S
C1501 C1498 1.398 . S
C1501 C1502 1.380 . S
C1501 H1510 0.930 . S
C1502 C1500 1.387 . S
C1502 C1501 1.380 . S
C1502 H1511 0.930 . S
C1503 O1480 1.254 . S
C1503 O1481 1.268 . S
H1504 C1489 0.930 . S
H1505 C1490 0.930 . S
H1506 C1492 0.930 . S
H1507 C1493 0.930 . S
H1508 C1498 0.930 . S
H1509 C1499 0.930 . S
H1510 C1501 0.930 . S
H1511 C1502 0.930 . S
H1512 C1518 0.930 . S
H1513 C1521 0.930 . S
H1514 C1522 0.930 . S
H1515 C1523 0.930 . S
H1516 C1526 0.930 . S
H1517 C1527 0.930 . S
C1518 H1512 0.930 . S
C1518 C1519 1.355 . S
C1518 C1520 1.415 . S
C1519 C1518 1.355 . S
C1519 C1521 1.419 . S
C1520 C1518 1.415 . S
C1520 C1525 1.425 . S
C1520 C1527 1.409 . S
C1521 H1513 0.930 . S
C1521 C1519 1.419 . S
C1521 C1522 1.362 . S
C1522 H1514 0.930 . S
C1522 C1521 1.362 . S
C1522 C1525 1.409 . S
C1523 H1515 0.930 . S
C1523 C1524 1.355 . S
C1523 C1525 1.415 . S
C1524 C1523 1.355 . S
C1524 C1526 1.419 . S
C1525 C1520 1.425 . S
C1525 C1522 1.409 . S
C1525 C1523 1.415 . S
C1526 H1516 0.930 . S
C1526 C1524 1.419 . S
C1526 C1527 1.362 . S
C1527 H1517 0.930 . S
C1527 C1520 1.409 . S
C1527 C1526 1.362 . S
H1528 C1534 0.930 . S
H1529 C1537 0.930 . S
H1530 C1538 0.930 . S
H1531 C1539 0.930 . S
H1532 C1542 0.930 . S
H1533 C1543 0.930 . S
C1534 H1528 0.930 . S
C1534 C1535 1.355 . S
C1534 C1536 1.415 . S
C1535 C1534 1.355 . S
C1535 C1537 1.419 . S
C1536 C1534 1.415 . S
C1536 C1541 1.425 . S
C1536 C1543 1.409 . S
C1537 H1529 0.930 . S
C1537 C1535 1.419 . S
C1537 C1538 1.362 . S
C1538 H1530 0.930 . S
C1538 C1537 1.362 . S
C1538 C1541 1.409 . S
C1539 H1531 0.930 . S
C1539 C1540 1.355 . S
C1539 C1541 1.415 . S
C1540 C1539 1.355 . S
C1540 C1542 1.419 . S
C1541 C1536 1.425 . S
C1541 C1538 1.409 . S
C1541 C1539 1.415 . S
C1542 H1532 0.930 . S
C1542 C1540 1.419 . S
C1542 C1543 1.362 . S
C1543 H1533 0.930 . S
C1543 C1536 1.409 . S
C1543 C1542 1.362 . S
H1544 C1550 0.930 . S
H1545 C1553 0.930 . S
H1546 C1554 0.930 . S
H1547 C1555 0.930 . S
H1548 C1558 0.930 . S
H1549 C1559 0.930 . S
C1550 H1544 0.930 . S
C1550 C1551 1.355 . S
C1550 C1552 1.415 . S
C1551 C1550 1.355 . S
C1551 C1553 1.419 . S
C1552 C1550 1.415 . S
C1552 C1557 1.425 . S
C1552 C1559 1.409 . S
C1553 H1545 0.930 . S
C1553 C1551 1.419 . S
C1553 C1554 1.362 . S
C1554 H1546 0.930 . S
C1554 C1553 1.362 . S
C1554 C1557 1.409 . S
C1555 H1547 0.930 . S
C1555 C1556 1.355 . S
C1555 C1557 1.415 . S
C1556 C1555 1.355 . S
C1556 C1558 1.419 . S
C1557 C1552 1.425 . S
C1557 C1554 1.409 . S
C1557 C1555 1.415 . S
C1558 H1548 0.930 . S
C1558 C1556 1.419 . S
C1558 C1559 1.362 . S
C1559 H1549 0.930 . S
C1559 C1552 1.409 . S
C1559 C1558 1.362 . S
H1560 C1566 0.930 . S
H1561 C1569 0.930 . S
H1562 C1570 0.930 . S
H1563 C1571 0.930 . S
H1564 C1574 0.930 . S
H1565 C1575 0.930 . S
C1566 H1560 0.930 . S
C1566 C1567 1.355 . S
C1566 C1568 1.415 . S
C1567 C1566 1.355 . S
C1567 C1569 1.419 . S
C1568 C1566 1.415 . S
C1568 C1573 1.425 . S
C1568 C1575 1.409 . S
C1569 H1561 0.930 . S
C1569 C1567 1.419 . S
C1569 C1570 1.362 . S
C1570 H1562 0.930 . S
C1570 C1569 1.362 . S
C1570 C1573 1.409 . S
C1571 H1563 0.930 . S
C1571 C1572 1.355 . S
C1571 C1573 1.415 . S
C1572 C1571 1.355 . S
C1572 C1574 1.419 . S
C1573 C1568 1.425 . S
C1573 C1570 1.409 . S
C1573 C1571 1.415 . S
C1574 H1564 0.930 . S
C1574 C1572 1.419 . S
C1574 C1575 1.362 . S
C1575 H1565 0.930 . S
C1575 C1568 1.409 . S
C1575 C1574 1.362 . S
H1576 C1582 0.930 . S
H1577 C1585 0.930 . S
H1578 C1586 0.930 . S
H1579 C1587 0.930 . S
H1580 C1590 0.930 . S
H1581 C1591 0.930 . S
C1582 H1576 0.930 . S
C1582 C1583 1.355 . S
C1582 C1584 1.415 . S
C1583 C1582 1.355 . S
C1583 C1585 1.419 . S
C1584 C1582 1.415 . S
C1584 C1589 1.425 . S
C1584 C1591 1.409 . S
C1585 H1577 0.930 . S
C1585 C1583 1.419 . S
C1585 C1586 1.362 . S
C1586 H1578 0.930 . S
C1586 C1585 1.362 . S
C1586 C1589 1.409 . S
C1587 H1579 0.930 . S
C1587 C1588 1.355 . S
C1587 C1589 1.415 . S
C1588 C1587 1.355 . S
C1588 C1590 1.419 . S
C1589 C1584 1.425 . S
C1589 C1586 1.409 . S
C1589 C1587 1.415 . S
C1590 H1580 0.930 . S
C1590 C1588 1.419 . S
C1590 C1591 1.362 . S
C1591 H1581 0.930 . S
C1591 C1584 1.409 . S
C1591 C1590 1.362 . S
H1592 C1598 0.930 . S
H1593 C1601 0.930 . S
H1594 C1602 0.930 . S
H1595 C1603 0.930 . S
H1596 C1606 0.930 . S
H1597 C1607 0.930 . S
C1598 H1592 0.930 . S
C1598 C1599 1.355 . S
C1598 C1600 1.415 . S
C1599 C1598 1.355 . S
C1599 C1601 1.419 . S
C1600 C1598 1.415 . S
C1600 C1605 1.425 . S
C1600 C1607 1.409 . S
C1601 H1593 0.930 . S
C1601 C1599 1.419 . S
C1601 C1602 1.362 . S
C1602 H1594 0.930 . S
C1602 C1601 1.362 . S
C1602 C1605 1.409 . S
C1603 H1595 0.930 . S
C1603 C1604 1.355 . S
C1603 C1605 1.415 . S
C1604 C1603 1.355 . S
C1604 C1606 1.419 . S
C1605 C1600 1.425 . S
C1605 C1602 1.409 . S
C1605 C1603 1.415 . S
C1606 H1596 0.930 . S
C1606 C1604 1.419 . S
C1606 C1607 1.362 . S
C1607 H1597 0.930 . S
C1607 C1600 1.409 . S
C1607 C1606 1.362 . S
H1608 C1614 0.930 . S
H1609 C1617 0.930 . S
H1610 C1618 0.930 . S
H1611 C1619 0.930 . S
H1612 C1622 0.930 . S
H1613 C1623 0.930 . S
C1614 H1608 0.930 . S
C1614 C1615 1.355 . S
C1614 C1616 1.415 . S
C1615 C1614 1.355 . S
C1615 C1617 1.419 . S
C1616 C1614 1.415 . S
C1616 C1621 1.425 . S
C1616 C1623 1.409 . S
C1617 H1609 0.930 . S
C1617 C1615 1.419 . S
C1617 C1618 1.362 . S
C1618 H1610 0.930 . S
C1618 C1617 1.362 . S
C1618 C1621 1.409 . S
C1619 H1611 0.930 . S
C1619 C1620 1.355 . S
C1619 C1621 1.415 . S
C1620 C1619 1.355 . S
C1620 C1622 1.419 . S
C1621 C1616 1.425 . S
C1621 C1618 1.409 . S
C1621 C1619 1.415 . S
C1622 H1612 0.930 . S
C1622 C1620 1.419 . S
C1622 C1623 1.362 . S
C1623 H1613 0.930 . S
C1623 C1616 1.409 . S
C1623 C1622 1.362 . S
H1624 C1630 0.930 . S
H1625 C1633 0.930 . S
H1626 C1634 0.930 . S
H1627 C1635 0.930 . S
H1628 C1638 0.930 . S
H1629 C1639 0.930 . S
C1630 H1624 0.930 . S
C1630 C1631 1.355 . S
C1630 C1632 1.415 . S
C1631 C1630 1.355 . S
C1631 C1633 1.419 . S
C1632 C1630 1.415 . S
C1632 C1637 1.425 . S
C1632 C1639 1.409 1_545 S
C1633 H1625 0.930 . S
C1633 C1631 1.419 . S
C1633 C1634 1.362 . S
C1634 H1626 0.930 . S
C1634 C1633 1.362 . S
C1634 C1637 1.409 . S
C1635 H1627 0.930 . S
C1635 C1636 1.355 . S
C1635 C1637 1.415 1_565 S
C1636 C1635 1.355 . S
C1636 C1638 1.419 . S
C1637 C1632 1.425 . S
C1637 C1634 1.409 . S
C1637 C1635 1.415 1_545 S
C1638 H1628 0.930 . S
C1638 C1636 1.419 . S
C1638 C1639 1.362 . S
C1639 H1629 0.930 . S
C1639 C1632 1.409 1_565 S
C1639 C1638 1.362 . S
H1640 C1646 0.930 . S
H1641 C1649 0.930 . S
H1642 C1650 0.930 . S
H1643 C1651 0.930 . S
H1644 C1654 0.930 . S
H1645 C1655 0.930 . S
C1646 H1640 0.930 . S
C1646 C1647 1.355 . S
C1646 C1648 1.415 . S
C1647 C1646 1.355 . S
C1647 C1649 1.419 . S
C1648 C1646 1.415 . S
C1648 C1653 1.425 . S
C1648 C1655 1.409 . S
C1649 H1641 0.930 . S
C1649 C1647 1.419 . S
C1649 C1650 1.362 . S
C1650 H1642 0.930 . S
C1650 C1649 1.362 . S
C1650 C1653 1.409 . S
C1651 H1643 0.930 . S
C1651 C1652 1.355 . S
C1651 C1653 1.415 1_655 S
C1652 C1651 1.355 . S
C1652 C1654 1.419 . S
C1653 C1648 1.425 . S
C1653 C1650 1.409 . S
C1653 C1651 1.415 1_455 S
C1654 H1644 0.930 . S
C1654 C1652 1.419 . S
C1654 C1655 1.362 1_655 S
C1655 H1645 0.930 . S
C1655 C1648 1.409 . S
C1655 C1654 1.362 1_455 S
H1656 C1662 0.930 . S
H1657 C1665 0.930 . S
H1658 C1666 0.930 . S
H1659 C1667 0.930 . S
H1660 C1670 0.930 . S
H1661 C1671 0.930 . S
C1662 H1656 0.930 . S
C1662 C1663 1.355 . S
C1662 C1664 1.415 . S
C1663 C1662 1.355 . S
C1663 C1665 1.419 . S
C1664 C1662 1.415 . S
C1664 C1669 1.425 . S
C1664 C1671 1.409 . S
C1665 H1657 0.930 . S
C1665 C1663 1.419 . S
C1665 C1666 1.362 . S
C1666 H1658 0.930 . S
C1666 C1665 1.362 . S
C1666 C1669 1.409 . S
C1667 H1659 0.930 . S
C1667 C1668 1.355 . S
C1667 C1669 1.415 . S
C1668 C1667 1.355 . S
C1668 C1670 1.419 . S
C1669 C1664 1.425 . S
C1669 C1666 1.409 . S
C1669 C1667 1.415 . S
C1670 H1660 0.930 . S
C1670 C1668 1.419 . S
C1670 C1671 1.362 . S
C1671 H1661 0.930 . S
C1671 C1664 1.409 . S
C1671 C1670 1.362 . S
H1672 C1678 0.930 . S
H1673 C1681 0.930 . S
H1674 C1682 0.930 . S
H1675 C1683 0.930 . S
H1676 C1686 0.930 . S
H1677 C1687 0.930 . S
C1678 H1672 0.930 . S
C1678 C1679 1.355 . S
C1678 C1680 1.415 . S
C1679 C1678 1.355 . S
C1679 C1681 1.419 . S
C1680 C1678 1.415 . S
C1680 C1685 1.425 . S
C1680 C1687 1.409 . S
C1681 H1673 0.930 . S
C1681 C1679 1.419 . S
C1681 C1682 1.362 . S
C1682 H1674 0.930 . S
C1682 C1681 1.362 . S
C1682 C1685 1.409 . S
C1683 H1675 0.930 . S
C1683 C1684 1.355 . S
C1683 C1685 1.415 . S
C1684 C1683 1.355 . S
C1684 C1686 1.419 . S
C1685 C1680 1.425 . S
C1685 C1682 1.409 . S
C1685 C1683 1.415 . S
C1686 H1676 0.930 . S
C1686 C1684 1.419 . S
C1686 C1687 1.362 . S
C1687 H1677 0.930 . S
C1687 C1680 1.409 . S
C1687 C1686 1.362 . S
H1688 C1694 0.930 . S
H1689 C1697 0.930 . S
H1690 C1698 0.930 . S
H1691 C1699 0.930 . S
H1692 C1702 0.930 . S
H1693 C1703 0.930 . S
C1694 H1688 0.930 . S
C1694 C1695 1.355 . S
C1694 C1696 1.415 . S
C1695 C1694 1.355 . S
C1695 C1697 1.419 . S
C1696 C1694 1.415 . S
C1696 C1701 1.425 . S
C1696 C1703 1.409 . S
C1697 H1689 0.930 . S
C1697 C1695 1.419 . S
C1697 C1698 1.362 . S
C1698 H1690 0.930 . S
C1698 C1697 1.362 . S
C1698 C1701 1.409 . S
C1699 H1691 0.930 . S
C1699 C1700 1.355 . S
C1699 C1701 1.415 . S
C1700 C1699 1.355 . S
C1700 C1702 1.419 . S
C1701 C1696 1.425 . S
C1701 C1698 1.409 . S
C1701 C1699 1.415 . S
C1702 H1692 0.930 . S
C1702 C1700 1.419 . S
C1702 C1703 1.362 . S
C1703 H1693 0.930 . S
C1703 C1696 1.409 . S
C1703 C1702 1.362 . S
H1704 C1710 0.930 . S
H1705 C1713 0.930 . S
H1706 C1714 0.930 . S
H1707 C1715 0.930 . S
H1708 C1718 0.930 . S
H1709 C1719 0.930 . S
C1710 H1704 0.930 . S
C1710 C1711 1.355 . S
C1710 C1712 1.415 . S
C1711 C1710 1.355 . S
C1711 C1713 1.419 . S
C1712 C1710 1.415 . S
C1712 C1717 1.425 . S
C1712 C1719 1.409 . S
C1713 H1705 0.930 . S
C1713 C1711 1.419 . S
C1713 C1714 1.362 . S
C1714 H1706 0.930 . S
C1714 C1713 1.362 . S
C1714 C1717 1.409 . S
C1715 H1707 0.930 . S
C1715 C1716 1.355 . S
C1715 C1717 1.415 . S
C1716 C1715 1.355 . S
C1716 C1718 1.419 . S
C1717 C1712 1.425 . S
C1717 C1714 1.409 . S
C1717 C1715 1.415 . S
C1718 H1708 0.930 . S
C1718 C1716 1.419 . S
C1718 C1719 1.362 . S
C1719 H1709 0.930 . S
C1719 C1712 1.409 . S
C1719 C1718 1.362 . S
H1720 C1726 0.930 . S
H1721 C1729 0.930 . S
H1722 C1730 0.930 . S
H1723 C1731 0.930 . S
H1724 C1734 0.930 . S
H1725 C1735 0.930 . S
C1726 H1720 0.930 . S
C1726 C1727 1.355 . S
C1726 C1728 1.415 . S
C1727 C1726 1.355 . S
C1727 C1729 1.419 . S
C1728 C1726 1.415 . S
C1728 C1733 1.425 . S
C1728 C1735 1.409 . S
C1729 H1721 0.930 . S
C1729 C1727 1.419 . S
C1729 C1730 1.362 . S
C1730 H1722 0.930 . S
C1730 C1729 1.362 . S
C1730 C1733 1.409 . S
C1731 H1723 0.930 . S
C1731 C1732 1.355 . S
C1731 C1733 1.415 . S
C1732 C1731 1.355 . S
C1732 C1734 1.419 . S
C1733 C1728 1.425 . S
C1733 C1730 1.409 . S
C1733 C1731 1.415 . S
C1734 H1724 0.930 . S
C1734 C1732 1.419 . S
C1734 C1735 1.362 . S
C1735 H1725 0.930 . S
C1735 C1728 1.409 . S
C1735 C1734 1.362 . S
H1736 C1742 0.930 . S
H1737 C1745 0.930 . S
H1738 C1746 0.930 . S
H1739 C1747 0.930 . S
H1740 C1750 0.930 . S
H1741 C1751 0.930 . S
C1742 H1736 0.930 . S
C1742 C1743 1.355 . S
C1742 C1744 1.415 . S
C1743 C1742 1.355 . S
C1743 C1745 1.419 . S
C1744 C1742 1.415 . S
C1744 C1749 1.425 . S
C1744 C1751 1.409 . S
C1745 H1737 0.930 . S
C1745 C1743 1.419 . S
C1745 C1746 1.362 . S
C1746 H1738 0.930 . S
C1746 C1745 1.362 . S
C1746 C1749 1.409 . S
C1747 H1739 0.930 . S
C1747 C1748 1.355 . S
C1747 C1749 1.415 . S
C1748 C1747 1.355 . S
C1748 C1750 1.419 . S
C1749 C1744 1.425 . S
C1749 C1746 1.409 . S
C1749 C1747 1.415 . S
C1750 H1740 0.930 . S
C1750 C1748 1.419 . S
C1750 C1751 1.362 . S
C1751 H1741 0.930 . S
C1751 C1744 1.409 . S
C1751 C1750 1.362 . S
H1752 C1758 0.930 . S
H1753 C1761 0.930 . S
H1754 C1762 0.930 . S
H1755 C1763 0.930 . S
H1756 C1766 0.930 . S
H1757 C1767 0.930 . S
C1758 H1752 0.930 . S
C1758 C1759 1.355 . S
C1758 C1760 1.415 . S
C1759 C1758 1.355 . S
C1759 C1761 1.419 . S
C1760 C1758 1.415 . S
C1760 C1765 1.425 . S
C1760 C1767 1.409 . S
C1761 H1753 0.930 . S
C1761 C1759 1.419 . S
C1761 C1762 1.362 . S
C1762 H1754 0.930 . S
C1762 C1761 1.362 . S
C1762 C1765 1.409 . S
C1763 H1755 0.930 . S
C1763 C1764 1.355 . S
C1763 C1765 1.415 . S
C1764 C1763 1.355 . S
C1764 C1766 1.419 . S
C1765 C1760 1.425 . S
C1765 C1762 1.409 . S
C1765 C1763 1.415 . S
C1766 H1756 0.930 . S
C1766 C1764 1.419 . S
C1766 C1767 1.362 . S
C1767 H1757 0.930 . S
C1767 C1760 1.409 . S
C1767 C1766 1.362 . S
H1768 C1774 0.930 . S
H1769 C1777 0.930 . S
H1770 C1778 0.930 . S
H1771 C1779 0.930 . S
H1772 C1782 0.930 . S
H1773 C1783 0.930 . S
C1774 H1768 0.930 . S
C1774 C1775 1.355 . S
C1774 C1776 1.415 1_565 S
C1775 C1774 1.355 . S
C1775 C1777 1.419 . S
C1776 C1774 1.415 1_545 S
C1776 C1781 1.425 . S
C1776 C1783 1.409 . S
C1777 H1769 0.930 . S
C1777 C1775 1.419 . S
C1777 C1778 1.362 . S
C1778 H1770 0.930 . S
C1778 C1777 1.362 . S
C1778 C1781 1.409 1_565 S
C1779 H1771 0.930 . S
C1779 C1780 1.355 . S
C1779 C1781 1.415 . S
C1780 C1779 1.355 . S
C1780 C1782 1.419 . S
C1781 C1776 1.425 . S
C1781 C1778 1.409 1_545 S
C1781 C1779 1.415 . S
C1782 H1772 0.930 . S
C1782 C1780 1.419 . S
C1782 C1783 1.362 . S
C1783 H1773 0.930 . S
C1783 C1776 1.409 . S
C1783 C1782 1.362 . S
H1784 C1790 0.930 . S
H1785 C1793 0.930 . S
H1786 C1794 0.930 . S
H1787 C1795 0.930 . S
H1788 C1798 0.930 . S
H1789 C1799 0.930 . S
C1790 H1784 0.930 . S
C1790 C1791 1.355 . S
C1790 C1792 1.415 . S
C1791 C1790 1.355 . S
C1791 C1793 1.419 . S
C1792 C1790 1.415 . S
C1792 C1797 1.425 . S
C1792 C1799 1.409 1_455 S
C1793 H1785 0.930 . S
C1793 C1791 1.419 . S
C1793 C1794 1.362 . S
C1794 H1786 0.930 . S
C1794 C1793 1.362 . S
C1794 C1797 1.409 . S
C1795 H1787 0.930 . S
C1795 C1796 1.355 . S
C1795 C1797 1.415 1_655 S
C1796 C1795 1.355 . S
C1796 C1798 1.419 . S
C1797 C1792 1.425 . S
C1797 C1794 1.409 . S
C1797 C1795 1.415 1_455 S
C1798 H1788 0.930 . S
C1798 C1796 1.419 . S
C1798 C1799 1.362 . S
C1799 H1789 0.930 . S
C1799 C1792 1.409 1_655 S
C1799 C1798 1.362 . S
H1800 C1806 0.930 . S
H1801 C1809 0.930 1_565 S
H1802 C1810 0.930 . S
H1803 C1811 0.930 . S
H1804 C1814 0.930 . S
H1805 C1815 0.930 . S
C1806 H1800 0.930 . S
C1806 C1807 1.355 . S
C1806 C1808 1.415 . S
C1807 C1806 1.355 . S
C1807 C1809 1.419 . S
C1808 C1806 1.415 . S
C1808 C1813 1.425 1_554 S
C1808 C1815 1.409 1_554 S
C1809 H1801 0.930 1_545 S
C1809 C1807 1.419 . S
C1809 C1810 1.362 1_545 S
C1810 H1802 0.930 . S
C1810 C1809 1.362 1_565 S
C1810 C1813 1.409 1_564 S
C1811 H1803 0.930 . S
C1811 C1812 1.355 1_565 S
C1811 C1813 1.415 1_565 S
C1812 C1811 1.355 1_545 S
C1812 C1814 1.419 . S
C1813 C1808 1.425 1_556 S
C1813 C1810 1.409 1_546 S
C1813 C1811 1.415 1_545 S
C1814 H1804 0.930 . S
C1814 C1812 1.419 . S
C1814 C1815 1.362 . S
C1815 H1805 0.930 . S
C1815 C1808 1.409 1_556 S
C1815 C1814 1.362 . S
H1816 C1822 0.930 . S
H1817 C1825 0.930 . S
H1818 C1826 0.930 . S
H1819 C1827 0.930 . S
H1820 C1830 0.930 . S
H1821 C1831 0.930 . S
C1822 H1816 0.930 . S
C1822 C1823 1.355 . S
C1822 C1824 1.415 . S
C1823 C1822 1.355 . S
C1823 C1825 1.419 1_455 S
C1824 C1822 1.415 . S
C1824 C1829 1.425 1_556 S
C1824 C1831 1.409 1_556 S
C1825 H1817 0.930 . S
C1825 C1823 1.419 1_655 S
C1825 C1826 1.362 . S
C1826 H1818 0.930 . S
C1826 C1825 1.362 . S
C1826 C1829 1.409 1_656 S
C1827 H1819 0.930 . S
C1827 C1828 1.355 1_655 S
C1827 C1829 1.415 1_655 S
C1828 C1827 1.355 1_455 S
C1828 C1830 1.419 . S
C1829 C1824 1.425 1_554 S
C1829 C1826 1.409 1_454 S
C1829 C1827 1.415 1_455 S
C1830 H1820 0.930 . S
C1830 C1828 1.419 . S
C1830 C1831 1.362 . S
C1831 H1821 0.930 . S
C1831 C1824 1.409 1_554 S
C1831 C1830 1.362 . S
H1832 C1838 0.930 . S
H1833 C1841 0.930 . S
H1834 C1842 0.930 . S
H1835 C1843 0.930 . S
H1836 C1846 0.930 . S
H1837 C1847 0.930 . S
C1838 H1832 0.930 . S
C1838 C1839 1.355 . S
C1838 C1840 1.415 . S
C1839 C1838 1.355 . S
C1839 C1841 1.419 . S
C1840 C1838 1.415 . S
C1840 C1845 1.425 1_556 S
C1840 C1847 1.409 1_556 S
C1841 H1833 0.930 . S
C1841 C1839 1.419 . S
C1841 C1842 1.362 . S
C1842 H1834 0.930 . S
C1842 C1841 1.362 . S
C1842 C1845 1.409 1_556 S
C1843 H1835 0.930 . S
C1843 C1844 1.355 . S
C1843 C1845 1.415 . S
C1844 C1843 1.355 . S
C1844 C1846 1.419 . S
C1845 C1840 1.425 1_554 S
C1845 C1842 1.409 1_554 S
C1845 C1843 1.415 . S
C1846 H1836 0.930 . S
C1846 C1844 1.419 . S
C1846 C1847 1.362 . S
C1847 H1837 0.930 . S
C1847 C1840 1.409 1_554 S
C1847 C1846 1.362 . S
H1848 C1854 0.930 . S
H1849 C1857 0.930 . S
H1850 C1858 0.930 . S
H1851 C1859 0.930 . S
H1852 C1862 0.930 . S
H1853 C1863 0.930 . S
C1854 H1848 0.930 . S
C1854 C1855 1.355 . S
C1854 C1856 1.415 . S
C1855 C1854 1.355 . S
C1855 C1857 1.419 . S
C1856 C1854 1.415 . S
C1856 C1861 1.425 . S
C1856 C1863 1.409 . S
C1857 H1849 0.930 . S
C1857 C1855 1.419 . S
C1857 C1858 1.362 . S
C1858 H1850 0.930 . S
C1858 C1857 1.362 . S
C1858 C1861 1.409 . S
C1859 H1851 0.930 . S
C1859 C1860 1.355 . S
C1859 C1861 1.415 . S
C1860 C1859 1.355 . S
C1860 C1862 1.419 . S
C1861 C1856 1.425 . S
C1861 C1858 1.409 . S
C1861 C1859 1.415 . S
C1862 H1852 0.930 . S
C1862 C1860 1.419 . S
C1862 C1863 1.362 . S
C1863 H1853 0.930 . S
C1863 C1856 1.409 . S
C1863 C1862 1.362 . S
H1864 C1870 0.930 . S
H1865 C1873 0.930 . S
H1866 C1874 0.930 . S
H1867 C1875 0.930 . S
H1868 C1878 0.930 . S
H1869 C1879 0.930 . S
C1870 H1864 0.930 . S
C1870 C1871 1.355 . S
C1870 C1872 1.415 . S
C1871 C1870 1.355 . S
C1871 C1873 1.419 . S
C1872 C1870 1.415 . S
C1872 C1877 1.425 . S
C1872 C1879 1.409 . S
C1873 H1865 0.930 . S
C1873 C1871 1.419 . S
C1873 C1874 1.362 . S
C1874 H1866 0.930 . S
C1874 C1873 1.362 . S
C1874 C1877 1.409 . S
C1875 H1867 0.930 . S
C1875 C1876 1.355 . S
C1875 C1877 1.415 . S
C1876 C1875 1.355 . S
C1876 C1878 1.419 . S
C1877 C1872 1.425 . S
C1877 C1874 1.409 . S
C1877 C1875 1.415 . S
C1878 H1868 0.930 . S
C1878 C1876 1.419 . S
C1878 C1879 1.362 . S
C1879 H1869 0.930 . S
C1879 C1872 1.409 . S
C1879 C1878 1.362 . S
H1880 C1886 0.930 . S
H1881 C1889 0.930 . S
H1882 C1890 0.930 . S
H1883 C1891 0.930 . S
H1884 C1894 0.930 . S
H1885 C1895 0.930 . S
C1886 H1880 0.930 . S
C1886 C1887 1.355 . S
C1886 C1888 1.415 . S
C1887 C1886 1.355 . S
C1887 C1889 1.419 . S
C1888 C1886 1.415 . S
C1888 C1893 1.425 . S
C1888 C1895 1.409 . S
C1889 H1881 0.930 . S
C1889 C1887 1.419 . S
C1889 C1890 1.362 . S
C1890 H1882 0.930 . S
C1890 C1889 1.362 . S
C1890 C1893 1.409 . S
C1891 H1883 0.930 . S
C1891 C1892 1.355 . S
C1891 C1893 1.415 . S
C1892 C1891 1.355 . S
C1892 C1894 1.419 . S
C1893 C1888 1.425 . S
C1893 C1890 1.409 . S
C1893 C1891 1.415 . S
C1894 H1884 0.930 . S
C1894 C1892 1.419 . S
C1894 C1895 1.362 . S
C1895 H1885 0.930 . S
C1895 C1888 1.409 . S
C1895 C1894 1.362 . S
H1896 C1902 0.930 . S
H1897 C1905 0.930 . S
H1898 C1906 0.930 . S
H1899 C1907 0.930 . S
H1900 C1910 0.930 . S
H1901 C1911 0.930 . S
C1902 H1896 0.930 . S
C1902 C1903 1.355 . S
C1902 C1904 1.415 . S
C1903 C1902 1.355 . S
C1903 C1905 1.419 . S
C1904 C1902 1.415 . S
C1904 C1909 1.425 . S
C1904 C1911 1.409 . S
C1905 H1897 0.930 . S
C1905 C1903 1.419 . S
C1905 C1906 1.362 . S
C1906 H1898 0.930 . S
C1906 C1905 1.362 . S
C1906 C1909 1.409 . S
C1907 H1899 0.930 . S
C1907 C1908 1.355 . S
C1907 C1909 1.415 . S
C1908 C1907 1.355 . S
C1908 C1910 1.419 . S
C1909 C1904 1.425 . S
C1909 C1906 1.409 . S
C1909 C1907 1.415 . S
C1910 H1900 0.930 . S
C1910 C1908 1.419 . S
C1910 C1911 1.362 . S
C1911 H1901 0.930 . S
C1911 C1904 1.409 . S
C1911 C1910 1.362 . S
H1912 C1918 0.930 . S
H1913 C1921 0.930 . S
H1914 C1922 0.930 . S
H1915 C1923 0.930 . S
H1916 C1926 0.930 . S
H1917 C1927 0.930 . S
C1918 H1912 0.930 . S
C1918 C1919 1.355 . S
C1918 C1920 1.415 . S
C1919 C1918 1.355 . S
C1919 C1921 1.419 . S
C1920 C1918 1.415 . S
C1920 C1925 1.425 . S
C1920 C1927 1.409 . S
C1921 H1913 0.930 . S
C1921 C1919 1.419 . S
C1921 C1922 1.362 . S
C1922 H1914 0.930 . S
C1922 C1921 1.362 . S
C1922 C1925 1.409 . S
C1923 H1915 0.930 . S
C1923 C1924 1.355 . S
C1923 C1925 1.415 . S
C1924 C1923 1.355 . S
C1924 C1926 1.419 . S
C1925 C1920 1.425 . S
C1925 C1922 1.409 . S
C1925 C1923 1.415 . S
C1926 H1916 0.930 . S
C1926 C1924 1.419 . S
C1926 C1927 1.362 . S
C1927 H1917 0.930 . S
C1927 C1920 1.409 . S
C1927 C1926 1.362 . S
H1928 C1934 0.930 . S
H1929 C1937 0.930 . S
H1930 C1938 0.930 . S
H1931 C1939 0.930 . S
H1932 C1942 0.930 . S
H1933 C1943 0.930 . S
C1934 H1928 0.930 . S
C1934 C1935 1.355 . S
C1934 C1936 1.415 . S
C1935 C1934 1.355 . S
C1935 C1937 1.419 . S
C1936 C1934 1.415 . S
C1936 C1941 1.425 . S
C1936 C1943 1.409 . S
C1937 H1929 0.930 . S
C1937 C1935 1.419 . S
C1937 C1938 1.362 . S
C1938 H1930 0.930 . S
C1938 C1937 1.362 . S
C1938 C1941 1.409 . S
C1939 H1931 0.930 . S
C1939 C1940 1.355 . S
C1939 C1941 1.415 . S
C1940 C1939 1.355 . S
C1940 C1942 1.419 . S
C1941 C1936 1.425 . S
C1941 C1938 1.409 . S
C1941 C1939 1.415 . S
C1942 H1932 0.930 . S
C1942 C1940 1.419 . S
C1942 C1943 1.362 . S
C1943 H1933 0.930 . S
C1943 C1936 1.409 . S
C1943 C1942 1.362 . S
H1944 C1950 0.930 . S
H1945 C1953 0.930 . S
H1946 C1954 0.930 . S
H1947 C1955 0.930 . S
H1948 C1958 0.930 1_545 S
H1949 C1959 0.930 . S
C1950 H1944 0.930 . S
C1950 C1951 1.355 . S
C1950 C1952 1.415 . S
C1951 C1950 1.355 . S
C1951 C1953 1.419 . S
C1952 C1950 1.415 . S
C1952 C1957 1.425 . S
C1952 C1959 1.409 . S
C1953 H1945 0.930 . S
C1953 C1951 1.419 . S
C1953 C1954 1.362 . S
C1954 H1946 0.930 . S
C1954 C1953 1.362 . S
C1954 C1957 1.409 . S
C1955 H1947 0.930 . S
C1955 C1956 1.355 . S
C1955 C1957 1.415 . S
C1956 C1955 1.355 . S
C1956 C1958 1.419 . S
C1957 C1952 1.425 . S
C1957 C1954 1.409 . S
C1957 C1955 1.415 . S
C1958 H1948 0.930 1_565 S
C1958 C1956 1.419 . S
C1958 C1959 1.362 . S
C1959 H1949 0.930 . S
C1959 C1952 1.409 . S
C1959 C1958 1.362 . S
H1960 C1966 0.930 . S
H1961 C1969 0.930 . S
H1962 C1970 0.930 . S
H1963 C1971 0.930 . S
H1964 C1974 0.930 . S
H1965 C1975 0.930 . S
C1966 H1960 0.930 . S
C1966 C1967 1.355 . S
C1966 C1968 1.415 . S
C1967 C1966 1.355 . S
C1967 C1969 1.419 . S
C1968 C1966 1.415 . S
C1968 C1973 1.425 . S
C1968 C1975 1.409 . S
C1969 H1961 0.930 . S
C1969 C1967 1.419 . S
C1969 C1970 1.362 . S
C1970 H1962 0.930 . S
C1970 C1969 1.362 . S
C1970 C1973 1.409 . S
C1971 H1963 0.930 . S
C1971 C1972 1.355 . S
C1971 C1973 1.415 . S
C1972 C1971 1.355 . S
C1972 C1974 1.419 . S
C1973 C1968 1.425 . S
C1973 C1970 1.409 . S
C1973 C1971 1.415 . S
C1974 H1964 0.930 . S
C1974 C1972 1.419 . S
C1974 C1975 1.362 . S
C1975 H1965 0.930 . S
C1975 C1968 1.409 . S
C1975 C1974 1.362 . S
H1976 C1982 0.930 . S
H1977 C1985 0.930 . S
H1978 C1986 0.930 . S
H1979 C1987 0.930 . S
H1980 C1990 0.930 . S
H1981 C1991 0.930 . S
C1982 H1976 0.930 . S
C1982 C1983 1.355 . S
C1982 C1984 1.415 . S
C1983 C1982 1.355 . S
C1983 C1985 1.419 . S
C1984 C1982 1.415 . S
C1984 C1989 1.425 . S
C1984 C1991 1.409 . S
C1985 H1977 0.930 . S
C1985 C1983 1.419 . S
C1985 C1986 1.362 . S
C1986 H1978 0.930 . S
C1986 C1985 1.362 . S
C1986 C1989 1.409 . S
C1987 H1979 0.930 . S
C1987 C1988 1.355 . S
C1987 C1989 1.415 . S
C1988 C1987 1.355 . S
C1988 C1990 1.419 . S
C1989 C1984 1.425 . S
C1989 C1986 1.409 . S
C1989 C1987 1.415 . S
C1990 H1980 0.930 . S
C1990 C1988 1.419 . S
C1990 C1991 1.362 . S
C1991 H1981 0.930 . S
C1991 C1984 1.409 . S
C1991 C1990 1.362 . S
H1992 C1998 0.930 . S
H1993 C2001 0.930 . S
H1994 C2002 0.930 . S
H1995 C2003 0.930 . S
H1996 C2006 0.930 . S
H1997 C2007 0.930 . S
C1998 H1992 0.930 . S
C1998 C1999 1.355 . S
C1998 C2000 1.415 . S
C1999 C1998 1.355 . S
C1999 C2001 1.419 . S
C2000 C1998 1.415 . S
C2000 C2005 1.425 . S
C2000 C2007 1.409 . S
C2001 H1993 0.930 . S
C2001 C1999 1.419 . S
C2001 C2002 1.362 . S
C2002 H1994 0.930 . S
C2002 C2001 1.362 . S
C2002 C2005 1.409 . S
C2003 H1995 0.930 . S
C2003 C2004 1.355 . S
C2003 C2005 1.415 . S
C2004 C2003 1.355 . S
C2004 C2006 1.419 . S
C2005 C2000 1.425 . S
C2005 C2002 1.409 . S
C2005 C2003 1.415 . S
C2006 H1996 0.930 . S
C2006 C2004 1.419 . S
C2006 C2007 1.362 . S
C2007 H1997 0.930 . S
C2007 C2000 1.409 . S
C2007 C2006 1.362 . S
H2008 C2014 0.930 . S
H2009 C2017 0.930 . S
H2010 C2018 0.930 . S
H2011 C2019 0.930 . S
H2012 C2022 0.930 . S
H2013 C2023 0.930 . S
C2014 H2008 0.930 . S
C2014 C2015 1.355 . S
C2014 C2016 1.415 . S
C2015 C2014 1.355 . S
C2015 C2017 1.419 . S
C2016 C2014 1.415 . S
C2016 C2021 1.425 . S
C2016 C2023 1.409 . S
C2017 H2009 0.930 . S
C2017 C2015 1.419 . S
C2017 C2018 1.362 . S
C2018 H2010 0.930 . S
C2018 C2017 1.362 . S
C2018 C2021 1.409 . S
C2019 H2011 0.930 . S
C2019 C2020 1.355 . S
C2019 C2021 1.415 . S
C2020 C2019 1.355 . S
C2020 C2022 1.419 . S
C2021 C2016 1.425 . S
C2021 C2018 1.409 . S
C2021 C2019 1.415 . S
C2022 H2012 0.930 . S
C2022 C2020 1.419 . S
C2022 C2023 1.362 . S
C2023 H2013 0.930 . S
C2023 C2016 1.409 . S
C2023 C2022 1.362 . S
H2024 C2030 0.930 . S
H2025 C2033 0.930 . S
H2026 C2034 0.930 . S
H2027 C2035 0.930 . S
H2028 C2038 0.930 . S
H2029 C2039 0.930 . S
C2030 H2024 0.930 . S
C2030 C2031 1.355 . S
C2030 C2032 1.415 . S
C2031 C2030 1.355 . S
C2031 C2033 1.419 . S
C2032 C2030 1.415 . S
C2032 C2037 1.425 . S
C2032 C2039 1.409 . S
C2033 H2025 0.930 . S
C2033 C2031 1.419 . S
C2033 C2034 1.362 . S
C2034 H2026 0.930 . S
C2034 C2033 1.362 . S
C2034 C2037 1.409 . S
C2035 H2027 0.930 . S
C2035 C2036 1.355 . S
C2035 C2037 1.415 . S
C2036 C2035 1.355 . S
C2036 C2038 1.419 . S
C2037 C2032 1.425 . S
C2037 C2034 1.409 . S
C2037 C2035 1.415 . S
C2038 H2028 0.930 . S
C2038 C2036 1.419 . S
C2038 C2039 1.362 . S
C2039 H2029 0.930 . S
C2039 C2032 1.409 . S
C2039 C2038 1.362 . S
H2040 C2046 0.930 . S
H2041 C2049 0.930 . S
H2042 C2050 0.930 . S
H2043 C2051 0.930 . S
H2044 C2054 0.930 . S
H2045 C2055 0.930 . S
C2046 H2040 0.930 . S
C2046 C2047 1.355 . S
C2046 C2048 1.415 1_655 S
C2047 C2046 1.355 . S
C2047 C2049 1.419 . S
C2048 C2046 1.415 1_455 S
C2048 C2053 1.425 . S
C2048 C2055 1.409 . S
C2049 H2041 0.930 . S
C2049 C2047 1.419 . S
C2049 C2050 1.362 . S
C2050 H2042 0.930 . S
C2050 C2049 1.362 . S
C2050 C2053 1.409 1_655 S
C2051 H2043 0.930 . S
C2051 C2052 1.355 . S
C2051 C2053 1.415 . S
C2052 C2051 1.355 . S
C2052 C2054 1.419 . S
C2053 C2048 1.425 . S
C2053 C2050 1.409 1_455 S
C2053 C2051 1.415 . S
C2054 H2044 0.930 . S
C2054 C2052 1.419 . S
C2054 C2055 1.362 . S
C2055 H2045 0.930 . S
C2055 C2048 1.409 . S
C2055 C2054 1.362 . S
H2056 C2062 0.930 . S
H2057 C2065 0.930 . S
H2058 C2066 0.930 . S
H2059 C2067 0.930 . S
H2060 C2070 0.930 . S
H2061 C2071 0.930 . S
C2062 H2056 0.930 . S
C2062 C2063 1.355 . S
C2062 C2064 1.415 . S
C2063 C2062 1.355 . S
C2063 C2065 1.419 . S
C2064 C2062 1.415 . S
C2064 C2069 1.425 . S
C2064 C2071 1.409 . S
C2065 H2057 0.930 . S
C2065 C2063 1.419 . S
C2065 C2066 1.362 . S
C2066 H2058 0.930 . S
C2066 C2065 1.362 . S
C2066 C2069 1.409 . S
C2067 H2059 0.930 . S
C2067 C2068 1.355 . S
C2067 C2069 1.415 . S
C2068 C2067 1.355 . S
C2068 C2070 1.419 . S
C2069 C2064 1.425 . S
C2069 C2066 1.409 . S
C2069 C2067 1.415 . S
C2070 H2060 0.930 . S
C2070 C2068 1.419 . S
C2070 C2071 1.362 . S
C2071 H2061 0.930 . S
C2071 C2064 1.409 . S
C2071 C2070 1.362 . S
H2072 C2078 0.930 . S
H2073 C2081 0.930 . S
H2074 C2082 0.930 . S
H2075 C2083 0.930 . S
H2076 C2086 0.930 . S
H2077 C2087 0.930 . S
C2078 H2072 0.930 . S
C2078 C2079 1.355 . S
C2078 C2080 1.415 1_565 S
C2079 C2078 1.355 . S
C2079 C2081 1.419 . S
C2080 C2078 1.415 1_545 S
C2080 C2085 1.425 . S
C2080 C2087 1.409 . S
C2081 H2073 0.930 . S
C2081 C2079 1.419 . S
C2081 C2082 1.362 1_565 S
C2082 H2074 0.930 . S
C2082 C2081 1.362 1_545 S
C2082 C2085 1.409 . S
C2083 H2075 0.930 . S
C2083 C2084 1.355 . S
C2083 C2085 1.415 . S
C2084 C2083 1.355 . S
C2084 C2086 1.419 . S
C2085 C2080 1.425 . S
C2085 C2082 1.409 . S
C2085 C2083 1.415 . S
C2086 H2076 0.930 . S
C2086 C2084 1.419 . S
C2086 C2087 1.362 . S
C2087 H2077 0.930 . S
C2087 C2080 1.409 . S
C2087 C2086 1.362 . S
H2088 C2094 0.930 . S
H2089 C2097 0.930 . S
H2090 C2098 0.930 . S
H2091 C2099 0.930 . S
H2092 C2102 0.930 . S
H2093 C2103 0.930 . S
C2094 H2088 0.930 . S
C2094 C2095 1.355 . S
C2094 C2096 1.415 . S
C2095 C2094 1.355 . S
C2095 C2097 1.419 . S
C2096 C2094 1.415 . S
C2096 C2101 1.425 . S
C2096 C2103 1.409 . S
C2097 H2089 0.930 . S
C2097 C2095 1.419 . S
C2097 C2098 1.362 . S
C2098 H2090 0.930 . S
C2098 C2097 1.362 . S
C2098 C2101 1.409 . S
C2099 H2091 0.930 . S
C2099 C2100 1.355 . S
C2099 C2101 1.415 . S
C2100 C2099 1.355 . S
C2100 C2102 1.419 . S
C2101 C2096 1.425 . S
C2101 C2098 1.409 . S
C2101 C2099 1.415 . S
C2102 H2092 0.930 . S
C2102 C2100 1.419 . S
C2102 C2103 1.362 . S
C2103 H2093 0.930 . S
C2103 C2096 1.409 . S
C2103 C2102 1.362 . S
H2104 C2110 0.930 . S
H2105 C2113 0.930 . S
H2106 C2114 0.930 . S
H2107 C2115 0.930 . S
H2108 C2118 0.930 . S
H2109 C2119 0.930 . S
C2110 H2104 0.930 . S
C2110 C2111 1.355 . S
C2110 C2112 1.415 . S
C2111 C2110 1.355 . S
C2111 C2113 1.419 . S
C2112 C2110 1.415 . S
C2112 C2117 1.425 . S
C2112 C2119 1.409 . S
C2113 H2105 0.930 . S
C2113 C2111 1.419 . S
C2113 C2114 1.362 . S
C2114 H2106 0.930 . S
C2114 C2113 1.362 . S
C2114 C2117 1.409 . S
C2115 H2107 0.930 . S
C2115 C2116 1.355 . S
C2115 C2117 1.415 . S
C2116 C2115 1.355 . S
C2116 C2118 1.419 . S
C2117 C2112 1.425 . S
C2117 C2114 1.409 . S
C2117 C2115 1.415 . S
C2118 H2108 0.930 . S
C2118 C2116 1.419 . S
C2118 C2119 1.362 . S
C2119 H2109 0.930 . S
C2119 C2112 1.409 . S
C2119 C2118 1.362 . S
H2120 C2126 0.930 . S
H2121 C2129 0.930 . S
H2122 C2130 0.930 . S
H2123 C2131 0.930 . S
H2124 C2134 0.930 . S
H2125 C2135 0.930 . S
C2126 H2120 0.930 . S
C2126 C2127 1.355 . S
C2126 C2128 1.415 . S
C2127 C2126 1.355 . S
C2127 C2129 1.419 . S
C2128 C2126 1.415 . S
C2128 C2133 1.425 . S
C2128 C2135 1.409 . S
C2129 H2121 0.930 . S
C2129 C2127 1.419 . S
C2129 C2130 1.362 . S
C2130 H2122 0.930 . S
C2130 C2129 1.362 . S
C2130 C2133 1.409 . S
C2131 H2123 0.930 . S
C2131 C2132 1.355 . S
C2131 C2133 1.415 . S
C2132 C2131 1.355 . S
C2132 C2134 1.419 . S
C2133 C2128 1.425 . S
C2133 C2130 1.409 . S
C2133 C2131 1.415 . S
C2134 H2124 0.930 . S
C2134 C2132 1.419 . S
C2134 C2135 1.362 . S
C2135 H2125 0.930 . S
C2135 C2128 1.409 . S
C2135 C2134 1.362 . S
H2136 C2142 0.930 . S
H2137 C2145 0.930 . S
H2138 C2146 0.930 . S
H2139 C2147 0.930 . S
H2140 C2150 0.930 . S
H2141 C2151 0.930 . S
C2142 H2136 0.930 . S
C2142 C2143 1.355 . S
C2142 C2144 1.415 . S
C2143 C2142 1.355 . S
C2143 C2145 1.419 . S
C2144 C2142 1.415 . S
C2144 C2149 1.425 . S
C2144 C2151 1.409 . S
C2145 H2137 0.930 . S
C2145 C2143 1.419 . S
C2145 C2146 1.362 . S
C2146 H2138 0.930 . S
C2146 C2145 1.362 . S
C2146 C2149 1.409 . S
C2147 H2139 0.930 . S
C2147 C2148 1.355 . S
C2147 C2149 1.415 . S
C2148 C2147 1.355 . S
C2148 C2150 1.419 . S
C2149 C2144 1.425 . S
C2149 C2146 1.409 . S
C2149 C2147 1.415 . S
C2150 H2140 0.930 . S
C2150 C2148 1.419 . S
C2150 C2151 1.362 . S
C2151 H2141 0.930 . S
C2151 C2144 1.409 . S
C2151 C2150 1.362 . S
H2152 C2158 0.930 . S
H2153 C2161 0.930 . S
H2154 C2162 0.930 . S
H2155 C2163 0.930 . S
H2156 C2166 0.930 . S
H2157 C2167 0.930 . S
C2158 H2152 0.930 . S
C2158 C2159 1.355 . S
C2158 C2160 1.415 . S
C2159 C2158 1.355 . S
C2159 C2161 1.419 . S
C2160 C2158 1.415 . S
C2160 C2165 1.425 . S
C2160 C2167 1.409 . S
C2161 H2153 0.930 . S
C2161 C2159 1.419 . S
C2161 C2162 1.362 . S
C2162 H2154 0.930 . S
C2162 C2161 1.362 . S
C2162 C2165 1.409 . S
C2163 H2155 0.930 . S
C2163 C2164 1.355 . S
C2163 C2165 1.415 . S
C2164 C2163 1.355 . S
C2164 C2166 1.419 . S
C2165 C2160 1.425 . S
C2165 C2162 1.409 . S
C2165 C2163 1.415 . S
C2166 H2156 0.930 . S
C2166 C2164 1.419 . S
C2166 C2167 1.362 . S
C2167 H2157 0.930 . S
C2167 C2160 1.409 . S
C2167 C2166 1.362 . S
H2168 C2174 0.930 . S
H2169 C2177 0.930 . S
H2170 C2178 0.930 . S
H2171 C2179 0.930 . S
H2172 C2182 0.930 . S
H2173 C2183 0.930 . S
C2174 H2168 0.930 . S
C2174 C2175 1.355 . S
C2174 C2176 1.415 . S
C2175 C2174 1.355 . S
C2175 C2177 1.419 . S
C2176 C2174 1.415 . S
C2176 C2181 1.425 . S
C2176 C2183 1.409 . S
C2177 H2169 0.930 . S
C2177 C2175 1.419 . S
C2177 C2178 1.362 . S
C2178 H2170 0.930 . S
C2178 C2177 1.362 . S
C2178 C2181 1.409 . S
C2179 H2171 0.930 . S
C2179 C2180 1.355 . S
C2179 C2181 1.415 . S
C2180 C2179 1.355 . S
C2180 C2182 1.419 . S
C2181 C2176 1.425 . S
C2181 C2178 1.409 . S
C2181 C2179 1.415 . S
C2182 H2172 0.930 . S
C2182 C2180 1.419 . S
C2182 C2183 1.362 . S
C2183 H2173 0.930 . S
C2183 C2176 1.409 . S
C2183 C2182 1.362 . S
H2184 C2190 0.930 . S
H2185 C2193 0.930 . S
H2186 C2194 0.930 . S
H2187 C2195 0.930 . S
H2188 C2198 0.930 . S
H2189 C2199 0.930 . S
C2190 H2184 0.930 . S
C2190 C2191 1.355 . S
C2190 C2192 1.415 . S
C2191 C2190 1.355 . S
C2191 C2193 1.419 . S
C2192 C2190 1.415 . S
C2192 C2197 1.425 . S
C2192 C2199 1.409 . S
C2193 H2185 0.930 . S
C2193 C2191 1.419 . S
C2193 C2194 1.362 . S
C2194 H2186 0.930 . S
C2194 C2193 1.362 . S
C2194 C2197 1.409 . S
C2195 H2187 0.930 . S
C2195 C2196 1.355 . S
C2195 C2197 1.415 . S
C2196 C2195 1.355 . S
C2196 C2198 1.419 . S
C2197 C2192 1.425 . S
C2197 C2194 1.409 . S
C2197 C2195 1.415 . S
C2198 H2188 0.930 . S
C2198 C2196 1.419 . S
C2198 C2199 1.362 . S
C2199 H2189 0.930 . S
C2199 C2192 1.409 . S
C2199 C2198 1.362 . S
H2200 C2206 0.930 . S
H2201 C2209 0.930 . S
H2202 C2210 0.930 . S
H2203 C2211 0.930 . S
H2204 C2214 0.930 . S
H2205 C2215 0.930 . S
C2206 H2200 0.930 . S
C2206 C2207 1.355 . S
C2206 C2208 1.415 . S
C2207 C2206 1.355 . S
C2207 C2209 1.419 . S
C2208 C2206 1.415 . S
C2208 C2213 1.425 . S
C2208 C2215 1.409 . S
C2209 H2201 0.930 . S
C2209 C2207 1.419 . S
C2209 C2210 1.362 . S
C2210 H2202 0.930 . S
C2210 C2209 1.362 . S
C2210 C2213 1.409 . S
C2211 H2203 0.930 . S
C2211 C2212 1.355 . S
C2211 C2213 1.415 . S
C2212 C2211 1.355 . S
C2212 C2214 1.419 . S
C2213 C2208 1.425 . S
C2213 C2210 1.409 . S
C2213 C2211 1.415 . S
C2214 H2204 0.930 . S
C2214 C2212 1.419 . S
C2214 C2215 1.362 . S
C2215 H2205 0.930 . S
C2215 C2208 1.409 . S
C2215 C2214 1.362 . S
H2216 C2222 0.930 . S
H2217 C2225 0.930 . S
H2218 C2226 0.930 . S
H2219 C2227 0.930 . S
H2220 C2230 0.930 . S
H2221 C2231 0.930 . S
C2222 H2216 0.930 . S
C2222 C2223 1.355 . S
C2222 C2224 1.415 . S
C2223 C2222 1.355 . S
C2223 C2225 1.419 . S
C2224 C2222 1.415 . S
C2224 C2229 1.425 . S
C2224 C2231 1.409 . S
C2225 H2217 0.930 . S
C2225 C2223 1.419 . S
C2225 C2226 1.362 . S
C2226 H2218 0.930 . S
C2226 C2225 1.362 . S
C2226 C2229 1.409 . S
C2227 H2219 0.930 . S
C2227 C2228 1.355 . S
C2227 C2229 1.415 . S
C2228 C2227 1.355 . S
C2228 C2230 1.419 . S
C2229 C2224 1.425 . S
C2229 C2226 1.409 . S
C2229 C2227 1.415 . S
C2230 H2220 0.930 . S
C2230 C2228 1.419 . S
C2230 C2231 1.362 . S
C2231 H2221 0.930 . S
C2231 C2224 1.409 . S
C2231 C2230 1.362 . S
H2232 C2238 0.930 . S
H2233 C2241 0.930 . S
H2234 C2242 0.930 . S
H2235 C2243 0.930 . S
H2236 C2246 0.930 . S
H2237 C2247 0.930 . S
C2238 H2232 0.930 . S
C2238 C2239 1.355 . S
C2238 C2240 1.415 . S
C2239 C2238 1.355 . S
C2239 C2241 1.419 . S
C2240 C2238 1.415 . S
C2240 C2245 1.425 . S
C2240 C2247 1.409 . S
C2241 H2233 0.930 . S
C2241 C2239 1.419 . S
C2241 C2242 1.362 . S
C2242 H2234 0.930 . S
C2242 C2241 1.362 . S
C2242 C2245 1.409 . S
C2243 H2235 0.930 . S
C2243 C2244 1.355 . S
C2243 C2245 1.415 . S
C2244 C2243 1.355 . S
C2244 C2246 1.419 . S
C2245 C2240 1.425 . S
C2245 C2242 1.409 . S
C2245 C2243 1.415 . S
C2246 H2236 0.930 . S
C2246 C2244 1.419 . S
C2246 C2247 1.362 . S
C2247 H2237 0.930 . S
C2247 C2240 1.409 . S
C2247 C2246 1.362 . S
H2248 C2254 0.926 1_565 S
H2249 C2257 0.930 . S
H2250 C2258 0.930 . S
H2251 C2259 0.930 . S
H2252 C2262 0.930 . S
H2253 C2263 0.930 . S
C2254 H2248 0.926 1_545 S
C2254 C2255 1.348 1_545 S
C2254 C2256 1.425 . S
C2255 C2254 1.348 1_565 S
C2255 C2257 1.419 . S
C2256 C2254 1.425 . S
C2256 C2261 1.425 . S
C2256 C2263 1.409 . S
C2257 H2249 0.930 . S
C2257 C2255 1.419 . S
C2257 C2258 1.362 1_565 S
C2258 H2250 0.930 . S
C2258 C2257 1.362 1_545 S
C2258 C2261 1.409 . S
C2259 H2251 0.930 . S
C2259 C2260 1.355 . S
C2259 C2261 1.415 . S
C2260 C2259 1.355 . S
C2260 C2262 1.419 . S
C2261 C2256 1.425 . S
C2261 C2258 1.409 . S
C2261 C2259 1.415 . S
C2262 H2252 0.930 . S
C2262 C2260 1.419 . S
C2262 C2263 1.362 . S
C2263 H2253 0.930 . S
C2263 C2256 1.409 . S
C2263 C2262 1.362 . S
H2264 C2270 0.930 . S
H2265 C2273 0.930 . S
H2266 C2274 0.930 . S
H2267 C2275 0.930 . S
H2268 C2278 0.930 . S
H2269 C2279 0.930 . S
C2270 H2264 0.930 . S
C2270 C2271 1.355 . S
C2270 C2272 1.415 1_655 S
C2271 C2270 1.355 . S
C2271 C2273 1.419 . S
C2272 C2270 1.415 1_455 S
C2272 C2277 1.420 1_455 S
C2272 C2279 1.409 . S
C2273 H2265 0.930 . S
C2273 C2271 1.419 . S
C2273 C2274 1.362 . S
C2274 H2266 0.930 . S
C2274 C2273 1.362 . S
C2274 C2277 1.417 . S
C2275 H2267 0.930 . S
C2275 C2276 1.355 . S
C2275 C2277 1.412 1_455 S
C2276 C2275 1.355 . S
C2276 C2278 1.419 . S
C2277 C2272 1.420 1_655 S
C2277 C2274 1.417 . S
C2277 C2275 1.412 1_655 S
C2278 H2268 0.930 . S
C2278 C2276 1.419 . S
C2278 C2279 1.362 . S
C2279 H2269 0.930 . S
C2279 C2272 1.409 . S
C2279 C2278 1.362 . S
H2280 C2286 0.930 . S
H2281 C2289 0.930 . S
H2282 C2290 0.930 . S
H2283 C2291 0.930 . S
H2284 C2294 0.930 . S
H2285 C2295 0.930 . S
C2286 H2280 0.930 . S
C2286 C2287 1.355 . S
C2286 C2288 1.415 . S
C2287 C2286 1.355 . S
C2287 C2289 1.419 . S
C2288 C2286 1.415 . S
C2288 C2293 1.425 . S
C2288 C2295 1.409 . S
C2289 H2281 0.930 . S
C2289 C2287 1.419 . S
C2289 C2290 1.362 . S
C2290 H2282 0.930 . S
C2290 C2289 1.362 . S
C2290 C2293 1.409 . S
C2291 H2283 0.930 . S
C2291 C2292 1.355 . S
C2291 C2293 1.415 . S
C2292 C2291 1.355 . S
C2292 C2294 1.419 . S
C2293 C2288 1.425 . S
C2293 C2290 1.409 . S
C2293 C2291 1.415 . S
C2294 H2284 0.930 . S
C2294 C2292 1.419 . S
C2294 C2295 1.362 . S
C2295 H2285 0.930 . S
C2295 C2288 1.409 . S
C2295 C2294 1.362 . S
H2296 C2302 0.930 . S
H2297 C2305 0.930 . S
H2298 C2306 0.930 . S
H2299 C2307 0.930 . S
H2300 C2310 0.930 . S
H2301 C2311 0.930 . S
C2302 H2296 0.930 . S
C2302 C2303 1.355 . S
C2302 C2304 1.415 . S
C2303 C2302 1.355 . S
C2303 C2305 1.419 . S
C2304 C2302 1.415 . S
C2304 C2309 1.425 1_545 S
C2304 C2311 1.409 1_545 S
C2305 H2297 0.930 . S
C2305 C2303 1.419 . S
C2305 C2306 1.362 . S
C2306 H2298 0.930 . S
C2306 C2305 1.362 . S
C2306 C2309 1.409 1_545 S
C2307 H2299 0.930 . S
C2307 C2308 1.355 . S
C2307 C2309 1.415 . S
C2308 C2307 1.355 . S
C2308 C2310 1.419 . S
C2309 C2304 1.425 1_565 S
C2309 C2306 1.409 1_565 S
C2309 C2307 1.415 . S
C2310 H2300 0.930 . S
C2310 C2308 1.419 . S
C2310 C2311 1.362 . S
C2311 H2301 0.930 . S
C2311 C2304 1.409 1_565 S
C2311 C2310 1.362 . S
H2312 C2318 0.930 . S
H2313 C2321 0.930 . S
H2314 C2322 0.930 . S
H2315 C2323 0.930 1_655 S
H2316 C2326 0.930 . S
H2317 C2327 0.930 . S
C2318 H2312 0.930 . S
C2318 C2319 1.355 . S
C2318 C2320 1.415 . S
C2319 C2318 1.355 . S
C2319 C2321 1.419 . S
C2320 C2318 1.415 . S
C2320 C2325 1.425 . S
C2320 C2327 1.409 . S
C2321 H2313 0.930 . S
C2321 C2319 1.419 . S
C2321 C2322 1.362 . S
C2322 H2314 0.930 . S
C2322 C2321 1.362 . S
C2322 C2325 1.409 . S
C2323 H2315 0.930 1_455 S
C2323 C2324 1.355 1_455 S
C2323 C2325 1.415 . S
C2324 C2323 1.355 1_655 S
C2324 C2326 1.419 . S
C2325 C2320 1.425 . S
C2325 C2322 1.409 . S
C2325 C2323 1.415 . S
C2326 H2316 0.930 . S
C2326 C2324 1.419 . S
C2326 C2327 1.362 1_655 S
C2327 H2317 0.930 . S
C2327 C2320 1.409 . S
C2327 C2326 1.362 1_455 S
H2328 C2334 0.930 . S
H2329 C2337 0.930 . S
H2330 C2338 0.930 . S
H2331 C2339 0.930 . S
H2332 C2342 0.930 . S
H2333 C2343 0.930 . S
C2334 H2328 0.930 . S
C2334 C2335 1.355 . S
C2334 C2336 1.415 . S
C2335 C2334 1.355 . S
C2335 C2337 1.419 . S
C2336 C2334 1.415 . S
C2336 C2341 1.425 . S
C2336 C2343 1.409 . S
C2337 H2329 0.930 . S
C2337 C2335 1.419 . S
C2337 C2338 1.362 . S
C2338 H2330 0.930 . S
C2338 C2337 1.362 . S
C2338 C2341 1.409 . S
C2339 H2331 0.930 . S
C2339 C2340 1.355 . S
C2339 C2341 1.415 . S
C2340 C2339 1.355 . S
C2340 C2342 1.419 . S
C2341 C2336 1.425 . S
C2341 C2338 1.409 . S
C2341 C2339 1.415 . S
C2342 H2332 0.930 . S
C2342 C2340 1.419 . S
C2342 C2343 1.362 . S
C2343 H2333 0.930 . S
C2343 C2336 1.409 . S
C2343 C2342 1.362 . S
H2344 C2350 0.930 . S
H2345 C2353 0.930 . S
H2346 C2354 0.930 . S
H2347 C2355 0.930 . S
H2348 C2358 0.930 . S
H2349 C2359 0.930 . S
C2350 H2344 0.930 . S
C2350 C2351 1.355 . S
C2350 C2352 1.415 . S
C2351 C2350 1.355 . S
C2351 C2353 1.419 . S
C2352 C2350 1.415 . S
C2352 C2357 1.425 . S
C2352 C2359 1.409 . S
C2353 H2345 0.930 . S
C2353 C2351 1.419 . S
C2353 C2354 1.362 . S
C2354 H2346 0.930 . S
C2354 C2353 1.362 . S
C2354 C2357 1.409 . S
C2355 H2347 0.930 . S
C2355 C2356 1.355 . S
C2355 C2357 1.415 . S
C2356 C2355 1.355 . S
C2356 C2358 1.419 . S
C2357 C2352 1.425 . S
C2357 C2354 1.409 . S
C2357 C2355 1.415 . S
C2358 H2348 0.930 . S
C2358 C2356 1.419 . S
C2358 C2359 1.362 . S
C2359 H2349 0.930 . S
C2359 C2352 1.409 . S
C2359 C2358 1.362 . S
H2360 C2366 0.930 . S
H2361 C2369 0.930 . S
H2362 C2370 0.930 . S
H2363 C2371 0.930 . S
H2364 C2374 0.930 . S
H2365 C2375 0.930 . S
C2366 H2360 0.930 . S
C2366 C2367 1.355 . S
C2366 C2368 1.415 . S
C2367 C2366 1.355 . S
C2367 C2369 1.419 . S
C2368 C2366 1.415 . S
C2368 C2373 1.425 . S
C2368 C2375 1.409 . S
C2369 H2361 0.930 . S
C2369 C2367 1.419 . S
C2369 C2370 1.362 . S
C2370 H2362 0.930 . S
C2370 C2369 1.362 . S
C2370 C2373 1.409 . S
C2371 H2363 0.930 . S
C2371 C2372 1.355 . S
C2371 C2373 1.415 . S
C2372 C2371 1.355 . S
C2372 C2374 1.419 . S
C2373 C2368 1.425 . S
C2373 C2370 1.409 . S
C2373 C2371 1.415 . S
C2374 H2364 0.930 . S
C2374 C2372 1.419 . S
C2374 C2375 1.362 . S
C2375 H2365 0.930 . S
C2375 C2368 1.409 . S
C2375 C2374 1.362 . S
C1519 C56 0.901 . S
C1524 C231 0.862 . S
C1535 C63 0.911 . S
C1540 C140 0.878 . S
C1551 C147 0.818 . S
C1556 C224 0.936 . S
C1567 C308 0.880 . S
C1572 C399 0.906 . S
C1583 C483 0.870 . S
C1588 C392 0.983 . S
C1599 C476 0.985 . S
C1604 C315 0.818 . S
C1615 C735 0.977 . S
C1620 C560 0.907 . S
C1631 C567 0.922 . S
C1636 C644 0.875 . S
C1647 C728 0.972 . S
C1652 C651 0.801 . S
C1663 C903 0.801 . S
C1668 C812 0.959 . S
C1679 C896 0.940 . S
C1684 C987 0.814 . S
C1695 C819 0.941 . S
C1700 C980 0.949 . S
C1711 C1064 0.982 . S
C1716 C1239 0.809 . S
C1727 C1071 0.926 . S
C1732 C1148 0.959 . S
C1743 C1155 0.958 . S
C1748 C1232 0.872 . S
C1759 C1407 0.861 . S
C1764 C1316 0.902 . S
C1775 C1491 0.802 . S
C1780 C1400 0.959 . S
C1791 C1323 0.918 . S
C1796 C1484 0.876 . S
C1807 C66 1.831 . S
C1812 C486 1.837 . S
C1823 C318 1.817 . S
C1828 C150 1.822 . S
C1839 C402 1.807 . S
C1844 C234 1.806 . S
C1855 C570 1.813 . S
C1860 C990 1.817 . S
C1871 C654 1.825 . S
C1876 C822 1.831 . S
C1887 C906 1.806 . S
C1892 C738 1.807 . S
C1903 C1074 1.813 . S
C1908 C1494 1.818 . S
C1919 C1326 1.866 . S
C1924 C1158 1.871 . S
C1935 C1410 1.807 . S
C1940 C1242 1.806 . S
C1951 C915 2.086 . S
C1956 C75 2.064 . S
C1967 C159 2.077 . S
C1972 C999 2.025 . S
C1983 C831 2.066 . S
C1988 C243 2.022 . S
C1999 C327 2.031 . S
C2004 C1251 2.039 . S
C2015 C411 2.059 . S
C2020 C1083 2.088 . S
C2031 C1167 2.077 . S
C2036 C495 2.026 . S
C2047 C1419 2.040 . S
C2052 C579 2.088 . S
C2063 C663 2.090 . S
C2068 C1503 2.049 . S
C2079 C747 2.026 . S
C2084 C1335 2.078 . S
C2095 C240 1.694 . S
C2100 C67 1.838 . S
C2111 C72 1.691 . S
C2116 C151 1.769 . S
C2127 C235 1.786 . S
C2132 C156 1.747 . S
C2143 C408 1.747 . S
C2148 C319 1.788 . S
C2159 C492 1.741 . S
C2164 C403 1.775 . S
C2175 C487 1.833 . S
C2180 C324 1.660 . S
C2191 C744 1.707 . S
C2196 C571 1.765 . S
C2207 C655 1.781 . S
C2212 C576 1.668 . S
C2223 C660 1.651 . S
C2228 C739 1.825 . S
C2239 C823 1.783 . S
C2244 C912 1.746 . S
C2255 C907 1.834 . S
C2260 C996 1.662 . S
C2271 C828 1.722 . S
C2276 C991 1.766 . S
C2287 C1075 1.838 . S
C2292 C1248 1.694 . S
C2303 C1159 1.769 . S
C2308 C1080 1.733 . S
C2319 C1164 1.648 . S
C2324 C1243 1.806 . S
C2335 C1327 1.823 . S
C2340 C1416 1.729 . S
C2351 C1411 1.772 . S
C2356 C1500 1.683 . S
C2367 C1332 1.729 . S
C2372 C1495 1.767 . S
