# Generated by pormake.
# Topology ume, (4)-cn, num edge types: 1
# Building blocks:
#     Node 0, Type 0, BuildingBlock: QUQFOY_clean_sbu_3, # of connection points: 4
#     Node 1, Type 0, BuildingBlock: QUQFOY_clean_sbu_3, # of connection points: 4
#     Node 2, Type 0, BuildingBlock: QUQFOY_clean_sbu_3, # of connection points: 4
#     Node 3, Type 0, BuildingBlock: QUQFOY_clean_sbu_3, # of connection points: 4
#     Node 4, Type 0, BuildingBlock: QUQFOY_clean_sbu_3, # of connection points: 4
#     Node 5, Type 0, BuildingBlock: QUQFOY_clean_sbu_3, # of connection points: 4
#     Node 6, Type 0, BuildingBlock: QUQFOY_clean_sbu_3, # of connection points: 4
#     Node 7, Type 0, BuildingBlock: QUQFOY_clean_sbu_3, # of connection points: 4
#     Node 8, Type 0, BuildingBlock: QUQFOY_clean_sbu_3, # of connection points: 4
#     Node 9, Type 0, BuildingBlock: QUQFOY_clean_sbu_3, # of connection points: 4
#     Node 10, Type 0, BuildingBlock: QUQFOY_clean_sbu_3, # of connection points: 4
#     Node 11, Type 0, BuildingBlock: QUQFOY_clean_sbu_3, # of connection points: 4
#     Node 12, Type 0, BuildingBlock: QUQFOY_clean_sbu_3, # of connection points: 4
#     Node 13, Type 0, BuildingBlock: QUQFOY_clean_sbu_3, # of connection points: 4
#     Node 14, Type 0, BuildingBlock: QUQFOY_clean_sbu_3, # of connection points: 4
#     Node 15, Type 0, BuildingBlock: QUQFOY_clean_sbu_3, # of connection points: 4
#     Edge 16, Type (0, 0), BuildingBlock: OJICUG_clean_linker_0, # of connection points: 2
#     Edge 17, Type (0, 0), BuildingBlock: OJICUG_clean_linker_0, # of connection points: 2
#     Edge 18, Type (0, 0), BuildingBlock: OJICUG_clean_linker_0, # of connection points: 2
#     Edge 19, Type (0, 0), BuildingBlock: OJICUG_clean_linker_0, # of connection points: 2
#     Edge 20, Type (0, 0), BuildingBlock: OJICUG_clean_linker_0, # of connection points: 2
#     Edge 21, Type (0, 0), BuildingBlock: OJICUG_clean_linker_0, # of connection points: 2
#     Edge 22, Type (0, 0), BuildingBlock: OJICUG_clean_linker_0, # of connection points: 2
#     Edge 23, Type (0, 0), BuildingBlock: OJICUG_clean_linker_0, # of connection points: 2
#     Edge 24, Type (0, 0), BuildingBlock: OJICUG_clean_linker_0, # of connection points: 2
#     Edge 25, Type (0, 0), BuildingBlock: OJICUG_clean_linker_0, # of connection points: 2
#     Edge 26, Type (0, 0), BuildingBlock: OJICUG_clean_linker_0, # of connection points: 2
#     Edge 27, Type (0, 0), BuildingBlock: OJICUG_clean_linker_0, # of connection points: 2
#     Edge 28, Type (0, 0), BuildingBlock: OJICUG_clean_linker_0, # of connection points: 2
#     Edge 29, Type (0, 0), BuildingBlock: OJICUG_clean_linker_0, # of connection points: 2
#     Edge 30, Type (0, 0), BuildingBlock: OJICUG_clean_linker_0, # of connection points: 2
#     Edge 31, Type (0, 0), BuildingBlock: OJICUG_clean_linker_0, # of connection points: 2
#     Edge 32, Type (0, 0), BuildingBlock: OJICUG_clean_linker_0, # of connection points: 2
#     Edge 33, Type (0, 0), BuildingBlock: OJICUG_clean_linker_0, # of connection points: 2
#     Edge 34, Type (0, 0), BuildingBlock: OJICUG_clean_linker_0, # of connection points: 2
#     Edge 35, Type (0, 0), BuildingBlock: OJICUG_clean_linker_0, # of connection points: 2
#     Edge 36, Type (0, 0), BuildingBlock: OJICUG_clean_linker_0, # of connection points: 2
#     Edge 37, Type (0, 0), BuildingBlock: OJICUG_clean_linker_0, # of connection points: 2
#     Edge 38, Type (0, 0), BuildingBlock: OJICUG_clean_linker_0, # of connection points: 2
#     Edge 39, Type (0, 0), BuildingBlock: OJICUG_clean_linker_0, # of connection points: 2
#     Edge 40, Type (0, 0), BuildingBlock: OJICUG_clean_linker_0, # of connection points: 2
#     Edge 41, Type (0, 0), BuildingBlock: OJICUG_clean_linker_0, # of connection points: 2
#     Edge 42, Type (0, 0), BuildingBlock: OJICUG_clean_linker_0, # of connection points: 2
#     Edge 43, Type (0, 0), BuildingBlock: OJICUG_clean_linker_0, # of connection points: 2
#     Edge 44, Type (0, 0), BuildingBlock: OJICUG_clean_linker_0, # of connection points: 2
#     Edge 45, Type (0, 0), BuildingBlock: OJICUG_clean_linker_0, # of connection points: 2
#     Edge 46, Type (0, 0), BuildingBlock: OJICUG_clean_linker_0, # of connection points: 2
#     Edge 47, Type (0, 0), BuildingBlock: OJICUG_clean_linker_0, # of connection points: 2
# Relax obj value: 0.094
# Max RMSD: 0.141
# Mean RMSD: 0.141
data_MOF--net-ume--node1-QUQFOY_clean_sbu_3--edge1-OJICUG_clean_linker_0
_symmetry_space_group_name_H-M    P1
_symmetry_Int_Tables_number       1
_symmetry_cell_setting            triclinic
loop_
_symmetry_equiv_pos_as_xyz
'x, y, z'
_cell_length_a     20.907242
_cell_length_b     20.890359
_cell_length_c     87.024474
_cell_angle_alpha  89.963595
_cell_angle_beta   89.957306
_cell_angle_gamma 90.070161
loop_
_atom_site_label
_atom_site_type_symbol
_atom_site_fract_x
_atom_site_fract_y
_atom_site_fract_z
_atom_type_partial_charge
C0 C 0.24615 0.23183 0.2468 0.0
O1 O 0.28384 0.26701 0.25447 0.0
Cd2 Cd 0.32578 0.22447 0.27827 0.0
O3 O 0.22759 0.17889 0.25234 0.0
Cd4 Cd 0.23699 0.11824 0.27601 0.0
C5 C 0.38796 0.0797 0.26784 0.0
O6 O 0.24808 0.19473 0.29777 0.0
O7 O 0.27964 0.09664 0.30064 0.0
O8 O 0.12133 0.11459 0.2772 0.0
C9 C 0.26553 0.14983 0.30675 0.0
O10 O 0.39945 0.13668 0.27227 0.0
C11 C 0.1169 0.05411 0.27655 0.0
O12 O 0.33054 0.05968 0.26691 0.0
O13 O 0.16889 0.02283 0.27565 0.0
C14 C 0.75151 0.75155 0.49729 0.0
O15 O 0.71755 0.78977 0.50513 0.0
Cd16 Cd 0.76108 0.82639 0.52942 0.0
O17 O 0.80387 0.73129 0.50273 0.0
Cd18 Cd 0.86603 0.73817 0.52605 0.0
C19 C 0.90489 0.89107 0.51974 0.0
O20 O 0.78928 0.74361 0.54797 0.0
O21 O 0.88904 0.76892 0.5515 0.0
O22 O 0.87065 0.62259 0.52532 0.0
C23 C 0.83528 0.7542 0.55723 0.0
O24 O 0.84815 0.90213 0.52433 0.0
C25 C 0.93108 0.6191 0.52445 0.0
O26 O 0.92429 0.83375 0.51816 0.0
O27 O 0.96184 0.67161 0.52426 0.0
C28 C 0.23448 0.24858 0.74778 0.0
O29 O 0.19604 0.21553 0.7558 0.0
Cd30 Cd 0.15882 0.26193 0.77971 0.0
O31 O 0.25492 0.30154 0.75289 0.0
Cd32 Cd 0.24837 0.36662 0.77582 0.0
C33 C 0.09629 0.40538 0.76872 0.0
O34 O 0.24053 0.29269 0.79823 0.0
O35 O 0.21379 0.39245 0.80087 0.0
O36 O 0.36413 0.37052 0.77555 0.0
C37 C 0.22797 0.33953 0.80711 0.0
O38 O 0.0847 0.34919 0.77369 0.0
C39 C 0.36819 0.43091 0.77441 0.0
O40 O 0.15375 0.42452 0.76718 0.0
O41 O 0.31599 0.46193 0.77385 0.0
C42 C 0.73569 0.74113 -0.00318 0.0
O43 O 0.77002 0.70293 0.00456 0.0
Cd44 Cd 0.72576 0.6616 0.02829 0.0
O45 O 0.68266 0.75994 0.00221 0.0
Cd46 Cd 0.62001 0.75048 0.02553 0.0
C47 C 0.58172 0.59912 0.01748 0.0
O48 O 0.69523 0.74008 0.04756 0.0
O49 O 0.59663 0.70973 0.05025 0.0
O50 O 0.61609 0.86622 0.0263 0.0
C51 C 0.64962 0.72375 0.05646 0.0
O52 O 0.63831 0.5876 0.02212 0.0
C53 C 0.55569 0.87033 0.02542 0.0
O54 O 0.56203 0.65659 0.01639 0.0
O55 O 0.52459 0.81812 0.0246 0.0
C56 C 0.24901 0.25011 0.93235 0.0
O57 O 0.28733 0.21678 0.92439 0.0
Cd58 Cd 0.3256 0.26278 0.90052 0.0
O59 O 0.2291 0.30314 0.92717 0.0
Cd60 Cd 0.23654 0.36779 0.90416 0.0
C61 C 0.3886 0.40637 0.91137 0.0
O62 O 0.24469 0.29362 0.88183 0.0
O63 O 0.27255 0.39311 0.87917 0.0
O64 O 0.12082 0.37181 0.90421 0.0
C65 C 0.25829 0.3402 0.87294 0.0
O66 O 0.39998 0.35005 0.9065 0.0
C67 C 0.1169 0.4322 0.90532 0.0
O68 O 0.3312 0.42566 0.91286 0.0
O69 O 0.16919 0.4632 0.90594 0.0
C70 C 0.74094 0.75377 0.18149 0.0
O71 O 0.77337 0.7927 0.17346 0.0
Cd72 Cd 0.72735 0.82749 0.14927 0.0
O73 O 0.68846 0.73228 0.17638 0.0
Cd74 Cd 0.62285 0.73742 0.15357 0.0
C75 C 0.58381 0.89062 0.15969 0.0
O76 O 0.69765 0.74315 0.13128 0.0
O77 O 0.59725 0.76641 0.12814 0.0
O78 O 0.61833 0.62168 0.1547 0.0
C79 C 0.65085 0.75281 0.1222 0.0
O80 O 0.63997 0.90211 0.15473 0.0
C81 C 0.55798 0.61812 0.15593 0.0
O82 O 0.56499 0.83316 0.16152 0.0
O83 O 0.52732 0.6706 0.15616 0.0
C84 C 0.23719 0.23352 0.43238 0.0
O85 O 0.19914 0.26744 0.4245 0.0
Cd86 Cd 0.16289 0.22432 0.40014 0.0
O87 O 0.2577 0.18116 0.42697 0.0
Cd88 Cd 0.25128 0.11942 0.40352 0.0
C89 C 0.09829 0.07998 0.40949 0.0
O90 O 0.24604 0.19676 0.38169 0.0
O91 O 0.22161 0.09678 0.37799 0.0
O92 O 0.36682 0.11499 0.40422 0.0
C93 C 0.23601 0.15085 0.37236 0.0
O94 O 0.0873 0.13691 0.40499 0.0
C95 C 0.37039 0.05451 0.40506 0.0
O96 O 0.15555 0.06059 0.41113 0.0
O97 O 0.31796 0.02367 0.40529 0.0
C98 C 0.74921 0.73903 0.68254 0.0
O99 O 0.71476 0.7008 0.67482 0.0
Cd100 Cd 0.75886 0.65962 0.65107 0.0
O101 O 0.80222 0.75788 0.67711 0.0
Cd102 Cd 0.86466 0.74841 0.65377 0.0
C103 C 0.90276 0.59708 0.66185 0.0
O104 O 0.78933 0.73812 0.63176 0.0
O105 O 0.88774 0.70742 0.62907 0.0
O106 O 0.86874 0.86416 0.65292 0.0
C107 C 0.83486 0.72172 0.62286 0.0
O108 O 0.84614 0.58553 0.65721 0.0
C109 C 0.92914 0.86837 0.65379 0.0
O110 O 0.92253 0.65457 0.66293 0.0
O111 O 0.96019 0.8162 0.65464 0.0
C112 C 0.74674 0.73848 0.74728 0.0
O113 O 0.78509 0.77198 0.7552 0.0
Cd114 Cd 0.82311 0.72642 0.77913 0.0
O115 O 0.72665 0.68558 0.75253 0.0
Cd116 Cd 0.73361 0.62133 0.77558 0.0
C117 C 0.88561 0.58261 0.76838 0.0
O118 O 0.74239 0.69549 0.79791 0.0
O119 O 0.76977 0.5959 0.8005 0.0
O120 O 0.61786 0.61739 0.77562 0.0
C121 C 0.75602 0.64884 0.80677 0.0
O122 O 0.89715 0.63898 0.77321 0.0
C123 C 0.61378 0.55702 0.77445 0.0
O124 O 0.82816 0.56333 0.76691 0.0
O125 O 0.66598 0.52601 0.77378 0.0
C126 C 0.25066 0.24672 -0.00291 0.0
O127 O 0.21641 0.28477 0.00489 0.0
Cd128 Cd 0.26094 0.32559 0.02863 0.0
O129 O 0.30364 0.22765 0.00244 0.0
Cd130 Cd 0.36644 0.23629 0.02572 0.0
C131 C 0.40506 0.38758 0.01763 0.0
O132 O 0.2918 0.24715 0.04789 0.0
O133 O 0.39061 0.27708 0.05036 0.0
O134 O 0.37005 0.12047 0.02651 0.0
C135 C 0.3377 0.26347 0.05668 0.0
O136 O 0.34856 0.39923 0.02233 0.0
C137 C 0.43042 0.11626 0.02553 0.0
O138 O 0.42462 0.33008 0.01652 0.0
O139 O 0.46159 0.16842 0.02464 0.0
C140 C 0.74245 0.75345 0.24632 0.0
O141 O 0.70481 0.71751 0.25382 0.0
Cd142 Cd 0.66195 0.75829 0.27771 0.0
O143 O 0.76058 0.80609 0.25209 0.0
Cd144 Cd 0.75056 0.86499 0.27597 0.0
C145 C 0.59977 0.90365 0.2677 0.0
O146 O 0.7389 0.78702 0.29743 0.0
O147 O 0.70679 0.88476 0.3006 0.0
O148 O 0.86617 0.86869 0.27723 0.0
C149 C 0.72061 0.83112 0.30653 0.0
O150 O 0.58825 0.84636 0.2719 0.0
C151 C 0.87056 0.92921 0.27673 0.0
O152 O 0.65717 0.92385 0.26692 0.0
O153 O 0.81854 0.9605 0.27595 0.0
C154 C 0.23666 0.23908 0.49733 0.0
O155 O 0.27053 0.20133 0.50531 0.0
Cd156 Cd 0.2267 0.16578 0.52969 0.0
O157 O 0.1844 0.25992 0.50271 0.0
Cd158 Cd 0.12238 0.25488 0.52612 0.0
C159 C 0.08252 0.10222 0.5199 0.0
O160 O 0.19832 0.24859 0.54818 0.0
O161 O 0.09819 0.224 0.55149 0.0
O162 O 0.11854 0.37063 0.52537 0.0
C163 C 0.15187 0.23803 0.55734 0.0
O164 O 0.13913 0.09086 0.52453 0.0
C165 C 0.05813 0.37436 0.52443 0.0
O166 O 0.06342 0.15964 0.51829 0.0
O167 O 0.02717 0.32197 0.52419 0.0
C168 C 0.74877 0.75013 0.43235 0.0
O169 O 0.78677 0.71566 0.42458 0.0
Cd170 Cd 0.82283 0.7575 0.40005 0.0
O171 O 0.72818 0.80206 0.42673 0.0
Cd172 Cd 0.73408 0.86252 0.40309 0.0
C173 C 0.88705 0.90221 0.40912 0.0
O174 O 0.7394 0.78384 0.38156 0.0
O175 O 0.76263 0.88387 0.3774 0.0
O176 O 0.61853 0.86677 0.40412 0.0
C177 C 0.74874 0.82925 0.37203 0.0
O178 O 0.89828 0.84512 0.40478 0.0
C179 C 0.61493 0.9273 0.40474 0.0
O180 O 0.82971 0.92163 0.41057 0.0
O181 O 0.66733 0.95822 0.40466 0.0
C182 C 0.23278 0.24527 0.68299 0.0
O183 O 0.26746 0.28331 0.67526 0.0
Cd184 Cd 0.22426 0.32443 0.65143 0.0
O185 O 0.18001 0.22614 0.67751 0.0
Cd186 Cd 0.11861 0.23476 0.65398 0.0
C187 C 0.07944 0.38586 0.66199 0.0
O188 O 0.19456 0.24612 0.63207 0.0
O189 O 0.09602 0.27617 0.6293 0.0
O190 O 0.11499 0.11891 0.65308 0.0
C191 C 0.14928 0.26281 0.62313 0.0
O192 O 0.13621 0.39769 0.65748 0.0
C193 C 0.05457 0.11456 0.65388 0.0
O194 O 0.05982 0.3283 0.66301 0.0
O195 O 0.02339 0.16665 0.65471 0.0
C196 C 0.73869 0.74001 0.93209 0.0
O197 O 0.70036 0.77329 0.92412 0.0
Cd198 Cd 0.66245 0.72718 0.90025 0.0
O199 O 0.75878 0.68707 0.92692 0.0
Cd200 Cd 0.75183 0.62235 0.90395 0.0
C201 C 0.59974 0.58356 0.91121 0.0
O202 O 0.74345 0.6963 0.88155 0.0
O203 O 0.71647 0.59649 0.879 0.0
O204 O 0.86759 0.61857 0.90404 0.0
C205 C 0.73037 0.64944 0.87272 0.0
O206 O 0.58826 0.63982 0.90631 0.0
C207 C 0.87157 0.5582 0.90522 0.0
O208 O 0.65717 0.56436 0.91268 0.0
O209 O 0.81932 0.52714 0.90586 0.0
C210 C 0.24825 0.23604 0.18196 0.0
O211 O 0.21577 0.19749 0.17385 0.0
Cd212 Cd 0.26148 0.16328 0.14959 0.0
O213 O 0.30066 0.25787 0.17684 0.0
Cd214 Cd 0.36577 0.25385 0.15389 0.0
C215 C 0.40553 0.10073 0.15984 0.0
O216 O 0.29086 0.24787 0.13163 0.0
O217 O 0.39131 0.22489 0.12845 0.0
O218 O 0.36997 0.36966 0.15498 0.0
C219 C 0.33761 0.23817 0.12253 0.0
O220 O 0.34932 0.08914 0.15495 0.0
C221 C 0.43032 0.37333 0.15615 0.0
O222 O 0.42422 0.15821 0.16168 0.0
O223 O 0.46107 0.32091 0.15638 0.0
C224 C 0.93776 0.02835 0.27693 0.0
C225 C 0.93348 0.96129 0.27688 0.0
H226 H -0.0008 0.11026 0.27692 0.0
C227 C 0.99001 0.9249 0.27682 0.0
H228 H 0.89505 0.05764 0.27699 0.0
C229 C 0.04968 0.95498 0.27673 0.0
C230 C 0.05397 0.02204 0.27675 0.0
H231 H 0.98826 0.87307 0.27677 0.0
H232 H 0.09239 0.92568 0.27664 0.0
C233 C -0.00256 0.05843 0.2769 0.0
C234 C 0.92794 0.49965 0.52378 0.0
C235 C 0.96376 0.55663 0.52395 0.0
H236 H 0.92971 0.39725 0.52375 0.0
C237 C 0.0308 0.55322 0.5239 0.0
H238 H 0.87614 0.50076 0.52377 0.0
C239 C 0.06145 0.49389 0.52391 0.0
C240 C 0.02561 0.43691 0.52393 0.0
H241 H 0.05964 0.59633 0.52402 0.0
H242 H 0.11324 0.49275 0.52402 0.0
C243 C 0.95858 0.44034 0.52375 0.0
C244 C 0.49434 0.56076 0.77403 0.0
C245 C 0.55104 0.52466 0.77405 0.0
H246 H 0.39198 0.55943 0.77405 0.0
C247 C 0.54713 0.45758 0.7739 0.0
H248 H 0.49583 0.6126 0.77411 0.0
C249 C 0.48763 0.42718 0.7739 0.0
C250 C 0.43093 0.46328 0.774 0.0
H251 H 0.58999 0.42851 0.7739 0.0
H252 H 0.48614 0.37535 0.7739 0.0
C253 C 0.43484 0.53036 0.77397 0.0
C254 C 0.52956 0.04944 0.02532 0.0
C255 C 0.46255 0.05342 0.02543 0.0
H256 H 0.61153 0.98835 0.02528 0.0
C257 C 0.42629 -0.00331 0.02547 0.0
H258 H 0.55875 0.09232 0.02529 0.0
C259 C 0.45648 0.93711 0.02541 0.0
C260 C 0.5235 0.93314 0.02537 0.0
H261 H 0.37451 -0.00177 0.02553 0.0
H262 H 0.4273 0.89423 0.02545 0.0
C263 C 0.55974 0.98988 0.02533 0.0
C264 C 0.05047 0.53164 0.90573 0.0
C265 C 0.05425 0.46456 0.90568 0.0
H266 H 0.98963 0.61385 0.90561 0.0
C267 C -0.00253 0.42844 0.90576 0.0
H268 H 0.0934 0.56073 0.90568 0.0
C269 C 0.93803 0.45881 0.90577 0.0
C270 C 0.93425 0.52589 0.90563 0.0
H271 H -0.00114 0.37661 0.90576 0.0
H272 H 0.89511 0.42972 0.90574 0.0
C273 C 0.99103 0.56202 0.90568 0.0
C274 C 0.42736 0.49287 0.1569 0.0
C275 C 0.46303 0.43587 0.1568 0.0
H276 H 0.42942 0.5953 0.15677 0.0
C277 C 0.53009 0.43931 0.15693 0.0
H278 H 0.37556 0.49173 0.15685 0.0
C279 C 0.56089 0.49863 0.15685 0.0
C280 C 0.52522 0.55563 0.15669 0.0
H281 H 0.55884 0.39621 0.15687 0.0
H282 H 0.61269 0.49975 0.15676 0.0
C283 C 0.45817 0.55219 0.15687 0.0
C284 C 0.43627 0.95476 0.40565 0.0
C285 C 0.43285 0.02185 0.40546 0.0
H286 H 0.49666 0.87225 0.40558 0.0
C287 C 0.4898 0.0577 0.40536 0.0
H288 H 0.3932 0.92589 0.40574 0.0
C289 C 0.54906 0.02703 0.40528 0.0
C290 C 0.55248 0.95994 0.40528 0.0
H291 H 0.48869 0.10954 0.40523 0.0
H292 H 0.59213 0.0559 0.40509 0.0
C293 C 0.49554 0.92409 0.40555 0.0
C294 C 0.05863 -0.00502 0.65388 0.0
C295 C 0.02241 0.05165 0.65387 0.0
H296 H 0.05756 0.89251 0.6539 0.0
C297 C 0.95539 0.04754 0.65386 0.0
H298 H 0.11042 -0.00338 0.65391 0.0
C299 C 0.92517 0.98791 0.65381 0.0
C300 C 0.96139 0.93124 0.65383 0.0
H301 H 0.92623 0.09036 0.65385 0.0
H302 H 0.87339 0.98629 0.65378 0.0
C303 C 0.0284 0.93534 0.65389 0.0
C304 C 0.48255 0.9258 0.26475 0.0
C305 C 0.54586 0.94852 0.26523 0.0
H306 H 0.38297 0.94936 0.26494 0.0
C307 C 0.55663 0.01494 0.2648 0.0
H308 H 0.47257 0.87491 0.26495 0.0
C309 C 0.5052 0.05767 0.26492 0.0
C310 C 0.44188 0.03493 0.2653 0.0
H311 H 0.60477 0.03411 0.26512 0.0
H312 H 0.51518 0.10854 0.26525 0.0
C313 C 0.43112 0.96853 0.2647 0.0
C314 C 0.92784 0.00846 0.51733 0.0
C315 C 0.95009 0.94499 0.5176 0.0
H316 H 0.95223 0.10797 0.51758 0.0
C317 C 0.01636 0.93383 0.51709 0.0
H318 H 0.87707 0.01867 0.5176 0.0
C319 C 0.05946 0.98502 0.51724 0.0
C320 C 0.03723 0.04847 0.51769 0.0
H321 H 0.03511 0.88553 0.51727 0.0
H322 H 0.11024 0.97479 0.51744 0.0
C323 C 0.97096 0.05966 0.51727 0.0
C324 C 0.97922 0.42806 0.7658 0.0
C325 C 0.04265 0.45043 0.7662 0.0
H326 H 0.8798 0.45226 0.76589 0.0
C327 C 0.05386 0.51675 0.76557 0.0
H328 H 0.96897 0.37723 0.76616 0.0
C329 C 0.00271 0.5598 0.76557 0.0
C330 C 0.93928 0.53745 0.766 0.0
H331 H 0.10213 0.5356 0.76583 0.0
H332 H 0.01296 0.61064 0.76576 0.0
C333 C 0.92808 0.4711 0.7656 0.0
C334 C 0.55925 0.48185 0.01453 0.0
C335 C 0.53679 0.54525 0.01494 0.0
H336 H 0.53527 0.38225 0.01479 0.0
C337 C 0.47049 0.55615 0.0144 0.0
H338 H 0.61005 0.4718 0.01481 0.0
C339 C 0.42757 0.50477 0.01453 0.0
C340 C 0.45003 0.44139 0.01501 0.0
H341 H 0.45154 0.60438 0.01466 0.0
H342 H 0.37677 0.51483 0.0148 0.0
C343 C 0.51633 0.43047 0.01447 0.0
C344 C 0.43138 0.51779 0.91432 0.0
C345 C 0.4424 0.45145 0.91381 0.0
H346 H 0.47251 0.61166 0.91391 0.0
C347 C 0.50577 0.42907 0.91418 0.0
H348 H 0.38315 0.53664 0.91407 0.0
C349 C 0.55704 0.47212 0.91424 0.0
C350 C 0.546 0.53846 0.91372 0.0
H351 H 0.51589 0.37824 0.91391 0.0
H352 H 0.60526 0.45327 0.91393 0.0
C353 C 0.48263 0.56083 0.91418 0.0
C354 C 0.47225 0.93266 0.16252 0.0
C355 C 0.53847 0.94421 0.16196 0.0
H356 H 0.37823 0.97311 0.16227 0.0
C357 C 0.56051 0.0078 0.16227 0.0
H358 H 0.45367 0.88424 0.16231 0.0
C359 C 0.51723 0.05876 0.16242 0.0
C360 C 0.45099 0.0472 0.16204 0.0
H361 H 0.61124 0.0183 0.16195 0.0
H362 H 0.53578 0.10718 0.16212 0.0
C363 C 0.42897 0.98361 0.16245 0.0
C364 C 0.92975 0.01385 0.41167 0.0
C365 C 0.94087 0.94751 0.41125 0.0
H366 H 0.97076 0.10778 0.41144 0.0
C367 C 0.00426 0.92522 0.41172 0.0
H368 H 0.8815 0.03264 0.41135 0.0
C369 C 0.05545 0.96834 0.41193 0.0
C370 C 0.04436 0.03468 0.41148 0.0
H371 H 0.01446 0.8744 0.41151 0.0
H372 H 0.10371 0.94955 0.41179 0.0
C373 C 0.98094 0.05696 0.41169 0.0
C374 C 0.96803 0.42848 0.66487 0.0
C375 C 0.03435 0.43955 0.66449 0.0
H376 H 0.87433 0.46961 0.66435 0.0
C377 C 0.0568 0.50299 0.66504 0.0
H378 H 0.9491 0.38022 0.66449 0.0
C379 C 0.01389 0.55427 0.6651 0.0
C380 C 0.9476 0.54324 0.66442 0.0
H381 H 0.10761 0.51317 0.66489 0.0
H382 H 0.03286 0.60254 0.66491 0.0
C383 C 0.92512 0.47978 0.66475 0.0
C384 C 0.2797 0.10103 0.33241 0.0
C385 C 0.2641 0.15525 0.32365 0.0
H386 H 0.28277 0.05774 0.35452 0.0
C387 C 0.24357 0.21112 0.33122 0.0
H388 H 0.2963 0.05733 0.32703 0.0
C389 C 0.23649 0.21149 0.34729 0.0
C390 C 0.24885 0.15566 0.35579 0.0
H391 H 0.23144 0.25367 0.32474 0.0
H392 H 0.21904 0.25419 0.35295 0.0
C393 C 0.27172 0.10111 0.34822 0.0
C394 C 0.88652 0.72273 0.58155 0.0
C395 C 0.83089 0.74186 0.57384 0.0
H396 H 0.93069 0.70013 0.6028 0.0
C397 C 0.77398 0.75013 0.58221 0.0
H398 H 0.93086 0.71488 0.57538 0.0
C399 C 0.77396 0.7423 0.59825 0.0
C400 C 0.83058 0.72498 0.60594 0.0
H401 H 0.73043 0.76463 0.57645 0.0
H402 H 0.7303 0.75092 0.60462 0.0
C403 C 0.88627 0.71395 0.59733 0.0
C404 C 0.23802 0.27845 0.83207 0.0
C405 C 0.23593 0.33659 0.82393 0.0
H406 H 0.24606 0.23355 0.85428 0.0
C407 C 0.24233 0.39435 0.83199 0.0
H408 H 0.23329 0.23325 0.82609 0.0
C409 C 0.25057 0.39449 0.84778 0.0
C410 C 0.25179 0.3369 0.85608 0.0
H411 H 0.24154 0.44003 0.82609 0.0
H412 H 0.25513 0.44032 0.8535 0.0
C413 C 0.24529 0.27863 0.84813 0.0
C414 C 0.59835 0.71587 0.08201 0.0
C415 C 0.6541 0.72648 0.07337 0.0
H416 H 0.55415 0.71617 0.104 0.0
C417 C 0.7111 0.74266 0.08105 0.0
H418 H 0.55363 0.70297 0.07654 0.0
C419 C 0.71148 0.74962 0.09711 0.0
C420 C 0.65461 0.74159 0.10552 0.0
H421 H 0.75481 0.75094 0.07466 0.0
H422 H 0.75539 0.76316 0.10286 0.0
C423 C 0.59852 0.72375 0.09781 0.0
C424 C 0.74507 0.71046 0.83163 0.0
C425 C 0.75049 0.65217 0.82365 0.0
H426 H 0.73512 0.75581 0.85374 0.0
C427 C 0.74937 0.59456 0.83194 0.0
H428 H 0.74579 0.75555 0.82549 0.0
C429 C 0.74236 0.59469 0.84776 0.0
C430 C 0.73709 0.65245 0.85587 0.0
H431 H 0.75311 0.54872 0.82619 0.0
H432 H 0.74164 0.54898 0.85365 0.0
C433 C 0.73901 0.71061 0.84773 0.0
C434 C 0.38958 0.26555 0.09796 0.0
C435 C 0.33356 0.24846 0.10582 0.0
H436 H 0.43418 0.2848 0.07655 0.0
C437 C 0.27651 0.24013 0.09752 0.0
H438 H 0.43411 0.27331 0.10406 0.0
C439 C 0.27661 0.24611 0.08143 0.0
C440 C 0.33354 0.26156 0.07361 0.0
H441 H 0.23266 0.22713 0.10338 0.0
H442 H 0.23275 0.23765 0.07513 0.0
C443 C 0.3895 0.27244 0.08213 0.0
C444 C 0.74524 0.76983 0.33086 0.0
C445 C 0.7205 0.82429 0.32341 0.0
H446 H 0.77321 0.72803 0.3525 0.0
C447 C 0.69969 0.87632 0.3323 0.0
H448 H 0.7614 0.72896 0.32428 0.0
C449 C 0.70725 0.87606 0.34812 0.0
C450 C 0.7349 0.82343 0.35555 0.0
H451 H 0.67956 0.9187 0.32701 0.0
H452 H 0.69256 0.91799 0.35454 0.0
C453 C 0.75197 0.76923 0.34693 0.0
C454 C 0.2113 0.2443 0.59857 0.0
C455 C 0.15458 0.26178 0.60622 0.0
H456 H 0.25557 0.2236 0.57675 0.0
C457 C 0.0997 0.27526 0.59752 0.0
H458 H 0.25436 0.23386 0.60501 0.0
C459 C 0.10023 0.26853 0.58169 0.0
C460 C 0.15583 0.24902 0.57401 0.0
H461 H 0.05528 0.2894 0.60296 0.0
H462 H 0.05643 0.2781 0.57544 0.0
C463 C 0.21206 0.23848 0.58248 0.0
C464 C 0.1908 0.20546 0.22218 0.0
C465 C 0.23182 0.24609 0.23053 0.0
H466 H 0.16295 0.17096 0.20002 0.0
C467 C 0.2668 0.29303 0.22262 0.0
H468 H 0.16224 0.16949 0.22798 0.0
C469 C 0.26699 0.2939 0.20659 0.0
C470 C 0.23214 0.24794 0.19822 0.0
H471 H 0.29812 0.32561 0.22871 0.0
H472 H 0.29833 0.32744 0.20078 0.0
C473 C 0.19091 0.20642 0.20614 0.0
C474 C 0.77394 0.69286 0.45682 0.0
C475 C 0.7359 0.73658 0.44872 0.0
H476 H 0.80776 0.66255 0.4788 0.0
C477 C 0.69261 0.77533 0.45692 0.0
H478 H 0.80716 0.66186 0.45085 0.0
C479 C 0.693 0.77594 0.47296 0.0
C480 C 0.73674 0.73784 0.48104 0.0
H481 H 0.66172 0.80875 0.45098 0.0
H482 H 0.66286 0.80997 0.47893 0.0
C483 C 0.77437 0.69351 0.47286 0.0
C484 C 0.29273 0.26782 0.70722 0.0
C485 C 0.24716 0.23132 0.69927 0.0
H486 H 0.32524 0.30086 0.72908 0.0
C487 C 0.20751 0.1892 0.7076 0.0
H488 H 0.32453 0.30004 0.70113 0.0
C489 C 0.2078 0.18967 0.72365 0.0
C490 C 0.24767 0.23237 0.73158 0.0
H491 H 0.17265 0.15947 0.70178 0.0
H492 H 0.17297 0.16077 0.72974 0.0
C493 C 0.29294 0.26836 0.72325 0.0
C494 C 0.79677 0.7193 0.95659 0.0
C495 C 0.75195 0.75584 0.94831 0.0
H496 H 0.82756 0.68657 -0.02133 0.0
C497 C 0.71236 0.79858 0.95629 0.0
H498 H 0.82888 0.68677 0.95073 0.0
C499 C 0.71175 0.79848 -0.02767 0.0
C500 C 0.75077 0.75573 -0.0194 0.0
H501 H 0.67791 0.82791 0.95023 0.0
H502 H 0.67702 0.82823 -0.02182 0.0
C503 C 0.79622 0.71927 -0.02737 0.0
C504 C 0.19089 0.27016 -0.02711 0.0
C505 C 0.23569 0.23282 -0.01915 0.0
H506 H 0.15919 0.30394 0.95103 0.0
C507 C 0.27443 0.18996 -0.02748 0.0
H508 H 0.15981 0.303 -0.02103 0.0
C509 C 0.27423 0.19053 0.95648 0.0
C510 C 0.23535 0.23405 0.94855 0.0
H511 H 0.30864 0.15957 -0.02164 0.0
H512 H 0.30846 0.161 0.95041 0.0
C513 C 0.19077 0.2708 0.95686 0.0
C514 C 0.7229 0.69365 0.22192 0.0
C515 C 0.75719 0.74048 0.23001 0.0
H516 H 0.69201 0.66037 0.19995 0.0
C517 C 0.7978 0.78219 0.22182 0.0
H518 H 0.69194 0.66025 0.22789 0.0
C519 C 0.79785 0.78236 0.20577 0.0
C520 C 0.75719 0.74088 0.19771 0.0
H521 H 0.82583 0.81812 0.22776 0.0
H522 H 0.82538 0.8186 0.19979 0.0
C523 C 0.72288 0.69389 0.20589 0.0
C524 C 0.21322 0.29348 0.45655 0.0
C525 C 0.25056 0.24852 0.44865 0.0
H526 H 0.18058 0.32661 0.4784 0.0
C527 C 0.29385 0.21036 0.457 0.0
H528 H 0.18004 0.32411 0.45045 0.0
C529 C 0.29415 0.21164 0.47304 0.0
C530 C 0.25109 0.25105 0.48097 0.0
H531 H 0.32423 0.17601 0.45121 0.0
H532 H 0.32425 0.17803 0.47915 0.0
C533 C 0.21348 0.29472 0.47259 0.0
C534 C 0.77333 0.79661 0.70697 0.0
C535 C 0.73429 0.75366 0.69875 0.0
H536 H 0.80731 0.82637 0.72903 0.0
C537 C 0.68897 0.71706 0.70677 0.0
H538 H 0.80795 0.82646 0.70108 0.0
C539 C 0.68857 0.71722 0.72281 0.0
C540 C 0.73339 0.75402 0.73105 0.0
H541 H 0.65763 0.6842 0.70077 0.0
H542 H 0.65656 0.68461 0.72872 0.0
C543 C 0.77285 0.79684 0.72301 0.0
loop_
_geom_bond_atom_site_label_1
_geom_bond_atom_site_label_2
_geom_bond_distance
_geom_bond_site_symmetry_2
_ccdc_geom_bond_type
C0 O1 1.306 . S
C0 O3 1.160 . S
O1 C0 1.306 . S
O1 Cd2 2.228 . S
Cd2 O1 2.228 . S
Cd2 O6 2.273 . S
Cd2 O10 2.277 . S
O3 C0 1.160 . S
O3 Cd4 2.203 . S
Cd4 O3 2.203 . S
Cd4 O6 2.411 . S
Cd4 O7 2.333 . S
Cd4 O8 2.352 . S
Cd4 O12 2.277 . S
Cd4 O13 2.356 . S
C5 O10 1.209 . S
C5 O12 1.226 . S
O6 Cd2 2.273 . S
O6 Cd4 2.411 . S
O6 C9 1.320 . S
O7 Cd4 2.333 . S
O7 C9 1.214 . S
O8 Cd4 2.352 . S
O8 C11 1.258 . S
C9 O6 1.320 . S
C9 O7 1.214 . S
O10 Cd2 2.277 . S
O10 C5 1.209 . S
C11 O8 1.258 . S
C11 O13 1.282 . S
O12 Cd4 2.277 . S
O12 C5 1.226 . S
O13 Cd4 2.356 . S
O13 C11 1.282 . S
C14 O15 1.306 . S
C14 O17 1.160 . S
O15 C14 1.306 . S
O15 Cd16 2.228 . S
Cd16 O15 2.228 . S
Cd16 O20 2.273 . S
Cd16 O24 2.277 . S
O17 C14 1.160 . S
O17 Cd18 2.203 . S
Cd18 O17 2.203 . S
Cd18 O20 2.411 . S
Cd18 O21 2.333 . S
Cd18 O22 2.352 . S
Cd18 O26 2.277 . S
Cd18 O27 2.356 . S
C19 O24 1.209 . S
C19 O26 1.226 . S
O20 Cd16 2.273 . S
O20 Cd18 2.411 . S
O20 C23 1.320 . S
O21 Cd18 2.333 . S
O21 C23 1.214 . S
O22 Cd18 2.352 . S
O22 C25 1.258 . S
C23 O20 1.320 . S
C23 O21 1.214 . S
O24 Cd16 2.277 . S
O24 C19 1.209 . S
C25 O22 1.258 . S
C25 O27 1.282 . S
O26 Cd18 2.277 . S
O26 C19 1.226 . S
O27 Cd18 2.356 . S
O27 C25 1.282 . S
C28 O29 1.306 . S
C28 O31 1.160 . S
O29 C28 1.306 . S
O29 Cd30 2.228 . S
Cd30 O29 2.228 . S
Cd30 O34 2.273 . S
Cd30 O38 2.277 . S
O31 C28 1.160 . S
O31 Cd32 2.203 . S
Cd32 O31 2.203 . S
Cd32 O34 2.411 . S
Cd32 O35 2.333 . S
Cd32 O36 2.352 . S
Cd32 O40 2.277 . S
Cd32 O41 2.356 . S
C33 O38 1.209 . S
C33 O40 1.226 . S
O34 Cd30 2.273 . S
O34 Cd32 2.411 . S
O34 C37 1.320 . S
O35 Cd32 2.333 . S
O35 C37 1.214 . S
O36 Cd32 2.352 . S
O36 C39 1.258 . S
C37 O34 1.320 . S
C37 O35 1.214 . S
O38 Cd30 2.277 . S
O38 C33 1.209 . S
C39 O36 1.258 . S
C39 O41 1.282 . S
O40 Cd32 2.277 . S
O40 C33 1.226 . S
O41 Cd32 2.356 . S
O41 C39 1.282 . S
C42 O43 1.306 . S
C42 O45 1.160 . S
O43 C42 1.306 . S
O43 Cd44 2.228 . S
Cd44 O43 2.228 . S
Cd44 O48 2.273 . S
Cd44 O52 2.277 . S
O45 C42 1.160 . S
O45 Cd46 2.203 . S
Cd46 O45 2.203 . S
Cd46 O48 2.411 . S
Cd46 O49 2.333 . S
Cd46 O50 2.352 . S
Cd46 O54 2.277 . S
Cd46 O55 2.356 . S
C47 O52 1.209 . S
C47 O54 1.226 . S
O48 Cd44 2.273 . S
O48 Cd46 2.411 . S
O48 C51 1.320 . S
O49 Cd46 2.333 . S
O49 C51 1.214 . S
O50 Cd46 2.352 . S
O50 C53 1.258 . S
C51 O48 1.320 . S
C51 O49 1.214 . S
O52 Cd44 2.277 . S
O52 C47 1.209 . S
C53 O50 1.258 . S
C53 O55 1.282 . S
O54 Cd46 2.277 . S
O54 C47 1.226 . S
O55 Cd46 2.356 . S
O55 C53 1.282 . S
C56 O57 1.306 . S
C56 O59 1.160 . S
O57 C56 1.306 . S
O57 Cd58 2.228 . S
Cd58 O57 2.228 . S
Cd58 O62 2.273 . S
Cd58 O66 2.277 . S
O59 C56 1.160 . S
O59 Cd60 2.203 . S
Cd60 O59 2.203 . S
Cd60 O62 2.411 . S
Cd60 O63 2.333 . S
Cd60 O64 2.352 . S
Cd60 O68 2.277 . S
Cd60 O69 2.356 . S
C61 O66 1.209 . S
C61 O68 1.226 . S
O62 Cd58 2.273 . S
O62 Cd60 2.411 . S
O62 C65 1.320 . S
O63 Cd60 2.333 . S
O63 C65 1.214 . S
O64 Cd60 2.352 . S
O64 C67 1.258 . S
C65 O62 1.320 . S
C65 O63 1.214 . S
O66 Cd58 2.277 . S
O66 C61 1.209 . S
C67 O64 1.258 . S
C67 O69 1.282 . S
O68 Cd60 2.277 . S
O68 C61 1.226 . S
O69 Cd60 2.356 . S
O69 C67 1.282 . S
C70 O71 1.306 . S
C70 O73 1.160 . S
O71 C70 1.306 . S
O71 Cd72 2.228 . S
Cd72 O71 2.228 . S
Cd72 O76 2.273 . S
Cd72 O80 2.277 . S
O73 C70 1.160 . S
O73 Cd74 2.203 . S
Cd74 O73 2.203 . S
Cd74 O76 2.411 . S
Cd74 O77 2.333 . S
Cd74 O78 2.352 . S
Cd74 O82 2.277 . S
Cd74 O83 2.356 . S
C75 O80 1.209 . S
C75 O82 1.226 . S
O76 Cd72 2.273 . S
O76 Cd74 2.411 . S
O76 C79 1.320 . S
O77 Cd74 2.333 . S
O77 C79 1.214 . S
O78 Cd74 2.352 . S
O78 C81 1.258 . S
C79 O76 1.320 . S
C79 O77 1.214 . S
O80 Cd72 2.277 . S
O80 C75 1.209 . S
C81 O78 1.258 . S
C81 O83 1.282 . S
O82 Cd74 2.277 . S
O82 C75 1.226 . S
O83 Cd74 2.356 . S
O83 C81 1.282 . S
C84 O85 1.306 . S
C84 O87 1.160 . S
O85 C84 1.306 . S
O85 Cd86 2.228 . S
Cd86 O85 2.228 . S
Cd86 O90 2.273 . S
Cd86 O94 2.277 . S
O87 C84 1.160 . S
O87 Cd88 2.203 . S
Cd88 O87 2.203 . S
Cd88 O90 2.411 . S
Cd88 O91 2.333 . S
Cd88 O92 2.352 . S
Cd88 O96 2.277 . S
Cd88 O97 2.356 . S
C89 O94 1.209 . S
C89 O96 1.226 . S
O90 Cd86 2.273 . S
O90 Cd88 2.411 . S
O90 C93 1.320 . S
O91 Cd88 2.333 . S
O91 C93 1.214 . S
O92 Cd88 2.352 . S
O92 C95 1.258 . S
C93 O90 1.320 . S
C93 O91 1.214 . S
O94 Cd86 2.277 . S
O94 C89 1.209 . S
C95 O92 1.258 . S
C95 O97 1.282 . S
O96 Cd88 2.277 . S
O96 C89 1.226 . S
O97 Cd88 2.356 . S
O97 C95 1.282 . S
C98 O99 1.306 . S
C98 O101 1.160 . S
O99 C98 1.306 . S
O99 Cd100 2.228 . S
Cd100 O99 2.228 . S
Cd100 O104 2.273 . S
Cd100 O108 2.277 . S
O101 C98 1.160 . S
O101 Cd102 2.203 . S
Cd102 O101 2.203 . S
Cd102 O104 2.411 . S
Cd102 O105 2.333 . S
Cd102 O106 2.352 . S
Cd102 O110 2.277 . S
Cd102 O111 2.356 . S
C103 O108 1.209 . S
C103 O110 1.226 . S
O104 Cd100 2.273 . S
O104 Cd102 2.411 . S
O104 C107 1.320 . S
O105 Cd102 2.333 . S
O105 C107 1.214 . S
O106 Cd102 2.352 . S
O106 C109 1.258 . S
C107 O104 1.320 . S
C107 O105 1.214 . S
O108 Cd100 2.277 . S
O108 C103 1.209 . S
C109 O106 1.258 . S
C109 O111 1.282 . S
O110 Cd102 2.277 . S
O110 C103 1.226 . S
O111 Cd102 2.356 . S
O111 C109 1.282 . S
C112 O113 1.306 . S
C112 O115 1.160 . S
O113 C112 1.306 . S
O113 Cd114 2.228 . S
Cd114 O113 2.228 . S
Cd114 O118 2.273 . S
Cd114 O122 2.277 . S
O115 C112 1.160 . S
O115 Cd116 2.203 . S
Cd116 O115 2.203 . S
Cd116 O118 2.411 . S
Cd116 O119 2.333 . S
Cd116 O120 2.352 . S
Cd116 O124 2.277 . S
Cd116 O125 2.356 . S
C117 O122 1.209 . S
C117 O124 1.226 . S
O118 Cd114 2.273 . S
O118 Cd116 2.411 . S
O118 C121 1.320 . S
O119 Cd116 2.333 . S
O119 C121 1.214 . S
O120 Cd116 2.352 . S
O120 C123 1.258 . S
C121 O118 1.320 . S
C121 O119 1.214 . S
O122 Cd114 2.277 . S
O122 C117 1.209 . S
C123 O120 1.258 . S
C123 O125 1.282 . S
O124 Cd116 2.277 . S
O124 C117 1.226 . S
O125 Cd116 2.356 . S
O125 C123 1.282 . S
C126 O127 1.306 . S
C126 O129 1.160 . S
O127 C126 1.306 . S
O127 Cd128 2.228 . S
Cd128 O127 2.228 . S
Cd128 O132 2.273 . S
Cd128 O136 2.277 . S
O129 C126 1.160 . S
O129 Cd130 2.203 . S
Cd130 O129 2.203 . S
Cd130 O132 2.411 . S
Cd130 O133 2.333 . S
Cd130 O134 2.352 . S
Cd130 O138 2.277 . S
Cd130 O139 2.356 . S
C131 O136 1.209 . S
C131 O138 1.226 . S
O132 Cd128 2.273 . S
O132 Cd130 2.411 . S
O132 C135 1.320 . S
O133 Cd130 2.333 . S
O133 C135 1.214 . S
O134 Cd130 2.352 . S
O134 C137 1.258 . S
C135 O132 1.320 . S
C135 O133 1.214 . S
O136 Cd128 2.277 . S
O136 C131 1.209 . S
C137 O134 1.258 . S
C137 O139 1.282 . S
O138 Cd130 2.277 . S
O138 C131 1.226 . S
O139 Cd130 2.356 . S
O139 C137 1.282 . S
C140 O141 1.306 . S
C140 O143 1.160 . S
O141 C140 1.306 . S
O141 Cd142 2.228 . S
Cd142 O141 2.228 . S
Cd142 O146 2.273 . S
Cd142 O150 2.277 . S
O143 C140 1.160 . S
O143 Cd144 2.203 . S
Cd144 O143 2.203 . S
Cd144 O146 2.411 . S
Cd144 O147 2.333 . S
Cd144 O148 2.352 . S
Cd144 O152 2.277 . S
Cd144 O153 2.356 . S
C145 O150 1.209 . S
C145 O152 1.226 . S
O146 Cd142 2.273 . S
O146 Cd144 2.411 . S
O146 C149 1.320 . S
O147 Cd144 2.333 . S
O147 C149 1.214 . S
O148 Cd144 2.352 . S
O148 C151 1.258 . S
C149 O146 1.320 . S
C149 O147 1.214 . S
O150 Cd142 2.277 . S
O150 C145 1.209 . S
C151 O148 1.258 . S
C151 O153 1.282 . S
O152 Cd144 2.277 . S
O152 C145 1.226 . S
O153 Cd144 2.356 . S
O153 C151 1.282 . S
C154 O155 1.306 . S
C154 O157 1.160 . S
O155 C154 1.306 . S
O155 Cd156 2.228 . S
Cd156 O155 2.228 . S
Cd156 O160 2.273 . S
Cd156 O164 2.277 . S
O157 C154 1.160 . S
O157 Cd158 2.203 . S
Cd158 O157 2.203 . S
Cd158 O160 2.411 . S
Cd158 O161 2.333 . S
Cd158 O162 2.352 . S
Cd158 O166 2.277 . S
Cd158 O167 2.356 . S
C159 O164 1.209 . S
C159 O166 1.226 . S
O160 Cd156 2.273 . S
O160 Cd158 2.411 . S
O160 C163 1.320 . S
O161 Cd158 2.333 . S
O161 C163 1.214 . S
O162 Cd158 2.352 . S
O162 C165 1.258 . S
C163 O160 1.320 . S
C163 O161 1.214 . S
O164 Cd156 2.277 . S
O164 C159 1.209 . S
C165 O162 1.258 . S
C165 O167 1.282 . S
O166 Cd158 2.277 . S
O166 C159 1.226 . S
O167 Cd158 2.356 . S
O167 C165 1.282 . S
C168 O169 1.306 . S
C168 O171 1.160 . S
O169 C168 1.306 . S
O169 Cd170 2.228 . S
Cd170 O169 2.228 . S
Cd170 O174 2.273 . S
Cd170 O178 2.277 . S
O171 C168 1.160 . S
O171 Cd172 2.203 . S
Cd172 O171 2.203 . S
Cd172 O174 2.411 . S
Cd172 O175 2.333 . S
Cd172 O176 2.352 . S
Cd172 O180 2.277 . S
Cd172 O181 2.356 . S
C173 O178 1.209 . S
C173 O180 1.226 . S
O174 Cd170 2.273 . S
O174 Cd172 2.411 . S
O174 C177 1.320 . S
O175 Cd172 2.333 . S
O175 C177 1.214 . S
O176 Cd172 2.352 . S
O176 C179 1.258 . S
C177 O174 1.320 . S
C177 O175 1.214 . S
O178 Cd170 2.277 . S
O178 C173 1.209 . S
C179 O176 1.258 . S
C179 O181 1.282 . S
O180 Cd172 2.277 . S
O180 C173 1.226 . S
O181 Cd172 2.356 . S
O181 C179 1.282 . S
C182 O183 1.306 . S
C182 O185 1.160 . S
O183 C182 1.306 . S
O183 Cd184 2.228 . S
Cd184 O183 2.228 . S
Cd184 O188 2.273 . S
Cd184 O192 2.277 . S
O185 C182 1.160 . S
O185 Cd186 2.203 . S
Cd186 O185 2.203 . S
Cd186 O188 2.411 . S
Cd186 O189 2.333 . S
Cd186 O190 2.352 . S
Cd186 O194 2.277 . S
Cd186 O195 2.356 . S
C187 O192 1.209 . S
C187 O194 1.226 . S
O188 Cd184 2.273 . S
O188 Cd186 2.411 . S
O188 C191 1.320 . S
O189 Cd186 2.333 . S
O189 C191 1.214 . S
O190 Cd186 2.352 . S
O190 C193 1.258 . S
C191 O188 1.320 . S
C191 O189 1.214 . S
O192 Cd184 2.277 . S
O192 C187 1.209 . S
C193 O190 1.258 . S
C193 O195 1.282 . S
O194 Cd186 2.277 . S
O194 C187 1.226 . S
O195 Cd186 2.356 . S
O195 C193 1.282 . S
C196 O197 1.306 . S
C196 O199 1.160 . S
O197 C196 1.306 . S
O197 Cd198 2.228 . S
Cd198 O197 2.228 . S
Cd198 O202 2.273 . S
Cd198 O206 2.277 . S
O199 C196 1.160 . S
O199 Cd200 2.203 . S
Cd200 O199 2.203 . S
Cd200 O202 2.411 . S
Cd200 O203 2.333 . S
Cd200 O204 2.352 . S
Cd200 O208 2.277 . S
Cd200 O209 2.356 . S
C201 O206 1.209 . S
C201 O208 1.226 . S
O202 Cd198 2.273 . S
O202 Cd200 2.411 . S
O202 C205 1.320 . S
O203 Cd200 2.333 . S
O203 C205 1.214 . S
O204 Cd200 2.352 . S
O204 C207 1.258 . S
C205 O202 1.320 . S
C205 O203 1.214 . S
O206 Cd198 2.277 . S
O206 C201 1.209 . S
C207 O204 1.258 . S
C207 O209 1.282 . S
O208 Cd200 2.277 . S
O208 C201 1.226 . S
O209 Cd200 2.356 . S
O209 C207 1.282 . S
C210 O211 1.306 . S
C210 O213 1.160 . S
O211 C210 1.306 . S
O211 Cd212 2.228 . S
Cd212 O211 2.228 . S
Cd212 O216 2.273 . S
Cd212 O220 2.277 . S
O213 C210 1.160 . S
O213 Cd214 2.203 . S
Cd214 O213 2.203 . S
Cd214 O216 2.411 . S
Cd214 O217 2.333 . S
Cd214 O218 2.352 . S
Cd214 O222 2.277 . S
Cd214 O223 2.356 . S
C215 O220 1.209 . S
C215 O222 1.226 . S
O216 Cd212 2.273 . S
O216 Cd214 2.411 . S
O216 C219 1.320 . S
O217 Cd214 2.333 . S
O217 C219 1.214 . S
O218 Cd214 2.352 . S
O218 C221 1.258 . S
C219 O216 1.320 . S
C219 O217 1.214 . S
O220 Cd212 2.277 . S
O220 C215 1.209 . S
C221 O218 1.258 . S
C221 O223 1.282 . S
O222 Cd214 2.277 . S
O222 C215 1.226 . S
O223 Cd214 2.356 . S
O223 C221 1.282 . S
C224 C225 1.387 . S
C224 H228 0.950 . S
C224 C233 1.390 1_665 S
C225 C224 1.387 . S
C225 C227 1.387 . S
H226 C233 0.950 . S
C227 C225 1.387 . S
C227 C229 1.390 1_665 S
C227 H231 0.950 . S
H228 C224 0.950 . S
C229 C227 1.390 1_445 S
C229 C230 1.387 . S
C229 H232 0.950 . S
C230 C229 1.387 . S
C230 C233 1.387 . S
H231 C227 0.950 . S
H232 C229 0.950 . S
C233 C224 1.390 1_445 S
C233 H226 0.950 . S
C233 C230 1.387 . S
C234 C235 1.387 . S
C234 H238 0.950 . S
C234 C243 1.390 1_655 S
C235 C234 1.387 . S
C235 C237 1.387 . S
H236 C243 0.950 . S
C237 C235 1.387 . S
C237 C239 1.390 1_655 S
C237 H241 0.950 . S
H238 C234 0.950 . S
C239 C237 1.390 1_455 S
C239 C240 1.387 . S
C239 H242 0.950 . S
C240 C239 1.387 . S
C240 C243 1.387 . S
H241 C237 0.950 . S
H242 C239 0.950 . S
C243 C234 1.390 1_455 S
C243 H236 0.950 . S
C243 C240 1.387 . S
C244 C245 1.387 . S
C244 H248 0.950 . S
C244 C253 1.390 . S
C245 C244 1.387 . S
C245 C247 1.387 . S
H246 C253 0.950 . S
C247 C245 1.387 . S
C247 C249 1.390 . S
C247 H251 0.950 . S
H248 C244 0.950 . S
C249 C247 1.390 . S
C249 C250 1.387 . S
C249 H252 0.950 . S
C250 C249 1.387 . S
C250 C253 1.387 . S
H251 C247 0.950 . S
H252 C249 0.950 . S
C253 C244 1.390 . S
C253 H246 0.950 . S
C253 C250 1.387 . S
C254 C255 1.387 . S
C254 H258 0.950 . S
C254 C263 1.390 1_545 S
C255 C254 1.387 . S
C255 C257 1.387 . S
H256 C263 0.950 . S
C257 C255 1.387 . S
C257 C259 1.390 1_545 S
C257 H261 0.950 . S
H258 C254 0.950 . S
C259 C257 1.390 1_565 S
C259 C260 1.387 . S
C259 H262 0.950 . S
C260 C259 1.387 . S
C260 C263 1.387 . S
H261 C257 0.950 . S
H262 C259 0.950 . S
C263 C254 1.390 1_565 S
C263 H256 0.950 . S
C263 C260 1.387 . S
C264 C265 1.387 . S
C264 H268 0.950 . S
C264 C273 1.390 1_455 S
C265 C264 1.387 . S
C265 C267 1.387 . S
H266 C273 0.950 . S
C267 C265 1.387 . S
C267 C269 1.390 1_455 S
C267 H271 0.950 . S
H268 C264 0.950 . S
C269 C267 1.390 1_655 S
C269 C270 1.387 . S
C269 H272 0.950 . S
C270 C269 1.387 . S
C270 C273 1.387 . S
H271 C267 0.950 . S
H272 C269 0.950 . S
C273 C264 1.390 1_655 S
C273 H266 0.950 . S
C273 C270 1.387 . S
C274 C275 1.387 . S
C274 H278 0.950 . S
C274 C283 1.390 . S
C275 C274 1.387 . S
C275 C277 1.387 . S
H276 C283 0.950 . S
C277 C275 1.387 . S
C277 C279 1.390 . S
C277 H281 0.950 . S
H278 C274 0.950 . S
C279 C277 1.390 . S
C279 C280 1.387 . S
C279 H282 0.950 . S
C280 C279 1.387 . S
C280 C283 1.387 . S
H281 C277 0.950 . S
H282 C279 0.950 . S
C283 C274 1.390 . S
C283 H276 0.950 . S
C283 C280 1.387 . S
C284 C285 1.387 . S
C284 H288 0.950 . S
C284 C293 1.390 1_545 S
C285 C284 1.387 . S
C285 C287 1.387 . S
H286 C293 0.950 . S
C287 C285 1.387 . S
C287 C289 1.390 1_545 S
C287 H291 0.950 . S
H288 C284 0.950 . S
C289 C287 1.390 1_565 S
C289 C290 1.387 . S
C289 H292 0.950 . S
C290 C289 1.387 . S
C290 C293 1.387 . S
H291 C287 0.950 . S
H292 C289 0.950 . S
C293 C284 1.390 1_565 S
C293 H286 0.950 . S
C293 C290 1.387 . S
C294 C295 1.387 . S
C294 H298 0.950 . S
C294 C303 1.390 1_445 S
C295 C294 1.387 . S
C295 C297 1.387 . S
H296 C303 0.950 . S
C297 C295 1.387 . S
C297 C299 1.390 1_445 S
C297 H301 0.950 . S
H298 C294 0.950 . S
C299 C297 1.390 1_665 S
C299 C300 1.387 . S
C299 H302 0.950 . S
C300 C299 1.387 . S
C300 C303 1.387 . S
H301 C297 0.950 . S
H302 C299 0.950 . S
C303 C294 1.390 1_665 S
C303 H296 0.950 . S
C303 C300 1.387 . S
C304 C305 1.387 . S
C304 H308 0.950 . S
C304 C313 1.390 1_565 S
C305 C304 1.387 . S
C305 C307 1.387 . S
H306 C313 0.950 . S
C307 C305 1.387 . S
C307 C309 1.390 1_565 S
C307 H311 0.950 . S
H308 C304 0.950 . S
C309 C307 1.390 1_545 S
C309 C310 1.387 . S
C309 H312 0.950 . S
C310 C309 1.387 . S
C310 C313 1.387 . S
H311 C307 0.950 . S
H312 C309 0.950 . S
C313 C304 1.390 1_545 S
C313 H306 0.950 . S
C313 C310 1.387 . S
C314 C315 1.387 . S
C314 H318 0.950 . S
C314 C323 1.390 1_665 S
C315 C314 1.387 . S
C315 C317 1.387 . S
H316 C323 0.950 . S
C317 C315 1.387 . S
C317 C319 1.390 1_665 S
C317 H321 0.950 . S
H318 C314 0.950 . S
C319 C317 1.390 1_445 S
C319 C320 1.387 . S
C319 H322 0.950 . S
C320 C319 1.387 . S
C320 C323 1.387 . S
H321 C317 0.950 . S
H322 C319 0.950 . S
C323 C314 1.390 1_445 S
C323 H316 0.950 . S
C323 C320 1.387 . S
C324 C325 1.387 . S
C324 H328 0.950 . S
C324 C333 1.390 1_455 S
C325 C324 1.387 . S
C325 C327 1.387 . S
H326 C333 0.950 . S
C327 C325 1.387 . S
C327 C329 1.390 1_455 S
C327 H331 0.950 . S
H328 C324 0.950 . S
C329 C327 1.390 1_655 S
C329 C330 1.387 . S
C329 H332 0.950 . S
C330 C329 1.387 . S
C330 C333 1.387 . S
H331 C327 0.950 . S
H332 C329 0.950 . S
C333 C324 1.390 1_655 S
C333 H326 0.950 . S
C333 C330 1.387 . S
C334 C335 1.387 . S
C334 H338 0.950 . S
C334 C343 1.390 . S
C335 C334 1.387 . S
C335 C337 1.387 . S
H336 C343 0.950 . S
C337 C335 1.387 . S
C337 C339 1.390 . S
C337 H341 0.950 . S
H338 C334 0.950 . S
C339 C337 1.390 . S
C339 C340 1.387 . S
C339 H342 0.950 . S
C340 C339 1.387 . S
C340 C343 1.387 . S
H341 C337 0.950 . S
H342 C339 0.950 . S
C343 C334 1.390 . S
C343 H336 0.950 . S
C343 C340 1.387 . S
C344 C345 1.387 . S
C344 H348 0.950 . S
C344 C353 1.390 . S
C345 C344 1.387 . S
C345 C347 1.387 . S
H346 C353 0.950 . S
C347 C345 1.387 . S
C347 C349 1.390 . S
C347 H351 0.950 . S
H348 C344 0.950 . S
C349 C347 1.390 . S
C349 C350 1.387 . S
C349 H352 0.950 . S
C350 C349 1.387 . S
C350 C353 1.387 . S
H351 C347 0.950 . S
H352 C349 0.950 . S
C353 C344 1.390 . S
C353 H346 0.950 . S
C353 C350 1.387 . S
C354 C355 1.387 . S
C354 H358 0.950 . S
C354 C363 1.390 1_565 S
C355 C354 1.387 . S
C355 C357 1.387 . S
H356 C363 0.950 . S
C357 C355 1.387 . S
C357 C359 1.390 1_565 S
C357 H361 0.950 . S
H358 C354 0.950 . S
C359 C357 1.390 1_545 S
C359 C360 1.387 . S
C359 H362 0.950 . S
C360 C359 1.387 . S
C360 C363 1.387 . S
H361 C357 0.950 . S
H362 C359 0.950 . S
C363 C354 1.390 1_545 S
C363 H356 0.950 . S
C363 C360 1.387 . S
C364 C365 1.387 . S
C364 H368 0.950 . S
C364 C373 1.390 1_665 S
C365 C364 1.387 . S
C365 C367 1.387 . S
H366 C373 0.950 . S
C367 C365 1.387 . S
C367 C369 1.390 1_665 S
C367 H371 0.950 . S
H368 C364 0.950 . S
C369 C367 1.390 1_445 S
C369 C370 1.387 . S
C369 H372 0.950 . S
C370 C369 1.387 . S
C370 C373 1.387 . S
H371 C367 0.950 . S
H372 C369 0.950 . S
C373 C364 1.390 1_445 S
C373 H366 0.950 . S
C373 C370 1.387 . S
C374 C375 1.387 . S
C374 H378 0.950 . S
C374 C383 1.390 1_455 S
C375 C374 1.387 . S
C375 C377 1.387 . S
H376 C383 0.950 . S
C377 C375 1.387 . S
C377 C379 1.390 1_455 S
C377 H381 0.950 . S
H378 C374 0.950 . S
C379 C377 1.390 1_655 S
C379 C380 1.387 . S
C379 H382 0.950 . S
C380 C379 1.387 . S
C380 C383 1.387 . S
H381 C377 0.950 . S
H382 C379 0.950 . S
C383 C374 1.390 1_655 S
C383 H376 0.950 . S
C383 C380 1.387 . S
C384 C385 1.387 . S
C384 H388 0.950 . S
C384 C393 1.390 . S
C385 C384 1.387 . S
C385 C387 1.387 . S
H386 C393 0.950 . S
C387 C385 1.387 . S
C387 C389 1.390 . S
C387 H391 0.950 . S
H388 C384 0.950 . S
C389 C387 1.390 . S
C389 C390 1.387 . S
C389 H392 0.950 . S
C390 C389 1.387 . S
C390 C393 1.387 . S
H391 C387 0.950 . S
H392 C389 0.950 . S
C393 C384 1.390 . S
C393 H386 0.950 . S
C393 C390 1.387 . S
C394 C395 1.387 . S
C394 H398 0.950 . S
C394 C403 1.390 . S
C395 C394 1.387 . S
C395 C397 1.387 . S
H396 C403 0.950 . S
C397 C395 1.387 . S
C397 C399 1.390 . S
C397 H401 0.950 . S
H398 C394 0.950 . S
C399 C397 1.390 . S
C399 C400 1.387 . S
C399 H402 0.950 . S
C400 C399 1.387 . S
C400 C403 1.387 . S
H401 C397 0.950 . S
H402 C399 0.950 . S
C403 C394 1.390 . S
C403 H396 0.950 . S
C403 C400 1.387 . S
C404 C405 1.387 . S
C404 H408 0.950 . S
C404 C413 1.390 . S
C405 C404 1.387 . S
C405 C407 1.387 . S
H406 C413 0.950 . S
C407 C405 1.387 . S
C407 C409 1.390 . S
C407 H411 0.950 . S
H408 C404 0.950 . S
C409 C407 1.390 . S
C409 C410 1.387 . S
C409 H412 0.950 . S
C410 C409 1.387 . S
C410 C413 1.387 . S
H411 C407 0.950 . S
H412 C409 0.950 . S
C413 C404 1.390 . S
C413 H406 0.950 . S
C413 C410 1.387 . S
C414 C415 1.387 . S
C414 H418 0.950 . S
C414 C423 1.390 . S
C415 C414 1.387 . S
C415 C417 1.387 . S
H416 C423 0.950 . S
C417 C415 1.387 . S
C417 C419 1.390 . S
C417 H421 0.950 . S
H418 C414 0.950 . S
C419 C417 1.390 . S
C419 C420 1.387 . S
C419 H422 0.950 . S
C420 C419 1.387 . S
C420 C423 1.387 . S
H421 C417 0.950 . S
H422 C419 0.950 . S
C423 C414 1.390 . S
C423 H416 0.950 . S
C423 C420 1.387 . S
C424 C425 1.387 . S
C424 H428 0.950 . S
C424 C433 1.390 . S
C425 C424 1.387 . S
C425 C427 1.387 . S
H426 C433 0.950 . S
C427 C425 1.387 . S
C427 C429 1.390 . S
C427 H431 0.950 . S
H428 C424 0.950 . S
C429 C427 1.390 . S
C429 C430 1.387 . S
C429 H432 0.950 . S
C430 C429 1.387 . S
C430 C433 1.387 . S
H431 C427 0.950 . S
H432 C429 0.950 . S
C433 C424 1.390 . S
C433 H426 0.950 . S
C433 C430 1.387 . S
C434 C435 1.387 . S
C434 H438 0.950 . S
C434 C443 1.390 . S
C435 C434 1.387 . S
C435 C437 1.387 . S
H436 C443 0.950 . S
C437 C435 1.387 . S
C437 C439 1.390 . S
C437 H441 0.950 . S
H438 C434 0.950 . S
C439 C437 1.390 . S
C439 C440 1.387 . S
C439 H442 0.950 . S
C440 C439 1.387 . S
C440 C443 1.387 . S
H441 C437 0.950 . S
H442 C439 0.950 . S
C443 C434 1.390 . S
C443 H436 0.950 . S
C443 C440 1.387 . S
C444 C445 1.387 . S
C444 H448 0.950 . S
C444 C453 1.390 . S
C445 C444 1.387 . S
C445 C447 1.387 . S
H446 C453 0.950 . S
C447 C445 1.387 . S
C447 C449 1.390 . S
C447 H451 0.950 . S
H448 C444 0.950 . S
C449 C447 1.390 . S
C449 C450 1.387 . S
C449 H452 0.950 . S
C450 C449 1.387 . S
C450 C453 1.387 . S
H451 C447 0.950 . S
H452 C449 0.950 . S
C453 C444 1.390 . S
C453 H446 0.950 . S
C453 C450 1.387 . S
C454 C455 1.387 . S
C454 H458 0.950 . S
C454 C463 1.390 . S
C455 C454 1.387 . S
C455 C457 1.387 . S
H456 C463 0.950 . S
C457 C455 1.387 . S
C457 C459 1.390 . S
C457 H461 0.950 . S
H458 C454 0.950 . S
C459 C457 1.390 . S
C459 C460 1.387 . S
C459 H462 0.950 . S
C460 C459 1.387 . S
C460 C463 1.387 . S
H461 C457 0.950 . S
H462 C459 0.950 . S
C463 C454 1.390 . S
C463 H456 0.950 . S
C463 C460 1.387 . S
C464 C465 1.387 . S
C464 H468 0.950 . S
C464 C473 1.390 . S
C465 C464 1.387 . S
C465 C467 1.387 . S
H466 C473 0.950 . S
C467 C465 1.387 . S
C467 C469 1.390 . S
C467 H471 0.950 . S
H468 C464 0.950 . S
C469 C467 1.390 . S
C469 C470 1.387 . S
C469 H472 0.950 . S
C470 C469 1.387 . S
C470 C473 1.387 . S
H471 C467 0.950 . S
H472 C469 0.950 . S
C473 C464 1.390 . S
C473 H466 0.950 . S
C473 C470 1.387 . S
C474 C475 1.387 . S
C474 H478 0.950 . S
C474 C483 1.390 . S
C475 C474 1.387 . S
C475 C477 1.387 . S
H476 C483 0.950 . S
C477 C475 1.387 . S
C477 C479 1.390 . S
C477 H481 0.950 . S
H478 C474 0.950 . S
C479 C477 1.390 . S
C479 C480 1.387 . S
C479 H482 0.950 . S
C480 C479 1.387 . S
C480 C483 1.387 . S
H481 C477 0.950 . S
H482 C479 0.950 . S
C483 C474 1.390 . S
C483 H476 0.950 . S
C483 C480 1.387 . S
C484 C485 1.387 . S
C484 H488 0.950 . S
C484 C493 1.390 . S
C485 C484 1.387 . S
C485 C487 1.387 . S
H486 C493 0.950 . S
C487 C485 1.387 . S
C487 C489 1.390 . S
C487 H491 0.950 . S
H488 C484 0.950 . S
C489 C487 1.390 . S
C489 C490 1.387 . S
C489 H492 0.950 . S
C490 C489 1.387 . S
C490 C493 1.387 . S
H491 C487 0.950 . S
H492 C489 0.950 . S
C493 C484 1.390 . S
C493 H486 0.950 . S
C493 C490 1.387 . S
C494 C495 1.387 . S
C494 H498 0.950 . S
C494 C503 1.390 1_556 S
C495 C494 1.387 . S
C495 C497 1.387 . S
H496 C503 0.950 . S
C497 C495 1.387 . S
C497 C499 1.390 1_556 S
C497 H501 0.950 . S
H498 C494 0.950 . S
C499 C497 1.390 1_554 S
C499 C500 1.387 . S
C499 H502 0.950 . S
C500 C499 1.387 . S
C500 C503 1.387 . S
H501 C497 0.950 . S
H502 C499 0.950 . S
C503 C494 1.390 1_554 S
C503 H496 0.950 . S
C503 C500 1.387 . S
C504 C505 1.387 . S
C504 H508 0.950 . S
C504 C513 1.390 1_554 S
C505 C504 1.387 . S
C505 C507 1.387 . S
H506 C513 0.950 . S
C507 C505 1.387 . S
C507 C509 1.390 1_554 S
C507 H511 0.950 . S
H508 C504 0.950 . S
C509 C507 1.390 1_556 S
C509 C510 1.387 . S
C509 H512 0.950 . S
C510 C509 1.387 . S
C510 C513 1.387 . S
H511 C507 0.950 . S
H512 C509 0.950 . S
C513 C504 1.390 1_556 S
C513 H506 0.950 . S
C513 C510 1.387 . S
C514 C515 1.387 . S
C514 H518 0.950 . S
C514 C523 1.390 . S
C515 C514 1.387 . S
C515 C517 1.387 . S
H516 C523 0.950 . S
C517 C515 1.387 . S
C517 C519 1.390 . S
C517 H521 0.950 . S
H518 C514 0.950 . S
C519 C517 1.390 . S
C519 C520 1.387 . S
C519 H522 0.950 . S
C520 C519 1.387 . S
C520 C523 1.387 . S
H521 C517 0.950 . S
H522 C519 0.950 . S
C523 C514 1.390 . S
C523 H516 0.950 . S
C523 C520 1.387 . S
C524 C525 1.387 . S
C524 H528 0.950 . S
C524 C533 1.390 . S
C525 C524 1.387 . S
C525 C527 1.387 . S
H526 C533 0.950 . S
C527 C525 1.387 . S
C527 C529 1.390 . S
C527 H531 0.950 . S
H528 C524 0.950 . S
C529 C527 1.390 . S
C529 C530 1.387 . S
C529 H532 0.950 . S
C530 C529 1.387 . S
C530 C533 1.387 . S
H531 C527 0.950 . S
H532 C529 0.950 . S
C533 C524 1.390 . S
C533 H526 0.950 . S
C533 C530 1.387 . S
C534 C535 1.387 . S
C534 H538 0.950 . S
C534 C543 1.390 . S
C535 C534 1.387 . S
C535 C537 1.387 . S
H536 C543 0.950 . S
C537 C535 1.387 . S
C537 C539 1.390 . S
C537 H541 0.950 . S
H538 C534 0.950 . S
C539 C537 1.390 . S
C539 C540 1.387 . S
C539 H542 0.950 . S
C540 C539 1.387 . S
C540 C543 1.387 . S
H541 C537 0.950 . S
H542 C539 0.950 . S
C543 C534 1.390 . S
C543 H536 0.950 . S
C543 C540 1.387 . S
C225 C151 1.510 . S
C230 C11 1.510 . S
C235 C25 1.511 . S
C240 C165 1.511 . S
C245 C123 1.510 . S
C250 C39 1.510 . S
C255 C137 1.511 . S
C260 C53 1.511 . S
C265 C67 1.511 . S
C270 C207 1.511 . S
C275 C221 1.510 . S
C280 C81 1.510 . S
C285 C95 1.511 . S
C290 C179 1.511 . S
C295 C193 1.511 . S
C300 C109 1.511 . S
C305 C145 1.554 . S
C310 C5 1.554 . S
C315 C19 1.554 . S
C320 C159 1.554 . S
C325 C33 1.554 . S
C330 C117 1.554 . S
C335 C47 1.554 . S
C340 C131 1.554 . S
C345 C61 1.554 . S
C350 C201 1.554 . S
C355 C75 1.554 . S
C360 C215 1.554 . S
C365 C173 1.554 . S
C370 C89 1.554 . S
C375 C187 1.554 . S
C380 C103 1.554 . S
C385 C9 1.350 . S
C390 C93 1.351 . S
C395 C23 1.351 . S
C400 C107 1.350 . S
C405 C37 1.351 . S
C410 C65 1.350 . S
C415 C51 1.349 . S
C420 C79 1.351 . S
C425 C121 1.351 . S
C430 C205 1.351 . S
C435 C219 1.350 . S
C440 C135 1.351 . S
C445 C149 1.351 . S
C450 C177 1.350 . S
C455 C191 1.351 . S
C460 C163 1.350 . S
C465 C0 1.393 . S
C470 C210 1.395 . S
C475 C168 1.393 . S
C480 C14 1.391 . S
C485 C182 1.393 . S
C490 C28 1.391 . S
C495 C196 1.392 . S
C500 C42 1.394 . S
C505 C126 1.394 . S
C510 C56 1.392 . S
C515 C140 1.391 . S
C520 C70 1.391 . S
C525 C84 1.393 . S
C530 C154 1.391 . S
C535 C98 1.392 . S
C540 C112 1.394 . S
