# Generated by pormake.
# Topology cds-f, (5)-cn, num edge types: 1
# Building blocks:
#     Node 0, Type 0, BuildingBlock: BEQFEK_clean_sbu_0, # of connection points: 5
#     Node 1, Type 0, BuildingBlock: BEQFEK_clean_sbu_0, # of connection points: 5
#     Node 2, Type 0, BuildingBlock: BEQFEK_clean_sbu_0, # of connection points: 5
#     Node 3, Type 0, BuildingBlock: BEQFEK_clean_sbu_0, # of connection points: 5
#     Node 4, Type 0, BuildingBlock: BEQFEK_clean_sbu_0, # of connection points: 5
#     Node 5, Type 0, BuildingBlock: BEQFEK_clean_sbu_0, # of connection points: 5
#     Node 6, Type 0, BuildingBlock: BEQFEK_clean_sbu_0, # of connection points: 5
#     Node 7, Type 0, BuildingBlock: BEQFEK_clean_sbu_0, # of connection points: 5
#     Node 8, Type 0, BuildingBlock: BEQFEK_clean_sbu_0, # of connection points: 5
#     Node 9, Type 0, BuildingBlock: BEQFEK_clean_sbu_0, # of connection points: 5
#     Node 10, Type 0, BuildingBlock: BEQFEK_clean_sbu_0, # of connection points: 5
#     Node 11, Type 0, BuildingBlock: BEQFEK_clean_sbu_0, # of connection points: 5
#     Node 12, Type 0, BuildingBlock: BEQFEK_clean_sbu_0, # of connection points: 5
#     Node 13, Type 0, BuildingBlock: BEQFEK_clean_sbu_0, # of connection points: 5
#     Node 14, Type 0, BuildingBlock: BEQFEK_clean_sbu_0, # of connection points: 5
#     Node 15, Type 0, BuildingBlock: BEQFEK_clean_sbu_0, # of connection points: 5
#     Edge 16, Type (0, 0), BuildingBlock: EZIPEK_clean_linker_0, # of connection points: 2
#     Edge 17, Type (0, 0), BuildingBlock: EZIPEK_clean_linker_0, # of connection points: 2
#     Edge 18, Type (0, 0), BuildingBlock: EZIPEK_clean_linker_0, # of connection points: 2
#     Edge 19, Type (0, 0), BuildingBlock: EZIPEK_clean_linker_0, # of connection points: 2
#     Edge 20, Type (0, 0), BuildingBlock: EZIPEK_clean_linker_0, # of connection points: 2
#     Edge 21, Type (0, 0), BuildingBlock: EZIPEK_clean_linker_0, # of connection points: 2
#     Edge 22, Type (0, 0), BuildingBlock: EZIPEK_clean_linker_0, # of connection points: 2
#     Edge 23, Type (0, 0), BuildingBlock: EZIPEK_clean_linker_0, # of connection points: 2
#     Edge 24, Type (0, 0), BuildingBlock: EZIPEK_clean_linker_0, # of connection points: 2
#     Edge 25, Type (0, 0), BuildingBlock: EZIPEK_clean_linker_0, # of connection points: 2
#     Edge 26, Type (0, 0), BuildingBlock: EZIPEK_clean_linker_0, # of connection points: 2
#     Edge 27, Type (0, 0), BuildingBlock: EZIPEK_clean_linker_0, # of connection points: 2
#     Edge 28, Type (0, 0), BuildingBlock: EZIPEK_clean_linker_0, # of connection points: 2
#     Edge 29, Type (0, 0), BuildingBlock: EZIPEK_clean_linker_0, # of connection points: 2
#     Edge 30, Type (0, 0), BuildingBlock: EZIPEK_clean_linker_0, # of connection points: 2
#     Edge 31, Type (0, 0), BuildingBlock: EZIPEK_clean_linker_0, # of connection points: 2
#     Edge 32, Type (0, 0), BuildingBlock: EZIPEK_clean_linker_0, # of connection points: 2
#     Edge 33, Type (0, 0), BuildingBlock: EZIPEK_clean_linker_0, # of connection points: 2
#     Edge 34, Type (0, 0), BuildingBlock: EZIPEK_clean_linker_0, # of connection points: 2
#     Edge 35, Type (0, 0), BuildingBlock: EZIPEK_clean_linker_0, # of connection points: 2
#     Edge 36, Type (0, 0), BuildingBlock: EZIPEK_clean_linker_0, # of connection points: 2
#     Edge 37, Type (0, 0), BuildingBlock: EZIPEK_clean_linker_0, # of connection points: 2
#     Edge 38, Type (0, 0), BuildingBlock: EZIPEK_clean_linker_0, # of connection points: 2
#     Edge 39, Type (0, 0), BuildingBlock: EZIPEK_clean_linker_0, # of connection points: 2
#     Edge 40, Type (0, 0), BuildingBlock: EZIPEK_clean_linker_0, # of connection points: 2
#     Edge 41, Type (0, 0), BuildingBlock: EZIPEK_clean_linker_0, # of connection points: 2
#     Edge 42, Type (0, 0), BuildingBlock: EZIPEK_clean_linker_0, # of connection points: 2
#     Edge 43, Type (0, 0), BuildingBlock: EZIPEK_clean_linker_0, # of connection points: 2
#     Edge 44, Type (0, 0), BuildingBlock: EZIPEK_clean_linker_0, # of connection points: 2
#     Edge 45, Type (0, 0), BuildingBlock: EZIPEK_clean_linker_0, # of connection points: 2
#     Edge 46, Type (0, 0), BuildingBlock: EZIPEK_clean_linker_0, # of connection points: 2
#     Edge 47, Type (0, 0), BuildingBlock: EZIPEK_clean_linker_0, # of connection points: 2
#     Edge 48, Type (0, 0), BuildingBlock: EZIPEK_clean_linker_0, # of connection points: 2
#     Edge 49, Type (0, 0), BuildingBlock: EZIPEK_clean_linker_0, # of connection points: 2
#     Edge 50, Type (0, 0), BuildingBlock: EZIPEK_clean_linker_0, # of connection points: 2
#     Edge 51, Type (0, 0), BuildingBlock: EZIPEK_clean_linker_0, # of connection points: 2
#     Edge 52, Type (0, 0), BuildingBlock: EZIPEK_clean_linker_0, # of connection points: 2
#     Edge 53, Type (0, 0), BuildingBlock: EZIPEK_clean_linker_0, # of connection points: 2
#     Edge 54, Type (0, 0), BuildingBlock: EZIPEK_clean_linker_0, # of connection points: 2
#     Edge 55, Type (0, 0), BuildingBlock: EZIPEK_clean_linker_0, # of connection points: 2
# Relax obj value: 0.090
# Max RMSD: 0.143
# Mean RMSD: 0.099
data_MOF--net-cds-f--node1-BEQFEK_clean_sbu_0--edge1-EZIPEK_clean_linker_0
_symmetry_space_group_name_H-M    P1
_symmetry_Int_Tables_number       1
_symmetry_cell_setting            triclinic
loop_
_symmetry_equiv_pos_as_xyz
'x, y, z'
_cell_length_a     30.834977
_cell_length_b     30.795435
_cell_length_c     45.895428
_cell_angle_alpha  90.045966
_cell_angle_beta   94.370717
_cell_angle_gamma 87.701731
loop_
_atom_site_label
_atom_site_type_symbol
_atom_site_fract_x
_atom_site_fract_y
_atom_site_fract_z
_atom_type_partial_charge
Co0 Co 0.29527 0.32663 0.13334 0.0
Co1 Co 0.19335 0.32833 0.13375 0.0
C2 C 0.24998 0.29388 0.18442 0.0
O3 O 0.2841 0.30252 0.17193 0.0
O4 O 0.21213 0.3005 0.17176 0.0
C5 C 0.38269 0.28719 0.13698 0.0
O6 O 0.36552 0.25368 0.14872 0.0
C7 C 0.10309 0.30342 0.13979 0.0
C8 C 0.06598 0.35635 0.11529 0.0
C9 C 0.06131 0.31963 0.1319 0.0
N10 N 0.13139 0.32937 0.12824 0.0
N11 N 0.10894 0.36079 0.11351 0.0
C12 C 0.11592 0.26564 0.15941 0.0
H13 H 0.12414 0.2778 0.18184 0.0
H14 H 0.14526 0.24832 0.15185 0.0
H15 H 0.0889 0.24299 0.16009 0.0
C16 C 0.27373 0.29058 0.07498 0.0
N17 N 0.26228 0.30046 0.10199 0.0
N18 N 0.21959 0.30023 0.10216 0.0
C19 C 0.20269 0.28923 0.07532 0.0
C20 C 0.23637 0.28356 0.05706 0.0
C21 C 0.31824 0.29689 0.0652 0.0
H22 H 0.32778 0.33065 0.07007 0.0
H23 H 0.34185 0.27457 0.07765 0.0
H24 H 0.31975 0.29042 0.04149 0.0
O25 O 0.28076 0.38949 0.1331 0.0
O26 O 0.2088 0.39054 0.13488 0.0
H27 H 0.14436 0.32705 0.06391 0.0
H28 H 0.14867 0.2766 0.04416 0.0
C29 C 0.15522 0.29232 0.06575 0.0
H30 H 0.1364 0.27649 0.08213 0.0
H31 H 0.12303 0.38596 0.10284 0.0
O32 O 0.35874 0.3202 0.12885 0.0
C33 C 0.24433 0.41006 0.13412 0.0
Co34 Co 0.67358 0.30784 0.63382 0.0
Co35 Co 0.66637 0.20652 0.63585 0.0
C36 C 0.70187 0.25553 0.68768 0.0
O37 O 0.69762 0.29117 0.67352 0.0
O38 O 0.69123 0.2196 0.67596 0.0
C39 C 0.71472 0.39097 0.63902 0.0
O40 O 0.74759 0.36975 0.65318 0.0
C41 C 0.68915 0.11277 0.64235 0.0
C42 C 0.63642 0.08452 0.61392 0.0
C43 C 0.67329 0.07378 0.63193 0.0
N44 N 0.66306 0.14529 0.63069 0.0
N45 N 0.63154 0.12813 0.61382 0.0
C46 C 0.72809 0.11919 0.6631 0.0
H47 H 0.74711 0.14601 0.65513 0.0
H48 H 0.74892 0.08899 0.66569 0.0
H49 H 0.71705 0.12885 0.68471 0.0
C50 C 0.71233 0.28546 0.57876 0.0
N51 N 0.69948 0.27391 0.60495 0.0
N52 N 0.69791 0.23128 0.60619 0.0
C53 C 0.7105 0.21443 0.58091 0.0
C54 C 0.71929 0.24815 0.56249 0.0
C55 C 0.70934 0.33114 0.56755 0.0
H56 H 0.6757 0.34477 0.569 0.0
H57 H 0.7315 0.35115 0.58156 0.0
H58 H 0.71827 0.33297 0.54462 0.0
O59 O 0.60974 0.30113 0.63051 0.0
O60 O 0.60524 0.22929 0.6316 0.0
H61 H 0.67155 0.16092 0.56802 0.0
H62 H 0.7232 0.16072 0.55206 0.0
C63 C 0.70647 0.16788 0.5722 0.0
H64 H 0.72094 0.14655 0.59009 0.0
H65 H 0.60665 0.14627 0.6022 0.0
O66 O 0.68184 0.37073 0.6288 0.0
C67 C 0.58741 0.26726 0.62994 0.0
Co68 Co 0.70542 0.68113 0.13389 0.0
Co69 Co 0.80739 0.66842 0.13993 0.0
C70 C 0.75828 0.70571 0.18857 0.0
O71 O 0.72267 0.70457 0.17274 0.0
O72 O 0.79426 0.69276 0.1789 0.0
C73 C 0.6183 0.71402 0.14255 0.0
O74 O 0.6369 0.73529 0.16462 0.0
C75 C 0.89942 0.69255 0.14429 0.0
C76 C 0.93179 0.63203 0.12942 0.0
C77 C 0.93964 0.67366 0.13919 0.0
N78 N 0.8689 0.66342 0.13761 0.0
N79 N 0.88853 0.62734 0.12873 0.0
C80 C 0.8902 0.73719 0.15558 0.0
H81 H 0.85582 0.74767 0.14954 0.0
H82 H 0.91256 0.76049 0.14686 0.0
H83 H 0.89575 0.73684 0.17975 0.0
C84 C 0.72391 0.71761 0.07748 0.0
N85 N 0.73736 0.70535 0.10492 0.0
N86 N 0.7801 0.70042 0.10727 0.0
C87 C 0.79509 0.70938 0.08115 0.0
C88 C 0.75996 0.7199 0.06127 0.0
C89 C 0.67739 0.71776 0.06557 0.0
H90 H 0.65755 0.73927 0.07916 0.0
H91 H 0.67352 0.72918 0.04254 0.0
H92 H 0.66526 0.68441 0.06686 0.0
O93 O 0.71521 0.61687 0.13438 0.0
O94 O 0.78738 0.6082 0.13791 0.0
H95 H 0.84829 0.6638 0.07673 0.0
H96 H 0.84549 0.7081 0.05073 0.0
C97 C 0.84069 0.69908 0.07363 0.0
H98 H 0.86338 0.71723 0.08848 0.0
H99 H 0.87236 0.59941 0.12222 0.0
O100 O 0.64146 0.69126 0.12605 0.0
C101 C 0.74971 0.59258 0.13588 0.0
Co102 Co 0.31512 0.81395 0.6127 0.0
Co103 Co 0.31831 0.71202 0.61129 0.0
C104 C 0.29249 0.76314 0.55766 0.0
O105 O 0.29556 0.79872 0.57173 0.0
O106 O 0.29976 0.72643 0.57018 0.0
C107 C 0.27283 0.90023 0.61001 0.0
O108 O 0.23716 0.88123 0.6004 0.0
C109 C 0.29734 0.61966 0.60322 0.0
C110 C 0.34517 0.58828 0.63576 0.0
C111 C 0.31257 0.57968 0.61443 0.0
N112 N 0.31995 0.65073 0.61739 0.0
N113 N 0.34833 0.63171 0.63688 0.0
C114 C 0.26341 0.62809 0.57866 0.0
H115 H 0.27963 0.63143 0.55805 0.0
H116 H 0.24492 0.659 0.58246 0.0
H117 H 0.24095 0.60081 0.57625 0.0
C118 C 0.2734 0.79574 0.66741 0.0
N119 N 0.2868 0.78347 0.64124 0.0
N120 N 0.2838 0.74113 0.63854 0.0
C121 C 0.26575 0.7256 0.66204 0.0
C122 C 0.25966 0.75945 0.68158 0.0
C123 C 0.28017 0.83968 0.68048 0.0
H124 H 0.30787 0.85512 0.67111 0.0
H125 H 0.25032 0.86037 0.67548 0.0
H126 H 0.28626 0.83753 0.7046 0.0
O127 O 0.37809 0.80075 0.61772 0.0
O128 O 0.38008 0.72848 0.61795 0.0
H129 H 0.28959 0.66155 0.67457 0.0
H130 H 0.23495 0.67455 0.68402 0.0
C131 C 0.25836 0.67854 0.6671 0.0
H132 H 0.24566 0.66335 0.64642 0.0
H133 H 0.37037 0.64842 0.65066 0.0
O134 O 0.30758 0.87769 0.61658 0.0
C135 C 0.39916 0.76441 0.61946 0.0
Co136 Co 0.18948 0.68275 0.87619 0.0
Co137 Co 0.29141 0.68789 0.88114 0.0
C138 C 0.24128 0.71107 0.93152 0.0
O139 O 0.2058 0.70417 0.91641 0.0
O140 O 0.27809 0.70706 0.92072 0.0
C141 C 0.10119 0.71784 0.87794 0.0
O142 O 0.11907 0.75285 0.8889 0.0
C143 C 0.38458 0.71035 0.88935 0.0
C144 C 0.41199 0.66756 0.85602 0.0
C145 C 0.42304 0.69763 0.87737 0.0
N146 N 0.35201 0.68884 0.87545 0.0
N147 N 0.36873 0.66333 0.85562 0.0
C148 C 0.37905 0.74115 0.91407 0.0
H149 H 0.34809 0.76064 0.91009 0.0
H150 H 0.40693 0.76287 0.91697 0.0
H151 H 0.3772 0.72221 0.93447 0.0
C152 C 0.20177 0.72407 0.81937 0.0
N153 N 0.21617 0.71287 0.84691 0.0
N154 N 0.25815 0.71933 0.85071 0.0
C155 C 0.27108 0.73762 0.82633 0.0
C156 C 0.23623 0.73988 0.80523 0.0
C157 C 0.1579 0.71335 0.80571 0.0
H158 H 0.1478 0.68208 0.81452 0.0
H159 H 0.13389 0.73913 0.81142 0.0
H160 H 0.15775 0.71147 0.78156 0.0
O161 O 0.2072 0.62091 0.87466 0.0
O162 O 0.27923 0.62508 0.87853 0.0
H163 H 0.33564 0.72012 0.81511 0.0
H164 H 0.31746 0.77451 0.80499 0.0
C165 C 0.3169 0.74919 0.82216 0.0
H166 H 0.33273 0.76123 0.84296 0.0
H167 H 0.35052 0.6427 0.84191 0.0
O168 O 0.12506 0.68579 0.87045 0.0
C169 C 0.24515 0.60303 0.87614 0.0
Co170 Co 0.32248 0.306 0.35927 0.0
Co171 Co 0.33111 0.20407 0.35712 0.0
C172 C 0.29384 0.25476 0.30562 0.0
O173 O 0.30015 0.29018 0.31931 0.0
O174 O 0.30261 0.21797 0.31778 0.0
C175 C 0.29329 0.3948 0.34593 0.0
O176 O 0.27453 0.37877 0.32185 0.0
C177 C 0.30926 0.11198 0.3518 0.0
C178 C 0.36645 0.07987 0.37606 0.0
C179 C 0.32762 0.07178 0.36029 0.0
N180 N 0.33598 0.1427 0.36227 0.0
N181 N 0.37003 0.12327 0.3768 0.0
C182 C 0.26798 0.12105 0.33323 0.0
H183 H 0.25232 0.15221 0.33988 0.0
H184 H 0.24534 0.09416 0.33482 0.0
H185 H 0.27575 0.12414 0.31013 0.0
C186 C 0.28393 0.28615 0.41416 0.0
N187 N 0.29722 0.27349 0.38812 0.0
N188 N 0.30065 0.23075 0.38742 0.0
C189 C 0.28929 0.21494 0.41304 0.0
C190 C 0.27897 0.24951 0.43102 0.0
C191 C 0.2842 0.33215 0.42461 0.0
H192 H 0.26337 0.35287 0.40905 0.0
H193 H 0.27212 0.33529 0.44672 0.0
H194 H 0.31784 0.34382 0.42508 0.0
O195 O 0.38612 0.29545 0.36295 0.0
O196 O 0.39205 0.22346 0.3595 0.0
H197 H 0.28238 0.16257 0.44353 0.0
H198 H 0.28033 0.14727 0.40545 0.0
C199 C 0.29612 0.16846 0.42229 0.0
H200 H 0.3315 0.15991 0.42443 0.0
H201 H 0.39601 0.13966 0.38697 0.0
O202 O 0.31317 0.36958 0.36486 0.0
C203 C 0.4091 0.26034 0.3622 0.0
Co204 Co 0.79881 0.31894 0.88773 0.0
Co205 Co 0.69893 0.31026 0.88442 0.0
C206 C 0.75031 0.28695 0.93843 0.0
O207 O 0.78476 0.29708 0.92682 0.0
O208 O 0.71325 0.28917 0.92428 0.0
C209 C 0.88638 0.29019 0.87451 0.0
O210 O 0.86902 0.25616 0.86175 0.0
C211 C 0.60598 0.29743 0.89012 0.0
C212 C 0.57832 0.31713 0.846 0.0
C213 C 0.56724 0.30256 0.87287 0.0
N214 N 0.63861 0.30749 0.87386 0.0
N215 N 0.62178 0.31981 0.84769 0.0
C216 C 0.61171 0.28741 0.92211 0.0
H217 H 0.63081 0.31301 0.9335 0.0
H218 H 0.63045 0.25606 0.92543 0.0
H219 H 0.57996 0.28537 0.93179 0.0
C220 C 0.78192 0.28276 0.82732 0.0
N221 N 0.77133 0.28993 0.85501 0.0
N222 N 0.73112 0.27835 0.85712 0.0
C223 C 0.71698 0.25878 0.83211 0.0
C224 C 0.74806 0.26215 0.8121 0.0
C225 C 0.81779 0.30453 0.81354 0.0
H226 H 0.83272 0.3288 0.82852 0.0
H227 H 0.84271 0.27971 0.80768 0.0
H228 H 0.80498 0.3211 0.793 0.0
O229 O 0.78132 0.38017 0.88536 0.0
O230 O 0.70963 0.37426 0.88299 0.0
H231 H 0.65236 0.26038 0.81103 0.0
H232 H 0.67765 0.20758 0.81521 0.0
C233 C 0.67345 0.23938 0.82627 0.0
H234 H 0.6577 0.23446 0.84687 0.0
H235 H 0.63993 0.33122 0.83123 0.0
O236 O 0.86249 0.31716 0.88751 0.0
C237 C 0.74313 0.39727 0.88354 0.0
Co238 Co 0.69029 0.80534 0.3793 0.0
Co239 Co 0.68998 0.70349 0.3823 0.0
C240 C 0.7143 0.75344 0.43505 0.0
O241 O 0.70746 0.78885 0.42079 0.0
O242 O 0.71043 0.71656 0.42284 0.0
C243 C 0.73302 0.88822 0.38138 0.0
O244 O 0.76917 0.86614 0.38966 0.0
C245 C 0.70974 0.60909 0.39043 0.0
C246 C 0.6616 0.58227 0.35776 0.0
C247 C 0.69399 0.57056 0.37911 0.0
N248 N 0.68771 0.64229 0.37624 0.0
N249 N 0.6591 0.62595 0.35671 0.0
C250 C 0.74357 0.61431 0.41512 0.0
H251 H 0.7632 0.64282 0.41106 0.0
H252 H 0.76499 0.58455 0.41805 0.0
H253 H 0.72717 0.62034 0.43553 0.0
C254 C 0.7337 0.78301 0.32528 0.0
N255 N 0.72052 0.77236 0.35163 0.0
N256 N 0.72377 0.72981 0.35468 0.0
C257 C 0.74153 0.71242 0.3312 0.0
C258 C 0.74731 0.74534 0.31138 0.0
C259 C 0.72577 0.8268 0.31137 0.0
H260 H 0.70099 0.84625 0.32251 0.0
H261 H 0.75674 0.84401 0.3128 0.0
H262 H 0.71492 0.82363 0.28786 0.0
O263 O 0.62762 0.79654 0.37238 0.0
O264 O 0.62799 0.72459 0.37651 0.0
H265 H 0.71519 0.65171 0.3179 0.0
H266 H 0.77026 0.65823 0.30874 0.0
C267 C 0.74701 0.66469 0.3257 0.0
H268 H 0.75909 0.64768 0.34619 0.0
H269 H 0.63735 0.64474 0.34293 0.0
O270 O 0.69788 0.86863 0.37581 0.0
C271 C 0.60772 0.76122 0.37273 0.0
Co272 Co 0.68967 0.67016 0.88526 0.0
Co273 Co 0.79163 0.66452 0.88272 0.0
C274 C 0.75121 0.69536 0.93608 0.0
O275 O 0.71319 0.69145 0.92373 0.0
O276 O 0.78531 0.68629 0.92292 0.0
C277 C 0.60694 0.71564 0.89156 0.0
O278 O 0.63038 0.74759 0.90202 0.0
C279 C 0.88367 0.68833 0.88386 0.0
C280 C 0.91017 0.63876 0.85442 0.0
C281 C 0.92132 0.67421 0.87148 0.0
N282 N 0.85141 0.66254 0.87433 0.0
N283 N 0.86754 0.63294 0.8568 0.0
C284 C 0.87838 0.72548 0.90442 0.0
H285 H 0.8808 0.71279 0.92713 0.0
H286 H 0.84572 0.74168 0.90005 0.0
H287 H 0.90417 0.74922 0.90243 0.0
C288 C 0.69671 0.71071 0.82773 0.0
N289 N 0.71478 0.69657 0.85379 0.0
N290 N 0.75743 0.69759 0.85387 0.0
C291 C 0.76771 0.71434 0.82827 0.0
C292 C 0.72965 0.72226 0.81063 0.0
C293 C 0.6495 0.70743 0.81808 0.0
H294 H 0.63689 0.67729 0.8269 0.0
H295 H 0.63117 0.73556 0.82686 0.0
H296 H 0.64396 0.70765 0.79391 0.0
O297 O 0.70139 0.60677 0.88405 0.0
O298 O 0.77323 0.60323 0.88114 0.0
H299 H 0.82779 0.68701 0.81481 0.0
H300 H 0.81348 0.74043 0.80019 0.0
C301 C 0.81312 0.71936 0.81978 0.0
H302 H 0.833 0.73378 0.83817 0.0
H303 H 0.84935 0.60879 0.84636 0.0
O304 O 0.62556 0.68078 0.8831 0.0
C305 C 0.737 0.58496 0.88216 0.0
Co306 Co 0.33282 0.80574 0.35678 0.0
Co307 Co 0.34262 0.70408 0.36147 0.0
C308 C 0.30642 0.74869 0.30642 0.0
O309 O 0.30952 0.78637 0.31762 0.0
O310 O 0.31741 0.7144 0.32107 0.0
C311 C 0.29396 0.89172 0.34472 0.0
O312 O 0.2653 0.87227 0.32714 0.0
C313 C 0.31755 0.61311 0.35877 0.0
C314 C 0.373 0.58 0.38423 0.0
C315 C 0.3343 0.57269 0.36804 0.0
N316 N 0.3451 0.64322 0.36904 0.0
N317 N 0.37804 0.62323 0.3844 0.0
C318 C 0.27725 0.62281 0.33933 0.0
H319 H 0.26198 0.6544 0.34552 0.0
H320 H 0.25384 0.59654 0.34058 0.0
H321 H 0.28614 0.62538 0.31643 0.0
C322 C 0.29297 0.79349 0.41256 0.0
N323 N 0.30732 0.77743 0.38757 0.0
N324 N 0.31111 0.73478 0.38952 0.0
C325 C 0.29899 0.7224 0.41578 0.0
C326 C 0.28759 0.75918 0.43142 0.0
C327 C 0.29215 0.84072 0.42018 0.0
H328 H 0.27094 0.859 0.40347 0.0
H329 H 0.27993 0.84657 0.44203 0.0
H330 H 0.32549 0.85295 0.41988 0.0
O331 O 0.39676 0.79438 0.36055 0.0
O332 O 0.4035 0.72229 0.36385 0.0
H333 H 0.29198 0.67423 0.44925 0.0
H334 H 0.28996 0.65404 0.41221 0.0
C335 C 0.30573 0.67725 0.42772 0.0
H336 H 0.3411 0.66869 0.43024 0.0
H337 H 0.40445 0.63905 0.39449 0.0
O338 O 0.32393 0.8696 0.35914 0.0
C339 C 0.4201 0.75937 0.36311 0.0
Co340 Co 0.2956 0.32926 0.88628 0.0
Co341 Co 0.19488 0.3385 0.87523 0.0
C342 C 0.23712 0.30635 0.93228 0.0
O343 O 0.27504 0.30967 0.92366 0.0
O344 O 0.20315 0.31554 0.91563 0.0
C345 C 0.38435 0.29037 0.88941 0.0
O346 O 0.36714 0.25203 0.8876 0.0
C347 C 0.10252 0.32022 0.87426 0.0
C348 C 0.07472 0.36347 0.83852 0.0
C349 C 0.06394 0.33305 0.85869 0.0
N350 N 0.13482 0.34157 0.86342 0.0
N351 N 0.11796 0.36776 0.84235 0.0
C352 C 0.10848 0.29069 0.90027 0.0
H353 H 0.11891 0.30997 0.91981 0.0
H354 H 0.1346 0.26577 0.89687 0.0
H355 H 0.07805 0.27464 0.90454 0.0
C356 C 0.28497 0.28405 0.82804 0.0
N357 N 0.269 0.30099 0.85243 0.0
N358 N 0.2263 0.3055 0.84796 0.0
C359 C 0.21402 0.29175 0.82073 0.0
C360 C 0.25076 0.27858 0.80701 0.0
C361 C 0.33231 0.27761 0.82339 0.0
H362 H 0.35027 0.30565 0.8321 0.0
H363 H 0.34514 0.2477 0.83491 0.0
H364 H 0.33816 0.27319 0.80004 0.0
O365 O 0.28421 0.39275 0.88239 0.0
O366 O 0.21225 0.39918 0.87545 0.0
H367 H 0.16217 0.33173 0.80058 0.0
H368 H 0.16482 0.27788 0.78604 0.0
C369 C 0.16888 0.29709 0.80641 0.0
H370 H 0.14498 0.28651 0.8215 0.0
H371 H 0.136 0.38885 0.83075 0.0
O372 O 0.35948 0.32398 0.89011 0.0
C373 C 0.24925 0.41594 0.87839 0.0
Co374 Co 0.68138 0.30332 0.38535 0.0
Co375 Co 0.67707 0.2016 0.38017 0.0
C376 C 0.70523 0.24461 0.43643 0.0
O377 O 0.69954 0.28228 0.42513 0.0
O378 O 0.69894 0.21021 0.42154 0.0
C379 C 0.71668 0.38727 0.39996 0.0
O380 O 0.74365 0.36593 0.41887 0.0
C381 C 0.70588 0.10927 0.38159 0.0
C382 C 0.65372 0.08 0.35325 0.0
C383 C 0.69182 0.07018 0.37023 0.0
N384 N 0.67744 0.14104 0.37163 0.0
N385 N 0.64638 0.1233 0.35467 0.0
C386 C 0.74483 0.11617 0.40221 0.0
H387 H 0.75766 0.14875 0.39862 0.0
H388 H 0.77049 0.09047 0.39947 0.0
H389 H 0.73504 0.11466 0.42495 0.0
C390 C 0.72749 0.29057 0.33229 0.0
N391 N 0.71196 0.27416 0.35638 0.0
N392 N 0.70868 0.23189 0.35327 0.0
C393 C 0.72116 0.22027 0.32673 0.0
C394 C 0.73291 0.25717 0.31238 0.0
C395 C 0.72982 0.3382 0.32648 0.0
H396 H 0.69645 0.35335 0.32483 0.0
H397 H 0.74864 0.3535 0.345 0.0
H398 H 0.74557 0.34438 0.30601 0.0
O399 O 0.61809 0.29432 0.37777 0.0
O400 O 0.61549 0.22221 0.37586 0.0
H401 H 0.72692 0.17407 0.29143 0.0
H402 H 0.73006 0.15104 0.32773 0.0
C403 C 0.71393 0.17664 0.31327 0.0
H404 H 0.67852 0.1711 0.31096 0.0
H405 H 0.61987 0.14076 0.3443 0.0
O406 O 0.68874 0.36702 0.38397 0.0
C407 C 0.59675 0.25979 0.37503 0.0
Co408 Co 0.79691 0.32265 0.14256 0.0
Co409 Co 0.69479 0.32252 0.1329 0.0
C410 C 0.74161 0.29329 0.18925 0.0
O411 O 0.77864 0.30146 0.18046 0.0
O412 O 0.70683 0.29829 0.17259 0.0
C413 C 0.8856 0.28714 0.15447 0.0
O414 O 0.86875 0.25586 0.1688 0.0
C415 C 0.6026 0.29973 0.13356 0.0
C416 C 0.57136 0.34433 0.09979 0.0
C417 C 0.56268 0.31306 0.11991 0.0
N418 N 0.63376 0.32188 0.12184 0.0
N419 N 0.61478 0.34844 0.10166 0.0
C420 C 0.61068 0.2685 0.15847 0.0
H421 H 0.61738 0.28703 0.17897 0.0
H422 H 0.63977 0.24724 0.15509 0.0
H423 H 0.58203 0.24842 0.16078 0.0
C424 C 0.78796 0.28151 0.08451 0.0
N425 N 0.77075 0.29354 0.10955 0.0
N426 N 0.72807 0.29195 0.1059 0.0
C427 C 0.71699 0.27752 0.07873 0.0
C428 C 0.7544 0.27156 0.064 0.0
C429 C 0.83417 0.28844 0.07847 0.0
H430 H 0.84194 0.32277 0.08305 0.0
H431 H 0.85599 0.26751 0.09328 0.0
H432 H 0.84031 0.2805 0.05551 0.0
O433 O 0.78125 0.38514 0.13971 0.0
O434 O 0.70904 0.38508 0.133 0.0
H435 H 0.66033 0.31061 0.05862 0.0
H436 H 0.66969 0.2564 0.04525 0.0
C437 C 0.67138 0.27706 0.06511 0.0
H438 H 0.64945 0.26454 0.08092 0.0
H439 H 0.63143 0.37026 0.08967 0.0
O440 O 0.86119 0.31739 0.14259 0.0
C441 C 0.7444 0.4052 0.13598 0.0
Co442 Co 0.67122 0.80759 0.63484 0.0
Co443 Co 0.66798 0.70586 0.63105 0.0
C444 C 0.69884 0.75072 0.68621 0.0
O445 O 0.69535 0.78794 0.67405 0.0
O446 O 0.68969 0.71624 0.67206 0.0
C447 C 0.71039 0.89096 0.6436 0.0
O448 O 0.74389 0.86885 0.65631 0.0
C449 C 0.69317 0.61235 0.63525 0.0
C450 C 0.64429 0.5847 0.60348 0.0
C451 C 0.67925 0.57367 0.6231 0.0
N452 N 0.66778 0.64504 0.62313 0.0
N453 N 0.63866 0.62824 0.60416 0.0
C454 C 0.72906 0.61812 0.65849 0.0
H455 H 0.71472 0.62578 0.67944 0.0
H456 H 0.74853 0.64596 0.65276 0.0
H457 H 0.75032 0.58824 0.66135 0.0
C458 C 0.71136 0.79356 0.57902 0.0
N459 N 0.69874 0.77836 0.60443 0.0
N460 N 0.69932 0.7356 0.60354 0.0
C461 C 0.71344 0.72234 0.57778 0.0
C462 C 0.7208 0.75855 0.56118 0.0
C463 C 0.70588 0.84017 0.56988 0.0
H464 H 0.67197 0.85204 0.57261 0.0
H465 H 0.72786 0.85974 0.5843 0.0
H466 H 0.71351 0.84481 0.54686 0.0
O467 O 0.60777 0.79772 0.63109 0.0
O468 O 0.60629 0.72578 0.62697 0.0
H469 H 0.67838 0.66831 0.56085 0.0
H470 H 0.73144 0.67243 0.54741 0.0
C471 C 0.71255 0.67655 0.56694 0.0
H472 H 0.72643 0.65401 0.58435 0.0
H473 H 0.61456 0.64653 0.59191 0.0
O474 O 0.67743 0.87127 0.63288 0.0
C475 C 0.58696 0.76293 0.62791 0.0
Co476 Co 0.20449 0.68589 0.13411 0.0
Co477 Co 0.30598 0.67281 0.1326 0.0
C478 C 0.26605 0.71078 0.18461 0.0
O479 O 0.22777 0.70872 0.17236 0.0
O480 O 0.29945 0.69866 0.17157 0.0
C481 C 0.11939 0.71669 0.14936 0.0
O482 O 0.14058 0.736 0.1713 0.0
C483 C 0.39824 0.69429 0.13416 0.0
C484 C 0.42704 0.63632 0.11335 0.0
C485 C 0.43717 0.67555 0.1263 0.0
N486 N 0.36626 0.66735 0.12616 0.0
N487 N 0.38369 0.63284 0.11363 0.0
C488 C 0.39166 0.73625 0.14988 0.0
H489 H 0.39224 0.72962 0.17368 0.0
H490 H 0.35942 0.75154 0.14266 0.0
H491 H 0.41796 0.75868 0.14605 0.0
C492 C 0.21459 0.72313 0.07592 0.0
N493 N 0.23173 0.70983 0.10244 0.0
N494 N 0.27428 0.7048 0.10187 0.0
C495 C 0.28548 0.71511 0.07498 0.0
C496 C 0.24803 0.72645 0.05749 0.0
C497 C 0.16691 0.72429 0.06699 0.0
H498 H 0.15444 0.6912 0.06899 0.0
H499 H 0.14968 0.74595 0.08199 0.0
H500 H 0.16002 0.73608 0.04419 0.0
O501 O 0.21364 0.62174 0.13378 0.0
O502 O 0.2855 0.61291 0.13319 0.0
H503 H 0.3371 0.67064 0.06485 0.0
H504 H 0.33191 0.71862 0.04205 0.0
C505 C 0.32977 0.7062 0.06456 0.0
H506 H 0.35442 0.72191 0.07944 0.0
H507 H 0.36603 0.6066 0.10562 0.0
O508 O 0.14024 0.69624 0.13043 0.0
C509 C 0.24796 0.59738 0.13361 0.0
Co510 Co 0.30971 0.31059 0.60828 0.0
Co511 Co 0.32628 0.20926 0.6133 0.0
C512 C 0.29127 0.25369 0.55721 0.0
O513 O 0.28995 0.29114 0.56883 0.0
O514 O 0.30455 0.21991 0.57177 0.0
C515 C 0.28864 0.3989 0.58949 0.0
O516 O 0.28188 0.38172 0.56342 0.0
C517 C 0.30017 0.11888 0.61132 0.0
C518 C 0.35618 0.08479 0.63556 0.0
C519 C 0.31613 0.0783 0.62084 0.0
N520 N 0.3293 0.14829 0.62024 0.0
N521 N 0.36272 0.12772 0.63472 0.0
C522 C 0.25872 0.12945 0.59325 0.0
H523 H 0.24662 0.16295 0.59803 0.0
H524 H 0.23371 0.10571 0.59735 0.0
H525 H 0.26513 0.12779 0.5698 0.0
C526 C 0.26585 0.29509 0.66187 0.0
N527 N 0.28357 0.28003 0.63775 0.0
N528 N 0.293 0.23819 0.64094 0.0
C529 C 0.28371 0.22574 0.66783 0.0
C530 C 0.26642 0.26146 0.68218 0.0
C531 C 0.25352 0.34192 0.66657 0.0
H532 H 0.28337 0.36094 0.66928 0.0
H533 H 0.23373 0.35463 0.64702 0.0
H534 H 0.23477 0.34627 0.68614 0.0
O535 O 0.37457 0.30115 0.61317 0.0
O536 O 0.38566 0.22955 0.61827 0.0
H537 H 0.29272 0.18106 0.70469 0.0
H538 H 0.28147 0.15654 0.66932 0.0
C539 C 0.2987 0.18289 0.68123 0.0
H540 H 0.33407 0.17764 0.67902 0.0
H541 H 0.39016 0.14296 0.64383 0.0
O542 O 0.29871 0.37451 0.61152 0.0
C543 C 0.39997 0.26761 0.61723 0.0
C544 C 0.95506 0.26132 0.13389 0.0
C545 C 0.93327 0.28913 0.15319 0.0
C546 C 0.00022 0.32821 0.16439 0.0
C547 C 0.01962 0.30508 0.14171 0.0
N548 N 0.01678 0.24993 0.10447 0.0
N549 N 0.93416 0.34844 0.18749 0.0
C550 C 0.99765 0.2712 0.12662 0.0
C551 C 0.95575 0.32219 0.16886 0.0
N552 N 0.93492 0.22569 0.12245 0.0
N553 N 0.02468 0.35536 0.1819 0.0
H554 H 0.9025 0.34309 0.1928 0.0
H555 H 0.94675 0.37656 0.19677 0.0
H556 H 0.05743 0.36024 0.1792 0.0
H557 H 0.0139 0.37017 0.20056 0.0
H558 H 0.95035 0.20184 0.11042 0.0
H559 H 0.90349 0.21802 0.12696 0.0
H560 H 0.00071 0.22854 0.09022 0.0
H561 H 0.04845 0.25542 0.09925 0.0
C562 C 0.72376 0.00958 0.62434 0.0
C563 C 0.68937 0.02891 0.63936 0.0
C564 C 0.67824 0.95946 0.66317 0.0
C565 C 0.70799 0.93897 0.64495 0.0
N566 N 0.7614 0.94318 0.60955 0.0
N567 N 0.63451 0.02401 0.67378 0.0
C568 C 0.73204 0.96378 0.62627 0.0
C569 C 0.66711 0.00441 0.65926 0.0
N570 N 0.74822 0.03512 0.60819 0.0
N571 N 0.66151 0.93589 0.68464 0.0
H572 H 0.6275 0.05744 0.67294 0.0
H573 H 0.61322 0.00723 0.68574 0.0
H574 H 0.66957 0.90298 0.68822 0.0
H575 H 0.6427 0.94935 0.7005 0.0
H576 H 0.77618 0.02413 0.59869 0.0
H577 H 0.74219 0.06853 0.60577 0.0
H578 H 0.77634 0.95805 0.59284 0.0
H579 H 0.77006 0.91022 0.61185 0.0
C580 C 0.00017 0.71713 0.12224 0.0
C581 C 0.98322 0.69191 0.14426 0.0
C582 C 0.05492 0.68606 0.17105 0.0
C583 C 0.07184 0.71193 0.14928 0.0
N584 N 0.05927 0.76049 0.10819 0.0
N585 N 0.99088 0.66162 0.1928 0.0
C586 C 0.04397 0.73013 0.12609 0.0
C587 C 0.00949 0.67952 0.16977 0.0
N588 N 0.97493 0.72721 0.0972 0.0
N589 N 0.08245 0.66548 0.19189 0.0
H590 H 0.95764 0.65627 0.19244 0.0
H591 H 0.00746 0.65593 0.21315 0.0
H592 H 0.11605 0.66885 0.19358 0.0
H593 H 0.0725 0.64219 0.20613 0.0
H594 H 0.98688 0.74104 0.07889 0.0
H595 H 0.94236 0.7193 0.09405 0.0
H596 H 0.03966 0.77795 0.09246 0.0
H597 H 0.09097 0.77124 0.111 0.0
C598 C 0.29984 0.96663 0.58774 0.0
C599 C 0.27523 0.94804 0.60905 0.0
C600 C 0.26739 0.01882 0.633 0.0
C601 C 0.29755 0.03548 0.61444 0.0
N602 N 0.34189 0.02706 0.57361 0.0
N603 N 0.23317 0.95534 0.65095 0.0
C604 C 0.31319 0.01004 0.59139 0.0
C605 C 0.25762 0.97403 0.63113 0.0
N606 N 0.30962 0.94279 0.56377 0.0
N607 N 0.24832 0.04591 0.65235 0.0
H608 H 0.22341 0.92338 0.64901 0.0
H609 H 0.22358 0.97071 0.66974 0.0
H610 H 0.25552 0.07861 0.65455 0.0
H611 H 0.22326 0.03713 0.66482 0.0
H612 H 0.32407 0.95534 0.54601 0.0
H613 H 0.29974 0.91103 0.56042 0.0
H614 H 0.35883 0.00882 0.55877 0.0
H615 H 0.35034 0.05952 0.57454 0.0
C616 C 0.979 0.7236 0.85748 0.0
C617 C 0.9657 0.69085 0.87622 0.0
C618 C 0.0394 0.68402 0.90026 0.0
C619 C 0.0539 0.71227 0.87895 0.0
N620 N 0.03893 0.75916 0.83715 0.0
N621 N 0.98221 0.63891 0.91513 0.0
C622 C 0.02398 0.73263 0.85773 0.0
C623 C 0.99555 0.67106 0.89774 0.0
N624 N 0.94848 0.7461 0.8396 0.0
N625 N 0.06746 0.67049 0.9233 0.0
H626 H 0.94987 0.63013 0.91495 0.0
H627 H 0.00336 0.61931 0.92868 0.0
H628 H 0.09976 0.67959 0.92587 0.0
H629 H 0.05804 0.65341 0.94117 0.0
H630 H 0.95511 0.77313 0.82736 0.0
H631 H 0.91544 0.73969 0.83863 0.0
H632 H 0.01994 0.77108 0.81897 0.0
H633 H 0.07135 0.76771 0.83749 0.0
C634 C 0.32648 0.9592 0.32762 0.0
C635 C 0.296 0.93952 0.34455 0.0
C636 C 0.2811 0.0087 0.3689 0.0
C637 C 0.31225 0.02814 0.35239 0.0
N638 N 0.35644 0.02592 0.31134 0.0
N639 N 0.23699 0.94641 0.37586 0.0
C640 C 0.33233 0.00459 0.33018 0.0
C641 C 0.27077 0.96468 0.36339 0.0
N642 N 0.35074 0.93416 0.30976 0.0
N643 N 0.26292 0.03177 0.39068 0.0
H644 H 0.22882 0.91422 0.3721 0.0
H645 H 0.21483 0.96384 0.38781 0.0
H646 H 0.26881 0.06443 0.39469 0.0
H647 H 0.2439 0.01814 0.40578 0.0
H648 H 0.37727 0.94531 0.29965 0.0
H649 H 0.34567 0.90123 0.30612 0.0
H650 H 0.36864 0.01162 0.29293 0.0
H651 H 0.36112 0.05926 0.31263 0.0
C652 C 0.9652 0.26692 0.87053 0.0
C653 C 0.93225 0.30053 0.87078 0.0
C654 C 0.98795 0.35451 0.86915 0.0
C655 C 0.01927 0.32119 0.86396 0.0
N656 N 0.03483 0.24565 0.85294 0.0
N657 N 0.9127 0.37682 0.86066 0.0
C658 C 0.00712 0.27728 0.86258 0.0
C659 C 0.94359 0.34457 0.86738 0.0
N660 N 0.95752 0.22569 0.8792 0.0
N661 N 0.00034 0.39547 0.87642 0.0
H662 H 0.87985 0.37134 0.85604 0.0
H663 H 0.92066 0.40845 0.85575 0.0
H664 H 0.03285 0.40371 0.87947 0.0
H665 H 0.97842 0.4197 0.88279 0.0
H666 H 0.98195 0.20127 0.88153 0.0
H667 H 0.92846 0.21724 0.88747 0.0
H668 H 0.02558 0.21383 0.8491 0.0
H669 H 0.06542 0.25213 0.84612 0.0
C670 C 0.73934 0.00608 0.35786 0.0
C671 C 0.71005 0.02578 0.37675 0.0
C672 C 0.70768 0.95748 0.40375 0.0
C673 C 0.73111 0.93627 0.38208 0.0
N674 N 0.77092 0.93915 0.33904 0.0
N675 N 0.66625 0.02169 0.4179 0.0
C676 C 0.74811 0.96035 0.35952 0.0
C677 C 0.69465 0.00202 0.40004 0.0
N678 N 0.75872 0.03126 0.33847 0.0
N679 N 0.69865 0.93498 0.42811 0.0
H680 H 0.65759 0.05477 0.41669 0.0
H681 H 0.64954 0.00502 0.43296 0.0
H682 H 0.70828 0.90238 0.43151 0.0
H683 H 0.68525 0.94928 0.44609 0.0
H684 H 0.78329 0.01987 0.32577 0.0
H685 H 0.75255 0.06475 0.33669 0.0
H686 H 0.77973 0.9536 0.31999 0.0
H687 H 0.77974 0.90616 0.34059 0.0
C688 C 0.23373 0.48161 0.15914 0.0
C689 C 0.24321 0.45808 0.13365 0.0
C690 C 0.25536 0.52592 0.10806 0.0
C691 C 0.24435 0.54962 0.13321 0.0
N692 N 0.21793 0.5514 0.18139 0.0
N693 N 0.2564 0.45685 0.08257 0.0
C694 C 0.23169 0.52785 0.15831 0.0
C695 C 0.2523 0.47997 0.10775 0.0
N696 N 0.22885 0.45966 0.18452 0.0
N697 N 0.26901 0.5474 0.08453 0.0
H698 H 0.25485 0.42312 0.08162 0.0
H699 H 0.25812 0.47097 0.06213 0.0
H700 H 0.26852 0.58119 0.08291 0.0
H701 H 0.28284 0.53194 0.06711 0.0
H702 H 0.2268 0.47462 0.20474 0.0
H703 H 0.22997 0.42582 0.18594 0.0
H704 H 0.20339 0.53787 0.19879 0.0
H705 H 0.21857 0.58517 0.18246 0.0
C706 C 0.47223 0.25402 0.59691 0.0
C707 C 0.44767 0.27218 0.61923 0.0
C708 C 0.51498 0.28911 0.64831 0.0
C709 C 0.53939 0.2717 0.62571 0.0
N710 N 0.54218 0.24586 0.57631 0.0
N711 N 0.4444 0.31258 0.66413 0.0
C712 C 0.51823 0.25652 0.59936 0.0
C713 C 0.46869 0.29183 0.6442 0.0
N714 N 0.45159 0.23374 0.57353 0.0
N715 N 0.536 0.30078 0.67428 0.0
H716 H 0.41049 0.313 0.66285 0.0
H717 H 0.45756 0.33175 0.68099 0.0
H718 H 0.5698 0.29947 0.67798 0.0
H719 H 0.52022 0.30898 0.69289 0.0
H720 H 0.46776 0.2149 0.55859 0.0
H721 H 0.41784 0.23362 0.56978 0.0
H722 H 0.52865 0.23921 0.55539 0.0
H723 H 0.57597 0.24724 0.57739 0.0
C724 C 0.76082 0.47473 0.11155 0.0
C725 C 0.74291 0.45328 0.13497 0.0
C726 C 0.72979 0.52321 0.15913 0.0
C727 C 0.74616 0.54477 0.13521 0.0
N728 N 0.77156 0.54267 0.08683 0.0
N729 N 0.70533 0.45642 0.17924 0.0
C730 C 0.76022 0.52094 0.11092 0.0
C731 C 0.72555 0.47738 0.15811 0.0
N732 N 0.77867 0.45081 0.09 0.0
N733 N 0.72065 0.54629 0.18356 0.0
H734 H 0.70418 0.4227 0.1805 0.0
H735 H 0.68729 0.47237 0.19457 0.0
H736 H 0.72369 0.5798 0.18522 0.0
H737 H 0.71336 0.53212 0.20308 0.0
H738 H 0.79718 0.46384 0.07437 0.0
H739 H 0.77678 0.41714 0.08841 0.0
H740 H 0.77739 0.5278 0.06707 0.0
H741 H 0.77221 0.57643 0.08582 0.0
C742 C 0.51616 0.75388 0.59876 0.0
C743 C 0.53889 0.76525 0.62552 0.0
C744 C 0.46982 0.77865 0.64786 0.0
C745 C 0.44725 0.76405 0.62179 0.0
N746 N 0.44822 0.73367 0.57327 0.0
N747 N 0.53881 0.78273 0.67674 0.0
C748 C 0.47024 0.75032 0.5975 0.0
C749 C 0.51613 0.77641 0.65038 0.0
N750 N 0.53842 0.74819 0.57427 0.0
N751 N 0.44697 0.79457 0.67021 0.0
H752 H 0.57272 0.7814 0.67945 0.0
H753 H 0.52431 0.78608 0.69641 0.0
H754 H 0.41315 0.79399 0.67005 0.0
H755 H 0.46117 0.81062 0.68826 0.0
H756 H 0.52349 0.74457 0.55335 0.0
H757 H 0.57207 0.75067 0.5744 0.0
H758 H 0.46343 0.71833 0.55636 0.0
H759 H 0.41441 0.7326 0.57071 0.0
C760 C 0.23895 0.48605 0.85074 0.0
C761 C 0.25139 0.46372 0.87733 0.0
C762 C 0.26163 0.53295 0.90289 0.0
C763 C 0.24971 0.55517 0.87622 0.0
N764 N 0.23415 0.55441 0.82403 0.0
N765 N 0.27898 0.46437 0.92799 0.0
C766 C 0.24029 0.53213 0.84991 0.0
C767 C 0.26435 0.48674 0.90317 0.0
N768 N 0.22552 0.46309 0.82637 0.0
N769 N 0.26846 0.55614 0.92817 0.0
H770 H 0.27847 0.43066 0.92981 0.0
H771 H 0.29377 0.47875 0.94649 0.0
H772 H 0.26852 0.58997 0.92867 0.0
H773 H 0.27184 0.54235 0.94894 0.0
H774 H 0.21094 0.4773 0.80733 0.0
H775 H 0.22715 0.42922 0.82548 0.0
H776 H 0.23145 0.53965 0.80362 0.0
H777 H 0.23497 0.5882 0.82273 0.0
C778 C 0.52732 0.25074 0.34401 0.0
C779 C 0.5487 0.263 0.3711 0.0
C780 C 0.47844 0.27302 0.39245 0.0
C781 C 0.45704 0.26234 0.36506 0.0
N782 N 0.45947 0.2478 0.31361 0.0
N783 N 0.54558 0.29082 0.42012 0.0
C784 C 0.48104 0.25297 0.34049 0.0
C785 C 0.52449 0.27594 0.39498 0.0
N786 N 0.55137 0.23666 0.32172 0.0
N787 N 0.45483 0.2783 0.41636 0.0
H788 H 0.57938 0.29105 0.42356 0.0
H789 H 0.52975 0.30551 0.43701 0.0
H790 H 0.42102 0.27691 0.41529 0.0
H791 H 0.46862 0.28103 0.43766 0.0
H792 H 0.53812 0.22214 0.30278 0.0
H793 H 0.58524 0.23747 0.32269 0.0
H794 H 0.4748 0.24545 0.29421 0.0
H795 H 0.42559 0.24917 0.31028 0.0
C796 C 0.75666 0.51414 0.90746 0.0
C797 C 0.73669 0.53692 0.88276 0.0
C798 C 0.71974 0.46783 0.85851 0.0
C799 C 0.73815 0.44524 0.88371 0.0
N800 N 0.76684 0.44609 0.93406 0.0
N801 N 0.69457 0.5367 0.83623 0.0
C802 C 0.75463 0.4682 0.90871 0.0
C803 C 0.71652 0.5141 0.85879 0.0
N804 N 0.77798 0.53639 0.92967 0.0
N805 N 0.70749 0.44509 0.83381 0.0
H806 H 0.69399 0.5705 0.83462 0.0
H807 H 0.67482 0.52226 0.81988 0.0
H808 H 0.70917 0.41123 0.83283 0.0
H809 H 0.69848 0.45953 0.81365 0.0
H810 H 0.79797 0.52144 0.94635 0.0
H811 H 0.77801 0.57019 0.93068 0.0
H812 H 0.77424 0.4611 0.95405 0.0
H813 H 0.76611 0.41239 0.93582 0.0
C814 C 0.49 0.77633 0.39132 0.0
C815 C 0.46797 0.76166 0.36511 0.0
C816 C 0.53762 0.74595 0.34402 0.0
C817 C 0.55961 0.76265 0.36967 0.0
N818 N 0.5576 0.79836 0.41646 0.0
N819 N 0.46913 0.7389 0.31493 0.0
C820 C 0.53601 0.77946 0.39289 0.0
C821 C 0.49133 0.74813 0.34101 0.0
N822 N 0.46704 0.78536 0.41512 0.0
N823 N 0.56104 0.72775 0.32265 0.0
H824 H 0.43521 0.7401 0.31196 0.0
H825 H 0.48398 0.73332 0.29558 0.0
H826 H 0.59491 0.72802 0.32318 0.0
H827 H 0.54728 0.71026 0.30513 0.0
H828 H 0.48142 0.79127 0.43592 0.0
H829 H 0.43325 0.78391 0.41467 0.0
H830 H 0.5421 0.81574 0.43241 0.0
H831 H 0.59142 0.79912 0.41933 0.0
C832 C 0.22546 0.33057 0.01228 0.0
C833 C 0.23247 0.28842 0.02475 0.0
C834 C 0.2414 0.25726 0.97623 0.0
C835 C 0.23277 0.29913 0.96373 0.0
N836 N 0.21039 0.37471 0.96878 0.0
N837 N 0.24072 0.21093 0.01908 0.0
C838 C 0.22261 0.33542 0.98144 0.0
C839 C 0.23849 0.25148 0.00682 0.0
N840 N 0.2237 0.3663 0.02997 0.0
N841 N 0.25311 0.22333 0.95887 0.0
H842 H 0.23916 0.20584 0.04145 0.0
H843 H 0.24096 0.18227 0.00707 0.0
H844 H 0.25358 0.22615 0.93624 0.0
H845 H 0.26453 0.19305 0.96688 0.0
H846 H 0.22465 0.3981 0.02246 0.0
H847 H 0.22441 0.36447 0.05265 0.0
H848 H 0.19706 0.40071 0.98006 0.0
H849 H 0.21073 0.38085 0.94647 0.0
C850 C 0.75153 0.24704 0.48384 0.0
C851 C 0.71038 0.24154 0.46858 0.0
C852 C 0.67513 0.24308 0.51458 0.0
C853 C 0.71658 0.24583 0.53008 0.0
N854 N 0.79471 0.24505 0.53045 0.0
N855 N 0.63391 0.22753 0.46903 0.0
C856 C 0.75501 0.24622 0.51498 0.0
C857 C 0.67251 0.23726 0.48388 0.0
N858 N 0.78695 0.25388 0.46851 0.0
N859 N 0.63806 0.24798 0.52905 0.0
H860 H 0.62987 0.22484 0.44635 0.0
H861 H 0.60656 0.21876 0.47927 0.0
H862 H 0.63832 0.25217 0.55156 0.0
H863 H 0.60696 0.25165 0.5186 0.0
H864 H 0.81692 0.26285 0.47813 0.0
H865 H 0.78567 0.25286 0.44573 0.0
H866 H 0.82414 0.24089 0.52092 0.0
H867 H 0.79817 0.24539 0.55325 0.0
C868 C 0.76863 0.74219 0.98006 0.0
C869 C 0.75538 0.70196 0.96804 0.0
C870 C 0.7506 0.67228 0.01715 0.0
C871 C 0.75947 0.71381 0.02912 0.0
N872 N 0.77414 0.78923 0.02269 0.0
N873 N 0.72995 0.62957 0.97447 0.0
C874 C 0.76792 0.74905 0.01077 0.0
C875 C 0.74526 0.66728 0.98641 0.0
N876 N 0.78211 0.77355 0.96212 0.0
N877 N 0.74877 0.63715 0.03519 0.0
H878 H 0.7282 0.623 0.95215 0.0
H879 H 0.71631 0.60566 0.98649 0.0
H880 H 0.75164 0.63925 0.05789 0.0
H881 H 0.74802 0.60518 0.02783 0.0
H882 H 0.79632 0.80193 0.96965 0.0
H883 H 0.78163 0.7699 0.9395 0.0
H884 H 0.77604 0.81738 0.01042 0.0
H885 H 0.77479 0.79494 0.04513 0.0
C886 C 0.24938 0.75398 0.47777 0.0
C887 C 0.28778 0.76184 0.46377 0.0
C888 C 0.3269 0.77586 0.51111 0.0
C889 C 0.28953 0.76462 0.52534 0.0
N890 N 0.21679 0.73852 0.52306 0.0
N891 N 0.36522 0.77238 0.46703 0.0
C892 C 0.25116 0.75234 0.50889 0.0
C893 C 0.3271 0.77081 0.4804 0.0
N894 N 0.21113 0.74889 0.46125 0.0
N895 N 0.3624 0.79136 0.52693 0.0
H896 H 0.36714 0.7689 0.44459 0.0
H897 H 0.39572 0.77333 0.47837 0.0
H898 H 0.36519 0.79319 0.54966 0.0
H899 H 0.3881 0.80538 0.51745 0.0
H900 H 0.18103 0.74737 0.46996 0.0
H901 H 0.20902 0.74919 0.43845 0.0
H902 H 0.18969 0.72458 0.51253 0.0
H903 H 0.2165 0.73867 0.54578 0.0
C904 C 0.22908 0.68079 0.98066 0.0
C905 C 0.24022 0.71661 0.96355 0.0
C906 C 0.25118 0.76064 0.00797 0.0
C907 C 0.2437 0.72372 0.02506 0.0
N908 N 0.2328 0.64667 0.0283 0.0
N909 N 0.2655 0.78935 0.96046 0.0
C910 C 0.23438 0.68331 0.01159 0.0
C911 C 0.25238 0.75622 0.97709 0.0
N912 N 0.2135 0.6441 0.96744 0.0
N913 N 0.25633 0.80003 0.02128 0.0
H914 H 0.2646 0.78798 0.9377 0.0
H915 H 0.27947 0.8172 0.96914 0.0
H916 H 0.25623 0.80406 0.04385 0.0
H917 H 0.25762 0.82918 0.00999 0.0
H918 H 0.19929 0.61963 0.97862 0.0
H919 H 0.21185 0.63898 0.94497 0.0
H920 H 0.232 0.6154 0.01969 0.0
H921 H 0.23595 0.64674 0.05105 0.0
C922 C 0.24494 0.23877 0.4786 0.0
C923 C 0.2819 0.24825 0.46346 0.0
C924 C 0.32354 0.26286 0.50969 0.0
C925 C 0.28744 0.25116 0.52501 0.0
N926 N 0.21619 0.22202 0.52505 0.0
N927 N 0.35924 0.25872 0.46463 0.0
C928 C 0.24881 0.23716 0.50975 0.0
C929 C 0.32206 0.25721 0.47902 0.0
N930 N 0.20605 0.23236 0.46317 0.0
N931 N 0.35911 0.28015 0.52436 0.0
H932 H 0.35988 0.25419 0.44218 0.0
H933 H 0.39023 0.26022 0.47524 0.0
H934 H 0.36256 0.28356 0.547 0.0
H935 H 0.38387 0.29429 0.51392 0.0
H936 H 0.17678 0.22973 0.4728 0.0
H937 H 0.20256 0.2323 0.44038 0.0
H938 H 0.18895 0.2073 0.51533 0.0
H939 H 0.21782 0.22156 0.54784 0.0
C940 C 0.74503 0.31594 0.01822 0.0
C941 C 0.75577 0.27517 0.03184 0.0
C942 C 0.76728 0.24244 0.98413 0.0
C943 C 0.75201 0.28203 0.97048 0.0
N944 N 0.72055 0.3549 0.97395 0.0
N945 N 0.77419 0.19873 0.02848 0.0
C946 C 0.73913 0.31829 0.98736 0.0
C947 C 0.76626 0.23811 0.015 0.0
N948 N 0.74194 0.35283 0.03472 0.0
N949 N 0.78298 0.20929 0.96759 0.0
H950 H 0.77482 0.19488 0.0511 0.0
H951 H 0.7776 0.16953 0.0173 0.0
H952 H 0.78269 0.21109 0.94487 0.0
H953 H 0.79868 0.18118 0.97636 0.0
H954 H 0.73942 0.38403 0.02587 0.0
H955 H 0.74598 0.3529 0.05746 0.0
H956 H 0.70551 0.38002 0.98515 0.0
H957 H 0.71699 0.35905 0.95135 0.0
C958 C 0.67831 0.74951 0.48164 0.0
C959 C 0.71687 0.75536 0.46729 0.0
C960 C 0.75853 0.76322 0.51458 0.0
C961 C 0.71955 0.75942 0.52877 0.0
N962 N 0.64111 0.75739 0.52602 0.0
N963 N 0.79222 0.77343 0.46896 0.0
C964 C 0.67906 0.75497 0.51235 0.0
C965 C 0.75661 0.76402 0.48344 0.0
N966 N 0.64096 0.73811 0.46593 0.0
N967 N 0.79737 0.76497 0.53093 0.0
H968 H 0.79205 0.77288 0.44622 0.0
H969 H 0.821 0.78439 0.47922 0.0
H970 H 0.79961 0.76566 0.55373 0.0
H971 H 0.82751 0.76317 0.52214 0.0
H972 H 0.61354 0.72783 0.47545 0.0
H973 H 0.63801 0.73595 0.4432 0.0
H974 H 0.61036 0.75963 0.51494 0.0
H975 H 0.64 0.76095 0.54852 0.0
C976 C 0.49793 0.26632 0.11389 0.0
C977 C 0.51869 0.302 0.12766 0.0
C978 C 0.4531 0.32053 0.15277 0.0
C979 C 0.43046 0.28891 0.13581 0.0
N980 N 0.43007 0.23177 0.09986 0.0
N981 N 0.51695 0.36394 0.15979 0.0
C982 C 0.45267 0.26132 0.11655 0.0
C983 C 0.49662 0.32918 0.14718 0.0
N984 N 0.52168 0.23717 0.09844 0.0
N985 N 0.43329 0.34127 0.17487 0.0
H986 H 0.54958 0.36995 0.15754 0.0
H987 H 0.50101 0.3882 0.1712 0.0
H988 H 0.40166 0.3351 0.17988 0.0
H989 H 0.44926 0.36149 0.18998 0.0
H990 H 0.50981 0.20808 0.09024 0.0
H991 H 0.55468 0.24044 0.09571 0.0
H992 H 0.44292 0.21438 0.08284 0.0
H993 H 0.39735 0.22615 0.10196 0.0
C994 C 0.73652 0.46262 0.61977 0.0
C995 C 0.71216 0.439 0.63892 0.0
C996 C 0.67101 0.50535 0.65119 0.0
C997 C 0.6942 0.52874 0.63123 0.0
N998 N 0.75452 0.53308 0.60115 0.0
N999 N 0.66483 0.43849 0.67829 0.0
C1000 C 0.72893 0.50843 0.61708 0.0
C1001 C 0.68204 0.46065 0.65636 0.0
N1002 N 0.76548 0.44091 0.60332 0.0
N1003 N 0.63758 0.52565 0.66452 0.0
H1004 H 0.67269 0.40577 0.6828 0.0
H1005 H 0.64588 0.45309 0.69367 0.0
H1006 H 0.63022 0.55894 0.66261 0.0
H1007 H 0.61574 0.50939 0.67636 0.0
H1008 H 0.78059 0.45503 0.58638 0.0
H1009 H 0.77324 0.40779 0.60587 0.0
H1010 H 0.7828 0.52126 0.59239 0.0
H1011 H 0.74921 0.56655 0.59843 0.0
C1012 C 0.55165 0.68364 0.16131 0.0
C1013 C 0.57064 0.70928 0.14032 0.0
C1014 C 0.50071 0.71611 0.11115 0.0
C1015 C 0.48168 0.69118 0.13242 0.0
N1016 N 0.48562 0.65932 0.18053 0.0
N1017 N 0.56228 0.75747 0.09885 0.0
C1018 C 0.50609 0.67769 0.15847 0.0
C1019 C 0.54481 0.72783 0.11627 0.0
N1020 N 0.57749 0.66296 0.18303 0.0
N1021 N 0.47692 0.72755 0.08576 0.0
H1022 H 0.59425 0.7672 0.10252 0.0
H1023 H 0.54429 0.77524 0.0825 0.0
H1024 H 0.44401 0.72112 0.08189 0.0
H1025 H 0.49019 0.74128 0.06791 0.0
H1026 H 0.56632 0.63976 0.19683 0.0
H1027 H 0.61104 0.66631 0.18598 0.0
H1028 H 0.50066 0.65311 0.20128 0.0
H1029 H 0.4524 0.65369 0.17896 0.0
C1030 C 0.26154 0.46917 0.61055 0.0
C1031 C 0.29064 0.44664 0.59278 0.0
C1032 C 0.32574 0.51473 0.58332 0.0
C1033 C 0.30094 0.53571 0.60434 0.0
N1034 N 0.24634 0.5337 0.63909 0.0
N1035 N 0.35407 0.44652 0.56489 0.0
C1036 C 0.26888 0.51323 0.61816 0.0
C1037 C 0.32339 0.4691 0.57952 0.0
N1038 N 0.22628 0.44871 0.61944 0.0
N1039 N 0.35156 0.53849 0.56699 0.0
H1040 H 0.3543 0.41294 0.56201 0.0
H1041 H 0.38159 0.46047 0.55774 0.0
H1042 H 0.35459 0.57192 0.56956 0.0
H1043 H 0.36682 0.52592 0.54916 0.0
H1044 H 0.20162 0.46435 0.63024 0.0
H1045 H 0.21962 0.41677 0.61364 0.0
H1046 H 0.2263 0.51776 0.65249 0.0
H1047 H 0.24952 0.56651 0.64419 0.0
C1048 C 0.53295 0.74632 0.87327 0.0
C1049 C 0.55897 0.71787 0.89235 0.0
C1050 C 0.49396 0.68231 0.90638 0.0
C1051 C 0.46818 0.70936 0.88634 0.0
N1052 N 0.46025 0.77318 0.85596 0.0
N1053 N 0.56425 0.66773 0.93282 0.0
C1054 C 0.48683 0.74354 0.87157 0.0
C1055 C 0.53938 0.68864 0.91076 0.0
N1056 N 0.55245 0.77439 0.85579 0.0
N1057 N 0.4752 0.64953 0.92037 0.0
H1058 H 0.59754 0.67227 0.93682 0.0
H1059 H 0.5515 0.64909 0.94878 0.0
H1060 H 0.44168 0.64545 0.91886 0.0
H1061 H 0.49282 0.62518 0.93237 0.0
H1062 H 0.53593 0.79221 0.83886 0.0
H1063 H 0.58592 0.77853 0.85733 0.0
H1064 H 0.47116 0.80117 0.8467 0.0
H1065 H 0.42641 0.77159 0.85428 0.0
C1066 C 0.32685 0.46323 0.33097 0.0
C1067 C 0.29841 0.44217 0.34883 0.0
C1068 C 0.29021 0.50838 0.37793 0.0
C1069 C 0.31812 0.52949 0.35979 0.0
N1070 N 0.35501 0.53111 0.31538 0.0
N1071 N 0.24569 0.44644 0.38487 0.0
C1072 C 0.33373 0.50822 0.33504 0.0
C1073 C 0.27781 0.46534 0.37101 0.0
N1074 N 0.34931 0.43973 0.3113 0.0
N1075 N 0.27659 0.52911 0.40216 0.0
H1076 H 0.2354 0.41531 0.37971 0.0
H1077 H 0.22659 0.46275 0.39947 0.0
H1078 H 0.28359 0.56127 0.40714 0.0
H1079 H 0.26042 0.51387 0.41816 0.0
H1080 H 0.37439 0.4521 0.30026 0.0
H1081 H 0.34536 0.40669 0.30754 0.0
H1082 H 0.36299 0.51869 0.29529 0.0
H1083 H 0.36139 0.56396 0.31797 0.0
C1084 C 0.44866 0.3325 0.87491 0.0
C1085 C 0.43211 0.29504 0.88798 0.0
C1086 C 0.50583 0.26165 0.89186 0.0
C1087 C 0.52216 0.30063 0.88153 0.0
N1088 N 0.51055 0.37784 0.87408 0.0
N1089 N 0.4495 0.23127 0.91831 0.0
C1090 C 0.49405 0.33763 0.87674 0.0
C1091 C 0.46201 0.26168 0.89934 0.0
N1092 N 0.42231 0.36188 0.85889 0.0
N1093 N 0.53128 0.2243 0.89365 0.0
H1094 H 0.41903 0.23252 0.92673 0.0
H1095 H 0.47134 0.20842 0.92863 0.0
H1096 H 0.5633 0.22267 0.88777 0.0
H1097 H 0.51912 0.19424 0.89847 0.0
H1098 H 0.43466 0.38702 0.8472 0.0
H1099 H 0.38924 0.35876 0.85375 0.0
H1100 H 0.49094 0.40628 0.87302 0.0
H1101 H 0.54386 0.38307 0.87654 0.0
C1102 C 0.68063 0.45903 0.41079 0.0
C1103 C 0.71559 0.43531 0.39898 0.0
C1104 C 0.74059 0.502 0.37767 0.0
C1105 C 0.70514 0.52548 0.38902 0.0
N1106 N 0.64781 0.52958 0.4218 0.0
N1107 N 0.78403 0.43446 0.37689 0.0
C1108 C 0.67716 0.50493 0.40735 0.0
C1109 C 0.74743 0.45698 0.38437 0.0
N1110 N 0.65021 0.43745 0.42471 0.0
N1111 N 0.76647 0.52239 0.35949 0.0
H1112 H 0.78958 0.40134 0.38106 0.0
H1113 H 0.81045 0.44898 0.36866 0.0
H1114 H 0.76325 0.55561 0.35498 0.0
H1115 H 0.78963 0.50624 0.34765 0.0
H1116 H 0.62104 0.45186 0.43057 0.0
H1117 H 0.65317 0.40424 0.42931 0.0
H1118 H 0.6292 0.51736 0.43767 0.0
H1119 H 0.64465 0.56332 0.41976 0.0
C1120 C 0.30062 0.23695 0.25237 0.0
C1121 C 0.27722 0.25742 0.27446 0.0
C1122 C 0.23315 0.30005 0.23728 0.0
C1123 C 0.25506 0.27804 0.21506 0.0
N1124 N 0.30005 0.21666 0.20136 0.0
N1125 N 0.21284 0.29793 0.28715 0.0
C1126 C 0.28563 0.24349 0.22261 0.0
C1127 C 0.24061 0.28543 0.2666 0.0
N1128 N 0.33874 0.21382 0.25941 0.0
N1129 N 0.20779 0.3368 0.23102 0.0
H1130 H 0.21687 0.2869 0.30873 0.0
H1131 H 0.18349 0.31519 0.28203 0.0
H1132 H 0.20279 0.35041 0.21022 0.0
H1133 H 0.19518 0.3564 0.24712 0.0
H1134 H 0.35927 0.20256 0.24379 0.0
H1135 H 0.35215 0.20924 0.28075 0.0
H1136 H 0.31939 0.1886 0.20594 0.0
H1137 H 0.28876 0.21987 0.17941 0.0
C1138 C 0.70929 0.293 0.76652 0.0
C1139 C 0.73905 0.26144 0.77989 0.0
C1140 C 0.7496 0.22939 0.73191 0.0
C1141 C 0.71511 0.25704 0.7194 0.0
N1142 N 0.65508 0.30801 0.72686 0.0
N1143 N 0.78522 0.19705 0.77618 0.0
C1144 C 0.69303 0.28698 0.73724 0.0
C1145 C 0.75864 0.22884 0.76283 0.0
N1146 N 0.69724 0.32935 0.78152 0.0
N1147 N 0.77484 0.20517 0.71427 0.0
H1148 H 0.79337 0.19651 0.79867 0.0
H1149 H 0.79669 0.16973 0.7653 0.0
H1150 H 0.77012 0.20595 0.69153 0.0
H1151 H 0.8029 0.18753 0.72196 0.0
H1152 H 0.67888 0.35528 0.77171 0.0
H1153 H 0.70939 0.33578 0.80284 0.0
H1154 H 0.6357 0.32678 0.74008 0.0
H1155 H 0.64026 0.30282 0.70606 0.0
C1156 C 0.78623 0.74606 0.23411 0.0
C1157 C 0.75623 0.71749 0.21993 0.0
C1158 C 0.71568 0.71723 0.26366 0.0
C1159 C 0.74938 0.7393 0.27934 0.0
N1160 N 0.81921 0.77187 0.28036 0.0
N1161 N 0.69936 0.66636 0.22507 0.0
C1162 C 0.78545 0.75301 0.26482 0.0
C1163 C 0.72278 0.70046 0.23573 0.0
N1164 N 0.81401 0.768 0.21821 0.0
N1165 N 0.67645 0.71287 0.27513 0.0
H1166 H 0.70571 0.65005 0.20588 0.0
H1167 H 0.67732 0.65077 0.23722 0.0
H1168 H 0.66919 0.72633 0.29513 0.0
H1169 H 0.64969 0.70021 0.26323 0.0
H1170 H 0.8338 0.79209 0.22704 0.0
H1171 H 0.8141 0.76535 0.19558 0.0
H1172 H 0.84842 0.77833 0.27153 0.0
H1173 H 0.81911 0.77822 0.30269 0.0
C1174 C 0.21461 0.77657 0.7565 0.0
C1175 C 0.23936 0.74405 0.77309 0.0
C1176 C 0.28092 0.72715 0.73111 0.0
C1177 C 0.2528 0.75538 0.71329 0.0
N1178 N 0.18789 0.80202 0.70813 0.0
N1179 N 0.28533 0.67861 0.77239 0.0
C1180 C 0.21809 0.77876 0.72571 0.0
C1181 C 0.26921 0.71628 0.75924 0.0
N1182 N 0.18881 0.806 0.77016 0.0
N1183 N 0.31993 0.7123 0.72195 0.0
H1184 H 0.27538 0.66787 0.79228 0.0
H1185 H 0.30463 0.65587 0.76186 0.0
H1186 H 0.33155 0.72217 0.70235 0.0
H1187 H 0.34278 0.69437 0.73544 0.0
H1188 H 0.17348 0.83304 0.75961 0.0
H1189 H 0.18553 0.80527 0.7926 0.0
H1190 H 0.15963 0.81625 0.71563 0.0
H1191 H 0.18924 0.80393 0.68552 0.0
C1192 C 0.70072 0.76955 0.76856 0.0
C1193 C 0.72521 0.73203 0.77884 0.0
C1194 C 0.74116 0.71431 0.72873 0.0
C1195 C 0.71071 0.74734 0.71811 0.0
N1196 N 0.65441 0.80116 0.72878 0.0
N1197 N 0.76046 0.663 0.76769 0.0
C1198 C 0.68874 0.77395 0.7382 0.0
C1199 C 0.74337 0.70281 0.75869 0.0
N1200 N 0.68893 0.80104 0.78775 0.0
N1201 N 0.76868 0.69459 0.71039 0.0
H1202 H 0.7604 0.65194 0.78914 0.0
H1203 H 0.77031 0.63918 0.75316 0.0
H1204 H 0.76948 0.7039 0.68859 0.0
H1205 H 0.79386 0.67273 0.71768 0.0
H1206 H 0.67467 0.83099 0.78103 0.0
H1207 H 0.69724 0.7989 0.81019 0.0
H1208 H 0.63478 0.81761 0.74302 0.0
H1209 H 0.64233 0.80392 0.70703 0.0
C1210 C 0.30185 0.75745 0.22341 0.0
C1211 C 0.27204 0.7248 0.21552 0.0
C1212 C 0.25711 0.71708 0.26692 0.0
C1213 C 0.29201 0.74418 0.27509 0.0
N1214 N 0.35246 0.7852 0.26103 0.0
N1215 N 0.22629 0.66805 0.23064 0.0
C1216 C 0.31554 0.76343 0.25334 0.0
C1217 C 0.2506 0.70334 0.23745 0.0
N1218 N 0.31642 0.78335 0.20236 0.0
N1219 N 0.22975 0.70498 0.28727 0.0
H1220 H 0.22177 0.65547 0.20961 0.0
H1221 H 0.21409 0.64852 0.24638 0.0
H1222 H 0.23308 0.71532 0.30895 0.0
H1223 H 0.2013 0.68861 0.28196 0.0
H1224 H 0.33506 0.8103 0.20711 0.0
H1225 H 0.30606 0.78064 0.18028 0.0
H1226 H 0.37336 0.79552 0.24587 0.0
H1227 H 0.36461 0.78949 0.28261 0.0
C1228 C 0.23358 0.23848 0.72832 0.0
C1229 C 0.26192 0.26541 0.71419 0.0
C1230 C 0.27631 0.30504 0.75969 0.0
C1231 C 0.25369 0.27409 0.77489 0.0
N1232 N 0.21686 0.20638 0.77416 0.0
N1233 N 0.32151 0.31434 0.71988 0.0
C1234 C 0.23408 0.23921 0.75935 0.0
C1235 C 0.28663 0.29587 0.73083 0.0
N1236 N 0.20557 0.21301 0.71219 0.0
N1237 N 0.28722 0.34361 0.7724 0.0
H1238 H 0.33277 0.30566 0.69974 0.0
H1239 H 0.34227 0.33419 0.7324 0.0
H1240 H 0.27828 0.3528 0.79305 0.0
H1241 H 0.30086 0.36828 0.76099 0.0
H1242 H 0.18149 0.19582 0.72132 0.0
H1243 H 0.20389 0.21215 0.68941 0.0
H1244 H 0.20597 0.17811 0.76403 0.0
H1245 H 0.21683 0.2059 0.79689 0.0
C1246 C 0.76929 0.24543 0.2654 0.0
C1247 C 0.73378 0.26249 0.28026 0.0
C1248 C 0.70524 0.30148 0.23628 0.0
C1249 C 0.73834 0.28134 0.22036 0.0
N1250 N 0.79513 0.22512 0.21858 0.0
N1251 N 0.66056 0.29411 0.27675 0.0
C1252 C 0.76856 0.25064 0.23456 0.0
C1253 C 0.69929 0.28635 0.26468 0.0
N1254 N 0.80395 0.22497 0.28071 0.0
N1255 N 0.6813 0.33698 0.22539 0.0
H1256 H 0.65422 0.28202 0.29715 0.0
H1257 H 0.6333 0.30826 0.26504 0.0
H1258 H 0.68694 0.35226 0.20589 0.0
H1259 H 0.65954 0.3546 0.23762 0.0
H1260 H 0.83271 0.21596 0.27136 0.0
H1261 H 0.80514 0.21994 0.30324 0.0
H1262 H 0.81505 0.19971 0.22764 0.0
H1263 H 0.79368 0.22607 0.19581 0.0
loop_
_geom_bond_atom_site_label_1
_geom_bond_atom_site_label_2
_geom_bond_distance
_geom_bond_site_symmetry_2
_ccdc_geom_bond_type
Co0 O3 1.970 . S
Co0 N17 1.989 . S
Co0 O25 1.967 . S
Co0 O32 1.920 . S
Co1 O4 1.966 . S
Co1 N10 2.022 . S
Co1 N18 1.993 . S
Co1 O26 1.941 . S
C2 O3 1.258 . S
C2 O4 1.263 . S
O3 Co0 1.970 . S
O3 C2 1.258 . S
O4 Co1 1.966 . S
O4 C2 1.263 . S
C5 O6 1.235 . S
C5 O32 1.289 . S
O6 C5 1.235 . S
C7 C9 1.400 . S
C7 N10 1.351 . S
C7 C12 1.501 . S
C8 C9 1.387 . S
C8 N11 1.341 . S
C9 C7 1.400 . S
C9 C8 1.387 . S
N10 Co1 2.022 . S
N10 C7 1.351 . S
N10 N11 1.365 . S
N11 C8 1.341 . S
N11 N10 1.365 . S
N11 H31 0.862 . S
C12 C7 1.501 . S
C12 H13 0.961 . S
C12 H14 0.961 . S
C12 H15 0.960 . S
H13 C12 0.961 . S
H14 C12 0.961 . S
H15 C12 0.960 . S
C16 N17 1.342 . S
C16 C20 1.401 . S
C16 C21 1.499 . S
N17 Co0 1.989 . S
N17 C16 1.342 . S
N17 N18 1.388 . S
N18 Co1 1.993 . S
N18 N17 1.388 . S
N18 C19 1.346 . S
C19 N18 1.346 . S
C19 C20 1.396 . S
C19 C29 1.510 . S
C20 C16 1.401 . S
C20 C19 1.396 . S
C21 C16 1.499 . S
C21 H22 0.959 . S
C21 H23 0.960 . S
C21 H24 0.961 . S
H22 C21 0.959 . S
H23 C21 0.960 . S
H24 C21 0.961 . S
O25 Co0 1.967 . S
O25 C33 1.258 . S
O26 Co1 1.941 . S
O26 C33 1.266 . S
H27 C29 0.959 . S
H28 C29 0.961 . S
C29 C19 1.510 . S
C29 H27 0.959 . S
C29 H28 0.961 . S
C29 H30 0.960 . S
H30 C29 0.960 . S
H31 N11 0.862 . S
O32 Co0 1.920 . S
O32 C5 1.289 . S
C33 O25 1.258 . S
C33 O26 1.266 . S
Co34 O37 1.970 . S
Co34 N51 1.989 . S
Co34 O59 1.967 . S
Co34 O66 1.920 . S
Co35 O38 1.966 . S
Co35 N44 2.022 . S
Co35 N52 1.993 . S
Co35 O60 1.941 . S
C36 O37 1.258 . S
C36 O38 1.263 . S
O37 Co34 1.970 . S
O37 C36 1.258 . S
O38 Co35 1.966 . S
O38 C36 1.263 . S
C39 O40 1.235 . S
C39 O66 1.289 . S
O40 C39 1.235 . S
C41 C43 1.400 . S
C41 N44 1.351 . S
C41 C46 1.501 . S
C42 C43 1.387 . S
C42 N45 1.341 . S
C43 C41 1.400 . S
C43 C42 1.387 . S
N44 Co35 2.022 . S
N44 C41 1.351 . S
N44 N45 1.365 . S
N45 C42 1.341 . S
N45 N44 1.365 . S
N45 H65 0.862 . S
C46 C41 1.501 . S
C46 H47 0.961 . S
C46 H48 0.961 . S
C46 H49 0.960 . S
H47 C46 0.961 . S
H48 C46 0.961 . S
H49 C46 0.960 . S
C50 N51 1.342 . S
C50 C54 1.401 . S
C50 C55 1.499 . S
N51 Co34 1.989 . S
N51 C50 1.342 . S
N51 N52 1.388 . S
N52 Co35 1.993 . S
N52 N51 1.388 . S
N52 C53 1.346 . S
C53 N52 1.346 . S
C53 C54 1.396 . S
C53 C63 1.510 . S
C54 C50 1.401 . S
C54 C53 1.396 . S
C55 C50 1.499 . S
C55 H56 0.959 . S
C55 H57 0.960 . S
C55 H58 0.961 . S
H56 C55 0.959 . S
H57 C55 0.960 . S
H58 C55 0.961 . S
O59 Co34 1.967 . S
O59 C67 1.258 . S
O60 Co35 1.941 . S
O60 C67 1.266 . S
H61 C63 0.959 . S
H62 C63 0.961 . S
C63 C53 1.510 . S
C63 H61 0.959 . S
C63 H62 0.961 . S
C63 H64 0.960 . S
H64 C63 0.960 . S
H65 N45 0.862 . S
O66 Co34 1.920 . S
O66 C39 1.289 . S
C67 O59 1.258 . S
C67 O60 1.266 . S
Co68 O71 1.970 . S
Co68 N85 1.989 . S
Co68 O93 1.967 . S
Co68 O100 1.920 . S
Co69 O72 1.966 . S
Co69 N78 2.022 . S
Co69 N86 1.993 . S
Co69 O94 1.941 . S
C70 O71 1.258 . S
C70 O72 1.263 . S
O71 Co68 1.970 . S
O71 C70 1.258 . S
O72 Co69 1.966 . S
O72 C70 1.263 . S
C73 O74 1.235 . S
C73 O100 1.289 . S
O74 C73 1.235 . S
C75 C77 1.400 . S
C75 N78 1.351 . S
C75 C80 1.501 . S
C76 C77 1.387 . S
C76 N79 1.341 . S
C77 C75 1.400 . S
C77 C76 1.387 . S
N78 Co69 2.022 . S
N78 C75 1.351 . S
N78 N79 1.365 . S
N79 C76 1.341 . S
N79 N78 1.365 . S
N79 H99 0.862 . S
C80 C75 1.501 . S
C80 H81 0.961 . S
C80 H82 0.961 . S
C80 H83 0.960 . S
H81 C80 0.961 . S
H82 C80 0.961 . S
H83 C80 0.960 . S
C84 N85 1.342 . S
C84 C88 1.401 . S
C84 C89 1.499 . S
N85 Co68 1.989 . S
N85 C84 1.342 . S
N85 N86 1.388 . S
N86 Co69 1.993 . S
N86 N85 1.388 . S
N86 C87 1.346 . S
C87 N86 1.346 . S
C87 C88 1.396 . S
C87 C97 1.510 . S
C88 C84 1.401 . S
C88 C87 1.396 . S
C89 C84 1.499 . S
C89 H90 0.959 . S
C89 H91 0.960 . S
C89 H92 0.961 . S
H90 C89 0.959 . S
H91 C89 0.960 . S
H92 C89 0.961 . S
O93 Co68 1.967 . S
O93 C101 1.258 . S
O94 Co69 1.941 . S
O94 C101 1.266 . S
H95 C97 0.959 . S
H96 C97 0.961 . S
C97 C87 1.510 . S
C97 H95 0.959 . S
C97 H96 0.961 . S
C97 H98 0.960 . S
H98 C97 0.960 . S
H99 N79 0.862 . S
O100 Co68 1.920 . S
O100 C73 1.289 . S
C101 O93 1.258 . S
C101 O94 1.266 . S
Co102 O105 1.970 . S
Co102 N119 1.989 . S
Co102 O127 1.967 . S
Co102 O134 1.920 . S
Co103 O106 1.966 . S
Co103 N112 2.022 . S
Co103 N120 1.993 . S
Co103 O128 1.941 . S
C104 O105 1.258 . S
C104 O106 1.263 . S
O105 Co102 1.970 . S
O105 C104 1.258 . S
O106 Co103 1.966 . S
O106 C104 1.263 . S
C107 O108 1.235 . S
C107 O134 1.289 . S
O108 C107 1.235 . S
C109 C111 1.400 . S
C109 N112 1.351 . S
C109 C114 1.501 . S
C110 C111 1.387 . S
C110 N113 1.341 . S
C111 C109 1.400 . S
C111 C110 1.387 . S
N112 Co103 2.022 . S
N112 C109 1.351 . S
N112 N113 1.365 . S
N113 C110 1.341 . S
N113 N112 1.365 . S
N113 H133 0.862 . S
C114 C109 1.501 . S
C114 H115 0.961 . S
C114 H116 0.961 . S
C114 H117 0.960 . S
H115 C114 0.961 . S
H116 C114 0.961 . S
H117 C114 0.960 . S
C118 N119 1.342 . S
C118 C122 1.401 . S
C118 C123 1.499 . S
N119 Co102 1.989 . S
N119 C118 1.342 . S
N119 N120 1.388 . S
N120 Co103 1.993 . S
N120 N119 1.388 . S
N120 C121 1.346 . S
C121 N120 1.346 . S
C121 C122 1.396 . S
C121 C131 1.510 . S
C122 C118 1.401 . S
C122 C121 1.396 . S
C123 C118 1.499 . S
C123 H124 0.959 . S
C123 H125 0.960 . S
C123 H126 0.961 . S
H124 C123 0.959 . S
H125 C123 0.960 . S
H126 C123 0.961 . S
O127 Co102 1.967 . S
O127 C135 1.258 . S
O128 Co103 1.941 . S
O128 C135 1.266 . S
H129 C131 0.959 . S
H130 C131 0.961 . S
C131 C121 1.510 . S
C131 H129 0.959 . S
C131 H130 0.961 . S
C131 H132 0.960 . S
H132 C131 0.960 . S
H133 N113 0.862 . S
O134 Co102 1.920 . S
O134 C107 1.289 . S
C135 O127 1.258 . S
C135 O128 1.266 . S
Co136 O139 1.970 . S
Co136 N153 1.989 . S
Co136 O161 1.967 . S
Co136 O168 1.920 . S
Co137 O140 1.966 . S
Co137 N146 2.022 . S
Co137 N154 1.993 . S
Co137 O162 1.941 . S
C138 O139 1.258 . S
C138 O140 1.263 . S
O139 Co136 1.970 . S
O139 C138 1.258 . S
O140 Co137 1.966 . S
O140 C138 1.263 . S
C141 O142 1.235 . S
C141 O168 1.289 . S
O142 C141 1.235 . S
C143 C145 1.400 . S
C143 N146 1.351 . S
C143 C148 1.501 . S
C144 C145 1.387 . S
C144 N147 1.341 . S
C145 C143 1.400 . S
C145 C144 1.387 . S
N146 Co137 2.022 . S
N146 C143 1.351 . S
N146 N147 1.365 . S
N147 C144 1.341 . S
N147 N146 1.365 . S
N147 H167 0.862 . S
C148 C143 1.501 . S
C148 H149 0.961 . S
C148 H150 0.961 . S
C148 H151 0.960 . S
H149 C148 0.961 . S
H150 C148 0.961 . S
H151 C148 0.960 . S
C152 N153 1.342 . S
C152 C156 1.401 . S
C152 C157 1.499 . S
N153 Co136 1.989 . S
N153 C152 1.342 . S
N153 N154 1.388 . S
N154 Co137 1.993 . S
N154 N153 1.388 . S
N154 C155 1.346 . S
C155 N154 1.346 . S
C155 C156 1.396 . S
C155 C165 1.510 . S
C156 C152 1.401 . S
C156 C155 1.396 . S
C157 C152 1.499 . S
C157 H158 0.959 . S
C157 H159 0.960 . S
C157 H160 0.961 . S
H158 C157 0.959 . S
H159 C157 0.960 . S
H160 C157 0.961 . S
O161 Co136 1.967 . S
O161 C169 1.258 . S
O162 Co137 1.941 . S
O162 C169 1.266 . S
H163 C165 0.959 . S
H164 C165 0.961 . S
C165 C155 1.510 . S
C165 H163 0.959 . S
C165 H164 0.961 . S
C165 H166 0.960 . S
H166 C165 0.960 . S
H167 N147 0.862 . S
O168 Co136 1.920 . S
O168 C141 1.289 . S
C169 O161 1.258 . S
C169 O162 1.266 . S
Co170 O173 1.970 . S
Co170 N187 1.989 . S
Co170 O195 1.967 . S
Co170 O202 1.920 . S
Co171 O174 1.966 . S
Co171 N180 2.022 . S
Co171 N188 1.993 . S
Co171 O196 1.941 . S
C172 O173 1.258 . S
C172 O174 1.263 . S
O173 Co170 1.970 . S
O173 C172 1.258 . S
O174 Co171 1.966 . S
O174 C172 1.263 . S
C175 O176 1.235 . S
C175 O202 1.289 . S
O176 C175 1.235 . S
C177 C179 1.400 . S
C177 N180 1.351 . S
C177 C182 1.501 . S
C178 C179 1.387 . S
C178 N181 1.341 . S
C179 C177 1.400 . S
C179 C178 1.387 . S
N180 Co171 2.022 . S
N180 C177 1.351 . S
N180 N181 1.365 . S
N181 C178 1.341 . S
N181 N180 1.365 . S
N181 H201 0.862 . S
C182 C177 1.501 . S
C182 H183 0.961 . S
C182 H184 0.961 . S
C182 H185 0.960 . S
H183 C182 0.961 . S
H184 C182 0.961 . S
H185 C182 0.960 . S
C186 N187 1.342 . S
C186 C190 1.401 . S
C186 C191 1.499 . S
N187 Co170 1.989 . S
N187 C186 1.342 . S
N187 N188 1.388 . S
N188 Co171 1.993 . S
N188 N187 1.388 . S
N188 C189 1.346 . S
C189 N188 1.346 . S
C189 C190 1.396 . S
C189 C199 1.510 . S
C190 C186 1.401 . S
C190 C189 1.396 . S
C191 C186 1.499 . S
C191 H192 0.959 . S
C191 H193 0.960 . S
C191 H194 0.961 . S
H192 C191 0.959 . S
H193 C191 0.960 . S
H194 C191 0.961 . S
O195 Co170 1.967 . S
O195 C203 1.258 . S
O196 Co171 1.941 . S
O196 C203 1.266 . S
H197 C199 0.959 . S
H198 C199 0.961 . S
C199 C189 1.510 . S
C199 H197 0.959 . S
C199 H198 0.961 . S
C199 H200 0.960 . S
H200 C199 0.960 . S
H201 N181 0.862 . S
O202 Co170 1.920 . S
O202 C175 1.289 . S
C203 O195 1.258 . S
C203 O196 1.266 . S
Co204 O207 1.970 . S
Co204 N221 1.989 . S
Co204 O229 1.967 . S
Co204 O236 1.920 . S
Co205 O208 1.966 . S
Co205 N214 2.022 . S
Co205 N222 1.993 . S
Co205 O230 1.941 . S
C206 O207 1.258 . S
C206 O208 1.263 . S
O207 Co204 1.970 . S
O207 C206 1.258 . S
O208 Co205 1.966 . S
O208 C206 1.263 . S
C209 O210 1.235 . S
C209 O236 1.289 . S
O210 C209 1.235 . S
C211 C213 1.400 . S
C211 N214 1.351 . S
C211 C216 1.501 . S
C212 C213 1.387 . S
C212 N215 1.341 . S
C213 C211 1.400 . S
C213 C212 1.387 . S
N214 Co205 2.022 . S
N214 C211 1.351 . S
N214 N215 1.365 . S
N215 C212 1.341 . S
N215 N214 1.365 . S
N215 H235 0.862 . S
C216 C211 1.501 . S
C216 H217 0.961 . S
C216 H218 0.961 . S
C216 H219 0.960 . S
H217 C216 0.961 . S
H218 C216 0.961 . S
H219 C216 0.960 . S
C220 N221 1.342 . S
C220 C224 1.401 . S
C220 C225 1.499 . S
N221 Co204 1.989 . S
N221 C220 1.342 . S
N221 N222 1.388 . S
N222 Co205 1.993 . S
N222 N221 1.388 . S
N222 C223 1.346 . S
C223 N222 1.346 . S
C223 C224 1.396 . S
C223 C233 1.510 . S
C224 C220 1.401 . S
C224 C223 1.396 . S
C225 C220 1.499 . S
C225 H226 0.959 . S
C225 H227 0.960 . S
C225 H228 0.961 . S
H226 C225 0.959 . S
H227 C225 0.960 . S
H228 C225 0.961 . S
O229 Co204 1.967 . S
O229 C237 1.258 . S
O230 Co205 1.941 . S
O230 C237 1.266 . S
H231 C233 0.959 . S
H232 C233 0.961 . S
C233 C223 1.510 . S
C233 H231 0.959 . S
C233 H232 0.961 . S
C233 H234 0.960 . S
H234 C233 0.960 . S
H235 N215 0.862 . S
O236 Co204 1.920 . S
O236 C209 1.289 . S
C237 O229 1.258 . S
C237 O230 1.266 . S
Co238 O241 1.970 . S
Co238 N255 1.989 . S
Co238 O263 1.967 . S
Co238 O270 1.920 . S
Co239 O242 1.966 . S
Co239 N248 2.022 . S
Co239 N256 1.993 . S
Co239 O264 1.941 . S
C240 O241 1.258 . S
C240 O242 1.263 . S
O241 Co238 1.970 . S
O241 C240 1.258 . S
O242 Co239 1.966 . S
O242 C240 1.263 . S
C243 O244 1.235 . S
C243 O270 1.289 . S
O244 C243 1.235 . S
C245 C247 1.400 . S
C245 N248 1.351 . S
C245 C250 1.501 . S
C246 C247 1.387 . S
C246 N249 1.341 . S
C247 C245 1.400 . S
C247 C246 1.387 . S
N248 Co239 2.022 . S
N248 C245 1.351 . S
N248 N249 1.365 . S
N249 C246 1.341 . S
N249 N248 1.365 . S
N249 H269 0.862 . S
C250 C245 1.501 . S
C250 H251 0.961 . S
C250 H252 0.961 . S
C250 H253 0.960 . S
H251 C250 0.961 . S
H252 C250 0.961 . S
H253 C250 0.960 . S
C254 N255 1.342 . S
C254 C258 1.401 . S
C254 C259 1.499 . S
N255 Co238 1.989 . S
N255 C254 1.342 . S
N255 N256 1.388 . S
N256 Co239 1.993 . S
N256 N255 1.388 . S
N256 C257 1.346 . S
C257 N256 1.346 . S
C257 C258 1.396 . S
C257 C267 1.510 . S
C258 C254 1.401 . S
C258 C257 1.396 . S
C259 C254 1.499 . S
C259 H260 0.959 . S
C259 H261 0.960 . S
C259 H262 0.961 . S
H260 C259 0.959 . S
H261 C259 0.960 . S
H262 C259 0.961 . S
O263 Co238 1.967 . S
O263 C271 1.258 . S
O264 Co239 1.941 . S
O264 C271 1.266 . S
H265 C267 0.959 . S
H266 C267 0.961 . S
C267 C257 1.510 . S
C267 H265 0.959 . S
C267 H266 0.961 . S
C267 H268 0.960 . S
H268 C267 0.960 . S
H269 N249 0.862 . S
O270 Co238 1.920 . S
O270 C243 1.289 . S
C271 O263 1.258 . S
C271 O264 1.266 . S
Co272 O275 1.970 . S
Co272 N289 1.989 . S
Co272 O297 1.967 . S
Co272 O304 1.920 . S
Co273 O276 1.966 . S
Co273 N282 2.022 . S
Co273 N290 1.993 . S
Co273 O298 1.941 . S
C274 O275 1.258 . S
C274 O276 1.263 . S
O275 Co272 1.970 . S
O275 C274 1.258 . S
O276 Co273 1.966 . S
O276 C274 1.263 . S
C277 O278 1.235 . S
C277 O304 1.289 . S
O278 C277 1.235 . S
C279 C281 1.400 . S
C279 N282 1.351 . S
C279 C284 1.501 . S
C280 C281 1.387 . S
C280 N283 1.341 . S
C281 C279 1.400 . S
C281 C280 1.387 . S
N282 Co273 2.022 . S
N282 C279 1.351 . S
N282 N283 1.365 . S
N283 C280 1.341 . S
N283 N282 1.365 . S
N283 H303 0.862 . S
C284 C279 1.501 . S
C284 H285 0.961 . S
C284 H286 0.961 . S
C284 H287 0.960 . S
H285 C284 0.961 . S
H286 C284 0.961 . S
H287 C284 0.960 . S
C288 N289 1.342 . S
C288 C292 1.401 . S
C288 C293 1.499 . S
N289 Co272 1.989 . S
N289 C288 1.342 . S
N289 N290 1.388 . S
N290 Co273 1.993 . S
N290 N289 1.388 . S
N290 C291 1.346 . S
C291 N290 1.346 . S
C291 C292 1.396 . S
C291 C301 1.510 . S
C292 C288 1.401 . S
C292 C291 1.396 . S
C293 C288 1.499 . S
C293 H294 0.959 . S
C293 H295 0.960 . S
C293 H296 0.961 . S
H294 C293 0.959 . S
H295 C293 0.960 . S
H296 C293 0.961 . S
O297 Co272 1.967 . S
O297 C305 1.258 . S
O298 Co273 1.941 . S
O298 C305 1.266 . S
H299 C301 0.959 . S
H300 C301 0.961 . S
C301 C291 1.510 . S
C301 H299 0.959 . S
C301 H300 0.961 . S
C301 H302 0.960 . S
H302 C301 0.960 . S
H303 N283 0.862 . S
O304 Co272 1.920 . S
O304 C277 1.289 . S
C305 O297 1.258 . S
C305 O298 1.266 . S
Co306 O309 1.970 . S
Co306 N323 1.989 . S
Co306 O331 1.967 . S
Co306 O338 1.920 . S
Co307 O310 1.966 . S
Co307 N316 2.022 . S
Co307 N324 1.993 . S
Co307 O332 1.941 . S
C308 O309 1.258 . S
C308 O310 1.263 . S
O309 Co306 1.970 . S
O309 C308 1.258 . S
O310 Co307 1.966 . S
O310 C308 1.263 . S
C311 O312 1.235 . S
C311 O338 1.289 . S
O312 C311 1.235 . S
C313 C315 1.400 . S
C313 N316 1.351 . S
C313 C318 1.501 . S
C314 C315 1.387 . S
C314 N317 1.341 . S
C315 C313 1.400 . S
C315 C314 1.387 . S
N316 Co307 2.022 . S
N316 C313 1.351 . S
N316 N317 1.365 . S
N317 C314 1.341 . S
N317 N316 1.365 . S
N317 H337 0.862 . S
C318 C313 1.501 . S
C318 H319 0.961 . S
C318 H320 0.961 . S
C318 H321 0.960 . S
H319 C318 0.961 . S
H320 C318 0.961 . S
H321 C318 0.960 . S
C322 N323 1.342 . S
C322 C326 1.401 . S
C322 C327 1.499 . S
N323 Co306 1.989 . S
N323 C322 1.342 . S
N323 N324 1.388 . S
N324 Co307 1.993 . S
N324 N323 1.388 . S
N324 C325 1.346 . S
C325 N324 1.346 . S
C325 C326 1.396 . S
C325 C335 1.510 . S
C326 C322 1.401 . S
C326 C325 1.396 . S
C327 C322 1.499 . S
C327 H328 0.959 . S
C327 H329 0.960 . S
C327 H330 0.961 . S
H328 C327 0.959 . S
H329 C327 0.960 . S
H330 C327 0.961 . S
O331 Co306 1.967 . S
O331 C339 1.258 . S
O332 Co307 1.941 . S
O332 C339 1.266 . S
H333 C335 0.959 . S
H334 C335 0.961 . S
C335 C325 1.510 . S
C335 H333 0.959 . S
C335 H334 0.961 . S
C335 H336 0.960 . S
H336 C335 0.960 . S
H337 N317 0.862 . S
O338 Co306 1.920 . S
O338 C311 1.289 . S
C339 O331 1.258 . S
C339 O332 1.266 . S
Co340 O343 1.970 . S
Co340 N357 1.989 . S
Co340 O365 1.967 . S
Co340 O372 1.920 . S
Co341 O344 1.966 . S
Co341 N350 2.022 . S
Co341 N358 1.993 . S
Co341 O366 1.941 . S
C342 O343 1.258 . S
C342 O344 1.263 . S
O343 Co340 1.970 . S
O343 C342 1.258 . S
O344 Co341 1.966 . S
O344 C342 1.263 . S
C345 O346 1.235 . S
C345 O372 1.289 . S
O346 C345 1.235 . S
C347 C349 1.400 . S
C347 N350 1.351 . S
C347 C352 1.501 . S
C348 C349 1.387 . S
C348 N351 1.341 . S
C349 C347 1.400 . S
C349 C348 1.387 . S
N350 Co341 2.022 . S
N350 C347 1.351 . S
N350 N351 1.365 . S
N351 C348 1.341 . S
N351 N350 1.365 . S
N351 H371 0.862 . S
C352 C347 1.501 . S
C352 H353 0.961 . S
C352 H354 0.961 . S
C352 H355 0.960 . S
H353 C352 0.961 . S
H354 C352 0.961 . S
H355 C352 0.960 . S
C356 N357 1.342 . S
C356 C360 1.401 . S
C356 C361 1.499 . S
N357 Co340 1.989 . S
N357 C356 1.342 . S
N357 N358 1.388 . S
N358 Co341 1.993 . S
N358 N357 1.388 . S
N358 C359 1.346 . S
C359 N358 1.346 . S
C359 C360 1.396 . S
C359 C369 1.510 . S
C360 C356 1.401 . S
C360 C359 1.396 . S
C361 C356 1.499 . S
C361 H362 0.959 . S
C361 H363 0.960 . S
C361 H364 0.961 . S
H362 C361 0.959 . S
H363 C361 0.960 . S
H364 C361 0.961 . S
O365 Co340 1.967 . S
O365 C373 1.258 . S
O366 Co341 1.941 . S
O366 C373 1.266 . S
H367 C369 0.959 . S
H368 C369 0.961 . S
C369 C359 1.510 . S
C369 H367 0.959 . S
C369 H368 0.961 . S
C369 H370 0.960 . S
H370 C369 0.960 . S
H371 N351 0.862 . S
O372 Co340 1.920 . S
O372 C345 1.289 . S
C373 O365 1.258 . S
C373 O366 1.266 . S
Co374 O377 1.970 . S
Co374 N391 1.989 . S
Co374 O399 1.967 . S
Co374 O406 1.920 . S
Co375 O378 1.966 . S
Co375 N384 2.022 . S
Co375 N392 1.993 . S
Co375 O400 1.941 . S
C376 O377 1.258 . S
C376 O378 1.263 . S
O377 Co374 1.970 . S
O377 C376 1.258 . S
O378 Co375 1.966 . S
O378 C376 1.263 . S
C379 O380 1.235 . S
C379 O406 1.289 . S
O380 C379 1.235 . S
C381 C383 1.400 . S
C381 N384 1.351 . S
C381 C386 1.501 . S
C382 C383 1.387 . S
C382 N385 1.341 . S
C383 C381 1.400 . S
C383 C382 1.387 . S
N384 Co375 2.022 . S
N384 C381 1.351 . S
N384 N385 1.365 . S
N385 C382 1.341 . S
N385 N384 1.365 . S
N385 H405 0.862 . S
C386 C381 1.501 . S
C386 H387 0.961 . S
C386 H388 0.961 . S
C386 H389 0.960 . S
H387 C386 0.961 . S
H388 C386 0.961 . S
H389 C386 0.960 . S
C390 N391 1.342 . S
C390 C394 1.401 . S
C390 C395 1.499 . S
N391 Co374 1.989 . S
N391 C390 1.342 . S
N391 N392 1.388 . S
N392 Co375 1.993 . S
N392 N391 1.388 . S
N392 C393 1.346 . S
C393 N392 1.346 . S
C393 C394 1.396 . S
C393 C403 1.510 . S
C394 C390 1.401 . S
C394 C393 1.396 . S
C395 C390 1.499 . S
C395 H396 0.959 . S
C395 H397 0.960 . S
C395 H398 0.961 . S
H396 C395 0.959 . S
H397 C395 0.960 . S
H398 C395 0.961 . S
O399 Co374 1.967 . S
O399 C407 1.258 . S
O400 Co375 1.941 . S
O400 C407 1.266 . S
H401 C403 0.959 . S
H402 C403 0.961 . S
C403 C393 1.510 . S
C403 H401 0.959 . S
C403 H402 0.961 . S
C403 H404 0.960 . S
H404 C403 0.960 . S
H405 N385 0.862 . S
O406 Co374 1.920 . S
O406 C379 1.289 . S
C407 O399 1.258 . S
C407 O400 1.266 . S
Co408 O411 1.970 . S
Co408 N425 1.989 . S
Co408 O433 1.967 . S
Co408 O440 1.920 . S
Co409 O412 1.966 . S
Co409 N418 2.022 . S
Co409 N426 1.993 . S
Co409 O434 1.941 . S
C410 O411 1.258 . S
C410 O412 1.263 . S
O411 Co408 1.970 . S
O411 C410 1.258 . S
O412 Co409 1.966 . S
O412 C410 1.263 . S
C413 O414 1.235 . S
C413 O440 1.289 . S
O414 C413 1.235 . S
C415 C417 1.400 . S
C415 N418 1.351 . S
C415 C420 1.501 . S
C416 C417 1.387 . S
C416 N419 1.341 . S
C417 C415 1.400 . S
C417 C416 1.387 . S
N418 Co409 2.022 . S
N418 C415 1.351 . S
N418 N419 1.365 . S
N419 C416 1.341 . S
N419 N418 1.365 . S
N419 H439 0.862 . S
C420 C415 1.501 . S
C420 H421 0.961 . S
C420 H422 0.961 . S
C420 H423 0.960 . S
H421 C420 0.961 . S
H422 C420 0.961 . S
H423 C420 0.960 . S
C424 N425 1.342 . S
C424 C428 1.401 . S
C424 C429 1.499 . S
N425 Co408 1.989 . S
N425 C424 1.342 . S
N425 N426 1.388 . S
N426 Co409 1.993 . S
N426 N425 1.388 . S
N426 C427 1.346 . S
C427 N426 1.346 . S
C427 C428 1.396 . S
C427 C437 1.510 . S
C428 C424 1.401 . S
C428 C427 1.396 . S
C429 C424 1.499 . S
C429 H430 0.959 . S
C429 H431 0.960 . S
C429 H432 0.961 . S
H430 C429 0.959 . S
H431 C429 0.960 . S
H432 C429 0.961 . S
O433 Co408 1.967 . S
O433 C441 1.258 . S
O434 Co409 1.941 . S
O434 C441 1.266 . S
H435 C437 0.959 . S
H436 C437 0.961 . S
C437 C427 1.510 . S
C437 H435 0.959 . S
C437 H436 0.961 . S
C437 H438 0.960 . S
H438 C437 0.960 . S
H439 N419 0.862 . S
O440 Co408 1.920 . S
O440 C413 1.289 . S
C441 O433 1.258 . S
C441 O434 1.266 . S
Co442 O445 1.970 . S
Co442 N459 1.989 . S
Co442 O467 1.967 . S
Co442 O474 1.920 . S
Co443 O446 1.966 . S
Co443 N452 2.022 . S
Co443 N460 1.993 . S
Co443 O468 1.941 . S
C444 O445 1.258 . S
C444 O446 1.263 . S
O445 Co442 1.970 . S
O445 C444 1.258 . S
O446 Co443 1.966 . S
O446 C444 1.263 . S
C447 O448 1.235 . S
C447 O474 1.289 . S
O448 C447 1.235 . S
C449 C451 1.400 . S
C449 N452 1.351 . S
C449 C454 1.501 . S
C450 C451 1.387 . S
C450 N453 1.341 . S
C451 C449 1.400 . S
C451 C450 1.387 . S
N452 Co443 2.022 . S
N452 C449 1.351 . S
N452 N453 1.365 . S
N453 C450 1.341 . S
N453 N452 1.365 . S
N453 H473 0.862 . S
C454 C449 1.501 . S
C454 H455 0.961 . S
C454 H456 0.961 . S
C454 H457 0.960 . S
H455 C454 0.961 . S
H456 C454 0.961 . S
H457 C454 0.960 . S
C458 N459 1.342 . S
C458 C462 1.401 . S
C458 C463 1.499 . S
N459 Co442 1.989 . S
N459 C458 1.342 . S
N459 N460 1.388 . S
N460 Co443 1.993 . S
N460 N459 1.388 . S
N460 C461 1.346 . S
C461 N460 1.346 . S
C461 C462 1.396 . S
C461 C471 1.510 . S
C462 C458 1.401 . S
C462 C461 1.396 . S
C463 C458 1.499 . S
C463 H464 0.959 . S
C463 H465 0.960 . S
C463 H466 0.961 . S
H464 C463 0.959 . S
H465 C463 0.960 . S
H466 C463 0.961 . S
O467 Co442 1.967 . S
O467 C475 1.258 . S
O468 Co443 1.941 . S
O468 C475 1.266 . S
H469 C471 0.959 . S
H470 C471 0.961 . S
C471 C461 1.510 . S
C471 H469 0.959 . S
C471 H470 0.961 . S
C471 H472 0.960 . S
H472 C471 0.960 . S
H473 N453 0.862 . S
O474 Co442 1.920 . S
O474 C447 1.289 . S
C475 O467 1.258 . S
C475 O468 1.266 . S
Co476 O479 1.970 . S
Co476 N493 1.989 . S
Co476 O501 1.967 . S
Co476 O508 1.920 . S
Co477 O480 1.966 . S
Co477 N486 2.022 . S
Co477 N494 1.993 . S
Co477 O502 1.941 . S
C478 O479 1.258 . S
C478 O480 1.263 . S
O479 Co476 1.970 . S
O479 C478 1.258 . S
O480 Co477 1.966 . S
O480 C478 1.263 . S
C481 O482 1.235 . S
C481 O508 1.289 . S
O482 C481 1.235 . S
C483 C485 1.400 . S
C483 N486 1.351 . S
C483 C488 1.501 . S
C484 C485 1.387 . S
C484 N487 1.341 . S
C485 C483 1.400 . S
C485 C484 1.387 . S
N486 Co477 2.022 . S
N486 C483 1.351 . S
N486 N487 1.365 . S
N487 C484 1.341 . S
N487 N486 1.365 . S
N487 H507 0.862 . S
C488 C483 1.501 . S
C488 H489 0.961 . S
C488 H490 0.961 . S
C488 H491 0.960 . S
H489 C488 0.961 . S
H490 C488 0.961 . S
H491 C488 0.960 . S
C492 N493 1.342 . S
C492 C496 1.401 . S
C492 C497 1.499 . S
N493 Co476 1.989 . S
N493 C492 1.342 . S
N493 N494 1.388 . S
N494 Co477 1.993 . S
N494 N493 1.388 . S
N494 C495 1.346 . S
C495 N494 1.346 . S
C495 C496 1.396 . S
C495 C505 1.510 . S
C496 C492 1.401 . S
C496 C495 1.396 . S
C497 C492 1.499 . S
C497 H498 0.959 . S
C497 H499 0.960 . S
C497 H500 0.961 . S
H498 C497 0.959 . S
H499 C497 0.960 . S
H500 C497 0.961 . S
O501 Co476 1.967 . S
O501 C509 1.258 . S
O502 Co477 1.941 . S
O502 C509 1.266 . S
H503 C505 0.959 . S
H504 C505 0.961 . S
C505 C495 1.510 . S
C505 H503 0.959 . S
C505 H504 0.961 . S
C505 H506 0.960 . S
H506 C505 0.960 . S
H507 N487 0.862 . S
O508 Co476 1.920 . S
O508 C481 1.289 . S
C509 O501 1.258 . S
C509 O502 1.266 . S
Co510 O513 1.970 . S
Co510 N527 1.989 . S
Co510 O535 1.967 . S
Co510 O542 1.920 . S
Co511 O514 1.966 . S
Co511 N520 2.022 . S
Co511 N528 1.993 . S
Co511 O536 1.941 . S
C512 O513 1.258 . S
C512 O514 1.263 . S
O513 Co510 1.970 . S
O513 C512 1.258 . S
O514 Co511 1.966 . S
O514 C512 1.263 . S
C515 O516 1.235 . S
C515 O542 1.289 . S
O516 C515 1.235 . S
C517 C519 1.400 . S
C517 N520 1.351 . S
C517 C522 1.501 . S
C518 C519 1.387 . S
C518 N521 1.341 . S
C519 C517 1.400 . S
C519 C518 1.387 . S
N520 Co511 2.022 . S
N520 C517 1.351 . S
N520 N521 1.365 . S
N521 C518 1.341 . S
N521 N520 1.365 . S
N521 H541 0.862 . S
C522 C517 1.501 . S
C522 H523 0.961 . S
C522 H524 0.961 . S
C522 H525 0.960 . S
H523 C522 0.961 . S
H524 C522 0.961 . S
H525 C522 0.960 . S
C526 N527 1.342 . S
C526 C530 1.401 . S
C526 C531 1.499 . S
N527 Co510 1.989 . S
N527 C526 1.342 . S
N527 N528 1.388 . S
N528 Co511 1.993 . S
N528 N527 1.388 . S
N528 C529 1.346 . S
C529 N528 1.346 . S
C529 C530 1.396 . S
C529 C539 1.510 . S
C530 C526 1.401 . S
C530 C529 1.396 . S
C531 C526 1.499 . S
C531 H532 0.959 . S
C531 H533 0.960 . S
C531 H534 0.961 . S
H532 C531 0.959 . S
H533 C531 0.960 . S
H534 C531 0.961 . S
O535 Co510 1.967 . S
O535 C543 1.258 . S
O536 Co511 1.941 . S
O536 C543 1.266 . S
H537 C539 0.959 . S
H538 C539 0.961 . S
C539 C529 1.510 . S
C539 H537 0.959 . S
C539 H538 0.961 . S
C539 H540 0.960 . S
H540 C539 0.960 . S
H541 N521 0.862 . S
O542 Co510 1.920 . S
O542 C515 1.289 . S
C543 O535 1.258 . S
C543 O536 1.266 . S
C544 C545 1.363 . S
C544 C550 1.379 1_655 S
C544 N552 1.356 . S
C545 C544 1.363 . S
C545 C551 1.363 . S
C546 C547 1.363 . S
C546 C551 1.379 1_455 S
C546 N553 1.356 . S
C547 C546 1.363 . S
C547 C550 1.363 . S
N548 C550 1.356 . S
N548 H560 0.984 . S
N548 H561 0.985 . S
N549 C551 1.356 . S
N549 H554 0.984 . S
N549 H555 0.985 . S
C550 C544 1.379 1_455 S
C550 C547 1.363 . S
C550 N548 1.356 . S
C551 C545 1.363 . S
C551 C546 1.379 1_655 S
C551 N549 1.356 . S
N552 C544 1.356 . S
N552 H558 0.984 . S
N552 H559 0.984 . S
N553 C546 1.356 . S
N553 H556 0.984 . S
N553 H557 0.985 . S
H554 N549 0.984 . S
H555 N549 0.985 . S
H556 N553 0.984 . S
H557 N553 0.985 . S
H558 N552 0.984 . S
H559 N552 0.984 . S
H560 N548 0.984 . S
H561 N548 0.985 . S
C562 C563 1.363 . S
C562 C568 1.379 1_545 S
C562 N570 1.356 . S
C563 C562 1.363 . S
C563 C569 1.363 1_545 S
C564 C565 1.363 . S
C564 C569 1.379 . S
C564 N571 1.356 . S
C565 C564 1.363 . S
C565 C568 1.363 . S
N566 C568 1.356 . S
N566 H578 0.984 . S
N566 H579 0.985 . S
N567 C569 1.356 1_545 S
N567 H572 0.984 . S
N567 H573 0.985 . S
C568 C562 1.379 1_565 S
C568 C565 1.363 . S
C568 N566 1.356 . S
C569 C563 1.363 1_565 S
C569 C564 1.379 . S
C569 N567 1.356 1_565 S
N570 C562 1.356 . S
N570 H576 0.984 . S
N570 H577 0.984 . S
N571 C564 1.356 . S
N571 H574 0.984 . S
N571 H575 0.985 . S
H572 N567 0.984 . S
H573 N567 0.985 . S
H574 N571 0.984 . S
H575 N571 0.985 . S
H576 N570 0.984 . S
H577 N570 0.984 . S
H578 N566 0.984 . S
H579 N566 0.985 . S
C580 C581 1.363 1_455 S
C580 C586 1.379 . S
C580 N588 1.356 1_455 S
C581 C580 1.363 1_655 S
C581 C587 1.363 1_655 S
C582 C583 1.363 . S
C582 C587 1.379 . S
C582 N589 1.356 . S
C583 C582 1.363 . S
C583 C586 1.363 . S
N584 C586 1.356 . S
N584 H596 0.984 . S
N584 H597 0.985 . S
N585 C587 1.356 1_655 S
N585 H590 0.984 . S
N585 H591 0.989 . S
C586 C580 1.379 . S
C586 C583 1.363 . S
C586 N584 1.356 . S
C587 C581 1.363 1_455 S
C587 C582 1.379 . S
C587 N585 1.356 1_455 S
N588 C580 1.356 1_655 S
N588 H594 0.984 . S
N588 H595 0.984 . S
N589 C582 1.356 . S
N589 H592 0.984 . S
N589 H593 0.985 . S
H590 N585 0.984 . S
H591 N585 0.989 . S
H592 N589 0.984 . S
H593 N589 0.985 . S
H594 N588 0.984 . S
H595 N588 0.984 . S
H596 N584 0.984 . S
H597 N584 0.985 . S
C598 C599 1.363 . S
C598 C604 1.379 1_565 S
C598 N606 1.356 . S
C599 C598 1.363 . S
C599 C605 1.363 . S
C600 C601 1.363 . S
C600 C605 1.379 1_545 S
C600 N607 1.356 . S
C601 C600 1.363 . S
C601 C604 1.363 . S
N602 C604 1.356 . S
N602 H614 0.984 . S
N602 H615 0.985 . S
N603 C605 1.356 . S
N603 H608 0.984 . S
N603 H609 0.985 . S
C604 C598 1.379 1_545 S
C604 C601 1.363 . S
C604 N602 1.356 . S
C605 C599 1.363 . S
C605 C600 1.379 1_565 S
C605 N603 1.356 . S
N606 C598 1.356 . S
N606 H612 0.984 . S
N606 H613 0.984 . S
N607 C600 1.356 . S
N607 H610 0.984 . S
N607 H611 0.985 . S
H608 N603 0.984 . S
H609 N603 0.985 . S
H610 N607 0.984 . S
H611 N607 0.985 . S
H612 N606 0.984 . S
H613 N606 0.984 . S
H614 N602 0.984 . S
H615 N602 0.985 . S
C616 C617 1.363 . S
C616 C622 1.379 1_655 S
C616 N624 1.356 . S
C617 C616 1.363 . S
C617 C623 1.363 . S
C618 C619 1.363 . S
C618 C623 1.379 1_455 S
C618 N625 1.356 . S
C619 C618 1.363 . S
C619 C622 1.363 . S
N620 C622 1.356 . S
N620 H632 0.984 . S
N620 H633 0.985 . S
N621 C623 1.356 . S
N621 H626 0.984 . S
N621 H627 0.985 . S
C622 C616 1.379 1_455 S
C622 C619 1.363 . S
C622 N620 1.356 . S
C623 C617 1.363 . S
C623 C618 1.379 1_655 S
C623 N621 1.356 . S
N624 C616 1.356 . S
N624 H630 0.984 . S
N624 H631 0.984 . S
N625 C618 1.356 . S
N625 H628 0.984 . S
N625 H629 0.985 . S
H626 N621 0.984 . S
H627 N621 0.985 . S
H628 N625 0.984 . S
H629 N625 0.985 . S
H630 N624 0.984 . S
H631 N624 0.984 . S
H632 N620 0.984 . S
H633 N620 0.985 . S
C634 C635 1.363 . S
C634 C640 1.379 1_565 S
C634 N642 1.356 . S
C635 C634 1.363 . S
C635 C641 1.363 . S
C636 C637 1.363 . S
C636 C641 1.379 1_545 S
C636 N643 1.356 . S
C637 C636 1.363 . S
C637 C640 1.363 . S
N638 C640 1.356 . S
N638 H650 0.984 . S
N638 H651 0.985 . S
N639 C641 1.356 . S
N639 H644 0.984 . S
N639 H645 0.985 . S
C640 C634 1.379 1_545 S
C640 C637 1.363 . S
C640 N638 1.356 . S
C641 C635 1.363 . S
C641 C636 1.379 1_565 S
C641 N639 1.356 . S
N642 C634 1.356 . S
N642 H648 0.984 . S
N642 H649 0.984 . S
N643 C636 1.356 . S
N643 H646 0.984 . S
N643 H647 0.985 . S
H644 N639 0.984 . S
H645 N639 0.985 . S
H646 N643 0.984 . S
H647 N643 0.985 . S
H648 N642 0.984 . S
H649 N642 0.984 . S
H650 N638 0.984 . S
H651 N638 0.985 . S
C652 C653 1.363 . S
C652 C658 1.379 . S
C652 N660 1.356 . S
C653 C652 1.363 . S
C653 C659 1.363 . S
C654 C655 1.363 1_655 S
C654 C659 1.379 . S
C654 N661 1.356 1_655 S
C655 C654 1.363 1_455 S
C655 C658 1.363 1_455 S
N656 C658 1.356 1_455 S
N656 H668 0.984 . S
N656 H669 0.985 . S
N657 C659 1.356 . S
N657 H662 0.984 . S
N657 H663 0.985 . S
C658 C652 1.379 . S
C658 C655 1.363 1_655 S
C658 N656 1.356 1_655 S
C659 C653 1.363 . S
C659 C654 1.379 . S
C659 N657 1.356 . S
N660 C652 1.356 . S
N660 H666 0.984 . S
N660 H667 0.984 . S
N661 C654 1.356 1_455 S
N661 H664 0.984 . S
N661 H665 0.981 1_455 S
H662 N657 0.984 . S
H663 N657 0.985 . S
H664 N661 0.984 . S
H665 N661 0.981 1_655 S
H666 N660 0.984 . S
H667 N660 0.984 . S
H668 N656 0.984 . S
H669 N656 0.985 . S
C670 C671 1.354 1_565 S
C670 C676 1.398 . S
C670 N678 1.342 1_565 S
C671 C670 1.354 1_545 S
C671 C677 1.363 1_545 S
C672 C673 1.363 . S
C672 C677 1.379 . S
C672 N679 1.356 . S
C673 C672 1.363 . S
C673 C676 1.363 . S
N674 C676 1.356 . S
N674 H686 0.984 . S
N674 H687 0.985 . S
N675 C677 1.356 1_545 S
N675 H680 0.984 . S
N675 H681 0.985 . S
C676 C670 1.398 . S
C676 C673 1.363 . S
C676 N674 1.356 . S
C677 C671 1.363 1_565 S
C677 C672 1.379 . S
C677 N675 1.356 1_565 S
N678 C670 1.342 1_545 S
N678 H684 0.984 . S
N678 H685 0.984 . S
N679 C672 1.356 . S
N679 H682 0.984 . S
N679 H683 0.985 . S
H680 N675 0.984 . S
H681 N675 0.985 . S
H682 N679 0.984 . S
H683 N679 0.985 . S
H684 N678 0.984 . S
H685 N678 0.984 . S
H686 N674 0.984 . S
H687 N674 0.985 . S
C688 C689 1.363 . S
C688 C694 1.379 . S
C688 N696 1.356 . S
C689 C688 1.363 . S
C689 C695 1.363 . S
C690 C691 1.363 . S
C690 C695 1.379 . S
C690 N697 1.356 . S
C691 C690 1.363 . S
C691 C694 1.363 . S
N692 C694 1.356 . S
N692 H704 0.984 . S
N692 H705 0.985 . S
N693 C695 1.356 . S
N693 H698 0.984 . S
N693 H699 0.985 . S
C694 C688 1.379 . S
C694 C691 1.363 . S
C694 N692 1.356 . S
C695 C689 1.363 . S
C695 C690 1.379 . S
C695 N693 1.356 . S
N696 C688 1.356 . S
N696 H702 0.984 . S
N696 H703 0.984 . S
N697 C690 1.356 . S
N697 H700 0.984 . S
N697 H701 0.985 . S
H698 N693 0.984 . S
H699 N693 0.985 . S
H700 N697 0.984 . S
H701 N697 0.985 . S
H702 N696 0.984 . S
H703 N696 0.984 . S
H704 N692 0.984 . S
H705 N692 0.985 . S
C706 C707 1.363 . S
C706 C712 1.379 . S
C706 N714 1.356 . S
C707 C706 1.363 . S
C707 C713 1.363 . S
C708 C709 1.363 . S
C708 C713 1.379 . S
C708 N715 1.356 . S
C709 C708 1.363 . S
C709 C712 1.363 . S
N710 C712 1.356 . S
N710 H722 0.984 . S
N710 H723 0.985 . S
N711 C713 1.356 . S
N711 H716 0.984 . S
N711 H717 0.985 . S
C712 C706 1.379 . S
C712 C709 1.363 . S
C712 N710 1.356 . S
C713 C707 1.363 . S
C713 C708 1.379 . S
C713 N711 1.356 . S
N714 C706 1.356 . S
N714 H720 0.984 . S
N714 H721 0.984 . S
N715 C708 1.356 . S
N715 H718 0.984 . S
N715 H719 0.985 . S
H716 N711 0.984 . S
H717 N711 0.985 . S
H718 N715 0.984 . S
H719 N715 0.985 . S
H720 N714 0.984 . S
H721 N714 0.984 . S
H722 N710 0.984 . S
H723 N710 0.985 . S
C724 C725 1.363 . S
C724 C730 1.379 . S
C724 N732 1.356 . S
C725 C724 1.363 . S
C725 C731 1.363 . S
C726 C727 1.363 . S
C726 C731 1.379 . S
C726 N733 1.356 . S
C727 C726 1.363 . S
C727 C730 1.363 . S
N728 C730 1.356 . S
N728 H740 0.984 . S
N728 H741 0.985 . S
N729 C731 1.356 . S
N729 H734 0.984 . S
N729 H735 0.985 . S
C730 C724 1.379 . S
C730 C727 1.363 . S
C730 N728 1.356 . S
C731 C725 1.363 . S
C731 C726 1.379 . S
C731 N729 1.356 . S
N732 C724 1.356 . S
N732 H738 0.984 . S
N732 H739 0.984 . S
N733 C726 1.356 . S
N733 H736 0.984 . S
N733 H737 0.985 . S
H734 N729 0.984 . S
H735 N729 0.985 . S
H736 N733 0.984 . S
H737 N733 0.985 . S
H738 N732 0.984 . S
H739 N732 0.984 . S
H740 N728 0.984 . S
H741 N728 0.985 . S
C742 C743 1.363 . S
C742 C748 1.379 . S
C742 N750 1.356 . S
C743 C742 1.363 . S
C743 C749 1.363 . S
C744 C745 1.363 . S
C744 C749 1.379 . S
C744 N751 1.356 . S
C745 C744 1.363 . S
C745 C748 1.363 . S
N746 C748 1.356 . S
N746 H758 0.984 . S
N746 H759 0.985 . S
N747 C749 1.356 . S
N747 H752 0.984 . S
N747 H753 0.985 . S
C748 C742 1.379 . S
C748 C745 1.363 . S
C748 N746 1.356 . S
C749 C743 1.363 . S
C749 C744 1.379 . S
C749 N747 1.356 . S
N750 C742 1.356 . S
N750 H756 0.984 . S
N750 H757 0.984 . S
N751 C744 1.356 . S
N751 H754 0.984 . S
N751 H755 0.985 . S
H752 N747 0.984 . S
H753 N747 0.985 . S
H754 N751 0.984 . S
H755 N751 0.985 . S
H756 N750 0.984 . S
H757 N750 0.984 . S
H758 N746 0.984 . S
H759 N746 0.985 . S
C760 C761 1.363 . S
C760 C766 1.379 . S
C760 N768 1.356 . S
C761 C760 1.363 . S
C761 C767 1.363 . S
C762 C763 1.363 . S
C762 C767 1.379 . S
C762 N769 1.356 . S
C763 C762 1.363 . S
C763 C766 1.363 . S
N764 C766 1.356 . S
N764 H776 0.984 . S
N764 H777 0.985 . S
N765 C767 1.356 . S
N765 H770 0.984 . S
N765 H771 0.985 . S
C766 C760 1.379 . S
C766 C763 1.363 . S
C766 N764 1.356 . S
C767 C761 1.363 . S
C767 C762 1.379 . S
C767 N765 1.356 . S
N768 C760 1.356 . S
N768 H774 0.984 . S
N768 H775 0.984 . S
N769 C762 1.356 . S
N769 H772 0.984 . S
N769 H773 0.985 . S
H770 N765 0.984 . S
H771 N765 0.985 . S
H772 N769 0.984 . S
H773 N769 0.985 . S
H774 N768 0.984 . S
H775 N768 0.984 . S
H776 N764 0.984 . S
H777 N764 0.985 . S
C778 C779 1.363 . S
C778 C784 1.379 . S
C778 N786 1.356 . S
C779 C778 1.363 . S
C779 C785 1.363 . S
C780 C781 1.363 . S
C780 C785 1.379 . S
C780 N787 1.356 . S
C781 C780 1.363 . S
C781 C784 1.363 . S
N782 C784 1.356 . S
N782 H794 0.984 . S
N782 H795 0.985 . S
N783 C785 1.356 . S
N783 H788 0.984 . S
N783 H789 0.985 . S
C784 C778 1.379 . S
C784 C781 1.363 . S
C784 N782 1.356 . S
C785 C779 1.363 . S
C785 C780 1.379 . S
C785 N783 1.356 . S
N786 C778 1.356 . S
N786 H792 0.984 . S
N786 H793 0.984 . S
N787 C780 1.356 . S
N787 H790 0.984 . S
N787 H791 0.985 . S
H788 N783 0.984 . S
H789 N783 0.985 . S
H790 N787 0.984 . S
H791 N787 0.985 . S
H792 N786 0.984 . S
H793 N786 0.984 . S
H794 N782 0.984 . S
H795 N782 0.985 . S
C796 C797 1.363 . S
C796 C802 1.379 . S
C796 N804 1.356 . S
C797 C796 1.363 . S
C797 C803 1.363 . S
C798 C799 1.363 . S
C798 C803 1.379 . S
C798 N805 1.356 . S
C799 C798 1.363 . S
C799 C802 1.363 . S
N800 C802 1.356 . S
N800 H812 0.984 . S
N800 H813 0.985 . S
N801 C803 1.356 . S
N801 H806 0.984 . S
N801 H807 0.985 . S
C802 C796 1.379 . S
C802 C799 1.363 . S
C802 N800 1.356 . S
C803 C797 1.363 . S
C803 C798 1.379 . S
C803 N801 1.356 . S
N804 C796 1.356 . S
N804 H810 0.984 . S
N804 H811 0.984 . S
N805 C798 1.356 . S
N805 H808 0.984 . S
N805 H809 0.985 . S
H806 N801 0.984 . S
H807 N801 0.985 . S
H808 N805 0.984 . S
H809 N805 0.985 . S
H810 N804 0.984 . S
H811 N804 0.984 . S
H812 N800 0.984 . S
H813 N800 0.985 . S
C814 C815 1.363 . S
C814 C820 1.379 . S
C814 N822 1.356 . S
C815 C814 1.363 . S
C815 C821 1.363 . S
C816 C817 1.363 . S
C816 C821 1.379 . S
C816 N823 1.356 . S
C817 C816 1.363 . S
C817 C820 1.363 . S
N818 C820 1.356 . S
N818 H830 0.984 . S
N818 H831 0.985 . S
N819 C821 1.356 . S
N819 H824 0.984 . S
N819 H825 0.985 . S
C820 C814 1.379 . S
C820 C817 1.363 . S
C820 N818 1.356 . S
C821 C815 1.363 . S
C821 C816 1.379 . S
C821 N819 1.356 . S
N822 C814 1.356 . S
N822 H828 0.984 . S
N822 H829 0.984 . S
N823 C816 1.356 . S
N823 H826 0.984 . S
N823 H827 0.985 . S
H824 N819 0.984 . S
H825 N819 0.985 . S
H826 N823 0.984 . S
H827 N823 0.985 . S
H828 N822 0.984 . S
H829 N822 0.984 . S
H830 N818 0.984 . S
H831 N818 0.985 . S
C832 C833 1.363 . S
C832 C838 1.379 1_554 S
C832 N840 1.356 . S
C833 C832 1.363 . S
C833 C839 1.363 . S
C834 C835 1.363 . S
C834 C839 1.379 1_556 S
C834 N841 1.356 . S
C835 C834 1.363 . S
C835 C838 1.363 . S
N836 C838 1.356 . S
N836 H848 0.984 . S
N836 H849 0.985 . S
N837 C839 1.356 . S
N837 H842 0.984 . S
N837 H843 0.985 . S
C838 C832 1.379 1_556 S
C838 C835 1.363 . S
C838 N836 1.356 . S
C839 C833 1.363 . S
C839 C834 1.379 1_554 S
C839 N837 1.356 . S
N840 C832 1.356 . S
N840 H846 0.984 . S
N840 H847 0.984 . S
N841 C834 1.356 . S
N841 H844 0.984 . S
N841 H845 0.985 . S
H842 N837 0.984 . S
H843 N837 0.985 . S
H844 N841 0.984 . S
H845 N841 0.985 . S
H846 N840 0.984 . S
H847 N840 0.984 . S
H848 N836 0.984 . S
H849 N836 0.985 . S
C850 C851 1.363 . S
C850 C856 1.379 . S
C850 N858 1.356 . S
C851 C850 1.363 . S
C851 C857 1.363 . S
C852 C853 1.363 . S
C852 C857 1.379 . S
C852 N859 1.356 . S
C853 C852 1.363 . S
C853 C856 1.363 . S
N854 C856 1.356 . S
N854 H866 0.984 . S
N854 H867 0.985 . S
N855 C857 1.356 . S
N855 H860 0.984 . S
N855 H861 0.985 . S
C856 C850 1.379 . S
C856 C853 1.363 . S
C856 N854 1.356 . S
C857 C851 1.363 . S
C857 C852 1.379 . S
C857 N855 1.356 . S
N858 C850 1.356 . S
N858 H864 0.984 . S
N858 H865 0.984 . S
N859 C852 1.356 . S
N859 H862 0.984 . S
N859 H863 0.985 . S
H860 N855 0.984 . S
H861 N855 0.985 . S
H862 N859 0.984 . S
H863 N859 0.985 . S
H864 N858 0.984 . S
H865 N858 0.984 . S
H866 N854 0.984 . S
H867 N854 0.985 . S
C868 C869 1.363 . S
C868 C874 1.379 1_556 S
C868 N876 1.356 . S
C869 C868 1.363 . S
C869 C875 1.363 . S
C870 C871 1.363 . S
C870 C875 1.379 1_554 S
C870 N877 1.356 . S
C871 C870 1.363 . S
C871 C874 1.363 . S
N872 C874 1.356 . S
N872 H884 0.984 . S
N872 H885 0.985 . S
N873 C875 1.356 . S
N873 H878 0.984 . S
N873 H879 0.985 . S
C874 C868 1.379 1_554 S
C874 C871 1.363 . S
C874 N872 1.356 . S
C875 C869 1.363 . S
C875 C870 1.379 1_556 S
C875 N873 1.356 . S
N876 C868 1.356 . S
N876 H882 0.984 . S
N876 H883 0.984 . S
N877 C870 1.356 . S
N877 H880 0.984 . S
N877 H881 0.985 . S
H878 N873 0.984 . S
H879 N873 0.985 . S
H880 N877 0.984 . S
H881 N877 0.985 . S
H882 N876 0.984 . S
H883 N876 0.984 . S
H884 N872 0.984 . S
H885 N872 0.985 . S
C886 C887 1.363 . S
C886 C892 1.379 . S
C886 N894 1.356 . S
C887 C886 1.363 . S
C887 C893 1.363 . S
C888 C889 1.363 . S
C888 C893 1.379 . S
C888 N895 1.356 . S
C889 C888 1.363 . S
C889 C892 1.363 . S
N890 C892 1.356 . S
N890 H902 0.984 . S
N890 H903 0.985 . S
N891 C893 1.356 . S
N891 H896 0.984 . S
N891 H897 0.985 . S
C892 C886 1.379 . S
C892 C889 1.363 . S
C892 N890 1.356 . S
C893 C887 1.363 . S
C893 C888 1.379 . S
C893 N891 1.356 . S
N894 C886 1.356 . S
N894 H900 0.984 . S
N894 H901 0.984 . S
N895 C888 1.356 . S
N895 H898 0.984 . S
N895 H899 0.985 . S
H896 N891 0.984 . S
H897 N891 0.985 . S
H898 N895 0.984 . S
H899 N895 0.985 . S
H900 N894 0.984 . S
H901 N894 0.984 . S
H902 N890 0.984 . S
H903 N890 0.985 . S
C904 C905 1.363 . S
C904 C910 1.379 1_556 S
C904 N912 1.356 . S
C905 C904 1.363 . S
C905 C911 1.363 . S
C906 C907 1.363 . S
C906 C911 1.379 1_554 S
C906 N913 1.356 . S
C907 C906 1.363 . S
C907 C910 1.363 . S
N908 C910 1.356 . S
N908 H920 0.984 . S
N908 H921 0.985 . S
N909 C911 1.356 . S
N909 H914 0.984 . S
N909 H915 0.985 . S
C910 C904 1.379 1_554 S
C910 C907 1.363 . S
C910 N908 1.356 . S
C911 C905 1.363 . S
C911 C906 1.379 1_556 S
C911 N909 1.356 . S
N912 C904 1.356 . S
N912 H918 0.984 . S
N912 H919 0.984 . S
N913 C906 1.356 . S
N913 H916 0.984 . S
N913 H917 0.985 . S
H914 N909 0.984 . S
H915 N909 0.985 . S
H916 N913 0.984 . S
H917 N913 0.985 . S
H918 N912 0.984 . S
H919 N912 0.984 . S
H920 N908 0.984 . S
H921 N908 0.985 . S
C922 C923 1.363 . S
C922 C928 1.379 . S
C922 N930 1.356 . S
C923 C922 1.363 . S
C923 C929 1.363 . S
C924 C925 1.363 . S
C924 C929 1.379 . S
C924 N931 1.356 . S
C925 C924 1.363 . S
C925 C928 1.363 . S
N926 C928 1.356 . S
N926 H938 0.984 . S
N926 H939 0.985 . S
N927 C929 1.356 . S
N927 H932 0.984 . S
N927 H933 0.985 . S
C928 C922 1.379 . S
C928 C925 1.363 . S
C928 N926 1.356 . S
C929 C923 1.363 . S
C929 C924 1.379 . S
C929 N927 1.356 . S
N930 C922 1.356 . S
N930 H936 0.984 . S
N930 H937 0.984 . S
N931 C924 1.356 . S
N931 H934 0.984 . S
N931 H935 0.985 . S
H932 N927 0.984 . S
H933 N927 0.985 . S
H934 N931 0.984 . S
H935 N931 0.985 . S
H936 N930 0.984 . S
H937 N930 0.984 . S
H938 N926 0.984 . S
H939 N926 0.985 . S
C940 C941 1.363 . S
C940 C946 1.379 1_554 S
C940 N948 1.356 . S
C941 C940 1.363 . S
C941 C947 1.363 . S
C942 C943 1.363 . S
C942 C947 1.379 1_556 S
C942 N949 1.356 . S
C943 C942 1.363 . S
C943 C946 1.363 . S
N944 C946 1.356 . S
N944 H956 0.984 . S
N944 H957 0.985 . S
N945 C947 1.356 . S
N945 H950 0.984 . S
N945 H951 0.985 . S
C946 C940 1.379 1_556 S
C946 C943 1.363 . S
C946 N944 1.356 . S
C947 C941 1.363 . S
C947 C942 1.379 1_554 S
C947 N945 1.356 . S
N948 C940 1.356 . S
N948 H954 0.984 . S
N948 H955 0.984 . S
N949 C942 1.356 . S
N949 H952 0.984 . S
N949 H953 0.985 . S
H950 N945 0.984 . S
H951 N945 0.985 . S
H952 N949 0.984 . S
H953 N949 0.985 . S
H954 N948 0.984 . S
H955 N948 0.984 . S
H956 N944 0.984 . S
H957 N944 0.985 . S
C958 C959 1.363 . S
C958 C964 1.379 . S
C958 N966 1.356 . S
C959 C958 1.363 . S
C959 C965 1.363 . S
C960 C961 1.363 . S
C960 C965 1.379 . S
C960 N967 1.356 . S
C961 C960 1.363 . S
C961 C964 1.363 . S
N962 C964 1.356 . S
N962 H974 0.984 . S
N962 H975 0.985 . S
N963 C965 1.356 . S
N963 H968 0.984 . S
N963 H969 0.985 . S
C964 C958 1.379 . S
C964 C961 1.363 . S
C964 N962 1.356 . S
C965 C959 1.363 . S
C965 C960 1.379 . S
C965 N963 1.356 . S
N966 C958 1.356 . S
N966 H972 0.984 . S
N966 H973 0.984 . S
N967 C960 1.356 . S
N967 H970 0.984 . S
N967 H971 0.985 . S
H968 N963 0.984 . S
H969 N963 0.985 . S
H970 N967 0.984 . S
H971 N967 0.985 . S
H972 N966 0.984 . S
H973 N966 0.984 . S
H974 N962 0.984 . S
H975 N962 0.985 . S
C976 C977 1.363 . S
C976 C982 1.379 . S
C976 N984 1.356 . S
C977 C976 1.363 . S
C977 C983 1.363 . S
C978 C979 1.363 . S
C978 C983 1.379 . S
C978 N985 1.356 . S
C979 C978 1.363 . S
C979 C982 1.363 . S
N980 C982 1.356 . S
N980 H992 0.984 . S
N980 H993 0.985 . S
N981 C983 1.356 . S
N981 H986 0.984 . S
N981 H987 0.985 . S
C982 C976 1.379 . S
C982 C979 1.363 . S
C982 N980 1.356 . S
C983 C977 1.363 . S
C983 C978 1.379 . S
C983 N981 1.356 . S
N984 C976 1.356 . S
N984 H990 0.984 . S
N984 H991 0.984 . S
N985 C978 1.356 . S
N985 H988 0.984 . S
N985 H989 0.985 . S
H986 N981 0.984 . S
H987 N981 0.985 . S
H988 N985 0.984 . S
H989 N985 0.985 . S
H990 N984 0.984 . S
H991 N984 0.984 . S
H992 N980 0.984 . S
H993 N980 0.985 . S
C994 C995 1.363 . S
C994 C1000 1.379 . S
C994 N1002 1.356 . S
C995 C994 1.363 . S
C995 C1001 1.363 . S
C996 C997 1.363 . S
C996 C1001 1.379 . S
C996 N1003 1.356 . S
C997 C996 1.363 . S
C997 C1000 1.363 . S
N998 C1000 1.356 . S
N998 H1010 0.984 . S
N998 H1011 0.985 . S
N999 C1001 1.356 . S
N999 H1004 0.984 . S
N999 H1005 0.985 . S
C1000 C994 1.379 . S
C1000 C997 1.363 . S
C1000 N998 1.356 . S
C1001 C995 1.363 . S
C1001 C996 1.379 . S
C1001 N999 1.356 . S
N1002 C994 1.356 . S
N1002 H1008 0.984 . S
N1002 H1009 0.984 . S
N1003 C996 1.356 . S
N1003 H1006 0.984 . S
N1003 H1007 0.985 . S
H1004 N999 0.984 . S
H1005 N999 0.985 . S
H1006 N1003 0.984 . S
H1007 N1003 0.985 . S
H1008 N1002 0.984 . S
H1009 N1002 0.984 . S
H1010 N998 0.984 . S
H1011 N998 0.985 . S
C1012 C1013 1.363 . S
C1012 C1018 1.379 . S
C1012 N1020 1.356 . S
C1013 C1012 1.363 . S
C1013 C1019 1.363 . S
C1014 C1015 1.363 . S
C1014 C1019 1.379 . S
C1014 N1021 1.356 . S
C1015 C1014 1.363 . S
C1015 C1018 1.363 . S
N1016 C1018 1.356 . S
N1016 H1028 0.984 . S
N1016 H1029 0.985 . S
N1017 C1019 1.356 . S
N1017 H1022 0.984 . S
N1017 H1023 0.985 . S
C1018 C1012 1.379 . S
C1018 C1015 1.363 . S
C1018 N1016 1.356 . S
C1019 C1013 1.363 . S
C1019 C1014 1.379 . S
C1019 N1017 1.356 . S
N1020 C1012 1.356 . S
N1020 H1026 0.984 . S
N1020 H1027 0.984 . S
N1021 C1014 1.356 . S
N1021 H1024 0.984 . S
N1021 H1025 0.985 . S
H1022 N1017 0.984 . S
H1023 N1017 0.985 . S
H1024 N1021 0.984 . S
H1025 N1021 0.985 . S
H1026 N1020 0.984 . S
H1027 N1020 0.984 . S
H1028 N1016 0.984 . S
H1029 N1016 0.985 . S
C1030 C1031 1.363 . S
C1030 C1036 1.379 . S
C1030 N1038 1.356 . S
C1031 C1030 1.363 . S
C1031 C1037 1.363 . S
C1032 C1033 1.363 . S
C1032 C1037 1.379 . S
C1032 N1039 1.356 . S
C1033 C1032 1.363 . S
C1033 C1036 1.363 . S
N1034 C1036 1.356 . S
N1034 H1046 0.984 . S
N1034 H1047 0.985 . S
N1035 C1037 1.356 . S
N1035 H1040 0.984 . S
N1035 H1041 0.985 . S
C1036 C1030 1.379 . S
C1036 C1033 1.363 . S
C1036 N1034 1.356 . S
C1037 C1031 1.363 . S
C1037 C1032 1.379 . S
C1037 N1035 1.356 . S
N1038 C1030 1.356 . S
N1038 H1044 0.984 . S
N1038 H1045 0.984 . S
N1039 C1032 1.356 . S
N1039 H1042 0.984 . S
N1039 H1043 0.985 . S
H1040 N1035 0.984 . S
H1041 N1035 0.985 . S
H1042 N1039 0.984 . S
H1043 N1039 0.985 . S
H1044 N1038 0.984 . S
H1045 N1038 0.984 . S
H1046 N1034 0.984 . S
H1047 N1034 0.985 . S
C1048 C1049 1.363 . S
C1048 C1054 1.379 . S
C1048 N1056 1.356 . S
C1049 C1048 1.363 . S
C1049 C1055 1.363 . S
C1050 C1051 1.363 . S
C1050 C1055 1.379 . S
C1050 N1057 1.356 . S
C1051 C1050 1.363 . S
C1051 C1054 1.363 . S
N1052 C1054 1.356 . S
N1052 H1064 0.984 . S
N1052 H1065 0.985 . S
N1053 C1055 1.356 . S
N1053 H1058 0.984 . S
N1053 H1059 0.985 . S
C1054 C1048 1.379 . S
C1054 C1051 1.363 . S
C1054 N1052 1.356 . S
C1055 C1049 1.363 . S
C1055 C1050 1.379 . S
C1055 N1053 1.356 . S
N1056 C1048 1.356 . S
N1056 H1062 0.984 . S
N1056 H1063 0.984 . S
N1057 C1050 1.356 . S
N1057 H1060 0.984 . S
N1057 H1061 0.985 . S
H1058 N1053 0.984 . S
H1059 N1053 0.985 . S
H1060 N1057 0.984 . S
H1061 N1057 0.985 . S
H1062 N1056 0.984 . S
H1063 N1056 0.984 . S
H1064 N1052 0.984 . S
H1065 N1052 0.985 . S
C1066 C1067 1.363 . S
C1066 C1072 1.379 . S
C1066 N1074 1.356 . S
C1067 C1066 1.363 . S
C1067 C1073 1.363 . S
C1068 C1069 1.363 . S
C1068 C1073 1.379 . S
C1068 N1075 1.356 . S
C1069 C1068 1.363 . S
C1069 C1072 1.363 . S
N1070 C1072 1.356 . S
N1070 H1082 0.984 . S
N1070 H1083 0.985 . S
N1071 C1073 1.356 . S
N1071 H1076 0.984 . S
N1071 H1077 0.985 . S
C1072 C1066 1.379 . S
C1072 C1069 1.363 . S
C1072 N1070 1.356 . S
C1073 C1067 1.363 . S
C1073 C1068 1.379 . S
C1073 N1071 1.356 . S
N1074 C1066 1.356 . S
N1074 H1080 0.984 . S
N1074 H1081 0.984 . S
N1075 C1068 1.356 . S
N1075 H1078 0.984 . S
N1075 H1079 0.985 . S
H1076 N1071 0.984 . S
H1077 N1071 0.985 . S
H1078 N1075 0.984 . S
H1079 N1075 0.985 . S
H1080 N1074 0.984 . S
H1081 N1074 0.984 . S
H1082 N1070 0.984 . S
H1083 N1070 0.985 . S
C1084 C1085 1.363 . S
C1084 C1090 1.379 . S
C1084 N1092 1.356 . S
C1085 C1084 1.363 . S
C1085 C1091 1.363 . S
C1086 C1087 1.363 . S
C1086 C1091 1.379 . S
C1086 N1093 1.356 . S
C1087 C1086 1.363 . S
C1087 C1090 1.363 . S
N1088 C1090 1.356 . S
N1088 H1100 0.984 . S
N1088 H1101 0.985 . S
N1089 C1091 1.356 . S
N1089 H1094 0.984 . S
N1089 H1095 0.985 . S
C1090 C1084 1.379 . S
C1090 C1087 1.363 . S
C1090 N1088 1.356 . S
C1091 C1085 1.363 . S
C1091 C1086 1.379 . S
C1091 N1089 1.356 . S
N1092 C1084 1.356 . S
N1092 H1098 0.984 . S
N1092 H1099 0.984 . S
N1093 C1086 1.356 . S
N1093 H1096 0.984 . S
N1093 H1097 0.985 . S
H1094 N1089 0.984 . S
H1095 N1089 0.985 . S
H1096 N1093 0.984 . S
H1097 N1093 0.985 . S
H1098 N1092 0.984 . S
H1099 N1092 0.984 . S
H1100 N1088 0.984 . S
H1101 N1088 0.985 . S
C1102 C1103 1.363 . S
C1102 C1108 1.379 . S
C1102 N1110 1.356 . S
C1103 C1102 1.363 . S
C1103 C1109 1.363 . S
C1104 C1105 1.363 . S
C1104 C1109 1.379 . S
C1104 N1111 1.356 . S
C1105 C1104 1.363 . S
C1105 C1108 1.363 . S
N1106 C1108 1.356 . S
N1106 H1118 0.984 . S
N1106 H1119 0.985 . S
N1107 C1109 1.356 . S
N1107 H1112 0.984 . S
N1107 H1113 0.985 . S
C1108 C1102 1.379 . S
C1108 C1105 1.363 . S
C1108 N1106 1.356 . S
C1109 C1103 1.363 . S
C1109 C1104 1.379 . S
C1109 N1107 1.356 . S
N1110 C1102 1.356 . S
N1110 H1116 0.984 . S
N1110 H1117 0.984 . S
N1111 C1104 1.356 . S
N1111 H1114 0.984 . S
N1111 H1115 0.985 . S
H1112 N1107 0.984 . S
H1113 N1107 0.985 . S
H1114 N1111 0.984 . S
H1115 N1111 0.985 . S
H1116 N1110 0.984 . S
H1117 N1110 0.984 . S
H1118 N1106 0.984 . S
H1119 N1106 0.985 . S
C1120 C1121 1.363 . S
C1120 C1126 1.379 . S
C1120 N1128 1.356 . S
C1121 C1120 1.363 . S
C1121 C1127 1.363 . S
C1122 C1123 1.363 . S
C1122 C1127 1.379 . S
C1122 N1129 1.356 . S
C1123 C1122 1.363 . S
C1123 C1126 1.363 . S
N1124 C1126 1.356 . S
N1124 H1136 0.984 . S
N1124 H1137 0.985 . S
N1125 C1127 1.356 . S
N1125 H1130 0.984 . S
N1125 H1131 0.985 . S
C1126 C1120 1.379 . S
C1126 C1123 1.363 . S
C1126 N1124 1.356 . S
C1127 C1121 1.363 . S
C1127 C1122 1.379 . S
C1127 N1125 1.356 . S
N1128 C1120 1.356 . S
N1128 H1134 0.984 . S
N1128 H1135 0.984 . S
N1129 C1122 1.356 . S
N1129 H1132 0.984 . S
N1129 H1133 0.985 . S
H1130 N1125 0.984 . S
H1131 N1125 0.985 . S
H1132 N1129 0.984 . S
H1133 N1129 0.985 . S
H1134 N1128 0.984 . S
H1135 N1128 0.984 . S
H1136 N1124 0.984 . S
H1137 N1124 0.985 . S
C1138 C1139 1.363 . S
C1138 C1144 1.379 . S
C1138 N1146 1.356 . S
C1139 C1138 1.363 . S
C1139 C1145 1.363 . S
C1140 C1141 1.363 . S
C1140 C1145 1.379 . S
C1140 N1147 1.356 . S
C1141 C1140 1.363 . S
C1141 C1144 1.363 . S
N1142 C1144 1.356 . S
N1142 H1154 0.984 . S
N1142 H1155 0.985 . S
N1143 C1145 1.356 . S
N1143 H1148 0.984 . S
N1143 H1149 0.985 . S
C1144 C1138 1.379 . S
C1144 C1141 1.363 . S
C1144 N1142 1.356 . S
C1145 C1139 1.363 . S
C1145 C1140 1.379 . S
C1145 N1143 1.356 . S
N1146 C1138 1.356 . S
N1146 H1152 0.984 . S
N1146 H1153 0.984 . S
N1147 C1140 1.356 . S
N1147 H1150 0.984 . S
N1147 H1151 0.985 . S
H1148 N1143 0.984 . S
H1149 N1143 0.985 . S
H1150 N1147 0.984 . S
H1151 N1147 0.985 . S
H1152 N1146 0.984 . S
H1153 N1146 0.984 . S
H1154 N1142 0.984 . S
H1155 N1142 0.985 . S
C1156 C1157 1.363 . S
C1156 C1162 1.379 . S
C1156 N1164 1.356 . S
C1157 C1156 1.363 . S
C1157 C1163 1.363 . S
C1158 C1159 1.363 . S
C1158 C1163 1.379 . S
C1158 N1165 1.356 . S
C1159 C1158 1.363 . S
C1159 C1162 1.363 . S
N1160 C1162 1.356 . S
N1160 H1172 0.984 . S
N1160 H1173 0.985 . S
N1161 C1163 1.356 . S
N1161 H1166 0.984 . S
N1161 H1167 0.985 . S
C1162 C1156 1.379 . S
C1162 C1159 1.363 . S
C1162 N1160 1.356 . S
C1163 C1157 1.363 . S
C1163 C1158 1.379 . S
C1163 N1161 1.356 . S
N1164 C1156 1.356 . S
N1164 H1170 0.984 . S
N1164 H1171 0.984 . S
N1165 C1158 1.356 . S
N1165 H1168 0.984 . S
N1165 H1169 0.985 . S
H1166 N1161 0.984 . S
H1167 N1161 0.985 . S
H1168 N1165 0.984 . S
H1169 N1165 0.985 . S
H1170 N1164 0.984 . S
H1171 N1164 0.984 . S
H1172 N1160 0.984 . S
H1173 N1160 0.985 . S
C1174 C1175 1.363 . S
C1174 C1180 1.379 . S
C1174 N1182 1.356 . S
C1175 C1174 1.363 . S
C1175 C1181 1.363 . S
C1176 C1177 1.363 . S
C1176 C1181 1.379 . S
C1176 N1183 1.356 . S
C1177 C1176 1.363 . S
C1177 C1180 1.363 . S
N1178 C1180 1.356 . S
N1178 H1190 0.984 . S
N1178 H1191 0.985 . S
N1179 C1181 1.356 . S
N1179 H1184 0.984 . S
N1179 H1185 0.985 . S
C1180 C1174 1.379 . S
C1180 C1177 1.363 . S
C1180 N1178 1.356 . S
C1181 C1175 1.363 . S
C1181 C1176 1.379 . S
C1181 N1179 1.356 . S
N1182 C1174 1.356 . S
N1182 H1188 0.984 . S
N1182 H1189 0.984 . S
N1183 C1176 1.356 . S
N1183 H1186 0.984 . S
N1183 H1187 0.985 . S
H1184 N1179 0.984 . S
H1185 N1179 0.985 . S
H1186 N1183 0.984 . S
H1187 N1183 0.985 . S
H1188 N1182 0.984 . S
H1189 N1182 0.984 . S
H1190 N1178 0.984 . S
H1191 N1178 0.985 . S
C1192 C1193 1.363 . S
C1192 C1198 1.379 . S
C1192 N1200 1.356 . S
C1193 C1192 1.363 . S
C1193 C1199 1.363 . S
C1194 C1195 1.363 . S
C1194 C1199 1.379 . S
C1194 N1201 1.356 . S
C1195 C1194 1.363 . S
C1195 C1198 1.363 . S
N1196 C1198 1.356 . S
N1196 H1208 0.984 . S
N1196 H1209 0.985 . S
N1197 C1199 1.356 . S
N1197 H1202 0.984 . S
N1197 H1203 0.985 . S
C1198 C1192 1.379 . S
C1198 C1195 1.363 . S
C1198 N1196 1.356 . S
C1199 C1193 1.363 . S
C1199 C1194 1.379 . S
C1199 N1197 1.356 . S
N1200 C1192 1.356 . S
N1200 H1206 0.984 . S
N1200 H1207 0.984 . S
N1201 C1194 1.356 . S
N1201 H1204 0.984 . S
N1201 H1205 0.985 . S
H1202 N1197 0.984 . S
H1203 N1197 0.985 . S
H1204 N1201 0.984 . S
H1205 N1201 0.985 . S
H1206 N1200 0.984 . S
H1207 N1200 0.984 . S
H1208 N1196 0.984 . S
H1209 N1196 0.985 . S
C1210 C1211 1.363 . S
C1210 C1216 1.379 . S
C1210 N1218 1.356 . S
C1211 C1210 1.363 . S
C1211 C1217 1.363 . S
C1212 C1213 1.363 . S
C1212 C1217 1.379 . S
C1212 N1219 1.356 . S
C1213 C1212 1.363 . S
C1213 C1216 1.363 . S
N1214 C1216 1.356 . S
N1214 H1226 0.984 . S
N1214 H1227 0.985 . S
N1215 C1217 1.356 . S
N1215 H1220 0.984 . S
N1215 H1221 0.985 . S
C1216 C1210 1.379 . S
C1216 C1213 1.363 . S
C1216 N1214 1.356 . S
C1217 C1211 1.363 . S
C1217 C1212 1.379 . S
C1217 N1215 1.356 . S
N1218 C1210 1.356 . S
N1218 H1224 0.984 . S
N1218 H1225 0.984 . S
N1219 C1212 1.356 . S
N1219 H1222 0.984 . S
N1219 H1223 0.985 . S
H1220 N1215 0.984 . S
H1221 N1215 0.985 . S
H1222 N1219 0.984 . S
H1223 N1219 0.985 . S
H1224 N1218 0.984 . S
H1225 N1218 0.984 . S
H1226 N1214 0.984 . S
H1227 N1214 0.985 . S
C1228 C1229 1.363 . S
C1228 C1234 1.379 . S
C1228 N1236 1.356 . S
C1229 C1228 1.363 . S
C1229 C1235 1.363 . S
C1230 C1231 1.363 . S
C1230 C1235 1.379 . S
C1230 N1237 1.356 . S
C1231 C1230 1.363 . S
C1231 C1234 1.363 . S
N1232 C1234 1.356 . S
N1232 H1244 0.984 . S
N1232 H1245 0.985 . S
N1233 C1235 1.356 . S
N1233 H1238 0.984 . S
N1233 H1239 0.985 . S
C1234 C1228 1.379 . S
C1234 C1231 1.363 . S
C1234 N1232 1.356 . S
C1235 C1229 1.363 . S
C1235 C1230 1.379 . S
C1235 N1233 1.356 . S
N1236 C1228 1.356 . S
N1236 H1242 0.984 . S
N1236 H1243 0.984 . S
N1237 C1230 1.356 . S
N1237 H1240 0.984 . S
N1237 H1241 0.985 . S
H1238 N1233 0.984 . S
H1239 N1233 0.985 . S
H1240 N1237 0.984 . S
H1241 N1237 0.985 . S
H1242 N1236 0.984 . S
H1243 N1236 0.984 . S
H1244 N1232 0.984 . S
H1245 N1232 0.985 . S
C1246 C1247 1.363 . S
C1246 C1252 1.379 . S
C1246 N1254 1.356 . S
C1247 C1246 1.363 . S
C1247 C1253 1.363 . S
C1248 C1249 1.363 . S
C1248 C1253 1.379 . S
C1248 N1255 1.356 . S
C1249 C1248 1.363 . S
C1249 C1252 1.363 . S
N1250 C1252 1.356 . S
N1250 H1262 0.984 . S
N1250 H1263 0.985 . S
N1251 C1253 1.356 . S
N1251 H1256 0.984 . S
N1251 H1257 0.985 . S
C1252 C1246 1.379 . S
C1252 C1249 1.363 . S
C1252 N1250 1.356 . S
C1253 C1247 1.363 . S
C1253 C1248 1.379 . S
C1253 N1251 1.356 . S
N1254 C1246 1.356 . S
N1254 H1260 0.984 . S
N1254 H1261 0.984 . S
N1255 C1248 1.356 . S
N1255 H1258 0.984 . S
N1255 H1259 0.985 . S
H1256 N1251 0.984 . S
H1257 N1251 0.985 . S
H1258 N1255 0.984 . S
H1259 N1255 0.985 . S
H1260 N1254 0.984 . S
H1261 N1254 0.984 . S
H1262 N1250 0.984 . S
H1263 N1250 0.985 . S
C545 C413 1.532 . S
C547 C9 1.452 . S
C563 C43 1.366 . S
C565 C447 1.480 . S
C581 C77 1.442 . S
C583 C481 1.522 . S
C599 C107 1.493 . S
C601 C519 1.368 . S
C617 C281 1.450 . S
C619 C141 1.526 . S
C635 C311 1.572 . S
C637 C179 1.452 . S
C653 C209 1.513 . S
C655 C349 1.423 . S
C671 C383 1.463 . S
C673 C243 1.589 . S
C689 C33 1.685 . S
C691 C509 1.685 . S
C707 C543 1.755 . S
C709 C67 1.750 . S
C725 C441 1.669 . S
C727 C101 1.674 . S
C743 C475 1.763 . S
C745 C135 1.770 . S
C761 C373 1.881 . S
C763 C169 1.879 . S
C779 C407 1.771 . S
C781 C203 1.766 . S
C797 C305 1.883 . S
C799 C237 1.883 . S
C815 C339 1.767 . S
C817 C271 1.769 . S
C833 C20 1.472 . S
C835 C342 1.489 . S
C851 C376 1.482 . S
C853 C54 1.516 . S
C869 C274 1.530 . S
C871 C88 1.505 . S
C887 C326 1.498 . S
C889 C104 1.473 . S
C905 C138 1.496 . S
C907 C496 1.469 . S
C923 C190 1.477 . S
C925 C512 1.440 . S
C941 C428 1.452 . S
C943 C206 1.483 . S
C959 C240 1.425 . S
C961 C462 1.445 . S
C977 C417 1.321 . S
C979 C5 1.399 . S
C995 C39 1.453 . S
C997 C451 1.335 . S
C1013 C73 1.392 . S
C1015 C485 1.299 . S
C1031 C515 1.433 . S
C1033 C111 1.348 . S
C1049 C277 1.391 . S
C1051 C145 1.310 . S
C1067 C175 1.345 . S
C1069 C315 1.252 . S
C1085 C345 1.408 . S
C1087 C213 1.341 . S
C1103 C379 1.349 . S
C1105 C247 1.252 . S
C1121 C172 1.587 . S
C1123 C2 1.585 . S
C1139 C224 1.630 . S
C1141 C36 1.649 . S
C1157 C70 1.326 . S
C1159 C258 1.309 . S
C1175 C156 1.397 . S
C1177 C122 1.393 . S
C1193 C292 1.655 . S
C1195 C444 1.690 . S
C1211 C478 1.542 . S
C1213 C308 1.537 . S
C1229 C530 1.460 . S
C1231 C360 1.451 . S
C1247 C394 1.360 . S
C1249 C410 1.398 . S
