# Generated by pormake.
# Topology vby, (6)-cn, num edge types: 1
# Building blocks:
#     Node 0, Type 0, BuildingBlock: VOLQOD_clean_sbu_1, # of connection points: 6
#     Node 1, Type 0, BuildingBlock: VOLQOD_clean_sbu_1, # of connection points: 6
#     Node 2, Type 0, BuildingBlock: VOLQOD_clean_sbu_1, # of connection points: 6
#     Node 3, Type 0, BuildingBlock: VOLQOD_clean_sbu_1, # of connection points: 6
#     Node 4, Type 0, BuildingBlock: VOLQOD_clean_sbu_1, # of connection points: 6
#     Node 5, Type 0, BuildingBlock: VOLQOD_clean_sbu_1, # of connection points: 6
#     Node 6, Type 0, BuildingBlock: VOLQOD_clean_sbu_1, # of connection points: 6
#     Node 7, Type 0, BuildingBlock: VOLQOD_clean_sbu_1, # of connection points: 6
#     Edge 8, Type (0, 0), BuildingBlock: XIVTED_clean_linker_0, # of connection points: 2
#     Edge 9, Type (0, 0), BuildingBlock: XIVTED_clean_linker_0, # of connection points: 2
#     Edge 10, Type (0, 0), BuildingBlock: XIVTED_clean_linker_0, # of connection points: 2
#     Edge 11, Type (0, 0), BuildingBlock: XIVTED_clean_linker_0, # of connection points: 2
#     Edge 12, Type (0, 0), BuildingBlock: XIVTED_clean_linker_0, # of connection points: 2
#     Edge 13, Type (0, 0), BuildingBlock: XIVTED_clean_linker_0, # of connection points: 2
#     Edge 14, Type (0, 0), BuildingBlock: XIVTED_clean_linker_0, # of connection points: 2
#     Edge 15, Type (0, 0), BuildingBlock: XIVTED_clean_linker_0, # of connection points: 2
#     Edge 16, Type (0, 0), BuildingBlock: XIVTED_clean_linker_0, # of connection points: 2
#     Edge 17, Type (0, 0), BuildingBlock: XIVTED_clean_linker_0, # of connection points: 2
#     Edge 18, Type (0, 0), BuildingBlock: XIVTED_clean_linker_0, # of connection points: 2
#     Edge 19, Type (0, 0), BuildingBlock: XIVTED_clean_linker_0, # of connection points: 2
#     Edge 20, Type (0, 0), BuildingBlock: XIVTED_clean_linker_0, # of connection points: 2
#     Edge 21, Type (0, 0), BuildingBlock: XIVTED_clean_linker_0, # of connection points: 2
#     Edge 22, Type (0, 0), BuildingBlock: XIVTED_clean_linker_0, # of connection points: 2
#     Edge 23, Type (0, 0), BuildingBlock: XIVTED_clean_linker_0, # of connection points: 2
#     Edge 24, Type (0, 0), BuildingBlock: XIVTED_clean_linker_0, # of connection points: 2
#     Edge 25, Type (0, 0), BuildingBlock: XIVTED_clean_linker_0, # of connection points: 2
#     Edge 26, Type (0, 0), BuildingBlock: XIVTED_clean_linker_0, # of connection points: 2
#     Edge 27, Type (0, 0), BuildingBlock: XIVTED_clean_linker_0, # of connection points: 2
#     Edge 28, Type (0, 0), BuildingBlock: XIVTED_clean_linker_0, # of connection points: 2
#     Edge 29, Type (0, 0), BuildingBlock: XIVTED_clean_linker_0, # of connection points: 2
#     Edge 30, Type (0, 0), BuildingBlock: XIVTED_clean_linker_0, # of connection points: 2
#     Edge 31, Type (0, 0), BuildingBlock: XIVTED_clean_linker_0, # of connection points: 2
# Relax obj value: 0.082
# Max RMSD: 0.107
# Mean RMSD: 0.107
data_MOF--net-vby--node1-VOLQOD_clean_sbu_1--edge1-XIVTED_clean_linker_0
_symmetry_space_group_name_H-M    P1
_symmetry_Int_Tables_number       1
_symmetry_cell_setting            triclinic
loop_
_symmetry_equiv_pos_as_xyz
'x, y, z'
_cell_length_a     17.225099
_cell_length_b     65.081233
_cell_length_c     33.791424
_cell_angle_alpha  89.945515
_cell_angle_beta   89.995095
_cell_angle_gamma 89.921472
loop_
_atom_site_label
_atom_site_type_symbol
_atom_site_fract_x
_atom_site_fract_y
_atom_site_fract_z
_atom_type_partial_charge
O0 O 0.24554 0.37463 0.00294 0.0
Zn1 Zn 0.13 0.37843 -0.00502 0.0
O2 O 0.0703 0.36488 0.03632 0.0
Zn3 Zn 0.01597 0.34075 0.01485 0.0
Zn4 Zn 0.1417 0.35717 0.07779 0.0
Zn5 Zn -0.00347 0.38376 0.059 0.0
O6 O 0.8999 0.34198 0.02635 0.0
O7 O 0.89004 0.37338 0.05183 0.0
O8 O 0.10052 0.36709 0.94228 0.0
O9 O 0.02418 0.34044 0.9553 0.0
O10 O 0.06575 0.3146 0.03555 0.0
O11 O 0.15249 0.32688 0.07817 0.0
O12 O 0.10892 0.36674 0.13168 0.0
O13 O 0.10409 0.40862 0.99237 0.0
O14 O 0.00858 0.3868 0.11764 0.0
O15 O 0.0035 0.41122 0.03326 0.0
C16 C 0.28341 0.37127 0.03467 0.0
C17 C 0.85931 0.35675 0.04007 0.0
C18 C 0.12091 0.31191 0.06023 0.0
C19 C 0.05875 0.35214 0.93077 0.0
C20 C 0.05474 0.37876 0.14259 0.0
C21 C 0.04957 0.41907 0.00803 0.0
O22 O 0.24912 0.36684 0.06688 0.0
O23 O 0.76852 0.6114 -0.00066 0.0
Zn24 Zn 0.88407 0.60842 0.99002 0.0
O25 O 0.94441 0.6215 0.032 0.0
Zn26 Zn 8e-05 0.64561 0.01187 0.0
Zn27 Zn 0.87325 0.629 0.07368 0.0
Zn28 Zn 0.01858 0.60265 0.05404 0.0
O29 O 0.11543 0.645 0.02506 0.0
O30 O 0.12522 0.6133 0.04897 0.0
O31 O 0.90939 0.62143 0.9378 0.0
O32 O -0.00444 0.64566 0.95265 0.0
O33 O 0.94649 0.67158 0.03065 0.0
O34 O 0.86018 0.65927 0.07353 0.0
O35 O 0.90658 0.61911 0.12724 0.0
O36 O 0.9128 0.57826 0.98532 0.0
O37 O 0.00412 0.59827 0.1121 0.0
O38 O 0.01411 0.57601 0.02601 0.0
C39 C 0.73123 0.61452 0.03133 0.0
C40 C 0.15596 0.63016 0.03853 0.0
C41 C 0.89042 0.67421 0.05482 0.0
C42 C 0.95604 0.63561 0.92746 0.0
C43 C 0.959 0.60638 0.13743 0.0
C44 C 0.96906 0.56818 0.00036 0.0
O45 O 0.76607 0.61899 0.06332 0.0
O46 O 0.23226 0.60763 0.56631 0.0
Zn47 Zn 0.11673 0.60504 0.57557 0.0
O48 O 0.05743 0.61855 0.53341 0.0
Zn49 Zn -0.00058 0.64217 0.55394 0.0
Zn50 Zn 0.12857 0.62724 0.4924 0.0
Zn51 Zn -0.01456 0.59953 0.50994 0.0
O52 O 0.88421 0.64049 0.54201 0.0
O53 O 0.87776 0.60939 0.51528 0.0
O54 O 0.09197 0.61805 0.62804 0.0
O55 O 0.00668 0.64252 0.61293 0.0
O56 O 0.04646 0.66876 0.5343 0.0
O57 O 0.13726 0.65776 0.49261 0.0
O58 O 0.09816 0.61744 0.43828 0.0
O59 O 0.08796 0.57482 0.57962 0.0
O60 O 0.00146 0.59612 0.45185 0.0
O61 O -0.00883 0.57239 0.53633 0.0
C62 C 0.26994 0.61186 0.53491 0.0
C63 C 0.84527 0.62573 0.52734 0.0
C64 C 0.10249 0.67226 0.51057 0.0
C65 C 0.04611 0.63247 0.63823 0.0
C66 C 0.04688 0.60464 0.42719 0.0
C67 C 0.03436 0.56453 0.5628 0.0
O68 O 0.23584 0.61773 0.50353 0.0
O69 O 0.74887 0.37037 0.56553 0.0
Zn70 Zn 0.8628 0.37482 0.5751 0.0
O71 O 0.92491 0.35965 0.53688 0.0
Zn72 Zn 0.97493 0.33575 0.56148 0.0
Zn73 Zn 0.85888 0.35081 0.49363 0.0
Zn74 Zn 0.0036 0.37766 0.51659 0.0
O75 O 0.0922 0.33527 0.55134 0.0
O76 O 0.10761 0.36758 0.53137 0.0
O77 O 0.88873 0.36499 0.62953 0.0
O78 O 0.96356 0.33751 0.62077 0.0
O79 O 0.92145 0.30974 0.54347 0.0
O80 O 0.85875 0.32023 0.48958 0.0
O81 O 0.89169 0.36282 0.44128 0.0
O82 O 0.88683 0.40522 0.57484 0.0
O83 O -0.00066 0.37957 0.45751 0.0
O84 O -0.00559 0.40583 0.53876 0.0
C85 C 0.71168 0.3634 0.53587 0.0
C86 C 0.1356 0.3505 0.54261 0.0
C87 C 0.87935 0.30604 0.51326 0.0
C88 C 0.92864 0.35016 0.64336 0.0
C89 C 0.95087 0.37344 0.4317 0.0
C90 C 0.94477 0.41482 0.56052 0.0
O91 O 0.74674 0.35681 0.50523 0.0
O92 O 0.72519 0.87223 -0.00249 0.0
Zn93 Zn 0.61022 0.87624 0.98896 0.0
O94 O 0.55142 0.86105 0.02849 0.0
Zn95 Zn 0.49654 0.83756 0.00493 0.0
Zn96 Zn 0.62104 0.85177 0.06933 0.0
Zn97 Zn 0.47782 0.87921 0.05265 0.0
O98 O 0.38039 0.839 0.01676 0.0
O99 O 0.37166 0.87167 0.03583 0.0
O100 O 0.58027 0.86659 0.93515 0.0
O101 O 0.50364 0.83961 0.94534 0.0
O102 O 0.54635 0.81036 0.02153 0.0
O103 O 0.63205 0.82184 0.06533 0.0
O104 O 0.58379 0.85837 0.12427 0.0
O105 O 0.58633 0.90665 0.99022 0.0
O106 O 0.4813 0.87802 0.11173 0.0
O107 O 0.49585 0.90805 0.03694 0.0
C108 C 0.76345 0.86703 0.02824 0.0
C109 C 0.34024 0.85497 0.02483 0.0
C110 C 0.60197 0.80726 0.04577 0.0
C111 C 0.53781 0.85211 0.92211 0.0
C112 C 0.5265 0.86911 0.13603 0.0
C113 C 0.53904 0.91678 0.01158 0.0
O114 O 0.72968 0.86117 0.05979 0.0
O115 O 0.25976 0.10891 -0.00396 0.0
Zn116 Zn 0.377 0.10756 0.98885 0.0
O117 O 0.43236 0.12251 0.03086 0.0
Zn118 Zn 0.48795 0.14677 0.01082 0.0
Zn119 Zn 0.35782 0.13023 0.07066 0.0
Zn120 Zn 0.5068 0.10495 0.05608 0.0
O121 O 0.60501 0.14527 0.01987 0.0
O122 O 0.61371 0.11487 0.04929 0.0
O123 O 0.39978 0.12114 0.93721 0.0
O124 O 0.4752 0.14784 0.9522 0.0
O125 O 0.44062 0.173 0.03301 0.0
O126 O 0.34987 0.16045 0.07302 0.0
O127 O 0.3824 0.1195 0.12433 0.0
O128 O 0.41193 0.0775 0.98611 0.0
O129 O 0.49054 0.10193 0.11385 0.0
O130 O 0.50177 0.07744 0.03317 0.0
C131 C 0.21988 0.11412 0.02616 0.0
C132 C 0.64522 0.13087 0.03522 0.0
C133 C 0.38416 0.17557 0.05696 0.0
C134 C 0.43889 0.13688 0.92716 0.0
C135 C 0.43781 0.10839 0.13688 0.0
C136 C 0.46358 0.06821 0.00649 0.0
O137 O 0.25182 0.12117 0.05711 0.0
O138 O 0.6626 0.11725 0.56213 0.0
Zn139 Zn 0.5464 0.11464 0.57125 0.0
O140 O 0.48721 0.13049 0.53179 0.0
Zn141 Zn 0.43357 0.15402 0.55546 0.0
Zn142 Zn 0.55672 0.13984 0.49057 0.0
Zn143 Zn 0.41089 0.11322 0.50744 0.0
O144 O 0.31682 0.15386 0.54519 0.0
O145 O 0.30482 0.12406 0.51384 0.0
O146 O 0.5254 0.12633 0.62489 0.0
O147 O 0.44528 0.15263 0.61393 0.0
O148 O 0.4845 0.18055 0.5379 0.0
O149 O 0.55861 0.17036 0.48776 0.0
O150 O 0.5327 0.12818 0.43745 0.0
O151 O 0.51402 0.08432 0.57173 0.0
O152 O 0.42751 0.10976 0.44991 0.0
O153 O 0.41465 0.08543 0.52999 0.0
C154 C 0.70012 0.12446 0.53274 0.0
C155 C 0.27519 0.14018 0.52857 0.0
C156 C 0.53173 0.18449 0.50984 0.0
C157 C 0.48398 0.14121 0.63726 0.0
C158 C 0.47863 0.11633 0.42608 0.0
C159 C 0.45793 0.07556 0.55374 0.0
O160 O 0.6655 0.13246 0.50333 0.0
O161 O 0.20183 0.87961 0.56396 0.0
Zn162 Zn 0.31802 0.88277 0.57202 0.0
O163 O 0.37478 0.86797 0.53088 0.0
Zn164 Zn 0.43327 0.84478 0.55329 0.0
Zn165 Zn 0.30212 0.85799 0.49227 0.0
Zn166 Zn 0.44276 0.88654 0.50321 0.0
O167 O 0.54878 0.84786 0.54202 0.0
O168 O 0.55202 0.87862 0.51321 0.0
O169 O 0.34768 0.87195 0.62548 0.0
O170 O 0.42441 0.84528 0.61259 0.0
O171 O 0.38882 0.81728 0.53527 0.0
O172 O 0.28916 0.82806 0.499 0.0
O173 O 0.33645 0.86275 0.43627 0.0
O174 O 0.34477 0.91316 0.57166 0.0
O175 O 0.4296 0.8858 0.4444 0.0
O176 O 0.42767 0.91523 0.5214 0.0
C177 C 0.16353 0.87574 0.53254 0.0
C178 C 0.58635 0.86294 0.52731 0.0
C179 C 0.32735 0.81368 0.51536 0.0
C180 C 0.38976 0.857 0.63703 0.0
C181 C 0.38701 0.8749 0.42209 0.0
C182 C 0.38893 0.92359 0.54905 0.0
O183 O 0.19682 0.86971 0.50101 0.0
H184 H 0.37902 0.3646 0.97094 0.0
H185 H 0.76661 0.37132 0.09793 0.0
H186 H 0.38195 0.37481 0.09716 0.0
H187 H 0.75958 0.34031 0.98526 0.0
H188 H 0.62587 0.37483 0.09621 0.0
H189 H 0.51987 0.35876 0.97278 0.0
C190 C 0.40941 0.3659 -0.00111 0.0
C191 C 0.3689 0.37025 0.03395 0.0
C192 C 0.65475 0.36703 0.07203 0.0
C193 C 0.52887 0.36338 0.03626 0.0
C194 C 0.73497 0.36497 0.07307 0.0
C195 C 0.77427 0.35547 0.04173 0.0
C196 C 0.61349 0.3599 0.03902 0.0
C197 C 0.73094 0.34755 0.01014 0.0
C198 C 0.48941 0.36231 -3e-05 0.0
C199 C 0.41084 0.37148 0.06943 0.0
N200 N 0.65252 0.35019 0.00929 0.0
N201 N 0.48848 0.3681 0.06965 0.0
H202 H 0.24817 0.61497 0.09618 0.0
H203 H 0.6346 0.62167 0.96824 0.0
H204 H 0.25615 0.64717 0.98466 0.0
H205 H 0.63364 0.61046 0.09419 0.0
H206 H 0.49409 0.62786 0.97092 0.0
H207 H 0.38891 0.61111 0.0942 0.0
C208 C 0.28003 0.62154 0.07158 0.0
C209 C 0.24098 0.63147 0.04061 0.0
C210 C 0.52486 0.62399 -0.00213 0.0
C211 C 0.40162 0.62658 0.03752 0.0
C212 C 0.60468 0.62019 -0.0037 0.0
C213 C 0.64569 0.61548 0.03105 0.0
C214 C 0.48601 0.62279 0.03433 0.0
C215 C 0.60432 0.61406 0.0667 0.0
C216 C 0.36022 0.61926 0.07037 0.0
C217 C 0.28457 0.63962 0.00929 0.0
N218 N 0.5268 0.61766 0.06739 0.0
N219 N 0.36285 0.63674 0.00823 0.0
H220 H 0.75281 0.60965 0.47074 0.0
H221 H 0.36667 0.61746 0.59839 0.0
H222 H 0.74525 0.64264 0.58135 0.0
H223 H 0.36689 0.60782 0.472 0.0
H224 H 0.50779 0.62267 0.59601 0.0
H225 H 0.61214 0.60579 0.47314 0.0
C226 C 0.72111 0.61633 0.49528 0.0
C227 C 0.76018 0.62653 0.52584 0.0
C228 C 0.47668 0.61935 0.56891 0.0
C229 C 0.5998 0.62171 0.52932 0.0
C230 C 0.39658 0.61611 0.57031 0.0
C231 C 0.35533 0.61218 0.53533 0.0
C232 C 0.51538 0.61831 0.5324 0.0
C233 C 0.39653 0.61087 0.49963 0.0
C234 C 0.641 0.61408 0.4967 0.0
C235 C 0.71679 0.63486 0.55705 0.0
N236 N 0.47432 0.61389 0.49911 0.0
N237 N 0.63858 0.63204 0.55829 0.0
H238 H 0.61222 0.38263 0.58698 0.0
H239 H 0.23594 0.31975 0.5196 0.0
H240 H 0.61765 0.33855 0.49158 0.0
H241 H 0.22695 0.37924 0.57549 0.0
H242 H 0.37906 0.32177 0.5199 0.0
H243 H 0.47231 0.37723 0.5931 0.0
C244 C 0.58396 0.37188 0.56723 0.0
C245 C 0.62648 0.36121 0.53845 0.0
C246 C 0.3454 0.33423 0.53242 0.0
C247 C 0.4669 0.35466 0.54582 0.0
C248 C 0.2642 0.33299 0.53256 0.0
C249 C 0.22029 0.3494 0.54734 0.0
C250 C 0.38191 0.35182 0.54786 0.0
C251 C 0.2591 0.36635 0.56353 0.0
C252 C 0.50423 0.36877 0.5708 0.0
C253 C 0.58687 0.34733 0.51382 0.0
N254 N 0.33764 0.36713 0.56335 0.0
N255 N 0.50922 0.34439 0.51814 0.0
H256 H 0.8623 0.88777 0.97884 0.0
H257 H 0.23814 0.82362 0.04085 0.0
H258 H 0.85798 0.84226 0.07186 0.0
H259 H 0.24996 0.88628 -0.00053 0.0
H260 H 0.09534 0.82593 0.03955 0.0
H261 H 0.00353 0.88339 0.97406 0.0
C262 C 0.8911 0.87694 -0.00171 0.0
C263 C 0.84873 0.86557 0.02612 0.0
C264 C 0.12959 0.83907 0.03052 0.0
C265 C 0.00892 0.8601 0.02006 0.0
C266 C 0.21062 0.83771 0.03101 0.0
C267 C 0.2553 0.85484 0.02061 0.0
C268 C 0.09388 0.85752 0.01868 0.0
C269 C 0.21727 0.87281 0.00817 0.0
C270 C 0.97136 0.87442 -0.0045 0.0
C271 C 0.8887 0.85158 0.05044 0.0
N272 N 0.1387 0.87368 0.00748 0.0
N273 N 0.96662 0.84915 0.0467 0.0
H274 H 0.12429 0.11964 0.96185 0.0
H275 H 0.7396 0.11737 0.0933 0.0
H276 H 0.12174 0.10974 0.08813 0.0
H277 H 0.74365 0.14482 0.97712 0.0
H278 H 0.87937 0.11233 0.08978 0.0
H279 H -0.01685 0.12556 0.9638 0.0
C280 C 0.0938 0.11831 0.98977 0.0
C281 C 0.13443 0.11418 0.02489 0.0
C282 C 0.85017 0.11968 0.06514 0.0
C283 C 0.97456 0.12121 0.02742 0.0
C284 C 0.77046 0.12265 0.06726 0.0
C285 C 0.73048 0.1316 0.03553 0.0
C286 C 0.89037 0.12539 0.03074 0.0
C287 C 0.77287 0.13808 0.00236 0.0
C288 C 0.01371 0.12197 0.99095 0.0
C289 C 0.09262 0.11294 0.06039 0.0
N290 N 0.85083 0.13462 0.00058 0.0
N291 N 0.01514 0.11646 0.06073 0.0
H292 H 0.18157 0.13077 0.46731 0.0
H293 H 0.79717 0.12562 0.59728 0.0
H294 H 0.17664 0.15215 0.588 0.0
H295 H 0.79702 0.12652 0.46956 0.0
H296 H 0.9379 0.13198 0.5964 0.0
H297 H 0.04089 0.12693 0.46884 0.0
C298 C 0.15034 0.13502 0.49393 0.0
C299 C 0.19021 0.1419 0.52749 0.0
C300 C 0.90678 0.13073 0.56866 0.0
C301 C 0.02962 0.13692 0.52997 0.0
C302 C 0.8269 0.12684 0.56913 0.0
C303 C 0.78561 0.1255 0.53343 0.0
C304 C 0.94522 0.13297 0.53225 0.0
C305 C 0.82659 0.12749 0.49777 0.0
C306 C 0.07019 0.13273 0.49488 0.0
C307 C 0.14749 0.14704 0.56139 0.0
N308 N 0.90404 0.13108 0.4981 0.0
N309 N 0.06919 0.14417 0.562 0.0
H310 H 0.6855 0.84423 0.57994 0.0
H311 H 0.0672 0.88289 0.47042 0.0
H312 H 0.68109 0.88252 0.4756 0.0
H313 H 0.06612 0.86865 0.59517 0.0
H314 H 0.92639 0.87896 0.46907 0.0
H315 H 0.82742 0.84837 0.58281 0.0
C316 C 0.71451 0.85325 0.55741 0.0
C317 C 0.67183 0.86307 0.52752 0.0
C318 C 0.95683 0.87687 0.49683 0.0
C319 C 0.83262 0.8679 0.5307 0.0
C320 C 0.03707 0.87915 0.49763 0.0
C321 C 0.07809 0.87617 0.53299 0.0
C322 C 0.91739 0.87118 0.53146 0.0
C323 C 0.03635 0.87129 0.56741 0.0
C324 C 0.79505 0.85578 0.55931 0.0
C325 C 0.71186 0.87477 0.49925 0.0
N326 N 0.95806 0.86871 0.56573 0.0
N327 N 0.78998 0.87681 0.50148 0.0
H328 H 0.10794 0.5488 -0.00379 0.0
H329 H 0.15057 0.44427 0.96822 0.0
H330 H 0.86257 0.53892 0.97926 0.0
H331 H 0.92238 0.44307 0.02121 0.0
H332 H 0.13284 0.48087 0.9539 0.0
H333 H 0.13066 0.51217 0.98746 0.0
C334 C 0.05898 0.53889 0.98985 0.0
C335 C -0.01681 0.54675 0.98879 0.0
C336 C 0.08689 0.47255 0.96876 0.0
C337 C 0.00874 0.50487 0.97846 0.0
C338 C 0.09678 0.45168 0.97676 0.0
C339 C 0.03863 0.44076 -0.00321 0.0
C340 C 0.01832 0.48244 0.98082 0.0
C341 C 0.9695 0.45103 0.00656 0.0
C342 C 0.0721 0.51801 0.9844 0.0
C343 C 0.92182 0.53338 0.98028 0.0
N344 N 0.96142 0.47134 -0.00136 0.0
N345 N 0.93576 0.51292 0.97634 0.0
H346 H 0.836 0.44336 0.58299 0.0
H347 H 0.14071 0.53606 0.58842 0.0
H348 H 0.08075 0.43599 0.55927 0.0
H349 H 0.89787 0.54385 0.56073 0.0
H350 H 0.11825 0.49901 0.59671 0.0
H351 H 0.85758 0.48025 0.5933 0.0
C352 C 0.89424 0.44946 0.58035 0.0
C353 C 0.95645 0.43673 0.56962 0.0
C354 C 0.06988 0.50895 0.58933 0.0
C355 C -0.01843 0.47856 0.58192 0.0
C356 C 0.08258 0.53001 0.58478 0.0
C357 C 0.02127 0.54286 0.57329 0.0
C358 C -0.00478 0.50091 0.58297 0.0
C359 C 0.94695 0.53435 0.56894 0.0
C360 C 0.90649 0.47044 0.5862 0.0
C361 C 0.03092 0.44536 0.56679 0.0
N362 N 0.93602 0.51387 0.57361 0.0
N363 N 0.04141 0.46577 0.57278 0.0
H364 H 0.51426 0.94376 0.07059 0.0
H365 H 0.41481 0.04185 0.94693 0.0
H366 H 0.54934 0.94042 0.9443 0.0
H367 H 0.54723 0.04394 0.05557 0.0
H368 H 0.43837 0.00438 0.94405 0.0
H369 H 0.4977 0.98083 0.06512 0.0
C370 C 0.51862 0.9509 0.04169 0.0
C371 C 0.53369 0.93918 0.00788 0.0
C372 C 0.46259 0.01331 0.96809 0.0
C373 C 0.51336 0.98139 0.00135 0.0
C374 C 0.44887 0.03453 0.96991 0.0
C375 C 0.47849 0.04602 0.00167 0.0
C376 C 0.50448 0.00377 -0.00134 0.0
C377 C 0.52279 0.03582 0.03057 0.0
C378 C 0.50926 0.97198 0.0386 0.0
C379 C 0.53868 0.94912 0.97105 0.0
N380 N 0.53352 0.0153 0.02859 0.0
N381 N 0.52775 0.96981 0.9686 0.0
H382 H 0.37341 0.05187 0.50414 0.0
H383 H 0.3829 0.94641 0.61762 0.0
H384 H 0.51027 0.04831 0.61115 0.0
H385 H 0.41018 0.95153 0.49104 0.0
H386 H 0.39982 0.98404 0.62306 0.0
H387 H 0.35331 0.01508 0.50696 0.0
C388 C 0.3989 0.0434 0.52852 0.0
C389 C 0.44421 0.05323 0.55738 0.0
C390 C 0.40212 0.97675 0.59428 0.0
C391 C 0.42049 0.01091 0.56063 0.0
C392 C 0.39183 0.95546 0.5911 0.0
C393 C 0.39508 0.94599 0.5538 0.0
C394 C 0.4133 0.9884 0.55982 0.0
C395 C 0.40753 0.95824 0.52032 0.0
C396 C 0.38744 0.02236 0.52993 0.0
C397 C 0.47559 0.04128 0.58815 0.0
N398 N 0.41543 0.97883 0.5241 0.0
N399 N 0.46302 0.02059 0.58907 0.0
H400 H 0.05513 0.27409 0.04721 0.0
H401 H 0.45118 0.2134 0.04426 0.0
H402 H 0.26921 0.30343 0.08207 0.0
H403 H 0.23777 0.18439 0.0814 0.0
H404 H 0.38598 0.24698 0.04861 0.0
H405 H 0.12155 0.24068 0.05 0.0
C406 C 0.11573 0.27347 0.05571 0.0
C407 C 0.1566 0.29147 0.06466 0.0
C408 C 0.35408 0.23318 0.05611 0.0
C409 C 0.23277 0.2537 0.0669 0.0
C410 C 0.39109 0.21411 0.05361 0.0
C411 C 0.34997 0.19613 0.06261 0.0
C412 C 0.27523 0.23408 0.06663 0.0
C413 C 0.27197 0.19786 0.07446 0.0
C414 C 0.15344 0.2545 0.05733 0.0
C415 C 0.23528 0.28988 0.07534 0.0
N416 N 0.23683 0.21648 0.07563 0.0
N417 N 0.27114 0.27133 0.07569 0.0
H418 H 0.54115 0.76862 0.03253 0.0
H419 H 0.9496 0.71234 0.03752 0.0
H420 H 0.75264 0.80035 0.0635 0.0
H421 H 0.74027 0.68151 0.07514 0.0
H422 H 0.87708 0.74484 0.03545 0.0
H423 H 0.61262 0.7358 0.03622 0.0
C424 C 0.60225 0.76866 0.04011 0.0
C425 C 0.64084 0.78712 0.04814 0.0
C426 C 0.8475 0.73091 0.04439 0.0
C427 C 0.72242 0.75014 0.05148 0.0
C428 C 0.88877 0.71245 0.04564 0.0
C429 C 0.85111 0.6943 0.05689 0.0
C430 C 0.76787 0.73101 0.05343 0.0
C431 C 0.77187 0.69522 0.06682 0.0
C432 C 0.64278 0.75004 0.04231 0.0
C433 C 0.72027 0.78643 0.05765 0.0
N434 N 0.7326 0.71325 0.06446 0.0
N435 N 0.75855 0.76827 0.05875 0.0
H436 H 0.24811 0.68327 0.48725 0.0
H437 H 0.17727 0.80321 0.50207 0.0
H438 H 0.03038 0.70885 0.52728 0.0
H439 H 0.40316 0.77658 0.52354 0.0
H440 H 0.12182 0.76885 0.49891 0.0
H441 H 0.30459 0.7177 0.4877 0.0
C442 C 0.21181 0.69616 0.49562 0.0
C443 C 0.13423 0.69322 0.50718 0.0
C444 C 0.18348 0.77053 0.50428 0.0
C445 C 0.19877 0.73251 0.50769 0.0
C446 C 0.21542 0.79011 0.50587 0.0
C447 C 0.29514 0.79273 0.51299 0.0
C448 C 0.23167 0.75339 0.50913 0.0
C449 C 0.34146 0.7752 0.51809 0.0
C450 C 0.24443 0.71573 0.49621 0.0
C451 C 0.09034 0.71044 0.51819 0.0
N452 N 0.30905 0.75618 0.51577 0.0
N453 N 0.12318 0.72941 0.518 0.0
H454 H 0.8204 0.28833 0.44645 0.0
H455 H 0.55021 0.21255 0.5691 0.0
H456 H 0.8429 0.27923 0.57247 0.0
H457 H 0.60237 0.20202 0.44582 0.0
H458 H 0.63995 0.24166 0.56882 0.0
H459 H 0.72858 0.25965 0.44388 0.0
C460 C 0.80725 0.28001 0.47342 0.0
C461 C 0.8395 0.28609 0.50971 0.0
C462 C 0.631 0.23308 0.54175 0.0
C463 C 0.73262 0.25394 0.50716 0.0
C464 C 0.57887 0.21669 0.5417 0.0
C465 C 0.56909 0.20482 0.50745 0.0
C466 C 0.67261 0.23776 0.50719 0.0
C467 C 0.60856 0.21074 0.4729 0.0
C468 C 0.75447 0.2638 0.47196 0.0
C469 C 0.82003 0.27492 0.54382 0.0
N470 N 0.65891 0.22677 0.47367 0.0
N471 N 0.76689 0.25956 0.54181 0.0
H472 H 0.92075 0.39132 0.17843 0.0
H473 H 0.08889 0.38405 0.39767 0.0
H474 H 0.15715 0.37344 0.20367 0.0
H475 H 0.84809 0.37263 0.36986 0.0
H476 H 0.1156 0.38863 0.32713 0.0
H477 H 0.89502 0.39306 0.24957 0.0
C478 C 0.96756 0.38806 0.19892 0.0
C479 C 0.04111 0.38208 0.18519 0.0
C480 C 0.05689 0.38527 0.33661 0.0
C481 C 0.01199 0.38415 0.26627 0.0
C482 C 0.04145 0.38274 0.37679 0.0
C483 C 0.9662 0.3778 0.38957 0.0
C484 C -0.00355 0.38319 0.30914 0.0
C485 C 0.90704 0.37624 0.36121 0.0
C486 C 0.95263 0.38895 0.23942 0.0
C487 C 0.09947 0.37794 0.21304 0.0
N488 N 0.92343 0.37893 0.32222 0.0
N489 N 0.08363 0.37904 0.25235 0.0
H490 H 0.09291 0.59386 0.17315 0.0
H491 H 0.91562 0.59117 0.39046 0.0
H492 H 0.85384 0.60927 0.19774 0.0
H493 H 0.15217 0.60949 0.36728 0.0
H494 H 0.89372 0.58815 0.31916 0.0
H495 H 0.11597 0.58999 0.24429 0.0
C496 C 0.04503 0.59613 0.19348 0.0
C497 C 0.97145 0.60203 0.1797 0.0
C498 C 0.95052 0.59262 0.32984 0.0
C499 C -0.0026 0.59744 0.26056 0.0
C500 C 0.96327 0.59425 0.3704 0.0
C501 C 0.0357 0.60075 0.38467 0.0
C502 C 0.01102 0.59714 0.30353 0.0
C503 C 0.09529 0.60463 0.35741 0.0
C504 C 0.0584 0.59402 0.23394 0.0
C505 C 0.91156 0.60488 0.20726 0.0
N506 N 0.08163 0.60277 0.318 0.0
N507 N 0.92584 0.60254 0.24651 0.0
H508 H 0.08904 0.64847 0.89156 0.0
H509 H 0.91655 0.6479 0.67361 0.0
H510 H 0.85212 0.63103 0.86725 0.0
H511 H 0.14906 0.62676 0.69879 0.0
H512 H 0.8941 0.65217 0.74473 0.0
H513 H 0.11294 0.65098 0.82013 0.0
C514 C 0.04179 0.64553 0.87119 0.0
C515 C 0.96864 0.63941 0.88508 0.0
C516 C 0.95018 0.64681 0.73449 0.0
C517 C -0.00465 0.6425 0.8041 0.0
C518 C 0.9632 0.64445 0.69408 0.0
C519 C 0.0346 0.63682 0.68051 0.0
C520 C 0.00954 0.64195 0.76125 0.0
C521 C 0.09299 0.63249 0.70821 0.0
C522 C 0.05562 0.64685 0.83063 0.0
C523 C 0.90947 0.63562 0.85758 0.0
N524 N 0.07922 0.63515 0.74743 0.0
N525 N 0.92408 0.63726 0.81824 0.0
H526 H 0.90732 0.38059 0.69737 0.0
H527 H 0.00759 0.31793 0.89076 0.0
H528 H 0.97848 0.31713 0.68745 0.0
H529 H 0.07404 0.3813 0.8738 0.0
H530 H 0.97279 0.31602 0.82016 0.0
H531 H 0.93987 0.37976 0.76753 0.0
C532 C 0.92883 0.36639 0.71004 0.0
C533 C 0.94066 0.34892 0.6865 0.0
C534 C -0.00442 0.33022 0.83211 0.0
C535 C 0.97777 0.34794 0.76673 0.0
C536 C 0.01531 0.33135 0.87219 0.0
C537 C 0.0438 0.34979 0.88807 0.0
C538 C 0.00252 0.34782 0.8084 0.0
C539 C 0.05274 0.36674 0.8628 0.0
C540 C 0.94791 0.366 0.74997 0.0
C541 C 0.96906 0.33096 0.70457 0.0
N542 N 0.03124 0.36541 0.82434 0.0
N543 N -0.01339 0.3309 0.74383 0.0
H544 H 0.55206 0.84005 0.19268 0.0
H545 H 0.43588 0.90715 0.37685 0.0
H546 H 0.4609 0.90122 0.17564 0.0
H547 H 0.3732 0.84306 0.37043 0.0
H548 H 0.47024 0.90627 0.30628 0.0
H549 H 0.51399 0.84179 0.26261 0.0
C550 C 0.52488 0.85391 0.20381 0.0
C551 C 0.50939 0.87051 0.17857 0.0
C552 C 0.44844 0.89249 0.32044 0.0
C553 C 0.4668 0.87263 0.25794 0.0
C554 C 0.42895 0.89297 0.36048 0.0
C555 C 0.4014 0.87517 0.37921 0.0
C556 C 0.44254 0.87396 0.29957 0.0
C557 C 0.39356 0.85715 0.35687 0.0
C558 C 0.5027 0.85481 0.24344 0.0
C559 C 0.47343 0.88807 0.19424 0.0
N560 N 0.41514 0.8569 0.31824 0.0
N561 N 0.45382 0.88876 0.23315 0.0
H562 H 0.56699 0.09729 0.17835 0.0
H563 H 0.35285 0.10115 0.38696 0.0
H564 H 0.32179 0.10948 0.19167 0.0
H565 H 0.59337 0.11786 0.37046 0.0
H566 H 0.34312 0.09382 0.31622 0.0
H567 H 0.57828 0.09427 0.25028 0.0
C568 C 0.51536 0.09901 0.19637 0.0
C569 C 0.44355 0.10398 0.1793 0.0
C570 C 0.3981 0.09889 0.32831 0.0
C571 C 0.45614 0.10039 0.2609 0.0
C572 C 0.4038 0.10306 0.36853 0.0
C573 C 0.47374 0.11043 0.3843 0.0
C574 C 0.46301 0.10187 0.30401 0.0
C575 C 0.53806 0.11254 0.35924 0.0
C576 C 0.52197 0.09734 0.23726 0.0
C577 C 0.37842 0.10598 0.20384 0.0
N578 N 0.53107 0.10836 0.32013 0.0
N579 N 0.38634 0.10429 0.2436 0.0
H580 H 0.56321 0.15297 0.88847 0.0
H581 H 0.35988 0.15604 0.67794 0.0
H582 H 0.32755 0.13243 0.87094 0.0
H583 H 0.59553 0.13472 0.69291 0.0
H584 H 0.34815 0.15927 0.75002 0.0
H585 H 0.57549 0.1582 0.81675 0.0
C586 C 0.5138 0.14991 0.86954 0.0
C587 C 0.44456 0.14207 0.88517 0.0
C588 C 0.40256 0.15416 0.73727 0.0
C589 C 0.45776 0.14835 0.80431 0.0
C590 C 0.40939 0.15235 0.69641 0.0
C591 C 0.47848 0.14489 0.67986 0.0
C592 C 0.46586 0.14894 0.76127 0.0
C593 C 0.54102 0.14026 0.70482 0.0
C594 C 0.52096 0.15283 0.8289 0.0
C595 C 0.38213 0.13826 0.8597 0.0
N596 N 0.53328 0.14238 0.74453 0.0
N597 N 0.39016 0.14145 0.82029 0.0
H598 H 0.43797 0.82233 0.67628 0.0
H599 H 0.55498 0.88302 0.8687 0.0
H600 H 0.37752 0.88603 0.69457 0.0
H601 H 0.48125 0.81979 0.87831 0.0
H602 H 0.51525 0.88311 0.79951 0.0
H603 H 0.47486 0.81982 0.74644 0.0
C604 C 0.43191 0.8357 0.69509 0.0
C605 C 0.40475 0.85443 0.67968 0.0
C606 C 0.5081 0.8692 0.81678 0.0
C607 C 0.44834 0.85175 0.75894 0.0
C608 C 0.53139 0.86905 0.85614 0.0
C609 C 0.5212 0.85136 0.87932 0.0
C610 C 0.47572 0.85146 0.80019 0.0
C611 C 0.48972 0.83376 0.86145 0.0
C612 C 0.45281 0.83423 0.73494 0.0
C613 C 0.39785 0.87129 0.70525 0.0
N614 N 0.46826 0.83421 0.82271 0.0
N615 N 0.42056 0.86962 0.74352 0.0
loop_
_geom_bond_atom_site_label_1
_geom_bond_atom_site_label_2
_geom_bond_distance
_geom_bond_site_symmetry_2
_ccdc_geom_bond_type
O0 Zn1 1.953 1_554 S
O0 C16 1.225 . S
Zn1 O0 1.953 1_556 S
Zn1 O2 1.949 1_556 S
Zn1 O8 1.919 . S
Zn1 O13 1.924 1_556 S
O2 Zn1 1.949 1_554 S
O2 Zn3 1.923 1_455 S
O2 Zn4 1.950 . S
O2 Zn5 1.945 1_455 S
Zn3 O2 1.923 1_655 S
Zn3 O6 1.933 . S
Zn3 O9 1.941 1_654 S
Zn3 O10 1.965 1_655 S
Zn4 O2 1.950 . S
Zn4 O11 1.938 . S
Zn4 O12 1.906 . S
Zn4 O22 1.953 . S
Zn5 O2 1.945 1_655 S
Zn5 O7 1.932 . S
Zn5 O14 1.977 . S
Zn5 O15 1.910 1_655 S
O6 Zn3 1.933 . S
O6 C17 1.226 . S
O7 Zn5 1.932 . S
O7 C17 1.307 . S
O8 Zn1 1.919 . S
O8 C19 1.253 . S
O9 Zn3 1.941 1_456 S
O9 C19 1.283 . S
O10 Zn3 1.965 1_455 S
O10 C18 1.303 . S
O11 Zn4 1.938 . S
O11 C18 1.247 . S
O12 Zn4 1.906 . S
O12 C20 1.304 . S
O13 Zn1 1.924 1_554 S
O13 C21 1.311 . S
O14 Zn5 1.977 . S
O14 C20 1.272 1_655 S
O15 Zn5 1.910 1_455 S
O15 C21 1.231 . S
C16 O0 1.225 . S
C16 O22 1.298 . S
C17 O6 1.226 . S
C17 O7 1.307 . S
C18 O10 1.303 . S
C18 O11 1.247 . S
C19 O8 1.253 . S
C19 O9 1.283 . S
C20 O12 1.304 . S
C20 O14 1.272 1_455 S
C21 O13 1.311 . S
C21 O15 1.231 . S
O22 Zn4 1.953 . S
O22 C16 1.298 . S
O23 Zn24 1.953 1_554 S
O23 C39 1.225 . S
Zn24 O23 1.953 1_556 S
Zn24 O25 1.949 1_556 S
Zn24 O31 1.919 . S
Zn24 O36 1.924 1_556 S
O25 Zn24 1.949 1_554 S
O25 Zn26 1.923 1_655 S
O25 Zn27 1.950 . S
O25 Zn28 1.945 1_655 S
Zn26 O25 1.923 1_455 S
Zn26 O29 1.933 . S
Zn26 O32 1.941 1_454 S
Zn26 O33 1.965 1_455 S
Zn27 O25 1.950 . S
Zn27 O34 1.938 . S
Zn27 O35 1.906 . S
Zn27 O45 1.953 . S
Zn28 O25 1.945 1_455 S
Zn28 O30 1.932 . S
Zn28 O37 1.977 . S
Zn28 O38 1.910 1_455 S
O29 Zn26 1.933 . S
O29 C40 1.226 . S
O30 Zn28 1.932 . S
O30 C40 1.307 . S
O31 Zn24 1.919 . S
O31 C42 1.253 . S
O32 Zn26 1.941 1_656 S
O32 C42 1.283 . S
O33 Zn26 1.965 1_655 S
O33 C41 1.303 . S
O34 Zn27 1.938 . S
O34 C41 1.247 . S
O35 Zn27 1.906 . S
O35 C43 1.304 . S
O36 Zn24 1.924 1_554 S
O36 C44 1.311 . S
O37 Zn28 1.977 . S
O37 C43 1.272 1_455 S
O38 Zn28 1.910 1_655 S
O38 C44 1.231 . S
C39 O23 1.225 . S
C39 O45 1.298 . S
C40 O29 1.226 . S
C40 O30 1.307 . S
C41 O33 1.303 . S
C41 O34 1.247 . S
C42 O31 1.253 . S
C42 O32 1.283 . S
C43 O35 1.304 . S
C43 O37 1.272 1_655 S
C44 O36 1.311 . S
C44 O38 1.231 . S
O45 Zn27 1.953 . S
O45 C39 1.298 . S
O46 Zn47 1.953 . S
O46 C62 1.225 . S
Zn47 O46 1.953 . S
Zn47 O48 1.949 . S
Zn47 O54 1.919 . S
Zn47 O59 1.924 . S
O48 Zn47 1.949 . S
O48 Zn49 1.923 1_455 S
O48 Zn50 1.950 . S
O48 Zn51 1.945 1_455 S
Zn49 O48 1.923 1_655 S
Zn49 O52 1.933 . S
Zn49 O55 1.941 1_655 S
Zn49 O56 1.965 1_655 S
Zn50 O48 1.950 . S
Zn50 O57 1.938 . S
Zn50 O58 1.906 . S
Zn50 O68 1.953 . S
Zn51 O48 1.945 1_655 S
Zn51 O53 1.932 . S
Zn51 O60 1.977 . S
Zn51 O61 1.910 1_655 S
O52 Zn49 1.933 . S
O52 C63 1.226 . S
O53 Zn51 1.932 . S
O53 C63 1.307 . S
O54 Zn47 1.919 . S
O54 C65 1.253 . S
O55 Zn49 1.941 1_455 S
O55 C65 1.283 . S
O56 Zn49 1.965 1_455 S
O56 C64 1.303 . S
O57 Zn50 1.938 . S
O57 C64 1.247 . S
O58 Zn50 1.906 . S
O58 C66 1.304 . S
O59 Zn47 1.924 . S
O59 C67 1.311 . S
O60 Zn51 1.977 . S
O60 C66 1.272 1_655 S
O61 Zn51 1.910 1_455 S
O61 C67 1.231 . S
C62 O46 1.225 . S
C62 O68 1.298 . S
C63 O52 1.226 . S
C63 O53 1.307 . S
C64 O56 1.303 . S
C64 O57 1.247 . S
C65 O54 1.253 . S
C65 O55 1.283 . S
C66 O58 1.304 . S
C66 O60 1.272 1_455 S
C67 O59 1.311 . S
C67 O61 1.231 . S
O68 Zn50 1.953 . S
O68 C62 1.298 . S
O69 Zn70 1.953 . S
O69 C85 1.225 . S
Zn70 O69 1.953 . S
Zn70 O71 1.949 . S
Zn70 O77 1.919 . S
Zn70 O82 1.924 . S
O71 Zn70 1.949 . S
O71 Zn72 1.923 1_655 S
O71 Zn73 1.950 . S
O71 Zn74 1.945 1_655 S
Zn72 O71 1.923 1_455 S
Zn72 O75 1.933 . S
Zn72 O78 1.941 1_455 S
Zn72 O79 1.965 1_455 S
Zn73 O71 1.950 . S
Zn73 O80 1.938 . S
Zn73 O81 1.906 . S
Zn73 O91 1.953 . S
Zn74 O71 1.945 1_455 S
Zn74 O76 1.932 . S
Zn74 O83 1.977 . S
Zn74 O84 1.910 1_455 S
O75 Zn72 1.933 . S
O75 C86 1.226 . S
O76 Zn74 1.932 . S
O76 C86 1.307 . S
O77 Zn70 1.919 . S
O77 C88 1.253 . S
O78 Zn72 1.941 1_655 S
O78 C88 1.283 . S
O79 Zn72 1.965 1_655 S
O79 C87 1.303 . S
O80 Zn73 1.938 . S
O80 C87 1.247 . S
O81 Zn73 1.906 . S
O81 C89 1.304 . S
O82 Zn70 1.924 . S
O82 C90 1.311 . S
O83 Zn74 1.977 . S
O83 C89 1.272 1_455 S
O84 Zn74 1.910 1_655 S
O84 C90 1.231 . S
C85 O69 1.225 . S
C85 O91 1.298 . S
C86 O75 1.226 . S
C86 O76 1.307 . S
C87 O79 1.303 . S
C87 O80 1.247 . S
C88 O77 1.253 . S
C88 O78 1.283 . S
C89 O81 1.304 . S
C89 O83 1.272 1_655 S
C90 O82 1.311 . S
C90 O84 1.231 . S
O91 Zn73 1.953 . S
O91 C85 1.298 . S
O92 Zn93 1.953 1_554 S
O92 C108 1.225 . S
Zn93 O92 1.953 1_556 S
Zn93 O94 1.949 1_556 S
Zn93 O100 1.919 . S
Zn93 O105 1.924 1_556 S
O94 Zn93 1.949 1_554 S
O94 Zn95 1.923 . S
O94 Zn96 1.950 . S
O94 Zn97 1.945 . S
Zn95 O94 1.923 . S
Zn95 O98 1.933 . S
Zn95 O101 1.941 1_554 S
Zn95 O102 1.965 . S
Zn96 O94 1.950 . S
Zn96 O103 1.938 . S
Zn96 O104 1.906 . S
Zn96 O114 1.953 . S
Zn97 O94 1.945 . S
Zn97 O99 1.932 . S
Zn97 O106 1.977 . S
Zn97 O107 1.910 . S
O98 Zn95 1.933 . S
O98 C109 1.226 . S
O99 Zn97 1.932 . S
O99 C109 1.307 . S
O100 Zn93 1.919 . S
O100 C111 1.253 . S
O101 Zn95 1.941 1_556 S
O101 C111 1.283 . S
O102 Zn95 1.965 . S
O102 C110 1.303 . S
O103 Zn96 1.938 . S
O103 C110 1.247 . S
O104 Zn96 1.906 . S
O104 C112 1.304 . S
O105 Zn93 1.924 1_554 S
O105 C113 1.311 . S
O106 Zn97 1.977 . S
O106 C112 1.272 . S
O107 Zn97 1.910 . S
O107 C113 1.231 . S
C108 O92 1.225 . S
C108 O114 1.298 . S
C109 O98 1.226 . S
C109 O99 1.307 . S
C110 O102 1.303 . S
C110 O103 1.247 . S
C111 O100 1.253 . S
C111 O101 1.283 . S
C112 O104 1.304 . S
C112 O106 1.272 . S
C113 O105 1.311 . S
C113 O107 1.231 . S
O114 Zn96 1.953 . S
O114 C108 1.298 . S
O115 Zn116 1.953 1_554 S
O115 C131 1.225 . S
Zn116 O115 1.953 1_556 S
Zn116 O117 1.949 1_556 S
Zn116 O123 1.919 . S
Zn116 O128 1.924 1_556 S
O117 Zn116 1.949 1_554 S
O117 Zn118 1.923 . S
O117 Zn119 1.950 . S
O117 Zn120 1.945 . S
Zn118 O117 1.923 . S
Zn118 O121 1.933 . S
Zn118 O124 1.941 1_554 S
Zn118 O125 1.965 . S
Zn119 O117 1.950 . S
Zn119 O126 1.938 . S
Zn119 O127 1.906 . S
Zn119 O137 1.953 . S
Zn120 O117 1.945 . S
Zn120 O122 1.932 . S
Zn120 O129 1.977 . S
Zn120 O130 1.910 . S
O121 Zn118 1.933 . S
O121 C132 1.226 . S
O122 Zn120 1.932 . S
O122 C132 1.307 . S
O123 Zn116 1.919 . S
O123 C134 1.253 . S
O124 Zn118 1.941 1_556 S
O124 C134 1.283 . S
O125 Zn118 1.965 . S
O125 C133 1.303 . S
O126 Zn119 1.938 . S
O126 C133 1.247 . S
O127 Zn119 1.906 . S
O127 C135 1.304 . S
O128 Zn116 1.924 1_554 S
O128 C136 1.311 . S
O129 Zn120 1.977 . S
O129 C135 1.272 . S
O130 Zn120 1.910 . S
O130 C136 1.231 . S
C131 O115 1.225 . S
C131 O137 1.298 . S
C132 O121 1.226 . S
C132 O122 1.307 . S
C133 O125 1.303 . S
C133 O126 1.247 . S
C134 O123 1.253 . S
C134 O124 1.283 . S
C135 O127 1.304 . S
C135 O129 1.272 . S
C136 O128 1.311 . S
C136 O130 1.231 . S
O137 Zn119 1.953 . S
O137 C131 1.298 . S
O138 Zn139 1.953 . S
O138 C154 1.225 . S
Zn139 O138 1.953 . S
Zn139 O140 1.949 . S
Zn139 O146 1.919 . S
Zn139 O151 1.924 . S
O140 Zn139 1.949 . S
O140 Zn141 1.923 . S
O140 Zn142 1.950 . S
O140 Zn143 1.945 . S
Zn141 O140 1.923 . S
Zn141 O144 1.933 . S
Zn141 O147 1.941 . S
Zn141 O148 1.965 . S
Zn142 O140 1.950 . S
Zn142 O149 1.938 . S
Zn142 O150 1.906 . S
Zn142 O160 1.953 . S
Zn143 O140 1.945 . S
Zn143 O145 1.932 . S
Zn143 O152 1.977 . S
Zn143 O153 1.910 . S
O144 Zn141 1.933 . S
O144 C155 1.226 . S
O145 Zn143 1.932 . S
O145 C155 1.307 . S
O146 Zn139 1.919 . S
O146 C157 1.253 . S
O147 Zn141 1.941 . S
O147 C157 1.283 . S
O148 Zn141 1.965 . S
O148 C156 1.303 . S
O149 Zn142 1.938 . S
O149 C156 1.247 . S
O150 Zn142 1.906 . S
O150 C158 1.304 . S
O151 Zn139 1.924 . S
O151 C159 1.311 . S
O152 Zn143 1.977 . S
O152 C158 1.272 . S
O153 Zn143 1.910 . S
O153 C159 1.231 . S
C154 O138 1.225 . S
C154 O160 1.298 . S
C155 O144 1.226 . S
C155 O145 1.307 . S
C156 O148 1.303 . S
C156 O149 1.247 . S
C157 O146 1.253 . S
C157 O147 1.283 . S
C158 O150 1.304 . S
C158 O152 1.272 . S
C159 O151 1.311 . S
C159 O153 1.231 . S
O160 Zn142 1.953 . S
O160 C154 1.298 . S
O161 Zn162 1.953 . S
O161 C177 1.225 . S
Zn162 O161 1.953 . S
Zn162 O163 1.949 . S
Zn162 O169 1.919 . S
Zn162 O174 1.924 . S
O163 Zn162 1.949 . S
O163 Zn164 1.923 . S
O163 Zn165 1.950 . S
O163 Zn166 1.945 . S
Zn164 O163 1.923 . S
Zn164 O167 1.933 . S
Zn164 O170 1.941 . S
Zn164 O171 1.965 . S
Zn165 O163 1.950 . S
Zn165 O172 1.938 . S
Zn165 O173 1.906 . S
Zn165 O183 1.953 . S
Zn166 O163 1.945 . S
Zn166 O168 1.932 . S
Zn166 O175 1.977 . S
Zn166 O176 1.910 . S
O167 Zn164 1.933 . S
O167 C178 1.226 . S
O168 Zn166 1.932 . S
O168 C178 1.307 . S
O169 Zn162 1.919 . S
O169 C180 1.253 . S
O170 Zn164 1.941 . S
O170 C180 1.283 . S
O171 Zn164 1.965 . S
O171 C179 1.303 . S
O172 Zn165 1.938 . S
O172 C179 1.247 . S
O173 Zn165 1.906 . S
O173 C181 1.304 . S
O174 Zn162 1.924 . S
O174 C182 1.311 . S
O175 Zn166 1.977 . S
O175 C181 1.272 . S
O176 Zn166 1.910 . S
O176 C182 1.231 . S
C177 O161 1.225 . S
C177 O183 1.298 . S
C178 O167 1.226 . S
C178 O168 1.307 . S
C179 O171 1.303 . S
C179 O172 1.247 . S
C180 O169 1.253 . S
C180 O170 1.283 . S
C181 O173 1.304 . S
C181 O175 1.272 . S
C182 O174 1.311 . S
C182 O176 1.231 . S
O183 Zn165 1.953 . S
O183 C177 1.298 . S
H184 C190 0.930 1_556 S
H185 C194 0.930 . S
H186 C199 0.929 . S
H187 C197 0.931 1_556 S
H188 C192 0.929 . S
H189 C198 0.906 1_556 S
C190 H184 0.930 1_554 S
C190 C191 1.367 . S
C190 C198 1.378 . S
C191 C190 1.367 . S
C191 C199 1.433 . S
C192 H188 0.929 . S
C192 C194 1.378 . S
C192 C196 1.350 . S
C193 C196 1.463 . S
C193 C198 1.373 . S
C193 N201 1.427 . S
C194 H185 0.930 . S
C194 C192 1.378 . S
C194 C195 1.367 . S
C195 C194 1.367 . S
C195 C197 1.432 . S
C196 C192 1.350 . S
C196 C193 1.463 . S
C196 N200 1.443 . S
C197 H187 0.931 1_554 S
C197 C195 1.432 . S
C197 N200 1.383 . S
C198 H189 0.906 1_554 S
C198 C190 1.378 . S
C198 C193 1.373 . S
C199 H186 0.929 . S
C199 C191 1.433 . S
C199 N201 1.384 . S
N200 C196 1.443 . S
N200 C197 1.383 . S
N201 C193 1.427 . S
N201 C199 1.384 . S
H202 C208 0.930 . S
H203 C212 0.930 1_556 S
H204 C217 0.929 1_556 S
H205 C215 0.929 . S
H206 C210 0.929 1_556 S
H207 C216 0.929 . S
C208 H202 0.930 . S
C208 C209 1.367 . S
C208 C216 1.378 . S
C209 C208 1.367 . S
C209 C217 1.433 . S
C210 H206 0.929 1_554 S
C210 C212 1.378 . S
C210 C214 1.350 . S
C211 C214 1.463 . S
C211 C216 1.350 . S
C211 N219 1.427 . S
C212 H203 0.930 1_554 S
C212 C210 1.378 . S
C212 C213 1.367 . S
C213 C212 1.367 . S
C213 C215 1.433 . S
C214 C210 1.350 . S
C214 C211 1.463 . S
C214 N218 1.427 . S
C215 H205 0.929 . S
C215 C213 1.433 . S
C215 N218 1.384 . S
C216 H207 0.929 . S
C216 C208 1.378 . S
C216 C211 1.350 . S
C217 H204 0.929 1_554 S
C217 C209 1.433 . S
C217 N219 1.384 . S
N218 C214 1.427 . S
N218 C215 1.384 . S
N219 C211 1.427 . S
N219 C217 1.384 . S
H220 C226 0.930 . S
H221 C230 0.930 . S
H222 C235 0.929 . S
H223 C233 0.929 . S
H224 C228 0.929 . S
H225 C234 0.929 . S
C226 H220 0.930 . S
C226 C227 1.367 . S
C226 C234 1.378 . S
C227 C226 1.367 . S
C227 C235 1.433 . S
C228 H224 0.929 . S
C228 C230 1.378 . S
C228 C232 1.350 . S
C229 C232 1.463 . S
C229 C234 1.350 . S
C229 N237 1.427 . S
C230 H221 0.930 . S
C230 C228 1.378 . S
C230 C231 1.367 . S
C231 C230 1.367 . S
C231 C233 1.433 . S
C232 C228 1.350 . S
C232 C229 1.463 . S
C232 N236 1.427 . S
C233 H223 0.929 . S
C233 C231 1.433 . S
C233 N236 1.384 . S
C234 H225 0.929 . S
C234 C226 1.378 . S
C234 C229 1.350 . S
C235 H222 0.929 . S
C235 C227 1.433 . S
C235 N237 1.384 . S
N236 C232 1.427 . S
N236 C233 1.384 . S
N237 C229 1.427 . S
N237 C235 1.384 . S
H238 C244 0.930 . S
H239 C248 0.930 . S
H240 C253 0.929 . S
H241 C251 0.929 . S
H242 C246 0.929 . S
H243 C252 0.929 . S
C244 H238 0.930 . S
C244 C245 1.367 . S
C244 C252 1.378 . S
C245 C244 1.367 . S
C245 C253 1.433 . S
C246 H242 0.929 . S
C246 C248 1.378 . S
C246 C250 1.350 . S
C247 C250 1.463 . S
C247 C252 1.350 . S
C247 N255 1.427 . S
C248 H239 0.930 . S
C248 C246 1.378 . S
C248 C249 1.367 . S
C249 C248 1.367 . S
C249 C251 1.433 . S
C250 C246 1.350 . S
C250 C247 1.463 . S
C250 N254 1.427 . S
C251 H241 0.929 . S
C251 C249 1.433 . S
C251 N254 1.384 . S
C252 H243 0.929 . S
C252 C244 1.378 . S
C252 C247 1.350 . S
C253 H240 0.929 . S
C253 C245 1.433 . S
C253 N255 1.384 . S
N254 C250 1.427 . S
N254 C251 1.384 . S
N255 C247 1.427 . S
N255 C253 1.384 . S
H256 C262 0.930 1_556 S
H257 C266 0.930 . S
H258 C271 0.929 . S
H259 C269 0.929 1_556 S
H260 C264 0.929 . S
H261 C270 0.929 1_456 S
C262 H256 0.930 1_554 S
C262 C263 1.367 . S
C262 C270 1.378 . S
C263 C262 1.367 . S
C263 C271 1.433 . S
C264 H260 0.929 . S
C264 C266 1.378 . S
C264 C268 1.350 . S
C265 C268 1.463 . S
C265 C270 1.350 1_455 S
C265 N273 1.427 1_455 S
C266 H257 0.930 . S
C266 C264 1.378 . S
C266 C267 1.367 . S
C267 C266 1.367 . S
C267 C269 1.433 . S
C268 C264 1.350 . S
C268 C265 1.463 . S
C268 N272 1.427 . S
C269 H259 0.929 1_554 S
C269 C267 1.433 . S
C269 N272 1.384 . S
C270 H261 0.929 1_654 S
C270 C262 1.378 . S
C270 C265 1.350 1_655 S
C271 H258 0.929 . S
C271 C263 1.433 . S
C271 N273 1.384 . S
N272 C268 1.427 . S
N272 C269 1.384 . S
N273 C265 1.427 1_655 S
N273 C271 1.384 . S
H274 C280 0.930 . S
H275 C284 0.930 . S
H276 C289 0.929 . S
H277 C287 0.929 . S
H278 C282 0.929 . S
H279 C288 0.929 . S
C280 H274 0.930 . S
C280 C281 1.367 . S
C280 C288 1.378 . S
C281 C280 1.367 . S
C281 C289 1.433 . S
C282 H278 0.929 . S
C282 C284 1.378 . S
C282 C286 1.350 . S
C283 C286 1.463 . S
C283 C288 1.350 1_655 S
C283 N291 1.427 1_655 S
C284 H275 0.930 . S
C284 C282 1.378 . S
C284 C285 1.367 . S
C285 C284 1.367 . S
C285 C287 1.433 . S
C286 C282 1.350 . S
C286 C283 1.463 . S
C286 N290 1.427 . S
C287 H277 0.929 . S
C287 C285 1.433 . S
C287 N290 1.384 . S
C288 H279 0.929 . S
C288 C280 1.378 . S
C288 C283 1.350 1_455 S
C289 H276 0.929 . S
C289 C281 1.433 . S
C289 N291 1.384 . S
N290 C286 1.427 . S
N290 C287 1.384 . S
N291 C283 1.427 1_455 S
N291 C289 1.384 . S
H292 C298 0.930 . S
H293 C302 0.930 . S
H294 C307 0.929 . S
H295 C305 0.929 . S
H296 C300 0.929 . S
H297 C306 0.929 . S
C298 H292 0.930 . S
C298 C299 1.367 . S
C298 C306 1.378 . S
C299 C298 1.367 . S
C299 C307 1.433 . S
C300 H296 0.929 . S
C300 C302 1.378 . S
C300 C304 1.350 1_655 S
C301 C304 1.463 . S
C301 C306 1.350 . S
C301 N309 1.427 . S
C302 H293 0.930 . S
C302 C300 1.378 . S
C302 C303 1.367 . S
C303 C302 1.367 . S
C303 C305 1.433 . S
C304 C300 1.350 1_455 S
C304 C301 1.463 . S
C304 N308 1.427 1_455 S
C305 H295 0.929 . S
C305 C303 1.433 . S
C305 N308 1.384 . S
C306 H297 0.929 . S
C306 C298 1.378 . S
C306 C301 1.350 . S
C307 H294 0.929 . S
C307 C299 1.433 . S
C307 N309 1.384 . S
N308 C304 1.427 1_655 S
N308 C305 1.384 . S
N309 C301 1.427 . S
N309 C307 1.384 . S
H310 C316 0.930 . S
H311 C320 0.930 . S
H312 C325 0.929 . S
H313 C323 0.929 . S
H314 C318 0.928 1_655 S
H315 C324 0.929 . S
C316 H310 0.930 . S
C316 C317 1.367 . S
C316 C324 1.378 . S
C317 C316 1.367 . S
C317 C325 1.433 . S
C318 H314 0.928 1_455 S
C318 C320 1.378 . S
C318 C322 1.350 1_455 S
C319 C322 1.463 . S
C319 C324 1.350 . S
C319 N327 1.427 . S
C320 H311 0.930 . S
C320 C318 1.378 . S
C320 C321 1.367 . S
C321 C320 1.367 . S
C321 C323 1.433 . S
C322 C318 1.350 1_655 S
C322 C319 1.463 . S
C322 N326 1.427 1_655 S
C323 H313 0.929 . S
C323 C321 1.433 . S
C323 N326 1.384 . S
C324 H315 0.929 . S
C324 C316 1.378 . S
C324 C319 1.350 . S
C325 H312 0.929 . S
C325 C317 1.433 . S
C325 N327 1.384 . S
N326 C322 1.427 1_455 S
N326 C323 1.384 . S
N327 C319 1.427 . S
N327 C325 1.384 . S
H328 C334 0.930 . S
H329 C338 0.930 1_556 S
H330 C343 0.929 1_556 S
H331 C341 0.929 . S
H332 C336 0.929 1_556 S
H333 C342 0.929 . S
C334 H328 0.930 . S
C334 C335 1.367 . S
C334 C342 1.378 . S
C335 C334 1.367 . S
C335 C343 1.433 . S
C336 H332 0.929 1_554 S
C336 C338 1.378 . S
C336 C340 1.350 . S
C337 C340 1.463 1_655 S
C337 C342 1.350 . S
C337 N345 1.427 . S
C338 H329 0.930 1_554 S
C338 C336 1.378 . S
C338 C339 1.367 . S
C339 C338 1.367 . S
C339 C341 1.433 . S
C340 C336 1.350 . S
C340 C337 1.463 1_455 S
C340 N344 1.427 . S
C341 H331 0.929 . S
C341 C339 1.433 . S
C341 N344 1.384 . S
C342 H333 0.929 . S
C342 C334 1.378 . S
C342 C337 1.350 . S
C343 H330 0.929 1_554 S
C343 C335 1.433 . S
C343 N345 1.384 . S
N344 C340 1.427 . S
N344 C341 1.384 . S
N345 C337 1.427 . S
N345 C343 1.384 . S
H346 C352 0.930 1_455 S
H347 C356 0.930 1_655 S
H348 C361 0.929 . S
H349 C359 0.929 . S
H350 C354 0.929 . S
H351 C360 0.929 . S
C352 H346 0.930 1_655 S
C352 C353 1.367 . S
C352 C360 1.378 1_655 S
C353 C352 1.367 . S
C353 C361 1.433 . S
C354 H350 0.929 . S
C354 C356 1.378 1_655 S
C354 C358 1.350 1_655 S
C355 C358 1.463 1_655 S
C355 C360 1.350 1_655 S
C355 N363 1.427 . S
C356 H347 0.930 1_455 S
C356 C354 1.378 1_455 S
C356 C357 1.367 . S
C357 C356 1.367 . S
C357 C359 1.433 . S
C358 C354 1.350 1_455 S
C358 C355 1.463 1_455 S
C358 N362 1.427 . S
C359 H349 0.929 . S
C359 C357 1.433 . S
C359 N362 1.384 . S
C360 H351 0.929 . S
C360 C352 1.378 1_455 S
C360 C355 1.350 1_455 S
C361 H348 0.929 . S
C361 C353 1.433 . S
C361 N363 1.384 . S
N362 C358 1.427 . S
N362 C359 1.384 . S
N363 C355 1.427 . S
N363 C361 1.384 . S
H364 C370 0.930 . S
H365 C374 0.930 1_556 S
H366 C379 0.929 1_556 S
H367 C377 0.929 . S
H368 C372 0.929 1_556 S
H369 C378 0.929 . S
C370 H364 0.930 . S
C370 C371 1.367 . S
C370 C378 1.378 . S
C371 C370 1.367 . S
C371 C379 1.433 . S
C372 H368 0.929 1_554 S
C372 C374 1.378 . S
C372 C376 1.350 . S
C373 C376 1.463 1_565 S
C373 C378 1.350 . S
C373 N381 1.427 . S
C374 H365 0.930 1_554 S
C374 C372 1.378 . S
C374 C375 1.367 . S
C375 C374 1.367 . S
C375 C377 1.433 . S
C376 C372 1.350 . S
C376 C373 1.463 1_545 S
C376 N380 1.427 . S
C377 H367 0.929 . S
C377 C375 1.433 . S
C377 N380 1.384 . S
C378 H369 0.929 . S
C378 C370 1.378 . S
C378 C373 1.350 . S
C379 H366 0.929 1_554 S
C379 C371 1.433 . S
C379 N381 1.384 . S
N380 C376 1.427 . S
N380 C377 1.384 . S
N381 C373 1.427 . S
N381 C379 1.384 . S
H382 C388 0.930 . S
H383 C392 0.930 . S
H384 C397 0.929 . S
H385 C395 0.929 . S
H386 C390 0.929 . S
H387 C396 0.929 . S
C388 H382 0.930 . S
C388 C389 1.367 . S
C388 C396 1.378 . S
C389 C388 1.367 . S
C389 C397 1.433 . S
C390 H386 0.929 . S
C390 C392 1.378 . S
C390 C394 1.350 . S
C391 C394 1.463 1_545 S
C391 C396 1.350 . S
C391 N399 1.427 . S
C392 H383 0.930 . S
C392 C390 1.378 . S
C392 C393 1.367 . S
C393 C392 1.367 . S
C393 C395 1.433 . S
C394 C390 1.350 . S
C394 C391 1.463 1_565 S
C394 N398 1.427 . S
C395 H385 0.929 . S
C395 C393 1.433 . S
C395 N398 1.384 . S
C396 H387 0.929 . S
C396 C388 1.378 . S
C396 C391 1.350 . S
C397 H384 0.929 . S
C397 C389 1.433 . S
C397 N399 1.384 . S
N398 C394 1.427 . S
N398 C395 1.384 . S
N399 C391 1.427 . S
N399 C397 1.384 . S
H400 C406 0.930 . S
H401 C410 0.930 . S
H402 C415 0.929 . S
H403 C413 0.929 . S
H404 C408 0.929 . S
H405 C414 0.929 . S
C406 H400 0.930 . S
C406 C407 1.367 . S
C406 C414 1.378 . S
C407 C406 1.367 . S
C407 C415 1.433 . S
C408 H404 0.929 . S
C408 C410 1.378 . S
C408 C412 1.350 . S
C409 C412 1.463 . S
C409 C414 1.350 . S
C409 N417 1.427 . S
C410 H401 0.930 . S
C410 C408 1.378 . S
C410 C411 1.367 . S
C411 C410 1.367 . S
C411 C413 1.433 . S
C412 C408 1.350 . S
C412 C409 1.463 . S
C412 N416 1.427 . S
C413 H403 0.929 . S
C413 C411 1.433 . S
C413 N416 1.384 . S
C414 H405 0.929 . S
C414 C406 1.378 . S
C414 C409 1.350 . S
C415 H402 0.929 . S
C415 C407 1.433 . S
C415 N417 1.384 . S
N416 C412 1.427 . S
N416 C413 1.384 . S
N417 C409 1.427 . S
N417 C415 1.384 . S
H418 C424 0.945 . S
H419 C428 0.930 . S
H420 C433 0.929 . S
H421 C431 0.939 . S
H422 C426 0.929 . S
H423 C432 0.929 . S
C424 H418 0.945 . S
C424 C425 1.367 . S
C424 C432 1.378 . S
C425 C424 1.367 . S
C425 C433 1.433 . S
C426 H422 0.929 . S
C426 C428 1.378 . S
C426 C430 1.350 . S
C427 C430 1.463 . S
C427 C432 1.350 . S
C427 N435 1.427 . S
C428 H419 0.930 . S
C428 C426 1.378 . S
C428 C429 1.367 . S
C429 C428 1.367 . S
C429 C431 1.433 . S
C430 C426 1.350 . S
C430 C427 1.463 . S
C430 N434 1.427 . S
C431 H421 0.939 . S
C431 C429 1.433 . S
C431 N434 1.384 . S
C432 H423 0.929 . S
C432 C424 1.378 . S
C432 C427 1.350 . S
C433 H420 0.929 . S
C433 C425 1.433 . S
C433 N435 1.384 . S
N434 C430 1.427 . S
N434 C431 1.384 . S
N435 C427 1.427 . S
N435 C433 1.384 . S
H436 C442 0.930 . S
H437 C446 0.930 . S
H438 C451 0.929 . S
H439 C449 0.929 . S
H440 C444 0.929 . S
H441 C450 0.929 . S
C442 H436 0.930 . S
C442 C443 1.367 . S
C442 C450 1.378 . S
C443 C442 1.367 . S
C443 C451 1.433 . S
C444 H440 0.929 . S
C444 C446 1.378 . S
C444 C448 1.350 . S
C445 C448 1.463 . S
C445 C450 1.350 . S
C445 N453 1.427 . S
C446 H437 0.930 . S
C446 C444 1.378 . S
C446 C447 1.367 . S
C447 C446 1.367 . S
C447 C449 1.433 . S
C448 C444 1.350 . S
C448 C445 1.463 . S
C448 N452 1.427 . S
C449 H439 0.929 . S
C449 C447 1.433 . S
C449 N452 1.384 . S
C450 H441 0.929 . S
C450 C442 1.378 . S
C450 C445 1.350 . S
C451 H438 0.929 . S
C451 C443 1.433 . S
C451 N453 1.384 . S
N452 C448 1.427 . S
N452 C449 1.384 . S
N453 C445 1.427 . S
N453 C451 1.384 . S
H454 C460 0.930 . S
H455 C464 0.930 . S
H456 C469 0.929 . S
H457 C467 0.929 . S
H458 C462 0.929 . S
H459 C468 0.929 . S
C460 H454 0.930 . S
C460 C461 1.367 . S
C460 C468 1.378 . S
C461 C460 1.367 . S
C461 C469 1.433 . S
C462 H458 0.929 . S
C462 C464 1.378 . S
C462 C466 1.350 . S
C463 C466 1.463 . S
C463 C468 1.350 . S
C463 N471 1.427 . S
C464 H455 0.930 . S
C464 C462 1.378 . S
C464 C465 1.367 . S
C465 C464 1.367 . S
C465 C467 1.433 . S
C466 C462 1.350 . S
C466 C463 1.463 . S
C466 N470 1.427 . S
C467 H457 0.929 . S
C467 C465 1.433 . S
C467 N470 1.384 . S
C468 H459 0.929 . S
C468 C460 1.378 . S
C468 C463 1.350 . S
C469 H456 0.929 . S
C469 C461 1.433 . S
C469 N471 1.384 . S
N470 C466 1.427 . S
N470 C467 1.384 . S
N471 C463 1.427 . S
N471 C469 1.384 . S
H472 C478 0.930 . S
H473 C482 0.930 . S
H474 C487 0.929 . S
H475 C485 0.929 . S
H476 C480 0.929 . S
H477 C486 0.929 . S
C478 H472 0.930 . S
C478 C479 1.367 1_655 S
C478 C486 1.378 . S
C479 C478 1.367 1_455 S
C479 C487 1.433 . S
C480 H476 0.929 . S
C480 C482 1.378 . S
C480 C484 1.347 1_455 S
C481 C484 1.462 1_455 S
C481 C486 1.347 1_455 S
C481 N489 1.430 . S
C482 H473 0.930 . S
C482 C480 1.378 . S
C482 C483 1.367 1_455 S
C483 C482 1.367 1_655 S
C483 C485 1.433 . S
C484 C480 1.347 1_655 S
C484 C481 1.462 1_655 S
C484 N488 1.430 . S
C485 H475 0.929 . S
C485 C483 1.433 . S
C485 N488 1.384 . S
C486 H477 0.929 . S
C486 C478 1.378 . S
C486 C481 1.347 1_655 S
C487 H474 0.929 . S
C487 C479 1.433 . S
C487 N489 1.384 . S
N488 C484 1.430 . S
N488 C485 1.384 . S
N489 C481 1.430 . S
N489 C487 1.384 . S
H490 C496 0.930 . S
H491 C500 0.930 . S
H492 C505 0.929 . S
H493 C503 0.929 . S
H494 C498 0.929 . S
H495 C504 0.929 . S
C496 H490 0.930 . S
C496 C497 1.367 1_455 S
C496 C504 1.378 . S
C497 C496 1.367 1_655 S
C497 C505 1.433 . S
C498 H494 0.929 . S
C498 C500 1.378 . S
C498 C502 1.343 1_655 S
C499 C502 1.462 1_655 S
C499 C504 1.343 1_655 S
C499 N507 1.435 . S
C500 H491 0.930 . S
C500 C498 1.378 . S
C500 C501 1.367 1_655 S
C501 C500 1.367 1_455 S
C501 C503 1.433 . S
C502 C498 1.343 1_455 S
C502 C499 1.462 1_455 S
C502 N506 1.435 . S
C503 H493 0.929 . S
C503 C501 1.433 . S
C503 N506 1.384 . S
C504 H495 0.929 . S
C504 C496 1.378 . S
C504 C499 1.343 1_455 S
C505 H492 0.929 . S
C505 C497 1.433 . S
C505 N507 1.384 . S
N506 C502 1.435 . S
N506 C503 1.384 . S
N507 C499 1.435 . S
N507 C505 1.384 . S
H508 C514 0.930 . S
H509 C518 0.930 . S
H510 C523 0.929 . S
H511 C521 0.929 . S
H512 C516 0.929 . S
H513 C522 0.929 . S
C514 H508 0.930 . S
C514 C515 1.367 1_455 S
C514 C522 1.378 . S
C515 C514 1.367 1_655 S
C515 C523 1.433 . S
C516 H512 0.929 . S
C516 C518 1.378 . S
C516 C520 1.343 1_655 S
C517 C520 1.462 1_655 S
C517 C522 1.343 1_655 S
C517 N525 1.435 . S
C518 H509 0.930 . S
C518 C516 1.378 . S
C518 C519 1.367 1_655 S
C519 C518 1.367 1_455 S
C519 C521 1.433 . S
C520 C516 1.343 1_455 S
C520 C517 1.462 1_455 S
C520 N524 1.435 . S
C521 H511 0.929 . S
C521 C519 1.433 . S
C521 N524 1.384 . S
C522 H513 0.929 . S
C522 C514 1.378 . S
C522 C517 1.343 1_455 S
C523 H510 0.929 . S
C523 C515 1.433 . S
C523 N525 1.384 . S
N524 C520 1.435 . S
N524 C521 1.384 . S
N525 C517 1.435 . S
N525 C523 1.384 . S
H526 C532 0.930 . S
H527 C536 0.930 . S
H528 C541 0.929 . S
H529 C539 0.929 . S
H530 C534 0.929 . S
H531 C540 0.929 . S
C532 H526 0.930 . S
C532 C533 1.367 . S
C532 C540 1.378 . S
C533 C532 1.367 . S
C533 C541 1.433 1_655 S
C534 H530 0.929 . S
C534 C536 1.378 . S
C534 C538 1.350 . S
C535 C538 1.463 1_655 S
C535 C540 1.350 . S
C535 N543 1.427 1_655 S
C536 H527 0.930 . S
C536 C534 1.378 . S
C536 C537 1.367 . S
C537 C536 1.367 . S
C537 C539 1.433 1_455 S
C538 C534 1.350 . S
C538 C535 1.463 1_455 S
C538 N542 1.427 1_455 S
C539 H529 0.929 . S
C539 C537 1.433 1_655 S
C539 N542 1.384 . S
C540 H531 0.929 . S
C540 C532 1.378 . S
C540 C535 1.350 . S
C541 H528 0.929 . S
C541 C533 1.433 1_455 S
C541 N543 1.384 . S
N542 C538 1.427 1_655 S
N542 C539 1.384 . S
N543 C535 1.427 1_455 S
N543 C541 1.384 . S
H544 C550 0.930 . S
H545 C554 0.930 . S
H546 C559 0.929 . S
H547 C557 0.929 . S
H548 C552 0.929 . S
H549 C558 0.929 . S
C550 H544 0.930 . S
C550 C551 1.367 . S
C550 C558 1.378 . S
C551 C550 1.367 . S
C551 C559 1.433 . S
C552 H548 0.929 . S
C552 C554 1.378 . S
C552 C556 1.350 . S
C553 C556 1.463 . S
C553 C558 1.350 . S
C553 N561 1.427 . S
C554 H545 0.930 . S
C554 C552 1.378 . S
C554 C555 1.367 . S
C555 C554 1.367 . S
C555 C557 1.433 . S
C556 C552 1.350 . S
C556 C553 1.463 . S
C556 N560 1.427 . S
C557 H547 0.929 . S
C557 C555 1.433 . S
C557 N560 1.384 . S
C558 H549 0.929 . S
C558 C550 1.378 . S
C558 C553 1.350 . S
C559 H546 0.929 . S
C559 C551 1.433 . S
C559 N561 1.384 . S
N560 C556 1.427 . S
N560 C557 1.384 . S
N561 C553 1.427 . S
N561 C559 1.384 . S
H562 C568 0.930 . S
H563 C572 0.930 . S
H564 C577 0.929 . S
H565 C575 0.929 . S
H566 C570 0.929 . S
H567 C576 0.929 . S
C568 H562 0.930 . S
C568 C569 1.367 . S
C568 C576 1.378 . S
C569 C568 1.367 . S
C569 C577 1.433 . S
C570 H566 0.929 . S
C570 C572 1.378 . S
C570 C574 1.350 . S
C571 C574 1.463 . S
C571 C576 1.350 . S
C571 N579 1.427 . S
C572 H563 0.930 . S
C572 C570 1.378 . S
C572 C573 1.367 . S
C573 C572 1.367 . S
C573 C575 1.433 . S
C574 C570 1.350 . S
C574 C571 1.463 . S
C574 N578 1.427 . S
C575 H565 0.929 . S
C575 C573 1.433 . S
C575 N578 1.384 . S
C576 H567 0.929 . S
C576 C568 1.378 . S
C576 C571 1.350 . S
C577 H564 0.929 . S
C577 C569 1.433 . S
C577 N579 1.384 . S
N578 C574 1.427 . S
N578 C575 1.384 . S
N579 C571 1.427 . S
N579 C577 1.384 . S
H580 C586 0.930 . S
H581 C590 0.930 . S
H582 C595 0.929 . S
H583 C593 0.929 . S
H584 C588 0.929 . S
H585 C594 0.929 . S
C586 H580 0.930 . S
C586 C587 1.367 . S
C586 C594 1.378 . S
C587 C586 1.367 . S
C587 C595 1.433 . S
C588 H584 0.929 . S
C588 C590 1.378 . S
C588 C592 1.350 . S
C589 C592 1.463 . S
C589 C594 1.350 . S
C589 N597 1.427 . S
C590 H581 0.930 . S
C590 C588 1.378 . S
C590 C591 1.367 . S
C591 C590 1.367 . S
C591 C593 1.433 . S
C592 C588 1.350 . S
C592 C589 1.463 . S
C592 N596 1.427 . S
C593 H583 0.929 . S
C593 C591 1.433 . S
C593 N596 1.384 . S
C594 H585 0.929 . S
C594 C586 1.378 . S
C594 C589 1.350 . S
C595 H582 0.929 . S
C595 C587 1.433 . S
C595 N597 1.384 . S
N596 C592 1.427 . S
N596 C593 1.384 . S
N597 C589 1.427 . S
N597 C595 1.384 . S
H598 C604 0.930 . S
H599 C608 0.930 . S
H600 C613 0.929 . S
H601 C611 0.929 . S
H602 C606 0.929 . S
H603 C612 0.929 . S
C604 H598 0.930 . S
C604 C605 1.367 . S
C604 C612 1.378 . S
C605 C604 1.367 . S
C605 C613 1.433 . S
C606 H602 0.929 . S
C606 C608 1.378 . S
C606 C610 1.350 . S
C607 C610 1.463 . S
C607 C612 1.350 . S
C607 N615 1.427 . S
C608 H599 0.930 . S
C608 C606 1.378 . S
C608 C609 1.367 . S
C609 C608 1.367 . S
C609 C611 1.433 . S
C610 C606 1.350 . S
C610 C607 1.463 . S
C610 N614 1.427 . S
C611 H601 0.929 . S
C611 C609 1.433 . S
C611 N614 1.384 . S
C612 H603 0.929 . S
C612 C604 1.378 . S
C612 C607 1.350 . S
C613 H600 0.929 . S
C613 C605 1.433 . S
C613 N615 1.384 . S
N614 C610 1.427 . S
N614 C611 1.384 . S
N615 C607 1.427 . S
N615 C613 1.384 . S
C191 C16 1.305 . S
C195 C17 1.307 . S
C209 C40 1.305 . S
C213 C39 1.302 . S
C227 C63 1.304 . S
C231 C62 1.301 . S
C245 C85 1.308 . S
C249 C86 1.310 . S
C263 C108 1.305 . S
C267 C109 1.308 . S
C281 C131 1.301 . S
C285 C132 1.304 . S
C299 C155 1.305 . S
C303 C154 1.302 . S
C317 C178 1.308 . S
C321 C177 1.305 . S
C335 C44 1.513 . S
C339 C21 1.509 . S
C353 C90 1.503 . S
C357 C67 1.506 . S
C371 C113 1.513 . S
C375 C136 1.509 . S
C389 C159 1.512 . S
C393 C182 1.508 . S
C407 C18 1.468 . S
C411 C133 1.472 . S
C425 C110 1.473 . S
C429 C41 1.468 . S
C443 C64 1.475 . S
C447 C179 1.467 . S
C461 C87 1.467 . S
C465 C156 1.475 . S
C479 C20 1.447 . S
C483 C89 1.451 . S
C497 C43 1.445 . S
C501 C66 1.451 . S
C515 C42 1.443 . S
C519 C65 1.444 . S
C533 C88 1.436 . S
C537 C19 1.434 . S
C551 C112 1.447 . S
C555 C181 1.441 . S
C569 C135 1.447 . S
C573 C158 1.451 . S
C587 C134 1.440 . S
C591 C157 1.442 . S
C605 C180 1.441 . S
C609 C111 1.443 . S
