# Generated by pormake.
# Topology vby, (6)-cn, num edge types: 1
# Building blocks:
#     Node 0, Type 0, BuildingBlock: KUMBOL_clean_sbu_1, # of connection points: 6
#     Node 1, Type 0, BuildingBlock: KUMBOL_clean_sbu_1, # of connection points: 6
#     Node 2, Type 0, BuildingBlock: KUMBOL_clean_sbu_1, # of connection points: 6
#     Node 3, Type 0, BuildingBlock: KUMBOL_clean_sbu_1, # of connection points: 6
#     Node 4, Type 0, BuildingBlock: KUMBOL_clean_sbu_1, # of connection points: 6
#     Node 5, Type 0, BuildingBlock: KUMBOL_clean_sbu_1, # of connection points: 6
#     Node 6, Type 0, BuildingBlock: KUMBOL_clean_sbu_1, # of connection points: 6
#     Node 7, Type 0, BuildingBlock: KUMBOL_clean_sbu_1, # of connection points: 6
#     Edge 8, Type (0, 0), BuildingBlock: XIVTED_clean_linker_0, # of connection points: 2
#     Edge 9, Type (0, 0), BuildingBlock: XIVTED_clean_linker_0, # of connection points: 2
#     Edge 10, Type (0, 0), BuildingBlock: XIVTED_clean_linker_0, # of connection points: 2
#     Edge 11, Type (0, 0), BuildingBlock: XIVTED_clean_linker_0, # of connection points: 2
#     Edge 12, Type (0, 0), BuildingBlock: XIVTED_clean_linker_0, # of connection points: 2
#     Edge 13, Type (0, 0), BuildingBlock: XIVTED_clean_linker_0, # of connection points: 2
#     Edge 14, Type (0, 0), BuildingBlock: XIVTED_clean_linker_0, # of connection points: 2
#     Edge 15, Type (0, 0), BuildingBlock: XIVTED_clean_linker_0, # of connection points: 2
#     Edge 16, Type (0, 0), BuildingBlock: XIVTED_clean_linker_0, # of connection points: 2
#     Edge 17, Type (0, 0), BuildingBlock: XIVTED_clean_linker_0, # of connection points: 2
#     Edge 18, Type (0, 0), BuildingBlock: XIVTED_clean_linker_0, # of connection points: 2
#     Edge 19, Type (0, 0), BuildingBlock: XIVTED_clean_linker_0, # of connection points: 2
#     Edge 20, Type (0, 0), BuildingBlock: XIVTED_clean_linker_0, # of connection points: 2
#     Edge 21, Type (0, 0), BuildingBlock: XIVTED_clean_linker_0, # of connection points: 2
#     Edge 22, Type (0, 0), BuildingBlock: XIVTED_clean_linker_0, # of connection points: 2
#     Edge 23, Type (0, 0), BuildingBlock: XIVTED_clean_linker_0, # of connection points: 2
#     Edge 24, Type (0, 0), BuildingBlock: XIVTED_clean_linker_0, # of connection points: 2
#     Edge 25, Type (0, 0), BuildingBlock: XIVTED_clean_linker_0, # of connection points: 2
#     Edge 26, Type (0, 0), BuildingBlock: XIVTED_clean_linker_0, # of connection points: 2
#     Edge 27, Type (0, 0), BuildingBlock: XIVTED_clean_linker_0, # of connection points: 2
#     Edge 28, Type (0, 0), BuildingBlock: XIVTED_clean_linker_0, # of connection points: 2
#     Edge 29, Type (0, 0), BuildingBlock: XIVTED_clean_linker_0, # of connection points: 2
#     Edge 30, Type (0, 0), BuildingBlock: XIVTED_clean_linker_0, # of connection points: 2
#     Edge 31, Type (0, 0), BuildingBlock: XIVTED_clean_linker_0, # of connection points: 2
# Relax obj value: 0.083
# Max RMSD: 0.155
# Mean RMSD: 0.155
data_MOF--net-vby--node1-KUMBOL_clean_sbu_1--edge1-XIVTED_clean_linker_0
_symmetry_space_group_name_H-M    P1
_symmetry_Int_Tables_number       1
_symmetry_cell_setting            triclinic
loop_
_symmetry_equiv_pos_as_xyz
'x, y, z'
_cell_length_a     15.226845
_cell_length_b     98.823811
_cell_length_c     29.850134
_cell_angle_alpha  113.80619
_cell_angle_beta   89.946576
_cell_angle_gamma 89.885337
loop_
_atom_site_label
_atom_site_type_symbol
_atom_site_fract_x
_atom_site_fract_y
_atom_site_fract_z
_atom_type_partial_charge
C0 C 0.26334 0.42028 0.09829 0.0
C1 C 0.35587 0.4275 0.04494 0.0
C2 C 0.27929 0.42074 0.05278 0.0
C3 C 0.41758 0.43342 0.08268 0.0
C4 C 0.32459 0.42664 0.13659 0.0
C5 C 0.40215 0.43295 0.12826 0.0
N6 N 0.18621 0.41452 0.10609 0.0
C7 C 0.16344 0.41628 0.15249 0.0
C8 C 0.3046 0.42709 0.18289 0.0
C9 C 0.22315 0.42208 0.19101 0.0
Gd10 Gd 0.09613 0.36127 0.98824 0.0
Gd11 Gd 0.09071 0.40636 0.03829 0.0
N12 N 0.21942 0.41477 0.01629 0.0
C13 C 0.3676 0.42832 -0.00049 0.0
C14 C 0.22878 0.41596 0.97249 0.0
C15 C 0.3035 0.42262 0.96327 0.0
H16 H 0.17846 0.41169 0.94479 0.0
H17 H 0.31147 0.42339 0.92835 0.0
H18 H 1.01187 0.35648 0.08436 0.0
H19 H 0.09818 0.41392 0.16117 0.0
H20 H 0.88262 0.34454 0.10308 0.0
H21 H 0.42545 0.43348 0.99225 0.0
H22 H 0.47693 0.4386 0.07725 0.0
H23 H 0.10544 0.34803 0.86487 0.0
H24 H 0.34989 0.4319 0.21318 0.0
H25 H 0.20506 0.42316 0.22739 0.0
H26 H 0.73314 0.3219 0.94898 0.0
H27 H 0.44967 0.43786 0.15731 0.0
H28 H 0.86769 0.32464 0.80781 0.0
H29 H 1.00938 0.33469 0.79459 0.0
N30 N 1.01366 0.34774 0.91795 0.0
C31 C 0.94016 0.34116 0.92566 0.0
C32 C 0.04112 0.34476 0.87141 0.0
C33 C 0.9084 0.33099 0.83896 0.0
C34 C 0.98798 0.33673 0.83135 0.0
C35 C 0.88476 0.3328 0.88638 0.0
H36 H 0.76554 0.31982 0.86571 0.0
N37 N 0.97731 0.35017 0.00986 0.0
C38 C 0.92228 0.34216 0.97268 0.0
C39 C 0.83351 0.33609 0.0291 0.0
C40 C 0.84808 0.33509 0.98152 0.0
C41 C 0.96504 0.35082 0.05593 0.0
C42 C 0.89266 0.34389 0.06636 0.0
O43 O 0.211 0.39288 0.00037 0.0
O44 O 0.20929 0.37527 0.03051 0.0
O45 O 0.13746 0.343 0.00638 0.0
O46 O 0.19646 0.34597 0.9449 0.0
O47 O 0.04067 0.39278 0.96277 0.0
O48 O 0.12433 0.37145 0.9331 0.0
O49 O 0.95828 0.37135 0.0029 0.0
O50 O 0.95333 0.39713 0.02853 0.0
O51 O 0.04667 0.42233 0.00989 0.0
O52 O 0.05204 0.42846 0.08828 0.0
O53 O 0.1203 0.37578 0.0676 0.0
O54 O 0.0356 0.39673 0.0896 0.0
C55 C 0.25333 0.38369 0.01427 0.0
C56 C 0.0818 0.38225 0.92682 0.0
C57 C 0.18928 0.32137 0.94098 0.0
C58 C 0.21432 0.29652 0.9378 0.0
C59 C 0.18334 0.29998 0.86326 0.0
C60 C 0.17673 0.31523 0.89002 0.0
C61 C 0.20282 0.29069 0.88682 0.0
C62 C 0.20667 0.31191 0.96485 0.0
C63 C 0.19065 0.33758 0.9692 0.0
C64 C 0.79101 0.32728 0.94278 0.0
C65 C 0.80927 0.32614 0.89538 0.0
H66 H 0.77724 0.3308 0.03737 0.0
C67 C 0.91572 0.38406 0.01564 0.0
C68 C 0.06405 0.38525 0.09719 0.0
C69 C 0.97195 0.4443 0.06065 0.0
C70 C 0.93717 0.46803 0.05772 0.0
C71 C 0.8315 0.45592 0.09063 0.0
C72 C 0.88979 0.44416 0.08152 0.0
C73 C 0.85495 0.46781 0.07901 0.0
C74 C 0.99517 0.45615 0.04867 0.0
C75 C 0.03792 0.43284 0.05326 0.0
H76 H 0.17419 0.29535 0.82397 0.0
H77 H 0.16332 0.32219 0.87063 0.0
H78 H 0.20801 0.27889 0.86525 0.0
H79 H 0.21682 0.31653 0.00414 0.0
H80 H 0.76805 0.45586 0.10691 0.0
H81 H 0.87129 0.43508 0.09112 0.0
H82 H 0.80837 0.47674 0.08613 0.0
H83 H 0.05975 0.45627 0.03344 0.0
C84 C 0.12014 0.67602 0.11443 0.0
C85 C 0.2266 0.68148 0.06337 0.0
C86 C 0.1479 0.67472 0.0684 0.0
C87 C 0.27648 0.68963 0.10509 0.0
C88 C 0.17017 0.68421 0.15637 0.0
C89 C 0.24834 0.691 0.15142 0.0
N90 N 0.04444 0.66927 0.11816 0.0
C91 C 1.01315 0.67085 0.16293 0.0
C92 C 0.13991 0.68542 0.20214 0.0
C93 C 0.06084 0.67876 0.20542 0.0
Gd94 Gd 0.95923 0.61285 0.98204 0.0
Gd95 Gd 0.96666 0.65736 0.04483 0.0
N96 N 0.09919 0.6665 0.02844 0.0
C97 C 0.25294 0.67981 0.01649 0.0
C98 C 0.12297 0.6653 0.98297 0.0
C99 C 0.20066 0.67174 0.97616 0.0
H100 H 0.08167 0.65966 0.95198 0.0
H101 H 0.21958 0.67063 0.93988 0.0
H102 H 0.85425 0.61617 0.08633 0.0
H103 H 0.9498 0.66644 0.1662 0.0
H104 H 0.71537 0.60813 0.10916 0.0
H105 H 0.313 0.68483 0.0111 0.0
H106 H 0.33702 0.69492 0.10191 0.0
H107 H 0.95376 0.60201 0.86026 0.0
H108 H 0.17644 0.69164 0.2352 0.0
H109 H 0.03586 0.67992 0.24075 0.0
H110 H 0.57426 0.58072 0.95569 0.0
H111 H 0.28751 0.69736 0.18325 0.0
H112 H 0.71685 0.5775 0.80862 0.0
H113 H 0.85611 0.58746 0.79184 0.0
N114 N 0.86827 0.60103 0.91499 0.0
C115 C 0.79242 0.5956 0.92525 0.0
C116 C 0.89168 0.59821 0.86798 0.0
C117 C 0.75878 0.5841 0.83882 0.0
C118 C 0.83712 0.58977 0.82918 0.0
C119 C 0.73548 0.58699 0.88725 0.0
H120 H 0.61288 0.5749 0.86991 0.0
N121 N 0.82561 0.60758 0.01035 0.0
C122 C 0.77045 0.59897 0.9741 0.0
C123 C 0.67085 0.59724 0.03466 0.0
C124 C 0.69125 0.59367 0.98547 0.0
C125 C 0.80767 0.61054 0.05815 0.0
C126 C 0.72948 0.60566 0.0711 0.0
O127 O 0.09697 0.64577 0.04228 0.0
O128 O 0.09476 0.62197 0.98047 0.0
O129 O 0.98584 0.59551 0.00739 0.0
O130 O 1.01117 0.59172 0.93158 0.0
O131 O 0.9466 0.64621 0.96212 0.0
O132 O 1.01604 0.62325 0.93411 0.0
O133 O 0.84048 0.62589 0.97471 0.0
O134 O 0.83965 0.64612 0.04757 0.0
O135 O 0.91339 0.67441 0.02041 0.0
O136 O 0.90902 0.67701 0.09655 0.0
O137 O 1.00415 0.62381 0.06054 0.0
O138 O 0.91978 0.64472 0.08829 0.0
C139 C 0.13653 0.63372 0.01142 0.0
C140 C 0.98801 0.63499 0.92778 0.0
C141 C 0.07823 0.57524 0.9617 0.0
C142 C 0.11332 0.55201 0.96833 0.0
C143 C 0.22266 0.56434 0.9385 0.0
C144 C 0.16305 0.57569 0.94414 0.0
C145 C 0.198 0.55253 0.95022 0.0
C146 C 0.05397 0.5635 0.9741 0.0
C147 C 1.01071 0.58611 0.96426 0.0
C148 C 0.63511 0.58494 0.94756 0.0
C149 C 0.65715 0.58161 0.89867 0.0
H150 H 0.61068 0.59336 0.04485 0.0
C151 C 0.79801 0.63658 0.0096 0.0
C152 C 0.97167 0.6354 0.09652 0.0
C153 C 0.85306 0.69782 0.08426 0.0
C154 C 0.8086 0.72052 0.07605 0.0
C155 C 0.79757 0.71888 0.15482 0.0
C156 C 0.83006 0.70453 0.13424 0.0
C157 C 0.78684 0.72683 0.12605 0.0
C158 C 0.84274 0.70595 0.05504 0.0
C159 C 0.89385 0.68293 0.06577 0.0
H160 H 0.28804 0.56464 0.92467 0.0
H161 H 0.18267 0.58466 0.93426 0.0
H162 H 0.24545 0.54389 0.94561 0.0
H163 H 0.98766 0.56308 0.98683 0.0
H164 H 0.78127 0.72392 0.19339 0.0
H165 H 0.83822 0.69876 0.15807 0.0
H166 H 0.76261 0.73808 0.14321 0.0
H167 H 0.86144 0.7011 0.01673 0.0
C168 C 0.26174 0.59946 0.42637 0.0
C169 C 0.35429 0.5925 0.48029 0.0
C170 C 0.27768 0.59922 0.47218 0.0
C171 C 0.41613 0.58642 0.44252 0.0
C172 C 0.32301 0.59292 0.38805 0.0
C173 C 0.40069 0.58667 0.39665 0.0
N174 N 0.18439 0.60512 0.41832 0.0
C175 C 0.16161 0.60323 0.37183 0.0
C176 C 0.30285 0.59224 0.34148 0.0
C177 C 0.2213 0.59722 0.33322 0.0
Gd178 Gd 0.08439 0.65845 0.53874 0.0
Gd179 Gd 0.08832 0.6134 0.48592 0.0
N180 N 0.21745 0.60528 0.50856 0.0
C181 C 0.36575 0.59182 0.52593 0.0
C182 C 0.22642 0.6042 0.55252 0.0
C183 C 0.30122 0.5976 0.56206 0.0
H184 H 0.17563 0.60848 0.58006 0.0
H185 H 0.30888 0.5969 0.59711 0.0
H186 H 1.00709 0.66324 0.44106 0.0
H187 H 0.09629 0.60563 0.3633 0.0
H188 H 0.8789 0.67481 0.41982 0.0
H189 H 0.42358 0.58667 0.53341 0.0
H190 H 0.4755 0.58125 0.44816 0.0
H191 H 0.07558 0.66937 0.66135 0.0
H192 H 0.34812 0.58727 0.31116 0.0
H193 H 0.20317 0.59599 0.29672 0.0
H194 H 0.71451 0.69593 0.56966 0.0
H195 H 0.44825 0.58162 0.36759 0.0
H196 H 0.83279 0.69189 0.71228 0.0
H197 H 0.97189 0.68175 0.72859 0.0
N198 N 0.99068 0.67009 0.60595 0.0
C199 C 0.91843 0.67671 0.59681 0.0
C200 C 1.01236 0.67256 0.65296 0.0
C201 C 0.87678 0.68589 0.68221 0.0
C202 C 0.95483 0.68009 0.69153 0.0
C203 C 0.85878 0.68457 0.63465 0.0
H204 H 0.73804 0.69729 0.65284 0.0
N205 N 0.96489 0.66865 0.51402 0.0
C206 C 0.90577 0.67616 0.54983 0.0
C207 C 0.82245 0.6825 0.49215 0.0
C208 C 0.8324 0.68315 0.53962 0.0
C209 C 0.95704 0.66836 0.46816 0.0
C210 C 0.88531 0.67515 0.45637 0.0
O211 O 0.20616 0.62735 0.52425 0.0
O212 O 0.2056 0.64622 0.49901 0.0
O213 O 0.11871 0.67852 0.52772 0.0
O214 O 0.16812 0.67485 0.59091 0.0
O215 O 0.03596 0.62626 0.56166 0.0
O216 O 0.11758 0.64771 0.59136 0.0
O217 O 0.95017 0.64741 0.52319 0.0
O218 O 0.94896 0.62152 0.49127 0.0
O219 O 0.04421 0.59726 0.51365 0.0
O220 O 0.05442 0.59118 0.43537 0.0
O221 O 0.11566 0.64539 0.45892 0.0
O222 O 0.03704 0.62362 0.43538 0.0
C223 C 0.24856 0.63663 0.51075 0.0
C224 C 0.07478 0.63702 0.59779 0.0
C225 C 0.20732 0.69826 0.58806 0.0
C226 C 0.25372 0.72112 0.5817 0.0
C227 C 0.27649 0.71784 0.65724 0.0
C228 C 0.23859 0.70387 0.63643 0.0
C229 C 0.28435 0.72639 0.63013 0.0
C230 C 0.21401 0.70704 0.56077 0.0
C231 C 0.16233 0.68378 0.56865 0.0
C232 C 0.77154 0.69056 0.57692 0.0
C233 C 0.78473 0.69128 0.62426 0.0
H234 H 0.76692 0.68774 0.48287 0.0
C235 C 0.90962 0.63452 0.50682 0.0
C236 C 0.06711 0.63491 0.42719 0.0
C237 C 0.97472 0.57491 0.46122 0.0
C238 C 0.94247 0.55108 0.4639 0.0
C239 C 0.84119 0.56195 0.42449 0.0
C240 C 0.8963 0.57418 0.43588 0.0
C241 C 0.86418 0.55042 0.43812 0.0
C242 C 0.99715 0.56345 0.47545 0.0
C243 C 0.03873 0.58673 0.47009 0.0
H244 H 0.29943 0.7221 0.6947 0.0
H245 H 0.23243 0.69755 0.65867 0.0
H246 H 0.31345 0.73728 0.64732 0.0
H247 H 0.18908 0.70297 0.52365 0.0
H248 H 0.78078 0.56133 0.4047 0.0
H249 H 0.87848 0.58291 0.4244 0.0
H250 H 0.82032 0.54107 0.42893 0.0
H251 H 0.05893 0.56397 0.49416 0.0
C252 C 0.12239 0.34238 0.40731 0.0
C253 C 0.22933 0.33647 0.45713 0.0
C254 C 0.15061 0.34339 0.45289 0.0
C255 C 0.27911 0.3285 0.41504 0.0
C256 C 0.17208 0.33431 0.36496 0.0
C257 C 0.25058 0.32742 0.36911 0.0
N258 N 0.0463 0.34921 0.40438 0.0
C259 C 1.014 0.34774 0.35998 0.0
C260 C 0.14104 0.3333 0.31958 0.0
C261 C 0.06135 0.33996 0.31707 0.0
Gd262 Gd 0.9652 0.40601 0.54158 0.0
Gd263 Gd 0.97089 0.36141 0.47862 0.0
N264 N 0.10229 0.35152 0.49326 0.0
C265 C 0.25578 0.33781 0.50363 0.0
C266 C 0.12603 0.35238 0.53832 0.0
C267 C 0.20357 0.34572 0.54434 0.0
H268 H 0.08498 0.35799 0.56958 0.0
H269 H 0.22256 0.34657 0.58032 0.0
H270 H 0.8622 0.40255 0.43628 0.0
H271 H 0.95022 0.35214 0.35736 0.0
H272 H 0.72307 0.41032 0.41287 0.0
H273 H 0.31584 0.33265 0.50842 0.0
H274 H 0.33978 0.32312 0.4176 0.0
H275 H 0.95615 0.41656 0.6632 0.0
H276 H 0.17731 0.32719 0.2862 0.0
H277 H 0.03568 0.33892 0.28203 0.0
H278 H 0.57807 0.43755 0.56557 0.0
H279 H 0.28959 0.32118 0.33695 0.0
H280 H 0.71746 0.4409 0.71339 0.0
H281 H 0.85647 0.43102 0.731 0.0
N282 N 0.87212 0.41757 0.60797 0.0
C283 C 0.79647 0.42297 0.59723 0.0
C284 C 0.89424 0.42035 0.6551 0.0
C285 C 0.76032 0.43435 0.68345 0.0
C286 C 0.83852 0.42873 0.69356 0.0
C287 C 0.7383 0.43148 0.63489 0.0
H288 H 0.61477 0.44341 0.65154 0.0
N289 N 0.83215 0.41112 0.51223 0.0
C290 C 0.77574 0.41961 0.54822 0.0
C291 C 0.67689 0.42118 0.48715 0.0
C292 C 0.69637 0.42479 0.53644 0.0
C293 C 0.81501 0.40812 0.46433 0.0
C294 C 0.73659 0.41285 0.451 0.0
O295 O 0.10353 0.37248 0.48528 0.0
O296 O 0.10278 0.39728 0.54048 0.0
O297 O 0.98894 0.4237 0.5174 0.0
O298 O 1.01565 0.42708 0.59272 0.0
O299 O 0.95425 0.3727 0.56156 0.0
O300 O 1.02248 0.39573 0.58989 0.0
O301 O 0.84806 0.39275 0.54907 0.0
O302 O 0.84629 0.37318 0.47487 0.0
O303 O 0.90515 0.34636 0.50724 0.0
O304 O 0.91904 0.34084 0.42886 0.0
O305 O 1.01168 0.39493 0.46334 0.0
O306 O 0.92692 0.37413 0.43476 0.0
C307 C 0.14343 0.38495 0.51232 0.0
C308 C 0.99649 0.3838 0.59567 0.0
C309 C 0.07922 0.44417 0.56408 0.0
C310 C 0.11037 0.46751 0.55741 0.0
C311 C 0.2178 0.45659 0.59335 0.0
C312 C 0.16153 0.44471 0.58572 0.0
C313 C 0.19227 0.46798 0.57969 0.0
C314 C 0.05446 0.45547 0.54942 0.0
C315 C 1.01371 0.43294 0.5607 0.0
C316 C 0.63904 0.43343 0.57404 0.0
C317 C 0.65998 0.43678 0.62304 0.0
H318 H 0.61655 0.42494 0.47665 0.0
C319 C 0.80482 0.38243 0.51362 0.0
C320 C 0.9795 0.38344 0.42698 0.0
C321 C 0.84162 0.32283 0.44751 0.0
C322 C 0.79799 0.30037 0.4569 0.0
C323 C 0.75441 0.30412 0.38462 0.0
C324 C 0.79722 0.31769 0.40238 0.0
C325 C 0.75466 0.29551 0.41168 0.0
C326 C 0.84212 0.31408 0.47494 0.0
C327 C 0.89223 0.33669 0.46249 0.0
H328 H 0.28102 0.45706 0.61044 0.0
H329 H 0.18153 0.43613 0.59749 0.0
H330 H 0.23686 0.47711 0.58617 0.0
H331 H 0.99006 0.45517 0.53352 0.0
H332 H 0.72131 0.30023 0.34961 0.0
H333 H 0.79636 0.32412 0.38032 0.0
H334 H 0.72142 0.28493 0.39709 0.0
H335 H 0.87706 0.31776 0.50944 0.0
C336 C 0.75408 0.92129 0.10463 0.0
C337 C 0.85829 0.92453 0.04793 0.0
C338 C 0.77775 0.91904 0.05684 0.0
C339 C 0.91428 0.9323 0.08725 0.0
C340 C 0.81078 0.92894 0.144 0.0
C341 C 0.89064 0.9345 0.13508 0.0
N342 N 0.67675 0.91568 0.11239 0.0
C343 C 0.65141 0.91751 0.15833 0.0
C344 C 0.7857 0.93074 0.19125 0.0
C345 C 0.70575 0.92498 0.19841 0.0
Gd346 Gd 0.5796 0.86073 0.97827 0.0
Gd347 Gd 0.58818 0.9051 0.04338 0.0
N348 N 0.72309 0.91122 0.0191 0.0
C349 C 0.88021 0.92206 -0.0003 0.0
C350 C 0.7425 0.90933 0.97236 0.0
C351 C 0.82186 0.9145 0.96183 0.0
H352 H 0.69642 0.90426 0.94322 0.0
H353 H 0.83729 0.91288 0.9246 0.0
H354 H 0.49625 0.85611 0.07601 0.0
H355 H 0.58819 0.91361 0.16442 0.0
H356 H 0.35993 0.84729 0.09902 0.0
H357 H 0.94146 0.92612 0.99138 0.0
H358 H 0.97627 0.93663 0.08104 0.0
H359 H 0.56925 0.85097 0.85729 0.0
H360 H 0.82747 0.93659 0.22245 0.0
H361 H 0.68547 0.92647 0.23486 0.0
H362 H 0.19511 0.82753 0.94973 0.0
H363 H 0.93484 0.94047 0.16494 0.0
H364 H 0.32538 0.82891 0.80546 0.0
H365 H 0.46598 0.83867 0.78943 0.0
N366 N 0.48547 0.84933 0.91155 0.0
C367 C 0.41019 0.84358 0.92094 0.0
C368 C 0.50646 0.84742 0.86496 0.0
C369 C 0.36984 0.83459 0.8355 0.0
C370 C 0.44885 0.84016 0.82632 0.0
C371 C 0.34988 0.83617 0.88317 0.0
H372 H 0.22488 0.82482 0.86553 0.0
N373 N 0.45341 0.85224 0.00421 0.0
C374 C 0.39341 0.84516 0.96863 0.0
C375 C 0.30268 0.84051 0.02732 0.0
C376 C 0.3159 0.83927 0.97943 0.0
C377 C 0.44395 0.85238 0.04981 0.0
C378 C 0.36764 0.8469 0.06247 0.0
O379 O 0.70848 0.89173 0.04658 0.0
O380 O 0.70757 0.87152 0.9735 0.0
O381 O 0.63907 0.84365 -0.00024 0.0
O382 O 0.63105 0.84081 0.92339 0.0
O383 O 0.55071 0.89452 0.96358 0.0
O384 O 0.62669 0.87246 0.93166 0.0
O385 O 0.4538 0.87309 0.97683 0.0
O386 O 0.45339 0.89552 0.0446 0.0
O387 O 0.55314 0.92225 0.01772 0.0
O388 O 0.54448 0.92657 0.09506 0.0
O389 O 0.60637 0.87221 0.06024 0.0
O390 O 0.52702 0.8941 0.0883 0.0
C391 C 0.75018 0.8813 0.01051 0.0
C392 C 0.58482 0.88337 0.92635 0.0
C393 C 0.69766 0.82049 0.93523 0.0
C394 C 0.7469 0.79798 0.94322 0.0
C395 C 0.76457 0.80045 0.86599 0.0
C396 C 0.72675 0.81443 0.88629 0.0
C397 C 0.77459 0.79227 0.8941 0.0
C398 C 0.70747 0.81215 0.96382 0.0
C399 C 0.65386 0.83512 0.95387 0.0
C400 C 0.25506 0.83209 0.94204 0.0
C401 C 0.27206 0.83052 0.89405 0.0
H402 H 0.24402 0.83613 0.03709 0.0
C403 C 0.41234 0.88422 0.01097 0.0
C404 C 0.56086 0.88274 0.09448 0.0
C405 C 0.47874 0.94451 0.07071 0.0
C406 C 0.45012 0.96791 0.06361 0.0
C407 C 0.35529 0.9598 0.11358 0.0
C408 C 0.40563 0.94699 0.10166 0.0
C409 C 0.37717 0.97018 0.0947 0.0
C410 C 0.50099 0.95502 0.05186 0.0
C411 C 0.53862 0.93201 0.06207 0.0
H412 H 0.78573 0.79587 0.82813 0.0
H413 H 0.71973 0.82047 0.86322 0.0
H414 H 0.80296 0.78129 0.87706 0.0
H415 H 0.68461 0.81658 0.00143 0.0
H416 H 0.29968 0.96178 0.13804 0.0
H417 H 0.38845 0.93919 0.11735 0.0
H418 H 0.33795 0.98015 0.10515 0.0
H419 H 0.55834 0.95326 0.02857 0.0
C420 C 0.62746 0.1756 0.1033 0.0
C421 C 0.72498 0.18225 0.05087 0.0
C422 C 0.64647 0.17585 0.05802 0.0
C423 C 0.7853 0.18808 0.08947 0.0
C424 C 0.68618 0.1821 0.14275 0.0
C425 C 0.76599 0.188 0.13526 0.0
N426 N 0.54976 0.16975 0.10949 0.0
C427 C 0.52165 0.17214 0.15559 0.0
C428 C 0.66166 0.18293 0.18898 0.0
C429 C 0.57813 0.17826 0.19565 0.0
Gd430 Gd 0.47466 0.11366 0.98769 0.0
Gd431 Gd 0.46521 0.1584 0.03777 0.0
N432 N 0.58838 0.16966 0.02069 0.0
C433 C 0.74046 0.18259 0.00506 0.0
C434 C 0.60176 0.17029 0.97635 0.0
C435 C 0.67816 0.17673 0.96782 0.0
H436 H 0.55381 0.16564 0.94754 0.0
H437 H 0.68937 0.17703 0.93243 0.0
H438 H 0.38864 0.10842 0.08224 0.0
H439 H 0.45553 0.1694 0.16195 0.0
H440 H 0.25454 0.09732 0.10039 0.0
H441 H 0.80005 0.18742 -0.00186 0.0
H442 H 0.8465 0.19288 0.0845 0.0
H443 H 0.46536 0.10576 0.86519 0.0
H444 H 0.70501 0.18779 0.22016 0.0
H445 H 0.55667 0.17957 0.23176 0.0
H446 H 0.08859 0.0811 0.95134 0.0
H447 H 0.8123 0.19285 0.165 0.0
H448 H 0.2148 0.08696 0.81358 0.0
H449 H 0.35866 0.09592 0.79883 0.0
N450 N 0.37845 0.10492 0.92028 0.0
C451 C 0.30249 0.09891 0.92826 0.0
C452 C 0.40063 0.10313 0.8738 0.0
C453 C 0.26021 0.0919 0.84373 0.0
C454 C 0.34107 0.09703 0.83531 0.0
C455 C 0.24087 0.09244 0.89025 0.0
H456 H 0.11543 0.0813 0.87044 0.0
N457 N 0.34842 0.1045 0.00992 0.0
C458 C 0.28776 0.09846 0.97385 0.0
C459 C 0.19874 0.09171 0.02875 0.0
C460 C 0.21071 0.09202 0.98262 0.0
C461 C 0.33851 0.10389 0.05456 0.0
C462 C 0.26308 0.09761 0.06478 0.0
O463 O 0.59836 0.14742 0.00927 0.0
O464 O 0.60283 0.12532 0.01905 0.0
O465 O 0.50983 0.09515 0.00674 0.0
O466 O 0.54126 0.09446 0.93431 0.0
O467 O 0.43682 0.14465 0.95834 0.0
O468 O 0.52452 0.12397 0.93689 0.0
O469 O 0.3493 0.12627 0.02247 0.0
O470 O 0.3498 0.14481 0.99603 0.0
O471 O 0.42671 0.17716 0.0211 0.0
O472 O 0.36596 0.17383 0.08138 0.0
O473 O 0.51997 0.1263 0.06458 0.0
O474 O 0.43371 0.14739 0.09013 0.0
C475 C 0.64192 0.13664 0.01482 0.0
C476 C 0.49056 0.13487 0.92787 0.0
C477 C 0.5823 0.07287 0.94926 0.0
C478 C 0.59787 0.04949 0.95827 0.0
C479 C 0.68361 0.0541 0.89724 0.0
C480 C 0.64461 0.06798 0.91135 0.0
C481 C 0.66081 0.04493 0.92064 0.0
C482 C 0.55824 0.06351 0.97252 0.0
C483 C 0.54268 0.08764 0.9636 0.0
C484 C 0.14832 0.08606 0.94523 0.0
C485 C 0.16342 0.08624 0.89921 0.0
H486 H 0.14026 0.08687 0.03685 0.0
C487 C 0.30658 0.13574 0.00988 0.0
C488 C 0.48165 0.13762 0.09913 0.0
C489 C 0.3616 0.19836 0.08414 0.0
C490 C 0.32448 0.22238 0.08316 0.0
C491 C 0.33031 0.21947 0.16019 0.0
C492 C 0.35327 0.20462 0.13541 0.0
C493 C 0.31521 0.22826 0.13434 0.0
C494 C 0.34865 0.20741 0.05821 0.0
C495 C 0.37072 0.18216 0.05696 0.0
H496 H 0.73167 0.05043 0.868 0.0
H497 H 0.66375 0.07493 0.89276 0.0
H498 H 0.69146 0.03414 0.90883 0.0
H499 H 0.50938 0.06708 0.00146 0.0
H500 H 0.32271 0.22414 0.1996 0.0
H501 H 0.36202 0.19795 0.15633 0.0
H502 H 0.29666 0.23973 0.15444 0.0
H503 H 0.35333 0.20266 0.01858 0.0
C504 C 0.74888 0.0988 0.4264 0.0
C505 C 0.83721 0.09095 0.47971 0.0
C506 C 0.76205 0.098 0.47159 0.0
C507 C 0.89947 0.08481 0.4422 0.0
C508 C 0.81059 0.09225 0.38834 0.0
C509 C 0.88623 0.08546 0.39671 0.0
N510 N 0.67426 0.10527 0.41884 0.0
C511 C 0.65382 0.10405 0.37276 0.0
C512 C 0.79312 0.09222 0.34231 0.0
C513 C 0.7138 0.09795 0.33433 0.0
Gd514 Gd 0.58257 0.15852 0.53992 0.0
Gd515 Gd 0.57693 0.11384 0.48592 0.0
N516 N 0.70158 0.10421 0.5078 0.0
C517 C 0.84745 0.09022 0.52535 0.0
C518 C 0.71004 0.10329 0.55204 0.0
C519 C 0.78348 0.09638 0.56159 0.0
H520 H 0.65992 0.10793 0.57978 0.0
H521 H 0.79063 0.09577 0.5968 0.0
H522 H 0.50281 0.16527 0.44684 0.0
H523 H 0.59004 0.10712 0.36436 0.0
H524 H 0.37443 0.17784 0.4298 0.0
H525 H 0.90433 0.08488 0.5329 0.0
H526 H 0.95772 0.07938 0.44782 0.0
H527 H 0.5786 0.16781 0.66266 0.0
H528 H 0.83875 0.08726 0.31216 0.0
H529 H 0.69762 0.09726 0.29817 0.0
H530 H 0.21464 0.19692 0.58148 0.0
H531 H 0.93419 0.08041 0.36786 0.0
H532 H 0.3373 0.19019 0.71855 0.0
H533 H 0.47712 0.17953 0.73134 0.0
N534 N 0.49121 0.16931 0.60902 0.0
C535 C 0.4185 0.17628 0.60202 0.0
C536 C 0.51493 0.17123 0.65536 0.0
C537 C 0.38012 0.18445 0.68762 0.0
C538 C 0.45866 0.17837 0.69495 0.0
C539 C 0.36033 0.18383 0.64107 0.0
H540 H 0.24072 0.1968 0.66257 0.0
N541 N 0.46272 0.16969 0.51954 0.0
C542 C 0.40455 0.17668 0.55638 0.0
C543 C 0.32007 0.18443 0.50229 0.0
C544 C 0.33117 0.18416 0.54852 0.0
C545 C 0.45389 0.17029 0.47489 0.0
C546 C 0.38192 0.17752 0.46542 0.0
O547 O 0.70179 0.1263 0.52124 0.0
O548 O 0.70269 0.14604 0.49992 0.0
O549 O 0.6217 0.17809 0.52742 0.0
O550 O 0.66639 0.175 0.59234 0.0
O551 O 0.53019 0.12595 0.56277 0.0
O552 O 0.61572 0.14698 0.59045 0.0
O553 O 0.44996 0.14778 0.51161 0.0
O554 O 0.44724 0.12497 0.51663 0.0
O555 O 0.54028 0.0953 0.50397 0.0
O556 O 0.51236 0.09465 0.43119 0.0
O557 O 0.61542 0.14564 0.46035 0.0
O558 O 0.52842 0.12485 0.43696 0.0
C559 C 0.74471 0.1361 0.51037 0.0
C560 C 0.56904 0.13688 0.59816 0.0
C561 C 0.71187 0.19774 0.58627 0.0
C562 C 0.75624 0.22041 0.57836 0.0
C563 C 0.79498 0.21654 0.65111 0.0
C564 C 0.75297 0.20287 0.63229 0.0
C565 C 0.79697 0.22524 0.62429 0.0
C566 C 0.7129 0.20667 0.55938 0.0
C567 C 0.66444 0.18352 0.56855 0.0
C568 C 0.27159 0.19116 0.58689 0.0
C569 C 0.28622 0.19103 0.63303 0.0
H570 H 0.2644 0.19004 0.49483 0.0
C571 C 0.40749 0.13651 0.51423 0.0
C572 C 0.56368 0.13579 0.42871 0.0
C573 C 0.47067 0.07302 0.44592 0.0
C574 C 0.46225 0.04926 0.4525 0.0
C575 C 0.37576 0.05368 0.39149 0.0
C576 C 0.41026 0.06791 0.40721 0.0
C577 C 0.40197 0.04436 0.41376 0.0
C578 C 0.49599 0.06369 0.46905 0.0
C579 C 0.50924 0.08783 0.46045 0.0
H580 H 0.82586 0.22043 0.68672 0.0
H581 H 0.75194 0.1964 0.65415 0.0
H582 H 0.8297 0.23586 0.63962 0.0
H583 H 0.68058 0.203 0.52412 0.0
H584 H 0.32916 0.04982 0.36164 0.0
H585 H 0.38977 0.0749 0.389 0.0
H586 H 0.37532 0.03328 0.40069 0.0
H587 H 0.54343 0.06744 0.49861 0.0
C588 C 0.6252 0.84223 0.41258 0.0
C589 C 0.7203 0.83354 0.46104 0.0
C590 C 0.64623 0.84159 0.45717 0.0
C591 C 0.77401 0.82639 0.41994 0.0
C592 C 0.6775 0.83455 0.37084 0.0
C593 C 0.75274 0.8269 0.37502 0.0
N594 N 0.55096 0.84949 0.4092 0.0
C595 C 0.51988 0.8477 0.36419 0.0
C596 C 0.65063 0.83421 0.32559 0.0
C597 C 0.57055 0.84057 0.32212 0.0
Gd598 Gd 0.47333 0.90542 0.53691 0.0
Gd599 Gd 0.46967 0.86027 0.48231 0.0
N600 N 0.59387 0.84875 0.49677 0.0
C601 C 0.73785 0.83282 0.50612 0.0
C602 C 0.60925 0.84781 0.54045 0.0
C603 C 0.68185 0.83994 0.54591 0.0
H604 H 0.56512 0.85308 0.57084 0.0
H605 H 0.69446 0.83933 0.58072 0.0
H606 H 0.39296 0.9091 0.43842 0.0
H607 H 0.45475 0.85133 0.36002 0.0
H608 H 0.26781 0.92176 0.41861 0.0
H609 H 0.7941 0.82674 0.51049 0.0
H610 H 0.83146 0.82023 0.42231 0.0
H611 H 0.45342 0.91259 0.65815 0.0
H612 H 0.68899 0.82843 0.29274 0.0
H613 H 0.54653 0.83961 0.28683 0.0
H614 H 0.10899 0.94395 0.5699 0.0
H615 H 0.79375 0.82102 0.34338 0.0
H616 H 0.21861 0.93746 0.70994 0.0
H617 H 0.35052 0.92532 0.7249 0.0
N618 N 0.37563 0.91539 0.60325 0.0
C619 C 0.30544 0.92262 0.59466 0.0
C620 C 0.39332 0.91671 0.64969 0.0
C621 C 0.26197 0.93129 0.67972 0.0
C622 C 0.33605 0.92438 0.68826 0.0
C623 C 0.24655 0.93068 0.63275 0.0
H624 H 0.13019 0.94453 0.65222 0.0
N625 N 0.35201 0.91494 0.51193 0.0
C626 C 0.29398 0.92254 0.54811 0.0
C627 C 0.21335 0.92977 0.49146 0.0
C628 C 0.22287 0.93017 0.53867 0.0
C629 C 0.3444 0.91475 0.46612 0.0
C630 C 0.27428 0.92201 0.45504 0.0
O631 O 0.6041 0.87071 0.5071 0.0
O632 O 0.60616 0.89497 0.51315 0.0
O633 O 0.51454 0.92333 0.5165 0.0
O634 O 0.53449 0.92499 0.59132 0.0
O635 O 0.4437 0.87252 0.563 0.0
O636 O 0.51955 0.89465 0.58693 0.0
O637 O 0.34748 0.893 0.5044 0.0
O638 O 0.35129 0.87289 0.52407 0.0
O639 O 0.43506 0.84049 0.49573 0.0
O640 O 0.38423 0.84377 0.43232 0.0
O641 O 0.5216 0.89301 0.46046 0.0
O642 O 0.43262 0.87248 0.43467 0.0
C643 C 0.64552 0.8828 0.51054 0.0
C644 C 0.49093 0.88322 0.59489 0.0
C645 C 0.58222 0.94589 0.57441 0.0
C646 C 0.59266 0.96956 0.5674 0.0
C647 C 0.68144 0.96482 0.62697 0.0
C648 C 0.64484 0.95076 0.61203 0.0
C649 C 0.65515 0.97422 0.60504 0.0
C650 C 0.5568 0.95528 0.55157 0.0
C651 C 0.5423 0.93123 0.56052 0.0
C652 C 0.1638 0.93798 0.57645 0.0
C653 C 0.1757 0.93826 0.62331 0.0
H654 H 0.15943 0.93547 0.48281 0.0
C655 C 0.30725 0.88277 0.51423 0.0
C656 C 0.48239 0.88199 0.42569 0.0
C657 C 0.3467 0.82047 0.43565 0.0
C658 C 0.30257 0.79752 0.44216 0.0
C659 C 0.28217 0.80043 0.36584 0.0
C660 C 0.31793 0.81457 0.38677 0.0
C661 C 0.27418 0.79199 0.39329 0.0
C662 C 0.33993 0.81178 0.46328 0.0
C663 C 0.39117 0.83499 0.455 0.0
H664 H 0.7298 0.96849 0.65595 0.0
H665 H 0.66556 0.94368 0.62987 0.0
H666 H 0.68346 0.98518 0.6175 0.0
H667 H 0.50783 0.9517 0.52278 0.0
H668 H 0.26115 0.79595 0.32801 0.0
H669 H 0.32462 0.82077 0.3642 0.0
H670 H 0.24683 0.78096 0.37603 0.0
H671 H 0.36339 0.81604 0.50071 0.0
H672 H 0.36482 0.39584 0.96856 0.0
H673 H 0.80761 0.36555 0.03811 0.0
H674 H 0.36578 0.36983 0.05474 0.0
H675 H 0.80122 0.40238 0.99609 0.0
H676 H 0.64681 0.36483 0.03649 0.0
H677 H 0.5248 0.3966 0.97136 0.0
C678 C 0.39848 0.39046 0.98871 0.0
C679 C 0.35115 0.38323 0.01291 0.0
C680 C 0.68053 0.37306 0.02753 0.0
C681 C 0.53575 0.38331 0.01394 0.0
C682 C 0.77242 0.37331 0.02776 0.0
C683 C 0.81814 0.38377 0.01611 0.0
C684 C 0.63364 0.38335 0.01535 0.0
C685 C 0.76881 0.39406 0.00509 0.0
C686 C 0.49016 0.39076 0.98984 0.0
C687 C 0.39921 0.37573 0.03611 0.0
N688 N 0.67942 0.39353 0.00465 0.0
N689 N 0.48878 0.37593 0.03596 0.0
H690 H 0.24768 0.61444 0.94205 0.0
H691 H 0.68627 0.65392 0.08238 0.0
H692 H 0.24897 0.65244 0.08034 0.0
H693 H 0.68601 0.61962 0.93603 0.0
H694 H 0.52605 0.65306 0.08297 0.0
H695 H 0.40841 0.61513 0.94104 0.0
C696 C 0.28149 0.62297 0.97213 0.0
C697 C 0.23418 0.63358 0.01091 0.0
C698 C 0.56105 0.64564 0.05082 0.0
C699 C 0.41847 0.63448 0.00979 0.0
C700 C 0.65275 0.64614 0.05038 0.0
C701 C 0.7003 0.63661 0.00942 0.0
C702 C 0.51607 0.63546 0.01012 0.0
C703 C 0.65265 0.6269 0.96893 0.0
C704 C 0.37335 0.62339 0.9714 0.0
C705 C 0.28203 0.64428 0.049 0.0
N706 N 0.56339 0.62649 0.97044 0.0
N707 N 0.37121 0.64448 0.04739 0.0
H708 H 0.80297 0.6524 0.48101 0.0
H709 H 0.35892 0.62443 0.55683 0.0
H710 H 0.79507 0.6166 0.52798 0.0
H711 H 0.36186 0.64979 0.46853 0.0
H712 H 0.51869 0.62302 0.55283 0.0
H713 H 0.6424 0.65355 0.48341 0.0
C714 C 0.76734 0.64495 0.49255 0.0
C715 C 0.81241 0.63469 0.50551 0.0
C716 C 0.48453 0.62884 0.53412 0.0
C717 C 0.62832 0.63555 0.50702 0.0
C718 C 0.39297 0.6295 0.53589 0.0
C719 C 0.34627 0.63674 0.51142 0.0
C720 C 0.53062 0.63594 0.50909 0.0
C721 C 0.39482 0.6439 0.48738 0.0
C722 C 0.67563 0.64544 0.49322 0.0
C723 C 0.76286 0.62474 0.51792 0.0
N724 N 0.4843 0.64334 0.48689 0.0
N725 N 0.6735 0.62549 0.51874 0.0
H726 H 0.69525 0.39893 0.58931 0.0
H727 H 0.25269 0.36567 0.44272 0.0
H728 H 0.69075 0.366 0.44074 0.0
H729 H 0.25735 0.40412 0.57965 0.0
H730 H 0.41241 0.36465 0.44384 0.0
H731 H 0.5353 0.40033 0.58828 0.0
C732 C 0.66086 0.39207 0.55629 0.0
C733 C 0.70714 0.38261 0.51464 0.0
C734 C 0.37869 0.37334 0.47364 0.0
C735 C 0.52289 0.38366 0.51397 0.0
C736 C 0.28712 0.37383 0.47333 0.0
C737 C 0.24099 0.38482 0.51165 0.0
C738 C 0.4252 0.38398 0.51243 0.0
C739 C 0.28992 0.39541 0.54941 0.0
C740 C 0.56924 0.39279 0.55588 0.0
C741 C 0.65826 0.37357 0.4736 0.0
N742 N 0.37929 0.3947 0.54894 0.0
N743 N 0.56895 0.3743 0.47435 0.0
H744 H 0.86139 0.86685 0.93331 0.0
H745 H 0.3011 0.89949 0.08719 0.0
H746 H 0.86224 0.89569 0.08699 0.0
H747 H 0.3005 0.86858 0.9358 0.0
H748 H 0.1404 0.89869 0.08743 0.0
H749 H 1.02205 0.86755 0.93327 0.0
C750 C 0.89524 0.87332 0.9671 0.0
C751 C 0.84789 0.8813 0.01016 0.0
C752 C 0.17541 0.89205 0.05417 0.0
C753 C 0.03236 0.88224 0.01031 0.0
C754 C 0.26727 0.89255 0.05393 0.0
C755 C 0.31469 0.88404 0.01144 0.0
C756 C 0.13024 0.88301 0.01152 0.0
C757 C 0.26704 0.87517 0.9696 0.0
C758 C 0.98711 0.87375 0.96701 0.0
C759 C 0.89566 0.88953 0.05275 0.0
N760 N 0.1777 0.8749 0.97069 0.0
N761 N 0.985 0.88981 0.05172 0.0
H762 H 0.1961 0.12417 0.05791 0.0
H763 H 0.75073 0.1505 0.97305 0.0
H764 H 0.19274 0.14876 0.96718 0.0
H765 H 0.75719 0.12258 0.05261 0.0
H766 H 0.91155 0.15084 0.97282 0.0
H767 H 0.03581 0.12395 0.05769 0.0
C768 C 0.16175 0.12937 0.03739 0.0
C769 C 0.20855 0.13616 0.01154 0.0
C770 C 0.87793 0.14467 0.99048 0.0
C771 C 1.02343 0.13648 0.01261 0.0
C772 C 0.78587 0.14463 0.99113 0.0
C773 C 0.73992 0.13678 0.01381 0.0
C774 C 0.92504 0.13672 0.01245 0.0
C775 C 0.78947 0.12885 0.03487 0.0
C776 C 0.06986 0.12938 0.03767 0.0
C777 C 0.15977 0.14328 0.98734 0.0
N778 N 0.87897 0.12906 0.0338 0.0
N779 N 0.07013 0.14325 0.98843 0.0
H780 H 0.29827 0.15328 0.48373 0.0
H781 H 0.85498 0.12217 0.55097 0.0
H782 H 0.29306 0.11936 0.53984 0.0
H783 H 0.85819 0.15103 0.47463 0.0
H784 H 1.01504 0.12165 0.54967 0.0
H785 H 0.13789 0.15367 0.48403 0.0
C786 C 0.26358 0.14607 0.49681 0.0
C787 C 0.30974 0.13657 0.51296 0.0
C788 C 0.98093 0.12806 0.533 0.0
C789 C 0.1251 0.13654 0.51175 0.0
C790 C 0.88918 0.12822 0.53322 0.0
C791 C 0.84249 0.13627 0.51159 0.0
C792 C 0.02713 0.13634 0.51203 0.0
C793 C 0.8911 0.14452 0.49134 0.0
C794 C 0.17173 0.14615 0.49635 0.0
C795 C 0.26063 0.12698 0.52744 0.0
N796 N 0.9806 0.14435 0.49209 0.0
N797 N 0.17123 0.12725 0.52662 0.0
H798 H 0.75736 0.90302 0.49965 0.0
H799 H 0.1978 0.86432 0.53719 0.0
H800 H 0.75765 0.86337 0.52666 0.0
H801 H 0.19308 0.89919 0.48534 0.0
H802 H 0.03689 0.86415 0.53652 0.0
H803 H 0.91758 0.90286 0.50055 0.0
C804 C 0.79082 0.89416 0.50531 0.0
C805 C 0.74324 0.8829 0.51171 0.0
C806 C 0.07129 0.87197 0.52587 0.0
C807 C 0.92762 0.88264 0.51262 0.0
C808 C 0.16325 0.87208 0.52623 0.0
C809 C 0.20964 0.88217 0.51288 0.0
C810 C 1.02525 0.8821 0.51244 0.0
C811 C 0.16085 0.8917 0.49802 0.0
C812 C 0.88256 0.89406 0.50565 0.0
C813 C 0.79094 0.8719 0.51966 0.0
N814 N 0.07168 0.89153 0.49861 0.0
N815 N 0.88028 0.872 0.51975 0.0
H816 H 0.1449 0.52246 0.91622 0.0
H817 H 0.90883 0.49767 0.11097 0.0
H818 H 1.01938 0.55298 0.04808 0.0
H819 H 1.02558 0.46705 0.97623 0.0
H820 H 0.9501 0.51811 0.08906 0.0
H821 H 0.10274 0.50202 0.93794 0.0
C822 C 0.10898 0.52487 0.94992 0.0
C823 C 0.08644 0.53947 0.98061 0.0
C824 C 0.96655 0.50691 0.06424 0.0
C825 C 0.03726 0.51611 0.00557 0.0
C826 C 0.94254 0.49523 0.07661 0.0
C827 C 0.96297 0.48059 0.04522 0.0
C828 C 1.01144 0.50397 0.02014 0.0
C829 C 1.00882 0.47814 0.00173 0.0
C830 C 0.08449 0.51319 0.96218 0.0
C831 C 0.03794 0.5419 0.02325 0.0
N832 N 0.03129 0.4897 0.99045 0.0
N833 N 1.0153 0.53035 0.03455 0.0
H834 H 0.03382 0.46538 0.47173 0.0
H835 H 1.01284 0.55309 0.55092 0.0
H836 H 0.12274 0.49732 0.61156 0.0
H837 H 0.93108 0.52121 0.40928 0.0
H838 H 0.05288 0.5328 0.57391 0.0
H839 H 0.99241 0.48567 0.44877 0.0
C840 C 0.04423 0.47667 0.49767 0.0
C841 C 0.08263 0.47968 0.54343 0.0
C842 C 1.02609 0.53023 0.53781 0.0
C843 C 0.03557 0.50295 0.51744 0.0
C844 C 1.00359 0.54181 0.52457 0.0
C845 C 0.96783 0.53884 0.47821 0.0
C846 C 1.01304 0.51553 0.50443 0.0
C847 C 0.9568 0.52401 0.44572 0.0
C848 C 1.02096 0.48825 0.48449 0.0
C849 C 0.09491 0.49451 0.57556 0.0
N850 N 0.97928 0.51292 0.45944 0.0
N851 N 0.07149 0.50558 0.56197 0.0
H852 H 0.34224 0.98083 0.01946 0.0
H853 H 0.70561 0.03752 0.00519 0.0
H854 H 0.61036 0.98095 0.06587 0.0
H855 H 0.43657 0.03767 0.96088 0.0
H856 H 0.67127 0.01738 0.03023 0.0
H857 H 0.37622 1.00143 0.99685 0.0
C858 C 0.40839 0.98521 0.02479 0.0
C859 C 0.47331 0.97929 0.045 0.0
C860 C 0.61949 0.02184 0.01532 0.0
C861 C 0.51265 1.003 0.01976 0.0
C862 C 0.63897 0.03339 0.00137 0.0
C863 C 0.57376 0.0392 0.98101 0.0
C864 C 0.53428 0.01594 0.00832 0.0
C865 C 0.48844 0.03353 0.97679 0.0
C866 C 0.42775 0.99698 0.01199 0.0
C867 C 0.55839 0.98518 0.05035 0.0
N868 N 0.4713 0.02211 0.9899 0.0
N869 N 0.57545 0.9968 0.03816 0.0
H870 H 0.4129 0.0488 0.53972 0.0
H871 H 0.64224 0.97015 0.48049 0.0
H872 H 0.57199 0.02584 0.41191 0.0
H873 H 0.48349 0.99305 0.60847 0.0
H874 H 0.61504 0.99024 0.45369 0.0
H875 H 0.44045 0.02878 0.56684 0.0
C876 C 0.45511 0.03965 0.51801 0.0
C877 C 0.49066 0.03887 0.47377 0.0
C878 C 0.58532 0.99082 0.48739 0.0
C879 C 0.52101 0.01589 0.50361 0.0
C880 C 0.60016 0.9793 0.5023 0.0
C881 C 0.56447 0.98003 0.54643 0.0
C882 C 0.53459 1.00311 0.51701 0.0
C883 C 0.51167 0.99216 0.57407 0.0
C884 C 0.47016 0.02818 0.53311 0.0
C885 C 0.54376 0.02676 0.44633 0.0
N886 N 0.49847 1.00327 0.559 0.0
N887 N 0.55715 0.0157 0.46159 0.0
H888 H 0.12541 0.29347 0.01286 0.0
H889 H 0.42851 0.22725 0.01585 0.0
H890 H 0.34749 0.27635 0.91675 0.0
H891 H 0.18006 0.23955 0.09094 0.0
H892 H 0.40425 0.24561 0.98091 0.0
H893 H 0.15062 0.27476 0.04601 0.0
C894 C 0.18015 0.28588 -0.00074 0.0
C895 C 0.23422 0.28637 0.96194 0.0
C896 C 0.35474 0.24421 0.00474 0.0
C897 C 0.26344 0.2649 -0.00067 0.0
C898 C 0.36836 0.23367 0.02438 0.0
C899 C 0.3066 0.23201 0.0567 0.0
C900 C 0.2787 0.25309 0.01744 0.0
C901 C 0.22999 0.24068 0.06683 0.0
C902 C 0.19416 0.27512 0.01782 0.0
C903 C 0.30387 0.27621 0.94523 0.0
N904 N 0.21843 0.25087 0.04751 0.0
N905 N 0.31658 0.2659 0.96404 0.0
H906 H 0.62312 0.79034 0.99592 0.0
H907 H 0.93137 0.72783 0.02222 0.0
H908 H 0.89472 0.78363 0.95119 0.0
H909 H 0.661 0.73495 0.06898 0.0
H910 H 0.918 0.74769 0.99301 0.0
H911 H 0.63651 0.77054 0.02536 0.0
C912 C 0.68596 0.7849 0.99326 0.0
C913 C 0.75771 0.7885 0.97074 0.0
C914 C 0.86131 0.74481 0.00925 0.0
C915 C 0.77307 0.76564 0.00291 0.0
C916 C 0.8687 0.73334 0.02521 0.0
C917 C 0.7972 0.72981 0.04805 0.0
C918 C 0.78191 0.75276 0.0163 0.0
C919 C 0.71773 0.73742 0.05173 0.0
C920 C 0.69339 0.77348 0.00942 0.0
C921 C 0.83753 0.78104 0.96781 0.0
N922 N 0.71238 0.7486 0.03644 0.0
N923 N 0.84287 0.76989 0.98324 0.0
H924 H 0.40304 0.73387 0.56747 0.0
H925 H 0.15339 0.78488 0.45683 0.0
H926 H 0.12563 0.73077 0.53663 0.0
H927 H 0.43096 0.7879 0.4871 0.0
H928 H 0.14125 0.76557 0.48801 0.0
H929 H 0.41526 0.75323 0.53647 0.0
C930 C 0.34486 0.73718 0.55353 0.0
C931 C 0.26319 0.73078 0.55474 0.0
C932 C 0.2048 0.77048 0.4882 0.0
C933 C 0.27617 0.75315 0.5201 0.0
C934 C 0.21159 0.78158 0.47075 0.0
C935 C 0.29325 0.78795 0.46938 0.0
C936 C 0.28045 0.76559 0.5041 0.0
C937 C 0.36669 0.78333 0.48787 0.0
C938 C 0.35173 0.74829 0.53614 0.0
C939 C 0.18988 0.73538 0.53607 0.0
N940 N 0.3587 0.77232 0.50409 0.0
N941 N 0.19797 0.74639 0.5199 0.0
H942 H 0.65751 0.29398 0.50023 0.0
H943 H 0.89852 0.22694 0.5363 0.0
H944 H 0.93192 0.28382 0.46955 0.0
H945 H 0.62304 0.23672 0.56384 0.0
H946 H 0.91165 0.2472 0.50925 0.0
H947 H 0.64473 0.27352 0.52614 0.0
C948 C 0.71552 0.28761 0.5002 0.0
C949 C 0.79602 0.29063 0.48346 0.0
C950 C 0.84806 0.24485 0.5207 0.0
C951 C 0.78159 0.26687 0.51113 0.0
C952 C 0.84048 0.23321 0.53558 0.0
C953 C 0.75957 0.23018 0.55188 0.0
C954 C 0.77433 0.25367 0.52289 0.0
C955 C 0.68631 0.23865 0.55095 0.0
C956 C 0.70808 0.27583 0.51433 0.0
C957 C 0.86909 0.28194 0.48307 0.0
N958 N 0.69557 0.25012 0.53714 0.0
N959 N 0.86002 0.27036 0.49636 0.0
H960 H 0.90989 0.38952 0.14786 0.0
H961 H 0.12745 0.38998 0.38956 0.0
H962 H 0.18479 0.38018 0.15552 0.0
H963 H 0.86047 0.37544 0.35172 0.0
H964 H 0.14747 0.39006 0.30823 0.0
H965 H 0.88707 0.38807 0.22761 0.0
C966 C 0.96531 0.3873 0.16665 0.0
C967 C 0.04923 0.38499 0.14555 0.0
C968 C 0.08465 0.38678 0.31765 0.0
C969 C 1.02418 0.3835 0.23606 0.0
C970 C 0.07316 0.38678 0.36396 0.0
C971 C 0.99233 0.38269 0.37709 0.0
C972 C 1.01413 0.383 0.28466 0.0
C973 C 0.92397 0.37858 0.34269 0.0
C974 C 0.95224 0.38635 0.21168 0.0
C975 C 0.11902 0.38195 0.17068 0.0
N976 N 0.93607 0.37899 0.29805 0.0
N977 N 0.10514 0.38145 0.2149 0.0
H978 H 0.12721 0.63466 0.13923 0.0
H979 H 0.92723 0.62378 0.36615 0.0
H980 H 0.84866 0.63899 0.16728 0.0
H981 H 0.1728 0.64668 0.37818 0.0
H982 H 0.90207 0.62499 0.28651 0.0
H983 H 0.15089 0.63533 0.22153 0.0
C984 C 0.07119 0.63571 0.16284 0.0
C985 C 0.98596 0.63664 0.14674 0.0
C986 C 0.96122 0.62977 0.3068 0.0
C987 C 1.01206 0.63702 0.23966 0.0
C988 C 0.97593 0.62899 0.35188 0.0
C989 C 0.05214 0.63514 0.37863 0.0
C990 C 1.02415 0.63645 0.288 0.0
C991 C 0.11303 0.64185 0.35873 0.0
C992 C 0.08467 0.63614 0.20962 0.0
C993 C 0.91532 0.63819 0.1786 0.0
N994 N 0.09813 0.64221 0.31434 0.0
N995 N 0.92976 0.63808 0.22342 0.0
H996 H 0.07688 0.61479 0.84895 0.0
H997 H 0.16461 0.65413 0.68228 0.0
H998 H 0.93779 0.65644 0.89599 0.0
H999 H 0.97194 0.61926 0.6262 0.0
H1000 H 0.14245 0.65456 0.76451 0.0
H1001 H 0.09967 0.61549 0.76879 0.0
C1002 C 0.05053 0.62404 0.84257 0.0
C1003 C 1.00356 0.63544 0.87924 0.0
C1004 C 0.1051 0.64693 0.73391 0.0
C1005 C 0.03386 0.63653 0.78844 0.0
C1006 C 0.11697 0.64672 0.68717 0.0
C1007 C 0.06773 0.63702 0.64741 0.0
C1008 C 0.04637 0.63697 0.74031 0.0
C1009 C 1.0104 0.62711 0.6557 0.0
C1010 C 0.06446 0.62444 0.79697 0.0
C1011 C 0.97358 0.64734 0.86883 0.0
N1012 N 1.00163 0.62728 0.70121 0.0
N1013 N 0.98969 0.64763 0.82435 0.0
H1014 H 0.94888 0.36195 0.62596 0.0
H1015 H 0.98898 0.40173 0.90124 0.0
H1016 H 0.08176 0.40409 0.67578 0.0
H1017 H 0.16433 0.36425 0.83983 0.0
H1018 H 0.97364 0.40192 0.8201 0.0
H1019 H 0.97782 0.36118 0.70584 0.0
C1020 C 0.98372 0.37106 0.65351 0.0
C1021 C 1.01224 0.38317 0.64398 0.0
C1022 C 1.01448 0.39357 0.82464 0.0
C1023 C 0.04361 0.38236 0.7352 0.0
C1024 C 1.02351 0.39339 0.87083 0.0
C1025 C 0.07554 0.38255 0.87746 0.0
C1026 C 0.05605 0.38268 0.78447 0.0
C1027 C 0.11984 0.37229 0.83636 0.0
C1028 C 1.0004 0.37053 0.69882 0.0
C1029 C 0.05718 0.39463 0.68141 0.0
N1030 N 0.10787 0.37243 0.7913 0.0
N1031 N 0.07032 0.39405 0.72565 0.0
H1032 H 0.68569 0.87661 0.14887 0.0
H1033 H 0.35796 0.87418 0.35318 0.0
H1034 H 0.41149 0.8875 0.14861 0.0
H1035 H 0.62763 0.88795 0.38479 0.0
H1036 H 0.37623 0.87391 0.27078 0.0
H1037 H 0.66568 0.8758 0.22945 0.0
C1038 C 0.62128 0.87873 0.1658 0.0
C1039 C 0.55014 0.88218 0.14262 0.0
C1040 C 0.43119 0.87696 0.2959 0.0
C1041 C 0.52638 0.88094 0.23348 0.0
C1042 C 0.42097 0.87704 0.34256 0.0
C1043 C 0.49145 0.88111 0.3755 0.0
C1044 C 0.51282 0.88071 0.28215 0.0
C1045 C 0.57167 0.88483 0.36038 0.0
C1046 C 0.60994 0.87831 0.21161 0.0
C1047 C 0.46796 0.88495 0.16588 0.0
N1048 N 0.58042 0.88445 0.31465 0.0
N1049 N 0.45797 0.88413 0.20998 0.0
H1050 H 0.62934 0.13206 0.1387 0.0
H1051 H 0.40991 0.13141 0.37786 0.0
H1052 H 0.35961 0.14563 0.17353 0.0
H1053 H 0.68291 0.14209 0.3723 0.0
H1054 H 0.38667 0.13319 0.29871 0.0
H1055 H 0.64774 0.13227 0.22027 0.0
C1056 C 0.57405 0.13514 0.16376 0.0
C1057 C 0.4929 0.13885 0.14964 0.0
C1058 C 0.45146 0.13517 0.31501 0.0
C1059 C 0.51311 0.13889 0.24259 0.0
C1060 C 0.46485 0.13404 0.35972 0.0
C1061 C 0.54845 0.13658 0.38117 0.0
C1062 C 0.5228 0.13846 0.2913 0.0
C1063 C 0.61746 0.14013 0.35686 0.0
C1064 C 0.58468 0.1353 0.21026 0.0
C1065 C 0.42334 0.1428 0.18338 0.0
N1066 N 0.60336 0.14079 0.31289 0.0
N1067 N 0.43468 0.14255 0.22834 0.0
H1068 H 0.64758 0.13476 0.88368 0.0
H1069 H 0.43136 0.12683 0.63306 0.0
H1070 H 0.36785 0.13627 0.86443 0.0
H1071 H 0.68386 0.14781 0.67611 0.0
H1072 H 0.41462 0.12659 0.71389 0.0
H1073 H 0.67008 0.13624 0.80389 0.0
C1074 C 0.59117 0.13526 0.86229 0.0
C1075 C 0.50584 0.13532 0.87997 0.0
C1076 C 0.47349 0.13134 0.70583 0.0
C1077 C 0.53064 0.13682 0.78955 0.0
C1078 C 0.48335 0.13142 0.65965 0.0
C1079 C 0.55905 0.13739 0.648 0.0
C1080 C 0.54033 0.13706 0.74059 0.0
C1081 C 0.62424 0.1432 0.6839 0.0
C1082 C 0.60394 0.13623 0.81726 0.0
C1083 C 0.43458 0.13624 0.85179 0.0
N1084 N 0.61371 0.1428 0.72871 0.0
N1085 N 0.44852 0.13677 0.80764 0.0
H1086 H 0.43164 0.86312 0.63 0.0
H1087 H 0.48172 0.90151 0.89976 0.0
H1088 H 0.59332 0.90215 0.66957 0.0
H1089 H 0.67149 0.86608 0.84103 0.0
H1090 H 0.46463 0.90128 0.81792 0.0
H1091 H 0.46209 0.86285 0.71035 0.0
C1092 C 0.47334 0.87163 0.65538 0.0
C1093 C 0.50928 0.88277 0.64304 0.0
C1094 C 0.50957 0.89356 0.82332 0.0
C1095 C 0.54268 0.88251 0.73453 0.0
C1096 C 0.51964 0.89365 0.8698 0.0
C1097 C 0.57682 0.88356 0.87716 0.0
C1098 C 0.55597 0.88321 0.78396 0.0
C1099 C 0.62476 0.87374 0.83681 0.0
C1100 C 0.49066 0.8714 0.70095 0.0
C1101 C 0.56317 0.89346 0.67759 0.0
N1102 N 0.61234 0.87365 0.79156 0.0
N1103 N 0.57728 0.8932 0.72218 0.0
loop_
_geom_bond_atom_site_label_1
_geom_bond_atom_site_label_2
_geom_bond_distance
_geom_bond_site_symmetry_2
_ccdc_geom_bond_type
C0 C2 1.422 . S
C0 C4 1.415 . S
C0 N6 1.369 . S
C1 C2 1.421 . S
C1 C3 1.417 . S
C1 C13 1.422 . S
C2 C0 1.422 . S
C2 C1 1.421 . S
C2 N12 1.359 . S
C3 C1 1.417 . S
C3 C5 1.329 . S
C3 H22 0.930 . S
C4 C0 1.415 . S
C4 C5 1.437 . S
C4 C8 1.413 . S
C5 C3 1.329 . S
C5 C4 1.437 . S
C5 H27 0.929 . S
N6 C0 1.369 . S
N6 C7 1.338 . S
N6 Gd11 2.622 . S
C7 N6 1.338 . S
C7 C9 1.378 . S
C7 H19 0.929 . S
C8 C4 1.413 . S
C8 C9 1.348 . S
C8 H24 0.931 . S
C9 C7 1.378 . S
C9 C8 1.348 . S
C9 H25 0.930 . S
Gd10 N30 2.622 1_455 S
Gd10 N37 2.570 1_455 S
Gd10 O44 2.353 . S
Gd10 O45 2.468 1_556 S
Gd10 O46 2.427 . S
Gd10 O48 2.388 . S
Gd10 O49 2.386 1_455 S
Gd10 O53 2.307 1_556 S
Gd10 C63 2.805 . S
Gd11 N6 2.622 . S
Gd11 N12 2.570 . S
Gd11 O43 2.386 . S
Gd11 O47 2.307 1_554 S
Gd11 O50 2.353 1_455 S
Gd11 O51 2.468 . S
Gd11 O52 2.427 . S
Gd11 O54 2.388 . S
Gd11 C75 2.805 1_455 S
N12 C2 1.359 . S
N12 Gd11 2.570 . S
N12 C14 1.343 1_554 S
C13 C1 1.422 . S
C13 C15 1.321 1_554 S
C13 H21 0.921 1_554 S
C14 N12 1.343 1_556 S
C14 C15 1.390 . S
C14 H16 0.931 . S
C15 C13 1.321 1_556 S
C15 C14 1.390 . S
C15 H17 0.930 . S
H16 C14 0.931 . S
H17 C15 0.930 . S
H18 C41 0.931 . S
H19 C7 0.929 . S
H20 C42 0.930 . S
H21 C13 0.921 1_556 S
H22 C3 0.930 . S
H23 C32 0.929 1_455 S
H24 C8 0.931 . S
H25 C9 0.930 . S
H26 C64 0.930 . S
H27 C5 0.929 . S
H28 C33 0.931 . S
H29 C34 0.930 . S
N30 Gd10 2.622 1_655 S
N30 C31 1.369 . S
N30 C32 1.338 . S
C31 N30 1.369 . S
C31 C35 1.415 . S
C31 C38 1.422 . S
C32 H23 0.929 1_655 S
C32 N30 1.338 . S
C32 C34 1.378 . S
C33 H28 0.931 . S
C33 C34 1.348 . S
C33 C35 1.413 . S
C34 H29 0.930 . S
C34 C32 1.378 . S
C34 C33 1.348 . S
C35 C31 1.415 . S
C35 C33 1.413 . S
C35 C65 1.437 . S
H36 C65 0.929 . S
N37 Gd10 2.570 1_655 S
N37 C38 1.359 . S
N37 C41 1.343 1_556 S
C38 C31 1.422 . S
C38 N37 1.359 . S
C38 C40 1.421 . S
C39 C40 1.422 1_554 S
C39 C42 1.321 . S
C39 H66 0.931 . S
C40 C38 1.421 . S
C40 C39 1.422 1_556 S
C40 C64 1.417 . S
C41 H18 0.931 . S
C41 N37 1.343 1_554 S
C41 C42 1.390 . S
C42 H20 0.930 . S
C42 C39 1.321 . S
C42 C41 1.390 . S
O43 Gd11 2.386 . S
O43 C55 1.265 . S
O44 Gd10 2.353 . S
O44 C55 1.242 1_556 S
O45 Gd10 2.468 1_554 S
O45 C63 1.263 1_554 S
O46 Gd10 2.427 . S
O46 C63 1.252 . S
O47 Gd11 2.307 1_556 S
O47 C56 1.261 . S
O48 Gd10 2.388 . S
O48 C56 1.252 . S
O49 Gd10 2.386 1_655 S
O49 C67 1.265 1_556 S
O50 Gd11 2.353 1_655 S
O50 C67 1.242 . S
O51 Gd11 2.468 . S
O51 C75 1.263 1_455 S
O52 Gd11 2.427 . S
O52 C75 1.252 1_455 S
O53 Gd10 2.307 1_554 S
O53 C68 1.261 . S
O54 Gd11 2.388 . S
O54 C68 1.252 . S
C55 O43 1.265 . S
C55 O44 1.242 1_554 S
C56 O47 1.261 . S
C56 O48 1.252 . S
C57 C60 1.394 . S
C57 C62 1.370 1_556 S
C57 C63 1.500 . S
C58 C61 1.383 . S
C58 C62 1.395 1_556 S
C59 C60 1.396 . S
C59 C61 1.365 . S
C59 H76 0.929 . S
C60 C57 1.394 . S
C60 C59 1.396 . S
C60 H77 0.930 . S
C61 C58 1.383 . S
C61 C59 1.365 . S
C61 H78 0.931 . S
C62 C57 1.370 1_554 S
C62 C58 1.395 1_554 S
C62 H79 0.930 . S
C63 Gd10 2.805 . S
C63 O45 1.263 1_556 S
C63 O46 1.252 . S
C63 C57 1.500 . S
C64 H26 0.930 . S
C64 C40 1.417 . S
C64 C65 1.329 . S
C65 C35 1.437 . S
C65 H36 0.929 . S
C65 C64 1.329 . S
H66 C39 0.931 . S
C67 O49 1.265 1_554 S
C67 O50 1.242 . S
C68 O53 1.261 . S
C68 O54 1.252 . S
C69 C72 1.394 . S
C69 C74 1.370 . S
C69 C75 1.500 . S
C70 C73 1.383 . S
C70 C74 1.395 . S
C71 C72 1.396 . S
C71 C73 1.365 . S
C71 H80 0.929 . S
C72 C69 1.394 . S
C72 C71 1.396 . S
C72 H81 0.930 . S
C73 C70 1.383 . S
C73 C71 1.365 . S
C73 H82 0.931 . S
C74 C69 1.370 . S
C74 C70 1.395 . S
C74 H83 0.930 1_554 S
C75 Gd11 2.805 1_655 S
C75 O51 1.263 1_655 S
C75 O52 1.252 1_655 S
C75 C69 1.500 . S
H76 C59 0.929 . S
H77 C60 0.930 . S
H78 C61 0.931 . S
H79 C62 0.930 . S
H80 C71 0.929 . S
H81 C72 0.930 . S
H82 C73 0.931 . S
H83 C74 0.930 1_556 S
C84 C86 1.422 . S
C84 C88 1.415 . S
C84 N90 1.369 . S
C85 C86 1.421 . S
C85 C87 1.417 . S
C85 C97 1.422 . S
C86 C84 1.422 . S
C86 C85 1.421 . S
C86 N96 1.359 . S
C87 C85 1.417 . S
C87 C89 1.329 . S
C87 H106 0.930 . S
C88 C84 1.415 . S
C88 C89 1.437 . S
C88 C92 1.413 . S
C89 C87 1.329 . S
C89 C88 1.437 . S
C89 H111 0.929 . S
N90 C84 1.369 . S
N90 C91 1.338 . S
N90 Gd95 2.622 1_455 S
C91 N90 1.338 . S
C91 C93 1.378 . S
C91 H103 0.929 1_455 S
C92 C88 1.413 . S
C92 C93 1.348 . S
C92 H108 0.931 . S
C93 C91 1.378 . S
C93 C92 1.348 . S
C93 H109 0.930 . S
Gd94 N114 2.622 . S
Gd94 N121 2.570 . S
Gd94 O128 2.353 1_655 S
Gd94 O129 2.468 1_556 S
Gd94 O130 2.427 . S
Gd94 O132 2.388 . S
Gd94 O133 2.386 . S
Gd94 O137 2.307 1_556 S
Gd94 C147 2.805 1_655 S
Gd95 N90 2.622 1_655 S
Gd95 N96 2.570 1_655 S
Gd95 O127 2.386 1_655 S
Gd95 O131 2.307 1_554 S
Gd95 O134 2.353 . S
Gd95 O135 2.468 . S
Gd95 O136 2.427 . S
Gd95 O138 2.388 . S
Gd95 C159 2.805 . S
N96 C86 1.359 . S
N96 Gd95 2.570 1_455 S
N96 C98 1.343 1_554 S
C97 C85 1.422 . S
C97 C99 1.321 1_554 S
C97 H105 0.931 . S
C98 N96 1.343 1_556 S
C98 C99 1.390 . S
C98 H100 0.931 . S
C99 C97 1.321 1_556 S
C99 C98 1.390 . S
C99 H101 0.930 . S
H100 C98 0.931 . S
H101 C99 0.930 . S
H102 C125 0.931 . S
H103 C91 0.929 1_655 S
H104 C126 0.930 . S
H105 C97 0.931 . S
H106 C87 0.930 . S
H107 C116 0.929 . S
H108 C92 0.931 . S
H109 C93 0.930 . S
H110 C148 0.930 . S
H111 C89 0.929 . S
H112 C117 0.931 . S
H113 C118 0.930 . S
N114 Gd94 2.622 . S
N114 C115 1.369 . S
N114 C116 1.338 . S
C115 N114 1.369 . S
C115 C119 1.415 . S
C115 C122 1.422 . S
C116 H107 0.929 . S
C116 N114 1.338 . S
C116 C118 1.378 . S
C117 H112 0.931 . S
C117 C118 1.348 . S
C117 C119 1.413 . S
C118 H113 0.930 . S
C118 C116 1.378 . S
C118 C117 1.348 . S
C119 C115 1.415 . S
C119 C117 1.413 . S
C119 C149 1.437 . S
H120 C149 0.929 . S
N121 Gd94 2.570 . S
N121 C122 1.359 . S
N121 C125 1.343 1_556 S
C122 C115 1.422 . S
C122 N121 1.359 . S
C122 C124 1.421 . S
C123 C124 1.422 1_554 S
C123 C126 1.321 . S
C123 H150 0.931 . S
C124 C122 1.421 . S
C124 C123 1.422 1_556 S
C124 C148 1.417 . S
C125 H102 0.931 . S
C125 N121 1.343 1_554 S
C125 C126 1.390 . S
C126 H104 0.930 . S
C126 C123 1.321 . S
C126 C125 1.390 . S
O127 Gd95 2.386 1_455 S
O127 C139 1.265 . S
O128 Gd94 2.353 1_455 S
O128 C139 1.242 1_556 S
O129 Gd94 2.468 1_554 S
O129 C147 1.263 1_654 S
O130 Gd94 2.427 . S
O130 C147 1.252 1_655 S
O131 Gd95 2.307 1_556 S
O131 C140 1.261 . S
O132 Gd94 2.388 . S
O132 C140 1.252 . S
O133 Gd94 2.386 . S
O133 C151 1.265 1_556 S
O134 Gd95 2.353 . S
O134 C151 1.242 . S
O135 Gd95 2.468 . S
O135 C159 1.263 . S
O136 Gd95 2.427 . S
O136 C159 1.252 . S
O137 Gd94 2.307 1_554 S
O137 C152 1.261 . S
O138 Gd95 2.388 . S
O138 C152 1.252 . S
C139 O127 1.265 . S
C139 O128 1.242 1_554 S
C140 O131 1.261 . S
C140 O132 1.252 . S
C141 C144 1.394 . S
C141 C146 1.370 1_556 S
C141 C147 1.500 . S
C142 C145 1.391 . S
C142 C146 1.398 1_556 S
C143 C144 1.396 . S
C143 C145 1.365 . S
C143 H160 0.929 . S
C144 C141 1.394 . S
C144 C143 1.396 . S
C144 H161 0.930 . S
C145 C142 1.391 . S
C145 C143 1.365 . S
C145 H162 0.931 . S
C146 C141 1.370 1_554 S
C146 C142 1.398 1_554 S
C146 H163 0.930 . S
C147 Gd94 2.805 1_455 S
C147 O129 1.263 1_456 S
C147 O130 1.252 1_455 S
C147 C141 1.500 . S
C148 H110 0.930 . S
C148 C124 1.417 . S
C148 C149 1.329 . S
C149 C119 1.437 . S
C149 H120 0.929 . S
C149 C148 1.329 . S
H150 C123 0.931 . S
C151 O133 1.265 1_554 S
C151 O134 1.242 . S
C152 O137 1.261 . S
C152 O138 1.252 . S
C153 C156 1.394 . S
C153 C158 1.370 . S
C153 C159 1.500 . S
C154 C157 1.383 . S
C154 C158 1.395 . S
C155 C156 1.396 . S
C155 C157 1.365 . S
C155 H164 0.929 . S
C156 C153 1.394 . S
C156 C155 1.396 . S
C156 H165 0.930 . S
C157 C154 1.383 . S
C157 C155 1.365 . S
C157 H166 0.931 . S
C158 C153 1.370 . S
C158 C154 1.395 . S
C158 H167 0.930 1_554 S
C159 Gd95 2.805 . S
C159 O135 1.263 . S
C159 O136 1.252 . S
C159 C153 1.500 . S
H160 C143 0.929 . S
H161 C144 0.930 . S
H162 C145 0.931 . S
H163 C146 0.930 . S
H164 C155 0.929 . S
H165 C156 0.930 . S
H166 C157 0.931 . S
H167 C158 0.930 1_556 S
C168 C170 1.422 . S
C168 C172 1.415 . S
C168 N174 1.369 . S
C169 C170 1.421 . S
C169 C171 1.417 . S
C169 C181 1.422 . S
C170 C168 1.422 . S
C170 C169 1.421 . S
C170 N180 1.359 . S
C171 C169 1.417 . S
C171 C173 1.329 . S
C171 H190 0.930 . S
C172 C168 1.415 . S
C172 C173 1.437 . S
C172 C176 1.413 . S
C173 C171 1.329 . S
C173 C172 1.437 . S
C173 H195 0.929 . S
N174 C168 1.369 . S
N174 C175 1.338 . S
N174 Gd179 2.622 . S
C175 N174 1.338 . S
C175 C177 1.378 . S
C175 H187 0.929 . S
C176 C172 1.413 . S
C176 C177 1.348 . S
C176 H192 0.931 . S
C177 C175 1.378 . S
C177 C176 1.348 . S
C177 H193 0.930 . S
Gd178 N198 2.622 1_455 S
Gd178 N205 2.570 1_455 S
Gd178 O212 2.353 . S
Gd178 O213 2.468 . S
Gd178 O214 2.427 . S
Gd178 O216 2.388 . S
Gd178 O217 2.386 1_455 S
Gd178 O221 2.307 . S
Gd178 C231 2.805 . S
Gd179 N174 2.622 . S
Gd179 N180 2.570 . S
Gd179 O211 2.386 . S
Gd179 O215 2.307 . S
Gd179 O218 2.353 1_455 S
Gd179 O219 2.468 . S
Gd179 O220 2.427 . S
Gd179 O222 2.388 . S
Gd179 C243 2.805 1_455 S
N180 C170 1.359 . S
N180 Gd179 2.570 . S
N180 C182 1.343 . S
C181 C169 1.422 . S
C181 C183 1.321 . S
C181 H189 0.931 . S
C182 N180 1.343 . S
C182 C183 1.390 . S
C182 H184 0.931 . S
C183 C181 1.321 . S
C183 C182 1.390 . S
C183 H185 0.930 . S
H184 C182 0.931 . S
H185 C183 0.930 . S
H186 C209 0.931 . S
H187 C175 0.929 . S
H188 C210 0.930 . S
H189 C181 0.931 . S
H190 C171 0.930 . S
H191 C200 0.929 1_455 S
H192 C176 0.931 . S
H193 C177 0.930 . S
H194 C232 0.930 . S
H195 C173 0.929 . S
H196 C201 0.931 . S
H197 C202 0.930 . S
N198 Gd178 2.622 1_655 S
N198 C199 1.369 . S
N198 C200 1.338 . S
C199 N198 1.369 . S
C199 C203 1.415 . S
C199 C206 1.422 . S
C200 H191 0.929 1_655 S
C200 N198 1.338 . S
C200 C202 1.378 . S
C201 H196 0.931 . S
C201 C202 1.348 . S
C201 C203 1.413 . S
C202 H197 0.930 . S
C202 C200 1.378 . S
C202 C201 1.348 . S
C203 C199 1.415 . S
C203 C201 1.413 . S
C203 C233 1.437 . S
H204 C233 0.929 . S
N205 Gd178 2.570 1_655 S
N205 C206 1.359 . S
N205 C209 1.343 . S
C206 C199 1.422 . S
C206 N205 1.359 . S
C206 C208 1.421 . S
C207 C208 1.422 . S
C207 C210 1.321 . S
C207 H234 0.931 . S
C208 C206 1.421 . S
C208 C207 1.422 . S
C208 C232 1.417 . S
C209 H186 0.931 . S
C209 N205 1.343 . S
C209 C210 1.390 . S
C210 H188 0.930 . S
C210 C207 1.321 . S
C210 C209 1.390 . S
O211 Gd179 2.386 . S
O211 C223 1.265 . S
O212 Gd178 2.353 . S
O212 C223 1.242 . S
O213 Gd178 2.468 . S
O213 C231 1.263 . S
O214 Gd178 2.427 . S
O214 C231 1.252 . S
O215 Gd179 2.307 . S
O215 C224 1.261 . S
O216 Gd178 2.388 . S
O216 C224 1.252 . S
O217 Gd178 2.386 1_655 S
O217 C235 1.265 . S
O218 Gd179 2.353 1_655 S
O218 C235 1.242 . S
O219 Gd179 2.468 . S
O219 C243 1.263 1_455 S
O220 Gd179 2.427 . S
O220 C243 1.252 1_455 S
O221 Gd178 2.307 . S
O221 C236 1.261 . S
O222 Gd179 2.388 . S
O222 C236 1.252 . S
C223 O211 1.265 . S
C223 O212 1.242 . S
C224 O215 1.261 . S
C224 O216 1.252 . S
C225 C228 1.394 . S
C225 C230 1.370 . S
C225 C231 1.500 . S
C226 C229 1.383 . S
C226 C230 1.395 . S
C227 C228 1.396 . S
C227 C229 1.365 . S
C227 H244 0.929 . S
C228 C225 1.394 . S
C228 C227 1.396 . S
C228 H245 0.930 . S
C229 C226 1.383 . S
C229 C227 1.365 . S
C229 H246 0.931 . S
C230 C225 1.370 . S
C230 C226 1.395 . S
C230 H247 0.930 . S
C231 Gd178 2.805 . S
C231 O213 1.263 . S
C231 O214 1.252 . S
C231 C225 1.500 . S
C232 H194 0.930 . S
C232 C208 1.417 . S
C232 C233 1.329 . S
C233 C203 1.437 . S
C233 H204 0.929 . S
C233 C232 1.329 . S
H234 C207 0.931 . S
C235 O217 1.265 . S
C235 O218 1.242 . S
C236 O221 1.261 . S
C236 O222 1.252 . S
C237 C240 1.394 . S
C237 C242 1.370 . S
C237 C243 1.500 . S
C238 C241 1.383 . S
C238 C242 1.395 . S
C239 C240 1.396 . S
C239 C241 1.365 . S
C239 H248 0.929 . S
C240 C237 1.394 . S
C240 C239 1.396 . S
C240 H249 0.930 . S
C241 C238 1.383 . S
C241 C239 1.365 . S
C241 H250 0.931 . S
C242 C237 1.370 . S
C242 C238 1.395 . S
C242 H251 0.930 . S
C243 Gd179 2.805 1_655 S
C243 O219 1.263 1_655 S
C243 O220 1.252 1_655 S
C243 C237 1.500 . S
H244 C227 0.929 . S
H245 C228 0.930 . S
H246 C229 0.931 . S
H247 C230 0.930 . S
H248 C239 0.929 . S
H249 C240 0.930 . S
H250 C241 0.931 . S
H251 C242 0.930 . S
C252 C254 1.422 . S
C252 C256 1.415 . S
C252 N258 1.369 . S
C253 C254 1.421 . S
C253 C255 1.417 . S
C253 C265 1.422 . S
C254 C252 1.422 . S
C254 C253 1.421 . S
C254 N264 1.359 . S
C255 C253 1.417 . S
C255 C257 1.329 . S
C255 H274 0.930 . S
C256 C252 1.415 . S
C256 C257 1.437 . S
C256 C260 1.413 . S
C257 C255 1.329 . S
C257 C256 1.437 . S
C257 H279 0.929 . S
N258 C252 1.369 . S
N258 C259 1.338 . S
N258 Gd263 2.622 1_455 S
C259 N258 1.338 . S
C259 C261 1.378 . S
C259 H271 0.929 1_455 S
C260 C256 1.413 . S
C260 C261 1.348 . S
C260 H276 0.931 . S
C261 C259 1.378 . S
C261 C260 1.348 . S
C261 H277 0.930 . S
Gd262 N282 2.622 . S
Gd262 N289 2.570 . S
Gd262 O296 2.353 1_655 S
Gd262 O297 2.468 . S
Gd262 O298 2.427 . S
Gd262 O300 2.388 . S
Gd262 O301 2.386 . S
Gd262 O305 2.307 . S
Gd262 C315 2.805 1_655 S
Gd263 N258 2.622 1_655 S
Gd263 N264 2.570 1_655 S
Gd263 O295 2.386 1_655 S
Gd263 O299 2.307 . S
Gd263 O302 2.353 . S
Gd263 O303 2.468 . S
Gd263 O304 2.427 . S
Gd263 O306 2.388 . S
Gd263 C327 2.805 . S
N264 C254 1.359 . S
N264 Gd263 2.570 1_455 S
N264 C266 1.343 . S
C265 C253 1.422 . S
C265 C267 1.321 . S
C265 H273 0.931 . S
C266 N264 1.343 . S
C266 C267 1.390 . S
C266 H268 0.931 . S
C267 C265 1.321 . S
C267 C266 1.390 . S
C267 H269 0.930 . S
H268 C266 0.931 . S
H269 C267 0.930 . S
H270 C293 0.931 . S
H271 C259 0.929 1_655 S
H272 C294 0.930 . S
H273 C265 0.931 . S
H274 C255 0.930 . S
H275 C284 0.929 . S
H276 C260 0.931 . S
H277 C261 0.930 . S
H278 C316 0.930 . S
H279 C257 0.929 . S
H280 C285 0.931 . S
H281 C286 0.930 . S
N282 Gd262 2.622 . S
N282 C283 1.369 . S
N282 C284 1.338 . S
C283 N282 1.369 . S
C283 C287 1.415 . S
C283 C290 1.422 . S
C284 H275 0.929 . S
C284 N282 1.338 . S
C284 C286 1.378 . S
C285 H280 0.931 . S
C285 C286 1.348 . S
C285 C287 1.413 . S
C286 H281 0.930 . S
C286 C284 1.378 . S
C286 C285 1.348 . S
C287 C283 1.415 . S
C287 C285 1.413 . S
C287 C317 1.437 . S
H288 C317 0.929 . S
N289 Gd262 2.570 . S
N289 C290 1.359 . S
N289 C293 1.343 . S
C290 C283 1.422 . S
C290 N289 1.359 . S
C290 C292 1.421 . S
C291 C292 1.422 . S
C291 C294 1.321 . S
C291 H318 0.931 . S
C292 C290 1.421 . S
C292 C291 1.422 . S
C292 C316 1.417 . S
C293 H270 0.931 . S
C293 N289 1.343 . S
C293 C294 1.390 . S
C294 H272 0.930 . S
C294 C291 1.321 . S
C294 C293 1.390 . S
O295 Gd263 2.386 1_455 S
O295 C307 1.265 . S
O296 Gd262 2.353 1_455 S
O296 C307 1.242 . S
O297 Gd262 2.468 . S
O297 C315 1.263 1_655 S
O298 Gd262 2.427 . S
O298 C315 1.252 1_655 S
O299 Gd263 2.307 . S
O299 C308 1.261 . S
O300 Gd262 2.388 . S
O300 C308 1.252 . S
O301 Gd262 2.386 . S
O301 C319 1.265 . S
O302 Gd263 2.353 . S
O302 C319 1.242 . S
O303 Gd263 2.468 . S
O303 C327 1.263 . S
O304 Gd263 2.427 . S
O304 C327 1.252 . S
O305 Gd262 2.307 . S
O305 C320 1.261 . S
O306 Gd263 2.388 . S
O306 C320 1.252 . S
C307 O295 1.265 . S
C307 O296 1.242 . S
C308 O299 1.261 . S
C308 O300 1.252 . S
C309 C312 1.394 . S
C309 C314 1.370 . S
C309 C315 1.500 . S
C310 C313 1.383 . S
C310 C314 1.395 . S
C311 C312 1.396 . S
C311 C313 1.365 . S
C311 H328 0.929 . S
C312 C309 1.394 . S
C312 C311 1.396 . S
C312 H329 0.930 . S
C313 C310 1.383 . S
C313 C311 1.365 . S
C313 H330 0.931 . S
C314 C309 1.370 . S
C314 C310 1.395 . S
C314 H331 0.930 . S
C315 Gd262 2.805 1_455 S
C315 O297 1.263 1_455 S
C315 O298 1.252 1_455 S
C315 C309 1.500 . S
C316 H278 0.930 . S
C316 C292 1.417 . S
C316 C317 1.329 . S
C317 C287 1.437 . S
C317 H288 0.929 . S
C317 C316 1.329 . S
H318 C291 0.931 . S
C319 O301 1.265 . S
C319 O302 1.242 . S
C320 O305 1.261 . S
C320 O306 1.252 . S
C321 C324 1.394 . S
C321 C326 1.370 . S
C321 C327 1.500 . S
C322 C325 1.383 . S
C322 C326 1.395 . S
C323 C324 1.396 . S
C323 C325 1.365 . S
C323 H332 0.929 . S
C324 C321 1.394 . S
C324 C323 1.396 . S
C324 H333 0.930 . S
C325 C322 1.383 . S
C325 C323 1.365 . S
C325 H334 0.931 . S
C326 C321 1.370 . S
C326 C322 1.395 . S
C326 H335 0.930 . S
C327 Gd263 2.805 . S
C327 O303 1.263 . S
C327 O304 1.252 . S
C327 C321 1.500 . S
H328 C311 0.929 . S
H329 C312 0.930 . S
H330 C313 0.931 . S
H331 C314 0.930 . S
H332 C323 0.929 . S
H333 C324 0.930 . S
H334 C325 0.931 . S
H335 C326 0.930 . S
C336 C338 1.422 . S
C336 C340 1.415 . S
C336 N342 1.369 . S
C337 C338 1.421 . S
C337 C339 1.417 . S
C337 C349 1.422 . S
C338 C336 1.422 . S
C338 C337 1.421 . S
C338 N348 1.359 . S
C339 C337 1.417 . S
C339 C341 1.329 . S
C339 H358 0.930 . S
C340 C336 1.415 . S
C340 C341 1.437 . S
C340 C344 1.413 . S
C341 C339 1.329 . S
C341 C340 1.437 . S
C341 H363 0.929 . S
N342 C336 1.369 . S
N342 C343 1.338 . S
N342 Gd347 2.622 . S
C343 N342 1.338 . S
C343 C345 1.378 . S
C343 H355 0.929 . S
C344 C340 1.413 . S
C344 C345 1.348 . S
C344 H360 0.931 . S
C345 C343 1.378 . S
C345 C344 1.348 . S
C345 H361 0.930 . S
Gd346 N366 2.622 . S
Gd346 N373 2.570 . S
Gd346 O380 2.353 . S
Gd346 O381 2.468 1_556 S
Gd346 O382 2.427 . S
Gd346 O384 2.388 . S
Gd346 O385 2.386 . S
Gd346 O389 2.307 1_556 S
Gd346 C399 2.805 . S
Gd347 N342 2.622 . S
Gd347 N348 2.570 . S
Gd347 O379 2.386 . S
Gd347 O383 2.307 1_554 S
Gd347 O386 2.353 . S
Gd347 O387 2.468 . S
Gd347 O388 2.427 . S
Gd347 O390 2.388 . S
Gd347 C411 2.805 . S
N348 C338 1.359 . S
N348 Gd347 2.570 . S
N348 C350 1.343 1_554 S
C349 C337 1.422 . S
C349 C351 1.321 1_554 S
C349 H357 0.922 1_554 S
C350 N348 1.343 1_556 S
C350 C351 1.390 . S
C350 H352 0.931 . S
C351 C349 1.321 1_556 S
C351 C350 1.390 . S
C351 H353 0.930 . S
H352 C350 0.931 . S
H353 C351 0.930 . S
H354 C377 0.931 . S
H355 C343 0.929 . S
H356 C378 0.930 . S
H357 C349 0.922 1_556 S
H358 C339 0.930 . S
H359 C368 0.929 . S
H360 C344 0.931 . S
H361 C345 0.930 . S
H362 C400 0.930 . S
H363 C341 0.929 . S
H364 C369 0.931 . S
H365 C370 0.930 . S
N366 Gd346 2.622 . S
N366 C367 1.369 . S
N366 C368 1.338 . S
C367 N366 1.369 . S
C367 C371 1.415 . S
C367 C374 1.422 . S
C368 H359 0.929 . S
C368 N366 1.338 . S
C368 C370 1.378 . S
C369 H364 0.931 . S
C369 C370 1.348 . S
C369 C371 1.413 . S
C370 H365 0.930 . S
C370 C368 1.378 . S
C370 C369 1.348 . S
C371 C367 1.415 . S
C371 C369 1.413 . S
C371 C401 1.437 . S
H372 C401 0.929 . S
N373 Gd346 2.570 . S
N373 C374 1.359 . S
N373 C377 1.343 1_556 S
C374 C367 1.422 . S
C374 N373 1.359 . S
C374 C376 1.421 . S
C375 C376 1.422 1_554 S
C375 C378 1.321 . S
C375 H402 0.931 . S
C376 C374 1.421 . S
C376 C375 1.422 1_556 S
C376 C400 1.417 . S
C377 H354 0.931 . S
C377 N373 1.343 1_554 S
C377 C378 1.390 . S
C378 H356 0.930 . S
C378 C375 1.321 . S
C378 C377 1.390 . S
O379 Gd347 2.386 . S
O379 C391 1.265 . S
O380 Gd346 2.353 . S
O380 C391 1.242 1_556 S
O381 Gd346 2.468 1_554 S
O381 C399 1.263 1_554 S
O382 Gd346 2.427 . S
O382 C399 1.252 . S
O383 Gd347 2.307 1_556 S
O383 C392 1.261 . S
O384 Gd346 2.388 . S
O384 C392 1.252 . S
O385 Gd346 2.386 . S
O385 C403 1.265 1_556 S
O386 Gd347 2.353 . S
O386 C403 1.242 . S
O387 Gd347 2.468 . S
O387 C411 1.263 . S
O388 Gd347 2.427 . S
O388 C411 1.252 . S
O389 Gd346 2.307 1_554 S
O389 C404 1.261 . S
O390 Gd347 2.388 . S
O390 C404 1.252 . S
C391 O379 1.265 . S
C391 O380 1.242 1_554 S
C392 O383 1.261 . S
C392 O384 1.252 . S
C393 C396 1.394 . S
C393 C398 1.368 1_556 S
C393 C399 1.500 . S
C394 C397 1.383 . S
C394 C398 1.396 1_556 S
C395 C396 1.396 . S
C395 C397 1.365 . S
C395 H412 0.929 . S
C396 C393 1.394 . S
C396 C395 1.396 . S
C396 H413 0.930 . S
C397 C394 1.383 . S
C397 C395 1.365 . S
C397 H414 0.931 . S
C398 C393 1.368 1_554 S
C398 C394 1.396 1_554 S
C398 H415 0.932 . S
C399 Gd346 2.805 . S
C399 O381 1.263 1_556 S
C399 O382 1.252 . S
C399 C393 1.500 . S
C400 H362 0.930 . S
C400 C376 1.417 . S
C400 C401 1.329 . S
C401 C371 1.437 . S
C401 H372 0.929 . S
C401 C400 1.329 . S
H402 C375 0.931 . S
C403 O385 1.265 1_554 S
C403 O386 1.242 . S
C404 O389 1.261 . S
C404 O390 1.252 . S
C405 C408 1.394 . S
C405 C410 1.370 . S
C405 C411 1.500 . S
C406 C409 1.383 . S
C406 C410 1.395 . S
C407 C408 1.396 . S
C407 C409 1.365 . S
C407 H416 0.929 . S
C408 C405 1.394 . S
C408 C407 1.396 . S
C408 H417 0.930 . S
C409 C406 1.383 . S
C409 C407 1.365 . S
C409 H418 0.931 . S
C410 C405 1.370 . S
C410 C406 1.395 . S
C410 H419 0.930 1_554 S
C411 Gd347 2.805 . S
C411 O387 1.263 . S
C411 O388 1.252 . S
C411 C405 1.500 . S
H412 C395 0.929 . S
H413 C396 0.930 . S
H414 C397 0.931 . S
H415 C398 0.932 . S
H416 C407 0.929 . S
H417 C408 0.930 . S
H418 C409 0.931 . S
H419 C410 0.930 1_556 S
C420 C422 1.422 . S
C420 C424 1.415 . S
C420 N426 1.369 . S
C421 C422 1.421 . S
C421 C423 1.417 . S
C421 C433 1.422 . S
C422 C420 1.422 . S
C422 C421 1.421 . S
C422 N432 1.359 . S
C423 C421 1.417 . S
C423 C425 1.329 . S
C423 H442 0.930 . S
C424 C420 1.415 . S
C424 C425 1.437 . S
C424 C428 1.413 . S
C425 C423 1.329 . S
C425 C424 1.437 . S
C425 H447 0.929 . S
N426 C420 1.369 . S
N426 C427 1.338 . S
N426 Gd431 2.622 . S
C427 N426 1.338 . S
C427 C429 1.378 . S
C427 H439 0.929 . S
C428 C424 1.413 . S
C428 C429 1.348 . S
C428 H444 0.931 . S
C429 C427 1.378 . S
C429 C428 1.348 . S
C429 H445 0.930 . S
Gd430 N450 2.622 . S
Gd430 N457 2.570 . S
Gd430 O464 2.353 . S
Gd430 O465 2.468 1_556 S
Gd430 O466 2.427 . S
Gd430 O468 2.388 . S
Gd430 O469 2.386 . S
Gd430 O473 2.307 1_556 S
Gd430 C483 2.805 . S
Gd431 N426 2.622 . S
Gd431 N432 2.570 . S
Gd431 O463 2.386 . S
Gd431 O467 2.307 1_554 S
Gd431 O470 2.353 . S
Gd431 O471 2.468 . S
Gd431 O472 2.427 . S
Gd431 O474 2.388 . S
Gd431 C495 2.805 . S
N432 C422 1.359 . S
N432 Gd431 2.570 . S
N432 C434 1.343 1_554 S
C433 C421 1.422 . S
C433 C435 1.321 1_554 S
C433 H441 0.931 . S
C434 N432 1.343 1_556 S
C434 C435 1.390 . S
C434 H436 0.931 . S
C435 C433 1.321 1_556 S
C435 C434 1.390 . S
C435 H437 0.930 . S
H436 C434 0.931 . S
H437 C435 0.930 . S
H438 C461 0.931 . S
H439 C427 0.929 . S
H440 C462 0.930 . S
H441 C433 0.931 . S
H442 C423 0.930 . S
H443 C452 0.929 . S
H444 C428 0.931 . S
H445 C429 0.930 . S
H446 C484 0.930 . S
H447 C425 0.929 . S
H448 C453 0.931 . S
H449 C454 0.930 . S
N450 Gd430 2.622 . S
N450 C451 1.369 . S
N450 C452 1.338 . S
C451 N450 1.369 . S
C451 C455 1.415 . S
C451 C458 1.422 . S
C452 H443 0.929 . S
C452 N450 1.338 . S
C452 C454 1.378 . S
C453 H448 0.931 . S
C453 C454 1.348 . S
C453 C455 1.413 . S
C454 H449 0.930 . S
C454 C452 1.378 . S
C454 C453 1.348 . S
C455 C451 1.415 . S
C455 C453 1.413 . S
C455 C485 1.437 . S
H456 C485 0.929 . S
N457 Gd430 2.570 . S
N457 C458 1.359 . S
N457 C461 1.343 1_556 S
C458 C451 1.422 . S
C458 N457 1.359 . S
C458 C460 1.421 . S
C459 C460 1.422 1_554 S
C459 C462 1.321 . S
C459 H486 0.931 . S
C460 C458 1.421 . S
C460 C459 1.422 1_556 S
C460 C484 1.417 . S
C461 H438 0.931 . S
C461 N457 1.343 1_554 S
C461 C462 1.390 . S
C462 H440 0.930 . S
C462 C459 1.321 . S
C462 C461 1.390 . S
O463 Gd431 2.386 . S
O463 C475 1.265 . S
O464 Gd430 2.353 . S
O464 C475 1.242 1_556 S
O465 Gd430 2.468 1_554 S
O465 C483 1.263 1_554 S
O466 Gd430 2.427 . S
O466 C483 1.252 . S
O467 Gd431 2.307 1_556 S
O467 C476 1.261 . S
O468 Gd430 2.388 . S
O468 C476 1.252 . S
O469 Gd430 2.386 . S
O469 C487 1.265 1_556 S
O470 Gd431 2.353 . S
O470 C487 1.242 . S
O471 Gd431 2.468 . S
O471 C495 1.263 . S
O472 Gd431 2.427 . S
O472 C495 1.252 . S
O473 Gd430 2.307 1_554 S
O473 C488 1.261 . S
O474 Gd431 2.388 . S
O474 C488 1.252 . S
C475 O463 1.265 . S
C475 O464 1.242 1_554 S
C476 O467 1.261 . S
C476 O468 1.252 . S
C477 C480 1.394 . S
C477 C482 1.370 1_556 S
C477 C483 1.500 . S
C478 C481 1.392 . S
C478 C482 1.399 1_556 S
C479 C480 1.396 . S
C479 C481 1.365 . S
C479 H496 0.929 . S
C480 C477 1.394 . S
C480 C479 1.396 . S
C480 H497 0.930 . S
C481 C478 1.392 . S
C481 C479 1.365 . S
C481 H498 0.931 . S
C482 C477 1.370 1_554 S
C482 C478 1.399 1_554 S
C482 H499 0.930 . S
C483 Gd430 2.805 . S
C483 O465 1.263 1_556 S
C483 O466 1.252 . S
C483 C477 1.500 . S
C484 H446 0.930 . S
C484 C460 1.417 . S
C484 C485 1.329 . S
C485 C455 1.437 . S
C485 H456 0.929 . S
C485 C484 1.329 . S
H486 C459 0.931 . S
C487 O469 1.265 1_554 S
C487 O470 1.242 . S
C488 O473 1.261 . S
C488 O474 1.252 . S
C489 C492 1.394 . S
C489 C494 1.370 . S
C489 C495 1.500 . S
C490 C493 1.383 . S
C490 C494 1.395 . S
C491 C492 1.396 . S
C491 C493 1.365 . S
C491 H500 0.929 . S
C492 C489 1.394 . S
C492 C491 1.396 . S
C492 H501 0.930 . S
C493 C490 1.383 . S
C493 C491 1.365 . S
C493 H502 0.931 . S
C494 C489 1.370 . S
C494 C490 1.395 . S
C494 H503 0.930 1_554 S
C495 Gd431 2.805 . S
C495 O471 1.263 . S
C495 O472 1.252 . S
C495 C489 1.500 . S
H496 C479 0.929 . S
H497 C480 0.930 . S
H498 C481 0.931 . S
H499 C482 0.930 . S
H500 C491 0.929 . S
H501 C492 0.930 . S
H502 C493 0.931 . S
H503 C494 0.930 1_556 S
C504 C506 1.422 . S
C504 C508 1.415 . S
C504 N510 1.369 . S
C505 C506 1.421 . S
C505 C507 1.417 . S
C505 C517 1.422 . S
C506 C504 1.422 . S
C506 C505 1.421 . S
C506 N516 1.359 . S
C507 C505 1.417 . S
C507 C509 1.329 . S
C507 H526 0.930 . S
C508 C504 1.415 . S
C508 C509 1.437 . S
C508 C512 1.413 . S
C509 C507 1.329 . S
C509 C508 1.437 . S
C509 H531 0.929 . S
N510 C504 1.369 . S
N510 C511 1.338 . S
N510 Gd515 2.622 . S
C511 N510 1.338 . S
C511 C513 1.378 . S
C511 H523 0.929 . S
C512 C508 1.413 . S
C512 C513 1.348 . S
C512 H528 0.931 . S
C513 C511 1.378 . S
C513 C512 1.348 . S
C513 H529 0.930 . S
Gd514 N534 2.622 . S
Gd514 N541 2.570 . S
Gd514 O548 2.353 . S
Gd514 O549 2.468 . S
Gd514 O550 2.427 . S
Gd514 O552 2.388 . S
Gd514 O553 2.386 . S
Gd514 O557 2.307 . S
Gd514 C567 2.805 . S
Gd515 N510 2.622 . S
Gd515 N516 2.570 . S
Gd515 O547 2.386 . S
Gd515 O551 2.307 . S
Gd515 O554 2.353 . S
Gd515 O555 2.468 . S
Gd515 O556 2.427 . S
Gd515 O558 2.388 . S
Gd515 C579 2.805 . S
N516 C506 1.359 . S
N516 Gd515 2.570 . S
N516 C518 1.343 . S
C517 C505 1.422 . S
C517 C519 1.321 . S
C517 H525 0.931 . S
C518 N516 1.343 . S
C518 C519 1.390 . S
C518 H520 0.931 . S
C519 C517 1.321 . S
C519 C518 1.390 . S
C519 H521 0.930 . S
H520 C518 0.931 . S
H521 C519 0.930 . S
H522 C545 0.931 . S
H523 C511 0.929 . S
H524 C546 0.930 . S
H525 C517 0.931 . S
H526 C507 0.930 . S
H527 C536 0.929 . S
H528 C512 0.931 . S
H529 C513 0.930 . S
H530 C568 0.930 . S
H531 C509 0.929 . S
H532 C537 0.931 . S
H533 C538 0.930 . S
N534 Gd514 2.622 . S
N534 C535 1.369 . S
N534 C536 1.338 . S
C535 N534 1.369 . S
C535 C539 1.415 . S
C535 C542 1.422 . S
C536 H527 0.929 . S
C536 N534 1.338 . S
C536 C538 1.378 . S
C537 H532 0.931 . S
C537 C538 1.348 . S
C537 C539 1.413 . S
C538 H533 0.930 . S
C538 C536 1.378 . S
C538 C537 1.348 . S
C539 C535 1.415 . S
C539 C537 1.413 . S
C539 C569 1.437 . S
H540 C569 0.929 . S
N541 Gd514 2.570 . S
N541 C542 1.359 . S
N541 C545 1.343 . S
C542 C535 1.422 . S
C542 N541 1.359 . S
C542 C544 1.421 . S
C543 C544 1.422 . S
C543 C546 1.321 . S
C543 H570 0.931 . S
C544 C542 1.421 . S
C544 C543 1.422 . S
C544 C568 1.417 . S
C545 H522 0.931 . S
C545 N541 1.343 . S
C545 C546 1.390 . S
C546 H524 0.930 . S
C546 C543 1.321 . S
C546 C545 1.390 . S
O547 Gd515 2.386 . S
O547 C559 1.265 . S
O548 Gd514 2.353 . S
O548 C559 1.242 . S
O549 Gd514 2.468 . S
O549 C567 1.263 . S
O550 Gd514 2.427 . S
O550 C567 1.252 . S
O551 Gd515 2.307 . S
O551 C560 1.261 . S
O552 Gd514 2.388 . S
O552 C560 1.252 . S
O553 Gd514 2.386 . S
O553 C571 1.265 . S
O554 Gd515 2.353 . S
O554 C571 1.242 . S
O555 Gd515 2.468 . S
O555 C579 1.263 . S
O556 Gd515 2.427 . S
O556 C579 1.252 . S
O557 Gd514 2.307 . S
O557 C572 1.261 . S
O558 Gd515 2.388 . S
O558 C572 1.252 . S
C559 O547 1.265 . S
C559 O548 1.242 . S
C560 O551 1.261 . S
C560 O552 1.252 . S
C561 C564 1.394 . S
C561 C566 1.370 . S
C561 C567 1.500 . S
C562 C565 1.383 . S
C562 C566 1.395 . S
C563 C564 1.396 . S
C563 C565 1.365 . S
C563 H580 0.929 . S
C564 C561 1.394 . S
C564 C563 1.396 . S
C564 H581 0.930 . S
C565 C562 1.383 . S
C565 C563 1.365 . S
C565 H582 0.931 . S
C566 C561 1.370 . S
C566 C562 1.395 . S
C566 H583 0.930 . S
C567 Gd514 2.805 . S
C567 O549 1.263 . S
C567 O550 1.252 . S
C567 C561 1.500 . S
C568 H530 0.930 . S
C568 C544 1.417 . S
C568 C569 1.329 . S
C569 C539 1.437 . S
C569 H540 0.929 . S
C569 C568 1.329 . S
H570 C543 0.931 . S
C571 O553 1.265 . S
C571 O554 1.242 . S
C572 O557 1.261 . S
C572 O558 1.252 . S
C573 C576 1.394 . S
C573 C578 1.370 . S
C573 C579 1.500 . S
C574 C577 1.383 . S
C574 C578 1.395 . S
C575 C576 1.396 . S
C575 C577 1.365 . S
C575 H584 0.929 . S
C576 C573 1.394 . S
C576 C575 1.396 . S
C576 H585 0.930 . S
C577 C574 1.383 . S
C577 C575 1.365 . S
C577 H586 0.931 . S
C578 C573 1.370 . S
C578 C574 1.395 . S
C578 H587 0.930 . S
C579 Gd515 2.805 . S
C579 O555 1.263 . S
C579 O556 1.252 . S
C579 C573 1.500 . S
H580 C563 0.929 . S
H581 C564 0.930 . S
H582 C565 0.931 . S
H583 C566 0.930 . S
H584 C575 0.929 . S
H585 C576 0.930 . S
H586 C577 0.931 . S
H587 C578 0.930 . S
C588 C590 1.422 . S
C588 C592 1.415 . S
C588 N594 1.369 . S
C589 C590 1.421 . S
C589 C591 1.417 . S
C589 C601 1.422 . S
C590 C588 1.422 . S
C590 C589 1.421 . S
C590 N600 1.359 . S
C591 C589 1.417 . S
C591 C593 1.329 . S
C591 H610 0.930 . S
C592 C588 1.415 . S
C592 C593 1.437 . S
C592 C596 1.413 . S
C593 C591 1.329 . S
C593 C592 1.437 . S
C593 H615 0.929 . S
N594 C588 1.369 . S
N594 C595 1.338 . S
N594 Gd599 2.622 . S
C595 N594 1.338 . S
C595 C597 1.378 . S
C595 H607 0.929 . S
C596 C592 1.413 . S
C596 C597 1.348 . S
C596 H612 0.931 . S
C597 C595 1.378 . S
C597 C596 1.348 . S
C597 H613 0.930 . S
Gd598 N618 2.622 . S
Gd598 N625 2.570 . S
Gd598 O632 2.353 . S
Gd598 O633 2.468 . S
Gd598 O634 2.427 . S
Gd598 O636 2.388 . S
Gd598 O637 2.386 . S
Gd598 O641 2.307 . S
Gd598 C651 2.805 . S
Gd599 N594 2.622 . S
Gd599 N600 2.570 . S
Gd599 O631 2.386 . S
Gd599 O635 2.307 . S
Gd599 O638 2.353 . S
Gd599 O639 2.468 . S
Gd599 O640 2.427 . S
Gd599 O642 2.388 . S
Gd599 C663 2.805 . S
N600 C590 1.359 . S
N600 Gd599 2.570 . S
N600 C602 1.343 . S
C601 C589 1.422 . S
C601 C603 1.321 . S
C601 H609 0.931 . S
C602 N600 1.343 . S
C602 C603 1.390 . S
C602 H604 0.931 . S
C603 C601 1.321 . S
C603 C602 1.390 . S
C603 H605 0.930 . S
H604 C602 0.931 . S
H605 C603 0.930 . S
H606 C629 0.931 . S
H607 C595 0.929 . S
H608 C630 0.930 . S
H609 C601 0.931 . S
H610 C591 0.930 . S
H611 C620 0.929 . S
H612 C596 0.931 . S
H613 C597 0.930 . S
H614 C652 0.930 . S
H615 C593 0.929 . S
H616 C621 0.931 . S
H617 C622 0.930 . S
N618 Gd598 2.622 . S
N618 C619 1.369 . S
N618 C620 1.338 . S
C619 N618 1.369 . S
C619 C623 1.415 . S
C619 C626 1.422 . S
C620 H611 0.929 . S
C620 N618 1.338 . S
C620 C622 1.378 . S
C621 H616 0.931 . S
C621 C622 1.348 . S
C621 C623 1.413 . S
C622 H617 0.930 . S
C622 C620 1.378 . S
C622 C621 1.348 . S
C623 C619 1.415 . S
C623 C621 1.413 . S
C623 C653 1.437 . S
H624 C653 0.929 . S
N625 Gd598 2.570 . S
N625 C626 1.359 . S
N625 C629 1.343 . S
C626 C619 1.422 . S
C626 N625 1.359 . S
C626 C628 1.421 . S
C627 C628 1.422 . S
C627 C630 1.321 . S
C627 H654 0.931 . S
C628 C626 1.421 . S
C628 C627 1.422 . S
C628 C652 1.417 . S
C629 H606 0.931 . S
C629 N625 1.343 . S
C629 C630 1.390 . S
C630 H608 0.930 . S
C630 C627 1.321 . S
C630 C629 1.390 . S
O631 Gd599 2.386 . S
O631 C643 1.265 . S
O632 Gd598 2.353 . S
O632 C643 1.242 . S
O633 Gd598 2.468 . S
O633 C651 1.263 . S
O634 Gd598 2.427 . S
O634 C651 1.252 . S
O635 Gd599 2.307 . S
O635 C644 1.261 . S
O636 Gd598 2.388 . S
O636 C644 1.252 . S
O637 Gd598 2.386 . S
O637 C655 1.265 . S
O638 Gd599 2.353 . S
O638 C655 1.242 . S
O639 Gd599 2.468 . S
O639 C663 1.263 . S
O640 Gd599 2.427 . S
O640 C663 1.252 . S
O641 Gd598 2.307 . S
O641 C656 1.261 . S
O642 Gd599 2.388 . S
O642 C656 1.252 . S
C643 O631 1.265 . S
C643 O632 1.242 . S
C644 O635 1.261 . S
C644 O636 1.252 . S
C645 C648 1.394 . S
C645 C650 1.370 . S
C645 C651 1.500 . S
C646 C649 1.383 . S
C646 C650 1.395 . S
C647 C648 1.396 . S
C647 C649 1.365 . S
C647 H664 0.929 . S
C648 C645 1.394 . S
C648 C647 1.396 . S
C648 H665 0.930 . S
C649 C646 1.383 . S
C649 C647 1.365 . S
C649 H666 0.931 . S
C650 C645 1.370 . S
C650 C646 1.395 . S
C650 H667 0.930 . S
C651 Gd598 2.805 . S
C651 O633 1.263 . S
C651 O634 1.252 . S
C651 C645 1.500 . S
C652 H614 0.930 . S
C652 C628 1.417 . S
C652 C653 1.329 . S
C653 C623 1.437 . S
C653 H624 0.929 . S
C653 C652 1.329 . S
H654 C627 0.931 . S
C655 O637 1.265 . S
C655 O638 1.242 . S
C656 O641 1.261 . S
C656 O642 1.252 . S
C657 C660 1.394 . S
C657 C662 1.370 . S
C657 C663 1.500 . S
C658 C661 1.383 . S
C658 C662 1.395 . S
C659 C660 1.396 . S
C659 C661 1.365 . S
C659 H668 0.929 . S
C660 C657 1.394 . S
C660 C659 1.396 . S
C660 H669 0.930 . S
C661 C658 1.383 . S
C661 C659 1.365 . S
C661 H670 0.931 . S
C662 C657 1.370 . S
C662 C658 1.395 . S
C662 H671 0.930 . S
C663 Gd599 2.805 . S
C663 O639 1.263 . S
C663 O640 1.252 . S
C663 C657 1.500 . S
H664 C647 0.929 . S
H665 C648 0.930 . S
H666 C649 0.931 . S
H667 C650 0.930 . S
H668 C659 0.929 . S
H669 C660 0.930 . S
H670 C661 0.931 . S
H671 C662 0.930 . S
H672 C678 0.930 . S
H673 C682 0.930 . S
H674 C687 0.929 . S
H675 C685 0.929 . S
H676 C680 0.929 . S
H677 C686 0.929 . S
C678 H672 0.930 . S
C678 C679 1.367 . S
C678 C686 1.378 . S
C679 C678 1.367 . S
C679 C687 1.433 . S
C680 H676 0.929 . S
C680 C682 1.378 . S
C680 C684 1.350 . S
C681 C684 1.463 . S
C681 C686 1.350 . S
C681 N689 1.427 . S
C682 H673 0.930 . S
C682 C680 1.378 . S
C682 C683 1.367 . S
C683 C682 1.367 . S
C683 C685 1.433 . S
C684 C680 1.350 . S
C684 C681 1.463 . S
C684 N688 1.427 . S
C685 H675 0.929 . S
C685 C683 1.433 . S
C685 N688 1.384 . S
C686 H677 0.929 . S
C686 C678 1.378 . S
C686 C681 1.350 . S
C687 H674 0.929 . S
C687 C679 1.433 . S
C687 N689 1.384 . S
N688 C684 1.427 . S
N688 C685 1.384 . S
N689 C681 1.427 . S
N689 C687 1.384 . S
H690 C696 0.930 . S
H691 C700 0.930 . S
H692 C705 0.929 . S
H693 C703 0.929 . S
H694 C698 0.929 . S
H695 C704 0.929 . S
C696 H690 0.930 . S
C696 C697 1.367 1_556 S
C696 C704 1.378 . S
C697 C696 1.367 1_554 S
C697 C705 1.433 . S
C698 H694 0.929 . S
C698 C700 1.378 . S
C698 C702 1.350 . S
C699 C702 1.463 . S
C699 C704 1.350 1_554 S
C699 N707 1.427 . S
C700 H691 0.930 . S
C700 C698 1.378 . S
C700 C701 1.367 . S
C701 C700 1.367 . S
C701 C703 1.433 1_554 S
C702 C698 1.350 . S
C702 C699 1.463 . S
C702 N706 1.427 1_554 S
C703 H693 0.929 . S
C703 C701 1.433 1_556 S
C703 N706 1.384 . S
C704 H695 0.929 . S
C704 C696 1.378 . S
C704 C699 1.350 1_556 S
C705 H692 0.929 . S
C705 C697 1.433 . S
C705 N707 1.384 . S
N706 C702 1.427 1_556 S
N706 C703 1.384 . S
N707 C699 1.427 . S
N707 C705 1.384 . S
H708 C714 0.930 . S
H709 C718 0.930 . S
H710 C723 0.929 . S
H711 C721 0.929 . S
H712 C716 0.929 . S
H713 C722 0.929 . S
C714 H708 0.930 . S
C714 C715 1.367 . S
C714 C722 1.378 . S
C715 C714 1.367 . S
C715 C723 1.433 . S
C716 H712 0.929 . S
C716 C718 1.378 . S
C716 C720 1.350 . S
C717 C720 1.463 . S
C717 C722 1.350 . S
C717 N725 1.427 . S
C718 H709 0.930 . S
C718 C716 1.378 . S
C718 C719 1.367 . S
C719 C718 1.367 . S
C719 C721 1.433 . S
C720 C716 1.350 . S
C720 C717 1.463 . S
C720 N724 1.427 . S
C721 H711 0.929 . S
C721 C719 1.433 . S
C721 N724 1.384 . S
C722 H713 0.929 . S
C722 C714 1.378 . S
C722 C717 1.350 . S
C723 H710 0.929 . S
C723 C715 1.433 . S
C723 N725 1.384 . S
N724 C720 1.427 . S
N724 C721 1.384 . S
N725 C717 1.427 . S
N725 C723 1.384 . S
H726 C732 0.930 . S
H727 C736 0.930 . S
H728 C741 0.929 . S
H729 C739 0.929 . S
H730 C734 0.929 . S
H731 C740 0.929 . S
C732 H726 0.930 . S
C732 C733 1.367 . S
C732 C740 1.378 . S
C733 C732 1.367 . S
C733 C741 1.433 . S
C734 H730 0.929 . S
C734 C736 1.378 . S
C734 C738 1.350 . S
C735 C738 1.463 . S
C735 C740 1.350 . S
C735 N743 1.427 . S
C736 H727 0.930 . S
C736 C734 1.378 . S
C736 C737 1.367 . S
C737 C736 1.367 . S
C737 C739 1.433 . S
C738 C734 1.350 . S
C738 C735 1.463 . S
C738 N742 1.427 . S
C739 H729 0.929 . S
C739 C737 1.433 . S
C739 N742 1.384 . S
C740 H731 0.929 . S
C740 C732 1.378 . S
C740 C735 1.350 . S
C741 H728 0.929 . S
C741 C733 1.433 . S
C741 N743 1.384 . S
N742 C738 1.427 . S
N742 C739 1.384 . S
N743 C735 1.427 . S
N743 C741 1.384 . S
H744 C750 0.930 . S
H745 C754 0.930 . S
H746 C759 0.929 . S
H747 C757 0.929 . S
H748 C752 0.929 . S
H749 C758 0.935 . S
C750 H744 0.930 . S
C750 C751 1.367 1_556 S
C750 C758 1.378 . S
C751 C750 1.367 1_554 S
C751 C759 1.433 . S
C752 H748 0.929 . S
C752 C754 1.378 . S
C752 C756 1.350 . S
C753 C756 1.463 . S
C753 C758 1.350 1_454 S
C753 N761 1.427 1_455 S
C754 H745 0.930 . S
C754 C752 1.378 . S
C754 C755 1.367 . S
C755 C754 1.367 . S
C755 C757 1.433 1_554 S
C756 C752 1.350 . S
C756 C753 1.463 . S
C756 N760 1.427 1_554 S
C757 H747 0.929 . S
C757 C755 1.433 1_556 S
C757 N760 1.384 . S
C758 H749 0.935 . S
C758 C750 1.378 . S
C758 C753 1.350 1_656 S
C759 H746 0.929 . S
C759 C751 1.433 . S
C759 N761 1.384 . S
N760 C756 1.427 1_556 S
N760 C757 1.384 . S
N761 C753 1.427 1_655 S
N761 C759 1.384 . S
H762 C768 0.930 . S
H763 C772 0.930 . S
H764 C777 0.929 . S
H765 C775 0.929 . S
H766 C770 0.929 . S
H767 C776 0.929 . S
C768 H762 0.930 . S
C768 C769 1.367 . S
C768 C776 1.378 . S
C769 C768 1.367 . S
C769 C777 1.433 1_554 S
C770 H766 0.929 . S
C770 C772 1.378 . S
C770 C774 1.350 1_556 S
C771 C774 1.463 . S
C771 C776 1.350 1_655 S
C771 N779 1.427 1_654 S
C772 H763 0.930 . S
C772 C770 1.378 . S
C772 C773 1.367 1_556 S
C773 C772 1.367 1_554 S
C773 C775 1.433 . S
C774 C770 1.350 1_554 S
C774 C771 1.463 . S
C774 N778 1.427 . S
C775 H765 0.929 . S
C775 C773 1.433 . S
C775 N778 1.384 . S
C776 H767 0.929 . S
C776 C768 1.378 . S
C776 C771 1.350 1_455 S
C777 H764 0.929 . S
C777 C769 1.433 1_556 S
C777 N779 1.384 . S
N778 C774 1.427 . S
N778 C775 1.384 . S
N779 C771 1.427 1_456 S
N779 C777 1.384 . S
H780 C786 0.930 . S
H781 C790 0.930 . S
H782 C795 0.929 . S
H783 C793 0.929 . S
H784 C788 0.929 . S
H785 C794 0.929 . S
C786 H780 0.930 . S
C786 C787 1.367 . S
C786 C794 1.378 . S
C787 C786 1.367 . S
C787 C795 1.433 . S
C788 H784 0.929 . S
C788 C790 1.378 . S
C788 C792 1.350 1_655 S
C789 C792 1.463 . S
C789 C794 1.350 . S
C789 N797 1.427 . S
C790 H781 0.930 . S
C790 C788 1.378 . S
C790 C791 1.367 . S
C791 C790 1.367 . S
C791 C793 1.433 . S
C792 C788 1.350 1_455 S
C792 C789 1.463 . S
C792 N796 1.427 1_455 S
C793 H783 0.929 . S
C793 C791 1.433 . S
C793 N796 1.384 . S
C794 H785 0.929 . S
C794 C786 1.378 . S
C794 C789 1.350 . S
C795 H782 0.929 . S
C795 C787 1.433 . S
C795 N797 1.384 . S
N796 C792 1.427 1_655 S
N796 C793 1.384 . S
N797 C789 1.427 . S
N797 C795 1.384 . S
H798 C804 0.930 . S
H799 C808 0.930 . S
H800 C813 0.929 . S
H801 C811 0.929 . S
H802 C806 0.929 1_655 S
H803 C812 0.929 . S
C804 H798 0.930 . S
C804 C805 1.367 . S
C804 C812 1.378 . S
C805 C804 1.367 . S
C805 C813 1.433 . S
C806 H802 0.929 1_455 S
C806 C808 1.378 . S
C806 C810 1.350 1_455 S
C807 C810 1.463 . S
C807 C812 1.350 . S
C807 N815 1.427 . S
C808 H799 0.930 . S
C808 C806 1.378 . S
C808 C809 1.367 . S
C809 C808 1.367 . S
C809 C811 1.433 . S
C810 C806 1.350 1_655 S
C810 C807 1.463 . S
C810 N814 1.427 1_655 S
C811 H801 0.929 . S
C811 C809 1.433 . S
C811 N814 1.384 . S
C812 H803 0.929 . S
C812 C804 1.378 . S
C812 C807 1.350 . S
C813 H800 0.929 . S
C813 C805 1.433 . S
C813 N815 1.384 . S
N814 C810 1.427 1_455 S
N814 C811 1.384 . S
N815 C807 1.427 . S
N815 C813 1.384 . S
H816 C822 0.930 . S
H817 C826 0.930 . S
H818 C831 0.929 . S
H819 C829 0.929 . S
H820 C824 0.929 . S
H821 C830 0.929 . S
C822 H816 0.930 . S
C822 C823 1.367 1_556 S
C822 C830 1.378 . S
C823 C822 1.367 1_554 S
C823 C831 1.433 . S
C824 H820 0.929 . S
C824 C826 1.378 . S
C824 C828 1.350 . S
C825 C828 1.463 1_455 S
C825 C830 1.350 1_554 S
C825 N833 1.427 1_455 S
C826 H817 0.930 . S
C826 C824 1.378 . S
C826 C827 1.367 . S
C827 C826 1.367 . S
C827 C829 1.433 1_554 S
C828 C824 1.350 . S
C828 C825 1.463 1_655 S
C828 N832 1.427 1_654 S
C829 H819 0.929 . S
C829 C827 1.433 1_556 S
C829 N832 1.384 1_655 S
C830 H821 0.929 . S
C830 C822 1.378 . S
C830 C825 1.350 1_556 S
C831 H818 0.929 . S
C831 C823 1.433 . S
C831 N833 1.384 1_455 S
N832 C828 1.427 1_456 S
N832 C829 1.384 1_455 S
N833 C825 1.427 1_655 S
N833 C831 1.384 1_655 S
H834 C840 0.930 . S
H835 C844 0.930 . S
H836 C849 0.929 . S
H837 C847 0.929 . S
H838 C842 0.929 1_455 S
H839 C848 0.929 1_655 S
C840 H834 0.930 . S
C840 C841 1.367 . S
C840 C848 1.378 . S
C841 C840 1.367 . S
C841 C849 1.433 . S
C842 H838 0.929 1_655 S
C842 C844 1.378 . S
C842 C846 1.350 . S
C843 C846 1.463 1_455 S
C843 C848 1.350 . S
C843 N851 1.427 . S
C844 H835 0.930 . S
C844 C842 1.378 . S
C844 C845 1.367 . S
C845 C844 1.367 . S
C845 C847 1.433 . S
C846 C842 1.350 . S
C846 C843 1.463 1_655 S
C846 N850 1.427 . S
C847 H837 0.929 . S
C847 C845 1.433 . S
C847 N850 1.384 . S
C848 H839 0.929 1_455 S
C848 C840 1.378 . S
C848 C843 1.350 . S
C849 H836 0.929 . S
C849 C841 1.433 . S
C849 N851 1.384 . S
N850 C846 1.427 . S
N850 C847 1.384 . S
N851 C843 1.427 . S
N851 C849 1.384 . S
H852 C858 0.930 . S
H853 C862 0.930 . S
H854 C867 0.929 . S
H855 C865 0.929 . S
H856 C860 0.929 . S
H857 C866 0.929 . S
C858 H852 0.930 . S
C858 C859 1.367 1_556 S
C858 C866 1.378 . S
C859 C858 1.367 1_554 S
C859 C867 1.433 . S
C860 H856 0.929 . S
C860 C862 1.378 . S
C860 C864 1.350 . S
C861 C864 1.463 1_565 S
C861 C866 1.350 1_554 S
C861 N869 1.427 . S
C862 H853 0.930 . S
C862 C860 1.378 . S
C862 C863 1.367 . S
C863 C862 1.367 . S
C863 C865 1.433 1_554 S
C864 C860 1.350 . S
C864 C861 1.463 1_545 S
C864 N868 1.427 1_554 S
C865 H855 0.929 . S
C865 C863 1.433 1_556 S
C865 N868 1.384 . S
C866 H857 0.929 . S
C866 C858 1.378 . S
C866 C861 1.350 1_556 S
C867 H854 0.929 . S
C867 C859 1.433 . S
C867 N869 1.384 . S
N868 C864 1.427 1_556 S
N868 C865 1.384 . S
N869 C861 1.427 . S
N869 C867 1.384 . S
H870 C876 0.930 . S
H871 C880 0.930 . S
H872 C885 0.929 . S
H873 C883 0.929 . S
H874 C878 0.929 . S
H875 C884 0.929 . S
C876 H870 0.930 . S
C876 C877 1.367 . S
C876 C884 1.378 . S
C877 C876 1.367 . S
C877 C885 1.433 . S
C878 H874 0.929 . S
C878 C880 1.378 . S
C878 C882 1.350 . S
C879 C882 1.463 1_545 S
C879 C884 1.350 . S
C879 N887 1.427 . S
C880 H871 0.930 . S
C880 C878 1.378 . S
C880 C881 1.367 . S
C881 C880 1.367 . S
C881 C883 1.433 . S
C882 C878 1.350 . S
C882 C879 1.463 1_565 S
C882 N886 1.427 . S
C883 H873 0.929 . S
C883 C881 1.433 . S
C883 N886 1.384 . S
C884 H875 0.929 . S
C884 C876 1.378 . S
C884 C879 1.350 . S
C885 H872 0.929 . S
C885 C877 1.433 . S
C885 N887 1.384 . S
N886 C882 1.427 . S
N886 C883 1.384 . S
N887 C879 1.427 . S
N887 C885 1.384 . S
H888 C894 0.930 . S
H889 C898 0.930 . S
H890 C903 0.929 . S
H891 C901 0.929 . S
H892 C896 0.929 . S
H893 C902 0.929 . S
C894 H888 0.930 . S
C894 C895 1.367 . S
C894 C902 1.378 . S
C895 C894 1.367 . S
C895 C903 1.433 1_554 S
C896 H892 0.929 . S
C896 C898 1.378 . S
C896 C900 1.350 1_556 S
C897 C900 1.463 . S
C897 C902 1.350 . S
C897 N905 1.427 1_554 S
C898 H889 0.930 . S
C898 C896 1.378 . S
C898 C899 1.367 1_556 S
C899 C898 1.367 1_554 S
C899 C901 1.433 . S
C900 C896 1.350 1_554 S
C900 C897 1.463 . S
C900 N904 1.427 . S
C901 H891 0.929 . S
C901 C899 1.433 . S
C901 N904 1.384 . S
C902 H893 0.929 . S
C902 C894 1.378 . S
C902 C897 1.350 . S
C903 H890 0.929 . S
C903 C895 1.433 1_556 S
C903 N905 1.384 . S
N904 C900 1.427 . S
N904 C901 1.384 . S
N905 C897 1.427 1_556 S
N905 C903 1.384 . S
H906 C912 0.930 . S
H907 C916 0.930 . S
H908 C921 0.929 . S
H909 C919 0.929 . S
H910 C914 0.929 . S
H911 C920 0.929 . S
C912 H906 0.930 . S
C912 C913 1.367 . S
C912 C920 1.378 . S
C913 C912 1.367 . S
C913 C921 1.433 1_554 S
C914 H910 0.929 . S
C914 C916 1.378 . S
C914 C918 1.350 1_556 S
C915 C918 1.463 . S
C915 C920 1.350 . S
C915 N923 1.427 1_554 S
C916 H907 0.930 . S
C916 C914 1.378 . S
C916 C917 1.367 1_556 S
C917 C916 1.367 1_554 S
C917 C919 1.433 . S
C918 C914 1.350 1_554 S
C918 C915 1.463 . S
C918 N922 1.427 . S
C919 H909 0.929 . S
C919 C917 1.433 . S
C919 N922 1.384 . S
C920 H911 0.929 . S
C920 C912 1.378 . S
C920 C915 1.350 . S
C921 H908 0.929 . S
C921 C913 1.433 1_556 S
C921 N923 1.384 . S
N922 C918 1.427 . S
N922 C919 1.384 . S
N923 C915 1.427 1_556 S
N923 C921 1.384 . S
H924 C930 0.930 . S
H925 C934 0.930 . S
H926 C939 0.929 . S
H927 C937 0.929 . S
H928 C932 0.929 . S
H929 C938 0.929 . S
C930 H924 0.930 . S
C930 C931 1.367 . S
C930 C938 1.378 . S
C931 C930 1.367 . S
C931 C939 1.433 . S
C932 H928 0.929 . S
C932 C934 1.378 . S
C932 C936 1.350 . S
C933 C936 1.463 . S
C933 C938 1.350 . S
C933 N941 1.427 . S
C934 H925 0.930 . S
C934 C932 1.378 . S
C934 C935 1.367 . S
C935 C934 1.367 . S
C935 C937 1.433 . S
C936 C932 1.350 . S
C936 C933 1.463 . S
C936 N940 1.427 . S
C937 H927 0.929 . S
C937 C935 1.433 . S
C937 N940 1.384 . S
C938 H929 0.929 . S
C938 C930 1.378 . S
C938 C933 1.350 . S
C939 H926 0.929 . S
C939 C931 1.433 . S
C939 N941 1.384 . S
N940 C936 1.427 . S
N940 C937 1.384 . S
N941 C933 1.427 . S
N941 C939 1.384 . S
H942 C948 0.930 . S
H943 C952 0.930 . S
H944 C957 0.929 . S
H945 C955 0.929 . S
H946 C950 0.929 . S
H947 C956 0.929 . S
C948 H942 0.930 . S
C948 C949 1.367 . S
C948 C956 1.378 . S
C949 C948 1.367 . S
C949 C957 1.433 . S
C950 H946 0.929 . S
C950 C952 1.378 . S
C950 C954 1.350 . S
C951 C954 1.463 . S
C951 C956 1.350 . S
C951 N959 1.427 . S
C952 H943 0.930 . S
C952 C950 1.378 . S
C952 C953 1.367 . S
C953 C952 1.367 . S
C953 C955 1.433 . S
C954 C950 1.350 . S
C954 C951 1.463 . S
C954 N958 1.427 . S
C955 H945 0.929 . S
C955 C953 1.433 . S
C955 N958 1.384 . S
C956 H947 0.929 . S
C956 C948 1.378 . S
C956 C951 1.350 . S
C957 H944 0.929 . S
C957 C949 1.433 . S
C957 N959 1.384 . S
N958 C954 1.427 . S
N958 C955 1.384 . S
N959 C951 1.427 . S
N959 C957 1.384 . S
H960 C966 0.930 . S
H961 C970 0.930 . S
H962 C975 0.929 . S
H963 C973 0.929 . S
H964 C968 0.929 . S
H965 C974 0.929 . S
C966 H960 0.930 . S
C966 C967 1.367 1_655 S
C966 C974 1.378 . S
C967 C966 1.367 1_455 S
C967 C975 1.433 . S
C968 H964 0.929 . S
C968 C970 1.378 . S
C968 C972 1.350 1_455 S
C969 C972 1.463 1_455 S
C969 C974 1.350 1_455 S
C969 N977 1.427 . S
C970 H961 0.930 . S
C970 C968 1.378 . S
C970 C971 1.367 1_455 S
C971 C970 1.367 1_655 S
C971 C973 1.433 . S
C972 C968 1.350 1_655 S
C972 C969 1.463 1_655 S
C972 N976 1.427 . S
C973 H963 0.929 . S
C973 C971 1.433 . S
C973 N976 1.384 . S
C974 H965 0.929 . S
C974 C966 1.378 . S
C974 C969 1.350 1_655 S
C975 H962 0.929 . S
C975 C967 1.433 . S
C975 N977 1.384 . S
N976 C972 1.427 . S
N976 C973 1.384 . S
N977 C969 1.427 . S
N977 C975 1.384 . S
H978 C984 0.930 . S
H979 C988 0.930 . S
H980 C993 0.929 . S
H981 C991 0.929 . S
H982 C986 0.929 . S
H983 C992 0.929 . S
C984 H978 0.930 . S
C984 C985 1.367 1_455 S
C984 C992 1.378 . S
C985 C984 1.367 1_655 S
C985 C993 1.433 . S
C986 H982 0.929 . S
C986 C988 1.378 . S
C986 C990 1.350 1_655 S
C987 C990 1.463 1_655 S
C987 C992 1.350 1_655 S
C987 N995 1.427 . S
C988 H979 0.930 . S
C988 C986 1.378 . S
C988 C989 1.367 1_655 S
C989 C988 1.367 1_455 S
C989 C991 1.433 . S
C990 C986 1.350 1_455 S
C990 C987 1.463 1_455 S
C990 N994 1.427 . S
C991 H981 0.929 . S
C991 C989 1.433 . S
C991 N994 1.384 . S
C992 H983 0.929 . S
C992 C984 1.378 . S
C992 C987 1.350 1_455 S
C993 H980 0.929 . S
C993 C985 1.433 . S
C993 N995 1.384 . S
N994 C990 1.427 . S
N994 C991 1.384 . S
N995 C987 1.427 . S
N995 C993 1.384 . S
H996 C1002 0.930 . S
H997 C1006 0.930 . S
H998 C1011 0.926 1_455 S
H999 C1009 0.929 1_655 S
H1000 C1004 0.929 . S
H1001 C1010 0.929 . S
C1002 H996 0.930 . S
C1002 C1003 1.367 . S
C1002 C1010 1.378 . S
C1003 C1002 1.367 . S
C1003 C1011 1.440 . S
C1004 H1000 0.929 . S
C1004 C1006 1.378 . S
C1004 C1008 1.350 . S
C1005 C1008 1.463 1_655 S
C1005 C1010 1.350 . S
C1005 N1013 1.427 1_655 S
C1006 H997 0.930 . S
C1006 C1004 1.378 . S
C1006 C1007 1.367 . S
C1007 C1006 1.367 . S
C1007 C1009 1.433 . S
C1008 C1004 1.350 . S
C1008 C1005 1.463 1_455 S
C1008 N1012 1.427 1_455 S
C1009 H999 0.929 1_455 S
C1009 C1007 1.433 . S
C1009 N1012 1.384 1_455 S
C1010 H1001 0.929 . S
C1010 C1002 1.378 . S
C1010 C1005 1.350 . S
C1011 H998 0.926 1_655 S
C1011 C1003 1.440 . S
C1011 N1013 1.381 1_655 S
N1012 C1008 1.427 1_655 S
N1012 C1009 1.384 1_655 S
N1013 C1005 1.427 1_455 S
N1013 C1011 1.381 1_455 S
H1014 C1020 0.930 1_455 S
H1015 C1024 0.928 1_655 S
H1016 C1029 0.929 . S
H1017 C1027 0.929 . S
H1018 C1022 0.929 . S
H1019 C1028 0.929 . S
C1020 H1014 0.930 1_655 S
C1020 C1021 1.367 . S
C1020 C1028 1.378 1_655 S
C1021 C1020 1.367 . S
C1021 C1029 1.433 . S
C1022 H1018 0.929 . S
C1022 C1024 1.378 1_655 S
C1022 C1026 1.350 1_655 S
C1023 C1026 1.463 1_655 S
C1023 C1028 1.350 1_655 S
C1023 N1031 1.427 . S
C1024 H1015 0.928 1_455 S
C1024 C1022 1.378 1_455 S
C1024 C1025 1.367 . S
C1025 C1024 1.367 . S
C1025 C1027 1.433 . S
C1026 C1022 1.350 1_455 S
C1026 C1023 1.463 1_455 S
C1026 N1030 1.427 . S
C1027 H1017 0.929 . S
C1027 C1025 1.433 . S
C1027 N1030 1.384 . S
C1028 H1019 0.929 . S
C1028 C1020 1.378 1_455 S
C1028 C1023 1.350 1_455 S
C1029 H1016 0.929 . S
C1029 C1021 1.433 . S
C1029 N1031 1.384 . S
N1030 C1026 1.427 . S
N1030 C1027 1.384 . S
N1031 C1023 1.427 . S
N1031 C1029 1.384 . S
H1032 C1038 0.930 . S
H1033 C1042 0.930 . S
H1034 C1047 0.929 . S
H1035 C1045 0.929 . S
H1036 C1040 0.929 . S
H1037 C1046 0.929 . S
C1038 H1032 0.930 . S
C1038 C1039 1.367 . S
C1038 C1046 1.378 . S
C1039 C1038 1.367 . S
C1039 C1047 1.433 . S
C1040 H1036 0.929 . S
C1040 C1042 1.378 . S
C1040 C1044 1.350 . S
C1041 C1044 1.463 . S
C1041 C1046 1.350 . S
C1041 N1049 1.427 . S
C1042 H1033 0.930 . S
C1042 C1040 1.378 . S
C1042 C1043 1.367 . S
C1043 C1042 1.367 . S
C1043 C1045 1.433 . S
C1044 C1040 1.350 . S
C1044 C1041 1.463 . S
C1044 N1048 1.427 . S
C1045 H1035 0.929 . S
C1045 C1043 1.433 . S
C1045 N1048 1.384 . S
C1046 H1037 0.929 . S
C1046 C1038 1.378 . S
C1046 C1041 1.350 . S
C1047 H1034 0.929 . S
C1047 C1039 1.433 . S
C1047 N1049 1.384 . S
N1048 C1044 1.427 . S
N1048 C1045 1.384 . S
N1049 C1041 1.427 . S
N1049 C1047 1.384 . S
H1050 C1056 0.930 . S
H1051 C1060 0.930 . S
H1052 C1065 0.929 . S
H1053 C1063 0.929 . S
H1054 C1058 0.929 . S
H1055 C1064 0.929 . S
C1056 H1050 0.930 . S
C1056 C1057 1.367 . S
C1056 C1064 1.378 . S
C1057 C1056 1.367 . S
C1057 C1065 1.433 . S
C1058 H1054 0.929 . S
C1058 C1060 1.378 . S
C1058 C1062 1.350 . S
C1059 C1062 1.463 . S
C1059 C1064 1.350 . S
C1059 N1067 1.427 . S
C1060 H1051 0.930 . S
C1060 C1058 1.378 . S
C1060 C1061 1.367 . S
C1061 C1060 1.367 . S
C1061 C1063 1.433 . S
C1062 C1058 1.350 . S
C1062 C1059 1.463 . S
C1062 N1066 1.427 . S
C1063 H1053 0.929 . S
C1063 C1061 1.433 . S
C1063 N1066 1.384 . S
C1064 H1055 0.929 . S
C1064 C1056 1.378 . S
C1064 C1059 1.350 . S
C1065 H1052 0.929 . S
C1065 C1057 1.433 . S
C1065 N1067 1.384 . S
N1066 C1062 1.427 . S
N1066 C1063 1.384 . S
N1067 C1059 1.427 . S
N1067 C1065 1.384 . S
H1068 C1074 0.930 . S
H1069 C1078 0.930 . S
H1070 C1083 0.929 . S
H1071 C1081 0.929 . S
H1072 C1076 0.929 . S
H1073 C1082 0.929 . S
C1074 H1068 0.930 . S
C1074 C1075 1.367 . S
C1074 C1082 1.378 . S
C1075 C1074 1.367 . S
C1075 C1083 1.433 . S
C1076 H1072 0.929 . S
C1076 C1078 1.378 . S
C1076 C1080 1.350 . S
C1077 C1080 1.463 . S
C1077 C1082 1.350 . S
C1077 N1085 1.427 . S
C1078 H1069 0.930 . S
C1078 C1076 1.378 . S
C1078 C1079 1.367 . S
C1079 C1078 1.367 . S
C1079 C1081 1.433 . S
C1080 C1076 1.350 . S
C1080 C1077 1.463 . S
C1080 N1084 1.427 . S
C1081 H1071 0.929 . S
C1081 C1079 1.433 . S
C1081 N1084 1.384 . S
C1082 H1073 0.929 . S
C1082 C1074 1.378 . S
C1082 C1077 1.350 . S
C1083 H1070 0.929 . S
C1083 C1075 1.433 . S
C1083 N1085 1.384 . S
N1084 C1080 1.427 . S
N1084 C1081 1.384 . S
N1085 C1077 1.427 . S
N1085 C1083 1.384 . S
H1086 C1092 0.930 . S
H1087 C1096 0.930 . S
H1088 C1101 0.929 . S
H1089 C1099 0.929 . S
H1090 C1094 0.929 . S
H1091 C1100 0.929 . S
C1092 H1086 0.930 . S
C1092 C1093 1.367 . S
C1092 C1100 1.378 . S
C1093 C1092 1.367 . S
C1093 C1101 1.433 . S
C1094 H1090 0.929 . S
C1094 C1096 1.378 . S
C1094 C1098 1.350 . S
C1095 C1098 1.463 . S
C1095 C1100 1.350 . S
C1095 N1103 1.427 . S
C1096 H1087 0.930 . S
C1096 C1094 1.378 . S
C1096 C1097 1.367 . S
C1097 C1096 1.367 . S
C1097 C1099 1.433 . S
C1098 C1094 1.350 . S
C1098 C1095 1.463 . S
C1098 N1102 1.427 . S
C1099 H1089 0.929 . S
C1099 C1097 1.433 . S
C1099 N1102 1.384 . S
C1100 H1091 0.929 . S
C1100 C1092 1.378 . S
C1100 C1095 1.350 . S
C1101 H1088 0.929 . S
C1101 C1093 1.433 . S
C1101 N1103 1.384 . S
N1102 C1098 1.427 . S
N1102 C1099 1.384 . S
N1103 C1095 1.427 . S
N1103 C1101 1.384 . S
C679 C55 1.957 . S
C683 C67 1.957 . S
C697 C139 1.962 . S
C701 C151 1.962 . S
C715 C235 1.958 . S
C719 C223 1.958 . S
C733 C319 1.956 . S
C737 C307 1.956 . S
C751 C391 1.960 . S
C755 C403 1.960 . S
C769 C487 1.960 . S
C773 C475 1.960 . S
C787 C571 1.958 . S
C791 C559 1.958 . S
C805 C643 1.961 . S
C809 C655 1.961 . S
C823 C142 1.926 1_554 S
C827 C70 1.933 . S
C841 C310 1.945 . S
C845 C238 1.945 . S
C859 C406 1.947 . S
C863 C478 1.939 1_554 S
C877 C574 1.947 . S
C881 C646 1.947 . S
C895 C58 1.448 1_554 S
C899 C490 1.448 . S
C913 C394 1.447 1_554 S
C917 C154 1.447 . S
C931 C226 1.434 . S
C935 C658 1.434 . S
C949 C322 1.444 . S
C953 C562 1.444 . S
C967 C68 1.539 . S
C971 C320 1.577 . S
C985 C152 1.575 . S
C989 C236 1.538 . S
C1003 C140 1.542 . S
C1007 C224 1.573 . S
C1021 C308 1.545 . S
C1025 C56 1.580 . S
C1039 C404 1.548 . S
C1043 C656 1.577 . S
C1057 C488 1.578 . S
C1061 C572 1.540 . S
C1075 C476 1.543 . S
C1079 C560 1.579 . S
C1093 C644 1.544 . S
C1097 C392 1.579 . S
