# Generated by pormake.
# Topology nov, (5)-cn, num edge types: 1
# Building blocks:
#     Node 0, Type 0, BuildingBlock: XOMCOT_clean_sbu_0, # of connection points: 5
#     Node 1, Type 0, BuildingBlock: XOMCOT_clean_sbu_0, # of connection points: 5
#     Node 2, Type 0, BuildingBlock: XOMCOT_clean_sbu_0, # of connection points: 5
#     Node 3, Type 0, BuildingBlock: XOMCOT_clean_sbu_0, # of connection points: 5
#     Node 4, Type 0, BuildingBlock: XOMCOT_clean_sbu_0, # of connection points: 5
#     Node 5, Type 0, BuildingBlock: XOMCOT_clean_sbu_0, # of connection points: 5
#     Node 6, Type 0, BuildingBlock: XOMCOT_clean_sbu_0, # of connection points: 5
#     Node 7, Type 0, BuildingBlock: XOMCOT_clean_sbu_0, # of connection points: 5
#     Edge 8, Type (0, 0), None
#     Edge 9, Type (0, 0), None
#     Edge 10, Type (0, 0), None
#     Edge 11, Type (0, 0), None
#     Edge 12, Type (0, 0), None
#     Edge 13, Type (0, 0), None
#     Edge 14, Type (0, 0), None
#     Edge 15, Type (0, 0), None
#     Edge 16, Type (0, 0), None
#     Edge 17, Type (0, 0), None
#     Edge 18, Type (0, 0), None
#     Edge 19, Type (0, 0), None
#     Edge 20, Type (0, 0), None
#     Edge 21, Type (0, 0), None
#     Edge 22, Type (0, 0), None
#     Edge 23, Type (0, 0), None
#     Edge 24, Type (0, 0), None
#     Edge 25, Type (0, 0), None
#     Edge 26, Type (0, 0), None
#     Edge 27, Type (0, 0), None
# Relax obj value: 0.141
# Max RMSD: 0.176
# Mean RMSD: 0.176
data_MOF--net-nov--node1-XOMCOT_clean_sbu_0--edge1-none
_symmetry_space_group_name_H-M    P1
_symmetry_Int_Tables_number       1
_symmetry_cell_setting            triclinic
loop_
_symmetry_equiv_pos_as_xyz
'x, y, z'
_cell_length_a     12.427459
_cell_length_b     29.103792
_cell_length_c     14.37796
_cell_angle_alpha  90.005145
_cell_angle_beta   89.999999
_cell_angle_gamma 89.999653
loop_
_atom_site_label
_atom_site_type_symbol
_atom_site_fract_x
_atom_site_fract_y
_atom_site_fract_z
_atom_type_partial_charge
Co0 Co 0.03107 0.15101 0.22063 0.0
C1 C 0.06959 0.07511 0.08208 0.0
C2 C 0.0875 0.05317 0.22361 0.0
C3 C 0.10199 1.01557 0.16655 0.0
N4 N 0.0663 0.09054 0.17091 0.0
N5 N 0.09099 0.02983 0.07808 0.0
H6 H 0.0542 0.09528 1.02109 0.0
H7 H 0.09044 0.05312 0.29879 0.0
C8 C 0.26713 0.14111 0.25586 0.0
O9 O 0.28037 0.12873 0.16879 0.0
N10 N 0.99577 0.21033 0.27234 0.0
C11 C 0.95136 0.24657 0.22817 0.0
C12 C 0.94381 0.28256 0.29004 0.0
C13 C 1.01159 0.22416 0.36073 0.0
N14 N 0.97946 0.26792 0.37328 0.0
C15 C 1.01865 0.17962 1.03123 0.0
C16 C 0.18821 0.24088 1.03396 0.0
C17 C 0.12681 0.23612 0.95303 0.0
C18 C 0.04149 0.20518 0.95193 0.0
C19 C 0.16395 0.21375 0.11175 0.0
N20 N 0.08219 0.18222 0.10872 0.0
H21 H 0.94825 0.15795 1.03031 0.0
H22 H 0.2074 0.21992 0.17551 0.0
H23 H 0.92837 0.24722 0.15567 0.0
H24 H 0.04908 0.20323 0.41387 0.0
O25 O 0.88256 0.14316 0.18498 0.0
O26 O 0.95145 0.12288 0.32114 0.0
O27 O 0.17475 0.15311 0.28578 0.0
C28 C 0.86729 0.12703 0.26811 0.0
H29 H 0.1181 0.98064 0.18828 0.0
H30 H 0.91639 0.31706 0.27489 0.0
H31 H 0.25265 0.26588 1.03731 0.0
H32 H 0.99069 0.20204 0.89104 0.0
Co33 Co 0.59545 0.88103 0.72065 0.0
C34 C 0.55695 0.95692 0.58209 0.0
C35 C 0.53906 0.97888 0.72362 0.0
C36 C 0.52458 0.01648 0.66655 0.0
N37 N 0.56024 0.94151 0.67093 0.0
N38 N 0.53558 1.0022 0.57808 0.0
H39 H 0.57232 0.93675 0.5211 0.0
H40 H 0.53611 0.97894 0.79879 0.0
C41 C 0.35938 0.89093 0.75589 0.0
O42 O 0.34613 0.9033 0.66882 0.0
N43 N 0.63073 0.82171 0.77237 0.0
C44 C 0.67514 0.78547 0.72819 0.0
C45 C 0.68266 0.74948 0.79005 0.0
C46 C 0.6149 0.80788 0.86075 0.0
N47 N 0.647 0.76413 0.87329 0.0
C48 C 0.60786 0.85241 0.53126 0.0
C49 C 0.43828 0.79117 0.53397 0.0
C50 C 0.49967 0.79593 0.45304 0.0
C51 C 0.585 0.82686 0.45194 0.0
C52 C 0.46256 0.81829 0.61177 0.0
N53 N 0.54432 0.84982 0.60874 0.0
H54 H 0.67827 0.87408 0.53034 0.0
H55 H 0.41911 0.81212 0.67553 0.0
H56 H 0.69814 0.78482 0.65569 0.0
H57 H 0.57741 0.82883 0.91389 0.0
O58 O 0.74396 0.88887 0.685 0.0
O59 O 0.67508 0.90917 0.82116 0.0
O60 O 0.45177 0.87895 0.7858 0.0
C61 C 0.75924 0.90501 0.76813 0.0
H62 H 0.50849 0.05141 0.68828 0.0
H63 H 0.71008 0.71498 0.7749 0.0
H64 H 0.37382 0.76618 0.53732 0.0
H65 H 0.6358 0.82999 0.39105 0.0
Co66 Co 0.03105 0.88102 0.85491 0.0
C67 C 0.06944 0.95694 0.99345 0.0
C68 C 0.0876 0.97884 0.85191 0.0
C69 C 0.10208 0.01645 0.90896 0.0
N70 N 0.06626 0.9415 0.90462 0.0
N71 N 0.09087 1.00221 0.99743 0.0
H72 H 0.05399 0.93678 0.05443 0.0
H73 H 0.09069 0.97888 0.77674 0.0
C74 C 0.26711 0.89093 0.81968 0.0
O75 O 0.28035 0.9033 0.90675 0.0
N76 N 0.99576 0.8217 0.8032 0.0
C77 C 0.95136 0.78546 0.84737 0.0
C78 C 0.94382 0.74947 0.78551 0.0
C79 C 1.01158 0.80786 0.71481 0.0
N80 N 0.97947 0.76411 0.70227 0.0
C81 C 1.01863 0.85241 0.04431 0.0
C82 C 0.1882 0.79116 0.04159 0.0
C83 C 0.1268 0.79592 0.12251 0.0
C84 C 0.04147 0.82686 0.12361 0.0
C85 C 0.16393 0.81829 0.96379 0.0
N86 N 0.08217 0.84982 0.96682 0.0
H87 H 0.94822 0.87408 0.04522 0.0
H88 H 0.20738 0.81212 0.90004 0.0
H89 H 0.92837 0.78481 0.91987 0.0
H90 H 0.04906 0.8288 0.66167 0.0
O91 O 0.88254 0.88886 0.89056 0.0
O92 O 0.95145 0.90915 0.75438 0.0
O93 O 0.17473 0.87893 0.78976 0.0
C94 C 0.86729 0.90499 0.80742 0.0
H95 H 0.11836 0.05136 0.88723 0.0
H96 H 0.91641 0.71496 0.80065 0.0
H97 H 0.25265 0.76617 0.03823 0.0
H98 H 0.99067 0.82999 0.1845 0.0
Co99 Co 0.59547 0.151 0.35488 0.0
C100 C 0.5571 0.07509 0.49344 0.0
C101 C 0.53895 0.05317 0.35191 0.0
C102 C 0.52449 1.01556 0.40896 0.0
N103 N 0.56028 0.09053 0.4046 0.0
N104 N 0.5357 0.02982 0.49743 0.0
H105 H 0.57254 0.09526 0.55442 0.0
H106 H 0.53587 0.05313 0.27673 0.0
C107 C 0.3594 0.1411 0.31966 0.0
O108 O 0.34615 0.12873 0.40672 0.0
N109 N 0.63074 0.21033 0.30317 0.0
C110 C 0.67514 0.24656 0.34735 0.0
C111 C 0.68265 0.28256 0.2855 0.0
C112 C 0.6149 0.22415 0.21479 0.0
N113 N 0.647 0.26791 0.20225 0.0
C114 C 0.60788 0.17962 0.54428 0.0
C115 C 0.43828 0.24086 0.54158 0.0
C116 C 0.49968 0.2361 0.6225 0.0
C117 C 0.58502 0.20517 0.6236 0.0
C118 C 0.46257 0.21374 0.46377 0.0
N119 N 0.54434 0.18221 0.4668 0.0
H120 H 0.67831 0.15796 0.5452 0.0
H121 H 0.41913 0.21991 0.40002 0.0
H122 H 0.69814 0.24722 0.41985 0.0
H123 H 0.57742 0.20321 0.16164 0.0
O124 O 0.74398 0.14317 0.39054 0.0
O125 O 0.67508 0.12287 0.25436 0.0
O126 O 0.45179 0.15309 0.28974 0.0
C127 C 0.75924 0.12703 0.30739 0.0
H128 H 0.50823 0.98065 0.38723 0.0
H129 H 0.71006 0.31706 0.30065 0.0
H130 H 0.37383 0.26585 0.53823 0.0
H131 H 0.63582 0.20204 0.68449 0.0
Co132 Co 0.53107 0.65102 0.22063 0.0
C133 C 0.5695 0.57511 0.08207 0.0
C134 C 0.58748 0.55318 0.22361 0.0
C135 C 0.60194 0.51557 0.16654 0.0
N136 N 0.56625 0.59054 0.17091 0.0
N137 N 0.5909 0.52983 0.07807 0.0
H138 H 0.55408 0.59528 1.02109 0.0
H139 H 0.59046 0.55313 0.29878 0.0
C140 C 0.76711 0.64108 0.25587 0.0
O141 O 0.78035 0.62871 0.1688 0.0
N142 N 0.4958 0.71034 0.27234 0.0
C143 C 0.45125 0.74655 0.22819 0.0
C144 C 0.44383 0.78256 0.29002 0.0
C145 C 0.51182 0.72419 0.36069 0.0
N146 N 0.47979 0.76796 0.37319 0.0
C147 C 0.51874 0.67966 1.03123 0.0
C148 C 0.68834 0.7409 1.03408 0.0
C149 C 0.62699 0.73616 0.95312 0.0
C150 C 0.54165 0.70523 0.95195 0.0
C151 C 0.664 0.71375 0.11183 0.0
N152 N 0.58224 0.68223 0.10874 0.0
H153 H 0.44832 0.658 1.03027 0.0
H154 H 0.70742 0.71991 0.17562 0.0
H155 H 0.42808 0.74716 0.15574 0.0
H156 H 0.54938 0.70327 0.41381 0.0
O157 O 0.38255 0.64319 0.18497 0.0
O158 O 0.45143 0.62289 0.32113 0.0
O159 O 0.67474 0.65309 0.28579 0.0
C160 C 0.36727 0.62705 0.26811 0.0
H161 H 0.61806 0.48065 0.18827 0.0
H162 H 0.41629 0.81705 0.27489 0.0
H163 H 0.7528 0.76588 1.03749 0.0
H164 H 0.49089 0.70211 0.89103 0.0
Co165 Co 0.09543 0.38103 0.72064 0.0
C166 C 0.05701 0.45692 0.58208 0.0
C167 C 0.03905 0.47887 0.72361 0.0
C168 C 1.0246 0.51648 0.66655 0.0
N169 N 0.06025 0.4415 0.67092 0.0
N170 N 0.03563 0.5022 0.57808 0.0
H171 H 0.07241 0.43675 0.5211 0.0
H172 H 0.03607 0.47893 0.79879 0.0
C173 C 0.85937 0.39096 0.75588 0.0
O174 O 0.84613 0.40333 0.66882 0.0
N175 N 0.13068 0.32171 0.77235 0.0
C176 C 0.17522 0.28549 0.7282 0.0
C177 C 0.18263 0.24948 0.79001 0.0
C178 C 0.11465 0.30785 0.86069 0.0
N179 N 0.14667 0.26408 0.87318 0.0
C180 C 0.10775 0.35238 0.53124 0.0
C181 C 0.93813 0.29115 0.53407 0.0
C182 C 0.99947 0.29589 0.45311 0.0
C183 C 0.08483 0.32681 0.45195 0.0
C184 C 0.96248 0.31829 0.61184 0.0
N185 N 0.04425 0.34981 0.60875 0.0
H186 H 0.17818 0.37404 0.53029 0.0
H187 H 0.91907 0.31213 0.67562 0.0
H188 H 0.1984 0.28487 0.65574 0.0
H189 H 0.07709 0.32878 0.91382 0.0
O190 O 0.24394 0.38885 0.68499 0.0
O191 O 0.17507 0.40916 0.82115 0.0
O192 O 0.95175 0.37896 0.7858 0.0
C193 C 0.25922 0.40499 0.76813 0.0
H194 H 1.00849 0.5514 0.68828 0.0
H195 H 0.21017 0.21499 0.77488 0.0
H196 H 0.87366 0.26617 0.53747 0.0
H197 H 0.13559 0.32993 0.39104 0.0
Co198 Co 0.53104 0.38102 0.85491 0.0
C199 C 0.56935 0.45694 0.99345 0.0
C200 C 0.58758 0.47884 0.85192 0.0
C201 C 0.60203 0.51645 0.90897 0.0
N202 N 0.56622 0.44149 0.90462 0.0
N203 N 0.59077 0.50221 0.99743 0.0
H204 H 0.55387 0.43678 0.05443 0.0
H205 H 0.5907 0.47887 0.77675 0.0
C206 C 0.7671 0.39096 0.81967 0.0
O207 O 0.78033 0.40333 0.90675 0.0
N208 N 0.49579 0.32169 0.8032 0.0
C209 C 0.45125 0.28548 0.84735 0.0
C210 C 0.44384 0.24946 0.78553 0.0
C211 C 0.51181 0.30783 0.71485 0.0
N212 N 0.4798 0.26407 0.70236 0.0
C213 C 0.51872 0.35237 0.04431 0.0
C214 C 0.68833 0.29114 0.04147 0.0
C215 C 0.62699 0.29588 0.12243 0.0
C216 C 0.54163 0.32681 0.1236 0.0
C217 C 0.66399 0.31828 0.96371 0.0
N218 N 0.58222 0.34981 0.9668 0.0
H219 H 0.44828 0.37403 0.04527 0.0
H220 H 0.7074 0.31212 0.89993 0.0
H221 H 0.42808 0.28486 0.9198 0.0
H222 H 0.54937 0.32876 0.66173 0.0
O223 O 0.38253 0.38884 0.89056 0.0
O224 O 0.45143 0.40914 0.75439 0.0
O225 O 0.67472 0.37895 0.78975 0.0
C226 C 0.36728 0.40497 0.80742 0.0
H227 H 0.61832 0.55136 0.88724 0.0
H228 H 0.41631 0.21498 0.80065 0.0
H229 H 0.7528 0.26616 0.03806 0.0
H230 H 0.49087 0.32992 0.18451 0.0
Co231 Co 0.09545 0.65101 0.35489 0.0
C232 C 0.05715 0.5751 0.49344 0.0
C233 C 0.03894 0.55318 0.35191 0.0
C234 C 1.02451 0.51557 0.40897 0.0
N235 N 0.06029 0.59053 0.40461 0.0
N236 N 0.03575 0.52982 0.49743 0.0
H237 H 0.07262 0.59526 0.55442 0.0
H238 H 0.03583 0.55314 0.27674 0.0
C239 C 0.85939 0.64107 0.31966 0.0
O240 O 0.84615 0.6287 0.40673 0.0
N241 N 0.13069 0.71033 0.30318 0.0
C242 C 0.17522 0.74654 0.34734 0.0
C243 C 0.18262 0.78256 0.28553 0.0
C244 C 0.11466 0.72419 0.21485 0.0
N245 N 0.14667 0.76796 0.20236 0.0
C246 C 0.10778 0.67966 0.5443 0.0
C247 C 0.93814 0.74087 0.54148 0.0
C248 C 0.99948 0.73614 0.62244 0.0
C249 C 0.08485 0.70522 0.62359 0.0
C250 C 0.9625 0.71374 0.46371 0.0
N251 N 0.04427 0.68222 0.46679 0.0
H252 H 0.17822 0.65801 0.54525 0.0
H253 H 0.91909 0.7199 0.39993 0.0
H254 H 0.1984 0.74716 0.4198 0.0
H255 H 0.07711 0.70326 0.16172 0.0
O256 O 0.24396 0.64319 0.39055 0.0
O257 O 0.17507 0.62288 0.25437 0.0
O258 O 0.95177 0.65307 0.28974 0.0
C259 C 0.25922 0.62706 0.3074 0.0
H260 H 1.00823 0.48066 0.38724 0.0
H261 H 0.21015 0.81705 0.30067 0.0
H262 H 0.87366 0.76585 0.53808 0.0
H263 H 0.13561 0.70211 0.6845 0.0
loop_
_geom_bond_atom_site_label_1
_geom_bond_atom_site_label_2
_geom_bond_distance
_geom_bond_site_symmetry_2
_ccdc_geom_bond_type
Co0 N4 2.148 . S
Co0 N10 2.128 . S
Co0 N20 2.194 . S
Co0 O25 2.351 1_455 S
Co0 O26 2.155 1_455 S
Co0 O27 2.096 . S
C1 N4 1.301 1_655 S
C1 N5 1.328 1_655 S
C1 H6 0.930 . S
C2 C3 1.333 . S
C2 N4 1.317 . S
C2 H7 0.930 . S
C3 C2 1.333 . S
C3 N5 1.350 . S
C3 H29 0.931 1_545 S
N4 Co0 2.148 . S
N4 C1 1.301 1_455 S
N4 C2 1.317 . S
N5 C1 1.328 1_455 S
N5 C3 1.350 . S
H6 C1 0.930 . S
H7 C2 0.930 . S
C8 O9 1.224 . S
C8 O27 1.247 . S
O9 C8 1.224 . S
N10 Co0 2.128 . S
N10 C11 1.355 1_455 S
N10 C13 1.311 . S
C11 N10 1.355 1_655 S
C11 C12 1.363 . S
C11 H23 0.929 . S
C12 C11 1.363 . S
C12 N14 1.375 1_655 S
C12 H30 0.931 . S
C13 N10 1.311 . S
C13 N14 1.347 . S
C13 H24 0.929 . S
N14 C12 1.375 1_455 S
N14 C13 1.347 . S
C15 C18 1.365 1_554 S
C15 N20 1.328 1_655 S
C15 H21 0.929 . S
C16 C17 1.362 . S
C16 C19 1.378 1_556 S
C16 H31 0.929 . S
C17 C16 1.362 . S
C17 C18 1.366 1_455 S
C18 C15 1.365 1_556 S
C18 C17 1.366 1_655 S
C18 H32 0.930 . S
C19 C16 1.378 1_554 S
C19 N20 1.315 . S
C19 H22 0.930 . S
N20 Co0 2.194 . S
N20 C15 1.328 1_455 S
N20 C19 1.315 . S
H21 C15 0.929 . S
H22 C19 0.930 . S
H23 C11 0.929 . S
H24 C13 0.929 . S
O25 Co0 2.351 1_655 S
O25 C28 1.244 . S
O26 Co0 2.155 1_655 S
O26 C28 1.240 . S
O27 Co0 2.096 . S
O27 C8 1.247 . S
C28 O25 1.244 . S
C28 O26 1.240 . S
H29 C3 0.931 1_565 S
H30 C12 0.931 . S
H31 C16 0.929 . S
H32 C18 0.930 . S
Co33 N37 2.148 . S
Co33 N43 2.128 . S
Co33 N53 2.194 . S
Co33 O58 2.351 . S
Co33 O59 2.155 . S
Co33 O60 2.096 . S
C34 N37 1.301 . S
C34 N38 1.328 . S
C34 H39 0.930 . S
C35 C36 1.333 . S
C35 N37 1.317 . S
C35 H40 0.930 . S
C36 C35 1.333 . S
C36 N38 1.350 . S
C36 H62 0.931 1_565 S
N37 Co33 2.148 . S
N37 C34 1.301 . S
N37 C35 1.317 . S
N38 C34 1.328 . S
N38 C36 1.350 . S
H39 C34 0.930 . S
H40 C35 0.930 . S
C41 O42 1.224 . S
C41 O60 1.247 . S
O42 C41 1.224 . S
N43 Co33 2.128 . S
N43 C44 1.355 . S
N43 C46 1.311 . S
C44 N43 1.355 . S
C44 C45 1.363 . S
C44 H56 0.929 . S
C45 C44 1.363 . S
C45 N47 1.375 . S
C45 H63 0.931 . S
C46 N43 1.311 . S
C46 N47 1.347 . S
C46 H57 0.929 . S
N47 C45 1.375 . S
N47 C46 1.347 . S
C48 C51 1.365 . S
C48 N53 1.328 . S
C48 H54 0.929 . S
C49 C50 1.362 . S
C49 C52 1.378 . S
C49 H64 0.929 . S
C50 C49 1.362 . S
C50 C51 1.366 . S
C51 C48 1.365 . S
C51 C50 1.366 . S
C51 H65 0.930 . S
C52 C49 1.378 . S
C52 N53 1.315 . S
C52 H55 0.930 . S
N53 Co33 2.194 . S
N53 C48 1.328 . S
N53 C52 1.315 . S
H54 C48 0.929 . S
H55 C52 0.930 . S
H56 C44 0.929 . S
H57 C46 0.929 . S
O58 Co33 2.351 . S
O58 C61 1.244 . S
O59 Co33 2.155 . S
O59 C61 1.240 . S
O60 Co33 2.096 . S
O60 C41 1.247 . S
C61 O58 1.244 . S
C61 O59 1.240 . S
H62 C36 0.931 1_545 S
H63 C45 0.931 . S
H64 C49 0.929 . S
H65 C51 0.930 . S
Co66 N70 2.148 . S
Co66 N76 2.128 . S
Co66 N86 2.194 . S
Co66 O91 2.351 1_455 S
Co66 O92 2.155 1_455 S
Co66 O93 2.096 . S
C67 N70 1.301 1_655 S
C67 N71 1.328 1_655 S
C67 H72 0.930 . S
C68 C69 1.333 . S
C68 N70 1.317 . S
C68 H73 0.930 . S
C69 C68 1.333 . S
C69 N71 1.350 . S
C69 H95 0.931 1_565 S
N70 Co66 2.148 . S
N70 C67 1.301 1_455 S
N70 C68 1.317 . S
N71 C67 1.328 1_455 S
N71 C69 1.350 . S
H72 C67 0.930 . S
H73 C68 0.930 . S
C74 O75 1.224 . S
C74 O93 1.247 . S
O75 C74 1.224 . S
N76 Co66 2.128 . S
N76 C77 1.355 1_455 S
N76 C79 1.311 . S
C77 N76 1.355 1_655 S
C77 C78 1.363 . S
C77 H89 0.929 . S
C78 C77 1.363 . S
C78 N80 1.375 1_655 S
C78 H96 0.931 . S
C79 N76 1.311 . S
C79 N80 1.347 . S
C79 H90 0.929 . S
N80 C78 1.375 1_455 S
N80 C79 1.347 . S
C81 C84 1.365 1_556 S
C81 N86 1.328 1_655 S
C81 H87 0.929 . S
C82 C83 1.362 . S
C82 C85 1.378 1_554 S
C82 H97 0.929 . S
C83 C82 1.362 . S
C83 C84 1.366 1_455 S
C84 C81 1.365 1_554 S
C84 C83 1.366 1_655 S
C84 H98 0.930 . S
C85 C82 1.378 1_556 S
C85 N86 1.315 . S
C85 H88 0.930 . S
N86 Co66 2.194 . S
N86 C81 1.328 1_455 S
N86 C85 1.315 . S
H87 C81 0.929 . S
H88 C85 0.930 . S
H89 C77 0.929 . S
H90 C79 0.929 . S
O91 Co66 2.351 1_655 S
O91 C94 1.244 . S
O92 Co66 2.155 1_655 S
O92 C94 1.240 . S
O93 Co66 2.096 . S
O93 C74 1.247 . S
C94 O91 1.244 . S
C94 O92 1.240 . S
H95 C69 0.931 1_545 S
H96 C78 0.931 . S
H97 C82 0.929 . S
H98 C84 0.930 . S
Co99 N103 2.148 . S
Co99 N109 2.128 . S
Co99 N119 2.194 . S
Co99 O124 2.351 . S
Co99 O125 2.155 . S
Co99 O126 2.096 . S
C100 N103 1.301 . S
C100 N104 1.328 . S
C100 H105 0.930 . S
C101 C102 1.333 . S
C101 N103 1.317 . S
C101 H106 0.930 . S
C102 C101 1.333 . S
C102 N104 1.350 . S
C102 H128 0.931 1_545 S
N103 Co99 2.148 . S
N103 C100 1.301 . S
N103 C101 1.317 . S
N104 C100 1.328 . S
N104 C102 1.350 . S
H105 C100 0.930 . S
H106 C101 0.930 . S
C107 O108 1.224 . S
C107 O126 1.247 . S
O108 C107 1.224 . S
N109 Co99 2.128 . S
N109 C110 1.355 . S
N109 C112 1.311 . S
C110 N109 1.355 . S
C110 C111 1.363 . S
C110 H122 0.929 . S
C111 C110 1.363 . S
C111 N113 1.375 . S
C111 H129 0.931 . S
C112 N109 1.311 . S
C112 N113 1.347 . S
C112 H123 0.929 . S
N113 C111 1.375 . S
N113 C112 1.347 . S
C114 C117 1.365 . S
C114 N119 1.328 . S
C114 H120 0.929 . S
C115 C116 1.362 . S
C115 C118 1.378 . S
C115 H130 0.929 . S
C116 C115 1.362 . S
C116 C117 1.366 . S
C117 C114 1.365 . S
C117 C116 1.366 . S
C117 H131 0.930 . S
C118 C115 1.378 . S
C118 N119 1.315 . S
C118 H121 0.930 . S
N119 Co99 2.194 . S
N119 C114 1.328 . S
N119 C118 1.315 . S
H120 C114 0.929 . S
H121 C118 0.930 . S
H122 C110 0.929 . S
H123 C112 0.929 . S
O124 Co99 2.351 . S
O124 C127 1.244 . S
O125 Co99 2.155 . S
O125 C127 1.240 . S
O126 Co99 2.096 . S
O126 C107 1.247 . S
C127 O124 1.244 . S
C127 O125 1.240 . S
H128 C102 0.931 1_565 S
H129 C111 0.931 . S
H130 C115 0.929 . S
H131 C117 0.930 . S
Co132 N136 2.148 . S
Co132 N142 2.128 . S
Co132 N152 2.194 . S
Co132 O157 2.351 . S
Co132 O158 2.155 . S
Co132 O159 2.096 . S
C133 N136 1.301 . S
C133 N137 1.328 . S
C133 H138 0.930 . S
C134 C135 1.333 . S
C134 N136 1.317 . S
C134 H139 0.930 . S
C135 C134 1.333 . S
C135 N137 1.350 . S
C135 H161 0.931 . S
N136 Co132 2.148 . S
N136 C133 1.301 . S
N136 C134 1.317 . S
N137 C133 1.328 . S
N137 C135 1.350 . S
H138 C133 0.930 . S
H139 C134 0.930 . S
C140 O141 1.224 . S
C140 O159 1.247 . S
O141 C140 1.224 . S
N142 Co132 2.128 . S
N142 C143 1.355 . S
N142 C145 1.311 . S
C143 N142 1.355 . S
C143 C144 1.363 . S
C143 H155 0.929 . S
C144 C143 1.363 . S
C144 N146 1.375 . S
C144 H162 0.931 . S
C145 N142 1.311 . S
C145 N146 1.347 . S
C145 H156 0.929 . S
N146 C144 1.375 . S
N146 C145 1.347 . S
C147 C150 1.365 1_554 S
C147 N152 1.328 . S
C147 H153 0.929 . S
C148 C149 1.362 . S
C148 C151 1.378 1_556 S
C148 H163 0.929 . S
C149 C148 1.362 . S
C149 C150 1.366 . S
C150 C147 1.365 1_556 S
C150 C149 1.366 . S
C150 H164 0.930 . S
C151 C148 1.378 1_554 S
C151 N152 1.315 . S
C151 H154 0.930 . S
N152 Co132 2.194 . S
N152 C147 1.328 . S
N152 C151 1.315 . S
H153 C147 0.929 . S
H154 C151 0.930 . S
H155 C143 0.929 . S
H156 C145 0.929 . S
O157 Co132 2.351 . S
O157 C160 1.244 . S
O158 Co132 2.155 . S
O158 C160 1.240 . S
O159 Co132 2.096 . S
O159 C140 1.247 . S
C160 O157 1.244 . S
C160 O158 1.240 . S
H161 C135 0.931 . S
H162 C144 0.931 . S
H163 C148 0.929 . S
H164 C150 0.930 . S
Co165 N169 2.148 . S
Co165 N175 2.128 . S
Co165 N185 2.194 . S
Co165 O190 2.351 . S
Co165 O191 2.155 . S
Co165 O192 2.096 1_455 S
C166 N169 1.301 . S
C166 N170 1.328 . S
C166 H171 0.930 . S
C167 C168 1.333 . S
C167 N169 1.317 1_655 S
C167 H172 0.930 . S
C168 C167 1.333 . S
C168 N170 1.350 1_655 S
C168 H194 0.931 . S
N169 Co165 2.148 . S
N169 C166 1.301 . S
N169 C167 1.317 1_455 S
N170 C166 1.328 . S
N170 C168 1.350 1_455 S
H171 C166 0.930 . S
H172 C167 0.930 . S
C173 O174 1.224 . S
C173 O192 1.247 . S
O174 C173 1.224 . S
N175 Co165 2.128 . S
N175 C176 1.355 . S
N175 C178 1.311 . S
C176 N175 1.355 . S
C176 C177 1.363 . S
C176 H188 0.929 . S
C177 C176 1.363 . S
C177 N179 1.375 . S
C177 H195 0.931 . S
C178 N175 1.311 . S
C178 N179 1.347 . S
C178 H189 0.929 1_455 S
N179 C177 1.375 . S
N179 C178 1.347 . S
C180 C183 1.365 . S
C180 N185 1.328 . S
C180 H186 0.929 . S
C181 C182 1.362 1_655 S
C181 C184 1.378 . S
C181 H196 0.929 . S
C182 C181 1.362 1_455 S
C182 C183 1.366 . S
C183 C180 1.365 . S
C183 C182 1.366 . S
C183 H197 0.930 . S
C184 C181 1.378 . S
C184 N185 1.315 1_655 S
C184 H187 0.930 . S
N185 Co165 2.194 . S
N185 C180 1.328 . S
N185 C184 1.315 1_455 S
H186 C180 0.929 . S
H187 C184 0.930 . S
H188 C176 0.929 . S
H189 C178 0.929 1_655 S
O190 Co165 2.351 . S
O190 C193 1.244 . S
O191 Co165 2.155 . S
O191 C193 1.240 . S
O192 Co165 2.096 1_655 S
O192 C173 1.247 . S
C193 O190 1.244 . S
C193 O191 1.240 . S
H194 C168 0.931 . S
H195 C177 0.931 . S
H196 C181 0.929 . S
H197 C183 0.930 . S
Co198 N202 2.148 . S
Co198 N208 2.128 . S
Co198 N218 2.194 . S
Co198 O223 2.351 . S
Co198 O224 2.155 . S
Co198 O225 2.096 . S
C199 N202 1.301 . S
C199 N203 1.328 . S
C199 H204 0.930 . S
C200 C201 1.333 . S
C200 N202 1.317 . S
C200 H205 0.930 . S
C201 C200 1.333 . S
C201 N203 1.350 . S
C201 H227 0.931 . S
N202 Co198 2.148 . S
N202 C199 1.301 . S
N202 C200 1.317 . S
N203 C199 1.328 . S
N203 C201 1.350 . S
H204 C199 0.930 . S
H205 C200 0.930 . S
C206 O207 1.224 . S
C206 O225 1.247 . S
O207 C206 1.224 . S
N208 Co198 2.128 . S
N208 C209 1.355 . S
N208 C211 1.311 . S
C209 N208 1.355 . S
C209 C210 1.363 . S
C209 H221 0.929 . S
C210 C209 1.363 . S
C210 N212 1.375 . S
C210 H228 0.931 . S
C211 N208 1.311 . S
C211 N212 1.347 . S
C211 H222 0.929 . S
N212 C210 1.375 . S
N212 C211 1.347 . S
C213 C216 1.365 1_556 S
C213 N218 1.328 . S
C213 H219 0.929 . S
C214 C215 1.362 . S
C214 C217 1.378 1_554 S
C214 H229 0.929 . S
C215 C214 1.362 . S
C215 C216 1.366 . S
C216 C213 1.365 1_554 S
C216 C215 1.366 . S
C216 H230 0.930 . S
C217 C214 1.378 1_556 S
C217 N218 1.315 . S
C217 H220 0.930 . S
N218 Co198 2.194 . S
N218 C213 1.328 . S
N218 C217 1.315 . S
H219 C213 0.929 . S
H220 C217 0.930 . S
H221 C209 0.929 . S
H222 C211 0.929 . S
O223 Co198 2.351 . S
O223 C226 1.244 . S
O224 Co198 2.155 . S
O224 C226 1.240 . S
O225 Co198 2.096 . S
O225 C206 1.247 . S
C226 O223 1.244 . S
C226 O224 1.240 . S
H227 C201 0.931 . S
H228 C210 0.931 . S
H229 C214 0.929 . S
H230 C216 0.930 . S
Co231 N235 2.148 . S
Co231 N241 2.128 . S
Co231 N251 2.194 . S
Co231 O256 2.351 . S
Co231 O257 2.155 . S
Co231 O258 2.096 1_455 S
C232 N235 1.301 . S
C232 N236 1.328 . S
C232 H237 0.930 . S
C233 C234 1.333 . S
C233 N235 1.317 1_655 S
C233 H238 0.930 . S
C234 C233 1.333 . S
C234 N236 1.350 1_655 S
C234 H260 0.931 . S
N235 Co231 2.148 . S
N235 C232 1.301 . S
N235 C233 1.317 1_455 S
N236 C232 1.328 . S
N236 C234 1.350 1_455 S
H237 C232 0.930 . S
H238 C233 0.930 . S
C239 O240 1.224 . S
C239 O258 1.247 . S
O240 C239 1.224 . S
N241 Co231 2.128 . S
N241 C242 1.355 . S
N241 C244 1.311 . S
C242 N241 1.355 . S
C242 C243 1.363 . S
C242 H254 0.929 . S
C243 C242 1.363 . S
C243 N245 1.375 . S
C243 H261 0.931 . S
C244 N241 1.311 . S
C244 N245 1.347 . S
C244 H255 0.929 1_455 S
N245 C243 1.375 . S
N245 C244 1.347 . S
C246 C249 1.365 . S
C246 N251 1.328 . S
C246 H252 0.929 . S
C247 C248 1.362 1_655 S
C247 C250 1.378 . S
C247 H262 0.929 . S
C248 C247 1.362 1_455 S
C248 C249 1.366 . S
C249 C246 1.365 . S
C249 C248 1.366 . S
C249 H263 0.930 . S
C250 C247 1.378 . S
C250 N251 1.315 1_655 S
C250 H253 0.930 . S
N251 Co231 2.194 . S
N251 C246 1.328 . S
N251 C250 1.315 1_455 S
H252 C246 0.929 . S
H253 C250 0.930 . S
H254 C242 0.929 . S
H255 C244 0.929 1_655 S
O256 Co231 2.351 . S
O256 C259 1.244 . S
O257 Co231 2.155 . S
O257 C259 1.240 . S
O258 Co231 2.096 1_655 S
O258 C239 1.247 . S
C259 O256 1.244 . S
C259 O257 1.240 . S
H260 C234 0.931 . S
H261 C243 0.931 . S
H262 C247 0.929 . S
H263 C249 0.930 . S
N71 N5 1.306 1_566 S
N104 N38 1.306 1_545 S
N137 N203 1.306 1_554 S
N170 N236 1.306 . S
C107 C8 1.897 . S
C41 C74 1.897 . S
C94 C61 1.252 . S
C127 C28 1.252 . S
C239 C140 1.898 . S
C173 C206 1.898 . S
C226 C193 1.252 . S
C259 C160 1.252 . S
N179 C17 1.542 . S
C50 N146 1.542 . S
C83 N245 1.542 . S
N212 C116 1.542 . S
N47 C149 1.542 . S
C182 N14 1.542 . S
C215 N113 1.542 . S
C248 N80 1.542 . S
