# Generated by pormake.
# Topology und, (4)-cn, num edge types: 1
# Building blocks:
#     Node 0, Type 0, BuildingBlock: QUQFOY_clean_sbu_1, # of connection points: 4
#     Node 1, Type 0, BuildingBlock: QUQFOY_clean_sbu_1, # of connection points: 4
#     Node 2, Type 0, BuildingBlock: QUQFOY_clean_sbu_1, # of connection points: 4
#     Node 3, Type 0, BuildingBlock: QUQFOY_clean_sbu_1, # of connection points: 4
#     Node 4, Type 0, BuildingBlock: QUQFOY_clean_sbu_1, # of connection points: 4
#     Node 5, Type 0, BuildingBlock: QUQFOY_clean_sbu_1, # of connection points: 4
#     Node 6, Type 0, BuildingBlock: QUQFOY_clean_sbu_1, # of connection points: 4
#     Node 7, Type 0, BuildingBlock: QUQFOY_clean_sbu_1, # of connection points: 4
#     Node 8, Type 0, BuildingBlock: QUQFOY_clean_sbu_1, # of connection points: 4
#     Node 9, Type 0, BuildingBlock: QUQFOY_clean_sbu_1, # of connection points: 4
#     Node 10, Type 0, BuildingBlock: QUQFOY_clean_sbu_1, # of connection points: 4
#     Node 11, Type 0, BuildingBlock: QUQFOY_clean_sbu_1, # of connection points: 4
#     Node 12, Type 0, BuildingBlock: QUQFOY_clean_sbu_1, # of connection points: 4
#     Node 13, Type 0, BuildingBlock: QUQFOY_clean_sbu_1, # of connection points: 4
#     Node 14, Type 0, BuildingBlock: QUQFOY_clean_sbu_1, # of connection points: 4
#     Node 15, Type 0, BuildingBlock: QUQFOY_clean_sbu_1, # of connection points: 4
#     Edge 16, Type (0, 0), BuildingBlock: UVAHIK_clean_linker_0, # of connection points: 2
#     Edge 17, Type (0, 0), BuildingBlock: UVAHIK_clean_linker_0, # of connection points: 2
#     Edge 18, Type (0, 0), BuildingBlock: UVAHIK_clean_linker_0, # of connection points: 2
#     Edge 19, Type (0, 0), BuildingBlock: UVAHIK_clean_linker_0, # of connection points: 2
#     Edge 20, Type (0, 0), BuildingBlock: UVAHIK_clean_linker_0, # of connection points: 2
#     Edge 21, Type (0, 0), BuildingBlock: UVAHIK_clean_linker_0, # of connection points: 2
#     Edge 22, Type (0, 0), BuildingBlock: UVAHIK_clean_linker_0, # of connection points: 2
#     Edge 23, Type (0, 0), BuildingBlock: UVAHIK_clean_linker_0, # of connection points: 2
#     Edge 24, Type (0, 0), BuildingBlock: UVAHIK_clean_linker_0, # of connection points: 2
#     Edge 25, Type (0, 0), BuildingBlock: UVAHIK_clean_linker_0, # of connection points: 2
#     Edge 26, Type (0, 0), BuildingBlock: UVAHIK_clean_linker_0, # of connection points: 2
#     Edge 27, Type (0, 0), BuildingBlock: UVAHIK_clean_linker_0, # of connection points: 2
#     Edge 28, Type (0, 0), BuildingBlock: UVAHIK_clean_linker_0, # of connection points: 2
#     Edge 29, Type (0, 0), BuildingBlock: UVAHIK_clean_linker_0, # of connection points: 2
#     Edge 30, Type (0, 0), BuildingBlock: UVAHIK_clean_linker_0, # of connection points: 2
#     Edge 31, Type (0, 0), BuildingBlock: UVAHIK_clean_linker_0, # of connection points: 2
#     Edge 32, Type (0, 0), BuildingBlock: UVAHIK_clean_linker_0, # of connection points: 2
#     Edge 33, Type (0, 0), BuildingBlock: UVAHIK_clean_linker_0, # of connection points: 2
#     Edge 34, Type (0, 0), BuildingBlock: UVAHIK_clean_linker_0, # of connection points: 2
#     Edge 35, Type (0, 0), BuildingBlock: UVAHIK_clean_linker_0, # of connection points: 2
#     Edge 36, Type (0, 0), BuildingBlock: UVAHIK_clean_linker_0, # of connection points: 2
#     Edge 37, Type (0, 0), BuildingBlock: UVAHIK_clean_linker_0, # of connection points: 2
#     Edge 38, Type (0, 0), BuildingBlock: UVAHIK_clean_linker_0, # of connection points: 2
#     Edge 39, Type (0, 0), BuildingBlock: UVAHIK_clean_linker_0, # of connection points: 2
#     Edge 40, Type (0, 0), BuildingBlock: UVAHIK_clean_linker_0, # of connection points: 2
#     Edge 41, Type (0, 0), BuildingBlock: UVAHIK_clean_linker_0, # of connection points: 2
#     Edge 42, Type (0, 0), BuildingBlock: UVAHIK_clean_linker_0, # of connection points: 2
#     Edge 43, Type (0, 0), BuildingBlock: UVAHIK_clean_linker_0, # of connection points: 2
#     Edge 44, Type (0, 0), BuildingBlock: UVAHIK_clean_linker_0, # of connection points: 2
#     Edge 45, Type (0, 0), BuildingBlock: UVAHIK_clean_linker_0, # of connection points: 2
#     Edge 46, Type (0, 0), BuildingBlock: UVAHIK_clean_linker_0, # of connection points: 2
#     Edge 47, Type (0, 0), BuildingBlock: UVAHIK_clean_linker_0, # of connection points: 2
# Relax obj value: 0.044
# Max RMSD: 0.111
# Mean RMSD: 0.093
data_MOF--net-und--node1-QUQFOY_clean_sbu_1--edge1-UVAHIK_clean_linker_0
_symmetry_space_group_name_H-M    P1
_symmetry_Int_Tables_number       1
_symmetry_cell_setting            triclinic
loop_
_symmetry_equiv_pos_as_xyz
'x, y, z'
_cell_length_a     79.847053
_cell_length_b     79.872021
_cell_length_c     29.158356
_cell_angle_alpha  90.058767
_cell_angle_beta   90.021197
_cell_angle_gamma 95.176169
loop_
_atom_site_label
_atom_site_type_symbol
_atom_site_fract_x
_atom_site_fract_y
_atom_site_fract_z
_atom_type_partial_charge
O0 O 0.26367 0.35674 0.9667 0.0
Cd1 Cd 0.26398 0.37354 0.02014 0.0
Cd2 Cd 0.23849 0.38397 0.97377 0.0
O3 O 0.23893 0.36141 0.93848 0.0
O4 O 0.27741 0.36321 0.06831 0.0
O5 O 0.25029 0.36634 0.07572 0.0
C6 C 0.26373 0.36059 0.09174 0.0
C7 C 0.21471 0.39249 0.01048 0.0
C8 C 0.25169 0.35294 0.93886 0.0
C9 C 0.27048 0.40684 0.97641 0.0
O10 O 0.25649 0.40315 0.9563 0.0
O11 O 0.27536 0.39729 0.00763 0.0
O12 O 0.2162 0.39317 0.96641 0.0
O13 O 0.22642 0.38615 0.03359 0.0
O14 O 0.89606 0.04244 0.29883 0.0
Cd15 Cd 0.91522 0.06018 0.27953 0.0
Cd16 Cd 0.92542 0.03403 0.23558 0.0
O17 O 0.90159 0.02295 0.24894 0.0
O18 O 0.90612 0.08252 0.28656 0.0
O19 O 0.91274 0.07199 0.21942 0.0
C20 C 0.90658 0.08384 0.24244 0.0
C21 C 0.93819 0.03394 0.1638 0.0
C22 C 0.89219 0.02826 0.27993 0.0
C23 C 0.94628 0.04723 0.31531 0.0
O24 O 0.94232 0.03485 0.2889 0.0
O25 O 0.9379 0.06005 0.31432 0.0
O26 O 0.93564 0.02038 0.18771 0.0
O27 O 0.93247 0.04745 0.17948 0.0
O28 O 0.25318 0.72765 0.46276 0.0
Cd29 Cd 0.25169 0.71068 0.51608 0.0
Cd30 Cd 0.2776 0.70042 0.47145 0.0
O31 O 0.27845 0.72329 0.43789 0.0
O32 O 0.23734 0.7216 0.56091 0.0
O33 O 0.26394 0.71756 0.57443 0.0
C34 C 0.25036 0.7239 0.58711 0.0
C35 C 0.30034 0.69117 0.51138 0.0
C36 C 0.26569 0.73173 0.43692 0.0
C37 C 0.24535 0.67799 0.4696 0.0
O38 O 0.25935 0.68207 0.45 0.0
O39 O 0.24043 0.68689 0.5023 0.0
O40 O 0.29969 0.69064 0.46713 0.0
O41 O 0.28831 0.69763 0.53289 0.0
O42 O 0.61734 0.03968 0.8063 0.0
Cd43 Cd 0.5987 0.02171 0.78523 0.0
Cd44 Cd 0.58951 0.04721 0.73732 0.0
O45 O 0.61368 0.05765 0.75067 0.0
O46 O 0.6078 0.99927 0.79053 0.0
O47 O 0.60157 0.01073 0.72426 0.0
C48 C 0.60758 0.99857 0.74626 0.0
C49 C 0.57687 0.04733 0.66521 0.0
C50 C 0.62209 0.05312 0.78481 0.0
C51 C 0.56766 0.03522 0.81671 0.0
O52 O 0.57237 0.04734 0.79012 0.0
O53 O 0.57556 0.02207 0.81708 0.0
O54 O 0.57985 0.06098 0.68863 0.0
O55 O 0.5821 0.03371 0.68151 0.0
O56 O 0.77909 0.73128 0.95777 0.0
Cd57 Cd 0.78384 0.71515 0.0105 0.0
Cd58 Cd 0.75063 0.70997 0.01014 0.0
O59 O 0.75211 0.72332 0.9494 0.0
O60 O 0.80729 0.70914 0.00084 0.0
O61 O 0.78494 0.69072 0.99521 0.0
C62 C 0.80103 0.69406 0.99145 0.0
C63 C 0.73293 0.68533 0.02007 0.0
C64 C 0.7653 0.73218 0.9365 0.0
C65 C 0.76701 0.72805 0.09172 0.0
O66 O 0.75368 0.72412 0.06891 0.0
O67 O 0.78113 0.72431 0.0765 0.0
O68 O 0.72706 0.69973 0.01525 0.0
O69 O 0.74899 0.68473 0.0165 0.0
O70 O 0.06809 0.0192 0.79919 0.0
Cd71 Cd 0.08387 0.01467 0.74546 0.0
Cd72 Cd 0.08931 0.04788 0.74736 0.0
O73 O 0.07626 0.04608 0.80862 0.0
O74 O 0.08991 0.99118 0.75394 0.0
O75 O 0.10837 0.01349 0.75966 0.0
C76 C 0.10504 0.9974 0.76305 0.0
C77 C 0.11392 0.06562 0.7372 0.0
C78 C 0.0674 0.03286 0.82125 0.0
C79 C 0.0707 0.03207 0.66572 0.0
O80 O 0.0749 0.04522 0.68903 0.0
O81 O 0.07434 0.01779 0.68006 0.0
O82 O 0.09954 0.07147 0.74293 0.0
O83 O 0.11454 0.04955 0.74003 0.0
O84 O 0.73641 0.35168 0.455 0.0
Cd85 Cd 0.7314 0.36774 0.50777 0.0
Cd86 Cd 0.76467 0.37256 0.50879 0.0
O87 O 0.76346 0.3595 0.44747 0.0
O88 O 0.70798 0.37367 0.49724 0.0
O89 O 0.73026 0.3922 0.49278 0.0
C90 C 0.7142 0.3888 0.48837 0.0
C91 C 0.78252 0.3969 0.52186 0.0
C92 C 0.75026 0.35074 0.43407 0.0
C93 C 0.7476 0.35445 0.58929 0.0
O94 O 0.76105 0.35816 0.56683 0.0
O95 O 0.73362 0.35848 0.57379 0.0
O96 O 0.78827 0.38247 0.51627 0.0
O97 O 0.76655 0.39777 0.51668 0.0
O98 O 0.4467 0.06273 0.30096 0.0
Cd99 Cd 0.43067 0.06745 0.24793 0.0
Cd100 Cd 0.42586 0.03418 0.24768 0.0
O101 O 0.43901 0.03569 0.30885 0.0
O102 O 0.42465 0.09088 0.25775 0.0
O103 O 0.4062 0.06856 0.26287 0.0
C104 C 0.40954 0.08463 0.26687 0.0
C105 C 0.40132 0.01641 0.23652 0.0
C106 C 0.44769 0.04895 0.32213 0.0
C107 C 0.44389 0.05091 0.16663 0.0
O108 O 0.44011 0.03752 0.18924 0.0
O109 O 0.43996 0.06495 0.18202 0.0
O110 O 0.41574 0.01059 0.24165 0.0
O111 O 0.40062 0.03244 0.24064 0.0
O112 O 0.76373 0.85608 0.4697 0.0
Cd113 Cd 0.76411 0.87332 0.52213 0.0
Cd114 Cd 0.73819 0.88304 0.47599 0.0
O115 O 0.73874 0.86021 0.44211 0.0
O116 O 0.77744 0.86349 0.57143 0.0
O117 O 0.75029 0.86666 0.57779 0.0
C118 C 0.76369 0.8611 0.59466 0.0
C119 C 0.71442 0.89166 0.51264 0.0
C120 C 0.75163 0.85191 0.44253 0.0
C121 C 0.76997 0.90629 0.47631 0.0
O122 O 0.75594 0.90221 0.45684 0.0
O123 O 0.77514 0.89712 0.50801 0.0
O124 O 0.71576 0.89197 0.46851 0.0
O125 O 0.72628 0.88563 0.53587 0.0
O126 O 0.3965 0.54254 0.79893 0.0
Cd127 Cd 0.41567 0.5605 0.78121 0.0
Cd128 Cd 0.42584 0.53503 0.73389 0.0
O129 O 0.40214 0.52366 0.74736 0.0
O130 O 0.40658 0.58281 0.78931 0.0
O131 O 0.4133 0.57271 0.72174 0.0
C132 C 0.40709 0.58439 0.74525 0.0
C133 C 0.43819 0.53568 0.66145 0.0
C134 C 0.39271 0.52856 0.77887 0.0
C135 C 0.44688 0.54714 0.81454 0.0
O136 O 0.44298 0.53526 0.78648 0.0
O137 O 0.43839 0.55988 0.81565 0.0
O138 O 0.43586 0.52189 0.68446 0.0
O139 O 0.43253 0.549 0.6785 0.0
O140 O 0.75107 0.22654 0.96693 0.0
Cd141 Cd 0.75115 0.20922 0.01925 0.0
Cd142 Cd 0.77685 0.20025 0.97143 0.0
O143 O 0.77638 0.22345 0.94 0.0
O144 O 0.73775 0.2188 0.069 0.0
O145 O 0.76502 0.21623 0.07465 0.0
C146 C 0.75156 0.22152 0.09186 0.0
C147 C 0.80009 0.1913 0.00981 0.0
C148 C 0.76321 0.23132 0.94046 0.0
C149 C 0.7454 0.1768 0.97098 0.0
O150 O 0.75895 0.18161 0.95004 0.0
O151 O 0.74069 0.18513 0.00511 0.0
O152 O 0.79933 0.19122 0.96555 0.0
O153 O 0.78794 0.19721 0.03213 0.0
O154 O 0.11747 0.54067 0.30473 0.0
Cd155 Cd 0.099 0.52252 0.28359 0.0
Cd156 Cd 0.0892 0.5481 0.2369 0.0
O157 O 0.11323 0.55892 0.25022 0.0
O158 O 0.10839 0.50022 0.28898 0.0
O159 O 0.10195 0.51152 0.22269 0.0
C160 C 0.10811 0.49945 0.24473 0.0
C161 C 0.07669 0.54774 0.16459 0.0
C162 C 0.12188 0.55431 0.2838 0.0
C163 C 0.06771 0.5354 0.31611 0.0
O164 O 0.07208 0.54773 0.28989 0.0
O165 O 0.0759 0.52245 0.31581 0.0
O166 O 0.07923 0.56148 0.18784 0.0
O167 O 0.08223 0.53432 0.18131 0.0
O168 O 0.27812 0.23043 0.45459 0.0
Cd169 Cd 0.28306 0.21474 0.50817 0.0
Cd170 Cd 0.24986 0.20982 0.50829 0.0
O171 O 0.25117 0.2223 0.44623 0.0
O172 O 0.30653 0.20887 0.49818 0.0
O173 O 0.28431 0.19025 0.49387 0.0
C174 C 0.30036 0.1937 0.48939 0.0
C175 C 0.23225 0.1854 0.52209 0.0
C176 C 0.26437 0.23107 0.43296 0.0
C177 C 0.26656 0.22863 0.58831 0.0
O178 O 0.25322 0.22476 0.56549 0.0
O179 O 0.2806 0.22442 0.5737 0.0
O180 O 0.22633 0.19971 0.51566 0.0
O181 O 0.24826 0.18469 0.51746 0.0
O182 O 0.56799 0.52012 0.29878 0.0
Cd183 Cd 0.58403 0.51503 0.24607 0.0
Cd184 Cd 0.5892 0.5482 0.24572 0.0
O185 O 0.57626 0.54703 0.30712 0.0
O186 O 0.58991 0.49161 0.25667 0.0
O187 O 0.60846 0.51388 0.26133 0.0
C188 C 0.60503 0.49783 0.26586 0.0
C189 C 0.61358 0.56599 0.23281 0.0
C190 C 0.56728 0.53393 0.32011 0.0
C191 C 0.57076 0.53146 0.16509 0.0
O192 O 0.57462 0.54481 0.18787 0.0
O193 O 0.57475 0.5174 0.1801 0.0
O194 O 0.59917 0.57177 0.23861 0.0
O195 O 0.6144 0.55001 0.2376 0.0
O196 O 0.2358 0.85091 0.95936 0.0
Cd197 Cd 0.23109 0.86802 0.00965 0.0
Cd198 Cd 0.26381 0.87426 0.0048 0.0
O199 O 0.2615 0.86156 0.9428 0.0
O200 O 0.20766 0.87406 0.99975 0.0
O201 O 0.23016 0.89213 0.99114 0.0
C202 C 0.21403 0.88889 0.98813 0.0
C203 C 0.28165 0.8987 0.0168 0.0
C204 C 0.24885 0.85117 0.93433 0.0
C205 C 0.24904 0.85603 0.08842 0.0
O206 O 0.26174 0.8595 0.06276 0.0
O207 O 0.23468 0.86012 0.07618 0.0
O208 O 0.28745 0.88442 0.00909 0.0
O209 O 0.26557 0.8994 0.01418 0.0
O210 O 0.94716 0.56313 0.79982 0.0
Cd211 Cd 0.93096 0.56799 0.74735 0.0
Cd212 Cd 0.92544 0.53476 0.74788 0.0
O213 O 0.93896 0.53623 0.80849 0.0
O214 O 0.92499 0.59141 0.75757 0.0
O215 O 0.90657 0.56906 0.7631 0.0
C216 C 0.90994 0.58513 0.76725 0.0
C217 C 0.90093 0.5168 0.73788 0.0
C218 C 0.94797 0.54936 0.82118 0.0
C219 C 0.94349 0.55107 0.66601 0.0
O220 O 0.93942 0.5378 0.68889 0.0
O221 O 0.94 0.56527 0.68128 0.0
O222 O 0.91542 0.5111 0.74269 0.0
O223 O 0.90015 0.53282 0.74164 0.0
C224 C 0.24781 0.34293 0.15115 0.0
C225 C 0.26323 0.34974 0.13289 0.0
C226 C 0.24739 0.33047 0.18497 0.0
C227 C 0.27331 0.29776 0.22759 0.0
H228 H 0.24143 0.29398 0.3281 0.0
C229 C 0.27846 0.2516 0.37734 0.0
C230 C 0.26359 0.24311 0.39453 0.0
C231 C 0.27782 0.26414 0.34426 0.0
C232 C 0.25026 0.29476 0.29984 0.0
H233 H 0.29033 0.34965 0.13794 0.0
H234 H 0.28961 0.3283 0.19756 0.0
H235 H 0.24163 0.31779 0.27545 0.0
H236 H 0.23637 0.2409 0.38955 0.0
H237 H 0.23528 0.26284 0.33146 0.0
H238 H 0.28203 0.27485 0.2521 0.0
C239 C 0.27781 0.33219 0.18489 0.0
C240 C 0.2504 0.30842 0.26974 0.0
C241 C 0.27823 0.34455 0.15099 0.0
C242 C 0.24806 0.24717 0.37697 0.0
C243 C 0.24742 0.25983 0.34401 0.0
C244 C 0.2732 0.28417 0.25769 0.0
C245 C 0.26239 0.32463 0.20131 0.0
C246 C 0.26203 0.31015 0.23347 0.0
C247 C 0.2623 0.26857 0.32767 0.0
C248 C 0.26176 0.28257 0.29434 0.0
H249 H 0.23603 0.34663 0.13778 0.0
H250 H 0.23529 0.32489 0.19674 0.0
H251 H 0.28215 0.29845 0.19936 0.0
H252 H 0.29064 0.2488 0.39009 0.0
H253 H 0.28951 0.27073 0.33269 0.0
C254 C 0.96773 0.03108 0.35383 0.0
C255 C 0.9604 0.04631 0.34792 0.0
C256 C 0.98068 0.02984 0.38548 0.0
C257 C 0.9996 0.05061 0.4891 0.0
H258 H 0.03568 0.02237 0.46482 0.0
C259 C 0.05614 0.04951 0.60987 0.0
C260 C 0.06045 0.03358 0.62374 0.0
C261 C 0.04501 0.05111 0.57363 0.0
C262 C 0.02562 0.03021 0.47213 0.0
H263 H 0.96125 0.07229 0.37 0.0
H264 H 0.98417 0.07026 0.42454 0.0
H265 H 0.01437 0.02564 0.40615 0.0
H266 H 0.05698 0.00688 0.6088 0.0
H267 H 0.03752 0.00974 0.54486 0.0
H268 H 0.01097 0.05531 0.55485 0.0
C269 C 0.97962 0.05915 0.40539 0.0
C270 C 0.01338 0.03207 0.4386 0.0
C271 C 0.96654 0.06036 0.37393 0.0
C272 C 0.05391 0.01932 0.59904 0.0
C273 C 0.0428 0.02096 0.56241 0.0
C274 C 0.0119 0.04887 0.52236 0.0
C275 C 0.98677 0.04383 0.41184 0.0
C276 C 1.00017 0.04226 0.44674 0.0
C277 C 0.03796 0.03685 0.55008 0.0
C278 C 0.02502 0.03863 0.51429 0.0
H279 H 0.96327 0.01996 0.33455 0.0
H280 H 0.98563 0.01777 0.38998 0.0
H281 H 0.98945 0.05826 0.49706 0.0
H282 H 0.06101 0.0608 0.62777 0.0
H283 H 0.04174 0.06354 0.56438 0.0
C284 C 0.26348 0.73638 0.65925 0.0
C285 C 0.25014 0.73509 0.62756 0.0
C286 C 0.26407 0.74848 0.69418 0.0
C287 C 0.25156 0.79008 0.7178 0.0
H288 H 0.25516 0.77965 0.8471 0.0
C289 C 0.26168 0.84037 0.86255 0.0
C290 C 0.24966 0.83838 0.8978 0.0
C291 C 0.26268 0.82779 0.82941 0.0
C292 C 0.25425 0.78271 0.81104 0.0
H293 H 0.22681 0.74522 0.60829 0.0
H294 H 0.22807 0.76646 0.66855 0.0
H295 H 0.25509 0.75702 0.79003 0.0
H296 H 0.22938 0.82158 0.92614 0.0
H297 H 0.23142 0.79958 0.86895 0.0
H298 H 0.25079 0.81576 0.7387 0.0
C299 C 0.23799 0.75808 0.66646 0.0
C300 C 0.25428 0.76982 0.77854 0.0
C301 C 0.23723 0.74582 0.63222 0.0
C302 C 0.23872 0.82357 0.89928 0.0
C303 C 0.23995 0.81089 0.86681 0.0
C304 C 0.25188 0.80301 0.7502 0.0
C305 C 0.25152 0.75968 0.69732 0.0
C306 C 0.25264 0.77337 0.73171 0.0
C307 C 0.25194 0.81287 0.83164 0.0
C308 C 0.25296 0.7994 0.79714 0.0
H309 H 0.27363 0.72831 0.65647 0.0
H310 H 0.27461 0.7495 0.7177 0.0
H311 H 0.2504 0.79312 0.68179 0.0
H312 H 0.27028 0.85164 0.86057 0.0
H313 H 0.27202 0.82957 0.80251 0.0
C314 C 0.45867 0.03434 0.10906 0.0
C315 C 0.45384 0.04996 0.12392 0.0
C316 C 0.46931 0.03329 0.07147 0.0
C317 C 0.50146 0.05889 0.00497 0.0
H318 H 0.4979 0.01998 0.92464 0.0
C319 C 0.54627 0.05233 0.85197 0.0
C320 C 0.55327 0.03685 0.84801 0.0
C321 C 0.53311 0.05424 0.88249 0.0
C322 C 0.49909 0.03087 0.94697 0.0
H323 H 0.45594 0.0767 0.10959 0.0
H324 H 0.47433 0.07484 0.04307 0.0
H325 H 0.47608 0.02323 0.98168 0.0
H326 H 0.55167 0.01112 0.8725 0.0
H327 H 0.52854 0.01446 0.92575 0.0
H328 H 0.52447 0.06651 0.97004 0.0
C329 C 0.4701 0.06342 0.06125 0.0
C330 C 0.48661 0.03275 0.97969 0.0
C331 C 0.45947 0.06448 0.09917 0.0
C332 C 0.54658 0.02321 0.87475 0.0
C333 C 0.53328 0.0251 0.90505 0.0
C334 C 0.51386 0.05708 0.97197 0.0
C335 C 0.47536 0.04782 0.04738 0.0
C336 C 0.48776 0.04665 0.00962 0.0
C337 C 0.52652 0.04068 0.90951 0.0
C338 C 0.51293 0.04294 0.94305 0.0
H339 H 0.45462 0.02287 0.12724 0.0
H340 H 0.47326 0.02111 0.06237 0.0
H341 H 0.50294 0.06961 0.02785 0.0
H342 H 0.55108 0.06311 0.83188 0.0
H343 H 0.52804 0.06634 0.88484 0.0
C344 C 0.26715 0.84153 0.14271 0.0
C345 C 0.2511 0.84606 0.13059 0.0
C346 C 0.26915 0.8306 0.17914 0.0
C347 C 0.24938 0.81195 0.28323 0.0
H348 H 0.27643 0.77519 0.25617 0.0
C349 C 0.24986 0.75375 0.39996 0.0
C350 C 0.26493 0.74606 0.40498 0.0
C351 C 0.24874 0.76687 0.36886 0.0
C352 C 0.26908 0.78551 0.26469 0.0
H353 H 0.22467 0.84321 0.1488 0.0
H354 H 0.22822 0.82407 0.21293 0.0
H355 H 0.27324 0.7967 0.1986 0.0
H356 H 0.29077 0.74644 0.38193 0.0
H357 H 0.28893 0.76964 0.32821 0.0
H358 H 0.24528 0.80083 0.34947 0.0
C359 C 0.23922 0.82904 0.19396 0.0
C360 C 0.26721 0.79782 0.23159 0.0
C361 C 0.23718 0.83997 0.1572 0.0
C362 C 0.27895 0.75202 0.37868 0.0
C363 C 0.27786 0.76526 0.34772 0.0
C364 C 0.25136 0.7997 0.31657 0.0
C365 C 0.25519 0.82396 0.20456 0.0
C366 C 0.25729 0.81113 0.2404 0.0
C367 C 0.26268 0.77275 0.34214 0.0
C368 C 0.26116 0.78626 0.3076 0.0
H369 H 0.27819 0.84609 0.1233 0.0
H370 H 0.28164 0.82715 0.18703 0.0
H371 H 0.2418 0.82217 0.29112 0.0
H372 H 0.23877 0.74945 0.41951 0.0
H373 H 0.23677 0.77211 0.365 0.0
C374 C 0.46404 0.03274 0.37778 0.0
C375 C 0.45994 0.04824 0.36016 0.0
C376 C 0.47679 0.03215 0.41057 0.0
C377 C 0.50126 0.05802 0.49663 0.0
H378 H 0.53454 0.02605 0.47992 0.0
C379 C 0.56123 0.0622 0.60571 0.0
C380 C 0.56615 0.04709 0.62374 0.0
C381 C 0.54902 0.06201 0.57136 0.0
C382 C 0.52527 0.03494 0.48534 0.0
H383 H 0.4657 0.07528 0.36425 0.0
H384 H 0.48779 0.07423 0.42136 0.0
H385 H 0.51088 0.02602 0.42675 0.0
H386 H 0.56269 0.01992 0.61826 0.0
H387 H 0.54123 0.01958 0.55859 0.0
H388 H 0.51548 0.0669 0.55525 0.0
C389 C 0.48115 0.06253 0.40997 0.0
C390 C 0.5117 0.0349 0.45493 0.0
C391 C 0.46852 0.06312 0.37706 0.0
C392 C 0.55921 0.03178 0.60499 0.0
C393 C 0.54691 0.03159 0.57072 0.0
C394 C 0.51477 0.05803 0.52706 0.0
C395 C 0.48559 0.04704 0.4267 0.0
C396 C 0.4996 0.04652 0.46008 0.0
C397 C 0.54135 0.04671 0.55438 0.0
C398 C 0.52702 0.04658 0.52163 0.0
H399 H 0.4577 0.02104 0.36545 0.0
H400 H 0.47979 0.02003 0.42322 0.0
H401 H 0.49202 0.06696 0.50197 0.0
H402 H 0.56642 0.07421 0.61915 0.0
H403 H 0.54535 0.0739 0.55875 0.0
C404 C 0.24993 0.24423 0.6439 0.0
C405 C 0.26553 0.23898 0.6303 0.0
C406 C 0.24882 0.25516 0.68087 0.0
C407 C 0.27452 0.28711 0.74815 0.0
H408 H 0.23507 0.28448 0.82637 0.0
C409 C 0.26832 0.33141 0.90244 0.0
C410 C 0.25306 0.33886 0.90631 0.0
C411 C 0.27 0.31845 0.87112 0.0
C412 C 0.2461 0.28542 0.80459 0.0
H413 H 0.29216 0.24068 0.64617 0.0
H414 H 0.29018 0.25955 0.71168 0.0
H415 H 0.23819 0.26253 0.76959 0.0
H416 H 0.22752 0.3383 0.88065 0.0
H417 H 0.23046 0.31546 0.82599 0.0
H418 H 0.28244 0.30997 0.78353 0.0
C419 C 0.27883 0.25543 0.69296 0.0
C420 C 0.24791 0.27286 0.77202 0.0
C421 C 0.27996 0.24452 0.65563 0.0
C422 C 0.23944 0.33285 0.87849 0.0
C423 C 0.24109 0.31973 0.84739 0.0
C424 C 0.27278 0.29958 0.78102 0.0
C425 C 0.26326 0.26107 0.70562 0.0
C426 C 0.26203 0.27365 0.74294 0.0
C427 C 0.25644 0.3125 0.84317 0.0
C428 C 0.25846 0.29897 0.80922 0.0
H429 H 0.23852 0.24027 0.62522 0.0
H430 H 0.23666 0.2594 0.68901 0.0
H431 H 0.28542 0.28831 0.72591 0.0
H432 H 0.27909 0.3357 0.92331 0.0
H433 H 0.28192 0.313 0.86898 0.0
C434 C 0.04665 0.01862 0.87609 0.0
C435 C 0.05526 0.03352 0.85948 0.0
C436 C 0.03405 0.01919 0.9091 0.0
C437 C 1.00354 0.04675 0.9543 0.0
H438 H 0.99981 0.01475 0.05445 0.0
C439 C 0.95576 0.0496 0.10376 0.0
C440 C 0.94894 0.03426 0.12242 0.0
C441 C 0.96812 0.04987 0.06964 0.0
C442 C 1.0005 0.02362 0.0263 0.0
H443 H 0.0576 0.06071 0.86538 0.0
H444 H 0.03557 0.06167 0.92327 0.0
H445 H 0.0233 0.01476 0.00131 0.0
H446 H 0.94888 0.00716 0.11782 0.0
H447 H 0.97001 0.0076 0.05763 0.0
H448 H 0.98063 0.05551 0.97912 0.0
C449 C 0.03852 0.04957 0.91035 0.0
C450 C 0.01403 0.02367 0.99597 0.0
C451 C 0.05124 0.049 0.8775 0.0
C452 C 0.954 0.01919 0.10445 0.0
C453 C 0.96624 0.01946 0.07021 0.0
C454 C 0.98994 0.04666 0.98459 0.0
C455 C 0.02968 0.03467 0.92616 0.0
C456 C 0.01567 0.03517 0.95949 0.0
C457 C 0.97382 0.0348 0.05336 0.0
C458 C 0.9882 0.03501 0.0208 0.0
H459 H 0.0494 0.00648 0.86296 0.0
H460 H 0.02738 0.00749 0.92027 0.0
H461 H 1.00436 0.05563 0.92616 0.0
H462 H 0.95217 0.06144 0.11702 0.0
H463 H 0.97373 0.06192 0.05759 0.0
C464 C 0.77918 0.75361 0.88289 0.0
C465 C 0.76441 0.74468 0.89924 0.0
C466 C 0.77837 0.76665 0.85135 0.0
C467 C 0.75038 0.78513 0.76761 0.0
H468 H 0.78134 0.82492 0.78511 0.0
C469 C 0.74754 0.84439 0.6555 0.0
C470 C 0.76305 0.85077 0.63682 0.0
C471 C 0.74695 0.83252 0.69086 0.0
C472 C 0.77266 0.81388 0.77969 0.0
H473 H 0.73719 0.74218 0.89416 0.0
H474 H 0.73577 0.76508 0.83943 0.0
H475 H 0.78178 0.80145 0.8383 0.0
H476 H 0.79011 0.85035 0.64218 0.0
H477 H 0.78907 0.8298 0.70396 0.0
H478 H 0.7413 0.79762 0.70887 0.0
C479 C 0.748 0.76188 0.85069 0.0
C480 C 0.77295 0.80038 0.81002 0.0
C481 C 0.74882 0.74875 0.88214 0.0
C482 C 0.77796 0.84568 0.65581 0.0
C483 C 0.77737 0.83394 0.69134 0.0
C484 C 0.75004 0.79868 0.73737 0.0
C485 C 0.76277 0.77118 0.83551 0.0
C486 C 0.76197 0.78574 0.80403 0.0
C487 C 0.76185 0.82692 0.70852 0.0
C488 C 0.76131 0.81312 0.74278 0.0
H489 H 0.79142 0.75073 0.89505 0.0
H490 H 0.79001 0.77327 0.83958 0.0
H491 H 0.74187 0.77401 0.76168 0.0
H492 H 0.73583 0.84804 0.64158 0.0
H493 H 0.73482 0.82749 0.70383 0.0
C494 C 0.73637 0.32949 0.37981 0.0
C495 C 0.75116 0.33827 0.39663 0.0
C496 C 0.73715 0.31645 0.34819 0.0
C497 C 0.76513 0.29768 0.26495 0.0
H498 H 0.73379 0.25815 0.28175 0.0
C499 C 0.7677 0.23834 0.15266 0.0
C500 C 0.75219 0.23196 0.13393 0.0
C501 C 0.76831 0.25026 0.18795 0.0
C502 C 0.74258 0.26912 0.2765 0.0
H503 H 0.77839 0.34051 0.39226 0.0
H504 H 0.77976 0.3176 0.33732 0.0
H505 H 0.73346 0.28165 0.33501 0.0
H506 H 0.72514 0.23246 0.13911 0.0
H507 H 0.7262 0.25312 0.20074 0.0
H508 H 0.77419 0.28511 0.20629 0.0
C509 C 0.76753 0.32092 0.34832 0.0
C510 C 0.74235 0.28263 0.30689 0.0
C511 C 0.76675 0.33406 0.37988 0.0
C512 C 0.73729 0.23711 0.15278 0.0
C513 C 0.7379 0.24893 0.18823 0.0
C514 C 0.7654 0.28412 0.23463 0.0
C515 C 0.75274 0.31177 0.33271 0.0
C516 C 0.75347 0.29718 0.30117 0.0
C517 C 0.75342 0.25594 0.20549 0.0
C518 C 0.75399 0.26977 0.23977 0.0
H519 H 0.72414 0.33249 0.39169 0.0
H520 H 0.72549 0.30995 0.33609 0.0
H521 H 0.77376 0.30874 0.25925 0.0
H522 H 0.7794 0.23463 0.13887 0.0
H523 H 0.78045 0.25527 0.20099 0.0
C524 C 0.77518 0.25245 0.88256 0.0
C525 C 0.76155 0.24572 0.90928 0.0
C526 C 0.77326 0.26571 0.85222 0.0
C527 C 0.74122 0.28489 0.78503 0.0
H528 H 0.77497 0.32274 0.775 0.0
C529 C 0.73389 0.33894 0.6567 0.0
C530 C 0.74846 0.34453 0.63206 0.0
C531 C 0.73489 0.32839 0.69481 0.0
C532 C 0.76548 0.3122 0.77709 0.0
H533 H 0.73526 0.24783 0.92538 0.0
H534 H 0.73196 0.27082 0.87233 0.0
H535 H 0.77824 0.30107 0.83241 0.0
H536 H 0.77557 0.34376 0.62911 0.0
H537 H 0.77723 0.32527 0.69428 0.0
H538 H 0.72871 0.29564 0.72887 0.0
C539 C 0.74409 0.2658 0.87474 0.0
C540 C 0.76737 0.2998 0.81002 0.0
C541 C 0.74604 0.25267 0.9053 0.0
C542 C 0.76406 0.33973 0.64719 0.0
C543 C 0.76504 0.32919 0.68496 0.0
C544 C 0.7394 0.2972 0.75182 0.0
C545 C 0.75764 0.27241 0.8477 0.0
C546 C 0.75534 0.28594 0.81403 0.0
C547 C 0.75048 0.3232 0.70899 0.0
C548 C 0.75161 0.31092 0.74703 0.0
H549 H 0.7873 0.2474 0.88482 0.0
H550 H 0.7839 0.27048 0.83151 0.0
H551 H 0.73182 0.27425 0.78704 0.0
H552 H 0.72168 0.34244 0.64607 0.0
H553 H 0.72344 0.3242 0.71292 0.0
C554 C 0.78031 0.74365 0.1596 0.0
C555 C 0.76588 0.73805 0.13433 0.0
C556 C 0.77912 0.75438 0.1973 0.0
C557 C 0.74815 0.77135 0.27717 0.0
H558 H 0.78239 0.80875 0.28826 0.0
C559 C 0.73935 0.8314 0.38322 0.0
C560 C 0.753 0.83763 0.41063 0.0
C561 C 0.74104 0.81817 0.35245 0.0
C562 C 0.77281 0.79828 0.28589 0.0
H563 H 0.73882 0.73895 0.12987 0.0
H564 H 0.73684 0.75777 0.19431 0.0
H565 H 0.78545 0.78717 0.23053 0.0
H566 H 0.7791 0.83472 0.42742 0.0
H567 H 0.78199 0.81185 0.37369 0.0
H568 H 0.7353 0.78284 0.33175 0.0
C569 C 0.74905 0.75373 0.18582 0.0
C570 C 0.7746 0.78585 0.25295 0.0
C571 C 0.75022 0.74298 0.14848 0.0
C572 C 0.76831 0.83027 0.40683 0.0
C573 C 0.77003 0.8172 0.37586 0.0
C574 C 0.74629 0.78388 0.30982 0.0
C575 C 0.76349 0.75977 0.2104 0.0
C576 C 0.76222 0.77229 0.24786 0.0
C577 C 0.75645 0.81106 0.34819 0.0
C578 C 0.75855 0.79753 0.31431 0.0
H579 H 0.79256 0.74003 0.14975 0.0
H580 H 0.79047 0.75857 0.21589 0.0
H581 H 0.73851 0.76095 0.27483 0.0
H582 H 0.7274 0.83677 0.38533 0.0
H583 H 0.73039 0.81376 0.33127 0.0
C584 C 0.5556 0.54814 0.1087 0.0
C585 C 0.56063 0.53251 0.12271 0.0
C586 C 0.54482 0.54929 0.07145 0.0
C587 C 0.5128 0.52374 0.00403 0.0
H588 H 0.51578 0.56316 0.92579 0.0
C589 C 0.46847 0.53037 0.85005 0.0
C590 C 0.46108 0.54567 0.84662 0.0
C591 C 0.48149 0.52856 0.88108 0.0
C592 C 0.51475 0.55213 0.94756 0.0
H593 H 0.55873 0.50585 0.1072 0.0
H594 H 0.54011 0.50789 0.04119 0.0
H595 H 0.53768 0.55987 0.98258 0.0
H596 H 0.46182 0.57116 0.87268 0.0
H597 H 0.48477 0.56802 0.92682 0.0
H598 H 0.48989 0.51599 0.96862 0.0
C599 C 0.54428 0.51924 0.05982 0.0
C600 C 0.52728 0.55023 0.98014 0.0
C601 C 0.55505 0.51808 0.09744 0.0
C602 C 0.46722 0.55922 0.87451 0.0
C603 C 0.48041 0.55745 0.90531 0.0
C604 C 0.50036 0.52557 0.97113 0.0
C605 C 0.53884 0.53485 0.0468 0.0
C606 C 0.52634 0.53612 0.00929 0.0
C607 C 0.48756 0.54204 0.90916 0.0
C608 C 0.5011 0.53988 0.94295 0.0
H609 H 0.55961 0.55955 0.12731 0.0
H610 H 0.54073 0.56148 0.06305 0.0
H611 H 0.51148 0.51286 0.02631 0.0
H612 H 0.46407 0.51966 0.8291 0.0
H613 H 0.48687 0.51661 0.88295 0.0
C614 C 0.0468 0.52252 0.37321 0.0
C615 C 0.0534 0.53656 0.34796 0.0
C616 C 0.03365 0.52391 0.40431 0.0
C617 C 1.00066 0.55177 0.43845 0.0
H618 H 1.00225 0.5276 0.55333 0.0
C619 C 0.96031 0.56411 0.59988 0.0
C620 C 0.95347 0.54974 0.62349 0.0
C621 C 0.97132 0.56257 0.56296 0.0
C622 C 1.00154 0.53431 0.52122 0.0
H623 H 0.05126 0.56307 0.3354 0.0
H624 H 0.02877 0.56559 0.39032 0.0
H625 H 0.02377 0.52456 0.49569 0.0
H626 H 0.95216 0.52244 0.62511 0.0
H627 H 0.97126 0.51988 0.56126 0.0
H628 H 0.97858 0.56184 0.46501 0.0
C629 C 0.03342 0.55339 0.38548 0.0
C630 C 0.01384 0.53251 0.48803 0.0
C631 C 0.04643 0.55196 0.35413 0.0
C632 C 0.9573 0.53382 0.60811 0.0
C633 C 0.96832 0.53231 0.5716 0.0
C634 C 0.98842 0.55369 0.47194 0.0
C635 C 0.02692 0.53942 0.41122 0.0
C636 C 0.01356 0.54117 0.44612 0.0
C637 C 0.97575 0.54666 0.54928 0.0
C638 C 0.9887 0.54491 0.51357 0.0
H639 H 0.05179 0.51044 0.36902 0.0
H640 H 0.02877 0.5128 0.42289 0.0
H641 H 0.99989 0.55847 0.40636 0.0
H642 H 0.95761 0.57654 0.61081 0.0
H643 H 0.9769 0.57385 0.54635 0.0
C644 C 0.06114 0.56205 0.10374 0.0
C645 C 0.06627 0.54714 0.12254 0.0
C646 C 0.0494 0.56147 0.06812 0.0
C647 C 0.01428 0.53411 0.02114 0.0
H648 H 0.0172 0.5659 0.92047 0.0
C649 C 0.96456 0.53287 0.87553 0.0
C650 C 0.96049 0.54846 0.85845 0.0
C651 C 0.97766 0.53205 0.90712 0.0
C652 C 0.01608 0.55706 0.94867 0.0
H653 H 0.06361 0.51993 0.11739 0.0
H654 H 0.04308 0.51894 0.05501 0.0
H655 H 0.04055 0.56551 0.9742 0.0
H656 H 0.96655 0.57545 0.86279 0.0
H657 H 0.98904 0.57405 0.9185 0.0
H658 H 0.98967 0.52588 0.99622 0.0
C659 C 0.04806 0.53107 0.06819 0.0
C660 C 0.02951 0.55679 0.97932 0.0
C661 C 0.05993 0.53165 0.10363 0.0
C662 C 0.96942 0.56322 0.87492 0.0
C663 C 0.98244 0.56241 0.90661 0.0
C664 C 1.00079 0.53443 0.99059 0.0
C665 C 0.04244 0.54597 0.05066 0.0
C666 C 0.0287 0.54542 0.01614 0.0
C667 C 0.98694 0.54681 0.92248 0.0
C668 C 1.00146 0.54603 0.95425 0.0
H669 H 0.06578 0.57418 0.11754 0.0
H670 H 0.04524 0.57317 0.0556 0.0
H671 H 0.01317 0.52536 0.04955 0.0
H672 H 0.95798 0.52125 0.8634 0.0
H673 H 0.98086 0.51982 0.91839 0.0
C674 C 0.45361 0.52158 0.6 0.0
C675 C 0.44855 0.53644 0.61932 0.0
C676 C 0.46537 0.52225 0.56446 0.0
C677 C 0.50069 0.54961 0.51891 0.0
H678 H 0.49791 0.51799 0.41764 0.0
C679 C 0.55084 0.55058 0.37445 0.0
C680 C 0.55483 0.53494 0.35746 0.0
C681 C 0.53768 0.55149 0.40582 0.0
C682 C 0.49898 0.52679 0.44601 0.0
H683 H 0.45131 0.56366 0.61518 0.0
H684 H 0.47188 0.56481 0.55289 0.0
H685 H 0.47437 0.51848 0.47065 0.0
H686 H 0.54864 0.50797 0.36184 0.0
H687 H 0.52606 0.50955 0.41713 0.0
H688 H 0.52543 0.5577 0.49483 0.0
C689 C 0.46683 0.55266 0.5656 0.0
C690 C 0.48544 0.52711 0.47624 0.0
C691 C 0.45495 0.55198 0.60098 0.0
C692 C 0.54582 0.52023 0.3739 0.0
C693 C 0.53275 0.52115 0.40533 0.0
C694 C 0.51427 0.54924 0.48875 0.0
C695 C 0.47241 0.53779 0.5476 0.0
C696 C 0.48621 0.53839 0.51331 0.0
C697 C 0.52828 0.53679 0.42099 0.0
C698 C 0.51366 0.53768 0.45225 0.0
H699 H 0.44892 0.5094 0.61335 0.0
H700 H 0.46949 0.51058 0.55158 0.0
H701 H 0.50175 0.55829 0.54753 0.0
H702 H 0.55748 0.56215 0.36235 0.0
H703 H 0.53453 0.56376 0.41698 0.0
C704 C 0.11499 0.48476 0.17189 0.0
C705 C 0.11567 0.48575 0.21999 0.0
C706 C 0.12353 0.47285 0.14833 0.0
C707 C 0.14532 0.43378 0.1638 0.0
H708 H 0.16915 0.44952 0.05401 0.0
C709 C 0.19964 0.40031 0.08197 0.0
C710 C 0.20068 0.40002 0.03383 0.0
C711 C 0.18753 0.40913 0.10391 0.0
C712 C 0.16239 0.44481 0.08422 0.0
H713 H 0.12546 0.47463 0.28111 0.0
H714 H 0.14057 0.45411 0.24012 0.0
H715 H 0.15115 0.46787 0.09337 0.0
H716 H 0.18933 0.40819 0.97104 0.0
H717 H 0.16822 0.42345 0.00926 0.0
H718 H 0.15701 0.41084 0.15504 0.0
C719 C 0.13325 0.46234 0.22049 0.0
C720 C 0.15201 0.45534 0.10681 0.0
C721 C 0.12463 0.47419 0.24405 0.0
C722 C 0.18894 0.4082 0.00817 0.0
C723 C 0.17689 0.41705 0.03007 0.0
C724 C 0.15579 0.42325 0.14127 0.0
C725 C 0.13305 0.46168 0.17226 0.0
C726 C 0.1434 0.45002 0.14706 0.0
C727 C 0.17625 0.41791 0.07819 0.0
C728 C 0.16451 0.42868 0.10131 0.0
H729 H 0.10812 0.49341 0.1523 0.0
H730 H 0.12281 0.47251 0.11125 0.0
H731 H 0.13872 0.42915 0.19431 0.0
H732 H 0.2085 0.39416 0.10277 0.0
H733 H 0.18745 0.40962 0.14103 0.0
C734 C 0.77556 0.93069 0.42277 0.0
C735 C 0.78083 0.92105 0.45953 0.0
C736 C 0.78638 0.9436 0.40391 0.0
C737 C 0.82536 0.97114 0.42585 0.0
H738 H 0.82793 0.97323 0.29309 0.0
C739 C 0.87362 1.00116 0.27862 0.0
C740 C 0.8774 0.0174 0.29661 0.0
C741 C 0.86066 0.99037 0.29743 0.0
C742 C 0.82739 0.97278 0.33019 0.0
H743 H 0.80146 0.91783 0.50623 0.0
H744 H 0.82035 0.9403 0.47317 0.0
H745 H 0.80774 0.95271 0.32965 0.0
H746 H 0.87008 0.03523 0.34747 0.0
H747 H 0.84741 0.01645 0.37989 0.0
H748 H 0.84534 0.99089 0.4264 0.0
C749 C 0.80779 0.93794 0.45913 0.0
C750 C 0.8157 0.96115 0.35116 0.0
C751 C 0.79698 0.925 0.47798 0.0
C752 C 0.86757 0.02278 0.33287 0.0
C753 C 0.85464 0.01198 0.3517 0.0
C754 C 0.83702 0.98281 0.40488 0.0
C755 C 0.80271 0.9472 0.42139 0.0
C756 C 0.81463 0.96011 0.39924 0.0
C757 C 0.8512 0.99556 0.33468 0.0
C758 C 0.83826 0.98368 0.3568 0.0
H759 H 0.76319 0.92806 0.40782 0.0
H760 H 0.78199 0.95068 0.37534 0.0
H761 H 0.82476 0.97076 0.46295 0.0
H762 H 0.88095 0.9966 0.25076 0.0
H763 H 0.85843 0.97775 0.28376 0.0
C764 C 0.31468 0.68421 0.58474 0.0
C765 C 0.31391 0.68357 0.53661 0.0
C766 C 0.32655 0.6757 0.60861 0.0
C767 C 0.36585 0.6542 0.59381 0.0
H768 H 0.34996 0.63006 0.70293 0.0
C769 C 0.39926 0.59971 0.67427 0.0
C770 C 0.39952 0.59849 0.72237 0.0
C771 C 0.39044 0.61188 0.6527 0.0
C772 C 0.3547 0.63692 0.67292 0.0
H773 H 0.32531 0.67385 0.47578 0.0
H774 H 0.34573 0.65881 0.51725 0.0
H775 H 0.3316 0.64809 0.66367 0.0
H776 H 0.39129 0.60957 0.78551 0.0
H777 H 0.376 0.63079 0.74792 0.0
H778 H 0.38883 0.64258 0.60261 0.0
C779 C 0.33739 0.66608 0.5367 0.0
C780 C 0.34417 0.64731 0.65038 0.0
C781 C 0.32559 0.67465 0.51286 0.0
C782 C 0.3913 0.61011 0.74839 0.0
C783 C 0.38243 0.62221 0.72685 0.0
C784 C 0.37637 0.64373 0.61626 0.0
C785 C 0.33787 0.66627 0.58493 0.0
C786 C 0.34954 0.656 0.61032 0.0
C787 C 0.38162 0.62305 0.67875 0.0
C788 C 0.37087 0.63487 0.65593 0.0
H789 H 0.30592 0.69104 0.6041 0.0
H790 H 0.32673 0.67639 0.6457 0.0
H791 H 0.37053 0.6609 0.56348 0.0
H792 H 0.40544 0.59095 0.65319 0.0
H793 H 0.38997 0.6121 0.61559 0.0
C794 C 0.72209 0.15379 0.98081 0.0
C795 C 0.73449 0.1623 0.95309 0.0
C796 C 0.71112 0.1408 0.96253 0.0
C797 C 0.68994 0.1278 0.85833 0.0
H798 H 0.68516 0.0826 0.90777 0.0
C799 C 0.64525 0.0761 0.7733 0.0
C800 C 0.63664 0.06413 0.80197 0.0
C801 C 0.65831 0.08718 0.79068 0.0
C802 C 0.68609 0.09521 0.89389 0.0
H803 H 0.74517 0.16383 0.88461 0.0
H804 H 0.72567 0.14152 0.85256 0.0
H805 H 0.7054 0.10374 0.94198 0.0
H806 H 0.63492 0.05436 0.8713 0.0
H807 H 0.65696 0.07408 0.9021 0.0
H808 H 0.67019 0.11981 0.81181 0.0
C809 C 0.72464 0.14476 0.88848 0.0
C810 C 0.69778 0.10725 0.9134 0.0
C811 C 0.73582 0.15745 0.90694 0.0
C812 C 0.64145 0.06334 0.8482 0.0
C813 C 0.65422 0.07463 0.86581 0.0
C814 C 0.67799 0.1159 0.83945 0.0
C815 C 0.71215 0.13641 0.91603 0.0
C816 C 0.69981 0.12361 0.89567 0.0
C817 C 0.66278 0.08682 0.83742 0.0
C818 C 0.67589 0.09939 0.85687 0.0
H819 H 0.72078 0.15724 0.01648 0.0
H820 H 0.70152 0.13454 0.98431 0.0
H821 H 0.69122 0.14042 0.84438 0.0
H822 H 0.6419 0.07692 0.73743 0.0
H823 H 0.66482 0.09606 0.76735 0.0
C824 C 0.1448 0.57754 0.27239 0.0
C825 C 0.13633 0.56544 0.30098 0.0
C826 C 0.1578 0.58868 0.28977 0.0
C827 C 0.18571 0.59667 0.39279 0.0
H828 H 0.19072 0.64192 0.3435 0.0
C829 C 0.22145 0.65559 0.47917 0.0
C830 C 0.23424 0.66363 0.45179 0.0
C831 C 0.21039 0.64267 0.46099 0.0
C832 C 0.18946 0.62929 0.35739 0.0
H833 H 0.13479 0.55553 0.37016 0.0
H834 H 0.15673 0.57537 0.401 0.0
H835 H 0.16966 0.6213 0.31101 0.0
H836 H 0.24551 0.6644 0.384 0.0
H837 H 0.22582 0.64221 0.35202 0.0
H838 H 0.20505 0.60521 0.44077 0.0
C839 C 0.15392 0.57597 0.36476 0.0
C840 C 0.1775 0.61738 0.33856 0.0
C841 C 0.14122 0.5646 0.34713 0.0
C842 C 0.23585 0.65839 0.40606 0.0
C843 C 0.22457 0.64577 0.38765 0.0
C844 C 0.19739 0.60872 0.41228 0.0
C845 C 0.16237 0.58826 0.33645 0.0
C846 C 0.17545 0.60086 0.35589 0.0
C847 C 0.21173 0.63787 0.41489 0.0
C848 C 0.19938 0.62509 0.39461 0.0
H849 H 0.14138 0.57839 0.23657 0.0
H850 H 0.16422 0.59764 0.26647 0.0
H851 H 0.18484 0.58405 0.40658 0.0
H852 H 0.21993 0.65936 0.51451 0.0
H853 H 0.20051 0.63674 0.4825 0.0
C854 C 0.62402 0.97325 0.74552 0.0
C855 C 0.6151 0.98485 0.72148 0.0
C856 C 0.63265 0.96142 0.72195 0.0
C857 C 0.65152 0.95449 0.6083 0.0
H858 H 0.65661 0.91002 0.65666 0.0
C859 C 0.68861 0.90732 0.51006 0.0
C860 C 0.70038 0.89923 0.53586 0.0
C861 C 0.67654 0.91619 0.53184 0.0
C862 C 0.65536 0.92243 0.64285 0.0
H863 H 0.60765 0.9926 0.65379 0.0
H864 H 0.62235 0.97172 0.6127 0.0
H865 H 0.63822 0.92829 0.69578 0.0
H866 H 0.70823 0.89354 0.60489 0.0
H867 H 0.68713 0.909 0.6429 0.0
H868 H 0.6687 0.94869 0.55557 0.0
C869 C 0.62303 0.97201 0.64979 0.0
C870 C 0.64484 0.93293 0.66529 0.0
C871 C 0.61448 0.98392 0.67337 0.0
C872 C 0.69935 0.89962 0.58399 0.0
C873 C 0.68721 0.90844 0.60579 0.0
C874 C 0.66193 0.94398 0.58577 0.0
C875 C 0.63251 0.96081 0.67372 0.0
C876 C 0.64289 0.94917 0.64853 0.0
C877 C 0.67589 0.91712 0.57995 0.0
C878 C 0.66409 0.92787 0.60293 0.0
H879 H 0.62482 0.97366 0.7826 0.0
H880 H 0.63995 0.95316 0.7416 0.0
H881 H 0.65064 0.96701 0.59482 0.0
H882 H 0.689 0.90724 0.47293 0.0
H883 H 0.66784 0.92252 0.51093 0.0
C884 C 0.36749 0.52274 0.82955 0.0
C885 C 0.37807 0.51738 0.79496 0.0
C886 C 0.35477 0.51163 0.84824 0.0
C887 C 0.34425 0.46652 0.86679 0.0
H888 H 0.29995 0.47946 0.89759 0.0
C889 C 0.29826 0.42421 0.97726 0.0
C890 C 0.28171 0.42148 0.96062 0.0
C891 C 0.30946 0.43684 0.95856 0.0
C892 C 0.31226 0.47566 0.88906 0.0
H893 H 0.38311 0.49631 0.75162 0.0
H894 H 0.36088 0.47697 0.78415 0.0
H895 H 0.32011 0.4995 0.85861 0.0
H896 H 0.26375 0.43044 0.91263 0.0
H897 H 0.2833 0.45248 0.88013 0.0
H898 H 0.33642 0.44267 0.89677 0.0
C899 C 0.36258 0.48972 0.79718 0.0
C900 C 0.32382 0.48716 0.86703 0.0
C901 C 0.37524 0.50084 0.77832 0.0
C902 C 0.27642 0.43216 0.92621 0.0
C903 C 0.2876 0.44485 0.90768 0.0
C904 C 0.33275 0.45509 0.88903 0.0
C905 C 0.3524 0.4949 0.8329 0.0
C906 C 0.33993 0.48269 0.85554 0.0
C907 C 0.30433 0.44709 0.92299 0.0
C908 C 0.31662 0.45951 0.90041 0.0
H909 H 0.3693 0.5354 0.84313 0.0
H910 H 0.34721 0.51597 0.87589 0.0
H911 H 0.35663 0.46277 0.85893 0.0
H912 H 0.30275 0.41626 0.00383 0.0
H913 H 0.32221 0.43844 0.97157 0.0
C914 C 0.82531 0.17471 0.00992 0.0
C915 C 0.81382 0.18369 0.03425 0.0
C916 C 0.83712 0.16596 0.03322 0.0
C917 C 0.84402 0.14693 0.14661 0.0
H918 H 0.88839 0.1415 0.09784 0.0
C919 C 0.89101 0.1097 0.24473 0.0
C920 C 0.89904 0.09784 0.21903 0.0
C921 C 0.8822 0.12177 0.22286 0.0
C922 C 0.876 0.14284 0.11176 0.0
H923 H 0.80627 0.19116 0.10213 0.0
H924 H 0.8271 0.17626 0.14273 0.0
H925 H 0.87023 0.16003 0.05893 0.0
H926 H 0.90466 0.08984 0.15007 0.0
H927 H 0.88928 0.11095 0.11188 0.0
H928 H 0.84974 0.1297 0.19925 0.0
C929 C 0.82674 0.17561 0.10564 0.0
C930 C 0.86557 0.15344 0.08943 0.0
C931 C 0.81486 0.18427 0.08234 0.0
C932 C 0.89863 0.09879 0.17089 0.0
C933 C 0.88986 0.11093 0.14899 0.0
C934 C 0.85447 0.13643 0.16902 0.0
C935 C 0.8378 0.16605 0.08145 0.0
C936 C 0.84938 0.15553 0.10638 0.0
C937 C 0.88124 0.12234 0.17475 0.0
C938 C 0.87054 0.13416 0.15173 0.0
H939 H 0.82482 0.17394 0.97285 0.0
H940 H 0.84527 0.15861 0.01338 0.0
H941 H 0.83153 0.1479 0.16022 0.0
H942 H 0.89112 0.10938 0.28186 0.0
H943 H 0.87593 0.13054 0.2437 0.0
C944 C 0.80516 0.66508 0.96205 0.0
C945 C 0.81191 0.6814 0.97371 0.0
C946 C 0.81525 0.65372 0.94145 0.0
C947 C 0.86002 0.64637 0.91936 0.0
H948 H 0.84132 0.61865 0.81923 0.0
C949 C 0.90217 0.61295 0.7959 0.0
C950 C 0.89743 0.59594 0.78616 0.0
C951 C 0.89113 0.62279 0.81848 0.0
C952 C 0.84667 0.6262 0.8474 0.0
H953 H 0.83465 0.69845 0.97353 0.0
H954 H 0.85208 0.67887 0.93718 0.0
H955 H 0.82336 0.63654 0.86131 0.0
H956 H 0.87709 0.5761 0.79106 0.0
H957 H 0.85771 0.59341 0.83017 0.0
H958 H 0.88339 0.63631 0.90479 0.0
C959 C 0.83909 0.67466 0.94455 0.0
C960 C 0.83637 0.63642 0.87169 0.0
C961 C 0.82904 0.68595 0.96527 0.0
C962 C 0.88113 0.58917 0.79801 0.0
C963 C 0.87001 0.59908 0.82035 0.0
C964 C 0.87031 0.63628 0.89489 0.0
C965 C 0.83231 0.65843 0.93191 0.0
C966 C 0.84296 0.64677 0.90773 0.0
C967 C 0.87503 0.61592 0.83166 0.0
C968 C 0.86381 0.62621 0.85834 0.0
H969 H 0.79201 0.66116 0.96813 0.0
H970 H 0.80965 0.64126 0.93286 0.0
H971 H 0.86547 0.65387 0.94749 0.0
H972 H 0.9146 0.6186 0.7872 0.0
H973 H 0.89527 0.6358 0.82599 0.0
C974 C 0.20436 0.17303 0.55042 0.0
C975 C 0.22117 0.17089 0.53931 0.0
C976 C 0.19444 0.16043 0.57332 0.0
C977 C 0.18833 0.11582 0.60012 0.0
H978 H 0.1658 0.13123 0.70804 0.0
C979 C 0.14395 0.07064 0.71073 0.0
C980 C 0.12877 0.07698 0.72359 0.0
C981 C 0.15714 0.08133 0.69229 0.0
C982 C 0.17188 0.1267 0.67785 0.0
H983 H 0.24043 0.15341 0.54131 0.0
H984 H 0.2228 0.13112 0.58072 0.0
H985 H 0.18461 0.15094 0.66449 0.0
H986 H 0.11576 0.09962 0.72857 0.0
H987 H 0.13843 0.11806 0.69613 0.0
H988 H 0.17506 0.09172 0.61238 0.0
C989 C 0.21748 0.1427 0.57196 0.0
C990 C 0.18269 0.138 0.653 0.0
C991 C 0.22753 0.15545 0.5494 0.0
C992 C 0.12729 0.0943 0.7192 0.0
C993 C 0.14039 0.10493 0.70076 0.0
C994 C 0.17732 0.10451 0.62476 0.0
C995 C 0.201 0.14531 0.58527 0.0
C996 C 0.19075 0.13277 0.61337 0.0
C997 C 0.1554 0.09858 0.68641 0.0
C998 C 0.16867 0.10992 0.66338 0.0
H999 H 0.19901 0.18473 0.54307 0.0
H1000 H 0.18168 0.16265 0.58251 0.0
H1001 H 0.19441 0.11149 0.56967 0.0
H1002 H 0.14548 0.05734 0.71363 0.0
H1003 H 0.1686 0.07606 0.68214 0.0
C1004 C 0.71005 0.41778 0.45916 0.0
C1005 C 0.70332 0.40144 0.47058 0.0
C1006 C 0.69994 0.42914 0.43864 0.0
C1007 C 0.65516 0.43646 0.4168 0.0
H1008 H 0.67373 0.46428 0.31689 0.0
C1009 C 0.61281 0.47001 0.29432 0.0
C1010 C 0.61756 0.48701 0.28459 0.0
C1011 C 0.62388 0.46014 0.31666 0.0
C1012 C 0.66841 0.4567 0.345 0.0
H1013 H 0.68061 0.38435 0.47005 0.0
H1014 H 0.66316 0.40393 0.43389 0.0
H1015 H 0.69175 0.44637 0.35863 0.0
H1016 H 0.63794 0.50681 0.28925 0.0
H1017 H 0.65738 0.48947 0.32799 0.0
H1018 H 0.63177 0.44653 0.40257 0.0
C1019 C 0.67614 0.40815 0.44136 0.0
C1020 C 0.67875 0.44647 0.36909 0.0
C1021 C 0.6862 0.39686 0.46197 0.0
C1022 C 0.6339 0.49375 0.2962 0.0
C1023 C 0.64504 0.48381 0.31833 0.0
C1024 C 0.64483 0.44657 0.39255 0.0
C1025 C 0.68289 0.42441 0.429 0.0
C1026 C 0.67221 0.43608 0.40504 0.0
C1027 C 0.64002 0.46699 0.32963 0.0
C1028 C 0.65128 0.45668 0.35608 0.0
H1029 H 0.72319 0.42172 0.46537 0.0
H1030 H 0.70552 0.44162 0.43024 0.0
H1031 H 0.64975 0.42893 0.44487 0.0
H1032 H 0.60035 0.46438 0.28578 0.0
H1033 H 0.61973 0.44715 0.32415 0.0
C1034 C 0.3712 0.01148 0.21061 0.0
C1035 C 0.38651 0.00511 0.22209 0.0
C1036 C 0.35802 1.00094 0.19144 0.0
C1037 C 0.34367 0.95568 0.17223 0.0
H1038 H 0.31998 0.9723 0.06788 0.0
C1039 C 0.30995 0.91096 0.04251 0.0
C1040 C 0.29297 0.91313 0.03361 0.0
C1041 C 0.32014 0.92333 0.06558 0.0
C1042 C 0.32639 0.96757 0.09725 0.0
H1043 H 0.39978 0.98258 0.22374 0.0
H1044 H 0.37714 0.96442 0.19 0.0
H1045 H 0.33958 0.99157 0.11155 0.0
H1046 H 0.27369 0.93047 0.03958 0.0
H1047 H 0.29179 0.95237 0.07925 0.0
H1048 H 0.331 0.93157 0.1568 0.0
C1049 C 0.37506 0.97744 0.19631 0.0
C1050 C 0.33755 0.9786 0.12245 0.0
C1051 C 0.38814 0.98791 0.21551 0.0
C1052 C 0.28671 0.92842 0.04592 0.0
C1053 C 0.29704 0.94094 0.06864 0.0
C1054 C 0.33272 0.94468 0.14678 0.0
C1055 C 0.3599 0.98382 0.18339 0.0
C1056 C 0.34659 0.97269 0.15972 0.0
C1057 C 0.3137 0.93826 0.07989 0.0
C1058 C 0.32423 0.95042 0.10852 0.0
H1059 H 0.36955 0.02469 0.2152 0.0
H1060 H 0.34645 0.00624 0.18247 0.0
H1061 H 0.35004 0.95076 0.20138 0.0
H1062 H 0.31523 0.89938 0.03342 0.0
H1063 H 0.33303 0.92107 0.07315 0.0
C1064 C 0.8105 0.40919 0.5499 0.0
C1065 C 0.79371 0.4114 0.53886 0.0
C1066 C 0.82051 0.42176 0.57276 0.0
C1067 C 0.82664 0.46643 0.60018 0.0
H1068 H 0.84955 0.45087 0.70725 0.0
C1069 C 0.87087 0.51159 0.71174 0.0
C1070 C 0.88614 0.50535 0.72416 0.0
C1071 C 0.85774 0.50085 0.69307 0.0
C1072 C 0.84336 0.45544 0.6773 0.0
H1073 H 0.77454 0.42899 0.54095 0.0
H1074 H 0.7923 0.45123 0.58034 0.0
H1075 H 0.83074 0.43119 0.66349 0.0
H1076 H 0.89939 0.48284 0.72816 0.0
H1077 H 0.87682 0.46432 0.69537 0.0
H1078 H 0.83979 0.49058 0.61295 0.0
C1079 C 0.79757 0.43961 0.57152 0.0
C1080 C 0.83256 0.44415 0.6523 0.0
C1081 C 0.78744 0.4269 0.54897 0.0
C1082 C 0.88778 0.48808 0.71914 0.0
C1083 C 0.87474 0.4774 0.70049 0.0
C1084 C 0.83764 0.47775 0.62498 0.0
C1085 C 0.81404 0.43693 0.5848 0.0
C1086 C 0.82436 0.44944 0.61297 0.0
C1087 C 0.85964 0.48365 0.68654 0.0
C1088 C 0.84642 0.47228 0.6633 0.0
H1089 H 0.81579 0.39746 0.54251 0.0
H1090 H 0.83326 0.41949 0.58187 0.0
H1091 H 0.82046 0.47082 0.56997 0.0
H1092 H 0.86922 0.52484 0.71512 0.0
H1093 H 0.8462 0.50605 0.68324 0.0
C1094 C 0.30454 0.16479 0.45957 0.0
C1095 C 0.31124 0.18116 0.47098 0.0
C1096 C 0.3145 0.15365 0.43751 0.0
C1097 C 0.35167 0.15391 0.36293 0.0
H1098 H 0.35208 0.10706 0.39703 0.0
C1099 C 0.40141 0.11265 0.29294 0.0
C1100 C 0.39687 0.09551 0.28457 0.0
C1101 C 0.39011 0.12269 0.31362 0.0
C1102 C 0.35192 0.12004 0.38652 0.0
H1103 H 0.33384 0.19842 0.46958 0.0
H1104 H 0.35112 0.17904 0.43132 0.0
H1105 H 0.33417 0.12504 0.43894 0.0
H1106 H 0.37666 0.07559 0.29024 0.0
H1107 H 0.35674 0.09323 0.32547 0.0
H1108 H 0.36924 0.14901 0.31036 0.0
C1109 C 0.33813 0.17487 0.43891 0.0
C1110 C 0.34169 0.13035 0.41071 0.0
C1111 C 0.32824 0.18594 0.46119 0.0
C1112 C 0.38056 0.08875 0.29626 0.0
C1113 C 0.3692 0.09884 0.31684 0.0
C1114 C 0.36178 0.1436 0.33857 0.0
C1115 C 0.33131 0.15871 0.42608 0.0
C1116 C 0.34164 0.14747 0.39957 0.0
C1117 C 0.37389 0.11591 0.32629 0.0
C1118 C 0.36223 0.12657 0.35039 0.0
H1119 H 0.29149 0.16072 0.46657 0.0
H1120 H 0.30888 0.14129 0.42796 0.0
H1121 H 0.35165 0.16696 0.35286 0.0
H1122 H 0.4139 0.11827 0.28465 0.0
H1123 H 0.39431 0.13569 0.32092 0.0
C1124 C 0.64358 0.57092 0.20587 0.0
C1125 C 0.62808 0.57718 0.21602 0.0
C1126 C 0.65631 0.58108 0.18355 0.0
C1127 C 0.66085 0.61607 0.10318 0.0
H1128 H 0.70716 0.62375 0.14362 0.0
C1129 C 0.70431 0.67183 0.03821 0.0
C1130 C 0.72163 0.67041 0.03345 0.0
C1131 C 0.69374 0.65864 0.05641 0.0
C1132 C 0.69436 0.62148 0.13129 0.0
H1133 H 0.61415 0.59928 0.21272 0.0
H1134 H 0.6362 0.61679 0.17372 0.0
H1135 H 0.68746 0.60422 0.18604 0.0
H1136 H 0.74134 0.65373 0.04253 0.0
H1137 H 0.72274 0.63045 0.07366 0.0
H1138 H 0.66753 0.63314 0.04851 0.0
C1139 C 0.63847 0.60403 0.18264 0.0
C1140 C 0.68309 0.61036 0.15576 0.0
C1141 C 0.62588 0.594 0.20529 0.0
C1142 C 0.72804 0.65521 0.04572 0.0
C1143 C 0.71741 0.64193 0.06395 0.0
C1144 C 0.6721 0.62699 0.07851 0.0
C1145 C 0.65363 0.59757 0.17055 0.0
C1146 C 0.66613 0.60793 0.14259 0.0
C1147 C 0.70016 0.6436 0.07017 0.0
C1148 C 0.68889 0.63022 0.09293 0.0
H1149 H 0.64566 0.55801 0.21368 0.0
H1150 H 0.66793 0.57583 0.17468 0.0
H1151 H 0.64791 0.61413 0.09173 0.0
H1152 H 0.69894 0.68337 0.02929 0.0
H1153 H 0.6806 0.66054 0.06132 0.0
C1154 C 0.21008 0.91746 0.95579 0.0
C1155 C 0.20325 0.90128 0.96854 0.0
C1156 C 0.20016 0.92848 0.93314 0.0
C1157 C 0.16275 0.92805 0.85943 0.0
H1158 H 0.16284 0.97514 0.89177 0.0
C1159 C 0.11314 0.96936 0.78889 0.0
C1160 C 0.11773 0.98647 0.78029 0.0
C1161 C 0.12445 0.95931 0.80948 0.0
C1162 C 0.16286 0.96209 0.88172 0.0
H1163 H 0.18051 0.88421 0.96864 0.0
H1164 H 0.16331 0.90339 0.92924 0.0
H1165 H 0.18073 0.95726 0.93397 0.0
H1166 H 0.13806 0.0063 0.7853 0.0
H1167 H 0.15799 0.98864 0.82025 0.0
H1168 H 0.14507 0.93277 0.807 0.0
C1169 C 0.17635 0.9075 0.93635 0.0
C1170 C 0.17308 0.95183 0.90609 0.0
C1171 C 0.1862 0.89656 0.95927 0.0
C1172 C 0.13411 0.99317 0.79152 0.0
C1173 C 0.14549 0.98307 0.81195 0.0
C1174 C 0.15266 0.9383 0.83486 0.0
C1175 C 0.18327 0.92349 0.92239 0.0
C1176 C 0.17296 0.93464 0.89561 0.0
C1177 C 0.14073 0.96604 0.82178 0.0
C1178 C 0.15239 0.95542 0.84602 0.0
H1179 H 0.22318 0.92148 0.96237 0.0
H1180 H 0.20587 0.9407 0.92271 0.0
H1181 H 0.16263 0.91492 0.84991 0.0
H1182 H 0.1006 0.96379 0.78097 0.0
H1183 H 0.1202 0.94635 0.81706 0.0
loop_
_geom_bond_atom_site_label_1
_geom_bond_atom_site_label_2
_geom_bond_distance
_geom_bond_site_symmetry_2
_ccdc_geom_bond_type
O0 Cd1 2.223 1_556 S
O0 C8 1.315 . S
Cd1 O0 2.223 1_554 S
Cd1 O4 2.297 . S
Cd1 O5 2.439 . S
Cd1 O11 2.240 . S
Cd2 O3 2.240 . S
Cd2 O10 2.223 . S
Cd2 O12 2.297 1_556 S
Cd2 O13 2.439 1_556 S
O3 Cd2 2.240 . S
O3 C8 1.279 . S
O4 Cd1 2.297 . S
O4 C6 1.247 . S
O5 Cd1 2.439 . S
O5 C6 1.208 . S
C6 O4 1.247 . S
C6 O5 1.208 . S
C7 O12 1.247 . S
C7 O13 1.208 . S
C8 O0 1.315 . S
C8 O3 1.279 . S
C9 O10 1.315 . S
C9 O11 1.279 1_556 S
O10 Cd2 2.223 . S
O10 C9 1.315 . S
O11 Cd1 2.240 . S
O11 C9 1.279 1_554 S
O12 Cd2 2.297 1_554 S
O12 C7 1.247 . S
O13 Cd2 2.439 1_554 S
O13 C7 1.208 . S
O14 Cd15 2.223 . S
O14 C22 1.315 . S
Cd15 O14 2.223 . S
Cd15 O18 2.297 . S
Cd15 O19 2.439 . S
Cd15 O25 2.240 . S
Cd16 O17 2.240 . S
Cd16 O24 2.223 . S
Cd16 O26 2.297 . S
Cd16 O27 2.439 . S
O17 Cd16 2.240 . S
O17 C22 1.279 . S
O18 Cd15 2.297 . S
O18 C20 1.247 . S
O19 Cd15 2.439 . S
O19 C20 1.208 . S
C20 O18 1.247 . S
C20 O19 1.208 . S
C21 O26 1.247 . S
C21 O27 1.208 . S
C22 O14 1.315 . S
C22 O17 1.279 . S
C23 O24 1.315 . S
C23 O25 1.279 . S
O24 Cd16 2.223 . S
O24 C23 1.315 . S
O25 Cd15 2.240 . S
O25 C23 1.279 . S
O26 Cd16 2.297 . S
O26 C21 1.247 . S
O27 Cd16 2.439 . S
O27 C21 1.208 . S
O28 Cd29 2.223 . S
O28 C36 1.315 . S
Cd29 O28 2.223 . S
Cd29 O32 2.297 . S
Cd29 O33 2.439 . S
Cd29 O39 2.240 . S
Cd30 O31 2.240 . S
Cd30 O38 2.223 . S
Cd30 O40 2.297 . S
Cd30 O41 2.439 . S
O31 Cd30 2.240 . S
O31 C36 1.279 . S
O32 Cd29 2.297 . S
O32 C34 1.247 . S
O33 Cd29 2.439 . S
O33 C34 1.208 . S
C34 O32 1.247 . S
C34 O33 1.208 . S
C35 O40 1.247 . S
C35 O41 1.208 . S
C36 O28 1.315 . S
C36 O31 1.279 . S
C37 O38 1.315 . S
C37 O39 1.279 . S
O38 Cd30 2.223 . S
O38 C37 1.315 . S
O39 Cd29 2.240 . S
O39 C37 1.279 . S
O40 Cd30 2.297 . S
O40 C35 1.247 . S
O41 Cd30 2.439 . S
O41 C35 1.208 . S
O42 Cd43 2.223 . S
O42 C50 1.315 . S
Cd43 O42 2.223 . S
Cd43 O46 2.297 . S
Cd43 O47 2.439 . S
Cd43 O53 2.240 . S
Cd44 O45 2.240 . S
Cd44 O52 2.223 . S
Cd44 O54 2.297 . S
Cd44 O55 2.439 . S
O45 Cd44 2.240 . S
O45 C50 1.279 . S
O46 Cd43 2.297 . S
O46 C48 1.247 . S
O47 Cd43 2.439 . S
O47 C48 1.208 . S
C48 O46 1.247 . S
C48 O47 1.208 . S
C49 O54 1.247 . S
C49 O55 1.208 . S
C50 O42 1.315 . S
C50 O45 1.279 . S
C51 O52 1.315 . S
C51 O53 1.279 . S
O52 Cd44 2.223 . S
O52 C51 1.315 . S
O53 Cd43 2.240 . S
O53 C51 1.279 . S
O54 Cd44 2.297 . S
O54 C49 1.247 . S
O55 Cd44 2.439 . S
O55 C49 1.208 . S
O56 Cd57 2.223 1_556 S
O56 C64 1.315 . S
Cd57 O56 2.223 1_554 S
Cd57 O60 2.297 1_554 S
Cd57 O61 2.439 1_554 S
Cd57 O67 2.240 . S
Cd58 O59 2.240 1_554 S
Cd58 O66 2.223 . S
Cd58 O68 2.297 . S
Cd58 O69 2.439 . S
O59 Cd58 2.240 1_556 S
O59 C64 1.279 . S
O60 Cd57 2.297 1_556 S
O60 C62 1.247 . S
O61 Cd57 2.439 1_556 S
O61 C62 1.208 . S
C62 O60 1.247 . S
C62 O61 1.208 . S
C63 O68 1.247 . S
C63 O69 1.208 . S
C64 O56 1.315 . S
C64 O59 1.279 . S
C65 O66 1.315 . S
C65 O67 1.279 . S
O66 Cd58 2.223 . S
O66 C65 1.315 . S
O67 Cd57 2.240 . S
O67 C65 1.279 . S
O68 Cd58 2.297 . S
O68 C63 1.247 . S
O69 Cd58 2.439 . S
O69 C63 1.208 . S
O70 Cd71 2.223 1_545 S
O70 C78 1.315 . S
Cd71 O70 2.223 1_565 S
Cd71 O74 2.297 . S
Cd71 O75 2.439 1_565 S
Cd71 O81 2.240 1_565 S
Cd72 O73 2.240 . S
Cd72 O80 2.223 . S
Cd72 O82 2.297 . S
Cd72 O83 2.439 . S
O73 Cd72 2.240 . S
O73 C78 1.279 . S
O74 Cd71 2.297 . S
O74 C76 1.247 . S
O75 Cd71 2.439 1_545 S
O75 C76 1.208 1_545 S
C76 O74 1.247 . S
C76 O75 1.208 1_565 S
C77 O82 1.247 . S
C77 O83 1.208 . S
C78 O70 1.315 . S
C78 O73 1.279 . S
C79 O80 1.315 . S
C79 O81 1.279 . S
O80 Cd72 2.223 . S
O80 C79 1.315 . S
O81 Cd71 2.240 1_545 S
O81 C79 1.279 . S
O82 Cd72 2.297 . S
O82 C77 1.247 . S
O83 Cd72 2.439 . S
O83 C77 1.208 . S
O84 Cd85 2.223 . S
O84 C92 1.315 . S
Cd85 O84 2.223 . S
Cd85 O88 2.297 . S
Cd85 O89 2.439 . S
Cd85 O95 2.240 . S
Cd86 O87 2.240 . S
Cd86 O94 2.223 . S
Cd86 O96 2.297 . S
Cd86 O97 2.439 . S
O87 Cd86 2.240 . S
O87 C92 1.279 . S
O88 Cd85 2.297 . S
O88 C90 1.247 . S
O89 Cd85 2.439 . S
O89 C90 1.208 . S
C90 O88 1.247 . S
C90 O89 1.208 . S
C91 O96 1.247 . S
C91 O97 1.208 . S
C92 O84 1.315 . S
C92 O87 1.279 . S
C93 O94 1.315 . S
C93 O95 1.279 . S
O94 Cd86 2.223 . S
O94 C93 1.315 . S
O95 Cd85 2.240 . S
O95 C93 1.279 . S
O96 Cd86 2.297 . S
O96 C91 1.247 . S
O97 Cd86 2.439 . S
O97 C91 1.208 . S
O98 Cd99 2.223 . S
O98 C106 1.315 . S
Cd99 O98 2.223 . S
Cd99 O102 2.297 . S
Cd99 O103 2.439 . S
Cd99 O109 2.240 . S
Cd100 O101 2.240 . S
Cd100 O108 2.223 . S
Cd100 O110 2.297 . S
Cd100 O111 2.439 . S
O101 Cd100 2.240 . S
O101 C106 1.279 . S
O102 Cd99 2.297 . S
O102 C104 1.247 . S
O103 Cd99 2.439 . S
O103 C104 1.208 . S
C104 O102 1.247 . S
C104 O103 1.208 . S
C105 O110 1.247 . S
C105 O111 1.208 . S
C106 O98 1.315 . S
C106 O101 1.279 . S
C107 O108 1.315 . S
C107 O109 1.279 . S
O108 Cd100 2.223 . S
O108 C107 1.315 . S
O109 Cd99 2.240 . S
O109 C107 1.279 . S
O110 Cd100 2.297 . S
O110 C105 1.247 . S
O111 Cd100 2.439 . S
O111 C105 1.208 . S
O112 Cd113 2.223 . S
O112 C120 1.315 . S
Cd113 O112 2.223 . S
Cd113 O116 2.297 . S
Cd113 O117 2.439 . S
Cd113 O123 2.240 . S
Cd114 O115 2.240 . S
Cd114 O122 2.223 . S
Cd114 O124 2.297 . S
Cd114 O125 2.439 . S
O115 Cd114 2.240 . S
O115 C120 1.279 . S
O116 Cd113 2.297 . S
O116 C118 1.247 . S
O117 Cd113 2.439 . S
O117 C118 1.208 . S
C118 O116 1.247 . S
C118 O117 1.208 . S
C119 O124 1.247 . S
C119 O125 1.208 . S
C120 O112 1.315 . S
C120 O115 1.279 . S
C121 O122 1.315 . S
C121 O123 1.279 . S
O122 Cd114 2.223 . S
O122 C121 1.315 . S
O123 Cd113 2.240 . S
O123 C121 1.279 . S
O124 Cd114 2.297 . S
O124 C119 1.247 . S
O125 Cd114 2.439 . S
O125 C119 1.208 . S
O126 Cd127 2.223 . S
O126 C134 1.315 . S
Cd127 O126 2.223 . S
Cd127 O130 2.297 . S
Cd127 O131 2.439 . S
Cd127 O137 2.240 . S
Cd128 O129 2.240 . S
Cd128 O136 2.223 . S
Cd128 O138 2.297 . S
Cd128 O139 2.439 . S
O129 Cd128 2.240 . S
O129 C134 1.279 . S
O130 Cd127 2.297 . S
O130 C132 1.247 . S
O131 Cd127 2.439 . S
O131 C132 1.208 . S
C132 O130 1.247 . S
C132 O131 1.208 . S
C133 O138 1.247 . S
C133 O139 1.208 . S
C134 O126 1.315 . S
C134 O129 1.279 . S
C135 O136 1.315 . S
C135 O137 1.279 . S
O136 Cd128 2.223 . S
O136 C135 1.315 . S
O137 Cd127 2.240 . S
O137 C135 1.279 . S
O138 Cd128 2.297 . S
O138 C133 1.247 . S
O139 Cd128 2.439 . S
O139 C133 1.208 . S
O140 Cd141 2.223 1_556 S
O140 C148 1.315 . S
Cd141 O140 2.223 1_554 S
Cd141 O144 2.297 . S
Cd141 O145 2.439 . S
Cd141 O151 2.240 . S
Cd142 O143 2.240 . S
Cd142 O150 2.223 . S
Cd142 O152 2.297 1_556 S
Cd142 O153 2.439 1_556 S
O143 Cd142 2.240 . S
O143 C148 1.279 . S
O144 Cd141 2.297 . S
O144 C146 1.247 . S
O145 Cd141 2.439 . S
O145 C146 1.208 . S
C146 O144 1.247 . S
C146 O145 1.208 . S
C147 O152 1.247 . S
C147 O153 1.208 . S
C148 O140 1.315 . S
C148 O143 1.279 . S
C149 O150 1.315 . S
C149 O151 1.279 1_556 S
O150 Cd142 2.223 . S
O150 C149 1.315 . S
O151 Cd141 2.240 . S
O151 C149 1.279 1_554 S
O152 Cd142 2.297 1_554 S
O152 C147 1.247 . S
O153 Cd142 2.439 1_554 S
O153 C147 1.208 . S
O154 Cd155 2.223 . S
O154 C162 1.315 . S
Cd155 O154 2.223 . S
Cd155 O158 2.297 . S
Cd155 O159 2.439 . S
Cd155 O165 2.240 . S
Cd156 O157 2.240 . S
Cd156 O164 2.223 . S
Cd156 O166 2.297 . S
Cd156 O167 2.439 . S
O157 Cd156 2.240 . S
O157 C162 1.279 . S
O158 Cd155 2.297 . S
O158 C160 1.247 . S
O159 Cd155 2.439 . S
O159 C160 1.208 . S
C160 O158 1.247 . S
C160 O159 1.208 . S
C161 O166 1.247 . S
C161 O167 1.208 . S
C162 O154 1.315 . S
C162 O157 1.279 . S
C163 O164 1.315 . S
C163 O165 1.279 . S
O164 Cd156 2.223 . S
O164 C163 1.315 . S
O165 Cd155 2.240 . S
O165 C163 1.279 . S
O166 Cd156 2.297 . S
O166 C161 1.247 . S
O167 Cd156 2.439 . S
O167 C161 1.208 . S
O168 Cd169 2.223 . S
O168 C176 1.315 . S
Cd169 O168 2.223 . S
Cd169 O172 2.297 . S
Cd169 O173 2.439 . S
Cd169 O179 2.240 . S
Cd170 O171 2.240 . S
Cd170 O178 2.223 . S
Cd170 O180 2.297 . S
Cd170 O181 2.439 . S
O171 Cd170 2.240 . S
O171 C176 1.279 . S
O172 Cd169 2.297 . S
O172 C174 1.247 . S
O173 Cd169 2.439 . S
O173 C174 1.208 . S
C174 O172 1.247 . S
C174 O173 1.208 . S
C175 O180 1.247 . S
C175 O181 1.208 . S
C176 O168 1.315 . S
C176 O171 1.279 . S
C177 O178 1.315 . S
C177 O179 1.279 . S
O178 Cd170 2.223 . S
O178 C177 1.315 . S
O179 Cd169 2.240 . S
O179 C177 1.279 . S
O180 Cd170 2.297 . S
O180 C175 1.247 . S
O181 Cd170 2.439 . S
O181 C175 1.208 . S
O182 Cd183 2.223 . S
O182 C190 1.315 . S
Cd183 O182 2.223 . S
Cd183 O186 2.297 . S
Cd183 O187 2.439 . S
Cd183 O193 2.240 . S
Cd184 O185 2.240 . S
Cd184 O192 2.223 . S
Cd184 O194 2.297 . S
Cd184 O195 2.439 . S
O185 Cd184 2.240 . S
O185 C190 1.279 . S
O186 Cd183 2.297 . S
O186 C188 1.247 . S
O187 Cd183 2.439 . S
O187 C188 1.208 . S
C188 O186 1.247 . S
C188 O187 1.208 . S
C189 O194 1.247 . S
C189 O195 1.208 . S
C190 O182 1.315 . S
C190 O185 1.279 . S
C191 O192 1.315 . S
C191 O193 1.279 . S
O192 Cd184 2.223 . S
O192 C191 1.315 . S
O193 Cd183 2.240 . S
O193 C191 1.279 . S
O194 Cd184 2.297 . S
O194 C189 1.247 . S
O195 Cd184 2.439 . S
O195 C189 1.208 . S
O196 Cd197 2.223 1_556 S
O196 C204 1.315 . S
Cd197 O196 2.223 1_554 S
Cd197 O200 2.297 1_554 S
Cd197 O201 2.439 1_554 S
Cd197 O207 2.240 . S
Cd198 O199 2.240 1_554 S
Cd198 O206 2.223 . S
Cd198 O208 2.297 . S
Cd198 O209 2.439 . S
O199 Cd198 2.240 1_556 S
O199 C204 1.279 . S
O200 Cd197 2.297 1_556 S
O200 C202 1.247 . S
O201 Cd197 2.439 1_556 S
O201 C202 1.208 . S
C202 O200 1.247 . S
C202 O201 1.208 . S
C203 O208 1.247 . S
C203 O209 1.208 . S
C204 O196 1.315 . S
C204 O199 1.279 . S
C205 O206 1.315 . S
C205 O207 1.279 . S
O206 Cd198 2.223 . S
O206 C205 1.315 . S
O207 Cd197 2.240 . S
O207 C205 1.279 . S
O208 Cd198 2.297 . S
O208 C203 1.247 . S
O209 Cd198 2.439 . S
O209 C203 1.208 . S
O210 Cd211 2.223 . S
O210 C218 1.315 . S
Cd211 O210 2.223 . S
Cd211 O214 2.297 . S
Cd211 O215 2.439 . S
Cd211 O221 2.240 . S
Cd212 O213 2.240 . S
Cd212 O220 2.223 . S
Cd212 O222 2.297 . S
Cd212 O223 2.439 . S
O213 Cd212 2.240 . S
O213 C218 1.279 . S
O214 Cd211 2.297 . S
O214 C216 1.247 . S
O215 Cd211 2.439 . S
O215 C216 1.208 . S
C216 O214 1.247 . S
C216 O215 1.208 . S
C217 O222 1.247 . S
C217 O223 1.208 . S
C218 O210 1.315 . S
C218 O213 1.279 . S
C219 O220 1.315 . S
C219 O221 1.279 . S
O220 Cd212 2.223 . S
O220 C219 1.315 . S
O221 Cd211 2.240 . S
O221 C219 1.279 . S
O222 Cd212 2.297 . S
O222 C217 1.247 . S
O223 Cd212 2.439 . S
O223 C217 1.208 . S
C224 C225 1.349 . S
C224 C226 1.327 . S
C224 H249 0.950 . S
C225 C224 1.349 . S
C225 C241 1.349 . S
C226 C224 1.327 . S
C226 C245 1.429 . S
C226 H250 0.950 . S
C227 C244 1.574 . S
C227 C246 1.368 . S
C227 H251 0.949 . S
H228 C232 0.949 . S
C229 C230 1.349 . S
C229 C231 1.327 . S
C229 H252 0.950 . S
C230 C229 1.349 . S
C230 C242 1.349 . S
C231 C229 1.327 . S
C231 C247 1.429 . S
C231 H253 0.950 . S
C232 H228 0.949 . S
C232 C240 1.574 . S
C232 C248 1.368 . S
H233 C241 0.950 . S
H234 C239 0.950 . S
H235 C240 0.949 . S
H236 C242 0.950 . S
H237 C243 0.950 . S
H238 C244 0.949 . S
C239 H234 0.950 . S
C239 C241 1.327 . S
C239 C245 1.429 . S
C240 C232 1.574 . S
C240 H235 0.949 . S
C240 C246 1.368 . S
C241 C225 1.349 . S
C241 H233 0.950 . S
C241 C239 1.327 . S
C242 C230 1.349 . S
C242 H236 0.950 . S
C242 C243 1.327 . S
C243 H237 0.950 . S
C243 C242 1.327 . S
C243 C247 1.429 . S
C244 C227 1.574 . S
C244 H238 0.949 . S
C244 C248 1.368 . S
C245 C226 1.429 . S
C245 C239 1.429 . S
C245 C246 1.523 . S
C246 C227 1.368 . S
C246 C240 1.368 . S
C246 C245 1.523 . S
C247 C231 1.429 . S
C247 C243 1.429 . S
C247 C248 1.523 . S
C248 C232 1.368 . S
C248 C244 1.368 . S
C248 C247 1.523 . S
H249 C224 0.950 . S
H250 C226 0.950 . S
H251 C227 0.949 . S
H252 C229 0.950 . S
H253 C231 0.950 . S
C254 C255 1.349 . S
C254 C256 1.327 . S
C254 H279 0.950 . S
C255 C254 1.349 . S
C255 C271 1.349 . S
C256 C254 1.327 . S
C256 C275 1.429 . S
C256 H280 0.950 . S
C257 C274 1.574 . S
C257 C276 1.368 . S
C257 H281 0.949 . S
H258 C262 0.949 . S
C259 C260 1.349 . S
C259 C261 1.327 . S
C259 H282 0.950 . S
C260 C259 1.349 . S
C260 C272 1.349 . S
C261 C259 1.327 . S
C261 C277 1.429 . S
C261 H283 0.950 . S
C262 H258 0.949 . S
C262 C270 1.574 1_455 S
C262 C278 1.368 . S
H263 C271 0.950 . S
H264 C269 0.950 . S
H265 C270 0.949 . S
H266 C272 0.950 . S
H267 C273 0.950 . S
H268 C274 0.949 . S
C269 H264 0.950 . S
C269 C271 1.327 . S
C269 C275 1.429 . S
C270 C262 1.574 1_655 S
C270 H265 0.949 . S
C270 C276 1.368 . S
C271 C255 1.349 . S
C271 H263 0.950 . S
C271 C269 1.327 . S
C272 C260 1.349 . S
C272 H266 0.950 . S
C272 C273 1.327 . S
C273 H267 0.950 . S
C273 C272 1.327 . S
C273 C277 1.429 . S
C274 C257 1.574 . S
C274 H268 0.949 . S
C274 C278 1.368 1_655 S
C275 C256 1.429 . S
C275 C269 1.429 . S
C275 C276 1.523 . S
C276 C257 1.368 . S
C276 C270 1.368 . S
C276 C275 1.523 . S
C277 C261 1.429 . S
C277 C273 1.429 . S
C277 C278 1.523 . S
C278 C262 1.368 . S
C278 C274 1.368 1_455 S
C278 C277 1.523 . S
H279 C254 0.950 . S
H280 C256 0.950 . S
H281 C257 0.949 . S
H282 C259 0.950 . S
H283 C261 0.950 . S
C284 C285 1.349 . S
C284 C286 1.327 . S
C284 H309 0.950 . S
C285 C284 1.349 . S
C285 C301 1.349 . S
C286 C284 1.327 . S
C286 C305 1.429 . S
C286 H310 0.950 . S
C287 C304 1.574 . S
C287 C306 1.368 . S
C287 H311 0.949 . S
H288 C292 0.949 . S
C289 C290 1.349 . S
C289 C291 1.327 . S
C289 H312 0.950 . S
C290 C289 1.349 . S
C290 C302 1.349 . S
C291 C289 1.327 . S
C291 C307 1.429 . S
C291 H313 0.950 . S
C292 H288 0.949 . S
C292 C300 1.574 . S
C292 C308 1.368 . S
H293 C301 0.950 . S
H294 C299 0.950 . S
H295 C300 0.949 . S
H296 C302 0.950 . S
H297 C303 0.950 . S
H298 C304 0.949 . S
C299 H294 0.950 . S
C299 C301 1.327 . S
C299 C305 1.429 . S
C300 C292 1.574 . S
C300 H295 0.949 . S
C300 C306 1.368 . S
C301 C285 1.349 . S
C301 H293 0.950 . S
C301 C299 1.327 . S
C302 C290 1.349 . S
C302 H296 0.950 . S
C302 C303 1.327 . S
C303 H297 0.950 . S
C303 C302 1.327 . S
C303 C307 1.429 . S
C304 C287 1.574 . S
C304 H298 0.949 . S
C304 C308 1.368 . S
C305 C286 1.429 . S
C305 C299 1.429 . S
C305 C306 1.523 . S
C306 C287 1.368 . S
C306 C300 1.368 . S
C306 C305 1.523 . S
C307 C291 1.429 . S
C307 C303 1.429 . S
C307 C308 1.523 . S
C308 C292 1.368 . S
C308 C304 1.368 . S
C308 C307 1.523 . S
H309 C284 0.950 . S
H310 C286 0.950 . S
H311 C287 0.949 . S
H312 C289 0.950 . S
H313 C291 0.950 . S
C314 C315 1.349 . S
C314 C316 1.327 . S
C314 H339 0.950 . S
C315 C314 1.349 . S
C315 C331 1.349 . S
C316 C314 1.327 . S
C316 C335 1.429 . S
C316 H340 0.950 . S
C317 C334 1.574 1_554 S
C317 C336 1.368 . S
C317 H341 0.949 . S
H318 C322 0.949 . S
C319 C320 1.349 . S
C319 C321 1.327 . S
C319 H342 0.950 . S
C320 C319 1.349 . S
C320 C332 1.349 . S
C321 C319 1.327 . S
C321 C337 1.429 . S
C321 H343 0.950 . S
C322 H318 0.949 . S
C322 C330 1.574 . S
C322 C338 1.368 . S
H323 C331 0.950 . S
H324 C329 0.950 . S
H325 C330 0.949 . S
H326 C332 0.950 . S
H327 C333 0.950 . S
H328 C334 0.949 . S
C329 H324 0.950 . S
C329 C331 1.327 . S
C329 C335 1.429 . S
C330 C322 1.574 . S
C330 H325 0.949 . S
C330 C336 1.368 1_556 S
C331 C315 1.349 . S
C331 H323 0.950 . S
C331 C329 1.327 . S
C332 C320 1.349 . S
C332 H326 0.950 . S
C332 C333 1.327 . S
C333 H327 0.950 . S
C333 C332 1.327 . S
C333 C337 1.429 . S
C334 C317 1.574 1_556 S
C334 H328 0.949 . S
C334 C338 1.368 . S
C335 C316 1.429 . S
C335 C329 1.429 . S
C335 C336 1.523 . S
C336 C317 1.368 . S
C336 C330 1.368 1_554 S
C336 C335 1.523 . S
C337 C321 1.429 . S
C337 C333 1.429 . S
C337 C338 1.523 . S
C338 C322 1.368 . S
C338 C334 1.368 . S
C338 C337 1.523 . S
H339 C314 0.950 . S
H340 C316 0.950 . S
H341 C317 0.949 . S
H342 C319 0.950 . S
H343 C321 0.950 . S
C344 C345 1.349 . S
C344 C346 1.327 . S
C344 H369 0.950 . S
C345 C344 1.349 . S
C345 C361 1.349 . S
C346 C344 1.327 . S
C346 C365 1.429 . S
C346 H370 0.950 . S
C347 C364 1.574 . S
C347 C366 1.368 . S
C347 H371 0.949 . S
H348 C352 0.949 . S
C349 C350 1.349 . S
C349 C351 1.327 . S
C349 H372 0.950 . S
C350 C349 1.349 . S
C350 C362 1.349 . S
C351 C349 1.327 . S
C351 C367 1.429 . S
C351 H373 0.950 . S
C352 H348 0.949 . S
C352 C360 1.574 . S
C352 C368 1.368 . S
H353 C361 0.950 . S
H354 C359 0.950 . S
H355 C360 0.949 . S
H356 C362 0.950 . S
H357 C363 0.950 . S
H358 C364 0.949 . S
C359 H354 0.950 . S
C359 C361 1.327 . S
C359 C365 1.429 . S
C360 C352 1.574 . S
C360 H355 0.949 . S
C360 C366 1.368 . S
C361 C345 1.349 . S
C361 H353 0.950 . S
C361 C359 1.327 . S
C362 C350 1.349 . S
C362 H356 0.950 . S
C362 C363 1.327 . S
C363 H357 0.950 . S
C363 C362 1.327 . S
C363 C367 1.429 . S
C364 C347 1.574 . S
C364 H358 0.949 . S
C364 C368 1.368 . S
C365 C346 1.429 . S
C365 C359 1.429 . S
C365 C366 1.523 . S
C366 C347 1.368 . S
C366 C360 1.368 . S
C366 C365 1.523 . S
C367 C351 1.429 . S
C367 C363 1.429 . S
C367 C368 1.523 . S
C368 C352 1.368 . S
C368 C364 1.368 . S
C368 C367 1.523 . S
H369 C344 0.950 . S
H370 C346 0.950 . S
H371 C347 0.949 . S
H372 C349 0.950 . S
H373 C351 0.950 . S
C374 C375 1.349 . S
C374 C376 1.327 . S
C374 H399 0.950 . S
C375 C374 1.349 . S
C375 C391 1.349 . S
C376 C374 1.327 . S
C376 C395 1.429 . S
C376 H400 0.950 . S
C377 C394 1.574 . S
C377 C396 1.368 . S
C377 H401 0.949 . S
H378 C382 0.949 . S
C379 C380 1.349 . S
C379 C381 1.327 . S
C379 H402 0.950 . S
C380 C379 1.349 . S
C380 C392 1.349 . S
C381 C379 1.327 . S
C381 C397 1.429 . S
C381 H403 0.950 . S
C382 H378 0.949 . S
C382 C390 1.574 . S
C382 C398 1.368 . S
H383 C391 0.950 . S
H384 C389 0.950 . S
H385 C390 0.949 . S
H386 C392 0.950 . S
H387 C393 0.950 . S
H388 C394 0.949 . S
C389 H384 0.950 . S
C389 C391 1.327 . S
C389 C395 1.429 . S
C390 C382 1.574 . S
C390 H385 0.949 . S
C390 C396 1.368 . S
C391 C375 1.349 . S
C391 H383 0.950 . S
C391 C389 1.327 . S
C392 C380 1.349 . S
C392 H386 0.950 . S
C392 C393 1.327 . S
C393 H387 0.950 . S
C393 C392 1.327 . S
C393 C397 1.429 . S
C394 C377 1.574 . S
C394 H388 0.949 . S
C394 C398 1.368 . S
C395 C376 1.429 . S
C395 C389 1.429 . S
C395 C396 1.523 . S
C396 C377 1.368 . S
C396 C390 1.368 . S
C396 C395 1.523 . S
C397 C381 1.429 . S
C397 C393 1.429 . S
C397 C398 1.523 . S
C398 C382 1.368 . S
C398 C394 1.368 . S
C398 C397 1.523 . S
H399 C374 0.950 . S
H400 C376 0.950 . S
H401 C377 0.949 . S
H402 C379 0.950 . S
H403 C381 0.950 . S
C404 C405 1.349 . S
C404 C406 1.327 . S
C404 H429 0.950 . S
C405 C404 1.349 . S
C405 C421 1.349 . S
C406 C404 1.327 . S
C406 C425 1.429 . S
C406 H430 0.950 . S
C407 C424 1.574 . S
C407 C426 1.368 . S
C407 H431 0.949 . S
H408 C412 0.949 . S
C409 C410 1.349 . S
C409 C411 1.327 . S
C409 H432 0.950 . S
C410 C409 1.349 . S
C410 C422 1.349 . S
C411 C409 1.327 . S
C411 C427 1.429 . S
C411 H433 0.950 . S
C412 H408 0.949 . S
C412 C420 1.574 . S
C412 C428 1.368 . S
H413 C421 0.950 . S
H414 C419 0.950 . S
H415 C420 0.949 . S
H416 C422 0.950 . S
H417 C423 0.950 . S
H418 C424 0.949 . S
C419 H414 0.950 . S
C419 C421 1.327 . S
C419 C425 1.429 . S
C420 C412 1.574 . S
C420 H415 0.949 . S
C420 C426 1.368 . S
C421 C405 1.349 . S
C421 H413 0.950 . S
C421 C419 1.327 . S
C422 C410 1.349 . S
C422 H416 0.950 . S
C422 C423 1.327 . S
C423 H417 0.950 . S
C423 C422 1.327 . S
C423 C427 1.429 . S
C424 C407 1.574 . S
C424 H418 0.949 . S
C424 C428 1.368 . S
C425 C406 1.429 . S
C425 C419 1.429 . S
C425 C426 1.523 . S
C426 C407 1.368 . S
C426 C420 1.368 . S
C426 C425 1.523 . S
C427 C411 1.429 . S
C427 C423 1.429 . S
C427 C428 1.523 . S
C428 C412 1.368 . S
C428 C424 1.368 . S
C428 C427 1.523 . S
H429 C404 0.950 . S
H430 C406 0.950 . S
H431 C407 0.949 . S
H432 C409 0.950 . S
H433 C411 0.950 . S
C434 C435 1.349 . S
C434 C436 1.327 . S
C434 H459 0.950 . S
C435 C434 1.349 . S
C435 C451 1.349 . S
C436 C434 1.327 . S
C436 C455 1.429 . S
C436 H460 0.950 . S
C437 C454 1.574 . S
C437 C456 1.368 1_655 S
C437 H461 0.949 . S
H438 C442 0.949 . S
C439 C440 1.349 . S
C439 C441 1.327 . S
C439 H462 0.950 . S
C440 C439 1.349 . S
C440 C452 1.349 . S
C441 C439 1.327 . S
C441 C457 1.429 . S
C441 H463 0.950 . S
C442 H438 0.949 . S
C442 C450 1.574 1_554 S
C442 C458 1.368 1_454 S
H443 C451 0.950 . S
H444 C449 0.950 . S
H445 C450 0.949 . S
H446 C452 0.950 . S
H447 C453 0.950 . S
H448 C454 0.949 . S
C449 H444 0.950 . S
C449 C451 1.327 . S
C449 C455 1.429 . S
C450 C442 1.574 1_556 S
C450 H445 0.949 . S
C450 C456 1.368 . S
C451 C435 1.349 . S
C451 H443 0.950 . S
C451 C449 1.327 . S
C452 C440 1.349 . S
C452 H446 0.950 . S
C452 C453 1.327 . S
C453 H447 0.950 . S
C453 C452 1.327 . S
C453 C457 1.429 . S
C454 C437 1.574 . S
C454 H448 0.949 . S
C454 C458 1.368 . S
C455 C436 1.429 . S
C455 C449 1.429 . S
C455 C456 1.523 . S
C456 C437 1.368 1_455 S
C456 C450 1.368 . S
C456 C455 1.523 . S
C457 C441 1.429 . S
C457 C453 1.429 . S
C457 C458 1.523 1_554 S
C458 C442 1.368 1_656 S
C458 C454 1.368 . S
C458 C457 1.523 1_556 S
H459 C434 0.950 . S
H460 C436 0.950 . S
H461 C437 0.949 . S
H462 C439 0.950 . S
H463 C441 0.950 . S
C464 C465 1.349 . S
C464 C466 1.327 . S
C464 H489 0.950 . S
C465 C464 1.349 . S
C465 C481 1.349 . S
C466 C464 1.327 . S
C466 C485 1.429 . S
C466 H490 0.950 . S
C467 C484 1.574 . S
C467 C486 1.368 . S
C467 H491 0.949 . S
H468 C472 0.949 . S
C469 C470 1.349 . S
C469 C471 1.327 . S
C469 H492 0.950 . S
C470 C469 1.349 . S
C470 C482 1.349 . S
C471 C469 1.327 . S
C471 C487 1.429 . S
C471 H493 0.950 . S
C472 H468 0.949 . S
C472 C480 1.574 . S
C472 C488 1.368 . S
H473 C481 0.950 . S
H474 C479 0.950 . S
H475 C480 0.949 . S
H476 C482 0.950 . S
H477 C483 0.950 . S
H478 C484 0.949 . S
C479 H474 0.950 . S
C479 C481 1.327 . S
C479 C485 1.429 . S
C480 C472 1.574 . S
C480 H475 0.949 . S
C480 C486 1.368 . S
C481 C465 1.349 . S
C481 H473 0.950 . S
C481 C479 1.327 . S
C482 C470 1.349 . S
C482 H476 0.950 . S
C482 C483 1.327 . S
C483 H477 0.950 . S
C483 C482 1.327 . S
C483 C487 1.429 . S
C484 C467 1.574 . S
C484 H478 0.949 . S
C484 C488 1.368 . S
C485 C466 1.429 . S
C485 C479 1.429 . S
C485 C486 1.523 . S
C486 C467 1.368 . S
C486 C480 1.368 . S
C486 C485 1.523 . S
C487 C471 1.429 . S
C487 C483 1.429 . S
C487 C488 1.523 . S
C488 C472 1.368 . S
C488 C484 1.368 . S
C488 C487 1.523 . S
H489 C464 0.950 . S
H490 C466 0.950 . S
H491 C467 0.949 . S
H492 C469 0.950 . S
H493 C471 0.950 . S
C494 C495 1.349 . S
C494 C496 1.327 . S
C494 H519 0.950 . S
C495 C494 1.349 . S
C495 C511 1.349 . S
C496 C494 1.327 . S
C496 C515 1.429 . S
C496 H520 0.950 . S
C497 C514 1.574 . S
C497 C516 1.368 . S
C497 H521 0.949 . S
H498 C502 0.949 . S
C499 C500 1.349 . S
C499 C501 1.327 . S
C499 H522 0.950 . S
C500 C499 1.349 . S
C500 C512 1.349 . S
C501 C499 1.327 . S
C501 C517 1.429 . S
C501 H523 0.950 . S
C502 H498 0.949 . S
C502 C510 1.574 . S
C502 C518 1.368 . S
H503 C511 0.950 . S
H504 C509 0.950 . S
H505 C510 0.949 . S
H506 C512 0.950 . S
H507 C513 0.950 . S
H508 C514 0.949 . S
C509 H504 0.950 . S
C509 C511 1.327 . S
C509 C515 1.429 . S
C510 C502 1.574 . S
C510 H505 0.949 . S
C510 C516 1.368 . S
C511 C495 1.349 . S
C511 H503 0.950 . S
C511 C509 1.327 . S
C512 C500 1.349 . S
C512 H506 0.950 . S
C512 C513 1.327 . S
C513 H507 0.950 . S
C513 C512 1.327 . S
C513 C517 1.429 . S
C514 C497 1.574 . S
C514 H508 0.949 . S
C514 C518 1.368 . S
C515 C496 1.429 . S
C515 C509 1.429 . S
C515 C516 1.523 . S
C516 C497 1.368 . S
C516 C510 1.368 . S
C516 C515 1.523 . S
C517 C501 1.429 . S
C517 C513 1.429 . S
C517 C518 1.523 . S
C518 C502 1.368 . S
C518 C514 1.368 . S
C518 C517 1.523 . S
H519 C494 0.950 . S
H520 C496 0.950 . S
H521 C497 0.949 . S
H522 C499 0.950 . S
H523 C501 0.950 . S
C524 C525 1.349 . S
C524 C526 1.327 . S
C524 H549 0.950 . S
C525 C524 1.349 . S
C525 C541 1.349 . S
C526 C524 1.327 . S
C526 C545 1.429 . S
C526 H550 0.950 . S
C527 C544 1.574 . S
C527 C546 1.368 . S
C527 H551 0.949 . S
H528 C532 0.949 . S
C529 C530 1.349 . S
C529 C531 1.327 . S
C529 H552 0.950 . S
C530 C529 1.349 . S
C530 C542 1.349 . S
C531 C529 1.327 . S
C531 C547 1.429 . S
C531 H553 0.950 . S
C532 H528 0.949 . S
C532 C540 1.574 . S
C532 C548 1.368 . S
H533 C541 0.950 . S
H534 C539 0.950 . S
H535 C540 0.949 . S
H536 C542 0.950 . S
H537 C543 0.950 . S
H538 C544 0.949 . S
C539 H534 0.950 . S
C539 C541 1.327 . S
C539 C545 1.429 . S
C540 C532 1.574 . S
C540 H535 0.949 . S
C540 C546 1.368 . S
C541 C525 1.349 . S
C541 H533 0.950 . S
C541 C539 1.327 . S
C542 C530 1.349 . S
C542 H536 0.950 . S
C542 C543 1.327 . S
C543 H537 0.950 . S
C543 C542 1.327 . S
C543 C547 1.429 . S
C544 C527 1.574 . S
C544 H538 0.949 . S
C544 C548 1.368 . S
C545 C526 1.429 . S
C545 C539 1.429 . S
C545 C546 1.523 . S
C546 C527 1.368 . S
C546 C540 1.368 . S
C546 C545 1.523 . S
C547 C531 1.429 . S
C547 C543 1.429 . S
C547 C548 1.523 . S
C548 C532 1.368 . S
C548 C544 1.368 . S
C548 C547 1.523 . S
H549 C524 0.950 . S
H550 C526 0.950 . S
H551 C527 0.949 . S
H552 C529 0.950 . S
H553 C531 0.950 . S
C554 C555 1.349 . S
C554 C556 1.327 . S
C554 H579 0.950 . S
C555 C554 1.349 . S
C555 C571 1.349 . S
C556 C554 1.327 . S
C556 C575 1.429 . S
C556 H580 0.950 . S
C557 C574 1.574 . S
C557 C576 1.368 . S
C557 H581 0.949 . S
H558 C562 0.949 . S
C559 C560 1.349 . S
C559 C561 1.327 . S
C559 H582 0.950 . S
C560 C559 1.349 . S
C560 C572 1.349 . S
C561 C559 1.327 . S
C561 C577 1.429 . S
C561 H583 0.950 . S
C562 H558 0.949 . S
C562 C570 1.574 . S
C562 C578 1.368 . S
H563 C571 0.950 . S
H564 C569 0.950 . S
H565 C570 0.949 . S
H566 C572 0.950 . S
H567 C573 0.950 . S
H568 C574 0.949 . S
C569 H564 0.950 . S
C569 C571 1.327 . S
C569 C575 1.429 . S
C570 C562 1.574 . S
C570 H565 0.949 . S
C570 C576 1.368 . S
C571 C555 1.349 . S
C571 H563 0.950 . S
C571 C569 1.327 . S
C572 C560 1.349 . S
C572 H566 0.950 . S
C572 C573 1.327 . S
C573 H567 0.950 . S
C573 C572 1.327 . S
C573 C577 1.429 . S
C574 C557 1.574 . S
C574 H568 0.949 . S
C574 C578 1.368 . S
C575 C556 1.429 . S
C575 C569 1.429 . S
C575 C576 1.523 . S
C576 C557 1.368 . S
C576 C570 1.368 . S
C576 C575 1.523 . S
C577 C561 1.429 . S
C577 C573 1.429 . S
C577 C578 1.523 . S
C578 C562 1.368 . S
C578 C574 1.368 . S
C578 C577 1.523 . S
H579 C554 0.950 . S
H580 C556 0.950 . S
H581 C557 0.949 . S
H582 C559 0.950 . S
H583 C561 0.950 . S
C584 C585 1.349 . S
C584 C586 1.327 . S
C584 H609 0.950 . S
C585 C584 1.349 . S
C585 C601 1.349 . S
C586 C584 1.327 . S
C586 C605 1.429 . S
C586 H610 0.950 . S
C587 C604 1.574 1_554 S
C587 C606 1.368 . S
C587 H611 0.949 . S
H588 C592 0.949 . S
C589 C590 1.349 . S
C589 C591 1.327 . S
C589 H612 0.950 . S
C590 C589 1.349 . S
C590 C602 1.349 . S
C591 C589 1.327 . S
C591 C607 1.429 . S
C591 H613 0.950 . S
C592 H588 0.949 . S
C592 C600 1.574 . S
C592 C608 1.368 . S
H593 C601 0.950 . S
H594 C599 0.950 . S
H595 C600 0.949 . S
H596 C602 0.950 . S
H597 C603 0.950 . S
H598 C604 0.949 . S
C599 H594 0.950 . S
C599 C601 1.327 . S
C599 C605 1.429 . S
C600 C592 1.574 . S
C600 H595 0.949 . S
C600 C606 1.368 1_556 S
C601 C585 1.349 . S
C601 H593 0.950 . S
C601 C599 1.327 . S
C602 C590 1.349 . S
C602 H596 0.950 . S
C602 C603 1.327 . S
C603 H597 0.950 . S
C603 C602 1.327 . S
C603 C607 1.429 . S
C604 C587 1.574 1_556 S
C604 H598 0.949 . S
C604 C608 1.368 . S
C605 C586 1.429 . S
C605 C599 1.429 . S
C605 C606 1.523 . S
C606 C587 1.368 . S
C606 C600 1.368 1_554 S
C606 C605 1.523 . S
C607 C591 1.429 . S
C607 C603 1.429 . S
C607 C608 1.523 . S
C608 C592 1.368 . S
C608 C604 1.368 . S
C608 C607 1.523 . S
H609 C584 0.950 . S
H610 C586 0.950 . S
H611 C587 0.949 . S
H612 C589 0.950 . S
H613 C591 0.950 . S
C614 C615 1.349 . S
C614 C616 1.327 . S
C614 H639 0.950 . S
C615 C614 1.349 . S
C615 C631 1.349 . S
C616 C614 1.327 . S
C616 C635 1.429 . S
C616 H640 0.950 . S
C617 C634 1.574 1_455 S
C617 C636 1.368 . S
C617 H641 0.949 . S
H618 C622 0.949 . S
C619 C620 1.349 . S
C619 C621 1.327 . S
C619 H642 0.950 . S
C620 C619 1.349 . S
C620 C632 1.349 . S
C621 C619 1.327 . S
C621 C637 1.429 . S
C621 H643 0.950 . S
C622 H618 0.949 . S
C622 C630 1.574 . S
C622 C638 1.368 1_455 S
H623 C631 0.950 . S
H624 C629 0.950 . S
H625 C630 0.949 . S
H626 C632 0.950 . S
H627 C633 0.950 . S
H628 C634 0.949 . S
C629 H624 0.950 . S
C629 C631 1.327 . S
C629 C635 1.429 . S
C630 C622 1.574 . S
C630 H625 0.949 . S
C630 C636 1.368 . S
C631 C615 1.349 . S
C631 H623 0.950 . S
C631 C629 1.327 . S
C632 C620 1.349 . S
C632 H626 0.950 . S
C632 C633 1.327 . S
C633 H627 0.950 . S
C633 C632 1.327 . S
C633 C637 1.429 . S
C634 C617 1.574 1_655 S
C634 H628 0.949 . S
C634 C638 1.368 . S
C635 C616 1.429 . S
C635 C629 1.429 . S
C635 C636 1.523 . S
C636 C617 1.368 . S
C636 C630 1.368 . S
C636 C635 1.523 . S
C637 C621 1.429 . S
C637 C633 1.429 . S
C637 C638 1.523 . S
C638 C622 1.368 1_655 S
C638 C634 1.368 . S
C638 C637 1.523 . S
H639 C614 0.950 . S
H640 C616 0.950 . S
H641 C617 0.949 . S
H642 C619 0.950 . S
H643 C621 0.950 . S
C644 C645 1.349 . S
C644 C646 1.327 . S
C644 H669 0.950 . S
C645 C644 1.349 . S
C645 C661 1.349 . S
C646 C644 1.327 . S
C646 C665 1.429 . S
C646 H670 0.950 . S
C647 C664 1.574 1_455 S
C647 C666 1.368 . S
C647 H671 0.949 1_556 S
H648 C652 0.949 . S
C649 C650 1.349 . S
C649 C651 1.327 . S
C649 H672 0.950 . S
C650 C649 1.349 . S
C650 C662 1.349 . S
C651 C649 1.327 . S
C651 C667 1.429 . S
C651 H673 0.950 . S
C652 H648 0.949 . S
C652 C660 1.574 . S
C652 C668 1.368 1_455 S
H653 C661 0.950 . S
H654 C659 0.950 . S
H655 C660 0.949 . S
H656 C662 0.950 . S
H657 C663 0.950 . S
H658 C664 0.949 . S
C659 H654 0.950 . S
C659 C661 1.327 . S
C659 C665 1.429 . S
C660 C652 1.574 . S
C660 H655 0.949 . S
C660 C666 1.368 . S
C661 C645 1.349 . S
C661 H653 0.950 . S
C661 C659 1.327 . S
C662 C650 1.349 . S
C662 H656 0.950 . S
C662 C663 1.327 . S
C663 H657 0.950 . S
C663 C662 1.327 . S
C663 C667 1.429 . S
C664 C647 1.574 1_655 S
C664 H658 0.949 . S
C664 C668 1.368 . S
C665 C646 1.429 . S
C665 C659 1.429 . S
C665 C666 1.523 1_554 S
C666 C647 1.368 . S
C666 C660 1.368 . S
C666 C665 1.523 1_556 S
C667 C651 1.429 . S
C667 C663 1.429 . S
C667 C668 1.523 . S
C668 C652 1.368 1_655 S
C668 C664 1.368 . S
C668 C667 1.523 . S
H669 C644 0.950 . S
H670 C646 0.950 . S
H671 C647 0.949 1_554 S
H672 C649 0.950 . S
H673 C651 0.950 . S
C674 C675 1.349 . S
C674 C676 1.327 . S
C674 H699 0.950 . S
C675 C674 1.349 . S
C675 C691 1.349 . S
C676 C674 1.327 . S
C676 C695 1.429 . S
C676 H700 0.950 . S
C677 C694 1.574 . S
C677 C696 1.368 . S
C677 H701 0.949 . S
H678 C682 0.949 . S
C679 C680 1.349 . S
C679 C681 1.327 . S
C679 H702 0.950 . S
C680 C679 1.349 . S
C680 C692 1.349 . S
C681 C679 1.327 . S
C681 C697 1.429 . S
C681 H703 0.950 . S
C682 H678 0.949 . S
C682 C690 1.574 . S
C682 C698 1.368 . S
H683 C691 0.950 . S
H684 C689 0.950 . S
H685 C690 0.949 . S
H686 C692 0.950 . S
H687 C693 0.950 . S
H688 C694 0.949 . S
C689 H684 0.950 . S
C689 C691 1.327 . S
C689 C695 1.429 . S
C690 C682 1.574 . S
C690 H685 0.949 . S
C690 C696 1.368 . S
C691 C675 1.349 . S
C691 H683 0.950 . S
C691 C689 1.327 . S
C692 C680 1.349 . S
C692 H686 0.950 . S
C692 C693 1.327 . S
C693 H687 0.950 . S
C693 C692 1.327 . S
C693 C697 1.429 . S
C694 C677 1.574 . S
C694 H688 0.949 . S
C694 C698 1.368 . S
C695 C676 1.429 . S
C695 C689 1.429 . S
C695 C696 1.523 . S
C696 C677 1.368 . S
C696 C690 1.368 . S
C696 C695 1.523 . S
C697 C681 1.429 . S
C697 C693 1.429 . S
C697 C698 1.523 . S
C698 C682 1.368 . S
C698 C694 1.368 . S
C698 C697 1.523 . S
H699 C674 0.950 . S
H700 C676 0.950 . S
H701 C677 0.949 . S
H702 C679 0.950 . S
H703 C681 0.950 . S
C704 C705 1.349 . S
C704 C706 1.327 . S
C704 H729 0.950 . S
C705 C704 1.349 . S
C705 C721 1.349 . S
C706 C704 1.327 . S
C706 C725 1.429 . S
C706 H730 0.950 . S
C707 C724 1.574 . S
C707 C726 1.368 . S
C707 H731 0.949 . S
H708 C712 0.949 . S
C709 C710 1.349 . S
C709 C711 1.327 . S
C709 H732 0.950 . S
C710 C709 1.349 . S
C710 C722 1.349 . S
C711 C709 1.327 . S
C711 C727 1.429 . S
C711 H733 0.950 . S
C712 H708 0.949 . S
C712 C720 1.574 . S
C712 C728 1.368 . S
H713 C721 0.950 . S
H714 C719 0.950 . S
H715 C720 0.949 . S
H716 C722 0.950 . S
H717 C723 0.950 . S
H718 C724 0.949 . S
C719 H714 0.950 . S
C719 C721 1.327 . S
C719 C725 1.429 . S
C720 C712 1.574 . S
C720 H715 0.949 . S
C720 C726 1.368 . S
C721 C705 1.349 . S
C721 H713 0.950 . S
C721 C719 1.327 . S
C722 C710 1.349 . S
C722 H716 0.950 . S
C722 C723 1.327 . S
C723 H717 0.950 . S
C723 C722 1.327 . S
C723 C727 1.429 . S
C724 C707 1.574 . S
C724 H718 0.949 . S
C724 C728 1.368 . S
C725 C706 1.429 . S
C725 C719 1.429 . S
C725 C726 1.523 . S
C726 C707 1.368 . S
C726 C720 1.368 . S
C726 C725 1.523 . S
C727 C711 1.429 . S
C727 C723 1.429 . S
C727 C728 1.523 . S
C728 C712 1.368 . S
C728 C724 1.368 . S
C728 C727 1.523 . S
H729 C704 0.950 . S
H730 C706 0.950 . S
H731 C707 0.949 . S
H732 C709 0.950 . S
H733 C711 0.950 . S
C734 C735 1.349 . S
C734 C736 1.327 . S
C734 H759 0.950 . S
C735 C734 1.349 . S
C735 C751 1.349 . S
C736 C734 1.327 . S
C736 C755 1.429 . S
C736 H760 0.950 . S
C737 C754 1.574 . S
C737 C756 1.368 . S
C737 H761 0.949 . S
H738 C742 0.949 . S
C739 C740 1.349 . S
C739 C741 1.327 . S
C739 H762 0.950 . S
C740 C739 1.349 . S
C740 C752 1.349 . S
C741 C739 1.327 . S
C741 C757 1.429 . S
C741 H763 0.950 . S
C742 H738 0.949 . S
C742 C750 1.574 . S
C742 C758 1.368 . S
H743 C751 0.950 . S
H744 C749 0.950 . S
H745 C750 0.949 . S
H746 C752 0.950 1_545 S
H747 C753 0.950 . S
H748 C754 0.949 . S
C749 H744 0.950 . S
C749 C751 1.327 . S
C749 C755 1.429 . S
C750 C742 1.574 . S
C750 H745 0.949 . S
C750 C756 1.368 . S
C751 C735 1.349 . S
C751 H743 0.950 . S
C751 C749 1.327 . S
C752 C740 1.349 . S
C752 H746 0.950 1_565 S
C752 C753 1.327 . S
C753 H747 0.950 . S
C753 C752 1.327 . S
C753 C757 1.429 . S
C754 C737 1.574 . S
C754 H748 0.949 . S
C754 C758 1.368 . S
C755 C736 1.429 . S
C755 C749 1.429 . S
C755 C756 1.523 . S
C756 C737 1.368 . S
C756 C750 1.368 . S
C756 C755 1.523 . S
C757 C741 1.429 . S
C757 C753 1.429 . S
C757 C758 1.523 . S
C758 C742 1.368 . S
C758 C754 1.368 . S
C758 C757 1.523 . S
H759 C734 0.950 . S
H760 C736 0.950 . S
H761 C737 0.949 . S
H762 C739 0.950 . S
H763 C741 0.950 . S
C764 C765 1.349 . S
C764 C766 1.327 . S
C764 H789 0.950 . S
C765 C764 1.349 . S
C765 C781 1.349 . S
C766 C764 1.327 . S
C766 C785 1.429 . S
C766 H790 0.950 . S
C767 C784 1.574 . S
C767 C786 1.368 . S
C767 H791 0.949 . S
H768 C772 0.949 . S
C769 C770 1.349 . S
C769 C771 1.327 . S
C769 H792 0.950 . S
C770 C769 1.349 . S
C770 C782 1.349 . S
C771 C769 1.327 . S
C771 C787 1.429 . S
C771 H793 0.950 . S
C772 H768 0.949 . S
C772 C780 1.574 . S
C772 C788 1.368 . S
H773 C781 0.950 . S
H774 C779 0.950 . S
H775 C780 0.949 . S
H776 C782 0.950 . S
H777 C783 0.950 . S
H778 C784 0.949 . S
C779 H774 0.950 . S
C779 C781 1.327 . S
C779 C785 1.429 . S
C780 C772 1.574 . S
C780 H775 0.949 . S
C780 C786 1.368 . S
C781 C765 1.349 . S
C781 H773 0.950 . S
C781 C779 1.327 . S
C782 C770 1.349 . S
C782 H776 0.950 . S
C782 C783 1.327 . S
C783 H777 0.950 . S
C783 C782 1.327 . S
C783 C787 1.429 . S
C784 C767 1.574 . S
C784 H778 0.949 . S
C784 C788 1.368 . S
C785 C766 1.429 . S
C785 C779 1.429 . S
C785 C786 1.523 . S
C786 C767 1.368 . S
C786 C780 1.368 . S
C786 C785 1.523 . S
C787 C771 1.429 . S
C787 C783 1.429 . S
C787 C788 1.523 . S
C788 C772 1.368 . S
C788 C784 1.368 . S
C788 C787 1.523 . S
H789 C764 0.950 . S
H790 C766 0.950 . S
H791 C767 0.949 . S
H792 C769 0.950 . S
H793 C771 0.950 . S
C794 C795 1.349 . S
C794 C796 1.327 . S
C794 H819 0.950 1_556 S
C795 C794 1.349 . S
C795 C811 1.349 . S
C796 C794 1.327 . S
C796 C815 1.429 . S
C796 H820 0.950 . S
C797 C814 1.574 . S
C797 C816 1.368 . S
C797 H821 0.949 . S
H798 C802 0.949 . S
C799 C800 1.349 . S
C799 C801 1.327 . S
C799 H822 0.950 . S
C800 C799 1.349 . S
C800 C812 1.349 . S
C801 C799 1.327 . S
C801 C817 1.429 . S
C801 H823 0.950 . S
C802 H798 0.949 . S
C802 C810 1.574 . S
C802 C818 1.368 . S
H803 C811 0.950 . S
H804 C809 0.950 . S
H805 C810 0.949 . S
H806 C812 0.950 . S
H807 C813 0.950 . S
H808 C814 0.949 . S
C809 H804 0.950 . S
C809 C811 1.327 . S
C809 C815 1.429 . S
C810 C802 1.574 . S
C810 H805 0.949 . S
C810 C816 1.368 . S
C811 C795 1.349 . S
C811 H803 0.950 . S
C811 C809 1.327 . S
C812 C800 1.349 . S
C812 H806 0.950 . S
C812 C813 1.327 . S
C813 H807 0.950 . S
C813 C812 1.327 . S
C813 C817 1.429 . S
C814 C797 1.574 . S
C814 H808 0.949 . S
C814 C818 1.368 . S
C815 C796 1.429 . S
C815 C809 1.429 . S
C815 C816 1.523 . S
C816 C797 1.368 . S
C816 C810 1.368 . S
C816 C815 1.523 . S
C817 C801 1.429 . S
C817 C813 1.429 . S
C817 C818 1.523 . S
C818 C802 1.368 . S
C818 C814 1.368 . S
C818 C817 1.523 . S
H819 C794 0.950 1_554 S
H820 C796 0.950 . S
H821 C797 0.949 . S
H822 C799 0.950 . S
H823 C801 0.950 . S
C824 C825 1.349 . S
C824 C826 1.327 . S
C824 H849 0.950 . S
C825 C824 1.349 . S
C825 C841 1.349 . S
C826 C824 1.327 . S
C826 C845 1.429 . S
C826 H850 0.950 . S
C827 C844 1.574 . S
C827 C846 1.368 . S
C827 H851 0.949 . S
H828 C832 0.949 . S
C829 C830 1.349 . S
C829 C831 1.327 . S
C829 H852 0.950 . S
C830 C829 1.349 . S
C830 C842 1.349 . S
C831 C829 1.327 . S
C831 C847 1.429 . S
C831 H853 0.950 . S
C832 H828 0.949 . S
C832 C840 1.574 . S
C832 C848 1.368 . S
H833 C841 0.950 . S
H834 C839 0.950 . S
H835 C840 0.949 . S
H836 C842 0.950 . S
H837 C843 0.950 . S
H838 C844 0.949 . S
C839 H834 0.950 . S
C839 C841 1.327 . S
C839 C845 1.429 . S
C840 C832 1.574 . S
C840 H835 0.949 . S
C840 C846 1.368 . S
C841 C825 1.349 . S
C841 H833 0.950 . S
C841 C839 1.327 . S
C842 C830 1.349 . S
C842 H836 0.950 . S
C842 C843 1.327 . S
C843 H837 0.950 . S
C843 C842 1.327 . S
C843 C847 1.429 . S
C844 C827 1.574 . S
C844 H838 0.949 . S
C844 C848 1.368 . S
C845 C826 1.429 . S
C845 C839 1.429 . S
C845 C846 1.523 . S
C846 C827 1.368 . S
C846 C840 1.368 . S
C846 C845 1.523 . S
C847 C831 1.429 . S
C847 C843 1.429 . S
C847 C848 1.523 . S
C848 C832 1.368 . S
C848 C844 1.368 . S
C848 C847 1.523 . S
H849 C824 0.950 . S
H850 C826 0.950 . S
H851 C827 0.949 . S
H852 C829 0.950 . S
H853 C831 0.950 . S
C854 C855 1.349 1_565 S
C854 C856 1.327 . S
C854 H879 0.950 . S
C855 C854 1.349 1_545 S
C855 C871 1.349 . S
C856 C854 1.327 . S
C856 C875 1.429 . S
C856 H880 0.950 . S
C857 C874 1.574 . S
C857 C876 1.368 . S
C857 H881 0.949 . S
H858 C862 0.949 . S
C859 C860 1.349 . S
C859 C861 1.327 . S
C859 H882 0.950 . S
C860 C859 1.349 . S
C860 C872 1.349 . S
C861 C859 1.327 . S
C861 C877 1.429 . S
C861 H883 0.950 . S
C862 H858 0.949 . S
C862 C870 1.574 . S
C862 C878 1.368 . S
H863 C871 0.950 . S
H864 C869 0.950 . S
H865 C870 0.949 . S
H866 C872 0.950 . S
H867 C873 0.950 . S
H868 C874 0.949 . S
C869 H864 0.950 . S
C869 C871 1.327 1_565 S
C869 C875 1.429 . S
C870 C862 1.574 . S
C870 H865 0.949 . S
C870 C876 1.368 . S
C871 C855 1.349 . S
C871 H863 0.950 . S
C871 C869 1.327 1_545 S
C872 C860 1.349 . S
C872 H866 0.950 . S
C872 C873 1.327 . S
C873 H867 0.950 . S
C873 C872 1.327 . S
C873 C877 1.429 . S
C874 C857 1.574 . S
C874 H868 0.949 . S
C874 C878 1.368 . S
C875 C856 1.429 . S
C875 C869 1.429 . S
C875 C876 1.523 . S
C876 C857 1.368 . S
C876 C870 1.368 . S
C876 C875 1.523 . S
C877 C861 1.429 . S
C877 C873 1.429 . S
C877 C878 1.523 . S
C878 C862 1.368 . S
C878 C874 1.368 . S
C878 C877 1.523 . S
H879 C854 0.950 . S
H880 C856 0.950 . S
H881 C857 0.949 . S
H882 C859 0.950 . S
H883 C861 0.950 . S
C884 C885 1.349 . S
C884 C886 1.327 . S
C884 H909 0.950 . S
C885 C884 1.349 . S
C885 C901 1.349 . S
C886 C884 1.327 . S
C886 C905 1.429 . S
C886 H910 0.950 . S
C887 C904 1.574 . S
C887 C906 1.368 . S
C887 H911 0.949 . S
H888 C892 0.949 . S
C889 C890 1.349 . S
C889 C891 1.327 . S
C889 H912 0.950 . S
C890 C889 1.349 . S
C890 C902 1.349 . S
C891 C889 1.327 . S
C891 C907 1.429 . S
C891 H913 0.950 . S
C892 H888 0.949 . S
C892 C900 1.574 . S
C892 C908 1.368 . S
H893 C901 0.950 . S
H894 C899 0.950 . S
H895 C900 0.949 . S
H896 C902 0.950 . S
H897 C903 0.950 . S
H898 C904 0.949 . S
C899 H894 0.950 . S
C899 C901 1.327 . S
C899 C905 1.429 . S
C900 C892 1.574 . S
C900 H895 0.949 . S
C900 C906 1.368 . S
C901 C885 1.349 . S
C901 H893 0.950 . S
C901 C899 1.327 . S
C902 C890 1.349 . S
C902 H896 0.950 . S
C902 C903 1.327 . S
C903 H897 0.950 . S
C903 C902 1.327 . S
C903 C907 1.429 . S
C904 C887 1.574 . S
C904 H898 0.949 . S
C904 C908 1.368 . S
C905 C886 1.429 . S
C905 C899 1.429 . S
C905 C906 1.523 . S
C906 C887 1.368 . S
C906 C900 1.368 . S
C906 C905 1.523 . S
C907 C891 1.429 . S
C907 C903 1.429 . S
C907 C908 1.523 . S
C908 C892 1.368 . S
C908 C904 1.368 . S
C908 C907 1.523 . S
H909 C884 0.950 . S
H910 C886 0.950 . S
H911 C887 0.949 . S
H912 C889 0.950 . S
H913 C891 0.950 . S
C914 C915 1.349 . S
C914 C916 1.327 . S
C914 H939 0.950 . S
C915 C914 1.349 . S
C915 C931 1.349 . S
C916 C914 1.327 . S
C916 C935 1.429 . S
C916 H940 0.950 . S
C917 C934 1.574 . S
C917 C936 1.368 . S
C917 H941 0.949 . S
H918 C922 0.949 . S
C919 C920 1.349 . S
C919 C921 1.327 . S
C919 H942 0.950 . S
C920 C919 1.349 . S
C920 C932 1.349 . S
C921 C919 1.327 . S
C921 C937 1.429 . S
C921 H943 0.950 . S
C922 H918 0.949 . S
C922 C930 1.574 . S
C922 C938 1.368 . S
H923 C931 0.950 . S
H924 C929 0.950 . S
H925 C930 0.949 . S
H926 C932 0.950 . S
H927 C933 0.950 . S
H928 C934 0.949 . S
C929 H924 0.950 . S
C929 C931 1.327 . S
C929 C935 1.429 . S
C930 C922 1.574 . S
C930 H925 0.949 . S
C930 C936 1.368 . S
C931 C915 1.349 . S
C931 H923 0.950 . S
C931 C929 1.327 . S
C932 C920 1.349 . S
C932 H926 0.950 . S
C932 C933 1.327 . S
C933 H927 0.950 . S
C933 C932 1.327 . S
C933 C937 1.429 . S
C934 C917 1.574 . S
C934 H928 0.949 . S
C934 C938 1.368 . S
C935 C916 1.429 . S
C935 C929 1.429 . S
C935 C936 1.523 . S
C936 C917 1.368 . S
C936 C930 1.368 . S
C936 C935 1.523 . S
C937 C921 1.429 . S
C937 C933 1.429 . S
C937 C938 1.523 . S
C938 C922 1.368 . S
C938 C934 1.368 . S
C938 C937 1.523 . S
H939 C914 0.950 . S
H940 C916 0.950 . S
H941 C917 0.949 . S
H942 C919 0.950 . S
H943 C921 0.950 . S
C944 C945 1.349 . S
C944 C946 1.327 . S
C944 H969 0.950 . S
C945 C944 1.349 . S
C945 C961 1.349 . S
C946 C944 1.327 . S
C946 C965 1.429 . S
C946 H970 0.950 . S
C947 C964 1.574 . S
C947 C966 1.368 . S
C947 H971 0.949 . S
H948 C952 0.949 . S
C949 C950 1.349 . S
C949 C951 1.327 . S
C949 H972 0.950 . S
C950 C949 1.349 . S
C950 C962 1.349 . S
C951 C949 1.327 . S
C951 C967 1.429 . S
C951 H973 0.950 . S
C952 H948 0.949 . S
C952 C960 1.574 . S
C952 C968 1.368 . S
H953 C961 0.950 . S
H954 C959 0.950 . S
H955 C960 0.949 . S
H956 C962 0.950 . S
H957 C963 0.950 . S
H958 C964 0.949 . S
C959 H954 0.950 . S
C959 C961 1.327 . S
C959 C965 1.429 . S
C960 C952 1.574 . S
C960 H955 0.949 . S
C960 C966 1.368 . S
C961 C945 1.349 . S
C961 H953 0.950 . S
C961 C959 1.327 . S
C962 C950 1.349 . S
C962 H956 0.950 . S
C962 C963 1.327 . S
C963 H957 0.950 . S
C963 C962 1.327 . S
C963 C967 1.429 . S
C964 C947 1.574 . S
C964 H958 0.949 . S
C964 C968 1.368 . S
C965 C946 1.429 . S
C965 C959 1.429 . S
C965 C966 1.523 . S
C966 C947 1.368 . S
C966 C960 1.368 . S
C966 C965 1.523 . S
C967 C951 1.429 . S
C967 C963 1.429 . S
C967 C968 1.523 . S
C968 C952 1.368 . S
C968 C964 1.368 . S
C968 C967 1.523 . S
H969 C944 0.950 . S
H970 C946 0.950 . S
H971 C947 0.949 . S
H972 C949 0.950 . S
H973 C951 0.950 . S
C974 C975 1.349 . S
C974 C976 1.327 . S
C974 H999 0.950 . S
C975 C974 1.349 . S
C975 C991 1.349 . S
C976 C974 1.327 . S
C976 C995 1.429 . S
C976 H1000 0.950 . S
C977 C994 1.574 . S
C977 C996 1.368 . S
C977 H1001 0.949 . S
H978 C982 0.949 . S
C979 C980 1.349 . S
C979 C981 1.327 . S
C979 H1002 0.950 . S
C980 C979 1.349 . S
C980 C992 1.349 . S
C981 C979 1.327 . S
C981 C997 1.429 . S
C981 H1003 0.950 . S
C982 H978 0.949 . S
C982 C990 1.574 . S
C982 C998 1.368 . S
H983 C991 0.950 . S
H984 C989 0.950 . S
H985 C990 0.949 . S
H986 C992 0.950 . S
H987 C993 0.950 . S
H988 C994 0.949 . S
C989 H984 0.950 . S
C989 C991 1.327 . S
C989 C995 1.429 . S
C990 C982 1.574 . S
C990 H985 0.949 . S
C990 C996 1.368 . S
C991 C975 1.349 . S
C991 H983 0.950 . S
C991 C989 1.327 . S
C992 C980 1.349 . S
C992 H986 0.950 . S
C992 C993 1.327 . S
C993 H987 0.950 . S
C993 C992 1.327 . S
C993 C997 1.429 . S
C994 C977 1.574 . S
C994 H988 0.949 . S
C994 C998 1.368 . S
C995 C976 1.429 . S
C995 C989 1.429 . S
C995 C996 1.523 . S
C996 C977 1.368 . S
C996 C990 1.368 . S
C996 C995 1.523 . S
C997 C981 1.429 . S
C997 C993 1.429 . S
C997 C998 1.523 . S
C998 C982 1.368 . S
C998 C994 1.368 . S
C998 C997 1.523 . S
H999 C974 0.950 . S
H1000 C976 0.950 . S
H1001 C977 0.949 . S
H1002 C979 0.950 . S
H1003 C981 0.950 . S
C1004 C1005 1.349 . S
C1004 C1006 1.327 . S
C1004 H1029 0.950 . S
C1005 C1004 1.349 . S
C1005 C1021 1.349 . S
C1006 C1004 1.327 . S
C1006 C1025 1.429 . S
C1006 H1030 0.950 . S
C1007 C1024 1.574 . S
C1007 C1026 1.368 . S
C1007 H1031 0.949 . S
H1008 C1012 0.949 . S
C1009 C1010 1.349 . S
C1009 C1011 1.327 . S
C1009 H1032 0.950 . S
C1010 C1009 1.349 . S
C1010 C1022 1.349 . S
C1011 C1009 1.327 . S
C1011 C1027 1.429 . S
C1011 H1033 0.950 . S
C1012 H1008 0.949 . S
C1012 C1020 1.574 . S
C1012 C1028 1.368 . S
H1013 C1021 0.950 . S
H1014 C1019 0.950 . S
H1015 C1020 0.949 . S
H1016 C1022 0.950 . S
H1017 C1023 0.950 . S
H1018 C1024 0.949 . S
C1019 H1014 0.950 . S
C1019 C1021 1.327 . S
C1019 C1025 1.429 . S
C1020 C1012 1.574 . S
C1020 H1015 0.949 . S
C1020 C1026 1.368 . S
C1021 C1005 1.349 . S
C1021 H1013 0.950 . S
C1021 C1019 1.327 . S
C1022 C1010 1.349 . S
C1022 H1016 0.950 . S
C1022 C1023 1.327 . S
C1023 H1017 0.950 . S
C1023 C1022 1.327 . S
C1023 C1027 1.429 . S
C1024 C1007 1.574 . S
C1024 H1018 0.949 . S
C1024 C1028 1.368 . S
C1025 C1006 1.429 . S
C1025 C1019 1.429 . S
C1025 C1026 1.523 . S
C1026 C1007 1.368 . S
C1026 C1020 1.368 . S
C1026 C1025 1.523 . S
C1027 C1011 1.429 . S
C1027 C1023 1.429 . S
C1027 C1028 1.523 . S
C1028 C1012 1.368 . S
C1028 C1024 1.368 . S
C1028 C1027 1.523 . S
H1029 C1004 0.950 . S
H1030 C1006 0.950 . S
H1031 C1007 0.949 . S
H1032 C1009 0.950 . S
H1033 C1011 0.950 . S
C1034 C1035 1.349 . S
C1034 C1036 1.327 1_545 S
C1034 H1059 0.950 . S
C1035 C1034 1.349 . S
C1035 C1051 1.349 1_545 S
C1036 C1034 1.327 1_565 S
C1036 C1055 1.429 . S
C1036 H1060 0.950 . S
C1037 C1054 1.574 . S
C1037 C1056 1.368 . S
C1037 H1061 0.949 . S
H1038 C1042 0.949 . S
C1039 C1040 1.349 . S
C1039 C1041 1.327 . S
C1039 H1062 0.950 . S
C1040 C1039 1.349 . S
C1040 C1052 1.349 . S
C1041 C1039 1.327 . S
C1041 C1057 1.429 . S
C1041 H1063 0.950 . S
C1042 H1038 0.949 . S
C1042 C1050 1.574 . S
C1042 C1058 1.368 . S
H1043 C1051 0.950 . S
H1044 C1049 0.950 . S
H1045 C1050 0.949 . S
H1046 C1052 0.950 . S
H1047 C1053 0.950 . S
H1048 C1054 0.949 . S
C1049 H1044 0.950 . S
C1049 C1051 1.327 . S
C1049 C1055 1.429 . S
C1050 C1042 1.574 . S
C1050 H1045 0.949 . S
C1050 C1056 1.368 . S
C1051 C1035 1.349 1_565 S
C1051 H1043 0.950 . S
C1051 C1049 1.327 . S
C1052 C1040 1.349 . S
C1052 H1046 0.950 . S
C1052 C1053 1.327 . S
C1053 H1047 0.950 . S
C1053 C1052 1.327 . S
C1053 C1057 1.429 . S
C1054 C1037 1.574 . S
C1054 H1048 0.949 . S
C1054 C1058 1.368 . S
C1055 C1036 1.429 . S
C1055 C1049 1.429 . S
C1055 C1056 1.523 . S
C1056 C1037 1.368 . S
C1056 C1050 1.368 . S
C1056 C1055 1.523 . S
C1057 C1041 1.429 . S
C1057 C1053 1.429 . S
C1057 C1058 1.523 . S
C1058 C1042 1.368 . S
C1058 C1054 1.368 . S
C1058 C1057 1.523 . S
H1059 C1034 0.950 . S
H1060 C1036 0.950 . S
H1061 C1037 0.949 . S
H1062 C1039 0.950 . S
H1063 C1041 0.950 . S
C1064 C1065 1.349 . S
C1064 C1066 1.327 . S
C1064 H1089 0.950 . S
C1065 C1064 1.349 . S
C1065 C1081 1.349 . S
C1066 C1064 1.327 . S
C1066 C1085 1.429 . S
C1066 H1090 0.950 . S
C1067 C1084 1.574 . S
C1067 C1086 1.368 . S
C1067 H1091 0.949 . S
H1068 C1072 0.949 . S
C1069 C1070 1.349 . S
C1069 C1071 1.327 . S
C1069 H1092 0.950 . S
C1070 C1069 1.349 . S
C1070 C1082 1.349 . S
C1071 C1069 1.327 . S
C1071 C1087 1.429 . S
C1071 H1093 0.950 . S
C1072 H1068 0.949 . S
C1072 C1080 1.574 . S
C1072 C1088 1.368 . S
H1073 C1081 0.950 . S
H1074 C1079 0.950 . S
H1075 C1080 0.949 . S
H1076 C1082 0.950 . S
H1077 C1083 0.950 . S
H1078 C1084 0.949 . S
C1079 H1074 0.950 . S
C1079 C1081 1.327 . S
C1079 C1085 1.429 . S
C1080 C1072 1.574 . S
C1080 H1075 0.949 . S
C1080 C1086 1.368 . S
C1081 C1065 1.349 . S
C1081 H1073 0.950 . S
C1081 C1079 1.327 . S
C1082 C1070 1.349 . S
C1082 H1076 0.950 . S
C1082 C1083 1.327 . S
C1083 H1077 0.950 . S
C1083 C1082 1.327 . S
C1083 C1087 1.429 . S
C1084 C1067 1.574 . S
C1084 H1078 0.949 . S
C1084 C1088 1.368 . S
C1085 C1066 1.429 . S
C1085 C1079 1.429 . S
C1085 C1086 1.523 . S
C1086 C1067 1.368 . S
C1086 C1080 1.368 . S
C1086 C1085 1.523 . S
C1087 C1071 1.429 . S
C1087 C1083 1.429 . S
C1087 C1088 1.523 . S
C1088 C1072 1.368 . S
C1088 C1084 1.368 . S
C1088 C1087 1.523 . S
H1089 C1064 0.950 . S
H1090 C1066 0.950 . S
H1091 C1067 0.949 . S
H1092 C1069 0.950 . S
H1093 C1071 0.950 . S
C1094 C1095 1.349 . S
C1094 C1096 1.327 . S
C1094 H1119 0.950 . S
C1095 C1094 1.349 . S
C1095 C1111 1.349 . S
C1096 C1094 1.327 . S
C1096 C1115 1.429 . S
C1096 H1120 0.950 . S
C1097 C1114 1.574 . S
C1097 C1116 1.368 . S
C1097 H1121 0.949 . S
H1098 C1102 0.949 . S
C1099 C1100 1.349 . S
C1099 C1101 1.327 . S
C1099 H1122 0.950 . S
C1100 C1099 1.349 . S
C1100 C1112 1.349 . S
C1101 C1099 1.327 . S
C1101 C1117 1.429 . S
C1101 H1123 0.950 . S
C1102 H1098 0.949 . S
C1102 C1110 1.574 . S
C1102 C1118 1.368 . S
H1103 C1111 0.950 . S
H1104 C1109 0.950 . S
H1105 C1110 0.949 . S
H1106 C1112 0.950 . S
H1107 C1113 0.950 . S
H1108 C1114 0.949 . S
C1109 H1104 0.950 . S
C1109 C1111 1.327 . S
C1109 C1115 1.429 . S
C1110 C1102 1.574 . S
C1110 H1105 0.949 . S
C1110 C1116 1.368 . S
C1111 C1095 1.349 . S
C1111 H1103 0.950 . S
C1111 C1109 1.327 . S
C1112 C1100 1.349 . S
C1112 H1106 0.950 . S
C1112 C1113 1.327 . S
C1113 H1107 0.950 . S
C1113 C1112 1.327 . S
C1113 C1117 1.429 . S
C1114 C1097 1.574 . S
C1114 H1108 0.949 . S
C1114 C1118 1.368 . S
C1115 C1096 1.429 . S
C1115 C1109 1.429 . S
C1115 C1116 1.523 . S
C1116 C1097 1.368 . S
C1116 C1110 1.368 . S
C1116 C1115 1.523 . S
C1117 C1101 1.429 . S
C1117 C1113 1.429 . S
C1117 C1118 1.523 . S
C1118 C1102 1.368 . S
C1118 C1114 1.368 . S
C1118 C1117 1.523 . S
H1119 C1094 0.950 . S
H1120 C1096 0.950 . S
H1121 C1097 0.949 . S
H1122 C1099 0.950 . S
H1123 C1101 0.950 . S
C1124 C1125 1.349 . S
C1124 C1126 1.327 . S
C1124 H1149 0.950 . S
C1125 C1124 1.349 . S
C1125 C1141 1.349 . S
C1126 C1124 1.327 . S
C1126 C1145 1.429 . S
C1126 H1150 0.950 . S
C1127 C1144 1.574 . S
C1127 C1146 1.368 . S
C1127 H1151 0.949 . S
H1128 C1132 0.949 . S
C1129 C1130 1.349 . S
C1129 C1131 1.327 . S
C1129 H1152 0.950 . S
C1130 C1129 1.349 . S
C1130 C1142 1.349 . S
C1131 C1129 1.327 . S
C1131 C1147 1.429 . S
C1131 H1153 0.950 . S
C1132 H1128 0.949 . S
C1132 C1140 1.574 . S
C1132 C1148 1.368 . S
H1133 C1141 0.950 . S
H1134 C1139 0.950 . S
H1135 C1140 0.949 . S
H1136 C1142 0.950 . S
H1137 C1143 0.950 . S
H1138 C1144 0.949 . S
C1139 H1134 0.950 . S
C1139 C1141 1.327 . S
C1139 C1145 1.429 . S
C1140 C1132 1.574 . S
C1140 H1135 0.949 . S
C1140 C1146 1.368 . S
C1141 C1125 1.349 . S
C1141 H1133 0.950 . S
C1141 C1139 1.327 . S
C1142 C1130 1.349 . S
C1142 H1136 0.950 . S
C1142 C1143 1.327 . S
C1143 H1137 0.950 . S
C1143 C1142 1.327 . S
C1143 C1147 1.429 . S
C1144 C1127 1.574 . S
C1144 H1138 0.949 . S
C1144 C1148 1.368 . S
C1145 C1126 1.429 . S
C1145 C1139 1.429 . S
C1145 C1146 1.523 . S
C1146 C1127 1.368 . S
C1146 C1140 1.368 . S
C1146 C1145 1.523 . S
C1147 C1131 1.429 . S
C1147 C1143 1.429 . S
C1147 C1148 1.523 . S
C1148 C1132 1.368 . S
C1148 C1144 1.368 . S
C1148 C1147 1.523 . S
H1149 C1124 0.950 . S
H1150 C1126 0.950 . S
H1151 C1127 0.949 . S
H1152 C1129 0.950 . S
H1153 C1131 0.950 . S
C1154 C1155 1.349 . S
C1154 C1156 1.327 . S
C1154 H1179 0.950 . S
C1155 C1154 1.349 . S
C1155 C1171 1.349 . S
C1156 C1154 1.327 . S
C1156 C1175 1.429 . S
C1156 H1180 0.950 . S
C1157 C1174 1.574 . S
C1157 C1176 1.368 . S
C1157 H1181 0.949 . S
H1158 C1162 0.949 . S
C1159 C1160 1.349 . S
C1159 C1161 1.327 . S
C1159 H1182 0.950 . S
C1160 C1159 1.349 . S
C1160 C1172 1.349 . S
C1161 C1159 1.327 . S
C1161 C1177 1.429 . S
C1161 H1183 0.950 . S
C1162 H1158 0.949 . S
C1162 C1170 1.574 . S
C1162 C1178 1.368 . S
H1163 C1171 0.950 . S
H1164 C1169 0.950 . S
H1165 C1170 0.949 . S
H1166 C1172 0.950 . S
H1167 C1173 0.950 . S
H1168 C1174 0.949 . S
C1169 H1164 0.950 . S
C1169 C1171 1.327 . S
C1169 C1175 1.429 . S
C1170 C1162 1.574 . S
C1170 H1165 0.949 . S
C1170 C1176 1.368 . S
C1171 C1155 1.349 . S
C1171 H1163 0.950 . S
C1171 C1169 1.327 . S
C1172 C1160 1.349 . S
C1172 H1166 0.950 . S
C1172 C1173 1.327 . S
C1173 H1167 0.950 . S
C1173 C1172 1.327 . S
C1173 C1177 1.429 . S
C1174 C1157 1.574 . S
C1174 H1168 0.949 . S
C1174 C1178 1.368 . S
C1175 C1156 1.429 . S
C1175 C1169 1.429 . S
C1175 C1176 1.523 . S
C1176 C1157 1.368 . S
C1176 C1170 1.368 . S
C1176 C1175 1.523 . S
C1177 C1161 1.429 . S
C1177 C1173 1.429 . S
C1177 C1178 1.523 . S
C1178 C1162 1.368 . S
C1178 C1174 1.368 . S
C1178 C1177 1.523 . S
H1179 C1154 0.950 . S
H1180 C1156 0.950 . S
H1181 C1157 0.949 . S
H1182 C1159 0.950 . S
H1183 C1161 0.950 . S
C225 C6 1.312 . S
C230 C176 1.322 . S
C255 C23 1.880 . S
C260 C79 1.876 . S
C285 C34 1.312 . S
C290 C204 1.321 . S
C315 C107 1.876 . S
C320 C51 1.880 . S
C345 C205 1.876 . S
C350 C36 1.880 . S
C375 C106 1.322 . S
C380 C49 1.312 . S
C405 C177 1.876 . S
C410 C8 1.880 . S
C435 C78 1.322 . S
C440 C21 1.312 . S
C465 C64 1.322 . S
C470 C118 1.312 . S
C495 C92 1.322 . S
C500 C146 1.312 . S
C525 C148 1.880 . S
C530 C93 1.876 . S
C555 C65 1.876 . S
C560 C120 1.880 . S
C585 C191 1.876 . S
C590 C135 1.880 . S
C615 C163 1.880 . S
C620 C219 1.876 . S
C645 C161 1.312 . S
C650 C218 1.322 . S
C675 C133 1.312 . S
C680 C190 1.322 . S
C705 C160 1.575 . S
C710 C7 1.575 . S
C735 C121 1.399 . S
C740 C22 1.399 1_565 S
C765 C35 1.575 . S
C770 C132 1.575 . S
C795 C149 1.399 . S
C800 C50 1.399 . S
C825 C162 1.399 . S
C830 C37 1.399 . S
C855 C48 1.575 . S
C860 C119 1.575 . S
C885 C134 1.399 . S
C890 C9 1.399 . S
C915 C147 1.575 . S
C920 C20 1.575 . S
C945 C62 1.328 . S
C950 C216 1.328 . S
C975 C175 1.536 . S
C980 C77 1.536 . S
C1005 C90 1.328 . S
C1010 C188 1.328 . S
C1035 C105 1.535 . S
C1040 C203 1.535 . S
C1065 C91 1.535 . S
C1070 C217 1.535 . S
C1095 C174 1.328 . S
C1100 C104 1.328 . S
C1125 C189 1.535 . S
C1130 C63 1.535 . S
C1155 C202 1.328 . S
C1160 C76 1.328 . S
