# Generated by pormake.
# Topology mdf, (4)-cn, num edge types: 1
# Building blocks:
#     Node 0, Type 0, BuildingBlock: UXUYUI_clean_sbu_0, # of connection points: 4
#     Node 1, Type 0, BuildingBlock: UXUYUI_clean_sbu_0, # of connection points: 4
#     Node 2, Type 0, BuildingBlock: UXUYUI_clean_sbu_0, # of connection points: 4
#     Node 3, Type 0, BuildingBlock: UXUYUI_clean_sbu_0, # of connection points: 4
#     Node 4, Type 0, BuildingBlock: UXUYUI_clean_sbu_0, # of connection points: 4
#     Node 5, Type 0, BuildingBlock: UXUYUI_clean_sbu_0, # of connection points: 4
#     Node 6, Type 0, BuildingBlock: UXUYUI_clean_sbu_0, # of connection points: 4
#     Node 7, Type 0, BuildingBlock: UXUYUI_clean_sbu_0, # of connection points: 4
#     Edge 8, Type (0, 0), BuildingBlock: OJICUG_clean_linker_0, # of connection points: 2
#     Edge 9, Type (0, 0), BuildingBlock: OJICUG_clean_linker_0, # of connection points: 2
#     Edge 10, Type (0, 0), BuildingBlock: OJICUG_clean_linker_0, # of connection points: 2
#     Edge 11, Type (0, 0), BuildingBlock: OJICUG_clean_linker_0, # of connection points: 2
#     Edge 12, Type (0, 0), BuildingBlock: OJICUG_clean_linker_0, # of connection points: 2
#     Edge 13, Type (0, 0), BuildingBlock: OJICUG_clean_linker_0, # of connection points: 2
#     Edge 14, Type (0, 0), BuildingBlock: OJICUG_clean_linker_0, # of connection points: 2
#     Edge 15, Type (0, 0), BuildingBlock: OJICUG_clean_linker_0, # of connection points: 2
#     Edge 16, Type (0, 0), BuildingBlock: OJICUG_clean_linker_0, # of connection points: 2
#     Edge 17, Type (0, 0), BuildingBlock: OJICUG_clean_linker_0, # of connection points: 2
#     Edge 18, Type (0, 0), BuildingBlock: OJICUG_clean_linker_0, # of connection points: 2
#     Edge 19, Type (0, 0), BuildingBlock: OJICUG_clean_linker_0, # of connection points: 2
#     Edge 20, Type (0, 0), BuildingBlock: OJICUG_clean_linker_0, # of connection points: 2
#     Edge 21, Type (0, 0), BuildingBlock: OJICUG_clean_linker_0, # of connection points: 2
#     Edge 22, Type (0, 0), BuildingBlock: OJICUG_clean_linker_0, # of connection points: 2
#     Edge 23, Type (0, 0), BuildingBlock: OJICUG_clean_linker_0, # of connection points: 2
# Relax obj value: 0.090
# Max RMSD: 0.078
# Mean RMSD: 0.078
data_MOF--net-mdf--node1-UXUYUI_clean_sbu_0--edge1-OJICUG_clean_linker_0
_symmetry_space_group_name_H-M    P1
_symmetry_Int_Tables_number       1
_symmetry_cell_setting            triclinic
loop_
_symmetry_equiv_pos_as_xyz
'x, y, z'
_cell_length_a     41.15991
_cell_length_b     41.219009
_cell_length_c     18.694467
_cell_angle_alpha  90.000471
_cell_angle_beta   90.039784
_cell_angle_gamma 89.996695
loop_
_atom_site_label
_atom_site_type_symbol
_atom_site_fract_x
_atom_site_fract_y
_atom_site_fract_z
_atom_type_partial_charge
Li0 Li 0.24335 0.5737 0.44146 0.0
Li1 Li 0.22924 0.53182 0.35253 0.0
Li2 Li 0.28276 0.53307 0.40213 0.0
Li3 Li 0.26771 0.57345 0.31378 0.0
C4 C 0.23957 0.50973 0.51561 0.0
N5 N 0.23472 0.47614 0.64314 0.0
C6 C 0.2267 0.47834 0.51666 0.0
C7 C 0.24958 0.52417 0.57963 0.0
C8 C 0.22459 0.46172 0.58161 0.0
C9 C 0.24703 0.50676 0.64348 0.0
C10 C 0.19141 0.57901 0.31563 0.0
C11 C 0.15692 0.57006 0.21321 0.0
N12 N 0.13035 0.57275 0.25597 0.0
C13 C 0.16375 0.58216 0.35837 0.0
C14 C 0.18802 0.57322 0.24235 0.0
C15 C 0.13308 0.57879 0.32723 0.0
C16 C 0.2404 0.62591 0.54383 0.0
N17 N 0.22611 0.59833 0.51921 0.0
C18 C 0.18544 0.6013 0.61015 0.0
C19 C 0.19902 0.58605 0.5507 0.0
C20 C 0.19974 0.62964 0.6376 0.0
C21 C 0.22742 0.64216 0.60318 0.0
H22 H 0.26205 0.63505 0.51797 0.0
H23 H 0.18821 0.56403 0.53005 0.0
C24 C 0.19331 0.48949 0.25964 0.0
N25 N 0.19376 0.50453 0.32433 0.0
C26 C 0.16817 0.46815 0.24217 0.0
C27 C 0.14329 0.47976 0.35629 0.0
C28 C 0.1693 0.50029 0.37219 0.0
C29 C 0.14267 0.46277 0.29095 0.0
H30 H 0.21268 0.49369 0.2218 0.0
H31 H 0.17008 0.51286 0.42296 0.0
C32 C 0.32027 0.58066 0.43449 0.0
N33 N 0.38288 0.5751 0.48601 0.0
C34 C 0.3464 0.57876 0.38697 0.0
C35 C 0.32598 0.58028 0.50816 0.0
C36 C 0.37789 0.57588 0.41412 0.0
C37 C 0.35783 0.57736 0.53317 0.0
C38 C 0.27481 0.49489 0.27807 0.0
C39 C 0.26809 0.46923 0.32461 0.0
C40 C 0.28594 0.48833 0.20896 0.0
C41 C 0.27252 0.43737 0.30116 0.0
C42 C 0.29004 0.45613 0.18747 0.0
N43 N 0.2833 0.43153 0.23363 0.0
C44 C 0.32367 0.49559 0.49849 0.0
C45 C 0.34069 0.49796 0.37774 0.0
C46 C 0.34918 0.4745 0.51517 0.0
N47 N 0.31941 0.50632 0.43031 0.0
C48 C 0.36634 0.47673 0.39184 0.0
C49 C 0.37055 0.4643 0.46112 0.0
H50 H 0.30727 0.50307 0.54008 0.0
H51 H 0.33758 0.50754 0.32437 0.0
C52 C 0.30022 0.62643 0.24679 0.0
N53 N 0.28298 0.59878 0.23536 0.0
C54 C 0.31353 0.64347 0.18906 0.0
C55 C 0.29037 0.60369 0.10897 0.0
C56 C 0.27776 0.58732 0.16818 0.0
C57 C 0.30898 0.63198 0.11884 0.0
H58 H 0.30431 0.6348 0.3009 0.0
H59 H 0.2642 0.5651 0.16066 0.0
O60 O 0.24097 0.52668 0.4527 0.0
O61 O 0.22166 0.5804 0.34574 0.0
O62 O 0.28919 0.58167 0.40894 0.0
O63 O 0.27075 0.52634 0.29977 0.0
H64 H 0.21825 0.46696 0.46793 0.0
H65 H 0.25955 0.54841 0.58 0.0
H66 H 0.21476 0.43739 0.58314 0.0
H67 H 0.25487 0.51758 0.6933 0.0
H68 H 0.15392 0.56523 0.15671 0.0
H69 H 0.16593 0.58671 0.4151 0.0
H70 H 0.20917 0.57054 0.20863 0.0
H71 H 0.11146 0.58083 0.35979 0.0
H72 H 0.16383 0.59105 0.63423 0.0
H73 H 0.23932 0.66383 0.62287 0.0
H74 H 0.16928 0.45549 0.19153 0.0
H75 H 0.12394 0.47731 0.39506 0.0
H76 H 0.34232 0.5788 0.32977 0.0
H77 H 0.306 0.58183 0.54557 0.0
H78 H 0.39835 0.57404 0.37804 0.0
H79 H 0.36263 0.57674 0.59005 0.0
H80 H 0.25975 0.47387 0.37833 0.0
H81 H 0.29136 0.50794 0.17234 0.0
H82 H 0.26742 0.41729 0.33669 0.0
H83 H 0.29862 0.45069 0.13411 0.0
H84 H 0.35154 0.46553 0.56937 0.0
H85 H 0.38266 0.47004 0.34888 0.0
H86 H 0.32806 0.66484 0.19962 0.0
H87 H 0.28571 0.59411 0.05603 0.0
Li88 Li 0.43208 0.7437 0.69259 0.0
Li89 Li 0.47337 0.73158 0.60077 0.0
Li90 Li 0.47375 0.78311 0.65904 0.0
Li91 Li 0.4323 0.7723 0.56909 0.0
C92 C 0.49735 0.7339 0.76197 0.0
N93 N 0.5342 0.72147 0.88257 0.0
C94 C 0.52838 0.72042 0.75545 0.0
C95 C 0.48497 0.7408 0.82994 0.0
C96 C 0.54666 0.71441 0.81703 0.0
C97 C 0.504 0.7344 0.89021 0.0
C98 C 0.42463 0.69743 0.5552 0.0
C99 C 0.43048 0.66919 0.44305 0.0
N100 N 0.42771 0.6404 0.4781 0.0
C101 C 0.42146 0.66762 0.59003 0.0
C102 C 0.42901 0.69832 0.48111 0.0
C103 C 0.42328 0.63904 0.55015 0.0
C104 C 0.38045 0.73976 0.79528 0.0
N105 N 0.40705 0.7248 0.76755 0.0
C106 C 0.40124 0.68073 0.84964 0.0
C107 C 0.41757 0.69583 0.79337 0.0
C108 C 0.37356 0.69541 0.87961 0.0
C109 C 0.36321 0.72539 0.85157 0.0
H110 H 0.37268 0.76287 0.77378 0.0
H111 H 0.439 0.68466 0.77071 0.0
C112 C 0.51673 0.69828 0.50512 0.0
N113 N 0.49982 0.69655 0.5674 0.0
C114 C 0.53826 0.67351 0.48622 0.0
C115 C 0.52282 0.64461 0.59334 0.0
C116 C 0.50216 0.67024 0.61088 0.0
C117 C 0.54191 0.64627 0.53101 0.0
H118 H 0.51414 0.71919 0.47079 0.0
H119 H 0.48822 0.66941 0.65989 0.0
C120 C 0.42656 0.82008 0.70139 0.0
N121 N 0.4326 0.87953 0.76806 0.0
C122 C 0.42395 0.84866 0.66162 0.0
C123 C 0.43151 0.82171 0.77525 0.0
C124 C 0.42728 0.87849 0.69627 0.0
C125 C 0.4346 0.85202 0.80795 0.0
C126 C 0.51052 0.7802 0.53227 0.0
C127 C 0.53697 0.77202 0.57555 0.0
C128 C 0.5159 0.79431 0.46537 0.0
C129 C 0.56844 0.77805 0.5511 0.0
C130 C 0.54775 0.79994 0.44276 0.0
N131 N 0.57315 0.79176 0.48574 0.0
C132 C 0.52071 0.81518 0.7508 0.0
C133 C 0.50369 0.84423 0.6483 0.0
C134 C 0.54264 0.83974 0.7685 0.0
N135 N 0.50193 0.81764 0.6912 0.0
C136 C 0.52484 0.86968 0.66471 0.0
C137 C 0.54511 0.86754 0.72514 0.0
H138 H 0.51937 0.79395 0.78408 0.0
H139 H 0.48881 0.84552 0.60067 0.0
C140 C 0.37827 0.77756 0.47307 0.0
N141 N 0.40713 0.79063 0.49367 0.0
C142 C 0.3607 0.79135 0.41652 0.0
C143 C 0.40297 0.83161 0.40366 0.0
C144 C 0.41964 0.8171 0.46031 0.0
C145 C 0.373 0.81884 0.38095 0.0
H146 H 0.36893 0.75641 0.50049 0.0
H147 H 0.44272 0.82688 0.47771 0.0
O148 O 0.47897 0.73966 0.70225 0.0
O149 O 0.42454 0.7256 0.5937 0.0
O150 O 0.42519 0.79065 0.66788 0.0
O151 O 0.47944 0.77473 0.55521 0.0
H152 H 0.5383 0.7146 0.70345 0.0
H153 H 0.461 0.75108 0.83618 0.0
H154 H 0.57073 0.70406 0.81272 0.0
H155 H 0.49475 0.73971 0.94308 0.0
H156 H 0.43404 0.66945 0.38573 0.0
H157 H 0.41817 0.66656 0.64737 0.0
H158 H 0.43169 0.72126 0.45351 0.0
H159 H 0.42136 0.61579 0.57659 0.0
H160 H 0.4106 0.65801 0.87017 0.0
H161 H 0.34186 0.73749 0.87233 0.0
H162 H 0.55254 0.67629 0.43803 0.0
H163 H 0.52393 0.62388 0.62877 0.0
H164 H 0.42004 0.84778 0.60443 0.0
H165 H 0.43331 0.7998 0.80679 0.0
H166 H 0.42577 0.90082 0.66604 0.0
H167 H 0.43874 0.85367 0.86498 0.0
H168 H 0.53321 0.76131 0.62756 0.0
H169 H 0.49567 0.80077 0.43118 0.0
H170 H 0.58913 0.77187 0.58413 0.0
H171 H 0.55229 0.8108 0.39105 0.0
H172 H 0.55809 0.83641 0.81479 0.0
H173 H 0.52526 0.89071 0.63008 0.0
H174 H 0.33758 0.78083 0.40146 0.0
H175 H 0.41374 0.85238 0.37729 0.0
Li176 Li 0.27521 0.97326 0.85034 0.0
Li177 Li 0.26182 0.93444 0.94405 0.0
Li178 Li 0.23541 0.93186 0.81844 0.0
Li179 Li 0.22272 0.97547 0.90407 0.0
C180 C 0.31268 0.9248 0.82125 0.0
N181 N 0.37498 0.92843 0.7674 0.0
C182 C 0.33929 0.92473 0.8677 0.0
C183 C 0.31773 0.9261 0.74741 0.0
C184 C 0.37062 0.92667 0.8394 0.0
C185 C 0.34944 0.92804 0.72122 0.0
C186 C 0.27095 0.01344 0.97053 0.0
C187 C 0.29256 0.05326 0.05219 0.0
N188 N 0.28359 0.07724 0.00626 0.0
C189 C 0.26202 0.03846 0.92407 0.0
C190 C 0.28643 0.02084 0.03504 0.0
C191 C 0.26859 0.07056 0.94311 0.0
C192 C 0.31143 0.01505 0.75345 0.0
N193 N 0.31104 1.00001 0.81819 0.0
C194 C 0.3611 0.02577 0.85058 0.0
C195 C 0.33545 0.00476 0.86619 0.0
C196 C 0.36166 0.0424 0.78497 0.0
C197 C 0.3365 0.03645 0.73577 0.0
H198 H 0.29209 0.01115 0.71576 0.0
H199 H 0.33474 0.99254 0.91735 0.0
C200 C 0.29329 0.88154 0.01429 0.0
N201 N 0.27832 0.91063 0.02377 0.0
C202 C 0.30735 0.86542 0.07252 0.0
C203 C 0.28962 0.90914 0.14923 0.0
C204 C 0.2761 0.92446 0.08957 0.0
C205 C 0.30594 0.87937 0.14119 0.0
H206 H 0.29496 0.87123 0.9612 0.0
H207 H 0.26414 0.94767 0.09555 0.0
C208 C 0.22958 0.99379 0.73801 0.0
N209 N 0.22234 0.02424 0.60724 0.0
C210 C 0.21628 0.02495 0.7343 0.0
C211 C 0.23892 0.97801 0.67507 0.0
C212 C 0.21292 0.03997 0.66772 0.0
C213 C 0.23513 0.99383 0.60953 0.0
C214 C 0.18596 0.92956 0.95048 0.0
C215 C 0.15704 0.92678 0.91177 0.0
C216 C 0.18485 0.93644 0.02364 0.0
C217 C 0.12745 0.93173 0.94663 0.0
C218 C 0.15476 0.94103 0.05665 0.0
N219 N 0.12694 0.93876 0.01771 0.0
C220 C 0.23277 0.87858 0.7193 0.0
C221 C 0.18863 0.91547 0.71635 0.0
C222 C 0.21911 0.86059 0.66321 0.0
N223 N 0.21735 0.90542 0.74455 0.0
C224 C 0.17411 0.89823 0.66063 0.0
C225 C 0.1893 0.87034 0.63321 0.0
H226 H 0.25574 0.87127 0.74239 0.0
H227 H 0.17723 0.93726 0.73655 0.0
C228 C 0.18898 0.02001 0.9955 0.0
N229 N 0.18796 0.00354 0.93257 0.0
C230 C 0.16428 0.0418 0.01322 0.0
C231 C 0.13695 0.02788 0.90304 0.0
C232 C 0.16256 0.00692 0.88673 0.0
C233 C 0.13774 0.04619 0.96658 0.0
H234 H 0.20921 0.0166 0.03161 0.0
H235 H 0.16223 0.99327 0.8373 0.0
O236 O 0.28181 0.92458 0.84808 0.0
O237 O 0.26516 0.98176 0.95268 0.0
O238 O 0.23255 0.97855 0.80273 0.0
O239 O 0.21523 0.92703 0.91639 0.0
H240 H 0.33576 0.92392 0.92502 0.0
H241 H 0.29739 0.92594 0.7108 0.0
H242 H 0.39147 0.92701 0.87466 0.0
H243 H 0.35376 0.92935 0.66422 0.0
H244 H 0.30451 0.05935 0.10197 0.0
H245 H 0.2503 0.03315 0.87375 0.0
H246 H 0.29371 1.00173 0.07137 0.0
H247 H 0.26181 0.09015 0.90762 0.0
H248 H 0.38019 0.02903 0.88979 0.0
H249 H 0.33555 0.04893 0.68486 0.0
H250 H 0.32 0.84277 0.06337 0.0
H251 H 0.2874 0.92063 0.20108 0.0
H252 H 0.20855 0.03742 0.78229 0.0
H253 H 0.24922 0.95392 0.67674 0.0
H254 H 0.20274 0.06411 0.66412 0.0
H255 H 0.24238 0.98195 0.56048 0.0
H256 H 0.15744 0.92144 0.8552 0.0
H257 H 0.20701 0.93886 0.05426 0.0
H258 H 0.10489 0.93007 0.91713 0.0
H259 H 0.15354 0.94667 0.1131 0.0
H260 H 0.23159 0.83917 0.64401 0.0
H261 H 0.15149 0.90707 0.63831 0.0
H262 H 0.1665 0.05554 0.0623 0.0
H263 H 0.1168 0.02959 0.86603 0.0
Li264 Li 0.03426 0.77517 0.09898 0.0
Li265 Li 0.07351 0.76269 0.19294 0.0
Li266 Li 0.07594 0.73557 0.06815 0.0
Li267 Li 0.03258 0.72298 0.15464 0.0
C268 C 0.08382 0.81244 0.06718 0.0
N269 N 0.08313 0.87406 0.00934 0.0
C270 C 0.08879 0.83945 0.11101 0.0
C271 C 0.0792 0.81671 0.99373 0.0
C272 C 0.08821 0.87043 0.08078 0.0
C273 C 0.07879 0.84808 0.96553 0.0
C274 C 0.99443 0.77148 0.22005 0.0
C275 C 0.9548 0.7922 0.30329 0.0
N276 N 0.93065 0.78376 0.2572 0.0
C277 C 0.96923 0.76303 0.17353 0.0
C278 C 0.98721 0.78621 0.28545 0.0
C279 C 0.93714 0.76943 0.19325 0.0
C280 C 0.98812 0.80866 0.00735 0.0
N281 N 0.00743 0.81062 0.06623 0.0
C282 C 0.9867 0.86355 0.09269 0.0
C283 C 0.00699 0.83738 0.10876 0.0
C284 C 0.9659 0.86199 0.03304 0.0
C285 C 0.96704 0.83403 0.98993 0.0
H286 H 0.98825 0.78719 0.97464 0.0
H287 H 0.0221 0.83818 0.15607 0.0
C288 C 0.12535 0.76667 0.29546 0.0
N289 N 0.09703 0.77998 0.27209 0.0
C290 C 0.14141 0.77977 0.35495 0.0
C291 C 0.09885 0.81992 0.36468 0.0
C292 C 0.0837 0.8061 0.30522 0.0
C293 C 0.12805 0.8067 0.39069 0.0
H294 H 0.13532 0.74575 0.26828 0.0
H295 H 0.06125 0.81629 0.28515 0.0
C296 C 0.01307 0.72791 0.98977 0.0
N297 N 0.98058 0.71855 0.86199 0.0
C298 C 0.98205 0.71409 0.98934 0.0
C299 C 0.02766 0.73671 0.9251 0.0
C300 C 0.96599 0.70965 0.92422 0.0
C301 C 0.01081 0.73184 0.8611 0.0
C302 C 0.07936 0.68797 0.20494 0.0
C303 C 0.08196 0.65808 0.1702 0.0
C304 C 0.07349 0.68897 0.27852 0.0
C305 C 0.07801 0.62956 0.20957 0.0
C306 C 0.06992 0.65989 0.3161 0.0
N307 N 0.0721 0.63105 0.28108 0.0
C308 C 0.12845 0.73358 0.96738 0.0
C309 C 0.0929 0.68836 0.96787 0.0
C310 C 0.14633 0.72009 0.911 0.0
N311 N 0.10232 0.71756 0.99442 0.0
C312 C 0.10998 0.67405 0.91166 0.0
C313 C 0.13715 0.68987 0.8823 0.0
H314 H 0.13525 0.75692 0.98924 0.0
H315 H 0.07169 0.67645 0.98966 0.0
C316 C 0.98795 0.68937 0.24668 0.0
N317 N 0.00495 0.68807 0.18445 0.0
C318 C 0.96628 0.66455 0.26453 0.0
C319 C 0.98149 0.63658 0.15608 0.0
C320 C 1.00234 0.66223 0.13968 0.0
C321 C 0.96252 0.63769 0.21867 0.0
H322 H 0.99075 0.70993 0.28201 0.0
H323 H 0.0164 0.66168 0.09082 0.0
O324 O 0.08297 0.78203 0.09626 0.0
O325 O 0.02608 0.76574 0.20162 0.0
O326 O 0.02922 0.7322 0.05309 0.0
O327 O 0.08118 0.71614 0.16669 0.0
H328 H 0.09261 0.83657 0.16787 0.0
H329 H 0.07565 0.79606 0.95901 0.0
H330 H 0.09167 0.89159 0.11415 0.0
H331 H 0.07493 0.8518 0.90888 0.0
H332 H 0.94885 0.80356 0.35377 0.0
H333 H 0.97438 0.75179 0.12264 0.0
H334 H 0.00644 0.79289 0.32211 0.0
H335 H 0.91741 0.76305 0.15768 0.0
H336 H 0.98723 0.88465 0.12712 0.0
H337 H 0.9511 0.83117 0.94429 0.0
H338 H 0.1637 0.76861 0.37345 0.0
H339 H 0.08792 0.84099 0.38954 0.0
H340 H 0.97043 0.70687 0.03874 0.0
H341 H 0.05169 0.74719 0.92418 0.0
H342 H 0.94194 0.69907 0.92315 0.0
H343 H 0.0218 0.73862 0.81071 0.0
H344 H 0.08638 0.65693 0.11323 0.0
H345 H 0.07117 0.71196 0.30603 0.0
H346 H 0.07945 0.60626 0.18317 0.0
H347 H 0.06514 0.66025 0.37299 0.0
H348 H 0.16721 0.73307 0.89048 0.0
H349 H 0.10151 0.6511 0.89049 0.0
H350 H 0.95207 0.66694 0.31291 0.0
H351 H 0.98025 0.61617 0.11976 0.0
Li352 Li 0.74402 0.0735 0.9479 0.0
Li353 Li 0.7307 0.03222 0.85695 0.0
Li354 Li 0.78304 0.03197 0.91162 0.0
Li355 Li 0.77089 0.07336 0.82259 0.0
C356 C 0.73562 0.00784 0.01722 0.0
N357 N 0.72532 0.97013 0.13735 0.0
C358 C 0.7231 0.97646 0.01043 0.0
C359 C 0.74258 0.02014 0.08525 0.0
C360 C 0.71818 0.95774 0.07177 0.0
C361 C 0.73728 1.00067 0.14527 0.0
C362 C 0.696 0.07992 0.81252 0.0
C363 C 0.66726 0.07154 0.70168 0.0
N364 N 0.6386 0.07318 0.73764 0.0
C365 C 0.66628 0.08208 0.84821 0.0
C366 C 0.69659 0.07488 0.73861 0.0
C367 C 0.63751 0.07839 0.80945 0.0
C368 C 0.74186 0.12398 0.054 0.0
N369 N 0.7261 0.09822 0.02459 0.0
C370 C 0.68292 0.10327 0.10924 0.0
C371 C 0.69709 0.08786 0.0506 0.0
C372 C 0.69869 0.12972 0.14162 0.0
C373 C 0.72843 0.14028 0.11276 0.0
H374 H 0.76505 0.13156 0.03251 0.0
H375 H 0.68521 0.06719 0.02635 0.0
C376 C 0.69577 0.98969 0.76191 0.0
N377 N 0.69526 0.00558 0.82561 0.0
C378 C 0.67051 0.96864 0.7434 0.0
C379 C 0.64371 0.98226 0.8543 0.0
C380 C 0.66979 1.00249 0.87128 0.0
C381 C 0.64404 0.96436 0.79017 0.0
H382 H 0.716 0.99291 0.72584 0.0
H383 H 0.66986 0.01566 0.92133 0.0
C384 C 0.8205 0.07841 0.95193 0.0
N385 N 0.88058 0.06991 0.01481 0.0
C386 C 0.84869 0.08027 0.91054 0.0
C387 C 0.82287 0.07302 0.02553 0.0
C388 C 0.87885 0.07574 0.9433 0.0
C389 C 0.85349 0.06866 0.05631 0.0
C390 C 0.77799 0.99553 0.78355 0.0
C391 C 0.77147 0.96876 0.82704 0.0
C392 C 0.78964 0.99075 0.71415 0.0
C393 C 0.77666 0.93755 0.80032 0.0
C394 C 0.79448 0.95915 0.68932 0.0
N395 N 0.78795 0.93342 0.73256 0.0
C396 C 0.8175 0.98675 1.00364 0.0
C397 C 0.8434 1.00088 0.89511 0.0
C398 C 0.84245 0.96505 0.02021 0.0
N399 N 0.81816 0.0039 0.94155 0.0
C400 C 0.86915 0.97986 0.91005 0.0
C401 C 0.86876 0.96114 0.97295 0.0
H402 H 0.79746 0.98933 0.04008 0.0
H403 H 0.84341 0.01472 0.84595 0.0
C404 C 0.77462 0.12689 0.72477 0.0
N405 N 0.78809 0.09826 0.74551 0.0
C406 C 0.78718 0.14372 0.66582 0.0
C407 C 0.82717 0.10129 0.65124 0.0
C408 C 0.81395 0.08541 0.71041 0.0
C409 C 0.81367 0.13077 0.62778 0.0
H410 H 0.75389 0.13643 0.75343 0.0
H411 H 0.82421 0.06264 0.72827 0.0
O412 O 0.74022 0.02668 0.95779 0.0
O413 O 0.72442 0.08107 0.85018 0.0
O414 O 0.79068 0.08054 0.92013 0.0
O415 O 0.77316 0.02635 0.8085 0.0
H416 H 0.71712 0.96662 0.95842 0.0
H417 H 0.75215 0.04437 0.09172 0.0
H418 H 0.70859 0.93339 0.06723 0.0
H419 H 0.74269 0.00985 0.19817 0.0
H420 H 0.6673 0.06733 0.64456 0.0
H421 H 0.66545 0.08585 0.90543 0.0
H422 H 0.71946 0.0729 0.71039 0.0
H423 H 0.61433 0.07943 0.83657 0.0
H424 H 0.65976 0.09457 0.12894 0.0
H425 H 0.74153 0.1604 0.13637 0.0
H426 H 0.67229 0.95526 0.69376 0.0
H427 H 0.62361 0.98064 0.8914 0.0
H428 H 0.84723 0.08445 0.85349 0.0
H429 H 0.80127 0.07168 0.05828 0.0
H430 H 0.90087 0.07663 0.91182 0.0
H431 H 0.8557 0.06407 0.11307 0.0
H432 H 0.76269 0.97206 0.88092 0.0
H433 H 0.79475 0.01124 0.67975 0.0
H434 H 0.77175 0.91661 0.83348 0.0
H435 H 0.80343 0.95507 0.63567 0.0
H436 H 0.84058 0.95089 0.06878 0.0
H437 H 0.88906 0.97833 0.87243 0.0
H438 H 0.77585 0.16621 0.64929 0.0
H439 H 0.84789 0.09065 0.62438 0.0
Li440 Li 0.9303 0.24229 0.19363 0.0
Li441 Li 0.97168 0.22976 0.10238 0.0
Li442 Li 0.97222 0.28133 0.16047 0.0
Li443 Li 0.93088 0.27077 0.06998 0.0
C444 C 0.99474 0.23213 0.26459 0.0
N445 N 0.03008 0.21967 0.38735 0.0
C446 C 0.02553 0.21795 0.26002 0.0
C447 C 0.98184 0.23973 0.33171 0.0
C448 C 0.04304 0.21192 0.32266 0.0
C449 C 1.0001 0.2333 0.3931 0.0
C450 C 0.92327 0.19622 0.05515 0.0
C451 C 0.93034 0.16884 0.9423 0.0
N452 N 0.92801 0.13978 0.97639 0.0
C453 C 0.92044 0.16613 0.08891 0.0
C454 C 0.92807 0.19768 0.98122 0.0
C455 C 0.92316 0.13787 0.04824 0.0
C456 C 0.8799 0.2393 0.29992 0.0
N457 N 0.90525 0.22352 0.26887 0.0
C458 C 0.89897 0.17874 0.34891 0.0
C459 C 0.91494 0.19383 0.29212 0.0
C460 C 0.87264 0.19429 0.38237 0.0
C461 C 0.86314 0.22504 0.35708 0.0
H462 H 0.87286 0.26303 0.28065 0.0
H463 H 0.93554 0.1821 0.2672 0.0
C464 C 0.01502 0.19623 0.00697 0.0
N465 N 0.99809 0.19457 0.06924 0.0
C466 C 0.03634 0.17132 0.98787 0.0
C467 C 0.02067 0.14239 0.09477 0.0
C468 C 1.00027 0.1682 0.11259 0.0
C469 C 0.03974 0.14394 0.03238 0.0
H470 H 0.01257 0.21721 0.97275 0.0
H471 H 0.98634 0.16741 0.16161 0.0
C472 C 0.92548 0.31917 0.20019 0.0
N473 N 0.93338 0.37946 0.26214 0.0
C474 C 0.92259 0.34721 0.15869 0.0
C475 C 0.93149 0.32179 0.27353 0.0
C476 C 0.92692 0.37747 0.19091 0.0
C477 C 0.93552 0.35251 0.30383 0.0
C478 C 0.00934 0.27829 0.0349 0.0
C479 C 0.03551 0.2692 0.07813 0.0
C480 C 0.01517 0.29341 0.96926 0.0
C481 C 0.06715 0.27532 0.05488 0.0
C482 C 0.04718 0.2991 0.94784 0.0
N483 N 0.07229 0.29001 0.99074 0.0
C484 C 0.01992 0.31288 0.2515 0.0
C485 C 1.00228 0.34239 0.15017 0.0
C486 C 0.04188 0.33743 0.26924 0.0
N487 N 1.00076 0.31562 0.19256 0.0
C488 C 0.02336 0.36786 0.16678 0.0
C489 C 0.04397 0.36551 0.22664 0.0
H490 H 0.01886 0.29145 0.28423 0.0
H491 H 0.98722 0.34385 0.10286 0.0
C492 C 0.87775 0.27575 0.97095 0.0
N493 N 0.90617 0.28912 0.99359 0.0
C494 C 0.86094 0.28927 0.91296 0.0
C495 C 0.90287 0.33006 0.90328 0.0
C496 C 0.91883 0.31577 0.96119 0.0
C497 C 0.87359 0.31673 0.87791 0.0
H498 H 0.86836 0.25438 0.99739 0.0
H499 H 0.94145 0.3259 0.98041 0.0
O500 O 0.97714 0.23792 0.20378 0.0
O501 O 0.92278 0.22409 0.09464 0.0
O502 O 0.92362 0.28931 0.16869 0.0
O503 O 0.97811 0.27281 0.05679 0.0
H504 H 0.03586 0.21163 0.20867 0.0
H505 H 0.95804 0.25054 0.33648 0.0
H506 H 0.06692 0.20104 0.31985 0.0
H507 H 0.99043 0.23913 0.44533 0.0
H508 H 0.93426 0.16954 0.88511 0.0
H509 H 0.91686 0.16461 0.1461 0.0
H510 H 0.93056 0.22084 0.95445 0.0
H511 H 0.92173 0.11443 0.074 0.0
H512 H 0.90765 0.15538 0.36731 0.0
H513 H 0.84287 0.23784 0.38082 0.0
H514 H 0.05063 0.17408 0.9397 0.0
H515 H 0.02155 0.12159 0.13002 0.0
H516 H 0.9178 0.34561 0.10194 0.0
H517 H 0.9335 0.30034 0.30646 0.0
H518 H 0.92532 0.39937 0.15921 0.0
H519 H 0.94056 0.35491 0.36038 0.0
H520 H 0.03141 0.25768 0.12919 0.0
H521 H 0.99517 0.30061 0.93516 0.0
H522 H 0.08762 0.26843 0.08788 0.0
H523 H 0.05206 0.31074 0.89712 0.0
H524 H 0.05762 0.33387 0.31496 0.0
H525 H 0.02344 0.38908 0.1327 0.0
H526 H 0.83866 0.27796 0.89491 0.0
H527 H 0.91331 0.3515 0.87897 0.0
Li528 Li 0.77591 0.47334 0.34854 0.0
Li529 Li 0.76283 0.43512 0.44399 0.0
Li530 Li 0.73501 0.43228 0.31957 0.0
Li531 Li 0.72403 0.47672 0.4043 0.0
C532 C 0.81126 0.4236 0.31453 0.0
N533 N 0.8714 0.42535 0.24948 0.0
C534 C 0.83948 0.42061 0.35554 0.0
C535 C 0.81357 0.42665 0.24028 0.0
C536 C 0.86968 0.42176 0.3217 0.0
C537 C 0.84423 0.42762 0.20839 0.0
C538 C 0.77409 0.51354 0.47002 0.0
C539 C 0.79653 0.55179 0.5542 0.0
N540 N 0.78927 0.57645 0.50853 0.0
C541 C 0.76687 0.53923 0.42394 0.0
C542 C 0.78907 0.51981 0.53566 0.0
C543 C 0.77473 0.57087 0.44434 0.0
C544 C 0.81071 0.51725 0.25388 0.0
N545 N 0.81194 0.49932 0.31487 0.0
C546 C 0.86441 0.52106 0.34275 0.0
C547 C 0.83818 0.50086 0.35899 0.0
C548 C 0.86347 0.54063 0.28113 0.0
C549 C 0.83612 0.53823 0.2362 0.0
H550 H 0.78976 0.51613 0.21958 0.0
H551 H 0.83849 0.48672 0.40773 0.0
C552 C 0.76601 0.38447 0.54953 0.0
N553 N 0.78039 0.41163 0.52301 0.0
C554 C 0.78008 0.36782 0.60715 0.0
C555 C 0.82324 0.40756 0.60895 0.0
C556 C 0.80831 0.42344 0.55176 0.0
C557 C 0.80927 0.37922 0.6373 0.0
H558 H 0.74373 0.37565 0.52573 0.0
H559 H 0.8191 0.4452 0.52982 0.0
C560 C 0.7291 0.49572 0.24002 0.0
N561 N 0.72063 0.52957 0.11372 0.0
C562 C 0.71726 0.52752 0.24119 0.0
C563 C 0.73629 0.48105 0.17447 0.0
C564 C 0.71326 0.54426 0.17681 0.0
C565 C 0.73193 0.49859 0.11126 0.0
C566 C 0.68732 0.43213 0.4553 0.0
C567 C 0.65763 0.4299 0.41932 0.0
C568 C 0.68786 0.43998 0.528 0.0
C569 C 0.6289 0.43628 0.45651 0.0
C570 C 0.6586 0.44614 0.5633 0.0
N571 N 0.62998 0.44426 0.52708 0.0
C572 C 0.7297 0.3772 0.22629 0.0
C573 C 0.68825 0.41682 0.21655 0.0
C574 C 0.7155 0.35887 0.17141 0.0
N575 N 0.71593 0.4056 0.24745 0.0
C576 C 0.67347 0.39953 0.16121 0.0
C577 C 0.68699 0.37004 0.1377 0.0
H578 H 0.75178 0.36886 0.2518 0.0
H579 H 0.67796 0.43961 0.23417 0.0
C580 C 0.69182 0.52309 0.4944 0.0
N581 N 0.69005 0.50567 0.43281 0.0
C582 C 0.66733 0.54518 0.51186 0.0
C583 C 0.63886 0.52979 0.40403 0.0
C584 C 0.66421 0.50852 0.38798 0.0
C585 C 0.64032 0.54894 0.46628 0.0
H586 H 0.71239 0.52012 0.52974 0.0
H587 H 0.66332 0.49416 0.33957 0.0
O588 O 0.78156 0.42448 0.34709 0.0
O589 O 0.76695 0.48231 0.45087 0.0
O590 O 0.73292 0.47887 0.30257 0.0
O591 O 0.71581 0.42837 0.41878 0.0
H592 H 0.83811 0.41806 0.413 0.0
H593 H 0.79195 0.42861 0.20776 0.0
H594 H 0.89176 0.41999 0.35289 0.0
H595 H 0.84643 0.43031 0.15104 0.0
H596 H 0.8081 0.55701 0.60488 0.0
H597 H 0.75553 0.53475 0.37282 0.0
H598 H 0.79484 0.50017 0.57194 0.0
H599 H 0.76932 0.59097 0.40909 0.0
H600 H 0.88506 0.52144 0.37862 0.0
H601 H 0.83373 0.55314 0.18884 0.0
H602 H 0.76857 0.34598 0.62697 0.0
H603 H 0.84539 0.41757 0.63114 0.0
H604 H 0.71116 0.5392 0.29122 0.0
H605 H 0.74519 0.45643 0.17229 0.0
H606 H 0.70423 0.5689 0.17699 0.0
H607 H 0.73751 0.48755 0.06022 0.0
H608 H 0.65685 0.42395 0.36297 0.0
H609 H 0.71071 0.44201 0.55639 0.0
H610 H 0.60575 0.43498 0.42923 0.0
H611 H 0.65864 0.45259 0.61938 0.0
H612 H 0.72667 0.33616 0.15595 0.0
H613 H 0.652 0.40964 0.13623 0.0
H614 H 0.67001 0.55957 0.55991 0.0
H615 H 0.61833 0.53106 0.36794 0.0
Li616 Li 0.53334 0.27986 0.60104 0.0
Li617 Li 0.572 0.26303 0.69508 0.0
Li618 Li 0.57415 0.23738 0.57086 0.0
Li619 Li 0.53119 0.22395 0.65652 0.0
C620 C 0.59481 0.30914 0.56467 0.0
N621 N 0.62327 0.36035 0.49278 0.0
C622 C 0.60863 0.33484 0.60278 0.0
C623 C 0.59576 0.30937 0.48992 0.0
C624 C 0.62284 0.36052 0.5655 0.0
C625 C 0.61011 0.33555 0.45455 0.0
C626 C 0.51647 0.28157 0.76473 0.0
C627 C 0.51338 0.28045 0.89357 0.0
N628 N 0.50289 0.31174 0.89334 0.0
C629 C 0.50532 0.31361 0.76574 0.0
C630 C 0.52021 0.26474 0.82911 0.0
C631 C 0.49871 0.32847 0.8313 0.0
C632 C 0.47769 0.30773 0.53972 0.0
N633 N 0.50742 0.31507 0.56693 0.0
C634 C 0.49671 0.37186 0.55466 0.0
C635 C 0.51728 0.34638 0.57451 0.0
C636 C 0.46581 0.36498 0.52649 0.0
C637 C 0.45652 0.33238 0.51851 0.0
H638 H 0.47015 0.28266 0.53579 0.0
H639 H 0.5407 0.35164 0.59788 0.0
C640 C 0.61804 0.26187 0.81124 0.0
N641 N 0.59597 0.28011 0.77484 0.0
C642 C 0.63401 0.27468 0.87119 0.0
C643 C 0.60423 0.32465 0.85484 0.0
C644 C 0.58932 0.31112 0.79483 0.0
C645 C 0.62676 0.30634 0.89416 0.0
H646 H 0.62306 0.23731 0.79412 0.0
H647 H 0.5722 0.32537 0.76428 0.0
C648 C 0.51716 0.23201 0.48542 0.0
N649 N 0.4985 0.22218 0.345 0.0
C650 C 0.50248 0.20283 0.46512 0.0
C651 C 0.52176 0.25639 0.43451 0.0
C652 C 0.4934 0.19825 0.39381 0.0
C653 C 0.51231 0.25092 0.36376 0.0
C654 C 0.57993 0.1864 0.69675 0.0
C655 C 0.58681 0.15945 0.65404 0.0
C656 C 0.57295 0.18206 0.76925 0.0
C657 C 0.58533 0.12845 0.68399 0.0
C658 C 0.57181 0.15068 0.7973 0.0
N659 N 0.57777 0.12475 0.75432 0.0
C660 C 0.62905 0.23253 0.47509 0.0
C661 C 0.58848 0.19216 0.46328 0.0
C662 C 0.64686 0.21876 0.41887 0.0
N663 N 0.60023 0.21928 0.49554 0.0
C664 C 0.60542 0.17763 0.4072 0.0
C665 C 0.63506 0.19088 0.38405 0.0
H666 H 0.63827 0.25374 0.50242 0.0
H667 H 0.56598 0.18158 0.48156 0.0
C668 C 0.47922 0.19541 0.73486 0.0
N669 N 0.50232 0.1898 0.68444 0.0
C670 C 0.45717 0.17105 0.75351 0.0
C671 C 0.48315 0.13549 0.66826 0.0
C672 C 0.50447 0.16063 0.65084 0.0
C673 C 0.45886 0.14053 0.71994 0.0
H674 H 0.47746 0.21902 0.75965 0.0
H675 H 0.52259 0.15695 0.60983 0.0
O676 O 0.58167 0.28336 0.60061 0.0
O677 O 0.52351 0.26679 0.70101 0.0
O678 O 0.52628 0.23683 0.55508 0.0
O679 O 0.57957 0.21681 0.6675 0.0
H680 H 0.60863 0.33489 0.66054 0.0
H681 H 0.58616 0.28929 0.45946 0.0
H682 H 0.63368 0.38046 0.59449 0.0
H683 H 0.61104 0.33602 0.39673 0.0
H684 H 0.51638 0.26776 0.94379 0.0
H685 H 0.50201 0.32695 0.71653 0.0
H686 H 0.52835 0.23984 0.82936 0.0
H687 H 0.49028 0.35332 0.83286 0.0
H688 H 0.50483 0.39665 0.56158 0.0
H689 H 0.43271 0.326 0.49817 0.0
H690 H 0.65125 0.2598 0.90018 0.0
H691 H 0.59835 0.34932 0.87006 0.0
H692 H 0.49831 0.18383 0.5039 0.0
H693 H 0.53205 0.27948 0.44959 0.0
H694 H 0.48227 0.17569 0.3773 0.0
H695 H 0.5158 0.26959 0.32383 0.0
H696 H 0.59267 0.16236 0.59809 0.0
H697 H 0.56827 0.20268 0.80337 0.0
H698 H 0.59004 0.10734 0.65123 0.0
H699 H 0.5661 0.14693 0.85316 0.0
H700 H 0.66982 0.22955 0.40356 0.0
H701 H 0.59514 0.15638 0.38174 0.0
H702 H 0.43849 0.17641 0.79252 0.0
H703 H 0.48572 0.11237 0.64139 0.0
C704 C 0.34289 0.69782 0.99647 0.0
C705 C 0.3559 0.67946 0.93983 0.0
H706 H 0.31756 0.69748 0.09654 0.0
C707 C 0.35257 0.64551 0.94193 0.0
H708 H 0.34522 0.72398 0.99712 0.0
C709 C 0.33725 0.63028 0.99954 0.0
C710 C 0.32452 0.64855 0.05659 0.0
H711 H 0.36182 0.63055 0.89889 0.0
H712 H 0.33598 0.60405 0.99981 0.0
C713 C 0.32738 0.68256 0.05406 0.0
C714 C 0.33853 0.81516 0.26945 0.0
C715 C 0.3549 0.83418 0.32056 0.0
H716 H 0.31002 0.81432 0.17351 0.0
C717 C 0.35441 0.86812 0.3128 0.0
H718 H 0.33862 0.78894 0.27328 0.0
C719 C 0.33843 0.88263 0.25509 0.0
C720 C 0.3223 0.86366 0.20354 0.0
H721 H 0.36634 0.8836 0.35154 0.0
H722 H 0.33925 0.9088 0.25031 0.0
C723 C 0.32245 0.82971 0.21167 0.0
C724 C 0.17817 0.82494 0.4574 0.0
C725 C 0.14421 0.82111 0.45465 0.0
H726 H 0.21902 0.84372 0.51539 0.0
C727 C 0.12555 0.83205 0.51284 0.0
H728 H 0.19326 0.81705 0.41328 0.0
C729 C 0.14028 0.8473 0.5712 0.0
C730 C 0.1741 0.85204 0.5731 0.0
H731 H 0.09944 0.82885 0.51335 0.0
H732 H 0.1251 0.85546 0.61494 0.0
C733 C 0.19295 0.84023 0.51597 0.0
C734 C 0.16678 0.69397 0.76438 0.0
C735 C 0.15526 0.67494 0.82155 0.0
H736 H 0.18967 0.69463 0.66127 0.0
C737 C 0.16016 0.64119 0.81911 0.0
H738 H 0.16317 0.71999 0.76408 0.0
C739 C 0.17513 0.62671 0.76016 0.0
C740 C 0.18577 0.64558 0.70208 0.0
H741 H 0.15232 0.62583 0.86282 0.0
H742 H 0.17833 0.60063 0.76002 0.0
C743 C 0.18193 0.67945 0.70536 0.0
C744 C 0.83641 0.12951 0.50315 0.0
C745 C 0.82712 0.14752 0.56366 0.0
H746 H 0.85718 0.13008 0.39837 0.0
C747 C 0.83151 0.18136 0.56278 0.0
H748 H 0.83275 0.1035 0.50135 0.0
C749 C 0.84568 0.19668 0.50358 0.0
C750 C 0.85572 0.17851 0.44378 0.0
H751 H 0.82485 0.19592 0.60872 0.0
H752 H 0.84965 0.22263 0.50561 0.0
C753 C 0.85045 0.14479 0.44403 0.0
C754 C 0.87478 0.34335 0.75686 0.0
C755 C 0.85672 0.33139 0.81502 0.0
H756 H 0.87408 0.36718 0.65524 0.0
C757 C 0.82264 0.33414 0.81291 0.0
H758 H 0.90098 0.341 0.75573 0.0
C759 C 0.80713 0.34914 0.75485 0.0
C760 C 0.82535 0.3618 0.69762 0.0
H761 H 0.80796 0.32548 0.85699 0.0
H762 H 0.78094 0.35161 0.75575 0.0
C763 C 0.85933 0.35836 0.69908 0.0
C764 C 0.63761 0.35155 0.06912 0.0
C765 C 0.6716 0.3516 0.0777 0.0
H766 H 0.59697 0.33721 1.00482 0.0
C767 C 0.69063 0.33487 0.02702 0.0
H768 H 0.622 0.36334 0.10779 0.0
C769 C 0.67607 0.31931 0.9685 0.0
C770 C 0.64224 0.32046 0.95888 0.0
H771 H 0.71686 0.33462 0.03114 0.0
H772 H 0.69138 0.30735 0.92944 0.0
C773 C 0.62317 0.33641 0.01026 0.0
C774 C 0.68383 0.17964 0.21258 0.0
C775 C 0.68418 0.14566 0.2056 0.0
H776 H 0.66775 0.22062 0.27375 0.0
C777 C 0.66977 0.1268 0.2596 0.0
H778 H 0.69454 0.19487 0.17171 0.0
C779 C 0.65457 0.14148 0.31801 0.0
C780 C 0.65327 0.17547 0.32406 0.0
H781 H 0.67023 0.10055 0.25677 0.0
H782 H 0.64379 0.12612 0.35855 0.0
C783 C 0.66851 0.19439 0.27113 0.0
C784 C 0.41503 0.44173 0.53898 0.0
C785 C 0.39625 0.4399 0.47627 0.0
H786 H 0.45185 0.41961 0.60382 0.0
C787 C 0.40142 0.41389 0.42895 0.0
H788 H 0.41178 0.4616 0.57621 0.0
C789 C 0.42433 0.3899 0.4447 0.0
C790 C 0.4428 0.39147 0.50786 0.0
H791 H 0.38714 0.41162 0.38052 0.0
H792 H 0.42751 0.37 0.40751 0.0
C793 C 0.43818 0.41786 0.55443 0.0
C794 C 0.60828 0.93439 0.70228 0.0
C795 C 0.61758 0.94069 0.77342 0.0
H796 H 0.57922 0.90612 0.63109 0.0
C797 C 0.60191 0.92346 0.82852 0.0
H798 H 0.61923 0.94746 0.65825 0.0
C799 C 0.57793 0.90051 0.813 0.0
C800 C 0.5693 0.89352 0.74181 0.0
H801 H 0.60855 0.92709 0.88397 0.0
H802 H 0.56628 0.88818 0.8572 0.0
C803 C 0.58474 0.91095 0.68668 0.0
C804 C 0.0797 0.10074 0.07028 0.0
C805 C 0.06375 0.11782 0.01526 0.0
H806 H 0.11414 0.06424 0.09864 0.0
C807 C 0.0717 0.11029 0.94395 0.0
H808 H 0.07483 0.106 0.12596 0.0
C809 C 0.09547 0.08711 0.92825 0.0
C810 C 0.11157 0.0702 0.98331 0.0
H811 H 0.05967 0.12232 0.89982 0.0
H812 H 0.10159 0.08304 0.87268 0.0
C813 C 0.10293 0.07706 0.05454 0.0
C814 C 0.92173 0.5956 0.17919 0.0
C815 C 0.93833 0.61162 0.2348 0.0
H816 H 0.88637 0.56014 0.14961 0.0
C817 C 0.93088 0.6031 0.30583 0.0
H818 H 0.92627 0.60164 0.12375 0.0
C819 C 0.90693 0.57999 0.32078 0.0
C820 C 0.89009 0.56423 0.26515 0.0
H821 H 0.94342 0.61433 0.35029 0.0
H822 H 0.90121 0.5751 0.37624 0.0
C823 C 0.89823 0.57206 0.19412 0.0
C824 C 0.39972 0.07016 0.69897 0.0
C825 C 0.3876 0.06657 0.76886 0.0
H826 H 0.43099 0.09642 0.62847 0.0
C827 C 0.39982 0.08698 0.82292 0.0
H828 H 0.39125 0.05465 0.6561 0.0
C829 C 0.42321 0.11055 0.80735 0.0
C830 C 0.43489 0.11454 0.7372 0.0
H831 H 0.39083 0.08527 0.8772 0.0
H832 H 0.43213 0.12565 0.8505 0.0
C833 C 0.42294 0.09389 0.6833 0.0
C834 C 0.90993 0.91973 0.9322 0.0
C835 C 0.89495 0.93699 0.98816 0.0
H836 H 0.94453 0.88364 0.90186 0.0
C837 C 0.90454 0.9302 0.05886 0.0
H838 H 0.90304 0.92383 0.87705 0.0
C839 C 0.92767 0.90622 0.07329 0.0
C840 C 0.94234 0.88865 0.01739 0.0
H841 H 0.8941 0.94329 0.10347 0.0
H842 H 0.93341 0.90102 0.12863 0.0
C843 C 0.93345 0.89612 0.94657 0.0
C844 C 0.08269 0.40976 0.18833 0.0
C845 C 0.06811 0.39156 0.24336 0.0
H846 H 0.11627 0.44703 0.1598 0.0
C847 C 0.0775 0.39793 0.3144 0.0
H848 H 0.07663 0.40546 0.1328 0.0
C849 C 0.10142 0.42098 0.32973 0.0
C850 C 0.11622 0.43899 0.27466 0.0
H851 H 0.0665 0.38504 0.35863 0.0
H852 H 0.10869 0.42408 0.38494 0.0
C853 C 0.10609 0.43334 0.2038 0.0
C854 C 0.57389 0.6125 0.443 0.0
C855 C 0.56618 0.62039 0.51423 0.0
H856 H 0.60365 0.58495 0.37199 0.0
C857 C 0.58257 0.6039 0.56948 0.0
H858 H 0.56154 0.62414 0.39878 0.0
C859 C 0.60597 0.58036 0.55401 0.0
C860 C 0.61425 0.57303 0.48282 0.0
H861 H 0.57786 0.6095 0.62507 0.0
H862 H 0.61755 0.56796 0.59824 0.0
C863 C 0.59778 0.58942 0.42754 0.0
loop_
_geom_bond_atom_site_label_1
_geom_bond_atom_site_label_2
_geom_bond_distance
_geom_bond_site_symmetry_2
_ccdc_geom_bond_type
Li0 N17 1.990 . S
Li0 O60 1.956 . S
Li0 O61 1.970 . S
Li0 O62 1.961 . S
Li1 N25 1.990 . S
Li1 O60 1.970 . S
Li1 O61 1.956 . S
Li1 O63 1.961 . S
Li2 N47 1.990 . S
Li2 O60 1.961 . S
Li2 O62 1.956 . S
Li2 O63 1.970 . S
Li3 N53 1.990 . S
Li3 O61 1.961 . S
Li3 O62 1.970 . S
Li3 O63 1.956 . S
C4 C6 1.348 . S
C4 C7 1.356 . S
C4 O60 1.325 . S
N5 C8 1.314 . S
N5 C9 1.279 . S
C6 C4 1.348 . S
C6 C8 1.353 . S
C6 H64 0.929 . S
C7 C4 1.356 . S
C7 C9 1.358 . S
C7 H65 0.930 . S
C8 N5 1.314 . S
C8 C6 1.353 . S
C8 H66 0.930 . S
C9 N5 1.279 . S
C9 C7 1.358 . S
C9 H67 0.930 . S
C10 C13 1.348 . S
C10 C14 1.356 . S
C10 O61 1.325 . S
C11 N12 1.279 . S
C11 C14 1.358 . S
C11 H68 0.930 . S
N12 C11 1.279 . S
N12 C15 1.314 . S
C13 C10 1.348 . S
C13 C15 1.353 . S
C13 H69 0.929 . S
C14 C10 1.356 . S
C14 C11 1.358 . S
C14 H70 0.930 . S
C15 N12 1.314 . S
C15 C13 1.353 . S
C15 H71 0.930 . S
C16 N17 1.314 . S
C16 C21 1.353 . S
C16 H22 0.930 . S
N17 Li0 1.990 . S
N17 C16 1.314 . S
N17 C19 1.279 . S
C18 C19 1.358 . S
C18 C20 1.356 . S
C18 H72 0.930 . S
C19 N17 1.279 . S
C19 C18 1.358 . S
C19 H23 0.930 . S
C20 C18 1.356 . S
C20 C21 1.348 . S
C21 C16 1.353 . S
C21 C20 1.348 . S
C21 H73 0.929 . S
H22 C16 0.930 . S
H23 C19 0.930 . S
C24 N25 1.314 . S
C24 C26 1.353 . S
C24 H30 0.930 . S
N25 Li1 1.990 . S
N25 C24 1.314 . S
N25 C28 1.279 . S
C26 C24 1.353 . S
C26 C29 1.348 . S
C26 H74 0.929 . S
C27 C28 1.358 . S
C27 C29 1.356 . S
C27 H75 0.930 . S
C28 N25 1.279 . S
C28 C27 1.358 . S
C28 H31 0.930 . S
C29 C26 1.348 . S
C29 C27 1.356 . S
H30 C24 0.930 . S
H31 C28 0.930 . S
C32 C34 1.348 . S
C32 C35 1.356 . S
C32 O62 1.325 . S
N33 C36 1.314 . S
N33 C37 1.279 . S
C34 C32 1.348 . S
C34 C36 1.353 . S
C34 H76 0.929 . S
C35 C32 1.356 . S
C35 C37 1.358 . S
C35 H77 0.930 . S
C36 N33 1.314 . S
C36 C34 1.353 . S
C36 H78 0.930 . S
C37 N33 1.279 . S
C37 C35 1.358 . S
C37 H79 0.930 . S
C38 C39 1.348 . S
C38 C40 1.356 . S
C38 O63 1.325 . S
C39 C38 1.348 . S
C39 C41 1.353 . S
C39 H80 0.929 . S
C40 C38 1.356 . S
C40 C42 1.358 . S
C40 H81 0.930 . S
C41 C39 1.353 . S
C41 N43 1.314 . S
C41 H82 0.930 . S
C42 C40 1.358 . S
C42 N43 1.279 . S
C42 H83 0.930 . S
N43 C41 1.314 . S
N43 C42 1.279 . S
C44 C46 1.353 . S
C44 N47 1.314 . S
C44 H50 0.930 . S
C45 N47 1.279 . S
C45 C48 1.358 . S
C45 H51 0.930 . S
C46 C44 1.353 . S
C46 C49 1.348 . S
C46 H84 0.929 . S
N47 Li2 1.990 . S
N47 C44 1.314 . S
N47 C45 1.279 . S
C48 C45 1.358 . S
C48 C49 1.356 . S
C48 H85 0.930 . S
C49 C46 1.348 . S
C49 C48 1.356 . S
H50 C44 0.930 . S
H51 C45 0.930 . S
C52 N53 1.314 . S
C52 C54 1.353 . S
C52 H58 0.930 . S
N53 Li3 1.990 . S
N53 C52 1.314 . S
N53 C56 1.279 . S
C54 C52 1.353 . S
C54 C57 1.348 . S
C54 H86 0.929 . S
C55 C56 1.358 . S
C55 C57 1.356 . S
C55 H87 0.930 . S
C56 N53 1.279 . S
C56 C55 1.358 . S
C56 H59 0.930 . S
C57 C54 1.348 . S
C57 C55 1.356 . S
H58 C52 0.930 . S
H59 C56 0.930 . S
O60 Li0 1.956 . S
O60 Li1 1.970 . S
O60 Li2 1.961 . S
O60 C4 1.325 . S
O61 Li0 1.970 . S
O61 Li1 1.956 . S
O61 Li3 1.961 . S
O61 C10 1.325 . S
O62 Li0 1.961 . S
O62 Li2 1.956 . S
O62 Li3 1.970 . S
O62 C32 1.325 . S
O63 Li1 1.961 . S
O63 Li2 1.970 . S
O63 Li3 1.956 . S
O63 C38 1.325 . S
H64 C6 0.929 . S
H65 C7 0.930 . S
H66 C8 0.930 . S
H67 C9 0.930 . S
H68 C11 0.930 . S
H69 C13 0.929 . S
H70 C14 0.930 . S
H71 C15 0.930 . S
H72 C18 0.930 . S
H73 C21 0.929 . S
H74 C26 0.929 . S
H75 C27 0.930 . S
H76 C34 0.929 . S
H77 C35 0.930 . S
H78 C36 0.930 . S
H79 C37 0.930 . S
H80 C39 0.929 . S
H81 C40 0.930 . S
H82 C41 0.930 . S
H83 C42 0.930 . S
H84 C46 0.929 . S
H85 C48 0.930 . S
H86 C54 0.929 . S
H87 C55 0.930 . S
Li88 N105 1.990 . S
Li88 O148 1.956 . S
Li88 O149 1.970 . S
Li88 O150 1.961 . S
Li89 N113 1.990 . S
Li89 O148 1.970 . S
Li89 O149 1.956 . S
Li89 O151 1.961 . S
Li90 N135 1.990 . S
Li90 O148 1.961 . S
Li90 O150 1.956 . S
Li90 O151 1.970 . S
Li91 N141 1.990 . S
Li91 O149 1.961 . S
Li91 O150 1.970 . S
Li91 O151 1.956 . S
C92 C94 1.348 . S
C92 C95 1.356 . S
C92 O148 1.325 . S
N93 C96 1.314 . S
N93 C97 1.279 . S
C94 C92 1.348 . S
C94 C96 1.353 . S
C94 H152 0.929 . S
C95 C92 1.356 . S
C95 C97 1.358 . S
C95 H153 0.930 . S
C96 N93 1.314 . S
C96 C94 1.353 . S
C96 H154 0.930 . S
C97 N93 1.279 . S
C97 C95 1.358 . S
C97 H155 0.930 . S
C98 C101 1.348 . S
C98 C102 1.356 . S
C98 O149 1.325 . S
C99 N100 1.279 . S
C99 C102 1.358 . S
C99 H156 0.930 . S
N100 C99 1.279 . S
N100 C103 1.314 . S
C101 C98 1.348 . S
C101 C103 1.353 . S
C101 H157 0.929 . S
C102 C98 1.356 . S
C102 C99 1.358 . S
C102 H158 0.930 . S
C103 N100 1.314 . S
C103 C101 1.353 . S
C103 H159 0.930 . S
C104 N105 1.314 . S
C104 C109 1.353 . S
C104 H110 0.930 . S
N105 Li88 1.990 . S
N105 C104 1.314 . S
N105 C107 1.279 . S
C106 C107 1.358 . S
C106 C108 1.356 . S
C106 H160 0.930 . S
C107 N105 1.279 . S
C107 C106 1.358 . S
C107 H111 0.930 . S
C108 C106 1.356 . S
C108 C109 1.348 . S
C109 C104 1.353 . S
C109 C108 1.348 . S
C109 H161 0.929 . S
H110 C104 0.930 . S
H111 C107 0.930 . S
C112 N113 1.314 . S
C112 C114 1.353 . S
C112 H118 0.930 . S
N113 Li89 1.990 . S
N113 C112 1.314 . S
N113 C116 1.279 . S
C114 C112 1.353 . S
C114 C117 1.348 . S
C114 H162 0.929 . S
C115 C116 1.358 . S
C115 C117 1.356 . S
C115 H163 0.930 . S
C116 N113 1.279 . S
C116 C115 1.358 . S
C116 H119 0.930 . S
C117 C114 1.348 . S
C117 C115 1.356 . S
H118 C112 0.930 . S
H119 C116 0.930 . S
C120 C122 1.348 . S
C120 C123 1.356 . S
C120 O150 1.325 . S
N121 C124 1.314 . S
N121 C125 1.279 . S
C122 C120 1.348 . S
C122 C124 1.353 . S
C122 H164 0.929 . S
C123 C120 1.356 . S
C123 C125 1.358 . S
C123 H165 0.930 . S
C124 N121 1.314 . S
C124 C122 1.353 . S
C124 H166 0.930 . S
C125 N121 1.279 . S
C125 C123 1.358 . S
C125 H167 0.930 . S
C126 C127 1.348 . S
C126 C128 1.356 . S
C126 O151 1.325 . S
C127 C126 1.348 . S
C127 C129 1.353 . S
C127 H168 0.929 . S
C128 C126 1.356 . S
C128 C130 1.358 . S
C128 H169 0.930 . S
C129 C127 1.353 . S
C129 N131 1.314 . S
C129 H170 0.930 . S
C130 C128 1.358 . S
C130 N131 1.279 . S
C130 H171 0.930 . S
N131 C129 1.314 . S
N131 C130 1.279 . S
C132 C134 1.353 . S
C132 N135 1.314 . S
C132 H138 0.930 . S
C133 N135 1.279 . S
C133 C136 1.358 . S
C133 H139 0.930 . S
C134 C132 1.353 . S
C134 C137 1.348 . S
C134 H172 0.929 . S
N135 Li90 1.990 . S
N135 C132 1.314 . S
N135 C133 1.279 . S
C136 C133 1.358 . S
C136 C137 1.356 . S
C136 H173 0.930 . S
C137 C134 1.348 . S
C137 C136 1.356 . S
H138 C132 0.930 . S
H139 C133 0.930 . S
C140 N141 1.314 . S
C140 C142 1.353 . S
C140 H146 0.930 . S
N141 Li91 1.990 . S
N141 C140 1.314 . S
N141 C144 1.279 . S
C142 C140 1.353 . S
C142 C145 1.348 . S
C142 H174 0.929 . S
C143 C144 1.358 . S
C143 C145 1.356 . S
C143 H175 0.930 . S
C144 N141 1.279 . S
C144 C143 1.358 . S
C144 H147 0.930 . S
C145 C142 1.348 . S
C145 C143 1.356 . S
H146 C140 0.930 . S
H147 C144 0.930 . S
O148 Li88 1.956 . S
O148 Li89 1.970 . S
O148 Li90 1.961 . S
O148 C92 1.325 . S
O149 Li88 1.970 . S
O149 Li89 1.956 . S
O149 Li91 1.961 . S
O149 C98 1.325 . S
O150 Li88 1.961 . S
O150 Li90 1.956 . S
O150 Li91 1.970 . S
O150 C120 1.325 . S
O151 Li89 1.961 . S
O151 Li90 1.970 . S
O151 Li91 1.956 . S
O151 C126 1.325 . S
H152 C94 0.929 . S
H153 C95 0.930 . S
H154 C96 0.930 . S
H155 C97 0.930 . S
H156 C99 0.930 . S
H157 C101 0.929 . S
H158 C102 0.930 . S
H159 C103 0.930 . S
H160 C106 0.930 . S
H161 C109 0.929 . S
H162 C114 0.929 . S
H163 C115 0.930 . S
H164 C122 0.929 . S
H165 C123 0.930 . S
H166 C124 0.930 . S
H167 C125 0.930 . S
H168 C127 0.929 . S
H169 C128 0.930 . S
H170 C129 0.930 . S
H171 C130 0.930 . S
H172 C134 0.929 . S
H173 C136 0.930 . S
H174 C142 0.929 . S
H175 C143 0.930 . S
Li176 N193 1.990 . S
Li176 O236 1.956 . S
Li176 O237 1.970 . S
Li176 O238 1.961 . S
Li177 N201 1.990 1_556 S
Li177 O236 1.970 . S
Li177 O237 1.956 . S
Li177 O239 1.961 . S
Li178 N223 1.990 . S
Li178 O236 1.961 . S
Li178 O238 1.956 . S
Li178 O239 1.970 . S
Li179 N229 1.990 . S
Li179 O237 1.961 . S
Li179 O238 1.970 . S
Li179 O239 1.956 . S
C180 C182 1.348 . S
C180 C183 1.356 . S
C180 O236 1.325 . S
N181 C184 1.314 . S
N181 C185 1.279 . S
C182 C180 1.348 . S
C182 C184 1.353 . S
C182 H240 0.929 . S
C183 C180 1.356 . S
C183 C185 1.358 . S
C183 H241 0.930 . S
C184 N181 1.314 . S
C184 C182 1.353 . S
C184 H242 0.930 . S
C185 N181 1.279 . S
C185 C183 1.358 . S
C185 H243 0.930 . S
C186 C189 1.348 1_565 S
C186 C190 1.356 1_556 S
C186 O237 1.325 . S
C187 N188 1.279 . S
C187 C190 1.358 1_545 S
C187 H244 0.930 . S
N188 C187 1.279 . S
N188 C191 1.314 . S
C189 C186 1.348 1_545 S
C189 C191 1.353 1_556 S
C189 H245 0.930 . S
C190 C186 1.356 1_554 S
C190 C187 1.358 1_565 S
C190 H246 0.930 . S
C191 N188 1.314 . S
C191 C189 1.353 1_554 S
C191 H247 0.930 . S
C192 N193 1.314 1_545 S
C192 C197 1.353 . S
C192 H198 0.930 . S
N193 Li176 1.990 . S
N193 C192 1.314 1_565 S
N193 C195 1.279 . S
C194 C195 1.358 1_545 S
C194 C196 1.356 . S
C194 H248 0.930 1_545 S
C195 N193 1.279 . S
C195 C194 1.358 1_565 S
C195 H199 0.930 . S
C196 C194 1.356 . S
C196 C197 1.348 . S
C197 C192 1.353 . S
C197 C196 1.348 . S
C197 H249 0.929 . S
H198 C192 0.930 . S
H199 C195 0.930 . S
C200 N201 1.314 . S
C200 C202 1.353 . S
C200 H206 0.930 1_554 S
N201 Li177 1.990 1_554 S
N201 C200 1.314 . S
N201 C204 1.279 . S
C202 C200 1.353 . S
C202 C205 1.348 . S
C202 H250 0.929 . S
C203 C204 1.358 . S
C203 C205 1.356 . S
C203 H251 0.930 . S
C204 N201 1.279 . S
C204 C203 1.358 . S
C204 H207 0.930 . S
C205 C202 1.348 . S
C205 C203 1.356 . S
H206 C200 0.930 1_556 S
H207 C204 0.930 . S
C208 C210 1.348 1_565 S
C208 C211 1.356 . S
C208 O238 1.325 . S
N209 C212 1.314 . S
N209 C213 1.279 . S
C210 C208 1.348 1_545 S
C210 C212 1.353 . S
C210 H252 0.930 . S
C211 C208 1.356 . S
C211 C213 1.358 1_565 S
C211 H253 0.930 . S
C212 N209 1.314 . S
C212 C210 1.353 . S
C212 H254 0.930 . S
C213 N209 1.279 . S
C213 C211 1.358 1_545 S
C213 H255 0.930 . S
C214 C215 1.348 . S
C214 C216 1.356 1_556 S
C214 O239 1.325 . S
C215 C214 1.348 . S
C215 C217 1.353 . S
C215 H256 0.929 . S
C216 C214 1.356 1_554 S
C216 C218 1.358 . S
C216 H257 0.930 . S
C217 C215 1.353 . S
C217 N219 1.314 . S
C217 H258 0.930 . S
C218 C216 1.358 . S
C218 N219 1.279 1_554 S
C218 H259 0.930 . S
N219 C217 1.314 . S
N219 C218 1.279 1_556 S
C220 C222 1.353 . S
C220 N223 1.314 . S
C220 H226 0.930 . S
C221 N223 1.279 . S
C221 C224 1.358 . S
C221 H227 0.930 . S
C222 C220 1.353 . S
C222 C225 1.348 . S
C222 H260 0.929 . S
N223 Li178 1.990 . S
N223 C220 1.314 . S
N223 C221 1.279 . S
C224 C221 1.358 . S
C224 C225 1.356 . S
C224 H261 0.930 . S
C225 C222 1.348 . S
C225 C224 1.356 . S
H226 C220 0.930 . S
H227 C221 0.930 . S
C228 N229 1.314 1_545 S
C228 C230 1.353 . S
C228 H234 0.930 . S
N229 Li179 1.990 . S
N229 C228 1.314 1_565 S
N229 C232 1.279 . S
C230 C228 1.353 . S
C230 C233 1.348 . S
C230 H262 0.929 . S
C231 C232 1.358 1_545 S
C231 C233 1.356 . S
C231 H263 0.930 1_545 S
C232 N229 1.279 . S
C232 C231 1.358 1_565 S
C232 H235 0.930 . S
C233 C230 1.348 . S
C233 C231 1.356 . S
H234 C228 0.930 . S
H235 C232 0.930 . S
O236 Li176 1.956 . S
O236 Li177 1.970 . S
O236 Li178 1.961 . S
O236 C180 1.325 . S
O237 Li176 1.970 . S
O237 Li177 1.956 . S
O237 Li179 1.961 . S
O237 C186 1.325 . S
O238 Li176 1.961 . S
O238 Li178 1.956 . S
O238 Li179 1.970 . S
O238 C208 1.325 . S
O239 Li177 1.961 . S
O239 Li178 1.970 . S
O239 Li179 1.956 . S
O239 C214 1.325 . S
H240 C182 0.929 . S
H241 C183 0.930 . S
H242 C184 0.930 . S
H243 C185 0.930 . S
H244 C187 0.930 . S
H245 C189 0.930 . S
H246 C190 0.930 . S
H247 C191 0.930 . S
H248 C194 0.930 1_565 S
H249 C197 0.929 . S
H250 C202 0.929 . S
H251 C203 0.930 . S
H252 C210 0.930 . S
H253 C211 0.930 . S
H254 C212 0.930 . S
H255 C213 0.930 . S
H256 C215 0.929 . S
H257 C216 0.930 . S
H258 C217 0.930 . S
H259 C218 0.930 . S
H260 C222 0.929 . S
H261 C224 0.930 . S
H262 C230 0.929 . S
H263 C231 0.930 1_565 S
Li264 N281 1.990 . S
Li264 O324 1.956 . S
Li264 O325 1.970 . S
Li264 O326 1.961 . S
Li265 N289 1.990 . S
Li265 O324 1.970 . S
Li265 O325 1.956 . S
Li265 O327 1.961 . S
Li266 N311 1.990 1_554 S
Li266 O324 1.961 . S
Li266 O326 1.956 . S
Li266 O327 1.970 . S
Li267 N317 1.990 . S
Li267 O325 1.961 . S
Li267 O326 1.970 . S
Li267 O327 1.956 . S
C268 C270 1.348 . S
C268 C271 1.356 1_554 S
C268 O324 1.325 . S
N269 C272 1.314 . S
N269 C273 1.279 1_554 S
C270 C268 1.348 . S
C270 C272 1.353 . S
C270 H328 0.929 . S
C271 C268 1.356 1_556 S
C271 C273 1.358 . S
C271 H329 0.930 . S
C272 N269 1.314 . S
C272 C270 1.353 . S
C272 H330 0.930 . S
C273 N269 1.279 1_556 S
C273 C271 1.358 . S
C273 H331 0.930 . S
C274 C277 1.348 1_455 S
C274 C278 1.356 . S
C274 O325 1.325 . S
C275 N276 1.279 . S
C275 C278 1.358 1_655 S
C275 H332 0.930 . S
N276 C275 1.279 . S
N276 C279 1.314 . S
C277 C274 1.348 1_655 S
C277 C279 1.353 . S
C277 H333 0.930 . S
C278 C274 1.356 . S
C278 C275 1.358 1_455 S
C278 H334 0.930 . S
C279 N276 1.314 . S
C279 C277 1.353 . S
C279 H335 0.930 . S
C280 N281 1.314 1_655 S
C280 C285 1.353 . S
C280 H286 0.930 . S
N281 Li264 1.990 . S
N281 C280 1.314 1_455 S
N281 C283 1.279 . S
C282 C283 1.358 1_655 S
C282 C284 1.356 . S
C282 H336 0.930 1_655 S
C283 N281 1.279 . S
C283 C282 1.358 1_455 S
C283 H287 0.930 . S
C284 C282 1.356 . S
C284 C285 1.348 . S
C285 C280 1.353 . S
C285 C284 1.348 . S
C285 H337 0.929 . S
H286 C280 0.930 . S
H287 C283 0.930 . S
C288 N289 1.314 . S
C288 C290 1.353 . S
C288 H294 0.930 . S
N289 Li265 1.990 . S
N289 C288 1.314 . S
N289 C292 1.279 . S
C290 C288 1.353 . S
C290 C293 1.348 . S
C290 H338 0.929 . S
C291 C292 1.358 . S
C291 C293 1.356 . S
C291 H339 0.930 . S
C292 N289 1.279 . S
C292 C291 1.358 . S
C292 H295 0.930 . S
C293 C290 1.348 . S
C293 C291 1.356 . S
H294 C288 0.930 . S
H295 C292 0.930 . S
C296 C298 1.348 1_455 S
C296 C299 1.356 1_554 S
C296 O326 1.325 . S
N297 C300 1.314 . S
N297 C301 1.279 . S
C298 C296 1.348 1_655 S
C298 C300 1.353 1_554 S
C298 H340 0.930 . S
C299 C296 1.356 1_556 S
C299 C301 1.358 1_455 S
C299 H341 0.930 . S
C300 N297 1.314 . S
C300 C298 1.353 1_556 S
C300 H342 0.930 . S
C301 N297 1.279 . S
C301 C299 1.358 1_655 S
C301 H343 0.930 . S
C302 C303 1.348 . S
C302 C304 1.356 . S
C302 O327 1.325 . S
C303 C302 1.348 . S
C303 C305 1.353 . S
C303 H344 0.929 . S
C304 C302 1.356 . S
C304 C306 1.358 . S
C304 H345 0.930 . S
C305 C303 1.353 . S
C305 N307 1.314 . S
C305 H346 0.930 . S
C306 C304 1.358 . S
C306 N307 1.279 . S
C306 H347 0.930 . S
N307 C305 1.314 . S
N307 C306 1.279 . S
C308 C310 1.353 . S
C308 N311 1.314 . S
C308 H314 0.930 1_556 S
C309 N311 1.279 . S
C309 C312 1.358 . S
C309 H315 0.930 . S
C310 C308 1.353 . S
C310 C313 1.348 . S
C310 H348 0.929 . S
N311 Li266 1.990 1_556 S
N311 C308 1.314 . S
N311 C309 1.279 . S
C312 C309 1.358 . S
C312 C313 1.356 . S
C312 H349 0.930 . S
C313 C310 1.348 . S
C313 C312 1.356 . S
H314 C308 0.930 1_554 S
H315 C309 0.930 . S
C316 N317 1.314 1_655 S
C316 C318 1.353 . S
C316 H322 0.930 . S
N317 Li267 1.990 . S
N317 C316 1.314 1_455 S
N317 C320 1.279 . S
C318 C316 1.353 . S
C318 C321 1.348 . S
C318 H350 0.929 . S
C319 C320 1.358 1_655 S
C319 C321 1.356 . S
C319 H351 0.930 1_655 S
C320 N317 1.279 . S
C320 C319 1.358 1_455 S
C320 H323 0.930 . S
C321 C318 1.348 . S
C321 C319 1.356 . S
H322 C316 0.930 . S
H323 C320 0.930 . S
O324 Li264 1.956 . S
O324 Li265 1.970 . S
O324 Li266 1.961 . S
O324 C268 1.325 . S
O325 Li264 1.970 . S
O325 Li265 1.956 . S
O325 Li267 1.961 . S
O325 C274 1.325 . S
O326 Li264 1.961 . S
O326 Li266 1.956 . S
O326 Li267 1.970 . S
O326 C296 1.325 . S
O327 Li265 1.961 . S
O327 Li266 1.970 . S
O327 Li267 1.956 . S
O327 C302 1.325 . S
H328 C270 0.929 . S
H329 C271 0.930 . S
H330 C272 0.930 . S
H331 C273 0.930 . S
H332 C275 0.930 . S
H333 C277 0.930 . S
H334 C278 0.930 . S
H335 C279 0.930 . S
H336 C282 0.930 1_455 S
H337 C285 0.929 . S
H338 C290 0.929 . S
H339 C291 0.930 . S
H340 C298 0.930 . S
H341 C299 0.930 . S
H342 C300 0.930 . S
H343 C301 0.930 . S
H344 C303 0.929 . S
H345 C304 0.930 . S
H346 C305 0.930 . S
H347 C306 0.930 . S
H348 C310 0.929 . S
H349 C312 0.930 . S
H350 C318 0.929 . S
H351 C319 0.930 1_455 S
Li352 N369 1.990 1_556 S
Li352 O412 1.956 . S
Li352 O413 1.970 . S
Li352 O414 1.961 . S
Li353 N377 1.990 . S
Li353 O412 1.970 . S
Li353 O413 1.956 . S
Li353 O415 1.961 . S
Li354 N399 1.990 . S
Li354 O412 1.961 . S
Li354 O414 1.956 . S
Li354 O415 1.970 . S
Li355 N405 1.990 . S
Li355 O413 1.961 . S
Li355 O414 1.970 . S
Li355 O415 1.956 . S
C356 C358 1.348 1_545 S
C356 C359 1.356 1_556 S
C356 O412 1.325 . S
N357 C360 1.314 . S
N357 C361 1.279 . S
C358 C356 1.348 1_565 S
C358 C360 1.353 1_556 S
C358 H416 0.930 . S
C359 C356 1.356 1_554 S
C359 C361 1.358 1_545 S
C359 H417 0.930 . S
C360 N357 1.314 . S
C360 C358 1.353 1_554 S
C360 H418 0.930 . S
C361 N357 1.279 . S
C361 C359 1.358 1_565 S
C361 H419 0.930 . S
C362 C365 1.348 . S
C362 C366 1.356 . S
C362 O413 1.325 . S
C363 N364 1.279 . S
C363 C366 1.358 . S
C363 H420 0.930 . S
N364 C363 1.279 . S
N364 C367 1.314 . S
C365 C362 1.348 . S
C365 C367 1.353 . S
C365 H421 0.929 . S
C366 C362 1.356 . S
C366 C363 1.358 . S
C366 H422 0.930 . S
C367 N364 1.314 . S
C367 C365 1.353 . S
C367 H423 0.930 . S
C368 N369 1.314 . S
C368 C373 1.353 . S
C368 H374 0.930 1_554 S
N369 Li352 1.990 1_554 S
N369 C368 1.314 . S
N369 C371 1.279 . S
C370 C371 1.358 . S
C370 C372 1.356 . S
C370 H424 0.930 . S
C371 N369 1.279 . S
C371 C370 1.358 . S
C371 H375 0.930 . S
C372 C370 1.356 . S
C372 C373 1.348 . S
C373 C368 1.353 . S
C373 C372 1.348 . S
C373 H425 0.929 . S
H374 C368 0.930 1_556 S
H375 C371 0.930 . S
C376 N377 1.314 1_565 S
C376 C378 1.353 . S
C376 H382 0.930 . S
N377 Li353 1.990 . S
N377 C376 1.314 1_545 S
N377 C380 1.279 . S
C378 C376 1.353 . S
C378 C381 1.348 . S
C378 H426 0.929 . S
C379 C380 1.358 1_565 S
C379 C381 1.356 . S
C379 H427 0.930 1_565 S
C380 N377 1.279 . S
C380 C379 1.358 1_545 S
C380 H383 0.930 . S
C381 C378 1.348 . S
C381 C379 1.356 . S
H382 C376 0.930 . S
H383 C380 0.930 . S
C384 C386 1.348 . S
C384 C387 1.356 1_556 S
C384 O414 1.325 . S
N385 C388 1.314 . S
N385 C389 1.279 1_556 S
C386 C384 1.348 . S
C386 C388 1.353 . S
C386 H428 0.929 . S
C387 C384 1.356 1_554 S
C387 C389 1.358 . S
C387 H429 0.930 . S
C388 N385 1.314 . S
C388 C386 1.353 . S
C388 H430 0.930 . S
C389 N385 1.279 1_554 S
C389 C387 1.358 . S
C389 H431 0.930 . S
C390 C391 1.348 1_545 S
C390 C392 1.356 . S
C390 O415 1.325 . S
C391 C390 1.348 1_565 S
C391 C393 1.353 . S
C391 H432 0.930 . S
C392 C390 1.356 . S
C392 C394 1.358 1_545 S
C392 H433 0.930 . S
C393 C391 1.353 . S
C393 N395 1.314 . S
C393 H434 0.930 . S
C394 C392 1.358 1_565 S
C394 N395 1.279 . S
C394 H435 0.930 . S
N395 C393 1.314 . S
N395 C394 1.279 . S
C396 C398 1.353 . S
C396 N399 1.314 1_565 S
C396 H402 0.930 . S
C397 N399 1.279 . S
C397 C400 1.358 1_545 S
C397 H403 0.930 . S
C398 C396 1.353 . S
C398 C401 1.348 . S
C398 H436 0.929 . S
N399 Li354 1.990 . S
N399 C396 1.314 1_545 S
N399 C397 1.279 . S
C400 C397 1.358 1_565 S
C400 C401 1.356 . S
C400 H437 0.930 1_565 S
C401 C398 1.348 . S
C401 C400 1.356 . S
H402 C396 0.930 . S
H403 C397 0.930 . S
C404 N405 1.314 . S
C404 C406 1.353 . S
C404 H410 0.930 . S
N405 Li355 1.990 . S
N405 C404 1.314 . S
N405 C408 1.279 . S
C406 C404 1.353 . S
C406 C409 1.348 . S
C406 H438 0.929 . S
C407 C408 1.358 . S
C407 C409 1.356 . S
C407 H439 0.930 . S
C408 N405 1.279 . S
C408 C407 1.358 . S
C408 H411 0.930 . S
C409 C406 1.348 . S
C409 C407 1.356 . S
H410 C404 0.930 . S
H411 C408 0.930 . S
O412 Li352 1.956 . S
O412 Li353 1.970 . S
O412 Li354 1.961 . S
O412 C356 1.325 . S
O413 Li352 1.970 . S
O413 Li353 1.956 . S
O413 Li355 1.961 . S
O413 C362 1.325 . S
O414 Li352 1.961 . S
O414 Li354 1.956 . S
O414 Li355 1.970 . S
O414 C384 1.325 . S
O415 Li353 1.961 . S
O415 Li354 1.970 . S
O415 Li355 1.956 . S
O415 C390 1.325 . S
H416 C358 0.930 . S
H417 C359 0.930 . S
H418 C360 0.930 . S
H419 C361 0.930 . S
H420 C363 0.930 . S
H421 C365 0.929 . S
H422 C366 0.930 . S
H423 C367 0.930 . S
H424 C370 0.930 . S
H425 C373 0.929 . S
H426 C378 0.929 . S
H427 C379 0.930 1_545 S
H428 C386 0.929 . S
H429 C387 0.930 . S
H430 C388 0.930 . S
H431 C389 0.930 . S
H432 C391 0.930 . S
H433 C392 0.930 . S
H434 C393 0.930 . S
H435 C394 0.930 . S
H436 C398 0.929 . S
H437 C400 0.930 1_545 S
H438 C406 0.929 . S
H439 C407 0.930 . S
Li440 N457 1.990 . S
Li440 O500 1.956 . S
Li440 O501 1.970 . S
Li440 O502 1.961 . S
Li441 N465 1.990 . S
Li441 O500 1.970 . S
Li441 O501 1.956 . S
Li441 O503 1.961 . S
Li442 N487 1.990 . S
Li442 O500 1.961 . S
Li442 O502 1.956 . S
Li442 O503 1.970 . S
Li443 N493 1.990 1_554 S
Li443 O501 1.961 . S
Li443 O502 1.970 . S
Li443 O503 1.956 . S
C444 C446 1.348 1_655 S
C444 C447 1.356 . S
C444 O500 1.325 . S
N445 C448 1.314 . S
N445 C449 1.279 . S
C446 C444 1.348 1_455 S
C446 C448 1.353 . S
C446 H504 0.930 . S
C447 C444 1.356 . S
C447 C449 1.358 1_655 S
C447 H505 0.930 . S
C448 N445 1.314 . S
C448 C446 1.353 . S
C448 H506 0.930 . S
C449 N445 1.279 . S
C449 C447 1.358 1_455 S
C449 H507 0.930 . S
C450 C453 1.348 . S
C450 C454 1.356 1_554 S
C450 O501 1.325 . S
C451 N452 1.279 1_556 S
C451 C454 1.358 . S
C451 H508 0.930 . S
N452 C451 1.279 1_554 S
N452 C455 1.314 . S
C453 C450 1.348 . S
C453 C455 1.353 . S
C453 H509 0.929 . S
C454 C450 1.356 1_556 S
C454 C451 1.358 . S
C454 H510 0.930 . S
C455 N452 1.314 . S
C455 C453 1.353 . S
C455 H511 0.930 . S
C456 N457 1.314 . S
C456 C461 1.353 . S
C456 H462 0.930 . S
N457 Li440 1.990 . S
N457 C456 1.314 . S
N457 C459 1.279 . S
C458 C459 1.358 . S
C458 C460 1.356 . S
C458 H512 0.930 . S
C459 N457 1.279 . S
C459 C458 1.358 . S
C459 H463 0.930 . S
C460 C458 1.356 . S
C460 C461 1.348 . S
C461 C456 1.353 . S
C461 C460 1.348 . S
C461 H513 0.929 . S
H462 C456 0.930 . S
H463 C459 0.930 . S
C464 N465 1.314 1_455 S
C464 C466 1.353 . S
C464 H470 0.930 . S
N465 Li441 1.990 . S
N465 C464 1.314 1_655 S
N465 C468 1.279 . S
C466 C464 1.353 . S
C466 C469 1.348 . S
C466 H514 0.929 . S
C467 C468 1.358 1_455 S
C467 C469 1.356 . S
C467 H515 0.930 1_455 S
C468 N465 1.279 . S
C468 C467 1.358 1_655 S
C468 H471 0.930 . S
C469 C466 1.348 . S
C469 C467 1.356 . S
H470 C464 0.930 . S
H471 C468 0.930 . S
C472 C474 1.348 . S
C472 C475 1.356 . S
C472 O502 1.325 . S
N473 C476 1.314 . S
N473 C477 1.279 . S
C474 C472 1.348 . S
C474 C476 1.353 . S
C474 H516 0.929 . S
C475 C472 1.356 . S
C475 C477 1.358 . S
C475 H517 0.930 . S
C476 N473 1.314 . S
C476 C474 1.353 . S
C476 H518 0.930 . S
C477 N473 1.279 . S
C477 C475 1.358 . S
C477 H519 0.930 . S
C478 C479 1.348 1_655 S
C478 C480 1.356 1_554 S
C478 O503 1.325 . S
C479 C478 1.348 1_455 S
C479 C481 1.353 1_554 S
C479 H520 0.930 . S
C480 C478 1.356 1_556 S
C480 C482 1.358 1_655 S
C480 H521 0.930 . S
C481 C479 1.353 1_556 S
C481 N483 1.314 . S
C481 H522 0.930 . S
C482 C480 1.358 1_455 S
C482 N483 1.279 . S
C482 H523 0.930 . S
N483 C481 1.314 . S
N483 C482 1.279 . S
C484 C486 1.353 . S
C484 N487 1.314 1_455 S
C484 H490 0.930 . S
C485 N487 1.279 . S
C485 C488 1.358 1_655 S
C485 H491 0.930 . S
C486 C484 1.353 . S
C486 C489 1.348 . S
C486 H524 0.929 . S
N487 Li442 1.990 . S
N487 C484 1.314 1_655 S
N487 C485 1.279 . S
C488 C485 1.358 1_455 S
C488 C489 1.356 . S
C488 H525 0.930 1_455 S
C489 C486 1.348 . S
C489 C488 1.356 . S
H490 C484 0.930 . S
H491 C485 0.930 . S
C492 N493 1.314 . S
C492 C494 1.353 . S
C492 H498 0.930 1_556 S
N493 Li443 1.990 1_556 S
N493 C492 1.314 . S
N493 C496 1.279 . S
C494 C492 1.353 . S
C494 C497 1.348 . S
C494 H526 0.929 . S
C495 C496 1.358 . S
C495 C497 1.356 . S
C495 H527 0.930 . S
C496 N493 1.279 . S
C496 C495 1.358 . S
C496 H499 0.930 . S
C497 C494 1.348 . S
C497 C495 1.356 . S
H498 C492 0.930 1_554 S
H499 C496 0.930 . S
O500 Li440 1.956 . S
O500 Li441 1.970 . S
O500 Li442 1.961 . S
O500 C444 1.325 . S
O501 Li440 1.970 . S
O501 Li441 1.956 . S
O501 Li443 1.961 . S
O501 C450 1.325 . S
O502 Li440 1.961 . S
O502 Li442 1.956 . S
O502 Li443 1.970 . S
O502 C472 1.325 . S
O503 Li441 1.961 . S
O503 Li442 1.970 . S
O503 Li443 1.956 . S
O503 C478 1.325 . S
H504 C446 0.930 . S
H505 C447 0.930 . S
H506 C448 0.930 . S
H507 C449 0.930 . S
H508 C451 0.930 . S
H509 C453 0.929 . S
H510 C454 0.930 . S
H511 C455 0.930 . S
H512 C458 0.930 . S
H513 C461 0.929 . S
H514 C466 0.929 . S
H515 C467 0.930 1_655 S
H516 C474 0.929 . S
H517 C475 0.930 . S
H518 C476 0.930 . S
H519 C477 0.930 . S
H520 C479 0.930 . S
H521 C480 0.930 . S
H522 C481 0.930 . S
H523 C482 0.930 . S
H524 C486 0.929 . S
H525 C488 0.930 1_655 S
H526 C494 0.929 . S
H527 C495 0.930 . S
Li528 N545 1.990 . S
Li528 O588 1.956 . S
Li528 O589 1.970 . S
Li528 O590 1.961 . S
Li529 N553 1.990 . S
Li529 O588 1.970 . S
Li529 O589 1.956 . S
Li529 O591 1.961 . S
Li530 N575 1.990 . S
Li530 O588 1.961 . S
Li530 O590 1.956 . S
Li530 O591 1.970 . S
Li531 N581 1.990 . S
Li531 O589 1.961 . S
Li531 O590 1.970 . S
Li531 O591 1.956 . S
C532 C534 1.348 . S
C532 C535 1.356 . S
C532 O588 1.325 . S
N533 C536 1.314 . S
N533 C537 1.279 . S
C534 C532 1.348 . S
C534 C536 1.353 . S
C534 H592 0.929 . S
C535 C532 1.356 . S
C535 C537 1.358 . S
C535 H593 0.930 . S
C536 N533 1.314 . S
C536 C534 1.353 . S
C536 H594 0.930 . S
C537 N533 1.279 . S
C537 C535 1.358 . S
C537 H595 0.930 . S
C538 C541 1.348 . S
C538 C542 1.356 . S
C538 O589 1.325 . S
C539 N540 1.279 . S
C539 C542 1.358 . S
C539 H596 0.930 . S
N540 C539 1.279 . S
N540 C543 1.314 . S
C541 C538 1.348 . S
C541 C543 1.353 . S
C541 H597 0.929 . S
C542 C538 1.356 . S
C542 C539 1.358 . S
C542 H598 0.930 . S
C543 N540 1.314 . S
C543 C541 1.353 . S
C543 H599 0.930 . S
C544 N545 1.314 . S
C544 C549 1.353 . S
C544 H550 0.930 . S
N545 Li528 1.990 . S
N545 C544 1.314 . S
N545 C547 1.279 . S
C546 C547 1.358 . S
C546 C548 1.356 . S
C546 H600 0.930 . S
C547 N545 1.279 . S
C547 C546 1.358 . S
C547 H551 0.930 . S
C548 C546 1.356 . S
C548 C549 1.348 . S
C549 C544 1.353 . S
C549 C548 1.348 . S
C549 H601 0.929 . S
H550 C544 0.930 . S
H551 C547 0.930 . S
C552 N553 1.314 . S
C552 C554 1.353 . S
C552 H558 0.930 . S
N553 Li529 1.990 . S
N553 C552 1.314 . S
N553 C556 1.279 . S
C554 C552 1.353 . S
C554 C557 1.348 . S
C554 H602 0.929 . S
C555 C556 1.358 . S
C555 C557 1.356 . S
C555 H603 0.930 . S
C556 N553 1.279 . S
C556 C555 1.358 . S
C556 H559 0.930 . S
C557 C554 1.348 . S
C557 C555 1.356 . S
H558 C552 0.930 . S
H559 C556 0.930 . S
C560 C562 1.348 . S
C560 C563 1.356 . S
C560 O590 1.325 . S
N561 C564 1.314 . S
N561 C565 1.279 . S
C562 C560 1.348 . S
C562 C564 1.353 . S
C562 H604 0.929 . S
C563 C560 1.356 . S
C563 C565 1.358 . S
C563 H605 0.930 . S
C564 N561 1.314 . S
C564 C562 1.353 . S
C564 H606 0.930 . S
C565 N561 1.279 . S
C565 C563 1.358 . S
C565 H607 0.930 . S
C566 C567 1.348 . S
C566 C568 1.356 . S
C566 O591 1.325 . S
C567 C566 1.348 . S
C567 C569 1.353 . S
C567 H608 0.929 . S
C568 C566 1.356 . S
C568 C570 1.358 . S
C568 H609 0.930 . S
C569 C567 1.353 . S
C569 N571 1.314 . S
C569 H610 0.930 . S
C570 C568 1.358 . S
C570 N571 1.279 . S
C570 H611 0.930 . S
N571 C569 1.314 . S
N571 C570 1.279 . S
C572 C574 1.353 . S
C572 N575 1.314 . S
C572 H578 0.930 . S
C573 N575 1.279 . S
C573 C576 1.358 . S
C573 H579 0.930 . S
C574 C572 1.353 . S
C574 C577 1.348 . S
C574 H612 0.929 . S
N575 Li530 1.990 . S
N575 C572 1.314 . S
N575 C573 1.279 . S
C576 C573 1.358 . S
C576 C577 1.356 . S
C576 H613 0.930 . S
C577 C574 1.348 . S
C577 C576 1.356 . S
H578 C572 0.930 . S
H579 C573 0.930 . S
C580 N581 1.314 . S
C580 C582 1.353 . S
C580 H586 0.930 . S
N581 Li531 1.990 . S
N581 C580 1.314 . S
N581 C584 1.279 . S
C582 C580 1.353 . S
C582 C585 1.348 . S
C582 H614 0.929 . S
C583 C584 1.358 . S
C583 C585 1.356 . S
C583 H615 0.930 . S
C584 N581 1.279 . S
C584 C583 1.358 . S
C584 H587 0.930 . S
C585 C582 1.348 . S
C585 C583 1.356 . S
H586 C580 0.930 . S
H587 C584 0.930 . S
O588 Li528 1.956 . S
O588 Li529 1.970 . S
O588 Li530 1.961 . S
O588 C532 1.325 . S
O589 Li528 1.970 . S
O589 Li529 1.956 . S
O589 Li531 1.961 . S
O589 C538 1.325 . S
O590 Li528 1.961 . S
O590 Li530 1.956 . S
O590 Li531 1.970 . S
O590 C560 1.325 . S
O591 Li529 1.961 . S
O591 Li530 1.970 . S
O591 Li531 1.956 . S
O591 C566 1.325 . S
H592 C534 0.929 . S
H593 C535 0.930 . S
H594 C536 0.930 . S
H595 C537 0.930 . S
H596 C539 0.930 . S
H597 C541 0.929 . S
H598 C542 0.930 . S
H599 C543 0.930 . S
H600 C546 0.930 . S
H601 C549 0.929 . S
H602 C554 0.929 . S
H603 C555 0.930 . S
H604 C562 0.929 . S
H605 C563 0.930 . S
H606 C564 0.930 . S
H607 C565 0.930 . S
H608 C567 0.929 . S
H609 C568 0.930 . S
H610 C569 0.930 . S
H611 C570 0.930 . S
H612 C574 0.929 . S
H613 C576 0.930 . S
H614 C582 0.929 . S
H615 C583 0.930 . S
Li616 N633 1.990 . S
Li616 O676 1.956 . S
Li616 O677 1.970 . S
Li616 O678 1.961 . S
Li617 N641 1.990 . S
Li617 O676 1.970 . S
Li617 O677 1.956 . S
Li617 O679 1.961 . S
Li618 N663 1.990 . S
Li618 O676 1.961 . S
Li618 O678 1.956 . S
Li618 O679 1.970 . S
Li619 N669 1.990 . S
Li619 O677 1.961 . S
Li619 O678 1.970 . S
Li619 O679 1.956 . S
C620 C622 1.348 . S
C620 C623 1.356 . S
C620 O676 1.325 . S
N621 C624 1.314 . S
N621 C625 1.279 . S
C622 C620 1.348 . S
C622 C624 1.353 . S
C622 H680 0.929 . S
C623 C620 1.356 . S
C623 C625 1.358 . S
C623 H681 0.930 . S
C624 N621 1.314 . S
C624 C622 1.353 . S
C624 H682 0.930 . S
C625 N621 1.279 . S
C625 C623 1.358 . S
C625 H683 0.930 . S
C626 C629 1.348 . S
C626 C630 1.356 . S
C626 O677 1.325 . S
C627 N628 1.279 . S
C627 C630 1.358 . S
C627 H684 0.930 . S
N628 C627 1.279 . S
N628 C631 1.314 . S
C629 C626 1.348 . S
C629 C631 1.353 . S
C629 H685 0.929 . S
C630 C626 1.356 . S
C630 C627 1.358 . S
C630 H686 0.930 . S
C631 N628 1.314 . S
C631 C629 1.353 . S
C631 H687 0.930 . S
C632 N633 1.314 . S
C632 C637 1.353 . S
C632 H638 0.930 . S
N633 Li616 1.990 . S
N633 C632 1.314 . S
N633 C635 1.279 . S
C634 C635 1.358 . S
C634 C636 1.356 . S
C634 H688 0.930 . S
C635 N633 1.279 . S
C635 C634 1.358 . S
C635 H639 0.930 . S
C636 C634 1.356 . S
C636 C637 1.348 . S
C637 C632 1.353 . S
C637 C636 1.348 . S
C637 H689 0.929 . S
H638 C632 0.930 . S
H639 C635 0.930 . S
C640 N641 1.314 . S
C640 C642 1.353 . S
C640 H646 0.930 . S
N641 Li617 1.990 . S
N641 C640 1.314 . S
N641 C644 1.279 . S
C642 C640 1.353 . S
C642 C645 1.348 . S
C642 H690 0.929 . S
C643 C644 1.358 . S
C643 C645 1.356 . S
C643 H691 0.930 . S
C644 N641 1.279 . S
C644 C643 1.358 . S
C644 H647 0.930 . S
C645 C642 1.348 . S
C645 C643 1.356 . S
H646 C640 0.930 . S
H647 C644 0.930 . S
C648 C650 1.348 . S
C648 C651 1.356 . S
C648 O678 1.325 . S
N649 C652 1.314 . S
N649 C653 1.279 . S
C650 C648 1.348 . S
C650 C652 1.353 . S
C650 H692 0.929 . S
C651 C648 1.356 . S
C651 C653 1.358 . S
C651 H693 0.930 . S
C652 N649 1.314 . S
C652 C650 1.353 . S
C652 H694 0.930 . S
C653 N649 1.279 . S
C653 C651 1.358 . S
C653 H695 0.930 . S
C654 C655 1.348 . S
C654 C656 1.356 . S
C654 O679 1.325 . S
C655 C654 1.348 . S
C655 C657 1.353 . S
C655 H696 0.929 . S
C656 C654 1.356 . S
C656 C658 1.358 . S
C656 H697 0.930 . S
C657 C655 1.353 . S
C657 N659 1.314 . S
C657 H698 0.930 . S
C658 C656 1.358 . S
C658 N659 1.279 . S
C658 H699 0.930 . S
N659 C657 1.314 . S
N659 C658 1.279 . S
C660 C662 1.353 . S
C660 N663 1.314 . S
C660 H666 0.930 . S
C661 N663 1.279 . S
C661 C664 1.358 . S
C661 H667 0.930 . S
C662 C660 1.353 . S
C662 C665 1.348 . S
C662 H700 0.929 . S
N663 Li618 1.990 . S
N663 C660 1.314 . S
N663 C661 1.279 . S
C664 C661 1.358 . S
C664 C665 1.356 . S
C664 H701 0.930 . S
C665 C662 1.348 . S
C665 C664 1.356 . S
H666 C660 0.930 . S
H667 C661 0.930 . S
C668 N669 1.314 . S
C668 C670 1.353 . S
C668 H674 0.930 . S
N669 Li619 1.990 . S
N669 C668 1.314 . S
N669 C672 1.279 . S
C670 C668 1.353 . S
C670 C673 1.348 . S
C670 H702 0.929 . S
C671 C672 1.358 . S
C671 C673 1.356 . S
C671 H703 0.930 . S
C672 N669 1.279 . S
C672 C671 1.358 . S
C672 H675 0.930 . S
C673 C670 1.348 . S
C673 C671 1.356 . S
H674 C668 0.930 . S
H675 C672 0.930 . S
O676 Li616 1.956 . S
O676 Li617 1.970 . S
O676 Li618 1.961 . S
O676 C620 1.325 . S
O677 Li616 1.970 . S
O677 Li617 1.956 . S
O677 Li619 1.961 . S
O677 C626 1.325 . S
O678 Li616 1.961 . S
O678 Li618 1.956 . S
O678 Li619 1.970 . S
O678 C648 1.325 . S
O679 Li617 1.961 . S
O679 Li618 1.970 . S
O679 Li619 1.956 . S
O679 C654 1.325 . S
H680 C622 0.929 . S
H681 C623 0.930 . S
H682 C624 0.930 . S
H683 C625 0.930 . S
H684 C627 0.930 . S
H685 C629 0.929 . S
H686 C630 0.930 . S
H687 C631 0.930 . S
H688 C634 0.930 . S
H689 C637 0.929 . S
H690 C642 0.929 . S
H691 C643 0.930 . S
H692 C650 0.929 . S
H693 C651 0.930 . S
H694 C652 0.930 . S
H695 C653 0.930 . S
H696 C655 0.929 . S
H697 C656 0.930 . S
H698 C657 0.930 . S
H699 C658 0.930 . S
H700 C662 0.929 . S
H701 C664 0.930 . S
H702 C670 0.929 . S
H703 C671 0.930 . S
C704 C705 1.387 . S
C704 H708 0.950 . S
C704 C713 1.390 1_556 S
C705 C704 1.387 . S
C705 C707 1.387 . S
H706 C713 0.950 . S
C707 C705 1.387 . S
C707 C709 1.390 1_556 S
C707 H711 0.950 . S
H708 C704 0.950 . S
C709 C707 1.390 1_554 S
C709 C710 1.387 . S
C709 H712 0.950 . S
C710 C709 1.387 . S
C710 C713 1.387 . S
H711 C707 0.950 . S
H712 C709 0.950 . S
C713 C704 1.390 1_554 S
C713 H706 0.950 . S
C713 C710 1.387 . S
C714 C715 1.387 . S
C714 H718 0.950 . S
C714 C723 1.390 . S
C715 C714 1.387 . S
C715 C717 1.387 . S
H716 C723 0.950 . S
C717 C715 1.387 . S
C717 C719 1.390 . S
C717 H721 0.950 . S
H718 C714 0.950 . S
C719 C717 1.390 . S
C719 C720 1.387 . S
C719 H722 0.950 . S
C720 C719 1.387 . S
C720 C723 1.387 . S
H721 C717 0.950 . S
H722 C719 0.950 . S
C723 C714 1.390 . S
C723 H716 0.950 . S
C723 C720 1.387 . S
C724 C725 1.387 . S
C724 H728 0.950 . S
C724 C733 1.390 . S
C725 C724 1.387 . S
C725 C727 1.387 . S
H726 C733 0.950 . S
C727 C725 1.387 . S
C727 C729 1.390 . S
C727 H731 0.950 . S
H728 C724 0.950 . S
C729 C727 1.390 . S
C729 C730 1.387 . S
C729 H732 0.950 . S
C730 C729 1.387 . S
C730 C733 1.387 . S
H731 C727 0.950 . S
H732 C729 0.950 . S
C733 C724 1.390 . S
C733 H726 0.950 . S
C733 C730 1.387 . S
C734 C735 1.387 . S
C734 H738 0.950 . S
C734 C743 1.390 . S
C735 C734 1.387 . S
C735 C737 1.387 . S
H736 C743 0.950 . S
C737 C735 1.387 . S
C737 C739 1.390 . S
C737 H741 0.950 . S
H738 C734 0.950 . S
C739 C737 1.390 . S
C739 C740 1.387 . S
C739 H742 0.950 . S
C740 C739 1.387 . S
C740 C743 1.387 . S
H741 C737 0.950 . S
H742 C739 0.950 . S
C743 C734 1.390 . S
C743 H736 0.950 . S
C743 C740 1.387 . S
C744 C745 1.387 . S
C744 H748 0.950 . S
C744 C753 1.390 . S
C745 C744 1.387 . S
C745 C747 1.387 . S
H746 C753 0.950 . S
C747 C745 1.387 . S
C747 C749 1.390 . S
C747 H751 0.950 . S
H748 C744 0.950 . S
C749 C747 1.390 . S
C749 C750 1.387 . S
C749 H752 0.950 . S
C750 C749 1.387 . S
C750 C753 1.387 . S
H751 C747 0.950 . S
H752 C749 0.950 . S
C753 C744 1.390 . S
C753 H746 0.950 . S
C753 C750 1.387 . S
C754 C755 1.387 . S
C754 H758 0.950 . S
C754 C763 1.390 . S
C755 C754 1.387 . S
C755 C757 1.387 . S
H756 C763 0.950 . S
C757 C755 1.387 . S
C757 C759 1.390 . S
C757 H761 0.950 . S
H758 C754 0.950 . S
C759 C757 1.390 . S
C759 C760 1.387 . S
C759 H762 0.950 . S
C760 C759 1.387 . S
C760 C763 1.387 . S
H761 C757 0.950 . S
H762 C759 0.950 . S
C763 C754 1.390 . S
C763 H756 0.950 . S
C763 C760 1.387 . S
C764 C765 1.387 . S
C764 H768 0.950 . S
C764 C773 1.390 1_554 S
C765 C764 1.387 . S
C765 C767 1.387 . S
H766 C773 0.950 . S
C767 C765 1.387 . S
C767 C769 1.390 1_554 S
C767 H771 0.950 . S
H768 C764 0.950 . S
C769 C767 1.390 1_556 S
C769 C770 1.387 . S
C769 H772 0.950 . S
C770 C769 1.387 . S
C770 C773 1.387 . S
H771 C767 0.950 . S
H772 C769 0.950 . S
C773 C764 1.390 1_556 S
C773 H766 0.950 . S
C773 C770 1.387 . S
C774 C775 1.387 . S
C774 H778 0.950 . S
C774 C783 1.390 . S
C775 C774 1.387 . S
C775 C777 1.387 . S
H776 C783 0.950 . S
C777 C775 1.387 . S
C777 C779 1.390 . S
C777 H781 0.950 . S
H778 C774 0.950 . S
C779 C777 1.390 . S
C779 C780 1.387 . S
C779 H782 0.950 . S
C780 C779 1.387 . S
C780 C783 1.387 . S
H781 C777 0.950 . S
H782 C779 0.950 . S
C783 C774 1.390 . S
C783 H776 0.950 . S
C783 C780 1.387 . S
C784 C785 1.387 . S
C784 H788 0.950 . S
C784 C793 1.390 . S
C785 C784 1.387 . S
C785 C787 1.387 . S
H786 C793 0.950 . S
C787 C785 1.387 . S
C787 C789 1.390 . S
C787 H791 0.950 . S
H788 C784 0.950 . S
C789 C787 1.390 . S
C789 C790 1.387 . S
C789 H792 0.950 . S
C790 C789 1.387 . S
C790 C793 1.387 . S
H791 C787 0.950 . S
H792 C789 0.950 . S
C793 C784 1.390 . S
C793 H786 0.950 . S
C793 C790 1.387 . S
C794 C795 1.387 . S
C794 H798 0.950 . S
C794 C803 1.390 . S
C795 C794 1.387 . S
C795 C797 1.387 . S
H796 C803 0.950 . S
C797 C795 1.387 . S
C797 C799 1.390 . S
C797 H801 0.950 . S
H798 C794 0.950 . S
C799 C797 1.390 . S
C799 C800 1.387 . S
C799 H802 0.950 . S
C800 C799 1.387 . S
C800 C803 1.387 . S
H801 C797 0.950 . S
H802 C799 0.950 . S
C803 C794 1.390 . S
C803 H796 0.950 . S
C803 C800 1.387 . S
C804 C805 1.387 1_554 S
C804 H808 0.950 . S
C804 C813 1.390 . S
C805 C804 1.387 1_556 S
C805 C807 1.387 . S
H806 C813 0.950 . S
C807 C805 1.387 . S
C807 C809 1.390 . S
C807 H811 0.950 . S
H808 C804 0.950 . S
C809 C807 1.390 . S
C809 C810 1.387 1_556 S
C809 H812 0.950 . S
C810 C809 1.387 1_554 S
C810 C813 1.387 . S
H811 C807 0.950 . S
H812 C809 0.950 . S
C813 C804 1.390 . S
C813 H806 0.950 . S
C813 C810 1.387 . S
C814 C815 1.387 . S
C814 H818 0.950 . S
C814 C823 1.390 . S
C815 C814 1.387 . S
C815 C817 1.387 . S
H816 C823 0.950 . S
C817 C815 1.387 . S
C817 C819 1.390 . S
C817 H821 0.950 . S
H818 C814 0.950 . S
C819 C817 1.390 . S
C819 C820 1.387 . S
C819 H822 0.950 . S
C820 C819 1.387 . S
C820 C823 1.387 . S
H821 C817 0.950 . S
H822 C819 0.950 . S
C823 C814 1.390 . S
C823 H816 0.950 . S
C823 C820 1.387 . S
C824 C825 1.387 . S
C824 H828 0.950 . S
C824 C833 1.390 . S
C825 C824 1.387 . S
C825 C827 1.387 . S
H826 C833 0.950 . S
C827 C825 1.387 . S
C827 C829 1.390 . S
C827 H831 0.950 . S
H828 C824 0.950 . S
C829 C827 1.390 . S
C829 C830 1.387 . S
C829 H832 0.950 . S
C830 C829 1.387 . S
C830 C833 1.387 . S
H831 C827 0.950 . S
H832 C829 0.950 . S
C833 C824 1.390 . S
C833 H826 0.950 . S
C833 C830 1.387 . S
C834 C835 1.387 1_556 S
C834 H838 0.950 . S
C834 C843 1.390 . S
C835 C834 1.387 1_554 S
C835 C837 1.387 . S
H836 C843 0.950 . S
C837 C835 1.387 . S
C837 C839 1.390 . S
C837 H841 0.950 . S
H838 C834 0.950 . S
C839 C837 1.390 . S
C839 C840 1.387 1_554 S
C839 H842 0.950 . S
C840 C839 1.387 1_556 S
C840 C843 1.387 . S
H841 C837 0.950 . S
H842 C839 0.950 . S
C843 C834 1.390 . S
C843 H836 0.950 . S
C843 C840 1.387 . S
C844 C845 1.387 . S
C844 H848 0.950 . S
C844 C853 1.390 . S
C845 C844 1.387 . S
C845 C847 1.387 . S
H846 C853 0.950 . S
C847 C845 1.387 . S
C847 C849 1.390 . S
C847 H851 0.950 . S
H848 C844 0.950 . S
C849 C847 1.390 . S
C849 C850 1.387 . S
C849 H852 0.950 . S
C850 C849 1.387 . S
C850 C853 1.387 . S
H851 C847 0.950 . S
H852 C849 0.950 . S
C853 C844 1.390 . S
C853 H846 0.950 . S
C853 C850 1.387 . S
C854 C855 1.387 . S
C854 H858 0.950 . S
C854 C863 1.390 . S
C855 C854 1.387 . S
C855 C857 1.387 . S
H856 C863 0.950 . S
C857 C855 1.387 . S
C857 C859 1.390 . S
C857 H861 0.950 . S
H858 C854 0.950 . S
C859 C857 1.390 . S
C859 C860 1.387 . S
C859 H862 0.950 . S
C860 C859 1.387 . S
C860 C863 1.387 . S
H861 C857 0.950 . S
H862 C859 0.950 . S
C863 C854 1.390 . S
C863 H856 0.950 . S
C863 C860 1.387 . S
C705 C108 1.411 . S
C710 C57 1.411 . S
C715 C145 1.411 . S
C720 C205 1.411 . S
C725 C293 1.412 . S
C730 C225 1.411 . S
C735 C313 1.410 . S
C740 C20 1.411 . S
C745 C409 1.412 . S
C750 C460 1.412 . S
C755 C497 1.411 . S
C760 C557 1.412 . S
C765 C577 1.412 . S
C770 C645 1.412 . S
C775 C372 1.411 . S
C780 C665 1.410 . S
C785 C49 1.572 . S
C790 C636 1.572 . S
C795 C381 1.572 . S
C800 C137 1.572 . S
C805 C469 1.572 1_556 S
C810 C233 1.572 1_554 S
C815 C321 1.571 . S
C820 C548 1.572 . S
C825 C196 1.572 . S
C830 C673 1.572 . S
C835 C401 1.572 1_554 S
C840 C284 1.572 1_556 S
C845 C489 1.572 . S
C850 C29 1.572 . S
C855 C117 1.572 . S
C860 C585 1.571 . S
