# Generated by pormake.
# Topology wkj, (6)-cn, num edge types: 1
# Building blocks:
#     Node 0, Type 0, BuildingBlock: PAMTUU_clean_sbu_0, # of connection points: 6
#     Node 1, Type 0, BuildingBlock: PAMTUU_clean_sbu_0, # of connection points: 6
#     Node 2, Type 0, BuildingBlock: PAMTUU_clean_sbu_0, # of connection points: 6
#     Node 3, Type 0, BuildingBlock: PAMTUU_clean_sbu_0, # of connection points: 6
#     Node 4, Type 0, BuildingBlock: PAMTUU_clean_sbu_0, # of connection points: 6
#     Node 5, Type 0, BuildingBlock: PAMTUU_clean_sbu_0, # of connection points: 6
#     Node 6, Type 0, BuildingBlock: PAMTUU_clean_sbu_0, # of connection points: 6
#     Node 7, Type 0, BuildingBlock: PAMTUU_clean_sbu_0, # of connection points: 6
#     Node 8, Type 0, BuildingBlock: PAMTUU_clean_sbu_0, # of connection points: 6
#     Node 9, Type 0, BuildingBlock: PAMTUU_clean_sbu_0, # of connection points: 6
#     Node 10, Type 0, BuildingBlock: PAMTUU_clean_sbu_0, # of connection points: 6
#     Node 11, Type 0, BuildingBlock: PAMTUU_clean_sbu_0, # of connection points: 6
#     Edge 12, Type (0, 0), BuildingBlock: XUDNAN_clean_linker_2, # of connection points: 2
#     Edge 13, Type (0, 0), BuildingBlock: XUDNAN_clean_linker_2, # of connection points: 2
#     Edge 14, Type (0, 0), BuildingBlock: XUDNAN_clean_linker_2, # of connection points: 2
#     Edge 15, Type (0, 0), BuildingBlock: XUDNAN_clean_linker_2, # of connection points: 2
#     Edge 16, Type (0, 0), BuildingBlock: XUDNAN_clean_linker_2, # of connection points: 2
#     Edge 17, Type (0, 0), BuildingBlock: XUDNAN_clean_linker_2, # of connection points: 2
#     Edge 18, Type (0, 0), BuildingBlock: XUDNAN_clean_linker_2, # of connection points: 2
#     Edge 19, Type (0, 0), BuildingBlock: XUDNAN_clean_linker_2, # of connection points: 2
#     Edge 20, Type (0, 0), BuildingBlock: XUDNAN_clean_linker_2, # of connection points: 2
#     Edge 21, Type (0, 0), BuildingBlock: XUDNAN_clean_linker_2, # of connection points: 2
#     Edge 22, Type (0, 0), BuildingBlock: XUDNAN_clean_linker_2, # of connection points: 2
#     Edge 23, Type (0, 0), BuildingBlock: XUDNAN_clean_linker_2, # of connection points: 2
#     Edge 24, Type (0, 0), BuildingBlock: XUDNAN_clean_linker_2, # of connection points: 2
#     Edge 25, Type (0, 0), BuildingBlock: XUDNAN_clean_linker_2, # of connection points: 2
#     Edge 26, Type (0, 0), BuildingBlock: XUDNAN_clean_linker_2, # of connection points: 2
#     Edge 27, Type (0, 0), BuildingBlock: XUDNAN_clean_linker_2, # of connection points: 2
#     Edge 28, Type (0, 0), BuildingBlock: XUDNAN_clean_linker_2, # of connection points: 2
#     Edge 29, Type (0, 0), BuildingBlock: XUDNAN_clean_linker_2, # of connection points: 2
#     Edge 30, Type (0, 0), BuildingBlock: XUDNAN_clean_linker_2, # of connection points: 2
#     Edge 31, Type (0, 0), BuildingBlock: XUDNAN_clean_linker_2, # of connection points: 2
#     Edge 32, Type (0, 0), BuildingBlock: XUDNAN_clean_linker_2, # of connection points: 2
#     Edge 33, Type (0, 0), BuildingBlock: XUDNAN_clean_linker_2, # of connection points: 2
#     Edge 34, Type (0, 0), BuildingBlock: XUDNAN_clean_linker_2, # of connection points: 2
#     Edge 35, Type (0, 0), BuildingBlock: XUDNAN_clean_linker_2, # of connection points: 2
#     Edge 36, Type (0, 0), BuildingBlock: XUDNAN_clean_linker_2, # of connection points: 2
#     Edge 37, Type (0, 0), BuildingBlock: XUDNAN_clean_linker_2, # of connection points: 2
#     Edge 38, Type (0, 0), BuildingBlock: XUDNAN_clean_linker_2, # of connection points: 2
#     Edge 39, Type (0, 0), BuildingBlock: XUDNAN_clean_linker_2, # of connection points: 2
#     Edge 40, Type (0, 0), BuildingBlock: XUDNAN_clean_linker_2, # of connection points: 2
#     Edge 41, Type (0, 0), BuildingBlock: XUDNAN_clean_linker_2, # of connection points: 2
#     Edge 42, Type (0, 0), BuildingBlock: XUDNAN_clean_linker_2, # of connection points: 2
#     Edge 43, Type (0, 0), BuildingBlock: XUDNAN_clean_linker_2, # of connection points: 2
#     Edge 44, Type (0, 0), BuildingBlock: XUDNAN_clean_linker_2, # of connection points: 2
#     Edge 45, Type (0, 0), BuildingBlock: XUDNAN_clean_linker_2, # of connection points: 2
#     Edge 46, Type (0, 0), BuildingBlock: XUDNAN_clean_linker_2, # of connection points: 2
#     Edge 47, Type (0, 0), BuildingBlock: XUDNAN_clean_linker_2, # of connection points: 2
# Relax obj value: 0.815
# Max RMSD: 0.189
# Mean RMSD: 0.189
data_MOF--net-wkj--node1-PAMTUU_clean_sbu_0--edge1-XUDNAN_clean_linker_2
_symmetry_space_group_name_H-M    P1
_symmetry_Int_Tables_number       1
_symmetry_cell_setting            triclinic
loop_
_symmetry_equiv_pos_as_xyz
'x, y, z'
_cell_length_a     49.256829
_cell_length_b     49.111087
_cell_length_c     29.365837
_cell_angle_alpha  89.817616
_cell_angle_beta   90.251073
_cell_angle_gamma 119.93943
loop_
_atom_site_label
_atom_site_type_symbol
_atom_site_fract_x
_atom_site_fract_y
_atom_site_fract_z
_atom_type_partial_charge
Tb0 Tb 0.54985 0.11514 0.35525 0.0
Tb1 Tb 0.47992 0.09592 0.37548 0.0
C2 C 0.50638 0.05466 0.41237 0.0
C3 C 0.62986 0.17141 0.32418 0.0
C4 C 0.65825 0.23353 0.29182 0.0
C5 C 0.66415 0.21135 0.27056 0.0
C6 C 0.64988 0.18042 0.28653 0.0
C7 C 0.62746 0.19453 0.34906 0.0
C8 C 0.64167 0.22543 0.33304 0.0
C9 C 0.60607 0.13811 0.32996 0.0
O10 O 0.52374 0.08255 0.29592 0.0
O11 O 0.47325 0.0709 0.30771 0.0
O12 O 0.4979 0.13976 0.33647 0.0
O13 O 0.54857 0.15943 0.35561 0.0
O14 O 0.43146 0.06829 0.36568 0.0
O15 O 0.45066 0.10955 0.40806 0.0
O16 O 0.50287 0.10679 0.44783 0.0
O17 O 0.554 0.12246 0.43053 0.0
O18 O 0.53443 0.07281 0.3953 0.0
O19 O 0.48165 0.05521 0.3974 0.0
C20 C 0.49383 0.06759 0.28233 0.0
O21 O 0.59665 0.12853 0.37123 0.0
O22 O 0.58245 0.12852 0.30211 0.0
C23 C 0.52598 0.16403 0.34099 0.0
C24 C 0.40119 0.06701 0.42711 0.0
C25 C 0.35367 0.02665 0.48662 0.0
C26 C 0.34646 0.03973 0.44921 0.0
C27 C 0.37014 0.05963 0.41929 0.0
C28 C 0.40858 0.05501 0.46549 0.0
C29 C 0.38495 0.03477 0.49491 0.0
C30 C 0.4252 0.08508 0.39324 0.0
C31 C 0.53243 0.11634 0.46217 0.0
H32 H 0.6766 0.21676 0.2385 0.0
H33 H 0.65189 0.16292 0.26675 0.0
H34 H 0.61212 0.18815 0.37829 0.0
H35 H 0.63691 0.24212 0.35014 0.0
H36 H 0.32249 0.03383 0.44248 0.0
H37 H 0.36417 0.06875 0.3896 0.0
H38 H 0.43253 0.06092 0.47219 0.0
H39 H 0.39106 0.02536 0.52413 0.0
Tb40 Tb 0.42942 0.55505 0.67506 0.0
Tb41 Tb 0.40256 0.48734 0.71494 0.0
C42 C 0.47177 0.53948 0.7363 0.0
C43 C 0.42405 0.61091 0.60118 0.0
C44 C 0.38167 0.60682 0.5331 0.0
C45 C 0.39892 0.59129 0.52796 0.0
C46 C 0.41975 0.59318 0.56165 0.0
C47 C 0.40833 0.62811 0.6051 0.0
C48 C 0.38734 0.6262 0.57113 0.0
C49 C 0.43935 0.60628 0.64142 0.0
O50 O 0.4432 0.53288 0.6183 0.0
O51 O 0.41875 0.48246 0.64488 0.0
O52 O 0.36428 0.49829 0.7165 0.0
O53 O 0.37997 0.52846 0.65427 0.0
O54 O 0.40031 0.45109 0.75562 0.0
O55 O 0.36631 0.44144 0.70211 0.0
O56 O 0.40933 0.51168 0.78201 0.0
O57 O 0.42954 0.56159 0.75275 0.0
O58 O 0.46815 0.56155 0.71708 0.0
O59 O 0.45247 0.50943 0.72859 0.0
C60 C 0.4352 0.50285 0.61217 0.0
O61 O 0.42026 0.59238 0.67524 0.0
O62 O 0.45767 0.59451 0.63431 0.0
C63 C 0.35765 0.51174 0.68309 0.0
C64 C 0.34894 0.41087 0.76896 0.0
C65 C 0.30741 0.38009 0.8413 0.0
C66 C 0.30389 0.40172 0.81398 0.0
C67 C 0.32469 0.41722 0.77828 0.0
C68 C 0.35104 0.38769 0.79375 0.0
C69 C 0.33062 0.37252 0.82967 0.0
C70 C 0.37404 0.43015 0.73697 0.0
C71 C 0.42196 0.54237 0.78922 0.0
H72 H 0.39545 0.5767 0.49845 0.0
H73 H 0.43116 0.57933 0.55773 0.0
H74 H 0.41093 0.64156 0.63561 0.0
H75 H 0.37438 0.63846 0.5757 0.0
H76 H 0.28614 0.40789 0.82165 0.0
H77 H 0.32267 0.43511 0.75937 0.0
H78 H 0.36968 0.3826 0.78704 0.0
H79 H 0.33475 0.35663 0.85028 0.0
Tb80 Tb 0.88297 0.42583 1.03665 0.0
Tb81 Tb 0.91251 0.38375 1.05707 0.0
C82 C 0.94201 0.45121 1.09932 0.0
C83 C 0.82091 0.44051 0.99717 0.0
C84 C 0.76381 0.41071 0.94825 0.0
C85 C 0.7831 0.44381 0.94763 0.0
C86 C 0.81178 0.45845 0.97101 0.0
C87 C 0.79978 0.40848 1.00341 0.0
C88 C 0.77182 0.39367 0.97898 0.0
C89 C 0.85346 0.45372 1.013 0.0
O90 O 0.91324 0.43186 0.97313 0.0
O91 O 0.9426 0.41046 0.99771 0.0
O92 O 0.87586 0.36093 1.00531 0.0
O93 O 0.84419 0.37653 1.03363 0.0
O94 O 0.94688 0.37054 1.06309 0.0
O95 O 0.89744 0.33643 1.0696 0.0
O96 O 0.89125 0.38571 1.12584 0.0
O97 O 0.87899 0.42444 1.11346 0.0
O98 O 0.92721 0.45872 1.06874 0.0
O99 O 0.94059 0.42383 1.09934 0.0
C100 C 0.93662 0.42575 0.96545 0.0
O101 O 0.85691 0.44745 1.05485 0.0
O102 O 0.87149 0.4489 0.98601 0.0
C103 C 0.8473 0.35526 1.01147 0.0
C104 C 0.93232 0.32683 1.11087 0.0
C105 C 0.94172 0.29669 0.18559 0.0
C106 C 0.94197 0.28641 0.14112 0.0
C107 C 0.93718 0.30136 1.10396 0.0
C108 C 0.93202 0.3372 0.15507 0.0
C109 C 0.93676 0.32229 0.19216 0.0
C110 C 0.92602 0.34134 1.07189 0.0
C111 C 0.88276 0.40586 0.1428 0.0
H112 H 0.77729 0.45839 0.92681 0.0
H113 H 0.82748 0.48346 0.96672 0.0
H114 H 0.80577 0.39433 1.02479 0.0
H115 H 0.75827 0.36841 0.98173 0.0
H116 H 0.9458 0.26683 1.13514 0.0
H117 H 0.93717 0.293 1.06985 0.0
H118 H 0.92818 0.3568 0.16083 0.0
H119 H 0.93723 0.33129 0.22596 0.0
Tb120 Tb 0.44825 0.88231 0.35576 0.0
Tb121 Tb 0.51891 0.90487 0.3819 0.0
C122 C 0.48579 0.93932 0.42091 0.0
C123 C 0.37246 0.83064 0.30135 0.0
C124 C 0.34854 0.7775 0.24424 0.0
C125 C 0.35878 0.80758 0.22582 0.0
C126 C 0.3706 0.8339 0.25412 0.0
C127 C 0.35901 0.80018 0.32004 0.0
C128 C 0.34734 0.77389 0.29173 0.0
C129 C 0.39184 0.85857 0.33008 0.0
O130 O 0.47551 0.92245 0.3066 0.0
O131 O 0.5214 0.92205 0.30865 0.0
O132 O 0.50303 0.85647 0.36125 0.0
O133 O 0.45607 0.84461 0.32937 0.0
O134 O 0.56587 0.9346 0.36439 0.0
O135 O 0.55381 0.90275 0.42101 0.0
O136 O 0.49566 0.8917 0.45253 0.0
O137 O 0.44421 0.87001 0.43052 0.0
O138 O 0.45818 0.91867 0.40506 0.0
O139 O 0.51156 0.94282 0.40277 0.0
C140 C 0.50337 0.93161 0.28801 0.0
O141 O 0.4005 0.85281 0.36905 0.0
O142 O 0.41511 0.88267 0.31028 0.0
C143 C 0.47781 0.83716 0.33837 0.0
C144 C 0.60144 0.95093 0.42601 0.0
C145 C 0.65013 0.99814 0.47852 0.0
C146 C 0.64404 0.96693 0.48008 0.0
C147 C 0.62006 0.94365 0.45387 0.0
C148 C 0.60752 0.98208 0.42391 0.0
C149 C 0.63179 0.00549 0.44968 0.0
C150 C 0.5764 0.92584 0.39876 0.0
C151 C 0.46525 0.87772 0.46403 0.0
H152 H 0.36026 0.81126 0.18932 0.0
H153 H 0.38031 0.85696 0.23872 0.0
H154 H 0.3594 0.79671 0.35643 0.0
H155 H 0.33929 0.75098 0.30685 0.0
H156 H 0.65708 0.96016 0.50268 0.0
H157 H 0.61576 0.91978 0.45586 0.0
H158 H 0.59348 0.98835 0.40258 0.0
H159 H 0.63592 0.02928 0.44742 0.0
Tb160 Tb 0.56625 0.45339 0.69172 0.0
Tb161 Tb 0.62237 0.52469 0.70349 0.0
C162 C 0.55747 0.50429 0.73705 0.0
C163 C 0.53586 0.37426 0.65054 0.0
C164 C 0.56944 0.35361 0.59779 0.0
C165 C 0.54502 0.35661 0.57812 0.0
C166 C 0.52828 0.3669 0.60438 0.0
C167 C 0.55685 0.36632 0.67138 0.0
C168 C 0.5737 0.3563 0.64503 0.0
C169 C 0.52826 0.39652 0.67323 0.0
O170 O 0.56231 0.47923 0.62896 0.0
O171 O 0.60779 0.527 0.63109 0.0
O172 O 0.64609 0.50303 0.66996 0.0
O173 O 0.61021 0.45165 0.68359 0.0
O174 O 0.63704 0.57282 0.70545 0.0
O175 O 0.66962 0.55656 0.71794 0.0
O176 O 0.61343 0.50393 0.77628 0.0
O177 O 0.57036 0.45449 0.76797 0.0
O178 O 0.54559 0.47389 0.73517 0.0
O179 O 0.57729 0.52114 0.70579 0.0
C180 C 0.58112 0.50734 0.60972 0.0
O181 O 0.54087 0.40635 0.71303 0.0
O182 O 0.53127 0.4199 0.64836 0.0
C183 C 0.63885 0.47358 0.67237 0.0
C184 C 0.67851 0.60218 0.75563 0.0
C185 C 0.70347 0.64394 0.82912 0.0
C186 C 0.71568 0.65367 0.78519 0.0
C187 C 0.70329 0.63282 0.74864 0.0
C188 C 0.66627 0.59233 0.79935 0.0
C189 C 0.67863 0.61307 0.83584 0.0
C190 C 0.66552 0.58075 0.71706 0.0
C191 C 0.5913 0.47671 0.79517 0.0
H192 H 0.54166 0.35498 0.54152 0.0
H193 H 0.51202 0.37246 0.58754 0.0
H194 H 0.56295 0.37116 0.70707 0.0
H195 H 0.59263 0.35435 0.6607 0.0
H196 H 0.7347 0.67734 0.77917 0.0
H197 H 0.71291 0.64064 0.7149 0.0
H198 H 0.64702 0.56874 0.80514 0.0
H199 H 0.66822 0.60517 0.86915 0.0
Tb200 Tb 0.1178 0.55559 1.02931 0.0
Tb201 Tb 0.09899 0.60802 1.05168 0.0
C202 C 0.05869 0.54097 1.08317 0.0
C203 C 0.16602 0.52436 0.98435 0.0
C204 C 0.22005 0.54435 0.93082 0.0
C205 C 0.19123 0.51846 0.91734 0.0
C206 C 0.16446 0.50856 0.94394 0.0
C207 C 0.19533 0.54846 0.99978 0.0
C208 C 0.2221 0.55821 0.97338 0.0
C209 C 0.13687 0.51825 1.00714 0.0
O210 O 0.08264 0.54891 0.97376 0.0
O211 O 0.08363 0.59591 0.97796 0.0
O212 O 0.14613 0.63735 1.02485 0.0
O213 O 0.16017 0.60027 1.00985 0.0
O214 O 0.06656 0.62329 1.04122 0.0
O215 O 0.10705 0.64948 1.084 0.0
O216 O 0.10877 0.5953 1.1235 0.0
O217 O 0.12838 0.56315 1.10419 0.0
O218 O 0.0789 0.5316 1.07632 0.0
O219 O 0.0589 0.56172 1.05557 0.0
C220 C 0.0741 0.5687 0.9563 0.0
O221 O 0.14017 0.5303 1.04741 0.0
O222 O 0.1174 0.52279 0.98261 0.0
C223 C 0.16681 0.62989 1.01089 0.0
C224 C 0.06142 0.65212 1.10042 0.0
C225 C 0.02345 0.66297 0.15987 0.0
C226 C 0.02141 0.66635 1.11278 0.0
C227 C 0.04045 0.66114 1.08327 0.0
C228 C 0.06319 0.64826 0.14743 0.0
C229 C 0.04446 0.65385 0.17696 0.0
C230 C 0.08116 0.6471 1.0684 0.0
C231 C 0.12085 0.5772 0.13656 0.0
H232 H 0.18868 0.5075 0.88446 0.0
H233 H 0.14215 0.48991 0.93146 0.0
H234 H 0.19739 0.5611 1.03095 0.0
H235 H 0.24399 0.57802 0.98482 0.0
H236 H 0.00531 0.67325 1.09892 0.0
H237 H 0.0388 0.66413 1.04697 0.0
H238 H 0.0789 0.64087 0.16133 0.0
H239 H 0.04595 0.65041 0.21316 0.0
Tb240 Tb 0.88394 0.44099 0.59589 0.0
Tb241 Tb 0.90115 0.51087 0.57389 0.0
C242 C 0.94243 0.48564 0.54037 0.0
C243 C 0.83181 0.36293 0.63995 0.0
C244 C 0.77356 0.33695 0.68421 0.0
C245 C 0.79829 0.33429 0.70365 0.0
C246 C 0.82728 0.34731 0.68168 0.0
C247 C 0.80595 0.36209 0.61801 0.0
C248 C 0.777 0.34906 0.63994 0.0
C249 C 0.8639 0.38582 0.62535 0.0
O250 O 0.92198 0.47066 0.64758 0.0
O251 O 0.92129 0.5168 0.64528 0.0
O252 O 0.85843 0.49349 0.6135 0.0
O253 O 0.83938 0.44154 0.60226 0.0
O254 O 0.93309 0.55916 0.56771 0.0
O255 O 0.88375 0.54042 0.55483 0.0
O256 O 0.88901 0.4872 0.5025 0.0
O257 O 0.87425 0.43614 0.521 0.0
O258 O 0.92293 0.45602 0.54934 0.0
O259 O 0.94249 0.50721 0.56606 0.0
C260 C 0.93073 0.49871 0.66608 0.0
O261 O 0.8679 0.39318 0.58238 0.0
O262 O 0.87772 0.41081 0.65074 0.0
C263 C 0.83479 0.46487 0.61323 0.0
C264 C 0.91818 0.58574 0.51413 0.0
C265 C 0.92923 0.62359 0.4368 0.0
C266 C 0.90224 0.61424 0.46295 0.0
C267 C 0.89689 0.59561 0.50159 0.0
C268 C 0.94533 0.59545 0.48832 0.0
C269 C 0.95081 0.61418 0.45 0.0
C270 C 0.91149 0.56531 0.55403 0.0
C271 C 0.87932 0.45745 0.48897 0.0
H272 H 0.79639 0.32537 0.73798 0.0
H273 H 0.84691 0.34785 0.69932 0.0
H274 H 0.80875 0.37405 0.58583 0.0
H275 H 0.75823 0.35125 0.62428 0.0
H276 H 0.88526 0.62111 0.4533 0.0
H277 H 0.87586 0.58851 0.52135 0.0
H278 H 0.96208 0.58822 0.4973 0.0
H279 H 0.97149 0.62045 0.42982 0.0
Tb280 Tb 0.43496 0.8812 0.91257 0.0
Tb281 Tb 0.38047 0.89586 0.89716 0.0
C282 C 0.44543 0.93662 0.84834 0.0
C283 C 0.46366 0.82934 0.94901 0.0
C284 C 0.43335 0.77072 0.99332 0.0
C285 C 0.42337 0.77419 0.94986 0.0
C286 C 0.43824 0.80338 0.92802 0.0
C287 C 0.47637 0.82471 0.98907 0.0
C288 C 0.46138 0.79559 1.01108 0.0
C289 C 0.47152 0.8615 0.93639 0.0
O290 O 0.44142 0.91389 0.97227 0.0
O291 O 0.40235 0.92536 0.96021 0.0
O292 O 0.36019 0.85444 0.94117 0.0
O293 O 0.39048 0.83572 0.9155 0.0
O294 O 0.3598 0.92427 0.89522 0.0
O295 O 0.33268 0.87444 0.88135 0.0
O296 O 0.3871 0.87836 0.82722 0.0
O297 O 0.43166 0.87497 0.83668 0.0
O298 O 0.45886 0.92521 0.87523 0.0
O299 O 0.41625 0.92959 0.85323 0.0
C300 C 0.42619 0.92865 0.98584 0.0
O301 O 0.46683 0.86628 0.89425 0.0
O302 O 0.46039 0.87405 0.96418 0.0
C303 C 0.36409 0.83046 0.934 0.0
C304 C 0.32119 0.90728 0.83843 0.0
C305 C 0.2979 0.91654 0.75592 0.0
C306 C 0.27954 0.9084 0.79554 0.0
C307 C 0.29113 0.90368 0.83662 0.0
C308 C 0.33951 0.91538 0.79905 0.0
C309 C 0.32806 0.92012 0.75826 0.0
C310 C 0.33313 0.90121 0.88057 0.0
C311 C 0.41 0.87432 0.80889 0.0
H312 H 0.40212 0.75533 0.93505 0.0
H313 H 0.42796 0.80628 0.89701 0.0
H314 H 0.49589 0.84442 1.00587 0.0
H315 H 0.46971 0.79387 1.04456 0.0
H316 H 0.25629 0.90557 0.79468 0.0
H317 H 0.27666 0.89713 0.86683 0.0
H318 H 0.36272 0.91809 0.79989 0.0
H319 H 0.34319 0.92722 0.72872 0.0
Tb320 Tb 0.56097 0.4417 0.2476 0.0
Tb321 Tb 0.48848 0.39326 0.22423 0.0
C322 C 0.52036 0.46159 0.1932 0.0
C323 C 0.64025 0.46587 0.28639 0.0
C324 C 0.67174 0.44278 0.34023 0.0
C325 C 0.68227 0.47533 0.33857 0.0
C326 C 0.66609 0.48666 0.31264 0.0
C327 C 0.63319 0.4346 0.28201 0.0
C328 C 0.64867 0.42311 0.30868 0.0
C329 C 0.6185 0.47534 0.26774 0.0
O330 O 0.53437 0.45139 0.30248 0.0
O331 O 0.48679 0.4062 0.2979 0.0
O332 O 0.50365 0.36063 0.24806 0.0
O333 O 0.55421 0.39549 0.26911 0.0
O334 O 0.44156 0.37911 0.23833 0.0
O335 O 0.45331 0.35558 0.18704 0.0
O336 O 0.51058 0.40549 0.15294 0.0
O337 O 0.56259 0.43213 0.173 0.0
O338 O 0.54915 0.46891 0.20212 0.0
O339 O 0.49797 0.44092 0.21868 0.0
C340 C 0.50574 0.43301 0.31967 0.0
O341 O 0.60805 0.46487 0.22723 0.0
O342 O 0.59578 0.4712 0.29459 0.0
C343 C 0.53065 0.36641 0.26524 0.0
C344 C 0.40655 0.35786 0.1766 0.0
C345 C 0.35765 0.35397 1.12217 0.0
C346 C 0.35749 0.35815 0.16933 0.0
C347 C 0.38163 0.3598 0.19638 0.0
C348 C 0.40694 0.35421 1.12926 0.0
C349 C 0.38264 0.35222 1.10232 0.0
C350 C 0.43092 0.3582 0.20617 0.0
C351 C 0.54078 0.42078 0.14032 0.0
H352 H 0.70111 0.49165 0.36045 0.0
H353 H 0.67251 0.51115 0.31534 0.0
H354 H 0.61403 0.41836 0.26052 0.0
H355 H 0.63992 0.39808 0.30767 0.0
H356 H 0.33852 0.35972 0.18524 0.0
H357 H 0.38075 0.36241 0.23288 0.0
H358 H 0.42585 0.35273 1.11299 0.0
H359 H 0.3836 0.34971 1.0658 0.0
Tb360 Tb 0.11901 0.54257 0.58666 0.0
Tb361 Tb 0.08895 0.47053 0.57167 0.0
C362 C 0.05856 0.50693 0.52722 0.0
C363 C 0.18082 0.61811 0.62589 0.0
C364 C 0.2364 0.63302 0.67312 0.0
C365 C 0.21256 0.63634 0.69429 0.0
C366 C 0.18509 0.62906 0.67078 0.0
C367 C 0.20617 0.61872 0.60294 0.0
C368 C 0.2338 0.62629 0.62633 0.0
C369 C 0.14872 0.60016 0.60724 0.0
O370 O 0.09358 0.51977 0.65371 0.0
O371 O 0.06012 0.46952 0.63167 0.0
O372 O 0.12884 0.48551 0.61865 0.0
O373 O 0.15866 0.53355 0.58953 0.0
O374 O 0.05411 0.42351 0.57856 0.0
O375 O 0.10002 0.43595 0.55273 0.0
O376 O 0.1077 0.49164 0.50042 0.0
O377 O 0.12167 0.54335 0.51015 0.0
O378 O 0.07386 0.52995 0.55646 0.0
O379 O 0.06 0.48103 0.52876 0.0
C380 C 0.06875 0.4915 0.66332 0.0
O381 O 0.1462 0.58969 0.56602 0.0
O382 O 0.1283 0.57842 0.6339 0.0
C383 C 0.1568 0.50953 0.61156 0.0
C384 C 0.05697 0.38837 0.52754 0.0
C385 C 0.02647 0.33878 0.46541 0.0
C386 C 0.04696 0.33806 0.49808 0.0
C387 C 0.06199 0.36268 0.52919 0.0
C388 C 0.03699 0.38945 0.49442 0.0
C389 C 0.02177 0.36478 0.46369 0.0
C390 C 0.07175 0.41319 0.5617 0.0
C391 C 0.11685 0.52021 0.48205 0.0
H392 H 0.21345 0.64127 0.73034 0.0
H393 H 0.166 0.62899 0.68911 0.0
H394 H 0.20384 0.61077 0.56803 0.0
H395 H 0.25194 0.62413 0.6088 0.0
H396 H 0.05111 0.31839 0.49974 0.0
H397 H 0.07738 0.36159 0.5547 0.0
H398 H 0.03305 0.40925 0.49248 0.0
H399 H 0.0067 0.36629 0.43802 0.0
Tb400 Tb 0.57437 0.12421 0.91876 0.0
Tb401 Tb 0.6102 0.08606 0.89437 0.0
C402 C 0.54073 0.06004 0.87273 0.0
C403 C 0.56782 0.18929 0.9671 0.0
C404 C 0.59626 0.24222 1.02531 0.0
C405 C 0.56354 0.22611 1.0177 0.0
C406 C 0.54941 0.19965 0.98911 0.0
C407 C 0.60038 0.20643 0.97253 0.0
C408 C 0.61434 0.23206 1.00158 0.0
C409 C 0.55388 0.1608 0.93856 0.0
O410 O 0.56377 0.09143 0.98021 0.0
O411 O 0.59476 0.06951 0.96656 0.0
O412 O 0.64706 0.13545 0.89691 0.0
O413 O 0.62339 0.1551 0.94108 0.0
O414 O 0.61528 0.05214 0.85831 0.0
O415 O 0.64778 0.0792 0.91173 0.0
O416 O 0.60245 0.0993 0.82367 0.0
O417 O 0.57607 0.12576 0.84022 0.0
O418 O 0.53933 0.08544 0.88002 0.0
O419 O 0.56007 0.05497 0.89713 0.0
C420 C 0.57466 0.07237 0.99362 0.0
O421 O 0.56994 0.16325 0.90216 0.0
O422 O 0.54498 0.13412 0.95938 0.0
C423 C 0.64896 0.15788 0.92307 0.0
C424 C 0.66784 0.06916 0.84556 0.0
C425 C 0.70542 0.08171 0.76821 0.0
C426 C 0.694 0.05299 0.79151 0.0
C427 C 0.67513 0.04669 0.82992 0.0
C428 C 0.6817 0.09893 0.825 0.0
C429 C 0.70045 0.1052 0.78661 0.0
C430 C 0.64206 0.06008 0.87762 0.0
C431 C 0.58741 0.11405 0.80899 0.0
H432 H 0.5487 0.23333 1.03465 0.0
H433 H 0.5242 0.18707 0.98476 0.0
H434 H 0.61519 0.19961 0.95491 0.0
H435 H 0.63928 0.24267 1.00701 0.0
H436 H 0.69709 0.03431 0.7776 0.0
H437 H 0.6644 0.02354 0.84528 0.0
H438 H 0.67613 0.1165 0.83647 0.0
H439 H 0.7089 0.12743 0.76911 0.0
Tb440 Tb 0.46264 0.57044 0.23359 0.0
Tb441 Tb 0.5337 0.62392 0.2193 0.0
C442 C 0.50612 0.55873 0.17217 0.0
C443 C 0.37754 0.53469 0.24052 0.0
C444 C 0.32752 0.54499 0.2593 0.0
C445 C 0.32233 0.51408 0.25499 0.0
C446 C 0.34751 0.50903 0.24723 0.0
C447 C 0.38122 0.56465 0.23468 0.0
C448 C 0.3565 0.56987 0.2441 0.0
C449 C 0.40539 0.53143 0.24647 0.0
O450 O 0.48619 0.56476 0.29733 0.0
O451 O 0.53781 0.59864 0.28136 0.0
O452 O 0.5137 0.64722 0.25917 0.0
O453 O 0.46323 0.61569 0.23791 0.0
O454 O 0.58158 0.6403 0.22716 0.0
O455 O 0.56519 0.67058 0.20007 0.0
O456 O 0.51102 0.61931 0.1487 0.0
O457 O 0.46084 0.57803 0.15844 0.0
O458 O 0.4864 0.54712 0.20621 0.0
O459 O 0.52782 0.58833 0.17143 0.0
C460 C 0.51638 0.57732 0.30915 0.0
O461 O 0.42032 0.53246 0.20954 0.0
O462 O 0.42458 0.54914 0.27833 0.0
C463 C 0.48531 0.64263 0.2544 0.0
C464 C 0.61288 0.67729 0.17239 0.0
C465 C 0.65949 0.69538 1.1059 0.0
C466 C 0.6612 0.71735 0.13789 0.0
C467 C 0.63806 0.70824 0.17126 0.0
C468 C 0.61071 0.65562 0.13964 0.0
C469 C 0.6339 0.66456 1.10679 0.0
C470 C 0.5895 0.66741 0.20855 0.0
C471 C 0.48284 0.59857 1.13075 0.0
H472 H 0.29979 0.49398 0.2632 0.0
H473 H 0.34397 0.48548 0.25009 0.0
H474 H 0.40402 0.58459 0.22748 0.0
H475 H 0.36181 0.59405 0.24509 0.0
H476 H 0.68059 0.74129 0.13746 0.0
H477 H 0.63992 0.72523 0.19634 0.0
H478 H 0.59124 0.63171 0.13973 0.0
H479 H 0.63167 0.64741 1.08172 0.0
H480 H 0.48738 0.18401 0.29912 0.0
H481 H 0.57843 0.21992 0.36307 0.0
H482 H 0.58878 0.27413 0.35217 0.0
H483 H 0.51273 0.24581 0.21391 0.0
H484 H 0.47714 0.2477 0.21532 0.0
H485 H 0.47624 0.21143 0.22876 0.0
H486 H 0.45072 0.20909 0.30642 0.0
H487 H 0.45135 0.24528 0.29335 0.0
H488 H 0.4696 0.242 0.34481 0.0
H489 H 0.58923 0.3256 0.33545 0.0
H490 H 0.58082 0.36894 0.31098 0.0
H491 H 0.49009 0.30129 0.25554 0.0
C492 C 0.50951 0.20324 0.3109 0.0
C493 C 0.53205 0.19714 0.3322 0.0
C494 C 0.56071 0.22343 0.3466 0.0
C495 C 0.56676 0.25453 0.34079 0.0
C496 C 0.54403 0.25966 0.32023 0.0
C497 C 0.51609 0.23473 0.30498 0.0
C498 C 0.49611 0.24694 0.2826 0.0
C499 C 0.49021 0.23741 0.23215 0.0
C500 C 0.4651 0.23512 0.30833 0.0
C501 C 0.51706 0.28253 0.28771 0.0
C502 C 0.54455 0.28928 0.30982 0.0
C503 C 0.56769 0.32039 0.31823 0.0
C504 C 0.56276 0.34508 0.30388 0.0
C505 C 0.53489 0.33916 0.28089 0.0
C506 C 0.51173 0.30709 0.273 0.0
H507 H 0.33423 0.53653 0.61709 0.0
H508 H 0.30769 0.4809 0.74103 0.0
H509 H 0.2557 0.47675 0.7379 0.0
H510 H 0.29675 0.58003 0.63866 0.0
H511 H 0.28078 0.57858 0.58269 0.0
H512 H 0.31608 0.57646 0.58925 0.0
H513 H 0.29352 0.5225 0.54942 0.0
H514 H 0.26047 0.52742 0.53562 0.0
H515 H 0.2546 0.49201 0.56322 0.0
H516 H 0.20471 0.47593 0.71929 0.0
H517 H 0.16008 0.47977 0.68827 0.0
H518 H 0.21859 0.53821 0.57801 0.0
C519 C 0.3175 0.52342 0.64361 0.0
C520 C 0.32558 0.509 0.67944 0.0
C521 C 0.30258 0.49215 0.71315 0.0
C522 C 0.27276 0.48968 0.71171 0.0
C523 C 0.26563 0.50413 0.67622 0.0
C524 C 0.2873 0.52059 0.64263 0.0
C525 C 0.27317 0.53323 0.60772 0.0
C526 C 0.2928 0.56922 0.60439 0.0
C527 C 0.27027 0.51791 0.5612 0.0
C528 C 0.24062 0.52223 0.62754 0.0
C529 C 0.23664 0.50486 0.66662 0.0
C530 C 0.20781 0.48978 0.68899 0.0
C531 C 0.1824 0.49202 0.67091 0.0
C532 C 0.18547 0.50958 0.63086 0.0
C533 C 0.21536 0.52518 0.60924 0.0
H534 H 0.78174 0.32914 1.02452 0.0
H535 H 0.85 0.31207 0.95665 0.0
H536 H 0.80755 0.26198 0.92738 0.0
H537 H 0.72851 0.2481 1.05796 0.0
H538 H 0.6932 0.24955 1.04694 0.0
H539 H 0.72875 0.28483 1.06239 0.0
H540 H 0.72349 0.31129 0.99058 0.0
H541 H 0.68903 0.27615 0.9718 0.0
H542 H 0.7227 0.29506 0.93525 0.0
H543 H 0.75833 0.213 0.90516 0.0
H544 H 0.70561 0.16821 0.89214 0.0
H545 H 0.66628 0.21308 0.97492 0.0
C546 C 0.78774 0.31492 1.00338 0.0
C547 C 0.8198 0.32514 0.99315 0.0
C548 C 0.82611 0.30535 0.96534 0.0
C549 C 0.80197 0.27658 0.94838 0.0
C550 C 0.77096 0.26712 0.95924 0.0
C551 C 0.76359 0.28555 0.98614 0.0
C552 C 0.72793 0.26919 0.99235 0.0
C553 C 0.71909 0.26252 1.04292 0.0
C554 C 0.71502 0.2891 0.97123 0.0
C555 C 0.71673 0.23858 0.96562 0.0
C556 C 0.74215 0.23829 0.94651 0.0
C557 C 0.73829 0.21305 0.92004 0.0
C558 C 0.70793 0.18745 0.9128 0.0
C559 C 0.68103 0.18649 0.93201 0.0
C560 C 0.68586 0.21273 0.95908 0.0
H561 H 0.52487 0.70232 0.29166 0.0
H562 H 0.42986 0.64283 0.24266 0.0
H563 H 0.41818 0.68529 0.25808 0.0
H564 H 0.50488 0.73922 0.38334 0.0
H565 H 0.53927 0.77727 0.37595 0.0
H566 H 0.54038 0.74224 0.36125 0.0
H567 H 0.55849 0.76385 0.27988 0.0
H568 H 0.55734 0.7989 0.29429 0.0
H569 H 0.53532 0.77551 0.24613 0.0
H570 H 0.41681 0.73505 0.27791 0.0
H571 H 0.425 0.78699 0.30142 0.0
H572 H 0.52063 0.81515 0.33994 0.0
C573 C 0.50155 0.69808 0.28433 0.0
C574 C 0.47832 0.66868 0.26581 0.0
C575 C 0.44819 0.66468 0.25687 0.0
C576 C 0.44128 0.68887 0.26549 0.0
C577 C 0.46462 0.71741 0.28346 0.0
C578 C 0.49414 0.7221 0.29302 0.0
C579 C 0.51491 0.7551 0.31242 0.0
C580 C 0.52549 0.75334 0.36114 0.0
C581 C 0.54319 0.77448 0.28133 0.0
C582 C 0.49254 0.76824 0.31215 0.0
C583 C 0.46369 0.74606 0.29513 0.0
C584 C 0.43929 0.75264 0.2911 0.0
C585 C 0.44424 0.78239 0.30465 0.0
C586 C 0.47347 0.80572 0.32276 0.0
C587 C 0.4979 0.79816 0.32641 0.0
H588 H 0.70292 0.51382 0.66118 0.0
H589 H 0.63341 0.41475 0.66593 0.0
H590 H 0.67498 0.40148 0.65139 0.0
H591 H 0.75163 0.51024 0.57335 0.0
H592 H 0.7878 0.53896 0.59963 0.0
H593 H 0.75236 0.54022 0.60946 0.0
H594 H 0.75988 0.53777 0.69656 0.0
H595 H 0.79524 0.53636 0.68668 0.0
H596 H 0.76403 0.50599 0.7198 0.0
H597 H 0.72557 0.39937 0.63231 0.0
H598 H 0.77896 0.40854 0.61762 0.0
H599 H 0.81603 0.50884 0.63035 0.0
C600 C 0.69626 0.48927 0.65904 0.0
C601 C 0.6643 0.46536 0.66381 0.0
C602 C 0.6573 0.43362 0.66168 0.0
C603 C 0.68094 0.42583 0.65358 0.0
C604 C 0.71204 0.44998 0.64849 0.0
C605 C 0.71972 0.48109 0.65182 0.0
C606 C 0.75495 0.50269 0.6463 0.0
C607 C 0.76209 0.5243 0.60471 0.0
C608 C 0.76937 0.52184 0.68993 0.0
C609 C 0.76598 0.47906 0.6387 0.0
C610 C 0.74085 0.44874 0.63959 0.0
C611 C 0.74528 0.42309 0.63202 0.0
C612 C 0.77589 0.42849 0.62387 0.0
C613 C 0.80223 0.45931 0.62347 0.0
C614 C 0.79679 0.48484 0.631 0.0
H615 H 0.30503 0.81052 0.97174 0.0
H616 H 0.36257 0.77437 0.91759 0.0
H617 H 0.31942 0.72009 0.93081 0.0
H618 H 0.26685 0.7512 1.05999 0.0
H619 H 0.22964 0.74942 1.05319 0.0
H620 H 0.26538 0.7852 1.04016 0.0
H621 H 0.24416 0.78485 0.95911 0.0
H622 H 0.20858 0.74889 0.97198 0.0
H623 H 0.2317 0.75084 0.92337 0.0
H624 H 0.26892 0.6683 0.95201 0.0
H625 H 0.21651 0.62544 0.97499 0.0
H626 H 0.19094 0.6948 1.0141 0.0
C627 C 0.30871 0.79126 0.96277 0.0
C628 C 0.33778 0.79726 0.94376 0.0
C629 C 0.34098 0.77091 0.9324 0.0
C630 C 0.31637 0.73976 0.93966 0.0
C631 C 0.28813 0.73475 0.95829 0.0
C632 C 0.28423 0.75987 0.96972 0.0
C633 C 0.2515 0.7481 0.98908 0.0
C634 C 0.25347 0.75915 1.03854 0.0
C635 C 0.23289 0.75881 0.9591 0.0
C636 C 0.23752 0.71252 0.98681 0.0
C637 C 0.25908 0.70525 0.96916 0.0
C638 C 0.25177 0.6739 0.96506 0.0
C639 C 0.22178 0.64953 0.97847 0.0
C640 C 0.19891 0.65618 0.99621 0.0
C641 C 0.20737 0.68842 1.00036 0.0
H642 H 0.57021 0.24626 1.10567 0.0
H643 H 0.65716 0.29224 1.02992 0.0
H644 H 0.68629 0.31282 1.10111 0.0
H645 H 0.60743 0.31528 0.20338 0.0
H646 H 0.58385 0.28668 0.24538 0.0
H647 H 0.56766 0.28602 0.18987 0.0
H648 H 0.55293 0.22849 0.17773 0.0
H649 H 0.56687 0.22776 0.23345 0.0
H650 H 0.58237 0.21715 0.18534 0.0
H651 H 0.70454 0.30506 0.17498 0.0
H652 H 0.7087 0.27754 0.2426 0.0
H653 H 0.61202 0.24593 0.27517 0.0
C654 C 0.5951 0.26244 1.10349 0.0
C655 C 0.61138 0.266 1.06241 0.0
C656 C 0.64409 0.28755 1.06128 0.0
C657 C 0.66094 0.29997 1.10166 0.0
C658 C 0.64455 0.29262 0.14258 0.0
C659 C 0.61208 0.27611 0.14348 0.0
C660 C 0.60029 0.26794 0.19192 0.0
C661 C 0.58911 0.2903 0.20854 0.0
C662 C 0.57419 0.23328 0.19732 0.0
C663 C 0.63043 0.27516 0.21601 0.0
C664 C 0.6561 0.29127 0.1877 0.0
C665 C 0.68506 0.29399 0.19838 0.0
C666 C 0.68728 0.27817 0.23684 0.0
C667 C 0.66074 0.26002 0.26429 0.0
C668 C 0.63287 0.26063 0.25558 0.0
H669 H 0.29415 0.50924 0.33202 0.0
H670 H 0.3194 0.59742 0.26506 0.0
H671 H 0.31965 0.62056 0.33913 0.0
H672 H 0.25554 0.52282 0.44418 0.0
H673 H 0.27163 0.50093 0.47147 0.0
H674 H 0.2565 0.49121 0.41457 0.0
H675 H 0.31121 0.49672 0.39631 0.0
H676 H 0.32642 0.51139 0.4515 0.0
H677 H 0.34589 0.53487 0.40209 0.0
H678 H 0.34051 0.63969 0.41631 0.0
H679 H 0.37299 0.65022 0.48558 0.0
H680 H 0.33655 0.55063 0.50298 0.0
C681 C 0.29792 0.53285 0.33203 0.0
C682 C 0.30899 0.55204 0.29284 0.0
C683 C 0.31255 0.58251 0.29493 0.0
C684 C 0.31253 0.59588 0.33713 0.0
C685 C 0.30754 0.578 0.37652 0.0
C686 C 0.29901 0.54655 0.37403 0.0
C687 C 0.30209 0.53407 0.41976 0.0
C688 C 0.26951 0.51099 0.4387 0.0
C689 C 0.32266 0.51846 0.41715 0.0
C690 C 0.31786 0.56431 0.44678 0.0
C691 C 0.31946 0.58919 0.42215 0.0
C692 C 0.33828 0.62028 0.43667 0.0
C693 C 0.35685 0.62615 0.4759 0.0
C694 C 0.35693 0.60107 0.49939 0.0
C695 C 0.33612 0.56994 0.48587 0.0
H696 H 0.7598 0.43276 0.86309 0.0
H697 H 0.71319 0.34907 0.94717 0.0
H698 H 0.6958 0.31668 0.87831 0.0
H699 H 0.695 0.39213 0.76327 0.0
H700 H 0.72499 0.4152 0.72265 0.0
H701 H 0.72402 0.43216 0.77644 0.0
H702 H 0.78119 0.4468 0.79212 0.0
H703 H 0.78286 0.43049 0.73887 0.0
H704 H 0.79186 0.41657 0.79056 0.0
H705 H 0.70678 0.29594 0.80807 0.0
H706 H 0.7334 0.2893 0.74145 0.0
H707 H 0.76249 0.38415 0.69879 0.0
C708 C 0.74441 0.40788 0.86775 0.0
C709 C 0.74032 0.39359 0.91105 0.0
C710 C 0.71913 0.36077 0.91451 0.0
C711 C 0.7084 0.34203 0.87536 0.0
C712 C 0.71681 0.35666 0.83296 0.0
C713 C 0.73244 0.38905 0.82894 0.0
C714 C 0.74157 0.3991 0.78 0.0
C715 C 0.72011 0.4103 0.75941 0.0
C716 C 0.77641 0.42465 0.77523 0.0
C717 C 0.7346 0.36804 0.75932 0.0
C718 C 0.71909 0.34347 0.78985 0.0
C719 C 0.71715 0.31438 0.78275 0.0
C720 C 0.73247 0.31077 0.74496 0.0
C721 C 0.74913 0.33599 0.71445 0.0
C722 C 0.74854 0.36414 0.72046 0.0
H723 H 0.37232 0.75259 1.00325 0.0
H724 H 0.44486 0.73657 1.05758 0.0
H725 H 0.41417 0.71499 1.12765 0.0
H726 H 0.3656 0.78759 1.08244 0.0
H727 H 0.3239 0.7724 1.08541 0.0
H728 H 0.34086 0.76979 1.03343 0.0
H729 H 0.30506 0.70828 1.03154 0.0
H730 H 0.28641 0.71279 1.08149 0.0
H731 H 0.30156 0.68612 1.08202 0.0
H732 H 0.3884 0.71527 0.19793 0.0
H733 H 0.374 0.74029 0.25807 0.0
H734 H 0.31901 0.75925 0.16169 0.0
C735 C 0.3806 0.74239 1.02852 0.0
C736 C 0.41089 0.74621 1.02498 0.0
C737 C 0.42164 0.73376 1.05952 0.0
C738 C 0.40417 0.72128 1.09942 0.0
C739 C 0.37587 0.72116 1.10413 0.0
C740 C 0.36372 0.73072 1.0689 0.0
C741 C 0.3376 0.73601 1.08555 0.0
C742 C 0.34237 0.76836 1.07092 0.0
C743 C 0.30573 0.70924 1.06925 0.0
C744 C 0.34104 0.73381 0.1364 0.0
C745 C 0.36132 0.72267 0.14628 0.0
C746 C 0.37185 0.72311 0.19058 0.0
C747 C 0.36359 0.73747 0.22469 0.0
C748 C 0.34582 0.75207 0.2141 0.0
C749 C 0.33257 0.74813 0.17033 0.0
H750 H 0.68383 0.46626 0.42668 0.0
H751 H 0.67087 0.38569 0.34879 0.0
H752 H 0.65348 0.35347 0.41827 0.0
H753 H 0.7024 0.44072 0.54482 0.0
H754 H 0.68183 0.45909 0.5689 0.0
H755 H 0.70494 0.47515 0.51848 0.0
H756 H 0.65444 0.47155 0.48309 0.0
H757 H 0.63165 0.45219 0.53217 0.0
H758 H 0.61979 0.43342 0.47732 0.0
H759 H 0.61831 0.32723 0.48453 0.0
H760 H 0.57838 0.31216 0.54532 0.0
H761 H 0.61792 0.40981 0.58184 0.0
C762 C 0.67943 0.44247 0.42416 0.0
C763 C 0.67744 0.4284 0.3815 0.0
C764 C 0.67135 0.39693 0.38067 0.0
C765 C 0.66165 0.37839 0.42022 0.0
C766 C 0.65964 0.39206 0.46068 0.0
C767 C 0.66969 0.42384 0.46321 0.0
C768 C 0.66016 0.43216 0.50749 0.0
C769 C 0.68909 0.45295 0.53669 0.0
C770 C 0.64033 0.4482 0.49945 0.0
C771 C 0.64082 0.39978 0.52785 0.0
C772 C 0.64099 0.37681 0.50082 0.0
C773 C 0.61925 0.34493 0.5074 0.0
C774 C 0.59655 0.33649 0.54168 0.0
C775 C 0.59621 0.35991 0.56889 0.0
C776 C 0.61914 0.39159 0.56282 0.0
H777 H 0.2524 0.60674 0.91412 0.0
H778 H 0.24214 0.51843 0.86834 0.0
H779 H 0.26815 0.54339 0.79638 0.0
H780 H 0.22568 0.6217 0.82788 0.0
H781 H 0.25069 0.66378 0.82466 0.0
H782 H 0.24576 0.6442 0.87765 0.0
H783 H 0.30621 0.66824 0.88371 0.0
H784 H 0.31073 0.68769 0.82975 0.0
H785 H 0.32717 0.66245 0.83809 0.0
H786 H 0.27239 0.56826 0.72422 0.0
H787 H 0.25436 0.58911 0.6631 0.0
H788 H 0.26664 0.66538 0.75011 0.0
C789 C 0.2576 0.59328 0.89019 0.0
C790 C 0.24524 0.56071 0.89666 0.0
C791 C 0.25139 0.54344 0.86398 0.0
C792 C 0.26642 0.55759 0.82308 0.0
C793 C 0.27543 0.5891 0.81557 0.0
C794 C 0.27199 0.60706 0.84889 0.0
C795 C 0.2761 0.63752 0.82939 0.0
C796 C 0.24789 0.64197 0.8405 0.0
C797 C 0.3069 0.66564 0.84622 0.0
C798 C 0.27778 0.63182 0.77909 0.0
C799 C 0.27893 0.60449 0.77196 0.0
C800 C 0.27294 0.59036 0.72917 0.0
C801 C 0.26285 0.60261 0.69416 0.0
C802 C 0.25906 0.62896 0.70189 0.0
C803 C 0.26946 0.64527 0.74348 0.0
H804 H 0.41135 0.92231 1.08409 0.0
H805 H 0.47068 0.99211 0.98517 0.0
H806 H 0.49136 0.0324 1.04589 0.0
H807 H 0.39469 0.97576 0.15432 0.0
H808 H 0.39599 0.95869 0.20815 0.0
H809 H 0.38471 0.93514 0.15712 0.0
H810 H 0.4274 0.92128 0.17301 0.0
H811 H 0.44046 0.94576 0.22315 0.0
H812 H 0.46751 0.95205 0.17783 0.0
H813 H 0.50458 0.06843 1.12016 0.0
H814 H 0.51579 0.09224 0.19686 0.0
H815 H 0.4499 0.00176 0.25442 0.0
C816 C 0.42867 0.94607 1.0748 0.0
C817 C 0.43877 0.95296 1.02744 0.0
C818 C 0.46182 0.98501 1.0194 0.0
C819 C 0.47387 0.00854 1.05446 0.0
C820 C 0.46339 0.0011 1.09988 0.0
C821 C 0.44138 0.97035 1.1103 0.0
C822 C 0.43496 0.96875 0.16261 0.0
C823 C 0.40053 0.95898 0.17106 0.0
C824 C 0.44303 0.94556 0.18559 0.0
C825 C 0.45696 0.00294 0.18011 0.0
C826 C 0.47257 0.02122 0.14271 0.0
C827 C 0.49296 0.05365 0.14926 0.0
C828 C 0.4992 0.06736 0.19388 0.0
C829 C 0.4845 0.04998 0.23414 0.0
C830 C 0.46232 0.01676 0.22588 0.0
H831 H 0.46265 0.45556 0.34536 0.0
H832 H 0.52657 0.42924 0.40585 0.0
H833 H 0.51449 0.44167 0.48207 0.0
H834 H 0.47835 0.52188 0.42122 0.0
H835 H 0.43815 0.51215 0.42412 0.0
H836 H 0.45211 0.50078 0.37504 0.0
H837 H 0.40778 0.44338 0.3895 0.0
H838 H 0.39571 0.45548 0.4398 0.0
H839 H 0.40605 0.42515 0.44362 0.0
H840 H 0.49933 0.46276 0.55554 0.0
H841 H 0.47783 0.48201 0.61523 0.0
H842 H 0.42266 0.4966 0.5131 0.0
C843 C 0.47444 0.45258 0.3745 0.0
C844 C 0.49633 0.44118 0.36743 0.0
C845 C 0.5102 0.43781 0.40818 0.0
C846 C 0.50342 0.44513 0.45244 0.0
C847 C 0.48311 0.45733 0.45793 0.0
C848 C 0.46833 0.46061 0.41987 0.0
C849 C 0.4461 0.47269 0.43623 0.0
C850 C 0.45413 0.5037 0.41264 0.0
C851 C 0.41187 0.4477 0.4267 0.0
C852 C 0.45206 0.47752 0.48857 0.0
C853 C 0.47336 0.46804 0.50013 0.0
C854 C 0.4826 0.46997 0.54605 0.0
C855 C 0.4701 0.48125 0.58044 0.0
C856 C 0.4483 0.49168 0.57101 0.0
C857 C 0.43934 0.48947 0.52323 0.0
H858 H 0.00401 0.44797 0.69395 0.0
H859 H 0.09485 0.51611 0.74789 0.0
H860 H 0.07259 0.50537 0.82539 0.0
H861 H 0.95448 0.46489 0.77138 0.0
H862 H 0.92482 0.4244 0.77698 0.0
H863 H 0.94871 0.43765 0.72639 0.0
H864 H 0.96325 0.39433 0.74214 0.0
H865 H 0.94062 0.38318 0.79391 0.0
H866 H 0.98148 0.39447 0.79557 0.0
H867 H 0.03842 0.49112 0.90132 0.0
H868 H 0.9996 0.4704 0.96359 0.0
H869 H 0.92781 0.41105 0.86685 0.0
C870 C 0.01936 0.46117 0.72181 0.0
C871 C 0.05216 0.48382 0.71219 0.0
C872 C 0.07015 0.49931 0.75173 0.0
C873 C 0.05735 0.49328 0.79686 0.0
C874 C 0.02525 0.47239 0.80467 0.0
C875 C 0.00642 0.45616 0.76802 0.0
C876 C 0.97279 0.43375 0.78684 0.0
C877 C 0.94876 0.44054 0.76392 0.0
C878 C 0.964 0.39939 0.77913 0.0
C879 C 0.97519 0.44108 0.83891 0.0
C880 C 0.00601 0.46333 0.84822 0.0
C881 C 0.0144 0.47379 0.89348 0.0
C882 C 0.9917 0.46172 0.92944 0.0
C883 C 0.95945 0.43902 0.92241 0.0
C884 C 0.95161 0.42865 0.87524 0.0
H885 H 0.5194 0.9283 0.19197 0.0
H886 H 0.51557 0.99305 0.28789 0.0
H887 H 0.5345 0.03392 0.22799 0.0
H888 H 0.58838 0.98675 1.12536 0.0
H889 H 0.57274 0.96912 1.07073 0.0
H890 H 0.56103 0.94519 1.12146 0.0
H891 H 0.5032 0.92601 1.10255 0.0
H892 H 0.51457 0.95013 1.05198 0.0
H893 H 0.49058 0.95433 1.09427 0.0
H894 H 0.55644 0.07103 0.15428 0.0
H895 H 0.5692 0.09518 1.07767 0.0
H896 H 0.5586 0.00866 1.02285 0.0
C897 C 0.52272 0.95113 0.20083 0.0
C898 C 0.5159 0.9565 0.24716 0.0
C899 C 0.52036 0.9872 0.25448 0.0
C900 C 0.53127 0.01102 0.21985 0.0
C901 C 0.53747 0.005 0.1753 0.0
C902 C 0.53294 0.97546 0.16548 0.0
C903 C 0.53979 0.97489 1.11373 0.0
C904 C 0.5671 0.96859 1.10744 0.0
C905 C 0.5103 0.94983 1.08915 0.0
C906 C 0.54893 0.00839 1.09608 0.0
C907 C 0.54777 0.02541 1.1327 0.0
C908 C 0.55606 0.05704 1.12564 0.0
C909 C 0.56367 0.07099 1.08112 0.0
C910 C 0.56509 0.05481 1.04176 0.0
C911 C 0.55785 0.02263 1.0507 0.0
H912 H 0.56428 0.55411 0.57878 0.0
H913 H 0.57963 0.48075 0.52584 0.0
H914 H 0.56811 0.49198 0.44816 0.0
H915 H 0.49862 0.54058 0.50384 0.0
H916 H 0.51095 0.58139 0.4955 0.0
H917 H 0.52181 0.56878 0.54681 0.0
H918 H 0.57995 0.60826 0.53032 0.0
H919 H 0.56901 0.62047 0.47873 0.0
H920 H 0.59661 0.60655 0.4766 0.0
H921 H 0.54838 0.50753 0.37234 0.0
H922 H 0.5306 0.52938 0.31055 0.0
H923 H 0.52756 0.5946 0.40639 0.0
C924 C 0.56493 0.54 0.55105 0.0
C925 C 0.57302 0.51577 0.5608 0.0
C926 C 0.57349 0.49893 0.52163 0.0
C927 C 0.56667 0.50521 0.4765 0.0
C928 C 0.55767 0.52795 0.46849 0.0
C929 C 0.55718 0.54549 0.50491 0.0
C930 C 0.5479 0.56952 0.48614 0.0
C931 C 0.51806 0.56483 0.50951 0.0
C932 C 0.57497 0.60321 0.4934 0.0
C933 C 0.54205 0.56204 0.43423 0.0
C934 C 0.54799 0.53787 0.42503 0.0
C935 C 0.54381 0.52639 0.38007 0.0
C936 C 0.53349 0.53919 0.34438 0.0
C937 C 0.52699 0.56412 0.35132 0.0
C938 C 0.53187 0.57565 0.39805 0.0
H939 H 0.0098 0.55181 0.93012 0.0
H940 H 0.09702 0.56841 0.87061 0.0
H941 H 0.07204 0.5564 0.79451 0.0
H942 H 0.95553 0.48579 0.85715 0.0
H943 H 0.92712 0.49838 0.85199 0.0
H944 H 0.95227 0.50924 0.90144 0.0
H945 H 0.97002 0.56757 0.88442 0.0
H946 H 0.94553 0.55622 0.83426 0.0
H947 H 0.98683 0.58396 0.82975 0.0
H948 H 0.03421 0.53328 0.72231 0.0
H949 H 0.9926 0.51337 0.66355 0.0
H950 H 0.92794 0.5138 0.76258 0.0
C951 C 0.02378 0.5527 0.90123 0.0
C952 C 0.05637 0.56123 0.90855 0.0
C953 C 0.0726 0.56198 0.86811 0.0
C954 C 0.05819 0.55478 0.82395 0.0
C955 C 0.02622 0.54513 0.81832 0.0
C956 C 0.00926 0.54473 0.85598 0.0
C957 C 0.97552 0.5352 0.83941 0.0
C958 C 0.95115 0.5054 0.86404 0.0
C959 C 0.96908 0.56235 0.84746 0.0
C960 C 0.9757 0.52897 0.78739 0.0
C961 C 0.0054 0.53476 0.7763 0.0
C962 C 0.01121 0.52919 0.7313 0.0
C963 C 0.98696 0.51768 0.69741 0.0
C964 C 0.95605 0.5119 0.70608 0.0
C965 C 0.95091 0.51813 0.75282 0.0
H966 H 0.5531 0.0566 0.4644 0.0
H967 H 0.45526 0.02922 0.46793 0.0
H968 H 0.4503 0.00617 0.54244 0.0
H969 H 0.56961 0.02066 0.47058 0.0
H970 H 0.58574 0.00974 0.51743 0.0
H971 H 0.59311 0.04943 0.51248 0.0
H972 H 0.57384 0.04783 0.59215 0.0
H973 H 0.56752 0.00845 0.5985 0.0
H974 H 0.53674 0.01681 0.61104 0.0
H975 H 0.44119 0.95306 0.55109 0.0
H976 H 0.43705 0.92898 0.4771 0.0
H977 H 0.53705 0.96794 0.4755 0.0
C978 C 0.53078 0.04561 0.48171 0.0
C979 C 0.50408 0.04208 0.45877 0.0
C980 C 0.47583 0.03038 0.48314 0.0
C981 C 0.4732 0.0182 0.52669 0.0
C982 C 0.49733 0.01344 0.54247 0.0
C983 C 0.52758 0.03133 0.52454 0.0
C984 C 0.54597 0.01552 0.53726 0.0
C985 C 0.57519 0.0243 0.5075 0.0
C986 C 0.55655 0.02247 0.58766 0.0
C987 C 0.51905 0.98226 0.53202 0.0
C988 C 0.49165 0.98117 0.54817 0.0
C989 C 0.46234 0.95624 0.53508 0.0
C990 C 0.46003 0.94339 0.49204 0.0
C991 C 0.48746 0.95047 0.46809 0.0
C992 C 0.51627 0.96546 0.49173 0.0
H993 H 0.52585 0.59353 0.755 0.0
H994 H 0.45613 0.50667 0.81552 0.0
H995 H 0.4877 0.51823 0.88384 0.0
H996 H 0.57451 0.59863 0.74022 0.0
H997 H 0.61162 0.62257 0.76792 0.0
H998 H 0.58278 0.63486 0.76677 0.0
H999 H 0.58643 0.64125 0.85205 0.0
H1000 H 0.61555 0.62922 0.85362 0.0
H1001 H 0.5815 0.61004 0.88923 0.0
H1002 H 0.52638 0.5024 0.88614 0.0
H1003 H 0.529 0.47601 0.81763 0.0
H1004 H 0.59329 0.56562 0.75847 0.0
C1005 C 0.51792 0.57729 0.78338 0.0
C1006 C 0.49035 0.5481 0.77856 0.0
C1007 C 0.47859 0.52814 0.81667 0.0
C1008 C 0.49616 0.5353 0.85646 0.0
C1009 C 0.5278 0.55837 0.85407 0.0
C1010 C 0.53774 0.58229 0.82115 0.0
C1011 C 0.57276 0.59713 0.81599 0.0
C1012 C 0.5861 0.61415 0.76993 0.0
C1013 C 0.58998 0.62068 0.85507 0.0
C1014 C 0.57427 0.56742 0.82346 0.0
C1015 C 0.55169 0.5487 0.85591 0.0
C1016 C 0.54176 0.51652 0.85888 0.0
C1017 C 0.54263 0.50139 0.81932 0.0
C1018 C 0.55934 0.51925 0.78139 0.0
C1019 C 0.57873 0.55196 0.78647 0.0
H1020 H 0.94213 0.50522 1.12122 0.0
H1021 H 0.95773 0.43343 0.17905 0.0
H1022 H 0.98226 0.46614 0.2452 0.0
H1023 H 0.98127 0.55513 1.1065 0.0
H1024 H 0.99481 0.59128 0.13686 0.0
H1025 H 0.95429 0.56119 0.13995 0.0
H1026 H 0.95806 0.56407 0.22622 0.0
H1027 H 0.99877 0.59381 0.22231 0.0
H1028 H 0.98727 0.55938 0.25635 0.0
H1029 H 0.03736 0.50247 0.2309 0.0
H1030 H 0.06185 0.50799 0.15692 0.0
H1031 H 0.03442 0.5753 1.11697 0.0
C1032 C 0.95095 0.49692 0.14851 0.0
C1033 C 0.95188 0.46896 0.14253 0.0
C1034 C 0.95986 0.45646 0.18023 0.0
C1035 C 0.97272 0.47459 0.21906 0.0
C1036 C 0.98208 0.50649 0.21623 0.0
C1037 C 0.96639 0.51638 0.18633 0.0
C1038 C 0.98584 0.55159 0.18153 0.0
C1039 C 0.97867 0.5655 0.13858 0.0
C1040 C 0.98232 0.56808 0.22413 0.0
C1041 C 0.0173 0.55319 0.18208 0.0
C1042 C 0.01561 0.52972 0.21145 0.0
C1043 C 0.037 0.5189 0.20657 0.0
C1044 C 0.05016 0.52126 0.16378 0.0
C1045 C 0.04701 0.53968 1.12982 0.0
C1046 C 0.03459 0.55905 0.14175 0.0
H1047 H 0.06121 0.56138 0.5005 0.0
H1048 H 0.03955 0.47032 0.45063 0.0
H1049 H 0.01583 0.47812 0.383 0.0
H1050 H 0.02351 0.57481 0.51353 0.0
H1051 H 0.01286 0.59896 0.48057 0.0
H1052 H 0.05219 0.60588 0.47865 0.0
H1053 H 0.04722 0.60393 0.39262 0.0
H1054 H 0.00682 0.59412 0.39554 0.0
H1055 H 0.01748 0.56975 0.36373 0.0
H1056 H 0.96158 0.4635 0.3946 0.0
H1057 H 0.93657 0.44709 0.46876 0.0
H1058 H 0.97042 0.54383 0.50411 0.0
C1059 C 0.05117 0.54334 0.47466 0.0
C1060 C 0.04847 0.51388 0.48331 0.0
C1061 C 0.03891 0.49196 0.4474 0.0
C1062 C 0.0265 0.49693 0.40771 0.0
C1063 C 0.01915 0.52099 0.40793 0.0
C1064 C 0.03616 0.54723 0.43609 0.0
C1065 C 0.01845 0.56487 0.43901 0.0
C1066 C 0.02715 0.58725 0.48053 0.0
C1067 C 0.02273 0.58416 0.39511 0.0
C1068 C 0.98612 0.53616 0.43964 0.0
C1069 C 0.98617 0.51293 0.41181 0.0
C1070 C 0.96317 0.48131 0.41787 0.0
C1071 C 0.94968 0.47193 0.4608 0.0
C1072 C 0.95436 0.49467 0.49354 0.0
C1073 C 0.96876 0.52641 0.48014 0.0
H1074 H 0.49578 0.93739 0.80953 0.0
H1075 H 0.42231 0.95815 0.78072 0.0
H1076 H 0.45038 0.98771 0.71363 0.0
H1077 H 0.54552 0.97536 0.82541 0.0
H1078 H 0.58039 0.99316 0.79144 0.0
H1079 H 0.55072 0.95293 0.78166 0.0
H1080 H 0.55492 0.96823 0.70004 0.0
H1081 H 0.57921 0.00977 0.70838 0.0
H1082 H 0.54218 0.99447 0.67967 0.0
H1083 H 0.48716 0.0412 0.73591 0.0
H1084 H 0.50276 0.06645 0.81027 0.0
H1085 H 0.56333 0.02778 0.82919 0.0
C1086 C 0.48634 0.94889 0.78864 0.0
C1087 C 0.45959 0.94962 0.80358 0.0
C1088 C 0.44478 0.9603 0.77304 0.0
C1089 C 0.46028 0.97623 0.7337 0.0
C1090 C 0.49214 0.98587 0.7304 0.0
C1091 C 0.50363 0.96781 0.75144 0.0
C1092 C 0.53889 0.98753 0.75453 0.0
C1093 C 0.55469 0.97663 0.79053 0.0
C1094 C 0.55455 0.99012 0.70791 0.0
C1095 C 0.53971 0.01795 0.76482 0.0
C1096 C 0.51525 0.01867 0.74143 0.0
C1097 C 0.50534 0.03976 0.7547 0.0
C1098 C 0.51321 0.05299 0.79807 0.0
C1099 C 0.53292 0.04719 0.82624 0.0
C1100 C 0.54792 0.03182 0.80795 0.0
H1101 H 0.4504 0.50885 0.14649 0.0
H1102 H 0.54123 0.57564 1.0943 0.0
H1103 H 0.53159 0.54291 1.02729 0.0
H1104 H 0.43426 0.45774 0.16134 0.0
H1105 H 0.41027 0.4224 1.12997 0.0
H1106 H 0.40359 0.45509 1.12497 0.0
H1107 H 0.40535 0.44915 1.04007 0.0
H1108 H 0.41606 0.41925 1.04503 0.0
H1109 H 0.43984 0.45392 1.01195 0.0
H1110 H 0.54637 0.50383 1.04789 0.0
H1111 H 0.56063 0.49468 1.1236 0.0
H1112 H 0.46318 0.43248 0.15396 0.0
C1113 C 0.46801 0.51592 1.1203 0.0
C1114 C 0.49798 0.54211 1.12804 0.0
C1115 C 0.51922 0.55376 1.09154 0.0
C1116 C 0.51322 0.53565 1.05242 0.0
C1117 C 0.48891 0.50436 1.05428 0.0
C1118 C 0.46294 0.49633 1.08227 0.0
C1119 C 0.4446 0.46096 1.08699 0.0
C1120 C 0.42201 0.44843 1.12837 0.0
C1121 C 0.42551 0.44505 1.04338 0.0
C1122 C 0.47274 0.45655 1.08959 0.0
C1123 C 0.49663 0.47933 1.06205 0.0
C1124 C 0.52794 0.4878 1.07049 0.0
C1125 C 0.53609 0.48345 1.11431 0.0
C1126 C 0.51252 0.46547 0.146 0.0
C1127 C 0.48125 0.4485 1.13095 0.0
H1128 H 0.30489 0.89947 0.67079 0.0
H1129 H 0.26848 0.95089 0.74362 0.0
H1130 H 0.26468 0.97456 0.67152 0.0
H1131 H 0.35699 0.95918 0.61502 0.0
H1132 H 0.35575 0.94024 0.56194 0.0
H1133 H 0.34359 0.91766 0.61333 0.0
H1134 H 0.28947 0.87979 0.57752 0.0
H1135 H 0.30165 0.90217 0.52535 0.0
H1136 H 0.26624 0.89527 0.55329 0.0
H1137 H 0.27938 0.00388 0.59901 0.0
H1138 H 0.3117 0.03608 0.53448 0.0
H1139 H 0.34189 0.96848 0.50956 0.0
C1140 C 0.29492 0.91475 0.67114 0.0
C1141 C 0.28711 0.92349 0.7126 0.0
C1142 C 0.27421 0.94355 0.7121 0.0
C1143 C 0.27198 0.95711 0.67119 0.0
C1144 C 0.2825 0.95014 0.63123 0.0
C1145 C 0.29334 0.92898 0.63084 0.0
C1146 C 0.30962 0.93047 0.58658 0.0
C1147 C 0.34346 0.93733 0.59476 0.0
C1148 C 0.29059 0.90012 0.55905 0.0
C1149 C 0.30895 0.9578 0.56398 0.0
C1150 C 0.29202 0.96797 0.5892 0.0
C1151 C 0.29182 0.99555 0.57821 0.0
C1152 C 0.31025 0.01374 0.54167 0.0
C1153 C 0.32901 0.00447 0.51746 0.0
C1154 C 0.32732 0.97564 0.52754 0.0
H1155 H 0.32464 0.31082 1.05717 0.0
H1156 H 0.33632 0.39556 1.12003 0.0
H1157 H 0.30422 0.40043 1.05946 0.0
H1158 H 0.34051 0.33655 0.9558 0.0
H1159 H 0.31293 0.30203 0.92473 0.0
H1160 H 0.325 0.29795 0.98054 0.0
H1161 H 0.26709 0.26786 1.00663 0.0
H1162 H 0.25476 0.27195 0.95032 0.0
H1163 H 0.24276 0.28537 0.99923 0.0
H1164 H 0.28898 0.4067 0.98341 0.0
H1165 H 0.29431 0.41471 0.9011 0.0
H1166 H 0.28716 0.32371 0.88435 0.0
C1167 C 0.31906 0.3295 1.05901 0.0
C1168 C 0.33266 0.35274 1.09295 0.0
C1169 C 0.3256 0.37727 1.09453 0.0
C1170 C 0.30725 0.38008 1.06033 0.0
C1171 C 0.29573 0.35786 1.02537 0.0
C1172 C 0.30083 0.33255 1.025 0.0
C1173 C 0.29187 0.31576 0.9796 0.0
C1174 C 0.31921 0.31299 0.959 0.0
C1175 C 0.26236 0.28331 0.98424 0.0
C1176 C 0.28496 0.33794 0.95266 0.0
C1177 C 0.28589 0.36127 0.98017 0.0
C1178 C 0.28695 0.38798 0.96174 0.0
C1179 C 0.28984 0.3923 0.91452 0.0
C1180 C 0.29164 0.36996 0.88622 0.0
C1181 C 0.28615 0.34126 0.90533 0.0
H1182 H 0.91276 0.28198 0.26779 0.0
H1183 H 0.98824 0.28195 0.19294 0.0
H1184 H 0.00959 0.27393 0.2643 0.0
H1185 H 0.95497 0.33078 0.34273 0.0
H1186 H 0.93044 0.3147 0.39223 0.0
H1187 H 0.91316 0.3057 0.33678 0.0
H1188 H 0.88835 0.24616 0.35319 0.0
H1189 H 0.9055 0.25503 0.40942 0.0
H1190 H 0.91274 0.23046 0.37174 0.0
H1191 H 0.03245 0.28503 0.34036 0.0
H1192 H 0.05414 0.31438 0.41169 0.0
H1193 H 0.9654 0.30881 0.44015 0.0
C1194 C 0.93299 0.27883 0.2665 0.0
C1195 C 0.94897 0.28273 0.22519 0.0
C1196 C 0.97541 0.27865 0.22424 0.0
C1197 C 0.98767 0.274 0.26475 0.0
C1198 C 0.97301 0.27316 0.30572 0.0
C1199 C 0.94573 0.27481 0.30679 0.0
C1200 C 0.93843 0.28066 0.35456 0.0
C1201 C 0.93407 0.30968 0.35663 0.0
C1202 C 0.90954 0.25132 0.37334 0.0
C1203 C 0.96786 0.28622 0.37891 0.0
C1204 C 0.98676 0.28014 0.35088 0.0
C1205 C 0.01743 0.28875 0.36321 0.0
C1206 C 0.02963 0.30548 0.40378 0.0
C1207 C 0.01129 0.31375 0.43099 0.0
C1208 C 0.97961 0.30239 0.41977 0.0
H1209 H 0.6804 0.09591 0.69707 0.0
H1210 H 0.74885 0.06845 0.73172 0.0
H1211 H 0.75221 0.05709 0.6506 0.0
H1212 H 0.6376 0.03496 0.63539 0.0
H1213 H 0.6253 0.05294 0.59261 0.0
H1214 H 0.63657 0.07039 0.64784 0.0
H1215 H 0.67809 0.12294 0.6119 0.0
H1216 H 0.66623 0.10567 0.55611 0.0
H1217 H 0.70675 0.12358 0.57325 0.0
H1218 H 0.73828 0.03627 0.57219 0.0
H1219 H 0.70709 0.00576 0.50605 0.0
H1220 H 0.64473 0.04329 0.52475 0.0
C1221 C 0.69759 0.08946 0.68708 0.0
C1222 C 0.71496 0.08376 0.72019 0.0
C1223 C 0.73585 0.0735 0.70651 0.0
C1224 C 0.73794 0.06714 0.66052 0.0
C1225 C 0.71888 0.07105 0.6289 0.0
C1226 C 0.69922 0.08226 0.64167 0.0
C1227 C 0.67599 0.07762 0.60442 0.0
C1228 C 0.6419 0.05778 0.62115 0.0
C1229 C 0.68216 0.10935 0.58528 0.0
C1230 C 0.68406 0.06 0.56999 0.0
C1231 C 0.70959 0.05747 0.58386 0.0
C1232 C 0.71873 0.0387 0.56051 0.0
C1233 C 0.70062 0.02115 0.52327 0.0
C1234 C 0.67325 0.02191 0.51039 0.0
C1235 C 0.66584 0.04268 0.53296 0.0
H1236 H 0.69015 0.66459 1.08359 0.0
H1237 H 0.68033 0.74452 1.04633 0.0
H1238 H 0.70765 0.74937 0.97391 0.0
H1239 H 0.76674 0.68866 1.0136 0.0
H1240 H 0.75173 0.64792 0.9994 0.0
H1241 H 0.74346 0.65843 1.05432 0.0
H1242 H 0.68408 0.6219 1.03982 0.0
H1243 H 0.69202 0.61162 0.98515 0.0
H1244 H 0.66643 0.62787 0.98963 0.0
H1245 H 0.71897 0.73517 0.89912 0.0
H1246 H 0.71366 0.70398 0.83064 0.0
H1247 H 0.7168 0.63302 0.91473 0.0
C1248 C 0.69526 0.68402 1.06098 0.0
C1249 C 0.68335 0.70419 1.07012 0.0
C1250 C 0.68976 0.72913 1.03997 0.0
C1251 C 0.70531 0.73204 0.99881 0.0
C1252 C 0.71466 0.71014 0.98894 0.0
C1253 C 0.71046 0.68694 1.01977 0.0
C1254 C 0.71643 0.66252 0.9981 0.0
C1255 C 0.74638 0.66452 1.01751 0.0
C1256 C 0.68805 0.62906 1.00346 0.0
C1257 C 0.72104 0.67354 0.9492 0.0
C1258 C 0.7213 0.70175 0.9448 0.0
C1259 C 0.72001 0.71374 0.9022 0.0
C1260 C 0.71696 0.69586 0.86342 0.0
C1261 C 0.71482 0.66616 0.86772 0.0
C1262 C 0.71858 0.65579 0.9108 0.0
H1263 H 0.04051 0.69618 0.2384 0.0
H1264 H 0.96018 0.63832 0.15318 0.0
H1265 H 0.92493 0.63628 0.21414 0.0
H1266 H 0.01447 0.65368 0.32883 0.0
H1267 H 0.02976 0.68439 0.37109 0.0
H1268 H 0.04824 0.69144 0.3167 0.0
H1269 H 0.04084 0.7397 0.30475 0.0
H1270 H 0.02217 0.7327 0.35962 0.0
H1271 H 0.00234 0.73522 0.30942 0.0
H1272 H 0.89949 0.62688 0.28843 0.0
H1273 H 0.8868 0.60965 0.36819 0.0
H1274 H 0.98284 0.67394 0.40724 0.0
C1275 C 0.0155 0.68422 0.23214 0.0
C1276 C 0.00291 0.66752 0.19143 0.0
C1277 C 0.97019 0.6517 0.18406 0.0
C1278 C 0.95004 0.65054 0.21846 0.0
C1279 C 0.96309 0.66569 0.2596 0.0
C1280 C 0.99522 0.68269 0.2663 0.0
C1281 C 0.00344 0.69125 0.3158 0.0
C1282 C 0.0252 0.67944 0.33412 0.0
C1283 C 0.01805 0.72684 0.3228 0.0
C1284 C 0.97116 0.67363 0.33658 0.0
C1285 C 0.94804 0.66012 0.30354 0.0
C1286 C 0.91714 0.63823 0.31462 0.0
C1287 C 0.91009 0.62857 0.36005 0.0
C1288 C 0.93398 0.6406 0.39349 0.0
C1289 C 0.96425 0.66475 0.38205 0.0
H1290 H 0.50489 0.11612 0.55389 0.0
H1291 H 0.58542 0.11694 0.49305 0.0
H1292 H 0.60534 0.11542 0.56888 0.0
H1293 H 0.54994 0.16804 0.65137 0.0
H1294 H 0.51946 0.14806 0.693 0.0
H1295 H 0.50944 0.14753 0.63373 0.0
H1296 H 0.47861 0.08696 0.63492 0.0
H1297 H 0.48841 0.08746 0.69426 0.0
H1298 H 0.49782 0.06586 0.6538 0.0
H1299 H 0.61783 0.11184 0.65496 0.0
H1300 H 0.62306 0.11147 0.73843 0.0
H1301 H 0.53935 0.11867 0.7531 0.0
C1302 C 0.52682 0.11612 0.5561 0.0
C1303 C 0.54292 0.11661 0.51418 0.0
C1304 C 0.57173 0.11673 0.52192 0.0
C1305 C 0.58358 0.11574 0.56601 0.0
C1306 C 0.56757 0.11541 0.60561 0.0
C1307 C 0.53991 0.11608 0.60131 0.0
C1308 C 0.52847 0.11686 0.65063 0.0
C1309 C 0.5267 0.14691 0.65759 0.0
C1310 C 0.49641 0.08754 0.65891 0.0
C1311 C 0.55384 0.11672 0.68277 0.0
C1312 C 0.57582 0.11525 0.65539 0.0
C1313 C 0.60073 0.11344 0.67607 0.0
C1314 C 0.60362 0.11331 0.72463 0.0
C1315 C 0.58246 0.11569 0.75528 0.0
C1316 C 0.55693 0.1175 0.7326 0.0
H1317 H 0.40312 0.51438 0.87967 0.0
H1318 H 0.46751 0.60267 0.81493 0.0
H1319 H 0.48943 0.62544 0.89034 0.0
H1320 H 0.38827 0.55041 0.98091 0.0
H1321 H 0.3857 0.52094 1.0202 0.0
H1322 H 0.3753 0.51105 0.96118 0.0
H1323 H 0.41513 0.49162 0.95526 0.0
H1324 H 0.42523 0.50166 1.01425 0.0
H1325 H 0.4554 0.51757 0.97146 0.0
H1326 H 0.50754 0.6391 0.978 0.0
H1327 H 0.51524 0.64241 1.06169 0.0
H1328 H 0.43692 0.54773 1.07476 0.0
C1329 C 0.42158 0.53869 0.88103 0.0
C1330 C 0.43283 0.55634 0.83894 0.0
C1331 C 0.45745 0.58806 0.84474 0.0
C1332 C 0.47045 0.60138 0.88831 0.0
C1333 C 0.45889 0.58354 0.9285 0.0
C1334 C 0.43452 0.55286 0.92516 0.0
C1335 C 0.42578 0.5391 0.97399 0.0
C1336 C 0.39173 0.52981 0.9847 0.0
C1337 C 0.4307 0.51077 0.97894 0.0
C1338 C 0.44886 0.5664 1.0053 0.0
C1339 C 0.46811 0.59177 0.97807 0.0
C1340 C 0.49204 0.6192 0.99891 0.0
C1341 C 0.49635 0.62096 1.04742 0.0
C1342 C 0.47678 0.59587 1.07737 0.0
C1343 C 0.45249 0.56805 1.05462 0.0
H1344 H 0.88912 0.4579 0.19952 0.0
H1345 H 0.87169 0.36257 0.21188 0.0
H1346 H 0.8681 0.36581 0.29542 0.0
H1347 H 0.93853 0.48684 0.304 0.0
H1348 H 0.92497 0.5131 0.3217 0.0
H1349 H 0.92483 0.50425 0.2622 0.0
H1350 H 0.86628 0.48561 0.25574 0.0
H1351 H 0.86585 0.49495 0.315 0.0
H1352 H 0.83913 0.45598 0.29433 0.0
H1353 H 0.8644 0.37842 0.38151 0.0
H1354 H 0.86529 0.39913 0.45752 0.0
H1355 H 0.88934 0.48947 0.39836 0.0
C1356 C 0.88426 0.43744 0.21953 0.0
C1357 C 0.8801 0.40933 0.19637 0.0
C1358 C 0.87465 0.38417 0.22624 0.0
C1359 C 0.87259 0.3859 0.27473 0.0
C1360 C 0.87662 0.41343 0.29591 0.0
C1361 C 0.88287 0.43909 0.26918 0.0
C1362 C 0.88756 0.46629 0.30168 0.0
C1363 C 0.92097 0.49429 0.29711 0.0
C1364 C 0.86327 0.47632 0.29104 0.0
C1365 C 0.88238 0.45188 0.35047 0.0
C1366 C 0.87593 0.42117 0.34567 0.0
C1367 C 0.86966 0.40251 0.38479 0.0
C1368 C 0.87013 0.41486 0.42896 0.0
C1369 C 0.87719 0.44648 0.43709 0.0
C1370 C 0.8835 0.46517 0.39569 0.0
H1371 H 0.49593 0.88807 0.55484 0.0
H1372 H 0.40566 0.86054 0.49336 0.0
H1373 H 0.38353 0.85763 0.56914 0.0
H1374 H 0.46295 0.83543 0.65577 0.0
H1375 H 0.4916 0.86257 0.69552 0.0
H1376 H 0.50161 0.86377 0.63626 0.0
H1377 H 0.51765 0.92243 0.63262 0.0
H1378 H 0.50739 0.92084 0.69188 0.0
H1379 H 0.49001 0.93434 0.6498 0.0
H1380 H 0.36973 0.85973 0.65609 0.0
H1381 H 0.366 0.86205 0.73988 0.0
H1382 H 0.46233 0.88343 0.75219 0.0
C1383 C 0.47139 0.8811 0.55695 0.0
C1384 C 0.45311 0.87443 0.51521 0.0
C1385 C 0.42104 0.86569 0.52243 0.0
C1386 C 0.40792 0.86407 0.56638 0.0
C1387 C 0.42624 0.87066 0.60598 0.0
C1388 C 0.45734 0.87862 0.60177 0.0
C1389 C 0.4713 0.88347 0.65068 0.0
C1390 C 0.48255 0.85992 0.66012 0.0
C1391 C 0.49822 0.91733 0.6565 0.0
C1392 C 0.44358 0.87712 0.68264 0.0
C1393 C 0.41787 0.87021 0.65572 0.0
C1394 C 0.38991 0.86475 0.67685 0.0
C1395 C 0.38789 0.86609 0.72546 0.0
C1396 C 0.41329 0.87234 0.75528 0.0
C1397 C 0.44174 0.87797 0.73217 0.0
H1398 H 0.53856 0.43591 0.8532 0.0
H1399 H 0.63717 0.50532 0.86283 0.0
H1400 H 0.63474 0.49743 0.9464 0.0
H1401 H 0.51791 0.46262 0.96104 0.0
H1402 H 0.48736 0.42386 0.97683 0.0
H1403 H 0.49665 0.43384 0.91756 0.0
H1404 H 0.50567 0.38672 0.90788 0.0
H1405 H 0.49657 0.37672 0.96713 0.0
H1406 H 0.53333 0.38333 0.94446 0.0
H1407 H 0.62202 0.47968 1.03299 0.0
H1408 H 0.6008 0.45986 1.10908 0.0
H1409 H 0.5078 0.40481 1.05096 0.0
C1410 C 0.55985 0.44963 0.87261 0.0
C1411 C 0.58853 0.47137 0.84881 0.0
C1412 C 0.61498 0.4885 0.87784 0.0
C1413 C 0.61373 0.48404 0.92627 0.0
C1414 C 0.58548 0.46268 0.94807 0.0
C1415 C 0.55871 0.44622 0.92204 0.0
C1416 C 0.5309 0.42615 0.9548 0.0
C1417 C 0.50675 0.43725 0.95239 0.0
C1418 C 0.5157 0.39114 0.94284 0.0
C1419 C 0.5462 0.43265 1.00294 0.0
C1420 C 0.57785 0.45389 0.99778 0.0
C1421 C 0.59722 0.46327 1.03653 0.0
C1422 C 0.58461 0.45142 1.08065 0.0
C1423 C 0.55212 0.42997 1.08887 0.0
C1424 C 0.53275 0.42071 1.04799 0.0
H1425 H 0.11246 0.56689 0.42537 0.0
H1426 H 0.12507 0.48603 0.41289 0.0
H1427 H 0.12833 0.49288 0.32918 0.0
H1428 H 0.06253 0.54863 0.32207 0.0
H1429 H 0.07779 0.58886 0.30447 0.0
H1430 H 0.07806 0.57967 0.36385 0.0
H1431 H 0.13706 0.61749 0.36926 0.0
H1432 H 0.13753 0.62762 0.31006 0.0
H1433 H 0.16295 0.61351 0.33009 0.0
H1434 H 0.13252 0.50993 0.24275 0.0
H1435 H 0.13229 0.53078 0.16694 0.0
H1436 H 0.11223 0.5993 0.22734 0.0
C1437 C 0.11609 0.55055 0.4053 0.0
C1438 C 0.11898 0.52577 0.42838 0.0
C1439 C 0.12302 0.50525 0.3985 0.0
C1440 C 0.12491 0.50908 0.34995 0.0
C1441 C 0.12212 0.53344 0.32885 0.0
C1442 C 0.11727 0.55364 0.35572 0.0
C1443 C 0.11372 0.57705 0.32352 0.0
C1444 C 0.08105 0.57332 0.32876 0.0
C1445 C 0.13933 0.61095 0.33386 0.0
C1446 C 0.11782 0.56739 0.27468 0.0
C1447 C 0.12293 0.54221 0.27914 0.0
C1448 C 0.12827 0.52946 0.23977 0.0
C1449 C 0.12824 0.54195 0.19576 0.0
C1450 C 0.12243 0.56742 0.18812 0.0
C1451 C 0.117 0.58009 0.22969 0.0
loop_
_geom_bond_atom_site_label_1
_geom_bond_atom_site_label_2
_geom_bond_distance
_geom_bond_site_symmetry_2
_ccdc_geom_bond_type
Tb0 C9 2.764 . S
Tb0 O10 2.325 . S
Tb0 O13 2.303 . S
Tb0 O17 2.322 . S
Tb0 O18 2.349 . S
Tb0 O21 2.415 . S
Tb0 O22 2.399 . S
Tb1 O11 2.322 . S
Tb1 O12 2.349 . S
Tb1 O14 2.415 . S
Tb1 O15 2.399 . S
Tb1 O16 2.325 . S
Tb1 O19 2.303 . S
Tb1 C30 2.764 . S
C2 O18 1.261 . S
C2 O19 1.257 . S
C3 C6 1.358 . S
C3 C7 1.332 . S
C3 C9 1.504 . S
C4 C5 1.373 . S
C4 C8 1.308 . S
C5 C4 1.373 . S
C5 C6 1.429 . S
C5 H32 0.932 . S
C6 C3 1.358 . S
C6 C5 1.429 . S
C6 H33 0.930 . S
C7 C3 1.332 . S
C7 C8 1.394 . S
C7 H34 0.932 . S
C8 C4 1.308 . S
C8 C7 1.394 . S
C8 H35 0.929 . S
C9 Tb0 2.764 . S
C9 C3 1.504 . S
C9 O21 1.239 . S
C9 O22 1.263 . S
O10 Tb0 2.325 . S
O10 C20 1.236 . S
O11 Tb1 2.322 . S
O11 C20 1.257 . S
O12 Tb1 2.349 . S
O12 C23 1.261 . S
O13 Tb0 2.303 . S
O13 C23 1.257 . S
O14 Tb1 2.415 . S
O14 C30 1.239 . S
O15 Tb1 2.399 . S
O15 C30 1.263 . S
O16 Tb1 2.325 . S
O16 C31 1.236 . S
O17 Tb0 2.322 . S
O17 C31 1.257 . S
O18 Tb0 2.349 . S
O18 C2 1.261 . S
O19 Tb1 2.303 . S
O19 C2 1.257 . S
C20 O10 1.236 . S
C20 O11 1.257 . S
O21 Tb0 2.415 . S
O21 C9 1.239 . S
O22 Tb0 2.399 . S
O22 C9 1.263 . S
C23 O12 1.261 . S
C23 O13 1.257 . S
C24 C27 1.358 . S
C24 C28 1.332 . S
C24 C30 1.504 . S
C25 C26 1.373 . S
C25 C29 1.308 . S
C26 C25 1.373 . S
C26 C27 1.429 . S
C26 H36 0.932 . S
C27 C24 1.358 . S
C27 C26 1.429 . S
C27 H37 0.930 . S
C28 C24 1.332 . S
C28 C29 1.394 . S
C28 H38 0.932 . S
C29 C25 1.308 . S
C29 C28 1.394 . S
C29 H39 0.929 . S
C30 Tb1 2.764 . S
C30 O14 1.239 . S
C30 O15 1.263 . S
C30 C24 1.504 . S
C31 O16 1.236 . S
C31 O17 1.257 . S
H32 C5 0.932 . S
H33 C6 0.930 . S
H34 C7 0.932 . S
H35 C8 0.929 . S
H36 C26 0.932 . S
H37 C27 0.930 . S
H38 C28 0.932 . S
H39 C29 0.929 . S
Tb40 C49 2.764 . S
Tb40 O50 2.325 . S
Tb40 O53 2.303 . S
Tb40 O57 2.322 . S
Tb40 O58 2.349 . S
Tb40 O61 2.415 . S
Tb40 O62 2.399 . S
Tb41 O51 2.322 . S
Tb41 O52 2.349 . S
Tb41 O54 2.415 . S
Tb41 O55 2.399 . S
Tb41 O56 2.325 . S
Tb41 O59 2.303 . S
Tb41 C70 2.764 . S
C42 O58 1.261 . S
C42 O59 1.257 . S
C43 C46 1.358 . S
C43 C47 1.332 . S
C43 C49 1.504 . S
C44 C45 1.373 . S
C44 C48 1.308 . S
C45 C44 1.373 . S
C45 C46 1.429 . S
C45 H72 0.932 . S
C46 C43 1.358 . S
C46 C45 1.429 . S
C46 H73 0.930 . S
C47 C43 1.332 . S
C47 C48 1.394 . S
C47 H74 0.932 . S
C48 C44 1.308 . S
C48 C47 1.394 . S
C48 H75 0.929 . S
C49 Tb40 2.764 . S
C49 C43 1.504 . S
C49 O61 1.239 . S
C49 O62 1.263 . S
O50 Tb40 2.325 . S
O50 C60 1.236 . S
O51 Tb41 2.322 . S
O51 C60 1.257 . S
O52 Tb41 2.349 . S
O52 C63 1.261 . S
O53 Tb40 2.303 . S
O53 C63 1.257 . S
O54 Tb41 2.415 . S
O54 C70 1.239 . S
O55 Tb41 2.399 . S
O55 C70 1.263 . S
O56 Tb41 2.325 . S
O56 C71 1.236 . S
O57 Tb40 2.322 . S
O57 C71 1.257 . S
O58 Tb40 2.349 . S
O58 C42 1.261 . S
O59 Tb41 2.303 . S
O59 C42 1.257 . S
C60 O50 1.236 . S
C60 O51 1.257 . S
O61 Tb40 2.415 . S
O61 C49 1.239 . S
O62 Tb40 2.399 . S
O62 C49 1.263 . S
C63 O52 1.261 . S
C63 O53 1.257 . S
C64 C67 1.358 . S
C64 C68 1.332 . S
C64 C70 1.504 . S
C65 C66 1.373 . S
C65 C69 1.308 . S
C66 C65 1.373 . S
C66 C67 1.429 . S
C66 H76 0.932 . S
C67 C64 1.358 . S
C67 C66 1.429 . S
C67 H77 0.930 . S
C68 C64 1.332 . S
C68 C69 1.394 . S
C68 H78 0.932 . S
C69 C65 1.308 . S
C69 C68 1.394 . S
C69 H79 0.929 . S
C70 Tb41 2.764 . S
C70 O54 1.239 . S
C70 O55 1.263 . S
C70 C64 1.504 . S
C71 O56 1.236 . S
C71 O57 1.257 . S
H72 C45 0.932 . S
H73 C46 0.930 . S
H74 C47 0.932 . S
H75 C48 0.929 . S
H76 C66 0.932 . S
H77 C67 0.930 . S
H78 C68 0.932 . S
H79 C69 0.929 . S
Tb80 C89 2.764 . S
Tb80 O90 2.325 . S
Tb80 O93 2.303 . S
Tb80 O97 2.322 . S
Tb80 O98 2.349 . S
Tb80 O101 2.415 . S
Tb80 O102 2.399 . S
Tb81 O91 2.322 . S
Tb81 O92 2.349 . S
Tb81 O94 2.415 . S
Tb81 O95 2.399 . S
Tb81 O96 2.325 . S
Tb81 O99 2.303 . S
Tb81 C110 2.764 1_556 S
C82 O98 1.261 . S
C82 O99 1.257 . S
C83 C86 1.358 . S
C83 C87 1.332 . S
C83 C89 1.504 . S
C84 C85 1.373 . S
C84 C88 1.308 . S
C85 C84 1.373 . S
C85 C86 1.429 . S
C85 H112 0.932 . S
C86 C83 1.358 . S
C86 C85 1.429 . S
C86 H113 0.930 . S
C87 C83 1.332 . S
C87 C88 1.394 . S
C87 H114 0.932 . S
C88 C84 1.308 . S
C88 C87 1.394 . S
C88 H115 0.929 . S
C89 Tb80 2.764 . S
C89 C83 1.504 . S
C89 O101 1.239 . S
C89 O102 1.263 . S
O90 Tb80 2.325 . S
O90 C100 1.236 . S
O91 Tb81 2.322 . S
O91 C100 1.257 . S
O92 Tb81 2.349 . S
O92 C103 1.261 . S
O93 Tb80 2.303 . S
O93 C103 1.257 . S
O94 Tb81 2.415 . S
O94 C110 1.239 1_556 S
O95 Tb81 2.399 . S
O95 C110 1.263 1_556 S
O96 Tb81 2.325 . S
O96 C111 1.236 . S
O97 Tb80 2.322 . S
O97 C111 1.257 . S
O98 Tb80 2.349 . S
O98 C82 1.261 . S
O99 Tb81 2.303 . S
O99 C82 1.257 . S
C100 O90 1.236 . S
C100 O91 1.257 . S
O101 Tb80 2.415 . S
O101 C89 1.239 . S
O102 Tb80 2.399 . S
O102 C89 1.263 . S
C103 O92 1.261 . S
C103 O93 1.257 . S
C104 C107 1.358 . S
C104 C108 1.332 . S
C104 C110 1.504 . S
C105 C106 1.373 . S
C105 C109 1.308 . S
C106 C105 1.373 . S
C106 C107 1.429 . S
C106 H116 0.932 . S
C107 C104 1.358 . S
C107 C106 1.429 . S
C107 H117 0.930 . S
C108 C104 1.332 . S
C108 C109 1.394 . S
C108 H118 0.932 . S
C109 C105 1.308 . S
C109 C108 1.394 . S
C109 H119 0.929 . S
C110 Tb81 2.764 1_554 S
C110 O94 1.239 1_554 S
C110 O95 1.263 1_554 S
C110 C104 1.504 . S
C111 O96 1.236 . S
C111 O97 1.257 . S
H112 C85 0.932 . S
H113 C86 0.930 . S
H114 C87 0.932 . S
H115 C88 0.929 . S
H116 C106 0.932 . S
H117 C107 0.930 . S
H118 C108 0.932 . S
H119 C109 0.929 . S
Tb120 C129 2.764 . S
Tb120 O130 2.325 . S
Tb120 O133 2.303 . S
Tb120 O137 2.322 . S
Tb120 O138 2.349 . S
Tb120 O141 2.415 . S
Tb120 O142 2.399 . S
Tb121 O131 2.322 . S
Tb121 O132 2.349 . S
Tb121 O134 2.415 . S
Tb121 O135 2.399 . S
Tb121 O136 2.325 . S
Tb121 O139 2.303 . S
Tb121 C150 2.764 . S
C122 O138 1.261 . S
C122 O139 1.257 . S
C123 C126 1.358 . S
C123 C127 1.332 . S
C123 C129 1.504 . S
C124 C125 1.373 . S
C124 C128 1.308 . S
C125 C124 1.373 . S
C125 C126 1.429 . S
C125 H152 0.932 . S
C126 C123 1.358 . S
C126 C125 1.429 . S
C126 H153 0.930 . S
C127 C123 1.332 . S
C127 C128 1.394 . S
C127 H154 0.932 . S
C128 C124 1.308 . S
C128 C127 1.394 . S
C128 H155 0.929 . S
C129 Tb120 2.764 . S
C129 C123 1.504 . S
C129 O141 1.239 . S
C129 O142 1.263 . S
O130 Tb120 2.325 . S
O130 C140 1.236 . S
O131 Tb121 2.322 . S
O131 C140 1.257 . S
O132 Tb121 2.349 . S
O132 C143 1.261 . S
O133 Tb120 2.303 . S
O133 C143 1.257 . S
O134 Tb121 2.415 . S
O134 C150 1.239 . S
O135 Tb121 2.399 . S
O135 C150 1.263 . S
O136 Tb121 2.325 . S
O136 C151 1.236 . S
O137 Tb120 2.322 . S
O137 C151 1.257 . S
O138 Tb120 2.349 . S
O138 C122 1.261 . S
O139 Tb121 2.303 . S
O139 C122 1.257 . S
C140 O130 1.236 . S
C140 O131 1.257 . S
O141 Tb120 2.415 . S
O141 C129 1.239 . S
O142 Tb120 2.399 . S
O142 C129 1.263 . S
C143 O132 1.261 . S
C143 O133 1.257 . S
C144 C147 1.358 . S
C144 C148 1.332 . S
C144 C150 1.504 . S
C145 C146 1.373 . S
C145 C149 1.308 . S
C146 C145 1.373 . S
C146 C147 1.429 . S
C146 H156 0.932 . S
C147 C144 1.358 . S
C147 C146 1.429 . S
C147 H157 0.930 . S
C148 C144 1.332 . S
C148 C149 1.394 . S
C148 H158 0.932 . S
C149 C145 1.308 . S
C149 C148 1.394 . S
C149 H159 0.929 . S
C150 Tb121 2.764 . S
C150 O134 1.239 . S
C150 O135 1.263 . S
C150 C144 1.504 . S
C151 O136 1.236 . S
C151 O137 1.257 . S
H152 C125 0.932 . S
H153 C126 0.930 . S
H154 C127 0.932 . S
H155 C128 0.929 . S
H156 C146 0.932 . S
H157 C147 0.930 . S
H158 C148 0.932 . S
H159 C149 0.929 . S
Tb160 C169 2.764 . S
Tb160 O170 2.325 . S
Tb160 O173 2.303 . S
Tb160 O177 2.322 . S
Tb160 O178 2.349 . S
Tb160 O181 2.415 . S
Tb160 O182 2.399 . S
Tb161 O171 2.322 . S
Tb161 O172 2.349 . S
Tb161 O174 2.415 . S
Tb161 O175 2.399 . S
Tb161 O176 2.325 . S
Tb161 O179 2.303 . S
Tb161 C190 2.764 . S
C162 O178 1.261 . S
C162 O179 1.257 . S
C163 C166 1.358 . S
C163 C167 1.332 . S
C163 C169 1.504 . S
C164 C165 1.373 . S
C164 C168 1.308 . S
C165 C164 1.373 . S
C165 C166 1.429 . S
C165 H192 0.932 . S
C166 C163 1.358 . S
C166 C165 1.429 . S
C166 H193 0.930 . S
C167 C163 1.332 . S
C167 C168 1.394 . S
C167 H194 0.932 . S
C168 C164 1.308 . S
C168 C167 1.394 . S
C168 H195 0.929 . S
C169 Tb160 2.764 . S
C169 C163 1.504 . S
C169 O181 1.239 . S
C169 O182 1.263 . S
O170 Tb160 2.325 . S
O170 C180 1.236 . S
O171 Tb161 2.322 . S
O171 C180 1.257 . S
O172 Tb161 2.349 . S
O172 C183 1.261 . S
O173 Tb160 2.303 . S
O173 C183 1.257 . S
O174 Tb161 2.415 . S
O174 C190 1.239 . S
O175 Tb161 2.399 . S
O175 C190 1.263 . S
O176 Tb161 2.325 . S
O176 C191 1.236 . S
O177 Tb160 2.322 . S
O177 C191 1.257 . S
O178 Tb160 2.349 . S
O178 C162 1.261 . S
O179 Tb161 2.303 . S
O179 C162 1.257 . S
C180 O170 1.236 . S
C180 O171 1.257 . S
O181 Tb160 2.415 . S
O181 C169 1.239 . S
O182 Tb160 2.399 . S
O182 C169 1.263 . S
C183 O172 1.261 . S
C183 O173 1.257 . S
C184 C187 1.358 . S
C184 C188 1.332 . S
C184 C190 1.504 . S
C185 C186 1.373 . S
C185 C189 1.308 . S
C186 C185 1.373 . S
C186 C187 1.429 . S
C186 H196 0.932 . S
C187 C184 1.358 . S
C187 C186 1.429 . S
C187 H197 0.930 . S
C188 C184 1.332 . S
C188 C189 1.394 . S
C188 H198 0.932 . S
C189 C185 1.308 . S
C189 C188 1.394 . S
C189 H199 0.929 . S
C190 Tb161 2.764 . S
C190 O174 1.239 . S
C190 O175 1.263 . S
C190 C184 1.504 . S
C191 O176 1.236 . S
C191 O177 1.257 . S
H192 C165 0.932 . S
H193 C166 0.930 . S
H194 C167 0.932 . S
H195 C168 0.929 . S
H196 C186 0.932 . S
H197 C187 0.930 . S
H198 C188 0.932 . S
H199 C189 0.929 . S
Tb200 C209 2.764 . S
Tb200 O210 2.325 . S
Tb200 O213 2.303 . S
Tb200 O217 2.322 . S
Tb200 O218 2.349 . S
Tb200 O221 2.415 . S
Tb200 O222 2.399 . S
Tb201 O211 2.322 . S
Tb201 O212 2.349 . S
Tb201 O214 2.415 . S
Tb201 O215 2.399 . S
Tb201 O216 2.325 . S
Tb201 O219 2.303 . S
Tb201 C230 2.764 1_556 S
C202 O218 1.261 . S
C202 O219 1.257 . S
C203 C206 1.358 . S
C203 C207 1.332 . S
C203 C209 1.504 . S
C204 C205 1.373 . S
C204 C208 1.308 . S
C205 C204 1.373 . S
C205 C206 1.429 . S
C205 H232 0.932 . S
C206 C203 1.358 . S
C206 C205 1.429 . S
C206 H233 0.930 . S
C207 C203 1.332 . S
C207 C208 1.394 . S
C207 H234 0.932 . S
C208 C204 1.308 . S
C208 C207 1.394 . S
C208 H235 0.929 . S
C209 Tb200 2.764 . S
C209 C203 1.504 . S
C209 O221 1.239 . S
C209 O222 1.263 . S
O210 Tb200 2.325 . S
O210 C220 1.236 . S
O211 Tb201 2.322 . S
O211 C220 1.257 . S
O212 Tb201 2.349 . S
O212 C223 1.261 . S
O213 Tb200 2.303 . S
O213 C223 1.257 . S
O214 Tb201 2.415 . S
O214 C230 1.239 1_556 S
O215 Tb201 2.399 . S
O215 C230 1.263 1_556 S
O216 Tb201 2.325 . S
O216 C231 1.236 . S
O217 Tb200 2.322 . S
O217 C231 1.257 . S
O218 Tb200 2.349 . S
O218 C202 1.261 . S
O219 Tb201 2.303 . S
O219 C202 1.257 . S
C220 O210 1.236 . S
C220 O211 1.257 . S
O221 Tb200 2.415 . S
O221 C209 1.239 . S
O222 Tb200 2.399 . S
O222 C209 1.263 . S
C223 O212 1.261 . S
C223 O213 1.257 . S
C224 C227 1.358 . S
C224 C228 1.332 . S
C224 C230 1.504 . S
C225 C226 1.373 . S
C225 C229 1.308 . S
C226 C225 1.373 . S
C226 C227 1.429 . S
C226 H236 0.932 . S
C227 C224 1.358 . S
C227 C226 1.429 . S
C227 H237 0.930 . S
C228 C224 1.332 . S
C228 C229 1.394 . S
C228 H238 0.932 . S
C229 C225 1.308 . S
C229 C228 1.394 . S
C229 H239 0.929 . S
C230 Tb201 2.764 1_554 S
C230 O214 1.239 1_554 S
C230 O215 1.263 1_554 S
C230 C224 1.504 . S
C231 O216 1.236 . S
C231 O217 1.257 . S
H232 C205 0.932 . S
H233 C206 0.930 . S
H234 C207 0.932 . S
H235 C208 0.929 . S
H236 C226 0.932 . S
H237 C227 0.930 . S
H238 C228 0.932 . S
H239 C229 0.929 . S
Tb240 C249 2.764 . S
Tb240 O250 2.325 . S
Tb240 O253 2.303 . S
Tb240 O257 2.322 . S
Tb240 O258 2.349 . S
Tb240 O261 2.415 . S
Tb240 O262 2.399 . S
Tb241 O251 2.322 . S
Tb241 O252 2.349 . S
Tb241 O254 2.415 . S
Tb241 O255 2.399 . S
Tb241 O256 2.325 . S
Tb241 O259 2.303 . S
Tb241 C270 2.764 . S
C242 O258 1.261 . S
C242 O259 1.257 . S
C243 C246 1.358 . S
C243 C247 1.332 . S
C243 C249 1.504 . S
C244 C245 1.373 . S
C244 C248 1.308 . S
C245 C244 1.373 . S
C245 C246 1.429 . S
C245 H272 0.932 . S
C246 C243 1.358 . S
C246 C245 1.429 . S
C246 H273 0.930 . S
C247 C243 1.332 . S
C247 C248 1.394 . S
C247 H274 0.932 . S
C248 C244 1.308 . S
C248 C247 1.394 . S
C248 H275 0.929 . S
C249 Tb240 2.764 . S
C249 C243 1.504 . S
C249 O261 1.239 . S
C249 O262 1.263 . S
O250 Tb240 2.325 . S
O250 C260 1.236 . S
O251 Tb241 2.322 . S
O251 C260 1.257 . S
O252 Tb241 2.349 . S
O252 C263 1.261 . S
O253 Tb240 2.303 . S
O253 C263 1.257 . S
O254 Tb241 2.415 . S
O254 C270 1.239 . S
O255 Tb241 2.399 . S
O255 C270 1.263 . S
O256 Tb241 2.325 . S
O256 C271 1.236 . S
O257 Tb240 2.322 . S
O257 C271 1.257 . S
O258 Tb240 2.349 . S
O258 C242 1.261 . S
O259 Tb241 2.303 . S
O259 C242 1.257 . S
C260 O250 1.236 . S
C260 O251 1.257 . S
O261 Tb240 2.415 . S
O261 C249 1.239 . S
O262 Tb240 2.399 . S
O262 C249 1.263 . S
C263 O252 1.261 . S
C263 O253 1.257 . S
C264 C267 1.358 . S
C264 C268 1.332 . S
C264 C270 1.504 . S
C265 C266 1.373 . S
C265 C269 1.308 . S
C266 C265 1.373 . S
C266 C267 1.429 . S
C266 H276 0.932 . S
C267 C264 1.358 . S
C267 C266 1.429 . S
C267 H277 0.930 . S
C268 C264 1.332 . S
C268 C269 1.394 . S
C268 H278 0.932 . S
C269 C265 1.308 . S
C269 C268 1.394 . S
C269 H279 0.929 . S
C270 Tb241 2.764 . S
C270 O254 1.239 . S
C270 O255 1.263 . S
C270 C264 1.504 . S
C271 O256 1.236 . S
C271 O257 1.257 . S
H272 C245 0.932 . S
H273 C246 0.930 . S
H274 C247 0.932 . S
H275 C248 0.929 . S
H276 C266 0.932 . S
H277 C267 0.930 . S
H278 C268 0.932 . S
H279 C269 0.929 . S
Tb280 C289 2.764 . S
Tb280 O290 2.325 . S
Tb280 O293 2.303 . S
Tb280 O297 2.322 . S
Tb280 O298 2.349 . S
Tb280 O301 2.415 . S
Tb280 O302 2.399 . S
Tb281 O291 2.322 . S
Tb281 O292 2.349 . S
Tb281 O294 2.415 . S
Tb281 O295 2.399 . S
Tb281 O296 2.325 . S
Tb281 O299 2.303 . S
Tb281 C310 2.764 . S
C282 O298 1.261 . S
C282 O299 1.257 . S
C283 C286 1.358 . S
C283 C287 1.332 . S
C283 C289 1.504 . S
C284 C285 1.373 . S
C284 C288 1.308 . S
C285 C284 1.373 . S
C285 C286 1.429 . S
C285 H312 0.932 . S
C286 C283 1.358 . S
C286 C285 1.429 . S
C286 H313 0.930 . S
C287 C283 1.332 . S
C287 C288 1.394 . S
C287 H314 0.932 . S
C288 C284 1.308 . S
C288 C287 1.394 . S
C288 H315 0.929 . S
C289 Tb280 2.764 . S
C289 C283 1.504 . S
C289 O301 1.239 . S
C289 O302 1.263 . S
O290 Tb280 2.325 . S
O290 C300 1.236 . S
O291 Tb281 2.322 . S
O291 C300 1.257 . S
O292 Tb281 2.349 . S
O292 C303 1.261 . S
O293 Tb280 2.303 . S
O293 C303 1.257 . S
O294 Tb281 2.415 . S
O294 C310 1.239 . S
O295 Tb281 2.399 . S
O295 C310 1.263 . S
O296 Tb281 2.325 . S
O296 C311 1.236 . S
O297 Tb280 2.322 . S
O297 C311 1.257 . S
O298 Tb280 2.349 . S
O298 C282 1.261 . S
O299 Tb281 2.303 . S
O299 C282 1.257 . S
C300 O290 1.236 . S
C300 O291 1.257 . S
O301 Tb280 2.415 . S
O301 C289 1.239 . S
O302 Tb280 2.399 . S
O302 C289 1.263 . S
C303 O292 1.261 . S
C303 O293 1.257 . S
C304 C307 1.358 . S
C304 C308 1.332 . S
C304 C310 1.504 . S
C305 C306 1.373 . S
C305 C309 1.308 . S
C306 C305 1.373 . S
C306 C307 1.429 . S
C306 H316 0.932 . S
C307 C304 1.358 . S
C307 C306 1.429 . S
C307 H317 0.930 . S
C308 C304 1.332 . S
C308 C309 1.394 . S
C308 H318 0.932 . S
C309 C305 1.308 . S
C309 C308 1.394 . S
C309 H319 0.929 . S
C310 Tb281 2.764 . S
C310 O294 1.239 . S
C310 O295 1.263 . S
C310 C304 1.504 . S
C311 O296 1.236 . S
C311 O297 1.257 . S
H312 C285 0.932 . S
H313 C286 0.930 . S
H314 C287 0.932 . S
H315 C288 0.929 . S
H316 C306 0.932 . S
H317 C307 0.930 . S
H318 C308 0.932 . S
H319 C309 0.929 . S
Tb320 C329 2.764 . S
Tb320 O330 2.325 . S
Tb320 O333 2.303 . S
Tb320 O337 2.322 . S
Tb320 O338 2.349 . S
Tb320 O341 2.415 . S
Tb320 O342 2.399 . S
Tb321 O331 2.322 . S
Tb321 O332 2.349 . S
Tb321 O334 2.415 . S
Tb321 O335 2.399 . S
Tb321 O336 2.325 . S
Tb321 O339 2.303 . S
Tb321 C350 2.764 1_554 S
C322 O338 1.261 . S
C322 O339 1.257 . S
C323 C326 1.358 . S
C323 C327 1.332 . S
C323 C329 1.504 . S
C324 C325 1.373 . S
C324 C328 1.308 . S
C325 C324 1.373 . S
C325 C326 1.429 . S
C325 H352 0.932 . S
C326 C323 1.358 . S
C326 C325 1.429 . S
C326 H353 0.930 . S
C327 C323 1.332 . S
C327 C328 1.394 . S
C327 H354 0.932 . S
C328 C324 1.308 . S
C328 C327 1.394 . S
C328 H355 0.929 . S
C329 Tb320 2.764 . S
C329 C323 1.504 . S
C329 O341 1.239 . S
C329 O342 1.263 . S
O330 Tb320 2.325 . S
O330 C340 1.236 . S
O331 Tb321 2.322 . S
O331 C340 1.257 . S
O332 Tb321 2.349 . S
O332 C343 1.261 . S
O333 Tb320 2.303 . S
O333 C343 1.257 . S
O334 Tb321 2.415 . S
O334 C350 1.239 1_554 S
O335 Tb321 2.399 . S
O335 C350 1.263 1_554 S
O336 Tb321 2.325 . S
O336 C351 1.236 . S
O337 Tb320 2.322 . S
O337 C351 1.257 . S
O338 Tb320 2.349 . S
O338 C322 1.261 . S
O339 Tb321 2.303 . S
O339 C322 1.257 . S
C340 O330 1.236 . S
C340 O331 1.257 . S
O341 Tb320 2.415 . S
O341 C329 1.239 . S
O342 Tb320 2.399 . S
O342 C329 1.263 . S
C343 O332 1.261 . S
C343 O333 1.257 . S
C344 C347 1.358 . S
C344 C348 1.332 . S
C344 C350 1.504 . S
C345 C346 1.373 . S
C345 C349 1.308 . S
C346 C345 1.373 . S
C346 C347 1.429 . S
C346 H356 0.932 . S
C347 C344 1.358 . S
C347 C346 1.429 . S
C347 H357 0.930 . S
C348 C344 1.332 . S
C348 C349 1.394 . S
C348 H358 0.932 . S
C349 C345 1.308 . S
C349 C348 1.394 . S
C349 H359 0.929 . S
C350 Tb321 2.764 1_556 S
C350 O334 1.239 1_556 S
C350 O335 1.263 1_556 S
C350 C344 1.504 . S
C351 O336 1.236 . S
C351 O337 1.257 . S
H352 C325 0.932 . S
H353 C326 0.930 . S
H354 C327 0.932 . S
H355 C328 0.929 . S
H356 C346 0.932 . S
H357 C347 0.930 . S
H358 C348 0.932 . S
H359 C349 0.929 . S
Tb360 C369 2.764 . S
Tb360 O370 2.325 . S
Tb360 O373 2.303 . S
Tb360 O377 2.322 . S
Tb360 O378 2.349 . S
Tb360 O381 2.415 . S
Tb360 O382 2.399 . S
Tb361 O371 2.322 . S
Tb361 O372 2.349 . S
Tb361 O374 2.415 . S
Tb361 O375 2.399 . S
Tb361 O376 2.325 . S
Tb361 O379 2.303 . S
Tb361 C390 2.764 . S
C362 O378 1.261 . S
C362 O379 1.257 . S
C363 C366 1.358 . S
C363 C367 1.332 . S
C363 C369 1.504 . S
C364 C365 1.373 . S
C364 C368 1.308 . S
C365 C364 1.373 . S
C365 C366 1.429 . S
C365 H392 0.932 . S
C366 C363 1.358 . S
C366 C365 1.429 . S
C366 H393 0.930 . S
C367 C363 1.332 . S
C367 C368 1.394 . S
C367 H394 0.932 . S
C368 C364 1.308 . S
C368 C367 1.394 . S
C368 H395 0.929 . S
C369 Tb360 2.764 . S
C369 C363 1.504 . S
C369 O381 1.239 . S
C369 O382 1.263 . S
O370 Tb360 2.325 . S
O370 C380 1.236 . S
O371 Tb361 2.322 . S
O371 C380 1.257 . S
O372 Tb361 2.349 . S
O372 C383 1.261 . S
O373 Tb360 2.303 . S
O373 C383 1.257 . S
O374 Tb361 2.415 . S
O374 C390 1.239 . S
O375 Tb361 2.399 . S
O375 C390 1.263 . S
O376 Tb361 2.325 . S
O376 C391 1.236 . S
O377 Tb360 2.322 . S
O377 C391 1.257 . S
O378 Tb360 2.349 . S
O378 C362 1.261 . S
O379 Tb361 2.303 . S
O379 C362 1.257 . S
C380 O370 1.236 . S
C380 O371 1.257 . S
O381 Tb360 2.415 . S
O381 C369 1.239 . S
O382 Tb360 2.399 . S
O382 C369 1.263 . S
C383 O372 1.261 . S
C383 O373 1.257 . S
C384 C387 1.358 . S
C384 C388 1.332 . S
C384 C390 1.504 . S
C385 C386 1.373 . S
C385 C389 1.308 . S
C386 C385 1.373 . S
C386 C387 1.429 . S
C386 H396 0.932 . S
C387 C384 1.358 . S
C387 C386 1.429 . S
C387 H397 0.930 . S
C388 C384 1.332 . S
C388 C389 1.394 . S
C388 H398 0.932 . S
C389 C385 1.308 . S
C389 C388 1.394 . S
C389 H399 0.929 . S
C390 Tb361 2.764 . S
C390 O374 1.239 . S
C390 O375 1.263 . S
C390 C384 1.504 . S
C391 O376 1.236 . S
C391 O377 1.257 . S
H392 C365 0.932 . S
H393 C366 0.930 . S
H394 C367 0.932 . S
H395 C368 0.929 . S
H396 C386 0.932 . S
H397 C387 0.930 . S
H398 C388 0.932 . S
H399 C389 0.929 . S
Tb400 C409 2.764 . S
Tb400 O410 2.325 . S
Tb400 O413 2.303 . S
Tb400 O417 2.322 . S
Tb400 O418 2.349 . S
Tb400 O421 2.415 . S
Tb400 O422 2.399 . S
Tb401 O411 2.322 . S
Tb401 O412 2.349 . S
Tb401 O414 2.415 . S
Tb401 O415 2.399 . S
Tb401 O416 2.325 . S
Tb401 O419 2.303 . S
Tb401 C430 2.764 . S
C402 O418 1.261 . S
C402 O419 1.257 . S
C403 C406 1.358 . S
C403 C407 1.332 . S
C403 C409 1.504 . S
C404 C405 1.373 . S
C404 C408 1.308 . S
C405 C404 1.373 . S
C405 C406 1.429 . S
C405 H432 0.932 . S
C406 C403 1.358 . S
C406 C405 1.429 . S
C406 H433 0.930 . S
C407 C403 1.332 . S
C407 C408 1.394 . S
C407 H434 0.932 . S
C408 C404 1.308 . S
C408 C407 1.394 . S
C408 H435 0.929 . S
C409 Tb400 2.764 . S
C409 C403 1.504 . S
C409 O421 1.239 . S
C409 O422 1.263 . S
O410 Tb400 2.325 . S
O410 C420 1.236 . S
O411 Tb401 2.322 . S
O411 C420 1.257 . S
O412 Tb401 2.349 . S
O412 C423 1.261 . S
O413 Tb400 2.303 . S
O413 C423 1.257 . S
O414 Tb401 2.415 . S
O414 C430 1.239 . S
O415 Tb401 2.399 . S
O415 C430 1.263 . S
O416 Tb401 2.325 . S
O416 C431 1.236 . S
O417 Tb400 2.322 . S
O417 C431 1.257 . S
O418 Tb400 2.349 . S
O418 C402 1.261 . S
O419 Tb401 2.303 . S
O419 C402 1.257 . S
C420 O410 1.236 . S
C420 O411 1.257 . S
O421 Tb400 2.415 . S
O421 C409 1.239 . S
O422 Tb400 2.399 . S
O422 C409 1.263 . S
C423 O412 1.261 . S
C423 O413 1.257 . S
C424 C427 1.358 . S
C424 C428 1.332 . S
C424 C430 1.504 . S
C425 C426 1.373 . S
C425 C429 1.308 . S
C426 C425 1.373 . S
C426 C427 1.429 . S
C426 H436 0.932 . S
C427 C424 1.358 . S
C427 C426 1.429 . S
C427 H437 0.930 . S
C428 C424 1.332 . S
C428 C429 1.394 . S
C428 H438 0.932 . S
C429 C425 1.308 . S
C429 C428 1.394 . S
C429 H439 0.929 . S
C430 Tb401 2.764 . S
C430 O414 1.239 . S
C430 O415 1.263 . S
C430 C424 1.504 . S
C431 O416 1.236 . S
C431 O417 1.257 . S
H432 C405 0.932 . S
H433 C406 0.930 . S
H434 C407 0.932 . S
H435 C408 0.929 . S
H436 C426 0.932 . S
H437 C427 0.930 . S
H438 C428 0.932 . S
H439 C429 0.929 . S
Tb440 C449 2.764 . S
Tb440 O450 2.325 . S
Tb440 O453 2.303 . S
Tb440 O457 2.322 . S
Tb440 O458 2.349 . S
Tb440 O461 2.415 . S
Tb440 O462 2.399 . S
Tb441 O451 2.322 . S
Tb441 O452 2.349 . S
Tb441 O454 2.415 . S
Tb441 O455 2.399 . S
Tb441 O456 2.325 . S
Tb441 O459 2.303 . S
Tb441 C470 2.764 1_554 S
C442 O458 1.261 . S
C442 O459 1.257 . S
C443 C446 1.358 . S
C443 C447 1.332 . S
C443 C449 1.504 . S
C444 C445 1.373 . S
C444 C448 1.308 . S
C445 C444 1.373 . S
C445 C446 1.429 . S
C445 H472 0.932 . S
C446 C443 1.358 . S
C446 C445 1.429 . S
C446 H473 0.930 . S
C447 C443 1.332 . S
C447 C448 1.394 . S
C447 H474 0.932 . S
C448 C444 1.308 . S
C448 C447 1.394 . S
C448 H475 0.929 . S
C449 Tb440 2.764 . S
C449 C443 1.504 . S
C449 O461 1.239 . S
C449 O462 1.263 . S
O450 Tb440 2.325 . S
O450 C460 1.236 . S
O451 Tb441 2.322 . S
O451 C460 1.257 . S
O452 Tb441 2.349 . S
O452 C463 1.261 . S
O453 Tb440 2.303 . S
O453 C463 1.257 . S
O454 Tb441 2.415 . S
O454 C470 1.239 1_554 S
O455 Tb441 2.399 . S
O455 C470 1.263 1_554 S
O456 Tb441 2.325 . S
O456 C471 1.236 . S
O457 Tb440 2.322 . S
O457 C471 1.257 . S
O458 Tb440 2.349 . S
O458 C442 1.261 . S
O459 Tb441 2.303 . S
O459 C442 1.257 . S
C460 O450 1.236 . S
C460 O451 1.257 . S
O461 Tb440 2.415 . S
O461 C449 1.239 . S
O462 Tb440 2.399 . S
O462 C449 1.263 . S
C463 O452 1.261 . S
C463 O453 1.257 . S
C464 C467 1.358 . S
C464 C468 1.332 . S
C464 C470 1.504 . S
C465 C466 1.373 . S
C465 C469 1.308 . S
C466 C465 1.373 . S
C466 C467 1.429 . S
C466 H476 0.932 . S
C467 C464 1.358 . S
C467 C466 1.429 . S
C467 H477 0.930 . S
C468 C464 1.332 . S
C468 C469 1.394 . S
C468 H478 0.932 . S
C469 C465 1.308 . S
C469 C468 1.394 . S
C469 H479 0.929 . S
C470 Tb441 2.764 1_556 S
C470 O454 1.239 1_556 S
C470 O455 1.263 1_556 S
C470 C464 1.504 . S
C471 O456 1.236 . S
C471 O457 1.257 . S
H472 C445 0.932 . S
H473 C446 0.930 . S
H474 C447 0.932 . S
H475 C448 0.929 . S
H476 C466 0.932 . S
H477 C467 0.930 . S
H478 C468 0.932 . S
H479 C469 0.929 . S
H480 C492 0.930 . S
H481 C494 0.930 . S
H482 C495 0.930 . S
H483 C499 0.959 . S
H484 C499 0.959 . S
H485 C499 0.961 . S
H486 C500 0.960 . S
H487 C500 0.961 . S
H488 C500 0.959 . S
H489 C503 0.929 . S
H490 C504 0.931 . S
H491 C506 0.930 . S
C492 H480 0.930 . S
C492 C493 1.399 . S
C492 C497 1.399 . S
C493 C492 1.399 . S
C493 C494 1.376 . S
C494 H481 0.930 . S
C494 C493 1.376 . S
C494 C495 1.388 . S
C495 H482 0.930 . S
C495 C494 1.388 . S
C495 C496 1.390 . S
C496 C495 1.390 . S
C496 C497 1.394 . S
C496 C502 1.465 . S
C497 C492 1.399 . S
C497 C496 1.394 . S
C497 C498 1.516 . S
C498 C497 1.516 . S
C498 C499 1.502 . S
C498 C500 1.561 . S
C498 C501 1.526 . S
C499 H483 0.959 . S
C499 H484 0.959 . S
C499 H485 0.961 . S
C499 C498 1.502 . S
C500 H486 0.960 . S
C500 H487 0.961 . S
C500 H488 0.959 . S
C500 C498 1.561 . S
C501 C498 1.526 . S
C501 C502 1.396 . S
C501 C506 1.390 . S
C502 C496 1.465 . S
C502 C501 1.396 . S
C502 C503 1.399 . S
C503 H489 0.929 . S
C503 C502 1.399 . S
C503 C504 1.385 . S
C504 H490 0.931 . S
C504 C503 1.385 . S
C504 C505 1.389 . S
C505 C504 1.389 . S
C505 C506 1.387 . S
C506 H491 0.930 . S
C506 C501 1.390 . S
C506 C505 1.387 . S
H507 C519 0.930 . S
H508 C521 0.930 . S
H509 C522 0.930 . S
H510 C526 0.959 . S
H511 C526 0.959 . S
H512 C526 0.961 . S
H513 C527 0.960 . S
H514 C527 0.961 . S
H515 C527 0.959 . S
H516 C530 0.929 . S
H517 C531 0.931 . S
H518 C533 0.930 . S
C519 H507 0.930 . S
C519 C520 1.399 . S
C519 C524 1.399 . S
C520 C519 1.399 . S
C520 C521 1.376 . S
C521 H508 0.930 . S
C521 C520 1.376 . S
C521 C522 1.388 . S
C522 H509 0.930 . S
C522 C521 1.388 . S
C522 C523 1.390 . S
C523 C522 1.390 . S
C523 C524 1.394 . S
C523 C529 1.465 . S
C524 C519 1.399 . S
C524 C523 1.394 . S
C524 C525 1.516 . S
C525 C524 1.516 . S
C525 C526 1.502 . S
C525 C527 1.561 . S
C525 C528 1.526 . S
C526 H510 0.959 . S
C526 H511 0.959 . S
C526 H512 0.961 . S
C526 C525 1.502 . S
C527 H513 0.960 . S
C527 H514 0.961 . S
C527 H515 0.959 . S
C527 C525 1.561 . S
C528 C525 1.526 . S
C528 C529 1.396 . S
C528 C533 1.390 . S
C529 C523 1.465 . S
C529 C528 1.396 . S
C529 C530 1.399 . S
C530 H516 0.929 . S
C530 C529 1.399 . S
C530 C531 1.385 . S
C531 H517 0.931 . S
C531 C530 1.385 . S
C531 C532 1.389 . S
C532 C531 1.389 . S
C532 C533 1.387 . S
C533 H518 0.930 . S
C533 C528 1.390 . S
C533 C532 1.387 . S
H534 C546 0.930 . S
H535 C548 0.930 . S
H536 C549 0.930 . S
H537 C553 0.959 . S
H538 C553 0.959 . S
H539 C553 0.961 . S
H540 C554 0.960 . S
H541 C554 0.961 . S
H542 C554 0.959 . S
H543 C557 0.929 . S
H544 C558 0.931 . S
H545 C560 0.930 . S
C546 H534 0.930 . S
C546 C547 1.399 . S
C546 C551 1.399 . S
C547 C546 1.399 . S
C547 C548 1.376 . S
C548 H535 0.930 . S
C548 C547 1.376 . S
C548 C549 1.388 . S
C549 H536 0.930 . S
C549 C548 1.388 . S
C549 C550 1.390 . S
C550 C549 1.390 . S
C550 C551 1.394 . S
C550 C556 1.465 . S
C551 C546 1.399 . S
C551 C550 1.394 . S
C551 C552 1.516 . S
C552 C551 1.516 . S
C552 C553 1.502 . S
C552 C554 1.561 . S
C552 C555 1.526 . S
C553 H537 0.959 . S
C553 H538 0.959 . S
C553 H539 0.961 . S
C553 C552 1.502 . S
C554 H540 0.960 . S
C554 H541 0.961 . S
C554 H542 0.959 . S
C554 C552 1.561 . S
C555 C552 1.526 . S
C555 C556 1.396 . S
C555 C560 1.390 . S
C556 C550 1.465 . S
C556 C555 1.396 . S
C556 C557 1.399 . S
C557 H543 0.929 . S
C557 C556 1.399 . S
C557 C558 1.385 . S
C558 H544 0.931 . S
C558 C557 1.385 . S
C558 C559 1.389 . S
C559 C558 1.389 . S
C559 C560 1.387 . S
C560 H545 0.930 . S
C560 C555 1.390 . S
C560 C559 1.387 . S
H561 C573 0.930 . S
H562 C575 0.930 . S
H563 C576 0.930 . S
H564 C580 0.959 . S
H565 C580 0.959 . S
H566 C580 0.961 . S
H567 C581 0.960 . S
H568 C581 0.961 . S
H569 C581 0.959 . S
H570 C584 0.929 . S
H571 C585 0.931 . S
H572 C587 0.930 . S
C573 H561 0.930 . S
C573 C574 1.399 . S
C573 C578 1.399 . S
C574 C573 1.399 . S
C574 C575 1.376 . S
C575 H562 0.930 . S
C575 C574 1.376 . S
C575 C576 1.388 . S
C576 H563 0.930 . S
C576 C575 1.388 . S
C576 C577 1.390 . S
C577 C576 1.390 . S
C577 C578 1.394 . S
C577 C583 1.465 . S
C578 C573 1.399 . S
C578 C577 1.394 . S
C578 C579 1.516 . S
C579 C578 1.516 . S
C579 C580 1.502 . S
C579 C581 1.561 . S
C579 C582 1.526 . S
C580 H564 0.959 . S
C580 H565 0.959 . S
C580 H566 0.961 . S
C580 C579 1.502 . S
C581 H567 0.960 . S
C581 H568 0.961 . S
C581 H569 0.959 . S
C581 C579 1.561 . S
C582 C579 1.526 . S
C582 C583 1.396 . S
C582 C587 1.390 . S
C583 C577 1.465 . S
C583 C582 1.396 . S
C583 C584 1.399 . S
C584 H570 0.929 . S
C584 C583 1.399 . S
C584 C585 1.385 . S
C585 H571 0.931 . S
C585 C584 1.385 . S
C585 C586 1.389 . S
C586 C585 1.389 . S
C586 C587 1.387 . S
C587 H572 0.930 . S
C587 C582 1.390 . S
C587 C586 1.387 . S
H588 C600 0.930 . S
H589 C602 0.930 . S
H590 C603 0.930 . S
H591 C607 0.959 . S
H592 C607 0.959 . S
H593 C607 0.961 . S
H594 C608 0.960 . S
H595 C608 0.961 . S
H596 C608 0.959 . S
H597 C611 0.929 . S
H598 C612 0.931 . S
H599 C614 0.930 . S
C600 H588 0.930 . S
C600 C601 1.399 . S
C600 C605 1.399 . S
C601 C600 1.399 . S
C601 C602 1.376 . S
C602 H589 0.930 . S
C602 C601 1.376 . S
C602 C603 1.388 . S
C603 H590 0.930 . S
C603 C602 1.388 . S
C603 C604 1.390 . S
C604 C603 1.390 . S
C604 C605 1.394 . S
C604 C610 1.465 . S
C605 C600 1.399 . S
C605 C604 1.394 . S
C605 C606 1.516 . S
C606 C605 1.516 . S
C606 C607 1.502 . S
C606 C608 1.561 . S
C606 C609 1.526 . S
C607 H591 0.959 . S
C607 H592 0.959 . S
C607 H593 0.961 . S
C607 C606 1.502 . S
C608 H594 0.960 . S
C608 H595 0.961 . S
C608 H596 0.959 . S
C608 C606 1.561 . S
C609 C606 1.526 . S
C609 C610 1.396 . S
C609 C614 1.390 . S
C610 C604 1.465 . S
C610 C609 1.396 . S
C610 C611 1.399 . S
C611 H597 0.929 . S
C611 C610 1.399 . S
C611 C612 1.385 . S
C612 H598 0.931 . S
C612 C611 1.385 . S
C612 C613 1.389 . S
C613 C612 1.389 . S
C613 C614 1.387 . S
C614 H599 0.930 . S
C614 C609 1.390 . S
C614 C613 1.387 . S
H615 C627 0.930 . S
H616 C629 0.930 . S
H617 C630 0.930 . S
H618 C634 0.959 . S
H619 C634 0.959 . S
H620 C634 0.961 . S
H621 C635 0.960 . S
H622 C635 0.961 . S
H623 C635 0.959 . S
H624 C638 0.929 . S
H625 C639 0.931 . S
H626 C641 0.930 . S
C627 H615 0.930 . S
C627 C628 1.399 . S
C627 C632 1.399 . S
C628 C627 1.399 . S
C628 C629 1.376 . S
C629 H616 0.930 . S
C629 C628 1.376 . S
C629 C630 1.388 . S
C630 H617 0.930 . S
C630 C629 1.388 . S
C630 C631 1.390 . S
C631 C630 1.390 . S
C631 C632 1.394 . S
C631 C637 1.465 . S
C632 C627 1.399 . S
C632 C631 1.394 . S
C632 C633 1.516 . S
C633 C632 1.516 . S
C633 C634 1.502 . S
C633 C635 1.561 . S
C633 C636 1.526 . S
C634 H618 0.959 . S
C634 H619 0.959 . S
C634 H620 0.961 . S
C634 C633 1.502 . S
C635 H621 0.960 . S
C635 H622 0.961 . S
C635 H623 0.959 . S
C635 C633 1.561 . S
C636 C633 1.526 . S
C636 C637 1.396 . S
C636 C641 1.390 . S
C637 C631 1.465 . S
C637 C636 1.396 . S
C637 C638 1.399 . S
C638 H624 0.929 . S
C638 C637 1.399 . S
C638 C639 1.385 . S
C639 H625 0.931 . S
C639 C638 1.385 . S
C639 C640 1.389 . S
C640 C639 1.389 . S
C640 C641 1.387 . S
C641 H626 0.930 . S
C641 C636 1.390 . S
C641 C640 1.387 . S
H642 C654 0.930 . S
H643 C656 0.930 . S
H644 C657 0.930 . S
H645 C661 0.959 . S
H646 C661 0.959 . S
H647 C661 0.961 . S
H648 C662 0.960 1_556 S
H649 C662 0.961 . S
H650 C662 0.959 . S
H651 C665 0.929 . S
H652 C666 0.931 . S
H653 C668 0.930 . S
C654 H642 0.930 . S
C654 C655 1.399 . S
C654 C659 1.399 . S
C655 C654 1.399 . S
C655 C656 1.376 . S
C656 H643 0.930 . S
C656 C655 1.376 . S
C656 C657 1.388 . S
C657 H644 0.930 . S
C657 C656 1.388 . S
C657 C658 1.390 . S
C658 C657 1.390 . S
C658 C659 1.394 . S
C658 C664 1.465 1_556 S
C659 C654 1.399 . S
C659 C658 1.394 . S
C659 C660 1.516 . S
C660 C659 1.516 . S
C660 C661 1.502 . S
C660 C662 1.561 1_556 S
C660 C663 1.526 1_556 S
C661 H645 0.959 . S
C661 H646 0.959 . S
C661 H647 0.961 . S
C661 C660 1.502 . S
C662 H648 0.960 1_554 S
C662 H649 0.961 . S
C662 H650 0.959 . S
C662 C660 1.561 1_554 S
C663 C660 1.526 1_554 S
C663 C664 1.396 . S
C663 C668 1.390 . S
C664 C658 1.465 1_554 S
C664 C663 1.396 . S
C664 C665 1.399 . S
C665 H651 0.929 . S
C665 C664 1.399 . S
C665 C666 1.385 . S
C666 H652 0.931 . S
C666 C665 1.385 . S
C666 C667 1.389 . S
C667 C666 1.389 . S
C667 C668 1.387 . S
C668 H653 0.930 . S
C668 C663 1.390 . S
C668 C667 1.387 . S
H669 C681 0.930 . S
H670 C683 0.930 . S
H671 C684 0.930 . S
H672 C688 0.959 . S
H673 C688 0.959 . S
H674 C688 0.961 . S
H675 C689 0.960 . S
H676 C689 0.961 . S
H677 C689 0.959 . S
H678 C692 0.929 . S
H679 C693 0.931 . S
H680 C695 0.930 . S
C681 H669 0.930 . S
C681 C682 1.399 . S
C681 C686 1.399 . S
C682 C681 1.399 . S
C682 C683 1.376 . S
C683 H670 0.930 . S
C683 C682 1.376 . S
C683 C684 1.388 . S
C684 H671 0.930 . S
C684 C683 1.388 . S
C684 C685 1.390 . S
C685 C684 1.390 . S
C685 C686 1.394 . S
C685 C691 1.465 . S
C686 C681 1.399 . S
C686 C685 1.394 . S
C686 C687 1.516 . S
C687 C686 1.516 . S
C687 C688 1.502 . S
C687 C689 1.561 . S
C687 C690 1.526 . S
C688 H672 0.959 . S
C688 H673 0.959 . S
C688 H674 0.961 . S
C688 C687 1.502 . S
C689 H675 0.960 . S
C689 H676 0.961 . S
C689 H677 0.959 . S
C689 C687 1.561 . S
C690 C687 1.526 . S
C690 C691 1.396 . S
C690 C695 1.390 . S
C691 C685 1.465 . S
C691 C690 1.396 . S
C691 C692 1.399 . S
C692 H678 0.929 . S
C692 C691 1.399 . S
C692 C693 1.385 . S
C693 H679 0.931 . S
C693 C692 1.385 . S
C693 C694 1.389 . S
C694 C693 1.389 . S
C694 C695 1.387 . S
C695 H680 0.930 . S
C695 C690 1.390 . S
C695 C694 1.387 . S
H696 C708 0.930 . S
H697 C710 0.930 . S
H698 C711 0.930 . S
H699 C715 0.959 . S
H700 C715 0.959 . S
H701 C715 0.961 . S
H702 C716 0.960 . S
H703 C716 0.961 . S
H704 C716 0.959 . S
H705 C719 0.929 . S
H706 C720 0.931 . S
H707 C722 0.930 . S
C708 H696 0.930 . S
C708 C709 1.399 . S
C708 C713 1.399 . S
C709 C708 1.399 . S
C709 C710 1.376 . S
C710 H697 0.930 . S
C710 C709 1.376 . S
C710 C711 1.388 . S
C711 H698 0.930 . S
C711 C710 1.388 . S
C711 C712 1.390 . S
C712 C711 1.390 . S
C712 C713 1.394 . S
C712 C718 1.465 . S
C713 C708 1.399 . S
C713 C712 1.394 . S
C713 C714 1.516 . S
C714 C713 1.516 . S
C714 C715 1.502 . S
C714 C716 1.561 . S
C714 C717 1.526 . S
C715 H699 0.959 . S
C715 H700 0.959 . S
C715 H701 0.961 . S
C715 C714 1.502 . S
C716 H702 0.960 . S
C716 H703 0.961 . S
C716 H704 0.959 . S
C716 C714 1.561 . S
C717 C714 1.526 . S
C717 C718 1.396 . S
C717 C722 1.390 . S
C718 C712 1.465 . S
C718 C717 1.396 . S
C718 C719 1.399 . S
C719 H705 0.929 . S
C719 C718 1.399 . S
C719 C720 1.385 . S
C720 H706 0.931 . S
C720 C719 1.385 . S
C720 C721 1.389 . S
C721 C720 1.389 . S
C721 C722 1.387 . S
C722 H707 0.930 . S
C722 C717 1.390 . S
C722 C721 1.387 . S
H723 C735 0.930 . S
H724 C737 0.930 . S
H725 C738 0.930 . S
H726 C742 0.959 . S
H727 C742 0.959 . S
H728 C742 0.961 . S
H729 C743 0.960 . S
H730 C743 0.961 1_554 S
H731 C743 0.959 . S
H732 C746 0.929 . S
H733 C747 0.931 . S
H734 C749 0.930 . S
C735 H723 0.930 . S
C735 C736 1.399 . S
C735 C740 1.399 . S
C736 C735 1.399 . S
C736 C737 1.376 . S
C737 H724 0.930 . S
C737 C736 1.376 . S
C737 C738 1.388 . S
C738 H725 0.930 . S
C738 C737 1.388 . S
C738 C739 1.390 . S
C739 C738 1.390 . S
C739 C740 1.394 . S
C739 C745 1.465 1_556 S
C740 C735 1.399 . S
C740 C739 1.394 . S
C740 C741 1.516 1_556 S
C741 C740 1.516 1_554 S
C741 C742 1.502 . S
C741 C743 1.561 1_554 S
C741 C744 1.526 . S
C742 H726 0.959 . S
C742 H727 0.959 . S
C742 H728 0.961 . S
C742 C741 1.502 . S
C743 H729 0.960 . S
C743 H730 0.961 1_556 S
C743 H731 0.959 . S
C743 C741 1.561 1_556 S
C744 C741 1.526 . S
C744 C745 1.396 . S
C744 C749 1.390 . S
C745 C739 1.465 1_554 S
C745 C744 1.396 . S
C745 C746 1.399 . S
C746 H732 0.929 . S
C746 C745 1.399 . S
C746 C747 1.385 . S
C747 H733 0.931 . S
C747 C746 1.385 . S
C747 C748 1.389 . S
C748 C747 1.389 . S
C748 C749 1.387 . S
C749 H734 0.930 . S
C749 C744 1.390 . S
C749 C748 1.387 . S
H750 C762 0.930 . S
H751 C764 0.930 . S
H752 C765 0.930 . S
H753 C769 0.959 . S
H754 C769 0.959 . S
H755 C769 0.961 . S
H756 C770 0.960 . S
H757 C770 0.961 . S
H758 C770 0.959 . S
H759 C773 0.929 . S
H760 C774 0.931 . S
H761 C776 0.930 . S
C762 H750 0.930 . S
C762 C763 1.399 . S
C762 C767 1.399 . S
C763 C762 1.399 . S
C763 C764 1.376 . S
C764 H751 0.930 . S
C764 C763 1.376 . S
C764 C765 1.388 . S
C765 H752 0.930 . S
C765 C764 1.388 . S
C765 C766 1.390 . S
C766 C765 1.390 . S
C766 C767 1.394 . S
C766 C772 1.465 . S
C767 C762 1.399 . S
C767 C766 1.394 . S
C767 C768 1.516 . S
C768 C767 1.516 . S
C768 C769 1.502 . S
C768 C770 1.561 . S
C768 C771 1.526 . S
C769 H753 0.959 . S
C769 H754 0.959 . S
C769 H755 0.961 . S
C769 C768 1.502 . S
C770 H756 0.960 . S
C770 H757 0.961 . S
C770 H758 0.959 . S
C770 C768 1.561 . S
C771 C768 1.526 . S
C771 C772 1.396 . S
C771 C776 1.390 . S
C772 C766 1.465 . S
C772 C771 1.396 . S
C772 C773 1.399 . S
C773 H759 0.929 . S
C773 C772 1.399 . S
C773 C774 1.385 . S
C774 H760 0.931 . S
C774 C773 1.385 . S
C774 C775 1.389 . S
C775 C774 1.389 . S
C775 C776 1.387 . S
C776 H761 0.930 . S
C776 C771 1.390 . S
C776 C775 1.387 . S
H777 C789 0.930 . S
H778 C791 0.930 . S
H779 C792 0.930 . S
H780 C796 0.959 . S
H781 C796 0.959 . S
H782 C796 0.961 . S
H783 C797 0.960 . S
H784 C797 0.961 . S
H785 C797 0.959 . S
H786 C800 0.929 . S
H787 C801 0.931 . S
H788 C803 0.930 . S
C789 H777 0.930 . S
C789 C790 1.399 . S
C789 C794 1.399 . S
C790 C789 1.399 . S
C790 C791 1.376 . S
C791 H778 0.930 . S
C791 C790 1.376 . S
C791 C792 1.388 . S
C792 H779 0.930 . S
C792 C791 1.388 . S
C792 C793 1.390 . S
C793 C792 1.390 . S
C793 C794 1.394 . S
C793 C799 1.465 . S
C794 C789 1.399 . S
C794 C793 1.394 . S
C794 C795 1.516 . S
C795 C794 1.516 . S
C795 C796 1.502 . S
C795 C797 1.561 . S
C795 C798 1.526 . S
C796 H780 0.959 . S
C796 H781 0.959 . S
C796 H782 0.961 . S
C796 C795 1.502 . S
C797 H783 0.960 . S
C797 H784 0.961 . S
C797 H785 0.959 . S
C797 C795 1.561 . S
C798 C795 1.526 . S
C798 C799 1.396 . S
C798 C803 1.390 . S
C799 C793 1.465 . S
C799 C798 1.396 . S
C799 C800 1.399 . S
C800 H786 0.929 . S
C800 C799 1.399 . S
C800 C801 1.385 . S
C801 H787 0.931 . S
C801 C800 1.385 . S
C801 C802 1.389 . S
C802 C801 1.389 . S
C802 C803 1.387 . S
C803 H788 0.930 . S
C803 C798 1.390 . S
C803 C802 1.387 . S
H804 C816 0.930 . S
H805 C818 0.921 1_545 S
H806 C819 0.930 . S
H807 C823 0.959 . S
H808 C823 0.959 . S
H809 C823 0.961 . S
H810 C824 0.960 . S
H811 C824 0.961 . S
H812 C824 0.959 . S
H813 C827 0.929 1_556 S
H814 C828 0.931 . S
H815 C830 0.930 1_565 S
C816 H804 0.930 . S
C816 C817 1.399 . S
C816 C821 1.399 . S
C817 C816 1.399 . S
C817 C818 1.376 . S
C818 H805 0.921 1_565 S
C818 C817 1.376 . S
C818 C819 1.388 1_565 S
C819 H806 0.930 . S
C819 C818 1.388 1_545 S
C819 C820 1.390 . S
C820 C819 1.390 . S
C820 C821 1.394 1_545 S
C820 C826 1.465 1_556 S
C821 C816 1.399 . S
C821 C820 1.394 1_565 S
C821 C822 1.516 1_556 S
C822 C821 1.516 1_554 S
C822 C823 1.502 . S
C822 C824 1.561 . S
C822 C825 1.526 1_565 S
C823 H807 0.959 . S
C823 H808 0.959 . S
C823 H809 0.961 . S
C823 C822 1.502 . S
C824 H810 0.960 . S
C824 H811 0.961 . S
C824 H812 0.959 . S
C824 C822 1.561 . S
C825 C822 1.526 1_545 S
C825 C826 1.396 . S
C825 C830 1.390 . S
C826 C820 1.465 1_554 S
C826 C825 1.396 . S
C826 C827 1.399 . S
C827 H813 0.929 1_554 S
C827 C826 1.399 . S
C827 C828 1.385 . S
C828 H814 0.931 . S
C828 C827 1.385 . S
C828 C829 1.389 . S
C829 C828 1.389 . S
C829 C830 1.387 . S
C830 H815 0.930 1_545 S
C830 C825 1.390 . S
C830 C829 1.387 . S
H831 C843 0.930 . S
H832 C845 0.930 . S
H833 C846 0.930 . S
H834 C850 0.959 . S
H835 C850 0.959 . S
H836 C850 0.961 . S
H837 C851 0.960 . S
H838 C851 0.961 . S
H839 C851 0.959 . S
H840 C854 0.929 . S
H841 C855 0.931 . S
H842 C857 0.930 . S
C843 H831 0.930 . S
C843 C844 1.399 . S
C843 C848 1.399 . S
C844 C843 1.399 . S
C844 C845 1.376 . S
C845 H832 0.930 . S
C845 C844 1.376 . S
C845 C846 1.388 . S
C846 H833 0.930 . S
C846 C845 1.388 . S
C846 C847 1.390 . S
C847 C846 1.390 . S
C847 C848 1.394 . S
C847 C853 1.465 . S
C848 C843 1.399 . S
C848 C847 1.394 . S
C848 C849 1.516 . S
C849 C848 1.516 . S
C849 C850 1.502 . S
C849 C851 1.561 . S
C849 C852 1.526 . S
C850 H834 0.959 . S
C850 H835 0.959 . S
C850 H836 0.961 . S
C850 C849 1.502 . S
C851 H837 0.960 . S
C851 H838 0.961 . S
C851 H839 0.959 . S
C851 C849 1.561 . S
C852 C849 1.526 . S
C852 C853 1.396 . S
C852 C857 1.390 . S
C853 C847 1.465 . S
C853 C852 1.396 . S
C853 C854 1.399 . S
C854 H840 0.929 . S
C854 C853 1.399 . S
C854 C855 1.385 . S
C855 H841 0.931 . S
C855 C854 1.385 . S
C855 C856 1.389 . S
C856 C855 1.389 . S
C856 C857 1.387 . S
C857 H842 0.930 . S
C857 C852 1.390 . S
C857 C856 1.387 . S
H858 C870 0.930 . S
H859 C872 0.930 . S
H860 C873 0.930 . S
H861 C877 0.959 . S
H862 C877 0.959 . S
H863 C877 0.961 . S
H864 C878 0.960 . S
H865 C878 0.961 . S
H866 C878 0.945 1_455 S
H867 C881 0.929 . S
H868 C882 0.931 . S
H869 C884 0.930 . S
C870 H858 0.930 . S
C870 C871 1.399 . S
C870 C875 1.399 . S
C871 C870 1.399 . S
C871 C872 1.376 . S
C872 H859 0.930 . S
C872 C871 1.376 . S
C872 C873 1.388 . S
C873 H860 0.930 . S
C873 C872 1.388 . S
C873 C874 1.390 . S
C874 C873 1.390 . S
C874 C875 1.394 . S
C874 C880 1.465 . S
C875 C870 1.399 . S
C875 C874 1.394 . S
C875 C876 1.516 1_455 S
C876 C875 1.516 1_655 S
C876 C877 1.502 . S
C876 C878 1.561 . S
C876 C879 1.526 . S
C877 H861 0.959 . S
C877 H862 0.959 . S
C877 H863 0.961 . S
C877 C876 1.502 . S
C878 H864 0.960 . S
C878 H865 0.961 . S
C878 H866 0.945 1_655 S
C878 C876 1.561 . S
C879 C876 1.526 . S
C879 C880 1.396 1_655 S
C879 C884 1.390 . S
C880 C874 1.465 . S
C880 C879 1.396 1_455 S
C880 C881 1.399 . S
C881 H867 0.929 . S
C881 C880 1.399 . S
C881 C882 1.385 1_455 S
C882 H868 0.931 . S
C882 C881 1.385 1_655 S
C882 C883 1.389 . S
C883 C882 1.389 . S
C883 C884 1.387 . S
C884 H869 0.930 . S
C884 C879 1.390 . S
C884 C883 1.387 . S
H885 C897 0.930 . S
H886 C899 0.929 1_545 S
H887 C900 0.930 . S
H888 C904 0.959 . S
H889 C904 0.959 . S
H890 C904 0.961 . S
H891 C905 0.960 . S
H892 C905 0.961 . S
H893 C905 0.959 . S
H894 C908 0.929 1_554 S
H895 C909 0.931 . S
H896 C911 0.930 1_565 S
C897 H885 0.930 . S
C897 C898 1.399 . S
C897 C902 1.399 . S
C898 C897 1.399 . S
C898 C899 1.376 . S
C899 H886 0.929 1_565 S
C899 C898 1.376 . S
C899 C900 1.388 1_565 S
C900 H887 0.930 . S
C900 C899 1.388 1_545 S
C900 C901 1.390 . S
C901 C900 1.390 . S
C901 C902 1.394 1_545 S
C901 C907 1.465 1_554 S
C902 C897 1.399 . S
C902 C901 1.394 1_565 S
C902 C903 1.516 1_554 S
C903 C902 1.516 1_556 S
C903 C904 1.502 . S
C903 C905 1.561 . S
C903 C906 1.526 1_565 S
C904 H888 0.959 . S
C904 H889 0.959 . S
C904 H890 0.961 . S
C904 C903 1.502 . S
C905 H891 0.960 . S
C905 H892 0.961 . S
C905 H893 0.959 . S
C905 C903 1.561 . S
C906 C903 1.526 1_545 S
C906 C907 1.396 . S
C906 C911 1.390 . S
C907 C901 1.465 1_556 S
C907 C906 1.396 . S
C907 C908 1.399 . S
C908 H894 0.929 1_556 S
C908 C907 1.399 . S
C908 C909 1.385 . S
C909 H895 0.931 . S
C909 C908 1.385 . S
C909 C910 1.389 . S
C910 C909 1.389 . S
C910 C911 1.387 . S
C911 H896 0.930 1_545 S
C911 C906 1.390 . S
C911 C910 1.387 . S
H912 C924 0.930 . S
H913 C926 0.930 . S
H914 C927 0.930 . S
H915 C931 0.959 . S
H916 C931 0.959 . S
H917 C931 0.961 . S
H918 C932 0.960 . S
H919 C932 0.961 . S
H920 C932 0.959 . S
H921 C935 0.929 . S
H922 C936 0.931 . S
H923 C938 0.930 . S
C924 H912 0.930 . S
C924 C925 1.399 . S
C924 C929 1.399 . S
C925 C924 1.399 . S
C925 C926 1.376 . S
C926 H913 0.930 . S
C926 C925 1.376 . S
C926 C927 1.388 . S
C927 H914 0.930 . S
C927 C926 1.388 . S
C927 C928 1.390 . S
C928 C927 1.390 . S
C928 C929 1.394 . S
C928 C934 1.465 . S
C929 C924 1.399 . S
C929 C928 1.394 . S
C929 C930 1.516 . S
C930 C929 1.516 . S
C930 C931 1.502 . S
C930 C932 1.561 . S
C930 C933 1.526 . S
C931 H915 0.959 . S
C931 H916 0.959 . S
C931 H917 0.961 . S
C931 C930 1.502 . S
C932 H918 0.960 . S
C932 H919 0.961 . S
C932 H920 0.959 . S
C932 C930 1.561 . S
C933 C930 1.526 . S
C933 C934 1.396 . S
C933 C938 1.390 . S
C934 C928 1.465 . S
C934 C933 1.396 . S
C934 C935 1.399 . S
C935 H921 0.929 . S
C935 C934 1.399 . S
C935 C936 1.385 . S
C936 H922 0.931 . S
C936 C935 1.385 . S
C936 C937 1.389 . S
C937 C936 1.389 . S
C937 C938 1.387 . S
C938 H923 0.930 . S
C938 C933 1.390 . S
C938 C937 1.387 . S
H939 C951 0.930 . S
H940 C953 0.930 . S
H941 C954 0.930 . S
H942 C958 0.959 . S
H943 C958 0.959 . S
H944 C958 0.961 . S
H945 C959 0.960 . S
H946 C959 0.961 . S
H947 C959 0.959 . S
H948 C962 0.929 . S
H949 C963 0.931 . S
H950 C965 0.930 . S
C951 H939 0.930 . S
C951 C952 1.399 . S
C951 C956 1.399 . S
C952 C951 1.399 . S
C952 C953 1.376 . S
C953 H940 0.930 . S
C953 C952 1.376 . S
C953 C954 1.388 . S
C954 H941 0.930 . S
C954 C953 1.388 . S
C954 C955 1.390 . S
C955 C954 1.390 . S
C955 C956 1.394 . S
C955 C961 1.465 1_455 S
C956 C951 1.399 . S
C956 C955 1.394 . S
C956 C957 1.516 . S
C957 C956 1.516 . S
C957 C958 1.502 1_455 S
C957 C959 1.561 . S
C957 C960 1.526 1_455 S
C958 H942 0.959 . S
C958 H943 0.959 . S
C958 H944 0.961 . S
C958 C957 1.502 1_655 S
C959 H945 0.960 . S
C959 H946 0.961 . S
C959 H947 0.959 . S
C959 C957 1.561 . S
C960 C957 1.526 1_655 S
C960 C961 1.396 . S
C960 C965 1.390 . S
C961 C955 1.465 1_655 S
C961 C960 1.396 . S
C961 C962 1.399 . S
C962 H948 0.929 . S
C962 C961 1.399 . S
C962 C963 1.385 . S
C963 H949 0.931 . S
C963 C962 1.385 . S
C963 C964 1.389 . S
C964 C963 1.389 . S
C964 C965 1.387 . S
C965 H950 0.930 . S
C965 C960 1.390 . S
C965 C964 1.387 . S
H966 C978 0.930 . S
H967 C980 0.930 . S
H968 C981 0.930 . S
H969 C985 0.959 . S
H970 C985 0.959 . S
H971 C985 0.961 . S
H972 C986 0.930 1_545 S
H973 C986 0.961 . S
H974 C986 0.959 . S
H975 C989 0.929 . S
H976 C990 0.931 . S
H977 C992 0.930 . S
C978 H966 0.930 . S
C978 C979 1.399 . S
C978 C983 1.399 . S
C979 C978 1.399 . S
C979 C980 1.376 . S
C980 H967 0.930 . S
C980 C979 1.376 . S
C980 C981 1.388 . S
C981 H968 0.930 . S
C981 C980 1.388 . S
C981 C982 1.390 . S
C982 C981 1.390 . S
C982 C983 1.394 . S
C982 C988 1.465 1_545 S
C983 C978 1.399 . S
C983 C982 1.394 . S
C983 C984 1.516 . S
C984 C983 1.516 . S
C984 C985 1.502 . S
C984 C986 1.561 1_545 S
C984 C987 1.526 1_545 S
C985 H969 0.959 . S
C985 H970 0.959 . S
C985 H971 0.961 . S
C985 C984 1.502 . S
C986 H972 0.930 1_565 S
C986 H973 0.961 . S
C986 H974 0.959 . S
C986 C984 1.561 1_565 S
C987 C984 1.526 1_565 S
C987 C988 1.396 . S
C987 C992 1.390 . S
C988 C982 1.465 1_565 S
C988 C987 1.396 . S
C988 C989 1.399 . S
C989 H975 0.929 . S
C989 C988 1.399 . S
C989 C990 1.385 . S
C990 H976 0.931 . S
C990 C989 1.385 . S
C990 C991 1.389 . S
C991 C990 1.389 . S
C991 C992 1.387 . S
C992 H977 0.930 . S
C992 C987 1.390 . S
C992 C991 1.387 . S
H993 C1005 0.930 . S
H994 C1007 0.930 . S
H995 C1008 0.930 . S
H996 C1012 0.959 . S
H997 C1012 0.959 . S
H998 C1012 0.961 . S
H999 C1013 0.960 . S
H1000 C1013 0.961 . S
H1001 C1013 0.959 . S
H1002 C1016 0.929 . S
H1003 C1017 0.931 . S
H1004 C1019 0.930 . S
C1005 H993 0.930 . S
C1005 C1006 1.399 . S
C1005 C1010 1.399 . S
C1006 C1005 1.399 . S
C1006 C1007 1.376 . S
C1007 H994 0.930 . S
C1007 C1006 1.376 . S
C1007 C1008 1.388 . S
C1008 H995 0.930 . S
C1008 C1007 1.388 . S
C1008 C1009 1.390 . S
C1009 C1008 1.390 . S
C1009 C1010 1.394 . S
C1009 C1015 1.465 . S
C1010 C1005 1.399 . S
C1010 C1009 1.394 . S
C1010 C1011 1.516 . S
C1011 C1010 1.516 . S
C1011 C1012 1.502 . S
C1011 C1013 1.561 . S
C1011 C1014 1.526 . S
C1012 H996 0.959 . S
C1012 H997 0.959 . S
C1012 H998 0.961 . S
C1012 C1011 1.502 . S
C1013 H999 0.960 . S
C1013 H1000 0.961 . S
C1013 H1001 0.959 . S
C1013 C1011 1.561 . S
C1014 C1011 1.526 . S
C1014 C1015 1.396 . S
C1014 C1019 1.390 . S
C1015 C1009 1.465 . S
C1015 C1014 1.396 . S
C1015 C1016 1.399 . S
C1016 H1002 0.929 . S
C1016 C1015 1.399 . S
C1016 C1017 1.385 . S
C1017 H1003 0.931 . S
C1017 C1016 1.385 . S
C1017 C1018 1.389 . S
C1018 C1017 1.389 . S
C1018 C1019 1.387 . S
C1019 H1004 0.930 . S
C1019 C1014 1.390 . S
C1019 C1018 1.387 . S
H1020 C1032 0.930 . S
H1021 C1034 0.930 . S
H1022 C1035 0.930 . S
H1023 C1039 0.959 . S
H1024 C1039 0.959 . S
H1025 C1039 0.961 . S
H1026 C1040 0.960 . S
H1027 C1040 0.954 1_455 S
H1028 C1040 0.959 . S
H1029 C1043 0.929 . S
H1030 C1044 0.931 . S
H1031 C1046 0.930 . S
C1032 H1020 0.930 . S
C1032 C1033 1.399 . S
C1032 C1037 1.399 . S
C1033 C1032 1.399 . S
C1033 C1034 1.376 . S
C1034 H1021 0.930 . S
C1034 C1033 1.376 . S
C1034 C1035 1.388 . S
C1035 H1022 0.930 . S
C1035 C1034 1.388 . S
C1035 C1036 1.390 . S
C1036 C1035 1.390 . S
C1036 C1037 1.394 . S
C1036 C1042 1.465 1_655 S
C1037 C1032 1.399 . S
C1037 C1036 1.394 . S
C1037 C1038 1.516 1_655 S
C1038 C1037 1.516 1_455 S
C1038 C1039 1.502 . S
C1038 C1040 1.561 1_455 S
C1038 C1041 1.526 . S
C1039 H1023 0.959 . S
C1039 H1024 0.959 . S
C1039 H1025 0.961 . S
C1039 C1038 1.502 . S
C1040 H1026 0.960 . S
C1040 H1027 0.954 1_655 S
C1040 H1028 0.959 . S
C1040 C1038 1.561 1_655 S
C1041 C1038 1.526 . S
C1041 C1042 1.396 . S
C1041 C1046 1.390 . S
C1042 C1036 1.465 1_455 S
C1042 C1041 1.396 . S
C1042 C1043 1.399 . S
C1043 H1029 0.929 . S
C1043 C1042 1.399 . S
C1043 C1044 1.385 . S
C1044 H1030 0.931 . S
C1044 C1043 1.385 . S
C1044 C1045 1.389 . S
C1045 C1044 1.389 . S
C1045 C1046 1.387 . S
C1046 H1031 0.930 . S
C1046 C1041 1.390 . S
C1046 C1045 1.387 . S
H1047 C1059 0.930 . S
H1048 C1061 0.930 . S
H1049 C1062 0.930 . S
H1050 C1066 0.959 . S
H1051 C1066 0.959 . S
H1052 C1066 0.961 . S
H1053 C1067 0.960 . S
H1054 C1067 0.961 . S
H1055 C1067 0.959 . S
H1056 C1070 0.929 . S
H1057 C1071 0.931 . S
H1058 C1073 0.930 . S
C1059 H1047 0.930 . S
C1059 C1060 1.399 . S
C1059 C1064 1.399 . S
C1060 C1059 1.399 . S
C1060 C1061 1.376 . S
C1061 H1048 0.930 . S
C1061 C1060 1.376 . S
C1061 C1062 1.388 . S
C1062 H1049 0.930 . S
C1062 C1061 1.388 . S
C1062 C1063 1.390 . S
C1063 C1062 1.390 . S
C1063 C1064 1.394 . S
C1063 C1069 1.465 1_455 S
C1064 C1059 1.399 . S
C1064 C1063 1.394 . S
C1064 C1065 1.516 1_455 S
C1065 C1064 1.516 1_655 S
C1065 C1066 1.502 . S
C1065 C1067 1.561 1_655 S
C1065 C1068 1.526 . S
C1066 H1050 0.959 . S
C1066 H1051 0.959 . S
C1066 H1052 0.961 . S
C1066 C1065 1.502 . S
C1067 H1053 0.960 . S
C1067 H1054 0.961 . S
C1067 H1055 0.959 . S
C1067 C1065 1.561 1_455 S
C1068 C1065 1.526 . S
C1068 C1069 1.396 . S
C1068 C1073 1.390 . S
C1069 C1063 1.465 1_655 S
C1069 C1068 1.396 . S
C1069 C1070 1.399 . S
C1070 H1056 0.929 . S
C1070 C1069 1.399 . S
C1070 C1071 1.385 . S
C1071 H1057 0.931 . S
C1071 C1070 1.385 . S
C1071 C1072 1.389 . S
C1072 C1071 1.389 . S
C1072 C1073 1.387 . S
C1073 H1058 0.930 . S
C1073 C1068 1.390 . S
C1073 C1072 1.387 . S
H1074 C1086 0.930 . S
H1075 C1088 0.930 . S
H1076 C1089 0.930 . S
H1077 C1093 0.959 . S
H1078 C1093 0.959 . S
H1079 C1093 0.961 . S
H1080 C1094 0.960 . S
H1081 C1094 0.961 . S
H1082 C1094 0.959 . S
H1083 C1097 0.929 . S
H1084 C1098 0.931 . S
H1085 C1100 0.930 . S
C1086 H1074 0.930 . S
C1086 C1087 1.399 . S
C1086 C1091 1.399 . S
C1087 C1086 1.399 . S
C1087 C1088 1.376 . S
C1088 H1075 0.930 . S
C1088 C1087 1.376 . S
C1088 C1089 1.388 . S
C1089 H1076 0.930 . S
C1089 C1088 1.388 . S
C1089 C1090 1.390 . S
C1090 C1089 1.390 . S
C1090 C1091 1.394 . S
C1090 C1096 1.465 1_565 S
C1091 C1086 1.399 . S
C1091 C1090 1.394 . S
C1091 C1092 1.516 1_565 S
C1092 C1091 1.516 1_545 S
C1092 C1093 1.502 . S
C1092 C1094 1.561 1_545 S
C1092 C1095 1.526 . S
C1093 H1077 0.959 . S
C1093 H1078 0.959 . S
C1093 H1079 0.961 . S
C1093 C1092 1.502 . S
C1094 H1080 0.960 . S
C1094 H1081 0.961 . S
C1094 H1082 0.959 . S
C1094 C1092 1.561 1_565 S
C1095 C1092 1.526 . S
C1095 C1096 1.396 . S
C1095 C1100 1.390 . S
C1096 C1090 1.465 1_545 S
C1096 C1095 1.396 . S
C1096 C1097 1.399 . S
C1097 H1083 0.929 . S
C1097 C1096 1.399 . S
C1097 C1098 1.385 . S
C1098 H1084 0.931 . S
C1098 C1097 1.385 . S
C1098 C1099 1.389 . S
C1099 C1098 1.389 . S
C1099 C1100 1.387 . S
C1100 H1085 0.930 . S
C1100 C1095 1.390 . S
C1100 C1099 1.387 . S
H1101 C1113 0.930 . S
H1102 C1115 0.930 . S
H1103 C1116 0.930 . S
H1104 C1120 0.959 . S
H1105 C1120 0.959 . S
H1106 C1120 0.961 . S
H1107 C1121 0.960 . S
H1108 C1121 0.961 . S
H1109 C1121 0.959 . S
H1110 C1124 0.929 . S
H1111 C1125 0.931 . S
H1112 C1127 0.930 . S
C1113 H1101 0.930 . S
C1113 C1114 1.399 . S
C1113 C1118 1.399 . S
C1114 C1113 1.399 . S
C1114 C1115 1.376 . S
C1115 H1102 0.930 . S
C1115 C1114 1.376 . S
C1115 C1116 1.388 . S
C1116 H1103 0.930 . S
C1116 C1115 1.388 . S
C1116 C1117 1.390 . S
C1117 C1116 1.390 . S
C1117 C1118 1.394 . S
C1117 C1123 1.465 . S
C1118 C1113 1.399 . S
C1118 C1117 1.394 . S
C1118 C1119 1.516 . S
C1119 C1118 1.516 . S
C1119 C1120 1.502 . S
C1119 C1121 1.561 . S
C1119 C1122 1.526 . S
C1120 H1104 0.959 . S
C1120 H1105 0.959 . S
C1120 H1106 0.961 . S
C1120 C1119 1.502 . S
C1121 H1107 0.960 . S
C1121 H1108 0.961 . S
C1121 H1109 0.959 . S
C1121 C1119 1.561 . S
C1122 C1119 1.526 . S
C1122 C1123 1.396 . S
C1122 C1127 1.390 . S
C1123 C1117 1.465 . S
C1123 C1122 1.396 . S
C1123 C1124 1.399 . S
C1124 H1110 0.929 . S
C1124 C1123 1.399 . S
C1124 C1125 1.385 . S
C1125 H1111 0.931 . S
C1125 C1124 1.385 . S
C1125 C1126 1.389 . S
C1126 C1125 1.389 . S
C1126 C1127 1.387 . S
C1127 H1112 0.930 . S
C1127 C1122 1.390 . S
C1127 C1126 1.387 . S
H1128 C1140 0.930 . S
H1129 C1142 0.930 . S
H1130 C1143 0.930 1_545 S
H1131 C1147 0.959 . S
H1132 C1147 0.959 . S
H1133 C1147 0.961 . S
H1134 C1148 0.960 . S
H1135 C1148 0.961 . S
H1136 C1148 0.959 . S
H1137 C1151 0.929 . S
H1138 C1152 0.931 . S
H1139 C1154 0.930 . S
C1140 H1128 0.930 . S
C1140 C1141 1.399 . S
C1140 C1145 1.399 . S
C1141 C1140 1.399 . S
C1141 C1142 1.376 . S
C1142 H1129 0.930 . S
C1142 C1141 1.376 . S
C1142 C1143 1.388 . S
C1143 H1130 0.930 1_565 S
C1143 C1142 1.388 . S
C1143 C1144 1.390 . S
C1144 C1143 1.390 . S
C1144 C1145 1.394 . S
C1144 C1150 1.465 1_565 S
C1145 C1140 1.399 . S
C1145 C1144 1.394 . S
C1145 C1146 1.516 . S
C1146 C1145 1.516 . S
C1146 C1147 1.502 . S
C1146 C1148 1.561 . S
C1146 C1149 1.526 1_565 S
C1147 H1131 0.959 . S
C1147 H1132 0.959 . S
C1147 H1133 0.961 . S
C1147 C1146 1.502 . S
C1148 H1134 0.960 . S
C1148 H1135 0.961 . S
C1148 H1136 0.959 . S
C1148 C1146 1.561 . S
C1149 C1146 1.526 1_545 S
C1149 C1150 1.396 . S
C1149 C1154 1.390 . S
C1150 C1144 1.465 1_545 S
C1150 C1149 1.396 . S
C1150 C1151 1.399 . S
C1151 H1137 0.929 . S
C1151 C1150 1.399 . S
C1151 C1152 1.385 . S
C1152 H1138 0.931 . S
C1152 C1151 1.385 . S
C1152 C1153 1.389 . S
C1153 C1152 1.389 . S
C1153 C1154 1.387 . S
C1154 H1139 0.930 . S
C1154 C1149 1.390 . S
C1154 C1153 1.387 . S
H1155 C1167 0.930 . S
H1156 C1169 0.930 . S
H1157 C1170 0.930 . S
H1158 C1174 0.959 . S
H1159 C1174 0.959 . S
H1160 C1174 0.961 . S
H1161 C1175 0.960 . S
H1162 C1175 0.961 . S
H1163 C1175 0.959 . S
H1164 C1178 0.929 . S
H1165 C1179 0.931 . S
H1166 C1181 0.930 . S
C1167 H1155 0.930 . S
C1167 C1168 1.399 . S
C1167 C1172 1.399 . S
C1168 C1167 1.399 . S
C1168 C1169 1.376 . S
C1169 H1156 0.930 . S
C1169 C1168 1.376 . S
C1169 C1170 1.388 . S
C1170 H1157 0.930 . S
C1170 C1169 1.388 . S
C1170 C1171 1.390 . S
C1171 C1170 1.390 . S
C1171 C1172 1.394 . S
C1171 C1177 1.465 . S
C1172 C1167 1.399 . S
C1172 C1171 1.394 . S
C1172 C1173 1.516 . S
C1173 C1172 1.516 . S
C1173 C1174 1.502 . S
C1173 C1175 1.561 . S
C1173 C1176 1.526 . S
C1174 H1158 0.959 . S
C1174 H1159 0.959 . S
C1174 H1160 0.961 . S
C1174 C1173 1.502 . S
C1175 H1161 0.960 . S
C1175 H1162 0.961 . S
C1175 H1163 0.959 . S
C1175 C1173 1.561 . S
C1176 C1173 1.526 . S
C1176 C1177 1.396 . S
C1176 C1181 1.390 . S
C1177 C1171 1.465 . S
C1177 C1176 1.396 . S
C1177 C1178 1.399 . S
C1178 H1164 0.929 . S
C1178 C1177 1.399 . S
C1178 C1179 1.385 . S
C1179 H1165 0.931 . S
C1179 C1178 1.385 . S
C1179 C1180 1.389 . S
C1180 C1179 1.389 . S
C1180 C1181 1.387 . S
C1181 H1166 0.930 . S
C1181 C1176 1.390 . S
C1181 C1180 1.387 . S
H1182 C1194 0.930 . S
H1183 C1196 0.930 . S
H1184 C1197 0.930 1_455 S
H1185 C1201 0.959 . S
H1186 C1201 0.959 . S
H1187 C1201 0.961 . S
H1188 C1202 0.960 . S
H1189 C1202 0.961 . S
H1190 C1202 0.959 1_455 S
H1191 C1205 0.929 . S
H1192 C1206 0.931 . S
H1193 C1208 0.930 . S
C1194 H1182 0.930 . S
C1194 C1195 1.399 . S
C1194 C1199 1.399 . S
C1195 C1194 1.399 . S
C1195 C1196 1.376 . S
C1196 H1183 0.930 . S
C1196 C1195 1.376 . S
C1196 C1197 1.388 . S
C1197 H1184 0.930 1_655 S
C1197 C1196 1.388 . S
C1197 C1198 1.390 . S
C1198 C1197 1.390 . S
C1198 C1199 1.394 . S
C1198 C1204 1.465 1_655 S
C1199 C1194 1.399 . S
C1199 C1198 1.394 . S
C1199 C1200 1.516 . S
C1200 C1199 1.516 . S
C1200 C1201 1.502 . S
C1200 C1202 1.561 . S
C1200 C1203 1.526 1_655 S
C1201 H1185 0.959 . S
C1201 H1186 0.959 . S
C1201 H1187 0.961 . S
C1201 C1200 1.502 . S
C1202 H1188 0.960 . S
C1202 H1189 0.961 . S
C1202 H1190 0.959 1_655 S
C1202 C1200 1.561 . S
C1203 C1200 1.526 1_455 S
C1203 C1204 1.396 . S
C1203 C1208 1.390 . S
C1204 C1198 1.465 1_455 S
C1204 C1203 1.396 . S
C1204 C1205 1.399 . S
C1205 H1191 0.929 . S
C1205 C1204 1.399 . S
C1205 C1206 1.385 . S
C1206 H1192 0.931 . S
C1206 C1205 1.385 . S
C1206 C1207 1.389 . S
C1207 C1206 1.389 . S
C1207 C1208 1.387 . S
C1208 H1193 0.930 . S
C1208 C1203 1.390 . S
C1208 C1207 1.387 . S
H1209 C1221 0.930 . S
H1210 C1223 0.930 . S
H1211 C1224 0.930 . S
H1212 C1228 0.959 . S
H1213 C1228 0.959 . S
H1214 C1228 0.961 . S
H1215 C1229 0.960 . S
H1216 C1229 0.961 . S
H1217 C1229 0.959 . S
H1218 C1232 0.929 1_545 S
H1219 C1233 0.931 . S
H1220 C1235 0.930 . S
C1221 H1209 0.930 . S
C1221 C1222 1.399 . S
C1221 C1226 1.399 . S
C1222 C1221 1.399 . S
C1222 C1223 1.376 . S
C1223 H1210 0.930 . S
C1223 C1222 1.376 . S
C1223 C1224 1.388 . S
C1224 H1211 0.930 . S
C1224 C1223 1.388 . S
C1224 C1225 1.390 . S
C1225 C1224 1.390 . S
C1225 C1226 1.394 . S
C1225 C1231 1.465 1_545 S
C1226 C1221 1.399 . S
C1226 C1225 1.394 . S
C1226 C1227 1.516 1_545 S
C1227 C1226 1.516 1_565 S
C1227 C1228 1.502 . S
C1227 C1229 1.561 . S
C1227 C1230 1.526 . S
C1228 H1212 0.959 . S
C1228 H1213 0.959 . S
C1228 H1214 0.961 . S
C1228 C1227 1.502 . S
C1229 H1215 0.960 . S
C1229 H1216 0.961 . S
C1229 H1217 0.959 . S
C1229 C1227 1.561 . S
C1230 C1227 1.526 . S
C1230 C1231 1.396 . S
C1230 C1235 1.390 . S
C1231 C1225 1.465 1_565 S
C1231 C1230 1.396 . S
C1231 C1232 1.399 . S
C1232 H1218 0.929 1_565 S
C1232 C1231 1.399 . S
C1232 C1233 1.385 . S
C1233 H1219 0.931 . S
C1233 C1232 1.385 . S
C1233 C1234 1.389 . S
C1234 C1233 1.389 . S
C1234 C1235 1.387 . S
C1235 H1220 0.930 . S
C1235 C1230 1.390 . S
C1235 C1234 1.387 . S
H1236 C1248 0.930 . S
H1237 C1250 0.930 . S
H1238 C1251 0.930 . S
H1239 C1255 0.959 . S
H1240 C1255 0.959 . S
H1241 C1255 0.961 . S
H1242 C1256 0.960 . S
H1243 C1256 0.961 . S
H1244 C1256 0.959 . S
H1245 C1259 0.929 . S
H1246 C1260 0.931 . S
H1247 C1262 0.930 . S
C1248 H1236 0.930 . S
C1248 C1249 1.399 . S
C1248 C1253 1.399 . S
C1249 C1248 1.399 . S
C1249 C1250 1.376 . S
C1250 H1237 0.930 . S
C1250 C1249 1.376 . S
C1250 C1251 1.388 . S
C1251 H1238 0.930 . S
C1251 C1250 1.388 . S
C1251 C1252 1.390 . S
C1252 C1251 1.390 . S
C1252 C1253 1.394 . S
C1252 C1258 1.465 . S
C1253 C1248 1.399 . S
C1253 C1252 1.394 . S
C1253 C1254 1.516 . S
C1254 C1253 1.516 . S
C1254 C1255 1.502 . S
C1254 C1256 1.561 . S
C1254 C1257 1.526 . S
C1255 H1239 0.959 . S
C1255 H1240 0.959 . S
C1255 H1241 0.961 . S
C1255 C1254 1.502 . S
C1256 H1242 0.960 . S
C1256 H1243 0.961 . S
C1256 H1244 0.959 . S
C1256 C1254 1.561 . S
C1257 C1254 1.526 . S
C1257 C1258 1.396 . S
C1257 C1262 1.390 . S
C1258 C1252 1.465 . S
C1258 C1257 1.396 . S
C1258 C1259 1.399 . S
C1259 H1245 0.929 . S
C1259 C1258 1.399 . S
C1259 C1260 1.385 . S
C1260 H1246 0.931 . S
C1260 C1259 1.385 . S
C1260 C1261 1.389 . S
C1261 C1260 1.389 . S
C1261 C1262 1.387 . S
C1262 H1247 0.930 . S
C1262 C1257 1.390 . S
C1262 C1261 1.387 . S
H1263 C1275 0.930 . S
H1264 C1277 0.930 . S
H1265 C1278 0.930 1_655 S
H1266 C1282 0.959 . S
H1267 C1282 0.959 . S
H1268 C1282 0.961 . S
H1269 C1283 0.960 . S
H1270 C1283 0.961 . S
H1271 C1283 0.959 . S
H1272 C1286 0.929 . S
H1273 C1287 0.931 . S
H1274 C1289 0.930 . S
C1275 H1263 0.930 . S
C1275 C1276 1.399 . S
C1275 C1280 1.399 . S
C1276 C1275 1.399 . S
C1276 C1277 1.376 . S
C1277 H1264 0.930 . S
C1277 C1276 1.376 . S
C1277 C1278 1.388 . S
C1278 H1265 0.930 1_455 S
C1278 C1277 1.388 . S
C1278 C1279 1.390 . S
C1279 C1278 1.390 . S
C1279 C1280 1.394 . S
C1279 C1285 1.465 1_455 S
C1280 C1275 1.399 . S
C1280 C1279 1.394 . S
C1280 C1281 1.516 . S
C1281 C1280 1.516 . S
C1281 C1282 1.502 . S
C1281 C1283 1.561 . S
C1281 C1284 1.526 1_455 S
C1282 H1266 0.959 . S
C1282 H1267 0.959 . S
C1282 H1268 0.961 . S
C1282 C1281 1.502 . S
C1283 H1269 0.960 . S
C1283 H1270 0.961 . S
C1283 H1271 0.959 . S
C1283 C1281 1.561 . S
C1284 C1281 1.526 1_655 S
C1284 C1285 1.396 . S
C1284 C1289 1.390 . S
C1285 C1279 1.465 1_655 S
C1285 C1284 1.396 . S
C1285 C1286 1.399 . S
C1286 H1272 0.929 . S
C1286 C1285 1.399 . S
C1286 C1287 1.385 . S
C1287 H1273 0.931 . S
C1287 C1286 1.385 . S
C1287 C1288 1.389 . S
C1288 C1287 1.389 . S
C1288 C1289 1.387 . S
C1289 H1274 0.930 . S
C1289 C1284 1.390 . S
C1289 C1288 1.387 . S
H1290 C1302 0.930 . S
H1291 C1304 0.930 . S
H1292 C1305 0.930 . S
H1293 C1309 0.959 . S
H1294 C1309 0.959 . S
H1295 C1309 0.961 . S
H1296 C1310 0.960 . S
H1297 C1310 0.961 . S
H1298 C1310 0.959 . S
H1299 C1313 0.929 . S
H1300 C1314 0.931 . S
H1301 C1316 0.930 . S
C1302 H1290 0.930 . S
C1302 C1303 1.399 . S
C1302 C1307 1.399 . S
C1303 C1302 1.399 . S
C1303 C1304 1.376 . S
C1304 H1291 0.930 . S
C1304 C1303 1.376 . S
C1304 C1305 1.388 . S
C1305 H1292 0.930 . S
C1305 C1304 1.388 . S
C1305 C1306 1.390 . S
C1306 C1305 1.390 . S
C1306 C1307 1.394 . S
C1306 C1312 1.465 . S
C1307 C1302 1.399 . S
C1307 C1306 1.394 . S
C1307 C1308 1.516 . S
C1308 C1307 1.516 . S
C1308 C1309 1.502 . S
C1308 C1310 1.561 . S
C1308 C1311 1.526 . S
C1309 H1293 0.959 . S
C1309 H1294 0.959 . S
C1309 H1295 0.961 . S
C1309 C1308 1.502 . S
C1310 H1296 0.960 . S
C1310 H1297 0.961 . S
C1310 H1298 0.959 . S
C1310 C1308 1.561 . S
C1311 C1308 1.526 . S
C1311 C1312 1.396 . S
C1311 C1316 1.390 . S
C1312 C1306 1.465 . S
C1312 C1311 1.396 . S
C1312 C1313 1.399 . S
C1313 H1299 0.929 . S
C1313 C1312 1.399 . S
C1313 C1314 1.385 . S
C1314 H1300 0.931 . S
C1314 C1313 1.385 . S
C1314 C1315 1.389 . S
C1315 C1314 1.389 . S
C1315 C1316 1.387 . S
C1316 H1301 0.930 . S
C1316 C1311 1.390 . S
C1316 C1315 1.387 . S
H1317 C1329 0.930 . S
H1318 C1331 0.930 . S
H1319 C1332 0.930 . S
H1320 C1336 0.959 . S
H1321 C1336 0.959 . S
H1322 C1336 0.961 . S
H1323 C1337 0.960 . S
H1324 C1337 0.961 . S
H1325 C1337 0.959 . S
H1326 C1340 0.929 . S
H1327 C1341 0.931 . S
H1328 C1343 0.930 . S
C1329 H1317 0.930 . S
C1329 C1330 1.399 . S
C1329 C1334 1.399 . S
C1330 C1329 1.399 . S
C1330 C1331 1.376 . S
C1331 H1318 0.930 . S
C1331 C1330 1.376 . S
C1331 C1332 1.388 . S
C1332 H1319 0.930 . S
C1332 C1331 1.388 . S
C1332 C1333 1.390 . S
C1333 C1332 1.390 . S
C1333 C1334 1.394 . S
C1333 C1339 1.465 . S
C1334 C1329 1.399 . S
C1334 C1333 1.394 . S
C1334 C1335 1.516 . S
C1335 C1334 1.516 . S
C1335 C1336 1.502 . S
C1335 C1337 1.561 . S
C1335 C1338 1.526 . S
C1336 H1320 0.959 . S
C1336 H1321 0.959 . S
C1336 H1322 0.961 . S
C1336 C1335 1.502 . S
C1337 H1323 0.960 . S
C1337 H1324 0.961 . S
C1337 H1325 0.959 . S
C1337 C1335 1.561 . S
C1338 C1335 1.526 . S
C1338 C1339 1.396 . S
C1338 C1343 1.390 . S
C1339 C1333 1.465 . S
C1339 C1338 1.396 . S
C1339 C1340 1.399 . S
C1340 H1326 0.929 . S
C1340 C1339 1.399 . S
C1340 C1341 1.385 . S
C1341 H1327 0.931 . S
C1341 C1340 1.385 . S
C1341 C1342 1.389 . S
C1342 C1341 1.389 . S
C1342 C1343 1.387 . S
C1343 H1328 0.930 . S
C1343 C1338 1.390 . S
C1343 C1342 1.387 . S
H1344 C1356 0.930 . S
H1345 C1358 0.930 . S
H1346 C1359 0.930 . S
H1347 C1363 0.959 . S
H1348 C1363 0.959 . S
H1349 C1363 0.961 . S
H1350 C1364 0.960 . S
H1351 C1364 0.961 . S
H1352 C1364 0.959 . S
H1353 C1367 0.929 . S
H1354 C1368 0.931 . S
H1355 C1370 0.930 . S
C1356 H1344 0.930 . S
C1356 C1357 1.399 . S
C1356 C1361 1.399 . S
C1357 C1356 1.399 . S
C1357 C1358 1.376 . S
C1358 H1345 0.930 . S
C1358 C1357 1.376 . S
C1358 C1359 1.388 . S
C1359 H1346 0.930 . S
C1359 C1358 1.388 . S
C1359 C1360 1.390 . S
C1360 C1359 1.390 . S
C1360 C1361 1.394 . S
C1360 C1366 1.465 . S
C1361 C1356 1.399 . S
C1361 C1360 1.394 . S
C1361 C1362 1.516 . S
C1362 C1361 1.516 . S
C1362 C1363 1.502 . S
C1362 C1364 1.561 . S
C1362 C1365 1.526 . S
C1363 H1347 0.959 . S
C1363 H1348 0.959 . S
C1363 H1349 0.961 . S
C1363 C1362 1.502 . S
C1364 H1350 0.960 . S
C1364 H1351 0.961 . S
C1364 H1352 0.959 . S
C1364 C1362 1.561 . S
C1365 C1362 1.526 . S
C1365 C1366 1.396 . S
C1365 C1370 1.390 . S
C1366 C1360 1.465 . S
C1366 C1365 1.396 . S
C1366 C1367 1.399 . S
C1367 H1353 0.929 . S
C1367 C1366 1.399 . S
C1367 C1368 1.385 . S
C1368 H1354 0.931 . S
C1368 C1367 1.385 . S
C1368 C1369 1.389 . S
C1369 C1368 1.389 . S
C1369 C1370 1.387 . S
C1370 H1355 0.930 . S
C1370 C1365 1.390 . S
C1370 C1369 1.387 . S
H1371 C1383 0.930 . S
H1372 C1385 0.930 . S
H1373 C1386 0.930 . S
H1374 C1390 0.959 . S
H1375 C1390 0.959 . S
H1376 C1390 0.961 . S
H1377 C1391 0.960 . S
H1378 C1391 0.961 . S
H1379 C1391 0.959 . S
H1380 C1394 0.929 . S
H1381 C1395 0.931 . S
H1382 C1397 0.930 . S
C1383 H1371 0.930 . S
C1383 C1384 1.399 . S
C1383 C1388 1.399 . S
C1384 C1383 1.399 . S
C1384 C1385 1.376 . S
C1385 H1372 0.930 . S
C1385 C1384 1.376 . S
C1385 C1386 1.388 . S
C1386 H1373 0.930 . S
C1386 C1385 1.388 . S
C1386 C1387 1.390 . S
C1387 C1386 1.390 . S
C1387 C1388 1.394 . S
C1387 C1393 1.465 . S
C1388 C1383 1.399 . S
C1388 C1387 1.394 . S
C1388 C1389 1.516 . S
C1389 C1388 1.516 . S
C1389 C1390 1.502 . S
C1389 C1391 1.561 . S
C1389 C1392 1.526 . S
C1390 H1374 0.959 . S
C1390 H1375 0.959 . S
C1390 H1376 0.961 . S
C1390 C1389 1.502 . S
C1391 H1377 0.960 . S
C1391 H1378 0.961 . S
C1391 H1379 0.959 . S
C1391 C1389 1.561 . S
C1392 C1389 1.526 . S
C1392 C1393 1.396 . S
C1392 C1397 1.390 . S
C1393 C1387 1.465 . S
C1393 C1392 1.396 . S
C1393 C1394 1.399 . S
C1394 H1380 0.929 . S
C1394 C1393 1.399 . S
C1394 C1395 1.385 . S
C1395 H1381 0.931 . S
C1395 C1394 1.385 . S
C1395 C1396 1.389 . S
C1396 C1395 1.389 . S
C1396 C1397 1.387 . S
C1397 H1382 0.930 . S
C1397 C1392 1.390 . S
C1397 C1396 1.387 . S
H1398 C1410 0.930 . S
H1399 C1412 0.930 . S
H1400 C1413 0.930 . S
H1401 C1417 0.959 . S
H1402 C1417 0.959 . S
H1403 C1417 0.961 . S
H1404 C1418 0.960 . S
H1405 C1418 0.961 . S
H1406 C1418 0.959 . S
H1407 C1421 0.929 . S
H1408 C1422 0.931 . S
H1409 C1424 0.930 . S
C1410 H1398 0.930 . S
C1410 C1411 1.399 . S
C1410 C1415 1.399 . S
C1411 C1410 1.399 . S
C1411 C1412 1.376 . S
C1412 H1399 0.930 . S
C1412 C1411 1.376 . S
C1412 C1413 1.388 . S
C1413 H1400 0.930 . S
C1413 C1412 1.388 . S
C1413 C1414 1.390 . S
C1414 C1413 1.390 . S
C1414 C1415 1.394 . S
C1414 C1420 1.465 . S
C1415 C1410 1.399 . S
C1415 C1414 1.394 . S
C1415 C1416 1.516 . S
C1416 C1415 1.516 . S
C1416 C1417 1.502 . S
C1416 C1418 1.561 . S
C1416 C1419 1.526 . S
C1417 H1401 0.959 . S
C1417 H1402 0.959 . S
C1417 H1403 0.961 . S
C1417 C1416 1.502 . S
C1418 H1404 0.960 . S
C1418 H1405 0.961 . S
C1418 H1406 0.959 . S
C1418 C1416 1.561 . S
C1419 C1416 1.526 . S
C1419 C1420 1.396 . S
C1419 C1424 1.390 . S
C1420 C1414 1.465 . S
C1420 C1419 1.396 . S
C1420 C1421 1.399 . S
C1421 H1407 0.929 . S
C1421 C1420 1.399 . S
C1421 C1422 1.385 . S
C1422 H1408 0.931 . S
C1422 C1421 1.385 . S
C1422 C1423 1.389 . S
C1423 C1422 1.389 . S
C1423 C1424 1.387 . S
C1424 H1409 0.930 . S
C1424 C1419 1.390 . S
C1424 C1423 1.387 . S
H1425 C1437 0.930 . S
H1426 C1439 0.930 . S
H1427 C1440 0.930 . S
H1428 C1444 0.959 . S
H1429 C1444 0.959 . S
H1430 C1444 0.961 . S
H1431 C1445 0.960 . S
H1432 C1445 0.961 . S
H1433 C1445 0.959 . S
H1434 C1448 0.929 . S
H1435 C1449 0.931 . S
H1436 C1451 0.930 . S
C1437 H1425 0.930 . S
C1437 C1438 1.399 . S
C1437 C1442 1.399 . S
C1438 C1437 1.399 . S
C1438 C1439 1.376 . S
C1439 H1426 0.930 . S
C1439 C1438 1.376 . S
C1439 C1440 1.388 . S
C1440 H1427 0.930 . S
C1440 C1439 1.388 . S
C1440 C1441 1.390 . S
C1441 C1440 1.390 . S
C1441 C1442 1.394 . S
C1441 C1447 1.465 . S
C1442 C1437 1.399 . S
C1442 C1441 1.394 . S
C1442 C1443 1.516 . S
C1443 C1442 1.516 . S
C1443 C1444 1.502 . S
C1443 C1445 1.561 . S
C1443 C1446 1.526 . S
C1444 H1428 0.959 . S
C1444 H1429 0.959 . S
C1444 H1430 0.961 . S
C1444 C1443 1.502 . S
C1445 H1431 0.960 . S
C1445 H1432 0.961 . S
C1445 H1433 0.959 . S
C1445 C1443 1.561 . S
C1446 C1443 1.526 . S
C1446 C1447 1.396 . S
C1446 C1451 1.390 . S
C1447 C1441 1.465 . S
C1447 C1446 1.396 . S
C1447 C1448 1.399 . S
C1448 H1434 0.929 . S
C1448 C1447 1.399 . S
C1448 C1449 1.385 . S
C1449 H1435 0.931 . S
C1449 C1448 1.385 . S
C1449 C1450 1.389 . S
C1450 C1449 1.389 . S
C1450 C1451 1.387 . S
C1451 H1436 0.930 . S
C1451 C1446 1.390 . S
C1451 C1450 1.387 . S
C493 C23 0.969 . S
C505 C343 0.924 . S
C520 C63 0.909 . S
C532 C383 0.957 . S
C547 C103 0.939 . S
C559 C423 0.905 . S
C574 C463 0.951 . S
C586 C143 0.966 . S
C601 C183 0.905 . S
C613 C263 0.948 . S
C628 C303 0.944 . S
C640 C223 0.905 . S
C655 C404 1.465 . S
C667 C4 1.450 . S
C682 C444 1.460 . S
C694 C44 1.438 . S
C709 C84 1.467 . S
C721 C244 1.458 . S
C736 C284 1.411 . S
C748 C124 1.428 . S
C763 C324 1.462 . S
C775 C164 1.442 . S
C790 C204 1.442 . S
C802 C364 1.460 . S
C817 C300 4.425 . S
C829 C20 4.439 . S
C844 C340 4.445 . S
C856 C60 4.440 . S
C871 C380 4.437 . S
C883 C100 4.424 . S
C898 C140 4.426 . S
C910 C420 4.441 . S
C925 C180 4.446 . S
C937 C460 4.437 . S
C952 C220 4.427 . S
C964 C260 4.423 . S
C979 C2 0.713 . S
C991 C122 0.628 . S
C1006 C42 0.757 . S
C1018 C162 0.791 . S
C1033 C82 0.730 . S
C1045 C202 0.802 . S
C1060 C362 0.733 . S
C1072 C242 0.801 . S
C1087 C282 0.738 . S
C1099 C402 0.799 . S
C1114 C442 0.716 . S
C1126 C322 0.805 . S
C1141 C305 0.851 . S
C1153 C25 0.936 . S
C1168 C345 0.856 . S
C1180 C65 0.938 . S
C1195 C105 0.795 . S
C1207 C385 0.890 . S
C1222 C425 0.907 . S
C1234 C145 0.807 . S
C1249 C465 0.854 . S
C1261 C185 0.784 . S
C1276 C225 0.808 . S
C1288 C265 0.907 . S
C1303 C31 4.584 . S
C1315 C431 4.586 . S
C1330 C71 4.585 . S
C1342 C471 4.587 1_556 S
C1357 C111 4.578 1_554 S
C1369 C271 4.577 . S
C1384 C151 4.584 . S
C1396 C311 4.586 . S
C1411 C191 4.585 . S
C1423 C351 4.584 1_556 S
C1438 C391 4.581 . S
C1450 C231 4.579 1_554 S
