# Generated by pormake.
# Topology wlk, (5)-cn, num edge types: 1
# Building blocks:
#     Node 0, Type 0, BuildingBlock: XOMCOT_clean_sbu_0, # of connection points: 5
#     Node 1, Type 0, BuildingBlock: XOMCOT_clean_sbu_0, # of connection points: 5
#     Node 2, Type 0, BuildingBlock: XOMCOT_clean_sbu_0, # of connection points: 5
#     Node 3, Type 0, BuildingBlock: XOMCOT_clean_sbu_0, # of connection points: 5
#     Node 4, Type 0, BuildingBlock: XOMCOT_clean_sbu_0, # of connection points: 5
#     Node 5, Type 0, BuildingBlock: XOMCOT_clean_sbu_0, # of connection points: 5
#     Node 6, Type 0, BuildingBlock: XOMCOT_clean_sbu_0, # of connection points: 5
#     Node 7, Type 0, BuildingBlock: XOMCOT_clean_sbu_0, # of connection points: 5
#     Node 8, Type 0, BuildingBlock: XOMCOT_clean_sbu_0, # of connection points: 5
#     Node 9, Type 0, BuildingBlock: XOMCOT_clean_sbu_0, # of connection points: 5
#     Node 10, Type 0, BuildingBlock: XOMCOT_clean_sbu_0, # of connection points: 5
#     Node 11, Type 0, BuildingBlock: XOMCOT_clean_sbu_0, # of connection points: 5
#     Node 12, Type 0, BuildingBlock: XOMCOT_clean_sbu_0, # of connection points: 5
#     Node 13, Type 0, BuildingBlock: XOMCOT_clean_sbu_0, # of connection points: 5
#     Node 14, Type 0, BuildingBlock: XOMCOT_clean_sbu_0, # of connection points: 5
#     Node 15, Type 0, BuildingBlock: XOMCOT_clean_sbu_0, # of connection points: 5
#     Node 16, Type 0, BuildingBlock: XOMCOT_clean_sbu_0, # of connection points: 5
#     Node 17, Type 0, BuildingBlock: XOMCOT_clean_sbu_0, # of connection points: 5
#     Edge 18, Type (0, 0), BuildingBlock: CIFDUS_clean_linker_0, # of connection points: 2
#     Edge 19, Type (0, 0), BuildingBlock: CIFDUS_clean_linker_0, # of connection points: 2
#     Edge 20, Type (0, 0), BuildingBlock: CIFDUS_clean_linker_0, # of connection points: 2
#     Edge 21, Type (0, 0), BuildingBlock: CIFDUS_clean_linker_0, # of connection points: 2
#     Edge 22, Type (0, 0), BuildingBlock: CIFDUS_clean_linker_0, # of connection points: 2
#     Edge 23, Type (0, 0), BuildingBlock: CIFDUS_clean_linker_0, # of connection points: 2
#     Edge 24, Type (0, 0), BuildingBlock: CIFDUS_clean_linker_0, # of connection points: 2
#     Edge 25, Type (0, 0), BuildingBlock: CIFDUS_clean_linker_0, # of connection points: 2
#     Edge 26, Type (0, 0), BuildingBlock: CIFDUS_clean_linker_0, # of connection points: 2
#     Edge 27, Type (0, 0), BuildingBlock: CIFDUS_clean_linker_0, # of connection points: 2
#     Edge 28, Type (0, 0), BuildingBlock: CIFDUS_clean_linker_0, # of connection points: 2
#     Edge 29, Type (0, 0), BuildingBlock: CIFDUS_clean_linker_0, # of connection points: 2
#     Edge 30, Type (0, 0), BuildingBlock: CIFDUS_clean_linker_0, # of connection points: 2
#     Edge 31, Type (0, 0), BuildingBlock: CIFDUS_clean_linker_0, # of connection points: 2
#     Edge 32, Type (0, 0), BuildingBlock: CIFDUS_clean_linker_0, # of connection points: 2
#     Edge 33, Type (0, 0), BuildingBlock: CIFDUS_clean_linker_0, # of connection points: 2
#     Edge 34, Type (0, 0), BuildingBlock: CIFDUS_clean_linker_0, # of connection points: 2
#     Edge 35, Type (0, 0), BuildingBlock: CIFDUS_clean_linker_0, # of connection points: 2
#     Edge 36, Type (0, 0), BuildingBlock: CIFDUS_clean_linker_0, # of connection points: 2
#     Edge 37, Type (0, 0), BuildingBlock: CIFDUS_clean_linker_0, # of connection points: 2
#     Edge 38, Type (0, 0), BuildingBlock: CIFDUS_clean_linker_0, # of connection points: 2
#     Edge 39, Type (0, 0), BuildingBlock: CIFDUS_clean_linker_0, # of connection points: 2
#     Edge 40, Type (0, 0), BuildingBlock: CIFDUS_clean_linker_0, # of connection points: 2
#     Edge 41, Type (0, 0), BuildingBlock: CIFDUS_clean_linker_0, # of connection points: 2
#     Edge 42, Type (0, 0), BuildingBlock: CIFDUS_clean_linker_0, # of connection points: 2
#     Edge 43, Type (0, 0), BuildingBlock: CIFDUS_clean_linker_0, # of connection points: 2
#     Edge 44, Type (0, 0), BuildingBlock: CIFDUS_clean_linker_0, # of connection points: 2
#     Edge 45, Type (0, 0), BuildingBlock: CIFDUS_clean_linker_0, # of connection points: 2
#     Edge 46, Type (0, 0), BuildingBlock: CIFDUS_clean_linker_0, # of connection points: 2
#     Edge 47, Type (0, 0), BuildingBlock: CIFDUS_clean_linker_0, # of connection points: 2
#     Edge 48, Type (0, 0), BuildingBlock: CIFDUS_clean_linker_0, # of connection points: 2
#     Edge 49, Type (0, 0), BuildingBlock: CIFDUS_clean_linker_0, # of connection points: 2
#     Edge 50, Type (0, 0), BuildingBlock: CIFDUS_clean_linker_0, # of connection points: 2
#     Edge 51, Type (0, 0), BuildingBlock: CIFDUS_clean_linker_0, # of connection points: 2
#     Edge 52, Type (0, 0), BuildingBlock: CIFDUS_clean_linker_0, # of connection points: 2
#     Edge 53, Type (0, 0), BuildingBlock: CIFDUS_clean_linker_0, # of connection points: 2
#     Edge 54, Type (0, 0), BuildingBlock: CIFDUS_clean_linker_0, # of connection points: 2
#     Edge 55, Type (0, 0), BuildingBlock: CIFDUS_clean_linker_0, # of connection points: 2
#     Edge 56, Type (0, 0), BuildingBlock: CIFDUS_clean_linker_0, # of connection points: 2
#     Edge 57, Type (0, 0), BuildingBlock: CIFDUS_clean_linker_0, # of connection points: 2
#     Edge 58, Type (0, 0), BuildingBlock: CIFDUS_clean_linker_0, # of connection points: 2
#     Edge 59, Type (0, 0), BuildingBlock: CIFDUS_clean_linker_0, # of connection points: 2
#     Edge 60, Type (0, 0), BuildingBlock: CIFDUS_clean_linker_0, # of connection points: 2
#     Edge 61, Type (0, 0), BuildingBlock: CIFDUS_clean_linker_0, # of connection points: 2
#     Edge 62, Type (0, 0), BuildingBlock: CIFDUS_clean_linker_0, # of connection points: 2
# Relax obj value: 0.214
# Max RMSD: 0.255
# Mean RMSD: 0.255
data_MOF--net-wlk--node1-XOMCOT_clean_sbu_0--edge1-CIFDUS_clean_linker_0
_symmetry_space_group_name_H-M    P1
_symmetry_Int_Tables_number       1
_symmetry_cell_setting            triclinic
loop_
_symmetry_equiv_pos_as_xyz
'x, y, z'
_cell_length_a     58.009073
_cell_length_b     57.946114
_cell_length_c     25.439664
_cell_angle_alpha  90.144338
_cell_angle_beta   89.905434
_cell_angle_gamma 120.02515
loop_
_atom_site_label
_atom_site_type_symbol
_atom_site_fract_x
_atom_site_fract_y
_atom_site_fract_z
_atom_type_partial_charge
Co0 Co 0.21935 0.27472 0.09695 0.0
C1 C 0.23308 0.24003 0.03272 0.0
C2 C 0.19108 0.22467 0.03575 0.0
C3 C 0.19568 0.20629 0.01059 0.0
N4 N 0.21458 0.24635 0.04849 0.0
N5 N 0.22215 0.21604 0.00873 0.0
H6 H 0.25391 0.2513 0.04286 0.0
H7 H 0.1717 0.22137 0.04705 0.0
C8 C 0.17394 0.26839 0.03177 0.0
O9 O 0.18945 0.27254 0.99097 0.0
N10 N 0.22373 0.30189 0.14671 0.0
C11 C 0.24654 0.32443 0.15811 0.0
C12 C 0.24118 0.33869 0.19461 0.0
C13 C 0.20488 0.30249 0.17678 0.0
N14 N 0.21495 0.32491 0.20652 0.0
C15 C 0.26011 0.30638 0.02321 0.0
C16 C 0.24752 0.34628 0.01307 0.0
C17 C 0.27219 0.3507 0.99486 0.0
C18 C 0.27791 0.33005 0.99839 0.0
C19 C 0.23013 0.32211 0.03806 0.0
N20 N 0.23677 0.30262 0.04389 0.0
H21 H 0.26662 0.29233 0.03001 0.0
H22 H 0.21236 0.31999 0.05643 0.0
H23 H 0.26566 0.33029 0.14042 0.0
H24 H 0.18432 0.28666 0.17705 0.0
O25 O 0.25101 0.27642 0.12373 0.0
O26 O 0.21045 0.24957 0.15494 0.0
O27 O 0.18247 0.26832 0.07818 0.0
C28 C 0.23597 0.25802 0.15679 0.0
H29 H 0.18067 0.18685 0.99658 0.0
H30 H 0.25558 0.35796 0.21029 0.0
H31 H 0.24255 0.36196 0.01133 0.0
H32 H 0.29682 0.33276 0.98475 0.0
Co33 Co 0.75366 0.94975 0.08086 0.0
C34 C 0.78753 0.99894 0.01888 0.0
C35 C 0.80429 0.97351 0.02055 0.0
C36 C 0.82267 0.9975 0.99879 0.0
N37 N 0.78172 0.97392 0.03214 0.0
N38 N 0.81217 0.01357 0.9984 0.0
H39 H 0.775 1.00728 0.02805 0.0
H40 H 0.80863 0.95819 0.03223 0.0
C41 C 0.7647 0.91177 0.02429 0.0
O42 O 0.76086 0.92195 0.98134 0.0
N43 N 0.72718 0.92689 0.13149 0.0
C44 C 0.70313 0.92449 0.13968 0.0
C45 C 0.69141 0.90806 0.18225 0.0
C46 C 0.72997 0.91227 0.16947 0.0
N47 N 0.70831 0.90041 0.2011 0.0
C48 C 0.72427 0.9514 0.99214 0.0
C49 C 0.68761 0.8974 0.988 0.0
C50 C 0.68515 0.91473 0.95332 0.0
C51 C 0.70389 0.94191 0.95527 0.0
C52 C 0.70886 0.90769 0.02366 0.0
N53 N 0.72692 0.93447 0.02539 0.0
H54 H 0.73718 0.97256 0.99516 0.0
H55 H 0.71044 0.89421 0.05077 0.0
H56 H 0.69495 0.93446 0.11693 0.0
H57 H 0.74766 0.91068 0.1741 0.0
O58 O 0.74699 0.97767 0.09982 0.0
O59 O 0.77707 0.97061 0.13888 0.0
O60 O 0.76408 0.9214 0.0694 0.0
C61 C 0.76563 0.98508 0.13468 0.0
H62 H 0.84318 1.00365 0.98955 0.0
H63 H 0.6723 0.90295 0.19909 0.0
H64 H 0.67318 0.87629 0.98788 0.0
H65 H 0.70209 0.95595 0.92995 0.0
Co66 Co 0.07484 0.81062 0.11092 0.0
C67 C 0.02878 0.7992 0.04176 0.0
C68 C 0.05606 0.84099 0.04757 0.0
C69 C 0.03422 0.83722 0.01923 0.0
N70 N 0.05325 0.81705 0.06023 0.0
N71 N 0.01719 0.81086 0.01544 0.0
H72 H 0.01837 0.7782 0.05106 0.0
H73 H 0.07194 0.86009 0.06079 0.0
C74 C 0.11635 0.85781 0.0534 0.0
O75 O 0.1066 0.84354 0.01046 0.0
N76 N 0.09552 0.80477 0.1633 0.0
C77 C 0.0935 0.78137 0.17685 0.0
C78 C 0.11228 0.7861 0.21486 0.0
C79 C 0.11519 0.82333 0.19344 0.0
N80 N 0.12596 0.81252 0.22514 0.0
C81 C 0.06855 0.77362 0.03025 0.0
C82 C 0.11932 0.78096 0.03737 0.0
C83 C 0.09914 0.75776 0.01365 0.0
C84 C 0.0741 0.75526 0.00712 0.0
C85 C 0.11301 0.79948 0.05913 0.0
N86 N 0.08738 0.7948 0.05809 0.0
H87 H 0.04824 0.76873 0.0302 0.0
H88 H 0.1281 0.81609 0.0814 0.0
H89 H 0.07972 0.7623 0.15949 0.0
H90 H 0.12137 0.8443 0.19228 0.0
O91 O 0.04398 0.7782 0.13172 0.0
O92 O 0.05628 0.81772 0.16727 0.0
O93 O 0.10603 0.84776 0.09805 0.0
C94 C 0.03921 0.79216 0.16524 0.0
H95 H 0.03075 0.85268 0.00419 0.0
H96 H 0.11599 0.77129 0.23246 0.0
H97 H 0.13906 0.78372 0.04272 0.0
H98 H 0.05809 0.73788 0.98806 0.0
Co99 Co 0.8157 0.75059 0.89893 0.0
C100 C 0.80925 0.79327 0.95262 0.0
C101 C 0.83087 0.77974 -0.00079 0.0
C102 C 0.82833 0.79863 0.0275 0.0
N103 N 0.81883 0.77625 0.95223 0.0
N104 N 0.81467 0.80715 0.99821 0.0
H105 H 0.79865 0.79565 0.92027 0.0
H106 H 0.84043 0.76886 0.0125 0.0
C107 C 0.87011 0.75335 0.9058 0.0
O108 O 0.86238 0.73123 0.87931 0.0
N109 N 0.81266 0.72521 0.84558 0.0
C110 C 0.79314 0.6996 0.84116 0.0
C111 C 0.79813 0.68853 0.79774 0.0
C112 C 0.82847 0.72974 0.80329 0.0
N113 N 0.82054 0.70742 0.77426 0.0
C114 C 0.77997 0.71991 0.979 0.0
C115 C 0.79683 0.68347 0.99447 0.0
C116 C 0.77423 0.6802 0.02088 0.0
C117 C 0.76606 0.69887 0.01355 0.0
C118 C 0.81049 0.70517 0.9604 0.0
N119 N 0.80178 0.7229 0.95249 0.0
H120 H 0.77276 0.73363 0.97249 0.0
H121 H 0.82708 0.70673 0.93887 0.0
H122 H 0.77659 0.68951 0.86804 0.0
H123 H 0.84594 0.74881 0.79505 0.0
O124 O 0.78206 0.74557 0.87629 0.0
O125 O 0.82102 0.77591 0.8433 0.0
O126 O 0.85413 0.76204 0.91517 0.0
C127 C 0.7951 0.76476 0.84313 0.0
H128 H 0.83554 0.80509 0.06704 0.0
H129 H 0.78667 0.66788 0.78566 0.0
H130 H 0.80356 0.66923 -0.00051 0.0
H131 H 0.74865 0.69686 0.03359 0.0
Co132 Co 0.28 0.07169 0.89299 0.0
C133 C 0.2349 0.02042 0.93425 0.0
C134 C 0.25122 0.05088 0.99314 0.0
C135 C 0.23151 0.02772 0.01578 0.0
N136 N 0.25356 0.04626 0.94197 0.0
N137 N 0.22128 1.00851 0.97862 0.0
H138 H 0.23145 1.01023 0.89729 0.0
H139 H 0.26335 0.06971 0.01294 0.0
C140 C 0.27966 0.12369 0.91274 0.0
O141 O 0.30252 0.13801 0.88867 0.0
N142 N 0.30637 0.09666 0.8441 0.0
C143 C 0.33203 0.10293 0.84085 0.0
C144 C 0.34372 0.11983 0.79901 0.0
C145 C 0.30251 0.10895 0.80272 0.0
N146 N 0.32525 0.12388 0.77521 0.0
C147 C 0.31209 0.06117 0.95963 0.0
C148 C 0.34544 0.1118 0.99806 0.0
C149 C 0.35154 0.09162 0.00872 0.0
C150 C 0.33425 0.06603 0.98876 0.0
C151 C 0.32329 0.10621 0.96669 0.0
N152 N 0.30728 0.08119 0.94681 0.0
H153 H 0.29921 0.04116 0.94547 0.0
H154 H 0.31977 0.12223 0.95771 0.0
H155 H 0.34159 0.09538 0.86647 0.0
H156 H 0.2836 0.10758 0.79416 0.0
O157 O 0.28395 0.04402 0.86035 0.0
O158 O 0.2549 0.05588 0.83455 0.0
O159 O 0.26963 0.0985 0.91836 0.0
C160 C 0.2653 0.04063 0.82806 0.0
H161 H 0.22525 0.02533 0.05645 0.0
H162 H 0.36421 0.12808 0.7867 0.0
H163 H 0.35773 0.13178 0.01323 0.0
H164 H 0.33796 0.04966 0.99389 0.0
Co165 Co 0.96238 0.21385 0.89516 0.0
C166 C 1.00854 0.22231 0.96183 0.0
C167 C 0.97737 0.18163 0.96382 0.0
C168 C 0.99878 0.18393 0.99164 0.0
N169 N 0.98301 0.20587 0.94608 0.0
N170 N 0.01847 0.20953 0.99021 0.0
H171 H 0.02021 0.24306 0.95092 0.0
H172 H 0.9599 0.16295 0.95415 0.0
C173 C 0.91684 0.16578 0.9458 0.0
O174 O 0.92327 0.17845 0.99103 0.0
N175 N 0.94278 0.22177 0.84326 0.0
C176 C 0.94628 0.24612 0.83296 0.0
C177 C 0.9285 0.24377 0.79469 0.0
C178 C 0.92312 0.20493 0.81056 0.0
N179 N 0.91387 0.21789 0.7806 0.0
C180 C 0.96972 0.25008 0.97813 0.0
C181 C 0.91877 0.24268 0.97619 0.0
C182 C 0.93886 0.26473 0.00297 0.0
C183 C 0.96425 0.26757 0.00562 0.0
C184 C 0.9251 0.22544 0.94915 0.0
N185 N 0.95059 0.22971 0.94909 0.0
H186 H 0.99003 0.25454 0.97679 0.0
H187 H 0.90996 0.20983 0.92509 0.0
H188 H 0.9606 0.26431 0.85248 0.0
H189 H 0.91542 0.18365 0.80944 0.0
O190 O 0.99419 0.24576 0.87525 0.0
O191 O 0.97984 0.20595 0.83851 0.0
O192 O 0.93041 0.17705 0.90452 0.0
C193 C 0.99761 0.23123 0.84071 0.0
H194 H 1.0004 0.16762 0.00829 0.0
H195 H 0.92667 0.25998 0.77822 0.0
H196 H 0.8989 0.23984 0.97309 0.0
H197 H 0.98028 0.2842 0.02637 0.0
Co198 Co 0.88273 0.60737 0.43686 0.0
C199 C 0.89598 0.57199 0.37265 0.0
C200 C 0.85422 0.55444 0.38673 0.0
C201 C 0.85867 0.5358 0.36261 0.0
N202 N 0.87746 0.57764 0.39171 0.0
N203 N 0.88499 0.54679 0.35395 0.0
H204 H 0.9172 0.58495 0.37683 0.0
H205 H 0.83536 0.55039 0.40304 0.0
C206 C 0.83207 0.59357 0.38272 0.0
O207 O 0.84481 0.5956 0.33866 0.0
N208 N 0.88729 0.6356 0.48396 0.0
C209 C 0.90898 0.65984 0.49009 0.0
C210 C 0.90325 0.67389 0.52664 0.0
C211 C 0.86886 0.63505 0.51708 0.0
N212 N 0.87795 0.65829 0.54358 0.0
C213 C 0.91579 0.6365 0.34982 0.0
C214 C 0.8971 0.6718 0.33915 0.0
C215 C 0.91919 0.67576 0.30982 0.0
C216 C 0.92822 0.65761 0.31468 0.0
C217 C 0.88486 0.64999 0.37342 0.0
N218 N 0.89431 0.63265 0.37864 0.0
H219 H 0.92469 0.62438 0.35604 0.0
H220 H 0.86862 0.64786 0.39778 0.0
H221 H 0.92746 0.66695 0.46875 0.0
H222 H 0.84924 0.61781 0.5218 0.0
O223 O 0.91713 0.61325 0.45629 0.0
O224 O 0.87953 0.5855 0.49742 0.0
O225 O 0.84413 0.59733 0.42672 0.0
C226 C 0.9053 0.59589 0.49331 0.0
H227 H 0.84374 0.51537 0.35425 0.0
H228 H 0.9166 0.69423 0.53882 0.0
H229 H 0.88984 0.68572 0.33657 0.0
H230 H 0.94558 0.66044 0.29314 0.0
Co231 Co 0.4197 0.28495 0.43526 0.0
C232 C 0.45307 0.33225 0.36718 0.0
C233 C 0.47102 0.30827 0.37953 0.0
C234 C 0.489 0.33109 0.35375 0.0
N235 N 0.44802 0.30843 0.38687 0.0
N236 N 0.47773 0.34624 0.34621 0.0
H237 H 0.44026 0.3406 0.37268 0.0
H238 H 0.47548 0.29369 0.39545 0.0
C239 C 0.43159 0.24669 0.37933 0.0
O240 O 0.4281 0.25629 0.33519 0.0
N241 N 0.3928 0.26222 0.4852 0.0
C242 C 0.36848 0.25931 0.49262 0.0
C243 C 0.35595 0.24121 0.53264 0.0
C244 C 0.39493 0.24627 0.52095 0.0
N245 N 0.37266 0.2331 0.55045 0.0
C246 C 0.38755 0.28873 0.35445 0.0
C247 C 0.35342 0.23466 0.34068 0.0
C248 C 0.34827 0.2528 0.31444 0.0
C249 C 0.3657 0.28003 0.32121 0.0
C250 C 0.37566 0.24426 0.37389 0.0
N251 N 0.39268 0.27109 0.37997 0.0
H252 H 0.39933 0.30972 0.36184 0.0
H253 H 0.37853 0.23011 0.39641 0.0
H254 H 0.36048 0.26966 0.47058 0.0
H255 H 0.41243 0.24429 0.52502 0.0
O256 O 0.41529 0.31429 0.45652 0.0
O257 O 0.44367 0.30407 0.49337 0.0
O258 O 0.42894 0.25586 0.4234 0.0
C259 C 0.43379 0.31994 0.49108 0.0
H260 H 0.50925 0.33661 0.34365 0.0
H261 H 0.33632 0.23496 0.54816 0.0
H262 H 0.34005 0.2134 0.33666 0.0
H263 H 0.36201 0.29455 0.30201 0.0
Co264 Co 0.75083 0.13919 0.45119 0.0
C265 C 0.70316 0.12641 0.38603 0.0
C266 C 0.73081 0.1682 0.38651 0.0
C267 C 0.7077 0.16394 0.3626 0.0
N268 N 0.72841 0.14456 0.40032 0.0
N269 N 0.69017 0.13762 0.36285 0.0
H270 H 0.6935 0.10557 0.39634 0.0
H271 H 0.74701 0.18755 0.39765 0.0
C272 C 0.79135 0.18519 0.39022 0.0
O273 O 0.78099 0.16984 0.34879 0.0
N274 N 0.77209 0.13381 0.50342 0.0
C275 C 0.76941 0.10998 0.51558 0.0
C276 C 0.78812 0.11363 0.55266 0.0
C277 C 0.79234 0.15174 0.5338 0.0
N278 N 0.80265 0.13986 0.5641 0.0
C279 C 0.74514 0.10257 0.36948 0.0
C280 C 0.79788 0.11513 0.36684 0.0
C281 C 0.77911 0.09392 0.33643 0.0
C282 C 0.75258 0.08791 0.33747 0.0
C283 C 0.78966 0.12979 0.39764 0.0
N284 N 0.76348 0.12343 0.39874 0.0
H285 H 0.72436 0.09612 0.37245 0.0
H286 H 0.80421 0.14577 0.42192 0.0
H287 H 0.75504 0.0912 0.49799 0.0
H288 H 0.79972 0.17298 0.53288 0.0
O289 O 0.7204 0.10671 0.47351 0.0
O290 O 0.73228 0.14641 0.50742 0.0
O291 O 0.78155 0.17653 0.43601 0.0
C292 C 0.71542 0.12077 0.50637 0.0
H293 H 0.70322 0.17924 0.35097 0.0
H294 H 0.79068 0.09805 0.57009 0.0
H295 H 0.81856 0.12019 0.36705 0.0
H296 H 0.73746 0.07126 0.31514 0.0
Co297 Co 0.48753 0.08202 0.24926 0.0
C298 C 0.47656 0.12508 0.28308 0.0
C299 C 0.50586 0.12441 0.33283 0.0
C300 C 0.5011 0.1442 0.35022 0.0
N301 N 0.49038 0.11214 0.29057 0.0
N302 N 0.48269 0.14461 0.31877 0.0
H303 H 0.46174 0.12012 0.25294 0.0
H304 H 0.51968 0.11963 0.35078 0.0
C305 C 0.53949 0.09323 0.2986 0.0
O306 O 0.52642 0.08224 0.34204 0.0
N307 N 0.48483 0.05308 0.20582 0.0
C308 C 0.46298 0.02896 0.1989 0.0
C309 C 0.46827 0.01526 0.16105 0.0
C310 C 0.50292 0.05392 0.17121 0.0
N311 N 0.49337 0.03096 0.1433 0.0
C312 C 0.45781 0.05952 0.34211 0.0
C313 C 0.46225 0.01417 0.34048 0.0
C314 C 0.44061 0.01357 0.3661 0.0
C315 C 0.43974 0.03719 0.3702 0.0
C316 C 0.48033 0.03725 0.31334 0.0
N317 N 0.47673 0.05891 0.31108 0.0
H318 H 0.45405 0.07593 0.34017 0.0
H319 H 0.49552 0.03662 0.28971 0.0
H320 H 0.44436 0.02191 0.21968 0.0
H321 H 0.52227 0.07138 0.16534 0.0
O322 O 0.45205 0.07171 0.23031 0.0
O323 O 0.48732 0.10008 0.18391 0.0
O324 O 0.5274 0.0959 0.25882 0.0
C325 C 0.46136 0.08604 0.18843 0.0
H326 H 0.51077 0.1575 0.38305 0.0
H327 H 0.45453 0.99523 0.14778 0.0
H328 H 0.46374 0.99632 0.33706 0.0
H329 H 0.42351 0.03757 0.39055 0.0
Co330 Co 0.93809 0.39847 0.2413 0.0
C331 C 0.89721 0.34934 0.29734 0.0
C332 C 0.90866 0.38509 0.34116 0.0
C333 C 0.89107 0.36364 0.37097 0.0
N334 N 0.91252 0.37621 0.29482 0.0
N335 N 0.88386 0.34107 0.34351 0.0
H336 H 0.8962 0.33604 0.26656 0.0
H337 H 0.91873 0.40573 0.35343 0.0
C338 C 0.93943 0.45237 0.25339 0.0
O339 O 0.96138 0.46596 0.22613 0.0
N340 N 0.96369 0.42023 0.18771 0.0
C341 C 0.98802 0.42308 0.18065 0.0
C342 C 0.99999 0.43942 0.13818 0.0
C343 C 0.96058 0.43355 0.14741 0.0
N344 N 0.98287 0.44631 0.11761 0.0
C345 C 0.96888 0.39026 0.316 0.0
C346 C 1.01084 0.44208 0.32092 0.0
C347 C 1.01448 0.42131 0.33905 0.0
C348 C 0.99259 0.3954 0.33943 0.0
C349 C 0.98647 0.43606 0.29821 0.0
N350 N 0.96647 0.41019 0.29303 0.0
H351 H 0.95319 0.36977 0.31225 0.0
H352 H 0.985 0.45196 0.2803 0.0
H353 H 0.99666 0.41416 0.20515 0.0
H354 H 0.94262 0.43449 0.14109 0.0
O355 O 0.94071 0.3689 0.2147 0.0
O356 O 0.91163 0.38038 0.18623 0.0
O357 O 0.92941 0.42731 0.26125 0.0
C358 C 0.92174 0.36475 0.18242 0.0
H359 H 0.8849 0.36469 0.41062 0.0
H360 H 0.02017 0.4465 0.12489 0.0
H361 H 0.02722 0.46244 0.32046 0.0
H362 H 0.99427 0.37886 0.35472 0.0
Co363 Co 0.61981 0.54964 0.23352 0.0
C364 C 0.67036 0.55487 0.27532 0.0
C365 C 0.63944 0.53941 0.33322 0.0
C366 C 0.66222 0.54164 0.35539 0.0
N367 N 0.64462 0.54792 0.28297 0.0
N368 N 0.68159 0.5513 0.31866 0.0
H369 H 0.68108 0.56272 0.23914 0.0
H370 H 0.62043 0.53216 0.35254 0.0
C371 C 0.56823 0.49579 0.24727 0.0
O372 O 0.55383 0.50356 0.2212 0.0
N373 N 0.59561 0.5516 0.18359 0.0
C374 C 0.58938 0.57105 0.1799 0.0
C375 C 0.57308 0.56601 0.13701 0.0
C376 C 0.58413 0.53579 0.14136 0.0
N377 N 0.56959 0.54368 0.11309 0.0
C378 C 0.62793 0.58879 0.30862 0.0
C379 C 0.57525 0.57258 0.32975 0.0
C380 C 0.59511 0.59781 0.34683 0.0
C381 C 0.62176 0.60532 0.33779 0.0
C382 C 0.58233 0.55653 0.3005 0.0
N383 N 0.60838 0.56526 0.28836 0.0
H384 H 0.64858 0.59563 0.29982 0.0
H385 H 0.56667 0.53819 0.28485 0.0
H386 H 0.5963 0.58787 0.20635 0.0
H387 H 0.58601 0.51855 0.13217 0.0
O388 O 0.64752 0.58254 0.20553 0.0
O389 O 0.63732 0.54264 0.17498 0.0
O390 O 0.59315 0.51163 0.25491 0.0
C391 C 0.65213 0.56854 0.1718 0.0
H392 H 0.66423 0.53624 0.39511 0.0
H393 H 0.564 0.57757 0.12514 0.0
H394 H 0.5544 0.56593 0.33634 0.0
H395 H 0.63779 0.62427 0.35174 0.0
Co396 Co 0.54809 0.93724 0.77487 0.0
C397 C 0.55828 0.90506 0.69495 0.0
C398 C 0.52086 0.9031 0.68225 0.0
C399 C 0.52323 0.88653 0.64677 0.0
N400 N 0.54286 0.91496 0.71276 0.0
N401 N 0.54666 0.88757 0.65488 0.0
H402 H 0.57736 0.91001 0.71144 0.0
H403 H 0.50365 0.9055 0.68578 0.0
C404 C 0.4987 0.94246 0.75893 0.0
O405 O 0.51265 0.96863 0.75811 0.0
N406 N 0.55289 0.95867 0.83842 0.0
C407 C 0.57518 0.97125 0.86808 0.0
C408 C 0.57032 0.98222 0.91159 0.0
C409 C 0.53447 0.96147 0.86629 0.0
N410 N 0.5447 0.97622 0.91054 0.0
C411 C 0.58736 0.98927 0.74306 0.0
C412 C 0.56461 0.99154 0.64958 0.0
C413 C 0.59039 0.01224 0.66195 0.0
C414 C 0.60138 1.01102 0.71002 0.0
C415 C 0.5511 0.96998 0.68418 0.0
N416 N 0.56253 0.96898 0.73047 0.0
H417 H 0.59751 0.98808 0.77725 0.0
H418 H 0.53182 0.95387 0.67278 0.0
H419 H 0.59379 0.97192 0.85999 0.0
H420 H 0.51379 0.95231 0.85567 0.0
O421 O 0.58113 0.93844 0.78847 0.0
O422 O 0.54196 0.90761 0.81997 0.0
O423 O 0.50999 0.92875 0.76773 0.0
C424 C 0.56759 0.91711 0.81656 0.0
H425 H 0.50816 0.87368 0.61884 0.0
H426 H 0.58447 0.99294 0.94258 0.0
H427 H 0.55527 0.99152 0.61275 0.0
H428 H 0.62155 0.0258 0.72069 0.0
Co429 Co 0.08611 0.61482 0.78764 0.0
C430 C 0.12263 0.66747 0.73924 0.0
C431 C 0.12783 0.63656 0.70502 0.0
C432 C 0.14582 0.66049 0.68233 0.0
N433 N 0.11338 0.64093 0.74115 0.0
N434 N 0.14264 0.67995 0.70415 0.0
H435 H 0.11507 0.67764 0.76321 0.0
H436 H 0.12596 0.61746 0.69602 0.0
C437 C 0.0823 0.56252 0.75595 0.0
O438 O 0.05618 0.55008 0.75868 0.0
N439 N 0.05882 0.58894 0.83453 0.0
C440 C 0.03488 0.58646 0.84489 0.0
C441 C 0.02189 0.5669 0.88157 0.0
C442 C 0.06031 0.57118 0.86688 0.0
N443 N 0.03779 0.5572 0.89571 0.0
C444 C 0.0436 0.61679 0.73557 0.0
C445 C 0.03941 0.58651 0.64849 0.0
C446 C 0.02088 0.59511 0.65544 0.0
C447 C 0.02363 0.61093 0.69908 0.0
C448 C 0.0591 0.59263 0.68673 0.0
N449 N 0.05997 0.60623 0.73146 0.0
H450 H 0.04557 0.62985 0.76753 0.0
H451 H 0.07378 0.58682 0.67938 0.0
H452 H 0.02719 0.59836 0.82865 0.0
H453 H 0.07765 0.56887 0.86969 0.0
O454 O 0.08253 0.64248 0.82192 0.0
O455 O 0.1108 0.62936 0.84657 0.0
O456 O 0.09605 0.58757 0.76457 0.0
C457 C 0.10108 0.64506 0.85379 0.0
H458 H 0.16076 0.66341 0.65345 0.0
H459 H 1.00208 0.56035 0.89642 0.0
H460 H 0.03874 0.57524 0.61393 0.0
H461 H 1.01078 0.61934 0.70447 0.0
Co462 Co 0.41418 0.48413 0.76457 0.0
C463 C 0.3665 0.47047 0.69856 0.0
C464 C 0.39104 0.51252 0.70924 0.0
C465 C 0.36822 0.50771 0.68346 0.0
N466 N 0.39049 0.48921 0.71746 0.0
N467 N 0.3528 0.48121 0.67683 0.0
H468 H 0.35778 0.44935 0.70514 0.0
H469 H 0.40602 0.53169 0.72416 0.0
C470 C 0.45244 0.53344 0.70674 0.0
O471 O 0.44196 0.52012 0.66306 0.0
N472 N 0.43715 0.4796 0.81306 0.0
C473 C 0.43902 0.45762 0.82055 0.0
C474 C 0.45804 0.4631 0.85846 0.0
C475 C 0.45468 0.49799 0.84666 0.0
N476 N 0.46792 0.48854 0.87492 0.0
C477 C 0.40788 0.44703 0.68388 0.0
C478 C 0.46127 0.46536 0.66573 0.0
C479 C 0.44211 0.44248 0.63958 0.0
C480 C 0.41524 0.43348 0.6487 0.0
C481 C 0.45298 0.4787 0.70041 0.0
N482 N 0.42644 0.46972 0.7085 0.0
H483 H 0.38719 0.43815 0.69338 0.0
H484 H 0.46787 0.49562 0.72226 0.0
H485 H 0.42757 0.43903 0.7995 0.0
H486 H 0.45733 0.51777 0.8506 0.0
O487 O 0.38467 0.45098 0.7878 0.0
O488 O 0.39656 0.49044 0.82347 0.0
O489 O 0.44373 0.52202 0.75116 0.0
C490 C 0.38025 0.46476 0.82241 0.0
H491 H 0.36296 0.52251 0.67243 0.0
H492 H 0.4643 0.44943 0.87207 0.0
H493 H 0.4823 0.47255 0.66011 0.0
H494 H 0.39994 0.41543 0.6301 0.0
Co495 Co 0.15086 0.41955 0.55636 0.0
C496 C 0.13381 0.45442 0.61008 0.0
C497 C 0.16624 0.45447 0.65042 0.0
C498 C 0.15911 0.47055 0.67764 0.0
N499 N 0.15056 0.44453 0.6076 0.0
N500 N 0.13866 0.4704 0.65228 0.0
H501 H 0.11809 0.44985 0.58214 0.0
H502 H 0.18138 0.4499 0.66227 0.0
C503 C 0.20395 0.42097 0.57439 0.0
O504 O 0.19666 0.3991 0.54726 0.0
N505 N 0.15023 0.39446 0.50477 0.0
C506 C 0.13031 0.36912 0.49848 0.0
C507 C 0.13578 0.35816 0.45568 0.0
C508 C 0.16693 0.39896 0.46399 0.0
N509 N 0.15892 0.37683 0.43423 0.0
C510 C 0.10856 0.38594 0.62292 0.0
C511 C 0.12487 0.3498 0.64658 0.0
C512 C 0.09866 0.34334 0.65787 0.0
C513 C 0.09098 0.36224 0.64781 0.0
C514 C 0.14193 0.3739 0.62125 0.0
N515 N 0.13321 0.39105 0.60755 0.0
H516 H 0.10159 0.39948 0.61291 0.0
H517 H 0.16126 0.3776 0.60987 0.0
H518 H 0.11279 0.35924 0.52305 0.0
H519 H 0.18479 0.41788 0.45688 0.0
O520 O 0.11943 0.41546 0.52352 0.0
O521 O 0.16068 0.44623 0.50147 0.0
O522 O 0.18797 0.42988 0.5817 0.0
C523 C 0.13512 0.43535 0.49381 0.0
H524 H 0.16776 0.48087 0.71418 0.0
H525 H 0.12393 0.33777 0.44225 0.0
H526 H 0.1316 0.33577 0.65452 0.0
H527 H 0.07115 0.35833 0.65746 0.0
Co528 Co 0.61593 0.75012 0.56096 0.0
C529 C 0.57488 0.69736 0.60295 0.0
C530 C 0.57768 0.72929 0.65011 0.0
C531 C 0.5582 0.70541 0.67109 0.0
N532 N 0.58797 0.72423 0.6069 0.0
N533 N 0.55639 0.68541 0.64094 0.0
H534 H 0.57912 0.6865 0.57387 0.0
H535 H 0.5838 0.74894 0.66548 0.0
C536 C 0.59037 0.78327 0.56488 0.0
O537 O 0.57615 0.76942 0.52434 0.0
N538 N 0.64354 0.77574 0.51518 0.0
C539 C 0.66808 0.77913 0.50855 0.0
C540 C 0.68027 0.79643 0.46736 0.0
C541 C 0.64098 0.79071 0.47764 0.0
N542 N 0.66319 0.80365 0.44772 0.0
C543 C 0.64397 0.73981 0.63969 0.0
C544 C 0.67863 0.79229 0.66775 0.0
C545 C 0.68154 0.77188 0.69027 0.0
C546 C 0.66378 0.74542 0.67654 0.0
C547 C 0.65813 0.78575 0.63137 0.0
N548 N 0.64142 0.75978 0.61743 0.0
H549 H 0.63095 0.71936 0.62796 0.0
H550 H 0.65632 0.80156 0.61293 0.0
H551 H 0.67613 0.76887 0.53073 0.0
H552 H 0.62294 0.79143 0.47145 0.0
O553 O 0.62083 0.72265 0.52956 0.0
O554 O 0.59268 0.73498 0.49987 0.0
O555 O 0.60748 0.77819 0.58485 0.0
C556 C 0.60343 0.72003 0.49464 0.0
H557 H 0.54593 0.70301 0.70504 0.0
H558 H 0.69974 0.80217 0.45158 0.0
H559 H 0.69213 0.81295 0.67779 0.0
H560 H 0.6656 0.72925 0.69336 0.0
Co561 Co 0.28841 0.87649 0.56576 0.0
C562 C 0.33547 0.89335 0.63561 0.0
C563 C 0.30912 0.85127 0.63893 0.0
C564 C 0.33149 0.85744 0.66782 0.0
N565 N 0.31105 0.87388 0.61982 0.0
N566 N 0.34828 0.88399 0.6655 0.0
H567 H 0.34475 0.91365 0.62178 0.0
H568 H 0.29362 0.83128 0.62959 0.0
C569 C 0.24764 0.82938 0.62605 0.0
O570 O 0.25584 0.84424 0.66861 0.0
N571 N 0.26682 0.87918 0.51097 0.0
C572 C 0.26752 0.90177 0.49581 0.0
C573 C 0.24915 0.89574 0.45648 0.0
C574 C 0.24814 0.85969 0.48058 0.0
N575 N 0.23694 0.86929 0.44683 0.0
C576 C 0.29197 0.91536 0.63943 0.0
C577 C 0.23801 0.89749 0.64665 0.0
C578 C 0.25613 0.92077 0.67299 0.0
C579 C 0.2833 0.92967 0.6693 0.0
C580 C 0.24759 0.88371 0.61679 0.0
N581 N 0.27431 0.89238 0.61443 0.0
H582 H 0.31303 0.92354 0.63474 0.0
H583 H 0.23358 0.86639 0.59464 0.0
H584 H 0.28024 0.92123 0.51285 0.0
H585 H 0.24298 0.83901 0.48299 0.0
O586 O 0.31803 0.90891 0.5409 0.0
O587 O 0.30778 0.86838 0.51335 0.0
O588 O 0.25876 0.83904 0.58178 0.0
C589 C 0.3235 0.89413 0.51099 0.0
H590 H 0.33538 0.84308 0.68684 0.0
H591 H 0.24469 0.90973 0.43746 0.0
H592 H 0.21683 0.89026 0.64859 0.0
H593 H 0.29778 0.94783 0.68886 0.0
H594 H 0.27275 0.24477 0.13307 0.0
H595 H 0.22776 0.24995 0.2628 0.0
H596 H 0.25721 0.24478 0.32511 0.0
H597 H 0.30019 0.24628 0.34157 0.0
H598 H 0.34502 0.24189 0.21068 0.0
H599 H 0.31106 0.23885 0.1495 0.0
C600 C 0.26899 0.24402 0.17502 0.0
C601 C 0.24835 0.24787 0.19364 0.0
C602 C 0.28615 0.24143 0.21014 0.0
C603 C 0.24347 0.24681 0.24782 0.0
C604 C 0.26047 0.24414 0.28331 0.0
C605 C 0.30193 0.24377 0.29975 0.0
C606 C 0.32483 0.24414 0.28028 0.0
C607 C 0.2825 0.24249 0.26488 0.0
C608 C 0.32735 0.24133 0.22619 0.0
C609 C 0.30807 0.23982 0.19134 0.0
H610 H 0.78766 0.99971 0.23392 0.0
H611 H 0.76156 0.02653 0.10036 0.0
H612 H 0.76793 0.06524 0.14887 0.0
H613 H 0.77452 0.08817 0.23222 0.0
H614 H 0.79834 0.06175 0.36888 0.0
H615 H 0.7997 0.02665 0.31666 0.0
C616 C 0.78392 0.01436 0.21541 0.0
C617 C 0.77384 1.01005 0.16387 0.0
C618 C 0.78698 0.03658 0.24429 0.0
C619 C 0.76899 0.02913 0.14024 0.0
C620 C 0.77263 0.05137 0.1679 0.0
C621 C 0.78065 0.0751 0.2501 0.0
C622 C 0.78623 0.07729 0.30392 0.0
C623 C 0.78066 0.05478 0.22037 0.0
C624 C 0.79413 0.06038 0.32716 0.0
C625 C 0.79464 0.0402 0.29744 0.0
H626 H 0.99187 0.75232 0.13498 0.0
H627 H 0.03309 0.80091 0.26924 0.0
H628 H 0.99624 0.77041 0.32667 0.0
H629 H 0.95594 0.72586 0.33938 0.0
H630 H 0.91676 0.67698 0.20416 0.0
H631 H 0.94892 0.71177 0.14588 0.0
C632 C 0.99248 0.75655 0.1767 0.0
C633 C 1.01515 0.77854 0.19819 0.0
C634 C 0.97165 0.73872 0.2091 0.0
C635 C 1.01574 0.78409 0.25201 0.0
C636 C 0.99479 0.76651 0.28477 0.0
C637 C 0.95406 0.72338 0.29704 0.0
C638 C 0.93407 0.69915 0.27566 0.0
C639 C 0.97315 0.7432 0.26396 0.0
C640 C 0.93191 0.69565 0.22102 0.0
C641 C 0.95038 0.71542 0.18789 0.0
H642 H 0.73331 0.78871 0.66849 0.0
H643 H 0.67673 0.76564 0.79527 0.0
H644 H 0.70887 0.7646 0.85593 0.0
H645 H 0.75026 0.76426 0.86953 0.0
H646 H 0.80706 0.7858 0.74347 0.0
H647 H 0.77788 0.79384 0.68558 0.0
C648 C 0.72849 0.78425 0.70978 0.0
C649 C 0.70294 0.77741 0.72791 0.0
C650 C 0.74687 0.78301 0.74401 0.0
C651 C 0.69645 0.77117 0.78102 0.0
C652 C 0.7147 0.77038 0.81543 0.0
C653 C 0.7564 0.77103 0.82951 0.0
C654 C 0.78044 0.77401 0.81024 0.0
C655 C 0.73953 0.7753 0.79686 0.0
C656 C 0.78853 0.7833 0.75887 0.0
C657 C 0.7718 0.78774 0.72585 0.0
H658 H 0.25192 0.99073 0.85171 0.0
H659 H 0.25722 0.0407 0.72181 0.0
H660 H 0.25055 1.00518 0.6598 0.0
H661 H 0.25052 0.96269 0.64401 0.0
H662 H 0.24453 0.9135 0.77592 0.0
H663 H 0.24315 0.94562 0.83643 0.0
C664 C 0.25059 0.99351 0.8099 0.0
C665 C 0.25496 0.01813 0.79106 0.0
C666 C 0.2467 0.97316 0.77518 0.0
C667 C 0.25365 0.02173 0.73692 0.0
C668 C 0.25006 1.00153 0.70165 0.0
C669 C 0.24792 0.95871 0.68589 0.0
C670 C 0.24751 0.93592 0.70596 0.0
C671 C 0.24755 0.97753 0.7204 0.0
C672 C 0.24458 0.93087 0.76006 0.0
C673 C 0.24406 0.94931 0.79451 0.0
H674 H 0.99581 0.24253 0.73936 0.0
H675 H 0.04936 0.25038 0.86364 0.0
H676 H 0.0873 0.28412 0.81348 0.0
H677 H 0.10359 0.31675 0.74117 0.0
H678 H 0.04902 0.31078 0.6199 0.0
H679 H 1.01318 0.27094 0.66118 0.0
C680 C 1.01597 0.25091 0.7542 0.0
C681 C 0.02014 0.244 0.80452 0.0
C682 C 0.03736 0.27111 0.72608 0.0
C683 C 0.04604 0.25539 0.82457 0.0
C684 C 0.06761 0.27482 0.79612 0.0
C685 C 0.08401 0.30629 0.72325 0.0
C686 C 0.07873 0.31686 0.67829 0.0
C687 C 0.06332 0.28372 0.74789 0.0
C688 C 0.05331 0.30322 0.65525 0.0
C689 C 0.03284 0.28043 0.6787 0.0
H690 H 0.95181 0.59868 0.46978 0.0
H691 H 0.8942 0.57721 0.59441 0.0
H692 H 0.92417 0.57193 0.65487 0.0
H693 H 0.96874 0.57839 0.67399 0.0
H694 H 0.02627 0.60053 0.5489 0.0
H695 H 0.99406 0.6 0.48633 0.0
C696 C 0.94571 0.59259 0.51009 0.0
C697 C 0.9211 0.58878 0.52807 0.0
C698 C 0.96302 0.58974 0.54433 0.0
C699 C 0.91312 0.58035 0.57991 0.0
C700 C 0.9303 0.57746 0.61442 0.0
C701 C 0.97405 0.58275 0.63285 0.0
C702 C 0.99994 0.58981 0.61612 0.0
C703 C 0.95558 0.58284 0.59736 0.0
C704 C 1.00648 0.59497 0.56265 0.0
C705 C 0.98815 0.5949 0.52701 0.0
H706 H 0.45604 0.40573 0.66563 0.0
H707 H 0.44148 0.44317 0.53378 0.0
H708 H 0.44054 0.40943 0.47446 0.0
H709 H 0.43734 0.36606 0.46259 0.0
H710 H 0.45098 0.32737 0.59348 0.0
H711 H 0.45913 0.36489 0.65097 0.0
C712 C 0.45362 0.40689 0.62362 0.0
C713 C 0.44911 0.42691 0.60366 0.0
C714 C 0.45242 0.38696 0.59002 0.0
C715 C 0.44535 0.42808 0.54953 0.0
C716 C 0.44454 0.40866 0.51583 0.0
C717 C 0.44248 0.36604 0.50359 0.0
C718 C 0.44315 0.34391 0.52421 0.0
C719 C 0.447 0.38749 0.53599 0.0
C720 C 0.45029 0.34422 0.57697 0.0
C721 C 0.45481 0.36559 0.60977 0.0
H722 H 0.62683 0.06502 0.67936 0.0
H723 H 0.59314 1.00579 0.5562 0.0
H724 H 0.62734 0.03608 0.49559 0.0
H725 H 0.67028 0.07614 0.48134 0.0
H726 H 0.70588 0.13525 0.60371 0.0
H727 H 0.66759 0.10813 0.66119 0.0
C728 C 0.6268 0.05884 0.63909 0.0
C729 C 0.60753 0.0329 0.62278 0.0
C730 C 0.64714 0.07612 0.60465 0.0
C731 C 0.60746 0.02556 0.57003 0.0
C732 C 0.62727 0.04278 0.53538 0.0
C733 C 0.66953 0.0833 0.52039 0.0
C734 C 0.69103 0.1074 0.53874 0.0
C735 C 0.64773 0.0676 0.5529 0.0
C736 C 0.6896 0.11669 0.58893 0.0
C737 C 0.66778 0.10112 0.62175 0.0
H738 H 0.46155 0.12548 0.12562 0.0
H739 H 0.41683 0.04173 0.16416 0.0
H740 H 0.37871 0.03691 0.11636 0.0
H741 H 0.35666 0.05644 0.07107 0.0
H742 H 0.40078 0.13811 0.0183 0.0
H743 H 0.43989 0.14418 0.06696 0.0
C744 C 0.44368 0.10615 0.12215 0.0
C745 C 0.44192 0.08404 0.14882 0.0
C746 C 0.4214 0.10329 0.09377 0.0
C747 C 0.41858 0.05911 0.14448 0.0
C748 C 0.39665 0.0563 0.1174 0.0
C749 C 0.37492 0.07544 0.0681 0.0
C750 C 0.37551 0.09654 0.03986 0.0
C751 C 0.39763 0.07831 0.09301 0.0
C752 C 0.39934 0.12139 0.03996 0.0
C753 C 0.42194 0.12482 0.06724 0.0
H754 H 0.94944 0.36992 0.09588 0.0
H755 H 0.87942 0.31394 0.18077 0.0
H756 H 0.87665 0.27712 0.12787 0.0
H757 H 0.8986 0.26056 0.06645 0.0
H758 H 0.96983 0.31755 0.98508 0.0
H759 H 0.96767 0.35422 0.02704 0.0
C760 C 0.933 0.34974 0.10123 0.0
C761 C 0.91445 0.34452 0.14127 0.0
C762 C 0.93218 0.3288 0.07206 0.0
C763 C 0.89361 0.31835 0.14928 0.0
C764 C 0.89227 0.29731 0.11951 0.0
C765 C 0.91329 0.28103 0.05732 0.0
C766 C 0.93471 0.28635 0.02375 0.0
C767 C 0.9121 0.30219 0.08219 0.0
C768 C 0.95357 0.31296 0.0119 0.0
C769 C 0.95228 0.33395 0.03563 0.0
H770 H 0.6995 0.60913 0.19885 0.0
H771 H 0.65685 0.55853 0.06777 0.0
H772 H 0.6939 0.58724 0.00876 0.0
H773 H 0.73555 0.63049 0.9938 0.0
H774 H 0.77687 0.68054 0.12642 0.0
H775 H 0.74348 0.64795 0.18625 0.0
C776 C 0.69854 0.60413 0.15745 0.0
C777 C 0.6755 0.58212 0.1372 0.0
C778 C 0.71968 0.62062 0.12439 0.0
C779 C 0.67448 0.57549 0.08391 0.0
C780 C 0.69556 0.59196 0.05032 0.0
C781 C 0.73757 0.63365 0.03598 0.0
C782 C 0.75854 0.65759 0.05617 0.0
C783 C 0.71789 0.61507 0.06993 0.0
C784 C 0.76096 0.66202 0.11054 0.0
C785 C 0.74178 0.64355 0.14453 0.0
H786 H 0.61024 0.91544 0.78166 0.0
H787 H 0.55686 0.89381 0.91376 0.0
H788 H 0.58742 0.88574 0.96694 0.0
H789 H 0.63315 0.8934 0.97951 0.0
H790 H 0.68675 0.91747 0.84734 0.0
H791 H 0.65208 0.91541 0.78982 0.0
C792 C 0.605 0.90829 0.82171 0.0
C793 C 0.58167 0.90557 0.84425 0.0
C794 C 0.62282 0.90431 0.85193 0.0
C795 C 0.5748 0.89602 0.89581 0.0
C796 C 0.59237 0.89164 0.92623 0.0
C797 C 0.63676 0.89719 0.93771 0.0
C798 C 0.66232 0.90566 0.91737 0.0
C799 C 0.61699 0.8969 0.90534 0.0
C800 C 0.66713 0.91091 0.86347 0.0
C801 C 0.64742 0.90994 0.8308 0.0
H802 H 0.07684 0.64562 0.94268 0.0
H803 H 0.14705 0.6925 0.84985 0.0
H804 H 0.15533 0.73309 0.89654 0.0
H805 H 0.13737 0.75565 0.95308 0.0
H806 H 0.06746 0.70737 0.04682 0.0
H807 H 0.0646 0.66691 0.01185 0.0
C808 C 0.09455 0.6646 0.93442 0.0
C809 C 0.1113 0.66637 0.89315 0.0
C810 C 0.09894 0.68764 0.96109 0.0
C811 C 0.13401 0.69092 0.88182 0.0
C812 C 0.13857 0.71409 0.90819 0.0
C813 C 0.12203 0.73626 0.96678 0.0
C814 C 0.10216 0.73442 0.00109 0.0
C815 C 0.12041 0.71285 0.94626 0.0
C816 C 0.08253 0.7092 0.0192 0.0
C817 C 0.08088 0.68604 -0.00067 0.0
H818 H 0.27036 0.38006 0.91304 0.0
H819 H 0.32148 0.38013 0.03579 0.0
H820 H 0.35943 0.41952 0.99787 0.0
H821 H 0.37938 0.44946 0.92235 0.0
H822 H 0.32919 0.44767 0.79621 0.0
H823 H 0.2896 0.41403 0.84282 0.0
C824 C 0.28969 0.3892 0.93198 0.0
C825 C 0.29331 0.37718 0.97664 0.0
C826 C 0.31163 0.4115 0.90911 0.0
C827 C 0.31842 0.38898 0.00094 0.0
C828 C 0.34011 0.41146 0.9793 0.0
C829 C 0.35963 0.44237 0.9063 0.0
C830 C 0.35692 0.45115 0.8567 0.0
C831 C 0.33717 0.42231 0.93238 0.0
C832 C 0.33148 0.44138 0.83499 0.0
C833 C 0.30892 0.42197 0.86135 0.0
H834 H 0.05296 0.46105 0.39978 0.0
H835 H 0.0362 0.39165 0.30788 0.0
H836 H 0.07674 0.3938 0.3397 0.0
H837 H 0.11235 0.4105 0.40486 0.0
H838 H 0.12921 0.47892 0.49907 0.0
H839 H 0.09395 0.4828 0.45401 0.0
C840 C 0.05853 0.44679 0.386 0.0
C841 C 0.04116 0.42567 0.35306 0.0
C842 C 0.08196 0.44806 0.40468 0.0
C843 C 0.04876 0.4075 0.33485 0.0
C844 C 0.07205 0.40882 0.35262 0.0
C845 C 0.10904 0.42697 0.41361 0.0
C846 C 0.12326 0.44454 0.45446 0.0
C847 C 0.08819 0.42834 0.38909 0.0
C848 C 0.11866 0.46549 0.46685 0.0
C849 C 0.09822 0.4674 0.44172 0.0
H850 H 0.56694 0.66742 0.49434 0.0
H851 H 0.62772 0.73002 0.4004 0.0
H852 H 0.62833 0.69682 0.34145 0.0
H853 H 0.61655 0.65039 0.32552 0.0
H854 H 0.55856 0.58789 0.42459 0.0
H855 H 0.55174 0.62057 0.47303 0.0
C856 C 0.57982 0.67374 0.46034 0.0
C857 C 0.59719 0.70101 0.45141 0.0
C858 C 0.58092 0.65454 0.42839 0.0
C859 C 0.61386 0.70906 0.40724 0.0
C860 C 0.61446 0.6901 0.37411 0.0
C861 C 0.60234 0.64391 0.35761 0.0
C862 C 0.58849 0.61686 0.37226 0.0
C863 C 0.59894 0.66283 0.38576 0.0
C864 C 0.56956 0.60861 0.41281 0.0
C865 C 0.56573 0.6273 0.44057 0.0
H866 H 0.32677 0.92133 0.42509 0.0
H867 H 0.37183 0.89794 0.52324 0.0
H868 H 0.41347 0.93201 0.48238 0.0
H869 H 0.437 0.97316 0.4282 0.0
H870 H 0.39053 0.99681 0.33404 0.0
H871 H 0.34955 0.958 0.3633 0.0
C872 C 0.34569 0.92307 0.43583 0.0
C873 C 0.3465 0.90709 0.47601 0.0
C874 C 0.36931 0.94323 0.41377 0.0
C875 C 0.37095 0.90975 0.49118 0.0
C876 C 0.3947 0.92948 0.46845 0.0
C877 C 0.41787 0.96946 0.41367 0.0
C878 C 0.41665 0.98811 0.38029 0.0
C879 C 0.39418 0.9471 0.43121 0.0
C880 C 0.39184 0.98307 0.36104 0.0
C881 C 0.36841 0.96082 0.37743 0.0
H882 H 0.13767 0.34282 0.35275 0.0
H883 H 0.21237 0.40103 0.4216 0.0
H884 H 0.23653 0.39044 0.356 0.0
H885 H 0.23624 0.36268 0.28299 0.0
H886 H 0.16137 0.30486 0.21314 0.0
H887 H 0.13753 0.31676 0.27631 0.0
C888 C 0.15924 0.35321 0.35335 0.0
C889 C 0.17317 0.3726 0.39224 0.0
C890 C 0.17298 0.3468 0.31587 0.0
C891 C 0.20115 0.38623 0.39186 0.0
C892 C 0.21497 0.37999 0.35463 0.0
C893 C 0.21476 0.35282 0.2808 0.0
C894 C 0.20082 0.33262 0.24312 0.0
C895 C 0.20107 0.36003 0.31691 0.0
C896 C 0.17283 0.32006 0.24198 0.0
C897 C 0.15908 0.32702 0.27797 0.0
H898 H 0.71016 0.8409 0.40602 0.0
H899 H 0.62506 0.80309 0.38474 0.0
H900 H 0.63164 0.82983 0.30653 0.0
H901 H 0.66143 0.86332 0.24292 0.0
H902 H 0.74651 0.90095 0.26357 0.0
H903 H 0.73999 0.87429 0.34213 0.0
C904 C 0.69301 0.83829 0.38416 0.0
C905 C 0.66713 0.81991 0.40175 0.0
C906 C 0.69692 0.85355 0.33861 0.0
C907 C 0.64521 0.81726 0.37301 0.0
C908 C 0.64895 0.83244 0.32785 0.0
C909 C 0.67858 0.86589 0.26476 0.0
C910 C 0.70444 0.88422 0.24707 0.0
C911 C 0.6747 0.85062 0.31024 0.0
C912 C 0.72639 0.88683 0.2756 0.0
C913 C 0.72267 0.8717 0.32088 0.0
H914 H 0.13676 0.79242 0.31154 0.0
H915 H 0.16546 0.86408 0.21929 0.0
H916 H 0.20266 0.8878 0.27957 0.0
H917 H 0.22717 0.88833 0.35814 0.0
H918 H 0.19873 0.81701 0.45116 0.0
H919 H 0.16185 0.79282 0.3899 0.0
C920 C 0.15126 0.81315 0.30429 0.0
C921 C 0.14808 0.8264 0.26091 0.0
C922 C 0.17282 0.82671 0.33903 0.0
C923 C 0.167 0.85341 0.25271 0.0
C924 C 0.18846 0.86699 0.287 0.0
C925 C 0.21283 0.86756 0.36538 0.0
C926 C 0.21575 0.85462 0.40952 0.0
C927 C 0.1915 0.85387 0.33037 0.0
C928 C 0.19721 0.82747 0.41738 0.0
C929 C 0.17596 0.81366 0.38251 0.0
H930 H 0.79953 0.67122 0.69593 0.0
H931 H 0.87386 0.73425 0.75733 0.0
H932 H 0.89829 0.725 0.69027 0.0
H933 H 0.89872 0.69743 0.61728 0.0
H934 H 0.82423 0.63467 0.55521 0.0
H935 H 0.79989 0.64496 0.62023 0.0
C936 C 0.82107 0.68293 0.69466 0.0
C937 C 0.83476 0.70338 0.73182 0.0
C938 C 0.83505 0.67732 0.65626 0.0
C939 C 0.8627 0.71863 0.72896 0.0
C940 C 0.87674 0.71318 0.69084 0.0
C941 C 0.87718 0.68614 0.61737 0.0
C942 C 0.86353 0.66506 0.58132 0.0
C943 C 0.86315 0.69237 0.65464 0.0
C944 C 0.83549 0.65061 0.58286 0.0
C945 C 0.82144 0.65662 0.61991 0.0
H946 H 0.37208 0.16545 0.74287 0.0
H947 H 0.28794 0.12244 0.70827 0.0
H948 H 0.29513 0.15287 0.6358 0.0
H949 H 0.3255 0.19163 0.58155 0.0
H950 H 0.40961 0.23358 0.61575 0.0
H951 H 0.40228 0.20316 0.68819 0.0
C952 C 0.35527 0.16235 0.71923 0.0
C953 C 0.32947 0.14147 0.73139 0.0
C954 C 0.35957 0.17974 0.67721 0.0
C955 C 0.30798 0.1384 0.70053 0.0
C956 C 0.3121 0.15575 0.65877 0.0
C957 C 0.34218 0.19419 0.60507 0.0
C958 C 0.36809 0.21489 0.59309 0.0
C959 C 0.33781 0.17654 0.64681 0.0
C960 C 0.38954 0.21767 0.62356 0.0
C961 C 0.38533 0.20036 0.66524 0.0
H962 H 0.81911 0.18492 0.6215 0.0
H963 H 0.83635 0.12202 0.58887 0.0
H964 H 0.87192 0.14022 0.65385 0.0
H965 H 0.89825 0.17388 0.72079 0.0
H966 H 0.88136 0.23697 0.75359 0.0
H967 H 0.84606 0.21914 0.68776 0.0
C968 C 0.83083 0.17538 0.62825 0.0
C969 C 0.82477 0.15195 0.6005 0.0
C970 C 0.85144 0.186 0.66594 0.0
C971 C 0.84012 0.13976 0.6102 0.0
C972 C 0.86063 0.15023 0.64729 0.0
C973 C 0.88672 0.1836 0.71384 0.0
C974 C 0.8926 0.20679 0.74222 0.0
C975 C 0.86635 0.17321 0.67577 0.0
C976 C 0.87761 0.21931 0.732 0.0
C977 C 0.85727 0.20904 0.69441 0.0
H978 H 0.47047 0.99277 0.06802 0.0
H979 H 0.54666 0.05474 0.12522 0.0
H980 H 0.56914 0.0438 0.0569 0.0
H981 H 0.56732 0.01636 0.98183 0.0
H982 H 0.49124 0.95266 0.92809 0.0
H983 H 0.46872 0.96472 0.9942 0.0
C984 C 0.492 1.00378 0.06621 0.0
C985 C 0.5067 0.0246 0.10232 0.0
C986 C 0.50491 0.99711 0.02722 0.0
C987 C 0.53464 0.03886 0.09798 0.0
C988 C 0.54759 0.03249 0.05897 0.0
C989 C 0.54584 1.00481 0.98472 0.0
C990 C 0.53119 0.98346 0.94962 0.0
C991 C 0.53293 1.01157 0.02354 0.0
C992 C 0.50323 0.96931 0.95377 0.0
C993 C 0.49026 0.97611 0.99196 0.0
H994 H 1.00139 0.54154 0.97372 0.0
H995 H 0.05954 0.52519 0.9036 0.0
H996 H 0.04711 0.48861 0.96564 0.0
H997 H 0.01911 0.46087 0.03908 0.0
H998 H 0.96065 0.47748 0.1069 0.0
H999 H 0.97303 0.51361 0.0446 0.0
C1000 C 1.0112 0.52986 0.97119 0.0
C1001 C 0.03134 0.5362 0.9335 0.0
C1002 C 1.00359 0.50859 0.00618 0.0
C1003 C 0.04419 0.52107 0.93234 0.0
C1004 C 0.03691 0.49996 0.96758 0.0
C1005 C 1.00909 0.4724 0.0403 0.0
C1006 C 0.98888 0.46628 0.07778 0.0
C1007 C 1.01656 0.49349 0.00458 0.0
C1008 C 0.97591 0.4813 0.07816 0.0
C1009 C 0.9832 0.50222 0.04282 0.0
H1010 H 0.48422 0.46702 0.95062 0.0
H1011 H 0.49808 0.54223 0.88844 0.0
H1012 H 0.53123 0.56595 0.95624 0.0
H1013 H 0.55604 0.56552 0.03413 0.0
H1014 H 0.54285 0.49049 0.0951 0.0
H1015 H 0.5104 0.46666 0.02575 0.0
C1016 C 0.49463 0.48859 0.95124 0.0
C1017 C 0.48824 0.50263 0.9143 0.0
C1018 C 0.51405 0.50224 0.99003 0.0
C1019 C 0.50198 0.53068 0.91666 0.0
C1020 C 0.52118 0.54437 0.95532 0.0
C1021 C 0.54604 0.54396 0.03225 0.0
C1022 C 0.55187 0.52985 0.06987 0.0
C1023 C 0.52725 0.53036 0.99243 0.0
C1024 C 0.53903 0.50191 0.06635 0.0
C1025 C 0.52028 0.48824 0.02692 0.0
H1026 H 0.20426 0.16307 0.00736 0.0
H1027 H 0.2715 0.23945 0.9669 0.0
H1028 H 0.29546 0.21763 0.93427 0.0
H1029 H 0.29714 0.17691 0.91628 0.0
H1030 H 0.23009 0.10038 0.95756 0.0
H1031 H 0.20621 0.1222 0.99053 0.0
C1032 C 0.22405 0.17491 0.99099 0.0
C1033 C 0.23603 0.20287 0.9894 0.0
C1034 C 0.23777 0.16221 0.97249 0.0
C1035 C 0.26192 0.21794 0.96897 0.0
C1036 C 0.27559 0.20547 0.95011 0.0
C1037 C 0.27731 0.16495 0.93252 0.0
C1038 C 0.26545 0.137 0.93421 0.0
C1039 C 0.2637 0.17762 0.95162 0.0
C1040 C 0.23976 0.12191 0.9557 0.0
C1041 C 0.22604 0.13438 0.97452 0.0
H1042 H 0.87665 0.13816 0.01532 0.0
H1043 H 0.91172 0.12882 0.87296 0.0
H1044 H 0.88149 0.08068 0.87536 0.0
H1045 H 0.84691 0.04071 0.92138 0.0
H1046 H 0.81102 0.05035 0.06179 0.0
H1047 H 0.8394 0.09872 0.05659 0.0
C1048 C 0.87752 0.1256 0.9846 0.0
C1049 C 0.89659 0.13705 0.94436 0.0
C1050 C 0.8599 0.09792 0.98594 0.0
C1051 C 0.89724 0.12054 0.90443 0.0
C1052 C 0.88002 0.09297 0.90587 0.0
C1053 C 0.84521 0.05354 0.95035 0.0
C1054 C 0.82691 0.04206 0.99178 0.0
C1055 C 0.86157 0.08138 0.94692 0.0
C1056 C 0.82468 0.05876 0.02913 0.0
C1057 C 0.84108 0.08641 0.0264 0.0
H1058 H 0.98243 0.82885 0.00922 0.0
H1059 H 0.99338 0.7627 0.96851 0.0
H1060 H 0.94889 0.73915 0.92985 0.0
H1061 H 0.90672 0.7371 0.9086 0.0
H1062 H 0.89514 0.80277 0.95136 0.0
H1063 H 0.94006 0.82681 0.98778 0.0
C1064 C 0.97514 0.80941 0.99141 0.0
C1065 C 0.99116 0.79753 0.99169 0.0
C1066 C 0.94943 0.79588 0.96966 0.0
C1067 C 0.9813 0.77212 0.96922 0.0
C1068 C 0.95592 0.7587 0.94694 0.0
C1069 C 0.91402 0.75672 0.92566 0.0
C1070 C 0.89755 0.76809 0.92706 0.0
C1071 C 0.93976 0.77033 0.94713 0.0
C1072 C 0.90735 0.79348 0.94974 0.0
C1073 C 0.93306 0.80729 0.97059 0.0
H1074 H 0.79864 0.90112 0.08004 0.0
H1075 H 0.74082 0.87158 0.95479 0.0
H1076 H 0.75014 0.83565 0.93734 0.0
H1077 H 0.77589 0.81386 0.95469 0.0
H1078 H 0.83652 0.845 0.07498 0.0
H1079 H 0.82465 0.87861 0.0978 0.0
C1080 C 0.78791 0.88656 0.04948 0.0
C1081 C 0.7691 0.88892 0.01872 0.0
C1082 C 0.79395 0.86629 0.03853 0.0
C1083 C 0.75551 0.87019 0.97876 0.0
C1084 C 0.76083 0.84966 0.96872 0.0
C1085 C 0.7868 0.82807 0.98554 0.0
C1086 C 0.80726 0.82677 0.01262 0.0
C1087 C 0.78033 0.84779 0.9977 0.0
C1088 C 0.82054 0.84518 0.0535 0.0
C1089 C 0.81386 0.8646 0.06651 0.0
H1090 H 0.20597 0.97945 0.06878 0.0
H1091 H 0.19008 0.9745 0.90204 0.0
H1092 H 0.15732 0.92753 0.91061 0.0
H1093 H 0.13279 0.88773 0.96475 0.0
H1094 H 0.14665 0.89221 0.13202 0.0
H1095 H 0.18031 0.93946 0.12388 0.0
C1096 C 0.19519 0.96825 0.03436 0.0
C1097 C 0.20089 0.98079 0.98471 0.0
C1098 C 0.17593 0.94104 0.03958 0.0
C1099 C 0.18672 0.96558 0.94061 0.0
C1100 C 0.16775 0.93861 0.94548 0.0
C1101 C 0.14322 0.89894 -0.00048 0.0
C1102 C 0.13723 0.88633 0.04892 0.0
C1103 C 0.16227 0.92611 0.99465 0.0
C1104 C 0.15083 0.90137 0.0935 0.0
C1105 C 0.17008 0.92841 0.08885 0.0
H1106 H 0.12881 0.23521 0.08727 0.0
H1107 H 0.15714 0.28835 0.95432 0.0
H1108 H 0.11158 0.27653 0.93223 0.0
H1109 H 0.06359 0.24905 0.94712 0.0
H1110 H 0.0344 0.19319 0.07537 0.0
H1111 H 0.08015 0.20808 0.10309 0.0
C1112 C 0.12496 0.24444 0.05396 0.0
C1113 C 0.14633 0.26269 0.02254 0.0
C1114 C 0.0985 0.23687 0.04039 0.0
C1115 C 0.14103 0.2742 0.97901 0.0
C1116 C 0.11497 0.26744 0.96632 0.0
C1117 C 0.06715 0.2403 0.98135 0.0
C1118 C 0.04547 0.21989 0.0088 0.0
C1119 C 0.09351 0.24848 0.99617 0.0
C1120 C 0.05067 0.20871 0.0531 0.0
C1121 C 0.07686 0.21727 0.06905 0.0
H1122 H 0.86869 0.49425 0.35981 0.0
H1123 H 0.93228 0.56937 0.30283 0.0
H1124 H 0.95503 0.54686 0.26704 0.0
H1125 H 0.95637 0.50566 0.25047 0.0
H1126 H 0.89242 0.43059 0.3076 0.0
H1127 H 0.87018 0.45328 0.34416 0.0
C1128 C 0.88738 0.50572 0.33914 0.0
C1129 C 0.89864 0.5335 0.33376 0.0
C1130 C 0.90028 0.49263 0.31854 0.0
C1131 C 0.92325 0.54803 0.30789 0.0
C1132 C 0.93619 0.53513 0.28716 0.0
C1133 C 0.93756 0.49421 0.2709 0.0
C1134 C 0.92611 0.46637 0.27602 0.0
C1135 C 0.92484 0.50741 0.29206 0.0
C1136 C 0.90176 0.45199 0.30291 0.0
C1137 C 0.88898 0.46496 0.32388 0.0
H1138 H 0.51546 0.45836 0.24503 0.0
H1139 H 0.59165 0.47153 0.2992 0.0
H1140 H 0.57031 0.42634 0.33449 0.0
H1141 H 0.53008 0.38314 0.35014 0.0
H1142 H 0.45392 0.36994 0.29649 0.0
H1143 H 0.47519 0.41525 0.26137 0.0
C1144 C 0.52746 0.4514 0.26452 0.0
C1145 C 0.55519 0.46839 0.26922 0.0
C1146 C 0.51504 0.42539 0.28497 0.0
C1147 C 0.57031 0.45895 0.29489 0.0
C1148 C 0.55811 0.43307 0.3151 0.0
C1149 C 0.51814 0.39003 0.3303 0.0
C1150 C 0.49041 0.37305 0.3257 0.0
C1151 C 0.53051 0.41611 0.31025 0.0
C1152 C 0.47523 0.38263 0.30089 0.0
C1153 C 0.48741 0.4085 0.2806 0.0
H1154 H 0.56557 0.07636 0.36054 0.0
H1155 H 0.57865 0.13184 0.23575 0.0
H1156 H 0.62698 0.15006 0.24317 0.0
H1157 H 0.66562 0.15162 0.28941 0.0
H1158 H 0.65071 0.09554 0.41432 0.0
H1159 H 0.60307 0.07607 0.40227 0.0
C1160 C 0.57893 0.09242 0.33473 0.0
C1161 C 0.56852 0.10297 0.29811 0.0
C1162 C 0.60643 0.10268 0.33932 0.0
C1163 C 0.58614 0.1234 0.26436 0.0
C1164 C 0.61377 0.13387 0.2688 0.0
C1165 C 0.65188 0.13507 0.31374 0.0
C1166 C 0.66191 0.12506 0.3526 0.0
C1167 C 0.62417 0.12393 0.3068 0.0
C1168 C 0.6438 0.10343 0.38354 0.0
C1169 C 0.61643 0.09238 0.37699 0.0
H1170 H 0.47613 0.16739 0.40617 0.0
H1171 H 0.46518 0.16205 0.23801 0.0
H1172 H 0.44765 0.19249 0.24224 0.0
H1173 H 0.43637 0.22147 0.29315 0.0
H1174 H 0.44699 0.22692 0.46152 0.0
H1175 H 0.46373 0.19571 0.4577 0.0
C1176 C 0.47005 0.17301 0.37045 0.0
C1177 C 0.47205 0.16242 0.32182 0.0
C1178 C 0.45991 0.19057 0.37318 0.0
C1179 C 0.46363 0.16961 0.276 0.0
C1180 C 0.45372 0.18716 0.27835 0.0
C1181 C 0.44227 0.21582 0.32912 0.0
C1182 C 0.44051 0.2267 0.37753 0.0
C1183 C 0.45185 0.19784 0.32666 0.0
C1184 C 0.44812 0.21894 0.42368 0.0
C1185 C 0.45777 0.20111 0.42152 0.0
H1186 H 0.79908 0.23034 0.44026 0.0
H1187 H 0.83097 0.20225 0.31886 0.0
H1188 H 0.86322 0.24807 0.29475 0.0
H1189 H 0.88087 0.29593 0.30499 0.0
H1190 H 0.84697 0.32442 0.42194 0.0
H1191 H 0.8174 0.27891 0.4511 0.0
C1192 C 0.81344 0.23435 0.40923 0.0
C1193 C 0.81279 0.213 0.38157 0.0
C1194 C 0.83146 0.26087 0.39436 0.0
C1195 C 0.83114 0.2184 0.34073 0.0
C1196 C 0.84952 0.24459 0.32678 0.0
C1197 C 0.86695 0.29236 0.33656 0.0
C1198 C 0.86636 0.31392 0.36089 0.0
C1199 C 0.84954 0.26599 0.35263 0.0
C1200 C 0.8483 0.3085 0.40256 0.0
C1201 C 0.83118 0.28234 0.41926 0.0
H1202 H 0.71192 0.56542 0.40685 0.0
H1203 H 0.7126 0.54962 0.24111 0.0
H1204 H 0.7591 0.56156 0.24666 0.0
H1205 H 0.79978 0.57704 0.29752 0.0
H1206 H 0.80002 0.59238 0.46365 0.0
H1207 H 0.75297 0.57981 0.45908 0.0
C1208 C 0.72217 0.56432 0.37213 0.0
C1209 C 0.70873 0.55688 0.32351 0.0
C1210 C 0.74913 0.57117 0.37559 0.0
C1211 C 0.72247 0.55578 0.27881 0.0
C1212 C 0.74909 0.56247 0.28197 0.0
C1213 C 0.78962 0.57768 0.33286 0.0
C1214 C 0.80349 0.58574 0.38082 0.0
C1215 C 0.76267 0.57039 0.32997 0.0
C1216 C 0.78985 0.58624 0.42618 0.0
C1217 C 0.76294 0.57907 0.42358 0.0
H1218 H 0.56386 0.80618 0.52156 0.0
H1219 H 0.60799 0.8085 0.65976 0.0
H1220 H 0.59978 0.84231 0.69896 0.0
H1221 H 0.57799 0.86962 0.69579 0.0
H1222 H 0.53487 0.86769 0.55626 0.0
H1223 H 0.5448 0.83546 0.51598 0.0
C1224 C 0.57173 0.81408 0.56024 0.0
C1225 C 0.58631 0.80458 0.58779 0.0
C1226 C 0.56707 0.83363 0.58245 0.0
C1227 C 0.59664 0.81536 0.63764 0.0
C1228 C 0.59193 0.83471 0.66015 0.0
C1229 C 0.57115 0.86251 0.65626 0.0
C1230 C 0.5554 0.87092 0.62942 0.0
C1231 C 0.57695 0.84384 0.63313 0.0
C1232 C 0.54657 0.86124 0.57829 0.0
C1233 C 0.55231 0.84282 0.55508 0.0
H1234 H 0.2159 0.80434 0.70992 0.0
H1235 H 0.23304 0.79019 0.5518 0.0
H1236 H 0.20121 0.74261 0.56132 0.0
H1237 H 0.16981 0.70473 0.61602 0.0
H1238 H 0.15262 0.71946 0.77361 0.0
H1239 H 0.18285 0.76701 0.76254 0.0
C1240 C 0.21264 0.79089 0.67742 0.0
C1241 C 0.22707 0.80082 0.63043 0.0
C1242 C 0.19426 0.76359 0.68307 0.0
C1243 C 0.2223 0.7831 0.58852 0.0
C1244 C 0.20412 0.75586 0.59396 0.0
C1245 C 0.17271 0.71833 0.64796 0.0
C1246 C 0.15908 0.70832 0.69581 0.0
C1247 C 0.19023 0.74582 0.64131 0.0
C1248 C 0.16268 0.7264 0.73634 0.0
C1249 C 0.18013 0.75369 0.73014 0.0
H1250 H 0.24119 0.40546 0.57544 0.0
H1251 H 0.22795 0.4693 0.62446 0.0
H1252 H 0.27289 0.4936 0.66052 0.0
H1253 H 0.31606 0.49685 0.67794 0.0
H1254 H 0.32941 0.43324 0.62854 0.0
H1255 H 0.28425 0.40865 0.59318 0.0
C1256 C 0.24808 0.42467 0.59404 0.0
C1257 C 0.2311 0.43545 0.59726 0.0
C1258 C 0.274 0.4386 0.61467 0.0
C1259 C 0.24044 0.46039 0.62165 0.0
C1260 C 0.26622 0.47437 0.64217 0.0
C1261 C 0.3092 0.47775 0.65899 0.0
C1262 C 0.32616 0.46695 0.65576 0.0
C1263 C 0.2832 0.46372 0.63875 0.0
C1264 C 0.3167 0.44188 0.63197 0.0
C1265 C 0.29092 0.42787 0.61154 0.0
H1266 H 0.06151 0.51393 0.7075 0.0
H1267 H 0.13476 0.57872 0.76911 0.0
H1268 H 0.15855 0.55577 0.74312 0.0
H1269 H 0.15887 0.51756 0.70206 0.0
H1270 H 0.0863 0.45335 0.63766 0.0
H1271 H 0.06205 0.47583 0.66497 0.0
C1272 C 0.08264 0.52295 0.71543 0.0
C1273 C 0.09626 0.54798 0.74041 0.0
C1274 C 0.0964 0.50981 0.69958 0.0
C1275 C 0.12374 0.55951 0.74987 0.0
C1276 C 0.13741 0.54639 0.73505 0.0
C1277 C 0.13772 0.50842 0.69436 0.0
C1278 C 0.12442 0.48379 0.668 0.0
C1279 C 0.12397 0.52157 0.70981 0.0
C1280 C 0.09707 0.47241 0.65744 0.0
C1281 C 0.08316 0.4852 0.67332 0.0
H1282 H 0.47513 0.56302 0.61925 0.0
H1283 H 0.47579 0.56867 0.78848 0.0
H1284 H 0.50801 0.61641 0.78336 0.0
H1285 H 0.53575 0.65695 0.73022 0.0
H1286 H 0.53421 0.65039 0.56131 0.0
H1287 H 0.50286 0.60276 0.5669 0.0
C1288 C 0.48232 0.57461 0.65513 0.0
C1289 C 0.4729 0.56219 0.70415 0.0
C1290 C 0.50081 0.60201 0.65192 0.0
C1291 C 0.48262 0.57764 0.75015 0.0
C1292 C 0.50104 0.605 0.74726 0.0
C1293 C 0.52844 0.64505 0.69476 0.0
C1294 C 0.53759 0.65723 0.64538 0.0
C1295 C 0.51018 0.61747 0.69831 0.0
C1296 C 0.52804 0.64149 0.59976 0.0
C1297 C 0.50989 0.61423 0.60292 0.0
H1298 H 0.379 0.86383 0.69937 0.0
H1299 H 0.37953 0.93793 0.67627 0.0
H1300 H 0.42589 0.96271 0.70413 0.0
H1301 H 0.467 0.96348 0.73287 0.0
H1302 H 0.46496 0.88879 0.75843 0.0
H1303 H 0.41842 0.86436 0.73284 0.0
C1304 C 0.38888 0.88535 0.70091 0.0
C1305 C 0.37542 0.89875 0.68491 0.0
C1306 C 0.4155 0.89955 0.71764 0.0
C1307 C 0.38921 0.92683 0.68714 0.0
C1308 C 0.41582 0.94113 0.70348 0.0
C1309 C 0.45632 0.94187 0.73326 0.0
C1310 C 0.4697 0.92811 0.74731 0.0
C1311 C 0.42928 0.92771 0.7184 0.0
C1312 C 0.45539 0.90005 0.74764 0.0
C1313 C 0.42868 0.88596 0.7329 0.0
loop_
_geom_bond_atom_site_label_1
_geom_bond_atom_site_label_2
_geom_bond_distance
_geom_bond_site_symmetry_2
_ccdc_geom_bond_type
Co0 N4 2.148 . S
Co0 N10 2.128 . S
Co0 N20 2.194 . S
Co0 O25 2.351 . S
Co0 O26 2.155 . S
Co0 O27 2.096 . S
C1 N4 1.301 . S
C1 N5 1.328 . S
C1 H6 0.930 . S
C2 C3 1.333 . S
C2 N4 1.317 . S
C2 H7 0.930 . S
C3 C2 1.333 . S
C3 N5 1.350 . S
C3 H29 0.931 1_554 S
N4 Co0 2.148 . S
N4 C1 1.301 . S
N4 C2 1.317 . S
N5 C1 1.328 . S
N5 C3 1.350 . S
H6 C1 0.930 . S
H7 C2 0.930 . S
C8 O9 1.224 . S
C8 O27 1.247 . S
O9 C8 1.224 . S
N10 Co0 2.128 . S
N10 C11 1.355 . S
N10 C13 1.311 . S
C11 N10 1.355 . S
C11 C12 1.363 . S
C11 H23 0.929 . S
C12 C11 1.363 . S
C12 N14 1.375 . S
C12 H30 0.931 . S
C13 N10 1.311 . S
C13 N14 1.347 . S
C13 H24 0.929 . S
N14 C12 1.375 . S
N14 C13 1.347 . S
C15 C18 1.365 . S
C15 N20 1.328 . S
C15 H21 0.929 . S
C16 C17 1.362 . S
C16 C19 1.378 1_556 S
C16 H31 0.929 . S
C17 C16 1.362 . S
C17 C18 1.366 1_556 S
C18 C15 1.365 . S
C18 C17 1.366 1_554 S
C18 H32 0.930 . S
C19 C16 1.378 1_554 S
C19 N20 1.315 . S
C19 H22 0.930 . S
N20 Co0 2.194 . S
N20 C15 1.328 . S
N20 C19 1.315 . S
H21 C15 0.929 . S
H22 C19 0.930 . S
H23 C11 0.929 . S
H24 C13 0.929 . S
O25 Co0 2.351 . S
O25 C28 1.244 . S
O26 Co0 2.155 . S
O26 C28 1.240 . S
O27 Co0 2.096 . S
O27 C8 1.247 . S
C28 O25 1.244 . S
C28 O26 1.240 . S
H29 C3 0.931 1_556 S
H30 C12 0.931 . S
H31 C16 0.929 . S
H32 C18 0.930 . S
Co33 N37 2.148 . S
Co33 N43 2.128 . S
Co33 N53 2.194 . S
Co33 O58 2.351 . S
Co33 O59 2.155 . S
Co33 O60 2.096 . S
C34 N37 1.315 . S
C34 N38 1.326 1_565 S
C34 H39 0.919 1_565 S
C35 C36 1.333 . S
C35 N37 1.317 . S
C35 H40 0.930 . S
C36 C35 1.333 . S
C36 N38 1.350 1_565 S
C36 H62 0.931 1_564 S
N37 Co33 2.148 . S
N37 C34 1.315 . S
N37 C35 1.317 . S
N38 C34 1.326 1_545 S
N38 C36 1.350 1_545 S
H39 C34 0.919 1_545 S
H40 C35 0.930 . S
C41 O42 1.224 . S
C41 O60 1.247 . S
O42 C41 1.224 . S
N43 Co33 2.128 . S
N43 C44 1.355 . S
N43 C46 1.311 . S
C44 N43 1.355 . S
C44 C45 1.363 . S
C44 H56 0.929 . S
C45 C44 1.363 . S
C45 N47 1.375 . S
C45 H63 0.931 . S
C46 N43 1.311 . S
C46 N47 1.347 . S
C46 H57 0.929 . S
N47 C45 1.375 . S
N47 C46 1.347 . S
C48 C51 1.365 . S
C48 N53 1.328 . S
C48 H54 0.929 . S
C49 C50 1.362 . S
C49 C52 1.378 1_556 S
C49 H64 0.929 . S
C50 C49 1.362 . S
C50 C51 1.366 1_556 S
C51 C48 1.365 . S
C51 C50 1.366 1_554 S
C51 H65 0.930 . S
C52 C49 1.378 1_554 S
C52 N53 1.315 . S
C52 H55 0.930 . S
N53 Co33 2.194 . S
N53 C48 1.328 . S
N53 C52 1.315 . S
H54 C48 0.929 . S
H55 C52 0.930 . S
H56 C44 0.929 . S
H57 C46 0.929 . S
O58 Co33 2.351 . S
O58 C61 1.244 . S
O59 Co33 2.155 . S
O59 C61 1.240 . S
O60 Co33 2.096 . S
O60 C41 1.247 . S
C61 O58 1.244 . S
C61 O59 1.240 . S
H62 C36 0.931 1_546 S
H63 C45 0.931 . S
H64 C49 0.929 . S
H65 C51 0.930 . S
Co66 N70 2.148 . S
Co66 N76 2.128 . S
Co66 N86 2.194 . S
Co66 O91 2.351 . S
Co66 O92 2.155 . S
Co66 O93 2.096 . S
C67 N70 1.310 . S
C67 N71 1.317 1_455 S
C67 H72 0.932 1_455 S
C68 C69 1.333 . S
C68 N70 1.317 . S
C68 H73 0.930 . S
C69 C68 1.333 . S
C69 N71 1.350 1_455 S
C69 H95 0.931 1_454 S
N70 Co66 2.148 . S
N70 C67 1.310 . S
N70 C68 1.317 . S
N71 C67 1.317 1_655 S
N71 C69 1.350 1_655 S
H72 C67 0.932 1_655 S
H73 C68 0.930 . S
C74 O75 1.224 . S
C74 O93 1.247 . S
O75 C74 1.224 . S
N76 Co66 2.128 . S
N76 C77 1.355 . S
N76 C79 1.311 . S
C77 N76 1.355 . S
C77 C78 1.363 . S
C77 H89 0.929 . S
C78 C77 1.363 . S
C78 N80 1.375 . S
C78 H96 0.931 . S
C79 N76 1.311 . S
C79 N80 1.347 . S
C79 H90 0.929 . S
N80 C78 1.375 . S
N80 C79 1.347 . S
C81 C84 1.365 . S
C81 N86 1.328 . S
C81 H87 0.929 . S
C82 C83 1.362 . S
C82 C85 1.378 1_556 S
C82 H97 0.929 . S
C83 C82 1.362 . S
C83 C84 1.366 1_556 S
C84 C81 1.365 . S
C84 C83 1.366 1_554 S
C84 H98 0.930 . S
C85 C82 1.378 1_554 S
C85 N86 1.315 . S
C85 H88 0.930 . S
N86 Co66 2.194 . S
N86 C81 1.328 . S
N86 C85 1.315 . S
H87 C81 0.929 . S
H88 C85 0.930 . S
H89 C77 0.929 . S
H90 C79 0.929 . S
O91 Co66 2.351 . S
O91 C94 1.244 . S
O92 Co66 2.155 . S
O92 C94 1.240 . S
O93 Co66 2.096 . S
O93 C74 1.247 . S
C94 O91 1.244 . S
C94 O92 1.240 . S
H95 C69 0.931 1_656 S
H96 C78 0.931 . S
H97 C82 0.929 . S
H98 C84 0.930 . S
Co99 N103 2.148 . S
Co99 N109 2.128 . S
Co99 N119 2.194 . S
Co99 O124 2.351 . S
Co99 O125 2.155 . S
Co99 O126 2.096 . S
C100 N103 1.301 . S
C100 N104 1.328 . S
C100 H105 0.930 . S
C101 C102 1.333 . S
C101 N103 1.317 . S
C101 H106 0.930 . S
C102 C101 1.333 . S
C102 N104 1.350 . S
C102 H128 0.931 1_556 S
N103 Co99 2.148 . S
N103 C100 1.301 . S
N103 C101 1.317 . S
N104 C100 1.328 . S
N104 C102 1.350 . S
H105 C100 0.930 . S
H106 C101 0.930 . S
C107 O108 1.224 . S
C107 O126 1.247 . S
O108 C107 1.224 . S
N109 Co99 2.128 . S
N109 C110 1.355 . S
N109 C112 1.311 . S
C110 N109 1.355 . S
C110 C111 1.363 . S
C110 H122 0.929 . S
C111 C110 1.363 . S
C111 N113 1.375 . S
C111 H129 0.931 . S
C112 N109 1.311 . S
C112 N113 1.347 . S
C112 H123 0.929 . S
N113 C111 1.375 . S
N113 C112 1.347 . S
C114 C117 1.365 . S
C114 N119 1.328 . S
C114 H120 0.929 . S
C115 C116 1.362 . S
C115 C118 1.378 1_554 S
C115 H130 0.929 . S
C116 C115 1.362 . S
C116 C117 1.366 1_554 S
C117 C114 1.365 . S
C117 C116 1.366 1_556 S
C117 H131 0.930 . S
C118 C115 1.378 1_556 S
C118 N119 1.315 . S
C118 H121 0.930 . S
N119 Co99 2.194 . S
N119 C114 1.328 . S
N119 C118 1.315 . S
H120 C114 0.929 . S
H121 C118 0.930 . S
H122 C110 0.929 . S
H123 C112 0.929 . S
O124 Co99 2.351 . S
O124 C127 1.244 . S
O125 Co99 2.155 . S
O125 C127 1.240 . S
O126 Co99 2.096 . S
O126 C107 1.247 . S
C127 O124 1.244 . S
C127 O125 1.240 . S
H128 C102 0.931 1_554 S
H129 C111 0.931 . S
H130 C115 0.929 . S
H131 C117 0.930 . S
Co132 N136 2.148 . S
Co132 N142 2.128 . S
Co132 N152 2.194 . S
Co132 O157 2.351 . S
Co132 O158 2.155 . S
Co132 O159 2.096 . S
C133 N136 1.315 . S
C133 N137 1.326 1_545 S
C133 H138 0.919 1_545 S
C134 C135 1.333 . S
C134 N136 1.317 . S
C134 H139 0.930 . S
C135 C134 1.333 . S
C135 N137 1.350 1_545 S
C135 H161 0.931 1_546 S
N136 Co132 2.148 . S
N136 C133 1.315 . S
N136 C134 1.317 . S
N137 C133 1.326 1_565 S
N137 C135 1.350 1_565 S
H138 C133 0.919 1_565 S
H139 C134 0.930 . S
C140 O141 1.224 . S
C140 O159 1.247 . S
O141 C140 1.224 . S
N142 Co132 2.128 . S
N142 C143 1.355 . S
N142 C145 1.311 . S
C143 N142 1.355 . S
C143 C144 1.363 . S
C143 H155 0.929 . S
C144 C143 1.363 . S
C144 N146 1.375 . S
C144 H162 0.931 . S
C145 N142 1.311 . S
C145 N146 1.347 . S
C145 H156 0.929 . S
N146 C144 1.375 . S
N146 C145 1.347 . S
C147 C150 1.365 . S
C147 N152 1.328 . S
C147 H153 0.929 . S
C148 C149 1.362 . S
C148 C151 1.378 1_554 S
C148 H163 0.929 . S
C149 C148 1.362 . S
C149 C150 1.366 1_554 S
C150 C147 1.365 . S
C150 C149 1.366 1_556 S
C150 H164 0.930 . S
C151 C148 1.378 1_556 S
C151 N152 1.315 . S
C151 H154 0.930 . S
N152 Co132 2.194 . S
N152 C147 1.328 . S
N152 C151 1.315 . S
H153 C147 0.929 . S
H154 C151 0.930 . S
H155 C143 0.929 . S
H156 C145 0.929 . S
O157 Co132 2.351 . S
O157 C160 1.244 . S
O158 Co132 2.155 . S
O158 C160 1.240 . S
O159 Co132 2.096 . S
O159 C140 1.247 . S
C160 O157 1.244 . S
C160 O158 1.240 . S
H161 C135 0.931 1_564 S
H162 C144 0.931 . S
H163 C148 0.929 . S
H164 C150 0.930 . S
Co165 N169 2.148 . S
Co165 N175 2.128 . S
Co165 N185 2.194 . S
Co165 O190 2.351 . S
Co165 O191 2.155 . S
Co165 O192 2.096 . S
C166 N169 1.310 . S
C166 N170 1.317 1_655 S
C166 H171 0.932 1_655 S
C167 C168 1.333 . S
C167 N169 1.317 . S
C167 H172 0.930 . S
C168 C167 1.333 . S
C168 N170 1.350 1_655 S
C168 H194 0.931 1_656 S
N169 Co165 2.148 . S
N169 C166 1.310 . S
N169 C167 1.317 . S
N170 C166 1.317 1_455 S
N170 C168 1.350 1_455 S
H171 C166 0.932 1_455 S
H172 C167 0.930 . S
C173 O174 1.224 . S
C173 O192 1.247 . S
O174 C173 1.224 . S
N175 Co165 2.128 . S
N175 C176 1.355 . S
N175 C178 1.311 . S
C176 N175 1.355 . S
C176 C177 1.363 . S
C176 H188 0.929 . S
C177 C176 1.363 . S
C177 N179 1.375 . S
C177 H195 0.931 . S
C178 N175 1.311 . S
C178 N179 1.347 . S
C178 H189 0.929 . S
N179 C177 1.375 . S
N179 C178 1.347 . S
C180 C183 1.365 . S
C180 N185 1.328 . S
C180 H186 0.929 . S
C181 C182 1.362 . S
C181 C184 1.378 1_554 S
C181 H196 0.929 . S
C182 C181 1.362 . S
C182 C183 1.366 1_554 S
C183 C180 1.365 . S
C183 C182 1.366 1_556 S
C183 H197 0.930 . S
C184 C181 1.378 1_556 S
C184 N185 1.315 . S
C184 H187 0.930 . S
N185 Co165 2.194 . S
N185 C180 1.328 . S
N185 C184 1.315 . S
H186 C180 0.929 . S
H187 C184 0.930 . S
H188 C176 0.929 . S
H189 C178 0.929 . S
O190 Co165 2.351 . S
O190 C193 1.244 . S
O191 Co165 2.155 . S
O191 C193 1.240 . S
O192 Co165 2.096 . S
O192 C173 1.247 . S
C193 O190 1.244 . S
C193 O191 1.240 . S
H194 C168 0.931 1_454 S
H195 C177 0.931 . S
H196 C181 0.929 . S
H197 C183 0.930 . S
Co198 N202 2.148 . S
Co198 N208 2.128 . S
Co198 N218 2.194 . S
Co198 O223 2.351 . S
Co198 O224 2.155 . S
Co198 O225 2.096 . S
C199 N202 1.301 . S
C199 N203 1.328 . S
C199 H204 0.930 . S
C200 C201 1.333 . S
C200 N202 1.317 . S
C200 H205 0.930 . S
C201 C200 1.333 . S
C201 N203 1.350 . S
C201 H227 0.931 . S
N202 Co198 2.148 . S
N202 C199 1.301 . S
N202 C200 1.317 . S
N203 C199 1.328 . S
N203 C201 1.350 . S
H204 C199 0.930 . S
H205 C200 0.930 . S
C206 O207 1.224 . S
C206 O225 1.247 . S
O207 C206 1.224 . S
N208 Co198 2.128 . S
N208 C209 1.355 . S
N208 C211 1.311 . S
C209 N208 1.355 . S
C209 C210 1.363 . S
C209 H221 0.929 . S
C210 C209 1.363 . S
C210 N212 1.375 . S
C210 H228 0.931 . S
C211 N208 1.311 . S
C211 N212 1.347 . S
C211 H222 0.929 . S
N212 C210 1.375 . S
N212 C211 1.347 . S
C213 C216 1.365 . S
C213 N218 1.328 . S
C213 H219 0.929 . S
C214 C215 1.362 . S
C214 C217 1.378 . S
C214 H229 0.929 . S
C215 C214 1.362 . S
C215 C216 1.366 . S
C216 C213 1.365 . S
C216 C215 1.366 . S
C216 H230 0.930 . S
C217 C214 1.378 . S
C217 N218 1.315 . S
C217 H220 0.930 . S
N218 Co198 2.194 . S
N218 C213 1.328 . S
N218 C217 1.315 . S
H219 C213 0.929 . S
H220 C217 0.930 . S
H221 C209 0.929 . S
H222 C211 0.929 . S
O223 Co198 2.351 . S
O223 C226 1.244 . S
O224 Co198 2.155 . S
O224 C226 1.240 . S
O225 Co198 2.096 . S
O225 C206 1.247 . S
C226 O223 1.244 . S
C226 O224 1.240 . S
H227 C201 0.931 . S
H228 C210 0.931 . S
H229 C214 0.929 . S
H230 C216 0.930 . S
Co231 N235 2.148 . S
Co231 N241 2.128 . S
Co231 N251 2.194 . S
Co231 O256 2.351 . S
Co231 O257 2.155 . S
Co231 O258 2.096 . S
C232 N235 1.301 . S
C232 N236 1.328 . S
C232 H237 0.930 . S
C233 C234 1.333 . S
C233 N235 1.317 . S
C233 H238 0.930 . S
C234 C233 1.333 . S
C234 N236 1.350 . S
C234 H260 0.931 . S
N235 Co231 2.148 . S
N235 C232 1.301 . S
N235 C233 1.317 . S
N236 C232 1.328 . S
N236 C234 1.350 . S
H237 C232 0.930 . S
H238 C233 0.930 . S
C239 O240 1.224 . S
C239 O258 1.247 . S
O240 C239 1.224 . S
N241 Co231 2.128 . S
N241 C242 1.355 . S
N241 C244 1.311 . S
C242 N241 1.355 . S
C242 C243 1.363 . S
C242 H254 0.929 . S
C243 C242 1.363 . S
C243 N245 1.375 . S
C243 H261 0.931 . S
C244 N241 1.311 . S
C244 N245 1.347 . S
C244 H255 0.929 . S
N245 C243 1.375 . S
N245 C244 1.347 . S
C246 C249 1.365 . S
C246 N251 1.328 . S
C246 H252 0.929 . S
C247 C248 1.362 . S
C247 C250 1.378 . S
C247 H262 0.929 . S
C248 C247 1.362 . S
C248 C249 1.366 . S
C249 C246 1.365 . S
C249 C248 1.366 . S
C249 H263 0.930 . S
C250 C247 1.378 . S
C250 N251 1.315 . S
C250 H253 0.930 . S
N251 Co231 2.194 . S
N251 C246 1.328 . S
N251 C250 1.315 . S
H252 C246 0.929 . S
H253 C250 0.930 . S
H254 C242 0.929 . S
H255 C244 0.929 . S
O256 Co231 2.351 . S
O256 C259 1.244 . S
O257 Co231 2.155 . S
O257 C259 1.240 . S
O258 Co231 2.096 . S
O258 C239 1.247 . S
C259 O256 1.244 . S
C259 O257 1.240 . S
H260 C234 0.931 . S
H261 C243 0.931 . S
H262 C247 0.929 . S
H263 C249 0.930 . S
Co264 N268 2.148 . S
Co264 N274 2.128 . S
Co264 N284 2.194 . S
Co264 O289 2.351 . S
Co264 O290 2.155 . S
Co264 O291 2.096 . S
C265 N268 1.301 . S
C265 N269 1.328 . S
C265 H270 0.930 . S
C266 C267 1.333 . S
C266 N268 1.317 . S
C266 H271 0.930 . S
C267 C266 1.333 . S
C267 N269 1.350 . S
C267 H293 0.931 . S
N268 Co264 2.148 . S
N268 C265 1.301 . S
N268 C266 1.317 . S
N269 C265 1.328 . S
N269 C267 1.350 . S
H270 C265 0.930 . S
H271 C266 0.930 . S
C272 O273 1.224 . S
C272 O291 1.247 . S
O273 C272 1.224 . S
N274 Co264 2.128 . S
N274 C275 1.355 . S
N274 C277 1.311 . S
C275 N274 1.355 . S
C275 C276 1.363 . S
C275 H287 0.929 . S
C276 C275 1.363 . S
C276 N278 1.375 . S
C276 H294 0.931 . S
C277 N274 1.311 . S
C277 N278 1.347 . S
C277 H288 0.929 . S
N278 C276 1.375 . S
N278 C277 1.347 . S
C279 C282 1.365 . S
C279 N284 1.328 . S
C279 H285 0.929 . S
C280 C281 1.362 . S
C280 C283 1.378 . S
C280 H295 0.929 . S
C281 C280 1.362 . S
C281 C282 1.366 . S
C282 C279 1.365 . S
C282 C281 1.366 . S
C282 H296 0.930 . S
C283 C280 1.378 . S
C283 N284 1.315 . S
C283 H286 0.930 . S
N284 Co264 2.194 . S
N284 C279 1.328 . S
N284 C283 1.315 . S
H285 C279 0.929 . S
H286 C283 0.930 . S
H287 C275 0.929 . S
H288 C277 0.929 . S
O289 Co264 2.351 . S
O289 C292 1.244 . S
O290 Co264 2.155 . S
O290 C292 1.240 . S
O291 Co264 2.096 . S
O291 C272 1.247 . S
C292 O289 1.244 . S
C292 O290 1.240 . S
H293 C267 0.931 . S
H294 C276 0.931 . S
H295 C280 0.929 . S
H296 C282 0.930 . S
Co297 N301 2.148 . S
Co297 N307 2.128 . S
Co297 N317 2.194 . S
Co297 O322 2.351 . S
Co297 O323 2.155 . S
Co297 O324 2.096 . S
C298 N301 1.301 . S
C298 N302 1.328 . S
C298 H303 0.930 . S
C299 C300 1.333 . S
C299 N301 1.317 . S
C299 H304 0.930 . S
C300 C299 1.333 . S
C300 N302 1.350 . S
C300 H326 0.931 . S
N301 Co297 2.148 . S
N301 C298 1.301 . S
N301 C299 1.317 . S
N302 C298 1.328 . S
N302 C300 1.350 . S
H303 C298 0.930 . S
H304 C299 0.930 . S
C305 O306 1.224 . S
C305 O324 1.247 . S
O306 C305 1.224 . S
N307 Co297 2.128 . S
N307 C308 1.355 . S
N307 C310 1.311 . S
C308 N307 1.355 . S
C308 C309 1.363 . S
C308 H320 0.929 . S
C309 C308 1.363 . S
C309 N311 1.375 . S
C309 H327 0.931 1_545 S
C310 N307 1.311 . S
C310 N311 1.347 . S
C310 H321 0.929 . S
N311 C309 1.375 . S
N311 C310 1.347 . S
C312 C315 1.365 . S
C312 N317 1.328 . S
C312 H318 0.929 . S
C313 C314 1.362 . S
C313 C316 1.378 . S
C313 H328 0.929 . S
C314 C313 1.362 . S
C314 C315 1.366 . S
C315 C312 1.365 . S
C315 C314 1.366 . S
C315 H329 0.930 . S
C316 C313 1.378 . S
C316 N317 1.315 . S
C316 H319 0.930 . S
N317 Co297 2.194 . S
N317 C312 1.328 . S
N317 C316 1.315 . S
H318 C312 0.929 . S
H319 C316 0.930 . S
H320 C308 0.929 . S
H321 C310 0.929 . S
O322 Co297 2.351 . S
O322 C325 1.244 . S
O323 Co297 2.155 . S
O323 C325 1.240 . S
O324 Co297 2.096 . S
O324 C305 1.247 . S
C325 O322 1.244 . S
C325 O323 1.240 . S
H326 C300 0.931 . S
H327 C309 0.931 1_565 S
H328 C313 0.929 . S
H329 C315 0.930 . S
Co330 N334 2.148 . S
Co330 N340 2.128 . S
Co330 N350 2.194 . S
Co330 O355 2.351 . S
Co330 O356 2.155 . S
Co330 O357 2.096 . S
C331 N334 1.301 . S
C331 N335 1.328 . S
C331 H336 0.930 . S
C332 C333 1.333 . S
C332 N334 1.317 . S
C332 H337 0.930 . S
C333 C332 1.333 . S
C333 N335 1.350 . S
C333 H359 0.931 . S
N334 Co330 2.148 . S
N334 C331 1.301 . S
N334 C332 1.317 . S
N335 C331 1.328 . S
N335 C333 1.350 . S
H336 C331 0.930 . S
H337 C332 0.930 . S
C338 O339 1.224 . S
C338 O357 1.247 . S
O339 C338 1.224 . S
N340 Co330 2.128 . S
N340 C341 1.355 . S
N340 C343 1.311 . S
C341 N340 1.355 . S
C341 C342 1.363 . S
C341 H353 0.929 . S
C342 C341 1.363 . S
C342 N344 1.375 . S
C342 H360 0.931 1_655 S
C343 N340 1.311 . S
C343 N344 1.347 . S
C343 H354 0.929 . S
N344 C342 1.375 . S
N344 C343 1.347 . S
C345 C348 1.365 . S
C345 N350 1.328 . S
C345 H351 0.929 . S
C346 C347 1.362 . S
C346 C349 1.378 . S
C346 H361 0.929 . S
C347 C346 1.362 . S
C347 C348 1.366 . S
C348 C345 1.365 . S
C348 C347 1.366 . S
C348 H362 0.930 . S
C349 C346 1.378 . S
C349 N350 1.315 . S
C349 H352 0.930 . S
N350 Co330 2.194 . S
N350 C345 1.328 . S
N350 C349 1.315 . S
H351 C345 0.929 . S
H352 C349 0.930 . S
H353 C341 0.929 . S
H354 C343 0.929 . S
O355 Co330 2.351 . S
O355 C358 1.244 . S
O356 Co330 2.155 . S
O356 C358 1.240 . S
O357 Co330 2.096 . S
O357 C338 1.247 . S
C358 O355 1.244 . S
C358 O356 1.240 . S
H359 C333 0.931 . S
H360 C342 0.931 1_455 S
H361 C346 0.929 . S
H362 C348 0.930 . S
Co363 N367 2.148 . S
Co363 N373 2.128 . S
Co363 N383 2.194 . S
Co363 O388 2.351 . S
Co363 O389 2.155 . S
Co363 O390 2.096 . S
C364 N367 1.301 . S
C364 N368 1.328 . S
C364 H369 0.930 . S
C365 C366 1.333 . S
C365 N367 1.317 . S
C365 H370 0.930 . S
C366 C365 1.333 . S
C366 N368 1.350 . S
C366 H392 0.931 . S
N367 Co363 2.148 . S
N367 C364 1.301 . S
N367 C365 1.317 . S
N368 C364 1.328 . S
N368 C366 1.350 . S
H369 C364 0.930 . S
H370 C365 0.930 . S
C371 O372 1.224 . S
C371 O390 1.247 . S
O372 C371 1.224 . S
N373 Co363 2.128 . S
N373 C374 1.355 . S
N373 C376 1.311 . S
C374 N373 1.355 . S
C374 C375 1.363 . S
C374 H386 0.929 . S
C375 C374 1.363 . S
C375 N377 1.375 . S
C375 H393 0.931 . S
C376 N373 1.311 . S
C376 N377 1.347 . S
C376 H387 0.929 . S
N377 C375 1.375 . S
N377 C376 1.347 . S
C378 C381 1.365 . S
C378 N383 1.328 . S
C378 H384 0.929 . S
C379 C380 1.362 . S
C379 C382 1.378 . S
C379 H394 0.929 . S
C380 C379 1.362 . S
C380 C381 1.366 . S
C381 C378 1.365 . S
C381 C380 1.366 . S
C381 H395 0.930 . S
C382 C379 1.378 . S
C382 N383 1.315 . S
C382 H385 0.930 . S
N383 Co363 2.194 . S
N383 C378 1.328 . S
N383 C382 1.315 . S
H384 C378 0.929 . S
H385 C382 0.930 . S
H386 C374 0.929 . S
H387 C376 0.929 . S
O388 Co363 2.351 . S
O388 C391 1.244 . S
O389 Co363 2.155 . S
O389 C391 1.240 . S
O390 Co363 2.096 . S
O390 C371 1.247 . S
C391 O388 1.244 . S
C391 O389 1.240 . S
H392 C366 0.931 . S
H393 C375 0.931 . S
H394 C379 0.929 . S
H395 C381 0.930 . S
Co396 N400 2.148 . S
Co396 N406 2.128 . S
Co396 N416 2.194 . S
Co396 O421 2.351 . S
Co396 O422 2.155 . S
Co396 O423 2.096 . S
C397 N400 1.301 . S
C397 N401 1.328 . S
C397 H402 0.930 . S
C398 C399 1.333 . S
C398 N400 1.317 . S
C398 H403 0.930 . S
C399 C398 1.333 . S
C399 N401 1.350 . S
C399 H425 0.931 . S
N400 Co396 2.148 . S
N400 C397 1.301 . S
N400 C398 1.317 . S
N401 C397 1.328 . S
N401 C399 1.350 . S
H402 C397 0.930 . S
H403 C398 0.930 . S
C404 O405 1.224 . S
C404 O423 1.247 . S
O405 C404 1.224 . S
N406 Co396 2.128 . S
N406 C407 1.355 . S
N406 C409 1.311 . S
C407 N406 1.355 . S
C407 C408 1.363 . S
C407 H419 0.929 . S
C408 C407 1.363 . S
C408 N410 1.375 . S
C408 H426 0.931 1_565 S
C409 N406 1.311 . S
C409 N410 1.347 . S
C409 H420 0.929 . S
N410 C408 1.375 . S
N410 C409 1.347 . S
C411 C414 1.365 . S
C411 N416 1.328 . S
C411 H417 0.929 . S
C412 C413 1.362 . S
C412 C415 1.378 . S
C412 H427 0.929 . S
C413 C412 1.362 . S
C413 C414 1.366 . S
C414 C411 1.365 . S
C414 C413 1.366 . S
C414 H428 0.930 . S
C415 C412 1.378 . S
C415 N416 1.315 . S
C415 H418 0.930 . S
N416 Co396 2.194 . S
N416 C411 1.328 . S
N416 C415 1.315 . S
H417 C411 0.929 . S
H418 C415 0.930 . S
H419 C407 0.929 . S
H420 C409 0.929 . S
O421 Co396 2.351 . S
O421 C424 1.244 . S
O422 Co396 2.155 . S
O422 C424 1.240 . S
O423 Co396 2.096 . S
O423 C404 1.247 . S
C424 O421 1.244 . S
C424 O422 1.240 . S
H425 C399 0.931 . S
H426 C408 0.931 1_545 S
H427 C412 0.929 . S
H428 C414 0.930 . S
Co429 N433 2.148 . S
Co429 N439 2.128 . S
Co429 N449 2.194 . S
Co429 O454 2.351 . S
Co429 O455 2.155 . S
Co429 O456 2.096 . S
C430 N433 1.301 . S
C430 N434 1.328 . S
C430 H435 0.930 . S
C431 C432 1.333 . S
C431 N433 1.317 . S
C431 H436 0.930 . S
C432 C431 1.333 . S
C432 N434 1.350 . S
C432 H458 0.931 . S
N433 Co429 2.148 . S
N433 C430 1.301 . S
N433 C431 1.317 . S
N434 C430 1.328 . S
N434 C432 1.350 . S
H435 C430 0.930 . S
H436 C431 0.930 . S
C437 O438 1.224 . S
C437 O456 1.247 . S
O438 C437 1.224 . S
N439 Co429 2.128 . S
N439 C440 1.355 . S
N439 C442 1.311 . S
C440 N439 1.355 . S
C440 C441 1.363 . S
C440 H452 0.929 . S
C441 C440 1.363 . S
C441 N443 1.375 . S
C441 H459 0.931 1_455 S
C442 N439 1.311 . S
C442 N443 1.347 . S
C442 H453 0.929 . S
N443 C441 1.375 . S
N443 C442 1.347 . S
C444 C447 1.365 . S
C444 N449 1.328 . S
C444 H450 0.929 . S
C445 C446 1.362 . S
C445 C448 1.378 . S
C445 H460 0.929 . S
C446 C445 1.362 . S
C446 C447 1.366 . S
C447 C444 1.365 . S
C447 C446 1.366 . S
C447 H461 0.930 . S
C448 C445 1.378 . S
C448 N449 1.315 . S
C448 H451 0.930 . S
N449 Co429 2.194 . S
N449 C444 1.328 . S
N449 C448 1.315 . S
H450 C444 0.929 . S
H451 C448 0.930 . S
H452 C440 0.929 . S
H453 C442 0.929 . S
O454 Co429 2.351 . S
O454 C457 1.244 . S
O455 Co429 2.155 . S
O455 C457 1.240 . S
O456 Co429 2.096 . S
O456 C437 1.247 . S
C457 O454 1.244 . S
C457 O455 1.240 . S
H458 C432 0.931 . S
H459 C441 0.931 1_655 S
H460 C445 0.929 . S
H461 C447 0.930 . S
Co462 N466 2.148 . S
Co462 N472 2.128 . S
Co462 N482 2.194 . S
Co462 O487 2.351 . S
Co462 O488 2.155 . S
Co462 O489 2.096 . S
C463 N466 1.301 . S
C463 N467 1.328 . S
C463 H468 0.930 . S
C464 C465 1.333 . S
C464 N466 1.317 . S
C464 H469 0.930 . S
C465 C464 1.333 . S
C465 N467 1.350 . S
C465 H491 0.931 . S
N466 Co462 2.148 . S
N466 C463 1.301 . S
N466 C464 1.317 . S
N467 C463 1.328 . S
N467 C465 1.350 . S
H468 C463 0.930 . S
H469 C464 0.930 . S
C470 O471 1.224 . S
C470 O489 1.247 . S
O471 C470 1.224 . S
N472 Co462 2.128 . S
N472 C473 1.355 . S
N472 C475 1.311 . S
C473 N472 1.355 . S
C473 C474 1.363 . S
C473 H485 0.929 . S
C474 C473 1.363 . S
C474 N476 1.375 . S
C474 H492 0.931 . S
C475 N472 1.311 . S
C475 N476 1.347 . S
C475 H486 0.929 . S
N476 C474 1.375 . S
N476 C475 1.347 . S
C477 C480 1.365 . S
C477 N482 1.328 . S
C477 H483 0.929 . S
C478 C479 1.362 . S
C478 C481 1.378 . S
C478 H493 0.929 . S
C479 C478 1.362 . S
C479 C480 1.366 . S
C480 C477 1.365 . S
C480 C479 1.366 . S
C480 H494 0.930 . S
C481 C478 1.378 . S
C481 N482 1.315 . S
C481 H484 0.930 . S
N482 Co462 2.194 . S
N482 C477 1.328 . S
N482 C481 1.315 . S
H483 C477 0.929 . S
H484 C481 0.930 . S
H485 C473 0.929 . S
H486 C475 0.929 . S
O487 Co462 2.351 . S
O487 C490 1.244 . S
O488 Co462 2.155 . S
O488 C490 1.240 . S
O489 Co462 2.096 . S
O489 C470 1.247 . S
C490 O487 1.244 . S
C490 O488 1.240 . S
H491 C465 0.931 . S
H492 C474 0.931 . S
H493 C478 0.929 . S
H494 C480 0.930 . S
Co495 N499 2.148 . S
Co495 N505 2.128 . S
Co495 N515 2.194 . S
Co495 O520 2.351 . S
Co495 O521 2.155 . S
Co495 O522 2.096 . S
C496 N499 1.301 . S
C496 N500 1.328 . S
C496 H501 0.930 . S
C497 C498 1.333 . S
C497 N499 1.317 . S
C497 H502 0.930 . S
C498 C497 1.333 . S
C498 N500 1.350 . S
C498 H524 0.931 . S
N499 Co495 2.148 . S
N499 C496 1.301 . S
N499 C497 1.317 . S
N500 C496 1.328 . S
N500 C498 1.350 . S
H501 C496 0.930 . S
H502 C497 0.930 . S
C503 O504 1.224 . S
C503 O522 1.247 . S
O504 C503 1.224 . S
N505 Co495 2.128 . S
N505 C506 1.355 . S
N505 C508 1.311 . S
C506 N505 1.355 . S
C506 C507 1.363 . S
C506 H518 0.929 . S
C507 C506 1.363 . S
C507 N509 1.375 . S
C507 H525 0.931 . S
C508 N505 1.311 . S
C508 N509 1.347 . S
C508 H519 0.929 . S
N509 C507 1.375 . S
N509 C508 1.347 . S
C510 C513 1.365 . S
C510 N515 1.328 . S
C510 H516 0.929 . S
C511 C512 1.362 . S
C511 C514 1.378 . S
C511 H526 0.929 . S
C512 C511 1.362 . S
C512 C513 1.366 . S
C513 C510 1.365 . S
C513 C512 1.366 . S
C513 H527 0.930 . S
C514 C511 1.378 . S
C514 N515 1.315 . S
C514 H517 0.930 . S
N515 Co495 2.194 . S
N515 C510 1.328 . S
N515 C514 1.315 . S
H516 C510 0.929 . S
H517 C514 0.930 . S
H518 C506 0.929 . S
H519 C508 0.929 . S
O520 Co495 2.351 . S
O520 C523 1.244 . S
O521 Co495 2.155 . S
O521 C523 1.240 . S
O522 Co495 2.096 . S
O522 C503 1.247 . S
C523 O520 1.244 . S
C523 O521 1.240 . S
H524 C498 0.931 . S
H525 C507 0.931 . S
H526 C511 0.929 . S
H527 C513 0.930 . S
Co528 N532 2.148 . S
Co528 N538 2.128 . S
Co528 N548 2.194 . S
Co528 O553 2.351 . S
Co528 O554 2.155 . S
Co528 O555 2.096 . S
C529 N532 1.301 . S
C529 N533 1.328 . S
C529 H534 0.930 . S
C530 C531 1.333 . S
C530 N532 1.317 . S
C530 H535 0.930 . S
C531 C530 1.333 . S
C531 N533 1.350 . S
C531 H557 0.931 . S
N532 Co528 2.148 . S
N532 C529 1.301 . S
N532 C530 1.317 . S
N533 C529 1.328 . S
N533 C531 1.350 . S
H534 C529 0.930 . S
H535 C530 0.930 . S
C536 O537 1.224 . S
C536 O555 1.247 . S
O537 C536 1.224 . S
N538 Co528 2.128 . S
N538 C539 1.355 . S
N538 C541 1.311 . S
C539 N538 1.355 . S
C539 C540 1.363 . S
C539 H551 0.929 . S
C540 C539 1.363 . S
C540 N542 1.375 . S
C540 H558 0.931 . S
C541 N538 1.311 . S
C541 N542 1.347 . S
C541 H552 0.929 . S
N542 C540 1.375 . S
N542 C541 1.347 . S
C543 C546 1.365 . S
C543 N548 1.328 . S
C543 H549 0.929 . S
C544 C545 1.362 . S
C544 C547 1.378 . S
C544 H559 0.929 . S
C545 C544 1.362 . S
C545 C546 1.366 . S
C546 C543 1.365 . S
C546 C545 1.366 . S
C546 H560 0.930 . S
C547 C544 1.378 . S
C547 N548 1.315 . S
C547 H550 0.930 . S
N548 Co528 2.194 . S
N548 C543 1.328 . S
N548 C547 1.315 . S
H549 C543 0.929 . S
H550 C547 0.930 . S
H551 C539 0.929 . S
H552 C541 0.929 . S
O553 Co528 2.351 . S
O553 C556 1.244 . S
O554 Co528 2.155 . S
O554 C556 1.240 . S
O555 Co528 2.096 . S
O555 C536 1.247 . S
C556 O553 1.244 . S
C556 O554 1.240 . S
H557 C531 0.931 . S
H558 C540 0.931 . S
H559 C544 0.929 . S
H560 C546 0.930 . S
Co561 N565 2.148 . S
Co561 N571 2.128 . S
Co561 N581 2.194 . S
Co561 O586 2.351 . S
Co561 O587 2.155 . S
Co561 O588 2.096 . S
C562 N565 1.301 . S
C562 N566 1.328 . S
C562 H567 0.930 . S
C563 C564 1.333 . S
C563 N565 1.317 . S
C563 H568 0.930 . S
C564 C563 1.333 . S
C564 N566 1.350 . S
C564 H590 0.931 . S
N565 Co561 2.148 . S
N565 C562 1.301 . S
N565 C563 1.317 . S
N566 C562 1.328 . S
N566 C564 1.350 . S
H567 C562 0.930 . S
H568 C563 0.930 . S
C569 O570 1.224 . S
C569 O588 1.247 . S
O570 C569 1.224 . S
N571 Co561 2.128 . S
N571 C572 1.355 . S
N571 C574 1.311 . S
C572 N571 1.355 . S
C572 C573 1.363 . S
C572 H584 0.929 . S
C573 C572 1.363 . S
C573 N575 1.375 . S
C573 H591 0.931 . S
C574 N571 1.311 . S
C574 N575 1.347 . S
C574 H585 0.929 . S
N575 C573 1.375 . S
N575 C574 1.347 . S
C576 C579 1.365 . S
C576 N581 1.328 . S
C576 H582 0.929 . S
C577 C578 1.362 . S
C577 C580 1.378 . S
C577 H592 0.929 . S
C578 C577 1.362 . S
C578 C579 1.366 . S
C579 C576 1.365 . S
C579 C578 1.366 . S
C579 H593 0.930 . S
C580 C577 1.378 . S
C580 N581 1.315 . S
C580 H583 0.930 . S
N581 Co561 2.194 . S
N581 C576 1.328 . S
N581 C580 1.315 . S
H582 C576 0.929 . S
H583 C580 0.930 . S
H584 C572 0.929 . S
H585 C574 0.929 . S
O586 Co561 2.351 . S
O586 C589 1.244 . S
O587 Co561 2.155 . S
O587 C589 1.240 . S
O588 Co561 2.096 . S
O588 C569 1.247 . S
C589 O586 1.244 . S
C589 O587 1.240 . S
H590 C564 0.931 . S
H591 C573 0.931 . S
H592 C577 0.929 . S
H593 C579 0.930 . S
H594 C600 0.930 . S
H595 C603 0.930 . S
H596 C604 0.930 . S
H597 C605 0.930 . S
H598 C608 0.930 . S
H599 C609 0.930 . S
C600 H594 0.930 . S
C600 C601 1.355 . S
C600 C602 1.415 . S
C601 C600 1.355 . S
C601 C603 1.419 . S
C602 C600 1.415 . S
C602 C607 1.425 . S
C602 C609 1.409 . S
C603 H595 0.930 . S
C603 C601 1.419 . S
C603 C604 1.362 . S
C604 H596 0.930 . S
C604 C603 1.362 . S
C604 C607 1.409 . S
C605 H597 0.930 . S
C605 C606 1.355 . S
C605 C607 1.415 . S
C606 C605 1.355 . S
C606 C608 1.419 . S
C607 C602 1.425 . S
C607 C604 1.409 . S
C607 C605 1.415 . S
C608 H598 0.930 . S
C608 C606 1.419 . S
C608 C609 1.362 . S
C609 H599 0.930 . S
C609 C602 1.409 . S
C609 C608 1.362 . S
H610 C616 0.930 . S
H611 C619 0.921 1_565 S
H612 C620 0.930 . S
H613 C621 0.930 . S
H614 C624 0.930 . S
H615 C625 0.930 . S
C616 H610 0.930 . S
C616 C617 1.355 1_545 S
C616 C618 1.415 . S
C617 C616 1.355 1_565 S
C617 C619 1.409 1_565 S
C618 C616 1.415 . S
C618 C623 1.425 . S
C618 C625 1.409 . S
C619 H611 0.921 1_545 S
C619 C617 1.409 1_545 S
C619 C620 1.382 . S
C620 H612 0.930 . S
C620 C619 1.382 . S
C620 C623 1.409 . S
C621 H613 0.930 . S
C621 C622 1.355 . S
C621 C623 1.415 . S
C622 C621 1.355 . S
C622 C624 1.419 . S
C623 C618 1.425 . S
C623 C620 1.409 . S
C623 C621 1.415 . S
C624 H614 0.930 . S
C624 C622 1.419 . S
C624 C625 1.362 . S
C625 H615 0.930 . S
C625 C618 1.409 . S
C625 C624 1.362 . S
H626 C632 0.930 . S
H627 C635 0.930 . S
H628 C636 0.965 . S
H629 C637 0.930 . S
H630 C640 0.930 . S
H631 C641 0.930 . S
C632 H626 0.930 . S
C632 C633 1.355 1_655 S
C632 C634 1.415 . S
C633 C632 1.355 1_455 S
C633 C635 1.419 . S
C634 C632 1.415 . S
C634 C639 1.425 . S
C634 C641 1.409 . S
C635 H627 0.930 . S
C635 C633 1.419 . S
C635 C636 1.367 . S
C636 H628 0.965 . S
C636 C635 1.367 . S
C636 C639 1.371 1_455 S
C637 H629 0.930 . S
C637 C638 1.355 . S
C637 C639 1.415 . S
C638 C637 1.355 . S
C638 C640 1.419 . S
C639 C634 1.425 . S
C639 C636 1.371 1_655 S
C639 C637 1.415 . S
C640 H630 0.930 . S
C640 C638 1.419 . S
C640 C641 1.362 . S
C641 H631 0.930 . S
C641 C634 1.409 . S
C641 C640 1.362 . S
H642 C648 0.930 . S
H643 C651 0.930 . S
H644 C652 0.930 . S
H645 C653 0.930 . S
H646 C656 0.930 . S
H647 C657 0.930 . S
C648 H642 0.930 . S
C648 C649 1.355 . S
C648 C650 1.415 . S
C649 C648 1.355 . S
C649 C651 1.419 . S
C650 C648 1.415 . S
C650 C655 1.425 . S
C650 C657 1.409 . S
C651 H643 0.930 . S
C651 C649 1.419 . S
C651 C652 1.362 . S
C652 H644 0.930 . S
C652 C651 1.362 . S
C652 C655 1.409 . S
C653 H645 0.930 . S
C653 C654 1.355 . S
C653 C655 1.415 . S
C654 C653 1.355 . S
C654 C656 1.419 . S
C655 C650 1.425 . S
C655 C652 1.409 . S
C655 C653 1.415 . S
C656 H646 0.930 . S
C656 C654 1.419 . S
C656 C657 1.362 . S
C657 H647 0.930 . S
C657 C650 1.409 . S
C657 C656 1.362 . S
H658 C664 0.930 . S
H659 C667 0.930 1_545 S
H660 C668 0.930 . S
H661 C669 0.930 . S
H662 C672 0.930 . S
H663 C673 0.930 . S
C664 H658 0.930 . S
C664 C665 1.355 1_565 S
C664 C666 1.415 . S
C665 C664 1.355 1_545 S
C665 C667 1.419 1_545 S
C666 C664 1.415 . S
C666 C671 1.425 . S
C666 C673 1.409 . S
C667 H659 0.930 1_565 S
C667 C665 1.419 1_565 S
C667 C668 1.362 . S
C668 H660 0.930 . S
C668 C667 1.362 . S
C668 C671 1.409 . S
C669 H661 0.930 . S
C669 C670 1.355 . S
C669 C671 1.415 . S
C670 C669 1.355 . S
C670 C672 1.419 . S
C671 C666 1.425 . S
C671 C668 1.409 . S
C671 C669 1.415 . S
C672 H662 0.930 . S
C672 C670 1.419 . S
C672 C673 1.362 . S
C673 H663 0.930 . S
C673 C666 1.409 . S
C673 C672 1.362 . S
H674 C680 0.930 . S
H675 C683 0.930 . S
H676 C684 0.930 . S
H677 C685 0.930 . S
H678 C688 0.930 . S
H679 C689 0.904 1_655 S
C680 H674 0.930 . S
C680 C681 1.338 1_655 S
C680 C682 1.415 1_655 S
C681 C680 1.338 1_455 S
C681 C683 1.450 . S
C682 C680 1.415 1_455 S
C682 C687 1.425 . S
C682 C689 1.409 . S
C683 H675 0.930 . S
C683 C681 1.450 . S
C683 C684 1.362 . S
C684 H676 0.930 . S
C684 C683 1.362 . S
C684 C687 1.409 . S
C685 H677 0.930 . S
C685 C686 1.355 . S
C685 C687 1.415 . S
C686 C685 1.355 . S
C686 C688 1.419 . S
C687 C682 1.425 . S
C687 C684 1.409 . S
C687 C685 1.415 . S
C688 H678 0.930 . S
C688 C686 1.419 . S
C688 C689 1.362 . S
C689 H679 0.904 1_455 S
C689 C682 1.409 . S
C689 C688 1.362 . S
H690 C696 0.930 . S
H691 C699 0.930 . S
H692 C700 0.930 . S
H693 C701 0.930 . S
H694 C704 0.930 1_455 S
H695 C705 0.930 . S
C696 H690 0.930 . S
C696 C697 1.355 . S
C696 C698 1.415 . S
C697 C696 1.355 . S
C697 C699 1.419 . S
C698 C696 1.415 . S
C698 C703 1.425 . S
C698 C705 1.409 . S
C699 H691 0.930 . S
C699 C697 1.419 . S
C699 C700 1.362 . S
C700 H692 0.930 . S
C700 C699 1.362 . S
C700 C703 1.409 . S
C701 H693 0.930 . S
C701 C702 1.355 . S
C701 C703 1.415 . S
C702 C701 1.355 . S
C702 C704 1.419 . S
C703 C698 1.425 . S
C703 C700 1.409 . S
C703 C701 1.415 . S
C704 H694 0.930 1_655 S
C704 C702 1.419 . S
C704 C705 1.362 . S
C705 H695 0.930 . S
C705 C698 1.409 . S
C705 C704 1.362 . S
H706 C712 0.930 . S
H707 C715 0.930 . S
H708 C716 0.930 . S
H709 C717 0.930 . S
H710 C720 0.930 . S
H711 C721 0.930 . S
C712 H706 0.930 . S
C712 C713 1.355 . S
C712 C714 1.415 . S
C713 C712 1.355 . S
C713 C715 1.419 . S
C714 C712 1.415 . S
C714 C719 1.425 . S
C714 C721 1.409 . S
C715 H707 0.930 . S
C715 C713 1.419 . S
C715 C716 1.362 . S
C716 H708 0.930 . S
C716 C715 1.362 . S
C716 C719 1.409 . S
C717 H709 0.930 . S
C717 C718 1.355 . S
C717 C719 1.415 . S
C718 C717 1.355 . S
C718 C720 1.419 . S
C719 C714 1.425 . S
C719 C716 1.409 . S
C719 C717 1.415 . S
C720 H710 0.930 . S
C720 C718 1.419 . S
C720 C721 1.362 . S
C721 H711 0.930 . S
C721 C714 1.409 . S
C721 C720 1.362 . S
H722 C728 0.930 . S
H723 C731 0.930 1_565 S
H724 C732 0.930 . S
H725 C733 0.930 . S
H726 C736 0.930 . S
H727 C737 0.930 . S
C728 H722 0.930 . S
C728 C729 1.355 . S
C728 C730 1.415 . S
C729 C728 1.355 . S
C729 C731 1.419 . S
C730 C728 1.415 . S
C730 C735 1.425 . S
C730 C737 1.409 . S
C731 H723 0.930 1_545 S
C731 C729 1.419 . S
C731 C732 1.362 . S
C732 H724 0.930 . S
C732 C731 1.362 . S
C732 C735 1.409 . S
C733 H725 0.930 . S
C733 C734 1.355 . S
C733 C735 1.415 . S
C734 C733 1.355 . S
C734 C736 1.419 . S
C735 C730 1.425 . S
C735 C732 1.409 . S
C735 C733 1.415 . S
C736 H726 0.930 . S
C736 C734 1.419 . S
C736 C737 1.362 . S
C737 H727 0.930 . S
C737 C730 1.409 . S
C737 C736 1.362 . S
H738 C744 0.930 . S
H739 C747 0.930 . S
H740 C748 0.930 . S
H741 C749 0.930 . S
H742 C752 0.930 1_556 S
H743 C753 0.930 . S
C744 H738 0.930 . S
C744 C745 1.355 . S
C744 C746 1.415 . S
C745 C744 1.355 . S
C745 C747 1.419 . S
C746 C744 1.415 . S
C746 C751 1.425 . S
C746 C753 1.409 . S
C747 H739 0.930 . S
C747 C745 1.419 . S
C747 C748 1.362 . S
C748 H740 0.930 . S
C748 C747 1.362 . S
C748 C751 1.409 . S
C749 H741 0.930 . S
C749 C750 1.355 . S
C749 C751 1.415 . S
C750 C749 1.355 . S
C750 C752 1.419 . S
C751 C746 1.425 . S
C751 C748 1.409 . S
C751 C749 1.415 . S
C752 H742 0.930 1_554 S
C752 C750 1.419 . S
C752 C753 1.362 . S
C753 H743 0.930 . S
C753 C746 1.409 . S
C753 C752 1.362 . S
H754 C760 0.930 . S
H755 C763 0.930 . S
H756 C764 0.930 . S
H757 C765 0.930 . S
H758 C768 0.930 1_556 S
H759 C769 0.930 . S
C760 H754 0.930 . S
C760 C761 1.355 . S
C760 C762 1.415 . S
C761 C760 1.355 . S
C761 C763 1.419 . S
C762 C760 1.415 . S
C762 C767 1.425 . S
C762 C769 1.409 . S
C763 H755 0.930 . S
C763 C761 1.419 . S
C763 C764 1.362 . S
C764 H756 0.930 . S
C764 C763 1.362 . S
C764 C767 1.409 . S
C765 H757 0.930 . S
C765 C766 1.355 . S
C765 C767 1.415 . S
C766 C765 1.355 . S
C766 C768 1.419 . S
C767 C762 1.425 . S
C767 C764 1.409 . S
C767 C765 1.415 . S
C768 H758 0.930 1_554 S
C768 C766 1.419 . S
C768 C769 1.362 . S
C769 H759 0.930 . S
C769 C762 1.409 . S
C769 C768 1.362 . S
H770 C776 0.930 . S
H771 C779 0.930 . S
H772 C780 0.930 . S
H773 C781 0.930 . S
H774 C784 0.930 . S
H775 C785 0.930 . S
C776 H770 0.930 . S
C776 C777 1.355 . S
C776 C778 1.415 . S
C777 C776 1.355 . S
C777 C779 1.419 . S
C778 C776 1.415 . S
C778 C783 1.425 . S
C778 C785 1.409 . S
C779 H771 0.930 . S
C779 C777 1.419 . S
C779 C780 1.362 . S
C780 H772 0.930 . S
C780 C779 1.362 . S
C780 C783 1.409 . S
C781 H773 0.930 . S
C781 C782 1.355 . S
C781 C783 1.415 . S
C782 C781 1.355 . S
C782 C784 1.419 . S
C783 C778 1.425 . S
C783 C780 1.409 . S
C783 C781 1.415 . S
C784 H774 0.930 . S
C784 C782 1.419 . S
C784 C785 1.362 . S
C785 H775 0.930 . S
C785 C778 1.409 . S
C785 C784 1.362 . S
H786 C792 0.930 . S
H787 C795 0.930 . S
H788 C796 0.930 1_554 S
H789 C797 0.930 1_554 S
H790 C800 0.930 . S
H791 C801 0.930 . S
C792 H786 0.930 . S
C792 C793 1.355 . S
C792 C794 1.415 . S
C793 C792 1.355 . S
C793 C795 1.419 . S
C794 C792 1.415 . S
C794 C799 1.425 . S
C794 C801 1.409 . S
C795 H787 0.930 . S
C795 C793 1.419 . S
C795 C796 1.362 . S
C796 H788 0.930 1_556 S
C796 C795 1.362 . S
C796 C799 1.409 . S
C797 H789 0.930 1_556 S
C797 C798 1.355 . S
C797 C799 1.415 . S
C798 C797 1.355 . S
C798 C800 1.419 . S
C799 C794 1.425 . S
C799 C796 1.409 . S
C799 C797 1.415 . S
C800 H790 0.930 . S
C800 C798 1.419 . S
C800 C801 1.362 . S
C801 H791 0.930 . S
C801 C794 1.409 . S
C801 C800 1.362 . S
H802 C808 0.930 . S
H803 C811 0.930 . S
H804 C812 0.930 . S
H805 C813 0.930 . S
H806 C816 0.930 . S
H807 C817 0.930 . S
C808 H802 0.930 . S
C808 C809 1.355 . S
C808 C810 1.415 . S
C809 C808 1.355 . S
C809 C811 1.419 . S
C810 C808 1.415 . S
C810 C815 1.425 . S
C810 C817 1.409 . S
C811 H803 0.930 . S
C811 C809 1.419 . S
C811 C812 1.362 . S
C812 H804 0.930 . S
C812 C811 1.362 . S
C812 C815 1.409 . S
C813 H805 0.930 . S
C813 C814 1.355 . S
C813 C815 1.415 . S
C814 C813 1.355 . S
C814 C816 1.419 . S
C815 C810 1.425 . S
C815 C812 1.409 . S
C815 C813 1.415 . S
C816 H806 0.930 . S
C816 C814 1.419 . S
C816 C817 1.362 . S
C817 H807 0.930 . S
C817 C810 1.409 . S
C817 C816 1.362 . S
H818 C824 0.930 . S
H819 C827 0.930 . S
H820 C828 0.930 . S
H821 C829 0.930 . S
H822 C832 0.930 . S
H823 C833 0.930 . S
C824 H818 0.930 . S
C824 C825 1.355 . S
C824 C826 1.415 . S
C825 C824 1.355 . S
C825 C827 1.419 . S
C826 C824 1.415 . S
C826 C831 1.425 . S
C826 C833 1.409 . S
C827 H819 0.930 . S
C827 C825 1.419 . S
C827 C828 1.362 . S
C828 H820 0.930 . S
C828 C827 1.362 . S
C828 C831 1.409 . S
C829 H821 0.930 . S
C829 C830 1.355 . S
C829 C831 1.415 . S
C830 C829 1.355 . S
C830 C832 1.419 . S
C831 C826 1.425 . S
C831 C828 1.409 . S
C831 C829 1.415 . S
C832 H822 0.930 . S
C832 C830 1.419 . S
C832 C833 1.362 . S
C833 H823 0.930 . S
C833 C826 1.409 . S
C833 C832 1.362 . S
H834 C840 0.930 . S
H835 C843 0.930 . S
H836 C844 0.930 . S
H837 C845 0.930 . S
H838 C848 0.930 . S
H839 C849 0.930 . S
C840 H834 0.930 . S
C840 C841 1.355 . S
C840 C842 1.415 . S
C841 C840 1.355 . S
C841 C843 1.419 . S
C842 C840 1.415 . S
C842 C847 1.425 . S
C842 C849 1.409 . S
C843 H835 0.930 . S
C843 C841 1.419 . S
C843 C844 1.362 . S
C844 H836 0.930 . S
C844 C843 1.362 . S
C844 C847 1.409 . S
C845 H837 0.930 . S
C845 C846 1.355 . S
C845 C847 1.415 . S
C846 C845 1.355 . S
C846 C848 1.419 . S
C847 C842 1.425 . S
C847 C844 1.409 . S
C847 C845 1.415 . S
C848 H838 0.930 . S
C848 C846 1.419 . S
C848 C849 1.362 . S
C849 H839 0.930 . S
C849 C842 1.409 . S
C849 C848 1.362 . S
H850 C856 0.930 . S
H851 C859 0.930 . S
H852 C860 0.930 . S
H853 C861 0.930 . S
H854 C864 0.930 . S
H855 C865 0.930 . S
C856 H850 0.930 . S
C856 C857 1.355 . S
C856 C858 1.415 . S
C857 C856 1.355 . S
C857 C859 1.419 . S
C858 C856 1.415 . S
C858 C863 1.425 . S
C858 C865 1.409 . S
C859 H851 0.930 . S
C859 C857 1.419 . S
C859 C860 1.362 . S
C860 H852 0.930 . S
C860 C859 1.362 . S
C860 C863 1.409 . S
C861 H853 0.930 . S
C861 C862 1.355 . S
C861 C863 1.415 . S
C862 C861 1.355 . S
C862 C864 1.419 . S
C863 C858 1.425 . S
C863 C860 1.409 . S
C863 C861 1.415 . S
C864 H854 0.930 . S
C864 C862 1.419 . S
C864 C865 1.362 . S
C865 H855 0.930 . S
C865 C858 1.409 . S
C865 C864 1.362 . S
H866 C872 0.930 . S
H867 C875 0.930 . S
H868 C876 0.930 . S
H869 C877 0.930 . S
H870 C880 0.930 1_545 S
H871 C881 0.930 . S
C872 H866 0.930 . S
C872 C873 1.355 . S
C872 C874 1.415 . S
C873 C872 1.355 . S
C873 C875 1.419 . S
C874 C872 1.415 . S
C874 C879 1.425 . S
C874 C881 1.409 . S
C875 H867 0.930 . S
C875 C873 1.419 . S
C875 C876 1.362 . S
C876 H868 0.930 . S
C876 C875 1.362 . S
C876 C879 1.409 . S
C877 H869 0.930 . S
C877 C878 1.355 . S
C877 C879 1.415 . S
C878 C877 1.355 . S
C878 C880 1.419 . S
C879 C874 1.425 . S
C879 C876 1.409 . S
C879 C877 1.415 . S
C880 H870 0.930 1_565 S
C880 C878 1.419 . S
C880 C881 1.362 . S
C881 H871 0.930 . S
C881 C874 1.409 . S
C881 C880 1.362 . S
H882 C888 0.930 . S
H883 C891 0.930 . S
H884 C892 0.930 . S
H885 C893 0.930 . S
H886 C896 0.930 . S
H887 C897 0.930 . S
C888 H882 0.930 . S
C888 C889 1.355 . S
C888 C890 1.415 . S
C889 C888 1.355 . S
C889 C891 1.419 . S
C890 C888 1.415 . S
C890 C895 1.425 . S
C890 C897 1.409 . S
C891 H883 0.930 . S
C891 C889 1.419 . S
C891 C892 1.362 . S
C892 H884 0.930 . S
C892 C891 1.362 . S
C892 C895 1.409 . S
C893 H885 0.930 . S
C893 C894 1.355 . S
C893 C895 1.415 . S
C894 C893 1.355 . S
C894 C896 1.419 . S
C895 C890 1.425 . S
C895 C892 1.409 . S
C895 C893 1.415 . S
C896 H886 0.930 . S
C896 C894 1.419 . S
C896 C897 1.362 . S
C897 H887 0.930 . S
C897 C890 1.409 . S
C897 C896 1.362 . S
H898 C904 0.930 . S
H899 C907 0.930 . S
H900 C908 0.930 . S
H901 C909 0.930 . S
H902 C912 0.930 . S
H903 C913 0.930 . S
C904 H898 0.930 . S
C904 C905 1.355 . S
C904 C906 1.415 . S
C905 C904 1.355 . S
C905 C907 1.419 . S
C906 C904 1.415 . S
C906 C911 1.425 . S
C906 C913 1.409 . S
C907 H899 0.930 . S
C907 C905 1.419 . S
C907 C908 1.362 . S
C908 H900 0.930 . S
C908 C907 1.362 . S
C908 C911 1.409 . S
C909 H901 0.930 . S
C909 C910 1.355 . S
C909 C911 1.415 . S
C910 C909 1.355 . S
C910 C912 1.419 . S
C911 C906 1.425 . S
C911 C908 1.409 . S
C911 C909 1.415 . S
C912 H902 0.930 . S
C912 C910 1.419 . S
C912 C913 1.362 . S
C913 H903 0.930 . S
C913 C906 1.409 . S
C913 C912 1.362 . S
H914 C920 0.930 . S
H915 C923 0.930 . S
H916 C924 0.930 . S
H917 C925 0.930 . S
H918 C928 0.930 . S
H919 C929 0.930 . S
C920 H914 0.930 . S
C920 C921 1.355 . S
C920 C922 1.415 . S
C921 C920 1.355 . S
C921 C923 1.419 . S
C922 C920 1.415 . S
C922 C927 1.425 . S
C922 C929 1.409 . S
C923 H915 0.930 . S
C923 C921 1.419 . S
C923 C924 1.362 . S
C924 H916 0.930 . S
C924 C923 1.362 . S
C924 C927 1.409 . S
C925 H917 0.930 . S
C925 C926 1.355 . S
C925 C927 1.415 . S
C926 C925 1.355 . S
C926 C928 1.419 . S
C927 C922 1.425 . S
C927 C924 1.409 . S
C927 C925 1.415 . S
C928 H918 0.930 . S
C928 C926 1.419 . S
C928 C929 1.362 . S
C929 H919 0.930 . S
C929 C922 1.409 . S
C929 C928 1.362 . S
H930 C936 0.930 . S
H931 C939 0.930 . S
H932 C940 0.930 . S
H933 C941 0.930 . S
H934 C944 0.930 . S
H935 C945 0.930 . S
C936 H930 0.930 . S
C936 C937 1.355 . S
C936 C938 1.415 . S
C937 C936 1.355 . S
C937 C939 1.419 . S
C938 C936 1.415 . S
C938 C943 1.425 . S
C938 C945 1.409 . S
C939 H931 0.930 . S
C939 C937 1.419 . S
C939 C940 1.362 . S
C940 H932 0.930 . S
C940 C939 1.362 . S
C940 C943 1.409 . S
C941 H933 0.930 . S
C941 C942 1.355 . S
C941 C943 1.415 . S
C942 C941 1.355 . S
C942 C944 1.419 . S
C943 C938 1.425 . S
C943 C940 1.409 . S
C943 C941 1.415 . S
C944 H934 0.930 . S
C944 C942 1.419 . S
C944 C945 1.362 . S
C945 H935 0.930 . S
C945 C938 1.409 . S
C945 C944 1.362 . S
H946 C952 0.930 . S
H947 C955 0.930 . S
H948 C956 0.930 . S
H949 C957 0.930 . S
H950 C960 0.930 . S
H951 C961 0.930 . S
C952 H946 0.930 . S
C952 C953 1.355 . S
C952 C954 1.415 . S
C953 C952 1.355 . S
C953 C955 1.419 . S
C954 C952 1.415 . S
C954 C959 1.425 . S
C954 C961 1.409 . S
C955 H947 0.930 . S
C955 C953 1.419 . S
C955 C956 1.362 . S
C956 H948 0.930 . S
C956 C955 1.362 . S
C956 C959 1.409 . S
C957 H949 0.930 . S
C957 C958 1.355 . S
C957 C959 1.415 . S
C958 C957 1.355 . S
C958 C960 1.419 . S
C959 C954 1.425 . S
C959 C956 1.409 . S
C959 C957 1.415 . S
C960 H950 0.930 . S
C960 C958 1.419 . S
C960 C961 1.362 . S
C961 H951 0.930 . S
C961 C954 1.409 . S
C961 C960 1.362 . S
H962 C968 0.930 . S
H963 C971 0.930 . S
H964 C972 0.930 . S
H965 C973 0.930 . S
H966 C976 0.930 . S
H967 C977 0.930 . S
C968 H962 0.930 . S
C968 C969 1.355 . S
C968 C970 1.415 . S
C969 C968 1.355 . S
C969 C971 1.419 . S
C970 C968 1.415 . S
C970 C975 1.425 . S
C970 C977 1.409 . S
C971 H963 0.930 . S
C971 C969 1.419 . S
C971 C972 1.362 . S
C972 H964 0.930 . S
C972 C971 1.362 . S
C972 C975 1.409 . S
C973 H965 0.930 . S
C973 C974 1.355 . S
C973 C975 1.415 . S
C974 C973 1.355 . S
C974 C976 1.419 . S
C975 C970 1.425 . S
C975 C972 1.409 . S
C975 C973 1.415 . S
C976 H966 0.930 . S
C976 C974 1.419 . S
C976 C977 1.362 . S
C977 H967 0.930 . S
C977 C970 1.409 . S
C977 C976 1.362 . S
H978 C984 0.930 . S
H979 C987 0.930 . S
H980 C988 0.930 . S
H981 C989 0.930 . S
H982 C992 0.930 . S
H983 C993 0.930 . S
C984 H978 0.930 . S
C984 C985 1.355 1_565 S
C984 C986 1.415 . S
C985 C984 1.355 1_545 S
C985 C987 1.419 . S
C986 C984 1.415 . S
C986 C991 1.425 1_564 S
C986 C993 1.409 . S
C987 H979 0.930 . S
C987 C985 1.419 . S
C987 C988 1.362 1_554 S
C988 H980 0.930 . S
C988 C987 1.362 1_556 S
C988 C991 1.409 . S
C989 H981 0.930 . S
C989 C990 1.355 1_545 S
C989 C991 1.415 . S
C990 C989 1.355 1_565 S
C990 C992 1.419 . S
C991 C986 1.425 1_546 S
C991 C988 1.409 . S
C991 C989 1.415 . S
C992 H982 0.930 . S
C992 C990 1.419 . S
C992 C993 1.362 1_556 S
C993 H983 0.930 . S
C993 C986 1.409 . S
C993 C992 1.362 1_554 S
H994 C1000 0.924 1_655 S
H995 C1003 0.930 . S
H996 C1004 0.930 . S
H997 C1005 0.924 1_455 S
H998 C1008 0.930 . S
H999 C1009 0.930 . S
C1000 H994 0.924 1_455 S
C1000 C1001 1.360 . S
C1000 C1002 1.415 1_455 S
C1001 C1000 1.360 . S
C1001 C1003 1.419 . S
C1002 C1000 1.415 1_655 S
C1002 C1007 1.425 1_656 S
C1002 C1009 1.409 1_556 S
C1003 H995 0.930 . S
C1003 C1001 1.419 . S
C1003 C1004 1.362 . S
C1004 H996 0.930 . S
C1004 C1003 1.362 . S
C1004 C1007 1.409 1_556 S
C1005 H997 0.924 1_655 S
C1005 C1006 1.360 . S
C1005 C1007 1.415 1_655 S
C1006 C1005 1.360 . S
C1006 C1008 1.419 . S
C1007 C1002 1.425 1_454 S
C1007 C1004 1.409 1_554 S
C1007 C1005 1.415 1_455 S
C1008 H998 0.930 . S
C1008 C1006 1.419 . S
C1008 C1009 1.362 . S
C1009 H999 0.930 . S
C1009 C1002 1.409 1_554 S
C1009 C1008 1.362 . S
H1010 C1016 0.930 . S
H1011 C1019 0.930 . S
H1012 C1020 0.930 . S
H1013 C1021 0.930 . S
H1014 C1024 0.930 . S
H1015 C1025 0.930 . S
C1016 H1010 0.930 . S
C1016 C1017 1.355 . S
C1016 C1018 1.415 1_556 S
C1017 C1016 1.355 . S
C1017 C1019 1.419 . S
C1018 C1016 1.415 1_554 S
C1018 C1023 1.425 1_554 S
C1018 C1025 1.409 . S
C1019 H1011 0.930 . S
C1019 C1017 1.419 . S
C1019 C1020 1.362 . S
C1020 H1012 0.930 . S
C1020 C1019 1.362 . S
C1020 C1023 1.409 . S
C1021 H1013 0.930 . S
C1021 C1022 1.355 . S
C1021 C1023 1.415 1_554 S
C1022 C1021 1.355 . S
C1022 C1024 1.419 . S
C1023 C1018 1.425 1_556 S
C1023 C1020 1.409 . S
C1023 C1021 1.415 1_556 S
C1024 H1014 0.930 . S
C1024 C1022 1.419 . S
C1024 C1025 1.362 . S
C1025 H1015 0.930 . S
C1025 C1018 1.409 . S
C1025 C1024 1.362 . S
H1026 C1032 0.930 . S
H1027 C1035 0.930 . S
H1028 C1036 0.930 . S
H1029 C1037 0.930 . S
H1030 C1040 0.930 . S
H1031 C1041 0.930 . S
C1032 H1026 0.930 . S
C1032 C1033 1.355 1_556 S
C1032 C1034 1.415 . S
C1033 C1032 1.355 1_554 S
C1033 C1035 1.419 . S
C1034 C1032 1.415 . S
C1034 C1039 1.425 . S
C1034 C1041 1.409 . S
C1035 H1027 0.930 . S
C1035 C1033 1.419 . S
C1035 C1036 1.362 . S
C1036 H1028 0.930 . S
C1036 C1035 1.362 . S
C1036 C1039 1.409 1_554 S
C1037 H1029 0.930 . S
C1037 C1038 1.355 . S
C1037 C1039 1.415 . S
C1038 C1037 1.355 . S
C1038 C1040 1.419 . S
C1039 C1034 1.425 . S
C1039 C1036 1.409 1_556 S
C1039 C1037 1.415 . S
C1040 H1030 0.930 . S
C1040 C1038 1.419 . S
C1040 C1041 1.362 . S
C1041 H1031 0.930 . S
C1041 C1034 1.409 . S
C1041 C1040 1.362 . S
H1042 C1048 0.930 . S
H1043 C1051 0.930 . S
H1044 C1052 0.930 . S
H1045 C1053 0.930 . S
H1046 C1056 0.928 1_554 S
H1047 C1057 0.930 . S
C1048 H1042 0.930 . S
C1048 C1049 1.355 . S
C1048 C1050 1.415 . S
C1049 C1048 1.355 . S
C1049 C1051 1.419 . S
C1050 C1048 1.415 . S
C1050 C1055 1.425 . S
C1050 C1057 1.409 . S
C1051 H1043 0.930 . S
C1051 C1049 1.419 . S
C1051 C1052 1.362 . S
C1052 H1044 0.930 . S
C1052 C1051 1.362 . S
C1052 C1055 1.409 . S
C1053 H1045 0.930 . S
C1053 C1054 1.356 . S
C1053 C1055 1.415 . S
C1054 C1053 1.356 . S
C1054 C1056 1.420 . S
C1055 C1050 1.425 . S
C1055 C1052 1.409 . S
C1055 C1053 1.415 . S
C1056 H1046 0.928 1_556 S
C1056 C1054 1.420 . S
C1056 C1057 1.362 . S
C1057 H1047 0.930 . S
C1057 C1050 1.409 . S
C1057 C1056 1.362 . S
H1058 C1064 0.930 . S
H1059 C1067 0.930 . S
H1060 C1068 0.930 . S
H1061 C1069 0.930 . S
H1062 C1072 0.930 . S
H1063 C1073 0.930 . S
C1064 H1058 0.930 . S
C1064 C1065 1.355 1_556 S
C1064 C1066 1.415 . S
C1065 C1064 1.355 1_554 S
C1065 C1067 1.419 . S
C1066 C1064 1.415 . S
C1066 C1071 1.425 . S
C1066 C1073 1.409 . S
C1067 H1059 0.930 . S
C1067 C1065 1.419 . S
C1067 C1068 1.362 . S
C1068 H1060 0.930 . S
C1068 C1067 1.362 . S
C1068 C1071 1.409 1_554 S
C1069 H1061 0.930 . S
C1069 C1070 1.355 . S
C1069 C1071 1.415 . S
C1070 C1069 1.355 . S
C1070 C1072 1.419 . S
C1071 C1066 1.425 . S
C1071 C1068 1.409 1_556 S
C1071 C1069 1.415 . S
C1072 H1062 0.930 . S
C1072 C1070 1.419 . S
C1072 C1073 1.362 . S
C1073 H1063 0.930 . S
C1073 C1066 1.409 . S
C1073 C1072 1.362 . S
H1074 C1080 0.930 . S
H1075 C1083 0.930 . S
H1076 C1084 0.930 . S
H1077 C1085 0.930 . S
H1078 C1088 0.930 . S
H1079 C1089 0.930 . S
C1080 H1074 0.930 . S
C1080 C1081 1.355 . S
C1080 C1082 1.415 . S
C1081 C1080 1.355 . S
C1081 C1083 1.419 . S
C1082 C1080 1.415 . S
C1082 C1087 1.425 . S
C1082 C1089 1.409 . S
C1083 H1075 0.930 . S
C1083 C1081 1.419 . S
C1083 C1084 1.362 . S
C1084 H1076 0.930 . S
C1084 C1083 1.362 . S
C1084 C1087 1.409 . S
C1085 H1077 0.930 . S
C1085 C1086 1.355 . S
C1085 C1087 1.415 . S
C1086 C1085 1.355 . S
C1086 C1088 1.419 . S
C1087 C1082 1.425 . S
C1087 C1084 1.409 . S
C1087 C1085 1.415 . S
C1088 H1078 0.930 . S
C1088 C1086 1.419 . S
C1088 C1089 1.362 . S
C1089 H1079 0.930 . S
C1089 C1082 1.409 . S
C1089 C1088 1.362 . S
H1090 C1096 0.930 . S
H1091 C1099 0.930 . S
H1092 C1100 0.930 . S
H1093 C1101 0.930 . S
H1094 C1104 0.930 . S
H1095 C1105 0.930 . S
C1096 H1090 0.930 . S
C1096 C1097 1.355 . S
C1096 C1098 1.415 . S
C1097 C1096 1.355 . S
C1097 C1099 1.419 1_554 S
C1098 C1096 1.415 . S
C1098 C1103 1.425 . S
C1098 C1105 1.409 . S
C1099 H1091 0.930 . S
C1099 C1097 1.419 1_556 S
C1099 C1100 1.362 1_556 S
C1100 H1092 0.930 . S
C1100 C1099 1.362 1_554 S
C1100 C1103 1.409 . S
C1101 H1093 0.930 . S
C1101 C1102 1.355 . S
C1101 C1103 1.415 . S
C1102 C1101 1.355 . S
C1102 C1104 1.419 . S
C1103 C1098 1.425 . S
C1103 C1100 1.409 . S
C1103 C1101 1.415 . S
C1104 H1094 0.930 . S
C1104 C1102 1.419 . S
C1104 C1105 1.362 . S
C1105 H1095 0.930 . S
C1105 C1098 1.409 . S
C1105 C1104 1.362 . S
H1106 C1112 0.930 . S
H1107 C1115 0.930 . S
H1108 C1116 0.930 . S
H1109 C1117 0.930 . S
H1110 C1120 0.930 . S
H1111 C1121 0.930 . S
C1112 H1106 0.930 . S
C1112 C1113 1.355 . S
C1112 C1114 1.415 . S
C1113 C1112 1.355 . S
C1113 C1115 1.419 . S
C1114 C1112 1.415 . S
C1114 C1119 1.425 . S
C1114 C1121 1.409 . S
C1115 H1107 0.930 . S
C1115 C1113 1.419 . S
C1115 C1116 1.362 . S
C1116 H1108 0.930 . S
C1116 C1115 1.362 . S
C1116 C1119 1.409 . S
C1117 H1109 0.930 . S
C1117 C1118 1.355 . S
C1117 C1119 1.415 . S
C1118 C1117 1.355 . S
C1118 C1120 1.419 . S
C1119 C1114 1.425 . S
C1119 C1116 1.409 . S
C1119 C1117 1.415 . S
C1120 H1110 0.930 . S
C1120 C1118 1.419 . S
C1120 C1121 1.362 . S
C1121 H1111 0.930 . S
C1121 C1114 1.409 . S
C1121 C1120 1.362 . S
H1122 C1128 0.930 . S
H1123 C1131 0.930 . S
H1124 C1132 0.930 . S
H1125 C1133 0.930 . S
H1126 C1136 0.930 . S
H1127 C1137 0.930 . S
C1128 H1122 0.930 . S
C1128 C1129 1.355 . S
C1128 C1130 1.415 . S
C1129 C1128 1.355 . S
C1129 C1131 1.419 . S
C1130 C1128 1.415 . S
C1130 C1135 1.425 . S
C1130 C1137 1.409 . S
C1131 H1123 0.930 . S
C1131 C1129 1.419 . S
C1131 C1132 1.362 . S
C1132 H1124 0.930 . S
C1132 C1131 1.362 . S
C1132 C1135 1.409 . S
C1133 H1125 0.930 . S
C1133 C1134 1.355 . S
C1133 C1135 1.415 . S
C1134 C1133 1.355 . S
C1134 C1136 1.419 . S
C1135 C1130 1.425 . S
C1135 C1132 1.409 . S
C1135 C1133 1.415 . S
C1136 H1126 0.930 . S
C1136 C1134 1.419 . S
C1136 C1137 1.362 . S
C1137 H1127 0.930 . S
C1137 C1130 1.409 . S
C1137 C1136 1.362 . S
H1138 C1144 0.930 . S
H1139 C1147 0.930 . S
H1140 C1148 0.930 . S
H1141 C1149 0.930 . S
H1142 C1152 0.930 . S
H1143 C1153 0.930 . S
C1144 H1138 0.930 . S
C1144 C1145 1.355 . S
C1144 C1146 1.415 . S
C1145 C1144 1.355 . S
C1145 C1147 1.419 . S
C1146 C1144 1.415 . S
C1146 C1151 1.425 . S
C1146 C1153 1.409 . S
C1147 H1139 0.930 . S
C1147 C1145 1.419 . S
C1147 C1148 1.362 . S
C1148 H1140 0.930 . S
C1148 C1147 1.362 . S
C1148 C1151 1.409 . S
C1149 H1141 0.930 . S
C1149 C1150 1.355 . S
C1149 C1151 1.415 . S
C1150 C1149 1.355 . S
C1150 C1152 1.419 . S
C1151 C1146 1.425 . S
C1151 C1148 1.409 . S
C1151 C1149 1.415 . S
C1152 H1142 0.930 . S
C1152 C1150 1.419 . S
C1152 C1153 1.362 . S
C1153 H1143 0.930 . S
C1153 C1146 1.409 . S
C1153 C1152 1.362 . S
H1154 C1160 0.930 . S
H1155 C1163 0.930 . S
H1156 C1164 0.930 . S
H1157 C1165 0.930 . S
H1158 C1168 0.930 . S
H1159 C1169 0.930 . S
C1160 H1154 0.930 . S
C1160 C1161 1.355 . S
C1160 C1162 1.415 . S
C1161 C1160 1.355 . S
C1161 C1163 1.419 . S
C1162 C1160 1.415 . S
C1162 C1167 1.425 . S
C1162 C1169 1.409 . S
C1163 H1155 0.930 . S
C1163 C1161 1.419 . S
C1163 C1164 1.362 . S
C1164 H1156 0.930 . S
C1164 C1163 1.362 . S
C1164 C1167 1.409 . S
C1165 H1157 0.930 . S
C1165 C1166 1.355 . S
C1165 C1167 1.415 . S
C1166 C1165 1.355 . S
C1166 C1168 1.419 . S
C1167 C1162 1.425 . S
C1167 C1164 1.409 . S
C1167 C1165 1.415 . S
C1168 H1158 0.930 . S
C1168 C1166 1.419 . S
C1168 C1169 1.362 . S
C1169 H1159 0.930 . S
C1169 C1162 1.409 . S
C1169 C1168 1.362 . S
H1170 C1176 0.930 . S
H1171 C1179 0.930 . S
H1172 C1180 0.930 . S
H1173 C1181 0.930 . S
H1174 C1184 0.930 . S
H1175 C1185 0.930 . S
C1176 H1170 0.930 . S
C1176 C1177 1.355 . S
C1176 C1178 1.415 . S
C1177 C1176 1.355 . S
C1177 C1179 1.419 . S
C1178 C1176 1.415 . S
C1178 C1183 1.425 . S
C1178 C1185 1.409 . S
C1179 H1171 0.930 . S
C1179 C1177 1.419 . S
C1179 C1180 1.362 . S
C1180 H1172 0.930 . S
C1180 C1179 1.362 . S
C1180 C1183 1.409 . S
C1181 H1173 0.930 . S
C1181 C1182 1.355 . S
C1181 C1183 1.415 . S
C1182 C1181 1.355 . S
C1182 C1184 1.419 . S
C1183 C1178 1.425 . S
C1183 C1180 1.409 . S
C1183 C1181 1.415 . S
C1184 H1174 0.930 . S
C1184 C1182 1.419 . S
C1184 C1185 1.362 . S
C1185 H1175 0.930 . S
C1185 C1178 1.409 . S
C1185 C1184 1.362 . S
H1186 C1192 0.930 . S
H1187 C1195 0.930 . S
H1188 C1196 0.930 . S
H1189 C1197 0.930 . S
H1190 C1200 0.930 . S
H1191 C1201 0.930 . S
C1192 H1186 0.930 . S
C1192 C1193 1.355 . S
C1192 C1194 1.415 . S
C1193 C1192 1.355 . S
C1193 C1195 1.419 . S
C1194 C1192 1.415 . S
C1194 C1199 1.425 . S
C1194 C1201 1.409 . S
C1195 H1187 0.930 . S
C1195 C1193 1.419 . S
C1195 C1196 1.362 . S
C1196 H1188 0.930 . S
C1196 C1195 1.362 . S
C1196 C1199 1.409 . S
C1197 H1189 0.930 . S
C1197 C1198 1.355 . S
C1197 C1199 1.415 . S
C1198 C1197 1.355 . S
C1198 C1200 1.419 . S
C1199 C1194 1.425 . S
C1199 C1196 1.409 . S
C1199 C1197 1.415 . S
C1200 H1190 0.930 . S
C1200 C1198 1.419 . S
C1200 C1201 1.362 . S
C1201 H1191 0.930 . S
C1201 C1194 1.409 . S
C1201 C1200 1.362 . S
H1202 C1208 0.930 . S
H1203 C1211 0.930 . S
H1204 C1212 0.930 . S
H1205 C1213 0.930 . S
H1206 C1216 0.930 . S
H1207 C1217 0.930 . S
C1208 H1202 0.930 . S
C1208 C1209 1.355 . S
C1208 C1210 1.415 . S
C1209 C1208 1.355 . S
C1209 C1211 1.419 . S
C1210 C1208 1.415 . S
C1210 C1215 1.425 . S
C1210 C1217 1.409 . S
C1211 H1203 0.930 . S
C1211 C1209 1.419 . S
C1211 C1212 1.362 . S
C1212 H1204 0.930 . S
C1212 C1211 1.362 . S
C1212 C1215 1.409 . S
C1213 H1205 0.930 . S
C1213 C1214 1.355 . S
C1213 C1215 1.415 . S
C1214 C1213 1.355 . S
C1214 C1216 1.419 . S
C1215 C1210 1.425 . S
C1215 C1212 1.409 . S
C1215 C1213 1.415 . S
C1216 H1206 0.930 . S
C1216 C1214 1.419 . S
C1216 C1217 1.362 . S
C1217 H1207 0.930 . S
C1217 C1210 1.409 . S
C1217 C1216 1.362 . S
H1218 C1224 0.930 . S
H1219 C1227 0.930 . S
H1220 C1228 0.930 . S
H1221 C1229 0.930 . S
H1222 C1232 0.930 . S
H1223 C1233 0.930 . S
C1224 H1218 0.930 . S
C1224 C1225 1.355 . S
C1224 C1226 1.415 . S
C1225 C1224 1.355 . S
C1225 C1227 1.419 . S
C1226 C1224 1.415 . S
C1226 C1231 1.425 . S
C1226 C1233 1.409 . S
C1227 H1219 0.930 . S
C1227 C1225 1.419 . S
C1227 C1228 1.362 . S
C1228 H1220 0.930 . S
C1228 C1227 1.362 . S
C1228 C1231 1.409 . S
C1229 H1221 0.930 . S
C1229 C1230 1.355 . S
C1229 C1231 1.415 . S
C1230 C1229 1.355 . S
C1230 C1232 1.419 . S
C1231 C1226 1.425 . S
C1231 C1228 1.409 . S
C1231 C1229 1.415 . S
C1232 H1222 0.930 . S
C1232 C1230 1.419 . S
C1232 C1233 1.362 . S
C1233 H1223 0.930 . S
C1233 C1226 1.409 . S
C1233 C1232 1.362 . S
H1234 C1240 0.930 . S
H1235 C1243 0.930 . S
H1236 C1244 0.930 . S
H1237 C1245 0.930 . S
H1238 C1248 0.930 . S
H1239 C1249 0.930 . S
C1240 H1234 0.930 . S
C1240 C1241 1.355 . S
C1240 C1242 1.415 . S
C1241 C1240 1.355 . S
C1241 C1243 1.419 . S
C1242 C1240 1.415 . S
C1242 C1247 1.425 . S
C1242 C1249 1.409 . S
C1243 H1235 0.930 . S
C1243 C1241 1.419 . S
C1243 C1244 1.362 . S
C1244 H1236 0.930 . S
C1244 C1243 1.362 . S
C1244 C1247 1.409 . S
C1245 H1237 0.930 . S
C1245 C1246 1.355 . S
C1245 C1247 1.415 . S
C1246 C1245 1.355 . S
C1246 C1248 1.419 . S
C1247 C1242 1.425 . S
C1247 C1244 1.409 . S
C1247 C1245 1.415 . S
C1248 H1238 0.930 . S
C1248 C1246 1.419 . S
C1248 C1249 1.362 . S
C1249 H1239 0.930 . S
C1249 C1242 1.409 . S
C1249 C1248 1.362 . S
H1250 C1256 0.930 . S
H1251 C1259 0.930 . S
H1252 C1260 0.930 . S
H1253 C1261 0.930 . S
H1254 C1264 0.930 . S
H1255 C1265 0.930 . S
C1256 H1250 0.930 . S
C1256 C1257 1.355 . S
C1256 C1258 1.415 . S
C1257 C1256 1.355 . S
C1257 C1259 1.419 . S
C1258 C1256 1.415 . S
C1258 C1263 1.425 . S
C1258 C1265 1.409 . S
C1259 H1251 0.930 . S
C1259 C1257 1.419 . S
C1259 C1260 1.362 . S
C1260 H1252 0.930 . S
C1260 C1259 1.362 . S
C1260 C1263 1.409 . S
C1261 H1253 0.930 . S
C1261 C1262 1.355 . S
C1261 C1263 1.415 . S
C1262 C1261 1.355 . S
C1262 C1264 1.419 . S
C1263 C1258 1.425 . S
C1263 C1260 1.409 . S
C1263 C1261 1.415 . S
C1264 H1254 0.930 . S
C1264 C1262 1.419 . S
C1264 C1265 1.362 . S
C1265 H1255 0.930 . S
C1265 C1258 1.409 . S
C1265 C1264 1.362 . S
H1266 C1272 0.930 . S
H1267 C1275 0.930 . S
H1268 C1276 0.930 . S
H1269 C1277 0.930 . S
H1270 C1280 0.930 . S
H1271 C1281 0.930 . S
C1272 H1266 0.930 . S
C1272 C1273 1.355 . S
C1272 C1274 1.415 . S
C1273 C1272 1.355 . S
C1273 C1275 1.419 . S
C1274 C1272 1.415 . S
C1274 C1279 1.425 . S
C1274 C1281 1.409 . S
C1275 H1267 0.930 . S
C1275 C1273 1.419 . S
C1275 C1276 1.362 . S
C1276 H1268 0.930 . S
C1276 C1275 1.362 . S
C1276 C1279 1.409 . S
C1277 H1269 0.930 . S
C1277 C1278 1.355 . S
C1277 C1279 1.415 . S
C1278 C1277 1.355 . S
C1278 C1280 1.419 . S
C1279 C1274 1.425 . S
C1279 C1276 1.409 . S
C1279 C1277 1.415 . S
C1280 H1270 0.930 . S
C1280 C1278 1.419 . S
C1280 C1281 1.362 . S
C1281 H1271 0.930 . S
C1281 C1274 1.409 . S
C1281 C1280 1.362 . S
H1282 C1288 0.930 . S
H1283 C1291 0.930 . S
H1284 C1292 0.930 . S
H1285 C1293 0.930 . S
H1286 C1296 0.930 . S
H1287 C1297 0.930 . S
C1288 H1282 0.930 . S
C1288 C1289 1.355 . S
C1288 C1290 1.415 . S
C1289 C1288 1.355 . S
C1289 C1291 1.419 . S
C1290 C1288 1.415 . S
C1290 C1295 1.425 . S
C1290 C1297 1.409 . S
C1291 H1283 0.930 . S
C1291 C1289 1.419 . S
C1291 C1292 1.362 . S
C1292 H1284 0.930 . S
C1292 C1291 1.362 . S
C1292 C1295 1.409 . S
C1293 H1285 0.930 . S
C1293 C1294 1.355 . S
C1293 C1295 1.415 . S
C1294 C1293 1.355 . S
C1294 C1296 1.419 . S
C1295 C1290 1.425 . S
C1295 C1292 1.409 . S
C1295 C1293 1.415 . S
C1296 H1286 0.930 . S
C1296 C1294 1.419 . S
C1296 C1297 1.362 . S
C1297 H1287 0.930 . S
C1297 C1290 1.409 . S
C1297 C1296 1.362 . S
H1298 C1304 0.930 . S
H1299 C1307 0.930 . S
H1300 C1308 0.930 . S
H1301 C1309 0.930 . S
H1302 C1312 0.930 . S
H1303 C1313 0.930 . S
C1304 H1298 0.930 . S
C1304 C1305 1.355 . S
C1304 C1306 1.415 . S
C1305 C1304 1.355 . S
C1305 C1307 1.419 . S
C1306 C1304 1.415 . S
C1306 C1311 1.425 . S
C1306 C1313 1.409 . S
C1307 H1299 0.930 . S
C1307 C1305 1.419 . S
C1307 C1308 1.362 . S
C1308 H1300 0.930 . S
C1308 C1307 1.362 . S
C1308 C1311 1.409 . S
C1309 H1301 0.930 . S
C1309 C1310 1.355 . S
C1309 C1311 1.415 . S
C1310 C1309 1.355 . S
C1310 C1312 1.419 . S
C1311 C1306 1.425 . S
C1311 C1308 1.409 . S
C1311 C1309 1.415 . S
C1312 H1302 0.930 . S
C1312 C1310 1.419 . S
C1312 C1313 1.362 . S
C1313 H1303 0.930 . S
C1313 C1306 1.409 . S
C1313 C1312 1.362 . S
C601 C28 1.131 . S
C606 C248 1.157 . S
C617 C61 1.053 . S
C622 C281 1.133 . S
C633 C94 1.080 . S
C638 C215 1.150 . S
C649 C545 1.157 . S
C654 C127 1.128 . S
C665 C160 1.135 . S
C670 C578 1.157 . S
C681 C193 1.111 1_455 S
C686 C512 1.129 . S
C697 C226 1.151 . S
C702 C446 1.151 1_655 S
C713 C479 1.146 . S
C718 C259 1.152 . S
C729 C413 1.157 1_545 S
C734 C292 1.129 . S
C745 C325 1.058 . S
C750 C149 1.125 . S
C761 C358 1.132 . S
C766 C182 1.129 . S
C777 C391 1.056 . S
C782 C116 1.137 . S
C793 C424 1.144 . S
C798 C50 1.155 . S
C809 C457 1.118 . S
C814 C83 1.125 . S
C825 C17 1.135 . S
C830 C490 1.144 . S
C841 C347 1.122 1_455 S
C846 C523 1.106 . S
C857 C556 1.063 . S
C862 C380 1.143 . S
C873 C589 1.148 . S
C878 C314 1.138 1_565 S
C889 N509 1.770 . S
C894 N14 1.770 . S
C905 N542 1.706 . S
C910 N47 1.706 . S
C921 N80 1.779 . S
C926 N575 1.779 . S
C937 N113 1.768 . S
C942 N212 1.768 . S
C953 N146 1.749 . S
C958 N245 1.749 . S
C969 N278 1.769 . S
C974 N179 1.769 . S
C985 N311 1.729 . S
C990 N410 1.729 . S
C1001 N443 1.759 . S
C1006 N344 1.759 . S
C1017 N476 1.779 . S
C1022 N377 1.779 . S
C1033 N5 1.528 . S
C1038 C140 1.548 . S
C1049 C173 1.504 . S
C1054 N38 1.490 1_556 S
C1065 N71 1.523 . S
C1070 C107 1.544 . S
C1081 C41 1.492 . S
C1086 N104 1.496 1_554 S
C1097 N137 1.559 1_554 S
C1102 C74 1.553 . S
C1113 C8 1.492 . S
C1118 N170 1.498 1_554 S
C1129 N203 1.532 . S
C1134 C338 1.551 . S
C1145 C371 1.541 . S
C1150 N236 1.556 . S
C1161 C305 1.542 . S
C1166 N269 1.557 . S
C1177 N302 1.559 . S
C1182 C239 1.554 . S
C1193 C272 1.492 . S
C1198 N335 1.497 . S
C1209 N368 1.513 . S
C1214 C206 1.534 . S
C1225 C536 1.492 . S
C1230 N401 1.501 . S
C1241 C569 1.503 . S
C1246 N434 1.492 . S
C1257 C503 1.497 . S
C1262 N467 1.513 . S
C1273 C437 1.506 . S
C1278 N500 1.527 . S
C1289 C470 1.524 . S
C1294 N533 1.503 . S
C1305 N566 1.529 . S
C1310 C404 1.508 . S
