# Generated by pormake.
# Topology ukc, (4)-cn, num edge types: 1
# Building blocks:
#     Node 0, Type 0, BuildingBlock: AZAVOO_clean_sbu_0, # of connection points: 4
#     Node 1, Type 0, BuildingBlock: AZAVOO_clean_sbu_0, # of connection points: 4
#     Node 2, Type 0, BuildingBlock: AZAVOO_clean_sbu_0, # of connection points: 4
#     Node 3, Type 0, BuildingBlock: AZAVOO_clean_sbu_0, # of connection points: 4
#     Node 4, Type 0, BuildingBlock: AZAVOO_clean_sbu_0, # of connection points: 4
#     Node 5, Type 0, BuildingBlock: AZAVOO_clean_sbu_0, # of connection points: 4
#     Node 6, Type 0, BuildingBlock: AZAVOO_clean_sbu_0, # of connection points: 4
#     Node 7, Type 0, BuildingBlock: AZAVOO_clean_sbu_0, # of connection points: 4
#     Node 8, Type 0, BuildingBlock: AZAVOO_clean_sbu_0, # of connection points: 4
#     Node 9, Type 0, BuildingBlock: AZAVOO_clean_sbu_0, # of connection points: 4
#     Node 10, Type 0, BuildingBlock: AZAVOO_clean_sbu_0, # of connection points: 4
#     Node 11, Type 0, BuildingBlock: AZAVOO_clean_sbu_0, # of connection points: 4
#     Node 12, Type 0, BuildingBlock: AZAVOO_clean_sbu_0, # of connection points: 4
#     Node 13, Type 0, BuildingBlock: AZAVOO_clean_sbu_0, # of connection points: 4
#     Node 14, Type 0, BuildingBlock: AZAVOO_clean_sbu_0, # of connection points: 4
#     Node 15, Type 0, BuildingBlock: AZAVOO_clean_sbu_0, # of connection points: 4
#     Node 16, Type 0, BuildingBlock: AZAVOO_clean_sbu_0, # of connection points: 4
#     Node 17, Type 0, BuildingBlock: AZAVOO_clean_sbu_0, # of connection points: 4
#     Node 18, Type 0, BuildingBlock: AZAVOO_clean_sbu_0, # of connection points: 4
#     Node 19, Type 0, BuildingBlock: AZAVOO_clean_sbu_0, # of connection points: 4
#     Node 20, Type 0, BuildingBlock: AZAVOO_clean_sbu_0, # of connection points: 4
#     Node 21, Type 0, BuildingBlock: AZAVOO_clean_sbu_0, # of connection points: 4
#     Node 22, Type 0, BuildingBlock: AZAVOO_clean_sbu_0, # of connection points: 4
#     Node 23, Type 0, BuildingBlock: AZAVOO_clean_sbu_0, # of connection points: 4
#     Node 24, Type 0, BuildingBlock: AZAVOO_clean_sbu_0, # of connection points: 4
#     Node 25, Type 0, BuildingBlock: AZAVOO_clean_sbu_0, # of connection points: 4
#     Node 26, Type 0, BuildingBlock: AZAVOO_clean_sbu_0, # of connection points: 4
#     Node 27, Type 0, BuildingBlock: AZAVOO_clean_sbu_0, # of connection points: 4
#     Node 28, Type 0, BuildingBlock: AZAVOO_clean_sbu_0, # of connection points: 4
#     Node 29, Type 0, BuildingBlock: AZAVOO_clean_sbu_0, # of connection points: 4
#     Node 30, Type 0, BuildingBlock: AZAVOO_clean_sbu_0, # of connection points: 4
#     Node 31, Type 0, BuildingBlock: AZAVOO_clean_sbu_0, # of connection points: 4
#     Edge 32, Type (0, 0), BuildingBlock: XIVTED_clean_linker_0, # of connection points: 2
#     Edge 33, Type (0, 0), BuildingBlock: XIVTED_clean_linker_0, # of connection points: 2
#     Edge 34, Type (0, 0), BuildingBlock: XIVTED_clean_linker_0, # of connection points: 2
#     Edge 35, Type (0, 0), BuildingBlock: XIVTED_clean_linker_0, # of connection points: 2
#     Edge 36, Type (0, 0), BuildingBlock: XIVTED_clean_linker_0, # of connection points: 2
#     Edge 37, Type (0, 0), BuildingBlock: XIVTED_clean_linker_0, # of connection points: 2
#     Edge 38, Type (0, 0), BuildingBlock: XIVTED_clean_linker_0, # of connection points: 2
#     Edge 39, Type (0, 0), BuildingBlock: XIVTED_clean_linker_0, # of connection points: 2
#     Edge 40, Type (0, 0), BuildingBlock: XIVTED_clean_linker_0, # of connection points: 2
#     Edge 41, Type (0, 0), BuildingBlock: XIVTED_clean_linker_0, # of connection points: 2
#     Edge 42, Type (0, 0), BuildingBlock: XIVTED_clean_linker_0, # of connection points: 2
#     Edge 43, Type (0, 0), BuildingBlock: XIVTED_clean_linker_0, # of connection points: 2
#     Edge 44, Type (0, 0), BuildingBlock: XIVTED_clean_linker_0, # of connection points: 2
#     Edge 45, Type (0, 0), BuildingBlock: XIVTED_clean_linker_0, # of connection points: 2
#     Edge 46, Type (0, 0), BuildingBlock: XIVTED_clean_linker_0, # of connection points: 2
#     Edge 47, Type (0, 0), BuildingBlock: XIVTED_clean_linker_0, # of connection points: 2
#     Edge 48, Type (0, 0), BuildingBlock: XIVTED_clean_linker_0, # of connection points: 2
#     Edge 49, Type (0, 0), BuildingBlock: XIVTED_clean_linker_0, # of connection points: 2
#     Edge 50, Type (0, 0), BuildingBlock: XIVTED_clean_linker_0, # of connection points: 2
#     Edge 51, Type (0, 0), BuildingBlock: XIVTED_clean_linker_0, # of connection points: 2
#     Edge 52, Type (0, 0), BuildingBlock: XIVTED_clean_linker_0, # of connection points: 2
#     Edge 53, Type (0, 0), BuildingBlock: XIVTED_clean_linker_0, # of connection points: 2
#     Edge 54, Type (0, 0), BuildingBlock: XIVTED_clean_linker_0, # of connection points: 2
#     Edge 55, Type (0, 0), BuildingBlock: XIVTED_clean_linker_0, # of connection points: 2
#     Edge 56, Type (0, 0), BuildingBlock: XIVTED_clean_linker_0, # of connection points: 2
#     Edge 57, Type (0, 0), BuildingBlock: XIVTED_clean_linker_0, # of connection points: 2
#     Edge 58, Type (0, 0), BuildingBlock: XIVTED_clean_linker_0, # of connection points: 2
#     Edge 59, Type (0, 0), BuildingBlock: XIVTED_clean_linker_0, # of connection points: 2
#     Edge 60, Type (0, 0), BuildingBlock: XIVTED_clean_linker_0, # of connection points: 2
#     Edge 61, Type (0, 0), BuildingBlock: XIVTED_clean_linker_0, # of connection points: 2
#     Edge 62, Type (0, 0), BuildingBlock: XIVTED_clean_linker_0, # of connection points: 2
#     Edge 63, Type (0, 0), BuildingBlock: XIVTED_clean_linker_0, # of connection points: 2
#     Edge 64, Type (0, 0), BuildingBlock: XIVTED_clean_linker_0, # of connection points: 2
#     Edge 65, Type (0, 0), BuildingBlock: XIVTED_clean_linker_0, # of connection points: 2
#     Edge 66, Type (0, 0), BuildingBlock: XIVTED_clean_linker_0, # of connection points: 2
#     Edge 67, Type (0, 0), BuildingBlock: XIVTED_clean_linker_0, # of connection points: 2
#     Edge 68, Type (0, 0), BuildingBlock: XIVTED_clean_linker_0, # of connection points: 2
#     Edge 69, Type (0, 0), BuildingBlock: XIVTED_clean_linker_0, # of connection points: 2
#     Edge 70, Type (0, 0), BuildingBlock: XIVTED_clean_linker_0, # of connection points: 2
#     Edge 71, Type (0, 0), BuildingBlock: XIVTED_clean_linker_0, # of connection points: 2
#     Edge 72, Type (0, 0), BuildingBlock: XIVTED_clean_linker_0, # of connection points: 2
#     Edge 73, Type (0, 0), BuildingBlock: XIVTED_clean_linker_0, # of connection points: 2
#     Edge 74, Type (0, 0), BuildingBlock: XIVTED_clean_linker_0, # of connection points: 2
#     Edge 75, Type (0, 0), BuildingBlock: XIVTED_clean_linker_0, # of connection points: 2
#     Edge 76, Type (0, 0), BuildingBlock: XIVTED_clean_linker_0, # of connection points: 2
#     Edge 77, Type (0, 0), BuildingBlock: XIVTED_clean_linker_0, # of connection points: 2
#     Edge 78, Type (0, 0), BuildingBlock: XIVTED_clean_linker_0, # of connection points: 2
#     Edge 79, Type (0, 0), BuildingBlock: XIVTED_clean_linker_0, # of connection points: 2
#     Edge 80, Type (0, 0), BuildingBlock: XIVTED_clean_linker_0, # of connection points: 2
#     Edge 81, Type (0, 0), BuildingBlock: XIVTED_clean_linker_0, # of connection points: 2
#     Edge 82, Type (0, 0), BuildingBlock: XIVTED_clean_linker_0, # of connection points: 2
#     Edge 83, Type (0, 0), BuildingBlock: XIVTED_clean_linker_0, # of connection points: 2
#     Edge 84, Type (0, 0), BuildingBlock: XIVTED_clean_linker_0, # of connection points: 2
#     Edge 85, Type (0, 0), BuildingBlock: XIVTED_clean_linker_0, # of connection points: 2
#     Edge 86, Type (0, 0), BuildingBlock: XIVTED_clean_linker_0, # of connection points: 2
#     Edge 87, Type (0, 0), BuildingBlock: XIVTED_clean_linker_0, # of connection points: 2
#     Edge 88, Type (0, 0), BuildingBlock: XIVTED_clean_linker_0, # of connection points: 2
#     Edge 89, Type (0, 0), BuildingBlock: XIVTED_clean_linker_0, # of connection points: 2
#     Edge 90, Type (0, 0), BuildingBlock: XIVTED_clean_linker_0, # of connection points: 2
#     Edge 91, Type (0, 0), BuildingBlock: XIVTED_clean_linker_0, # of connection points: 2
#     Edge 92, Type (0, 0), BuildingBlock: XIVTED_clean_linker_0, # of connection points: 2
#     Edge 93, Type (0, 0), BuildingBlock: XIVTED_clean_linker_0, # of connection points: 2
#     Edge 94, Type (0, 0), BuildingBlock: XIVTED_clean_linker_0, # of connection points: 2
#     Edge 95, Type (0, 0), BuildingBlock: XIVTED_clean_linker_0, # of connection points: 2
# Relax obj value: 0.062
# Max RMSD: 0.101
# Mean RMSD: 0.101
data_MOF--net-ukc--node1-AZAVOO_clean_sbu_0--edge1-XIVTED_clean_linker_0
_symmetry_space_group_name_H-M    P1
_symmetry_Int_Tables_number       1
_symmetry_cell_setting            triclinic
loop_
_symmetry_equiv_pos_as_xyz
'x, y, z'
_cell_length_a     45.886339
_cell_length_b     45.833316
_cell_length_c     85.726504
_cell_angle_alpha  89.965367
_cell_angle_beta   89.968388
_cell_angle_gamma 89.867863
loop_
_atom_site_label
_atom_site_type_symbol
_atom_site_fract_x
_atom_site_fract_y
_atom_site_fract_z
_atom_type_partial_charge
Mg0 Mg 0.09379 0.37776 0.02913 0.0
O1 O 0.07987 0.33701 0.01587 0.0
O2 O 0.10749 0.29963 0.0238 0.0
Mg3 Mg 0.13907 0.3166 0.04241 0.0
C4 C 0.08704 0.3101 0.01535 0.0
C5 C 0.05104 0.42528 0.01776 0.0
O6 O 0.04909 0.42831 0.03297 0.0
O7 O 0.1349 0.38138 0.01437 0.0
O8 O 0.16219 0.34592 0.02486 0.0
O9 O 0.06188 0.36694 0.04796 0.0
O10 O 0.10751 0.3514 0.04747 0.0
C11 C 0.1589 0.36745 0.01559 0.0
C12 C 0.0822 0.3508 0.05394 0.0
O13 O 0.06823 0.40612 0.01223 0.0
Mg14 Mg 0.8621 0.84881 0.27813 0.0
O15 O 0.90222 0.82454 0.26858 0.0
O16 O 0.94183 0.84565 0.27869 0.0
Mg17 Mg 0.92757 0.88262 0.29467 0.0
C18 C 0.92986 0.82649 0.27002 0.0
C19 C 0.81017 0.81462 0.26596 0.0
O20 O 0.80421 0.81825 0.28083 0.0
O21 O 0.87043 0.88761 0.262 0.0
O22 O 0.90965 0.90676 0.2736 0.0
O23 O 0.86116 0.819 0.29868 0.0
O24 O 0.88564 0.86045 0.29787 0.0
C25 C 0.8902 0.90709 0.26298 0.0
C26 C 0.87902 0.83696 0.3053 0.0
O27 O 0.83327 0.8259 0.26046 0.0
Mg28 Mg 0.40215 0.61899 0.52738 0.0
O29 O 0.42615 0.65864 0.51732 0.0
O30 O 0.40285 0.69892 0.52516 0.0
Mg31 Mg 0.36423 0.68543 0.54017 0.0
C32 C 0.42336 0.68636 0.51766 0.0
C33 C 0.44256 0.56845 0.51733 0.0
O34 O 0.44139 0.56453 0.5325 0.0
O35 O 0.36538 0.62409 0.5097 0.0
O36 O 0.34353 0.66431 0.51886 0.0
O37 O 0.4291 0.62212 0.54896 0.0
O38 O 0.38677 0.64438 0.54572 0.0
C39 C 0.34532 0.64341 0.50908 0.0
C40 C 0.40944 0.63989 0.55422 0.0
O41 O 0.42809 0.58925 0.51128 0.0
Mg42 Mg 0.62745 0.15433 0.78073 0.0
O43 O 0.58772 0.17291 0.76816 0.0
O44 O 0.54847 0.14877 0.77653 0.0
Mg45 Mg 0.56286 0.11613 0.7953 0.0
C46 C 0.56032 0.16824 0.76796 0.0
C47 C 0.67783 0.19219 0.76922 0.0
O48 O 0.68127 0.19268 0.78443 0.0
O49 O 0.62608 0.11261 0.76621 0.0
O50 O 0.5892 0.08928 0.77788 0.0
O51 O 0.62144 0.18704 0.79975 0.0
O52 O 0.6013 0.14331 0.79964 0.0
C53 C 0.61031 0.08998 0.76819 0.0
C54 C 0.60414 0.16834 0.80624 0.0
O55 O 0.65723 0.17715 0.76348 0.0
Mg56 Mg 0.10006 0.61183 0.43683 0.0
O57 O 0.07916 0.65346 0.44674 0.0
O58 O 0.09879 0.69137 0.4341 0.0
Mg59 Mg 0.13114 0.67445 0.41603 0.0
C60 C 0.08148 0.68088 0.44433 0.0
C61 C 0.07157 0.56029 0.45214 0.0
O62 O 0.07487 0.55281 0.43745 0.0
O63 O 0.14253 0.62077 0.44981 0.0
O64 O 0.16017 0.65763 0.43558 0.0
O65 O 0.06533 0.60954 0.41863 0.0
O66 O 0.10691 0.63334 0.41593 0.0
C67 C 0.16246 0.63933 0.44673 0.0
C68 C 0.08166 0.62672 0.41046 0.0
O69 O 0.0813 0.58483 0.4566 0.0
Mg70 Mg 0.62645 0.84325 0.69413 0.0
O71 O 0.58686 0.82413 0.70664 0.0
O72 O 0.54774 0.84911 0.69867 0.0
Mg73 Mg 0.56183 0.88297 0.68055 0.0
C74 C 0.55946 0.82899 0.70687 0.0
C75 C 0.67816 0.80624 0.70392 0.0
O76 O 0.6809 0.80848 0.6887 0.0
O77 O 0.62572 0.88412 0.70937 0.0
O78 O 0.58878 0.90838 0.69823 0.0
O79 O 0.61959 0.81166 0.67466 0.0
O80 O 0.59997 0.85566 0.67558 0.0
C81 C 0.61004 0.90699 0.70778 0.0
C82 C 0.60227 0.83092 0.66861 0.0
O83 O 0.65703 0.81921 0.71056 0.0
Mg84 Mg 0.39891 0.37995 0.93674 0.0
O85 O 0.41459 0.33866 0.94907 0.0
O86 O 0.38784 0.30125 0.94056 0.0
Mg87 Mg 0.35574 0.31859 0.92226 0.0
C88 C 0.40812 0.31158 0.94912 0.0
C89 C 0.43815 0.42905 0.94817 0.0
O90 O 0.43717 0.4335 0.93304 0.0
O91 O 0.35795 0.38115 0.95164 0.0
O92 O 0.33152 0.34596 0.94042 0.0
O93 O 0.43078 0.37199 0.9176 0.0
O94 O 0.38577 0.3549 0.91784 0.0
C95 C 0.33431 0.36683 0.95016 0.0
C96 C 0.4109 0.35602 0.91118 0.0
O97 O 0.42377 0.40799 0.95394 0.0
Mg98 Mg 0.86993 0.15606 0.1908 0.0
O99 O 0.90835 0.17896 0.20275 0.0
O100 O 0.9493 0.15843 0.19379 0.0
Mg101 Mg 0.93767 0.12352 0.176 0.0
C102 C 0.9361 0.17683 0.20246 0.0
C103 C 0.81683 0.19039 0.20236 0.0
O104 O 0.81329 0.19057 0.18715 0.0
O105 O 0.87578 0.11525 0.20585 0.0
O106 O 0.91624 0.0968 0.19512 0.0
O107 O 0.87236 0.18821 0.17126 0.0
O108 O 0.89635 0.14639 0.17176 0.0
C109 C 0.89529 0.09541 0.20487 0.0
C110 C 0.89105 0.17075 0.16484 0.0
O111 O 0.83859 0.17693 0.20808 0.0
Mg112 Mg 0.89992 0.60541 0.93354 0.0
O113 O 0.91903 0.64526 0.94603 0.0
O114 O 0.89877 0.68512 0.93548 0.0
Mg115 Mg 0.86786 0.6712 0.91605 0.0
C116 C 0.91584 0.67294 0.94529 0.0
C117 C 0.93236 0.55324 0.94709 0.0
O118 O 0.93374 0.54889 0.93195 0.0
O119 O 0.85692 0.6111 0.94663 0.0
O120 O 0.83895 0.65031 0.93441 0.0
O121 O 0.93531 0.60765 0.91564 0.0
O122 O 0.89316 0.63086 0.91386 0.0
C123 C 0.83679 0.62997 0.9445 0.0
C124 C 0.91875 0.62595 0.9083 0.0
O125 O 0.91855 0.57537 0.95214 0.0
Mg126 Mg 0.12661 0.14756 0.69032 0.0
O127 O 0.08617 0.16302 0.70344 0.0
O128 O 0.04847 0.1358 0.69581 0.0
Mg129 Mg 0.06486 0.10299 0.67765 0.0
C130 C 0.05918 0.15642 0.70401 0.0
C131 C 0.17578 0.18818 0.70041 0.0
O132 O 0.17915 0.18711 0.6852 0.0
O133 O 0.12974 0.10714 0.70557 0.0
O134 O 0.09389 0.08 0.69549 0.0
O135 O 0.11605 0.17883 0.67126 0.0
O136 O 0.10036 0.13329 0.67215 0.0
C137 C 0.11549 0.08334 0.70469 0.0
C138 C 0.09995 0.1584 0.66542 0.0
O139 O 0.15544 0.17346 0.70665 0.0
Mg140 Mg 0.59601 0.38568 0.43643 0.0
O141 O 0.58032 0.34567 0.45015 0.0
O142 O 0.60161 0.3063 0.43966 0.0
Mg143 Mg 0.63037 0.32058 0.41932 0.0
C144 C 0.58465 0.31812 0.44967 0.0
C145 C 0.56442 0.43875 0.4491 0.0
O146 O 0.56463 0.44276 0.43392 0.0
O147 O 0.64062 0.38379 0.44839 0.0
O148 O 0.65956 0.34522 0.43606 0.0
O149 O 0.55913 0.37965 0.41956 0.0
O150 O 0.60254 0.35902 0.41731 0.0
C151 C 0.66178 0.36633 0.44567 0.0
C152 C 0.57616 0.36146 0.41246 0.0
O153 O 0.57706 0.41633 0.45465 0.0
Mg154 Mg 0.36457 0.85205 0.19119 0.0
O155 O 0.4046 0.82816 0.20104 0.0
O156 O 0.4443 0.85018 0.19161 0.0
Mg157 Mg 0.43011 0.88768 0.17592 0.0
C158 C 0.43226 0.83048 0.19992 0.0
C159 C 0.31201 0.8179 0.20245 0.0
O160 O 0.30653 0.82249 0.18761 0.0
O161 O 0.37133 0.89028 0.20768 0.0
O162 O 0.4107 0.91101 0.19702 0.0
O163 O 0.36547 0.82277 0.17055 0.0
O164 O 0.38875 0.86489 0.1719 0.0
C165 C 0.39056 0.91034 0.20729 0.0
C166 C 0.38322 0.84133 0.16429 0.0
O167 O 0.33521 0.82831 0.20828 0.0
Mg168 Mg 0.89899 0.38741 0.52818 0.0
O169 O 0.92182 0.34767 0.51739 0.0
O170 O 0.89757 0.30749 0.52434 0.0
Mg171 Mg 0.85864 0.32145 0.53905 0.0
C172 C 0.91852 0.32001 0.51722 0.0
C173 C 0.94097 0.43743 0.5189 0.0
O174 O 0.93916 0.44189 0.53401 0.0
O175 O 0.86275 0.38537 0.51013 0.0
O176 O 0.83985 0.34468 0.51777 0.0
O177 O 0.92556 0.38113 0.54961 0.0
O178 O 0.88232 0.36113 0.54578 0.0
C179 C 0.84256 0.36649 0.50863 0.0
C180 C 0.90527 0.36358 0.55429 0.0
O181 O 0.92636 0.41686 0.51282 0.0
Mg182 Mg 0.3557 0.14962 0.28707 0.0
O183 O 0.39673 0.17058 0.27671 0.0
O184 O 0.4356 0.14904 0.28752 0.0
Mg185 Mg 0.41976 0.11506 0.305 0.0
C186 C 0.42428 0.1675 0.27813 0.0
C187 C 0.30712 0.18731 0.27296 0.0
O188 O 0.30188 0.18922 0.288 0.0
O189 O 0.36299 0.10869 0.27234 0.0
O190 O 0.40123 0.08915 0.28473 0.0
O191 O 0.35589 0.18209 0.30651 0.0
O192 O 0.37896 0.13972 0.30717 0.0
C193 C 0.38195 0.08848 0.27403 0.0
C194 C 0.37336 0.16441 0.31367 0.0
O195 O 0.32809 0.17135 0.26832 0.0
Mg196 Mg 0.59919 0.60943 0.02645 0.0
O197 O 0.57598 0.64994 0.01664 0.0
O198 O 0.59879 0.68933 0.02594 0.0
Mg199 Mg 0.63601 0.67443 0.04157 0.0
C200 C 0.57888 0.67759 0.01768 0.0
C201 C 0.56276 0.55818 0.01478 0.0
O202 O 0.56512 0.55269 0.02978 0.0
O203 O 0.63724 0.61569 0.00981 0.0
O204 O 0.65854 0.65493 0.02029 0.0
O205 O 0.57013 0.61073 0.04719 0.0
O206 O 0.61253 0.63341 0.04568 0.0
C207 C 0.65741 0.6348 0.01003 0.0
C208 C 0.589 0.62822 0.05337 0.0
O209 O 0.57514 0.58067 0.00924 0.0
Mg210 Mg 0.12682 0.84675 0.78602 0.0
O211 O 0.0871 0.83272 0.77198 0.0
O212 O 0.04875 0.85916 0.77967 0.0
Mg213 Mg 0.06418 0.89015 0.79894 0.0
C214 C 0.06013 0.83938 0.77109 0.0
C215 C 0.17619 0.80625 0.77478 0.0
O216 O 0.17923 0.80455 0.78999 0.0
O217 O 0.13031 0.8885 0.77189 0.0
O218 O 0.09373 0.91478 0.78201 0.0
O219 O 0.11568 0.8139 0.80424 0.0
O220 O 0.09967 0.85941 0.80419 0.0
C221 C 0.11583 0.91219 0.77306 0.0
C222 C 0.09928 0.83383 0.8104 0.0
O223 O 0.15629 0.82248 0.76919 0.0
Mg224 Mg 0.60112 0.88289 0.53598 0.0
O225 O 0.58188 0.84357 0.52304 0.0
O226 O 0.60203 0.80337 0.53326 0.0
Mg227 Mg 0.63327 0.81648 0.55267 0.0
C228 C 0.58482 0.81585 0.52362 0.0
C229 C 0.57144 0.93716 0.52376 0.0
O230 O 0.57374 0.94149 0.53886 0.0
O231 O 0.64441 0.87828 0.52297 0.0
O232 O 0.66238 0.8388 0.53489 0.0
O233 O 0.56555 0.87967 0.55363 0.0
O234 O 0.60778 0.85664 0.55545 0.0
C235 C 0.66475 0.85962 0.5251 0.0
C236 C 0.582 0.86115 0.56089 0.0
O237 O 0.58218 0.91399 0.51797 0.0
Mg238 Mg 0.36177 0.34614 0.77627 0.0
O239 O 0.40132 0.32538 0.76444 0.0
O240 O 0.44088 0.34862 0.77313 0.0
Mg241 Mg 0.42689 0.38249 0.79131 0.0
C242 C 0.42888 0.32917 0.76463 0.0
C243 C 0.30921 0.31226 0.76476 0.0
O244 O 0.3049 0.31401 0.77989 0.0
O245 O 0.36562 0.38705 0.76133 0.0
O246 O 0.40268 0.40973 0.77313 0.0
O247 O 0.3654 0.31371 0.79554 0.0
O248 O 0.38749 0.35651 0.79541 0.0
C249 C 0.38209 0.40919 0.76313 0.0
C250 C 0.38336 0.33168 0.80207 0.0
O251 O 0.33158 0.32436 0.75893 0.0
Mg252 Mg 0.90078 0.11946 0.03041 0.0
O253 O 0.92663 0.15514 0.01778 0.0
O254 O 0.90856 0.1983 0.02515 0.0
Mg255 Mg 0.872 0.19065 0.04265 0.0
C256 C 0.92642 0.18296 0.01719 0.0
C257 C 0.93393 0.06409 0.02081 0.0
O258 O 0.93322 0.06168 0.03608 0.0
O259 O 0.86132 0.12618 0.0145 0.0
O260 O 0.84513 0.16895 0.02367 0.0
O261 O 0.93177 0.1222 0.0504 0.0
O262 O 0.89136 0.14822 0.04849 0.0
C263 C 0.84286 0.1471 0.01453 0.0
C264 C 0.91492 0.14235 0.05598 0.0
O265 O 0.9212 0.08565 0.0144 0.0
Mg266 Mg 0.13331 0.64551 0.27458 0.0
O267 O 0.09257 0.66827 0.26478 0.0
O268 O 0.05342 0.64339 0.27272 0.0
Mg269 Mg 0.06883 0.60422 0.28681 0.0
C270 C 0.06498 0.66466 0.26538 0.0
C271 C 0.1835 0.68598 0.26544 0.0
O272 O 0.18817 0.6818 0.2804 0.0
O273 O 0.13025 0.60947 0.25645 0.0
O274 O 0.09065 0.58584 0.26498 0.0
O275 O 0.12859 0.67175 0.2962 0.0
O276 O 0.10859 0.62839 0.29267 0.0
C277 C 0.11164 0.58895 0.25535 0.0
C278 C 0.11159 0.65127 0.3012 0.0
O279 O 0.16204 0.67332 0.25901 0.0
Mg280 Mg 0.59562 0.1171 0.94166 0.0
O281 O 0.56949 0.15421 0.95305 0.0
O282 O 0.58892 0.19636 0.94507 0.0
Mg283 Mg 0.62631 0.1867 0.92841 0.0
C284 C 0.57023 0.18206 0.95301 0.0
C285 C 0.56201 0.06264 0.95188 0.0
O286 O 0.56381 0.05911 0.9367 0.0
O287 O 0.63431 0.12415 0.95803 0.0
O288 O 0.65175 0.16584 0.94823 0.0
O289 O 0.56561 0.11879 0.92123 0.0
O290 O 0.60617 0.14445 0.9231 0.0
C291 C 0.65314 0.14464 0.95785 0.0
C292 C 0.58278 0.13844 0.91549 0.0
O293 O 0.57413 0.0847 0.95805 0.0
Mg294 Mg 0.13881 0.34198 0.1839 0.0
O295 O 0.09812 0.32599 0.19684 0.0
O296 O 0.05918 0.3462 0.18539 0.0
Mg297 Mg 0.07456 0.37461 0.16512 0.0
C298 C 0.0706 0.32982 0.1958 0.0
C299 C 0.18915 0.30841 0.19855 0.0
O300 O 0.19368 0.30547 0.1835 0.0
O301 O 0.135 0.38688 0.19548 0.0
O302 O 0.09691 0.40474 0.18232 0.0
O303 O 0.13489 0.30451 0.16724 0.0
O304 O 0.1137 0.34746 0.16404 0.0
C305 C 0.11718 0.40756 0.19238 0.0
C306 C 0.11715 0.32097 0.15947 0.0
O307 O 0.16778 0.3239 0.20312 0.0
Mg308 Mg 0.90183 0.88777 0.44317 0.0
O309 O 0.92634 0.84703 0.4517 0.0
O310 O 0.90243 0.8077 0.44319 0.0
Mg311 Mg 0.86268 0.8229 0.42954 0.0
C312 C 0.9235 0.81939 0.45059 0.0
C313 C 0.94247 0.93741 0.45337 0.0
O314 O 0.9391 0.94301 0.43845 0.0
O315 O 0.86641 0.88156 0.46149 0.0
O316 O 0.84393 0.84211 0.45191 0.0
O317 O 0.92736 0.88623 0.42112 0.0
O318 O 0.88502 0.86419 0.42458 0.0
C319 C 0.84651 0.86218 0.46213 0.0
C320 C 0.9073 0.86905 0.41584 0.0
O321 O 0.92916 0.91579 0.45931 0.0
Mg322 Mg 0.35629 0.65658 0.68983 0.0
O323 O 0.39615 0.67672 0.70153 0.0
O324 O 0.43553 0.65343 0.69251 0.0
Mg325 Mg 0.42111 0.62031 0.67404 0.0
C326 C 0.42368 0.67266 0.70125 0.0
C327 C 0.30486 0.69202 0.70242 0.0
O328 O 0.30038 0.69257 0.68729 0.0
O329 O 0.36073 0.61533 0.70454 0.0
O330 O 0.39747 0.5928 0.69224 0.0
O331 O 0.35935 0.68915 0.67046 0.0
O332 O 0.38147 0.6463 0.67046 0.0
C333 C 0.37722 0.5932 0.70244 0.0
C334 C 0.377 0.67102 0.66374 0.0
O335 O 0.32671 0.6781 0.70768 0.0
Mg336 Mg 0.40278 0.11957 0.4511 0.0
O337 O 0.42829 0.15889 0.46043 0.0
O338 O 0.40473 0.19944 0.45322 0.0
Mg339 Mg 0.36463 0.18653 0.43927 0.0
C340 C 0.42578 0.18664 0.46016 0.0
C341 C 0.44323 0.06841 0.45989 0.0
O342 O 0.44004 0.06446 0.44481 0.0
O343 O 0.36771 0.12506 0.46974 0.0
O344 O 0.34565 0.16563 0.46113 0.0
O345 O 0.42758 0.12228 0.42878 0.0
O346 O 0.38592 0.1451 0.43318 0.0
C347 C 0.34805 0.1447 0.47087 0.0
C348 C 0.4076 0.1402 0.42403 0.0
O349 O 0.42993 0.08949 0.46641 0.0
Mg350 Mg 0.63276 0.64503 0.19108 0.0
O351 O 0.59259 0.6691 0.20067 0.0
O352 O 0.5529 0.64732 0.19111 0.0
Mg353 Mg 0.56721 0.60962 0.17563 0.0
C354 C 0.56493 0.66695 0.19944 0.0
C355 C 0.68406 0.68139 0.20249 0.0
O356 O 0.6896 0.67803 0.18755 0.0
O357 O 0.62564 0.60689 0.20776 0.0
O358 O 0.58615 0.58677 0.19691 0.0
O359 O 0.63225 0.67395 0.17022 0.0
O360 O 0.60887 0.63193 0.17172 0.0
C361 C 0.60605 0.58717 0.20729 0.0
C362 C 0.61461 0.6553 0.16399 0.0
O363 O 0.6616 0.66926 0.20823 0.0
Mg364 Mg 0.08592 0.87559 0.94308 0.0
O365 O 0.0655 0.83559 0.95495 0.0
O366 O 0.0858 0.79607 0.94408 0.0
Mg367 Mg 0.11793 0.8101 0.9253 0.0
C368 C 0.06832 0.80792 0.95379 0.0
C369 C 0.05578 0.92892 0.95573 0.0
O370 O 0.0582 0.93352 0.94065 0.0
O371 O 0.12863 0.86937 0.95648 0.0
O372 O 0.14637 0.83035 0.944 0.0
O373 O 0.05107 0.87428 0.92496 0.0
O374 O 0.09303 0.85073 0.92318 0.0
C375 C 0.14861 0.85036 0.95426 0.0
C376 C 0.06758 0.85607 0.91753 0.0
O377 O 0.06665 0.90573 0.96144 0.0
Mg378 Mg 0.86387 0.34095 0.68848 0.0
O379 O 0.901 0.31565 0.70027 0.0
O380 O 0.9429 0.33224 0.69035 0.0
Mg381 Mg 0.93292 0.36632 0.67172 0.0
C382 C 0.9288 0.31561 0.6996 0.0
C383 C 0.80913 0.31232 0.70136 0.0
O384 O 0.80462 0.31258 0.68623 0.0
O385 O 0.87413 0.38223 0.70244 0.0
O386 O 0.9149 0.39657 0.69038 0.0
O387 O 0.86195 0.30749 0.66952 0.0
O388 O 0.88966 0.34682 0.66884 0.0
C389 C 0.89488 0.40045 0.7005 0.0
C390 C 0.88162 0.32278 0.66245 0.0
O391 O 0.83221 0.32392 0.70667 0.0
Mg392 Mg 0.39697 0.87997 0.02629 0.0
O393 O 0.41979 0.83922 0.0165 0.0
O394 O 0.39771 0.8001 0.02663 0.0
Mg395 Mg 0.36144 0.81529 0.04281 0.0
C396 C 0.41707 0.8116 0.0179 0.0
C397 C 0.43264 0.93089 0.01447 0.0
O398 O 0.42942 0.93609 0.02945 0.0
O399 O 0.35775 0.87315 0.01034 0.0
O400 O 0.33757 0.83433 0.02189 0.0
O401 O 0.42713 0.87948 0.04662 0.0
O402 O 0.38482 0.85657 0.04603 0.0
C403 C 0.33769 0.85398 0.01135 0.0
C404 C 0.40867 0.86223 0.05332 0.0
O405 O 0.42053 0.90848 0.00866 0.0
Mg406 Mg 0.87311 0.64774 0.77344 0.0
O407 O 0.90868 0.67577 0.76215 0.0
O408 O 0.95178 0.65635 0.7685 0.0
Mg409 Mg 0.94422 0.61669 0.78397 0.0
C410 C 0.93648 0.67568 0.76156 0.0
C411 C 0.81784 0.68271 0.7653 0.0
O412 O 0.81584 0.68075 0.78056 0.0
O413 O 0.87952 0.61112 0.75574 0.0
O414 O 0.92225 0.59302 0.76383 0.0
O415 O 0.87604 0.6751 0.79489 0.0
O416 O 0.90194 0.6351 0.79091 0.0
C417 C 0.90021 0.59253 0.75476 0.0
C418 C 0.89616 0.65727 0.79956 0.0
O419 O 0.83918 0.67051 0.75844 0.0
Mg420 Mg 0.0939 0.11965 0.53388 0.0
O421 O 0.07558 0.16013 0.5215 0.0
O422 O 0.09396 0.19921 0.53363 0.0
Mg423 Mg 0.12264 0.18422 0.55383 0.0
C424 C 0.07812 0.18775 0.52303 0.0
C425 C 0.06894 0.06574 0.51919 0.0
O426 O 0.07131 0.05955 0.53411 0.0
O427 O 0.13874 0.12612 0.52281 0.0
O428 O 0.15478 0.16406 0.53672 0.0
O429 O 0.05605 0.12027 0.55026 0.0
O430 O 0.09746 0.14371 0.55421 0.0
C431 C 0.15864 0.14438 0.5264 0.0
C432 C 0.07121 0.13821 0.55859 0.0
O433 O 0.0781 0.09029 0.51438 0.0
Mg434 Mg 0.62784 0.34044 0.28194 0.0
O435 O 0.58767 0.32004 0.27029 0.0
O436 O 0.54831 0.34192 0.28042 0.0
Mg437 Mg 0.56265 0.37562 0.29832 0.0
C438 C 0.56006 0.32335 0.27125 0.0
C439 C 0.67989 0.3061 0.26965 0.0
O440 O 0.68405 0.30647 0.28481 0.0
O441 O 0.62309 0.38217 0.26744 0.0
O442 O 0.58402 0.40171 0.27902 0.0
O443 O 0.62483 0.30701 0.30087 0.0
O444 O 0.60241 0.34973 0.30137 0.0
C445 C 0.60438 0.40266 0.26892 0.0
C446 C 0.60656 0.32449 0.30758 0.0
O447 O 0.65783 0.31928 0.26408 0.0
H448 H 0.93503 0.55598 0.97904 0.0
H449 H 0.04795 0.42308 -0.01412 0.0
H450 H 0.96593 0.50594 0.93969 0.0
H451 H 0.01329 0.46919 0.02572 0.0
H452 H 0.01806 0.45347 0.9688 0.0
H453 H 0.96331 0.52442 -0.00359 0.0
C454 C 0.94765 0.5383 0.97406 0.0
C455 C 0.94815 0.53364 0.95788 0.0
C456 C 0.01695 0.45693 0.98128 0.0
C457 C 0.98067 0.49755 0.97767 0.0
C458 C 0.03407 0.43961 -0.00895 0.0
C459 C 0.03316 0.44362 0.00726 0.0
C460 C -0.00118 0.47851 -0.01225 0.0
C461 C 0.01471 0.46535 0.01328 0.0
C462 C 0.96381 0.5203 0.98398 0.0
C463 C 0.9649 0.51038 0.95208 0.0
N464 N -0.0017 0.482 0.00353 0.0
N465 N 0.98054 0.49329 0.96195 0.0
H466 H 0.67764 0.69537 0.2334 0.0
H467 H 0.81691 0.80052 0.23506 0.0
H468 H 0.73303 0.71085 0.19352 0.0
H469 H 0.76041 0.78623 0.27462 0.0
H470 H 0.78635 0.76788 0.21958 0.0
H471 H 0.708 0.72834 0.24876 0.0
C472 C 0.69624 0.70561 0.22789 0.0
C473 C 0.7028 0.70034 0.21215 0.0
C474 C 0.78061 0.77195 0.23164 0.0
C475 C 0.73756 0.73822 0.22964 0.0
C476 C 0.79802 0.79063 0.24047 0.0
C477 C 0.79123 0.7961 0.25617 0.0
C478 C 0.75627 0.7586 0.23856 0.0
C479 C 0.7665 0.78265 0.26257 0.0
C480 C 0.71353 0.7245 0.23665 0.0
C481 C 0.72715 0.71427 0.20562 0.0
N482 N 0.74997 0.76449 0.25375 0.0
N483 N 0.74362 0.73258 0.21438 0.0
H484 H 0.5347 0.48791 0.44055 0.0
H485 H 0.47573 0.52181 0.52657 0.0
H486 H 0.55661 0.4357 0.48083 0.0
H487 H 0.45166 0.57163 0.48578 0.0
H488 H 0.50655 0.49085 0.51022 0.0
H489 H 0.50566 0.51982 0.45719 0.0
C490 C 0.53352 0.48321 0.45292 0.0
C491 C 0.54808 0.45902 0.4593 0.0
C492 C 0.49453 0.50855 0.50485 0.0
C493 C 0.51467 0.49551 0.47844 0.0
C494 C 0.47689 0.52624 0.51417 0.0
C495 C 0.46103 0.54934 0.50753 0.0
C496 C 0.49638 0.514 0.48876 0.0
C497 C 0.46344 0.55405 0.4914 0.0
C498 C 0.51686 0.50144 0.46242 0.0
C499 C 0.54574 0.45408 0.47541 0.0
N500 N 0.48077 0.53654 0.48258 0.0
N501 N 0.52928 0.47212 0.48443 0.0
H502 H 0.81251 0.30576 0.73313 0.0
H503 H 0.67482 0.19897 0.73749 0.0
H504 H 0.75978 0.2827 0.69331 0.0
H505 H 0.72419 0.22594 0.77782 0.0
H506 H 0.70598 0.22937 0.72109 0.0
H507 H 0.78026 0.27692 0.74977 0.0
C508 C 0.79406 0.29478 0.7279 0.0
C509 C 0.78888 0.29659 0.71179 0.0
C510 C 0.70999 0.22865 0.73353 0.0
C511 C 0.75202 0.26339 0.73075 0.0
C512 C 0.69225 0.21122 0.7429 0.0
C513 C 0.69692 0.20988 0.75906 0.0
C514 C 0.73262 0.24482 0.74036 0.0
C515 C 0.7198 0.2263 0.76542 0.0
C516 C 0.77569 0.27827 0.7374 0.0
C517 C 0.76465 0.2819 0.70566 0.0
N518 N 0.7368 0.24306 0.75606 0.0
N519 N 0.7472 0.26584 0.71513 0.0
H520 H 0.95315 0.4309 0.48788 0.0
H521 H 0.05854 0.56946 0.48306 0.0
H522 H 0.97355 0.48472 0.52772 0.0
H523 H 0.0454 0.50848 0.44535 0.0
H524 H 0.0273 0.53932 0.49969 0.0
H525 H 0.98622 0.46009 0.47206 0.0
C526 C 0.96454 0.4489 0.4933 0.0
C527 C 0.96055 0.45538 0.50915 0.0
C528 C 0.0314 0.5325 0.4878 0.0
C529 C -0.00143 0.48893 0.49107 0.0
C530 C 0.04926 0.54966 0.47831 0.0
C531 C 0.05452 0.54153 0.46278 0.0
C532 C 0.01864 0.50714 0.48166 0.0
C533 C 0.04192 0.51566 0.45724 0.0
C534 C 0.98352 0.46553 0.48426 0.0
C535 C 0.97598 0.47895 0.51554 0.0
N536 N 0.02448 0.4995 0.46664 0.0
N537 N 0.99429 0.49492 0.50647 0.0
H538 H 0.72491 0.77554 0.69291 0.0
H539 H 0.77044 0.71242 0.77651 0.0
H540 H 0.67854 0.79552 0.73544 0.0
H541 H 0.81635 0.69275 0.7338 0.0
H542 H 0.7362 0.74245 0.7617 0.0
H543 H 0.75841 0.74494 0.70776 0.0
C544 C 0.72178 0.77354 0.70539 0.0
C545 C 0.69887 0.78815 0.71294 0.0
C546 C 0.75373 0.73152 0.75556 0.0
C547 C 0.73721 0.753 0.73004 0.0
C548 C 0.77329 0.71433 0.76401 0.0
C549 C 0.79634 0.70006 0.75639 0.0
C550 C 0.75724 0.73451 0.73937 0.0
C551 C 0.79892 0.70334 0.74017 0.0
C552 C 0.74093 0.75601 0.71386 0.0
C553 C 0.69591 0.78469 0.72913 0.0
N554 N 0.77964 0.72026 0.73221 0.0
N555 N 0.71486 0.76745 0.73715 0.0
H556 H 0.4468 0.42489 0.97974 0.0
H557 H 0.55336 0.5629 0.98331 0.0
H558 H 0.47094 0.47605 0.93946 0.0
H559 H 0.53191 0.50973 0.02328 0.0
H560 H 0.5231 0.53141 0.96705 0.0
H561 H 0.47755 0.45601 -0.00406 0.0
C562 C 0.45852 0.44269 0.9743 0.0
C563 C 0.45628 0.44789 0.95821 0.0
C564 C 0.52505 0.5266 0.97938 0.0
C565 C 0.49155 0.48356 0.97669 0.0
C566 C 0.54234 0.54457 -0.01133 0.0
C567 C 0.54515 0.53896 0.00469 0.0
C568 C 0.51041 0.50288 -0.01384 0.0
C569 C 0.53037 0.5149 0.01099 0.0
C570 C 0.47611 0.46043 0.98356 0.0
C571 C 0.472 0.47124 0.95181 0.0
N572 N 0.5136 0.49778 0.00171 0.0
N573 N 0.48896 0.48821 0.96106 0.0
H574 H 0.81842 0.19614 0.23419 0.0
H575 H 0.6776 0.29974 0.23784 0.0
H576 H 0.76886 0.22194 0.19365 0.0
H577 H 0.72802 0.27475 0.27822 0.0
H578 H 0.7107 0.27126 0.22142 0.0
H579 H 0.78517 0.22446 0.25055 0.0
C580 C 0.80051 0.20769 0.22873 0.0
C581 C 0.79644 0.20667 0.21252 0.0
C582 C 0.71453 0.27204 0.23387 0.0
C583 C 0.75833 0.23923 0.23117 0.0
C584 C 0.69565 0.28833 0.24325 0.0
C585 C 0.70003 0.28964 0.25943 0.0
C586 C 0.73793 0.25692 0.24073 0.0
C587 C 0.72378 0.27439 0.26581 0.0
C588 C 0.78154 0.2239 0.23808 0.0
C589 C 0.77285 0.2221 0.20609 0.0
N590 N 0.7418 0.25866 0.25645 0.0
N591 N 0.75472 0.23776 0.21543 0.0
H592 H 0.31165 0.30361 0.73314 0.0
H593 H 0.17365 0.19698 0.732 0.0
H594 H 0.26092 0.28201 0.77397 0.0
H595 H 0.22173 0.22153 0.69073 0.0
H596 H 0.20558 0.22797 0.74757 0.0
H597 H 0.27889 0.27379 0.71734 0.0
C598 C 0.29357 0.29268 0.73877 0.0
C599 C 0.28905 0.29526 0.7549 0.0
C600 C 0.20914 0.2266 0.73511 0.0
C601 C 0.25156 0.26103 0.73692 0.0
C602 C 0.19093 0.20886 0.72621 0.0
C603 C 0.19504 0.20663 0.71003 0.0
C604 C 0.23166 0.24219 0.72779 0.0
C605 C 0.21777 0.22257 0.70316 0.0
C606 C 0.27489 0.27564 0.72975 0.0
C607 C 0.26527 0.28063 0.76158 0.0
N608 N 0.23524 0.23966 0.71208 0.0
N609 N 0.24748 0.26408 0.75256 0.0
H610 H 0.23136 0.71588 0.27567 0.0
H611 H 0.26189 0.79115 0.19302 0.0
H612 H 0.17898 0.70111 0.23461 0.0
H613 H 0.31703 0.80283 0.23333 0.0
H614 H 0.23037 0.75943 0.20838 0.0
H615 H 0.26223 0.74883 0.26061 0.0
C616 C 0.22635 0.71953 0.26348 0.0
C617 C 0.20255 0.70567 0.25638 0.0
C618 C 0.24932 0.76896 0.21389 0.0
C619 C 0.2378 0.74346 0.23908 0.0
C620 C 0.26733 0.78714 0.20513 0.0
C621 C 0.29219 0.79964 0.21189 0.0
C622 C 0.25616 0.76321 0.22955 0.0
C623 C 0.29811 0.79364 0.22763 0.0
C624 C 0.244 0.73838 0.25489 0.0
C625 C 0.19712 0.71128 0.24056 0.0
N626 N 0.28024 0.77581 0.23593 0.0
N627 N 0.2146 0.72974 0.23244 0.0
H628 H 0.31303 0.19018 0.24115 0.0
H629 H 0.18425 0.30692 0.23045 0.0
H630 H 0.26185 0.22436 0.2793 0.0
H631 H 0.23532 0.27248 0.19232 0.0
H632 H 0.21306 0.27753 0.24861 0.0
H633 H 0.28499 0.22046 0.22308 0.0
C634 C 0.29584 0.20397 0.24573 0.0
C635 C 0.28977 0.20471 0.26177 0.0
C636 C 0.21801 0.27647 0.23627 0.0
C637 C 0.25767 0.23954 0.24116 0.0
C638 C 0.20161 0.2933 0.2259 0.0
C639 C 0.20734 0.29213 0.20983 0.0
C640 C 0.24028 0.2583 0.23054 0.0
C641 C 0.23009 0.27406 0.20461 0.0
C642 C 0.27987 0.22131 0.23541 0.0
C643 C 0.26728 0.22306 0.26703 0.0
N644 N 0.24566 0.25782 0.21492 0.0
N645 N 0.25208 0.23975 0.25676 0.0
H646 H 0.22151 0.77035 0.78286 0.0
H647 H 0.2574 0.72517 0.69472 0.0
H648 H 0.1744 0.80308 0.7429 0.0
H649 H 0.30769 0.69582 0.73432 0.0
H650 H 0.22593 0.75272 0.71232 0.0
H651 H 0.25259 0.74195 0.76538 0.0
C652 C 0.2177 0.77159 0.77041 0.0
C653 C 0.19533 0.78916 0.76434 0.0
C654 C 0.24382 0.74024 0.71718 0.0
C655 C 0.2308 0.75664 0.74426 0.0
C656 C 0.2618 0.72445 0.70713 0.0
C657 C 0.28525 0.70818 0.71305 0.0
C658 C 0.24928 0.73976 0.73329 0.0
C659 C 0.28988 0.70808 0.72924 0.0
C660 C 0.23547 0.75536 0.76044 0.0
C661 C 0.19141 0.78988 0.7481 0.0
N662 N 0.27206 0.72366 0.73879 0.0
N663 N 0.20896 0.77384 0.73864 0.0
H664 H 0.54494 0.98766 0.53302 0.0
H665 H 0.4742 0.02108 0.44956 0.0
H666 H 0.55909 0.93364 0.49246 0.0
H667 H 0.45679 0.07183 0.49096 0.0
H668 H 0.50678 0.98985 0.46474 0.0
H669 H 0.51447 0.02 0.51739 0.0
C670 C 0.54178 0.98266 0.52079 0.0
C671 C 0.55453 0.95782 0.51405 0.0
C672 C 0.49584 0.00781 0.4705 0.0
C673 C 0.51945 0.9948 0.49607 0.0
C674 C 0.47719 0.02566 0.46185 0.0
C675 C 0.46268 0.0491 0.46901 0.0
C676 C 0.50007 0.01346 0.48643 0.0
C677 C 0.46746 0.05398 0.48496 0.0
C678 C 0.52429 0.00114 0.51187 0.0
C679 C 0.54966 0.95252 0.49814 0.0
N680 N 0.48574 0.03632 0.49312 0.0
N681 N 0.53242 0.97081 0.48969 0.0
H682 H 0.02853 0.979 0.9465 0.0
H683 H 0.96357 0.01572 0.03088 0.0
H684 H 0.04414 0.92551 -0.01286 0.0
H685 H 0.94363 0.06501 -0.01072 0.0
H686 H 0.99379 0.98286 0.01528 0.0
H687 H -0.00143 0.01149 0.96229 0.0
C688 C 0.02577 0.97413 0.95877 0.0
C689 C 0.03886 0.94944 0.9655 0.0
C690 C 0.98274 0.00082 0.00956 0.0
C691 C 0.00436 0.98661 0.98367 0.0
C692 C 0.96543 0.01958 0.01845 0.0
C693 C 0.95104 0.04319 0.01137 0.0
C694 C 0.98577 0.00574 -0.00652 0.0
C695 C 0.95429 0.0471 -0.00477 0.0
C696 C 0.00856 0.99268 0.96778 0.0
C697 C 0.03447 0.94429 0.98147 0.0
N698 N 0.97136 0.02862 -0.01315 0.0
N699 N 0.01754 0.96271 -0.00998 0.0
H700 H 0.55143 0.06493 0.98331 0.0
H701 H 0.44542 0.92621 0.98327 0.0
H702 H 0.53221 0.01432 0.94213 0.0
H703 H 0.46271 0.97909 0.02388 0.0
H704 H 0.47779 0.95759 0.96802 0.0
H705 H 0.52008 0.03265 -0.00149 0.0
C706 C 0.54073 0.04695 0.97747 0.0
C707 C 0.54441 0.04237 0.96141 0.0
C708 C 0.47446 0.96232 0.98027 0.0
C709 C 0.50834 0.00539 0.97873 0.0
C710 C 0.45594 0.94445 -0.01103 0.0
C711 C 0.45132 0.95005 0.00487 0.0
C712 C 0.48849 0.98591 -0.01247 0.0
C713 C 0.46558 0.97395 0.01165 0.0
C714 C 0.52277 0.02855 -0.01385 0.0
C715 C 0.52999 0.01871 0.95448 0.0
N716 N 0.48352 0.99096 0.00296 0.0
N717 N 0.51254 0.00115 0.96317 0.0
H718 H 0.05667 0.07288 0.48806 0.0
H719 H 0.95692 0.93 0.48411 0.0
H720 H 0.04493 0.01304 0.52646 0.0
H721 H 0.97275 0.98609 0.44453 0.0
H722 H 0.98961 0.96011 0.49969 0.0
H723 H 0.02697 0.04096 0.47166 0.0
C724 C 0.04805 0.05294 0.49301 0.0
C725 C 0.05318 0.04569 0.50868 0.0
C726 C 0.98599 0.96582 0.48759 0.0
C727 C 0.01903 0.00922 0.49004 0.0
C728 C 0.96724 0.94867 0.47869 0.0
C729 C 0.96202 0.95558 0.463 0.0
C730 C -0.00043 0.99014 0.48078 0.0
C731 C 0.9761 0.97998 0.45659 0.0
C732 C 0.03105 0.03475 0.48366 0.0
C733 C 0.04147 0.01958 0.51447 0.0
N734 N 0.99419 0.99642 0.46552 0.0
N735 N 0.02483 0.00239 0.50518 0.0
H736 H 0.98003 0.16175 0.00873 0.0
H737 H 0.03848 0.32317 -0.00195 0.0
H738 H 0.92637 0.23911 0.0065 0.0
H739 H 0.09109 0.25037 0.01343 0.0
H740 H -0.00013 0.28924 -0.00903 0.0
H741 H 0.02206 0.19084 0.00059 0.0
C742 C 0.97689 0.18467 0.00611 0.0
C743 C 0.94985 0.19823 0.00868 0.0
C744 C 0.02014 0.28066 -0.00443 0.0
C745 C 0.99772 0.23147 -0.0006 0.0
C746 C 0.04227 0.30001 -0.00041 0.0
C747 C 0.06772 0.28971 0.00687 0.0
C748 C 0.02344 0.25085 -0.00112 0.0
C749 C 0.07155 0.2594 0.00824 0.0
C750 C 0.00091 0.20125 0.00152 0.0
C751 C 0.947 0.22794 0.00502 0.0
N752 N 0.04935 0.24105 0.00462 0.0
N753 N 0.97075 0.24366 0.0008 0.0
H754 H 0.07968 0.7198 0.25576 0.0
H755 H 0.91425 0.77286 0.25857 0.0
H756 H 0.00593 0.66221 0.26095 0.0
H757 H 0.98864 0.82908 0.26504 0.0
H758 H 0.94728 0.73309 0.25138 0.0
H759 H 0.04613 0.76028 0.25096 0.0
C760 C 0.05648 0.7155 0.25556 0.0
C761 C 0.04558 0.68769 0.25914 0.0
C762 C 0.95629 0.7543 0.25411 0.0
C763 C 0.00715 0.73395 0.25374 0.0
C764 C 0.93746 0.77704 0.25817 0.0
C765 C 0.94876 0.80414 0.26275 0.0
C766 C 0.98655 0.75879 0.25457 0.0
C767 C 0.97901 0.80835 0.26191 0.0
C768 C 0.03734 0.73866 0.25288 0.0
C769 C 0.0153 0.68342 0.25858 0.0
N770 N 0.99688 0.7858 0.25812 0.0
N771 N 0.99712 0.7064 0.25619 0.0
H772 H 0.42073 0.74451 0.51058 0.0
H773 H 0.59002 0.75762 0.51713 0.0
H774 H 0.47873 0.67027 0.50921 0.0
H775 H 0.53314 0.83156 0.50997 0.0
H776 H 0.55102 0.72533 0.50863 0.0
H777 H 0.46181 0.77638 0.50483 0.0
C778 C 0.44204 0.73485 0.5088 0.0
C779 C 0.44645 0.70477 0.51078 0.0
C780 C 0.54721 0.74865 0.50857 0.0
C781 C 0.49369 0.74119 0.50441 0.0
C782 C 0.56951 0.76713 0.51344 0.0
C783 C 0.56457 0.79727 0.51466 0.0
C784 C 0.51962 0.76037 0.50519 0.0
C785 C 0.53777 0.80841 0.50945 0.0
C786 C 0.46551 0.75307 0.50546 0.0
C787 C 0.4744 0.69339 0.50803 0.0
N788 N 0.51604 0.78989 0.50531 0.0
N789 N 0.49711 0.7117 0.50534 0.0
H790 H 0.50171 0.16366 0.76209 0.0
H791 H 0.48735 0.33294 0.7584 0.0
H792 H 0.5753 0.22063 0.75482 0.0
H793 H 0.4137 0.27519 0.75363 0.0
H794 H 0.51982 0.29237 0.75219 0.0
H795 H 0.46921 0.20316 0.75418 0.0
C796 C 0.5111 0.18427 0.75852 0.0
C797 C 0.54125 0.18904 0.75953 0.0
C798 C 0.49652 0.28868 0.75215 0.0
C799 C 0.5041 0.23454 0.7507 0.0
C800 C 0.47795 0.31188 0.75571 0.0
C801 C 0.4478 0.30731 0.75693 0.0
C802 C 0.4849 0.2606 0.7501 0.0
C803 C 0.43683 0.27965 0.75307 0.0
C804 C 0.49251 0.20686 0.75397 0.0
C805 C 0.55218 0.21607 0.7545 0.0
N806 N 0.45542 0.25716 0.75021 0.0
N807 N 0.53357 0.23802 0.75066 0.0
H808 H 0.9795 0.83422 0.45835 0.0
H809 H 0.03016 0.66776 0.45913 0.0
H810 H 0.92098 0.7607 0.45618 0.0
H811 H 0.08595 0.74015 0.44716 0.0
H812 H 0.99213 0.70239 0.46677 0.0
H813 H 0.02005 0.80055 0.46293 0.0
C814 C 0.97505 0.81107 0.45918 0.0
C815 C 0.94692 0.80018 0.45653 0.0
C816 C 0.01292 0.71064 0.46275 0.0
C817 C 0.99315 0.76168 0.46174 0.0
C818 C 0.0347 0.69091 0.45845 0.0
C819 C 0.06103 0.70109 0.45216 0.0
C820 C 0.01763 0.74069 0.46083 0.0
C821 C 0.06573 0.73134 0.45164 0.0
C822 C -0.00177 0.79188 0.46174 0.0
C823 C 0.94243 0.76999 0.45784 0.0
N824 N 0.04408 0.75008 0.4557 0.0
N825 N 0.96538 0.75175 0.46015 0.0
H826 H 0.57395 0.77499 0.71833 0.0
H827 H 0.40845 0.72465 0.71485 0.0
H828 H 0.50075 0.83337 0.71248 0.0
H829 H 0.4824 0.66822 0.70673 0.0
H830 H 0.44166 0.76303 0.72338 0.0
H831 H 0.54009 0.73525 0.72375 0.0
C832 C 0.55081 0.77971 0.71861 0.0
C833 C 0.54014 0.80743 0.7145 0.0
C834 C 0.45053 0.74203 0.72004 0.0
C835 C 0.50138 0.76193 0.7206 0.0
C836 C 0.4316 0.72004 0.71519 0.0
C837 C 0.44271 0.69338 0.70968 0.0
C838 C 0.48074 0.73726 0.71943 0.0
C839 C 0.4729 0.68864 0.71055 0.0
C840 C 0.5315 0.75692 0.72163 0.0
C841 C 0.50993 0.8122 0.71522 0.0
N842 N 0.4909 0.71053 0.71508 0.0
N843 N 0.49157 0.78954 0.7179 0.0
H844 H 0.5713 0.23834 0.96336 0.0
H845 H 0.40307 0.25205 0.95182 0.0
H846 H 0.51474 0.16366 0.95932 0.0
H847 H 0.45803 0.32411 0.96533 0.0
H848 H 0.44142 0.21825 0.95977 0.0
H849 H 0.52912 0.26866 0.96947 0.0
C850 C 0.55003 0.22821 0.96409 0.0
C851 C 0.54641 0.1986 0.9605 0.0
C852 C 0.44486 0.24144 0.96132 0.0
C853 C 0.49788 0.23329 0.96712 0.0
C854 C 0.42293 0.2608 0.95676 0.0
C855 C 0.42763 0.29104 0.95746 0.0
C856 C 0.47179 0.25241 0.9664 0.0
C857 C 0.45363 0.30101 0.96424 0.0
C858 C 0.52591 0.24553 0.96759 0.0
C859 C 0.51845 0.1865 0.96185 0.0
N860 N 0.47497 0.28177 0.96811 0.0
N861 N 0.49512 0.20405 0.96467 0.0
H862 H 0.08459 0.28124 0.21295 0.0
H863 H 0.91933 0.23134 0.21209 0.0
H864 H 0.01184 0.33633 0.20035 0.0
H865 H 0.99347 0.17325 0.2108 0.0
H866 H 0.95204 0.27174 0.21834 0.0
H867 H 0.05038 0.24471 0.22264 0.0
C868 C 0.06147 0.28604 0.21259 0.0
C869 C 0.05101 0.31149 0.20537 0.0
C870 C 0.96101 0.24999 0.21709 0.0
C871 C 0.01188 0.26975 0.21639 0.0
C872 C 0.94236 0.22688 0.21359 0.0
C873 C 0.95385 0.19908 0.21048 0.0
C874 C 0.99123 0.24513 0.21753 0.0
C875 C 0.98381 0.19453 0.21271 0.0
C876 C 0.04197 0.26512 0.2181 0.0
C877 C 0.02084 0.31665 0.20543 0.0
N878 N 0.00156 0.21744 0.21582 0.0
N879 N 0.00229 0.29569 0.21056 0.0
H880 H 0.90801 0.73053 0.9525 0.0
H881 H 0.07491 0.75026 0.96107 0.0
H882 H 0.96726 0.65847 0.95961 0.0
H883 H 0.01384 0.82168 0.96456 0.0
H884 H 0.03562 0.71623 0.96682 0.0
H885 H 0.94469 0.76367 0.96282 0.0
C886 C 0.92857 0.7216 0.95651 0.0
C887 C 0.93492 0.69182 0.95478 0.0
C888 C 0.03087 0.73938 0.96674 0.0
C889 C 0.97721 0.7297 0.96639 0.0
C890 C 0.05334 0.75883 0.96345 0.0
C891 C 0.04743 0.78873 0.96189 0.0
C892 C 0.0022 0.74989 0.9681 0.0
C893 C 0.01925 0.79872 0.96539 0.0
C894 C 0.9495 0.74054 0.96247 0.0
C895 C 0.96163 0.68136 0.96048 0.0
N896 N 0.99747 0.77925 0.96789 0.0
N897 N 0.9821 0.70039 0.96566 0.0
H898 H 0.9094 0.26284 0.71043 0.0
H899 H 0.07244 0.20713 0.71941 0.0
H900 H 0.98592 0.31729 0.70842 0.0
H901 H -0.00028 0.15213 0.70703 0.0
H902 H 0.03835 0.24626 0.72572 0.0
H903 H 0.93992 0.22207 0.71915 0.0
C904 C 0.93247 0.26646 0.71223 0.0
C905 C 0.94531 0.29326 0.70834 0.0
C906 C 0.02985 0.22539 0.72196 0.0
C907 C 0.98016 0.24687 0.71829 0.0
C908 C 0.04929 0.20295 0.71838 0.0
C909 C 0.03899 0.17657 0.71215 0.0
C910 C -4e-05 0.22143 0.71928 0.0
C911 C 0.00871 0.17235 0.7114 0.0
C912 C 0.94986 0.24315 0.71716 0.0
C913 C 0.97527 0.29677 0.71096 0.0
N914 N 0.99025 0.19479 0.71458 0.0
N915 N 0.99175 0.27371 0.71556 0.0
H916 H 0.59145 0.25959 0.45513 0.0
H917 H 0.4237 0.24427 0.46825 0.0
H918 H 0.53494 0.33239 0.46572 0.0
H919 H 0.48225 0.17054 0.4661 0.0
H920 H 0.46521 0.27619 0.47287 0.0
H921 H 0.55409 0.22636 0.4647 0.0
C922 C 0.57144 0.26865 0.45979 0.0
C923 C 0.566 0.29879 0.4592 0.0
C924 C 0.469 0.25296 0.47172 0.0
C925 C 0.52291 0.26081 0.46994 0.0
C926 C 0.44527 0.23472 0.46903 0.0
C927 C 0.44961 0.20482 0.4664 0.0
C928 C 0.49733 0.2413 0.47145 0.0
C929 C 0.47795 0.19355 0.46785 0.0
C930 C 0.55007 0.24963 0.46527 0.0
C931 C 0.5399 0.30929 0.46568 0.0
N932 N 0.50083 0.21191 0.46991 0.0
N933 N 0.51903 0.29027 0.47042 0.0
H934 H 0.41632 0.77649 0.21075 0.0
H935 H 0.58094 0.72081 0.21039 0.0
H936 H 0.49119 0.83226 0.20467 0.0
H937 H 0.50599 0.66525 0.20414 0.0
H938 H 0.54827 0.76136 0.21669 0.0
H939 H 0.44905 0.73585 0.21676 0.0
C940 C 0.43959 0.78039 0.21102 0.0
C941 C 0.45107 0.80766 0.20684 0.0
C942 C 0.53904 0.74013 0.21421 0.0
C943 C 0.48854 0.76125 0.21364 0.0
C944 C 0.55767 0.71694 0.21067 0.0
C945 C 0.54614 0.68977 0.20638 0.0
C946 C 0.50874 0.73605 0.21352 0.0
C947 C 0.5158 0.686 0.20705 0.0
C948 C 0.45825 0.75713 0.21439 0.0
C949 C 0.48141 0.81145 0.20749 0.0
N950 N 0.49814 0.70899 0.21032 0.0
N951 N 0.49911 0.78839 0.21058 0.0
H952 H 0.9156 0.26213 0.50955 0.0
H953 H 0.08408 0.24635 0.51792 0.0
H954 H 0.97416 0.33571 0.50922 0.0
H955 H 0.02743 0.17365 0.50799 0.0
H956 H 0.04578 0.2797 0.50944 0.0
H957 H 0.95658 0.22998 0.50374 0.0
C958 C 0.93701 0.2716 0.50797 0.0
C959 C 0.94158 0.30155 0.51027 0.0
C960 C 0.0419 0.25644 0.50876 0.0
C961 C 0.98871 0.2648 0.50384 0.0
C962 C 0.0638 0.23737 0.51361 0.0
C963 C 0.05867 0.20721 0.51404 0.0
C964 C 0.01449 0.24529 0.50461 0.0
C965 C 0.03219 0.19677 0.50807 0.0
C966 C 0.96043 0.25322 0.5046 0.0
C967 C 0.96968 0.31268 0.50779 0.0
N968 N 0.0108 0.21583 0.50398 0.0
N969 N 0.99231 0.29421 0.50507 0.0
H970 H 0.48264 0.16116 0.27256 0.0
H971 H 0.50216 0.32921 0.26441 0.0
H972 H 0.41061 0.22014 0.26481 0.0
H973 H 0.5738 0.26833 0.26121 0.0
H974 H 0.46832 0.28949 0.25917 0.0
H975 H 0.51608 0.19874 0.26345 0.0
C976 C 0.47381 0.18188 0.26871 0.0
C977 C 0.44386 0.18779 0.26982 0.0
C978 C 0.49148 0.28487 0.25923 0.0
C979 C 0.48208 0.23107 0.25955 0.0
C980 C 0.51083 0.30759 0.26221 0.0
C981 C 0.54076 0.30191 0.26365 0.0
C982 C 0.50213 0.25621 0.258 0.0
C983 C 0.55084 0.27361 0.26044 0.0
C984 C 0.49292 0.20332 0.26343 0.0
C985 C 0.43358 0.2148 0.26437 0.0
N986 N 0.53148 0.25164 0.25817 0.0
N987 N 0.45274 0.23569 0.2598 0.0
H988 H 0.41283 0.753 0.01248 0.0
H989 H 0.58286 0.73606 0.01172 0.0
H990 H 0.47154 0.8258 0.00722 0.0
H991 H 0.52398 0.6631 0.00781 0.0
H992 H 0.54282 0.76904 0.0054 0.0
H993 H 0.45265 0.7198 0.00608 0.0
C994 C 0.434 0.76204 0.0097 0.0
C995 C 0.43905 0.79217 0.01074 0.0
C996 C 0.53872 0.74579 0.00561 0.0
C997 C 0.48487 0.75423 0.00363 0.0
C998 C 0.56159 0.72693 0.00927 0.0
C999 C 0.55659 0.69684 0.01065 0.0
C1000 C 0.51054 0.73454 0.00361 0.0
C1001 C 0.52874 0.68619 0.00707 0.0
C1002 C 0.45675 0.74306 0.00601 0.0
C1003 C 0.46677 0.8027 0.00676 0.0
N1004 N 0.50659 0.70509 0.00405 0.0
N1005 N 0.48882 0.7837 0.00371 0.0
H1006 H 0.91485 0.73049 0.75595 0.0
H1007 H 0.07557 0.7934 0.75237 0.0
H1008 H 0.99307 0.67858 0.75175 0.0
H1009 H 0.0005 0.84195 0.76835 0.0
H1010 H 0.04319 0.75543 0.74268 0.0
H1011 H 0.94368 0.77441 0.75111 0.0
C1012 C 0.93793 0.72821 0.75357 0.0
C1013 C 0.95175 0.70092 0.75465 0.0
C1014 C 0.03378 0.77469 0.74802 0.0
C1015 C 0.98474 0.751 0.74919 0.0
C1016 C 0.05226 0.79644 0.75355 0.0
C1017 C 0.04081 0.82051 0.76166 0.0
C1018 C 0.00368 0.77694 0.75066 0.0
C1019 C 0.01037 0.82346 0.76252 0.0
C1020 C 0.95438 0.75332 0.75087 0.0
C1021 C 0.98166 0.69928 0.75138 0.0
N1022 N 0.99286 0.80161 0.75739 0.0
N1023 N 0.99725 0.72403 0.74905 0.0
H1024 H 0.33335 0.38856 0.97992 0.0
H1025 H 0.15941 0.38765 -0.01448 0.0
H1026 H 0.27742 0.36316 0.94184 0.0
H1027 H 0.2156 0.36674 0.0243 0.0
H1028 H 0.20284 0.39521 0.96917 0.0
H1029 H 0.28986 0.39684 -0.00388 0.0
C1030 C 0.31193 0.38516 0.97494 0.0
C1031 C 0.30883 0.37469 0.95968 0.0
C1032 C 0.20551 0.38943 0.98134 0.0
C1033 C 0.25949 0.38462 0.97785 0.0
C1034 C 0.18086 0.38523 -0.00937 0.0
C1035 C 0.18412 0.37612 0.00613 0.0
C1036 C 0.23333 0.38507 -0.01223 0.0
C1037 C 0.21229 0.37326 0.01228 0.0
C1038 C 0.28726 0.38985 0.98414 0.0
C1039 C 0.28068 0.3707 0.95368 0.0
N1040 N 0.23589 0.3776 0.00306 0.0
N1041 N 0.25704 0.37559 0.96281 0.0
H1042 H 0.84671 0.07093 0.21846 0.0
H1043 H 0.93729 0.93628 0.25241 0.0
H1044 H 0.93944 0.05892 0.21267 0.0
H1045 H 0.8434 0.93543 0.24987 0.0
H1046 H 0.93779 0.98244 0.2385 0.0
H1047 H 0.84428 0.02318 0.23153 0.0
C1048 C 0.86655 0.05845 0.22012 0.0
C1049 C 0.89331 0.06881 0.21446 0.0
C1050 C 0.91701 0.97215 0.24081 0.0
C1051 C 0.89063 0.01446 0.2291 0.0
C1052 C 0.91675 0.94573 0.24871 0.0
C1053 C 0.89027 0.93215 0.25228 0.0
C1054 C 0.89056 0.98541 0.2366 0.0
C1055 C 0.86427 0.94522 0.24721 0.0
C1056 C 0.86509 0.03114 0.2274 0.0
C1057 C 0.91832 0.05172 0.21675 0.0
N1058 N 0.86501 0.97144 0.23974 0.0
N1059 N 0.91634 0.02545 0.22387 0.0
H1060 H 0.20132 0.68366 0.44911 0.0
H1061 H 0.32039 0.59386 0.49716 0.0
H1062 H 0.18615 0.59528 0.46457 0.0
H1063 H 0.31658 0.68785 0.4951 0.0
H1064 H 0.27585 0.59164 0.48122 0.0
H1065 H 0.24803 0.68324 0.46242 0.0
C1066 C 0.20779 0.66414 0.45536 0.0
C1067 C 0.18976 0.63948 0.45578 0.0
C1068 C 0.28502 0.61268 0.48417 0.0
C1069 C 0.2435 0.63882 0.47096 0.0
C1070 C 0.31051 0.61395 0.49308 0.0
C1071 C 0.32195 0.64109 0.49744 0.0
C1072 C 0.27142 0.63873 0.47948 0.0
C1073 C 0.30827 0.66651 0.49205 0.0
C1074 C 0.2345 0.66394 0.46295 0.0
C1075 C 0.1993 0.61484 0.46409 0.0
N1076 N 0.28371 0.6647 0.48338 0.0
N1077 N 0.22569 0.61507 0.47133 0.0
H1078 H 0.60466 0.03467 0.77885 0.0
H1079 H 0.60758 0.96233 0.697 0.0
H1080 H 0.63144 0.08385 0.7384 0.0
H1081 H 0.6288 0.91219 0.73807 0.0
H1082 H 0.61489 0.00723 0.71178 0.0
H1083 H 0.61194 0.98948 0.76428 0.0
C1084 C 0.61222 0.0359 0.76689 0.0
C1085 C 0.61709 0.06295 0.75969 0.0
C1086 C 0.61837 0.98644 0.71751 0.0
C1087 C 0.62522 0.01145 0.743 0.0
C1088 C 0.61398 0.96085 0.70915 0.0
C1089 C 0.61725 0.93365 0.71645 0.0
C1090 C 0.62532 0.98479 0.73339 0.0
C1091 C 0.62595 0.93281 0.73209 0.0
C1092 C 0.61662 0.01012 0.75866 0.0
C1093 C 0.62731 0.06338 0.74429 0.0
N1094 N 0.62914 0.95813 0.74019 0.0
N1095 N 0.63051 0.03793 0.73632 0.0
H1096 H 0.68792 0.68015 -0.00176 0.0
H1097 H 0.81439 0.58407 0.96148 0.0
H1098 H 0.68141 0.58631 -0.00369 0.0
H1099 H 0.79781 0.67381 0.94877 0.0
H1100 H 0.76848 0.58391 0.97634 0.0
H1101 H 0.73105 0.67787 0.98176 0.0
C1102 C 0.6955 0.65906 -0.0058 0.0
C1103 C 0.6812 0.63338 -0.0014 0.0
C1104 C 0.77499 0.60349 0.97019 0.0
C1105 C 0.7308 0.63053 0.97996 0.0
C1106 C 0.8012 0.60368 0.96185 0.0
C1107 C 0.80991 0.62899 0.9539 0.0
C1108 C 0.75786 0.62891 0.97072 0.0
C1109 C 0.79195 0.65376 0.95466 0.0
C1110 C 0.72008 0.65775 0.98479 0.0
C1111 C 0.69181 0.60659 -0.00696 0.0
N1112 N 0.76691 0.65312 0.96298 0.0
N1113 N 0.71632 0.60579 0.98411 0.0
H1114 H 0.11135 0.96915 0.78131 0.0
H1115 H 0.11443 0.02628 0.69657 0.0
H1116 H 0.13954 0.91309 0.74378 0.0
H1117 H 0.13583 0.08374 0.7347 0.0
H1118 H 0.12324 0.98432 0.71352 0.0
H1119 H 0.11993 0.01164 0.76471 0.0
C1120 C 0.11964 0.96587 0.7696 0.0
C1121 C 0.12439 0.93769 0.76376 0.0
C1122 C 0.12652 0.00608 0.7181 0.0
C1123 C 0.13388 0.98597 0.74477 0.0
C1124 C 0.12127 0.02998 0.70851 0.0
C1125 C 0.12408 0.05837 0.71438 0.0
C1126 C 0.1338 0.01067 0.73378 0.0
C1127 C 0.13334 0.06211 0.72982 0.0
C1128 C 0.12474 0.99008 0.76021 0.0
C1129 C 0.13549 0.93453 0.74863 0.0
N1130 N 0.13728 0.03844 0.73914 0.0
N1131 N 0.13928 0.95844 0.73949 0.0
H1132 H 0.82258 0.32455 0.48948 0.0
H1133 H 0.67875 0.40915 0.46652 0.0
H1134 H 0.81197 0.41563 0.50071 0.0
H1135 H 0.70985 0.33206 0.44265 0.0
H1136 H 0.72618 0.41272 0.47975 0.0
H1137 H 0.78029 0.32743 0.47241 0.0
C1138 C 0.81151 0.3453 0.48809 0.0
C1139 C 0.82059 0.36989 0.49639 0.0
C1140 C 0.72252 0.39527 0.47147 0.0
C1141 C 0.77173 0.37328 0.47729 0.0
C1142 C 0.69546 0.3931 0.46402 0.0
C1143 C 0.69012 0.37007 0.45361 0.0
C1144 C 0.74405 0.37412 0.46854 0.0
C1145 C 0.71268 0.35004 0.45068 0.0
C1146 C 0.78737 0.34699 0.47838 0.0
C1147 C 0.80559 0.3963 0.49432 0.0
N1148 N 0.73846 0.35242 0.45819 0.0
N1149 N 0.78142 0.39723 0.48513 0.0
H1150 H 0.33635 0.0653 0.25726 0.0
H1151 H 0.43542 0.94344 0.21764 0.0
H1152 H 0.42786 0.05351 0.26723 0.0
H1153 H 0.34224 0.93322 0.22172 0.0
H1154 H 0.43255 0.98718 0.23365 0.0
H1155 H 0.33751 0.02037 0.24154 0.0
C1156 C 0.35666 0.05342 0.25603 0.0
C1157 C 0.38203 0.06302 0.26356 0.0
C1158 C 0.41272 0.97529 0.23116 0.0
C1159 C 0.38346 0.01209 0.24579 0.0
C1160 C 0.41435 0.95033 0.22203 0.0
C1161 C 0.38903 0.93474 0.21839 0.0
C1162 C 0.3855 0.98506 0.23652 0.0
C1163 C 0.36229 0.94457 0.22439 0.0
C1164 C 0.35724 0.02775 0.24721 0.0
C1165 C 0.40774 0.04679 0.26171 0.0
N1166 N 0.36114 0.96939 0.23307 0.0
N1167 N 0.4078 0.02221 0.25299 0.0
H1168 H 0.82278 0.81662 0.47746 0.0
H1169 H 0.68568 0.90591 0.5078 0.0
H1170 H 0.81878 0.91039 0.47385 0.0
H1171 H 0.70733 0.81857 0.52295 0.0
H1172 H 0.73305 0.90856 0.49445 0.0
H1173 H 0.77966 0.81742 0.494 0.0
C1174 C 0.813 0.83744 0.48041 0.0
C1175 C 0.82419 0.86346 0.47436 0.0
C1176 C 0.72735 0.88897 0.50081 0.0
C1177 C 0.77438 0.8646 0.49289 0.0
C1178 C 0.70028 0.88733 0.50828 0.0
C1179 C 0.69247 0.86195 0.51644 0.0
C1180 C 0.74639 0.86493 0.5014 0.0
C1181 C 0.71232 0.83861 0.51682 0.0
C1182 C 0.78835 0.83793 0.48981 0.0
C1183 C 0.81079 0.88991 0.47845 0.0
N1184 N 0.73821 0.84064 0.50936 0.0
N1185 N 0.78617 0.8898 0.48731 0.0
H1186 H 0.36032 0.58819 0.73301 0.0
H1187 H 0.3613 0.41405 0.73325 0.0
H1188 H 0.38304 0.53755 0.69235 0.0
H1189 H 0.38983 0.46498 0.7727 0.0
H1190 H 0.35484 0.45951 0.71833 0.0
H1191 H 0.35657 0.54262 0.74811 0.0
C1192 C 0.36414 0.56749 0.72726 0.0
C1193 C 0.37239 0.56646 0.71154 0.0
C1194 C 0.36227 0.46057 0.7303 0.0
C1195 C 0.36758 0.51483 0.72846 0.0
C1196 C 0.36592 0.43478 0.73878 0.0
C1197 C 0.37652 0.43589 0.75409 0.0
C1198 C 0.36855 0.48745 0.7374 0.0
C1199 C 0.38209 0.46324 0.7608 0.0
C1200 C 0.36207 0.54165 0.73583 0.0
C1201 C 0.37708 0.53918 0.70454 0.0
N1202 N 0.378 0.48799 0.75242 0.0
N1203 N 0.37458 0.51438 0.71305 0.0
H1204 H 0.81111 0.19277 0.00394 0.0
H1205 H 0.68016 0.09638 0.9705 0.0
H1206 H 0.81447 0.09867 0.00317 0.0
H1207 H 0.68516 0.1903 0.96802 0.0
H1208 H 0.72762 0.09571 0.98386 0.0
H1209 H 0.76402 0.19128 -0.00882 0.0
C1210 C 0.802 0.17173 0.00092 0.0
C1211 C 0.81664 0.1458 0.00466 0.0
C1212 C 0.71814 0.11641 0.98046 0.0
C1213 C 0.76225 0.14384 -0.00982 0.0
C1214 C 0.69098 0.11682 0.97301 0.0
C1215 C 0.67886 0.14343 0.9681 0.0
C1216 C 0.73293 0.1428 0.98303 0.0
C1217 C 0.69383 0.16927 0.97148 0.0
C1218 C 0.775 0.17086 -0.00633 0.0
C1219 C 0.80389 0.11916 0.00039 0.0
N1220 N 0.72005 0.16827 0.97866 0.0
N1221 N 0.77719 0.11882 -0.00654 0.0
H1222 H 0.06862 0.56511 0.23817 0.0
H1223 H 0.16033 0.42735 0.21222 0.0
H1224 H 0.1615 0.56164 0.24559 0.0
H1225 H 0.07888 0.45275 0.19079 0.0
H1226 H 0.16169 0.47488 0.22554 0.0
H1227 H 0.07223 0.52254 0.22128 0.0
C1228 C 0.08986 0.55555 0.23599 0.0
C1229 C 0.1148 0.56674 0.24317 0.0
C1230 C 0.14375 0.46996 0.21778 0.0
C1231 C 0.11908 0.5176 0.22427 0.0
C1232 C 0.14283 0.44283 0.21029 0.0
C1233 C 0.11934 0.43591 0.20048 0.0
C1234 C 0.12084 0.48992 0.21553 0.0
C1235 C 0.09738 0.45691 0.19829 0.0
C1236 C 0.09195 0.53126 0.22639 0.0
C1237 C 0.14185 0.55363 0.24009 0.0
N1238 N 0.09858 0.48278 0.20583 0.0
N1239 N 0.14326 0.5293 0.23102 0.0
H1240 H 0.18188 0.09967 0.50878 0.0
H1241 H 0.32473 0.1886 0.48779 0.0
H1242 H 0.20188 0.18479 0.52752 0.0
H1243 H 0.31865 0.09586 0.48013 0.0
H1244 H 0.27977 0.18693 0.50288 0.0
H1245 H 0.23129 0.0973 0.4978 0.0
C1246 C 0.19656 0.11785 0.51054 0.0
C1247 C 0.18767 0.14252 0.51901 0.0
C1248 C 0.28843 0.16679 0.49815 0.0
C1249 C 0.24399 0.13981 0.50668 0.0
C1250 C 0.31415 0.16776 0.48962 0.0
C1251 C 0.32524 0.14234 0.48279 0.0
C1252 C 0.27331 0.14031 0.49954 0.0
C1253 C 0.31077 0.11587 0.48537 0.0
C1254 C 0.22478 0.11635 0.50441 0.0
C1255 C 0.20768 0.16533 0.52107 0.0
N1256 N 0.28513 0.11558 0.49335 0.0
N1257 N 0.23476 0.16345 0.51489 0.0
H1258 H 0.6521 0.4258 0.25372 0.0
H1259 H 0.55972 0.55824 0.21896 0.0
H1260 H 0.56041 0.44003 0.26225 0.0
H1261 H 0.65369 0.55999 0.22024 0.0
H1262 H 0.56025 0.51321 0.2339 0.0
H1263 H 0.65389 0.47275 0.23976 0.0
C1264 C 0.63237 0.43861 0.25252 0.0
C1265 C 0.60609 0.42909 0.25916 0.0
C1266 C 0.58083 0.52348 0.23108 0.0
C1267 C 0.60803 0.48244 0.24347 0.0
C1268 C 0.5805 0.54924 0.22258 0.0
C1269 C 0.60669 0.56274 0.21839 0.0
C1270 C 0.60757 0.51078 0.23526 0.0
C1271 C 0.63303 0.55025 0.22338 0.0
C1272 C 0.63347 0.46545 0.24473 0.0
C1273 C 0.58119 0.44658 0.25741 0.0
N1274 N 0.63286 0.52464 0.23145 0.0
N1275 N 0.5828 0.47231 0.24975 0.0
H1276 H 0.18552 0.80547 0.95991 0.0
H1277 H 0.31131 0.90187 -0.00188 0.0
H1278 H 0.17434 0.89762 0.96854 0.0
H1279 H 0.30645 0.80801 0.00101 0.0
H1280 H 0.26459 0.90216 0.98397 0.0
H1281 H 0.23303 0.80741 0.97224 0.0
C1282 C 0.19303 0.82615 0.9645 0.0
C1283 C 0.17596 0.85144 0.96322 0.0
C1284 C 0.27397 0.88156 -0.01237 0.0
C1285 C 0.23068 0.85386 0.97728 0.0
C1286 C 0.30068 0.88136 -0.00449 0.0
C1287 C 0.31256 0.85487 0.00074 0.0
C1288 C 0.25954 0.85506 -0.01514 0.0
C1289 C 0.2979 0.82891 -0.00274 0.0
C1290 C 0.22021 0.82724 0.97154 0.0
C1291 C 0.18678 0.8776 0.96943 0.0
N1292 N 0.27217 0.82968 -0.01042 0.0
N1293 N 0.21367 0.87821 0.97614 0.0
H1294 H 0.94158 0.43524 0.70568 0.0
H1295 H 0.85061 0.56565 0.74414 0.0
H1296 H 0.84923 0.42909 0.71477 0.0
H1297 H 0.94449 0.56182 0.74173 0.0
H1298 H 0.84829 0.51832 0.73073 0.0
H1299 H 0.94183 0.48363 0.71709 0.0
C1300 C 0.92133 0.44402 0.71021 0.0
C1301 C 0.89532 0.42811 0.70927 0.0
C1302 C 0.86933 0.52806 0.73302 0.0
C1303 C 0.89539 0.48393 0.72225 0.0
C1304 C 0.87066 0.55517 0.74048 0.0
C1305 C 0.8978 0.5675 0.74409 0.0
C1306 C 0.89532 0.51354 0.7291 0.0
C1307 C 0.92312 0.55294 0.73928 0.0
C1308 C 0.92147 0.47175 0.71669 0.0
C1309 C 0.86979 0.44057 0.71538 0.0
N1310 N 0.92126 0.5267 0.73211 0.0
N1311 N 0.87041 0.46793 0.72156 0.0
H1312 H 0.11154 0.30201 0.0638 0.0
H1313 H 0.06186 0.33356 0.14978 0.0
H1314 H 0.04118 0.3598 0.07652 0.0
H1315 H 0.13859 0.2847 0.13708 0.0
H1316 H 0.04378 0.3288 0.12317 0.0
H1317 H 0.11099 0.28157 0.08994 0.0
C1318 C 0.09576 0.31024 0.07202 0.0
C1319 C 0.07723 0.33352 0.06818 0.0
C1320 C 0.0643 0.31859 0.12625 0.0
C1321 C 0.07644 0.31016 0.09819 0.0
C1322 C 0.07474 0.32154 0.1414 0.0
C1323 C 0.10233 0.31067 0.14534 0.0
C1324 C 0.08185 0.30502 0.11497 0.0
C1325 C 0.11745 0.29391 0.13435 0.0
C1326 C 0.09529 0.29835 0.08696 0.0
C1327 C 0.05631 0.34231 0.07913 0.0
N1328 N 0.10736 0.29223 0.11948 0.0
N1329 N 0.05695 0.33111 0.0938 0.0
H1330 H 0.95111 0.87513 0.3944 0.0
H1331 H 0.85702 0.80018 0.32743 0.0
H1332 H 0.86841 0.8325 0.40174 0.0
H1333 H 0.92645 0.86171 0.3194 0.0
H1334 H 0.87002 0.79921 0.35512 0.0
H1335 H 0.95078 0.85801 0.36738 0.0
C1336 C 0.93314 0.86178 0.39043 0.0
C1337 C 0.90956 0.85558 0.40028 0.0
C1338 C 0.8827 0.81252 0.3472 0.0
C1339 C 0.90908 0.83595 0.3695 0.0
C1340 C 0.87536 0.81302 0.3314 0.0
C1341 C 0.89019 0.83167 0.32116 0.0
C1342 C 0.90509 0.83069 0.35267 0.0
C1343 C 0.9139 0.84764 0.32689 0.0
C1344 C 0.93299 0.852 0.37503 0.0
C1345 C 0.88698 0.83796 0.39457 0.0
N1346 N 0.92039 0.84708 0.34231 0.0
N1347 N 0.88713 0.82905 0.3795 0.0
H1348 H 0.35783 0.70978 0.64181 0.0
H1349 H 0.45272 0.63247 0.57589 0.0
H1350 H 0.42564 0.64656 0.6506 0.0
H1351 H 0.37225 0.67907 0.56779 0.0
H1352 H 0.45234 0.64987 0.60288 0.0
H1353 H 0.37289 0.71155 0.61443 0.0
C1354 C 0.37629 0.69676 0.63807 0.0
C1355 C 0.38993 0.67729 0.64837 0.0
C1356 C 0.4351 0.65673 0.59506 0.0
C1357 C 0.40712 0.67908 0.6172 0.0
C1358 C 0.43529 0.64679 0.57967 0.0
C1359 C 0.41224 0.65394 0.56962 0.0
C1360 C 0.4117 0.67388 0.60037 0.0
C1361 C 0.39036 0.67278 0.5751 0.0
C1362 C 0.3848 0.69769 0.62245 0.0
C1363 C 0.41388 0.66113 0.64297 0.0
N1364 N 0.39044 0.68179 0.59016 0.0
N1365 N 0.42144 0.66203 0.62769 0.0
H1366 H 0.55728 0.14061 0.81932 0.0
H1367 H 0.61114 0.1847 0.90217 0.0
H1368 H 0.61912 0.20955 0.82774 0.0
H1369 H 0.54044 0.12454 0.89429 0.0
H1370 H 0.60639 0.20205 0.87561 0.0
H1371 H 0.54261 0.14256 0.84651 0.0
C1372 C 0.56748 0.15651 0.82681 0.0
C1373 C 0.59014 0.17429 0.82137 0.0
C1374 C 0.59148 0.18546 0.87973 0.0
C1375 C 0.57368 0.17641 0.85264 0.0
C1376 C 0.5942 0.17547 0.89498 0.0
C1377 C 0.57655 0.15269 0.90042 0.0
C1378 C 0.57143 0.17208 0.8697 0.0
C1379 C 0.55484 0.14184 0.89051 0.0
C1380 C 0.55897 0.1577 0.84238 0.0
C1381 C 0.60192 0.19506 0.83154 0.0
N1382 N 0.55331 0.15119 0.87549 0.0
N1383 N 0.59406 0.19507 0.84681 0.0
H1384 H 0.11162 0.69735 0.3215 0.0
H1385 H 0.04756 0.59861 0.38929 0.0
H1386 H 0.07671 0.61075 0.31523 0.0
H1387 H 0.09513 0.67848 0.39644 0.0
H1388 H 0.04365 0.61044 0.36152 0.0
H1389 H 0.09218 0.69773 0.34805 0.0
C1390 C 0.09947 0.67862 0.3256 0.0
C1391 C 0.09627 0.65376 0.31625 0.0
C1392 C 0.05449 0.62564 0.36923 0.0
C1393 C 0.07406 0.65402 0.34653 0.0
C1394 C 0.05659 0.61896 0.38507 0.0
C1395 C 0.07272 0.63707 0.39497 0.0
C1396 C 0.06862 0.65057 0.36341 0.0
C1397 C 0.08371 0.6633 0.38903 0.0
C1398 C 0.08831 0.67888 0.34074 0.0
C1399 C 0.07997 0.63028 0.32206 0.0
N1400 N 0.08192 0.66905 0.37355 0.0
N1401 N 0.06986 0.6308 0.33692 0.0
H1402 H 0.60974 0.7853 0.64839 0.0
H1403 H 0.53899 0.87899 0.58075 0.0
H1404 H 0.56027 0.8646 0.65479 0.0
H1405 H 0.60287 0.81091 0.57421 0.0
H1406 H 0.53184 0.86221 0.60757 0.0
H1407 H 0.59269 0.78323 0.62138 0.0
C1408 C 0.59476 0.80188 0.64426 0.0
C1409 C 0.5871 0.82563 0.65373 0.0
C1410 C 0.54698 0.85058 0.60012 0.0
C1411 C 0.56765 0.82344 0.62296 0.0
C1412 C 0.55104 0.86011 0.58482 0.0
C1413 C 0.57243 0.84704 0.57545 0.0
C1414 C 0.56449 0.82789 0.60599 0.0
C1415 C 0.58707 0.82241 0.5812 0.0
C1416 C 0.58503 0.80069 0.62885 0.0
C1417 C 0.56731 0.84626 0.64785 0.0
N1418 N 0.58324 0.81395 0.59621 0.0
N1419 N 0.55868 0.84498 0.63276 0.0
H1420 H 0.43147 0.35711 0.81516 0.0
H1421 H 0.37965 0.31139 0.89814 0.0
H1422 H 0.36687 0.29061 0.82337 0.0
H1423 H 0.45383 0.36698 0.88992 0.0
H1424 H 0.38185 0.29516 0.87122 0.0
H1425 H 0.44728 0.35284 0.84207 0.0
C1426 C 0.42085 0.3413 0.82254 0.0
C1427 C 0.39721 0.32485 0.81714 0.0
C1428 C 0.39805 0.31047 0.87534 0.0
C1429 C 0.415 0.32003 0.84811 0.0
C1430 C 0.39671 0.31989 0.89076 0.0
C1431 C 0.41603 0.34125 0.89616 0.0
C1432 C 0.41848 0.32302 0.86519 0.0
C1433 C 0.43816 0.35085 0.88614 0.0
C1434 C 0.43002 0.33874 0.83795 0.0
C1435 C 0.38486 0.30411 0.82716 0.0
N1436 N 0.43836 0.34219 0.87099 0.0
N1437 N 0.39344 0.30277 0.8423 0.0
H1438 H 0.87578 0.21363 0.14414 0.0
H1439 H 0.95968 0.13111 0.07626 0.0
H1440 H 0.93688 0.14298 0.15071 0.0
H1441 H 0.88457 0.18672 0.06985 0.0
H1442 H 0.96346 0.14842 0.10317 0.0
H1443 H 0.89107 0.21694 0.11685 0.0
C1444 C 0.89288 0.19928 0.13998 0.0
C1445 C 0.90449 0.17743 0.14962 0.0
C1446 C 0.94656 0.1573 0.09572 0.0
C1447 C 0.92197 0.18105 0.11853 0.0
C1448 C 0.9444 0.14744 0.08037 0.0
C1449 C 0.92135 0.15696 0.0709 0.0
C1450 C 0.92548 0.17671 0.10157 0.0
C1451 C 0.9024 0.1784 0.07676 0.0
C1452 C 0.90157 0.20116 0.12441 0.0
C1453 C 0.92681 0.15967 0.14367 0.0
N1454 N 0.90459 0.18718 0.09181 0.0
N1455 N 0.93448 0.16155 0.12844 0.0
H1456 H 0.93993 0.62397 0.81198 0.0
H1457 H 0.90274 0.67905 0.89642 0.0
H1458 H 0.88577 0.69887 0.82182 0.0
H1459 H 0.95568 0.6035 0.88647 0.0
H1460 H 0.90775 0.69468 0.86943 0.0
H1461 H 0.95711 0.6245 0.83875 0.0
C1462 C 0.93208 0.64096 0.81965 0.0
C1463 C 0.91088 0.66105 0.81471 0.0
C1464 C 0.91871 0.67493 0.87317 0.0
C1465 C 0.93008 0.66136 0.84557 0.0
C1466 C 0.91565 0.66587 0.88858 0.0
C1467 C 0.92782 0.63934 0.89348 0.0
C1468 C 0.9337 0.65705 0.86257 0.0
C1469 C 0.94549 0.62385 0.88304 0.0
C1470 C 0.94191 0.6412 0.835 0.0
C1471 C 0.90173 0.68264 0.82521 0.0
N1472 N 0.94733 0.63256 0.86793 0.0
N1473 N 0.91094 0.68186 0.84026 0.0
H1474 H 0.03207 0.11329 0.57841 0.0
H1475 H 0.09816 0.20712 0.64692 0.0
H1476 H 0.08465 0.19028 0.57233 0.0
H1477 H 0.06196 0.12068 0.65145 0.0
H1478 H 0.07678 0.21058 0.62085 0.0
H1479 H 0.02545 0.12613 0.60588 0.0
C1480 C 0.04156 0.13332 0.58275 0.0
C1481 C 0.06003 0.15009 0.57334 0.0
C1482 C 0.07294 0.19115 0.62775 0.0
C1483 C 0.05288 0.16468 0.60459 0.0
C1484 C 0.0852 0.18913 0.64261 0.0
C1485 C 0.0825 0.16325 0.65122 0.0
C1486 C 0.05804 0.16708 0.62153 0.0
C1487 C 0.06509 0.14083 0.64517 0.0
C1488 C 0.03789 0.14059 0.59843 0.0
C1489 C 0.07145 0.17602 0.57942 0.0
N1490 N 0.05395 0.14307 0.63058 0.0
N1491 N 0.06823 0.18224 0.59478 0.0
H1492 H 0.58757 0.30444 0.40563 0.0
H1493 H 0.62605 0.28756 0.33022 0.0
H1494 H 0.54291 0.38056 0.38828 0.0
H1495 H 0.55339 0.34294 0.3183 0.0
H1496 H 0.60801 0.28484 0.35684 0.0
H1497 H 0.58492 0.28254 0.37976 0.0
C1498 C 0.57707 0.31645 0.39633 0.0
C1499 C 0.56668 0.34485 0.39878 0.0
C1500 C 0.5953 0.29685 0.34837 0.0
C1501 C 0.56434 0.32051 0.36914 0.0
C1502 C 0.6058 0.2985 0.33312 0.0
C1503 C 0.59189 0.31657 0.32225 0.0
C1504 C 0.57068 0.31344 0.35267 0.0
C1505 C 0.56563 0.33003 0.32652 0.0
C1506 C 0.57565 0.30399 0.38154 0.0
C1507 C 0.55176 0.35884 0.38669 0.0
N1508 N 0.55622 0.32875 0.34149 0.0
N1509 N 0.55168 0.34682 0.37223 0.0
H1510 H 0.45125 0.8781 0.07393 0.0
H1511 H 0.37152 0.79675 0.14406 0.0
H1512 H 0.37798 0.81999 0.06879 0.0
H1513 H 0.42361 0.87454 0.14895 0.0
H1514 H 0.38642 0.79369 0.1167 0.0
H1515 H 0.45371 0.86514 0.1016 0.0
C1516 C 0.43609 0.86216 0.0785 0.0
C1517 C 0.41397 0.85056 0.06909 0.0
C1518 C 0.39502 0.81106 0.1239 0.0
C1519 C 0.41676 0.83566 0.10058 0.0
C1520 C 0.38653 0.81284 0.1395 0.0
C1521 C 0.39591 0.83626 0.14873 0.0
C1522 C 0.41303 0.8328 0.11759 0.0
C1523 C 0.41556 0.85631 0.14226 0.0
C1524 C 0.43751 0.85482 0.09428 0.0
C1525 C 0.39509 0.82984 0.0756 0.0
N1526 N 0.42319 0.85434 0.12702 0.0
N1527 N 0.39667 0.82332 0.091 0.0
H1528 H 0.85426 0.28978 0.64042 0.0
H1529 H 0.95149 0.36226 0.57451 0.0
H1530 H 0.93343 0.33773 0.64886 0.0
H1531 H 0.86536 0.3269 0.56745 0.0
H1532 H 0.95242 0.34 0.60044 0.0
H1533 H 0.8661 0.28872 0.6126 0.0
C1534 C 0.87451 0.29943 0.63649 0.0
C1535 C 0.89238 0.31484 0.64684 0.0
C1536 C 0.93356 0.33667 0.59306 0.0
C1537 C 0.90583 0.31404 0.61517 0.0
C1538 C 0.93298 0.34944 0.57829 0.0
C1539 C 0.90809 0.34688 0.56892 0.0
C1540 C 0.90901 0.32143 0.59848 0.0
C1541 C 0.88491 0.32969 0.57431 0.0
C1542 C 0.88118 0.29897 0.6206 0.0
C1543 C 0.91847 0.32667 0.64119 0.0
N1544 N 0.88576 0.31798 0.58883 0.0
N1545 N 0.92417 0.32653 0.62568 0.0
H1546 H 0.42542 0.14686 0.32615 0.0
H1547 H 0.36909 0.17901 0.41121 0.0
H1548 H 0.34898 0.19831 0.3363 0.0
H1549 H 0.44852 0.13194 0.40117 0.0
H1550 H 0.36702 0.19496 0.38422 0.0
H1551 H 0.43979 0.14992 0.35339 0.0
C1552 C 0.41172 0.15895 0.33409 0.0
C1553 C 0.38544 0.17145 0.3291 0.0
C1554 C 0.38521 0.18158 0.38795 0.0
C1555 C 0.40174 0.17515 0.36034 0.0
C1556 C 0.38646 0.17247 0.40343 0.0
C1557 C 0.40881 0.15374 0.40844 0.0
C1558 C 0.40619 0.1715 0.37733 0.0
C1559 C 0.43067 0.14605 0.39776 0.0
C1560 C 0.42007 0.16091 0.34966 0.0
C1561 C 0.36921 0.18797 0.33976 0.0
N1562 N 0.42854 0.15455 0.38262 0.0
N1563 N 0.37729 0.18883 0.355 0.0
H1564 H 0.62835 0.6981 0.14298 0.0
H1565 H 0.54571 0.61565 0.07426 0.0
H1566 H 0.57305 0.62287 0.14911 0.0
H1567 H 0.62187 0.66961 0.06813 0.0
H1568 H 0.54368 0.63066 0.10163 0.0
H1569 H 0.61393 0.69997 0.1155 0.0
C1570 C 0.61272 0.68237 0.13867 0.0
C1571 C 0.60229 0.65996 0.1483 0.0
C1572 C 0.56045 0.63963 0.09415 0.0
C1573 C 0.58572 0.66208 0.11705 0.0
C1574 C 0.56163 0.6311 0.07855 0.0
C1575 C 0.58434 0.64096 0.06896 0.0
C1576 C 0.58204 0.6582 0.1001 0.0
C1577 C 0.60421 0.66114 0.07509 0.0
C1578 C 0.60453 0.68346 0.12301 0.0
C1579 C 0.58193 0.64032 0.14214 0.0
N1580 N 0.60282 0.66882 0.09034 0.0
N1581 N 0.57457 0.64161 0.12685 0.0
H1582 H 0.10145 0.786 0.82952 0.0
H1583 H 0.02763 0.8776 0.89695 0.0
H1584 H 0.05763 0.86871 0.82369 0.0
H1585 H 0.08666 0.80544 0.90392 0.0
H1586 H 0.02266 0.86336 0.86959 0.0
H1587 H 0.08073 0.78237 0.85575 0.0
C1588 C 0.08695 0.80306 0.83358 0.0
C1589 C 0.08197 0.82813 0.82457 0.0
C1590 C 0.03623 0.85027 0.87722 0.0
C1591 C 0.05831 0.82413 0.85445 0.0
C1592 C 0.03901 0.85835 0.89283 0.0
C1593 C 0.05859 0.8434 0.90251 0.0
C1594 C 0.05318 0.82716 0.87137 0.0
C1595 C 0.07241 0.81838 0.89669 0.0
C1596 C 0.07512 0.80097 0.84854 0.0
C1597 C 0.06268 0.84934 0.83032 0.0
N1598 N 0.06992 0.81135 0.88139 0.0
N1599 N 0.05196 0.84711 0.84499 0.0
loop_
_geom_bond_atom_site_label_1
_geom_bond_atom_site_label_2
_geom_bond_distance
_geom_bond_site_symmetry_2
_ccdc_geom_bond_type
Mg0 O1 2.028 . S
Mg0 O7 1.986 . S
Mg0 O9 2.114 . S
Mg0 O10 2.251 . S
Mg0 O13 2.010 . S
O1 Mg0 2.028 . S
O1 C4 1.250 . S
O2 Mg3 2.028 . S
O2 C4 1.248 . S
Mg3 O2 2.028 . S
Mg3 O8 2.032 . S
Mg3 O10 2.079 . S
C4 O1 1.250 . S
C4 O2 1.248 . S
C5 O6 1.264 . S
C5 O13 1.249 . S
O6 C5 1.264 . S
O7 Mg0 1.986 . S
O7 C11 1.246 . S
O8 Mg3 2.032 . S
O8 C11 1.259 . S
O9 Mg0 2.114 . S
O9 C12 1.252 . S
O10 Mg0 2.251 . S
O10 Mg3 2.079 . S
O10 C12 1.273 . S
C11 O7 1.246 . S
C11 O8 1.259 . S
C12 O9 1.252 . S
C12 O10 1.273 . S
O13 Mg0 2.010 . S
O13 C5 1.249 . S
Mg14 O15 2.028 . S
Mg14 O21 1.986 . S
Mg14 O23 2.114 . S
Mg14 O24 2.251 . S
Mg14 O27 2.010 . S
O15 Mg14 2.028 . S
O15 C18 1.250 . S
O16 Mg17 2.028 . S
O16 C18 1.248 . S
Mg17 O16 2.028 . S
Mg17 O22 2.032 . S
Mg17 O24 2.079 . S
C18 O15 1.250 . S
C18 O16 1.248 . S
C19 O20 1.264 . S
C19 O27 1.249 . S
O20 C19 1.264 . S
O21 Mg14 1.986 . S
O21 C25 1.246 . S
O22 Mg17 2.032 . S
O22 C25 1.259 . S
O23 Mg14 2.114 . S
O23 C26 1.252 . S
O24 Mg14 2.251 . S
O24 Mg17 2.079 . S
O24 C26 1.273 . S
C25 O21 1.246 . S
C25 O22 1.259 . S
C26 O23 1.252 . S
C26 O24 1.273 . S
O27 Mg14 2.010 . S
O27 C19 1.249 . S
Mg28 O29 2.028 . S
Mg28 O35 1.986 . S
Mg28 O37 2.114 . S
Mg28 O38 2.251 . S
Mg28 O41 2.010 . S
O29 Mg28 2.028 . S
O29 C32 1.250 . S
O30 Mg31 2.028 . S
O30 C32 1.248 . S
Mg31 O30 2.028 . S
Mg31 O36 2.032 . S
Mg31 O38 2.079 . S
C32 O29 1.250 . S
C32 O30 1.248 . S
C33 O34 1.264 . S
C33 O41 1.249 . S
O34 C33 1.264 . S
O35 Mg28 1.986 . S
O35 C39 1.246 . S
O36 Mg31 2.032 . S
O36 C39 1.259 . S
O37 Mg28 2.114 . S
O37 C40 1.252 . S
O38 Mg28 2.251 . S
O38 Mg31 2.079 . S
O38 C40 1.273 . S
C39 O35 1.246 . S
C39 O36 1.259 . S
C40 O37 1.252 . S
C40 O38 1.273 . S
O41 Mg28 2.010 . S
O41 C33 1.249 . S
Mg42 O43 2.028 . S
Mg42 O49 1.986 . S
Mg42 O51 2.114 . S
Mg42 O52 2.251 . S
Mg42 O55 2.010 . S
O43 Mg42 2.028 . S
O43 C46 1.250 . S
O44 Mg45 2.028 . S
O44 C46 1.248 . S
Mg45 O44 2.028 . S
Mg45 O50 2.032 . S
Mg45 O52 2.079 . S
C46 O43 1.250 . S
C46 O44 1.248 . S
C47 O48 1.264 . S
C47 O55 1.249 . S
O48 C47 1.264 . S
O49 Mg42 1.986 . S
O49 C53 1.246 . S
O50 Mg45 2.032 . S
O50 C53 1.259 . S
O51 Mg42 2.114 . S
O51 C54 1.252 . S
O52 Mg42 2.251 . S
O52 Mg45 2.079 . S
O52 C54 1.273 . S
C53 O49 1.246 . S
C53 O50 1.259 . S
C54 O51 1.252 . S
C54 O52 1.273 . S
O55 Mg42 2.010 . S
O55 C47 1.249 . S
Mg56 O57 2.028 . S
Mg56 O63 1.986 . S
Mg56 O65 2.114 . S
Mg56 O66 2.251 . S
Mg56 O69 2.010 . S
O57 Mg56 2.028 . S
O57 C60 1.250 . S
O58 Mg59 2.028 . S
O58 C60 1.248 . S
Mg59 O58 2.028 . S
Mg59 O64 2.032 . S
Mg59 O66 2.079 . S
C60 O57 1.250 . S
C60 O58 1.248 . S
C61 O62 1.264 . S
C61 O69 1.249 . S
O62 C61 1.264 . S
O63 Mg56 1.986 . S
O63 C67 1.246 . S
O64 Mg59 2.032 . S
O64 C67 1.259 . S
O65 Mg56 2.114 . S
O65 C68 1.252 . S
O66 Mg56 2.251 . S
O66 Mg59 2.079 . S
O66 C68 1.273 . S
C67 O63 1.246 . S
C67 O64 1.259 . S
C68 O65 1.252 . S
C68 O66 1.273 . S
O69 Mg56 2.010 . S
O69 C61 1.249 . S
Mg70 O71 2.028 . S
Mg70 O77 1.986 . S
Mg70 O79 2.114 . S
Mg70 O80 2.251 . S
Mg70 O83 2.010 . S
O71 Mg70 2.028 . S
O71 C74 1.250 . S
O72 Mg73 2.028 . S
O72 C74 1.248 . S
Mg73 O72 2.028 . S
Mg73 O78 2.032 . S
Mg73 O80 2.079 . S
C74 O71 1.250 . S
C74 O72 1.248 . S
C75 O76 1.264 . S
C75 O83 1.249 . S
O76 C75 1.264 . S
O77 Mg70 1.986 . S
O77 C81 1.246 . S
O78 Mg73 2.032 . S
O78 C81 1.259 . S
O79 Mg70 2.114 . S
O79 C82 1.252 . S
O80 Mg70 2.251 . S
O80 Mg73 2.079 . S
O80 C82 1.273 . S
C81 O77 1.246 . S
C81 O78 1.259 . S
C82 O79 1.252 . S
C82 O80 1.273 . S
O83 Mg70 2.010 . S
O83 C75 1.249 . S
Mg84 O85 2.028 . S
Mg84 O91 1.986 . S
Mg84 O93 2.114 . S
Mg84 O94 2.251 . S
Mg84 O97 2.010 . S
O85 Mg84 2.028 . S
O85 C88 1.250 . S
O86 Mg87 2.028 . S
O86 C88 1.248 . S
Mg87 O86 2.028 . S
Mg87 O92 2.032 . S
Mg87 O94 2.079 . S
C88 O85 1.250 . S
C88 O86 1.248 . S
C89 O90 1.264 . S
C89 O97 1.249 . S
O90 C89 1.264 . S
O91 Mg84 1.986 . S
O91 C95 1.246 . S
O92 Mg87 2.032 . S
O92 C95 1.259 . S
O93 Mg84 2.114 . S
O93 C96 1.252 . S
O94 Mg84 2.251 . S
O94 Mg87 2.079 . S
O94 C96 1.273 . S
C95 O91 1.246 . S
C95 O92 1.259 . S
C96 O93 1.252 . S
C96 O94 1.273 . S
O97 Mg84 2.010 . S
O97 C89 1.249 . S
Mg98 O99 2.028 . S
Mg98 O105 1.986 . S
Mg98 O107 2.114 . S
Mg98 O108 2.251 . S
Mg98 O111 2.010 . S
O99 Mg98 2.028 . S
O99 C102 1.250 . S
O100 Mg101 2.028 . S
O100 C102 1.248 . S
Mg101 O100 2.028 . S
Mg101 O106 2.032 . S
Mg101 O108 2.079 . S
C102 O99 1.250 . S
C102 O100 1.248 . S
C103 O104 1.264 . S
C103 O111 1.249 . S
O104 C103 1.264 . S
O105 Mg98 1.986 . S
O105 C109 1.246 . S
O106 Mg101 2.032 . S
O106 C109 1.259 . S
O107 Mg98 2.114 . S
O107 C110 1.252 . S
O108 Mg98 2.251 . S
O108 Mg101 2.079 . S
O108 C110 1.273 . S
C109 O105 1.246 . S
C109 O106 1.259 . S
C110 O107 1.252 . S
C110 O108 1.273 . S
O111 Mg98 2.010 . S
O111 C103 1.249 . S
Mg112 O113 2.028 . S
Mg112 O119 1.986 . S
Mg112 O121 2.114 . S
Mg112 O122 2.251 . S
Mg112 O125 2.010 . S
O113 Mg112 2.028 . S
O113 C116 1.250 . S
O114 Mg115 2.028 . S
O114 C116 1.248 . S
Mg115 O114 2.028 . S
Mg115 O120 2.032 . S
Mg115 O122 2.079 . S
C116 O113 1.250 . S
C116 O114 1.248 . S
C117 O118 1.264 . S
C117 O125 1.249 . S
O118 C117 1.264 . S
O119 Mg112 1.986 . S
O119 C123 1.246 . S
O120 Mg115 2.032 . S
O120 C123 1.259 . S
O121 Mg112 2.114 . S
O121 C124 1.252 . S
O122 Mg112 2.251 . S
O122 Mg115 2.079 . S
O122 C124 1.273 . S
C123 O119 1.246 . S
C123 O120 1.259 . S
C124 O121 1.252 . S
C124 O122 1.273 . S
O125 Mg112 2.010 . S
O125 C117 1.249 . S
Mg126 O127 2.028 . S
Mg126 O133 1.986 . S
Mg126 O135 2.114 . S
Mg126 O136 2.251 . S
Mg126 O139 2.010 . S
O127 Mg126 2.028 . S
O127 C130 1.250 . S
O128 Mg129 2.028 . S
O128 C130 1.248 . S
Mg129 O128 2.028 . S
Mg129 O134 2.032 . S
Mg129 O136 2.079 . S
C130 O127 1.250 . S
C130 O128 1.248 . S
C131 O132 1.264 . S
C131 O139 1.249 . S
O132 C131 1.264 . S
O133 Mg126 1.986 . S
O133 C137 1.246 . S
O134 Mg129 2.032 . S
O134 C137 1.259 . S
O135 Mg126 2.114 . S
O135 C138 1.252 . S
O136 Mg126 2.251 . S
O136 Mg129 2.079 . S
O136 C138 1.273 . S
C137 O133 1.246 . S
C137 O134 1.259 . S
C138 O135 1.252 . S
C138 O136 1.273 . S
O139 Mg126 2.010 . S
O139 C131 1.249 . S
Mg140 O141 2.028 . S
Mg140 O147 1.986 . S
Mg140 O149 2.114 . S
Mg140 O150 2.251 . S
Mg140 O153 2.010 . S
O141 Mg140 2.028 . S
O141 C144 1.250 . S
O142 Mg143 2.028 . S
O142 C144 1.248 . S
Mg143 O142 2.028 . S
Mg143 O148 2.032 . S
Mg143 O150 2.079 . S
C144 O141 1.250 . S
C144 O142 1.248 . S
C145 O146 1.264 . S
C145 O153 1.249 . S
O146 C145 1.264 . S
O147 Mg140 1.986 . S
O147 C151 1.246 . S
O148 Mg143 2.032 . S
O148 C151 1.259 . S
O149 Mg140 2.114 . S
O149 C152 1.252 . S
O150 Mg140 2.251 . S
O150 Mg143 2.079 . S
O150 C152 1.273 . S
C151 O147 1.246 . S
C151 O148 1.259 . S
C152 O149 1.252 . S
C152 O150 1.273 . S
O153 Mg140 2.010 . S
O153 C145 1.249 . S
Mg154 O155 2.028 . S
Mg154 O161 1.986 . S
Mg154 O163 2.114 . S
Mg154 O164 2.251 . S
Mg154 O167 2.010 . S
O155 Mg154 2.028 . S
O155 C158 1.250 . S
O156 Mg157 2.028 . S
O156 C158 1.248 . S
Mg157 O156 2.028 . S
Mg157 O162 2.032 . S
Mg157 O164 2.079 . S
C158 O155 1.250 . S
C158 O156 1.248 . S
C159 O160 1.264 . S
C159 O167 1.249 . S
O160 C159 1.264 . S
O161 Mg154 1.986 . S
O161 C165 1.246 . S
O162 Mg157 2.032 . S
O162 C165 1.259 . S
O163 Mg154 2.114 . S
O163 C166 1.252 . S
O164 Mg154 2.251 . S
O164 Mg157 2.079 . S
O164 C166 1.273 . S
C165 O161 1.246 . S
C165 O162 1.259 . S
C166 O163 1.252 . S
C166 O164 1.273 . S
O167 Mg154 2.010 . S
O167 C159 1.249 . S
Mg168 O169 2.028 . S
Mg168 O175 1.986 . S
Mg168 O177 2.114 . S
Mg168 O178 2.251 . S
Mg168 O181 2.010 . S
O169 Mg168 2.028 . S
O169 C172 1.250 . S
O170 Mg171 2.028 . S
O170 C172 1.248 . S
Mg171 O170 2.028 . S
Mg171 O176 2.032 . S
Mg171 O178 2.079 . S
C172 O169 1.250 . S
C172 O170 1.248 . S
C173 O174 1.264 . S
C173 O181 1.249 . S
O174 C173 1.264 . S
O175 Mg168 1.986 . S
O175 C179 1.246 . S
O176 Mg171 2.032 . S
O176 C179 1.259 . S
O177 Mg168 2.114 . S
O177 C180 1.252 . S
O178 Mg168 2.251 . S
O178 Mg171 2.079 . S
O178 C180 1.273 . S
C179 O175 1.246 . S
C179 O176 1.259 . S
C180 O177 1.252 . S
C180 O178 1.273 . S
O181 Mg168 2.010 . S
O181 C173 1.249 . S
Mg182 O183 2.028 . S
Mg182 O189 1.986 . S
Mg182 O191 2.114 . S
Mg182 O192 2.251 . S
Mg182 O195 2.010 . S
O183 Mg182 2.028 . S
O183 C186 1.250 . S
O184 Mg185 2.028 . S
O184 C186 1.248 . S
Mg185 O184 2.028 . S
Mg185 O190 2.032 . S
Mg185 O192 2.079 . S
C186 O183 1.250 . S
C186 O184 1.248 . S
C187 O188 1.264 . S
C187 O195 1.249 . S
O188 C187 1.264 . S
O189 Mg182 1.986 . S
O189 C193 1.246 . S
O190 Mg185 2.032 . S
O190 C193 1.259 . S
O191 Mg182 2.114 . S
O191 C194 1.252 . S
O192 Mg182 2.251 . S
O192 Mg185 2.079 . S
O192 C194 1.273 . S
C193 O189 1.246 . S
C193 O190 1.259 . S
C194 O191 1.252 . S
C194 O192 1.273 . S
O195 Mg182 2.010 . S
O195 C187 1.249 . S
Mg196 O197 2.028 . S
Mg196 O203 1.986 . S
Mg196 O205 2.114 . S
Mg196 O206 2.251 . S
Mg196 O209 2.010 . S
O197 Mg196 2.028 . S
O197 C200 1.250 . S
O198 Mg199 2.028 . S
O198 C200 1.248 . S
Mg199 O198 2.028 . S
Mg199 O204 2.032 . S
Mg199 O206 2.079 . S
C200 O197 1.250 . S
C200 O198 1.248 . S
C201 O202 1.264 . S
C201 O209 1.249 . S
O202 C201 1.264 . S
O203 Mg196 1.986 . S
O203 C207 1.246 . S
O204 Mg199 2.032 . S
O204 C207 1.259 . S
O205 Mg196 2.114 . S
O205 C208 1.252 . S
O206 Mg196 2.251 . S
O206 Mg199 2.079 . S
O206 C208 1.273 . S
C207 O203 1.246 . S
C207 O204 1.259 . S
C208 O205 1.252 . S
C208 O206 1.273 . S
O209 Mg196 2.010 . S
O209 C201 1.249 . S
Mg210 O211 2.028 . S
Mg210 O217 1.986 . S
Mg210 O219 2.114 . S
Mg210 O220 2.251 . S
Mg210 O223 2.010 . S
O211 Mg210 2.028 . S
O211 C214 1.250 . S
O212 Mg213 2.028 . S
O212 C214 1.248 . S
Mg213 O212 2.028 . S
Mg213 O218 2.032 . S
Mg213 O220 2.079 . S
C214 O211 1.250 . S
C214 O212 1.248 . S
C215 O216 1.264 . S
C215 O223 1.249 . S
O216 C215 1.264 . S
O217 Mg210 1.986 . S
O217 C221 1.246 . S
O218 Mg213 2.032 . S
O218 C221 1.259 . S
O219 Mg210 2.114 . S
O219 C222 1.252 . S
O220 Mg210 2.251 . S
O220 Mg213 2.079 . S
O220 C222 1.273 . S
C221 O217 1.246 . S
C221 O218 1.259 . S
C222 O219 1.252 . S
C222 O220 1.273 . S
O223 Mg210 2.010 . S
O223 C215 1.249 . S
Mg224 O225 2.028 . S
Mg224 O231 1.986 . S
Mg224 O233 2.114 . S
Mg224 O234 2.251 . S
Mg224 O237 2.010 . S
O225 Mg224 2.028 . S
O225 C228 1.250 . S
O226 Mg227 2.028 . S
O226 C228 1.248 . S
Mg227 O226 2.028 . S
Mg227 O232 2.032 . S
Mg227 O234 2.079 . S
C228 O225 1.250 . S
C228 O226 1.248 . S
C229 O230 1.264 . S
C229 O237 1.249 . S
O230 C229 1.264 . S
O231 Mg224 1.986 . S
O231 C235 1.246 . S
O232 Mg227 2.032 . S
O232 C235 1.259 . S
O233 Mg224 2.114 . S
O233 C236 1.252 . S
O234 Mg224 2.251 . S
O234 Mg227 2.079 . S
O234 C236 1.273 . S
C235 O231 1.246 . S
C235 O232 1.259 . S
C236 O233 1.252 . S
C236 O234 1.273 . S
O237 Mg224 2.010 . S
O237 C229 1.249 . S
Mg238 O239 2.028 . S
Mg238 O245 1.986 . S
Mg238 O247 2.114 . S
Mg238 O248 2.251 . S
Mg238 O251 2.010 . S
O239 Mg238 2.028 . S
O239 C242 1.250 . S
O240 Mg241 2.028 . S
O240 C242 1.248 . S
Mg241 O240 2.028 . S
Mg241 O246 2.032 . S
Mg241 O248 2.079 . S
C242 O239 1.250 . S
C242 O240 1.248 . S
C243 O244 1.264 . S
C243 O251 1.249 . S
O244 C243 1.264 . S
O245 Mg238 1.986 . S
O245 C249 1.246 . S
O246 Mg241 2.032 . S
O246 C249 1.259 . S
O247 Mg238 2.114 . S
O247 C250 1.252 . S
O248 Mg238 2.251 . S
O248 Mg241 2.079 . S
O248 C250 1.273 . S
C249 O245 1.246 . S
C249 O246 1.259 . S
C250 O247 1.252 . S
C250 O248 1.273 . S
O251 Mg238 2.010 . S
O251 C243 1.249 . S
Mg252 O253 2.028 . S
Mg252 O259 1.986 . S
Mg252 O261 2.114 . S
Mg252 O262 2.251 . S
Mg252 O265 2.010 . S
O253 Mg252 2.028 . S
O253 C256 1.250 . S
O254 Mg255 2.028 . S
O254 C256 1.248 . S
Mg255 O254 2.028 . S
Mg255 O260 2.032 . S
Mg255 O262 2.079 . S
C256 O253 1.250 . S
C256 O254 1.248 . S
C257 O258 1.264 . S
C257 O265 1.249 . S
O258 C257 1.264 . S
O259 Mg252 1.986 . S
O259 C263 1.246 . S
O260 Mg255 2.032 . S
O260 C263 1.259 . S
O261 Mg252 2.114 . S
O261 C264 1.252 . S
O262 Mg252 2.251 . S
O262 Mg255 2.079 . S
O262 C264 1.273 . S
C263 O259 1.246 . S
C263 O260 1.259 . S
C264 O261 1.252 . S
C264 O262 1.273 . S
O265 Mg252 2.010 . S
O265 C257 1.249 . S
Mg266 O267 2.028 . S
Mg266 O273 1.986 . S
Mg266 O275 2.114 . S
Mg266 O276 2.251 . S
Mg266 O279 2.010 . S
O267 Mg266 2.028 . S
O267 C270 1.250 . S
O268 Mg269 2.028 . S
O268 C270 1.248 . S
Mg269 O268 2.028 . S
Mg269 O274 2.032 . S
Mg269 O276 2.079 . S
C270 O267 1.250 . S
C270 O268 1.248 . S
C271 O272 1.264 . S
C271 O279 1.249 . S
O272 C271 1.264 . S
O273 Mg266 1.986 . S
O273 C277 1.246 . S
O274 Mg269 2.032 . S
O274 C277 1.259 . S
O275 Mg266 2.114 . S
O275 C278 1.252 . S
O276 Mg266 2.251 . S
O276 Mg269 2.079 . S
O276 C278 1.273 . S
C277 O273 1.246 . S
C277 O274 1.259 . S
C278 O275 1.252 . S
C278 O276 1.273 . S
O279 Mg266 2.010 . S
O279 C271 1.249 . S
Mg280 O281 2.028 . S
Mg280 O287 1.986 . S
Mg280 O289 2.114 . S
Mg280 O290 2.251 . S
Mg280 O293 2.010 . S
O281 Mg280 2.028 . S
O281 C284 1.250 . S
O282 Mg283 2.028 . S
O282 C284 1.248 . S
Mg283 O282 2.028 . S
Mg283 O288 2.032 . S
Mg283 O290 2.079 . S
C284 O281 1.250 . S
C284 O282 1.248 . S
C285 O286 1.264 . S
C285 O293 1.249 . S
O286 C285 1.264 . S
O287 Mg280 1.986 . S
O287 C291 1.246 . S
O288 Mg283 2.032 . S
O288 C291 1.259 . S
O289 Mg280 2.114 . S
O289 C292 1.252 . S
O290 Mg280 2.251 . S
O290 Mg283 2.079 . S
O290 C292 1.273 . S
C291 O287 1.246 . S
C291 O288 1.259 . S
C292 O289 1.252 . S
C292 O290 1.273 . S
O293 Mg280 2.010 . S
O293 C285 1.249 . S
Mg294 O295 2.028 . S
Mg294 O301 1.986 . S
Mg294 O303 2.114 . S
Mg294 O304 2.251 . S
Mg294 O307 2.010 . S
O295 Mg294 2.028 . S
O295 C298 1.250 . S
O296 Mg297 2.028 . S
O296 C298 1.248 . S
Mg297 O296 2.028 . S
Mg297 O302 2.032 . S
Mg297 O304 2.079 . S
C298 O295 1.250 . S
C298 O296 1.248 . S
C299 O300 1.264 . S
C299 O307 1.249 . S
O300 C299 1.264 . S
O301 Mg294 1.986 . S
O301 C305 1.246 . S
O302 Mg297 2.032 . S
O302 C305 1.259 . S
O303 Mg294 2.114 . S
O303 C306 1.252 . S
O304 Mg294 2.251 . S
O304 Mg297 2.079 . S
O304 C306 1.273 . S
C305 O301 1.246 . S
C305 O302 1.259 . S
C306 O303 1.252 . S
C306 O304 1.273 . S
O307 Mg294 2.010 . S
O307 C299 1.249 . S
Mg308 O309 2.028 . S
Mg308 O315 1.986 . S
Mg308 O317 2.114 . S
Mg308 O318 2.251 . S
Mg308 O321 2.010 . S
O309 Mg308 2.028 . S
O309 C312 1.250 . S
O310 Mg311 2.028 . S
O310 C312 1.248 . S
Mg311 O310 2.028 . S
Mg311 O316 2.032 . S
Mg311 O318 2.079 . S
C312 O309 1.250 . S
C312 O310 1.248 . S
C313 O314 1.264 . S
C313 O321 1.249 . S
O314 C313 1.264 . S
O315 Mg308 1.986 . S
O315 C319 1.246 . S
O316 Mg311 2.032 . S
O316 C319 1.259 . S
O317 Mg308 2.114 . S
O317 C320 1.252 . S
O318 Mg308 2.251 . S
O318 Mg311 2.079 . S
O318 C320 1.273 . S
C319 O315 1.246 . S
C319 O316 1.259 . S
C320 O317 1.252 . S
C320 O318 1.273 . S
O321 Mg308 2.010 . S
O321 C313 1.249 . S
Mg322 O323 2.028 . S
Mg322 O329 1.986 . S
Mg322 O331 2.114 . S
Mg322 O332 2.251 . S
Mg322 O335 2.010 . S
O323 Mg322 2.028 . S
O323 C326 1.250 . S
O324 Mg325 2.028 . S
O324 C326 1.248 . S
Mg325 O324 2.028 . S
Mg325 O330 2.032 . S
Mg325 O332 2.079 . S
C326 O323 1.250 . S
C326 O324 1.248 . S
C327 O328 1.264 . S
C327 O335 1.249 . S
O328 C327 1.264 . S
O329 Mg322 1.986 . S
O329 C333 1.246 . S
O330 Mg325 2.032 . S
O330 C333 1.259 . S
O331 Mg322 2.114 . S
O331 C334 1.252 . S
O332 Mg322 2.251 . S
O332 Mg325 2.079 . S
O332 C334 1.273 . S
C333 O329 1.246 . S
C333 O330 1.259 . S
C334 O331 1.252 . S
C334 O332 1.273 . S
O335 Mg322 2.010 . S
O335 C327 1.249 . S
Mg336 O337 2.028 . S
Mg336 O343 1.986 . S
Mg336 O345 2.114 . S
Mg336 O346 2.251 . S
Mg336 O349 2.010 . S
O337 Mg336 2.028 . S
O337 C340 1.250 . S
O338 Mg339 2.028 . S
O338 C340 1.248 . S
Mg339 O338 2.028 . S
Mg339 O344 2.032 . S
Mg339 O346 2.079 . S
C340 O337 1.250 . S
C340 O338 1.248 . S
C341 O342 1.264 . S
C341 O349 1.249 . S
O342 C341 1.264 . S
O343 Mg336 1.986 . S
O343 C347 1.246 . S
O344 Mg339 2.032 . S
O344 C347 1.259 . S
O345 Mg336 2.114 . S
O345 C348 1.252 . S
O346 Mg336 2.251 . S
O346 Mg339 2.079 . S
O346 C348 1.273 . S
C347 O343 1.246 . S
C347 O344 1.259 . S
C348 O345 1.252 . S
C348 O346 1.273 . S
O349 Mg336 2.010 . S
O349 C341 1.249 . S
Mg350 O351 2.028 . S
Mg350 O357 1.986 . S
Mg350 O359 2.114 . S
Mg350 O360 2.251 . S
Mg350 O363 2.010 . S
O351 Mg350 2.028 . S
O351 C354 1.250 . S
O352 Mg353 2.028 . S
O352 C354 1.248 . S
Mg353 O352 2.028 . S
Mg353 O358 2.032 . S
Mg353 O360 2.079 . S
C354 O351 1.250 . S
C354 O352 1.248 . S
C355 O356 1.264 . S
C355 O363 1.249 . S
O356 C355 1.264 . S
O357 Mg350 1.986 . S
O357 C361 1.246 . S
O358 Mg353 2.032 . S
O358 C361 1.259 . S
O359 Mg350 2.114 . S
O359 C362 1.252 . S
O360 Mg350 2.251 . S
O360 Mg353 2.079 . S
O360 C362 1.273 . S
C361 O357 1.246 . S
C361 O358 1.259 . S
C362 O359 1.252 . S
C362 O360 1.273 . S
O363 Mg350 2.010 . S
O363 C355 1.249 . S
Mg364 O365 2.028 . S
Mg364 O371 1.986 . S
Mg364 O373 2.114 . S
Mg364 O374 2.251 . S
Mg364 O377 2.010 . S
O365 Mg364 2.028 . S
O365 C368 1.250 . S
O366 Mg367 2.028 . S
O366 C368 1.248 . S
Mg367 O366 2.028 . S
Mg367 O372 2.032 . S
Mg367 O374 2.079 . S
C368 O365 1.250 . S
C368 O366 1.248 . S
C369 O370 1.264 . S
C369 O377 1.249 . S
O370 C369 1.264 . S
O371 Mg364 1.986 . S
O371 C375 1.246 . S
O372 Mg367 2.032 . S
O372 C375 1.259 . S
O373 Mg364 2.114 . S
O373 C376 1.252 . S
O374 Mg364 2.251 . S
O374 Mg367 2.079 . S
O374 C376 1.273 . S
C375 O371 1.246 . S
C375 O372 1.259 . S
C376 O373 1.252 . S
C376 O374 1.273 . S
O377 Mg364 2.010 . S
O377 C369 1.249 . S
Mg378 O379 2.028 . S
Mg378 O385 1.986 . S
Mg378 O387 2.114 . S
Mg378 O388 2.251 . S
Mg378 O391 2.010 . S
O379 Mg378 2.028 . S
O379 C382 1.250 . S
O380 Mg381 2.028 . S
O380 C382 1.248 . S
Mg381 O380 2.028 . S
Mg381 O386 2.032 . S
Mg381 O388 2.079 . S
C382 O379 1.250 . S
C382 O380 1.248 . S
C383 O384 1.264 . S
C383 O391 1.249 . S
O384 C383 1.264 . S
O385 Mg378 1.986 . S
O385 C389 1.246 . S
O386 Mg381 2.032 . S
O386 C389 1.259 . S
O387 Mg378 2.114 . S
O387 C390 1.252 . S
O388 Mg378 2.251 . S
O388 Mg381 2.079 . S
O388 C390 1.273 . S
C389 O385 1.246 . S
C389 O386 1.259 . S
C390 O387 1.252 . S
C390 O388 1.273 . S
O391 Mg378 2.010 . S
O391 C383 1.249 . S
Mg392 O393 2.028 . S
Mg392 O399 1.986 . S
Mg392 O401 2.114 . S
Mg392 O402 2.251 . S
Mg392 O405 2.010 . S
O393 Mg392 2.028 . S
O393 C396 1.250 . S
O394 Mg395 2.028 . S
O394 C396 1.248 . S
Mg395 O394 2.028 . S
Mg395 O400 2.032 . S
Mg395 O402 2.079 . S
C396 O393 1.250 . S
C396 O394 1.248 . S
C397 O398 1.264 . S
C397 O405 1.249 . S
O398 C397 1.264 . S
O399 Mg392 1.986 . S
O399 C403 1.246 . S
O400 Mg395 2.032 . S
O400 C403 1.259 . S
O401 Mg392 2.114 . S
O401 C404 1.252 . S
O402 Mg392 2.251 . S
O402 Mg395 2.079 . S
O402 C404 1.273 . S
C403 O399 1.246 . S
C403 O400 1.259 . S
C404 O401 1.252 . S
C404 O402 1.273 . S
O405 Mg392 2.010 . S
O405 C397 1.249 . S
Mg406 O407 2.028 . S
Mg406 O413 1.986 . S
Mg406 O415 2.114 . S
Mg406 O416 2.251 . S
Mg406 O419 2.010 . S
O407 Mg406 2.028 . S
O407 C410 1.250 . S
O408 Mg409 2.028 . S
O408 C410 1.248 . S
Mg409 O408 2.028 . S
Mg409 O414 2.032 . S
Mg409 O416 2.079 . S
C410 O407 1.250 . S
C410 O408 1.248 . S
C411 O412 1.264 . S
C411 O419 1.249 . S
O412 C411 1.264 . S
O413 Mg406 1.986 . S
O413 C417 1.246 . S
O414 Mg409 2.032 . S
O414 C417 1.259 . S
O415 Mg406 2.114 . S
O415 C418 1.252 . S
O416 Mg406 2.251 . S
O416 Mg409 2.079 . S
O416 C418 1.273 . S
C417 O413 1.246 . S
C417 O414 1.259 . S
C418 O415 1.252 . S
C418 O416 1.273 . S
O419 Mg406 2.010 . S
O419 C411 1.249 . S
Mg420 O421 2.028 . S
Mg420 O427 1.986 . S
Mg420 O429 2.114 . S
Mg420 O430 2.251 . S
Mg420 O433 2.010 . S
O421 Mg420 2.028 . S
O421 C424 1.250 . S
O422 Mg423 2.028 . S
O422 C424 1.248 . S
Mg423 O422 2.028 . S
Mg423 O428 2.032 . S
Mg423 O430 2.079 . S
C424 O421 1.250 . S
C424 O422 1.248 . S
C425 O426 1.264 . S
C425 O433 1.249 . S
O426 C425 1.264 . S
O427 Mg420 1.986 . S
O427 C431 1.246 . S
O428 Mg423 2.032 . S
O428 C431 1.259 . S
O429 Mg420 2.114 . S
O429 C432 1.252 . S
O430 Mg420 2.251 . S
O430 Mg423 2.079 . S
O430 C432 1.273 . S
C431 O427 1.246 . S
C431 O428 1.259 . S
C432 O429 1.252 . S
C432 O430 1.273 . S
O433 Mg420 2.010 . S
O433 C425 1.249 . S
Mg434 O435 2.028 . S
Mg434 O441 1.986 . S
Mg434 O443 2.114 . S
Mg434 O444 2.251 . S
Mg434 O447 2.010 . S
O435 Mg434 2.028 . S
O435 C438 1.250 . S
O436 Mg437 2.028 . S
O436 C438 1.248 . S
Mg437 O436 2.028 . S
Mg437 O442 2.032 . S
Mg437 O444 2.079 . S
C438 O435 1.250 . S
C438 O436 1.248 . S
C439 O440 1.264 . S
C439 O447 1.249 . S
O440 C439 1.264 . S
O441 Mg434 1.986 . S
O441 C445 1.246 . S
O442 Mg437 2.032 . S
O442 C445 1.259 . S
O443 Mg434 2.114 . S
O443 C446 1.252 . S
O444 Mg434 2.251 . S
O444 Mg437 2.079 . S
O444 C446 1.273 . S
C445 O441 1.246 . S
C445 O442 1.259 . S
C446 O443 1.252 . S
C446 O444 1.273 . S
O447 Mg434 2.010 . S
O447 C439 1.249 . S
H448 C454 0.930 . S
H449 C458 0.930 . S
H450 C463 0.929 . S
H451 C461 0.929 . S
H452 C456 0.929 . S
H453 C462 0.929 . S
C454 H448 0.930 . S
C454 C455 1.367 1_554 S
C454 C462 1.378 . S
C455 C454 1.367 1_556 S
C455 C463 1.433 . S
C456 H452 0.929 . S
C456 C458 1.378 . S
C456 C460 1.350 1_556 S
C457 C460 1.463 1_656 S
C457 C462 1.350 1_556 S
C457 N465 1.427 . S
C458 H449 0.930 . S
C458 C456 1.378 . S
C458 C459 1.367 1_556 S
C459 C458 1.367 1_554 S
C459 C461 1.433 . S
C460 C456 1.350 1_554 S
C460 C457 1.463 1_454 S
C460 N464 1.427 . S
C461 H451 0.929 . S
C461 C459 1.433 . S
C461 N464 1.384 . S
C462 H453 0.929 . S
C462 C454 1.378 . S
C462 C457 1.350 1_554 S
C463 H450 0.929 . S
C463 C455 1.433 . S
C463 N465 1.384 . S
N464 C460 1.427 . S
N464 C461 1.384 . S
N465 C457 1.427 . S
N465 C463 1.384 . S
H466 C472 0.930 . S
H467 C476 0.930 . S
H468 C481 0.929 . S
H469 C479 0.929 . S
H470 C474 0.929 . S
H471 C480 0.929 . S
C472 H466 0.930 . S
C472 C473 1.367 . S
C472 C480 1.378 . S
C473 C472 1.367 . S
C473 C481 1.433 . S
C474 H470 0.929 . S
C474 C476 1.378 . S
C474 C478 1.350 . S
C475 C478 1.463 . S
C475 C480 1.350 . S
C475 N483 1.427 . S
C476 H467 0.930 . S
C476 C474 1.378 . S
C476 C477 1.367 . S
C477 C476 1.367 . S
C477 C479 1.433 . S
C478 C474 1.350 . S
C478 C475 1.463 . S
C478 N482 1.427 . S
C479 H469 0.929 . S
C479 C477 1.433 . S
C479 N482 1.384 . S
C480 H471 0.929 . S
C480 C472 1.378 . S
C480 C475 1.350 . S
C481 H468 0.929 . S
C481 C473 1.433 . S
C481 N483 1.384 . S
N482 C478 1.427 . S
N482 C479 1.384 . S
N483 C475 1.427 . S
N483 C481 1.384 . S
H484 C490 0.930 . S
H485 C494 0.930 . S
H486 C499 0.929 . S
H487 C497 0.929 . S
H488 C492 0.929 . S
H489 C498 0.929 . S
C490 H484 0.930 . S
C490 C491 1.367 . S
C490 C498 1.378 . S
C491 C490 1.367 . S
C491 C499 1.433 . S
C492 H488 0.929 . S
C492 C494 1.378 . S
C492 C496 1.350 . S
C493 C496 1.463 . S
C493 C498 1.350 . S
C493 N501 1.427 . S
C494 H485 0.930 . S
C494 C492 1.378 . S
C494 C495 1.367 . S
C495 C494 1.367 . S
C495 C497 1.433 . S
C496 C492 1.350 . S
C496 C493 1.463 . S
C496 N500 1.427 . S
C497 H487 0.929 . S
C497 C495 1.433 . S
C497 N500 1.384 . S
C498 H489 0.929 . S
C498 C490 1.378 . S
C498 C493 1.350 . S
C499 H486 0.929 . S
C499 C491 1.433 . S
C499 N501 1.384 . S
N500 C496 1.427 . S
N500 C497 1.384 . S
N501 C493 1.427 . S
N501 C499 1.384 . S
H502 C508 0.930 . S
H503 C512 0.930 . S
H504 C517 0.929 . S
H505 C515 0.929 . S
H506 C510 0.929 . S
H507 C516 0.929 . S
C508 H502 0.930 . S
C508 C509 1.367 . S
C508 C516 1.378 . S
C509 C508 1.367 . S
C509 C517 1.433 . S
C510 H506 0.929 . S
C510 C512 1.378 . S
C510 C514 1.350 . S
C511 C514 1.463 . S
C511 C516 1.350 . S
C511 N519 1.427 . S
C512 H503 0.930 . S
C512 C510 1.378 . S
C512 C513 1.367 . S
C513 C512 1.367 . S
C513 C515 1.433 . S
C514 C510 1.350 . S
C514 C511 1.463 . S
C514 N518 1.427 . S
C515 H505 0.929 . S
C515 C513 1.433 . S
C515 N518 1.384 . S
C516 H507 0.929 . S
C516 C508 1.378 . S
C516 C511 1.350 . S
C517 H504 0.929 . S
C517 C509 1.433 . S
C517 N519 1.384 . S
N518 C514 1.427 . S
N518 C515 1.384 . S
N519 C511 1.427 . S
N519 C517 1.384 . S
H520 C526 0.930 . S
H521 C530 0.930 . S
H522 C535 0.929 . S
H523 C533 0.929 . S
H524 C528 0.929 . S
H525 C534 0.929 . S
C526 H520 0.930 . S
C526 C527 1.367 . S
C526 C534 1.378 . S
C527 C526 1.367 . S
C527 C535 1.433 . S
C528 H524 0.929 . S
C528 C530 1.378 . S
C528 C532 1.350 . S
C529 C532 1.463 1_655 S
C529 C534 1.350 . S
C529 N537 1.427 . S
C530 H521 0.930 . S
C530 C528 1.378 . S
C530 C531 1.367 . S
C531 C530 1.367 . S
C531 C533 1.433 . S
C532 C528 1.350 . S
C532 C529 1.463 1_455 S
C532 N536 1.427 . S
C533 H523 0.929 . S
C533 C531 1.433 . S
C533 N536 1.384 . S
C534 H525 0.929 . S
C534 C526 1.378 . S
C534 C529 1.350 . S
C535 H522 0.929 . S
C535 C527 1.433 . S
C535 N537 1.384 . S
N536 C532 1.427 . S
N536 C533 1.384 . S
N537 C529 1.427 . S
N537 C535 1.384 . S
H538 C544 0.930 . S
H539 C548 0.930 . S
H540 C553 0.929 . S
H541 C551 0.929 . S
H542 C546 0.929 . S
H543 C552 0.929 . S
C544 H538 0.930 . S
C544 C545 1.367 . S
C544 C552 1.378 . S
C545 C544 1.367 . S
C545 C553 1.433 . S
C546 H542 0.929 . S
C546 C548 1.378 . S
C546 C550 1.350 . S
C547 C550 1.463 . S
C547 C552 1.350 . S
C547 N555 1.427 . S
C548 H539 0.930 . S
C548 C546 1.378 . S
C548 C549 1.367 . S
C549 C548 1.367 . S
C549 C551 1.433 . S
C550 C546 1.350 . S
C550 C547 1.463 . S
C550 N554 1.427 . S
C551 H541 0.929 . S
C551 C549 1.433 . S
C551 N554 1.384 . S
C552 H543 0.929 . S
C552 C544 1.378 . S
C552 C547 1.350 . S
C553 H540 0.929 . S
C553 C545 1.433 . S
C553 N555 1.384 . S
N554 C550 1.427 . S
N554 C551 1.384 . S
N555 C547 1.427 . S
N555 C553 1.384 . S
H556 C562 0.930 . S
H557 C566 0.930 . S
H558 C571 0.929 . S
H559 C569 0.929 . S
H560 C564 0.929 . S
H561 C570 0.929 . S
C562 H556 0.930 . S
C562 C563 1.367 1_554 S
C562 C570 1.378 . S
C563 C562 1.367 1_556 S
C563 C571 1.433 . S
C564 H560 0.929 . S
C564 C566 1.378 . S
C564 C568 1.350 1_556 S
C565 C568 1.463 1_556 S
C565 C570 1.350 1_556 S
C565 N573 1.427 . S
C566 H557 0.930 . S
C566 C564 1.378 . S
C566 C567 1.367 1_556 S
C567 C566 1.367 1_554 S
C567 C569 1.433 . S
C568 C564 1.350 1_554 S
C568 C565 1.463 1_554 S
C568 N572 1.427 . S
C569 H559 0.929 . S
C569 C567 1.433 . S
C569 N572 1.384 . S
C570 H561 0.929 . S
C570 C562 1.378 . S
C570 C565 1.350 1_554 S
C571 H558 0.929 . S
C571 C563 1.433 . S
C571 N573 1.384 . S
N572 C568 1.427 . S
N572 C569 1.384 . S
N573 C565 1.427 . S
N573 C571 1.384 . S
H574 C580 0.930 . S
H575 C584 0.930 . S
H576 C589 0.929 . S
H577 C587 0.929 . S
H578 C582 0.929 . S
H579 C588 0.929 . S
C580 H574 0.930 . S
C580 C581 1.367 . S
C580 C588 1.378 . S
C581 C580 1.367 . S
C581 C589 1.433 . S
C582 H578 0.929 . S
C582 C584 1.378 . S
C582 C586 1.350 . S
C583 C586 1.463 . S
C583 C588 1.350 . S
C583 N591 1.427 . S
C584 H575 0.930 . S
C584 C582 1.378 . S
C584 C585 1.367 . S
C585 C584 1.367 . S
C585 C587 1.433 . S
C586 C582 1.350 . S
C586 C583 1.463 . S
C586 N590 1.427 . S
C587 H577 0.929 . S
C587 C585 1.433 . S
C587 N590 1.384 . S
C588 H579 0.929 . S
C588 C580 1.378 . S
C588 C583 1.350 . S
C589 H576 0.929 . S
C589 C581 1.433 . S
C589 N591 1.384 . S
N590 C586 1.427 . S
N590 C587 1.384 . S
N591 C583 1.427 . S
N591 C589 1.384 . S
H592 C598 0.930 . S
H593 C602 0.930 . S
H594 C607 0.929 . S
H595 C605 0.929 . S
H596 C600 0.929 . S
H597 C606 0.929 . S
C598 H592 0.930 . S
C598 C599 1.367 . S
C598 C606 1.378 . S
C599 C598 1.367 . S
C599 C607 1.433 . S
C600 H596 0.929 . S
C600 C602 1.378 . S
C600 C604 1.350 . S
C601 C604 1.463 . S
C601 C606 1.350 . S
C601 N609 1.427 . S
C602 H593 0.930 . S
C602 C600 1.378 . S
C602 C603 1.367 . S
C603 C602 1.367 . S
C603 C605 1.433 . S
C604 C600 1.350 . S
C604 C601 1.463 . S
C604 N608 1.427 . S
C605 H595 0.929 . S
C605 C603 1.433 . S
C605 N608 1.384 . S
C606 H597 0.929 . S
C606 C598 1.378 . S
C606 C601 1.350 . S
C607 H594 0.929 . S
C607 C599 1.433 . S
C607 N609 1.384 . S
N608 C604 1.427 . S
N608 C605 1.384 . S
N609 C601 1.427 . S
N609 C607 1.384 . S
H610 C616 0.930 . S
H611 C620 0.930 . S
H612 C625 0.929 . S
H613 C623 0.929 . S
H614 C618 0.929 . S
H615 C624 0.929 . S
C616 H610 0.930 . S
C616 C617 1.367 . S
C616 C624 1.378 . S
C617 C616 1.367 . S
C617 C625 1.433 . S
C618 H614 0.929 . S
C618 C620 1.378 . S
C618 C622 1.350 . S
C619 C622 1.463 . S
C619 C624 1.350 . S
C619 N627 1.427 . S
C620 H611 0.930 . S
C620 C618 1.378 . S
C620 C621 1.367 . S
C621 C620 1.367 . S
C621 C623 1.433 . S
C622 C618 1.350 . S
C622 C619 1.463 . S
C622 N626 1.427 . S
C623 H613 0.929 . S
C623 C621 1.433 . S
C623 N626 1.384 . S
C624 H615 0.929 . S
C624 C616 1.378 . S
C624 C619 1.350 . S
C625 H612 0.929 . S
C625 C617 1.433 . S
C625 N627 1.384 . S
N626 C622 1.427 . S
N626 C623 1.384 . S
N627 C619 1.427 . S
N627 C625 1.384 . S
H628 C634 0.930 . S
H629 C638 0.930 . S
H630 C643 0.929 . S
H631 C641 0.929 . S
H632 C636 0.929 . S
H633 C642 0.929 . S
C634 H628 0.930 . S
C634 C635 1.367 . S
C634 C642 1.378 . S
C635 C634 1.367 . S
C635 C643 1.433 . S
C636 H632 0.929 . S
C636 C638 1.378 . S
C636 C640 1.350 . S
C637 C640 1.463 . S
C637 C642 1.350 . S
C637 N645 1.427 . S
C638 H629 0.930 . S
C638 C636 1.378 . S
C638 C639 1.367 . S
C639 C638 1.367 . S
C639 C641 1.433 . S
C640 C636 1.350 . S
C640 C637 1.463 . S
C640 N644 1.427 . S
C641 H631 0.929 . S
C641 C639 1.433 . S
C641 N644 1.384 . S
C642 H633 0.929 . S
C642 C634 1.378 . S
C642 C637 1.350 . S
C643 H630 0.929 . S
C643 C635 1.433 . S
C643 N645 1.384 . S
N644 C640 1.427 . S
N644 C641 1.384 . S
N645 C637 1.427 . S
N645 C643 1.384 . S
H646 C652 0.930 . S
H647 C656 0.930 . S
H648 C661 0.929 . S
H649 C659 0.929 . S
H650 C654 0.929 . S
H651 C660 0.929 . S
C652 H646 0.930 . S
C652 C653 1.367 . S
C652 C660 1.378 . S
C653 C652 1.367 . S
C653 C661 1.433 . S
C654 H650 0.929 . S
C654 C656 1.378 . S
C654 C658 1.350 . S
C655 C658 1.463 . S
C655 C660 1.350 . S
C655 N663 1.427 . S
C656 H647 0.930 . S
C656 C654 1.378 . S
C656 C657 1.367 . S
C657 C656 1.367 . S
C657 C659 1.433 . S
C658 C654 1.350 . S
C658 C655 1.463 . S
C658 N662 1.427 . S
C659 H649 0.929 . S
C659 C657 1.433 . S
C659 N662 1.384 . S
C660 H651 0.929 . S
C660 C652 1.378 . S
C660 C655 1.350 . S
C661 H648 0.929 . S
C661 C653 1.433 . S
C661 N663 1.384 . S
N662 C658 1.427 . S
N662 C659 1.384 . S
N663 C655 1.427 . S
N663 C661 1.384 . S
H664 C670 0.930 . S
H665 C674 0.930 . S
H666 C679 0.929 . S
H667 C677 0.929 . S
H668 C672 0.929 1_565 S
H669 C678 0.929 1_545 S
C670 H664 0.930 . S
C670 C671 1.367 . S
C670 C678 1.378 . S
C671 C670 1.367 . S
C671 C679 1.433 . S
C672 H668 0.929 1_545 S
C672 C674 1.378 . S
C672 C676 1.350 . S
C673 C676 1.463 1_565 S
C673 C678 1.350 . S
C673 N681 1.427 . S
C674 H665 0.930 . S
C674 C672 1.378 . S
C674 C675 1.367 . S
C675 C674 1.367 . S
C675 C677 1.433 . S
C676 C672 1.350 . S
C676 C673 1.463 1_545 S
C676 N680 1.427 . S
C677 H667 0.929 . S
C677 C675 1.433 . S
C677 N680 1.384 . S
C678 H669 0.929 1_565 S
C678 C670 1.378 . S
C678 C673 1.350 . S
C679 H666 0.929 . S
C679 C671 1.433 . S
C679 N681 1.384 . S
N680 C676 1.427 . S
N680 C677 1.384 . S
N681 C673 1.427 . S
N681 C679 1.384 . S
H682 C688 0.930 . S
H683 C692 0.930 . S
H684 C697 0.929 . S
H685 C695 0.929 . S
H686 C690 0.929 1_455 S
H687 C696 0.929 1_655 S
C688 H682 0.930 . S
C688 C689 1.367 . S
C688 C696 1.378 . S
C689 C688 1.367 . S
C689 C697 1.433 1_556 S
C690 H686 0.929 1_655 S
C690 C692 1.378 . S
C690 C694 1.350 . S
C691 C694 1.463 1_466 S
C691 C696 1.350 . S
C691 N699 1.427 1_556 S
C692 H683 0.930 . S
C692 C690 1.378 . S
C692 C693 1.367 . S
C693 C692 1.367 . S
C693 C695 1.433 1_554 S
C694 C690 1.350 . S
C694 C691 1.463 1_644 S
C694 N698 1.427 1_554 S
C695 H685 0.929 . S
C695 C693 1.433 1_556 S
C695 N698 1.384 . S
C696 H687 0.929 1_455 S
C696 C688 1.378 . S
C696 C691 1.350 . S
C697 H684 0.929 . S
C697 C689 1.433 1_554 S
C697 N699 1.384 . S
N698 C694 1.427 1_556 S
N698 C695 1.384 . S
N699 C691 1.427 1_554 S
N699 C697 1.384 . S
H700 C706 0.930 . S
H701 C710 0.930 . S
H702 C715 0.929 . S
H703 C713 0.929 . S
H704 C708 0.929 . S
H705 C714 0.929 . S
C706 H700 0.930 . S
C706 C707 1.367 . S
C706 C714 1.378 1_556 S
C707 C706 1.367 . S
C707 C715 1.433 . S
C708 H704 0.929 . S
C708 C710 1.378 1_556 S
C708 C712 1.350 1_556 S
C709 C712 1.463 1_546 S
C709 C714 1.350 1_556 S
C709 N717 1.427 . S
C710 H701 0.930 . S
C710 C708 1.378 1_554 S
C710 C711 1.367 . S
C711 C710 1.367 . S
C711 C713 1.433 . S
C712 C708 1.350 1_554 S
C712 C709 1.463 1_564 S
C712 N716 1.427 . S
C713 H703 0.929 . S
C713 C711 1.433 . S
C713 N716 1.384 . S
C714 H705 0.929 . S
C714 C706 1.378 1_554 S
C714 C709 1.350 1_554 S
C715 H702 0.929 . S
C715 C707 1.433 . S
C715 N717 1.384 . S
N716 C712 1.427 . S
N716 C713 1.384 . S
N717 C709 1.427 . S
N717 C715 1.384 . S
H718 C724 0.930 . S
H719 C728 0.930 . S
H720 C733 0.929 . S
H721 C731 0.929 . S
H722 C726 0.929 . S
H723 C732 0.929 . S
C724 H718 0.930 . S
C724 C725 1.367 . S
C724 C732 1.378 1_455 S
C725 C724 1.367 . S
C725 C733 1.433 . S
C726 H722 0.929 . S
C726 C728 1.378 1_455 S
C726 C730 1.350 1_455 S
C727 C730 1.463 1_445 S
C727 C732 1.350 1_455 S
C727 N735 1.427 . S
C728 H719 0.930 . S
C728 C726 1.378 1_655 S
C728 C729 1.367 . S
C729 C728 1.367 . S
C729 C731 1.433 . S
C730 C726 1.350 1_655 S
C730 C727 1.463 1_665 S
C730 N734 1.427 . S
C731 H721 0.929 . S
C731 C729 1.433 . S
C731 N734 1.384 . S
C732 H723 0.929 . S
C732 C724 1.378 1_655 S
C732 C727 1.350 1_655 S
C733 H720 0.929 . S
C733 C725 1.433 . S
C733 N735 1.384 . S
N734 C730 1.427 . S
N734 C731 1.384 . S
N735 C727 1.427 . S
N735 C733 1.384 . S
H736 C742 0.930 . S
H737 C746 0.930 . S
H738 C751 0.929 . S
H739 C749 0.929 . S
H740 C744 0.929 1_655 S
H741 C750 0.929 1_455 S
C742 H736 0.930 . S
C742 C743 1.367 . S
C742 C750 1.378 . S
C743 C742 1.367 . S
C743 C751 1.433 . S
C744 H740 0.929 1_455 S
C744 C746 1.378 . S
C744 C748 1.350 . S
C745 C748 1.463 1_655 S
C745 C750 1.350 . S
C745 N753 1.427 . S
C746 H737 0.930 . S
C746 C744 1.378 . S
C746 C747 1.367 . S
C747 C746 1.367 . S
C747 C749 1.433 . S
C748 C744 1.350 . S
C748 C745 1.463 1_455 S
C748 N752 1.427 . S
C749 H739 0.929 . S
C749 C747 1.433 . S
C749 N752 1.384 . S
C750 H741 0.929 1_655 S
C750 C742 1.378 . S
C750 C745 1.350 . S
C751 H738 0.929 . S
C751 C743 1.433 . S
C751 N753 1.384 . S
N752 C748 1.427 . S
N752 C749 1.384 . S
N753 C745 1.427 . S
N753 C751 1.384 . S
H754 C760 0.930 . S
H755 C764 0.930 . S
H756 C769 0.929 . S
H757 C767 0.929 . S
H758 C762 0.929 . S
H759 C768 0.929 . S
C760 H754 0.930 . S
C760 C761 1.367 . S
C760 C768 1.378 . S
C761 C760 1.367 . S
C761 C769 1.433 . S
C762 H758 0.929 . S
C762 C764 1.378 . S
C762 C766 1.350 . S
C763 C766 1.463 1_455 S
C763 C768 1.350 . S
C763 N771 1.427 . S
C764 H755 0.930 . S
C764 C762 1.378 . S
C764 C765 1.367 . S
C765 C764 1.367 . S
C765 C767 1.433 . S
C766 C762 1.350 . S
C766 C763 1.463 1_655 S
C766 N770 1.427 . S
C767 H757 0.929 . S
C767 C765 1.433 . S
C767 N770 1.384 . S
C768 H759 0.929 . S
C768 C760 1.378 . S
C768 C763 1.350 . S
C769 H756 0.929 . S
C769 C761 1.433 . S
C769 N771 1.384 . S
N770 C766 1.427 . S
N770 C767 1.384 . S
N771 C763 1.427 . S
N771 C769 1.384 . S
H772 C778 0.930 . S
H773 C782 0.930 . S
H774 C787 0.929 . S
H775 C785 0.929 . S
H776 C780 0.929 . S
H777 C786 0.929 . S
C778 H772 0.930 . S
C778 C779 1.367 . S
C778 C786 1.378 . S
C779 C778 1.367 . S
C779 C787 1.433 . S
C780 H776 0.929 . S
C780 C782 1.378 . S
C780 C784 1.350 . S
C781 C784 1.463 . S
C781 C786 1.350 . S
C781 N789 1.427 . S
C782 H773 0.930 . S
C782 C780 1.378 . S
C782 C783 1.367 . S
C783 C782 1.367 . S
C783 C785 1.433 . S
C784 C780 1.350 . S
C784 C781 1.463 . S
C784 N788 1.427 . S
C785 H775 0.929 . S
C785 C783 1.433 . S
C785 N788 1.384 . S
C786 H777 0.929 . S
C786 C778 1.378 . S
C786 C781 1.350 . S
C787 H774 0.929 . S
C787 C779 1.433 . S
C787 N789 1.384 . S
N788 C784 1.427 . S
N788 C785 1.384 . S
N789 C781 1.427 . S
N789 C787 1.384 . S
H790 C796 0.930 . S
H791 C800 0.930 . S
H792 C805 0.929 . S
H793 C803 0.929 . S
H794 C798 0.929 . S
H795 C804 0.929 . S
C796 H790 0.930 . S
C796 C797 1.367 . S
C796 C804 1.378 . S
C797 C796 1.367 . S
C797 C805 1.433 . S
C798 H794 0.929 . S
C798 C800 1.378 . S
C798 C802 1.350 . S
C799 C802 1.463 . S
C799 C804 1.350 . S
C799 N807 1.427 . S
C800 H791 0.930 . S
C800 C798 1.378 . S
C800 C801 1.367 . S
C801 C800 1.367 . S
C801 C803 1.433 . S
C802 C798 1.350 . S
C802 C799 1.463 . S
C802 N806 1.427 . S
C803 H793 0.929 . S
C803 C801 1.433 . S
C803 N806 1.384 . S
C804 H795 0.929 . S
C804 C796 1.378 . S
C804 C799 1.350 . S
C805 H792 0.929 . S
C805 C797 1.433 . S
C805 N807 1.384 . S
N806 C802 1.427 . S
N806 C803 1.384 . S
N807 C799 1.427 . S
N807 C805 1.384 . S
H808 C814 0.930 . S
H809 C818 0.930 . S
H810 C823 0.929 . S
H811 C821 0.929 . S
H812 C816 0.929 1_655 S
H813 C822 0.929 1_455 S
C814 H808 0.930 . S
C814 C815 1.367 . S
C814 C822 1.378 . S
C815 C814 1.367 . S
C815 C823 1.433 . S
C816 H812 0.929 1_455 S
C816 C818 1.378 . S
C816 C820 1.350 . S
C817 C820 1.463 1_655 S
C817 C822 1.350 . S
C817 N825 1.427 . S
C818 H809 0.930 . S
C818 C816 1.378 . S
C818 C819 1.367 . S
C819 C818 1.367 . S
C819 C821 1.433 . S
C820 C816 1.350 . S
C820 C817 1.463 1_455 S
C820 N824 1.427 . S
C821 H811 0.929 . S
C821 C819 1.433 . S
C821 N824 1.384 . S
C822 H813 0.929 1_655 S
C822 C814 1.378 . S
C822 C817 1.350 . S
C823 H810 0.929 . S
C823 C815 1.433 . S
C823 N825 1.384 . S
N824 C820 1.427 . S
N824 C821 1.384 . S
N825 C817 1.427 . S
N825 C823 1.384 . S
H826 C832 0.930 . S
H827 C836 0.930 . S
H828 C841 0.929 . S
H829 C839 0.929 . S
H830 C834 0.929 . S
H831 C840 0.929 . S
C832 H826 0.930 . S
C832 C833 1.367 . S
C832 C840 1.378 . S
C833 C832 1.367 . S
C833 C841 1.433 . S
C834 H830 0.929 . S
C834 C836 1.378 . S
C834 C838 1.350 . S
C835 C838 1.463 . S
C835 C840 1.350 . S
C835 N843 1.427 . S
C836 H827 0.930 . S
C836 C834 1.378 . S
C836 C837 1.367 . S
C837 C836 1.367 . S
C837 C839 1.433 . S
C838 C834 1.350 . S
C838 C835 1.463 . S
C838 N842 1.427 . S
C839 H829 0.929 . S
C839 C837 1.433 . S
C839 N842 1.384 . S
C840 H831 0.929 . S
C840 C832 1.378 . S
C840 C835 1.350 . S
C841 H828 0.929 . S
C841 C833 1.433 . S
C841 N843 1.384 . S
N842 C838 1.427 . S
N842 C839 1.384 . S
N843 C835 1.427 . S
N843 C841 1.384 . S
H844 C850 0.930 . S
H845 C854 0.930 . S
H846 C859 0.929 . S
H847 C857 0.929 . S
H848 C852 0.929 . S
H849 C858 0.929 . S
C850 H844 0.930 . S
C850 C851 1.367 . S
C850 C858 1.378 . S
C851 C850 1.367 . S
C851 C859 1.433 . S
C852 H848 0.929 . S
C852 C854 1.378 . S
C852 C856 1.350 . S
C853 C856 1.463 . S
C853 C858 1.350 . S
C853 N861 1.427 . S
C854 H845 0.930 . S
C854 C852 1.378 . S
C854 C855 1.367 . S
C855 C854 1.367 . S
C855 C857 1.433 . S
C856 C852 1.350 . S
C856 C853 1.463 . S
C856 N860 1.427 . S
C857 H847 0.929 . S
C857 C855 1.433 . S
C857 N860 1.384 . S
C858 H849 0.929 . S
C858 C850 1.378 . S
C858 C853 1.350 . S
C859 H846 0.929 . S
C859 C851 1.433 . S
C859 N861 1.384 . S
N860 C856 1.427 . S
N860 C857 1.384 . S
N861 C853 1.427 . S
N861 C859 1.384 . S
H862 C868 0.930 . S
H863 C872 0.930 . S
H864 C877 0.929 . S
H865 C875 0.929 . S
H866 C870 0.929 . S
H867 C876 0.929 . S
C868 H862 0.930 . S
C868 C869 1.367 . S
C868 C876 1.378 . S
C869 C868 1.367 . S
C869 C877 1.433 . S
C870 H866 0.929 . S
C870 C872 1.378 . S
C870 C874 1.350 . S
C871 C874 1.463 1_455 S
C871 C876 1.350 . S
C871 N879 1.427 . S
C872 H863 0.930 . S
C872 C870 1.378 . S
C872 C873 1.367 . S
C873 C872 1.367 . S
C873 C875 1.433 . S
C874 C870 1.350 . S
C874 C871 1.463 1_655 S
C874 N878 1.427 . S
C875 H865 0.929 . S
C875 C873 1.433 . S
C875 N878 1.384 . S
C876 H867 0.929 . S
C876 C868 1.378 . S
C876 C871 1.350 . S
C877 H864 0.929 . S
C877 C869 1.433 . S
C877 N879 1.384 . S
N878 C874 1.427 . S
N878 C875 1.384 . S
N879 C871 1.427 . S
N879 C877 1.384 . S
H880 C886 0.930 . S
H881 C890 0.930 . S
H882 C895 0.929 . S
H883 C893 0.929 . S
H884 C888 0.929 . S
H885 C894 0.929 . S
C886 H880 0.930 . S
C886 C887 1.367 . S
C886 C894 1.378 . S
C887 C886 1.367 . S
C887 C895 1.433 . S
C888 H884 0.929 . S
C888 C890 1.378 . S
C888 C892 1.350 . S
C889 C892 1.463 1_655 S
C889 C894 1.350 . S
C889 N897 1.427 . S
C890 H881 0.930 . S
C890 C888 1.378 . S
C890 C891 1.367 . S
C891 C890 1.367 . S
C891 C893 1.433 . S
C892 C888 1.350 . S
C892 C889 1.463 1_455 S
C892 N896 1.427 . S
C893 H883 0.929 . S
C893 C891 1.433 . S
C893 N896 1.384 . S
C894 H885 0.929 . S
C894 C886 1.378 . S
C894 C889 1.350 . S
C895 H882 0.929 . S
C895 C887 1.433 . S
C895 N897 1.384 . S
N896 C892 1.427 . S
N896 C893 1.384 . S
N897 C889 1.427 . S
N897 C895 1.384 . S
H898 C904 0.930 . S
H899 C908 0.930 . S
H900 C913 0.929 . S
H901 C911 0.929 . S
H902 C906 0.929 . S
H903 C912 0.929 . S
C904 H898 0.930 . S
C904 C905 1.367 . S
C904 C912 1.378 . S
C905 C904 1.367 . S
C905 C913 1.433 . S
C906 H902 0.929 . S
C906 C908 1.378 . S
C906 C910 1.350 . S
C907 C910 1.463 1_655 S
C907 C912 1.350 . S
C907 N915 1.427 . S
C908 H899 0.930 . S
C908 C906 1.378 . S
C908 C909 1.367 . S
C909 C908 1.367 . S
C909 C911 1.433 . S
C910 C906 1.350 . S
C910 C907 1.463 1_455 S
C910 N914 1.427 . S
C911 H901 0.929 . S
C911 C909 1.433 . S
C911 N914 1.384 . S
C912 H903 0.929 . S
C912 C904 1.378 . S
C912 C907 1.350 . S
C913 H900 0.929 . S
C913 C905 1.433 . S
C913 N915 1.384 . S
N914 C910 1.427 . S
N914 C911 1.384 . S
N915 C907 1.427 . S
N915 C913 1.384 . S
H916 C922 0.930 . S
H917 C926 0.930 . S
H918 C931 0.929 . S
H919 C929 0.929 . S
H920 C924 0.929 . S
H921 C930 0.929 . S
C922 H916 0.930 . S
C922 C923 1.367 . S
C922 C930 1.378 . S
C923 C922 1.367 . S
C923 C931 1.433 . S
C924 H920 0.929 . S
C924 C926 1.378 . S
C924 C928 1.350 . S
C925 C928 1.463 . S
C925 C930 1.350 . S
C925 N933 1.427 . S
C926 H917 0.930 . S
C926 C924 1.378 . S
C926 C927 1.367 . S
C927 C926 1.367 . S
C927 C929 1.433 . S
C928 C924 1.350 . S
C928 C925 1.463 . S
C928 N932 1.427 . S
C929 H919 0.929 . S
C929 C927 1.433 . S
C929 N932 1.384 . S
C930 H921 0.929 . S
C930 C922 1.378 . S
C930 C925 1.350 . S
C931 H918 0.929 . S
C931 C923 1.433 . S
C931 N933 1.384 . S
N932 C928 1.427 . S
N932 C929 1.384 . S
N933 C925 1.427 . S
N933 C931 1.384 . S
H934 C940 0.930 . S
H935 C944 0.930 . S
H936 C949 0.929 . S
H937 C947 0.929 . S
H938 C942 0.929 . S
H939 C948 0.929 . S
C940 H934 0.930 . S
C940 C941 1.367 . S
C940 C948 1.378 . S
C941 C940 1.367 . S
C941 C949 1.433 . S
C942 H938 0.929 . S
C942 C944 1.378 . S
C942 C946 1.350 . S
C943 C946 1.463 . S
C943 C948 1.350 . S
C943 N951 1.427 . S
C944 H935 0.930 . S
C944 C942 1.378 . S
C944 C945 1.367 . S
C945 C944 1.367 . S
C945 C947 1.433 . S
C946 C942 1.350 . S
C946 C943 1.463 . S
C946 N950 1.427 . S
C947 H937 0.929 . S
C947 C945 1.433 . S
C947 N950 1.384 . S
C948 H939 0.929 . S
C948 C940 1.378 . S
C948 C943 1.350 . S
C949 H936 0.929 . S
C949 C941 1.433 . S
C949 N951 1.384 . S
N950 C946 1.427 . S
N950 C947 1.384 . S
N951 C943 1.427 . S
N951 C949 1.384 . S
H952 C958 0.930 . S
H953 C962 0.930 . S
H954 C967 0.929 . S
H955 C965 0.929 . S
H956 C960 0.929 . S
H957 C966 0.929 . S
C958 H952 0.930 . S
C958 C959 1.367 . S
C958 C966 1.378 . S
C959 C958 1.367 . S
C959 C967 1.433 . S
C960 H956 0.929 . S
C960 C962 1.378 . S
C960 C964 1.350 . S
C961 C964 1.463 1_655 S
C961 C966 1.350 . S
C961 N969 1.427 . S
C962 H953 0.930 . S
C962 C960 1.378 . S
C962 C963 1.367 . S
C963 C962 1.367 . S
C963 C965 1.433 . S
C964 C960 1.350 . S
C964 C961 1.463 1_455 S
C964 N968 1.427 . S
C965 H955 0.929 . S
C965 C963 1.433 . S
C965 N968 1.384 . S
C966 H957 0.929 . S
C966 C958 1.378 . S
C966 C961 1.350 . S
C967 H954 0.929 . S
C967 C959 1.433 . S
C967 N969 1.384 . S
N968 C964 1.427 . S
N968 C965 1.384 . S
N969 C961 1.427 . S
N969 C967 1.384 . S
H970 C976 0.930 . S
H971 C980 0.930 . S
H972 C985 0.929 . S
H973 C983 0.929 . S
H974 C978 0.929 . S
H975 C984 0.929 . S
C976 H970 0.930 . S
C976 C977 1.367 . S
C976 C984 1.378 . S
C977 C976 1.367 . S
C977 C985 1.433 . S
C978 H974 0.929 . S
C978 C980 1.378 . S
C978 C982 1.350 . S
C979 C982 1.463 . S
C979 C984 1.350 . S
C979 N987 1.427 . S
C980 H971 0.930 . S
C980 C978 1.378 . S
C980 C981 1.367 . S
C981 C980 1.367 . S
C981 C983 1.433 . S
C982 C978 1.350 . S
C982 C979 1.463 . S
C982 N986 1.427 . S
C983 H973 0.929 . S
C983 C981 1.433 . S
C983 N986 1.384 . S
C984 H975 0.929 . S
C984 C976 1.378 . S
C984 C979 1.350 . S
C985 H972 0.929 . S
C985 C977 1.433 . S
C985 N987 1.384 . S
N986 C982 1.427 . S
N986 C983 1.384 . S
N987 C979 1.427 . S
N987 C985 1.384 . S
H988 C994 0.930 . S
H989 C998 0.930 . S
H990 C1003 0.929 . S
H991 C1001 0.929 . S
H992 C996 0.929 . S
H993 C1002 0.929 . S
C994 H988 0.930 . S
C994 C995 1.367 . S
C994 C1002 1.378 . S
C995 C994 1.367 . S
C995 C1003 1.433 . S
C996 H992 0.929 . S
C996 C998 1.378 . S
C996 C1000 1.350 . S
C997 C1000 1.463 . S
C997 C1002 1.350 . S
C997 N1005 1.427 . S
C998 H989 0.930 . S
C998 C996 1.378 . S
C998 C999 1.367 . S
C999 C998 1.367 . S
C999 C1001 1.433 . S
C1000 C996 1.350 . S
C1000 C997 1.463 . S
C1000 N1004 1.427 . S
C1001 H991 0.929 . S
C1001 C999 1.433 . S
C1001 N1004 1.384 . S
C1002 H993 0.929 . S
C1002 C994 1.378 . S
C1002 C997 1.350 . S
C1003 H990 0.929 . S
C1003 C995 1.433 . S
C1003 N1005 1.384 . S
N1004 C1000 1.427 . S
N1004 C1001 1.384 . S
N1005 C997 1.427 . S
N1005 C1003 1.384 . S
H1006 C1012 0.930 . S
H1007 C1016 0.930 . S
H1008 C1021 0.929 . S
H1009 C1019 0.929 . S
H1010 C1014 0.929 . S
H1011 C1020 0.929 . S
C1012 H1006 0.930 . S
C1012 C1013 1.367 . S
C1012 C1020 1.378 . S
C1013 C1012 1.367 . S
C1013 C1021 1.433 . S
C1014 H1010 0.929 . S
C1014 C1016 1.378 . S
C1014 C1018 1.350 . S
C1015 C1018 1.463 1_655 S
C1015 C1020 1.350 . S
C1015 N1023 1.427 . S
C1016 H1007 0.930 . S
C1016 C1014 1.378 . S
C1016 C1017 1.367 . S
C1017 C1016 1.367 . S
C1017 C1019 1.433 . S
C1018 C1014 1.350 . S
C1018 C1015 1.463 1_455 S
C1018 N1022 1.427 . S
C1019 H1009 0.929 . S
C1019 C1017 1.433 . S
C1019 N1022 1.384 . S
C1020 H1011 0.929 . S
C1020 C1012 1.378 . S
C1020 C1015 1.350 . S
C1021 H1008 0.929 . S
C1021 C1013 1.433 . S
C1021 N1023 1.384 . S
N1022 C1018 1.427 . S
N1022 C1019 1.384 . S
N1023 C1015 1.427 . S
N1023 C1021 1.384 . S
H1024 C1030 0.930 . S
H1025 C1034 0.930 . S
H1026 C1039 0.929 . S
H1027 C1037 0.929 . S
H1028 C1032 0.929 . S
H1029 C1038 0.929 . S
C1030 H1024 0.930 . S
C1030 C1031 1.367 1_554 S
C1030 C1038 1.378 . S
C1031 C1030 1.367 1_556 S
C1031 C1039 1.433 . S
C1032 H1028 0.929 . S
C1032 C1034 1.378 . S
C1032 C1036 1.350 1_556 S
C1033 C1036 1.463 1_556 S
C1033 C1038 1.350 1_556 S
C1033 N1041 1.427 . S
C1034 H1025 0.930 . S
C1034 C1032 1.378 . S
C1034 C1035 1.367 1_556 S
C1035 C1034 1.367 1_554 S
C1035 C1037 1.433 . S
C1036 C1032 1.350 1_554 S
C1036 C1033 1.463 1_554 S
C1036 N1040 1.427 . S
C1037 H1027 0.929 . S
C1037 C1035 1.433 . S
C1037 N1040 1.384 . S
C1038 H1029 0.929 . S
C1038 C1030 1.378 . S
C1038 C1033 1.350 1_554 S
C1039 H1026 0.929 . S
C1039 C1031 1.433 . S
C1039 N1041 1.384 . S
N1040 C1036 1.427 . S
N1040 C1037 1.384 . S
N1041 C1033 1.427 . S
N1041 C1039 1.384 . S
H1042 C1048 0.930 . S
H1043 C1052 0.930 . S
H1044 C1057 0.929 . S
H1045 C1055 0.929 . S
H1046 C1050 0.929 . S
H1047 C1056 0.929 . S
C1048 H1042 0.930 . S
C1048 C1049 1.367 . S
C1048 C1056 1.378 . S
C1049 C1048 1.367 . S
C1049 C1057 1.433 . S
C1050 H1046 0.929 . S
C1050 C1052 1.378 . S
C1050 C1054 1.350 . S
C1051 C1054 1.463 1_545 S
C1051 C1056 1.350 . S
C1051 N1059 1.427 . S
C1052 H1043 0.930 . S
C1052 C1050 1.378 . S
C1052 C1053 1.367 . S
C1053 C1052 1.367 . S
C1053 C1055 1.433 . S
C1054 C1050 1.350 . S
C1054 C1051 1.463 1_565 S
C1054 N1058 1.427 . S
C1055 H1045 0.929 . S
C1055 C1053 1.433 . S
C1055 N1058 1.384 . S
C1056 H1047 0.929 . S
C1056 C1048 1.378 . S
C1056 C1051 1.350 . S
C1057 H1044 0.929 . S
C1057 C1049 1.433 . S
C1057 N1059 1.384 . S
N1058 C1054 1.427 . S
N1058 C1055 1.384 . S
N1059 C1051 1.427 . S
N1059 C1057 1.384 . S
H1060 C1066 0.930 . S
H1061 C1070 0.930 . S
H1062 C1075 0.929 . S
H1063 C1073 0.929 . S
H1064 C1068 0.929 . S
H1065 C1074 0.929 . S
C1066 H1060 0.930 . S
C1066 C1067 1.367 . S
C1066 C1074 1.378 . S
C1067 C1066 1.367 . S
C1067 C1075 1.433 . S
C1068 H1064 0.929 . S
C1068 C1070 1.378 . S
C1068 C1072 1.350 . S
C1069 C1072 1.463 . S
C1069 C1074 1.350 . S
C1069 N1077 1.427 . S
C1070 H1061 0.930 . S
C1070 C1068 1.378 . S
C1070 C1071 1.367 . S
C1071 C1070 1.367 . S
C1071 C1073 1.433 . S
C1072 C1068 1.350 . S
C1072 C1069 1.463 . S
C1072 N1076 1.427 . S
C1073 H1063 0.929 . S
C1073 C1071 1.433 . S
C1073 N1076 1.384 . S
C1074 H1065 0.929 . S
C1074 C1066 1.378 . S
C1074 C1069 1.350 . S
C1075 H1062 0.929 . S
C1075 C1067 1.433 . S
C1075 N1077 1.384 . S
N1076 C1072 1.427 . S
N1076 C1073 1.384 . S
N1077 C1069 1.427 . S
N1077 C1075 1.384 . S
H1078 C1084 0.930 . S
H1079 C1088 0.930 . S
H1080 C1093 0.929 . S
H1081 C1091 0.929 . S
H1082 C1086 0.929 . S
H1083 C1092 0.929 . S
C1084 H1078 0.930 . S
C1084 C1085 1.367 . S
C1084 C1092 1.378 . S
C1085 C1084 1.367 . S
C1085 C1093 1.433 . S
C1086 H1082 0.929 . S
C1086 C1088 1.378 . S
C1086 C1090 1.350 . S
C1087 C1090 1.463 1_545 S
C1087 C1092 1.350 . S
C1087 N1095 1.427 . S
C1088 H1079 0.930 . S
C1088 C1086 1.378 . S
C1088 C1089 1.367 . S
C1089 C1088 1.367 . S
C1089 C1091 1.433 . S
C1090 C1086 1.350 . S
C1090 C1087 1.463 1_565 S
C1090 N1094 1.427 . S
C1091 H1081 0.929 . S
C1091 C1089 1.433 . S
C1091 N1094 1.384 . S
C1092 H1083 0.929 . S
C1092 C1084 1.378 . S
C1092 C1087 1.350 . S
C1093 H1080 0.929 . S
C1093 C1085 1.433 . S
C1093 N1095 1.384 . S
N1094 C1090 1.427 . S
N1094 C1091 1.384 . S
N1095 C1087 1.427 . S
N1095 C1093 1.384 . S
H1096 C1102 0.930 . S
H1097 C1106 0.930 . S
H1098 C1111 0.929 . S
H1099 C1109 0.929 . S
H1100 C1104 0.929 . S
H1101 C1110 0.929 . S
C1102 H1096 0.930 . S
C1102 C1103 1.367 . S
C1102 C1110 1.378 . S
C1103 C1102 1.367 . S
C1103 C1111 1.433 1_554 S
C1104 H1100 0.929 . S
C1104 C1106 1.378 . S
C1104 C1108 1.350 . S
C1105 C1108 1.463 1_554 S
C1105 C1110 1.350 . S
C1105 N1113 1.427 1_554 S
C1106 H1097 0.930 . S
C1106 C1104 1.378 . S
C1106 C1107 1.367 . S
C1107 C1106 1.367 . S
C1107 C1109 1.433 1_556 S
C1108 C1104 1.350 . S
C1108 C1105 1.463 1_556 S
C1108 N1112 1.427 1_556 S
C1109 H1099 0.929 . S
C1109 C1107 1.433 1_554 S
C1109 N1112 1.384 . S
C1110 H1101 0.929 . S
C1110 C1102 1.378 . S
C1110 C1105 1.350 . S
C1111 H1098 0.929 . S
C1111 C1103 1.433 1_556 S
C1111 N1113 1.384 . S
N1112 C1108 1.427 1_554 S
N1112 C1109 1.384 . S
N1113 C1105 1.427 1_556 S
N1113 C1111 1.384 . S
H1114 C1120 0.930 . S
H1115 C1124 0.930 . S
H1116 C1129 0.929 . S
H1117 C1127 0.929 . S
H1118 C1122 0.929 . S
H1119 C1128 0.929 . S
C1120 H1114 0.930 . S
C1120 C1121 1.367 . S
C1120 C1128 1.378 . S
C1121 C1120 1.367 . S
C1121 C1129 1.433 . S
C1122 H1118 0.929 . S
C1122 C1124 1.378 . S
C1122 C1126 1.350 . S
C1123 C1126 1.463 1_565 S
C1123 C1128 1.350 . S
C1123 N1131 1.427 . S
C1124 H1115 0.930 . S
C1124 C1122 1.378 . S
C1124 C1125 1.367 . S
C1125 C1124 1.367 . S
C1125 C1127 1.433 . S
C1126 C1122 1.350 . S
C1126 C1123 1.463 1_545 S
C1126 N1130 1.427 . S
C1127 H1117 0.929 . S
C1127 C1125 1.433 . S
C1127 N1130 1.384 . S
C1128 H1119 0.929 . S
C1128 C1120 1.378 . S
C1128 C1123 1.350 . S
C1129 H1116 0.929 . S
C1129 C1121 1.433 . S
C1129 N1131 1.384 . S
N1130 C1126 1.427 . S
N1130 C1127 1.384 . S
N1131 C1123 1.427 . S
N1131 C1129 1.384 . S
H1132 C1138 0.930 . S
H1133 C1142 0.930 . S
H1134 C1147 0.929 . S
H1135 C1145 0.929 . S
H1136 C1140 0.929 . S
H1137 C1146 0.929 . S
C1138 H1132 0.930 . S
C1138 C1139 1.367 . S
C1138 C1146 1.378 . S
C1139 C1138 1.367 . S
C1139 C1147 1.433 . S
C1140 H1136 0.929 . S
C1140 C1142 1.378 . S
C1140 C1144 1.350 . S
C1141 C1144 1.463 . S
C1141 C1146 1.350 . S
C1141 N1149 1.427 . S
C1142 H1133 0.930 . S
C1142 C1140 1.378 . S
C1142 C1143 1.367 . S
C1143 C1142 1.367 . S
C1143 C1145 1.433 . S
C1144 C1140 1.350 . S
C1144 C1141 1.463 . S
C1144 N1148 1.427 . S
C1145 H1135 0.929 . S
C1145 C1143 1.433 . S
C1145 N1148 1.384 . S
C1146 H1137 0.929 . S
C1146 C1138 1.378 . S
C1146 C1141 1.350 . S
C1147 H1134 0.929 . S
C1147 C1139 1.433 . S
C1147 N1149 1.384 . S
N1148 C1144 1.427 . S
N1148 C1145 1.384 . S
N1149 C1141 1.427 . S
N1149 C1147 1.384 . S
H1150 C1156 0.930 . S
H1151 C1160 0.930 . S
H1152 C1165 0.929 . S
H1153 C1163 0.929 . S
H1154 C1158 0.929 . S
H1155 C1164 0.929 . S
C1156 H1150 0.930 . S
C1156 C1157 1.367 . S
C1156 C1164 1.378 . S
C1157 C1156 1.367 . S
C1157 C1165 1.433 . S
C1158 H1154 0.929 . S
C1158 C1160 1.378 . S
C1158 C1162 1.350 . S
C1159 C1162 1.463 1_545 S
C1159 C1164 1.350 . S
C1159 N1167 1.427 . S
C1160 H1151 0.930 . S
C1160 C1158 1.378 . S
C1160 C1161 1.367 . S
C1161 C1160 1.367 . S
C1161 C1163 1.433 . S
C1162 C1158 1.350 . S
C1162 C1159 1.463 1_565 S
C1162 N1166 1.427 . S
C1163 H1153 0.929 . S
C1163 C1161 1.433 . S
C1163 N1166 1.384 . S
C1164 H1155 0.929 . S
C1164 C1156 1.378 . S
C1164 C1159 1.350 . S
C1165 H1152 0.929 . S
C1165 C1157 1.433 . S
C1165 N1167 1.384 . S
N1166 C1162 1.427 . S
N1166 C1163 1.384 . S
N1167 C1159 1.427 . S
N1167 C1165 1.384 . S
H1168 C1174 0.930 . S
H1169 C1178 0.930 . S
H1170 C1183 0.929 . S
H1171 C1181 0.929 . S
H1172 C1176 0.929 . S
H1173 C1182 0.929 . S
C1174 H1168 0.930 . S
C1174 C1175 1.367 . S
C1174 C1182 1.378 . S
C1175 C1174 1.367 . S
C1175 C1183 1.433 . S
C1176 H1172 0.929 . S
C1176 C1178 1.378 . S
C1176 C1180 1.350 . S
C1177 C1180 1.463 . S
C1177 C1182 1.350 . S
C1177 N1185 1.427 . S
C1178 H1169 0.930 . S
C1178 C1176 1.378 . S
C1178 C1179 1.367 . S
C1179 C1178 1.367 . S
C1179 C1181 1.433 . S
C1180 C1176 1.350 . S
C1180 C1177 1.463 . S
C1180 N1184 1.427 . S
C1181 H1171 0.929 . S
C1181 C1179 1.433 . S
C1181 N1184 1.384 . S
C1182 H1173 0.929 . S
C1182 C1174 1.378 . S
C1182 C1177 1.350 . S
C1183 H1170 0.929 . S
C1183 C1175 1.433 . S
C1183 N1185 1.384 . S
N1184 C1180 1.427 . S
N1184 C1181 1.384 . S
N1185 C1177 1.427 . S
N1185 C1183 1.384 . S
H1186 C1192 0.930 . S
H1187 C1196 0.930 . S
H1188 C1201 0.929 . S
H1189 C1199 0.929 . S
H1190 C1194 0.929 . S
H1191 C1200 0.929 . S
C1192 H1186 0.930 . S
C1192 C1193 1.367 . S
C1192 C1200 1.378 . S
C1193 C1192 1.367 . S
C1193 C1201 1.433 . S
C1194 H1190 0.929 . S
C1194 C1196 1.378 . S
C1194 C1198 1.350 . S
C1195 C1198 1.463 . S
C1195 C1200 1.350 . S
C1195 N1203 1.427 . S
C1196 H1187 0.930 . S
C1196 C1194 1.378 . S
C1196 C1197 1.367 . S
C1197 C1196 1.367 . S
C1197 C1199 1.433 . S
C1198 C1194 1.350 . S
C1198 C1195 1.463 . S
C1198 N1202 1.427 . S
C1199 H1189 0.929 . S
C1199 C1197 1.433 . S
C1199 N1202 1.384 . S
C1200 H1191 0.929 . S
C1200 C1192 1.378 . S
C1200 C1195 1.350 . S
C1201 H1188 0.929 . S
C1201 C1193 1.433 . S
C1201 N1203 1.384 . S
N1202 C1198 1.427 . S
N1202 C1199 1.384 . S
N1203 C1195 1.427 . S
N1203 C1201 1.384 . S
H1204 C1210 0.930 . S
H1205 C1214 0.930 . S
H1206 C1219 0.929 . S
H1207 C1217 0.929 . S
H1208 C1212 0.929 . S
H1209 C1218 0.929 . S
C1210 H1204 0.930 . S
C1210 C1211 1.367 . S
C1210 C1218 1.378 1_554 S
C1211 C1210 1.367 . S
C1211 C1219 1.433 . S
C1212 H1208 0.929 . S
C1212 C1214 1.378 1_554 S
C1212 C1216 1.350 1_554 S
C1213 C1216 1.463 1_554 S
C1213 C1218 1.350 1_554 S
C1213 N1221 1.427 . S
C1214 H1205 0.930 . S
C1214 C1212 1.378 1_556 S
C1214 C1215 1.367 . S
C1215 C1214 1.367 . S
C1215 C1217 1.433 . S
C1216 C1212 1.350 1_556 S
C1216 C1213 1.463 1_556 S
C1216 N1220 1.427 . S
C1217 H1207 0.929 . S
C1217 C1215 1.433 . S
C1217 N1220 1.384 . S
C1218 H1209 0.929 . S
C1218 C1210 1.378 1_556 S
C1218 C1213 1.350 1_556 S
C1219 H1206 0.929 . S
C1219 C1211 1.433 . S
C1219 N1221 1.384 . S
N1220 C1216 1.427 . S
N1220 C1217 1.384 . S
N1221 C1213 1.427 . S
N1221 C1219 1.384 . S
H1222 C1228 0.930 . S
H1223 C1232 0.930 . S
H1224 C1237 0.929 . S
H1225 C1235 0.929 . S
H1226 C1230 0.929 . S
H1227 C1236 0.929 . S
C1228 H1222 0.930 . S
C1228 C1229 1.367 . S
C1228 C1236 1.378 . S
C1229 C1228 1.367 . S
C1229 C1237 1.433 . S
C1230 H1226 0.929 . S
C1230 C1232 1.378 . S
C1230 C1234 1.350 . S
C1231 C1234 1.463 . S
C1231 C1236 1.350 . S
C1231 N1239 1.427 . S
C1232 H1223 0.930 . S
C1232 C1230 1.378 . S
C1232 C1233 1.367 . S
C1233 C1232 1.367 . S
C1233 C1235 1.433 . S
C1234 C1230 1.350 . S
C1234 C1231 1.463 . S
C1234 N1238 1.427 . S
C1235 H1225 0.929 . S
C1235 C1233 1.433 . S
C1235 N1238 1.384 . S
C1236 H1227 0.929 . S
C1236 C1228 1.378 . S
C1236 C1231 1.350 . S
C1237 H1224 0.929 . S
C1237 C1229 1.433 . S
C1237 N1239 1.384 . S
N1238 C1234 1.427 . S
N1238 C1235 1.384 . S
N1239 C1231 1.427 . S
N1239 C1237 1.384 . S
H1240 C1246 0.930 . S
H1241 C1250 0.930 . S
H1242 C1255 0.929 . S
H1243 C1253 0.929 . S
H1244 C1248 0.929 . S
H1245 C1254 0.929 . S
C1246 H1240 0.930 . S
C1246 C1247 1.367 . S
C1246 C1254 1.378 . S
C1247 C1246 1.367 . S
C1247 C1255 1.433 . S
C1248 H1244 0.929 . S
C1248 C1250 1.378 . S
C1248 C1252 1.350 . S
C1249 C1252 1.463 . S
C1249 C1254 1.350 . S
C1249 N1257 1.427 . S
C1250 H1241 0.930 . S
C1250 C1248 1.378 . S
C1250 C1251 1.367 . S
C1251 C1250 1.367 . S
C1251 C1253 1.433 . S
C1252 C1248 1.350 . S
C1252 C1249 1.463 . S
C1252 N1256 1.427 . S
C1253 H1243 0.929 . S
C1253 C1251 1.433 . S
C1253 N1256 1.384 . S
C1254 H1245 0.929 . S
C1254 C1246 1.378 . S
C1254 C1249 1.350 . S
C1255 H1242 0.929 . S
C1255 C1247 1.433 . S
C1255 N1257 1.384 . S
N1256 C1252 1.427 . S
N1256 C1253 1.384 . S
N1257 C1249 1.427 . S
N1257 C1255 1.384 . S
H1258 C1264 0.930 . S
H1259 C1268 0.930 . S
H1260 C1273 0.929 . S
H1261 C1271 0.929 . S
H1262 C1266 0.929 . S
H1263 C1272 0.929 . S
C1264 H1258 0.930 . S
C1264 C1265 1.367 . S
C1264 C1272 1.378 . S
C1265 C1264 1.367 . S
C1265 C1273 1.433 . S
C1266 H1262 0.929 . S
C1266 C1268 1.378 . S
C1266 C1270 1.350 . S
C1267 C1270 1.463 . S
C1267 C1272 1.350 . S
C1267 N1275 1.427 . S
C1268 H1259 0.930 . S
C1268 C1266 1.378 . S
C1268 C1269 1.367 . S
C1269 C1268 1.367 . S
C1269 C1271 1.433 . S
C1270 C1266 1.350 . S
C1270 C1267 1.463 . S
C1270 N1274 1.427 . S
C1271 H1261 0.929 . S
C1271 C1269 1.433 . S
C1271 N1274 1.384 . S
C1272 H1263 0.929 . S
C1272 C1264 1.378 . S
C1272 C1267 1.350 . S
C1273 H1260 0.929 . S
C1273 C1265 1.433 . S
C1273 N1275 1.384 . S
N1274 C1270 1.427 . S
N1274 C1271 1.384 . S
N1275 C1267 1.427 . S
N1275 C1273 1.384 . S
H1276 C1282 0.930 . S
H1277 C1286 0.930 . S
H1278 C1291 0.929 . S
H1279 C1289 0.929 . S
H1280 C1284 0.913 1_556 S
H1281 C1290 0.913 1_554 S
C1282 H1276 0.930 . S
C1282 C1283 1.367 . S
C1282 C1290 1.378 . S
C1283 C1282 1.367 . S
C1283 C1291 1.433 . S
C1284 H1280 0.913 1_554 S
C1284 C1286 1.378 . S
C1284 C1288 1.350 . S
C1285 C1288 1.463 1_556 S
C1285 C1290 1.350 . S
C1285 N1293 1.427 . S
C1286 H1277 0.930 . S
C1286 C1284 1.378 . S
C1286 C1287 1.367 . S
C1287 C1286 1.367 . S
C1287 C1289 1.433 . S
C1288 C1284 1.350 . S
C1288 C1285 1.463 1_554 S
C1288 N1292 1.427 . S
C1289 H1279 0.929 . S
C1289 C1287 1.433 . S
C1289 N1292 1.384 . S
C1290 H1281 0.913 1_556 S
C1290 C1282 1.378 . S
C1290 C1285 1.350 . S
C1291 H1278 0.929 . S
C1291 C1283 1.433 . S
C1291 N1293 1.384 . S
N1292 C1288 1.427 . S
N1292 C1289 1.384 . S
N1293 C1285 1.427 . S
N1293 C1291 1.384 . S
H1294 C1300 0.930 . S
H1295 C1304 0.930 . S
H1296 C1309 0.929 . S
H1297 C1307 0.929 . S
H1298 C1302 0.929 . S
H1299 C1308 0.929 . S
C1300 H1294 0.930 . S
C1300 C1301 1.367 . S
C1300 C1308 1.378 . S
C1301 C1300 1.367 . S
C1301 C1309 1.433 . S
C1302 H1298 0.929 . S
C1302 C1304 1.378 . S
C1302 C1306 1.350 . S
C1303 C1306 1.463 . S
C1303 C1308 1.350 . S
C1303 N1311 1.427 . S
C1304 H1295 0.930 . S
C1304 C1302 1.378 . S
C1304 C1305 1.367 . S
C1305 C1304 1.367 . S
C1305 C1307 1.433 . S
C1306 C1302 1.350 . S
C1306 C1303 1.463 . S
C1306 N1310 1.427 . S
C1307 H1297 0.929 . S
C1307 C1305 1.433 . S
C1307 N1310 1.384 . S
C1308 H1299 0.929 . S
C1308 C1300 1.378 . S
C1308 C1303 1.350 . S
C1309 H1296 0.929 . S
C1309 C1301 1.433 . S
C1309 N1311 1.384 . S
N1310 C1306 1.427 . S
N1310 C1307 1.384 . S
N1311 C1303 1.427 . S
N1311 C1309 1.384 . S
H1312 C1318 0.930 . S
H1313 C1322 0.930 . S
H1314 C1327 0.929 . S
H1315 C1325 0.929 . S
H1316 C1320 0.929 . S
H1317 C1326 0.929 . S
C1318 H1312 0.930 . S
C1318 C1319 1.367 . S
C1318 C1326 1.378 . S
C1319 C1318 1.367 . S
C1319 C1327 1.433 . S
C1320 H1316 0.929 . S
C1320 C1322 1.378 . S
C1320 C1324 1.350 . S
C1321 C1324 1.463 . S
C1321 C1326 1.350 . S
C1321 N1329 1.427 . S
C1322 H1313 0.930 . S
C1322 C1320 1.378 . S
C1322 C1323 1.367 . S
C1323 C1322 1.367 . S
C1323 C1325 1.433 . S
C1324 C1320 1.350 . S
C1324 C1321 1.463 . S
C1324 N1328 1.427 . S
C1325 H1315 0.929 . S
C1325 C1323 1.433 . S
C1325 N1328 1.384 . S
C1326 H1317 0.929 . S
C1326 C1318 1.378 . S
C1326 C1321 1.350 . S
C1327 H1314 0.929 . S
C1327 C1319 1.433 . S
C1327 N1329 1.384 . S
N1328 C1324 1.427 . S
N1328 C1325 1.384 . S
N1329 C1321 1.427 . S
N1329 C1327 1.384 . S
H1330 C1336 0.930 . S
H1331 C1340 0.930 . S
H1332 C1345 0.929 . S
H1333 C1343 0.929 . S
H1334 C1338 0.929 . S
H1335 C1344 0.929 . S
C1336 H1330 0.930 . S
C1336 C1337 1.367 . S
C1336 C1344 1.378 . S
C1337 C1336 1.367 . S
C1337 C1345 1.433 . S
C1338 H1334 0.929 . S
C1338 C1340 1.378 . S
C1338 C1342 1.350 . S
C1339 C1342 1.463 . S
C1339 C1344 1.350 . S
C1339 N1347 1.427 . S
C1340 H1331 0.930 . S
C1340 C1338 1.378 . S
C1340 C1341 1.367 . S
C1341 C1340 1.367 . S
C1341 C1343 1.433 . S
C1342 C1338 1.350 . S
C1342 C1339 1.463 . S
C1342 N1346 1.427 . S
C1343 H1333 0.929 . S
C1343 C1341 1.433 . S
C1343 N1346 1.384 . S
C1344 H1335 0.929 . S
C1344 C1336 1.378 . S
C1344 C1339 1.350 . S
C1345 H1332 0.929 . S
C1345 C1337 1.433 . S
C1345 N1347 1.384 . S
N1346 C1342 1.427 . S
N1346 C1343 1.384 . S
N1347 C1339 1.427 . S
N1347 C1345 1.384 . S
H1348 C1354 0.930 . S
H1349 C1358 0.930 . S
H1350 C1363 0.929 . S
H1351 C1361 0.929 . S
H1352 C1356 0.929 . S
H1353 C1362 0.929 . S
C1354 H1348 0.930 . S
C1354 C1355 1.367 . S
C1354 C1362 1.378 . S
C1355 C1354 1.367 . S
C1355 C1363 1.433 . S
C1356 H1352 0.929 . S
C1356 C1358 1.378 . S
C1356 C1360 1.350 . S
C1357 C1360 1.463 . S
C1357 C1362 1.350 . S
C1357 N1365 1.427 . S
C1358 H1349 0.930 . S
C1358 C1356 1.378 . S
C1358 C1359 1.367 . S
C1359 C1358 1.367 . S
C1359 C1361 1.433 . S
C1360 C1356 1.350 . S
C1360 C1357 1.463 . S
C1360 N1364 1.427 . S
C1361 H1351 0.929 . S
C1361 C1359 1.433 . S
C1361 N1364 1.384 . S
C1362 H1353 0.929 . S
C1362 C1354 1.378 . S
C1362 C1357 1.350 . S
C1363 H1350 0.929 . S
C1363 C1355 1.433 . S
C1363 N1365 1.384 . S
N1364 C1360 1.427 . S
N1364 C1361 1.384 . S
N1365 C1357 1.427 . S
N1365 C1363 1.384 . S
H1366 C1372 0.930 . S
H1367 C1376 0.930 . S
H1368 C1381 0.929 . S
H1369 C1379 0.929 . S
H1370 C1374 0.929 . S
H1371 C1380 0.929 . S
C1372 H1366 0.930 . S
C1372 C1373 1.367 . S
C1372 C1380 1.378 . S
C1373 C1372 1.367 . S
C1373 C1381 1.433 . S
C1374 H1370 0.929 . S
C1374 C1376 1.378 . S
C1374 C1378 1.350 . S
C1375 C1378 1.463 . S
C1375 C1380 1.350 . S
C1375 N1383 1.427 . S
C1376 H1367 0.930 . S
C1376 C1374 1.378 . S
C1376 C1377 1.367 . S
C1377 C1376 1.367 . S
C1377 C1379 1.433 . S
C1378 C1374 1.350 . S
C1378 C1375 1.463 . S
C1378 N1382 1.427 . S
C1379 H1369 0.929 . S
C1379 C1377 1.433 . S
C1379 N1382 1.384 . S
C1380 H1371 0.929 . S
C1380 C1372 1.378 . S
C1380 C1375 1.350 . S
C1381 H1368 0.929 . S
C1381 C1373 1.433 . S
C1381 N1383 1.384 . S
N1382 C1378 1.427 . S
N1382 C1379 1.384 . S
N1383 C1375 1.427 . S
N1383 C1381 1.384 . S
H1384 C1390 0.930 . S
H1385 C1394 0.930 . S
H1386 C1399 0.929 . S
H1387 C1397 0.929 . S
H1388 C1392 0.929 . S
H1389 C1398 0.929 . S
C1390 H1384 0.930 . S
C1390 C1391 1.367 . S
C1390 C1398 1.378 . S
C1391 C1390 1.367 . S
C1391 C1399 1.433 . S
C1392 H1388 0.929 . S
C1392 C1394 1.378 . S
C1392 C1396 1.350 . S
C1393 C1396 1.463 . S
C1393 C1398 1.350 . S
C1393 N1401 1.427 . S
C1394 H1385 0.930 . S
C1394 C1392 1.378 . S
C1394 C1395 1.367 . S
C1395 C1394 1.367 . S
C1395 C1397 1.433 . S
C1396 C1392 1.350 . S
C1396 C1393 1.463 . S
C1396 N1400 1.427 . S
C1397 H1387 0.929 . S
C1397 C1395 1.433 . S
C1397 N1400 1.384 . S
C1398 H1389 0.929 . S
C1398 C1390 1.378 . S
C1398 C1393 1.350 . S
C1399 H1386 0.929 . S
C1399 C1391 1.433 . S
C1399 N1401 1.384 . S
N1400 C1396 1.427 . S
N1400 C1397 1.384 . S
N1401 C1393 1.427 . S
N1401 C1399 1.384 . S
H1402 C1408 0.930 . S
H1403 C1412 0.930 . S
H1404 C1417 0.929 . S
H1405 C1415 0.929 . S
H1406 C1410 0.929 . S
H1407 C1416 0.929 . S
C1408 H1402 0.930 . S
C1408 C1409 1.367 . S
C1408 C1416 1.378 . S
C1409 C1408 1.367 . S
C1409 C1417 1.433 . S
C1410 H1406 0.929 . S
C1410 C1412 1.378 . S
C1410 C1414 1.350 . S
C1411 C1414 1.463 . S
C1411 C1416 1.350 . S
C1411 N1419 1.427 . S
C1412 H1403 0.930 . S
C1412 C1410 1.378 . S
C1412 C1413 1.367 . S
C1413 C1412 1.367 . S
C1413 C1415 1.433 . S
C1414 C1410 1.350 . S
C1414 C1411 1.463 . S
C1414 N1418 1.427 . S
C1415 H1405 0.929 . S
C1415 C1413 1.433 . S
C1415 N1418 1.384 . S
C1416 H1407 0.929 . S
C1416 C1408 1.378 . S
C1416 C1411 1.350 . S
C1417 H1404 0.929 . S
C1417 C1409 1.433 . S
C1417 N1419 1.384 . S
N1418 C1414 1.427 . S
N1418 C1415 1.384 . S
N1419 C1411 1.427 . S
N1419 C1417 1.384 . S
H1420 C1426 0.930 . S
H1421 C1430 0.930 . S
H1422 C1435 0.929 . S
H1423 C1433 0.929 . S
H1424 C1428 0.929 . S
H1425 C1434 0.929 . S
C1426 H1420 0.930 . S
C1426 C1427 1.367 . S
C1426 C1434 1.378 . S
C1427 C1426 1.367 . S
C1427 C1435 1.433 . S
C1428 H1424 0.929 . S
C1428 C1430 1.378 . S
C1428 C1432 1.350 . S
C1429 C1432 1.463 . S
C1429 C1434 1.350 . S
C1429 N1437 1.427 . S
C1430 H1421 0.930 . S
C1430 C1428 1.378 . S
C1430 C1431 1.367 . S
C1431 C1430 1.367 . S
C1431 C1433 1.433 . S
C1432 C1428 1.350 . S
C1432 C1429 1.463 . S
C1432 N1436 1.427 . S
C1433 H1423 0.929 . S
C1433 C1431 1.433 . S
C1433 N1436 1.384 . S
C1434 H1425 0.929 . S
C1434 C1426 1.378 . S
C1434 C1429 1.350 . S
C1435 H1422 0.929 . S
C1435 C1427 1.433 . S
C1435 N1437 1.384 . S
N1436 C1432 1.427 . S
N1436 C1433 1.384 . S
N1437 C1429 1.427 . S
N1437 C1435 1.384 . S
H1438 C1444 0.930 . S
H1439 C1448 0.930 . S
H1440 C1453 0.929 . S
H1441 C1451 0.929 . S
H1442 C1446 0.929 . S
H1443 C1452 0.929 . S
C1444 H1438 0.930 . S
C1444 C1445 1.367 . S
C1444 C1452 1.378 . S
C1445 C1444 1.367 . S
C1445 C1453 1.433 . S
C1446 H1442 0.929 . S
C1446 C1448 1.378 . S
C1446 C1450 1.350 . S
C1447 C1450 1.463 . S
C1447 C1452 1.350 . S
C1447 N1455 1.427 . S
C1448 H1439 0.930 . S
C1448 C1446 1.378 . S
C1448 C1449 1.367 . S
C1449 C1448 1.367 . S
C1449 C1451 1.433 . S
C1450 C1446 1.350 . S
C1450 C1447 1.463 . S
C1450 N1454 1.427 . S
C1451 H1441 0.929 . S
C1451 C1449 1.433 . S
C1451 N1454 1.384 . S
C1452 H1443 0.929 . S
C1452 C1444 1.378 . S
C1452 C1447 1.350 . S
C1453 H1440 0.929 . S
C1453 C1445 1.433 . S
C1453 N1455 1.384 . S
N1454 C1450 1.427 . S
N1454 C1451 1.384 . S
N1455 C1447 1.427 . S
N1455 C1453 1.384 . S
H1456 C1462 0.930 . S
H1457 C1466 0.930 . S
H1458 C1471 0.929 . S
H1459 C1469 0.929 . S
H1460 C1464 0.929 . S
H1461 C1470 0.929 . S
C1462 H1456 0.930 . S
C1462 C1463 1.367 . S
C1462 C1470 1.378 . S
C1463 C1462 1.367 . S
C1463 C1471 1.433 . S
C1464 H1460 0.929 . S
C1464 C1466 1.378 . S
C1464 C1468 1.350 . S
C1465 C1468 1.463 . S
C1465 C1470 1.350 . S
C1465 N1473 1.427 . S
C1466 H1457 0.930 . S
C1466 C1464 1.378 . S
C1466 C1467 1.367 . S
C1467 C1466 1.367 . S
C1467 C1469 1.433 . S
C1468 C1464 1.350 . S
C1468 C1465 1.463 . S
C1468 N1472 1.427 . S
C1469 H1459 0.929 . S
C1469 C1467 1.433 . S
C1469 N1472 1.384 . S
C1470 H1461 0.929 . S
C1470 C1462 1.378 . S
C1470 C1465 1.350 . S
C1471 H1458 0.929 . S
C1471 C1463 1.433 . S
C1471 N1473 1.384 . S
N1472 C1468 1.427 . S
N1472 C1469 1.384 . S
N1473 C1465 1.427 . S
N1473 C1471 1.384 . S
H1474 C1480 0.930 . S
H1475 C1484 0.930 . S
H1476 C1489 0.929 . S
H1477 C1487 0.929 . S
H1478 C1482 0.929 . S
H1479 C1488 0.929 . S
C1480 H1474 0.930 . S
C1480 C1481 1.367 . S
C1480 C1488 1.378 . S
C1481 C1480 1.367 . S
C1481 C1489 1.433 . S
C1482 H1478 0.929 . S
C1482 C1484 1.378 . S
C1482 C1486 1.350 . S
C1483 C1486 1.463 . S
C1483 C1488 1.350 . S
C1483 N1491 1.427 . S
C1484 H1475 0.930 . S
C1484 C1482 1.378 . S
C1484 C1485 1.367 . S
C1485 C1484 1.367 . S
C1485 C1487 1.433 . S
C1486 C1482 1.350 . S
C1486 C1483 1.463 . S
C1486 N1490 1.427 . S
C1487 H1477 0.929 . S
C1487 C1485 1.433 . S
C1487 N1490 1.384 . S
C1488 H1479 0.929 . S
C1488 C1480 1.378 . S
C1488 C1483 1.350 . S
C1489 H1476 0.929 . S
C1489 C1481 1.433 . S
C1489 N1491 1.384 . S
N1490 C1486 1.427 . S
N1490 C1487 1.384 . S
N1491 C1483 1.427 . S
N1491 C1489 1.384 . S
H1492 C1498 0.930 . S
H1493 C1502 0.930 . S
H1494 C1507 0.929 . S
H1495 C1505 0.929 . S
H1496 C1500 0.929 . S
H1497 C1506 0.929 . S
C1498 H1492 0.930 . S
C1498 C1499 1.367 . S
C1498 C1506 1.378 . S
C1499 C1498 1.367 . S
C1499 C1507 1.433 . S
C1500 H1496 0.929 . S
C1500 C1502 1.378 . S
C1500 C1504 1.350 . S
C1501 C1504 1.463 . S
C1501 C1506 1.350 . S
C1501 N1509 1.427 . S
C1502 H1493 0.930 . S
C1502 C1500 1.378 . S
C1502 C1503 1.367 . S
C1503 C1502 1.367 . S
C1503 C1505 1.433 . S
C1504 C1500 1.350 . S
C1504 C1501 1.463 . S
C1504 N1508 1.427 . S
C1505 H1495 0.929 . S
C1505 C1503 1.433 . S
C1505 N1508 1.384 . S
C1506 H1497 0.929 . S
C1506 C1498 1.378 . S
C1506 C1501 1.350 . S
C1507 H1494 0.929 . S
C1507 C1499 1.433 . S
C1507 N1509 1.384 . S
N1508 C1504 1.427 . S
N1508 C1505 1.384 . S
N1509 C1501 1.427 . S
N1509 C1507 1.384 . S
H1510 C1516 0.930 . S
H1511 C1520 0.930 . S
H1512 C1525 0.929 . S
H1513 C1523 0.929 . S
H1514 C1518 0.929 . S
H1515 C1524 0.929 . S
C1516 H1510 0.930 . S
C1516 C1517 1.367 . S
C1516 C1524 1.378 . S
C1517 C1516 1.367 . S
C1517 C1525 1.433 . S
C1518 H1514 0.929 . S
C1518 C1520 1.378 . S
C1518 C1522 1.350 . S
C1519 C1522 1.463 . S
C1519 C1524 1.350 . S
C1519 N1527 1.427 . S
C1520 H1511 0.930 . S
C1520 C1518 1.378 . S
C1520 C1521 1.367 . S
C1521 C1520 1.367 . S
C1521 C1523 1.433 . S
C1522 C1518 1.350 . S
C1522 C1519 1.463 . S
C1522 N1526 1.427 . S
C1523 H1513 0.929 . S
C1523 C1521 1.433 . S
C1523 N1526 1.384 . S
C1524 H1515 0.929 . S
C1524 C1516 1.378 . S
C1524 C1519 1.350 . S
C1525 H1512 0.929 . S
C1525 C1517 1.433 . S
C1525 N1527 1.384 . S
N1526 C1522 1.427 . S
N1526 C1523 1.384 . S
N1527 C1519 1.427 . S
N1527 C1525 1.384 . S
H1528 C1534 0.930 . S
H1529 C1538 0.930 . S
H1530 C1543 0.929 . S
H1531 C1541 0.929 . S
H1532 C1536 0.929 . S
H1533 C1542 0.929 . S
C1534 H1528 0.930 . S
C1534 C1535 1.367 . S
C1534 C1542 1.378 . S
C1535 C1534 1.367 . S
C1535 C1543 1.433 . S
C1536 H1532 0.929 . S
C1536 C1538 1.378 . S
C1536 C1540 1.350 . S
C1537 C1540 1.463 . S
C1537 C1542 1.350 . S
C1537 N1545 1.427 . S
C1538 H1529 0.930 . S
C1538 C1536 1.378 . S
C1538 C1539 1.367 . S
C1539 C1538 1.367 . S
C1539 C1541 1.433 . S
C1540 C1536 1.350 . S
C1540 C1537 1.463 . S
C1540 N1544 1.427 . S
C1541 H1531 0.929 . S
C1541 C1539 1.433 . S
C1541 N1544 1.384 . S
C1542 H1533 0.929 . S
C1542 C1534 1.378 . S
C1542 C1537 1.350 . S
C1543 H1530 0.929 . S
C1543 C1535 1.433 . S
C1543 N1545 1.384 . S
N1544 C1540 1.427 . S
N1544 C1541 1.384 . S
N1545 C1537 1.427 . S
N1545 C1543 1.384 . S
H1546 C1552 0.930 . S
H1547 C1556 0.930 . S
H1548 C1561 0.929 . S
H1549 C1559 0.929 . S
H1550 C1554 0.929 . S
H1551 C1560 0.929 . S
C1552 H1546 0.930 . S
C1552 C1553 1.367 . S
C1552 C1560 1.378 . S
C1553 C1552 1.367 . S
C1553 C1561 1.433 . S
C1554 H1550 0.929 . S
C1554 C1556 1.378 . S
C1554 C1558 1.350 . S
C1555 C1558 1.463 . S
C1555 C1560 1.350 . S
C1555 N1563 1.427 . S
C1556 H1547 0.930 . S
C1556 C1554 1.378 . S
C1556 C1557 1.367 . S
C1557 C1556 1.367 . S
C1557 C1559 1.433 . S
C1558 C1554 1.350 . S
C1558 C1555 1.463 . S
C1558 N1562 1.427 . S
C1559 H1549 0.929 . S
C1559 C1557 1.433 . S
C1559 N1562 1.384 . S
C1560 H1551 0.929 . S
C1560 C1552 1.378 . S
C1560 C1555 1.350 . S
C1561 H1548 0.929 . S
C1561 C1553 1.433 . S
C1561 N1563 1.384 . S
N1562 C1558 1.427 . S
N1562 C1559 1.384 . S
N1563 C1555 1.427 . S
N1563 C1561 1.384 . S
H1564 C1570 0.930 . S
H1565 C1574 0.930 . S
H1566 C1579 0.929 . S
H1567 C1577 0.929 . S
H1568 C1572 0.929 . S
H1569 C1578 0.929 . S
C1570 H1564 0.930 . S
C1570 C1571 1.367 . S
C1570 C1578 1.378 . S
C1571 C1570 1.367 . S
C1571 C1579 1.433 . S
C1572 H1568 0.929 . S
C1572 C1574 1.378 . S
C1572 C1576 1.350 . S
C1573 C1576 1.463 . S
C1573 C1578 1.350 . S
C1573 N1581 1.427 . S
C1574 H1565 0.930 . S
C1574 C1572 1.378 . S
C1574 C1575 1.367 . S
C1575 C1574 1.367 . S
C1575 C1577 1.433 . S
C1576 C1572 1.350 . S
C1576 C1573 1.463 . S
C1576 N1580 1.427 . S
C1577 H1567 0.929 . S
C1577 C1575 1.433 . S
C1577 N1580 1.384 . S
C1578 H1569 0.929 . S
C1578 C1570 1.378 . S
C1578 C1573 1.350 . S
C1579 H1566 0.929 . S
C1579 C1571 1.433 . S
C1579 N1581 1.384 . S
N1580 C1576 1.427 . S
N1580 C1577 1.384 . S
N1581 C1573 1.427 . S
N1581 C1579 1.384 . S
H1582 C1588 0.930 . S
H1583 C1592 0.930 . S
H1584 C1597 0.929 . S
H1585 C1595 0.929 . S
H1586 C1590 0.929 . S
H1587 C1596 0.929 . S
C1588 H1582 0.930 . S
C1588 C1589 1.367 . S
C1588 C1596 1.378 . S
C1589 C1588 1.367 . S
C1589 C1597 1.433 . S
C1590 H1586 0.929 . S
C1590 C1592 1.378 . S
C1590 C1594 1.350 . S
C1591 C1594 1.463 . S
C1591 C1596 1.350 . S
C1591 N1599 1.427 . S
C1592 H1583 0.930 . S
C1592 C1590 1.378 . S
C1592 C1593 1.367 . S
C1593 C1592 1.367 . S
C1593 C1595 1.433 . S
C1594 C1590 1.350 . S
C1594 C1591 1.463 . S
C1594 N1598 1.427 . S
C1595 H1585 0.929 . S
C1595 C1593 1.433 . S
C1595 N1598 1.384 . S
C1596 H1587 0.929 . S
C1596 C1588 1.378 . S
C1596 C1591 1.350 . S
C1597 H1584 0.929 . S
C1597 C1589 1.433 . S
C1597 N1599 1.384 . S
N1598 C1594 1.427 . S
N1598 C1595 1.384 . S
N1599 C1591 1.427 . S
N1599 C1597 1.384 . S
C455 C117 1.215 . S
C459 C5 1.215 . S
C473 C355 1.209 . S
C477 C19 1.209 . S
C491 C145 1.197 . S
C495 C33 1.197 . S
C509 C383 1.210 . S
C513 C47 1.210 . S
C527 C173 1.222 . S
C531 C61 1.222 . S
C545 C75 1.205 . S
C549 C411 1.205 . S
C563 C89 1.222 . S
C567 C201 1.222 . S
C581 C103 1.211 . S
C585 C439 1.211 . S
C599 C243 1.225 . S
C603 C131 1.225 . S
C617 C271 1.221 . S
C621 C159 1.221 . S
C635 C187 1.215 . S
C639 C299 1.215 . S
C653 C215 1.213 . S
C657 C327 1.213 . S
C671 C229 1.198 . S
C675 C341 1.198 . S
C689 C369 1.210 . S
C693 C257 1.210 . S
C707 C285 1.229 . S
C711 C397 1.229 . S
C725 C425 1.228 . S
C729 C313 1.228 . S
C743 C256 1.287 . S
C747 C4 1.295 . S
C761 C270 1.295 . S
C765 C18 1.283 . S
C779 C32 1.291 . S
C783 C228 1.281 . S
C797 C46 1.292 . S
C801 C242 1.281 . S
C815 C312 1.285 . S
C819 C60 1.295 . S
C833 C74 1.286 . S
C837 C326 1.295 . S
C851 C284 1.281 . S
C855 C88 1.288 . S
C869 C298 1.295 . S
C873 C102 1.284 . S
C887 C116 1.282 . S
C891 C368 1.286 . S
C905 C382 1.295 . S
C909 C130 1.286 . S
C923 C144 1.281 . S
C927 C340 1.288 . S
C941 C158 1.295 . S
C945 C354 1.285 . S
C959 C172 1.286 . S
C963 C424 1.282 . S
C977 C186 1.281 . S
C981 C438 1.293 . S
C995 C396 1.281 . S
C999 C200 1.292 . S
C1013 C410 1.295 . S
C1017 C214 1.287 . S
C1031 C95 1.385 . S
C1035 C11 1.384 . S
C1049 C109 1.385 . S
C1053 C25 1.382 . S
C1067 C67 1.378 . S
C1071 C39 1.384 . S
C1085 C53 1.375 . S
C1089 C81 1.374 . S
C1103 C207 1.374 . S
C1107 C123 1.376 . S
C1121 C221 1.375 . S
C1125 C137 1.374 . S
C1139 C179 1.377 . S
C1143 C151 1.383 . S
C1157 C193 1.380 . S
C1161 C165 1.375 . S
C1175 C319 1.382 . S
C1179 C235 1.385 . S
C1193 C333 1.383 . S
C1197 C249 1.385 . S
C1211 C263 1.379 . S
C1215 C291 1.385 . S
C1229 C277 1.375 . S
C1233 C305 1.380 . S
C1247 C431 1.385 . S
C1251 C347 1.382 . S
C1265 C445 1.385 . S
C1269 C361 1.382 . S
C1283 C375 1.378 . S
C1287 C403 1.383 . S
C1301 C389 1.378 . S
C1305 C417 1.384 . S
C1319 C12 1.516 . S
C1323 C306 1.517 . S
C1337 C320 1.516 . S
C1341 C26 1.518 . S
C1355 C334 1.518 . S
C1359 C40 1.516 . S
C1373 C54 1.516 . S
C1377 C292 1.517 . S
C1391 C278 1.516 . S
C1395 C68 1.518 . S
C1409 C82 1.518 . S
C1413 C236 1.516 . S
C1427 C250 1.517 . S
C1431 C96 1.516 . S
C1445 C110 1.517 . S
C1449 C264 1.517 . S
C1463 C418 1.517 . S
C1467 C124 1.516 . S
C1481 C432 1.518 . S
C1485 C138 1.516 . S
C1499 C152 1.516 . S
C1503 C446 1.518 . S
C1517 C404 1.518 . S
C1521 C166 1.516 . S
C1535 C390 1.517 . S
C1539 C180 1.516 . S
C1553 C194 1.516 . S
C1557 C348 1.516 . S
C1571 C362 1.517 . S
C1575 C208 1.517 . S
C1589 C222 1.517 . S
C1593 C376 1.517 . S
