# Generated by pormake.
# Topology wme, (6)-cn, num edge types: 1
# Building blocks:
#     Node 0, Type 0, BuildingBlock: KUMBUR_clean_sbu_1, # of connection points: 6
#     Node 1, Type 0, BuildingBlock: KUMBUR_clean_sbu_1, # of connection points: 6
#     Node 2, Type 0, BuildingBlock: KUMBUR_clean_sbu_1, # of connection points: 6
#     Node 3, Type 0, BuildingBlock: KUMBUR_clean_sbu_1, # of connection points: 6
#     Node 4, Type 0, BuildingBlock: KUMBUR_clean_sbu_1, # of connection points: 6
#     Node 5, Type 0, BuildingBlock: KUMBUR_clean_sbu_1, # of connection points: 6
#     Node 6, Type 0, BuildingBlock: KUMBUR_clean_sbu_1, # of connection points: 6
#     Node 7, Type 0, BuildingBlock: KUMBUR_clean_sbu_1, # of connection points: 6
#     Node 8, Type 0, BuildingBlock: KUMBUR_clean_sbu_1, # of connection points: 6
#     Node 9, Type 0, BuildingBlock: KUMBUR_clean_sbu_1, # of connection points: 6
#     Node 10, Type 0, BuildingBlock: KUMBUR_clean_sbu_1, # of connection points: 6
#     Node 11, Type 0, BuildingBlock: KUMBUR_clean_sbu_1, # of connection points: 6
#     Edge 12, Type (0, 0), BuildingBlock: ZUJKAS_clean_linker_0, # of connection points: 2
#     Edge 13, Type (0, 0), BuildingBlock: ZUJKAS_clean_linker_0, # of connection points: 2
#     Edge 14, Type (0, 0), BuildingBlock: ZUJKAS_clean_linker_0, # of connection points: 2
#     Edge 15, Type (0, 0), BuildingBlock: ZUJKAS_clean_linker_0, # of connection points: 2
#     Edge 16, Type (0, 0), BuildingBlock: ZUJKAS_clean_linker_0, # of connection points: 2
#     Edge 17, Type (0, 0), BuildingBlock: ZUJKAS_clean_linker_0, # of connection points: 2
#     Edge 18, Type (0, 0), BuildingBlock: ZUJKAS_clean_linker_0, # of connection points: 2
#     Edge 19, Type (0, 0), BuildingBlock: ZUJKAS_clean_linker_0, # of connection points: 2
#     Edge 20, Type (0, 0), BuildingBlock: ZUJKAS_clean_linker_0, # of connection points: 2
#     Edge 21, Type (0, 0), BuildingBlock: ZUJKAS_clean_linker_0, # of connection points: 2
#     Edge 22, Type (0, 0), BuildingBlock: ZUJKAS_clean_linker_0, # of connection points: 2
#     Edge 23, Type (0, 0), BuildingBlock: ZUJKAS_clean_linker_0, # of connection points: 2
#     Edge 24, Type (0, 0), BuildingBlock: ZUJKAS_clean_linker_0, # of connection points: 2
#     Edge 25, Type (0, 0), BuildingBlock: ZUJKAS_clean_linker_0, # of connection points: 2
#     Edge 26, Type (0, 0), BuildingBlock: ZUJKAS_clean_linker_0, # of connection points: 2
#     Edge 27, Type (0, 0), BuildingBlock: ZUJKAS_clean_linker_0, # of connection points: 2
#     Edge 28, Type (0, 0), BuildingBlock: ZUJKAS_clean_linker_0, # of connection points: 2
#     Edge 29, Type (0, 0), BuildingBlock: ZUJKAS_clean_linker_0, # of connection points: 2
#     Edge 30, Type (0, 0), BuildingBlock: ZUJKAS_clean_linker_0, # of connection points: 2
#     Edge 31, Type (0, 0), BuildingBlock: ZUJKAS_clean_linker_0, # of connection points: 2
#     Edge 32, Type (0, 0), BuildingBlock: ZUJKAS_clean_linker_0, # of connection points: 2
#     Edge 33, Type (0, 0), BuildingBlock: ZUJKAS_clean_linker_0, # of connection points: 2
#     Edge 34, Type (0, 0), BuildingBlock: ZUJKAS_clean_linker_0, # of connection points: 2
#     Edge 35, Type (0, 0), BuildingBlock: ZUJKAS_clean_linker_0, # of connection points: 2
#     Edge 36, Type (0, 0), BuildingBlock: ZUJKAS_clean_linker_0, # of connection points: 2
#     Edge 37, Type (0, 0), BuildingBlock: ZUJKAS_clean_linker_0, # of connection points: 2
#     Edge 38, Type (0, 0), BuildingBlock: ZUJKAS_clean_linker_0, # of connection points: 2
#     Edge 39, Type (0, 0), BuildingBlock: ZUJKAS_clean_linker_0, # of connection points: 2
#     Edge 40, Type (0, 0), BuildingBlock: ZUJKAS_clean_linker_0, # of connection points: 2
#     Edge 41, Type (0, 0), BuildingBlock: ZUJKAS_clean_linker_0, # of connection points: 2
#     Edge 42, Type (0, 0), BuildingBlock: ZUJKAS_clean_linker_0, # of connection points: 2
#     Edge 43, Type (0, 0), BuildingBlock: ZUJKAS_clean_linker_0, # of connection points: 2
#     Edge 44, Type (0, 0), BuildingBlock: ZUJKAS_clean_linker_0, # of connection points: 2
#     Edge 45, Type (0, 0), BuildingBlock: ZUJKAS_clean_linker_0, # of connection points: 2
#     Edge 46, Type (0, 0), BuildingBlock: ZUJKAS_clean_linker_0, # of connection points: 2
#     Edge 47, Type (0, 0), BuildingBlock: ZUJKAS_clean_linker_0, # of connection points: 2
# Relax obj value: 0.062
# Max RMSD: 0.165
# Mean RMSD: 0.165
data_MOF--net-wme--node1-KUMBUR_clean_sbu_1--edge1-ZUJKAS_clean_linker_0
_symmetry_space_group_name_H-M    P1
_symmetry_Int_Tables_number       1
_symmetry_cell_setting            triclinic
loop_
_symmetry_equiv_pos_as_xyz
'x, y, z'
_cell_length_a     47.755632
_cell_length_b     47.767097
_cell_length_c     69.899247
_cell_angle_alpha  89.976196
_cell_angle_beta   89.951363
_cell_angle_gamma 120.01853
loop_
_atom_site_label
_atom_site_type_symbol
_atom_site_fract_x
_atom_site_fract_y
_atom_site_fract_z
_atom_type_partial_charge
Tb0 Tb 0.2497 0.3239 0.14404 0.0
C1 C 0.13819 0.32447 0.10367 0.0
N2 N 0.16852 0.33764 0.09633 0.0
C3 C 0.14684 0.31252 0.06605 0.0
C4 C 0.11085 0.30433 0.09248 0.0
C5 C 0.17322 0.33234 0.0777 0.0
C6 C 0.11552 0.29836 0.07348 0.0
C7 C 0.1036 0.31789 0.13065 0.0
C8 C 0.13476 0.3309 0.12258 0.0
C9 C 0.07627 0.29745 0.11967 0.0
C10 C 0.07988 0.29065 0.10064 0.0
Tb11 Tb 0.20985 0.36996 0.11637 0.0
N12 N 0.16183 0.35077 0.13279 0.0
C13 C 0.10076 0.32665 0.14931 0.0
C14 C 0.15861 0.36231 0.15008 0.0
C15 C 0.12836 0.34955 0.1589 0.0
H16 H 0.19729 0.34353 0.07176 0.0
H17 H 0.12627 0.35818 0.17284 0.0
H18 H 0.21571 0.30179 0.18673 0.0
H19 H 0.37444 0.37933 0.12148 0.0
H20 H 0.17884 0.38239 0.15691 0.0
H21 H 0.07729 0.31716 0.15605 0.0
H22 H 0.31519 0.34928 0.11689 0.0
H23 H 0.15067 0.30825 0.05133 0.0
H24 H 0.05218 0.28725 0.12565 0.0
H25 H 0.05857 0.27494 0.09232 0.0
H26 H 0.23334 0.31333 0.22054 0.0
H27 H 0.09513 0.28296 0.06443 0.0
H28 H 0.3973 0.39641 0.15397 0.0
N29 N 0.26322 0.33036 0.1756 0.0
C30 C 0.29528 0.34798 0.17953 0.0
C31 C 0.25101 0.32336 0.20913 0.0
C32 C 0.30657 0.35466 0.19851 0.0
C33 C 0.24107 0.31713 0.19001 0.0
C34 C 0.2839 0.34245 0.2134 0.0
N35 N 0.30475 0.35017 0.1464 0.0
C36 C 0.32492 0.35651 0.13111 0.0
C37 C 0.35041 0.37501 0.16775 0.0
C38 C 0.31684 0.35795 0.16441 0.0
C39 C 0.3713 0.38322 0.15204 0.0
C40 C 0.35848 0.37359 0.13367 0.0
H41 H 0.29156 0.34705 0.22821 0.0
H42 H 0.34922 0.37823 0.21646 0.0
H43 H 0.38764 0.39609 0.18949 0.0
O44 O 0.23795 0.28224 0.12785 0.0
O45 O 0.28202 0.37672 0.14025 0.0
O46 O 0.26247 0.39596 0.11586 0.0
O47 O 0.25201 0.28553 0.1573 0.0
O48 O 0.25542 0.3272 0.11295 0.0
O49 O 0.24033 0.3605 0.09646 0.0
O50 O 0.20762 0.41229 0.12172 0.0
O51 O 0.1899 0.31715 0.11449 0.0
O52 O 0.19766 0.30544 0.14471 0.0
O53 O 0.21005 0.39824 0.09308 0.0
O54 O 0.22693 0.38359 0.14643 0.0
O55 O 0.21553 0.33449 0.15795 0.0
C56 C 0.28525 0.39889 0.12767 0.0
C57 C 0.21223 0.23442 0.14615 0.0
C58 C 0.18509 0.17548 0.14357 0.0
C59 C 0.15737 0.17345 0.15201 0.0
C60 C 0.18462 0.2316 0.1551 0.0
C61 C 0.15726 0.20133 0.15779 0.0
C62 C 0.21256 0.20624 0.1406 0.0
C63 C 0.25276 0.34101 0.0972 0.0
C64 C 0.2404 0.2667 0.14249 0.0
C65 C 0.34002 0.37261 0.20197 0.0
C66 C 0.36191 0.38276 0.18661 0.0
C67 C 0.18009 0.29742 0.12915 0.0
C68 C 0.17913 0.42419 0.0986 0.0
C69 C 0.15353 0.4577 0.10123 0.0
C70 C 0.12797 0.43512 0.08976 0.0
C71 C 0.15331 0.40233 0.08708 0.0
C72 C 0.17922 0.45204 0.10554 0.0
C73 C 0.12795 0.40777 0.08277 0.0
C74 C 0.22246 0.36423 0.161 0.0
C75 C 0.20564 0.41792 0.10378 0.0
H76 H 0.13601 0.15019 0.15461 0.0
H77 H 0.18422 0.25277 0.16012 0.0
H78 H 0.13598 0.19945 0.16455 0.0
H79 H 0.23396 0.20824 0.13389 0.0
H80 H 0.10813 0.43888 0.08588 0.0
H81 H 0.15265 0.38102 0.08132 0.0
H82 H 0.19899 0.46897 0.11449 0.0
H83 H 0.10819 0.39075 0.07387 0.0
Tb84 Tb 0.93798 0.23462 0.64067 0.0
C85 C 0.81842 0.12861 0.60058 0.0
N86 N 0.83915 0.15953 0.59505 0.0
C87 C 0.84232 0.14127 0.56361 0.0
C88 C 0.80969 0.10256 0.58793 0.0
C89 C 0.85029 0.16633 0.57667 0.0
C90 C 0.82214 0.10923 0.5693 0.0
C91 C 0.78506 0.09139 0.62541 0.0
C92 C 0.80642 0.1232 0.61912 0.0
C93 C 0.77665 0.06528 0.61295 0.0
C94 C 0.78894 0.07084 0.59428 0.0
Tb95 Tb 0.84929 0.19846 0.6171 0.0
N96 N 0.81486 0.14913 0.63073 0.0
C97 C 0.77217 0.08682 0.64386 0.0
C98 C 0.80019 0.14475 0.64818 0.0
C99 C 0.77943 0.11364 0.65518 0.0
H100 H 0.86522 0.19103 0.57201 0.0
H101 H 0.76844 0.11041 0.66915 0.0
H102 H 0.92624 0.22238 0.68799 0.0
H103 H 0.01823 0.34304 0.60179 0.0
H104 H 0.80328 0.16493 0.65663 0.0
H105 H 0.75574 0.06277 0.64925 0.0
H106 H 0.98439 0.28396 0.60677 0.0
H107 H 0.85156 0.14669 0.54913 0.0
H108 H 0.76029 0.04069 0.61754 0.0
H109 H 0.78209 0.05047 0.58481 0.0
H110 H 0.93256 0.25525 0.71649 0.0
H111 H 0.81604 0.08987 0.55915 0.0
H112 H 0.02405 0.38075 0.62784 0.0
N113 N 0.94494 0.26235 0.66869 0.0
C114 C 0.96125 0.2951 0.66717 0.0
C115 C 0.94033 0.26677 0.70265 0.0
C116 C 0.96642 0.315 0.6832 0.0
C117 C 0.93622 0.24813 0.68633 0.0
C118 C 0.9549 0.30032 0.70102 0.0
N119 N 0.97017 0.28855 0.63486 0.0
C120 C 0.98653 0.30033 0.61804 0.0
C121 C 0.99388 0.34247 0.64763 0.0
C122 C 0.97484 0.30871 0.64972 0.0
C123 C 1.0091 0.35492 0.63002 0.0
C124 C 1.00584 0.33371 0.61527 0.0
H125 H 0.95833 0.31472 0.71371 0.0
H126 H 0.98792 0.3645 0.69316 0.0
H127 H 1.01197 0.38858 0.66195 0.0
O128 O 0.97092 0.22282 0.62804 0.0
O129 O 0.92263 0.26765 0.62839 0.0
O130 O 0.86821 0.24212 0.63446 0.0
O131 O 0.97459 0.23527 0.65771 0.0
O132 O 0.93286 0.22425 0.60994 0.0
O133 O 0.89075 0.23076 0.59842 0.0
O134 O 0.80004 0.18431 0.61457 0.0
O135 O 0.87772 0.17391 0.61451 0.0
O136 O 0.90346 0.18278 0.64324 0.0
O137 O 0.83547 0.22191 0.59678 0.0
O138 O 0.8532 0.2096 0.64813 0.0
O139 O 0.8959 0.20347 0.65878 0.0
C140 C 0.89611 0.26862 0.63206 0.0
C141 C 0.02297 0.24686 0.64194 0.0
C142 C 0.07461 0.24817 0.63803 0.0
C143 C 0.09069 0.28207 0.63985 0.0
C144 C 0.03962 0.2806 0.64386 0.0
C145 C 0.07328 0.29807 0.64268 0.0
C146 C 0.04052 0.23076 0.639 0.0
C147 C 0.91942 0.23289 0.59642 0.0
C148 C 0.98748 0.22789 0.64366 0.0
C149 C 0.98398 0.34879 0.68105 0.0
C150 C 0.99774 0.36251 0.66329 0.0
C151 C 0.88726 0.16343 0.62904 0.0
C152 C 0.78956 0.22591 0.60639 0.0
C153 C 0.74031 0.22808 0.61352 0.0
C154 C 0.75945 0.26183 0.61554 0.0
C155 C 0.80794 0.25962 0.60846 0.0
C156 C 0.75568 0.21027 0.60881 0.0
C157 C 0.79289 0.27734 0.61304 0.0
C158 C 0.86946 0.20495 0.6619 0.0
C159 C 0.80529 0.2066 0.60218 0.0
H160 H 0.11684 0.29628 0.63955 0.0
H161 H 0.02673 0.29344 0.64654 0.0
H162 H 0.08598 0.3241 0.64425 0.0
H163 H 0.02755 0.20467 0.63751 0.0
H164 H 0.74853 0.27641 0.61881 0.0
H165 H 0.83394 0.27232 0.60662 0.0
H166 H 0.74143 0.18422 0.60738 0.0
H167 H 0.80718 0.30326 0.61468 0.0
Tb168 Tb 0.71633 0.93614 0.13966 0.0
C169 C 0.70885 0.81556 0.10606 0.0
N170 N 0.69679 0.83384 0.09893 0.0
C171 C 0.71974 0.83503 0.06822 0.0
C172 C 0.72816 0.80747 0.09471 0.0
C173 C 0.70095 0.8427 0.08011 0.0
C174 C 0.73368 0.81762 0.07559 0.0
C175 C 0.71494 0.78724 0.13304 0.0
C176 C 0.7023 0.80567 0.12497 0.0
C177 C 0.73502 0.77989 0.12199 0.0
C178 C 0.74149 0.78985 0.10284 0.0
Tb179 Tb 0.66635 0.84481 0.11934 0.0
N180 N 0.68284 0.81336 0.13523 0.0
C181 C 0.70642 0.77613 0.15183 0.0
C182 C 0.67221 0.80001 0.15295 0.0
C183 C 0.68447 0.78202 0.16168 0.0
H184 H 0.68991 0.8558 0.07428 0.0
H185 H 0.67648 0.77219 0.17589 0.0
H186 H 0.71699 0.93056 0.1874 0.0
H187 H 0.68459 1.00873 0.09568 0.0
H188 H 0.65359 0.80219 0.16034 0.0
H189 H 0.71566 0.76196 0.15858 0.0
H190 H 0.71211 0.97786 0.10332 0.0
H191 H 0.72344 0.84252 0.05338 0.0
H192 H 0.74523 0.76606 0.12802 0.0
H193 H 0.75675 0.78373 0.09443 0.0
H194 H 0.68826 0.93743 0.21466 0.0
H195 H 0.7484 0.81191 0.06639 0.0
H196 H 0.65122 0.01563 0.12033 0.0
N197 N 0.69422 0.94492 0.16654 0.0
C198 C 0.67672 0.95986 0.16364 0.0
C199 C 0.6843 0.94331 0.20033 0.0
C200 C 0.66102 0.96577 0.17887 0.0
C201 C 0.6999 0.9386 0.18475 0.0
C202 C 0.66424 0.95639 0.19733 0.0
N203 N 0.69291 0.96599 0.13148 0.0
C204 C 0.6971 0.98028 0.11397 0.0
C205 C 0.66063 0.98891 0.14197 0.0
C206 C 0.67655 0.97136 0.14554 0.0
C207 C 0.66304 1.00189 0.12367 0.0
C208 C 0.6818 0.998 0.1097 0.0
H209 H 0.65254 0.96044 0.20944 0.0
H210 H 0.63123 0.98641 0.18677 0.0
H211 H 0.63087 1.00667 0.1544 0.0
O212 O 0.76082 0.96875 0.12663 0.0
O213 O 0.6674 0.91751 0.12724 0.0
O214 O 0.64059 0.86397 0.13555 0.0
O215 O 0.75123 0.97546 0.15567 0.0
O216 O 0.72151 0.92823 0.1093 0.0
O217 O 0.67361 0.88364 0.09894 0.0
O218 O 0.63192 0.79509 0.1183 0.0
O219 O 0.71908 0.8751 0.11613 0.0
O220 O 0.7358 0.90362 0.14398 0.0
O221 O 0.62946 0.82816 0.09861 0.0
O222 O 0.6594 0.85175 0.15001 0.0
O223 O 0.70733 0.89676 0.15967 0.0
C224 C 0.64054 0.89077 0.13163 0.0
C225 C 0.78763 0.02234 0.13842 0.0
C226 C 0.8375 0.07413 0.13352 0.0
C227 C 0.81892 0.08953 0.13312 0.0
C228 C 0.76978 0.03835 0.13816 0.0
C229 C 0.78537 0.07173 0.13539 0.0
C230 C 0.82145 0.04029 0.1361 0.0
C231 C 0.69928 0.9127 0.09612 0.0
C232 C 0.77171 0.98715 0.14163 0.0
C233 C 0.64373 0.98192 0.17529 0.0
C234 C 0.64358 0.99352 0.15686 0.0
C235 C 0.7394 0.88658 0.13047 0.0
C236 C 0.57966 0.78298 0.10892 0.0
C237 C 0.52811 0.73412 0.11642 0.0
C238 C 0.5132 0.75314 0.11705 0.0
C239 C 0.564 0.80124 0.10952 0.0
C240 C 0.56148 0.74932 0.11222 0.0
C241 C 0.53101 0.78635 0.11356 0.0
C242 C 0.6804 0.86948 0.16343 0.0
C243 C 0.61486 0.79864 0.10512 0.0
H244 H 0.83035 0.11551 0.13149 0.0
H245 H 0.7439 0.02521 0.14033 0.0
H246 H 0.77144 0.08395 0.13526 0.0
H247 H 0.8352 0.02784 0.13631 0.0
H248 H 0.48755 0.74223 0.11992 0.0
H249 H 0.57719 0.82703 0.10687 0.0
H250 H 0.57344 0.73512 0.11182 0.0
H251 H 0.51914 0.80059 0.11396 0.0
Tb252 Tb 0.79008 0.70317 0.64157 0.0
C253 C 0.90229 0.70114 0.60078 0.0
N254 N 0.87068 0.68364 0.59556 0.0
C255 C 0.88522 0.69807 0.56271 0.0
C256 C 0.92665 0.71842 0.5871 0.0
C257 C 0.86184 0.68156 0.57681 0.0
C258 C 0.91774 0.71665 0.56786 0.0
C259 C 0.94235 0.72183 0.6261 0.0
C260 C 0.90994 0.70297 0.62009 0.0
C261 C 0.96674 0.73901 0.61251 0.0
C262 C 0.95892 0.73732 0.59306 0.0
Tb263 Tb 0.83496 0.6576 0.61974 0.0
N264 N 0.88553 0.68688 0.63296 0.0
C265 C 0.94929 0.7228 0.64559 0.0
C266 C 0.89265 0.68584 0.65177 0.0
C267 C 0.92439 0.70433 0.65843 0.0
H268 H 0.83684 0.66687 0.57263 0.0
H269 H 0.92971 0.70379 0.67343 0.0
H270 H 0.80707 0.71757 0.6877 0.0
H271 H 0.67697 0.6473 0.60304 0.0
H272 H 0.87449 0.6699 0.66166 0.0
H273 H 0.97386 0.73705 0.6508 0.0
H274 H 0.7363 0.67807 0.6063 0.0
H275 H 0.87814 0.69642 0.54786 0.0
H276 H 0.99173 0.75371 0.61689 0.0
H277 H 0.97797 0.75088 0.58277 0.0
H278 H 0.77706 0.70198 0.71829 0.0
H279 H 0.93575 0.72957 0.55691 0.0
H280 H 0.64237 0.62827 0.63195 0.0
N281 N 0.76499 0.69186 0.67063 0.0
C282 C 0.73218 0.67457 0.67028 0.0
C283 C 0.76415 0.69378 0.7049 0.0
C284 C 0.71395 0.66566 0.68732 0.0
C285 C 0.78113 0.70216 0.68758 0.0
C286 C 0.73041 0.67521 0.70479 0.0
N287 N 0.73549 0.67512 0.63666 0.0
C288 C 0.72159 0.66945 0.61897 0.0
C289 C 0.68286 0.64888 0.65157 0.0
C290 C 0.71684 0.66628 0.6527 0.0
C291 C 0.66844 0.64162 0.63346 0.0
C292 C 0.6879 0.65223 0.6171 0.0
H293 H 0.71731 0.66887 0.71822 0.0
H294 H 0.66555 0.64068 0.69927 0.0
H295 H 0.63832 0.626 0.66795 0.0
O296 O 0.79437 0.74218 0.62522 0.0
O297 O 0.76027 0.6498 0.64036 0.0
O298 O 0.78242 0.62891 0.61867 0.0
O299 O 0.7917 0.74269 0.65589 0.0
O300 O 0.79744 0.70449 0.61056 0.0
O301 O 0.80041 0.65981 0.59961 0.0
O302 O 0.84692 0.62347 0.63001 0.0
O303 O 0.85451 0.70992 0.61572 0.0
O304 O 0.84241 0.7245 0.64414 0.0
O305 O 0.83514 0.62363 0.60052 0.0
O306 O 0.81823 0.6478 0.64996 0.0
O307 O 0.82388 0.69642 0.65903 0.0
C308 C 0.75852 0.6266 0.62926 0.0
C309 C 0.77222 0.77211 0.63892 0.0
C310 C 0.76683 0.82035 0.63662 0.0
C311 C 0.73298 0.8003 0.63743 0.0
C312 C 0.73849 0.75268 0.63965 0.0
C313 C 0.71901 0.76677 0.63887 0.0
C314 C 0.78628 0.80583 0.63734 0.0
C315 C 0.79399 0.68357 0.59715 0.0
C316 C 0.79328 0.75789 0.64017 0.0
C317 C 0.68001 0.64786 0.68633 0.0
C318 C 0.6645 0.63951 0.66849 0.0
C319 C 0.86137 0.7314 0.62922 0.0
C320 C 0.82269 0.57335 0.61429 0.0
C321 C 0.81918 0.52066 0.61814 0.0
C322 C 0.78527 0.50579 0.6168 0.0
C323 C 0.78892 0.55787 0.61318 0.0
C324 C 0.8378 0.55469 0.61675 0.0
C325 C 0.77034 0.52429 0.61436 0.0
C326 C 0.81989 0.66797 0.66341 0.0
C327 C 0.84225 0.60894 0.61365 0.0
H328 H 0.71722 0.81052 0.63729 0.0
H329 H 0.7272 0.72676 0.64093 0.0
H330 H 0.69297 0.75164 0.63955 0.0
H331 H 0.81238 0.82068 0.63655 0.0
H332 H 0.77019 0.47973 0.61743 0.0
H333 H 0.77699 0.57181 0.61144 0.0
H334 H 0.8639 0.56672 0.61795 0.0
H335 H 0.74425 0.51255 0.6134 0.0
Tb336 Tb 0.10625 0.79025 0.14299 0.0
C337 C 0.21592 0.89216 0.09333 0.0
N338 N 0.1975 0.85999 0.0896 0.0
C339 C 0.19084 0.8714 0.05708 0.0
C340 C 0.22209 0.91532 0.07901 0.0
C341 C 0.18534 0.84928 0.07173 0.0
C342 C 0.20925 0.90455 0.06072 0.0
C343 C 0.24586 0.93502 0.11632 0.0
C344 C 0.22746 0.90185 0.11186 0.0
C345 C 0.2526 0.95815 0.10197 0.0
C346 C 0.2406 0.94836 0.08341 0.0
Tb347 Tb 0.1925 0.82696 0.11434 0.0
N348 N 0.22024 0.87879 0.12551 0.0
C349 C 0.25713 0.94394 0.13505 0.0
C350 C 0.2329 0.88743 0.14344 0.0
C351 C 0.25086 0.92004 0.14861 0.0
H352 H 0.17188 0.82376 0.06861 0.0
H353 H 0.26047 0.92672 0.16295 0.0
H354 H 0.12409 0.8174 0.18756 0.0
H355 H 0.02744 0.67105 0.11458 0.0
H356 H 0.2305 0.86952 0.1536 0.0
H357 H 0.27125 0.96918 0.13906 0.0
H358 H 0.06137 0.73071 0.11318 0.0
H359 H 0.1811 0.86287 0.04293 0.0
H360 H 0.26713 0.98373 0.10507 0.0
H361 H 0.24575 0.96654 0.07257 0.0
H362 H 0.11793 0.79395 0.21989 0.0
H363 H 0.21344 0.9216 0.04932 0.0
H364 H 0.0206 0.64244 0.14529 0.0
N365 N 0.10036 0.7717 0.17363 0.0
C366 C 0.08329 0.73909 0.17577 0.0
C367 C 0.10819 0.77824 0.20758 0.0
C368 C 0.07854 0.72462 0.19393 0.0
C369 C 0.11192 0.79143 0.18924 0.0
C370 C 0.09172 0.74467 0.20992 0.0
N371 N 0.07458 0.7353 0.1425 0.0
C372 C 0.05866 0.71828 0.12653 0.0
C373 C 0.05032 0.6864 0.16126 0.0
C374 C 0.06948 0.72022 0.15971 0.0
C375 C 0.03555 0.66852 0.14472 0.0
C376 C 0.0394 0.68459 0.12733 0.0
H377 H 0.08873 0.73452 0.22415 0.0
H378 H 0.05652 0.67914 0.20938 0.0
H379 H 0.03172 0.64567 0.18076 0.0
O380 O 0.07162 0.79776 0.12876 0.0
O381 O 0.12132 0.75437 0.1367 0.0
O382 O 0.17073 0.77552 0.12026 0.0
O383 O 0.07243 0.79604 0.15936 0.0
O384 O 0.10851 0.79574 0.11182 0.0
O385 O 0.15012 0.79109 0.09781 0.0
O386 O 0.24163 0.84163 0.11841 0.0
O387 O 0.16217 0.85008 0.11357 0.0
O388 O 0.14162 0.84186 0.14382 0.0
O389 O 0.21774 0.81864 0.09232 0.0
O390 O 0.19212 0.81356 0.14476 0.0
O391 O 0.1525 0.82224 0.15644 0.0
C392 C 0.14496 0.75185 0.12859 0.0
C393 C 0.02166 0.77852 0.14483 0.0
C394 C 0.96862 0.77464 0.1421 0.0
C395 C 0.95389 0.74119 0.14557 0.0
C396 C 1.00624 0.74521 0.14848 0.0
C397 C 0.97259 0.72669 0.14874 0.0
C398 C 1.00275 0.79321 0.14174 0.0
C399 C 0.11977 0.78498 0.09819 0.0
C400 C 0.05731 0.79823 0.1445 0.0
C401 C 0.06031 0.69076 0.19556 0.0
C402 C 0.04617 0.67169 0.17926 0.0
C403 C 0.1523 0.85983 0.12838 0.0
C404 C 0.26003 0.80991 0.10328 0.0
C405 C 0.30885 0.80598 0.10835 0.0
C406 C 0.28972 0.77212 0.10687 0.0
C407 C 0.24167 0.77612 0.10194 0.0
C408 C 0.29371 0.82478 0.10639 0.0
C409 C 0.25647 0.75741 0.10368 0.0
C410 C 0.17483 0.81445 0.15921 0.0
C411 C 0.24426 0.8298 0.10225 0.0
H412 H 0.92781 0.72626 0.14626 0.0
H413 H 0.02009 0.7335 0.15133 0.0
H414 H 0.96094 0.701 0.15161 0.0
H415 H 1.0146 0.81897 0.13896 0.0
H416 H 0.30052 0.75694 0.108 0.0
H417 H 0.21587 0.76419 0.09962 0.0
H418 H 0.30791 0.85086 0.10771 0.0
H419 H 0.24207 0.73135 0.10259 0.0
Tb420 Tb 0.32846 0.08912 0.63842 0.0
C421 C 0.33165 0.20516 0.60008 0.0
N422 N 0.34541 0.18794 0.5937 0.0
C423 C 0.32525 0.18662 0.56211 0.0
C424 C 0.31377 0.21353 0.58766 0.0
C425 C 0.34285 0.17894 0.57495 0.0
C426 C 0.3106 0.20395 0.56849 0.0
C427 C 0.32079 0.23137 0.62643 0.0
C428 C 0.33463 0.21337 0.61934 0.0
C429 C 0.30307 0.23992 0.61408 0.0
C430 C 0.29941 0.23087 0.59478 0.0
Tb431 Tb 0.37451 0.17811 0.61574 0.0
N432 N 0.35141 0.2041 0.63101 0.0
C433 C 0.32574 0.24083 0.64562 0.0
C434 C 0.35808 0.2153 0.64938 0.0
C435 C 0.34469 0.233 0.65709 0.0
H436 H 0.3547 0.16622 0.56976 0.0
H437 H 0.34988 0.24147 0.67172 0.0
H438 H 0.3173 0.09274 0.68499 0.0
H439 H 0.37957 0.02911 0.5978 0.0
H440 H 0.37514 0.21254 0.65796 0.0
H441 H 0.31594 0.25508 0.65157 0.0
H442 H 0.34946 0.05807 0.60211 0.0
H443 H 0.32316 0.17936 0.54728 0.0
H444 H 0.29218 0.25364 0.6193 0.0
H445 H 0.28553 0.23749 0.58547 0.0
H446 H 0.33397 0.07766 0.7149 0.0
H447 H 0.29698 0.20985 0.5585 0.0
H448 H 0.40079 0.01436 0.626 0.0
N449 N 0.3415 0.07573 0.66702 0.0
C450 C 0.35833 0.05976 0.66598 0.0
C451 C 0.34156 0.0731 0.70126 0.0
C452 C 0.3683 0.05062 0.68265 0.0
C453 C 0.33244 0.08193 0.68431 0.0
C454 C 0.35995 0.05779 0.70045 0.0
N455 N 0.35492 0.06132 0.63235 0.0
C456 C 0.35901 0.05237 0.61449 0.0
C457 C 0.382 0.03508 0.64632 0.0
C458 C 0.36491 0.0519 0.64808 0.0
C459 C 0.38772 0.02727 0.62798 0.0
C460 C 0.37586 0.03565 0.61202 0.0
H461 H 0.36696 0.05098 0.71362 0.0
H462 H 0.39379 0.02712 0.69366 0.0
H463 H 0.40593 0.01367 0.66185 0.0
O464 O 0.28581 0.05634 0.62384 0.0
O465 O 0.3818 0.11192 0.6361 0.0
O466 O 0.40125 0.15254 0.61297 0.0
O467 O 0.2924 0.04902 0.65337 0.0
O468 O 0.3249 0.09355 0.6074 0.0
O469 O 0.36935 0.14038 0.59545 0.0
O470 O 0.41303 0.22328 0.62435 0.0
O471 O 0.3215 0.14714 0.61365 0.0
O472 O 0.30864 0.12133 0.64235 0.0
O473 O 0.40528 0.21053 0.59468 0.0
O474 O 0.38601 0.17143 0.64571 0.0
O475 O 0.33733 0.12997 0.65622 0.0
C476 C 0.40436 0.13216 0.62419 0.0
C477 C 0.2401 0.03584 0.64395 0.0
C478 C 0.18118 1.00537 0.64171 0.0
C479 C 0.17982 0.02994 0.65202 0.0
C480 C 0.23802 0.05953 0.65474 0.0
C481 C 0.20808 0.05673 0.65857 0.0
C482 C 0.21154 1.0085 0.63764 0.0
C483 C 0.34482 0.1105 0.59344 0.0
C484 C 0.27203 0.0399 0.63929 0.0
C485 C 0.38576 0.03422 0.68101 0.0
C486 C 0.39263 0.02651 0.66289 0.0
C487 C 0.30147 0.13443 0.62807 0.0
C488 C 0.45901 0.24746 0.6045 0.0
C489 C 0.51268 0.29598 0.60685 0.0
C490 C 0.52618 0.27797 0.59928 0.0
C491 C 0.47312 0.2301 0.59718 0.0
C492 C 0.47884 0.28018 0.60948 0.0
C493 C 0.50655 0.24531 0.59464 0.0
C494 C 0.36627 0.15435 0.65975 0.0
C495 C 0.42373 0.2322 0.60706 0.0
H496 H 0.15679 0.02799 0.65546 0.0
H497 H 0.25954 0.08011 0.66037 0.0
H498 H 0.20676 0.07522 0.6668 0.0
H499 H 0.21294 0.98989 0.62954 0.0
H500 H 0.55189 0.28915 0.59659 0.0
H501 H 0.45828 0.20492 0.59329 0.0
H502 H 0.46772 0.29315 0.61555 0.0
H503 H 0.51729 0.23182 0.58888 0.0
Tb504 Tb 0.70908 0.78093 0.38305 0.0
C505 C 0.70091 0.88886 0.42506 0.0
N506 N 0.68916 0.8577 0.43068 0.0
C507 C 0.7103 0.87539 0.46223 0.0
C508 C 0.71817 0.91466 0.43788 0.0
C509 C 0.69321 0.85057 0.44903 0.0
C510 C 0.72288 0.90757 0.45663 0.0
C511 C 0.70761 0.92676 0.39999 0.0
C512 C 0.69605 0.89474 0.40626 0.0
C513 C 0.72491 0.95259 0.41268 0.0
C514 C 0.73027 0.94657 0.43155 0.0
Tb515 Tb 0.66026 0.81933 0.40832 0.0
N516 N 0.67935 0.8691 0.39431 0.0
C517 C 0.70074 0.93183 0.38129 0.0
C518 C 0.67034 0.87402 0.37663 0.0
C519 C 0.68167 0.90531 0.36966 0.0
H520 H 0.68294 0.82576 0.45361 0.0
H521 H 0.67483 0.90892 0.3555 0.0
H522 H 0.71666 0.79873 0.33672 0.0
H523 H 0.6614 0.66765 0.42098 0.0
H524 H 0.65312 0.85419 0.36806 0.0
H525 H 0.70901 0.95602 0.37594 0.0
H526 H 0.68918 0.72693 0.41791 0.0
H527 H 0.71357 0.86967 0.47674 0.0
H528 H 0.73401 0.97734 0.40809 0.0
H529 H 0.74366 0.96675 0.44116 0.0
H530 H 0.69881 0.76892 0.30619 0.0
H531 H 0.73606 0.92673 0.4669 0.0
H532 H 0.64147 0.6333 0.39206 0.0
N533 N 0.69564 0.75626 0.35388 0.0
C534 C 0.68002 0.72344 0.35414 0.0
C535 C 0.69322 0.75582 0.31959 0.0
C536 C 0.67008 0.70539 0.33707 0.0
C537 C 0.70286 0.77265 0.33692 0.0
C538 C 0.67664 0.72203 0.31966 0.0
N539 N 0.68348 0.72634 0.38778 0.0
C540 C 0.67996 0.71233 0.40529 0.0
C541 C 0.65841 0.67395 0.37265 0.0
C542 C 0.67411 0.70792 0.37166 0.0
C543 C 0.65344 0.65936 0.39066 0.0
C544 C 0.66453 0.67867 0.40702 0.0
H545 H 0.66933 0.70906 0.30621 0.0
H546 H 0.64616 0.65713 0.32499 0.0
H547 H 0.63606 0.62961 0.35615 0.0
O548 O 0.74938 0.78372 0.39715 0.0
O549 O 0.65552 0.7498 0.38397 0.0
O550 O 0.63757 0.76702 0.40973 0.0
O551 O 0.74834 0.78651 0.36649 0.0
O552 O 0.71403 0.78919 0.41407 0.0
O553 O 0.66758 0.78604 0.42687 0.0
O554 O 0.61729 0.81948 0.40135 0.0
O555 O 0.7135 0.84384 0.41014 0.0
O556 O 0.72892 0.83338 0.3813 0.0
O557 O 0.62936 0.81708 0.43052 0.0
O558 O 0.65047 0.80497 0.37767 0.0
O559 O 0.70001 0.81454 0.36708 0.0
C560 C 0.63287 0.74591 0.39632 0.0
C561 C 0.78008 0.76612 0.37955 0.0
C562 C 0.82957 0.76294 0.37877 0.0
C563 C 0.81095 0.72981 0.3745 0.0
C564 C 0.76195 0.73302 0.37538 0.0
C565 C 0.77736 0.71498 0.37293 0.0
C566 C 0.81384 0.78092 0.38143 0.0
C567 C 0.69337 0.78256 0.4282 0.0
C568 C 0.7646 0.78599 0.38124 0.0
C569 C 0.65405 0.67146 0.33795 0.0
C570 C 0.64829 0.65577 0.3557 0.0
C571 C 0.73393 0.85284 0.3958 0.0
C572 C 0.60333 0.84737 0.42392 0.0
C573 C 0.5708 0.87359 0.41962 0.0
C574 C 0.59187 0.89842 0.432 0.0
C575 C 0.62341 0.87217 0.43663 0.0
C576 C 0.5767 0.84801 0.41561 0.0
C577 C 0.61785 0.89759 0.44047 0.0
C578 C 0.67112 0.81016 0.36368 0.0
C579 C 0.61025 0.82117 0.41911 0.0
H580 H 0.82239 0.71533 0.37252 0.0
H581 H 0.73605 0.7212 0.37385 0.0
H582 H 0.76323 0.68944 0.36968 0.0
H583 H 0.82793 0.80659 0.38446 0.0
H584 H 0.58778 0.91817 0.43555 0.0
H585 H 0.64339 0.87199 0.44373 0.0
H586 H 0.56085 0.82885 0.40594 0.0
H587 H 0.6336 0.91661 0.4502 0.0
Tb588 Tb 0.94349 0.70866 0.89195 0.0
C589 C 0.82743 0.70119 0.92776 0.0
N590 N 0.84135 0.68317 0.93219 0.0
C591 C 0.8432 0.69772 0.9653 0.0
C592 C 0.82262 0.71969 0.94173 0.0
C593 C 0.84693 0.67939 0.95097 0.0
C594 C 0.8317 0.71856 0.96059 0.0
C595 C 0.7992 0.71556 0.9044 0.0
C596 C 0.81583 0.69923 0.90944 0.0
C597 C 0.79592 0.73545 0.91794 0.0
C598 C 0.80771 0.73759 0.93657 0.0
Tb599 Tb 0.84865 0.65665 0.90679 0.0
N600 N 0.8205 0.68074 0.89655 0.0
C601 C 0.78614 0.71108 0.88597 0.0
C602 C 0.80639 0.67482 0.8789 0.0
C603 C 0.78933 0.69022 0.87326 0.0
H604 H 0.85382 0.66194 0.95522 0.0
H605 H 0.77881 0.68612 0.85912 0.0
H606 H 0.94392 0.68072 0.84879 0.0
H607 H 0.01816 0.72311 0.9535 0.0
H608 H 0.80898 0.65877 0.8691 0.0
H609 H 0.77315 0.72317 0.88152 0.0
H610 H 0.98475 0.73629 0.93253 0.0
H611 H 0.84862 0.69529 0.98003 0.0
H612 H 0.78375 0.74871 0.91427 0.0
H613 H 0.80424 0.75231 0.94703 0.0
H614 H 0.96271 0.6463 0.83359 0.0
H615 H 0.82845 0.73241 0.97176 0.0
H616 H 0.03243 0.68219 0.94336 0.0
N617 N 0.96177 0.67884 0.8763 0.0
C618 C 0.97955 0.66939 0.88672 0.0
C619 C 0.96738 0.6524 0.8486 0.0
C620 C 0.99085 0.64982 0.87873 0.0
C621 C 0.95667 0.67179 0.85724 0.0
C622 C 0.98413 0.64094 0.85947 0.0
N623 N 0.97698 0.70055 0.91183 0.0
C624 C 0.98945 0.71724 0.92843 0.0
C625 C 1.0069 0.67267 0.91641 0.0
C626 C 0.98704 0.68031 0.90528 0.0
C627 C 1.01708 0.6873 0.93434 0.0
C628 C 1.00899 0.71033 0.94015 0.0
H629 H 0.9924 0.62592 0.85275 0.0
H630 H 1.01772 0.62515 0.88431 0.0
H631 H 0.03205 0.64543 0.91733 0.0
O632 O 0.9898 0.74979 0.89383 0.0
O633 O 0.9166 0.65513 0.88855 0.0
O634 O 0.8794 0.6361 0.91309 0.0
O635 O 0.95964 0.74314 0.86961 0.0
O636 O 0.92784 0.71316 0.92086 0.0
O637 O 0.88493 0.66331 0.92893 0.0
O638 O 0.81535 0.61264 0.89374 0.0
O639 O 0.86893 0.70295 0.89154 0.0
O640 O 0.91862 0.73202 0.90501 0.0
O641 O 0.80556 0.62491 0.92138 0.0
O642 O 0.86035 0.65096 0.87691 0.0
O643 O 0.90892 0.69733 0.8684 0.0
C644 C 0.89855 0.63256 0.90107 0.0
C645 C 1.01669 0.77783 0.86587 0.0
C646 C 0.06801 0.82702 0.8586 0.0
C647 C 0.07371 0.80986 0.8442 0.0
C648 C 0.02292 0.76125 0.8515 0.0
C649 C 0.05133 0.77729 0.84072 0.0
C650 C 0.03923 0.8106 0.86936 0.0
C651 C 0.91236 0.68976 0.93333 0.0
C652 C 0.98733 0.76188 0.87778 0.0
C653 C 1.00904 0.64047 0.89009 0.0
C654 C 1.0171 0.65192 0.90892 0.0
C655 C 0.89275 0.73054 0.89758 0.0
C656 C 0.78097 0.56933 0.91398 0.0
C657 C 0.73344 0.51502 0.91647 0.0
C658 C 0.75311 0.50445 0.92522 0.0
C659 C 0.79997 0.55821 0.9227 0.0
C660 C 0.74783 0.54775 0.91086 0.0
C661 C 0.78607 0.52587 0.92823 0.0
C662 C 0.88107 0.67123 0.86404 0.0
C663 C 0.79514 0.60329 0.90796 0.0
H664 H 0.09571 0.82145 0.83579 0.0
H665 H 1.00596 0.73605 0.84865 0.0
H666 H 0.05612 0.76437 0.82966 0.0
H667 H 0.03409 0.82336 0.88038 0.0
H668 H 0.743 0.4797 0.93003 0.0
H669 H 0.82543 0.57455 0.92525 0.0
H670 H 0.73343 0.55647 0.90383 0.0
H671 H 0.80085 0.5174 0.935 0.0
Tb672 Tb 0.24069 0.92396 0.38004 0.0
C673 C 0.142 0.80966 0.42983 0.0
N674 N 0.17422 0.82933 0.43286 0.0
C675 C 0.1644 0.83299 0.46616 0.0
C676 C 0.11962 0.80097 0.44495 0.0
C677 C 0.18574 0.84071 0.45076 0.0
C678 C 0.1312 0.81305 0.46326 0.0
C679 C 0.09821 0.77817 0.40769 0.0
C680 C 0.13139 0.79883 0.41134 0.0
C681 C 0.07589 0.76894 0.4228 0.0
C682 C 0.08652 0.78055 0.44133 0.0
Tb683 Tb 0.2061 0.83804 0.40676 0.0
N684 N 0.15363 0.80866 0.39697 0.0
C685 C 0.08854 0.76709 0.38899 0.0
C686 C 0.1444 0.79681 0.37892 0.0
C687 C 0.11175 0.77641 0.37457 0.0
H688 H 0.21138 0.85514 0.45338 0.0
H689 H 0.10459 0.76717 0.36019 0.0
H690 H 0.21773 0.911 0.33447 0.0
H691 H 0.35739 0.99539 0.41334 0.0
H692 H 0.16209 0.80156 0.36807 0.0
H693 H 0.06335 0.75076 0.38563 0.0
H694 H 0.29783 0.96222 0.4126 0.0
H695 H 0.1736 0.84211 0.48032 0.0
H696 H 0.05032 0.75282 0.42032 0.0
H697 H 0.06896 0.77343 0.45279 0.0
H698 H 0.24437 0.92255 0.30282 0.0
H699 H 0.11476 0.80698 0.47526 0.0
H700 H 0.38866 1.00816 0.38317 0.0
N701 N 0.26204 0.93437 0.34992 0.0
C702 C 0.29481 0.9521 0.3489 0.0
C703 C 0.25881 0.93085 0.31569 0.0
C704 C 0.31098 0.95963 0.33116 0.0
C705 C 0.24384 0.92415 0.33364 0.0
C706 C 0.29252 0.94849 0.31443 0.0
N707 N 0.29556 0.9548 0.38257 0.0
C708 C 0.31124 0.96709 0.39947 0.0
C709 C 0.34613 0.98214 0.36542 0.0
C710 C 0.31218 0.9631 0.36576 0.0
C711 C 0.36254 0.99341 0.3828 0.0
C712 C 0.34497 0.98615 0.39988 0.0
H713 H 0.30402 0.95369 0.3005 0.0
H714 H 0.35782 0.98413 0.3172 0.0
H715 H 0.38859 1.00393 0.3472 0.0
O716 O 0.23479 0.95895 0.39495 0.0
O717 O 0.27481 0.90535 0.38215 0.0
O718 O 0.25863 0.86594 0.40598 0.0
O719 O 0.23455 0.95808 0.36424 0.0
O720 O 0.23359 0.92042 0.41119 0.0
O721 O 0.2406 0.87968 0.42408 0.0
O722 O 0.19771 0.79233 0.39822 0.0
O723 O 0.17935 0.86481 0.4079 0.0
O724 O 0.18889 0.88916 0.37856 0.0
O725 O 0.21224 0.80869 0.42698 0.0
O726 O 0.21956 0.84113 0.37606 0.0
O727 O 0.2086 0.8797 0.36478 0.0
C728 C 0.28 0.88667 0.39381 0.0
C729 C 0.253 1.00877 0.37906 0.0
C730 C 0.25602 0.0614 0.38088 0.0
C731 C 0.28979 0.07652 0.37864 0.0
C732 C 0.28666 0.02445 0.3768 0.0
C733 C 0.30491 0.05812 0.37662 0.0
C734 C 0.23776 0.02732 0.38106 0.0
C735 C 0.24396 0.90888 0.42484 0.0
C736 C 0.2334 0.97321 0.37939 0.0
C737 C 0.34492 0.97816 0.3307 0.0
C738 C 0.36246 0.98944 0.34779 0.0
C739 C 0.17002 0.87584 0.39346 0.0
C740 C 0.22716 0.77207 0.41387 0.0
C741 C 0.234 0.72514 0.4087 0.0
C742 C 0.26774 0.7457 0.40962 0.0
C743 C 0.26082 0.79205 0.41474 0.0
C744 C 0.21384 0.73863 0.41096 0.0
C745 C 0.28097 0.77888 0.41268 0.0
C746 C 0.21559 0.85685 0.36177 0.0
C747 C 0.20554 0.78573 0.41469 0.0
H748 H 0.30453 0.10262 0.37813 0.0
H749 H 0.29887 1.0108 0.37509 0.0
H750 H 0.33088 0.07003 0.37481 0.0
H751 H 0.21175 0.01518 0.38295 0.0
H752 H 0.28391 0.73609 0.40815 0.0
H753 H 0.27145 0.81779 0.41686 0.0
H754 H 0.18782 0.72328 0.40994 0.0
H755 H 0.30696 0.79446 0.41334 0.0
Tb756 Tb 0.32697 0.23752 0.88336 0.0
C757 C 0.33186 0.12222 0.91698 0.0
N758 N 0.34346 0.15242 0.92424 0.0
C759 C 0.3193 0.13005 0.95462 0.0
C760 C 0.31228 0.09459 0.92811 0.0
C761 C 0.33846 0.15675 0.94297 0.0
C762 C 0.30589 0.09883 0.94712 0.0
C763 C 0.32709 0.08828 0.89001 0.0
C764 C 0.33919 0.11922 0.89817 0.0
C765 C 0.30688 0.06063 0.90087 0.0
C766 C 0.29958 0.06377 0.9199 0.0
Tb767 Tb 0.37473 0.19414 0.9042 0.0
N768 N 0.35884 0.14656 0.88809 0.0
C769 C 0.33623 0.08603 0.87132 0.0
C770 C 0.36999 0.14419 0.87046 0.0
C771 C 0.35822 0.11409 0.86165 0.0
H772 H 0.3492 0.18074 0.94897 0.0
H773 H 0.36665 0.11251 0.84753 0.0
H774 H 0.3287 0.23265 0.83553 0.0
H775 H 0.3596 0.34129 0.92798 0.0
H776 H 0.38869 0.16515 0.86323 0.0
H777 H 0.32739 0.06273 0.86452 0.0
H778 H 0.33078 0.28307 0.91974 0.0
H779 H 0.31497 0.13354 0.9694 0.0
H780 H 0.29716 0.0367 0.89478 0.0
H781 H 0.28417 0.04222 0.92814 0.0
H782 H 0.35969 0.26869 0.80892 0.0
H783 H 0.29094 0.07821 0.95616 0.0
H784 H 0.39542 0.38174 0.90407 0.0
N785 N 0.35126 0.26897 0.85691 0.0
C786 C 0.36958 0.30124 0.86019 0.0
C787 C 0.36319 0.27811 0.82333 0.0
C788 C 0.38672 0.32311 0.8453 0.0
C789 C 0.34621 0.25754 0.83857 0.0
C790 C 0.38406 0.31097 0.82676 0.0
N791 N 0.35152 0.29066 0.89201 0.0
C792 C 0.34675 0.30059 0.90942 0.0
C793 C 0.38598 0.34595 0.88222 0.0
C794 C 0.36922 0.31258 0.8783 0.0
C795 C 0.38299 0.35627 0.90047 0.0
C796 C 0.36283 0.33351 0.91403 0.0
H797 H 0.39686 0.32693 0.81491 0.0
H798 H 0.41847 0.37355 0.83806 0.0
H799 H 0.41783 0.39357 0.87045 0.0
O800 O 0.28249 0.22712 0.89578 0.0
O801 O 0.37507 0.26612 0.897 0.0
O802 O 0.4017 0.23942 0.88844 0.0
O803 O 0.29351 0.24339 0.86678 0.0
O804 O 0.31923 0.22204 0.91332 0.0
O805 O 0.36615 0.2247 0.92484 0.0
O806 O 0.40826 0.17779 0.90582 0.0
O807 O 0.32172 0.17141 0.90601 0.0
O808 O 0.3066 0.18555 0.87829 0.0
O809 O 0.41158 0.21425 0.92501 0.0
O810 O 0.38309 0.20885 0.87363 0.0
O811 O 0.33609 0.20734 0.86333 0.0
C812 C 0.40184 0.26629 0.89238 0.0
C813 C 0.2584 0.25622 0.88354 0.0
C814 C 0.21022 0.26108 0.88875 0.0
C815 C 0.23001 0.29496 0.88799 0.0
C816 C 0.27747 0.29 0.88275 0.0
C817 C 0.26331 0.30921 0.88508 0.0
C818 C 0.22485 0.24187 0.88659 0.0
C819 C 0.34043 0.22826 0.92707 0.0
C820 C 0.27276 0.23548 0.88061 0.0
C821 C 0.40486 0.35639 0.84927 0.0
C822 C 0.40445 0.3678 0.8677 0.0
C823 C 0.30253 0.16369 0.89113 0.0
C824 C 0.46089 0.21761 0.91464 0.0
C825 C 0.51168 0.21914 0.90648 0.0
C826 C 0.52673 0.25294 0.90469 0.0
C827 C 0.47676 0.25144 0.91296 0.0
C828 C 0.47866 0.20159 0.91163 0.0
C829 C 0.50943 0.26889 0.90801 0.0
C830 C 0.36283 0.20645 0.85993 0.0
C831 C 0.42571 0.19869 0.91877 0.0
H832 H 0.21971 0.31057 0.88921 0.0
H833 H 0.30317 0.30156 0.88008 0.0
H834 H 0.27817 0.33527 0.88437 0.0
H835 H 0.21022 0.21575 0.88726 0.0
H836 H 0.5521 0.26713 0.90094 0.0
H837 H 0.46391 0.26445 0.91534 0.0
H838 H 0.46664 0.17548 0.91285 0.0
H839 H 0.52144 0.29493 0.90668 0.0
Tb840 Tb 0.09589 0.31411 0.38033 0.0
C841 C 0.20692 0.31026 0.41973 0.0
N842 N 0.19119 0.32555 0.42618 0.0
C843 C 0.18758 0.30379 0.45758 0.0
C844 C 0.21316 0.29061 0.43202 0.0
C845 C 0.18176 0.3229 0.44485 0.0
C846 C 0.20331 0.28755 0.45114 0.0
C847 C 0.2307 0.29671 0.3932 0.0
C848 C 0.2153 0.31312 0.40049 0.0
C849 C 0.23715 0.27725 0.40541 0.0
C850 C 0.22841 0.27421 0.42476 0.0
Tb851 Tb 0.18421 0.35686 0.40433 0.0
N852 N 0.20796 0.33156 0.38893 0.0
C853 C 0.23936 0.3005 0.37387 0.0
C854 C 0.21887 0.33735 0.37046 0.0
C855 C 0.23384 0.32129 0.36254 0.0
H856 H 0.17009 0.33581 0.45004 0.0
H857 H 0.24183 0.32558 0.34779 0.0
H858 H 0.10075 0.30161 0.33419 0.0
H859 H 0.0356 0.36719 0.4186 0.0
H860 H 0.21761 0.35531 0.36189 0.0
H861 H 0.25112 0.28823 0.3677 0.0
H862 H 0.06447 0.33672 0.41543 0.0
H863 H 0.18002 0.30168 0.47236 0.0
H864 H 0.24886 0.2644 0.40003 0.0
H865 H 0.23333 0.25891 0.43396 0.0
H866 H 0.08787 0.31849 0.30356 0.0
H867 H 0.20763 0.27263 0.46102 0.0
H868 H 0.02221 0.38814 0.38972 0.0
N869 N 0.08353 0.32663 0.35124 0.0
C870 C 0.06823 0.34411 0.35155 0.0
C871 C 0.0826 0.32624 0.31695 0.0
C872 C 0.05997 0.35391 0.33449 0.0
C873 C 0.09022 0.31702 0.33429 0.0
C874 C 0.0677 0.34505 0.31703 0.0
N875 N 0.06881 0.34163 0.38518 0.0
C876 C 0.05927 0.34613 0.40278 0.0
C877 C 0.04354 0.36884 0.37019 0.0
C878 C 0.06018 0.35151 0.36911 0.0
C879 C 0.03506 0.37492 0.38825 0.0
C880 C 0.04266 0.3632 0.4046 0.0
H881 H 0.06174 0.35207 0.30357 0.0
H882 H 0.03744 0.37967 0.32247 0.0
H883 H 0.02301 0.39271 0.35375 0.0
O884 O 0.06227 0.27302 0.39575 0.0
O885 O 0.11916 0.36723 0.38347 0.0
O886 O 0.16104 0.38613 0.4059 0.0
O887 O 0.05756 0.27608 0.36535 0.0
O888 O 0.09921 0.31056 0.41149 0.0
O889 O 0.14657 0.3534 0.42412 0.0
O890 O 0.23096 0.39401 0.39675 0.0
O891 O 0.15052 0.3042 0.4059 0.0
O892 O 0.12707 0.29329 0.37659 0.0
O893 O 0.2161 0.38555 0.4261 0.0
O894 O 0.17986 0.37081 0.37463 0.0
O895 O 0.13781 0.3235 0.3632 0.0
C896 C 0.14047 0.38963 0.39502 0.0
C897 C 1.00957 0.24427 0.38282 0.0
C898 C 0.95658 0.19551 0.38649 0.0
C899 C 0.94217 0.21503 0.38597 0.0
C900 C 0.99469 0.26316 0.38238 0.0
C901 C 0.96115 0.24856 0.38399 0.0
C902 C 0.99052 0.21057 0.38497 0.0
C903 C 0.11596 0.33012 0.42562 0.0
C904 C 0.0448 0.25899 0.38069 0.0
C905 C 0.04391 0.37179 0.33543 0.0
C906 C 0.03568 0.37921 0.35324 0.0
C907 C 0.13832 0.2848 0.39119 0.0
C908 C 0.25441 0.43932 0.41719 0.0
C909 C 0.30262 0.49322 0.41475 0.0
C910 C 0.28507 0.50621 0.42357 0.0
C911 C 0.23756 0.453 0.42585 0.0
C912 C 0.28683 0.45951 0.41158 0.0
C913 C 0.25286 0.48623 0.42901 0.0
C914 C 0.16234 0.35261 0.36023 0.0
C915 C 0.23885 0.40406 0.41423 0.0
H916 H 0.91617 0.20439 0.38673 0.0
H917 H 1.00886 0.28907 0.38062 0.0
H918 H 0.94976 0.26325 0.38352 0.0
H919 H 1.00226 0.19616 0.38554 0.0
H920 H 0.29637 0.53178 0.42671 0.0
H921 H 0.21272 0.43795 0.43038 0.0
H922 H 0.29961 0.44884 0.40469 0.0
H923 H 0.23981 0.4965 0.43596 0.0
Tb924 Tb 0.79858 0.09858 0.88399 0.0
C925 C 0.90119 0.21493 0.92743 0.0
N926 N 0.86986 0.19415 0.93221 0.0
C927 C 0.8859 0.1889 0.96387 0.0
C928 C 0.92634 0.22268 0.94061 0.0
C929 C 0.86177 0.18186 0.9503 0.0
C930 C 0.91834 0.20924 0.95898 0.0
C931 C 0.94028 0.2485 0.9034 0.0
C932 C 0.90797 0.22753 0.90899 0.0
C933 C 0.96547 0.25619 0.91646 0.0
C934 C 0.95852 0.2433 0.935 0.0
Tb935 Tb 0.83263 0.18635 0.9095 0.0
N936 N 0.88293 0.21956 0.8967 0.0
C937 C 0.9463 0.26155 0.88494 0.0
C938 C 0.88872 0.23413 0.87916 0.0
C939 C 0.92039 0.25461 0.87287 0.0
H940 H 0.83675 0.1668 0.95434 0.0
H941 H 0.92476 0.26562 0.85884 0.0
H942 H 0.82005 0.11212 0.83807 0.0
H943 H 0.68381 0.01581 0.91629 0.0
H944 H 0.86927 0.23124 0.87009 0.0
H945 H 0.97078 0.27771 0.88008 0.0
H946 H 0.74343 0.05081 0.91518 0.0
H947 H 0.87947 0.17882 0.97814 0.0
H948 H 0.99043 0.2723 0.91242 0.0
H949 H 0.97822 0.24945 0.9449 0.0
H950 H 0.79277 0.10408 0.8069 0.0
H951 H 0.93698 0.21458 0.96953 0.0
H952 H 0.65118 1.00964 0.88741 0.0
N953 N 0.77627 0.0913 0.85416 0.0
C954 C 0.74349 0.07434 0.85342 0.0
C955 C 0.77862 0.09592 0.81991 0.0
C956 C 0.72685 0.06863 0.83593 0.0
C957 C 0.79399 0.10078 0.83764 0.0
C958 C 0.74491 0.08036 0.81908 0.0
N959 N 0.74394 0.06543 0.88641 0.0
C960 C 0.72919 0.04841 0.90265 0.0
C961 C 0.69282 0.04076 0.86994 0.0
C962 C 0.7267 0.06059 0.87011 0.0
C963 C 0.67721 0.02515 0.88692 0.0
C964 C 0.69555 0.02857 0.90326 0.0
H965 H 0.73308 0.07648 0.80533 0.0
H966 H 0.67962 0.0459 0.82249 0.0
H967 H 0.64979 0.02147 0.85233 0.0
O968 O 0.80894 0.06577 0.89825 0.0
O969 O 0.76279 0.1116 0.89451 0.0
O970 O 0.78715 0.16762 0.89384 0.0
O971 O 0.80317 0.064 0.86785 0.0
O972 O 0.80639 0.10313 0.91497 0.0
O973 O 0.79837 0.144 0.92684 0.0
O974 O 0.84677 0.23579 0.91085 0.0
O975 O 0.8573 0.15774 0.91153 0.0
O976 O 0.85004 0.13458 0.88211 0.0
O977 O 0.81339 0.2023 0.93128 0.0
O978 O 0.8211 0.18406 0.87859 0.0
O979 O 0.82936 0.14304 0.86789 0.0
C980 C 0.76151 0.1385 0.89376 0.0
C981 C 0.78876 0.01473 0.88329 0.0
C982 C 0.78713 0.96287 0.88726 0.0
C983 C 0.75418 0.94694 0.88211 0.0
C984 C 0.75595 0.99814 0.87826 0.0
C985 C 0.73878 0.96446 0.8778 0.0
C986 C 0.80419 0.99704 0.88793 0.0
C987 C 0.79546 0.11494 0.92818 0.0
C988 C 0.80767 0.05036 0.88266 0.0
C989 C 0.69289 0.0503 0.83576 0.0
C990 C 0.67589 0.03635 0.85275 0.0
C991 C 0.86852 0.14905 0.89693 0.0
C992 C 0.80881 0.24883 0.92376 0.0
C993 C 0.80616 0.29802 0.91711 0.0
C994 C 0.77328 0.28124 0.92227 0.0
C995 C 0.77615 0.23313 0.92929 0.0
C996 C 0.82386 0.28159 0.91795 0.0
C997 C 0.75857 0.24921 0.92845 0.0
C998 C 0.82387 0.16694 0.86461 0.0
C999 C 0.82786 0.23205 0.92513 0.0
H1000 H 0.74032 0.92087 0.8809 0.0
H1001 H 0.74372 1.01115 0.8743 0.0
H1002 H 0.71354 0.95186 0.87371 0.0
H1003 H 0.8295 1.01001 0.89192 0.0
H1004 H 0.75911 0.29323 0.92208 0.0
H1005 H 0.76423 0.2086 0.93459 0.0
H1006 H 0.84927 0.29426 0.91411 0.0
H1007 H 0.73349 0.2369 0.9329 0.0
H1008 H 0.15791 0.89846 0.0979 0.0
H1009 H 0.16647 0.95351 0.09877 0.0
H1010 H 0.16598 0.95107 0.16045 0.0
H1011 H 0.15752 0.8962 0.15967 0.0
H1012 H 0.12679 0.97276 0.14587 0.0
H1013 H 0.24832 0.03857 0.11208 0.0
H1014 H 0.21892 1.00314 0.09951 0.0
H1015 H 0.23225 0.99913 0.12288 0.0
C1016 C 0.16002 0.90983 0.11163 0.0
C1017 C 0.15725 0.89305 0.1287 0.0
C1018 C 0.16501 0.94134 0.11212 0.0
C1019 C 0.16736 0.95667 0.12968 0.0
C1020 C 0.16438 0.93982 0.14673 0.0
H1021 H 0.23108 0.15922 0.15219 0.0
H1022 H 0.22728 0.10643 0.14793 0.0
C1023 C 0.15941 0.90839 0.14625 0.0
C1024 C 0.17139 0.98964 0.13042 0.0
H1025 H 0.22186 0.06845 0.11764 0.0
C1026 C 0.14757 0.99368 0.13968 0.0
C1027 C 0.19878 0.01703 0.12266 0.0
C1028 C 0.22624 0.01452 0.11384 0.0
C1029 C 0.15019 0.02423 0.14125 0.0
C1030 C 0.17699 0.05149 0.13285 0.0
C1031 C 0.20106 0.04753 0.1238 0.0
C1032 C 0.18074 0.08436 0.13379 0.0
C1033 C 0.1246 0.02705 0.15238 0.0
C1034 C 0.1565 0.08994 0.12662 0.0
C1035 C 0.15853 0.11994 0.12917 0.0
C1036 C 0.18515 0.14522 0.13864 0.0
C1037 C 0.21036 0.14025 0.14478 0.0
C1038 C 0.20814 0.11006 0.14241 0.0
H1039 H 0.11137 1.00638 0.16235 0.0
H1040 H 0.13534 0.04982 0.16076 0.0
H1041 H 0.10672 0.02706 0.14226 0.0
H1042 H 0.13561 0.07085 0.11939 0.0
H1043 H 0.13898 0.12322 0.12402 0.0
H1044 H 0.26844 0.14302 0.59898 0.0
H1045 H 0.22624 0.15766 0.60146 0.0
H1046 H 0.22779 0.15076 0.66295 0.0
H1047 H 0.27132 0.13796 0.66055 0.0
H1048 H 0.16549 0.1282 0.61608 0.0
H1049 H 0.24364 0.24103 0.6562 0.0
H1050 H 0.25848 0.2158 0.64682 0.0
H1051 H 0.23628 0.20529 0.6689 0.0
C1052 C 0.25985 0.14475 0.61303 0.0
C1053 C 0.27352 0.13979 0.62957 0.0
C1054 C 0.23553 0.15286 0.61443 0.0
C1055 C 0.22415 0.15591 0.63241 0.0
C1056 C 0.23664 0.14931 0.64893 0.0
H1057 H 0.06287 0.19065 0.65414 0.0
H1058 H 0.09658 0.1654 0.65218 0.0
C1059 C 0.26128 0.14161 0.64753 0.0
C1060 C 0.20011 0.16706 0.63377 0.0
H1061 H 0.18906 0.22756 0.65155 0.0
C1062 C 0.17061 0.14986 0.6239 0.0
C1063 C 0.20675 0.19543 0.64392 0.0
C1064 C 0.23811 0.21565 0.65443 0.0
C1065 C 0.1478 0.16033 0.62386 0.0
C1066 C 0.15467 0.18872 0.6339 0.0
C1067 C 0.1839 0.20575 0.64388 0.0
C1068 C 0.13252 0.20208 0.63367 0.0
C1069 C 0.11681 0.14152 0.61275 0.0
C1070 C 0.14143 0.23089 0.62379 0.0
C1071 C 0.12212 0.24522 0.6247 0.0
C1072 C 0.0936 0.23126 0.63574 0.0
C1073 C 0.08438 0.20191 0.6453 0.0
C1074 C 0.10367 0.18747 0.64426 0.0
H1075 H 0.11662 0.12202 0.604 0.0
H1076 H 0.0961 0.13043 0.62285 0.0
H1077 H 0.11315 0.15799 0.60318 0.0
H1078 H 0.16361 0.24253 0.61553 0.0
H1079 H 0.12973 0.26745 0.61686 0.0
H1080 H 0.88319 0.06679 0.15333 0.0
H1081 H 0.94211 0.10149 0.15215 0.0
H1082 H 0.93237 0.1606 0.10906 0.0
H1083 H 0.87358 0.12585 0.10988 0.0
H1084 H 0.98777 0.12028 0.12083 0.0
H1085 H 0.98352 0.22447 0.1529 0.0
H1086 H 0.94955 0.18375 0.15367 0.0
H1087 H 0.95846 0.20733 0.13216 0.0
C1088 C 0.89355 0.08685 0.14337 0.0
C1089 C 0.8735 0.09365 0.13184 0.0
C1090 C 0.92726 0.10676 0.14279 0.0
C1091 C 0.94161 0.13394 0.13075 0.0
C1092 C 0.92179 0.14013 0.11873 0.0
H1093 H 0.1434 0.26007 0.09939 0.0
H1094 H 0.08595 0.21849 0.10005 0.0
C1095 C 0.88815 0.12025 0.11927 0.0
C1096 C 0.97716 0.15643 0.13115 0.0
H1097 H 0.03435 0.23425 0.14167 0.0
C1098 C 0.998 0.14521 0.12537 0.0
C1099 C 0.9905 0.18881 0.13736 0.0
C1100 C 0.96944 0.20185 0.14455 0.0
C1101 C 0.0318 0.16577 0.12524 0.0
C1102 C 0.04504 0.19844 0.13088 0.0
C1103 C 0.02419 0.20937 0.13708 0.0
C1104 C 0.08041 0.2218 0.13058 0.0
C1105 C 0.05309 0.15224 0.11938 0.0
C1106 C 0.09639 0.23768 0.14745 0.0
C1107 C 0.12908 0.26149 0.14706 0.0
C1108 C 0.14636 0.2702 0.12974 0.0
C1109 C 0.13061 0.25382 0.11292 0.0
C1110 C 0.09787 0.2299 0.11332 0.0
H1111 H 0.04006 0.12542 0.12028 0.0
H1112 H 0.06097 0.1592 0.10434 0.0
H1113 H 0.07504 0.1621 0.12849 0.0
H1114 H 0.08339 0.23196 0.1609 0.0
H1115 H 0.14053 0.27384 0.16023 0.0
H1116 H 0.74522 0.85489 0.61613 0.0
H1117 H 0.76804 0.91349 0.61519 0.0
H1118 H 0.84508 0.92601 0.65264 0.0
H1119 H 0.82196 0.86732 0.6542 0.0
H1120 H 0.78085 0.95538 0.64919 0.0
H1121 H 0.88995 0.98743 0.60511 0.0
H1122 H 0.85487 0.94733 0.60517 0.0
H1123 H 0.88222 0.96067 0.62507 0.0
C1124 C 0.76689 0.86999 0.6243 0.0
C1125 C 0.78164 0.85621 0.6353 0.0
C1126 C 0.78 0.90352 0.62363 0.0
C1127 C 0.80835 0.92405 0.63373 0.0
C1128 C 0.82341 0.91056 0.64454 0.0
H1129 H 0.8768 0.12686 0.66107 0.0
H1130 H 0.85883 0.06907 0.6628 0.0
C1131 C 0.81019 0.87698 0.64534 0.0
C1132 C 0.82144 0.9595 0.63342 0.0
H1133 H 0.88451 0.03065 0.61716 0.0
C1134 C 0.80352 0.9719 0.6422 0.0
C1135 C 0.85092 0.98086 0.62423 0.0
C1136 C 0.87065 0.96857 0.61422 0.0
C1137 C 0.81431 1.00518 0.64209 0.0
C1138 C 0.84399 0.02671 0.63302 0.0
C1139 C 0.86184 0.0142 0.62416 0.0
C1140 C 0.85652 0.06214 0.63211 0.0
C1141 C 0.79348 0.01676 0.65149 0.0
C1142 C 0.86249 0.0778 0.61432 0.0
C1143 C 0.87326 0.11091 0.61332 0.0
C1144 C 0.87803 0.12894 0.63009 0.0
C1145 C 0.87312 0.11351 0.6479 0.0
C1146 C 0.86255 0.08043 0.64891 0.0
H1147 H 0.76769 0.99736 0.65203 0.0
H1148 H 0.80183 0.02408 0.66642 0.0
H1149 H 0.79514 0.0379 0.64392 0.0
H1150 H 0.85828 0.06428 0.60116 0.0
H1151 H 0.87759 0.12237 0.59942 0.0
H1152 H 0.97735 0.83166 0.15711 0.0
H1153 H 0.94047 0.85334 0.15505 0.0
H1154 H 0.87651 0.77345 0.11905 0.0
H1155 H 0.91314 0.75171 0.121 0.0
H1156 H 0.91626 0.87201 0.12418 0.0
H1157 H 0.81697 0.76809 0.16263 0.0
H1158 H 0.8578 0.77517 0.1621 0.0
H1159 H 0.83135 0.75666 0.14201 0.0
C1160 C 0.95565 0.81894 0.14855 0.0
C1161 C 0.94804 0.78973 0.13941 0.0
C1162 C 0.9345 0.83127 0.14746 0.0
C1163 C 0.90532 0.81463 0.13726 0.0
C1164 C 0.8984 0.78626 0.12744 0.0
H1165 H 0.77408 0.88118 0.10118 0.0
H1166 H 0.81527 0.86499 0.10309 0.0
C1167 C 0.91943 0.77389 0.12855 0.0
C1168 C 0.88191 0.82663 0.13702 0.0
H1169 H 0.80393 0.80515 0.14816 0.0
C1170 C 0.89175 0.85746 0.1295 0.0
C1171 C 0.85001 0.80782 0.14419 0.0
C1172 C 0.83842 0.77522 0.15336 0.0
C1173 C 0.87037 0.86966 0.12857 0.0
C1174 C 0.83817 0.85038 0.13514 0.0
C1175 C 0.82853 0.81983 0.143 0.0
C1176 C 0.81404 0.86136 0.13398 0.0
C1177 C 0.88256 0.90325 0.12077 0.0
C1178 C 0.79927 0.86429 0.15067 0.0
C1179 C 0.77565 0.87344 0.14958 0.0
C1180 C 0.76601 0.87929 0.13175 0.0
C1181 C 0.78102 0.87669 0.11509 0.0
C1182 C 0.80472 0.86769 0.11618 0.0
H1183 H 0.90939 0.91783 0.12105 0.0
H1184 H 0.87463 0.90153 0.10568 0.0
H1185 H 0.87261 0.91616 0.12904 0.0
H1186 H 0.80592 0.85933 0.16455 0.0
H1187 H 0.76426 0.87502 0.16263 0.0
H1188 H 0.89759 0.76463 0.66013 0.0
H1189 H 0.95287 0.81061 0.66008 0.0
H1190 H 0.95362 0.80975 0.59837 0.0
H1191 H 0.89847 0.76342 0.59836 0.0
H1192 H 1.00919 0.81601 0.6133 0.0
H1193 H 0.98099 0.9037 0.64746 0.0
H1194 H 0.96779 0.86765 0.66137 0.0
H1195 H 0.94999 0.86527 0.63831 0.0
C1196 C 0.90938 0.7746 0.64656 0.0
C1197 C 0.89372 0.76067 0.62924 0.0
C1198 C 0.94096 0.80083 0.64654 0.0
C1199 C 0.95721 0.81397 0.62921 0.0
C1200 C 0.94151 0.80011 0.6119 0.0
H1201 H 0.13007 1.003 0.62298 0.0
H1202 H 0.07672 0.95559 0.61767 0.0
C1203 C 0.91002 0.77375 0.61191 0.0
C1204 C 0.99068 0.84195 0.62914 0.0
H1205 H 0.03663 0.91958 0.64487 0.0
C1206 C 1.01522 0.83874 0.62011 0.0
C1207 C 0.99841 0.87176 0.63775 0.0
C1208 C 0.97287 0.8775 0.6466 0.0
C1209 C 0.0474 0.86434 0.61979 0.0
C1210 C 0.05534 0.89372 0.62909 0.0
C1211 C 0.03065 0.89702 0.63783 0.0
C1212 C 0.08896 0.92152 0.63005 0.0
C1213 C 0.07238 0.85979 0.60921 0.0
C1214 C 0.11388 0.91814 0.63839 0.0
C1215 C 0.14456 0.94522 0.64119 0.0
C1216 C 0.15061 0.97619 0.63603 0.0
C1217 C 0.12597 0.97939 0.62716 0.0
C1218 C 0.09551 0.95234 0.62414 0.0
H1219 H 0.06106 0.84057 0.59817 0.0
H1220 H 0.09057 0.88255 0.60216 0.0
H1221 H 0.08512 0.85235 0.6195 0.0
H1222 H 0.10928 0.89481 0.6435 0.0
H1223 H 0.163 0.94217 0.64831 0.0
H1224 H 0.12709 0.86103 0.42307 0.0
H1225 H 0.06965 0.84491 0.42096 0.0
H1226 H 0.0786 0.85834 0.35984 0.0
H1227 H 0.13573 0.87377 0.36171 0.0
H1228 H 0.04187 0.88696 0.39213 0.0
H1229 H 1.00241 0.75675 0.38147 0.0
H1230 H 0.03494 0.78132 0.39768 0.0
H1231 H 0.04087 0.7882 0.37243 0.0
C1232 C 0.11682 0.86052 0.40918 0.0
C1233 C 0.13592 0.86838 0.39255 0.0
C1234 C 0.0841 0.85154 0.40803 0.0
C1235 C 0.07003 0.85057 0.39025 0.0
C1236 C 0.08913 0.85912 0.37369 0.0
H1237 H 0.87068 0.7585 0.35352 0.0
H1238 H 0.92932 0.78247 0.35618 0.0
C1239 C 0.12179 0.86798 0.37482 0.0
C1240 C 0.035 0.83919 0.38878 0.0
H1241 H 0.96204 0.77095 0.38201 0.0
C1242 C 0.02428 0.86163 0.38995 0.0
C1243 C 1.01235 0.80625 0.3857 0.0
C1244 C 0.02294 0.78149 0.38417 0.0
C1245 C 0.99129 0.85187 0.38801 0.0
C1246 C 0.96845 0.81867 0.38526 0.0
C1247 C 0.97941 0.79636 0.38411 0.0
C1248 C 0.93312 0.80628 0.3832 0.0
C1249 C 0.98144 0.87734 0.38837 0.0
C1250 C 0.91559 0.8117 0.39746 0.0
C1251 C 0.88204 0.79829 0.39583 0.0
C1252 C 0.86533 0.77864 0.38012 0.0
C1253 C 0.8829 0.77332 0.36586 0.0
C1254 C 0.91641 0.78707 0.36736 0.0
H1255 H 1.00205 0.90163 0.38477 0.0
H1256 H 0.96142 0.87149 0.37818 0.0
H1257 H 0.97305 0.87865 0.40297 0.0
H1258 H 0.92767 0.82562 0.41009 0.0
H1259 H 0.86903 0.80246 0.40713 0.0
H1260 H 0.10325 0.8751 0.83253 0.0
H1261 H 0.1429 0.9318 0.83879 0.0
H1262 H 0.12592 0.91506 0.89939 0.0
H1263 H 0.08706 0.85808 0.89331 0.0
H1264 H 0.13451 0.97863 0.85664 0.0
H1265 H 0.2241 0.95957 0.89644 0.0
H1266 H 0.19178 0.92792 0.8827 0.0
H1267 H 0.18389 0.938 0.90612 0.0
C1268 C 0.10824 0.88331 0.84722 0.0
C1269 C 0.09198 0.86181 0.86241 0.0
C1270 C 0.1308 0.91585 0.85077 0.0
C1271 C 0.13784 0.92769 0.86958 0.0
C1272 C 0.12144 0.90643 0.88477 0.0
H1273 H 0.26613 0.11872 0.91819 0.0
H1274 H 0.2257 0.0616 0.91311 0.0
C1275 C 0.09886 0.87387 0.88124 0.0
C1276 C 0.1617 0.96243 0.87321 0.0
H1277 H 0.23293 0.01302 0.89586 0.0
C1278 C 0.1561 0.98613 0.86515 0.0
C1279 C 0.18986 0.97231 0.88438 0.0
C1280 C 0.19802 0.94817 0.89278 0.0
C1281 C 0.17757 0.0193 0.86812 0.0
C1282 C 0.20581 0.02917 0.87919 0.0
C1283 C 0.21132 1.00549 0.88737 0.0
C1284 C 0.23011 0.06392 0.88225 0.0
C1285 C 0.16946 0.04347 0.8597 0.0
C1286 C 0.24628 0.08422 0.86664 0.0
C1287 C 0.26933 0.11679 0.86954 0.0
C1288 C 0.27703 0.12962 0.88812 0.0
C1289 C 0.26084 0.10936 0.90373 0.0
C1290 C 0.23772 0.07678 0.90083 0.0
H1291 H 0.1433 0.03218 0.85629 0.0
H1292 H 0.17615 0.06398 0.86964 0.0
H1293 H 0.18322 0.05324 0.8462 0.0
H1294 H 0.2414 0.07475 0.8522 0.0
H1295 H 0.28171 0.13176 0.85726 0.0
H1296 H 0.14837 0.25931 0.35874 0.0
H1297 H 0.16327 0.21721 0.35657 0.0
H1298 H 0.15595 0.20607 0.41793 0.0
H1299 H 0.1405 0.24772 0.42012 0.0
H1300 H 0.21734 0.22073 0.37291 0.0
H1301 H 0.10678 0.11246 0.39956 0.0
H1302 H 0.10699 0.14871 0.39196 0.0
H1303 H 0.12173 0.14668 0.41528 0.0
C1304 C 0.14915 0.24728 0.37171 0.0
C1305 C 0.14334 0.25676 0.38961 0.0
C1306 C 0.15787 0.22341 0.37047 0.0
C1307 C 0.16041 0.20823 0.38706 0.0
C1308 C 0.15351 0.21692 0.4049 0.0
H1309 H 0.27644 0.11676 0.40178 0.0
H1310 H 0.25253 0.15156 0.40309 0.0
C1311 C 0.14492 0.24088 0.40615 0.0
C1312 C 0.1726 0.18513 0.38585 0.0
H1313 H 0.15428 0.1081 0.39696 0.0
C1314 C 0.20348 0.19606 0.37808 0.0
C1315 C 0.15438 0.15284 0.39243 0.0
C1316 C 0.1205 0.13931 0.40012 0.0
C1317 C 0.21692 0.17583 0.37708 0.0
C1318 C 0.19917 0.14388 0.38426 0.0
C1319 C 0.16798 0.13268 0.39164 0.0
C1320 C 0.21269 0.12182 0.38421 0.0
C1321 C 0.2499 0.18877 0.36814 0.0
C1322 C 0.19762 0.09291 0.3737 0.0
C1323 C 0.21124 0.07289 0.37293 0.0
C1324 C 0.24016 0.08137 0.38271 0.0
C1325 C 0.25455 0.10984 0.39374 0.0
C1326 C 0.24091 0.12977 0.39451 0.0
H1327 H 0.25644 0.21019 0.35896 0.0
H1328 H 0.2683 0.19629 0.37963 0.0
H1329 H 0.25101 0.16997 0.35937 0.0
H1330 H 0.17573 0.08623 0.36572 0.0
H1331 H 0.19964 0.05128 0.36421 0.0
H1332 H 0.17733 0.28199 0.91145 0.0
H1333 H 0.11894 0.26023 0.91342 0.0
H1334 H 0.10326 0.18427 0.87413 0.0
H1335 H 0.16175 0.20638 0.87155 0.0
H1336 H 0.07759 0.25124 0.88003 0.0
H1337 H 0.04062 0.13804 0.92092 0.0
H1338 H 0.08145 0.17195 0.92138 0.0
H1339 H 0.06725 0.14603 0.90084 0.0
C1340 C 0.16157 0.26071 0.90314 0.0
C1341 C 0.17445 0.24613 0.89123 0.0
C1342 C 0.12815 0.24819 0.9044 0.0
C1343 C 0.10677 0.22055 0.89401 0.0
C1344 C 0.11933 0.20539 0.88247 0.0
H1345 H 0.90666 0.16078 0.8655 0.0
H1346 H 0.96408 0.17708 0.86457 0.0
C1347 C 0.15282 0.21804 0.88108 0.0
C1348 C 0.0715 0.20877 0.89447 0.0
H1349 H 0.99877 0.14633 0.90943 0.0
C1350 C 0.06032 0.22831 0.88646 0.0
C1351 C 0.0491 0.17895 0.90295 0.0
C1352 C 0.06004 0.15749 0.91216 0.0
C1353 C 0.02731 0.21877 0.88657 0.0
C1354 C 1.00474 0.18871 0.89484 0.0
C1355 C 1.016 0.16929 0.90303 0.0
C1356 C 0.96944 0.17724 0.89533 0.0
C1357 C 1.01708 0.24126 0.878 0.0
C1358 C 0.95296 0.17071 0.91288 0.0
C1359 C 0.92001 0.16095 0.91342 0.0
C1360 C 0.90294 0.15769 0.89643 0.0
C1361 C 0.91921 0.16325 0.87885 0.0
C1362 C 0.95211 0.17287 0.87831 0.0
H1363 H 0.03724 0.26672 0.87796 0.0
H1364 H 1.00955 0.23407 0.86295 0.0
H1365 H 0.99637 0.24005 0.88587 0.0
H1366 H 0.96573 0.17367 0.9262 0.0
H1367 H 0.9079 0.15613 0.92714 0.0
H1368 H 0.90159 0.16071 0.40804 0.0
H1369 H 0.86654 0.10201 0.4095 0.0
H1370 H 0.9302 0.08995 0.37099 0.0
H1371 H 0.96494 0.1487 0.36885 0.0
H1372 H 0.83747 0.0598 0.37468 0.0
H1373 H 0.91468 0.02905 0.41948 0.0
H1374 H 0.91856 0.06867 0.4198 0.0
H1375 H 0.93363 0.05663 0.39982 0.0
C1376 C 0.90813 0.14569 0.39975 0.0
C1377 C 0.93614 0.15963 0.38826 0.0
C1378 C 0.88815 0.11211 0.40073 0.0
C1379 C 0.89593 0.0917 0.39046 0.0
C1380 C 0.92403 0.10532 0.37922 0.0
H1381 H 0.76247 0.88846 0.3637 0.0
H1382 H 0.8031 0.94599 0.36186 0.0
C1383 C 0.94392 0.13895 0.37809 0.0
C1384 C 0.87379 0.05622 0.39089 0.0
H1385 H 0.86591 0.98552 0.40781 0.0
C1386 C 0.84365 0.0435 0.38189 0.0
C1387 C 0.88196 0.03515 0.40037 0.0
C1388 C 0.91387 0.04787 0.41055 0.0
C1389 C 0.82134 1.01017 0.38208 0.0
C1390 C 0.8295 0.98892 0.39147 0.0
C1391 C 0.85969 1.00175 0.40055 0.0
C1392 C 0.80663 0.95347 0.39251 0.0
C1393 C 0.78907 0.99823 0.37247 0.0
C1394 C 0.79613 0.93817 0.41035 0.0
C1395 C 0.77329 0.90519 0.41143 0.0
C1396 C 0.76035 0.88692 0.39469 0.0
C1397 C 0.77187 0.90194 0.37685 0.0
C1398 C 0.79485 0.93489 0.37578 0.0
H1399 H 0.78269 0.01759 0.37138 0.0
H1400 H 0.79018 0.99013 0.35776 0.0
H1401 H 0.76956 0.97751 0.38032 0.0
H1402 H 0.80503 0.95191 0.42346 0.0
H1403 H 0.76537 0.89408 0.42537 0.0
H1404 H 0.85828 0.74319 0.87165 0.0
H1405 H 0.84689 0.78755 0.87182 0.0
H1406 H 0.90925 0.82913 0.92075 0.0
H1407 H 0.91927 0.78342 0.92124 0.0
H1408 H 0.85494 0.82998 0.92595 0.0
H1409 H 0.90003 0.87827 0.85377 0.0
H1410 H 0.87039 0.83617 0.85254 0.0
H1411 H 0.90796 0.84891 0.86495 0.0
C1412 C 0.8696 0.7618 0.88244 0.0
C1413 C 0.88938 0.75968 0.89654 0.0
C1414 C 0.86344 0.78746 0.88236 0.0
C1415 C 0.87766 0.81216 0.89607 0.0
C1416 C 0.89811 0.8105 0.90995 0.0
H1417 H 0.84986 0.97868 0.87886 0.0
H1418 H 0.87521 0.94573 0.88351 0.0
C1419 C 0.90404 0.78454 0.91014 0.0
C1420 C 0.86968 0.83861 0.89639 0.0
H1421 H 0.86254 0.8925 0.86759 0.0
C1422 C 0.85709 0.84402 0.91326 0.0
C1423 C 0.873 0.8575 0.88 0.0
C1424 C 0.88893 0.85516 0.86188 0.0
C1425 C 0.84649 0.86669 0.91395 0.0
C1426 C 0.84738 0.88368 0.8971 0.0
C1427 C 0.86131 0.87926 0.88048 0.0
C1428 C 0.83294 0.9051 0.89608 0.0
C1429 C 0.83475 0.87229 0.93283 0.0
C1430 C 0.80077 0.8936 0.90173 0.0
C1431 C 0.78645 0.91278 0.89958 0.0
C1432 C 0.80357 0.94372 0.89118 0.0
C1433 C 0.83593 0.95531 0.88566 0.0
C1434 C 0.85042 0.93627 0.88813 0.0
H1435 H 0.84672 0.86754 0.94502 0.0
H1436 H 0.83933 0.89741 0.93405 0.0
H1437 H 0.80836 0.85529 0.93416 0.0
H1438 H 0.78631 0.86938 0.90739 0.0
H1439 H 0.76171 0.90305 0.90433 0.0
H1440 H 0.15985 0.72587 0.09853 0.0
H1441 H 0.15939 0.67452 0.09712 0.0
H1442 H 0.12202 0.65247 0.15469 0.0
H1443 H 0.12318 0.7046 0.15631 0.0
H1444 H 0.17762 0.64307 0.14629 0.0
H1445 H 0.07793 0.58269 0.09374 0.0
H1446 H 0.10895 0.62265 0.08698 0.0
H1447 H 0.08427 0.61729 0.1076 0.0
C1448 C 0.15177 0.71021 0.11095 0.0
C1449 C 0.14194 0.71943 0.12761 0.0
C1450 C 0.15119 0.6807 0.11005 0.0
C1451 C 0.14058 0.65955 0.12575 0.0
C1452 C 0.13029 0.66842 0.14239 0.0
H1453 H 0.1022 0.46123 0.11591 0.0
H1454 H 0.09941 0.50958 0.12384 0.0
C1455 C 0.13071 0.69804 0.14326 0.0
C1456 C 0.1409 0.62855 0.12466 0.0
H1457 H 0.10982 0.55804 0.09938 0.0
C1458 C 0.16259 0.6243 0.13618 0.0
C1459 C 0.12116 0.60398 0.11156 0.0
C1460 C 0.09653 0.60661 0.09936 0.0
C1461 C 0.1657 0.59656 0.13453 0.0
C1462 C 0.14687 0.57256 0.12085 0.0
C1463 C 0.1245 0.57647 0.10976 0.0
C1464 C 0.14976 0.54316 0.11769 0.0
C1465 C 0.18898 0.59312 0.14754 0.0
C1466 C 0.17912 0.5457 0.11178 0.0
C1467 C 0.1808 0.51794 0.1072 0.0
C1468 C 0.15305 0.48706 0.10823 0.0
C1469 C 0.12396 0.48461 0.11469 0.0
C1470 C 0.12232 0.51228 0.11929 0.0
H1471 H 0.19458 0.60845 0.1605 0.0
H1472 H 0.17912 0.56759 0.15206 0.0
H1473 H 0.21198 0.60091 0.13975 0.0
H1474 H 0.20052 0.56923 0.11005 0.0
H1475 H 0.20349 0.52078 0.10207 0.0
H1476 H 0.69226 0.17882 0.59239 0.0
H1477 H 0.63362 0.15642 0.59524 0.0
H1478 H 0.6487 0.21866 0.64342 0.0
H1479 H 0.70707 0.24084 0.64086 0.0
H1480 H 0.58815 0.12623 0.62699 0.0
H1481 H 0.59961 0.24268 0.6036 0.0
H1482 H 0.63163 0.23345 0.6004 0.0
H1483 H 0.62492 0.24574 0.62343 0.0
C1484 C 0.68308 0.18736 0.60379 0.0
C1485 C 0.7045 0.212 0.61622 0.0
C1486 C 0.64955 0.17459 0.60537 0.0
C1487 C 0.63681 0.18624 0.61935 0.0
C1488 C 0.658 0.20972 0.6323 0.0
H1489 H 0.43531 0.11762 0.65236 0.0
H1490 H 0.49095 0.12736 0.65136 0.0
C1491 C 0.69142 0.22246 0.63076 0.0
C1492 C 0.60163 0.17523 0.61986 0.0
H1493 H 0.54812 0.20232 0.61428 0.0
C1494 C 0.57931 0.14279 0.62419 0.0
C1495 C 0.59012 0.19679 0.616 0.0
C1496 C 0.61271 0.23155 0.61043 0.0
C1497 C 0.54582 0.13148 0.625 0.0
C1498 C 0.53443 0.15328 0.62155 0.0
C1499 C 0.5568 0.18562 0.61705 0.0
C1500 C 0.49943 0.14325 0.62182 0.0
C1501 C 0.52289 0.09622 0.62916 0.0
C1502 C 0.48547 0.1485 0.60555 0.0
C1503 C 0.45396 0.14316 0.60615 0.0
C1504 C 0.43562 0.13266 0.62307 0.0
C1505 C 0.44885 0.12569 0.63911 0.0
C1506 C 0.48062 0.13118 0.63853 0.0
H1507 H 0.53447 0.08132 0.62676 0.0
H1508 H 0.51521 0.09348 0.64436 0.0
H1509 H 0.50091 0.08669 0.6201 0.0
H1510 H 0.49934 0.15761 0.59247 0.0
H1511 H 0.4442 0.14805 0.59341 0.0
H1512 H 0.52905 0.6849 0.09652 0.0
H1513 H 0.49232 0.62651 0.10025 0.0
H1514 H 0.44606 0.64447 0.14786 0.0
H1515 H 0.48246 0.70266 0.1442 0.0
H1516 H 0.47654 0.58161 0.13088 0.0
H1517 H 0.3718 0.59518 0.11007 0.0
H1518 H 0.41307 0.62714 0.10688 0.0
H1519 H 0.39429 0.6197 0.13006 0.0
C1520 C 0.51138 0.67638 0.10797 0.0
C1521 C 0.5084 0.69853 0.11988 0.0
C1522 C 0.49035 0.64299 0.11006 0.0
C1523 C 0.46599 0.63108 0.1241 0.0
C1524 C 0.46415 0.65306 0.13665 0.0
H1525 H 0.33145 0.4283 0.15582 0.0
H1526 H 0.37775 0.48371 0.15547 0.0
C1527 C 0.48499 0.68636 0.13452 0.0
C1528 C 0.4413 0.596 0.12496 0.0
H1529 H 0.36019 0.54348 0.12056 0.0
C1530 C 0.45109 0.57321 0.12862 0.0
C1531 C 0.40811 0.58498 0.12179 0.0
C1532 C 0.39612 0.60794 0.11681 0.0
C1533 C 0.42852 0.53978 0.12937 0.0
C1534 C 0.39527 0.5289 0.12655 0.0
C1535 C 0.38562 0.55175 0.12284 0.0
C1536 C 0.36993 0.49397 0.1264 0.0
C1537 C 0.44051 0.51637 0.13269 0.0
C1538 C 0.35027 0.48106 0.11019 0.0
C1539 C 0.3238 0.44968 0.11042 0.0
C1540 C 0.31618 0.43024 0.12689 0.0
C1541 C 0.33675 0.44252 0.14287 0.0
C1542 C 0.36329 0.47421 0.14266 0.0
H1543 H 0.46694 0.52776 0.13009 0.0
H1544 H 0.4357 0.50795 0.14776 0.0
H1545 H 0.42769 0.49487 0.12328 0.0
H1546 H 0.3549 0.49567 0.09744 0.0
H1547 H 0.30875 0.44097 0.09777 0.0
H1548 H 0.87442 0.52739 0.60126 0.0
H1549 H 0.89619 0.49054 0.60374 0.0
H1550 H 0.82031 0.43093 0.64335 0.0
H1551 H 0.79884 0.46775 0.64134 0.0
H1552 H 0.91124 0.46153 0.64168 0.0
H1553 H 0.81507 0.37567 0.59237 0.0
H1554 H 0.8288 0.41847 0.59249 0.0
H1555 H 0.80276 0.39295 0.61119 0.0
C1556 C 0.86275 0.5068 0.6108 0.0
C1557 C 0.83459 0.50035 0.6209 0.0
C1558 C 0.87519 0.48574 0.61216 0.0
C1559 C 0.85972 0.45793 0.62363 0.0
C1560 C 0.83249 0.45217 0.63433 0.0
H1561 H 0.8525 0.28124 0.64914 0.0
H1562 H 0.84857 0.33011 0.64665 0.0
C1563 C 0.82011 0.47314 0.63302 0.0
C1564 C 0.87019 0.43343 0.6235 0.0
H1565 H 0.84641 0.35701 0.60804 0.0
C1566 C 0.89732 0.43877 0.6342 0.0
C1567 C 0.85203 0.40386 0.61366 0.0
C1568 C 0.82313 0.39726 0.60164 0.0
C1569 C 0.90582 0.41452 0.63597 0.0
C1570 C 0.88685 0.38451 0.62668 0.0
C1571 C 0.86061 0.37984 0.61537 0.0
C1572 C 0.89194 0.35656 0.62965 0.0
C1573 C 0.93415 0.42051 0.64831 0.0
C1574 C 0.91795 0.35533 0.62112 0.0
C1575 C 0.92018 0.32715 0.62242 0.0
C1576 C 0.8964 0.29983 0.63225 0.0
C1577 C 0.87113 0.30174 0.64135 0.0
C1578 C 0.86886 0.32971 0.63999 0.0
H1579 H 0.94493 0.44416 0.65579 0.0
H1580 H 0.92645 0.40097 0.65913 0.0
H1581 H 0.95306 0.42006 0.63928 0.0
H1582 H 0.93585 0.37568 0.61291 0.0
H1583 H 0.93968 0.32631 0.61506 0.0
H1584 H 0.58517 0.84862 0.1502 0.0
H1585 H 0.53135 0.84209 0.1466 0.0
H1586 H 0.56976 0.92292 0.10763 0.0
H1587 H 0.62386 0.92929 0.11096 0.0
H1588 H 0.50737 0.88455 0.15315 0.0
H1589 H 0.49695 0.84877 0.07664 0.0
H1590 H 0.52791 0.85032 0.09213 0.0
H1591 H 0.53161 0.887 0.08271 0.0
C1592 C 0.58226 0.8652 0.14095 0.0
C1593 C 0.6088 0.88939 0.13078 0.0
C1594 C 0.55145 0.86147 0.13895 0.0
C1595 C 0.54631 0.88165 0.12661 0.0
C1596 C 0.57299 0.90668 0.11697 0.0
H1597 H 0.359 0.86001 0.09152 0.0
H1598 H 0.41731 0.8822 0.09633 0.0
C1599 C 0.60398 0.91053 0.11905 0.0
C1600 C 0.51282 0.87559 0.12359 0.0
H1601 H 0.45253 0.85018 0.09025 0.0
C1602 C 0.49546 0.87727 0.13936 0.0
C1603 C 0.4972 0.86604 0.1056 0.0
C1604 C 0.51417 0.86262 0.08829 0.0
C1605 C 0.46295 0.86939 0.13769 0.0
C1606 C 0.44707 0.859 0.11983 0.0
C1607 C 0.46467 0.85819 0.10393 0.0
C1608 C 0.41174 0.84688 0.11763 0.0
C1609 C 0.44589 0.87227 0.15511 0.0
C1610 C 0.38913 0.81966 0.12796 0.0
C1611 C 0.35591 0.80699 0.12525 0.0
C1612 C 0.34435 0.82111 0.11206 0.0
C1613 C 0.36702 0.84872 0.10192 0.0
C1614 C 0.40036 0.86131 0.10457 0.0
H1615 H 0.46334 0.88943 0.16572 0.0
H1616 H 0.42862 0.88047 0.15116 0.0
H1617 H 0.43213 0.84826 0.1621 0.0
H1618 H 0.39719 0.80772 0.13787 0.0
H1619 H 0.33922 0.78592 0.13345 0.0
H1620 H 0.73729 0.584 0.59967 0.0
H1621 H 0.69 0.53029 0.59859 0.0
H1622 H 0.65997 0.5457 0.65394 0.0
H1623 H 0.70903 0.59918 0.6557 0.0
H1624 H 0.65443 0.48823 0.65294 0.0
H1625 H 0.59823 0.50031 0.58714 0.0
H1626 H 0.63915 0.51093 0.58215 0.0
H1627 H 0.63097 0.53484 0.5988 0.0
C1628 C 0.72078 0.576 0.61171 0.0
C1629 C 0.72735 0.59568 0.62795 0.0
C1630 C 0.6933 0.54538 0.6109 0.0
C1631 C 0.67093 0.53393 0.62601 0.0
C1632 C 0.67676 0.55398 0.64204 0.0
H1633 H 0.49852 0.34524 0.60398 0.0
H1634 H 0.53326 0.40235 0.61143 0.0
C1635 C 0.7047 0.58463 0.64298 0.0
C1636 C 0.64294 0.50022 0.62543 0.0
H1637 H 0.58467 0.44559 0.59554 0.0
C1638 C 0.6388 0.47905 0.64053 0.0
C1639 C 0.62187 0.48814 0.60949 0.0
C1640 C 0.62257 0.50991 0.59362 0.0
C1641 C 0.61551 0.44595 0.63964 0.0
C1642 C 0.59658 0.43332 0.62286 0.0
C1643 C 0.59951 0.45487 0.60826 0.0
C1644 C 0.5745 0.39791 0.61981 0.0
C1645 C 0.61146 0.42505 0.65678 0.0
C1646 C 0.58583 0.37602 0.622 0.0
C1647 C 0.56565 0.34305 0.61827 0.0
C1648 C 0.53377 0.33107 0.61169 0.0
C1649 C 0.52257 0.35314 0.60937 0.0
C1650 C 0.54262 0.38605 0.61345 0.0
H1651 H 0.61784 0.43936 0.67022 0.0
H1652 H 0.58629 0.40458 0.65806 0.0
H1653 H 0.62806 0.41522 0.65541 0.0
H1654 H 0.61055 0.38445 0.6263 0.0
H1655 H 0.57522 0.32701 0.62054 0.0
H1656 H 0.32461 0.90515 0.36463 0.0
H1657 H 0.37637 0.90561 0.36518 0.0
H1658 H 0.35996 0.87525 0.42421 0.0
H1659 H 0.30912 0.87563 0.42392 0.0
H1660 H 0.42263 0.92485 0.41702 0.0
H1661 H 0.38504 0.82346 0.36559 0.0
H1662 H 0.38065 0.85687 0.3576 0.0
H1663 H 0.35641 0.83219 0.37712 0.0
C1664 C 0.33227 0.8989 0.37775 0.0
C1665 C 0.31252 0.88981 0.39414 0.0
C1666 C 0.36165 0.89884 0.37799 0.0
C1667 C 0.37173 0.88979 0.39463 0.0
C1668 C 0.35258 0.88199 0.41116 0.0
H1669 H 0.50754 0.82473 0.41874 0.0
H1670 H 0.45994 0.82921 0.41053 0.0
C1671 C 0.32339 0.88204 0.41093 0.0
C1672 C 0.40214 0.88836 0.39518 0.0
H1673 H 0.43795 0.84675 0.37804 0.0
C1674 C 0.42612 0.90799 0.40837 0.0
C1675 C 0.40639 0.86591 0.38414 0.0
C1676 C 0.38073 0.84316 0.3704 0.0
C1677 C 0.45406 0.90566 0.41097 0.0
C1678 C 0.45857 0.8835 0.39976 0.0
C1679 C 0.43466 0.86394 0.38648 0.0
C1680 C 0.48742 0.87961 0.40228 0.0
C1681 C 0.47789 0.92613 0.42623 0.0
C1682 C 0.51871 0.90599 0.39961 0.0
C1683 C 0.54583 0.9035 0.40436 0.0
C1684 C 0.5423 0.87444 0.41167 0.0
C1685 C 0.51104 0.84738 0.41309 0.0
C1686 C 0.48384 0.84997 0.40846 0.0
H1687 H 0.467 0.93547 0.43668 0.0
H1688 H 0.48703 0.91215 0.43415 0.0
H1689 H 0.49881 0.9472 0.41942 0.0
H1690 H 0.52214 0.92885 0.39439 0.0
H1691 H 0.56962 0.92463 0.40281 0.0
H1692 H 0.70387 0.45084 0.90626 0.0
H1693 H 0.6461 0.41282 0.90214 0.0
H1694 H 0.62484 0.4885 0.91469 0.0
H1695 H 0.68256 0.52667 0.91951 0.0
H1696 H 0.59163 0.40516 0.93397 0.0
H1697 H 0.58207 0.43856 0.85882 0.0
H1698 H 0.61919 0.44211 0.86781 0.0
H1699 H 0.60651 0.4696 0.87592 0.0
C1700 C 0.68701 0.45947 0.90838 0.0
C1701 C 0.69813 0.49198 0.91331 0.0
C1702 C 0.65396 0.43768 0.90588 0.0
C1703 C 0.63124 0.44786 0.90809 0.0
C1704 C 0.64204 0.48021 0.91284 0.0
H1705 H 0.41969 0.31974 0.9149 0.0
H1706 H 0.47431 0.36664 0.91867 0.0
C1707 C 0.67512 0.50205 0.91545 0.0
C1708 C 0.59622 0.42442 0.90561 0.0
H1709 H 0.53512 0.39591 0.87274 0.0
C1710 C 0.57913 0.40327 0.92067 0.0
C1711 C 0.58012 0.42201 0.88821 0.0
C1712 C 0.5977 0.44415 0.87165 0.0
C1713 C 0.54637 0.37939 0.91869 0.0
C1714 C 0.53026 0.37673 0.9012 0.0
C1715 C 0.54738 0.39813 0.88619 0.0
C1716 C 0.49647 0.35031 0.89777 0.0
C1717 C 0.52951 0.35659 0.93514 0.0
C1718 C 0.49053 0.32622 0.88429 0.0
C1719 C 0.45949 0.29954 0.88214 0.0
C1720 C 0.43358 0.29652 0.89328 0.0
C1721 C 0.43914 0.32146 0.90609 0.0
C1722 C 0.47038 0.3481 0.90836 0.0
H1723 H 0.5469 0.35752 0.94602 0.0
H1724 H 0.51296 0.36342 0.94221 0.0
H1725 H 0.51476 0.33133 0.93001 0.0
H1726 H 0.51021 0.32743 0.87591 0.0
H1727 H 0.45592 0.28081 0.87205 0.0
H1728 H 0.25394 0.69592 0.38271 0.0
H1729 H 0.23288 0.63806 0.37796 0.0
H1730 H 0.16206 0.61657 0.4223 0.0
H1731 H 0.18273 0.67448 0.42689 0.0
H1732 H 0.23274 0.59602 0.40247 0.0
H1733 H 0.10602 0.554 0.38168 0.0
H1734 H 0.1365 0.59628 0.38233 0.0
H1735 H 0.1166 0.57537 0.404 0.0
C1736 C 0.23377 0.67886 0.39139 0.0
C1737 C 0.22006 0.68984 0.40521 0.0
C1738 C 0.22164 0.64576 0.3886 0.0
C1739 C 0.19553 0.62278 0.39956 0.0
C1740 C 0.18161 0.63367 0.41328 0.0
H1741 H 0.15981 0.4312 0.42511 0.0
H1742 H 0.17135 0.48705 0.42532 0.0
C1743 C 0.19357 0.66683 0.41597 0.0
C1744 C 0.18464 0.5877 0.39758 0.0
H1745 H 0.11832 0.51286 0.39066 0.0
C1746 C 0.20775 0.57794 0.39971 0.0
C1747 C 0.1521 0.56398 0.39375 0.0
C1748 C 0.12644 0.57293 0.3901 0.0
C1749 C 0.19919 0.54527 0.39863 0.0
C1750 C 0.16639 0.52139 0.39582 0.0
C1751 C 0.14336 0.53111 0.39309 0.0
C1752 C 0.15577 0.4863 0.39617 0.0
C1753 C 0.22553 0.53673 0.40053 0.0
C1754 C 0.14148 0.46662 0.38005 0.0
C1755 C 0.13479 0.43445 0.3799 0.0
C1756 C 0.14238 0.42157 0.39587 0.0
C1757 C 0.15465 0.44073 0.41237 0.0
C1758 C 0.16121 0.47267 0.41253 0.0
H1759 H 0.24949 0.55732 0.39637 0.0
H1760 H 0.22708 0.53087 0.4157 0.0
H1761 H 0.22049 0.51548 0.39162 0.0
H1762 H 0.13673 0.47653 0.36733 0.0
H1763 H 0.12516 0.42023 0.36701 0.0
H1764 H 0.71434 0.11747 0.8663 0.0
H1765 H 0.66606 0.1237 0.86663 0.0
H1766 H 0.69047 0.16349 0.92355 0.0
H1767 H 0.73793 0.15629 0.92335 0.0
H1768 H 0.61072 0.10309 0.89772 0.0
H1769 H 0.691 0.23494 0.88527 0.0
H1770 H 0.7019 0.20529 0.87809 0.0
H1771 H 0.704 0.21622 0.90276 0.0
C1772 C 0.70878 0.12671 0.87902 0.0
C1773 C 0.72983 0.13678 0.89477 0.0
C1774 C 0.68136 0.1304 0.87918 0.0
C1775 C 0.67486 0.14437 0.89505 0.0
C1776 C 0.69512 0.15289 0.91111 0.0
H1777 H 0.51657 0.17478 0.92911 0.0
H1778 H 0.55371 0.15374 0.92509 0.0
C1779 C 0.72228 0.14902 0.91097 0.0
C1780 C 0.64859 0.15252 0.89448 0.0
H1781 H 0.63657 0.21719 0.89283 0.0
C1782 C 0.61623 0.12797 0.89651 0.0
C1783 C 0.65579 0.18492 0.8926 0.0
C1784 C 0.68999 0.21199 0.8894 0.0
C1785 C 0.59093 0.13514 0.89723 0.0
C1786 C 0.59831 0.16782 0.89629 0.0
C1787 C 0.63071 0.19216 0.89372 0.0
C1788 C 0.5732 0.17771 0.89798 0.0
C1789 C 0.55658 0.10756 0.8987 0.0
C1790 C 0.57173 0.19845 0.88425 0.0
C1791 C 0.55095 0.21091 0.88673 0.0
C1792 C 0.53091 0.20283 0.90294 0.0
C1793 C 0.53142 0.18114 0.91636 0.0
C1794 C 0.55259 0.16897 0.914 0.0
H1795 H 0.55424 0.08474 0.89306 0.0
H1796 H 0.54921 0.10353 0.91396 0.0
H1797 H 0.53967 0.11291 0.89076 0.0
H1798 H 0.58724 0.20562 0.87176 0.0
H1799 H 0.55095 0.22738 0.87606 0.0
H1800 H 0.35271 0.48015 0.41639 0.0
H1801 H 0.40992 0.5168 0.40959 0.0
H1802 H 0.38926 0.59247 0.39541 0.0
H1803 H 0.33182 0.55546 0.40089 0.0
H1804 H 0.43362 0.59404 0.37162 0.0
H1805 H 0.46884 0.58557 0.44614 0.0
H1806 H 0.44909 0.5476 0.43377 0.0
H1807 H 0.4272 0.56832 0.43897 0.0
C1808 C 0.36013 0.50438 0.41147 0.0
C1809 C 0.33742 0.51482 0.40947 0.0
C1810 C 0.39306 0.52551 0.40785 0.0
C1811 C 0.40418 0.55776 0.40248 0.0
C1812 C 0.38145 0.56785 0.39973 0.0
H1813 H 0.5837 0.72803 0.4219 0.0
H1814 H 0.53032 0.68047 0.42156 0.0
C1815 C 0.34853 0.54667 0.40311 0.0
C1816 C 0.43943 0.58145 0.40033 0.0
H1817 H 0.51087 0.61817 0.42488 0.0
C1818 C 0.45057 0.5992 0.38322 0.0
C1819 C 0.46159 0.58841 0.41552 0.0
C1820 C 0.45111 0.57173 0.4347 0.0
C1821 C 0.48288 0.6242 0.38108 0.0
C1822 C 0.50497 0.63117 0.3963 0.0
C1823 C 0.49405 0.61271 0.41315 0.0
C1824 C 0.53836 0.65976 0.39607 0.0
C1825 C 0.49257 0.64394 0.36292 0.0
C1826 C 0.56116 0.66417 0.38188 0.0
C1827 C 0.59203 0.69196 0.38186 0.0
C1828 C 0.60085 0.71557 0.39622 0.0
C1829 C 0.57806 0.71056 0.41056 0.0
C1830 C 0.54735 0.68316 0.41046 0.0
H1831 H 0.47121 0.64012 0.3545 0.0
H1832 H 0.50766 0.67013 0.36613 0.0
H1833 H 0.507 0.63673 0.35386 0.0
H1834 H 0.55511 0.64621 0.3708 0.0
H1835 H 0.60872 0.69508 0.37048 0.0
H1836 H 0.88609 0.59308 0.93159 0.0
H1837 H 0.87664 0.538 0.93195 0.0
H1838 H 0.89821 0.54473 0.87162 0.0
H1839 H 0.90812 0.60045 0.87128 0.0
H1840 H 0.82958 0.48852 0.91292 0.0
H1841 H 0.94762 0.50199 0.89149 0.0
H1842 H 0.94332 0.53587 0.8989 0.0
H1843 H 0.93199 0.51982 0.87512 0.0
C1844 C 0.88931 0.58305 0.91843 0.0
C1845 C 0.89766 0.60105 0.90137 0.0
C1846 C 0.8839 0.55149 0.91866 0.0
C1847 C 0.88674 0.53703 0.90185 0.0
C1848 C 0.89637 0.55541 0.88487 0.0
H1849 H 0.78366 0.32631 0.89219 0.0
H1850 H 0.80474 0.38406 0.88678 0.0
C1851 C 0.90201 0.58727 0.88467 0.0
C1852 C 0.87691 0.50202 0.90208 0.0
H1853 H 0.90319 0.44829 0.89375 0.0
C1854 C 0.84574 0.47979 0.90871 0.0
C1855 C 0.898 0.49052 0.89677 0.0
C1856 C 0.93221 0.51327 0.89033 0.0
C1857 C 0.83513 0.44663 0.91028 0.0
C1858 C 0.85588 0.43493 0.90456 0.0
C1859 C 0.88713 0.45712 0.89795 0.0
C1860 C 0.8456 0.39986 0.90584 0.0
C1861 C 0.80201 0.42462 0.91863 0.0
C1862 C 0.86252 0.38929 0.91748 0.0
C1863 C 0.8507 0.35613 0.92039 0.0
C1864 C 0.82165 0.33291 0.91177 0.0
C1865 C 0.8058 0.34358 0.89929 0.0
C1866 C 0.81777 0.37662 0.89625 0.0
H1867 H 0.79309 0.43832 0.92705 0.0
H1868 H 0.78461 0.41217 0.90683 0.0
H1869 H 0.80219 0.40598 0.92804 0.0
H1870 H 0.88415 0.40669 0.92495 0.0
H1871 H 0.86341 0.34872 0.93014 0.0
H1872 H 0.19514 0.41373 0.3446 0.0
H1873 H 0.21063 0.428 0.31076 0.0
H1874 H 0.17104 0.32718 0.29719 0.0
H1875 H 0.15631 0.31292 0.33071 0.0
H1876 H 0.24767 0.39553 0.28355 0.0
H1877 H 0.12792 0.37966 0.26378 0.0
H1878 H 0.14377 0.38953 0.28785 0.0
H1879 H 0.12767 0.34911 0.27897 0.0
C1880 C 0.19009 0.39472 0.3344 0.0
C1881 C 0.17393 0.36216 0.34024 0.0
C1882 C 0.19887 0.40288 0.31511 0.0
C1883 C 0.19173 0.37858 0.30147 0.0
C1884 C 0.17656 0.34626 0.30745 0.0
H1885 H 0.1771 0.32534 0.18653 0.0
H1886 H 0.17253 0.33567 0.22018 0.0
C1887 C 0.16794 0.33816 0.3266 0.0
C1888 C 0.1989 0.38616 0.2808 0.0
H1889 H 0.16117 0.38005 0.23825 0.0
C1890 C 0.22911 0.39296 0.2736 0.0
C1891 C 0.17455 0.38255 0.26791 0.0
C1892 C 0.14165 0.37503 0.27495 0.0
C1893 C 0.23498 0.39447 0.25375 0.0
C1894 C 0.21005 0.38939 0.24078 0.0
C1895 C 0.18038 0.38416 0.24811 0.0
C1896 C 0.2125 0.38489 0.21983 0.0
C1897 C 0.26707 0.39943 0.2468 0.0
C1898 C 0.2361 0.40938 0.20812 0.0
C1899 C 0.2388 0.40343 0.18867 0.0
C1900 C 0.21807 0.37286 0.18074 0.0
C1901 C 0.19375 0.349 0.19231 0.0
C1902 C 0.19101 0.35492 0.21157 0.0
H1903 H 0.28143 0.39708 0.25854 0.0
H1904 H 0.26343 0.3817 0.23546 0.0
H1905 H 0.28134 0.42401 0.24058 0.0
H1906 H 0.25262 0.43291 0.21407 0.0
H1907 H 0.2577 0.42224 0.18004 0.0
H1908 H 0.84684 0.15099 0.68367 0.0
H1909 H 0.83257 0.14514 0.71765 0.0
H1910 H 0.85564 0.24488 0.71919 0.0
H1911 H 0.86674 0.24943 0.68477 0.0
H1912 H 0.86688 0.16889 0.74556 0.0
H1913 H 0.77883 0.21105 0.75108 0.0
H1914 H 0.79149 0.20362 0.72829 0.0
H1915 H 0.81534 0.24186 0.74031 0.0
C1916 C 0.8478 0.17124 0.69124 0.0
C1917 C 0.85736 0.20047 0.6817 0.0
C1918 C 0.83991 0.16806 0.7107 0.0
C1919 C 0.84253 0.19443 0.72123 0.0
C1920 C 0.85205 0.22369 0.7115 0.0
H1921 H 0.87881 0.1963 0.84353 0.0
H1922 H 0.88342 0.20673 0.80911 0.0
C1923 C 0.85867 0.22643 0.69183 0.0
C1924 C 0.83814 0.19192 0.74253 0.0
H1925 H 0.80548 0.21129 0.78036 0.0
C1926 C 0.85299 0.17779 0.75304 0.0
C1927 C 0.81971 0.203 0.75259 0.0
C1928 C 0.80016 0.21536 0.74243 0.0
C1929 C 0.8502 0.17458 0.77302 0.0
C1930 C 0.83395 0.18797 0.78322 0.0
C1931 C 0.81862 0.20167 0.77275 0.0
C1932 C 0.83204 0.18724 0.80462 0.0
C1933 C 0.86389 0.15578 0.78274 0.0
C1934 C 0.80221 0.17604 0.81405 0.0
C1935 C 0.79997 0.17203 0.83399 0.0
C1936 C 0.82737 0.17853 0.84473 0.0
C1937 C 0.85739 0.19131 0.83552 0.0
C1938 C 0.85986 0.19657 0.81577 0.0
H1939 H 0.86412 0.13762 0.77291 0.0
H1940 H 0.8893 0.17262 0.78696 0.0
H1941 H 0.8498 0.14291 0.79566 0.0
H1942 H 0.78034 0.16884 0.80593 0.0
H1943 H 0.77647 0.16163 0.84081 0.0
H1944 H 0.72404 0.88206 0.19195 0.0
H1945 H 0.71311 0.86857 0.22592 0.0
H1946 H 0.61064 0.81805 0.21474 0.0
H1947 H 0.62141 0.83207 0.18062 0.0
H1948 H 0.66942 0.8858 0.24945 0.0
H1949 H 0.63232 0.75506 0.24794 0.0
H1950 H 0.65831 0.78278 0.22972 0.0
H1951 H 0.61629 0.77082 0.23028 0.0
C1952 C 0.69915 0.86805 0.19669 0.0
C1953 C 0.67357 0.85852 0.18365 0.0
C1954 C 0.69297 0.86029 0.2161 0.0
C1955 C 0.66109 0.84236 0.22284 0.0
C1956 C 0.63542 0.83179 0.2098 0.0
H1957 H 0.61352 0.78024 0.34387 0.0
H1958 H 0.60546 0.78767 0.30975 0.0
C1959 C 0.64161 0.83976 0.19033 0.0
C1960 C 0.65513 0.83618 0.24369 0.0
H1961 H 0.63701 0.77878 0.27815 0.0
C1962 C 0.66193 0.86231 0.25573 0.0
C1963 C 0.64502 0.80546 0.25181 0.0
C1964 C 0.63758 0.77677 0.23939 0.0
C1965 C 0.65991 0.8588 0.27573 0.0
C1966 C 0.65162 0.82851 0.28395 0.0
C1967 C 0.64334 0.80198 0.27187 0.0
C1968 C 0.65514 0.82498 0.30485 0.0
C1969 C 0.66717 0.88777 0.28787 0.0
C1970 C 0.68556 0.84343 0.3134 0.0
C1971 C 0.69009 0.83929 0.33267 0.0
C1972 C 0.6644 0.81631 0.34389 0.0
C1973 C 0.63365 0.79825 0.33555 0.0
C1974 C 0.62912 0.80234 0.31608 0.0
H1975 H 0.66196 0.90487 0.28 0.0
H1976 H 0.65288 0.88046 0.30133 0.0
H1977 H 0.69324 0.90086 0.29161 0.0
H1978 H 0.70616 0.86057 0.30502 0.0
H1979 H 0.71405 0.85368 0.33871 0.0
H1980 H 0.7956 0.60974 0.68238 0.0
H1981 H 0.80129 0.60153 0.71673 0.0
H1982 H 0.86034 0.70455 0.72428 0.0
H1983 H 0.8556 0.71282 0.69028 0.0
H1984 H 0.86856 0.63331 0.74029 0.0
H1985 H 0.77637 0.66524 0.76281 0.0
H1986 H 0.77708 0.6505 0.73908 0.0
H1987 H 0.80557 0.69153 0.74544 0.0
C1988 C 0.80999 0.63053 0.69138 0.0
C1989 C 0.82451 0.66195 0.68371 0.0
C1990 C 0.81315 0.62584 0.71096 0.0
C1991 C 0.83085 0.65251 0.72306 0.0
C1992 C 0.84621 0.68369 0.71525 0.0
H1993 H 0.9162 0.70678 0.83304 0.0
H1994 H 0.9016 0.69715 0.79929 0.0
C1995 C 0.84329 0.68835 0.69581 0.0
C1996 C 0.83339 0.64848 0.74395 0.0
H1997 H 0.81089 0.6645 0.78718 0.0
C1998 C 0.85555 0.63954 0.75057 0.0
C1999 C 0.81645 0.65671 0.75733 0.0
C2000 C 0.79231 0.66633 0.7509 0.0
C2001 C 0.86219 0.63998 0.77023 0.0
C2002 C 0.84629 0.64962 0.78354 0.0
C2003 C 0.82306 0.65713 0.77696 0.0
C2004 C 0.8552 0.65435 0.80414 0.0
C2005 C 0.8867 0.63088 0.77668 0.0
C2006 C 0.83379 0.63361 0.81815 0.0
C2007 C 0.84221 0.63878 0.83758 0.0
C2008 C 0.87204 0.66514 0.84341 0.0
C2009 C 0.89319 0.68603 0.82923 0.0
C2010 C 0.88492 0.68058 0.80985 0.0
H2011 H 0.89205 0.61799 0.76531 0.0
H2012 H 0.90956 0.65315 0.78048 0.0
H2013 H 0.87797 0.61532 0.78962 0.0
H2014 H 0.81061 0.61335 0.81404 0.0
H2015 H 0.82522 0.62223 0.84802 0.0
H2016 H 0.20043 0.86813 0.1812 0.0
H2017 H 0.2135 0.87272 0.21508 0.0
H2018 H 0.18359 0.77116 0.21671 0.0
H2019 H 0.17379 0.76761 0.18207 0.0
H2020 H 0.17544 0.84935 0.24166 0.0
H2021 H 0.25822 0.8009 0.25079 0.0
H2022 H 0.24829 0.80977 0.22753 0.0
H2023 H 0.22136 0.77214 0.23935 0.0
C2024 C 0.19829 0.84721 0.18858 0.0
C2025 C 0.18737 0.81785 0.17888 0.0
C2026 C 0.20523 0.84965 0.20809 0.0
C2027 C 0.19998 0.82241 0.21871 0.0
C2028 C 0.18913 0.79292 0.20894 0.0
H2029 H 0.16144 0.82863 0.34003 0.0
H2030 H 0.15722 0.81587 0.30604 0.0
C2031 C 0.18338 0.79081 0.18913 0.0
C2032 C 0.20282 0.8247 0.24008 0.0
H2033 H 0.23337 0.80616 0.27929 0.0
C2034 C 0.18854 0.8402 0.24976 0.0
C2035 C 0.21998 0.81304 0.25092 0.0
C2036 C 0.23811 0.79836 0.24159 0.0
C2037 C 0.19119 0.8448 0.26965 0.0
C2038 C 0.20668 0.8315 0.28065 0.0
C2039 C 0.22104 0.81596 0.27103 0.0
C2040 C 0.20846 0.83392 0.30203 0.0
C2041 C 0.1782 0.86501 0.27835 0.0
C2042 C 0.23811 0.84541 0.3117 0.0
C2043 C 0.24008 0.85058 0.33157 0.0
C2044 C 0.21258 0.84491 0.34198 0.0
C2045 C 0.18288 0.83249 0.33245 0.0
C2046 C 0.18063 0.82596 0.31286 0.0
H2047 H 0.1789 0.88288 0.26789 0.0
H2048 H 0.15254 0.84904 0.28248 0.0
H2049 H 0.19214 0.87838 0.29117 0.0
H2050 H 0.26 0.85167 0.30381 0.0
H2051 H 0.2634 0.86091 0.33856 0.0
H2052 H 0.42213 0.22951 0.84284 0.0
H2053 H 0.43319 0.22488 0.80893 0.0
H2054 H 0.33072 0.16952 0.79794 0.0
H2055 H 0.31962 0.17388 0.83161 0.0
H2056 H 0.36865 0.14309 0.78222 0.0
H2057 H 0.41757 0.27271 0.76332 0.0
H2058 H 0.43443 0.26348 0.78377 0.0
H2059 H 0.39336 0.25488 0.78448 0.0
C2060 C 0.40203 0.21619 0.83317 0.0
C2061 C 0.37 0.20225 0.83983 0.0
C2062 C 0.40837 0.2138 0.8138 0.0
C2063 C 0.38276 0.19724 0.80085 0.0
C2064 C 0.35085 0.1826 0.80764 0.0
H2065 H 0.3237 0.14825 0.68733 0.0
H2066 H 0.33384 0.16076 0.72128 0.0
C2067 C 0.34453 0.18513 0.82688 0.0
C2068 C 0.38865 0.19457 0.7802 0.0
H2069 H 0.41045 0.23701 0.73812 0.0
C2070 C 0.37834 0.16373 0.77264 0.0
C2071 C 0.40131 0.22152 0.76769 0.0
C2072 C 0.41221 0.25508 0.77508 0.0
C2073 C 0.37921 0.15892 0.75288 0.0
C2074 C 0.39028 0.18554 0.74026 0.0
C2075 C 0.40209 0.21666 0.74784 0.0
C2076 C 0.38552 0.18053 0.71926 0.0
C2077 C 0.36691 0.1251 0.74554 0.0
C2078 C 0.41142 0.1883 0.70668 0.0
C2079 C 0.40563 0.18086 0.68708 0.0
C2080 C 0.37387 0.16553 0.6799 0.0
C2081 C 0.34837 0.15932 0.69247 0.0
C2082 C 0.35411 0.16658 0.71189 0.0
H2083 H 0.36718 0.10888 0.75685 0.0
H2084 H 0.34158 0.11513 0.74066 0.0
H2085 H 0.38161 0.12511 0.73322 0.0
H2086 H 0.43589 0.19923 0.71211 0.0
H2087 H 0.42573 0.18606 0.67771 0.0
H2088 H 0.38269 0.26161 0.9567 0.0
H2089 H 0.37089 0.28289 0.9859 0.0
H2090 H 0.27157 0.24171 0.96823 0.0
H2091 H 0.28284 0.22025 0.93956 0.0
H2092 H 0.34543 0.32627 0.98937 0.0
H2093 H 0.26339 0.20767 0.02287 0.0
H2094 H 0.29038 0.21222 1.0035 0.0
H2095 H 0.25269 0.21078 0.99867 0.0
C2096 C 0.35825 0.25667 0.95923 0.0
C2097 C 0.33374 0.23899 0.94577 0.0
C2098 C 0.35158 0.26909 0.97584 0.0
C2099 C 0.32021 0.2637 0.97941 0.0
C2100 C 0.29582 0.24585 0.96604 0.0
H2101 H 0.25276 0.36067 0.05963 0.0
H2102 H 0.27021 0.34411 0.03075 0.0
C2103 C 0.30242 0.23362 0.94955 0.0
C2104 C 0.31251 0.27668 0.99691 0.0
H2105 H 0.26268 0.2532 0.036 0.0
C2106 C 0.32752 0.31031 0.99966 0.0
C2107 C 0.28919 0.25596 1.01042 0.0
C2108 C 0.27317 0.21965 1.00887 0.0
C2109 C 0.31945 0.32366 0.01532 0.0
C2110 C 0.29541 0.30289 0.02851 0.0
C2111 C 0.28082 0.26928 0.02585 0.0
C2112 C 0.28624 0.31503 0.04586 0.0
C2113 C 0.33717 0.35987 0.01779 0.0
C2114 C 0.28904 0.30416 0.064 0.0
C2115 C 0.27879 0.31322 0.0804 0.0
C2116 C 0.26528 0.33358 0.07933 0.0
C2117 C 0.26297 0.34503 0.06114 0.0
C2118 C 0.27321 0.33574 0.04458 0.0
H2119 H 0.3599 0.37182 1.0093 0.0
H2120 H 0.32147 0.36941 0.01284 0.0
H2121 H 0.34311 0.36654 0.03307 0.0
H2122 H 0.29894 0.28822 0.0655 0.0
H2123 H 0.28113 0.30364 0.09396 0.0
H2124 H 0.06594 0.27311 0.43827 0.0
H2125 H 0.03384 0.26259 0.46718 0.0
H2126 H 0.09356 0.362 0.48439 0.0
H2127 H 0.12671 0.37261 0.45534 0.0
H2128 H 0.07915 0.32243 0.5146 0.0
H2129 H 0.96557 0.28635 0.47583 0.0
H2130 H 0.98275 0.26227 0.4684 0.0
H2131 H 1.00432 0.30522 0.46395 0.0
C2132 C 0.07242 0.29287 0.44816 0.0
C2133 C 0.0988 0.32385 0.44433 0.0
C2134 C 0.05375 0.28682 0.46468 0.0
C2135 C 0.06042 0.31168 0.47776 0.0
C2136 C 0.08756 0.34245 0.47442 0.0
H2137 H 0.91483 0.27148 0.56852 0.0
H2138 H 0.94945 0.29436 0.54008 0.0
C2139 C 0.10662 0.34849 0.45786 0.0
C2140 C 0.03921 0.30492 0.49496 0.0
H2141 H 0.95979 0.26889 0.50872 0.0
C2142 C 0.0531 0.31111 0.51328 0.0
C2143 C 1.00514 0.29087 0.49342 0.0
C2144 C 0.98864 0.28615 0.47433 0.0
C2145 C 0.03389 0.30207 0.52995 0.0
C2146 C 0.99966 0.28549 0.52835 0.0
C2147 C 0.98589 0.28096 0.51007 0.0
C2148 C 0.9779 0.2713 0.54536 0.0
C2149 C 0.0506 0.3105 0.54913 0.0
C2150 C 0.98144 0.24985 0.55749 0.0
C2151 C 0.96188 0.23695 0.57368 0.0
C2152 C 0.93772 0.24463 0.5781 0.0
C2153 C 0.93313 0.26501 0.56554 0.0
C2154 C 0.95304 0.27822 0.54932 0.0
H2155 H 0.07507 0.33224 0.54811 0.0
H2156 H 0.0364 0.31508 0.56001 0.0
H2157 H 0.05364 0.29012 0.55413 0.0
H2158 H 0.99949 0.24305 0.55448 0.0
H2159 H 0.9659 0.221 0.58284 0.0
H2160 H 0.65384 0.90826 0.07006 0.0
H2161 H 0.66363 0.94213 0.0415 0.0
H2162 H 0.76635 0.9891 0.05171 0.0
H2163 H 0.75672 0.95614 0.0802 0.0
H2164 H 0.74814 0.03288 0.04486 0.0
H2165 H 0.69647 0.93761 0.98895 0.0
H2166 H 0.6691 0.93312 1.0079 0.0
H2167 H 0.70398 0.92942 0.01303 0.0
C2168 C 0.67849 0.92536 0.06594 0.0
C2169 C 0.70448 0.92937 0.07737 0.0
C2170 C 0.6841 0.94479 0.04963 0.0
C2171 C 0.71582 0.9682 0.04429 0.0
C2172 C 0.74167 0.97145 0.05548 0.0
H2173 H 0.80094 0.06319 0.93937 0.0
H2174 H 0.77867 0.02943 0.96754 0.0
C2175 C 0.73611 0.95239 0.07176 0.0
C2176 C 0.72267 0.99017 0.0275 0.0
H2177 H 0.71705 0.99139 0.97875 0.0
C2178 C 0.74112 0.02379 0.03041 0.0
C2179 C 0.71367 0.97843 1.00859 0.0
C2180 C 0.69495 0.9427 1.00431 0.0
C2181 C 0.75168 0.04581 0.01501 0.0
C2182 C 0.74297 0.03407 0.99609 0.0
C2183 C 0.72363 1.00051 0.99323 0.0
C2184 C 0.75632 0.05562 0.97896 0.0
C2185 C 0.77342 0.08133 0.01912 0.0
C2186 C 0.7514 0.082 0.9758 0.0
C2187 C 0.76452 0.10185 0.95956 0.0
C2188 C 0.78249 0.09546 0.94605 0.0
C2189 C 0.78721 0.069 0.94933 0.0
C2190 C 0.77434 0.04944 0.96549 0.0
H2191 H 0.78355 0.08558 0.03383 0.0
H2192 H 0.79377 0.09239 1.00876 0.0
H2193 H 0.75928 0.0939 0.01776 0.0
H2194 H 0.7371 0.08702 0.98576 0.0
H2195 H 0.76011 0.12177 0.95741 0.0
H2196 H 0.75526 0.63906 0.56991 0.0
H2197 H 0.73317 0.6501 0.54084 0.0
H2198 H 0.78826 0.75233 0.55271 0.0
H2199 H 0.80953 0.74144 0.58163 0.0
H2200 H 0.72659 0.73428 0.54522 0.0
H2201 H 0.77296 0.68571 0.48899 0.0
H2202 H 0.74929 0.65744 0.5074 0.0
H2203 H 0.78762 0.6921 0.51328 0.0
C2204 C 0.76309 0.66386 0.56603 0.0
C2205 C 0.78412 0.68935 0.57806 0.0
C2206 C 0.75043 0.6702 0.54943 0.0
C2207 C 0.75905 0.70215 0.54448 0.0
C2208 C 0.78096 0.72749 0.55621 0.0
H2209 H 0.75126 0.79016 0.4397 0.0
H2210 H 0.76314 0.76831 0.46799 0.0
C2211 C 0.79324 0.72121 0.57274 0.0
C2212 C 0.74471 0.7098 0.52764 0.0
H2213 H 0.7402 0.70683 0.47879 0.0
C2214 C 0.72938 0.72807 0.53069 0.0
C2215 C 0.74843 0.70191 0.50865 0.0
C2216 C 0.76569 0.68345 0.50427 0.0
C2217 C 0.71867 0.73948 0.51538 0.0
C2218 C 0.72258 0.73177 0.49637 0.0
C2219 C 0.73703 0.71268 0.49334 0.0
C2220 C 0.7145 0.74547 0.47938 0.0
C2221 C 0.70471 0.76099 0.51972 0.0
C2222 C 0.68312 0.74031 0.47625 0.0
C2223 C 0.67624 0.75326 0.46001 0.0
C2224 C 0.70051 0.77119 0.44645 0.0
C2225 C 0.73186 0.77641 0.44975 0.0
C2226 C 0.73873 0.76378 0.46595 0.0
H2227 H 0.71051 0.77083 0.53449 0.0
H2228 H 0.71393 0.78154 0.50951 0.0
H2229 H 0.678 0.74674 0.51836 0.0
H2230 H 0.66377 0.72578 0.48615 0.0
H2231 H 0.65177 0.74841 0.45779 0.0
H2232 H 0.91887 0.64513 0.95447 0.0
H2233 H 0.95308 0.65579 0.98287 0.0
H2234 H 0.9733 0.75448 0.98364 0.0
H2235 H 0.93967 0.74397 0.95517 0.0
H2236 H 0.02857 0.75116 0.98497 0.0
H2237 H 0.94151 0.66833 0.03922 0.0
H2238 H 0.94208 0.64919 0.01723 0.0
H2239 H 0.92864 0.67824 0.01723 0.0
C2240 C 0.92981 0.66876 0.96111 0.0
C2241 C 0.92664 0.69373 0.95266 0.0
C2242 C 0.94949 0.67491 0.97731 0.0
C2243 C 0.96587 0.706 0.98549 0.0
C2244 C 0.96114 0.73038 0.9776 0.0
H2245 H 0.06063 0.77916 0.09187 0.0
H2246 H 0.02583 0.75767 0.06422 0.0
C2247 C 0.94169 0.7243 0.96141 0.0
C2248 C 0.98953 0.71401 1.00145 0.0
H2249 H 0.99663 0.69675 0.04808 0.0
C2250 C 0.02162 0.73904 0.99871 0.0
C2251 C 0.98054 0.69842 0.01947 0.0
C2252 C 0.94628 0.67224 0.02361 0.0
C2253 C 0.04468 0.74925 0.0135 0.0
C2254 C 0.03564 0.73381 0.03155 0.0
C2255 C 1.00372 0.70837 0.03419 0.0
C2256 C 0.05765 0.74607 0.04848 0.0
C2257 C 0.07816 0.77745 1.00993 0.0
C2258 C 0.08745 0.74668 0.04906 0.0
C2259 C 0.10787 0.7592 0.06512 0.0
C2260 C 0.09884 0.77131 0.08088 0.0
C2261 C 0.06879 0.77024 0.08015 0.0
C2262 C 0.04857 0.75777 0.06427 0.0
H2263 H 0.0795 0.79036 0.99643 0.0
H2264 H 0.0859 0.79495 0.02195 0.0
H2265 H 0.09554 0.76851 1.00887 0.0
H2266 H 0.09485 0.73736 0.03717 0.0
H2267 H 0.13061 0.75933 0.06518 0.0
H2268 H 0.28093 0.90409 0.45363 0.0
H2269 H 0.30367 0.93932 0.48171 0.0
H2270 H 0.25775 0.99327 0.46425 0.0
H2271 H 0.23587 0.95904 0.43619 0.0
H2272 H 0.31822 0.03357 0.47491 0.0
H2273 H 0.2589 0.93862 0.53051 0.0
H2274 H 0.28384 0.93177 0.51415 0.0
H2275 H 0.24797 0.93105 0.50559 0.0
C2276 C 0.27545 0.92328 0.45591 0.0
C2277 C 0.2564 0.92853 0.44264 0.0
C2278 C 0.28842 0.94341 0.47201 0.0
C2279 C 0.28219 0.96889 0.47533 0.0
C2280 C 0.26307 0.97395 0.4621 0.0
H2281 H 0.28657 0.06487 0.57965 0.0
H2282 H 0.27502 0.0327 0.55068 0.0
C2283 C 0.25043 0.95416 0.44601 0.0
C2284 C 0.29547 0.99066 0.49237 0.0
H2285 H 0.29454 0.99153 0.54129 0.0
C2286 C 0.31316 0.02434 0.48943 0.0
C2287 C 0.28875 0.9788 0.51138 0.0
C2288 C 0.26859 0.94313 0.51568 0.0
C2289 C 0.32354 0.04633 0.50483 0.0
C2290 C 0.31682 0.03445 0.52383 0.0
C2291 C 0.29987 1.00077 0.52677 0.0
C2292 C 0.32464 0.05615 0.54086 0.0
C2293 C 0.34033 0.08206 0.50052 0.0
C2294 C 0.35645 0.08077 0.54503 0.0
C2295 C 0.36312 0.09977 0.56163 0.0
C2296 C 0.33819 0.09408 0.57452 0.0
C2297 C 0.30642 0.06986 0.5701 0.0
C2298 C 0.29976 0.05128 0.55352 0.0
H2299 H 0.33648 0.08686 0.48547 0.0
H2300 H 0.33164 0.09459 0.51016 0.0
H2301 H 0.36672 0.09269 0.50276 0.0
H2302 H 0.37627 0.08471 0.53576 0.0
H2303 H 0.38789 0.1179 0.56478 0.0
loop_
_geom_bond_atom_site_label_1
_geom_bond_atom_site_label_2
_geom_bond_distance
_geom_bond_site_symmetry_2
_ccdc_geom_bond_type
Tb0 N29 2.617 . S
Tb0 N35 2.572 . S
Tb0 O44 2.465 . S
Tb0 O45 2.387 . S
Tb0 O47 2.428 . S
Tb0 O48 2.308 . S
Tb0 O52 2.349 . S
Tb0 O55 2.393 . S
Tb0 C64 2.802 . S
C1 N2 1.379 . S
C1 C4 1.416 . S
C1 C8 1.424 . S
N2 C1 1.379 . S
N2 C5 1.334 . S
N2 Tb11 2.617 . S
C3 C5 1.390 . S
C3 C6 1.339 . S
C3 H23 0.930 . S
C4 C1 1.416 . S
C4 C6 1.416 . S
C4 C10 1.448 . S
C5 N2 1.334 . S
C5 C3 1.390 . S
C5 H16 0.930 . S
C6 C3 1.339 . S
C6 C4 1.416 . S
C6 H27 0.930 . S
C7 C8 1.413 . S
C7 C9 1.427 . S
C7 C13 1.416 . S
C8 C1 1.424 . S
C8 C7 1.413 . S
C8 N12 1.361 . S
C9 C7 1.427 . S
C9 C10 1.328 . S
C9 H24 0.929 . S
C10 C4 1.448 . S
C10 C9 1.328 . S
C10 H25 0.930 . S
Tb11 N2 2.617 . S
Tb11 N12 2.572 . S
Tb11 O46 2.349 . S
Tb11 O49 2.393 . S
Tb11 O50 2.465 . S
Tb11 O51 2.387 . S
Tb11 O53 2.428 . S
Tb11 O54 2.308 . S
Tb11 C75 2.802 . S
N12 C8 1.361 . S
N12 Tb11 2.572 . S
N12 C14 1.340 . S
C13 C7 1.416 . S
C13 C15 1.332 . S
C13 H21 0.931 . S
C14 N12 1.340 . S
C14 C15 1.407 . S
C14 H20 0.930 . S
C15 C13 1.332 . S
C15 C14 1.407 . S
C15 H17 0.929 . S
H16 C5 0.930 . S
H17 C15 0.929 . S
H18 C33 0.930 . S
H19 C40 0.929 . S
H20 C14 0.930 . S
H21 C13 0.931 . S
H22 C36 0.930 . S
H23 C3 0.930 . S
H24 C9 0.929 . S
H25 C10 0.930 . S
H26 C31 0.930 . S
H27 C6 0.930 . S
H28 C39 0.931 . S
N29 Tb0 2.617 . S
N29 C30 1.379 . S
N29 C33 1.334 . S
C30 N29 1.379 . S
C30 C32 1.416 . S
C30 C38 1.424 . S
C31 H26 0.930 . S
C31 C33 1.390 . S
C31 C34 1.339 . S
C32 C30 1.416 . S
C32 C34 1.416 . S
C32 C65 1.448 . S
C33 H18 0.930 . S
C33 N29 1.334 . S
C33 C31 1.390 . S
C34 C31 1.339 . S
C34 C32 1.416 . S
C34 H41 0.930 . S
N35 Tb0 2.572 . S
N35 C36 1.340 . S
N35 C38 1.361 . S
C36 H22 0.930 . S
C36 N35 1.340 . S
C36 C40 1.407 . S
C37 C38 1.413 . S
C37 C39 1.416 . S
C37 C66 1.427 . S
C38 C30 1.424 . S
C38 N35 1.361 . S
C38 C37 1.413 . S
C39 H28 0.931 . S
C39 C37 1.416 . S
C39 C40 1.332 . S
C40 H19 0.929 . S
C40 C36 1.407 . S
C40 C39 1.332 . S
H41 C34 0.930 . S
H42 C65 0.930 . S
H43 C66 0.929 . S
O44 Tb0 2.465 . S
O44 C64 1.264 . S
O45 Tb0 2.387 . S
O45 C56 1.264 . S
O46 Tb11 2.349 . S
O46 C56 1.243 . S
O47 Tb0 2.428 . S
O47 C64 1.256 . S
O48 Tb0 2.308 . S
O48 C63 1.266 . S
O49 Tb11 2.393 . S
O49 C63 1.248 . S
O50 Tb11 2.465 . S
O50 C75 1.264 . S
O51 Tb11 2.387 . S
O51 C67 1.264 . S
O52 Tb0 2.349 . S
O52 C67 1.243 . S
O53 Tb11 2.428 . S
O53 C75 1.256 . S
O54 Tb11 2.308 . S
O54 C74 1.266 . S
O55 Tb0 2.393 . S
O55 C74 1.248 . S
C56 O45 1.264 . S
C56 O46 1.243 . S
C57 C60 1.399 . S
C57 C62 1.383 . S
C57 C64 1.496 . S
C58 C59 1.399 . S
C58 C62 1.389 . S
C59 C58 1.399 . S
C59 C61 1.380 . S
C59 H76 0.929 . S
C60 C57 1.399 . S
C60 C61 1.392 . S
C60 H77 0.929 . S
C61 C59 1.380 . S
C61 C60 1.392 . S
C61 H78 0.929 . S
C62 C57 1.383 . S
C62 C58 1.389 . S
C62 H79 0.931 . S
C63 O48 1.266 . S
C63 O49 1.248 . S
C64 Tb0 2.802 . S
C64 O44 1.264 . S
C64 O47 1.256 . S
C64 C57 1.496 . S
C65 C32 1.448 . S
C65 H42 0.930 . S
C65 C66 1.328 . S
C66 C37 1.427 . S
C66 H43 0.929 . S
C66 C65 1.328 . S
C67 O51 1.264 . S
C67 O52 1.243 . S
C68 C71 1.399 . S
C68 C72 1.383 . S
C68 C75 1.496 . S
C69 C70 1.399 . S
C69 C72 1.389 . S
C70 C69 1.399 . S
C70 C73 1.380 . S
C70 H80 0.929 . S
C71 C68 1.399 . S
C71 C73 1.392 . S
C71 H81 0.929 . S
C72 C68 1.383 . S
C72 C69 1.389 . S
C72 H82 0.931 . S
C73 C70 1.380 . S
C73 C71 1.392 . S
C73 H83 0.929 . S
C74 O54 1.266 . S
C74 O55 1.248 . S
C75 Tb11 2.802 . S
C75 O50 1.264 . S
C75 O53 1.256 . S
C75 C68 1.496 . S
H76 C59 0.929 . S
H77 C60 0.929 . S
H78 C61 0.929 . S
H79 C62 0.931 . S
H80 C70 0.929 . S
H81 C71 0.929 . S
H82 C72 0.931 . S
H83 C73 0.929 . S
Tb84 N113 2.617 . S
Tb84 N119 2.572 . S
Tb84 O128 2.465 . S
Tb84 O129 2.387 . S
Tb84 O131 2.428 . S
Tb84 O132 2.308 . S
Tb84 O136 2.349 . S
Tb84 O139 2.393 . S
Tb84 C148 2.802 . S
C85 N86 1.379 . S
C85 C88 1.416 . S
C85 C92 1.424 . S
N86 C85 1.379 . S
N86 C89 1.334 . S
N86 Tb95 2.617 . S
C87 C89 1.390 . S
C87 C90 1.339 . S
C87 H107 0.930 . S
C88 C85 1.416 . S
C88 C90 1.416 . S
C88 C94 1.448 . S
C89 N86 1.334 . S
C89 C87 1.390 . S
C89 H100 0.930 . S
C90 C87 1.339 . S
C90 C88 1.416 . S
C90 H111 0.930 . S
C91 C92 1.413 . S
C91 C93 1.427 . S
C91 C97 1.416 . S
C92 C85 1.424 . S
C92 C91 1.413 . S
C92 N96 1.361 . S
C93 C91 1.427 . S
C93 C94 1.328 . S
C93 H108 0.929 . S
C94 C88 1.448 . S
C94 C93 1.328 . S
C94 H109 0.930 . S
Tb95 N86 2.617 . S
Tb95 N96 2.572 . S
Tb95 O130 2.349 . S
Tb95 O133 2.393 . S
Tb95 O134 2.465 . S
Tb95 O135 2.387 . S
Tb95 O137 2.428 . S
Tb95 O138 2.308 . S
Tb95 C159 2.802 . S
N96 C92 1.361 . S
N96 Tb95 2.572 . S
N96 C98 1.340 . S
C97 C91 1.416 . S
C97 C99 1.332 . S
C97 H105 0.931 . S
C98 N96 1.340 . S
C98 C99 1.407 . S
C98 H104 0.930 . S
C99 C97 1.332 . S
C99 C98 1.407 . S
C99 H101 0.929 . S
H100 C89 0.930 . S
H101 C99 0.929 . S
H102 C117 0.930 . S
H103 C124 0.929 . S
H104 C98 0.930 . S
H105 C97 0.931 . S
H106 C120 0.930 . S
H107 C87 0.930 . S
H108 C93 0.929 . S
H109 C94 0.930 . S
H110 C115 0.930 . S
H111 C90 0.930 . S
H112 C123 0.931 . S
N113 Tb84 2.617 . S
N113 C114 1.379 . S
N113 C117 1.334 . S
C114 N113 1.379 . S
C114 C116 1.416 . S
C114 C122 1.424 . S
C115 H110 0.930 . S
C115 C117 1.390 . S
C115 C118 1.339 . S
C116 C114 1.416 . S
C116 C118 1.416 . S
C116 C149 1.448 . S
C117 H102 0.930 . S
C117 N113 1.334 . S
C117 C115 1.390 . S
C118 C115 1.339 . S
C118 C116 1.416 . S
C118 H125 0.930 . S
N119 Tb84 2.572 . S
N119 C120 1.340 . S
N119 C122 1.361 . S
C120 H106 0.930 . S
C120 N119 1.340 . S
C120 C124 1.407 . S
C121 C122 1.413 . S
C121 C123 1.416 . S
C121 C150 1.427 . S
C122 C114 1.424 . S
C122 N119 1.361 . S
C122 C121 1.413 . S
C123 H112 0.931 . S
C123 C121 1.416 . S
C123 C124 1.332 . S
C124 H103 0.929 . S
C124 C120 1.407 . S
C124 C123 1.332 . S
H125 C118 0.930 . S
H126 C149 0.930 . S
H127 C150 0.929 . S
O128 Tb84 2.465 . S
O128 C148 1.264 . S
O129 Tb84 2.387 . S
O129 C140 1.264 . S
O130 Tb95 2.349 . S
O130 C140 1.243 . S
O131 Tb84 2.428 . S
O131 C148 1.256 . S
O132 Tb84 2.308 . S
O132 C147 1.266 . S
O133 Tb95 2.393 . S
O133 C147 1.248 . S
O134 Tb95 2.465 . S
O134 C159 1.264 . S
O135 Tb95 2.387 . S
O135 C151 1.264 . S
O136 Tb84 2.349 . S
O136 C151 1.243 . S
O137 Tb95 2.428 . S
O137 C159 1.256 . S
O138 Tb95 2.308 . S
O138 C158 1.266 . S
O139 Tb84 2.393 . S
O139 C158 1.248 . S
C140 O129 1.264 . S
C140 O130 1.243 . S
C141 C144 1.399 . S
C141 C146 1.383 . S
C141 C148 1.496 . S
C142 C143 1.399 . S
C142 C146 1.389 1_455 S
C143 C142 1.399 . S
C143 C145 1.380 . S
C143 H160 0.929 . S
C144 C141 1.399 . S
C144 C145 1.392 1_655 S
C144 H161 0.929 . S
C145 C143 1.380 . S
C145 C144 1.392 1_455 S
C145 H162 0.929 . S
C146 C141 1.383 . S
C146 C142 1.389 1_655 S
C146 H163 0.931 . S
C147 O132 1.266 . S
C147 O133 1.248 . S
C148 Tb84 2.802 . S
C148 O128 1.264 . S
C148 O131 1.256 . S
C148 C141 1.496 . S
C149 C116 1.448 . S
C149 H126 0.930 . S
C149 C150 1.328 . S
C150 C121 1.427 . S
C150 H127 0.929 . S
C150 C149 1.328 . S
C151 O135 1.264 . S
C151 O136 1.243 . S
C152 C155 1.399 . S
C152 C156 1.383 . S
C152 C159 1.496 . S
C153 C154 1.399 . S
C153 C156 1.389 . S
C154 C153 1.399 . S
C154 C157 1.380 . S
C154 H164 0.929 . S
C155 C152 1.399 . S
C155 C157 1.392 . S
C155 H165 0.929 . S
C156 C152 1.383 . S
C156 C153 1.389 . S
C156 H166 0.931 . S
C157 C154 1.380 . S
C157 C155 1.392 . S
C157 H167 0.929 . S
C158 O138 1.266 . S
C158 O139 1.248 . S
C159 Tb95 2.802 . S
C159 O134 1.264 . S
C159 O137 1.256 . S
C159 C152 1.496 . S
H160 C143 0.929 . S
H161 C144 0.929 . S
H162 C145 0.929 . S
H163 C146 0.931 . S
H164 C154 0.929 . S
H165 C155 0.929 . S
H166 C156 0.931 . S
H167 C157 0.929 . S
Tb168 N197 2.617 . S
Tb168 N203 2.572 . S
Tb168 O212 2.465 . S
Tb168 O213 2.387 . S
Tb168 O215 2.428 . S
Tb168 O216 2.308 . S
Tb168 O220 2.349 . S
Tb168 O223 2.393 . S
Tb168 C232 2.802 . S
C169 N170 1.379 . S
C169 C172 1.416 . S
C169 C176 1.424 . S
N170 C169 1.379 . S
N170 C173 1.334 . S
N170 Tb179 2.617 . S
C171 C173 1.390 . S
C171 C174 1.339 . S
C171 H191 0.930 . S
C172 C169 1.416 . S
C172 C174 1.416 . S
C172 C178 1.448 . S
C173 N170 1.334 . S
C173 C171 1.390 . S
C173 H184 0.930 . S
C174 C171 1.339 . S
C174 C172 1.416 . S
C174 H195 0.930 . S
C175 C176 1.413 . S
C175 C177 1.427 . S
C175 C181 1.416 . S
C176 C169 1.424 . S
C176 C175 1.413 . S
C176 N180 1.361 . S
C177 C175 1.427 . S
C177 C178 1.328 . S
C177 H192 0.929 . S
C178 C172 1.448 . S
C178 C177 1.328 . S
C178 H193 0.930 . S
Tb179 N170 2.617 . S
Tb179 N180 2.572 . S
Tb179 O214 2.349 . S
Tb179 O217 2.393 . S
Tb179 O218 2.465 . S
Tb179 O219 2.387 . S
Tb179 O221 2.428 . S
Tb179 O222 2.308 . S
Tb179 C243 2.802 . S
N180 C176 1.361 . S
N180 Tb179 2.572 . S
N180 C182 1.340 . S
C181 C175 1.416 . S
C181 C183 1.332 . S
C181 H189 0.931 . S
C182 N180 1.340 . S
C182 C183 1.407 . S
C182 H188 0.930 . S
C183 C181 1.332 . S
C183 C182 1.407 . S
C183 H185 0.929 . S
H184 C173 0.930 . S
H185 C183 0.929 . S
H186 C201 0.930 . S
H187 C208 0.929 . S
H188 C182 0.930 . S
H189 C181 0.931 . S
H190 C204 0.930 . S
H191 C171 0.930 . S
H192 C177 0.929 . S
H193 C178 0.930 . S
H194 C199 0.930 . S
H195 C174 0.930 . S
H196 C207 0.931 . S
N197 Tb168 2.617 . S
N197 C198 1.379 . S
N197 C201 1.334 . S
C198 N197 1.379 . S
C198 C200 1.416 . S
C198 C206 1.424 . S
C199 H194 0.930 . S
C199 C201 1.390 . S
C199 C202 1.339 . S
C200 C198 1.416 . S
C200 C202 1.416 . S
C200 C233 1.448 . S
C201 H186 0.930 . S
C201 N197 1.334 . S
C201 C199 1.390 . S
C202 C199 1.339 . S
C202 C200 1.416 . S
C202 H209 0.930 . S
N203 Tb168 2.572 . S
N203 C204 1.340 . S
N203 C206 1.361 . S
C204 H190 0.930 . S
C204 N203 1.340 . S
C204 C208 1.407 . S
C205 C206 1.413 . S
C205 C207 1.416 . S
C205 C234 1.427 . S
C206 C198 1.424 . S
C206 N203 1.361 . S
C206 C205 1.413 . S
C207 H196 0.931 . S
C207 C205 1.416 . S
C207 C208 1.332 . S
C208 H187 0.929 . S
C208 C204 1.407 . S
C208 C207 1.332 . S
H209 C202 0.930 . S
H210 C233 0.930 . S
H211 C234 0.929 . S
O212 Tb168 2.465 . S
O212 C232 1.264 . S
O213 Tb168 2.387 . S
O213 C224 1.264 . S
O214 Tb179 2.349 . S
O214 C224 1.243 . S
O215 Tb168 2.428 . S
O215 C232 1.256 . S
O216 Tb168 2.308 . S
O216 C231 1.266 . S
O217 Tb179 2.393 . S
O217 C231 1.248 . S
O218 Tb179 2.465 . S
O218 C243 1.264 . S
O219 Tb179 2.387 . S
O219 C235 1.264 . S
O220 Tb168 2.349 . S
O220 C235 1.243 . S
O221 Tb179 2.428 . S
O221 C243 1.256 . S
O222 Tb179 2.308 . S
O222 C242 1.266 . S
O223 Tb168 2.393 . S
O223 C242 1.248 . S
C224 O213 1.264 . S
C224 O214 1.243 . S
C225 C228 1.399 . S
C225 C230 1.383 . S
C225 C232 1.496 . S
C226 C227 1.399 . S
C226 C230 1.389 1_545 S
C227 C226 1.399 . S
C227 C229 1.380 . S
C227 H244 0.929 . S
C228 C225 1.399 . S
C228 C229 1.392 1_565 S
C228 H245 0.929 . S
C229 C227 1.380 . S
C229 C228 1.392 1_545 S
C229 H246 0.929 . S
C230 C225 1.383 . S
C230 C226 1.389 1_565 S
C230 H247 0.931 . S
C231 O216 1.266 . S
C231 O217 1.248 . S
C232 Tb168 2.802 . S
C232 O212 1.264 . S
C232 O215 1.256 . S
C232 C225 1.496 . S
C233 C200 1.448 . S
C233 H210 0.930 . S
C233 C234 1.328 . S
C234 C205 1.427 . S
C234 H211 0.929 . S
C234 C233 1.328 . S
C235 O219 1.264 . S
C235 O220 1.243 . S
C236 C239 1.399 . S
C236 C240 1.383 . S
C236 C243 1.496 . S
C237 C238 1.399 . S
C237 C240 1.389 . S
C238 C237 1.399 . S
C238 C241 1.380 . S
C238 H248 0.929 . S
C239 C236 1.399 . S
C239 C241 1.392 . S
C239 H249 0.929 . S
C240 C236 1.383 . S
C240 C237 1.389 . S
C240 H250 0.931 . S
C241 C238 1.380 . S
C241 C239 1.392 . S
C241 H251 0.929 . S
C242 O222 1.266 . S
C242 O223 1.248 . S
C243 Tb179 2.802 . S
C243 O218 1.264 . S
C243 O221 1.256 . S
C243 C236 1.496 . S
H244 C227 0.929 . S
H245 C228 0.929 . S
H246 C229 0.929 . S
H247 C230 0.931 . S
H248 C238 0.929 . S
H249 C239 0.929 . S
H250 C240 0.931 . S
H251 C241 0.929 . S
Tb252 N281 2.617 . S
Tb252 N287 2.572 . S
Tb252 O296 2.465 . S
Tb252 O297 2.387 . S
Tb252 O299 2.428 . S
Tb252 O300 2.308 . S
Tb252 O304 2.349 . S
Tb252 O307 2.393 . S
Tb252 C316 2.802 . S
C253 N254 1.379 . S
C253 C256 1.416 . S
C253 C260 1.424 . S
N254 C253 1.379 . S
N254 C257 1.334 . S
N254 Tb263 2.617 . S
C255 C257 1.390 . S
C255 C258 1.339 . S
C255 H275 0.930 . S
C256 C253 1.416 . S
C256 C258 1.416 . S
C256 C262 1.448 . S
C257 N254 1.334 . S
C257 C255 1.390 . S
C257 H268 0.930 . S
C258 C255 1.339 . S
C258 C256 1.416 . S
C258 H279 0.930 . S
C259 C260 1.413 . S
C259 C261 1.427 . S
C259 C265 1.416 . S
C260 C253 1.424 . S
C260 C259 1.413 . S
C260 N264 1.361 . S
C261 C259 1.427 . S
C261 C262 1.328 . S
C261 H276 0.929 . S
C262 C256 1.448 . S
C262 C261 1.328 . S
C262 H277 0.930 . S
Tb263 N254 2.617 . S
Tb263 N264 2.572 . S
Tb263 O298 2.349 . S
Tb263 O301 2.393 . S
Tb263 O302 2.465 . S
Tb263 O303 2.387 . S
Tb263 O305 2.428 . S
Tb263 O306 2.308 . S
Tb263 C327 2.802 . S
N264 C260 1.361 . S
N264 Tb263 2.572 . S
N264 C266 1.340 . S
C265 C259 1.416 . S
C265 C267 1.332 . S
C265 H273 0.931 . S
C266 N264 1.340 . S
C266 C267 1.407 . S
C266 H272 0.930 . S
C267 C265 1.332 . S
C267 C266 1.407 . S
C267 H269 0.929 . S
H268 C257 0.930 . S
H269 C267 0.929 . S
H270 C285 0.930 . S
H271 C292 0.929 . S
H272 C266 0.930 . S
H273 C265 0.931 . S
H274 C288 0.930 . S
H275 C255 0.930 . S
H276 C261 0.929 . S
H277 C262 0.930 . S
H278 C283 0.930 . S
H279 C258 0.930 . S
H280 C291 0.931 . S
N281 Tb252 2.617 . S
N281 C282 1.379 . S
N281 C285 1.334 . S
C282 N281 1.379 . S
C282 C284 1.416 . S
C282 C290 1.424 . S
C283 H278 0.930 . S
C283 C285 1.390 . S
C283 C286 1.339 . S
C284 C282 1.416 . S
C284 C286 1.416 . S
C284 C317 1.448 . S
C285 H270 0.930 . S
C285 N281 1.334 . S
C285 C283 1.390 . S
C286 C283 1.339 . S
C286 C284 1.416 . S
C286 H293 0.930 . S
N287 Tb252 2.572 . S
N287 C288 1.340 . S
N287 C290 1.361 . S
C288 H274 0.930 . S
C288 N287 1.340 . S
C288 C292 1.407 . S
C289 C290 1.413 . S
C289 C291 1.416 . S
C289 C318 1.427 . S
C290 C282 1.424 . S
C290 N287 1.361 . S
C290 C289 1.413 . S
C291 H280 0.931 . S
C291 C289 1.416 . S
C291 C292 1.332 . S
C292 H271 0.929 . S
C292 C288 1.407 . S
C292 C291 1.332 . S
H293 C286 0.930 . S
H294 C317 0.930 . S
H295 C318 0.929 . S
O296 Tb252 2.465 . S
O296 C316 1.264 . S
O297 Tb252 2.387 . S
O297 C308 1.264 . S
O298 Tb263 2.349 . S
O298 C308 1.243 . S
O299 Tb252 2.428 . S
O299 C316 1.256 . S
O300 Tb252 2.308 . S
O300 C315 1.266 . S
O301 Tb263 2.393 . S
O301 C315 1.248 . S
O302 Tb263 2.465 . S
O302 C327 1.264 . S
O303 Tb263 2.387 . S
O303 C319 1.264 . S
O304 Tb252 2.349 . S
O304 C319 1.243 . S
O305 Tb263 2.428 . S
O305 C327 1.256 . S
O306 Tb263 2.308 . S
O306 C326 1.266 . S
O307 Tb252 2.393 . S
O307 C326 1.248 . S
C308 O297 1.264 . S
C308 O298 1.243 . S
C309 C312 1.399 . S
C309 C314 1.383 . S
C309 C316 1.496 . S
C310 C311 1.399 . S
C310 C314 1.389 . S
C311 C310 1.399 . S
C311 C313 1.380 . S
C311 H328 0.929 . S
C312 C309 1.399 . S
C312 C313 1.392 . S
C312 H329 0.929 . S
C313 C311 1.380 . S
C313 C312 1.392 . S
C313 H330 0.929 . S
C314 C309 1.383 . S
C314 C310 1.389 . S
C314 H331 0.931 . S
C315 O300 1.266 . S
C315 O301 1.248 . S
C316 Tb252 2.802 . S
C316 O296 1.264 . S
C316 O299 1.256 . S
C316 C309 1.496 . S
C317 C284 1.448 . S
C317 H294 0.930 . S
C317 C318 1.328 . S
C318 C289 1.427 . S
C318 H295 0.929 . S
C318 C317 1.328 . S
C319 O303 1.264 . S
C319 O304 1.243 . S
C320 C323 1.399 . S
C320 C324 1.383 . S
C320 C327 1.496 . S
C321 C322 1.399 . S
C321 C324 1.389 . S
C322 C321 1.399 . S
C322 C325 1.380 . S
C322 H332 0.929 . S
C323 C320 1.399 . S
C323 C325 1.392 . S
C323 H333 0.929 . S
C324 C320 1.383 . S
C324 C321 1.389 . S
C324 H334 0.931 . S
C325 C322 1.380 . S
C325 C323 1.392 . S
C325 H335 0.929 . S
C326 O306 1.266 . S
C326 O307 1.248 . S
C327 Tb263 2.802 . S
C327 O302 1.264 . S
C327 O305 1.256 . S
C327 C320 1.496 . S
H328 C311 0.929 . S
H329 C312 0.929 . S
H330 C313 0.929 . S
H331 C314 0.931 . S
H332 C322 0.929 . S
H333 C323 0.929 . S
H334 C324 0.931 . S
H335 C325 0.929 . S
Tb336 N365 2.617 . S
Tb336 N371 2.572 . S
Tb336 O380 2.465 . S
Tb336 O381 2.387 . S
Tb336 O383 2.428 . S
Tb336 O384 2.308 . S
Tb336 O388 2.349 . S
Tb336 O391 2.393 . S
Tb336 C400 2.802 . S
C337 N338 1.379 . S
C337 C340 1.416 . S
C337 C344 1.424 . S
N338 C337 1.379 . S
N338 C341 1.334 . S
N338 Tb347 2.617 . S
C339 C341 1.390 . S
C339 C342 1.339 . S
C339 H359 0.930 . S
C340 C337 1.416 . S
C340 C342 1.416 . S
C340 C346 1.448 . S
C341 N338 1.334 . S
C341 C339 1.390 . S
C341 H352 0.930 . S
C342 C339 1.339 . S
C342 C340 1.416 . S
C342 H363 0.930 . S
C343 C344 1.413 . S
C343 C345 1.427 . S
C343 C349 1.416 . S
C344 C337 1.424 . S
C344 C343 1.413 . S
C344 N348 1.361 . S
C345 C343 1.427 . S
C345 C346 1.328 . S
C345 H360 0.929 . S
C346 C340 1.448 . S
C346 C345 1.328 . S
C346 H361 0.930 . S
Tb347 N338 2.617 . S
Tb347 N348 2.572 . S
Tb347 O382 2.349 . S
Tb347 O385 2.393 . S
Tb347 O386 2.465 . S
Tb347 O387 2.387 . S
Tb347 O389 2.428 . S
Tb347 O390 2.308 . S
Tb347 C411 2.802 . S
N348 C344 1.361 . S
N348 Tb347 2.572 . S
N348 C350 1.340 . S
C349 C343 1.416 . S
C349 C351 1.332 . S
C349 H357 0.931 . S
C350 N348 1.340 . S
C350 C351 1.407 . S
C350 H356 0.930 . S
C351 C349 1.332 . S
C351 C350 1.407 . S
C351 H353 0.929 . S
H352 C341 0.930 . S
H353 C351 0.929 . S
H354 C369 0.930 . S
H355 C376 0.929 . S
H356 C350 0.930 . S
H357 C349 0.931 . S
H358 C372 0.930 . S
H359 C339 0.930 . S
H360 C345 0.929 . S
H361 C346 0.930 . S
H362 C367 0.930 . S
H363 C342 0.930 . S
H364 C375 0.931 . S
N365 Tb336 2.617 . S
N365 C366 1.379 . S
N365 C369 1.334 . S
C366 N365 1.379 . S
C366 C368 1.416 . S
C366 C374 1.424 . S
C367 H362 0.930 . S
C367 C369 1.390 . S
C367 C370 1.339 . S
C368 C366 1.416 . S
C368 C370 1.416 . S
C368 C401 1.448 . S
C369 H354 0.930 . S
C369 N365 1.334 . S
C369 C367 1.390 . S
C370 C367 1.339 . S
C370 C368 1.416 . S
C370 H377 0.930 . S
N371 Tb336 2.572 . S
N371 C372 1.340 . S
N371 C374 1.361 . S
C372 H358 0.930 . S
C372 N371 1.340 . S
C372 C376 1.407 . S
C373 C374 1.413 . S
C373 C375 1.416 . S
C373 C402 1.427 . S
C374 C366 1.424 . S
C374 N371 1.361 . S
C374 C373 1.413 . S
C375 H364 0.931 . S
C375 C373 1.416 . S
C375 C376 1.332 . S
C376 H355 0.929 . S
C376 C372 1.407 . S
C376 C375 1.332 . S
H377 C370 0.930 . S
H378 C401 0.930 . S
H379 C402 0.929 . S
O380 Tb336 2.465 . S
O380 C400 1.264 . S
O381 Tb336 2.387 . S
O381 C392 1.264 . S
O382 Tb347 2.349 . S
O382 C392 1.243 . S
O383 Tb336 2.428 . S
O383 C400 1.256 . S
O384 Tb336 2.308 . S
O384 C399 1.266 . S
O385 Tb347 2.393 . S
O385 C399 1.248 . S
O386 Tb347 2.465 . S
O386 C411 1.264 . S
O387 Tb347 2.387 . S
O387 C403 1.264 . S
O388 Tb336 2.349 . S
O388 C403 1.243 . S
O389 Tb347 2.428 . S
O389 C411 1.256 . S
O390 Tb347 2.308 . S
O390 C410 1.266 . S
O391 Tb336 2.393 . S
O391 C410 1.248 . S
C392 O381 1.264 . S
C392 O382 1.243 . S
C393 C396 1.399 . S
C393 C398 1.383 . S
C393 C400 1.496 . S
C394 C395 1.399 . S
C394 C398 1.389 1_655 S
C395 C394 1.399 . S
C395 C397 1.380 . S
C395 H412 0.929 . S
C396 C393 1.399 . S
C396 C397 1.392 1_455 S
C396 H413 0.929 . S
C397 C395 1.380 . S
C397 C396 1.392 1_655 S
C397 H414 0.929 . S
C398 C393 1.383 . S
C398 C394 1.389 1_455 S
C398 H415 0.931 . S
C399 O384 1.266 . S
C399 O385 1.248 . S
C400 Tb336 2.802 . S
C400 O380 1.264 . S
C400 O383 1.256 . S
C400 C393 1.496 . S
C401 C368 1.448 . S
C401 H378 0.930 . S
C401 C402 1.328 . S
C402 C373 1.427 . S
C402 H379 0.929 . S
C402 C401 1.328 . S
C403 O387 1.264 . S
C403 O388 1.243 . S
C404 C407 1.399 . S
C404 C408 1.383 . S
C404 C411 1.496 . S
C405 C406 1.399 . S
C405 C408 1.389 . S
C406 C405 1.399 . S
C406 C409 1.380 . S
C406 H416 0.929 . S
C407 C404 1.399 . S
C407 C409 1.392 . S
C407 H417 0.929 . S
C408 C404 1.383 . S
C408 C405 1.389 . S
C408 H418 0.931 . S
C409 C406 1.380 . S
C409 C407 1.392 . S
C409 H419 0.929 . S
C410 O390 1.266 . S
C410 O391 1.248 . S
C411 Tb347 2.802 . S
C411 O386 1.264 . S
C411 O389 1.256 . S
C411 C404 1.496 . S
H412 C395 0.929 . S
H413 C396 0.929 . S
H414 C397 0.929 . S
H415 C398 0.931 . S
H416 C406 0.929 . S
H417 C407 0.929 . S
H418 C408 0.931 . S
H419 C409 0.929 . S
Tb420 N449 2.617 . S
Tb420 N455 2.572 . S
Tb420 O464 2.465 . S
Tb420 O465 2.387 . S
Tb420 O467 2.428 . S
Tb420 O468 2.308 . S
Tb420 O472 2.349 . S
Tb420 O475 2.393 . S
Tb420 C484 2.802 . S
C421 N422 1.379 . S
C421 C424 1.416 . S
C421 C428 1.424 . S
N422 C421 1.379 . S
N422 C425 1.334 . S
N422 Tb431 2.617 . S
C423 C425 1.390 . S
C423 C426 1.339 . S
C423 H443 0.930 . S
C424 C421 1.416 . S
C424 C426 1.416 . S
C424 C430 1.448 . S
C425 N422 1.334 . S
C425 C423 1.390 . S
C425 H436 0.930 . S
C426 C423 1.339 . S
C426 C424 1.416 . S
C426 H447 0.930 . S
C427 C428 1.413 . S
C427 C429 1.427 . S
C427 C433 1.416 . S
C428 C421 1.424 . S
C428 C427 1.413 . S
C428 N432 1.361 . S
C429 C427 1.427 . S
C429 C430 1.328 . S
C429 H444 0.929 . S
C430 C424 1.448 . S
C430 C429 1.328 . S
C430 H445 0.930 . S
Tb431 N422 2.617 . S
Tb431 N432 2.572 . S
Tb431 O466 2.349 . S
Tb431 O469 2.393 . S
Tb431 O470 2.465 . S
Tb431 O471 2.387 . S
Tb431 O473 2.428 . S
Tb431 O474 2.308 . S
Tb431 C495 2.802 . S
N432 C428 1.361 . S
N432 Tb431 2.572 . S
N432 C434 1.340 . S
C433 C427 1.416 . S
C433 C435 1.332 . S
C433 H441 0.931 . S
C434 N432 1.340 . S
C434 C435 1.407 . S
C434 H440 0.930 . S
C435 C433 1.332 . S
C435 C434 1.407 . S
C435 H437 0.929 . S
H436 C425 0.930 . S
H437 C435 0.929 . S
H438 C453 0.930 . S
H439 C460 0.929 . S
H440 C434 0.930 . S
H441 C433 0.931 . S
H442 C456 0.930 . S
H443 C423 0.930 . S
H444 C429 0.929 . S
H445 C430 0.930 . S
H446 C451 0.930 . S
H447 C426 0.930 . S
H448 C459 0.931 . S
N449 Tb420 2.617 . S
N449 C450 1.379 . S
N449 C453 1.334 . S
C450 N449 1.379 . S
C450 C452 1.416 . S
C450 C458 1.424 . S
C451 H446 0.930 . S
C451 C453 1.390 . S
C451 C454 1.339 . S
C452 C450 1.416 . S
C452 C454 1.416 . S
C452 C485 1.448 . S
C453 H438 0.930 . S
C453 N449 1.334 . S
C453 C451 1.390 . S
C454 C451 1.339 . S
C454 C452 1.416 . S
C454 H461 0.930 . S
N455 Tb420 2.572 . S
N455 C456 1.340 . S
N455 C458 1.361 . S
C456 H442 0.930 . S
C456 N455 1.340 . S
C456 C460 1.407 . S
C457 C458 1.413 . S
C457 C459 1.416 . S
C457 C486 1.427 . S
C458 C450 1.424 . S
C458 N455 1.361 . S
C458 C457 1.413 . S
C459 H448 0.931 . S
C459 C457 1.416 . S
C459 C460 1.332 . S
C460 H439 0.929 . S
C460 C456 1.407 . S
C460 C459 1.332 . S
H461 C454 0.930 . S
H462 C485 0.930 . S
H463 C486 0.929 . S
O464 Tb420 2.465 . S
O464 C484 1.264 . S
O465 Tb420 2.387 . S
O465 C476 1.264 . S
O466 Tb431 2.349 . S
O466 C476 1.243 . S
O467 Tb420 2.428 . S
O467 C484 1.256 . S
O468 Tb420 2.308 . S
O468 C483 1.266 . S
O469 Tb431 2.393 . S
O469 C483 1.248 . S
O470 Tb431 2.465 . S
O470 C495 1.264 . S
O471 Tb431 2.387 . S
O471 C487 1.264 . S
O472 Tb420 2.349 . S
O472 C487 1.243 . S
O473 Tb431 2.428 . S
O473 C495 1.256 . S
O474 Tb431 2.308 . S
O474 C494 1.266 . S
O475 Tb420 2.393 . S
O475 C494 1.248 . S
C476 O465 1.264 . S
C476 O466 1.243 . S
C477 C480 1.399 . S
C477 C482 1.383 . S
C477 C484 1.496 . S
C478 C479 1.399 . S
C478 C482 1.389 1_565 S
C479 C478 1.399 . S
C479 C481 1.380 . S
C479 H496 0.929 . S
C480 C477 1.399 . S
C480 C481 1.392 1_545 S
C480 H497 0.929 . S
C481 C479 1.380 . S
C481 C480 1.392 1_565 S
C481 H498 0.929 . S
C482 C477 1.383 . S
C482 C478 1.389 1_545 S
C482 H499 0.931 . S
C483 O468 1.266 . S
C483 O469 1.248 . S
C484 Tb420 2.802 . S
C484 O464 1.264 . S
C484 O467 1.256 . S
C484 C477 1.496 . S
C485 C452 1.448 . S
C485 H462 0.930 . S
C485 C486 1.328 . S
C486 C457 1.427 . S
C486 H463 0.929 . S
C486 C485 1.328 . S
C487 O471 1.264 . S
C487 O472 1.243 . S
C488 C491 1.399 . S
C488 C492 1.383 . S
C488 C495 1.496 . S
C489 C490 1.399 . S
C489 C492 1.389 . S
C490 C489 1.399 . S
C490 C493 1.380 . S
C490 H500 0.929 . S
C491 C488 1.399 . S
C491 C493 1.392 . S
C491 H501 0.929 . S
C492 C488 1.383 . S
C492 C489 1.389 . S
C492 H502 0.931 . S
C493 C490 1.380 . S
C493 C491 1.392 . S
C493 H503 0.929 . S
C494 O474 1.266 . S
C494 O475 1.248 . S
C495 Tb431 2.802 . S
C495 O470 1.264 . S
C495 O473 1.256 . S
C495 C488 1.496 . S
H496 C479 0.929 . S
H497 C480 0.929 . S
H498 C481 0.929 . S
H499 C482 0.931 . S
H500 C490 0.929 . S
H501 C491 0.929 . S
H502 C492 0.931 . S
H503 C493 0.929 . S
Tb504 N533 2.617 . S
Tb504 N539 2.572 . S
Tb504 O548 2.465 . S
Tb504 O549 2.387 . S
Tb504 O551 2.428 . S
Tb504 O552 2.308 . S
Tb504 O556 2.349 . S
Tb504 O559 2.393 . S
Tb504 C568 2.802 . S
C505 N506 1.379 . S
C505 C508 1.416 . S
C505 C512 1.424 . S
N506 C505 1.379 . S
N506 C509 1.334 . S
N506 Tb515 2.617 . S
C507 C509 1.390 . S
C507 C510 1.339 . S
C507 H527 0.930 . S
C508 C505 1.416 . S
C508 C510 1.416 . S
C508 C514 1.448 . S
C509 N506 1.334 . S
C509 C507 1.390 . S
C509 H520 0.930 . S
C510 C507 1.339 . S
C510 C508 1.416 . S
C510 H531 0.930 . S
C511 C512 1.413 . S
C511 C513 1.427 . S
C511 C517 1.416 . S
C512 C505 1.424 . S
C512 C511 1.413 . S
C512 N516 1.361 . S
C513 C511 1.427 . S
C513 C514 1.328 . S
C513 H528 0.929 . S
C514 C508 1.448 . S
C514 C513 1.328 . S
C514 H529 0.930 . S
Tb515 N506 2.617 . S
Tb515 N516 2.572 . S
Tb515 O550 2.349 . S
Tb515 O553 2.393 . S
Tb515 O554 2.465 . S
Tb515 O555 2.387 . S
Tb515 O557 2.428 . S
Tb515 O558 2.308 . S
Tb515 C579 2.802 . S
N516 C512 1.361 . S
N516 Tb515 2.572 . S
N516 C518 1.340 . S
C517 C511 1.416 . S
C517 C519 1.332 . S
C517 H525 0.931 . S
C518 N516 1.340 . S
C518 C519 1.407 . S
C518 H524 0.930 . S
C519 C517 1.332 . S
C519 C518 1.407 . S
C519 H521 0.929 . S
H520 C509 0.930 . S
H521 C519 0.929 . S
H522 C537 0.930 . S
H523 C544 0.929 . S
H524 C518 0.930 . S
H525 C517 0.931 . S
H526 C540 0.930 . S
H527 C507 0.930 . S
H528 C513 0.929 . S
H529 C514 0.930 . S
H530 C535 0.930 . S
H531 C510 0.930 . S
H532 C543 0.931 . S
N533 Tb504 2.617 . S
N533 C534 1.379 . S
N533 C537 1.334 . S
C534 N533 1.379 . S
C534 C536 1.416 . S
C534 C542 1.424 . S
C535 H530 0.930 . S
C535 C537 1.390 . S
C535 C538 1.339 . S
C536 C534 1.416 . S
C536 C538 1.416 . S
C536 C569 1.448 . S
C537 H522 0.930 . S
C537 N533 1.334 . S
C537 C535 1.390 . S
C538 C535 1.339 . S
C538 C536 1.416 . S
C538 H545 0.930 . S
N539 Tb504 2.572 . S
N539 C540 1.340 . S
N539 C542 1.361 . S
C540 H526 0.930 . S
C540 N539 1.340 . S
C540 C544 1.407 . S
C541 C542 1.413 . S
C541 C543 1.416 . S
C541 C570 1.427 . S
C542 C534 1.424 . S
C542 N539 1.361 . S
C542 C541 1.413 . S
C543 H532 0.931 . S
C543 C541 1.416 . S
C543 C544 1.332 . S
C544 H523 0.929 . S
C544 C540 1.407 . S
C544 C543 1.332 . S
H545 C538 0.930 . S
H546 C569 0.930 . S
H547 C570 0.929 . S
O548 Tb504 2.465 . S
O548 C568 1.264 . S
O549 Tb504 2.387 . S
O549 C560 1.264 . S
O550 Tb515 2.349 . S
O550 C560 1.243 . S
O551 Tb504 2.428 . S
O551 C568 1.256 . S
O552 Tb504 2.308 . S
O552 C567 1.266 . S
O553 Tb515 2.393 . S
O553 C567 1.248 . S
O554 Tb515 2.465 . S
O554 C579 1.264 . S
O555 Tb515 2.387 . S
O555 C571 1.264 . S
O556 Tb504 2.349 . S
O556 C571 1.243 . S
O557 Tb515 2.428 . S
O557 C579 1.256 . S
O558 Tb515 2.308 . S
O558 C578 1.266 . S
O559 Tb504 2.393 . S
O559 C578 1.248 . S
C560 O549 1.264 . S
C560 O550 1.243 . S
C561 C564 1.399 . S
C561 C566 1.383 . S
C561 C568 1.496 . S
C562 C563 1.399 . S
C562 C566 1.389 . S
C563 C562 1.399 . S
C563 C565 1.380 . S
C563 H580 0.929 . S
C564 C561 1.399 . S
C564 C565 1.392 . S
C564 H581 0.929 . S
C565 C563 1.380 . S
C565 C564 1.392 . S
C565 H582 0.929 . S
C566 C561 1.383 . S
C566 C562 1.389 . S
C566 H583 0.931 . S
C567 O552 1.266 . S
C567 O553 1.248 . S
C568 Tb504 2.802 . S
C568 O548 1.264 . S
C568 O551 1.256 . S
C568 C561 1.496 . S
C569 C536 1.448 . S
C569 H546 0.930 . S
C569 C570 1.328 . S
C570 C541 1.427 . S
C570 H547 0.929 . S
C570 C569 1.328 . S
C571 O555 1.264 . S
C571 O556 1.243 . S
C572 C575 1.399 . S
C572 C576 1.383 . S
C572 C579 1.496 . S
C573 C574 1.399 . S
C573 C576 1.389 . S
C574 C573 1.399 . S
C574 C577 1.380 . S
C574 H584 0.929 . S
C575 C572 1.399 . S
C575 C577 1.392 . S
C575 H585 0.929 . S
C576 C572 1.383 . S
C576 C573 1.389 . S
C576 H586 0.931 . S
C577 C574 1.380 . S
C577 C575 1.392 . S
C577 H587 0.929 . S
C578 O558 1.266 . S
C578 O559 1.248 . S
C579 Tb515 2.802 . S
C579 O554 1.264 . S
C579 O557 1.256 . S
C579 C572 1.496 . S
H580 C563 0.929 . S
H581 C564 0.929 . S
H582 C565 0.929 . S
H583 C566 0.931 . S
H584 C574 0.929 . S
H585 C575 0.929 . S
H586 C576 0.931 . S
H587 C577 0.929 . S
Tb588 N617 2.617 . S
Tb588 N623 2.572 . S
Tb588 O632 2.465 . S
Tb588 O633 2.387 . S
Tb588 O635 2.428 . S
Tb588 O636 2.308 . S
Tb588 O640 2.349 . S
Tb588 O643 2.393 . S
Tb588 C652 2.802 . S
C589 N590 1.379 . S
C589 C592 1.416 . S
C589 C596 1.424 . S
N590 C589 1.379 . S
N590 C593 1.334 . S
N590 Tb599 2.617 . S
C591 C593 1.390 . S
C591 C594 1.339 . S
C591 H611 0.930 . S
C592 C589 1.416 . S
C592 C594 1.416 . S
C592 C598 1.448 . S
C593 N590 1.334 . S
C593 C591 1.390 . S
C593 H604 0.930 . S
C594 C591 1.339 . S
C594 C592 1.416 . S
C594 H615 0.930 . S
C595 C596 1.413 . S
C595 C597 1.427 . S
C595 C601 1.416 . S
C596 C589 1.424 . S
C596 C595 1.413 . S
C596 N600 1.361 . S
C597 C595 1.427 . S
C597 C598 1.328 . S
C597 H612 0.929 . S
C598 C592 1.448 . S
C598 C597 1.328 . S
C598 H613 0.930 . S
Tb599 N590 2.617 . S
Tb599 N600 2.572 . S
Tb599 O634 2.349 . S
Tb599 O637 2.393 . S
Tb599 O638 2.465 . S
Tb599 O639 2.387 . S
Tb599 O641 2.428 . S
Tb599 O642 2.308 . S
Tb599 C663 2.802 . S
N600 C596 1.361 . S
N600 Tb599 2.572 . S
N600 C602 1.340 . S
C601 C595 1.416 . S
C601 C603 1.332 . S
C601 H609 0.931 . S
C602 N600 1.340 . S
C602 C603 1.407 . S
C602 H608 0.930 . S
C603 C601 1.332 . S
C603 C602 1.407 . S
C603 H605 0.929 . S
H604 C593 0.930 . S
H605 C603 0.929 . S
H606 C621 0.930 . S
H607 C628 0.929 . S
H608 C602 0.930 . S
H609 C601 0.931 . S
H610 C624 0.930 . S
H611 C591 0.930 . S
H612 C597 0.929 . S
H613 C598 0.930 . S
H614 C619 0.930 . S
H615 C594 0.930 . S
H616 C627 0.931 . S
N617 Tb588 2.617 . S
N617 C618 1.379 . S
N617 C621 1.334 . S
C618 N617 1.379 . S
C618 C620 1.416 . S
C618 C626 1.424 . S
C619 H614 0.930 . S
C619 C621 1.390 . S
C619 C622 1.339 . S
C620 C618 1.416 . S
C620 C622 1.416 . S
C620 C653 1.448 . S
C621 H606 0.930 . S
C621 N617 1.334 . S
C621 C619 1.390 . S
C622 C619 1.339 . S
C622 C620 1.416 . S
C622 H629 0.930 . S
N623 Tb588 2.572 . S
N623 C624 1.340 . S
N623 C626 1.361 . S
C624 H610 0.930 . S
C624 N623 1.340 . S
C624 C628 1.407 . S
C625 C626 1.413 . S
C625 C627 1.416 . S
C625 C654 1.427 . S
C626 C618 1.424 . S
C626 N623 1.361 . S
C626 C625 1.413 . S
C627 H616 0.931 . S
C627 C625 1.416 . S
C627 C628 1.332 . S
C628 H607 0.929 . S
C628 C624 1.407 . S
C628 C627 1.332 . S
H629 C622 0.930 . S
H630 C653 0.930 . S
H631 C654 0.929 . S
O632 Tb588 2.465 . S
O632 C652 1.264 . S
O633 Tb588 2.387 . S
O633 C644 1.264 . S
O634 Tb599 2.349 . S
O634 C644 1.243 . S
O635 Tb588 2.428 . S
O635 C652 1.256 . S
O636 Tb588 2.308 . S
O636 C651 1.266 . S
O637 Tb599 2.393 . S
O637 C651 1.248 . S
O638 Tb599 2.465 . S
O638 C663 1.264 . S
O639 Tb599 2.387 . S
O639 C655 1.264 . S
O640 Tb588 2.349 . S
O640 C655 1.243 . S
O641 Tb599 2.428 . S
O641 C663 1.256 . S
O642 Tb599 2.308 . S
O642 C662 1.266 . S
O643 Tb588 2.393 . S
O643 C662 1.248 . S
C644 O633 1.264 . S
C644 O634 1.243 . S
C645 C648 1.399 . S
C645 C650 1.383 . S
C645 C652 1.496 . S
C646 C647 1.399 . S
C646 C650 1.389 1_455 S
C647 C646 1.399 . S
C647 C649 1.380 . S
C647 H664 0.929 . S
C648 C645 1.399 . S
C648 C649 1.392 1_655 S
C648 H665 0.929 . S
C649 C647 1.380 . S
C649 C648 1.392 1_455 S
C649 H666 0.929 . S
C650 C645 1.383 . S
C650 C646 1.389 1_655 S
C650 H667 0.931 . S
C651 O636 1.266 . S
C651 O637 1.248 . S
C652 Tb588 2.802 . S
C652 O632 1.264 . S
C652 O635 1.256 . S
C652 C645 1.496 . S
C653 C620 1.448 . S
C653 H630 0.930 . S
C653 C654 1.328 . S
C654 C625 1.427 . S
C654 H631 0.929 . S
C654 C653 1.328 . S
C655 O639 1.264 . S
C655 O640 1.243 . S
C656 C659 1.399 . S
C656 C660 1.383 . S
C656 C663 1.496 . S
C657 C658 1.399 . S
C657 C660 1.389 . S
C658 C657 1.399 . S
C658 C661 1.380 . S
C658 H668 0.929 . S
C659 C656 1.399 . S
C659 C661 1.392 . S
C659 H669 0.929 . S
C660 C656 1.383 . S
C660 C657 1.389 . S
C660 H670 0.931 . S
C661 C658 1.380 . S
C661 C659 1.392 . S
C661 H671 0.929 . S
C662 O642 1.266 . S
C662 O643 1.248 . S
C663 Tb599 2.802 . S
C663 O638 1.264 . S
C663 O641 1.256 . S
C663 C656 1.496 . S
H664 C647 0.929 . S
H665 C648 0.929 . S
H666 C649 0.929 . S
H667 C650 0.931 . S
H668 C658 0.929 . S
H669 C659 0.929 . S
H670 C660 0.931 . S
H671 C661 0.929 . S
Tb672 N701 2.617 . S
Tb672 N707 2.572 . S
Tb672 O716 2.465 . S
Tb672 O717 2.387 . S
Tb672 O719 2.428 . S
Tb672 O720 2.308 . S
Tb672 O724 2.349 . S
Tb672 O727 2.393 . S
Tb672 C736 2.802 . S
C673 N674 1.379 . S
C673 C676 1.416 . S
C673 C680 1.424 . S
N674 C673 1.379 . S
N674 C677 1.334 . S
N674 Tb683 2.617 . S
C675 C677 1.390 . S
C675 C678 1.339 . S
C675 H695 0.930 . S
C676 C673 1.416 . S
C676 C678 1.416 . S
C676 C682 1.448 . S
C677 N674 1.334 . S
C677 C675 1.390 . S
C677 H688 0.930 . S
C678 C675 1.339 . S
C678 C676 1.416 . S
C678 H699 0.930 . S
C679 C680 1.413 . S
C679 C681 1.427 . S
C679 C685 1.416 . S
C680 C673 1.424 . S
C680 C679 1.413 . S
C680 N684 1.361 . S
C681 C679 1.427 . S
C681 C682 1.328 . S
C681 H696 0.929 . S
C682 C676 1.448 . S
C682 C681 1.328 . S
C682 H697 0.930 . S
Tb683 N674 2.617 . S
Tb683 N684 2.572 . S
Tb683 O718 2.349 . S
Tb683 O721 2.393 . S
Tb683 O722 2.465 . S
Tb683 O723 2.387 . S
Tb683 O725 2.428 . S
Tb683 O726 2.308 . S
Tb683 C747 2.802 . S
N684 C680 1.361 . S
N684 Tb683 2.572 . S
N684 C686 1.340 . S
C685 C679 1.416 . S
C685 C687 1.332 . S
C685 H693 0.931 . S
C686 N684 1.340 . S
C686 C687 1.407 . S
C686 H692 0.930 . S
C687 C685 1.332 . S
C687 C686 1.407 . S
C687 H689 0.929 . S
H688 C677 0.930 . S
H689 C687 0.929 . S
H690 C705 0.930 . S
H691 C712 0.929 . S
H692 C686 0.930 . S
H693 C685 0.931 . S
H694 C708 0.930 . S
H695 C675 0.930 . S
H696 C681 0.929 . S
H697 C682 0.930 . S
H698 C703 0.930 . S
H699 C678 0.930 . S
H700 C711 0.931 . S
N701 Tb672 2.617 . S
N701 C702 1.379 . S
N701 C705 1.334 . S
C702 N701 1.379 . S
C702 C704 1.416 . S
C702 C710 1.424 . S
C703 H698 0.930 . S
C703 C705 1.390 . S
C703 C706 1.339 . S
C704 C702 1.416 . S
C704 C706 1.416 . S
C704 C737 1.448 . S
C705 H690 0.930 . S
C705 N701 1.334 . S
C705 C703 1.390 . S
C706 C703 1.339 . S
C706 C704 1.416 . S
C706 H713 0.930 . S
N707 Tb672 2.572 . S
N707 C708 1.340 . S
N707 C710 1.361 . S
C708 H694 0.930 . S
C708 N707 1.340 . S
C708 C712 1.407 . S
C709 C710 1.413 . S
C709 C711 1.416 . S
C709 C738 1.427 . S
C710 C702 1.424 . S
C710 N707 1.361 . S
C710 C709 1.413 . S
C711 H700 0.931 . S
C711 C709 1.416 . S
C711 C712 1.332 . S
C712 H691 0.929 . S
C712 C708 1.407 . S
C712 C711 1.332 . S
H713 C706 0.930 . S
H714 C737 0.930 . S
H715 C738 0.929 . S
O716 Tb672 2.465 . S
O716 C736 1.264 . S
O717 Tb672 2.387 . S
O717 C728 1.264 . S
O718 Tb683 2.349 . S
O718 C728 1.243 . S
O719 Tb672 2.428 . S
O719 C736 1.256 . S
O720 Tb672 2.308 . S
O720 C735 1.266 . S
O721 Tb683 2.393 . S
O721 C735 1.248 . S
O722 Tb683 2.465 . S
O722 C747 1.264 . S
O723 Tb683 2.387 . S
O723 C739 1.264 . S
O724 Tb672 2.349 . S
O724 C739 1.243 . S
O725 Tb683 2.428 . S
O725 C747 1.256 . S
O726 Tb683 2.308 . S
O726 C746 1.266 . S
O727 Tb672 2.393 . S
O727 C746 1.248 . S
C728 O717 1.264 . S
C728 O718 1.243 . S
C729 C732 1.399 . S
C729 C734 1.383 . S
C729 C736 1.496 . S
C730 C731 1.399 . S
C730 C734 1.389 1_545 S
C731 C730 1.399 . S
C731 C733 1.380 . S
C731 H748 0.929 . S
C732 C729 1.399 . S
C732 C733 1.392 1_565 S
C732 H749 0.929 . S
C733 C731 1.380 . S
C733 C732 1.392 1_545 S
C733 H750 0.929 . S
C734 C729 1.383 . S
C734 C730 1.389 1_565 S
C734 H751 0.931 . S
C735 O720 1.266 . S
C735 O721 1.248 . S
C736 Tb672 2.802 . S
C736 O716 1.264 . S
C736 O719 1.256 . S
C736 C729 1.496 . S
C737 C704 1.448 . S
C737 H714 0.930 . S
C737 C738 1.328 . S
C738 C709 1.427 . S
C738 H715 0.929 . S
C738 C737 1.328 . S
C739 O723 1.264 . S
C739 O724 1.243 . S
C740 C743 1.399 . S
C740 C744 1.383 . S
C740 C747 1.496 . S
C741 C742 1.399 . S
C741 C744 1.389 . S
C742 C741 1.399 . S
C742 C745 1.380 . S
C742 H752 0.929 . S
C743 C740 1.399 . S
C743 C745 1.392 . S
C743 H753 0.929 . S
C744 C740 1.383 . S
C744 C741 1.389 . S
C744 H754 0.931 . S
C745 C742 1.380 . S
C745 C743 1.392 . S
C745 H755 0.929 . S
C746 O726 1.266 . S
C746 O727 1.248 . S
C747 Tb683 2.802 . S
C747 O722 1.264 . S
C747 O725 1.256 . S
C747 C740 1.496 . S
H748 C731 0.929 . S
H749 C732 0.929 . S
H750 C733 0.929 . S
H751 C734 0.931 . S
H752 C742 0.929 . S
H753 C743 0.929 . S
H754 C744 0.931 . S
H755 C745 0.929 . S
Tb756 N785 2.617 . S
Tb756 N791 2.572 . S
Tb756 O800 2.465 . S
Tb756 O801 2.387 . S
Tb756 O803 2.428 . S
Tb756 O804 2.308 . S
Tb756 O808 2.349 . S
Tb756 O811 2.393 . S
Tb756 C820 2.802 . S
C757 N758 1.379 . S
C757 C760 1.416 . S
C757 C764 1.424 . S
N758 C757 1.379 . S
N758 C761 1.334 . S
N758 Tb767 2.617 . S
C759 C761 1.390 . S
C759 C762 1.339 . S
C759 H779 0.930 . S
C760 C757 1.416 . S
C760 C762 1.416 . S
C760 C766 1.448 . S
C761 N758 1.334 . S
C761 C759 1.390 . S
C761 H772 0.930 . S
C762 C759 1.339 . S
C762 C760 1.416 . S
C762 H783 0.930 . S
C763 C764 1.413 . S
C763 C765 1.427 . S
C763 C769 1.416 . S
C764 C757 1.424 . S
C764 C763 1.413 . S
C764 N768 1.361 . S
C765 C763 1.427 . S
C765 C766 1.328 . S
C765 H780 0.929 . S
C766 C760 1.448 . S
C766 C765 1.328 . S
C766 H781 0.930 . S
Tb767 N758 2.617 . S
Tb767 N768 2.572 . S
Tb767 O802 2.349 . S
Tb767 O805 2.393 . S
Tb767 O806 2.465 . S
Tb767 O807 2.387 . S
Tb767 O809 2.428 . S
Tb767 O810 2.308 . S
Tb767 C831 2.802 . S
N768 C764 1.361 . S
N768 Tb767 2.572 . S
N768 C770 1.340 . S
C769 C763 1.416 . S
C769 C771 1.332 . S
C769 H777 0.931 . S
C770 N768 1.340 . S
C770 C771 1.407 . S
C770 H776 0.930 . S
C771 C769 1.332 . S
C771 C770 1.407 . S
C771 H773 0.929 . S
H772 C761 0.930 . S
H773 C771 0.929 . S
H774 C789 0.930 . S
H775 C796 0.929 . S
H776 C770 0.930 . S
H777 C769 0.931 . S
H778 C792 0.930 . S
H779 C759 0.930 . S
H780 C765 0.929 . S
H781 C766 0.930 . S
H782 C787 0.930 . S
H783 C762 0.930 . S
H784 C795 0.931 . S
N785 Tb756 2.617 . S
N785 C786 1.379 . S
N785 C789 1.334 . S
C786 N785 1.379 . S
C786 C788 1.416 . S
C786 C794 1.424 . S
C787 H782 0.930 . S
C787 C789 1.390 . S
C787 C790 1.339 . S
C788 C786 1.416 . S
C788 C790 1.416 . S
C788 C821 1.448 . S
C789 H774 0.930 . S
C789 N785 1.334 . S
C789 C787 1.390 . S
C790 C787 1.339 . S
C790 C788 1.416 . S
C790 H797 0.930 . S
N791 Tb756 2.572 . S
N791 C792 1.340 . S
N791 C794 1.361 . S
C792 H778 0.930 . S
C792 N791 1.340 . S
C792 C796 1.407 . S
C793 C794 1.413 . S
C793 C795 1.416 . S
C793 C822 1.427 . S
C794 C786 1.424 . S
C794 N791 1.361 . S
C794 C793 1.413 . S
C795 H784 0.931 . S
C795 C793 1.416 . S
C795 C796 1.332 . S
C796 H775 0.929 . S
C796 C792 1.407 . S
C796 C795 1.332 . S
H797 C790 0.930 . S
H798 C821 0.930 . S
H799 C822 0.929 . S
O800 Tb756 2.465 . S
O800 C820 1.264 . S
O801 Tb756 2.387 . S
O801 C812 1.264 . S
O802 Tb767 2.349 . S
O802 C812 1.243 . S
O803 Tb756 2.428 . S
O803 C820 1.256 . S
O804 Tb756 2.308 . S
O804 C819 1.266 . S
O805 Tb767 2.393 . S
O805 C819 1.248 . S
O806 Tb767 2.465 . S
O806 C831 1.264 . S
O807 Tb767 2.387 . S
O807 C823 1.264 . S
O808 Tb756 2.349 . S
O808 C823 1.243 . S
O809 Tb767 2.428 . S
O809 C831 1.256 . S
O810 Tb767 2.308 . S
O810 C830 1.266 . S
O811 Tb756 2.393 . S
O811 C830 1.248 . S
C812 O801 1.264 . S
C812 O802 1.243 . S
C813 C816 1.399 . S
C813 C818 1.383 . S
C813 C820 1.496 . S
C814 C815 1.399 . S
C814 C818 1.389 . S
C815 C814 1.399 . S
C815 C817 1.380 . S
C815 H832 0.929 . S
C816 C813 1.399 . S
C816 C817 1.392 . S
C816 H833 0.929 . S
C817 C815 1.380 . S
C817 C816 1.392 . S
C817 H834 0.929 . S
C818 C813 1.383 . S
C818 C814 1.389 . S
C818 H835 0.931 . S
C819 O804 1.266 . S
C819 O805 1.248 . S
C820 Tb756 2.802 . S
C820 O800 1.264 . S
C820 O803 1.256 . S
C820 C813 1.496 . S
C821 C788 1.448 . S
C821 H798 0.930 . S
C821 C822 1.328 . S
C822 C793 1.427 . S
C822 H799 0.929 . S
C822 C821 1.328 . S
C823 O807 1.264 . S
C823 O808 1.243 . S
C824 C827 1.399 . S
C824 C828 1.383 . S
C824 C831 1.496 . S
C825 C826 1.399 . S
C825 C828 1.389 . S
C826 C825 1.399 . S
C826 C829 1.380 . S
C826 H836 0.929 . S
C827 C824 1.399 . S
C827 C829 1.392 . S
C827 H837 0.929 . S
C828 C824 1.383 . S
C828 C825 1.389 . S
C828 H838 0.931 . S
C829 C826 1.380 . S
C829 C827 1.392 . S
C829 H839 0.929 . S
C830 O810 1.266 . S
C830 O811 1.248 . S
C831 Tb767 2.802 . S
C831 O806 1.264 . S
C831 O809 1.256 . S
C831 C824 1.496 . S
H832 C815 0.929 . S
H833 C816 0.929 . S
H834 C817 0.929 . S
H835 C818 0.931 . S
H836 C826 0.929 . S
H837 C827 0.929 . S
H838 C828 0.931 . S
H839 C829 0.929 . S
Tb840 N869 2.617 . S
Tb840 N875 2.572 . S
Tb840 O884 2.465 . S
Tb840 O885 2.387 . S
Tb840 O887 2.428 . S
Tb840 O888 2.308 . S
Tb840 O892 2.349 . S
Tb840 O895 2.393 . S
Tb840 C904 2.802 . S
C841 N842 1.379 . S
C841 C844 1.416 . S
C841 C848 1.424 . S
N842 C841 1.379 . S
N842 C845 1.334 . S
N842 Tb851 2.617 . S
C843 C845 1.390 . S
C843 C846 1.339 . S
C843 H863 0.930 . S
C844 C841 1.416 . S
C844 C846 1.416 . S
C844 C850 1.448 . S
C845 N842 1.334 . S
C845 C843 1.390 . S
C845 H856 0.930 . S
C846 C843 1.339 . S
C846 C844 1.416 . S
C846 H867 0.930 . S
C847 C848 1.413 . S
C847 C849 1.427 . S
C847 C853 1.416 . S
C848 C841 1.424 . S
C848 C847 1.413 . S
C848 N852 1.361 . S
C849 C847 1.427 . S
C849 C850 1.328 . S
C849 H864 0.929 . S
C850 C844 1.448 . S
C850 C849 1.328 . S
C850 H865 0.930 . S
Tb851 N842 2.617 . S
Tb851 N852 2.572 . S
Tb851 O886 2.349 . S
Tb851 O889 2.393 . S
Tb851 O890 2.465 . S
Tb851 O891 2.387 . S
Tb851 O893 2.428 . S
Tb851 O894 2.308 . S
Tb851 C915 2.802 . S
N852 C848 1.361 . S
N852 Tb851 2.572 . S
N852 C854 1.340 . S
C853 C847 1.416 . S
C853 C855 1.332 . S
C853 H861 0.931 . S
C854 N852 1.340 . S
C854 C855 1.407 . S
C854 H860 0.930 . S
C855 C853 1.332 . S
C855 C854 1.407 . S
C855 H857 0.929 . S
H856 C845 0.930 . S
H857 C855 0.929 . S
H858 C873 0.930 . S
H859 C880 0.929 . S
H860 C854 0.930 . S
H861 C853 0.931 . S
H862 C876 0.930 . S
H863 C843 0.930 . S
H864 C849 0.929 . S
H865 C850 0.930 . S
H866 C871 0.930 . S
H867 C846 0.930 . S
H868 C879 0.931 . S
N869 Tb840 2.617 . S
N869 C870 1.379 . S
N869 C873 1.334 . S
C870 N869 1.379 . S
C870 C872 1.416 . S
C870 C878 1.424 . S
C871 H866 0.930 . S
C871 C873 1.390 . S
C871 C874 1.339 . S
C872 C870 1.416 . S
C872 C874 1.416 . S
C872 C905 1.448 . S
C873 H858 0.930 . S
C873 N869 1.334 . S
C873 C871 1.390 . S
C874 C871 1.339 . S
C874 C872 1.416 . S
C874 H881 0.930 . S
N875 Tb840 2.572 . S
N875 C876 1.340 . S
N875 C878 1.361 . S
C876 H862 0.930 . S
C876 N875 1.340 . S
C876 C880 1.407 . S
C877 C878 1.413 . S
C877 C879 1.416 . S
C877 C906 1.427 . S
C878 C870 1.424 . S
C878 N875 1.361 . S
C878 C877 1.413 . S
C879 H868 0.931 . S
C879 C877 1.416 . S
C879 C880 1.332 . S
C880 H859 0.929 . S
C880 C876 1.407 . S
C880 C879 1.332 . S
H881 C874 0.930 . S
H882 C905 0.930 . S
H883 C906 0.929 . S
O884 Tb840 2.465 . S
O884 C904 1.264 . S
O885 Tb840 2.387 . S
O885 C896 1.264 . S
O886 Tb851 2.349 . S
O886 C896 1.243 . S
O887 Tb840 2.428 . S
O887 C904 1.256 . S
O888 Tb840 2.308 . S
O888 C903 1.266 . S
O889 Tb851 2.393 . S
O889 C903 1.248 . S
O890 Tb851 2.465 . S
O890 C915 1.264 . S
O891 Tb851 2.387 . S
O891 C907 1.264 . S
O892 Tb840 2.349 . S
O892 C907 1.243 . S
O893 Tb851 2.428 . S
O893 C915 1.256 . S
O894 Tb851 2.308 . S
O894 C914 1.266 . S
O895 Tb840 2.393 . S
O895 C914 1.248 . S
C896 O885 1.264 . S
C896 O886 1.243 . S
C897 C900 1.399 . S
C897 C902 1.383 . S
C897 C904 1.496 . S
C898 C899 1.399 . S
C898 C902 1.389 1_655 S
C899 C898 1.399 . S
C899 C901 1.380 . S
C899 H916 0.929 . S
C900 C897 1.399 . S
C900 C901 1.392 1_455 S
C900 H917 0.929 . S
C901 C899 1.380 . S
C901 C900 1.392 1_655 S
C901 H918 0.929 . S
C902 C897 1.383 . S
C902 C898 1.389 1_455 S
C902 H919 0.931 . S
C903 O888 1.266 . S
C903 O889 1.248 . S
C904 Tb840 2.802 . S
C904 O884 1.264 . S
C904 O887 1.256 . S
C904 C897 1.496 . S
C905 C872 1.448 . S
C905 H882 0.930 . S
C905 C906 1.328 . S
C906 C877 1.427 . S
C906 H883 0.929 . S
C906 C905 1.328 . S
C907 O891 1.264 . S
C907 O892 1.243 . S
C908 C911 1.399 . S
C908 C912 1.383 . S
C908 C915 1.496 . S
C909 C910 1.399 . S
C909 C912 1.389 . S
C910 C909 1.399 . S
C910 C913 1.380 . S
C910 H920 0.929 . S
C911 C908 1.399 . S
C911 C913 1.392 . S
C911 H921 0.929 . S
C912 C908 1.383 . S
C912 C909 1.389 . S
C912 H922 0.931 . S
C913 C910 1.380 . S
C913 C911 1.392 . S
C913 H923 0.929 . S
C914 O894 1.266 . S
C914 O895 1.248 . S
C915 Tb851 2.802 . S
C915 O890 1.264 . S
C915 O893 1.256 . S
C915 C908 1.496 . S
H916 C899 0.929 . S
H917 C900 0.929 . S
H918 C901 0.929 . S
H919 C902 0.931 . S
H920 C910 0.929 . S
H921 C911 0.929 . S
H922 C912 0.931 . S
H923 C913 0.929 . S
Tb924 N953 2.617 . S
Tb924 N959 2.572 . S
Tb924 O968 2.465 . S
Tb924 O969 2.387 . S
Tb924 O971 2.428 . S
Tb924 O972 2.308 . S
Tb924 O976 2.349 . S
Tb924 O979 2.393 . S
Tb924 C988 2.802 . S
C925 N926 1.379 . S
C925 C928 1.416 . S
C925 C932 1.424 . S
N926 C925 1.379 . S
N926 C929 1.334 . S
N926 Tb935 2.617 . S
C927 C929 1.390 . S
C927 C930 1.339 . S
C927 H947 0.930 . S
C928 C925 1.416 . S
C928 C930 1.416 . S
C928 C934 1.448 . S
C929 N926 1.334 . S
C929 C927 1.390 . S
C929 H940 0.930 . S
C930 C927 1.339 . S
C930 C928 1.416 . S
C930 H951 0.930 . S
C931 C932 1.413 . S
C931 C933 1.427 . S
C931 C937 1.416 . S
C932 C925 1.424 . S
C932 C931 1.413 . S
C932 N936 1.361 . S
C933 C931 1.427 . S
C933 C934 1.328 . S
C933 H948 0.929 . S
C934 C928 1.448 . S
C934 C933 1.328 . S
C934 H949 0.930 . S
Tb935 N926 2.617 . S
Tb935 N936 2.572 . S
Tb935 O970 2.349 . S
Tb935 O973 2.393 . S
Tb935 O974 2.465 . S
Tb935 O975 2.387 . S
Tb935 O977 2.428 . S
Tb935 O978 2.308 . S
Tb935 C999 2.802 . S
N936 C932 1.361 . S
N936 Tb935 2.572 . S
N936 C938 1.340 . S
C937 C931 1.416 . S
C937 C939 1.332 . S
C937 H945 0.931 . S
C938 N936 1.340 . S
C938 C939 1.407 . S
C938 H944 0.930 . S
C939 C937 1.332 . S
C939 C938 1.407 . S
C939 H941 0.929 . S
H940 C929 0.930 . S
H941 C939 0.929 . S
H942 C957 0.930 . S
H943 C964 0.929 . S
H944 C938 0.930 . S
H945 C937 0.931 . S
H946 C960 0.930 . S
H947 C927 0.930 . S
H948 C933 0.929 . S
H949 C934 0.930 . S
H950 C955 0.930 . S
H951 C930 0.930 . S
H952 C963 0.931 . S
N953 Tb924 2.617 . S
N953 C954 1.379 . S
N953 C957 1.334 . S
C954 N953 1.379 . S
C954 C956 1.416 . S
C954 C962 1.424 . S
C955 H950 0.930 . S
C955 C957 1.390 . S
C955 C958 1.339 . S
C956 C954 1.416 . S
C956 C958 1.416 . S
C956 C989 1.448 . S
C957 H942 0.930 . S
C957 N953 1.334 . S
C957 C955 1.390 . S
C958 C955 1.339 . S
C958 C956 1.416 . S
C958 H965 0.930 . S
N959 Tb924 2.572 . S
N959 C960 1.340 . S
N959 C962 1.361 . S
C960 H946 0.930 . S
C960 N959 1.340 . S
C960 C964 1.407 . S
C961 C962 1.413 . S
C961 C963 1.416 . S
C961 C990 1.427 . S
C962 C954 1.424 . S
C962 N959 1.361 . S
C962 C961 1.413 . S
C963 H952 0.931 . S
C963 C961 1.416 . S
C963 C964 1.332 . S
C964 H943 0.929 . S
C964 C960 1.407 . S
C964 C963 1.332 . S
H965 C958 0.930 . S
H966 C989 0.930 . S
H967 C990 0.929 . S
O968 Tb924 2.465 . S
O968 C988 1.264 . S
O969 Tb924 2.387 . S
O969 C980 1.264 . S
O970 Tb935 2.349 . S
O970 C980 1.243 . S
O971 Tb924 2.428 . S
O971 C988 1.256 . S
O972 Tb924 2.308 . S
O972 C987 1.266 . S
O973 Tb935 2.393 . S
O973 C987 1.248 . S
O974 Tb935 2.465 . S
O974 C999 1.264 . S
O975 Tb935 2.387 . S
O975 C991 1.264 . S
O976 Tb924 2.349 . S
O976 C991 1.243 . S
O977 Tb935 2.428 . S
O977 C999 1.256 . S
O978 Tb935 2.308 . S
O978 C998 1.266 . S
O979 Tb924 2.393 . S
O979 C998 1.248 . S
C980 O969 1.264 . S
C980 O970 1.243 . S
C981 C984 1.399 . S
C981 C986 1.383 . S
C981 C988 1.496 . S
C982 C983 1.399 . S
C982 C986 1.389 1_565 S
C983 C982 1.399 . S
C983 C985 1.380 . S
C983 H1000 0.929 . S
C984 C981 1.399 . S
C984 C985 1.392 1_545 S
C984 H1001 0.929 . S
C985 C983 1.380 . S
C985 C984 1.392 1_565 S
C985 H1002 0.929 . S
C986 C981 1.383 . S
C986 C982 1.389 1_545 S
C986 H1003 0.931 . S
C987 O972 1.266 . S
C987 O973 1.248 . S
C988 Tb924 2.802 . S
C988 O968 1.264 . S
C988 O971 1.256 . S
C988 C981 1.496 . S
C989 C956 1.448 . S
C989 H966 0.930 . S
C989 C990 1.328 . S
C990 C961 1.427 . S
C990 H967 0.929 . S
C990 C989 1.328 . S
C991 O975 1.264 . S
C991 O976 1.243 . S
C992 C995 1.399 . S
C992 C996 1.383 . S
C992 C999 1.496 . S
C993 C994 1.399 . S
C993 C996 1.389 . S
C994 C993 1.399 . S
C994 C997 1.380 . S
C994 H1004 0.929 . S
C995 C992 1.399 . S
C995 C997 1.392 . S
C995 H1005 0.929 . S
C996 C992 1.383 . S
C996 C993 1.389 . S
C996 H1006 0.931 . S
C997 C994 1.380 . S
C997 C995 1.392 . S
C997 H1007 0.929 . S
C998 O978 1.266 . S
C998 O979 1.248 . S
C999 Tb935 2.802 . S
C999 O974 1.264 . S
C999 O977 1.256 . S
C999 C992 1.496 . S
H1000 C983 0.929 . S
H1001 C984 0.929 . S
H1002 C985 0.929 . S
H1003 C986 0.931 . S
H1004 C994 0.929 . S
H1005 C995 0.929 . S
H1006 C996 0.931 . S
H1007 C997 0.929 . S
H1008 C1016 0.929 . S
H1009 C1018 0.930 . S
H1010 C1020 0.930 . S
H1011 C1023 0.929 . S
H1012 C1026 0.930 . S
H1013 C1028 0.960 . S
H1014 C1028 0.960 . S
H1015 C1028 0.960 . S
C1016 H1008 0.929 . S
C1016 C1017 1.377 . S
C1016 C1018 1.384 . S
C1017 C1016 1.377 . S
C1017 C1023 1.390 . S
C1018 H1009 0.930 . S
C1018 C1016 1.384 . S
C1018 C1019 1.372 . S
C1019 C1018 1.372 . S
C1019 C1020 1.400 . S
C1019 C1024 1.490 . S
C1020 H1010 0.930 . S
C1020 C1019 1.400 . S
C1020 C1023 1.386 . S
H1021 C1037 0.930 . S
H1022 C1038 0.931 . S
C1023 H1011 0.929 . S
C1023 C1017 1.390 . S
C1023 C1020 1.386 . S
C1024 C1019 1.490 . S
C1024 C1026 1.395 . S
C1024 C1027 1.403 1_565 S
H1025 C1031 0.930 . S
C1026 H1012 0.930 . S
C1026 C1024 1.395 . S
C1026 C1029 1.403 1_565 S
C1027 C1024 1.403 1_545 S
C1027 C1028 1.524 . S
C1027 C1031 1.400 . S
C1028 H1013 0.960 . S
C1028 H1014 0.960 . S
C1028 H1015 0.960 . S
C1028 C1027 1.524 . S
C1029 C1026 1.403 1_545 S
C1029 C1030 1.392 . S
C1029 C1033 1.495 . S
C1030 C1029 1.392 . S
C1030 C1031 1.385 . S
C1030 C1032 1.478 . S
C1031 H1025 0.930 . S
C1031 C1027 1.400 . S
C1031 C1030 1.385 . S
C1032 C1030 1.478 . S
C1032 C1034 1.381 . S
C1032 C1038 1.383 . S
C1033 C1029 1.495 . S
C1033 H1039 0.959 . S
C1033 H1040 0.961 . S
C1033 H1041 0.960 . S
C1034 C1032 1.381 . S
C1034 C1035 1.394 . S
C1034 H1042 0.930 . S
C1035 C1034 1.394 . S
C1035 C1036 1.383 . S
C1035 H1043 0.929 . S
C1036 C1035 1.383 . S
C1036 C1037 1.377 . S
C1037 H1021 0.930 . S
C1037 C1036 1.377 . S
C1037 C1038 1.379 . S
C1038 H1022 0.931 . S
C1038 C1032 1.383 . S
C1038 C1037 1.379 . S
H1039 C1033 0.959 . S
H1040 C1033 0.961 . S
H1041 C1033 0.960 . S
H1042 C1034 0.930 . S
H1043 C1035 0.929 . S
H1044 C1052 0.929 . S
H1045 C1054 0.930 . S
H1046 C1056 0.930 . S
H1047 C1059 0.929 . S
H1048 C1062 0.930 . S
H1049 C1064 0.960 . S
H1050 C1064 0.960 . S
H1051 C1064 0.960 . S
C1052 H1044 0.929 . S
C1052 C1053 1.377 . S
C1052 C1054 1.384 . S
C1053 C1052 1.377 . S
C1053 C1059 1.390 . S
C1054 H1045 0.930 . S
C1054 C1052 1.384 . S
C1054 C1055 1.372 . S
C1055 C1054 1.372 . S
C1055 C1056 1.400 . S
C1055 C1060 1.490 . S
C1056 H1046 0.930 . S
C1056 C1055 1.400 . S
C1056 C1059 1.386 . S
H1057 C1073 0.930 . S
H1058 C1074 0.931 . S
C1059 H1047 0.929 . S
C1059 C1053 1.390 . S
C1059 C1056 1.386 . S
C1060 C1055 1.490 . S
C1060 C1062 1.395 . S
C1060 C1063 1.403 . S
H1061 C1067 0.930 . S
C1062 H1048 0.930 . S
C1062 C1060 1.395 . S
C1062 C1065 1.403 . S
C1063 C1060 1.403 . S
C1063 C1064 1.524 . S
C1063 C1067 1.400 . S
C1064 H1049 0.960 . S
C1064 H1050 0.960 . S
C1064 H1051 0.960 . S
C1064 C1063 1.524 . S
C1065 C1062 1.403 . S
C1065 C1066 1.392 . S
C1065 C1069 1.495 . S
C1066 C1065 1.392 . S
C1066 C1067 1.385 . S
C1066 C1068 1.478 . S
C1067 H1061 0.930 . S
C1067 C1063 1.400 . S
C1067 C1066 1.385 . S
C1068 C1066 1.478 . S
C1068 C1070 1.381 . S
C1068 C1074 1.383 . S
C1069 C1065 1.495 . S
C1069 H1075 0.959 . S
C1069 H1076 0.961 . S
C1069 H1077 0.960 . S
C1070 C1068 1.381 . S
C1070 C1071 1.394 . S
C1070 H1078 0.930 . S
C1071 C1070 1.394 . S
C1071 C1072 1.383 . S
C1071 H1079 0.929 . S
C1072 C1071 1.383 . S
C1072 C1073 1.377 . S
C1073 H1057 0.930 . S
C1073 C1072 1.377 . S
C1073 C1074 1.379 . S
C1074 H1058 0.931 . S
C1074 C1068 1.383 . S
C1074 C1073 1.379 . S
H1075 C1069 0.959 . S
H1076 C1069 0.961 . S
H1077 C1069 0.960 . S
H1078 C1070 0.930 . S
H1079 C1071 0.929 . S
H1080 C1088 0.929 . S
H1081 C1090 0.930 . S
H1082 C1092 0.930 . S
H1083 C1095 0.929 . S
H1084 C1098 0.930 . S
H1085 C1100 0.960 . S
H1086 C1100 0.960 . S
H1087 C1100 0.960 . S
C1088 H1080 0.929 . S
C1088 C1089 1.377 . S
C1088 C1090 1.384 . S
C1089 C1088 1.377 . S
C1089 C1095 1.390 . S
C1090 H1081 0.930 . S
C1090 C1088 1.384 . S
C1090 C1091 1.372 . S
C1091 C1090 1.372 . S
C1091 C1092 1.400 . S
C1091 C1096 1.490 . S
C1092 H1082 0.930 . S
C1092 C1091 1.400 . S
C1092 C1095 1.386 . S
H1093 C1109 0.930 . S
H1094 C1110 0.931 . S
C1095 H1083 0.929 . S
C1095 C1089 1.390 . S
C1095 C1092 1.386 . S
C1096 C1091 1.490 . S
C1096 C1098 1.395 . S
C1096 C1099 1.403 . S
H1097 C1103 0.930 . S
C1098 H1084 0.930 . S
C1098 C1096 1.395 . S
C1098 C1101 1.403 1_655 S
C1099 C1096 1.403 . S
C1099 C1100 1.524 . S
C1099 C1103 1.400 . S
C1100 H1085 0.960 . S
C1100 H1086 0.960 . S
C1100 H1087 0.960 . S
C1100 C1099 1.524 . S
C1101 C1098 1.403 1_455 S
C1101 C1102 1.392 . S
C1101 C1105 1.495 . S
C1102 C1101 1.392 . S
C1102 C1103 1.385 1_455 S
C1102 C1104 1.478 . S
C1103 H1097 0.930 . S
C1103 C1099 1.400 . S
C1103 C1102 1.385 1_655 S
C1104 C1102 1.478 . S
C1104 C1106 1.381 . S
C1104 C1110 1.383 . S
C1105 C1101 1.495 . S
C1105 H1111 0.959 . S
C1105 H1112 0.961 . S
C1105 H1113 0.960 . S
C1106 C1104 1.381 . S
C1106 C1107 1.394 . S
C1106 H1114 0.930 . S
C1107 C1106 1.394 . S
C1107 C1108 1.383 . S
C1107 H1115 0.929 . S
C1108 C1107 1.383 . S
C1108 C1109 1.377 . S
C1109 H1093 0.930 . S
C1109 C1108 1.377 . S
C1109 C1110 1.379 . S
C1110 H1094 0.931 . S
C1110 C1104 1.383 . S
C1110 C1109 1.379 . S
H1111 C1105 0.959 . S
H1112 C1105 0.961 . S
H1113 C1105 0.960 . S
H1114 C1106 0.930 . S
H1115 C1107 0.929 . S
H1116 C1124 0.929 . S
H1117 C1126 0.930 . S
H1118 C1128 0.930 . S
H1119 C1131 0.929 . S
H1120 C1134 0.930 . S
H1121 C1136 0.960 . S
H1122 C1136 0.960 . S
H1123 C1136 0.960 . S
C1124 H1116 0.929 . S
C1124 C1125 1.377 . S
C1124 C1126 1.384 . S
C1125 C1124 1.377 . S
C1125 C1131 1.390 . S
C1126 H1117 0.930 . S
C1126 C1124 1.384 . S
C1126 C1127 1.372 . S
C1127 C1126 1.372 . S
C1127 C1128 1.400 . S
C1127 C1132 1.490 . S
C1128 H1118 0.930 . S
C1128 C1127 1.400 . S
C1128 C1131 1.386 . S
H1129 C1145 0.930 . S
H1130 C1146 0.931 . S
C1131 H1119 0.929 . S
C1131 C1125 1.390 . S
C1131 C1128 1.386 . S
C1132 C1127 1.490 . S
C1132 C1134 1.395 . S
C1132 C1135 1.403 . S
H1133 C1139 0.930 . S
C1134 H1120 0.930 . S
C1134 C1132 1.395 . S
C1134 C1137 1.403 . S
C1135 C1132 1.403 . S
C1135 C1136 1.524 . S
C1135 C1139 1.400 1_565 S
C1136 H1121 0.960 . S
C1136 H1122 0.960 . S
C1136 H1123 0.960 . S
C1136 C1135 1.524 . S
C1137 C1134 1.403 . S
C1137 C1138 1.392 1_565 S
C1137 C1141 1.495 . S
C1138 C1137 1.392 1_545 S
C1138 C1139 1.385 . S
C1138 C1140 1.478 . S
C1139 H1133 0.930 . S
C1139 C1135 1.400 1_545 S
C1139 C1138 1.385 . S
C1140 C1138 1.478 . S
C1140 C1142 1.381 . S
C1140 C1146 1.383 . S
C1141 C1137 1.495 . S
C1141 H1147 0.959 . S
C1141 H1148 0.961 . S
C1141 H1149 0.960 . S
C1142 C1140 1.381 . S
C1142 C1143 1.394 . S
C1142 H1150 0.930 . S
C1143 C1142 1.394 . S
C1143 C1144 1.383 . S
C1143 H1151 0.929 . S
C1144 C1143 1.383 . S
C1144 C1145 1.377 . S
C1145 H1129 0.930 . S
C1145 C1144 1.377 . S
C1145 C1146 1.379 . S
C1146 H1130 0.931 . S
C1146 C1140 1.383 . S
C1146 C1145 1.379 . S
H1147 C1141 0.959 . S
H1148 C1141 0.961 . S
H1149 C1141 0.960 . S
H1150 C1142 0.930 . S
H1151 C1143 0.929 . S
H1152 C1160 0.929 . S
H1153 C1162 0.930 . S
H1154 C1164 0.930 . S
H1155 C1167 0.929 . S
H1156 C1170 0.930 . S
H1157 C1172 0.960 . S
H1158 C1172 0.960 . S
H1159 C1172 0.960 . S
C1160 H1152 0.929 . S
C1160 C1161 1.377 . S
C1160 C1162 1.384 . S
C1161 C1160 1.377 . S
C1161 C1167 1.390 . S
C1162 H1153 0.930 . S
C1162 C1160 1.384 . S
C1162 C1163 1.372 . S
C1163 C1162 1.372 . S
C1163 C1164 1.400 . S
C1163 C1168 1.490 . S
C1164 H1154 0.930 . S
C1164 C1163 1.400 . S
C1164 C1167 1.386 . S
H1165 C1181 0.930 . S
H1166 C1182 0.931 . S
C1167 H1155 0.929 . S
C1167 C1161 1.390 . S
C1167 C1164 1.386 . S
C1168 C1163 1.490 . S
C1168 C1170 1.395 . S
C1168 C1171 1.403 . S
H1169 C1175 0.930 . S
C1170 H1156 0.930 . S
C1170 C1168 1.395 . S
C1170 C1173 1.403 . S
C1171 C1168 1.403 . S
C1171 C1172 1.524 . S
C1171 C1175 1.400 . S
C1172 H1157 0.960 . S
C1172 H1158 0.960 . S
C1172 H1159 0.960 . S
C1172 C1171 1.524 . S
C1173 C1170 1.403 . S
C1173 C1174 1.392 . S
C1173 C1177 1.495 . S
C1174 C1173 1.392 . S
C1174 C1175 1.385 . S
C1174 C1176 1.478 . S
C1175 H1169 0.930 . S
C1175 C1171 1.400 . S
C1175 C1174 1.385 . S
C1176 C1174 1.478 . S
C1176 C1178 1.381 . S
C1176 C1182 1.383 . S
C1177 C1173 1.495 . S
C1177 H1183 0.959 . S
C1177 H1184 0.961 . S
C1177 H1185 0.960 . S
C1178 C1176 1.381 . S
C1178 C1179 1.394 . S
C1178 H1186 0.930 . S
C1179 C1178 1.394 . S
C1179 C1180 1.383 . S
C1179 H1187 0.929 . S
C1180 C1179 1.383 . S
C1180 C1181 1.377 . S
C1181 H1165 0.930 . S
C1181 C1180 1.377 . S
C1181 C1182 1.379 . S
C1182 H1166 0.931 . S
C1182 C1176 1.383 . S
C1182 C1181 1.379 . S
H1183 C1177 0.959 . S
H1184 C1177 0.961 . S
H1185 C1177 0.960 . S
H1186 C1178 0.930 . S
H1187 C1179 0.929 . S
H1188 C1196 0.929 . S
H1189 C1198 0.930 . S
H1190 C1200 0.930 . S
H1191 C1203 0.929 . S
H1192 C1206 0.930 . S
H1193 C1208 0.960 . S
H1194 C1208 0.960 . S
H1195 C1208 0.960 . S
C1196 H1188 0.929 . S
C1196 C1197 1.377 . S
C1196 C1198 1.384 . S
C1197 C1196 1.377 . S
C1197 C1203 1.390 . S
C1198 H1189 0.930 . S
C1198 C1196 1.384 . S
C1198 C1199 1.372 . S
C1199 C1198 1.372 . S
C1199 C1200 1.400 . S
C1199 C1204 1.490 . S
C1200 H1190 0.930 . S
C1200 C1199 1.400 . S
C1200 C1203 1.386 . S
H1201 C1217 0.930 . S
H1202 C1218 0.931 . S
C1203 H1191 0.929 . S
C1203 C1197 1.390 . S
C1203 C1200 1.386 . S
C1204 C1199 1.490 . S
C1204 C1206 1.395 1_655 S
C1204 C1207 1.403 1_655 S
H1205 C1211 0.930 . S
C1206 H1192 0.930 . S
C1206 C1204 1.395 1_455 S
C1206 C1209 1.403 . S
C1207 C1204 1.403 1_455 S
C1207 C1208 1.524 1_455 S
C1207 C1211 1.400 . S
C1208 H1193 0.960 . S
C1208 H1194 0.960 . S
C1208 H1195 0.960 . S
C1208 C1207 1.524 1_655 S
C1209 C1206 1.403 . S
C1209 C1210 1.392 . S
C1209 C1213 1.495 . S
C1210 C1209 1.392 . S
C1210 C1211 1.385 . S
C1210 C1212 1.478 . S
C1211 H1205 0.930 . S
C1211 C1207 1.400 . S
C1211 C1210 1.385 . S
C1212 C1210 1.478 . S
C1212 C1214 1.381 . S
C1212 C1218 1.383 . S
C1213 C1209 1.495 . S
C1213 H1219 0.959 . S
C1213 H1220 0.961 . S
C1213 H1221 0.960 . S
C1214 C1212 1.381 . S
C1214 C1215 1.394 . S
C1214 H1222 0.930 . S
C1215 C1214 1.394 . S
C1215 C1216 1.383 . S
C1215 H1223 0.929 . S
C1216 C1215 1.383 . S
C1216 C1217 1.377 . S
C1217 H1201 0.930 . S
C1217 C1216 1.377 . S
C1217 C1218 1.379 . S
C1218 H1202 0.931 . S
C1218 C1212 1.383 . S
C1218 C1217 1.379 . S
H1219 C1213 0.959 . S
H1220 C1213 0.961 . S
H1221 C1213 0.960 . S
H1222 C1214 0.930 . S
H1223 C1215 0.929 . S
H1224 C1232 0.929 . S
H1225 C1234 0.930 . S
H1226 C1236 0.930 . S
H1227 C1239 0.929 . S
H1228 C1242 0.930 1_455 S
H1229 C1244 0.960 1_655 S
H1230 C1244 0.960 . S
H1231 C1244 0.960 . S
C1232 H1224 0.929 . S
C1232 C1233 1.377 . S
C1232 C1234 1.384 . S
C1233 C1232 1.377 . S
C1233 C1239 1.390 . S
C1234 H1225 0.930 . S
C1234 C1232 1.384 . S
C1234 C1235 1.372 . S
C1235 C1234 1.372 . S
C1235 C1236 1.400 . S
C1235 C1240 1.490 . S
C1236 H1226 0.930 . S
C1236 C1235 1.400 . S
C1236 C1239 1.386 . S
H1237 C1253 0.930 . S
H1238 C1254 0.931 . S
C1239 H1227 0.929 . S
C1239 C1233 1.390 . S
C1239 C1236 1.386 . S
C1240 C1235 1.490 . S
C1240 C1242 1.395 1_455 S
C1240 C1243 1.403 1_455 S
H1241 C1247 0.930 . S
C1242 H1228 0.930 1_655 S
C1242 C1240 1.395 1_655 S
C1242 C1245 1.403 . S
C1243 C1240 1.403 1_655 S
C1243 C1244 1.524 1_655 S
C1243 C1247 1.400 . S
C1244 H1229 0.960 1_455 S
C1244 H1230 0.960 . S
C1244 H1231 0.960 . S
C1244 C1243 1.524 1_455 S
C1245 C1242 1.403 . S
C1245 C1246 1.392 . S
C1245 C1249 1.495 . S
C1246 C1245 1.392 . S
C1246 C1247 1.385 . S
C1246 C1248 1.478 . S
C1247 H1241 0.930 . S
C1247 C1243 1.400 . S
C1247 C1246 1.385 . S
C1248 C1246 1.478 . S
C1248 C1250 1.381 . S
C1248 C1254 1.383 . S
C1249 C1245 1.495 . S
C1249 H1255 0.959 . S
C1249 H1256 0.961 . S
C1249 H1257 0.960 . S
C1250 C1248 1.381 . S
C1250 C1251 1.394 . S
C1250 H1258 0.930 . S
C1251 C1250 1.394 . S
C1251 C1252 1.383 . S
C1251 H1259 0.929 . S
C1252 C1251 1.383 . S
C1252 C1253 1.377 . S
C1253 H1237 0.930 . S
C1253 C1252 1.377 . S
C1253 C1254 1.379 . S
C1254 H1238 0.931 . S
C1254 C1248 1.383 . S
C1254 C1253 1.379 . S
H1255 C1249 0.959 . S
H1256 C1249 0.961 . S
H1257 C1249 0.960 . S
H1258 C1250 0.930 . S
H1259 C1251 0.929 . S
H1260 C1268 0.929 . S
H1261 C1270 0.930 . S
H1262 C1272 0.930 . S
H1263 C1275 0.929 . S
H1264 C1278 0.930 . S
H1265 C1280 0.960 . S
H1266 C1280 0.960 . S
H1267 C1280 0.960 . S
C1268 H1260 0.929 . S
C1268 C1269 1.377 . S
C1268 C1270 1.384 . S
C1269 C1268 1.377 . S
C1269 C1275 1.390 . S
C1270 H1261 0.930 . S
C1270 C1268 1.384 . S
C1270 C1271 1.372 . S
C1271 C1270 1.372 . S
C1271 C1272 1.400 . S
C1271 C1276 1.490 . S
C1272 H1262 0.930 . S
C1272 C1271 1.400 . S
C1272 C1275 1.386 . S
H1273 C1289 0.930 . S
H1274 C1290 0.931 . S
C1275 H1263 0.929 . S
C1275 C1269 1.390 . S
C1275 C1272 1.386 . S
C1276 C1271 1.490 . S
C1276 C1278 1.395 . S
C1276 C1279 1.403 . S
H1277 C1283 0.930 . S
C1278 H1264 0.930 . S
C1278 C1276 1.395 . S
C1278 C1281 1.403 1_565 S
C1279 C1276 1.403 . S
C1279 C1280 1.524 . S
C1279 C1283 1.400 . S
C1280 H1265 0.960 . S
C1280 H1266 0.960 . S
C1280 H1267 0.960 . S
C1280 C1279 1.524 . S
C1281 C1278 1.403 1_545 S
C1281 C1282 1.392 . S
C1281 C1285 1.495 . S
C1282 C1281 1.392 . S
C1282 C1283 1.385 1_545 S
C1282 C1284 1.478 . S
C1283 H1277 0.930 . S
C1283 C1279 1.400 . S
C1283 C1282 1.385 1_565 S
C1284 C1282 1.478 . S
C1284 C1286 1.381 . S
C1284 C1290 1.383 . S
C1285 C1281 1.495 . S
C1285 H1291 0.959 . S
C1285 H1292 0.961 . S
C1285 H1293 0.960 . S
C1286 C1284 1.381 . S
C1286 C1287 1.394 . S
C1286 H1294 0.930 . S
C1287 C1286 1.394 . S
C1287 C1288 1.383 . S
C1287 H1295 0.929 . S
C1288 C1287 1.383 . S
C1288 C1289 1.377 . S
C1289 H1273 0.930 . S
C1289 C1288 1.377 . S
C1289 C1290 1.379 . S
C1290 H1274 0.931 . S
C1290 C1284 1.383 . S
C1290 C1289 1.379 . S
H1291 C1285 0.959 . S
H1292 C1285 0.961 . S
H1293 C1285 0.960 . S
H1294 C1286 0.930 . S
H1295 C1287 0.929 . S
H1296 C1304 0.929 . S
H1297 C1306 0.930 . S
H1298 C1308 0.930 . S
H1299 C1311 0.929 . S
H1300 C1314 0.930 . S
H1301 C1316 0.960 . S
H1302 C1316 0.960 . S
H1303 C1316 0.960 . S
C1304 H1296 0.929 . S
C1304 C1305 1.377 . S
C1304 C1306 1.384 . S
C1305 C1304 1.377 . S
C1305 C1311 1.390 . S
C1306 H1297 0.930 . S
C1306 C1304 1.384 . S
C1306 C1307 1.372 . S
C1307 C1306 1.372 . S
C1307 C1308 1.400 . S
C1307 C1312 1.490 . S
C1308 H1298 0.930 . S
C1308 C1307 1.400 . S
C1308 C1311 1.386 . S
H1309 C1325 0.930 . S
H1310 C1326 0.931 . S
C1311 H1299 0.929 . S
C1311 C1305 1.390 . S
C1311 C1308 1.386 . S
C1312 C1307 1.490 . S
C1312 C1314 1.395 . S
C1312 C1315 1.403 . S
H1313 C1319 0.930 . S
C1314 H1300 0.930 . S
C1314 C1312 1.395 . S
C1314 C1317 1.403 . S
C1315 C1312 1.403 . S
C1315 C1316 1.524 . S
C1315 C1319 1.400 . S
C1316 H1301 0.960 . S
C1316 H1302 0.960 . S
C1316 H1303 0.960 . S
C1316 C1315 1.524 . S
C1317 C1314 1.403 . S
C1317 C1318 1.392 . S
C1317 C1321 1.495 . S
C1318 C1317 1.392 . S
C1318 C1319 1.385 . S
C1318 C1320 1.478 . S
C1319 H1313 0.930 . S
C1319 C1315 1.400 . S
C1319 C1318 1.385 . S
C1320 C1318 1.478 . S
C1320 C1322 1.381 . S
C1320 C1326 1.383 . S
C1321 C1317 1.495 . S
C1321 H1327 0.959 . S
C1321 H1328 0.961 . S
C1321 H1329 0.960 . S
C1322 C1320 1.381 . S
C1322 C1323 1.394 . S
C1322 H1330 0.930 . S
C1323 C1322 1.394 . S
C1323 C1324 1.383 . S
C1323 H1331 0.929 . S
C1324 C1323 1.383 . S
C1324 C1325 1.377 . S
C1325 H1309 0.930 . S
C1325 C1324 1.377 . S
C1325 C1326 1.379 . S
C1326 H1310 0.931 . S
C1326 C1320 1.383 . S
C1326 C1325 1.379 . S
H1327 C1321 0.959 . S
H1328 C1321 0.961 . S
H1329 C1321 0.960 . S
H1330 C1322 0.930 . S
H1331 C1323 0.929 . S
H1332 C1340 0.929 . S
H1333 C1342 0.930 . S
H1334 C1344 0.930 . S
H1335 C1347 0.929 . S
H1336 C1350 0.930 . S
H1337 C1352 0.960 . S
H1338 C1352 0.960 . S
H1339 C1352 0.960 . S
C1340 H1332 0.929 . S
C1340 C1341 1.377 . S
C1340 C1342 1.384 . S
C1341 C1340 1.377 . S
C1341 C1347 1.390 . S
C1342 H1333 0.930 . S
C1342 C1340 1.384 . S
C1342 C1343 1.372 . S
C1343 C1342 1.372 . S
C1343 C1344 1.400 . S
C1343 C1348 1.490 . S
C1344 H1334 0.930 . S
C1344 C1343 1.400 . S
C1344 C1347 1.386 . S
H1345 C1361 0.930 . S
H1346 C1362 0.931 . S
C1347 H1335 0.929 . S
C1347 C1341 1.390 . S
C1347 C1344 1.386 . S
C1348 C1343 1.490 . S
C1348 C1350 1.395 . S
C1348 C1351 1.403 . S
H1349 C1355 0.930 . S
C1350 H1336 0.930 . S
C1350 C1348 1.395 . S
C1350 C1353 1.403 . S
C1351 C1348 1.403 . S
C1351 C1352 1.524 . S
C1351 C1355 1.400 1_455 S
C1352 H1337 0.960 . S
C1352 H1338 0.960 . S
C1352 H1339 0.960 . S
C1352 C1351 1.524 . S
C1353 C1350 1.403 . S
C1353 C1354 1.392 1_455 S
C1353 C1357 1.495 . S
C1354 C1353 1.392 1_655 S
C1354 C1355 1.385 . S
C1354 C1356 1.478 . S
C1355 H1349 0.930 . S
C1355 C1351 1.400 1_655 S
C1355 C1354 1.385 . S
C1356 C1354 1.478 . S
C1356 C1358 1.381 . S
C1356 C1362 1.383 . S
C1357 C1353 1.495 . S
C1357 H1363 0.959 . S
C1357 H1364 0.961 . S
C1357 H1365 0.984 . S
C1358 C1356 1.381 . S
C1358 C1359 1.394 . S
C1358 H1366 0.930 . S
C1359 C1358 1.394 . S
C1359 C1360 1.383 . S
C1359 H1367 0.929 . S
C1360 C1359 1.383 . S
C1360 C1361 1.377 . S
C1361 H1345 0.930 . S
C1361 C1360 1.377 . S
C1361 C1362 1.379 . S
C1362 H1346 0.931 . S
C1362 C1356 1.383 . S
C1362 C1361 1.379 . S
H1363 C1357 0.959 . S
H1364 C1357 0.961 . S
H1365 C1357 0.984 . S
H1366 C1358 0.930 . S
H1367 C1359 0.929 . S
H1368 C1376 0.929 . S
H1369 C1378 0.930 . S
H1370 C1380 0.930 . S
H1371 C1383 0.929 . S
H1372 C1386 0.930 . S
H1373 C1388 0.960 . S
H1374 C1388 0.960 . S
H1375 C1388 0.960 . S
C1376 H1368 0.929 . S
C1376 C1377 1.377 . S
C1376 C1378 1.384 . S
C1377 C1376 1.377 . S
C1377 C1383 1.390 . S
C1378 H1369 0.930 . S
C1378 C1376 1.384 . S
C1378 C1379 1.372 . S
C1379 C1378 1.372 . S
C1379 C1380 1.400 . S
C1379 C1384 1.490 . S
C1380 H1370 0.930 . S
C1380 C1379 1.400 . S
C1380 C1383 1.386 . S
H1381 C1397 0.930 . S
H1382 C1398 0.931 . S
C1383 H1371 0.929 . S
C1383 C1377 1.390 . S
C1383 C1380 1.386 . S
C1384 C1379 1.490 . S
C1384 C1386 1.395 . S
C1384 C1387 1.403 . S
H1385 C1391 0.930 . S
C1386 H1372 0.930 . S
C1386 C1384 1.395 . S
C1386 C1389 1.403 . S
C1387 C1384 1.403 . S
C1387 C1388 1.524 . S
C1387 C1391 1.400 1_545 S
C1388 H1373 0.960 . S
C1388 H1374 0.960 . S
C1388 H1375 0.960 . S
C1388 C1387 1.524 . S
C1389 C1386 1.403 . S
C1389 C1390 1.392 1_545 S
C1389 C1393 1.495 . S
C1390 C1389 1.392 1_565 S
C1390 C1391 1.385 . S
C1390 C1392 1.478 . S
C1391 H1385 0.930 . S
C1391 C1387 1.400 1_565 S
C1391 C1390 1.385 . S
C1392 C1390 1.478 . S
C1392 C1394 1.381 . S
C1392 C1398 1.383 . S
C1393 C1389 1.495 . S
C1393 H1399 0.959 . S
C1393 H1400 0.961 . S
C1393 H1401 0.960 . S
C1394 C1392 1.381 . S
C1394 C1395 1.394 . S
C1394 H1402 0.930 . S
C1395 C1394 1.394 . S
C1395 C1396 1.383 . S
C1395 H1403 0.929 . S
C1396 C1395 1.383 . S
C1396 C1397 1.377 . S
C1397 H1381 0.930 . S
C1397 C1396 1.377 . S
C1397 C1398 1.379 . S
C1398 H1382 0.931 . S
C1398 C1392 1.383 . S
C1398 C1397 1.379 . S
H1399 C1393 0.959 . S
H1400 C1393 0.961 . S
H1401 C1393 0.960 . S
H1402 C1394 0.930 . S
H1403 C1395 0.929 . S
H1404 C1412 0.929 . S
H1405 C1414 0.930 . S
H1406 C1416 0.930 . S
H1407 C1419 0.929 . S
H1408 C1422 0.930 . S
H1409 C1424 0.960 . S
H1410 C1424 0.960 . S
H1411 C1424 0.960 . S
C1412 H1404 0.929 . S
C1412 C1413 1.377 . S
C1412 C1414 1.384 . S
C1413 C1412 1.377 . S
C1413 C1419 1.390 . S
C1414 H1405 0.930 . S
C1414 C1412 1.384 . S
C1414 C1415 1.372 . S
C1415 C1414 1.372 . S
C1415 C1416 1.400 . S
C1415 C1420 1.490 . S
C1416 H1406 0.930 . S
C1416 C1415 1.400 . S
C1416 C1419 1.386 . S
H1417 C1433 0.930 . S
H1418 C1434 0.931 . S
C1419 H1407 0.929 . S
C1419 C1413 1.390 . S
C1419 C1416 1.386 . S
C1420 C1415 1.490 . S
C1420 C1422 1.395 . S
C1420 C1423 1.403 . S
H1421 C1427 0.930 . S
C1422 H1408 0.930 . S
C1422 C1420 1.395 . S
C1422 C1425 1.403 . S
C1423 C1420 1.403 . S
C1423 C1424 1.524 . S
C1423 C1427 1.400 . S
C1424 H1409 0.960 . S
C1424 H1410 0.960 . S
C1424 H1411 0.960 . S
C1424 C1423 1.524 . S
C1425 C1422 1.403 . S
C1425 C1426 1.392 . S
C1425 C1429 1.495 . S
C1426 C1425 1.392 . S
C1426 C1427 1.385 . S
C1426 C1428 1.478 . S
C1427 H1421 0.930 . S
C1427 C1423 1.400 . S
C1427 C1426 1.385 . S
C1428 C1426 1.478 . S
C1428 C1430 1.381 . S
C1428 C1434 1.383 . S
C1429 C1425 1.495 . S
C1429 H1435 0.959 . S
C1429 H1436 0.961 . S
C1429 H1437 0.960 . S
C1430 C1428 1.381 . S
C1430 C1431 1.394 . S
C1430 H1438 0.930 . S
C1431 C1430 1.394 . S
C1431 C1432 1.383 . S
C1431 H1439 0.929 . S
C1432 C1431 1.383 . S
C1432 C1433 1.377 . S
C1433 H1417 0.930 . S
C1433 C1432 1.377 . S
C1433 C1434 1.379 . S
C1434 H1418 0.931 . S
C1434 C1428 1.383 . S
C1434 C1433 1.379 . S
H1435 C1429 0.959 . S
H1436 C1429 0.961 . S
H1437 C1429 0.960 . S
H1438 C1430 0.930 . S
H1439 C1431 0.929 . S
H1440 C1448 0.929 . S
H1441 C1450 0.930 . S
H1442 C1452 0.930 . S
H1443 C1455 0.929 . S
H1444 C1458 0.930 . S
H1445 C1460 0.960 . S
H1446 C1460 0.960 . S
H1447 C1460 0.960 . S
C1448 H1440 0.929 . S
C1448 C1449 1.377 . S
C1448 C1450 1.384 . S
C1449 C1448 1.377 . S
C1449 C1455 1.390 . S
C1450 H1441 0.930 . S
C1450 C1448 1.384 . S
C1450 C1451 1.372 . S
C1451 C1450 1.372 . S
C1451 C1452 1.400 . S
C1451 C1456 1.490 . S
C1452 H1442 0.930 . S
C1452 C1451 1.400 . S
C1452 C1455 1.386 . S
H1453 C1469 0.930 . S
H1454 C1470 0.931 . S
C1455 H1443 0.929 . S
C1455 C1449 1.390 . S
C1455 C1452 1.386 . S
C1456 C1451 1.490 . S
C1456 C1458 1.395 . S
C1456 C1459 1.403 . S
H1457 C1463 0.930 . S
C1458 H1444 0.930 . S
C1458 C1456 1.395 . S
C1458 C1461 1.403 . S
C1459 C1456 1.403 . S
C1459 C1460 1.524 . S
C1459 C1463 1.400 . S
C1460 H1445 0.960 . S
C1460 H1446 0.960 . S
C1460 H1447 0.960 . S
C1460 C1459 1.524 . S
C1461 C1458 1.403 . S
C1461 C1462 1.392 . S
C1461 C1465 1.495 . S
C1462 C1461 1.392 . S
C1462 C1463 1.385 . S
C1462 C1464 1.478 . S
C1463 H1457 0.930 . S
C1463 C1459 1.400 . S
C1463 C1462 1.385 . S
C1464 C1462 1.478 . S
C1464 C1466 1.381 . S
C1464 C1470 1.383 . S
C1465 C1461 1.495 . S
C1465 H1471 0.959 . S
C1465 H1472 0.961 . S
C1465 H1473 0.960 . S
C1466 C1464 1.381 . S
C1466 C1467 1.394 . S
C1466 H1474 0.930 . S
C1467 C1466 1.394 . S
C1467 C1468 1.383 . S
C1467 H1475 0.929 . S
C1468 C1467 1.383 . S
C1468 C1469 1.377 . S
C1469 H1453 0.930 . S
C1469 C1468 1.377 . S
C1469 C1470 1.379 . S
C1470 H1454 0.931 . S
C1470 C1464 1.383 . S
C1470 C1469 1.379 . S
H1471 C1465 0.959 . S
H1472 C1465 0.961 . S
H1473 C1465 0.960 . S
H1474 C1466 0.930 . S
H1475 C1467 0.929 . S
H1476 C1484 0.929 . S
H1477 C1486 0.930 . S
H1478 C1488 0.930 . S
H1479 C1491 0.929 . S
H1480 C1494 0.930 . S
H1481 C1496 0.960 . S
H1482 C1496 0.960 . S
H1483 C1496 0.960 . S
C1484 H1476 0.929 . S
C1484 C1485 1.377 . S
C1484 C1486 1.384 . S
C1485 C1484 1.377 . S
C1485 C1491 1.390 . S
C1486 H1477 0.930 . S
C1486 C1484 1.384 . S
C1486 C1487 1.372 . S
C1487 C1486 1.372 . S
C1487 C1488 1.400 . S
C1487 C1492 1.490 . S
C1488 H1478 0.930 . S
C1488 C1487 1.400 . S
C1488 C1491 1.386 . S
H1489 C1505 0.930 . S
H1490 C1506 0.931 . S
C1491 H1479 0.929 . S
C1491 C1485 1.390 . S
C1491 C1488 1.386 . S
C1492 C1487 1.490 . S
C1492 C1494 1.395 . S
C1492 C1495 1.403 . S
H1493 C1499 0.930 . S
C1494 H1480 0.930 . S
C1494 C1492 1.395 . S
C1494 C1497 1.403 . S
C1495 C1492 1.403 . S
C1495 C1496 1.524 . S
C1495 C1499 1.400 . S
C1496 H1481 0.960 . S
C1496 H1482 0.960 . S
C1496 H1483 0.960 . S
C1496 C1495 1.524 . S
C1497 C1494 1.403 . S
C1497 C1498 1.392 . S
C1497 C1501 1.495 . S
C1498 C1497 1.392 . S
C1498 C1499 1.385 . S
C1498 C1500 1.478 . S
C1499 H1493 0.930 . S
C1499 C1495 1.400 . S
C1499 C1498 1.385 . S
C1500 C1498 1.478 . S
C1500 C1502 1.381 . S
C1500 C1506 1.383 . S
C1501 C1497 1.495 . S
C1501 H1507 0.959 . S
C1501 H1508 0.961 . S
C1501 H1509 0.960 . S
C1502 C1500 1.381 . S
C1502 C1503 1.394 . S
C1502 H1510 0.930 . S
C1503 C1502 1.394 . S
C1503 C1504 1.383 . S
C1503 H1511 0.929 . S
C1504 C1503 1.383 . S
C1504 C1505 1.377 . S
C1505 H1489 0.930 . S
C1505 C1504 1.377 . S
C1505 C1506 1.379 . S
C1506 H1490 0.931 . S
C1506 C1500 1.383 . S
C1506 C1505 1.379 . S
H1507 C1501 0.959 . S
H1508 C1501 0.961 . S
H1509 C1501 0.960 . S
H1510 C1502 0.930 . S
H1511 C1503 0.929 . S
H1512 C1520 0.929 . S
H1513 C1522 0.930 . S
H1514 C1524 0.930 . S
H1515 C1527 0.929 . S
H1516 C1530 0.930 . S
H1517 C1532 0.960 . S
H1518 C1532 0.960 . S
H1519 C1532 0.960 . S
C1520 H1512 0.929 . S
C1520 C1521 1.377 . S
C1520 C1522 1.384 . S
C1521 C1520 1.377 . S
C1521 C1527 1.390 . S
C1522 H1513 0.930 . S
C1522 C1520 1.384 . S
C1522 C1523 1.372 . S
C1523 C1522 1.372 . S
C1523 C1524 1.400 . S
C1523 C1528 1.490 . S
C1524 H1514 0.930 . S
C1524 C1523 1.400 . S
C1524 C1527 1.386 . S
H1525 C1541 0.930 . S
H1526 C1542 0.931 . S
C1527 H1515 0.929 . S
C1527 C1521 1.390 . S
C1527 C1524 1.386 . S
C1528 C1523 1.490 . S
C1528 C1530 1.395 . S
C1528 C1531 1.403 . S
H1529 C1535 0.930 . S
C1530 H1516 0.930 . S
C1530 C1528 1.395 . S
C1530 C1533 1.403 . S
C1531 C1528 1.403 . S
C1531 C1532 1.524 . S
C1531 C1535 1.400 . S
C1532 H1517 0.960 . S
C1532 H1518 0.960 . S
C1532 H1519 0.960 . S
C1532 C1531 1.524 . S
C1533 C1530 1.403 . S
C1533 C1534 1.392 . S
C1533 C1537 1.495 . S
C1534 C1533 1.392 . S
C1534 C1535 1.385 . S
C1534 C1536 1.478 . S
C1535 H1529 0.930 . S
C1535 C1531 1.400 . S
C1535 C1534 1.385 . S
C1536 C1534 1.478 . S
C1536 C1538 1.381 . S
C1536 C1542 1.383 . S
C1537 C1533 1.495 . S
C1537 H1543 0.959 . S
C1537 H1544 0.961 . S
C1537 H1545 0.960 . S
C1538 C1536 1.381 . S
C1538 C1539 1.394 . S
C1538 H1546 0.930 . S
C1539 C1538 1.394 . S
C1539 C1540 1.383 . S
C1539 H1547 0.929 . S
C1540 C1539 1.383 . S
C1540 C1541 1.377 . S
C1541 H1525 0.930 . S
C1541 C1540 1.377 . S
C1541 C1542 1.379 . S
C1542 H1526 0.931 . S
C1542 C1536 1.383 . S
C1542 C1541 1.379 . S
H1543 C1537 0.959 . S
H1544 C1537 0.961 . S
H1545 C1537 0.960 . S
H1546 C1538 0.930 . S
H1547 C1539 0.929 . S
H1548 C1556 0.929 . S
H1549 C1558 0.930 . S
H1550 C1560 0.930 . S
H1551 C1563 0.929 . S
H1552 C1566 0.930 . S
H1553 C1568 0.960 . S
H1554 C1568 0.960 . S
H1555 C1568 0.960 . S
C1556 H1548 0.929 . S
C1556 C1557 1.377 . S
C1556 C1558 1.384 . S
C1557 C1556 1.377 . S
C1557 C1563 1.390 . S
C1558 H1549 0.930 . S
C1558 C1556 1.384 . S
C1558 C1559 1.372 . S
C1559 C1558 1.372 . S
C1559 C1560 1.400 . S
C1559 C1564 1.490 . S
C1560 H1550 0.930 . S
C1560 C1559 1.400 . S
C1560 C1563 1.386 . S
H1561 C1577 0.930 . S
H1562 C1578 0.931 . S
C1563 H1551 0.929 . S
C1563 C1557 1.390 . S
C1563 C1560 1.386 . S
C1564 C1559 1.490 . S
C1564 C1566 1.395 . S
C1564 C1567 1.403 . S
H1565 C1571 0.930 . S
C1566 H1552 0.930 . S
C1566 C1564 1.395 . S
C1566 C1569 1.403 . S
C1567 C1564 1.403 . S
C1567 C1568 1.524 . S
C1567 C1571 1.400 . S
C1568 H1553 0.960 . S
C1568 H1554 0.960 . S
C1568 H1555 0.960 . S
C1568 C1567 1.524 . S
C1569 C1566 1.403 . S
C1569 C1570 1.392 . S
C1569 C1573 1.495 . S
C1570 C1569 1.392 . S
C1570 C1571 1.385 . S
C1570 C1572 1.478 . S
C1571 H1565 0.930 . S
C1571 C1567 1.400 . S
C1571 C1570 1.385 . S
C1572 C1570 1.478 . S
C1572 C1574 1.381 . S
C1572 C1578 1.383 . S
C1573 C1569 1.495 . S
C1573 H1579 0.959 . S
C1573 H1580 0.961 . S
C1573 H1581 0.960 . S
C1574 C1572 1.381 . S
C1574 C1575 1.394 . S
C1574 H1582 0.930 . S
C1575 C1574 1.394 . S
C1575 C1576 1.383 . S
C1575 H1583 0.929 . S
C1576 C1575 1.383 . S
C1576 C1577 1.377 . S
C1577 H1561 0.930 . S
C1577 C1576 1.377 . S
C1577 C1578 1.379 . S
C1578 H1562 0.931 . S
C1578 C1572 1.383 . S
C1578 C1577 1.379 . S
H1579 C1573 0.959 . S
H1580 C1573 0.961 . S
H1581 C1573 0.960 . S
H1582 C1574 0.930 . S
H1583 C1575 0.929 . S
H1584 C1592 0.929 . S
H1585 C1594 0.930 . S
H1586 C1596 0.930 . S
H1587 C1599 0.929 . S
H1588 C1602 0.930 . S
H1589 C1604 0.960 . S
H1590 C1604 0.960 . S
H1591 C1604 0.960 . S
C1592 H1584 0.929 . S
C1592 C1593 1.377 . S
C1592 C1594 1.384 . S
C1593 C1592 1.377 . S
C1593 C1599 1.390 . S
C1594 H1585 0.930 . S
C1594 C1592 1.384 . S
C1594 C1595 1.372 . S
C1595 C1594 1.372 . S
C1595 C1596 1.400 . S
C1595 C1600 1.490 . S
C1596 H1586 0.930 . S
C1596 C1595 1.400 . S
C1596 C1599 1.386 . S
H1597 C1613 0.930 . S
H1598 C1614 0.931 . S
C1599 H1587 0.929 . S
C1599 C1593 1.390 . S
C1599 C1596 1.386 . S
C1600 C1595 1.490 . S
C1600 C1602 1.395 . S
C1600 C1603 1.403 . S
H1601 C1607 0.930 . S
C1602 H1588 0.930 . S
C1602 C1600 1.395 . S
C1602 C1605 1.403 . S
C1603 C1600 1.403 . S
C1603 C1604 1.524 . S
C1603 C1607 1.400 . S
C1604 H1589 0.960 . S
C1604 H1590 0.960 . S
C1604 H1591 0.960 . S
C1604 C1603 1.524 . S
C1605 C1602 1.403 . S
C1605 C1606 1.392 . S
C1605 C1609 1.495 . S
C1606 C1605 1.392 . S
C1606 C1607 1.385 . S
C1606 C1608 1.478 . S
C1607 H1601 0.930 . S
C1607 C1603 1.400 . S
C1607 C1606 1.385 . S
C1608 C1606 1.478 . S
C1608 C1610 1.381 . S
C1608 C1614 1.383 . S
C1609 C1605 1.495 . S
C1609 H1615 0.959 . S
C1609 H1616 0.961 . S
C1609 H1617 0.960 . S
C1610 C1608 1.381 . S
C1610 C1611 1.394 . S
C1610 H1618 0.930 . S
C1611 C1610 1.394 . S
C1611 C1612 1.383 . S
C1611 H1619 0.929 . S
C1612 C1611 1.383 . S
C1612 C1613 1.377 . S
C1613 H1597 0.930 . S
C1613 C1612 1.377 . S
C1613 C1614 1.379 . S
C1614 H1598 0.931 . S
C1614 C1608 1.383 . S
C1614 C1613 1.379 . S
H1615 C1609 0.959 . S
H1616 C1609 0.961 . S
H1617 C1609 0.960 . S
H1618 C1610 0.930 . S
H1619 C1611 0.929 . S
H1620 C1628 0.929 . S
H1621 C1630 0.930 . S
H1622 C1632 0.930 . S
H1623 C1635 0.929 . S
H1624 C1638 0.930 . S
H1625 C1640 0.960 . S
H1626 C1640 0.960 . S
H1627 C1640 0.960 . S
C1628 H1620 0.929 . S
C1628 C1629 1.377 . S
C1628 C1630 1.384 . S
C1629 C1628 1.377 . S
C1629 C1635 1.390 . S
C1630 H1621 0.930 . S
C1630 C1628 1.384 . S
C1630 C1631 1.372 . S
C1631 C1630 1.372 . S
C1631 C1632 1.400 . S
C1631 C1636 1.490 . S
C1632 H1622 0.930 . S
C1632 C1631 1.400 . S
C1632 C1635 1.386 . S
H1633 C1649 0.930 . S
H1634 C1650 0.931 . S
C1635 H1623 0.929 . S
C1635 C1629 1.390 . S
C1635 C1632 1.386 . S
C1636 C1631 1.490 . S
C1636 C1638 1.395 . S
C1636 C1639 1.403 . S
H1637 C1643 0.930 . S
C1638 H1624 0.930 . S
C1638 C1636 1.395 . S
C1638 C1641 1.403 . S
C1639 C1636 1.403 . S
C1639 C1640 1.524 . S
C1639 C1643 1.400 . S
C1640 H1625 0.960 . S
C1640 H1626 0.960 . S
C1640 H1627 0.960 . S
C1640 C1639 1.524 . S
C1641 C1638 1.403 . S
C1641 C1642 1.392 . S
C1641 C1645 1.495 . S
C1642 C1641 1.392 . S
C1642 C1643 1.385 . S
C1642 C1644 1.478 . S
C1643 H1637 0.930 . S
C1643 C1639 1.400 . S
C1643 C1642 1.385 . S
C1644 C1642 1.478 . S
C1644 C1646 1.381 . S
C1644 C1650 1.383 . S
C1645 C1641 1.495 . S
C1645 H1651 0.959 . S
C1645 H1652 0.961 . S
C1645 H1653 0.960 . S
C1646 C1644 1.381 . S
C1646 C1647 1.394 . S
C1646 H1654 0.930 . S
C1647 C1646 1.394 . S
C1647 C1648 1.383 . S
C1647 H1655 0.929 . S
C1648 C1647 1.383 . S
C1648 C1649 1.377 . S
C1649 H1633 0.930 . S
C1649 C1648 1.377 . S
C1649 C1650 1.379 . S
C1650 H1634 0.931 . S
C1650 C1644 1.383 . S
C1650 C1649 1.379 . S
H1651 C1645 0.959 . S
H1652 C1645 0.961 . S
H1653 C1645 0.960 . S
H1654 C1646 0.930 . S
H1655 C1647 0.929 . S
H1656 C1664 0.929 . S
H1657 C1666 0.930 . S
H1658 C1668 0.930 . S
H1659 C1671 0.929 . S
H1660 C1674 0.930 . S
H1661 C1676 0.960 . S
H1662 C1676 0.960 . S
H1663 C1676 0.960 . S
C1664 H1656 0.929 . S
C1664 C1665 1.377 . S
C1664 C1666 1.384 . S
C1665 C1664 1.377 . S
C1665 C1671 1.390 . S
C1666 H1657 0.930 . S
C1666 C1664 1.384 . S
C1666 C1667 1.372 . S
C1667 C1666 1.372 . S
C1667 C1668 1.400 . S
C1667 C1672 1.490 . S
C1668 H1658 0.930 . S
C1668 C1667 1.400 . S
C1668 C1671 1.386 . S
H1669 C1685 0.930 . S
H1670 C1686 0.931 . S
C1671 H1659 0.929 . S
C1671 C1665 1.390 . S
C1671 C1668 1.386 . S
C1672 C1667 1.490 . S
C1672 C1674 1.395 . S
C1672 C1675 1.403 . S
H1673 C1679 0.930 . S
C1674 H1660 0.930 . S
C1674 C1672 1.395 . S
C1674 C1677 1.403 . S
C1675 C1672 1.403 . S
C1675 C1676 1.524 . S
C1675 C1679 1.400 . S
C1676 H1661 0.960 . S
C1676 H1662 0.960 . S
C1676 H1663 0.960 . S
C1676 C1675 1.524 . S
C1677 C1674 1.403 . S
C1677 C1678 1.392 . S
C1677 C1681 1.495 . S
C1678 C1677 1.392 . S
C1678 C1679 1.385 . S
C1678 C1680 1.478 . S
C1679 H1673 0.930 . S
C1679 C1675 1.400 . S
C1679 C1678 1.385 . S
C1680 C1678 1.478 . S
C1680 C1682 1.381 . S
C1680 C1686 1.383 . S
C1681 C1677 1.495 . S
C1681 H1687 0.959 . S
C1681 H1688 0.961 . S
C1681 H1689 0.960 . S
C1682 C1680 1.381 . S
C1682 C1683 1.394 . S
C1682 H1690 0.930 . S
C1683 C1682 1.394 . S
C1683 C1684 1.383 . S
C1683 H1691 0.929 . S
C1684 C1683 1.383 . S
C1684 C1685 1.377 . S
C1685 H1669 0.930 . S
C1685 C1684 1.377 . S
C1685 C1686 1.379 . S
C1686 H1670 0.931 . S
C1686 C1680 1.383 . S
C1686 C1685 1.379 . S
H1687 C1681 0.959 . S
H1688 C1681 0.961 . S
H1689 C1681 0.960 . S
H1690 C1682 0.930 . S
H1691 C1683 0.929 . S
H1692 C1700 0.929 . S
H1693 C1702 0.930 . S
H1694 C1704 0.930 . S
H1695 C1707 0.929 . S
H1696 C1710 0.930 . S
H1697 C1712 0.960 . S
H1698 C1712 0.960 . S
H1699 C1712 0.960 . S
C1700 H1692 0.929 . S
C1700 C1701 1.377 . S
C1700 C1702 1.384 . S
C1701 C1700 1.377 . S
C1701 C1707 1.390 . S
C1702 H1693 0.930 . S
C1702 C1700 1.384 . S
C1702 C1703 1.372 . S
C1703 C1702 1.372 . S
C1703 C1704 1.400 . S
C1703 C1708 1.490 . S
C1704 H1694 0.930 . S
C1704 C1703 1.400 . S
C1704 C1707 1.386 . S
H1705 C1721 0.930 . S
H1706 C1722 0.931 . S
C1707 H1695 0.929 . S
C1707 C1701 1.390 . S
C1707 C1704 1.386 . S
C1708 C1703 1.490 . S
C1708 C1710 1.395 . S
C1708 C1711 1.403 . S
H1709 C1715 0.930 . S
C1710 H1696 0.930 . S
C1710 C1708 1.395 . S
C1710 C1713 1.403 . S
C1711 C1708 1.403 . S
C1711 C1712 1.524 . S
C1711 C1715 1.400 . S
C1712 H1697 0.960 . S
C1712 H1698 0.960 . S
C1712 H1699 0.960 . S
C1712 C1711 1.524 . S
C1713 C1710 1.403 . S
C1713 C1714 1.392 . S
C1713 C1717 1.495 . S
C1714 C1713 1.392 . S
C1714 C1715 1.385 . S
C1714 C1716 1.478 . S
C1715 H1709 0.930 . S
C1715 C1711 1.400 . S
C1715 C1714 1.385 . S
C1716 C1714 1.478 . S
C1716 C1718 1.381 . S
C1716 C1722 1.383 . S
C1717 C1713 1.495 . S
C1717 H1723 0.959 . S
C1717 H1724 0.961 . S
C1717 H1725 0.960 . S
C1718 C1716 1.381 . S
C1718 C1719 1.394 . S
C1718 H1726 0.930 . S
C1719 C1718 1.394 . S
C1719 C1720 1.383 . S
C1719 H1727 0.929 . S
C1720 C1719 1.383 . S
C1720 C1721 1.377 . S
C1721 H1705 0.930 . S
C1721 C1720 1.377 . S
C1721 C1722 1.379 . S
C1722 H1706 0.931 . S
C1722 C1716 1.383 . S
C1722 C1721 1.379 . S
H1723 C1717 0.959 . S
H1724 C1717 0.961 . S
H1725 C1717 0.960 . S
H1726 C1718 0.930 . S
H1727 C1719 0.929 . S
H1728 C1736 0.929 . S
H1729 C1738 0.930 . S
H1730 C1740 0.930 . S
H1731 C1743 0.929 . S
H1732 C1746 0.930 . S
H1733 C1748 0.960 . S
H1734 C1748 0.960 . S
H1735 C1748 0.960 . S
C1736 H1728 0.929 . S
C1736 C1737 1.377 . S
C1736 C1738 1.384 . S
C1737 C1736 1.377 . S
C1737 C1743 1.390 . S
C1738 H1729 0.930 . S
C1738 C1736 1.384 . S
C1738 C1739 1.372 . S
C1739 C1738 1.372 . S
C1739 C1740 1.400 . S
C1739 C1744 1.490 . S
C1740 H1730 0.930 . S
C1740 C1739 1.400 . S
C1740 C1743 1.386 . S
H1741 C1757 0.930 . S
H1742 C1758 0.931 . S
C1743 H1731 0.929 . S
C1743 C1737 1.390 . S
C1743 C1740 1.386 . S
C1744 C1739 1.490 . S
C1744 C1746 1.395 . S
C1744 C1747 1.403 . S
H1745 C1751 0.930 . S
C1746 H1732 0.930 . S
C1746 C1744 1.395 . S
C1746 C1749 1.403 . S
C1747 C1744 1.403 . S
C1747 C1748 1.524 . S
C1747 C1751 1.400 . S
C1748 H1733 0.960 . S
C1748 H1734 0.960 . S
C1748 H1735 0.960 . S
C1748 C1747 1.524 . S
C1749 C1746 1.403 . S
C1749 C1750 1.392 . S
C1749 C1753 1.495 . S
C1750 C1749 1.392 . S
C1750 C1751 1.385 . S
C1750 C1752 1.478 . S
C1751 H1745 0.930 . S
C1751 C1747 1.400 . S
C1751 C1750 1.385 . S
C1752 C1750 1.478 . S
C1752 C1754 1.381 . S
C1752 C1758 1.383 . S
C1753 C1749 1.495 . S
C1753 H1759 0.959 . S
C1753 H1760 0.961 . S
C1753 H1761 0.960 . S
C1754 C1752 1.381 . S
C1754 C1755 1.394 . S
C1754 H1762 0.930 . S
C1755 C1754 1.394 . S
C1755 C1756 1.383 . S
C1755 H1763 0.929 . S
C1756 C1755 1.383 . S
C1756 C1757 1.377 . S
C1757 H1741 0.930 . S
C1757 C1756 1.377 . S
C1757 C1758 1.379 . S
C1758 H1742 0.931 . S
C1758 C1752 1.383 . S
C1758 C1757 1.379 . S
H1759 C1753 0.959 . S
H1760 C1753 0.961 . S
H1761 C1753 0.960 . S
H1762 C1754 0.930 . S
H1763 C1755 0.929 . S
H1764 C1772 0.929 . S
H1765 C1774 0.930 . S
H1766 C1776 0.930 . S
H1767 C1779 0.929 . S
H1768 C1782 0.930 . S
H1769 C1784 0.960 . S
H1770 C1784 0.960 . S
H1771 C1784 0.960 . S
C1772 H1764 0.929 . S
C1772 C1773 1.377 . S
C1772 C1774 1.384 . S
C1773 C1772 1.377 . S
C1773 C1779 1.390 . S
C1774 H1765 0.930 . S
C1774 C1772 1.384 . S
C1774 C1775 1.372 . S
C1775 C1774 1.372 . S
C1775 C1776 1.400 . S
C1775 C1780 1.490 . S
C1776 H1766 0.930 . S
C1776 C1775 1.400 . S
C1776 C1779 1.386 . S
H1777 C1793 0.930 . S
H1778 C1794 0.931 . S
C1779 H1767 0.929 . S
C1779 C1773 1.390 . S
C1779 C1776 1.386 . S
C1780 C1775 1.490 . S
C1780 C1782 1.395 . S
C1780 C1783 1.403 . S
H1781 C1787 0.930 . S
C1782 H1768 0.930 . S
C1782 C1780 1.395 . S
C1782 C1785 1.403 . S
C1783 C1780 1.403 . S
C1783 C1784 1.524 . S
C1783 C1787 1.400 . S
C1784 H1769 0.960 . S
C1784 H1770 0.960 . S
C1784 H1771 0.960 . S
C1784 C1783 1.524 . S
C1785 C1782 1.403 . S
C1785 C1786 1.392 . S
C1785 C1789 1.495 . S
C1786 C1785 1.392 . S
C1786 C1787 1.385 . S
C1786 C1788 1.478 . S
C1787 H1781 0.930 . S
C1787 C1783 1.400 . S
C1787 C1786 1.385 . S
C1788 C1786 1.478 . S
C1788 C1790 1.381 . S
C1788 C1794 1.383 . S
C1789 C1785 1.495 . S
C1789 H1795 0.959 . S
C1789 H1796 0.961 . S
C1789 H1797 0.960 . S
C1790 C1788 1.381 . S
C1790 C1791 1.394 . S
C1790 H1798 0.930 . S
C1791 C1790 1.394 . S
C1791 C1792 1.383 . S
C1791 H1799 0.929 . S
C1792 C1791 1.383 . S
C1792 C1793 1.377 . S
C1793 H1777 0.930 . S
C1793 C1792 1.377 . S
C1793 C1794 1.379 . S
C1794 H1778 0.931 . S
C1794 C1788 1.383 . S
C1794 C1793 1.379 . S
H1795 C1789 0.959 . S
H1796 C1789 0.961 . S
H1797 C1789 0.960 . S
H1798 C1790 0.930 . S
H1799 C1791 0.929 . S
H1800 C1808 0.929 . S
H1801 C1810 0.930 . S
H1802 C1812 0.930 . S
H1803 C1815 0.929 . S
H1804 C1818 0.930 . S
H1805 C1820 0.960 . S
H1806 C1820 0.960 . S
H1807 C1820 0.960 . S
C1808 H1800 0.929 . S
C1808 C1809 1.377 . S
C1808 C1810 1.384 . S
C1809 C1808 1.377 . S
C1809 C1815 1.390 . S
C1810 H1801 0.930 . S
C1810 C1808 1.384 . S
C1810 C1811 1.372 . S
C1811 C1810 1.372 . S
C1811 C1812 1.400 . S
C1811 C1816 1.490 . S
C1812 H1802 0.930 . S
C1812 C1811 1.400 . S
C1812 C1815 1.386 . S
H1813 C1829 0.930 . S
H1814 C1830 0.931 . S
C1815 H1803 0.929 . S
C1815 C1809 1.390 . S
C1815 C1812 1.386 . S
C1816 C1811 1.490 . S
C1816 C1818 1.395 . S
C1816 C1819 1.403 . S
H1817 C1823 0.930 . S
C1818 H1804 0.930 . S
C1818 C1816 1.395 . S
C1818 C1821 1.403 . S
C1819 C1816 1.403 . S
C1819 C1820 1.524 . S
C1819 C1823 1.400 . S
C1820 H1805 0.960 . S
C1820 H1806 0.960 . S
C1820 H1807 0.960 . S
C1820 C1819 1.524 . S
C1821 C1818 1.403 . S
C1821 C1822 1.392 . S
C1821 C1825 1.495 . S
C1822 C1821 1.392 . S
C1822 C1823 1.385 . S
C1822 C1824 1.478 . S
C1823 H1817 0.930 . S
C1823 C1819 1.400 . S
C1823 C1822 1.385 . S
C1824 C1822 1.478 . S
C1824 C1826 1.381 . S
C1824 C1830 1.383 . S
C1825 C1821 1.495 . S
C1825 H1831 0.959 . S
C1825 H1832 0.961 . S
C1825 H1833 0.960 . S
C1826 C1824 1.381 . S
C1826 C1827 1.394 . S
C1826 H1834 0.930 . S
C1827 C1826 1.394 . S
C1827 C1828 1.383 . S
C1827 H1835 0.929 . S
C1828 C1827 1.383 . S
C1828 C1829 1.377 . S
C1829 H1813 0.930 . S
C1829 C1828 1.377 . S
C1829 C1830 1.379 . S
C1830 H1814 0.931 . S
C1830 C1824 1.383 . S
C1830 C1829 1.379 . S
H1831 C1825 0.959 . S
H1832 C1825 0.961 . S
H1833 C1825 0.960 . S
H1834 C1826 0.930 . S
H1835 C1827 0.929 . S
H1836 C1844 0.929 . S
H1837 C1846 0.930 . S
H1838 C1848 0.930 . S
H1839 C1851 0.929 . S
H1840 C1854 0.930 . S
H1841 C1856 0.960 . S
H1842 C1856 0.960 . S
H1843 C1856 0.960 . S
C1844 H1836 0.929 . S
C1844 C1845 1.377 . S
C1844 C1846 1.384 . S
C1845 C1844 1.377 . S
C1845 C1851 1.390 . S
C1846 H1837 0.930 . S
C1846 C1844 1.384 . S
C1846 C1847 1.372 . S
C1847 C1846 1.372 . S
C1847 C1848 1.400 . S
C1847 C1852 1.490 . S
C1848 H1838 0.930 . S
C1848 C1847 1.400 . S
C1848 C1851 1.386 . S
H1849 C1865 0.930 . S
H1850 C1866 0.931 . S
C1851 H1839 0.929 . S
C1851 C1845 1.390 . S
C1851 C1848 1.386 . S
C1852 C1847 1.490 . S
C1852 C1854 1.395 . S
C1852 C1855 1.403 . S
H1853 C1859 0.930 . S
C1854 H1840 0.930 . S
C1854 C1852 1.395 . S
C1854 C1857 1.403 . S
C1855 C1852 1.403 . S
C1855 C1856 1.524 . S
C1855 C1859 1.400 . S
C1856 H1841 0.960 . S
C1856 H1842 0.960 . S
C1856 H1843 0.960 . S
C1856 C1855 1.524 . S
C1857 C1854 1.403 . S
C1857 C1858 1.392 . S
C1857 C1861 1.495 . S
C1858 C1857 1.392 . S
C1858 C1859 1.385 . S
C1858 C1860 1.478 . S
C1859 H1853 0.930 . S
C1859 C1855 1.400 . S
C1859 C1858 1.385 . S
C1860 C1858 1.478 . S
C1860 C1862 1.381 . S
C1860 C1866 1.383 . S
C1861 C1857 1.495 . S
C1861 H1867 0.959 . S
C1861 H1868 0.961 . S
C1861 H1869 0.960 . S
C1862 C1860 1.381 . S
C1862 C1863 1.394 . S
C1862 H1870 0.930 . S
C1863 C1862 1.394 . S
C1863 C1864 1.383 . S
C1863 H1871 0.929 . S
C1864 C1863 1.383 . S
C1864 C1865 1.377 . S
C1865 H1849 0.930 . S
C1865 C1864 1.377 . S
C1865 C1866 1.379 . S
C1866 H1850 0.931 . S
C1866 C1860 1.383 . S
C1866 C1865 1.379 . S
H1867 C1861 0.959 . S
H1868 C1861 0.961 . S
H1869 C1861 0.960 . S
H1870 C1862 0.930 . S
H1871 C1863 0.929 . S
H1872 C1880 0.929 . S
H1873 C1882 0.930 . S
H1874 C1884 0.930 . S
H1875 C1887 0.929 . S
H1876 C1890 0.930 . S
H1877 C1892 0.960 . S
H1878 C1892 0.960 . S
H1879 C1892 0.960 . S
C1880 H1872 0.929 . S
C1880 C1881 1.377 . S
C1880 C1882 1.384 . S
C1881 C1880 1.377 . S
C1881 C1887 1.390 . S
C1882 H1873 0.930 . S
C1882 C1880 1.384 . S
C1882 C1883 1.372 . S
C1883 C1882 1.372 . S
C1883 C1884 1.400 . S
C1883 C1888 1.490 . S
C1884 H1874 0.930 . S
C1884 C1883 1.400 . S
C1884 C1887 1.386 . S
H1885 C1901 0.930 . S
H1886 C1902 0.931 . S
C1887 H1875 0.929 . S
C1887 C1881 1.390 . S
C1887 C1884 1.386 . S
C1888 C1883 1.490 . S
C1888 C1890 1.395 . S
C1888 C1891 1.403 . S
H1889 C1895 0.930 . S
C1890 H1876 0.930 . S
C1890 C1888 1.395 . S
C1890 C1893 1.403 . S
C1891 C1888 1.403 . S
C1891 C1892 1.524 . S
C1891 C1895 1.400 . S
C1892 H1877 0.960 . S
C1892 H1878 0.960 . S
C1892 H1879 0.960 . S
C1892 C1891 1.524 . S
C1893 C1890 1.403 . S
C1893 C1894 1.392 . S
C1893 C1897 1.495 . S
C1894 C1893 1.392 . S
C1894 C1895 1.385 . S
C1894 C1896 1.478 . S
C1895 H1889 0.930 . S
C1895 C1891 1.400 . S
C1895 C1894 1.385 . S
C1896 C1894 1.478 . S
C1896 C1898 1.381 . S
C1896 C1902 1.383 . S
C1897 C1893 1.495 . S
C1897 H1903 0.959 . S
C1897 H1904 0.961 . S
C1897 H1905 0.960 . S
C1898 C1896 1.381 . S
C1898 C1899 1.394 . S
C1898 H1906 0.930 . S
C1899 C1898 1.394 . S
C1899 C1900 1.383 . S
C1899 H1907 0.929 . S
C1900 C1899 1.383 . S
C1900 C1901 1.377 . S
C1901 H1885 0.930 . S
C1901 C1900 1.377 . S
C1901 C1902 1.379 . S
C1902 H1886 0.931 . S
C1902 C1896 1.383 . S
C1902 C1901 1.379 . S
H1903 C1897 0.959 . S
H1904 C1897 0.961 . S
H1905 C1897 0.960 . S
H1906 C1898 0.930 . S
H1907 C1899 0.929 . S
H1908 C1916 0.929 . S
H1909 C1918 0.930 . S
H1910 C1920 0.930 . S
H1911 C1923 0.929 . S
H1912 C1926 0.930 . S
H1913 C1928 0.960 . S
H1914 C1928 0.960 . S
H1915 C1928 0.960 . S
C1916 H1908 0.929 . S
C1916 C1917 1.377 . S
C1916 C1918 1.384 . S
C1917 C1916 1.377 . S
C1917 C1923 1.390 . S
C1918 H1909 0.930 . S
C1918 C1916 1.384 . S
C1918 C1919 1.372 . S
C1919 C1918 1.372 . S
C1919 C1920 1.400 . S
C1919 C1924 1.490 . S
C1920 H1910 0.930 . S
C1920 C1919 1.400 . S
C1920 C1923 1.386 . S
H1921 C1937 0.930 . S
H1922 C1938 0.931 . S
C1923 H1911 0.929 . S
C1923 C1917 1.390 . S
C1923 C1920 1.386 . S
C1924 C1919 1.490 . S
C1924 C1926 1.395 . S
C1924 C1927 1.403 . S
H1925 C1931 0.930 . S
C1926 H1912 0.930 . S
C1926 C1924 1.395 . S
C1926 C1929 1.403 . S
C1927 C1924 1.403 . S
C1927 C1928 1.524 . S
C1927 C1931 1.400 . S
C1928 H1913 0.960 . S
C1928 H1914 0.960 . S
C1928 H1915 0.960 . S
C1928 C1927 1.524 . S
C1929 C1926 1.403 . S
C1929 C1930 1.392 . S
C1929 C1933 1.495 . S
C1930 C1929 1.392 . S
C1930 C1931 1.385 . S
C1930 C1932 1.478 . S
C1931 H1925 0.930 . S
C1931 C1927 1.400 . S
C1931 C1930 1.385 . S
C1932 C1930 1.478 . S
C1932 C1934 1.381 . S
C1932 C1938 1.383 . S
C1933 C1929 1.495 . S
C1933 H1939 0.959 . S
C1933 H1940 0.961 . S
C1933 H1941 0.960 . S
C1934 C1932 1.381 . S
C1934 C1935 1.394 . S
C1934 H1942 0.930 . S
C1935 C1934 1.394 . S
C1935 C1936 1.383 . S
C1935 H1943 0.929 . S
C1936 C1935 1.383 . S
C1936 C1937 1.377 . S
C1937 H1921 0.930 . S
C1937 C1936 1.377 . S
C1937 C1938 1.379 . S
C1938 H1922 0.931 . S
C1938 C1932 1.383 . S
C1938 C1937 1.379 . S
H1939 C1933 0.959 . S
H1940 C1933 0.961 . S
H1941 C1933 0.960 . S
H1942 C1934 0.930 . S
H1943 C1935 0.929 . S
H1944 C1952 0.929 . S
H1945 C1954 0.930 . S
H1946 C1956 0.930 . S
H1947 C1959 0.929 . S
H1948 C1962 0.930 . S
H1949 C1964 0.960 . S
H1950 C1964 0.960 . S
H1951 C1964 0.960 . S
C1952 H1944 0.929 . S
C1952 C1953 1.377 . S
C1952 C1954 1.384 . S
C1953 C1952 1.377 . S
C1953 C1959 1.390 . S
C1954 H1945 0.930 . S
C1954 C1952 1.384 . S
C1954 C1955 1.372 . S
C1955 C1954 1.372 . S
C1955 C1956 1.400 . S
C1955 C1960 1.490 . S
C1956 H1946 0.930 . S
C1956 C1955 1.400 . S
C1956 C1959 1.386 . S
H1957 C1973 0.930 . S
H1958 C1974 0.931 . S
C1959 H1947 0.929 . S
C1959 C1953 1.390 . S
C1959 C1956 1.386 . S
C1960 C1955 1.490 . S
C1960 C1962 1.395 . S
C1960 C1963 1.403 . S
H1961 C1967 0.930 . S
C1962 H1948 0.930 . S
C1962 C1960 1.395 . S
C1962 C1965 1.403 . S
C1963 C1960 1.403 . S
C1963 C1964 1.524 . S
C1963 C1967 1.400 . S
C1964 H1949 0.960 . S
C1964 H1950 0.960 . S
C1964 H1951 0.960 . S
C1964 C1963 1.524 . S
C1965 C1962 1.403 . S
C1965 C1966 1.392 . S
C1965 C1969 1.495 . S
C1966 C1965 1.392 . S
C1966 C1967 1.385 . S
C1966 C1968 1.478 . S
C1967 H1961 0.930 . S
C1967 C1963 1.400 . S
C1967 C1966 1.385 . S
C1968 C1966 1.478 . S
C1968 C1970 1.381 . S
C1968 C1974 1.383 . S
C1969 C1965 1.495 . S
C1969 H1975 0.959 . S
C1969 H1976 0.961 . S
C1969 H1977 0.960 . S
C1970 C1968 1.381 . S
C1970 C1971 1.394 . S
C1970 H1978 0.930 . S
C1971 C1970 1.394 . S
C1971 C1972 1.383 . S
C1971 H1979 0.929 . S
C1972 C1971 1.383 . S
C1972 C1973 1.377 . S
C1973 H1957 0.930 . S
C1973 C1972 1.377 . S
C1973 C1974 1.379 . S
C1974 H1958 0.931 . S
C1974 C1968 1.383 . S
C1974 C1973 1.379 . S
H1975 C1969 0.959 . S
H1976 C1969 0.961 . S
H1977 C1969 0.960 . S
H1978 C1970 0.930 . S
H1979 C1971 0.929 . S
H1980 C1988 0.929 . S
H1981 C1990 0.930 . S
H1982 C1992 0.930 . S
H1983 C1995 0.929 . S
H1984 C1998 0.930 . S
H1985 C2000 0.960 . S
H1986 C2000 0.960 . S
H1987 C2000 0.960 . S
C1988 H1980 0.929 . S
C1988 C1989 1.377 . S
C1988 C1990 1.384 . S
C1989 C1988 1.377 . S
C1989 C1995 1.390 . S
C1990 H1981 0.930 . S
C1990 C1988 1.384 . S
C1990 C1991 1.372 . S
C1991 C1990 1.372 . S
C1991 C1992 1.400 . S
C1991 C1996 1.490 . S
C1992 H1982 0.930 . S
C1992 C1991 1.400 . S
C1992 C1995 1.386 . S
H1993 C2009 0.930 . S
H1994 C2010 0.931 . S
C1995 H1983 0.929 . S
C1995 C1989 1.390 . S
C1995 C1992 1.386 . S
C1996 C1991 1.490 . S
C1996 C1998 1.395 . S
C1996 C1999 1.403 . S
H1997 C2003 0.930 . S
C1998 H1984 0.930 . S
C1998 C1996 1.395 . S
C1998 C2001 1.403 . S
C1999 C1996 1.403 . S
C1999 C2000 1.524 . S
C1999 C2003 1.400 . S
C2000 H1985 0.960 . S
C2000 H1986 0.960 . S
C2000 H1987 0.960 . S
C2000 C1999 1.524 . S
C2001 C1998 1.403 . S
C2001 C2002 1.392 . S
C2001 C2005 1.495 . S
C2002 C2001 1.392 . S
C2002 C2003 1.385 . S
C2002 C2004 1.478 . S
C2003 H1997 0.930 . S
C2003 C1999 1.400 . S
C2003 C2002 1.385 . S
C2004 C2002 1.478 . S
C2004 C2006 1.381 . S
C2004 C2010 1.383 . S
C2005 C2001 1.495 . S
C2005 H2011 0.959 . S
C2005 H2012 0.961 . S
C2005 H2013 0.960 . S
C2006 C2004 1.381 . S
C2006 C2007 1.394 . S
C2006 H2014 0.930 . S
C2007 C2006 1.394 . S
C2007 C2008 1.383 . S
C2007 H2015 0.929 . S
C2008 C2007 1.383 . S
C2008 C2009 1.377 . S
C2009 H1993 0.930 . S
C2009 C2008 1.377 . S
C2009 C2010 1.379 . S
C2010 H1994 0.931 . S
C2010 C2004 1.383 . S
C2010 C2009 1.379 . S
H2011 C2005 0.959 . S
H2012 C2005 0.961 . S
H2013 C2005 0.960 . S
H2014 C2006 0.930 . S
H2015 C2007 0.929 . S
H2016 C2024 0.929 . S
H2017 C2026 0.930 . S
H2018 C2028 0.930 . S
H2019 C2031 0.929 . S
H2020 C2034 0.930 . S
H2021 C2036 0.960 . S
H2022 C2036 0.960 . S
H2023 C2036 0.960 . S
C2024 H2016 0.929 . S
C2024 C2025 1.377 . S
C2024 C2026 1.384 . S
C2025 C2024 1.377 . S
C2025 C2031 1.390 . S
C2026 H2017 0.930 . S
C2026 C2024 1.384 . S
C2026 C2027 1.372 . S
C2027 C2026 1.372 . S
C2027 C2028 1.400 . S
C2027 C2032 1.490 . S
C2028 H2018 0.930 . S
C2028 C2027 1.400 . S
C2028 C2031 1.386 . S
H2029 C2045 0.930 . S
H2030 C2046 0.931 . S
C2031 H2019 0.929 . S
C2031 C2025 1.390 . S
C2031 C2028 1.386 . S
C2032 C2027 1.490 . S
C2032 C2034 1.395 . S
C2032 C2035 1.403 . S
H2033 C2039 0.930 . S
C2034 H2020 0.930 . S
C2034 C2032 1.395 . S
C2034 C2037 1.403 . S
C2035 C2032 1.403 . S
C2035 C2036 1.524 . S
C2035 C2039 1.400 . S
C2036 H2021 0.960 . S
C2036 H2022 0.960 . S
C2036 H2023 0.960 . S
C2036 C2035 1.524 . S
C2037 C2034 1.403 . S
C2037 C2038 1.392 . S
C2037 C2041 1.495 . S
C2038 C2037 1.392 . S
C2038 C2039 1.385 . S
C2038 C2040 1.478 . S
C2039 H2033 0.930 . S
C2039 C2035 1.400 . S
C2039 C2038 1.385 . S
C2040 C2038 1.478 . S
C2040 C2042 1.381 . S
C2040 C2046 1.383 . S
C2041 C2037 1.495 . S
C2041 H2047 0.959 . S
C2041 H2048 0.961 . S
C2041 H2049 0.960 . S
C2042 C2040 1.381 . S
C2042 C2043 1.394 . S
C2042 H2050 0.930 . S
C2043 C2042 1.394 . S
C2043 C2044 1.383 . S
C2043 H2051 0.929 . S
C2044 C2043 1.383 . S
C2044 C2045 1.377 . S
C2045 H2029 0.930 . S
C2045 C2044 1.377 . S
C2045 C2046 1.379 . S
C2046 H2030 0.931 . S
C2046 C2040 1.383 . S
C2046 C2045 1.379 . S
H2047 C2041 0.959 . S
H2048 C2041 0.961 . S
H2049 C2041 0.960 . S
H2050 C2042 0.930 . S
H2051 C2043 0.929 . S
H2052 C2060 0.929 . S
H2053 C2062 0.930 . S
H2054 C2064 0.930 . S
H2055 C2067 0.929 . S
H2056 C2070 0.930 . S
H2057 C2072 0.960 . S
H2058 C2072 0.960 . S
H2059 C2072 0.960 . S
C2060 H2052 0.929 . S
C2060 C2061 1.377 . S
C2060 C2062 1.384 . S
C2061 C2060 1.377 . S
C2061 C2067 1.390 . S
C2062 H2053 0.930 . S
C2062 C2060 1.384 . S
C2062 C2063 1.372 . S
C2063 C2062 1.372 . S
C2063 C2064 1.400 . S
C2063 C2068 1.490 . S
C2064 H2054 0.930 . S
C2064 C2063 1.400 . S
C2064 C2067 1.386 . S
H2065 C2081 0.930 . S
H2066 C2082 0.931 . S
C2067 H2055 0.929 . S
C2067 C2061 1.390 . S
C2067 C2064 1.386 . S
C2068 C2063 1.490 . S
C2068 C2070 1.395 . S
C2068 C2071 1.403 . S
H2069 C2075 0.930 . S
C2070 H2056 0.930 . S
C2070 C2068 1.395 . S
C2070 C2073 1.403 . S
C2071 C2068 1.403 . S
C2071 C2072 1.524 . S
C2071 C2075 1.400 . S
C2072 H2057 0.960 . S
C2072 H2058 0.960 . S
C2072 H2059 0.960 . S
C2072 C2071 1.524 . S
C2073 C2070 1.403 . S
C2073 C2074 1.392 . S
C2073 C2077 1.495 . S
C2074 C2073 1.392 . S
C2074 C2075 1.385 . S
C2074 C2076 1.478 . S
C2075 H2069 0.930 . S
C2075 C2071 1.400 . S
C2075 C2074 1.385 . S
C2076 C2074 1.478 . S
C2076 C2078 1.381 . S
C2076 C2082 1.383 . S
C2077 C2073 1.495 . S
C2077 H2083 0.959 . S
C2077 H2084 0.961 . S
C2077 H2085 0.960 . S
C2078 C2076 1.381 . S
C2078 C2079 1.394 . S
C2078 H2086 0.930 . S
C2079 C2078 1.394 . S
C2079 C2080 1.383 . S
C2079 H2087 0.929 . S
C2080 C2079 1.383 . S
C2080 C2081 1.377 . S
C2081 H2065 0.930 . S
C2081 C2080 1.377 . S
C2081 C2082 1.379 . S
C2082 H2066 0.931 . S
C2082 C2076 1.383 . S
C2082 C2081 1.379 . S
H2083 C2077 0.959 . S
H2084 C2077 0.961 . S
H2085 C2077 0.960 . S
H2086 C2078 0.930 . S
H2087 C2079 0.929 . S
H2088 C2096 0.929 . S
H2089 C2098 0.930 . S
H2090 C2100 0.930 . S
H2091 C2103 0.929 . S
H2092 C2106 0.930 . S
H2093 C2108 0.960 . S
H2094 C2108 0.960 . S
H2095 C2108 0.960 . S
C2096 H2088 0.929 . S
C2096 C2097 1.377 . S
C2096 C2098 1.384 . S
C2097 C2096 1.377 . S
C2097 C2103 1.390 . S
C2098 H2089 0.930 . S
C2098 C2096 1.384 . S
C2098 C2099 1.372 . S
C2099 C2098 1.372 . S
C2099 C2100 1.400 . S
C2099 C2104 1.490 . S
C2100 H2090 0.930 . S
C2100 C2099 1.400 . S
C2100 C2103 1.386 . S
H2101 C2117 0.930 . S
H2102 C2118 0.931 . S
C2103 H2091 0.929 . S
C2103 C2097 1.390 . S
C2103 C2100 1.386 . S
C2104 C2099 1.490 . S
C2104 C2106 1.395 . S
C2104 C2107 1.403 . S
H2105 C2111 0.930 . S
C2106 H2092 0.930 . S
C2106 C2104 1.395 . S
C2106 C2109 1.403 1_556 S
C2107 C2104 1.403 . S
C2107 C2108 1.524 . S
C2107 C2111 1.400 1_556 S
C2108 H2093 0.960 . S
C2108 H2094 0.960 . S
C2108 H2095 0.960 . S
C2108 C2107 1.524 . S
C2109 C2106 1.403 1_554 S
C2109 C2110 1.392 . S
C2109 C2113 1.495 . S
C2110 C2109 1.392 . S
C2110 C2111 1.385 . S
C2110 C2112 1.478 . S
C2111 H2105 0.930 . S
C2111 C2107 1.400 1_554 S
C2111 C2110 1.385 . S
C2112 C2110 1.478 . S
C2112 C2114 1.381 . S
C2112 C2118 1.383 . S
C2113 C2109 1.495 . S
C2113 H2119 0.959 . S
C2113 H2120 0.961 . S
C2113 H2121 0.960 . S
C2114 C2112 1.381 . S
C2114 C2115 1.394 . S
C2114 H2122 0.930 . S
C2115 C2114 1.394 . S
C2115 C2116 1.383 . S
C2115 H2123 0.929 . S
C2116 C2115 1.383 . S
C2116 C2117 1.377 . S
C2117 H2101 0.930 . S
C2117 C2116 1.377 . S
C2117 C2118 1.379 . S
C2118 H2102 0.931 . S
C2118 C2112 1.383 . S
C2118 C2117 1.379 . S
H2119 C2113 0.959 . S
H2120 C2113 0.961 . S
H2121 C2113 0.960 . S
H2122 C2114 0.930 . S
H2123 C2115 0.929 . S
H2124 C2132 0.929 . S
H2125 C2134 0.930 . S
H2126 C2136 0.930 . S
H2127 C2139 0.929 . S
H2128 C2142 0.930 . S
H2129 C2144 0.960 . S
H2130 C2144 0.960 . S
H2131 C2144 0.960 1_455 S
C2132 H2124 0.929 . S
C2132 C2133 1.377 . S
C2132 C2134 1.384 . S
C2133 C2132 1.377 . S
C2133 C2139 1.390 . S
C2134 H2125 0.930 . S
C2134 C2132 1.384 . S
C2134 C2135 1.372 . S
C2135 C2134 1.372 . S
C2135 C2136 1.400 . S
C2135 C2140 1.490 . S
C2136 H2126 0.930 . S
C2136 C2135 1.400 . S
C2136 C2139 1.386 . S
H2137 C2153 0.930 . S
H2138 C2154 0.931 . S
C2139 H2127 0.929 . S
C2139 C2133 1.390 . S
C2139 C2136 1.386 . S
C2140 C2135 1.490 . S
C2140 C2142 1.395 . S
C2140 C2143 1.403 1_455 S
H2141 C2147 0.930 . S
C2142 H2128 0.930 . S
C2142 C2140 1.395 . S
C2142 C2145 1.403 . S
C2143 C2140 1.403 1_655 S
C2143 C2144 1.524 . S
C2143 C2147 1.400 . S
C2144 H2129 0.960 . S
C2144 H2130 0.960 . S
C2144 H2131 0.960 1_655 S
C2144 C2143 1.524 . S
C2145 C2142 1.403 . S
C2145 C2146 1.392 1_455 S
C2145 C2149 1.495 . S
C2146 C2145 1.392 1_655 S
C2146 C2147 1.385 . S
C2146 C2148 1.478 . S
C2147 H2141 0.930 . S
C2147 C2143 1.400 . S
C2147 C2146 1.385 . S
C2148 C2146 1.478 . S
C2148 C2150 1.381 . S
C2148 C2154 1.383 . S
C2149 C2145 1.495 . S
C2149 H2155 0.959 . S
C2149 H2156 0.961 . S
C2149 H2157 0.960 1_455 S
C2150 C2148 1.381 . S
C2150 C2151 1.394 . S
C2150 H2158 0.930 . S
C2151 C2150 1.394 . S
C2151 C2152 1.383 . S
C2151 H2159 0.929 . S
C2152 C2151 1.383 . S
C2152 C2153 1.377 . S
C2153 H2137 0.930 . S
C2153 C2152 1.377 . S
C2153 C2154 1.379 . S
C2154 H2138 0.931 . S
C2154 C2148 1.383 . S
C2154 C2153 1.379 . S
H2155 C2149 0.959 . S
H2156 C2149 0.961 . S
H2157 C2149 0.960 1_655 S
H2158 C2150 0.930 . S
H2159 C2151 0.929 . S
H2160 C2168 0.929 . S
H2161 C2170 0.930 . S
H2162 C2172 0.930 . S
H2163 C2175 0.929 . S
H2164 C2178 0.930 . S
H2165 C2180 0.960 . S
H2166 C2180 0.960 . S
H2167 C2180 0.960 . S
C2168 H2160 0.929 . S
C2168 C2169 1.377 . S
C2168 C2170 1.384 . S
C2169 C2168 1.377 . S
C2169 C2175 1.390 . S
C2170 H2161 0.930 . S
C2170 C2168 1.384 . S
C2170 C2171 1.372 . S
C2171 C2170 1.372 . S
C2171 C2172 1.400 . S
C2171 C2176 1.490 . S
C2172 H2162 0.930 . S
C2172 C2171 1.400 . S
C2172 C2175 1.386 . S
H2173 C2189 0.930 . S
H2174 C2190 0.931 . S
C2175 H2163 0.929 . S
C2175 C2169 1.390 . S
C2175 C2172 1.386 . S
C2176 C2171 1.490 . S
C2176 C2178 1.395 1_565 S
C2176 C2179 1.403 1_554 S
H2177 C2183 0.930 . S
C2178 H2164 0.930 . S
C2178 C2176 1.395 1_545 S
C2178 C2181 1.403 . S
C2179 C2176 1.403 1_556 S
C2179 C2180 1.524 . S
C2179 C2183 1.400 . S
C2180 H2165 0.960 . S
C2180 H2166 0.960 . S
C2180 H2167 0.960 . S
C2180 C2179 1.524 . S
C2181 C2178 1.403 . S
C2181 C2182 1.392 1_554 S
C2181 C2185 1.495 . S
C2182 C2181 1.392 1_556 S
C2182 C2183 1.385 1_545 S
C2182 C2184 1.478 . S
C2183 H2177 0.930 . S
C2183 C2179 1.400 . S
C2183 C2182 1.385 1_565 S
C2184 C2182 1.478 . S
C2184 C2186 1.381 . S
C2184 C2190 1.383 . S
C2185 C2181 1.495 . S
C2185 H2191 0.959 . S
C2185 H2192 0.961 . S
C2185 H2193 0.960 . S
C2186 C2184 1.381 . S
C2186 C2187 1.394 . S
C2186 H2194 0.930 . S
C2187 C2186 1.394 . S
C2187 C2188 1.383 . S
C2187 H2195 0.929 . S
C2188 C2187 1.383 . S
C2188 C2189 1.377 . S
C2189 H2173 0.930 . S
C2189 C2188 1.377 . S
C2189 C2190 1.379 . S
C2190 H2174 0.931 . S
C2190 C2184 1.383 . S
C2190 C2189 1.379 . S
H2191 C2185 0.959 . S
H2192 C2185 0.961 . S
H2193 C2185 0.960 . S
H2194 C2186 0.930 . S
H2195 C2187 0.929 . S
H2196 C2204 0.929 . S
H2197 C2206 0.930 . S
H2198 C2208 0.930 . S
H2199 C2211 0.929 . S
H2200 C2214 0.930 . S
H2201 C2216 0.960 . S
H2202 C2216 0.960 . S
H2203 C2216 0.960 . S
C2204 H2196 0.929 . S
C2204 C2205 1.377 . S
C2204 C2206 1.384 . S
C2205 C2204 1.377 . S
C2205 C2211 1.390 . S
C2206 H2197 0.930 . S
C2206 C2204 1.384 . S
C2206 C2207 1.372 . S
C2207 C2206 1.372 . S
C2207 C2208 1.400 . S
C2207 C2212 1.490 . S
C2208 H2198 0.930 . S
C2208 C2207 1.400 . S
C2208 C2211 1.386 . S
H2209 C2225 0.930 . S
H2210 C2226 0.931 . S
C2211 H2199 0.929 . S
C2211 C2205 1.390 . S
C2211 C2208 1.386 . S
C2212 C2207 1.490 . S
C2212 C2214 1.395 . S
C2212 C2215 1.403 . S
H2213 C2219 0.930 . S
C2214 H2200 0.930 . S
C2214 C2212 1.395 . S
C2214 C2217 1.403 . S
C2215 C2212 1.403 . S
C2215 C2216 1.524 . S
C2215 C2219 1.400 . S
C2216 H2201 0.960 . S
C2216 H2202 0.960 . S
C2216 H2203 0.960 . S
C2216 C2215 1.524 . S
C2217 C2214 1.403 . S
C2217 C2218 1.392 . S
C2217 C2221 1.495 . S
C2218 C2217 1.392 . S
C2218 C2219 1.385 . S
C2218 C2220 1.478 . S
C2219 H2213 0.930 . S
C2219 C2215 1.400 . S
C2219 C2218 1.385 . S
C2220 C2218 1.478 . S
C2220 C2222 1.381 . S
C2220 C2226 1.383 . S
C2221 C2217 1.495 . S
C2221 H2227 0.959 . S
C2221 H2228 0.961 . S
C2221 H2229 0.960 . S
C2222 C2220 1.381 . S
C2222 C2223 1.394 . S
C2222 H2230 0.930 . S
C2223 C2222 1.394 . S
C2223 C2224 1.383 . S
C2223 H2231 0.929 . S
C2224 C2223 1.383 . S
C2224 C2225 1.377 . S
C2225 H2209 0.930 . S
C2225 C2224 1.377 . S
C2225 C2226 1.379 . S
C2226 H2210 0.931 . S
C2226 C2220 1.383 . S
C2226 C2225 1.379 . S
H2227 C2221 0.959 . S
H2228 C2221 0.961 . S
H2229 C2221 0.960 . S
H2230 C2222 0.930 . S
H2231 C2223 0.929 . S
H2232 C2240 0.929 . S
H2233 C2242 0.930 . S
H2234 C2244 0.930 . S
H2235 C2247 0.929 . S
H2236 C2250 0.930 . S
H2237 C2252 0.960 . S
H2238 C2252 0.997 . S
H2239 C2252 0.960 . S
C2240 H2232 0.929 . S
C2240 C2241 1.377 . S
C2240 C2242 1.384 . S
C2241 C2240 1.377 . S
C2241 C2247 1.390 . S
C2242 H2233 0.930 . S
C2242 C2240 1.384 . S
C2242 C2243 1.372 . S
C2243 C2242 1.372 . S
C2243 C2244 1.400 . S
C2243 C2248 1.490 . S
C2244 H2234 0.930 . S
C2244 C2243 1.400 . S
C2244 C2247 1.386 . S
H2245 C2261 0.930 . S
H2246 C2262 0.931 . S
C2247 H2235 0.929 . S
C2247 C2241 1.390 . S
C2247 C2244 1.386 . S
C2248 C2243 1.490 . S
C2248 C2250 1.395 1_655 S
C2248 C2251 1.403 1_556 S
H2249 C2255 0.930 . S
C2250 H2236 0.930 . S
C2250 C2248 1.395 1_455 S
C2250 C2253 1.403 . S
C2251 C2248 1.403 1_554 S
C2251 C2252 1.524 . S
C2251 C2255 1.400 . S
C2252 H2237 0.960 . S
C2252 H2238 0.997 . S
C2252 H2239 0.960 . S
C2252 C2251 1.524 . S
C2253 C2250 1.403 . S
C2253 C2254 1.392 1_556 S
C2253 C2257 1.495 . S
C2254 C2253 1.392 1_554 S
C2254 C2255 1.385 1_455 S
C2254 C2256 1.478 . S
C2255 H2249 0.930 . S
C2255 C2251 1.400 . S
C2255 C2254 1.385 1_655 S
C2256 C2254 1.478 . S
C2256 C2258 1.381 . S
C2256 C2262 1.383 . S
C2257 C2253 1.495 . S
C2257 H2263 0.959 . S
C2257 H2264 0.961 . S
C2257 H2265 0.960 . S
C2258 C2256 1.381 . S
C2258 C2259 1.394 . S
C2258 H2266 0.930 . S
C2259 C2258 1.394 . S
C2259 C2260 1.383 . S
C2259 H2267 0.929 . S
C2260 C2259 1.383 . S
C2260 C2261 1.377 . S
C2261 H2245 0.930 . S
C2261 C2260 1.377 . S
C2261 C2262 1.379 . S
C2262 H2246 0.931 . S
C2262 C2256 1.383 . S
C2262 C2261 1.379 . S
H2263 C2257 0.959 . S
H2264 C2257 0.961 . S
H2265 C2257 0.960 . S
H2266 C2258 0.930 . S
H2267 C2259 0.929 . S
H2268 C2276 0.929 . S
H2269 C2278 0.930 . S
H2270 C2280 0.930 . S
H2271 C2283 0.929 . S
H2272 C2286 0.930 . S
H2273 C2288 0.960 . S
H2274 C2288 0.960 . S
H2275 C2288 0.960 . S
C2276 H2268 0.929 . S
C2276 C2277 1.377 . S
C2276 C2278 1.384 . S
C2277 C2276 1.377 . S
C2277 C2283 1.390 . S
C2278 H2269 0.930 . S
C2278 C2276 1.384 . S
C2278 C2279 1.372 . S
C2279 C2278 1.372 . S
C2279 C2280 1.400 . S
C2279 C2284 1.490 . S
C2280 H2270 0.930 . S
C2280 C2279 1.400 . S
C2280 C2283 1.386 . S
H2281 C2297 0.930 . S
H2282 C2298 0.931 . S
C2283 H2271 0.929 . S
C2283 C2277 1.390 . S
C2283 C2280 1.386 . S
C2284 C2279 1.490 . S
C2284 C2286 1.395 . S
C2284 C2287 1.403 . S
H2285 C2291 0.930 . S
C2286 H2272 0.930 . S
C2286 C2284 1.395 . S
C2286 C2289 1.403 1_565 S
C2287 C2284 1.403 . S
C2287 C2288 1.524 . S
C2287 C2291 1.400 1_565 S
C2288 H2273 0.960 . S
C2288 H2274 0.960 . S
C2288 H2275 0.960 . S
C2288 C2287 1.524 . S
C2289 C2286 1.403 1_545 S
C2289 C2290 1.392 . S
C2289 C2293 1.495 . S
C2290 C2289 1.392 . S
C2290 C2291 1.385 . S
C2290 C2292 1.478 . S
C2291 H2285 0.930 . S
C2291 C2287 1.400 1_545 S
C2291 C2290 1.385 . S
C2292 C2290 1.478 . S
C2292 C2294 1.381 . S
C2292 C2298 1.383 . S
C2293 C2289 1.495 . S
C2293 H2299 0.959 . S
C2293 H2300 0.961 . S
C2293 H2301 0.960 . S
C2294 C2292 1.381 . S
C2294 C2295 1.394 . S
C2294 H2302 0.930 . S
C2295 C2294 1.394 . S
C2295 C2296 1.383 . S
C2295 H2303 0.929 . S
C2296 C2295 1.383 . S
C2296 C2297 1.377 . S
C2297 H2281 0.930 . S
C2297 C2296 1.377 . S
C2297 C2298 1.379 . S
C2298 H2282 0.931 . S
C2298 C2292 1.383 . S
C2298 C2297 1.379 . S
H2299 C2293 0.959 . S
H2300 C2293 0.961 . S
H2301 C2293 0.960 . S
H2302 C2294 0.930 . S
H2303 C2295 0.929 . S
C1017 C403 1.327 . S
C1036 C58 1.177 . S
C1053 C487 1.328 . S
C1072 C142 1.197 . S
C1089 C226 1.166 . S
C1108 C67 1.323 . S
C1125 C310 1.188 . S
C1144 C151 1.328 . S
C1161 C394 1.166 . S
C1180 C235 1.322 . S
C1197 C319 1.331 . S
C1216 C478 1.216 . S
C1233 C739 1.330 . S
C1252 C562 1.228 . S
C1269 C646 1.167 . S
C1288 C823 1.328 . S
C1305 C907 1.331 . S
C1324 C730 1.148 . S
C1341 C814 1.184 . S
C1360 C991 1.321 . S
C1377 C898 1.188 . S
C1396 C571 1.327 . S
C1413 C655 1.330 . S
C1432 C982 1.228 . S
C1449 C392 1.424 . S
C1468 C69 1.292 . S
C1485 C153 1.261 . S
C1504 C476 1.429 . S
C1521 C237 1.263 . S
C1540 C56 1.432 . S
C1557 C321 1.261 . S
C1576 C140 1.428 . S
C1593 C224 1.421 . S
C1612 C405 1.315 . S
C1629 C308 1.421 . S
C1648 C489 1.316 . S
C1665 C728 1.419 . S
C1684 C573 1.268 . S
C1701 C657 1.278 . S
C1720 C812 1.423 . S
C1737 C741 1.280 . S
C1756 C896 1.409 . S
C1773 C980 1.419 . S
C1792 C825 1.307 . S
C1809 C909 1.263 . S
C1828 C560 1.414 . S
C1845 C644 1.425 . S
C1864 C993 1.231 . S
C1881 C914 1.823 . S
C1900 C74 1.833 . S
C1917 C158 1.831 . S
C1936 C998 1.802 . S
C1953 C242 1.830 . S
C1972 C578 1.809 . S
C1989 C326 1.822 . S
C2008 C662 1.840 . S
C2025 C410 1.832 . S
C2044 C746 1.796 . S
C2061 C830 1.831 . S
C2080 C494 1.797 . S
C2097 C819 1.932 . S
C2116 C63 1.916 . S
C2133 C903 1.930 . S
C2152 C147 1.930 . S
C2169 C231 1.929 . S
C2188 C987 1.931 . S
C2205 C315 1.931 . S
C2224 C567 1.918 . S
C2241 C651 1.928 . S
C2260 C399 1.935 . S
C2277 C735 1.932 . S
C2296 C483 1.917 . S
