# Generated by pormake.
# Topology gme, (4)-cn, num edge types: 1
# Building blocks:
#     Node 0, Type 0, BuildingBlock: KUFVIS_clean_sbu_0, # of connection points: 4
#     Node 1, Type 0, BuildingBlock: KUFVIS_clean_sbu_0, # of connection points: 4
#     Node 2, Type 0, BuildingBlock: KUFVIS_clean_sbu_0, # of connection points: 4
#     Node 3, Type 0, BuildingBlock: KUFVIS_clean_sbu_0, # of connection points: 4
#     Node 4, Type 0, BuildingBlock: KUFVIS_clean_sbu_0, # of connection points: 4
#     Node 5, Type 0, BuildingBlock: KUFVIS_clean_sbu_0, # of connection points: 4
#     Node 6, Type 0, BuildingBlock: KUFVIS_clean_sbu_0, # of connection points: 4
#     Node 7, Type 0, BuildingBlock: KUFVIS_clean_sbu_0, # of connection points: 4
#     Node 8, Type 0, BuildingBlock: KUFVIS_clean_sbu_0, # of connection points: 4
#     Node 9, Type 0, BuildingBlock: KUFVIS_clean_sbu_0, # of connection points: 4
#     Node 10, Type 0, BuildingBlock: KUFVIS_clean_sbu_0, # of connection points: 4
#     Node 11, Type 0, BuildingBlock: KUFVIS_clean_sbu_0, # of connection points: 4
#     Node 12, Type 0, BuildingBlock: KUFVIS_clean_sbu_0, # of connection points: 4
#     Node 13, Type 0, BuildingBlock: KUFVIS_clean_sbu_0, # of connection points: 4
#     Node 14, Type 0, BuildingBlock: KUFVIS_clean_sbu_0, # of connection points: 4
#     Node 15, Type 0, BuildingBlock: KUFVIS_clean_sbu_0, # of connection points: 4
#     Node 16, Type 0, BuildingBlock: KUFVIS_clean_sbu_0, # of connection points: 4
#     Node 17, Type 0, BuildingBlock: KUFVIS_clean_sbu_0, # of connection points: 4
#     Node 18, Type 0, BuildingBlock: KUFVIS_clean_sbu_0, # of connection points: 4
#     Node 19, Type 0, BuildingBlock: KUFVIS_clean_sbu_0, # of connection points: 4
#     Node 20, Type 0, BuildingBlock: KUFVIS_clean_sbu_0, # of connection points: 4
#     Node 21, Type 0, BuildingBlock: KUFVIS_clean_sbu_0, # of connection points: 4
#     Node 22, Type 0, BuildingBlock: KUFVIS_clean_sbu_0, # of connection points: 4
#     Node 23, Type 0, BuildingBlock: KUFVIS_clean_sbu_0, # of connection points: 4
#     Edge 24, Type (0, 0), BuildingBlock: KIFKEQ_clean_linker_1, # of connection points: 2
#     Edge 25, Type (0, 0), BuildingBlock: KIFKEQ_clean_linker_1, # of connection points: 2
#     Edge 26, Type (0, 0), BuildingBlock: KIFKEQ_clean_linker_1, # of connection points: 2
#     Edge 27, Type (0, 0), BuildingBlock: KIFKEQ_clean_linker_1, # of connection points: 2
#     Edge 28, Type (0, 0), BuildingBlock: KIFKEQ_clean_linker_1, # of connection points: 2
#     Edge 29, Type (0, 0), BuildingBlock: KIFKEQ_clean_linker_1, # of connection points: 2
#     Edge 30, Type (0, 0), BuildingBlock: KIFKEQ_clean_linker_1, # of connection points: 2
#     Edge 31, Type (0, 0), BuildingBlock: KIFKEQ_clean_linker_1, # of connection points: 2
#     Edge 32, Type (0, 0), BuildingBlock: KIFKEQ_clean_linker_1, # of connection points: 2
#     Edge 33, Type (0, 0), BuildingBlock: KIFKEQ_clean_linker_1, # of connection points: 2
#     Edge 34, Type (0, 0), BuildingBlock: KIFKEQ_clean_linker_1, # of connection points: 2
#     Edge 35, Type (0, 0), BuildingBlock: KIFKEQ_clean_linker_1, # of connection points: 2
#     Edge 36, Type (0, 0), BuildingBlock: KIFKEQ_clean_linker_1, # of connection points: 2
#     Edge 37, Type (0, 0), BuildingBlock: KIFKEQ_clean_linker_1, # of connection points: 2
#     Edge 38, Type (0, 0), BuildingBlock: KIFKEQ_clean_linker_1, # of connection points: 2
#     Edge 39, Type (0, 0), BuildingBlock: KIFKEQ_clean_linker_1, # of connection points: 2
#     Edge 40, Type (0, 0), BuildingBlock: KIFKEQ_clean_linker_1, # of connection points: 2
#     Edge 41, Type (0, 0), BuildingBlock: KIFKEQ_clean_linker_1, # of connection points: 2
#     Edge 42, Type (0, 0), BuildingBlock: KIFKEQ_clean_linker_1, # of connection points: 2
#     Edge 43, Type (0, 0), BuildingBlock: KIFKEQ_clean_linker_1, # of connection points: 2
#     Edge 44, Type (0, 0), BuildingBlock: KIFKEQ_clean_linker_1, # of connection points: 2
#     Edge 45, Type (0, 0), BuildingBlock: KIFKEQ_clean_linker_1, # of connection points: 2
#     Edge 46, Type (0, 0), BuildingBlock: KIFKEQ_clean_linker_1, # of connection points: 2
#     Edge 47, Type (0, 0), BuildingBlock: KIFKEQ_clean_linker_1, # of connection points: 2
#     Edge 48, Type (0, 0), BuildingBlock: KIFKEQ_clean_linker_1, # of connection points: 2
#     Edge 49, Type (0, 0), BuildingBlock: KIFKEQ_clean_linker_1, # of connection points: 2
#     Edge 50, Type (0, 0), BuildingBlock: KIFKEQ_clean_linker_1, # of connection points: 2
#     Edge 51, Type (0, 0), BuildingBlock: KIFKEQ_clean_linker_1, # of connection points: 2
#     Edge 52, Type (0, 0), BuildingBlock: KIFKEQ_clean_linker_1, # of connection points: 2
#     Edge 53, Type (0, 0), BuildingBlock: KIFKEQ_clean_linker_1, # of connection points: 2
#     Edge 54, Type (0, 0), BuildingBlock: KIFKEQ_clean_linker_1, # of connection points: 2
#     Edge 55, Type (0, 0), BuildingBlock: KIFKEQ_clean_linker_1, # of connection points: 2
#     Edge 56, Type (0, 0), BuildingBlock: KIFKEQ_clean_linker_1, # of connection points: 2
#     Edge 57, Type (0, 0), BuildingBlock: KIFKEQ_clean_linker_1, # of connection points: 2
#     Edge 58, Type (0, 0), BuildingBlock: KIFKEQ_clean_linker_1, # of connection points: 2
#     Edge 59, Type (0, 0), BuildingBlock: KIFKEQ_clean_linker_1, # of connection points: 2
#     Edge 60, Type (0, 0), BuildingBlock: KIFKEQ_clean_linker_1, # of connection points: 2
#     Edge 61, Type (0, 0), BuildingBlock: KIFKEQ_clean_linker_1, # of connection points: 2
#     Edge 62, Type (0, 0), BuildingBlock: KIFKEQ_clean_linker_1, # of connection points: 2
#     Edge 63, Type (0, 0), BuildingBlock: KIFKEQ_clean_linker_1, # of connection points: 2
#     Edge 64, Type (0, 0), BuildingBlock: KIFKEQ_clean_linker_1, # of connection points: 2
#     Edge 65, Type (0, 0), BuildingBlock: KIFKEQ_clean_linker_1, # of connection points: 2
#     Edge 66, Type (0, 0), BuildingBlock: KIFKEQ_clean_linker_1, # of connection points: 2
#     Edge 67, Type (0, 0), BuildingBlock: KIFKEQ_clean_linker_1, # of connection points: 2
#     Edge 68, Type (0, 0), BuildingBlock: KIFKEQ_clean_linker_1, # of connection points: 2
#     Edge 69, Type (0, 0), BuildingBlock: KIFKEQ_clean_linker_1, # of connection points: 2
#     Edge 70, Type (0, 0), BuildingBlock: KIFKEQ_clean_linker_1, # of connection points: 2
#     Edge 71, Type (0, 0), BuildingBlock: KIFKEQ_clean_linker_1, # of connection points: 2
# Relax obj value: 0.088
# Max RMSD: 0.121
# Mean RMSD: 0.121
data_MOF--net-gme--node1-KUFVIS_clean_sbu_0--edge1-KIFKEQ_clean_linker_1
_symmetry_space_group_name_H-M    P1
_symmetry_Int_Tables_number       1
_symmetry_cell_setting            triclinic
loop_
_symmetry_equiv_pos_as_xyz
'x, y, z'
_cell_length_a     56.393421
_cell_length_b     56.3985
_cell_length_c     57.41075
_cell_angle_alpha  89.966864
_cell_angle_beta   90.019897
_cell_angle_gamma 119.99663
loop_
_atom_site_label
_atom_site_type_symbol
_atom_site_fract_x
_atom_site_fract_y
_atom_site_fract_z
_atom_type_partial_charge
Mn0 Mn 0.40605 0.0635 0.11899 0.0
Mn1 Mn 0.45011 0.11944 0.14964 0.0
C2 C 0.44828 0.06907 0.12963 0.0
C3 C 0.3883 0.04408 0.08268 0.0
C4 C 0.40099 0.06998 0.17109 0.0
O5 O 0.38969 0.08841 0.11599 0.0
O6 O 0.42308 0.12622 0.13327 0.0
C7 C 0.47773 0.1576 0.11046 0.0
N8 N 0.47914 0.14518 0.13033 0.0
C9 C 0.52815 0.17324 0.13158 0.0
C10 C 0.52728 0.18649 0.11119 0.0
C11 C 0.50197 0.17844 0.10046 0.0
C12 C 0.50339 0.15221 0.14042 0.0
H13 H 0.45826 0.15174 0.10243 0.0
C14 C 0.40067 0.11344 0.12191 0.0
O15 O 0.37429 0.03384 0.10167 0.0
O16 O 0.4124 0.06548 0.08487 0.0
N17 N 0.47794 0.11679 0.16646 0.0
C18 C 0.47532 0.10065 0.18506 0.0
C19 C 0.49882 0.10528 0.1973 0.0
C20 C 0.52463 0.12694 0.19072 0.0
C21 C 0.52677 0.14337 0.17157 0.0
C22 C 0.50274 0.13734 0.15971 0.0
H23 H 0.45544 0.08456 0.19062 0.0
O24 O 0.42825 0.04538 0.12334 0.0
O25 O 0.44348 0.08939 0.12851 0.0
O26 O 0.39281 0.05481 0.15299 0.0
O27 O 0.42136 0.09433 0.17135 0.0
C28 C 0.55178 0.16558 0.16381 0.0
C29 C 0.55254 0.18018 0.1436 0.0
H30 H 0.54591 0.20282 0.10361 0.0
H31 H 0.50111 0.18851 0.08469 0.0
H32 H 0.49701 0.09252 0.21205 0.0
H33 H 0.54265 0.13071 0.20043 0.0
H34 H 0.57065 0.17136 0.17305 0.0
H35 H 0.57199 0.1967 0.13747 0.0
Mn36 Mn 0.34088 0.40817 0.61894 0.0
Mn37 Mn 0.33071 0.45479 0.64702 0.0
C38 C 0.37848 0.45023 0.62849 0.0
C39 C 0.34207 0.38849 0.5835 0.0
C40 C 0.32842 0.40535 0.67066 0.0
O41 O 0.29969 0.39294 0.61586 0.0
O42 O 0.29697 0.42865 0.63016 0.0
C43 C 0.32321 0.48311 0.60669 0.0
N44 N 0.33614 0.48409 0.627 0.0
C45 C 0.35894 0.53324 0.62778 0.0
C46 C 0.3458 0.53282 0.60691 0.0
C47 C 0.32806 0.50764 0.5962 0.0
C48 C 0.35378 0.50817 0.63711 0.0
H49 H 0.30919 0.46375 0.59869 0.0
C50 C 0.28656 0.40539 0.62008 0.0
O51 O 0.33776 0.37518 0.60298 0.0
O52 O 0.34535 0.41289 0.58469 0.0
N53 N 0.36136 0.4819 0.66413 0.0
C54 C 0.37392 0.47874 0.68318 0.0
C55 C 0.39319 0.50201 0.69544 0.0
C56 C 0.39873 0.52815 0.68838 0.0
C57 C 0.38544 0.53085 0.66874 0.0
C58 C 0.367 0.50701 0.6569 0.0
H59 H 0.36905 0.45863 0.6891 0.0
O60 O 0.38125 0.42941 0.62315 0.0
O61 O 0.35367 0.44626 0.62701 0.0
O62 O 0.33612 0.3966 0.65338 0.0
O63 O 0.32471 0.42588 0.66955 0.0
C64 C 0.38969 0.55623 0.66047 0.0
C65 C 0.37681 0.55747 0.63979 0.0
H66 H 0.34922 0.55169 0.59894 0.0
H67 H 0.31788 0.50714 0.58007 0.0
H68 H 0.40337 0.49976 0.71056 0.0
H69 H 0.41331 0.54601 0.69808 0.0
H70 H 0.40323 0.57501 0.66963 0.0
H71 H 0.38084 0.57717 0.63328 0.0
Mn72 Mn 0.93466 0.34198 0.11952 0.0
Mn73 Mn 0.88266 0.33367 0.15413 0.0
C74 C 0.93077 0.37964 0.12988 0.0
C75 C 0.95269 0.34255 0.08272 0.0
C76 C 0.93396 0.33691 0.17292 0.0
O77 O 0.90852 0.30102 0.11722 0.0
O78 O 0.87673 0.29792 0.14254 0.0
C79 C 0.84024 0.31356 0.11727 0.0
N80 N 0.85389 0.3313 0.13496 0.0
C81 C 0.82367 0.3498 0.13341 0.0
C82 C 0.8092 0.33169 0.11522 0.0
C83 C 0.81769 0.31365 0.10698 0.0
C84 C 0.84636 0.34921 0.14258 0.0
H85 H 0.84639 0.29933 0.11117 0.0
C86 C 0.8865 0.2872 0.12871 0.0
O87 O 0.96302 0.33849 0.1015 0.0
O88 O 0.93173 0.34595 0.08534 0.0
N89 N 0.88425 0.36564 0.16707 0.0
C90 C 0.90103 0.38243 0.18413 0.0
C91 C 0.89559 0.40195 0.19412 0.0
C92 C 0.87251 0.40339 0.18697 0.0
C93 C 0.85544 0.38575 0.16947 0.0
C94 C 0.8622 0.36712 0.15986 0.0
H95 H 0.91824 0.38075 0.19021 0.0
O96 O 0.95395 0.38236 0.12316 0.0
O97 O 0.90989 0.35473 0.12992 0.0
O98 O 0.94501 0.33776 0.15327 0.0
O99 O 0.91119 0.33629 0.17525 0.0
C100 C 0.83185 0.38576 0.16131 0.0
C101 C 0.81628 0.36817 0.143 0.0
H102 H 0.79156 0.33143 0.10748 0.0
H103 H 0.80665 0.29961 0.09294 0.0
H104 H 0.90883 0.41547 0.20762 0.0
H105 H 0.86809 0.41809 0.19505 0.0
H106 H 0.82566 0.39946 0.16879 0.0
H107 H 0.79856 0.36882 0.13655 0.0
Mn108 Mn 0.60082 0.93762 0.6192 0.0
Mn109 Mn 0.55259 0.88511 0.65085 0.0
C110 C 0.55991 0.93617 0.6279 0.0
C111 C 0.62023 0.95522 0.58273 0.0
C112 C 0.60356 0.93218 0.67211 0.0
O113 O 0.61303 0.90913 0.61765 0.0
O114 O 0.57824 0.8745 0.63719 0.0
C115 C 0.52447 0.84707 0.61175 0.0
N116 N 0.52358 0.86145 0.63045 0.0
C117 C 0.47587 0.84588 0.62399 0.0
C118 C 0.47619 0.8307 0.60477 0.0
C119 C 0.5006 0.8313 0.59864 0.0
C120 C 0.50021 0.86099 0.63653 0.0
H121 H 0.54328 0.84777 0.60682 0.0
C122 C 0.60065 0.88478 0.62569 0.0
O123 O 0.63422 0.96488 0.60181 0.0
O124 O 0.59528 0.93527 0.5849 0.0
N125 N 0.52636 0.89235 0.66527 0.0
C126 C 0.52957 0.90822 0.68423 0.0
C127 C 0.50705 0.90977 0.69273 0.0
C128 C 0.48153 0.89498 0.68166 0.0
C129 C 0.47866 0.87833 0.6625 0.0
C130 C 0.50162 0.87706 0.65517 0.0
H131 H 0.54919 0.91974 0.69272 0.0
O132 O 0.58129 0.95902 0.62186 0.0
O133 O 0.56306 0.91484 0.62834 0.0
O134 O 0.61354 0.94617 0.65349 0.0
O135 O 0.58145 0.90907 0.67286 0.0
C136 C 0.45412 0.86357 0.64996 0.0
C137 C 0.45259 0.84723 0.63081 0.0
H138 H 0.45789 0.81874 0.59447 0.0
H139 H 0.50106 0.81979 0.58374 0.0
H140 H 0.50944 0.92259 0.70758 0.0
H141 H 0.46439 0.8968 0.68788 0.0
H142 H 0.43664 0.86547 0.65447 0.0
H143 H 0.43356 0.83619 0.62122 0.0
Mn144 Mn 0.65513 0.59113 0.11554 0.0
Mn145 Mn 0.66004 0.5415 0.14354 0.0
C146 C 0.61536 0.55085 0.12531 0.0
C147 C 0.65586 0.61116 0.07961 0.0
C148 C 0.67032 0.5945 0.16637 0.0
O149 O 0.69559 0.60197 0.11234 0.0
O150 O 0.69318 0.56267 0.12418 0.0
C151 C 0.65753 0.50705 0.1037 0.0
N152 N 0.6474 0.50973 0.12444 0.0
C153 C 0.61171 0.46253 0.12375 0.0
C154 C 0.62195 0.45914 0.10253 0.0
C155 C 0.64495 0.48153 0.09244 0.0
C156 C 0.62527 0.48837 0.13428 0.0
H157 H 0.67496 0.5243 0.09574 0.0
C158 C 0.70591 0.58644 0.1148 0.0
O159 O 0.66154 0.62512 0.09886 0.0
O160 O 0.65012 0.58595 0.08132 0.0
N161 N 0.62896 0.51942 0.16275 0.0
C162 C 0.62089 0.52633 0.18278 0.0
C163 C 0.59777 0.5064 0.19475 0.0
C164 C 0.58322 0.4796 0.18603 0.0
C165 C 0.59215 0.47294 0.16556 0.0
C166 C 0.61562 0.49348 0.15464 0.0
H167 H 0.63193 0.54687 0.1896 0.0
O168 O 0.61425 0.57259 0.11986 0.0
O169 O 0.63948 0.55333 0.12418 0.0
O170 O 0.66132 0.6031 0.1499 0.0
O171 O 0.67285 0.57325 0.16481 0.0
C172 C 0.57814 0.44695 0.15519 0.0
C173 C 0.588 0.44156 0.13445 0.0
H174 H 0.6121 0.43957 0.09367 0.0
H175 H 0.65283 0.47917 0.07595 0.0
H176 H 0.59107 0.51174 0.21055 0.0
H177 H 0.56509 0.46436 0.19506 0.0
H178 H 0.5592 0.43137 0.16263 0.0
H179 H 0.57678 0.42148 0.12655 0.0
Mn180 Mn 0.05985 0.66081 0.61572 0.0
Mn181 Mn 0.11383 0.66682 0.64578 0.0
C182 C 0.06202 0.62177 0.62458 0.0
C183 C 0.04178 0.6623 0.57956 0.0
C184 C 0.06736 0.67195 0.66749 0.0
O185 O 0.08786 0.70185 0.61443 0.0
O186 O 0.12491 0.70139 0.62875 0.0
C187 C 0.14963 0.67087 0.60647 0.0
N188 N 0.13585 0.65811 0.62628 0.0
C189 C 0.15021 0.62462 0.62326 0.0
C190 C 0.16476 0.63753 0.60296 0.0
C191 C 0.16445 0.66077 0.59452 0.0
C192 C 0.13601 0.63577 0.63454 0.0
H193 H 0.14917 0.68853 0.59978 0.0
C194 C 0.11343 0.71342 0.6189 0.0
O195 O 0.03204 0.66635 0.59871 0.0
O196 O 0.06214 0.65788 0.58149 0.0
N197 N 0.10603 0.63467 0.66296 0.0
C198 C 0.09061 0.62434 0.68259 0.0
C199 C 0.08868 0.601 0.6932 0.0
C200 C 0.10267 0.5886 0.68357 0.0
C201 C 0.11881 0.59995 0.66362 0.0
C202 C 0.12045 0.62355 0.65412 0.0
H203 H 0.07983 0.63376 0.69011 0.0
O204 O 0.039 0.61981 0.61837 0.0
O205 O 0.08306 0.64637 0.62464 0.0
O206 O 0.05149 0.66446 0.64984 0.0
O207 O 0.09154 0.6753 0.66726 0.0
C208 C 0.13271 0.58831 0.65244 0.0
C209 C 0.14855 0.60065 0.63238 0.0
H210 H 0.17599 0.62963 0.59357 0.0
H211 H 0.17547 0.67075 0.57877 0.0
H212 H 0.07626 0.59246 0.70864 0.0
H213 H 0.10072 0.57029 0.69151 0.0
H214 H 0.13049 0.56934 0.65874 0.0
H215 H 0.1589 0.59122 0.62384 0.0
Mn216 Mn 0.9396 0.60047 0.38436 0.0
Mn217 Mn 0.88874 0.55525 0.34952 0.0
C218 C 0.93659 0.55889 0.37551 0.0
C219 C 0.95584 0.61848 0.42133 0.0
C220 C 0.93839 0.60642 0.33154 0.0
O221 O 0.91199 0.61381 0.38508 0.0
O222 O 0.8782 0.58093 0.36329 0.0
C223 C 0.84611 0.52537 0.38516 0.0
N224 N 0.86205 0.52521 0.36742 0.0
C225 C 0.84213 0.47636 0.37006 0.0
C226 C 0.82533 0.47594 0.38825 0.0
C227 C 0.82735 0.50056 0.39584 0.0
C228 C 0.86018 0.50165 0.35988 0.0
H229 H 0.84777 0.5443 0.39115 0.0
C230 C 0.88822 0.60255 0.37587 0.0
O231 O 0.96668 0.63282 0.40262 0.0
O232 O 0.93537 0.59386 0.41854 0.0
N233 N 0.89628 0.52921 0.33512 0.0
C234 C 0.91544 0.53343 0.31869 0.0
C235 C 0.91698 0.51101 0.30992 0.0
C236 C 0.89876 0.48453 0.31807 0.0
C237 C 0.87905 0.48074 0.33481 0.0
C238 C 0.87824 0.50377 0.34269 0.0
H239 H 0.9296 0.55376 0.31248 0.0
O240 O 0.95963 0.57956 0.38229 0.0
O241 O 0.91602 0.56321 0.37404 0.0
O242 O 0.95099 0.61495 0.35087 0.0
O243 O 0.91509 0.58488 0.32938 0.0
C244 C 0.8609 0.45512 0.34462 0.0
C245 C 0.84236 0.45284 0.36217 0.0
H246 H 0.81107 0.45688 0.39672 0.0
H247 H 0.81458 0.50044 0.40997 0.0
H248 H 0.9323 0.51416 0.29705 0.0
H249 H 0.90028 0.4673 0.31158 0.0
H250 H 0.86179 0.43732 0.33922 0.0
H251 H 0.82887 0.43306 0.36991 0.0
Mn252 Mn 0.34088 0.93599 0.88867 0.0
Mn253 Mn 0.32961 0.87981 0.85885 0.0
C254 C 0.37791 0.93119 0.87782 0.0
C255 C 0.34286 0.95578 0.92485 0.0
C256 C 0.32787 0.92804 0.83686 0.0
O257 O 0.29976 0.91035 0.89227 0.0
O258 O 0.2961 0.87238 0.87596 0.0
C259 C 0.32135 0.84255 0.89822 0.0
N260 N 0.33449 0.85502 0.87813 0.0
C261 C 0.35652 0.82798 0.87631 0.0
C262 C 0.34318 0.81474 0.89696 0.0
C263 C 0.32573 0.82227 0.90809 0.0
C264 C 0.35187 0.8485 0.86764 0.0
H265 H 0.30749 0.84791 0.90652 0.0
C266 C 0.28621 0.88504 0.88711 0.0
O267 O 0.33844 0.96556 0.90587 0.0
O268 O 0.34597 0.93463 0.92271 0.0
N269 N 0.36002 0.88325 0.84141 0.0
C270 C 0.37274 0.89936 0.82259 0.0
C271 C 0.39177 0.89532 0.80999 0.0
C272 C 0.39687 0.87423 0.81645 0.0
C273 C 0.38337 0.85779 0.8358 0.0
C274 C 0.36526 0.86331 0.84806 0.0
H275 H 0.36818 0.91499 0.81713 0.0
O276 O 0.38115 0.9548 0.88381 0.0
O277 O 0.35301 0.91055 0.87936 0.0
O278 O 0.33554 0.94384 0.85459 0.0
O279 O 0.32419 0.90379 0.83714 0.0
C280 C 0.38705 0.83606 0.84339 0.0
C281 C 0.37401 0.82148 0.86384 0.0
H282 H 0.34621 0.79881 0.90443 0.0
H283 H 0.31537 0.81217 0.92405 0.0
H284 H 0.40209 0.90806 0.79506 0.0
H285 H 0.41126 0.87091 0.80647 0.0
H286 H 0.40031 0.83072 0.83388 0.0
H287 H 0.37763 0.80534 0.86984 0.0
Mn288 Mn 0.40081 0.33717 0.39037 0.0
Mn289 Mn 0.44305 0.32778 0.35484 0.0
C290 C 0.44266 0.3742 0.37968 0.0
C291 C 0.38409 0.3382 0.42734 0.0
C292 C 0.39591 0.33321 0.33698 0.0
O293 O 0.38503 0.29602 0.39246 0.0
O294 O 0.41241 0.29234 0.36613 0.0
C295 C 0.46403 0.30558 0.39112 0.0
N296 N 0.46878 0.32383 0.37369 0.0
C297 C 0.51719 0.34048 0.375 0.0
C298 C 0.51285 0.32182 0.39292 0.0
C299 C 0.48617 0.30447 0.40116 0.0
C300 C 0.49442 0.34116 0.36614 0.0
H301 H 0.44351 0.29185 0.39721 0.0
C302 C 0.39227 0.28185 0.38033 0.0
O303 O 0.36956 0.33451 0.40872 0.0
O304 O 0.40812 0.34084 0.42449 0.0
N305 N 0.47414 0.35927 0.34209 0.0
C306 C 0.47488 0.37646 0.32506 0.0
C307 C 0.50007 0.39518 0.31491 0.0
C308 C 0.52406 0.39538 0.32184 0.0
C309 C 0.52279 0.3774 0.33931 0.0
C310 C 0.49721 0.35961 0.3491 0.0
H311 H 0.45635 0.37565 0.31908 0.0
O312 O 0.4227 0.37754 0.38681 0.0
O313 O 0.43801 0.34908 0.37951 0.0
O314 O 0.38589 0.33358 0.35685 0.0
O315 O 0.41778 0.33214 0.33418 0.0
C316 C 0.54584 0.37617 0.3472 0.0
C317 C 0.54314 0.35812 0.36535 0.0
H318 H 0.52984 0.3206 0.40044 0.0
H319 H 0.48263 0.29001 0.41498 0.0
H320 H 0.5009 0.40897 0.30141 0.0
H321 H 0.54333 0.40933 0.31355 0.0
H322 H 0.56584 0.38927 0.33963 0.0
H323 H 0.56111 0.35779 0.37158 0.0
Mn324 Mn 0.06827 0.40565 0.8913 0.0
Mn325 Mn 0.12716 0.44951 0.86428 0.0
C326 C 0.07655 0.44896 0.88092 0.0
C327 C 0.04584 0.38735 0.92659 0.0
C328 C 0.07883 0.40218 0.8397 0.0
O329 O 0.09183 0.38775 0.89562 0.0
O330 O 0.13159 0.42132 0.88103 0.0
C331 C 0.16131 0.47463 0.9061 0.0
N332 N 0.15078 0.47732 0.88557 0.0
C333 C 0.17745 0.52639 0.88761 0.0
C334 C 0.18869 0.5242 0.90874 0.0
C335 C 0.18037 0.4982 0.91815 0.0
C336 C 0.15788 0.50221 0.8768 0.0
H337 H 0.15531 0.45466 0.91314 0.0
C338 C 0.11731 0.3984 0.89135 0.0
O339 O 0.03653 0.37403 0.90716 0.0
O340 O 0.06802 0.41095 0.92541 0.0
N341 N 0.1266 0.47837 0.84728 0.0
C342 C 0.11392 0.47689 0.82667 0.0
C343 C 0.11999 0.50112 0.81492 0.0
C344 C 0.13972 0.52653 0.82403 0.0
C345 C 0.15281 0.52753 0.8451 0.0
C346 C 0.14537 0.50277 0.85634 0.0
H347 H 0.09947 0.45737 0.81916 0.0
O348 O 0.052 0.42962 0.88596 0.0
O349 O 0.09573 0.44276 0.88325 0.0
O350 O 0.06209 0.39407 0.85683 0.0
O351 O 0.10364 0.42176 0.84107 0.0
C352 C 0.17353 0.55204 0.85505 0.0
C353 C 0.18539 0.55154 0.87653 0.0
H354 H 0.20381 0.54234 0.91783 0.0
H355 H 0.18893 0.49632 0.93445 0.0
H356 H 0.10993 0.50018 0.79861 0.0
H357 H 0.14482 0.54512 0.81459 0.0
H358 H 0.18064 0.57143 0.84627 0.0
H359 H 0.20095 0.57058 0.88417 0.0
Mn360 Mn 0.66326 0.06689 0.39142 0.0
Mn361 Mn 0.66844 0.12325 0.36686 0.0
C362 C 0.62358 0.06797 0.38252 0.0
C363 C 0.66377 0.04588 0.42644 0.0
C364 C 0.67898 0.08221 0.341 0.0
O365 O 0.70361 0.09613 0.39542 0.0
O366 O 0.70138 0.13385 0.38622 0.0
C367 C 0.6653 0.15209 0.40877 0.0
N368 N 0.65548 0.14085 0.38746 0.0
C369 C 0.61958 0.152 0.38977 0.0
C370 C 0.62947 0.16396 0.41163 0.0
C371 C 0.65242 0.16397 0.42118 0.0
C372 C 0.63341 0.1407 0.37812 0.0
H373 H 0.68271 0.15182 0.41628 0.0
C374 C 0.71401 0.12209 0.39443 0.0
O375 O 0.6695 0.03842 0.40677 0.0
O376 O 0.65793 0.06532 0.4256 0.0
N377 N 0.63765 0.1157 0.34777 0.0
C378 C 0.63004 0.10246 0.32689 0.0
C379 C 0.60718 0.10028 0.31517 0.0
C380 C 0.59241 0.11174 0.32502 0.0
C381 C 0.60087 0.12554 0.34637 0.0
C382 C 0.62413 0.12758 0.35701 0.0
H383 H 0.64124 0.09357 0.31918 0.0
O384 O 0.62242 0.04481 0.38669 0.0
O385 O 0.64767 0.08948 0.38441 0.0
O386 O 0.67 0.06349 0.35661 0.0
O387 O 0.68139 0.10579 0.34421 0.0
C388 C 0.58659 0.13655 0.35786 0.0
C389 C 0.59599 0.14999 0.37944 0.0
H390 H 0.61939 0.17287 0.42137 0.0
H391 H 0.66004 0.17296 0.43813 0.0
H392 H 0.60084 0.08962 0.29868 0.0
H393 H 0.57448 0.10961 0.31616 0.0
H394 H 0.56779 0.1338 0.35054 0.0
H395 H 0.58455 0.15805 0.38824 0.0
Mn396 Mn 0.59595 0.66172 0.88631 0.0
Mn397 Mn 0.55028 0.6706 0.85494 0.0
C398 C 0.55452 0.62391 0.87577 0.0
C399 C 0.61385 0.66011 0.92273 0.0
C400 C 0.601 0.67357 0.83393 0.0
O401 O 0.60973 0.70249 0.89005 0.0
O402 O 0.57668 0.7054 0.87035 0.0
C403 C 0.52155 0.68128 0.89304 0.0
N404 N 0.52078 0.66663 0.87394 0.0
C405 C 0.4716 0.64343 0.87278 0.0
C406 C 0.4718 0.65826 0.89246 0.0
C407 C 0.49689 0.6771 0.90275 0.0
C408 C 0.49677 0.64806 0.8642 0.0
H409 H 0.54085 0.69621 0.90064 0.0
C410 C 0.59858 0.71586 0.88255 0.0
O411 O 0.62827 0.66514 0.90382 0.0
O412 O 0.58932 0.65629 0.92043 0.0
N413 N 0.52334 0.63889 0.83883 0.0
C414 C 0.52676 0.62502 0.82095 0.0
C415 C 0.50364 0.60448 0.8094 0.0
C416 C 0.47735 0.59895 0.81596 0.0
C417 C 0.4744 0.61363 0.83435 0.0
C418 C 0.49813 0.63341 0.84553 0.0
H419 H 0.54698 0.62974 0.81548 0.0
O420 O 0.57542 0.6214 0.88147 0.0
O421 O 0.55824 0.64865 0.87678 0.0
O422 O 0.61003 0.66777 0.85223 0.0
O423 O 0.57925 0.67514 0.83353 0.0
C424 C 0.44888 0.60958 0.84197 0.0
C425 C 0.44747 0.62435 0.86126 0.0
H426 H 0.45283 0.65532 0.89983 0.0
H427 H 0.49722 0.68863 0.91793 0.0
H428 H 0.50608 0.59325 0.79521 0.0
H429 H 0.4596 0.58341 0.80674 0.0
H430 H 0.43015 0.59486 0.83335 0.0
H431 H 0.42768 0.62063 0.86724 0.0
Mn432 Mn 0.60049 0.93895 0.89115 0.0
Mn433 Mn 0.55027 0.8842 0.86403 0.0
C434 C 0.56003 0.93839 0.88218 0.0
C435 C 0.62119 0.95778 0.92694 0.0
C436 C 0.60272 0.92681 0.84027 0.0
O437 O 0.6115 0.9095 0.89371 0.0
O438 O 0.57165 0.87235 0.88329 0.0
C439 C 0.51635 0.85279 0.90432 0.0
N440 N 0.51878 0.8654 0.8835 0.0
C441 C 0.47161 0.85398 0.8846 0.0
C442 C 0.46851 0.84064 0.90594 0.0
C443 C 0.491 0.84008 0.91585 0.0
C444 C 0.49731 0.86611 0.87382 0.0
H445 H 0.53367 0.85257 0.9121 0.0
C446 C 0.59582 0.88363 0.89189 0.0
O447 O 0.63481 0.96637 0.90754 0.0
O448 O 0.5959 0.93846 0.92541 0.0
N449 N 0.52797 0.89304 0.84493 0.0
C450 C 0.53456 0.90757 0.82465 0.0
C451 C 0.51442 0.91044 0.8127 0.0
C452 C 0.48772 0.8983 0.82166 0.0
C453 C 0.48139 0.88317 0.84239 0.0
C454 C 0.50213 0.88055 0.8533 0.0
H455 H 0.55499 0.91694 0.8176 0.0
O456 O 0.58182 0.96126 0.8875 0.0
O457 O 0.56258 0.9168 0.88309 0.0
O458 O 0.61159 0.94463 0.85658 0.0
O459 O 0.58172 0.90289 0.84241 0.0
C460 C 0.45551 0.87131 0.85299 0.0
C461 C 0.45049 0.85653 0.87397 0.0
H462 H 0.44905 0.83106 0.915 0.0
H463 H 0.48883 0.83 0.93241 0.0
H464 H 0.5195 0.92212 0.79669 0.0
H465 H 0.47232 0.90092 0.81262 0.0
H466 H 0.43976 0.87441 0.84547 0.0
H467 H 0.43055 0.84782 0.88211 0.0
Mn468 Mn 0.66155 0.59424 0.38724 0.0
Mn469 Mn 0.66567 0.54197 0.36379 0.0
C470 C 0.62148 0.55317 0.38025 0.0
C471 C 0.6639 0.61719 0.42186 0.0
C472 C 0.67449 0.59215 0.33641 0.0
O473 O 0.70209 0.60577 0.38972 0.0
O474 O 0.69979 0.56562 0.38136 0.0
C475 C 0.66576 0.51271 0.40656 0.0
N476 N 0.65441 0.51274 0.38563 0.0
C477 C 0.61921 0.46573 0.39039 0.0
C478 C 0.63066 0.46509 0.4119 0.0
C479 C 0.65403 0.48871 0.42003 0.0
C480 C 0.63195 0.49016 0.37763 0.0
H481 H 0.68354 0.53092 0.41297 0.0
C482 C 0.71268 0.59042 0.38856 0.0
O483 O 0.66849 0.62958 0.40184 0.0
O484 O 0.65809 0.59193 0.42157 0.0
N485 N 0.63383 0.51743 0.34642 0.0
C486 C 0.62469 0.52175 0.32574 0.0
C487 C 0.60111 0.50033 0.31548 0.0
C488 C 0.58723 0.47474 0.32654 0.0
C489 C 0.59733 0.47069 0.3476 0.0
C490 C 0.62118 0.4926 0.35679 0.0
H491 H 0.63518 0.54139 0.31717 0.0
O492 O 0.62057 0.57536 0.38405 0.0
O493 O 0.64564 0.55571 0.38149 0.0
O494 O 0.66648 0.60278 0.35205 0.0
O495 O 0.67685 0.571 0.33998 0.0
C496 C 0.58416 0.44605 0.3602 0.0
C497 C 0.59514 0.4434 0.38147 0.0
H498 H 0.62148 0.44669 0.42245 0.0
H499 H 0.66287 0.48845 0.43669 0.0
H500 H 0.59348 0.50363 0.29921 0.0
H501 H 0.5687 0.45848 0.31884 0.0
H502 H 0.56503 0.42943 0.35408 0.0
H503 H 0.58452 0.42435 0.39107 0.0
Mn504 Mn 0.06568 0.66241 0.88661 0.0
Mn505 Mn 0.11913 0.66768 0.85599 0.0
C506 C 0.06839 0.62341 0.87906 0.0
C507 C 0.04744 0.66443 0.92258 0.0
C508 C 0.07254 0.67235 0.83434 0.0
O509 O 0.09375 0.70327 0.88774 0.0
O510 O 0.13005 0.70336 0.8709 0.0
C511 C 0.15772 0.67572 0.89411 0.0
N512 N 0.14292 0.66127 0.87526 0.0
C513 C 0.16006 0.63 0.87834 0.0
C514 C 0.17565 0.64462 0.89772 0.0
C515 C 0.17447 0.66759 0.90564 0.0
C516 C 0.14407 0.6393 0.86736 0.0
H517 H 0.15667 0.69325 0.90031 0.0
C518 C 0.11876 0.7153 0.88127 0.0
O519 O 0.03781 0.66816 0.90321 0.0
O520 O 0.06776 0.6599 0.92099 0.0
N521 N 0.11096 0.63446 0.84056 0.0
C522 C 0.09288 0.62128 0.82294 0.0
C523 C 0.09054 0.59716 0.81369 0.0
C524 C 0.10681 0.5869 0.82264 0.0
C525 C 0.1254 0.60099 0.84065 0.0
C526 C 0.12715 0.62512 0.84894 0.0
H527 H 0.08016 0.62896 0.81613 0.0
O528 O 0.04512 0.62143 0.88447 0.0
O529 O 0.0893 0.64813 0.87837 0.0
O530 O 0.05705 0.66589 0.85222 0.0
O531 O 0.09606 0.67433 0.8345 0.0
C532 C 0.14141 0.59139 0.85134 0.0
C533 C 0.15888 0.60593 0.87007 0.0
H534 H 0.1883 0.63819 0.90685 0.0
H535 H 0.18631 0.67888 0.92067 0.0
H536 H 0.07606 0.58638 0.79985 0.0
H537 H 0.10461 0.56801 0.81578 0.0
H538 H 0.13949 0.57229 0.84575 0.0
H539 H 0.17066 0.59798 0.87848 0.0
Mn540 Mn 0.40488 0.06737 0.39052 0.0
Mn541 Mn 0.45078 0.12551 0.3635 0.0
C542 C 0.44753 0.07337 0.38072 0.0
C543 C 0.38558 0.04524 0.42576 0.0
C544 C 0.40236 0.07823 0.3389 0.0
O545 O 0.38855 0.09233 0.39435 0.0
O546 O 0.42353 0.13149 0.38027 0.0
C547 C 0.47739 0.16036 0.40468 0.0
N548 N 0.47927 0.14935 0.38415 0.0
C549 C 0.52833 0.17716 0.38411 0.0
C550 C 0.52698 0.18893 0.40522 0.0
C551 C 0.5014 0.18028 0.41567 0.0
C552 C 0.50377 0.15693 0.37431 0.0
H553 H 0.4577 0.15411 0.41247 0.0
C554 C 0.40029 0.11794 0.39029 0.0
O555 O 0.37233 0.03644 0.40624 0.0
O556 O 0.40964 0.06687 0.42473 0.0
N557 N 0.47889 0.12365 0.34646 0.0
C558 C 0.47667 0.10889 0.32699 0.0
C559 C 0.50047 0.11423 0.31485 0.0
C560 C 0.52614 0.13523 0.32245 0.0
C561 C 0.52787 0.15025 0.34249 0.0
C562 C 0.50356 0.14348 0.3542 0.0
H563 H 0.45689 0.09338 0.32065 0.0
O564 O 0.42711 0.04935 0.38564 0.0
O565 O 0.44282 0.09368 0.38278 0.0
O566 O 0.39348 0.06136 0.35593 0.0
O567 O 0.42267 0.10257 0.34048 0.0
C568 C 0.55271 0.17176 0.35126 0.0
C569 C 0.55301 0.18486 0.37228 0.0
H570 H 0.54543 0.20459 0.41356 0.0
H571 H 0.50017 0.18923 0.43198 0.0
H572 H 0.49898 0.10257 0.2994 0.0
H573 H 0.5444 0.13958 0.31283 0.0
H574 H 0.5718 0.17806 0.34222 0.0
H575 H 0.57232 0.20083 0.37916 0.0
Mn576 Mn 0.33897 0.40143 0.89199 0.0
Mn577 Mn 0.33344 0.45076 0.86336 0.0
C578 C 0.37778 0.44306 0.88441 0.0
C579 C 0.33798 0.38017 0.9272 0.0
C580 C 0.33452 0.40416 0.83867 0.0
O581 O 0.29808 0.38764 0.8941 0.0
O582 O 0.29693 0.42066 0.87308 0.0
C583 C 0.31535 0.46888 0.90472 0.0
N584 N 0.33333 0.47472 0.88683 0.0
C585 C 0.3608 0.5213 0.89975 0.0
C586 C 0.3425 0.51584 0.91821 0.0
C587 C 0.31966 0.48951 0.92068 0.0
C588 C 0.35538 0.49995 0.88432 0.0
H589 H 0.29794 0.4486 0.90689 0.0
C590 C 0.2852 0.39824 0.88455 0.0
O591 O 0.334 0.36735 0.9075 0.0
O592 O 0.34215 0.40491 0.92633 0.0
N593 N 0.36659 0.48165 0.85268 0.0
C594 C 0.38121 0.48397 0.83307 0.0
C595 C 0.40432 0.50926 0.82762 0.0
C596 C 0.41192 0.53189 0.84226 0.0
C597 C 0.39579 0.5293 0.86173 0.0
C598 C 0.3727 0.50374 0.86599 0.0
H599 H 0.37545 0.46659 0.82183 0.0
O600 O 0.3797 0.42163 0.88918 0.0
O601 O 0.3532 0.43977 0.88489 0.0
O602 O 0.33511 0.39139 0.85695 0.0
O603 O 0.33451 0.42684 0.83891 0.0
C604 C 0.40188 0.55091 0.87728 0.0
C605 C 0.38441 0.54696 0.89624 0.0
H606 H 0.34585 0.53167 0.93063 0.0
H607 H 0.3055 0.48508 0.93494 0.0
H608 H 0.41647 0.51121 0.8124 0.0
H609 H 0.43022 0.55106 0.83843 0.0
H610 H 0.42013 0.57052 0.87506 0.0
H611 H 0.38938 0.56379 0.90805 0.0
Mn612 Mn 0.93558 0.34107 0.3904 0.0
Mn613 Mn 0.87763 0.3262 0.36156 0.0
C614 C 0.92788 0.37609 0.37877 0.0
C615 C 0.95753 0.34567 0.42606 0.0
C616 C 0.92643 0.32711 0.33844 0.0
O617 O 0.91147 0.2999 0.39569 0.0
O618 O 0.87316 0.29323 0.37766 0.0
C619 C 0.84214 0.31553 0.40273 0.0
N620 N 0.8532 0.32946 0.38257 0.0
C621 C 0.82647 0.35178 0.38481 0.0
C622 C 0.8147 0.33766 0.40558 0.0
C623 C 0.82277 0.31964 0.41469 0.0
C624 C 0.84629 0.3475 0.37407 0.0
H625 H 0.84794 0.3013 0.40954 0.0
C626 C 0.88666 0.28473 0.38942 0.0
O627 O 0.96685 0.34105 0.40692 0.0
O628 O 0.93564 0.34761 0.42438 0.0
N629 N 0.87823 0.35584 0.34493 0.0
C630 C 0.89123 0.36747 0.32454 0.0
C631 C 0.88521 0.38574 0.31293 0.0
C632 C 0.86529 0.39116 0.32199 0.0
C633 C 0.85196 0.37873 0.34289 0.0
C634 C 0.85923 0.36116 0.35394 0.0
H635 H 0.90585 0.36261 0.31706 0.0
O636 O 0.95231 0.38115 0.38417 0.0
O637 O 0.90844 0.35083 0.38129 0.0
O638 O 0.94226 0.33468 0.3562 0.0
O639 O 0.90196 0.32291 0.33881 0.0
C640 C 0.8311 0.38231 0.35282 0.0
C641 C 0.81881 0.36936 0.37402 0.0
H642 H 0.79936 0.34038 0.4146 0.0
H643 H 0.81378 0.30865 0.4307 0.0
H644 H 0.89546 0.39514 0.29675 0.0
H645 H 0.86016 0.40462 0.31256 0.0
H646 H 0.82401 0.39466 0.34416 0.0
H647 H 0.80307 0.37261 0.3816 0.0
Mn648 Mn 0.06659 0.4059 0.62022 0.0
Mn649 Mn 0.11856 0.44982 0.65478 0.0
C650 C 0.06994 0.44711 0.63096 0.0
C651 C 0.0487 0.389 0.58324 0.0
C652 C 0.06778 0.40104 0.67354 0.0
O653 O 0.09308 0.39148 0.61768 0.0
O654 O 0.12508 0.42062 0.64263 0.0
C655 C 0.16074 0.4734 0.61781 0.0
N656 N 0.14691 0.47686 0.6357 0.0
C657 C 0.17624 0.52573 0.63457 0.0
C658 C 0.19087 0.52274 0.61616 0.0
C659 C 0.18293 0.49646 0.60761 0.0
C660 C 0.15392 0.50205 0.64365 0.0
H661 H 0.155 0.4532 0.61149 0.0
C662 C 0.11535 0.40006 0.62888 0.0
O663 O 0.03839 0.3742 0.60184 0.0
O664 O 0.06959 0.41331 0.58615 0.0
N665 N 0.11625 0.47957 0.66823 0.0
C666 C 0.09933 0.47893 0.68545 0.0
C667 C 0.10422 0.50355 0.69576 0.0
C668 C 0.12691 0.52843 0.68873 0.0
C669 C 0.14414 0.52856 0.67105 0.0
C670 C 0.13793 0.50346 0.66114 0.0
H671 H 0.0824 0.45974 0.69142 0.0
O672 O 0.04688 0.42653 0.62417 0.0
O673 O 0.09101 0.44339 0.63083 0.0
O674 O 0.05642 0.391 0.65393 0.0
O675 O 0.09049 0.42325 0.67581 0.0
C676 C 0.16734 0.55257 0.66294 0.0
C677 C 0.18307 0.55122 0.64444 0.0
H678 H 0.20824 0.54045 0.60847 0.0
H679 H 0.19411 0.49396 0.59341 0.0
H680 H 0.09085 0.5033 0.70939 0.0
H681 H 0.1309 0.54731 0.69703 0.0
H682 H 0.17309 0.57226 0.67062 0.0
H683 H 0.20048 0.56988 0.63805 0.0
Mn684 Mn 0.6645 0.06358 0.12019 0.0
Mn685 Mn 0.6694 0.11837 0.14756 0.0
C686 C 0.62477 0.06462 0.12874 0.0
C687 C 0.66646 0.04495 0.08432 0.0
C688 C 0.6782 0.07503 0.1712 0.0
O689 O 0.70516 0.09261 0.11822 0.0
O690 O 0.703 0.12999 0.12888 0.0
C691 C 0.66838 0.15056 0.10724 0.0
N692 N 0.65755 0.13773 0.12785 0.0
C693 C 0.62197 0.14935 0.12586 0.0
C694 C 0.63287 0.1629 0.10471 0.0
C695 C 0.65618 0.16349 0.09536 0.0
C696 C 0.63516 0.13705 0.13701 0.0
H697 H 0.6861 0.15077 0.09987 0.0
C698 C 0.71574 0.11848 0.12044 0.0
O699 O 0.67107 0.03599 0.1037 0.0
O700 O 0.66096 0.06459 0.0859 0.0
N701 N 0.63793 0.10975 0.1661 0.0
C702 C 0.62939 0.09506 0.18627 0.0
C703 C 0.60611 0.0922 0.19772 0.0
C704 C 0.59188 0.10449 0.18834 0.0
C705 C 0.6013 0.1198 0.16774 0.0
C706 C 0.62492 0.12243 0.15737 0.0
H707 H 0.6402 0.08556 0.19361 0.0
O708 O 0.62347 0.04168 0.12332 0.0
O709 O 0.64907 0.08604 0.12818 0.0
O710 O 0.66925 0.05734 0.15478 0.0
O711 O 0.6813 0.09903 0.16934 0.0
C712 C 0.58763 0.1318 0.15673 0.0
C713 C 0.59801 0.14675 0.13591 0.0
H714 H 0.62332 0.17264 0.09537 0.0
H715 H 0.6646 0.17374 0.07896 0.0
H716 H 0.59904 0.08039 0.21363 0.0
H717 H 0.57364 0.10186 0.19697 0.0
H718 H 0.56861 0.12871 0.16381 0.0
H719 H 0.58705 0.15558 0.12746 0.0
Mn720 Mn 0.60373 0.66255 0.61495 0.0
Mn721 Mn 0.55557 0.66778 0.64533 0.0
C722 C 0.56272 0.62316 0.62373 0.0
C723 C 0.62321 0.66494 0.57844 0.0
C724 C 0.60767 0.67372 0.66674 0.0
O725 O 0.61624 0.70348 0.61402 0.0
O726 O 0.57817 0.70221 0.62786 0.0
C727 C 0.52261 0.67034 0.60631 0.0
N728 N 0.52431 0.65813 0.62622 0.0
C729 C 0.47664 0.62385 0.62393 0.0
C730 C 0.4743 0.63618 0.60352 0.0
C731 C 0.4974 0.65953 0.59466 0.0
C732 C 0.50224 0.63566 0.63487 0.0
H733 H 0.54039 0.68807 0.5993 0.0
C734 C 0.60174 0.71459 0.61815 0.0
O735 O 0.63714 0.66883 0.59751 0.0
O736 O 0.59828 0.65998 0.58067 0.0
N737 N 0.53204 0.63567 0.66294 0.0
C738 C 0.53777 0.62594 0.68263 0.0
C739 C 0.51684 0.60267 0.69371 0.0
C740 C 0.49022 0.58971 0.68449 0.0
C741 C 0.48476 0.60041 0.66447 0.0
C742 C 0.50627 0.62398 0.65448 0.0
H743 H 0.5581 0.63585 0.6899 0.0
O744 O 0.58384 0.62144 0.61726 0.0
O745 O 0.56615 0.64768 0.62411 0.0
O746 O 0.61589 0.666 0.64911 0.0
O747 O 0.5869 0.67717 0.66648 0.0
C748 C 0.45896 0.58813 0.65367 0.0
C749 C 0.45481 0.59983 0.63346 0.0
H750 H 0.45495 0.62774 0.59437 0.0
H751 H 0.49582 0.66906 0.57882 0.0
H752 H 0.52125 0.59466 0.70922 0.0
H753 H 0.47419 0.57148 0.69283 0.0
H754 H 0.44254 0.56916 0.66042 0.0
H755 H 0.43494 0.58991 0.62511 0.0
Mn756 Mn 0.93699 0.60153 0.11444 0.0
Mn757 Mn 0.88253 0.55307 0.14381 0.0
C758 C 0.93532 0.56077 0.12412 0.0
C759 C 0.95624 0.62111 0.07853 0.0
C760 C 0.92765 0.60491 0.16622 0.0
O761 O 0.90839 0.61358 0.11135 0.0
O762 O 0.87163 0.57671 0.12683 0.0
C763 C 0.84781 0.52177 0.10386 0.0
N764 N 0.86119 0.5226 0.12387 0.0
C765 C 0.84749 0.47495 0.1204 0.0
C766 C 0.83337 0.4735 0.09986 0.0
C767 C 0.83354 0.49702 0.09156 0.0
C768 C 0.86112 0.50011 0.13204 0.0
H769 H 0.84817 0.5399 0.09729 0.0
C770 C 0.88295 0.5998 0.11631 0.0
O771 O 0.96501 0.63506 0.09773 0.0
O772 O 0.93626 0.59611 0.08027 0.0
N773 N 0.89018 0.52869 0.16106 0.0
C774 C 0.90531 0.53369 0.18086 0.0
C775 C 0.90735 0.5123 0.19138 0.0
C776 C 0.89383 0.48605 0.18143 0.0
C777 C 0.87805 0.48137 0.16127 0.0
C778 C 0.87623 0.50328 0.15188 0.0
H779 H 0.91586 0.55385 0.18854 0.0
O780 O 0.9584 0.58215 0.11854 0.0
O781 O 0.91395 0.56381 0.12328 0.0
O782 O 0.94377 0.61387 0.14871 0.0
O783 O 0.90393 0.58346 0.16563 0.0
C784 C 0.86473 0.45603 0.14973 0.0
C785 C 0.8493 0.45268 0.12941 0.0
H786 H 0.82259 0.45452 0.09019 0.0
H787 H 0.82285 0.49612 0.07563 0.0
H788 H 0.91954 0.5161 0.20696 0.0
H789 H 0.89594 0.46974 0.18929 0.0
H790 H 0.86712 0.43935 0.15593 0.0
H791 H 0.83942 0.43307 0.12061 0.0
Mn792 Mn 0.33877 0.93183 0.61779 0.0
Mn793 Mn 0.33134 0.88029 0.65263 0.0
C794 C 0.3769 0.92865 0.62816 0.0
C795 C 0.33906 0.94987 0.581 0.0
C796 C 0.33421 0.93144 0.67126 0.0
O797 O 0.29781 0.90525 0.61563 0.0
O798 O 0.29539 0.87405 0.64126 0.0
C799 C 0.31121 0.8378 0.61585 0.0
N800 N 0.32898 0.85152 0.6335 0.0
C801 C 0.34742 0.82125 0.63213 0.0
C802 C 0.32928 0.80672 0.61397 0.0
C803 C 0.31126 0.8152 0.60565 0.0
C804 C 0.34691 0.84403 0.64116 0.0
H805 H 0.29697 0.84394 0.60971 0.0
C806 C 0.28428 0.88337 0.62738 0.0
O807 O 0.33479 0.95995 0.59982 0.0
O808 O 0.3427 0.92905 0.58354 0.0
N809 N 0.36343 0.88206 0.66548 0.0
C810 C 0.38015 0.89879 0.6826 0.0
C811 C 0.39946 0.8932 0.69281 0.0
C812 C 0.40078 0.87002 0.68583 0.0
C813 C 0.38331 0.85305 0.66821 0.0
C814 C 0.36484 0.85992 0.6584 0.0
H815 H 0.37849 0.91603 0.68861 0.0
O816 O 0.37916 0.95161 0.62132 0.0
O817 O 0.35213 0.90749 0.62826 0.0
O818 O 0.33456 0.94217 0.65156 0.0
O819 O 0.33401 0.90888 0.67369 0.0
C820 C 0.38328 0.82941 0.66015 0.0
C821 C 0.36574 0.81383 0.64183 0.0
H822 H 0.32898 0.78902 0.60632 0.0
H823 H 0.29719 0.80411 0.59164 0.0
H824 H 0.41288 0.90637 0.7064 0.0
H825 H 0.41523 0.8654 0.69414 0.0
H826 H 0.39693 0.8232 0.66773 0.0
H827 H 0.36634 0.79606 0.63547 0.0
Mn828 Mn 0.39759 0.33194 0.12084 0.0
Mn829 Mn 0.44125 0.32308 0.15513 0.0
C830 C 0.43906 0.36957 0.13153 0.0
C831 C 0.38036 0.3323 0.08391 0.0
C832 C 0.39177 0.32421 0.17382 0.0
O833 O 0.3826 0.29079 0.1187 0.0
O834 O 0.41326 0.28776 0.14169 0.0
C835 C 0.46722 0.30723 0.11818 0.0
N836 N 0.46948 0.32355 0.1365 0.0
C837 C 0.51845 0.34393 0.13704 0.0
C838 C 0.51672 0.32734 0.11818 0.0
C839 C 0.49099 0.30908 0.10857 0.0
C840 C 0.49413 0.34167 0.14546 0.0
H841 H 0.44741 0.29277 0.11111 0.0
C842 C 0.39207 0.2771 0.12865 0.0
O843 O 0.36587 0.32842 0.10259 0.0
O844 O 0.40469 0.3357 0.08671 0.0
N845 N 0.46986 0.35498 0.16979 0.0
C846 C 0.46799 0.37037 0.18719 0.0
C847 C 0.49193 0.39005 0.19842 0.0
C848 C 0.51738 0.39307 0.19212 0.0
C849 C 0.51874 0.37684 0.17424 0.0
C850 C 0.4943 0.35808 0.16332 0.0
H851 H 0.44834 0.3674 0.19261 0.0
O852 O 0.41876 0.37238 0.12443 0.0
O853 O 0.43492 0.34463 0.13152 0.0
O854 O 0.38302 0.32804 0.15446 0.0
O855 O 0.41328 0.32235 0.17589 0.0
C856 C 0.54335 0.37838 0.16691 0.0
C857 C 0.54328 0.36234 0.14803 0.0
H858 H 0.53498 0.32842 0.11096 0.0
H859 H 0.48947 0.2962 0.09402 0.0
H860 H 0.49072 0.40248 0.21221 0.0
H861 H 0.53574 0.40795 0.2011 0.0
H862 H 0.56253 0.39215 0.17543 0.0
H863 H 0.56242 0.36423 0.1422 0.0
H864 H 0.39707 0.10978 0.30626 0.0
H865 H 0.38111 0.02755 0.31834 0.0
H866 H 0.38679 0.0997 0.26532 0.0
H867 H 0.37027 0.01706 0.27685 0.0
H868 H 0.40849 0.0365 0.20016 0.0
H869 H 0.39913 0.03165 0.24198 0.0
H870 H 0.35504 0.07568 0.23482 0.0
H871 H 0.36555 0.08137 0.19319 0.0
C872 C 0.39062 0.08924 0.3002 0.0
C873 C 0.39011 0.06953 0.31547 0.0
C874 C 0.38447 0.08333 0.27668 0.0
C875 C 0.37774 0.05754 0.26765 0.0
C876 C 0.37557 0.03719 0.2832 0.0
C877 C 0.38153 0.04309 0.30697 0.0
C878 C 0.39583 0.04408 0.20747 0.0
C879 C 0.38756 0.05914 0.19362 0.0
C880 C 0.39044 0.04134 0.23144 0.0
C881 C 0.3767 0.05367 0.24189 0.0
C882 C 0.36613 0.06638 0.22743 0.0
C883 C 0.37183 0.0694 0.20357 0.0
H884 H 0.36157 0.38897 0.69139 0.0
H885 H 0.28923 0.39519 0.70261 0.0
H886 H 0.36242 0.37923 0.733 0.0
H887 H 0.28982 0.38524 0.7438 0.0
H888 H 0.29104 0.36235 0.81683 0.0
H889 H 0.28728 0.35261 0.7749 0.0
H890 H 0.37291 0.41256 0.76646 0.0
H891 H 0.37641 0.42219 0.80821 0.0
C892 C 0.34532 0.38725 0.70259 0.0
C893 C 0.32539 0.39291 0.69389 0.0
C894 C 0.3459 0.38188 0.72638 0.0
C895 C 0.32624 0.38155 0.74169 0.0
C896 C 0.30507 0.38502 0.73248 0.0
C897 C 0.3048 0.39087 0.7089 0.0
C898 C 0.30921 0.37255 0.80606 0.0
C899 C 0.33405 0.39279 0.81557 0.0
C900 C 0.30706 0.36716 0.7821 0.0
C901 C 0.32977 0.3819 0.76737 0.0
C902 C 0.35514 0.4006 0.77734 0.0
C903 C 0.35718 0.40617 0.80121 0.0
H904 H 0.93374 0.2931 0.19256 0.0
H905 H 0.96151 0.37871 0.20288 0.0
H906 H 0.94081 0.28835 0.23404 0.0
H907 H 0.96848 0.37418 0.24423 0.0
H908 H 0.97686 0.36068 0.31922 0.0
H909 H 0.98913 0.36245 0.27795 0.0
H910 H 0.91092 0.29017 0.26482 0.0
H911 H 0.89881 0.28862 0.30564 0.0
C912 C 0.94264 0.31115 0.20353 0.0
C913 C 0.94735 0.33631 0.19466 0.0
C914 C 0.94643 0.30842 0.22728 0.0
C915 C 0.95491 0.33082 0.24248 0.0
C916 C 0.9622 0.35659 0.23302 0.0
C917 C 0.95823 0.35924 0.20933 0.0
C918 C 0.96279 0.34468 0.3076 0.0
C919 C 0.93684 0.3246 0.31551 0.0
C920 C 0.96971 0.34578 0.28399 0.0
C921 C 0.95097 0.32651 0.26808 0.0
C922 C 0.926 0.30514 0.27657 0.0
C923 C 0.91895 0.30433 0.29996 0.0
H924 H 0.63737 0.91866 0.69438 0.0
H925 H 0.5981 0.96708 0.70096 0.0
H926 H 0.64776 0.92401 0.73606 0.0
H927 H 0.6076 0.97188 0.74276 0.0
H928 H 0.62691 0.97709 0.81879 0.0
H929 H 0.63751 0.98614 0.77717 0.0
H930 H 0.61553 0.90165 0.76711 0.0
H931 H 0.60538 0.89289 0.80828 0.0
C932 C 0.63197 0.93138 0.70466 0.0
C933 C 0.61731 0.94279 0.69457 0.0
C934 C 0.63759 0.93419 0.72856 0.0
C935 C 0.62814 0.94801 0.74288 0.0
C936 C 0.61545 0.96134 0.7323 0.0
C937 C 0.61001 0.95867 0.70834 0.0
C938 C 0.62525 0.96076 0.80775 0.0
C939 C 0.61517 0.93425 0.81676 0.0
C940 C 0.63107 0.96586 0.78389 0.0
C941 C 0.62725 0.94462 0.76871 0.0
C942 C 0.61909 0.91865 0.7782 0.0
C943 C 0.61305 0.91353 0.80185 0.0
H944 H 0.70571 0.58596 0.30382 0.0
H945 H 0.65486 0.62231 0.31403 0.0
H946 H 0.7082 0.59547 0.26269 0.0
H947 H 0.65813 0.6329 0.27228 0.0
H948 H 0.63466 0.59971 0.19481 0.0
H949 H 0.63979 0.60755 0.23685 0.0
H950 H 0.72401 0.62651 0.23192 0.0
H951 H 0.71804 0.61688 0.19026 0.0
C952 C 0.69552 0.59661 0.29733 0.0
C953 C 0.67983 0.60309 0.31225 0.0
C954 C 0.6972 0.60239 0.2736 0.0
C955 C 0.68338 0.61502 0.26392 0.0
C956 C 0.66883 0.6229 0.27904 0.0
C957 C 0.66715 0.61708 0.30301 0.0
C958 C 0.6545 0.6065 0.2027 0.0
C959 C 0.67596 0.60768 0.18943 0.0
C960 C 0.65749 0.61099 0.22682 0.0
C961 C 0.68215 0.61706 0.23801 0.0
C962 C 0.70445 0.62105 0.22411 0.0
C963 C 0.70122 0.61592 0.20017 0.0
H964 H 0.08149 0.71896 0.69074 0.0
H965 H 0.0315 0.63124 0.69549 0.0
H966 H 0.07409 0.72307 0.73211 0.0
H967 H 0.02549 0.63484 0.73716 0.0
H968 H 0.02181 0.64445 0.81343 0.0
H969 H 0.01201 0.6475 0.77216 0.0
H970 H 0.09491 0.71445 0.76323 0.0
H971 H 0.10398 0.71182 0.80391 0.0
C972 C 0.0683 0.70063 0.70062 0.0
C973 C 0.05703 0.67483 0.69015 0.0
C974 C 0.06426 0.70287 0.72436 0.0
C975 C 0.04978 0.67925 0.73825 0.0
C976 C 0.03659 0.65352 0.72716 0.0
C977 C 0.04009 0.65138 0.70327 0.0
C978 C 0.03745 0.66039 0.80268 0.0
C979 C 0.06371 0.67772 0.81171 0.0
C980 C 0.032 0.66199 0.77902 0.0
C981 C 0.05272 0.68104 0.76414 0.0
C982 C 0.07821 0.69974 0.77393 0.0
C983 C 0.08357 0.69809 0.79734 0.0
H984 H 0.8967 0.6102 0.19952 0.0
H985 H 0.97926 0.62861 0.18497 0.0
H986 H 0.90857 0.62218 0.2401 0.0
H987 H 0.99142 0.64083 0.22603 0.0
H988 H 0.9723 0.59991 0.30231 0.0
H989 H 0.97711 0.6105 0.26075 0.0
H990 H 0.93464 0.65582 0.26998 0.0
H991 H 0.9293 0.64443 0.31146 0.0
C992 C 0.91766 0.61759 0.20493 0.0
C993 C 0.937 0.6183 0.18915 0.0
C994 C 0.92457 0.6247 0.2282 0.0
C995 C 0.95097 0.63242 0.23639 0.0
C996 C 0.97089 0.63485 0.22027 0.0
C997 C 0.964 0.62805 0.19676 0.0
C998 C 0.96523 0.61324 0.29557 0.0
C999 C 0.95061 0.62154 0.30994 0.0
C1000 C 0.96793 0.61933 0.27175 0.0
C1001 C 0.95585 0.63364 0.26196 0.0
C1002 C 0.94383 0.64443 0.27694 0.0
C1003 C 0.94103 0.63821 0.30071 0.0
H1004 H 0.28805 0.90029 0.80514 0.0
H1005 H 0.36139 0.97789 0.81671 0.0
H1006 H 0.28874 0.91133 0.76413 0.0
H1007 H 0.3623 0.98911 0.77526 0.0
H1008 H 0.29086 0.93195 0.69121 0.0
H1009 H 0.28696 0.94023 0.73258 0.0
H1010 H 0.37278 0.96722 0.742 0.0
H1011 H 0.37647 0.95909 0.70078 0.0
C1012 C 0.30383 0.92015 0.79898 0.0
C1013 C 0.32471 0.93819 0.81402 0.0
C1014 C 0.30417 0.92658 0.77547 0.0
C1015 C 0.32567 0.95106 0.76635 0.0
C1016 C 0.34552 0.97005 0.78177 0.0
C1017 C 0.34492 0.96374 0.80549 0.0
C1018 C 0.30909 0.94092 0.70198 0.0
C1019 C 0.334 0.94513 0.69295 0.0
C1020 C 0.30685 0.94541 0.72567 0.0
C1021 C 0.32949 0.95411 0.74065 0.0
C1022 C 0.35501 0.96081 0.73097 0.0
C1023 C 0.35717 0.95614 0.70736 0.0
H1024 H 0.41375 0.37521 0.30674 0.0
H1025 H 0.34857 0.29256 0.31852 0.0
H1026 H 0.40067 0.37188 0.26594 0.0
H1027 H 0.335 0.28906 0.27751 0.0
H1028 H 0.37295 0.28327 0.20508 0.0
H1029 H 0.36231 0.28568 0.24571 0.0
H1030 H 0.36925 0.36448 0.23314 0.0
H1031 H 0.37992 0.36179 0.19208 0.0
C1032 C 0.39581 0.35675 0.30073 0.0
C1033 C 0.38213 0.33414 0.31559 0.0
C1034 C 0.38818 0.35483 0.27736 0.0
C1035 C 0.36696 0.33007 0.26837 0.0
C1036 C 0.35157 0.30832 0.28389 0.0
C1037 C 0.35915 0.31035 0.30737 0.0
C1038 C 0.37104 0.30055 0.21082 0.0
C1039 C 0.37722 0.32233 0.1956 0.0
C1040 C 0.36482 0.30193 0.2341 0.0
C1041 C 0.36513 0.3254 0.24277 0.0
C1042 C 0.369 0.3462 0.227 0.0
C1043 C 0.37488 0.34461 0.2035 0.0
H1044 H 0.03782 0.4127 0.70306 0.0
H1045 H 0.07199 0.36001 0.69384 0.0
H1046 H 0.03277 0.40277 0.74474 0.0
H1047 H 0.06682 0.34973 0.73559 0.0
H1048 H 0.10833 0.39511 0.80595 0.0
H1049 H 0.09597 0.38384 0.76527 0.0
H1050 H 0.01529 0.37135 0.77946 0.0
H1051 H 0.0278 0.38262 0.82058 0.0
C1052 C 0.04284 0.3978 0.70984 0.0
C1053 C 0.05495 0.38682 0.69534 0.0
C1054 C 0.04003 0.39214 0.73372 0.0
C1055 C 0.04972 0.37572 0.74353 0.0
C1056 C 0.05939 0.36264 0.72857 0.0
C1057 C 0.06205 0.36822 0.70465 0.0
C1058 C 0.08771 0.38928 0.80053 0.0
C1059 C 0.0691 0.38994 0.81639 0.0
C1060 C 0.08052 0.38258 0.77722 0.0
C1061 C 0.05462 0.37672 0.76908 0.0
C1062 C 0.0354 0.37583 0.78522 0.0
C1063 C 0.04251 0.38214 0.80875 0.0
H1064 H 0.65963 0.03233 0.319 0.0
H1065 H 0.71152 0.11938 0.30871 0.0
H1066 H 0.6637 0.02477 0.27747 0.0
H1067 H 0.71481 0.11214 0.26774 0.0
H1068 H 0.72553 0.09992 0.1956 0.0
H1069 H 0.73075 0.09639 0.23742 0.0
H1070 H 0.64611 0.03199 0.2417 0.0
H1071 H 0.64171 0.03458 0.19953 0.0
C1072 C 0.67236 0.04977 0.30803 0.0
C1073 C 0.68508 0.07647 0.31717 0.0
C1074 C 0.67447 0.04548 0.28417 0.0
C1075 C 0.6895 0.06781 0.26906 0.0
C1076 C 0.70342 0.09429 0.27866 0.0
C1077 C 0.7013 0.09852 0.30229 0.0
C1078 C 0.70845 0.08427 0.20542 0.0
C1079 C 0.68329 0.06746 0.19446 0.0
C1080 C 0.71125 0.08245 0.22944 0.0
C1081 C 0.68863 0.06443 0.24317 0.0
C1082 C 0.66405 0.04602 0.2318 0.0
C1083 C 0.66147 0.04744 0.2076 0.0
H1084 H 0.60326 0.63302 0.69464 0.0
H1085 H 0.63985 0.72066 0.69044 0.0
H1086 H 0.61198 0.63632 0.73645 0.0
H1087 H 0.65068 0.72452 0.73193 0.0
H1088 H 0.60991 0.71337 0.8036 0.0
H1089 H 0.6217 0.71598 0.76298 0.0
H1090 H 0.63666 0.64837 0.77193 0.0
H1091 H 0.62359 0.6453 0.81314 0.0
C1092 C 0.61441 0.65311 0.70257 0.0
C1093 C 0.62082 0.67659 0.68951 0.0
C1094 C 0.61953 0.65508 0.72658 0.0
C1095 C 0.6315 0.68068 0.73788 0.0
C1096 C 0.64063 0.70438 0.72407 0.0
C1097 C 0.63481 0.7023 0.70023 0.0
C1098 C 0.61642 0.6995 0.79706 0.0
C1099 C 0.6156 0.67899 0.81146 0.0
C1100 C 0.62347 0.70111 0.77365 0.0
C1101 C 0.63001 0.68224 0.76383 0.0
C1102 C 0.63133 0.66299 0.77874 0.0
C1103 C 0.62421 0.66141 0.80241 0.0
H1104 H 0.41767 0.15386 0.09002 0.0
H1105 H 0.3548 0.10933 0.14111 0.0
H1106 H 0.40392 0.18847 0.08772 0.0
H1107 H 0.34079 0.14406 0.13891 0.0
H1108 H 0.37903 0.23797 0.16109 0.0
H1109 H 0.36996 0.19157 0.15454 0.0
H1110 H 0.36908 0.20334 0.08024 0.0
H1111 H 0.37791 0.25008 0.08701 0.0
C1112 C 0.40019 0.15102 0.10008 0.0
C1113 C 0.38725 0.12912 0.11573 0.0
C1114 C 0.39217 0.17071 0.09867 0.0
C1115 C 0.37136 0.16907 0.11325 0.0
C1116 C 0.35693 0.14586 0.12753 0.0
C1117 C 0.36481 0.12596 0.12872 0.0
C1118 C 0.37586 0.23025 0.14341 0.0
C1119 C 0.37927 0.24748 0.12454 0.0
C1120 C 0.3705 0.20361 0.13963 0.0
C1121 C 0.36896 0.19384 0.11685 0.0
C1122 C 0.37023 0.21039 0.09797 0.0
C1123 C 0.37513 0.23701 0.10181 0.0
H1124 H 0.14296 0.38851 0.66122 0.0
H1125 H 0.12719 0.38469 0.58738 0.0
H1126 H 0.17982 0.37873 0.6542 0.0
H1127 H 0.16468 0.37535 0.5802 0.0
H1128 H 0.24439 0.35951 0.63891 0.0
H1129 H 0.19596 0.34692 0.63768 0.0
H1130 H 0.21539 0.4111 0.58742 0.0
H1131 H 0.26353 0.42374 0.589 0.0
C1132 C 0.14689 0.3847 0.64353 0.0
C1133 C 0.13243 0.38748 0.62482 0.0
C1134 C 0.16786 0.37893 0.6395 0.0
C1135 C 0.17518 0.37637 0.61663 0.0
C1136 C 0.15941 0.37721 0.59799 0.0
C1137 C 0.13795 0.38243 0.60208 0.0
C1138 C 0.23797 0.37005 0.62691 0.0
C1139 C 0.25744 0.39251 0.61401 0.0
C1140 C 0.21038 0.36298 0.62628 0.0
C1141 C 0.20196 0.3781 0.61253 0.0
C1142 C 0.22118 0.39886 0.59797 0.0
C1143 C 0.24874 0.40619 0.59892 0.0
H1144 H 0.86025 0.24747 0.161 0.0
H1145 H 0.87326 0.26072 0.08696 0.0
H1146 H 0.82321 0.2008 0.15393 0.0
H1147 H 0.8355 0.21404 0.0798 0.0
H1148 H 0.73656 0.16326 0.09283 0.0
H1149 H 0.7843 0.19979 0.09082 0.0
H1150 H 0.80775 0.15249 0.13437 0.0
H1151 H 0.75978 0.11541 0.13578 0.0
C1152 C 0.85571 0.24002 0.14324 0.0
C1153 C 0.86947 0.25757 0.12451 0.0
C1154 C 0.83463 0.2133 0.13918 0.0
C1155 C 0.8265 0.20388 0.11632 0.0
C1156 C 0.8415 0.22083 0.09758 0.0
C1157 C 0.8631 0.24742 0.10167 0.0
C1158 C 0.7521 0.16026 0.10118 0.0
C1159 C 0.74468 0.13665 0.11442 0.0
C1160 C 0.7794 0.18107 0.09996 0.0
C1161 C 0.79966 0.17893 0.11247 0.0
C1162 C 0.79248 0.15452 0.12449 0.0
C1163 C 0.76516 0.13334 0.12523 0.0
H1164 H 0.64627 0.75886 0.63649 0.0
H1165 H 0.57973 0.73501 0.58802 0.0
H1166 H 0.65559 0.8063 0.63513 0.0
H1167 H 0.58926 0.78225 0.58622 0.0
H1168 H 0.615 0.87159 0.58429 0.0
H1169 H 0.62444 0.83398 0.57769 0.0
H1170 H 0.62102 0.81989 0.65186 0.0
H1171 H 0.61093 0.8567 0.65827 0.0
C1172 C 0.63448 0.76406 0.62478 0.0
C1173 C 0.61238 0.74352 0.6123 0.0
C1174 C 0.63969 0.79108 0.62409 0.0
C1175 C 0.62312 0.7979 0.61059 0.0
C1176 C 0.60257 0.77768 0.59654 0.0
C1177 C 0.59704 0.75065 0.59761 0.0
C1178 C 0.61712 0.86091 0.59913 0.0
C1179 C 0.61223 0.86683 0.62176 0.0
C1180 C 0.62243 0.83943 0.59538 0.0
C1181 C 0.62355 0.82412 0.61428 0.0
C1182 C 0.62067 0.83156 0.637 0.0
C1183 C 0.61474 0.85249 0.64067 0.0
H1184 H 0.75093 0.6376 0.11967 0.0
H1185 H 0.72495 0.55643 0.09375 0.0
H1186 H 0.799 0.64978 0.11445 0.0
H1187 H 0.77235 0.56845 0.08834 0.0
H1188 H 0.85729 0.59303 0.075 0.0
H1189 H 0.81675 0.59743 0.06822 0.0
H1190 H 0.82558 0.63193 0.137 0.0
H1191 H 0.86609 0.62757 0.14353 0.0
C1192 C 0.75549 0.6227 0.11218 0.0
C1193 C 0.73431 0.59603 0.10725 0.0
C1194 C 0.78292 0.6296 0.10931 0.0
C1195 C 0.78947 0.61008 0.10099 0.0
C1196 C 0.76809 0.5841 0.09448 0.0
C1197 C 0.74088 0.57711 0.09775 0.0
C1198 C 0.85118 0.60268 0.08817 0.0
C1199 C 0.86477 0.61026 0.10965 0.0
C1200 C 0.82792 0.60501 0.08441 0.0
C1201 C 0.81785 0.61482 0.10215 0.0
C1202 C 0.83298 0.62461 0.12289 0.0
C1203 C 0.85614 0.62212 0.12667 0.0
H1204 H 0.24564 0.85584 0.66021 0.0
H1205 H 0.25626 0.87098 0.58622 0.0
H1206 H 0.19871 0.81917 0.65378 0.0
H1207 H 0.20919 0.83367 0.57966 0.0
H1208 H 0.1555 0.73496 0.58842 0.0
H1209 H 0.19288 0.78238 0.58723 0.0
H1210 H 0.15055 0.80459 0.63764 0.0
H1211 H 0.11279 0.75695 0.63843 0.0
C1212 C 0.23759 0.8518 0.64262 0.0
C1213 C 0.25451 0.86612 0.62371 0.0
C1214 C 0.21068 0.83091 0.63893 0.0
C1215 C 0.20032 0.82352 0.61621 0.0
C1216 C 0.21669 0.839 0.59735 0.0
C1217 C 0.24352 0.86038 0.6011 0.0
C1218 C 0.15373 0.75025 0.59848 0.0
C1219 C 0.13134 0.74253 0.61339 0.0
C1220 C 0.17505 0.77739 0.59777 0.0
C1221 C 0.17465 0.79715 0.6124 0.0
C1222 C 0.15132 0.78975 0.62617 0.0
C1223 C 0.1297 0.76262 0.62652 0.0
H1224 H 0.87427 0.61299 0.41842 0.0
H1225 H 0.85993 0.6148 0.34481 0.0
H1226 H 0.83479 0.61885 0.42691 0.0
H1227 H 0.82124 0.62154 0.35319 0.0
H1228 H 0.75543 0.63927 0.37442 0.0
H1229 H 0.80401 0.65231 0.37501 0.0
H1230 H 0.78395 0.57991 0.41513 0.0
H1231 H 0.73558 0.56654 0.41391 0.0
C1232 C 0.86339 0.61586 0.40412 0.0
C1233 C 0.86995 0.61346 0.38099 0.0
C1234 C 0.84084 0.61911 0.40896 0.0
C1235 C 0.82508 0.6207 0.39069 0.0
C1236 C 0.83325 0.62073 0.36758 0.0
C1237 C 0.85528 0.61677 0.36277 0.0
C1238 C 0.76162 0.62672 0.38403 0.0
C1239 C 0.7419 0.60187 0.39403 0.0
C1240 C 0.78932 0.63412 0.38431 0.0
C1241 C 0.79764 0.61711 0.39514 0.0
C1242 C 0.77813 0.59355 0.40691 0.0
C1243 C 0.75046 0.58582 0.40611 0.0
H1244 H 0.14774 0.75288 0.84865 0.0
H1245 H 0.12925 0.74384 0.9221 0.0
H1246 H 0.18317 0.80028 0.85477 0.0
H1247 H 0.16547 0.79162 0.9285 0.0
H1248 H 0.24318 0.88516 0.86636 0.0
H1249 H 0.19548 0.84792 0.8684 0.0
H1250 H 0.21721 0.81 0.9234 0.0
H1251 H 0.26468 0.84711 0.92119 0.0
C1252 C 0.15089 0.7614 0.86604 0.0
C1253 C 0.13601 0.74491 0.88493 0.0
C1254 C 0.171 0.78858 0.86955 0.0
C1255 C 0.17704 0.79968 0.89212 0.0
C1256 C 0.16111 0.78356 0.91093 0.0
C1257 C 0.14045 0.75637 0.9073 0.0
C1258 C 0.23736 0.8695 0.87959 0.0
C1259 C 0.25731 0.86883 0.89367 0.0
C1260 C 0.21018 0.84816 0.88068 0.0
C1261 C 0.20271 0.82598 0.89593 0.0
C1262 C 0.22226 0.82692 0.91166 0.0
C1263 C 0.24944 0.84809 0.91037 0.0
H1264 H 0.35427 0.11312 0.37074 0.0
H1265 H 0.41688 0.15878 0.42172 0.0
H1266 H 0.34065 0.1482 0.37148 0.0
H1267 H 0.40327 0.19355 0.42277 0.0
H1268 H 0.37627 0.25454 0.42177 0.0
H1269 H 0.36732 0.20792 0.42914 0.0
H1270 H 0.37131 0.19612 0.35524 0.0
H1271 H 0.3806 0.24254 0.34801 0.0
C1272 C 0.36419 0.13 0.38289 0.0
C1273 C 0.38649 0.13335 0.39625 0.0
C1274 C 0.35656 0.15012 0.38321 0.0
C1275 C 0.37098 0.17367 0.3971 0.0
C1276 C 0.39154 0.17553 0.4121 0.0
C1277 C 0.39942 0.15568 0.41148 0.0
C1278 C 0.37416 0.24155 0.4071 0.0
C1279 C 0.3793 0.25211 0.38434 0.0
C1280 C 0.36919 0.21497 0.41132 0.0
C1281 C 0.36875 0.19844 0.39278 0.0
C1282 C 0.37124 0.2082 0.36988 0.0
C1283 C 0.37671 0.23485 0.36572 0.0
H1284 H 0.24837 0.39175 0.85152 0.0
H1285 H 0.25505 0.37665 0.92423 0.0
H1286 H 0.20095 0.37982 0.85734 0.0
H1287 H 0.20727 0.36502 0.9303 0.0
H1288 H 0.11635 0.35625 0.86808 0.0
H1289 H 0.15284 0.34469 0.86901 0.0
H1290 H 0.18932 0.39858 0.92789 0.0
H1291 H 0.15292 0.41001 0.9268 0.0
C1292 C 0.23936 0.38511 0.86864 0.0
C1293 C 0.2553 0.38522 0.88744 0.0
C1294 C 0.21212 0.37807 0.87197 0.0
C1295 C 0.20035 0.37148 0.8943 0.0
C1296 C 0.21582 0.36998 0.9129 0.0
C1297 C 0.24306 0.37652 0.90943 0.0
C1298 C 0.1314 0.36443 0.88194 0.0
C1299 C 0.13186 0.3838 0.89749 0.0
C1300 C 0.1524 0.35804 0.88235 0.0
C1301 C 0.17409 0.37096 0.89836 0.0
C1302 C 0.1728 0.38808 0.9155 0.0
C1303 C 0.15196 0.39464 0.91491 0.0
H1304 H 0.73421 0.17022 0.41744 0.0
H1305 H 0.75816 0.11507 0.38771 0.0
H1306 H 0.78206 0.2048 0.42256 0.0
H1307 H 0.80654 0.15013 0.39251 0.0
H1308 H 0.86948 0.24061 0.36168 0.0
H1309 H 0.83078 0.19514 0.36967 0.0
H1310 H 0.82831 0.21926 0.44061 0.0
H1311 H 0.86738 0.26482 0.43248 0.0
C1312 C 0.74979 0.16527 0.41258 0.0
C1313 C 0.74255 0.14011 0.40201 0.0
C1314 C 0.77723 0.18499 0.41569 0.0
C1315 C 0.79809 0.1802 0.4079 0.0
C1316 C 0.79086 0.15433 0.39869 0.0
C1317 C 0.76325 0.13429 0.396 0.0
C1318 C 0.86155 0.23563 0.37929 0.0
C1319 C 0.87141 0.25593 0.39655 0.0
C1320 C 0.83939 0.20962 0.3839 0.0
C1321 C 0.82636 0.20373 0.40572 0.0
C1322 C 0.83794 0.2233 0.42363 0.0
C1323 C 0.86039 0.24924 0.41907 0.0
H1324 H 0.60585 0.73865 0.92558 0.0
H1325 H 0.61683 0.75789 0.85229 0.0
H1326 H 0.61433 0.78497 0.93404 0.0
H1327 H 0.62598 0.80416 0.86064 0.0
H1328 H 0.64455 0.88757 0.88037 0.0
H1329 H 0.6554 0.85053 0.88278 0.0
H1330 H 0.5802 0.80089 0.92051 0.0
H1331 H 0.56918 0.83743 0.91759 0.0
C1332 C 0.61125 0.75321 0.91145 0.0
C1333 C 0.61077 0.74498 0.88833 0.0
C1334 C 0.61601 0.77958 0.91625 0.0
C1335 C 0.62085 0.79811 0.89799 0.0
C1336 C 0.62271 0.79047 0.87507 0.0
C1337 C 0.61735 0.764 0.87026 0.0
C1338 C 0.63093 0.8691 0.88989 0.0
C1339 C 0.60598 0.86515 0.89867 0.0
C1340 C 0.63707 0.84794 0.89121 0.0
C1341 C 0.61862 0.82289 0.90181 0.0
C1342 C 0.59495 0.82008 0.91249 0.0
C1343 C 0.58854 0.8409 0.9107 0.0
H1344 H 0.34216 0.9338 0.96718 0.0
H1345 H 0.34884 0.00605 0.9348 0.0
H1346 H 0.34957 0.95537 0.00526 0.0
H1347 H 0.35632 0.02775 0.97314 0.0
H1348 H 0.40962 0.06609 0.0403 0.0
H1349 H 0.39486 0.04476 1.00214 0.0
H1350 H 0.32874 0.97283 0.03432 0.0
H1351 H 0.34354 0.99423 0.07267 0.0
C1352 C 0.34496 0.95422 0.96822 0.0
C1353 C 0.3451 0.96831 0.94797 0.0
C1354 C 0.349 0.96649 0.99008 0.0
C1355 C 0.35356 0.99325 0.9922 0.0
C1356 C 0.35304 0.00715 0.97201 0.0
C1357 C 0.34866 0.99471 0.95009 0.0
C1358 C 0.39177 0.04582 0.03925 0.0
C1359 C 0.37785 0.03175 0.05952 0.0
C1360 C 0.3832 0.03369 0.01735 0.0
C1361 C 0.36067 0.00711 0.01523 0.0
C1362 C 0.3463 0.99328 0.03545 0.0
C1363 C 0.35471 0.00555 0.05738 0.0
H1364 H 0.40737 0.34004 0.46953 0.0
H1365 H 0.33903 0.34233 0.43787 0.0
H1366 H 0.39379 0.34846 0.50765 0.0
H1367 H 0.3255 0.35077 0.47602 0.0
H1368 H 0.34031 0.40724 0.54028 0.0
H1369 H 0.34733 0.39122 0.50294 0.0
H1370 H 0.35603 0.32823 0.53798 0.0
H1371 H 0.34887 0.34428 0.5756 0.0
C1372 C 0.38927 0.34203 0.47075 0.0
C1373 C 0.37438 0.34072 0.45067 0.0
C1374 C 0.38141 0.34668 0.4926 0.0
C1375 C 0.35865 0.35038 0.4948 0.0
C1376 C 0.34328 0.34823 0.47482 0.0
C1377 C 0.35097 0.3433 0.45299 0.0
C1378 C 0.34345 0.38979 0.54005 0.0
C1379 C 0.34414 0.37708 0.56089 0.0
C1380 C 0.34729 0.38051 0.51862 0.0
C1381 C 0.35223 0.35847 0.51753 0.0
C1382 C 0.35242 0.34537 0.53833 0.0
C1383 C 0.34819 0.35446 0.55982 0.0
H1384 H 0.06651 0.40595 0.96975 0.0
H1385 H 0.99352 0.34523 0.93457 0.0
H1386 H 0.0431 0.39137 0.00706 0.0
H1387 H 0.96992 0.33058 0.9722 0.0
H1388 H 0.93205 0.34517 0.04035 0.0
H1389 H 0.95393 0.35227 1.00229 0.0
H1390 H 0.0228 0.35152 0.03437 0.0
H1391 H 0.00096 0.34444 0.07248 0.0
C1392 C 0.04549 0.3893 0.97001 0.0
C1393 C 0.03182 0.3768 0.9492 0.0
C1394 C 0.03214 0.38083 0.99143 0.0
C1395 C 0.00468 0.35982 0.99259 0.0
C1396 C 0.99106 0.34694 0.97182 0.0
C1397 C 0.00459 0.35522 0.95032 0.0
C1398 C 0.95174 0.34624 0.03926 0.0
C1399 C 0.96488 0.34446 0.05946 0.0
C1400 C 0.96417 0.35012 0.01742 0.0
C1401 C 0.99013 0.35257 0.01534 0.0
C1402 C 0.0029 0.34997 0.03546 0.0
C1403 C 0.99034 0.34582 0.05727 0.0
H1404 H 0.65835 0.99529 0.43432 0.0
H1405 H 0.66708 0.06685 0.46957 0.0
H1406 H 0.65199 0.97238 0.4721 0.0
H1407 H 0.66095 0.04423 0.50698 0.0
H1408 H 0.59875 0.93364 0.54022 0.0
H1409 H 0.61397 0.95517 0.50213 0.0
H1410 H 0.68196 0.0253 0.5345 0.0
H1411 H 0.66674 0.00369 0.57274 0.0
C1412 C 0.65936 0.00625 0.45012 0.0
C1413 C 0.66303 0.03277 0.44899 0.0
C1414 C 0.6556 0.99313 0.4717 0.0
C1415 C 0.65597 0.00651 0.49252 0.0
C1416 C 0.66086 0.03346 0.49133 0.0
C1417 C 0.66417 0.04635 0.46984 0.0
C1418 C 0.61717 0.9535 0.5392 0.0
C1419 C 0.63141 0.96708 0.55953 0.0
C1420 C 0.626 0.96573 0.51734 0.0
C1421 C 0.6491 0.99198 0.51531 0.0
C1422 C 0.66396 0.00514 0.53554 0.0
C1423 C 0.6553 0.99274 0.55742 0.0
H1424 H 0.65221 0.65705 0.07062 0.0
H1425 H 0.65663 0.591 0.03678 0.0
H1426 H 0.64569 0.67286 0.03261 0.0
H1427 H 0.65036 0.60686 0.99901 0.0
H1428 H 0.65837 0.65446 0.93251 0.0
H1429 H 0.6726 0.64645 0.97065 0.0
H1430 H 0.60679 0.65237 1.00326 0.0
H1431 H 0.59249 0.66018 0.96528 0.0
C1432 C 0.6522 0.64617 0.05507 0.0
C1433 C 0.65477 0.6227 0.0567 0.0
C1434 C 0.64834 0.65514 0.03334 0.0
C1435 C 0.64748 0.64107 0.01282 0.0
C1436 C 0.65119 0.61829 0.01444 0.0
C1437 C 0.65461 0.60911 0.03612 0.0
C1438 C 0.64716 0.65437 0.94786 0.0
C1439 C 0.6242 0.65777 0.94586 0.0
C1440 C 0.65524 0.64969 0.96967 0.0
C1441 C 0.64078 0.64875 0.98995 0.0
C1442 C 0.6185 0.65324 0.98801 0.0
C1443 C 0.61021 0.65752 0.96621 0.0
H1444 H 0.06451 0.66545 0.53712 0.0
H1445 H 0.99143 0.65622 0.56992 0.0
H1446 H 0.043 0.65868 0.49904 0.0
H1447 H 0.96975 0.64928 0.53158 0.0
H1448 H 0.93332 0.59601 0.46342 0.0
H1449 H 0.95391 0.61093 0.5019 0.0
H1450 H 0.02454 0.6796 0.47072 0.0
H1451 H 0.00394 0.66472 0.43217 0.0
C1452 C 0.04394 0.66231 0.53616 0.0
C1453 C 0.02959 0.66122 0.55651 0.0
C1454 C 0.03169 0.6586 0.51432 0.0
C1455 C 0.00468 0.6534 0.51234 0.0
C1456 C 0.99055 0.65309 0.53263 0.0
C1457 C 0.00299 0.6572 0.55453 0.0
C1458 C 0.95309 0.61448 0.46479 0.0
C1459 C 0.96711 0.62907 0.44475 0.0
C1460 C 0.96478 0.62312 0.48685 0.0
C1461 C 0.99087 0.64637 0.4893 0.0
C1462 C 0.00449 0.66148 0.46932 0.0
C1463 C 0.99266 0.65301 0.44727 0.0
H1464 H 0.6677 0.00671 0.9363 0.0
H1465 H 0.60144 0.93584 0.96956 0.0
H1466 H 0.68396 0.02806 0.97458 0.0
H1467 H 0.61763 0.957 0.00755 0.0
H1468 H 0.66227 0.99527 0.07479 0.0
H1469 H 0.65621 0.97379 0.03644 0.0
H1470 H 0.66374 0.04621 1.00374 0.0
H1471 H 0.66968 0.0675 0.04179 0.0
C1472 C 0.65689 0.99554 0.95176 0.0
C1473 C 0.63317 0.96973 0.94991 0.0
C1474 C 0.66612 0.00777 0.97365 0.0
C1475 C 0.65204 0.99422 0.99409 0.0
C1476 C 0.62911 0.96786 0.9922 0.0
C1477 C 0.6197 0.95584 0.97039 0.0
C1478 C 0.66307 0.00671 0.05936 0.0
C1479 C 0.6662 0.03295 0.06131 0.0
C1480 C 0.6595 0.99441 0.03744 0.0
C1481 C 0.65943 0.0083 0.01706 0.0
C1482 C 0.66396 0.03507 0.01903 0.0
C1483 C 0.66715 0.04718 0.04088 0.0
H1484 H 0.66995 0.60137 0.46494 0.0
H1485 H 0.65826 0.6623 0.42949 0.0
H1486 H 0.66494 0.61853 0.50235 0.0
H1487 H 0.65313 0.67963 0.4673 0.0
H1488 H 0.60133 0.66512 0.53617 0.0
H1489 H 0.61638 0.65925 0.49792 0.0
H1490 H 0.68533 0.65819 0.52954 0.0
H1491 H 0.67019 0.66401 0.56799 0.0
C1492 C 0.66668 0.61873 0.46516 0.0
C1493 C 0.66428 0.63036 0.44426 0.0
C1494 C 0.66403 0.62871 0.48665 0.0
C1495 C 0.65859 0.65041 0.48782 0.0
C1496 C 0.65716 0.66276 0.46693 0.0
C1497 C 0.66022 0.65296 0.44532 0.0
C1498 C 0.61993 0.66402 0.53496 0.0
C1499 C 0.63442 0.66473 0.55515 0.0
C1500 C 0.62868 0.66089 0.51299 0.0
C1501 C 0.65198 0.65814 0.51069 0.0
C1502 C 0.66715 0.66002 0.53078 0.0
C1503 C 0.65854 0.66344 0.55279 0.0
H1504 H 0.93523 0.60087 0.03575 0.0
H1505 H 0.00605 0.66651 0.06961 0.0
H1506 H 0.95769 0.61613 0.99807 0.0
H1507 H 0.02868 0.68179 0.03169 0.0
H1508 H 0.99814 0.66111 0.9314 0.0
H1509 H 0.97594 0.65513 0.9693 0.0
H1510 H 0.04671 0.6603 1.00325 0.0
H1511 H 0.06882 0.66618 0.96551 0.0
C1512 C 0.95549 0.61878 0.0351 0.0
C1513 C 0.96896 0.6324 0.05565 0.0
C1514 C 0.96827 0.62764 0.01348 0.0
C1515 C 0.99496 0.65012 0.01192 0.0
C1516 C 0.00815 0.66429 0.0324 0.0
C1517 C 0.99518 0.65563 0.05406 0.0
C1518 C 0.00909 0.66136 0.94699 0.0
C1519 C 0.03512 0.66389 0.94547 0.0
C1520 C 0.99635 0.65784 0.96866 0.0
C1521 C 0.00956 0.65717 0.98923 0.0
C1522 C 0.03611 0.66099 0.98774 0.0
C1523 C 0.04869 0.66416 0.9661 0.0
H1524 H 0.34102 0.99826 0.57118 0.0
H1525 H 0.34199 0.92983 0.5384 0.0
H1526 H 0.3485 0.02072 0.53332 0.0
H1527 H 0.34945 0.95232 0.50055 0.0
H1528 H 0.34294 0.99308 0.43323 0.0
H1529 H 0.32789 0.96893 0.4706 0.0
H1530 H 0.38876 0.04137 0.50625 0.0
H1531 H 0.40378 0.06531 0.46917 0.0
C1532 C 0.34251 0.98787 0.55587 0.0
C1533 C 0.3411 0.96235 0.55782 0.0
C1534 C 0.3469 0.00078 0.5342 0.0
C1535 C 0.34968 0.98834 0.51396 0.0
C1536 C 0.34717 0.96232 0.51579 0.0
C1537 C 0.34307 0.94953 0.5375 0.0
C1538 C 0.35285 0.00388 0.44909 0.0
C1539 C 0.37459 0.03105 0.44825 0.0
C1540 C 0.34435 0.99003 0.47045 0.0
C1541 C 0.35714 0.00326 0.49137 0.0
C1542 C 0.37828 0.03069 0.4905 0.0
C1543 C 0.387 0.04436 0.46921 0.0
H1544 H 0.33405 0.33415 0.07316 0.0
H1545 H 0.40378 0.33437 0.04178 0.0
H1546 H 0.31965 0.34108 0.03481 0.0
H1547 H 0.38938 0.34133 1.00351 0.0
H1548 H 0.34536 0.33627 0.93517 0.0
H1549 H 0.35212 0.32015 0.97297 0.0
H1550 H 0.34006 0.38118 0.00776 0.0
H1551 H 0.33344 0.39721 0.9703 0.0
C1552 C 0.34612 0.33535 0.05806 0.0
C1553 C 0.37019 0.33396 0.06052 0.0
C1554 C 0.33791 0.3394 0.03612 0.0
C1555 C 0.35343 0.34185 0.01616 0.0
C1556 C 0.37685 0.33927 0.01851 0.0
C1557 C 0.3852 0.33549 0.04047 0.0
C1558 C 0.34376 0.34591 0.95095 0.0
C1559 C 0.33902 0.36808 0.94979 0.0
C1560 C 0.34777 0.3368 0.97254 0.0
C1561 C 0.34666 0.34943 0.99333 0.0
C1562 C 0.34077 0.37083 0.99211 0.0
C1563 C 0.33715 0.38013 0.97061 0.0
H1564 H 0.99936 0.3441 0.57245 0.0
H1565 H 0.07041 0.4123 0.54118 0.0
H1566 H 0.97766 0.33083 0.53412 0.0
H1567 H 0.04875 0.39898 0.50294 0.0
H1568 H 0.00886 0.35362 0.43478 0.0
H1569 H 0.03164 0.36132 0.47267 0.0
H1570 H 0.95941 0.35266 0.5066 0.0
H1571 H 0.93679 0.34512 0.46896 0.0
C1572 C 0.01047 0.35605 0.55738 0.0
C1573 C 0.03652 0.37934 0.55987 0.0
C1574 C 0.998 0.34853 0.53546 0.0
C1575 C 0.01146 0.36393 0.51553 0.0
C1576 C 0.03795 0.38658 0.51792 0.0
C1577 C 0.05028 0.39429 0.53986 0.0
C1578 C 0.99783 0.35317 0.45036 0.0
C1579 C 0.97109 0.34889 0.44887 0.0
C1580 C 0.01089 0.35767 0.47202 0.0
C1581 C 0.99729 0.35755 0.49261 0.0
C1582 C 0.97032 0.35257 0.4911 0.0
C1583 C 0.95744 0.34845 0.46949 0.0
H1584 H 0.45882 0.03355 0.15245 0.0
H1585 H 0.49812 0.10909 0.11383 0.0
H1586 H 0.50105 0.03211 0.15254 0.0
H1587 H 0.5415 0.10975 0.11608 0.0
H1588 H 0.60746 0.08968 0.09875 0.0
H1589 H 0.56524 0.0914 0.10025 0.0
H1590 H 0.54363 0.04525 0.16473 0.0
H1591 H 0.58486 0.04172 0.16165 0.0
C1592 C 0.47695 0.0505 0.14479 0.0
C1593 C 0.47543 0.07193 0.13382 0.0
C1594 C 0.50139 0.04982 0.14494 0.0
C1595 C 0.52518 0.07079 0.13429 0.0
C1596 C 0.52376 0.09286 0.12412 0.0
C1597 C 0.49904 0.09306 0.12343 0.0
C1598 C 0.5935 0.07992 0.11316 0.0
C1599 C 0.59958 0.06623 0.13044 0.0
C1600 C 0.56932 0.08106 0.11422 0.0
C1601 C 0.55079 0.06892 0.13287 0.0
C1602 C 0.55687 0.05462 0.14987 0.0
C1603 C 0.58072 0.05283 0.14837 0.0
H1604 H 0.54591 0.58266 0.65606 0.0
H1605 H 0.51956 0.60723 0.59487 0.0
H1606 H 0.50066 0.54246 0.65999 0.0
H1607 H 0.47506 0.56583 0.59696 0.0
H1608 H 0.38995 0.50018 0.61143 0.0
H1609 H 0.43352 0.54266 0.6127 0.0
H1610 H 0.46888 0.50073 0.6497 0.0
H1611 H 0.42436 0.4598 0.65099 0.0
C1612 C 0.53032 0.57911 0.64329 0.0
C1613 C 0.53568 0.59831 0.62569 0.0
C1614 C 0.50434 0.55579 0.64525 0.0
C1615 C 0.48345 0.55051 0.62897 0.0
C1616 C 0.48979 0.56927 0.61049 0.0
C1617 C 0.51546 0.593 0.60905 0.0
C1618 C 0.40669 0.5007 0.62105 0.0
C1619 C 0.40342 0.47708 0.63204 0.0
C1620 C 0.43217 0.52486 0.62108 0.0
C1621 C 0.45546 0.52559 0.63104 0.0
C1622 C 0.4518 0.50174 0.64224 0.0
C1623 C 0.42615 0.47798 0.64288 0.0
H1624 H 0.96856 0.42758 0.14895 0.0
H1625 H 0.88974 0.38866 0.11533 0.0
H1626 H 0.96994 0.47123 0.1477 0.0
H1627 H 0.88942 0.43165 0.1161 0.0
H1628 H 0.9083 0.51683 0.09588 0.0
H1629 H 0.90678 0.47297 0.09831 0.0
H1630 H 0.95696 0.50078 0.16048 0.0
H1631 H 0.96009 0.5453 0.1565 0.0
C1632 C 0.95102 0.42826 0.14204 0.0
C1633 C 0.92865 0.40455 0.13291 0.0
C1634 C 0.95167 0.45334 0.14144 0.0
C1635 C 0.92978 0.45543 0.13183 0.0
C1636 C 0.90696 0.43131 0.12333 0.0
C1637 C 0.90669 0.40633 0.12344 0.0
C1638 C 0.91893 0.51335 0.11003 0.0
C1639 C 0.9336 0.53395 0.12644 0.0
C1640 C 0.91795 0.48811 0.11159 0.0
C1641 C 0.93134 0.48272 0.12986 0.0
C1642 C 0.9466 0.5039 0.14595 0.0
C1643 C 0.94817 0.5294 0.14393 0.0
H1644 H 0.38722 0.88804 0.61477 0.0
H1645 H 0.42441 0.96758 0.64696 0.0
H1646 H 0.43068 0.88872 0.61655 0.0
H1647 H 0.46851 0.97002 0.64655 0.0
H1648 H 0.54363 0.9626 0.6578 0.0
H1649 H 0.49885 0.95903 0.66018 0.0
H1650 H 0.47231 0.90527 0.60016 0.0
H1651 H 0.51641 0.9072 0.59953 0.0
C1652 C 0.40462 0.90538 0.62277 0.0
C1653 C 0.40217 0.92722 0.6316 0.0
C1654 C 0.4299 0.90624 0.62321 0.0
C1655 C 0.4537 0.92954 0.63162 0.0
C1656 C 0.45094 0.95136 0.64046 0.0
C1657 C 0.42556 0.95011 0.64055 0.0
C1658 C 0.52795 0.94983 0.64536 0.0
C1659 C 0.53294 0.93435 0.6291 0.0
C1660 C 0.50227 0.948 0.64643 0.0
C1661 C 0.4813 0.93156 0.63051 0.0
C1662 C 0.48719 0.91735 0.61333 0.0
C1663 C 0.5126 0.91856 0.61279 0.0
H1664 H 0.59729 0.50739 0.09645 0.0
H1665 H 0.57575 0.53526 0.15843 0.0
H1666 H 0.55499 0.46357 0.09913 0.0
H1667 H 0.5343 0.49073 0.16256 0.0
H1668 H 0.44917 0.41705 0.1516 0.0
H1669 H 0.49129 0.46092 0.15032 0.0
H1670 H 0.53205 0.42217 0.11701 0.0
H1671 H 0.48903 0.37896 0.11661 0.0
C1672 C 0.58354 0.50381 0.1109 0.0
C1673 C 0.58999 0.52423 0.12762 0.0
C1674 C 0.55932 0.47858 0.11262 0.0
C1675 C 0.54107 0.47298 0.13135 0.0
C1676 C 0.54741 0.49402 0.14771 0.0
C1677 C 0.57135 0.51952 0.14559 0.0
C1678 C 0.46735 0.41794 0.14439 0.0
C1679 C 0.46606 0.39442 0.13486 0.0
C1680 C 0.49169 0.44316 0.14373 0.0
C1681 C 0.51553 0.44556 0.13356 0.0
C1682 C 0.51428 0.42159 0.12472 0.0
C1683 C 0.48975 0.39647 0.12502 0.0
H1684 H 0.1105 0.49741 0.61649 0.0
H1685 H 0.03173 0.45652 0.65014 0.0
H1686 H 0.11005 0.54032 0.61722 0.0
H1687 H 0.02948 0.49829 0.64871 0.0
H1688 H 0.03732 0.58138 0.65679 0.0
H1689 H 0.04132 0.54054 0.66105 0.0
H1690 H 0.09238 0.56379 0.59937 0.0
H1691 H 0.09003 0.60566 0.59674 0.0
C1692 C 0.09341 0.49785 0.62462 0.0
C1693 C 0.07169 0.47394 0.6341 0.0
C1694 C 0.09267 0.5223 0.62445 0.0
C1695 C 0.06957 0.52316 0.63285 0.0
C1696 C 0.04795 0.49904 0.64251 0.0
C1697 C 0.04909 0.47487 0.64322 0.0
C1698 C 0.0496 0.5777 0.64439 0.0
C1699 C 0.06416 0.59694 0.62698 0.0
C1700 C 0.05168 0.55407 0.64656 0.0
C1701 C 0.06746 0.54857 0.6307 0.0
C1702 C 0.08083 0.56745 0.61249 0.0
C1703 C 0.07936 0.59143 0.6108 0.0
H1704 H 0.89772 0.51302 0.39703 0.0
H1705 H 0.96983 0.54336 0.35438 0.0
H1706 H 0.89116 0.46718 0.3952 0.0
H1707 H 0.96545 0.49828 0.35426 0.0
H1708 H 0.94782 0.41343 0.34383 0.0
H1709 H 0.9467 0.45588 0.34117 0.0
H1710 H 0.90008 0.43502 0.40542 0.0
H1711 H 0.89871 0.39138 0.406 0.0
C1712 C 0.91209 0.50965 0.38708 0.0
C1713 C 0.93334 0.53125 0.37474 0.0
C1714 C 0.90876 0.48336 0.3864 0.0
C1715 C 0.92736 0.47815 0.3741 0.0
C1716 C 0.94973 0.50056 0.36299 0.0
C1717 C 0.95261 0.5267 0.36328 0.0
C1718 C 0.93665 0.41779 0.35688 0.0
C1719 C 0.92303 0.39913 0.37491 0.0
C1720 C 0.93646 0.44248 0.35575 0.0
C1721 C 0.92409 0.44995 0.37348 0.0
C1722 C 0.90968 0.43052 0.39115 0.0
C1723 C 0.90889 0.4053 0.39165 0.0
H1724 H 0.54335 0.96106 0.84873 0.0
H1725 H 0.5176 0.914 0.9121 0.0
H1726 H 0.49847 0.95711 0.84492 0.0
H1727 H 0.47356 0.91194 0.90987 0.0
H1728 H 0.38847 0.89212 0.89463 0.0
H1729 H 0.43178 0.89266 0.89364 0.0
H1730 H 0.468 0.96938 0.85581 0.0
H1731 H 0.42381 0.96681 0.85486 0.0
C1732 C 0.52801 0.95012 0.86197 0.0
C1733 C 0.53337 0.93702 0.88023 0.0
C1734 C 0.50229 0.94809 0.86004 0.0
C1735 C 0.48173 0.93382 0.87691 0.0
C1736 C 0.48809 0.92217 0.89596 0.0
C1737 C 0.51348 0.92353 0.89745 0.0
C1738 C 0.40535 0.90817 0.88499 0.0
C1739 C 0.40248 0.92876 0.87399 0.0
C1740 C 0.43062 0.90908 0.88501 0.0
C1741 C 0.454 0.93127 0.87484 0.0
C1742 C 0.45074 0.95161 0.86347 0.0
C1743 C 0.42533 0.95027 0.86298 0.0
H1744 H 0.45345 0.42173 0.35927 0.0
H1745 H 0.4925 0.3826 0.39403 0.0
H1746 H 0.4964 0.46492 0.3592 0.0
H1747 H 0.53617 0.42526 0.39268 0.0
H1748 H 0.60314 0.51124 0.411 0.0
H1749 H 0.56016 0.46776 0.40979 0.0
H1750 H 0.53953 0.49219 0.34485 0.0
H1751 H 0.58174 0.53634 0.34729 0.0
C1752 C 0.47156 0.42226 0.36625 0.0
C1753 C 0.46985 0.39866 0.37606 0.0
C1754 C 0.49634 0.44704 0.36611 0.0
C1755 C 0.52016 0.44894 0.37585 0.0
C1756 C 0.51843 0.42496 0.3852 0.0
C1757 C 0.49349 0.40022 0.38555 0.0
C1758 C 0.58929 0.5071 0.3965 0.0
C1759 C 0.59595 0.52659 0.37884 0.0
C1760 C 0.56468 0.48211 0.39567 0.0
C1761 C 0.54624 0.47593 0.377 0.0
C1762 C 0.55284 0.49604 0.35966 0.0
C1763 C 0.57719 0.52127 0.36083 0.0
H1764 H 0.10345 0.49174 0.91022 0.0
H1765 H 0.05931 0.46829 0.84539 0.0
H1766 H 0.10154 0.53368 0.91058 0.0
H1767 H 0.06026 0.51178 0.84367 0.0
H1768 H 0.03684 0.57587 0.85565 0.0
H1769 H 0.04073 0.5349 0.85567 0.0
H1770 H 0.11026 0.57495 0.9024 0.0
H1771 H 0.10409 0.61443 0.90377 0.0
C1772 C 0.09434 0.49629 0.8955 0.0
C1773 C 0.08172 0.47703 0.87771 0.0
C1774 C 0.09322 0.52053 0.89556 0.0
C1775 C 0.08009 0.52652 0.87739 0.0
C1776 C 0.06938 0.50784 0.85865 0.0
C1777 C 0.06939 0.48304 0.85922 0.0
C1778 C 0.0529 0.57566 0.86585 0.0
C1779 C 0.07108 0.59871 0.87874 0.0
C1780 C 0.05553 0.55224 0.86567 0.0
C1781 C 0.07657 0.55131 0.87835 0.0
C1782 C 0.09376 0.5742 0.89226 0.0
C1783 C 0.09068 0.59732 0.89275 0.0
H1784 H 0.60484 0.09042 0.41378 0.0
H1785 H 0.58483 0.04723 0.34847 0.0
H1786 H 0.56267 0.09222 0.41223 0.0
H1787 H 0.54371 0.05097 0.34544 0.0
H1788 H 0.45876 0.03941 0.35619 0.0
H1789 H 0.5007 0.03744 0.35647 0.0
H1790 H 0.53986 0.11196 0.39731 0.0
H1791 H 0.4967 0.11175 0.39896 0.0
C1792 C 0.59145 0.08171 0.39886 0.0
C1793 C 0.59828 0.06939 0.38092 0.0
C1794 C 0.56731 0.08292 0.39778 0.0
C1795 C 0.54958 0.07226 0.37845 0.0
C1796 C 0.55632 0.05919 0.3608 0.0
C1797 C 0.58012 0.05729 0.36229 0.0
C1798 C 0.47658 0.0556 0.36488 0.0
C1799 C 0.47475 0.07629 0.37689 0.0
C1800 C 0.50085 0.05462 0.36496 0.0
C1801 C 0.52418 0.07451 0.37692 0.0
C1802 C 0.52248 0.09588 0.38819 0.0
C1803 C 0.49791 0.09639 0.38857 0.0
H1804 H 0.50549 0.61449 0.89314 0.0
H1805 H 0.54347 0.57607 0.85579 0.0
H1806 H 0.46217 0.57166 0.89313 0.0
H1807 H 0.50147 0.53233 0.85824 0.0
H1808 H 0.41727 0.45821 0.85162 0.0
H1809 H 0.45877 0.50241 0.84729 0.0
H1810 H 0.43826 0.53049 0.91034 0.0
H1811 H 0.39558 0.48697 0.91297 0.0
C1812 C 0.50428 0.59697 0.88432 0.0
C1813 C 0.52744 0.59893 0.87345 0.0
C1814 C 0.47961 0.57201 0.88497 0.0
C1815 C 0.47787 0.54795 0.87584 0.0
C1816 C 0.50132 0.55015 0.865 0.0
C1817 C 0.52565 0.5753 0.86371 0.0
C1818 C 0.42169 0.47412 0.8643 0.0
C1819 C 0.4029 0.46981 0.88202 0.0
C1820 C 0.44573 0.49945 0.8621 0.0
C1821 C 0.45219 0.52067 0.87828 0.0
C1822 C 0.43386 0.5154 0.89692 0.0
C1823 C 0.40939 0.49035 0.89861 0.0
loop_
_geom_bond_atom_site_label_1
_geom_bond_atom_site_label_2
_geom_bond_distance
_geom_bond_site_symmetry_2
_ccdc_geom_bond_type
Mn0 O5 2.095 . S
Mn0 O15 2.162 . S
Mn0 O16 2.297 . S
Mn0 O24 2.385 . S
Mn0 O25 2.209 . S
Mn0 O26 2.094 . S
Mn1 O6 2.121 . S
Mn1 N8 2.257 . S
Mn1 N17 2.282 . S
Mn1 O25 2.215 . S
Mn1 O27 2.117 . S
C2 O24 1.234 . S
C2 O25 1.283 . S
C3 O15 1.281 . S
C3 O16 1.236 . S
C4 O26 1.240 . S
C4 O27 1.264 . S
O5 Mn0 2.095 . S
O5 C14 1.250 . S
O6 Mn1 2.121 . S
O6 C14 1.258 . S
C7 N8 1.326 . S
C7 C11 1.460 . S
C7 H13 0.929 . S
N8 Mn1 2.257 . S
N8 C7 1.326 . S
N8 C12 1.362 . S
C9 C10 1.258 . S
C9 C12 1.431 . S
C9 C29 1.449 . S
C10 C9 1.258 . S
C10 C11 1.477 . S
C10 H30 0.931 . S
C11 C7 1.460 . S
C11 C10 1.477 . S
C11 H31 0.930 . S
C12 N8 1.362 . S
C12 C9 1.431 . S
C12 C22 1.476 . S
H13 C7 0.929 . S
C14 O5 1.250 . S
C14 O6 1.258 . S
O15 Mn0 2.162 . S
O15 C3 1.281 . S
O16 Mn0 2.297 . S
O16 C3 1.236 . S
N17 Mn1 2.282 . S
N17 C18 1.328 . S
N17 C22 1.318 . S
C18 N17 1.328 . S
C18 C19 1.457 . S
C18 H23 0.929 . S
C19 C18 1.457 . S
C19 C20 1.291 . S
C19 H32 0.931 . S
C20 C19 1.291 . S
C20 C21 1.373 . S
C20 H33 0.929 . S
C21 C20 1.373 . S
C21 C22 1.396 . S
C21 C28 1.403 . S
C22 C12 1.476 . S
C22 N17 1.318 . S
C22 C21 1.396 . S
H23 C18 0.929 . S
O24 Mn0 2.385 . S
O24 C2 1.234 . S
O25 Mn0 2.209 . S
O25 Mn1 2.215 . S
O25 C2 1.283 . S
O26 Mn0 2.094 . S
O26 C4 1.240 . S
O27 Mn1 2.117 . S
O27 C4 1.264 . S
C28 C21 1.403 . S
C28 C29 1.399 . S
C28 H34 0.929 . S
C29 C9 1.449 . S
C29 C28 1.399 . S
C29 H35 0.930 . S
H30 C10 0.931 . S
H31 C11 0.930 . S
H32 C19 0.931 . S
H33 C20 0.929 . S
H34 C28 0.929 . S
H35 C29 0.930 . S
Mn36 O41 2.095 . S
Mn36 O51 2.162 . S
Mn36 O52 2.297 . S
Mn36 O60 2.385 . S
Mn36 O61 2.209 . S
Mn36 O62 2.094 . S
Mn37 O42 2.121 . S
Mn37 N44 2.257 . S
Mn37 N53 2.282 . S
Mn37 O61 2.215 . S
Mn37 O63 2.117 . S
C38 O60 1.234 . S
C38 O61 1.283 . S
C39 O51 1.281 . S
C39 O52 1.236 . S
C40 O62 1.240 . S
C40 O63 1.264 . S
O41 Mn36 2.095 . S
O41 C50 1.250 . S
O42 Mn37 2.121 . S
O42 C50 1.258 . S
C43 N44 1.326 . S
C43 C47 1.460 . S
C43 H49 0.929 . S
N44 Mn37 2.257 . S
N44 C43 1.326 . S
N44 C48 1.362 . S
C45 C46 1.258 . S
C45 C48 1.431 . S
C45 C65 1.449 . S
C46 C45 1.258 . S
C46 C47 1.477 . S
C46 H66 0.931 . S
C47 C43 1.460 . S
C47 C46 1.477 . S
C47 H67 0.930 . S
C48 N44 1.362 . S
C48 C45 1.431 . S
C48 C58 1.476 . S
H49 C43 0.929 . S
C50 O41 1.250 . S
C50 O42 1.258 . S
O51 Mn36 2.162 . S
O51 C39 1.281 . S
O52 Mn36 2.297 . S
O52 C39 1.236 . S
N53 Mn37 2.282 . S
N53 C54 1.328 . S
N53 C58 1.318 . S
C54 N53 1.328 . S
C54 C55 1.457 . S
C54 H59 0.929 . S
C55 C54 1.457 . S
C55 C56 1.291 . S
C55 H68 0.931 . S
C56 C55 1.291 . S
C56 C57 1.373 . S
C56 H69 0.929 . S
C57 C56 1.373 . S
C57 C58 1.396 . S
C57 C64 1.403 . S
C58 C48 1.476 . S
C58 N53 1.318 . S
C58 C57 1.396 . S
H59 C54 0.929 . S
O60 Mn36 2.385 . S
O60 C38 1.234 . S
O61 Mn36 2.209 . S
O61 Mn37 2.215 . S
O61 C38 1.283 . S
O62 Mn36 2.094 . S
O62 C40 1.240 . S
O63 Mn37 2.117 . S
O63 C40 1.264 . S
C64 C57 1.403 . S
C64 C65 1.399 . S
C64 H70 0.929 . S
C65 C45 1.449 . S
C65 C64 1.399 . S
C65 H71 0.930 . S
H66 C46 0.931 . S
H67 C47 0.930 . S
H68 C55 0.931 . S
H69 C56 0.929 . S
H70 C64 0.929 . S
H71 C65 0.930 . S
Mn72 O77 2.095 . S
Mn72 O87 2.162 . S
Mn72 O88 2.297 . S
Mn72 O96 2.385 . S
Mn72 O97 2.209 . S
Mn72 O98 2.094 . S
Mn73 O78 2.121 . S
Mn73 N80 2.257 . S
Mn73 N89 2.282 . S
Mn73 O97 2.215 . S
Mn73 O99 2.117 . S
C74 O96 1.234 . S
C74 O97 1.283 . S
C75 O87 1.281 . S
C75 O88 1.236 . S
C76 O98 1.240 . S
C76 O99 1.264 . S
O77 Mn72 2.095 . S
O77 C86 1.250 . S
O78 Mn73 2.121 . S
O78 C86 1.258 . S
C79 N80 1.326 . S
C79 C83 1.460 . S
C79 H85 0.929 . S
N80 Mn73 2.257 . S
N80 C79 1.326 . S
N80 C84 1.362 . S
C81 C82 1.258 . S
C81 C84 1.431 . S
C81 C101 1.449 . S
C82 C81 1.258 . S
C82 C83 1.477 . S
C82 H102 0.931 . S
C83 C79 1.460 . S
C83 C82 1.477 . S
C83 H103 0.930 . S
C84 N80 1.362 . S
C84 C81 1.431 . S
C84 C94 1.476 . S
H85 C79 0.929 . S
C86 O77 1.250 . S
C86 O78 1.258 . S
O87 Mn72 2.162 . S
O87 C75 1.281 . S
O88 Mn72 2.297 . S
O88 C75 1.236 . S
N89 Mn73 2.282 . S
N89 C90 1.328 . S
N89 C94 1.318 . S
C90 N89 1.328 . S
C90 C91 1.457 . S
C90 H95 0.929 . S
C91 C90 1.457 . S
C91 C92 1.291 . S
C91 H104 0.931 . S
C92 C91 1.291 . S
C92 C93 1.373 . S
C92 H105 0.929 . S
C93 C92 1.373 . S
C93 C94 1.396 . S
C93 C100 1.403 . S
C94 C84 1.476 . S
C94 N89 1.318 . S
C94 C93 1.396 . S
H95 C90 0.929 . S
O96 Mn72 2.385 . S
O96 C74 1.234 . S
O97 Mn72 2.209 . S
O97 Mn73 2.215 . S
O97 C74 1.283 . S
O98 Mn72 2.094 . S
O98 C76 1.240 . S
O99 Mn73 2.117 . S
O99 C76 1.264 . S
C100 C93 1.403 . S
C100 C101 1.399 . S
C100 H106 0.929 . S
C101 C81 1.449 . S
C101 C100 1.399 . S
C101 H107 0.930 . S
H102 C82 0.931 . S
H103 C83 0.930 . S
H104 C91 0.931 . S
H105 C92 0.929 . S
H106 C100 0.929 . S
H107 C101 0.930 . S
Mn108 O113 2.095 . S
Mn108 O123 2.162 . S
Mn108 O124 2.297 . S
Mn108 O132 2.385 . S
Mn108 O133 2.209 . S
Mn108 O134 2.094 . S
Mn109 O114 2.121 . S
Mn109 N116 2.257 . S
Mn109 N125 2.282 . S
Mn109 O133 2.215 . S
Mn109 O135 2.117 . S
C110 O132 1.234 . S
C110 O133 1.283 . S
C111 O123 1.281 . S
C111 O124 1.236 . S
C112 O134 1.240 . S
C112 O135 1.264 . S
O113 Mn108 2.095 . S
O113 C122 1.250 . S
O114 Mn109 2.121 . S
O114 C122 1.258 . S
C115 N116 1.326 . S
C115 C119 1.460 . S
C115 H121 0.929 . S
N116 Mn109 2.257 . S
N116 C115 1.326 . S
N116 C120 1.362 . S
C117 C118 1.258 . S
C117 C120 1.431 . S
C117 C137 1.449 . S
C118 C117 1.258 . S
C118 C119 1.477 . S
C118 H138 0.931 . S
C119 C115 1.460 . S
C119 C118 1.477 . S
C119 H139 0.930 . S
C120 N116 1.362 . S
C120 C117 1.431 . S
C120 C130 1.476 . S
H121 C115 0.929 . S
C122 O113 1.250 . S
C122 O114 1.258 . S
O123 Mn108 2.162 . S
O123 C111 1.281 . S
O124 Mn108 2.297 . S
O124 C111 1.236 . S
N125 Mn109 2.282 . S
N125 C126 1.328 . S
N125 C130 1.318 . S
C126 N125 1.328 . S
C126 C127 1.457 . S
C126 H131 0.929 . S
C127 C126 1.457 . S
C127 C128 1.291 . S
C127 H140 0.931 . S
C128 C127 1.291 . S
C128 C129 1.373 . S
C128 H141 0.929 . S
C129 C128 1.373 . S
C129 C130 1.396 . S
C129 C136 1.403 . S
C130 C120 1.476 . S
C130 N125 1.318 . S
C130 C129 1.396 . S
H131 C126 0.929 . S
O132 Mn108 2.385 . S
O132 C110 1.234 . S
O133 Mn108 2.209 . S
O133 Mn109 2.215 . S
O133 C110 1.283 . S
O134 Mn108 2.094 . S
O134 C112 1.240 . S
O135 Mn109 2.117 . S
O135 C112 1.264 . S
C136 C129 1.403 . S
C136 C137 1.399 . S
C136 H142 0.929 . S
C137 C117 1.449 . S
C137 C136 1.399 . S
C137 H143 0.930 . S
H138 C118 0.931 . S
H139 C119 0.930 . S
H140 C127 0.931 . S
H141 C128 0.929 . S
H142 C136 0.929 . S
H143 C137 0.930 . S
Mn144 O149 2.095 . S
Mn144 O159 2.162 . S
Mn144 O160 2.297 . S
Mn144 O168 2.385 . S
Mn144 O169 2.209 . S
Mn144 O170 2.094 . S
Mn145 O150 2.121 . S
Mn145 N152 2.257 . S
Mn145 N161 2.282 . S
Mn145 O169 2.215 . S
Mn145 O171 2.117 . S
C146 O168 1.234 . S
C146 O169 1.283 . S
C147 O159 1.281 . S
C147 O160 1.236 . S
C148 O170 1.240 . S
C148 O171 1.264 . S
O149 Mn144 2.095 . S
O149 C158 1.250 . S
O150 Mn145 2.121 . S
O150 C158 1.258 . S
C151 N152 1.326 . S
C151 C155 1.460 . S
C151 H157 0.929 . S
N152 Mn145 2.257 . S
N152 C151 1.326 . S
N152 C156 1.362 . S
C153 C154 1.258 . S
C153 C156 1.431 . S
C153 C173 1.449 . S
C154 C153 1.258 . S
C154 C155 1.477 . S
C154 H174 0.931 . S
C155 C151 1.460 . S
C155 C154 1.477 . S
C155 H175 0.930 . S
C156 N152 1.362 . S
C156 C153 1.431 . S
C156 C166 1.476 . S
H157 C151 0.929 . S
C158 O149 1.250 . S
C158 O150 1.258 . S
O159 Mn144 2.162 . S
O159 C147 1.281 . S
O160 Mn144 2.297 . S
O160 C147 1.236 . S
N161 Mn145 2.282 . S
N161 C162 1.328 . S
N161 C166 1.318 . S
C162 N161 1.328 . S
C162 C163 1.457 . S
C162 H167 0.929 . S
C163 C162 1.457 . S
C163 C164 1.291 . S
C163 H176 0.931 . S
C164 C163 1.291 . S
C164 C165 1.373 . S
C164 H177 0.929 . S
C165 C164 1.373 . S
C165 C166 1.396 . S
C165 C172 1.403 . S
C166 C156 1.476 . S
C166 N161 1.318 . S
C166 C165 1.396 . S
H167 C162 0.929 . S
O168 Mn144 2.385 . S
O168 C146 1.234 . S
O169 Mn144 2.209 . S
O169 Mn145 2.215 . S
O169 C146 1.283 . S
O170 Mn144 2.094 . S
O170 C148 1.240 . S
O171 Mn145 2.117 . S
O171 C148 1.264 . S
C172 C165 1.403 . S
C172 C173 1.399 . S
C172 H178 0.929 . S
C173 C153 1.449 . S
C173 C172 1.399 . S
C173 H179 0.930 . S
H174 C154 0.931 . S
H175 C155 0.930 . S
H176 C163 0.931 . S
H177 C164 0.929 . S
H178 C172 0.929 . S
H179 C173 0.930 . S
Mn180 O185 2.095 . S
Mn180 O195 2.162 . S
Mn180 O196 2.297 . S
Mn180 O204 2.385 . S
Mn180 O205 2.209 . S
Mn180 O206 2.094 . S
Mn181 O186 2.121 . S
Mn181 N188 2.257 . S
Mn181 N197 2.282 . S
Mn181 O205 2.215 . S
Mn181 O207 2.117 . S
C182 O204 1.234 . S
C182 O205 1.283 . S
C183 O195 1.281 . S
C183 O196 1.236 . S
C184 O206 1.240 . S
C184 O207 1.264 . S
O185 Mn180 2.095 . S
O185 C194 1.250 . S
O186 Mn181 2.121 . S
O186 C194 1.258 . S
C187 N188 1.326 . S
C187 C191 1.460 . S
C187 H193 0.929 . S
N188 Mn181 2.257 . S
N188 C187 1.326 . S
N188 C192 1.362 . S
C189 C190 1.258 . S
C189 C192 1.431 . S
C189 C209 1.449 . S
C190 C189 1.258 . S
C190 C191 1.477 . S
C190 H210 0.931 . S
C191 C187 1.460 . S
C191 C190 1.477 . S
C191 H211 0.930 . S
C192 N188 1.362 . S
C192 C189 1.431 . S
C192 C202 1.476 . S
H193 C187 0.929 . S
C194 O185 1.250 . S
C194 O186 1.258 . S
O195 Mn180 2.162 . S
O195 C183 1.281 . S
O196 Mn180 2.297 . S
O196 C183 1.236 . S
N197 Mn181 2.282 . S
N197 C198 1.328 . S
N197 C202 1.318 . S
C198 N197 1.328 . S
C198 C199 1.457 . S
C198 H203 0.929 . S
C199 C198 1.457 . S
C199 C200 1.291 . S
C199 H212 0.931 . S
C200 C199 1.291 . S
C200 C201 1.373 . S
C200 H213 0.929 . S
C201 C200 1.373 . S
C201 C202 1.396 . S
C201 C208 1.403 . S
C202 C192 1.476 . S
C202 N197 1.318 . S
C202 C201 1.396 . S
H203 C198 0.929 . S
O204 Mn180 2.385 . S
O204 C182 1.234 . S
O205 Mn180 2.209 . S
O205 Mn181 2.215 . S
O205 C182 1.283 . S
O206 Mn180 2.094 . S
O206 C184 1.240 . S
O207 Mn181 2.117 . S
O207 C184 1.264 . S
C208 C201 1.403 . S
C208 C209 1.399 . S
C208 H214 0.929 . S
C209 C189 1.449 . S
C209 C208 1.399 . S
C209 H215 0.930 . S
H210 C190 0.931 . S
H211 C191 0.930 . S
H212 C199 0.931 . S
H213 C200 0.929 . S
H214 C208 0.929 . S
H215 C209 0.930 . S
Mn216 O221 2.095 . S
Mn216 O231 2.162 . S
Mn216 O232 2.297 . S
Mn216 O240 2.385 . S
Mn216 O241 2.209 . S
Mn216 O242 2.094 . S
Mn217 O222 2.121 . S
Mn217 N224 2.257 . S
Mn217 N233 2.282 . S
Mn217 O241 2.215 . S
Mn217 O243 2.117 . S
C218 O240 1.234 . S
C218 O241 1.283 . S
C219 O231 1.281 . S
C219 O232 1.236 . S
C220 O242 1.240 . S
C220 O243 1.264 . S
O221 Mn216 2.095 . S
O221 C230 1.250 . S
O222 Mn217 2.121 . S
O222 C230 1.258 . S
C223 N224 1.326 . S
C223 C227 1.460 . S
C223 H229 0.929 . S
N224 Mn217 2.257 . S
N224 C223 1.326 . S
N224 C228 1.362 . S
C225 C226 1.258 . S
C225 C228 1.431 . S
C225 C245 1.449 . S
C226 C225 1.258 . S
C226 C227 1.477 . S
C226 H246 0.931 . S
C227 C223 1.460 . S
C227 C226 1.477 . S
C227 H247 0.930 . S
C228 N224 1.362 . S
C228 C225 1.431 . S
C228 C238 1.476 . S
H229 C223 0.929 . S
C230 O221 1.250 . S
C230 O222 1.258 . S
O231 Mn216 2.162 . S
O231 C219 1.281 . S
O232 Mn216 2.297 . S
O232 C219 1.236 . S
N233 Mn217 2.282 . S
N233 C234 1.328 . S
N233 C238 1.318 . S
C234 N233 1.328 . S
C234 C235 1.457 . S
C234 H239 0.929 . S
C235 C234 1.457 . S
C235 C236 1.291 . S
C235 H248 0.931 . S
C236 C235 1.291 . S
C236 C237 1.373 . S
C236 H249 0.929 . S
C237 C236 1.373 . S
C237 C238 1.396 . S
C237 C244 1.403 . S
C238 C228 1.476 . S
C238 N233 1.318 . S
C238 C237 1.396 . S
H239 C234 0.929 . S
O240 Mn216 2.385 . S
O240 C218 1.234 . S
O241 Mn216 2.209 . S
O241 Mn217 2.215 . S
O241 C218 1.283 . S
O242 Mn216 2.094 . S
O242 C220 1.240 . S
O243 Mn217 2.117 . S
O243 C220 1.264 . S
C244 C237 1.403 . S
C244 C245 1.399 . S
C244 H250 0.929 . S
C245 C225 1.449 . S
C245 C244 1.399 . S
C245 H251 0.930 . S
H246 C226 0.931 . S
H247 C227 0.930 . S
H248 C235 0.931 . S
H249 C236 0.929 . S
H250 C244 0.929 . S
H251 C245 0.930 . S
Mn252 O257 2.095 . S
Mn252 O267 2.162 . S
Mn252 O268 2.297 . S
Mn252 O276 2.385 . S
Mn252 O277 2.209 . S
Mn252 O278 2.094 . S
Mn253 O258 2.121 . S
Mn253 N260 2.257 . S
Mn253 N269 2.282 . S
Mn253 O277 2.215 . S
Mn253 O279 2.117 . S
C254 O276 1.234 . S
C254 O277 1.283 . S
C255 O267 1.281 . S
C255 O268 1.236 . S
C256 O278 1.240 . S
C256 O279 1.264 . S
O257 Mn252 2.095 . S
O257 C266 1.250 . S
O258 Mn253 2.121 . S
O258 C266 1.258 . S
C259 N260 1.326 . S
C259 C263 1.460 . S
C259 H265 0.929 . S
N260 Mn253 2.257 . S
N260 C259 1.326 . S
N260 C264 1.362 . S
C261 C262 1.258 . S
C261 C264 1.431 . S
C261 C281 1.449 . S
C262 C261 1.258 . S
C262 C263 1.477 . S
C262 H282 0.931 . S
C263 C259 1.460 . S
C263 C262 1.477 . S
C263 H283 0.930 . S
C264 N260 1.362 . S
C264 C261 1.431 . S
C264 C274 1.476 . S
H265 C259 0.929 . S
C266 O257 1.250 . S
C266 O258 1.258 . S
O267 Mn252 2.162 . S
O267 C255 1.281 . S
O268 Mn252 2.297 . S
O268 C255 1.236 . S
N269 Mn253 2.282 . S
N269 C270 1.328 . S
N269 C274 1.318 . S
C270 N269 1.328 . S
C270 C271 1.457 . S
C270 H275 0.929 . S
C271 C270 1.457 . S
C271 C272 1.291 . S
C271 H284 0.931 . S
C272 C271 1.291 . S
C272 C273 1.373 . S
C272 H285 0.929 . S
C273 C272 1.373 . S
C273 C274 1.396 . S
C273 C280 1.403 . S
C274 C264 1.476 . S
C274 N269 1.318 . S
C274 C273 1.396 . S
H275 C270 0.929 . S
O276 Mn252 2.385 . S
O276 C254 1.234 . S
O277 Mn252 2.209 . S
O277 Mn253 2.215 . S
O277 C254 1.283 . S
O278 Mn252 2.094 . S
O278 C256 1.240 . S
O279 Mn253 2.117 . S
O279 C256 1.264 . S
C280 C273 1.403 . S
C280 C281 1.399 . S
C280 H286 0.929 . S
C281 C261 1.449 . S
C281 C280 1.399 . S
C281 H287 0.930 . S
H282 C262 0.931 . S
H283 C263 0.930 . S
H284 C271 0.931 . S
H285 C272 0.929 . S
H286 C280 0.929 . S
H287 C281 0.930 . S
Mn288 O293 2.095 . S
Mn288 O303 2.162 . S
Mn288 O304 2.297 . S
Mn288 O312 2.385 . S
Mn288 O313 2.209 . S
Mn288 O314 2.094 . S
Mn289 O294 2.121 . S
Mn289 N296 2.257 . S
Mn289 N305 2.282 . S
Mn289 O313 2.215 . S
Mn289 O315 2.117 . S
C290 O312 1.234 . S
C290 O313 1.283 . S
C291 O303 1.281 . S
C291 O304 1.236 . S
C292 O314 1.240 . S
C292 O315 1.264 . S
O293 Mn288 2.095 . S
O293 C302 1.250 . S
O294 Mn289 2.121 . S
O294 C302 1.258 . S
C295 N296 1.326 . S
C295 C299 1.460 . S
C295 H301 0.929 . S
N296 Mn289 2.257 . S
N296 C295 1.326 . S
N296 C300 1.362 . S
C297 C298 1.258 . S
C297 C300 1.431 . S
C297 C317 1.449 . S
C298 C297 1.258 . S
C298 C299 1.477 . S
C298 H318 0.931 . S
C299 C295 1.460 . S
C299 C298 1.477 . S
C299 H319 0.930 . S
C300 N296 1.362 . S
C300 C297 1.431 . S
C300 C310 1.476 . S
H301 C295 0.929 . S
C302 O293 1.250 . S
C302 O294 1.258 . S
O303 Mn288 2.162 . S
O303 C291 1.281 . S
O304 Mn288 2.297 . S
O304 C291 1.236 . S
N305 Mn289 2.282 . S
N305 C306 1.328 . S
N305 C310 1.318 . S
C306 N305 1.328 . S
C306 C307 1.457 . S
C306 H311 0.929 . S
C307 C306 1.457 . S
C307 C308 1.291 . S
C307 H320 0.931 . S
C308 C307 1.291 . S
C308 C309 1.373 . S
C308 H321 0.929 . S
C309 C308 1.373 . S
C309 C310 1.396 . S
C309 C316 1.403 . S
C310 C300 1.476 . S
C310 N305 1.318 . S
C310 C309 1.396 . S
H311 C306 0.929 . S
O312 Mn288 2.385 . S
O312 C290 1.234 . S
O313 Mn288 2.209 . S
O313 Mn289 2.215 . S
O313 C290 1.283 . S
O314 Mn288 2.094 . S
O314 C292 1.240 . S
O315 Mn289 2.117 . S
O315 C292 1.264 . S
C316 C309 1.403 . S
C316 C317 1.399 . S
C316 H322 0.929 . S
C317 C297 1.449 . S
C317 C316 1.399 . S
C317 H323 0.930 . S
H318 C298 0.931 . S
H319 C299 0.930 . S
H320 C307 0.931 . S
H321 C308 0.929 . S
H322 C316 0.929 . S
H323 C317 0.930 . S
Mn324 O329 2.095 . S
Mn324 O339 2.162 . S
Mn324 O340 2.297 . S
Mn324 O348 2.385 . S
Mn324 O349 2.209 . S
Mn324 O350 2.094 . S
Mn325 O330 2.121 . S
Mn325 N332 2.257 . S
Mn325 N341 2.282 . S
Mn325 O349 2.215 . S
Mn325 O351 2.117 . S
C326 O348 1.234 . S
C326 O349 1.283 . S
C327 O339 1.281 . S
C327 O340 1.236 . S
C328 O350 1.240 . S
C328 O351 1.264 . S
O329 Mn324 2.095 . S
O329 C338 1.250 . S
O330 Mn325 2.121 . S
O330 C338 1.258 . S
C331 N332 1.326 . S
C331 C335 1.460 . S
C331 H337 0.929 . S
N332 Mn325 2.257 . S
N332 C331 1.326 . S
N332 C336 1.362 . S
C333 C334 1.258 . S
C333 C336 1.431 . S
C333 C353 1.449 . S
C334 C333 1.258 . S
C334 C335 1.477 . S
C334 H354 0.931 . S
C335 C331 1.460 . S
C335 C334 1.477 . S
C335 H355 0.930 . S
C336 N332 1.362 . S
C336 C333 1.431 . S
C336 C346 1.476 . S
H337 C331 0.929 . S
C338 O329 1.250 . S
C338 O330 1.258 . S
O339 Mn324 2.162 . S
O339 C327 1.281 . S
O340 Mn324 2.297 . S
O340 C327 1.236 . S
N341 Mn325 2.282 . S
N341 C342 1.328 . S
N341 C346 1.318 . S
C342 N341 1.328 . S
C342 C343 1.457 . S
C342 H347 0.929 . S
C343 C342 1.457 . S
C343 C344 1.291 . S
C343 H356 0.931 . S
C344 C343 1.291 . S
C344 C345 1.373 . S
C344 H357 0.929 . S
C345 C344 1.373 . S
C345 C346 1.396 . S
C345 C352 1.403 . S
C346 C336 1.476 . S
C346 N341 1.318 . S
C346 C345 1.396 . S
H347 C342 0.929 . S
O348 Mn324 2.385 . S
O348 C326 1.234 . S
O349 Mn324 2.209 . S
O349 Mn325 2.215 . S
O349 C326 1.283 . S
O350 Mn324 2.094 . S
O350 C328 1.240 . S
O351 Mn325 2.117 . S
O351 C328 1.264 . S
C352 C345 1.403 . S
C352 C353 1.399 . S
C352 H358 0.929 . S
C353 C333 1.449 . S
C353 C352 1.399 . S
C353 H359 0.930 . S
H354 C334 0.931 . S
H355 C335 0.930 . S
H356 C343 0.931 . S
H357 C344 0.929 . S
H358 C352 0.929 . S
H359 C353 0.930 . S
Mn360 O365 2.095 . S
Mn360 O375 2.162 . S
Mn360 O376 2.297 . S
Mn360 O384 2.385 . S
Mn360 O385 2.209 . S
Mn360 O386 2.094 . S
Mn361 O366 2.121 . S
Mn361 N368 2.257 . S
Mn361 N377 2.282 . S
Mn361 O385 2.215 . S
Mn361 O387 2.117 . S
C362 O384 1.234 . S
C362 O385 1.283 . S
C363 O375 1.281 . S
C363 O376 1.236 . S
C364 O386 1.240 . S
C364 O387 1.264 . S
O365 Mn360 2.095 . S
O365 C374 1.250 . S
O366 Mn361 2.121 . S
O366 C374 1.258 . S
C367 N368 1.326 . S
C367 C371 1.460 . S
C367 H373 0.929 . S
N368 Mn361 2.257 . S
N368 C367 1.326 . S
N368 C372 1.362 . S
C369 C370 1.258 . S
C369 C372 1.431 . S
C369 C389 1.449 . S
C370 C369 1.258 . S
C370 C371 1.477 . S
C370 H390 0.931 . S
C371 C367 1.460 . S
C371 C370 1.477 . S
C371 H391 0.930 . S
C372 N368 1.362 . S
C372 C369 1.431 . S
C372 C382 1.476 . S
H373 C367 0.929 . S
C374 O365 1.250 . S
C374 O366 1.258 . S
O375 Mn360 2.162 . S
O375 C363 1.281 . S
O376 Mn360 2.297 . S
O376 C363 1.236 . S
N377 Mn361 2.282 . S
N377 C378 1.328 . S
N377 C382 1.318 . S
C378 N377 1.328 . S
C378 C379 1.457 . S
C378 H383 0.929 . S
C379 C378 1.457 . S
C379 C380 1.291 . S
C379 H392 0.931 . S
C380 C379 1.291 . S
C380 C381 1.373 . S
C380 H393 0.929 . S
C381 C380 1.373 . S
C381 C382 1.396 . S
C381 C388 1.403 . S
C382 C372 1.476 . S
C382 N377 1.318 . S
C382 C381 1.396 . S
H383 C378 0.929 . S
O384 Mn360 2.385 . S
O384 C362 1.234 . S
O385 Mn360 2.209 . S
O385 Mn361 2.215 . S
O385 C362 1.283 . S
O386 Mn360 2.094 . S
O386 C364 1.240 . S
O387 Mn361 2.117 . S
O387 C364 1.264 . S
C388 C381 1.403 . S
C388 C389 1.399 . S
C388 H394 0.929 . S
C389 C369 1.449 . S
C389 C388 1.399 . S
C389 H395 0.930 . S
H390 C370 0.931 . S
H391 C371 0.930 . S
H392 C379 0.931 . S
H393 C380 0.929 . S
H394 C388 0.929 . S
H395 C389 0.930 . S
Mn396 O401 2.095 . S
Mn396 O411 2.162 . S
Mn396 O412 2.297 . S
Mn396 O420 2.385 . S
Mn396 O421 2.209 . S
Mn396 O422 2.094 . S
Mn397 O402 2.121 . S
Mn397 N404 2.257 . S
Mn397 N413 2.282 . S
Mn397 O421 2.215 . S
Mn397 O423 2.117 . S
C398 O420 1.234 . S
C398 O421 1.283 . S
C399 O411 1.281 . S
C399 O412 1.236 . S
C400 O422 1.240 . S
C400 O423 1.264 . S
O401 Mn396 2.095 . S
O401 C410 1.250 . S
O402 Mn397 2.121 . S
O402 C410 1.258 . S
C403 N404 1.326 . S
C403 C407 1.460 . S
C403 H409 0.929 . S
N404 Mn397 2.257 . S
N404 C403 1.326 . S
N404 C408 1.362 . S
C405 C406 1.258 . S
C405 C408 1.431 . S
C405 C425 1.449 . S
C406 C405 1.258 . S
C406 C407 1.477 . S
C406 H426 0.931 . S
C407 C403 1.460 . S
C407 C406 1.477 . S
C407 H427 0.930 . S
C408 N404 1.362 . S
C408 C405 1.431 . S
C408 C418 1.476 . S
H409 C403 0.929 . S
C410 O401 1.250 . S
C410 O402 1.258 . S
O411 Mn396 2.162 . S
O411 C399 1.281 . S
O412 Mn396 2.297 . S
O412 C399 1.236 . S
N413 Mn397 2.282 . S
N413 C414 1.328 . S
N413 C418 1.318 . S
C414 N413 1.328 . S
C414 C415 1.457 . S
C414 H419 0.929 . S
C415 C414 1.457 . S
C415 C416 1.291 . S
C415 H428 0.931 . S
C416 C415 1.291 . S
C416 C417 1.373 . S
C416 H429 0.929 . S
C417 C416 1.373 . S
C417 C418 1.396 . S
C417 C424 1.403 . S
C418 C408 1.476 . S
C418 N413 1.318 . S
C418 C417 1.396 . S
H419 C414 0.929 . S
O420 Mn396 2.385 . S
O420 C398 1.234 . S
O421 Mn396 2.209 . S
O421 Mn397 2.215 . S
O421 C398 1.283 . S
O422 Mn396 2.094 . S
O422 C400 1.240 . S
O423 Mn397 2.117 . S
O423 C400 1.264 . S
C424 C417 1.403 . S
C424 C425 1.399 . S
C424 H430 0.929 . S
C425 C405 1.449 . S
C425 C424 1.399 . S
C425 H431 0.930 . S
H426 C406 0.931 . S
H427 C407 0.930 . S
H428 C415 0.931 . S
H429 C416 0.929 . S
H430 C424 0.929 . S
H431 C425 0.930 . S
Mn432 O437 2.095 . S
Mn432 O447 2.162 . S
Mn432 O448 2.297 . S
Mn432 O456 2.385 . S
Mn432 O457 2.209 . S
Mn432 O458 2.094 . S
Mn433 O438 2.121 . S
Mn433 N440 2.257 . S
Mn433 N449 2.282 . S
Mn433 O457 2.215 . S
Mn433 O459 2.117 . S
C434 O456 1.234 . S
C434 O457 1.283 . S
C435 O447 1.281 . S
C435 O448 1.236 . S
C436 O458 1.240 . S
C436 O459 1.264 . S
O437 Mn432 2.095 . S
O437 C446 1.250 . S
O438 Mn433 2.121 . S
O438 C446 1.258 . S
C439 N440 1.326 . S
C439 C443 1.460 . S
C439 H445 0.929 . S
N440 Mn433 2.257 . S
N440 C439 1.326 . S
N440 C444 1.362 . S
C441 C442 1.258 . S
C441 C444 1.431 . S
C441 C461 1.449 . S
C442 C441 1.258 . S
C442 C443 1.477 . S
C442 H462 0.931 . S
C443 C439 1.460 . S
C443 C442 1.477 . S
C443 H463 0.930 . S
C444 N440 1.362 . S
C444 C441 1.431 . S
C444 C454 1.476 . S
H445 C439 0.929 . S
C446 O437 1.250 . S
C446 O438 1.258 . S
O447 Mn432 2.162 . S
O447 C435 1.281 . S
O448 Mn432 2.297 . S
O448 C435 1.236 . S
N449 Mn433 2.282 . S
N449 C450 1.328 . S
N449 C454 1.318 . S
C450 N449 1.328 . S
C450 C451 1.457 . S
C450 H455 0.929 . S
C451 C450 1.457 . S
C451 C452 1.291 . S
C451 H464 0.931 . S
C452 C451 1.291 . S
C452 C453 1.373 . S
C452 H465 0.929 . S
C453 C452 1.373 . S
C453 C454 1.396 . S
C453 C460 1.403 . S
C454 C444 1.476 . S
C454 N449 1.318 . S
C454 C453 1.396 . S
H455 C450 0.929 . S
O456 Mn432 2.385 . S
O456 C434 1.234 . S
O457 Mn432 2.209 . S
O457 Mn433 2.215 . S
O457 C434 1.283 . S
O458 Mn432 2.094 . S
O458 C436 1.240 . S
O459 Mn433 2.117 . S
O459 C436 1.264 . S
C460 C453 1.403 . S
C460 C461 1.399 . S
C460 H466 0.929 . S
C461 C441 1.449 . S
C461 C460 1.399 . S
C461 H467 0.930 . S
H462 C442 0.931 . S
H463 C443 0.930 . S
H464 C451 0.931 . S
H465 C452 0.929 . S
H466 C460 0.929 . S
H467 C461 0.930 . S
Mn468 O473 2.095 . S
Mn468 O483 2.162 . S
Mn468 O484 2.297 . S
Mn468 O492 2.385 . S
Mn468 O493 2.209 . S
Mn468 O494 2.094 . S
Mn469 O474 2.121 . S
Mn469 N476 2.257 . S
Mn469 N485 2.282 . S
Mn469 O493 2.215 . S
Mn469 O495 2.117 . S
C470 O492 1.234 . S
C470 O493 1.283 . S
C471 O483 1.281 . S
C471 O484 1.236 . S
C472 O494 1.240 . S
C472 O495 1.264 . S
O473 Mn468 2.095 . S
O473 C482 1.250 . S
O474 Mn469 2.121 . S
O474 C482 1.258 . S
C475 N476 1.326 . S
C475 C479 1.460 . S
C475 H481 0.929 . S
N476 Mn469 2.257 . S
N476 C475 1.326 . S
N476 C480 1.362 . S
C477 C478 1.258 . S
C477 C480 1.431 . S
C477 C497 1.449 . S
C478 C477 1.258 . S
C478 C479 1.477 . S
C478 H498 0.931 . S
C479 C475 1.460 . S
C479 C478 1.477 . S
C479 H499 0.930 . S
C480 N476 1.362 . S
C480 C477 1.431 . S
C480 C490 1.476 . S
H481 C475 0.929 . S
C482 O473 1.250 . S
C482 O474 1.258 . S
O483 Mn468 2.162 . S
O483 C471 1.281 . S
O484 Mn468 2.297 . S
O484 C471 1.236 . S
N485 Mn469 2.282 . S
N485 C486 1.328 . S
N485 C490 1.318 . S
C486 N485 1.328 . S
C486 C487 1.457 . S
C486 H491 0.929 . S
C487 C486 1.457 . S
C487 C488 1.291 . S
C487 H500 0.931 . S
C488 C487 1.291 . S
C488 C489 1.373 . S
C488 H501 0.929 . S
C489 C488 1.373 . S
C489 C490 1.396 . S
C489 C496 1.403 . S
C490 C480 1.476 . S
C490 N485 1.318 . S
C490 C489 1.396 . S
H491 C486 0.929 . S
O492 Mn468 2.385 . S
O492 C470 1.234 . S
O493 Mn468 2.209 . S
O493 Mn469 2.215 . S
O493 C470 1.283 . S
O494 Mn468 2.094 . S
O494 C472 1.240 . S
O495 Mn469 2.117 . S
O495 C472 1.264 . S
C496 C489 1.403 . S
C496 C497 1.399 . S
C496 H502 0.929 . S
C497 C477 1.449 . S
C497 C496 1.399 . S
C497 H503 0.930 . S
H498 C478 0.931 . S
H499 C479 0.930 . S
H500 C487 0.931 . S
H501 C488 0.929 . S
H502 C496 0.929 . S
H503 C497 0.930 . S
Mn504 O509 2.095 . S
Mn504 O519 2.162 . S
Mn504 O520 2.297 . S
Mn504 O528 2.385 . S
Mn504 O529 2.209 . S
Mn504 O530 2.094 . S
Mn505 O510 2.121 . S
Mn505 N512 2.257 . S
Mn505 N521 2.282 . S
Mn505 O529 2.215 . S
Mn505 O531 2.117 . S
C506 O528 1.234 . S
C506 O529 1.283 . S
C507 O519 1.281 . S
C507 O520 1.236 . S
C508 O530 1.240 . S
C508 O531 1.264 . S
O509 Mn504 2.095 . S
O509 C518 1.250 . S
O510 Mn505 2.121 . S
O510 C518 1.258 . S
C511 N512 1.326 . S
C511 C515 1.460 . S
C511 H517 0.929 . S
N512 Mn505 2.257 . S
N512 C511 1.326 . S
N512 C516 1.362 . S
C513 C514 1.258 . S
C513 C516 1.431 . S
C513 C533 1.449 . S
C514 C513 1.258 . S
C514 C515 1.477 . S
C514 H534 0.931 . S
C515 C511 1.460 . S
C515 C514 1.477 . S
C515 H535 0.930 . S
C516 N512 1.362 . S
C516 C513 1.431 . S
C516 C526 1.476 . S
H517 C511 0.929 . S
C518 O509 1.250 . S
C518 O510 1.258 . S
O519 Mn504 2.162 . S
O519 C507 1.281 . S
O520 Mn504 2.297 . S
O520 C507 1.236 . S
N521 Mn505 2.282 . S
N521 C522 1.328 . S
N521 C526 1.318 . S
C522 N521 1.328 . S
C522 C523 1.457 . S
C522 H527 0.929 . S
C523 C522 1.457 . S
C523 C524 1.291 . S
C523 H536 0.931 . S
C524 C523 1.291 . S
C524 C525 1.373 . S
C524 H537 0.929 . S
C525 C524 1.373 . S
C525 C526 1.396 . S
C525 C532 1.403 . S
C526 C516 1.476 . S
C526 N521 1.318 . S
C526 C525 1.396 . S
H527 C522 0.929 . S
O528 Mn504 2.385 . S
O528 C506 1.234 . S
O529 Mn504 2.209 . S
O529 Mn505 2.215 . S
O529 C506 1.283 . S
O530 Mn504 2.094 . S
O530 C508 1.240 . S
O531 Mn505 2.117 . S
O531 C508 1.264 . S
C532 C525 1.403 . S
C532 C533 1.399 . S
C532 H538 0.929 . S
C533 C513 1.449 . S
C533 C532 1.399 . S
C533 H539 0.930 . S
H534 C514 0.931 . S
H535 C515 0.930 . S
H536 C523 0.931 . S
H537 C524 0.929 . S
H538 C532 0.929 . S
H539 C533 0.930 . S
Mn540 O545 2.095 . S
Mn540 O555 2.162 . S
Mn540 O556 2.297 . S
Mn540 O564 2.385 . S
Mn540 O565 2.209 . S
Mn540 O566 2.094 . S
Mn541 O546 2.121 . S
Mn541 N548 2.257 . S
Mn541 N557 2.282 . S
Mn541 O565 2.215 . S
Mn541 O567 2.117 . S
C542 O564 1.234 . S
C542 O565 1.283 . S
C543 O555 1.281 . S
C543 O556 1.236 . S
C544 O566 1.240 . S
C544 O567 1.264 . S
O545 Mn540 2.095 . S
O545 C554 1.250 . S
O546 Mn541 2.121 . S
O546 C554 1.258 . S
C547 N548 1.326 . S
C547 C551 1.460 . S
C547 H553 0.929 . S
N548 Mn541 2.257 . S
N548 C547 1.326 . S
N548 C552 1.362 . S
C549 C550 1.258 . S
C549 C552 1.431 . S
C549 C569 1.449 . S
C550 C549 1.258 . S
C550 C551 1.477 . S
C550 H570 0.931 . S
C551 C547 1.460 . S
C551 C550 1.477 . S
C551 H571 0.930 . S
C552 N548 1.362 . S
C552 C549 1.431 . S
C552 C562 1.476 . S
H553 C547 0.929 . S
C554 O545 1.250 . S
C554 O546 1.258 . S
O555 Mn540 2.162 . S
O555 C543 1.281 . S
O556 Mn540 2.297 . S
O556 C543 1.236 . S
N557 Mn541 2.282 . S
N557 C558 1.328 . S
N557 C562 1.318 . S
C558 N557 1.328 . S
C558 C559 1.457 . S
C558 H563 0.929 . S
C559 C558 1.457 . S
C559 C560 1.291 . S
C559 H572 0.931 . S
C560 C559 1.291 . S
C560 C561 1.373 . S
C560 H573 0.929 . S
C561 C560 1.373 . S
C561 C562 1.396 . S
C561 C568 1.403 . S
C562 C552 1.476 . S
C562 N557 1.318 . S
C562 C561 1.396 . S
H563 C558 0.929 . S
O564 Mn540 2.385 . S
O564 C542 1.234 . S
O565 Mn540 2.209 . S
O565 Mn541 2.215 . S
O565 C542 1.283 . S
O566 Mn540 2.094 . S
O566 C544 1.240 . S
O567 Mn541 2.117 . S
O567 C544 1.264 . S
C568 C561 1.403 . S
C568 C569 1.399 . S
C568 H574 0.929 . S
C569 C549 1.449 . S
C569 C568 1.399 . S
C569 H575 0.930 . S
H570 C550 0.931 . S
H571 C551 0.930 . S
H572 C559 0.931 . S
H573 C560 0.929 . S
H574 C568 0.929 . S
H575 C569 0.930 . S
Mn576 O581 2.095 . S
Mn576 O591 2.162 . S
Mn576 O592 2.297 . S
Mn576 O600 2.385 . S
Mn576 O601 2.209 . S
Mn576 O602 2.094 . S
Mn577 O582 2.121 . S
Mn577 N584 2.257 . S
Mn577 N593 2.282 . S
Mn577 O601 2.215 . S
Mn577 O603 2.117 . S
C578 O600 1.234 . S
C578 O601 1.283 . S
C579 O591 1.281 . S
C579 O592 1.236 . S
C580 O602 1.240 . S
C580 O603 1.264 . S
O581 Mn576 2.095 . S
O581 C590 1.250 . S
O582 Mn577 2.121 . S
O582 C590 1.258 . S
C583 N584 1.326 . S
C583 C587 1.460 . S
C583 H589 0.929 . S
N584 Mn577 2.257 . S
N584 C583 1.326 . S
N584 C588 1.362 . S
C585 C586 1.258 . S
C585 C588 1.431 . S
C585 C605 1.449 . S
C586 C585 1.258 . S
C586 C587 1.477 . S
C586 H606 0.931 . S
C587 C583 1.460 . S
C587 C586 1.477 . S
C587 H607 0.930 . S
C588 N584 1.362 . S
C588 C585 1.431 . S
C588 C598 1.476 . S
H589 C583 0.929 . S
C590 O581 1.250 . S
C590 O582 1.258 . S
O591 Mn576 2.162 . S
O591 C579 1.281 . S
O592 Mn576 2.297 . S
O592 C579 1.236 . S
N593 Mn577 2.282 . S
N593 C594 1.328 . S
N593 C598 1.318 . S
C594 N593 1.328 . S
C594 C595 1.457 . S
C594 H599 0.929 . S
C595 C594 1.457 . S
C595 C596 1.291 . S
C595 H608 0.931 . S
C596 C595 1.291 . S
C596 C597 1.373 . S
C596 H609 0.929 . S
C597 C596 1.373 . S
C597 C598 1.396 . S
C597 C604 1.403 . S
C598 C588 1.476 . S
C598 N593 1.318 . S
C598 C597 1.396 . S
H599 C594 0.929 . S
O600 Mn576 2.385 . S
O600 C578 1.234 . S
O601 Mn576 2.209 . S
O601 Mn577 2.215 . S
O601 C578 1.283 . S
O602 Mn576 2.094 . S
O602 C580 1.240 . S
O603 Mn577 2.117 . S
O603 C580 1.264 . S
C604 C597 1.403 . S
C604 C605 1.399 . S
C604 H610 0.929 . S
C605 C585 1.449 . S
C605 C604 1.399 . S
C605 H611 0.930 . S
H606 C586 0.931 . S
H607 C587 0.930 . S
H608 C595 0.931 . S
H609 C596 0.929 . S
H610 C604 0.929 . S
H611 C605 0.930 . S
Mn612 O617 2.095 . S
Mn612 O627 2.162 . S
Mn612 O628 2.297 . S
Mn612 O636 2.385 . S
Mn612 O637 2.209 . S
Mn612 O638 2.094 . S
Mn613 O618 2.121 . S
Mn613 N620 2.257 . S
Mn613 N629 2.282 . S
Mn613 O637 2.215 . S
Mn613 O639 2.117 . S
C614 O636 1.234 . S
C614 O637 1.283 . S
C615 O627 1.281 . S
C615 O628 1.236 . S
C616 O638 1.240 . S
C616 O639 1.264 . S
O617 Mn612 2.095 . S
O617 C626 1.250 . S
O618 Mn613 2.121 . S
O618 C626 1.258 . S
C619 N620 1.326 . S
C619 C623 1.460 . S
C619 H625 0.929 . S
N620 Mn613 2.257 . S
N620 C619 1.326 . S
N620 C624 1.362 . S
C621 C622 1.258 . S
C621 C624 1.431 . S
C621 C641 1.449 . S
C622 C621 1.258 . S
C622 C623 1.477 . S
C622 H642 0.931 . S
C623 C619 1.460 . S
C623 C622 1.477 . S
C623 H643 0.930 . S
C624 N620 1.362 . S
C624 C621 1.431 . S
C624 C634 1.476 . S
H625 C619 0.929 . S
C626 O617 1.250 . S
C626 O618 1.258 . S
O627 Mn612 2.162 . S
O627 C615 1.281 . S
O628 Mn612 2.297 . S
O628 C615 1.236 . S
N629 Mn613 2.282 . S
N629 C630 1.328 . S
N629 C634 1.318 . S
C630 N629 1.328 . S
C630 C631 1.457 . S
C630 H635 0.929 . S
C631 C630 1.457 . S
C631 C632 1.291 . S
C631 H644 0.931 . S
C632 C631 1.291 . S
C632 C633 1.373 . S
C632 H645 0.929 . S
C633 C632 1.373 . S
C633 C634 1.396 . S
C633 C640 1.403 . S
C634 C624 1.476 . S
C634 N629 1.318 . S
C634 C633 1.396 . S
H635 C630 0.929 . S
O636 Mn612 2.385 . S
O636 C614 1.234 . S
O637 Mn612 2.209 . S
O637 Mn613 2.215 . S
O637 C614 1.283 . S
O638 Mn612 2.094 . S
O638 C616 1.240 . S
O639 Mn613 2.117 . S
O639 C616 1.264 . S
C640 C633 1.403 . S
C640 C641 1.399 . S
C640 H646 0.929 . S
C641 C621 1.449 . S
C641 C640 1.399 . S
C641 H647 0.930 . S
H642 C622 0.931 . S
H643 C623 0.930 . S
H644 C631 0.931 . S
H645 C632 0.929 . S
H646 C640 0.929 . S
H647 C641 0.930 . S
Mn648 O653 2.095 . S
Mn648 O663 2.162 . S
Mn648 O664 2.297 . S
Mn648 O672 2.385 . S
Mn648 O673 2.209 . S
Mn648 O674 2.094 . S
Mn649 O654 2.121 . S
Mn649 N656 2.257 . S
Mn649 N665 2.282 . S
Mn649 O673 2.215 . S
Mn649 O675 2.117 . S
C650 O672 1.234 . S
C650 O673 1.283 . S
C651 O663 1.281 . S
C651 O664 1.236 . S
C652 O674 1.240 . S
C652 O675 1.264 . S
O653 Mn648 2.095 . S
O653 C662 1.250 . S
O654 Mn649 2.121 . S
O654 C662 1.258 . S
C655 N656 1.326 . S
C655 C659 1.460 . S
C655 H661 0.929 . S
N656 Mn649 2.257 . S
N656 C655 1.326 . S
N656 C660 1.362 . S
C657 C658 1.258 . S
C657 C660 1.431 . S
C657 C677 1.449 . S
C658 C657 1.258 . S
C658 C659 1.477 . S
C658 H678 0.931 . S
C659 C655 1.460 . S
C659 C658 1.477 . S
C659 H679 0.930 . S
C660 N656 1.362 . S
C660 C657 1.431 . S
C660 C670 1.476 . S
H661 C655 0.929 . S
C662 O653 1.250 . S
C662 O654 1.258 . S
O663 Mn648 2.162 . S
O663 C651 1.281 . S
O664 Mn648 2.297 . S
O664 C651 1.236 . S
N665 Mn649 2.282 . S
N665 C666 1.328 . S
N665 C670 1.318 . S
C666 N665 1.328 . S
C666 C667 1.457 . S
C666 H671 0.929 . S
C667 C666 1.457 . S
C667 C668 1.291 . S
C667 H680 0.931 . S
C668 C667 1.291 . S
C668 C669 1.373 . S
C668 H681 0.929 . S
C669 C668 1.373 . S
C669 C670 1.396 . S
C669 C676 1.403 . S
C670 C660 1.476 . S
C670 N665 1.318 . S
C670 C669 1.396 . S
H671 C666 0.929 . S
O672 Mn648 2.385 . S
O672 C650 1.234 . S
O673 Mn648 2.209 . S
O673 Mn649 2.215 . S
O673 C650 1.283 . S
O674 Mn648 2.094 . S
O674 C652 1.240 . S
O675 Mn649 2.117 . S
O675 C652 1.264 . S
C676 C669 1.403 . S
C676 C677 1.399 . S
C676 H682 0.929 . S
C677 C657 1.449 . S
C677 C676 1.399 . S
C677 H683 0.930 . S
H678 C658 0.931 . S
H679 C659 0.930 . S
H680 C667 0.931 . S
H681 C668 0.929 . S
H682 C676 0.929 . S
H683 C677 0.930 . S
Mn684 O689 2.095 . S
Mn684 O699 2.162 . S
Mn684 O700 2.297 . S
Mn684 O708 2.385 . S
Mn684 O709 2.209 . S
Mn684 O710 2.094 . S
Mn685 O690 2.121 . S
Mn685 N692 2.257 . S
Mn685 N701 2.282 . S
Mn685 O709 2.215 . S
Mn685 O711 2.117 . S
C686 O708 1.234 . S
C686 O709 1.283 . S
C687 O699 1.281 . S
C687 O700 1.236 . S
C688 O710 1.240 . S
C688 O711 1.264 . S
O689 Mn684 2.095 . S
O689 C698 1.250 . S
O690 Mn685 2.121 . S
O690 C698 1.258 . S
C691 N692 1.326 . S
C691 C695 1.460 . S
C691 H697 0.929 . S
N692 Mn685 2.257 . S
N692 C691 1.326 . S
N692 C696 1.362 . S
C693 C694 1.258 . S
C693 C696 1.431 . S
C693 C713 1.449 . S
C694 C693 1.258 . S
C694 C695 1.477 . S
C694 H714 0.931 . S
C695 C691 1.460 . S
C695 C694 1.477 . S
C695 H715 0.930 . S
C696 N692 1.362 . S
C696 C693 1.431 . S
C696 C706 1.476 . S
H697 C691 0.929 . S
C698 O689 1.250 . S
C698 O690 1.258 . S
O699 Mn684 2.162 . S
O699 C687 1.281 . S
O700 Mn684 2.297 . S
O700 C687 1.236 . S
N701 Mn685 2.282 . S
N701 C702 1.328 . S
N701 C706 1.318 . S
C702 N701 1.328 . S
C702 C703 1.457 . S
C702 H707 0.929 . S
C703 C702 1.457 . S
C703 C704 1.291 . S
C703 H716 0.931 . S
C704 C703 1.291 . S
C704 C705 1.373 . S
C704 H717 0.929 . S
C705 C704 1.373 . S
C705 C706 1.396 . S
C705 C712 1.403 . S
C706 C696 1.476 . S
C706 N701 1.318 . S
C706 C705 1.396 . S
H707 C702 0.929 . S
O708 Mn684 2.385 . S
O708 C686 1.234 . S
O709 Mn684 2.209 . S
O709 Mn685 2.215 . S
O709 C686 1.283 . S
O710 Mn684 2.094 . S
O710 C688 1.240 . S
O711 Mn685 2.117 . S
O711 C688 1.264 . S
C712 C705 1.403 . S
C712 C713 1.399 . S
C712 H718 0.929 . S
C713 C693 1.449 . S
C713 C712 1.399 . S
C713 H719 0.930 . S
H714 C694 0.931 . S
H715 C695 0.930 . S
H716 C703 0.931 . S
H717 C704 0.929 . S
H718 C712 0.929 . S
H719 C713 0.930 . S
Mn720 O725 2.095 . S
Mn720 O735 2.162 . S
Mn720 O736 2.297 . S
Mn720 O744 2.385 . S
Mn720 O745 2.209 . S
Mn720 O746 2.094 . S
Mn721 O726 2.121 . S
Mn721 N728 2.257 . S
Mn721 N737 2.282 . S
Mn721 O745 2.215 . S
Mn721 O747 2.117 . S
C722 O744 1.234 . S
C722 O745 1.283 . S
C723 O735 1.281 . S
C723 O736 1.236 . S
C724 O746 1.240 . S
C724 O747 1.264 . S
O725 Mn720 2.095 . S
O725 C734 1.250 . S
O726 Mn721 2.121 . S
O726 C734 1.258 . S
C727 N728 1.326 . S
C727 C731 1.460 . S
C727 H733 0.929 . S
N728 Mn721 2.257 . S
N728 C727 1.326 . S
N728 C732 1.362 . S
C729 C730 1.258 . S
C729 C732 1.431 . S
C729 C749 1.449 . S
C730 C729 1.258 . S
C730 C731 1.477 . S
C730 H750 0.931 . S
C731 C727 1.460 . S
C731 C730 1.477 . S
C731 H751 0.930 . S
C732 N728 1.362 . S
C732 C729 1.431 . S
C732 C742 1.476 . S
H733 C727 0.929 . S
C734 O725 1.250 . S
C734 O726 1.258 . S
O735 Mn720 2.162 . S
O735 C723 1.281 . S
O736 Mn720 2.297 . S
O736 C723 1.236 . S
N737 Mn721 2.282 . S
N737 C738 1.328 . S
N737 C742 1.318 . S
C738 N737 1.328 . S
C738 C739 1.457 . S
C738 H743 0.929 . S
C739 C738 1.457 . S
C739 C740 1.291 . S
C739 H752 0.931 . S
C740 C739 1.291 . S
C740 C741 1.373 . S
C740 H753 0.929 . S
C741 C740 1.373 . S
C741 C742 1.396 . S
C741 C748 1.403 . S
C742 C732 1.476 . S
C742 N737 1.318 . S
C742 C741 1.396 . S
H743 C738 0.929 . S
O744 Mn720 2.385 . S
O744 C722 1.234 . S
O745 Mn720 2.209 . S
O745 Mn721 2.215 . S
O745 C722 1.283 . S
O746 Mn720 2.094 . S
O746 C724 1.240 . S
O747 Mn721 2.117 . S
O747 C724 1.264 . S
C748 C741 1.403 . S
C748 C749 1.399 . S
C748 H754 0.929 . S
C749 C729 1.449 . S
C749 C748 1.399 . S
C749 H755 0.930 . S
H750 C730 0.931 . S
H751 C731 0.930 . S
H752 C739 0.931 . S
H753 C740 0.929 . S
H754 C748 0.929 . S
H755 C749 0.930 . S
Mn756 O761 2.095 . S
Mn756 O771 2.162 . S
Mn756 O772 2.297 . S
Mn756 O780 2.385 . S
Mn756 O781 2.209 . S
Mn756 O782 2.094 . S
Mn757 O762 2.121 . S
Mn757 N764 2.257 . S
Mn757 N773 2.282 . S
Mn757 O781 2.215 . S
Mn757 O783 2.117 . S
C758 O780 1.234 . S
C758 O781 1.283 . S
C759 O771 1.281 . S
C759 O772 1.236 . S
C760 O782 1.240 . S
C760 O783 1.264 . S
O761 Mn756 2.095 . S
O761 C770 1.250 . S
O762 Mn757 2.121 . S
O762 C770 1.258 . S
C763 N764 1.326 . S
C763 C767 1.460 . S
C763 H769 0.929 . S
N764 Mn757 2.257 . S
N764 C763 1.326 . S
N764 C768 1.362 . S
C765 C766 1.258 . S
C765 C768 1.431 . S
C765 C785 1.449 . S
C766 C765 1.258 . S
C766 C767 1.477 . S
C766 H786 0.931 . S
C767 C763 1.460 . S
C767 C766 1.477 . S
C767 H787 0.930 . S
C768 N764 1.362 . S
C768 C765 1.431 . S
C768 C778 1.476 . S
H769 C763 0.929 . S
C770 O761 1.250 . S
C770 O762 1.258 . S
O771 Mn756 2.162 . S
O771 C759 1.281 . S
O772 Mn756 2.297 . S
O772 C759 1.236 . S
N773 Mn757 2.282 . S
N773 C774 1.328 . S
N773 C778 1.318 . S
C774 N773 1.328 . S
C774 C775 1.457 . S
C774 H779 0.929 . S
C775 C774 1.457 . S
C775 C776 1.291 . S
C775 H788 0.931 . S
C776 C775 1.291 . S
C776 C777 1.373 . S
C776 H789 0.929 . S
C777 C776 1.373 . S
C777 C778 1.396 . S
C777 C784 1.403 . S
C778 C768 1.476 . S
C778 N773 1.318 . S
C778 C777 1.396 . S
H779 C774 0.929 . S
O780 Mn756 2.385 . S
O780 C758 1.234 . S
O781 Mn756 2.209 . S
O781 Mn757 2.215 . S
O781 C758 1.283 . S
O782 Mn756 2.094 . S
O782 C760 1.240 . S
O783 Mn757 2.117 . S
O783 C760 1.264 . S
C784 C777 1.403 . S
C784 C785 1.399 . S
C784 H790 0.929 . S
C785 C765 1.449 . S
C785 C784 1.399 . S
C785 H791 0.930 . S
H786 C766 0.931 . S
H787 C767 0.930 . S
H788 C775 0.931 . S
H789 C776 0.929 . S
H790 C784 0.929 . S
H791 C785 0.930 . S
Mn792 O797 2.095 . S
Mn792 O807 2.162 . S
Mn792 O808 2.297 . S
Mn792 O816 2.385 . S
Mn792 O817 2.209 . S
Mn792 O818 2.094 . S
Mn793 O798 2.121 . S
Mn793 N800 2.257 . S
Mn793 N809 2.282 . S
Mn793 O817 2.215 . S
Mn793 O819 2.117 . S
C794 O816 1.234 . S
C794 O817 1.283 . S
C795 O807 1.281 . S
C795 O808 1.236 . S
C796 O818 1.240 . S
C796 O819 1.264 . S
O797 Mn792 2.095 . S
O797 C806 1.250 . S
O798 Mn793 2.121 . S
O798 C806 1.258 . S
C799 N800 1.326 . S
C799 C803 1.460 . S
C799 H805 0.929 . S
N800 Mn793 2.257 . S
N800 C799 1.326 . S
N800 C804 1.362 . S
C801 C802 1.258 . S
C801 C804 1.431 . S
C801 C821 1.449 . S
C802 C801 1.258 . S
C802 C803 1.477 . S
C802 H822 0.931 . S
C803 C799 1.460 . S
C803 C802 1.477 . S
C803 H823 0.930 . S
C804 N800 1.362 . S
C804 C801 1.431 . S
C804 C814 1.476 . S
H805 C799 0.929 . S
C806 O797 1.250 . S
C806 O798 1.258 . S
O807 Mn792 2.162 . S
O807 C795 1.281 . S
O808 Mn792 2.297 . S
O808 C795 1.236 . S
N809 Mn793 2.282 . S
N809 C810 1.328 . S
N809 C814 1.318 . S
C810 N809 1.328 . S
C810 C811 1.457 . S
C810 H815 0.929 . S
C811 C810 1.457 . S
C811 C812 1.291 . S
C811 H824 0.931 . S
C812 C811 1.291 . S
C812 C813 1.373 . S
C812 H825 0.929 . S
C813 C812 1.373 . S
C813 C814 1.396 . S
C813 C820 1.403 . S
C814 C804 1.476 . S
C814 N809 1.318 . S
C814 C813 1.396 . S
H815 C810 0.929 . S
O816 Mn792 2.385 . S
O816 C794 1.234 . S
O817 Mn792 2.209 . S
O817 Mn793 2.215 . S
O817 C794 1.283 . S
O818 Mn792 2.094 . S
O818 C796 1.240 . S
O819 Mn793 2.117 . S
O819 C796 1.264 . S
C820 C813 1.403 . S
C820 C821 1.399 . S
C820 H826 0.929 . S
C821 C801 1.449 . S
C821 C820 1.399 . S
C821 H827 0.930 . S
H822 C802 0.931 . S
H823 C803 0.930 . S
H824 C811 0.931 . S
H825 C812 0.929 . S
H826 C820 0.929 . S
H827 C821 0.930 . S
Mn828 O833 2.095 . S
Mn828 O843 2.162 . S
Mn828 O844 2.297 . S
Mn828 O852 2.385 . S
Mn828 O853 2.209 . S
Mn828 O854 2.094 . S
Mn829 O834 2.121 . S
Mn829 N836 2.257 . S
Mn829 N845 2.282 . S
Mn829 O853 2.215 . S
Mn829 O855 2.117 . S
C830 O852 1.234 . S
C830 O853 1.283 . S
C831 O843 1.281 . S
C831 O844 1.236 . S
C832 O854 1.240 . S
C832 O855 1.264 . S
O833 Mn828 2.095 . S
O833 C842 1.250 . S
O834 Mn829 2.121 . S
O834 C842 1.258 . S
C835 N836 1.326 . S
C835 C839 1.460 . S
C835 H841 0.929 . S
N836 Mn829 2.257 . S
N836 C835 1.326 . S
N836 C840 1.362 . S
C837 C838 1.258 . S
C837 C840 1.431 . S
C837 C857 1.449 . S
C838 C837 1.258 . S
C838 C839 1.477 . S
C838 H858 0.931 . S
C839 C835 1.460 . S
C839 C838 1.477 . S
C839 H859 0.930 . S
C840 N836 1.362 . S
C840 C837 1.431 . S
C840 C850 1.476 . S
H841 C835 0.929 . S
C842 O833 1.250 . S
C842 O834 1.258 . S
O843 Mn828 2.162 . S
O843 C831 1.281 . S
O844 Mn828 2.297 . S
O844 C831 1.236 . S
N845 Mn829 2.282 . S
N845 C846 1.328 . S
N845 C850 1.318 . S
C846 N845 1.328 . S
C846 C847 1.457 . S
C846 H851 0.929 . S
C847 C846 1.457 . S
C847 C848 1.291 . S
C847 H860 0.931 . S
C848 C847 1.291 . S
C848 C849 1.373 . S
C848 H861 0.929 . S
C849 C848 1.373 . S
C849 C850 1.396 . S
C849 C856 1.403 . S
C850 C840 1.476 . S
C850 N845 1.318 . S
C850 C849 1.396 . S
H851 C846 0.929 . S
O852 Mn828 2.385 . S
O852 C830 1.234 . S
O853 Mn828 2.209 . S
O853 Mn829 2.215 . S
O853 C830 1.283 . S
O854 Mn828 2.094 . S
O854 C832 1.240 . S
O855 Mn829 2.117 . S
O855 C832 1.264 . S
C856 C849 1.403 . S
C856 C857 1.399 . S
C856 H862 0.929 . S
C857 C837 1.449 . S
C857 C856 1.399 . S
C857 H863 0.930 . S
H858 C838 0.931 . S
H859 C839 0.930 . S
H860 C847 0.931 . S
H861 C848 0.929 . S
H862 C856 0.929 . S
H863 C857 0.930 . S
H864 C872 0.950 . S
H865 C877 0.950 . S
H866 C874 0.950 . S
H867 C876 0.950 . S
H868 C878 0.950 . S
H869 C880 0.950 . S
H870 C882 0.950 . S
H871 C883 0.950 . S
C872 H864 0.950 . S
C872 C873 1.386 . S
C872 C874 1.391 . S
C873 C872 1.386 . S
C873 C877 1.393 . S
C874 H866 0.950 . S
C874 C872 1.391 . S
C874 C875 1.400 . S
C875 C874 1.400 . S
C875 C876 1.398 . S
C875 C881 1.491 . S
C876 H867 0.950 . S
C876 C875 1.398 . S
C876 C877 1.391 . S
C877 H865 0.950 . S
C877 C873 1.393 . S
C877 C876 1.391 . S
C878 H868 0.950 . S
C878 C879 1.386 . S
C878 C880 1.391 . S
C879 C878 1.386 . S
C879 C883 1.393 . S
C880 H869 0.950 . S
C880 C878 1.391 . S
C880 C881 1.400 . S
C881 C875 1.491 . S
C881 C880 1.400 . S
C881 C882 1.398 . S
C882 H870 0.950 . S
C882 C881 1.398 . S
C882 C883 1.391 . S
C883 H871 0.950 . S
C883 C879 1.393 . S
C883 C882 1.391 . S
H884 C892 0.950 . S
H885 C897 0.950 . S
H886 C894 0.950 . S
H887 C896 0.950 . S
H888 C898 0.950 . S
H889 C900 0.950 . S
H890 C902 0.950 . S
H891 C903 0.950 . S
C892 H884 0.950 . S
C892 C893 1.386 . S
C892 C894 1.391 . S
C893 C892 1.386 . S
C893 C897 1.393 . S
C894 H886 0.950 . S
C894 C892 1.391 . S
C894 C895 1.400 . S
C895 C894 1.400 . S
C895 C896 1.398 . S
C895 C901 1.491 . S
C896 H887 0.950 . S
C896 C895 1.398 . S
C896 C897 1.391 . S
C897 H885 0.950 . S
C897 C893 1.393 . S
C897 C896 1.391 . S
C898 H888 0.950 . S
C898 C899 1.386 . S
C898 C900 1.391 . S
C899 C898 1.386 . S
C899 C903 1.393 . S
C900 H889 0.950 . S
C900 C898 1.391 . S
C900 C901 1.400 . S
C901 C895 1.491 . S
C901 C900 1.400 . S
C901 C902 1.398 . S
C902 H890 0.950 . S
C902 C901 1.398 . S
C902 C903 1.391 . S
C903 H891 0.950 . S
C903 C899 1.393 . S
C903 C902 1.391 . S
H904 C912 0.950 . S
H905 C917 0.950 . S
H906 C914 0.950 . S
H907 C916 0.950 . S
H908 C918 0.950 . S
H909 C920 0.950 . S
H910 C922 0.950 . S
H911 C923 0.950 . S
C912 H904 0.950 . S
C912 C913 1.386 . S
C912 C914 1.391 . S
C913 C912 1.386 . S
C913 C917 1.393 . S
C914 H906 0.950 . S
C914 C912 1.391 . S
C914 C915 1.400 . S
C915 C914 1.400 . S
C915 C916 1.398 . S
C915 C921 1.491 . S
C916 H907 0.950 . S
C916 C915 1.398 . S
C916 C917 1.391 . S
C917 H905 0.950 . S
C917 C913 1.393 . S
C917 C916 1.391 . S
C918 H908 0.950 . S
C918 C919 1.386 . S
C918 C920 1.391 . S
C919 C918 1.386 . S
C919 C923 1.393 . S
C920 H909 0.950 . S
C920 C918 1.391 . S
C920 C921 1.400 . S
C921 C915 1.491 . S
C921 C920 1.400 . S
C921 C922 1.398 . S
C922 H910 0.950 . S
C922 C921 1.398 . S
C922 C923 1.391 . S
C923 H911 0.950 . S
C923 C919 1.393 . S
C923 C922 1.391 . S
H924 C932 0.950 . S
H925 C937 0.950 . S
H926 C934 0.950 . S
H927 C936 0.950 . S
H928 C938 0.950 . S
H929 C940 0.950 . S
H930 C942 0.950 . S
H931 C943 0.950 . S
C932 H924 0.950 . S
C932 C933 1.386 . S
C932 C934 1.391 . S
C933 C932 1.386 . S
C933 C937 1.393 . S
C934 H926 0.950 . S
C934 C932 1.391 . S
C934 C935 1.400 . S
C935 C934 1.400 . S
C935 C936 1.398 . S
C935 C941 1.491 . S
C936 H927 0.950 . S
C936 C935 1.398 . S
C936 C937 1.391 . S
C937 H925 0.950 . S
C937 C933 1.393 . S
C937 C936 1.391 . S
C938 H928 0.950 . S
C938 C939 1.386 . S
C938 C940 1.391 . S
C939 C938 1.386 . S
C939 C943 1.393 . S
C940 H929 0.950 . S
C940 C938 1.391 . S
C940 C941 1.400 . S
C941 C935 1.491 . S
C941 C940 1.400 . S
C941 C942 1.398 . S
C942 H930 0.950 . S
C942 C941 1.398 . S
C942 C943 1.391 . S
C943 H931 0.950 . S
C943 C939 1.393 . S
C943 C942 1.391 . S
H944 C952 0.950 . S
H945 C957 0.950 . S
H946 C954 0.950 . S
H947 C956 0.950 . S
H948 C958 0.950 . S
H949 C960 0.950 . S
H950 C962 0.950 . S
H951 C963 0.950 . S
C952 H944 0.950 . S
C952 C953 1.386 . S
C952 C954 1.391 . S
C953 C952 1.386 . S
C953 C957 1.393 . S
C954 H946 0.950 . S
C954 C952 1.391 . S
C954 C955 1.400 . S
C955 C954 1.400 . S
C955 C956 1.398 . S
C955 C961 1.491 . S
C956 H947 0.950 . S
C956 C955 1.398 . S
C956 C957 1.391 . S
C957 H945 0.950 . S
C957 C953 1.393 . S
C957 C956 1.391 . S
C958 H948 0.950 . S
C958 C959 1.386 . S
C958 C960 1.391 . S
C959 C958 1.386 . S
C959 C963 1.393 . S
C960 H949 0.950 . S
C960 C958 1.391 . S
C960 C961 1.400 . S
C961 C955 1.491 . S
C961 C960 1.400 . S
C961 C962 1.398 . S
C962 H950 0.950 . S
C962 C961 1.398 . S
C962 C963 1.391 . S
C963 H951 0.950 . S
C963 C959 1.393 . S
C963 C962 1.391 . S
H964 C972 0.950 . S
H965 C977 0.950 . S
H966 C974 0.950 . S
H967 C976 0.950 . S
H968 C978 0.950 . S
H969 C980 0.950 . S
H970 C982 0.950 . S
H971 C983 0.950 . S
C972 H964 0.950 . S
C972 C973 1.386 . S
C972 C974 1.391 . S
C973 C972 1.386 . S
C973 C977 1.393 . S
C974 H966 0.950 . S
C974 C972 1.391 . S
C974 C975 1.400 . S
C975 C974 1.400 . S
C975 C976 1.398 . S
C975 C981 1.491 . S
C976 H967 0.950 . S
C976 C975 1.398 . S
C976 C977 1.391 . S
C977 H965 0.950 . S
C977 C973 1.393 . S
C977 C976 1.391 . S
C978 H968 0.950 . S
C978 C979 1.386 . S
C978 C980 1.391 . S
C979 C978 1.386 . S
C979 C983 1.393 . S
C980 H969 0.950 . S
C980 C978 1.391 . S
C980 C981 1.400 . S
C981 C975 1.491 . S
C981 C980 1.400 . S
C981 C982 1.398 . S
C982 H970 0.950 . S
C982 C981 1.398 . S
C982 C983 1.391 . S
C983 H971 0.950 . S
C983 C979 1.393 . S
C983 C982 1.391 . S
H984 C992 0.950 . S
H985 C997 0.950 . S
H986 C994 0.950 . S
H987 C996 0.950 . S
H988 C998 0.950 . S
H989 C1000 0.950 . S
H990 C1002 0.950 . S
H991 C1003 0.950 . S
C992 H984 0.950 . S
C992 C993 1.386 . S
C992 C994 1.391 . S
C993 C992 1.386 . S
C993 C997 1.393 . S
C994 H986 0.950 . S
C994 C992 1.391 . S
C994 C995 1.400 . S
C995 C994 1.400 . S
C995 C996 1.398 . S
C995 C1001 1.491 . S
C996 H987 0.950 . S
C996 C995 1.398 . S
C996 C997 1.391 . S
C997 H985 0.950 . S
C997 C993 1.393 . S
C997 C996 1.391 . S
C998 H988 0.950 . S
C998 C999 1.386 . S
C998 C1000 1.391 . S
C999 C998 1.386 . S
C999 C1003 1.393 . S
C1000 H989 0.950 . S
C1000 C998 1.391 . S
C1000 C1001 1.400 . S
C1001 C995 1.491 . S
C1001 C1000 1.400 . S
C1001 C1002 1.398 . S
C1002 H990 0.950 . S
C1002 C1001 1.398 . S
C1002 C1003 1.391 . S
C1003 H991 0.950 . S
C1003 C999 1.393 . S
C1003 C1002 1.391 . S
H1004 C1012 0.950 . S
H1005 C1017 0.950 . S
H1006 C1014 0.950 . S
H1007 C1016 0.950 . S
H1008 C1018 0.950 . S
H1009 C1020 0.950 . S
H1010 C1022 0.950 . S
H1011 C1023 0.950 . S
C1012 H1004 0.950 . S
C1012 C1013 1.386 . S
C1012 C1014 1.391 . S
C1013 C1012 1.386 . S
C1013 C1017 1.393 . S
C1014 H1006 0.950 . S
C1014 C1012 1.391 . S
C1014 C1015 1.400 . S
C1015 C1014 1.400 . S
C1015 C1016 1.398 . S
C1015 C1021 1.491 . S
C1016 H1007 0.950 . S
C1016 C1015 1.398 . S
C1016 C1017 1.391 . S
C1017 H1005 0.950 . S
C1017 C1013 1.393 . S
C1017 C1016 1.391 . S
C1018 H1008 0.950 . S
C1018 C1019 1.386 . S
C1018 C1020 1.391 . S
C1019 C1018 1.386 . S
C1019 C1023 1.393 . S
C1020 H1009 0.950 . S
C1020 C1018 1.391 . S
C1020 C1021 1.400 . S
C1021 C1015 1.491 . S
C1021 C1020 1.400 . S
C1021 C1022 1.398 . S
C1022 H1010 0.950 . S
C1022 C1021 1.398 . S
C1022 C1023 1.391 . S
C1023 H1011 0.950 . S
C1023 C1019 1.393 . S
C1023 C1022 1.391 . S
H1024 C1032 0.950 . S
H1025 C1037 0.950 . S
H1026 C1034 0.950 . S
H1027 C1036 0.950 . S
H1028 C1038 0.950 . S
H1029 C1040 0.950 . S
H1030 C1042 0.950 . S
H1031 C1043 0.950 . S
C1032 H1024 0.950 . S
C1032 C1033 1.386 . S
C1032 C1034 1.391 . S
C1033 C1032 1.386 . S
C1033 C1037 1.393 . S
C1034 H1026 0.950 . S
C1034 C1032 1.391 . S
C1034 C1035 1.400 . S
C1035 C1034 1.400 . S
C1035 C1036 1.398 . S
C1035 C1041 1.491 . S
C1036 H1027 0.950 . S
C1036 C1035 1.398 . S
C1036 C1037 1.391 . S
C1037 H1025 0.950 . S
C1037 C1033 1.393 . S
C1037 C1036 1.391 . S
C1038 H1028 0.950 . S
C1038 C1039 1.386 . S
C1038 C1040 1.391 . S
C1039 C1038 1.386 . S
C1039 C1043 1.393 . S
C1040 H1029 0.950 . S
C1040 C1038 1.391 . S
C1040 C1041 1.400 . S
C1041 C1035 1.491 . S
C1041 C1040 1.400 . S
C1041 C1042 1.398 . S
C1042 H1030 0.950 . S
C1042 C1041 1.398 . S
C1042 C1043 1.391 . S
C1043 H1031 0.950 . S
C1043 C1039 1.393 . S
C1043 C1042 1.391 . S
H1044 C1052 0.950 . S
H1045 C1057 0.950 . S
H1046 C1054 0.950 . S
H1047 C1056 0.950 . S
H1048 C1058 0.950 . S
H1049 C1060 0.950 . S
H1050 C1062 0.950 . S
H1051 C1063 0.950 . S
C1052 H1044 0.950 . S
C1052 C1053 1.386 . S
C1052 C1054 1.391 . S
C1053 C1052 1.386 . S
C1053 C1057 1.393 . S
C1054 H1046 0.950 . S
C1054 C1052 1.391 . S
C1054 C1055 1.400 . S
C1055 C1054 1.400 . S
C1055 C1056 1.398 . S
C1055 C1061 1.491 . S
C1056 H1047 0.950 . S
C1056 C1055 1.398 . S
C1056 C1057 1.391 . S
C1057 H1045 0.950 . S
C1057 C1053 1.393 . S
C1057 C1056 1.391 . S
C1058 H1048 0.950 . S
C1058 C1059 1.386 . S
C1058 C1060 1.391 . S
C1059 C1058 1.386 . S
C1059 C1063 1.393 . S
C1060 H1049 0.950 . S
C1060 C1058 1.391 . S
C1060 C1061 1.400 . S
C1061 C1055 1.491 . S
C1061 C1060 1.400 . S
C1061 C1062 1.398 . S
C1062 H1050 0.950 . S
C1062 C1061 1.398 . S
C1062 C1063 1.391 . S
C1063 H1051 0.950 . S
C1063 C1059 1.393 . S
C1063 C1062 1.391 . S
H1064 C1072 0.950 . S
H1065 C1077 0.950 . S
H1066 C1074 0.950 . S
H1067 C1076 0.950 . S
H1068 C1078 0.950 . S
H1069 C1080 0.950 . S
H1070 C1082 0.950 . S
H1071 C1083 0.950 . S
C1072 H1064 0.950 . S
C1072 C1073 1.386 . S
C1072 C1074 1.391 . S
C1073 C1072 1.386 . S
C1073 C1077 1.393 . S
C1074 H1066 0.950 . S
C1074 C1072 1.391 . S
C1074 C1075 1.400 . S
C1075 C1074 1.400 . S
C1075 C1076 1.398 . S
C1075 C1081 1.491 . S
C1076 H1067 0.950 . S
C1076 C1075 1.398 . S
C1076 C1077 1.391 . S
C1077 H1065 0.950 . S
C1077 C1073 1.393 . S
C1077 C1076 1.391 . S
C1078 H1068 0.950 . S
C1078 C1079 1.386 . S
C1078 C1080 1.391 . S
C1079 C1078 1.386 . S
C1079 C1083 1.393 . S
C1080 H1069 0.950 . S
C1080 C1078 1.391 . S
C1080 C1081 1.400 . S
C1081 C1075 1.491 . S
C1081 C1080 1.400 . S
C1081 C1082 1.398 . S
C1082 H1070 0.950 . S
C1082 C1081 1.398 . S
C1082 C1083 1.391 . S
C1083 H1071 0.950 . S
C1083 C1079 1.393 . S
C1083 C1082 1.391 . S
H1084 C1092 0.950 . S
H1085 C1097 0.950 . S
H1086 C1094 0.950 . S
H1087 C1096 0.950 . S
H1088 C1098 0.950 . S
H1089 C1100 0.950 . S
H1090 C1102 0.950 . S
H1091 C1103 0.950 . S
C1092 H1084 0.950 . S
C1092 C1093 1.386 . S
C1092 C1094 1.391 . S
C1093 C1092 1.386 . S
C1093 C1097 1.393 . S
C1094 H1086 0.950 . S
C1094 C1092 1.391 . S
C1094 C1095 1.400 . S
C1095 C1094 1.400 . S
C1095 C1096 1.398 . S
C1095 C1101 1.491 . S
C1096 H1087 0.950 . S
C1096 C1095 1.398 . S
C1096 C1097 1.391 . S
C1097 H1085 0.950 . S
C1097 C1093 1.393 . S
C1097 C1096 1.391 . S
C1098 H1088 0.950 . S
C1098 C1099 1.386 . S
C1098 C1100 1.391 . S
C1099 C1098 1.386 . S
C1099 C1103 1.393 . S
C1100 H1089 0.950 . S
C1100 C1098 1.391 . S
C1100 C1101 1.400 . S
C1101 C1095 1.491 . S
C1101 C1100 1.400 . S
C1101 C1102 1.398 . S
C1102 H1090 0.950 . S
C1102 C1101 1.398 . S
C1102 C1103 1.391 . S
C1103 H1091 0.950 . S
C1103 C1099 1.393 . S
C1103 C1102 1.391 . S
H1104 C1112 0.950 . S
H1105 C1117 0.950 . S
H1106 C1114 0.950 . S
H1107 C1116 0.950 . S
H1108 C1118 0.950 . S
H1109 C1120 0.950 . S
H1110 C1122 0.950 . S
H1111 C1123 0.950 . S
C1112 H1104 0.950 . S
C1112 C1113 1.386 . S
C1112 C1114 1.391 . S
C1113 C1112 1.386 . S
C1113 C1117 1.393 . S
C1114 H1106 0.950 . S
C1114 C1112 1.391 . S
C1114 C1115 1.400 . S
C1115 C1114 1.400 . S
C1115 C1116 1.398 . S
C1115 C1121 1.491 . S
C1116 H1107 0.950 . S
C1116 C1115 1.398 . S
C1116 C1117 1.391 . S
C1117 H1105 0.950 . S
C1117 C1113 1.393 . S
C1117 C1116 1.391 . S
C1118 H1108 0.950 . S
C1118 C1119 1.386 . S
C1118 C1120 1.391 . S
C1119 C1118 1.386 . S
C1119 C1123 1.393 . S
C1120 H1109 0.950 . S
C1120 C1118 1.391 . S
C1120 C1121 1.400 . S
C1121 C1115 1.491 . S
C1121 C1120 1.400 . S
C1121 C1122 1.398 . S
C1122 H1110 0.950 . S
C1122 C1121 1.398 . S
C1122 C1123 1.391 . S
C1123 H1111 0.950 . S
C1123 C1119 1.393 . S
C1123 C1122 1.391 . S
H1124 C1132 0.950 . S
H1125 C1137 0.950 . S
H1126 C1134 0.950 . S
H1127 C1136 0.950 . S
H1128 C1138 0.950 . S
H1129 C1140 0.950 . S
H1130 C1142 0.950 . S
H1131 C1143 0.950 . S
C1132 H1124 0.950 . S
C1132 C1133 1.386 . S
C1132 C1134 1.391 . S
C1133 C1132 1.386 . S
C1133 C1137 1.393 . S
C1134 H1126 0.950 . S
C1134 C1132 1.391 . S
C1134 C1135 1.400 . S
C1135 C1134 1.400 . S
C1135 C1136 1.398 . S
C1135 C1141 1.491 . S
C1136 H1127 0.950 . S
C1136 C1135 1.398 . S
C1136 C1137 1.391 . S
C1137 H1125 0.950 . S
C1137 C1133 1.393 . S
C1137 C1136 1.391 . S
C1138 H1128 0.950 . S
C1138 C1139 1.386 . S
C1138 C1140 1.391 . S
C1139 C1138 1.386 . S
C1139 C1143 1.393 . S
C1140 H1129 0.950 . S
C1140 C1138 1.391 . S
C1140 C1141 1.400 . S
C1141 C1135 1.491 . S
C1141 C1140 1.400 . S
C1141 C1142 1.398 . S
C1142 H1130 0.950 . S
C1142 C1141 1.398 . S
C1142 C1143 1.391 . S
C1143 H1131 0.950 . S
C1143 C1139 1.393 . S
C1143 C1142 1.391 . S
H1144 C1152 0.950 . S
H1145 C1157 0.950 . S
H1146 C1154 0.950 . S
H1147 C1156 0.950 . S
H1148 C1158 0.950 . S
H1149 C1160 0.950 . S
H1150 C1162 0.950 . S
H1151 C1163 0.950 . S
C1152 H1144 0.950 . S
C1152 C1153 1.386 . S
C1152 C1154 1.391 . S
C1153 C1152 1.386 . S
C1153 C1157 1.393 . S
C1154 H1146 0.950 . S
C1154 C1152 1.391 . S
C1154 C1155 1.400 . S
C1155 C1154 1.400 . S
C1155 C1156 1.398 . S
C1155 C1161 1.491 . S
C1156 H1147 0.950 . S
C1156 C1155 1.398 . S
C1156 C1157 1.391 . S
C1157 H1145 0.950 . S
C1157 C1153 1.393 . S
C1157 C1156 1.391 . S
C1158 H1148 0.950 . S
C1158 C1159 1.386 . S
C1158 C1160 1.391 . S
C1159 C1158 1.386 . S
C1159 C1163 1.393 . S
C1160 H1149 0.950 . S
C1160 C1158 1.391 . S
C1160 C1161 1.400 . S
C1161 C1155 1.491 . S
C1161 C1160 1.400 . S
C1161 C1162 1.398 . S
C1162 H1150 0.950 . S
C1162 C1161 1.398 . S
C1162 C1163 1.391 . S
C1163 H1151 0.950 . S
C1163 C1159 1.393 . S
C1163 C1162 1.391 . S
H1164 C1172 0.950 . S
H1165 C1177 0.950 . S
H1166 C1174 0.950 . S
H1167 C1176 0.950 . S
H1168 C1178 0.950 . S
H1169 C1180 0.950 . S
H1170 C1182 0.950 . S
H1171 C1183 0.950 . S
C1172 H1164 0.950 . S
C1172 C1173 1.386 . S
C1172 C1174 1.391 . S
C1173 C1172 1.386 . S
C1173 C1177 1.393 . S
C1174 H1166 0.950 . S
C1174 C1172 1.391 . S
C1174 C1175 1.400 . S
C1175 C1174 1.400 . S
C1175 C1176 1.398 . S
C1175 C1181 1.491 . S
C1176 H1167 0.950 . S
C1176 C1175 1.398 . S
C1176 C1177 1.391 . S
C1177 H1165 0.950 . S
C1177 C1173 1.393 . S
C1177 C1176 1.391 . S
C1178 H1168 0.950 . S
C1178 C1179 1.386 . S
C1178 C1180 1.391 . S
C1179 C1178 1.386 . S
C1179 C1183 1.393 . S
C1180 H1169 0.950 . S
C1180 C1178 1.391 . S
C1180 C1181 1.400 . S
C1181 C1175 1.491 . S
C1181 C1180 1.400 . S
C1181 C1182 1.398 . S
C1182 H1170 0.950 . S
C1182 C1181 1.398 . S
C1182 C1183 1.391 . S
C1183 H1171 0.950 . S
C1183 C1179 1.393 . S
C1183 C1182 1.391 . S
H1184 C1192 0.950 . S
H1185 C1197 0.950 . S
H1186 C1194 0.950 . S
H1187 C1196 0.950 . S
H1188 C1198 0.950 . S
H1189 C1200 0.950 . S
H1190 C1202 0.950 . S
H1191 C1203 0.950 . S
C1192 H1184 0.950 . S
C1192 C1193 1.386 . S
C1192 C1194 1.391 . S
C1193 C1192 1.386 . S
C1193 C1197 1.393 . S
C1194 H1186 0.950 . S
C1194 C1192 1.391 . S
C1194 C1195 1.400 . S
C1195 C1194 1.400 . S
C1195 C1196 1.398 . S
C1195 C1201 1.491 . S
C1196 H1187 0.950 . S
C1196 C1195 1.398 . S
C1196 C1197 1.391 . S
C1197 H1185 0.950 . S
C1197 C1193 1.393 . S
C1197 C1196 1.391 . S
C1198 H1188 0.950 . S
C1198 C1199 1.386 . S
C1198 C1200 1.391 . S
C1199 C1198 1.386 . S
C1199 C1203 1.393 . S
C1200 H1189 0.950 . S
C1200 C1198 1.391 . S
C1200 C1201 1.400 . S
C1201 C1195 1.491 . S
C1201 C1200 1.400 . S
C1201 C1202 1.398 . S
C1202 H1190 0.950 . S
C1202 C1201 1.398 . S
C1202 C1203 1.391 . S
C1203 H1191 0.950 . S
C1203 C1199 1.393 . S
C1203 C1202 1.391 . S
H1204 C1212 0.950 . S
H1205 C1217 0.950 . S
H1206 C1214 0.950 . S
H1207 C1216 0.950 . S
H1208 C1218 0.950 . S
H1209 C1220 0.950 . S
H1210 C1222 0.950 . S
H1211 C1223 0.950 . S
C1212 H1204 0.950 . S
C1212 C1213 1.386 . S
C1212 C1214 1.391 . S
C1213 C1212 1.386 . S
C1213 C1217 1.393 . S
C1214 H1206 0.950 . S
C1214 C1212 1.391 . S
C1214 C1215 1.400 . S
C1215 C1214 1.400 . S
C1215 C1216 1.398 . S
C1215 C1221 1.491 . S
C1216 H1207 0.950 . S
C1216 C1215 1.398 . S
C1216 C1217 1.391 . S
C1217 H1205 0.950 . S
C1217 C1213 1.393 . S
C1217 C1216 1.391 . S
C1218 H1208 0.950 . S
C1218 C1219 1.386 . S
C1218 C1220 1.391 . S
C1219 C1218 1.386 . S
C1219 C1223 1.393 . S
C1220 H1209 0.950 . S
C1220 C1218 1.391 . S
C1220 C1221 1.400 . S
C1221 C1215 1.491 . S
C1221 C1220 1.400 . S
C1221 C1222 1.398 . S
C1222 H1210 0.950 . S
C1222 C1221 1.398 . S
C1222 C1223 1.391 . S
C1223 H1211 0.950 . S
C1223 C1219 1.393 . S
C1223 C1222 1.391 . S
H1224 C1232 0.950 . S
H1225 C1237 0.950 . S
H1226 C1234 0.950 . S
H1227 C1236 0.950 . S
H1228 C1238 0.950 . S
H1229 C1240 0.950 . S
H1230 C1242 0.950 . S
H1231 C1243 0.950 . S
C1232 H1224 0.950 . S
C1232 C1233 1.386 . S
C1232 C1234 1.391 . S
C1233 C1232 1.386 . S
C1233 C1237 1.393 . S
C1234 H1226 0.950 . S
C1234 C1232 1.391 . S
C1234 C1235 1.400 . S
C1235 C1234 1.400 . S
C1235 C1236 1.398 . S
C1235 C1241 1.491 . S
C1236 H1227 0.950 . S
C1236 C1235 1.398 . S
C1236 C1237 1.391 . S
C1237 H1225 0.950 . S
C1237 C1233 1.393 . S
C1237 C1236 1.391 . S
C1238 H1228 0.950 . S
C1238 C1239 1.386 . S
C1238 C1240 1.391 . S
C1239 C1238 1.386 . S
C1239 C1243 1.393 . S
C1240 H1229 0.950 . S
C1240 C1238 1.391 . S
C1240 C1241 1.400 . S
C1241 C1235 1.491 . S
C1241 C1240 1.400 . S
C1241 C1242 1.398 . S
C1242 H1230 0.950 . S
C1242 C1241 1.398 . S
C1242 C1243 1.391 . S
C1243 H1231 0.950 . S
C1243 C1239 1.393 . S
C1243 C1242 1.391 . S
H1244 C1252 0.950 . S
H1245 C1257 0.950 . S
H1246 C1254 0.950 . S
H1247 C1256 0.950 . S
H1248 C1258 0.950 . S
H1249 C1260 0.950 . S
H1250 C1262 0.950 . S
H1251 C1263 0.950 . S
C1252 H1244 0.950 . S
C1252 C1253 1.386 . S
C1252 C1254 1.391 . S
C1253 C1252 1.386 . S
C1253 C1257 1.393 . S
C1254 H1246 0.950 . S
C1254 C1252 1.391 . S
C1254 C1255 1.400 . S
C1255 C1254 1.400 . S
C1255 C1256 1.398 . S
C1255 C1261 1.491 . S
C1256 H1247 0.950 . S
C1256 C1255 1.398 . S
C1256 C1257 1.391 . S
C1257 H1245 0.950 . S
C1257 C1253 1.393 . S
C1257 C1256 1.391 . S
C1258 H1248 0.950 . S
C1258 C1259 1.386 . S
C1258 C1260 1.391 . S
C1259 C1258 1.386 . S
C1259 C1263 1.393 . S
C1260 H1249 0.950 . S
C1260 C1258 1.391 . S
C1260 C1261 1.400 . S
C1261 C1255 1.491 . S
C1261 C1260 1.400 . S
C1261 C1262 1.398 . S
C1262 H1250 0.950 . S
C1262 C1261 1.398 . S
C1262 C1263 1.391 . S
C1263 H1251 0.950 . S
C1263 C1259 1.393 . S
C1263 C1262 1.391 . S
H1264 C1272 0.950 . S
H1265 C1277 0.950 . S
H1266 C1274 0.950 . S
H1267 C1276 0.950 . S
H1268 C1278 0.950 . S
H1269 C1280 0.950 . S
H1270 C1282 0.950 . S
H1271 C1283 0.950 . S
C1272 H1264 0.950 . S
C1272 C1273 1.386 . S
C1272 C1274 1.391 . S
C1273 C1272 1.386 . S
C1273 C1277 1.393 . S
C1274 H1266 0.950 . S
C1274 C1272 1.391 . S
C1274 C1275 1.400 . S
C1275 C1274 1.400 . S
C1275 C1276 1.398 . S
C1275 C1281 1.491 . S
C1276 H1267 0.950 . S
C1276 C1275 1.398 . S
C1276 C1277 1.391 . S
C1277 H1265 0.950 . S
C1277 C1273 1.393 . S
C1277 C1276 1.391 . S
C1278 H1268 0.950 . S
C1278 C1279 1.386 . S
C1278 C1280 1.391 . S
C1279 C1278 1.386 . S
C1279 C1283 1.393 . S
C1280 H1269 0.950 . S
C1280 C1278 1.391 . S
C1280 C1281 1.400 . S
C1281 C1275 1.491 . S
C1281 C1280 1.400 . S
C1281 C1282 1.398 . S
C1282 H1270 0.950 . S
C1282 C1281 1.398 . S
C1282 C1283 1.391 . S
C1283 H1271 0.950 . S
C1283 C1279 1.393 . S
C1283 C1282 1.391 . S
H1284 C1292 0.950 . S
H1285 C1297 0.950 . S
H1286 C1294 0.950 . S
H1287 C1296 0.950 . S
H1288 C1298 0.950 . S
H1289 C1300 0.950 . S
H1290 C1302 0.950 . S
H1291 C1303 0.950 . S
C1292 H1284 0.950 . S
C1292 C1293 1.386 . S
C1292 C1294 1.391 . S
C1293 C1292 1.386 . S
C1293 C1297 1.393 . S
C1294 H1286 0.950 . S
C1294 C1292 1.391 . S
C1294 C1295 1.400 . S
C1295 C1294 1.400 . S
C1295 C1296 1.398 . S
C1295 C1301 1.491 . S
C1296 H1287 0.950 . S
C1296 C1295 1.398 . S
C1296 C1297 1.391 . S
C1297 H1285 0.950 . S
C1297 C1293 1.393 . S
C1297 C1296 1.391 . S
C1298 H1288 0.950 . S
C1298 C1299 1.386 . S
C1298 C1300 1.391 . S
C1299 C1298 1.386 . S
C1299 C1303 1.393 . S
C1300 H1289 0.950 . S
C1300 C1298 1.391 . S
C1300 C1301 1.400 . S
C1301 C1295 1.491 . S
C1301 C1300 1.400 . S
C1301 C1302 1.398 . S
C1302 H1290 0.950 . S
C1302 C1301 1.398 . S
C1302 C1303 1.391 . S
C1303 H1291 0.950 . S
C1303 C1299 1.393 . S
C1303 C1302 1.391 . S
H1304 C1312 0.950 . S
H1305 C1317 0.950 . S
H1306 C1314 0.950 . S
H1307 C1316 0.950 . S
H1308 C1318 0.950 . S
H1309 C1320 0.950 . S
H1310 C1322 0.950 . S
H1311 C1323 0.950 . S
C1312 H1304 0.950 . S
C1312 C1313 1.386 . S
C1312 C1314 1.391 . S
C1313 C1312 1.386 . S
C1313 C1317 1.393 . S
C1314 H1306 0.950 . S
C1314 C1312 1.391 . S
C1314 C1315 1.400 . S
C1315 C1314 1.400 . S
C1315 C1316 1.398 . S
C1315 C1321 1.491 . S
C1316 H1307 0.950 . S
C1316 C1315 1.398 . S
C1316 C1317 1.391 . S
C1317 H1305 0.950 . S
C1317 C1313 1.393 . S
C1317 C1316 1.391 . S
C1318 H1308 0.950 . S
C1318 C1319 1.386 . S
C1318 C1320 1.391 . S
C1319 C1318 1.386 . S
C1319 C1323 1.393 . S
C1320 H1309 0.950 . S
C1320 C1318 1.391 . S
C1320 C1321 1.400 . S
C1321 C1315 1.491 . S
C1321 C1320 1.400 . S
C1321 C1322 1.398 . S
C1322 H1310 0.950 . S
C1322 C1321 1.398 . S
C1322 C1323 1.391 . S
C1323 H1311 0.950 . S
C1323 C1319 1.393 . S
C1323 C1322 1.391 . S
H1324 C1332 0.950 . S
H1325 C1337 0.950 . S
H1326 C1334 0.950 . S
H1327 C1336 0.950 . S
H1328 C1338 0.950 . S
H1329 C1340 0.950 . S
H1330 C1342 0.950 . S
H1331 C1343 0.950 . S
C1332 H1324 0.950 . S
C1332 C1333 1.386 . S
C1332 C1334 1.391 . S
C1333 C1332 1.386 . S
C1333 C1337 1.393 . S
C1334 H1326 0.950 . S
C1334 C1332 1.391 . S
C1334 C1335 1.400 . S
C1335 C1334 1.400 . S
C1335 C1336 1.398 . S
C1335 C1341 1.491 . S
C1336 H1327 0.950 . S
C1336 C1335 1.398 . S
C1336 C1337 1.391 . S
C1337 H1325 0.950 . S
C1337 C1333 1.393 . S
C1337 C1336 1.391 . S
C1338 H1328 0.950 . S
C1338 C1339 1.386 . S
C1338 C1340 1.391 . S
C1339 C1338 1.386 . S
C1339 C1343 1.393 . S
C1340 H1329 0.950 . S
C1340 C1338 1.391 . S
C1340 C1341 1.400 . S
C1341 C1335 1.491 . S
C1341 C1340 1.400 . S
C1341 C1342 1.398 . S
C1342 H1330 0.950 . S
C1342 C1341 1.398 . S
C1342 C1343 1.391 . S
C1343 H1331 0.950 . S
C1343 C1339 1.393 . S
C1343 C1342 1.391 . S
H1344 C1352 0.950 . S
H1345 C1357 0.950 . S
H1346 C1354 0.950 . S
H1347 C1356 0.950 . S
H1348 C1358 0.950 . S
H1349 C1360 0.950 . S
H1350 C1362 0.950 . S
H1351 C1363 0.950 . S
C1352 H1344 0.950 . S
C1352 C1353 1.386 . S
C1352 C1354 1.391 . S
C1353 C1352 1.386 . S
C1353 C1357 1.393 . S
C1354 H1346 0.950 . S
C1354 C1352 1.391 . S
C1354 C1355 1.400 . S
C1355 C1354 1.400 . S
C1355 C1356 1.398 1_565 S
C1355 C1361 1.491 1_566 S
C1356 H1347 0.950 . S
C1356 C1355 1.398 1_545 S
C1356 C1357 1.391 1_545 S
C1357 H1345 0.950 . S
C1357 C1353 1.393 . S
C1357 C1356 1.391 1_565 S
C1358 H1348 0.950 . S
C1358 C1359 1.386 . S
C1358 C1360 1.391 . S
C1359 C1358 1.386 . S
C1359 C1363 1.393 . S
C1360 H1349 0.950 . S
C1360 C1358 1.391 . S
C1360 C1361 1.400 . S
C1361 C1355 1.491 1_544 S
C1361 C1360 1.400 . S
C1361 C1362 1.398 1_545 S
C1362 H1350 0.950 . S
C1362 C1361 1.398 1_565 S
C1362 C1363 1.391 1_565 S
C1363 H1351 0.950 . S
C1363 C1359 1.393 . S
C1363 C1362 1.391 1_545 S
H1364 C1372 0.950 . S
H1365 C1377 0.950 . S
H1366 C1374 0.950 . S
H1367 C1376 0.950 . S
H1368 C1378 0.950 . S
H1369 C1380 0.950 . S
H1370 C1382 0.950 . S
H1371 C1383 0.950 . S
C1372 H1364 0.950 . S
C1372 C1373 1.386 . S
C1372 C1374 1.391 . S
C1373 C1372 1.386 . S
C1373 C1377 1.393 . S
C1374 H1366 0.950 . S
C1374 C1372 1.391 . S
C1374 C1375 1.400 . S
C1375 C1374 1.400 . S
C1375 C1376 1.398 . S
C1375 C1381 1.491 . S
C1376 H1367 0.950 . S
C1376 C1375 1.398 . S
C1376 C1377 1.391 . S
C1377 H1365 0.950 . S
C1377 C1373 1.393 . S
C1377 C1376 1.391 . S
C1378 H1368 0.950 . S
C1378 C1379 1.386 . S
C1378 C1380 1.391 . S
C1379 C1378 1.386 . S
C1379 C1383 1.393 . S
C1380 H1369 0.950 . S
C1380 C1378 1.391 . S
C1380 C1381 1.400 . S
C1381 C1375 1.491 . S
C1381 C1380 1.400 . S
C1381 C1382 1.398 . S
C1382 H1370 0.950 . S
C1382 C1381 1.398 . S
C1382 C1383 1.391 . S
C1383 H1371 0.950 . S
C1383 C1379 1.393 . S
C1383 C1382 1.391 . S
H1384 C1392 0.950 . S
H1385 C1397 0.950 . S
H1386 C1394 0.950 . S
H1387 C1396 0.950 . S
H1388 C1398 0.950 . S
H1389 C1400 0.950 . S
H1390 C1402 0.950 . S
H1391 C1403 0.950 . S
C1392 H1384 0.950 . S
C1392 C1393 1.386 . S
C1392 C1394 1.391 . S
C1393 C1392 1.386 . S
C1393 C1397 1.393 1_455 S
C1394 H1386 0.950 . S
C1394 C1392 1.391 . S
C1394 C1395 1.400 . S
C1395 C1394 1.400 . S
C1395 C1396 1.398 1_455 S
C1395 C1401 1.491 1_456 S
C1396 H1387 0.950 . S
C1396 C1395 1.398 1_655 S
C1396 C1397 1.391 . S
C1397 H1385 0.950 . S
C1397 C1393 1.393 1_655 S
C1397 C1396 1.391 . S
C1398 H1388 0.950 . S
C1398 C1399 1.386 . S
C1398 C1400 1.391 . S
C1399 C1398 1.386 . S
C1399 C1403 1.393 1_655 S
C1400 H1389 0.950 . S
C1400 C1398 1.391 . S
C1400 C1401 1.400 . S
C1401 C1395 1.491 1_654 S
C1401 C1400 1.400 . S
C1401 C1402 1.398 1_655 S
C1402 H1390 0.950 . S
C1402 C1401 1.398 1_455 S
C1402 C1403 1.391 . S
C1403 H1391 0.950 . S
C1403 C1399 1.393 1_455 S
C1403 C1402 1.391 . S
H1404 C1412 0.950 . S
H1405 C1417 0.950 . S
H1406 C1414 0.950 . S
H1407 C1416 0.950 . S
H1408 C1418 0.950 . S
H1409 C1420 0.950 . S
H1410 C1422 0.950 . S
H1411 C1423 0.950 . S
C1412 H1404 0.950 . S
C1412 C1413 1.386 . S
C1412 C1414 1.391 . S
C1413 C1412 1.386 . S
C1413 C1417 1.393 . S
C1414 H1406 0.950 . S
C1414 C1412 1.391 . S
C1414 C1415 1.400 . S
C1415 C1414 1.400 . S
C1415 C1416 1.398 . S
C1415 C1421 1.491 1_545 S
C1416 H1407 0.950 . S
C1416 C1415 1.398 . S
C1416 C1417 1.391 . S
C1417 H1405 0.950 . S
C1417 C1413 1.393 . S
C1417 C1416 1.391 . S
C1418 H1408 0.950 . S
C1418 C1419 1.386 . S
C1418 C1420 1.391 . S
C1419 C1418 1.386 . S
C1419 C1423 1.393 . S
C1420 H1409 0.950 . S
C1420 C1418 1.391 . S
C1420 C1421 1.400 . S
C1421 C1415 1.491 1_565 S
C1421 C1420 1.400 . S
C1421 C1422 1.398 . S
C1422 H1410 0.950 . S
C1422 C1421 1.398 . S
C1422 C1423 1.391 . S
C1423 H1411 0.950 . S
C1423 C1419 1.393 . S
C1423 C1422 1.391 . S
H1424 C1432 0.950 . S
H1425 C1437 0.950 . S
H1426 C1434 0.950 . S
H1427 C1436 0.950 . S
H1428 C1438 0.950 . S
H1429 C1440 0.950 . S
H1430 C1442 0.950 . S
H1431 C1443 0.950 . S
C1432 H1424 0.950 . S
C1432 C1433 1.386 . S
C1432 C1434 1.391 . S
C1433 C1432 1.386 . S
C1433 C1437 1.393 . S
C1434 H1426 0.950 . S
C1434 C1432 1.391 . S
C1434 C1435 1.400 . S
C1435 C1434 1.400 . S
C1435 C1436 1.398 . S
C1435 C1441 1.491 1_554 S
C1436 H1427 0.950 . S
C1436 C1435 1.398 . S
C1436 C1437 1.391 . S
C1437 H1425 0.950 . S
C1437 C1433 1.393 . S
C1437 C1436 1.391 . S
C1438 H1428 0.950 . S
C1438 C1439 1.386 . S
C1438 C1440 1.391 . S
C1439 C1438 1.386 . S
C1439 C1443 1.393 . S
C1440 H1429 0.950 . S
C1440 C1438 1.391 . S
C1440 C1441 1.400 . S
C1441 C1435 1.491 1_556 S
C1441 C1440 1.400 . S
C1441 C1442 1.398 . S
C1442 H1430 0.950 . S
C1442 C1441 1.398 . S
C1442 C1443 1.391 . S
C1443 H1431 0.950 . S
C1443 C1439 1.393 . S
C1443 C1442 1.391 . S
H1444 C1452 0.950 . S
H1445 C1457 0.950 . S
H1446 C1454 0.950 . S
H1447 C1456 0.950 . S
H1448 C1458 0.950 . S
H1449 C1460 0.950 . S
H1450 C1462 0.950 . S
H1451 C1463 0.950 . S
C1452 H1444 0.950 . S
C1452 C1453 1.386 . S
C1452 C1454 1.391 . S
C1453 C1452 1.386 . S
C1453 C1457 1.393 1_455 S
C1454 H1446 0.950 . S
C1454 C1452 1.391 . S
C1454 C1455 1.400 . S
C1455 C1454 1.400 . S
C1455 C1456 1.398 1_455 S
C1455 C1461 1.491 1_455 S
C1456 H1447 0.950 . S
C1456 C1455 1.398 1_655 S
C1456 C1457 1.391 . S
C1457 H1445 0.950 . S
C1457 C1453 1.393 1_655 S
C1457 C1456 1.391 . S
C1458 H1448 0.950 . S
C1458 C1459 1.386 . S
C1458 C1460 1.391 . S
C1459 C1458 1.386 . S
C1459 C1463 1.393 1_655 S
C1460 H1449 0.950 . S
C1460 C1458 1.391 . S
C1460 C1461 1.400 . S
C1461 C1455 1.491 1_655 S
C1461 C1460 1.400 . S
C1461 C1462 1.398 1_655 S
C1462 H1450 0.950 . S
C1462 C1461 1.398 1_455 S
C1462 C1463 1.391 . S
C1463 H1451 0.950 . S
C1463 C1459 1.393 1_455 S
C1463 C1462 1.391 . S
H1464 C1472 0.950 . S
H1465 C1477 0.950 . S
H1466 C1474 0.950 . S
H1467 C1476 0.950 . S
H1468 C1478 0.950 . S
H1469 C1480 0.950 . S
H1470 C1482 0.950 . S
H1471 C1483 0.950 . S
C1472 H1464 0.950 . S
C1472 C1473 1.386 1_545 S
C1472 C1474 1.391 . S
C1473 C1472 1.386 1_565 S
C1473 C1477 1.393 . S
C1474 H1466 0.950 . S
C1474 C1472 1.391 . S
C1474 C1475 1.400 1_545 S
C1475 C1474 1.400 1_565 S
C1475 C1476 1.398 . S
C1475 C1481 1.491 1_566 S
C1476 H1467 0.950 . S
C1476 C1475 1.398 . S
C1476 C1477 1.391 . S
C1477 H1465 0.950 . S
C1477 C1473 1.393 . S
C1477 C1476 1.391 . S
C1478 H1468 0.950 . S
C1478 C1479 1.386 1_565 S
C1478 C1480 1.391 . S
C1479 C1478 1.386 1_545 S
C1479 C1483 1.393 . S
C1480 H1469 0.950 . S
C1480 C1478 1.391 . S
C1480 C1481 1.400 1_565 S
C1481 C1475 1.491 1_544 S
C1481 C1480 1.400 1_545 S
C1481 C1482 1.398 . S
C1482 H1470 0.950 . S
C1482 C1481 1.398 . S
C1482 C1483 1.391 . S
C1483 H1471 0.950 . S
C1483 C1479 1.393 . S
C1483 C1482 1.391 . S
H1484 C1492 0.950 . S
H1485 C1497 0.950 . S
H1486 C1494 0.950 . S
H1487 C1496 0.950 . S
H1488 C1498 0.950 . S
H1489 C1500 0.950 . S
H1490 C1502 0.950 . S
H1491 C1503 0.950 . S
C1492 H1484 0.950 . S
C1492 C1493 1.386 . S
C1492 C1494 1.391 . S
C1493 C1492 1.386 . S
C1493 C1497 1.393 . S
C1494 H1486 0.950 . S
C1494 C1492 1.391 . S
C1494 C1495 1.400 . S
C1495 C1494 1.400 . S
C1495 C1496 1.398 . S
C1495 C1501 1.491 . S
C1496 H1487 0.950 . S
C1496 C1495 1.398 . S
C1496 C1497 1.391 . S
C1497 H1485 0.950 . S
C1497 C1493 1.393 . S
C1497 C1496 1.391 . S
C1498 H1488 0.950 . S
C1498 C1499 1.386 . S
C1498 C1500 1.391 . S
C1499 C1498 1.386 . S
C1499 C1503 1.393 . S
C1500 H1489 0.950 . S
C1500 C1498 1.391 . S
C1500 C1501 1.400 . S
C1501 C1495 1.491 . S
C1501 C1500 1.400 . S
C1501 C1502 1.398 . S
C1502 H1490 0.950 . S
C1502 C1501 1.398 . S
C1502 C1503 1.391 . S
C1503 H1491 0.950 . S
C1503 C1499 1.393 . S
C1503 C1502 1.391 . S
H1504 C1512 0.950 . S
H1505 C1517 0.950 . S
H1506 C1514 0.950 . S
H1507 C1516 0.950 . S
H1508 C1518 0.950 . S
H1509 C1520 0.950 . S
H1510 C1522 0.950 . S
H1511 C1523 0.950 . S
C1512 H1504 0.950 . S
C1512 C1513 1.386 . S
C1512 C1514 1.391 . S
C1513 C1512 1.386 . S
C1513 C1517 1.393 . S
C1514 H1506 0.950 . S
C1514 C1512 1.391 . S
C1514 C1515 1.400 . S
C1515 C1514 1.400 . S
C1515 C1516 1.398 . S
C1515 C1521 1.491 1_654 S
C1516 H1507 0.950 . S
C1516 C1515 1.398 . S
C1516 C1517 1.391 . S
C1517 H1505 0.950 . S
C1517 C1513 1.393 . S
C1517 C1516 1.391 . S
C1518 H1508 0.950 . S
C1518 C1519 1.386 . S
C1518 C1520 1.391 . S
C1519 C1518 1.386 . S
C1519 C1523 1.393 . S
C1520 H1509 0.950 . S
C1520 C1518 1.391 . S
C1520 C1521 1.400 . S
C1521 C1515 1.491 1_456 S
C1521 C1520 1.400 . S
C1521 C1522 1.398 . S
C1522 H1510 0.950 . S
C1522 C1521 1.398 . S
C1522 C1523 1.391 . S
C1523 H1511 0.950 . S
C1523 C1519 1.393 . S
C1523 C1522 1.391 . S
H1524 C1532 0.950 . S
H1525 C1537 0.950 . S
H1526 C1534 0.950 . S
H1527 C1536 0.950 . S
H1528 C1538 0.950 . S
H1529 C1540 0.950 . S
H1530 C1542 0.950 . S
H1531 C1543 0.950 . S
C1532 H1524 0.950 . S
C1532 C1533 1.386 1_545 S
C1532 C1534 1.391 . S
C1533 C1532 1.386 1_565 S
C1533 C1537 1.393 . S
C1534 H1526 0.950 . S
C1534 C1532 1.391 . S
C1534 C1535 1.400 1_545 S
C1535 C1534 1.400 1_565 S
C1535 C1536 1.398 . S
C1535 C1541 1.491 1_565 S
C1536 H1527 0.950 . S
C1536 C1535 1.398 . S
C1536 C1537 1.391 . S
C1537 H1525 0.950 . S
C1537 C1533 1.393 . S
C1537 C1536 1.391 . S
C1538 H1528 0.950 . S
C1538 C1539 1.386 1_565 S
C1538 C1540 1.391 . S
C1539 C1538 1.386 1_545 S
C1539 C1543 1.393 . S
C1540 H1529 0.950 . S
C1540 C1538 1.391 . S
C1540 C1541 1.400 1_565 S
C1541 C1535 1.491 1_545 S
C1541 C1540 1.400 1_545 S
C1541 C1542 1.398 . S
C1542 H1530 0.950 . S
C1542 C1541 1.398 . S
C1542 C1543 1.391 . S
C1543 H1531 0.950 . S
C1543 C1539 1.393 . S
C1543 C1542 1.391 . S
H1544 C1552 0.950 . S
H1545 C1557 0.950 . S
H1546 C1554 0.950 . S
H1547 C1556 0.950 . S
H1548 C1558 0.950 . S
H1549 C1560 0.950 . S
H1550 C1562 0.950 . S
H1551 C1563 0.950 . S
C1552 H1544 0.950 . S
C1552 C1553 1.386 . S
C1552 C1554 1.391 . S
C1553 C1552 1.386 . S
C1553 C1557 1.393 . S
C1554 H1546 0.950 . S
C1554 C1552 1.391 . S
C1554 C1555 1.400 . S
C1555 C1554 1.400 . S
C1555 C1556 1.398 . S
C1555 C1561 1.491 1_554 S
C1556 H1547 0.950 . S
C1556 C1555 1.398 . S
C1556 C1557 1.391 . S
C1557 H1545 0.950 . S
C1557 C1553 1.393 . S
C1557 C1556 1.391 . S
C1558 H1548 0.950 . S
C1558 C1559 1.386 . S
C1558 C1560 1.391 . S
C1559 C1558 1.386 . S
C1559 C1563 1.393 . S
C1560 H1549 0.950 . S
C1560 C1558 1.391 . S
C1560 C1561 1.400 . S
C1561 C1555 1.491 1_556 S
C1561 C1560 1.400 . S
C1561 C1562 1.398 . S
C1562 H1550 0.950 . S
C1562 C1561 1.398 . S
C1562 C1563 1.391 . S
C1563 H1551 0.950 . S
C1563 C1559 1.393 . S
C1563 C1562 1.391 . S
H1564 C1572 0.950 . S
H1565 C1577 0.950 . S
H1566 C1574 0.950 . S
H1567 C1576 0.950 . S
H1568 C1578 0.950 . S
H1569 C1580 0.950 . S
H1570 C1582 0.950 . S
H1571 C1583 0.950 . S
C1572 H1564 0.950 . S
C1572 C1573 1.386 . S
C1572 C1574 1.391 1_455 S
C1573 C1572 1.386 . S
C1573 C1577 1.393 . S
C1574 H1566 0.950 . S
C1574 C1572 1.391 1_655 S
C1574 C1575 1.400 1_655 S
C1575 C1574 1.400 1_455 S
C1575 C1576 1.398 . S
C1575 C1581 1.491 1_455 S
C1576 H1567 0.950 . S
C1576 C1575 1.398 . S
C1576 C1577 1.391 . S
C1577 H1565 0.950 . S
C1577 C1573 1.393 . S
C1577 C1576 1.391 . S
C1578 H1568 0.950 . S
C1578 C1579 1.386 . S
C1578 C1580 1.391 1_655 S
C1579 C1578 1.386 . S
C1579 C1583 1.393 . S
C1580 H1569 0.950 . S
C1580 C1578 1.391 1_455 S
C1580 C1581 1.400 1_455 S
C1581 C1575 1.491 1_655 S
C1581 C1580 1.400 1_655 S
C1581 C1582 1.398 . S
C1582 H1570 0.950 . S
C1582 C1581 1.398 . S
C1582 C1583 1.391 . S
C1583 H1571 0.950 . S
C1583 C1579 1.393 . S
C1583 C1582 1.391 . S
H1584 C1592 0.950 . S
H1585 C1597 0.950 . S
H1586 C1594 0.950 . S
H1587 C1596 0.950 . S
H1588 C1598 0.950 . S
H1589 C1600 0.950 . S
H1590 C1602 0.950 . S
H1591 C1603 0.950 . S
C1592 H1584 0.950 . S
C1592 C1593 1.386 . S
C1592 C1594 1.391 . S
C1593 C1592 1.386 . S
C1593 C1597 1.393 . S
C1594 H1586 0.950 . S
C1594 C1592 1.391 . S
C1594 C1595 1.400 . S
C1595 C1594 1.400 . S
C1595 C1596 1.398 . S
C1595 C1601 1.491 . S
C1596 H1587 0.950 . S
C1596 C1595 1.398 . S
C1596 C1597 1.391 . S
C1597 H1585 0.950 . S
C1597 C1593 1.393 . S
C1597 C1596 1.391 . S
C1598 H1588 0.950 . S
C1598 C1599 1.386 . S
C1598 C1600 1.391 . S
C1599 C1598 1.386 . S
C1599 C1603 1.393 . S
C1600 H1589 0.950 . S
C1600 C1598 1.391 . S
C1600 C1601 1.400 . S
C1601 C1595 1.491 . S
C1601 C1600 1.400 . S
C1601 C1602 1.398 . S
C1602 H1590 0.950 . S
C1602 C1601 1.398 . S
C1602 C1603 1.391 . S
C1603 H1591 0.950 . S
C1603 C1599 1.393 . S
C1603 C1602 1.391 . S
H1604 C1612 0.950 . S
H1605 C1617 0.950 . S
H1606 C1614 0.950 . S
H1607 C1616 0.950 . S
H1608 C1618 0.950 . S
H1609 C1620 0.950 . S
H1610 C1622 0.950 . S
H1611 C1623 0.950 . S
C1612 H1604 0.950 . S
C1612 C1613 1.386 . S
C1612 C1614 1.391 . S
C1613 C1612 1.386 . S
C1613 C1617 1.393 . S
C1614 H1606 0.950 . S
C1614 C1612 1.391 . S
C1614 C1615 1.400 . S
C1615 C1614 1.400 . S
C1615 C1616 1.398 . S
C1615 C1621 1.491 . S
C1616 H1607 0.950 . S
C1616 C1615 1.398 . S
C1616 C1617 1.391 . S
C1617 H1605 0.950 . S
C1617 C1613 1.393 . S
C1617 C1616 1.391 . S
C1618 H1608 0.950 . S
C1618 C1619 1.386 . S
C1618 C1620 1.391 . S
C1619 C1618 1.386 . S
C1619 C1623 1.393 . S
C1620 H1609 0.950 . S
C1620 C1618 1.391 . S
C1620 C1621 1.400 . S
C1621 C1615 1.491 . S
C1621 C1620 1.400 . S
C1621 C1622 1.398 . S
C1622 H1610 0.950 . S
C1622 C1621 1.398 . S
C1622 C1623 1.391 . S
C1623 H1611 0.950 . S
C1623 C1619 1.393 . S
C1623 C1622 1.391 . S
H1624 C1632 0.950 . S
H1625 C1637 0.950 . S
H1626 C1634 0.950 . S
H1627 C1636 0.950 . S
H1628 C1638 0.950 . S
H1629 C1640 0.950 . S
H1630 C1642 0.950 . S
H1631 C1643 0.950 . S
C1632 H1624 0.950 . S
C1632 C1633 1.386 . S
C1632 C1634 1.391 . S
C1633 C1632 1.386 . S
C1633 C1637 1.393 . S
C1634 H1626 0.950 . S
C1634 C1632 1.391 . S
C1634 C1635 1.400 . S
C1635 C1634 1.400 . S
C1635 C1636 1.398 . S
C1635 C1641 1.491 . S
C1636 H1627 0.950 . S
C1636 C1635 1.398 . S
C1636 C1637 1.391 . S
C1637 H1625 0.950 . S
C1637 C1633 1.393 . S
C1637 C1636 1.391 . S
C1638 H1628 0.950 . S
C1638 C1639 1.386 . S
C1638 C1640 1.391 . S
C1639 C1638 1.386 . S
C1639 C1643 1.393 . S
C1640 H1629 0.950 . S
C1640 C1638 1.391 . S
C1640 C1641 1.400 . S
C1641 C1635 1.491 . S
C1641 C1640 1.400 . S
C1641 C1642 1.398 . S
C1642 H1630 0.950 . S
C1642 C1641 1.398 . S
C1642 C1643 1.391 . S
C1643 H1631 0.950 . S
C1643 C1639 1.393 . S
C1643 C1642 1.391 . S
H1644 C1652 0.950 . S
H1645 C1657 0.950 . S
H1646 C1654 0.950 . S
H1647 C1656 0.950 . S
H1648 C1658 0.950 . S
H1649 C1660 0.950 . S
H1650 C1662 0.950 . S
H1651 C1663 0.950 . S
C1652 H1644 0.950 . S
C1652 C1653 1.386 . S
C1652 C1654 1.391 . S
C1653 C1652 1.386 . S
C1653 C1657 1.393 . S
C1654 H1646 0.950 . S
C1654 C1652 1.391 . S
C1654 C1655 1.400 . S
C1655 C1654 1.400 . S
C1655 C1656 1.398 . S
C1655 C1661 1.491 . S
C1656 H1647 0.950 . S
C1656 C1655 1.398 . S
C1656 C1657 1.391 . S
C1657 H1645 0.950 . S
C1657 C1653 1.393 . S
C1657 C1656 1.391 . S
C1658 H1648 0.950 . S
C1658 C1659 1.386 . S
C1658 C1660 1.391 . S
C1659 C1658 1.386 . S
C1659 C1663 1.393 . S
C1660 H1649 0.950 . S
C1660 C1658 1.391 . S
C1660 C1661 1.400 . S
C1661 C1655 1.491 . S
C1661 C1660 1.400 . S
C1661 C1662 1.398 . S
C1662 H1650 0.950 . S
C1662 C1661 1.398 . S
C1662 C1663 1.391 . S
C1663 H1651 0.950 . S
C1663 C1659 1.393 . S
C1663 C1662 1.391 . S
H1664 C1672 0.950 . S
H1665 C1677 0.950 . S
H1666 C1674 0.950 . S
H1667 C1676 0.950 . S
H1668 C1678 0.950 . S
H1669 C1680 0.950 . S
H1670 C1682 0.950 . S
H1671 C1683 0.950 . S
C1672 H1664 0.950 . S
C1672 C1673 1.386 . S
C1672 C1674 1.391 . S
C1673 C1672 1.386 . S
C1673 C1677 1.393 . S
C1674 H1666 0.950 . S
C1674 C1672 1.391 . S
C1674 C1675 1.400 . S
C1675 C1674 1.400 . S
C1675 C1676 1.398 . S
C1675 C1681 1.491 . S
C1676 H1667 0.950 . S
C1676 C1675 1.398 . S
C1676 C1677 1.391 . S
C1677 H1665 0.950 . S
C1677 C1673 1.393 . S
C1677 C1676 1.391 . S
C1678 H1668 0.950 . S
C1678 C1679 1.386 . S
C1678 C1680 1.391 . S
C1679 C1678 1.386 . S
C1679 C1683 1.393 . S
C1680 H1669 0.950 . S
C1680 C1678 1.391 . S
C1680 C1681 1.400 . S
C1681 C1675 1.491 . S
C1681 C1680 1.400 . S
C1681 C1682 1.398 . S
C1682 H1670 0.950 . S
C1682 C1681 1.398 . S
C1682 C1683 1.391 . S
C1683 H1671 0.950 . S
C1683 C1679 1.393 . S
C1683 C1682 1.391 . S
H1684 C1692 0.950 . S
H1685 C1697 0.950 . S
H1686 C1694 0.950 . S
H1687 C1696 0.950 . S
H1688 C1698 0.950 . S
H1689 C1700 0.950 . S
H1690 C1702 0.950 . S
H1691 C1703 0.950 . S
C1692 H1684 0.950 . S
C1692 C1693 1.386 . S
C1692 C1694 1.391 . S
C1693 C1692 1.386 . S
C1693 C1697 1.393 . S
C1694 H1686 0.950 . S
C1694 C1692 1.391 . S
C1694 C1695 1.400 . S
C1695 C1694 1.400 . S
C1695 C1696 1.398 . S
C1695 C1701 1.491 . S
C1696 H1687 0.950 . S
C1696 C1695 1.398 . S
C1696 C1697 1.391 . S
C1697 H1685 0.950 . S
C1697 C1693 1.393 . S
C1697 C1696 1.391 . S
C1698 H1688 0.950 . S
C1698 C1699 1.386 . S
C1698 C1700 1.391 . S
C1699 C1698 1.386 . S
C1699 C1703 1.393 . S
C1700 H1689 0.950 . S
C1700 C1698 1.391 . S
C1700 C1701 1.400 . S
C1701 C1695 1.491 . S
C1701 C1700 1.400 . S
C1701 C1702 1.398 . S
C1702 H1690 0.950 . S
C1702 C1701 1.398 . S
C1702 C1703 1.391 . S
C1703 H1691 0.950 . S
C1703 C1699 1.393 . S
C1703 C1702 1.391 . S
H1704 C1712 0.950 . S
H1705 C1717 0.950 . S
H1706 C1714 0.950 . S
H1707 C1716 0.950 . S
H1708 C1718 0.950 . S
H1709 C1720 0.950 . S
H1710 C1722 0.950 . S
H1711 C1723 0.950 . S
C1712 H1704 0.950 . S
C1712 C1713 1.386 . S
C1712 C1714 1.391 . S
C1713 C1712 1.386 . S
C1713 C1717 1.393 . S
C1714 H1706 0.950 . S
C1714 C1712 1.391 . S
C1714 C1715 1.400 . S
C1715 C1714 1.400 . S
C1715 C1716 1.398 . S
C1715 C1721 1.491 . S
C1716 H1707 0.950 . S
C1716 C1715 1.398 . S
C1716 C1717 1.391 . S
C1717 H1705 0.950 . S
C1717 C1713 1.393 . S
C1717 C1716 1.391 . S
C1718 H1708 0.950 . S
C1718 C1719 1.386 . S
C1718 C1720 1.391 . S
C1719 C1718 1.386 . S
C1719 C1723 1.393 . S
C1720 H1709 0.950 . S
C1720 C1718 1.391 . S
C1720 C1721 1.400 . S
C1721 C1715 1.491 . S
C1721 C1720 1.400 . S
C1721 C1722 1.398 . S
C1722 H1710 0.950 . S
C1722 C1721 1.398 . S
C1722 C1723 1.391 . S
C1723 H1711 0.950 . S
C1723 C1719 1.393 . S
C1723 C1722 1.391 . S
H1724 C1732 0.950 . S
H1725 C1737 0.950 . S
H1726 C1734 0.950 . S
H1727 C1736 0.950 . S
H1728 C1738 0.950 . S
H1729 C1740 0.950 . S
H1730 C1742 0.950 . S
H1731 C1743 0.950 . S
C1732 H1724 0.950 . S
C1732 C1733 1.386 . S
C1732 C1734 1.391 . S
C1733 C1732 1.386 . S
C1733 C1737 1.393 . S
C1734 H1726 0.950 . S
C1734 C1732 1.391 . S
C1734 C1735 1.400 . S
C1735 C1734 1.400 . S
C1735 C1736 1.398 . S
C1735 C1741 1.491 . S
C1736 H1727 0.950 . S
C1736 C1735 1.398 . S
C1736 C1737 1.391 . S
C1737 H1725 0.950 . S
C1737 C1733 1.393 . S
C1737 C1736 1.391 . S
C1738 H1728 0.950 . S
C1738 C1739 1.386 . S
C1738 C1740 1.391 . S
C1739 C1738 1.386 . S
C1739 C1743 1.393 . S
C1740 H1729 0.950 . S
C1740 C1738 1.391 . S
C1740 C1741 1.400 . S
C1741 C1735 1.491 . S
C1741 C1740 1.400 . S
C1741 C1742 1.398 . S
C1742 H1730 0.950 . S
C1742 C1741 1.398 . S
C1742 C1743 1.391 . S
C1743 H1731 0.950 . S
C1743 C1739 1.393 . S
C1743 C1742 1.391 . S
H1744 C1752 0.950 . S
H1745 C1757 0.950 . S
H1746 C1754 0.950 . S
H1747 C1756 0.950 . S
H1748 C1758 0.950 . S
H1749 C1760 0.950 . S
H1750 C1762 0.950 . S
H1751 C1763 0.950 . S
C1752 H1744 0.950 . S
C1752 C1753 1.386 . S
C1752 C1754 1.391 . S
C1753 C1752 1.386 . S
C1753 C1757 1.393 . S
C1754 H1746 0.950 . S
C1754 C1752 1.391 . S
C1754 C1755 1.400 . S
C1755 C1754 1.400 . S
C1755 C1756 1.398 . S
C1755 C1761 1.491 . S
C1756 H1747 0.950 . S
C1756 C1755 1.398 . S
C1756 C1757 1.391 . S
C1757 H1745 0.950 . S
C1757 C1753 1.393 . S
C1757 C1756 1.391 . S
C1758 H1748 0.950 . S
C1758 C1759 1.386 . S
C1758 C1760 1.391 . S
C1759 C1758 1.386 . S
C1759 C1763 1.393 . S
C1760 H1749 0.950 . S
C1760 C1758 1.391 . S
C1760 C1761 1.400 . S
C1761 C1755 1.491 . S
C1761 C1760 1.400 . S
C1761 C1762 1.398 . S
C1762 H1750 0.950 . S
C1762 C1761 1.398 . S
C1762 C1763 1.391 . S
C1763 H1751 0.950 . S
C1763 C1759 1.393 . S
C1763 C1762 1.391 . S
H1764 C1772 0.950 . S
H1765 C1777 0.950 . S
H1766 C1774 0.950 . S
H1767 C1776 0.950 . S
H1768 C1778 0.950 . S
H1769 C1780 0.950 . S
H1770 C1782 0.950 . S
H1771 C1783 0.950 . S
C1772 H1764 0.950 . S
C1772 C1773 1.386 . S
C1772 C1774 1.391 . S
C1773 C1772 1.386 . S
C1773 C1777 1.393 . S
C1774 H1766 0.950 . S
C1774 C1772 1.391 . S
C1774 C1775 1.400 . S
C1775 C1774 1.400 . S
C1775 C1776 1.398 . S
C1775 C1781 1.491 . S
C1776 H1767 0.950 . S
C1776 C1775 1.398 . S
C1776 C1777 1.391 . S
C1777 H1765 0.950 . S
C1777 C1773 1.393 . S
C1777 C1776 1.391 . S
C1778 H1768 0.950 . S
C1778 C1779 1.386 . S
C1778 C1780 1.391 . S
C1779 C1778 1.386 . S
C1779 C1783 1.393 . S
C1780 H1769 0.950 . S
C1780 C1778 1.391 . S
C1780 C1781 1.400 . S
C1781 C1775 1.491 . S
C1781 C1780 1.400 . S
C1781 C1782 1.398 . S
C1782 H1770 0.950 . S
C1782 C1781 1.398 . S
C1782 C1783 1.391 . S
C1783 H1771 0.950 . S
C1783 C1779 1.393 . S
C1783 C1782 1.391 . S
H1784 C1792 0.950 . S
H1785 C1797 0.950 . S
H1786 C1794 0.950 . S
H1787 C1796 0.950 . S
H1788 C1798 0.950 . S
H1789 C1800 0.950 . S
H1790 C1802 0.950 . S
H1791 C1803 0.950 . S
C1792 H1784 0.950 . S
C1792 C1793 1.386 . S
C1792 C1794 1.391 . S
C1793 C1792 1.386 . S
C1793 C1797 1.393 . S
C1794 H1786 0.950 . S
C1794 C1792 1.391 . S
C1794 C1795 1.400 . S
C1795 C1794 1.400 . S
C1795 C1796 1.398 . S
C1795 C1801 1.491 . S
C1796 H1787 0.950 . S
C1796 C1795 1.398 . S
C1796 C1797 1.391 . S
C1797 H1785 0.950 . S
C1797 C1793 1.393 . S
C1797 C1796 1.391 . S
C1798 H1788 0.950 . S
C1798 C1799 1.386 . S
C1798 C1800 1.391 . S
C1799 C1798 1.386 . S
C1799 C1803 1.393 . S
C1800 H1789 0.950 . S
C1800 C1798 1.391 . S
C1800 C1801 1.400 . S
C1801 C1795 1.491 . S
C1801 C1800 1.400 . S
C1801 C1802 1.398 . S
C1802 H1790 0.950 . S
C1802 C1801 1.398 . S
C1802 C1803 1.391 . S
C1803 H1791 0.950 . S
C1803 C1799 1.393 . S
C1803 C1802 1.391 . S
H1804 C1812 0.950 . S
H1805 C1817 0.950 . S
H1806 C1814 0.950 . S
H1807 C1816 0.950 . S
H1808 C1818 0.950 . S
H1809 C1820 0.950 . S
H1810 C1822 0.950 . S
H1811 C1823 0.950 . S
C1812 H1804 0.950 . S
C1812 C1813 1.386 . S
C1812 C1814 1.391 . S
C1813 C1812 1.386 . S
C1813 C1817 1.393 . S
C1814 H1806 0.950 . S
C1814 C1812 1.391 . S
C1814 C1815 1.400 . S
C1815 C1814 1.400 . S
C1815 C1816 1.398 . S
C1815 C1821 1.491 . S
C1816 H1807 0.950 . S
C1816 C1815 1.398 . S
C1816 C1817 1.391 . S
C1817 H1805 0.950 . S
C1817 C1813 1.393 . S
C1817 C1816 1.391 . S
C1818 H1808 0.950 . S
C1818 C1819 1.386 . S
C1818 C1820 1.391 . S
C1819 C1818 1.386 . S
C1819 C1823 1.393 . S
C1820 H1809 0.950 . S
C1820 C1818 1.391 . S
C1820 C1821 1.400 . S
C1821 C1815 1.491 . S
C1821 C1820 1.400 . S
C1821 C1822 1.398 . S
C1822 H1810 0.950 . S
C1822 C1821 1.398 . S
C1822 C1823 1.391 . S
C1823 H1811 0.950 . S
C1823 C1819 1.393 . S
C1823 C1822 1.391 . S
C873 C544 1.261 . S
C879 C4 1.275 . S
C893 C40 1.255 . S
C899 C580 1.282 . S
C913 C76 1.275 . S
C919 C616 1.261 . S
C933 C112 1.276 . S
C939 C436 1.261 . S
C953 C472 1.255 . S
C959 C148 1.282 . S
C973 C184 1.275 . S
C979 C508 1.261 . S
C993 C760 1.260 . S
C999 C220 1.276 . S
C1013 C256 1.268 . S
C1019 C796 1.269 . S
C1033 C292 1.259 . S
C1039 C832 1.278 . S
C1053 C652 1.279 . S
C1059 C328 1.258 . S
C1073 C364 1.260 . S
C1079 C688 1.277 . S
C1093 C724 1.268 . S
C1099 C400 1.269 . S
C1113 C14 1.434 . S
C1119 C842 1.408 . S
C1133 C662 1.414 . S
C1139 C50 1.428 . S
C1153 C86 1.406 . S
C1159 C698 1.436 . S
C1173 C734 1.431 . S
C1179 C122 1.411 . S
C1193 C158 1.408 . S
C1199 C770 1.434 . S
C1213 C806 1.431 . S
C1219 C194 1.411 . S
C1233 C230 1.436 . S
C1239 C482 1.406 . S
C1253 C518 1.418 . S
C1259 C266 1.423 . S
C1273 C554 1.423 . S
C1279 C302 1.419 . S
C1293 C590 1.417 . S
C1299 C338 1.425 . S
C1313 C374 1.436 . S
C1319 C626 1.405 . S
C1333 C410 1.436 . S
C1339 C446 1.406 . S
C1353 C255 1.203 . S
C1359 C3 1.208 . S
C1373 C291 1.203 . S
C1379 C39 1.209 . S
C1393 C327 1.211 . S
C1399 C75 1.219 . S
C1413 C363 1.203 . S
C1419 C111 1.205 . S
C1433 C147 1.219 . S
C1439 C399 1.212 . S
C1453 C183 1.205 . S
C1459 C219 1.213 . S
C1473 C435 1.211 . S
C1479 C687 1.219 . S
C1493 C471 1.220 . S
C1499 C723 1.214 . S
C1513 C759 1.205 . S
C1519 C507 1.203 . S
C1533 C795 1.208 . S
C1539 C543 1.216 . S
C1553 C831 1.216 . S
C1559 C579 1.220 . S
C1573 C651 1.203 . S
C1579 C615 1.206 . S
C1593 C2 1.536 . S
C1599 C686 1.536 . S
C1613 C722 1.541 . S
C1619 C38 1.531 . S
C1633 C74 1.542 . S
C1639 C758 1.531 . S
C1653 C794 1.533 . S
C1659 C110 1.539 . S
C1673 C146 1.533 . S
C1679 C830 1.539 . S
C1693 C650 1.539 . S
C1699 C182 1.534 . S
C1713 C218 1.542 . S
C1719 C614 1.530 . S
C1733 C434 1.540 . S
C1739 C254 1.533 . S
C1753 C290 1.540 . S
C1759 C470 1.532 . S
C1773 C326 1.542 . S
C1779 C506 1.530 . S
C1793 C362 1.532 . S
C1799 C542 1.540 . S
C1813 C398 1.539 . S
C1819 C578 1.533 . S
