# Generated by pormake.
# Topology bcs, (6)-cn, num edge types: 1
# Building blocks:
#     Node 0, Type 0, BuildingBlock: FUNLAD_clean_sbu_0, # of connection points: 6
#     Node 1, Type 0, BuildingBlock: FUNLAD_clean_sbu_0, # of connection points: 6
#     Node 2, Type 0, BuildingBlock: FUNLAD_clean_sbu_0, # of connection points: 6
#     Node 3, Type 0, BuildingBlock: FUNLAD_clean_sbu_0, # of connection points: 6
#     Node 4, Type 0, BuildingBlock: FUNLAD_clean_sbu_0, # of connection points: 6
#     Node 5, Type 0, BuildingBlock: FUNLAD_clean_sbu_0, # of connection points: 6
#     Node 6, Type 0, BuildingBlock: FUNLAD_clean_sbu_0, # of connection points: 6
#     Node 7, Type 0, BuildingBlock: FUNLAD_clean_sbu_0, # of connection points: 6
#     Node 8, Type 0, BuildingBlock: FUNLAD_clean_sbu_0, # of connection points: 6
#     Node 9, Type 0, BuildingBlock: FUNLAD_clean_sbu_0, # of connection points: 6
#     Node 10, Type 0, BuildingBlock: FUNLAD_clean_sbu_0, # of connection points: 6
#     Node 11, Type 0, BuildingBlock: FUNLAD_clean_sbu_0, # of connection points: 6
#     Node 12, Type 0, BuildingBlock: FUNLAD_clean_sbu_0, # of connection points: 6
#     Node 13, Type 0, BuildingBlock: FUNLAD_clean_sbu_0, # of connection points: 6
#     Node 14, Type 0, BuildingBlock: FUNLAD_clean_sbu_0, # of connection points: 6
#     Node 15, Type 0, BuildingBlock: FUNLAD_clean_sbu_0, # of connection points: 6
#     Edge 16, Type (0, 0), BuildingBlock: XIVTED_clean_linker_0, # of connection points: 2
#     Edge 17, Type (0, 0), BuildingBlock: XIVTED_clean_linker_0, # of connection points: 2
#     Edge 18, Type (0, 0), BuildingBlock: XIVTED_clean_linker_0, # of connection points: 2
#     Edge 19, Type (0, 0), BuildingBlock: XIVTED_clean_linker_0, # of connection points: 2
#     Edge 20, Type (0, 0), BuildingBlock: XIVTED_clean_linker_0, # of connection points: 2
#     Edge 21, Type (0, 0), BuildingBlock: XIVTED_clean_linker_0, # of connection points: 2
#     Edge 22, Type (0, 0), BuildingBlock: XIVTED_clean_linker_0, # of connection points: 2
#     Edge 23, Type (0, 0), BuildingBlock: XIVTED_clean_linker_0, # of connection points: 2
#     Edge 24, Type (0, 0), BuildingBlock: XIVTED_clean_linker_0, # of connection points: 2
#     Edge 25, Type (0, 0), BuildingBlock: XIVTED_clean_linker_0, # of connection points: 2
#     Edge 26, Type (0, 0), BuildingBlock: XIVTED_clean_linker_0, # of connection points: 2
#     Edge 27, Type (0, 0), BuildingBlock: XIVTED_clean_linker_0, # of connection points: 2
#     Edge 28, Type (0, 0), BuildingBlock: XIVTED_clean_linker_0, # of connection points: 2
#     Edge 29, Type (0, 0), BuildingBlock: XIVTED_clean_linker_0, # of connection points: 2
#     Edge 30, Type (0, 0), BuildingBlock: XIVTED_clean_linker_0, # of connection points: 2
#     Edge 31, Type (0, 0), BuildingBlock: XIVTED_clean_linker_0, # of connection points: 2
#     Edge 32, Type (0, 0), BuildingBlock: XIVTED_clean_linker_0, # of connection points: 2
#     Edge 33, Type (0, 0), BuildingBlock: XIVTED_clean_linker_0, # of connection points: 2
#     Edge 34, Type (0, 0), BuildingBlock: XIVTED_clean_linker_0, # of connection points: 2
#     Edge 35, Type (0, 0), BuildingBlock: XIVTED_clean_linker_0, # of connection points: 2
#     Edge 36, Type (0, 0), BuildingBlock: XIVTED_clean_linker_0, # of connection points: 2
#     Edge 37, Type (0, 0), BuildingBlock: XIVTED_clean_linker_0, # of connection points: 2
#     Edge 38, Type (0, 0), BuildingBlock: XIVTED_clean_linker_0, # of connection points: 2
#     Edge 39, Type (0, 0), BuildingBlock: XIVTED_clean_linker_0, # of connection points: 2
#     Edge 40, Type (0, 0), BuildingBlock: XIVTED_clean_linker_0, # of connection points: 2
#     Edge 41, Type (0, 0), BuildingBlock: XIVTED_clean_linker_0, # of connection points: 2
#     Edge 42, Type (0, 0), BuildingBlock: XIVTED_clean_linker_0, # of connection points: 2
#     Edge 43, Type (0, 0), BuildingBlock: XIVTED_clean_linker_0, # of connection points: 2
#     Edge 44, Type (0, 0), BuildingBlock: XIVTED_clean_linker_0, # of connection points: 2
#     Edge 45, Type (0, 0), BuildingBlock: XIVTED_clean_linker_0, # of connection points: 2
#     Edge 46, Type (0, 0), BuildingBlock: XIVTED_clean_linker_0, # of connection points: 2
#     Edge 47, Type (0, 0), BuildingBlock: XIVTED_clean_linker_0, # of connection points: 2
#     Edge 48, Type (0, 0), BuildingBlock: XIVTED_clean_linker_0, # of connection points: 2
#     Edge 49, Type (0, 0), BuildingBlock: XIVTED_clean_linker_0, # of connection points: 2
#     Edge 50, Type (0, 0), BuildingBlock: XIVTED_clean_linker_0, # of connection points: 2
#     Edge 51, Type (0, 0), BuildingBlock: XIVTED_clean_linker_0, # of connection points: 2
#     Edge 52, Type (0, 0), BuildingBlock: XIVTED_clean_linker_0, # of connection points: 2
#     Edge 53, Type (0, 0), BuildingBlock: XIVTED_clean_linker_0, # of connection points: 2
#     Edge 54, Type (0, 0), BuildingBlock: XIVTED_clean_linker_0, # of connection points: 2
#     Edge 55, Type (0, 0), BuildingBlock: XIVTED_clean_linker_0, # of connection points: 2
#     Edge 56, Type (0, 0), BuildingBlock: XIVTED_clean_linker_0, # of connection points: 2
#     Edge 57, Type (0, 0), BuildingBlock: XIVTED_clean_linker_0, # of connection points: 2
#     Edge 58, Type (0, 0), BuildingBlock: XIVTED_clean_linker_0, # of connection points: 2
#     Edge 59, Type (0, 0), BuildingBlock: XIVTED_clean_linker_0, # of connection points: 2
#     Edge 60, Type (0, 0), BuildingBlock: XIVTED_clean_linker_0, # of connection points: 2
#     Edge 61, Type (0, 0), BuildingBlock: XIVTED_clean_linker_0, # of connection points: 2
#     Edge 62, Type (0, 0), BuildingBlock: XIVTED_clean_linker_0, # of connection points: 2
#     Edge 63, Type (0, 0), BuildingBlock: XIVTED_clean_linker_0, # of connection points: 2
# Relax obj value: 0.525
# Max RMSD: 0.295
# Mean RMSD: 0.243
data_MOF--net-bcs--node1-FUNLAD_clean_sbu_0--edge1-XIVTED_clean_linker_0
_symmetry_space_group_name_H-M    P1
_symmetry_Int_Tables_number       1
_symmetry_cell_setting            triclinic
loop_
_symmetry_equiv_pos_as_xyz
'x, y, z'
_cell_length_a     38.634583
_cell_length_b     38.108747
_cell_length_c     38.933922
_cell_angle_alpha  78.502386
_cell_angle_beta   78.476284
_cell_angle_gamma 73.101074
loop_
_atom_site_label
_atom_site_type_symbol
_atom_site_fract_x
_atom_site_fract_y
_atom_site_fract_z
_atom_type_partial_charge
C0 C 0.93925 0.06008 0.041 0.0
N1 N 0.9144 0.96735 0.02112 0.0
C2 C 0.89581 0.96719 0.05463 0.0
C3 C 0.86455 0.95444 0.06387 0.0
C4 C 0.8522 0.94142 0.03849 0.0
C5 C 0.87183 0.94182 0.004 0.0
C6 C 0.90303 0.95524 0.99575 0.0
Zn7 Zn 0.95835 0.98859 0.01037 0.0
C8 C 0.95566 0.04255 0.94185 0.0
N9 N 0.04528 0.03955 0.99022 0.0
C10 C 0.05121 0.05281 0.01793 0.0
C11 C 0.06938 0.0377 0.9596 0.0
C12 C 0.10104 0.04948 0.95607 0.0
C13 C 0.10768 0.06337 0.98429 0.0
C14 C 0.0823 0.06508 0.01546 0.0
Zn15 Zn 1.00164 0.01819 0.99809 0.0
O16 O 0.92777 0.03254 0.03927 0.0
C17 C 0.00424 0.9645 0.06648 0.0
O18 O 0.97005 0.06274 0.02379 0.0
H19 H 0.06418 0.02682 0.93806 0.0
H20 H 0.9054 0.97678 0.07442 0.0
H21 H 0.03205 0.05342 0.04232 0.0
O22 O 0.97771 0.95682 0.05764 0.0
O23 O 0.01822 0.98909 0.04664 0.0
H24 H 0.91823 0.95586 0.9692 0.0
O25 O 0.03385 0.97243 0.97304 0.0
O26 O 0.98968 0.94458 0.98278 0.0
O27 O 0.98422 0.04781 0.94931 0.0
O28 O 0.93983 0.01991 0.96294 0.0
C29 C 0.02262 0.94495 0.97051 0.0
H30 H 0.85097 0.95353 0.0911 0.0
H31 H 0.86334 0.93164 0.98383 0.0
H32 H 0.11972 0.04848 0.93129 0.0
H33 H 0.08654 0.07562 0.03772 0.0
C34 C 0.17766 0.81417 0.22763 0.0
N35 N 0.25121 0.7185 0.19462 0.0
C36 C 0.222 0.70626 0.19265 0.0
C37 C 0.22275 0.68775 0.16499 0.0
C38 C 0.25349 0.6825 0.13865 0.0
C39 C 0.28342 0.69508 0.14111 0.0
C40 C 0.28185 0.71283 0.16981 0.0
Zn41 Zn 0.24532 0.74971 0.23355 0.0
C42 C 0.28413 0.81255 0.20707 0.0
N43 N 0.22769 0.81877 0.31228 0.0
C44 C 0.19566 0.83009 0.33419 0.0
C45 C 0.25869 0.82699 0.31571 0.0
C46 C 0.25838 0.84735 0.34169 0.0
C47 C 0.22603 0.85903 0.36477 0.0
C48 C 0.19425 0.85032 0.3611 0.0
Zn49 Zn 0.23336 0.78718 0.27376 0.0
O50 O 0.19685 0.78481 0.21547 0.0
C51 C 0.19484 0.72433 0.30051 0.0
O52 O 0.18711 0.82392 0.25299 0.0
H53 H 0.28404 0.81726 0.29859 0.0
H54 H 0.19755 0.71178 0.212 0.0
H55 H 0.17138 0.82307 0.33109 0.0
O56 O 0.21287 0.71482 0.27104 0.0
O57 O 0.19735 0.7542 0.30886 0.0
H58 H 0.30475 0.72285 0.17178 0.0
O59 O 0.28012 0.74979 0.2939 0.0
O60 O 0.29311 0.71471 0.25222 0.0
O61 O 0.26908 0.81977 0.23805 0.0
O62 O 0.2782 0.78515 0.19703 0.0
C63 C 0.30072 0.72209 0.2798 0.0
H64 H 0.19906 0.67866 0.16353 0.0
H65 H 0.30749 0.69143 0.12103 0.0
H66 H 0.28344 0.85335 0.34421 0.0
H67 H 0.16893 0.85885 0.37881 0.0
C68 C 0.52333 0.94299 0.54875 0.0
N69 N 0.5578 0.0372 0.49822 0.0
C70 C 0.56046 0.03762 0.53249 0.0
C71 C 0.58665 0.05197 0.54049 0.0
C72 C 0.61012 0.06696 0.51308 0.0
C73 C 0.60633 0.06742 0.47781 0.0
C74 C 0.58002 0.05189 0.4709 0.0
Zn75 Zn 0.51919 0.01198 0.49187 0.0
C76 C 0.54831 0.95333 0.4458 0.0
N77 N 0.43959 0.95485 0.49017 0.0
C78 C 0.41551 0.94553 0.51884 0.0
C79 C 0.43455 0.95447 0.45666 0.0
C80 C 0.40323 0.94692 0.45082 0.0
C81 C 0.37697 0.93923 0.4797 0.0
C82 C 0.38387 0.93725 0.51417 0.0
Zn83 Zn 0.47939 0.97847 0.49484 0.0
O84 O 0.53605 0.97038 0.53384 0.0
C85 C 0.45084 0.03448 0.54262 0.0
O86 O 0.4976 0.93679 0.53703 0.0
H87 H 0.45392 0.96197 0.43422 0.0
H88 H 0.54226 0.02663 0.55396 0.0
H89 H 0.41989 0.94628 0.54524 0.0
O90 O 0.48091 0.04246 0.52924 0.0
O91 O 0.44243 0.0092 0.53189 0.0
H92 H 0.57748 0.05143 0.44384 0.0
O93 O 0.46177 0.02067 0.45315 0.0
O94 O 0.50048 0.05395 0.44991 0.0
O95 O 0.51712 0.94757 0.45836 0.0
O96 O 0.55725 0.97942 0.45498 0.0
C97 C 0.47389 0.04862 0.43882 0.0
H98 H 0.5882 0.0518 0.56802 0.0
H99 H 0.62388 0.07903 0.45596 0.0
H100 H 0.39914 0.948 0.42385 0.0
H101 H 0.36422 0.93122 0.53707 0.0
C102 C 0.25351 0.29202 0.78761 0.0
N103 N 0.35859 0.21738 0.78729 0.0
C104 C 0.37402 0.24639 0.77786 0.0
C105 C 0.40823 0.24304 0.78671 0.0
C106 C 0.42671 0.2095 0.80543 0.0
C107 C 0.41046 0.17979 0.81406 0.0
C108 C 0.37625 0.18435 0.80471 0.0
Zn109 Zn 0.30839 0.22206 0.77525 0.0
C110 C 0.26121 0.19182 0.83597 0.0
N111 N 0.20563 0.22705 0.74803 0.0
C112 C 0.18948 0.25836 0.72723 0.0
C113 C 0.19157 0.19707 0.75645 0.0
C114 C 0.16161 0.19688 0.74163 0.0
C115 C 0.14628 0.22775 0.71781 0.0
C116 C 0.15963 0.2593 0.71173 0.0
Zn117 Zn 0.2551 0.22334 0.76113 0.0
O118 O 0.28638 0.27549 0.79215 0.0
C119 C 0.30164 0.25416 0.70026 0.0
O120 O 0.2353 0.27594 0.77522 0.0
H121 H 0.20492 0.17248 0.77299 0.0
H122 H 0.35952 0.27232 0.76394 0.0
H123 H 0.20104 0.28195 0.72095 0.0
O124 O 0.32325 0.24742 0.72287 0.0
O125 O 0.27108 0.24639 0.70937 0.0
H126 H 0.3636 0.16153 0.81176 0.0
O127 O 0.27591 0.17031 0.74588 0.0
O128 O 0.32898 0.17021 0.7578 0.0
O129 O 0.2393 0.2008 0.81344 0.0
O130 O 0.29315 0.19646 0.82706 0.0
C131 C 0.30969 0.15468 0.74615 0.0
H132 H 0.41941 0.26693 0.78011 0.0
H133 H 0.42382 0.15342 0.82828 0.0
H134 H 0.15238 0.17182 0.7467 0.0
H135 H 0.14833 0.28372 0.69373 0.0
C136 C 0.97261 0.03686 0.47778 0.0
N137 N 1.0025 0.922 0.50179 0.0
C138 C 0.9673 0.92258 0.50091 0.0
C139 C 0.95984 0.8955 0.48628 0.0
C140 C 0.98892 0.86806 0.4719 0.0
C141 C 0.02484 0.86707 0.47457 0.0
C142 C 0.03103 0.89427 0.49007 0.0
Zn143 Zn 0.01314 0.96656 0.51507 0.0
C144 C 0.07763 0.98564 0.46838 0.0
N145 N 0.03534 0.05998 0.54194 0.0
C146 C 0.00629 0.08858 0.55093 0.0
C147 C 0.07013 0.06008 0.54363 0.0
C148 C 0.07658 0.08914 0.55606 0.0
C149 C 0.04689 0.118 0.56722 0.0
C150 C 0.01146 0.1179 0.56397 0.0
Zn151 Zn 0.02542 0.01491 0.52929 0.0
O152 O 0.97842 0.00197 0.48056 0.0
C153 C 0.96069 -0.00308 0.57534 0.0
O154 O 0.9898 0.0501 0.49444 0.0
H155 H 0.09276 0.03698 0.5365 0.0
H156 H 0.94505 0.94508 0.50997 0.0
H157 H 0.97888 0.08808 0.54914 0.0
O158 O 0.96793 0.97165 0.55609 0.0
O159 O 0.98122 0.01851 0.57067 0.0
H160 H 0.05879 0.89418 0.49122 0.0
O161 O 0.05976 0.97942 0.56433 0.0
O162 O 0.04754 0.93135 0.551 0.0
O163 O 0.07006 0.01058 0.48802 0.0
O164 O 0.05783 0.96325 0.47325 0.0
C165 C 0.06375 0.94462 0.5687 0.0
H166 H 0.93179 0.89729 0.4843 0.0
H167 H 0.04787 0.84618 0.46381 0.0
H168 H 0.10429 0.08809 0.55861 0.0
H169 H 0.98796 0.13982 0.57219 0.0
C170 C 0.29931 0.67072 0.83373 0.0
N171 N 0.29122 0.78414 0.79598 0.0
C172 C 0.29618 0.78879 0.82824 0.0
C173 C 0.30775 0.81918 0.83168 0.0
C174 C 0.31477 0.84478 0.80158 0.0
C175 C 0.31116 0.83843 0.76836 0.0
C176 C 0.29897 0.80791 0.76618 0.0
Zn177 Zn 0.26601 0.74444 0.79363 0.0
C178 C 0.29469 0.705 0.73448 0.0
N179 N 0.20756 0.66467 0.79322 0.0
C180 C 0.19885 0.63816 0.82003 0.0
C181 C 0.19907 0.66751 0.7603 0.0
C182 C 0.18045 0.64411 0.75346 0.0
C183 C 0.17077 0.61689 0.78047 0.0
C184 C 0.18048 0.61351 0.81409 0.0
Zn185 Zn 0.23405 0.70292 0.79787 0.0
O186 O 0.3034 0.70318 0.82239 0.0
C187 C 0.20399 0.74408 0.85607 0.0
O188 O 0.2713 0.66239 0.82861 0.0
H189 H 0.20665 0.68814 0.73903 0.0
H190 H 0.28999 0.76956 0.85158 0.0
H191 H 0.20599 0.63619 0.84596 0.0
O192 O 0.23047 0.75768 0.84062 0.0
O193 O 0.19791 0.71813 0.84403 0.0
H194 H 0.29447 0.80396 0.74083 0.0
O195 O 0.19811 0.74404 0.76702 0.0
O196 O 0.22904 0.78476 0.76375 0.0
O197 O 0.27003 0.6893 0.7511 0.0
O198 O 0.30042 0.73095 0.74666 0.0
C199 C 0.20258 0.77626 0.75574 0.0
H200 H 0.31082 0.82284 0.8577 0.0
H201 H 0.31631 0.85762 0.74457 0.0
H202 H 0.17372 0.64719 0.72711 0.0
H203 H 0.17339 0.59265 0.8355 0.0
C204 C 0.43938 0.07811 0.02421 0.0
N205 N 0.53416 0.01491 0.06483 0.0
C206 C 0.53713 0.04885 0.0678 0.0
C207 C 0.55194 0.05347 0.09585 0.0
C208 C 0.56408 0.02289 0.1213 0.0
C209 C 0.56168 0.98786 0.11724 0.0
C210 C 0.54629 0.98451 0.08871 0.0
Zn211 Zn 0.50779 0.01344 0.02451 0.0
C212 C 0.4492 0.9699 0.05009 0.0
N213 N 0.44783 0.01763 0.94221 0.0
C214 C 0.43153 0.04796 0.92028 0.0
C215 C 0.44714 0.98292 0.93907 0.0
C216 C 0.43044 0.97745 0.9129 0.0
C217 C 0.41349 0.00796 0.89 0.0
C218 C 0.41365 0.04373 0.89388 0.0
Zn219 Zn 0.47469 0.01945 0.98195 0.0
O220 O 0.46735 0.06102 0.03895 0.0
C221 C 0.53246 0.06384 0.95645 0.0
O222 O 0.43376 0.06661 0.99786 0.0
H223 H 0.45947 0.95917 0.95705 0.0
H224 H 0.52743 0.07272 0.04862 0.0
H225 H 0.43223 0.07533 0.92336 0.0
O226 O 0.53922 0.04956 0.9878 0.0
O227 O 0.5066 0.05605 0.9459 0.0
H228 H 0.54352 0.9578 0.08595 0.0
O229 O 0.51574 0.9721 0.96708 0.0
O230 O 0.54854 0.96544 0.00903 0.0
O231 O 0.44342 0.98326 0.01836 0.0
O232 O 0.47491 0.97771 0.06085 0.0
C233 C 0.54324 0.95432 0.98228 0.0
H234 H 0.55399 0.08082 0.09748 0.0
H235 H 0.57078 0.96357 0.13631 0.0
H236 H 0.43019 0.94955 0.91094 0.0
H237 H 0.40036 0.06786 0.87672 0.0
C238 C 0.20349 0.29638 0.31465 0.0
N239 N 0.20646 0.19964 0.27575 0.0
C240 C 0.20817 0.18316 0.3099 0.0
C241 C 0.20265 0.14798 0.32091 0.0
C242 C 0.19519 0.12946 0.29662 0.0
C243 C 0.19153 0.14781 0.262 0.0
C244 C 0.19756 0.18315 0.25196 0.0
Zn245 Zn 0.22658 0.24487 0.26015 0.0
C246 C 0.18407 0.30644 0.21807 0.0
N247 N 0.27785 0.33278 0.23166 0.0
C248 C 0.29588 0.34367 0.2526 0.0
C249 C 0.27649 0.34874 0.19732 0.0
C250 C 0.29534 0.37531 0.18213 0.0
C251 C 0.31616 0.38552 0.20229 0.0
C252 C 0.31547 0.37018 0.2383 0.0
Zn253 Zn 0.2557 0.28904 0.24819 0.0
O254 O 0.19715 0.26831 0.30654 0.0
C255 C 0.29903 0.22699 0.2893 0.0
O256 O 0.22751 0.31096 0.29467 0.0
H257 H 0.26241 0.33942 0.18099 0.0
H258 H 0.2155 0.19662 0.32831 0.0
H259 H 0.29644 0.3306 0.27989 0.0
O260 O 0.27183 0.2156 0.28715 0.0
O261 O 0.30043 0.2595 0.27472 0.0
H262 H 0.19666 0.19669 0.22484 0.0
O263 O 0.28441 0.2663 0.20136 0.0
O264 O 0.25531 0.22282 0.21402 0.0
O265 O 0.21048 0.31827 0.22172 0.0
O266 O 0.1825 0.27382 0.23233 0.0
C267 C 0.27847 0.23801 0.19348 0.0
H268 H 0.20458 0.13522 0.34818 0.0
H269 H 0.18537 0.13451 0.24268 0.0
H270 H 0.29568 0.38559 0.15408 0.0
H271 H 0.33111 0.3774 0.25476 0.0
C272 C 0.51445 0.49109 0.93055 0.0
N273 N 0.56417 0.37601 0.93724 0.0
C274 C 0.53115 0.36894 0.93992 0.0
C275 C 0.52891 0.33746 0.92832 0.0
C276 C 0.56087 0.3134 0.91333 0.0
C277 C 0.59454 0.32138 0.91064 0.0
C278 C 0.59563 0.3528 0.92325 0.0
Zn279 Zn 0.56732 0.42148 0.95533 0.0
C280 C 0.62227 0.45605 0.90925 0.0
N281 N 0.5775 0.51343 0.99636 0.0
C282 C 0.54744 0.53437 0.01474 0.0
C283 C 0.61142 0.51799 0.9951 0.0
C284 C 0.61631 0.54297 0.01434 0.0
C285 C 0.5861 0.56298 0.03547 0.0
C286 C 0.55119 0.55922 0.03483 0.0
Zn287 Zn 0.57268 0.46942 0.97659 0.0
O288 O 0.52628 0.45728 0.92583 0.0
C289 C 0.51824 0.43449 0.02341 0.0
O290 O 0.52906 0.5035 0.95044 0.0
H291 H 0.63502 0.5008 0.9807 0.0
H292 H 0.5065 0.3878 0.95094 0.0
H293 H 0.5207 0.53047 0.01532 0.0
O294 O 0.52593 0.41454 0.99898 0.0
O295 O 0.53499 0.45904 0.02143 0.0
H296 H 0.6217 0.35862 0.92178 0.0
O297 O 0.61492 0.43528 1.00263 0.0
O298 O 0.60792 0.38661 0.9856 0.0
O299 O 0.61127 0.47829 0.93189 0.0
O300 O 0.60803 0.42939 0.91204 0.0
C301 C 0.62409 0.40056 1.00265 0.0
H302 H 0.50233 0.33247 0.93018 0.0
H303 H 0.61967 0.30344 0.89909 0.0
H304 H 0.64373 0.54487 0.01442 0.0
H305 H 0.52723 0.57444 0.05062 0.0
C306 C 0.77921 0.19729 0.34052 0.0
N307 N 0.79491 0.2976 0.28212 0.0
C308 C 0.78554 0.30748 0.3151 0.0
C309 C 0.79611 0.33652 0.32274 0.0
C310 C 0.81795 0.35534 0.29674 0.0
C311 C 0.82786 0.34435 0.26285 0.0
C312 C 0.81576 0.31535 0.256 0.0
Zn313 Zn 0.7716 0.25748 0.27599 0.0
C314 C 0.81632 0.19805 0.24124 0.0
N315 N 0.71344 0.17763 0.27675 0.0
C316 C 0.68935 0.16382 0.30263 0.0
C317 C 0.72239 0.16631 0.24434 0.0
C318 C 0.70755 0.13998 0.23701 0.0
C319 C 0.68255 0.12536 0.26292 0.0
C320 C 0.67316 0.1377 0.2961 0.0
Zn321 Zn 0.738 0.21692 0.28258 0.0
O322 O 0.78882 0.22586 0.32341 0.0
C323 C 0.69289 0.27755 0.31597 0.0
O324 O 0.75609 0.18588 0.32966 0.0
H325 H 0.74082 0.17807 0.2237 0.0
H326 H 0.76896 0.29333 0.33568 0.0
H327 H 0.68242 0.17329 0.32816 0.0
O328 O 0.72281 0.28606 0.30368 0.0
O329 O 0.68944 0.24654 0.31193 0.0
H330 H 0.82273 0.30729 0.22985 0.0
O331 O 0.72132 0.24824 0.23448 0.0
O332 O 0.75489 0.28736 0.22872 0.0
O333 O 0.78686 0.18854 0.25382 0.0
O334 O 0.81966 0.22861 0.2467 0.0
C335 C 0.73282 0.27555 0.21678 0.0
H336 H 0.7865 0.34439 0.3489 0.0
H337 H 0.84485 0.35778 0.24193 0.0
H338 H 0.71481 0.13194 0.2108 0.0
H339 H 0.6537 0.1272 0.31666 0.0
C340 C 0.94026 0.58259 0.53032 0.0
N341 N 0.035 0.51389 0.56854 0.0
C342 C 0.03932 0.54697 0.57246 0.0
C343 C 0.05319 0.55015 0.60173 0.0
C344 C 0.06308 0.51898 0.62733 0.0
C345 C 0.06003 0.48467 0.62198 0.0
C346 C 0.04551 0.48279 0.59229 0.0
Zn347 Zn 0.0074 0.51541 0.52803 0.0
C348 C 0.94732 0.47343 0.55268 0.0
N349 N 0.94442 0.52662 0.44615 0.0
C350 C 0.92897 0.55793 0.42477 0.0
C351 C 0.94156 0.4928 0.44267 0.0
C352 C 0.92257 0.48936 0.41736 0.0
C353 C 0.90604 0.52095 0.39532 0.0
C354 C 0.90934 0.5557 0.39885 0.0
Zn355 Zn 0.9727 0.52534 0.48595 0.0
O356 O 0.96849 0.564 0.54417 0.0
C357 C 0.03272 0.56671 0.46087 0.0
O358 O 0.93327 0.57225 0.50396 0.0
H359 H 0.95374 0.46822 0.45986 0.0
H360 H 0.03086 0.57139 0.5534 0.0
H361 H 0.93153 0.58456 0.42803 0.0
O362 O 0.04077 0.54999 0.49128 0.0
O363 O 0.00461 0.56242 0.45122 0.0
H364 H 0.04165 0.4568 0.58878 0.0
O365 O 0.01287 0.47833 0.46852 0.0
O366 O 0.04609 0.46752 0.511 0.0
O367 O 0.94114 0.48839 0.52136 0.0
O368 O 0.97344 0.48016 0.56376 0.0
C369 C 0.04034 0.45891 0.48312 0.0
H370 H 0.05573 0.57698 0.60454 0.0
H371 H 0.06746 0.46 0.64116 0.0
H372 H 0.92031 0.46217 0.41533 0.0
H373 H 0.89656 0.58062 0.38227 0.0
C374 C 0.72396 0.75958 0.3107 0.0
N375 N 0.83809 0.73558 0.29063 0.0
C376 C 0.83499 0.77195 0.29121 0.0
C377 C 0.85983 0.78193 0.30646 0.0
C378 C 0.88761 0.75413 0.32172 0.0
C379 C 0.89116 0.717 0.31939 0.0
C380 C 0.86617 0.70831 0.3033 0.0
Zn381 Zn 0.79717 0.72061 0.27604 0.0
C382 C 0.78048 0.65539 0.32496 0.0
N383 N 0.71157 0.68786 0.24673 0.0
C384 C 0.68393 0.71441 0.23255 0.0
C385 C 0.71586 0.65125 0.24608 0.0
C386 C 0.69322 0.64032 0.2288 0.0
C387 C 0.66633 0.66738 0.21162 0.0
C388 C 0.66105 0.70475 0.21452 0.0
Zn389 Zn 0.75197 0.70356 0.26181 0.0
O390 O 0.75804 0.75614 0.30822 0.0
C391 C 0.76889 0.76857 0.21279 0.0
O392 O 0.713 0.74007 0.29428 0.0
H393 H 0.73824 0.6306 0.25712 0.0
H394 H 0.8123 0.79313 0.28127 0.0
H395 H 0.68091 0.74335 0.23343 0.0
O396 O 0.79229 0.76425 0.23308 0.0
O397 O 0.74858 0.7466 0.2184 0.0
H398 H 0.86827 0.67959 0.30238 0.0
O399 O 0.79093 0.66849 0.22957 0.0
O400 O 0.83585 0.68528 0.24271 0.0
O401 O 0.75675 0.66015 0.30492 0.0
O402 O 0.80088 0.67726 0.31939 0.0
C403 C 0.82482 0.66639 0.22576 0.0
H404 H 0.85612 0.81087 0.30812 0.0
H405 H 0.91241 0.69491 0.33076 0.0
H406 H 0.69835 0.61123 0.22686 0.0
H407 H 0.64039 0.72635 0.20181 0.0
C408 C 0.67788 0.32088 0.73101 0.0
N409 N 0.73834 0.22304 0.69192 0.0
C410 C 0.70385 0.22293 0.68893 0.0
C411 C 0.69778 0.20663 0.66249 0.0
C412 C 0.72747 0.18933 0.63916 0.0
C413 C 0.76302 0.18855 0.64327 0.0
C414 C 0.76786 0.2061 0.66983 0.0
Zn415 Zn 0.74153 0.25101 0.73106 0.0
C416 C 0.78582 0.30887 0.70446 0.0
N417 N 0.73926 0.31358 0.81195 0.0
C418 C 0.71047 0.33236 0.83359 0.0
C419 C 0.77419 0.31374 0.8132 0.0
C420 C 0.78141 0.33301 0.83648 0.0
C421 C 0.75254 0.35284 0.85869 0.0
C422 C 0.71656 0.35256 0.85737 0.0
Zn423 Zn 0.73561 0.28512 0.77351 0.0
O424 O 0.69527 0.29261 0.71634 0.0
C425 C 0.69114 0.22789 0.80016 0.0
O426 O 0.68898 0.32704 0.75733 0.0
H427 H 0.7968 0.2994 0.79555 0.0
H428 H 0.68069 0.23572 0.70704 0.0
H429 H 0.68287 0.3322 0.83202 0.0
O430 O 0.70504 0.22087 0.76881 0.0
O431 O 0.69909 0.25404 0.81059 0.0
H432 H 0.79508 0.20631 0.67268 0.0
O433 O 0.78174 0.24258 0.78888 0.0
O434 O 0.78786 0.20903 0.74725 0.0
O435 O 0.77197 0.31533 0.73592 0.0
O436 O 0.77805 0.28275 0.69377 0.0
C437 C 0.79861 0.2141 0.77427 0.0
H438 H 0.67003 0.2072 0.66054 0.0
H439 H 0.78659 0.17518 0.62579 0.0
H440 H 0.80943 0.33304 0.83666 0.0
H441 H 0.69364 0.36802 0.87408 0.0
C442 C 0.6822 0.80604 0.72588 0.0
N443 N 0.76692 0.84684 0.73963 0.0
C444 C 0.76336 0.86793 0.7074 0.0
C445 C 0.76995 0.90283 0.70043 0.0
C446 C 0.78004 0.91641 0.72699 0.0
C447 C 0.78229 0.89448 0.76045 0.0
C448 C 0.7758 0.85948 0.76615 0.0
Zn449 Zn 0.75573 0.79692 0.7486 0.0
C450 C 0.7085 0.78894 0.82061 0.0
N451 N 0.72383 0.69724 0.76852 0.0
C452 C 0.71447 0.68684 0.74088 0.0
C453 C 0.73245 0.67267 0.79793 0.0
C454 C 0.73334 0.63558 0.7997 0.0
C455 C 0.72549 0.62369 0.77084 0.0
C456 C 0.71521 0.64997 0.74145 0.0
Zn457 Zn 0.73444 0.7473 0.76107 0.0
O458 O 0.7067 0.82214 0.72619 0.0
C459 C 0.78164 0.7551 0.68909 0.0
O460 O 0.68618 0.77237 0.73974 0.0
H461 H 0.73998 0.68156 0.81945 0.0
H462 H 0.75589 0.85742 0.68687 0.0
H463 H 0.70808 0.7068 0.71755 0.0
O464 O 0.78543 0.78407 0.69774 0.0
O465 O 0.76204 0.73634 0.71045 0.0
H466 H 0.77814 0.8423 0.79171 0.0
O467 O 0.78391 0.72178 0.78193 0.0
O468 O 0.80413 0.77163 0.77086 0.0
O469 O 0.70593 0.75923 0.81231 0.0
O470 O 0.7271 0.8086 0.79889 0.0
C471 C 0.80856 0.7374 0.78284 0.0
H472 H 0.7688 0.91812 0.6739 0.0
H473 H 0.78983 0.90384 0.78171 0.0
H474 H 0.74018 0.61645 0.82344 0.0
H475 H 0.70873 0.64201 0.71878 0.0
C476 C 0.4473 0.57509 0.53946 0.0
N477 N 0.42606 0.48155 0.51571 0.0
C478 C 0.40426 0.47918 0.54765 0.0
C479 C 0.37843 0.45876 0.55389 0.0
C480 C 0.37562 0.44034 0.52713 0.0
C481 C 0.39668 0.44529 0.49373 0.0
C482 C 0.42173 0.46645 0.48846 0.0
Zn483 Zn 0.46878 0.504 0.50893 0.0
C484 C 0.46809 0.5592 0.44152 0.0
N485 N 0.55659 0.55348 0.49148 0.0
C486 C 0.56802 0.56083 0.51959 0.0
C487 C 0.57828 0.55161 0.45948 0.0
C488 C 0.61401 0.55419 0.45556 0.0
C489 C 0.6274 0.55908 0.48475 0.0
C490 C 0.60366 0.56403 0.51669 0.0
Zn491 Zn 0.5121 0.53343 0.49892 0.0
O492 O 0.43604 0.5484 0.5349 0.0
C493 C 0.51282 0.47907 0.56678 0.0
O494 O 0.48007 0.57624 0.52733 0.0
H495 H 0.56865 0.54576 0.43754 0.0
H496 H 0.40826 0.49144 0.56884 0.0
H497 H 0.55029 0.56196 0.54487 0.0
O498 O 0.48507 0.47329 0.55823 0.0
O499 O 0.52877 0.50179 0.54627 0.0
H500 H 0.43911 0.46909 0.46314 0.0
O501 O 0.54404 0.4896 0.4702 0.0
O502 O 0.50136 0.45994 0.48311 0.0
O503 O 0.49455 0.56588 0.45159 0.0
O504 O 0.45333 0.53447 0.46013 0.0
C505 C 0.533 0.46195 0.46795 0.0
H506 H 0.36299 0.45497 0.58021 0.0
H507 H 0.39524 0.43126 0.47264 0.0
H508 H 0.63136 0.55142 0.43016 0.0
H509 H 0.61307 0.56848 0.53948 0.0
C510 C 0.05847 0.46587 0.01987 0.0
N511 N 0.08645 0.56451 0.97406 0.0
C512 C 0.08878 0.56436 0.00849 0.0
C513 C 0.11628 0.5763 0.01701 0.0
C514 C 0.14157 0.58895 0.98992 0.0
C515 C 0.1377 0.59082 0.95447 0.0
C516 C 0.10981 0.578 0.94705 0.0
Zn517 Zn 0.05 0.53806 0.96655 0.0
C518 C 0.08336 0.48408 0.91679 0.0
N519 N 0.97607 0.4759 0.95974 0.0
C520 C 0.9531 0.46365 0.9879 0.0
C521 C 0.97205 0.47539 0.92592 0.0
C522 C 0.94319 0.46388 0.91932 0.0
C523 C 0.9181 0.4526 0.94773 0.0
C524 C 0.92387 0.45163 0.98246 0.0
Zn525 Zn 0.01339 0.50215 0.96641 0.0
O526 O 0.0692 0.49496 0.00703 0.0
C527 C 0.98118 0.55558 0.01724 0.0
O528 O 0.03357 0.45942 0.00701 0.0
H529 H 0.99046 0.48529 0.90385 0.0
H530 H 0.07009 0.55359 0.02964 0.0
H531 H 0.95656 0.46453 0.01457 0.0
O532 O 0.01051 0.56526 0.00464 0.0
O533 O 0.97453 0.52987 0.00537 0.0
H534 H 0.1076 0.57767 0.91986 0.0
O535 O 0.99392 0.54519 0.92634 0.0
O536 O 0.02953 0.58095 0.92619 0.0
O537 O 0.05337 0.47504 0.92781 0.0
O538 O 0.08947 0.50999 0.92879 0.0
C539 C 0.00427 0.57455 0.91384 0.0
H540 H 0.1182 0.57499 0.04465 0.0
H541 H 0.15678 0.60063 0.93296 0.0
H542 H 0.94022 0.46438 0.89213 0.0
H543 H 0.90515 0.44318 0.00512 0.0
H544 H 0.29528 0.1266 0.87287 0.0
H545 H 0.10825 0.12914 1.00128 0.0
H546 H 0.20009 0.21966 0.87967 0.0
H547 H 0.17883 0.03309 0.95713 0.0
H548 H 0.15671 0.16103 0.98057 0.0
H549 H 0.26654 0.09284 0.92632 0.0
C550 C 0.26892 0.14029 0.88645 0.0
C551 C 0.24939 0.17536 0.87191 0.0
C552 C 0.16194 0.13255 0.97643 0.0
C553 C 0.21709 0.13774 0.93242 0.0
C554 C 0.13437 0.11434 0.98822 0.0
C555 C 0.13932 0.07892 0.97984 0.0
C556 C 0.1944 0.1152 0.95608 0.0
C557 C 0.17368 0.06091 0.96303 0.0
C558 C 0.25264 0.12115 0.91676 0.0
C559 C 0.21547 0.19226 0.89003 0.0
N560 N 0.1998 0.07957 0.95098 0.0
N561 N 0.20011 0.17307 0.91923 0.0
H562 H 0.00361 0.89414 0.09985 0.0
H563 H 0.14345 0.88795 0.22893 0.0
H564 H 0.04323 0.98774 0.10426 0.0
H565 H 0.13838 0.7918 0.18934 0.0
H566 H 0.09374 0.92585 0.1962 0.0
H567 H 0.03994 0.85747 0.14612 0.0
C568 C 0.01934 0.90715 0.11107 0.0
C569 C 0.02085 0.9438 0.098 0.0
C570 C 0.10331 0.89636 0.19509 0.0
C571 C 0.06208 0.90234 0.1507 0.0
C572 C 0.13154 0.87476 0.21378 0.0
C573 C 0.14532 0.83685 0.21139 0.0
C574 C 0.08849 0.87973 0.17444 0.0
C575 C 0.12889 0.82108 0.19145 0.0
C576 C 0.04017 0.88622 0.13725 0.0
C577 C 0.04173 0.95938 0.11333 0.0
N578 N 0.10141 0.84262 0.17363 0.0
N579 N 0.06169 0.9385 0.13876 0.0
H580 H 0.33081 0.98549 0.43588 0.0
H581 H 0.23438 0.82994 0.433 0.0
H582 H 0.3441 0.88294 0.50874 0.0
H583 H 0.2242 0.93161 0.35929 0.0
H584 H 0.25985 0.85627 0.47165 0.0
H585 H 0.27874 0.97352 0.41802 0.0
C586 C 0.32242 0.96058 0.44836 0.0
C587 C 0.34219 0.93469 0.47317 0.0
C588 C 0.25097 0.87333 0.44761 0.0
C589 C 0.28286 0.92055 0.45266 0.0
C590 C 0.23606 0.85844 0.42581 0.0
C591 C 0.22738 0.87875 0.3931 0.0
C592 C 0.25767 0.90847 0.43612 0.0
C593 C 0.23063 0.91521 0.38443 0.0
C594 C 0.29261 0.95381 0.43829 0.0
C595 C 0.32976 0.90334 0.4892 0.0
N596 N 0.24619 0.9287 0.4055 0.0
N597 N 0.30129 0.89673 0.47813 0.0
H598 H 0.28001 0.12336 0.70545 0.0
H599 H 0.47097 0.07106 0.58542 0.0
H600 H 0.38188 0.11718 0.73912 0.0
H601 H 0.38062 0.03261 0.57165 0.0
H602 H 0.43654 0.09081 0.64097 0.0
H603 H 0.31453 0.08873 0.65743 0.0
C604 C 0.30953 0.11378 0.70344 0.0
C605 C 0.32819 0.12401 0.72572 0.0
C606 C 0.42427 0.07796 0.62585 0.0
C607 C 0.36756 0.08545 0.67055 0.0
C608 C 0.44367 0.06722 0.59387 0.0
C609 C 0.42847 0.05047 0.57381 0.0
C610 C 0.3892 0.07241 0.63764 0.0
C611 C 0.39321 0.04562 0.58631 0.0
C612 C 0.32919 0.09427 0.67587 0.0
C613 C 0.36641 0.11062 0.72206 0.0
N614 N 0.37457 0.0568 0.61741 0.0
N615 N 0.38491 0.09277 0.6944 0.0
H616 H 0.10618 0.96293 0.60714 0.0
H617 H 0.14957 0.76341 0.72654 0.0
H618 H 0.06977 0.87081 0.59218 0.0
H619 H 0.203 0.84806 0.72796 0.0
H620 H 0.11555 0.80466 0.68109 0.0
H621 H 0.13844 0.9229 0.65443 0.0
C622 C 0.10511 0.93423 0.61368 0.0
C623 C 0.08527 0.92015 0.59569 0.0
C624 C 0.13462 0.81426 0.69144 0.0
C625 C 0.12179 0.87438 0.64998 0.0
C626 C 0.15389 0.79082 0.71756 0.0
C627 C 0.17924 0.8023 0.73098 0.0
C628 C 0.14062 0.84948 0.67875 0.0
C629 C 0.18378 0.83807 0.71827 0.0
C630 C 0.12349 0.91143 0.64071 0.0
C631 C 0.08481 0.88279 0.60529 0.0
N632 N 0.1647 0.86039 0.69277 0.0
N633 N 0.10269 0.86122 0.6319 0.0
H634 H 0.37126 0.8724 0.76302 0.0
H635 H 0.34017 0.02174 0.89157 0.0
H636 H 0.28127 0.89337 0.84837 0.0
H637 H 0.44426 0.97543 0.83131 0.0
H638 H 0.31095 0.99038 0.86086 0.0
H639 H 0.39104 0.9243 0.77409 0.0
C640 C 0.35539 0.8883 0.78371 0.0
C641 C 0.32503 0.87825 0.80528 0.0
C642 C 0.34002 0.98797 0.8536 0.0
C643 C 0.34716 0.9376 0.81781 0.0
C644 C 0.35654 0.00622 0.87078 0.0
C645 C 0.39452 0.001 0.8638 0.0
C646 C 0.3618 0.9644 0.82948 0.0
C647 C 0.41481 0.98008 0.8372 0.0
C648 C 0.36667 0.91783 0.79002 0.0
C649 C 0.30532 0.89977 0.83167 0.0
N650 N 0.39829 0.96205 0.82131 0.0
N651 N 0.31687 0.92825 0.83738 0.0
H652 H 0.36468 0.09988 0.02806 0.0
H653 H 0.34157 0.25083 0.15326 0.0
H654 H 0.4551 0.12757 0.0559 0.0
H655 H 0.26245 0.18851 0.16108 0.0
H656 H 0.37854 0.21884 0.10419 0.0
H657 H 0.32208 0.14587 0.06346 0.0
C658 C 0.37548 0.11627 0.04091 0.0
C659 C 0.41331 0.10981 0.03947 0.0
C660 C 0.35285 0.21255 0.11644 0.0
C661 C 0.36519 0.1621 0.07953 0.0
C662 C 0.33175 0.23079 0.14437 0.0
C663 C 0.2992 0.22188 0.16159 0.0
C664 C 0.34106 0.18562 0.1054 0.0
C665 C 0.28767 0.1958 0.14886 0.0
C666 C 0.35127 0.14222 0.06123 0.0
C667 C 0.42605 0.13151 0.05673 0.0
N668 N 0.30869 0.17842 0.12161 0.0
N669 N 0.40204 0.15658 0.07619 0.0
H670 H 0.14571 0.99219 0.46785 0.0
H671 H 0.1409 0.10205 0.2854 0.0
H672 H 0.0755 0.97976 0.4004 0.0
H673 H 0.23795 0.07106 0.33503 0.0
H674 H 0.12357 0.04707 0.31972 0.0
H675 H 0.18749 0.00891 0.41542 0.0
C676 C 0.13969 0.99212 0.44184 0.0
C677 C 0.10699 0.98552 0.43811 0.0
C678 C 0.14929 0.05158 0.32229 0.0
C679 C 0.15353 0.00609 0.37814 0.0
C680 C 0.15915 0.08301 0.30267 0.0
C681 C 0.19008 0.09175 0.30856 0.0
C682 C 0.17023 0.02944 0.34826 0.0
C683 C 0.21304 0.06598 0.3309 0.0
C684 C 0.16352 0.00155 0.41188 0.0
C685 C 0.1004 0.98522 0.40409 0.0
N686 N 0.20214 0.03648 0.35073 0.0
N687 N 0.1229 0.99671 0.37521 0.0
H688 H 0.82615 0.12542 0.23845 0.0
H689 H 0.95572 0.12201 0.05191 0.0
H690 H 0.86577 0.2204 0.18612 0.0
H691 H 0.8806 0.05336 0.09145 0.0
H692 H 0.93067 0.15521 0.10302 0.0
H693 H 0.85732 0.09305 0.18852 0.0
C694 C 0.84211 0.13918 0.2167 0.0
C695 C 0.84309 0.17577 0.21616 0.0
C696 C 0.91957 0.13309 0.10018 0.0
C697 C 0.87814 0.13916 0.15854 0.0
C698 C 0.93359 0.11432 0.07098 0.0
C699 C 0.92024 0.08481 0.06746 0.0
C700 C 0.89251 0.1218 0.12614 0.0
C701 C 0.89172 0.0759 0.09301 0.0
C702 C 0.85955 0.12084 0.18804 0.0
C703 C 0.8644 0.19217 0.18748 0.0
N704 N 0.8791 0.09406 0.12143 0.0
N705 N 0.88084 0.17385 0.15942 0.0
H706 H 0.01124 0.63276 0.4158 0.0
H707 H 0.20707 0.64798 0.31278 0.0
H708 H 0.10792 0.55555 0.45103 0.0
H709 H 0.12802 0.74669 0.34322 0.0
H710 H 0.16839 0.61023 0.35192 0.0
H711 H 0.04994 0.67148 0.3781 0.0
C712 C 0.04058 0.62373 0.41553 0.0
C713 C 0.05606 0.59061 0.437 0.0
C714 C 0.15947 0.64015 0.35001 0.0
C715 C 0.101 0.63472 0.39265 0.0
C716 C 0.18155 0.66184 0.32752 0.0
C717 C 0.17119 0.70086 0.32457 0.0
C718 C 0.12575 0.65732 0.36899 0.0
C719 C 0.13752 0.71685 0.34464 0.0
C720 C 0.06268 0.64602 0.39404 0.0
C721 C 0.09448 0.58078 0.43528 0.0
N722 N 0.11596 0.69524 0.36541 0.0
N723 N 0.11546 0.60224 0.41332 0.0
H724 H 0.53344 0.868 0.57334 0.0
H725 H 0.65436 0.88053 0.71146 0.0
H726 H 0.54421 0.96943 0.59795 0.0
H727 H 0.63879 0.77657 0.69841 0.0
H728 H 0.60726 0.91338 0.67493 0.0
H729 H 0.56514 0.83337 0.62379 0.0
C730 C 0.54196 0.88291 0.58968 0.0
C731 C 0.53716 0.92135 0.58114 0.0
C732 C 0.61374 0.88338 0.68024 0.0
C733 C 0.57286 0.88255 0.6383 0.0
C734 C 0.64072 0.86465 0.70108 0.0
C735 C 0.65069 0.82587 0.70754 0.0
C736 C 0.59707 0.86318 0.66507 0.0
C737 C 0.63189 0.80659 0.69385 0.0
C738 C 0.56002 0.86328 0.61833 0.0
C739 C 0.54833 0.93963 0.60309 0.0
N740 N 0.6063 0.82546 0.67268 0.0
N741 N 0.5659 0.92007 0.63038 0.0
H742 H 0.58852 0.29553 0.84694 0.0
H743 H 0.44617 0.1766 0.87053 0.0
H744 H 0.52676 0.25962 0.94611 0.0
H745 H 0.48499 0.23684 0.77111 0.0
H746 H 0.4949 0.1852 0.89663 0.0
H747 H 0.57012 0.2531 0.81876 0.0
C748 C 0.57192 0.27793 0.86296 0.0
C749 C 0.55814 0.2817 0.89857 0.0
C750 C 0.49321 0.19586 0.86888 0.0
C751 C 0.53694 0.23364 0.86669 0.0
C752 C 0.46549 0.1908 0.85386 0.0
C753 C 0.46079 0.20708 0.81884 0.0
C754 C 0.51612 0.21759 0.84886 0.0
C755 C 0.48684 0.22501 0.79858 0.0
C756 C 0.56133 0.25388 0.84688 0.0
C757 C 0.53708 0.25811 0.91832 0.0
N758 N 0.51297 0.23047 0.8141 0.0
N759 N 0.52657 0.23549 0.90197 0.0
H760 H 0.89831 0.72485 0.38963 0.0
H761 H 0.01916 0.85748 0.40422 0.0
H762 H 0.92743 0.8056 0.30235 0.0
H763 H 0.94177 0.82369 0.49159 0.0
H764 H 1.0008 0.82345 0.36671 0.0
H765 H 0.92955 0.74628 0.42721 0.0
C766 C 0.91192 0.74659 0.37825 0.0
C767 C 0.91026 0.76369 0.34299 0.0
C768 C 0.98829 0.82309 0.39424 0.0
C769 C 0.94593 0.78801 0.38553 0.0
C770 C 0.99888 0.8422 0.41565 0.0
C771 C 0.98178 0.84336 0.45091 0.0
C772 C 0.96091 0.8046 0.40843 0.0
C773 C 0.95536 0.82355 0.46444 0.0
C774 C 0.92948 0.75889 0.39969 0.0
C775 C 0.92795 0.79198 0.32952 0.0
N776 N 0.94564 0.80495 0.44312 0.0
N777 N 0.94508 0.80334 0.35087 0.0
H778 H 0.37351 0.58846 0.55693 0.0
H779 H 0.35946 0.71886 0.6989 0.0
H780 H 0.46528 0.62465 0.57061 0.0
H781 H 0.27738 0.66434 0.6939 0.0
H782 H 0.39514 0.69478 0.64492 0.0
H783 H 0.33415 0.62761 0.59918 0.0
C784 C 0.38531 0.60496 0.56863 0.0
C785 C 0.42279 0.60285 0.56081 0.0
C786 C 0.36917 0.68843 0.65559 0.0
C787 C 0.37797 0.64738 0.60959 0.0
C788 C 0.34887 0.7021 0.6863 0.0
C789 C 0.31578 0.69304 0.70109 0.0
C790 C 0.35593 0.66596 0.63964 0.0
C791 C 0.30307 0.67147 0.68372 0.0
C792 C 0.36283 0.6273 0.59278 0.0
C793 C 0.43652 0.62529 0.57623 0.0
N794 N 0.32325 0.65856 0.65403 0.0
N795 N 0.41415 0.64632 0.6004 0.0
H796 H 0.53624 0.08897 0.88386 0.0
H797 H 0.66768 0.22293 0.87311 0.0
H798 H 0.57908 0.09799 0.97484 0.0
H799 H 0.65667 0.18142 0.78179 0.0
H800 H 0.62873 0.18464 0.91067 0.0
H801 H 0.57311 0.12938 0.84651 0.0
C802 C 0.55329 0.09937 0.89614 0.0
C803 C 0.55443 0.08938 0.93288 0.0
C804 C 0.63488 0.18382 0.88242 0.0
C805 C 0.59691 0.13677 0.88971 0.0
C806 C 0.65714 0.2059 0.8608 0.0
C807 C 0.66615 0.20551 0.8239 0.0
C808 C 0.62057 0.16134 0.8673 0.0
C809 C 0.65106 0.18271 0.80995 0.0
C810 C 0.57452 0.1225 0.87465 0.0
C811 C 0.57722 0.10435 0.94679 0.0
N812 N 0.62914 0.16194 0.83141 0.0
N813 N 0.59717 0.12717 0.92545 0.0
H814 H 0.10233 0.48038 0.05849 0.0
H815 H 0.13803 0.28568 0.18485 0.0
H816 H 0.04918 0.39696 0.05248 0.0
H817 H 0.17111 0.38069 0.19743 0.0
H818 H 0.10313 0.32469 0.13824 0.0
H819 H 0.12698 0.44264 0.11008 0.0
C820 C 0.0959 0.45394 0.06795 0.0
C821 C 0.07379 0.44173 0.0509 0.0
C822 C 0.11764 0.33698 0.15163 0.0
C823 C 0.10214 0.39799 0.11071 0.0
C824 C 0.13736 0.31483 0.17831 0.0
C825 C 0.15781 0.32992 0.19469 0.0
C826 C 0.1186 0.37425 0.1415 0.0
C827 C 0.15617 0.36775 0.18519 0.0
C828 C 0.10987 0.4324 0.09772 0.0
C829 C 0.06625 0.40731 0.06477 0.0
N830 N 0.13724 0.38842 0.15909 0.0
N831 N 0.08064 0.38641 0.09385 0.0
H832 H 0.62845 0.44688 0.84014 0.0
H833 H 0.67662 0.5966 0.74875 0.0
H834 H 0.6823 0.47697 0.91248 0.0
H835 H 0.77463 0.56127 0.79743 0.0
H836 H 0.66622 0.53559 0.76939 0.0
H837 H 0.66969 0.4709 0.79014 0.0
C838 C 0.64957 0.45769 0.84541 0.0
C839 C 0.65129 0.46166 0.88001 0.0
C840 C 0.69097 0.54045 0.7742 0.0
C841 C 0.69801 0.48841 0.8239 0.0
C842 C 0.69679 0.57557 0.76258 0.0
C843 C 0.72556 0.58451 0.77294 0.0
C844 C 0.71356 0.51477 0.79699 0.0
C845 C 0.75101 0.55599 0.79052 0.0
C846 C 0.67296 0.47128 0.81704 0.0
C847 C 0.67938 0.47491 0.8859 0.0
N848 N 0.7437 0.5227 0.80317 0.0
N849 N 0.70135 0.48839 0.85801 0.0
H850 H 0.74944 0.3359 0.1728 0.0
H851 H 0.63433 0.32643 0.02749 0.0
H852 H 0.69324 0.25119 0.18028 0.0
H853 H 0.67277 0.42119 0.03083 0.0
H854 H 0.66802 0.29181 0.07595 0.0
H855 H 0.73199 0.36162 0.11417 0.0
C856 C 0.7334 0.32275 0.16213 0.0
C857 C 0.72223 0.29177 0.18163 0.0
C858 C 0.66948 0.32001 0.06567 0.0
C859 C 0.70265 0.32068 0.11458 0.0
C860 C 0.6505 0.33965 0.03789 0.0
C861 C 0.65021 0.37689 0.02579 0.0
C862 C 0.68823 0.33786 0.08115 0.0
C863 C 0.67172 0.3927 0.03997 0.0
C864 C 0.72363 0.33731 0.12863 0.0
C865 C 0.70193 0.2755 0.16637 0.0
N866 N 0.68951 0.37323 0.06728 0.0
N867 N 0.69262 0.29029 0.13377 0.0
H868 H 0.92747 0.5127 0.32556 0.0
H869 H 0.83396 0.36073 0.36065 0.0
H870 H 0.83711 0.51369 0.41075 0.0
H871 H 0.83019 0.41971 0.25379 0.0
H872 H 0.84652 0.41301 0.3777 0.0
H873 H 0.90101 0.47871 0.29449 0.0
C874 C 0.90111 0.50746 0.33676 0.0
C875 C 0.8842 0.516 0.37056 0.0
C876 C 0.84264 0.41455 0.35057 0.0
C877 C 0.85506 0.4762 0.3363 0.0
C878 C 0.83528 0.38475 0.3407 0.0
C879 C 0.82975 0.38596 0.30583 0.0
C880 C 0.84593 0.44555 0.32532 0.0
C881 C 0.83409 0.41741 0.28097 0.0
C882 C 0.88623 0.48791 0.31921 0.0
C883 C 0.85071 0.50772 0.3846 0.0
N884 N 0.84224 0.44601 0.29114 0.0
N885 N 0.83774 0.48728 0.3679 0.0
H886 H 0.65495 0.61231 0.49862 0.0
H887 H 0.77598 0.58477 0.33027 0.0
H888 H 0.68736 0.5067 0.46123 0.0
H889 H 0.78575 0.66297 0.39155 0.0
H890 H 0.75819 0.54617 0.38493 0.0
H891 H 0.71453 0.62263 0.47129 0.0
C892 C 0.67523 0.59067 0.48584 0.0
C893 C 0.666 0.55943 0.48065 0.0
C894 C 0.76527 0.57116 0.38674 0.0
C895 C 0.73342 0.57122 0.44873 0.0
C896 C 0.77527 0.5932 0.35544 0.0
C897 C 0.78105 0.62741 0.35672 0.0
C898 C 0.75929 0.58451 0.41919 0.0
C899 C 0.78066 0.63696 0.38975 0.0
C900 C 0.7093 0.59648 0.47021 0.0
C901 C 0.69323 0.53188 0.46444 0.0
N902 N 0.76849 0.61626 0.41985 0.0
N903 N 0.72543 0.53889 0.44804 0.0
H904 H 0.76971 0.33056 0.92552 0.0
H905 H 0.87322 0.48942 0.89863 0.0
H906 H 0.75969 0.42286 0.84073 0.0
H907 H 0.8886 0.39464 0.98114 0.0
H908 H 0.82316 0.47116 0.88382 0.0
H909 H 0.80345 0.35972 0.95366 0.0
C910 C 0.77335 0.35774 0.91368 0.0
C911 C 0.76144 0.37482 0.88122 0.0
C912 C 0.83723 0.45443 0.90536 0.0
C913 C 0.80114 0.40757 0.9122 0.0
C914 C 0.86604 0.46472 0.91367 0.0
C915 C 0.88565 0.44312 0.94072 0.0
C916 C 0.82794 0.42209 0.92403 0.0
C917 C 0.87438 0.412 0.95997 0.0
C918 C 0.79298 0.37416 0.92944 0.0
C919 C 0.76777 0.40937 0.8662 0.0
N920 N 0.84658 0.40213 0.95095 0.0
N921 N 0.78755 0.42442 0.88157 0.0
H922 H 0.75462 0.76702 0.14729 0.0
H923 H 0.84861 0.87562 0.02336 0.0
H924 H 0.77624 0.83767 0.20982 0.0
H925 H 0.78733 0.96556 0.081 0.0
H926 H 0.81125 0.83648 0.06031 0.0
H927 H 0.75825 0.81486 0.0948 0.0
C928 C 0.75942 0.7929 0.15001 0.0
C929 C 0.76602 0.79838 0.18245 0.0
C930 C 0.80484 0.86528 0.06381 0.0
C931 C 0.76931 0.85275 0.1235 0.0
C932 C 0.8262 0.88769 0.04268 0.0
C933 C 0.82183 0.92341 0.05007 0.0
C934 C 0.77966 0.87875 0.09263 0.0
C935 C 0.79237 0.93763 0.07541 0.0
C936 C 0.76145 0.81998 0.12022 0.0
C937 C 0.77184 0.83224 0.18498 0.0
N938 N 0.77328 0.91477 0.0968 0.0
N939 N 0.77349 0.85817 0.15577 0.0
H940 H 0.8255 0.13982 0.76886 0.0
H941 H 0.90859 0.02484 0.90862 0.0
H942 H 0.84058 0.22589 0.81705 0.0
H943 H 0.96487 0.10879 0.90341 0.0
H944 H 0.87596 0.06332 0.86098 0.0
H945 H 0.8699 0.09396 0.80327 0.0
C946 C 0.83847 0.14909 0.78633 0.0
C947 C 0.82893 0.18659 0.79055 0.0
C948 C 0.89612 0.07296 0.86952 0.0
C949 C 0.87915 0.13446 0.83027 0.0
C950 C 0.91453 0.05115 0.89701 0.0
C951 C 0.93941 0.0637 0.91009 0.0
C952 C 0.90222 0.1079 0.85528 0.0
C953 C 0.946 0.09802 0.89406 0.0
C954 C 0.86347 0.1229 0.80625 0.0
C955 C 0.84669 0.19715 0.81343 0.0
N956 N 0.92698 0.11925 0.86794 0.0
N957 N 0.87082 0.17123 0.83249 0.0
H958 H 0.68474 0.22238 0.58791 0.0
H959 H 0.66114 0.03313 0.55676 0.0
H960 H 0.75277 0.11676 0.62832 0.0
H961 H 0.62014 0.13676 0.4913 0.0
H962 H 0.69819 0.06242 0.58025 0.0
H963 H 0.66402 0.19176 0.54927 0.0
C964 C 0.69581 0.19277 0.58808 0.0
C965 C 0.72037 0.17198 0.61133 0.0
C966 C 0.68166 0.07865 0.56027 0.0
C967 C 0.69619 0.13656 0.56784 0.0
C968 C 0.6605 0.06195 0.5469 0.0
C969 C 0.63744 0.08267 0.52223 0.0
C970 C 0.67918 0.11661 0.54948 0.0
C971 C 0.63763 0.11984 0.51023 0.0
C972 C 0.684 0.17529 0.56604 0.0
C973 C 0.73389 0.13373 0.61065 0.0
N974 N 0.65766 0.13583 0.52444 0.0
N975 N 0.72112 0.11711 0.58972 0.0
H976 H 0.62191 0.94643 0.42428 0.0
H977 H 0.64907 0.77459 0.3227 0.0
H978 H 0.53391 0.90207 0.4148 0.0
H979 H 0.73869 0.80948 0.34362 0.0
H980 H 0.6061 0.82377 0.35326 0.0
H981 H 0.6649 0.89968 0.39047 0.0
C982 C 0.61159 0.92713 0.4148 0.0
C983 C 0.57433 0.92801 0.42254 0.0
C984 C 0.63518 0.8206 0.35123 0.0
C985 C 0.62324 0.87441 0.38417 0.0
C986 C 0.65972 0.79245 0.33387 0.0
C987 C 0.69752 0.7878 0.33071 0.0
C988 C 0.64853 0.84439 0.36538 0.0
C989 C 0.70976 0.81191 0.34555 0.0
C990 C 0.63614 0.90033 0.39569 0.0
C991 C 0.56245 0.90227 0.40968 0.0
N992 N 0.68534 0.8392 0.36217 0.0
N993 N 0.58682 0.87649 0.39125 0.0
H994 H 0.78518 0.12423 0.36828 0.0
H995 H 0.95116 0.11276 0.46788 0.0
H996 H 0.82018 0.21942 0.3771 0.0
H997 H 0.92584 0.01708 0.44571 0.0
H998 H 0.89853 0.15268 0.44098 0.0
H999 H 0.83026 0.085 0.40538 0.0
C1000 C 0.80173 0.13699 0.37871 0.0
C1001 C 0.79938 0.17498 0.36923 0.0
C1002 C 0.90455 0.12294 0.44197 0.0
C1003 C 0.85128 0.13037 0.41094 0.0
C1004 C 0.93474 0.10017 0.45708 0.0
C1005 C 0.9431 0.06157 0.45875 0.0
C1006 C 0.88251 0.10698 0.42856 0.0
C1007 C 0.92062 0.04673 0.4447 0.0
C1008 C 0.82771 0.11456 0.39955 0.0
C1009 C 0.82151 0.19011 0.38339 0.0
N1010 N 0.89133 0.06948 0.4302 0.0
N1011 N 0.84685 0.16769 0.40321 0.0
H1012 H 0.71604 0.06358 0.23163 0.0
H1013 H 0.62565 0.97975 0.14901 0.0
H1014 H 0.60958 0.1288 0.27178 0.0
H1015 H 0.53719 0.07803 0.16242 0.0
H1016 H 0.65436 0.99426 0.19315 0.0
H1017 H 0.68707 0.02948 0.20451 0.0
C1018 C 0.68643 0.06999 0.2355 0.0
C1019 C 0.66515 0.09924 0.2537 0.0
C1020 C 0.62879 0.01282 0.18635 0.0
C1021 C 0.63145 0.06005 0.22289 0.0
C1022 C 0.61213 0.00422 0.16147 0.0
C1023 C 0.57945 0.02821 0.15139 0.0
C1024 C 0.61267 0.04579 0.20105 0.0
C1025 C 0.56295 0.05934 0.16864 0.0
C1026 C 0.66978 0.05027 0.2202 0.0
C1027 C 0.62696 0.10639 0.25803 0.0
N1028 N 0.57989 0.0674 0.19232 0.0
N1029 N 0.61134 0.08744 0.24209 0.0
H1030 H 0.72749 0.83205 0.85765 0.0
H1031 H 0.52638 0.90728 0.94829 0.0
H1032 H 0.64294 0.77891 0.85791 0.0
H1033 H 0.61748 0.92732 0.98256 0.0
H1034 H 0.5687 0.85853 0.91693 0.0
H1035 H 0.68889 0.86501 0.90524 0.0
C1036 C 0.701 0.82682 0.86823 0.0
C1037 C 0.68822 0.80294 0.85367 0.0
C1038 C 0.57947 0.8731 0.93176 0.0
C1039 C 0.6436 0.84122 0.90763 0.0
C1040 C 0.55535 0.90106 0.94954 0.0
C1041 C 0.56854 0.92157 0.96776 0.0
C1042 C 0.61723 0.86611 0.9314 0.0
C1043 C 0.60625 0.91217 0.96878 0.0
C1044 C 0.67902 0.8456 0.89544 0.0
C1045 C 0.6538 0.79706 0.86842 0.0
N1046 N 0.62941 0.88556 0.95022 0.0
N1047 N 0.63233 0.81669 0.89412 0.0
H1048 H 0.95315 0.0121 0.64241 0.0
H1049 H 0.7545 0.98076 0.68237 0.0
H1050 H 0.89338 0.99533 0.5673 0.0
H1051 H 0.83746 0.9292 0.74975 0.0
H1052 H 0.79271 0.02098 0.649 0.0
H1053 H 0.89854 0.01398 0.68801 0.0
C1054 C 0.92826 0.0096 0.63546 0.0
C1055 C 0.92768 0.00234 0.60172 0.0
C1056 C 0.80169 0.00184 0.67206 0.0
C1057 C 0.86555 0.00627 0.6525 0.0
C1058 C 0.78012 0.97869 0.69094 0.0
C1059 C 0.79382 0.95009 0.71753 0.0
C1060 C 0.83676 0.99641 0.68024 0.0
C1061 C 0.82624 0.94999 0.72872 0.0
C1062 C 0.89725 0.01105 0.66121 0.0
C1063 C 0.89497 -0.00017 0.59348 0.0
N1064 N 0.84724 0.97208 0.70928 0.0
N1065 N 0.86518 0.00151 0.61886 0.0
H1066 H 0.1312 0.74602 0.87616 0.0
H1067 H 0.09648 0.93277 0.95363 0.0
H1068 H 0.21644 0.78733 0.89736 0.0
H1069 H 0.00883 0.88268 0.95639 0.0
H1070 H 0.14036 0.87797 0.93393 0.0
H1071 H 0.08556 0.7922 0.90892 0.0
C1072 C 0.14037 0.76401 0.88861 0.0
C1073 C 0.17756 0.7633 0.88362 0.0
C1074 C 0.11157 0.87876 0.93892 0.0
C1075 C 0.12575 0.81644 0.92017 0.0
C1076 C 0.08639 0.91029 0.94987 0.0
C1077 C 0.04886 0.91246 0.95643 0.0
C1078 C 0.09929 0.84912 0.93403 0.0
C1079 C 0.03754 0.88222 0.95143 0.0
C1080 C 0.11432 0.79057 0.90699 0.0
C1081 C 0.18798 0.78732 0.90012 0.0
N1082 N 0.06268 0.8518 0.94026 0.0
N1083 N 0.16219 0.81326 0.91715 0.0
H1084 H 0.94095 0.44848 0.62544 0.0
H1085 H 0.80844 0.31657 0.63112 0.0
H1086 H 0.90057 0.44053 0.53261 0.0
H1087 H 0.82022 0.35456 0.72416 0.0
H1088 H 0.84725 0.35569 0.59464 0.0
H1089 H 0.9027 0.40875 0.66154 0.0
C1090 C 0.92422 0.43839 0.61247 0.0
C1091 C 0.92429 0.4484 0.57556 0.0
C1092 C 0.84141 0.35546 0.62305 0.0
C1093 C 0.88013 0.40174 0.61733 0.0
C1094 C 0.81922 0.33289 0.64405 0.0
C1095 C 0.81056 0.33191 0.68115 0.0
C1096 C 0.85603 0.37708 0.63897 0.0
C1097 C 0.82568 0.35415 0.69584 0.0
C1098 C 0.90217 0.41563 0.63326 0.0
C1099 C 0.90162 0.43403 0.5608 0.0
N1100 N 0.84755 0.37534 0.67499 0.0
N1101 N 0.88091 0.41154 0.58146 0.0
H1102 H 0.4342 0.03338 0.39659 0.0
H1103 H 0.35653 0.24347 0.30912 0.0
H1104 H 0.47091 0.12292 0.41697 0.0
H1105 H 0.30938 0.15302 0.31172 0.0
H1106 H 0.40467 0.20007 0.34109 0.0
H1107 H 0.39582 0.07698 0.35633 0.0
C1108 C 0.43439 0.06231 0.39234 0.0
C1109 C 0.45536 0.07467 0.41054 0.0
C1110 C 0.38379 0.18988 0.33447 0.0
C1111 C 0.41081 0.12513 0.36461 0.0
C1112 C 0.35637 0.21455 0.31627 0.0
C1113 C 0.32877 0.20187 0.30797 0.0
C1114 C 0.38367 0.15236 0.34393 0.0
C1115 C 0.32987 0.16417 0.31778 0.0
C1116 C 0.41234 0.08727 0.36936 0.0
C1117 C 0.45498 0.11236 0.40352 0.0
N1118 N 0.35679 0.14087 0.33517 0.0
N1119 N 0.43257 0.1365 0.38134 0.0
H1120 H 0.62617 0.61417 0.02233 0.0
H1121 H 0.63174 0.61156 0.22472 0.0
H1122 H 0.55956 0.55977 0.10604 0.0
H1123 H 0.65838 0.6987 0.14341 0.0
H1124 H 0.60672 0.59042 0.18175 0.0
H1125 H 0.64029 0.64413 0.0661 0.0
C1126 C 0.61424 0.60889 0.04988 0.0
C1127 C 0.59166 0.58457 0.06064 0.0
C1128 C 0.61757 0.61449 0.17349 0.0
C1129 C 0.60807 0.6181 0.11079 0.0
C1130 C 0.6319 0.62645 0.19793 0.0
C1131 C 0.64705 0.65691 0.18756 0.0
C1132 C 0.61918 0.63263 0.13827 0.0
C1133 C 0.64661 0.67531 0.15255 0.0
C1134 C 0.62218 0.62603 0.07479 0.0
C1135 C 0.57683 0.57863 0.09663 0.0
N1136 N 0.63338 0.66258 0.12901 0.0
N1137 N 0.58569 0.59489 0.12052 0.0
H1138 H 0.08663 0.19891 0.73807 0.0
H1139 H 0.09703 0.1589 0.54582 0.0
H1140 H 0.14911 0.24828 0.64642 0.0
H1141 H 0.01053 0.13948 0.63025 0.0
H1142 H 0.11263 0.19699 0.58102 0.0
H1143 H 0.05383 0.18229 0.69866 0.0
C1144 C 0.0929 0.20688 0.7097 0.0
C1145 C 0.12086 0.2246 0.69546 0.0
C1146 C 0.08977 0.18501 0.59161 0.0
C1147 C 0.08401 0.2053 0.65031 0.0
C1148 C 0.08102 0.16318 0.57158 0.0
C1149 C 0.05275 0.14584 0.58537 0.0
C1150 C 0.07062 0.18877 0.62596 0.0
C1151 C 0.03253 0.15245 0.61871 0.0
C1152 C 0.07415 0.19751 0.68722 0.0
C1153 C 0.1277 0.23467 0.65854 0.0
N1154 N 0.0423 0.17286 0.63819 0.0
N1155 N 0.1099 0.22424 0.6372 0.0
H1156 H 0.63396 0.26514 0.36584 0.0
H1157 H 0.59762 0.46302 0.42482 0.0
H1158 H 0.68643 0.35066 0.31074 0.0
H1159 H 0.5202 0.39656 0.46156 0.0
H1160 H 0.6334 0.41795 0.38647 0.0
H1161 H 0.59277 0.30993 0.40356 0.0
C1162 C 0.6364 0.29336 0.36134 0.0
C1163 C 0.66388 0.30412 0.33553 0.0
C1164 C 0.60854 0.41317 0.40286 0.0
C1165 C 0.61781 0.35475 0.37843 0.0
C1166 C 0.58824 0.43882 0.42495 0.0
C1167 C 0.55587 0.43358 0.44631 0.0
C1168 C 0.59661 0.38184 0.40222 0.0
C1169 C 0.54501 0.40166 0.44536 0.0
C1170 C 0.61314 0.31876 0.3829 0.0
C1171 C 0.66605 0.34094 0.33072 0.0
N1172 N 0.56541 0.37685 0.42365 0.0
N1173 N 0.64362 0.36472 0.35215 0.0
H1174 H 0.44067 0.94989 0.12353 0.0
H1175 H 0.30917 0.81598 0.13466 0.0
H1176 H 0.40359 0.93474 0.03157 0.0
H1177 H 0.31594 0.86173 0.22501 0.0
H1178 H 0.34887 0.8534 0.09714 0.0
H1179 H 0.4011 0.91234 0.16125 0.0
C1180 C 0.42444 0.93861 0.11111 0.0
C1181 C 0.42581 0.94591 0.07395 0.0
C1182 C 0.3417 0.85532 0.12517 0.0
C1183 C 0.38013 0.90194 0.11757 0.0
C1184 C 0.31895 0.83378 0.14677 0.0
C1185 C 0.30867 0.83546 0.18339 0.0
C1186 C 0.3553 0.87855 0.14003 0.0
C1187 C 0.32266 0.85936 0.19706 0.0
C1188 C 0.40162 0.91716 0.13281 0.0
C1189 C 0.40368 0.93026 0.0599 0.0
N1190 N 0.34519 0.87953 0.17565 0.0
N1191 N 0.38221 0.90908 0.08147 0.0
H1192 H 0.99058 0.65078 0.90084 0.0
H1193 H 0.83479 0.66272 0.79005 0.0
H1194 H 0.97375 0.55789 0.86477 0.0
H1195 H 0.85936 0.7611 0.80649 0.0
H1196 H 0.88903 0.62494 0.81451 0.0
H1197 H 0.94725 0.69304 0.86274 0.0
C1198 C 0.97846 0.6394 0.88427 0.0
C1199 C 0.98513 0.60091 0.88629 0.0
C1200 C 0.88289 0.65478 0.81267 0.0
C1201 C 0.93574 0.64853 0.84334 0.0
C1202 C 0.85169 0.6764 0.79887 0.0
C1203 C 0.84235 0.71505 0.79665 0.0
C1204 C 0.90484 0.67176 0.82499 0.0
C1205 C 0.86559 0.73129 0.80797 0.0
C1206 C 0.95365 0.66343 0.86274 0.0
C1207 C 0.9688 0.58742 0.86446 0.0
N1208 N 0.89564 0.70948 0.82215 0.0
N1209 N 0.94461 0.61115 0.84426 0.0
H1210 H 0.45571 0.41731 0.0203 0.0
H1211 H 0.30632 0.44524 0.14925 0.0
H1212 H 0.51183 0.4463 0.09153 0.0
H1213 H 0.38712 0.37359 0.2123 0.0
H1214 H 0.35554 0.46413 0.10611 0.0
H1215 H 0.40333 0.417 0.0676 0.0
C1216 C 0.45703 0.42333 0.046 0.0
C1217 C 0.48794 0.43167 0.0523 0.0
C1218 C 0.36215 0.44502 0.12995 0.0
C1219 C 0.42851 0.43172 0.1059 0.0
C1220 C 0.33425 0.43427 0.15454 0.0
C1221 C 0.34278 0.40682 0.18377 0.0
C1222 C 0.39856 0.42867 0.13507 0.0
C1223 C 0.37931 0.39446 0.18994 0.0
C1224 C 0.42707 0.42373 0.07264 0.0
C1225 C 0.48829 0.43973 0.08586 0.0
N1226 N 0.40611 0.40499 0.16532 0.0
N1227 N 0.4591 0.43892 0.11183 0.0
H1228 H 0.49848 0.49815 0.86369 0.0
H1229 H 0.29552 0.62007 0.89439 0.0
H1230 H 0.45673 0.53825 0.96393 0.0
H1231 H 0.371 0.65622 0.80643 0.0
H1232 H 0.34773 0.57349 0.91854 0.0
H1233 H 0.44415 0.54045 0.83969 0.0
C1234 C 0.47775 0.51564 0.88061 0.0
C1235 C 0.48204 0.51524 0.91558 0.0
C1236 C 0.35255 0.5916 0.89385 0.0
C1237 C 0.41998 0.56201 0.88902 0.0
C1238 C 0.323 0.61795 0.88016 0.0
C1239 C 0.32931 0.64202 0.84872 0.0
C1240 C 0.38807 0.58865 0.87512 0.0
C1241 C 0.36527 0.63832 0.83102 0.0
C1242 C 0.44699 0.53959 0.86699 0.0
C1243 C 0.45448 0.53825 0.93664 0.0
N1244 N 0.39337 0.61186 0.84429 0.0
N1245 N 0.42435 0.56058 0.92312 0.0
H1246 H 0.12383 0.47717 0.65727 0.0
H1247 H 0.193 0.54213 0.77771 0.0
H1248 H 0.03036 0.57095 0.67064 0.0
H1249 H 0.10263 0.63864 0.76301 0.0
H1250 H 0.1645 0.50815 0.74919 0.0
H1251 H 0.14793 0.49166 0.70474 0.0
C1252 C 0.10804 0.50034 0.6708 0.0
C1253 C 0.07545 0.52332 0.6596 0.0
C1254 C 0.1506 0.53661 0.75234 0.0
C1255 C 0.10252 0.5402 0.71426 0.0
C1256 C 0.16666 0.55577 0.76921 0.0
C1257 C 0.15015 0.59319 0.77237 0.0
C1258 C 0.118 0.55537 0.73837 0.0
C1259 C 0.11624 0.60982 0.76084 0.0
C1260 C 0.12177 0.50869 0.69806 0.0
C1261 C 0.05603 0.553 0.67793 0.0
N1262 N 0.10155 0.59097 0.74404 0.0
N1263 N 0.07005 0.56078 0.70395 0.0
H1264 H 0.36914 0.25482 0.6628 0.0
H1265 H 0.30539 0.44411 0.56006 0.0
H1266 H 0.25373 0.29802 0.65693 0.0
H1267 H 0.40431 0.36863 0.51755 0.0
H1268 H 0.28301 0.39091 0.59218 0.0
H1269 H 0.38234 0.29488 0.6071 0.0
C1270 C 0.34668 0.27234 0.64945 0.0
C1271 C 0.31037 0.27371 0.66455 0.0
C1272 C 0.30903 0.38603 0.57477 0.0
C1273 C 0.32508 0.31963 0.60154 0.0
C1274 C 0.32173 0.41631 0.55655 0.0
C1275 C 0.35681 0.41052 0.53667 0.0
C1276 C 0.3322 0.35011 0.57383 0.0
C1277 C 0.37712 0.37411 0.5328 0.0
C1278 C 0.35417 0.29487 0.61758 0.0
C1279 C 0.28214 0.2965 0.64615 0.0
N1280 N 0.365 0.34512 0.55219 0.0
N1281 N 0.29003 0.31942 0.61596 0.0
H1282 H 0.24785 0.71586 0.07055 0.0
H1283 H 0.19226 0.54457 0.02953 0.0
H1284 H 0.25543 0.61083 0.13873 0.0
H1285 H 0.15933 0.65565 0.97371 0.0
H1286 H 0.23299 0.56415 0.0579 0.0
H1287 H 0.23225 0.69002 0.02434 0.0
C1288 C 0.24731 0.68702 0.07525 0.0
C1289 C 0.25278 0.66528 0.10824 0.0
C1290 C 0.21743 0.58417 0.03896 0.0
C1291 C 0.23477 0.63583 0.05617 0.0
C1292 C 0.19432 0.57296 0.02271 0.0
C1293 C 0.17215 0.59875 0.99979 0.0
C1294 C 0.21796 0.62159 0.03265 0.0
C1295 C 0.17593 0.63508 0.99146 0.0
C1296 C 0.23822 0.67239 0.04907 0.0
C1297 C 0.25135 0.62832 0.11351 0.0
N1298 N 0.19791 0.6457 0.00848 0.0
N1299 N 0.24216 0.61483 0.08785 0.0
H1300 H 0.63005 0.30076 0.70175 0.0
H1301 H 0.5543 0.50124 0.60265 0.0
H1302 H 0.65172 0.39672 0.72709 0.0
H1303 H 0.50642 0.41157 0.6047 0.0
H1304 H 0.58697 0.46485 0.65099 0.0
H1305 H 0.58174 0.34132 0.66946 0.0
C1306 C 0.62425 0.33049 0.70085 0.0
C1307 C 0.64515 0.34552 0.71669 0.0
C1308 C 0.56888 0.4533 0.64133 0.0
C1309 C 0.59019 0.3922 0.67924 0.0
C1310 C 0.55032 0.47399 0.61362 0.0
C1311 C 0.52799 0.45914 0.59935 0.0
C1312 C 0.56572 0.41716 0.65448 0.0
C1313 C 0.5235 0.42394 0.61482 0.0
C1314 C 0.59656 0.35362 0.68252 0.0
C1315 C 0.63627 0.38411 0.71511 0.0
N1316 N 0.54277 0.40383 0.64117 0.0
N1317 N 0.60986 0.40623 0.69604 0.0
H1318 H 0.89654 0.66556 0.20131 0.0
H1319 H 0.91573 0.54244 0.05095 0.0
H1320 H 0.81071 0.61965 0.18873 0.0
H1321 H 0.99223 0.60471 0.05347 0.0
H1322 H 0.87899 0.56596 0.10446 0.0
H1323 H 0.93519 0.63712 0.15108 0.0
C1324 C 0.88601 0.6491 0.18829 0.0
C1325 C 0.85028 0.64523 0.19899 0.0
C1326 C 0.90377 0.57453 0.09319 0.0
C1327 C 0.89409 0.61304 0.14135 0.0
C1328 C 0.92464 0.56127 0.06258 0.0
C1329 C 0.95698 0.57177 0.04766 0.0
C1330 C 0.9155 0.59823 0.10903 0.0
C1331 C 0.96738 0.59603 0.06395 0.0
C1332 C 0.90796 0.63311 0.15947 0.0
C1333 C 0.83801 0.6236 0.18116 0.0
N1334 N 0.94675 0.60835 0.09382 0.0
N1335 N 0.85983 0.60848 0.15306 0.0
H1336 H 0.87044 0.62096 0.51829 0.0
H1337 H 0.75797 0.71855 0.64936 0.0
H1338 H 0.95468 0.61921 0.57713 0.0
H1339 H 0.85079 0.75701 0.65532 0.0
H1340 H 0.79471 0.68293 0.60309 0.0
H1341 H 0.82926 0.67168 0.5484 0.0
C1342 C 0.88031 0.63132 0.53741 0.0
C1343 C 0.91579 0.6153 0.54574 0.0
C1344 C 0.80685 0.70007 0.61352 0.0
C1345 C 0.86882 0.67297 0.58051 0.0
C1346 C 0.7859 0.72028 0.64012 0.0
C1347 C 0.80141 0.74076 0.65609 0.0
C1348 C 0.84388 0.69974 0.60319 0.0
C1349 C 0.83777 0.7418 0.64344 0.0
C1350 C 0.85673 0.6601 0.55476 0.0
C1351 C 0.92731 0.63022 0.57037 0.0
N1352 N 0.85808 0.72082 0.61825 0.0
N1353 N 0.90386 0.65807 0.58698 0.0
H1354 H 0.47102 0.62978 0.41142 0.0
H1355 H 0.33514 0.64926 0.27433 0.0
H1356 H 0.42837 0.54017 0.40108 0.0
H1357 H 0.33774 0.74029 0.32345 0.0
H1358 H 0.38314 0.6084 0.30767 0.0
H1359 H 0.43606 0.66985 0.36553 0.0
C1360 C 0.45492 0.61835 0.39898 0.0
C1361 C 0.4522 0.5818 0.41025 0.0
C1362 C 0.37344 0.63744 0.31073 0.0
C1363 C 0.41257 0.62718 0.35791 0.0
C1364 C 0.3462 0.66074 0.2917 0.0
C1365 C 0.33223 0.69804 0.29652 0.0
C1366 C 0.38714 0.65179 0.33415 0.0
C1367 C 0.34747 0.71155 0.31935 0.0
C1368 C 0.43487 0.64123 0.37302 0.0
C1369 C 0.43085 0.56835 0.39338 0.0
N1370 N 0.37408 0.6884 0.33741 0.0
N1371 N 0.4117 0.5911 0.36813 0.0
H1372 H 0.19347 0.34038 0.76394 0.0
H1373 H 0.15741 0.47466 0.90739 0.0
H1374 H 0.27063 0.3272 0.83491 0.0
H1375 H 0.07315 0.44677 0.86858 0.0
H1376 H 0.204 0.43473 0.86886 0.0
H1377 H 0.1551 0.39493 0.78906 0.0
C1378 C 0.2026 0.34928 0.78455 0.0
C1379 C 0.23482 0.32875 0.79805 0.0
C1380 C 0.17528 0.43784 0.86857 0.0
C1381 C 0.19084 0.39108 0.82692 0.0
C1382 C 0.14875 0.46058 0.89037 0.0
C1383 C 0.11149 0.46351 0.89137 0.0
C1384 C 0.16422 0.41874 0.84725 0.0
C1385 C 0.10162 0.4448 0.86892 0.0
C1386 C 0.18065 0.3804 0.79884 0.0
C1387 C 0.24574 0.34206 0.82412 0.0
N1388 N 0.12786 0.42314 0.8478 0.0
N1389 N 0.22338 0.37223 0.83824 0.0
H1390 H 0.13739 0.28764 0.35092 0.0
H1391 H 0.11456 0.43258 0.48228 0.0
H1392 H 0.21991 0.34405 0.34915 0.0
H1393 H 0.0239 0.41544 0.44463 0.0
H1394 H 0.15676 0.387 0.44618 0.0
H1395 H 0.09885 0.32145 0.39824 0.0
C1396 C 0.14763 0.30672 0.36082 0.0
C1397 C 0.18172 0.31338 0.34581 0.0
C1398 C 0.12756 0.39293 0.44632 0.0
C1399 C 0.13798 0.35176 0.40005 0.0
C1400 C 0.10354 0.41867 0.46702 0.0
C1401 C 0.06581 0.42788 0.46615 0.0
C1402 C 0.11354 0.37589 0.42533 0.0
C1403 C 0.05288 0.40931 0.44575 0.0
C1404 C 0.12559 0.32605 0.38771 0.0
C1405 C 0.19361 0.33842 0.3597 0.0
N1406 N 0.07669 0.38424 0.42611 0.0
N1407 N 0.17172 0.3568 0.38599 0.0
loop_
_geom_bond_atom_site_label_1
_geom_bond_atom_site_label_2
_geom_bond_distance
_geom_bond_site_symmetry_2
_ccdc_geom_bond_type
C0 O16 1.251 . S
C0 O18 1.254 . S
N1 C2 1.333 . S
N1 C6 1.307 . S
N1 Zn7 2.020 . S
C2 N1 1.333 . S
C2 C3 1.379 . S
C2 H20 0.952 . S
C3 C2 1.379 . S
C3 C4 1.390 . S
C3 H30 0.949 . S
C4 C3 1.390 . S
C4 C5 1.357 . S
C5 C4 1.357 . S
C5 C6 1.370 . S
C5 H31 0.950 . S
C6 N1 1.307 . S
C6 C5 1.370 . S
C6 H24 0.948 1_554 S
Zn7 N1 2.020 . S
Zn7 O16 2.039 1_565 S
Zn7 O22 2.034 1_655 S
Zn7 O26 2.025 1_654 S
Zn7 O28 2.024 1_564 S
C8 O27 1.246 . S
C8 O28 1.249 . S
N9 C10 1.307 . S
N9 C11 1.333 . S
N9 Zn15 2.020 . S
C10 N9 1.307 . S
C10 C14 1.370 . S
C10 H21 0.948 1_556 S
C11 N9 1.333 . S
C11 C12 1.379 . S
C11 H19 0.952 . S
C12 C11 1.379 . S
C12 C13 1.390 . S
C12 H32 0.949 . S
C13 C12 1.390 . S
C13 C14 1.357 . S
C14 C10 1.370 . S
C14 C13 1.357 . S
C14 H33 0.950 . S
Zn15 N9 2.020 . S
Zn15 O18 2.025 1_456 S
Zn15 O23 2.024 1_546 S
Zn15 O25 2.039 1_545 S
Zn15 O27 2.034 1_455 S
O16 C0 1.251 . S
O16 Zn7 2.039 1_545 S
C17 O22 1.246 . S
C17 O23 1.249 . S
O18 C0 1.254 . S
O18 Zn15 2.025 1_654 S
H19 C11 0.952 . S
H20 C2 0.952 . S
H21 C10 0.948 1_554 S
O22 Zn7 2.034 1_455 S
O22 C17 1.246 . S
O23 Zn15 2.024 1_564 S
O23 C17 1.249 . S
H24 C6 0.948 1_556 S
O25 Zn15 2.039 1_565 S
O25 C29 1.251 . S
O26 Zn7 2.025 1_456 S
O26 C29 1.254 . S
O27 C8 1.246 . S
O27 Zn15 2.034 1_655 S
O28 Zn7 2.024 1_546 S
O28 C8 1.249 . S
C29 O25 1.251 . S
C29 O26 1.254 . S
H30 C3 0.949 . S
H31 C5 0.950 . S
H32 C12 0.949 . S
H33 C14 0.950 . S
C34 O50 1.251 . S
C34 O52 1.254 . S
N35 C36 1.333 . S
N35 C40 1.307 . S
N35 Zn41 2.020 . S
C36 N35 1.333 . S
C36 C37 1.379 . S
C36 H54 0.952 . S
C37 C36 1.379 . S
C37 C38 1.390 . S
C37 H64 0.949 . S
C38 C37 1.390 . S
C38 C39 1.357 . S
C39 C38 1.357 . S
C39 C40 1.370 . S
C39 H65 0.950 . S
C40 N35 1.307 . S
C40 C39 1.370 . S
C40 H58 0.948 . S
Zn41 N35 2.020 . S
Zn41 O50 2.039 . S
Zn41 O56 2.034 . S
Zn41 O60 2.025 . S
Zn41 O62 2.024 . S
C42 O61 1.246 . S
C42 O62 1.249 . S
N43 C44 1.307 . S
N43 C45 1.333 . S
N43 Zn49 2.020 . S
C44 N43 1.307 . S
C44 C48 1.370 . S
C44 H55 0.948 . S
C45 N43 1.333 . S
C45 C46 1.379 . S
C45 H53 0.952 . S
C46 C45 1.379 . S
C46 C47 1.390 . S
C46 H66 0.949 . S
C47 C46 1.390 . S
C47 C48 1.357 . S
C48 C44 1.370 . S
C48 C47 1.357 . S
C48 H67 0.950 . S
Zn49 N43 2.020 . S
Zn49 O52 2.025 . S
Zn49 O57 2.024 . S
Zn49 O59 2.039 . S
Zn49 O61 2.034 . S
O50 C34 1.251 . S
O50 Zn41 2.039 . S
C51 O56 1.246 . S
C51 O57 1.249 . S
O52 C34 1.254 . S
O52 Zn49 2.025 . S
H53 C45 0.952 . S
H54 C36 0.952 . S
H55 C44 0.948 . S
O56 Zn41 2.034 . S
O56 C51 1.246 . S
O57 Zn49 2.024 . S
O57 C51 1.249 . S
H58 C40 0.948 . S
O59 Zn49 2.039 . S
O59 C63 1.251 . S
O60 Zn41 2.025 . S
O60 C63 1.254 . S
O61 C42 1.246 . S
O61 Zn49 2.034 . S
O62 Zn41 2.024 . S
O62 C42 1.249 . S
C63 O59 1.251 . S
C63 O60 1.254 . S
H64 C37 0.949 . S
H65 C39 0.950 . S
H66 C46 0.949 . S
H67 C48 0.950 . S
C68 O84 1.251 . S
C68 O86 1.254 . S
N69 C70 1.333 . S
N69 C74 1.307 . S
N69 Zn75 2.020 . S
C70 N69 1.333 . S
C70 C71 1.379 . S
C70 H88 0.952 . S
C71 C70 1.379 . S
C71 C72 1.390 . S
C71 H98 0.949 . S
C72 C71 1.390 . S
C72 C73 1.357 . S
C73 C72 1.357 . S
C73 C74 1.370 . S
C73 H99 0.950 . S
C74 N69 1.307 . S
C74 C73 1.370 . S
C74 H92 0.948 . S
Zn75 N69 2.020 . S
Zn75 O84 2.039 1_545 S
Zn75 O90 2.034 . S
Zn75 O94 2.025 . S
Zn75 O96 2.024 1_545 S
C76 O95 1.246 . S
C76 O96 1.249 . S
N77 C78 1.307 . S
N77 C79 1.333 . S
N77 Zn83 2.020 . S
C78 N77 1.307 . S
C78 C82 1.370 . S
C78 H89 0.948 . S
C79 N77 1.333 . S
C79 C80 1.379 . S
C79 H87 0.952 . S
C80 C79 1.379 . S
C80 C81 1.390 . S
C80 H100 0.949 . S
C81 C80 1.390 . S
C81 C82 1.357 . S
C82 C78 1.370 . S
C82 C81 1.357 . S
C82 H101 0.950 . S
Zn83 N77 2.020 . S
Zn83 O86 2.025 . S
Zn83 O91 2.024 1_565 S
Zn83 O93 2.039 1_565 S
Zn83 O95 2.034 . S
O84 C68 1.251 . S
O84 Zn75 2.039 1_565 S
C85 O90 1.246 . S
C85 O91 1.249 . S
O86 C68 1.254 . S
O86 Zn83 2.025 . S
H87 C79 0.952 . S
H88 C70 0.952 . S
H89 C78 0.948 . S
O90 Zn75 2.034 . S
O90 C85 1.246 . S
O91 Zn83 2.024 1_545 S
O91 C85 1.249 . S
H92 C74 0.948 . S
O93 Zn83 2.039 1_545 S
O93 C97 1.251 . S
O94 Zn75 2.025 . S
O94 C97 1.254 . S
O95 C76 1.246 . S
O95 Zn83 2.034 . S
O96 Zn75 2.024 1_565 S
O96 C76 1.249 . S
C97 O93 1.251 . S
C97 O94 1.254 . S
H98 C71 0.949 . S
H99 C73 0.950 . S
H100 C80 0.949 . S
H101 C82 0.950 . S
C102 O118 1.251 . S
C102 O120 1.254 . S
N103 C104 1.333 . S
N103 C108 1.307 . S
N103 Zn109 2.020 . S
C104 N103 1.333 . S
C104 C105 1.379 . S
C104 H122 0.952 . S
C105 C104 1.379 . S
C105 C106 1.390 . S
C105 H132 0.949 . S
C106 C105 1.390 . S
C106 C107 1.357 . S
C107 C106 1.357 . S
C107 C108 1.370 . S
C107 H133 0.950 . S
C108 N103 1.307 . S
C108 C107 1.370 . S
C108 H126 0.948 . S
Zn109 N103 2.020 . S
Zn109 O118 2.039 . S
Zn109 O124 2.034 . S
Zn109 O128 2.025 . S
Zn109 O130 2.024 . S
C110 O129 1.246 . S
C110 O130 1.249 . S
N111 C112 1.307 . S
N111 C113 1.333 . S
N111 Zn117 2.020 . S
C112 N111 1.307 . S
C112 C116 1.370 . S
C112 H123 0.948 . S
C113 N111 1.333 . S
C113 C114 1.379 . S
C113 H121 0.952 . S
C114 C113 1.379 . S
C114 C115 1.390 . S
C114 H134 0.949 . S
C115 C114 1.390 . S
C115 C116 1.357 . S
C116 C112 1.370 . S
C116 C115 1.357 . S
C116 H135 0.950 . S
Zn117 N111 2.020 . S
Zn117 O120 2.025 . S
Zn117 O125 2.024 . S
Zn117 O127 2.039 . S
Zn117 O129 2.034 . S
O118 C102 1.251 . S
O118 Zn109 2.039 . S
C119 O124 1.246 . S
C119 O125 1.249 . S
O120 C102 1.254 . S
O120 Zn117 2.025 . S
H121 C113 0.952 . S
H122 C104 0.952 . S
H123 C112 0.948 . S
O124 Zn109 2.034 . S
O124 C119 1.246 . S
O125 Zn117 2.024 . S
O125 C119 1.249 . S
H126 C108 0.948 . S
O127 Zn117 2.039 . S
O127 C131 1.251 . S
O128 Zn109 2.025 . S
O128 C131 1.254 . S
O129 C110 1.246 . S
O129 Zn117 2.034 . S
O130 Zn109 2.024 . S
O130 C110 1.249 . S
C131 O127 1.251 . S
C131 O128 1.254 . S
H132 C105 0.949 . S
H133 C107 0.950 . S
H134 C114 0.949 . S
H135 C116 0.950 . S
C136 O152 1.251 . S
C136 O154 1.254 . S
N137 C138 1.333 . S
N137 C142 1.307 1_655 S
N137 Zn143 2.020 . S
C138 N137 1.333 . S
C138 C139 1.379 . S
C138 H156 0.952 . S
C139 C138 1.379 . S
C139 C140 1.390 . S
C139 H166 0.949 . S
C140 C139 1.390 . S
C140 C141 1.357 1_655 S
C141 C140 1.357 1_455 S
C141 C142 1.370 . S
C141 H167 0.950 . S
C142 N137 1.307 1_455 S
C142 C141 1.370 . S
C142 H160 0.948 . S
Zn143 N137 2.020 . S
Zn143 O152 2.039 1_565 S
Zn143 O158 2.034 . S
Zn143 O162 2.025 1_655 S
Zn143 O164 2.025 1_665 S
C144 O163 1.246 . S
C144 O164 1.249 . S
N145 C146 1.307 1_455 S
N145 C147 1.333 . S
N145 Zn151 2.020 . S
C146 N145 1.307 1_655 S
C146 C150 1.370 . S
C146 H157 0.948 . S
C147 N145 1.333 . S
C147 C148 1.379 . S
C147 H155 0.952 . S
C148 C147 1.379 . S
C148 C149 1.390 . S
C148 H168 0.949 . S
C149 C148 1.390 . S
C149 C150 1.357 1_455 S
C150 C146 1.370 . S
C150 C149 1.357 1_655 S
C150 H169 0.950 . S
Zn151 N145 2.020 . S
Zn151 O154 2.025 1_455 S
Zn151 O159 2.024 1_455 S
Zn151 O161 2.039 1_545 S
Zn151 O163 2.034 . S
O152 C136 1.251 . S
O152 Zn143 2.039 1_545 S
C153 O158 1.246 . S
C153 O159 1.249 1_565 S
O154 C136 1.254 . S
O154 Zn151 2.025 1_655 S
H155 C147 0.952 . S
H156 C138 0.952 . S
H157 C146 0.948 . S
O158 Zn143 2.034 . S
O158 C153 1.246 . S
O159 Zn151 2.024 1_655 S
O159 C153 1.249 1_545 S
H160 C142 0.948 . S
O161 Zn151 2.039 1_565 S
O161 C165 1.251 . S
O162 Zn143 2.025 1_455 S
O162 C165 1.254 . S
O163 C144 1.246 . S
O163 Zn151 2.034 . S
O164 Zn143 2.025 1_445 S
O164 C144 1.249 . S
C165 O161 1.251 . S
C165 O162 1.254 . S
H166 C139 0.949 . S
H167 C141 0.950 . S
H168 C148 0.949 . S
H169 C150 0.950 . S
C170 O186 1.251 . S
C170 O188 1.254 . S
N171 C172 1.333 . S
N171 C176 1.307 . S
N171 Zn177 2.020 . S
C172 N171 1.333 . S
C172 C173 1.379 . S
C172 H190 0.952 . S
C173 C172 1.379 . S
C173 C174 1.390 . S
C173 H200 0.949 . S
C174 C173 1.390 . S
C174 C175 1.357 . S
C175 C174 1.357 . S
C175 C176 1.370 . S
C175 H201 0.950 . S
C176 N171 1.307 . S
C176 C175 1.370 . S
C176 H194 0.948 . S
Zn177 N171 2.020 . S
Zn177 O186 2.039 . S
Zn177 O192 2.034 . S
Zn177 O196 2.025 . S
Zn177 O198 2.024 . S
C178 O197 1.246 . S
C178 O198 1.249 . S
N179 C180 1.307 . S
N179 C181 1.333 . S
N179 Zn185 2.020 . S
C180 N179 1.307 . S
C180 C184 1.370 . S
C180 H191 0.948 . S
C181 N179 1.333 . S
C181 C182 1.379 . S
C181 H189 0.952 . S
C182 C181 1.379 . S
C182 C183 1.390 . S
C182 H202 0.949 . S
C183 C182 1.390 . S
C183 C184 1.357 . S
C184 C180 1.370 . S
C184 C183 1.357 . S
C184 H203 0.950 . S
Zn185 N179 2.020 . S
Zn185 O188 2.025 . S
Zn185 O193 2.024 . S
Zn185 O195 2.039 . S
Zn185 O197 2.034 . S
O186 C170 1.251 . S
O186 Zn177 2.039 . S
C187 O192 1.246 . S
C187 O193 1.249 . S
O188 C170 1.254 . S
O188 Zn185 2.025 . S
H189 C181 0.952 . S
H190 C172 0.952 . S
H191 C180 0.948 . S
O192 Zn177 2.034 . S
O192 C187 1.246 . S
O193 Zn185 2.024 . S
O193 C187 1.249 . S
H194 C176 0.948 . S
O195 Zn185 2.039 . S
O195 C199 1.251 . S
O196 Zn177 2.025 . S
O196 C199 1.254 . S
O197 C178 1.246 . S
O197 Zn185 2.034 . S
O198 Zn177 2.024 . S
O198 C178 1.249 . S
C199 O195 1.251 . S
C199 O196 1.254 . S
H200 C173 0.949 . S
H201 C175 0.950 . S
H202 C182 0.949 . S
H203 C184 0.950 . S
C204 O220 1.251 . S
C204 O222 1.254 . S
N205 C206 1.333 . S
N205 C210 1.307 1_545 S
N205 Zn211 2.020 . S
C206 N205 1.333 . S
C206 C207 1.379 . S
C206 H224 0.952 . S
C207 C206 1.379 . S
C207 C208 1.390 . S
C207 H234 0.949 . S
C208 C207 1.390 . S
C208 C209 1.357 1_545 S
C209 C208 1.357 1_565 S
C209 C210 1.370 . S
C209 H235 0.950 . S
C210 N205 1.307 1_565 S
C210 C209 1.370 . S
C210 H228 0.948 . S
Zn211 N205 2.020 . S
Zn211 O220 2.039 . S
Zn211 O226 2.034 1_554 S
Zn211 O230 2.025 1_544 S
Zn211 O232 2.024 1_545 S
C212 O231 1.246 . S
C212 O232 1.249 . S
N213 C214 1.307 1_565 S
N213 C215 1.333 . S
N213 Zn219 2.017 1_565 S
C214 N213 1.307 1_545 S
C214 C218 1.370 . S
C214 H225 0.948 . S
C215 N213 1.333 . S
C215 C216 1.379 . S
C215 H223 0.952 . S
C216 C215 1.379 . S
C216 C217 1.390 . S
C216 H236 0.949 . S
C217 C216 1.390 . S
C217 C218 1.357 1_565 S
C218 C214 1.370 . S
C218 C217 1.357 1_545 S
C218 H237 0.950 . S
Zn219 N213 2.017 1_545 S
Zn219 O222 2.029 1_556 S
Zn219 O227 2.028 . S
Zn219 O229 2.036 1_545 S
Zn219 O231 2.031 1_546 S
O220 C204 1.251 . S
O220 Zn211 2.039 . S
C221 O226 1.246 . S
C221 O227 1.249 . S
O222 C204 1.254 . S
O222 Zn219 2.029 1_554 S
H223 C215 0.952 . S
H224 C206 0.952 . S
H225 C214 0.948 . S
O226 Zn211 2.034 1_556 S
O226 C221 1.246 . S
O227 Zn219 2.028 . S
O227 C221 1.249 . S
H228 C210 0.948 . S
O229 Zn219 2.036 1_565 S
O229 C233 1.251 . S
O230 Zn211 2.025 1_566 S
O230 C233 1.254 . S
O231 C212 1.246 . S
O231 Zn219 2.031 1_564 S
O232 Zn211 2.024 1_565 S
O232 C212 1.249 . S
C233 O229 1.251 . S
C233 O230 1.254 . S
H234 C207 0.949 . S
H235 C209 0.950 . S
H236 C216 0.949 . S
H237 C218 0.950 . S
C238 O254 1.251 . S
C238 O256 1.254 . S
N239 C240 1.333 . S
N239 C244 1.307 . S
N239 Zn245 2.020 . S
C240 N239 1.333 . S
C240 C241 1.379 . S
C240 H258 0.952 . S
C241 C240 1.379 . S
C241 C242 1.390 . S
C241 H268 0.949 . S
C242 C241 1.390 . S
C242 C243 1.357 . S
C243 C242 1.357 . S
C243 C244 1.370 . S
C243 H269 0.950 . S
C244 N239 1.307 . S
C244 C243 1.370 . S
C244 H262 0.948 . S
Zn245 N239 2.020 . S
Zn245 O254 2.039 . S
Zn245 O260 2.034 . S
Zn245 O264 2.025 . S
Zn245 O266 2.024 . S
C246 O265 1.246 . S
C246 O266 1.249 . S
N247 C248 1.307 . S
N247 C249 1.333 . S
N247 Zn253 2.020 . S
C248 N247 1.307 . S
C248 C252 1.370 . S
C248 H259 0.948 . S
C249 N247 1.333 . S
C249 C250 1.379 . S
C249 H257 0.952 . S
C250 C249 1.379 . S
C250 C251 1.390 . S
C250 H270 0.949 . S
C251 C250 1.390 . S
C251 C252 1.357 . S
C252 C248 1.370 . S
C252 C251 1.357 . S
C252 H271 0.950 . S
Zn253 N247 2.020 . S
Zn253 O256 2.025 . S
Zn253 O261 2.024 . S
Zn253 O263 2.039 . S
Zn253 O265 2.034 . S
O254 C238 1.251 . S
O254 Zn245 2.039 . S
C255 O260 1.246 . S
C255 O261 1.249 . S
O256 C238 1.254 . S
O256 Zn253 2.025 . S
H257 C249 0.952 . S
H258 C240 0.952 . S
H259 C248 0.948 . S
O260 Zn245 2.034 . S
O260 C255 1.246 . S
O261 Zn253 2.024 . S
O261 C255 1.249 . S
H262 C244 0.948 . S
O263 Zn253 2.039 . S
O263 C267 1.251 . S
O264 Zn245 2.025 . S
O264 C267 1.254 . S
O265 C246 1.246 . S
O265 Zn253 2.034 . S
O266 Zn245 2.024 . S
O266 C246 1.249 . S
C267 O263 1.251 . S
C267 O264 1.254 . S
H268 C241 0.949 . S
H269 C243 0.950 . S
H270 C250 0.949 . S
H271 C252 0.950 . S
C272 O288 1.251 . S
C272 O290 1.254 . S
N273 C274 1.333 . S
N273 C278 1.307 . S
N273 Zn279 2.020 . S
C274 N273 1.333 . S
C274 C275 1.379 . S
C274 H292 0.952 . S
C275 C274 1.379 . S
C275 C276 1.390 . S
C275 H302 0.949 . S
C276 C275 1.390 . S
C276 C277 1.357 . S
C277 C276 1.357 . S
C277 C278 1.370 . S
C277 H303 0.950 . S
C278 N273 1.307 . S
C278 C277 1.370 . S
C278 H296 0.948 . S
Zn279 N273 2.020 . S
Zn279 O288 2.039 . S
Zn279 O294 2.034 1_556 S
Zn279 O298 2.025 1_556 S
Zn279 O300 2.024 . S
C280 O299 1.246 . S
C280 O300 1.249 . S
N281 C282 1.307 . S
N281 C283 1.333 . S
N281 Zn287 2.020 . S
C282 N281 1.307 . S
C282 C286 1.370 . S
C282 H293 0.948 . S
C283 N281 1.333 . S
C283 C284 1.379 . S
C283 H291 0.952 . S
C284 C283 1.379 . S
C284 C285 1.390 . S
C284 H304 0.949 . S
C285 C284 1.390 . S
C285 C286 1.357 . S
C286 C282 1.370 . S
C286 C285 1.357 . S
C286 H305 0.950 . S
Zn287 N281 2.020 . S
Zn287 O290 2.025 1_554 S
Zn287 O295 2.024 . S
Zn287 O297 2.039 . S
Zn287 O299 2.034 1_554 S
O288 C272 1.251 . S
O288 Zn279 2.039 . S
C289 O294 1.246 . S
C289 O295 1.249 . S
O290 C272 1.254 . S
O290 Zn287 2.025 1_556 S
H291 C283 0.952 . S
H292 C274 0.952 . S
H293 C282 0.948 . S
O294 Zn279 2.034 1_554 S
O294 C289 1.246 . S
O295 Zn287 2.024 . S
O295 C289 1.249 . S
H296 C278 0.948 . S
O297 Zn287 2.039 . S
O297 C301 1.251 . S
O298 Zn279 2.025 1_554 S
O298 C301 1.254 . S
O299 C280 1.246 . S
O299 Zn287 2.034 1_556 S
O300 Zn279 2.024 . S
O300 C280 1.249 . S
C301 O297 1.251 . S
C301 O298 1.254 . S
H302 C275 0.949 . S
H303 C277 0.950 . S
H304 C284 0.949 . S
H305 C286 0.950 . S
C306 O322 1.251 . S
C306 O324 1.254 . S
N307 C308 1.333 . S
N307 C312 1.307 . S
N307 Zn313 2.020 . S
C308 N307 1.333 . S
C308 C309 1.379 . S
C308 H326 0.952 . S
C309 C308 1.379 . S
C309 C310 1.390 . S
C309 H336 0.949 . S
C310 C309 1.390 . S
C310 C311 1.357 . S
C311 C310 1.357 . S
C311 C312 1.370 . S
C311 H337 0.950 . S
C312 N307 1.307 . S
C312 C311 1.370 . S
C312 H330 0.948 . S
Zn313 N307 2.020 . S
Zn313 O322 2.039 . S
Zn313 O328 2.034 . S
Zn313 O332 2.025 . S
Zn313 O334 2.024 . S
C314 O333 1.246 . S
C314 O334 1.249 . S
N315 C316 1.307 . S
N315 C317 1.333 . S
N315 Zn321 2.020 . S
C316 N315 1.307 . S
C316 C320 1.370 . S
C316 H327 0.948 . S
C317 N315 1.333 . S
C317 C318 1.379 . S
C317 H325 0.952 . S
C318 C317 1.379 . S
C318 C319 1.390 . S
C318 H338 0.949 . S
C319 C318 1.390 . S
C319 C320 1.357 . S
C320 C316 1.370 . S
C320 C319 1.357 . S
C320 H339 0.950 . S
Zn321 N315 2.020 . S
Zn321 O324 2.025 . S
Zn321 O329 2.024 . S
Zn321 O331 2.039 . S
Zn321 O333 2.034 . S
O322 C306 1.251 . S
O322 Zn313 2.039 . S
C323 O328 1.246 . S
C323 O329 1.249 . S
O324 C306 1.254 . S
O324 Zn321 2.025 . S
H325 C317 0.952 . S
H326 C308 0.952 . S
H327 C316 0.948 . S
O328 Zn313 2.034 . S
O328 C323 1.246 . S
O329 Zn321 2.024 . S
O329 C323 1.249 . S
H330 C312 0.948 . S
O331 Zn321 2.039 . S
O331 C335 1.251 . S
O332 Zn313 2.025 . S
O332 C335 1.254 . S
O333 C314 1.246 . S
O333 Zn321 2.034 . S
O334 Zn313 2.024 . S
O334 C314 1.249 . S
C335 O331 1.251 . S
C335 O332 1.254 . S
H336 C309 0.949 . S
H337 C311 0.950 . S
H338 C318 0.949 . S
H339 C320 0.950 . S
C340 O356 1.251 . S
C340 O358 1.254 . S
N341 C342 1.333 . S
N341 C346 1.307 . S
N341 Zn347 2.020 . S
C342 N341 1.333 . S
C342 C343 1.379 . S
C342 H360 0.952 . S
C343 C342 1.379 . S
C343 C344 1.390 . S
C343 H370 0.949 . S
C344 C343 1.390 . S
C344 C345 1.357 . S
C345 C344 1.357 . S
C345 C346 1.370 . S
C345 H371 0.950 . S
C346 N341 1.307 . S
C346 C345 1.370 . S
C346 H364 0.948 . S
Zn347 N341 2.020 . S
Zn347 O356 2.039 1_455 S
Zn347 O362 2.034 . S
Zn347 O366 2.025 . S
Zn347 O368 2.024 . S
C348 O367 1.246 . S
C348 O368 1.249 1_655 S
N349 C350 1.307 . S
N349 C351 1.333 . S
N349 Zn355 2.020 . S
C350 N349 1.307 . S
C350 C354 1.370 . S
C350 H361 0.948 . S
C351 N349 1.333 . S
C351 C352 1.379 . S
C351 H359 0.952 . S
C352 C351 1.379 . S
C352 C353 1.390 . S
C352 H372 0.949 . S
C353 C352 1.390 . S
C353 C354 1.357 . S
C354 C350 1.370 . S
C354 C353 1.357 . S
C354 H373 0.950 . S
Zn355 N349 2.020 . S
Zn355 O358 2.025 . S
Zn355 O363 2.023 1_655 S
Zn355 O365 2.039 1_655 S
Zn355 O367 2.034 . S
O356 C340 1.251 . S
O356 Zn347 2.039 1_655 S
C357 O362 1.246 . S
C357 O363 1.252 . S
O358 C340 1.254 . S
O358 Zn355 2.025 . S
H359 C351 0.952 . S
H360 C342 0.952 . S
H361 C350 0.948 . S
O362 Zn347 2.034 . S
O362 C357 1.246 . S
O363 Zn355 2.023 1_455 S
O363 C357 1.252 . S
H364 C346 0.948 . S
O365 Zn355 2.039 1_455 S
O365 C369 1.251 . S
O366 Zn347 2.025 . S
O366 C369 1.254 . S
O367 C348 1.246 . S
O367 Zn355 2.034 . S
O368 Zn347 2.024 . S
O368 C348 1.249 1_455 S
C369 O365 1.251 . S
C369 O366 1.254 . S
H370 C343 0.949 . S
H371 C345 0.950 . S
H372 C352 0.949 . S
H373 C354 0.950 . S
C374 O390 1.251 . S
C374 O392 1.254 . S
N375 C376 1.333 . S
N375 C380 1.307 . S
N375 Zn381 2.020 . S
C376 N375 1.333 . S
C376 C377 1.379 . S
C376 H394 0.952 . S
C377 C376 1.379 . S
C377 C378 1.390 . S
C377 H404 0.949 . S
C378 C377 1.390 . S
C378 C379 1.357 . S
C379 C378 1.357 . S
C379 C380 1.370 . S
C379 H405 0.950 . S
C380 N375 1.307 . S
C380 C379 1.370 . S
C380 H398 0.948 . S
Zn381 N375 2.020 . S
Zn381 O390 2.039 . S
Zn381 O396 2.034 . S
Zn381 O400 2.025 . S
Zn381 O402 2.024 . S
C382 O401 1.246 . S
C382 O402 1.249 . S
N383 C384 1.307 . S
N383 C385 1.333 . S
N383 Zn389 2.020 . S
C384 N383 1.307 . S
C384 C388 1.370 . S
C384 H395 0.948 . S
C385 N383 1.333 . S
C385 C386 1.379 . S
C385 H393 0.952 . S
C386 C385 1.379 . S
C386 C387 1.390 . S
C386 H406 0.949 . S
C387 C386 1.390 . S
C387 C388 1.357 . S
C388 C384 1.370 . S
C388 C387 1.357 . S
C388 H407 0.950 . S
Zn389 N383 2.020 . S
Zn389 O392 2.025 . S
Zn389 O397 2.024 . S
Zn389 O399 2.039 . S
Zn389 O401 2.034 . S
O390 C374 1.251 . S
O390 Zn381 2.039 . S
C391 O396 1.246 . S
C391 O397 1.249 . S
O392 C374 1.254 . S
O392 Zn389 2.025 . S
H393 C385 0.952 . S
H394 C376 0.952 . S
H395 C384 0.948 . S
O396 Zn381 2.034 . S
O396 C391 1.246 . S
O397 Zn389 2.024 . S
O397 C391 1.249 . S
H398 C380 0.948 . S
O399 Zn389 2.039 . S
O399 C403 1.251 . S
O400 Zn381 2.025 . S
O400 C403 1.254 . S
O401 C382 1.246 . S
O401 Zn389 2.034 . S
O402 Zn381 2.024 . S
O402 C382 1.249 . S
C403 O399 1.251 . S
C403 O400 1.254 . S
H404 C377 0.949 . S
H405 C379 0.950 . S
H406 C386 0.949 . S
H407 C388 0.950 . S
C408 O424 1.251 . S
C408 O426 1.254 . S
N409 C410 1.333 . S
N409 C414 1.307 . S
N409 Zn415 2.020 . S
C410 N409 1.333 . S
C410 C411 1.379 . S
C410 H428 0.952 . S
C411 C410 1.379 . S
C411 C412 1.390 . S
C411 H438 0.949 . S
C412 C411 1.390 . S
C412 C413 1.357 . S
C413 C412 1.357 . S
C413 C414 1.370 . S
C413 H439 0.950 . S
C414 N409 1.307 . S
C414 C413 1.370 . S
C414 H432 0.948 . S
Zn415 N409 2.020 . S
Zn415 O424 2.039 . S
Zn415 O430 2.034 . S
Zn415 O434 2.025 . S
Zn415 O436 2.024 . S
C416 O435 1.246 . S
C416 O436 1.249 . S
N417 C418 1.307 . S
N417 C419 1.333 . S
N417 Zn423 2.020 . S
C418 N417 1.307 . S
C418 C422 1.370 . S
C418 H429 0.948 . S
C419 N417 1.333 . S
C419 C420 1.379 . S
C419 H427 0.952 . S
C420 C419 1.379 . S
C420 C421 1.390 . S
C420 H440 0.949 . S
C421 C420 1.390 . S
C421 C422 1.357 . S
C422 C418 1.370 . S
C422 C421 1.357 . S
C422 H441 0.950 . S
Zn423 N417 2.020 . S
Zn423 O426 2.025 . S
Zn423 O431 2.024 . S
Zn423 O433 2.039 . S
Zn423 O435 2.034 . S
O424 C408 1.251 . S
O424 Zn415 2.039 . S
C425 O430 1.246 . S
C425 O431 1.249 . S
O426 C408 1.254 . S
O426 Zn423 2.025 . S
H427 C419 0.952 . S
H428 C410 0.952 . S
H429 C418 0.948 . S
O430 Zn415 2.034 . S
O430 C425 1.246 . S
O431 Zn423 2.024 . S
O431 C425 1.249 . S
H432 C414 0.948 . S
O433 Zn423 2.039 . S
O433 C437 1.251 . S
O434 Zn415 2.025 . S
O434 C437 1.254 . S
O435 C416 1.246 . S
O435 Zn423 2.034 . S
O436 Zn415 2.024 . S
O436 C416 1.249 . S
C437 O433 1.251 . S
C437 O434 1.254 . S
H438 C411 0.949 . S
H439 C413 0.950 . S
H440 C420 0.949 . S
H441 C422 0.950 . S
C442 O458 1.251 . S
C442 O460 1.254 . S
N443 C444 1.333 . S
N443 C448 1.307 . S
N443 Zn449 2.020 . S
C444 N443 1.333 . S
C444 C445 1.379 . S
C444 H462 0.952 . S
C445 C444 1.379 . S
C445 C446 1.390 . S
C445 H472 0.949 . S
C446 C445 1.390 . S
C446 C447 1.357 . S
C447 C446 1.357 . S
C447 C448 1.370 . S
C447 H473 0.950 . S
C448 N443 1.307 . S
C448 C447 1.370 . S
C448 H466 0.948 . S
Zn449 N443 2.020 . S
Zn449 O458 2.039 . S
Zn449 O464 2.034 . S
Zn449 O468 2.025 . S
Zn449 O470 2.024 . S
C450 O469 1.246 . S
C450 O470 1.249 . S
N451 C452 1.307 . S
N451 C453 1.333 . S
N451 Zn457 2.020 . S
C452 N451 1.307 . S
C452 C456 1.370 . S
C452 H463 0.948 . S
C453 N451 1.333 . S
C453 C454 1.379 . S
C453 H461 0.952 . S
C454 C453 1.379 . S
C454 C455 1.390 . S
C454 H474 0.949 . S
C455 C454 1.390 . S
C455 C456 1.357 . S
C456 C452 1.370 . S
C456 C455 1.357 . S
C456 H475 0.950 . S
Zn457 N451 2.020 . S
Zn457 O460 2.025 . S
Zn457 O465 2.024 . S
Zn457 O467 2.039 . S
Zn457 O469 2.034 . S
O458 C442 1.251 . S
O458 Zn449 2.039 . S
C459 O464 1.246 . S
C459 O465 1.249 . S
O460 C442 1.254 . S
O460 Zn457 2.025 . S
H461 C453 0.952 . S
H462 C444 0.952 . S
H463 C452 0.948 . S
O464 Zn449 2.034 . S
O464 C459 1.246 . S
O465 Zn457 2.024 . S
O465 C459 1.249 . S
H466 C448 0.948 . S
O467 Zn457 2.039 . S
O467 C471 1.251 . S
O468 Zn449 2.025 . S
O468 C471 1.254 . S
O469 C450 1.246 . S
O469 Zn457 2.034 . S
O470 Zn449 2.024 . S
O470 C450 1.249 . S
C471 O467 1.251 . S
C471 O468 1.254 . S
H472 C445 0.949 . S
H473 C447 0.950 . S
H474 C454 0.949 . S
H475 C456 0.950 . S
C476 O492 1.251 . S
C476 O494 1.254 . S
N477 C478 1.333 . S
N477 C482 1.307 . S
N477 Zn483 2.020 . S
C478 N477 1.333 . S
C478 C479 1.379 . S
C478 H496 0.952 . S
C479 C478 1.379 . S
C479 C480 1.390 . S
C479 H506 0.949 . S
C480 C479 1.390 . S
C480 C481 1.357 . S
C481 C480 1.357 . S
C481 C482 1.370 . S
C481 H507 0.950 . S
C482 N477 1.307 . S
C482 C481 1.370 . S
C482 H500 0.948 . S
Zn483 N477 2.020 . S
Zn483 O492 2.039 . S
Zn483 O498 2.034 . S
Zn483 O502 2.025 . S
Zn483 O504 2.024 . S
C484 O503 1.246 . S
C484 O504 1.249 . S
N485 C486 1.307 . S
N485 C487 1.333 . S
N485 Zn491 2.020 . S
C486 N485 1.307 . S
C486 C490 1.370 . S
C486 H497 0.948 . S
C487 N485 1.333 . S
C487 C488 1.379 . S
C487 H495 0.952 . S
C488 C487 1.379 . S
C488 C489 1.390 . S
C488 H508 0.949 . S
C489 C488 1.390 . S
C489 C490 1.357 . S
C490 C486 1.370 . S
C490 C489 1.357 . S
C490 H509 0.950 . S
Zn491 N485 2.020 . S
Zn491 O494 2.025 . S
Zn491 O499 2.024 . S
Zn491 O501 2.039 . S
Zn491 O503 2.034 . S
O492 C476 1.251 . S
O492 Zn483 2.039 . S
C493 O498 1.246 . S
C493 O499 1.249 . S
O494 C476 1.254 . S
O494 Zn491 2.025 . S
H495 C487 0.952 . S
H496 C478 0.952 . S
H497 C486 0.948 . S
O498 Zn483 2.034 . S
O498 C493 1.246 . S
O499 Zn491 2.024 . S
O499 C493 1.249 . S
H500 C482 0.948 . S
O501 Zn491 2.039 . S
O501 C505 1.251 . S
O502 Zn483 2.025 . S
O502 C505 1.254 . S
O503 C484 1.246 . S
O503 Zn491 2.034 . S
O504 Zn483 2.024 . S
O504 C484 1.249 . S
C505 O501 1.251 . S
C505 O502 1.254 . S
H506 C479 0.949 . S
H507 C481 0.950 . S
H508 C488 0.949 . S
H509 C490 0.950 . S
C510 O526 1.251 . S
C510 O528 1.254 . S
N511 C512 1.333 . S
N511 C516 1.307 1_554 S
N511 Zn517 2.020 . S
C512 N511 1.333 . S
C512 C513 1.379 . S
C512 H530 0.952 . S
C513 C512 1.379 . S
C513 C514 1.390 . S
C513 H540 0.949 . S
C514 C513 1.390 . S
C514 C515 1.358 1_554 S
C515 C514 1.358 1_556 S
C515 C516 1.369 . S
C515 H541 0.949 . S
C516 N511 1.307 1_556 S
C516 C515 1.369 . S
C516 H534 0.948 . S
Zn517 N511 2.020 . S
Zn517 O526 2.039 . S
Zn517 O532 2.034 1_455 S
Zn517 O536 2.025 1_454 S
Zn517 O538 2.024 1_554 S
C518 O537 1.246 . S
C518 O538 1.249 . S
N519 C520 1.307 1_556 S
N519 C521 1.333 . S
N519 Zn525 2.028 . S
C520 N519 1.307 1_554 S
C520 C524 1.370 . S
C520 H531 0.948 . S
C521 N519 1.333 . S
C521 C522 1.379 . S
C521 H529 0.952 . S
C522 C521 1.379 . S
C522 C523 1.390 . S
C522 H542 0.949 . S
C523 C522 1.390 . S
C523 C524 1.357 1_556 S
C524 C520 1.370 . S
C524 C523 1.357 1_554 S
C524 H543 0.950 . S
Zn525 N519 2.028 . S
Zn525 O528 2.011 1_656 S
Zn525 O533 2.010 1_556 S
Zn525 O535 2.051 . S
Zn525 O537 2.046 1_655 S
O526 C510 1.251 . S
O526 Zn517 2.039 . S
C527 O532 1.246 . S
C527 O533 1.249 . S
O528 C510 1.254 . S
O528 Zn525 2.011 1_454 S
H529 C521 0.952 . S
H530 C512 0.952 . S
H531 C520 0.948 . S
O532 Zn517 2.034 1_655 S
O532 C527 1.246 . S
O533 Zn525 2.010 1_554 S
O533 C527 1.249 . S
H534 C516 0.948 . S
O535 Zn525 2.051 . S
O535 C539 1.251 . S
O536 Zn517 2.025 1_656 S
O536 C539 1.254 . S
O537 C518 1.246 . S
O537 Zn525 2.046 1_455 S
O538 Zn517 2.024 1_556 S
O538 C518 1.249 . S
C539 O535 1.251 . S
C539 O536 1.254 . S
H540 C513 0.949 . S
H541 C515 0.949 . S
H542 C522 0.949 . S
H543 C524 0.950 . S
H544 C550 0.930 . S
H545 C554 0.930 . S
H546 C559 0.929 . S
H547 C557 0.929 . S
H548 C552 0.929 . S
H549 C558 0.929 . S
C550 H544 0.930 . S
C550 C551 1.367 . S
C550 C558 1.378 . S
C551 C550 1.367 . S
C551 C559 1.433 . S
C552 H548 0.929 . S
C552 C554 1.378 . S
C552 C556 1.350 . S
C553 C556 1.463 . S
C553 C558 1.350 . S
C553 N561 1.427 . S
C554 H545 0.930 . S
C554 C552 1.378 . S
C554 C555 1.367 . S
C555 C554 1.367 . S
C555 C557 1.433 . S
C556 C552 1.350 . S
C556 C553 1.463 . S
C556 N560 1.427 . S
C557 H547 0.929 . S
C557 C555 1.433 . S
C557 N560 1.384 . S
C558 H549 0.929 . S
C558 C550 1.378 . S
C558 C553 1.350 . S
C559 H546 0.929 . S
C559 C551 1.433 . S
C559 N561 1.384 . S
N560 C556 1.427 . S
N560 C557 1.384 . S
N561 C553 1.427 . S
N561 C559 1.384 . S
H562 C568 0.930 . S
H563 C572 0.930 . S
H564 C577 0.929 . S
H565 C575 0.929 . S
H566 C570 0.929 . S
H567 C576 0.929 . S
C568 H562 0.930 . S
C568 C569 1.367 . S
C568 C576 1.378 . S
C569 C568 1.367 . S
C569 C577 1.433 . S
C570 H566 0.929 . S
C570 C572 1.378 . S
C570 C574 1.350 . S
C571 C574 1.463 . S
C571 C576 1.350 . S
C571 N579 1.427 . S
C572 H563 0.930 . S
C572 C570 1.378 . S
C572 C573 1.367 . S
C573 C572 1.367 . S
C573 C575 1.433 . S
C574 C570 1.350 . S
C574 C571 1.463 . S
C574 N578 1.427 . S
C575 H565 0.929 . S
C575 C573 1.433 . S
C575 N578 1.384 . S
C576 H567 0.929 . S
C576 C568 1.378 . S
C576 C571 1.350 . S
C577 H564 0.929 . S
C577 C569 1.433 . S
C577 N579 1.384 . S
N578 C574 1.427 . S
N578 C575 1.384 . S
N579 C571 1.427 . S
N579 C577 1.384 . S
H580 C586 0.930 . S
H581 C590 0.930 . S
H582 C595 0.929 . S
H583 C593 0.929 . S
H584 C588 0.929 . S
H585 C594 0.929 . S
C586 H580 0.930 . S
C586 C587 1.367 . S
C586 C594 1.378 . S
C587 C586 1.367 . S
C587 C595 1.433 . S
C588 H584 0.929 . S
C588 C590 1.378 . S
C588 C592 1.350 . S
C589 C592 1.463 . S
C589 C594 1.350 . S
C589 N597 1.427 . S
C590 H581 0.930 . S
C590 C588 1.378 . S
C590 C591 1.367 . S
C591 C590 1.367 . S
C591 C593 1.433 . S
C592 C588 1.350 . S
C592 C589 1.463 . S
C592 N596 1.427 . S
C593 H583 0.929 . S
C593 C591 1.433 . S
C593 N596 1.384 . S
C594 H585 0.929 . S
C594 C586 1.378 . S
C594 C589 1.350 . S
C595 H582 0.929 . S
C595 C587 1.433 . S
C595 N597 1.384 . S
N596 C592 1.427 . S
N596 C593 1.384 . S
N597 C589 1.427 . S
N597 C595 1.384 . S
H598 C604 0.930 . S
H599 C608 0.930 . S
H600 C613 0.929 . S
H601 C611 0.929 . S
H602 C606 0.929 . S
H603 C612 0.929 . S
C604 H598 0.930 . S
C604 C605 1.367 . S
C604 C612 1.378 . S
C605 C604 1.367 . S
C605 C613 1.433 . S
C606 H602 0.929 . S
C606 C608 1.378 . S
C606 C610 1.350 . S
C607 C610 1.463 . S
C607 C612 1.350 . S
C607 N615 1.427 . S
C608 H599 0.930 . S
C608 C606 1.378 . S
C608 C609 1.367 . S
C609 C608 1.367 . S
C609 C611 1.433 . S
C610 C606 1.350 . S
C610 C607 1.463 . S
C610 N614 1.427 . S
C611 H601 0.929 . S
C611 C609 1.433 . S
C611 N614 1.384 . S
C612 H603 0.929 . S
C612 C604 1.378 . S
C612 C607 1.350 . S
C613 H600 0.929 . S
C613 C605 1.433 . S
C613 N615 1.384 . S
N614 C610 1.427 . S
N614 C611 1.384 . S
N615 C607 1.427 . S
N615 C613 1.384 . S
H616 C622 0.930 . S
H617 C626 0.930 . S
H618 C631 0.929 . S
H619 C629 0.929 . S
H620 C624 0.929 . S
H621 C630 0.929 . S
C622 H616 0.930 . S
C622 C623 1.367 . S
C622 C630 1.378 . S
C623 C622 1.367 . S
C623 C631 1.433 . S
C624 H620 0.929 . S
C624 C626 1.378 . S
C624 C628 1.350 . S
C625 C628 1.463 . S
C625 C630 1.350 . S
C625 N633 1.427 . S
C626 H617 0.930 . S
C626 C624 1.378 . S
C626 C627 1.367 . S
C627 C626 1.367 . S
C627 C629 1.433 . S
C628 C624 1.350 . S
C628 C625 1.463 . S
C628 N632 1.427 . S
C629 H619 0.929 . S
C629 C627 1.433 . S
C629 N632 1.384 . S
C630 H621 0.929 . S
C630 C622 1.378 . S
C630 C625 1.350 . S
C631 H618 0.929 . S
C631 C623 1.433 . S
C631 N633 1.384 . S
N632 C628 1.427 . S
N632 C629 1.384 . S
N633 C625 1.427 . S
N633 C631 1.384 . S
H634 C640 0.930 . S
H635 C644 0.930 . S
H636 C649 0.929 . S
H637 C647 0.929 1_545 S
H638 C642 0.929 . S
H639 C648 0.929 . S
C640 H634 0.930 . S
C640 C641 1.367 . S
C640 C648 1.378 . S
C641 C640 1.367 . S
C641 C649 1.433 . S
C642 H638 0.929 . S
C642 C644 1.378 . S
C642 C646 1.350 . S
C643 C646 1.463 . S
C643 C648 1.350 . S
C643 N651 1.427 . S
C644 H635 0.930 . S
C644 C642 1.378 . S
C644 C645 1.367 . S
C645 C644 1.367 . S
C645 C647 1.433 . S
C646 C642 1.350 . S
C646 C643 1.463 . S
C646 N650 1.427 . S
C647 H637 0.929 1_565 S
C647 C645 1.433 . S
C647 N650 1.384 . S
C648 H639 0.929 . S
C648 C640 1.378 . S
C648 C643 1.350 . S
C649 H636 0.929 . S
C649 C641 1.433 . S
C649 N651 1.384 . S
N650 C646 1.427 . S
N650 C647 1.384 . S
N651 C643 1.427 . S
N651 C649 1.384 . S
H652 C658 0.930 . S
H653 C662 0.930 . S
H654 C667 0.929 . S
H655 C665 0.929 . S
H656 C660 0.929 . S
H657 C666 0.929 . S
C658 H652 0.930 . S
C658 C659 1.367 . S
C658 C666 1.378 . S
C659 C658 1.367 . S
C659 C667 1.433 . S
C660 H656 0.929 . S
C660 C662 1.378 . S
C660 C664 1.350 . S
C661 C664 1.463 . S
C661 C666 1.350 . S
C661 N669 1.427 . S
C662 H653 0.930 . S
C662 C660 1.378 . S
C662 C663 1.367 . S
C663 C662 1.367 . S
C663 C665 1.433 . S
C664 C660 1.350 . S
C664 C661 1.463 . S
C664 N668 1.427 . S
C665 H655 0.929 . S
C665 C663 1.433 . S
C665 N668 1.384 . S
C666 H657 0.929 . S
C666 C658 1.378 . S
C666 C661 1.350 . S
C667 H654 0.929 . S
C667 C659 1.433 . S
C667 N669 1.384 . S
N668 C664 1.427 . S
N668 C665 1.384 . S
N669 C661 1.427 . S
N669 C667 1.384 . S
H670 C676 0.930 . S
H671 C680 0.930 . S
H672 C685 0.929 . S
H673 C683 0.929 . S
H674 C678 0.929 . S
H675 C684 0.929 . S
C676 H670 0.930 . S
C676 C677 1.367 . S
C676 C684 1.378 . S
C677 C676 1.367 . S
C677 C685 1.433 . S
C678 H674 0.929 . S
C678 C680 1.378 . S
C678 C682 1.350 . S
C679 C682 1.463 . S
C679 C684 1.350 . S
C679 N687 1.427 . S
C680 H671 0.930 . S
C680 C678 1.378 . S
C680 C681 1.367 . S
C681 C680 1.367 . S
C681 C683 1.433 . S
C682 C678 1.350 . S
C682 C679 1.463 . S
C682 N686 1.427 . S
C683 H673 0.929 . S
C683 C681 1.433 . S
C683 N686 1.384 . S
C684 H675 0.929 . S
C684 C676 1.378 . S
C684 C679 1.350 . S
C685 H672 0.929 . S
C685 C677 1.433 . S
C685 N687 1.384 . S
N686 C682 1.427 . S
N686 C683 1.384 . S
N687 C679 1.427 . S
N687 C685 1.384 . S
H688 C694 0.930 . S
H689 C698 0.930 . S
H690 C703 0.929 . S
H691 C701 0.929 . S
H692 C696 0.929 . S
H693 C702 0.929 . S
C694 H688 0.930 . S
C694 C695 1.367 . S
C694 C702 1.378 . S
C695 C694 1.367 . S
C695 C703 1.433 . S
C696 H692 0.929 . S
C696 C698 1.378 . S
C696 C700 1.350 . S
C697 C700 1.463 . S
C697 C702 1.350 . S
C697 N705 1.427 . S
C698 H689 0.930 . S
C698 C696 1.378 . S
C698 C699 1.367 . S
C699 C698 1.367 . S
C699 C701 1.433 . S
C700 C696 1.350 . S
C700 C697 1.463 . S
C700 N704 1.427 . S
C701 H691 0.929 . S
C701 C699 1.433 . S
C701 N704 1.384 . S
C702 H693 0.929 . S
C702 C694 1.378 . S
C702 C697 1.350 . S
C703 H690 0.929 . S
C703 C695 1.433 . S
C703 N705 1.384 . S
N704 C700 1.427 . S
N704 C701 1.384 . S
N705 C697 1.427 . S
N705 C703 1.384 . S
H706 C712 0.930 . S
H707 C716 0.930 . S
H708 C721 0.929 . S
H709 C719 0.929 . S
H710 C714 0.929 . S
H711 C720 0.929 . S
C712 H706 0.930 . S
C712 C713 1.367 . S
C712 C720 1.378 . S
C713 C712 1.367 . S
C713 C721 1.433 . S
C714 H710 0.929 . S
C714 C716 1.378 . S
C714 C718 1.350 . S
C715 C718 1.463 . S
C715 C720 1.350 . S
C715 N723 1.427 . S
C716 H707 0.930 . S
C716 C714 1.378 . S
C716 C717 1.367 . S
C717 C716 1.367 . S
C717 C719 1.433 . S
C718 C714 1.350 . S
C718 C715 1.463 . S
C718 N722 1.427 . S
C719 H709 0.929 . S
C719 C717 1.433 . S
C719 N722 1.384 . S
C720 H711 0.929 . S
C720 C712 1.378 . S
C720 C715 1.350 . S
C721 H708 0.929 . S
C721 C713 1.433 . S
C721 N723 1.384 . S
N722 C718 1.427 . S
N722 C719 1.384 . S
N723 C715 1.427 . S
N723 C721 1.384 . S
H724 C730 0.930 . S
H725 C734 0.930 . S
H726 C739 0.929 . S
H727 C737 0.929 . S
H728 C732 0.929 . S
H729 C738 0.929 . S
C730 H724 0.930 . S
C730 C731 1.367 . S
C730 C738 1.378 . S
C731 C730 1.367 . S
C731 C739 1.433 . S
C732 H728 0.929 . S
C732 C734 1.378 . S
C732 C736 1.350 . S
C733 C736 1.463 . S
C733 C738 1.350 . S
C733 N741 1.427 . S
C734 H725 0.930 . S
C734 C732 1.378 . S
C734 C735 1.367 . S
C735 C734 1.367 . S
C735 C737 1.433 . S
C736 C732 1.350 . S
C736 C733 1.463 . S
C736 N740 1.427 . S
C737 H727 0.929 . S
C737 C735 1.433 . S
C737 N740 1.384 . S
C738 H729 0.929 . S
C738 C730 1.378 . S
C738 C733 1.350 . S
C739 H726 0.929 . S
C739 C731 1.433 . S
C739 N741 1.384 . S
N740 C736 1.427 . S
N740 C737 1.384 . S
N741 C733 1.427 . S
N741 C739 1.384 . S
H742 C748 0.930 . S
H743 C752 0.930 . S
H744 C757 0.929 . S
H745 C755 0.929 . S
H746 C750 0.929 . S
H747 C756 0.929 . S
C748 H742 0.930 . S
C748 C749 1.367 . S
C748 C756 1.378 . S
C749 C748 1.367 . S
C749 C757 1.433 . S
C750 H746 0.929 . S
C750 C752 1.378 . S
C750 C754 1.350 . S
C751 C754 1.463 . S
C751 C756 1.350 . S
C751 N759 1.427 . S
C752 H743 0.930 . S
C752 C750 1.378 . S
C752 C753 1.367 . S
C753 C752 1.367 . S
C753 C755 1.433 . S
C754 C750 1.350 . S
C754 C751 1.463 . S
C754 N758 1.427 . S
C755 H745 0.929 . S
C755 C753 1.433 . S
C755 N758 1.384 . S
C756 H747 0.929 . S
C756 C748 1.378 . S
C756 C751 1.350 . S
C757 H744 0.929 . S
C757 C749 1.433 . S
C757 N759 1.384 . S
N758 C754 1.427 . S
N758 C755 1.384 . S
N759 C751 1.427 . S
N759 C757 1.384 . S
H760 C766 0.930 . S
H761 C770 0.930 . S
H762 C775 0.929 . S
H763 C773 0.929 1_455 S
H764 C768 0.929 . S
H765 C774 0.929 . S
C766 H760 0.930 . S
C766 C767 1.367 . S
C766 C774 1.378 . S
C767 C766 1.367 . S
C767 C775 1.433 . S
C768 H764 0.929 . S
C768 C770 1.378 . S
C768 C772 1.350 . S
C769 C772 1.463 . S
C769 C774 1.350 . S
C769 N777 1.427 . S
C770 H761 0.930 . S
C770 C768 1.378 . S
C770 C771 1.367 . S
C771 C770 1.367 . S
C771 C773 1.433 . S
C772 C768 1.350 . S
C772 C769 1.463 . S
C772 N776 1.427 . S
C773 H763 0.929 1_655 S
C773 C771 1.433 . S
C773 N776 1.384 . S
C774 H765 0.929 . S
C774 C766 1.378 . S
C774 C769 1.350 . S
C775 H762 0.929 . S
C775 C767 1.433 . S
C775 N777 1.384 . S
N776 C772 1.427 . S
N776 C773 1.384 . S
N777 C769 1.427 . S
N777 C775 1.384 . S
H778 C784 0.930 . S
H779 C788 0.930 . S
H780 C793 0.929 . S
H781 C791 0.929 . S
H782 C786 0.929 . S
H783 C792 0.929 . S
C784 H778 0.930 . S
C784 C785 1.367 . S
C784 C792 1.378 . S
C785 C784 1.367 . S
C785 C793 1.433 . S
C786 H782 0.929 . S
C786 C788 1.378 . S
C786 C790 1.350 . S
C787 C790 1.463 . S
C787 C792 1.350 . S
C787 N795 1.427 . S
C788 H779 0.930 . S
C788 C786 1.378 . S
C788 C789 1.367 . S
C789 C788 1.367 . S
C789 C791 1.433 . S
C790 C786 1.350 . S
C790 C787 1.463 . S
C790 N794 1.427 . S
C791 H781 0.929 . S
C791 C789 1.433 . S
C791 N794 1.384 . S
C792 H783 0.929 . S
C792 C784 1.378 . S
C792 C787 1.350 . S
C793 H780 0.929 . S
C793 C785 1.433 . S
C793 N795 1.384 . S
N794 C790 1.427 . S
N794 C791 1.384 . S
N795 C787 1.427 . S
N795 C793 1.384 . S
H796 C802 0.930 . S
H797 C806 0.930 . S
H798 C811 0.929 . S
H799 C809 0.929 . S
H800 C804 0.929 . S
H801 C810 0.929 . S
C802 H796 0.930 . S
C802 C803 1.367 . S
C802 C810 1.378 . S
C803 C802 1.367 . S
C803 C811 1.433 . S
C804 H800 0.929 . S
C804 C806 1.378 . S
C804 C808 1.350 . S
C805 C808 1.463 . S
C805 C810 1.350 . S
C805 N813 1.427 . S
C806 H797 0.930 . S
C806 C804 1.378 . S
C806 C807 1.367 . S
C807 C806 1.367 . S
C807 C809 1.433 . S
C808 C804 1.350 . S
C808 C805 1.463 . S
C808 N812 1.427 . S
C809 H799 0.929 . S
C809 C807 1.433 . S
C809 N812 1.384 . S
C810 H801 0.929 . S
C810 C802 1.378 . S
C810 C805 1.350 . S
C811 H798 0.929 . S
C811 C803 1.433 . S
C811 N813 1.384 . S
N812 C808 1.427 . S
N812 C809 1.384 . S
N813 C805 1.427 . S
N813 C811 1.384 . S
H814 C820 0.930 . S
H815 C824 0.930 . S
H816 C829 0.929 . S
H817 C827 0.929 . S
H818 C822 0.929 . S
H819 C828 0.929 . S
C820 H814 0.930 . S
C820 C821 1.367 . S
C820 C828 1.378 . S
C821 C820 1.367 . S
C821 C829 1.433 . S
C822 H818 0.929 . S
C822 C824 1.378 . S
C822 C826 1.350 . S
C823 C826 1.463 . S
C823 C828 1.350 . S
C823 N831 1.427 . S
C824 H815 0.930 . S
C824 C822 1.378 . S
C824 C825 1.367 . S
C825 C824 1.367 . S
C825 C827 1.433 . S
C826 C822 1.350 . S
C826 C823 1.463 . S
C826 N830 1.427 . S
C827 H817 0.929 . S
C827 C825 1.433 . S
C827 N830 1.384 . S
C828 H819 0.929 . S
C828 C820 1.378 . S
C828 C823 1.350 . S
C829 H816 0.929 . S
C829 C821 1.433 . S
C829 N831 1.384 . S
N830 C826 1.427 . S
N830 C827 1.384 . S
N831 C823 1.427 . S
N831 C829 1.384 . S
H832 C838 0.930 . S
H833 C842 0.930 . S
H834 C847 0.929 . S
H835 C845 0.929 . S
H836 C840 0.929 . S
H837 C846 0.929 . S
C838 H832 0.930 . S
C838 C839 1.367 . S
C838 C846 1.378 . S
C839 C838 1.367 . S
C839 C847 1.433 . S
C840 H836 0.929 . S
C840 C842 1.378 . S
C840 C844 1.350 . S
C841 C844 1.463 . S
C841 C846 1.350 . S
C841 N849 1.427 . S
C842 H833 0.930 . S
C842 C840 1.378 . S
C842 C843 1.367 . S
C843 C842 1.367 . S
C843 C845 1.433 . S
C844 C840 1.350 . S
C844 C841 1.463 . S
C844 N848 1.427 . S
C845 H835 0.929 . S
C845 C843 1.433 . S
C845 N848 1.384 . S
C846 H837 0.929 . S
C846 C838 1.378 . S
C846 C841 1.350 . S
C847 H834 0.929 . S
C847 C839 1.433 . S
C847 N849 1.384 . S
N848 C844 1.427 . S
N848 C845 1.384 . S
N849 C841 1.427 . S
N849 C847 1.384 . S
H850 C856 0.930 . S
H851 C860 0.930 . S
H852 C865 0.929 . S
H853 C863 0.929 . S
H854 C858 0.929 . S
H855 C864 0.929 . S
C856 H850 0.930 . S
C856 C857 1.367 . S
C856 C864 1.378 . S
C857 C856 1.367 . S
C857 C865 1.433 . S
C858 H854 0.929 . S
C858 C860 1.378 . S
C858 C862 1.350 . S
C859 C862 1.463 . S
C859 C864 1.350 . S
C859 N867 1.427 . S
C860 H851 0.930 . S
C860 C858 1.378 . S
C860 C861 1.367 . S
C861 C860 1.367 . S
C861 C863 1.433 . S
C862 C858 1.350 . S
C862 C859 1.463 . S
C862 N866 1.427 . S
C863 H853 0.929 . S
C863 C861 1.433 . S
C863 N866 1.384 . S
C864 H855 0.929 . S
C864 C856 1.378 . S
C864 C859 1.350 . S
C865 H852 0.929 . S
C865 C857 1.433 . S
C865 N867 1.384 . S
N866 C862 1.427 . S
N866 C863 1.384 . S
N867 C859 1.427 . S
N867 C865 1.384 . S
H868 C874 0.930 . S
H869 C878 0.930 . S
H870 C883 0.929 . S
H871 C881 0.929 . S
H872 C876 0.929 . S
H873 C882 0.929 . S
C874 H868 0.930 . S
C874 C875 1.367 . S
C874 C882 1.378 . S
C875 C874 1.367 . S
C875 C883 1.433 . S
C876 H872 0.929 . S
C876 C878 1.378 . S
C876 C880 1.350 . S
C877 C880 1.463 . S
C877 C882 1.350 . S
C877 N885 1.427 . S
C878 H869 0.930 . S
C878 C876 1.378 . S
C878 C879 1.367 . S
C879 C878 1.367 . S
C879 C881 1.433 . S
C880 C876 1.350 . S
C880 C877 1.463 . S
C880 N884 1.427 . S
C881 H871 0.929 . S
C881 C879 1.433 . S
C881 N884 1.384 . S
C882 H873 0.929 . S
C882 C874 1.378 . S
C882 C877 1.350 . S
C883 H870 0.929 . S
C883 C875 1.433 . S
C883 N885 1.384 . S
N884 C880 1.427 . S
N884 C881 1.384 . S
N885 C877 1.427 . S
N885 C883 1.384 . S
H886 C892 0.930 . S
H887 C896 0.930 . S
H888 C901 0.929 . S
H889 C899 0.929 . S
H890 C894 0.929 . S
H891 C900 0.929 . S
C892 H886 0.930 . S
C892 C893 1.367 . S
C892 C900 1.378 . S
C893 C892 1.367 . S
C893 C901 1.433 . S
C894 H890 0.929 . S
C894 C896 1.378 . S
C894 C898 1.350 . S
C895 C898 1.463 . S
C895 C900 1.350 . S
C895 N903 1.427 . S
C896 H887 0.930 . S
C896 C894 1.378 . S
C896 C897 1.367 . S
C897 C896 1.367 . S
C897 C899 1.433 . S
C898 C894 1.350 . S
C898 C895 1.463 . S
C898 N902 1.427 . S
C899 H889 0.929 . S
C899 C897 1.433 . S
C899 N902 1.384 . S
C900 H891 0.929 . S
C900 C892 1.378 . S
C900 C895 1.350 . S
C901 H888 0.929 . S
C901 C893 1.433 . S
C901 N903 1.384 . S
N902 C898 1.427 . S
N902 C899 1.384 . S
N903 C895 1.427 . S
N903 C901 1.384 . S
H904 C910 0.930 . S
H905 C914 0.930 . S
H906 C919 0.929 . S
H907 C917 0.929 . S
H908 C912 0.929 . S
H909 C918 0.929 . S
C910 H904 0.930 . S
C910 C911 1.367 . S
C910 C918 1.378 . S
C911 C910 1.367 . S
C911 C919 1.433 . S
C912 H908 0.929 . S
C912 C914 1.378 . S
C912 C916 1.350 . S
C913 C916 1.463 . S
C913 C918 1.350 . S
C913 N921 1.427 . S
C914 H905 0.930 . S
C914 C912 1.378 . S
C914 C915 1.367 . S
C915 C914 1.367 . S
C915 C917 1.433 . S
C916 C912 1.350 . S
C916 C913 1.463 . S
C916 N920 1.427 . S
C917 H907 0.929 . S
C917 C915 1.433 . S
C917 N920 1.384 . S
C918 H909 0.929 . S
C918 C910 1.378 . S
C918 C913 1.350 . S
C919 H906 0.929 . S
C919 C911 1.433 . S
C919 N921 1.384 . S
N920 C916 1.427 . S
N920 C917 1.384 . S
N921 C913 1.427 . S
N921 C919 1.384 . S
H922 C928 0.930 . S
H923 C932 0.930 . S
H924 C937 0.929 . S
H925 C935 0.929 . S
H926 C930 0.929 . S
H927 C936 0.929 . S
C928 H922 0.930 . S
C928 C929 1.367 . S
C928 C936 1.378 . S
C929 C928 1.367 . S
C929 C937 1.433 . S
C930 H926 0.929 . S
C930 C932 1.378 . S
C930 C934 1.350 . S
C931 C934 1.463 . S
C931 C936 1.350 . S
C931 N939 1.427 . S
C932 H923 0.930 . S
C932 C930 1.378 . S
C932 C933 1.367 . S
C933 C932 1.367 . S
C933 C935 1.433 . S
C934 C930 1.350 . S
C934 C931 1.463 . S
C934 N938 1.427 . S
C935 H925 0.929 . S
C935 C933 1.433 . S
C935 N938 1.384 . S
C936 H927 0.929 . S
C936 C928 1.378 . S
C936 C931 1.350 . S
C937 H924 0.929 . S
C937 C929 1.433 . S
C937 N939 1.384 . S
N938 C934 1.427 . S
N938 C935 1.384 . S
N939 C931 1.427 . S
N939 C937 1.384 . S
H940 C946 0.930 . S
H941 C950 0.930 . S
H942 C955 0.929 . S
H943 C953 0.929 . S
H944 C948 0.929 . S
H945 C954 0.929 . S
C946 H940 0.930 . S
C946 C947 1.367 . S
C946 C954 1.378 . S
C947 C946 1.367 . S
C947 C955 1.433 . S
C948 H944 0.929 . S
C948 C950 1.378 . S
C948 C952 1.350 . S
C949 C952 1.463 . S
C949 C954 1.350 . S
C949 N957 1.427 . S
C950 H941 0.930 . S
C950 C948 1.378 . S
C950 C951 1.367 . S
C951 C950 1.367 . S
C951 C953 1.433 . S
C952 C948 1.350 . S
C952 C949 1.463 . S
C952 N956 1.427 . S
C953 H943 0.929 . S
C953 C951 1.433 . S
C953 N956 1.384 . S
C954 H945 0.929 . S
C954 C946 1.378 . S
C954 C949 1.350 . S
C955 H942 0.929 . S
C955 C947 1.433 . S
C955 N957 1.384 . S
N956 C952 1.427 . S
N956 C953 1.384 . S
N957 C949 1.427 . S
N957 C955 1.384 . S
H958 C964 0.930 . S
H959 C968 0.930 . S
H960 C973 0.929 . S
H961 C971 0.929 . S
H962 C966 0.929 . S
H963 C972 0.929 . S
C964 H958 0.930 . S
C964 C965 1.367 . S
C964 C972 1.378 . S
C965 C964 1.367 . S
C965 C973 1.433 . S
C966 H962 0.929 . S
C966 C968 1.378 . S
C966 C970 1.350 . S
C967 C970 1.463 . S
C967 C972 1.350 . S
C967 N975 1.427 . S
C968 H959 0.930 . S
C968 C966 1.378 . S
C968 C969 1.367 . S
C969 C968 1.367 . S
C969 C971 1.433 . S
C970 C966 1.350 . S
C970 C967 1.463 . S
C970 N974 1.427 . S
C971 H961 0.929 . S
C971 C969 1.433 . S
C971 N974 1.384 . S
C972 H963 0.929 . S
C972 C964 1.378 . S
C972 C967 1.350 . S
C973 H960 0.929 . S
C973 C965 1.433 . S
C973 N975 1.384 . S
N974 C970 1.427 . S
N974 C971 1.384 . S
N975 C967 1.427 . S
N975 C973 1.384 . S
H976 C982 0.930 . S
H977 C986 0.930 . S
H978 C991 0.929 . S
H979 C989 0.929 . S
H980 C984 0.929 . S
H981 C990 0.929 . S
C982 H976 0.930 . S
C982 C983 1.367 . S
C982 C990 1.378 . S
C983 C982 1.367 . S
C983 C991 1.433 . S
C984 H980 0.929 . S
C984 C986 1.378 . S
C984 C988 1.350 . S
C985 C988 1.463 . S
C985 C990 1.350 . S
C985 N993 1.427 . S
C986 H977 0.930 . S
C986 C984 1.378 . S
C986 C987 1.367 . S
C987 C986 1.367 . S
C987 C989 1.433 . S
C988 C984 1.350 . S
C988 C985 1.463 . S
C988 N992 1.427 . S
C989 H979 0.929 . S
C989 C987 1.433 . S
C989 N992 1.384 . S
C990 H981 0.929 . S
C990 C982 1.378 . S
C990 C985 1.350 . S
C991 H978 0.929 . S
C991 C983 1.433 . S
C991 N993 1.384 . S
N992 C988 1.427 . S
N992 C989 1.384 . S
N993 C985 1.427 . S
N993 C991 1.384 . S
H994 C1000 0.930 . S
H995 C1004 0.930 . S
H996 C1009 0.929 . S
H997 C1007 0.929 . S
H998 C1002 0.929 . S
H999 C1008 0.929 . S
C1000 H994 0.930 . S
C1000 C1001 1.367 . S
C1000 C1008 1.378 . S
C1001 C1000 1.367 . S
C1001 C1009 1.433 . S
C1002 H998 0.929 . S
C1002 C1004 1.378 . S
C1002 C1006 1.350 . S
C1003 C1006 1.463 . S
C1003 C1008 1.350 . S
C1003 N1011 1.427 . S
C1004 H995 0.930 . S
C1004 C1002 1.378 . S
C1004 C1005 1.367 . S
C1005 C1004 1.367 . S
C1005 C1007 1.433 . S
C1006 C1002 1.350 . S
C1006 C1003 1.463 . S
C1006 N1010 1.427 . S
C1007 H997 0.929 . S
C1007 C1005 1.433 . S
C1007 N1010 1.384 . S
C1008 H999 0.929 . S
C1008 C1000 1.378 . S
C1008 C1003 1.350 . S
C1009 H996 0.929 . S
C1009 C1001 1.433 . S
C1009 N1011 1.384 . S
N1010 C1006 1.427 . S
N1010 C1007 1.384 . S
N1011 C1003 1.427 . S
N1011 C1009 1.384 . S
H1012 C1018 0.930 . S
H1013 C1022 0.930 . S
H1014 C1027 0.929 . S
H1015 C1025 0.929 1_565 S
H1016 C1020 0.929 . S
H1017 C1026 0.929 . S
C1018 H1012 0.930 . S
C1018 C1019 1.367 . S
C1018 C1026 1.378 . S
C1019 C1018 1.367 . S
C1019 C1027 1.433 . S
C1020 H1016 0.929 . S
C1020 C1022 1.378 . S
C1020 C1024 1.350 . S
C1021 C1024 1.463 . S
C1021 C1026 1.350 . S
C1021 N1029 1.427 . S
C1022 H1013 0.930 . S
C1022 C1020 1.378 . S
C1022 C1023 1.367 . S
C1023 C1022 1.367 . S
C1023 C1025 1.433 . S
C1024 C1020 1.350 . S
C1024 C1021 1.463 . S
C1024 N1028 1.427 . S
C1025 H1015 0.929 1_545 S
C1025 C1023 1.433 . S
C1025 N1028 1.384 . S
C1026 H1017 0.929 . S
C1026 C1018 1.378 . S
C1026 C1021 1.350 . S
C1027 H1014 0.929 . S
C1027 C1019 1.433 . S
C1027 N1029 1.384 . S
N1028 C1024 1.427 . S
N1028 C1025 1.384 . S
N1029 C1021 1.427 . S
N1029 C1027 1.384 . S
H1030 C1036 0.930 . S
H1031 C1040 0.930 . S
H1032 C1045 0.929 . S
H1033 C1043 0.929 . S
H1034 C1038 0.929 . S
H1035 C1044 0.929 . S
C1036 H1030 0.930 . S
C1036 C1037 1.367 . S
C1036 C1044 1.378 . S
C1037 C1036 1.367 . S
C1037 C1045 1.433 . S
C1038 H1034 0.929 . S
C1038 C1040 1.378 . S
C1038 C1042 1.350 . S
C1039 C1042 1.463 . S
C1039 C1044 1.350 . S
C1039 N1047 1.427 . S
C1040 H1031 0.930 . S
C1040 C1038 1.378 . S
C1040 C1041 1.367 . S
C1041 C1040 1.367 . S
C1041 C1043 1.433 . S
C1042 C1038 1.350 . S
C1042 C1039 1.463 . S
C1042 N1046 1.427 . S
C1043 H1033 0.929 . S
C1043 C1041 1.433 . S
C1043 N1046 1.384 . S
C1044 H1035 0.929 . S
C1044 C1036 1.378 . S
C1044 C1039 1.350 . S
C1045 H1032 0.929 . S
C1045 C1037 1.433 . S
C1045 N1047 1.384 . S
N1046 C1042 1.427 . S
N1046 C1043 1.384 . S
N1047 C1039 1.427 . S
N1047 C1045 1.384 . S
H1048 C1054 0.930 . S
H1049 C1058 0.930 . S
H1050 C1063 0.929 1_545 S
H1051 C1061 0.929 . S
H1052 C1056 0.929 . S
H1053 C1062 0.929 . S
C1054 H1048 0.930 . S
C1054 C1055 1.367 . S
C1054 C1062 1.378 . S
C1055 C1054 1.367 . S
C1055 C1063 1.433 . S
C1056 H1052 0.929 . S
C1056 C1058 1.378 . S
C1056 C1060 1.350 . S
C1057 C1060 1.463 . S
C1057 C1062 1.350 . S
C1057 N1065 1.427 . S
C1058 H1049 0.930 . S
C1058 C1056 1.378 . S
C1058 C1059 1.367 . S
C1059 C1058 1.367 . S
C1059 C1061 1.433 . S
C1060 C1056 1.350 . S
C1060 C1057 1.463 . S
C1060 N1064 1.427 . S
C1061 H1051 0.929 . S
C1061 C1059 1.433 . S
C1061 N1064 1.384 . S
C1062 H1053 0.929 . S
C1062 C1054 1.378 . S
C1062 C1057 1.350 . S
C1063 H1050 0.929 1_565 S
C1063 C1055 1.433 . S
C1063 N1065 1.384 . S
N1064 C1060 1.427 . S
N1064 C1061 1.384 . S
N1065 C1057 1.427 . S
N1065 C1063 1.384 . S
H1066 C1072 0.930 . S
H1067 C1076 0.930 . S
H1068 C1081 0.929 . S
H1069 C1079 0.929 . S
H1070 C1074 0.929 . S
H1071 C1080 0.929 . S
C1072 H1066 0.930 . S
C1072 C1073 1.367 . S
C1072 C1080 1.378 . S
C1073 C1072 1.367 . S
C1073 C1081 1.433 . S
C1074 H1070 0.929 . S
C1074 C1076 1.378 . S
C1074 C1078 1.350 . S
C1075 C1078 1.463 . S
C1075 C1080 1.350 . S
C1075 N1083 1.427 . S
C1076 H1067 0.930 . S
C1076 C1074 1.378 . S
C1076 C1077 1.367 . S
C1077 C1076 1.367 . S
C1077 C1079 1.433 . S
C1078 C1074 1.350 . S
C1078 C1075 1.463 . S
C1078 N1082 1.427 . S
C1079 H1069 0.929 . S
C1079 C1077 1.433 . S
C1079 N1082 1.384 . S
C1080 H1071 0.929 . S
C1080 C1072 1.378 . S
C1080 C1075 1.350 . S
C1081 H1068 0.929 . S
C1081 C1073 1.433 . S
C1081 N1083 1.384 . S
N1082 C1078 1.427 . S
N1082 C1079 1.384 . S
N1083 C1075 1.427 . S
N1083 C1081 1.384 . S
H1084 C1090 0.930 . S
H1085 C1094 0.930 . S
H1086 C1099 0.929 . S
H1087 C1097 0.929 . S
H1088 C1092 0.929 . S
H1089 C1098 0.929 . S
C1090 H1084 0.930 . S
C1090 C1091 1.367 . S
C1090 C1098 1.378 . S
C1091 C1090 1.367 . S
C1091 C1099 1.433 . S
C1092 H1088 0.929 . S
C1092 C1094 1.378 . S
C1092 C1096 1.350 . S
C1093 C1096 1.463 . S
C1093 C1098 1.350 . S
C1093 N1101 1.427 . S
C1094 H1085 0.930 . S
C1094 C1092 1.378 . S
C1094 C1095 1.367 . S
C1095 C1094 1.367 . S
C1095 C1097 1.433 . S
C1096 C1092 1.350 . S
C1096 C1093 1.463 . S
C1096 N1100 1.427 . S
C1097 H1087 0.929 . S
C1097 C1095 1.433 . S
C1097 N1100 1.384 . S
C1098 H1089 0.929 . S
C1098 C1090 1.378 . S
C1098 C1093 1.350 . S
C1099 H1086 0.929 . S
C1099 C1091 1.433 . S
C1099 N1101 1.384 . S
N1100 C1096 1.427 . S
N1100 C1097 1.384 . S
N1101 C1093 1.427 . S
N1101 C1099 1.384 . S
H1102 C1108 0.930 . S
H1103 C1112 0.930 . S
H1104 C1117 0.929 . S
H1105 C1115 0.929 . S
H1106 C1110 0.929 . S
H1107 C1116 0.929 . S
C1108 H1102 0.930 . S
C1108 C1109 1.367 . S
C1108 C1116 1.378 . S
C1109 C1108 1.367 . S
C1109 C1117 1.433 . S
C1110 H1106 0.929 . S
C1110 C1112 1.378 . S
C1110 C1114 1.350 . S
C1111 C1114 1.463 . S
C1111 C1116 1.350 . S
C1111 N1119 1.427 . S
C1112 H1103 0.930 . S
C1112 C1110 1.378 . S
C1112 C1113 1.367 . S
C1113 C1112 1.367 . S
C1113 C1115 1.433 . S
C1114 C1110 1.350 . S
C1114 C1111 1.463 . S
C1114 N1118 1.427 . S
C1115 H1105 0.929 . S
C1115 C1113 1.433 . S
C1115 N1118 1.384 . S
C1116 H1107 0.929 . S
C1116 C1108 1.378 . S
C1116 C1111 1.350 . S
C1117 H1104 0.929 . S
C1117 C1109 1.433 . S
C1117 N1119 1.384 . S
N1118 C1114 1.427 . S
N1118 C1115 1.384 . S
N1119 C1111 1.427 . S
N1119 C1117 1.384 . S
H1120 C1126 0.930 . S
H1121 C1130 0.930 . S
H1122 C1135 0.929 . S
H1123 C1133 0.929 . S
H1124 C1128 0.929 . S
H1125 C1134 0.929 . S
C1126 H1120 0.930 . S
C1126 C1127 1.367 . S
C1126 C1134 1.378 . S
C1127 C1126 1.367 . S
C1127 C1135 1.433 . S
C1128 H1124 0.929 . S
C1128 C1130 1.378 . S
C1128 C1132 1.350 . S
C1129 C1132 1.463 . S
C1129 C1134 1.350 . S
C1129 N1137 1.427 . S
C1130 H1121 0.930 . S
C1130 C1128 1.378 . S
C1130 C1131 1.367 . S
C1131 C1130 1.367 . S
C1131 C1133 1.433 . S
C1132 C1128 1.350 . S
C1132 C1129 1.463 . S
C1132 N1136 1.427 . S
C1133 H1123 0.929 . S
C1133 C1131 1.433 . S
C1133 N1136 1.384 . S
C1134 H1125 0.929 . S
C1134 C1126 1.378 . S
C1134 C1129 1.350 . S
C1135 H1122 0.929 . S
C1135 C1127 1.433 . S
C1135 N1137 1.384 . S
N1136 C1132 1.427 . S
N1136 C1133 1.384 . S
N1137 C1129 1.427 . S
N1137 C1135 1.384 . S
H1138 C1144 0.930 . S
H1139 C1148 0.930 . S
H1140 C1153 0.929 . S
H1141 C1151 0.929 . S
H1142 C1146 0.929 . S
H1143 C1152 0.929 . S
C1144 H1138 0.930 . S
C1144 C1145 1.367 . S
C1144 C1152 1.378 . S
C1145 C1144 1.367 . S
C1145 C1153 1.433 . S
C1146 H1142 0.929 . S
C1146 C1148 1.378 . S
C1146 C1150 1.350 . S
C1147 C1150 1.463 . S
C1147 C1152 1.350 . S
C1147 N1155 1.427 . S
C1148 H1139 0.930 . S
C1148 C1146 1.378 . S
C1148 C1149 1.367 . S
C1149 C1148 1.367 . S
C1149 C1151 1.433 . S
C1150 C1146 1.350 . S
C1150 C1147 1.463 . S
C1150 N1154 1.427 . S
C1151 H1141 0.929 . S
C1151 C1149 1.433 . S
C1151 N1154 1.384 . S
C1152 H1143 0.929 . S
C1152 C1144 1.378 . S
C1152 C1147 1.350 . S
C1153 H1140 0.929 . S
C1153 C1145 1.433 . S
C1153 N1155 1.384 . S
N1154 C1150 1.427 . S
N1154 C1151 1.384 . S
N1155 C1147 1.427 . S
N1155 C1153 1.384 . S
H1156 C1162 0.930 . S
H1157 C1166 0.930 . S
H1158 C1171 0.929 . S
H1159 C1169 0.929 . S
H1160 C1164 0.929 . S
H1161 C1170 0.929 . S
C1162 H1156 0.930 . S
C1162 C1163 1.367 . S
C1162 C1170 1.378 . S
C1163 C1162 1.367 . S
C1163 C1171 1.433 . S
C1164 H1160 0.929 . S
C1164 C1166 1.378 . S
C1164 C1168 1.350 . S
C1165 C1168 1.463 . S
C1165 C1170 1.350 . S
C1165 N1173 1.427 . S
C1166 H1157 0.930 . S
C1166 C1164 1.378 . S
C1166 C1167 1.367 . S
C1167 C1166 1.367 . S
C1167 C1169 1.433 . S
C1168 C1164 1.350 . S
C1168 C1165 1.463 . S
C1168 N1172 1.427 . S
C1169 H1159 0.929 . S
C1169 C1167 1.433 . S
C1169 N1172 1.384 . S
C1170 H1161 0.929 . S
C1170 C1162 1.378 . S
C1170 C1165 1.350 . S
C1171 H1158 0.929 . S
C1171 C1163 1.433 . S
C1171 N1173 1.384 . S
N1172 C1168 1.427 . S
N1172 C1169 1.384 . S
N1173 C1165 1.427 . S
N1173 C1171 1.384 . S
H1174 C1180 0.930 . S
H1175 C1184 0.930 . S
H1176 C1189 0.929 . S
H1177 C1187 0.929 . S
H1178 C1182 0.929 . S
H1179 C1188 0.929 . S
C1180 H1174 0.930 . S
C1180 C1181 1.367 . S
C1180 C1188 1.378 . S
C1181 C1180 1.367 . S
C1181 C1189 1.433 . S
C1182 H1178 0.929 . S
C1182 C1184 1.378 . S
C1182 C1186 1.350 . S
C1183 C1186 1.463 . S
C1183 C1188 1.350 . S
C1183 N1191 1.427 . S
C1184 H1175 0.930 . S
C1184 C1182 1.378 . S
C1184 C1185 1.367 . S
C1185 C1184 1.367 . S
C1185 C1187 1.433 . S
C1186 C1182 1.350 . S
C1186 C1183 1.463 . S
C1186 N1190 1.427 . S
C1187 H1177 0.929 . S
C1187 C1185 1.433 . S
C1187 N1190 1.384 . S
C1188 H1179 0.929 . S
C1188 C1180 1.378 . S
C1188 C1183 1.350 . S
C1189 H1176 0.929 . S
C1189 C1181 1.433 . S
C1189 N1191 1.384 . S
N1190 C1186 1.427 . S
N1190 C1187 1.384 . S
N1191 C1183 1.427 . S
N1191 C1189 1.384 . S
H1192 C1198 0.930 . S
H1193 C1202 0.930 . S
H1194 C1207 0.929 . S
H1195 C1205 0.929 . S
H1196 C1200 0.929 . S
H1197 C1206 0.929 . S
C1198 H1192 0.930 . S
C1198 C1199 1.367 . S
C1198 C1206 1.378 . S
C1199 C1198 1.367 . S
C1199 C1207 1.433 . S
C1200 H1196 0.929 . S
C1200 C1202 1.378 . S
C1200 C1204 1.350 . S
C1201 C1204 1.463 . S
C1201 C1206 1.350 . S
C1201 N1209 1.427 . S
C1202 H1193 0.930 . S
C1202 C1200 1.378 . S
C1202 C1203 1.367 . S
C1203 C1202 1.367 . S
C1203 C1205 1.433 . S
C1204 C1200 1.350 . S
C1204 C1201 1.463 . S
C1204 N1208 1.427 . S
C1205 H1195 0.929 . S
C1205 C1203 1.433 . S
C1205 N1208 1.384 . S
C1206 H1197 0.929 . S
C1206 C1198 1.378 . S
C1206 C1201 1.350 . S
C1207 H1194 0.929 . S
C1207 C1199 1.433 . S
C1207 N1209 1.384 . S
N1208 C1204 1.427 . S
N1208 C1205 1.384 . S
N1209 C1201 1.427 . S
N1209 C1207 1.384 . S
H1210 C1216 0.930 . S
H1211 C1220 0.930 . S
H1212 C1225 0.929 . S
H1213 C1223 0.929 . S
H1214 C1218 0.929 . S
H1215 C1224 0.929 . S
C1216 H1210 0.930 . S
C1216 C1217 1.367 . S
C1216 C1224 1.378 . S
C1217 C1216 1.367 . S
C1217 C1225 1.433 . S
C1218 H1214 0.929 . S
C1218 C1220 1.378 . S
C1218 C1222 1.350 . S
C1219 C1222 1.463 . S
C1219 C1224 1.350 . S
C1219 N1227 1.427 . S
C1220 H1211 0.930 . S
C1220 C1218 1.378 . S
C1220 C1221 1.367 . S
C1221 C1220 1.367 . S
C1221 C1223 1.433 . S
C1222 C1218 1.350 . S
C1222 C1219 1.463 . S
C1222 N1226 1.427 . S
C1223 H1213 0.929 . S
C1223 C1221 1.433 . S
C1223 N1226 1.384 . S
C1224 H1215 0.929 . S
C1224 C1216 1.378 . S
C1224 C1219 1.350 . S
C1225 H1212 0.929 . S
C1225 C1217 1.433 . S
C1225 N1227 1.384 . S
N1226 C1222 1.427 . S
N1226 C1223 1.384 . S
N1227 C1219 1.427 . S
N1227 C1225 1.384 . S
H1228 C1234 0.930 . S
H1229 C1238 0.930 . S
H1230 C1243 0.929 . S
H1231 C1241 0.929 . S
H1232 C1236 0.929 . S
H1233 C1242 0.929 . S
C1234 H1228 0.930 . S
C1234 C1235 1.367 . S
C1234 C1242 1.378 . S
C1235 C1234 1.367 . S
C1235 C1243 1.433 . S
C1236 H1232 0.929 . S
C1236 C1238 1.378 . S
C1236 C1240 1.350 . S
C1237 C1240 1.463 . S
C1237 C1242 1.350 . S
C1237 N1245 1.427 . S
C1238 H1229 0.930 . S
C1238 C1236 1.378 . S
C1238 C1239 1.367 . S
C1239 C1238 1.367 . S
C1239 C1241 1.433 . S
C1240 C1236 1.350 . S
C1240 C1237 1.463 . S
C1240 N1244 1.427 . S
C1241 H1231 0.929 . S
C1241 C1239 1.433 . S
C1241 N1244 1.384 . S
C1242 H1233 0.929 . S
C1242 C1234 1.378 . S
C1242 C1237 1.350 . S
C1243 H1230 0.929 . S
C1243 C1235 1.433 . S
C1243 N1245 1.384 . S
N1244 C1240 1.427 . S
N1244 C1241 1.384 . S
N1245 C1237 1.427 . S
N1245 C1243 1.384 . S
H1246 C1252 0.930 . S
H1247 C1256 0.930 . S
H1248 C1261 0.929 . S
H1249 C1259 0.929 . S
H1250 C1254 0.929 . S
H1251 C1260 0.929 . S
C1252 H1246 0.930 . S
C1252 C1253 1.367 . S
C1252 C1260 1.378 . S
C1253 C1252 1.367 . S
C1253 C1261 1.433 . S
C1254 H1250 0.929 . S
C1254 C1256 1.378 . S
C1254 C1258 1.350 . S
C1255 C1258 1.463 . S
C1255 C1260 1.350 . S
C1255 N1263 1.427 . S
C1256 H1247 0.930 . S
C1256 C1254 1.378 . S
C1256 C1257 1.367 . S
C1257 C1256 1.367 . S
C1257 C1259 1.433 . S
C1258 C1254 1.350 . S
C1258 C1255 1.463 . S
C1258 N1262 1.427 . S
C1259 H1249 0.929 . S
C1259 C1257 1.433 . S
C1259 N1262 1.384 . S
C1260 H1251 0.929 . S
C1260 C1252 1.378 . S
C1260 C1255 1.350 . S
C1261 H1248 0.929 . S
C1261 C1253 1.433 . S
C1261 N1263 1.384 . S
N1262 C1258 1.427 . S
N1262 C1259 1.384 . S
N1263 C1255 1.427 . S
N1263 C1261 1.384 . S
H1264 C1270 0.930 . S
H1265 C1274 0.930 . S
H1266 C1279 0.929 . S
H1267 C1277 0.929 . S
H1268 C1272 0.929 . S
H1269 C1278 0.929 . S
C1270 H1264 0.930 . S
C1270 C1271 1.367 . S
C1270 C1278 1.378 . S
C1271 C1270 1.367 . S
C1271 C1279 1.433 . S
C1272 H1268 0.929 . S
C1272 C1274 1.378 . S
C1272 C1276 1.350 . S
C1273 C1276 1.463 . S
C1273 C1278 1.350 . S
C1273 N1281 1.427 . S
C1274 H1265 0.930 . S
C1274 C1272 1.378 . S
C1274 C1275 1.367 . S
C1275 C1274 1.367 . S
C1275 C1277 1.433 . S
C1276 C1272 1.350 . S
C1276 C1273 1.463 . S
C1276 N1280 1.427 . S
C1277 H1267 0.929 . S
C1277 C1275 1.433 . S
C1277 N1280 1.384 . S
C1278 H1269 0.929 . S
C1278 C1270 1.378 . S
C1278 C1273 1.350 . S
C1279 H1266 0.929 . S
C1279 C1271 1.433 . S
C1279 N1281 1.384 . S
N1280 C1276 1.427 . S
N1280 C1277 1.384 . S
N1281 C1273 1.427 . S
N1281 C1279 1.384 . S
H1282 C1288 0.930 . S
H1283 C1292 0.930 . S
H1284 C1297 0.929 . S
H1285 C1295 0.929 . S
H1286 C1290 0.929 . S
H1287 C1296 0.929 . S
C1288 H1282 0.930 . S
C1288 C1289 1.367 . S
C1288 C1296 1.378 . S
C1289 C1288 1.367 . S
C1289 C1297 1.433 . S
C1290 H1286 0.929 . S
C1290 C1292 1.378 . S
C1290 C1294 1.350 . S
C1291 C1294 1.463 . S
C1291 C1296 1.350 . S
C1291 N1299 1.427 . S
C1292 H1283 0.930 . S
C1292 C1290 1.378 . S
C1292 C1293 1.367 . S
C1293 C1292 1.367 . S
C1293 C1295 1.433 . S
C1294 C1290 1.350 . S
C1294 C1291 1.463 . S
C1294 N1298 1.427 . S
C1295 H1285 0.929 . S
C1295 C1293 1.433 . S
C1295 N1298 1.384 . S
C1296 H1287 0.929 . S
C1296 C1288 1.378 . S
C1296 C1291 1.350 . S
C1297 H1284 0.929 . S
C1297 C1289 1.433 . S
C1297 N1299 1.384 . S
N1298 C1294 1.427 . S
N1298 C1295 1.384 . S
N1299 C1291 1.427 . S
N1299 C1297 1.384 . S
H1300 C1306 0.930 . S
H1301 C1310 0.930 . S
H1302 C1315 0.929 . S
H1303 C1313 0.929 . S
H1304 C1308 0.929 . S
H1305 C1314 0.929 . S
C1306 H1300 0.930 . S
C1306 C1307 1.367 . S
C1306 C1314 1.378 . S
C1307 C1306 1.367 . S
C1307 C1315 1.433 . S
C1308 H1304 0.929 . S
C1308 C1310 1.378 . S
C1308 C1312 1.350 . S
C1309 C1312 1.463 . S
C1309 C1314 1.350 . S
C1309 N1317 1.427 . S
C1310 H1301 0.930 . S
C1310 C1308 1.378 . S
C1310 C1311 1.367 . S
C1311 C1310 1.367 . S
C1311 C1313 1.433 . S
C1312 C1308 1.350 . S
C1312 C1309 1.463 . S
C1312 N1316 1.427 . S
C1313 H1303 0.929 . S
C1313 C1311 1.433 . S
C1313 N1316 1.384 . S
C1314 H1305 0.929 . S
C1314 C1306 1.378 . S
C1314 C1309 1.350 . S
C1315 H1302 0.929 . S
C1315 C1307 1.433 . S
C1315 N1317 1.384 . S
N1316 C1312 1.427 . S
N1316 C1313 1.384 . S
N1317 C1309 1.427 . S
N1317 C1315 1.384 . S
H1318 C1324 0.930 . S
H1319 C1328 0.930 . S
H1320 C1333 0.929 . S
H1321 C1331 0.929 . S
H1322 C1326 0.929 . S
H1323 C1332 0.929 . S
C1324 H1318 0.930 . S
C1324 C1325 1.367 . S
C1324 C1332 1.378 . S
C1325 C1324 1.367 . S
C1325 C1333 1.433 . S
C1326 H1322 0.929 . S
C1326 C1328 1.378 . S
C1326 C1330 1.350 . S
C1327 C1330 1.463 . S
C1327 C1332 1.350 . S
C1327 N1335 1.427 . S
C1328 H1319 0.930 . S
C1328 C1326 1.378 . S
C1328 C1329 1.367 . S
C1329 C1328 1.367 . S
C1329 C1331 1.433 . S
C1330 C1326 1.350 . S
C1330 C1327 1.463 . S
C1330 N1334 1.427 . S
C1331 H1321 0.929 . S
C1331 C1329 1.433 . S
C1331 N1334 1.384 . S
C1332 H1323 0.929 . S
C1332 C1324 1.378 . S
C1332 C1327 1.350 . S
C1333 H1320 0.929 . S
C1333 C1325 1.433 . S
C1333 N1335 1.384 . S
N1334 C1330 1.427 . S
N1334 C1331 1.384 . S
N1335 C1327 1.427 . S
N1335 C1333 1.384 . S
H1336 C1342 0.930 . S
H1337 C1346 0.930 . S
H1338 C1351 0.929 . S
H1339 C1349 0.929 . S
H1340 C1344 0.929 . S
H1341 C1350 0.929 . S
C1342 H1336 0.930 . S
C1342 C1343 1.367 . S
C1342 C1350 1.378 . S
C1343 C1342 1.367 . S
C1343 C1351 1.433 . S
C1344 H1340 0.929 . S
C1344 C1346 1.378 . S
C1344 C1348 1.350 . S
C1345 C1348 1.463 . S
C1345 C1350 1.350 . S
C1345 N1353 1.427 . S
C1346 H1337 0.930 . S
C1346 C1344 1.378 . S
C1346 C1347 1.367 . S
C1347 C1346 1.367 . S
C1347 C1349 1.433 . S
C1348 C1344 1.350 . S
C1348 C1345 1.463 . S
C1348 N1352 1.427 . S
C1349 H1339 0.929 . S
C1349 C1347 1.433 . S
C1349 N1352 1.384 . S
C1350 H1341 0.929 . S
C1350 C1342 1.378 . S
C1350 C1345 1.350 . S
C1351 H1338 0.929 . S
C1351 C1343 1.433 . S
C1351 N1353 1.384 . S
N1352 C1348 1.427 . S
N1352 C1349 1.384 . S
N1353 C1345 1.427 . S
N1353 C1351 1.384 . S
H1354 C1360 0.930 . S
H1355 C1364 0.930 . S
H1356 C1369 0.929 . S
H1357 C1367 0.929 . S
H1358 C1362 0.929 . S
H1359 C1368 0.929 . S
C1360 H1354 0.930 . S
C1360 C1361 1.367 . S
C1360 C1368 1.378 . S
C1361 C1360 1.367 . S
C1361 C1369 1.433 . S
C1362 H1358 0.929 . S
C1362 C1364 1.378 . S
C1362 C1366 1.350 . S
C1363 C1366 1.463 . S
C1363 C1368 1.350 . S
C1363 N1371 1.427 . S
C1364 H1355 0.930 . S
C1364 C1362 1.378 . S
C1364 C1365 1.367 . S
C1365 C1364 1.367 . S
C1365 C1367 1.433 . S
C1366 C1362 1.350 . S
C1366 C1363 1.463 . S
C1366 N1370 1.427 . S
C1367 H1357 0.929 . S
C1367 C1365 1.433 . S
C1367 N1370 1.384 . S
C1368 H1359 0.929 . S
C1368 C1360 1.378 . S
C1368 C1363 1.350 . S
C1369 H1356 0.929 . S
C1369 C1361 1.433 . S
C1369 N1371 1.384 . S
N1370 C1366 1.427 . S
N1370 C1367 1.384 . S
N1371 C1363 1.427 . S
N1371 C1369 1.384 . S
H1372 C1378 0.930 . S
H1373 C1382 0.930 . S
H1374 C1387 0.929 . S
H1375 C1385 0.929 . S
H1376 C1380 0.929 . S
H1377 C1386 0.929 . S
C1378 H1372 0.930 . S
C1378 C1379 1.367 . S
C1378 C1386 1.378 . S
C1379 C1378 1.367 . S
C1379 C1387 1.433 . S
C1380 H1376 0.929 . S
C1380 C1382 1.378 . S
C1380 C1384 1.350 . S
C1381 C1384 1.463 . S
C1381 C1386 1.350 . S
C1381 N1389 1.427 . S
C1382 H1373 0.930 . S
C1382 C1380 1.378 . S
C1382 C1383 1.367 . S
C1383 C1382 1.367 . S
C1383 C1385 1.433 . S
C1384 C1380 1.350 . S
C1384 C1381 1.463 . S
C1384 N1388 1.427 . S
C1385 H1375 0.929 . S
C1385 C1383 1.433 . S
C1385 N1388 1.384 . S
C1386 H1377 0.929 . S
C1386 C1378 1.378 . S
C1386 C1381 1.350 . S
C1387 H1374 0.929 . S
C1387 C1379 1.433 . S
C1387 N1389 1.384 . S
N1388 C1384 1.427 . S
N1388 C1385 1.384 . S
N1389 C1381 1.427 . S
N1389 C1387 1.384 . S
H1390 C1396 0.930 . S
H1391 C1400 0.930 . S
H1392 C1405 0.929 . S
H1393 C1403 0.929 . S
H1394 C1398 0.929 . S
H1395 C1404 0.929 . S
C1396 H1390 0.930 . S
C1396 C1397 1.367 . S
C1396 C1404 1.378 . S
C1397 C1396 1.367 . S
C1397 C1405 1.433 . S
C1398 H1394 0.929 . S
C1398 C1400 1.378 . S
C1398 C1402 1.350 . S
C1399 C1402 1.463 . S
C1399 C1404 1.350 . S
C1399 N1407 1.427 . S
C1400 H1391 0.930 . S
C1400 C1398 1.378 . S
C1400 C1401 1.367 . S
C1401 C1400 1.367 . S
C1401 C1403 1.433 . S
C1402 C1398 1.350 . S
C1402 C1399 1.463 . S
C1402 N1406 1.427 . S
C1403 H1393 0.929 . S
C1403 C1401 1.433 . S
C1403 N1406 1.384 . S
C1404 H1395 0.929 . S
C1404 C1396 1.378 . S
C1404 C1399 1.350 . S
C1405 H1392 0.929 . S
C1405 C1397 1.433 . S
C1405 N1407 1.384 . S
N1406 C1402 1.427 . S
N1406 C1403 1.384 . S
N1407 C1399 1.427 . S
N1407 C1405 1.384 . S
C551 C110 0.572 . S
C555 C13 0.558 . S
C569 C17 1.502 . S
C573 C34 1.490 . S
C587 C81 0.893 . S
C591 C47 0.888 . S
C605 C131 1.552 . S
C609 C85 1.553 . S
C623 C165 1.579 . S
C627 C199 1.583 . S
C641 C174 0.902 . S
C645 C217 0.894 . S
C659 C204 1.463 . S
C663 C267 1.480 . S
C677 C144 0.571 . S
C681 C242 0.579 . S
C695 C314 1.472 . S
C699 C0 1.485 . S
C713 C357 2.433 . S
C717 C51 2.431 . S
C731 C68 1.483 . S
C735 C442 1.491 . S
C749 C276 0.982 . S
C753 C106 0.981 . S
C767 C378 0.977 . S
C771 C140 0.972 . S
C785 C476 1.460 . S
C789 C178 1.450 . S
C803 C221 2.409 . S
C807 C425 2.410 . S
C821 C510 1.475 . S
C825 C246 1.484 . S
C839 C280 0.557 . S
C843 C455 0.540 . S
C857 C335 1.515 . S
C861 C301 1.508 . S
C875 C353 0.907 . S
C879 C310 0.894 . S
C893 C489 0.562 . S
C897 C382 0.567 . S
C911 C421 0.889 . S
C915 C523 0.894 . S
C929 C391 0.571 . S
C933 C4 0.556 . S
C947 C437 1.525 . S
C951 C8 1.535 . S
C965 C412 0.888 . S
C969 C72 0.896 . S
C983 C76 1.520 . S
C987 C374 1.516 . S
C1001 C306 1.512 . S
C1005 C136 1.511 . S
C1019 C319 0.889 . S
C1023 C208 0.888 . S
C1037 C450 1.500 . S
C1041 C233 1.490 . S
C1055 C153 0.547 . S
C1059 C446 0.545 . S
C1073 C187 1.453 . S
C1077 C29 1.460 . S
C1091 C348 2.409 . S
C1095 C416 2.410 . S
C1109 C97 1.472 . S
C1113 C255 1.485 . S
C1127 C285 0.959 . S
C1131 C387 0.960 . S
C1145 C115 0.959 . S
C1149 C149 0.957 . S
C1163 C323 1.475 . S
C1167 C505 1.484 . S
C1181 C212 2.435 . S
C1185 C42 2.434 . S
C1199 C539 1.482 . S
C1203 C471 1.491 . S
C1217 C289 0.566 . S
C1221 C251 0.575 . S
C1235 C272 1.581 . S
C1239 C170 1.588 . S
C1253 C344 0.888 . S
C1257 C183 0.891 . S
C1271 C119 0.558 . S
C1275 C480 0.561 . S
C1289 C38 0.893 . S
C1293 C514 0.891 . S
C1307 C408 1.518 . S
C1311 C493 1.533 . S
C1325 C403 1.514 . S
C1329 C527 1.519 . S
C1343 C340 1.490 . S
C1347 C459 1.500 . S
C1361 C484 1.506 . S
C1365 C63 1.496 . S
C1379 C102 1.550 . S
C1383 C518 1.556 . S
C1397 C238 1.479 . S
C1401 C369 1.464 . S
