# Generated by pormake.
# Topology smc, (6)-cn, num edge types: 1
# Building blocks:
#     Node 0, Type 0, BuildingBlock: NUHQIS_clean_sbu_0, # of connection points: 6
#     Node 1, Type 0, BuildingBlock: NUHQIS_clean_sbu_0, # of connection points: 6
#     Node 2, Type 0, BuildingBlock: NUHQIS_clean_sbu_0, # of connection points: 6
#     Node 3, Type 0, BuildingBlock: NUHQIS_clean_sbu_0, # of connection points: 6
#     Node 4, Type 0, BuildingBlock: NUHQIS_clean_sbu_0, # of connection points: 6
#     Node 5, Type 0, BuildingBlock: NUHQIS_clean_sbu_0, # of connection points: 6
#     Node 6, Type 0, BuildingBlock: NUHQIS_clean_sbu_0, # of connection points: 6
#     Node 7, Type 0, BuildingBlock: NUHQIS_clean_sbu_0, # of connection points: 6
#     Node 8, Type 0, BuildingBlock: NUHQIS_clean_sbu_0, # of connection points: 6
#     Edge 9, Type (0, 0), BuildingBlock: OJICUG_clean_linker_0, # of connection points: 2
#     Edge 10, Type (0, 0), BuildingBlock: OJICUG_clean_linker_0, # of connection points: 2
#     Edge 11, Type (0, 0), BuildingBlock: OJICUG_clean_linker_0, # of connection points: 2
#     Edge 12, Type (0, 0), BuildingBlock: OJICUG_clean_linker_0, # of connection points: 2
#     Edge 13, Type (0, 0), BuildingBlock: OJICUG_clean_linker_0, # of connection points: 2
#     Edge 14, Type (0, 0), BuildingBlock: OJICUG_clean_linker_0, # of connection points: 2
#     Edge 15, Type (0, 0), BuildingBlock: OJICUG_clean_linker_0, # of connection points: 2
#     Edge 16, Type (0, 0), BuildingBlock: OJICUG_clean_linker_0, # of connection points: 2
#     Edge 17, Type (0, 0), BuildingBlock: OJICUG_clean_linker_0, # of connection points: 2
#     Edge 18, Type (0, 0), BuildingBlock: OJICUG_clean_linker_0, # of connection points: 2
#     Edge 19, Type (0, 0), BuildingBlock: OJICUG_clean_linker_0, # of connection points: 2
#     Edge 20, Type (0, 0), BuildingBlock: OJICUG_clean_linker_0, # of connection points: 2
#     Edge 21, Type (0, 0), BuildingBlock: OJICUG_clean_linker_0, # of connection points: 2
#     Edge 22, Type (0, 0), BuildingBlock: OJICUG_clean_linker_0, # of connection points: 2
#     Edge 23, Type (0, 0), BuildingBlock: OJICUG_clean_linker_0, # of connection points: 2
#     Edge 24, Type (0, 0), BuildingBlock: OJICUG_clean_linker_0, # of connection points: 2
#     Edge 25, Type (0, 0), BuildingBlock: OJICUG_clean_linker_0, # of connection points: 2
#     Edge 26, Type (0, 0), BuildingBlock: OJICUG_clean_linker_0, # of connection points: 2
#     Edge 27, Type (0, 0), BuildingBlock: OJICUG_clean_linker_0, # of connection points: 2
#     Edge 28, Type (0, 0), BuildingBlock: OJICUG_clean_linker_0, # of connection points: 2
#     Edge 29, Type (0, 0), BuildingBlock: OJICUG_clean_linker_0, # of connection points: 2
#     Edge 30, Type (0, 0), BuildingBlock: OJICUG_clean_linker_0, # of connection points: 2
#     Edge 31, Type (0, 0), BuildingBlock: OJICUG_clean_linker_0, # of connection points: 2
#     Edge 32, Type (0, 0), BuildingBlock: OJICUG_clean_linker_0, # of connection points: 2
#     Edge 33, Type (0, 0), BuildingBlock: OJICUG_clean_linker_0, # of connection points: 2
#     Edge 34, Type (0, 0), BuildingBlock: OJICUG_clean_linker_0, # of connection points: 2
#     Edge 35, Type (0, 0), BuildingBlock: OJICUG_clean_linker_0, # of connection points: 2
# Relax obj value: 0.425
# Max RMSD: 0.415
# Mean RMSD: 0.352
data_MOF--net-smc--node1-NUHQIS_clean_sbu_0--edge1-OJICUG_clean_linker_0
_symmetry_space_group_name_H-M    P1
_symmetry_Int_Tables_number       1
_symmetry_cell_setting            triclinic
loop_
_symmetry_equiv_pos_as_xyz
'x, y, z'
_cell_length_a     34.100354
_cell_length_b     23.70975
_cell_length_c     28.606146
_cell_angle_alpha  91.260164
_cell_angle_beta   90.36926
_cell_angle_gamma 118.82894
loop_
_atom_site_label
_atom_site_type_symbol
_atom_site_fract_x
_atom_site_fract_y
_atom_site_fract_z
_atom_type_partial_charge
Tb0 Tb 1.07977 0.51085 0.05382 0.0
Eu1 Eu 0.10774 0.41416 1.0071 0.0
C2 C 0.14059 0.47065 0.11144 0.0
C3 C 0.17353 0.57001 1.00907 0.0
C4 C 0.99499 0.54414 0.09292 0.0
C5 C 0.9306 0.55544 0.11272 0.0
C6 C 0.9758 0.57402 0.11964 0.0
C7 C 0.96793 0.49138 0.06324 0.0
C8 C 0.92311 0.47309 0.05604 0.0
C9 C 0.90493 0.50783 0.0784 0.0
C10 C 1.0432 0.56832 0.09312 0.0
O11 O 1.03688 0.46994 0.98866 0.0
O12 O 1.08434 0.44845 0.94622 0.0
O13 O 1.03224 0.35939 0.01405 0.0
O14 O 1.04109 0.41522 0.08048 0.0
C15 C 1.0481 0.45407 0.94813 0.0
O16 O 0.13643 0.38056 0.95287 0.0
O17 O 0.10688 0.32173 0.01308 0.0
O18 O 0.12257 0.41873 0.08434 0.0
O19 O 0.13502 0.5203 0.10068 0.0
O20 O 0.13771 0.57593 0.0156 0.0
O21 O 0.17176 0.51308 1.01136 0.0
C22 C 1.015 0.36768 0.05247 0.0
O23 O 1.05598 0.53259 0.11534 0.0
O24 O 1.0613 0.5834 0.05207 0.0
C25 C 0.18017 0.34728 0.99312 0.0
C26 C 0.26453 0.4536 1.00463 0.0
C27 C 0.25301 0.41679 0.96266 0.0
C28 C 0.21107 0.3627 0.9572 0.0
C29 C 0.19576 0.37494 0.03816 0.0
C30 C 0.23755 0.42939 0.04365 0.0
C31 C 0.13543 0.3356 0.97931 0.0
H32 H 0.91737 0.58361 0.13006 0.0
H33 H 0.99616 0.61411 0.14331 0.0
H34 H 0.98206 0.46683 0.04326 0.0
H35 H 0.90414 0.43687 0.02918 0.0
H36 H 0.27475 0.43312 0.93282 0.0
H37 H 0.20021 0.34095 0.92254 0.0
H38 H 0.1732 0.36191 0.06729 0.0
H39 H 0.24664 0.4558 0.07688 0.0
Tb40 Tb 0.6125 0.6557 0.9802 0.0
Eu41 Eu 0.69952 0.71828 1.00382 0.0
C42 C 0.68462 0.67727 0.89015 0.0
C43 C 0.64114 0.55176 1.00339 0.0
C44 C 0.50472 0.62703 0.94619 0.0
C45 C 0.43406 0.6203 0.92573 0.0
C46 C 0.47058 0.61234 0.91335 0.0
C47 C 0.50468 0.6563 0.98937 0.0
C48 C 0.46939 0.66703 1.00091 0.0
C49 C 0.43178 0.64344 0.97108 0.0
C50 C 0.53962 0.60986 0.93733 0.0
O51 O 0.61786 0.68385 0.05858 0.0
O52 O 0.67385 0.66308 0.06686 0.0
O53 O 0.6771 0.80076 0.01473 0.0
O54 O 0.60517 0.74158 0.99178 0.0
C55 C 0.64622 0.67723 0.08745 0.0
O56 O 0.76176 0.77448 0.04371 0.0
O57 O 0.76254 0.76844 0.96836 0.0
O58 O 0.67022 0.68557 0.93099 0.0
O59 O 0.67357 0.68858 0.9331 0.0
O60 O 0.60726 0.5625 0.9971 0.0
O61 O 0.68228 0.60508 1.00535 0.0
C62 C 0.63722 0.79773 1.00589 0.0
O63 O 0.57651 0.65608 0.92059 0.0
O64 O 0.54696 0.58081 0.97204 0.0
C65 C 0.81767 0.75762 1.00944 0.0
C66 C 0.83638 0.65655 0.01951 0.0
C67 C 0.83966 0.69596 0.05846 0.0
C68 C 0.83034 0.74638 0.05346 0.0
C69 C 0.82309 0.72648 0.96961 0.0
C70 C 0.83122 0.67498 0.97465 0.0
C71 C 0.78637 0.78325 1.00687 0.0
H72 H 0.40575 0.6015 0.90156 0.0
H73 H 0.47056 0.59048 0.87967 0.0
H74 H 0.53028 0.6668 0.01577 0.0
H75 H 0.4691 0.68621 0.03555 0.0
H76 H 0.84682 0.68559 0.0932 0.0
H77 H 0.82812 0.77153 0.08459 0.0
H78 H 0.81562 0.73646 0.93494 0.0
H79 H 0.83015 0.64711 0.94371 0.0
Tb80 Tb 0.61359 0.15793 0.04569 0.0
Eu81 Eu 0.5258 0.09313 0.02259 0.0
C82 C 0.54094 1.08004 0.12826 0.0
C83 C 0.58709 1.01542 0.01921 0.0
C84 C 0.73388 0.2369 0.08638 0.0
C85 C 0.80726 0.26643 0.11833 0.0
C86 C 0.76158 0.24265 0.12433 0.0
C87 C 0.75262 0.25864 0.0425 0.0
C88 C 0.79879 0.28358 0.03652 0.0
C89 C 0.82653 0.28595 0.07418 0.0
C90 C 0.6855 0.19922 0.09244 0.0
O91 O 0.611 0.18269 0.97009 0.0
O92 O 0.55099 0.08824 0.95289 0.0
O93 O 0.54796 0.20932 0.01897 0.0
O94 O 0.62328 0.25253 0.02826 0.0
C95 C 0.58102 0.14336 0.93839 0.0
O96 O 0.46057 1.05399 0.9857 0.0
O97 O 0.46351 1.03656 0.059 0.0
O98 O 0.55419 0.12295 0.09564 0.0
O99 O 0.55448 0.12397 0.09486 0.0
O100 O 0.61946 1.07501 0.01722 0.0
O101 O 0.54606 1.00884 0.02489 0.0
C102 C 0.58929 0.263 0.02147 0.0
O103 O 0.66193 0.22909 0.091 0.0
O104 O 0.66621 0.14421 0.0695 0.0
C105 C 0.40481 0.95156 0.01408 0.0
C106 C 0.33489 0.8211 1.00423 0.0
C107 C 0.33986 0.86762 0.97137 0.0
C108 C 0.37406 0.9318 0.97641 0.0
C109 C 0.40116 0.90473 0.04597 0.0
C110 C 0.36676 0.84055 0.04109 0.0
C111 C 0.43826 1.02123 0.02157 0.0
H112 H 0.82688 0.26623 0.14813 0.0
H113 H 0.74748 0.22539 0.15827 0.0
H114 H 0.73141 0.25409 0.0127 0.0
H115 H 0.81245 0.29954 1.00228 0.0
H116 H 0.31684 0.85478 0.94185 0.0
H117 H 0.37586 0.96641 0.95123 0.0
H118 H 0.42415 0.91789 0.07557 0.0
H119 H 0.36419 0.80689 0.06743 0.0
Tb120 Tb 0.72411 0.85025 0.38226 0.0
Eu121 Eu 0.7939 0.78263 0.35041 0.0
C122 C 0.78807 0.8242 0.45242 0.0
C123 C 0.82044 0.92924 0.34948 0.0
C124 C 0.63459 0.913 0.38942 0.0
C125 C 0.5784 0.93903 0.42309 0.0
C126 C 0.6132 0.923 0.42831 0.0
C127 C 0.61917 0.91913 0.34478 0.0
C128 C 0.58421 0.93519 0.33948 0.0
C129 C 0.56318 0.94624 0.37857 0.0
C130 C 0.67645 0.90607 0.39686 0.0
O131 O 0.70657 0.80853 0.30806 0.0
O132 O 0.75788 0.7748 0.28326 0.0
O133 O 0.71599 0.69978 0.3563 0.0
O134 O 0.68937 0.75311 0.40522 0.0
C135 C 0.72275 0.7836 0.27568 0.0
O136 O 0.84325 0.75036 0.32354 0.0
O137 O 0.86358 0.82579 0.3769 0.0
O138 O 0.7758 0.77322 0.42544 0.0
O139 O 0.77325 0.86539 0.44171 0.0
O140 O 0.79198 0.92615 0.38073 0.0
O141 O 0.81232 0.87956 0.32279 0.0
C142 C 0.6819 0.70217 0.37982 0.0
O143 O 0.67609 0.86157 0.42348 0.0
O144 O 0.70443 0.91852 0.36263 0.0
C145 C 0.9296 0.82296 0.34096 0.0
C146 C 1.03006 0.87425 0.33238 0.0
C147 C 0.99674 0.8214 0.30454 0.0
C148 C 0.94878 0.79668 0.30883 0.0
C149 C 0.9627 0.87591 0.36846 0.0
C150 C 1.0105 0.9004 0.36437 0.0
C151 C 0.87711 0.79312 0.35016 0.0
H152 H 0.56438 0.94778 0.45449 0.0
H153 H 0.62445 0.92043 0.46331 0.0
H154 H 0.63473 0.91271 0.31371 0.0
H155 H 0.5737 0.93896 0.30445 0.0
H156 H 1.00739 0.79792 0.27875 0.0
H157 H 0.92649 0.75584 0.28675 0.0
H158 H 0.95158 0.8985 0.39461 0.0
H159 H 1.03216 0.94003 0.38763 0.0
Tb160 Tb 0.31374 0.92816 0.32665 0.0
Eu161 Eu 0.34907 1.06869 0.31945 0.0
C162 C 0.32828 1.01101 0.42198 0.0
C163 C 0.2355 0.96801 0.32131 0.0
C164 C 0.34003 0.8095 0.30639 0.0
C165 C 0.39687 0.79383 0.34552 0.0
C166 C 0.36909 0.82213 0.34547 0.0
C167 C 0.34984 0.78593 0.26484 0.0
C168 C 0.37702 0.75641 0.26885 0.0
C169 C 0.38281 0.74038 0.31471 0.0
C170 C 0.30099 0.81975 0.30944 0.0
O171 O 0.36689 0.96177 0.27235 0.0
O172 O 0.36123 1.04524 0.24592 0.0
O173 O 0.41167 1.05297 0.33372 0.0
O174 O 0.37474 0.95585 0.3667 0.0
C175 C 0.37804 1.0065 0.24109 0.0
O176 O 0.3538 0.15288 0.28575 0.0
O177 O 0.40064 0.16481 0.34175 0.0
O178 O 0.3363 1.05995 0.39613 0.0
O179 O 0.31851 0.95426 0.40254 0.0
O180 O 0.24652 0.92178 0.31832 0.0
O181 O 0.26947 1.02885 0.32329 0.0
C182 C 0.41275 1.00541 0.35658 0.0
O183 O 0.2926 0.83533 0.35101 0.0
O184 O 0.29784 0.85434 0.2762 0.0
C185 C 0.36729 0.2308 0.34283 0.0
C186 C 0.29255 0.23871 0.37193 0.0
C187 C 0.31516 0.27064 0.33165 0.0
C188 C 0.35268 0.26687 0.31718 0.0
C189 C 0.3503 0.21056 0.38767 0.0
C190 C 0.31243 0.21347 0.40186 0.0
C191 C 0.38309 0.19256 0.31667 0.0
H192 H 0.41581 0.79777 0.3771 0.0
H193 H 0.36711 0.84665 0.37691 0.0
H194 H 0.33286 0.78297 0.23202 0.0
H195 H 0.3792 0.72909 0.2391 0.0
H196 H 0.30178 0.29393 0.30938 0.0
H197 H 0.36599 0.28389 0.28293 0.0
H198 H 0.36212 0.18441 0.40896 0.0
H199 H 0.29656 0.19067 0.43393 0.0
Tb200 Tb 0.25143 0.46728 0.39506 0.0
Eu201 Eu 0.14519 0.41654 0.35595 0.0
C202 C 0.16169 0.4166 0.46604 0.0
C203 C 0.18269 0.32126 0.38416 0.0
C204 C 0.38535 0.53168 0.40241 0.0
C205 C 0.45838 0.54549 0.43224 0.0
C206 C 0.41202 0.52571 0.43794 0.0
C207 C 0.408 0.55882 0.36045 0.0
C208 C 0.45461 0.57862 0.3546 0.0
C209 C 0.48169 0.57335 0.39059 0.0
C210 C 0.337 0.51811 0.41269 0.0
O211 O 0.24571 0.48985 0.31916 0.0
O212 O 0.18581 0.39524 0.30619 0.0
O213 O 0.18517 0.52498 0.35689 0.0
O214 O 0.2229 0.52504 0.42073 0.0
C215 C 0.21747 0.44618 0.28847 0.0
O216 O 0.10369 0.37924 0.29272 0.0
O217 O 1.07743 0.40344 0.35437 0.0
O218 O 0.13471 0.41147 0.4316 0.0
O219 O 0.2059 0.43485 0.46002 0.0
O220 O 0.22359 0.36706 0.3757 0.0
O221 O 0.14743 0.33007 0.38457 0.0
C222 C 0.21571 0.55796 0.38945 0.0
O223 O 0.30659 0.46403 0.43001 0.0
O224 O 0.31785 0.54196 0.38611 0.0
C225 C 1.03432 0.30303 0.31756 0.0
C226 C 0.97475 0.17193 0.32295 0.0
C227 C 0.976 0.20444 0.28212 0.0
C228 C 1.00591 0.27015 0.27939 0.0
C229 C 1.03456 0.26925 0.35721 0.0
C230 C 1.00481 0.20416 0.35996 0.0
C231 C 1.06801 0.3704 0.31486 0.0
H232 H 0.47576 0.5385 0.46135 0.0
H233 H 0.39711 0.50672 0.47123 0.0
H234 H 0.38988 0.56616 0.33211 0.0
H235 H 0.46956 0.59991 0.32189 0.0
H236 H 0.95257 0.17972 0.25343 0.0
H237 H 1.00661 0.29527 0.24796 0.0
H238 H 1.05749 0.29335 0.38638 0.0
H239 H 1.00412 0.1794 0.39162 0.0
Tb240 Tb 0.42753 0.18934 0.70464 0.0
Eu241 Eu 0.44263 1.06993 0.69625 0.0
C242 C 0.47878 0.16074 0.78426 0.0
C243 C 0.51949 0.21641 0.67012 0.0
C244 C 0.3533 0.24873 0.7198 0.0
C245 C 0.29098 0.25296 0.75582 0.0
C246 C 0.33696 0.2757 0.75312 0.0
C247 C 0.32314 0.19533 0.69207 0.0
C248 C 0.27741 0.17276 0.69466 0.0
C249 C 0.26118 0.20325 0.72509 0.0
C250 C 0.40102 0.2691 0.71802 0.0
O251 O 0.38913 0.13293 0.64078 0.0
O252 O 0.43458 0.09112 0.62228 0.0
O253 O 0.36675 1.02922 0.69827 0.0
O254 O 0.37541 0.11306 0.74357 0.0
C255 C 0.40252 0.1033 0.61019 0.0
O256 O 0.44618 0.9927 0.65712 0.0
O257 O 0.45575 0.99984 0.7319 0.0
O258 O 0.45203 0.10069 0.77207 0.0
O259 O 0.48034 0.20637 0.75759 0.0
O260 O 0.48659 0.22872 0.66296 0.0
O261 O 0.51185 0.16134 0.68883 0.0
C262 C 0.34904 1.05657 0.72471 0.0
O263 O 0.41512 0.24749 0.752 0.0
O264 O 0.41524 0.26104 0.67746 0.0
C265 C 0.51158 0.99631 0.68594 0.0
C266 C 0.5947 0.09751 0.66165 0.0
C267 C 0.56667 1.05223 0.62738 0.0
C268 C 0.52611 1.00051 0.63975 0.0
C269 C 0.54313 1.0336 0.72115 0.0
C270 C 0.58441 0.08431 0.709 0.0
C271 C 0.46444 0.97967 0.69255 0.0
H272 H 0.27912 0.27789 0.77912 0.0
H273 H 0.35968 0.31509 0.77611 0.0
H274 H 0.33485 0.17178 0.66747 0.0
H275 H 0.25498 0.13472 0.67054 0.0
H276 H 0.57351 1.05964 0.59051 0.0
H277 H 0.503 0.9711 0.61199 0.0
H278 H 0.53375 1.02983 0.75753 0.0
H279 H 0.60658 0.11583 0.73655 0.0
Tb280 Tb 0.93589 0.32806 0.66341 0.0
Eu281 Eu 1.01388 0.38267 0.69352 0.0
C282 C 1.01444 0.32488 0.59784 0.0
C283 C 0.95367 0.21674 0.68824 0.0
C284 C 0.83653 0.31719 0.61444 0.0
C285 C 0.77826 0.33392 0.58027 0.0
C286 C 0.81758 0.33002 0.57538 0.0
C287 C 0.8208 0.31992 0.65919 0.0
C288 C 0.78157 0.32341 0.66391 0.0
C289 C 0.75686 0.3208 0.6237 0.0
C290 C 0.87184 0.29972 0.60907 0.0
O291 O 0.93336 0.34991 0.74157 0.0
O292 O 0.98849 0.32953 0.75725 0.0
O293 O 0.99402 0.46827 0.69993 0.0
O294 O 0.9216 0.4058 0.68347 0.0
C295 C 0.95742 0.33942 0.77359 0.0
O296 O 1.07345 0.42824 0.73901 0.0
O297 O 1.08013 0.43707 0.66422 0.0
O298 O 0.99913 0.36106 0.61644 0.0
O299 O 0.99835 0.36139 0.61765 0.0
O300 O 0.92152 0.23002 0.67901 0.0
O301 O 0.99485 0.26891 0.69326 0.0
C302 C 0.95348 0.46375 0.69361 0.0
O303 O 0.91159 0.34832 0.60217 0.0
O304 O 0.87201 0.25964 0.63996 0.0
C305 C 0.12851 0.4098 0.70395 0.0
C306 C 0.15392 0.3133 0.70415 0.0
C307 C 0.15305 0.34482 0.74625 0.0
C308 C 0.1397 0.39185 0.7462 0.0
C309 C 0.13505 0.38456 0.66179 0.0
C310 C 0.14553 0.33496 0.66183 0.0
C311 C 0.10039 0.44107 0.70386 0.0
H312 H 0.76061 0.33503 0.54897 0.0
H313 H 0.83088 0.33153 0.54086 0.0
H314 H 0.83648 0.31357 0.69023 0.0
H315 H 0.76704 0.31616 0.69829 0.0
H316 H 0.16191 0.33287 0.77954 0.0
H317 H 0.13594 0.41168 0.7793 0.0
H318 H 0.1289 0.39981 0.6286 0.0
H319 H 0.14567 0.31296 0.6284 0.0
Tb320 Tb 0.93585 0.82975 0.71521 0.0
Eu321 Eu 0.84086 0.75734 0.69886 0.0
C322 C 0.86798 0.80053 0.80803 0.0
C323 C 0.9028 0.68086 0.69582 0.0
C324 C 1.06328 0.9168 0.74286 0.0
C325 C 0.13717 0.9596 0.77979 0.0
C326 C 0.09057 0.93241 0.78316 0.0
C327 C 1.08396 0.93268 0.69904 0.0
C328 C 0.13063 0.95964 0.6956 0.0
C329 C 0.15778 0.97154 0.73589 0.0
C330 C 1.01472 0.87079 0.74664 0.0
O331 O 0.9247 0.85453 0.64163 0.0
O332 O 0.86284 0.75939 0.62646 0.0
O333 O 0.8617 0.87341 0.69734 0.0
O334 O 0.93791 0.92151 0.70785 0.0
C335 C 0.8923 0.81504 0.61181 0.0
O336 O 0.77513 0.71333 0.66281 0.0
O337 O 0.77912 0.70271 0.73695 0.0
O338 O 0.87931 0.78558 0.7677 0.0
O339 O 0.8778 0.78362 0.76624 0.0
O340 O 0.93555 0.73995 0.69206 0.0
O341 O 0.86171 0.67416 0.7008 0.0
C342 C 0.90242 0.92858 0.70162 0.0
O343 O 0.9869 0.88789 0.76549 0.0
O344 O 0.9967 0.83037 0.71131 0.0
C345 C 0.72391 0.61136 0.69344 0.0
C346 C 0.66612 0.47589 0.68086 0.0
C347 C 0.6565 0.52085 0.65916 0.0
C348 C 0.68494 0.58747 0.6654 0.0
C349 C 0.73398 0.56678 0.71488 0.0
C350 C 0.70542 0.50003 0.70881 0.0
C351 C 0.75369 0.68238 0.69953 0.0
H352 H 0.15676 0.9677 0.81161 0.0
H353 H 1.07561 0.91958 0.81726 0.0
H354 H 1.06386 0.92081 0.66719 0.0
H355 H 0.14532 0.9694 0.66128 0.0
H356 H 0.62632 0.50467 0.63804 0.0
H357 H 0.67628 0.6205 0.64842 0.0
H358 H 0.76398 0.58345 0.73641 0.0
H359 H 0.71436 0.46732 0.72576 0.0
C360 C 0.37822 0.58859 0.03388 0.0
C361 C 0.38734 0.62183 0.99156 0.0
H362 H 0.3312 0.5064 0.07055 0.0
C363 C 0.35141 0.61257 0.9624 0.0
H364 H 0.40472 0.59544 0.05817 0.0
C365 C 0.30948 0.55992 0.96901 0.0
C366 C 0.30307 0.51851 1.006 0.0
H367 H 0.3571 0.63968 0.93084 0.0
H368 H 0.28321 0.54843 0.94308 0.0
C369 C 0.3361 0.5366 0.04088 0.0
C370 C 0.56797 0.89333 1.00581 0.0
C371 C 0.59913 0.95864 0.01685 0.0
H372 H 0.55479 0.79543 0.99311 0.0
C373 C 0.64377 0.96971 0.02543 0.0
H374 H 0.53339 0.88038 0.99864 0.0
C375 C 0.65639 0.91962 0.02301 0.0
C376 C 0.62537 0.85451 1.01114 0.0
H377 H 0.66967 1.01814 0.03448 0.0
H378 H 0.69096 0.93247 0.03011 0.0
C379 C 0.58072 0.84354 1.00268 0.0
C380 C 0.29695 0.69956 0.01697 0.0
C381 C 0.29485 0.7545 1.00191 0.0
H382 H 0.26047 0.59818 0.03134 0.0
C383 C 0.253 0.746 0.98656 0.0
H384 H 0.32843 0.70363 0.0289 0.0
C385 C 0.21468 0.68558 0.98692 0.0
C386 C 0.21641 0.63106 1.00288 0.0
H387 H 0.24921 0.78661 0.97577 0.0
H388 H 0.18313 0.68206 0.97576 0.0
C389 C 0.25815 0.63864 0.01758 0.0
C390 C 0.64654 0.38795 0.02283 0.0
C391 C 0.6013 0.33655 0.01651 0.0
H392 H 0.69494 0.49063 0.02436 0.0
C393 C 0.57054 0.3589 1.00574 0.0
H394 H 0.67254 0.37588 0.03131 0.0
C395 C 0.58398 0.42664 1.00171 0.0
C396 C 0.62921 0.47808 1.008 0.0
H397 H 0.53559 0.32392 1.00019 0.0
H398 H 0.55796 0.43868 0.99332 0.0
C399 C 0.65999 0.45568 0.01876 0.0
C400 C 0.89033 0.29161 0.02587 0.0
C401 C 0.8748 0.30557 0.06783 0.0
H402 H 0.9469 0.29937 0.98802 0.0
C403 C 0.90566 0.3362 0.10495 0.0
H404 H 0.86759 0.26731 0.99665 0.0
C405 C 0.95033 0.3517 0.10066 0.0
C406 C 0.9661 0.33915 0.05858 0.0
H407 H 0.89573 0.34992 0.13725 0.0
H408 H 0.97301 0.37643 0.12988 0.0
C409 C 0.93561 0.30858 0.0212 0.0
C410 C 0.87761 0.53711 1.00925 0.0
C411 C 0.8688 0.51324 0.05472 0.0
H412 H 0.87647 0.6055 0.96331 0.0
C413 C 0.83703 0.52003 0.08141 0.0
H414 H 0.90163 0.53169 0.98762 0.0
C415 C 0.82171 0.56166 0.06689 0.0
C416 C 0.8389 0.59712 0.02622 0.0
H417 H 0.8291 0.50065 0.11612 0.0
H418 H 0.80036 0.5712 0.08991 0.0
C419 C 0.8635 0.58018 0.9954 0.0
C420 C 0.10237 0.86781 0.30268 0.0
C421 C 1.08335 0.90067 0.32864 0.0
H422 H 0.16064 0.8608 0.28012 0.0
C423 C 0.11712 0.95904 0.35111 0.0
H424 H 1.08038 0.82311 0.28426 0.0
C425 C 0.16501 0.982 0.34784 0.0
C426 C 0.1835 0.94812 0.32243 0.0
H427 H 0.10685 0.98819 0.37177 0.0
H428 H 0.18769 1.02618 0.36661 0.0
C429 C 0.14998 0.89008 0.30018 0.0
C430 C 0.20027 0.25383 0.43036 0.0
C431 C 0.17825 0.25791 0.39004 0.0
H432 H 0.25824 0.25044 0.45556 0.0
C433 C 0.18163 0.22871 0.34834 0.0
H434 H 0.19666 0.27397 0.46342 0.0
C435 C 0.2172 0.21595 0.34337 0.0
C436 C 0.24752 0.22958 0.38092 0.0
H437 H 0.16356 0.22905 0.31713 0.0
H438 H 0.22378 0.20249 0.30904 0.0
C439 C 0.23632 0.24199 0.42561 0.0
C440 C 0.92961 1.05536 0.30177 0.0
C441 C 0.93733 0.10829 0.33059 0.0
H442 H 0.88604 0.95553 0.28573 0.0
C443 C 0.90769 0.10183 0.36626 0.0
H444 H 0.95269 1.05996 0.27438 0.0
C445 C 0.86972 1.04332 0.37238 0.0
C446 C 0.86104 0.99032 0.34302 0.0
H447 H 0.91337 0.14267 0.38864 0.0
H448 H 0.84704 1.04 0.39984 0.0
C449 C 0.89165 0.99619 0.30824 0.0
C450 C 0.33736 0.67462 0.38234 0.0
C451 C 0.34164 0.68358 0.33354 0.0
H452 H 0.29324 0.63256 0.43942 0.0
C453 C 0.30187 0.65397 0.30583 0.0
H454 H 0.36655 0.69538 0.40538 0.0
C455 C 0.26024 0.62612 0.3262 0.0
C456 C 0.25636 0.61412 0.37376 0.0
H457 H 0.3022 0.65714 0.26819 0.0
H458 H 0.23067 0.60922 0.30411 0.0
C459 C 0.29522 0.64106 0.40223 0.0
C460 C 0.56187 0.61258 0.42589 0.0
C461 C 0.53332 0.59795 0.38596 0.0
H462 H 0.62854 0.65192 0.45513 0.0
C463 C 0.55577 0.60923 0.34238 0.0
H464 H 0.54842 0.60758 0.46057 0.0
C465 C 0.60353 0.63558 0.33936 0.0
C466 C 0.63173 0.65126 0.37968 0.0
H467 H 0.53667 0.59926 0.31006 0.0
H468 H 0.6186 0.64744 0.30528 0.0
C469 C 0.60904 0.63809 0.42279 0.0
C470 C 0.48976 1.01976 0.33213 0.0
C471 C 0.45478 0.99911 0.36459 0.0
H472 H 0.5502 1.01961 0.31024 0.0
C473 C 0.45654 0.96194 0.4017 0.0
H474 H 0.48946 1.04699 0.30237 0.0
C475 C 0.49123 0.94571 0.40619 0.0
C476 C 0.526 0.96514 0.37347 0.0
H477 H 0.43012 0.94377 0.42712 0.0
H478 H 0.4898 0.91589 0.43494 0.0
C479 C 0.52445 1.00286 0.33633 0.0
C480 C 0.69271 0.21999 0.59503 0.0
C481 C 0.70852 0.27504 0.62463 0.0
H482 H 0.64747 0.12045 0.58537 0.0
C483 C 0.68309 0.27392 0.66334 0.0
H484 H 0.71173 0.21828 0.56537 0.0
C485 C 0.64537 0.21659 0.67488 0.0
C486 C 0.63252 0.15974 0.64783 0.0
H487 H 0.69455 0.31562 0.68678 0.0
H488 H 0.6274 0.21633 0.70596 0.0
C489 C 0.65577 0.16292 0.60693 0.0
C490 C 0.89606 0.50794 0.69084 0.0
C491 C 0.94136 0.52032 0.6962 0.0
H492 H 0.84814 0.54376 0.68669 0.0
C493 C 0.97298 0.5867 0.70147 0.0
H494 H 0.86968 0.45864 0.68625 0.0
C495 C 0.96023 0.6366 0.70105 0.0
C496 C 0.91492 0.62419 0.69574 0.0
H497 H 1.0081 0.60063 0.70548 0.0
H498 H 0.98662 0.68599 0.70521 0.0
C499 C 0.88326 0.55774 0.69095 0.0
C500 C 0.62441 0.3636 0.71379 0.0
C501 C 0.63433 0.4046 0.67554 0.0
H502 H 0.58077 0.27091 0.7417 0.0
C503 C 0.61095 0.37762 0.633 0.0
H504 H 0.64118 0.38233 0.74729 0.0
C505 C 0.57656 0.31339 0.62983 0.0
C506 C 0.56486 0.2737 0.66881 0.0
H507 H 0.61799 0.40691 0.60245 0.0
H508 H 0.55714 0.29584 0.59755 0.0
C509 C 0.58999 0.29917 0.71051 0.0
C510 C 0.88273 1.02386 0.68589 0.0
C511 C 0.9132 1.0017 0.69854 0.0
H512 H 0.87061 0.10408 0.67276 0.0
C513 C 0.95793 1.05318 0.70765 0.0
H514 H 0.84825 0.98876 0.67792 0.0
C515 C 0.97126 0.12072 0.7045 0.0
C516 C 0.94092 0.14296 0.69195 0.0
H517 H 0.98377 1.04141 0.71755 0.0
H518 H 1.00586 0.15571 0.71212 0.0
C519 C 0.89613 0.09173 0.68279 0.0
C520 C 0.23759 1.03818 0.76508 0.0
C521 C 0.20686 0.99306 0.73246 0.0
H522 H 0.30577 0.09251 0.78857 0.0
C523 C 0.22329 0.96683 0.69792 0.0
H524 H 0.2265 1.06026 0.79168 0.0
C525 C 0.26913 0.98508 0.6963 0.0
C526 C 0.29971 1.03033 0.72899 0.0
H527 H 0.20062 0.93152 0.67242 0.0
H528 H 0.28072 0.9649 0.66883 0.0
C529 C 0.28321 1.0566 0.7633 0.0
C530 C 0.21404 0.22171 0.67043 0.0
C531 C 0.21817 0.19993 0.71432 0.0
H532 H 0.19333 0.27852 0.63322 0.0
C533 C 0.19008 0.19796 0.7504 0.0
H534 H 0.23522 0.22317 0.64186 0.0
C535 C 0.16388 0.22792 0.74494 0.0
C536 C 0.16742 0.26242 0.70422 0.0
H537 H 0.19219 0.17986 0.78424 0.0
H538 H 0.14437 0.22903 0.77427 0.0
C539 C 0.18975 0.25415 0.66565 0.0
C540 C 0.18036 0.40423 0.2104 0.0
C541 C 0.20776 0.45845 0.2391 0.0
H542 H 0.13797 0.36537 0.14998 0.0
C543 C 0.21633 0.51906 0.22281 0.0
H544 H 0.17293 0.35647 0.22083 0.0
C545 C 0.19481 0.52439 0.18174 0.0
C546 C 0.16529 0.46911 0.15496 0.0
H547 H 0.23863 0.5621 0.24201 0.0
H548 H 0.20116 0.57158 0.17114 0.0
C549 C 0.15973 0.40937 0.16948 0.0
C550 C 0.72489 0.74917 0.19315 0.0
C551 C 0.70078 0.76167 0.22752 0.0
H552 H 0.72759 0.71402 0.12604 0.0
C553 C 0.65661 0.74832 0.21508 0.0
H554 H 0.75896 0.75908 0.19984 0.0
C555 C 0.63746 0.72179 0.16978 0.0
C556 C 0.66194 0.70724 0.13633 0.0
H557 H 0.63659 0.75696 0.24051 0.0
H558 H 0.6036 0.71152 0.1615 0.0
C559 C 0.70613 0.72253 0.14956 0.0
C560 C 0.47982 1.0052 0.18251 0.0
C561 C 0.49825 1.06117 0.15559 0.0
H562 H 0.4281 0.94343 0.22908 0.0
C563 C 0.47524 0.09733 0.15562 0.0
H564 H 0.49612 0.97573 0.18358 0.0
C565 C 0.43576 1.0785 0.18169 0.0
C566 C 0.41745 1.02269 0.20889 0.0
H567 H 0.48794 0.14076 0.13569 0.0
H568 H 0.42003 0.1087 0.18117 0.0
C569 C 0.44028 0.98625 0.20848 0.0
C570 C 0.52611 0.17478 0.90665 0.0
C571 C 0.56462 0.16803 0.89909 0.0
H572 H 0.46939 0.17861 0.87686 0.0
C573 C 0.57725 0.16674 0.85253 0.0
H574 H 0.51344 0.17207 0.94145 0.0
C575 C 0.55122 0.16991 0.81499 0.0
C576 C 0.51188 0.17414 0.82306 0.0
H577 H 0.60531 0.15878 0.84502 0.0
H578 H 0.56026 0.16492 0.77952 0.0
C579 C 0.50024 0.17781 0.86939 0.0
C580 C 1.00612 0.35903 0.89425 0.0
C581 C 1.01432 0.42078 0.90896 0.0
H582 H 0.97883 0.28344 0.84217 0.0
C583 C 0.99386 0.44981 0.88286 0.0
H584 H 1.02109 0.33488 0.91322 0.0
C585 C 0.96942 0.4199 0.84069 0.0
C586 C 0.96411 0.35976 0.82453 0.0
H587 H 0.99944 0.49739 0.89306 0.0
H588 H 0.95809 0.44622 0.81893 0.0
C589 C 0.9811 0.32888 0.85351 0.0
C590 C 0.79436 0.69995 0.83244 0.0
C591 C 0.82052 0.76746 0.82818 0.0
H592 H 0.73221 0.6196 0.85435 0.0
C593 C 0.80266 0.80495 0.84862 0.0
H594 H 0.80683 0.66875 0.81881 0.0
C595 C 0.75989 0.77666 0.86991 0.0
C596 C 0.73341 0.70922 0.8737 0.0
H597 H 0.82168 0.85695 0.84747 0.0
H598 H 0.74727 0.8079 0.88306 0.0
C599 C 0.75146 0.67162 0.85367 0.0
C600 C 0.84288 0.79507 0.49029 0.0
C601 C 0.82139 0.83349 0.49171 0.0
H602 H 0.88322 0.76148 0.52534 0.0
C603 C 0.83161 0.87604 0.53078 0.0
H604 H 0.83698 0.76186 0.46114 0.0
C605 C 0.85969 0.87634 0.56815 0.0
C606 C 0.87894 0.83495 0.56726 0.0
H607 H 0.8162 0.90657 0.53368 0.0
H608 H 0.86365 0.90565 0.59922 0.0
C609 C 0.87059 0.79556 0.52707 0.0
C610 C 0.33412 1.07532 0.49624 0.0
C611 C 0.33915 1.02579 0.47325 0.0
H612 H 0.34902 0.13793 0.55735 0.0
C613 C 0.36296 1.00028 0.49699 0.0
H614 H 0.3166 0.09697 0.47875 0.0
C615 C 0.3828 1.02531 0.54124 0.0
C616 C 0.37887 1.07596 0.56385 0.0
H617 H 0.36863 0.96351 0.48018 0.0
H618 H 0.402 1.00535 0.55747 0.0
C619 C 0.35307 0.09935 0.54121 0.0
C620 C 1.07441 0.31227 0.55311 0.0
C621 C 1.05666 0.35244 0.56829 0.0
H622 H 0.12313 0.3013 0.5115 0.0
C623 C 1.08073 0.41771 0.5559 0.0
H624 H 1.05738 0.26186 0.56181 0.0
C625 C 0.11971 0.44086 0.52829 0.0
C626 C 0.13681 0.40034 0.51176 0.0
H627 H 1.06882 0.45084 0.56643 0.0
H628 H 0.13475 0.49005 0.51682 0.0
C629 C 0.11332 0.33549 0.52529 0.0
loop_
_geom_bond_atom_site_label_1
_geom_bond_atom_site_label_2
_geom_bond_distance
_geom_bond_site_symmetry_2
_ccdc_geom_bond_type
Tb0 C10 2.825 . S
Tb0 O11 2.347 1_554 S
Tb0 O14 2.366 . S
Tb0 O19 2.418 1_655 S
Tb0 O20 2.384 1_655 S
Tb0 O23 2.479 . S
Tb0 O24 2.471 1_554 S
Eu1 O12 2.418 1_554 S
Eu1 O13 2.384 1_455 S
Eu1 O16 2.479 1_554 S
Eu1 O17 2.471 . S
Eu1 O18 2.347 . S
Eu1 O21 2.366 1_554 S
Eu1 C31 2.825 . S
C2 O18 1.259 . S
C2 O19 1.265 . S
C3 O20 1.255 . S
C3 O21 1.265 1_554 S
C4 C6 1.380 . S
C4 C7 1.374 1_554 S
C4 C10 1.507 . S
C5 C6 1.384 . S
C5 C9 1.387 . S
C5 H32 0.930 . S
C6 C4 1.380 . S
C6 C5 1.384 . S
C6 H33 0.931 . S
C7 C4 1.374 1_556 S
C7 C8 1.390 . S
C7 H34 0.930 . S
C8 C7 1.390 . S
C8 C9 1.391 1_556 S
C8 H35 0.930 . S
C9 C5 1.387 . S
C9 C8 1.391 1_554 S
C10 Tb0 2.825 . S
C10 C4 1.507 . S
C10 O23 1.238 . S
C10 O24 1.247 1_554 S
O11 Tb0 2.347 1_556 S
O11 C15 1.259 . S
O12 Eu1 2.418 1_556 S
O12 C15 1.265 1_455 S
O13 Eu1 2.384 1_655 S
O13 C22 1.255 . S
O14 Tb0 2.366 . S
O14 C22 1.265 . S
C15 O11 1.259 . S
C15 O12 1.265 1_655 S
O16 Eu1 2.479 1_556 S
O16 C31 1.238 1_556 S
O17 Eu1 2.471 . S
O17 C31 1.247 . S
O18 Eu1 2.347 . S
O18 C2 1.259 . S
O19 Tb0 2.418 1_455 S
O19 C2 1.265 . S
O20 Tb0 2.384 1_455 S
O20 C3 1.255 . S
O21 Eu1 2.366 1_556 S
O21 C3 1.265 1_556 S
C22 O13 1.255 . S
C22 O14 1.265 . S
O23 Tb0 2.479 . S
O23 C10 1.238 . S
O24 Tb0 2.471 1_556 S
O24 C10 1.247 1_556 S
C25 C28 1.380 1_554 S
C25 C29 1.374 . S
C25 C31 1.507 . S
C26 C27 1.387 1_554 S
C26 C30 1.391 . S
C27 C26 1.387 1_556 S
C27 C28 1.384 . S
C27 H36 0.930 . S
C28 C25 1.380 1_556 S
C28 C27 1.384 . S
C28 H37 0.931 . S
C29 C25 1.374 . S
C29 C30 1.390 . S
C29 H38 0.930 . S
C30 C26 1.391 . S
C30 C29 1.390 . S
C30 H39 0.930 . S
C31 Eu1 2.825 . S
C31 O16 1.238 1_554 S
C31 O17 1.247 . S
C31 C25 1.507 . S
H32 C5 0.930 . S
H33 C6 0.931 . S
H34 C7 0.930 . S
H35 C8 0.930 . S
H36 C27 0.930 . S
H37 C28 0.931 . S
H38 C29 0.930 . S
H39 C30 0.930 . S
Tb40 C50 2.825 . S
Tb40 O51 2.347 1_556 S
Tb40 O54 2.366 . S
Tb40 O59 2.418 . S
Tb40 O60 2.384 . S
Tb40 O63 2.479 . S
Tb40 O64 2.471 1_556 S
Eu41 O52 2.418 . S
Eu41 O53 2.384 . S
Eu41 O56 2.479 . S
Eu41 O57 2.471 1_554 S
Eu41 O58 2.347 1_554 S
Eu41 O61 2.366 . S
Eu41 C71 2.825 . S
C42 O58 1.259 . S
C42 O59 1.265 . S
C43 O60 1.255 1_554 S
C43 O61 1.265 . S
C44 C46 1.380 . S
C44 C47 1.374 1_556 S
C44 C50 1.507 . S
C45 C46 1.384 . S
C45 C49 1.387 . S
C45 H72 0.930 . S
C46 C44 1.380 . S
C46 C45 1.384 . S
C46 H73 0.931 . S
C47 C44 1.374 1_554 S
C47 C48 1.390 . S
C47 H74 0.930 . S
C48 C47 1.390 . S
C48 C49 1.391 1_554 S
C48 H75 0.930 . S
C49 C45 1.387 . S
C49 C48 1.391 1_556 S
C50 Tb40 2.825 . S
C50 C44 1.507 . S
C50 O63 1.238 . S
C50 O64 1.247 1_556 S
O51 Tb40 2.347 1_554 S
O51 C55 1.259 . S
O52 Eu41 2.418 . S
O52 C55 1.265 . S
O53 Eu41 2.384 . S
O53 C62 1.255 1_554 S
O54 Tb40 2.366 . S
O54 C62 1.265 . S
C55 O51 1.259 . S
C55 O52 1.265 . S
O56 Eu41 2.479 . S
O56 C71 1.238 . S
O57 Eu41 2.471 1_556 S
O57 C71 1.247 1_556 S
O58 Eu41 2.347 1_556 S
O58 C42 1.259 . S
O59 Tb40 2.418 . S
O59 C42 1.265 . S
O60 Tb40 2.384 . S
O60 C43 1.255 1_556 S
O61 Eu41 2.366 . S
O61 C43 1.265 . S
C62 O53 1.255 1_556 S
C62 O54 1.265 . S
O63 Tb40 2.479 . S
O63 C50 1.238 . S
O64 Tb40 2.471 1_554 S
O64 C50 1.247 1_554 S
C65 C68 1.380 . S
C65 C69 1.374 1_554 S
C65 C71 1.507 . S
C66 C67 1.387 . S
C66 C70 1.391 1_554 S
C67 C66 1.387 . S
C67 C68 1.384 . S
C67 H76 0.930 . S
C68 C65 1.380 . S
C68 C67 1.384 . S
C68 H77 0.931 . S
C69 C65 1.374 1_556 S
C69 C70 1.390 . S
C69 H78 0.930 . S
C70 C66 1.391 1_556 S
C70 C69 1.390 . S
C70 H79 0.930 . S
C71 Eu41 2.825 . S
C71 O56 1.238 . S
C71 O57 1.247 1_554 S
C71 C65 1.507 . S
H72 C45 0.930 . S
H73 C46 0.931 . S
H74 C47 0.930 . S
H75 C48 0.930 . S
H76 C67 0.930 . S
H77 C68 0.931 . S
H78 C69 0.930 . S
H79 C70 0.930 . S
Tb80 C90 2.825 . S
Tb80 O91 2.347 1_554 S
Tb80 O94 2.366 . S
Tb80 O99 2.418 . S
Tb80 O100 2.384 1_545 S
Tb80 O103 2.479 . S
Tb80 O104 2.471 1_554 S
Eu81 O92 2.442 . S
Eu81 O93 2.383 1_566 S
Eu81 O96 2.488 . S
Eu81 O97 2.459 1_556 S
Eu81 O98 2.327 1_556 S
Eu81 O101 2.369 . S
Eu81 C111 2.824 . S
C82 O98 1.259 . S
C82 O99 1.265 1_565 S
C83 O100 1.255 . S
C83 O101 1.265 1_554 S
C84 C86 1.380 . S
C84 C87 1.374 1_554 S
C84 C90 1.507 . S
C85 C86 1.384 . S
C85 C89 1.387 . S
C85 H112 0.930 . S
C86 C84 1.380 . S
C86 C85 1.384 . S
C86 H113 0.931 . S
C87 C84 1.374 1_556 S
C87 C88 1.390 . S
C87 H114 0.930 . S
C88 C87 1.390 . S
C88 C89 1.391 1_556 S
C88 H115 0.930 . S
C89 C85 1.387 . S
C89 C88 1.391 1_554 S
C90 Tb80 2.825 . S
C90 C84 1.507 . S
C90 O103 1.238 . S
C90 O104 1.247 1_554 S
O91 Tb80 2.347 1_556 S
O91 C95 1.259 . S
O92 Eu81 2.442 . S
O92 C95 1.265 1_565 S
O93 Eu81 2.383 1_544 S
O93 C102 1.255 . S
O94 Tb80 2.366 . S
O94 C102 1.265 . S
C95 O91 1.259 . S
C95 O92 1.265 1_545 S
O96 Eu81 2.488 . S
O96 C111 1.238 . S
O97 Eu81 2.459 1_554 S
O97 C111 1.247 1_554 S
O98 Eu81 2.327 1_554 S
O98 C82 1.259 . S
O99 Tb80 2.418 . S
O99 C82 1.265 1_545 S
O100 Tb80 2.384 1_565 S
O100 C83 1.255 . S
O101 Eu81 2.369 . S
O101 C83 1.265 1_556 S
C102 O93 1.255 . S
C102 O94 1.265 . S
O103 Tb80 2.479 . S
O103 C90 1.238 . S
O104 Tb80 2.471 1_556 S
O104 C90 1.247 1_556 S
C105 C108 1.380 . S
C105 C109 1.374 1_556 S
C105 C111 1.507 . S
C106 C107 1.387 . S
C106 C110 1.391 1_556 S
C107 C106 1.387 . S
C107 C108 1.384 . S
C107 H116 0.930 . S
C108 C105 1.380 . S
C108 C107 1.384 . S
C108 H117 0.931 . S
C109 C105 1.374 1_554 S
C109 C110 1.390 . S
C109 H118 0.930 . S
C110 C106 1.391 1_554 S
C110 C109 1.390 . S
C110 H119 0.930 . S
C111 Eu81 2.824 . S
C111 O96 1.238 . S
C111 O97 1.247 1_556 S
C111 C105 1.507 . S
H112 C85 0.930 . S
H113 C86 0.931 . S
H114 C87 0.930 . S
H115 C88 0.930 . S
H116 C107 0.930 . S
H117 C108 0.931 . S
H118 C109 0.930 . S
H119 C110 0.930 . S
Tb120 C130 2.825 . S
Tb120 O131 2.347 . S
Tb120 O134 2.366 . S
Tb120 O139 2.418 . S
Tb120 O140 2.384 . S
Tb120 O143 2.479 . S
Tb120 O144 2.471 . S
Eu121 O132 2.418 . S
Eu121 O133 2.384 . S
Eu121 O136 2.479 . S
Eu121 O137 2.471 . S
Eu121 O138 2.347 . S
Eu121 O141 2.366 . S
Eu121 C151 2.825 . S
C122 O138 1.259 . S
C122 O139 1.265 . S
C123 O140 1.255 . S
C123 O141 1.265 . S
C124 C126 1.380 . S
C124 C127 1.374 . S
C124 C130 1.507 . S
C125 C126 1.384 . S
C125 C129 1.387 . S
C125 H152 0.930 . S
C126 C124 1.380 . S
C126 C125 1.384 . S
C126 H153 0.931 . S
C127 C124 1.374 . S
C127 C128 1.390 . S
C127 H154 0.930 . S
C128 C127 1.390 . S
C128 C129 1.391 . S
C128 H155 0.930 . S
C129 C125 1.387 . S
C129 C128 1.391 . S
C130 Tb120 2.825 . S
C130 C124 1.507 . S
C130 O143 1.238 . S
C130 O144 1.247 . S
O131 Tb120 2.347 . S
O131 C135 1.259 . S
O132 Eu121 2.418 . S
O132 C135 1.265 . S
O133 Eu121 2.384 . S
O133 C142 1.255 . S
O134 Tb120 2.366 . S
O134 C142 1.265 . S
C135 O131 1.259 . S
C135 O132 1.265 . S
O136 Eu121 2.479 . S
O136 C151 1.238 . S
O137 Eu121 2.471 . S
O137 C151 1.247 . S
O138 Eu121 2.347 . S
O138 C122 1.259 . S
O139 Tb120 2.418 . S
O139 C122 1.265 . S
O140 Tb120 2.384 . S
O140 C123 1.255 . S
O141 Eu121 2.366 . S
O141 C123 1.265 . S
C142 O133 1.255 . S
C142 O134 1.265 . S
O143 Tb120 2.479 . S
O143 C130 1.238 . S
O144 Tb120 2.471 . S
O144 C130 1.247 . S
C145 C148 1.380 . S
C145 C149 1.374 . S
C145 C151 1.507 . S
C146 C147 1.387 . S
C146 C150 1.391 . S
C147 C146 1.387 . S
C147 C148 1.384 . S
C147 H156 0.930 . S
C148 C145 1.380 . S
C148 C147 1.384 . S
C148 H157 0.931 . S
C149 C145 1.374 . S
C149 C150 1.390 . S
C149 H158 0.930 . S
C150 C146 1.391 . S
C150 C149 1.390 . S
C150 H159 0.930 . S
C151 Eu121 2.825 . S
C151 O136 1.238 . S
C151 O137 1.247 . S
C151 C145 1.507 . S
H152 C125 0.930 . S
H153 C126 0.931 . S
H154 C127 0.930 . S
H155 C128 0.930 . S
H156 C147 0.930 . S
H157 C148 0.931 . S
H158 C149 0.930 . S
H159 C150 0.930 . S
Tb160 C170 2.825 . S
Tb160 O171 2.347 . S
Tb160 O174 2.366 . S
Tb160 O179 2.418 . S
Tb160 O180 2.384 . S
Tb160 O183 2.479 . S
Tb160 O184 2.471 . S
Eu161 O172 2.418 . S
Eu161 O173 2.384 . S
Eu161 O176 2.479 1_565 S
Eu161 O177 2.471 1_565 S
Eu161 O178 2.347 . S
Eu161 O181 2.366 . S
Eu161 C191 2.825 1_565 S
C162 O178 1.259 . S
C162 O179 1.265 . S
C163 O180 1.255 . S
C163 O181 1.265 . S
C164 C166 1.380 . S
C164 C167 1.374 . S
C164 C170 1.507 . S
C165 C166 1.384 . S
C165 C169 1.387 . S
C165 H192 0.930 . S
C166 C164 1.380 . S
C166 C165 1.384 . S
C166 H193 0.931 . S
C167 C164 1.374 . S
C167 C168 1.390 . S
C167 H194 0.930 . S
C168 C167 1.390 . S
C168 C169 1.391 . S
C168 H195 0.930 . S
C169 C165 1.387 . S
C169 C168 1.391 . S
C170 Tb160 2.825 . S
C170 C164 1.507 . S
C170 O183 1.238 . S
C170 O184 1.247 . S
O171 Tb160 2.347 . S
O171 C175 1.259 . S
O172 Eu161 2.418 . S
O172 C175 1.265 . S
O173 Eu161 2.384 . S
O173 C182 1.255 . S
O174 Tb160 2.366 . S
O174 C182 1.265 . S
C175 O171 1.259 . S
C175 O172 1.265 . S
O176 Eu161 2.479 1_545 S
O176 C191 1.238 . S
O177 Eu161 2.471 1_545 S
O177 C191 1.247 . S
O178 Eu161 2.347 . S
O178 C162 1.259 . S
O179 Tb160 2.418 . S
O179 C162 1.265 . S
O180 Tb160 2.384 . S
O180 C163 1.255 . S
O181 Eu161 2.366 . S
O181 C163 1.265 . S
C182 O173 1.255 . S
C182 O174 1.265 . S
O183 Tb160 2.479 . S
O183 C170 1.238 . S
O184 Tb160 2.471 . S
O184 C170 1.247 . S
C185 C188 1.380 . S
C185 C189 1.374 . S
C185 C191 1.507 . S
C186 C187 1.387 . S
C186 C190 1.391 . S
C187 C186 1.387 . S
C187 C188 1.384 . S
C187 H196 0.930 . S
C188 C185 1.380 . S
C188 C187 1.384 . S
C188 H197 0.931 . S
C189 C185 1.374 . S
C189 C190 1.390 . S
C189 H198 0.930 . S
C190 C186 1.391 . S
C190 C189 1.390 . S
C190 H199 0.930 . S
C191 Eu161 2.825 1_545 S
C191 O176 1.238 . S
C191 O177 1.247 . S
C191 C185 1.507 . S
H192 C165 0.930 . S
H193 C166 0.931 . S
H194 C167 0.930 . S
H195 C168 0.930 . S
H196 C187 0.930 . S
H197 C188 0.931 . S
H198 C189 0.930 . S
H199 C190 0.930 . S
Tb200 C210 2.825 . S
Tb200 O211 2.347 . S
Tb200 O214 2.366 . S
Tb200 O219 2.418 . S
Tb200 O220 2.384 . S
Tb200 O223 2.479 . S
Tb200 O224 2.471 . S
Eu201 O212 2.418 . S
Eu201 O213 2.384 . S
Eu201 O216 2.479 . S
Eu201 O217 2.471 . S
Eu201 O218 2.347 . S
Eu201 O221 2.366 . S
Eu201 C231 2.825 1_455 S
C202 O218 1.259 . S
C202 O219 1.265 . S
C203 O220 1.255 . S
C203 O221 1.265 . S
C204 C206 1.380 . S
C204 C207 1.374 . S
C204 C210 1.507 . S
C205 C206 1.384 . S
C205 C209 1.387 . S
C205 H232 0.930 . S
C206 C204 1.380 . S
C206 C205 1.384 . S
C206 H233 0.931 . S
C207 C204 1.374 . S
C207 C208 1.390 . S
C207 H234 0.930 . S
C208 C207 1.390 . S
C208 C209 1.391 . S
C208 H235 0.930 . S
C209 C205 1.387 . S
C209 C208 1.391 . S
C210 Tb200 2.825 . S
C210 C204 1.507 . S
C210 O223 1.238 . S
C210 O224 1.247 . S
O211 Tb200 2.347 . S
O211 C215 1.259 . S
O212 Eu201 2.418 . S
O212 C215 1.265 . S
O213 Eu201 2.384 . S
O213 C222 1.255 . S
O214 Tb200 2.366 . S
O214 C222 1.265 . S
C215 O211 1.259 . S
C215 O212 1.265 . S
O216 Eu201 2.479 . S
O216 C231 1.238 1_455 S
O217 Eu201 2.471 . S
O217 C231 1.247 1_455 S
O218 Eu201 2.347 . S
O218 C202 1.259 . S
O219 Tb200 2.418 . S
O219 C202 1.265 . S
O220 Tb200 2.384 . S
O220 C203 1.255 . S
O221 Eu201 2.366 . S
O221 C203 1.265 . S
C222 O213 1.255 . S
C222 O214 1.265 . S
O223 Tb200 2.479 . S
O223 C210 1.238 . S
O224 Tb200 2.471 . S
O224 C210 1.247 . S
C225 C228 1.380 . S
C225 C229 1.374 . S
C225 C231 1.507 . S
C226 C227 1.387 . S
C226 C230 1.391 . S
C227 C226 1.387 . S
C227 C228 1.384 . S
C227 H236 0.930 . S
C228 C225 1.380 . S
C228 C227 1.384 . S
C228 H237 0.931 . S
C229 C225 1.374 . S
C229 C230 1.390 . S
C229 H238 0.930 . S
C230 C226 1.391 . S
C230 C229 1.390 . S
C230 H239 0.930 . S
C231 Eu201 2.825 1_655 S
C231 O216 1.238 1_655 S
C231 O217 1.247 1_655 S
C231 C225 1.507 . S
H232 C205 0.930 . S
H233 C206 0.931 . S
H234 C207 0.930 . S
H235 C208 0.930 . S
H236 C227 0.930 . S
H237 C228 0.931 . S
H238 C229 0.930 . S
H239 C230 0.930 . S
Tb240 C250 2.825 . S
Tb240 O251 2.347 . S
Tb240 O254 2.366 . S
Tb240 O259 2.418 . S
Tb240 O260 2.384 . S
Tb240 O263 2.479 . S
Tb240 O264 2.471 . S
Eu241 O252 2.418 . S
Eu241 O253 2.384 . S
Eu241 O256 2.479 . S
Eu241 O257 2.471 . S
Eu241 O258 2.347 . S
Eu241 O261 2.366 . S
Eu241 C271 2.825 . S
C242 O258 1.259 . S
C242 O259 1.265 . S
C243 O260 1.255 . S
C243 O261 1.265 . S
C244 C246 1.380 . S
C244 C247 1.374 . S
C244 C250 1.507 . S
C245 C246 1.384 . S
C245 C249 1.387 . S
C245 H272 0.930 . S
C246 C244 1.380 . S
C246 C245 1.384 . S
C246 H273 0.931 . S
C247 C244 1.374 . S
C247 C248 1.390 . S
C247 H274 0.930 . S
C248 C247 1.390 . S
C248 C249 1.391 . S
C248 H275 0.930 . S
C249 C245 1.387 . S
C249 C248 1.391 . S
C250 Tb240 2.825 . S
C250 C244 1.507 . S
C250 O263 1.238 . S
C250 O264 1.247 . S
O251 Tb240 2.347 . S
O251 C255 1.259 . S
O252 Eu241 2.418 . S
O252 C255 1.265 . S
O253 Eu241 2.384 . S
O253 C262 1.255 . S
O254 Tb240 2.366 . S
O254 C262 1.265 . S
C255 O251 1.259 . S
C255 O252 1.265 . S
O256 Eu241 2.479 . S
O256 C271 1.238 . S
O257 Eu241 2.471 . S
O257 C271 1.247 . S
O258 Eu241 2.347 . S
O258 C242 1.259 . S
O259 Tb240 2.418 . S
O259 C242 1.265 . S
O260 Tb240 2.384 . S
O260 C243 1.255 . S
O261 Eu241 2.366 . S
O261 C243 1.265 . S
C262 O253 1.255 . S
C262 O254 1.265 . S
O263 Tb240 2.479 . S
O263 C250 1.238 . S
O264 Tb240 2.471 . S
O264 C250 1.247 . S
C265 C268 1.380 . S
C265 C269 1.374 . S
C265 C271 1.507 . S
C266 C267 1.387 . S
C266 C270 1.391 . S
C267 C266 1.387 . S
C267 C268 1.384 . S
C267 H276 0.930 . S
C268 C265 1.380 . S
C268 C267 1.384 . S
C268 H277 0.931 . S
C269 C265 1.374 . S
C269 C270 1.390 . S
C269 H278 0.930 . S
C270 C266 1.391 . S
C270 C269 1.390 . S
C270 H279 0.930 . S
C271 Eu241 2.825 . S
C271 O256 1.238 . S
C271 O257 1.247 . S
C271 C265 1.507 . S
H272 C245 0.930 . S
H273 C246 0.931 . S
H274 C247 0.930 . S
H275 C248 0.930 . S
H276 C267 0.930 . S
H277 C268 0.931 . S
H278 C269 0.930 . S
H279 C270 0.930 . S
Tb280 C290 2.825 . S
Tb280 O291 2.347 . S
Tb280 O294 2.366 . S
Tb280 O299 2.418 . S
Tb280 O300 2.384 . S
Tb280 O303 2.479 . S
Tb280 O304 2.471 . S
Eu281 O292 2.418 . S
Eu281 O293 2.384 . S
Eu281 O296 2.479 1_655 S
Eu281 O297 2.471 1_655 S
Eu281 O298 2.347 . S
Eu281 O301 2.366 . S
Eu281 C311 2.825 1_655 S
C282 O298 1.259 . S
C282 O299 1.265 . S
C283 O300 1.255 . S
C283 O301 1.265 . S
C284 C286 1.380 . S
C284 C287 1.374 . S
C284 C290 1.507 . S
C285 C286 1.384 . S
C285 C289 1.387 . S
C285 H312 0.930 . S
C286 C284 1.380 . S
C286 C285 1.384 . S
C286 H313 0.931 . S
C287 C284 1.374 . S
C287 C288 1.390 . S
C287 H314 0.930 . S
C288 C287 1.390 . S
C288 C289 1.391 . S
C288 H315 0.930 . S
C289 C285 1.387 . S
C289 C288 1.391 . S
C290 Tb280 2.825 . S
C290 C284 1.507 . S
C290 O303 1.238 . S
C290 O304 1.247 . S
O291 Tb280 2.347 . S
O291 C295 1.259 . S
O292 Eu281 2.418 . S
O292 C295 1.265 . S
O293 Eu281 2.384 . S
O293 C302 1.255 . S
O294 Tb280 2.366 . S
O294 C302 1.265 . S
C295 O291 1.259 . S
C295 O292 1.265 . S
O296 Eu281 2.479 1_455 S
O296 C311 1.238 . S
O297 Eu281 2.471 1_455 S
O297 C311 1.247 . S
O298 Eu281 2.347 . S
O298 C282 1.259 . S
O299 Tb280 2.418 . S
O299 C282 1.265 . S
O300 Tb280 2.384 . S
O300 C283 1.255 . S
O301 Eu281 2.366 . S
O301 C283 1.265 . S
C302 O293 1.255 . S
C302 O294 1.265 . S
O303 Tb280 2.479 . S
O303 C290 1.238 . S
O304 Tb280 2.471 . S
O304 C290 1.247 . S
C305 C308 1.380 . S
C305 C309 1.374 . S
C305 C311 1.507 . S
C306 C307 1.387 . S
C306 C310 1.391 . S
C307 C306 1.387 . S
C307 C308 1.384 . S
C307 H316 0.930 . S
C308 C305 1.380 . S
C308 C307 1.384 . S
C308 H317 0.931 . S
C309 C305 1.374 . S
C309 C310 1.390 . S
C309 H318 0.930 . S
C310 C306 1.391 . S
C310 C309 1.390 . S
C310 H319 0.930 . S
C311 Eu281 2.825 1_455 S
C311 O296 1.238 . S
C311 O297 1.247 . S
C311 C305 1.507 . S
H312 C285 0.930 . S
H313 C286 0.931 . S
H314 C287 0.930 . S
H315 C288 0.930 . S
H316 C307 0.930 . S
H317 C308 0.931 . S
H318 C309 0.930 . S
H319 C310 0.930 . S
Tb320 C330 2.825 . S
Tb320 O331 2.347 . S
Tb320 O334 2.366 . S
Tb320 O339 2.418 . S
Tb320 O340 2.384 . S
Tb320 O343 2.479 . S
Tb320 O344 2.471 . S
Eu321 O332 2.418 . S
Eu321 O333 2.384 . S
Eu321 O336 2.479 . S
Eu321 O337 2.471 . S
Eu321 O338 2.347 . S
Eu321 O341 2.366 . S
Eu321 C351 2.825 . S
C322 O338 1.259 . S
C322 O339 1.265 . S
C323 O340 1.255 . S
C323 O341 1.265 . S
C324 C326 1.380 1_655 S
C324 C327 1.374 . S
C324 C330 1.507 . S
C325 C326 1.384 . S
C325 C329 1.387 . S
C325 H352 0.930 . S
C326 C324 1.380 1_455 S
C326 C325 1.384 . S
C326 H353 0.930 . S
C327 C324 1.374 . S
C327 C328 1.390 1_655 S
C327 H354 0.930 . S
C328 C327 1.390 1_455 S
C328 C329 1.391 . S
C328 H355 0.930 . S
C329 C325 1.387 . S
C329 C328 1.391 . S
C330 Tb320 2.825 . S
C330 C324 1.507 . S
C330 O343 1.238 . S
C330 O344 1.247 . S
O331 Tb320 2.347 . S
O331 C335 1.259 . S
O332 Eu321 2.418 . S
O332 C335 1.265 . S
O333 Eu321 2.384 . S
O333 C342 1.255 . S
O334 Tb320 2.366 . S
O334 C342 1.265 . S
C335 O331 1.259 . S
C335 O332 1.265 . S
O336 Eu321 2.479 . S
O336 C351 1.238 . S
O337 Eu321 2.471 . S
O337 C351 1.247 . S
O338 Eu321 2.347 . S
O338 C322 1.259 . S
O339 Tb320 2.418 . S
O339 C322 1.265 . S
O340 Tb320 2.384 . S
O340 C323 1.255 . S
O341 Eu321 2.366 . S
O341 C323 1.265 . S
C342 O333 1.255 . S
C342 O334 1.265 . S
O343 Tb320 2.479 . S
O343 C330 1.238 . S
O344 Tb320 2.471 . S
O344 C330 1.247 . S
C345 C348 1.380 . S
C345 C349 1.374 . S
C345 C351 1.507 . S
C346 C347 1.387 . S
C346 C350 1.391 . S
C347 C346 1.387 . S
C347 C348 1.384 . S
C347 H356 0.930 . S
C348 C345 1.380 . S
C348 C347 1.384 . S
C348 H357 0.931 . S
C349 C345 1.374 . S
C349 C350 1.390 . S
C349 H358 0.930 . S
C350 C346 1.391 . S
C350 C349 1.390 . S
C350 H359 0.930 . S
C351 Eu321 2.825 . S
C351 O336 1.238 . S
C351 O337 1.247 . S
C351 C345 1.507 . S
H352 C325 0.930 . S
H353 C326 0.930 . S
H354 C327 0.930 . S
H355 C328 0.930 . S
H356 C347 0.930 . S
H357 C348 0.931 . S
H358 C349 0.930 . S
H359 C350 0.930 . S
C360 C361 1.387 1_554 S
C360 H364 0.950 . S
C360 C369 1.390 . S
C361 C360 1.387 1_556 S
C361 C363 1.387 . S
H362 C369 0.950 . S
C363 C361 1.387 . S
C363 C365 1.390 . S
C363 H367 0.950 . S
H364 C360 0.950 . S
C365 C363 1.390 . S
C365 C366 1.369 1_556 S
C365 H368 0.950 . S
C366 C365 1.369 1_554 S
C366 C369 1.402 . S
H367 C363 0.950 . S
H368 C365 0.950 . S
C369 C360 1.390 . S
C369 H362 0.950 . S
C369 C366 1.402 . S
C370 C371 1.387 . S
C370 H374 0.950 . S
C370 C379 1.390 . S
C371 C370 1.387 . S
C371 C373 1.387 1_556 S
H372 C379 0.950 . S
C373 C371 1.387 1_554 S
C373 C375 1.390 . S
C373 H377 0.950 . S
H374 C370 0.950 . S
C375 C373 1.390 . S
C375 C376 1.387 1_554 S
C375 H378 0.950 . S
C376 C375 1.387 1_556 S
C376 C379 1.387 . S
H377 C373 0.950 . S
H378 C375 0.950 . S
C379 C370 1.390 . S
C379 H372 0.950 . S
C379 C376 1.387 . S
C380 C381 1.388 . S
C380 H384 0.951 . S
C380 C389 1.389 1_556 S
C381 C380 1.388 . S
C381 C383 1.388 1_556 S
H382 C389 0.950 . S
C383 C381 1.388 1_554 S
C383 C385 1.390 . S
C383 H387 0.948 1_554 S
H384 C380 0.951 . S
C385 C383 1.390 . S
C385 C386 1.387 . S
C385 H388 0.950 . S
C386 C385 1.387 . S
C386 C389 1.387 . S
H387 C383 0.948 1_556 S
H388 C385 0.950 . S
C389 C380 1.389 1_554 S
C389 H382 0.950 . S
C389 C386 1.387 . S
C390 C391 1.387 . S
C390 H394 0.950 . S
C390 C399 1.390 . S
C391 C390 1.387 . S
C391 C393 1.387 1_554 S
H392 C399 0.950 . S
C393 C391 1.387 1_556 S
C393 C395 1.390 . S
C393 H397 0.950 . S
H394 C390 0.950 . S
C395 C393 1.390 . S
C395 C396 1.387 1_556 S
C395 H398 0.950 . S
C396 C395 1.387 1_554 S
C396 C399 1.387 . S
H397 C393 0.950 . S
H398 C395 0.950 . S
C399 C390 1.390 . S
C399 H392 0.950 . S
C399 C396 1.387 . S
C400 C401 1.387 1_556 S
C400 H404 0.950 . S
C400 C409 1.390 . S
C401 C400 1.387 1_554 S
C401 C403 1.387 . S
H402 C409 0.950 . S
C403 C401 1.387 . S
C403 C405 1.390 . S
C403 H407 0.950 . S
H404 C400 0.950 . S
C405 C403 1.390 . S
C405 C406 1.387 . S
C405 H408 0.950 . S
C406 C405 1.387 . S
C406 C409 1.387 1_554 S
H407 C403 0.950 . S
H408 C405 0.950 . S
C409 C400 1.390 . S
C409 H402 0.950 . S
C409 C406 1.387 1_556 S
C410 C411 1.387 . S
C410 H414 0.950 . S
C410 C419 1.390 . S
C411 C410 1.387 . S
C411 C413 1.387 . S
H412 C419 0.950 1_556 S
C413 C411 1.387 . S
C413 C415 1.390 . S
C413 H417 0.950 . S
H414 C410 0.950 . S
C415 C413 1.390 . S
C415 C416 1.387 . S
C415 H418 0.950 . S
C416 C415 1.387 . S
C416 C419 1.387 . S
H417 C413 0.950 . S
H418 C415 0.950 . S
C419 C410 1.390 . S
C419 H412 0.950 1_554 S
C419 C416 1.387 . S
C420 C421 1.372 1_455 S
C420 H424 0.936 1_455 S
C420 C429 1.419 . S
C421 C420 1.372 1_655 S
C421 C423 1.387 1_655 S
H422 C429 0.950 . S
C423 C421 1.387 1_455 S
C423 C425 1.390 . S
C423 H427 0.962 . S
H424 C420 0.936 1_655 S
C425 C423 1.390 . S
C425 C426 1.387 . S
C425 H428 0.950 . S
C426 C425 1.387 . S
C426 C429 1.387 . S
H427 C423 0.962 . S
H428 C425 0.950 . S
C429 C420 1.419 . S
C429 H422 0.950 . S
C429 C426 1.387 . S
C430 C431 1.387 . S
C430 H434 0.950 . S
C430 C439 1.390 . S
C431 C430 1.387 . S
C431 C433 1.387 . S
H432 C439 0.950 . S
C433 C431 1.387 . S
C433 C435 1.390 . S
C433 H437 0.950 . S
H434 C430 0.950 . S
C435 C433 1.390 . S
C435 C436 1.387 . S
C435 H438 0.950 . S
C436 C435 1.387 . S
C436 C439 1.387 . S
H437 C433 0.950 . S
H438 C435 0.950 . S
C439 C430 1.390 . S
C439 H432 0.950 . S
C439 C436 1.387 . S
C440 C441 1.401 . S
C440 H444 0.950 . S
C440 C449 1.390 . S
C441 C440 1.401 . S
C441 C443 1.388 . S
H442 C449 0.950 . S
C443 C441 1.388 . S
C443 C445 1.397 . S
C443 H447 0.935 1_565 S
H444 C440 0.950 . S
C445 C443 1.397 . S
C445 C446 1.387 . S
C445 H448 0.950 . S
C446 C445 1.387 . S
C446 C449 1.387 . S
H447 C443 0.935 1_545 S
H448 C445 0.950 . S
C449 C440 1.390 . S
C449 H442 0.950 . S
C449 C446 1.387 . S
C450 C451 1.387 . S
C450 H454 0.950 . S
C450 C459 1.390 . S
C451 C450 1.387 . S
C451 C453 1.387 . S
H452 C459 0.950 . S
C453 C451 1.387 . S
C453 C455 1.390 . S
C453 H457 0.950 . S
H454 C450 0.950 . S
C455 C453 1.390 . S
C455 C456 1.387 . S
C455 H458 0.950 . S
C456 C455 1.387 . S
C456 C459 1.387 . S
H457 C453 0.950 . S
H458 C455 0.950 . S
C459 C450 1.390 . S
C459 H452 0.950 . S
C459 C456 1.387 . S
C460 C461 1.387 . S
C460 H464 0.950 . S
C460 C469 1.390 . S
C461 C460 1.387 . S
C461 C463 1.387 . S
H462 C469 0.950 . S
C463 C461 1.387 . S
C463 C465 1.390 . S
C463 H467 0.950 . S
H464 C460 0.950 . S
C465 C463 1.390 . S
C465 C466 1.387 . S
C465 H468 0.950 . S
C466 C465 1.387 . S
C466 C469 1.387 . S
H467 C463 0.950 . S
H468 C465 0.950 . S
C469 C460 1.390 . S
C469 H462 0.950 . S
C469 C466 1.387 . S
C470 C471 1.387 . S
C470 H474 0.950 . S
C470 C479 1.390 . S
C471 C470 1.387 . S
C471 C473 1.387 . S
H472 C479 0.950 . S
C473 C471 1.387 . S
C473 C475 1.390 . S
C473 H477 0.950 . S
H474 C470 0.950 . S
C475 C473 1.390 . S
C475 C476 1.387 . S
C475 H478 0.950 . S
C476 C475 1.387 . S
C476 C479 1.387 . S
H477 C473 0.950 . S
H478 C475 0.950 . S
C479 C470 1.390 . S
C479 H472 0.950 . S
C479 C476 1.387 . S
C480 C481 1.387 . S
C480 H484 0.950 . S
C480 C489 1.390 . S
C481 C480 1.387 . S
C481 C483 1.387 . S
H482 C489 0.950 . S
C483 C481 1.387 . S
C483 C485 1.390 . S
C483 H487 0.950 . S
H484 C480 0.950 . S
C485 C483 1.390 . S
C485 C486 1.387 . S
C485 H488 0.950 . S
C486 C485 1.387 . S
C486 C489 1.387 . S
H487 C483 0.950 . S
H488 C485 0.950 . S
C489 C480 1.390 . S
C489 H482 0.950 . S
C489 C486 1.387 . S
C490 C491 1.387 . S
C490 H494 0.950 . S
C490 C499 1.390 . S
C491 C490 1.387 . S
C491 C493 1.387 . S
H492 C499 0.950 . S
C493 C491 1.387 . S
C493 C495 1.390 . S
C493 H497 0.950 . S
H494 C490 0.950 . S
C495 C493 1.390 . S
C495 C496 1.387 . S
C495 H498 0.950 . S
C496 C495 1.387 . S
C496 C499 1.387 . S
H497 C493 0.950 . S
H498 C495 0.950 . S
C499 C490 1.390 . S
C499 H492 0.950 . S
C499 C496 1.387 . S
C500 C501 1.387 . S
C500 H504 0.950 . S
C500 C509 1.390 . S
C501 C500 1.387 . S
C501 C503 1.387 . S
H502 C509 0.950 . S
C503 C501 1.387 . S
C503 C505 1.390 . S
C503 H507 0.950 . S
H504 C500 0.950 . S
C505 C503 1.390 . S
C505 C506 1.387 . S
C505 H508 0.950 . S
C506 C505 1.387 . S
C506 C509 1.387 . S
H507 C503 0.950 . S
H508 C505 0.950 . S
C509 C500 1.390 . S
C509 H502 0.950 . S
C509 C506 1.387 . S
C510 C511 1.387 . S
C510 H514 0.950 . S
C510 C519 1.390 . S
C511 C510 1.387 . S
C511 C513 1.387 . S
H512 C519 0.950 . S
C513 C511 1.387 . S
C513 C515 1.390 . S
C513 H517 0.950 . S
H514 C510 0.950 . S
C515 C513 1.390 . S
C515 C516 1.387 1_565 S
C515 H518 0.950 1_565 S
C516 C515 1.387 1_545 S
C516 C519 1.387 1_545 S
H517 C513 0.950 . S
H518 C515 0.950 1_545 S
C519 C510 1.390 . S
C519 H512 0.950 . S
C519 C516 1.387 1_565 S
C520 C521 1.387 . S
C520 H524 0.950 . S
C520 C529 1.390 . S
C521 C520 1.387 . S
C521 C523 1.387 1_545 S
H522 C529 0.950 . S
C523 C521 1.387 1_565 S
C523 C525 1.390 . S
C523 H527 0.950 . S
H524 C520 0.950 . S
C525 C523 1.390 . S
C525 C526 1.387 . S
C525 H528 0.950 . S
C526 C525 1.387 . S
C526 C529 1.387 1_565 S
H527 C523 0.950 . S
H528 C525 0.950 . S
C529 C520 1.390 . S
C529 H522 0.950 . S
C529 C526 1.387 1_545 S
C530 C531 1.387 . S
C530 H534 0.950 . S
C530 C539 1.390 . S
C531 C530 1.387 . S
C531 C533 1.387 . S
H532 C539 0.950 . S
C533 C531 1.387 . S
C533 C535 1.390 . S
C533 H537 0.950 . S
H534 C530 0.950 . S
C535 C533 1.390 . S
C535 C536 1.387 . S
C535 H538 0.950 . S
C536 C535 1.387 . S
C536 C539 1.387 . S
H537 C533 0.950 . S
H538 C535 0.950 . S
C539 C530 1.390 . S
C539 H532 0.950 . S
C539 C536 1.387 . S
C540 C541 1.387 . S
C540 H544 0.950 . S
C540 C549 1.390 . S
C541 C540 1.387 . S
C541 C543 1.387 . S
H542 C549 0.950 . S
C543 C541 1.387 . S
C543 C545 1.390 . S
C543 H547 0.950 . S
H544 C540 0.950 . S
C545 C543 1.390 . S
C545 C546 1.387 . S
C545 H548 0.950 . S
C546 C545 1.387 . S
C546 C549 1.387 . S
H547 C543 0.950 . S
H548 C545 0.950 . S
C549 C540 1.390 . S
C549 H542 0.950 . S
C549 C546 1.387 . S
C550 C551 1.387 . S
C550 H554 0.950 . S
C550 C559 1.390 . S
C551 C550 1.387 . S
C551 C553 1.387 . S
H552 C559 0.950 . S
C553 C551 1.387 . S
C553 C555 1.390 . S
C553 H557 0.950 . S
H554 C550 0.950 . S
C555 C553 1.390 . S
C555 C556 1.387 . S
C555 H558 0.950 . S
C556 C555 1.387 . S
C556 C559 1.387 . S
H557 C553 0.950 . S
H558 C555 0.950 . S
C559 C550 1.390 . S
C559 H552 0.950 . S
C559 C556 1.387 . S
C560 C561 1.387 . S
C560 H564 0.950 . S
C560 C569 1.390 . S
C561 C560 1.387 . S
C561 C563 1.387 . S
H562 C569 0.950 . S
C563 C561 1.387 . S
C563 C565 1.390 . S
C563 H567 0.950 1_565 S
H564 C560 0.950 . S
C565 C563 1.390 . S
C565 C566 1.387 . S
C565 H568 0.950 . S
C566 C565 1.387 . S
C566 C569 1.387 . S
H567 C563 0.950 1_545 S
H568 C565 0.950 . S
C569 C560 1.390 . S
C569 H562 0.950 . S
C569 C566 1.387 . S
C570 C571 1.387 . S
C570 H574 0.950 . S
C570 C579 1.390 . S
C571 C570 1.387 . S
C571 C573 1.387 . S
H572 C579 0.950 . S
C573 C571 1.387 . S
C573 C575 1.390 . S
C573 H577 0.950 . S
H574 C570 0.950 . S
C575 C573 1.390 . S
C575 C576 1.387 . S
C575 H578 0.950 . S
C576 C575 1.387 . S
C576 C579 1.387 . S
H577 C573 0.950 . S
H578 C575 0.950 . S
C579 C570 1.390 . S
C579 H572 0.950 . S
C579 C576 1.387 . S
C580 C581 1.387 . S
C580 H584 0.950 1_655 S
C580 C589 1.390 . S
C581 C580 1.387 . S
C581 C583 1.387 . S
H582 C589 0.950 . S
C583 C581 1.387 . S
C583 C585 1.390 . S
C583 H587 0.950 . S
H584 C580 0.950 1_455 S
C585 C583 1.390 . S
C585 C586 1.387 . S
C585 H588 0.950 . S
C586 C585 1.387 . S
C586 C589 1.387 . S
H587 C583 0.950 . S
H588 C585 0.950 . S
C589 C580 1.390 . S
C589 H582 0.950 . S
C589 C586 1.387 . S
C590 C591 1.387 . S
C590 H594 0.950 . S
C590 C599 1.390 . S
C591 C590 1.387 . S
C591 C593 1.387 . S
H592 C599 0.950 . S
C593 C591 1.387 . S
C593 C595 1.390 . S
C593 H597 0.950 . S
H594 C590 0.950 . S
C595 C593 1.390 . S
C595 C596 1.387 . S
C595 H598 0.950 . S
C596 C595 1.387 . S
C596 C599 1.387 . S
H597 C593 0.950 . S
H598 C595 0.950 . S
C599 C590 1.390 . S
C599 H592 0.950 . S
C599 C596 1.387 . S
C600 C601 1.387 . S
C600 H604 0.950 . S
C600 C609 1.390 . S
C601 C600 1.387 . S
C601 C603 1.387 . S
H602 C609 0.950 . S
C603 C601 1.387 . S
C603 C605 1.390 . S
C603 H607 0.950 . S
H604 C600 0.950 . S
C605 C603 1.390 . S
C605 C606 1.387 . S
C605 H608 0.950 . S
C606 C605 1.387 . S
C606 C609 1.387 . S
H607 C603 0.950 . S
H608 C605 0.950 . S
C609 C600 1.390 . S
C609 H602 0.950 . S
C609 C606 1.387 . S
C610 C611 1.387 . S
C610 H614 0.950 . S
C610 C619 1.390 1_565 S
C611 C610 1.387 . S
C611 C613 1.387 . S
H612 C619 0.950 . S
C613 C611 1.387 . S
C613 C615 1.390 1_565 S
C613 H617 0.950 . S
H614 C610 0.950 . S
C615 C613 1.390 1_545 S
C615 C616 1.387 . S
C615 H618 0.950 . S
C616 C615 1.387 . S
C616 C619 1.387 . S
H617 C613 0.950 . S
H618 C615 0.950 . S
C619 C610 1.390 1_545 S
C619 H612 0.950 . S
C619 C616 1.387 . S
C620 C621 1.387 . S
C620 H624 0.950 . S
C620 C629 1.390 1_655 S
C621 C620 1.387 . S
C621 C623 1.387 1_655 S
H622 C629 0.950 . S
C623 C621 1.387 1_455 S
C623 C625 1.390 . S
C623 H627 0.950 . S
H624 C620 0.950 . S
C625 C623 1.390 . S
C625 C626 1.387 . S
C625 H628 0.950 . S
C626 C625 1.387 . S
C626 C629 1.387 . S
H627 C623 0.950 . S
H628 C625 0.950 . S
C629 C620 1.390 1_455 S
C629 H622 0.950 . S
C629 C626 1.387 . S
C361 C49 1.051 . S
C366 C26 1.221 . S
C371 C83 3.507 1_556 S
C376 C62 3.587 . S
C381 C106 1.147 . S
C386 C3 1.140 . S
C391 C102 3.198 . S
C396 C43 3.166 . S
C401 C89 2.473 . S
C406 C22 2.645 . S
C411 C9 0.776 . S
C416 C66 0.717 . S
C421 C146 3.054 . S
C426 C163 2.999 . S
C431 C203 1.132 . S
C436 C186 1.286 . S
C441 C226 0.963 1_565 S
C446 C123 0.967 . S
C451 C169 0.799 . S
C456 C222 0.867 . S
C461 C209 2.502 . S
C466 C142 2.666 . S
C471 C182 2.508 . S
C476 C129 2.478 . S
C481 C289 1.008 . S
C486 C266 1.168 . S
C491 C302 3.604 . S
C496 C323 3.525 . S
C501 C346 1.157 . S
C506 C243 1.148 . S
C511 C342 3.129 . S
C516 C283 3.098 . S
C521 C329 2.486 1_545 S
C526 C262 2.659 1_565 S
C531 C249 0.783 . S
C536 C306 0.704 . S
C541 C215 2.330 . S
C546 C2 2.778 . S
C551 C135 1.991 . S
C556 C55 1.926 . S
C561 C82 3.256 . S
C566 C175 2.904 . S
C571 C95 2.339 . S
C576 C242 2.777 . S
C581 C15 1.884 . S
C586 C295 1.816 . S
C591 C322 3.177 . S
C596 C42 3.188 . S
C601 C122 2.865 . S
C606 C335 2.419 . S
C611 C162 2.110 . S
C616 C255 1.852 . S
C621 C282 3.099 . S
C626 C202 3.083 . S
