# Generated by pormake.
# Topology gme, (4)-cn, num edge types: 1
# Building blocks:
#     Node 0, Type 0, BuildingBlock: KUFVIS_clean_sbu_0, # of connection points: 4
#     Node 1, Type 0, BuildingBlock: KUFVIS_clean_sbu_0, # of connection points: 4
#     Node 2, Type 0, BuildingBlock: KUFVIS_clean_sbu_0, # of connection points: 4
#     Node 3, Type 0, BuildingBlock: KUFVIS_clean_sbu_0, # of connection points: 4
#     Node 4, Type 0, BuildingBlock: KUFVIS_clean_sbu_0, # of connection points: 4
#     Node 5, Type 0, BuildingBlock: KUFVIS_clean_sbu_0, # of connection points: 4
#     Node 6, Type 0, BuildingBlock: KUFVIS_clean_sbu_0, # of connection points: 4
#     Node 7, Type 0, BuildingBlock: KUFVIS_clean_sbu_0, # of connection points: 4
#     Node 8, Type 0, BuildingBlock: KUFVIS_clean_sbu_0, # of connection points: 4
#     Node 9, Type 0, BuildingBlock: KUFVIS_clean_sbu_0, # of connection points: 4
#     Node 10, Type 0, BuildingBlock: KUFVIS_clean_sbu_0, # of connection points: 4
#     Node 11, Type 0, BuildingBlock: KUFVIS_clean_sbu_0, # of connection points: 4
#     Node 12, Type 0, BuildingBlock: KUFVIS_clean_sbu_0, # of connection points: 4
#     Node 13, Type 0, BuildingBlock: KUFVIS_clean_sbu_0, # of connection points: 4
#     Node 14, Type 0, BuildingBlock: KUFVIS_clean_sbu_0, # of connection points: 4
#     Node 15, Type 0, BuildingBlock: KUFVIS_clean_sbu_0, # of connection points: 4
#     Node 16, Type 0, BuildingBlock: KUFVIS_clean_sbu_0, # of connection points: 4
#     Node 17, Type 0, BuildingBlock: KUFVIS_clean_sbu_0, # of connection points: 4
#     Node 18, Type 0, BuildingBlock: KUFVIS_clean_sbu_0, # of connection points: 4
#     Node 19, Type 0, BuildingBlock: KUFVIS_clean_sbu_0, # of connection points: 4
#     Node 20, Type 0, BuildingBlock: KUFVIS_clean_sbu_0, # of connection points: 4
#     Node 21, Type 0, BuildingBlock: KUFVIS_clean_sbu_0, # of connection points: 4
#     Node 22, Type 0, BuildingBlock: KUFVIS_clean_sbu_0, # of connection points: 4
#     Node 23, Type 0, BuildingBlock: KUFVIS_clean_sbu_0, # of connection points: 4
#     Edge 24, Type (0, 0), BuildingBlock: ZUJKAS_clean_linker_0, # of connection points: 2
#     Edge 25, Type (0, 0), BuildingBlock: ZUJKAS_clean_linker_0, # of connection points: 2
#     Edge 26, Type (0, 0), BuildingBlock: ZUJKAS_clean_linker_0, # of connection points: 2
#     Edge 27, Type (0, 0), BuildingBlock: ZUJKAS_clean_linker_0, # of connection points: 2
#     Edge 28, Type (0, 0), BuildingBlock: ZUJKAS_clean_linker_0, # of connection points: 2
#     Edge 29, Type (0, 0), BuildingBlock: ZUJKAS_clean_linker_0, # of connection points: 2
#     Edge 30, Type (0, 0), BuildingBlock: ZUJKAS_clean_linker_0, # of connection points: 2
#     Edge 31, Type (0, 0), BuildingBlock: ZUJKAS_clean_linker_0, # of connection points: 2
#     Edge 32, Type (0, 0), BuildingBlock: ZUJKAS_clean_linker_0, # of connection points: 2
#     Edge 33, Type (0, 0), BuildingBlock: ZUJKAS_clean_linker_0, # of connection points: 2
#     Edge 34, Type (0, 0), BuildingBlock: ZUJKAS_clean_linker_0, # of connection points: 2
#     Edge 35, Type (0, 0), BuildingBlock: ZUJKAS_clean_linker_0, # of connection points: 2
#     Edge 36, Type (0, 0), BuildingBlock: ZUJKAS_clean_linker_0, # of connection points: 2
#     Edge 37, Type (0, 0), BuildingBlock: ZUJKAS_clean_linker_0, # of connection points: 2
#     Edge 38, Type (0, 0), BuildingBlock: ZUJKAS_clean_linker_0, # of connection points: 2
#     Edge 39, Type (0, 0), BuildingBlock: ZUJKAS_clean_linker_0, # of connection points: 2
#     Edge 40, Type (0, 0), BuildingBlock: ZUJKAS_clean_linker_0, # of connection points: 2
#     Edge 41, Type (0, 0), BuildingBlock: ZUJKAS_clean_linker_0, # of connection points: 2
#     Edge 42, Type (0, 0), BuildingBlock: ZUJKAS_clean_linker_0, # of connection points: 2
#     Edge 43, Type (0, 0), BuildingBlock: ZUJKAS_clean_linker_0, # of connection points: 2
#     Edge 44, Type (0, 0), BuildingBlock: ZUJKAS_clean_linker_0, # of connection points: 2
#     Edge 45, Type (0, 0), BuildingBlock: ZUJKAS_clean_linker_0, # of connection points: 2
#     Edge 46, Type (0, 0), BuildingBlock: ZUJKAS_clean_linker_0, # of connection points: 2
#     Edge 47, Type (0, 0), BuildingBlock: ZUJKAS_clean_linker_0, # of connection points: 2
#     Edge 48, Type (0, 0), BuildingBlock: ZUJKAS_clean_linker_0, # of connection points: 2
#     Edge 49, Type (0, 0), BuildingBlock: ZUJKAS_clean_linker_0, # of connection points: 2
#     Edge 50, Type (0, 0), BuildingBlock: ZUJKAS_clean_linker_0, # of connection points: 2
#     Edge 51, Type (0, 0), BuildingBlock: ZUJKAS_clean_linker_0, # of connection points: 2
#     Edge 52, Type (0, 0), BuildingBlock: ZUJKAS_clean_linker_0, # of connection points: 2
#     Edge 53, Type (0, 0), BuildingBlock: ZUJKAS_clean_linker_0, # of connection points: 2
#     Edge 54, Type (0, 0), BuildingBlock: ZUJKAS_clean_linker_0, # of connection points: 2
#     Edge 55, Type (0, 0), BuildingBlock: ZUJKAS_clean_linker_0, # of connection points: 2
#     Edge 56, Type (0, 0), BuildingBlock: ZUJKAS_clean_linker_0, # of connection points: 2
#     Edge 57, Type (0, 0), BuildingBlock: ZUJKAS_clean_linker_0, # of connection points: 2
#     Edge 58, Type (0, 0), BuildingBlock: ZUJKAS_clean_linker_0, # of connection points: 2
#     Edge 59, Type (0, 0), BuildingBlock: ZUJKAS_clean_linker_0, # of connection points: 2
#     Edge 60, Type (0, 0), BuildingBlock: ZUJKAS_clean_linker_0, # of connection points: 2
#     Edge 61, Type (0, 0), BuildingBlock: ZUJKAS_clean_linker_0, # of connection points: 2
#     Edge 62, Type (0, 0), BuildingBlock: ZUJKAS_clean_linker_0, # of connection points: 2
#     Edge 63, Type (0, 0), BuildingBlock: ZUJKAS_clean_linker_0, # of connection points: 2
#     Edge 64, Type (0, 0), BuildingBlock: ZUJKAS_clean_linker_0, # of connection points: 2
#     Edge 65, Type (0, 0), BuildingBlock: ZUJKAS_clean_linker_0, # of connection points: 2
#     Edge 66, Type (0, 0), BuildingBlock: ZUJKAS_clean_linker_0, # of connection points: 2
#     Edge 67, Type (0, 0), BuildingBlock: ZUJKAS_clean_linker_0, # of connection points: 2
#     Edge 68, Type (0, 0), BuildingBlock: ZUJKAS_clean_linker_0, # of connection points: 2
#     Edge 69, Type (0, 0), BuildingBlock: ZUJKAS_clean_linker_0, # of connection points: 2
#     Edge 70, Type (0, 0), BuildingBlock: ZUJKAS_clean_linker_0, # of connection points: 2
#     Edge 71, Type (0, 0), BuildingBlock: ZUJKAS_clean_linker_0, # of connection points: 2
# Relax obj value: 0.088
# Max RMSD: 0.121
# Mean RMSD: 0.121
data_MOF--net-gme--node1-KUFVIS_clean_sbu_0--edge1-ZUJKAS_clean_linker_0
_symmetry_space_group_name_H-M    P1
_symmetry_Int_Tables_number       1
_symmetry_cell_setting            triclinic
loop_
_symmetry_equiv_pos_as_xyz
'x, y, z'
_cell_length_a     71.867632
_cell_length_b     71.874193
_cell_length_c     72.981809
_cell_angle_alpha  89.998861
_cell_angle_beta   90.007924
_cell_angle_gamma 120.00501
loop_
_atom_site_label
_atom_site_type_symbol
_atom_site_fract_x
_atom_site_fract_y
_atom_site_fract_z
_atom_type_partial_charge
Mn0 Mn 0.40684 0.06539 0.11678 0.0
Mn1 Mn 0.45048 0.10381 0.1389 0.0
C2 C 0.43597 0.06058 0.12193 0.0
C3 C 0.38857 0.05251 0.08905 0.0
C4 C 0.40947 0.07137 0.15839 0.0
O5 O 0.40199 0.09099 0.1163 0.0
O6 O 0.43294 0.11588 0.12918 0.0
C7 C 0.4727 0.13096 0.1067 0.0
N8 N 0.47289 0.11968 0.12162 0.0
C9 C 0.50985 0.12994 0.11637 0.0
C10 C 0.51012 0.14181 0.10103 0.0
C11 C 0.49143 0.14224 0.09613 0.0
C12 C 0.49069 0.11894 0.12632 0.0
H13 H 0.45837 0.13132 0.10289 0.0
C14 C 0.41491 0.11018 0.12142 0.0
O15 O 0.37841 0.04664 0.1046 0.0
O16 O 0.40902 0.06595 0.08972 0.0
N17 N 0.46944 0.09509 0.14911 0.0
C18 C 0.4663 0.0823 0.16392 0.0
C19 C 0.48352 0.08039 0.17078 0.0
C20 C 0.5038 0.09174 0.16242 0.0
C21 C 0.5066 0.1046 0.14708 0.0
C22 C 0.48896 0.10621 0.14108 0.0
H23 H 0.45083 0.07378 0.17056 0.0
O24 O 0.41724 0.04438 0.11806 0.0
O25 O 0.43735 0.07935 0.12204 0.0
O26 O 0.39903 0.06082 0.14421 0.0
O27 O 0.42836 0.08781 0.15766 0.0
C28 C 0.52619 0.11584 0.1375 0.0
C29 C 0.52777 0.12838 0.12207 0.0
H30 H 0.52453 0.15054 0.09285 0.0
H31 H 0.49147 0.15128 0.08425 0.0
H32 H 0.48122 0.07031 0.18255 0.0
H33 H 0.5171 0.09036 0.16781 0.0
H34 H 0.54006 0.11477 0.14176 0.0
H35 H 0.54282 0.13673 0.11467 0.0
Mn36 Mn 0.33984 0.40416 0.61439 0.0
Mn37 Mn 0.3384 0.44436 0.63698 0.0
C38 C 0.37172 0.43508 0.62168 0.0
C39 C 0.33838 0.38791 0.58628 0.0
C40 C 0.33135 0.4033 0.65542 0.0
O41 O 0.30846 0.39641 0.61205 0.0
O42 O 0.31059 0.42606 0.62449 0.0
C43 C 0.33524 0.46805 0.60507 0.0
N44 N 0.34529 0.46781 0.62082 0.0
C45 C 0.3695 0.50593 0.61915 0.0
C46 C 0.35928 0.50665 0.60301 0.0
C47 C 0.34218 0.48759 0.59587 0.0
C48 C 0.36202 0.48596 0.6276 0.0
H49 H 0.32204 0.45344 0.5996 0.0
C50 C 0.30029 0.40808 0.6161 0.0
O51 O 0.33373 0.37706 0.60149 0.0
O52 O 0.34358 0.40791 0.58749 0.0
N53 N 0.36423 0.46376 0.64967 0.0
C54 C 0.37321 0.46006 0.66467 0.0
C55 C 0.39103 0.47735 0.67311 0.0
C56 C 0.39913 0.49829 0.6663 0.0
C57 C 0.38948 0.50172 0.65095 0.0
C58 C 0.37193 0.48384 0.64299 0.0
H59 H 0.36679 0.44406 0.67016 0.0
O60 O 0.37163 0.41749 0.61756 0.0
O61 O 0.35325 0.43426 0.62085 0.0
O62 O 0.33505 0.39487 0.64147 0.0
O63 O 0.33148 0.42115 0.65486 0.0
C64 C 0.39665 0.52215 0.64316 0.0
C65 C 0.38685 0.52422 0.62714 0.0
H66 H 0.36452 0.52171 0.59592 0.0
H67 H 0.33429 0.48798 0.58336 0.0
H68 H 0.39839 0.47458 0.68495 0.0
H69 H 0.41281 0.51159 0.67291 0.0
H70 H 0.40988 0.53637 0.64923 0.0
H71 H 0.39282 0.53994 0.62106 0.0
Mn72 Mn 0.93893 0.34153 0.11544 0.0
Mn73 Mn 0.90153 0.34745 0.13838 0.0
C74 C 0.94494 0.37568 0.12167 0.0
C75 C 0.95113 0.33657 0.0872 0.0
C76 C 0.93141 0.33425 0.15643 0.0
O77 O 0.91221 0.31174 0.11427 0.0
O78 O 0.88754 0.3191 0.12589 0.0
C79 C 0.87598 0.34919 0.1073 0.0
N80 N 0.88785 0.35826 0.12266 0.0
C81 C 0.88206 0.38841 0.12053 0.0
C82 C 0.86967 0.37933 0.10473 0.0
C83 C 0.86668 0.35968 0.09806 0.0
C84 C 0.89093 0.37722 0.12915 0.0
H85 H 0.87366 0.33409 0.10215 0.0
C86 C 0.89283 0.30642 0.11811 0.0
O87 O 0.95667 0.33124 0.10242 0.0
O88 O 0.93838 0.34438 0.08849 0.0
N89 N 0.91287 0.37428 0.15103 0.0
C90 C 0.92617 0.3814 0.16586 0.0
C91 C 0.93108 0.401 0.17406 0.0
C92 C 0.92215 0.413 0.16703 0.0
C93 C 0.90854 0.40539 0.15174 0.0
C94 C 0.90406 0.38563 0.14425 0.0
H95 H 0.93293 0.37216 0.17144 0.0
O96 O 0.96086 0.37281 0.11748 0.0
O97 O 0.92604 0.35857 0.1217 0.0
O98 O 0.94329 0.33678 0.14254 0.0
O99 O 0.91501 0.33675 0.15583 0.0
C100 C 0.89942 0.41672 0.14353 0.0
C101 C 0.88627 0.40828 0.12788 0.0
H102 H 0.86252 0.38739 0.09753 0.0
H103 H 0.85722 0.35262 0.08583 0.0
H104 H 0.94163 0.4068 0.18583 0.0
H105 H 0.92588 0.42805 0.17348 0.0
H106 H 0.90267 0.43208 0.14897 0.0
H107 H 0.87962 0.4173 0.12152 0.0
Mn108 Mn 0.59762 0.93615 0.61768 0.0
Mn109 Mn 0.55974 0.89339 0.64071 0.0
C110 C 0.56563 0.9347 0.62568 0.0
C111 C 0.61259 0.95116 0.58928 0.0
C112 C 0.60056 0.92881 0.65833 0.0
O113 O 0.60717 0.91386 0.61497 0.0
O114 O 0.57836 0.88512 0.62714 0.0
C115 C 0.53498 0.86544 0.60966 0.0
N116 N 0.53568 0.87596 0.62539 0.0
C117 C 0.49719 0.8595 0.62605 0.0
C118 C 0.49601 0.84843 0.60987 0.0
C119 C 0.51501 0.85158 0.60155 0.0
C120 C 0.51757 0.87354 0.6332 0.0
H121 H 0.54954 0.86751 0.60346 0.0
C122 C 0.59635 0.89383 0.61864 0.0
O123 O 0.62377 0.95817 0.60427 0.0
O124 O 0.59298 0.93557 0.59089 0.0
N125 N 0.54033 0.89892 0.65441 0.0
C126 C 0.54436 0.91166 0.66941 0.0
C127 C 0.52711 0.91108 0.67896 0.0
C128 C 0.50591 0.89694 0.67331 0.0
C129 C 0.50218 0.88379 0.65797 0.0
C130 C 0.52002 0.88558 0.64866 0.0
H131 H 0.56059 0.9221 0.67411 0.0
O132 O 0.58241 0.95285 0.62133 0.0
O133 O 0.56793 0.91794 0.62464 0.0
O134 O 0.60773 0.94141 0.64454 0.0
O135 O 0.58352 0.91039 0.65784 0.0
C136 C 0.48147 0.86882 0.65164 0.0
C137 C 0.47897 0.85696 0.6355 0.0
H138 H 0.48061 0.83747 0.60373 0.0
H139 H 0.51424 0.8431 0.58906 0.0
H140 H 0.53012 0.92123 0.69083 0.0
H141 H 0.49263 0.89629 0.68088 0.0
H142 H 0.46734 0.8668 0.65874 0.0
H143 H 0.46296 0.84597 0.63047 0.0
Mn144 Mn 0.66199 0.60271 0.11701 0.0
Mn145 Mn 0.65802 0.55815 0.13593 0.0
C146 C 0.62819 0.57397 0.12384 0.0
C147 C 0.66532 0.62139 0.08986 0.0
C148 C 0.67174 0.59965 0.15705 0.0
O149 O 0.69188 0.6065 0.11358 0.0
O150 O 0.68524 0.57364 0.12195 0.0
C151 C 0.65357 0.53407 0.10176 0.0
N152 N 0.64587 0.53524 0.11851 0.0
C153 C 0.6155 0.49959 0.11533 0.0
C154 C 0.62315 0.49796 0.09808 0.0
C155 C 0.64221 0.51532 0.09123 0.0
C156 C 0.62729 0.51884 0.12503 0.0
H157 H 0.66826 0.54736 0.09648 0.0
C158 C 0.69745 0.59228 0.11514 0.0
O159 O 0.67162 0.63148 0.10542 0.0
O160 O 0.65747 0.6008 0.09021 0.0
N161 N 0.63255 0.54111 0.15 0.0
C162 C 0.62804 0.54477 0.16733 0.0
C163 C 0.60977 0.52877 0.17638 0.0
C164 C 0.59663 0.50896 0.16774 0.0
C165 C 0.60203 0.50523 0.15019 0.0
C166 C 0.62045 0.52178 0.14186 0.0
H167 H 0.63829 0.55977 0.17423 0.0
O168 O 0.63077 0.59289 0.12076 0.0
O169 O 0.64539 0.57249 0.12228 0.0
O170 O 0.66817 0.60978 0.14438 0.0
O171 O 0.6699 0.5811 0.15478 0.0
C172 C 0.58996 0.48568 0.14073 0.0
C173 C 0.59667 0.48287 0.1233 0.0
H174 H 0.61451 0.48346 0.08998 0.0
H175 H 0.64818 0.51421 0.0779 0.0
H176 H 0.6059 0.53165 0.19004 0.0
H177 H 0.58254 0.49666 0.17476 0.0
H178 H 0.57551 0.47267 0.14675 0.0
H179 H 0.58724 0.46778 0.11615 0.0
Mn180 Mn 0.06422 0.65943 0.6216 0.0
Mn181 Mn 0.10502 0.66007 0.64469 0.0
C182 C 0.06222 0.6272 0.62944 0.0
C183 C 0.05024 0.66109 0.59311 0.0
C184 C 0.07244 0.67002 0.66207 0.0
O185 O 0.08873 0.69043 0.61913 0.0
O186 O 0.11607 0.68714 0.63056 0.0
C187 C 0.13108 0.6588 0.61384 0.0
N188 N 0.12014 0.65023 0.6297 0.0
C189 C 0.12964 0.62253 0.62946 0.0
C190 C 0.1411 0.6311 0.61315 0.0
C191 C 0.14176 0.64927 0.60528 0.0
C192 C 0.11927 0.63267 0.63732 0.0
H193 H 0.13163 0.67277 0.60777 0.0
C194 C 0.10868 0.69788 0.6224 0.0
O195 O 0.04401 0.66619 0.60807 0.0
O196 O 0.06455 0.65527 0.59479 0.0
N197 N 0.09654 0.63471 0.6589 0.0
C198 C 0.08396 0.62788 0.67418 0.0
C199 C 0.08168 0.60994 0.68379 0.0
C200 C 0.0924 0.5993 0.67766 0.0
C201 C 0.10499 0.60641 0.66174 0.0
C202 C 0.10693 0.62457 0.65289 0.0
H203 H 0.07594 0.63618 0.67914 0.0
O204 O 0.045 0.62772 0.62504 0.0
O205 O 0.08005 0.64547 0.62866 0.0
O206 O 0.05963 0.66492 0.64844 0.0
O207 O 0.0902 0.66998 0.66147 0.0
C208 C 0.11565 0.59619 0.65428 0.0
C209 C 0.12784 0.60415 0.63808 0.0
H210 H 0.14934 0.6238 0.6065 0.0
H211 H 0.15051 0.65593 0.59266 0.0
H212 H 0.07183 0.60445 0.696 0.0
H213 H 0.09079 0.58563 0.68526 0.0
H214 H 0.11439 0.58205 0.66078 0.0
H215 H 0.1357 0.59597 0.63233 0.0
Mn216 Mn 0.9325 0.595 0.38942 0.0
Mn217 Mn 0.89026 0.55584 0.36685 0.0
C218 C 0.9325 0.56375 0.38124 0.0
C219 C 0.94783 0.61045 0.41765 0.0
C220 C 0.92395 0.59752 0.349 0.0
O221 O 0.90912 0.60304 0.39259 0.0
O222 O 0.88088 0.57324 0.38097 0.0
C223 C 0.86353 0.52982 0.39799 0.0
N224 N 0.87409 0.53133 0.38208 0.0
C225 C 0.85937 0.49306 0.38092 0.0
C226 C 0.84825 0.49104 0.39727 0.0
C227 C 0.85053 0.50953 0.40594 0.0
C228 C 0.87258 0.51374 0.37396 0.0
H229 H 0.86493 0.54397 0.40447 0.0
C230 C 0.88904 0.59127 0.38938 0.0
O231 O 0.954 0.62163 0.40262 0.0
O232 O 0.93278 0.59057 0.41621 0.0
N233 N 0.89696 0.53756 0.35269 0.0
C234 C 0.90959 0.5424 0.33751 0.0
C235 C 0.90995 0.52579 0.32768 0.0
C236 C 0.89686 0.50436 0.33323 0.0
C237 C 0.88377 0.49976 0.34875 0.0
C238 C 0.88461 0.51702 0.35834 0.0
H239 H 0.91922 0.55879 0.33288 0.0
O240 O 0.95033 0.58102 0.38536 0.0
O241 O 0.91527 0.56518 0.38256 0.0
O242 O 0.93684 0.60507 0.36258 0.0
O243 O 0.90592 0.58003 0.34974 0.0
C244 C 0.86972 0.47872 0.35496 0.0
C245 C 0.85767 0.47538 0.37114 0.0
H246 H 0.83793 0.47539 0.40328 0.0
H247 H 0.84203 0.50812 0.41857 0.0
H248 H 0.92003 0.52947 0.31567 0.0
H249 H 0.89692 0.49156 0.32544 0.0
H250 H 0.86848 0.46501 0.34767 0.0
H251 H 0.84734 0.45915 0.37603 0.0
Mn252 Mn 0.33522 0.93654 0.88628 0.0
Mn253 Mn 0.33708 0.89736 0.86236 0.0
C254 C 0.36821 0.94029 0.8786 0.0
C255 C 0.33267 0.94986 0.91481 0.0
C256 C 0.32656 0.92959 0.84525 0.0
O257 O 0.30467 0.91119 0.88839 0.0
O258 O 0.30894 0.88535 0.87496 0.0
C259 C 0.33667 0.87041 0.89319 0.0
N260 N 0.34614 0.88188 0.87774 0.0
C261 C 0.37392 0.87252 0.87912 0.0
C262 C 0.36441 0.86051 0.89501 0.0
C263 C 0.34575 0.85951 0.9021 0.0
C264 C 0.36418 0.88308 0.87087 0.0
H265 H 0.32231 0.8696 0.89864 0.0
C266 C 0.2976 0.89171 0.88358 0.0
O267 O 0.32721 0.95575 0.89986 0.0
O268 O 0.33921 0.93611 0.91312 0.0
N269 N 0.36334 0.90653 0.84935 0.0
C270 C 0.37098 0.91956 0.83439 0.0
C271 C 0.38944 0.92215 0.82549 0.0
C272 C 0.39976 0.91125 0.83201 0.0
C273 C 0.39182 0.89821 0.84761 0.0
C274 C 0.37314 0.89594 0.8557 0.0
H275 H 0.36291 0.9277 0.82913 0.0
O276 O 0.36667 0.95691 0.88318 0.0
O277 O 0.35044 0.92188 0.87912 0.0
O278 O 0.32974 0.94128 0.85942 0.0
O279 O 0.32809 0.91263 0.84531 0.0
C280 C 0.40168 0.88739 0.85544 0.0
C281 C 0.39282 0.87467 0.87127 0.0
H282 H 0.37137 0.8521 0.90193 0.0
H283 H 0.33837 0.85034 0.9144 0.0
H284 H 0.39557 0.93234 0.81352 0.0
H285 H 0.41373 0.91298 0.82488 0.0
H286 H 0.41621 0.88892 0.84954 0.0
H287 H 0.40071 0.86667 0.87732 0.0
Mn288 Mn 0.39851 0.3348 0.38106 0.0
Mn289 Mn 0.4365 0.33194 0.35638 0.0
C290 C 0.43002 0.36604 0.37333 0.0
C291 C 0.38393 0.33366 0.40994 0.0
C292 C 0.39466 0.3257 0.34016 0.0
O293 O 0.38991 0.30308 0.38277 0.0
O294 O 0.41907 0.30458 0.36975 0.0
C295 C 0.46302 0.32914 0.38611 0.0
N296 N 0.46131 0.33911 0.37087 0.0
C297 C 0.4996 0.36248 0.36948 0.0
C298 C 0.50182 0.35237 0.38509 0.0
C299 C 0.48342 0.33578 0.39355 0.0
C300 C 0.47883 0.35557 0.363 0.0
H301 H 0.44893 0.31616 0.39246 0.0
C302 C 0.4013 0.29463 0.37853 0.0
O303 O 0.37242 0.32961 0.39517 0.0
O304 O 0.40363 0.33811 0.40786 0.0
N305 N 0.45475 0.35755 0.3429 0.0
C306 C 0.44974 0.36628 0.32849 0.0
C307 C 0.46625 0.38382 0.31908 0.0
C308 C 0.48775 0.3918 0.32427 0.0
C309 C 0.49252 0.38233 0.33897 0.0
C310 C 0.47536 0.3653 0.34816 0.0
H311 H 0.43329 0.35989 0.32415 0.0
O312 O 0.41311 0.36686 0.37826 0.0
O313 O 0.42806 0.34711 0.37353 0.0
O314 O 0.38774 0.33059 0.35444 0.0
O315 O 0.41193 0.3247 0.33998 0.0
C316 C 0.51363 0.38893 0.34474 0.0
C317 C 0.51717 0.37902 0.36001 0.0
H318 H 0.51755 0.35724 0.3907 0.0
H319 H 0.48498 0.32794 0.40564 0.0
H320 H 0.46243 0.39097 0.30769 0.0
H321 H 0.50046 0.40513 0.31681 0.0
H322 H 0.52726 0.40187 0.33776 0.0
H323 H 0.53346 0.38452 0.36453 0.0
Mn324 Mn 0.06735 0.40071 0.88417 0.0
Mn325 Mn 0.10826 0.44017 0.86057 0.0
C326 C 0.06694 0.43205 0.87723 0.0
C327 C 0.05327 0.38477 0.91252 0.0
C328 C 0.07361 0.39869 0.84321 0.0
O329 O 0.09093 0.39272 0.88571 0.0
O330 O 0.11839 0.42254 0.87331 0.0
C331 C 0.13684 0.46569 0.89104 0.0
N332 N 0.12528 0.46442 0.87584 0.0
C333 C 0.13953 0.50264 0.87571 0.0
C334 C 0.15167 0.50441 0.89134 0.0
C335 C 0.15015 0.48582 0.89914 0.0
C336 C 0.1261 0.4821 0.86857 0.0
H337 H 0.13602 0.45148 0.89684 0.0
C338 C 0.11078 0.40449 0.88162 0.0
O339 O 0.04649 0.37386 0.89738 0.0
O340 O 0.06832 0.40466 0.91112 0.0
N341 N 0.10075 0.45865 0.84768 0.0
C342 C 0.08739 0.45407 0.83303 0.0
C343 C 0.08626 0.4708 0.82412 0.0
C344 C 0.09932 0.4921 0.83003 0.0
C345 C 0.1132 0.49644 0.84495 0.0
C346 C 0.11317 0.47906 0.85361 0.0
H347 H 0.07773 0.4378 0.82814 0.0
O348 O 0.04933 0.41472 0.88168 0.0
O349 O 0.08422 0.43061 0.87748 0.0
O350 O 0.06158 0.391 0.85728 0.0
O351 O 0.09163 0.41622 0.84343 0.0
C352 C 0.12729 0.51736 0.85139 0.0
C353 C 0.14039 0.52046 0.86682 0.0
H354 H 0.16221 0.51994 0.89745 0.0
H355 H 0.15945 0.48704 0.91121 0.0
H356 H 0.07559 0.46732 0.81255 0.0
H357 H 0.09864 0.50499 0.82295 0.0
H358 H 0.12788 0.53116 0.84482 0.0
H359 H 0.15085 0.53659 0.87187 0.0
Mn360 Mn 0.65868 0.06415 0.38387 0.0
Mn361 Mn 0.65959 0.10483 0.36036 0.0
C362 C 0.62653 0.06211 0.3756 0.0
C363 C 0.66003 0.05027 0.41247 0.0
C364 C 0.6697 0.07212 0.34347 0.0
O365 O 0.68965 0.08865 0.38649 0.0
O366 O 0.68649 0.11596 0.3748 0.0
C367 C 0.65789 0.131 0.39094 0.0
N368 N 0.64956 0.12002 0.37504 0.0
C369 C 0.6219 0.12957 0.37473 0.0
C370 C 0.63024 0.14108 0.39105 0.0
C371 C 0.64827 0.14173 0.39922 0.0
C372 C 0.63213 0.11915 0.36715 0.0
H373 H 0.67175 0.13152 0.39723 0.0
C374 C 0.69712 0.10858 0.38316 0.0
O375 O 0.66534 0.04404 0.39763 0.0
O376 O 0.6542 0.06455 0.41062 0.0
N377 N 0.63444 0.09629 0.34585 0.0
C378 C 0.62782 0.08367 0.3306 0.0
C379 C 0.61006 0.0814 0.32071 0.0
C380 C 0.59936 0.09219 0.32654 0.0
C381 C 0.60624 0.10482 0.34245 0.0
C382 C 0.62424 0.10674 0.35159 0.0
H383 H 0.63616 0.0756 0.32585 0.0
O384 O 0.627 0.04491 0.38018 0.0
O385 O 0.64479 0.07994 0.37646 0.0
O386 O 0.66449 0.05943 0.35719 0.0
O387 O 0.66969 0.0899 0.34388 0.0
C388 C 0.59594 0.11554 0.34961 0.0
C389 C 0.60367 0.12778 0.36582 0.0
H390 H 0.62285 0.14936 0.3975 0.0
H391 H 0.65474 0.1505 0.41186 0.0
H392 H 0.60475 0.07152 0.30851 0.0
H393 H 0.58584 0.0906 0.31871 0.0
H394 H 0.58192 0.11429 0.34289 0.0
H395 H 0.59542 0.13569 0.37134 0.0
Mn396 Mn 0.59946 0.66354 0.88786 0.0
Mn397 Mn 0.55487 0.65467 0.8652 0.0
C398 C 0.57232 0.62868 0.88251 0.0
C399 C 0.61735 0.67001 0.91592 0.0
C400 C 0.59789 0.66903 0.84663 0.0
O401 O 0.60095 0.69261 0.88856 0.0
O402 O 0.56859 0.68364 0.87665 0.0
C403 C 0.52792 0.6533 0.89642 0.0
N404 N 0.53077 0.64379 0.88138 0.0
C405 C 0.49553 0.61281 0.88477 0.0
C406 C 0.49216 0.62232 0.90024 0.0
C407 C 0.50846 0.64262 0.90612 0.0
C408 C 0.51523 0.62423 0.87564 0.0
H409 H 0.54042 0.6689 0.90097 0.0
C410 C 0.58637 0.69707 0.88431 0.0
O411 O 0.62795 0.67562 0.90056 0.0
O412 O 0.59666 0.66117 0.91486 0.0
N413 N 0.53991 0.62713 0.85357 0.0
C414 C 0.54621 0.61965 0.83907 0.0
C415 C 0.53195 0.59933 0.83176 0.0
C416 C 0.51133 0.58698 0.83932 0.0
C417 C 0.5052 0.59501 0.85423 0.0
C418 C 0.52003 0.61546 0.86084 0.0
H419 H 0.56198 0.62912 0.83312 0.0
O420 O 0.59157 0.63263 0.8864 0.0
O421 O 0.56955 0.6452 0.88214 0.0
O422 O 0.60803 0.66793 0.86061 0.0
O423 O 0.57857 0.66536 0.84728 0.0
C424 C 0.48508 0.58341 0.86296 0.0
C425 C 0.48027 0.59227 0.87825 0.0
H426 H 0.47721 0.61411 0.90781 0.0
H427 H 0.50601 0.65002 0.9181 0.0
H428 H 0.53681 0.59321 0.82028 0.0
H429 H 0.50038 0.57134 0.83361 0.0
H430 H 0.47332 0.56751 0.8582 0.0
H431 H 0.46489 0.58305 0.88503 0.0
Mn432 Mn 0.59681 0.93874 0.88595 0.0
Mn433 Mn 0.55272 0.90191 0.86347 0.0
C434 C 0.56888 0.94531 0.88047 0.0
C435 C 0.61493 0.95083 0.9138 0.0
C436 C 0.59556 0.9313 0.84488 0.0
O437 O 0.5993 0.91167 0.88677 0.0
O438 O 0.56687 0.88746 0.8755 0.0
C439 C 0.5258 0.87658 0.89479 0.0
N440 N 0.52851 0.88856 0.87951 0.0
C441 C 0.49286 0.88338 0.88227 0.0
C442 C 0.48963 0.8709 0.89799 0.0
C443 C 0.5062 0.86754 0.9043 0.0
C444 C 0.51273 0.892 0.87339 0.0
H445 H 0.5385 0.87396 0.89966 0.0
C446 C 0.58488 0.89239 0.88303 0.0
O447 O 0.6253 0.95608 0.89833 0.0
O448 O 0.59428 0.9384 0.913 0.0
N449 N 0.53739 0.91373 0.85128 0.0
C450 C 0.54347 0.92704 0.83646 0.0
C451 C 0.52883 0.93222 0.82856 0.0
C452 C 0.50806 0.92356 0.83586 0.0
C453 C 0.50217 0.90997 0.85116 0.0
C454 C 0.51738 0.90521 0.85834 0.0
H455 H 0.55933 0.93356 0.83064 0.0
O456 O 0.5879 0.96104 0.88439 0.0
O457 O 0.56678 0.92629 0.88023 0.0
O458 O 0.60528 0.94302 0.85874 0.0
O459 O 0.57657 0.91506 0.84564 0.0
C460 C 0.48188 0.90108 0.85963 0.0
C461 C 0.47726 0.8879 0.87524 0.0
H462 H 0.47456 0.86393 0.90539 0.0
H463 H 0.50386 0.858 0.91646 0.0
H464 H 0.5335 0.94277 0.81678 0.0
H465 H 0.49677 0.92748 0.82962 0.0
H466 H 0.4698 0.90452 0.85441 0.0
H467 H 0.46173 0.88144 0.88181 0.0
Mn468 Mn 0.66128 0.59756 0.38714 0.0
Mn469 Mn 0.6612 0.55573 0.36639 0.0
C470 C 0.62891 0.5669 0.3805 0.0
C471 C 0.66333 0.61472 0.41489 0.0
C472 C 0.67071 0.5969 0.3466 0.0
O473 O 0.69227 0.60418 0.38978 0.0
O474 O 0.68884 0.57306 0.37951 0.0
C475 C 0.66152 0.5313 0.39892 0.0
N476 N 0.65216 0.53221 0.38298 0.0
C477 C 0.62508 0.49491 0.38533 0.0
C478 C 0.63448 0.49352 0.40173 0.0
C479 C 0.65271 0.51183 0.4086 0.0
C480 C 0.63442 0.5148 0.3764 0.0
H481 H 0.67563 0.54531 0.40416 0.0
C482 C 0.69971 0.59159 0.38701 0.0
O483 O 0.6682 0.62528 0.39951 0.0
O484 O 0.65749 0.59455 0.41402 0.0
N485 N 0.63529 0.5375 0.35327 0.0
C486 C 0.62764 0.54177 0.33769 0.0
C487 C 0.60908 0.5253 0.32934 0.0
C488 C 0.59881 0.50454 0.33689 0.0
C489 C 0.60716 0.50047 0.35278 0.0
C490 C 0.62557 0.51756 0.3606 0.0
H491 H 0.63562 0.55761 0.33167 0.0
O492 O 0.62946 0.58488 0.3839 0.0
O493 O 0.64717 0.5674 0.38155 0.0
O494 O 0.66647 0.6059 0.35982 0.0
O495 O 0.67019 0.57893 0.34816 0.0
C496 C 0.59794 0.48013 0.36116 0.0
C497 C 0.60678 0.47738 0.37751 0.0
H498 H 0.6278 0.4785 0.40919 0.0
H499 H 0.66003 0.5109 0.42128 0.0
H500 H 0.60278 0.52857 0.31705 0.0
H501 H 0.58453 0.49187 0.33039 0.0
H502 H 0.58382 0.46655 0.35532 0.0
H503 H 0.59928 0.46174 0.38402 0.0
Mn504 Mn 0.06203 0.66081 0.89035 0.0
Mn505 Mn 0.10317 0.65999 0.86911 0.0
C506 C 0.05986 0.62822 0.88376 0.0
C507 C 0.04703 0.66314 0.91806 0.0
C508 C 0.07153 0.6698 0.84969 0.0
O509 O 0.08679 0.6917 0.89282 0.0
O510 O 0.11404 0.68777 0.88211 0.0
C511 C 0.12827 0.66023 0.90136 0.0
N512 N 0.11769 0.65082 0.88554 0.0
C513 C 0.1277 0.62358 0.88767 0.0
C514 C 0.13883 0.63304 0.90394 0.0
C515 C 0.13899 0.65136 0.91087 0.0
C516 C 0.11708 0.63296 0.87894 0.0
H517 H 0.12855 0.6744 0.90664 0.0
C518 C 0.10674 0.69885 0.88979 0.0
O519 O 0.04173 0.66838 0.90267 0.0
O520 O 0.06112 0.65696 0.91725 0.0
N521 N 0.09496 0.63389 0.8561 0.0
C522 C 0.08276 0.62622 0.84067 0.0
C523 C 0.08035 0.60753 0.83232 0.0
C524 C 0.09081 0.59716 0.83972 0.0
C525 C 0.10353 0.60553 0.85545 0.0
C526 C 0.10515 0.62406 0.86329 0.0
H527 H 0.07493 0.63428 0.83476 0.0
O528 O 0.04257 0.62901 0.88723 0.0
O529 O 0.07773 0.64638 0.88463 0.0
O530 O 0.05866 0.66591 0.86311 0.0
O531 O 0.08892 0.6691 0.85097 0.0
C532 C 0.11469 0.59624 0.86365 0.0
C533 C 0.12668 0.60519 0.87981 0.0
H534 H 0.14722 0.62632 0.91125 0.0
H535 H 0.14748 0.65871 0.92345 0.0
H536 H 0.07056 0.60121 0.82014 0.0
H537 H 0.08897 0.58278 0.83321 0.0
H538 H 0.11388 0.58199 0.85782 0.0
H539 H 0.13488 0.59767 0.88616 0.0
Mn540 Mn 0.39428 0.05913 0.3854 0.0
Mn541 Mn 0.43587 0.09793 0.36173 0.0
C542 C 0.42427 0.05599 0.37987 0.0
C543 C 0.37751 0.04707 0.41377 0.0
C544 C 0.39394 0.06461 0.34409 0.0
O545 O 0.38836 0.08405 0.38553 0.0
O546 O 0.41902 0.11006 0.3729 0.0
C547 C 0.46124 0.12621 0.39239 0.0
N548 N 0.45985 0.11412 0.37754 0.0
C549 C 0.4968 0.12329 0.38075 0.0
C550 C 0.49868 0.13596 0.39603 0.0
C551 C 0.4808 0.13737 0.4019 0.0
C552 C 0.47691 0.11257 0.37182 0.0
H553 H 0.44751 0.1273 0.39694 0.0
C554 C 0.40076 0.10349 0.38063 0.0
O555 O 0.36669 0.04008 0.3986 0.0
O556 O 0.39775 0.06106 0.41235 0.0
N557 N 0.45357 0.08846 0.35014 0.0
C558 C 0.44876 0.07473 0.33573 0.0
C559 C 0.46482 0.07128 0.32833 0.0
C560 C 0.48565 0.08207 0.33571 0.0
C561 C 0.49022 0.09612 0.35053 0.0
C562 C 0.47363 0.09911 0.35721 0.0
H563 H 0.43283 0.06652 0.3299 0.0
O564 O 0.40618 0.03924 0.38436 0.0
O565 O 0.42433 0.07409 0.37916 0.0
O566 O 0.38521 0.05306 0.35828 0.0
O567 O 0.41219 0.08189 0.34429 0.0
C568 C 0.5105 0.10708 0.35908 0.0
C569 C 0.51377 0.12059 0.37423 0.0
H570 H 0.51371 0.14453 0.40344 0.0
H571 H 0.4821 0.14703 0.41373 0.0
H572 H 0.46116 0.06038 0.31691 0.0
H573 H 0.498 0.07942 0.32991 0.0
H574 H 0.5236 0.10498 0.35429 0.0
H575 H 0.52933 0.12868 0.38086 0.0
Mn576 Mn 0.34107 0.39994 0.88441 0.0
Mn577 Mn 0.34359 0.44351 0.86441 0.0
C578 C 0.37415 0.43042 0.87973 0.0
C579 C 0.33714 0.38079 0.91145 0.0
C580 C 0.33798 0.40488 0.84286 0.0
O581 O 0.3101 0.39328 0.88585 0.0
O582 O 0.31389 0.42329 0.87286 0.0
C583 C 0.33506 0.46136 0.89786 0.0
N584 N 0.34765 0.46387 0.88306 0.0
C585 C 0.372 0.50082 0.8908 0.0
C586 C 0.35923 0.49869 0.90606 0.0
C587 C 0.34072 0.47884 0.90964 0.0
C588 C 0.36559 0.48281 0.8796 0.0
H589 H 0.32081 0.44614 0.90064 0.0
C590 C 0.30246 0.40496 0.88047 0.0
O591 O 0.33305 0.3713 0.89557 0.0
O592 O 0.34313 0.40102 0.91147 0.0
N593 N 0.37105 0.46495 0.85543 0.0
C594 C 0.38192 0.46416 0.84043 0.0
C595 C 0.40065 0.48279 0.83481 0.0
C596 C 0.40795 0.50204 0.84461 0.0
C597 C 0.39656 0.50245 0.86002 0.0
C598 C 0.37778 0.48348 0.86477 0.0
H599 H 0.37631 0.44946 0.83278 0.0
O600 O 0.37269 0.41193 0.88256 0.0
O601 O 0.35619 0.43076 0.88033 0.0
O602 O 0.33776 0.39356 0.85654 0.0
O603 O 0.33998 0.42352 0.8445 0.0
C604 C 0.40315 0.52089 0.87091 0.0
C605 C 0.39095 0.52004 0.88636 0.0
H606 H 0.36353 0.51214 0.91518 0.0
H607 H 0.33082 0.47704 0.92143 0.0
H608 H 0.40942 0.48234 0.82292 0.0
H609 H 0.4224 0.5164 0.84024 0.0
H610 H 0.41769 0.53576 0.86763 0.0
H611 H 0.3963 0.53425 0.89475 0.0
Mn612 Mn 0.93672 0.33445 0.38449 0.0
Mn613 Mn 0.89729 0.33738 0.36219 0.0
C614 C 0.93976 0.36766 0.37905 0.0
C615 C 0.94982 0.33006 0.41248 0.0
C616 C 0.9295 0.3279 0.34342 0.0
O617 O 0.9115 0.30362 0.38538 0.0
O618 O 0.88532 0.30886 0.37404 0.0
C619 C 0.8704 0.33564 0.39358 0.0
N620 N 0.88211 0.34594 0.37844 0.0
C621 C 0.87262 0.37351 0.38113 0.0
C622 C 0.86037 0.36316 0.39671 0.0
C623 C 0.85937 0.34421 0.40303 0.0
C624 C 0.8835 0.36437 0.37244 0.0
H625 H 0.86945 0.32097 0.39837 0.0
C626 C 0.8918 0.29704 0.38162 0.0
O627 O 0.95614 0.32593 0.39709 0.0
O628 O 0.93591 0.33646 0.4115 0.0
N629 N 0.90671 0.36434 0.35023 0.0
C630 C 0.91986 0.37276 0.33541 0.0
C631 C 0.92315 0.3921 0.32775 0.0
C632 C 0.91261 0.40238 0.33518 0.0
C633 C 0.89892 0.39324 0.35027 0.0
C634 C 0.89644 0.37407 0.35745 0.0
H635 H 0.92777 0.36479 0.32947 0.0
O636 O 0.95668 0.36635 0.38295 0.0
O637 O 0.92174 0.34962 0.37884 0.0
O638 O 0.94162 0.33093 0.35723 0.0
O639 O 0.91225 0.32892 0.34424 0.0
C640 C 0.88759 0.40237 0.35844 0.0
C641 C 0.87448 0.39253 0.37388 0.0
H642 H 0.85173 0.36965 0.40396 0.0
H643 H 0.85 0.33616 0.41507 0.0
H644 H 0.93369 0.39901 0.31607 0.0
H645 H 0.91514 0.41726 0.3292 0.0
H646 H 0.88908 0.41712 0.35312 0.0
H647 H 0.86611 0.39989 0.38021 0.0
Mn648 Mn 0.06192 0.39663 0.61592 0.0
Mn649 Mn 0.10068 0.43888 0.63907 0.0
C650 C 0.05803 0.42612 0.62179 0.0
C651 C 0.04922 0.37954 0.58772 0.0
C652 C 0.06844 0.39681 0.65719 0.0
O653 O 0.08735 0.39152 0.61506 0.0
O654 O 0.11306 0.42235 0.6277 0.0
C655 C 0.12798 0.46417 0.60791 0.0
N656 N 0.11617 0.46274 0.62298 0.0
C657 C 0.12473 0.4995 0.6197 0.0
C658 C 0.13709 0.50142 0.60419 0.0
C659 C 0.13867 0.48365 0.59825 0.0
C660 C 0.11445 0.47968 0.62877 0.0
H661 H 0.1292 0.45053 0.60332 0.0
C662 C 0.10679 0.40422 0.61982 0.0
O663 O 0.04301 0.36881 0.60299 0.0
O664 O 0.06288 0.3999 0.58894 0.0
N665 N 0.09105 0.45635 0.65083 0.0
C666 C 0.07769 0.45152 0.66551 0.0
C667 C 0.07418 0.46747 0.67306 0.0
C668 C 0.08456 0.48824 0.66554 0.0
C669 C 0.09823 0.49284 0.65044 0.0
C670 C 0.1013 0.47635 0.64363 0.0
H671 H 0.06982 0.43564 0.67145 0.0
O672 O 0.04144 0.40777 0.61761 0.0
O673 O 0.07641 0.42673 0.62204 0.0
O674 O 0.05683 0.38765 0.64311 0.0
O675 O 0.08534 0.41534 0.65676 0.0
C676 C 0.10874 0.51305 0.64174 0.0
C677 C 0.12191 0.51635 0.62634 0.0
H678 H 0.14531 0.51639 0.59667 0.0
H679 H 0.1481 0.48499 0.58624 0.0
H680 H 0.06358 0.4638 0.6847 0.0
H681 H 0.08191 0.50053 0.67148 0.0
H682 H 0.10656 0.52606 0.64663 0.0
H683 H 0.12965 0.53186 0.61961 0.0
Mn684 Mn 0.66562 0.06194 0.11592 0.0
Mn685 Mn 0.65723 0.09769 0.13899 0.0
C686 C 0.63087 0.05473 0.12096 0.0
C687 C 0.67224 0.05094 0.08778 0.0
C688 C 0.67095 0.06827 0.15711 0.0
O689 O 0.69499 0.08926 0.11579 0.0
O690 O 0.68617 0.11285 0.12752 0.0
C691 C 0.65616 0.12405 0.10829 0.0
N692 N 0.64654 0.11138 0.12315 0.0
C693 C 0.61574 0.116 0.1201 0.0
C694 C 0.62537 0.1292 0.10481 0.0
C695 C 0.64564 0.13319 0.09886 0.0
C696 C 0.62702 0.1074 0.12898 0.0
H697 H 0.67173 0.12713 0.10368 0.0
C698 C 0.69956 0.10835 0.11998 0.0
O699 O 0.67717 0.04517 0.10308 0.0
O700 O 0.66394 0.06326 0.08893 0.0
N701 N 0.62967 0.08505 0.15061 0.0
C702 C 0.622 0.07085 0.1648 0.0
C703 C 0.60161 0.06463 0.17206 0.0
C704 C 0.5894 0.07318 0.16474 0.0
C705 C 0.59763 0.08779 0.15015 0.0
C706 C 0.61812 0.09351 0.14357 0.0
H707 H 0.63134 0.0643 0.17055 0.0
O708 O 0.63452 0.0393 0.11684 0.0
O709 O 0.64762 0.07387 0.1217 0.0
O710 O 0.66937 0.05692 0.14309 0.0
O711 O 0.66779 0.08426 0.15662 0.0
C712 C 0.58617 0.09662 0.14167 0.0
C713 C 0.5952 0.11068 0.12663 0.0
H714 H 0.61727 0.13619 0.09744 0.0
H715 H 0.65313 0.14327 0.08702 0.0
H716 H 0.59534 0.0533 0.18328 0.0
H717 H 0.57368 0.06833 0.17037 0.0
H718 H 0.57026 0.09243 0.14642 0.0
H719 H 0.58609 0.11708 0.12004 0.0
Mn720 Mn 0.59935 0.66703 0.61917 0.0
Mn721 Mn 0.56204 0.67241 0.64272 0.0
C722 C 0.56782 0.6365 0.62806 0.0
C723 C 0.61376 0.66655 0.59058 0.0
C724 C 0.60337 0.67827 0.65966 0.0
O725 O 0.60871 0.69876 0.61602 0.0
O726 O 0.58008 0.69885 0.62836 0.0
C727 C 0.5362 0.67431 0.61195 0.0
N728 N 0.53744 0.6653 0.62797 0.0
C729 C 0.499 0.64325 0.62963 0.0
C730 C 0.49726 0.65238 0.6132 0.0
C731 C 0.51596 0.66785 0.60424 0.0
C732 C 0.51961 0.65005 0.63647 0.0
H733 H 0.55055 0.68638 0.60517 0.0
C734 C 0.59785 0.70794 0.61956 0.0
O735 O 0.62527 0.67115 0.60541 0.0
O736 O 0.5941 0.66233 0.59245 0.0
N737 N 0.54314 0.64805 0.65721 0.0
C738 C 0.54772 0.6398 0.67223 0.0
C739 C 0.53082 0.62365 0.68248 0.0
C740 C 0.50943 0.61653 0.67742 0.0
C741 C 0.50514 0.62527 0.6619 0.0
C742 C 0.52262 0.64104 0.65206 0.0
H743 H 0.56411 0.64562 0.67646 0.0
O744 O 0.5846 0.63531 0.62335 0.0
O745 O 0.56974 0.65543 0.62678 0.0
O746 O 0.61013 0.67246 0.64583 0.0
O747 O 0.58641 0.67981 0.65937 0.0
C748 C 0.4842 0.61901 0.65582 0.0
C749 C 0.48113 0.62773 0.63954 0.0
H750 H 0.48167 0.64759 0.6073 0.0
H751 H 0.51476 0.67492 0.59152 0.0
H752 H 0.53426 0.61695 0.69442 0.0
H753 H 0.49644 0.60426 0.68549 0.0
H754 H 0.47033 0.60719 0.66337 0.0
H755 H 0.46495 0.62236 0.63476 0.0
Mn756 Mn 0.93481 0.59964 0.12181 0.0
Mn757 Mn 0.8951 0.5582 0.14475 0.0
C758 C 0.93886 0.57072 0.13012 0.0
C759 C 0.94886 0.61564 0.09347 0.0
C760 C 0.92562 0.60143 0.16218 0.0
O761 O 0.90905 0.60406 0.11865 0.0
O762 O 0.8828 0.57295 0.13039 0.0
C763 C 0.87041 0.53015 0.11372 0.0
N764 N 0.88134 0.53313 0.12969 0.0
C765 C 0.87404 0.49661 0.12948 0.0
C766 C 0.86262 0.4931 0.11306 0.0
C767 C 0.86086 0.50997 0.10512 0.0
C768 C 0.88325 0.51707 0.13739 0.0
H769 H 0.86903 0.54309 0.10759 0.0
C770 C 0.88928 0.59077 0.12193 0.0
O771 O 0.9539 0.62704 0.10839 0.0
O772 O 0.93558 0.59523 0.09509 0.0
N773 N 0.90477 0.54243 0.15914 0.0
C774 C 0.91716 0.54876 0.17453 0.0
C775 C 0.92045 0.53379 0.18422 0.0
C776 C 0.9109 0.51248 0.17805 0.0
C777 C 0.89848 0.5064 0.16201 0.0
C778 C 0.89551 0.52194 0.15308 0.0
H779 H 0.92429 0.56504 0.17952 0.0
O780 O 0.95551 0.58903 0.1259 0.0
O781 O 0.92042 0.56988 0.12896 0.0
O782 O 0.9383 0.60978 0.14856 0.0
O783 O 0.90855 0.58301 0.1616 0.0
C784 C 0.88899 0.48556 0.15451 0.0
C785 C 0.87691 0.48071 0.13818 0.0
H786 H 0.85526 0.47757 0.10637 0.0
H787 H 0.85214 0.50741 0.09241 0.0
H788 H 0.93017 0.53862 0.19652 0.0
H789 H 0.91329 0.50093 0.18571 0.0
H790 H 0.89109 0.47321 0.16106 0.0
H791 H 0.86997 0.46472 0.1324 0.0
Mn792 Mn 0.3352 0.93673 0.61822 0.0
Mn793 Mn 0.337 0.89712 0.64126 0.0
C794 C 0.3681 0.9394 0.6245 0.0
C795 C 0.33168 0.95 0.59002 0.0
C796 C 0.32734 0.92965 0.65915 0.0
O797 O 0.30428 0.9117 0.61693 0.0
O798 O 0.30894 0.88527 0.62859 0.0
C799 C 0.33625 0.87007 0.61037 0.0
N800 N 0.34598 0.88173 0.62568 0.0
C801 C 0.37328 0.87175 0.62441 0.0
C802 C 0.3635 0.85951 0.60869 0.0
C803 C 0.34498 0.85879 0.60157 0.0
C804 C 0.36402 0.88287 0.63244 0.0
H805 H 0.32192 0.86935 0.60496 0.0
C806 C 0.29747 0.89195 0.62064 0.0
O807 O 0.32719 0.95629 0.60526 0.0
O808 O 0.33789 0.93595 0.59126 0.0
N809 N 0.3635 0.90647 0.65399 0.0
C810 C 0.3716 0.91989 0.66868 0.0
C811 C 0.39061 0.9231 0.67699 0.0
C812 C 0.40086 0.91218 0.67034 0.0
C813 C 0.39207 0.89825 0.65535 0.0
C814 C 0.37326 0.8959 0.64748 0.0
H815 H 0.36364 0.9281 0.67402 0.0
O816 O 0.36711 0.95642 0.62031 0.0
O817 O 0.34994 0.92148 0.62452 0.0
O818 O 0.33109 0.94183 0.64525 0.0
O819 O 0.32802 0.91222 0.65863 0.0
C820 C 0.40124 0.88659 0.64791 0.0
C821 C 0.3919 0.87341 0.6324 0.0
H822 H 0.37011 0.85069 0.60192 0.0
H823 H 0.33738 0.84945 0.5894 0.0
H824 H 0.39726 0.93384 0.68858 0.0
H825 H 0.41547 0.91463 0.67683 0.0
H826 H 0.41569 0.88793 0.65381 0.0
H827 H 0.39934 0.86484 0.6266 0.0
Mn828 Mn 0.40039 0.33797 0.1156 0.0
Mn829 Mn 0.44248 0.3455 0.14177 0.0
C830 C 0.42975 0.37217 0.11877 0.0
C831 C 0.38349 0.33008 0.08696 0.0
C832 C 0.4008 0.33961 0.15762 0.0
O833 O 0.39544 0.30771 0.11824 0.0
O834 O 0.42463 0.31467 0.13482 0.0
C835 C 0.46623 0.33532 0.11414 0.0
N836 N 0.46584 0.34899 0.12685 0.0
C837 C 0.50367 0.37365 0.12302 0.0
C838 C 0.50451 0.35977 0.10997 0.0
C839 C 0.48569 0.34056 0.10547 0.0
C840 C 0.48384 0.36751 0.13129 0.0
H841 H 0.4518 0.32052 0.11069 0.0
C842 C 0.40733 0.30174 0.12627 0.0
O843 O 0.37265 0.32733 0.10196 0.0
O844 O 0.40381 0.33686 0.08871 0.0
N845 N 0.46145 0.37438 0.14959 0.0
C846 C 0.45737 0.38704 0.16083 0.0
C847 C 0.4743 0.40727 0.16608 0.0
C848 C 0.49523 0.41425 0.15975 0.0
C849 C 0.49902 0.40098 0.14812 0.0
C850 C 0.48155 0.38089 0.14349 0.0
H851 H 0.44129 0.38184 0.16558 0.0
O852 O 0.41116 0.36936 0.1139 0.0
O853 O 0.43079 0.35478 0.1216 0.0
O854 O 0.39089 0.33741 0.14249 0.0
O855 O 0.41982 0.34255 0.15852 0.0
C856 C 0.51928 0.40721 0.14039 0.0
C857 C 0.52159 0.39357 0.12783 0.0
H858 H 0.51946 0.36381 0.10317 0.0
H859 H 0.4862 0.32982 0.09535 0.0
H860 H 0.4712 0.41751 0.17492 0.0
H861 H 0.50819 0.42998 0.16364 0.0
H862 H 0.53307 0.42268 0.14367 0.0
H863 H 0.53714 0.39874 0.12168 0.0
H864 H 0.39499 0.09032 0.31663 0.0
H865 H 0.38418 0.0804 0.28493 0.0
H866 H 0.35894 0.01359 0.29844 0.0
H867 H 0.36988 0.02358 0.33056 0.0
H868 H 0.3888 0.0276 0.27081 0.0
H869 H 0.32945 0.05244 0.2549 0.0
H870 H 0.35177 0.07338 0.26707 0.0
H871 H 0.33505 0.04788 0.27811 0.0
C872 C 0.3866 0.07344 0.31299 0.0
C873 C 0.38333 0.05772 0.32604 0.0
C874 C 0.38022 0.06775 0.29486 0.0
C875 C 0.37045 0.04621 0.28931 0.0
C876 C 0.36621 0.03029 0.30249 0.0
H877 H 0.36826 0.0397 0.16754 0.0
H878 H 0.35366 0.0276 0.19855 0.0
C879 C 0.3724 0.03599 0.32081 0.0
C880 C 0.36814 0.0413 0.2694 0.0
H881 H 0.35374 0.05589 0.22966 0.0
C882 C 0.3805 0.03308 0.26181 0.0
C883 C 0.35715 0.0482 0.25759 0.0
C884 C 0.34243 0.05575 0.26488 0.0
C885 C 0.38399 0.03374 0.24285 0.0
C886 C 0.37501 0.04296 0.23126 0.0
C887 C 0.36084 0.04908 0.23861 0.0
C888 C 0.38316 0.04976 0.21239 0.0
C889 C 0.39845 0.02591 0.23545 0.0
C890 C 0.40435 0.06644 0.21003 0.0
C891 C 0.41262 0.07349 0.19254 0.0
C892 C 0.39991 0.06399 0.17688 0.0
C893 C 0.37851 0.04734 0.17927 0.0
C894 C 0.37014 0.04039 0.19694 0.0
H895 H 0.39889 0.01388 0.24473 0.0
H896 H 0.3931 0.01865 0.22165 0.0
H897 H 0.41505 0.03972 0.23423 0.0
H898 H 0.41455 0.07409 0.2218 0.0
H899 H 0.42914 0.08635 0.19137 0.0
H900 H 0.34488 0.37579 0.66769 0.0
H901 H 0.3432 0.36317 0.6993 0.0
H902 H 0.30863 0.39515 0.71569 0.0
H903 H 0.3102 0.40766 0.68446 0.0
H904 H 0.36183 0.39102 0.72862 0.0
H905 H 0.27546 0.33793 0.74238 0.0
H906 H 0.28624 0.34431 0.7194 0.0
H907 H 0.28027 0.36243 0.73173 0.0
C908 C 0.33645 0.37963 0.67796 0.0
C909 C 0.32774 0.39278 0.67358 0.0
C910 C 0.33553 0.37244 0.69601 0.0
C911 C 0.32549 0.37792 0.70982 0.0
C912 C 0.31601 0.39026 0.70523 0.0
H913 H 0.34588 0.42769 0.81125 0.0
H914 H 0.34358 0.41543 0.77999 0.0
C915 C 0.31711 0.3976 0.68736 0.0
C916 C 0.32722 0.3735 0.72944 0.0
H917 H 0.29754 0.35786 0.7688 0.0
C918 C 0.34777 0.38312 0.73736 0.0
C919 C 0.30892 0.36299 0.74089 0.0
C920 C 0.28649 0.35113 0.73311 0.0
C921 C 0.35042 0.38442 0.75646 0.0
C922 C 0.33209 0.37598 0.76788 0.0
C923 C 0.31158 0.36447 0.76002 0.0
C924 C 0.33392 0.38269 0.78729 0.0
C925 C 0.37281 0.39615 0.76432 0.0
C926 C 0.32898 0.3682 0.80188 0.0
C927 C 0.33046 0.37525 0.82008 0.0
C928 C 0.3365 0.39677 0.82385 0.0
C929 C 0.3412 0.41101 0.80904 0.0
C930 C 0.33998 0.40407 0.79106 0.0
H931 H 0.38475 0.39624 0.7546 0.0
H932 H 0.37732 0.41307 0.76713 0.0
H933 H 0.37364 0.38873 0.77742 0.0
H934 H 0.32408 0.35155 0.79918 0.0
H935 H 0.32666 0.36384 0.83113 0.0
H936 H 0.90442 0.31482 0.18502 0.0
H937 H 0.91364 0.3105 0.21621 0.0
H938 H 0.98011 0.33783 0.20061 0.0
H939 H 0.97095 0.34232 0.16901 0.0
H940 H 0.93591 0.28887 0.23096 0.0
H941 H 0.97891 0.3775 0.24246 0.0
H942 H 0.96071 0.3654 0.22342 0.0
H943 H 0.98638 0.3669 0.22324 0.0
C944 C 0.921 0.31972 0.1881 0.0
C945 C 0.93699 0.3291 0.17456 0.0
C946 C 0.92622 0.31715 0.20594 0.0
C947 C 0.94756 0.32403 0.21076 0.0
C948 C 0.96355 0.33257 0.19717 0.0
H949 H 0.96999 0.34052 0.33014 0.0
H950 H 0.97959 0.33767 0.29829 0.0
C951 C 0.95828 0.335 0.17913 0.0
C952 C 0.9527 0.32345 0.23035 0.0
H953 H 0.96925 0.35541 0.26836 0.0
C954 C 0.94374 0.30342 0.23912 0.0
C955 C 0.96303 0.34245 0.24096 0.0
C956 C 0.9728 0.36435 0.23217 0.0
C957 C 0.94347 0.30188 0.25831 0.0
C958 C 0.95201 0.32084 0.26896 0.0
C959 C 0.96265 0.34089 0.26017 0.0
C960 C 0.94672 0.32023 0.28869 0.0
C961 C 0.93308 0.27993 0.26702 0.0
C962 C 0.92512 0.31132 0.29383 0.0
C963 C 0.91965 0.31307 0.3118 0.0
C964 C 0.93565 0.32378 0.32513 0.0
C965 C 0.9573 0.33201 0.32021 0.0
C966 C 0.96281 0.33045 0.30203 0.0
H967 H 0.93459 0.26824 0.25806 0.0
H968 H 0.94033 0.28038 0.28057 0.0
H969 H 0.9157 0.27401 0.26899 0.0
H970 H 0.91244 0.3038 0.28372 0.0
H971 H 0.90282 0.30652 0.31514 0.0
H972 H 0.62536 0.96999 0.67156 0.0
H973 H 0.63792 0.98034 0.70328 0.0
H974 H 0.6119 0.91358 0.71736 0.0
H975 H 0.59966 0.90326 0.68604 0.0
H976 H 0.61074 0.96806 0.73276 0.0
H977 H 0.66876 0.94036 0.74382 0.0
H978 H 0.66128 0.94443 0.72116 0.0
H979 H 0.64493 0.91953 0.73321 0.0
C980 C 0.62291 0.95762 0.68133 0.0
C981 C 0.61146 0.93581 0.67632 0.0
C982 C 0.63003 0.96355 0.69944 0.0
C983 C 0.62616 0.94777 0.71266 0.0
C984 C 0.61559 0.92611 0.70737 0.0
H985 H 0.58715 0.90463 0.81583 0.0
H986 H 0.60073 0.91418 0.78464 0.0
C987 C 0.60838 0.9202 0.68944 0.0
C988 C 0.63029 0.95313 0.73244 0.0
H989 H 0.64744 0.93881 0.77075 0.0
C990 C 0.61942 0.96241 0.74106 0.0
C991 C 0.64171 0.94584 0.74328 0.0
C992 C 0.65501 0.9372 0.73483 0.0
C993 C 0.61786 0.96257 0.76025 0.0
C994 C 0.62751 0.95332 0.77099 0.0
C995 C 0.63993 0.94577 0.76245 0.0
C996 C 0.62164 0.94791 0.7905 0.0
C997 C 0.60439 0.97092 0.76888 0.0
C998 C 0.62931 0.96369 0.80424 0.0
C999 C 0.62164 0.95824 0.82226 0.0
C1000 C 0.60601 0.93698 0.82665 0.0
C1001 C 0.59904 0.92117 0.8129 0.0
C1002 C 0.60685 0.92658 0.79507 0.0
H1003 H 0.5976 0.97724 0.75855 0.0
H1004 H 0.59097 0.95788 0.77673 0.0
H1005 H 0.61434 0.984 0.77866 0.0
H1006 H 0.64078 0.98025 0.80094 0.0
H1007 H 0.62725 0.97077 0.83253 0.0
H1008 H 0.6618 0.62729 0.33247 0.0
H1009 H 0.66601 0.63945 0.30044 0.0
H1010 H 0.69416 0.60044 0.28699 0.0
H1011 H 0.6904 0.5886 0.31861 0.0
H1012 H 0.71505 0.64102 0.27018 0.0
H1013 H 0.62625 0.59896 0.26008 0.0
H1014 H 0.63753 0.61878 0.27796 0.0
H1015 H 0.6382 0.59424 0.27999 0.0
C1016 C 0.66921 0.62162 0.32273 0.0
C1017 C 0.67553 0.60677 0.32808 0.0
C1018 C 0.67146 0.62845 0.30441 0.0
C1019 C 0.6801 0.62058 0.29127 0.0
C1020 C 0.6874 0.60668 0.29685 0.0
H1021 H 0.69114 0.58985 0.18446 0.0
H1022 H 0.6953 0.60101 0.21642 0.0
C1023 C 0.68512 0.59984 0.31499 0.0
C1024 C 0.68052 0.62536 0.27143 0.0
H1025 H 0.64781 0.61113 0.23389 0.0
C1026 C 0.70037 0.63492 0.26226 0.0
C1027 C 0.66136 0.61745 0.2611 0.0
C1028 C 0.63957 0.60666 0.27017 0.0
C1029 C 0.70148 0.63561 0.24305 0.0
C1030 C 0.68226 0.62631 0.23273 0.0
C1031 C 0.66252 0.61822 0.24186 0.0
C1032 C 0.68205 0.62197 0.21283 0.0
C1033 C 0.7232 0.64554 0.23394 0.0
C1034 C 0.67321 0.63006 0.20012 0.0
C1035 C 0.67087 0.62375 0.18169 0.0
C1036 C 0.67694 0.60889 0.17578 0.0
C1037 C 0.68629 0.6013 0.18851 0.0
C1038 C 0.68883 0.60779 0.2068 0.0
H1039 H 0.73595 0.65776 0.24291 0.0
H1040 H 0.72728 0.63281 0.23116 0.0
H1041 H 0.72321 0.65319 0.22071 0.0
H1042 H 0.66767 0.64086 0.20455 0.0
H1043 H 0.66344 0.62974 0.17227 0.0
H1044 H 0.03191 0.65604 0.67583 0.0
H1045 H 0.02268 0.65976 0.70757 0.0
H1046 H 0.09007 0.69814 0.72055 0.0
H1047 H 0.0993 0.69463 0.68919 0.0
H1048 H 0.03506 0.64468 0.73748 0.0
H1049 H 0.06563 0.73143 0.74606 0.0
H1050 H 0.06038 0.71879 0.72379 0.0
H1051 H 0.08541 0.72678 0.73539 0.0
C1052 C 0.04469 0.66577 0.68536 0.0
C1053 C 0.06633 0.67501 0.68002 0.0
C1054 C 0.0394 0.66782 0.70348 0.0
C1055 C 0.05567 0.67949 0.71639 0.0
C1056 C 0.07721 0.68949 0.71078 0.0
H1057 H 0.09879 0.69008 0.82135 0.0
H1058 H 0.08968 0.69312 0.78978 0.0
C1059 C 0.08248 0.6873 0.69284 0.0
C1060 C 0.05077 0.67918 0.73619 0.0
H1061 H 0.06578 0.7121 0.77359 0.0
C1062 C 0.04111 0.65936 0.74538 0.0
C1063 C 0.05861 0.69834 0.74648 0.0
C1064 C 0.06788 0.72001 0.73737 0.0
C1065 C 0.04095 0.65833 0.76462 0.0
C1066 C 0.05049 0.67762 0.77487 0.0
C1067 C 0.05857 0.69733 0.7657 0.0
C1068 C 0.05546 0.67781 0.79462 0.0
C1069 C 0.03221 0.63674 0.77381 0.0
C1070 C 0.03925 0.6687 0.80798 0.0
C1071 C 0.04444 0.66699 0.82622 0.0
C1072 C 0.0659 0.67421 0.83126 0.0
C1073 C 0.08208 0.68417 0.81793 0.0
C1074 C 0.07692 0.68601 0.79987 0.0
H1075 H 0.02708 0.62344 0.76376 0.0
H1076 H 0.04455 0.63676 0.78298 0.0
H1077 H 0.01813 0.63349 0.78235 0.0
H1078 H 0.02259 0.66243 0.80422 0.0
H1079 H 0.03161 0.6592 0.83615 0.0
H1080 H 0.89827 0.59805 0.1893 0.0
H1081 H 0.90723 0.61055 0.2208 0.0
H1082 H 0.97475 0.64146 0.20781 0.0
H1083 H 0.96581 0.62891 0.17596 0.0
H1084 H 0.96223 0.61262 0.23728 0.0
H1085 H 0.93107 0.66821 0.24713 0.0
H1086 H 0.91179 0.64401 0.23582 0.0
H1087 H 0.93696 0.66171 0.22473 0.0
C1088 C 0.91504 0.60796 0.193 0.0
C1089 C 0.93133 0.61248 0.18015 0.0
C1090 C 0.92015 0.61524 0.211 0.0
C1091 C 0.94166 0.62718 0.21663 0.0
C1092 C 0.95804 0.63247 0.20369 0.0
H1093 H 0.9645 0.62624 0.33616 0.0
H1094 H 0.97423 0.63984 0.30463 0.0
C1095 C 0.95291 0.62537 0.18551 0.0
C1096 C 0.9465 0.6314 0.23647 0.0
H1097 H 0.93142 0.64859 0.27425 0.0
C1098 C 0.95615 0.62108 0.24539 0.0
C1099 C 0.93861 0.64249 0.247 0.0
C1100 C 0.92923 0.65492 0.23814 0.0
C1101 C 0.95621 0.61976 0.26461 0.0
C1102 C 0.94667 0.62933 0.27511 0.0
C1103 C 0.93866 0.64119 0.26619 0.0
C1104 C 0.94144 0.624 0.29477 0.0
C1105 C 0.96482 0.6066 0.27345 0.0
C1106 C 0.91982 0.61135 0.29981 0.0
C1107 C 0.91425 0.60365 0.31765 0.0
C1108 C 0.93019 0.6085 0.33097 0.0
C1109 C 0.95185 0.62221 0.32621 0.0
C1110 C 0.95744 0.62987 0.3082 0.0
H1111 H 0.96954 0.59829 0.26319 0.0
H1112 H 0.97916 0.61725 0.2818 0.0
H1113 H 0.95257 0.59435 0.28273 0.0
H1114 H 0.9072 0.60665 0.28969 0.0
H1115 H 0.89739 0.59333 0.32085 0.0
H1116 H 0.30497 0.90349 0.81676 0.0
H1117 H 0.3022 0.9138 0.78558 0.0
H1118 H 0.33492 0.98052 0.80148 0.0
H1119 H 0.33795 0.97024 0.83306 0.0
H1120 H 0.28479 0.93837 0.76971 0.0
H1121 H 0.3736 0.97653 0.76108 0.0
H1122 H 0.35989 0.9591 0.78021 0.0
H1123 H 0.36338 0.9856 0.77944 0.0
C1124 C 0.31134 0.92037 0.81375 0.0
C1125 C 0.3219 0.93608 0.82734 0.0
C1126 C 0.30966 0.92623 0.79591 0.0
C1127 C 0.31859 0.94792 0.79115 0.0
C1128 C 0.32813 0.96369 0.80485 0.0
H1129 H 0.34057 0.97036 0.6721 0.0
H1130 H 0.33691 0.9803 0.70362 0.0
C1131 C 0.3297 0.95779 0.82288 0.0
C1132 C 0.31924 0.95347 0.77149 0.0
H1133 H 0.35282 0.96855 0.73452 0.0
C1134 C 0.29971 0.94553 0.76203 0.0
C1135 C 0.33873 0.9629 0.76149 0.0
C1136 C 0.36015 0.97149 0.77095 0.0
C1137 C 0.29904 0.9453 0.74281 0.0
C1138 C 0.31836 0.95293 0.73282 0.0
C1139 C 0.33802 0.96265 0.74223 0.0
C1140 C 0.31831 0.9475 0.7132 0.0
C1141 C 0.27755 0.93585 0.73335 0.0
C1142 C 0.30904 0.92583 0.70817 0.0
C1143 C 0.31128 0.92016 0.69039 0.0
C1144 C 0.32282 0.93604 0.67716 0.0
C1145 C 0.33143 0.95778 0.68196 0.0
C1146 C 0.3294 0.96347 0.69994 0.0
H1147 H 0.2658 0.93779 0.74183 0.0
H1148 H 0.279 0.94346 0.71978 0.0
H1149 H 0.27109 0.91839 0.73123 0.0
H1150 H 0.30082 0.91324 0.71824 0.0
H1151 H 0.30443 0.90328 0.68713 0.0
H1152 H 0.36479 0.33734 0.33034 0.0
H1153 H 0.35041 0.33596 0.2995 0.0
H1154 H 0.38524 0.3058 0.27912 0.0
H1155 H 0.39917 0.30673 0.30955 0.0
H1156 H 0.37402 0.35686 0.27047 0.0
H1157 H 0.32972 0.27128 0.25237 0.0
H1158 H 0.33636 0.28022 0.27584 0.0
H1159 H 0.35531 0.27747 0.2615 0.0
C1160 C 0.36888 0.32989 0.31936 0.0
C1161 C 0.38322 0.32223 0.32243 0.0
C1162 C 0.36067 0.32913 0.30174 0.0
C1163 C 0.3664 0.32042 0.28699 0.0
C1164 C 0.38001 0.31202 0.29028 0.0
H1165 H 0.42084 0.35739 0.18965 0.0
H1166 H 0.40526 0.35345 0.21971 0.0
C1167 C 0.38822 0.31282 0.30775 0.0
C1168 C 0.36102 0.32268 0.26773 0.0
H1169 H 0.34978 0.29615 0.22684 0.0
C1170 C 0.36798 0.34344 0.261 0.0
C1171 C 0.35261 0.30522 0.25528 0.0
C1172 C 0.34285 0.28229 0.26171 0.0
C1173 C 0.36928 0.34749 0.24209 0.0
C1174 C 0.36388 0.33044 0.22964 0.0
C1175 C 0.35435 0.30934 0.23635 0.0
C1176 C 0.37229 0.33464 0.2106 0.0
C1177 C 0.37785 0.37027 0.23562 0.0
C1178 C 0.35895 0.3252 0.19527 0.0
C1179 C 0.36795 0.32755 0.1777 0.0
C1180 C 0.39041 0.33891 0.17538 0.0
C1181 C 0.4035 0.3486 0.19079 0.0
C1182 C 0.39458 0.3465 0.20809 0.0
H1183 H 0.37316 0.37923 0.24519 0.0
H1184 H 0.39567 0.37864 0.23529 0.0
H1185 H 0.37192 0.37076 0.22168 0.0
H1186 H 0.34169 0.3157 0.19695 0.0
H1187 H 0.35745 0.31976 0.16613 0.0
H1188 H 0.02792 0.36783 0.66991 0.0
H1189 H 0.01808 0.35489 0.70166 0.0
H1190 H 0.085 0.38944 0.71693 0.0
H1191 H 0.09486 0.40222 0.68563 0.0
H1192 H 0.06001 0.34644 0.73247 0.0
H1193 H 0.02333 0.39821 0.74266 0.0
H1194 H 0.01426 0.37937 0.72393 0.0
H1195 H 0.04084 0.40228 0.7235 0.0
C1196 C 0.0405 0.37228 0.68 0.0
C1197 C 0.06214 0.38621 0.67533 0.0
C1198 C 0.03486 0.365 0.69812 0.0
C1199 C 0.05082 0.37141 0.71166 0.0
C1200 C 0.07244 0.38431 0.70671 0.0
H1201 H 0.09866 0.40072 0.8146 0.0
H1202 H 0.08738 0.38706 0.78368 0.0
C1203 C 0.07803 0.39169 0.68881 0.0
C1204 C 0.04559 0.36644 0.73134 0.0
H1205 H 0.03223 0.38562 0.76889 0.0
C1206 C 0.05334 0.35447 0.74043 0.0
C1207 C 0.03678 0.37683 0.74169 0.0
C1208 C 0.02834 0.38998 0.73257 0.0
C1209 C 0.05405 0.35401 0.75964 0.0
C1210 C 0.04717 0.36611 0.76997 0.0
C1211 C 0.03757 0.37642 0.76092 0.0
C1212 C 0.05331 0.37152 0.78948 0.0
C1213 C 0.06323 0.34149 0.76868 0.0
C1214 C 0.0379 0.36736 0.8031 0.0
C1215 C 0.04436 0.37517 0.82097 0.0
C1216 C 0.06633 0.38764 0.82531 0.0
C1217 C 0.08162 0.39121 0.81172 0.0
C1218 C 0.07518 0.38323 0.79404 0.0
H1219 H 0.06044 0.32752 0.76015 0.0
H1220 H 0.08085 0.35204 0.77028 0.0
H1221 H 0.05609 0.33565 0.78245 0.0
H1222 H 0.02094 0.35858 0.79979 0.0
H1223 H 0.03222 0.37232 0.83112 0.0
H1224 H 0.69132 0.09827 0.31487 0.0
H1225 H 0.69486 0.08793 0.28391 0.0
H1226 H 0.66299 0.02134 0.30015 0.0
H1227 H 0.65909 0.03161 0.33145 0.0
H1228 H 0.71344 0.06436 0.26885 0.0
H1229 H 0.62465 0.02346 0.25877 0.0
H1230 H 0.63759 0.04109 0.27798 0.0
H1231 H 0.63485 0.01487 0.27749 0.0
C1232 C 0.68525 0.08142 0.312 0.0
C1233 C 0.67468 0.06574 0.32561 0.0
C1234 C 0.68739 0.07554 0.29427 0.0
C1235 C 0.67894 0.05386 0.28965 0.0
C1236 C 0.66938 0.03816 0.30339 0.0
H1237 H 0.65968 0.02829 0.17069 0.0
H1238 H 0.66353 0.01947 0.20259 0.0
C1239 C 0.6673 0.04406 0.32128 0.0
C1240 C 0.67889 0.04819 0.2701 0.0
H1241 H 0.64601 0.03106 0.23263 0.0
C1242 C 0.69867 0.05656 0.26097 0.0
C1243 C 0.65961 0.0379 0.25982 0.0
C1244 C 0.63791 0.02885 0.26889 0.0
C1245 C 0.69972 0.05631 0.24177 0.0
C1246 C 0.68053 0.04773 0.23145 0.0
C1247 C 0.6607 0.03766 0.2406 0.0
C1248 C 0.68073 0.05256 0.21167 0.0
C1249 C 0.72143 0.06625 0.23265 0.0
C1250 C 0.68921 0.07401 0.20624 0.0
C1251 C 0.68682 0.07901 0.18827 0.0
C1252 C 0.67598 0.06268 0.17524 0.0
C1253 C 0.66829 0.0412 0.18042 0.0
C1254 C 0.67042 0.03615 0.1986 0.0
H1255 H 0.73338 0.06515 0.24158 0.0
H1256 H 0.72056 0.05835 0.21934 0.0
H1257 H 0.72728 0.08352 0.23006 0.0
H1258 H 0.69682 0.08691 0.21615 0.0
H1259 H 0.69293 0.09571 0.18469 0.0
H1260 H 0.60437 0.70429 0.68701 0.0
H1261 H 0.61604 0.70551 0.71848 0.0
H1262 H 0.63824 0.66146 0.70492 0.0
H1263 H 0.62633 0.66004 0.67309 0.0
H1264 H 0.61024 0.64787 0.73398 0.0
H1265 H 0.67256 0.73216 0.74573 0.0
H1266 H 0.64958 0.73083 0.73482 0.0
H1267 H 0.66489 0.72088 0.723 0.0
C1268 C 0.61222 0.69525 0.69057 0.0
C1269 C 0.6144 0.68203 0.67756 0.0
C1270 C 0.61908 0.69611 0.70858 0.0
C1271 C 0.62832 0.68383 0.71406 0.0
C1272 C 0.63138 0.67127 0.70094 0.0
H1273 H 0.62947 0.66125 0.83393 0.0
H1274 H 0.64249 0.66513 0.80214 0.0
C1275 C 0.62466 0.67054 0.68276 0.0
C1276 C 0.63183 0.68209 0.7339 0.0
H1277 H 0.65068 0.71293 0.77248 0.0
C1278 C 0.6197 0.66197 0.74238 0.0
C1279 C 0.64419 0.70047 0.74489 0.0
C1280 C 0.65871 0.72225 0.73659 0.0
C1281 C 0.61804 0.6601 0.76156 0.0
C1282 C 0.62886 0.67879 0.77246 0.0
C1283 C 0.64233 0.69863 0.76406 0.0
C1284 C 0.62334 0.67847 0.79204 0.0
C1285 C 0.60336 0.63846 0.77005 0.0
C1286 C 0.60868 0.6851 0.79682 0.0
C1287 C 0.60114 0.68276 0.81475 0.0
C1288 C 0.60827 0.67392 0.82836 0.0
C1289 C 0.62379 0.66822 0.82376 0.0
C1290 C 0.63117 0.67035 0.80564 0.0
H1291 H 0.59628 0.6254 0.75969 0.0
H1292 H 0.61241 0.63458 0.78022 0.0
H1293 H 0.59011 0.63895 0.77746 0.0
H1294 H 0.60245 0.69138 0.7865 0.0
H1295 H 0.58931 0.68744 0.81786 0.0
H1296 H 0.3747 0.1051 0.11617 0.0
H1297 H 0.36548 0.13366 0.11354 0.0
H1298 H 0.43257 0.18154 0.11748 0.0
H1299 H 0.44191 0.15342 0.12025 0.0
H1300 H 0.378 0.16835 0.14137 0.0
H1301 H 0.40901 0.19898 0.07172 0.0
H1302 H 0.40168 0.17215 0.0791 0.0
H1303 H 0.42707 0.19467 0.08576 0.0
C1304 C 0.38748 0.12172 0.11625 0.0
C1305 C 0.40903 0.12699 0.11849 0.0
C1306 C 0.38218 0.13797 0.11478 0.0
C1307 C 0.39838 0.15965 0.11513 0.0
C1308 C 0.41988 0.16489 0.11694 0.0
H1309 H 0.42267 0.28091 0.14725 0.0
H1310 H 0.41538 0.2441 0.14392 0.0
C1311 C 0.42515 0.14877 0.11864 0.0
C1312 C 0.39316 0.17711 0.11488 0.0
H1313 H 0.40499 0.22311 0.09196 0.0
C1314 C 0.38343 0.18009 0.1304 0.0
C1315 C 0.40012 0.19227 0.10049 0.0
C1316 C 0.40988 0.18932 0.08323 0.0
C1317 C 0.38186 0.19868 0.13245 0.0
C1318 C 0.39034 0.21463 0.11867 0.0
C1319 C 0.39865 0.21091 0.10257 0.0
C1320 C 0.39293 0.2362 0.12153 0.0
C1321 C 0.37183 0.20147 0.14961 0.0
C1322 C 0.38278 0.24399 0.10996 0.0
C1323 C 0.38686 0.2651 0.11185 0.0
C1324 C 0.40147 0.27885 0.12515 0.0
C1325 C 0.41136 0.2708 0.13685 0.0
C1326 C 0.4071 0.2497 0.13507 0.0
H1327 H 0.36079 0.18576 0.15613 0.0
H1328 H 0.3847 0.21128 0.1596 0.0
H1329 H 0.36279 0.20993 0.14662 0.0
H1330 H 0.37195 0.23384 0.09931 0.0
H1331 H 0.37908 0.27082 0.10255 0.0
H1332 H 0.10432 0.37285 0.59659 0.0
H1333 H 0.13204 0.36292 0.59126 0.0
H1334 H 0.17348 0.41082 0.63029 0.0
H1335 H 0.14629 0.42097 0.63557 0.0
H1336 H 0.17798 0.39442 0.58004 0.0
H1337 H 0.17063 0.35247 0.64567 0.0
H1338 H 0.14891 0.35516 0.63601 0.0
H1339 H 0.17037 0.37722 0.64815 0.0
C1340 C 0.11931 0.38117 0.60409 0.0
C1341 C 0.12309 0.39773 0.61649 0.0
C1342 C 0.13508 0.37547 0.60103 0.0
C1343 C 0.15462 0.38596 0.61058 0.0
C1344 C 0.15835 0.40235 0.62298 0.0
H1345 H 0.28278 0.43329 0.60989 0.0
H1346 H 0.24527 0.42214 0.60442 0.0
C1347 C 0.14282 0.40822 0.62588 0.0
C1348 C 0.17191 0.38093 0.6072 0.0
H1349 H 0.20497 0.36788 0.63043 0.0
C1350 C 0.18357 0.38801 0.59081 0.0
C1351 C 0.17899 0.37233 0.62118 0.0
C1352 C 0.16647 0.36366 0.6387 0.0
C1353 C 0.20327 0.38858 0.58876 0.0
C1354 C 0.21143 0.38204 0.60351 0.0
C1355 C 0.19874 0.373 0.61917 0.0
C1356 C 0.23435 0.38811 0.60441 0.0
C1357 C 0.21582 0.39737 0.57127 0.0
C1358 C 0.24069 0.37261 0.60626 0.0
C1359 C 0.26235 0.37898 0.60929 0.0
C1360 C 0.27778 0.4009 0.61097 0.0
C1361 C 0.27132 0.41627 0.60874 0.0
C1362 C 0.24988 0.40994 0.60545 0.0
H1363 H 0.205 0.39508 0.55955 0.0
H1364 H 0.22702 0.41488 0.57288 0.0
H1365 H 0.22541 0.38956 0.56803 0.0
H1366 H 0.22884 0.35566 0.60573 0.0
H1367 H 0.26686 0.36679 0.61104 0.0
H1368 H 0.89605 0.27102 0.10872 0.0
H1369 H 0.86645 0.2343 0.10324 0.0
H1370 H 0.82065 0.25547 0.11223 0.0
H1371 H 0.84979 0.29191 0.11758 0.0
H1372 H 0.83324 0.20897 0.12853 0.0
H1373 H 0.79962 0.22102 0.06445 0.0
H1374 H 0.82651 0.23973 0.07224 0.0
H1375 H 0.8038 0.24075 0.08148 0.0
C1376 C 0.87967 0.26789 0.10929 0.0
C1377 C 0.87532 0.28443 0.11363 0.0
C1378 C 0.86281 0.24692 0.10618 0.0
C1379 C 0.84139 0.24227 0.10705 0.0
C1380 C 0.83706 0.2588 0.11111 0.0
H1381 H 0.71341 0.15122 0.1222 0.0
H1382 H 0.74938 0.18121 0.11667 0.0
C1383 C 0.8538 0.27962 0.11433 0.0
C1384 C 0.82326 0.22 0.10511 0.0
H1385 H 0.77512 0.19093 0.08329 0.0
C1386 C 0.82076 0.20475 0.11835 0.0
C1387 C 0.80708 0.21456 0.09176 0.0
C1388 C 0.80947 0.22982 0.07656 0.0
C1389 C 0.80168 0.18482 0.1195 0.0
C1390 C 0.78488 0.18005 0.10695 0.0
C1391 C 0.788 0.19471 0.09296 0.0
C1392 C 0.76308 0.16137 0.10956 0.0
C1393 C 0.799 0.16962 0.13485 0.0
C1394 C 0.75881 0.14021 0.10721 0.0
C1395 C 0.73812 0.12287 0.11037 0.0
C1396 C 0.72142 0.12646 0.116 0.0
C1397 C 0.72583 0.14776 0.11804 0.0
C1398 C 0.7464 0.16498 0.11481 0.0
H1399 H 0.81275 0.1767 0.14456 0.0
H1400 H 0.784 0.16505 0.14258 0.0
H1401 H 0.79762 0.15472 0.12904 0.0
H1402 H 0.77147 0.13714 0.10299 0.0
H1403 H 0.73528 0.10669 0.10861 0.0
H1404 H 0.57385 0.72658 0.6126 0.0
H1405 H 0.58614 0.76369 0.60438 0.0
H1406 H 0.65179 0.77732 0.60411 0.0
H1407 H 0.63945 0.73961 0.61222 0.0
H1408 H 0.64221 0.80536 0.62669 0.0
H1409 H 0.6116 0.79784 0.55611 0.0
H1410 H 0.59218 0.7774 0.5709 0.0
H1411 H 0.61718 0.7782 0.56629 0.0
C1412 C 0.5909 0.73731 0.61058 0.0
C1413 C 0.60569 0.73016 0.61313 0.0
C1414 C 0.59789 0.75851 0.60571 0.0
C1415 C 0.61983 0.77315 0.60336 0.0
C1416 C 0.63475 0.76614 0.60564 0.0
H1417 H 0.63771 0.90456 0.60903 0.0
H1418 H 0.65077 0.87959 0.60165 0.0
C1419 C 0.62769 0.74466 0.61026 0.0
C1420 C 0.62661 0.79604 0.60041 0.0
H1421 H 0.6118 0.82619 0.57485 0.0
C1422 C 0.63644 0.81038 0.61502 0.0
C1423 C 0.61919 0.80254 0.58513 0.0
C1424 C 0.60964 0.78823 0.56863 0.0
C1425 C 0.63657 0.82998 0.61573 0.0
C1426 C 0.62676 0.83525 0.60141 0.0
C1427 C 0.61921 0.82204 0.58586 0.0
C1428 C 0.61955 0.85102 0.6043 0.0
C1429 C 0.64508 0.84384 0.63261 0.0
C1430 C 0.59774 0.84317 0.60791 0.0
C1431 C 0.59033 0.85719 0.6122 0.0
C1432 C 0.60455 0.87949 0.61287 0.0
C1433 C 0.62637 0.88747 0.60864 0.0
C1434 C 0.63386 0.87328 0.60447 0.0
H1435 H 0.65253 0.83765 0.64241 0.0
H1436 H 0.65727 0.86045 0.62863 0.0
H1437 H 0.6318 0.84462 0.63966 0.0
H1438 H 0.58647 0.82604 0.60787 0.0
H1439 H 0.57339 0.85045 0.61518 0.0
H1440 H 0.73299 0.63205 0.10915 0.0
H1441 H 0.76985 0.63995 0.10298 0.0
H1442 H 0.74801 0.57209 0.10259 0.0
H1443 H 0.71147 0.56408 0.1085 0.0
H1444 H 0.79317 0.62856 0.12602 0.0
H1445 H 0.78667 0.59273 0.05783 0.0
H1446 H 0.7669 0.5991 0.06636 0.0
H1447 H 0.76562 0.57424 0.07265 0.0
C1448 C 0.73601 0.61883 0.10736 0.0
C1449 C 0.7193 0.59744 0.10941 0.0
C1450 C 0.75706 0.62337 0.10387 0.0
C1451 C 0.76161 0.6066 0.10204 0.0
C1452 C 0.74482 0.58528 0.1035 0.0
H1453 H 0.84609 0.56353 0.11945 0.0
H1454 H 0.81837 0.57223 0.11171 0.0
C1455 C 0.72392 0.58074 0.10709 0.0
C1456 C 0.78401 0.61093 0.10064 0.0
H1457 H 0.81416 0.59361 0.0781 0.0
C1458 C 0.7981 0.62155 0.11525 0.0
C1459 C 0.79045 0.60186 0.08653 0.0
C1460 C 0.77666 0.59155 0.06987 0.0
C1461 C 0.81757 0.62156 0.11698 0.0
C1462 C 0.82306 0.61082 0.10369 0.0
C1463 C 0.80981 0.60171 0.08834 0.0
C1464 C 0.84052 0.60598 0.10695 0.0
C1465 C 0.83134 0.63155 0.13373 0.0
C1466 C 0.86224 0.62207 0.10654 0.0
C1467 C 0.87827 0.61714 0.11095 0.0
C1468 C 0.87275 0.59607 0.11596 0.0
C1469 C 0.85096 0.57997 0.11585 0.0
C1470 C 0.83506 0.58487 0.11133 0.0
H1471 H 0.82406 0.63806 0.14339 0.0
H1472 H 0.83389 0.61946 0.14105 0.0
H1473 H 0.84732 0.64485 0.12948 0.0
H1474 H 0.86673 0.63844 0.10306 0.0
H1475 H 0.8949 0.6299 0.11087 0.0
H1476 H 0.2818 0.84909 0.61663 0.0
H1477 H 0.24519 0.82133 0.6099 0.0
H1478 H 0.22582 0.86912 0.6063 0.0
H1479 H 0.26292 0.89744 0.61304 0.0
H1480 H 0.20012 0.8327 0.63016 0.0
H1481 H 0.21042 0.80649 0.56162 0.0
H1482 H 0.23104 0.80957 0.57728 0.0
H1483 H 0.22898 0.83268 0.57091 0.0
C1484 C 0.26989 0.85386 0.61427 0.0
C1485 C 0.27531 0.87552 0.61544 0.0
C1486 C 0.24897 0.83793 0.61024 0.0
C1487 C 0.23289 0.84321 0.60731 0.0
C1488 C 0.23811 0.8648 0.60831 0.0
H1489 H 0.10091 0.73037 0.61237 0.0
H1490 H 0.12775 0.76789 0.60543 0.0
C1491 C 0.25927 0.88091 0.61215 0.0
C1492 C 0.21049 0.82559 0.60478 0.0
H1493 H 0.18196 0.77916 0.58052 0.0
C1494 C 0.19574 0.82129 0.619 0.0
C1495 C 0.20486 0.81084 0.59016 0.0
C1496 C 0.2196 0.81523 0.57403 0.0
C1497 C 0.17641 0.80156 0.61992 0.0
C1498 C 0.17178 0.78598 0.60617 0.0
C1499 C 0.18562 0.79111 0.5911 0.0
C1500 C 0.15506 0.76325 0.60887 0.0
C1501 C 0.16199 0.79675 0.63636 0.0
C1502 C 0.16156 0.74824 0.61268 0.0
C1503 C 0.14643 0.72699 0.61668 0.0
C1504 C 0.12436 0.72019 0.61685 0.0
C1505 C 0.11778 0.7351 0.61239 0.0
C1506 C 0.13306 0.75653 0.60849 0.0
H1507 H 0.16852 0.81021 0.64635 0.0
H1508 H 0.14593 0.79359 0.63183 0.0
H1509 H 0.15978 0.78208 0.64341 0.0
H1510 H 0.17847 0.75313 0.61303 0.0
H1511 H 0.15211 0.71596 0.61985 0.0
H1512 H 0.8972 0.63251 0.39558 0.0
H1513 H 0.8706 0.64357 0.40267 0.0
H1514 H 0.82056 0.57706 0.40382 0.0
H1515 H 0.84662 0.56601 0.39673 0.0
H1516 H 0.83398 0.6328 0.3799 0.0
H1517 H 0.80862 0.60206 0.45011 0.0
H1518 H 0.83413 0.60754 0.44065 0.0
H1519 H 0.81003 0.58251 0.43579 0.0
C1520 C 0.88058 0.6203 0.39769 0.0
C1521 C 0.87399 0.5984 0.39552 0.0
C1522 C 0.86544 0.62663 0.40172 0.0
C1523 C 0.84369 0.6111 0.40406 0.0
C1524 C 0.83732 0.58929 0.40247 0.0
H1525 H 0.71785 0.5664 0.39065 0.0
H1526 H 0.755 0.57746 0.39785 0.0
C1527 C 0.85225 0.58301 0.39823 0.0
C1528 C 0.82687 0.6171 0.40616 0.0
H1529 H 0.781 0.60204 0.43049 0.0
C1530 C 0.82276 0.62686 0.39126 0.0
C1531 C 0.81235 0.60943 0.42105 0.0
C1532 C 0.81663 0.6 0.43789 0.0
C1533 C 0.8033 0.62695 0.38995 0.0
C1534 C 0.7878 0.61718 0.40397 0.0
C1535 C 0.79287 0.60939 0.4197 0.0
C1536 C 0.76511 0.61113 0.40096 0.0
C1537 C 0.79855 0.63562 0.37285 0.0
C1538 C 0.75843 0.62643 0.40057 0.0
C1539 C 0.73701 0.62014 0.39645 0.0
C1540 C 0.72209 0.59848 0.39254 0.0
C1541 C 0.72889 0.58324 0.3934 0.0
C1542 C 0.75012 0.5895 0.39761 0.0
H1543 H 0.81214 0.64219 0.36298 0.0
H1544 H 0.78404 0.6227 0.36598 0.0
H1545 H 0.79514 0.64859 0.37656 0.0
H1546 H 0.76981 0.6432 0.40321 0.0
H1547 H 0.73228 0.63226 0.39593 0.0
H1548 H 0.14934 0.71524 0.89634 0.0
H1549 H 0.17645 0.75252 0.90177 0.0
H1550 H 0.1277 0.77074 0.90022 0.0
H1551 H 0.10013 0.73306 0.8948 0.0
H1552 H 0.16281 0.79405 0.87604 0.0
H1553 H 0.19186 0.79318 0.94595 0.0
H1554 H 0.18964 0.77138 0.9323 0.0
H1555 H 0.16585 0.77265 0.93775 0.0
C1556 C 0.14424 0.72706 0.89742 0.0
C1557 C 0.12257 0.72119 0.89504 0.0
C1558 C 0.15978 0.74837 0.90072 0.0
C1559 C 0.15406 0.76435 0.90168 0.0
C1560 C 0.13237 0.75857 0.89975 0.0
H1561 H 0.26964 0.89434 0.90794 0.0
H1562 H 0.2322 0.86661 0.91426 0.0
C1563 C 0.11668 0.73707 0.89666 0.0
C1564 C 0.17129 0.78715 0.90248 0.0
H1565 H 0.21795 0.82018 0.92515 0.0
C1566 C 0.17453 0.80007 0.88705 0.0
C1567 C 0.18648 0.79508 0.9169 0.0
C1568 C 0.18317 0.78241 0.93425 0.0
C1569 C 0.19358 0.8198 0.88489 0.0
C1570 C 0.2097 0.82666 0.89847 0.0
C1571 C 0.2056 0.81477 0.91468 0.0
C1572 C 0.23194 0.8439 0.89468 0.0
C1573 C 0.19693 0.83256 0.86758 0.0
C1574 C 0.24411 0.84008 0.88182 0.0
C1575 C 0.26537 0.85561 0.87836 0.0
C1576 C 0.27496 0.87543 0.88763 0.0
C1577 C 0.2627 0.87929 0.90052 0.0
C1578 C 0.24136 0.86351 0.90415 0.0
H1579 H 0.18139 0.82849 0.86103 0.0
H1580 H 0.20607 0.85008 0.87043 0.0
H1581 H 0.20633 0.8288 0.8577 0.0
H1582 H 0.23717 0.82491 0.87456 0.0
H1583 H 0.27423 0.85206 0.86829 0.0
H1584 H 0.36891 0.10057 0.40351 0.0
H1585 H 0.35793 0.12763 0.40807 0.0
H1586 H 0.40544 0.16909 0.3688 0.0
H1587 H 0.41664 0.14257 0.36429 0.0
H1588 H 0.38899 0.17448 0.41847 0.0
H1589 H 0.3458 0.16363 0.35289 0.0
H1590 H 0.34908 0.14259 0.36329 0.0
H1591 H 0.37078 0.16378 0.35062 0.0
C1592 C 0.37694 0.11542 0.3958 0.0
C1593 C 0.39369 0.11942 0.38355 0.0
C1594 C 0.37063 0.13081 0.39842 0.0
C1595 C 0.3807 0.15015 0.38857 0.0
C1596 C 0.39729 0.1541 0.37633 0.0
H1597 H 0.42653 0.27712 0.38451 0.0
H1598 H 0.41547 0.2399 0.39122 0.0
C1599 C 0.40377 0.13896 0.37388 0.0
C1600 C 0.37505 0.16708 0.39147 0.0
H1601 H 0.36084 0.19853 0.3671 0.0
C1602 C 0.38218 0.17941 0.40751 0.0
C1603 C 0.36596 0.1733 0.37724 0.0
C1604 C 0.35726 0.16003 0.36008 0.0
C1605 C 0.38241 0.199 0.40891 0.0
C1606 C 0.37544 0.20633 0.39386 0.0
C1607 C 0.36627 0.19292 0.3786 0.0
C1608 C 0.38149 0.22917 0.39209 0.0
C1609 C 0.39142 0.2124 0.42597 0.0
C1610 C 0.36598 0.2355 0.3903 0.0
C1611 C 0.37231 0.25702 0.38658 0.0
C1612 C 0.39418 0.27227 0.38413 0.0
C1613 C 0.40956 0.2658 0.38624 0.0
C1614 C 0.40328 0.24454 0.39024 0.0
H1615 H 0.3896 0.2022 0.43804 0.0
H1616 H 0.40883 0.22377 0.42397 0.0
H1617 H 0.3834 0.22186 0.42887 0.0
H1618 H 0.34905 0.22375 0.39146 0.0
H1619 H 0.36011 0.26154 0.38495 0.0
H1620 H 0.27925 0.4216 0.8654 0.0
H1621 H 0.24157 0.41025 0.87027 0.0
H1622 H 0.23496 0.35974 0.90626 0.0
H1623 H 0.27303 0.37099 0.90144 0.0
H1624 H 0.20313 0.3652 0.86496 0.0
H1625 H 0.21555 0.39936 0.93548 0.0
H1626 H 0.23762 0.40904 0.91948 0.0
H1627 H 0.22666 0.38266 0.92907 0.0
C1628 C 0.26989 0.40802 0.87433 0.0
C1629 C 0.27926 0.39728 0.8831 0.0
C1630 C 0.2483 0.40151 0.87702 0.0
C1631 C 0.23556 0.38422 0.88862 0.0
C1632 C 0.24461 0.37317 0.89727 0.0
H1633 H 0.10275 0.36338 0.88862 0.0
H1634 H 0.12963 0.35216 0.89366 0.0
C1635 C 0.26632 0.37961 0.89447 0.0
C1636 C 0.21308 0.37872 0.89189 0.0
H1637 H 0.18365 0.39174 0.92032 0.0
C1638 C 0.19848 0.37028 0.87729 0.0
C1639 C 0.20724 0.38547 0.90799 0.0
C1640 C 0.22249 0.39467 0.92398 0.0
C1641 C 0.17881 0.36998 0.87781 0.0
C1642 C 0.17373 0.37835 0.89333 0.0
C1643 C 0.18758 0.38521 0.90851 0.0
C1644 C 0.15689 0.38443 0.89239 0.0
C1645 C 0.16446 0.36254 0.86114 0.0
C1646 C 0.16336 0.40622 0.89043 0.0
C1647 C 0.14825 0.4126 0.88744 0.0
C1648 C 0.12622 0.39733 0.88648 0.0
C1649 C 0.1196 0.3755 0.88927 0.0
C1650 C 0.13489 0.36907 0.8921 0.0
H1651 H 0.17106 0.35703 0.84998 0.0
H1652 H 0.14837 0.34909 0.86496 0.0
H1653 H 0.16229 0.37582 0.85586 0.0
H1654 H 0.18026 0.4183 0.89058 0.0
H1655 H 0.15393 0.42955 0.88556 0.0
H1656 H 0.73029 0.10116 0.39116 0.0
H1657 H 0.7678 0.1282 0.39796 0.0
H1658 H 0.75144 0.17821 0.39458 0.0
H1659 H 0.71432 0.15164 0.38783 0.0
H1660 H 0.79443 0.16323 0.37413 0.0
H1661 H 0.78691 0.19264 0.44208 0.0
H1662 H 0.76696 0.16679 0.43314 0.0
H1663 H 0.76682 0.19083 0.42642 0.0
C1664 C 0.73466 0.1179 0.39217 0.0
C1665 C 0.71933 0.12426 0.38889 0.0
C1666 C 0.75606 0.13328 0.39603 0.0
C1667 C 0.76229 0.15514 0.39704 0.0
C1668 C 0.74689 0.16139 0.39423 0.0
H1669 H 0.84848 0.28037 0.3821 0.0
H1670 H 0.82073 0.24376 0.38881 0.0
C1671 C 0.72568 0.14616 0.39021 0.0
C1672 C 0.78509 0.17197 0.39927 0.0
H1673 H 0.8161 0.21847 0.42277 0.0
C1674 C 0.79952 0.17497 0.38509 0.0
C1675 C 0.79169 0.18716 0.41364 0.0
C1676 C 0.77733 0.18408 0.42978 0.0
C1677 C 0.81957 0.19391 0.38392 0.0
C1678 C 0.82524 0.21002 0.39737 0.0
C1679 C 0.81164 0.20611 0.41243 0.0
C1680 C 0.84283 0.23227 0.39423 0.0
C1681 C 0.83374 0.19744 0.36753 0.0
C1682 C 0.86456 0.23799 0.39521 0.0
C1683 C 0.88068 0.25914 0.39137 0.0
C1684 C 0.87522 0.27474 0.38637 0.0
C1685 C 0.85337 0.26883 0.38571 0.0
C1686 C 0.83742 0.24789 0.38964 0.0
H1687 H 0.82672 0.1835 0.35802 0.0
H1688 H 0.83639 0.21195 0.35991 0.0
H1689 H 0.84966 0.20029 0.37218 0.0
H1690 H 0.86901 0.22612 0.39883 0.0
H1691 H 0.89734 0.26317 0.39204 0.0
H1692 H 0.55731 0.71088 0.88186 0.0
H1693 H 0.56343 0.74702 0.88679 0.0
H1694 H 0.62956 0.76914 0.90068 0.0
H1695 H 0.62369 0.73283 0.89564 0.0
H1696 H 0.57929 0.77365 0.91939 0.0
H1697 H 0.63193 0.8094 0.85824 0.0
H1698 H 0.61484 0.78073 0.86086 0.0
H1699 H 0.63876 0.79484 0.87439 0.0
C1700 C 0.5732 0.72335 0.88596 0.0
C1701 C 0.59006 0.71893 0.88819 0.0
C1702 C 0.57663 0.744 0.88885 0.0
C1703 C 0.59697 0.76075 0.89392 0.0
C1704 C 0.61379 0.75644 0.89655 0.0
H1705 H 0.62301 0.89467 0.89277 0.0
H1706 H 0.62917 0.86452 0.89867 0.0
C1707 C 0.61037 0.73567 0.89374 0.0
C1708 C 0.60028 0.78269 0.89598 0.0
H1709 H 0.62087 0.83079 0.87375 0.0
C1710 C 0.58869 0.7863 0.90962 0.0
C1711 C 0.61269 0.79919 0.8833 0.0
C1712 C 0.62523 0.79598 0.86827 0.0
C1713 C 0.58834 0.80562 0.91036 0.0
C1714 C 0.59954 0.82154 0.89692 0.0
C1715 C 0.61226 0.81851 0.884 0.0
C1716 C 0.596 0.84 0.89455 0.0
C1717 C 0.57544 0.80856 0.92521 0.0
C1718 C 0.57538 0.83614 0.89014 0.0
C1719 C 0.57183 0.85318 0.88668 0.0
C1720 C 0.58886 0.87455 0.88748 0.0
C1721 C 0.60953 0.87843 0.8921 0.0
C1722 C 0.61309 0.86125 0.89546 0.0
H1723 H 0.57391 0.79875 0.93749 0.0
H1724 H 0.58286 0.82567 0.92936 0.0
H1725 H 0.55901 0.80322 0.92002 0.0
H1726 H 0.56205 0.81985 0.88899 0.0
H1727 H 0.55569 0.84952 0.88322 0.0
H1728 H 0.32873 0.98515 0.92258 0.0
H1729 H 0.33388 0.00279 0.9525 0.0
H1730 H 0.34174 0.95295 0.97781 0.0
H1731 H 0.33703 0.93553 0.94812 0.0
H1732 H 0.31374 0.98913 0.98807 0.0
H1733 H 0.39882 0.00855 0.98804 0.0
H1734 H 0.38218 0.99937 0.96782 0.0
H1735 H 0.37986 0.98049 0.9851 0.0
C1736 C 0.33127 0.97782 0.93458 0.0
C1737 C 0.33279 0.95913 0.93296 0.0
C1738 C 0.33418 0.98789 0.95165 0.0
C1739 C 0.33858 0.97937 0.96729 0.0
C1740 C 0.33877 0.96001 0.96585 0.0
H1741 H 0.35015 0.01566 0.08254 0.0
H1742 H 0.33604 0.99863 0.0527 0.0
C1743 C 0.33603 0.95006 0.94886 0.0
C1744 C 0.34457 0.99137 0.98486 0.0
H1745 H 0.38573 0.01518 0.01557 0.0
C1746 C 0.3295 0.99494 0.99409 0.0
C1747 C 0.36525 0.99919 0.99253 0.0
C1748 C 0.38255 0.99692 0.98281 0.0
C1749 C 0.33445 0.00578 0.01103 0.0
C1750 C 0.3549 0.01294 0.01898 0.0
C1751 C 0.37001 0.0096 0.00955 0.0
C1752 C 0.36142 0.02427 0.0369 0.0
C1753 C 0.31791 0.00977 0.0201 0.0
C1754 C 0.38029 0.04433 0.03798 0.0
C1755 C 0.38851 0.05385 0.05494 0.0
C1756 C 0.37799 0.04358 0.07125 0.0
C1757 C 0.35852 0.024 0.07019 0.0
C1758 C 0.35038 0.01432 0.05314 0.0
H1759 H 0.30571 0.00868 0.01013 0.0
H1760 H 0.30944 0.99743 0.03083 0.0
H1761 H 0.32558 0.02582 0.02672 0.0
H1762 H 0.38908 0.05234 0.02566 0.0
H1763 H 0.40348 0.06902 0.05529 0.0
H1764 H 0.40231 0.33473 0.44276 0.0
H1765 H 0.39079 0.33897 0.47314 0.0
H1766 H 0.33577 0.33884 0.44937 0.0
H1767 H 0.34697 0.33403 0.41882 0.0
H1768 H 0.38812 0.37301 0.48389 0.0
H1769 H 0.30879 0.29953 0.49313 0.0
H1770 H 0.32743 0.30191 0.47544 0.0
H1771 H 0.31084 0.31387 0.47238 0.0
C1772 C 0.38756 0.33527 0.44399 0.0
C1773 C 0.37558 0.33412 0.42837 0.0
C1774 C 0.38099 0.33767 0.46139 0.0
C1775 C 0.36232 0.33906 0.4636 0.0
C1776 C 0.34998 0.33735 0.44808 0.0
H1777 H 0.3423 0.40579 0.55267 0.0
H1778 H 0.34649 0.39239 0.52316 0.0
C1779 C 0.35647 0.33474 0.43061 0.0
C1780 C 0.35712 0.34433 0.48191 0.0
H1781 H 0.31804 0.32787 0.51471 0.0
C1782 C 0.37283 0.36303 0.49065 0.0
C1783 C 0.33725 0.33123 0.49083 0.0
C1784 C 0.32017 0.3104 0.48257 0.0
C1785 C 0.36915 0.3692 0.50788 0.0
C1786 C 0.349 0.35659 0.51649 0.0
C1787 C 0.33339 0.33762 0.50798 0.0
C1788 C 0.34395 0.36326 0.53416 0.0
C1789 C 0.38701 0.3891 0.51679 0.0
C1790 C 0.34017 0.35086 0.55006 0.0
C1791 C 0.33759 0.35843 0.56705 0.0
C1792 C 0.33877 0.37852 0.56832 0.0
C1793 C 0.34157 0.39037 0.55221 0.0
C1794 C 0.34401 0.38277 0.53531 0.0
H1795 H 0.40295 0.3935 0.51092 0.0
H1796 H 0.38421 0.40277 0.51448 0.0
H1797 H 0.38748 0.38684 0.5318 0.0
H1798 H 0.33996 0.3357 0.54943 0.0
H1799 H 0.33539 0.34891 0.57921 0.0
H1800 H 0.01657 0.34652 0.9198 0.0
H1801 H 0.99879 0.33394 0.94963 0.0
H1802 H 0.05065 0.38956 0.97571 0.0
H1803 H 0.06825 0.40237 0.94609 0.0
H1804 H 0.01168 0.32524 0.98445 0.0
H1805 H 0.99711 0.39407 0.98746 0.0
H1806 H 0.00549 0.38664 0.96675 0.0
H1807 H 0.02482 0.4018 0.98426 0.0
C1808 C 0.02428 0.35591 0.93193 0.0
C1809 C 0.04365 0.37558 0.93056 0.0
C1810 C 0.01413 0.3487 0.94895 0.0
C1811 C 0.02323 0.36103 0.96481 0.0
C1812 C 0.04316 0.38001 0.96359 0.0
H1813 H 0.98674 0.3331 0.0798 0.0
H1814 H 0.00342 0.33639 0.04973 0.0
C1815 C 0.05321 0.38729 0.94663 0.0
C1816 C 0.01135 0.35496 0.98243 0.0
H1817 H 0.98951 0.37309 0.01435 0.0
C1818 C 0.00671 0.33561 0.99099 0.0
C1819 C 0.00464 0.36838 0.99079 0.0
C1820 C 0.00806 0.38878 0.98179 0.0
C1821 C 0.99588 0.32955 0.00792 0.0
C1822 C 0.98984 0.34337 0.01656 0.0
C1823 C 0.99424 0.36254 0.0078 0.0
C1824 C 0.9786 0.33839 0.03451 0.0
C1825 C 0.99071 0.30829 0.01625 0.0
C1826 C 0.9591 0.33833 0.03599 0.0
C1827 C 0.94979 0.33681 0.0531 0.0
C1828 C 0.9597 0.33519 0.06914 0.0
C1829 C 0.97868 0.33418 0.06765 0.0
C1830 C 0.98816 0.33595 0.05046 0.0
H1831 H 0.99104 0.29719 0.00582 0.0
H1832 H 0.00289 0.31104 0.02686 0.0
H1833 H 0.97466 0.3004 0.02288 0.0
H1834 H 0.95141 0.34017 0.0239 0.0
H1835 H 0.93509 0.3375 0.05378 0.0
H1836 H 0.66379 0.01498 0.42076 0.0
H1837 H 0.6592 0.99808 0.45096 0.0
H1838 H 0.65127 0.04826 0.47549 0.0
H1839 H 0.65543 0.06493 0.44552 0.0
H1840 H 0.68043 0.01302 0.48565 0.0
H1841 H 0.59521 0.99295 0.4881 0.0
H1842 H 0.61095 0.00157 0.46735 0.0
H1843 H 0.6138 0.02096 0.48433 0.0
C1844 C 0.66127 0.02249 0.43263 0.0
C1845 C 0.65967 0.04111 0.43072 0.0
C1846 C 0.65869 0.01285 0.44986 0.0
C1847 C 0.6545 0.02172 0.46539 0.0
C1848 C 0.65405 0.04092 0.46363 0.0
H1849 H 0.64933 0.98918 0.5813 0.0
H1850 H 0.66115 0.00591 0.55103 0.0
C1851 C 0.65648 0.05044 0.44647 0.0
C1852 C 0.64935 0.01041 0.48328 0.0
H1853 H 0.60973 0.98769 0.51545 0.0
C1854 C 0.66495 0.00736 0.49217 0.0
C1855 C 0.62905 0.00281 0.49162 0.0
C1856 C 0.6112 0.00452 0.48231 0.0
C1857 C 0.66089 0.99725 0.5094 0.0
C1858 C 0.64082 0.99033 0.51801 0.0
C1859 C 0.62517 0.99313 0.50893 0.0
C1860 C 0.63523 0.9796 0.5362 0.0
C1861 C 0.67794 0.99374 0.51807 0.0
C1862 C 0.61671 0.95936 0.53798 0.0
C1863 C 0.60979 0.94999 0.5552 0.0
C1864 C 0.62127 0.96061 0.57108 0.0
C1865 C 0.64022 0.98058 0.5693 0.0
C1866 C 0.64706 0.99008 0.55199 0.0
H1867 H 0.68975 0.99461 0.50779 0.0
H1868 H 0.68679 0.00644 0.52845 0.0
H1869 H 0.67069 0.97791 0.52505 0.0
H1870 H 0.60731 0.95097 0.52602 0.0
H1871 H 0.59519 0.93454 0.55608 0.0
H1872 H 0.68444 0.66485 0.08278 0.0
H1873 H 0.68485 0.68191 0.05344 0.0
H1874 H 0.64817 0.61936 0.02852 0.0
H1875 H 0.64827 0.60243 0.05728 0.0
H1876 H 0.68024 0.64656 0.0065 0.0
H1877 H 0.63469 0.68522 0.03199 0.0
H1878 H 0.65961 0.69267 0.0434 0.0
H1879 H 0.63751 0.66566 0.04535 0.0
C1880 C 0.67654 0.65481 0.07099 0.0
C1881 C 0.66626 0.6323 0.07238 0.0
C1882 C 0.67669 0.66456 0.05427 0.0
C1883 C 0.66631 0.65191 0.0388 0.0
C1884 C 0.65634 0.62949 0.04021 0.0
H1885 H 0.59769 0.65537 0.94875 0.0
H1886 H 0.61398 0.65589 0.97805 0.0
C1887 C 0.65636 0.61981 0.05674 0.0
C1888 C 0.66508 0.66144 0.02107 0.0
H1889 H 0.64139 0.68702 1.00049 0.0
C1890 C 0.67205 0.65571 0.00516 0.0
C1891 C 0.65437 0.67338 0.01938 0.0
C1892 C 0.64595 0.67952 0.03588 0.0
C1893 C 0.6673 0.66022 0.98761 0.0
C1894 C 0.65584 0.67142 0.9859 0.0
C1895 C 0.65019 0.67846 1.00182 0.0
C1896 C 0.64672 0.67309 0.96808 0.0
C1897 C 0.67324 0.65156 0.97114 0.0
C1898 C 0.6597 0.68296 0.95266 0.0
C1899 C 0.65032 0.68242 0.93564 0.0
C1900 C 0.62785 0.67228 0.9339 0.0
C1901 C 0.61504 0.66327 0.94956 0.0
C1902 C 0.62436 0.66362 0.9664 0.0
H1903 H 0.67831 0.63982 0.97504 0.0
H1904 H 0.65948 0.6436 0.9615 0.0
H1905 H 0.6868 0.66503 0.9638 0.0
H1906 H 0.67702 0.6908 0.9537 0.0
H1907 H 0.66061 0.68966 0.92386 0.0
H1908 H 0.06624 0.65917 0.55991 0.0
H1909 H 0.04989 0.65541 0.52988 0.0
H1910 H 0.99686 0.65804 0.55488 0.0
H1911 H 0.01355 0.66241 0.58511 0.0
H1912 H 0.01242 0.62226 0.51967 0.0
H1913 H 0.00932 0.69732 0.51112 0.0
H1914 H 0.02554 0.69431 0.52848 0.0
H1915 H 0.99715 0.68317 0.53197 0.0
C1916 C 0.05125 0.65929 0.55903 0.0
C1917 C 0.04113 0.66101 0.5749 0.0
C1918 C 0.04193 0.65716 0.54182 0.0
C1919 C 0.02221 0.65659 0.54005 0.0
C1920 C 0.0123 0.65888 0.55582 0.0
H1921 H 0.93381 0.59206 0.4511 0.0
H1922 H 0.95163 0.60471 0.48064 0.0
C1923 C 0.02178 0.66125 0.57311 0.0
C1924 C 0.01129 0.65156 0.52192 0.0
H1925 H 0.98931 0.66926 0.48956 0.0
C1926 C 0.00749 0.63263 0.51307 0.0
C1927 C 0.00503 0.66517 0.5132 0.0
C1928 C 0.00963 0.68624 0.52158 0.0
C1929 C 0.99741 0.62678 0.49592 0.0
C1930 C 0.9904 0.63994 0.4875 0.0
C1931 C 0.9945 0.65909 0.49614 0.0
C1932 C 0.97856 0.63372 0.46985 0.0
C1933 C 0.9946 0.60665 0.48685 0.0
C1934 C 0.9873 0.64633 0.45406 0.0
C1935 C 0.97701 0.6392 0.43707 0.0
C1936 C 0.95785 0.61935 0.43566 0.0
C1937 C 0.9487 0.6073 0.45166 0.0
C1938 C 0.95888 0.61447 0.46857 0.0
H1939 H 0.00589 0.60178 0.49252 0.0
H1940 H 0.978 0.59329 0.4893 0.0
H1941 H 0.99716 0.60889 0.47183 0.0
H1942 H 0.00244 0.6613 0.45478 0.0
H1943 H 0.98441 0.64888 0.425 0.0
H1944 H 0.59828 0.93693 0.94777 0.0
H1945 H 0.61362 0.95402 0.97712 0.0
H1946 H 0.67079 0.00183 0.94966 0.0
H1947 H 0.65564 0.98451 0.92008 0.0
H1948 H 0.67828 0.98738 0.9848 0.0
H1949 H 0.61616 0.01163 0.98806 0.0
H1950 H 0.60544 0.98329 0.98503 0.0
H1951 H 0.6218 0.00163 0.96736 0.0
C1952 C 0.61425 0.95091 0.94796 0.0
C1953 C 0.62564 0.95956 0.93159 0.0
C1954 C 0.62298 0.96065 0.96475 0.0
C1955 C 0.64315 0.9794 0.96551 0.0
C1956 C 0.65515 0.9874 0.94933 0.0
H1957 H 0.67502 0.06914 0.05464 0.0
H1958 H 0.672 0.05315 0.02453 0.0
C1959 C 0.64647 0.97752 0.93246 0.0
C1960 C 0.65067 0.99152 0.98293 0.0
H1961 H 0.63693 0.01723 0.0148 0.0
C1962 C 0.66937 0.99405 0.99136 0.0
C1963 C 0.63918 0.00047 0.99129 0.0
C1964 C 0.61965 0.99934 0.98241 0.0
C1965 C 0.67658 0.00489 0.00821 0.0
C1966 C 0.66457 0.01312 0.01688 0.0
C1967 C 0.64611 0.01087 0.00821 0.0
C1968 C 0.67057 0.02425 0.03489 0.0
C1969 C 0.69706 0.00768 0.01644 0.0
C1970 C 0.67153 0.01366 0.05077 0.0
C1971 C 0.67357 0.02297 0.06808 0.0
C1972 C 0.67426 0.04279 0.06974 0.0
C1973 C 0.67438 0.05378 0.05379 0.0
C1974 C 0.67266 0.04466 0.03656 0.0
H1975 H 0.70737 0.00611 0.00591 0.0
H1976 H 0.70639 0.02358 0.02321 0.0
H1977 H 0.69303 0.99503 0.02691 0.0
H1978 H 0.66951 0.99772 0.04989 0.0
H1979 H 0.67326 0.01408 0.08017 0.0
H1980 H 0.66333 0.65241 0.42166 0.0
H1981 H 0.65882 0.66545 0.45155 0.0
H1982 H 0.65933 0.61212 0.47817 0.0
H1983 H 0.6633 0.59886 0.44857 0.0
H1984 H 0.62462 0.61506 0.48745 0.0
H1985 H 0.69843 0.69463 0.49526 0.0
H1986 H 0.68404 0.69116 0.47423 0.0
H1987 H 0.69623 0.67503 0.47861 0.0
C1988 C 0.66287 0.64374 0.43395 0.0
C1989 C 0.6635 0.62454 0.43276 0.0
C1990 C 0.6604 0.65124 0.45102 0.0
C1991 C 0.65886 0.63982 0.46714 0.0
C1992 C 0.66045 0.62118 0.46595 0.0
H1993 H 0.65204 0.66861 0.58222 0.0
H1994 H 0.66396 0.66365 0.55197 0.0
C1995 C 0.66269 0.61361 0.44898 0.0
C1996 C 0.65352 0.64581 0.48506 0.0
H1997 H 0.67084 0.68547 0.51739 0.0
C1998 C 0.63477 0.63046 0.49399 0.0
C1999 C 0.66686 0.66582 0.49366 0.0
C2000 C 0.68763 0.68257 0.48506 0.0
C2001 C 0.62894 0.63452 0.51121 0.0
C2002 C 0.64195 0.65471 0.51963 0.0
C2003 C 0.66082 0.67007 0.51082 0.0
C2004 C 0.63597 0.65995 0.53757 0.0
C2005 C 0.60907 0.61694 0.5204 0.0
C2006 C 0.61662 0.66009 0.53939 0.0
C2007 C 0.60973 0.66272 0.55658 0.0
C2008 C 0.62217 0.66551 0.57231 0.0
C2009 C 0.64207 0.66639 0.57036 0.0
C2010 C 0.64891 0.66363 0.5531 0.0
H2011 H 0.60421 0.6009 0.5145 0.0
H2012 H 0.61166 0.61646 0.53535 0.0
H2013 H 0.59558 0.62008 0.51841 0.0
H2014 H 0.60659 0.65767 0.52754 0.0
H2015 H 0.59445 0.66222 0.55755 0.0
H2016 H 0.94557 0.59404 0.06202 0.0
H2017 H 0.96199 0.60869 0.03245 0.0
H2018 H 0.989 0.67303 0.05386 0.0
H2019 H 0.9731 0.65831 0.08394 0.0
H2020 H 0.95743 0.63413 0.00846 0.0
H2021 H 0.04179 0.67455 0.0336 0.0
H2022 H 0.01947 0.65623 0.04766 0.0
H2023 H 0.02488 0.68325 0.04417 0.0
C2024 C 0.95498 0.61133 0.0605 0.0
C2025 C 0.95818 0.62502 0.07539 0.0
C2026 C 0.96433 0.6197 0.04352 0.0
C2027 C 0.97699 0.64196 0.04093 0.0
C2028 C 0.97971 0.65578 0.05562 0.0
H2029 H 0.02027 0.67926 0.92588 0.0
H2030 H 0.00354 0.67823 0.95553 0.0
C2031 C 0.97052 0.64736 0.07277 0.0
C2032 C 0.98757 0.65023 0.02289 0.0
H2033 H 0.03667 0.67613 0.00204 0.0
C2034 C 0.97476 0.64353 0.00704 0.0
C2035 C 0.0102 0.66244 0.02106 0.0
C2036 C 0.02495 0.66942 0.03748 0.0
C2037 C 0.98392 0.64768 0.98944 0.0
C2038 C 0.00656 0.65946 0.98762 0.0
C2039 C 0.01932 0.66716 0.00346 0.0
C2040 C 0.01742 0.66161 0.96976 0.0
C2041 C 0.96929 0.63824 0.97307 0.0
C2042 C 0.03134 0.65331 0.96803 0.0
C2043 C 0.04111 0.65421 0.95131 0.0
C2044 C 0.03714 0.66331 0.93581 0.0
C2045 C 0.02349 0.67199 0.93755 0.0
C2046 C 0.01384 0.6713 0.95445 0.0
H2047 H 0.95273 0.62591 0.97712 0.0
H2048 H 0.96832 0.65121 0.96567 0.0
H2049 H 0.97562 0.63077 0.96346 0.0
H2050 H 0.03435 0.64574 0.9796 0.0
H2051 H 0.05152 0.64736 0.95049 0.0
H2052 H 0.33462 0.93529 0.55646 0.0
H2053 H 0.33772 0.95219 0.52677 0.0
H2054 H 0.33067 0.00216 0.5528 0.0
H2055 H 0.32722 0.98509 0.58276 0.0
H2056 H 0.30833 0.98685 0.51763 0.0
H2057 H 0.3941 0.00865 0.51508 0.0
H2058 H 0.37579 0.98058 0.51888 0.0
H2059 H 0.37842 -0.00013 0.53586 0.0
C2060 C 0.33348 0.94975 0.5559 0.0
C2061 C 0.33096 0.95903 0.57199 0.0
C2062 C 0.33526 0.95938 0.53891 0.0
C2063 C 0.33479 0.9786 0.53765 0.0
C2064 C 0.33115 0.98736 0.55352 0.0
H2065 H 0.39356 0.06554 0.44674 0.0
H2066 H 0.38086 0.05015 0.47706 0.0
C2067 C 0.32922 0.97762 0.57061 0.0
C2068 C 0.33974 0.99022 0.51995 0.0
H2069 H 0.37936 0.01396 0.48791 0.0
C2070 C 0.32388 0.99292 0.51113 0.0
C2071 C 0.36013 0.99836 0.51165 0.0
C2072 C 0.37818 0.99693 0.5209 0.0
C2073 C 0.32777 0.00314 0.49396 0.0
C2074 C 0.34793 0.01056 0.48538 0.0
C2075 C 0.36386 0.00817 0.49443 0.0
C2076 C 0.35328 0.02106 0.4671 0.0
C2077 C 0.31041 0.00614 0.48529 0.0
C2078 C 0.34169 0.01008 0.45137 0.0
C2079 C 0.34884 0.019 0.43393 0.0
C2080 C 0.36788 0.03884 0.43198 0.0
C2081 C 0.37892 0.05014 0.44779 0.0
C2082 C 0.37166 0.04137 0.46514 0.0
H2083 H 0.29853 0.00508 0.49559 0.0
H2084 H 0.31734 0.0219 0.47822 0.0
H2085 H 0.30171 0.99331 0.47497 0.0
H2086 H 0.32771 0.9942 0.4525 0.0
H2087 H 0.3401 0.00988 0.42197 0.0
H2088 H 0.34568 0.32842 0.07762 0.0
H2089 H 0.33346 0.33025 0.04666 0.0
H2090 H 0.38743 0.3276 0.02377 0.0
H2091 H 0.39998 0.32638 0.05457 0.0
H2092 H 0.3857 0.36135 0.01137 0.0
H2093 H 0.30499 0.28933 0.00426 0.0
H2094 H 0.30758 0.30476 0.02442 0.0
H2095 H 0.3235 0.29194 0.02217 0.0
C2096 C 0.35463 0.32771 0.06596 0.0
C2097 C 0.37386 0.32741 0.06853 0.0
C2098 C 0.34756 0.32863 0.04825 0.0
C2099 C 0.35943 0.3289 0.03282 0.0
C2100 C 0.37799 0.32741 0.03542 0.0
H2101 H 0.33426 0.34142 0.91654 0.0
H2102 H 0.33798 0.32638 0.94573 0.0
C2103 C 0.38516 0.32672 0.05306 0.0
C2104 C 0.35422 0.33347 0.01422 0.0
H2105 H 0.31433 0.31748 0.98217 0.0
C2106 C 0.37016 0.35156 0.00494 0.0
C2107 C 0.33399 0.32067 0.00572 0.0
C2108 C 0.3166 0.30047 0.01457 0.0
C2109 C 0.36629 0.35754 0.98771 0.0
C2110 C 0.34579 0.34536 0.97959 0.0
C2111 C 0.32998 0.32688 0.98852 0.0
C2112 C 0.3405 0.3525 0.96229 0.0
C2113 C 0.38418 0.37704 0.97836 0.0
C2114 C 0.33999 0.37174 0.96208 0.0
C2115 C 0.33799 0.38034 0.94557 0.0
C2116 C 0.33631 0.36983 0.92888 0.0
C2117 C 0.33556 0.34989 0.92918 0.0
C2118 C 0.33766 0.34129 0.94581 0.0
H2119 H 0.40017 0.3814 0.98412 0.0
H2120 H 0.38432 0.37426 0.96341 0.0
H2121 H 0.38163 0.39092 0.98034 0.0
H2122 H 0.34191 0.38051 0.97468 0.0
H2123 H 0.33839 0.39561 0.94587 0.0
H2124 H 0.0647 0.39674 0.5542 0.0
H2125 H 0.04782 0.38324 0.52445 0.0
H2126 H 0.99667 0.32695 0.55037 0.0
H2127 H 0.01373 0.34027 0.5804 0.0
H2128 H 0.01142 0.31947 0.51494 0.0
H2129 H 0.99233 0.38537 0.51326 0.0
H2130 H 0.02024 0.39419 0.51693 0.0
H2131 H 0.00075 0.37783 0.5339 0.0
C2132 C 0.05001 0.38134 0.5536 0.0
C2133 C 0.04037 0.3697 0.56968 0.0
C2134 C 0.04039 0.37365 0.53657 0.0
C2135 C 0.02083 0.3543 0.53527 0.0
C2136 C 0.01175 0.34197 0.55113 0.0
H2137 H 0.93266 0.32843 0.44593 0.0
H2138 H 0.94884 0.33093 0.47583 0.0
C2139 C 0.02149 0.34961 0.56825 0.0
C2140 C 0.00911 0.34807 0.51759 0.0
H2141 H 0.98594 0.36519 0.48606 0.0
C2142 C 0.00572 0.32935 0.50861 0.0
C2143 C 0.00147 0.36088 0.50952 0.0
C2144 C 0.00367 0.38059 0.51894 0.0
C2145 C 0.99523 0.32335 0.49152 0.0
C2146 C 0.98825 0.33658 0.4832 0.0
C2147 C 0.99139 0.3551 0.49238 0.0
C2148 C 0.97727 0.33164 0.46513 0.0
C2149 C 0.99146 0.30279 0.48267 0.0
C2150 C 0.98762 0.33068 0.4491 0.0
C2151 C 0.97824 0.32905 0.43188 0.0
C2152 C 0.95857 0.3287 0.43046 0.0
C2153 C 0.94791 0.32883 0.44656 0.0
C2154 C 0.95713 0.33022 0.46368 0.0
H2155 H 0.99251 0.2918 0.49279 0.0
H2156 H 0.97548 0.29429 0.47592 0.0
H2157 H 0.00392 0.30663 0.47205 0.0
H2158 H 0.00336 0.33218 0.44983 0.0
H2159 H 0.98686 0.3291 0.41969 0.0
H2160 H 0.439 0.02962 0.1407 0.0
H2161 H 0.46886 0.02225 0.14024 0.0
H2162 H 0.50423 0.07649 0.10428 0.0
H2163 H 0.47366 0.08263 0.1036 0.0
H2164 H 0.5069 0.04346 0.09281 0.0
H2165 H 0.49998 0.02826 0.16239 0.0
H2166 H 0.50096 0.05323 0.15791 0.0
H2167 H 0.52408 0.0531 0.16711 0.0
C2168 C 0.4533 0.04004 0.13288 0.0
C2169 C 0.45463 0.05739 0.12294 0.0
C2170 C 0.47036 0.03589 0.13268 0.0
C2171 C 0.48913 0.04923 0.12271 0.0
C2172 C 0.4901 0.06619 0.11235 0.0
H2173 H 0.61616 0.07557 0.10006 0.0
H2174 H 0.58004 0.07068 0.0997 0.0
C2175 C 0.47285 0.06997 0.11221 0.0
C2176 C 0.50753 0.04522 0.1223 0.0
H2177 H 0.54521 0.04276 0.14901 0.0
C2178 C 0.51529 0.04335 0.10513 0.0
C2179 C 0.51806 0.04417 0.13838 0.0
C2180 C 0.51037 0.04495 0.15743 0.0
C2181 C 0.5337 0.04142 0.10353 0.0
C2182 C 0.54518 0.04215 0.11952 0.0
C2183 C 0.53673 0.04271 0.13671 0.0
C2184 C 0.5667 0.04399 0.1188 0.0
C2185 C 0.54041 0.0384 0.08468 0.0
C2186 C 0.57154 0.03103 0.12999 0.0
C2187 C 0.59246 0.0344 0.13067 0.0
C2188 C 0.60885 0.05097 0.1204 0.0
C2189 C 0.60385 0.0632 0.10859 0.0
C2190 C 0.58308 0.06005 0.10806 0.0
H2191 H 0.52621 0.0295 0.07562 0.0
H2192 H 0.55082 0.05437 0.07834 0.0
H2193 H 0.54936 0.02952 0.08518 0.0
H2194 H 0.55921 0.01852 0.13839 0.0
H2195 H 0.59596 0.02444 0.13953 0.0
H2196 H 0.52927 0.62509 0.61238 0.0
H2197 H 0.49624 0.59007 0.61406 0.0
H2198 H 0.52787 0.56685 0.64992 0.0
H2199 H 0.56077 0.60218 0.64869 0.0
H2200 H 0.50625 0.53997 0.61799 0.0
H2201 H 0.45386 0.5614 0.65789 0.0
H2202 H 0.46774 0.57881 0.6389 0.0
H2203 H 0.4828 0.57743 0.6581 0.0
C2204 C 0.52885 0.61279 0.62121 0.0
C2205 C 0.54721 0.61654 0.63101 0.0
C2206 C 0.5101 0.59271 0.62198 0.0
C2207 C 0.50956 0.57592 0.63224 0.0
C2208 C 0.52792 0.57963 0.64201 0.0
H2209 H 0.40524 0.442 0.64349 0.0
H2210 H 0.44019 0.47528 0.64625 0.0
C2211 C 0.54661 0.59979 0.64138 0.0
C2212 C 0.49012 0.55426 0.63205 0.0
H2213 H 0.43708 0.52754 0.64341 0.0
C2214 C 0.49111 0.53717 0.62365 0.0
C2215 C 0.47044 0.55059 0.63952 0.0
C2216 C 0.46856 0.56797 0.64928 0.0
C2217 C 0.47263 0.51676 0.62192 0.0
C2218 C 0.45288 0.51345 0.62892 0.0
C2219 C 0.45213 0.53029 0.63781 0.0
C2220 C 0.43249 0.49296 0.6266 0.0
C2221 C 0.47409 0.49904 0.61219 0.0
C2222 C 0.41667 0.49203 0.61475 0.0
C2223 C 0.39683 0.47317 0.61322 0.0
C2224 C 0.3923 0.45517 0.6239 0.0
C2225 C 0.40829 0.45591 0.63544 0.0
C2226 C 0.42822 0.47477 0.63691 0.0
H2227 H 0.4901 0.50483 0.60582 0.0
H2228 H 0.4711 0.48614 0.62213 0.0
H2229 H 0.46156 0.49187 0.6014 0.0
H2230 H 0.41968 0.50594 0.60671 0.0
H2231 H 0.38502 0.47262 0.60368 0.0
H2232 H 0.92467 0.39132 0.10108 0.0
H2233 H 0.92878 0.42716 0.10247 0.0
H2234 H 0.97819 0.44561 0.14356 0.0
H2235 H 0.9733 0.40924 0.14267 0.0
H2236 H 0.95082 0.457 0.15392 0.0
H2237 H 0.97214 0.48371 0.08246 0.0
H2238 H 0.94759 0.45846 0.08307 0.0
H2239 H 0.97212 0.46021 0.09119 0.0
C2240 C 0.93631 0.40306 0.11046 0.0
C2241 C 0.94811 0.39749 0.12227 0.0
C2242 C 0.93899 0.42367 0.11098 0.0
C2243 C 0.95404 0.43926 0.12292 0.0
C2244 C 0.96651 0.43388 0.13422 0.0
H2245 H 0.96696 0.56482 0.15091 0.0
H2246 H 0.97298 0.53406 0.14998 0.0
C2247 C 0.9637 0.41317 0.13375 0.0
C2248 C 0.95527 0.46043 0.12472 0.0
H2249 H 0.95694 0.5015 0.09993 0.0
C2250 C 0.95232 0.4668 0.14214 0.0
C2251 C 0.95772 0.47354 0.1094 0.0
C2252 C 0.96282 0.46872 0.09054 0.0
C2253 C 0.9502 0.48501 0.14452 0.0
C2254 C 0.95145 0.49748 0.12906 0.0
C2255 C 0.95554 0.49173 0.11176 0.0
C2256 C 0.9477 0.516 0.13028 0.0
C2257 C 0.94566 0.49003 0.16347 0.0
C2258 C 0.9319 0.51638 0.11921 0.0
C2259 C 0.92876 0.53404 0.11953 0.0
C2260 C 0.94094 0.5514 0.13127 0.0
C2261 C 0.95692 0.55124 0.1422 0.0
C2262 C 0.96027 0.53365 0.14173 0.0
H2263 H 0.93893 0.47573 0.17257 0.0
H2264 H 0.96083 0.50271 0.16968 0.0
H2265 H 0.93419 0.496 0.16287 0.0
H2266 H 0.92213 0.50309 0.11013 0.0
H2267 H 0.91706 0.53429 0.11034 0.0
H2268 H 0.40289 0.9628 0.64645 0.0
H2269 H 0.43727 0.96327 0.64575 0.0
H2270 H 0.41477 0.91968 0.59969 0.0
H2271 H 0.38006 0.91814 0.60132 0.0
H2272 H 0.43182 0.90649 0.6216 0.0
H2273 H 0.48902 0.99317 0.61496 0.0
H2274 H 0.47286 0.98797 0.63506 0.0
H2275 H 0.46041 0.98213 0.61275 0.0
C2276 C 0.40544 0.95336 0.63624 0.0
C2277 C 0.38885 0.94005 0.62423 0.0
C2278 C 0.42518 0.95388 0.63562 0.0
C2279 C 0.42893 0.94189 0.62238 0.0
C2280 C 0.4124 0.92913 0.61001 0.0
H2281 H 0.53105 0.91116 0.60423 0.0
H2282 H 0.49824 0.91331 0.60251 0.0
C2283 C 0.39255 0.92815 0.61098 0.0
C2284 C 0.44921 0.941 0.62238 0.0
H2285 H 0.50399 0.97132 0.62398 0.0
C2286 C 0.44751 0.92071 0.62237 0.0
C2287 C 0.46992 0.95953 0.62268 0.0
C2288 C 0.47317 0.9819 0.62115 0.0
C2289 C 0.46556 0.91824 0.62377 0.0
C2290 C 0.48631 0.93668 0.62441 0.0
C2291 C 0.48815 0.95711 0.62382 0.0
C2292 C 0.50625 0.93514 0.6255 0.0
C2293 C 0.46187 0.89577 0.62534 0.0
C2294 C 0.52221 0.94724 0.63854 0.0
C2295 C 0.54135 0.94657 0.63906 0.0
C2296 C 0.54454 0.93327 0.62696 0.0
C2297 C 0.52857 0.92096 0.61411 0.0
C2298 C 0.50978 0.92217 0.61317 0.0
H2299 H 0.44606 0.88469 0.63168 0.0
H2300 H 0.46204 0.88952 0.61148 0.0
H2301 H 0.47458 0.8957 0.63372 0.0
H2302 H 0.52001 0.95744 0.64818 0.0
H2303 H 0.55371 0.95654 0.64882 0.0
H2304 H 0.59926 0.55343 0.15126 0.0
H2305 H 0.56541 0.51971 0.14886 0.0
H2306 H 0.57111 0.52397 0.08979 0.0
H2307 H 0.60732 0.55458 0.09287 0.0
H2308 H 0.53089 0.5042 0.14058 0.0
H2309 H 0.556 0.4663 0.08793 0.0
H2310 H 0.57484 0.49222 0.09677 0.0
H2311 H 0.5572 0.4896 0.07806 0.0
C2312 C 0.5937 0.54623 0.13792 0.0
C2313 C 0.60658 0.55516 0.12246 0.0
C2314 C 0.57393 0.52724 0.13636 0.0
C2315 C 0.56577 0.51792 0.11904 0.0
C2316 C 0.57753 0.52912 0.1034 0.0
H2317 H 0.432 0.41023 0.12666 0.0
H2318 H 0.46317 0.44619 0.1239 0.0
C2319 C 0.59811 0.54697 0.10512 0.0
C2320 C 0.54505 0.49691 0.11754 0.0
H2321 H 0.51836 0.45082 0.09248 0.0
C2322 C 0.52872 0.49228 0.13043 0.0
C2323 C 0.5414 0.48093 0.10426 0.0
C2324 C 0.55842 0.48248 0.09117 0.0
C2325 C 0.50979 0.47221 0.13112 0.0
C2326 C 0.50547 0.45698 0.11698 0.0
C2327 C 0.52131 0.46206 0.10351 0.0
C2328 C 0.48543 0.43536 0.11628 0.0
C2329 C 0.49554 0.46759 0.14769 0.0
C2330 C 0.4864 0.41715 0.11046 0.0
C2331 C 0.46806 0.39681 0.11047 0.0
C2332 C 0.44875 0.39384 0.11769 0.0
C2333 C 0.44716 0.41197 0.12219 0.0
C2334 C 0.46517 0.43256 0.12097 0.0
H2335 H 0.505 0.47686 0.15982 0.0
H2336 H 0.48355 0.47265 0.14488 0.0
H2337 H 0.48712 0.45035 0.15144 0.0
H2338 H 0.5014 0.41838 0.10623 0.0
H2339 H 0.4691 0.3833 0.1052 0.0
H2340 H 0.03045 0.4328 0.64242 0.0
H2341 H 0.0271 0.46519 0.64311 0.0
H2342 H 0.07755 0.49481 0.60273 0.0
H2343 H 0.08015 0.46217 0.60153 0.0
H2344 H 0.0555 0.50382 0.65361 0.0
H2345 H 0.03537 0.50926 0.58163 0.0
H2346 H 0.03455 0.48553 0.59075 0.0
H2347 H 0.05956 0.50794 0.58298 0.0
C2348 C 0.04065 0.44625 0.63364 0.0
C2349 C 0.05608 0.44548 0.62241 0.0
C2350 C 0.03873 0.46468 0.63399 0.0
C2351 C 0.05191 0.4824 0.62282 0.0
C2352 C 0.06684 0.48124 0.61116 0.0
H2353 H 0.08586 0.61447 0.60991 0.0
H2354 H 0.08283 0.579 0.60975 0.0
C2355 C 0.06865 0.46279 0.61074 0.0
C2356 C 0.05125 0.50266 0.62437 0.0
H2357 H 0.04935 0.54178 0.59931 0.0
C2358 C 0.05407 0.51206 0.64174 0.0
C2359 C 0.04896 0.51326 0.60893 0.0
C2360 C 0.0442 0.50333 0.59007 0.0
C2361 C 0.05589 0.53228 0.64401 0.0
C2362 C 0.05445 0.54331 0.6285 0.0
C2363 C 0.05082 0.53353 0.61118 0.0
C2364 C 0.05712 0.56517 0.62973 0.0
C2365 C 0.06019 0.54189 0.66294 0.0
C2366 C 0.04377 0.56931 0.64105 0.0
C2367 C 0.04594 0.58978 0.64149 0.0
C2368 C 0.06149 0.6064 0.63064 0.0
C2369 C 0.07446 0.60215 0.61904 0.0
C2370 C 0.0725 0.58182 0.61874 0.0
H2371 H 0.06727 0.53467 0.67207 0.0
H2372 H 0.07128 0.5594 0.6623 0.0
H2373 H 0.04486 0.53894 0.66914 0.0
H2374 H 0.03134 0.5566 0.64922 0.0
H2375 H 0.03529 0.59257 0.6501 0.0
H2376 H 0.95328 0.5516 0.35706 0.0
H2377 H 0.95496 0.5183 0.3577 0.0
H2378 H 0.91514 0.49814 0.40617 0.0
H2379 H 0.91187 0.53033 0.40437 0.0
H2380 H 0.9712 0.50347 0.38062 0.0
H2381 H 0.88429 0.445 0.37887 0.0
H2382 H 0.89453 0.47344 0.3778 0.0
H2383 H 0.89095 0.46042 0.3996 0.0
C2384 C 0.94441 0.53965 0.36747 0.0
C2385 C 0.9319 0.54304 0.3803 0.0
C2386 C 0.94554 0.52076 0.36798 0.0
C2387 C 0.93482 0.50534 0.38177 0.0
C2388 C 0.92288 0.50923 0.39495 0.0
H2389 H 0.91987 0.37949 0.40376 0.0
H2390 H 0.9217 0.41422 0.40655 0.0
C2391 C 0.92104 0.52765 0.39397 0.0
C2392 C 0.93664 0.48555 0.38263 0.0
H2393 H 0.90721 0.43115 0.38687 0.0
C2394 C 0.95714 0.48759 0.38165 0.0
C2395 C 0.91845 0.46475 0.3845 0.0
C2396 C 0.8958 0.46074 0.38512 0.0
C2397 C 0.95987 0.46952 0.38235 0.0
C2398 C 0.94155 0.44874 0.38367 0.0
C2399 C 0.92124 0.44686 0.38529 0.0
C2400 C 0.9426 0.42854 0.38307 0.0
C2401 C 0.98243 0.4731 0.38237 0.0
C2402 C 0.95389 0.42486 0.36909 0.0
C2403 C 0.95337 0.40516 0.3679 0.0
C2404 C 0.94063 0.38848 0.38004 0.0
C2405 C 0.92945 0.39207 0.39402 0.0
C2406 C 0.93056 0.41194 0.39562 0.0
H2407 H 0.99397 0.48902 0.38829 0.0
H2408 H 0.98351 0.46049 0.39029 0.0
H2409 H 0.98749 0.47289 0.36804 0.0
H2410 H 0.96266 0.43697 0.35879 0.0
H2411 H 0.96226 0.40268 0.35712 0.0
H2412 H 0.5633 0.97379 0.85997 0.0
H2413 H 0.53196 0.97896 0.86006 0.0
H2414 H 0.50216 0.92999 0.90163 0.0
H2415 H 0.53369 0.92547 0.90194 0.0
H2416 H 0.49244 0.95073 0.85071 0.0
H2417 H 0.49021 0.9743 0.92214 0.0
H2418 H 0.51335 0.97417 0.91268 0.0
H2419 H 0.49098 0.94978 0.92148 0.0
C2420 C 0.55007 0.96436 0.86921 0.0
C2421 C 0.5504 0.94876 0.88051 0.0
C2422 C 0.53226 0.96733 0.86931 0.0
C2423 C 0.51479 0.95507 0.88103 0.0
C2424 C 0.5156 0.94004 0.8928 0.0
H2425 H 0.38305 0.91719 0.89633 0.0
H2426 H 0.41925 0.92197 0.89493 0.0
C2427 C 0.5334 0.93714 0.89272 0.0
C2428 C 0.49486 0.95639 0.87977 0.0
H2429 H 0.45657 0.95889 0.90556 0.0
C2430 C 0.48477 0.95286 0.86266 0.0
C2431 C 0.48489 0.95934 0.89533 0.0
C2432 C 0.49558 0.96485 0.91389 0.0
C2433 C 0.46441 0.95081 0.86078 0.0
C2434 C 0.45386 0.95255 0.87653 0.0
C2435 C 0.46445 0.95716 0.89353 0.0
C2436 C 0.43161 0.94882 0.87609 0.0
C2437 C 0.45412 0.94491 0.8421 0.0
C2438 C 0.42656 0.96249 0.8662 0.0
C2439 C 0.40566 0.95922 0.86648 0.0
C2440 C 0.38959 0.94242 0.87685 0.0
C2441 C 0.39488 0.92943 0.8874 0.0
C2442 C 0.41561 0.93237 0.88681 0.0
H2443 H 0.46618 0.95404 0.8313 0.0
H2444 H 0.44835 0.92762 0.83968 0.0
H2445 H 0.44048 0.94775 0.84042 0.0
H2446 H 0.43884 0.97578 0.85838 0.0
H2447 H 0.40209 0.96995 0.85878 0.0
H2448 H 0.44373 0.40042 0.35045 0.0
H2449 H 0.47783 0.43458 0.35221 0.0
H2450 H 0.4956 0.41127 0.39985 0.0
H2451 H 0.4627 0.37657 0.39677 0.0
H2452 H 0.49295 0.46437 0.37581 0.0
H2453 H 0.54949 0.43355 0.37412 0.0
H2454 H 0.52099 0.41601 0.37224 0.0
H2455 H 0.53335 0.42426 0.39442 0.0
C2456 C 0.45534 0.40252 0.36089 0.0
C2457 C 0.45108 0.38581 0.37311 0.0
C2458 C 0.47469 0.42207 0.36205 0.0
C2459 C 0.4897 0.42552 0.37594 0.0
C2460 C 0.4849 0.40889 0.38853 0.0
H2461 H 0.61527 0.53388 0.40422 0.0
H2462 H 0.58032 0.50086 0.40485 0.0
C2463 C 0.46604 0.38907 0.38684 0.0
C2464 C 0.50989 0.44673 0.37762 0.0
H2465 H 0.56403 0.47008 0.38346 0.0
C2466 C 0.50857 0.46561 0.37712 0.0
C2467 C 0.53035 0.44858 0.37989 0.0
C2468 C 0.53366 0.42949 0.38006 0.0
C2469 C 0.52698 0.48608 0.37865 0.0
C2470 C 0.54741 0.48779 0.3804 0.0
C2471 C 0.54859 0.46895 0.38155 0.0
C2472 C 0.56791 0.50874 0.38079 0.0
C2473 C 0.52414 0.50551 0.37904 0.0
C2474 C 0.57274 0.5243 0.3671 0.0
C2475 C 0.59257 0.5434 0.36704 0.0
C2476 C 0.60823 0.54675 0.3801 0.0
C2477 C 0.60351 0.53133 0.39377 0.0
C2478 C 0.58352 0.51253 0.39416 0.0
H2479 H 0.50802 0.50135 0.38434 0.0
H2480 H 0.53653 0.51852 0.38768 0.0
H2481 H 0.52545 0.51167 0.36488 0.0
H2482 H 0.56139 0.52153 0.35624 0.0
H2483 H 0.59591 0.55528 0.3565 0.0
H2484 H 0.04618 0.44541 0.85415 0.0
H2485 H 0.0449 0.47885 0.85621 0.0
H2486 H 0.08447 0.49641 0.90481 0.0
H2487 H 0.08757 0.46426 0.90144 0.0
H2488 H 0.02877 0.49273 0.87951 0.0
H2489 H 0.11576 0.55101 0.88016 0.0
H2490 H 0.10562 0.52265 0.87814 0.0
H2491 H 0.10852 0.53464 0.90034 0.0
C2492 C 0.05512 0.45686 0.86488 0.0
C2493 C 0.06756 0.45279 0.87726 0.0
C2494 C 0.05421 0.47582 0.86621 0.0
C2495 C 0.06499 0.49059 0.88045 0.0
C2496 C 0.07676 0.48593 0.89323 0.0
H2497 H 0.07898 0.61499 0.90807 0.0
H2498 H 0.07738 0.58025 0.90927 0.0
C2499 C 0.07846 0.46749 0.89137 0.0
C2500 C 0.06328 0.51039 0.88222 0.0
H2501 H 0.09269 0.56449 0.88884 0.0
C2502 C 0.04284 0.5085 0.8812 0.0
C2503 C 0.08146 0.53104 0.885 0.0
C2504 C 0.10409 0.53498 0.88583 0.0
C2505 C 0.04015 0.52655 0.88265 0.0
C2506 C 0.05847 0.54719 0.88483 0.0
C2507 C 0.07869 0.5489 0.88656 0.0
C2508 C 0.05745 0.56741 0.88504 0.0
C2509 C 0.01763 0.52306 0.88249 0.0
C2510 C 0.0467 0.57193 0.87114 0.0
C2511 C 0.04713 0.59162 0.87081 0.0
C2512 C 0.05923 0.60749 0.8838 0.0
C2513 C 0.06991 0.60306 0.89769 0.0
C2514 C 0.06892 0.58319 0.89839 0.0
H2515 H 0.00587 0.50682 0.8877 0.0
H2516 H 0.01636 0.53521 0.89096 0.0
H2517 H 0.01303 0.52417 0.86819 0.0
H2518 H 0.03839 0.56049 0.86027 0.0
H2519 H 0.03863 0.59474 0.86008 0.0
H2520 H 0.59224 0.03509 0.35463 0.0
H2521 H 0.55627 0.03117 0.35488 0.0
H2522 H 0.57802 0.08282 0.39414 0.0
H2523 H 0.61348 0.08583 0.39461 0.0
H2524 H 0.54063 0.04942 0.4043 0.0
H2525 H 0.53471 0.06699 0.3312 0.0
H2526 H 0.53898 0.04462 0.33446 0.0
H2527 H 0.55928 0.07108 0.34138 0.0
C2528 C 0.58931 0.04578 0.36306 0.0
C2529 C 0.60575 0.06136 0.37403 0.0
C2530 C 0.56884 0.04363 0.36313 0.0
C2531 C 0.56452 0.05703 0.37422 0.0
C2532 C 0.58098 0.07244 0.38532 0.0
H2533 H 0.4602 0.07919 0.40005 0.0
H2534 H 0.49327 0.07732 0.39937 0.0
C2535 C 0.60132 0.07439 0.38539 0.0
C2536 C 0.54263 0.05436 0.37508 0.0
H2537 H 0.5035 0.0552 0.34922 0.0
C2538 C 0.53256 0.0508 0.39225 0.0
C2539 C 0.53185 0.05572 0.35934 0.0
C2540 C 0.54179 0.05997 0.34055 0.0
C2541 C 0.51222 0.04886 0.39414 0.0
C2542 C 0.50184 0.051 0.37847 0.0
C2543 C 0.51156 0.05383 0.36125 0.0
C2544 C 0.48139 0.05135 0.37961 0.0
C2545 C 0.50197 0.04419 0.41287 0.0
C2546 C 0.46384 0.03774 0.36845 0.0
C2547 C 0.44516 0.03921 0.36853 0.0
C2548 C 0.44396 0.05461 0.37946 0.0
C2549 C 0.46113 0.06768 0.39107 0.0
C2550 C 0.47983 0.06631 0.39095 0.0
H2551 H 0.50797 0.03566 0.42163 0.0
H2552 H 0.50618 0.05957 0.41974 0.0
H2553 H 0.4842 0.03429 0.41198 0.0
H2554 H 0.46467 0.02609 0.35959 0.0
H2555 H 0.43183 0.02864 0.3598 0.0
H2556 H 0.5369 0.61305 0.90369 0.0
H2557 H 0.50602 0.57669 0.90376 0.0
H2558 H 0.53766 0.55737 0.86405 0.0
H2559 H 0.56815 0.59434 0.86327 0.0
H2560 H 0.49919 0.54334 0.8537 0.0
H2561 H 0.4943 0.52244 0.92664 0.0
H2562 H 0.49367 0.54692 0.92454 0.0
H2563 H 0.51719 0.54597 0.91727 0.0
C2564 C 0.53711 0.60102 0.89489 0.0
C2565 C 0.55432 0.6065 0.88291 0.0
C2566 C 0.5197 0.58011 0.89524 0.0
C2567 C 0.51956 0.56409 0.88412 0.0
C2568 C 0.53735 0.56942 0.87275 0.0
H2569 H 0.40848 0.43593 0.86 0.0
H2570 H 0.44513 0.46674 0.86074 0.0
C2571 C 0.55471 0.59047 0.87227 0.0
C2572 C 0.50004 0.54247 0.88316 0.0
H2573 H 0.46112 0.50292 0.90948 0.0
C2574 C 0.49095 0.53443 0.8659 0.0
C2575 C 0.48953 0.53045 0.89901 0.0
C2576 C 0.49937 0.53682 0.91786 0.0
C2577 C 0.47096 0.51561 0.86407 0.0
C2578 C 0.45968 0.50439 0.88004 0.0
C2579 C 0.46938 0.5118 0.89725 0.0
C2580 C 0.43759 0.48544 0.87947 0.0
C2581 C 0.46227 0.50851 0.84497 0.0
C2582 C 0.42134 0.48514 0.89042 0.0
C2583 C 0.40062 0.4673 0.89038 0.0
C2584 C 0.39555 0.44977 0.87893 0.0
C2585 C 0.41187 0.4497 0.8684 0.0
C2586 C 0.43275 0.46733 0.86875 0.0
H2587 H 0.46794 0.52246 0.83555 0.0
H2588 H 0.46821 0.49799 0.83959 0.0
H2589 H 0.44456 0.49941 0.84465 0.0
H2590 H 0.42469 0.49872 0.89907 0.0
H2591 H 0.38858 0.46714 0.89941 0.0
loop_
_geom_bond_atom_site_label_1
_geom_bond_atom_site_label_2
_geom_bond_distance
_geom_bond_site_symmetry_2
_ccdc_geom_bond_type
Mn0 O5 2.095 . S
Mn0 O15 2.162 . S
Mn0 O16 2.297 . S
Mn0 O24 2.385 . S
Mn0 O25 2.209 . S
Mn0 O26 2.094 . S
Mn1 O6 2.121 . S
Mn1 N8 2.257 . S
Mn1 N17 2.282 . S
Mn1 O25 2.215 . S
Mn1 O27 2.117 . S
C2 O24 1.234 . S
C2 O25 1.283 . S
C3 O15 1.281 . S
C3 O16 1.236 . S
C4 O26 1.240 . S
C4 O27 1.264 . S
O5 Mn0 2.095 . S
O5 C14 1.250 . S
O6 Mn1 2.121 . S
O6 C14 1.258 . S
C7 N8 1.326 . S
C7 C11 1.460 . S
C7 H13 0.929 . S
N8 Mn1 2.257 . S
N8 C7 1.326 . S
N8 C12 1.362 . S
C9 C10 1.258 . S
C9 C12 1.431 . S
C9 C29 1.449 . S
C10 C9 1.258 . S
C10 C11 1.477 . S
C10 H30 0.931 . S
C11 C7 1.460 . S
C11 C10 1.477 . S
C11 H31 0.930 . S
C12 N8 1.362 . S
C12 C9 1.431 . S
C12 C22 1.476 . S
H13 C7 0.929 . S
C14 O5 1.250 . S
C14 O6 1.258 . S
O15 Mn0 2.162 . S
O15 C3 1.281 . S
O16 Mn0 2.297 . S
O16 C3 1.236 . S
N17 Mn1 2.282 . S
N17 C18 1.328 . S
N17 C22 1.318 . S
C18 N17 1.328 . S
C18 C19 1.457 . S
C18 H23 0.929 . S
C19 C18 1.457 . S
C19 C20 1.291 . S
C19 H32 0.931 . S
C20 C19 1.291 . S
C20 C21 1.373 . S
C20 H33 0.929 . S
C21 C20 1.373 . S
C21 C22 1.396 . S
C21 C28 1.403 . S
C22 C12 1.476 . S
C22 N17 1.318 . S
C22 C21 1.396 . S
H23 C18 0.929 . S
O24 Mn0 2.385 . S
O24 C2 1.234 . S
O25 Mn0 2.209 . S
O25 Mn1 2.215 . S
O25 C2 1.283 . S
O26 Mn0 2.094 . S
O26 C4 1.240 . S
O27 Mn1 2.117 . S
O27 C4 1.264 . S
C28 C21 1.403 . S
C28 C29 1.399 . S
C28 H34 0.929 . S
C29 C9 1.449 . S
C29 C28 1.399 . S
C29 H35 0.930 . S
H30 C10 0.931 . S
H31 C11 0.930 . S
H32 C19 0.931 . S
H33 C20 0.929 . S
H34 C28 0.929 . S
H35 C29 0.930 . S
Mn36 O41 2.095 . S
Mn36 O51 2.162 . S
Mn36 O52 2.297 . S
Mn36 O60 2.385 . S
Mn36 O61 2.209 . S
Mn36 O62 2.094 . S
Mn37 O42 2.121 . S
Mn37 N44 2.257 . S
Mn37 N53 2.282 . S
Mn37 O61 2.215 . S
Mn37 O63 2.117 . S
C38 O60 1.234 . S
C38 O61 1.283 . S
C39 O51 1.281 . S
C39 O52 1.236 . S
C40 O62 1.240 . S
C40 O63 1.264 . S
O41 Mn36 2.095 . S
O41 C50 1.250 . S
O42 Mn37 2.121 . S
O42 C50 1.258 . S
C43 N44 1.326 . S
C43 C47 1.460 . S
C43 H49 0.929 . S
N44 Mn37 2.257 . S
N44 C43 1.326 . S
N44 C48 1.362 . S
C45 C46 1.258 . S
C45 C48 1.431 . S
C45 C65 1.449 . S
C46 C45 1.258 . S
C46 C47 1.477 . S
C46 H66 0.931 . S
C47 C43 1.460 . S
C47 C46 1.477 . S
C47 H67 0.930 . S
C48 N44 1.362 . S
C48 C45 1.431 . S
C48 C58 1.476 . S
H49 C43 0.929 . S
C50 O41 1.250 . S
C50 O42 1.258 . S
O51 Mn36 2.162 . S
O51 C39 1.281 . S
O52 Mn36 2.297 . S
O52 C39 1.236 . S
N53 Mn37 2.282 . S
N53 C54 1.328 . S
N53 C58 1.318 . S
C54 N53 1.328 . S
C54 C55 1.457 . S
C54 H59 0.929 . S
C55 C54 1.457 . S
C55 C56 1.291 . S
C55 H68 0.931 . S
C56 C55 1.291 . S
C56 C57 1.373 . S
C56 H69 0.929 . S
C57 C56 1.373 . S
C57 C58 1.396 . S
C57 C64 1.403 . S
C58 C48 1.476 . S
C58 N53 1.318 . S
C58 C57 1.396 . S
H59 C54 0.929 . S
O60 Mn36 2.385 . S
O60 C38 1.234 . S
O61 Mn36 2.209 . S
O61 Mn37 2.215 . S
O61 C38 1.283 . S
O62 Mn36 2.094 . S
O62 C40 1.240 . S
O63 Mn37 2.117 . S
O63 C40 1.264 . S
C64 C57 1.403 . S
C64 C65 1.399 . S
C64 H70 0.929 . S
C65 C45 1.449 . S
C65 C64 1.399 . S
C65 H71 0.930 . S
H66 C46 0.931 . S
H67 C47 0.930 . S
H68 C55 0.931 . S
H69 C56 0.929 . S
H70 C64 0.929 . S
H71 C65 0.930 . S
Mn72 O77 2.095 . S
Mn72 O87 2.162 . S
Mn72 O88 2.297 . S
Mn72 O96 2.385 . S
Mn72 O97 2.209 . S
Mn72 O98 2.094 . S
Mn73 O78 2.121 . S
Mn73 N80 2.257 . S
Mn73 N89 2.282 . S
Mn73 O97 2.215 . S
Mn73 O99 2.117 . S
C74 O96 1.234 . S
C74 O97 1.283 . S
C75 O87 1.281 . S
C75 O88 1.236 . S
C76 O98 1.240 . S
C76 O99 1.264 . S
O77 Mn72 2.095 . S
O77 C86 1.250 . S
O78 Mn73 2.121 . S
O78 C86 1.258 . S
C79 N80 1.326 . S
C79 C83 1.460 . S
C79 H85 0.929 . S
N80 Mn73 2.257 . S
N80 C79 1.326 . S
N80 C84 1.362 . S
C81 C82 1.258 . S
C81 C84 1.431 . S
C81 C101 1.449 . S
C82 C81 1.258 . S
C82 C83 1.477 . S
C82 H102 0.931 . S
C83 C79 1.460 . S
C83 C82 1.477 . S
C83 H103 0.930 . S
C84 N80 1.362 . S
C84 C81 1.431 . S
C84 C94 1.476 . S
H85 C79 0.929 . S
C86 O77 1.250 . S
C86 O78 1.258 . S
O87 Mn72 2.162 . S
O87 C75 1.281 . S
O88 Mn72 2.297 . S
O88 C75 1.236 . S
N89 Mn73 2.282 . S
N89 C90 1.328 . S
N89 C94 1.318 . S
C90 N89 1.328 . S
C90 C91 1.457 . S
C90 H95 0.929 . S
C91 C90 1.457 . S
C91 C92 1.291 . S
C91 H104 0.931 . S
C92 C91 1.291 . S
C92 C93 1.373 . S
C92 H105 0.929 . S
C93 C92 1.373 . S
C93 C94 1.396 . S
C93 C100 1.403 . S
C94 C84 1.476 . S
C94 N89 1.318 . S
C94 C93 1.396 . S
H95 C90 0.929 . S
O96 Mn72 2.385 . S
O96 C74 1.234 . S
O97 Mn72 2.209 . S
O97 Mn73 2.215 . S
O97 C74 1.283 . S
O98 Mn72 2.094 . S
O98 C76 1.240 . S
O99 Mn73 2.117 . S
O99 C76 1.264 . S
C100 C93 1.403 . S
C100 C101 1.399 . S
C100 H106 0.929 . S
C101 C81 1.449 . S
C101 C100 1.399 . S
C101 H107 0.930 . S
H102 C82 0.931 . S
H103 C83 0.930 . S
H104 C91 0.931 . S
H105 C92 0.929 . S
H106 C100 0.929 . S
H107 C101 0.930 . S
Mn108 O113 2.095 . S
Mn108 O123 2.162 . S
Mn108 O124 2.297 . S
Mn108 O132 2.385 . S
Mn108 O133 2.209 . S
Mn108 O134 2.094 . S
Mn109 O114 2.121 . S
Mn109 N116 2.257 . S
Mn109 N125 2.282 . S
Mn109 O133 2.215 . S
Mn109 O135 2.117 . S
C110 O132 1.234 . S
C110 O133 1.283 . S
C111 O123 1.281 . S
C111 O124 1.236 . S
C112 O134 1.240 . S
C112 O135 1.264 . S
O113 Mn108 2.095 . S
O113 C122 1.250 . S
O114 Mn109 2.121 . S
O114 C122 1.258 . S
C115 N116 1.326 . S
C115 C119 1.460 . S
C115 H121 0.929 . S
N116 Mn109 2.257 . S
N116 C115 1.326 . S
N116 C120 1.362 . S
C117 C118 1.258 . S
C117 C120 1.431 . S
C117 C137 1.449 . S
C118 C117 1.258 . S
C118 C119 1.477 . S
C118 H138 0.931 . S
C119 C115 1.460 . S
C119 C118 1.477 . S
C119 H139 0.930 . S
C120 N116 1.362 . S
C120 C117 1.431 . S
C120 C130 1.476 . S
H121 C115 0.929 . S
C122 O113 1.250 . S
C122 O114 1.258 . S
O123 Mn108 2.162 . S
O123 C111 1.281 . S
O124 Mn108 2.297 . S
O124 C111 1.236 . S
N125 Mn109 2.282 . S
N125 C126 1.328 . S
N125 C130 1.318 . S
C126 N125 1.328 . S
C126 C127 1.457 . S
C126 H131 0.929 . S
C127 C126 1.457 . S
C127 C128 1.291 . S
C127 H140 0.931 . S
C128 C127 1.291 . S
C128 C129 1.373 . S
C128 H141 0.929 . S
C129 C128 1.373 . S
C129 C130 1.396 . S
C129 C136 1.403 . S
C130 C120 1.476 . S
C130 N125 1.318 . S
C130 C129 1.396 . S
H131 C126 0.929 . S
O132 Mn108 2.385 . S
O132 C110 1.234 . S
O133 Mn108 2.209 . S
O133 Mn109 2.215 . S
O133 C110 1.283 . S
O134 Mn108 2.094 . S
O134 C112 1.240 . S
O135 Mn109 2.117 . S
O135 C112 1.264 . S
C136 C129 1.403 . S
C136 C137 1.399 . S
C136 H142 0.929 . S
C137 C117 1.449 . S
C137 C136 1.399 . S
C137 H143 0.930 . S
H138 C118 0.931 . S
H139 C119 0.930 . S
H140 C127 0.931 . S
H141 C128 0.929 . S
H142 C136 0.929 . S
H143 C137 0.930 . S
Mn144 O149 2.095 . S
Mn144 O159 2.162 . S
Mn144 O160 2.297 . S
Mn144 O168 2.385 . S
Mn144 O169 2.209 . S
Mn144 O170 2.094 . S
Mn145 O150 2.121 . S
Mn145 N152 2.257 . S
Mn145 N161 2.282 . S
Mn145 O169 2.215 . S
Mn145 O171 2.117 . S
C146 O168 1.234 . S
C146 O169 1.283 . S
C147 O159 1.281 . S
C147 O160 1.236 . S
C148 O170 1.240 . S
C148 O171 1.264 . S
O149 Mn144 2.095 . S
O149 C158 1.250 . S
O150 Mn145 2.121 . S
O150 C158 1.258 . S
C151 N152 1.326 . S
C151 C155 1.460 . S
C151 H157 0.929 . S
N152 Mn145 2.257 . S
N152 C151 1.326 . S
N152 C156 1.362 . S
C153 C154 1.258 . S
C153 C156 1.431 . S
C153 C173 1.449 . S
C154 C153 1.258 . S
C154 C155 1.477 . S
C154 H174 0.931 . S
C155 C151 1.460 . S
C155 C154 1.477 . S
C155 H175 0.930 . S
C156 N152 1.362 . S
C156 C153 1.431 . S
C156 C166 1.476 . S
H157 C151 0.929 . S
C158 O149 1.250 . S
C158 O150 1.258 . S
O159 Mn144 2.162 . S
O159 C147 1.281 . S
O160 Mn144 2.297 . S
O160 C147 1.236 . S
N161 Mn145 2.282 . S
N161 C162 1.328 . S
N161 C166 1.318 . S
C162 N161 1.328 . S
C162 C163 1.457 . S
C162 H167 0.929 . S
C163 C162 1.457 . S
C163 C164 1.291 . S
C163 H176 0.931 . S
C164 C163 1.291 . S
C164 C165 1.373 . S
C164 H177 0.929 . S
C165 C164 1.373 . S
C165 C166 1.396 . S
C165 C172 1.403 . S
C166 C156 1.476 . S
C166 N161 1.318 . S
C166 C165 1.396 . S
H167 C162 0.929 . S
O168 Mn144 2.385 . S
O168 C146 1.234 . S
O169 Mn144 2.209 . S
O169 Mn145 2.215 . S
O169 C146 1.283 . S
O170 Mn144 2.094 . S
O170 C148 1.240 . S
O171 Mn145 2.117 . S
O171 C148 1.264 . S
C172 C165 1.403 . S
C172 C173 1.399 . S
C172 H178 0.929 . S
C173 C153 1.449 . S
C173 C172 1.399 . S
C173 H179 0.930 . S
H174 C154 0.931 . S
H175 C155 0.930 . S
H176 C163 0.931 . S
H177 C164 0.929 . S
H178 C172 0.929 . S
H179 C173 0.930 . S
Mn180 O185 2.095 . S
Mn180 O195 2.162 . S
Mn180 O196 2.297 . S
Mn180 O204 2.385 . S
Mn180 O205 2.209 . S
Mn180 O206 2.094 . S
Mn181 O186 2.121 . S
Mn181 N188 2.257 . S
Mn181 N197 2.282 . S
Mn181 O205 2.215 . S
Mn181 O207 2.117 . S
C182 O204 1.234 . S
C182 O205 1.283 . S
C183 O195 1.281 . S
C183 O196 1.236 . S
C184 O206 1.240 . S
C184 O207 1.264 . S
O185 Mn180 2.095 . S
O185 C194 1.250 . S
O186 Mn181 2.121 . S
O186 C194 1.258 . S
C187 N188 1.326 . S
C187 C191 1.460 . S
C187 H193 0.929 . S
N188 Mn181 2.257 . S
N188 C187 1.326 . S
N188 C192 1.362 . S
C189 C190 1.258 . S
C189 C192 1.431 . S
C189 C209 1.449 . S
C190 C189 1.258 . S
C190 C191 1.477 . S
C190 H210 0.931 . S
C191 C187 1.460 . S
C191 C190 1.477 . S
C191 H211 0.930 . S
C192 N188 1.362 . S
C192 C189 1.431 . S
C192 C202 1.476 . S
H193 C187 0.929 . S
C194 O185 1.250 . S
C194 O186 1.258 . S
O195 Mn180 2.162 . S
O195 C183 1.281 . S
O196 Mn180 2.297 . S
O196 C183 1.236 . S
N197 Mn181 2.282 . S
N197 C198 1.328 . S
N197 C202 1.318 . S
C198 N197 1.328 . S
C198 C199 1.457 . S
C198 H203 0.929 . S
C199 C198 1.457 . S
C199 C200 1.291 . S
C199 H212 0.931 . S
C200 C199 1.291 . S
C200 C201 1.373 . S
C200 H213 0.929 . S
C201 C200 1.373 . S
C201 C202 1.396 . S
C201 C208 1.403 . S
C202 C192 1.476 . S
C202 N197 1.318 . S
C202 C201 1.396 . S
H203 C198 0.929 . S
O204 Mn180 2.385 . S
O204 C182 1.234 . S
O205 Mn180 2.209 . S
O205 Mn181 2.215 . S
O205 C182 1.283 . S
O206 Mn180 2.094 . S
O206 C184 1.240 . S
O207 Mn181 2.117 . S
O207 C184 1.264 . S
C208 C201 1.403 . S
C208 C209 1.399 . S
C208 H214 0.929 . S
C209 C189 1.449 . S
C209 C208 1.399 . S
C209 H215 0.930 . S
H210 C190 0.931 . S
H211 C191 0.930 . S
H212 C199 0.931 . S
H213 C200 0.929 . S
H214 C208 0.929 . S
H215 C209 0.930 . S
Mn216 O221 2.095 . S
Mn216 O231 2.162 . S
Mn216 O232 2.297 . S
Mn216 O240 2.385 . S
Mn216 O241 2.209 . S
Mn216 O242 2.094 . S
Mn217 O222 2.121 . S
Mn217 N224 2.257 . S
Mn217 N233 2.282 . S
Mn217 O241 2.215 . S
Mn217 O243 2.117 . S
C218 O240 1.234 . S
C218 O241 1.283 . S
C219 O231 1.281 . S
C219 O232 1.236 . S
C220 O242 1.240 . S
C220 O243 1.264 . S
O221 Mn216 2.095 . S
O221 C230 1.250 . S
O222 Mn217 2.121 . S
O222 C230 1.258 . S
C223 N224 1.326 . S
C223 C227 1.460 . S
C223 H229 0.929 . S
N224 Mn217 2.257 . S
N224 C223 1.326 . S
N224 C228 1.362 . S
C225 C226 1.258 . S
C225 C228 1.431 . S
C225 C245 1.449 . S
C226 C225 1.258 . S
C226 C227 1.477 . S
C226 H246 0.931 . S
C227 C223 1.460 . S
C227 C226 1.477 . S
C227 H247 0.930 . S
C228 N224 1.362 . S
C228 C225 1.431 . S
C228 C238 1.476 . S
H229 C223 0.929 . S
C230 O221 1.250 . S
C230 O222 1.258 . S
O231 Mn216 2.162 . S
O231 C219 1.281 . S
O232 Mn216 2.297 . S
O232 C219 1.236 . S
N233 Mn217 2.282 . S
N233 C234 1.328 . S
N233 C238 1.318 . S
C234 N233 1.328 . S
C234 C235 1.457 . S
C234 H239 0.929 . S
C235 C234 1.457 . S
C235 C236 1.291 . S
C235 H248 0.931 . S
C236 C235 1.291 . S
C236 C237 1.373 . S
C236 H249 0.929 . S
C237 C236 1.373 . S
C237 C238 1.396 . S
C237 C244 1.403 . S
C238 C228 1.476 . S
C238 N233 1.318 . S
C238 C237 1.396 . S
H239 C234 0.929 . S
O240 Mn216 2.385 . S
O240 C218 1.234 . S
O241 Mn216 2.209 . S
O241 Mn217 2.215 . S
O241 C218 1.283 . S
O242 Mn216 2.094 . S
O242 C220 1.240 . S
O243 Mn217 2.117 . S
O243 C220 1.264 . S
C244 C237 1.403 . S
C244 C245 1.399 . S
C244 H250 0.929 . S
C245 C225 1.449 . S
C245 C244 1.399 . S
C245 H251 0.930 . S
H246 C226 0.931 . S
H247 C227 0.930 . S
H248 C235 0.931 . S
H249 C236 0.929 . S
H250 C244 0.929 . S
H251 C245 0.930 . S
Mn252 O257 2.095 . S
Mn252 O267 2.162 . S
Mn252 O268 2.297 . S
Mn252 O276 2.385 . S
Mn252 O277 2.209 . S
Mn252 O278 2.094 . S
Mn253 O258 2.121 . S
Mn253 N260 2.257 . S
Mn253 N269 2.282 . S
Mn253 O277 2.215 . S
Mn253 O279 2.117 . S
C254 O276 1.234 . S
C254 O277 1.283 . S
C255 O267 1.281 . S
C255 O268 1.236 . S
C256 O278 1.240 . S
C256 O279 1.264 . S
O257 Mn252 2.095 . S
O257 C266 1.250 . S
O258 Mn253 2.121 . S
O258 C266 1.258 . S
C259 N260 1.326 . S
C259 C263 1.460 . S
C259 H265 0.929 . S
N260 Mn253 2.257 . S
N260 C259 1.326 . S
N260 C264 1.362 . S
C261 C262 1.258 . S
C261 C264 1.431 . S
C261 C281 1.449 . S
C262 C261 1.258 . S
C262 C263 1.477 . S
C262 H282 0.931 . S
C263 C259 1.460 . S
C263 C262 1.477 . S
C263 H283 0.930 . S
C264 N260 1.362 . S
C264 C261 1.431 . S
C264 C274 1.476 . S
H265 C259 0.929 . S
C266 O257 1.250 . S
C266 O258 1.258 . S
O267 Mn252 2.162 . S
O267 C255 1.281 . S
O268 Mn252 2.297 . S
O268 C255 1.236 . S
N269 Mn253 2.282 . S
N269 C270 1.328 . S
N269 C274 1.318 . S
C270 N269 1.328 . S
C270 C271 1.457 . S
C270 H275 0.929 . S
C271 C270 1.457 . S
C271 C272 1.291 . S
C271 H284 0.931 . S
C272 C271 1.291 . S
C272 C273 1.373 . S
C272 H285 0.929 . S
C273 C272 1.373 . S
C273 C274 1.396 . S
C273 C280 1.403 . S
C274 C264 1.476 . S
C274 N269 1.318 . S
C274 C273 1.396 . S
H275 C270 0.929 . S
O276 Mn252 2.385 . S
O276 C254 1.234 . S
O277 Mn252 2.209 . S
O277 Mn253 2.215 . S
O277 C254 1.283 . S
O278 Mn252 2.094 . S
O278 C256 1.240 . S
O279 Mn253 2.117 . S
O279 C256 1.264 . S
C280 C273 1.403 . S
C280 C281 1.399 . S
C280 H286 0.929 . S
C281 C261 1.449 . S
C281 C280 1.399 . S
C281 H287 0.930 . S
H282 C262 0.931 . S
H283 C263 0.930 . S
H284 C271 0.931 . S
H285 C272 0.929 . S
H286 C280 0.929 . S
H287 C281 0.930 . S
Mn288 O293 2.095 . S
Mn288 O303 2.162 . S
Mn288 O304 2.297 . S
Mn288 O312 2.385 . S
Mn288 O313 2.209 . S
Mn288 O314 2.094 . S
Mn289 O294 2.121 . S
Mn289 N296 2.257 . S
Mn289 N305 2.282 . S
Mn289 O313 2.215 . S
Mn289 O315 2.117 . S
C290 O312 1.234 . S
C290 O313 1.283 . S
C291 O303 1.281 . S
C291 O304 1.236 . S
C292 O314 1.240 . S
C292 O315 1.264 . S
O293 Mn288 2.095 . S
O293 C302 1.250 . S
O294 Mn289 2.121 . S
O294 C302 1.258 . S
C295 N296 1.326 . S
C295 C299 1.460 . S
C295 H301 0.929 . S
N296 Mn289 2.257 . S
N296 C295 1.326 . S
N296 C300 1.362 . S
C297 C298 1.258 . S
C297 C300 1.431 . S
C297 C317 1.449 . S
C298 C297 1.258 . S
C298 C299 1.477 . S
C298 H318 0.931 . S
C299 C295 1.460 . S
C299 C298 1.477 . S
C299 H319 0.930 . S
C300 N296 1.362 . S
C300 C297 1.431 . S
C300 C310 1.476 . S
H301 C295 0.929 . S
C302 O293 1.250 . S
C302 O294 1.258 . S
O303 Mn288 2.162 . S
O303 C291 1.281 . S
O304 Mn288 2.297 . S
O304 C291 1.236 . S
N305 Mn289 2.282 . S
N305 C306 1.328 . S
N305 C310 1.318 . S
C306 N305 1.328 . S
C306 C307 1.457 . S
C306 H311 0.929 . S
C307 C306 1.457 . S
C307 C308 1.291 . S
C307 H320 0.931 . S
C308 C307 1.291 . S
C308 C309 1.373 . S
C308 H321 0.929 . S
C309 C308 1.373 . S
C309 C310 1.396 . S
C309 C316 1.403 . S
C310 C300 1.476 . S
C310 N305 1.318 . S
C310 C309 1.396 . S
H311 C306 0.929 . S
O312 Mn288 2.385 . S
O312 C290 1.234 . S
O313 Mn288 2.209 . S
O313 Mn289 2.215 . S
O313 C290 1.283 . S
O314 Mn288 2.094 . S
O314 C292 1.240 . S
O315 Mn289 2.117 . S
O315 C292 1.264 . S
C316 C309 1.403 . S
C316 C317 1.399 . S
C316 H322 0.929 . S
C317 C297 1.449 . S
C317 C316 1.399 . S
C317 H323 0.930 . S
H318 C298 0.931 . S
H319 C299 0.930 . S
H320 C307 0.931 . S
H321 C308 0.929 . S
H322 C316 0.929 . S
H323 C317 0.930 . S
Mn324 O329 2.095 . S
Mn324 O339 2.162 . S
Mn324 O340 2.297 . S
Mn324 O348 2.385 . S
Mn324 O349 2.209 . S
Mn324 O350 2.094 . S
Mn325 O330 2.121 . S
Mn325 N332 2.257 . S
Mn325 N341 2.282 . S
Mn325 O349 2.215 . S
Mn325 O351 2.117 . S
C326 O348 1.234 . S
C326 O349 1.283 . S
C327 O339 1.281 . S
C327 O340 1.236 . S
C328 O350 1.240 . S
C328 O351 1.264 . S
O329 Mn324 2.095 . S
O329 C338 1.250 . S
O330 Mn325 2.121 . S
O330 C338 1.258 . S
C331 N332 1.326 . S
C331 C335 1.460 . S
C331 H337 0.929 . S
N332 Mn325 2.257 . S
N332 C331 1.326 . S
N332 C336 1.362 . S
C333 C334 1.258 . S
C333 C336 1.431 . S
C333 C353 1.449 . S
C334 C333 1.258 . S
C334 C335 1.477 . S
C334 H354 0.931 . S
C335 C331 1.460 . S
C335 C334 1.477 . S
C335 H355 0.930 . S
C336 N332 1.362 . S
C336 C333 1.431 . S
C336 C346 1.476 . S
H337 C331 0.929 . S
C338 O329 1.250 . S
C338 O330 1.258 . S
O339 Mn324 2.162 . S
O339 C327 1.281 . S
O340 Mn324 2.297 . S
O340 C327 1.236 . S
N341 Mn325 2.282 . S
N341 C342 1.328 . S
N341 C346 1.318 . S
C342 N341 1.328 . S
C342 C343 1.457 . S
C342 H347 0.929 . S
C343 C342 1.457 . S
C343 C344 1.291 . S
C343 H356 0.931 . S
C344 C343 1.291 . S
C344 C345 1.373 . S
C344 H357 0.929 . S
C345 C344 1.373 . S
C345 C346 1.396 . S
C345 C352 1.403 . S
C346 C336 1.476 . S
C346 N341 1.318 . S
C346 C345 1.396 . S
H347 C342 0.929 . S
O348 Mn324 2.385 . S
O348 C326 1.234 . S
O349 Mn324 2.209 . S
O349 Mn325 2.215 . S
O349 C326 1.283 . S
O350 Mn324 2.094 . S
O350 C328 1.240 . S
O351 Mn325 2.117 . S
O351 C328 1.264 . S
C352 C345 1.403 . S
C352 C353 1.399 . S
C352 H358 0.929 . S
C353 C333 1.449 . S
C353 C352 1.399 . S
C353 H359 0.930 . S
H354 C334 0.931 . S
H355 C335 0.930 . S
H356 C343 0.931 . S
H357 C344 0.929 . S
H358 C352 0.929 . S
H359 C353 0.930 . S
Mn360 O365 2.095 . S
Mn360 O375 2.162 . S
Mn360 O376 2.297 . S
Mn360 O384 2.385 . S
Mn360 O385 2.209 . S
Mn360 O386 2.094 . S
Mn361 O366 2.121 . S
Mn361 N368 2.257 . S
Mn361 N377 2.282 . S
Mn361 O385 2.215 . S
Mn361 O387 2.117 . S
C362 O384 1.234 . S
C362 O385 1.283 . S
C363 O375 1.281 . S
C363 O376 1.236 . S
C364 O386 1.240 . S
C364 O387 1.264 . S
O365 Mn360 2.095 . S
O365 C374 1.250 . S
O366 Mn361 2.121 . S
O366 C374 1.258 . S
C367 N368 1.326 . S
C367 C371 1.460 . S
C367 H373 0.929 . S
N368 Mn361 2.257 . S
N368 C367 1.326 . S
N368 C372 1.362 . S
C369 C370 1.258 . S
C369 C372 1.431 . S
C369 C389 1.449 . S
C370 C369 1.258 . S
C370 C371 1.477 . S
C370 H390 0.931 . S
C371 C367 1.460 . S
C371 C370 1.477 . S
C371 H391 0.930 . S
C372 N368 1.362 . S
C372 C369 1.431 . S
C372 C382 1.476 . S
H373 C367 0.929 . S
C374 O365 1.250 . S
C374 O366 1.258 . S
O375 Mn360 2.162 . S
O375 C363 1.281 . S
O376 Mn360 2.297 . S
O376 C363 1.236 . S
N377 Mn361 2.282 . S
N377 C378 1.328 . S
N377 C382 1.318 . S
C378 N377 1.328 . S
C378 C379 1.457 . S
C378 H383 0.929 . S
C379 C378 1.457 . S
C379 C380 1.291 . S
C379 H392 0.931 . S
C380 C379 1.291 . S
C380 C381 1.373 . S
C380 H393 0.929 . S
C381 C380 1.373 . S
C381 C382 1.396 . S
C381 C388 1.403 . S
C382 C372 1.476 . S
C382 N377 1.318 . S
C382 C381 1.396 . S
H383 C378 0.929 . S
O384 Mn360 2.385 . S
O384 C362 1.234 . S
O385 Mn360 2.209 . S
O385 Mn361 2.215 . S
O385 C362 1.283 . S
O386 Mn360 2.094 . S
O386 C364 1.240 . S
O387 Mn361 2.117 . S
O387 C364 1.264 . S
C388 C381 1.403 . S
C388 C389 1.399 . S
C388 H394 0.929 . S
C389 C369 1.449 . S
C389 C388 1.399 . S
C389 H395 0.930 . S
H390 C370 0.931 . S
H391 C371 0.930 . S
H392 C379 0.931 . S
H393 C380 0.929 . S
H394 C388 0.929 . S
H395 C389 0.930 . S
Mn396 O401 2.095 . S
Mn396 O411 2.162 . S
Mn396 O412 2.297 . S
Mn396 O420 2.385 . S
Mn396 O421 2.209 . S
Mn396 O422 2.094 . S
Mn397 O402 2.121 . S
Mn397 N404 2.257 . S
Mn397 N413 2.282 . S
Mn397 O421 2.215 . S
Mn397 O423 2.117 . S
C398 O420 1.234 . S
C398 O421 1.283 . S
C399 O411 1.281 . S
C399 O412 1.236 . S
C400 O422 1.240 . S
C400 O423 1.264 . S
O401 Mn396 2.095 . S
O401 C410 1.250 . S
O402 Mn397 2.121 . S
O402 C410 1.258 . S
C403 N404 1.326 . S
C403 C407 1.460 . S
C403 H409 0.929 . S
N404 Mn397 2.257 . S
N404 C403 1.326 . S
N404 C408 1.362 . S
C405 C406 1.258 . S
C405 C408 1.431 . S
C405 C425 1.449 . S
C406 C405 1.258 . S
C406 C407 1.477 . S
C406 H426 0.931 . S
C407 C403 1.460 . S
C407 C406 1.477 . S
C407 H427 0.930 . S
C408 N404 1.362 . S
C408 C405 1.431 . S
C408 C418 1.476 . S
H409 C403 0.929 . S
C410 O401 1.250 . S
C410 O402 1.258 . S
O411 Mn396 2.162 . S
O411 C399 1.281 . S
O412 Mn396 2.297 . S
O412 C399 1.236 . S
N413 Mn397 2.282 . S
N413 C414 1.328 . S
N413 C418 1.318 . S
C414 N413 1.328 . S
C414 C415 1.457 . S
C414 H419 0.929 . S
C415 C414 1.457 . S
C415 C416 1.291 . S
C415 H428 0.931 . S
C416 C415 1.291 . S
C416 C417 1.373 . S
C416 H429 0.929 . S
C417 C416 1.373 . S
C417 C418 1.396 . S
C417 C424 1.403 . S
C418 C408 1.476 . S
C418 N413 1.318 . S
C418 C417 1.396 . S
H419 C414 0.929 . S
O420 Mn396 2.385 . S
O420 C398 1.234 . S
O421 Mn396 2.209 . S
O421 Mn397 2.215 . S
O421 C398 1.283 . S
O422 Mn396 2.094 . S
O422 C400 1.240 . S
O423 Mn397 2.117 . S
O423 C400 1.264 . S
C424 C417 1.403 . S
C424 C425 1.399 . S
C424 H430 0.929 . S
C425 C405 1.449 . S
C425 C424 1.399 . S
C425 H431 0.930 . S
H426 C406 0.931 . S
H427 C407 0.930 . S
H428 C415 0.931 . S
H429 C416 0.929 . S
H430 C424 0.929 . S
H431 C425 0.930 . S
Mn432 O437 2.095 . S
Mn432 O447 2.162 . S
Mn432 O448 2.297 . S
Mn432 O456 2.385 . S
Mn432 O457 2.209 . S
Mn432 O458 2.094 . S
Mn433 O438 2.121 . S
Mn433 N440 2.257 . S
Mn433 N449 2.282 . S
Mn433 O457 2.215 . S
Mn433 O459 2.117 . S
C434 O456 1.234 . S
C434 O457 1.283 . S
C435 O447 1.281 . S
C435 O448 1.236 . S
C436 O458 1.240 . S
C436 O459 1.264 . S
O437 Mn432 2.095 . S
O437 C446 1.250 . S
O438 Mn433 2.121 . S
O438 C446 1.258 . S
C439 N440 1.326 . S
C439 C443 1.460 . S
C439 H445 0.929 . S
N440 Mn433 2.257 . S
N440 C439 1.326 . S
N440 C444 1.362 . S
C441 C442 1.258 . S
C441 C444 1.431 . S
C441 C461 1.449 . S
C442 C441 1.258 . S
C442 C443 1.477 . S
C442 H462 0.931 . S
C443 C439 1.460 . S
C443 C442 1.477 . S
C443 H463 0.930 . S
C444 N440 1.362 . S
C444 C441 1.431 . S
C444 C454 1.476 . S
H445 C439 0.929 . S
C446 O437 1.250 . S
C446 O438 1.258 . S
O447 Mn432 2.162 . S
O447 C435 1.281 . S
O448 Mn432 2.297 . S
O448 C435 1.236 . S
N449 Mn433 2.282 . S
N449 C450 1.328 . S
N449 C454 1.318 . S
C450 N449 1.328 . S
C450 C451 1.457 . S
C450 H455 0.929 . S
C451 C450 1.457 . S
C451 C452 1.291 . S
C451 H464 0.931 . S
C452 C451 1.291 . S
C452 C453 1.373 . S
C452 H465 0.929 . S
C453 C452 1.373 . S
C453 C454 1.396 . S
C453 C460 1.403 . S
C454 C444 1.476 . S
C454 N449 1.318 . S
C454 C453 1.396 . S
H455 C450 0.929 . S
O456 Mn432 2.385 . S
O456 C434 1.234 . S
O457 Mn432 2.209 . S
O457 Mn433 2.215 . S
O457 C434 1.283 . S
O458 Mn432 2.094 . S
O458 C436 1.240 . S
O459 Mn433 2.117 . S
O459 C436 1.264 . S
C460 C453 1.403 . S
C460 C461 1.399 . S
C460 H466 0.929 . S
C461 C441 1.449 . S
C461 C460 1.399 . S
C461 H467 0.930 . S
H462 C442 0.931 . S
H463 C443 0.930 . S
H464 C451 0.931 . S
H465 C452 0.929 . S
H466 C460 0.929 . S
H467 C461 0.930 . S
Mn468 O473 2.095 . S
Mn468 O483 2.162 . S
Mn468 O484 2.297 . S
Mn468 O492 2.385 . S
Mn468 O493 2.209 . S
Mn468 O494 2.094 . S
Mn469 O474 2.121 . S
Mn469 N476 2.257 . S
Mn469 N485 2.282 . S
Mn469 O493 2.215 . S
Mn469 O495 2.117 . S
C470 O492 1.234 . S
C470 O493 1.283 . S
C471 O483 1.281 . S
C471 O484 1.236 . S
C472 O494 1.240 . S
C472 O495 1.264 . S
O473 Mn468 2.095 . S
O473 C482 1.250 . S
O474 Mn469 2.121 . S
O474 C482 1.258 . S
C475 N476 1.326 . S
C475 C479 1.460 . S
C475 H481 0.929 . S
N476 Mn469 2.257 . S
N476 C475 1.326 . S
N476 C480 1.362 . S
C477 C478 1.258 . S
C477 C480 1.431 . S
C477 C497 1.449 . S
C478 C477 1.258 . S
C478 C479 1.477 . S
C478 H498 0.931 . S
C479 C475 1.460 . S
C479 C478 1.477 . S
C479 H499 0.930 . S
C480 N476 1.362 . S
C480 C477 1.431 . S
C480 C490 1.476 . S
H481 C475 0.929 . S
C482 O473 1.250 . S
C482 O474 1.258 . S
O483 Mn468 2.162 . S
O483 C471 1.281 . S
O484 Mn468 2.297 . S
O484 C471 1.236 . S
N485 Mn469 2.282 . S
N485 C486 1.328 . S
N485 C490 1.318 . S
C486 N485 1.328 . S
C486 C487 1.457 . S
C486 H491 0.929 . S
C487 C486 1.457 . S
C487 C488 1.291 . S
C487 H500 0.931 . S
C488 C487 1.291 . S
C488 C489 1.373 . S
C488 H501 0.929 . S
C489 C488 1.373 . S
C489 C490 1.396 . S
C489 C496 1.403 . S
C490 C480 1.476 . S
C490 N485 1.318 . S
C490 C489 1.396 . S
H491 C486 0.929 . S
O492 Mn468 2.385 . S
O492 C470 1.234 . S
O493 Mn468 2.209 . S
O493 Mn469 2.215 . S
O493 C470 1.283 . S
O494 Mn468 2.094 . S
O494 C472 1.240 . S
O495 Mn469 2.117 . S
O495 C472 1.264 . S
C496 C489 1.403 . S
C496 C497 1.399 . S
C496 H502 0.929 . S
C497 C477 1.449 . S
C497 C496 1.399 . S
C497 H503 0.930 . S
H498 C478 0.931 . S
H499 C479 0.930 . S
H500 C487 0.931 . S
H501 C488 0.929 . S
H502 C496 0.929 . S
H503 C497 0.930 . S
Mn504 O509 2.095 . S
Mn504 O519 2.162 . S
Mn504 O520 2.297 . S
Mn504 O528 2.385 . S
Mn504 O529 2.209 . S
Mn504 O530 2.094 . S
Mn505 O510 2.121 . S
Mn505 N512 2.257 . S
Mn505 N521 2.282 . S
Mn505 O529 2.215 . S
Mn505 O531 2.117 . S
C506 O528 1.234 . S
C506 O529 1.283 . S
C507 O519 1.281 . S
C507 O520 1.236 . S
C508 O530 1.240 . S
C508 O531 1.264 . S
O509 Mn504 2.095 . S
O509 C518 1.250 . S
O510 Mn505 2.121 . S
O510 C518 1.258 . S
C511 N512 1.326 . S
C511 C515 1.460 . S
C511 H517 0.929 . S
N512 Mn505 2.257 . S
N512 C511 1.326 . S
N512 C516 1.362 . S
C513 C514 1.258 . S
C513 C516 1.431 . S
C513 C533 1.449 . S
C514 C513 1.258 . S
C514 C515 1.477 . S
C514 H534 0.931 . S
C515 C511 1.460 . S
C515 C514 1.477 . S
C515 H535 0.930 . S
C516 N512 1.362 . S
C516 C513 1.431 . S
C516 C526 1.476 . S
H517 C511 0.929 . S
C518 O509 1.250 . S
C518 O510 1.258 . S
O519 Mn504 2.162 . S
O519 C507 1.281 . S
O520 Mn504 2.297 . S
O520 C507 1.236 . S
N521 Mn505 2.282 . S
N521 C522 1.328 . S
N521 C526 1.318 . S
C522 N521 1.328 . S
C522 C523 1.457 . S
C522 H527 0.929 . S
C523 C522 1.457 . S
C523 C524 1.291 . S
C523 H536 0.931 . S
C524 C523 1.291 . S
C524 C525 1.373 . S
C524 H537 0.929 . S
C525 C524 1.373 . S
C525 C526 1.396 . S
C525 C532 1.403 . S
C526 C516 1.476 . S
C526 N521 1.318 . S
C526 C525 1.396 . S
H527 C522 0.929 . S
O528 Mn504 2.385 . S
O528 C506 1.234 . S
O529 Mn504 2.209 . S
O529 Mn505 2.215 . S
O529 C506 1.283 . S
O530 Mn504 2.094 . S
O530 C508 1.240 . S
O531 Mn505 2.117 . S
O531 C508 1.264 . S
C532 C525 1.403 . S
C532 C533 1.399 . S
C532 H538 0.929 . S
C533 C513 1.449 . S
C533 C532 1.399 . S
C533 H539 0.930 . S
H534 C514 0.931 . S
H535 C515 0.930 . S
H536 C523 0.931 . S
H537 C524 0.929 . S
H538 C532 0.929 . S
H539 C533 0.930 . S
Mn540 O545 2.095 . S
Mn540 O555 2.162 . S
Mn540 O556 2.297 . S
Mn540 O564 2.385 . S
Mn540 O565 2.209 . S
Mn540 O566 2.094 . S
Mn541 O546 2.121 . S
Mn541 N548 2.257 . S
Mn541 N557 2.282 . S
Mn541 O565 2.215 . S
Mn541 O567 2.117 . S
C542 O564 1.234 . S
C542 O565 1.283 . S
C543 O555 1.281 . S
C543 O556 1.236 . S
C544 O566 1.240 . S
C544 O567 1.264 . S
O545 Mn540 2.095 . S
O545 C554 1.250 . S
O546 Mn541 2.121 . S
O546 C554 1.258 . S
C547 N548 1.326 . S
C547 C551 1.460 . S
C547 H553 0.929 . S
N548 Mn541 2.257 . S
N548 C547 1.326 . S
N548 C552 1.362 . S
C549 C550 1.258 . S
C549 C552 1.431 . S
C549 C569 1.449 . S
C550 C549 1.258 . S
C550 C551 1.477 . S
C550 H570 0.931 . S
C551 C547 1.460 . S
C551 C550 1.477 . S
C551 H571 0.930 . S
C552 N548 1.362 . S
C552 C549 1.431 . S
C552 C562 1.476 . S
H553 C547 0.929 . S
C554 O545 1.250 . S
C554 O546 1.258 . S
O555 Mn540 2.162 . S
O555 C543 1.281 . S
O556 Mn540 2.297 . S
O556 C543 1.236 . S
N557 Mn541 2.282 . S
N557 C558 1.328 . S
N557 C562 1.318 . S
C558 N557 1.328 . S
C558 C559 1.457 . S
C558 H563 0.929 . S
C559 C558 1.457 . S
C559 C560 1.291 . S
C559 H572 0.931 . S
C560 C559 1.291 . S
C560 C561 1.373 . S
C560 H573 0.929 . S
C561 C560 1.373 . S
C561 C562 1.396 . S
C561 C568 1.403 . S
C562 C552 1.476 . S
C562 N557 1.318 . S
C562 C561 1.396 . S
H563 C558 0.929 . S
O564 Mn540 2.385 . S
O564 C542 1.234 . S
O565 Mn540 2.209 . S
O565 Mn541 2.215 . S
O565 C542 1.283 . S
O566 Mn540 2.094 . S
O566 C544 1.240 . S
O567 Mn541 2.117 . S
O567 C544 1.264 . S
C568 C561 1.403 . S
C568 C569 1.399 . S
C568 H574 0.929 . S
C569 C549 1.449 . S
C569 C568 1.399 . S
C569 H575 0.930 . S
H570 C550 0.931 . S
H571 C551 0.930 . S
H572 C559 0.931 . S
H573 C560 0.929 . S
H574 C568 0.929 . S
H575 C569 0.930 . S
Mn576 O581 2.095 . S
Mn576 O591 2.162 . S
Mn576 O592 2.297 . S
Mn576 O600 2.385 . S
Mn576 O601 2.209 . S
Mn576 O602 2.094 . S
Mn577 O582 2.121 . S
Mn577 N584 2.257 . S
Mn577 N593 2.282 . S
Mn577 O601 2.215 . S
Mn577 O603 2.117 . S
C578 O600 1.234 . S
C578 O601 1.283 . S
C579 O591 1.281 . S
C579 O592 1.236 . S
C580 O602 1.240 . S
C580 O603 1.264 . S
O581 Mn576 2.095 . S
O581 C590 1.250 . S
O582 Mn577 2.121 . S
O582 C590 1.258 . S
C583 N584 1.326 . S
C583 C587 1.460 . S
C583 H589 0.929 . S
N584 Mn577 2.257 . S
N584 C583 1.326 . S
N584 C588 1.362 . S
C585 C586 1.258 . S
C585 C588 1.431 . S
C585 C605 1.449 . S
C586 C585 1.258 . S
C586 C587 1.477 . S
C586 H606 0.931 . S
C587 C583 1.460 . S
C587 C586 1.477 . S
C587 H607 0.930 . S
C588 N584 1.362 . S
C588 C585 1.431 . S
C588 C598 1.476 . S
H589 C583 0.929 . S
C590 O581 1.250 . S
C590 O582 1.258 . S
O591 Mn576 2.162 . S
O591 C579 1.281 . S
O592 Mn576 2.297 . S
O592 C579 1.236 . S
N593 Mn577 2.282 . S
N593 C594 1.328 . S
N593 C598 1.318 . S
C594 N593 1.328 . S
C594 C595 1.457 . S
C594 H599 0.929 . S
C595 C594 1.457 . S
C595 C596 1.291 . S
C595 H608 0.931 . S
C596 C595 1.291 . S
C596 C597 1.373 . S
C596 H609 0.929 . S
C597 C596 1.373 . S
C597 C598 1.396 . S
C597 C604 1.403 . S
C598 C588 1.476 . S
C598 N593 1.318 . S
C598 C597 1.396 . S
H599 C594 0.929 . S
O600 Mn576 2.385 . S
O600 C578 1.234 . S
O601 Mn576 2.209 . S
O601 Mn577 2.215 . S
O601 C578 1.283 . S
O602 Mn576 2.094 . S
O602 C580 1.240 . S
O603 Mn577 2.117 . S
O603 C580 1.264 . S
C604 C597 1.403 . S
C604 C605 1.399 . S
C604 H610 0.929 . S
C605 C585 1.449 . S
C605 C604 1.399 . S
C605 H611 0.930 . S
H606 C586 0.931 . S
H607 C587 0.930 . S
H608 C595 0.931 . S
H609 C596 0.929 . S
H610 C604 0.929 . S
H611 C605 0.930 . S
Mn612 O617 2.095 . S
Mn612 O627 2.162 . S
Mn612 O628 2.297 . S
Mn612 O636 2.385 . S
Mn612 O637 2.209 . S
Mn612 O638 2.094 . S
Mn613 O618 2.121 . S
Mn613 N620 2.257 . S
Mn613 N629 2.282 . S
Mn613 O637 2.215 . S
Mn613 O639 2.117 . S
C614 O636 1.234 . S
C614 O637 1.283 . S
C615 O627 1.281 . S
C615 O628 1.236 . S
C616 O638 1.240 . S
C616 O639 1.264 . S
O617 Mn612 2.095 . S
O617 C626 1.250 . S
O618 Mn613 2.121 . S
O618 C626 1.258 . S
C619 N620 1.326 . S
C619 C623 1.460 . S
C619 H625 0.929 . S
N620 Mn613 2.257 . S
N620 C619 1.326 . S
N620 C624 1.362 . S
C621 C622 1.258 . S
C621 C624 1.431 . S
C621 C641 1.449 . S
C622 C621 1.258 . S
C622 C623 1.477 . S
C622 H642 0.931 . S
C623 C619 1.460 . S
C623 C622 1.477 . S
C623 H643 0.930 . S
C624 N620 1.362 . S
C624 C621 1.431 . S
C624 C634 1.476 . S
H625 C619 0.929 . S
C626 O617 1.250 . S
C626 O618 1.258 . S
O627 Mn612 2.162 . S
O627 C615 1.281 . S
O628 Mn612 2.297 . S
O628 C615 1.236 . S
N629 Mn613 2.282 . S
N629 C630 1.328 . S
N629 C634 1.318 . S
C630 N629 1.328 . S
C630 C631 1.457 . S
C630 H635 0.929 . S
C631 C630 1.457 . S
C631 C632 1.291 . S
C631 H644 0.931 . S
C632 C631 1.291 . S
C632 C633 1.373 . S
C632 H645 0.929 . S
C633 C632 1.373 . S
C633 C634 1.396 . S
C633 C640 1.403 . S
C634 C624 1.476 . S
C634 N629 1.318 . S
C634 C633 1.396 . S
H635 C630 0.929 . S
O636 Mn612 2.385 . S
O636 C614 1.234 . S
O637 Mn612 2.209 . S
O637 Mn613 2.215 . S
O637 C614 1.283 . S
O638 Mn612 2.094 . S
O638 C616 1.240 . S
O639 Mn613 2.117 . S
O639 C616 1.264 . S
C640 C633 1.403 . S
C640 C641 1.399 . S
C640 H646 0.929 . S
C641 C621 1.449 . S
C641 C640 1.399 . S
C641 H647 0.930 . S
H642 C622 0.931 . S
H643 C623 0.930 . S
H644 C631 0.931 . S
H645 C632 0.929 . S
H646 C640 0.929 . S
H647 C641 0.930 . S
Mn648 O653 2.095 . S
Mn648 O663 2.162 . S
Mn648 O664 2.297 . S
Mn648 O672 2.385 . S
Mn648 O673 2.209 . S
Mn648 O674 2.094 . S
Mn649 O654 2.121 . S
Mn649 N656 2.257 . S
Mn649 N665 2.282 . S
Mn649 O673 2.215 . S
Mn649 O675 2.117 . S
C650 O672 1.234 . S
C650 O673 1.283 . S
C651 O663 1.281 . S
C651 O664 1.236 . S
C652 O674 1.240 . S
C652 O675 1.264 . S
O653 Mn648 2.095 . S
O653 C662 1.250 . S
O654 Mn649 2.121 . S
O654 C662 1.258 . S
C655 N656 1.326 . S
C655 C659 1.460 . S
C655 H661 0.929 . S
N656 Mn649 2.257 . S
N656 C655 1.326 . S
N656 C660 1.362 . S
C657 C658 1.258 . S
C657 C660 1.431 . S
C657 C677 1.449 . S
C658 C657 1.258 . S
C658 C659 1.477 . S
C658 H678 0.931 . S
C659 C655 1.460 . S
C659 C658 1.477 . S
C659 H679 0.930 . S
C660 N656 1.362 . S
C660 C657 1.431 . S
C660 C670 1.476 . S
H661 C655 0.929 . S
C662 O653 1.250 . S
C662 O654 1.258 . S
O663 Mn648 2.162 . S
O663 C651 1.281 . S
O664 Mn648 2.297 . S
O664 C651 1.236 . S
N665 Mn649 2.282 . S
N665 C666 1.328 . S
N665 C670 1.318 . S
C666 N665 1.328 . S
C666 C667 1.457 . S
C666 H671 0.929 . S
C667 C666 1.457 . S
C667 C668 1.291 . S
C667 H680 0.931 . S
C668 C667 1.291 . S
C668 C669 1.373 . S
C668 H681 0.929 . S
C669 C668 1.373 . S
C669 C670 1.396 . S
C669 C676 1.403 . S
C670 C660 1.476 . S
C670 N665 1.318 . S
C670 C669 1.396 . S
H671 C666 0.929 . S
O672 Mn648 2.385 . S
O672 C650 1.234 . S
O673 Mn648 2.209 . S
O673 Mn649 2.215 . S
O673 C650 1.283 . S
O674 Mn648 2.094 . S
O674 C652 1.240 . S
O675 Mn649 2.117 . S
O675 C652 1.264 . S
C676 C669 1.403 . S
C676 C677 1.399 . S
C676 H682 0.929 . S
C677 C657 1.449 . S
C677 C676 1.399 . S
C677 H683 0.930 . S
H678 C658 0.931 . S
H679 C659 0.930 . S
H680 C667 0.931 . S
H681 C668 0.929 . S
H682 C676 0.929 . S
H683 C677 0.930 . S
Mn684 O689 2.095 . S
Mn684 O699 2.162 . S
Mn684 O700 2.297 . S
Mn684 O708 2.385 . S
Mn684 O709 2.209 . S
Mn684 O710 2.094 . S
Mn685 O690 2.121 . S
Mn685 N692 2.257 . S
Mn685 N701 2.282 . S
Mn685 O709 2.215 . S
Mn685 O711 2.117 . S
C686 O708 1.234 . S
C686 O709 1.283 . S
C687 O699 1.281 . S
C687 O700 1.236 . S
C688 O710 1.240 . S
C688 O711 1.264 . S
O689 Mn684 2.095 . S
O689 C698 1.250 . S
O690 Mn685 2.121 . S
O690 C698 1.258 . S
C691 N692 1.326 . S
C691 C695 1.460 . S
C691 H697 0.929 . S
N692 Mn685 2.257 . S
N692 C691 1.326 . S
N692 C696 1.362 . S
C693 C694 1.258 . S
C693 C696 1.431 . S
C693 C713 1.449 . S
C694 C693 1.258 . S
C694 C695 1.477 . S
C694 H714 0.931 . S
C695 C691 1.460 . S
C695 C694 1.477 . S
C695 H715 0.930 . S
C696 N692 1.362 . S
C696 C693 1.431 . S
C696 C706 1.476 . S
H697 C691 0.929 . S
C698 O689 1.250 . S
C698 O690 1.258 . S
O699 Mn684 2.162 . S
O699 C687 1.281 . S
O700 Mn684 2.297 . S
O700 C687 1.236 . S
N701 Mn685 2.282 . S
N701 C702 1.328 . S
N701 C706 1.318 . S
C702 N701 1.328 . S
C702 C703 1.457 . S
C702 H707 0.929 . S
C703 C702 1.457 . S
C703 C704 1.291 . S
C703 H716 0.931 . S
C704 C703 1.291 . S
C704 C705 1.373 . S
C704 H717 0.929 . S
C705 C704 1.373 . S
C705 C706 1.396 . S
C705 C712 1.403 . S
C706 C696 1.476 . S
C706 N701 1.318 . S
C706 C705 1.396 . S
H707 C702 0.929 . S
O708 Mn684 2.385 . S
O708 C686 1.234 . S
O709 Mn684 2.209 . S
O709 Mn685 2.215 . S
O709 C686 1.283 . S
O710 Mn684 2.094 . S
O710 C688 1.240 . S
O711 Mn685 2.117 . S
O711 C688 1.264 . S
C712 C705 1.403 . S
C712 C713 1.399 . S
C712 H718 0.929 . S
C713 C693 1.449 . S
C713 C712 1.399 . S
C713 H719 0.930 . S
H714 C694 0.931 . S
H715 C695 0.930 . S
H716 C703 0.931 . S
H717 C704 0.929 . S
H718 C712 0.929 . S
H719 C713 0.930 . S
Mn720 O725 2.095 . S
Mn720 O735 2.162 . S
Mn720 O736 2.297 . S
Mn720 O744 2.385 . S
Mn720 O745 2.209 . S
Mn720 O746 2.094 . S
Mn721 O726 2.121 . S
Mn721 N728 2.257 . S
Mn721 N737 2.282 . S
Mn721 O745 2.215 . S
Mn721 O747 2.117 . S
C722 O744 1.234 . S
C722 O745 1.283 . S
C723 O735 1.281 . S
C723 O736 1.236 . S
C724 O746 1.240 . S
C724 O747 1.264 . S
O725 Mn720 2.095 . S
O725 C734 1.250 . S
O726 Mn721 2.121 . S
O726 C734 1.258 . S
C727 N728 1.326 . S
C727 C731 1.460 . S
C727 H733 0.929 . S
N728 Mn721 2.257 . S
N728 C727 1.326 . S
N728 C732 1.362 . S
C729 C730 1.258 . S
C729 C732 1.431 . S
C729 C749 1.449 . S
C730 C729 1.258 . S
C730 C731 1.477 . S
C730 H750 0.931 . S
C731 C727 1.460 . S
C731 C730 1.477 . S
C731 H751 0.930 . S
C732 N728 1.362 . S
C732 C729 1.431 . S
C732 C742 1.476 . S
H733 C727 0.929 . S
C734 O725 1.250 . S
C734 O726 1.258 . S
O735 Mn720 2.162 . S
O735 C723 1.281 . S
O736 Mn720 2.297 . S
O736 C723 1.236 . S
N737 Mn721 2.282 . S
N737 C738 1.328 . S
N737 C742 1.318 . S
C738 N737 1.328 . S
C738 C739 1.457 . S
C738 H743 0.929 . S
C739 C738 1.457 . S
C739 C740 1.291 . S
C739 H752 0.931 . S
C740 C739 1.291 . S
C740 C741 1.373 . S
C740 H753 0.929 . S
C741 C740 1.373 . S
C741 C742 1.396 . S
C741 C748 1.403 . S
C742 C732 1.476 . S
C742 N737 1.318 . S
C742 C741 1.396 . S
H743 C738 0.929 . S
O744 Mn720 2.385 . S
O744 C722 1.234 . S
O745 Mn720 2.209 . S
O745 Mn721 2.215 . S
O745 C722 1.283 . S
O746 Mn720 2.094 . S
O746 C724 1.240 . S
O747 Mn721 2.117 . S
O747 C724 1.264 . S
C748 C741 1.403 . S
C748 C749 1.399 . S
C748 H754 0.929 . S
C749 C729 1.449 . S
C749 C748 1.399 . S
C749 H755 0.930 . S
H750 C730 0.931 . S
H751 C731 0.930 . S
H752 C739 0.931 . S
H753 C740 0.929 . S
H754 C748 0.929 . S
H755 C749 0.930 . S
Mn756 O761 2.095 . S
Mn756 O771 2.162 . S
Mn756 O772 2.297 . S
Mn756 O780 2.385 . S
Mn756 O781 2.209 . S
Mn756 O782 2.094 . S
Mn757 O762 2.121 . S
Mn757 N764 2.257 . S
Mn757 N773 2.282 . S
Mn757 O781 2.215 . S
Mn757 O783 2.117 . S
C758 O780 1.234 . S
C758 O781 1.283 . S
C759 O771 1.281 . S
C759 O772 1.236 . S
C760 O782 1.240 . S
C760 O783 1.264 . S
O761 Mn756 2.095 . S
O761 C770 1.250 . S
O762 Mn757 2.121 . S
O762 C770 1.258 . S
C763 N764 1.326 . S
C763 C767 1.460 . S
C763 H769 0.929 . S
N764 Mn757 2.257 . S
N764 C763 1.326 . S
N764 C768 1.362 . S
C765 C766 1.258 . S
C765 C768 1.431 . S
C765 C785 1.449 . S
C766 C765 1.258 . S
C766 C767 1.477 . S
C766 H786 0.931 . S
C767 C763 1.460 . S
C767 C766 1.477 . S
C767 H787 0.930 . S
C768 N764 1.362 . S
C768 C765 1.431 . S
C768 C778 1.476 . S
H769 C763 0.929 . S
C770 O761 1.250 . S
C770 O762 1.258 . S
O771 Mn756 2.162 . S
O771 C759 1.281 . S
O772 Mn756 2.297 . S
O772 C759 1.236 . S
N773 Mn757 2.282 . S
N773 C774 1.328 . S
N773 C778 1.318 . S
C774 N773 1.328 . S
C774 C775 1.457 . S
C774 H779 0.929 . S
C775 C774 1.457 . S
C775 C776 1.291 . S
C775 H788 0.931 . S
C776 C775 1.291 . S
C776 C777 1.373 . S
C776 H789 0.929 . S
C777 C776 1.373 . S
C777 C778 1.396 . S
C777 C784 1.403 . S
C778 C768 1.476 . S
C778 N773 1.318 . S
C778 C777 1.396 . S
H779 C774 0.929 . S
O780 Mn756 2.385 . S
O780 C758 1.234 . S
O781 Mn756 2.209 . S
O781 Mn757 2.215 . S
O781 C758 1.283 . S
O782 Mn756 2.094 . S
O782 C760 1.240 . S
O783 Mn757 2.117 . S
O783 C760 1.264 . S
C784 C777 1.403 . S
C784 C785 1.399 . S
C784 H790 0.929 . S
C785 C765 1.449 . S
C785 C784 1.399 . S
C785 H791 0.930 . S
H786 C766 0.931 . S
H787 C767 0.930 . S
H788 C775 0.931 . S
H789 C776 0.929 . S
H790 C784 0.929 . S
H791 C785 0.930 . S
Mn792 O797 2.095 . S
Mn792 O807 2.162 . S
Mn792 O808 2.297 . S
Mn792 O816 2.385 . S
Mn792 O817 2.209 . S
Mn792 O818 2.094 . S
Mn793 O798 2.121 . S
Mn793 N800 2.257 . S
Mn793 N809 2.282 . S
Mn793 O817 2.215 . S
Mn793 O819 2.117 . S
C794 O816 1.234 . S
C794 O817 1.283 . S
C795 O807 1.281 . S
C795 O808 1.236 . S
C796 O818 1.240 . S
C796 O819 1.264 . S
O797 Mn792 2.095 . S
O797 C806 1.250 . S
O798 Mn793 2.121 . S
O798 C806 1.258 . S
C799 N800 1.326 . S
C799 C803 1.460 . S
C799 H805 0.929 . S
N800 Mn793 2.257 . S
N800 C799 1.326 . S
N800 C804 1.362 . S
C801 C802 1.258 . S
C801 C804 1.431 . S
C801 C821 1.449 . S
C802 C801 1.258 . S
C802 C803 1.477 . S
C802 H822 0.931 . S
C803 C799 1.460 . S
C803 C802 1.477 . S
C803 H823 0.930 . S
C804 N800 1.362 . S
C804 C801 1.431 . S
C804 C814 1.476 . S
H805 C799 0.929 . S
C806 O797 1.250 . S
C806 O798 1.258 . S
O807 Mn792 2.162 . S
O807 C795 1.281 . S
O808 Mn792 2.297 . S
O808 C795 1.236 . S
N809 Mn793 2.282 . S
N809 C810 1.328 . S
N809 C814 1.318 . S
C810 N809 1.328 . S
C810 C811 1.457 . S
C810 H815 0.929 . S
C811 C810 1.457 . S
C811 C812 1.291 . S
C811 H824 0.931 . S
C812 C811 1.291 . S
C812 C813 1.373 . S
C812 H825 0.929 . S
C813 C812 1.373 . S
C813 C814 1.396 . S
C813 C820 1.403 . S
C814 C804 1.476 . S
C814 N809 1.318 . S
C814 C813 1.396 . S
H815 C810 0.929 . S
O816 Mn792 2.385 . S
O816 C794 1.234 . S
O817 Mn792 2.209 . S
O817 Mn793 2.215 . S
O817 C794 1.283 . S
O818 Mn792 2.094 . S
O818 C796 1.240 . S
O819 Mn793 2.117 . S
O819 C796 1.264 . S
C820 C813 1.403 . S
C820 C821 1.399 . S
C820 H826 0.929 . S
C821 C801 1.449 . S
C821 C820 1.399 . S
C821 H827 0.930 . S
H822 C802 0.931 . S
H823 C803 0.930 . S
H824 C811 0.931 . S
H825 C812 0.929 . S
H826 C820 0.929 . S
H827 C821 0.930 . S
Mn828 O833 2.095 . S
Mn828 O843 2.162 . S
Mn828 O844 2.297 . S
Mn828 O852 2.385 . S
Mn828 O853 2.209 . S
Mn828 O854 2.094 . S
Mn829 O834 2.121 . S
Mn829 N836 2.257 . S
Mn829 N845 2.282 . S
Mn829 O853 2.215 . S
Mn829 O855 2.117 . S
C830 O852 1.234 . S
C830 O853 1.283 . S
C831 O843 1.281 . S
C831 O844 1.236 . S
C832 O854 1.240 . S
C832 O855 1.264 . S
O833 Mn828 2.095 . S
O833 C842 1.250 . S
O834 Mn829 2.121 . S
O834 C842 1.258 . S
C835 N836 1.326 . S
C835 C839 1.460 . S
C835 H841 0.929 . S
N836 Mn829 2.257 . S
N836 C835 1.326 . S
N836 C840 1.362 . S
C837 C838 1.258 . S
C837 C840 1.431 . S
C837 C857 1.449 . S
C838 C837 1.258 . S
C838 C839 1.477 . S
C838 H858 0.931 . S
C839 C835 1.460 . S
C839 C838 1.477 . S
C839 H859 0.930 . S
C840 N836 1.362 . S
C840 C837 1.431 . S
C840 C850 1.476 . S
H841 C835 0.929 . S
C842 O833 1.250 . S
C842 O834 1.258 . S
O843 Mn828 2.162 . S
O843 C831 1.281 . S
O844 Mn828 2.297 . S
O844 C831 1.236 . S
N845 Mn829 2.282 . S
N845 C846 1.328 . S
N845 C850 1.318 . S
C846 N845 1.328 . S
C846 C847 1.457 . S
C846 H851 0.929 . S
C847 C846 1.457 . S
C847 C848 1.291 . S
C847 H860 0.931 . S
C848 C847 1.291 . S
C848 C849 1.373 . S
C848 H861 0.929 . S
C849 C848 1.373 . S
C849 C850 1.396 . S
C849 C856 1.403 . S
C850 C840 1.476 . S
C850 N845 1.318 . S
C850 C849 1.396 . S
H851 C846 0.929 . S
O852 Mn828 2.385 . S
O852 C830 1.234 . S
O853 Mn828 2.209 . S
O853 Mn829 2.215 . S
O853 C830 1.283 . S
O854 Mn828 2.094 . S
O854 C832 1.240 . S
O855 Mn829 2.117 . S
O855 C832 1.264 . S
C856 C849 1.403 . S
C856 C857 1.399 . S
C856 H862 0.929 . S
C857 C837 1.449 . S
C857 C856 1.399 . S
C857 H863 0.930 . S
H858 C838 0.931 . S
H859 C839 0.930 . S
H860 C847 0.931 . S
H861 C848 0.929 . S
H862 C856 0.929 . S
H863 C857 0.930 . S
H864 C872 0.929 . S
H865 C874 0.930 . S
H866 C876 0.930 . S
H867 C879 0.929 . S
H868 C882 0.930 . S
H869 C884 0.960 . S
H870 C884 0.960 . S
H871 C884 0.960 . S
C872 H864 0.929 . S
C872 C873 1.377 . S
C872 C874 1.384 . S
C873 C872 1.377 . S
C873 C879 1.390 . S
C874 H865 0.930 . S
C874 C872 1.384 . S
C874 C875 1.372 . S
C875 C874 1.372 . S
C875 C876 1.400 . S
C875 C880 1.490 . S
C876 H866 0.930 . S
C876 C875 1.400 . S
C876 C879 1.386 . S
H877 C893 0.930 . S
H878 C894 0.931 . S
C879 H867 0.929 . S
C879 C873 1.390 . S
C879 C876 1.386 . S
C880 C875 1.490 . S
C880 C882 1.395 . S
C880 C883 1.403 . S
H881 C887 0.930 . S
C882 H868 0.930 . S
C882 C880 1.395 . S
C882 C885 1.403 . S
C883 C880 1.403 . S
C883 C884 1.524 . S
C883 C887 1.400 . S
C884 H869 0.960 . S
C884 H870 0.960 . S
C884 H871 0.960 . S
C884 C883 1.524 . S
C885 C882 1.403 . S
C885 C886 1.392 . S
C885 C889 1.495 . S
C886 C885 1.392 . S
C886 C887 1.385 . S
C886 C888 1.478 . S
C887 H881 0.930 . S
C887 C883 1.400 . S
C887 C886 1.385 . S
C888 C886 1.478 . S
C888 C890 1.381 . S
C888 C894 1.383 . S
C889 C885 1.495 . S
C889 H895 0.959 . S
C889 H896 0.961 . S
C889 H897 0.960 . S
C890 C888 1.381 . S
C890 C891 1.394 . S
C890 H898 0.930 . S
C891 C890 1.394 . S
C891 C892 1.383 . S
C891 H899 0.929 . S
C892 C891 1.383 . S
C892 C893 1.377 . S
C893 H877 0.930 . S
C893 C892 1.377 . S
C893 C894 1.379 . S
C894 H878 0.931 . S
C894 C888 1.383 . S
C894 C893 1.379 . S
H895 C889 0.959 . S
H896 C889 0.961 . S
H897 C889 0.960 . S
H898 C890 0.930 . S
H899 C891 0.929 . S
H900 C908 0.929 . S
H901 C910 0.930 . S
H902 C912 0.930 . S
H903 C915 0.929 . S
H904 C918 0.930 . S
H905 C920 0.960 . S
H906 C920 0.960 . S
H907 C920 0.960 . S
C908 H900 0.929 . S
C908 C909 1.377 . S
C908 C910 1.384 . S
C909 C908 1.377 . S
C909 C915 1.390 . S
C910 H901 0.930 . S
C910 C908 1.384 . S
C910 C911 1.372 . S
C911 C910 1.372 . S
C911 C912 1.400 . S
C911 C916 1.490 . S
C912 H902 0.930 . S
C912 C911 1.400 . S
C912 C915 1.386 . S
H913 C929 0.930 . S
H914 C930 0.931 . S
C915 H903 0.929 . S
C915 C909 1.390 . S
C915 C912 1.386 . S
C916 C911 1.490 . S
C916 C918 1.395 . S
C916 C919 1.403 . S
H917 C923 0.930 . S
C918 H904 0.930 . S
C918 C916 1.395 . S
C918 C921 1.403 . S
C919 C916 1.403 . S
C919 C920 1.524 . S
C919 C923 1.400 . S
C920 H905 0.960 . S
C920 H906 0.960 . S
C920 H907 0.960 . S
C920 C919 1.524 . S
C921 C918 1.403 . S
C921 C922 1.392 . S
C921 C925 1.495 . S
C922 C921 1.392 . S
C922 C923 1.385 . S
C922 C924 1.478 . S
C923 H917 0.930 . S
C923 C919 1.400 . S
C923 C922 1.385 . S
C924 C922 1.478 . S
C924 C926 1.381 . S
C924 C930 1.383 . S
C925 C921 1.495 . S
C925 H931 0.959 . S
C925 H932 0.961 . S
C925 H933 0.960 . S
C926 C924 1.381 . S
C926 C927 1.394 . S
C926 H934 0.930 . S
C927 C926 1.394 . S
C927 C928 1.383 . S
C927 H935 0.929 . S
C928 C927 1.383 . S
C928 C929 1.377 . S
C929 H913 0.930 . S
C929 C928 1.377 . S
C929 C930 1.379 . S
C930 H914 0.931 . S
C930 C924 1.383 . S
C930 C929 1.379 . S
H931 C925 0.959 . S
H932 C925 0.961 . S
H933 C925 0.960 . S
H934 C926 0.930 . S
H935 C927 0.929 . S
H936 C944 0.929 . S
H937 C946 0.930 . S
H938 C948 0.930 . S
H939 C951 0.929 . S
H940 C954 0.930 . S
H941 C956 0.967 . S
H942 C956 0.960 . S
H943 C956 0.960 . S
C944 H936 0.929 . S
C944 C945 1.377 . S
C944 C946 1.384 . S
C945 C944 1.377 . S
C945 C951 1.390 . S
C946 H937 0.930 . S
C946 C944 1.384 . S
C946 C947 1.372 . S
C947 C946 1.372 . S
C947 C948 1.400 . S
C947 C952 1.490 . S
C948 H938 0.930 . S
C948 C947 1.400 . S
C948 C951 1.386 . S
H949 C965 0.930 . S
H950 C966 0.931 . S
C951 H939 0.929 . S
C951 C945 1.390 . S
C951 C948 1.386 . S
C952 C947 1.490 . S
C952 C954 1.395 . S
C952 C955 1.403 . S
H953 C959 0.930 . S
C954 H940 0.930 . S
C954 C952 1.395 . S
C954 C957 1.403 . S
C955 C952 1.403 . S
C955 C956 1.524 . S
C955 C959 1.400 . S
C956 H941 0.967 . S
C956 H942 0.960 . S
C956 H943 0.960 . S
C956 C955 1.524 . S
C957 C954 1.403 . S
C957 C958 1.392 . S
C957 C961 1.495 . S
C958 C957 1.392 . S
C958 C959 1.385 . S
C958 C960 1.478 . S
C959 H953 0.930 . S
C959 C955 1.400 . S
C959 C958 1.385 . S
C960 C958 1.478 . S
C960 C962 1.381 . S
C960 C966 1.383 . S
C961 C957 1.495 . S
C961 H967 0.959 . S
C961 H968 0.961 . S
C961 H969 0.960 . S
C962 C960 1.381 . S
C962 C963 1.394 . S
C962 H970 0.930 . S
C963 C962 1.394 . S
C963 C964 1.383 . S
C963 H971 0.929 . S
C964 C963 1.383 . S
C964 C965 1.377 . S
C965 H949 0.930 . S
C965 C964 1.377 . S
C965 C966 1.379 . S
C966 H950 0.931 . S
C966 C960 1.383 . S
C966 C965 1.379 . S
H967 C961 0.959 . S
H968 C961 0.961 . S
H969 C961 0.960 . S
H970 C962 0.930 . S
H971 C963 0.929 . S
H972 C980 0.929 . S
H973 C982 0.930 . S
H974 C984 0.930 . S
H975 C987 0.929 . S
H976 C990 0.930 . S
H977 C992 0.960 . S
H978 C992 0.960 . S
H979 C992 0.960 . S
C980 H972 0.929 . S
C980 C981 1.377 . S
C980 C982 1.384 . S
C981 C980 1.377 . S
C981 C987 1.390 . S
C982 H973 0.930 . S
C982 C980 1.384 . S
C982 C983 1.372 . S
C983 C982 1.372 . S
C983 C984 1.400 . S
C983 C988 1.490 . S
C984 H974 0.930 . S
C984 C983 1.400 . S
C984 C987 1.386 . S
H985 C1001 0.930 . S
H986 C1002 0.931 . S
C987 H975 0.929 . S
C987 C981 1.390 . S
C987 C984 1.386 . S
C988 C983 1.490 . S
C988 C990 1.395 . S
C988 C991 1.403 . S
H989 C995 0.930 . S
C990 H976 0.930 . S
C990 C988 1.395 . S
C990 C993 1.403 . S
C991 C988 1.403 . S
C991 C992 1.524 . S
C991 C995 1.400 . S
C992 H977 0.960 . S
C992 H978 0.960 . S
C992 H979 0.960 . S
C992 C991 1.524 . S
C993 C990 1.403 . S
C993 C994 1.392 . S
C993 C997 1.495 . S
C994 C993 1.392 . S
C994 C995 1.385 . S
C994 C996 1.478 . S
C995 H989 0.930 . S
C995 C991 1.400 . S
C995 C994 1.385 . S
C996 C994 1.478 . S
C996 C998 1.381 . S
C996 C1002 1.383 . S
C997 C993 1.495 . S
C997 H1003 0.959 . S
C997 H1004 0.961 . S
C997 H1005 0.960 . S
C998 C996 1.381 . S
C998 C999 1.394 . S
C998 H1006 0.930 . S
C999 C998 1.394 . S
C999 C1000 1.383 . S
C999 H1007 0.929 . S
C1000 C999 1.383 . S
C1000 C1001 1.377 . S
C1001 H985 0.930 . S
C1001 C1000 1.377 . S
C1001 C1002 1.379 . S
C1002 H986 0.931 . S
C1002 C996 1.383 . S
C1002 C1001 1.379 . S
H1003 C997 0.959 . S
H1004 C997 0.961 . S
H1005 C997 0.960 . S
H1006 C998 0.930 . S
H1007 C999 0.929 . S
H1008 C1016 0.929 . S
H1009 C1018 0.930 . S
H1010 C1020 0.930 . S
H1011 C1023 0.929 . S
H1012 C1026 0.930 . S
H1013 C1028 0.960 . S
H1014 C1028 0.960 . S
H1015 C1028 0.960 . S
C1016 H1008 0.929 . S
C1016 C1017 1.377 . S
C1016 C1018 1.384 . S
C1017 C1016 1.377 . S
C1017 C1023 1.390 . S
C1018 H1009 0.930 . S
C1018 C1016 1.384 . S
C1018 C1019 1.372 . S
C1019 C1018 1.372 . S
C1019 C1020 1.400 . S
C1019 C1024 1.490 . S
C1020 H1010 0.930 . S
C1020 C1019 1.400 . S
C1020 C1023 1.386 . S
H1021 C1037 0.930 . S
H1022 C1038 0.931 . S
C1023 H1011 0.929 . S
C1023 C1017 1.390 . S
C1023 C1020 1.386 . S
C1024 C1019 1.490 . S
C1024 C1026 1.395 . S
C1024 C1027 1.403 . S
H1025 C1031 0.930 . S
C1026 H1012 0.930 . S
C1026 C1024 1.395 . S
C1026 C1029 1.403 . S
C1027 C1024 1.403 . S
C1027 C1028 1.524 . S
C1027 C1031 1.400 . S
C1028 H1013 0.960 . S
C1028 H1014 0.960 . S
C1028 H1015 0.960 . S
C1028 C1027 1.524 . S
C1029 C1026 1.403 . S
C1029 C1030 1.392 . S
C1029 C1033 1.495 . S
C1030 C1029 1.392 . S
C1030 C1031 1.385 . S
C1030 C1032 1.478 . S
C1031 H1025 0.930 . S
C1031 C1027 1.400 . S
C1031 C1030 1.385 . S
C1032 C1030 1.478 . S
C1032 C1034 1.381 . S
C1032 C1038 1.383 . S
C1033 C1029 1.495 . S
C1033 H1039 0.959 . S
C1033 H1040 0.961 . S
C1033 H1041 0.960 . S
C1034 C1032 1.381 . S
C1034 C1035 1.394 . S
C1034 H1042 0.930 . S
C1035 C1034 1.394 . S
C1035 C1036 1.383 . S
C1035 H1043 0.929 . S
C1036 C1035 1.383 . S
C1036 C1037 1.377 . S
C1037 H1021 0.930 . S
C1037 C1036 1.377 . S
C1037 C1038 1.379 . S
C1038 H1022 0.931 . S
C1038 C1032 1.383 . S
C1038 C1037 1.379 . S
H1039 C1033 0.959 . S
H1040 C1033 0.961 . S
H1041 C1033 0.960 . S
H1042 C1034 0.930 . S
H1043 C1035 0.929 . S
H1044 C1052 0.929 . S
H1045 C1054 0.930 . S
H1046 C1056 0.930 . S
H1047 C1059 0.929 . S
H1048 C1062 0.930 . S
H1049 C1064 0.960 . S
H1050 C1064 0.960 . S
H1051 C1064 0.960 . S
C1052 H1044 0.929 . S
C1052 C1053 1.377 . S
C1052 C1054 1.384 . S
C1053 C1052 1.377 . S
C1053 C1059 1.390 . S
C1054 H1045 0.930 . S
C1054 C1052 1.384 . S
C1054 C1055 1.372 . S
C1055 C1054 1.372 . S
C1055 C1056 1.400 . S
C1055 C1060 1.490 . S
C1056 H1046 0.930 . S
C1056 C1055 1.400 . S
C1056 C1059 1.386 . S
H1057 C1073 0.930 . S
H1058 C1074 0.931 . S
C1059 H1047 0.929 . S
C1059 C1053 1.390 . S
C1059 C1056 1.386 . S
C1060 C1055 1.490 . S
C1060 C1062 1.395 . S
C1060 C1063 1.403 . S
H1061 C1067 0.930 . S
C1062 H1048 0.930 . S
C1062 C1060 1.395 . S
C1062 C1065 1.403 . S
C1063 C1060 1.403 . S
C1063 C1064 1.524 . S
C1063 C1067 1.400 . S
C1064 H1049 0.960 . S
C1064 H1050 0.960 . S
C1064 H1051 0.960 . S
C1064 C1063 1.524 . S
C1065 C1062 1.403 . S
C1065 C1066 1.392 . S
C1065 C1069 1.495 . S
C1066 C1065 1.392 . S
C1066 C1067 1.385 . S
C1066 C1068 1.478 . S
C1067 H1061 0.930 . S
C1067 C1063 1.400 . S
C1067 C1066 1.385 . S
C1068 C1066 1.478 . S
C1068 C1070 1.381 . S
C1068 C1074 1.383 . S
C1069 C1065 1.495 . S
C1069 H1075 0.959 . S
C1069 H1076 0.961 . S
C1069 H1077 0.960 . S
C1070 C1068 1.381 . S
C1070 C1071 1.394 . S
C1070 H1078 0.930 . S
C1071 C1070 1.394 . S
C1071 C1072 1.383 . S
C1071 H1079 0.929 . S
C1072 C1071 1.383 . S
C1072 C1073 1.377 . S
C1073 H1057 0.930 . S
C1073 C1072 1.377 . S
C1073 C1074 1.379 . S
C1074 H1058 0.931 . S
C1074 C1068 1.383 . S
C1074 C1073 1.379 . S
H1075 C1069 0.959 . S
H1076 C1069 0.961 . S
H1077 C1069 0.960 . S
H1078 C1070 0.930 . S
H1079 C1071 0.929 . S
H1080 C1088 0.929 . S
H1081 C1090 0.930 . S
H1082 C1092 0.930 . S
H1083 C1095 0.929 . S
H1084 C1098 0.930 . S
H1085 C1100 0.963 . S
H1086 C1100 0.960 . S
H1087 C1100 0.960 . S
C1088 H1080 0.929 . S
C1088 C1089 1.377 . S
C1088 C1090 1.384 . S
C1089 C1088 1.377 . S
C1089 C1095 1.390 . S
C1090 H1081 0.930 . S
C1090 C1088 1.384 . S
C1090 C1091 1.372 . S
C1091 C1090 1.372 . S
C1091 C1092 1.400 . S
C1091 C1096 1.490 . S
C1092 H1082 0.930 . S
C1092 C1091 1.400 . S
C1092 C1095 1.386 . S
H1093 C1109 0.930 . S
H1094 C1110 0.931 . S
C1095 H1083 0.929 . S
C1095 C1089 1.390 . S
C1095 C1092 1.386 . S
C1096 C1091 1.490 . S
C1096 C1098 1.395 . S
C1096 C1099 1.403 . S
H1097 C1103 0.930 . S
C1098 H1084 0.930 . S
C1098 C1096 1.395 . S
C1098 C1101 1.403 . S
C1099 C1096 1.403 . S
C1099 C1100 1.524 . S
C1099 C1103 1.400 . S
C1100 H1085 0.963 . S
C1100 H1086 0.960 . S
C1100 H1087 0.960 . S
C1100 C1099 1.524 . S
C1101 C1098 1.403 . S
C1101 C1102 1.392 . S
C1101 C1105 1.495 . S
C1102 C1101 1.392 . S
C1102 C1103 1.385 . S
C1102 C1104 1.478 . S
C1103 H1097 0.930 . S
C1103 C1099 1.400 . S
C1103 C1102 1.385 . S
C1104 C1102 1.478 . S
C1104 C1106 1.381 . S
C1104 C1110 1.383 . S
C1105 C1101 1.495 . S
C1105 H1111 0.959 . S
C1105 H1112 0.961 . S
C1105 H1113 0.960 . S
C1106 C1104 1.381 . S
C1106 C1107 1.394 . S
C1106 H1114 0.930 . S
C1107 C1106 1.394 . S
C1107 C1108 1.383 . S
C1107 H1115 0.929 . S
C1108 C1107 1.383 . S
C1108 C1109 1.377 . S
C1109 H1093 0.930 . S
C1109 C1108 1.377 . S
C1109 C1110 1.379 . S
C1110 H1094 0.931 . S
C1110 C1104 1.383 . S
C1110 C1109 1.379 . S
H1111 C1105 0.959 . S
H1112 C1105 0.961 . S
H1113 C1105 0.960 . S
H1114 C1106 0.930 . S
H1115 C1107 0.929 . S
H1116 C1124 0.929 . S
H1117 C1126 0.930 . S
H1118 C1128 0.930 . S
H1119 C1131 0.929 . S
H1120 C1134 0.930 . S
H1121 C1136 0.960 . S
H1122 C1136 0.960 . S
H1123 C1136 0.960 . S
C1124 H1116 0.929 . S
C1124 C1125 1.377 . S
C1124 C1126 1.384 . S
C1125 C1124 1.377 . S
C1125 C1131 1.390 . S
C1126 H1117 0.930 . S
C1126 C1124 1.384 . S
C1126 C1127 1.372 . S
C1127 C1126 1.372 . S
C1127 C1128 1.400 . S
C1127 C1132 1.490 . S
C1128 H1118 0.930 . S
C1128 C1127 1.400 . S
C1128 C1131 1.386 . S
H1129 C1145 0.930 . S
H1130 C1146 0.931 . S
C1131 H1119 0.929 . S
C1131 C1125 1.390 . S
C1131 C1128 1.386 . S
C1132 C1127 1.490 . S
C1132 C1134 1.395 . S
C1132 C1135 1.403 . S
H1133 C1139 0.930 . S
C1134 H1120 0.930 . S
C1134 C1132 1.395 . S
C1134 C1137 1.403 . S
C1135 C1132 1.403 . S
C1135 C1136 1.524 . S
C1135 C1139 1.400 . S
C1136 H1121 0.960 . S
C1136 H1122 0.960 . S
C1136 H1123 0.960 . S
C1136 C1135 1.524 . S
C1137 C1134 1.403 . S
C1137 C1138 1.392 . S
C1137 C1141 1.495 . S
C1138 C1137 1.392 . S
C1138 C1139 1.385 . S
C1138 C1140 1.478 . S
C1139 H1133 0.930 . S
C1139 C1135 1.400 . S
C1139 C1138 1.385 . S
C1140 C1138 1.478 . S
C1140 C1142 1.381 . S
C1140 C1146 1.383 . S
C1141 C1137 1.495 . S
C1141 H1147 0.951 1_565 S
C1141 H1148 0.961 . S
C1141 H1149 0.960 . S
C1142 C1140 1.381 . S
C1142 C1143 1.394 . S
C1142 H1150 0.930 . S
C1143 C1142 1.394 . S
C1143 C1144 1.383 . S
C1143 H1151 0.929 . S
C1144 C1143 1.383 . S
C1144 C1145 1.377 . S
C1145 H1129 0.930 . S
C1145 C1144 1.377 . S
C1145 C1146 1.379 . S
C1146 H1130 0.931 . S
C1146 C1140 1.383 . S
C1146 C1145 1.379 . S
H1147 C1141 0.951 1_545 S
H1148 C1141 0.961 . S
H1149 C1141 0.960 . S
H1150 C1142 0.930 . S
H1151 C1143 0.929 . S
H1152 C1160 0.929 . S
H1153 C1162 0.930 . S
H1154 C1164 0.930 . S
H1155 C1167 0.929 . S
H1156 C1170 0.930 . S
H1157 C1172 0.960 . S
H1158 C1172 0.960 . S
H1159 C1172 0.960 . S
C1160 H1152 0.929 . S
C1160 C1161 1.377 . S
C1160 C1162 1.384 . S
C1161 C1160 1.377 . S
C1161 C1167 1.390 . S
C1162 H1153 0.930 . S
C1162 C1160 1.384 . S
C1162 C1163 1.372 . S
C1163 C1162 1.372 . S
C1163 C1164 1.400 . S
C1163 C1168 1.490 . S
C1164 H1154 0.930 . S
C1164 C1163 1.400 . S
C1164 C1167 1.386 . S
H1165 C1181 0.930 . S
H1166 C1182 0.931 . S
C1167 H1155 0.929 . S
C1167 C1161 1.390 . S
C1167 C1164 1.386 . S
C1168 C1163 1.490 . S
C1168 C1170 1.395 . S
C1168 C1171 1.403 . S
H1169 C1175 0.930 . S
C1170 H1156 0.930 . S
C1170 C1168 1.395 . S
C1170 C1173 1.403 . S
C1171 C1168 1.403 . S
C1171 C1172 1.524 . S
C1171 C1175 1.400 . S
C1172 H1157 0.960 . S
C1172 H1158 0.960 . S
C1172 H1159 0.960 . S
C1172 C1171 1.524 . S
C1173 C1170 1.403 . S
C1173 C1174 1.392 . S
C1173 C1177 1.495 . S
C1174 C1173 1.392 . S
C1174 C1175 1.385 . S
C1174 C1176 1.478 . S
C1175 H1169 0.930 . S
C1175 C1171 1.400 . S
C1175 C1174 1.385 . S
C1176 C1174 1.478 . S
C1176 C1178 1.381 . S
C1176 C1182 1.383 . S
C1177 C1173 1.495 . S
C1177 H1183 0.959 . S
C1177 H1184 0.961 . S
C1177 H1185 0.960 . S
C1178 C1176 1.381 . S
C1178 C1179 1.394 . S
C1178 H1186 0.930 . S
C1179 C1178 1.394 . S
C1179 C1180 1.383 . S
C1179 H1187 0.929 . S
C1180 C1179 1.383 . S
C1180 C1181 1.377 . S
C1181 H1165 0.930 . S
C1181 C1180 1.377 . S
C1181 C1182 1.379 . S
C1182 H1166 0.931 . S
C1182 C1176 1.383 . S
C1182 C1181 1.379 . S
H1183 C1177 0.959 . S
H1184 C1177 0.961 . S
H1185 C1177 0.960 . S
H1186 C1178 0.930 . S
H1187 C1179 0.929 . S
H1188 C1196 0.929 . S
H1189 C1198 0.930 . S
H1190 C1200 0.930 . S
H1191 C1203 0.929 . S
H1192 C1206 0.930 . S
H1193 C1208 0.960 . S
H1194 C1208 0.960 . S
H1195 C1208 0.960 . S
C1196 H1188 0.929 . S
C1196 C1197 1.377 . S
C1196 C1198 1.384 . S
C1197 C1196 1.377 . S
C1197 C1203 1.390 . S
C1198 H1189 0.930 . S
C1198 C1196 1.384 . S
C1198 C1199 1.372 . S
C1199 C1198 1.372 . S
C1199 C1200 1.400 . S
C1199 C1204 1.490 . S
C1200 H1190 0.930 . S
C1200 C1199 1.400 . S
C1200 C1203 1.386 . S
H1201 C1217 0.930 . S
H1202 C1218 0.931 . S
C1203 H1191 0.929 . S
C1203 C1197 1.390 . S
C1203 C1200 1.386 . S
C1204 C1199 1.490 . S
C1204 C1206 1.395 . S
C1204 C1207 1.403 . S
H1205 C1211 0.930 . S
C1206 H1192 0.930 . S
C1206 C1204 1.395 . S
C1206 C1209 1.403 . S
C1207 C1204 1.403 . S
C1207 C1208 1.524 . S
C1207 C1211 1.400 . S
C1208 H1193 0.960 . S
C1208 H1194 0.960 . S
C1208 H1195 0.960 . S
C1208 C1207 1.524 . S
C1209 C1206 1.403 . S
C1209 C1210 1.392 . S
C1209 C1213 1.495 . S
C1210 C1209 1.392 . S
C1210 C1211 1.385 . S
C1210 C1212 1.478 . S
C1211 H1205 0.930 . S
C1211 C1207 1.400 . S
C1211 C1210 1.385 . S
C1212 C1210 1.478 . S
C1212 C1214 1.381 . S
C1212 C1218 1.383 . S
C1213 C1209 1.495 . S
C1213 H1219 0.959 . S
C1213 H1220 0.961 . S
C1213 H1221 0.960 . S
C1214 C1212 1.381 . S
C1214 C1215 1.394 . S
C1214 H1222 0.930 . S
C1215 C1214 1.394 . S
C1215 C1216 1.383 . S
C1215 H1223 0.929 . S
C1216 C1215 1.383 . S
C1216 C1217 1.377 . S
C1217 H1201 0.930 . S
C1217 C1216 1.377 . S
C1217 C1218 1.379 . S
C1218 H1202 0.931 . S
C1218 C1212 1.383 . S
C1218 C1217 1.379 . S
H1219 C1213 0.959 . S
H1220 C1213 0.961 . S
H1221 C1213 0.960 . S
H1222 C1214 0.930 . S
H1223 C1215 0.929 . S
H1224 C1232 0.929 . S
H1225 C1234 0.930 . S
H1226 C1236 0.930 . S
H1227 C1239 0.929 . S
H1228 C1242 0.930 . S
H1229 C1244 0.960 . S
H1230 C1244 0.960 . S
H1231 C1244 0.960 . S
C1232 H1224 0.929 . S
C1232 C1233 1.377 . S
C1232 C1234 1.384 . S
C1233 C1232 1.377 . S
C1233 C1239 1.390 . S
C1234 H1225 0.930 . S
C1234 C1232 1.384 . S
C1234 C1235 1.372 . S
C1235 C1234 1.372 . S
C1235 C1236 1.400 . S
C1235 C1240 1.490 . S
C1236 H1226 0.930 . S
C1236 C1235 1.400 . S
C1236 C1239 1.386 . S
H1237 C1253 0.930 . S
H1238 C1254 0.931 . S
C1239 H1227 0.929 . S
C1239 C1233 1.390 . S
C1239 C1236 1.386 . S
C1240 C1235 1.490 . S
C1240 C1242 1.395 . S
C1240 C1243 1.403 . S
H1241 C1247 0.930 . S
C1242 H1228 0.930 . S
C1242 C1240 1.395 . S
C1242 C1245 1.403 . S
C1243 C1240 1.403 . S
C1243 C1244 1.524 . S
C1243 C1247 1.400 . S
C1244 H1229 0.960 . S
C1244 H1230 0.960 . S
C1244 H1231 0.960 . S
C1244 C1243 1.524 . S
C1245 C1242 1.403 . S
C1245 C1246 1.392 . S
C1245 C1249 1.495 . S
C1246 C1245 1.392 . S
C1246 C1247 1.385 . S
C1246 C1248 1.478 . S
C1247 H1241 0.930 . S
C1247 C1243 1.400 . S
C1247 C1246 1.385 . S
C1248 C1246 1.478 . S
C1248 C1250 1.381 . S
C1248 C1254 1.383 . S
C1249 C1245 1.495 . S
C1249 H1255 0.959 . S
C1249 H1256 0.961 . S
C1249 H1257 0.960 . S
C1250 C1248 1.381 . S
C1250 C1251 1.394 . S
C1250 H1258 0.930 . S
C1251 C1250 1.394 . S
C1251 C1252 1.383 . S
C1251 H1259 0.929 . S
C1252 C1251 1.383 . S
C1252 C1253 1.377 . S
C1253 H1237 0.930 . S
C1253 C1252 1.377 . S
C1253 C1254 1.379 . S
C1254 H1238 0.931 . S
C1254 C1248 1.383 . S
C1254 C1253 1.379 . S
H1255 C1249 0.959 . S
H1256 C1249 0.961 . S
H1257 C1249 0.960 . S
H1258 C1250 0.930 . S
H1259 C1251 0.929 . S
H1260 C1268 0.929 . S
H1261 C1270 0.930 . S
H1262 C1272 0.930 . S
H1263 C1275 0.929 . S
H1264 C1278 0.930 . S
H1265 C1280 0.960 . S
H1266 C1280 0.960 . S
H1267 C1280 0.960 . S
C1268 H1260 0.929 . S
C1268 C1269 1.377 . S
C1268 C1270 1.384 . S
C1269 C1268 1.377 . S
C1269 C1275 1.390 . S
C1270 H1261 0.930 . S
C1270 C1268 1.384 . S
C1270 C1271 1.372 . S
C1271 C1270 1.372 . S
C1271 C1272 1.400 . S
C1271 C1276 1.490 . S
C1272 H1262 0.930 . S
C1272 C1271 1.400 . S
C1272 C1275 1.386 . S
H1273 C1289 0.930 . S
H1274 C1290 0.931 . S
C1275 H1263 0.929 . S
C1275 C1269 1.390 . S
C1275 C1272 1.386 . S
C1276 C1271 1.490 . S
C1276 C1278 1.395 . S
C1276 C1279 1.403 . S
H1277 C1283 0.930 . S
C1278 H1264 0.930 . S
C1278 C1276 1.395 . S
C1278 C1281 1.403 . S
C1279 C1276 1.403 . S
C1279 C1280 1.524 . S
C1279 C1283 1.400 . S
C1280 H1265 0.960 . S
C1280 H1266 0.960 . S
C1280 H1267 0.960 . S
C1280 C1279 1.524 . S
C1281 C1278 1.403 . S
C1281 C1282 1.392 . S
C1281 C1285 1.495 . S
C1282 C1281 1.392 . S
C1282 C1283 1.385 . S
C1282 C1284 1.478 . S
C1283 H1277 0.930 . S
C1283 C1279 1.400 . S
C1283 C1282 1.385 . S
C1284 C1282 1.478 . S
C1284 C1286 1.381 . S
C1284 C1290 1.383 . S
C1285 C1281 1.495 . S
C1285 H1291 0.959 . S
C1285 H1292 0.961 . S
C1285 H1293 0.960 . S
C1286 C1284 1.381 . S
C1286 C1287 1.394 . S
C1286 H1294 0.930 . S
C1287 C1286 1.394 . S
C1287 C1288 1.383 . S
C1287 H1295 0.929 . S
C1288 C1287 1.383 . S
C1288 C1289 1.377 . S
C1289 H1273 0.930 . S
C1289 C1288 1.377 . S
C1289 C1290 1.379 . S
C1290 H1274 0.931 . S
C1290 C1284 1.383 . S
C1290 C1289 1.379 . S
H1291 C1285 0.959 . S
H1292 C1285 0.961 . S
H1293 C1285 0.960 . S
H1294 C1286 0.930 . S
H1295 C1287 0.929 . S
H1296 C1304 0.929 . S
H1297 C1306 0.930 . S
H1298 C1308 0.930 . S
H1299 C1311 0.929 . S
H1300 C1314 0.930 . S
H1301 C1316 0.960 . S
H1302 C1316 0.960 . S
H1303 C1316 0.960 . S
C1304 H1296 0.929 . S
C1304 C1305 1.377 . S
C1304 C1306 1.384 . S
C1305 C1304 1.377 . S
C1305 C1311 1.390 . S
C1306 H1297 0.930 . S
C1306 C1304 1.384 . S
C1306 C1307 1.372 . S
C1307 C1306 1.372 . S
C1307 C1308 1.400 . S
C1307 C1312 1.490 . S
C1308 H1298 0.930 . S
C1308 C1307 1.400 . S
C1308 C1311 1.386 . S
H1309 C1325 0.930 . S
H1310 C1326 0.931 . S
C1311 H1299 0.929 . S
C1311 C1305 1.390 . S
C1311 C1308 1.386 . S
C1312 C1307 1.490 . S
C1312 C1314 1.395 . S
C1312 C1315 1.403 . S
H1313 C1319 0.930 . S
C1314 H1300 0.930 . S
C1314 C1312 1.395 . S
C1314 C1317 1.403 . S
C1315 C1312 1.403 . S
C1315 C1316 1.524 . S
C1315 C1319 1.400 . S
C1316 H1301 0.960 . S
C1316 H1302 0.960 . S
C1316 H1303 0.960 . S
C1316 C1315 1.524 . S
C1317 C1314 1.403 . S
C1317 C1318 1.392 . S
C1317 C1321 1.495 . S
C1318 C1317 1.392 . S
C1318 C1319 1.385 . S
C1318 C1320 1.478 . S
C1319 H1313 0.930 . S
C1319 C1315 1.400 . S
C1319 C1318 1.385 . S
C1320 C1318 1.478 . S
C1320 C1322 1.381 . S
C1320 C1326 1.383 . S
C1321 C1317 1.495 . S
C1321 H1327 0.959 . S
C1321 H1328 0.961 . S
C1321 H1329 0.960 . S
C1322 C1320 1.381 . S
C1322 C1323 1.394 . S
C1322 H1330 0.930 . S
C1323 C1322 1.394 . S
C1323 C1324 1.383 . S
C1323 H1331 0.929 . S
C1324 C1323 1.383 . S
C1324 C1325 1.377 . S
C1325 H1309 0.930 . S
C1325 C1324 1.377 . S
C1325 C1326 1.379 . S
C1326 H1310 0.931 . S
C1326 C1320 1.383 . S
C1326 C1325 1.379 . S
H1327 C1321 0.959 . S
H1328 C1321 0.961 . S
H1329 C1321 0.960 . S
H1330 C1322 0.930 . S
H1331 C1323 0.929 . S
H1332 C1340 0.929 . S
H1333 C1342 0.930 . S
H1334 C1344 0.930 . S
H1335 C1347 0.929 . S
H1336 C1350 0.930 . S
H1337 C1352 0.960 . S
H1338 C1352 0.960 . S
H1339 C1352 0.960 . S
C1340 H1332 0.929 . S
C1340 C1341 1.377 . S
C1340 C1342 1.384 . S
C1341 C1340 1.377 . S
C1341 C1347 1.390 . S
C1342 H1333 0.930 . S
C1342 C1340 1.384 . S
C1342 C1343 1.372 . S
C1343 C1342 1.372 . S
C1343 C1344 1.400 . S
C1343 C1348 1.490 . S
C1344 H1334 0.930 . S
C1344 C1343 1.400 . S
C1344 C1347 1.386 . S
H1345 C1361 0.930 . S
H1346 C1362 0.931 . S
C1347 H1335 0.929 . S
C1347 C1341 1.390 . S
C1347 C1344 1.386 . S
C1348 C1343 1.490 . S
C1348 C1350 1.395 . S
C1348 C1351 1.403 . S
H1349 C1355 0.930 . S
C1350 H1336 0.930 . S
C1350 C1348 1.395 . S
C1350 C1353 1.403 . S
C1351 C1348 1.403 . S
C1351 C1352 1.524 . S
C1351 C1355 1.400 . S
C1352 H1337 0.960 . S
C1352 H1338 0.960 . S
C1352 H1339 0.960 . S
C1352 C1351 1.524 . S
C1353 C1350 1.403 . S
C1353 C1354 1.392 . S
C1353 C1357 1.495 . S
C1354 C1353 1.392 . S
C1354 C1355 1.385 . S
C1354 C1356 1.478 . S
C1355 H1349 0.930 . S
C1355 C1351 1.400 . S
C1355 C1354 1.385 . S
C1356 C1354 1.478 . S
C1356 C1358 1.381 . S
C1356 C1362 1.383 . S
C1357 C1353 1.495 . S
C1357 H1363 0.959 . S
C1357 H1364 0.961 . S
C1357 H1365 0.960 . S
C1358 C1356 1.381 . S
C1358 C1359 1.394 . S
C1358 H1366 0.930 . S
C1359 C1358 1.394 . S
C1359 C1360 1.383 . S
C1359 H1367 0.929 . S
C1360 C1359 1.383 . S
C1360 C1361 1.377 . S
C1361 H1345 0.930 . S
C1361 C1360 1.377 . S
C1361 C1362 1.379 . S
C1362 H1346 0.931 . S
C1362 C1356 1.383 . S
C1362 C1361 1.379 . S
H1363 C1357 0.959 . S
H1364 C1357 0.961 . S
H1365 C1357 0.960 . S
H1366 C1358 0.930 . S
H1367 C1359 0.929 . S
H1368 C1376 0.929 . S
H1369 C1378 0.930 . S
H1370 C1380 0.930 . S
H1371 C1383 0.929 . S
H1372 C1386 0.930 . S
H1373 C1388 0.960 . S
H1374 C1388 0.960 . S
H1375 C1388 0.960 . S
C1376 H1368 0.929 . S
C1376 C1377 1.377 . S
C1376 C1378 1.384 . S
C1377 C1376 1.377 . S
C1377 C1383 1.390 . S
C1378 H1369 0.930 . S
C1378 C1376 1.384 . S
C1378 C1379 1.372 . S
C1379 C1378 1.372 . S
C1379 C1380 1.400 . S
C1379 C1384 1.490 . S
C1380 H1370 0.930 . S
C1380 C1379 1.400 . S
C1380 C1383 1.386 . S
H1381 C1397 0.930 . S
H1382 C1398 0.931 . S
C1383 H1371 0.929 . S
C1383 C1377 1.390 . S
C1383 C1380 1.386 . S
C1384 C1379 1.490 . S
C1384 C1386 1.395 . S
C1384 C1387 1.403 . S
H1385 C1391 0.930 . S
C1386 H1372 0.930 . S
C1386 C1384 1.395 . S
C1386 C1389 1.403 . S
C1387 C1384 1.403 . S
C1387 C1388 1.524 . S
C1387 C1391 1.400 . S
C1388 H1373 0.960 . S
C1388 H1374 0.960 . S
C1388 H1375 0.960 . S
C1388 C1387 1.524 . S
C1389 C1386 1.403 . S
C1389 C1390 1.392 . S
C1389 C1393 1.495 . S
C1390 C1389 1.392 . S
C1390 C1391 1.385 . S
C1390 C1392 1.478 . S
C1391 H1385 0.930 . S
C1391 C1387 1.400 . S
C1391 C1390 1.385 . S
C1392 C1390 1.478 . S
C1392 C1394 1.381 . S
C1392 C1398 1.383 . S
C1393 C1389 1.495 . S
C1393 H1399 0.959 . S
C1393 H1400 0.961 . S
C1393 H1401 0.960 . S
C1394 C1392 1.381 . S
C1394 C1395 1.394 . S
C1394 H1402 0.930 . S
C1395 C1394 1.394 . S
C1395 C1396 1.383 . S
C1395 H1403 0.929 . S
C1396 C1395 1.383 . S
C1396 C1397 1.377 . S
C1397 H1381 0.930 . S
C1397 C1396 1.377 . S
C1397 C1398 1.379 . S
C1398 H1382 0.931 . S
C1398 C1392 1.383 . S
C1398 C1397 1.379 . S
H1399 C1393 0.959 . S
H1400 C1393 0.961 . S
H1401 C1393 0.960 . S
H1402 C1394 0.930 . S
H1403 C1395 0.929 . S
H1404 C1412 0.929 . S
H1405 C1414 0.930 . S
H1406 C1416 0.930 . S
H1407 C1419 0.929 . S
H1408 C1422 0.930 . S
H1409 C1424 0.960 . S
H1410 C1424 0.960 . S
H1411 C1424 0.960 . S
C1412 H1404 0.929 . S
C1412 C1413 1.377 . S
C1412 C1414 1.384 . S
C1413 C1412 1.377 . S
C1413 C1419 1.390 . S
C1414 H1405 0.930 . S
C1414 C1412 1.384 . S
C1414 C1415 1.372 . S
C1415 C1414 1.372 . S
C1415 C1416 1.400 . S
C1415 C1420 1.490 . S
C1416 H1406 0.930 . S
C1416 C1415 1.400 . S
C1416 C1419 1.386 . S
H1417 C1433 0.930 . S
H1418 C1434 0.931 . S
C1419 H1407 0.929 . S
C1419 C1413 1.390 . S
C1419 C1416 1.386 . S
C1420 C1415 1.490 . S
C1420 C1422 1.395 . S
C1420 C1423 1.403 . S
H1421 C1427 0.930 . S
C1422 H1408 0.930 . S
C1422 C1420 1.395 . S
C1422 C1425 1.403 . S
C1423 C1420 1.403 . S
C1423 C1424 1.524 . S
C1423 C1427 1.400 . S
C1424 H1409 0.960 . S
C1424 H1410 0.960 . S
C1424 H1411 0.960 . S
C1424 C1423 1.524 . S
C1425 C1422 1.403 . S
C1425 C1426 1.392 . S
C1425 C1429 1.495 . S
C1426 C1425 1.392 . S
C1426 C1427 1.385 . S
C1426 C1428 1.478 . S
C1427 H1421 0.930 . S
C1427 C1423 1.400 . S
C1427 C1426 1.385 . S
C1428 C1426 1.478 . S
C1428 C1430 1.381 . S
C1428 C1434 1.383 . S
C1429 C1425 1.495 . S
C1429 H1435 0.959 . S
C1429 H1436 0.961 . S
C1429 H1437 0.960 . S
C1430 C1428 1.381 . S
C1430 C1431 1.394 . S
C1430 H1438 0.930 . S
C1431 C1430 1.394 . S
C1431 C1432 1.383 . S
C1431 H1439 0.929 . S
C1432 C1431 1.383 . S
C1432 C1433 1.377 . S
C1433 H1417 0.930 . S
C1433 C1432 1.377 . S
C1433 C1434 1.379 . S
C1434 H1418 0.931 . S
C1434 C1428 1.383 . S
C1434 C1433 1.379 . S
H1435 C1429 0.959 . S
H1436 C1429 0.961 . S
H1437 C1429 0.960 . S
H1438 C1430 0.930 . S
H1439 C1431 0.929 . S
H1440 C1448 0.929 . S
H1441 C1450 0.930 . S
H1442 C1452 0.930 . S
H1443 C1455 0.929 . S
H1444 C1458 0.930 . S
H1445 C1460 0.960 . S
H1446 C1460 0.960 . S
H1447 C1460 0.960 . S
C1448 H1440 0.929 . S
C1448 C1449 1.377 . S
C1448 C1450 1.384 . S
C1449 C1448 1.377 . S
C1449 C1455 1.390 . S
C1450 H1441 0.930 . S
C1450 C1448 1.384 . S
C1450 C1451 1.372 . S
C1451 C1450 1.372 . S
C1451 C1452 1.400 . S
C1451 C1456 1.490 . S
C1452 H1442 0.930 . S
C1452 C1451 1.400 . S
C1452 C1455 1.386 . S
H1453 C1469 0.930 . S
H1454 C1470 0.931 . S
C1455 H1443 0.929 . S
C1455 C1449 1.390 . S
C1455 C1452 1.386 . S
C1456 C1451 1.490 . S
C1456 C1458 1.395 . S
C1456 C1459 1.403 . S
H1457 C1463 0.930 . S
C1458 H1444 0.930 . S
C1458 C1456 1.395 . S
C1458 C1461 1.403 . S
C1459 C1456 1.403 . S
C1459 C1460 1.524 . S
C1459 C1463 1.400 . S
C1460 H1445 0.960 . S
C1460 H1446 0.960 . S
C1460 H1447 0.960 . S
C1460 C1459 1.524 . S
C1461 C1458 1.403 . S
C1461 C1462 1.392 . S
C1461 C1465 1.495 . S
C1462 C1461 1.392 . S
C1462 C1463 1.385 . S
C1462 C1464 1.478 . S
C1463 H1457 0.930 . S
C1463 C1459 1.400 . S
C1463 C1462 1.385 . S
C1464 C1462 1.478 . S
C1464 C1466 1.381 . S
C1464 C1470 1.383 . S
C1465 C1461 1.495 . S
C1465 H1471 0.959 . S
C1465 H1472 0.961 . S
C1465 H1473 0.960 . S
C1466 C1464 1.381 . S
C1466 C1467 1.394 . S
C1466 H1474 0.930 . S
C1467 C1466 1.394 . S
C1467 C1468 1.383 . S
C1467 H1475 0.929 . S
C1468 C1467 1.383 . S
C1468 C1469 1.377 . S
C1469 H1453 0.930 . S
C1469 C1468 1.377 . S
C1469 C1470 1.379 . S
C1470 H1454 0.931 . S
C1470 C1464 1.383 . S
C1470 C1469 1.379 . S
H1471 C1465 0.959 . S
H1472 C1465 0.961 . S
H1473 C1465 0.960 . S
H1474 C1466 0.930 . S
H1475 C1467 0.929 . S
H1476 C1484 0.929 . S
H1477 C1486 0.930 . S
H1478 C1488 0.930 . S
H1479 C1491 0.929 . S
H1480 C1494 0.930 . S
H1481 C1496 0.960 . S
H1482 C1496 0.960 . S
H1483 C1496 0.960 . S
C1484 H1476 0.929 . S
C1484 C1485 1.377 . S
C1484 C1486 1.384 . S
C1485 C1484 1.377 . S
C1485 C1491 1.390 . S
C1486 H1477 0.930 . S
C1486 C1484 1.384 . S
C1486 C1487 1.372 . S
C1487 C1486 1.372 . S
C1487 C1488 1.400 . S
C1487 C1492 1.490 . S
C1488 H1478 0.930 . S
C1488 C1487 1.400 . S
C1488 C1491 1.386 . S
H1489 C1505 0.930 . S
H1490 C1506 0.931 . S
C1491 H1479 0.929 . S
C1491 C1485 1.390 . S
C1491 C1488 1.386 . S
C1492 C1487 1.490 . S
C1492 C1494 1.395 . S
C1492 C1495 1.403 . S
H1493 C1499 0.930 . S
C1494 H1480 0.930 . S
C1494 C1492 1.395 . S
C1494 C1497 1.403 . S
C1495 C1492 1.403 . S
C1495 C1496 1.524 . S
C1495 C1499 1.400 . S
C1496 H1481 0.960 . S
C1496 H1482 0.960 . S
C1496 H1483 0.960 . S
C1496 C1495 1.524 . S
C1497 C1494 1.403 . S
C1497 C1498 1.392 . S
C1497 C1501 1.495 . S
C1498 C1497 1.392 . S
C1498 C1499 1.385 . S
C1498 C1500 1.478 . S
C1499 H1493 0.930 . S
C1499 C1495 1.400 . S
C1499 C1498 1.385 . S
C1500 C1498 1.478 . S
C1500 C1502 1.381 . S
C1500 C1506 1.383 . S
C1501 C1497 1.495 . S
C1501 H1507 0.959 . S
C1501 H1508 0.961 . S
C1501 H1509 0.960 . S
C1502 C1500 1.381 . S
C1502 C1503 1.394 . S
C1502 H1510 0.930 . S
C1503 C1502 1.394 . S
C1503 C1504 1.383 . S
C1503 H1511 0.929 . S
C1504 C1503 1.383 . S
C1504 C1505 1.377 . S
C1505 H1489 0.930 . S
C1505 C1504 1.377 . S
C1505 C1506 1.379 . S
C1506 H1490 0.931 . S
C1506 C1500 1.383 . S
C1506 C1505 1.379 . S
H1507 C1501 0.959 . S
H1508 C1501 0.961 . S
H1509 C1501 0.960 . S
H1510 C1502 0.930 . S
H1511 C1503 0.929 . S
H1512 C1520 0.929 . S
H1513 C1522 0.930 . S
H1514 C1524 0.930 . S
H1515 C1527 0.929 . S
H1516 C1530 0.930 . S
H1517 C1532 0.960 . S
H1518 C1532 0.960 . S
H1519 C1532 0.960 . S
C1520 H1512 0.929 . S
C1520 C1521 1.377 . S
C1520 C1522 1.384 . S
C1521 C1520 1.377 . S
C1521 C1527 1.390 . S
C1522 H1513 0.930 . S
C1522 C1520 1.384 . S
C1522 C1523 1.372 . S
C1523 C1522 1.372 . S
C1523 C1524 1.400 . S
C1523 C1528 1.490 . S
C1524 H1514 0.930 . S
C1524 C1523 1.400 . S
C1524 C1527 1.386 . S
H1525 C1541 0.930 . S
H1526 C1542 0.931 . S
C1527 H1515 0.929 . S
C1527 C1521 1.390 . S
C1527 C1524 1.386 . S
C1528 C1523 1.490 . S
C1528 C1530 1.395 . S
C1528 C1531 1.403 . S
H1529 C1535 0.930 . S
C1530 H1516 0.930 . S
C1530 C1528 1.395 . S
C1530 C1533 1.403 . S
C1531 C1528 1.403 . S
C1531 C1532 1.524 . S
C1531 C1535 1.400 . S
C1532 H1517 0.960 . S
C1532 H1518 0.960 . S
C1532 H1519 0.960 . S
C1532 C1531 1.524 . S
C1533 C1530 1.403 . S
C1533 C1534 1.392 . S
C1533 C1537 1.495 . S
C1534 C1533 1.392 . S
C1534 C1535 1.385 . S
C1534 C1536 1.478 . S
C1535 H1529 0.930 . S
C1535 C1531 1.400 . S
C1535 C1534 1.385 . S
C1536 C1534 1.478 . S
C1536 C1538 1.381 . S
C1536 C1542 1.383 . S
C1537 C1533 1.495 . S
C1537 H1543 0.959 . S
C1537 H1544 0.961 . S
C1537 H1545 0.960 . S
C1538 C1536 1.381 . S
C1538 C1539 1.394 . S
C1538 H1546 0.930 . S
C1539 C1538 1.394 . S
C1539 C1540 1.383 . S
C1539 H1547 0.929 . S
C1540 C1539 1.383 . S
C1540 C1541 1.377 . S
C1541 H1525 0.930 . S
C1541 C1540 1.377 . S
C1541 C1542 1.379 . S
C1542 H1526 0.931 . S
C1542 C1536 1.383 . S
C1542 C1541 1.379 . S
H1543 C1537 0.959 . S
H1544 C1537 0.961 . S
H1545 C1537 0.960 . S
H1546 C1538 0.930 . S
H1547 C1539 0.929 . S
H1548 C1556 0.929 . S
H1549 C1558 0.930 . S
H1550 C1560 0.930 . S
H1551 C1563 0.929 . S
H1552 C1566 0.930 . S
H1553 C1568 0.960 . S
H1554 C1568 0.960 . S
H1555 C1568 0.960 . S
C1556 H1548 0.929 . S
C1556 C1557 1.377 . S
C1556 C1558 1.384 . S
C1557 C1556 1.377 . S
C1557 C1563 1.390 . S
C1558 H1549 0.930 . S
C1558 C1556 1.384 . S
C1558 C1559 1.372 . S
C1559 C1558 1.372 . S
C1559 C1560 1.400 . S
C1559 C1564 1.490 . S
C1560 H1550 0.930 . S
C1560 C1559 1.400 . S
C1560 C1563 1.386 . S
H1561 C1577 0.930 . S
H1562 C1578 0.931 . S
C1563 H1551 0.929 . S
C1563 C1557 1.390 . S
C1563 C1560 1.386 . S
C1564 C1559 1.490 . S
C1564 C1566 1.395 . S
C1564 C1567 1.403 . S
H1565 C1571 0.930 . S
C1566 H1552 0.930 . S
C1566 C1564 1.395 . S
C1566 C1569 1.403 . S
C1567 C1564 1.403 . S
C1567 C1568 1.524 . S
C1567 C1571 1.400 . S
C1568 H1553 0.960 . S
C1568 H1554 0.960 . S
C1568 H1555 0.960 . S
C1568 C1567 1.524 . S
C1569 C1566 1.403 . S
C1569 C1570 1.392 . S
C1569 C1573 1.495 . S
C1570 C1569 1.392 . S
C1570 C1571 1.385 . S
C1570 C1572 1.478 . S
C1571 H1565 0.930 . S
C1571 C1567 1.400 . S
C1571 C1570 1.385 . S
C1572 C1570 1.478 . S
C1572 C1574 1.381 . S
C1572 C1578 1.383 . S
C1573 C1569 1.495 . S
C1573 H1579 0.959 . S
C1573 H1580 0.961 . S
C1573 H1581 0.960 . S
C1574 C1572 1.381 . S
C1574 C1575 1.394 . S
C1574 H1582 0.930 . S
C1575 C1574 1.394 . S
C1575 C1576 1.383 . S
C1575 H1583 0.929 . S
C1576 C1575 1.383 . S
C1576 C1577 1.377 . S
C1577 H1561 0.930 . S
C1577 C1576 1.377 . S
C1577 C1578 1.379 . S
C1578 H1562 0.931 . S
C1578 C1572 1.383 . S
C1578 C1577 1.379 . S
H1579 C1573 0.959 . S
H1580 C1573 0.961 . S
H1581 C1573 0.960 . S
H1582 C1574 0.930 . S
H1583 C1575 0.929 . S
H1584 C1592 0.929 . S
H1585 C1594 0.930 . S
H1586 C1596 0.930 . S
H1587 C1599 0.929 . S
H1588 C1602 0.930 . S
H1589 C1604 0.960 . S
H1590 C1604 0.960 . S
H1591 C1604 0.960 . S
C1592 H1584 0.929 . S
C1592 C1593 1.377 . S
C1592 C1594 1.384 . S
C1593 C1592 1.377 . S
C1593 C1599 1.390 . S
C1594 H1585 0.930 . S
C1594 C1592 1.384 . S
C1594 C1595 1.372 . S
C1595 C1594 1.372 . S
C1595 C1596 1.400 . S
C1595 C1600 1.490 . S
C1596 H1586 0.930 . S
C1596 C1595 1.400 . S
C1596 C1599 1.386 . S
H1597 C1613 0.930 . S
H1598 C1614 0.931 . S
C1599 H1587 0.929 . S
C1599 C1593 1.390 . S
C1599 C1596 1.386 . S
C1600 C1595 1.490 . S
C1600 C1602 1.395 . S
C1600 C1603 1.403 . S
H1601 C1607 0.930 . S
C1602 H1588 0.930 . S
C1602 C1600 1.395 . S
C1602 C1605 1.403 . S
C1603 C1600 1.403 . S
C1603 C1604 1.524 . S
C1603 C1607 1.400 . S
C1604 H1589 0.960 . S
C1604 H1590 0.960 . S
C1604 H1591 0.960 . S
C1604 C1603 1.524 . S
C1605 C1602 1.403 . S
C1605 C1606 1.392 . S
C1605 C1609 1.495 . S
C1606 C1605 1.392 . S
C1606 C1607 1.385 . S
C1606 C1608 1.478 . S
C1607 H1601 0.930 . S
C1607 C1603 1.400 . S
C1607 C1606 1.385 . S
C1608 C1606 1.478 . S
C1608 C1610 1.381 . S
C1608 C1614 1.383 . S
C1609 C1605 1.495 . S
C1609 H1615 0.959 . S
C1609 H1616 0.961 . S
C1609 H1617 0.960 . S
C1610 C1608 1.381 . S
C1610 C1611 1.394 . S
C1610 H1618 0.930 . S
C1611 C1610 1.394 . S
C1611 C1612 1.383 . S
C1611 H1619 0.929 . S
C1612 C1611 1.383 . S
C1612 C1613 1.377 . S
C1613 H1597 0.930 . S
C1613 C1612 1.377 . S
C1613 C1614 1.379 . S
C1614 H1598 0.931 . S
C1614 C1608 1.383 . S
C1614 C1613 1.379 . S
H1615 C1609 0.959 . S
H1616 C1609 0.961 . S
H1617 C1609 0.960 . S
H1618 C1610 0.930 . S
H1619 C1611 0.929 . S
H1620 C1628 0.929 . S
H1621 C1630 0.930 . S
H1622 C1632 0.930 . S
H1623 C1635 0.929 . S
H1624 C1638 0.930 . S
H1625 C1640 0.960 . S
H1626 C1640 0.960 . S
H1627 C1640 0.960 . S
C1628 H1620 0.929 . S
C1628 C1629 1.377 . S
C1628 C1630 1.384 . S
C1629 C1628 1.377 . S
C1629 C1635 1.390 . S
C1630 H1621 0.930 . S
C1630 C1628 1.384 . S
C1630 C1631 1.372 . S
C1631 C1630 1.372 . S
C1631 C1632 1.400 . S
C1631 C1636 1.490 . S
C1632 H1622 0.930 . S
C1632 C1631 1.400 . S
C1632 C1635 1.386 . S
H1633 C1649 0.930 . S
H1634 C1650 0.931 . S
C1635 H1623 0.929 . S
C1635 C1629 1.390 . S
C1635 C1632 1.386 . S
C1636 C1631 1.490 . S
C1636 C1638 1.395 . S
C1636 C1639 1.403 . S
H1637 C1643 0.930 . S
C1638 H1624 0.930 . S
C1638 C1636 1.395 . S
C1638 C1641 1.403 . S
C1639 C1636 1.403 . S
C1639 C1640 1.524 . S
C1639 C1643 1.400 . S
C1640 H1625 0.960 . S
C1640 H1626 0.960 . S
C1640 H1627 0.960 . S
C1640 C1639 1.524 . S
C1641 C1638 1.403 . S
C1641 C1642 1.392 . S
C1641 C1645 1.495 . S
C1642 C1641 1.392 . S
C1642 C1643 1.385 . S
C1642 C1644 1.478 . S
C1643 H1637 0.930 . S
C1643 C1639 1.400 . S
C1643 C1642 1.385 . S
C1644 C1642 1.478 . S
C1644 C1646 1.381 . S
C1644 C1650 1.383 . S
C1645 C1641 1.495 . S
C1645 H1651 0.959 . S
C1645 H1652 0.961 . S
C1645 H1653 0.960 . S
C1646 C1644 1.381 . S
C1646 C1647 1.394 . S
C1646 H1654 0.930 . S
C1647 C1646 1.394 . S
C1647 C1648 1.383 . S
C1647 H1655 0.929 . S
C1648 C1647 1.383 . S
C1648 C1649 1.377 . S
C1649 H1633 0.930 . S
C1649 C1648 1.377 . S
C1649 C1650 1.379 . S
C1650 H1634 0.931 . S
C1650 C1644 1.383 . S
C1650 C1649 1.379 . S
H1651 C1645 0.959 . S
H1652 C1645 0.961 . S
H1653 C1645 0.960 . S
H1654 C1646 0.930 . S
H1655 C1647 0.929 . S
H1656 C1664 0.929 . S
H1657 C1666 0.930 . S
H1658 C1668 0.930 . S
H1659 C1671 0.929 . S
H1660 C1674 0.930 . S
H1661 C1676 0.960 . S
H1662 C1676 0.960 . S
H1663 C1676 0.960 . S
C1664 H1656 0.929 . S
C1664 C1665 1.377 . S
C1664 C1666 1.384 . S
C1665 C1664 1.377 . S
C1665 C1671 1.390 . S
C1666 H1657 0.930 . S
C1666 C1664 1.384 . S
C1666 C1667 1.372 . S
C1667 C1666 1.372 . S
C1667 C1668 1.400 . S
C1667 C1672 1.490 . S
C1668 H1658 0.930 . S
C1668 C1667 1.400 . S
C1668 C1671 1.386 . S
H1669 C1685 0.930 . S
H1670 C1686 0.931 . S
C1671 H1659 0.929 . S
C1671 C1665 1.390 . S
C1671 C1668 1.386 . S
C1672 C1667 1.490 . S
C1672 C1674 1.395 . S
C1672 C1675 1.403 . S
H1673 C1679 0.930 . S
C1674 H1660 0.930 . S
C1674 C1672 1.395 . S
C1674 C1677 1.403 . S
C1675 C1672 1.403 . S
C1675 C1676 1.524 . S
C1675 C1679 1.400 . S
C1676 H1661 0.960 . S
C1676 H1662 0.960 . S
C1676 H1663 0.960 . S
C1676 C1675 1.524 . S
C1677 C1674 1.403 . S
C1677 C1678 1.392 . S
C1677 C1681 1.495 . S
C1678 C1677 1.392 . S
C1678 C1679 1.385 . S
C1678 C1680 1.478 . S
C1679 H1673 0.930 . S
C1679 C1675 1.400 . S
C1679 C1678 1.385 . S
C1680 C1678 1.478 . S
C1680 C1682 1.381 . S
C1680 C1686 1.383 . S
C1681 C1677 1.495 . S
C1681 H1687 0.959 . S
C1681 H1688 0.961 . S
C1681 H1689 0.960 . S
C1682 C1680 1.381 . S
C1682 C1683 1.394 . S
C1682 H1690 0.930 . S
C1683 C1682 1.394 . S
C1683 C1684 1.383 . S
C1683 H1691 0.929 . S
C1684 C1683 1.383 . S
C1684 C1685 1.377 . S
C1685 H1669 0.930 . S
C1685 C1684 1.377 . S
C1685 C1686 1.379 . S
C1686 H1670 0.931 . S
C1686 C1680 1.383 . S
C1686 C1685 1.379 . S
H1687 C1681 0.959 . S
H1688 C1681 0.961 . S
H1689 C1681 0.960 . S
H1690 C1682 0.930 . S
H1691 C1683 0.929 . S
H1692 C1700 0.929 . S
H1693 C1702 0.930 . S
H1694 C1704 0.930 . S
H1695 C1707 0.929 . S
H1696 C1710 0.930 . S
H1697 C1712 0.960 . S
H1698 C1712 0.960 . S
H1699 C1712 0.960 . S
C1700 H1692 0.929 . S
C1700 C1701 1.377 . S
C1700 C1702 1.384 . S
C1701 C1700 1.377 . S
C1701 C1707 1.390 . S
C1702 H1693 0.930 . S
C1702 C1700 1.384 . S
C1702 C1703 1.372 . S
C1703 C1702 1.372 . S
C1703 C1704 1.400 . S
C1703 C1708 1.490 . S
C1704 H1694 0.930 . S
C1704 C1703 1.400 . S
C1704 C1707 1.386 . S
H1705 C1721 0.930 . S
H1706 C1722 0.931 . S
C1707 H1695 0.929 . S
C1707 C1701 1.390 . S
C1707 C1704 1.386 . S
C1708 C1703 1.490 . S
C1708 C1710 1.395 . S
C1708 C1711 1.403 . S
H1709 C1715 0.930 . S
C1710 H1696 0.930 . S
C1710 C1708 1.395 . S
C1710 C1713 1.403 . S
C1711 C1708 1.403 . S
C1711 C1712 1.524 . S
C1711 C1715 1.400 . S
C1712 H1697 0.960 . S
C1712 H1698 0.960 . S
C1712 H1699 0.960 . S
C1712 C1711 1.524 . S
C1713 C1710 1.403 . S
C1713 C1714 1.392 . S
C1713 C1717 1.495 . S
C1714 C1713 1.392 . S
C1714 C1715 1.385 . S
C1714 C1716 1.478 . S
C1715 H1709 0.930 . S
C1715 C1711 1.400 . S
C1715 C1714 1.385 . S
C1716 C1714 1.478 . S
C1716 C1718 1.381 . S
C1716 C1722 1.383 . S
C1717 C1713 1.495 . S
C1717 H1723 0.959 . S
C1717 H1724 0.961 . S
C1717 H1725 0.960 . S
C1718 C1716 1.381 . S
C1718 C1719 1.394 . S
C1718 H1726 0.930 . S
C1719 C1718 1.394 . S
C1719 C1720 1.383 . S
C1719 H1727 0.929 . S
C1720 C1719 1.383 . S
C1720 C1721 1.377 . S
C1721 H1705 0.930 . S
C1721 C1720 1.377 . S
C1721 C1722 1.379 . S
C1722 H1706 0.931 . S
C1722 C1716 1.383 . S
C1722 C1721 1.379 . S
H1723 C1717 0.959 . S
H1724 C1717 0.961 . S
H1725 C1717 0.960 . S
H1726 C1718 0.930 . S
H1727 C1719 0.929 . S
H1728 C1736 0.900 1_545 S
H1729 C1738 0.891 1_545 S
H1730 C1740 0.930 . S
H1731 C1743 0.929 . S
H1732 C1746 0.930 . S
H1733 C1748 0.951 1_554 S
H1734 C1748 0.960 . S
H1735 C1748 0.960 . S
C1736 H1728 0.900 1_565 S
C1736 C1737 1.377 . S
C1736 C1738 1.399 . S
C1737 C1736 1.377 . S
C1737 C1743 1.390 . S
C1738 H1729 0.891 1_565 S
C1738 C1736 1.399 . S
C1738 C1739 1.397 . S
C1739 C1738 1.397 . S
C1739 C1740 1.400 . S
C1739 C1744 1.490 . S
C1740 H1730 0.930 . S
C1740 C1739 1.400 . S
C1740 C1743 1.386 . S
H1741 C1757 0.932 1_565 S
H1742 C1758 0.931 1_565 S
C1743 H1731 0.929 . S
C1743 C1737 1.390 . S
C1743 C1740 1.386 . S
C1744 C1739 1.490 . S
C1744 C1746 1.395 1_565 S
C1744 C1747 1.403 . S
H1745 C1751 0.930 . S
C1746 H1732 0.930 . S
C1746 C1744 1.395 1_545 S
C1746 C1749 1.403 1_556 S
C1747 C1744 1.403 . S
C1747 C1748 1.524 . S
C1747 C1751 1.400 1_556 S
C1748 H1733 0.951 1_556 S
C1748 H1734 0.960 . S
C1748 H1735 0.960 . S
C1748 C1747 1.524 . S
C1749 C1746 1.403 1_554 S
C1749 C1750 1.392 . S
C1749 C1753 1.495 . S
C1750 C1749 1.392 . S
C1750 C1751 1.385 1_545 S
C1750 C1752 1.478 . S
C1751 H1745 0.930 . S
C1751 C1747 1.400 1_554 S
C1751 C1750 1.385 1_565 S
C1752 C1750 1.478 . S
C1752 C1754 1.381 . S
C1752 C1758 1.383 . S
C1753 C1749 1.495 . S
C1753 H1759 0.912 1_554 S
C1753 H1760 0.961 . S
C1753 H1761 0.960 . S
C1754 C1752 1.381 . S
C1754 C1755 1.394 . S
C1754 H1762 0.930 . S
C1755 C1754 1.394 . S
C1755 C1756 1.383 . S
C1755 H1763 0.929 . S
C1756 C1755 1.383 . S
C1756 C1757 1.377 . S
C1757 H1741 0.932 1_545 S
C1757 C1756 1.377 . S
C1757 C1758 1.379 . S
C1758 H1742 0.931 1_545 S
C1758 C1752 1.383 . S
C1758 C1757 1.379 . S
H1759 C1753 0.912 1_556 S
H1760 C1753 0.961 . S
H1761 C1753 0.960 . S
H1762 C1754 0.930 . S
H1763 C1755 0.929 . S
H1764 C1772 0.929 . S
H1765 C1774 0.930 . S
H1766 C1776 0.930 . S
H1767 C1779 0.929 . S
H1768 C1782 0.930 . S
H1769 C1784 0.960 . S
H1770 C1784 0.960 . S
H1771 C1784 0.960 . S
C1772 H1764 0.929 . S
C1772 C1773 1.377 . S
C1772 C1774 1.384 . S
C1773 C1772 1.377 . S
C1773 C1779 1.390 . S
C1774 H1765 0.930 . S
C1774 C1772 1.384 . S
C1774 C1775 1.372 . S
C1775 C1774 1.372 . S
C1775 C1776 1.400 . S
C1775 C1780 1.490 . S
C1776 H1766 0.930 . S
C1776 C1775 1.400 . S
C1776 C1779 1.386 . S
H1777 C1793 0.930 . S
H1778 C1794 0.931 . S
C1779 H1767 0.929 . S
C1779 C1773 1.390 . S
C1779 C1776 1.386 . S
C1780 C1775 1.490 . S
C1780 C1782 1.395 . S
C1780 C1783 1.403 . S
H1781 C1787 0.930 . S
C1782 H1768 0.930 . S
C1782 C1780 1.395 . S
C1782 C1785 1.403 . S
C1783 C1780 1.403 . S
C1783 C1784 1.524 . S
C1783 C1787 1.400 . S
C1784 H1769 0.960 . S
C1784 H1770 0.960 . S
C1784 H1771 0.960 . S
C1784 C1783 1.524 . S
C1785 C1782 1.403 . S
C1785 C1786 1.392 . S
C1785 C1789 1.495 . S
C1786 C1785 1.392 . S
C1786 C1787 1.385 . S
C1786 C1788 1.478 . S
C1787 H1781 0.930 . S
C1787 C1783 1.400 . S
C1787 C1786 1.385 . S
C1788 C1786 1.478 . S
C1788 C1790 1.381 . S
C1788 C1794 1.383 . S
C1789 C1785 1.495 . S
C1789 H1795 0.959 . S
C1789 H1796 0.961 . S
C1789 H1797 0.960 . S
C1790 C1788 1.381 . S
C1790 C1791 1.394 . S
C1790 H1798 0.930 . S
C1791 C1790 1.394 . S
C1791 C1792 1.383 . S
C1791 H1799 0.929 . S
C1792 C1791 1.383 . S
C1792 C1793 1.377 . S
C1793 H1777 0.930 . S
C1793 C1792 1.377 . S
C1793 C1794 1.379 . S
C1794 H1778 0.931 . S
C1794 C1788 1.383 . S
C1794 C1793 1.379 . S
H1795 C1789 0.959 . S
H1796 C1789 0.961 . S
H1797 C1789 0.960 . S
H1798 C1790 0.930 . S
H1799 C1791 0.929 . S
H1800 C1808 0.901 1_655 S
H1801 C1810 0.885 1_655 S
H1802 C1812 0.930 . S
H1803 C1815 0.929 . S
H1804 C1818 0.930 . S
H1805 C1820 0.915 1_554 S
H1806 C1820 0.960 . S
H1807 C1820 0.960 . S
C1808 H1800 0.901 1_455 S
C1808 C1809 1.377 . S
C1808 C1810 1.400 . S
C1809 C1808 1.377 . S
C1809 C1815 1.390 . S
C1810 H1801 0.885 1_455 S
C1810 C1808 1.400 . S
C1810 C1811 1.401 . S
C1811 C1810 1.401 . S
C1811 C1812 1.400 . S
C1811 C1816 1.490 . S
C1812 H1802 0.930 . S
C1812 C1811 1.400 . S
C1812 C1815 1.386 . S
H1813 C1829 0.938 . S
H1814 C1830 0.931 1_455 S
C1815 H1803 0.929 . S
C1815 C1809 1.390 . S
C1815 C1812 1.386 . S
C1816 C1811 1.490 . S
C1816 C1818 1.395 1_455 S
C1816 C1819 1.403 . S
H1817 C1823 0.930 . S
C1818 H1804 0.930 . S
C1818 C1816 1.395 1_655 S
C1818 C1821 1.403 1_556 S
C1819 C1816 1.403 . S
C1819 C1820 1.524 . S
C1819 C1823 1.400 1_556 S
C1820 H1805 0.915 1_556 S
C1820 H1806 0.960 . S
C1820 H1807 0.960 . S
C1820 C1819 1.524 . S
C1821 C1818 1.403 1_554 S
C1821 C1822 1.392 . S
C1821 C1825 1.495 . S
C1822 C1821 1.392 . S
C1822 C1823 1.385 1_655 S
C1822 C1824 1.478 . S
C1823 H1817 0.930 . S
C1823 C1819 1.400 1_554 S
C1823 C1822 1.385 1_455 S
C1824 C1822 1.478 . S
C1824 C1826 1.381 . S
C1824 C1830 1.383 . S
C1825 C1821 1.495 . S
C1825 H1831 0.959 1_554 S
C1825 H1832 0.961 . S
C1825 H1833 0.960 . S
C1826 C1824 1.381 . S
C1826 C1827 1.394 . S
C1826 H1834 0.930 . S
C1827 C1826 1.394 . S
C1827 C1828 1.383 . S
C1827 H1835 0.929 . S
C1828 C1827 1.383 . S
C1828 C1829 1.377 . S
C1829 H1813 0.938 . S
C1829 C1828 1.377 . S
C1829 C1830 1.379 . S
C1830 H1814 0.931 1_655 S
C1830 C1824 1.383 . S
C1830 C1829 1.379 . S
H1831 C1825 0.959 1_556 S
H1832 C1825 0.961 . S
H1833 C1825 0.960 . S
H1834 C1826 0.930 . S
H1835 C1827 0.929 . S
H1836 C1844 0.929 . S
H1837 C1846 0.930 1_565 S
H1838 C1848 0.930 . S
H1839 C1851 0.929 . S
H1840 C1854 0.930 . S
H1841 C1856 0.960 . S
H1842 C1856 0.960 . S
H1843 C1856 0.960 1_545 S
C1844 H1836 0.929 . S
C1844 C1845 1.377 . S
C1844 C1846 1.384 . S
C1845 C1844 1.377 . S
C1845 C1851 1.390 . S
C1846 H1837 0.930 1_545 S
C1846 C1844 1.384 . S
C1846 C1847 1.372 . S
C1847 C1846 1.372 . S
C1847 C1848 1.400 . S
C1847 C1852 1.490 . S
C1848 H1838 0.930 . S
C1848 C1847 1.400 . S
C1848 C1851 1.386 . S
H1849 C1865 0.930 . S
H1850 C1866 0.931 1_545 S
C1851 H1839 0.929 . S
C1851 C1845 1.390 . S
C1851 C1848 1.386 . S
C1852 C1847 1.490 . S
C1852 C1854 1.395 . S
C1852 C1855 1.403 1_545 S
H1853 C1859 0.930 . S
C1854 H1840 0.930 . S
C1854 C1852 1.395 . S
C1854 C1857 1.403 . S
C1855 C1852 1.403 1_565 S
C1855 C1856 1.524 . S
C1855 C1859 1.400 . S
C1856 H1841 0.960 . S
C1856 H1842 0.960 . S
C1856 H1843 0.960 1_565 S
C1856 C1855 1.524 . S
C1857 C1854 1.403 . S
C1857 C1858 1.392 1_545 S
C1857 C1861 1.495 . S
C1858 C1857 1.392 1_565 S
C1858 C1859 1.385 . S
C1858 C1860 1.478 . S
C1859 H1853 0.930 . S
C1859 C1855 1.400 . S
C1859 C1858 1.385 . S
C1860 C1858 1.478 . S
C1860 C1862 1.381 . S
C1860 C1866 1.383 . S
C1861 C1857 1.495 . S
C1861 H1867 0.959 . S
C1861 H1868 0.961 . S
C1861 H1869 0.960 1_545 S
C1862 C1860 1.381 . S
C1862 C1863 1.394 . S
C1862 H1870 0.930 . S
C1863 C1862 1.394 . S
C1863 C1864 1.383 . S
C1863 H1871 0.929 . S
C1864 C1863 1.383 . S
C1864 C1865 1.377 . S
C1865 H1849 0.930 . S
C1865 C1864 1.377 . S
C1865 C1866 1.379 . S
C1866 H1850 0.931 1_565 S
C1866 C1860 1.383 . S
C1866 C1865 1.379 . S
H1867 C1861 0.959 . S
H1868 C1861 0.961 . S
H1869 C1861 0.960 1_565 S
H1870 C1862 0.930 . S
H1871 C1863 0.929 . S
H1872 C1880 0.929 . S
H1873 C1882 0.930 . S
H1874 C1884 0.930 . S
H1875 C1887 0.929 . S
H1876 C1890 0.930 . S
H1877 C1892 0.960 . S
H1878 C1892 0.960 . S
H1879 C1892 0.960 . S
C1880 H1872 0.929 . S
C1880 C1881 1.377 . S
C1880 C1882 1.384 . S
C1881 C1880 1.377 . S
C1881 C1887 1.390 . S
C1882 H1873 0.930 . S
C1882 C1880 1.384 . S
C1882 C1883 1.372 . S
C1883 C1882 1.372 . S
C1883 C1884 1.400 . S
C1883 C1888 1.490 . S
C1884 H1874 0.930 . S
C1884 C1883 1.400 . S
C1884 C1887 1.386 . S
H1885 C1901 0.930 . S
H1886 C1902 0.931 . S
C1887 H1875 0.929 . S
C1887 C1881 1.390 . S
C1887 C1884 1.386 . S
C1888 C1883 1.490 . S
C1888 C1890 1.395 . S
C1888 C1891 1.403 . S
H1889 C1895 0.930 . S
C1890 H1876 0.930 . S
C1890 C1888 1.395 . S
C1890 C1893 1.403 1_554 S
C1891 C1888 1.403 . S
C1891 C1892 1.524 . S
C1891 C1895 1.400 1_554 S
C1892 H1877 0.960 . S
C1892 H1878 0.960 . S
C1892 H1879 0.960 . S
C1892 C1891 1.524 . S
C1893 C1890 1.403 1_556 S
C1893 C1894 1.392 . S
C1893 C1897 1.495 . S
C1894 C1893 1.392 . S
C1894 C1895 1.385 . S
C1894 C1896 1.478 . S
C1895 H1889 0.930 . S
C1895 C1891 1.400 1_556 S
C1895 C1894 1.385 . S
C1896 C1894 1.478 . S
C1896 C1898 1.381 . S
C1896 C1902 1.383 . S
C1897 C1893 1.495 . S
C1897 H1903 0.959 . S
C1897 H1904 0.961 . S
C1897 H1905 0.960 . S
C1898 C1896 1.381 . S
C1898 C1899 1.394 . S
C1898 H1906 0.930 . S
C1899 C1898 1.394 . S
C1899 C1900 1.383 . S
C1899 H1907 0.929 . S
C1900 C1899 1.383 . S
C1900 C1901 1.377 . S
C1901 H1885 0.930 . S
C1901 C1900 1.377 . S
C1901 C1902 1.379 . S
C1902 H1886 0.931 . S
C1902 C1896 1.383 . S
C1902 C1901 1.379 . S
H1903 C1897 0.959 . S
H1904 C1897 0.961 . S
H1905 C1897 0.960 . S
H1906 C1898 0.930 . S
H1907 C1899 0.929 . S
H1908 C1916 0.929 . S
H1909 C1918 0.930 . S
H1910 C1920 0.930 1_655 S
H1911 C1923 0.911 1_655 S
H1912 C1926 0.930 . S
H1913 C1928 0.960 . S
H1914 C1928 0.960 . S
H1915 C1928 0.960 . S
C1916 H1908 0.929 . S
C1916 C1917 1.377 . S
C1916 C1918 1.384 . S
C1917 C1916 1.377 . S
C1917 C1923 1.390 . S
C1918 H1909 0.930 . S
C1918 C1916 1.384 . S
C1918 C1919 1.372 . S
C1919 C1918 1.372 . S
C1919 C1920 1.400 . S
C1919 C1924 1.490 . S
C1920 H1910 0.930 1_455 S
C1920 C1919 1.400 . S
C1920 C1923 1.386 . S
H1921 C1937 0.930 . S
H1922 C1938 0.931 . S
C1923 H1911 0.911 1_455 S
C1923 C1917 1.390 . S
C1923 C1920 1.386 . S
C1924 C1919 1.490 . S
C1924 C1926 1.395 . S
C1924 C1927 1.403 1_455 S
H1925 C1931 0.930 . S
C1926 H1912 0.930 . S
C1926 C1924 1.395 . S
C1926 C1929 1.403 . S
C1927 C1924 1.403 1_655 S
C1927 C1928 1.524 . S
C1927 C1931 1.400 . S
C1928 H1913 0.960 . S
C1928 H1914 0.960 . S
C1928 H1915 0.960 . S
C1928 C1927 1.524 . S
C1929 C1926 1.403 . S
C1929 C1930 1.392 1_455 S
C1929 C1933 1.495 . S
C1930 C1929 1.392 1_655 S
C1930 C1931 1.385 . S
C1930 C1932 1.478 . S
C1931 H1925 0.930 . S
C1931 C1927 1.400 . S
C1931 C1930 1.385 . S
C1932 C1930 1.478 . S
C1932 C1934 1.380 . S
C1932 C1938 1.383 . S
C1933 C1929 1.495 . S
C1933 H1939 0.959 . S
C1933 H1940 0.961 . S
C1933 H1941 0.960 . S
C1934 C1932 1.380 . S
C1934 C1935 1.393 . S
C1934 H1942 0.933 1_655 S
C1935 C1934 1.393 . S
C1935 C1936 1.383 . S
C1935 H1943 0.921 1_655 S
C1936 C1935 1.383 . S
C1936 C1937 1.377 . S
C1937 H1921 0.930 . S
C1937 C1936 1.377 . S
C1937 C1938 1.379 . S
C1938 H1922 0.931 . S
C1938 C1932 1.383 . S
C1938 C1937 1.379 . S
H1939 C1933 0.959 . S
H1940 C1933 0.961 . S
H1941 C1933 0.960 . S
H1942 C1934 0.933 1_455 S
H1943 C1935 0.921 1_455 S
H1944 C1952 0.929 . S
H1945 C1954 0.930 . S
H1946 C1956 0.930 1_545 S
H1947 C1959 0.897 1_545 S
H1948 C1962 0.930 . S
H1949 C1964 0.960 . S
H1950 C1964 0.958 . S
H1951 C1964 0.960 . S
C1952 H1944 0.929 . S
C1952 C1953 1.377 . S
C1952 C1954 1.384 . S
C1953 C1952 1.377 . S
C1953 C1959 1.390 . S
C1954 H1945 0.930 . S
C1954 C1952 1.384 . S
C1954 C1955 1.372 . S
C1955 C1954 1.372 . S
C1955 C1956 1.400 . S
C1955 C1960 1.490 . S
C1956 H1946 0.930 1_565 S
C1956 C1955 1.400 . S
C1956 C1959 1.386 . S
H1957 C1973 0.930 . S
H1958 C1974 0.931 . S
C1959 H1947 0.897 1_565 S
C1959 C1953 1.390 . S
C1959 C1956 1.386 . S
C1960 C1955 1.490 . S
C1960 C1962 1.395 . S
C1960 C1963 1.403 1_565 S
H1961 C1967 0.930 . S
C1962 H1948 0.930 . S
C1962 C1960 1.395 . S
C1962 C1965 1.403 1_556 S
C1963 C1960 1.403 1_545 S
C1963 C1964 1.524 . S
C1963 C1967 1.400 1_556 S
C1964 H1949 0.960 . S
C1964 H1950 0.958 . S
C1964 H1951 0.960 . S
C1964 C1963 1.524 . S
C1965 C1962 1.403 1_554 S
C1965 C1966 1.392 1_565 S
C1965 C1969 1.495 . S
C1966 C1965 1.392 1_545 S
C1966 C1967 1.385 . S
C1966 C1968 1.478 . S
C1967 H1961 0.930 . S
C1967 C1963 1.400 1_554 S
C1967 C1966 1.385 . S
C1968 C1966 1.478 . S
C1968 C1970 1.382 1_545 S
C1968 C1974 1.383 . S
C1969 C1965 1.495 . S
C1969 H1975 0.959 . S
C1969 H1976 0.961 . S
C1969 H1977 0.960 . S
C1970 C1968 1.382 1_565 S
C1970 C1971 1.395 1_565 S
C1970 H1978 0.928 . S
C1971 C1970 1.395 1_545 S
C1971 C1972 1.383 . S
C1971 H1979 0.904 1_545 S
C1972 C1971 1.383 . S
C1972 C1973 1.377 . S
C1973 H1957 0.930 . S
C1973 C1972 1.377 . S
C1973 C1974 1.379 . S
C1974 H1958 0.931 . S
C1974 C1968 1.383 . S
C1974 C1973 1.379 . S
H1975 C1969 0.959 . S
H1976 C1969 0.961 . S
H1977 C1969 0.960 . S
H1978 C1970 0.928 . S
H1979 C1971 0.904 1_565 S
H1980 C1988 0.929 . S
H1981 C1990 0.930 . S
H1982 C1992 0.930 . S
H1983 C1995 0.929 . S
H1984 C1998 0.930 . S
H1985 C2000 0.960 . S
H1986 C2000 0.960 . S
H1987 C2000 0.960 . S
C1988 H1980 0.929 . S
C1988 C1989 1.377 . S
C1988 C1990 1.384 . S
C1989 C1988 1.377 . S
C1989 C1995 1.390 . S
C1990 H1981 0.930 . S
C1990 C1988 1.384 . S
C1990 C1991 1.372 . S
C1991 C1990 1.372 . S
C1991 C1992 1.400 . S
C1991 C1996 1.490 . S
C1992 H1982 0.930 . S
C1992 C1991 1.400 . S
C1992 C1995 1.386 . S
H1993 C2009 0.930 . S
H1994 C2010 0.931 . S
C1995 H1983 0.929 . S
C1995 C1989 1.390 . S
C1995 C1992 1.386 . S
C1996 C1991 1.490 . S
C1996 C1998 1.395 . S
C1996 C1999 1.403 . S
H1997 C2003 0.930 . S
C1998 H1984 0.930 . S
C1998 C1996 1.395 . S
C1998 C2001 1.403 . S
C1999 C1996 1.403 . S
C1999 C2000 1.524 . S
C1999 C2003 1.400 . S
C2000 H1985 0.960 . S
C2000 H1986 0.960 . S
C2000 H1987 0.960 . S
C2000 C1999 1.524 . S
C2001 C1998 1.403 . S
C2001 C2002 1.392 . S
C2001 C2005 1.495 . S
C2002 C2001 1.392 . S
C2002 C2003 1.385 . S
C2002 C2004 1.478 . S
C2003 H1997 0.930 . S
C2003 C1999 1.400 . S
C2003 C2002 1.385 . S
C2004 C2002 1.478 . S
C2004 C2006 1.381 . S
C2004 C2010 1.383 . S
C2005 C2001 1.495 . S
C2005 H2011 0.959 . S
C2005 H2012 0.961 . S
C2005 H2013 0.960 . S
C2006 C2004 1.381 . S
C2006 C2007 1.394 . S
C2006 H2014 0.930 . S
C2007 C2006 1.394 . S
C2007 C2008 1.383 . S
C2007 H2015 0.929 . S
C2008 C2007 1.383 . S
C2008 C2009 1.377 . S
C2009 H1993 0.930 . S
C2009 C2008 1.377 . S
C2009 C2010 1.379 . S
C2010 H1994 0.931 . S
C2010 C2004 1.383 . S
C2010 C2009 1.379 . S
H2011 C2005 0.959 . S
H2012 C2005 0.961 . S
H2013 C2005 0.960 . S
H2014 C2006 0.930 . S
H2015 C2007 0.929 . S
H2016 C2024 0.929 . S
H2017 C2026 0.930 . S
H2018 C2028 0.930 . S
H2019 C2031 0.929 . S
H2020 C2034 0.930 . S
H2021 C2036 0.960 . S
H2022 C2036 0.960 . S
H2023 C2036 0.960 . S
C2024 H2016 0.929 . S
C2024 C2025 1.377 . S
C2024 C2026 1.384 . S
C2025 C2024 1.377 . S
C2025 C2031 1.390 . S
C2026 H2017 0.930 . S
C2026 C2024 1.384 . S
C2026 C2027 1.372 . S
C2027 C2026 1.372 . S
C2027 C2028 1.400 . S
C2027 C2032 1.490 . S
C2028 H2018 0.930 . S
C2028 C2027 1.400 . S
C2028 C2031 1.386 . S
H2029 C2045 0.930 . S
H2030 C2046 0.931 . S
C2031 H2019 0.929 . S
C2031 C2025 1.390 . S
C2031 C2028 1.386 . S
C2032 C2027 1.490 . S
C2032 C2034 1.395 . S
C2032 C2035 1.403 1_655 S
H2033 C2039 0.930 . S
C2034 H2020 0.930 . S
C2034 C2032 1.395 . S
C2034 C2037 1.403 1_554 S
C2035 C2032 1.403 1_455 S
C2035 C2036 1.524 . S
C2035 C2039 1.400 1_554 S
C2036 H2021 0.960 . S
C2036 H2022 0.960 . S
C2036 H2023 0.960 . S
C2036 C2035 1.524 . S
C2037 C2034 1.403 1_556 S
C2037 C2038 1.392 1_655 S
C2037 C2041 1.495 . S
C2038 C2037 1.392 1_455 S
C2038 C2039 1.385 . S
C2038 C2040 1.478 . S
C2039 H2033 0.930 . S
C2039 C2035 1.400 1_556 S
C2039 C2038 1.385 . S
C2040 C2038 1.478 . S
C2040 C2042 1.381 . S
C2040 C2046 1.383 . S
C2041 C2037 1.495 . S
C2041 H2047 0.959 . S
C2041 H2048 0.961 . S
C2041 H2049 0.960 . S
C2042 C2040 1.381 . S
C2042 C2043 1.394 . S
C2042 H2050 0.930 . S
C2043 C2042 1.394 . S
C2043 C2044 1.383 . S
C2043 H2051 0.929 . S
C2044 C2043 1.383 . S
C2044 C2045 1.377 . S
C2045 H2029 0.930 . S
C2045 C2044 1.377 . S
C2045 C2046 1.379 . S
C2046 H2030 0.931 . S
C2046 C2040 1.383 . S
C2046 C2045 1.379 . S
H2047 C2041 0.959 . S
H2048 C2041 0.961 . S
H2049 C2041 0.960 . S
H2050 C2042 0.930 . S
H2051 C2043 0.929 . S
H2052 C2060 0.929 . S
H2053 C2062 0.930 . S
H2054 C2064 0.930 1_545 S
H2055 C2067 0.929 . S
H2056 C2070 0.930 . S
H2057 C2072 0.960 . S
H2058 C2072 0.960 . S
H2059 C2072 0.960 . S
C2060 H2052 0.929 . S
C2060 C2061 1.377 . S
C2060 C2062 1.384 . S
C2061 C2060 1.377 . S
C2061 C2067 1.390 . S
C2062 H2053 0.930 . S
C2062 C2060 1.384 . S
C2062 C2063 1.372 . S
C2063 C2062 1.372 . S
C2063 C2064 1.400 . S
C2063 C2068 1.490 . S
C2064 H2054 0.930 1_565 S
C2064 C2063 1.400 . S
C2064 C2067 1.386 . S
H2065 C2081 0.930 . S
H2066 C2082 0.931 . S
C2067 H2055 0.929 . S
C2067 C2061 1.390 . S
C2067 C2064 1.386 . S
C2068 C2063 1.490 . S
C2068 C2070 1.395 . S
C2068 C2071 1.403 1_565 S
H2069 C2075 0.930 . S
C2070 H2056 0.930 . S
C2070 C2068 1.395 . S
C2070 C2073 1.403 . S
C2071 C2068 1.403 1_545 S
C2071 C2072 1.524 . S
C2071 C2075 1.400 . S
C2072 H2057 0.960 . S
C2072 H2058 0.960 . S
C2072 H2059 0.960 . S
C2072 C2071 1.524 . S
C2073 C2070 1.403 . S
C2073 C2074 1.392 1_565 S
C2073 C2077 1.495 . S
C2074 C2073 1.392 1_545 S
C2074 C2075 1.385 . S
C2074 C2076 1.478 . S
C2075 H2069 0.930 . S
C2075 C2071 1.400 . S
C2075 C2074 1.385 . S
C2076 C2074 1.478 . S
C2076 C2078 1.381 . S
C2076 C2082 1.383 . S
C2077 C2073 1.495 . S
C2077 H2083 0.959 . S
C2077 H2084 0.961 . S
C2077 H2085 0.960 . S
C2078 C2076 1.381 . S
C2078 C2079 1.394 . S
C2078 H2086 0.930 1_545 S
C2079 C2078 1.394 . S
C2079 C2080 1.383 . S
C2079 H2087 0.929 . S
C2080 C2079 1.383 . S
C2080 C2081 1.377 . S
C2081 H2065 0.930 . S
C2081 C2080 1.377 . S
C2081 C2082 1.379 . S
C2082 H2066 0.931 . S
C2082 C2076 1.383 . S
C2082 C2081 1.379 . S
H2083 C2077 0.959 . S
H2084 C2077 0.961 . S
H2085 C2077 0.960 . S
H2086 C2078 0.930 1_565 S
H2087 C2079 0.929 . S
H2088 C2096 0.929 . S
H2089 C2098 0.930 . S
H2090 C2100 0.930 . S
H2091 C2103 0.929 . S
H2092 C2106 0.930 . S
H2093 C2108 0.960 1_556 S
H2094 C2108 0.960 . S
H2095 C2108 0.960 . S
C2096 H2088 0.929 . S
C2096 C2097 1.377 . S
C2096 C2098 1.384 . S
C2097 C2096 1.377 . S
C2097 C2103 1.390 . S
C2098 H2089 0.930 . S
C2098 C2096 1.384 . S
C2098 C2099 1.372 . S
C2099 C2098 1.372 . S
C2099 C2100 1.400 . S
C2099 C2104 1.490 . S
C2100 H2090 0.930 . S
C2100 C2099 1.400 . S
C2100 C2103 1.386 . S
H2101 C2117 0.930 . S
H2102 C2118 0.931 . S
C2103 H2091 0.929 . S
C2103 C2097 1.390 . S
C2103 C2100 1.386 . S
C2104 C2099 1.490 . S
C2104 C2106 1.395 . S
C2104 C2107 1.403 . S
H2105 C2111 0.930 . S
C2106 H2092 0.930 . S
C2106 C2104 1.395 . S
C2106 C2109 1.403 1_554 S
C2107 C2104 1.403 . S
C2107 C2108 1.524 . S
C2107 C2111 1.400 1_554 S
C2108 H2093 0.960 1_554 S
C2108 H2094 0.960 . S
C2108 H2095 0.960 . S
C2108 C2107 1.524 . S
C2109 C2106 1.403 1_556 S
C2109 C2110 1.392 . S
C2109 C2113 1.495 . S
C2110 C2109 1.392 . S
C2110 C2111 1.385 . S
C2110 C2112 1.478 . S
C2111 H2105 0.930 . S
C2111 C2107 1.400 1_556 S
C2111 C2110 1.385 . S
C2112 C2110 1.478 . S
C2112 C2114 1.381 . S
C2112 C2118 1.383 . S
C2113 C2109 1.495 . S
C2113 H2119 0.959 1_556 S
C2113 H2120 0.961 . S
C2113 H2121 0.960 . S
C2114 C2112 1.381 . S
C2114 C2115 1.394 . S
C2114 H2122 0.930 . S
C2115 C2114 1.394 . S
C2115 C2116 1.383 . S
C2115 H2123 0.929 . S
C2116 C2115 1.383 . S
C2116 C2117 1.377 . S
C2117 H2101 0.930 . S
C2117 C2116 1.377 . S
C2117 C2118 1.379 . S
C2118 H2102 0.931 . S
C2118 C2112 1.383 . S
C2118 C2117 1.379 . S
H2119 C2113 0.959 1_554 S
H2120 C2113 0.961 . S
H2121 C2113 0.960 . S
H2122 C2114 0.930 . S
H2123 C2115 0.929 . S
H2124 C2132 0.929 . S
H2125 C2134 0.930 . S
H2126 C2136 0.930 1_655 S
H2127 C2139 0.929 . S
H2128 C2142 0.930 . S
H2129 C2144 0.960 . S
H2130 C2144 0.960 . S
H2131 C2144 0.960 . S
C2132 H2124 0.929 . S
C2132 C2133 1.377 . S
C2132 C2134 1.384 . S
C2133 C2132 1.377 . S
C2133 C2139 1.390 . S
C2134 H2125 0.930 . S
C2134 C2132 1.384 . S
C2134 C2135 1.372 . S
C2135 C2134 1.372 . S
C2135 C2136 1.400 . S
C2135 C2140 1.490 . S
C2136 H2126 0.930 1_455 S
C2136 C2135 1.400 . S
C2136 C2139 1.386 . S
H2137 C2153 0.930 . S
H2138 C2154 0.931 . S
C2139 H2127 0.929 . S
C2139 C2133 1.390 . S
C2139 C2136 1.386 . S
C2140 C2135 1.490 . S
C2140 C2142 1.395 . S
C2140 C2143 1.403 1_455 S
H2141 C2147 0.930 . S
C2142 H2128 0.930 . S
C2142 C2140 1.395 . S
C2142 C2145 1.403 . S
C2143 C2140 1.403 1_655 S
C2143 C2144 1.524 . S
C2143 C2147 1.400 . S
C2144 H2129 0.960 . S
C2144 H2130 0.960 . S
C2144 H2131 0.960 . S
C2144 C2143 1.524 . S
C2145 C2142 1.403 . S
C2145 C2146 1.392 1_455 S
C2145 C2149 1.495 . S
C2146 C2145 1.392 1_655 S
C2146 C2147 1.385 . S
C2146 C2148 1.478 . S
C2147 H2141 0.930 . S
C2147 C2143 1.400 . S
C2147 C2146 1.385 . S
C2148 C2146 1.478 . S
C2148 C2150 1.381 . S
C2148 C2154 1.383 . S
C2149 C2145 1.495 . S
C2149 H2155 0.959 . S
C2149 H2156 0.961 . S
C2149 H2157 0.960 . S
C2150 C2148 1.381 . S
C2150 C2151 1.394 . S
C2150 H2158 0.930 1_655 S
C2151 C2150 1.394 . S
C2151 C2152 1.383 . S
C2151 H2159 0.929 . S
C2152 C2151 1.383 . S
C2152 C2153 1.377 . S
C2153 H2137 0.930 . S
C2153 C2152 1.377 . S
C2153 C2154 1.379 . S
C2154 H2138 0.931 . S
C2154 C2148 1.383 . S
C2154 C2153 1.379 . S
H2155 C2149 0.959 . S
H2156 C2149 0.961 . S
H2157 C2149 0.960 . S
H2158 C2150 0.930 1_455 S
H2159 C2151 0.929 . S
H2160 C2168 0.929 . S
H2161 C2170 0.930 . S
H2162 C2172 0.930 . S
H2163 C2175 0.929 . S
H2164 C2178 0.930 . S
H2165 C2180 0.960 . S
H2166 C2180 0.960 . S
H2167 C2180 0.960 . S
C2168 H2160 0.929 . S
C2168 C2169 1.377 . S
C2168 C2170 1.384 . S
C2169 C2168 1.377 . S
C2169 C2175 1.390 . S
C2170 H2161 0.930 . S
C2170 C2168 1.384 . S
C2170 C2171 1.372 . S
C2171 C2170 1.372 . S
C2171 C2172 1.400 . S
C2171 C2176 1.490 . S
C2172 H2162 0.930 . S
C2172 C2171 1.400 . S
C2172 C2175 1.386 . S
H2173 C2189 0.930 . S
H2174 C2190 0.931 . S
C2175 H2163 0.929 . S
C2175 C2169 1.390 . S
C2175 C2172 1.386 . S
C2176 C2171 1.490 . S
C2176 C2178 1.395 . S
C2176 C2179 1.403 . S
H2177 C2183 0.930 . S
C2178 H2164 0.930 . S
C2178 C2176 1.395 . S
C2178 C2181 1.403 . S
C2179 C2176 1.403 . S
C2179 C2180 1.524 . S
C2179 C2183 1.400 . S
C2180 H2165 0.960 . S
C2180 H2166 0.960 . S
C2180 H2167 0.960 . S
C2180 C2179 1.524 . S
C2181 C2178 1.403 . S
C2181 C2182 1.392 . S
C2181 C2185 1.495 . S
C2182 C2181 1.392 . S
C2182 C2183 1.385 . S
C2182 C2184 1.478 . S
C2183 H2177 0.930 . S
C2183 C2179 1.400 . S
C2183 C2182 1.385 . S
C2184 C2182 1.478 . S
C2184 C2186 1.381 . S
C2184 C2190 1.383 . S
C2185 C2181 1.495 . S
C2185 H2191 0.959 . S
C2185 H2192 0.961 . S
C2185 H2193 0.960 . S
C2186 C2184 1.381 . S
C2186 C2187 1.394 . S
C2186 H2194 0.930 . S
C2187 C2186 1.394 . S
C2187 C2188 1.383 . S
C2187 H2195 0.929 . S
C2188 C2187 1.383 . S
C2188 C2189 1.377 . S
C2189 H2173 0.930 . S
C2189 C2188 1.377 . S
C2189 C2190 1.379 . S
C2190 H2174 0.931 . S
C2190 C2184 1.383 . S
C2190 C2189 1.379 . S
H2191 C2185 0.959 . S
H2192 C2185 0.961 . S
H2193 C2185 0.960 . S
H2194 C2186 0.930 . S
H2195 C2187 0.929 . S
H2196 C2204 0.929 . S
H2197 C2206 0.930 . S
H2198 C2208 0.930 . S
H2199 C2211 0.929 . S
H2200 C2214 0.930 . S
H2201 C2216 0.960 . S
H2202 C2216 0.960 . S
H2203 C2216 0.960 . S
C2204 H2196 0.929 . S
C2204 C2205 1.377 . S
C2204 C2206 1.384 . S
C2205 C2204 1.377 . S
C2205 C2211 1.390 . S
C2206 H2197 0.930 . S
C2206 C2204 1.384 . S
C2206 C2207 1.372 . S
C2207 C2206 1.372 . S
C2207 C2208 1.400 . S
C2207 C2212 1.490 . S
C2208 H2198 0.930 . S
C2208 C2207 1.400 . S
C2208 C2211 1.386 . S
H2209 C2225 0.930 . S
H2210 C2226 0.931 . S
C2211 H2199 0.929 . S
C2211 C2205 1.390 . S
C2211 C2208 1.386 . S
C2212 C2207 1.490 . S
C2212 C2214 1.395 . S
C2212 C2215 1.403 . S
H2213 C2219 0.930 . S
C2214 H2200 0.930 . S
C2214 C2212 1.395 . S
C2214 C2217 1.403 . S
C2215 C2212 1.403 . S
C2215 C2216 1.524 . S
C2215 C2219 1.400 . S
C2216 H2201 0.960 . S
C2216 H2202 0.960 . S
C2216 H2203 0.960 . S
C2216 C2215 1.524 . S
C2217 C2214 1.403 . S
C2217 C2218 1.392 . S
C2217 C2221 1.495 . S
C2218 C2217 1.392 . S
C2218 C2219 1.385 . S
C2218 C2220 1.478 . S
C2219 H2213 0.930 . S
C2219 C2215 1.400 . S
C2219 C2218 1.385 . S
C2220 C2218 1.478 . S
C2220 C2222 1.381 . S
C2220 C2226 1.383 . S
C2221 C2217 1.495 . S
C2221 H2227 0.959 . S
C2221 H2228 0.961 . S
C2221 H2229 0.960 . S
C2222 C2220 1.381 . S
C2222 C2223 1.394 . S
C2222 H2230 0.930 . S
C2223 C2222 1.394 . S
C2223 C2224 1.383 . S
C2223 H2231 0.929 . S
C2224 C2223 1.383 . S
C2224 C2225 1.377 . S
C2225 H2209 0.930 . S
C2225 C2224 1.377 . S
C2225 C2226 1.379 . S
C2226 H2210 0.931 . S
C2226 C2220 1.383 . S
C2226 C2225 1.379 . S
H2227 C2221 0.959 . S
H2228 C2221 0.961 . S
H2229 C2221 0.960 . S
H2230 C2222 0.930 . S
H2231 C2223 0.929 . S
H2232 C2240 0.929 . S
H2233 C2242 0.930 . S
H2234 C2244 0.930 . S
H2235 C2247 0.929 . S
H2236 C2250 0.930 . S
H2237 C2252 0.960 . S
H2238 C2252 0.960 . S
H2239 C2252 0.960 . S
C2240 H2232 0.929 . S
C2240 C2241 1.377 . S
C2240 C2242 1.384 . S
C2241 C2240 1.377 . S
C2241 C2247 1.390 . S
C2242 H2233 0.930 . S
C2242 C2240 1.384 . S
C2242 C2243 1.372 . S
C2243 C2242 1.372 . S
C2243 C2244 1.400 . S
C2243 C2248 1.490 . S
C2244 H2234 0.930 . S
C2244 C2243 1.400 . S
C2244 C2247 1.386 . S
H2245 C2261 0.930 . S
H2246 C2262 0.931 . S
C2247 H2235 0.929 . S
C2247 C2241 1.390 . S
C2247 C2244 1.386 . S
C2248 C2243 1.490 . S
C2248 C2250 1.395 . S
C2248 C2251 1.403 . S
H2249 C2255 0.930 . S
C2250 H2236 0.930 . S
C2250 C2248 1.395 . S
C2250 C2253 1.403 . S
C2251 C2248 1.403 . S
C2251 C2252 1.524 . S
C2251 C2255 1.400 . S
C2252 H2237 0.960 . S
C2252 H2238 0.960 . S
C2252 H2239 0.960 . S
C2252 C2251 1.524 . S
C2253 C2250 1.403 . S
C2253 C2254 1.392 . S
C2253 C2257 1.495 . S
C2254 C2253 1.392 . S
C2254 C2255 1.385 . S
C2254 C2256 1.478 . S
C2255 H2249 0.930 . S
C2255 C2251 1.400 . S
C2255 C2254 1.385 . S
C2256 C2254 1.478 . S
C2256 C2258 1.381 . S
C2256 C2262 1.383 . S
C2257 C2253 1.495 . S
C2257 H2263 0.959 . S
C2257 H2264 0.961 . S
C2257 H2265 0.960 . S
C2258 C2256 1.381 . S
C2258 C2259 1.394 . S
C2258 H2266 0.930 . S
C2259 C2258 1.394 . S
C2259 C2260 1.383 . S
C2259 H2267 0.929 . S
C2260 C2259 1.383 . S
C2260 C2261 1.377 . S
C2261 H2245 0.930 . S
C2261 C2260 1.377 . S
C2261 C2262 1.379 . S
C2262 H2246 0.931 . S
C2262 C2256 1.383 . S
C2262 C2261 1.379 . S
H2263 C2257 0.959 . S
H2264 C2257 0.961 . S
H2265 C2257 0.960 . S
H2266 C2258 0.930 . S
H2267 C2259 0.929 . S
H2268 C2276 0.929 . S
H2269 C2278 0.930 . S
H2270 C2280 0.930 . S
H2271 C2283 0.929 . S
H2272 C2286 0.930 . S
H2273 C2288 0.960 . S
H2274 C2288 0.960 . S
H2275 C2288 0.960 . S
C2276 H2268 0.929 . S
C2276 C2277 1.377 . S
C2276 C2278 1.384 . S
C2277 C2276 1.377 . S
C2277 C2283 1.390 . S
C2278 H2269 0.930 . S
C2278 C2276 1.384 . S
C2278 C2279 1.372 . S
C2279 C2278 1.372 . S
C2279 C2280 1.400 . S
C2279 C2284 1.490 . S
C2280 H2270 0.930 . S
C2280 C2279 1.400 . S
C2280 C2283 1.386 . S
H2281 C2297 0.930 . S
H2282 C2298 0.931 . S
C2283 H2271 0.929 . S
C2283 C2277 1.390 . S
C2283 C2280 1.386 . S
C2284 C2279 1.490 . S
C2284 C2286 1.395 . S
C2284 C2287 1.403 . S
H2285 C2291 0.930 . S
C2286 H2272 0.930 . S
C2286 C2284 1.395 . S
C2286 C2289 1.403 . S
C2287 C2284 1.403 . S
C2287 C2288 1.524 . S
C2287 C2291 1.400 . S
C2288 H2273 0.960 . S
C2288 H2274 0.960 . S
C2288 H2275 0.960 . S
C2288 C2287 1.524 . S
C2289 C2286 1.403 . S
C2289 C2290 1.392 . S
C2289 C2293 1.495 . S
C2290 C2289 1.392 . S
C2290 C2291 1.385 . S
C2290 C2292 1.478 . S
C2291 H2285 0.930 . S
C2291 C2287 1.400 . S
C2291 C2290 1.385 . S
C2292 C2290 1.478 . S
C2292 C2294 1.381 . S
C2292 C2298 1.383 . S
C2293 C2289 1.495 . S
C2293 H2299 0.959 . S
C2293 H2300 0.961 . S
C2293 H2301 0.960 . S
C2294 C2292 1.381 . S
C2294 C2295 1.394 . S
C2294 H2302 0.930 . S
C2295 C2294 1.394 . S
C2295 C2296 1.383 . S
C2295 H2303 0.929 . S
C2296 C2295 1.383 . S
C2296 C2297 1.377 . S
C2297 H2281 0.930 . S
C2297 C2296 1.377 . S
C2297 C2298 1.379 . S
C2298 H2282 0.931 . S
C2298 C2292 1.383 . S
C2298 C2297 1.379 . S
H2299 C2293 0.959 . S
H2300 C2293 0.961 . S
H2301 C2293 0.960 . S
H2302 C2294 0.930 . S
H2303 C2295 0.929 . S
H2304 C2312 0.929 . S
H2305 C2314 0.930 . S
H2306 C2316 0.930 . S
H2307 C2319 0.929 . S
H2308 C2322 0.930 . S
H2309 C2324 0.960 . S
H2310 C2324 0.960 . S
H2311 C2324 0.960 . S
C2312 H2304 0.929 . S
C2312 C2313 1.377 . S
C2312 C2314 1.384 . S
C2313 C2312 1.377 . S
C2313 C2319 1.390 . S
C2314 H2305 0.930 . S
C2314 C2312 1.384 . S
C2314 C2315 1.372 . S
C2315 C2314 1.372 . S
C2315 C2316 1.400 . S
C2315 C2320 1.490 . S
C2316 H2306 0.930 . S
C2316 C2315 1.400 . S
C2316 C2319 1.386 . S
H2317 C2333 0.930 . S
H2318 C2334 0.931 . S
C2319 H2307 0.929 . S
C2319 C2313 1.390 . S
C2319 C2316 1.386 . S
C2320 C2315 1.490 . S
C2320 C2322 1.395 . S
C2320 C2323 1.403 . S
H2321 C2327 0.930 . S
C2322 H2308 0.930 . S
C2322 C2320 1.395 . S
C2322 C2325 1.403 . S
C2323 C2320 1.403 . S
C2323 C2324 1.524 . S
C2323 C2327 1.400 . S
C2324 H2309 0.960 . S
C2324 H2310 0.960 . S
C2324 H2311 0.960 . S
C2324 C2323 1.524 . S
C2325 C2322 1.403 . S
C2325 C2326 1.392 . S
C2325 C2329 1.495 . S
C2326 C2325 1.392 . S
C2326 C2327 1.385 . S
C2326 C2328 1.478 . S
C2327 H2321 0.930 . S
C2327 C2323 1.400 . S
C2327 C2326 1.385 . S
C2328 C2326 1.478 . S
C2328 C2330 1.381 . S
C2328 C2334 1.383 . S
C2329 C2325 1.495 . S
C2329 H2335 0.959 . S
C2329 H2336 0.961 . S
C2329 H2337 0.960 . S
C2330 C2328 1.381 . S
C2330 C2331 1.394 . S
C2330 H2338 0.930 . S
C2331 C2330 1.394 . S
C2331 C2332 1.383 . S
C2331 H2339 0.929 . S
C2332 C2331 1.383 . S
C2332 C2333 1.377 . S
C2333 H2317 0.930 . S
C2333 C2332 1.377 . S
C2333 C2334 1.379 . S
C2334 H2318 0.931 . S
C2334 C2328 1.383 . S
C2334 C2333 1.379 . S
H2335 C2329 0.959 . S
H2336 C2329 0.961 . S
H2337 C2329 0.960 . S
H2338 C2330 0.930 . S
H2339 C2331 0.929 . S
H2340 C2348 0.929 . S
H2341 C2350 0.930 . S
H2342 C2352 0.930 . S
H2343 C2355 0.929 . S
H2344 C2358 0.930 . S
H2345 C2360 0.960 . S
H2346 C2360 0.960 . S
H2347 C2360 0.960 . S
C2348 H2340 0.929 . S
C2348 C2349 1.377 . S
C2348 C2350 1.384 . S
C2349 C2348 1.377 . S
C2349 C2355 1.390 . S
C2350 H2341 0.930 . S
C2350 C2348 1.384 . S
C2350 C2351 1.372 . S
C2351 C2350 1.372 . S
C2351 C2352 1.400 . S
C2351 C2356 1.490 . S
C2352 H2342 0.930 . S
C2352 C2351 1.400 . S
C2352 C2355 1.386 . S
H2353 C2369 0.930 . S
H2354 C2370 0.931 . S
C2355 H2343 0.929 . S
C2355 C2349 1.390 . S
C2355 C2352 1.386 . S
C2356 C2351 1.490 . S
C2356 C2358 1.395 . S
C2356 C2359 1.403 . S
H2357 C2363 0.930 . S
C2358 H2344 0.930 . S
C2358 C2356 1.395 . S
C2358 C2361 1.403 . S
C2359 C2356 1.403 . S
C2359 C2360 1.524 . S
C2359 C2363 1.400 . S
C2360 H2345 0.960 . S
C2360 H2346 0.960 . S
C2360 H2347 0.960 . S
C2360 C2359 1.524 . S
C2361 C2358 1.403 . S
C2361 C2362 1.392 . S
C2361 C2365 1.495 . S
C2362 C2361 1.392 . S
C2362 C2363 1.385 . S
C2362 C2364 1.478 . S
C2363 H2357 0.930 . S
C2363 C2359 1.400 . S
C2363 C2362 1.385 . S
C2364 C2362 1.478 . S
C2364 C2366 1.381 . S
C2364 C2370 1.383 . S
C2365 C2361 1.495 . S
C2365 H2371 0.959 . S
C2365 H2372 0.961 . S
C2365 H2373 0.960 . S
C2366 C2364 1.381 . S
C2366 C2367 1.394 . S
C2366 H2374 0.930 . S
C2367 C2366 1.394 . S
C2367 C2368 1.383 . S
C2367 H2375 0.929 . S
C2368 C2367 1.383 . S
C2368 C2369 1.377 . S
C2369 H2353 0.930 . S
C2369 C2368 1.377 . S
C2369 C2370 1.379 . S
C2370 H2354 0.931 . S
C2370 C2364 1.383 . S
C2370 C2369 1.379 . S
H2371 C2365 0.959 . S
H2372 C2365 0.961 . S
H2373 C2365 0.960 . S
H2374 C2366 0.930 . S
H2375 C2367 0.929 . S
H2376 C2384 0.929 . S
H2377 C2386 0.930 . S
H2378 C2388 0.930 . S
H2379 C2391 0.929 . S
H2380 C2394 0.930 . S
H2381 C2396 0.960 . S
H2382 C2396 0.960 . S
H2383 C2396 0.960 . S
C2384 H2376 0.929 . S
C2384 C2385 1.377 . S
C2384 C2386 1.384 . S
C2385 C2384 1.377 . S
C2385 C2391 1.390 . S
C2386 H2377 0.930 . S
C2386 C2384 1.384 . S
C2386 C2387 1.372 . S
C2387 C2386 1.372 . S
C2387 C2388 1.400 . S
C2387 C2392 1.490 . S
C2388 H2378 0.930 . S
C2388 C2387 1.400 . S
C2388 C2391 1.386 . S
H2389 C2405 0.930 . S
H2390 C2406 0.931 . S
C2391 H2379 0.929 . S
C2391 C2385 1.390 . S
C2391 C2388 1.386 . S
C2392 C2387 1.490 . S
C2392 C2394 1.395 . S
C2392 C2395 1.403 . S
H2393 C2399 0.930 . S
C2394 H2380 0.930 . S
C2394 C2392 1.395 . S
C2394 C2397 1.403 . S
C2395 C2392 1.403 . S
C2395 C2396 1.524 . S
C2395 C2399 1.400 . S
C2396 H2381 0.960 . S
C2396 H2382 0.960 . S
C2396 H2383 0.960 . S
C2396 C2395 1.524 . S
C2397 C2394 1.403 . S
C2397 C2398 1.392 . S
C2397 C2401 1.495 . S
C2398 C2397 1.392 . S
C2398 C2399 1.385 . S
C2398 C2400 1.478 . S
C2399 H2393 0.930 . S
C2399 C2395 1.400 . S
C2399 C2398 1.385 . S
C2400 C2398 1.478 . S
C2400 C2402 1.381 . S
C2400 C2406 1.383 . S
C2401 C2397 1.495 . S
C2401 H2407 0.959 . S
C2401 H2408 0.961 . S
C2401 H2409 0.960 . S
C2402 C2400 1.381 . S
C2402 C2403 1.394 . S
C2402 H2410 0.930 . S
C2403 C2402 1.394 . S
C2403 C2404 1.383 . S
C2403 H2411 0.929 . S
C2404 C2403 1.383 . S
C2404 C2405 1.377 . S
C2405 H2389 0.930 . S
C2405 C2404 1.377 . S
C2405 C2406 1.379 . S
C2406 H2390 0.931 . S
C2406 C2400 1.383 . S
C2406 C2405 1.379 . S
H2407 C2401 0.959 . S
H2408 C2401 0.961 . S
H2409 C2401 0.960 . S
H2410 C2402 0.930 . S
H2411 C2403 0.929 . S
H2412 C2420 0.929 . S
H2413 C2422 0.930 . S
H2414 C2424 0.930 . S
H2415 C2427 0.929 . S
H2416 C2430 0.930 . S
H2417 C2432 0.960 . S
H2418 C2432 0.960 . S
H2419 C2432 0.960 . S
C2420 H2412 0.929 . S
C2420 C2421 1.377 . S
C2420 C2422 1.384 . S
C2421 C2420 1.377 . S
C2421 C2427 1.390 . S
C2422 H2413 0.930 . S
C2422 C2420 1.384 . S
C2422 C2423 1.372 . S
C2423 C2422 1.372 . S
C2423 C2424 1.400 . S
C2423 C2428 1.490 . S
C2424 H2414 0.930 . S
C2424 C2423 1.400 . S
C2424 C2427 1.386 . S
H2425 C2441 0.930 . S
H2426 C2442 0.931 . S
C2427 H2415 0.929 . S
C2427 C2421 1.390 . S
C2427 C2424 1.386 . S
C2428 C2423 1.490 . S
C2428 C2430 1.395 . S
C2428 C2431 1.403 . S
H2429 C2435 0.930 . S
C2430 H2416 0.930 . S
C2430 C2428 1.395 . S
C2430 C2433 1.403 . S
C2431 C2428 1.403 . S
C2431 C2432 1.524 . S
C2431 C2435 1.400 . S
C2432 H2417 0.960 . S
C2432 H2418 0.960 . S
C2432 H2419 0.960 . S
C2432 C2431 1.524 . S
C2433 C2430 1.403 . S
C2433 C2434 1.392 . S
C2433 C2437 1.495 . S
C2434 C2433 1.392 . S
C2434 C2435 1.385 . S
C2434 C2436 1.478 . S
C2435 H2429 0.930 . S
C2435 C2431 1.400 . S
C2435 C2434 1.385 . S
C2436 C2434 1.478 . S
C2436 C2438 1.381 . S
C2436 C2442 1.383 . S
C2437 C2433 1.495 . S
C2437 H2443 0.959 . S
C2437 H2444 0.961 . S
C2437 H2445 0.960 . S
C2438 C2436 1.381 . S
C2438 C2439 1.394 . S
C2438 H2446 0.930 . S
C2439 C2438 1.394 . S
C2439 C2440 1.383 . S
C2439 H2447 0.929 . S
C2440 C2439 1.383 . S
C2440 C2441 1.377 . S
C2441 H2425 0.930 . S
C2441 C2440 1.377 . S
C2441 C2442 1.379 . S
C2442 H2426 0.931 . S
C2442 C2436 1.383 . S
C2442 C2441 1.379 . S
H2443 C2437 0.959 . S
H2444 C2437 0.961 . S
H2445 C2437 0.960 . S
H2446 C2438 0.930 . S
H2447 C2439 0.929 . S
H2448 C2456 0.929 . S
H2449 C2458 0.930 . S
H2450 C2460 0.930 . S
H2451 C2463 0.929 . S
H2452 C2466 0.930 . S
H2453 C2468 0.960 . S
H2454 C2468 0.960 . S
H2455 C2468 0.960 . S
C2456 H2448 0.929 . S
C2456 C2457 1.377 . S
C2456 C2458 1.384 . S
C2457 C2456 1.377 . S
C2457 C2463 1.390 . S
C2458 H2449 0.930 . S
C2458 C2456 1.384 . S
C2458 C2459 1.372 . S
C2459 C2458 1.372 . S
C2459 C2460 1.400 . S
C2459 C2464 1.490 . S
C2460 H2450 0.930 . S
C2460 C2459 1.400 . S
C2460 C2463 1.386 . S
H2461 C2477 0.930 . S
H2462 C2478 0.931 . S
C2463 H2451 0.929 . S
C2463 C2457 1.390 . S
C2463 C2460 1.386 . S
C2464 C2459 1.490 . S
C2464 C2466 1.395 . S
C2464 C2467 1.403 . S
H2465 C2471 0.930 . S
C2466 H2452 0.930 . S
C2466 C2464 1.395 . S
C2466 C2469 1.403 . S
C2467 C2464 1.403 . S
C2467 C2468 1.524 . S
C2467 C2471 1.400 . S
C2468 H2453 0.960 . S
C2468 H2454 0.960 . S
C2468 H2455 0.960 . S
C2468 C2467 1.524 . S
C2469 C2466 1.403 . S
C2469 C2470 1.392 . S
C2469 C2473 1.495 . S
C2470 C2469 1.392 . S
C2470 C2471 1.385 . S
C2470 C2472 1.478 . S
C2471 H2465 0.930 . S
C2471 C2467 1.400 . S
C2471 C2470 1.385 . S
C2472 C2470 1.478 . S
C2472 C2474 1.381 . S
C2472 C2478 1.383 . S
C2473 C2469 1.495 . S
C2473 H2479 0.959 . S
C2473 H2480 0.961 . S
C2473 H2481 0.960 . S
C2474 C2472 1.381 . S
C2474 C2475 1.394 . S
C2474 H2482 0.930 . S
C2475 C2474 1.394 . S
C2475 C2476 1.383 . S
C2475 H2483 0.929 . S
C2476 C2475 1.383 . S
C2476 C2477 1.377 . S
C2477 H2461 0.930 . S
C2477 C2476 1.377 . S
C2477 C2478 1.379 . S
C2478 H2462 0.931 . S
C2478 C2472 1.383 . S
C2478 C2477 1.379 . S
H2479 C2473 0.959 . S
H2480 C2473 0.961 . S
H2481 C2473 0.960 . S
H2482 C2474 0.930 . S
H2483 C2475 0.929 . S
H2484 C2492 0.929 . S
H2485 C2494 0.930 . S
H2486 C2496 0.930 . S
H2487 C2499 0.929 . S
H2488 C2502 0.930 . S
H2489 C2504 0.960 . S
H2490 C2504 0.960 . S
H2491 C2504 0.960 . S
C2492 H2484 0.929 . S
C2492 C2493 1.377 . S
C2492 C2494 1.384 . S
C2493 C2492 1.377 . S
C2493 C2499 1.390 . S
C2494 H2485 0.930 . S
C2494 C2492 1.384 . S
C2494 C2495 1.372 . S
C2495 C2494 1.372 . S
C2495 C2496 1.400 . S
C2495 C2500 1.490 . S
C2496 H2486 0.930 . S
C2496 C2495 1.400 . S
C2496 C2499 1.386 . S
H2497 C2513 0.930 . S
H2498 C2514 0.931 . S
C2499 H2487 0.929 . S
C2499 C2493 1.390 . S
C2499 C2496 1.386 . S
C2500 C2495 1.490 . S
C2500 C2502 1.395 . S
C2500 C2503 1.403 . S
H2501 C2507 0.930 . S
C2502 H2488 0.930 . S
C2502 C2500 1.395 . S
C2502 C2505 1.403 . S
C2503 C2500 1.403 . S
C2503 C2504 1.524 . S
C2503 C2507 1.400 . S
C2504 H2489 0.960 . S
C2504 H2490 0.960 . S
C2504 H2491 0.960 . S
C2504 C2503 1.524 . S
C2505 C2502 1.403 . S
C2505 C2506 1.392 . S
C2505 C2509 1.495 . S
C2506 C2505 1.392 . S
C2506 C2507 1.385 . S
C2506 C2508 1.478 . S
C2507 H2501 0.930 . S
C2507 C2503 1.400 . S
C2507 C2506 1.385 . S
C2508 C2506 1.478 . S
C2508 C2510 1.381 . S
C2508 C2514 1.383 . S
C2509 C2505 1.495 . S
C2509 H2515 0.959 . S
C2509 H2516 0.961 . S
C2509 H2517 0.960 . S
C2510 C2508 1.381 . S
C2510 C2511 1.394 . S
C2510 H2518 0.930 . S
C2511 C2510 1.394 . S
C2511 C2512 1.383 . S
C2511 H2519 0.929 . S
C2512 C2511 1.383 . S
C2512 C2513 1.377 . S
C2513 H2497 0.930 . S
C2513 C2512 1.377 . S
C2513 C2514 1.379 . S
C2514 H2498 0.931 . S
C2514 C2508 1.383 . S
C2514 C2513 1.379 . S
H2515 C2509 0.959 . S
H2516 C2509 0.961 . S
H2517 C2509 0.960 . S
H2518 C2510 0.930 . S
H2519 C2511 0.929 . S
H2520 C2528 0.929 . S
H2521 C2530 0.930 . S
H2522 C2532 0.930 . S
H2523 C2535 0.929 . S
H2524 C2538 0.930 . S
H2525 C2540 0.960 . S
H2526 C2540 0.960 . S
H2527 C2540 0.960 . S
C2528 H2520 0.929 . S
C2528 C2529 1.377 . S
C2528 C2530 1.384 . S
C2529 C2528 1.377 . S
C2529 C2535 1.390 . S
C2530 H2521 0.930 . S
C2530 C2528 1.384 . S
C2530 C2531 1.372 . S
C2531 C2530 1.372 . S
C2531 C2532 1.400 . S
C2531 C2536 1.490 . S
C2532 H2522 0.930 . S
C2532 C2531 1.400 . S
C2532 C2535 1.386 . S
H2533 C2549 0.930 . S
H2534 C2550 0.931 . S
C2535 H2523 0.929 . S
C2535 C2529 1.390 . S
C2535 C2532 1.386 . S
C2536 C2531 1.490 . S
C2536 C2538 1.395 . S
C2536 C2539 1.403 . S
H2537 C2543 0.930 . S
C2538 H2524 0.930 . S
C2538 C2536 1.395 . S
C2538 C2541 1.403 . S
C2539 C2536 1.403 . S
C2539 C2540 1.524 . S
C2539 C2543 1.400 . S
C2540 H2525 0.960 . S
C2540 H2526 0.960 . S
C2540 H2527 0.960 . S
C2540 C2539 1.524 . S
C2541 C2538 1.403 . S
C2541 C2542 1.392 . S
C2541 C2545 1.495 . S
C2542 C2541 1.392 . S
C2542 C2543 1.385 . S
C2542 C2544 1.478 . S
C2543 H2537 0.930 . S
C2543 C2539 1.400 . S
C2543 C2542 1.385 . S
C2544 C2542 1.478 . S
C2544 C2546 1.381 . S
C2544 C2550 1.383 . S
C2545 C2541 1.495 . S
C2545 H2551 0.959 . S
C2545 H2552 0.961 . S
C2545 H2553 0.960 . S
C2546 C2544 1.381 . S
C2546 C2547 1.394 . S
C2546 H2554 0.930 . S
C2547 C2546 1.394 . S
C2547 C2548 1.383 . S
C2547 H2555 0.929 . S
C2548 C2547 1.383 . S
C2548 C2549 1.377 . S
C2549 H2533 0.930 . S
C2549 C2548 1.377 . S
C2549 C2550 1.379 . S
C2550 H2534 0.931 . S
C2550 C2544 1.383 . S
C2550 C2549 1.379 . S
H2551 C2545 0.959 . S
H2552 C2545 0.961 . S
H2553 C2545 0.960 . S
H2554 C2546 0.930 . S
H2555 C2547 0.929 . S
H2556 C2564 0.929 . S
H2557 C2566 0.930 . S
H2558 C2568 0.930 . S
H2559 C2571 0.929 . S
H2560 C2574 0.930 . S
H2561 C2576 0.960 . S
H2562 C2576 0.960 . S
H2563 C2576 0.960 . S
C2564 H2556 0.929 . S
C2564 C2565 1.377 . S
C2564 C2566 1.384 . S
C2565 C2564 1.377 . S
C2565 C2571 1.390 . S
C2566 H2557 0.930 . S
C2566 C2564 1.384 . S
C2566 C2567 1.372 . S
C2567 C2566 1.372 . S
C2567 C2568 1.400 . S
C2567 C2572 1.490 . S
C2568 H2558 0.930 . S
C2568 C2567 1.400 . S
C2568 C2571 1.386 . S
H2569 C2585 0.930 . S
H2570 C2586 0.931 . S
C2571 H2559 0.929 . S
C2571 C2565 1.390 . S
C2571 C2568 1.386 . S
C2572 C2567 1.490 . S
C2572 C2574 1.395 . S
C2572 C2575 1.403 . S
H2573 C2579 0.930 . S
C2574 H2560 0.930 . S
C2574 C2572 1.395 . S
C2574 C2577 1.403 . S
C2575 C2572 1.403 . S
C2575 C2576 1.524 . S
C2575 C2579 1.400 . S
C2576 H2561 0.960 . S
C2576 H2562 0.960 . S
C2576 H2563 0.960 . S
C2576 C2575 1.524 . S
C2577 C2574 1.403 . S
C2577 C2578 1.392 . S
C2577 C2581 1.495 . S
C2578 C2577 1.392 . S
C2578 C2579 1.385 . S
C2578 C2580 1.478 . S
C2579 H2573 0.930 . S
C2579 C2575 1.400 . S
C2579 C2578 1.385 . S
C2580 C2578 1.478 . S
C2580 C2582 1.381 . S
C2580 C2586 1.383 . S
C2581 C2577 1.495 . S
C2581 H2587 0.959 . S
C2581 H2588 0.961 . S
C2581 H2589 0.960 . S
C2582 C2580 1.381 . S
C2582 C2583 1.394 . S
C2582 H2590 0.930 . S
C2583 C2582 1.394 . S
C2583 C2584 1.383 . S
C2583 H2591 0.929 . S
C2584 C2583 1.383 . S
C2584 C2585 1.377 . S
C2585 H2569 0.930 . S
C2585 C2584 1.377 . S
C2585 C2586 1.379 . S
C2586 H2570 0.931 . S
C2586 C2580 1.383 . S
C2586 C2585 1.379 . S
H2587 C2581 0.959 . S
H2588 C2581 0.961 . S
H2589 C2581 0.960 . S
H2590 C2582 0.930 . S
H2591 C2583 0.929 . S
C873 C544 1.176 . S
C892 C4 1.188 . S
C909 C40 1.186 . S
C928 C580 1.189 . S
C945 C76 1.180 . S
C964 C616 1.161 . S
C981 C112 1.188 . S
C1000 C436 1.171 . S
C1017 C472 1.186 . S
C1036 C148 1.189 . S
C1053 C184 1.183 . S
C1072 C508 1.152 . S
C1089 C760 1.187 . S
C1108 C220 1.154 . S
C1125 C256 1.181 . S
C1144 C796 1.207 . S
C1161 C292 1.183 . S
C1180 C832 1.202 . S
C1197 C652 1.182 . S
C1216 C328 1.207 . S
C1233 C364 1.176 . S
C1252 C688 1.192 . S
C1269 C724 1.188 . S
C1288 C400 1.165 . S
C1305 C14 1.422 . S
C1324 C842 1.431 . S
C1341 C662 1.413 . S
C1360 C50 1.444 . S
C1377 C86 1.423 . S
C1396 C698 1.386 . S
C1413 C734 1.424 . S
C1432 C122 1.388 . S
C1449 C158 1.424 . S
C1468 C770 1.409 . S
C1485 C806 1.423 . S
C1504 C194 1.385 . S
C1521 C230 1.424 . S
C1540 C482 1.410 . S
C1557 C518 1.413 . S
C1576 C266 1.413 . S
C1593 C554 1.412 . S
C1612 C302 1.439 . S
C1629 C590 1.419 . S
C1648 C338 1.386 . S
C1665 C374 1.422 . S
C1684 C626 1.429 . S
C1701 C410 1.416 . S
C1720 C446 1.395 . S
C1737 C255 1.094 . S
C1756 C3 1.094 . S
C1773 C291 1.092 . S
C1792 C39 1.080 . S
C1809 C327 1.094 . S
C1828 C75 1.094 . S
C1845 C363 1.097 . S
C1864 C111 1.107 . S
C1881 C147 1.098 . S
C1900 C399 1.109 . S
C1917 C183 1.095 . S
C1936 C219 1.093 . S
C1953 C435 1.091 . S
C1972 C687 1.107 . S
C1989 C471 1.096 . S
C2008 C723 1.075 . S
C2025 C759 1.096 . S
C2044 C507 1.099 . S
C2061 C795 1.092 . S
C2080 C543 1.109 . S
C2097 C831 1.096 . S
C2116 C579 1.076 . S
C2133 C651 1.092 . S
C2152 C615 1.109 . S
C2169 C2 1.547 . S
C2188 C686 1.546 . S
C2205 C722 1.551 . S
C2224 C38 1.537 . S
C2241 C74 1.551 . S
C2260 C758 1.544 . S
C2277 C794 1.547 . S
C2296 C110 1.557 . S
C2313 C146 1.551 . S
C2332 C830 1.535 . S
C2349 C650 1.549 . S
C2368 C182 1.535 . S
C2385 C218 1.550 . S
C2404 C614 1.534 . S
C2421 C434 1.547 . S
C2440 C254 1.542 . S
C2457 C290 1.551 . S
C2476 C470 1.535 . S
C2493 C326 1.549 . S
C2512 C506 1.535 . S
C2529 C362 1.547 . S
C2548 C542 1.547 . S
C2565 C398 1.551 . S
C2584 C578 1.538 . S
