# Generated by pormake.
# Topology whh, (6)-cn, num edge types: 1
# Building blocks:
#     Node 0, Type 0, BuildingBlock: KUMJIN_clean_sbu_1, # of connection points: 6
#     Node 1, Type 0, BuildingBlock: KUMJIN_clean_sbu_1, # of connection points: 6
#     Node 2, Type 0, BuildingBlock: KUMJIN_clean_sbu_1, # of connection points: 6
#     Node 3, Type 0, BuildingBlock: KUMJIN_clean_sbu_1, # of connection points: 6
#     Node 4, Type 0, BuildingBlock: KUMJIN_clean_sbu_1, # of connection points: 6
#     Node 5, Type 0, BuildingBlock: KUMJIN_clean_sbu_1, # of connection points: 6
#     Node 6, Type 0, BuildingBlock: KUMJIN_clean_sbu_1, # of connection points: 6
#     Node 7, Type 0, BuildingBlock: KUMJIN_clean_sbu_1, # of connection points: 6
#     Node 8, Type 0, BuildingBlock: KUMJIN_clean_sbu_1, # of connection points: 6
#     Node 9, Type 0, BuildingBlock: KUMJIN_clean_sbu_1, # of connection points: 6
#     Node 10, Type 0, BuildingBlock: KUMJIN_clean_sbu_1, # of connection points: 6
#     Node 11, Type 0, BuildingBlock: KUMJIN_clean_sbu_1, # of connection points: 6
#     Node 12, Type 0, BuildingBlock: KUMJIN_clean_sbu_1, # of connection points: 6
#     Node 13, Type 0, BuildingBlock: KUMJIN_clean_sbu_1, # of connection points: 6
#     Node 14, Type 0, BuildingBlock: KUMJIN_clean_sbu_1, # of connection points: 6
#     Node 15, Type 0, BuildingBlock: KUMJIN_clean_sbu_1, # of connection points: 6
#     Edge 16, Type (0, 0), BuildingBlock: UVAHIK_clean_linker_0, # of connection points: 2
#     Edge 17, Type (0, 0), BuildingBlock: UVAHIK_clean_linker_0, # of connection points: 2
#     Edge 18, Type (0, 0), BuildingBlock: UVAHIK_clean_linker_0, # of connection points: 2
#     Edge 19, Type (0, 0), BuildingBlock: UVAHIK_clean_linker_0, # of connection points: 2
#     Edge 20, Type (0, 0), BuildingBlock: UVAHIK_clean_linker_0, # of connection points: 2
#     Edge 21, Type (0, 0), BuildingBlock: UVAHIK_clean_linker_0, # of connection points: 2
#     Edge 22, Type (0, 0), BuildingBlock: UVAHIK_clean_linker_0, # of connection points: 2
#     Edge 23, Type (0, 0), BuildingBlock: UVAHIK_clean_linker_0, # of connection points: 2
#     Edge 24, Type (0, 0), BuildingBlock: UVAHIK_clean_linker_0, # of connection points: 2
#     Edge 25, Type (0, 0), BuildingBlock: UVAHIK_clean_linker_0, # of connection points: 2
#     Edge 26, Type (0, 0), BuildingBlock: UVAHIK_clean_linker_0, # of connection points: 2
#     Edge 27, Type (0, 0), BuildingBlock: UVAHIK_clean_linker_0, # of connection points: 2
#     Edge 28, Type (0, 0), BuildingBlock: UVAHIK_clean_linker_0, # of connection points: 2
#     Edge 29, Type (0, 0), BuildingBlock: UVAHIK_clean_linker_0, # of connection points: 2
#     Edge 30, Type (0, 0), BuildingBlock: UVAHIK_clean_linker_0, # of connection points: 2
#     Edge 31, Type (0, 0), BuildingBlock: UVAHIK_clean_linker_0, # of connection points: 2
#     Edge 32, Type (0, 0), BuildingBlock: UVAHIK_clean_linker_0, # of connection points: 2
#     Edge 33, Type (0, 0), BuildingBlock: UVAHIK_clean_linker_0, # of connection points: 2
#     Edge 34, Type (0, 0), BuildingBlock: UVAHIK_clean_linker_0, # of connection points: 2
#     Edge 35, Type (0, 0), BuildingBlock: UVAHIK_clean_linker_0, # of connection points: 2
#     Edge 36, Type (0, 0), BuildingBlock: UVAHIK_clean_linker_0, # of connection points: 2
#     Edge 37, Type (0, 0), BuildingBlock: UVAHIK_clean_linker_0, # of connection points: 2
#     Edge 38, Type (0, 0), BuildingBlock: UVAHIK_clean_linker_0, # of connection points: 2
#     Edge 39, Type (0, 0), BuildingBlock: UVAHIK_clean_linker_0, # of connection points: 2
#     Edge 40, Type (0, 0), BuildingBlock: UVAHIK_clean_linker_0, # of connection points: 2
#     Edge 41, Type (0, 0), BuildingBlock: UVAHIK_clean_linker_0, # of connection points: 2
#     Edge 42, Type (0, 0), BuildingBlock: UVAHIK_clean_linker_0, # of connection points: 2
#     Edge 43, Type (0, 0), BuildingBlock: UVAHIK_clean_linker_0, # of connection points: 2
#     Edge 44, Type (0, 0), BuildingBlock: UVAHIK_clean_linker_0, # of connection points: 2
#     Edge 45, Type (0, 0), BuildingBlock: UVAHIK_clean_linker_0, # of connection points: 2
#     Edge 46, Type (0, 0), BuildingBlock: UVAHIK_clean_linker_0, # of connection points: 2
#     Edge 47, Type (0, 0), BuildingBlock: UVAHIK_clean_linker_0, # of connection points: 2
#     Edge 48, Type (0, 0), BuildingBlock: UVAHIK_clean_linker_0, # of connection points: 2
#     Edge 49, Type (0, 0), BuildingBlock: UVAHIK_clean_linker_0, # of connection points: 2
#     Edge 50, Type (0, 0), BuildingBlock: UVAHIK_clean_linker_0, # of connection points: 2
#     Edge 51, Type (0, 0), BuildingBlock: UVAHIK_clean_linker_0, # of connection points: 2
#     Edge 52, Type (0, 0), BuildingBlock: UVAHIK_clean_linker_0, # of connection points: 2
#     Edge 53, Type (0, 0), BuildingBlock: UVAHIK_clean_linker_0, # of connection points: 2
#     Edge 54, Type (0, 0), BuildingBlock: UVAHIK_clean_linker_0, # of connection points: 2
#     Edge 55, Type (0, 0), BuildingBlock: UVAHIK_clean_linker_0, # of connection points: 2
#     Edge 56, Type (0, 0), BuildingBlock: UVAHIK_clean_linker_0, # of connection points: 2
#     Edge 57, Type (0, 0), BuildingBlock: UVAHIK_clean_linker_0, # of connection points: 2
#     Edge 58, Type (0, 0), BuildingBlock: UVAHIK_clean_linker_0, # of connection points: 2
#     Edge 59, Type (0, 0), BuildingBlock: UVAHIK_clean_linker_0, # of connection points: 2
#     Edge 60, Type (0, 0), BuildingBlock: UVAHIK_clean_linker_0, # of connection points: 2
#     Edge 61, Type (0, 0), BuildingBlock: UVAHIK_clean_linker_0, # of connection points: 2
#     Edge 62, Type (0, 0), BuildingBlock: UVAHIK_clean_linker_0, # of connection points: 2
#     Edge 63, Type (0, 0), BuildingBlock: UVAHIK_clean_linker_0, # of connection points: 2
# Relax obj value: 0.294
# Max RMSD: 0.291
# Mean RMSD: 0.290
data_MOF--net-whh--node1-KUMJIN_clean_sbu_1--edge1-UVAHIK_clean_linker_0
_symmetry_space_group_name_H-M    P1
_symmetry_Int_Tables_number       1
_symmetry_cell_setting            triclinic
loop_
_symmetry_equiv_pos_as_xyz
'x, y, z'
_cell_length_a     54.968322
_cell_length_b     54.615592
_cell_length_c     54.153645
_cell_angle_alpha  90.052764
_cell_angle_beta   89.945553
_cell_angle_gamma 89.983985
loop_
_atom_site_label
_atom_site_type_symbol
_atom_site_fract_x
_atom_site_fract_y
_atom_site_fract_z
_atom_type_partial_charge
Eu0 Eu 0.06842 0.61624 0.11388 0.0
C1 C 0.95802 0.66948 0.12343 0.0
N2 N 0.97055 0.65552 0.13973 0.0
C3 C 0.95529 0.67958 0.1734 0.0
C4 C 0.94422 0.68974 0.13143 0.0
C5 C 0.96862 0.65961 0.16453 0.0
C6 C 0.94331 0.69494 0.15674 0.0
C7 C 0.9444 0.67609 0.08139 0.0
C8 C 0.95809 0.66277 0.0988 0.0
C9 C 0.93138 0.69688 0.08907 0.0
C10 C 0.93132 0.70371 0.11404 0.0
Eu11 Eu 0.99374 0.62311 0.12296 0.0
N12 N 0.97109 0.64282 0.09192 0.0
C13 C 0.94408 0.66796 0.05684 0.0
C14 C 0.97013 0.63418 0.06829 0.0
C15 C 0.95682 0.64675 0.05032 0.0
H16 H 0.97773 0.64762 0.17746 0.0
H17 H 0.9564 0.64011 0.03149 0.0
H18 H 0.07254 0.57512 0.06845 0.0
H19 H 0.10308 0.61172 0.2088 0.0
H20 H 0.97997 0.61777 0.0633 0.0
H21 H 0.93381 0.6777 0.04289 0.0
H22 H 0.08628 0.63173 0.17199 0.0
H23 H 0.95422 0.68309 0.19304 0.0
H24 H 0.92099 0.70756 0.07593 0.0
H25 H 0.92081 0.71951 0.11979 0.0
H26 H 0.08608 0.53244 0.06247 0.0
H27 H 0.93292 0.71036 0.16365 0.0
H28 H 0.11475 0.56805 0.20707 0.0
N29 N 0.07987 0.57528 0.10694 0.0
C30 C 0.09047 0.56341 0.1262 0.0
C31 C 0.08708 0.54079 0.08057 0.0
C32 C 0.09878 0.53913 0.12358 0.0
C33 C 0.07899 0.5648 0.0841 0.0
C34 C 0.09676 0.52778 0.10046 0.0
N35 N 0.08562 0.59945 0.15033 0.0
C36 C 0.08995 0.61253 0.17131 0.0
C37 C 0.10372 0.56367 0.16895 0.0
C38 C 0.09306 0.57569 0.14859 0.0
C39 C 0.10672 0.57666 0.19101 0.0
C40 C 0.10007 0.60128 0.19209 0.0
H41 H 0.10309 0.50919 0.09766 0.0
H42 H 0.11552 0.50839 0.14226 0.0
H43 H 0.11965 0.52977 0.18201 0.0
O44 O 0.10641 0.62723 0.11726 0.0
O45 O 0.04563 0.58443 0.12716 0.0
O46 O 0.02084 0.6081 0.14985 0.0
O47 O 0.09122 0.61977 0.08119 0.0
O48 O 0.05734 0.64535 0.14299 0.0
O49 O 0.01476 0.64763 0.14894 0.0
O50 O 0.96419 0.59785 0.11293 0.0
O51 O 0.0135 0.64479 0.09315 0.0
O52 O 0.05204 0.65375 0.107 0.0
O53 O 0.97471 0.60199 0.15102 0.0
O54 O 0.00989 0.59414 0.09828 0.0
O55 O 0.04426 0.61072 0.08039 0.0
C56 C 0.03086 0.58693 0.14575 0.0
C57 C 0.12503 0.64654 0.08265 0.0
C58 C 0.15302 0.68078 0.08685 0.0
C59 C 0.15577 0.68136 0.06104 0.0
C60 C 0.12826 0.64721 0.05691 0.0
C61 C 0.14348 0.66462 0.04621 0.0
C62 C 0.13768 0.66329 0.09762 0.0
C63 C 0.03739 0.65429 0.15387 0.0
C64 C 0.11029 0.62684 0.09353 0.0
C65 C 0.1091 0.52708 0.14391 0.0
C66 C 0.11145 0.53927 0.16655 0.0
C67 C 0.03101 0.66063 0.09754 0.0
C68 C 0.93353 0.59151 0.14336 0.0
C69 C 0.89329 0.57278 0.14063 0.0
C70 C 0.88558 0.58709 0.1607 0.0
C71 C 0.9253 0.60586 0.16328 0.0
C72 C 0.91728 0.57508 0.13188 0.0
C73 C 0.90147 0.60364 0.17182 0.0
C74 C 0.02502 0.59645 0.0797 0.0
C75 C 0.95933 0.59214 0.13571 0.0
H76 H 0.16799 0.69435 0.0524 0.0
H77 H 0.11929 0.63402 0.04506 0.0
H78 H 0.14605 0.66489 0.02639 0.0
H79 H 0.13591 0.66262 0.11755 0.0
H80 H 0.86718 0.58547 0.16772 0.0
H81 H 0.93735 0.61851 0.17259 0.0
H82 H 0.92342 0.56373 0.11667 0.0
H83 H 0.89536 0.61461 0.18729 0.0
Eu84 Eu 0.88507 0.06997 0.11503 0.0
C85 C 0.82849 0.96504 0.11351 0.0
N86 N 0.84178 0.97394 0.13266 0.0
C87 C 0.81376 0.95652 0.16165 0.0
C88 C 0.80681 0.95188 0.11781 0.0
C89 C 0.83527 0.96914 0.15647 0.0
C90 C 0.79931 0.94807 0.14222 0.0
C91 C 0.82448 0.95779 0.06946 0.0
C92 C 0.83711 0.96813 0.08959 0.0
C93 C 0.80253 0.9453 0.07362 0.0
C94 C 0.79368 0.94242 0.09772 0.0
Eu95 Eu 0.87781 0.9948 0.1221 0.0
N96 N 0.85842 0.98025 0.08608 0.0
C97 C 0.8347 0.9596 0.04584 0.0
C98 C 0.86925 0.98066 0.06336 0.0
C99 C 0.85735 0.9708 0.04284 0.0
H100 H 0.84712 0.97445 0.17141 0.0
H101 H 0.86577 0.97158 0.02478 0.0
H102 H 0.92415 0.07603 0.06835 0.0
H103 H 0.89087 0.10471 0.21018 0.0
H104 H 0.88703 0.98862 0.06104 0.0
H105 H 0.82561 0.95178 0.02993 0.0
H106 H 0.87106 0.08495 0.17498 0.0
H107 H 0.80854 0.95295 0.18058 0.0
H108 H 0.79252 0.93734 0.05837 0.0
H109 H 0.77695 0.93235 0.10066 0.0
H110 H 0.96543 0.0921 0.0609 0.0
H111 H 0.78278 0.93805 0.14628 0.0
H112 H 0.93258 0.12103 0.20612 0.0
N113 N 0.92481 0.08349 0.10681 0.0
C114 C 0.93641 0.09515 0.1256 0.0
C115 C 0.95767 0.09272 0.07927 0.0
C116 C 0.95976 0.10529 0.12204 0.0
C117 C 0.93452 0.08309 0.08365 0.0
C118 C 0.97047 0.10365 0.09861 0.0
N119 N 0.90182 0.08804 0.15111 0.0
C120 C 0.88956 0.09098 0.17288 0.0
C121 C 0.93642 0.10955 0.16804 0.0
C122 C 0.9247 0.09738 0.14834 0.0
C123 C 0.92416 0.11187 0.19056 0.0
C124 C 0.90064 0.10261 0.19294 0.0
H125 H 0.98833 0.11131 0.09512 0.0
H126 H 0.9894 0.12503 0.1393 0.0
H127 H 0.96908 0.1286 0.17958 0.0
O128 O 0.87557 0.10846 0.11856 0.0
O129 O 0.9167 0.04779 0.12933 0.0
O130 O 0.89688 0.0175 0.15099 0.0
O131 O 0.87702 0.09181 0.08213 0.0
O132 O 0.85786 0.0574 0.14442 0.0
O133 O 0.8622 0.01582 0.15548 0.0
O134 O 0.90961 0.97204 0.11307 0.0
O135 O 0.85585 0.01767 0.09516 0.0
O136 O 0.84685 0.05476 0.11229 0.0
O137 O 0.88263 0.95865 0.1386 0.0
O138 O 0.90875 0.01012 0.09981 0.0
O139 O 0.89298 0.04505 0.08207 0.0
C140 C 0.91607 0.03111 0.14664 0.0
C141 C 0.85479 0.12936 0.08613 0.0
C142 C 0.82483 0.16134 0.09397 0.0
C143 C 0.82559 0.16785 0.06893 0.0
C144 C 0.8552 0.13611 0.06111 0.0
C145 C 0.84062 0.15519 0.05258 0.0
C146 C 0.83935 0.14201 0.1026 0.0
C147 C 0.85307 0.03823 0.15877 0.0
C148 C 0.87313 0.11174 0.09488 0.0
C149 C 0.97146 0.11716 0.14171 0.0
C150 C 0.95986 0.11922 0.16464 0.0
C151 C 0.83987 0.03413 0.1021 0.0
C152 C 0.92169 0.94027 0.14065 0.0
C153 C 0.94981 0.90544 0.14214 0.0
C154 C 0.95484 0.91127 0.16695 0.0
C155 C 0.92698 0.94564 0.16539 0.0
C156 C 0.93319 0.92024 0.12908 0.0
C157 C 0.94352 0.93116 0.17839 0.0
C158 C 0.90881 0.02691 0.08251 0.0
C159 C 0.90284 0.95394 0.12709 0.0
H160 H 0.81462 0.18288 0.06209 0.0
H161 H 0.86737 0.12706 0.04826 0.0
H162 H 0.84128 0.16046 0.03333 0.0
H163 H 0.83912 0.13744 0.12207 0.0
H164 H 0.96699 0.90003 0.17783 0.0
H165 H 0.91808 0.96075 0.17471 0.0
H166 H 0.92891 0.91603 0.11001 0.0
H167 H 0.94727 0.93497 0.1976 0.0
Eu168 Eu 0.5093 0.88382 0.12468 0.0
C169 C 0.41128 0.93165 0.0805 0.0
N170 N 0.419 0.92937 0.1043 0.0
C171 C 0.40379 0.9697 0.11348 0.0
C172 C 0.40038 0.95359 0.07216 0.0
C173 C 0.4144 0.94771 0.12099 0.0
C174 C 0.39705 0.9728 0.08891 0.0
C175 C 0.40518 0.91361 0.03988 0.0
C176 C 0.41346 0.91178 0.06448 0.0
C177 C 0.39494 0.93563 0.0315 0.0
C178 C 0.39252 0.95553 0.04759 0.0
Eu179 Eu 0.43414 0.88992 0.11505 0.0
N180 N 0.4233 0.89052 0.07298 0.0
C181 C 0.40705 0.8931 0.02449 0.0
C182 C 0.42449 0.87023 0.0583 0.0
C183 C 0.41663 0.87129 0.03378 0.0
H184 H 0.41786 0.94536 0.14045 0.0
H185 H 0.41776 0.85524 0.0221 0.0
H186 H 0.52895 0.83387 0.09624 0.0
H187 H 0.54059 0.91889 0.21479 0.0
H188 H 0.43142 0.8532 0.06554 0.0
H189 H 0.40083 0.8938 0.00552 0.0
H190 H 0.52492 0.92236 0.17257 0.0
H191 H 0.40035 0.98409 0.1268 0.0
H192 H 0.3885 0.93735 0.01267 0.0
H193 H 0.3842 0.97226 0.04094 0.0
H194 H 0.54623 0.79324 0.10683 0.0
H195 H 0.38862 0.98983 0.08322 0.0
H196 H 0.55421 0.8788 0.23077 0.0
N197 N 0.52863 0.84634 0.13313 0.0
C198 C 0.53695 0.8428 0.15642 0.0
C199 C 0.54326 0.80682 0.12108 0.0
C200 C 0.54755 0.82032 0.16336 0.0
C201 C 0.53298 0.8295 0.11517 0.0
C202 C 0.55005 0.80198 0.14545 0.0
N203 N 0.52701 0.884 0.16501 0.0
C204 C 0.52964 0.90445 0.17943 0.0
C205 C 0.546 0.85958 0.19679 0.0
C206 C 0.53617 0.86222 0.17285 0.0
C207 C 0.54681 0.88007 0.21228 0.0
C208 C 0.53906 0.9027 0.20335 0.0
H209 H 0.55815 0.78447 0.14999 0.0
H210 H 0.56403 0.79999 0.19334 0.0
H211 H 0.56264 0.83438 0.22268 0.0
O212 O 0.54266 0.90578 0.12564 0.0
O213 O 0.48724 0.8562 0.14621 0.0
O214 O 0.44799 0.87235 0.15111 0.0
O215 O 0.53427 0.8832 0.09324 0.0
O216 O 0.49125 0.91251 0.14768 0.0
O217 O 0.4495 0.91717 0.14163 0.0
O218 O 0.40259 0.8657 0.11223 0.0
O219 O 0.45965 0.89956 0.08348 0.0
O220 O 0.49027 0.91571 0.10624 0.0
O221 O 0.40055 0.89871 0.13415 0.0
O222 O 0.45036 0.85251 0.10926 0.0
O223 O 0.48915 0.86114 0.09511 0.0
C224 C 0.46589 0.85723 0.1573 0.0
C225 C 0.57203 0.90671 0.09193 0.0
C226 C 0.60734 0.93378 0.08994 0.0
C227 C 0.61431 0.92246 0.06774 0.0
C228 C 0.57946 0.89566 0.06975 0.0
C229 C 0.60052 0.90347 0.05782 0.0
C230 C 0.58624 0.92572 0.10222 0.0
C231 C 0.47017 0.92281 0.15206 0.0
C232 C 0.54932 0.89844 0.1038 0.0
C233 C 0.5561 0.81722 0.18758 0.0
C234 C 0.55533 0.83682 0.20427 0.0
C235 C 0.47888 0.91356 0.08518 0.0
C236 C 0.37631 0.86547 0.14688 0.0
C237 C 0.34701 0.83388 0.15717 0.0
C238 C 0.34772 0.84121 0.18203 0.0
C239 C 0.37684 0.87283 0.17181 0.0
C240 C 0.36142 0.84601 0.13977 0.0
C241 C 0.36258 0.86064 0.18927 0.0
C242 C 0.47099 0.84563 0.09899 0.0
C243 C 0.38964 0.87868 0.12757 0.0
H244 H 0.63063 0.92826 0.05814 0.0
H245 H 0.56898 0.88096 0.06157 0.0
H246 H 0.60615 0.89481 0.04076 0.0
H247 H 0.58077 0.93445 0.11933 0.0
H248 H 0.3363 0.83237 0.19567 0.0
H249 H 0.38796 0.88808 0.17778 0.0
H250 H 0.36074 0.84054 0.12051 0.0
H251 H 0.36277 0.86649 0.20837 0.0
Eu252 Eu 0.61505 0.43832 0.11479 0.0
C253 C 0.67749 0.53747 0.11568 0.0
N254 N 0.66399 0.52755 0.13418 0.0
C255 C 0.69487 0.53808 0.16359 0.0
C256 C 0.70069 0.54748 0.12043 0.0
C257 C 0.67175 0.52897 0.15804 0.0
C258 C 0.70958 0.54706 0.14463 0.0
C259 C 0.68064 0.55004 0.07278 0.0
C260 C 0.66767 0.53861 0.09208 0.0
C261 C 0.7039 0.55964 0.07737 0.0
C262 C 0.71396 0.55822 0.10109 0.0
Eu263 Eu 0.62514 0.51283 0.12278 0.0
N264 N 0.64538 0.52869 0.08799 0.0
C265 C 0.66978 0.55152 0.04944 0.0
C266 C 0.63419 0.53114 0.06564 0.0
C267 C 0.64637 0.54221 0.04592 0.0
H268 H 0.6598 0.524 0.17293 0.0
H269 H 0.63761 0.54377 0.0281 0.0
H270 H 0.57191 0.43507 0.07181 0.0
H271 H 0.61682 0.39962 0.20848 0.0
H272 H 0.61585 0.5246 0.06307 0.0
H273 H 0.67916 0.56015 0.03414 0.0
H274 H 0.63402 0.41996 0.17226 0.0
H275 H 0.70107 0.53875 0.18254 0.0
H276 H 0.71421 0.56829 0.06273 0.0
H277 H 0.73184 0.56588 0.10438 0.0
H278 H 0.52997 0.41963 0.06729 0.0
H279 H 0.72735 0.55446 0.149 0.0
H280 H 0.57458 0.38423 0.20761 0.0
N281 N 0.57466 0.4253 0.10955 0.0
C282 C 0.56455 0.41291 0.12872 0.0
C283 C 0.53932 0.41795 0.08479 0.0
C284 C 0.5408 0.4033 0.12687 0.0
C285 C 0.56289 0.42713 0.0875 0.0
C286 C 0.52811 0.40618 0.10464 0.0
N287 N 0.60116 0.41877 0.15134 0.0
C288 C 0.61521 0.41466 0.17174 0.0
C289 C 0.56786 0.39692 0.17039 0.0
C290 C 0.5781 0.40964 0.15019 0.0
C291 C 0.58184 0.39378 0.1917 0.0
C292 C 0.60565 0.40255 0.1923 0.0
H293 H 0.50989 0.39895 0.10246 0.0
H294 H 0.51237 0.38338 0.14594 0.0
H295 H 0.53594 0.37797 0.18408 0.0
O296 O 0.62368 0.39944 0.11598 0.0
O297 O 0.58341 0.46101 0.12877 0.0
O298 O 0.60328 0.4912 0.15062 0.0
O299 O 0.62278 0.41809 0.08082 0.0
O300 O 0.64346 0.45033 0.14318 0.0
O301 O 0.63581 0.49033 0.15689 0.0
O302 O 0.59581 0.53877 0.11424 0.0
O303 O 0.64541 0.49002 0.09408 0.0
O304 O 0.65327 0.45324 0.11217 0.0
O305 O 0.62348 0.54875 0.14056 0.0
O306 O 0.594 0.49902 0.09986 0.0
O307 O 0.60712 0.46304 0.08173 0.0
C308 C 0.58373 0.4783 0.1456 0.0
C309 C 0.65017 0.38443 0.08497 0.0
C310 C 0.68128 0.35363 0.09345 0.0
C311 C 0.6918 0.3584 0.07031 0.0
C312 C 0.6608 0.38863 0.06174 0.0
C313 C 0.68151 0.37569 0.05453 0.0
C314 C 0.66034 0.36653 0.10062 0.0
C315 C 0.6463 0.46855 0.15916 0.0
C316 C 0.62793 0.39779 0.0924 0.0
C317 C 0.5306 0.39083 0.14702 0.0
C318 C 0.54406 0.38772 0.16872 0.0
C319 C 0.66078 0.47263 0.10008 0.0
C320 C 0.58572 0.56996 0.14321 0.0
C321 C 0.55666 0.60407 0.14465 0.0
C322 C 0.55265 0.59891 0.16983 0.0
C323 C 0.58154 0.56546 0.16834 0.0
C324 C 0.57323 0.58925 0.13143 0.0
C325 C 0.5649 0.57973 0.18146 0.0
C326 C 0.5937 0.48309 0.08171 0.0
C327 C 0.60381 0.55562 0.12915 0.0
H328 H 0.7077 0.34834 0.0642 0.0
H329 H 0.65308 0.40184 0.04906 0.0
H330 H 0.68953 0.37896 0.03657 0.0
H331 H 0.65209 0.36265 0.11839 0.0
H332 H 0.54048 0.61009 0.18081 0.0
H333 H 0.59107 0.55085 0.17779 0.0
H334 H 0.57656 0.59275 0.11202 0.0
H335 H 0.56171 0.57611 0.20085 0.0
Eu336 Eu 0.06625 0.88637 0.36778 0.0
C337 C 0.95602 0.83195 0.36496 0.0
N338 N 0.96802 0.84369 0.34654 0.0
C339 C 0.95667 0.8121 0.31801 0.0
C340 C 0.94479 0.8091 0.36085 0.0
C341 C 0.96734 0.83481 0.323 0.0
C342 C 0.94573 0.79895 0.33713 0.0
C343 C 0.94133 0.832 0.40722 0.0
C344 C 0.95419 0.84327 0.38778 0.0
C345 C 0.9308 0.80887 0.40347 0.0
C346 C 0.93255 0.79743 0.38035 0.0
Eu347 Eu 0.98714 0.88098 0.35735 0.0
N348 N 0.96507 0.86531 0.39101 0.0
C349 C 0.93963 0.84429 0.42988 0.0
C350 C 0.96299 0.87773 0.41276 0.0
C351 C 0.95036 0.86734 0.43259 0.0
H352 H 0.97462 0.84535 0.30791 0.0
H353 H 0.94897 0.87707 0.44996 0.0
H354 H 0.07043 0.92537 0.41539 0.0
H355 H 0.1107 0.88888 0.27725 0.0
H356 H 0.97133 0.89551 0.41486 0.0
H357 H 0.92997 0.83622 0.4453 0.0
H358 H 0.08456 0.87166 0.30974 0.0
H359 H 0.95663 0.8049 0.29938 0.0
H360 H 0.92108 0.79976 0.41826 0.0
H361 H 0.92405 0.77974 0.37762 0.0
H362 H 0.09056 0.96448 0.4255 0.0
H363 H 0.93736 0.78142 0.33321 0.0
H364 H 0.13271 0.9277 0.28445 0.0
N365 N 0.08395 0.9241 0.37883 0.0
C366 C 0.09955 0.934 0.36203 0.0
C367 C 0.09297 0.9563 0.40745 0.0
C368 C 0.11185 0.9561 0.36712 0.0
C369 C 0.08112 0.93442 0.40154 0.0
C370 C 0.10825 0.96731 0.3901 0.0
N371 N 0.09081 0.9009 0.33501 0.0
C372 C 0.09363 0.88882 0.31311 0.0
C373 C 0.11851 0.9324 0.32148 0.0
C374 C 0.10312 0.92209 0.33954 0.0
C375 C 0.12111 0.92032 0.29882 0.0
C376 C 0.10865 0.89843 0.29465 0.0
H377 H 0.11744 0.98424 0.39474 0.0
H378 H 0.13693 0.98324 0.35283 0.0
H379 H 0.14255 0.96266 0.31282 0.0
O380 O 0.09785 0.86251 0.36496 0.0
O381 O 0.054 0.91756 0.34336 0.0
O382 O 0.02309 0.89543 0.35079 0.0
O383 O 0.08786 0.8778 0.4005 0.0
O384 O 0.05207 0.8608 0.33711 0.0
O385 O 0.0101 0.86374 0.32659 0.0
O386 O 0.95974 0.90996 0.36226 0.0
O387 O 0.00568 0.85924 0.38758 0.0
O388 O 0.04408 0.85143 0.37171 0.0
O389 O 0.96676 0.89469 0.32554 0.0
O390 O 0.00246 0.91139 0.38095 0.0
O391 O 0.0388 0.89691 0.39843 0.0
C392 C 0.0314 0.91429 0.33914 0.0
C393 C 0.12973 0.86896 0.39311 0.0
C394 C 0.17108 0.85306 0.39148 0.0
C395 C 0.17936 0.87407 0.40383 0.0
C396 C 0.13826 0.89011 0.40506 0.0
C397 C 0.16302 0.89259 0.41037 0.0
C398 C 0.14627 0.85066 0.38609 0.0
C399 C 0.03277 0.85583 0.323 0.0
C400 C 0.10377 0.865 0.38807 0.0
C401 C 0.12738 0.96625 0.34924 0.0
C402 C 0.13063 0.95449 0.32647 0.0
C403 C 0.02401 0.84437 0.3831 0.0
C404 C 0.93585 0.92669 0.3281 0.0
C405 C 0.90003 0.95326 0.33206 0.0
C406 C 0.901 0.95745 0.30643 0.0
C407 C 0.93612 0.93114 0.30259 0.0
C408 C 0.91772 0.93781 0.34285 0.0
C409 C 0.91888 0.94651 0.29191 0.0
C410 C 0.01973 0.91192 0.39795 0.0
C411 C 0.95433 0.91017 0.33887 0.0
H412 H 0.19848 0.87624 0.40814 0.0
H413 H 0.12588 0.90457 0.41046 0.0
H414 H 0.16954 0.90885 0.41968 0.0
H415 H 0.13977 0.83429 0.37685 0.0
H416 H 0.88749 0.96874 0.29737 0.0
H417 H 0.94965 0.92264 0.29084 0.0
H418 H 0.9173 0.93438 0.36255 0.0
H419 H 0.91914 0.94972 0.27219 0.0
Eu420 Eu 0.61634 0.06932 0.36826 0.0
C421 C 0.6751 0.96641 0.36566 0.0
N422 N 0.6618 0.97701 0.34746 0.0
C423 C 0.69073 0.96358 0.31718 0.0
C424 C 0.69717 0.95433 0.3603 0.0
C425 C 0.66865 0.97472 0.32337 0.0
C426 C 0.70522 0.95359 0.33578 0.0
C427 C 0.6785 0.95424 0.40862 0.0
C428 C 0.66598 0.96646 0.38953 0.0
C429 C 0.70072 0.94262 0.40345 0.0
C430 C 0.71002 0.94268 0.37936 0.0
Eu431 Eu 0.62474 0.99524 0.35964 0.0
N432 N 0.6446 0.97805 0.39404 0.0
C433 C 0.66814 0.95382 0.43225 0.0
C434 C 0.63376 0.9766 0.4167 0.0
C435 C 0.64556 0.96487 0.43625 0.0
H436 H 0.65668 0.98069 0.30886 0.0
H437 H 0.63712 0.96413 0.4543 0.0
H438 H 0.57425 0.07345 0.41244 0.0
H439 H 0.61422 0.10393 0.27303 0.0
H440 H 0.61602 0.98451 0.41968 0.0
H441 H 0.6772 0.94463 0.4474 0.0
H442 H 0.63346 0.08722 0.31015 0.0
H443 H 0.69625 0.96217 0.29804 0.0
H444 H 0.71068 0.93327 0.41789 0.0
H445 H 0.72695 0.93323 0.37556 0.0
H446 H 0.53122 0.08566 0.41687 0.0
H447 H 0.72212 0.94457 0.33092 0.0
H448 H 0.57066 0.11508 0.2735 0.0
N449 N 0.5754 0.08044 0.37392 0.0
C450 C 0.56398 0.0906 0.35418 0.0
C451 C 0.54008 0.08679 0.39905 0.0
C452 C 0.53954 0.09829 0.35594 0.0
C453 C 0.56429 0.07943 0.3964 0.0
C454 C 0.52754 0.09601 0.37865 0.0
N455 N 0.60072 0.08662 0.33131 0.0
C456 C 0.61423 0.09088 0.31058 0.0
C457 C 0.56534 0.10391 0.31147 0.0
C458 C 0.57688 0.09351 0.33223 0.0
C459 C 0.57887 0.10718 0.28984 0.0
C460 C 0.60345 0.10084 0.28948 0.0
H461 H 0.50881 0.10182 0.38077 0.0
H462 H 0.50922 0.11429 0.33616 0.0
H463 H 0.53172 0.11906 0.29721 0.0
O464 O 0.62467 0.10826 0.36583 0.0
O465 O 0.58603 0.04501 0.35414 0.0
O466 O 0.6052 0.01653 0.32991 0.0
O467 O 0.62247 0.09091 0.40163 0.0
O468 O 0.64524 0.05811 0.34009 0.0
O469 O 0.63848 0.01779 0.3266 0.0
O470 O 0.59439 0.97168 0.36999 0.0
O471 O 0.646 0.01695 0.38831 0.0
O472 O 0.65465 0.05434 0.37173 0.0
O473 O 0.61894 0.95988 0.34122 0.0
O474 O 0.59412 0.00995 0.38291 0.0
O475 O 0.6093 0.04475 0.40146 0.0
C476 C 0.58747 0.03215 0.33381 0.0
C477 C 0.64963 0.12467 0.39748 0.0
C478 C 0.68052 0.15581 0.38953 0.0
C479 C 0.69037 0.15155 0.41306 0.0
C480 C 0.65955 0.12099 0.42112 0.0
C481 C 0.67981 0.13436 0.42879 0.0
C482 C 0.66002 0.14249 0.3819 0.0
C483 C 0.64878 0.03971 0.32446 0.0
C484 C 0.62789 0.11083 0.38951 0.0
C485 C 0.528 0.10834 0.33518 0.0
C486 C 0.54084 0.11106 0.313 0.0
C487 C 0.66175 0.03408 0.38262 0.0
C488 C 0.57923 0.94228 0.3421 0.0
C489 C 0.55069 0.90786 0.34131 0.0
C490 C 0.53879 0.91884 0.32115 0.0
C491 C 0.56711 0.95297 0.32207 0.0
C492 C 0.57099 0.91982 0.35163 0.0
C493 C 0.547 0.9412 0.31162 0.0
C494 C 0.5946 0.02571 0.40121 0.0
C495 C 0.5998 0.95449 0.35431 0.0
H496 H 0.70593 0.16192 0.41947 0.0
H497 H 0.65163 0.10786 0.43376 0.0
H498 H 0.68729 0.13148 0.44704 0.0
H499 H 0.65229 0.14599 0.36383 0.0
H500 H 0.52335 0.91 0.31253 0.0
H501 H 0.57309 0.97039 0.31467 0.0
H502 H 0.58018 0.91188 0.36741 0.0
H503 H 0.53771 0.94943 0.29609 0.0
Eu504 Eu 0.50555 0.62465 0.35664 0.0
C505 C 0.4157 0.57822 0.40535 0.0
N506 N 0.42231 0.57961 0.38122 0.0
C507 C 0.41171 0.53752 0.37501 0.0
C508 C 0.40745 0.55591 0.41544 0.0
C509 C 0.4199 0.55996 0.36585 0.0
C510 C 0.40556 0.53544 0.39994 0.0
C511 C 0.41162 0.59781 0.44534 0.0
C512 C 0.41767 0.59908 0.42005 0.0
C513 C 0.40352 0.57556 0.45549 0.0
C514 C 0.40137 0.55472 0.44057 0.0
Eu515 Eu 0.43262 0.6187 0.36661 0.0
N516 N 0.42534 0.62052 0.40969 0.0
C517 C 0.41368 0.61899 0.45971 0.0
C518 C 0.42661 0.64139 0.42349 0.0
C519 C 0.42113 0.64086 0.44872 0.0
H520 H 0.42384 0.5617 0.34641 0.0
H521 H 0.42232 0.65742 0.45964 0.0
H522 H 0.52592 0.67149 0.39129 0.0
H523 H 0.5247 0.603 0.26042 0.0
H524 H 0.43132 0.65866 0.41522 0.0
H525 H 0.40924 0.61874 0.47921 0.0
H526 H 0.50933 0.59527 0.30266 0.0
H527 H 0.40993 0.52193 0.36279 0.0
H528 H 0.39874 0.57432 0.47486 0.0
H529 H 0.39499 0.53775 0.44865 0.0
H530 H 0.54612 0.71141 0.38511 0.0
H531 H 0.3992 0.51802 0.40699 0.0
H532 H 0.54288 0.64318 0.25014 0.0
N533 N 0.52391 0.66344 0.35293 0.0
C534 C 0.53136 0.66965 0.3298 0.0
C535 C 0.54177 0.7 0.36937 0.0
C536 C 0.54374 0.69187 0.32553 0.0
C537 C 0.5299 0.67763 0.37276 0.0
C538 C 0.54851 0.70726 0.34562 0.0
N539 N 0.51731 0.63118 0.31543 0.0
C540 C 0.51671 0.61301 0.29808 0.0
C541 C 0.53769 0.65801 0.2869 0.0
C542 C 0.52839 0.65291 0.31064 0.0
C543 C 0.53589 0.63997 0.26857 0.0
C544 C 0.52559 0.61728 0.27427 0.0
H545 H 0.55824 0.72432 0.3431 0.0
H546 H 0.56132 0.71459 0.298 0.0
H547 H 0.55601 0.68497 0.26421 0.0
O548 O 0.52724 0.59099 0.3597 0.0
O549 O 0.48098 0.63704 0.32453 0.0
O550 O 0.44461 0.64992 0.34181 0.0
O551 O 0.54446 0.62619 0.36402 0.0
O552 O 0.48716 0.58925 0.34563 0.0
O553 O 0.44878 0.60075 0.33286 0.0
O554 O 0.39522 0.63226 0.3711 0.0
O555 O 0.45938 0.59202 0.38403 0.0
O556 O 0.49111 0.61645 0.395 0.0
O557 O 0.40413 0.60702 0.3416 0.0
O558 O 0.44873 0.65653 0.37418 0.0
O559 O 0.48777 0.6476 0.38701 0.0
C560 C 0.46125 0.65087 0.32428 0.0
C561 C 0.56376 0.59274 0.38305 0.0
C562 C 0.59945 0.56835 0.39387 0.0
C563 C 0.59683 0.57602 0.41855 0.0
C564 C 0.56151 0.60018 0.40773 0.0
C565 C 0.57802 0.59183 0.42537 0.0
C566 C 0.58282 0.57692 0.37612 0.0
C567 C 0.4672 0.58549 0.33282 0.0
C568 C 0.54749 0.6026 0.36401 0.0
C569 C 0.55195 0.69751 0.30163 0.0
C570 C 0.54898 0.68062 0.28238 0.0
C571 C 0.47742 0.59717 0.399 0.0
C572 C 0.36893 0.63101 0.33549 0.0
C573 C 0.33851 0.66227 0.32608 0.0
C574 C 0.33054 0.64798 0.306 0.0
C575 C 0.36054 0.61713 0.31535 0.0
C576 C 0.35793 0.65368 0.34071 0.0
C577 C 0.34161 0.62567 0.30065 0.0
C578 C 0.46982 0.66326 0.38374 0.0
C579 C 0.3872 0.62001 0.35207 0.0
H580 H 0.60964 0.57011 0.43252 0.0
H581 H 0.54725 0.61274 0.41323 0.0
H582 H 0.57638 0.5978 0.44436 0.0
H583 H 0.58472 0.57137 0.35699 0.0
H584 H 0.31523 0.65364 0.29481 0.0
H585 H 0.3683 0.59934 0.31127 0.0
H586 H 0.36418 0.66439 0.35631 0.0
H587 H 0.33509 0.61468 0.28538 0.0
Eu588 Eu 0.88529 0.43726 0.367 0.0
C589 C 0.82743 0.54256 0.3676 0.0
N590 N 0.84061 0.53247 0.34896 0.0
C591 C 0.81315 0.54926 0.31907 0.0
C592 C 0.80604 0.55594 0.36262 0.0
C593 C 0.83442 0.53649 0.32488 0.0
C594 C 0.79871 0.55875 0.33803 0.0
C595 C 0.82361 0.55232 0.4112 0.0
C596 C 0.83602 0.54065 0.39165 0.0
C597 C 0.80192 0.56503 0.40639 0.0
C598 C 0.79311 0.56673 0.38219 0.0
Eu599 Eu 0.87624 0.51156 0.36078 0.0
N600 N 0.8568 0.52786 0.39589 0.0
C601 C 0.83353 0.55111 0.43498 0.0
C602 C 0.86728 0.52777 0.41875 0.0
C603 C 0.85561 0.53901 0.43871 0.0
H604 H 0.84589 0.52978 0.31012 0.0
H605 H 0.86376 0.53853 0.45689 0.0
H606 H 0.92503 0.43246 0.41351 0.0
H607 H 0.89169 0.40054 0.27308 0.0
H608 H 0.88463 0.51901 0.42157 0.0
H609 H 0.82456 0.55988 0.45047 0.0
H610 H 0.87095 0.41773 0.30952 0.0
H611 H 0.80802 0.55196 0.29997 0.0
H612 H 0.79201 0.5739 0.42121 0.0
H613 H 0.77656 0.57695 0.37872 0.0
H614 H 0.96785 0.42084 0.42 0.0
H615 H 0.78236 0.56886 0.33346 0.0
H616 H 0.9355 0.39047 0.27519 0.0
N617 N 0.92617 0.42686 0.37471 0.0
C618 C 0.93872 0.41697 0.3555 0.0
C619 C 0.96006 0.42009 0.40167 0.0
C620 C 0.96304 0.40928 0.35848 0.0
C621 C 0.93596 0.42727 0.39783 0.0
C622 C 0.97379 0.41137 0.38182 0.0
N623 N 0.90298 0.42 0.33111 0.0
C624 C 0.89023 0.41476 0.3102 0.0
C625 C 0.93931 0.40286 0.31298 0.0
C626 C 0.92687 0.41363 0.33304 0.0
C627 C 0.92659 0.39871 0.29101 0.0
C628 C 0.90188 0.40445 0.28971 0.0
H629 H 0.99238 0.40554 0.3849 0.0
H630 H 0.99429 0.39313 0.3403 0.0
H631 H 0.97361 0.38768 0.30044 0.0
O632 O 0.87738 0.39837 0.36337 0.0
O633 O 0.91447 0.46223 0.35189 0.0
O634 O 0.89435 0.49131 0.32935 0.0
O635 O 0.87906 0.41483 0.39981 0.0
O636 O 0.85673 0.44834 0.33789 0.0
O637 O 0.85949 0.4905 0.32854 0.0
O638 O 0.90914 0.53266 0.3689 0.0
O639 O 0.85514 0.48857 0.38852 0.0
O640 O 0.84686 0.4514 0.37115 0.0
O641 O 0.881 0.54846 0.34608 0.0
O642 O 0.90746 0.49646 0.38265 0.0
O643 O 0.89251 0.46145 0.40068 0.0
C644 C 0.91221 0.47557 0.33198 0.0
C645 C 0.8567 0.37761 0.39597 0.0
C646 C 0.82577 0.34656 0.38847 0.0
C647 C 0.82602 0.34051 0.41363 0.0
C648 C 0.85667 0.37129 0.42111 0.0
C649 C 0.84135 0.35291 0.42987 0.0
C650 C 0.84104 0.36518 0.3796 0.0
C651 C 0.85088 0.46809 0.32474 0.0
C652 C 0.8753 0.3949 0.38707 0.0
C653 C 0.97559 0.39909 0.33836 0.0
C654 C 0.96379 0.39596 0.31566 0.0
C655 C 0.83948 0.4716 0.38196 0.0
C656 C 0.92062 0.56486 0.34205 0.0
C657 C 0.94873 0.59944 0.3395 0.0
C658 C 0.95373 0.59293 0.31482 0.0
C659 C 0.92596 0.55855 0.31756 0.0
C660 C 0.93219 0.58504 0.353 0.0
C661 C 0.94247 0.5726 0.30403 0.0
C662 C 0.90739 0.48037 0.40055 0.0
C663 C 0.90214 0.55169 0.35633 0.0
H664 H 0.81446 0.32603 0.42066 0.0
H665 H 0.86896 0.38021 0.43392 0.0
H666 H 0.84162 0.348 0.44923 0.0
H667 H 0.8411 0.36942 0.36006 0.0
H668 H 0.96588 0.60386 0.3036 0.0
H669 H 0.91711 0.54305 0.30887 0.0
H670 H 0.92807 0.58959 0.37204 0.0
H671 H 0.94624 0.568 0.28497 0.0
Eu672 Eu 0.01206 0.38495 0.85939 0.0
C673 C 0.90588 0.43985 0.85863 0.0
N674 N 0.91868 0.429 0.87714 0.0
C675 C 0.90716 0.46085 0.90523 0.0
C676 C 0.89367 0.46221 0.86273 0.0
C677 C 0.91902 0.43874 0.90031 0.0
C678 C 0.89446 0.47266 0.88636 0.0
C679 C 0.89396 0.44085 0.81545 0.0
C680 C 0.90582 0.42904 0.83523 0.0
C681 C 0.88143 0.4629 0.81964 0.0
C682 C 0.88122 0.47349 0.8432 0.0
Eu683 Eu 0.93459 0.39011 0.86811 0.0
N684 N 0.91829 0.40768 0.83159 0.0
C685 C 0.89538 0.43042 0.79189 0.0
C686 C 0.92005 0.39774 0.80851 0.0
C687 C 0.90866 0.40893 0.7884 0.0
H688 H 0.92785 0.4291 0.91521 0.0
H689 H 0.91012 0.40093 0.77016 0.0
H690 H 0.031 0.36255 0.80545 0.0
H691 H 0.04568 0.36847 0.95255 0.0
H692 H 0.93025 0.38132 0.80522 0.0
H693 H 0.88659 0.439 0.77623 0.0
H694 H 0.02156 0.38929 0.92021 0.0
H695 H 0.90756 0.46859 0.92363 0.0
H696 H 0.87206 0.47207 0.80467 0.0
H697 H 0.87163 0.4906 0.84604 0.0
H698 H 0.05932 0.3307 0.78998 0.0
H699 H 0.88524 0.48978 0.89024 0.0
H700 H 0.07336 0.33449 0.94118 0.0
N701 N 0.03947 0.35604 0.84311 0.0
C702 C 0.05342 0.34369 0.85956 0.0
C703 C 0.05776 0.33411 0.80961 0.0
C704 C 0.06961 0.32528 0.8517 0.0
C705 C 0.04179 0.35208 0.81838 0.0
C706 C 0.07157 0.32047 0.82636 0.0
N707 N 0.03527 0.36704 0.89116 0.0
C708 C 0.03369 0.37454 0.91515 0.0
C709 C 0.06513 0.33677 0.90213 0.0
C710 C 0.05109 0.34923 0.88439 0.0
C711 C 0.0629 0.34363 0.92697 0.0
C712 C 0.04729 0.36279 0.93346 0.0
H713 H 0.08379 0.30644 0.81955 0.0
H714 H 0.09567 0.29797 0.86369 0.0
H715 H 0.09183 0.30812 0.90786 0.0
O716 O 0.03815 0.41481 0.86629 0.0
O717 O 0.99184 0.36284 0.8885 0.0
O718 O 0.95288 0.35323 0.87531 0.0
O719 O 0.0266 0.40651 0.82914 0.0
O720 O 0.99703 0.41309 0.88585 0.0
O721 O 0.96067 0.39657 0.89987 0.0
O722 O 0.89761 0.3761 0.86423 0.0
O723 O 0.953 0.42435 0.85404 0.0
O724 O 0.97842 0.39688 0.84166 0.0
O725 O 0.91173 0.38525 0.90048 0.0
O726 O 0.94764 0.36111 0.83924 0.0
O727 O 0.99065 0.36056 0.83238 0.0
C728 C 0.97437 0.34681 0.88416 0.0
C729 C 0.0657 0.42484 0.83322 0.0
C730 C 0.10553 0.44476 0.83704 0.0
C731 C 0.11021 0.43931 0.81214 0.0
C732 C 0.07108 0.41962 0.80833 0.0
C733 C 0.09317 0.42673 0.79798 0.0
C734 C 0.08324 0.43733 0.84765 0.0
C735 C 0.97772 0.41344 0.90022 0.0
C736 C 0.04091 0.41973 0.8429 0.0
C737 C 0.08325 0.31234 0.86933 0.0
C738 C 0.08103 0.31809 0.89449 0.0
C739 C 0.97237 0.41965 0.84165 0.0
C740 C 0.87843 0.3578 0.89928 0.0
C741 C 0.84923 0.32455 0.8958 0.0
C742 C 0.84637 0.3247 0.9216 0.0
C743 C 0.8751 0.35787 0.92503 0.0
C744 C 0.86527 0.34117 0.88469 0.0
C745 C 0.85923 0.34131 0.93609 0.0
C746 C 0.9679 0.35294 0.82791 0.0
C747 C 0.89323 0.37712 0.8879 0.0
H748 H 0.12723 0.44473 0.80362 0.0
H749 H 0.05801 0.41044 0.79658 0.0
H750 H 0.09699 0.42273 0.77879 0.0
H751 H 0.0793 0.44193 0.86671 0.0
H752 H 0.83359 0.31244 0.93051 0.0
H753 H 0.88438 0.3711 0.93658 0.0
H754 H 0.86708 0.34138 0.86475 0.0
H755 H 0.85654 0.34165 0.95589 0.0
Eu756 Eu 0.12653 0.01319 0.86022 0.0
C757 C 0.06509 0.9178 0.85291 0.0
N758 N 0.07622 0.92813 0.87273 0.0
C759 C 0.04067 0.92172 0.89748 0.0
C760 C 0.04068 0.90999 0.85441 0.0
C761 C 0.06487 0.92917 0.89509 0.0
C762 C 0.0284 0.91237 0.87697 0.0
C763 C 0.0672 0.90369 0.81047 0.0
C764 C 0.07835 0.91456 0.83123 0.0
C765 C 0.04268 0.89655 0.81169 0.0
C766 C 0.02949 0.8996 0.83362 0.0
Eu767 Eu 0.11729 0.93902 0.86774 0.0
N768 N 0.10225 0.92126 0.8307 0.0
C769 C 0.08116 0.89979 0.78923 0.0
C770 C 0.11621 0.91622 0.81043 0.0
C771 C 0.10581 0.90586 0.78931 0.0
H772 H 0.07464 0.93517 0.91124 0.0
H773 H 0.11693 0.90219 0.77322 0.0
H774 H 0.15798 0.0274 0.80899 0.0
H775 H 0.14453 0.03812 0.95605 0.0
H776 H 0.13552 0.91951 0.81043 0.0
H777 H 0.07325 0.89152 0.77291 0.0
H778 H 0.12038 0.02205 0.92108 0.0
H779 H 0.03162 0.92287 0.91521 0.0
H780 H 0.03386 0.8882 0.7959 0.0
H781 H 0.01073 0.89356 0.8344 0.0
H782 H 0.19816 0.04423 0.79779 0.0
H783 H 0.00968 0.90645 0.87891 0.0
H784 H 0.18611 0.05393 0.94876 0.0
N785 N 0.16418 0.02977 0.84761 0.0
C786 C 0.17883 0.03838 0.86585 0.0
C787 C 0.19307 0.04246 0.81702 0.0
C788 C 0.20157 0.04901 0.86031 0.0
C789 C 0.17053 0.03245 0.82342 0.0
C790 C 0.20875 0.05061 0.83556 0.0
N791 N 0.14859 0.02738 0.89477 0.0
C792 C 0.13866 0.02853 0.91789 0.0
C793 C 0.18508 0.04689 0.9094 0.0
C794 C 0.17076 0.03728 0.8901 0.0
C795 C 0.17568 0.04668 0.93344 0.0
C796 C 0.15223 0.03774 0.93765 0.0
H797 H 0.22611 0.0586 0.83054 0.0
H798 H 0.2337 0.06627 0.87566 0.0
H799 H 0.21932 0.0643 0.91861 0.0
O800 O 0.09805 0.03824 0.87247 0.0
O801 O 0.14689 0.98942 0.88766 0.0
O802 O 0.15614 0.95315 0.86967 0.0
O803 O 0.12198 0.0492 0.84294 0.0
O804 O 0.09549 0.9992 0.88335 0.0
O805 O 0.10967 0.96353 0.90118 0.0
O806 O 0.12381 0.89981 0.86592 0.0
O807 O 0.08683 0.96365 0.85467 0.0
O808 O 0.10495 0.99314 0.8308 0.0
O809 O 0.1247 0.91816 0.90145 0.0
O810 O 0.14533 0.95066 0.83889 0.0
O811 O 0.13767 0.99095 0.8259 0.0
C812 C 0.16313 0.97329 0.88081 0.0
C813 C 0.08254 0.06698 0.84435 0.0
C814 C 0.05271 0.10019 0.84344 0.0
C815 C 0.04147 0.0889 0.82309 0.0
C816 C 0.07109 0.056 0.82405 0.0
C817 C 0.05075 0.06707 0.81339 0.0
C818 C 0.0734 0.08912 0.85391 0.0
C819 C 0.09529 0.9829 0.90117 0.0
C820 C 0.10336 0.0552 0.85654 0.0
C821 C 0.21619 0.05803 0.87954 0.0
C822 C 0.20799 0.05693 0.90402 0.0
C823 C 0.08783 0.97675 0.8345 0.0
C824 C 0.14575 0.88 0.89809 0.0
C825 C 0.17627 0.84866 0.88993 0.0
C826 C 0.17616 0.84236 0.91503 0.0
C827 C 0.14596 0.87348 0.92316 0.0
C828 C 0.16116 0.86756 0.88142 0.0
C829 C 0.16114 0.85481 0.93156 0.0
C830 C 0.14787 0.96905 0.82307 0.0
C831 C 0.12716 0.89749 0.88959 0.0
H832 H 0.02576 0.09721 0.8144 0.0
H833 H 0.07784 0.0389 0.81653 0.0
H834 H 0.04218 0.05874 0.79751 0.0
H835 H 0.08217 0.09752 0.86972 0.0
H836 H 0.18761 0.82766 0.92178 0.0
H837 H 0.13389 0.88243 0.93618 0.0
H838 H 0.16097 0.87202 0.86192 0.0
H839 H 0.16099 0.84972 0.95088 0.0
Eu840 Eu 0.56955 0.11938 0.86608 0.0
C841 C 0.46997 0.16957 0.83034 0.0
N842 N 0.47765 0.16317 0.85332 0.0
C843 C 0.45984 0.19954 0.87027 0.0
C844 C 0.45757 0.19182 0.82638 0.0
C845 C 0.47172 0.17712 0.87334 0.0
C846 C 0.453 0.20707 0.84664 0.0
C847 C 0.46355 0.1584 0.78735 0.0
C848 C 0.47294 0.15306 0.81099 0.0
C849 C 0.45214 0.18101 0.78316 0.0
C850 C 0.44922 0.1977 0.8026 0.0
Eu851 Eu 0.49686 0.12471 0.85637 0.0
N852 N 0.48444 0.13146 0.81538 0.0
C853 C 0.46573 0.14073 0.76869 0.0
C854 C 0.48549 0.11366 0.79768 0.0
C855 C 0.47654 0.11818 0.77396 0.0
H856 H 0.47583 0.17081 0.89177 0.0
H857 H 0.47781 0.1042 0.75982 0.0
H858 H 0.57919 0.06279 0.84534 0.0
H859 H 0.57896 0.15745 0.95948 0.0
H860 H 0.4933 0.09602 0.80187 0.0
H861 H 0.45877 0.14417 0.7503 0.0
H862 H 0.56997 0.15895 0.9151 0.0
H863 H 0.4556 0.21081 0.88615 0.0
H864 H 0.44511 0.18557 0.76505 0.0
H865 H 0.43985 0.21483 0.7992 0.0
H866 H 0.59395 0.02314 0.86129 0.0
H867 H 0.44335 0.22421 0.84437 0.0
H868 H 0.59284 0.11886 0.97864 0.0
N869 N 0.58063 0.08043 0.88029 0.0
C870 C 0.58723 0.07894 0.90439 0.0
C871 C 0.59193 0.0386 0.87365 0.0
C872 C 0.59592 0.0567 0.91424 0.0
C873 C 0.58331 0.06096 0.86473 0.0
C874 C 0.59819 0.03642 0.89854 0.0
N875 N 0.57676 0.12099 0.90916 0.0
C876 C 0.57503 0.14169 0.92318 0.0
C877 C 0.5909 0.09822 0.94457 0.0
C878 C 0.58484 0.09961 0.9193 0.0
C879 C 0.58841 0.11921 0.95915 0.0
C880 C 0.58051 0.14103 0.9484 0.0
H881 H 0.60489 0.01905 0.90541 0.0
H882 H 0.60875 0.03847 0.94725 0.0
H883 H 0.60427 0.07471 0.97383 0.0
O884 O 0.60669 0.13321 0.87071 0.0
O885 O 0.54312 0.09204 0.88287 0.0
O886 O 0.51155 0.11626 0.89457 0.0
O887 O 0.59812 0.10852 0.84074 0.0
O888 O 0.55327 0.15713 0.87384 0.0
O889 O 0.51433 0.14791 0.88668 0.0
O890 O 0.47617 0.09051 0.85994 0.0
O891 O 0.52106 0.13816 0.82432 0.0
O892 O 0.55742 0.15076 0.84172 0.0
O893 O 0.45795 0.12527 0.86388 0.0
O894 O 0.51545 0.08971 0.8443 0.0
O895 O 0.55382 0.10173 0.83201 0.0
C896 C 0.52522 0.09687 0.89811 0.0
C897 C 0.6295 0.1369 0.83331 0.0
C898 C 0.65696 0.17086 0.82493 0.0
C899 C 0.65933 0.16283 0.8004 0.0
C900 C 0.63246 0.12889 0.80877 0.0
C901 C 0.64718 0.1419 0.79243 0.0
C902 C 0.64199 0.15785 0.84132 0.0
C903 C 0.53209 0.16376 0.8833 0.0
C904 C 0.61456 0.12251 0.85067 0.0
C905 C 0.60204 0.05539 0.93935 0.0
C906 C 0.59946 0.07605 0.95448 0.0
C907 C 0.5409 0.15185 0.82416 0.0
C908 C 0.4405 0.09184 0.8846 0.0
C909 C 0.40499 0.06797 0.89747 0.0
C910 C 0.40855 0.07653 0.92179 0.0
C911 C 0.44359 0.10008 0.90889 0.0
C912 C 0.42142 0.07562 0.87898 0.0
C913 C 0.4278 0.09224 0.92741 0.0
C914 C 0.53548 0.0864 0.83145 0.0
C915 C 0.45568 0.1016 0.86458 0.0
H916 H 0.67123 0.17229 0.78761 0.0
H917 H 0.62356 0.11244 0.80219 0.0
H918 H 0.64946 0.13553 0.77364 0.0
H919 H 0.64035 0.16391 0.86032 0.0
H920 H 0.39605 0.07174 0.93646 0.0
H921 H 0.45784 0.11302 0.91335 0.0
H922 H 0.41924 0.06937 0.86012 0.0
H923 H 0.43012 0.09886 0.94611 0.0
Eu924 Eu 0.37618 0.49466 0.85867 0.0
C925 C 0.43645 0.59646 0.85427 0.0
N926 N 0.42575 0.58512 0.87381 0.0
C927 C 0.4597 0.59508 0.89961 0.0
C928 C 0.45975 0.60706 0.85663 0.0
C929 C 0.43661 0.58486 0.8964 0.0
C930 C 0.47138 0.60614 0.87961 0.0
C931 C 0.43526 0.60845 0.81112 0.0
C932 C 0.42415 0.59725 0.83175 0.0
C933 C 0.45846 0.61898 0.81346 0.0
C934 C 0.47063 0.61834 0.83614 0.0
Eu935 Eu 0.38588 0.57092 0.8677 0.0
N936 N 0.40151 0.58705 0.83001 0.0
C937 C 0.4227 0.60888 0.7887 0.0
C938 C 0.38906 0.58798 0.80818 0.0
C939 C 0.39954 0.59862 0.78725 0.0
H940 H 0.42718 0.57736 0.91209 0.0
H941 H 0.38957 0.59917 0.77003 0.0
H942 H 0.34524 0.4785 0.808 0.0
H943 H 0.36725 0.45919 0.95216 0.0
H944 H 0.37088 0.58105 0.80651 0.0
H945 H 0.43063 0.61728 0.77245 0.0
H946 H 0.38708 0.48107 0.91757 0.0
H947 H 0.46832 0.59474 0.91757 0.0
H948 H 0.46714 0.62773 0.79781 0.0
H949 H 0.48847 0.62664 0.83764 0.0
H950 H 0.30634 0.45853 0.79706 0.0
H951 H 0.48923 0.61416 0.88218 0.0
H952 H 0.32744 0.43895 0.94573 0.0
N953 N 0.3405 0.4737 0.84653 0.0
C954 C 0.32767 0.46235 0.86455 0.0
C955 C 0.31192 0.45977 0.81618 0.0
C956 C 0.30585 0.44985 0.85922 0.0
C957 C 0.33365 0.47154 0.82244 0.0
C958 C 0.29772 0.44919 0.83473 0.0
N959 N 0.35846 0.47383 0.8923 0.0
C960 C 0.36966 0.47238 0.91473 0.0
C961 C 0.32519 0.44929 0.9072 0.0
C962 C 0.33716 0.46207 0.88813 0.0
C963 C 0.33604 0.44857 0.93057 0.0
C964 C 0.35851 0.45998 0.93428 0.0
H965 H 0.28102 0.43983 0.82986 0.0
H966 H 0.27647 0.42823 0.87461 0.0
H967 H 0.29339 0.4278 0.9167 0.0
O968 O 0.40767 0.47013 0.86558 0.0
O969 O 0.35771 0.51575 0.88945 0.0
O970 O 0.3486 0.55399 0.87457 0.0
O971 O 0.38783 0.46838 0.83071 0.0
O972 O 0.40684 0.50871 0.88251 0.0
O973 O 0.39466 0.54564 0.90005 0.0
O974 O 0.3758 0.6093 0.86416 0.0
O975 O 0.41793 0.54943 0.85276 0.0
O976 O 0.39064 0.52503 0.83619 0.0
O977 O 0.38009 0.59351 0.90049 0.0
O978 O 0.3553 0.56011 0.84043 0.0
O979 O 0.35631 0.51808 0.82962 0.0
C980 C 0.34191 0.53321 0.88497 0.0
C981 C 0.42251 0.44129 0.83403 0.0
C982 C 0.4482 0.40497 0.8391 0.0
C983 C 0.45656 0.40799 0.81477 0.0
C984 C 0.43085 0.44359 0.80963 0.0
C985 C 0.44783 0.42707 0.80014 0.0
C986 C 0.43112 0.42179 0.84874 0.0
C987 C 0.40841 0.52578 0.89963 0.0
C988 C 0.40549 0.45976 0.84409 0.0
C989 C 0.29335 0.4378 0.87829 0.0
C990 C 0.30301 0.4375 0.90225 0.0
C991 C 0.41317 0.53137 0.83802 0.0
C992 C 0.35178 0.62632 0.89613 0.0
C993 C 0.3208 0.65743 0.88857 0.0
C994 C 0.31102 0.65296 0.9121 0.0
C995 C 0.34192 0.62238 0.91977 0.0
C996 C 0.34132 0.64424 0.88075 0.0
C997 C 0.32165 0.63565 0.92763 0.0
C998 C 0.34814 0.54094 0.8269 0.0
C999 C 0.37354 0.61274 0.88784 0.0
H1000 H 0.46947 0.39519 0.80686 0.0
H1001 H 0.42443 0.45833 0.79798 0.0
H1002 H 0.45422 0.42898 0.78133 0.0
H1003 H 0.42462 0.41971 0.86752 0.0
H1004 H 0.29544 0.66325 0.91866 0.0
H1005 H 0.34991 0.60915 0.93225 0.0
H1006 H 0.34902 0.64791 0.86268 0.0
H1007 H 0.31422 0.63259 0.94589 0.0
Eu1008 Eu 0.01205 0.12891 0.62373 0.0
C1009 C 0.91901 0.06503 0.63331 0.0
N1010 N 0.93013 0.07475 0.61318 0.0
C1011 C 0.92625 0.03672 0.5915 0.0
C1012 C 0.912 0.0402 0.63363 0.0
C1013 C 0.93295 0.06139 0.59212 0.0
C1014 C 0.91598 0.02598 0.61246 0.0
C1015 C 0.90247 0.07048 0.67448 0.0
C1016 C 0.91413 0.08014 0.6534 0.0
C1017 C 0.89615 0.04557 0.67517 0.0
C1018 C 0.90079 0.0305 0.65475 0.0
Eu1019 Eu 0.93911 0.11676 0.61471 0.0
N1020 N 0.92002 0.10434 0.65203 0.0
C1021 C 0.89699 0.08625 0.69407 0.0
C1022 C 0.91337 0.12001 0.67054 0.0
C1023 C 0.90224 0.11115 0.69197 0.0
H1024 H 0.93984 0.06991 0.57563 0.0
H1025 H 0.89736 0.12362 0.70671 0.0
H1026 H 0.02264 0.16273 0.67458 0.0
H1027 H 0.04606 0.14181 0.53027 0.0
H1028 H 0.91599 0.13946 0.66882 0.0
H1029 H 0.88812 0.07952 0.7106 0.0
H1030 H 0.0257 0.11988 0.56443 0.0
H1031 H 0.92871 0.02611 0.57479 0.0
H1032 H 0.88722 0.03787 0.69123 0.0
H1033 H 0.89534 0.01145 0.65537 0.0
H1034 H 0.03755 0.20399 0.68524 0.0
H1035 H 0.91066 0.00688 0.6119 0.0
H1036 H 0.06238 0.1835 0.53714 0.0
N1037 N 0.02708 0.16756 0.636 0.0
C1038 C 0.03736 0.18136 0.61794 0.0
C1039 C 0.03722 0.19806 0.66616 0.0
C1040 C 0.04742 0.20453 0.62327 0.0
C1041 C 0.02807 0.17497 0.66003 0.0
C1042 C 0.04663 0.21309 0.64763 0.0
N1043 N 0.02912 0.14944 0.5897 0.0
C1044 C 0.03221 0.13829 0.56735 0.0
C1045 C 0.05105 0.18485 0.57545 0.0
C1046 C 0.039 0.17176 0.59428 0.0
C1047 C 0.05323 0.17404 0.55208 0.0
C1048 C 0.04396 0.15056 0.54809 0.0
H1049 H 0.05408 0.23081 0.65246 0.0
H1050 H 0.06635 0.23591 0.60809 0.0
H1051 H 0.06971 0.21858 0.56628 0.0
O1052 O 0.03669 0.09854 0.6156 0.0
O1053 O 0.98997 0.149 0.59443 0.0
O1054 O 0.95224 0.1558 0.61085 0.0
O1055 O 0.04788 0.12682 0.64109 0.0
O1056 O 0.99933 0.09758 0.60013 0.0
O1057 O 0.96385 0.11047 0.58164 0.0
O1058 O 0.9 0.12311 0.6141 0.0
O1059 O 0.96463 0.08755 0.62911 0.0
O1060 O 0.992 0.10799 0.65346 0.0
O1061 O 0.91973 0.12005 0.57971 0.0
O1062 O 0.94899 0.1472 0.64196 0.0
O1063 O 0.98845 0.14032 0.65673 0.0
C1064 C 0.97183 0.16383 0.59951 0.0
C1065 C 0.06692 0.08796 0.64464 0.0
C1066 C 0.10067 0.05883 0.64724 0.0
C1067 C 0.09403 0.05405 0.67192 0.0
C1068 C 0.06048 0.08272 0.6691 0.0
C1069 C 0.07404 0.06581 0.68265 0.0
C1070 C 0.08678 0.07584 0.63372 0.0
C1071 C 0.98409 0.09759 0.5815 0.0
C1072 C 0.05378 0.10642 0.63017 0.0
C1073 C 0.05864 0.21804 0.60436 0.0
C1074 C 0.0606 0.20815 0.58056 0.0
C1075 C 0.97655 0.09002 0.64984 0.0
C1076 C 0.88486 0.14582 0.5802 0.0
C1077 C 0.85276 0.17624 0.58501 0.0
C1078 C 0.85783 0.18514 0.56125 0.0
C1079 C 0.8894 0.15469 0.55626 0.0
C1080 C 0.86614 0.15647 0.59432 0.0
C1081 C 0.87594 0.17426 0.5469 0.0
C1082 C 0.96667 0.15068 0.65826 0.0
C1083 C 0.89893 0.12505 0.59016 0.0
H1084 H 0.10455 0.04157 0.68318 0.0
H1085 H 0.04517 0.09184 0.67774 0.0
H1086 H 0.06921 0.06198 0.70164 0.0
H1087 H 0.09135 0.07976 0.61465 0.0
H1088 H 0.84752 0.20029 0.55369 0.0
H1089 H 0.90333 0.14652 0.54474 0.0
H1090 H 0.86211 0.14963 0.61267 0.0
H1091 H 0.87954 0.181 0.52847 0.0
Eu1092 Eu 0.37852 0.01395 0.62335 0.0
C1093 C 0.43806 0.91564 0.62739 0.0
N1094 N 0.42703 0.92741 0.60834 0.0
C1095 C 0.46161 0.92017 0.5824 0.0
C1096 C 0.46194 0.90652 0.62486 0.0
C1097 C 0.43789 0.92875 0.58575 0.0
C1098 C 0.47382 0.90926 0.60213 0.0
C1099 C 0.43607 0.8995 0.66909 0.0
C1100 C 0.42514 0.9121 0.64924 0.0
C1101 C 0.46009 0.89099 0.66685 0.0
C1102 C 0.47296 0.89444 0.64479 0.0
Eu1103 Eu 0.38657 0.93962 0.61489 0.0
N1104 N 0.40172 0.92022 0.65081 0.0
C1105 C 0.42239 0.89544 0.69049 0.0
C1106 C 0.38798 0.9152 0.67119 0.0
C1107 C 0.3982 0.90317 0.69146 0.0
H1108 H 0.42801 0.93577 0.57011 0.0
H1109 H 0.38727 0.89946 0.70766 0.0
H1110 H 0.34711 0.02847 0.675 0.0
H1111 H 0.36462 0.04388 0.52858 0.0
H1112 H 0.36894 0.91969 0.67173 0.0
H1113 H 0.43015 0.88588 0.70614 0.0
H1114 H 0.38622 0.02362 0.56298 0.0
H1115 H 0.47028 0.92156 0.5645 0.0
H1116 H 0.46875 0.88134 0.68194 0.0
H1117 H 0.49131 0.88735 0.6432 0.0
H1118 H 0.30822 0.0482 0.68602 0.0
H1119 H 0.49212 0.90238 0.59942 0.0
H1120 H 0.32484 0.06379 0.53609 0.0
N1121 N 0.34187 0.03253 0.63626 0.0
C1122 C 0.32838 0.04302 0.61811 0.0
C1123 C 0.31355 0.04666 0.66683 0.0
C1124 C 0.3064 0.05519 0.62367 0.0
C1125 C 0.33542 0.03518 0.66048 0.0
C1126 C 0.29881 0.05642 0.64832 0.0
N1127 N 0.35825 0.03073 0.58912 0.0
C1128 C 0.36864 0.0318 0.56623 0.0
C1129 C 0.32426 0.05468 0.57502 0.0
C1130 C 0.3371 0.04264 0.59401 0.0
C1131 C 0.33416 0.05475 0.55117 0.0
C1132 C 0.35656 0.04345 0.54682 0.0
H1133 H 0.28199 0.06552 0.65332 0.0
H1134 H 0.27612 0.07568 0.60855 0.0
H1135 H 0.29183 0.07536 0.56601 0.0
O1136 O 0.40823 0.0385 0.61287 0.0
O1137 O 0.35594 0.99227 0.59533 0.0
O1138 O 0.34849 0.95453 0.61211 0.0
O1139 O 0.38352 0.04926 0.64189 0.0
O1140 O 0.40943 0.99923 0.60075 0.0
O1141 O 0.39369 0.96483 0.58215 0.0
O1142 O 0.37838 0.90071 0.61597 0.0
O1143 O 0.41773 0.96253 0.62914 0.0
O1144 O 0.39899 0.9924 0.65235 0.0
O1145 O 0.37902 0.9195 0.58084 0.0
O1146 O 0.35814 0.95127 0.64382 0.0
O1147 O 0.36494 0.99194 0.65641 0.0
C1148 C 0.34085 0.97442 0.60096 0.0
C1149 C 0.42233 0.06851 0.64101 0.0
C1150 C 0.45009 0.1035 0.64169 0.0
C1151 C 0.46086 0.09401 0.66318 0.0
C1152 C 0.43292 0.05963 0.66275 0.0
C1153 C 0.45221 0.07232 0.67366 0.0
C1154 C 0.43082 0.09053 0.63066 0.0
C1155 C 0.40892 0.98342 0.58258 0.0
C1156 C 0.40233 0.05542 0.6287 0.0
C1157 C 0.29311 0.06639 0.60463 0.0
C1158 C 0.30208 0.06626 0.58041 0.0
C1159 C 0.41706 0.97717 0.64825 0.0
C1160 C 0.35257 0.88512 0.58474 0.0
C1161 C 0.32223 0.8537 0.59332 0.0
C1162 C 0.31207 0.85756 0.56986 0.0
C1163 C 0.34241 0.88844 0.56117 0.0
C1164 C 0.34256 0.86736 0.6006 0.0
C1165 C 0.32225 0.87473 0.55384 0.0
C1166 C 0.35431 0.97029 0.65866 0.0
C1167 C 0.37432 0.89905 0.59235 0.0
H1168 H 0.47554 0.10372 0.67224 0.0
H1169 H 0.42629 0.04297 0.67124 0.0
H1170 H 0.46036 0.06551 0.69044 0.0
H1171 H 0.42245 0.09754 0.61397 0.0
H1172 H 0.29657 0.8469 0.56375 0.0
H1173 H 0.35011 0.90153 0.54833 0.0
H1174 H 0.35048 0.86414 0.61864 0.0
H1175 H 0.31456 0.87732 0.53564 0.0
Eu1176 Eu 0.5757 0.38919 0.61702 0.0
C1177 C 0.46337 0.34617 0.64432 0.0
N1178 N 0.47439 0.35269 0.62274 0.0
C1179 C 0.45595 0.31871 0.60198 0.0
C1180 C 0.44929 0.3246 0.6457 0.0
C1181 C 0.46971 0.34023 0.60145 0.0
C1182 C 0.44614 0.31058 0.62429 0.0
C1183 C 0.45386 0.35497 0.68741 0.0
C1184 C 0.46532 0.36145 0.665 0.0
C1185 C 0.44055 0.33311 0.68889 0.0
C1186 C 0.43825 0.318 0.66812 0.0
Eu1187 Eu 0.49674 0.38929 0.62466 0.0
N1188 N 0.47866 0.38238 0.66339 0.0
C1189 C 0.4562 0.37062 0.70778 0.0
C1190 C 0.4807 0.39788 0.68305 0.0
C1191 C 0.4696 0.39221 0.70555 0.0
H1192 H 0.4763 0.34704 0.58395 0.0
H1193 H 0.47146 0.40443 0.72118 0.0
H1194 H 0.59179 0.44683 0.63903 0.0
H1195 H 0.58533 0.35188 0.52433 0.0
H1196 H 0.49113 0.41438 0.68152 0.0
H1197 H 0.44769 0.36624 0.72528 0.0
H1198 H 0.57611 0.35085 0.56914 0.0
H1199 H 0.45273 0.30854 0.58514 0.0
H1200 H 0.43176 0.3278 0.70599 0.0
H1201 H 0.42756 0.30139 0.66951 0.0
H1202 H 0.60563 0.48555 0.62233 0.0
H1203 H 0.43547 0.2939 0.62461 0.0
H1204 H 0.59943 0.39035 0.50497 0.0
N1205 N 0.58886 0.42878 0.60387 0.0
C1206 C 0.59494 0.43033 0.57948 0.0
C1207 C 0.60221 0.47034 0.60998 0.0
C1208 C 0.60356 0.45252 0.56929 0.0
C1209 C 0.59362 0.44813 0.6193 0.0
C1210 C 0.60683 0.47269 0.58483 0.0
N1211 N 0.58476 0.38831 0.57462 0.0
C1212 C 0.58229 0.36766 0.56071 0.0
C1213 C 0.59836 0.411 0.53911 0.0
C1214 C 0.59292 0.40962 0.56452 0.0
C1215 C 0.5955 0.38998 0.52458 0.0
C1216 C 0.58751 0.36821 0.53544 0.0
H1217 H 0.61352 0.48996 0.57771 0.0
H1218 H 0.61538 0.47085 0.53591 0.0
H1219 H 0.61047 0.43465 0.50944 0.0
O1220 O 0.60747 0.36431 0.61229 0.0
O1221 O 0.54941 0.4015 0.58606 0.0
O1222 O 0.51753 0.42014 0.60627 0.0
O1223 O 0.60838 0.39538 0.63792 0.0
O1224 O 0.55383 0.35383 0.61285 0.0
O1225 O 0.51571 0.36438 0.59669 0.0
O1226 O 0.46924 0.41748 0.63217 0.0
O1227 O 0.51602 0.37034 0.65671 0.0
O1228 O 0.55817 0.36578 0.64807 0.0
O1229 O 0.47229 0.40102 0.59561 0.0
O1230 O 0.53244 0.4044 0.63365 0.0
O1231 O 0.56671 0.41517 0.64784 0.0
C1232 C 0.53125 0.41731 0.58662 0.0
C1233 C 0.6453 0.37238 0.63538 0.0
C1234 C 0.67827 0.34422 0.64448 0.0
C1235 C 0.69198 0.3637 0.65413 0.0
C1236 C 0.65933 0.39173 0.64492 0.0
C1237 C 0.68259 0.38738 0.65413 0.0
C1238 C 0.65503 0.34866 0.63473 0.0
C1239 C 0.53261 0.34808 0.60262 0.0
C1240 C 0.61991 0.37692 0.62837 0.0
C1241 C 0.60897 0.45389 0.544 0.0
C1242 C 0.60626 0.43325 0.52894 0.0
C1243 C 0.53803 0.36119 0.66115 0.0
C1244 C 0.43306 0.41289 0.60843 0.0
C1245 C 0.39268 0.43094 0.60443 0.0
C1246 C 0.38288 0.4075 0.60072 0.0
C1247 C 0.42272 0.38959 0.60504 0.0
C1248 C 0.41784 0.43366 0.60846 0.0
C1249 C 0.39783 0.38696 0.60119 0.0
C1250 C 0.54375 0.41863 0.64896 0.0
C1251 C 0.45973 0.41555 0.61008 0.0
H1252 H 0.71004 0.36059 0.66149 0.0
H1253 H 0.65219 0.41021 0.64557 0.0
H1254 H 0.69324 0.40234 0.66153 0.0
H1255 H 0.64425 0.33358 0.62766 0.0
H1256 H 0.36356 0.40513 0.59754 0.0
H1257 H 0.4339 0.37341 0.60486 0.0
H1258 H 0.42554 0.45177 0.61094 0.0
H1259 H 0.39013 0.36894 0.59832 0.0
Eu1260 Eu 0.12181 0.49467 0.62213 0.0
C1261 C 0.06622 0.60512 0.61987 0.0
N1262 N 0.07767 0.59062 0.60295 0.0
C1263 C 0.04667 0.59934 0.57315 0.0
C1264 C 0.04385 0.61646 0.61424 0.0
C1265 C 0.06883 0.58853 0.57953 0.0
C1266 C 0.03398 0.61314 0.59065 0.0
C1267 C 0.06506 0.62297 0.66106 0.0
C1268 C 0.0769 0.60871 0.64296 0.0
C1269 C 0.04268 0.63407 0.6555 0.0
C1270 C 0.03216 0.63089 0.63216 0.0
Eu1271 Eu 0.11563 0.57469 0.61522 0.0
N1272 N 0.09834 0.59724 0.64809 0.0
C1273 C 0.07592 0.6254 0.68432 0.0
C1274 C 0.10917 0.59979 0.67061 0.0
C1275 C 0.09806 0.61378 0.68909 0.0
H1276 H 0.0792 0.57925 0.56548 0.0
H1277 H 0.10661 0.61565 0.70699 0.0
H1278 H 0.149 0.47332 0.67265 0.0
H1279 H 0.13369 0.46492 0.52679 0.0
H1280 H 0.12638 0.59113 0.67441 0.0
H1281 H 0.06735 0.63617 0.69872 0.0
H1282 H 0.11208 0.48391 0.56217 0.0
H1283 H 0.03959 0.59735 0.55461 0.0
H1284 H 0.03334 0.64514 0.66916 0.0
H1285 H 0.01494 0.63969 0.62815 0.0
H1286 H 0.18733 0.45212 0.68391 0.0
H1287 H 0.01686 0.62159 0.58559 0.0
H1288 H 0.17373 0.44512 0.53324 0.0
N1289 N 0.15623 0.47217 0.63427 0.0
C1290 C 0.16988 0.4623 0.61597 0.0
C1291 C 0.18288 0.45523 0.6647 0.0
C1292 C 0.19155 0.44958 0.62127 0.0
C1293 C 0.16148 0.46758 0.65837 0.0
C1294 C 0.19829 0.44665 0.64604 0.0
N1295 N 0.13971 0.47488 0.58797 0.0
C1296 C 0.12944 0.47507 0.56505 0.0
C1297 C 0.17426 0.45252 0.57254 0.0
C1298 C 0.16125 0.46353 0.59204 0.0
C1299 C 0.16429 0.45331 0.54876 0.0
C1300 C 0.14166 0.46443 0.54505 0.0
H1301 H 0.21479 0.43695 0.65094 0.0
H1302 H 0.22209 0.42991 0.60547 0.0
H1303 H 0.20701 0.43263 0.56272 0.0
O1304 O 0.09372 0.46692 0.61541 0.0
O1305 O 0.14216 0.5167 0.59338 0.0
O1306 O 0.15153 0.55422 0.6105 0.0
O1307 O 0.10336 0.47692 0.65276 0.0
O1308 O 0.09161 0.51011 0.59843 0.0
O1309 O 0.10568 0.5478 0.58368 0.0
O1310 O 0.13583 0.60854 0.62086 0.0
O1311 O 0.08572 0.56084 0.64004 0.0
O1312 O 0.10784 0.5305 0.63029 0.0
O1313 O 0.12404 0.5982 0.58353 0.0
O1314 O 0.14095 0.55952 0.64587 0.0
O1315 O 0.14129 0.51629 0.65292 0.0
C1316 C 0.15808 0.53345 0.59986 0.0
C1317 C 0.0877 0.43672 0.64663 0.0
C1318 C 0.06812 0.39682 0.64201 0.0
C1319 C 0.07925 0.389 0.66392 0.0
C1320 C 0.09877 0.42839 0.6685 0.0
C1321 C 0.09455 0.40468 0.677 0.0
C1322 C 0.07235 0.42071 0.63335 0.0
C1323 C 0.08969 0.52955 0.58399 0.0
C1324 C 0.09035 0.46254 0.63881 0.0
C1325 C 0.20519 0.43946 0.60182 0.0
C1326 C 0.19656 0.44094 0.57749 0.0
C1327 C 0.08933 0.53801 0.64288 0.0
C1328 C 0.14593 0.63674 0.58793 0.0
C1329 C 0.17188 0.67224 0.59422 0.0
C1330 C 0.16385 0.68191 0.57162 0.0
C1331 C 0.13834 0.6464 0.5652 0.0
C1332 C 0.16297 0.64959 0.60224 0.0
C1333 C 0.1473 0.66892 0.55712 0.0
C1334 C 0.14765 0.53939 0.65831 0.0
C1335 C 0.13483 0.61429 0.59758 0.0
H1336 H 0.07606 0.37069 0.6709 0.0
H1337 H 0.11043 0.44027 0.67928 0.0
H1338 H 0.103 0.3985 0.69393 0.0
H1339 H 0.06337 0.42694 0.61668 0.0
H1340 H 0.17059 0.6994 0.56511 0.0
H1341 H 0.12508 0.63683 0.55397 0.0
H1342 H 0.16892 0.64231 0.61985 0.0
H1343 H 0.14124 0.67642 0.53968 0.0
C1344 C 0.69747 0.49137 0.07951 0.0
C1345 C 0.6873 0.47698 0.09833 0.0
C1346 C 0.72212 0.49801 0.08035 0.0
C1347 C 0.77075 0.5049 0.12705 0.0
H1348 H 0.81314 0.51542 0.0708 0.0
C1349 C 0.86847 0.53483 0.14314 0.0
C1350 C 0.87589 0.55536 0.12956 0.0
C1351 C 0.84806 0.52142 0.13586 0.0
C1352 C 0.80148 0.51256 0.08666 0.0
H1353 H 0.69568 0.45543 0.13069 0.0
H1354 H 0.73829 0.4664 0.13208 0.0
H1355 H 0.77196 0.49937 0.06436 0.0
H1356 H 0.86898 0.57727 0.0971 0.0
H1357 H 0.83292 0.55401 0.08441 0.0
H1358 H 0.79981 0.51823 0.14936 0.0
C1359 C 0.72719 0.47377 0.11734 0.0
C1360 C 0.77787 0.50346 0.08297 0.0
C1361 C 0.7027 0.46734 0.11651 0.0
C1362 C 0.86363 0.56132 0.10767 0.0
C1363 C 0.84303 0.548 0.10045 0.0
C1364 C 0.79422 0.51378 0.13072 0.0
C1365 C 0.73704 0.49 0.09988 0.0
C1366 C 0.76225 0.49945 0.10319 0.0
C1367 C 0.83442 0.52854 0.11508 0.0
C1368 C 0.80994 0.51772 0.11063 0.0
H1369 H 0.68621 0.49807 0.06459 0.0
H1370 H 0.72915 0.51028 0.06637 0.0
H1371 H 0.75905 0.5028 0.14302 0.0
H1372 H 0.87771 0.52996 0.1601 0.0
H1373 H 0.84224 0.5062 0.14723 0.0
C1374 C 0.006 0.69623 0.08233 0.0
C1375 C 0.02603 0.68729 0.09561 0.0
C1376 C 0.99936 0.72098 0.08384 0.0
C1377 C 0.00809 0.77473 0.12511 0.0
H1378 H 0.97708 0.81068 0.07205 0.0
C1379 C 0.985 0.87643 0.13649 0.0
C1380 C 0.96094 0.88314 0.13075 0.0
C1381 C 0.99443 0.85388 0.12885 0.0
C1382 C 0.98567 0.80083 0.08704 0.0
H1383 H 0.05639 0.69798 0.11887 0.0
H1384 H 0.04557 0.74095 0.12068 0.0
H1385 H 0.99106 0.7687 0.06489 0.0
H1386 H 0.9285 0.87177 0.11102 0.0
H1387 H 0.94515 0.8325 0.09742 0.0
H1388 H 0.00283 0.80673 0.14722 0.0
C1389 C 0.03413 0.72875 0.11003 0.0
C1390 C 0.99361 0.77673 0.08299 0.0
C1391 C 0.04053 0.70405 0.10872 0.0
C1392 C 0.94713 0.86733 0.11573 0.0
C1393 C 0.95665 0.84476 0.10794 0.0
C1394 C 1.00041 0.79879 0.12905 0.0
C1395 C 0.01302 0.73747 0.09827 0.0
C1396 C 0.00491 0.76333 0.10202 0.0
C1397 C 0.98014 0.83746 0.11511 0.0
C1398 C 0.98906 0.81215 0.11012 0.0
H1399 H 0.99525 0.68403 0.07107 0.0
H1400 H 0.98308 0.72693 0.07436 0.0
H1401 H 0.01608 0.76491 0.14046 0.0
H1402 H 0.99643 0.88839 0.14745 0.0
H1403 H 0.0128 0.84905 0.13421 0.0
C1404 C 0.63804 0.94976 0.11999 0.0
C1405 C 0.6228 0.95378 0.0996 0.0
C1406 C 0.65818 0.96501 0.12407 0.0
C1407 C 0.70041 0.9976 0.08475 0.0
H1408 H 0.73234 0.01699 0.1454 0.0
C1409 C 0.79866 0.03466 0.08284 0.0
C1410 C 0.81377 0.02815 0.10253 0.0
C1411 C 0.77359 0.03013 0.08407 0.0
C1412 C 0.72382 0.01143 0.12827 0.0
H1413 H 0.61477 0.97819 0.06926 0.0
H1414 H 0.64956 0.00503 0.07657 0.0
H1415 H 0.69043 1.00207 0.14668 0.0
H1416 H 0.81453 0.01304 0.13934 0.0
H1417 H 0.77167 1.00327 0.14095 0.0
H1418 H 0.73381 0.00526 0.06636 0.0
C1419 C 0.64636 0.98994 0.08913 0.0
C1420 C 0.69971 1.00309 0.12905 0.0
C1421 C 0.62637 0.97471 0.08504 0.0
C1422 C 0.80344 0.0176 0.12364 0.0
C1423 C 0.77861 0.01247 0.12471 0.0
C1424 C 0.72453 0.00548 0.084 0.0
C1425 C 0.66329 0.98439 0.10774 0.0
C1426 C 0.68782 0.99587 0.10729 0.0
C1427 C 0.76322 0.01865 0.10494 0.0
C1428 C 0.73678 0.01222 0.10575 0.0
H1429 H 0.63568 0.93362 0.13137 0.0
H1430 H 0.67088 0.96028 0.13859 0.0
H1431 H 0.69197 0.9917 0.06768 0.0
H1432 H 0.80618 0.04351 0.06664 0.0
H1433 H 0.76238 0.03582 0.0687 0.0
C1434 C 0.462 0.80263 0.1114 0.0
C1435 C 0.47476 0.81883 0.09594 0.0
C1436 C 0.4678 0.77779 0.11199 0.0
C1437 C 0.50528 0.72839 0.0821 0.0
H1438 H 0.5032 0.70204 0.14854 0.0
C1439 C 0.55683 0.64085 0.11621 0.0
C1440 C 0.54434 0.62555 0.1329 0.0
C1441 C 0.54627 0.66272 0.10784 0.0
C1442 C 0.50363 0.70896 0.1298 0.0
H1443 H 0.50103 0.82092 0.06626 0.0
H1444 H 0.51243 0.77761 0.06826 0.0
H1445 H 0.48874 0.74317 0.14101 0.0
H1446 H 0.50998 0.62043 0.152 0.0
H1447 H 0.49196 0.65867 0.13792 0.0
H1448 H 0.52148 0.6941 0.07146 0.0
C1449 C 0.49796 0.78412 0.08013 0.0
C1450 C 0.49516 0.73263 0.12537 0.0
C1451 C 0.49171 0.80907 0.07919 0.0
C1452 C 0.52048 0.63203 0.13978 0.0
C1453 C 0.51006 0.65392 0.13161 0.0
C1454 C 0.51416 0.70469 0.08666 0.0
C1455 C 0.48676 0.76834 0.09734 0.0
C1456 C 0.49565 0.74273 0.10145 0.0
C1457 C 0.52307 0.66986 0.11611 0.0
C1458 C 0.51329 0.69469 0.11058 0.0
H1459 H 0.44817 0.80926 0.12397 0.0
H1460 H 0.45782 0.76616 0.1246 0.0
H1461 H 0.50584 0.73535 0.0634 0.0
H1462 H 0.57525 0.63661 0.11055 0.0
H1463 H 0.55678 0.67466 0.09596 0.0
C1464 C 0.87151 0.98804 0.34133 0.0
C1465 C 0.87977 0.96427 0.34675 0.0
C1466 C 0.85005 0.99707 0.35175 0.0
C1467 C 0.79241 0.97444 0.37939 0.0
H1468 H 0.77933 0.04399 0.3851 0.0
C1469 C 0.69692 0.01334 0.40363 0.0
C1470 C 0.68815 0.02939 0.38546 0.0
C1471 C 0.72149 0.00649 0.404 0.0
C1472 C 0.78277 0.0245 0.3837 0.0
H1473 H 0.87276 0.93209 0.36903 0.0
H1474 H 0.83579 0.94821 0.38809 0.0
H1475 H 0.82091 0.0299 0.37821 0.0
H1476 H 0.69872 0.05284 0.35506 0.0
H1477 H 0.74162 0.04156 0.35611 0.0
H1478 H 0.7542 0.96927 0.38518 0.0
C1479 C 0.84549 0.95961 0.37503 0.0
C1480 C 0.80658 0.01637 0.37957 0.0
C1481 C 0.86694 0.95045 0.36437 0.0
C1482 C 0.7048 0.0401 0.36902 0.0
C1483 C 0.72941 0.03368 0.36966 0.0
C1484 C 0.76869 0.98259 0.38401 0.0
C1485 C 0.8363 0.98275 0.36825 0.0
C1486 C 0.81167 0.99123 0.37654 0.0
C1487 C 0.73791 0.01635 0.38675 0.0
C1488 C 0.76351 0.00772 0.38548 0.0
H1489 H 0.8812 0.99943 0.32824 0.0
H1490 H 0.8437 0.01486 0.34579 0.0
H1491 H 0.79533 0.95499 0.37689 0.0
H1492 H 0.68469 0.00578 0.4173 0.0
H1493 H 0.72763 0.99339 0.41764 0.0
C1494 C 0.51727 0.8788 0.35411 0.0
C1495 C 0.54224 0.88386 0.3513 0.0
C1496 C 0.50942 0.85584 0.3625 0.0
C1497 C 0.52807 0.79211 0.36131 0.0
H1498 H 0.4768 0.78097 0.40934 0.0
C1499 C 0.4725 0.7041 0.36413 0.0
C1500 C 0.47506 0.68979 0.38541 0.0
C1501 C 0.48031 0.72834 0.36363 0.0
C1502 C 0.49129 0.78388 0.39611 0.0
H1503 H 0.57849 0.86874 0.35553 0.0
H1504 H 0.56476 0.8287 0.36992 0.0
H1505 H 0.49163 0.82289 0.40176 0.0
H1506 H 0.48696 0.68993 0.4235 0.0
H1507 H 0.49994 0.73331 0.42305 0.0
H1508 H 0.52675 0.75358 0.35453 0.0
C1509 C 0.55129 0.84257 0.36572 0.0
C1510 C 0.49965 0.80779 0.39164 0.0
C1511 C 0.55914 0.86556 0.35759 0.0
C1512 C 0.48466 0.70065 0.40685 0.0
C1513 C 0.49204 0.72535 0.40659 0.0
C1514 C 0.51937 0.76846 0.36537 0.0
C1515 C 0.52635 0.83735 0.368 0.0
C1516 C 0.51809 0.81212 0.37409 0.0
C1517 C 0.49043 0.73915 0.38471 0.0
C1518 C 0.50088 0.76408 0.38269 0.0
H1519 H 0.50378 0.89256 0.3497 0.0
H1520 H 0.49008 0.85228 0.36388 0.0
H1521 H 0.54203 0.79484 0.34745 0.0
H1522 H 0.46563 0.69621 0.34739 0.0
H1523 H 0.47895 0.73852 0.34652 0.0
C1524 C 0.62532 0.53152 0.40164 0.0
C1525 C 0.62004 0.55204 0.38701 0.0
C1526 C 0.64682 0.51837 0.39812 0.0
C1527 C 0.70144 0.51021 0.35791 0.0
H1528 H 0.73278 0.49845 0.42096 0.0
C1529 C 0.7969 0.46509 0.36683 0.0
C1530 C 0.813 0.47644 0.38346 0.0
C1531 C 0.77239 0.47194 0.36596 0.0
C1532 C 0.72439 0.50169 0.40317 0.0
H1533 H 0.6322 0.57373 0.35588 0.0
H1534 H 0.67021 0.55101 0.35 0.0
H1535 H 0.69151 0.51394 0.41999 0.0
H1536 H 0.81527 0.501 0.41463 0.0
H1537 H 0.77278 0.51372 0.4128 0.0
H1538 H 0.73501 0.49867 0.34122 0.0
C1539 C 0.6576 0.54496 0.36411 0.0
C1540 C 0.7005 0.51024 0.40258 0.0
C1541 C 0.63587 0.55803 0.36751 0.0
C1542 C 0.80363 0.49314 0.40064 0.0
C1543 C 0.77915 0.50002 0.39985 0.0
C1544 C 0.72549 0.50157 0.3585 0.0
C1545 C 0.66378 0.52559 0.38008 0.0
C1546 C 0.68871 0.5148 0.38 0.0
C1547 C 0.76329 0.48978 0.38224 0.0
C1548 C 0.73734 0.49755 0.38121 0.0
H1549 H 0.61318 0.52614 0.41644 0.0
H1550 H 0.65061 0.50309 0.41026 0.0
H1551 H 0.69288 0.5134 0.3402 0.0
H1552 H 0.80338 0.45148 0.35385 0.0
H1553 H 0.76058 0.46323 0.35258 0.0
C1554 C 0.03469 0.80151 0.37155 0.0
C1555 C 0.02019 0.81765 0.38544 0.0
C1556 C 0.02968 0.77655 0.37117 0.0
C1557 C 0.99296 0.72688 0.40027 0.0
H1558 H 0.99926 0.69853 0.33488 0.0
C1559 C 0.94629 0.63716 0.36638 0.0
C1560 C 0.95988 0.62178 0.35064 0.0
C1561 C 0.95596 0.65937 0.37477 0.0
C1562 C 0.99774 0.70602 0.35335 0.0
H1563 H 0.99117 0.81976 0.41233 0.0
H1564 H 0.98102 0.7762 0.41028 0.0
H1565 H 0.01132 0.7406 0.34166 0.0
H1566 H 0.99508 0.61699 0.33311 0.0
H1567 H 0.01162 0.65597 0.34721 0.0
H1568 H 0.97818 0.69217 0.41141 0.0
C1569 C 0.99631 0.78289 0.39964 0.0
C1570 C 0.00473 0.7302 0.35731 0.0
C1571 C 0.00171 0.80794 0.4004 0.0
C1572 C 0.98382 0.62862 0.3446 0.0
C1573 C 0.99338 0.65088 0.35282 0.0
C1574 C 0.98562 0.70262 0.39618 0.0
C1575 C 0.00981 0.76701 0.38438 0.0
C1576 C 0.00256 0.74098 0.38081 0.0
C1577 C 0.97932 0.66678 0.36743 0.0
C1578 C 0.98801 0.69197 0.37265 0.0
H1579 H 0.04954 0.80816 0.36027 0.0
H1580 H 0.04112 0.76481 0.35997 0.0
H1581 H 0.99121 0.73451 0.41865 0.0
H1582 H 0.92773 0.63267 0.37131 0.0
H1583 H 0.94465 0.67133 0.38588 0.0
C1584 C 0.13619 0.44741 0.87132 0.0
C1585 C 0.12434 0.45833 0.8512 0.0
C1586 C 0.15752 0.45782 0.88097 0.0
C1587 C 0.19709 0.51373 0.87904 0.0
H1588 H 0.24938 0.46688 0.8875 0.0
C1589 C 0.29874 0.53971 0.87173 0.0
C1590 C 0.31554 0.5279 0.88723 0.0
C1591 C 0.27424 0.53285 0.8717 0.0
C1592 C 0.23495 0.48022 0.88561 0.0
H1593 H 0.12433 0.4895 0.82656 0.0
H1594 H 0.16122 0.50775 0.84334 0.0
H1595 H 0.20809 0.45232 0.88066 0.0
H1596 H 0.31929 0.50154 0.91673 0.0
H1597 H 0.27654 0.48896 0.91634 0.0
H1598 H 0.22426 0.54161 0.88312 0.0
C1599 C 0.15429 0.4912 0.85181 0.0
C1600 C 0.21118 0.47187 0.88177 0.0
C1601 C 0.13315 0.48072 0.8421 0.0
C1602 C 0.30698 0.51015 0.90382 0.0
C1603 C 0.28247 0.5031 0.9037 0.0
C1604 C 0.22091 0.52207 0.88277 0.0
C1605 C 0.16729 0.47944 0.87077 0.0
C1606 C 0.19196 0.48849 0.87799 0.0
C1607 C 0.26587 0.5141 0.88733 0.0
C1608 C 0.24021 0.5054 0.88568 0.0
H1609 H 0.12983 0.43007 0.87858 0.0
H1610 H 0.16683 0.44847 0.89584 0.0
H1611 H 0.18273 0.52709 0.87659 0.0
H1612 H 0.30462 0.55375 0.85899 0.0
H1613 H 0.26204 0.54165 0.85876 0.0
C1614 C 1.00016 0.3126 0.86982 0.0
C1615 C 0.98049 0.32047 0.88402 0.0
C1616 C 0.006 0.28794 0.86775 0.0
C1617 C 0.99679 0.22697 0.89582 0.0
H1618 H 0.02189 0.20569 0.8323 0.0
C1619 C 0.01817 0.12697 0.85767 0.0
C1620 C 0.0432 0.12385 0.85309 0.0
C1621 C 0.00892 0.1499 0.86455 0.0
C1622 C 0.01492 0.21142 0.85012 0.0
H1623 H 0.9502 0.30844 0.90646 0.0
H1624 H 0.9601 0.26451 0.90283 0.0
H1625 H 0.00705 0.24744 0.83718 0.0
H1626 H 0.07819 0.1421 0.85278 0.0
H1627 H 0.06183 0.18239 0.86406 0.0
H1628 H 0.00435 0.1903 0.9083 0.0
C1629 C 0.97167 0.27779 0.89377 0.0
C1630 C 0.00653 0.23535 0.85302 0.0
C1631 C 0.96595 0.30285 0.89582 0.0
C1632 C 0.05887 0.14393 0.85631 0.0
C1633 C 0.04955 0.16692 0.86273 0.0
C1634 C 0.00491 0.20276 0.89276 0.0
C1635 C 0.99174 0.27007 0.87947 0.0
C1636 C 0.99794 0.24369 0.87607 0.0
C1637 C 0.02449 0.17014 0.86658 0.0
C1638 C 0.01448 0.19504 0.86999 0.0
H1639 H 0.01032 0.32551 0.85924 0.0
H1640 H 0.02166 0.28294 0.85669 0.0
H1641 H 0.99039 0.23278 0.91381 0.0
H1642 H 0.00572 0.11176 0.8555 0.0
H1643 H 0.98951 0.15206 0.86727 0.0
C1644 C 0.20142 0.9836 0.85849 0.0
C1645 C 0.18917 0.97983 0.88088 0.0
C1646 C 0.22586 0.99039 0.8581 0.0
C1647 C 0.2824 0.98769 0.89244 0.0
H1648 H 0.29978 0.0472 0.85772 0.0
C1649 C 0.37393 0.03601 0.90905 0.0
C1650 C 0.38339 0.05239 0.89145 0.0
C1651 C 0.35181 0.02407 0.90508 0.0
C1652 C 0.29558 0.03019 0.86702 0.0
H1653 H 0.19274 0.98034 0.92063 0.0
H1654 H 0.23613 0.99165 0.92013 0.0
H1655 H 0.25818 0.03236 0.85622 0.0
H1656 H 0.3775 0.06731 0.85475 0.0
H1657 H 0.33999 0.0452 0.84712 0.0
H1658 H 0.31989 0.98459 0.90227 0.0
C1659 C 0.22662 0.98928 0.90278 0.0
C1660 C 0.27153 0.02192 0.86643 0.0
C1661 C 0.20189 0.98291 0.9031 0.0
C1662 C 0.37095 0.05493 0.86887 0.0
C1663 C 0.34904 0.04252 0.86465 0.0
C1664 C 0.30664 0.99554 0.89246 0.0
C1665 C 0.23876 0.99321 0.88023 0.0
C1666 C 0.26458 1.00099 0.87968 0.0
C1667 C 0.33865 0.0276 0.88308 0.0
C1668 C 0.31352 0.01733 0.88034 0.0
H1669 H 0.19191 0.98234 0.84124 0.0
H1670 H 0.23467 0.99354 0.84048 0.0
H1671 H 0.27758 0.97115 0.90233 0.0
H1672 H 0.38327 0.03288 0.92636 0.0
H1673 H 0.34463 0.01293 0.91989 0.0
C1674 C 0.51623 0.20064 0.90653 0.0
C1675 C 0.52672 0.1903 0.88524 0.0
C1676 C 0.50865 0.22526 0.90654 0.0
C1677 C 0.48193 0.26916 0.86601 0.0
H1678 H 0.50765 0.32268 0.90516 0.0
C1679 C 0.43994 0.36557 0.86127 0.0
C1680 C 0.45666 0.38337 0.8534 0.0
C1681 C 0.44812 0.34286 0.87002 0.0
C1682 C 0.50014 0.30782 0.89433 0.0
H1683 H 0.53804 0.19778 0.84783 0.0
H1684 H 0.52396 0.23999 0.84738 0.0
H1685 H 0.52338 0.28083 0.91122 0.0
H1686 H 0.49494 0.39208 0.85 0.0
H1687 H 0.50924 0.35266 0.86605 0.0
H1688 H 0.45875 0.29578 0.84905 0.0
C1689 C 0.522 0.22936 0.86416 0.0
C1690 C 0.50907 0.28395 0.89785 0.0
C1691 C 0.53013 0.20516 0.86442 0.0
C1692 C 0.48169 0.37868 0.85604 0.0
C1693 C 0.48986 0.35617 0.86525 0.0
C1694 C 0.47259 0.29275 0.86295 0.0
C1695 C 0.51091 0.23959 0.88507 0.0
C1696 C 0.50023 0.26449 0.88343 0.0
C1697 C 0.47316 0.33771 0.87153 0.0
C1698 C 0.48178 0.31242 0.87681 0.0
H1699 H 0.51337 0.18954 0.92284 0.0
H1700 H 0.50004 0.23277 0.92288 0.0
H1701 H 0.47508 0.25455 0.85445 0.0
H1702 H 0.42058 0.36863 0.85921 0.0
H1703 H 0.43486 0.32897 0.87479 0.0
C1704 C 0.1286 0.02253 0.64247 0.0
C1705 C 0.12247 0.04673 0.63608 0.0
C1706 C 0.15033 0.01203 0.63424 0.0
C1707 C 0.20093 0.01673 0.58958 0.0
H1708 H 0.23907 0.99019 0.64343 0.0
C1709 C 0.30453 0.99547 0.58216 0.0
C1710 C 0.31423 0.97774 0.59806 0.0
C1711 C 0.2798 1.00165 0.58333 0.0
C1712 C 0.22858 0.99696 0.62796 0.0
H1713 H 0.13409 0.07828 0.61468 0.0
H1714 H 0.17178 0.05966 0.59997 0.0
H1715 H 0.1981 0.00458 0.65124 0.0
H1716 H 0.30481 0.9494 0.62447 0.0
H1717 H 0.26184 0.95903 0.62556 0.0
H1718 H 0.2315 0.00893 0.56622 0.0
C1719 C 0.15969 0.04893 0.61148 0.0
C1720 C 0.20505 0.00534 0.63252 0.0
C1721 C 0.13803 0.05957 0.61994 0.0
C1722 C 0.29817 0.9639 0.61262 0.0
C1723 C 0.27346 0.96966 0.61349 0.0
C1724 C 0.22449 0.00798 0.58489 0.0
C1725 C 0.1664 0.02532 0.61916 0.0
C1726 C 0.19096 0.01541 0.61346 0.0
C1727 C 0.26413 0.98943 0.59982 0.0
C1728 C 0.23867 0.99801 0.60407 0.0
H1729 H 0.1168 0.01177 0.65423 0.0
H1730 H 0.15483 0.99362 0.6401 0.0
H1731 H 0.19044 0.02437 0.57451 0.0
H1732 H 0.31617 0.00494 0.56924 0.0
H1733 H 0.2733 0.01664 0.57207 0.0
C1734 C 0.51468 0.31151 0.58088 0.0
C1735 C 0.52633 0.32178 0.60152 0.0
C1736 C 0.50671 0.28709 0.58144 0.0
C1737 C 0.48215 0.24307 0.62304 0.0
H1738 H 0.50643 0.19026 0.58184 0.0
C1739 C 0.44121 0.14588 0.62632 0.0
C1740 C 0.45826 0.12744 0.63161 0.0
C1741 C 0.44893 0.16924 0.61921 0.0
C1742 C 0.49941 0.2049 0.59333 0.0
H1743 H 0.54065 0.31403 0.6379 0.0
H1744 H 0.52564 0.27208 0.63942 0.0
H1745 H 0.5215 0.23226 0.57558 0.0
H1746 H 0.49669 0.11864 0.63242 0.0
H1747 H 0.51018 0.15945 0.6195 0.0
H1748 H 0.46012 0.21599 0.64085 0.0
C1749 C 0.52258 0.28284 0.62291 0.0
C1750 C 0.50792 0.22883 0.58967 0.0
C1751 C 0.53106 0.30689 0.62208 0.0
C1752 C 0.48316 0.13255 0.62861 0.0
C1753 C 0.49087 0.15582 0.62106 0.0
C1754 C 0.47329 0.21933 0.62635 0.0
C1755 C 0.51003 0.27286 0.60277 0.0
C1756 C 0.49962 0.24799 0.60479 0.0
C1757 C 0.47384 0.17453 0.61682 0.0
C1758 C 0.48207 0.19993 0.61178 0.0
H1759 H 0.51122 0.32252 0.56463 0.0
H1760 H 0.49713 0.27966 0.56565 0.0
H1761 H 0.47554 0.25762 0.63491 0.0
H1762 H 0.42192 0.14251 0.62861 0.0
H1763 H 0.43543 0.18333 0.61596 0.0
C1764 C 0.19936 0.5359 0.61881 0.0
C1765 C 0.18424 0.52725 0.59978 0.0
C1766 C 0.22383 0.52923 0.61975 0.0
C1767 C 0.27595 0.51394 0.58361 0.0
H1768 H 0.29817 0.47468 0.63878 0.0
C1769 C 0.36426 0.45785 0.58154 0.0
C1770 C 0.37593 0.452 0.60377 0.0
C1771 C 0.34341 0.47245 0.58157 0.0
C1772 C 0.29253 0.48616 0.62355 0.0
H1773 H 0.1832 0.5062 0.56593 0.0
H1774 H 0.22655 0.49505 0.56714 0.0
H1775 H 0.256 0.48851 0.63737 0.0
H1776 H 0.37628 0.45796 0.64323 0.0
H1777 H 0.34007 0.48411 0.6434 0.0
H1778 H 0.3124 0.512 0.56983 0.0
C1779 C 0.21908 0.50646 0.58166 0.0
C1780 C 0.26829 0.49382 0.62266 0.0
C1781 C 0.19436 0.51265 0.58107 0.0
C1782 C 0.36764 0.4625 0.62585 0.0
C1783 C 0.34672 0.47714 0.62592 0.0
C1784 C 0.30032 0.50664 0.58467 0.0
C1785 C 0.23389 0.51452 0.60118 0.0
C1786 C 0.25974 0.50736 0.60247 0.0
C1787 C 0.33372 0.48135 0.60391 0.0
C1788 C 0.30883 0.49221 0.60441 0.0
H1789 H 0.19228 0.54759 0.63321 0.0
H1790 H 0.23498 0.53576 0.63488 0.0
H1791 H 0.26974 0.52472 0.56806 0.0
H1792 H 0.37028 0.44968 0.56434 0.0
H1793 H 0.33393 0.4751 0.56427 0.0
C1794 C 0.061 0.36481 0.6099 0.0
C1795 C 0.05185 0.37967 0.62891 0.0
C1796 C 0.04766 0.34458 0.60156 0.0
C1797 C 0.00422 0.30096 0.62727 0.0
H1798 H 0.0028 0.27354 0.56124 0.0
C1799 C 0.96219 0.20675 0.61189 0.0
C1800 C 0.97489 0.19058 0.5964 0.0
C1801 C 0.96763 0.23169 0.61199 0.0
C1802 C 0.0032 0.28085 0.57983 0.0
H1803 H 0.02121 0.38627 0.65307 0.0
H1804 H 0.99757 0.35129 0.6382 0.0
H1805 H 0.01929 0.31465 0.56783 0.0
H1806 H 1.00028 0.18841 0.566 0.0
H1807 H 0.01127 0.23176 0.5672 0.0
H1808 H 0.98943 0.26712 0.63968 0.0
C1809 C 0.01515 0.35494 0.62993 0.0
C1810 C 0.01254 0.30447 0.58356 0.0
C1811 C 0.02852 0.37507 0.6383 0.0
C1812 C 0.99137 0.20027 0.57921 0.0
C1813 C 0.99723 0.22524 0.57957 0.0
C1814 C 0.99518 0.27739 0.62362 0.0
C1815 C 0.025 0.33885 0.61223 0.0
C1816 C 0.01325 0.31474 0.60739 0.0
C1817 C 0.98606 0.24113 0.59667 0.0
C1818 C 0.99458 0.2669 0.59988 0.0
H1819 H 0.07911 0.36793 0.60265 0.0
H1820 H 0.05585 0.3325 0.58803 0.0
H1821 H 0.00504 0.30799 0.64596 0.0
H1822 H 0.94863 0.20006 0.62466 0.0
H1823 H 0.95778 0.24344 0.62464 0.0
C1824 C 0.02232 0.69473 0.1681 0.0
C1825 C 0.03965 0.67589 0.17012 0.0
C1826 C 0.02345 0.71524 0.18334 0.0
C1827 C 0.04667 0.73564 0.2432 0.0
H1828 H 0.03466 0.80066 0.21706 0.0
C1829 C 0.0556 0.82099 0.30423 0.0
C1830 C 0.03663 0.83816 0.3027 0.0
C1831 C 0.05768 0.80235 0.28675 0.0
C1832 C 0.03787 0.7826 0.22465 0.0
H1833 H 0.07183 0.66407 0.18985 0.0
H1834 H 0.07391 0.69993 0.21648 0.0
H1835 H 0.03513 0.7655 0.18917 0.0
H1836 H 0.00639 0.85065 0.28033 0.0
H1837 H 0.00955 0.8176 0.25014 0.0
H1838 H 0.049 0.75258 0.27871 0.0
C1839 C 0.05938 0.69867 0.20304 0.0
C1840 C 0.03816 0.7625 0.2087 0.0
C1841 C 0.05834 0.67817 0.18758 0.0
C1842 C 0.02066 0.83717 0.28249 0.0
C1843 C 0.02272 0.81846 0.26499 0.0
C1844 C 0.04633 0.75571 0.25915 0.0
C1845 C 0.04189 0.71737 0.2011 0.0
C1846 C 0.04249 0.73881 0.21784 0.0
C1847 C 0.04093 0.80053 0.26727 0.0
C1848 C 0.04189 0.77941 0.25007 0.0
H1849 H 0.00794 0.69377 0.15448 0.0
H1850 H 0.00961 0.72924 0.18148 0.0
H1851 H 0.04963 0.71756 0.25083 0.0
H1852 H 0.0684 0.82139 0.31942 0.0
H1853 H 0.07225 0.78913 0.28871 0.0
C1854 C 0.66944 0.0269 0.28481 0.0
C1855 C 0.66698 0.04359 0.30441 0.0
C1856 C 0.6888 0.02888 0.26806 0.0
C1857 C 0.75034 0.05724 0.26305 0.0
H1858 H 0.7468 0.03327 0.19571 0.0
C1859 C 0.81975 0.06344 0.17811 0.0
C1860 C 0.83377 0.04177 0.17787 0.0
C1861 C 0.79943 0.06567 0.19354 0.0
C1862 C 0.74792 0.04007 0.21448 0.0
H1863 H 0.68147 0.07726 0.31988 0.0
H1864 H 0.71432 0.08133 0.29025 0.0
H1865 H 0.70993 0.03448 0.22107 0.0
H1866 H 0.83818 0.00643 0.19548 0.0
H1867 H 0.80208 0.01003 0.22166 0.0
H1868 H 0.78841 0.06296 0.25606 0.0
C1869 C 0.70219 0.06581 0.28855 0.0
C1870 C 0.72689 0.04062 0.22911 0.0
C1871 C 0.68309 0.06358 0.30548 0.0
C1872 C 0.82749 0.02295 0.19442 0.0
C1873 C 0.80696 0.02509 0.20962 0.0
C1874 C 0.77129 0.0568 0.24835 0.0
C1875 C 0.70583 0.04805 0.27006 0.0
C1876 C 0.72783 0.04894 0.25375 0.0
C1877 C 0.79261 0.04631 0.20899 0.0
C1878 C 0.77027 0.04796 0.22409 0.0
H1879 H 0.65663 0.01208 0.28249 0.0
H1880 H 0.69077 0.01486 0.25406 0.0
H1881 H 0.75202 0.06342 0.28197 0.0
H1882 H 0.82395 0.07848 0.16582 0.0
H1883 H 0.78869 0.0823 0.19299 0.0
C1884 C 0.4405 0.8236 0.17603 0.0
C1885 C 0.46141 0.83841 0.17654 0.0
C1886 C 0.43868 0.80298 0.19148 0.0
C1887 C 0.47838 0.76131 0.22915 0.0
H1888 H 0.41691 0.73699 0.25403 0.0
C1889 C 0.47371 0.67044 0.28384 0.0
C1890 C 0.45814 0.66962 0.3044 0.0
C1891 C 0.4727 0.68997 0.26706 0.0
C1892 C 0.43431 0.74359 0.24746 0.0
H1893 H 0.49559 0.8445 0.19508 0.0
H1894 H 0.49226 0.80957 0.22251 0.0
H1895 H 0.41769 0.774 0.22905 0.0
H1896 H 0.42752 0.68781 0.32191 0.0
H1897 H 0.42601 0.72185 0.29324 0.0
H1898 H 0.49515 0.73164 0.24843 0.0
C1899 C 0.47771 0.81284 0.20946 0.0
C1900 C 0.43472 0.76475 0.23276 0.0
C1901 C 0.47964 0.83308 0.19381 0.0
C1902 C 0.44019 0.68792 0.30659 0.0
C1903 C 0.43924 0.70753 0.28996 0.0
C1904 C 0.478 0.74035 0.24403 0.0
C1905 C 0.45757 0.79696 0.20809 0.0
C1906 C 0.4568 0.77408 0.22349 0.0
C1907 C 0.45582 0.70918 0.2702 0.0
C1908 C 0.45598 0.73114 0.25351 0.0
H1909 H 0.42618 0.82718 0.16277 0.0
H1910 H 0.4229 0.79127 0.18967 0.0
H1911 H 0.49575 0.76741 0.22202 0.0
H1912 H 0.48676 0.65603 0.28069 0.0
H1913 H 0.48524 0.68999 0.25163 0.0
C1914 C 0.68099 0.44538 0.17813 0.0
C1915 C 0.66415 0.46476 0.17949 0.0
C1916 C 0.70016 0.44368 0.19493 0.0
C1917 C 0.72237 0.465 0.25575 0.0
H1918 H 0.78606 0.45337 0.22712 0.0
C1919 C 0.81021 0.48204 0.31071 0.0
C1920 C 0.83006 0.4662 0.30749 0.0
C1921 C 0.78974 0.48044 0.29563 0.0
C1922 C 0.76841 0.45626 0.23552 0.0
H1923 H 0.65226 0.4953 0.20208 0.0
H1924 H 0.68615 0.49278 0.23111 0.0
H1925 H 0.75014 0.45274 0.20081 0.0
H1926 H 0.84393 0.43613 0.28555 0.0
H1927 H 0.80787 0.4327 0.25945 0.0
H1928 H 0.74058 0.46853 0.29046 0.0
C1929 C 0.68488 0.47928 0.21651 0.0
C1930 C 0.74778 0.45593 0.22041 0.0
C1931 C 0.66566 0.48099 0.1996 0.0
C1932 C 0.82893 0.44846 0.28876 0.0
C1933 C 0.80831 0.44674 0.27357 0.0
C1934 C 0.74299 0.46521 0.27089 0.0
C1935 C 0.70277 0.46101 0.21391 0.0
C1936 C 0.72452 0.46047 0.2303 0.0
C1937 C 0.7884 0.46269 0.27689 0.0
C1938 C 0.76633 0.4611 0.26094 0.0
H1939 H 0.67995 0.43188 0.16351 0.0
H1940 H 0.71317 0.42892 0.19285 0.0
H1941 H 0.70471 0.46822 0.26403 0.0
H1942 H 0.81005 0.49514 0.32565 0.0
H1943 H 0.77498 0.49321 0.29871 0.0
C1944 C 0.94351 0.18607 0.67632 0.0
C1945 C 0.96244 0.16885 0.67824 0.0
C1946 C 0.94146 0.20527 0.6933 0.0
C1947 C 0.96439 0.22707 0.75459 0.0
H1948 H 0.94596 0.29083 0.72916 0.0
C1949 C 0.9853 0.31731 0.80489 0.0
C1950 C 0.96532 0.33264 0.80985 0.0
C1951 C 0.98305 0.29737 0.78897 0.0
C1952 C 0.95092 0.27307 0.7365 0.0
H1953 H 0.99202 0.15654 0.70154 0.0
H1954 H 0.98962 0.19068 0.73013 0.0
H1955 H 0.94551 0.25527 0.70175 0.0
H1956 H 0.92715 0.33885 0.80168 0.0
H1957 H 0.92357 0.30443 0.77285 0.0
H1958 H 0.97099 0.24533 0.78899 0.0
C1959 C 0.97631 0.1896 0.71546 0.0
C1960 C 0.95054 0.25262 0.72089 0.0
C1961 C 0.97808 0.17022 0.69868 0.0
C1962 C 0.94302 0.32769 0.7981 0.0
C1963 C 0.94092 0.30798 0.78162 0.0
C1964 C 0.9652 0.24757 0.77 0.0
C1965 C 0.95827 0.20772 0.71274 0.0
C1966 C 0.95744 0.22932 0.72967 0.0
C1967 C 0.96086 0.29249 0.77723 0.0
C1968 C 0.95862 0.27075 0.76107 0.0
H1969 H 0.93054 0.18515 0.66132 0.0
H1970 H 0.9268 0.2183 0.69101 0.0
H1971 H 0.96929 0.20946 0.76228 0.0
H1972 H 0.00262 0.32019 0.81384 0.0
H1973 H 0.9987 0.2857 0.78585 0.0
C1974 C 0.31219 0.9819 0.67009 0.0
C1975 C 0.33344 0.96888 0.67579 0.0
C1976 C 0.29195 0.98101 0.68562 0.0
C1977 C 0.26166 0.94367 0.73268 0.0
H1978 H 0.22846 1.00421 0.74907 0.0
C1979 C 0.18438 0.94789 0.8053 0.0
C1980 C 0.16609 0.96579 0.80296 0.0
C1981 C 0.2041 0.94726 0.78901 0.0
C1982 C 0.23716 0.98704 0.74436 0.0
H1983 H 0.35022 0.94441 0.70216 0.0
H1984 H 0.31444 0.94234 0.72938 0.0
H1985 H 0.26464 0.00523 0.72311 0.0
H1986 H 0.15295 0.99533 0.77991 0.0
H1987 H 0.18697 0.99381 0.75094 0.0
H1988 H 0.23396 0.92534 0.75339 0.0
C1989 C 0.31355 0.95337 0.71279 0.0
C1990 C 0.25806 0.98767 0.72959 0.0
C1991 C 0.33399 0.95449 0.69724 0.0
C1992 C 0.16709 0.98183 0.78273 0.0
C1993 C 0.18671 0.981 0.76618 0.0
C1994 C 0.24056 0.94298 0.74722 0.0
C1995 C 0.29234 0.96678 0.7072 0.0
C1996 C 0.27056 0.96601 0.72357 0.0
C1997 C 0.20587 0.96414 0.76948 0.0
C1998 C 0.22798 0.96467 0.7533 0.0
H1999 H 0.31108 0.99258 0.65333 0.0
H2000 H 0.2758 0.99118 0.68049 0.0
H2001 H 0.2707 0.92663 0.72811 0.0
H2002 H 0.18432 0.93522 0.82068 0.0
H2003 H 0.21847 0.93415 0.79246 0.0
C2004 C 0.56373 0.18755 0.80578 0.0
C2005 C 0.54414 0.17094 0.80463 0.0
C2006 C 0.56507 0.20755 0.78964 0.0
C2007 C 0.53663 0.23416 0.73221 0.0
H2008 H 0.56386 0.29462 0.75767 0.0
C2009 C 0.51913 0.32757 0.68622 0.0
C2010 C 0.53968 0.34185 0.68051 0.0
C2011 C 0.52097 0.3071 0.70156 0.0
C2012 C 0.55635 0.27782 0.75027 0.0
H2013 H 0.51275 0.16079 0.78312 0.0
H2014 H 0.51351 0.1964 0.75655 0.0
H2015 H 0.56468 0.2578 0.78307 0.0
H2016 H 0.57835 0.34589 0.68718 0.0
H2017 H 0.58144 0.31032 0.71472 0.0
H2018 H 0.52729 0.25475 0.69988 0.0
C2019 C 0.52801 0.19423 0.76987 0.0
C2020 C 0.55695 0.25653 0.76475 0.0
C2021 C 0.52707 0.17394 0.78565 0.0
C2022 C 0.56209 0.33547 0.69131 0.0
C2023 C 0.56387 0.31511 0.70706 0.0
C2024 C 0.5356 0.25554 0.718 0.0
C2025 C 0.54679 0.21171 0.77189 0.0
C2026 C 0.547 0.23431 0.75602 0.0
C2027 C 0.5434 0.30041 0.71191 0.0
C2028 C 0.54534 0.27763 0.72689 0.0
H2029 H 0.57774 0.1856 0.81969 0.0
H2030 H 0.58039 0.21987 0.79135 0.0
H2031 H 0.52932 0.2175 0.72434 0.0
H2032 H 0.50177 0.33131 0.6778 0.0
H2033 H 0.50484 0.29623 0.70503 0.0
C2034 C 0.174 0.5232 0.69269 0.0
C2035 C 0.16588 0.54304 0.67834 0.0
C2036 C 0.19379 0.52575 0.70863 0.0
C2037 C 0.22683 0.56146 0.74967 0.0
H2038 H 0.28708 0.53378 0.72487 0.0
C2039 C 0.31485 0.5661 0.80764 0.0
C2040 C 0.32978 0.54522 0.80728 0.0
C2041 C 0.2959 0.56868 0.79057 0.0
C2042 C 0.27041 0.54136 0.73231 0.0
H2043 H 0.17134 0.58189 0.67133 0.0
H2044 H 0.20527 0.5864 0.70008 0.0
H2045 H 0.25041 0.53207 0.69958 0.0
H2046 H 0.3383 0.5123 0.78668 0.0
H2047 H 0.30446 0.51555 0.75851 0.0
H2048 H 0.2461 0.5696 0.78292 0.0
C2049 C 0.19653 0.56872 0.69824 0.0
C2050 C 0.2495 0.54052 0.71768 0.0
C2051 C 0.17701 0.56606 0.68188 0.0
C2052 C 0.32633 0.52786 0.78848 0.0
C2053 C 0.30718 0.53014 0.77176 0.0
C2054 C 0.24762 0.5619 0.76456 0.0
C2055 C 0.20542 0.54841 0.71118 0.0
C2056 C 0.22758 0.55041 0.72634 0.0
C2057 C 0.29135 0.55036 0.77281 0.0
C2058 C 0.26969 0.55163 0.7562 0.0
H2059 H 0.16546 0.50555 0.69136 0.0
H2060 H 0.20026 0.50992 0.71874 0.0
H2061 H 0.20998 0.56912 0.75665 0.0
H2062 H 0.31735 0.58016 0.82152 0.0
H2063 H 0.28464 0.58491 0.79155 0.0
C2064 C 0.18355 0.68785 0.12021 0.0
C2065 C 0.1678 0.69737 0.10218 0.0
C2066 C 0.20212 0.70246 0.12986 0.0
C2067 C 0.24089 0.74907 0.10564 0.0
H2068 H 0.26523 0.75852 0.17208 0.0
C2069 C 0.31427 0.81939 0.12909 0.0
C2070 C 0.3299 0.81482 0.14904 0.0
C2071 C 0.29599 0.80277 0.12322 0.0
C2072 C 0.25892 0.75559 0.15337 0.0
H2073 H 0.15676 0.73005 0.08256 0.0
H2074 H 0.18919 0.75558 0.09946 0.0
H2075 H 0.22758 0.73555 0.16563 0.0
H2076 H 0.3403 0.78864 0.17708 0.0
H2077 H 0.30854 0.75914 0.16649 0.0
H2078 H 0.27222 0.76852 0.09314 0.0
C2079 C 0.18754 0.7368 0.1057 0.0
C2080 C 0.23728 0.7427 0.14978 0.0
C2081 C 0.16906 0.72227 0.09608 0.0
C2082 C 0.32804 0.79269 0.16197 0.0
C2083 C 0.30988 0.77592 0.15594 0.0
C2084 C 0.26262 0.76162 0.10916 0.0
C2085 C 0.205 0.7266 0.12151 0.0
C2086 C 0.2279 0.73982 0.12592 0.0
C2087 C 0.29316 0.78118 0.13706 0.0
C2088 C 0.27165 0.76543 0.13309 0.0
H2089 H 0.18282 0.66867 0.12523 0.0
H2090 H 0.21538 0.6943 0.14216 0.0
H2091 H 0.23427 0.74646 0.08698 0.0
H2092 H 0.31535 0.8364 0.11886 0.0
H2093 H 0.28331 0.80751 0.10869 0.0
C2094 C 0.78519 0.16825 0.115 0.0
C2095 C 0.80922 0.17563 0.11074 0.0
C2096 C 0.76847 0.18458 0.12542 0.0
C2097 C 0.76179 0.24786 0.15186 0.0
H2098 H 0.70511 0.24923 0.10934 0.0
C2099 C 0.71687 0.33426 0.11428 0.0
C2100 C 0.69182 0.33435 0.10935 0.0
C2101 C 0.72781 0.31388 0.12513 0.0
C2102 C 0.72043 0.24887 0.12192 0.0
H2103 H 0.83537 0.20481 0.1154 0.0
H2104 H 0.80632 0.23352 0.13331 0.0
H2105 H 0.7313 0.21362 0.1092 0.0
H2106 H 0.65815 0.3142 0.11361 0.0
H2107 H 0.67739 0.27819 0.13225 0.0
H2108 H 0.75166 0.28421 0.16295 0.0
C2109 C 0.8002 0.21514 0.1291 0.0
C2110 C 0.73552 0.22835 0.12189 0.0
C2111 C 0.81688 0.19878 0.11873 0.0
C2112 C 0.67753 0.31451 0.11719 0.0
C2113 C 0.68853 0.29393 0.12778 0.0
C2114 C 0.74675 0.26855 0.15172 0.0
C2115 C 0.77552 0.20864 0.13147 0.0
C2116 C 0.75692 0.22794 0.13612 0.0
C2117 C 0.71391 0.29308 0.13097 0.0
C2118 C 0.72643 0.26957 0.13603 0.0
H2119 H 0.77897 0.15045 0.10879 0.0
H2120 H 0.74972 0.17882 0.12739 0.0
H2121 H 0.77788 0.24798 0.16339 0.0
H2122 H 0.72819 0.34949 0.10859 0.0
H2123 H 0.74741 0.31373 0.12718 0.0
C2124 C 0.31574 0.70022 0.31388 0.0
C2125 C 0.32527 0.68511 0.33255 0.0
C2126 C 0.30041 0.71972 0.31978 0.0
C2127 C 0.2809 0.76059 0.36979 0.0
H2128 H 0.2193 0.76176 0.33492 0.0
C2129 C 0.20254 0.8221 0.40251 0.0
C2130 C 0.18824 0.8335 0.38446 0.0
C2131 C 0.21915 0.8039 0.39589 0.0
C2132 C 0.23652 0.76197 0.34461 0.0
H2133 H 0.32706 0.67956 0.37222 0.0
H2134 H 0.3009 0.7141 0.38248 0.0
H2135 H 0.25021 0.73184 0.32341 0.0
H2136 H 0.17956 0.83482 0.34552 0.0
H2137 H 0.20934 0.80374 0.33363 0.0
H2138 H 0.26758 0.79089 0.39073 0.0
C2139 C 0.3052 0.71064 0.36326 0.0
C2140 C 0.25421 0.7448 0.33801 0.0
C2141 C 0.32029 0.69092 0.35736 0.0
C2142 C 0.19048 0.82621 0.35972 0.0
C2143 C 0.2074 0.80831 0.353 0.0
C2144 C 0.26336 0.77794 0.37621 0.0
C2145 C 0.2946 0.72479 0.34449 0.0
C2146 C 0.27648 0.74386 0.35066 0.0
C2147 C 0.22212 0.79707 0.37099 0.0
C2148 C 0.24085 0.77873 0.36385 0.0
H2149 H 0.3197 0.69664 0.29461 0.0
H2150 H 0.29281 0.73065 0.30499 0.0
H2151 H 0.29803 0.76037 0.37967 0.0
H2152 H 0.20075 0.82719 0.42177 0.0
H2153 H 0.22964 0.79519 0.41033 0.0
C2154 C 0.8174 0.30943 0.36342 0.0
C2155 C 0.80992 0.33252 0.37179 0.0
C2156 C 0.80055 0.29328 0.35307 0.0
C2157 C 0.73584 0.28047 0.36099 0.0
H2158 H 0.75129 0.22461 0.31961 0.0
C2159 C 0.67715 0.19483 0.36567 0.0
C2160 C 0.69129 0.17495 0.37366 0.0
C2161 C 0.68831 0.21529 0.35504 0.0
C2162 C 0.74657 0.24028 0.33092 0.0
H2163 H 0.77982 0.35785 0.37436 0.0
H2164 H 0.75028 0.32989 0.35571 0.0
H2165 H 0.77771 0.26069 0.31896 0.0
H2166 H 0.72757 0.15962 0.37474 0.0
H2167 H 0.74709 0.19517 0.35597 0.0
H2168 H 0.7054 0.25977 0.37378 0.0
C2169 C 0.76901 0.32399 0.35743 0.0
C2170 C 0.76173 0.26088 0.33066 0.0
C2171 C 0.78589 0.34009 0.36789 0.0
C2172 C 0.71638 0.17488 0.36889 0.0
C2173 C 0.72747 0.19512 0.35794 0.0
C2174 C 0.72061 0.26006 0.36105 0.0
C2175 C 0.77587 0.29994 0.35106 0.0
C2176 C 0.75711 0.28079 0.34653 0.0
C2177 C 0.71371 0.21596 0.35193 0.0
C2178 C 0.72637 0.23937 0.34681 0.0
H2179 H 0.8359 0.30328 0.36647 0.0
H2180 H 0.80654 0.27492 0.34859 0.0
H2181 H 0.73181 0.29517 0.37379 0.0
H2182 H 0.65775 0.19526 0.36918 0.0
H2183 H 0.67729 0.23109 0.35047 0.0
C2184 C 0.6864 0.18866 0.85484 0.0
C2185 C 0.67188 0.1915 0.83376 0.0
C2186 C 0.70386 0.20618 0.86071 0.0
C2187 C 0.7419 0.25151 0.82919 0.0
H2188 H 0.7641 0.26434 0.89585 0.0
C2189 C 0.81899 0.31803 0.86204 0.0
C2190 C 0.83382 0.3083 0.88076 0.0
C2191 C 0.79991 0.3041 0.85238 0.0
C2192 C 0.75811 0.26076 0.87713 0.0
H2193 H 0.6624 0.21572 0.80363 0.0
H2194 H 0.69267 0.24679 0.8142 0.0
H2195 H 0.72588 0.24278 0.88951 0.0
H2196 H 0.8427 0.27575 0.90167 0.0
H2197 H 0.80934 0.25143 0.88485 0.0
H2198 H 0.77428 0.26993 0.81703 0.0
C2199 C 0.6911 0.23067 0.82573 0.0
C2200 C 0.73625 0.24849 0.8735 0.0
C2201 C 0.67376 0.21301 0.81974 0.0
C2202 C 0.83112 0.28372 0.88764 0.0
C2203 C 0.81213 0.26988 0.87804 0.0
C2204 C 0.76371 0.26412 0.83286 0.0
C2205 C 0.70696 0.22696 0.8457 0.0
C2206 C 0.72819 0.24317 0.84951 0.0
C2207 C 0.79561 0.28044 0.86144 0.0
C2208 C 0.77222 0.26821 0.85688 0.0
H2209 H 0.68538 0.17214 0.86586 0.0
H2210 H 0.71591 0.20262 0.87611 0.0
H2211 H 0.73633 0.24743 0.81046 0.0
H2212 H 0.82083 0.33697 0.8564 0.0
H2213 H 0.7874 0.31249 0.83947 0.0
C2214 C 0.28488 0.67659 0.86824 0.0
C2215 C 0.30998 0.67665 0.87287 0.0
C2216 C 0.27374 0.69689 0.85747 0.0
C2217 C 0.28076 0.76179 0.86092 0.0
H2218 H 0.22324 0.76277 0.81954 0.0
C2219 C 0.21587 0.84206 0.86875 0.0
C2220 C 0.19185 0.8346 0.87295 0.0
C2221 C 0.23257 0.8259 0.85807 0.0
C2222 C 0.23934 0.76286 0.83104 0.0
H2223 H 0.34352 0.69692 0.86821 0.0
H2224 H 0.32391 0.73284 0.84979 0.0
H2225 H 0.2496 0.72663 0.81967 0.0
H2226 H 0.1657 0.80548 0.86793 0.0
H2227 H 0.19476 0.77701 0.84962 0.0
H2228 H 0.26976 0.79686 0.87397 0.0
C2229 C 0.3129 0.71703 0.85437 0.0
C2230 C 0.25446 0.74223 0.83101 0.0
C2231 C 0.3241 0.69653 0.86485 0.0
C2232 C 0.18419 0.81156 0.86465 0.0
C2233 C 0.20087 0.79534 0.85406 0.0
C2234 C 0.26559 0.78224 0.86115 0.0
C2235 C 0.28749 0.71774 0.85147 0.0
C2236 C 0.27483 0.74119 0.84663 0.0
C2237 C 0.22554 0.8019 0.85175 0.0
C2238 C 0.24418 0.78268 0.84694 0.0
H2239 H 0.27371 0.66131 0.8741 0.0
H2240 H 0.25412 0.69697 0.85564 0.0
H2241 H 0.29609 0.76139 0.87347 0.0
H2242 H 0.22208 0.85978 0.87518 0.0
H2243 H 0.25131 0.83171 0.85613 0.0
C2244 C 0.81367 0.17376 0.60853 0.0
C2245 C 0.83343 0.18767 0.59996 0.0
C2246 C 0.79413 0.18525 0.62036 0.0
C2247 C 0.77505 0.24229 0.65107 0.0
H2248 H 0.71386 0.23349 0.61654 0.0
C2249 C 0.69744 0.30943 0.66676 0.0
C2250 C 0.68858 0.31938 0.64466 0.0
C2251 C 0.71064 0.28764 0.66649 0.0
C2252 C 0.73073 0.23595 0.62656 0.0
H2253 H 0.84927 0.2239 0.59827 0.0
H2254 H 0.81536 0.24397 0.61925 0.0
H2255 H 0.7478 0.20582 0.60807 0.0
H2256 H 0.6851 0.31404 0.60523 0.0
H2257 H 0.70881 0.27624 0.6045 0.0
H2258 H 0.75871 0.27332 0.66836 0.0
C2259 C 0.81482 0.22429 0.61676 0.0
C2260 C 0.75005 0.21999 0.6219 0.0
C2261 C 0.83408 0.21291 0.60458 0.0
C2262 C 0.69173 0.30654 0.62248 0.0
C2263 C 0.70517 0.28486 0.62214 0.0
C2264 C 0.75574 0.25815 0.65582 0.0
C2265 C 0.79441 0.21068 0.6242 0.0
C2266 C 0.77265 0.22368 0.63338 0.0
C2267 C 0.71544 0.27563 0.64405 0.0
C2268 C 0.7337 0.25574 0.64287 0.0
H2269 H 0.8129 0.15422 0.60514 0.0
H2270 H 0.77858 0.17441 0.62598 0.0
H2271 H 0.79228 0.24537 0.66027 0.0
H2272 H 0.69488 0.31899 0.68411 0.0
H2273 H 0.71799 0.28075 0.68368 0.0
C2274 C 0.28699 0.83472 0.61494 0.0
C2275 C 0.31196 0.83475 0.60968 0.0
C2276 C 0.27643 0.81482 0.62694 0.0
C2277 C 0.2836 0.75019 0.62556 0.0
H2278 H 0.22555 0.75198 0.66625 0.0
C2279 C 0.21215 0.67557 0.61529 0.0
C2280 C 0.18954 0.68593 0.60934 0.0
C2281 C 0.23011 0.68981 0.62661 0.0
C2282 C 0.2419 0.75106 0.6551 0.0
H2283 H 0.34589 0.81513 0.61431 0.0
H2284 H 0.32721 0.77976 0.63479 0.0
H2285 H 0.25366 0.78669 0.66666 0.0
H2286 H 0.16697 0.71823 0.6123 0.0
H2287 H 0.19816 0.74319 0.63194 0.0
H2288 H 0.27094 0.71572 0.61223 0.0
C2289 C 0.31591 0.79525 0.62985 0.0
C2290 C 0.25799 0.77085 0.65542 0.0
C2291 C 0.32655 0.8154 0.61815 0.0
C2292 C 0.18444 0.71004 0.61647 0.0
C2293 C 0.20223 0.72417 0.62802 0.0
C2294 C 0.26747 0.73049 0.62512 0.0
C2295 C 0.29061 0.79443 0.63355 0.0
C2296 C 0.27825 0.77114 0.6396 0.0
C2297 C 0.22557 0.71451 0.63236 0.0
C2298 C 0.24575 0.73136 0.63881 0.0
H2299 H 0.27548 0.84961 0.60876 0.0
H2300 H 0.25685 0.81461 0.62928 0.0
H2301 H 0.29896 0.74996 0.613 0.0
H2302 H 0.21636 0.6569 0.61001 0.0
H2303 H 0.24786 0.68183 0.62987 0.0
C2304 C 0.97962 0.4254 0.94435 0.0
C2305 C 0.97758 0.432 0.91949 0.0
C2306 C 0.98343 0.44347 0.96218 0.0
C2307 C 0.97934 0.50949 0.97436 0.0
H2308 H 0.03553 0.49838 0.01622 0.0
C2309 C 0.02126 0.5851 0.03538 0.0
C2310 C 0.02315 0.57817 0.06018 0.0
C2311 C 0.01651 0.56738 0.01739 0.0
C2312 C 0.01977 0.50163 0.00467 0.0
H2313 H 0.97644 0.46193 0.89338 0.0
H2314 H 0.9824 0.4937 0.92461 0.0
H2315 H 0.02239 0.4664 0.98761 0.0
H2316 H 0.02295 0.54785 0.08593 0.0
H2317 H 0.01547 0.51679 0.05446 0.0
H2318 H 0.97678 0.54477 -0.00854 0.0
C2319 C 0.9813 0.47475 0.93043 0.0
C2320 C 0.01215 0.48333 0.98851 0.0
C2321 C 0.97802 0.45669 0.91262 0.0
C2322 C 0.0214 0.55343 0.06678 0.0
C2323 C 0.01728 0.53574 0.04884 0.0
C2324 C 0.98698 0.52781 0.99052 0.0
C2325 C 0.98479 0.46823 0.95523 0.0
C2326 C 0.99185 0.48711 0.97328 0.0
C2327 C 0.01422 0.54261 0.0241 0.0
C2328 C 0.00723 0.52398 0.00581 0.0
H2329 H 0.97952 0.4063 0.94978 0.0
H2330 H 0.98594 0.43809 0.98125 0.0
H2331 H 0.96357 0.51272 0.96283 0.0
H2332 H 0.02241 0.6042 0.03012 0.0
H2333 H 0.0143 0.57299 -0.00166 0.0
C2334 C 0.079 0.97727 0.94428 0.0
C2335 C 0.07595 0.98552 0.91995 0.0
C2336 C 0.0608 0.98151 0.96196 0.0
C2337 C 0.00801 0.02234 0.97371 0.0
H2338 H 0.99135 0.97445 0.02366 0.0
C2339 C 0.92476 0.03248 0.03929 0.0
C2340 C 0.92827 0.025 0.0638 0.0
C2341 C 0.94294 0.02831 0.02158 0.0
C2342 C 0.99596 0.98813 0.00996 0.0
H2343 H 0.05101 1.00334 0.89464 0.0
H2344 H 0.01934 0.01016 0.92507 0.0
H2345 H 0.02278 0.96491 -0.00666 0.0
H2346 H 0.95385 0.00854 0.08937 0.0
H2347 H 0.98543 1.00163 0.05876 0.0
H2348 H 0.98112 0.04552 0.9903 0.0
C2349 C 0.03596 1.00123 0.93088 0.0
C2350 C 0.01401 0.98265 -0.00739 0.0
C2351 C 0.05412 0.99722 0.9134 0.0
C2352 C 0.95047 0.01412 0.07048 0.0
C2353 C 0.96855 0.01006 0.05293 0.0
C2354 C 0.98993 0.02779 0.99103 0.0
C2355 C 0.03922 0.99389 0.9555 0.0
C2356 C 0.02025 0.99968 0.97425 0.0
C2357 C 0.96486 0.01663 0.02817 0.0
C2358 C 0.98374 0.01078 0.0094 0.0
H2359 H 0.09566 0.96819 0.94976 0.0
H2360 H 0.06393 0.9757 0.9808 0.0
H2361 H 0.01264 0.03608 0.96009 0.0
H2362 H 0.90777 0.04083 0.03369 0.0
H2363 H 0.93953 0.03352 0.00261 0.0
C2364 C 0.50136 0.0831 0.93557 0.0
C2365 C 0.5186 0.07824 0.91703 0.0
C2366 C 0.49544 0.06518 0.95318 0.0
C2367 C 0.50167 0.99787 0.96594 0.0
H2368 H 0.48891 0.01754 0.03347 0.0
C2369 C 0.5002 0.92849 0.04722 0.0
C2370 C 0.48274 0.9321 0.06576 0.0
C2371 C 0.50344 0.94604 0.02858 0.0
C2372 C 0.49215 0.01169 0.01464 0.0
H2373 H 0.54284 0.05039 0.90243 0.0
H2374 H 0.5339 0.02012 0.93367 0.0
H2375 H 0.49621 0.04863 0.00218 0.0
H2376 H 0.45541 0.95687 0.07986 0.0
H2377 H 0.46024 0.98706 0.047 0.0
H2378 H 0.49804 0.96087 0.97859 0.0
C2379 C 0.52426 0.03739 0.93438 0.0
C2380 C 0.49629 0.0296 -0.0034 0.0
C2381 C 0.52977 0.05506 0.9166 0.0
C2382 C 0.46866 0.9535 0.06549 0.0
C2383 C 0.47171 0.97094 0.04682 0.0
C2384 C 0.49768 0.97996 0.98402 0.0
C2385 C 0.50692 0.04206 0.95291 0.0
C2386 C 0.50131 0.02298 0.97199 0.0
C2387 C 0.48923 0.96755 0.02814 0.0
C2388 C 0.49299 0.98661 0.00866 0.0
H2389 H 0.49258 0.1008 0.93663 0.0
H2390 H 0.48176 0.06945 0.96692 0.0
H2391 H 0.50492 0.99194 0.94714 0.0
H2392 H 0.51137 0.91214 0.04718 0.0
H2393 H 0.51735 0.94294 0.01475 0.0
C2394 C 0.57578 0.47372 0.03986 0.0
C2395 C 0.57588 0.48756 0.06175 0.0
C2396 C 0.55805 0.47794 0.0218 0.0
C2397 C 0.51444 0.52474 0.00023 0.0
H2398 H 0.47996 0.46966 0.97173 0.0
C2399 C 0.42733 0.53561 0.94089 0.0
C2400 C 0.42705 0.5219 0.91893 0.0
C2401 C 0.4455 0.53164 0.95856 0.0
C2402 C 0.48956 0.48521 0.97942 0.0
H2403 H 0.55768 0.51711 0.08146 0.0
H2404 H 0.5273 0.52442 0.05014 0.0
H2405 H 0.51298 0.46229 0.00093 0.0
H2406 H 0.44558 0.49305 0.8985 0.0
H2407 H 0.47668 0.48605 0.92926 0.0
H2408 H 0.49094 0.54766 0.97878 0.0
C2409 C 0.54084 0.51037 0.04683 0.0
C2410 C 0.50852 0.48098 -0.00398 0.0
C2411 C 0.5583 0.50605 0.06486 0.0
C2412 C 0.44505 0.50392 0.91523 0.0
C2413 C 0.46293 0.49981 0.9329 0.0
C2414 C 0.49546 0.52897 0.98366 0.0
C2415 C 0.54039 0.49632 0.02518 0.0
C2416 C 0.52112 0.5007 0.00661 0.0
C2417 C 0.46341 0.51362 0.95471 0.0
C2418 C 0.48286 0.50924 0.97308 0.0
H2419 H 0.58924 0.45955 0.03678 0.0
H2420 H 0.55823 0.46698 0.00512 0.0
H2421 H 0.52402 0.5403 0.00792 0.0
H2422 H 0.41354 0.54933 0.94445 0.0
H2423 H 0.44536 0.54241 0.97536 0.0
C2424 C 0.00691 0.06207 0.5644 0.0
C2425 C 0.98859 0.0798 0.56149 0.0
C2426 C 0.01045 0.04404 0.54664 0.0
C2427 C 0.97879 0.01138 0.49722 0.0
H2428 H 0.04396 0.99072 0.47895 0.0
C2429 C 0.99984 0.94941 0.41439 0.0
C2430 C 0.01614 0.92987 0.41801 0.0
C2431 C 0.99607 0.96672 0.43281 0.0
C2432 C 0.0257 0.99613 0.48417 0.0
H2433 H 0.96022 0.09308 0.53713 0.0
H2434 H 0.96655 0.0614 0.50578 0.0
H2435 H 0.03856 0.0246 0.5079 0.0
H2436 H 0.04043 0.91261 0.44432 0.0
H2437 H 0.03458 0.94382 0.47637 0.0
H2438 H 0.966 0.98314 0.47305 0.0
C2439 C 0.97787 0.06136 0.52213 0.0
C2440 C 0.02258 0.01552 0.50063 0.0
C2441 C 0.97434 0.07954 0.53997 0.0
C2442 C 0.02828 0.92781 0.44073 0.0
C2443 C 0.02483 0.94551 0.45909 0.0
C2444 C 0.98193 0.99209 0.48063 0.0
C2445 C 0.99584 0.04332 0.52545 0.0
C2446 C 0.9991 0.02334 0.50731 0.0
C2447 C 0.00869 0.96509 0.45519 0.0
C2448 C 0.0054 0.98436 0.47395 0.0
H2449 H 0.01825 0.06164 0.58074 0.0
H2450 H 0.02423 0.03023 0.54987 0.0
H2451 H 0.9605 0.01671 0.50239 0.0
H2452 H 0.99012 0.9516 0.39714 0.0
H2453 H 0.9837 0.98177 0.4293 0.0
C2454 C 0.42429 0.97877 0.5392 0.0
C2455 C 0.4282 0.98556 0.56385 0.0
C2456 C 0.44249 0.9827 0.52153 0.0
C2457 C 0.49689 0.02098 0.51091 0.0
H2458 H 0.51093 0.97411 0.45908 0.0
C2459 C 0.57931 0.03032 0.44463 0.0
C2460 C 0.57543 0.02331 0.42004 0.0
C2461 C 0.56122 0.02623 0.46239 0.0
C2462 C 0.50704 0.98752 0.47329 0.0
H2463 H 0.45446 1.00029 0.58981 0.0
H2464 H 0.48619 0.00664 0.55925 0.0
H2465 H 0.47951 0.96491 0.48945 0.0
H2466 H 0.54929 0.00801 0.39428 0.0
H2467 H 0.51774 1.00147 0.42496 0.0
H2468 H 0.52438 0.04362 0.49473 0.0
C2469 C 0.46895 0.99909 0.55327 0.0
C2470 C 0.48903 0.98222 0.49067 0.0
C2471 C 0.45079 0.99539 0.57077 0.0
C2472 C 0.55296 0.01309 0.41327 0.0
C2473 C 0.5349 0.00926 0.43085 0.0
C2474 C 0.51488 0.02629 0.49351 0.0
C2475 C 0.46487 0.99328 0.52838 0.0
C2476 C 0.48379 0.99888 0.50969 0.0
C2477 C 0.53897 0.0153 0.4557 0.0
C2478 C 0.52012 0.00964 0.47447 0.0
H2479 H 0.40699 0.97115 0.5335 0.0
H2480 H 0.43879 0.97812 0.50244 0.0
H2481 H 0.493 0.03438 0.52513 0.0
H2482 H 0.5965 0.03825 0.45022 0.0
H2483 H 0.56492 0.031 0.48144 0.0
C2484 C 0.53912 0.4579 0.56742 0.0
C2485 C 0.52826 0.43474 0.56617 0.0
C2486 C 0.53485 0.47528 0.54895 0.0
C2487 C 0.51057 0.48238 0.48503 0.0
H2488 H 0.50395 0.55046 0.50433 0.0
C2489 C 0.47359 0.55554 0.41805 0.0
C2490 C 0.48422 0.57898 0.41822 0.0
C2491 C 0.47948 0.53823 0.43605 0.0
C2492 C 0.50603 0.53159 0.49855 0.0
H2493 H 0.5039 0.41153 0.54539 0.0
H2494 H 0.49573 0.44204 0.51333 0.0
H2495 H 0.51317 0.51965 0.53547 0.0
H2496 H 0.50971 0.60239 0.43751 0.0
H2497 H 0.52065 0.57184 0.46865 0.0
H2498 H 0.50317 0.49429 0.44815 0.0
C2499 C 0.50828 0.44666 0.52801 0.0
C2500 C 0.51136 0.51386 0.51644 0.0
C2501 C 0.51286 0.42918 0.54636 0.0
C2502 C 0.5012 0.58454 0.43679 0.0
C2503 C 0.50727 0.56708 0.45478 0.0
C2504 C 0.50517 0.50009 0.46717 0.0
C2505 C 0.51914 0.47003 0.5291 0.0
C2506 C 0.5137 0.48898 0.50995 0.0
C2507 C 0.49646 0.54368 0.45464 0.0
C2508 C 0.50277 0.52493 0.47368 0.0
H2509 H 0.55066 0.46268 0.58288 0.0
H2510 H 0.54382 0.49287 0.55032 0.0
H2511 H 0.5126 0.46352 0.47919 0.0
H2512 H 0.46079 0.55035 0.40383 0.0
H2513 H 0.47052 0.52058 0.43546 0.0
C2514 C 0.0747 0.53475 0.54044 0.0
C2515 C 0.07054 0.52786 0.56504 0.0
C2516 C 0.05707 0.53001 0.52236 0.0
C2517 C 0.00508 0.48871 0.51041 0.0
H2518 H 0.98911 0.53482 0.4586 0.0
C2519 C 0.9232 0.47566 0.4439 0.0
C2520 C 0.92667 0.48298 0.41934 0.0
C2521 C 0.94121 0.48034 0.46162 0.0
C2522 C 0.99357 0.5216 0.47278 0.0
H2523 H 0.04456 0.51171 0.59034 0.0
H2524 H 0.0138 0.50383 0.55906 0.0
H2525 H 0.01965 0.54567 0.48934 0.0
H2526 H 0.95213 0.49958 0.39367 0.0
H2527 H 0.98345 0.50728 0.42425 0.0
H2528 H 0.97902 0.46462 0.49386 0.0
C2529 C 0.03073 0.51234 0.55349 0.0
C2530 C 0.01107 0.52786 0.4904 0.0
C2531 C 0.04827 0.517 0.57142 0.0
C2532 C 0.94873 0.49415 0.4126 0.0
C2533 C 0.96668 0.49866 0.43015 0.0
C2534 C 0.98759 0.48244 0.49279 0.0
C2535 C 0.03509 0.51827 0.52866 0.0
C2536 C 0.01693 0.51154 0.5095 0.0
C2537 C 0.96298 0.49231 0.45497 0.0
C2538 C 0.98159 0.49882 0.47378 0.0
H2539 H 0.09185 0.54293 0.53506 0.0
H2540 H 0.061 0.53472 0.50335 0.0
H2541 H 0.0095 0.47552 0.52465 0.0
H2542 H 0.90633 0.46705 0.44953 0.0
H2543 H 0.93777 0.4753 0.48064 0.0
C2544 C 0.95252 0.49409 0.32517 0.0
C2545 C 0.93365 0.47914 0.31663 0.0
C2546 C 0.97166 0.50017 0.30948 0.0
C2547 C 1.00055 0.48837 0.24873 0.0
H2548 H 0.00212 0.55924 0.24592 0.0
C2549 C 0.02369 0.54509 0.162 0.0
C2550 C 0.03172 0.56913 0.16574 0.0
C2551 C 0.01971 0.52982 0.18232 0.0
C2552 C 0.00268 0.53944 0.24674 0.0
H2553 H 0.92024 0.45732 0.28625 0.0
H2554 H 0.95388 0.46795 0.25851 0.0
H2555 H 0.98091 0.53938 0.27921 0.0
H2556 H 0.04457 0.59549 0.19253 0.0
H2557 H 0.03964 0.56836 0.22772 0.0
H2558 H 0.02198 0.48868 0.21557 0.0
C2559 C 0.95405 0.47486 0.27726 0.0
C2560 C 0.99034 0.52804 0.26588 0.0
C2561 C 0.93475 0.46898 0.29294 0.0
C2562 C 0.03816 0.57699 0.18942 0.0
C2563 C 0.03513 0.56152 0.20951 0.0
C2564 C 0.01329 0.49986 0.22956 0.0
C2565 C 0.97215 0.49129 0.2851 0.0
C2566 C 0.98869 0.50247 0.26683 0.0
C2567 C 0.02431 0.5384 0.20641 0.0
C2568 C 0.01408 0.52556 0.22815 0.0
H2569 H 0.95182 0.50199 0.34352 0.0
H2570 H 0.98545 0.5128 0.31597 0.0
H2571 H 0.99951 0.46857 0.24912 0.0
H2572 H 0.01873 0.53883 0.14369 0.0
H2573 H 0.01134 0.51213 0.17926 0.0
C2574 C 0.01739 0.95475 0.3245 0.0
C2575 C 0.01788 0.92925 0.32176 0.0
C2576 C 0.00829 0.9694 0.30552 0.0
C2577 C 0.97125 0.96608 0.24918 0.0
H2578 H 0.00852 0.02247 0.22737 0.0
C2579 C 0.95048 0.00472 0.15771 0.0
C2580 C 0.93778 0.02663 0.16113 0.0
C2581 C 0.96672 0.99682 0.17568 0.0
C2582 C 0.99811 0.00674 0.23342 0.0
H2583 H 0.01074 0.89896 0.29702 0.0
H2584 H 0.99484 0.92419 0.26407 0.0
H2585 H 0.02086 1.00031 0.26491 0.0
H2586 H 0.9334 0.05875 0.18402 0.0
H2587 H 0.96196 0.04496 0.21565 0.0
H2588 H 0.94836 0.97266 0.21817 0.0
C2589 C 1.00051 0.93299 0.28106 0.0
C2590 C 0.00491 0.99428 0.25488 0.0
C2591 C 0.00937 0.91847 0.30002 0.0
C2592 C 0.94335 0.04195 0.18107 0.0
C2593 C 0.95968 0.03411 0.19905 0.0
C2594 C 0.9645 0.9785 0.22801 0.0
C2595 C 1.00003 0.95857 0.28353 0.0
C2596 C 0.99171 0.97357 0.26262 0.0
C2597 C 0.97014 0.01079 0.19716 0.0
C2598 C 0.97822 0.99842 0.21963 0.0
H2599 H 0.02456 0.9633 0.34102 0.0
H2600 H 0.00804 0.9891 0.30785 0.0
H2601 H 0.9606 0.95043 0.25488 0.0
H2602 H 0.94642 0.99287 0.1422 0.0
H2603 H 0.97469 0.97874 0.17401 0.0
C2604 C 0.57105 0.03355 0.29139 0.0
C2605 C 0.56688 0.03193 0.31682 0.0
C2606 C 0.55188 0.03041 0.27489 0.0
C2607 C 0.4988 0.99343 0.27001 0.0
H2608 H 0.49153 0.02646 0.20707 0.0
C2609 C 0.45419 0.94432 0.18909 0.0
C2610 C 0.47041 0.94341 0.16915 0.0
C2611 C 0.45746 0.96178 0.20765 0.0
C2612 C 0.49309 0.01723 0.2247 0.0
H2613 H 0.53977 0.02705 0.34541 0.0
H2614 H 0.50615 0.02036 0.31636 0.0
H2615 H 0.51419 0.0463 0.24039 0.0
H2616 H 0.50114 0.96075 0.15132 0.0
H2617 H 0.50689 0.99125 0.18349 0.0
H2618 H 0.47961 0.96349 0.25381 0.0
C2619 C 0.52409 0.02455 0.30922 0.0
C2620 C 0.50599 0.02857 0.2437 0.0
C2621 C 0.54321 0.02833 0.32574 0.0
C2622 C 0.48861 0.96116 0.1668 0.0
C2623 C 0.49169 0.97874 0.18507 0.0
C2624 C 0.48605 0.98203 0.25098 0.0
C2625 C 0.52841 0.02502 0.28365 0.0
C2626 C 0.5098 0.0163 0.26612 0.0
C2627 C 0.47675 0.97865 0.20615 0.0
C2628 C 0.48403 0.99337 0.2278 0.0
H2629 H 0.58925 0.03658 0.2843 0.0
H2630 H 0.55574 0.03062 0.25527 0.0
H2631 H 0.50177 0.98344 0.28702 0.0
H2632 H 0.44003 0.93066 0.19105 0.0
H2633 H 0.44567 0.9614 0.22367 0.0
C2634 C 0.48206 0.54422 0.32119 0.0
C2635 C 0.4667 0.56416 0.31635 0.0
C2636 C 0.48625 0.52671 0.30303 0.0
C2637 C 0.51148 0.52598 0.25363 0.0
H2638 H 0.47842 0.48348 0.20704 0.0
C2639 C 0.55405 0.50816 0.16167 0.0
C2640 C 0.56145 0.4838 0.15931 0.0
C2641 C 0.53587 0.51443 0.17839 0.0
C2642 C 0.48768 0.49535 0.22001 0.0
H2643 H 0.44095 0.57971 0.29041 0.0
H2644 H 0.44897 0.5493 0.2582 0.0
H2645 H 0.45698 0.49741 0.24472 0.0
H2646 H 0.55421 0.44654 0.17047 0.0
H2647 H 0.52232 0.45736 0.19996 0.0
H2648 H 0.54172 0.52493 0.22903 0.0
C2649 C 0.45748 0.54713 0.2761 0.0
C2650 C 0.47557 0.50314 0.24142 0.0
C2651 C 0.45315 0.56464 0.29439 0.0
C2652 C 0.54883 0.4654 0.17202 0.0
C2653 C 0.53053 0.4716 0.1888 0.0
C2654 C 0.52326 0.51869 0.23225 0.0
C2655 C 0.47524 0.52906 0.27982 0.0
C2656 C 0.48755 0.51845 0.25831 0.0
C2657 C 0.52482 0.49628 0.19289 0.0
C2658 C 0.51144 0.50355 0.21519 0.0
H2659 H 0.49219 0.54311 0.33831 0.0
H2660 H 0.5 0.51284 0.30619 0.0
H2661 H 0.52086 0.53816 0.26626 0.0
H2662 H 0.56302 0.52236 0.15121 0.0
H2663 H 0.53149 0.53359 0.18113 0.0
C2664 C 0.05108 0.52016 0.65856 0.0
C2665 C 0.07614 0.5239 0.66111 0.0
C2666 C 0.03786 0.50993 0.67798 0.0
C2667 C 0.04559 0.47265 0.73306 0.0
H2668 H 0.98512 0.50213 0.75543 0.0
C2669 C 0.98361 0.42309 0.79805 0.0
C2670 C 0.97926 0.43477 0.82069 0.0
C2671 C 0.99295 0.43615 0.77838 0.0
C2672 C 0.0021 0.494 0.74939 0.0
H2673 H 0.10695 0.52182 0.68588 0.0
H2674 H 0.08415 0.50344 0.71954 0.0
H2675 H 0.00695 0.51989 0.72006 0.0
H2676 H 0.97901 0.4693 0.84031 0.0
H2677 H 0.99583 0.49267 0.80518 0.0
H2678 H 0.04089 0.44682 0.76219 0.0
C2679 C 0.07477 0.50765 0.70248 0.0
C2680 C 0.01435 0.50386 0.72912 0.0
C2681 C 0.08785 0.51792 0.68319 0.0
C2682 C 0.9826 0.46009 0.82295 0.0
C2683 C 0.99206 0.47332 0.80302 0.0
C2684 C 0.03338 0.46282 0.75313 0.0
C2685 C 0.04968 0.5037 0.70008 0.0
C2686 C 0.03614 0.49316 0.72085 0.0
C2687 C 0.99798 0.46111 0.78098 0.0
C2688 C 0.01149 0.47328 0.76124 0.0
H2689 H 0.04176 0.52551 0.64178 0.0
H2690 H 0.01849 0.50697 0.6758 0.0
H2691 H 0.06231 0.46406 0.72691 0.0
H2692 H 0.98054 0.40362 0.79574 0.0
H2693 H 0.99705 0.42656 0.76134 0.0
C2694 C 0.96498 0.0764 0.69167 0.0
C2695 C 0.97496 0.07093 0.66857 0.0
C2696 C 0.96658 0.05951 0.71087 0.0
C2697 C 0.99176 0.99739 0.72748 0.0
H2698 H 0.0092 0.03218 0.78728 0.0
C2699 C 0.06928 0.97232 0.79311 0.0
C2700 C 0.06663 0.97743 0.8183 0.0
C2701 C 0.05 0.9766 0.77693 0.0
C2702 C 0.00399 0.02205 0.77093 0.0
H2703 H 0.99332 0.04362 0.64651 0.0
H2704 H 0.99816 0.01478 0.68047 0.0
H2705 H 0.98982 0.05406 0.75415 0.0
H2706 H 0.04192 0.98939 0.84698 0.0
H2707 H 0.00832 0.99792 0.81849 0.0
H2708 H 0.00859 0.96589 0.74393 0.0
C2709 C 0.98801 0.03143 0.68383 0.0
C2710 C 0.99261 0.03458 0.75182 0.0
C2711 C 0.98552 0.04801 0.66436 0.0
C2712 C 0.04416 0.98539 0.8275 0.0
C2713 C 0.02504 0.99019 0.81127 0.0
C2714 C 0.0038 0.98497 0.74648 0.0
C2715 C 0.97941 0.03739 0.70764 0.0
C2716 C 0.98701 0.02267 0.72946 0.0
C2717 C 0.02808 0.98661 0.78574 0.0
C2718 C 0.0107 0.99746 0.76804 0.0
H2719 H 0.95658 0.09403 0.69506 0.0
H2720 H 0.95886 0.06442 0.72859 0.0
H2721 H 0.98718 0.98739 0.71086 0.0
H2722 H 0.08654 0.96593 0.78586 0.0
H2723 H 0.05292 0.97387 0.75734 0.0
C2724 C 0.44455 0.96514 0.68237 0.0
C2725 C 0.43928 0.98056 0.66245 0.0
C2726 C 0.46401 0.97054 0.69801 0.0
C2727 C 0.48592 0.02404 0.72448 0.0
H2728 H 0.54004 0.98791 0.75261 0.0
C2729 C 0.55031 0.06668 0.79269 0.0
C2730 C 0.53621 0.06556 0.8143 0.0
C2731 C 0.54669 0.04955 0.77391 0.0
C2732 C 0.52507 0.99809 0.74466 0.0
H2733 H 0.45063 0.01233 0.64164 0.0
H2734 H 0.48407 0.02261 0.66974 0.0
H2735 H 0.51778 0.97097 0.7167 0.0
H2736 H 0.51005 0.04395 0.8349 0.0
H2737 H 0.50357 0.01425 0.80186 0.0
H2738 H 0.49239 0.05071 0.75254 0.0
C2739 C 0.47359 0.00612 0.67301 0.0
C2740 C 0.51245 0.98851 0.72433 0.0
C2741 C 0.45443 1.00046 0.6572 0.0
C2742 C 0.52074 0.04547 0.81815 0.0
C2743 C 0.51733 0.02826 0.7995 0.0
C2744 C 0.49834 0.03348 0.74459 0.0
C2745 C 0.47794 0.99168 0.69399 0.0
C2746 C 0.49287 1.0016 0.71413 0.0
C2747 C 0.52928 0.03102 0.77682 0.0
C2748 C 0.51787 0.02059 0.75482 0.0
H2749 H 0.4328 0.94986 0.68672 0.0
H2750 H 0.46687 0.95941 0.7143 0.0
H2751 H 0.47032 0.03391 0.71749 0.0
H2752 H 0.56252 0.0819 0.7894 0.0
H2753 H 0.5557 0.05215 0.75631 0.0
C2754 C 0.45511 0.5274 0.82032 0.0
C2755 C 0.42986 0.52429 0.81833 0.0
C2756 C 0.47026 0.51985 0.80097 0.0
C2757 C 0.4684 0.47766 0.74816 0.0
H2758 H 0.52368 0.51401 0.72289 0.0
C2759 C 0.51258 0.45027 0.65879 0.0
C2760 C 0.53328 0.43688 0.66546 0.0
C2761 C 0.5027 0.46713 0.67531 0.0
C2762 C 0.50807 0.50402 0.72977 0.0
H2763 H 0.40044 0.51228 0.79434 0.0
H2764 H 0.42637 0.50031 0.76084 0.0
H2765 H 0.50084 0.53 0.75864 0.0
H2766 H 0.56231 0.4332 0.69233 0.0
H2767 H 0.54503 0.46286 0.72118 0.0
H2768 H 0.47511 0.45207 0.7192 0.0
C2769 C 0.43478 0.50752 0.77741 0.0
C2770 C 0.49533 0.51285 0.75028 0.0
C2771 C 0.4199 0.51448 0.79666 0.0
C2772 C 0.5457 0.44266 0.68733 0.0
C2773 C 0.53618 0.45988 0.70356 0.0
C2774 C 0.48069 0.46922 0.72756 0.0
C2775 C 0.46008 0.50949 0.77954 0.0
C2776 C 0.47523 0.49979 0.75941 0.0
C2777 C 0.51413 0.47136 0.69806 0.0
C2778 C 0.50041 0.48239 0.7182 0.0
H2779 H 0.46305 0.53516 0.83688 0.0
H2780 H 0.48979 0.52156 0.80295 0.0
H2781 H 0.45337 0.46689 0.75516 0.0
H2782 H 0.5036 0.44723 0.64135 0.0
H2783 H 0.48555 0.4759 0.67094 0.0
loop_
_geom_bond_atom_site_label_1
_geom_bond_atom_site_label_2
_geom_bond_distance
_geom_bond_site_symmetry_2
_ccdc_geom_bond_type
Eu0 N29 2.600 . S
Eu0 N35 2.562 . S
Eu0 O44 2.462 . S
Eu0 O45 2.373 . S
Eu0 O47 2.432 . S
Eu0 O48 2.291 . S
Eu0 O52 2.335 . S
Eu0 O55 2.372 . S
Eu0 C64 2.787 . S
C1 N2 1.365 . S
C1 C4 1.405 . S
C1 C8 1.448 . S
N2 C1 1.365 . S
N2 C5 1.319 . S
N2 Eu11 2.600 . S
C3 C5 1.397 . S
C3 C6 1.367 . S
C3 H23 0.931 . S
C4 C1 1.405 . S
C4 C6 1.403 . S
C4 C10 1.439 . S
C5 N2 1.319 . S
C5 C3 1.397 . S
C5 H16 0.930 . S
C6 C3 1.367 . S
C6 C4 1.403 . S
C6 H27 0.929 . S
C7 C8 1.430 . S
C7 C9 1.387 . S
C7 C13 1.404 . S
C8 C1 1.448 . S
C8 C7 1.430 . S
C8 N12 1.351 . S
C9 C7 1.387 . S
C9 C10 1.374 . S
C9 H24 0.931 . S
C10 C4 1.439 . S
C10 C9 1.374 . S
C10 H25 0.931 . S
Eu11 N2 2.600 . S
Eu11 N12 2.562 . S
Eu11 O46 2.335 1_655 S
Eu11 O49 2.372 1_655 S
Eu11 O50 2.462 . S
Eu11 O51 2.373 1_655 S
Eu11 O53 2.432 . S
Eu11 O54 2.291 1_655 S
Eu11 C75 2.787 . S
N12 C8 1.351 . S
N12 Eu11 2.562 . S
N12 C14 1.325 . S
C13 C7 1.404 . S
C13 C15 1.366 . S
C13 H21 0.930 . S
C14 N12 1.325 . S
C14 C15 1.416 . S
C14 H20 0.929 . S
C15 C13 1.366 . S
C15 C14 1.416 . S
C15 H17 0.930 . S
H16 C5 0.930 . S
H17 C15 0.930 . S
H18 C33 0.930 . S
H19 C40 0.930 . S
H20 C14 0.929 . S
H21 C13 0.930 . S
H22 C36 0.929 . S
H23 C3 0.931 . S
H24 C9 0.931 . S
H25 C10 0.931 . S
H26 C31 0.931 . S
H27 C6 0.929 . S
H28 C39 0.930 . S
N29 Eu0 2.600 . S
N29 C30 1.365 . S
N29 C33 1.319 . S
C30 N29 1.365 . S
C30 C32 1.405 . S
C30 C38 1.448 . S
C31 H26 0.931 . S
C31 C33 1.397 . S
C31 C34 1.367 . S
C32 C30 1.405 . S
C32 C34 1.403 . S
C32 C65 1.439 . S
C33 H18 0.930 . S
C33 N29 1.319 . S
C33 C31 1.397 . S
C34 C31 1.367 . S
C34 C32 1.403 . S
C34 H41 0.929 . S
N35 Eu0 2.562 . S
N35 C36 1.325 . S
N35 C38 1.351 . S
C36 H22 0.929 . S
C36 N35 1.325 . S
C36 C40 1.416 . S
C37 C38 1.430 . S
C37 C39 1.404 . S
C37 C66 1.387 . S
C38 C30 1.448 . S
C38 N35 1.351 . S
C38 C37 1.430 . S
C39 H28 0.930 . S
C39 C37 1.404 . S
C39 C40 1.366 . S
C40 H19 0.930 . S
C40 C36 1.416 . S
C40 C39 1.366 . S
H41 C34 0.929 . S
H42 C65 0.931 . S
H43 C66 0.931 . S
O44 Eu0 2.462 . S
O44 C64 1.252 . S
O45 Eu0 2.373 . S
O45 C56 1.249 . S
O46 Eu11 2.335 1_455 S
O46 C56 1.264 . S
O47 Eu0 2.432 . S
O47 C64 1.268 . S
O48 Eu0 2.291 . S
O48 C63 1.255 . S
O49 Eu11 2.372 1_455 S
O49 C63 1.257 . S
O50 Eu11 2.462 . S
O50 C75 1.252 . S
O51 Eu11 2.373 1_455 S
O51 C67 1.249 . S
O52 Eu0 2.335 . S
O52 C67 1.264 . S
O53 Eu11 2.432 . S
O53 C75 1.268 . S
O54 Eu11 2.291 1_455 S
O54 C74 1.255 . S
O55 Eu0 2.372 . S
O55 C74 1.257 . S
C56 O45 1.249 . S
C56 O46 1.264 . S
C57 C60 1.382 . S
C57 C62 1.390 . S
C57 C64 1.506 . S
C58 C59 1.398 . S
C58 C62 1.392 . S
C59 C58 1.398 . S
C59 C61 1.372 . S
C59 H76 0.931 . S
C60 C57 1.382 . S
C60 C61 1.390 . S
C60 H77 0.931 . S
C61 C59 1.372 . S
C61 C60 1.390 . S
C61 H78 0.929 . S
C62 C57 1.390 . S
C62 C58 1.392 . S
C62 H79 0.930 . S
C63 O48 1.255 . S
C63 O49 1.257 . S
C64 Eu0 2.787 . S
C64 O44 1.252 . S
C64 O47 1.268 . S
C64 C57 1.506 . S
C65 C32 1.439 . S
C65 H42 0.931 . S
C65 C66 1.374 . S
C66 C37 1.387 . S
C66 H43 0.931 . S
C66 C65 1.374 . S
C67 O51 1.249 . S
C67 O52 1.264 . S
C68 C71 1.382 . S
C68 C72 1.390 . S
C68 C75 1.506 . S
C69 C70 1.398 . S
C69 C72 1.392 . S
C70 C69 1.398 . S
C70 C73 1.372 . S
C70 H80 0.931 . S
C71 C68 1.382 . S
C71 C73 1.390 . S
C71 H81 0.931 . S
C72 C68 1.390 . S
C72 C69 1.392 . S
C72 H82 0.930 . S
C73 C70 1.372 . S
C73 C71 1.390 . S
C73 H83 0.929 . S
C74 O54 1.255 . S
C74 O55 1.257 . S
C75 Eu11 2.787 . S
C75 O50 1.252 . S
C75 O53 1.268 . S
C75 C68 1.506 . S
H76 C59 0.931 . S
H77 C60 0.931 . S
H78 C61 0.929 . S
H79 C62 0.930 . S
H80 C70 0.931 . S
H81 C71 0.931 . S
H82 C72 0.930 . S
H83 C73 0.929 . S
Eu84 N113 2.600 . S
Eu84 N119 2.562 . S
Eu84 O128 2.462 . S
Eu84 O129 2.373 . S
Eu84 O131 2.432 . S
Eu84 O132 2.291 . S
Eu84 O136 2.335 . S
Eu84 O139 2.372 . S
Eu84 C148 2.787 . S
C85 N86 1.365 . S
C85 C88 1.405 . S
C85 C92 1.448 . S
N86 C85 1.365 . S
N86 C89 1.319 . S
N86 Eu95 2.600 . S
C87 C89 1.397 . S
C87 C90 1.367 . S
C87 H107 0.931 . S
C88 C85 1.405 . S
C88 C90 1.403 . S
C88 C94 1.439 . S
C89 N86 1.319 . S
C89 C87 1.397 . S
C89 H100 0.930 . S
C90 C87 1.367 . S
C90 C88 1.403 . S
C90 H111 0.929 . S
C91 C92 1.430 . S
C91 C93 1.387 . S
C91 C97 1.404 . S
C92 C85 1.448 . S
C92 C91 1.430 . S
C92 N96 1.351 . S
C93 C91 1.387 . S
C93 C94 1.374 . S
C93 H108 0.931 . S
C94 C88 1.439 . S
C94 C93 1.374 . S
C94 H109 0.931 . S
Eu95 N86 2.600 . S
Eu95 N96 2.562 . S
Eu95 O130 2.335 1_565 S
Eu95 O133 2.372 1_565 S
Eu95 O134 2.462 . S
Eu95 O135 2.373 1_565 S
Eu95 O137 2.432 . S
Eu95 O138 2.291 1_565 S
Eu95 C159 2.787 . S
N96 C92 1.351 . S
N96 Eu95 2.562 . S
N96 C98 1.325 . S
C97 C91 1.404 . S
C97 C99 1.366 . S
C97 H105 0.930 . S
C98 N96 1.325 . S
C98 C99 1.416 . S
C98 H104 0.929 . S
C99 C97 1.366 . S
C99 C98 1.416 . S
C99 H101 0.930 . S
H100 C89 0.930 . S
H101 C99 0.930 . S
H102 C117 0.930 . S
H103 C124 0.930 . S
H104 C98 0.929 . S
H105 C97 0.930 . S
H106 C120 0.929 . S
H107 C87 0.931 . S
H108 C93 0.931 . S
H109 C94 0.931 . S
H110 C115 0.931 . S
H111 C90 0.929 . S
H112 C123 0.930 . S
N113 Eu84 2.600 . S
N113 C114 1.365 . S
N113 C117 1.319 . S
C114 N113 1.365 . S
C114 C116 1.405 . S
C114 C122 1.448 . S
C115 H110 0.931 . S
C115 C117 1.397 . S
C115 C118 1.367 . S
C116 C114 1.405 . S
C116 C118 1.403 . S
C116 C149 1.439 . S
C117 H102 0.930 . S
C117 N113 1.319 . S
C117 C115 1.397 . S
C118 C115 1.367 . S
C118 C116 1.403 . S
C118 H125 0.929 . S
N119 Eu84 2.562 . S
N119 C120 1.325 . S
N119 C122 1.351 . S
C120 H106 0.929 . S
C120 N119 1.325 . S
C120 C124 1.416 . S
C121 C122 1.430 . S
C121 C123 1.404 . S
C121 C150 1.387 . S
C122 C114 1.448 . S
C122 N119 1.351 . S
C122 C121 1.430 . S
C123 H112 0.930 . S
C123 C121 1.404 . S
C123 C124 1.366 . S
C124 H103 0.930 . S
C124 C120 1.416 . S
C124 C123 1.366 . S
H125 C118 0.929 . S
H126 C149 0.931 . S
H127 C150 0.931 . S
O128 Eu84 2.462 . S
O128 C148 1.252 . S
O129 Eu84 2.373 . S
O129 C140 1.249 . S
O130 Eu95 2.335 1_545 S
O130 C140 1.264 . S
O131 Eu84 2.432 . S
O131 C148 1.268 . S
O132 Eu84 2.291 . S
O132 C147 1.255 . S
O133 Eu95 2.372 1_545 S
O133 C147 1.257 . S
O134 Eu95 2.462 . S
O134 C159 1.252 . S
O135 Eu95 2.373 1_545 S
O135 C151 1.249 . S
O136 Eu84 2.335 . S
O136 C151 1.264 . S
O137 Eu95 2.432 . S
O137 C159 1.268 . S
O138 Eu95 2.291 1_545 S
O138 C158 1.255 . S
O139 Eu84 2.372 . S
O139 C158 1.257 . S
C140 O129 1.249 . S
C140 O130 1.264 . S
C141 C144 1.382 . S
C141 C146 1.390 . S
C141 C148 1.506 . S
C142 C143 1.398 . S
C142 C146 1.392 . S
C143 C142 1.398 . S
C143 C145 1.372 . S
C143 H160 0.931 . S
C144 C141 1.382 . S
C144 C145 1.390 . S
C144 H161 0.931 . S
C145 C143 1.372 . S
C145 C144 1.390 . S
C145 H162 0.929 . S
C146 C141 1.390 . S
C146 C142 1.392 . S
C146 H163 0.930 . S
C147 O132 1.255 . S
C147 O133 1.257 . S
C148 Eu84 2.787 . S
C148 O128 1.252 . S
C148 O131 1.268 . S
C148 C141 1.506 . S
C149 C116 1.439 . S
C149 H126 0.931 . S
C149 C150 1.374 . S
C150 C121 1.387 . S
C150 H127 0.931 . S
C150 C149 1.374 . S
C151 O135 1.249 . S
C151 O136 1.264 . S
C152 C155 1.382 . S
C152 C156 1.390 . S
C152 C159 1.506 . S
C153 C154 1.398 . S
C153 C156 1.392 . S
C154 C153 1.398 . S
C154 C157 1.372 . S
C154 H164 0.931 . S
C155 C152 1.382 . S
C155 C157 1.390 . S
C155 H165 0.931 . S
C156 C152 1.390 . S
C156 C153 1.392 . S
C156 H166 0.930 . S
C157 C154 1.372 . S
C157 C155 1.390 . S
C157 H167 0.929 . S
C158 O138 1.255 . S
C158 O139 1.257 . S
C159 Eu95 2.787 . S
C159 O134 1.252 . S
C159 O137 1.268 . S
C159 C152 1.506 . S
H160 C143 0.931 . S
H161 C144 0.931 . S
H162 C145 0.929 . S
H163 C146 0.930 . S
H164 C154 0.931 . S
H165 C155 0.931 . S
H166 C156 0.930 . S
H167 C157 0.929 . S
Eu168 N197 2.600 . S
Eu168 N203 2.562 . S
Eu168 O212 2.462 . S
Eu168 O213 2.373 . S
Eu168 O215 2.432 . S
Eu168 O216 2.291 . S
Eu168 O220 2.335 . S
Eu168 O223 2.372 . S
Eu168 C232 2.787 . S
C169 N170 1.365 . S
C169 C172 1.405 . S
C169 C176 1.448 . S
N170 C169 1.365 . S
N170 C173 1.319 . S
N170 Eu179 2.600 . S
C171 C173 1.397 . S
C171 C174 1.367 . S
C171 H191 0.931 . S
C172 C169 1.405 . S
C172 C174 1.403 . S
C172 C178 1.439 . S
C173 N170 1.319 . S
C173 C171 1.397 . S
C173 H184 0.930 . S
C174 C171 1.367 . S
C174 C172 1.403 . S
C174 H195 0.929 . S
C175 C176 1.430 . S
C175 C177 1.387 . S
C175 C181 1.404 . S
C176 C169 1.448 . S
C176 C175 1.430 . S
C176 N180 1.351 . S
C177 C175 1.387 . S
C177 C178 1.374 . S
C177 H192 0.931 . S
C178 C172 1.439 . S
C178 C177 1.374 . S
C178 H193 0.931 . S
Eu179 N170 2.600 . S
Eu179 N180 2.562 . S
Eu179 O214 2.335 . S
Eu179 O217 2.372 . S
Eu179 O218 2.462 . S
Eu179 O219 2.373 . S
Eu179 O221 2.432 . S
Eu179 O222 2.291 . S
Eu179 C243 2.787 . S
N180 C176 1.351 . S
N180 Eu179 2.562 . S
N180 C182 1.325 . S
C181 C175 1.404 . S
C181 C183 1.366 . S
C181 H189 0.930 . S
C182 N180 1.325 . S
C182 C183 1.416 . S
C182 H188 0.929 . S
C183 C181 1.366 . S
C183 C182 1.416 . S
C183 H185 0.930 . S
H184 C173 0.930 . S
H185 C183 0.930 . S
H186 C201 0.930 . S
H187 C208 0.930 . S
H188 C182 0.929 . S
H189 C181 0.930 . S
H190 C204 0.929 . S
H191 C171 0.931 . S
H192 C177 0.931 . S
H193 C178 0.931 . S
H194 C199 0.931 . S
H195 C174 0.929 . S
H196 C207 0.930 . S
N197 Eu168 2.600 . S
N197 C198 1.365 . S
N197 C201 1.319 . S
C198 N197 1.365 . S
C198 C200 1.405 . S
C198 C206 1.448 . S
C199 H194 0.931 . S
C199 C201 1.397 . S
C199 C202 1.367 . S
C200 C198 1.405 . S
C200 C202 1.403 . S
C200 C233 1.439 . S
C201 H186 0.930 . S
C201 N197 1.319 . S
C201 C199 1.397 . S
C202 C199 1.367 . S
C202 C200 1.403 . S
C202 H209 0.929 . S
N203 Eu168 2.562 . S
N203 C204 1.325 . S
N203 C206 1.351 . S
C204 H190 0.929 . S
C204 N203 1.325 . S
C204 C208 1.416 . S
C205 C206 1.430 . S
C205 C207 1.404 . S
C205 C234 1.387 . S
C206 C198 1.448 . S
C206 N203 1.351 . S
C206 C205 1.430 . S
C207 H196 0.930 . S
C207 C205 1.404 . S
C207 C208 1.366 . S
C208 H187 0.930 . S
C208 C204 1.416 . S
C208 C207 1.366 . S
H209 C202 0.929 . S
H210 C233 0.931 . S
H211 C234 0.931 . S
O212 Eu168 2.462 . S
O212 C232 1.252 . S
O213 Eu168 2.373 . S
O213 C224 1.249 . S
O214 Eu179 2.335 . S
O214 C224 1.264 . S
O215 Eu168 2.432 . S
O215 C232 1.268 . S
O216 Eu168 2.291 . S
O216 C231 1.255 . S
O217 Eu179 2.372 . S
O217 C231 1.257 . S
O218 Eu179 2.462 . S
O218 C243 1.252 . S
O219 Eu179 2.373 . S
O219 C235 1.249 . S
O220 Eu168 2.335 . S
O220 C235 1.264 . S
O221 Eu179 2.432 . S
O221 C243 1.268 . S
O222 Eu179 2.291 . S
O222 C242 1.255 . S
O223 Eu168 2.372 . S
O223 C242 1.257 . S
C224 O213 1.249 . S
C224 O214 1.264 . S
C225 C228 1.382 . S
C225 C230 1.390 . S
C225 C232 1.506 . S
C226 C227 1.398 . S
C226 C230 1.392 . S
C227 C226 1.398 . S
C227 C229 1.372 . S
C227 H244 0.931 . S
C228 C225 1.382 . S
C228 C229 1.390 . S
C228 H245 0.931 . S
C229 C227 1.372 . S
C229 C228 1.390 . S
C229 H246 0.929 . S
C230 C225 1.390 . S
C230 C226 1.392 . S
C230 H247 0.930 . S
C231 O216 1.255 . S
C231 O217 1.257 . S
C232 Eu168 2.787 . S
C232 O212 1.252 . S
C232 O215 1.268 . S
C232 C225 1.506 . S
C233 C200 1.439 . S
C233 H210 0.931 . S
C233 C234 1.374 . S
C234 C205 1.387 . S
C234 H211 0.931 . S
C234 C233 1.374 . S
C235 O219 1.249 . S
C235 O220 1.264 . S
C236 C239 1.382 . S
C236 C240 1.390 . S
C236 C243 1.506 . S
C237 C238 1.398 . S
C237 C240 1.392 . S
C238 C237 1.398 . S
C238 C241 1.372 . S
C238 H248 0.931 . S
C239 C236 1.382 . S
C239 C241 1.390 . S
C239 H249 0.931 . S
C240 C236 1.390 . S
C240 C237 1.392 . S
C240 H250 0.930 . S
C241 C238 1.372 . S
C241 C239 1.390 . S
C241 H251 0.929 . S
C242 O222 1.255 . S
C242 O223 1.257 . S
C243 Eu179 2.787 . S
C243 O218 1.252 . S
C243 O221 1.268 . S
C243 C236 1.506 . S
H244 C227 0.931 . S
H245 C228 0.931 . S
H246 C229 0.929 . S
H247 C230 0.930 . S
H248 C238 0.931 . S
H249 C239 0.931 . S
H250 C240 0.930 . S
H251 C241 0.929 . S
Eu252 N281 2.600 . S
Eu252 N287 2.562 . S
Eu252 O296 2.462 . S
Eu252 O297 2.373 . S
Eu252 O299 2.432 . S
Eu252 O300 2.291 . S
Eu252 O304 2.335 . S
Eu252 O307 2.372 . S
Eu252 C316 2.787 . S
C253 N254 1.365 . S
C253 C256 1.405 . S
C253 C260 1.448 . S
N254 C253 1.365 . S
N254 C257 1.319 . S
N254 Eu263 2.600 . S
C255 C257 1.397 . S
C255 C258 1.367 . S
C255 H275 0.931 . S
C256 C253 1.405 . S
C256 C258 1.403 . S
C256 C262 1.439 . S
C257 N254 1.319 . S
C257 C255 1.397 . S
C257 H268 0.930 . S
C258 C255 1.367 . S
C258 C256 1.403 . S
C258 H279 0.929 . S
C259 C260 1.430 . S
C259 C261 1.387 . S
C259 C265 1.404 . S
C260 C253 1.448 . S
C260 C259 1.430 . S
C260 N264 1.351 . S
C261 C259 1.387 . S
C261 C262 1.374 . S
C261 H276 0.931 . S
C262 C256 1.439 . S
C262 C261 1.374 . S
C262 H277 0.931 . S
Eu263 N254 2.600 . S
Eu263 N264 2.562 . S
Eu263 O298 2.335 . S
Eu263 O301 2.372 . S
Eu263 O302 2.462 . S
Eu263 O303 2.373 . S
Eu263 O305 2.432 . S
Eu263 O306 2.291 . S
Eu263 C327 2.787 . S
N264 C260 1.351 . S
N264 Eu263 2.562 . S
N264 C266 1.325 . S
C265 C259 1.404 . S
C265 C267 1.366 . S
C265 H273 0.930 . S
C266 N264 1.325 . S
C266 C267 1.416 . S
C266 H272 0.929 . S
C267 C265 1.366 . S
C267 C266 1.416 . S
C267 H269 0.930 . S
H268 C257 0.930 . S
H269 C267 0.930 . S
H270 C285 0.930 . S
H271 C292 0.930 . S
H272 C266 0.929 . S
H273 C265 0.930 . S
H274 C288 0.929 . S
H275 C255 0.931 . S
H276 C261 0.931 . S
H277 C262 0.931 . S
H278 C283 0.931 . S
H279 C258 0.929 . S
H280 C291 0.930 . S
N281 Eu252 2.600 . S
N281 C282 1.365 . S
N281 C285 1.319 . S
C282 N281 1.365 . S
C282 C284 1.405 . S
C282 C290 1.448 . S
C283 H278 0.931 . S
C283 C285 1.397 . S
C283 C286 1.367 . S
C284 C282 1.405 . S
C284 C286 1.403 . S
C284 C317 1.439 . S
C285 H270 0.930 . S
C285 N281 1.319 . S
C285 C283 1.397 . S
C286 C283 1.367 . S
C286 C284 1.403 . S
C286 H293 0.929 . S
N287 Eu252 2.562 . S
N287 C288 1.325 . S
N287 C290 1.351 . S
C288 H274 0.929 . S
C288 N287 1.325 . S
C288 C292 1.416 . S
C289 C290 1.430 . S
C289 C291 1.404 . S
C289 C318 1.387 . S
C290 C282 1.448 . S
C290 N287 1.351 . S
C290 C289 1.430 . S
C291 H280 0.930 . S
C291 C289 1.404 . S
C291 C292 1.366 . S
C292 H271 0.930 . S
C292 C288 1.416 . S
C292 C291 1.366 . S
H293 C286 0.929 . S
H294 C317 0.931 . S
H295 C318 0.931 . S
O296 Eu252 2.462 . S
O296 C316 1.252 . S
O297 Eu252 2.373 . S
O297 C308 1.249 . S
O298 Eu263 2.335 . S
O298 C308 1.264 . S
O299 Eu252 2.432 . S
O299 C316 1.268 . S
O300 Eu252 2.291 . S
O300 C315 1.255 . S
O301 Eu263 2.372 . S
O301 C315 1.257 . S
O302 Eu263 2.462 . S
O302 C327 1.252 . S
O303 Eu263 2.373 . S
O303 C319 1.249 . S
O304 Eu252 2.335 . S
O304 C319 1.264 . S
O305 Eu263 2.432 . S
O305 C327 1.268 . S
O306 Eu263 2.291 . S
O306 C326 1.255 . S
O307 Eu252 2.372 . S
O307 C326 1.257 . S
C308 O297 1.249 . S
C308 O298 1.264 . S
C309 C312 1.382 . S
C309 C314 1.390 . S
C309 C316 1.506 . S
C310 C311 1.398 . S
C310 C314 1.392 . S
C311 C310 1.398 . S
C311 C313 1.372 . S
C311 H328 0.931 . S
C312 C309 1.382 . S
C312 C313 1.390 . S
C312 H329 0.931 . S
C313 C311 1.372 . S
C313 C312 1.390 . S
C313 H330 0.929 . S
C314 C309 1.390 . S
C314 C310 1.392 . S
C314 H331 0.930 . S
C315 O300 1.255 . S
C315 O301 1.257 . S
C316 Eu252 2.787 . S
C316 O296 1.252 . S
C316 O299 1.268 . S
C316 C309 1.506 . S
C317 C284 1.439 . S
C317 H294 0.931 . S
C317 C318 1.374 . S
C318 C289 1.387 . S
C318 H295 0.931 . S
C318 C317 1.374 . S
C319 O303 1.249 . S
C319 O304 1.264 . S
C320 C323 1.382 . S
C320 C324 1.390 . S
C320 C327 1.506 . S
C321 C322 1.398 . S
C321 C324 1.392 . S
C322 C321 1.398 . S
C322 C325 1.372 . S
C322 H332 0.931 . S
C323 C320 1.382 . S
C323 C325 1.390 . S
C323 H333 0.931 . S
C324 C320 1.390 . S
C324 C321 1.392 . S
C324 H334 0.930 . S
C325 C322 1.372 . S
C325 C323 1.390 . S
C325 H335 0.929 . S
C326 O306 1.255 . S
C326 O307 1.257 . S
C327 Eu263 2.787 . S
C327 O302 1.252 . S
C327 O305 1.268 . S
C327 C320 1.506 . S
H328 C311 0.931 . S
H329 C312 0.931 . S
H330 C313 0.929 . S
H331 C314 0.930 . S
H332 C322 0.931 . S
H333 C323 0.931 . S
H334 C324 0.930 . S
H335 C325 0.929 . S
Eu336 N365 2.600 . S
Eu336 N371 2.562 . S
Eu336 O380 2.462 . S
Eu336 O381 2.373 . S
Eu336 O383 2.432 . S
Eu336 O384 2.291 . S
Eu336 O388 2.335 . S
Eu336 O391 2.372 . S
Eu336 C400 2.787 . S
C337 N338 1.365 . S
C337 C340 1.405 . S
C337 C344 1.448 . S
N338 C337 1.365 . S
N338 C341 1.319 . S
N338 Eu347 2.600 . S
C339 C341 1.397 . S
C339 C342 1.367 . S
C339 H359 0.931 . S
C340 C337 1.405 . S
C340 C342 1.403 . S
C340 C346 1.439 . S
C341 N338 1.319 . S
C341 C339 1.397 . S
C341 H352 0.930 . S
C342 C339 1.367 . S
C342 C340 1.403 . S
C342 H363 0.929 . S
C343 C344 1.430 . S
C343 C345 1.387 . S
C343 C349 1.404 . S
C344 C337 1.448 . S
C344 C343 1.430 . S
C344 N348 1.351 . S
C345 C343 1.387 . S
C345 C346 1.374 . S
C345 H360 0.931 . S
C346 C340 1.439 . S
C346 C345 1.374 . S
C346 H361 0.931 . S
Eu347 N338 2.600 . S
Eu347 N348 2.562 . S
Eu347 O382 2.335 1_655 S
Eu347 O385 2.372 1_655 S
Eu347 O386 2.462 . S
Eu347 O387 2.373 1_655 S
Eu347 O389 2.432 . S
Eu347 O390 2.291 1_655 S
Eu347 C411 2.787 . S
N348 C344 1.351 . S
N348 Eu347 2.562 . S
N348 C350 1.325 . S
C349 C343 1.404 . S
C349 C351 1.366 . S
C349 H357 0.930 . S
C350 N348 1.325 . S
C350 C351 1.416 . S
C350 H356 0.929 . S
C351 C349 1.366 . S
C351 C350 1.416 . S
C351 H353 0.930 . S
H352 C341 0.930 . S
H353 C351 0.930 . S
H354 C369 0.930 . S
H355 C376 0.930 . S
H356 C350 0.929 . S
H357 C349 0.930 . S
H358 C372 0.929 . S
H359 C339 0.931 . S
H360 C345 0.931 . S
H361 C346 0.931 . S
H362 C367 0.931 . S
H363 C342 0.929 . S
H364 C375 0.930 . S
N365 Eu336 2.600 . S
N365 C366 1.365 . S
N365 C369 1.319 . S
C366 N365 1.365 . S
C366 C368 1.405 . S
C366 C374 1.448 . S
C367 H362 0.931 . S
C367 C369 1.397 . S
C367 C370 1.367 . S
C368 C366 1.405 . S
C368 C370 1.403 . S
C368 C401 1.439 . S
C369 H354 0.930 . S
C369 N365 1.319 . S
C369 C367 1.397 . S
C370 C367 1.367 . S
C370 C368 1.403 . S
C370 H377 0.929 . S
N371 Eu336 2.562 . S
N371 C372 1.325 . S
N371 C374 1.351 . S
C372 H358 0.929 . S
C372 N371 1.325 . S
C372 C376 1.416 . S
C373 C374 1.430 . S
C373 C375 1.404 . S
C373 C402 1.387 . S
C374 C366 1.448 . S
C374 N371 1.351 . S
C374 C373 1.430 . S
C375 H364 0.930 . S
C375 C373 1.404 . S
C375 C376 1.366 . S
C376 H355 0.930 . S
C376 C372 1.416 . S
C376 C375 1.366 . S
H377 C370 0.929 . S
H378 C401 0.931 . S
H379 C402 0.931 . S
O380 Eu336 2.462 . S
O380 C400 1.252 . S
O381 Eu336 2.373 . S
O381 C392 1.249 . S
O382 Eu347 2.335 1_455 S
O382 C392 1.264 . S
O383 Eu336 2.432 . S
O383 C400 1.268 . S
O384 Eu336 2.291 . S
O384 C399 1.255 . S
O385 Eu347 2.372 1_455 S
O385 C399 1.257 . S
O386 Eu347 2.462 . S
O386 C411 1.252 . S
O387 Eu347 2.373 1_455 S
O387 C403 1.249 . S
O388 Eu336 2.335 . S
O388 C403 1.264 . S
O389 Eu347 2.432 . S
O389 C411 1.268 . S
O390 Eu347 2.291 1_455 S
O390 C410 1.255 . S
O391 Eu336 2.372 . S
O391 C410 1.257 . S
C392 O381 1.249 . S
C392 O382 1.264 . S
C393 C396 1.382 . S
C393 C398 1.390 . S
C393 C400 1.506 . S
C394 C395 1.398 . S
C394 C398 1.392 . S
C395 C394 1.398 . S
C395 C397 1.372 . S
C395 H412 0.931 . S
C396 C393 1.382 . S
C396 C397 1.390 . S
C396 H413 0.931 . S
C397 C395 1.372 . S
C397 C396 1.390 . S
C397 H414 0.929 . S
C398 C393 1.390 . S
C398 C394 1.392 . S
C398 H415 0.930 . S
C399 O384 1.255 . S
C399 O385 1.257 . S
C400 Eu336 2.787 . S
C400 O380 1.252 . S
C400 O383 1.268 . S
C400 C393 1.506 . S
C401 C368 1.439 . S
C401 H378 0.931 . S
C401 C402 1.374 . S
C402 C373 1.387 . S
C402 H379 0.931 . S
C402 C401 1.374 . S
C403 O387 1.249 . S
C403 O388 1.264 . S
C404 C407 1.382 . S
C404 C408 1.390 . S
C404 C411 1.506 . S
C405 C406 1.398 . S
C405 C408 1.392 . S
C406 C405 1.398 . S
C406 C409 1.372 . S
C406 H416 0.931 . S
C407 C404 1.382 . S
C407 C409 1.390 . S
C407 H417 0.931 . S
C408 C404 1.390 . S
C408 C405 1.392 . S
C408 H418 0.930 . S
C409 C406 1.372 . S
C409 C407 1.390 . S
C409 H419 0.929 . S
C410 O390 1.255 . S
C410 O391 1.257 . S
C411 Eu347 2.787 . S
C411 O386 1.252 . S
C411 O389 1.268 . S
C411 C404 1.506 . S
H412 C395 0.931 . S
H413 C396 0.931 . S
H414 C397 0.929 . S
H415 C398 0.930 . S
H416 C406 0.931 . S
H417 C407 0.931 . S
H418 C408 0.930 . S
H419 C409 0.929 . S
Eu420 N449 2.600 . S
Eu420 N455 2.562 . S
Eu420 O464 2.462 . S
Eu420 O465 2.373 . S
Eu420 O467 2.432 . S
Eu420 O468 2.291 . S
Eu420 O472 2.335 . S
Eu420 O475 2.372 . S
Eu420 C484 2.787 . S
C421 N422 1.365 . S
C421 C424 1.405 . S
C421 C428 1.448 . S
N422 C421 1.365 . S
N422 C425 1.319 . S
N422 Eu431 2.600 . S
C423 C425 1.397 . S
C423 C426 1.367 . S
C423 H443 0.931 . S
C424 C421 1.405 . S
C424 C426 1.403 . S
C424 C430 1.439 . S
C425 N422 1.319 . S
C425 C423 1.397 . S
C425 H436 0.930 . S
C426 C423 1.367 . S
C426 C424 1.403 . S
C426 H447 0.929 . S
C427 C428 1.430 . S
C427 C429 1.387 . S
C427 C433 1.404 . S
C428 C421 1.448 . S
C428 C427 1.430 . S
C428 N432 1.351 . S
C429 C427 1.387 . S
C429 C430 1.374 . S
C429 H444 0.931 . S
C430 C424 1.439 . S
C430 C429 1.374 . S
C430 H445 0.931 . S
Eu431 N422 2.600 . S
Eu431 N432 2.562 . S
Eu431 O466 2.335 1_565 S
Eu431 O469 2.372 1_565 S
Eu431 O470 2.462 . S
Eu431 O471 2.373 1_565 S
Eu431 O473 2.432 . S
Eu431 O474 2.291 1_565 S
Eu431 C495 2.787 . S
N432 C428 1.351 . S
N432 Eu431 2.562 . S
N432 C434 1.325 . S
C433 C427 1.404 . S
C433 C435 1.366 . S
C433 H441 0.930 . S
C434 N432 1.325 . S
C434 C435 1.416 . S
C434 H440 0.929 . S
C435 C433 1.366 . S
C435 C434 1.416 . S
C435 H437 0.930 . S
H436 C425 0.930 . S
H437 C435 0.930 . S
H438 C453 0.930 . S
H439 C460 0.930 . S
H440 C434 0.929 . S
H441 C433 0.930 . S
H442 C456 0.929 . S
H443 C423 0.931 . S
H444 C429 0.931 . S
H445 C430 0.931 . S
H446 C451 0.931 . S
H447 C426 0.929 . S
H448 C459 0.930 . S
N449 Eu420 2.600 . S
N449 C450 1.365 . S
N449 C453 1.319 . S
C450 N449 1.365 . S
C450 C452 1.405 . S
C450 C458 1.448 . S
C451 H446 0.931 . S
C451 C453 1.397 . S
C451 C454 1.367 . S
C452 C450 1.405 . S
C452 C454 1.403 . S
C452 C485 1.439 . S
C453 H438 0.930 . S
C453 N449 1.319 . S
C453 C451 1.397 . S
C454 C451 1.367 . S
C454 C452 1.403 . S
C454 H461 0.929 . S
N455 Eu420 2.562 . S
N455 C456 1.325 . S
N455 C458 1.351 . S
C456 H442 0.929 . S
C456 N455 1.325 . S
C456 C460 1.416 . S
C457 C458 1.430 . S
C457 C459 1.404 . S
C457 C486 1.387 . S
C458 C450 1.448 . S
C458 N455 1.351 . S
C458 C457 1.430 . S
C459 H448 0.930 . S
C459 C457 1.404 . S
C459 C460 1.366 . S
C460 H439 0.930 . S
C460 C456 1.416 . S
C460 C459 1.366 . S
H461 C454 0.929 . S
H462 C485 0.931 . S
H463 C486 0.931 . S
O464 Eu420 2.462 . S
O464 C484 1.252 . S
O465 Eu420 2.373 . S
O465 C476 1.249 . S
O466 Eu431 2.335 1_545 S
O466 C476 1.264 . S
O467 Eu420 2.432 . S
O467 C484 1.268 . S
O468 Eu420 2.291 . S
O468 C483 1.255 . S
O469 Eu431 2.372 1_545 S
O469 C483 1.257 . S
O470 Eu431 2.462 . S
O470 C495 1.252 . S
O471 Eu431 2.373 1_545 S
O471 C487 1.249 . S
O472 Eu420 2.335 . S
O472 C487 1.264 . S
O473 Eu431 2.432 . S
O473 C495 1.268 . S
O474 Eu431 2.291 1_545 S
O474 C494 1.255 . S
O475 Eu420 2.372 . S
O475 C494 1.257 . S
C476 O465 1.249 . S
C476 O466 1.264 . S
C477 C480 1.382 . S
C477 C482 1.390 . S
C477 C484 1.506 . S
C478 C479 1.398 . S
C478 C482 1.392 . S
C479 C478 1.398 . S
C479 C481 1.372 . S
C479 H496 0.931 . S
C480 C477 1.382 . S
C480 C481 1.390 . S
C480 H497 0.931 . S
C481 C479 1.372 . S
C481 C480 1.390 . S
C481 H498 0.929 . S
C482 C477 1.390 . S
C482 C478 1.392 . S
C482 H499 0.930 . S
C483 O468 1.255 . S
C483 O469 1.257 . S
C484 Eu420 2.787 . S
C484 O464 1.252 . S
C484 O467 1.268 . S
C484 C477 1.506 . S
C485 C452 1.439 . S
C485 H462 0.931 . S
C485 C486 1.374 . S
C486 C457 1.387 . S
C486 H463 0.931 . S
C486 C485 1.374 . S
C487 O471 1.249 . S
C487 O472 1.264 . S
C488 C491 1.382 . S
C488 C492 1.390 . S
C488 C495 1.506 . S
C489 C490 1.398 . S
C489 C492 1.392 . S
C490 C489 1.398 . S
C490 C493 1.372 . S
C490 H500 0.931 . S
C491 C488 1.382 . S
C491 C493 1.390 . S
C491 H501 0.931 . S
C492 C488 1.390 . S
C492 C489 1.392 . S
C492 H502 0.930 . S
C493 C490 1.372 . S
C493 C491 1.390 . S
C493 H503 0.929 . S
C494 O474 1.255 . S
C494 O475 1.257 . S
C495 Eu431 2.787 . S
C495 O470 1.252 . S
C495 O473 1.268 . S
C495 C488 1.506 . S
H496 C479 0.931 . S
H497 C480 0.931 . S
H498 C481 0.929 . S
H499 C482 0.930 . S
H500 C490 0.931 . S
H501 C491 0.931 . S
H502 C492 0.930 . S
H503 C493 0.929 . S
Eu504 N533 2.600 . S
Eu504 N539 2.562 . S
Eu504 O548 2.462 . S
Eu504 O549 2.373 . S
Eu504 O551 2.432 . S
Eu504 O552 2.291 . S
Eu504 O556 2.335 . S
Eu504 O559 2.372 . S
Eu504 C568 2.787 . S
C505 N506 1.365 . S
C505 C508 1.405 . S
C505 C512 1.448 . S
N506 C505 1.365 . S
N506 C509 1.319 . S
N506 Eu515 2.600 . S
C507 C509 1.397 . S
C507 C510 1.367 . S
C507 H527 0.931 . S
C508 C505 1.405 . S
C508 C510 1.403 . S
C508 C514 1.439 . S
C509 N506 1.319 . S
C509 C507 1.397 . S
C509 H520 0.930 . S
C510 C507 1.367 . S
C510 C508 1.403 . S
C510 H531 0.929 . S
C511 C512 1.430 . S
C511 C513 1.387 . S
C511 C517 1.404 . S
C512 C505 1.448 . S
C512 C511 1.430 . S
C512 N516 1.351 . S
C513 C511 1.387 . S
C513 C514 1.374 . S
C513 H528 0.931 . S
C514 C508 1.439 . S
C514 C513 1.374 . S
C514 H529 0.931 . S
Eu515 N506 2.600 . S
Eu515 N516 2.562 . S
Eu515 O550 2.335 . S
Eu515 O553 2.372 . S
Eu515 O554 2.462 . S
Eu515 O555 2.373 . S
Eu515 O557 2.432 . S
Eu515 O558 2.291 . S
Eu515 C579 2.787 . S
N516 C512 1.351 . S
N516 Eu515 2.562 . S
N516 C518 1.325 . S
C517 C511 1.404 . S
C517 C519 1.366 . S
C517 H525 0.930 . S
C518 N516 1.325 . S
C518 C519 1.416 . S
C518 H524 0.929 . S
C519 C517 1.366 . S
C519 C518 1.416 . S
C519 H521 0.930 . S
H520 C509 0.930 . S
H521 C519 0.930 . S
H522 C537 0.930 . S
H523 C544 0.930 . S
H524 C518 0.929 . S
H525 C517 0.930 . S
H526 C540 0.929 . S
H527 C507 0.931 . S
H528 C513 0.931 . S
H529 C514 0.931 . S
H530 C535 0.931 . S
H531 C510 0.929 . S
H532 C543 0.930 . S
N533 Eu504 2.600 . S
N533 C534 1.365 . S
N533 C537 1.319 . S
C534 N533 1.365 . S
C534 C536 1.405 . S
C534 C542 1.448 . S
C535 H530 0.931 . S
C535 C537 1.397 . S
C535 C538 1.367 . S
C536 C534 1.405 . S
C536 C538 1.403 . S
C536 C569 1.439 . S
C537 H522 0.930 . S
C537 N533 1.319 . S
C537 C535 1.397 . S
C538 C535 1.367 . S
C538 C536 1.403 . S
C538 H545 0.929 . S
N539 Eu504 2.562 . S
N539 C540 1.325 . S
N539 C542 1.351 . S
C540 H526 0.929 . S
C540 N539 1.325 . S
C540 C544 1.416 . S
C541 C542 1.430 . S
C541 C543 1.404 . S
C541 C570 1.387 . S
C542 C534 1.448 . S
C542 N539 1.351 . S
C542 C541 1.430 . S
C543 H532 0.930 . S
C543 C541 1.404 . S
C543 C544 1.366 . S
C544 H523 0.930 . S
C544 C540 1.416 . S
C544 C543 1.366 . S
H545 C538 0.929 . S
H546 C569 0.931 . S
H547 C570 0.931 . S
O548 Eu504 2.462 . S
O548 C568 1.252 . S
O549 Eu504 2.373 . S
O549 C560 1.249 . S
O550 Eu515 2.335 . S
O550 C560 1.264 . S
O551 Eu504 2.432 . S
O551 C568 1.268 . S
O552 Eu504 2.291 . S
O552 C567 1.255 . S
O553 Eu515 2.372 . S
O553 C567 1.257 . S
O554 Eu515 2.462 . S
O554 C579 1.252 . S
O555 Eu515 2.373 . S
O555 C571 1.249 . S
O556 Eu504 2.335 . S
O556 C571 1.264 . S
O557 Eu515 2.432 . S
O557 C579 1.268 . S
O558 Eu515 2.291 . S
O558 C578 1.255 . S
O559 Eu504 2.372 . S
O559 C578 1.257 . S
C560 O549 1.249 . S
C560 O550 1.264 . S
C561 C564 1.382 . S
C561 C566 1.390 . S
C561 C568 1.506 . S
C562 C563 1.398 . S
C562 C566 1.392 . S
C563 C562 1.398 . S
C563 C565 1.372 . S
C563 H580 0.931 . S
C564 C561 1.382 . S
C564 C565 1.390 . S
C564 H581 0.931 . S
C565 C563 1.372 . S
C565 C564 1.390 . S
C565 H582 0.929 . S
C566 C561 1.390 . S
C566 C562 1.392 . S
C566 H583 0.930 . S
C567 O552 1.255 . S
C567 O553 1.257 . S
C568 Eu504 2.787 . S
C568 O548 1.252 . S
C568 O551 1.268 . S
C568 C561 1.506 . S
C569 C536 1.439 . S
C569 H546 0.931 . S
C569 C570 1.374 . S
C570 C541 1.387 . S
C570 H547 0.931 . S
C570 C569 1.374 . S
C571 O555 1.249 . S
C571 O556 1.264 . S
C572 C575 1.382 . S
C572 C576 1.390 . S
C572 C579 1.506 . S
C573 C574 1.398 . S
C573 C576 1.392 . S
C574 C573 1.398 . S
C574 C577 1.372 . S
C574 H584 0.931 . S
C575 C572 1.382 . S
C575 C577 1.390 . S
C575 H585 0.931 . S
C576 C572 1.390 . S
C576 C573 1.392 . S
C576 H586 0.930 . S
C577 C574 1.372 . S
C577 C575 1.390 . S
C577 H587 0.929 . S
C578 O558 1.255 . S
C578 O559 1.257 . S
C579 Eu515 2.787 . S
C579 O554 1.252 . S
C579 O557 1.268 . S
C579 C572 1.506 . S
H580 C563 0.931 . S
H581 C564 0.931 . S
H582 C565 0.929 . S
H583 C566 0.930 . S
H584 C574 0.931 . S
H585 C575 0.931 . S
H586 C576 0.930 . S
H587 C577 0.929 . S
Eu588 N617 2.600 . S
Eu588 N623 2.562 . S
Eu588 O632 2.462 . S
Eu588 O633 2.373 . S
Eu588 O635 2.432 . S
Eu588 O636 2.291 . S
Eu588 O640 2.335 . S
Eu588 O643 2.372 . S
Eu588 C652 2.787 . S
C589 N590 1.365 . S
C589 C592 1.405 . S
C589 C596 1.448 . S
N590 C589 1.365 . S
N590 C593 1.319 . S
N590 Eu599 2.600 . S
C591 C593 1.397 . S
C591 C594 1.367 . S
C591 H611 0.931 . S
C592 C589 1.405 . S
C592 C594 1.403 . S
C592 C598 1.439 . S
C593 N590 1.319 . S
C593 C591 1.397 . S
C593 H604 0.930 . S
C594 C591 1.367 . S
C594 C592 1.403 . S
C594 H615 0.929 . S
C595 C596 1.430 . S
C595 C597 1.387 . S
C595 C601 1.404 . S
C596 C589 1.448 . S
C596 C595 1.430 . S
C596 N600 1.351 . S
C597 C595 1.387 . S
C597 C598 1.374 . S
C597 H612 0.931 . S
C598 C592 1.439 . S
C598 C597 1.374 . S
C598 H613 0.931 . S
Eu599 N590 2.600 . S
Eu599 N600 2.562 . S
Eu599 O634 2.335 . S
Eu599 O637 2.372 . S
Eu599 O638 2.462 . S
Eu599 O639 2.373 . S
Eu599 O641 2.432 . S
Eu599 O642 2.291 . S
Eu599 C663 2.787 . S
N600 C596 1.351 . S
N600 Eu599 2.562 . S
N600 C602 1.325 . S
C601 C595 1.404 . S
C601 C603 1.366 . S
C601 H609 0.930 . S
C602 N600 1.325 . S
C602 C603 1.416 . S
C602 H608 0.929 . S
C603 C601 1.366 . S
C603 C602 1.416 . S
C603 H605 0.930 . S
H604 C593 0.930 . S
H605 C603 0.930 . S
H606 C621 0.930 . S
H607 C628 0.930 . S
H608 C602 0.929 . S
H609 C601 0.930 . S
H610 C624 0.929 . S
H611 C591 0.931 . S
H612 C597 0.931 . S
H613 C598 0.931 . S
H614 C619 0.931 . S
H615 C594 0.929 . S
H616 C627 0.930 . S
N617 Eu588 2.600 . S
N617 C618 1.365 . S
N617 C621 1.319 . S
C618 N617 1.365 . S
C618 C620 1.405 . S
C618 C626 1.448 . S
C619 H614 0.931 . S
C619 C621 1.397 . S
C619 C622 1.367 . S
C620 C618 1.405 . S
C620 C622 1.403 . S
C620 C653 1.439 . S
C621 H606 0.930 . S
C621 N617 1.319 . S
C621 C619 1.397 . S
C622 C619 1.367 . S
C622 C620 1.403 . S
C622 H629 0.929 . S
N623 Eu588 2.562 . S
N623 C624 1.325 . S
N623 C626 1.351 . S
C624 H610 0.929 . S
C624 N623 1.325 . S
C624 C628 1.416 . S
C625 C626 1.430 . S
C625 C627 1.404 . S
C625 C654 1.387 . S
C626 C618 1.448 . S
C626 N623 1.351 . S
C626 C625 1.430 . S
C627 H616 0.930 . S
C627 C625 1.404 . S
C627 C628 1.366 . S
C628 H607 0.930 . S
C628 C624 1.416 . S
C628 C627 1.366 . S
H629 C622 0.929 . S
H630 C653 0.931 . S
H631 C654 0.931 . S
O632 Eu588 2.462 . S
O632 C652 1.252 . S
O633 Eu588 2.373 . S
O633 C644 1.249 . S
O634 Eu599 2.335 . S
O634 C644 1.264 . S
O635 Eu588 2.432 . S
O635 C652 1.268 . S
O636 Eu588 2.291 . S
O636 C651 1.255 . S
O637 Eu599 2.372 . S
O637 C651 1.257 . S
O638 Eu599 2.462 . S
O638 C663 1.252 . S
O639 Eu599 2.373 . S
O639 C655 1.249 . S
O640 Eu588 2.335 . S
O640 C655 1.264 . S
O641 Eu599 2.432 . S
O641 C663 1.268 . S
O642 Eu599 2.291 . S
O642 C662 1.255 . S
O643 Eu588 2.372 . S
O643 C662 1.257 . S
C644 O633 1.249 . S
C644 O634 1.264 . S
C645 C648 1.382 . S
C645 C650 1.390 . S
C645 C652 1.506 . S
C646 C647 1.398 . S
C646 C650 1.392 . S
C647 C646 1.398 . S
C647 C649 1.372 . S
C647 H664 0.931 . S
C648 C645 1.382 . S
C648 C649 1.390 . S
C648 H665 0.931 . S
C649 C647 1.372 . S
C649 C648 1.390 . S
C649 H666 0.929 . S
C650 C645 1.390 . S
C650 C646 1.392 . S
C650 H667 0.930 . S
C651 O636 1.255 . S
C651 O637 1.257 . S
C652 Eu588 2.787 . S
C652 O632 1.252 . S
C652 O635 1.268 . S
C652 C645 1.506 . S
C653 C620 1.439 . S
C653 H630 0.931 . S
C653 C654 1.374 . S
C654 C625 1.387 . S
C654 H631 0.931 . S
C654 C653 1.374 . S
C655 O639 1.249 . S
C655 O640 1.264 . S
C656 C659 1.382 . S
C656 C660 1.390 . S
C656 C663 1.506 . S
C657 C658 1.398 . S
C657 C660 1.392 . S
C658 C657 1.398 . S
C658 C661 1.372 . S
C658 H668 0.931 . S
C659 C656 1.382 . S
C659 C661 1.390 . S
C659 H669 0.931 . S
C660 C656 1.390 . S
C660 C657 1.392 . S
C660 H670 0.930 . S
C661 C658 1.372 . S
C661 C659 1.390 . S
C661 H671 0.929 . S
C662 O642 1.255 . S
C662 O643 1.257 . S
C663 Eu599 2.787 . S
C663 O638 1.252 . S
C663 O641 1.268 . S
C663 C656 1.506 . S
H664 C647 0.931 . S
H665 C648 0.931 . S
H666 C649 0.929 . S
H667 C650 0.930 . S
H668 C658 0.931 . S
H669 C659 0.931 . S
H670 C660 0.930 . S
H671 C661 0.929 . S
Eu672 N701 2.600 . S
Eu672 N707 2.562 . S
Eu672 O716 2.462 . S
Eu672 O717 2.373 1_455 S
Eu672 O719 2.432 . S
Eu672 O720 2.291 1_455 S
Eu672 O724 2.335 1_455 S
Eu672 O727 2.372 1_455 S
Eu672 C736 2.787 . S
C673 N674 1.365 . S
C673 C676 1.405 . S
C673 C680 1.448 . S
N674 C673 1.365 . S
N674 C677 1.319 . S
N674 Eu683 2.600 . S
C675 C677 1.397 . S
C675 C678 1.367 . S
C675 H695 0.931 . S
C676 C673 1.405 . S
C676 C678 1.403 . S
C676 C682 1.439 . S
C677 N674 1.319 . S
C677 C675 1.397 . S
C677 H688 0.930 . S
C678 C675 1.367 . S
C678 C676 1.403 . S
C678 H699 0.929 . S
C679 C680 1.430 . S
C679 C681 1.387 . S
C679 C685 1.404 . S
C680 C673 1.448 . S
C680 C679 1.430 . S
C680 N684 1.351 . S
C681 C679 1.387 . S
C681 C682 1.374 . S
C681 H696 0.931 . S
C682 C676 1.439 . S
C682 C681 1.374 . S
C682 H697 0.931 . S
Eu683 N674 2.600 . S
Eu683 N684 2.562 . S
Eu683 O718 2.335 . S
Eu683 O721 2.372 . S
Eu683 O722 2.462 . S
Eu683 O723 2.373 . S
Eu683 O725 2.432 . S
Eu683 O726 2.291 . S
Eu683 C747 2.787 . S
N684 C680 1.351 . S
N684 Eu683 2.562 . S
N684 C686 1.325 . S
C685 C679 1.404 . S
C685 C687 1.366 . S
C685 H693 0.930 . S
C686 N684 1.325 . S
C686 C687 1.416 . S
C686 H692 0.929 . S
C687 C685 1.366 . S
C687 C686 1.416 . S
C687 H689 0.930 . S
H688 C677 0.930 . S
H689 C687 0.930 . S
H690 C705 0.930 . S
H691 C712 0.930 . S
H692 C686 0.929 . S
H693 C685 0.930 . S
H694 C708 0.929 . S
H695 C675 0.931 . S
H696 C681 0.931 . S
H697 C682 0.931 . S
H698 C703 0.931 . S
H699 C678 0.929 . S
H700 C711 0.930 . S
N701 Eu672 2.600 . S
N701 C702 1.365 . S
N701 C705 1.319 . S
C702 N701 1.365 . S
C702 C704 1.405 . S
C702 C710 1.448 . S
C703 H698 0.931 . S
C703 C705 1.397 . S
C703 C706 1.367 . S
C704 C702 1.405 . S
C704 C706 1.403 . S
C704 C737 1.439 . S
C705 H690 0.930 . S
C705 N701 1.319 . S
C705 C703 1.397 . S
C706 C703 1.367 . S
C706 C704 1.403 . S
C706 H713 0.929 . S
N707 Eu672 2.562 . S
N707 C708 1.325 . S
N707 C710 1.351 . S
C708 H694 0.929 . S
C708 N707 1.325 . S
C708 C712 1.416 . S
C709 C710 1.430 . S
C709 C711 1.404 . S
C709 C738 1.387 . S
C710 C702 1.448 . S
C710 N707 1.351 . S
C710 C709 1.430 . S
C711 H700 0.930 . S
C711 C709 1.404 . S
C711 C712 1.366 . S
C712 H691 0.930 . S
C712 C708 1.416 . S
C712 C711 1.366 . S
H713 C706 0.929 . S
H714 C737 0.931 . S
H715 C738 0.931 . S
O716 Eu672 2.462 . S
O716 C736 1.252 . S
O717 Eu672 2.373 1_655 S
O717 C728 1.249 . S
O718 Eu683 2.335 . S
O718 C728 1.264 . S
O719 Eu672 2.432 . S
O719 C736 1.268 . S
O720 Eu672 2.291 1_655 S
O720 C735 1.255 . S
O721 Eu683 2.372 . S
O721 C735 1.257 . S
O722 Eu683 2.462 . S
O722 C747 1.252 . S
O723 Eu683 2.373 . S
O723 C739 1.249 . S
O724 Eu672 2.335 1_655 S
O724 C739 1.264 . S
O725 Eu683 2.432 . S
O725 C747 1.268 . S
O726 Eu683 2.291 . S
O726 C746 1.255 . S
O727 Eu672 2.372 1_655 S
O727 C746 1.257 . S
C728 O717 1.249 . S
C728 O718 1.264 . S
C729 C732 1.382 . S
C729 C734 1.390 . S
C729 C736 1.506 . S
C730 C731 1.398 . S
C730 C734 1.392 . S
C731 C730 1.398 . S
C731 C733 1.372 . S
C731 H748 0.931 . S
C732 C729 1.382 . S
C732 C733 1.390 . S
C732 H749 0.931 . S
C733 C731 1.372 . S
C733 C732 1.390 . S
C733 H750 0.929 . S
C734 C729 1.390 . S
C734 C730 1.392 . S
C734 H751 0.930 . S
C735 O720 1.255 . S
C735 O721 1.257 . S
C736 Eu672 2.787 . S
C736 O716 1.252 . S
C736 O719 1.268 . S
C736 C729 1.506 . S
C737 C704 1.439 . S
C737 H714 0.931 . S
C737 C738 1.374 . S
C738 C709 1.387 . S
C738 H715 0.931 . S
C738 C737 1.374 . S
C739 O723 1.249 . S
C739 O724 1.264 . S
C740 C743 1.382 . S
C740 C744 1.390 . S
C740 C747 1.506 . S
C741 C742 1.398 . S
C741 C744 1.392 . S
C742 C741 1.398 . S
C742 C745 1.372 . S
C742 H752 0.931 . S
C743 C740 1.382 . S
C743 C745 1.390 . S
C743 H753 0.931 . S
C744 C740 1.390 . S
C744 C741 1.392 . S
C744 H754 0.930 . S
C745 C742 1.372 . S
C745 C743 1.390 . S
C745 H755 0.929 . S
C746 O726 1.255 . S
C746 O727 1.257 . S
C747 Eu683 2.787 . S
C747 O722 1.252 . S
C747 O725 1.268 . S
C747 C740 1.506 . S
H748 C731 0.931 . S
H749 C732 0.931 . S
H750 C733 0.929 . S
H751 C734 0.930 . S
H752 C742 0.931 . S
H753 C743 0.931 . S
H754 C744 0.930 . S
H755 C745 0.929 . S
Eu756 N785 2.600 . S
Eu756 N791 2.562 . S
Eu756 O800 2.462 . S
Eu756 O801 2.373 1_545 S
Eu756 O803 2.432 . S
Eu756 O804 2.291 1_545 S
Eu756 O808 2.335 1_545 S
Eu756 O811 2.372 1_545 S
Eu756 C820 2.787 . S
C757 N758 1.365 . S
C757 C760 1.405 . S
C757 C764 1.448 . S
N758 C757 1.365 . S
N758 C761 1.319 . S
N758 Eu767 2.600 . S
C759 C761 1.397 . S
C759 C762 1.367 . S
C759 H779 0.931 . S
C760 C757 1.405 . S
C760 C762 1.403 . S
C760 C766 1.439 . S
C761 N758 1.319 . S
C761 C759 1.397 . S
C761 H772 0.930 . S
C762 C759 1.367 . S
C762 C760 1.403 . S
C762 H783 0.929 . S
C763 C764 1.430 . S
C763 C765 1.387 . S
C763 C769 1.404 . S
C764 C757 1.448 . S
C764 C763 1.430 . S
C764 N768 1.351 . S
C765 C763 1.387 . S
C765 C766 1.374 . S
C765 H780 0.931 . S
C766 C760 1.439 . S
C766 C765 1.374 . S
C766 H781 0.931 . S
Eu767 N758 2.600 . S
Eu767 N768 2.562 . S
Eu767 O802 2.335 . S
Eu767 O805 2.372 . S
Eu767 O806 2.462 . S
Eu767 O807 2.373 . S
Eu767 O809 2.432 . S
Eu767 O810 2.291 . S
Eu767 C831 2.787 . S
N768 C764 1.351 . S
N768 Eu767 2.562 . S
N768 C770 1.325 . S
C769 C763 1.404 . S
C769 C771 1.366 . S
C769 H777 0.930 . S
C770 N768 1.325 . S
C770 C771 1.416 . S
C770 H776 0.929 . S
C771 C769 1.366 . S
C771 C770 1.416 . S
C771 H773 0.930 . S
H772 C761 0.930 . S
H773 C771 0.930 . S
H774 C789 0.930 . S
H775 C796 0.930 . S
H776 C770 0.929 . S
H777 C769 0.930 . S
H778 C792 0.929 . S
H779 C759 0.931 . S
H780 C765 0.931 . S
H781 C766 0.931 . S
H782 C787 0.931 . S
H783 C762 0.929 . S
H784 C795 0.930 . S
N785 Eu756 2.600 . S
N785 C786 1.365 . S
N785 C789 1.319 . S
C786 N785 1.365 . S
C786 C788 1.405 . S
C786 C794 1.448 . S
C787 H782 0.931 . S
C787 C789 1.397 . S
C787 C790 1.367 . S
C788 C786 1.405 . S
C788 C790 1.403 . S
C788 C821 1.439 . S
C789 H774 0.930 . S
C789 N785 1.319 . S
C789 C787 1.397 . S
C790 C787 1.367 . S
C790 C788 1.403 . S
C790 H797 0.929 . S
N791 Eu756 2.562 . S
N791 C792 1.325 . S
N791 C794 1.351 . S
C792 H778 0.929 . S
C792 N791 1.325 . S
C792 C796 1.416 . S
C793 C794 1.430 . S
C793 C795 1.404 . S
C793 C822 1.387 . S
C794 C786 1.448 . S
C794 N791 1.351 . S
C794 C793 1.430 . S
C795 H784 0.930 . S
C795 C793 1.404 . S
C795 C796 1.366 . S
C796 H775 0.930 . S
C796 C792 1.416 . S
C796 C795 1.366 . S
H797 C790 0.929 . S
H798 C821 0.931 . S
H799 C822 0.931 . S
O800 Eu756 2.462 . S
O800 C820 1.252 . S
O801 Eu756 2.373 1_565 S
O801 C812 1.249 . S
O802 Eu767 2.335 . S
O802 C812 1.264 . S
O803 Eu756 2.432 . S
O803 C820 1.268 . S
O804 Eu756 2.291 1_565 S
O804 C819 1.255 . S
O805 Eu767 2.372 . S
O805 C819 1.257 . S
O806 Eu767 2.462 . S
O806 C831 1.252 . S
O807 Eu767 2.373 . S
O807 C823 1.249 . S
O808 Eu756 2.335 1_565 S
O808 C823 1.264 . S
O809 Eu767 2.432 . S
O809 C831 1.268 . S
O810 Eu767 2.291 . S
O810 C830 1.255 . S
O811 Eu756 2.372 1_565 S
O811 C830 1.257 . S
C812 O801 1.249 . S
C812 O802 1.264 . S
C813 C816 1.382 . S
C813 C818 1.390 . S
C813 C820 1.506 . S
C814 C815 1.398 . S
C814 C818 1.392 . S
C815 C814 1.398 . S
C815 C817 1.372 . S
C815 H832 0.931 . S
C816 C813 1.382 . S
C816 C817 1.390 . S
C816 H833 0.931 . S
C817 C815 1.372 . S
C817 C816 1.390 . S
C817 H834 0.929 . S
C818 C813 1.390 . S
C818 C814 1.392 . S
C818 H835 0.930 . S
C819 O804 1.255 . S
C819 O805 1.257 . S
C820 Eu756 2.787 . S
C820 O800 1.252 . S
C820 O803 1.268 . S
C820 C813 1.506 . S
C821 C788 1.439 . S
C821 H798 0.931 . S
C821 C822 1.374 . S
C822 C793 1.387 . S
C822 H799 0.931 . S
C822 C821 1.374 . S
C823 O807 1.249 . S
C823 O808 1.264 . S
C824 C827 1.382 . S
C824 C828 1.390 . S
C824 C831 1.506 . S
C825 C826 1.398 . S
C825 C828 1.392 . S
C826 C825 1.398 . S
C826 C829 1.372 . S
C826 H836 0.931 . S
C827 C824 1.382 . S
C827 C829 1.390 . S
C827 H837 0.931 . S
C828 C824 1.390 . S
C828 C825 1.392 . S
C828 H838 0.930 . S
C829 C826 1.372 . S
C829 C827 1.390 . S
C829 H839 0.929 . S
C830 O810 1.255 . S
C830 O811 1.257 . S
C831 Eu767 2.787 . S
C831 O806 1.252 . S
C831 O809 1.268 . S
C831 C824 1.506 . S
H832 C815 0.931 . S
H833 C816 0.931 . S
H834 C817 0.929 . S
H835 C818 0.930 . S
H836 C826 0.931 . S
H837 C827 0.931 . S
H838 C828 0.930 . S
H839 C829 0.929 . S
Eu840 N869 2.600 . S
Eu840 N875 2.562 . S
Eu840 O884 2.462 . S
Eu840 O885 2.373 . S
Eu840 O887 2.432 . S
Eu840 O888 2.291 . S
Eu840 O892 2.335 . S
Eu840 O895 2.372 . S
Eu840 C904 2.787 . S
C841 N842 1.365 . S
C841 C844 1.405 . S
C841 C848 1.448 . S
N842 C841 1.365 . S
N842 C845 1.319 . S
N842 Eu851 2.600 . S
C843 C845 1.397 . S
C843 C846 1.367 . S
C843 H863 0.931 . S
C844 C841 1.405 . S
C844 C846 1.403 . S
C844 C850 1.439 . S
C845 N842 1.319 . S
C845 C843 1.397 . S
C845 H856 0.930 . S
C846 C843 1.367 . S
C846 C844 1.403 . S
C846 H867 0.929 . S
C847 C848 1.430 . S
C847 C849 1.387 . S
C847 C853 1.404 . S
C848 C841 1.448 . S
C848 C847 1.430 . S
C848 N852 1.351 . S
C849 C847 1.387 . S
C849 C850 1.374 . S
C849 H864 0.931 . S
C850 C844 1.439 . S
C850 C849 1.374 . S
C850 H865 0.931 . S
Eu851 N842 2.600 . S
Eu851 N852 2.562 . S
Eu851 O886 2.335 . S
Eu851 O889 2.372 . S
Eu851 O890 2.462 . S
Eu851 O891 2.373 . S
Eu851 O893 2.432 . S
Eu851 O894 2.291 . S
Eu851 C915 2.787 . S
N852 C848 1.351 . S
N852 Eu851 2.562 . S
N852 C854 1.325 . S
C853 C847 1.404 . S
C853 C855 1.366 . S
C853 H861 0.930 . S
C854 N852 1.325 . S
C854 C855 1.416 . S
C854 H860 0.929 . S
C855 C853 1.366 . S
C855 C854 1.416 . S
C855 H857 0.930 . S
H856 C845 0.930 . S
H857 C855 0.930 . S
H858 C873 0.930 . S
H859 C880 0.930 . S
H860 C854 0.929 . S
H861 C853 0.930 . S
H862 C876 0.929 . S
H863 C843 0.931 . S
H864 C849 0.931 . S
H865 C850 0.931 . S
H866 C871 0.931 . S
H867 C846 0.929 . S
H868 C879 0.930 . S
N869 Eu840 2.600 . S
N869 C870 1.365 . S
N869 C873 1.319 . S
C870 N869 1.365 . S
C870 C872 1.405 . S
C870 C878 1.448 . S
C871 H866 0.931 . S
C871 C873 1.397 . S
C871 C874 1.367 . S
C872 C870 1.405 . S
C872 C874 1.403 . S
C872 C905 1.439 . S
C873 H858 0.930 . S
C873 N869 1.319 . S
C873 C871 1.397 . S
C874 C871 1.367 . S
C874 C872 1.403 . S
C874 H881 0.929 . S
N875 Eu840 2.562 . S
N875 C876 1.325 . S
N875 C878 1.351 . S
C876 H862 0.929 . S
C876 N875 1.325 . S
C876 C880 1.416 . S
C877 C878 1.430 . S
C877 C879 1.404 . S
C877 C906 1.387 . S
C878 C870 1.448 . S
C878 N875 1.351 . S
C878 C877 1.430 . S
C879 H868 0.930 . S
C879 C877 1.404 . S
C879 C880 1.366 . S
C880 H859 0.930 . S
C880 C876 1.416 . S
C880 C879 1.366 . S
H881 C874 0.929 . S
H882 C905 0.931 . S
H883 C906 0.931 . S
O884 Eu840 2.462 . S
O884 C904 1.252 . S
O885 Eu840 2.373 . S
O885 C896 1.249 . S
O886 Eu851 2.335 . S
O886 C896 1.264 . S
O887 Eu840 2.432 . S
O887 C904 1.268 . S
O888 Eu840 2.291 . S
O888 C903 1.255 . S
O889 Eu851 2.372 . S
O889 C903 1.257 . S
O890 Eu851 2.462 . S
O890 C915 1.252 . S
O891 Eu851 2.373 . S
O891 C907 1.249 . S
O892 Eu840 2.335 . S
O892 C907 1.264 . S
O893 Eu851 2.432 . S
O893 C915 1.268 . S
O894 Eu851 2.291 . S
O894 C914 1.255 . S
O895 Eu840 2.372 . S
O895 C914 1.257 . S
C896 O885 1.249 . S
C896 O886 1.264 . S
C897 C900 1.382 . S
C897 C902 1.390 . S
C897 C904 1.506 . S
C898 C899 1.398 . S
C898 C902 1.392 . S
C899 C898 1.398 . S
C899 C901 1.372 . S
C899 H916 0.931 . S
C900 C897 1.382 . S
C900 C901 1.390 . S
C900 H917 0.931 . S
C901 C899 1.372 . S
C901 C900 1.390 . S
C901 H918 0.929 . S
C902 C897 1.390 . S
C902 C898 1.392 . S
C902 H919 0.930 . S
C903 O888 1.255 . S
C903 O889 1.257 . S
C904 Eu840 2.787 . S
C904 O884 1.252 . S
C904 O887 1.268 . S
C904 C897 1.506 . S
C905 C872 1.439 . S
C905 H882 0.931 . S
C905 C906 1.374 . S
C906 C877 1.387 . S
C906 H883 0.931 . S
C906 C905 1.374 . S
C907 O891 1.249 . S
C907 O892 1.264 . S
C908 C911 1.382 . S
C908 C912 1.390 . S
C908 C915 1.506 . S
C909 C910 1.398 . S
C909 C912 1.392 . S
C910 C909 1.398 . S
C910 C913 1.372 . S
C910 H920 0.931 . S
C911 C908 1.382 . S
C911 C913 1.390 . S
C911 H921 0.931 . S
C912 C908 1.390 . S
C912 C909 1.392 . S
C912 H922 0.930 . S
C913 C910 1.372 . S
C913 C911 1.390 . S
C913 H923 0.929 . S
C914 O894 1.255 . S
C914 O895 1.257 . S
C915 Eu851 2.787 . S
C915 O890 1.252 . S
C915 O893 1.268 . S
C915 C908 1.506 . S
H916 C899 0.931 . S
H917 C900 0.931 . S
H918 C901 0.929 . S
H919 C902 0.930 . S
H920 C910 0.931 . S
H921 C911 0.931 . S
H922 C912 0.930 . S
H923 C913 0.929 . S
Eu924 N953 2.600 . S
Eu924 N959 2.562 . S
Eu924 O968 2.462 . S
Eu924 O969 2.373 . S
Eu924 O971 2.432 . S
Eu924 O972 2.291 . S
Eu924 O976 2.335 . S
Eu924 O979 2.372 . S
Eu924 C988 2.787 . S
C925 N926 1.365 . S
C925 C928 1.405 . S
C925 C932 1.448 . S
N926 C925 1.365 . S
N926 C929 1.319 . S
N926 Eu935 2.600 . S
C927 C929 1.397 . S
C927 C930 1.367 . S
C927 H947 0.931 . S
C928 C925 1.405 . S
C928 C930 1.403 . S
C928 C934 1.439 . S
C929 N926 1.319 . S
C929 C927 1.397 . S
C929 H940 0.930 . S
C930 C927 1.367 . S
C930 C928 1.403 . S
C930 H951 0.929 . S
C931 C932 1.430 . S
C931 C933 1.387 . S
C931 C937 1.404 . S
C932 C925 1.448 . S
C932 C931 1.430 . S
C932 N936 1.351 . S
C933 C931 1.387 . S
C933 C934 1.374 . S
C933 H948 0.931 . S
C934 C928 1.439 . S
C934 C933 1.374 . S
C934 H949 0.931 . S
Eu935 N926 2.600 . S
Eu935 N936 2.562 . S
Eu935 O970 2.335 . S
Eu935 O973 2.372 . S
Eu935 O974 2.462 . S
Eu935 O975 2.373 . S
Eu935 O977 2.432 . S
Eu935 O978 2.291 . S
Eu935 C999 2.787 . S
N936 C932 1.351 . S
N936 Eu935 2.562 . S
N936 C938 1.325 . S
C937 C931 1.404 . S
C937 C939 1.366 . S
C937 H945 0.930 . S
C938 N936 1.325 . S
C938 C939 1.416 . S
C938 H944 0.929 . S
C939 C937 1.366 . S
C939 C938 1.416 . S
C939 H941 0.930 . S
H940 C929 0.930 . S
H941 C939 0.930 . S
H942 C957 0.930 . S
H943 C964 0.930 . S
H944 C938 0.929 . S
H945 C937 0.930 . S
H946 C960 0.929 . S
H947 C927 0.931 . S
H948 C933 0.931 . S
H949 C934 0.931 . S
H950 C955 0.931 . S
H951 C930 0.929 . S
H952 C963 0.930 . S
N953 Eu924 2.600 . S
N953 C954 1.365 . S
N953 C957 1.319 . S
C954 N953 1.365 . S
C954 C956 1.405 . S
C954 C962 1.448 . S
C955 H950 0.931 . S
C955 C957 1.397 . S
C955 C958 1.367 . S
C956 C954 1.405 . S
C956 C958 1.403 . S
C956 C989 1.439 . S
C957 H942 0.930 . S
C957 N953 1.319 . S
C957 C955 1.397 . S
C958 C955 1.367 . S
C958 C956 1.403 . S
C958 H965 0.929 . S
N959 Eu924 2.562 . S
N959 C960 1.325 . S
N959 C962 1.351 . S
C960 H946 0.929 . S
C960 N959 1.325 . S
C960 C964 1.416 . S
C961 C962 1.430 . S
C961 C963 1.404 . S
C961 C990 1.387 . S
C962 C954 1.448 . S
C962 N959 1.351 . S
C962 C961 1.430 . S
C963 H952 0.930 . S
C963 C961 1.404 . S
C963 C964 1.366 . S
C964 H943 0.930 . S
C964 C960 1.416 . S
C964 C963 1.366 . S
H965 C958 0.929 . S
H966 C989 0.931 . S
H967 C990 0.931 . S
O968 Eu924 2.462 . S
O968 C988 1.252 . S
O969 Eu924 2.373 . S
O969 C980 1.249 . S
O970 Eu935 2.335 . S
O970 C980 1.264 . S
O971 Eu924 2.432 . S
O971 C988 1.268 . S
O972 Eu924 2.291 . S
O972 C987 1.255 . S
O973 Eu935 2.372 . S
O973 C987 1.257 . S
O974 Eu935 2.462 . S
O974 C999 1.252 . S
O975 Eu935 2.373 . S
O975 C991 1.249 . S
O976 Eu924 2.335 . S
O976 C991 1.264 . S
O977 Eu935 2.432 . S
O977 C999 1.268 . S
O978 Eu935 2.291 . S
O978 C998 1.255 . S
O979 Eu924 2.372 . S
O979 C998 1.257 . S
C980 O969 1.249 . S
C980 O970 1.264 . S
C981 C984 1.382 . S
C981 C986 1.390 . S
C981 C988 1.506 . S
C982 C983 1.398 . S
C982 C986 1.392 . S
C983 C982 1.398 . S
C983 C985 1.372 . S
C983 H1000 0.931 . S
C984 C981 1.382 . S
C984 C985 1.390 . S
C984 H1001 0.931 . S
C985 C983 1.372 . S
C985 C984 1.390 . S
C985 H1002 0.929 . S
C986 C981 1.390 . S
C986 C982 1.392 . S
C986 H1003 0.930 . S
C987 O972 1.255 . S
C987 O973 1.257 . S
C988 Eu924 2.787 . S
C988 O968 1.252 . S
C988 O971 1.268 . S
C988 C981 1.506 . S
C989 C956 1.439 . S
C989 H966 0.931 . S
C989 C990 1.374 . S
C990 C961 1.387 . S
C990 H967 0.931 . S
C990 C989 1.374 . S
C991 O975 1.249 . S
C991 O976 1.264 . S
C992 C995 1.382 . S
C992 C996 1.390 . S
C992 C999 1.506 . S
C993 C994 1.398 . S
C993 C996 1.392 . S
C994 C993 1.398 . S
C994 C997 1.372 . S
C994 H1004 0.931 . S
C995 C992 1.382 . S
C995 C997 1.390 . S
C995 H1005 0.931 . S
C996 C992 1.390 . S
C996 C993 1.392 . S
C996 H1006 0.930 . S
C997 C994 1.372 . S
C997 C995 1.390 . S
C997 H1007 0.929 . S
C998 O978 1.255 . S
C998 O979 1.257 . S
C999 Eu935 2.787 . S
C999 O974 1.252 . S
C999 O977 1.268 . S
C999 C992 1.506 . S
H1000 C983 0.931 . S
H1001 C984 0.931 . S
H1002 C985 0.929 . S
H1003 C986 0.930 . S
H1004 C994 0.931 . S
H1005 C995 0.931 . S
H1006 C996 0.930 . S
H1007 C997 0.929 . S
Eu1008 N1037 2.600 . S
Eu1008 N1043 2.562 . S
Eu1008 O1052 2.462 . S
Eu1008 O1053 2.373 1_455 S
Eu1008 O1055 2.432 . S
Eu1008 O1056 2.291 1_455 S
Eu1008 O1060 2.335 1_455 S
Eu1008 O1063 2.372 1_455 S
Eu1008 C1072 2.787 . S
C1009 N1010 1.365 . S
C1009 C1012 1.405 . S
C1009 C1016 1.448 . S
N1010 C1009 1.365 . S
N1010 C1013 1.319 . S
N1010 Eu1019 2.600 . S
C1011 C1013 1.397 . S
C1011 C1014 1.367 . S
C1011 H1031 0.931 . S
C1012 C1009 1.405 . S
C1012 C1014 1.403 . S
C1012 C1018 1.439 . S
C1013 N1010 1.319 . S
C1013 C1011 1.397 . S
C1013 H1024 0.930 . S
C1014 C1011 1.367 . S
C1014 C1012 1.403 . S
C1014 H1035 0.929 . S
C1015 C1016 1.430 . S
C1015 C1017 1.387 . S
C1015 C1021 1.404 . S
C1016 C1009 1.448 . S
C1016 C1015 1.430 . S
C1016 N1020 1.351 . S
C1017 C1015 1.387 . S
C1017 C1018 1.374 . S
C1017 H1032 0.931 . S
C1018 C1012 1.439 . S
C1018 C1017 1.374 . S
C1018 H1033 0.931 . S
Eu1019 N1010 2.600 . S
Eu1019 N1020 2.562 . S
Eu1019 O1054 2.335 . S
Eu1019 O1057 2.372 . S
Eu1019 O1058 2.462 . S
Eu1019 O1059 2.373 . S
Eu1019 O1061 2.432 . S
Eu1019 O1062 2.291 . S
Eu1019 C1083 2.787 . S
N1020 C1016 1.351 . S
N1020 Eu1019 2.562 . S
N1020 C1022 1.325 . S
C1021 C1015 1.404 . S
C1021 C1023 1.366 . S
C1021 H1029 0.930 . S
C1022 N1020 1.325 . S
C1022 C1023 1.416 . S
C1022 H1028 0.929 . S
C1023 C1021 1.366 . S
C1023 C1022 1.416 . S
C1023 H1025 0.930 . S
H1024 C1013 0.930 . S
H1025 C1023 0.930 . S
H1026 C1041 0.930 . S
H1027 C1048 0.930 . S
H1028 C1022 0.929 . S
H1029 C1021 0.930 . S
H1030 C1044 0.929 . S
H1031 C1011 0.931 . S
H1032 C1017 0.931 . S
H1033 C1018 0.931 . S
H1034 C1039 0.931 . S
H1035 C1014 0.929 . S
H1036 C1047 0.930 . S
N1037 Eu1008 2.600 . S
N1037 C1038 1.365 . S
N1037 C1041 1.319 . S
C1038 N1037 1.365 . S
C1038 C1040 1.405 . S
C1038 C1046 1.448 . S
C1039 H1034 0.931 . S
C1039 C1041 1.397 . S
C1039 C1042 1.367 . S
C1040 C1038 1.405 . S
C1040 C1042 1.403 . S
C1040 C1073 1.439 . S
C1041 H1026 0.930 . S
C1041 N1037 1.319 . S
C1041 C1039 1.397 . S
C1042 C1039 1.367 . S
C1042 C1040 1.403 . S
C1042 H1049 0.929 . S
N1043 Eu1008 2.562 . S
N1043 C1044 1.325 . S
N1043 C1046 1.351 . S
C1044 H1030 0.929 . S
C1044 N1043 1.325 . S
C1044 C1048 1.416 . S
C1045 C1046 1.430 . S
C1045 C1047 1.404 . S
C1045 C1074 1.387 . S
C1046 C1038 1.448 . S
C1046 N1043 1.351 . S
C1046 C1045 1.430 . S
C1047 H1036 0.930 . S
C1047 C1045 1.404 . S
C1047 C1048 1.366 . S
C1048 H1027 0.930 . S
C1048 C1044 1.416 . S
C1048 C1047 1.366 . S
H1049 C1042 0.929 . S
H1050 C1073 0.931 . S
H1051 C1074 0.931 . S
O1052 Eu1008 2.462 . S
O1052 C1072 1.252 . S
O1053 Eu1008 2.373 1_655 S
O1053 C1064 1.249 . S
O1054 Eu1019 2.335 . S
O1054 C1064 1.264 . S
O1055 Eu1008 2.432 . S
O1055 C1072 1.268 . S
O1056 Eu1008 2.291 1_655 S
O1056 C1071 1.255 . S
O1057 Eu1019 2.372 . S
O1057 C1071 1.257 . S
O1058 Eu1019 2.462 . S
O1058 C1083 1.252 . S
O1059 Eu1019 2.373 . S
O1059 C1075 1.249 . S
O1060 Eu1008 2.335 1_655 S
O1060 C1075 1.264 . S
O1061 Eu1019 2.432 . S
O1061 C1083 1.268 . S
O1062 Eu1019 2.291 . S
O1062 C1082 1.255 . S
O1063 Eu1008 2.372 1_655 S
O1063 C1082 1.257 . S
C1064 O1053 1.249 . S
C1064 O1054 1.264 . S
C1065 C1068 1.382 . S
C1065 C1070 1.390 . S
C1065 C1072 1.506 . S
C1066 C1067 1.398 . S
C1066 C1070 1.392 . S
C1067 C1066 1.398 . S
C1067 C1069 1.372 . S
C1067 H1084 0.931 . S
C1068 C1065 1.382 . S
C1068 C1069 1.390 . S
C1068 H1085 0.931 . S
C1069 C1067 1.372 . S
C1069 C1068 1.390 . S
C1069 H1086 0.929 . S
C1070 C1065 1.390 . S
C1070 C1066 1.392 . S
C1070 H1087 0.930 . S
C1071 O1056 1.255 . S
C1071 O1057 1.257 . S
C1072 Eu1008 2.787 . S
C1072 O1052 1.252 . S
C1072 O1055 1.268 . S
C1072 C1065 1.506 . S
C1073 C1040 1.439 . S
C1073 H1050 0.931 . S
C1073 C1074 1.374 . S
C1074 C1045 1.387 . S
C1074 H1051 0.931 . S
C1074 C1073 1.374 . S
C1075 O1059 1.249 . S
C1075 O1060 1.264 . S
C1076 C1079 1.382 . S
C1076 C1080 1.390 . S
C1076 C1083 1.506 . S
C1077 C1078 1.398 . S
C1077 C1080 1.392 . S
C1078 C1077 1.398 . S
C1078 C1081 1.372 . S
C1078 H1088 0.931 . S
C1079 C1076 1.382 . S
C1079 C1081 1.390 . S
C1079 H1089 0.931 . S
C1080 C1076 1.390 . S
C1080 C1077 1.392 . S
C1080 H1090 0.930 . S
C1081 C1078 1.372 . S
C1081 C1079 1.390 . S
C1081 H1091 0.929 . S
C1082 O1062 1.255 . S
C1082 O1063 1.257 . S
C1083 Eu1019 2.787 . S
C1083 O1058 1.252 . S
C1083 O1061 1.268 . S
C1083 C1076 1.506 . S
H1084 C1067 0.931 . S
H1085 C1068 0.931 . S
H1086 C1069 0.929 . S
H1087 C1070 0.930 . S
H1088 C1078 0.931 . S
H1089 C1079 0.931 . S
H1090 C1080 0.930 . S
H1091 C1081 0.929 . S
Eu1092 N1121 2.600 . S
Eu1092 N1127 2.562 . S
Eu1092 O1136 2.462 . S
Eu1092 O1137 2.373 1_545 S
Eu1092 O1139 2.432 . S
Eu1092 O1140 2.291 1_545 S
Eu1092 O1144 2.335 1_545 S
Eu1092 O1147 2.372 1_545 S
Eu1092 C1156 2.787 . S
C1093 N1094 1.365 . S
C1093 C1096 1.405 . S
C1093 C1100 1.448 . S
N1094 C1093 1.365 . S
N1094 C1097 1.319 . S
N1094 Eu1103 2.600 . S
C1095 C1097 1.397 . S
C1095 C1098 1.367 . S
C1095 H1115 0.931 . S
C1096 C1093 1.405 . S
C1096 C1098 1.403 . S
C1096 C1102 1.439 . S
C1097 N1094 1.319 . S
C1097 C1095 1.397 . S
C1097 H1108 0.930 . S
C1098 C1095 1.367 . S
C1098 C1096 1.403 . S
C1098 H1119 0.929 . S
C1099 C1100 1.430 . S
C1099 C1101 1.387 . S
C1099 C1105 1.404 . S
C1100 C1093 1.448 . S
C1100 C1099 1.430 . S
C1100 N1104 1.351 . S
C1101 C1099 1.387 . S
C1101 C1102 1.374 . S
C1101 H1116 0.931 . S
C1102 C1096 1.439 . S
C1102 C1101 1.374 . S
C1102 H1117 0.931 . S
Eu1103 N1094 2.600 . S
Eu1103 N1104 2.562 . S
Eu1103 O1138 2.335 . S
Eu1103 O1141 2.372 . S
Eu1103 O1142 2.462 . S
Eu1103 O1143 2.373 . S
Eu1103 O1145 2.432 . S
Eu1103 O1146 2.291 . S
Eu1103 C1167 2.787 . S
N1104 C1100 1.351 . S
N1104 Eu1103 2.562 . S
N1104 C1106 1.325 . S
C1105 C1099 1.404 . S
C1105 C1107 1.366 . S
C1105 H1113 0.930 . S
C1106 N1104 1.325 . S
C1106 C1107 1.416 . S
C1106 H1112 0.929 . S
C1107 C1105 1.366 . S
C1107 C1106 1.416 . S
C1107 H1109 0.930 . S
H1108 C1097 0.930 . S
H1109 C1107 0.930 . S
H1110 C1125 0.930 . S
H1111 C1132 0.930 . S
H1112 C1106 0.929 . S
H1113 C1105 0.930 . S
H1114 C1128 0.929 . S
H1115 C1095 0.931 . S
H1116 C1101 0.931 . S
H1117 C1102 0.931 . S
H1118 C1123 0.931 . S
H1119 C1098 0.929 . S
H1120 C1131 0.930 . S
N1121 Eu1092 2.600 . S
N1121 C1122 1.365 . S
N1121 C1125 1.319 . S
C1122 N1121 1.365 . S
C1122 C1124 1.405 . S
C1122 C1130 1.448 . S
C1123 H1118 0.931 . S
C1123 C1125 1.397 . S
C1123 C1126 1.367 . S
C1124 C1122 1.405 . S
C1124 C1126 1.403 . S
C1124 C1157 1.439 . S
C1125 H1110 0.930 . S
C1125 N1121 1.319 . S
C1125 C1123 1.397 . S
C1126 C1123 1.367 . S
C1126 C1124 1.403 . S
C1126 H1133 0.929 . S
N1127 Eu1092 2.562 . S
N1127 C1128 1.325 . S
N1127 C1130 1.351 . S
C1128 H1114 0.929 . S
C1128 N1127 1.325 . S
C1128 C1132 1.416 . S
C1129 C1130 1.430 . S
C1129 C1131 1.404 . S
C1129 C1158 1.387 . S
C1130 C1122 1.448 . S
C1130 N1127 1.351 . S
C1130 C1129 1.430 . S
C1131 H1120 0.930 . S
C1131 C1129 1.404 . S
C1131 C1132 1.366 . S
C1132 H1111 0.930 . S
C1132 C1128 1.416 . S
C1132 C1131 1.366 . S
H1133 C1126 0.929 . S
H1134 C1157 0.931 . S
H1135 C1158 0.931 . S
O1136 Eu1092 2.462 . S
O1136 C1156 1.252 . S
O1137 Eu1092 2.373 1_565 S
O1137 C1148 1.249 . S
O1138 Eu1103 2.335 . S
O1138 C1148 1.264 . S
O1139 Eu1092 2.432 . S
O1139 C1156 1.268 . S
O1140 Eu1092 2.291 1_565 S
O1140 C1155 1.255 . S
O1141 Eu1103 2.372 . S
O1141 C1155 1.257 . S
O1142 Eu1103 2.462 . S
O1142 C1167 1.252 . S
O1143 Eu1103 2.373 . S
O1143 C1159 1.249 . S
O1144 Eu1092 2.335 1_565 S
O1144 C1159 1.264 . S
O1145 Eu1103 2.432 . S
O1145 C1167 1.268 . S
O1146 Eu1103 2.291 . S
O1146 C1166 1.255 . S
O1147 Eu1092 2.372 1_565 S
O1147 C1166 1.257 . S
C1148 O1137 1.249 . S
C1148 O1138 1.264 . S
C1149 C1152 1.382 . S
C1149 C1154 1.390 . S
C1149 C1156 1.506 . S
C1150 C1151 1.398 . S
C1150 C1154 1.392 . S
C1151 C1150 1.398 . S
C1151 C1153 1.372 . S
C1151 H1168 0.931 . S
C1152 C1149 1.382 . S
C1152 C1153 1.390 . S
C1152 H1169 0.931 . S
C1153 C1151 1.372 . S
C1153 C1152 1.390 . S
C1153 H1170 0.929 . S
C1154 C1149 1.390 . S
C1154 C1150 1.392 . S
C1154 H1171 0.930 . S
C1155 O1140 1.255 . S
C1155 O1141 1.257 . S
C1156 Eu1092 2.787 . S
C1156 O1136 1.252 . S
C1156 O1139 1.268 . S
C1156 C1149 1.506 . S
C1157 C1124 1.439 . S
C1157 H1134 0.931 . S
C1157 C1158 1.374 . S
C1158 C1129 1.387 . S
C1158 H1135 0.931 . S
C1158 C1157 1.374 . S
C1159 O1143 1.249 . S
C1159 O1144 1.264 . S
C1160 C1163 1.382 . S
C1160 C1164 1.390 . S
C1160 C1167 1.506 . S
C1161 C1162 1.398 . S
C1161 C1164 1.392 . S
C1162 C1161 1.398 . S
C1162 C1165 1.372 . S
C1162 H1172 0.931 . S
C1163 C1160 1.382 . S
C1163 C1165 1.390 . S
C1163 H1173 0.931 . S
C1164 C1160 1.390 . S
C1164 C1161 1.392 . S
C1164 H1174 0.930 . S
C1165 C1162 1.372 . S
C1165 C1163 1.390 . S
C1165 H1175 0.929 . S
C1166 O1146 1.255 . S
C1166 O1147 1.257 . S
C1167 Eu1103 2.787 . S
C1167 O1142 1.252 . S
C1167 O1145 1.268 . S
C1167 C1160 1.506 . S
H1168 C1151 0.931 . S
H1169 C1152 0.931 . S
H1170 C1153 0.929 . S
H1171 C1154 0.930 . S
H1172 C1162 0.931 . S
H1173 C1163 0.931 . S
H1174 C1164 0.930 . S
H1175 C1165 0.929 . S
Eu1176 N1205 2.600 . S
Eu1176 N1211 2.562 . S
Eu1176 O1220 2.462 . S
Eu1176 O1221 2.373 . S
Eu1176 O1223 2.432 . S
Eu1176 O1224 2.291 . S
Eu1176 O1228 2.335 . S
Eu1176 O1231 2.372 . S
Eu1176 C1240 2.787 . S
C1177 N1178 1.365 . S
C1177 C1180 1.405 . S
C1177 C1184 1.448 . S
N1178 C1177 1.365 . S
N1178 C1181 1.319 . S
N1178 Eu1187 2.600 . S
C1179 C1181 1.397 . S
C1179 C1182 1.367 . S
C1179 H1199 0.931 . S
C1180 C1177 1.405 . S
C1180 C1182 1.403 . S
C1180 C1186 1.439 . S
C1181 N1178 1.319 . S
C1181 C1179 1.397 . S
C1181 H1192 0.930 . S
C1182 C1179 1.367 . S
C1182 C1180 1.403 . S
C1182 H1203 0.929 . S
C1183 C1184 1.430 . S
C1183 C1185 1.387 . S
C1183 C1189 1.404 . S
C1184 C1177 1.448 . S
C1184 C1183 1.430 . S
C1184 N1188 1.351 . S
C1185 C1183 1.387 . S
C1185 C1186 1.374 . S
C1185 H1200 0.931 . S
C1186 C1180 1.439 . S
C1186 C1185 1.374 . S
C1186 H1201 0.931 . S
Eu1187 N1178 2.600 . S
Eu1187 N1188 2.562 . S
Eu1187 O1222 2.335 . S
Eu1187 O1225 2.372 . S
Eu1187 O1226 2.462 . S
Eu1187 O1227 2.373 . S
Eu1187 O1229 2.432 . S
Eu1187 O1230 2.291 . S
Eu1187 C1251 2.787 . S
N1188 C1184 1.351 . S
N1188 Eu1187 2.562 . S
N1188 C1190 1.325 . S
C1189 C1183 1.404 . S
C1189 C1191 1.366 . S
C1189 H1197 0.930 . S
C1190 N1188 1.325 . S
C1190 C1191 1.416 . S
C1190 H1196 0.929 . S
C1191 C1189 1.366 . S
C1191 C1190 1.416 . S
C1191 H1193 0.930 . S
H1192 C1181 0.930 . S
H1193 C1191 0.930 . S
H1194 C1209 0.930 . S
H1195 C1216 0.930 . S
H1196 C1190 0.929 . S
H1197 C1189 0.930 . S
H1198 C1212 0.929 . S
H1199 C1179 0.931 . S
H1200 C1185 0.931 . S
H1201 C1186 0.931 . S
H1202 C1207 0.931 . S
H1203 C1182 0.929 . S
H1204 C1215 0.930 . S
N1205 Eu1176 2.600 . S
N1205 C1206 1.365 . S
N1205 C1209 1.319 . S
C1206 N1205 1.365 . S
C1206 C1208 1.405 . S
C1206 C1214 1.448 . S
C1207 H1202 0.931 . S
C1207 C1209 1.397 . S
C1207 C1210 1.367 . S
C1208 C1206 1.405 . S
C1208 C1210 1.403 . S
C1208 C1241 1.439 . S
C1209 H1194 0.930 . S
C1209 N1205 1.319 . S
C1209 C1207 1.397 . S
C1210 C1207 1.367 . S
C1210 C1208 1.403 . S
C1210 H1217 0.929 . S
N1211 Eu1176 2.562 . S
N1211 C1212 1.325 . S
N1211 C1214 1.351 . S
C1212 H1198 0.929 . S
C1212 N1211 1.325 . S
C1212 C1216 1.416 . S
C1213 C1214 1.430 . S
C1213 C1215 1.404 . S
C1213 C1242 1.387 . S
C1214 C1206 1.448 . S
C1214 N1211 1.351 . S
C1214 C1213 1.430 . S
C1215 H1204 0.930 . S
C1215 C1213 1.404 . S
C1215 C1216 1.366 . S
C1216 H1195 0.930 . S
C1216 C1212 1.416 . S
C1216 C1215 1.366 . S
H1217 C1210 0.929 . S
H1218 C1241 0.931 . S
H1219 C1242 0.931 . S
O1220 Eu1176 2.462 . S
O1220 C1240 1.252 . S
O1221 Eu1176 2.373 . S
O1221 C1232 1.249 . S
O1222 Eu1187 2.335 . S
O1222 C1232 1.264 . S
O1223 Eu1176 2.432 . S
O1223 C1240 1.268 . S
O1224 Eu1176 2.291 . S
O1224 C1239 1.255 . S
O1225 Eu1187 2.372 . S
O1225 C1239 1.257 . S
O1226 Eu1187 2.462 . S
O1226 C1251 1.252 . S
O1227 Eu1187 2.373 . S
O1227 C1243 1.249 . S
O1228 Eu1176 2.335 . S
O1228 C1243 1.264 . S
O1229 Eu1187 2.432 . S
O1229 C1251 1.268 . S
O1230 Eu1187 2.291 . S
O1230 C1250 1.255 . S
O1231 Eu1176 2.372 . S
O1231 C1250 1.257 . S
C1232 O1221 1.249 . S
C1232 O1222 1.264 . S
C1233 C1236 1.382 . S
C1233 C1238 1.390 . S
C1233 C1240 1.506 . S
C1234 C1235 1.398 . S
C1234 C1238 1.392 . S
C1235 C1234 1.398 . S
C1235 C1237 1.372 . S
C1235 H1252 0.931 . S
C1236 C1233 1.382 . S
C1236 C1237 1.390 . S
C1236 H1253 0.931 . S
C1237 C1235 1.372 . S
C1237 C1236 1.390 . S
C1237 H1254 0.929 . S
C1238 C1233 1.390 . S
C1238 C1234 1.392 . S
C1238 H1255 0.930 . S
C1239 O1224 1.255 . S
C1239 O1225 1.257 . S
C1240 Eu1176 2.787 . S
C1240 O1220 1.252 . S
C1240 O1223 1.268 . S
C1240 C1233 1.506 . S
C1241 C1208 1.439 . S
C1241 H1218 0.931 . S
C1241 C1242 1.374 . S
C1242 C1213 1.387 . S
C1242 H1219 0.931 . S
C1242 C1241 1.374 . S
C1243 O1227 1.249 . S
C1243 O1228 1.264 . S
C1244 C1247 1.382 . S
C1244 C1248 1.390 . S
C1244 C1251 1.506 . S
C1245 C1246 1.398 . S
C1245 C1248 1.392 . S
C1246 C1245 1.398 . S
C1246 C1249 1.372 . S
C1246 H1256 0.931 . S
C1247 C1244 1.382 . S
C1247 C1249 1.390 . S
C1247 H1257 0.931 . S
C1248 C1244 1.390 . S
C1248 C1245 1.392 . S
C1248 H1258 0.930 . S
C1249 C1246 1.372 . S
C1249 C1247 1.390 . S
C1249 H1259 0.929 . S
C1250 O1230 1.255 . S
C1250 O1231 1.257 . S
C1251 Eu1187 2.787 . S
C1251 O1226 1.252 . S
C1251 O1229 1.268 . S
C1251 C1244 1.506 . S
H1252 C1235 0.931 . S
H1253 C1236 0.931 . S
H1254 C1237 0.929 . S
H1255 C1238 0.930 . S
H1256 C1246 0.931 . S
H1257 C1247 0.931 . S
H1258 C1248 0.930 . S
H1259 C1249 0.929 . S
Eu1260 N1289 2.600 . S
Eu1260 N1295 2.562 . S
Eu1260 O1304 2.462 . S
Eu1260 O1305 2.373 . S
Eu1260 O1307 2.432 . S
Eu1260 O1308 2.291 . S
Eu1260 O1312 2.335 . S
Eu1260 O1315 2.372 . S
Eu1260 C1324 2.787 . S
C1261 N1262 1.365 . S
C1261 C1264 1.405 . S
C1261 C1268 1.448 . S
N1262 C1261 1.365 . S
N1262 C1265 1.319 . S
N1262 Eu1271 2.600 . S
C1263 C1265 1.397 . S
C1263 C1266 1.367 . S
C1263 H1283 0.931 . S
C1264 C1261 1.405 . S
C1264 C1266 1.403 . S
C1264 C1270 1.439 . S
C1265 N1262 1.319 . S
C1265 C1263 1.397 . S
C1265 H1276 0.930 . S
C1266 C1263 1.367 . S
C1266 C1264 1.403 . S
C1266 H1287 0.929 . S
C1267 C1268 1.430 . S
C1267 C1269 1.387 . S
C1267 C1273 1.404 . S
C1268 C1261 1.448 . S
C1268 C1267 1.430 . S
C1268 N1272 1.351 . S
C1269 C1267 1.387 . S
C1269 C1270 1.374 . S
C1269 H1284 0.931 . S
C1270 C1264 1.439 . S
C1270 C1269 1.374 . S
C1270 H1285 0.931 . S
Eu1271 N1262 2.600 . S
Eu1271 N1272 2.562 . S
Eu1271 O1306 2.335 . S
Eu1271 O1309 2.372 . S
Eu1271 O1310 2.462 . S
Eu1271 O1311 2.373 . S
Eu1271 O1313 2.432 . S
Eu1271 O1314 2.291 . S
Eu1271 C1335 2.787 . S
N1272 C1268 1.351 . S
N1272 Eu1271 2.562 . S
N1272 C1274 1.325 . S
C1273 C1267 1.404 . S
C1273 C1275 1.366 . S
C1273 H1281 0.930 . S
C1274 N1272 1.325 . S
C1274 C1275 1.416 . S
C1274 H1280 0.929 . S
C1275 C1273 1.366 . S
C1275 C1274 1.416 . S
C1275 H1277 0.930 . S
H1276 C1265 0.930 . S
H1277 C1275 0.930 . S
H1278 C1293 0.930 . S
H1279 C1300 0.930 . S
H1280 C1274 0.929 . S
H1281 C1273 0.930 . S
H1282 C1296 0.929 . S
H1283 C1263 0.931 . S
H1284 C1269 0.931 . S
H1285 C1270 0.931 . S
H1286 C1291 0.931 . S
H1287 C1266 0.929 . S
H1288 C1299 0.930 . S
N1289 Eu1260 2.600 . S
N1289 C1290 1.365 . S
N1289 C1293 1.319 . S
C1290 N1289 1.365 . S
C1290 C1292 1.405 . S
C1290 C1298 1.448 . S
C1291 H1286 0.931 . S
C1291 C1293 1.397 . S
C1291 C1294 1.367 . S
C1292 C1290 1.405 . S
C1292 C1294 1.403 . S
C1292 C1325 1.439 . S
C1293 H1278 0.930 . S
C1293 N1289 1.319 . S
C1293 C1291 1.397 . S
C1294 C1291 1.367 . S
C1294 C1292 1.403 . S
C1294 H1301 0.929 . S
N1295 Eu1260 2.562 . S
N1295 C1296 1.325 . S
N1295 C1298 1.351 . S
C1296 H1282 0.929 . S
C1296 N1295 1.325 . S
C1296 C1300 1.416 . S
C1297 C1298 1.430 . S
C1297 C1299 1.404 . S
C1297 C1326 1.387 . S
C1298 C1290 1.448 . S
C1298 N1295 1.351 . S
C1298 C1297 1.430 . S
C1299 H1288 0.930 . S
C1299 C1297 1.404 . S
C1299 C1300 1.366 . S
C1300 H1279 0.930 . S
C1300 C1296 1.416 . S
C1300 C1299 1.366 . S
H1301 C1294 0.929 . S
H1302 C1325 0.931 . S
H1303 C1326 0.931 . S
O1304 Eu1260 2.462 . S
O1304 C1324 1.252 . S
O1305 Eu1260 2.373 . S
O1305 C1316 1.249 . S
O1306 Eu1271 2.335 . S
O1306 C1316 1.264 . S
O1307 Eu1260 2.432 . S
O1307 C1324 1.268 . S
O1308 Eu1260 2.291 . S
O1308 C1323 1.255 . S
O1309 Eu1271 2.372 . S
O1309 C1323 1.257 . S
O1310 Eu1271 2.462 . S
O1310 C1335 1.252 . S
O1311 Eu1271 2.373 . S
O1311 C1327 1.249 . S
O1312 Eu1260 2.335 . S
O1312 C1327 1.264 . S
O1313 Eu1271 2.432 . S
O1313 C1335 1.268 . S
O1314 Eu1271 2.291 . S
O1314 C1334 1.255 . S
O1315 Eu1260 2.372 . S
O1315 C1334 1.257 . S
C1316 O1305 1.249 . S
C1316 O1306 1.264 . S
C1317 C1320 1.382 . S
C1317 C1322 1.390 . S
C1317 C1324 1.506 . S
C1318 C1319 1.398 . S
C1318 C1322 1.392 . S
C1319 C1318 1.398 . S
C1319 C1321 1.372 . S
C1319 H1336 0.931 . S
C1320 C1317 1.382 . S
C1320 C1321 1.390 . S
C1320 H1337 0.931 . S
C1321 C1319 1.372 . S
C1321 C1320 1.390 . S
C1321 H1338 0.929 . S
C1322 C1317 1.390 . S
C1322 C1318 1.392 . S
C1322 H1339 0.930 . S
C1323 O1308 1.255 . S
C1323 O1309 1.257 . S
C1324 Eu1260 2.787 . S
C1324 O1304 1.252 . S
C1324 O1307 1.268 . S
C1324 C1317 1.506 . S
C1325 C1292 1.439 . S
C1325 H1302 0.931 . S
C1325 C1326 1.374 . S
C1326 C1297 1.387 . S
C1326 H1303 0.931 . S
C1326 C1325 1.374 . S
C1327 O1311 1.249 . S
C1327 O1312 1.264 . S
C1328 C1331 1.382 . S
C1328 C1332 1.390 . S
C1328 C1335 1.506 . S
C1329 C1330 1.398 . S
C1329 C1332 1.392 . S
C1330 C1329 1.398 . S
C1330 C1333 1.372 . S
C1330 H1340 0.931 . S
C1331 C1328 1.382 . S
C1331 C1333 1.390 . S
C1331 H1341 0.931 . S
C1332 C1328 1.390 . S
C1332 C1329 1.392 . S
C1332 H1342 0.930 . S
C1333 C1330 1.372 . S
C1333 C1331 1.390 . S
C1333 H1343 0.929 . S
C1334 O1314 1.255 . S
C1334 O1315 1.257 . S
C1335 Eu1271 2.787 . S
C1335 O1310 1.252 . S
C1335 O1313 1.268 . S
C1335 C1328 1.506 . S
H1336 C1319 0.931 . S
H1337 C1320 0.931 . S
H1338 C1321 0.929 . S
H1339 C1322 0.930 . S
H1340 C1330 0.931 . S
H1341 C1331 0.931 . S
H1342 C1332 0.930 . S
H1343 C1333 0.929 . S
C1344 C1345 1.349 . S
C1344 C1346 1.327 . S
C1344 H1369 0.950 . S
C1345 C1344 1.349 . S
C1345 C1361 1.349 . S
C1346 C1344 1.327 . S
C1346 C1365 1.429 . S
C1346 H1370 0.950 . S
C1347 C1364 1.574 . S
C1347 C1366 1.368 . S
C1347 H1371 0.949 . S
H1348 C1352 0.949 . S
C1349 C1350 1.349 . S
C1349 C1351 1.327 . S
C1349 H1372 0.950 . S
C1350 C1349 1.349 . S
C1350 C1362 1.349 . S
C1351 C1349 1.327 . S
C1351 C1367 1.429 . S
C1351 H1373 0.950 . S
C1352 H1348 0.949 . S
C1352 C1360 1.574 . S
C1352 C1368 1.368 . S
H1353 C1361 0.950 . S
H1354 C1359 0.950 . S
H1355 C1360 0.949 . S
H1356 C1362 0.950 . S
H1357 C1363 0.950 . S
H1358 C1364 0.949 . S
C1359 H1354 0.950 . S
C1359 C1361 1.327 . S
C1359 C1365 1.429 . S
C1360 C1352 1.574 . S
C1360 H1355 0.949 . S
C1360 C1366 1.368 . S
C1361 C1345 1.349 . S
C1361 H1353 0.950 . S
C1361 C1359 1.327 . S
C1362 C1350 1.349 . S
C1362 H1356 0.950 . S
C1362 C1363 1.327 . S
C1363 H1357 0.950 . S
C1363 C1362 1.327 . S
C1363 C1367 1.429 . S
C1364 C1347 1.574 . S
C1364 H1358 0.949 . S
C1364 C1368 1.368 . S
C1365 C1346 1.429 . S
C1365 C1359 1.429 . S
C1365 C1366 1.523 . S
C1366 C1347 1.368 . S
C1366 C1360 1.368 . S
C1366 C1365 1.523 . S
C1367 C1351 1.429 . S
C1367 C1363 1.429 . S
C1367 C1368 1.523 . S
C1368 C1352 1.368 . S
C1368 C1364 1.368 . S
C1368 C1367 1.523 . S
H1369 C1344 0.950 . S
H1370 C1346 0.950 . S
H1371 C1347 0.949 . S
H1372 C1349 0.950 . S
H1373 C1351 0.950 . S
C1374 C1375 1.349 . S
C1374 C1376 1.327 . S
C1374 H1399 0.950 . S
C1375 C1374 1.349 . S
C1375 C1391 1.349 . S
C1376 C1374 1.327 . S
C1376 C1395 1.429 . S
C1376 H1400 0.950 1_455 S
C1377 C1394 1.574 . S
C1377 C1396 1.368 . S
C1377 H1401 0.949 . S
H1378 C1382 0.949 . S
C1379 C1380 1.349 . S
C1379 C1381 1.327 . S
C1379 H1402 0.950 . S
C1380 C1379 1.349 . S
C1380 C1392 1.349 . S
C1381 C1379 1.327 . S
C1381 C1397 1.429 . S
C1381 H1403 0.950 1_655 S
C1382 H1378 0.949 . S
C1382 C1390 1.574 . S
C1382 C1398 1.368 . S
H1383 C1391 0.950 . S
H1384 C1389 0.950 . S
H1385 C1390 0.949 . S
H1386 C1392 0.950 . S
H1387 C1393 0.950 . S
H1388 C1394 0.949 . S
C1389 H1384 0.950 . S
C1389 C1391 1.327 . S
C1389 C1395 1.429 . S
C1390 C1382 1.574 . S
C1390 H1385 0.949 . S
C1390 C1396 1.368 1_655 S
C1391 C1375 1.349 . S
C1391 H1383 0.950 . S
C1391 C1389 1.327 . S
C1392 C1380 1.349 . S
C1392 H1386 0.950 . S
C1392 C1393 1.327 . S
C1393 H1387 0.950 . S
C1393 C1392 1.327 . S
C1393 C1397 1.429 . S
C1394 C1377 1.574 . S
C1394 H1388 0.949 . S
C1394 C1398 1.368 1_455 S
C1395 C1376 1.429 . S
C1395 C1389 1.429 . S
C1395 C1396 1.523 . S
C1396 C1377 1.368 . S
C1396 C1390 1.368 1_455 S
C1396 C1395 1.523 . S
C1397 C1381 1.429 . S
C1397 C1393 1.429 . S
C1397 C1398 1.523 . S
C1398 C1382 1.368 . S
C1398 C1394 1.368 1_655 S
C1398 C1397 1.523 . S
H1399 C1374 0.950 . S
H1400 C1376 0.950 1_655 S
H1401 C1377 0.949 . S
H1402 C1379 0.950 . S
H1403 C1381 0.950 1_455 S
C1404 C1405 1.349 . S
C1404 C1406 1.327 . S
C1404 H1429 0.950 . S
C1405 C1404 1.349 . S
C1405 C1421 1.349 . S
C1406 C1404 1.327 . S
C1406 C1425 1.429 . S
C1406 H1430 0.950 . S
C1407 C1424 1.574 . S
C1407 C1426 1.368 1_545 S
C1407 H1431 0.949 . S
H1408 C1412 0.949 . S
C1409 C1410 1.349 . S
C1409 C1411 1.327 . S
C1409 H1432 0.950 . S
C1410 C1409 1.349 . S
C1410 C1422 1.349 . S
C1411 C1409 1.327 . S
C1411 C1427 1.429 . S
C1411 H1433 0.950 . S
C1412 H1408 0.949 . S
C1412 C1420 1.574 . S
C1412 C1428 1.368 1_565 S
H1413 C1421 0.950 . S
H1414 C1419 0.966 . S
H1415 C1420 0.949 . S
H1416 C1422 0.950 . S
H1417 C1423 0.950 . S
H1418 C1424 0.949 . S
C1419 H1414 0.966 . S
C1419 C1421 1.327 . S
C1419 C1425 1.429 . S
C1420 C1412 1.574 . S
C1420 H1415 0.949 . S
C1420 C1426 1.368 . S
C1421 C1405 1.349 . S
C1421 H1413 0.950 . S
C1421 C1419 1.327 . S
C1422 C1410 1.349 . S
C1422 H1416 0.950 . S
C1422 C1423 1.327 . S
C1423 H1417 0.950 . S
C1423 C1422 1.327 . S
C1423 C1427 1.429 . S
C1424 C1407 1.574 . S
C1424 H1418 0.949 . S
C1424 C1428 1.368 . S
C1425 C1406 1.429 . S
C1425 C1419 1.429 . S
C1425 C1426 1.523 . S
C1426 C1407 1.368 1_565 S
C1426 C1420 1.368 . S
C1426 C1425 1.523 . S
C1427 C1411 1.429 . S
C1427 C1423 1.429 . S
C1427 C1428 1.523 . S
C1428 C1412 1.368 1_545 S
C1428 C1424 1.368 . S
C1428 C1427 1.523 . S
H1429 C1404 0.950 . S
H1430 C1406 0.950 . S
H1431 C1407 0.949 . S
H1432 C1409 0.950 . S
H1433 C1411 0.950 . S
C1434 C1435 1.349 . S
C1434 C1436 1.327 . S
C1434 H1459 0.950 . S
C1435 C1434 1.349 . S
C1435 C1451 1.349 . S
C1436 C1434 1.327 . S
C1436 C1455 1.429 . S
C1436 H1460 0.950 . S
C1437 C1454 1.574 . S
C1437 C1456 1.368 . S
C1437 H1461 0.949 . S
H1438 C1442 0.949 . S
C1439 C1440 1.349 . S
C1439 C1441 1.327 . S
C1439 H1462 0.950 . S
C1440 C1439 1.349 . S
C1440 C1452 1.349 . S
C1441 C1439 1.327 . S
C1441 C1457 1.429 . S
C1441 H1463 0.950 . S
C1442 H1438 0.949 . S
C1442 C1450 1.574 . S
C1442 C1458 1.368 . S
H1443 C1451 0.950 . S
H1444 C1449 0.950 . S
H1445 C1450 0.949 . S
H1446 C1452 0.950 . S
H1447 C1453 0.950 . S
H1448 C1454 0.949 . S
C1449 H1444 0.950 . S
C1449 C1451 1.327 . S
C1449 C1455 1.429 . S
C1450 C1442 1.574 . S
C1450 H1445 0.949 . S
C1450 C1456 1.368 . S
C1451 C1435 1.349 . S
C1451 H1443 0.950 . S
C1451 C1449 1.327 . S
C1452 C1440 1.349 . S
C1452 H1446 0.950 . S
C1452 C1453 1.327 . S
C1453 H1447 0.950 . S
C1453 C1452 1.327 . S
C1453 C1457 1.429 . S
C1454 C1437 1.574 . S
C1454 H1448 0.949 . S
C1454 C1458 1.368 . S
C1455 C1436 1.429 . S
C1455 C1449 1.429 . S
C1455 C1456 1.523 . S
C1456 C1437 1.368 . S
C1456 C1450 1.368 . S
C1456 C1455 1.523 . S
C1457 C1441 1.429 . S
C1457 C1453 1.429 . S
C1457 C1458 1.523 . S
C1458 C1442 1.368 . S
C1458 C1454 1.368 . S
C1458 C1457 1.523 . S
H1459 C1434 0.950 . S
H1460 C1436 0.950 . S
H1461 C1437 0.949 . S
H1462 C1439 0.950 . S
H1463 C1441 0.950 . S
C1464 C1465 1.349 . S
C1464 C1466 1.327 1_565 S
C1464 H1489 0.950 1_565 S
C1465 C1464 1.349 . S
C1465 C1481 1.349 . S
C1466 C1464 1.327 1_545 S
C1466 C1485 1.429 1_545 S
C1466 H1490 0.950 . S
C1467 C1484 1.574 . S
C1467 C1486 1.368 . S
C1467 H1491 0.949 . S
H1468 C1472 0.949 . S
C1469 C1470 1.349 . S
C1469 C1471 1.327 1_545 S
C1469 H1492 0.950 1_545 S
C1470 C1469 1.349 . S
C1470 C1482 1.349 . S
C1471 C1469 1.327 1_565 S
C1471 C1487 1.429 1_565 S
C1471 H1493 0.950 . S
C1472 H1468 0.949 . S
C1472 C1480 1.574 . S
C1472 C1488 1.368 . S
H1473 C1481 0.950 . S
H1474 C1479 0.950 . S
H1475 C1480 0.949 . S
H1476 C1482 0.950 . S
H1477 C1483 0.950 . S
H1478 C1484 0.949 . S
C1479 H1474 0.950 . S
C1479 C1481 1.327 . S
C1479 C1485 1.429 . S
C1480 C1472 1.574 . S
C1480 H1475 0.949 . S
C1480 C1486 1.368 1_545 S
C1481 C1465 1.349 . S
C1481 H1473 0.950 . S
C1481 C1479 1.327 . S
C1482 C1470 1.349 . S
C1482 H1476 0.950 . S
C1482 C1483 1.327 . S
C1483 H1477 0.950 . S
C1483 C1482 1.327 . S
C1483 C1487 1.429 . S
C1484 C1467 1.574 . S
C1484 H1478 0.949 . S
C1484 C1488 1.368 1_565 S
C1485 C1466 1.429 1_565 S
C1485 C1479 1.429 . S
C1485 C1486 1.523 . S
C1486 C1467 1.368 . S
C1486 C1480 1.368 1_565 S
C1486 C1485 1.523 . S
C1487 C1471 1.429 1_545 S
C1487 C1483 1.429 . S
C1487 C1488 1.523 . S
C1488 C1472 1.368 . S
C1488 C1484 1.368 1_545 S
C1488 C1487 1.523 . S
H1489 C1464 0.950 1_545 S
H1490 C1466 0.950 . S
H1491 C1467 0.949 . S
H1492 C1469 0.950 1_565 S
H1493 C1471 0.950 . S
C1494 C1495 1.349 . S
C1494 C1496 1.327 . S
C1494 H1519 0.950 . S
C1495 C1494 1.349 . S
C1495 C1511 1.349 . S
C1496 C1494 1.327 . S
C1496 C1515 1.429 . S
C1496 H1520 0.950 . S
C1497 C1514 1.574 . S
C1497 C1516 1.368 . S
C1497 H1521 0.949 . S
H1498 C1502 0.949 . S
C1499 C1500 1.349 . S
C1499 C1501 1.327 . S
C1499 H1522 0.950 . S
C1500 C1499 1.349 . S
C1500 C1512 1.349 . S
C1501 C1499 1.327 . S
C1501 C1517 1.429 . S
C1501 H1523 0.950 . S
C1502 H1498 0.949 . S
C1502 C1510 1.574 . S
C1502 C1518 1.368 . S
H1503 C1511 0.950 . S
H1504 C1509 0.950 . S
H1505 C1510 0.949 . S
H1506 C1512 0.950 . S
H1507 C1513 0.950 . S
H1508 C1514 0.949 . S
C1509 H1504 0.950 . S
C1509 C1511 1.327 . S
C1509 C1515 1.429 . S
C1510 C1502 1.574 . S
C1510 H1505 0.949 . S
C1510 C1516 1.368 . S
C1511 C1495 1.349 . S
C1511 H1503 0.950 . S
C1511 C1509 1.327 . S
C1512 C1500 1.349 . S
C1512 H1506 0.950 . S
C1512 C1513 1.327 . S
C1513 H1507 0.950 . S
C1513 C1512 1.327 . S
C1513 C1517 1.429 . S
C1514 C1497 1.574 . S
C1514 H1508 0.949 . S
C1514 C1518 1.368 . S
C1515 C1496 1.429 . S
C1515 C1509 1.429 . S
C1515 C1516 1.523 . S
C1516 C1497 1.368 . S
C1516 C1510 1.368 . S
C1516 C1515 1.523 . S
C1517 C1501 1.429 . S
C1517 C1513 1.429 . S
C1517 C1518 1.523 . S
C1518 C1502 1.368 . S
C1518 C1514 1.368 . S
C1518 C1517 1.523 . S
H1519 C1494 0.950 . S
H1520 C1496 0.950 . S
H1521 C1497 0.949 . S
H1522 C1499 0.950 . S
H1523 C1501 0.950 . S
C1524 C1525 1.349 . S
C1524 C1526 1.327 . S
C1524 H1549 0.950 . S
C1525 C1524 1.349 . S
C1525 C1541 1.349 . S
C1526 C1524 1.327 . S
C1526 C1545 1.429 . S
C1526 H1550 0.950 . S
C1527 C1544 1.574 . S
C1527 C1546 1.368 . S
C1527 H1551 0.949 . S
H1528 C1532 0.949 . S
C1529 C1530 1.349 . S
C1529 C1531 1.327 . S
C1529 H1552 0.950 . S
C1530 C1529 1.349 . S
C1530 C1542 1.349 . S
C1531 C1529 1.327 . S
C1531 C1547 1.429 . S
C1531 H1553 0.950 . S
C1532 H1528 0.949 . S
C1532 C1540 1.574 . S
C1532 C1548 1.368 . S
H1533 C1541 0.950 . S
H1534 C1539 0.950 . S
H1535 C1540 0.949 . S
H1536 C1542 0.950 . S
H1537 C1543 0.950 . S
H1538 C1544 0.949 . S
C1539 H1534 0.950 . S
C1539 C1541 1.327 . S
C1539 C1545 1.429 . S
C1540 C1532 1.574 . S
C1540 H1535 0.949 . S
C1540 C1546 1.368 . S
C1541 C1525 1.349 . S
C1541 H1533 0.950 . S
C1541 C1539 1.327 . S
C1542 C1530 1.349 . S
C1542 H1536 0.950 . S
C1542 C1543 1.327 . S
C1543 H1537 0.950 . S
C1543 C1542 1.327 . S
C1543 C1547 1.429 . S
C1544 C1527 1.574 . S
C1544 H1538 0.949 . S
C1544 C1548 1.368 . S
C1545 C1526 1.429 . S
C1545 C1539 1.429 . S
C1545 C1546 1.523 . S
C1546 C1527 1.368 . S
C1546 C1540 1.368 . S
C1546 C1545 1.523 . S
C1547 C1531 1.429 . S
C1547 C1543 1.429 . S
C1547 C1548 1.523 . S
C1548 C1532 1.368 . S
C1548 C1544 1.368 . S
C1548 C1547 1.523 . S
H1549 C1524 0.950 . S
H1550 C1526 0.950 . S
H1551 C1527 0.949 . S
H1552 C1529 0.950 . S
H1553 C1531 0.950 . S
C1554 C1555 1.349 . S
C1554 C1556 1.327 . S
C1554 H1579 0.950 . S
C1555 C1554 1.349 . S
C1555 C1571 1.349 . S
C1556 C1554 1.327 . S
C1556 C1575 1.429 . S
C1556 H1580 0.950 . S
C1557 C1574 1.574 . S
C1557 C1576 1.368 1_655 S
C1557 H1581 0.949 . S
H1558 C1562 0.949 . S
C1559 C1560 1.349 . S
C1559 C1561 1.327 . S
C1559 H1582 0.950 . S
C1560 C1559 1.349 . S
C1560 C1572 1.349 . S
C1561 C1559 1.327 . S
C1561 C1577 1.429 . S
C1561 H1583 0.950 . S
C1562 H1558 0.949 . S
C1562 C1570 1.574 . S
C1562 C1578 1.368 1_455 S
H1563 C1571 0.950 . S
H1564 C1569 0.950 1_655 S
H1565 C1570 0.949 . S
H1566 C1572 0.950 . S
H1567 C1573 0.950 1_455 S
H1568 C1574 0.949 . S
C1569 H1564 0.950 1_455 S
C1569 C1571 1.327 . S
C1569 C1575 1.429 . S
C1570 C1562 1.574 . S
C1570 H1565 0.949 . S
C1570 C1576 1.368 . S
C1571 C1555 1.349 . S
C1571 H1563 0.950 . S
C1571 C1569 1.327 . S
C1572 C1560 1.349 . S
C1572 H1566 0.950 . S
C1572 C1573 1.327 . S
C1573 H1567 0.950 1_655 S
C1573 C1572 1.327 . S
C1573 C1577 1.429 . S
C1574 C1557 1.574 . S
C1574 H1568 0.949 . S
C1574 C1578 1.368 . S
C1575 C1556 1.429 . S
C1575 C1569 1.429 . S
C1575 C1576 1.523 . S
C1576 C1557 1.368 1_455 S
C1576 C1570 1.368 . S
C1576 C1575 1.523 . S
C1577 C1561 1.429 . S
C1577 C1573 1.429 . S
C1577 C1578 1.523 . S
C1578 C1562 1.368 1_655 S
C1578 C1574 1.368 . S
C1578 C1577 1.523 . S
H1579 C1554 0.950 . S
H1580 C1556 0.950 . S
H1581 C1557 0.949 . S
H1582 C1559 0.950 . S
H1583 C1561 0.950 . S
C1584 C1585 1.349 . S
C1584 C1586 1.327 . S
C1584 H1609 0.950 . S
C1585 C1584 1.349 . S
C1585 C1601 1.349 . S
C1586 C1584 1.327 . S
C1586 C1605 1.429 . S
C1586 H1610 0.950 . S
C1587 C1604 1.574 . S
C1587 C1606 1.368 . S
C1587 H1611 0.949 . S
H1588 C1592 0.949 . S
C1589 C1590 1.349 . S
C1589 C1591 1.327 . S
C1589 H1612 0.950 . S
C1590 C1589 1.349 . S
C1590 C1602 1.349 . S
C1591 C1589 1.327 . S
C1591 C1607 1.429 . S
C1591 H1613 0.950 . S
C1592 H1588 0.949 . S
C1592 C1600 1.574 . S
C1592 C1608 1.368 . S
H1593 C1601 0.950 . S
H1594 C1599 0.950 . S
H1595 C1600 0.949 . S
H1596 C1602 0.950 . S
H1597 C1603 0.950 . S
H1598 C1604 0.949 . S
C1599 H1594 0.950 . S
C1599 C1601 1.327 . S
C1599 C1605 1.429 . S
C1600 C1592 1.574 . S
C1600 H1595 0.949 . S
C1600 C1606 1.368 . S
C1601 C1585 1.349 . S
C1601 H1593 0.950 . S
C1601 C1599 1.327 . S
C1602 C1590 1.349 . S
C1602 H1596 0.950 . S
C1602 C1603 1.327 . S
C1603 H1597 0.950 . S
C1603 C1602 1.327 . S
C1603 C1607 1.429 . S
C1604 C1587 1.574 . S
C1604 H1598 0.949 . S
C1604 C1608 1.368 . S
C1605 C1586 1.429 . S
C1605 C1599 1.429 . S
C1605 C1606 1.523 . S
C1606 C1587 1.368 . S
C1606 C1600 1.368 . S
C1606 C1605 1.523 . S
C1607 C1591 1.429 . S
C1607 C1603 1.429 . S
C1607 C1608 1.523 . S
C1608 C1592 1.368 . S
C1608 C1604 1.368 . S
C1608 C1607 1.523 . S
H1609 C1584 0.950 . S
H1610 C1586 0.950 . S
H1611 C1587 0.949 . S
H1612 C1589 0.950 . S
H1613 C1591 0.950 . S
C1614 C1615 1.349 . S
C1614 C1616 1.327 . S
C1614 H1639 0.950 . S
C1615 C1614 1.349 . S
C1615 C1631 1.349 . S
C1616 C1614 1.327 . S
C1616 C1635 1.429 . S
C1616 H1640 0.950 1_655 S
C1617 C1634 1.574 . S
C1617 C1636 1.368 . S
C1617 H1641 0.949 . S
H1618 C1622 0.949 . S
C1619 C1620 1.349 . S
C1619 C1621 1.327 . S
C1619 H1642 0.950 . S
C1620 C1619 1.349 . S
C1620 C1632 1.349 . S
C1621 C1619 1.327 . S
C1621 C1637 1.429 . S
C1621 H1643 0.950 1_455 S
C1622 H1618 0.949 . S
C1622 C1630 1.574 . S
C1622 C1638 1.368 . S
H1623 C1631 0.950 . S
H1624 C1629 0.950 . S
H1625 C1630 0.949 . S
H1626 C1632 0.950 . S
H1627 C1633 0.950 . S
H1628 C1634 0.949 . S
C1629 H1624 0.950 . S
C1629 C1631 1.327 . S
C1629 C1635 1.429 . S
C1630 C1622 1.574 . S
C1630 H1625 0.949 . S
C1630 C1636 1.368 1_455 S
C1631 C1615 1.349 . S
C1631 H1623 0.950 . S
C1631 C1629 1.327 . S
C1632 C1620 1.349 . S
C1632 H1626 0.950 . S
C1632 C1633 1.327 . S
C1633 H1627 0.950 . S
C1633 C1632 1.327 . S
C1633 C1637 1.429 . S
C1634 C1617 1.574 . S
C1634 H1628 0.949 . S
C1634 C1638 1.368 1_655 S
C1635 C1616 1.429 . S
C1635 C1629 1.429 . S
C1635 C1636 1.523 . S
C1636 C1617 1.368 . S
C1636 C1630 1.368 1_655 S
C1636 C1635 1.523 . S
C1637 C1621 1.429 . S
C1637 C1633 1.429 . S
C1637 C1638 1.523 . S
C1638 C1622 1.368 . S
C1638 C1634 1.368 1_455 S
C1638 C1637 1.523 . S
H1639 C1614 0.950 . S
H1640 C1616 0.950 1_455 S
H1641 C1617 0.949 . S
H1642 C1619 0.950 . S
H1643 C1621 0.950 1_655 S
C1644 C1645 1.349 . S
C1644 C1646 1.327 . S
C1644 H1669 0.950 . S
C1645 C1644 1.349 . S
C1645 C1661 1.349 . S
C1646 C1644 1.327 . S
C1646 C1665 1.429 . S
C1646 H1670 0.950 . S
C1647 C1664 1.574 . S
C1647 C1666 1.368 . S
C1647 H1671 0.949 . S
H1648 C1652 0.949 . S
C1649 C1650 1.349 . S
C1649 C1651 1.327 . S
C1649 H1672 0.950 . S
C1650 C1649 1.349 . S
C1650 C1662 1.349 . S
C1651 C1649 1.327 . S
C1651 C1667 1.429 . S
C1651 H1673 0.950 1_545 S
C1652 H1648 0.949 . S
C1652 C1660 1.574 . S
C1652 C1668 1.368 . S
H1653 C1661 0.950 . S
H1654 C1659 0.950 . S
H1655 C1660 0.949 . S
H1656 C1662 0.950 . S
H1657 C1663 0.950 . S
H1658 C1664 0.949 . S
C1659 H1654 0.950 . S
C1659 C1661 1.327 . S
C1659 C1665 1.429 . S
C1660 C1652 1.574 . S
C1660 H1655 0.949 . S
C1660 C1666 1.368 1_545 S
C1661 C1645 1.349 . S
C1661 H1653 0.950 . S
C1661 C1659 1.327 . S
C1662 C1650 1.349 . S
C1662 H1656 0.950 . S
C1662 C1663 1.327 . S
C1663 H1657 0.950 . S
C1663 C1662 1.327 . S
C1663 C1667 1.429 . S
C1664 C1647 1.574 . S
C1664 H1658 0.949 . S
C1664 C1668 1.368 1_565 S
C1665 C1646 1.429 . S
C1665 C1659 1.429 . S
C1665 C1666 1.523 . S
C1666 C1647 1.368 . S
C1666 C1660 1.368 1_565 S
C1666 C1665 1.523 . S
C1667 C1651 1.429 . S
C1667 C1663 1.429 . S
C1667 C1668 1.523 . S
C1668 C1652 1.368 . S
C1668 C1664 1.368 1_545 S
C1668 C1667 1.523 . S
H1669 C1644 0.950 . S
H1670 C1646 0.950 . S
H1671 C1647 0.949 . S
H1672 C1649 0.950 . S
H1673 C1651 0.950 1_565 S
C1674 C1675 1.349 . S
C1674 C1676 1.327 . S
C1674 H1699 0.950 . S
C1675 C1674 1.349 . S
C1675 C1691 1.349 . S
C1676 C1674 1.327 . S
C1676 C1695 1.429 . S
C1676 H1700 0.950 . S
C1677 C1694 1.574 . S
C1677 C1696 1.368 . S
C1677 H1701 0.949 . S
H1678 C1682 0.949 . S
C1679 C1680 1.349 . S
C1679 C1681 1.327 . S
C1679 H1702 0.950 . S
C1680 C1679 1.349 . S
C1680 C1692 1.349 . S
C1681 C1679 1.327 . S
C1681 C1697 1.429 . S
C1681 H1703 0.950 . S
C1682 H1678 0.949 . S
C1682 C1690 1.574 . S
C1682 C1698 1.368 . S
H1683 C1691 0.950 . S
H1684 C1689 0.950 . S
H1685 C1690 0.949 . S
H1686 C1692 0.950 . S
H1687 C1693 0.950 . S
H1688 C1694 0.949 . S
C1689 H1684 0.950 . S
C1689 C1691 1.327 . S
C1689 C1695 1.429 . S
C1690 C1682 1.574 . S
C1690 H1685 0.949 . S
C1690 C1696 1.368 . S
C1691 C1675 1.349 . S
C1691 H1683 0.950 . S
C1691 C1689 1.327 . S
C1692 C1680 1.349 . S
C1692 H1686 0.950 . S
C1692 C1693 1.327 . S
C1693 H1687 0.950 . S
C1693 C1692 1.327 . S
C1693 C1697 1.429 . S
C1694 C1677 1.574 . S
C1694 H1688 0.949 . S
C1694 C1698 1.368 . S
C1695 C1676 1.429 . S
C1695 C1689 1.429 . S
C1695 C1696 1.523 . S
C1696 C1677 1.368 . S
C1696 C1690 1.368 . S
C1696 C1695 1.523 . S
C1697 C1681 1.429 . S
C1697 C1693 1.429 . S
C1697 C1698 1.523 . S
C1698 C1682 1.368 . S
C1698 C1694 1.368 . S
C1698 C1697 1.523 . S
H1699 C1674 0.950 . S
H1700 C1676 0.950 . S
H1701 C1677 0.949 . S
H1702 C1679 0.950 . S
H1703 C1681 0.950 . S
C1704 C1705 1.349 . S
C1704 C1706 1.327 . S
C1704 H1729 0.950 . S
C1705 C1704 1.349 . S
C1705 C1721 1.349 . S
C1706 C1704 1.327 . S
C1706 C1725 1.429 . S
C1706 H1730 0.950 1_545 S
C1707 C1724 1.574 . S
C1707 C1726 1.368 . S
C1707 H1731 0.949 . S
H1708 C1712 0.949 . S
C1709 C1710 1.349 . S
C1709 C1711 1.327 . S
C1709 H1732 0.950 . S
C1710 C1709 1.349 . S
C1710 C1722 1.349 . S
C1711 C1709 1.327 . S
C1711 C1727 1.429 . S
C1711 H1733 0.950 1_565 S
C1712 H1708 0.949 . S
C1712 C1720 1.574 . S
C1712 C1728 1.368 . S
H1713 C1721 0.950 . S
H1714 C1719 0.950 . S
H1715 C1720 0.949 . S
H1716 C1722 0.950 . S
H1717 C1723 0.950 . S
H1718 C1724 0.949 . S
C1719 H1714 0.950 . S
C1719 C1721 1.327 . S
C1719 C1725 1.429 . S
C1720 C1712 1.574 . S
C1720 H1715 0.949 . S
C1720 C1726 1.368 1_565 S
C1721 C1705 1.349 . S
C1721 H1713 0.950 . S
C1721 C1719 1.327 . S
C1722 C1710 1.349 . S
C1722 H1716 0.950 . S
C1722 C1723 1.327 . S
C1723 H1717 0.950 . S
C1723 C1722 1.327 . S
C1723 C1727 1.429 . S
C1724 C1707 1.574 . S
C1724 H1718 0.949 . S
C1724 C1728 1.368 1_545 S
C1725 C1706 1.429 . S
C1725 C1719 1.429 . S
C1725 C1726 1.523 . S
C1726 C1707 1.368 . S
C1726 C1720 1.368 1_545 S
C1726 C1725 1.523 . S
C1727 C1711 1.429 . S
C1727 C1723 1.429 . S
C1727 C1728 1.523 . S
C1728 C1712 1.368 . S
C1728 C1724 1.368 1_565 S
C1728 C1727 1.523 . S
H1729 C1704 0.950 . S
H1730 C1706 0.950 1_565 S
H1731 C1707 0.949 . S
H1732 C1709 0.950 . S
H1733 C1711 0.950 1_545 S
C1734 C1735 1.349 . S
C1734 C1736 1.327 . S
C1734 H1759 0.950 . S
C1735 C1734 1.349 . S
C1735 C1751 1.349 . S
C1736 C1734 1.327 . S
C1736 C1755 1.429 . S
C1736 H1760 0.950 . S
C1737 C1754 1.574 . S
C1737 C1756 1.368 . S
C1737 H1761 0.949 . S
H1738 C1742 0.949 . S
C1739 C1740 1.349 . S
C1739 C1741 1.327 . S
C1739 H1762 0.950 . S
C1740 C1739 1.349 . S
C1740 C1752 1.349 . S
C1741 C1739 1.327 . S
C1741 C1757 1.429 . S
C1741 H1763 0.950 . S
C1742 H1738 0.949 . S
C1742 C1750 1.574 . S
C1742 C1758 1.368 . S
H1743 C1751 0.950 . S
H1744 C1749 0.950 . S
H1745 C1750 0.949 . S
H1746 C1752 0.950 . S
H1747 C1753 0.950 . S
H1748 C1754 0.949 . S
C1749 H1744 0.950 . S
C1749 C1751 1.327 . S
C1749 C1755 1.429 . S
C1750 C1742 1.574 . S
C1750 H1745 0.949 . S
C1750 C1756 1.368 . S
C1751 C1735 1.349 . S
C1751 H1743 0.950 . S
C1751 C1749 1.327 . S
C1752 C1740 1.349 . S
C1752 H1746 0.950 . S
C1752 C1753 1.327 . S
C1753 H1747 0.950 . S
C1753 C1752 1.327 . S
C1753 C1757 1.429 . S
C1754 C1737 1.574 . S
C1754 H1748 0.949 . S
C1754 C1758 1.368 . S
C1755 C1736 1.429 . S
C1755 C1749 1.429 . S
C1755 C1756 1.523 . S
C1756 C1737 1.368 . S
C1756 C1750 1.368 . S
C1756 C1755 1.523 . S
C1757 C1741 1.429 . S
C1757 C1753 1.429 . S
C1757 C1758 1.523 . S
C1758 C1742 1.368 . S
C1758 C1754 1.368 . S
C1758 C1757 1.523 . S
H1759 C1734 0.950 . S
H1760 C1736 0.950 . S
H1761 C1737 0.949 . S
H1762 C1739 0.950 . S
H1763 C1741 0.950 . S
C1764 C1765 1.349 . S
C1764 C1766 1.327 . S
C1764 H1789 0.950 . S
C1765 C1764 1.349 . S
C1765 C1781 1.349 . S
C1766 C1764 1.327 . S
C1766 C1785 1.429 . S
C1766 H1790 0.950 . S
C1767 C1784 1.574 . S
C1767 C1786 1.368 . S
C1767 H1791 0.949 . S
H1768 C1772 0.949 . S
C1769 C1770 1.349 . S
C1769 C1771 1.327 . S
C1769 H1792 0.950 . S
C1770 C1769 1.349 . S
C1770 C1782 1.349 . S
C1771 C1769 1.327 . S
C1771 C1787 1.429 . S
C1771 H1793 0.950 . S
C1772 H1768 0.949 . S
C1772 C1780 1.574 . S
C1772 C1788 1.368 . S
H1773 C1781 0.950 . S
H1774 C1779 0.950 . S
H1775 C1780 0.949 . S
H1776 C1782 0.950 . S
H1777 C1783 0.950 . S
H1778 C1784 0.949 . S
C1779 H1774 0.950 . S
C1779 C1781 1.327 . S
C1779 C1785 1.429 . S
C1780 C1772 1.574 . S
C1780 H1775 0.949 . S
C1780 C1786 1.368 . S
C1781 C1765 1.349 . S
C1781 H1773 0.950 . S
C1781 C1779 1.327 . S
C1782 C1770 1.349 . S
C1782 H1776 0.950 . S
C1782 C1783 1.327 . S
C1783 H1777 0.950 . S
C1783 C1782 1.327 . S
C1783 C1787 1.429 . S
C1784 C1767 1.574 . S
C1784 H1778 0.949 . S
C1784 C1788 1.368 . S
C1785 C1766 1.429 . S
C1785 C1779 1.429 . S
C1785 C1786 1.523 . S
C1786 C1767 1.368 . S
C1786 C1780 1.368 . S
C1786 C1785 1.523 . S
C1787 C1771 1.429 . S
C1787 C1783 1.429 . S
C1787 C1788 1.523 . S
C1788 C1772 1.368 . S
C1788 C1784 1.368 . S
C1788 C1787 1.523 . S
H1789 C1764 0.950 . S
H1790 C1766 0.950 . S
H1791 C1767 0.949 . S
H1792 C1769 0.950 . S
H1793 C1771 0.950 . S
C1794 C1795 1.349 . S
C1794 C1796 1.327 . S
C1794 H1819 0.950 . S
C1795 C1794 1.349 . S
C1795 C1811 1.349 . S
C1796 C1794 1.327 . S
C1796 C1815 1.429 . S
C1796 H1820 0.950 . S
C1797 C1814 1.574 . S
C1797 C1816 1.368 1_655 S
C1797 H1821 0.949 . S
H1798 C1802 0.949 . S
C1799 C1800 1.349 . S
C1799 C1801 1.327 . S
C1799 H1822 0.950 . S
C1800 C1799 1.349 . S
C1800 C1812 1.349 . S
C1801 C1799 1.327 . S
C1801 C1817 1.429 . S
C1801 H1823 0.950 . S
C1802 H1798 0.949 . S
C1802 C1810 1.574 . S
C1802 C1818 1.368 1_455 S
H1803 C1811 0.950 . S
H1804 C1809 0.950 1_655 S
H1805 C1810 0.949 . S
H1806 C1812 0.950 . S
H1807 C1813 0.950 1_455 S
H1808 C1814 0.949 . S
C1809 H1804 0.950 1_455 S
C1809 C1811 1.327 . S
C1809 C1815 1.429 . S
C1810 C1802 1.574 . S
C1810 H1805 0.949 . S
C1810 C1816 1.368 . S
C1811 C1795 1.349 . S
C1811 H1803 0.950 . S
C1811 C1809 1.327 . S
C1812 C1800 1.349 . S
C1812 H1806 0.950 . S
C1812 C1813 1.327 . S
C1813 H1807 0.950 1_655 S
C1813 C1812 1.327 . S
C1813 C1817 1.429 . S
C1814 C1797 1.574 . S
C1814 H1808 0.949 . S
C1814 C1818 1.368 . S
C1815 C1796 1.429 . S
C1815 C1809 1.429 . S
C1815 C1816 1.523 . S
C1816 C1797 1.368 1_455 S
C1816 C1810 1.368 . S
C1816 C1815 1.523 . S
C1817 C1801 1.429 . S
C1817 C1813 1.429 . S
C1817 C1818 1.523 . S
C1818 C1802 1.368 1_655 S
C1818 C1814 1.368 . S
C1818 C1817 1.523 . S
H1819 C1794 0.950 . S
H1820 C1796 0.950 . S
H1821 C1797 0.949 . S
H1822 C1799 0.950 . S
H1823 C1801 0.950 . S
C1824 C1825 1.349 . S
C1824 C1826 1.327 . S
C1824 H1849 0.950 . S
C1825 C1824 1.349 . S
C1825 C1841 1.349 . S
C1826 C1824 1.327 . S
C1826 C1845 1.429 . S
C1826 H1850 0.950 . S
C1827 C1844 1.574 . S
C1827 C1846 1.368 . S
C1827 H1851 0.949 . S
H1828 C1832 0.949 . S
C1829 C1830 1.349 . S
C1829 C1831 1.327 . S
C1829 H1852 0.950 . S
C1830 C1829 1.349 . S
C1830 C1842 1.349 . S
C1831 C1829 1.327 . S
C1831 C1847 1.429 . S
C1831 H1853 0.950 . S
C1832 H1828 0.949 . S
C1832 C1840 1.574 . S
C1832 C1848 1.368 . S
H1833 C1841 0.950 . S
H1834 C1839 0.950 . S
H1835 C1840 0.949 . S
H1836 C1842 0.950 . S
H1837 C1843 0.950 . S
H1838 C1844 0.949 . S
C1839 H1834 0.950 . S
C1839 C1841 1.327 . S
C1839 C1845 1.429 . S
C1840 C1832 1.574 . S
C1840 H1835 0.949 . S
C1840 C1846 1.368 . S
C1841 C1825 1.349 . S
C1841 H1833 0.950 . S
C1841 C1839 1.327 . S
C1842 C1830 1.349 . S
C1842 H1836 0.950 . S
C1842 C1843 1.327 . S
C1843 H1837 0.950 . S
C1843 C1842 1.327 . S
C1843 C1847 1.429 . S
C1844 C1827 1.574 . S
C1844 H1838 0.949 . S
C1844 C1848 1.368 . S
C1845 C1826 1.429 . S
C1845 C1839 1.429 . S
C1845 C1846 1.523 . S
C1846 C1827 1.368 . S
C1846 C1840 1.368 . S
C1846 C1845 1.523 . S
C1847 C1831 1.429 . S
C1847 C1843 1.429 . S
C1847 C1848 1.523 . S
C1848 C1832 1.368 . S
C1848 C1844 1.368 . S
C1848 C1847 1.523 . S
H1849 C1824 0.950 . S
H1850 C1826 0.950 . S
H1851 C1827 0.949 . S
H1852 C1829 0.950 . S
H1853 C1831 0.950 . S
C1854 C1855 1.349 . S
C1854 C1856 1.327 . S
C1854 H1879 0.950 . S
C1855 C1854 1.349 . S
C1855 C1871 1.349 . S
C1856 C1854 1.327 . S
C1856 C1875 1.429 . S
C1856 H1880 0.950 . S
C1857 C1874 1.574 . S
C1857 C1876 1.368 . S
C1857 H1881 0.949 . S
H1858 C1862 0.949 . S
C1859 C1860 1.349 . S
C1859 C1861 1.327 . S
C1859 H1882 0.950 . S
C1860 C1859 1.349 . S
C1860 C1872 1.349 . S
C1861 C1859 1.327 . S
C1861 C1877 1.429 . S
C1861 H1883 0.950 . S
C1862 H1858 0.949 . S
C1862 C1870 1.574 . S
C1862 C1878 1.368 . S
H1863 C1871 0.950 . S
H1864 C1869 0.950 . S
H1865 C1870 0.949 . S
H1866 C1872 0.950 . S
H1867 C1873 0.950 . S
H1868 C1874 0.949 . S
C1869 H1864 0.950 . S
C1869 C1871 1.327 . S
C1869 C1875 1.429 . S
C1870 C1862 1.574 . S
C1870 H1865 0.949 . S
C1870 C1876 1.368 . S
C1871 C1855 1.349 . S
C1871 H1863 0.950 . S
C1871 C1869 1.327 . S
C1872 C1860 1.349 . S
C1872 H1866 0.950 . S
C1872 C1873 1.327 . S
C1873 H1867 0.950 . S
C1873 C1872 1.327 . S
C1873 C1877 1.429 . S
C1874 C1857 1.574 . S
C1874 H1868 0.949 . S
C1874 C1878 1.368 . S
C1875 C1856 1.429 . S
C1875 C1869 1.429 . S
C1875 C1876 1.523 . S
C1876 C1857 1.368 . S
C1876 C1870 1.368 . S
C1876 C1875 1.523 . S
C1877 C1861 1.429 . S
C1877 C1873 1.429 . S
C1877 C1878 1.523 . S
C1878 C1862 1.368 . S
C1878 C1874 1.368 . S
C1878 C1877 1.523 . S
H1879 C1854 0.950 . S
H1880 C1856 0.950 . S
H1881 C1857 0.949 . S
H1882 C1859 0.950 . S
H1883 C1861 0.950 . S
C1884 C1885 1.349 . S
C1884 C1886 1.327 . S
C1884 H1909 0.950 . S
C1885 C1884 1.349 . S
C1885 C1901 1.349 . S
C1886 C1884 1.327 . S
C1886 C1905 1.429 . S
C1886 H1910 0.950 . S
C1887 C1904 1.574 . S
C1887 C1906 1.368 . S
C1887 H1911 0.949 . S
H1888 C1892 0.949 . S
C1889 C1890 1.349 . S
C1889 C1891 1.327 . S
C1889 H1912 0.950 . S
C1890 C1889 1.349 . S
C1890 C1902 1.349 . S
C1891 C1889 1.327 . S
C1891 C1907 1.429 . S
C1891 H1913 0.950 . S
C1892 H1888 0.949 . S
C1892 C1900 1.574 . S
C1892 C1908 1.368 . S
H1893 C1901 0.950 . S
H1894 C1899 0.950 . S
H1895 C1900 0.949 . S
H1896 C1902 0.950 . S
H1897 C1903 0.950 . S
H1898 C1904 0.949 . S
C1899 H1894 0.950 . S
C1899 C1901 1.327 . S
C1899 C1905 1.429 . S
C1900 C1892 1.574 . S
C1900 H1895 0.949 . S
C1900 C1906 1.368 . S
C1901 C1885 1.349 . S
C1901 H1893 0.950 . S
C1901 C1899 1.327 . S
C1902 C1890 1.349 . S
C1902 H1896 0.950 . S
C1902 C1903 1.327 . S
C1903 H1897 0.950 . S
C1903 C1902 1.327 . S
C1903 C1907 1.429 . S
C1904 C1887 1.574 . S
C1904 H1898 0.949 . S
C1904 C1908 1.368 . S
C1905 C1886 1.429 . S
C1905 C1899 1.429 . S
C1905 C1906 1.523 . S
C1906 C1887 1.368 . S
C1906 C1900 1.368 . S
C1906 C1905 1.523 . S
C1907 C1891 1.429 . S
C1907 C1903 1.429 . S
C1907 C1908 1.523 . S
C1908 C1892 1.368 . S
C1908 C1904 1.368 . S
C1908 C1907 1.523 . S
H1909 C1884 0.950 . S
H1910 C1886 0.950 . S
H1911 C1887 0.949 . S
H1912 C1889 0.950 . S
H1913 C1891 0.950 . S
C1914 C1915 1.349 . S
C1914 C1916 1.327 . S
C1914 H1939 0.950 . S
C1915 C1914 1.349 . S
C1915 C1931 1.349 . S
C1916 C1914 1.327 . S
C1916 C1935 1.429 . S
C1916 H1940 0.950 . S
C1917 C1934 1.574 . S
C1917 C1936 1.368 . S
C1917 H1941 0.949 . S
H1918 C1922 0.949 . S
C1919 C1920 1.349 . S
C1919 C1921 1.327 . S
C1919 H1942 0.950 . S
C1920 C1919 1.349 . S
C1920 C1932 1.349 . S
C1921 C1919 1.327 . S
C1921 C1937 1.429 . S
C1921 H1943 0.950 . S
C1922 H1918 0.949 . S
C1922 C1930 1.574 . S
C1922 C1938 1.368 . S
H1923 C1931 0.950 . S
H1924 C1929 0.950 . S
H1925 C1930 0.949 . S
H1926 C1932 0.950 . S
H1927 C1933 0.950 . S
H1928 C1934 0.949 . S
C1929 H1924 0.950 . S
C1929 C1931 1.327 . S
C1929 C1935 1.429 . S
C1930 C1922 1.574 . S
C1930 H1925 0.949 . S
C1930 C1936 1.368 . S
C1931 C1915 1.349 . S
C1931 H1923 0.950 . S
C1931 C1929 1.327 . S
C1932 C1920 1.349 . S
C1932 H1926 0.950 . S
C1932 C1933 1.327 . S
C1933 H1927 0.950 . S
C1933 C1932 1.327 . S
C1933 C1937 1.429 . S
C1934 C1917 1.574 . S
C1934 H1928 0.949 . S
C1934 C1938 1.368 . S
C1935 C1916 1.429 . S
C1935 C1929 1.429 . S
C1935 C1936 1.523 . S
C1936 C1917 1.368 . S
C1936 C1930 1.368 . S
C1936 C1935 1.523 . S
C1937 C1921 1.429 . S
C1937 C1933 1.429 . S
C1937 C1938 1.523 . S
C1938 C1922 1.368 . S
C1938 C1934 1.368 . S
C1938 C1937 1.523 . S
H1939 C1914 0.950 . S
H1940 C1916 0.950 . S
H1941 C1917 0.949 . S
H1942 C1919 0.950 . S
H1943 C1921 0.950 . S
C1944 C1945 1.349 . S
C1944 C1946 1.327 . S
C1944 H1969 0.950 . S
C1945 C1944 1.349 . S
C1945 C1961 1.349 . S
C1946 C1944 1.327 . S
C1946 C1965 1.429 . S
C1946 H1970 0.950 . S
C1947 C1964 1.574 . S
C1947 C1966 1.368 . S
C1947 H1971 0.949 . S
H1948 C1952 0.949 . S
C1949 C1950 1.349 . S
C1949 C1951 1.327 . S
C1949 H1972 0.950 . S
C1950 C1949 1.349 . S
C1950 C1962 1.349 . S
C1951 C1949 1.327 . S
C1951 C1967 1.429 . S
C1951 H1973 0.950 . S
C1952 H1948 0.949 . S
C1952 C1960 1.574 . S
C1952 C1968 1.368 . S
H1953 C1961 0.950 . S
H1954 C1959 0.950 . S
H1955 C1960 0.949 . S
H1956 C1962 0.950 . S
H1957 C1963 0.950 . S
H1958 C1964 0.949 . S
C1959 H1954 0.950 . S
C1959 C1961 1.327 . S
C1959 C1965 1.429 . S
C1960 C1952 1.574 . S
C1960 H1955 0.949 . S
C1960 C1966 1.368 . S
C1961 C1945 1.349 . S
C1961 H1953 0.950 . S
C1961 C1959 1.327 . S
C1962 C1950 1.349 . S
C1962 H1956 0.950 . S
C1962 C1963 1.327 . S
C1963 H1957 0.950 . S
C1963 C1962 1.327 . S
C1963 C1967 1.429 . S
C1964 C1947 1.574 . S
C1964 H1958 0.949 . S
C1964 C1968 1.368 . S
C1965 C1946 1.429 . S
C1965 C1959 1.429 . S
C1965 C1966 1.523 . S
C1966 C1947 1.368 . S
C1966 C1960 1.368 . S
C1966 C1965 1.523 . S
C1967 C1951 1.429 . S
C1967 C1963 1.429 . S
C1967 C1968 1.523 . S
C1968 C1952 1.368 . S
C1968 C1964 1.368 . S
C1968 C1967 1.523 . S
H1969 C1944 0.950 . S
H1970 C1946 0.950 . S
H1971 C1947 0.949 . S
H1972 C1949 0.950 . S
H1973 C1951 0.950 . S
C1974 C1975 1.349 . S
C1974 C1976 1.327 . S
C1974 H1999 0.950 . S
C1975 C1974 1.349 . S
C1975 C1991 1.349 . S
C1976 C1974 1.327 . S
C1976 C1995 1.429 . S
C1976 H2000 0.950 . S
C1977 C1994 1.574 . S
C1977 C1996 1.368 . S
C1977 H2001 0.949 . S
H1978 C1982 0.949 . S
C1979 C1980 1.349 . S
C1979 C1981 1.327 . S
C1979 H2002 0.950 . S
C1980 C1979 1.349 . S
C1980 C1992 1.349 . S
C1981 C1979 1.327 . S
C1981 C1997 1.429 . S
C1981 H2003 0.950 . S
C1982 H1978 0.949 . S
C1982 C1990 1.574 . S
C1982 C1998 1.368 . S
H1983 C1991 0.950 . S
H1984 C1989 0.950 . S
H1985 C1990 0.949 . S
H1986 C1992 0.950 . S
H1987 C1993 0.950 . S
H1988 C1994 0.949 . S
C1989 H1984 0.950 . S
C1989 C1991 1.327 . S
C1989 C1995 1.429 . S
C1990 C1982 1.574 . S
C1990 H1985 0.949 . S
C1990 C1996 1.368 . S
C1991 C1975 1.349 . S
C1991 H1983 0.950 . S
C1991 C1989 1.327 . S
C1992 C1980 1.349 . S
C1992 H1986 0.950 . S
C1992 C1993 1.327 . S
C1993 H1987 0.950 . S
C1993 C1992 1.327 . S
C1993 C1997 1.429 . S
C1994 C1977 1.574 . S
C1994 H1988 0.949 . S
C1994 C1998 1.368 . S
C1995 C1976 1.429 . S
C1995 C1989 1.429 . S
C1995 C1996 1.523 . S
C1996 C1977 1.368 . S
C1996 C1990 1.368 . S
C1996 C1995 1.523 . S
C1997 C1981 1.429 . S
C1997 C1993 1.429 . S
C1997 C1998 1.523 . S
C1998 C1982 1.368 . S
C1998 C1994 1.368 . S
C1998 C1997 1.523 . S
H1999 C1974 0.950 . S
H2000 C1976 0.950 . S
H2001 C1977 0.949 . S
H2002 C1979 0.950 . S
H2003 C1981 0.950 . S
C2004 C2005 1.349 . S
C2004 C2006 1.327 . S
C2004 H2029 0.950 . S
C2005 C2004 1.349 . S
C2005 C2021 1.349 . S
C2006 C2004 1.327 . S
C2006 C2025 1.429 . S
C2006 H2030 0.950 . S
C2007 C2024 1.574 . S
C2007 C2026 1.368 . S
C2007 H2031 0.949 . S
H2008 C2012 0.949 . S
C2009 C2010 1.349 . S
C2009 C2011 1.327 . S
C2009 H2032 0.950 . S
C2010 C2009 1.349 . S
C2010 C2022 1.349 . S
C2011 C2009 1.327 . S
C2011 C2027 1.429 . S
C2011 H2033 0.950 . S
C2012 H2008 0.949 . S
C2012 C2020 1.574 . S
C2012 C2028 1.368 . S
H2013 C2021 0.950 . S
H2014 C2019 0.950 . S
H2015 C2020 0.949 . S
H2016 C2022 0.950 . S
H2017 C2023 0.950 . S
H2018 C2024 0.949 . S
C2019 H2014 0.950 . S
C2019 C2021 1.327 . S
C2019 C2025 1.429 . S
C2020 C2012 1.574 . S
C2020 H2015 0.949 . S
C2020 C2026 1.368 . S
C2021 C2005 1.349 . S
C2021 H2013 0.950 . S
C2021 C2019 1.327 . S
C2022 C2010 1.349 . S
C2022 H2016 0.950 . S
C2022 C2023 1.327 . S
C2023 H2017 0.950 . S
C2023 C2022 1.327 . S
C2023 C2027 1.429 . S
C2024 C2007 1.574 . S
C2024 H2018 0.949 . S
C2024 C2028 1.368 . S
C2025 C2006 1.429 . S
C2025 C2019 1.429 . S
C2025 C2026 1.523 . S
C2026 C2007 1.368 . S
C2026 C2020 1.368 . S
C2026 C2025 1.523 . S
C2027 C2011 1.429 . S
C2027 C2023 1.429 . S
C2027 C2028 1.523 . S
C2028 C2012 1.368 . S
C2028 C2024 1.368 . S
C2028 C2027 1.523 . S
H2029 C2004 0.950 . S
H2030 C2006 0.950 . S
H2031 C2007 0.949 . S
H2032 C2009 0.950 . S
H2033 C2011 0.950 . S
C2034 C2035 1.349 . S
C2034 C2036 1.327 . S
C2034 H2059 0.950 . S
C2035 C2034 1.349 . S
C2035 C2051 1.349 . S
C2036 C2034 1.327 . S
C2036 C2055 1.429 . S
C2036 H2060 0.950 . S
C2037 C2054 1.574 . S
C2037 C2056 1.368 . S
C2037 H2061 0.949 . S
H2038 C2042 0.949 . S
C2039 C2040 1.349 . S
C2039 C2041 1.327 . S
C2039 H2062 0.950 . S
C2040 C2039 1.349 . S
C2040 C2052 1.349 . S
C2041 C2039 1.327 . S
C2041 C2057 1.429 . S
C2041 H2063 0.950 . S
C2042 H2038 0.949 . S
C2042 C2050 1.574 . S
C2042 C2058 1.368 . S
H2043 C2051 0.950 . S
H2044 C2049 0.950 . S
H2045 C2050 0.949 . S
H2046 C2052 0.950 . S
H2047 C2053 0.950 . S
H2048 C2054 0.949 . S
C2049 H2044 0.950 . S
C2049 C2051 1.327 . S
C2049 C2055 1.429 . S
C2050 C2042 1.574 . S
C2050 H2045 0.949 . S
C2050 C2056 1.368 . S
C2051 C2035 1.349 . S
C2051 H2043 0.950 . S
C2051 C2049 1.327 . S
C2052 C2040 1.349 . S
C2052 H2046 0.950 . S
C2052 C2053 1.327 . S
C2053 H2047 0.950 . S
C2053 C2052 1.327 . S
C2053 C2057 1.429 . S
C2054 C2037 1.574 . S
C2054 H2048 0.949 . S
C2054 C2058 1.368 . S
C2055 C2036 1.429 . S
C2055 C2049 1.429 . S
C2055 C2056 1.523 . S
C2056 C2037 1.368 . S
C2056 C2050 1.368 . S
C2056 C2055 1.523 . S
C2057 C2041 1.429 . S
C2057 C2053 1.429 . S
C2057 C2058 1.523 . S
C2058 C2042 1.368 . S
C2058 C2054 1.368 . S
C2058 C2057 1.523 . S
H2059 C2034 0.950 . S
H2060 C2036 0.950 . S
H2061 C2037 0.949 . S
H2062 C2039 0.950 . S
H2063 C2041 0.950 . S
C2064 C2065 1.349 . S
C2064 C2066 1.327 . S
C2064 H2089 0.950 . S
C2065 C2064 1.349 . S
C2065 C2081 1.349 . S
C2066 C2064 1.327 . S
C2066 C2085 1.429 . S
C2066 H2090 0.950 . S
C2067 C2084 1.574 . S
C2067 C2086 1.368 . S
C2067 H2091 0.949 . S
H2068 C2072 0.949 . S
C2069 C2070 1.349 . S
C2069 C2071 1.327 . S
C2069 H2092 0.950 . S
C2070 C2069 1.349 . S
C2070 C2082 1.349 . S
C2071 C2069 1.327 . S
C2071 C2087 1.429 . S
C2071 H2093 0.950 . S
C2072 H2068 0.949 . S
C2072 C2080 1.574 . S
C2072 C2088 1.368 . S
H2073 C2081 0.950 . S
H2074 C2079 0.950 . S
H2075 C2080 0.949 . S
H2076 C2082 0.950 . S
H2077 C2083 0.950 . S
H2078 C2084 0.949 . S
C2079 H2074 0.950 . S
C2079 C2081 1.327 . S
C2079 C2085 1.429 . S
C2080 C2072 1.574 . S
C2080 H2075 0.949 . S
C2080 C2086 1.368 . S
C2081 C2065 1.349 . S
C2081 H2073 0.950 . S
C2081 C2079 1.327 . S
C2082 C2070 1.349 . S
C2082 H2076 0.950 . S
C2082 C2083 1.327 . S
C2083 H2077 0.950 . S
C2083 C2082 1.327 . S
C2083 C2087 1.429 . S
C2084 C2067 1.574 . S
C2084 H2078 0.949 . S
C2084 C2088 1.368 . S
C2085 C2066 1.429 . S
C2085 C2079 1.429 . S
C2085 C2086 1.523 . S
C2086 C2067 1.368 . S
C2086 C2080 1.368 . S
C2086 C2085 1.523 . S
C2087 C2071 1.429 . S
C2087 C2083 1.429 . S
C2087 C2088 1.523 . S
C2088 C2072 1.368 . S
C2088 C2084 1.368 . S
C2088 C2087 1.523 . S
H2089 C2064 0.950 . S
H2090 C2066 0.950 . S
H2091 C2067 0.949 . S
H2092 C2069 0.950 . S
H2093 C2071 0.950 . S
C2094 C2095 1.349 . S
C2094 C2096 1.327 . S
C2094 H2119 0.950 . S
C2095 C2094 1.349 . S
C2095 C2111 1.349 . S
C2096 C2094 1.327 . S
C2096 C2115 1.429 . S
C2096 H2120 0.950 . S
C2097 C2114 1.574 . S
C2097 C2116 1.368 . S
C2097 H2121 0.949 . S
H2098 C2102 0.949 . S
C2099 C2100 1.349 . S
C2099 C2101 1.327 . S
C2099 H2122 0.950 . S
C2100 C2099 1.349 . S
C2100 C2112 1.349 . S
C2101 C2099 1.327 . S
C2101 C2117 1.429 . S
C2101 H2123 0.950 . S
C2102 H2098 0.949 . S
C2102 C2110 1.574 . S
C2102 C2118 1.368 . S
H2103 C2111 0.950 . S
H2104 C2109 0.950 . S
H2105 C2110 0.949 . S
H2106 C2112 0.950 . S
H2107 C2113 0.950 . S
H2108 C2114 0.949 . S
C2109 H2104 0.950 . S
C2109 C2111 1.327 . S
C2109 C2115 1.429 . S
C2110 C2102 1.574 . S
C2110 H2105 0.949 . S
C2110 C2116 1.368 . S
C2111 C2095 1.349 . S
C2111 H2103 0.950 . S
C2111 C2109 1.327 . S
C2112 C2100 1.349 . S
C2112 H2106 0.950 . S
C2112 C2113 1.327 . S
C2113 H2107 0.950 . S
C2113 C2112 1.327 . S
C2113 C2117 1.429 . S
C2114 C2097 1.574 . S
C2114 H2108 0.949 . S
C2114 C2118 1.368 . S
C2115 C2096 1.429 . S
C2115 C2109 1.429 . S
C2115 C2116 1.523 . S
C2116 C2097 1.368 . S
C2116 C2110 1.368 . S
C2116 C2115 1.523 . S
C2117 C2101 1.429 . S
C2117 C2113 1.429 . S
C2117 C2118 1.523 . S
C2118 C2102 1.368 . S
C2118 C2114 1.368 . S
C2118 C2117 1.523 . S
H2119 C2094 0.950 . S
H2120 C2096 0.950 . S
H2121 C2097 0.949 . S
H2122 C2099 0.950 . S
H2123 C2101 0.950 . S
C2124 C2125 1.349 . S
C2124 C2126 1.327 . S
C2124 H2149 0.950 . S
C2125 C2124 1.349 . S
C2125 C2141 1.349 . S
C2126 C2124 1.327 . S
C2126 C2145 1.429 . S
C2126 H2150 0.950 . S
C2127 C2144 1.574 . S
C2127 C2146 1.368 . S
C2127 H2151 0.949 . S
H2128 C2132 0.949 . S
C2129 C2130 1.349 . S
C2129 C2131 1.327 . S
C2129 H2152 0.950 . S
C2130 C2129 1.349 . S
C2130 C2142 1.349 . S
C2131 C2129 1.327 . S
C2131 C2147 1.429 . S
C2131 H2153 0.950 . S
C2132 H2128 0.949 . S
C2132 C2140 1.574 . S
C2132 C2148 1.368 . S
H2133 C2141 0.950 . S
H2134 C2139 0.950 . S
H2135 C2140 0.949 . S
H2136 C2142 0.950 . S
H2137 C2143 0.950 . S
H2138 C2144 0.949 . S
C2139 H2134 0.950 . S
C2139 C2141 1.327 . S
C2139 C2145 1.429 . S
C2140 C2132 1.574 . S
C2140 H2135 0.949 . S
C2140 C2146 1.368 . S
C2141 C2125 1.349 . S
C2141 H2133 0.950 . S
C2141 C2139 1.327 . S
C2142 C2130 1.349 . S
C2142 H2136 0.950 . S
C2142 C2143 1.327 . S
C2143 H2137 0.950 . S
C2143 C2142 1.327 . S
C2143 C2147 1.429 . S
C2144 C2127 1.574 . S
C2144 H2138 0.949 . S
C2144 C2148 1.368 . S
C2145 C2126 1.429 . S
C2145 C2139 1.429 . S
C2145 C2146 1.523 . S
C2146 C2127 1.368 . S
C2146 C2140 1.368 . S
C2146 C2145 1.523 . S
C2147 C2131 1.429 . S
C2147 C2143 1.429 . S
C2147 C2148 1.523 . S
C2148 C2132 1.368 . S
C2148 C2144 1.368 . S
C2148 C2147 1.523 . S
H2149 C2124 0.950 . S
H2150 C2126 0.950 . S
H2151 C2127 0.949 . S
H2152 C2129 0.950 . S
H2153 C2131 0.950 . S
C2154 C2155 1.349 . S
C2154 C2156 1.327 . S
C2154 H2179 0.950 . S
C2155 C2154 1.349 . S
C2155 C2171 1.349 . S
C2156 C2154 1.327 . S
C2156 C2175 1.429 . S
C2156 H2180 0.950 . S
C2157 C2174 1.574 . S
C2157 C2176 1.368 . S
C2157 H2181 0.949 . S
H2158 C2162 0.949 . S
C2159 C2160 1.349 . S
C2159 C2161 1.327 . S
C2159 H2182 0.950 . S
C2160 C2159 1.349 . S
C2160 C2172 1.349 . S
C2161 C2159 1.327 . S
C2161 C2177 1.429 . S
C2161 H2183 0.950 . S
C2162 H2158 0.949 . S
C2162 C2170 1.574 . S
C2162 C2178 1.368 . S
H2163 C2171 0.950 . S
H2164 C2169 0.950 . S
H2165 C2170 0.949 . S
H2166 C2172 0.950 . S
H2167 C2173 0.950 . S
H2168 C2174 0.949 . S
C2169 H2164 0.950 . S
C2169 C2171 1.327 . S
C2169 C2175 1.429 . S
C2170 C2162 1.574 . S
C2170 H2165 0.949 . S
C2170 C2176 1.368 . S
C2171 C2155 1.349 . S
C2171 H2163 0.950 . S
C2171 C2169 1.327 . S
C2172 C2160 1.349 . S
C2172 H2166 0.950 . S
C2172 C2173 1.327 . S
C2173 H2167 0.950 . S
C2173 C2172 1.327 . S
C2173 C2177 1.429 . S
C2174 C2157 1.574 . S
C2174 H2168 0.949 . S
C2174 C2178 1.368 . S
C2175 C2156 1.429 . S
C2175 C2169 1.429 . S
C2175 C2176 1.523 . S
C2176 C2157 1.368 . S
C2176 C2170 1.368 . S
C2176 C2175 1.523 . S
C2177 C2161 1.429 . S
C2177 C2173 1.429 . S
C2177 C2178 1.523 . S
C2178 C2162 1.368 . S
C2178 C2174 1.368 . S
C2178 C2177 1.523 . S
H2179 C2154 0.950 . S
H2180 C2156 0.950 . S
H2181 C2157 0.949 . S
H2182 C2159 0.950 . S
H2183 C2161 0.950 . S
C2184 C2185 1.349 . S
C2184 C2186 1.327 . S
C2184 H2209 0.950 . S
C2185 C2184 1.349 . S
C2185 C2201 1.349 . S
C2186 C2184 1.327 . S
C2186 C2205 1.429 . S
C2186 H2210 0.950 . S
C2187 C2204 1.574 . S
C2187 C2206 1.368 . S
C2187 H2211 0.949 . S
H2188 C2192 0.949 . S
C2189 C2190 1.349 . S
C2189 C2191 1.327 . S
C2189 H2212 0.950 . S
C2190 C2189 1.349 . S
C2190 C2202 1.349 . S
C2191 C2189 1.327 . S
C2191 C2207 1.429 . S
C2191 H2213 0.950 . S
C2192 H2188 0.949 . S
C2192 C2200 1.574 . S
C2192 C2208 1.368 . S
H2193 C2201 0.950 . S
H2194 C2199 0.950 . S
H2195 C2200 0.949 . S
H2196 C2202 0.950 . S
H2197 C2203 0.950 . S
H2198 C2204 0.949 . S
C2199 H2194 0.950 . S
C2199 C2201 1.327 . S
C2199 C2205 1.429 . S
C2200 C2192 1.574 . S
C2200 H2195 0.949 . S
C2200 C2206 1.368 . S
C2201 C2185 1.349 . S
C2201 H2193 0.950 . S
C2201 C2199 1.327 . S
C2202 C2190 1.349 . S
C2202 H2196 0.950 . S
C2202 C2203 1.327 . S
C2203 H2197 0.950 . S
C2203 C2202 1.327 . S
C2203 C2207 1.429 . S
C2204 C2187 1.574 . S
C2204 H2198 0.949 . S
C2204 C2208 1.368 . S
C2205 C2186 1.429 . S
C2205 C2199 1.429 . S
C2205 C2206 1.523 . S
C2206 C2187 1.368 . S
C2206 C2200 1.368 . S
C2206 C2205 1.523 . S
C2207 C2191 1.429 . S
C2207 C2203 1.429 . S
C2207 C2208 1.523 . S
C2208 C2192 1.368 . S
C2208 C2204 1.368 . S
C2208 C2207 1.523 . S
H2209 C2184 0.950 . S
H2210 C2186 0.950 . S
H2211 C2187 0.949 . S
H2212 C2189 0.950 . S
H2213 C2191 0.950 . S
C2214 C2215 1.349 . S
C2214 C2216 1.327 . S
C2214 H2239 0.950 . S
C2215 C2214 1.349 . S
C2215 C2231 1.349 . S
C2216 C2214 1.327 . S
C2216 C2235 1.429 . S
C2216 H2240 0.950 . S
C2217 C2234 1.574 . S
C2217 C2236 1.368 . S
C2217 H2241 0.949 . S
H2218 C2222 0.949 . S
C2219 C2220 1.349 . S
C2219 C2221 1.327 . S
C2219 H2242 0.950 . S
C2220 C2219 1.349 . S
C2220 C2232 1.349 . S
C2221 C2219 1.327 . S
C2221 C2237 1.429 . S
C2221 H2243 0.950 . S
C2222 H2218 0.949 . S
C2222 C2230 1.574 . S
C2222 C2238 1.368 . S
H2223 C2231 0.950 . S
H2224 C2229 0.950 . S
H2225 C2230 0.949 . S
H2226 C2232 0.950 . S
H2227 C2233 0.950 . S
H2228 C2234 0.949 . S
C2229 H2224 0.950 . S
C2229 C2231 1.327 . S
C2229 C2235 1.429 . S
C2230 C2222 1.574 . S
C2230 H2225 0.949 . S
C2230 C2236 1.368 . S
C2231 C2215 1.349 . S
C2231 H2223 0.950 . S
C2231 C2229 1.327 . S
C2232 C2220 1.349 . S
C2232 H2226 0.950 . S
C2232 C2233 1.327 . S
C2233 H2227 0.950 . S
C2233 C2232 1.327 . S
C2233 C2237 1.429 . S
C2234 C2217 1.574 . S
C2234 H2228 0.949 . S
C2234 C2238 1.368 . S
C2235 C2216 1.429 . S
C2235 C2229 1.429 . S
C2235 C2236 1.523 . S
C2236 C2217 1.368 . S
C2236 C2230 1.368 . S
C2236 C2235 1.523 . S
C2237 C2221 1.429 . S
C2237 C2233 1.429 . S
C2237 C2238 1.523 . S
C2238 C2222 1.368 . S
C2238 C2234 1.368 . S
C2238 C2237 1.523 . S
H2239 C2214 0.950 . S
H2240 C2216 0.950 . S
H2241 C2217 0.949 . S
H2242 C2219 0.950 . S
H2243 C2221 0.950 . S
C2244 C2245 1.349 . S
C2244 C2246 1.327 . S
C2244 H2269 0.950 . S
C2245 C2244 1.349 . S
C2245 C2261 1.349 . S
C2246 C2244 1.327 . S
C2246 C2265 1.429 . S
C2246 H2270 0.950 . S
C2247 C2264 1.574 . S
C2247 C2266 1.368 . S
C2247 H2271 0.949 . S
H2248 C2252 0.949 . S
C2249 C2250 1.349 . S
C2249 C2251 1.327 . S
C2249 H2272 0.950 . S
C2250 C2249 1.349 . S
C2250 C2262 1.349 . S
C2251 C2249 1.327 . S
C2251 C2267 1.429 . S
C2251 H2273 0.950 . S
C2252 H2248 0.949 . S
C2252 C2260 1.574 . S
C2252 C2268 1.368 . S
H2253 C2261 0.950 . S
H2254 C2259 0.950 . S
H2255 C2260 0.949 . S
H2256 C2262 0.950 . S
H2257 C2263 0.950 . S
H2258 C2264 0.949 . S
C2259 H2254 0.950 . S
C2259 C2261 1.327 . S
C2259 C2265 1.429 . S
C2260 C2252 1.574 . S
C2260 H2255 0.949 . S
C2260 C2266 1.368 . S
C2261 C2245 1.349 . S
C2261 H2253 0.950 . S
C2261 C2259 1.327 . S
C2262 C2250 1.349 . S
C2262 H2256 0.950 . S
C2262 C2263 1.327 . S
C2263 H2257 0.950 . S
C2263 C2262 1.327 . S
C2263 C2267 1.429 . S
C2264 C2247 1.574 . S
C2264 H2258 0.949 . S
C2264 C2268 1.368 . S
C2265 C2246 1.429 . S
C2265 C2259 1.429 . S
C2265 C2266 1.523 . S
C2266 C2247 1.368 . S
C2266 C2260 1.368 . S
C2266 C2265 1.523 . S
C2267 C2251 1.429 . S
C2267 C2263 1.429 . S
C2267 C2268 1.523 . S
C2268 C2252 1.368 . S
C2268 C2264 1.368 . S
C2268 C2267 1.523 . S
H2269 C2244 0.950 . S
H2270 C2246 0.950 . S
H2271 C2247 0.949 . S
H2272 C2249 0.950 . S
H2273 C2251 0.950 . S
C2274 C2275 1.349 . S
C2274 C2276 1.327 . S
C2274 H2299 0.950 . S
C2275 C2274 1.349 . S
C2275 C2291 1.349 . S
C2276 C2274 1.327 . S
C2276 C2295 1.429 . S
C2276 H2300 0.950 . S
C2277 C2294 1.574 . S
C2277 C2296 1.368 . S
C2277 H2301 0.949 . S
H2278 C2282 0.949 . S
C2279 C2280 1.349 . S
C2279 C2281 1.327 . S
C2279 H2302 0.950 . S
C2280 C2279 1.349 . S
C2280 C2292 1.349 . S
C2281 C2279 1.327 . S
C2281 C2297 1.429 . S
C2281 H2303 0.950 . S
C2282 H2278 0.949 . S
C2282 C2290 1.574 . S
C2282 C2298 1.368 . S
H2283 C2291 0.950 . S
H2284 C2289 0.950 . S
H2285 C2290 0.949 . S
H2286 C2292 0.950 . S
H2287 C2293 0.950 . S
H2288 C2294 0.949 . S
C2289 H2284 0.950 . S
C2289 C2291 1.327 . S
C2289 C2295 1.429 . S
C2290 C2282 1.574 . S
C2290 H2285 0.949 . S
C2290 C2296 1.368 . S
C2291 C2275 1.349 . S
C2291 H2283 0.950 . S
C2291 C2289 1.327 . S
C2292 C2280 1.349 . S
C2292 H2286 0.950 . S
C2292 C2293 1.327 . S
C2293 H2287 0.950 . S
C2293 C2292 1.327 . S
C2293 C2297 1.429 . S
C2294 C2277 1.574 . S
C2294 H2288 0.949 . S
C2294 C2298 1.368 . S
C2295 C2276 1.429 . S
C2295 C2289 1.429 . S
C2295 C2296 1.523 . S
C2296 C2277 1.368 . S
C2296 C2290 1.368 . S
C2296 C2295 1.523 . S
C2297 C2281 1.429 . S
C2297 C2293 1.429 . S
C2297 C2298 1.523 . S
C2298 C2282 1.368 . S
C2298 C2294 1.368 . S
C2298 C2297 1.523 . S
H2299 C2274 0.950 . S
H2300 C2276 0.950 . S
H2301 C2277 0.949 . S
H2302 C2279 0.950 . S
H2303 C2281 0.950 . S
C2304 C2305 1.366 . S
C2304 C2306 1.323 1_655 S
C2304 H2329 0.937 1_655 S
C2305 C2304 1.366 . S
C2305 C2321 1.349 . S
C2306 C2304 1.323 1_455 S
C2306 C2325 1.429 1_455 S
C2306 H2330 0.950 . S
C2307 C2324 1.574 1_556 S
C2307 C2326 1.368 . S
C2307 H2331 0.949 . S
H2308 C2312 0.949 . S
C2309 C2310 1.366 . S
C2309 C2311 1.323 1_455 S
C2309 H2332 0.937 1_455 S
C2310 C2309 1.366 . S
C2310 C2322 1.349 . S
C2311 C2309 1.323 1_655 S
C2311 C2327 1.429 1_655 S
C2311 H2333 0.950 . S
C2312 H2308 0.949 . S
C2312 C2320 1.574 1_554 S
C2312 C2328 1.368 . S
H2313 C2321 0.950 . S
H2314 C2319 0.950 . S
H2315 C2320 0.949 . S
H2316 C2322 0.950 . S
H2317 C2323 0.950 . S
H2318 C2324 0.949 . S
C2319 H2314 0.950 . S
C2319 C2321 1.327 . S
C2319 C2325 1.429 . S
C2320 C2312 1.574 1_556 S
C2320 H2315 0.949 . S
C2320 C2326 1.368 1_455 S
C2321 C2305 1.349 . S
C2321 H2313 0.950 . S
C2321 C2319 1.327 . S
C2322 C2310 1.349 . S
C2322 H2316 0.950 . S
C2322 C2323 1.327 . S
C2323 H2317 0.950 . S
C2323 C2322 1.327 . S
C2323 C2327 1.429 . S
C2324 C2307 1.574 1_554 S
C2324 H2318 0.949 . S
C2324 C2328 1.368 1_655 S
C2325 C2306 1.429 1_655 S
C2325 C2319 1.429 . S
C2325 C2326 1.523 . S
C2326 C2307 1.368 . S
C2326 C2320 1.368 1_655 S
C2326 C2325 1.523 . S
C2327 C2311 1.429 1_455 S
C2327 C2323 1.429 . S
C2327 C2328 1.523 . S
C2328 C2312 1.368 . S
C2328 C2324 1.368 1_455 S
C2328 C2327 1.523 . S
H2329 C2304 0.937 1_455 S
H2330 C2306 0.950 . S
H2331 C2307 0.949 . S
H2332 C2309 0.937 1_655 S
H2333 C2311 0.950 . S
C2334 C2335 1.349 . S
C2334 C2336 1.327 . S
C2334 H2359 0.950 . S
C2335 C2334 1.349 . S
C2335 C2351 1.349 . S
C2336 C2334 1.327 . S
C2336 C2355 1.429 . S
C2336 H2360 0.950 . S
C2337 C2354 1.555 1_455 S
C2337 C2356 1.386 1_545 S
C2337 H2361 0.951 . S
H2338 C2342 0.951 . S
C2339 C2340 1.349 . S
C2339 C2341 1.327 . S
C2339 H2362 0.950 . S
C2340 C2339 1.349 . S
C2340 C2352 1.349 . S
C2341 C2339 1.327 . S
C2341 C2357 1.429 . S
C2341 H2363 0.950 . S
C2342 H2338 0.951 . S
C2342 C2350 1.555 1_655 S
C2342 C2358 1.386 1_565 S
H2343 C2351 0.950 1_545 S
H2344 C2349 0.973 . S
H2345 C2350 0.949 . S
H2346 C2352 0.950 1_565 S
H2347 C2353 0.973 . S
H2348 C2354 0.949 . S
C2349 H2344 0.973 . S
C2349 C2351 1.320 1_545 S
C2349 C2355 1.414 1_545 S
C2350 C2342 1.555 1_455 S
C2350 H2345 0.949 . S
C2350 C2356 1.368 1_554 S
C2351 C2335 1.349 . S
C2351 H2343 0.950 1_565 S
C2351 C2349 1.320 1_565 S
C2352 C2340 1.349 . S
C2352 H2346 0.950 1_545 S
C2352 C2353 1.320 1_545 S
C2353 H2347 0.973 . S
C2353 C2352 1.320 1_565 S
C2353 C2357 1.414 1_565 S
C2354 C2337 1.555 1_655 S
C2354 H2348 0.949 . S
C2354 C2358 1.368 1_556 S
C2355 C2336 1.429 . S
C2355 C2349 1.414 1_565 S
C2355 C2356 1.523 . S
C2356 C2337 1.386 1_565 S
C2356 C2350 1.368 1_556 S
C2356 C2355 1.523 . S
C2357 C2341 1.429 . S
C2357 C2353 1.414 1_545 S
C2357 C2358 1.523 . S
C2358 C2342 1.386 1_545 S
C2358 C2354 1.368 1_554 S
C2358 C2357 1.523 . S
H2359 C2334 0.950 . S
H2360 C2336 0.950 . S
H2361 C2337 0.951 . S
H2362 C2339 0.950 . S
H2363 C2341 0.950 . S
C2364 C2365 1.349 . S
C2364 C2366 1.327 . S
C2364 H2389 0.950 . S
C2365 C2364 1.349 . S
C2365 C2381 1.349 . S
C2366 C2364 1.327 . S
C2366 C2385 1.429 . S
C2366 H2390 0.950 . S
C2367 C2384 1.551 1_556 S
C2367 C2386 1.368 1_565 S
C2367 H2391 0.949 . S
H2368 C2372 0.949 . S
C2369 C2370 1.349 . S
C2369 C2371 1.327 . S
C2369 H2392 0.950 . S
C2370 C2369 1.349 . S
C2370 C2382 1.349 . S
C2371 C2369 1.327 . S
C2371 C2387 1.429 . S
C2371 H2393 0.950 . S
C2372 H2368 0.949 . S
C2372 C2380 1.551 1_554 S
C2372 C2388 1.368 1_545 S
H2373 C2381 0.950 . S
H2374 C2379 0.950 . S
H2375 C2380 0.951 . S
H2376 C2382 0.950 . S
H2377 C2383 0.950 . S
H2378 C2384 0.951 . S
C2379 H2374 0.950 . S
C2379 C2381 1.327 . S
C2379 C2385 1.429 . S
C2380 C2372 1.551 1_556 S
C2380 H2375 0.951 . S
C2380 C2386 1.390 . S
C2381 C2365 1.349 . S
C2381 H2373 0.950 . S
C2381 C2379 1.327 . S
C2382 C2370 1.349 . S
C2382 H2376 0.950 . S
C2382 C2383 1.327 . S
C2383 H2377 0.950 . S
C2383 C2382 1.327 . S
C2383 C2387 1.429 . S
C2384 C2367 1.551 1_554 S
C2384 H2378 0.951 . S
C2384 C2388 1.390 . S
C2385 C2366 1.429 . S
C2385 C2379 1.429 . S
C2385 C2386 1.523 . S
C2386 C2367 1.368 1_545 S
C2386 C2380 1.390 . S
C2386 C2385 1.523 . S
C2387 C2371 1.429 . S
C2387 C2383 1.429 . S
C2387 C2388 1.523 . S
C2388 C2372 1.368 1_565 S
C2388 C2384 1.390 . S
C2388 C2387 1.523 . S
H2389 C2364 0.950 . S
H2390 C2366 0.950 . S
H2391 C2367 0.949 . S
H2392 C2369 0.950 . S
H2393 C2371 0.950 . S
C2394 C2395 1.349 . S
C2394 C2396 1.327 . S
C2394 H2419 0.950 . S
C2395 C2394 1.349 . S
C2395 C2411 1.349 . S
C2396 C2394 1.327 . S
C2396 C2415 1.429 . S
C2396 H2420 0.950 . S
C2397 C2414 1.574 1_554 S
C2397 C2416 1.368 . S
C2397 H2421 0.949 . S
H2398 C2402 0.949 . S
C2399 C2400 1.349 . S
C2399 C2401 1.327 . S
C2399 H2422 0.950 . S
C2400 C2399 1.349 . S
C2400 C2412 1.349 . S
C2401 C2399 1.327 . S
C2401 C2417 1.429 . S
C2401 H2423 0.950 . S
C2402 H2398 0.949 . S
C2402 C2410 1.574 1_556 S
C2402 C2418 1.368 . S
H2403 C2411 0.950 . S
H2404 C2409 0.950 . S
H2405 C2410 0.949 . S
H2406 C2412 0.950 . S
H2407 C2413 0.950 . S
H2408 C2414 0.949 . S
C2409 H2404 0.950 . S
C2409 C2411 1.327 . S
C2409 C2415 1.429 . S
C2410 C2402 1.574 1_554 S
C2410 H2405 0.949 . S
C2410 C2416 1.368 . S
C2411 C2395 1.349 . S
C2411 H2403 0.950 . S
C2411 C2409 1.327 . S
C2412 C2400 1.349 . S
C2412 H2406 0.950 . S
C2412 C2413 1.327 . S
C2413 H2407 0.950 . S
C2413 C2412 1.327 . S
C2413 C2417 1.429 . S
C2414 C2397 1.574 1_556 S
C2414 H2408 0.949 . S
C2414 C2418 1.368 . S
C2415 C2396 1.429 . S
C2415 C2409 1.429 . S
C2415 C2416 1.523 . S
C2416 C2397 1.368 . S
C2416 C2410 1.368 . S
C2416 C2415 1.523 . S
C2417 C2401 1.429 . S
C2417 C2413 1.429 . S
C2417 C2418 1.523 . S
C2418 C2402 1.368 . S
C2418 C2414 1.368 . S
C2418 C2417 1.523 . S
H2419 C2394 0.950 . S
H2420 C2396 0.950 . S
H2421 C2397 0.949 . S
H2422 C2399 0.950 . S
H2423 C2401 0.950 . S
C2424 C2425 1.349 1_455 S
C2424 C2426 1.327 . S
C2424 H2449 0.950 . S
C2425 C2424 1.349 1_655 S
C2425 C2441 1.349 . S
C2426 C2424 1.327 . S
C2426 C2445 1.429 1_455 S
C2426 H2450 0.950 . S
C2427 C2444 1.574 1_545 S
C2427 C2446 1.368 . S
C2427 H2451 0.949 . S
H2428 C2432 0.949 . S
C2429 C2430 1.349 1_655 S
C2429 C2431 1.327 . S
C2429 H2452 0.950 . S
C2430 C2429 1.349 1_455 S
C2430 C2442 1.349 . S
C2431 C2429 1.327 . S
C2431 C2447 1.429 1_655 S
C2431 H2453 0.950 . S
C2432 H2428 0.949 . S
C2432 C2440 1.574 1_565 S
C2432 C2448 1.368 . S
H2433 C2441 0.950 . S
H2434 C2439 0.950 . S
H2435 C2440 0.949 . S
H2436 C2442 0.950 . S
H2437 C2443 0.950 . S
H2438 C2444 0.949 . S
C2439 H2434 0.950 . S
C2439 C2441 1.327 . S
C2439 C2445 1.429 . S
C2440 C2432 1.574 1_545 S
C2440 H2435 0.949 . S
C2440 C2446 1.368 1_455 S
C2441 C2425 1.349 . S
C2441 H2433 0.950 . S
C2441 C2439 1.327 . S
C2442 C2430 1.349 . S
C2442 H2436 0.950 . S
C2442 C2443 1.327 . S
C2443 H2437 0.950 . S
C2443 C2442 1.327 . S
C2443 C2447 1.429 . S
C2444 C2427 1.574 1_565 S
C2444 H2438 0.949 . S
C2444 C2448 1.368 1_655 S
C2445 C2426 1.429 1_655 S
C2445 C2439 1.429 . S
C2445 C2446 1.523 . S
C2446 C2427 1.368 . S
C2446 C2440 1.368 1_655 S
C2446 C2445 1.523 . S
C2447 C2431 1.429 1_455 S
C2447 C2443 1.429 . S
C2447 C2448 1.523 . S
C2448 C2432 1.368 . S
C2448 C2444 1.368 1_455 S
C2448 C2447 1.523 . S
H2449 C2424 0.950 . S
H2450 C2426 0.950 . S
H2451 C2427 0.949 . S
H2452 C2429 0.950 . S
H2453 C2431 0.950 . S
C2454 C2455 1.349 . S
C2454 C2456 1.327 . S
C2454 H2479 0.950 . S
C2455 C2454 1.349 . S
C2455 C2471 1.349 . S
C2456 C2454 1.327 . S
C2456 C2475 1.429 . S
C2456 H2480 0.950 . S
C2457 C2474 1.574 . S
C2457 C2476 1.368 1_545 S
C2457 H2481 0.949 . S
H2458 C2462 0.949 . S
C2459 C2460 1.349 . S
C2459 C2461 1.327 . S
C2459 H2482 0.950 . S
C2460 C2459 1.349 . S
C2460 C2472 1.349 . S
C2461 C2459 1.327 . S
C2461 C2477 1.429 . S
C2461 H2483 0.950 . S
C2462 H2458 0.949 . S
C2462 C2470 1.574 . S
C2462 C2478 1.368 1_565 S
H2463 C2471 0.950 . S
H2464 C2469 0.950 1_545 S
H2465 C2470 0.949 . S
H2466 C2472 0.950 . S
H2467 C2473 0.950 1_565 S
H2468 C2474 0.949 . S
C2469 H2464 0.950 1_565 S
C2469 C2471 1.327 . S
C2469 C2475 1.429 . S
C2470 C2462 1.574 . S
C2470 H2465 0.949 . S
C2470 C2476 1.368 . S
C2471 C2455 1.349 . S
C2471 H2463 0.950 . S
C2471 C2469 1.327 . S
C2472 C2460 1.349 . S
C2472 H2466 0.950 . S
C2472 C2473 1.327 . S
C2473 H2467 0.950 1_545 S
C2473 C2472 1.327 . S
C2473 C2477 1.429 . S
C2474 C2457 1.574 . S
C2474 H2468 0.949 . S
C2474 C2478 1.368 . S
C2475 C2456 1.429 . S
C2475 C2469 1.429 . S
C2475 C2476 1.523 . S
C2476 C2457 1.368 1_565 S
C2476 C2470 1.368 . S
C2476 C2475 1.523 . S
C2477 C2461 1.429 . S
C2477 C2473 1.429 . S
C2477 C2478 1.523 . S
C2478 C2462 1.368 1_545 S
C2478 C2474 1.368 . S
C2478 C2477 1.523 . S
H2479 C2454 0.950 . S
H2480 C2456 0.950 . S
H2481 C2457 0.949 . S
H2482 C2459 0.950 . S
H2483 C2461 0.950 . S
C2484 C2485 1.349 . S
C2484 C2486 1.327 . S
C2484 H2509 0.950 . S
C2485 C2484 1.349 . S
C2485 C2501 1.349 . S
C2486 C2484 1.327 . S
C2486 C2505 1.429 . S
C2486 H2510 0.950 . S
C2487 C2504 1.574 . S
C2487 C2506 1.368 . S
C2487 H2511 0.949 . S
H2488 C2492 0.949 . S
C2489 C2490 1.349 . S
C2489 C2491 1.327 . S
C2489 H2512 0.950 . S
C2490 C2489 1.349 . S
C2490 C2502 1.349 . S
C2491 C2489 1.327 . S
C2491 C2507 1.429 . S
C2491 H2513 0.950 . S
C2492 H2488 0.949 . S
C2492 C2500 1.574 . S
C2492 C2508 1.368 . S
H2493 C2501 0.950 . S
H2494 C2499 0.950 . S
H2495 C2500 0.949 . S
H2496 C2502 0.950 . S
H2497 C2503 0.950 . S
H2498 C2504 0.949 . S
C2499 H2494 0.950 . S
C2499 C2501 1.327 . S
C2499 C2505 1.429 . S
C2500 C2492 1.574 . S
C2500 H2495 0.949 . S
C2500 C2506 1.368 . S
C2501 C2485 1.349 . S
C2501 H2493 0.950 . S
C2501 C2499 1.327 . S
C2502 C2490 1.349 . S
C2502 H2496 0.950 . S
C2502 C2503 1.327 . S
C2503 H2497 0.950 . S
C2503 C2502 1.327 . S
C2503 C2507 1.429 . S
C2504 C2487 1.574 . S
C2504 H2498 0.949 . S
C2504 C2508 1.368 . S
C2505 C2486 1.429 . S
C2505 C2499 1.429 . S
C2505 C2506 1.523 . S
C2506 C2487 1.368 . S
C2506 C2500 1.368 . S
C2506 C2505 1.523 . S
C2507 C2491 1.429 . S
C2507 C2503 1.429 . S
C2507 C2508 1.523 . S
C2508 C2492 1.368 . S
C2508 C2504 1.368 . S
C2508 C2507 1.523 . S
H2509 C2484 0.950 . S
H2510 C2486 0.950 . S
H2511 C2487 0.949 . S
H2512 C2489 0.950 . S
H2513 C2491 0.950 . S
C2514 C2515 1.349 . S
C2514 C2516 1.327 . S
C2514 H2539 0.950 . S
C2515 C2514 1.349 . S
C2515 C2531 1.349 . S
C2516 C2514 1.327 . S
C2516 C2535 1.429 . S
C2516 H2540 0.950 . S
C2517 C2534 1.574 1_455 S
C2517 C2536 1.368 . S
C2517 H2541 0.949 . S
H2518 C2522 0.949 . S
C2519 C2520 1.349 . S
C2519 C2521 1.327 . S
C2519 H2542 0.950 . S
C2520 C2519 1.349 . S
C2520 C2532 1.349 . S
C2521 C2519 1.327 . S
C2521 C2537 1.429 . S
C2521 H2543 0.950 . S
C2522 H2518 0.949 . S
C2522 C2530 1.574 1_655 S
C2522 C2538 1.368 . S
H2523 C2531 0.950 . S
H2524 C2529 0.950 . S
H2525 C2530 0.949 . S
H2526 C2532 0.950 . S
H2527 C2533 0.950 . S
H2528 C2534 0.949 . S
C2529 H2524 0.950 . S
C2529 C2531 1.327 . S
C2529 C2535 1.429 . S
C2530 C2522 1.574 1_455 S
C2530 H2525 0.949 . S
C2530 C2536 1.368 . S
C2531 C2515 1.349 . S
C2531 H2523 0.950 . S
C2531 C2529 1.327 . S
C2532 C2520 1.349 . S
C2532 H2526 0.950 . S
C2532 C2533 1.327 . S
C2533 H2527 0.950 . S
C2533 C2532 1.327 . S
C2533 C2537 1.429 . S
C2534 C2517 1.574 1_655 S
C2534 H2528 0.949 . S
C2534 C2538 1.368 . S
C2535 C2516 1.429 . S
C2535 C2529 1.429 . S
C2535 C2536 1.523 . S
C2536 C2517 1.368 . S
C2536 C2530 1.368 . S
C2536 C2535 1.523 . S
C2537 C2521 1.429 . S
C2537 C2533 1.429 . S
C2537 C2538 1.523 . S
C2538 C2522 1.368 . S
C2538 C2534 1.368 . S
C2538 C2537 1.523 . S
H2539 C2514 0.950 . S
H2540 C2516 0.950 . S
H2541 C2517 0.949 . S
H2542 C2519 0.950 . S
H2543 C2521 0.950 . S
C2544 C2545 1.349 . S
C2544 C2546 1.327 . S
C2544 H2569 0.950 . S
C2545 C2544 1.349 . S
C2545 C2561 1.349 . S
C2546 C2544 1.327 . S
C2546 C2565 1.429 . S
C2546 H2570 0.950 . S
C2547 C2564 1.574 . S
C2547 C2566 1.368 . S
C2547 H2571 0.949 . S
H2548 C2552 0.962 . S
C2549 C2550 1.349 . S
C2549 C2551 1.327 . S
C2549 H2572 0.950 . S
C2550 C2549 1.349 . S
C2550 C2562 1.349 . S
C2551 C2549 1.327 . S
C2551 C2567 1.429 . S
C2551 H2573 0.950 . S
C2552 H2548 0.962 . S
C2552 C2560 1.574 . S
C2552 C2568 1.368 . S
H2553 C2561 0.950 . S
H2554 C2559 0.950 . S
H2555 C2560 0.949 . S
H2556 C2562 0.950 . S
H2557 C2563 0.950 . S
H2558 C2564 0.949 . S
C2559 H2554 0.950 . S
C2559 C2561 1.327 . S
C2559 C2565 1.429 . S
C2560 C2552 1.574 . S
C2560 H2555 0.949 . S
C2560 C2566 1.368 . S
C2561 C2545 1.349 . S
C2561 H2553 0.950 . S
C2561 C2559 1.327 . S
C2562 C2550 1.349 . S
C2562 H2556 0.950 . S
C2562 C2563 1.327 . S
C2563 H2557 0.950 . S
C2563 C2562 1.327 . S
C2563 C2567 1.429 . S
C2564 C2547 1.574 . S
C2564 H2558 0.949 . S
C2564 C2568 1.368 . S
C2565 C2546 1.429 . S
C2565 C2559 1.429 . S
C2565 C2566 1.523 . S
C2566 C2547 1.368 . S
C2566 C2560 1.368 . S
C2566 C2565 1.523 . S
C2567 C2551 1.429 . S
C2567 C2563 1.429 . S
C2567 C2568 1.523 1_455 S
C2568 C2552 1.368 . S
C2568 C2564 1.368 . S
C2568 C2567 1.523 1_655 S
H2569 C2544 0.950 . S
H2570 C2546 0.950 . S
H2571 C2547 0.949 . S
H2572 C2549 0.950 . S
H2573 C2551 0.950 . S
C2574 C2575 1.349 . S
C2574 C2576 1.327 . S
C2574 H2599 0.950 . S
C2575 C2574 1.349 . S
C2575 C2591 1.349 . S
C2576 C2574 1.327 . S
C2576 C2595 1.429 . S
C2576 H2600 0.950 . S
C2577 C2594 1.574 . S
C2577 C2596 1.368 . S
C2577 H2601 0.949 . S
H2578 C2582 0.949 . S
C2579 C2580 1.349 . S
C2579 C2581 1.327 1_545 S
C2579 H2602 0.950 1_545 S
C2580 C2579 1.349 . S
C2580 C2592 1.349 . S
C2581 C2579 1.327 1_565 S
C2581 C2597 1.429 1_565 S
C2581 H2603 0.950 . S
C2582 H2578 0.949 . S
C2582 C2590 1.580 . S
C2582 C2598 1.368 1_545 S
H2583 C2591 0.950 . S
H2584 C2589 0.950 . S
H2585 C2590 0.956 1_455 S
H2586 C2592 0.950 . S
H2587 C2593 0.950 . S
H2588 C2594 0.949 . S
C2589 H2584 0.950 . S
C2589 C2591 1.327 . S
C2589 C2595 1.429 . S
C2590 C2582 1.580 . S
C2590 H2585 0.956 1_655 S
C2590 C2596 1.354 1_545 S
C2591 C2575 1.349 . S
C2591 H2583 0.950 . S
C2591 C2589 1.327 . S
C2592 C2580 1.349 . S
C2592 H2586 0.950 . S
C2592 C2593 1.327 . S
C2593 H2587 0.950 . S
C2593 C2592 1.327 . S
C2593 C2597 1.429 . S
C2594 C2577 1.574 . S
C2594 H2588 0.949 . S
C2594 C2598 1.368 . S
C2595 C2576 1.429 . S
C2595 C2589 1.429 . S
C2595 C2596 1.523 1_455 S
C2596 C2577 1.368 . S
C2596 C2590 1.354 1_565 S
C2596 C2595 1.523 1_655 S
C2597 C2581 1.429 1_545 S
C2597 C2593 1.429 . S
C2597 C2598 1.523 1_545 S
C2598 C2582 1.368 1_565 S
C2598 C2594 1.368 . S
C2598 C2597 1.523 1_565 S
H2599 C2574 0.950 . S
H2600 C2576 0.950 . S
H2601 C2577 0.949 . S
H2602 C2579 0.950 1_565 S
H2603 C2581 0.950 . S
C2604 C2605 1.349 . S
C2604 C2606 1.327 . S
C2604 H2629 0.950 . S
C2605 C2604 1.349 . S
C2605 C2621 1.349 . S
C2606 C2604 1.327 . S
C2606 C2625 1.429 . S
C2606 H2630 0.950 . S
C2607 C2624 1.574 . S
C2607 C2626 1.368 . S
C2607 H2631 0.949 . S
H2608 C2612 0.962 . S
C2609 C2610 1.349 . S
C2609 C2611 1.327 . S
C2609 H2632 0.950 . S
C2610 C2609 1.349 . S
C2610 C2622 1.349 . S
C2611 C2609 1.327 . S
C2611 C2627 1.429 . S
C2611 H2633 0.950 . S
C2612 H2608 0.962 . S
C2612 C2620 1.574 1_565 S
C2612 C2628 1.368 . S
H2613 C2621 0.950 . S
H2614 C2619 0.979 . S
H2615 C2620 0.949 . S
H2616 C2622 0.950 . S
H2617 C2623 0.950 . S
H2618 C2624 0.949 . S
C2619 H2614 0.979 . S
C2619 C2621 1.311 1_565 S
C2619 C2625 1.417 1_565 S
C2620 C2612 1.574 1_545 S
C2620 H2615 0.949 . S
C2620 C2626 1.368 1_545 S
C2621 C2605 1.349 . S
C2621 H2613 0.950 . S
C2621 C2619 1.311 1_545 S
C2622 C2610 1.349 . S
C2622 H2616 0.950 . S
C2622 C2623 1.327 . S
C2623 H2617 0.950 . S
C2623 C2622 1.327 . S
C2623 C2627 1.429 . S
C2624 C2607 1.574 . S
C2624 H2618 0.949 . S
C2624 C2628 1.368 . S
C2625 C2606 1.429 . S
C2625 C2619 1.417 1_545 S
C2625 C2626 1.523 1_545 S
C2626 C2607 1.368 . S
C2626 C2620 1.368 1_565 S
C2626 C2625 1.523 1_565 S
C2627 C2611 1.429 . S
C2627 C2623 1.429 . S
C2627 C2628 1.523 . S
C2628 C2612 1.368 . S
C2628 C2624 1.368 . S
C2628 C2627 1.523 . S
H2629 C2604 0.950 . S
H2630 C2606 0.950 . S
H2631 C2607 0.949 . S
H2632 C2609 0.950 . S
H2633 C2611 0.950 . S
C2634 C2635 1.349 . S
C2634 C2636 1.327 . S
C2634 H2659 0.950 . S
C2635 C2634 1.349 . S
C2635 C2651 1.349 . S
C2636 C2634 1.327 . S
C2636 C2655 1.429 . S
C2636 H2660 0.950 . S
C2637 C2654 1.574 . S
C2637 C2656 1.368 . S
C2637 H2661 0.949 . S
H2638 C2642 0.949 . S
C2639 C2640 1.349 . S
C2639 C2641 1.327 . S
C2639 H2662 0.950 . S
C2640 C2639 1.349 . S
C2640 C2652 1.349 . S
C2641 C2639 1.327 . S
C2641 C2657 1.429 . S
C2641 H2663 0.950 . S
C2642 H2638 0.949 . S
C2642 C2650 1.574 . S
C2642 C2658 1.368 . S
H2643 C2651 0.950 . S
H2644 C2649 0.950 . S
H2645 C2650 0.949 . S
H2646 C2652 0.950 . S
H2647 C2653 0.950 . S
H2648 C2654 0.949 . S
C2649 H2644 0.950 . S
C2649 C2651 1.327 . S
C2649 C2655 1.429 . S
C2650 C2642 1.574 . S
C2650 H2645 0.949 . S
C2650 C2656 1.368 . S
C2651 C2635 1.349 . S
C2651 H2643 0.950 . S
C2651 C2649 1.327 . S
C2652 C2640 1.349 . S
C2652 H2646 0.950 . S
C2652 C2653 1.327 . S
C2653 H2647 0.950 . S
C2653 C2652 1.327 . S
C2653 C2657 1.429 . S
C2654 C2637 1.574 . S
C2654 H2648 0.949 . S
C2654 C2658 1.368 . S
C2655 C2636 1.429 . S
C2655 C2649 1.429 . S
C2655 C2656 1.523 . S
C2656 C2637 1.368 . S
C2656 C2650 1.368 . S
C2656 C2655 1.523 . S
C2657 C2641 1.429 . S
C2657 C2653 1.429 . S
C2657 C2658 1.523 . S
C2658 C2642 1.368 . S
C2658 C2654 1.368 . S
C2658 C2657 1.523 . S
H2659 C2634 0.950 . S
H2660 C2636 0.950 . S
H2661 C2637 0.949 . S
H2662 C2639 0.950 . S
H2663 C2641 0.950 . S
C2664 C2665 1.349 . S
C2664 C2666 1.327 . S
C2664 H2689 0.950 . S
C2665 C2664 1.349 . S
C2665 C2681 1.349 . S
C2666 C2664 1.327 . S
C2666 C2685 1.429 . S
C2666 H2690 0.950 . S
C2667 C2684 1.574 . S
C2667 C2686 1.368 . S
C2667 H2691 0.949 . S
H2668 C2672 0.949 . S
C2669 C2670 1.349 . S
C2669 C2671 1.327 1_655 S
C2669 H2692 0.940 1_655 S
C2670 C2669 1.349 . S
C2670 C2682 1.349 . S
C2671 C2669 1.327 1_455 S
C2671 C2687 1.429 1_455 S
C2671 H2693 0.950 . S
C2672 H2668 0.949 . S
C2672 C2680 1.574 1_655 S
C2672 C2688 1.368 1_655 S
H2673 C2681 0.950 . S
H2674 C2679 0.950 . S
H2675 C2680 0.949 1_655 S
H2676 C2682 0.950 . S
H2677 C2683 0.950 . S
H2678 C2684 0.949 . S
C2679 H2674 0.950 . S
C2679 C2681 1.327 . S
C2679 C2685 1.429 . S
C2680 C2672 1.574 1_455 S
C2680 H2675 0.949 1_455 S
C2680 C2686 1.368 . S
C2681 C2665 1.349 . S
C2681 H2673 0.950 . S
C2681 C2679 1.327 . S
C2682 C2670 1.349 . S
C2682 H2676 0.950 . S
C2682 C2683 1.327 . S
C2683 H2677 0.950 . S
C2683 C2682 1.327 . S
C2683 C2687 1.429 . S
C2684 C2667 1.574 . S
C2684 H2678 0.949 . S
C2684 C2688 1.368 . S
C2685 C2666 1.429 . S
C2685 C2679 1.429 . S
C2685 C2686 1.523 . S
C2686 C2667 1.368 . S
C2686 C2680 1.368 . S
C2686 C2685 1.523 . S
C2687 C2671 1.429 1_655 S
C2687 C2683 1.429 . S
C2687 C2688 1.523 1_655 S
C2688 C2672 1.368 1_455 S
C2688 C2684 1.368 . S
C2688 C2687 1.523 1_455 S
H2689 C2664 0.950 . S
H2690 C2666 0.950 . S
H2691 C2667 0.949 . S
H2692 C2669 0.940 1_455 S
H2693 C2671 0.950 . S
C2694 C2695 1.349 . S
C2694 C2696 1.327 . S
C2694 H2719 0.950 . S
C2695 C2694 1.349 . S
C2695 C2711 1.349 . S
C2696 C2694 1.327 . S
C2696 C2715 1.429 . S
C2696 H2720 0.950 . S
C2697 C2714 1.574 1_545 S
C2697 C2716 1.368 . S
C2697 H2721 0.949 1_545 S
H2698 C2702 0.949 . S
C2699 C2700 1.349 . S
C2699 C2701 1.327 . S
C2699 H2722 0.950 . S
C2700 C2699 1.349 . S
C2700 C2712 1.349 . S
C2701 C2699 1.327 . S
C2701 C2717 1.429 . S
C2701 H2723 0.950 . S
C2702 H2698 0.949 . S
C2702 C2710 1.574 . S
C2702 C2718 1.368 . S
H2703 C2711 0.950 . S
H2704 C2709 0.950 . S
H2705 C2710 0.949 1_655 S
H2706 C2712 0.951 . S
H2707 C2713 0.950 . S
H2708 C2714 0.949 . S
C2709 H2704 0.950 . S
C2709 C2711 1.327 . S
C2709 C2715 1.429 . S
C2710 C2702 1.574 . S
C2710 H2705 0.949 1_455 S
C2710 C2716 1.368 . S
C2711 C2695 1.349 . S
C2711 H2703 0.950 . S
C2711 C2709 1.327 . S
C2712 C2700 1.349 . S
C2712 H2706 0.951 . S
C2712 C2713 1.327 1_565 S
C2713 H2707 0.950 . S
C2713 C2712 1.327 1_545 S
C2713 C2717 1.429 1_545 S
C2714 C2697 1.574 1_565 S
C2714 H2708 0.949 . S
C2714 C2718 1.368 1_565 S
C2715 C2696 1.429 . S
C2715 C2709 1.429 . S
C2715 C2716 1.523 1_655 S
C2716 C2697 1.368 . S
C2716 C2710 1.368 . S
C2716 C2715 1.523 1_455 S
C2717 C2701 1.429 . S
C2717 C2713 1.429 1_565 S
C2717 C2718 1.523 1_565 S
C2718 C2702 1.368 . S
C2718 C2714 1.368 1_545 S
C2718 C2717 1.523 1_545 S
H2719 C2694 0.950 . S
H2720 C2696 0.950 . S
H2721 C2697 0.949 1_565 S
H2722 C2699 0.950 . S
H2723 C2701 0.950 . S
C2724 C2725 1.349 . S
C2724 C2726 1.327 . S
C2724 H2749 0.950 . S
C2725 C2724 1.349 . S
C2725 C2741 1.349 . S
C2726 C2724 1.327 . S
C2726 C2745 1.429 . S
C2726 H2750 0.950 . S
C2727 C2744 1.574 . S
C2727 C2746 1.368 . S
C2727 H2751 0.949 . S
H2728 C2732 0.949 1_565 S
C2729 C2730 1.349 . S
C2729 C2731 1.327 . S
C2729 H2752 0.950 . S
C2730 C2729 1.349 . S
C2730 C2742 1.349 . S
C2731 C2729 1.327 . S
C2731 C2747 1.429 . S
C2731 H2753 0.950 . S
C2732 H2728 0.949 1_545 S
C2732 C2740 1.574 1_545 S
C2732 C2748 1.368 . S
H2733 C2741 0.950 1_545 S
H2734 C2739 0.950 . S
H2735 C2740 0.949 . S
H2736 C2742 0.950 . S
H2737 C2743 0.950 . S
H2738 C2744 0.949 . S
C2739 H2734 0.950 . S
C2739 C2741 1.327 1_545 S
C2739 C2745 1.429 1_545 S
C2740 C2732 1.574 1_565 S
C2740 H2735 0.949 . S
C2740 C2746 1.368 1_565 S
C2741 C2725 1.349 . S
C2741 H2733 0.950 1_565 S
C2741 C2739 1.327 1_565 S
C2742 C2730 1.349 . S
C2742 H2736 0.950 . S
C2742 C2743 1.327 . S
C2743 H2737 0.950 . S
C2743 C2742 1.327 . S
C2743 C2747 1.429 . S
C2744 C2727 1.574 . S
C2744 H2738 0.949 . S
C2744 C2748 1.368 . S
C2745 C2726 1.429 . S
C2745 C2739 1.429 1_565 S
C2745 C2746 1.523 1_565 S
C2746 C2727 1.368 . S
C2746 C2740 1.368 1_545 S
C2746 C2745 1.523 1_545 S
C2747 C2731 1.429 . S
C2747 C2743 1.429 . S
C2747 C2748 1.523 . S
C2748 C2732 1.368 . S
C2748 C2744 1.368 . S
C2748 C2747 1.523 . S
H2749 C2724 0.950 . S
H2750 C2726 0.950 . S
H2751 C2727 0.949 . S
H2752 C2729 0.950 . S
H2753 C2731 0.950 . S
C2754 C2755 1.349 . S
C2754 C2756 1.327 . S
C2754 H2779 0.950 . S
C2755 C2754 1.349 . S
C2755 C2771 1.349 . S
C2756 C2754 1.327 . S
C2756 C2775 1.429 . S
C2756 H2780 0.950 . S
C2757 C2774 1.574 . S
C2757 C2776 1.368 . S
C2757 H2781 0.949 . S
H2758 C2762 0.949 . S
C2759 C2760 1.349 . S
C2759 C2761 1.327 . S
C2759 H2782 0.950 . S
C2760 C2759 1.349 . S
C2760 C2772 1.349 . S
C2761 C2759 1.327 . S
C2761 C2777 1.429 . S
C2761 H2783 0.950 . S
C2762 H2758 0.949 . S
C2762 C2770 1.574 . S
C2762 C2778 1.368 . S
H2763 C2771 0.950 . S
H2764 C2769 0.950 . S
H2765 C2770 0.949 . S
H2766 C2772 0.950 . S
H2767 C2773 0.950 . S
H2768 C2774 0.949 . S
C2769 H2764 0.950 . S
C2769 C2771 1.327 . S
C2769 C2775 1.429 . S
C2770 C2762 1.574 . S
C2770 H2765 0.949 . S
C2770 C2776 1.368 . S
C2771 C2755 1.349 . S
C2771 H2763 0.950 . S
C2771 C2769 1.327 . S
C2772 C2760 1.349 . S
C2772 H2766 0.950 . S
C2772 C2773 1.327 . S
C2773 H2767 0.950 . S
C2773 C2772 1.327 . S
C2773 C2777 1.429 . S
C2774 C2757 1.574 . S
C2774 H2768 0.949 . S
C2774 C2778 1.368 . S
C2775 C2756 1.429 . S
C2775 C2769 1.429 . S
C2775 C2776 1.523 . S
C2776 C2757 1.368 . S
C2776 C2770 1.368 . S
C2776 C2775 1.523 . S
C2777 C2761 1.429 . S
C2777 C2773 1.429 . S
C2777 C2778 1.523 . S
C2778 C2762 1.368 . S
C2778 C2774 1.368 . S
C2778 C2777 1.523 . S
H2779 C2754 0.950 . S
H2780 C2756 0.950 . S
H2781 C2757 0.949 . S
H2782 C2759 0.950 . S
H2783 C2761 0.950 . S
C1345 C319 1.815 . S
C1350 C69 1.805 . S
C1375 C67 1.810 . S
C1380 C153 1.796 . S
C1405 C226 1.733 . S
C1410 C151 1.826 . S
C1435 C242 1.905 . S
C1440 C321 1.829 . S
C1465 C405 1.805 . S
C1470 C487 1.815 . S
C1495 C489 1.829 . S
C1500 C578 1.905 . S
C1525 C562 1.733 . S
C1530 C655 1.826 . S
C1555 C403 1.810 . S
C1560 C657 1.796 . S
C1585 C730 1.805 . S
C1590 C980 1.815 . S
C1615 C728 1.810 . S
C1620 C814 1.796 . S
C1645 C812 1.826 . S
C1650 C909 1.733 . S
C1675 C903 1.905 . S
C1680 C982 1.829 . S
C1705 C1066 1.805 . S
C1710 C1148 1.815 . S
C1735 C1239 1.905 . S
C1740 C1150 1.829 . S
C1765 C1316 1.826 . S
C1770 C1245 1.733 . S
C1795 C1318 1.796 . S
C1800 C1064 1.810 . S
C1825 C63 1.956 . S
C1830 C399 1.956 . S
C1855 C483 2.007 . S
C1860 C147 2.006 . S
C1885 C224 1.901 . S
C1890 C560 1.901 . S
C1915 C315 2.007 . S
C1920 C651 2.006 . S
C1945 C1082 1.956 . S
C1950 C746 1.956 . S
C1975 C1166 2.007 . S
C1980 C830 2.006 . S
C2005 C907 1.901 . S
C2010 C1243 1.901 . S
C2035 C1334 2.006 . S
C2040 C998 2.007 . S
C2065 C58 0.792 . S
C2070 C237 0.794 . S
C2095 C142 0.815 . S
C2100 C310 0.815 . S
C2125 C573 0.794 . S
C2130 C394 0.792 . S
C2155 C646 0.815 . S
C2160 C478 0.815 . S
C2185 C898 0.794 . S
C2190 C741 0.792 . S
C2215 C993 0.815 . S
C2220 C825 0.815 . S
C2245 C1077 0.792 . S
C2250 C1234 0.794 . S
C2275 C1161 0.815 . S
C2280 C1329 0.815 . S
C2305 C735 1.233 . S
C2310 C74 1.233 . S
C2335 C819 1.253 . S
C2340 C158 1.253 . S
C2365 C896 1.195 . S
C2370 C235 1.195 . S
C2395 C326 1.244 . S
C2400 C987 1.244 . S
C2425 C1071 1.233 . S
C2430 C410 1.233 . S
C2455 C1155 1.244 . S
C2460 C494 1.244 . S
C2485 C1232 1.195 . S
C2490 C571 1.195 . S
C2515 C1323 1.253 . S
C2520 C662 1.253 . S
C2545 C644 0.750 . S
C2550 C56 0.750 . S
C2575 C392 0.750 . S
C2580 C140 0.750 . S
C2605 C476 0.748 . S
C2610 C231 0.749 . S
C2635 C567 0.748 . S
C2640 C308 0.748 . S
C2665 C1327 0.750 . S
C2670 C739 0.750 . S
C2695 C1075 0.750 . S
C2700 C823 0.750 . S
C2725 C1159 0.748 . S
C2730 C914 0.749 . S
C2755 C991 0.748 . S
C2760 C1250 0.748 . S
