# Generated by pormake.
# Topology ukf, (4)-cn, num edge types: 1
# Building blocks:
#     Node 0, Type 0, BuildingBlock: QUQFOY_clean_sbu_1, # of connection points: 4
#     Node 1, Type 0, BuildingBlock: QUQFOY_clean_sbu_1, # of connection points: 4
#     Node 2, Type 0, BuildingBlock: QUQFOY_clean_sbu_1, # of connection points: 4
#     Node 3, Type 0, BuildingBlock: QUQFOY_clean_sbu_1, # of connection points: 4
#     Node 4, Type 0, BuildingBlock: QUQFOY_clean_sbu_1, # of connection points: 4
#     Node 5, Type 0, BuildingBlock: QUQFOY_clean_sbu_1, # of connection points: 4
#     Node 6, Type 0, BuildingBlock: QUQFOY_clean_sbu_1, # of connection points: 4
#     Node 7, Type 0, BuildingBlock: QUQFOY_clean_sbu_1, # of connection points: 4
#     Node 8, Type 0, BuildingBlock: QUQFOY_clean_sbu_1, # of connection points: 4
#     Node 9, Type 0, BuildingBlock: QUQFOY_clean_sbu_1, # of connection points: 4
#     Node 10, Type 0, BuildingBlock: QUQFOY_clean_sbu_1, # of connection points: 4
#     Node 11, Type 0, BuildingBlock: QUQFOY_clean_sbu_1, # of connection points: 4
#     Edge 12, Type (0, 0), BuildingBlock: XUDNAN_clean_linker_2, # of connection points: 2
#     Edge 13, Type (0, 0), BuildingBlock: XUDNAN_clean_linker_2, # of connection points: 2
#     Edge 14, Type (0, 0), BuildingBlock: XUDNAN_clean_linker_2, # of connection points: 2
#     Edge 15, Type (0, 0), BuildingBlock: XUDNAN_clean_linker_2, # of connection points: 2
#     Edge 16, Type (0, 0), BuildingBlock: XUDNAN_clean_linker_2, # of connection points: 2
#     Edge 17, Type (0, 0), BuildingBlock: XUDNAN_clean_linker_2, # of connection points: 2
#     Edge 18, Type (0, 0), BuildingBlock: XUDNAN_clean_linker_2, # of connection points: 2
#     Edge 19, Type (0, 0), BuildingBlock: XUDNAN_clean_linker_2, # of connection points: 2
#     Edge 20, Type (0, 0), BuildingBlock: XUDNAN_clean_linker_2, # of connection points: 2
#     Edge 21, Type (0, 0), BuildingBlock: XUDNAN_clean_linker_2, # of connection points: 2
#     Edge 22, Type (0, 0), BuildingBlock: XUDNAN_clean_linker_2, # of connection points: 2
#     Edge 23, Type (0, 0), BuildingBlock: XUDNAN_clean_linker_2, # of connection points: 2
#     Edge 24, Type (0, 0), BuildingBlock: XUDNAN_clean_linker_2, # of connection points: 2
#     Edge 25, Type (0, 0), BuildingBlock: XUDNAN_clean_linker_2, # of connection points: 2
#     Edge 26, Type (0, 0), BuildingBlock: XUDNAN_clean_linker_2, # of connection points: 2
#     Edge 27, Type (0, 0), BuildingBlock: XUDNAN_clean_linker_2, # of connection points: 2
#     Edge 28, Type (0, 0), BuildingBlock: XUDNAN_clean_linker_2, # of connection points: 2
#     Edge 29, Type (0, 0), BuildingBlock: XUDNAN_clean_linker_2, # of connection points: 2
#     Edge 30, Type (0, 0), BuildingBlock: XUDNAN_clean_linker_2, # of connection points: 2
#     Edge 31, Type (0, 0), BuildingBlock: XUDNAN_clean_linker_2, # of connection points: 2
#     Edge 32, Type (0, 0), BuildingBlock: XUDNAN_clean_linker_2, # of connection points: 2
#     Edge 33, Type (0, 0), BuildingBlock: XUDNAN_clean_linker_2, # of connection points: 2
#     Edge 34, Type (0, 0), BuildingBlock: XUDNAN_clean_linker_2, # of connection points: 2
#     Edge 35, Type (0, 0), BuildingBlock: XUDNAN_clean_linker_2, # of connection points: 2
# Relax obj value: 0.115
# Max RMSD: 0.130
# Mean RMSD: 0.130
data_MOF--net-ukf--node1-QUQFOY_clean_sbu_1--edge1-XUDNAN_clean_linker_2
_symmetry_space_group_name_H-M    P1
_symmetry_Int_Tables_number       1
_symmetry_cell_setting            triclinic
loop_
_symmetry_equiv_pos_as_xyz
'x, y, z'
_cell_length_a     31.873842
_cell_length_b     31.850703
_cell_length_c     73.195417
_cell_angle_alpha  89.99567
_cell_angle_beta   89.976733
_cell_angle_gamma 119.80871
loop_
_atom_site_label
_atom_site_type_symbol
_atom_site_fract_x
_atom_site_fract_y
_atom_site_fract_z
_atom_type_partial_charge
O0 O 0.45428 0.32017 0.07181 0.0
Cd1 Cd 0.45036 0.25734 0.08184 0.0
Cd2 Cd 0.39818 0.22824 0.04394 0.0
O3 O 0.4137 0.29933 0.04565 0.0
O4 O 0.49434 0.28506 0.10333 0.0
O5 O 0.41799 0.22957 0.10653 0.0
C6 C 0.45925 0.25785 0.11401 0.0
C7 C 0.33088 0.16929 0.02763 0.0
C8 C 0.4384 0.331 0.05767 0.0
C9 C 0.48648 0.21747 0.05121 0.0
O10 O 0.45609 0.21805 0.04019 0.0
O11 O 0.48722 0.22865 0.06795 0.0
O12 O 0.36557 0.20626 0.01966 0.0
O13 O 0.33238 0.16733 0.04523 0.0
O14 O 0.15656 0.45648 0.40929 0.0
Cd15 Cd 0.2097 0.43756 0.41192 0.0
Cd16 Cd 0.17083 0.4032 0.37731 0.0
O17 O 0.11777 0.42003 0.38398 0.0
O18 O 0.23407 0.46205 0.43711 0.0
O19 O 0.19772 0.38457 0.43015 0.0
C20 C 0.21731 0.41805 0.44239 0.0
C21 C 0.16172 0.32826 0.36966 0.0
C22 C 0.12231 0.44561 0.398 0.0
C23 C 0.27366 0.4813 0.37886 0.0
O24 O 0.23579 0.45998 0.36914 0.0
O25 O 0.27173 0.47352 0.39599 0.0
O26 O 0.15257 0.35298 0.35793 0.0
O27 O 0.17197 0.34431 0.38624 0.0
O28 O 0.70248 0.14652 0.74638 0.0
Cd29 Cd 0.77235 0.2025 0.74997 0.0
Cd30 Cd 0.77224 0.16811 0.71382 0.0
O31 O 0.70367 0.11245 0.72022 0.0
O32 O 0.76609 0.2232 0.77514 0.0
O33 O 0.81303 0.1925 0.76901 0.0
C34 C 0.7946 0.20846 0.78098 0.0
C35 C 0.83616 0.1607 0.70186 0.0
C36 C 0.68136 0.11356 0.73446 0.0
C37 C 0.79149 0.26944 0.71776 0.0
O38 O 0.7775 0.23307 0.70732 0.0
O39 O 0.79625 0.26566 0.73486 0.0
O40 O 0.7985 0.1507 0.69215 0.0
O41 O 0.83567 0.17102 0.71893 0.0
O42 O 0.5617 0.69527 0.07199 0.0
Cd43 Cd 0.56955 0.76102 0.08025 0.0
Cd44 Cd 0.61668 0.78657 0.04454 0.0
O45 O 0.60334 0.71609 0.04612 0.0
O46 O 0.54436 0.74806 0.10593 0.0
O47 O 0.61997 0.80137 0.09926 0.0
C48 C 0.58687 0.77952 0.1115 0.0
C49 C 0.6861 0.8486 0.03019 0.0
C50 C 0.57802 0.68427 0.05801 0.0
C51 C 0.52537 0.79227 0.05038 0.0
O52 O 0.55686 0.79302 0.03955 0.0
O53 O 0.5261 0.7835 0.06731 0.0
O54 O 0.65379 0.81198 0.02124 0.0
O55 O 0.68076 0.84879 0.04767 0.0
O56 O 0.87004 0.56484 0.41236 0.0
Cd57 Cd 0.80712 0.56661 0.41779 0.0
Cd58 Cd 0.8414 0.6101 0.38027 0.0
O59 O 0.8987 0.59861 0.38538 0.0
O60 O 0.78409 0.52148 0.43911 0.0
O61 O 0.80408 0.59786 0.4419 0.0
C62 C 0.78924 0.55626 0.44947 0.0
C63 C 0.84676 0.68327 0.37185 0.0
C64 C 0.90168 0.57789 0.39978 0.0
C65 C 0.74206 0.52453 0.3839 0.0
O66 O 0.77708 0.55066 0.37335 0.0
O67 O 0.74666 0.52918 0.40117 0.0
O68 O 0.85499 0.65778 0.36019 0.0
O69 O 0.83897 0.66886 0.38868 0.0
O70 O 0.31271 0.85535 0.74286 0.0
Cd71 Cd 0.24601 0.79346 0.74482 0.0
Cd72 Cd 0.2367 0.84874 0.71429 0.0
O73 O 0.30484 0.90215 0.72237 0.0
O74 O 0.25987 0.75978 0.76499 0.0
O75 O 0.20848 0.78641 0.76834 0.0
C76 C 0.23135 0.76649 0.77547 0.0
C77 C 0.17254 0.86006 0.70535 0.0
C78 C 0.33009 0.89491 0.73406 0.0
C79 C 0.2253 0.75035 0.70672 0.0
O80 O 0.23366 0.7912 0.70076 0.0
O81 O 0.22437 0.74252 0.72383 0.0
O82 O 0.21138 0.87638 0.69568 0.0
O83 O 0.17199 0.8413 0.72108 0.0
O84 O 0.69311 0.55632 0.62333 0.0
Cd85 Cd 0.75687 0.55886 0.61571 0.0
Cd86 Cd 0.78662 0.62609 0.6469 0.0
O87 O 0.71513 0.6099 0.64579 0.0
O88 O 0.73496 0.51453 0.59419 0.0
O89 O 0.78914 0.59179 0.5917 0.0
C90 C 0.76313 0.55036 0.58392 0.0
C91 C 0.8526 0.70167 0.65435 0.0
C92 C 0.68272 0.57863 0.63532 0.0
C93 C 0.79643 0.53595 0.64945 0.0
O94 O 0.79788 0.57262 0.65685 0.0
O95 O 0.78324 0.52519 0.6329 0.0
O96 O 0.82002 0.67613 0.66626 0.0
O97 O 0.8453 0.68651 0.63765 0.0
O98 O 0.15147 0.68427 0.94954 0.0
Cd99 Cd 0.21247 0.7476 0.94185 0.0
Cd100 Cd 0.1707 0.78112 0.96721 0.0
O101 O 0.10955 0.71488 0.96214 0.0
O102 O 0.23651 0.72601 0.92066 0.0
O103 O 0.21086 0.77841 0.91768 0.0
C104 C 0.22686 0.75247 0.91012 0.0
C105 C 0.17095 0.85404 0.97144 0.0
C106 C 0.11228 0.67866 0.9563 0.0
C107 C 0.2635 0.78268 0.97711 0.0
O108 O 0.22462 0.7806 0.98247 0.0
O109 O 0.26921 0.77629 0.96034 0.0
O110 O 0.15231 0.81989 0.98341 0.0
O111 O 0.1856 0.84513 0.95621 0.0
O112 O 0.45814 0.14376 0.28534 0.0
Cd113 Cd 0.45617 0.20634 0.27929 0.0
Cd114 Cd 0.38718 0.16684 0.3096 0.0
O115 O 0.40153 0.11042 0.30668 0.0
O116 O 0.49987 0.23223 0.25766 0.0
O117 O 0.42235 0.20922 0.25607 0.0
C118 C 0.46366 0.22637 0.24799 0.0
C119 C 0.31252 0.15766 0.319 0.0
C120 C 0.4336 0.10959 0.29652 0.0
C121 C 0.47871 0.26383 0.31437 0.0
O122 O 0.44145 0.22817 0.32119 0.0
O123 O 0.48968 0.2636 0.29767 0.0
O124 O 0.33735 0.14549 0.32936 0.0
O125 O 0.32775 0.17087 0.30249 0.0
O126 O 0.31986 0.44999 0.61714 0.0
Cd127 Cd 0.25482 0.44163 0.60769 0.0
Cd128 Cd 0.22655 0.39652 0.64215 0.0
O129 O 0.29688 0.40956 0.64323 0.0
O130 O 0.26943 0.46445 0.58176 0.0
O131 O 0.2153 0.38955 0.58907 0.0
C132 C 0.23804 0.42151 0.57654 0.0
C133 C 0.15743 0.32399 0.65027 0.0
C134 C 0.32976 0.43458 0.63164 0.0
C135 C 0.22129 0.48725 0.63606 0.0
O136 O 0.2194 0.45582 0.64718 0.0
O137 O 0.23169 0.48621 0.61933 0.0
O138 O 0.18815 0.35155 0.66239 0.0
O139 O 0.16791 0.33577 0.63328 0.0
O140 O 0.83695 0.3094 0.95025 0.0
Cd141 Cd 0.79071 0.23688 0.94566 0.0
Cd142 Cd 0.84284 0.23312 0.97281 0.0
O143 O 0.89307 0.30439 0.96615 0.0
O144 O 0.76546 0.23396 0.92043 0.0
O145 O 0.8115 0.20267 0.92773 0.0
C146 C 0.78907 0.2128 0.91532 0.0
C147 C 0.85264 0.1662 0.97697 0.0
C148 C 0.87824 0.32978 0.95787 0.0
C149 C 0.74069 0.20782 0.98084 0.0
O150 O 0.78319 0.22371 0.98697 0.0
O151 O 0.73313 0.20408 0.96369 0.0
O152 O 0.86858 0.20058 0.98892 0.0
O153 O 0.83643 0.17277 0.96166 0.0
O154 O 0.5522 0.86319 0.28309 0.0
Cd155 Cd 0.56208 0.8056 0.27627 0.0
Cd156 Cd 0.62363 0.84099 0.30746 0.0
O157 O 0.60481 0.89465 0.30581 0.0
O158 O 0.53755 0.78747 0.25069 0.0
O159 O 0.61432 0.81671 0.25809 0.0
C160 C 0.5813 0.80145 0.24561 0.0
C161 C 0.69812 0.85289 0.31834 0.0
C162 C 0.57322 0.89534 0.29534 0.0
C163 C 0.53528 0.74014 0.3088 0.0
O164 O 0.57052 0.77546 0.31671 0.0
O165 O 0.52588 0.74319 0.29211 0.0
O166 O 0.6697 0.86072 0.32847 0.0
O167 O 0.68662 0.84287 0.30134 0.0
H168 H 0.17405 0.89042 1.00548 0.0
H169 H 0.19486 0.93035 0.94819 0.0
H170 H 0.22578 0.01589 0.95675 0.0
H171 H 0.1444 0.98477 0.02185 0.0
H172 H 0.1783 0.99399 0.04261 0.0
H173 H 0.1484 0.93522 0.03192 0.0
H174 H 0.22966 0.93525 0.0309 0.0
H175 H 0.25977 0.99388 0.04148 0.0
H176 H 0.28117 0.98463 0.01988 0.0
H177 H 0.26532 0.09761 0.97155 0.0
H178 H 0.31308 0.16877 0.99112 0.0
H179 H 0.26893 0.07613 0.03896 0.0
C180 C 0.18332 0.91685 0.99469 0.0
C181 C 0.18125 0.90357 0.97612 0.0
C182 C 0.19553 0.93958 0.96246 0.0
C183 C 0.21304 0.98825 0.96722 0.0
C184 C 0.21613 1.00036 0.9857 0.0
C185 C 0.20152 0.9656 0.99923 0.0
C186 C 0.21445 0.98855 0.01805 0.0
C187 C 0.16865 0.97481 0.02927 0.0
C188 C 0.24827 0.97477 0.02816 0.0
C189 C 0.24034 0.04173 0.01299 0.0
C190 C 0.24001 0.04774 0.99429 0.0
C191 C 0.26503 0.09334 0.98623 0.0
C192 C 0.29214 0.13361 0.99748 0.0
C193 C 0.29447 0.12815 0.01661 0.0
C194 C 0.26703 0.08167 0.02446 0.0
H195 H 0.1823 0.30994 0.33537 0.0
H196 H 0.15624 0.25463 0.39078 0.0
H197 H 0.17833 0.19331 0.38173 0.0
H198 H 0.14578 0.19232 0.31095 0.0
H199 H 0.19431 0.22205 0.29468 0.0
H200 H 0.16628 0.2541 0.3044 0.0
H201 H 0.25005 0.32209 0.31533 0.0
H202 H 0.27822 0.29033 0.30571 0.0
H203 H 0.28669 0.30678 0.32954 0.0
H204 H 0.21448 0.14664 0.36799 0.0
H205 H 0.26609 0.12191 0.35146 0.0
H206 H 0.27176 0.20931 0.30507 0.0
C207 C 0.17934 0.28363 0.34541 0.0
C208 C 0.16659 0.28638 0.36371 0.0
C209 C 0.16521 0.25271 0.37665 0.0
C210 C 0.17757 0.21767 0.3716 0.0
C211 C 0.19147 0.21689 0.35356 0.0
C212 C 0.19241 0.24903 0.34065 0.0
C213 C 0.21522 0.24534 0.32296 0.0
C214 C 0.17818 0.22737 0.30732 0.0
C215 C 0.2602 0.29401 0.31812 0.0
C216 C 0.22877 0.20751 0.32814 0.0
C217 C 0.21371 0.19076 0.34571 0.0
C218 C 0.22566 0.15884 0.35411 0.0
C219 C 0.25504 0.14496 0.34459 0.0
C220 C 0.27266 0.16328 0.32689 0.0
C221 C 0.25795 0.19374 0.31839 0.0
H222 H 0.92885 0.20814 0.71516 0.0
H223 H 0.84423 0.12938 0.66792 0.0
H224 H 0.91936 0.15302 0.65073 0.0
H225 H 0.01237 0.30676 0.69179 0.0
H226 H 0.06402 0.31842 0.7055 0.0
H227 H 1.00449 0.28743 0.71531 0.0
H228 H 0.01665 0.21557 0.72438 0.0
H229 H 0.07658 0.24658 0.71468 0.0
H230 H 0.03367 0.18629 0.70718 0.0
H231 H 1.0027 0.1963 0.63709 0.0
H232 H 0.08713 0.25439 0.62846 0.0
H233 H 0.11787 0.30465 0.68455 0.0
C234 C 0.92612 0.19425 0.70145 0.0
C235 C 0.88058 0.16641 0.69297 0.0
C236 C 0.87864 0.15035 0.67478 0.0
C237 C 0.92119 0.16357 0.66489 0.0
C238 C 0.96555 0.19269 0.6734 0.0
C239 C 0.96831 0.20741 0.69136 0.0
C240 C 0.02011 0.24293 0.69666 0.0
C241 C 0.02553 0.29175 0.70265 0.0
C242 C 0.03779 0.22155 0.71161 0.0
C243 C 0.04572 0.24746 0.67869 0.0
C244 C 0.01377 0.21766 0.66551 0.0
C245 C 0.02825 0.21896 0.64741 0.0
C246 C 0.07631 0.25214 0.64262 0.0
C247 C 0.10936 0.28371 0.65584 0.0
C248 C 0.09388 0.2803 0.67418 0.0
H249 H 0.74341 0.94134 0.04293 0.0
H250 H 0.7135 0.85203 0.99463 0.0
H251 H 0.76592 0.92461 0.97639 0.0
H252 H 0.73479 0.0324 0.02223 0.0
H253 H 0.78244 0.08175 0.03477 0.0
H254 H 0.75089 0.02246 0.04478 0.0
H255 H 0.83213 0.02387 0.04953 0.0
H256 H 0.86406 0.08345 0.03953 0.0
H257 H 0.87182 0.03525 0.03033 0.0
H258 H 0.80846 0.00703 0.96234 0.0
H259 H 0.83905 0.09259 0.95394 0.0
H260 H 0.84416 0.12919 1.01125 0.0
C261 C 0.74941 0.93688 0.02868 0.0
C262 C 0.72466 0.89088 0.02026 0.0
C263 C 0.73229 0.88679 1.00142 0.0
C264 C 0.76216 0.92787 0.99094 0.0
C265 C 0.78462 0.97293 0.99947 0.0
C266 C 0.77908 0.97767 0.01797 0.0
C267 C 0.80269 0.03057 0.02338 0.0
C268 C 0.76548 0.04246 0.03177 0.0
C269 C 0.84521 0.04407 0.03647 0.0
C270 C 0.82033 0.0547 1.00492 0.0
C271 C 0.81014 0.02085 0.99133 0.0
C272 C 0.81788 0.03399 0.97292 0.0
C273 C 0.83529 0.08269 0.96825 0.0
C274 C 0.84497 0.11775 0.98193 0.0
C275 C 0.83871 0.10358 1.00051 0.0
H276 H 0.74158 0.80324 0.30514 0.0
H277 H 0.74068 0.88767 0.35145 0.0
H278 H 0.79092 0.86283 0.36889 0.0
H279 H 0.72366 0.70548 0.32939 0.0
H280 H 0.76185 0.69033 0.31606 0.0
H281 H 0.73556 0.72298 0.30569 0.0
H282 H 0.82053 0.79158 0.29618 0.0
H283 H 0.8472 0.7588 0.30637 0.0
H284 H 0.86711 0.82022 0.31324 0.0
H285 H 0.82671 0.81656 0.38327 0.0
H286 H 0.84879 0.7556 0.39282 0.0
H287 H 0.82827 0.70199 0.33721 0.0
C288 C 0.75386 0.81829 0.31864 0.0
C289 C 0.73769 0.84792 0.32684 0.0
C290 C 0.75302 0.86536 0.34481 0.0
C291 C 0.7816 0.85142 0.35484 0.0
C292 C 0.79497 0.82024 0.3467 0.0
C293 C 0.78223 0.80444 0.32889 0.0
C294 C 0.79626 0.76669 0.3241 0.0
C295 C 0.75168 0.71855 0.31849 0.0
C296 C 0.8351 0.78546 0.30908 0.0
C297 C 0.81673 0.76211 0.34222 0.0
C298 C 0.81625 0.79376 0.35502 0.0
C299 C 0.82851 0.79254 0.37324 0.0
C300 C 0.84088 0.75769 0.37857 0.0
C301 C 0.84103 0.72455 0.36573 0.0
C302 C 0.82983 0.7277 0.34725 0.0
H303 H 0.89109 0.7187 0.68858 0.0
H304 H 0.92211 0.77432 0.63322 0.0
H305 H 1.00602 0.83296 0.64235 0.0
H306 H 0.97511 0.83463 0.7132 0.0
H307 H 0.99184 0.8028 0.72936 0.0
H308 H 0.93198 0.77336 0.71961 0.0
H309 H 0.94413 0.7029 0.70849 0.0
H310 H 1.00384 0.73206 0.71811 0.0
H311 H 0.99539 0.71601 0.69424 0.0
H312 H 0.08891 0.87668 0.65628 0.0
H313 H 0.16411 0.89791 0.67291 0.0
H314 H 0.07993 0.81108 0.71895 0.0
C315 C 0.91494 0.74456 0.67855 0.0
C316 C 0.89978 0.74261 0.66025 0.0
C317 C 0.93272 0.77568 0.64736 0.0
C318 C 0.98043 0.80918 0.65246 0.0
C319 C 0.9947 0.80901 0.67049 0.0
C320 C 0.96281 0.77751 0.68334 0.0
C321 C 0.98859 0.77951 0.70102 0.0
C322 C 0.97082 0.79873 0.71672 0.0
C323 C 0.98264 0.72968 0.70572 0.0
C324 C 0.04032 0.8156 0.69589 0.0
C325 C 0.04292 0.83309 0.67838 0.0
C326 C 0.08718 0.86384 0.6701 0.0
C327 C 0.1298 0.87573 0.67969 0.0
C328 C 0.12805 0.85644 0.69731 0.0
C329 C 0.08258 0.82721 0.70568 0.0
H330 H 0.65221 0.19989 0.97395 0.0
H331 H 0.74101 0.19297 0.01749 0.0
H332 H 0.68079 0.18593 0.04019 0.0
H333 H 0.61945 0.27428 0.9965 0.0
H334 H 0.55835 0.2462 0.98801 0.0
H335 H 0.6044 0.24315 0.97486 0.0
H336 H 0.55315 0.14954 0.9743 0.0
H337 H 0.50664 0.15231 0.98737 0.0
H338 H 0.5325 0.11672 0.99551 0.0
H339 H 0.61684 0.19027 0.05842 0.0
H340 H 0.55206 0.20335 0.07074 0.0
H341 H 0.50447 0.20677 0.01544 0.0
C342 C 0.65826 0.19547 0.98821 0.0
C343 C 0.70121 0.19685 0.99393 0.0
C344 C 0.70836 0.19205 0.01277 0.0
C345 C 0.67428 0.18785 0.02579 0.0
C346 C 0.63305 0.18819 0.01977 0.0
C347 C 0.62463 0.19142 1.00142 0.0
C348 C 0.57946 0.19508 0.99872 0.0
C349 C 0.59115 0.2425 0.98895 0.0
C350 C 0.54064 0.15076 0.98836 0.0
C351 C 0.56487 0.19507 0.01842 0.0
C352 C 0.59592 0.19054 0.03035 0.0
C353 C 0.59172 0.193 0.04923 0.0
C354 C 0.55495 0.20063 0.0561 0.0
C355 C 0.52299 0.20583 0.04409 0.0
C356 C 0.52783 0.20229 0.02503 0.0
H357 H 0.28743 0.51947 0.34435 0.0
H358 H 0.36452 0.5226 0.3937 0.0
H359 H 0.44126 0.58315 0.37947 0.0
H360 H 0.38242 0.53681 0.31153 0.0
H361 H 0.37051 0.57521 0.29689 0.0
H362 H 0.32226 0.52846 0.31017 0.0
H363 H 0.30447 0.59221 0.32468 0.0
H364 H 0.35249 0.63905 0.31144 0.0
H365 H 0.35256 0.64419 0.33596 0.0
H366 H 0.50801 0.64692 0.36104 0.0
H367 H 0.56058 0.7129 0.34019 0.0
H368 H 0.44054 0.6696 0.30265 0.0
C369 C 0.32053 0.53227 0.35208 0.0
C370 C 0.32001 0.51608 0.37013 0.0
C371 C 0.36403 0.5344 0.37987 0.0
C372 C 0.40781 0.5686 0.37186 0.0
C373 C 0.40694 0.58406 0.35412 0.0
C374 C 0.36449 0.56662 0.34434 0.0
C375 C 0.37305 0.59187 0.32602 0.0
C376 C 0.36137 0.55594 0.31022 0.0
C377 C 0.34393 0.61841 0.32445 0.0
C378 C 0.42684 0.62715 0.32721 0.0
C379 C 0.44566 0.62147 0.34345 0.0
C380 C 0.49382 0.65143 0.34821 0.0
C381 C 0.52334 0.6889 0.33627 0.0
C382 C 0.50467 0.69635 0.31976 0.0
C383 C 0.45599 0.66433 0.31501 0.0
H384 H 0.77127 0.28666 0.68307 0.0
H385 H 0.8342 0.35817 0.73454 0.0
H386 H 0.84905 0.43583 0.72142 0.0
H387 H 0.85138 0.3867 0.65296 0.0
H388 H 0.80357 0.37523 0.63711 0.0
H389 H 0.80158 0.32605 0.65 0.0
H390 H 0.71691 0.30387 0.66246 0.0
H391 H 0.71857 0.35281 0.6496 0.0
H392 H 0.70885 0.34945 0.67394 0.0
H393 H 0.85277 0.50416 0.70347 0.0
H394 H 0.84191 0.55835 0.68248 0.0
H395 H 0.77567 0.44238 0.64262 0.0
C396 C 0.78877 0.31873 0.69154 0.0
C397 C 0.80178 0.31636 0.70983 0.0
C398 C 0.82395 0.35909 0.7205 0.0
C399 C 0.83274 0.40339 0.71314 0.0
C400 C 0.81919 0.40433 0.69511 0.0
C401 C 0.79757 0.36314 0.68445 0.0
C402 C 0.78371 0.37338 0.66585 0.0
C403 C 0.81174 0.36484 0.65058 0.0
C404 C 0.72875 0.34309 0.6628 0.0
C405 C 0.80001 0.42664 0.66785 0.0
C406 C 0.82089 0.44382 0.68475 0.0
C407 C 0.83682 0.49125 0.69015 0.0
C408 C 0.83037 0.5217 0.67811 0.0
C409 C 0.80793 0.50464 0.66087 0.0
C410 C 0.79345 0.45667 0.65558 0.0
H411 H 0.35122 0.78732 0.97144 0.0
H412 H 0.26068 0.79627 0.01389 0.0
H413 H 0.32047 0.80529 0.03711 0.0
H414 H 0.38853 0.71717 0.99632 0.0
H415 H 0.44944 0.74715 0.98755 0.0
H416 H 0.40128 0.74504 0.97405 0.0
H417 H 0.44815 0.83861 0.97152 0.0
H418 H 0.49655 0.84099 0.98502 0.0
H419 H 0.46759 0.87467 0.99203 0.0
H420 H 0.38695 0.80697 0.05607 0.0
H421 H 0.45627 0.80267 0.06913 0.0
H422 H 0.50409 0.79463 0.01432 0.0
C423 C 0.34422 0.79179 0.98558 0.0
C424 C 0.30117 0.79104 0.99079 0.0
C425 C 0.29335 0.79671 1.00949 0.0
C426 C 0.32716 0.80197 0.02283 0.0
C427 C 0.36887 0.80191 0.01727 0.0
C428 C 0.3777 0.79729 0.99909 0.0
C429 C 0.42449 0.79647 0.99684 0.0
C430 C 0.41536 0.74861 0.98818 0.0
C431 C 0.46138 0.8403 0.98569 0.0
C432 C 0.43994 0.80024 0.01661 0.0
C433 C 0.40754 0.80359 0.02819 0.0
C434 C 0.41294 0.80496 0.04713 0.0
C435 C 0.45236 0.80243 0.05443 0.0
C436 C 0.48583 0.79863 0.04278 0.0
C437 C 0.47959 0.79815 0.02363 0.0
H438 H 0.5706 0.33977 0.30758 0.0
H439 H 0.45777 0.28007 0.34888 0.0
H440 H 0.51123 0.34344 0.37041 0.0
H441 H 0.66741 0.36729 0.33721 0.0
H442 H 0.70973 0.42309 0.32616 0.0
H443 H 0.66128 0.37584 0.31322 0.0
H444 H 0.63256 0.43551 0.30321 0.0
H445 H 0.68115 0.48309 0.31607 0.0
H446 H 0.61955 0.46812 0.32034 0.0
H447 H 0.57842 0.40824 0.38839 0.0
H448 H 0.65499 0.47263 0.40135 0.0
H449 H 0.72429 0.49161 0.3485 0.0
C450 C 0.55685 0.34058 0.32103 0.0
C451 C 0.50994 0.30486 0.3265 0.0
C452 C 0.49358 0.30688 0.34434 0.0
C453 C 0.52362 0.34285 0.35669 0.0
C454 C 0.56992 0.37682 0.35102 0.0
C455 C 0.58646 0.37633 0.3336 0.0
C456 C 0.63868 0.41578 0.33135 0.0
C457 C 0.67118 0.39419 0.32672 0.0
C458 C 0.64324 0.45282 0.31689 0.0
C459 C 0.64906 0.43764 0.35034 0.0
C460 C 0.60881 0.41476 0.36143 0.0
C461 C 0.61009 0.4269 0.37979 0.0
C462 C 0.65379 0.4634 0.38705 0.0
C463 C 0.6956 0.48736 0.37595 0.0
C464 C 0.69286 0.47442 0.35731 0.0
H465 H 0.21325 0.50763 0.67177 0.0
H466 H 0.21504 0.55752 0.6164 0.0
H467 H 0.20993 0.62718 0.62864 0.0
H468 H 0.13113 0.54545 0.69142 0.0
H469 H 0.1638 0.56357 0.71271 0.0
H470 H 0.16261 0.51519 0.69954 0.0
H471 H 0.2563 0.56051 0.69919 0.0
H472 H 0.25781 0.60907 0.71227 0.0
H473 H 0.28889 0.62166 0.69065 0.0
H474 H 0.21048 0.69398 0.64689 0.0
H475 H 0.21761 0.75401 0.66965 0.0
H476 H 0.21684 0.6611 0.71327 0.0
C477 C 0.21168 0.53265 0.66216 0.0
C478 C 0.21426 0.52693 0.64309 0.0
C479 C 0.21291 0.56102 0.63104 0.0
C480 C 0.20992 0.60063 0.63787 0.0
C481 C 0.20827 0.60554 0.65675 0.0
C482 C 0.209 0.57242 0.66872 0.0
C483 C 0.20998 0.58759 0.68842 0.0
C484 C 0.16414 0.55075 0.69862 0.0
C485 C 0.25598 0.59517 0.69819 0.0
C486 C 0.21068 0.63502 0.68567 0.0
C487 C 0.20918 0.64441 0.6673 0.0
C488 C 0.21128 0.68684 0.6613 0.0
C489 C 0.21547 0.72079 0.67438 0.0
C490 C 0.2178 0.71236 0.6933 0.0
C491 C 0.2148 0.66853 0.69896 0.0
H492 H 0.39222 0.21076 0.14173 0.0
H493 H 0.54496 0.30902 0.13171 0.0
H494 H 0.561 0.31305 0.16464 0.0
H495 H 0.38546 0.26841 0.18387 0.0
H496 H 0.34427 0.21224 0.19499 0.0
H497 H 0.34372 0.217 0.17046 0.0
H498 H 0.35716 0.14357 0.1672 0.0
H499 H 0.35766 0.13854 0.19171 0.0
H500 H 0.40807 0.14472 0.17842 0.0
H501 H 0.56225 0.30494 0.19808 0.0
H502 H 0.54822 0.28592 0.23085 0.0
H503 H 0.39453 0.1947 0.22056 0.0
C504 C 0.42896 0.23317 0.14651 0.0
C505 C 0.46731 0.25956 0.13405 0.0
C506 C 0.51489 0.28849 0.14088 0.0
C507 C 0.52447 0.29109 0.15961 0.0
C508 C 0.48611 0.26478 0.17149 0.0
C509 C 0.43926 0.23647 0.16532 0.0
C510 C 0.40501 0.2117 0.18124 0.0
C511 C 0.36739 0.22834 0.18272 0.0
C512 C 0.38054 0.15635 0.17954 0.0
C513 C 0.44017 0.23024 0.19721 0.0
C514 C 0.48671 0.26078 0.19115 0.0
C515 C 0.52593 0.28135 0.20304 0.0
C516 C 0.51757 0.27022 0.22164 0.0
C517 C 0.4703 0.23902 0.2283 0.0
C518 C 0.43098 0.21913 0.2159 0.0
H519 H 0.26336 0.48229 0.4701 0.0
H520 H 0.1723 0.32892 0.45925 0.0
H521 H 0.16819 0.31218 0.49246 0.0
H522 H 0.33098 0.46982 0.50777 0.0
H523 H 0.33384 0.5201 0.52015 0.0
H524 H 0.33103 0.51902 0.49556 0.0
H525 H 0.25541 0.52936 0.49697 0.0
H526 H 0.25772 0.53005 0.52155 0.0
H527 H 0.20338 0.4868 0.50993 0.0
H528 H 0.17052 0.31346 0.52745 0.0
H529 H 0.18299 0.33213 0.56054 0.0
H530 H 0.2735 0.48451 0.54777 0.0
C531 C 0.24295 0.44506 0.47464 0.0
C532 C 0.21818 0.40688 0.46204 0.0
C533 C 0.1918 0.35874 0.46862 0.0
C534 C 0.18913 0.34892 0.48747 0.0
C535 C 0.21333 0.3876 0.49955 0.0
C536 C 0.24013 0.43466 0.49332 0.0
C537 C 0.26229 0.47 0.50899 0.0
C538 C 0.31783 0.49627 0.50806 0.0
C539 C 0.24356 0.50617 0.50938 0.0
C540 C 0.2434 0.43565 0.52507 0.0
C541 C 0.21515 0.38825 0.51942 0.0
C542 C 0.19289 0.35044 0.53198 0.0
C543 C 0.20004 0.36139 0.55075 0.0
C544 C 0.22933 0.40974 0.55678 0.0
C545 C 0.25111 0.44713 0.54367 0.0
H546 H 0.74958 0.23517 0.88632 0.0
H547 H 0.83902 0.17205 0.89972 0.0
H548 H 0.85152 0.16469 0.86675 0.0
H549 H 0.69228 0.16181 0.84628 0.0
H550 H 0.69217 0.21095 0.83411 0.0
H551 H 0.68908 0.20904 0.85868 0.0
H552 H 0.76452 0.29478 0.86006 0.0
H553 H 0.76819 0.29672 0.8355 0.0
H554 H 0.81954 0.30591 0.84889 0.0
H555 H 0.85601 0.16686 0.83181 0.0
H556 H 0.84877 0.17483 0.79844 0.0
H557 H 0.75733 0.23756 0.80865 0.0
C558 C 0.77136 0.21924 0.88238 0.0
C559 C 0.79317 0.20401 0.89565 0.0
C560 C 0.82172 0.18375 0.88982 0.0
C561 C 0.82917 0.17959 0.87112 0.0
C562 C 0.80783 0.19584 0.8584 0.0
C563 C 0.77923 0.21496 0.86383 0.0
C564 C 0.76085 0.23046 0.84759 0.0
C565 C 0.70531 0.20132 0.84661 0.0
C566 C 0.7794 0.28521 0.84804 0.0
C567 C 0.78366 0.21731 0.83212 0.0
C568 C 0.81067 0.19739 0.83855 0.0
C569 C 0.8349 0.18238 0.82666 0.0
C570 C 0.83076 0.18723 0.80772 0.0
C571 C 0.80266 0.20697 0.80089 0.0
C572 C 0.7793 0.22252 0.81336 0.0
H573 H 0.52117 0.74898 0.13945 0.0
H574 H 0.67518 0.83162 0.12844 0.0
H575 H 0.69121 0.84472 0.16166 0.0
H576 H 0.52095 0.82338 0.17634 0.0
H577 H 0.47517 0.77301 0.18912 0.0
H578 H 0.47646 0.76995 0.16458 0.0
H579 H 0.48036 0.69076 0.16693 0.0
H580 H 0.47936 0.69373 0.19149 0.0
H581 H 0.52774 0.69016 0.18018 0.0
H582 H 0.68988 0.84707 0.19654 0.0
H583 H 0.67113 0.84299 0.22954 0.0
H584 H 0.51787 0.76062 0.21716 0.0
C585 C 0.55833 0.76987 0.14398 0.0
C586 C 0.59697 0.78916 0.13132 0.0
C587 C 0.645 0.81654 0.13787 0.0
C588 C 0.65445 0.82403 0.15672 0.0
C589 C 0.61545 0.80416 0.16884 0.0
C590 C 0.56833 0.77798 0.16268 0.0
C591 C 0.53269 0.76125 0.17839 0.0
C592 C 0.49937 0.78323 0.17702 0.0
C593 C 0.50332 0.70568 0.1793 0.0
C594 C 0.56702 0.782 0.19441 0.0
C595 C 0.61464 0.80635 0.18868 0.0
C596 C 0.65269 0.8282 0.20114 0.0
C597 C 0.6417 0.82556 0.21987 0.0
C598 C 0.59305 0.80156 0.22597 0.0
C599 C 0.55544 0.77934 0.21298 0.0
H600 H 0.80471 0.61985 0.55666 0.0
H601 H 0.72297 0.46463 0.56584 0.0
H602 H 0.72009 0.45061 0.53275 0.0
H603 H 0.74082 0.61968 0.51591 0.0
H604 H 0.79359 0.66613 0.50442 0.0
H605 H 0.79071 0.66497 0.52902 0.0
H606 H 0.87077 0.66279 0.5306 0.0
H607 H 0.87406 0.66425 0.50601 0.0
H608 H 0.87581 0.61628 0.51843 0.0
H609 H 0.72531 0.45217 0.49916 0.0
H610 H 0.73941 0.4692 0.4663 0.0
H611 H 0.81652 0.62351 0.47758 0.0
C612 C 0.78654 0.58296 0.55168 0.0
C613 C 0.76411 0.54332 0.56391 0.0
C614 C 0.74036 0.49561 0.55682 0.0
C615 C 0.73848 0.48721 0.538 0.0
C616 C 0.76035 0.52685 0.52633 0.0
C617 C 0.78401 0.57381 0.53278 0.0
C618 C 0.80403 0.60964 0.51702 0.0
C619 C 0.7809 0.64202 0.51657 0.0
C620 C 0.85946 0.64003 0.51808 0.0
C621 C 0.78794 0.57532 0.50079 0.0
C622 C 0.76285 0.52778 0.5066 0.0
C623 C 0.74484 0.48923 0.49441 0.0
C624 C 0.75309 0.49935 0.47574 0.0
C625 C 0.77897 0.54768 0.46931 0.0
C626 C 0.79624 0.58622 0.48205 0.0
H627 H 0.19999 0.79528 0.88296 0.0
H628 H 0.26418 0.70434 0.89164 0.0
H629 H 0.26821 0.69544 0.85842 0.0
H630 H 0.12686 0.72989 0.84411 0.0
H631 H 0.13608 0.78316 0.83203 0.0
H632 H 0.1382 0.78325 0.85664 0.0
H633 H 0.22382 0.85875 0.85603 0.0
H634 H 0.22175 0.85918 0.83144 0.0
H635 H 0.27087 0.85727 0.84285 0.0
H636 H 0.26551 0.69557 0.82461 0.0
H637 H 0.26042 0.70856 0.79173 0.0
H638 H 0.19754 0.79901 0.80394 0.0
C639 C 0.21519 0.77379 0.87785 0.0
C640 C 0.23181 0.75053 0.88999 0.0
C641 C 0.25121 0.72254 0.8827 0.0
C642 C 0.25355 0.71711 0.86381 0.0
C643 C 0.2363 0.73981 0.85226 0.0
C644 C 0.21778 0.76788 0.8589 0.0
C645 C 0.20224 0.78864 0.8433 0.0
C646 C 0.14759 0.77012 0.84407 0.0
C647 C 0.23142 0.84426 0.84341 0.0
C648 C 0.21518 0.76798 0.82691 0.0
C649 C 0.23457 0.73976 0.83249 0.0
C650 C 0.25031 0.71751 0.82005 0.0
C651 C 0.24717 0.72507 0.80137 0.0
C652 C 0.22837 0.75459 0.79521 0.0
C653 C 0.21146 0.77572 0.8082 0.0
H654 H 0.54969 0.61072 0.08308 0.0
H655 H 0.56884 0.64102 0.02492 0.0
H656 H 0.53175 0.55358 0.01854 0.0
H657 H 0.57821 0.51271 0.08165 0.0
H658 H 0.53491 0.47825 0.09918 0.0
H659 H 0.56339 0.54327 0.09905 0.0
H660 H 0.47895 0.53649 0.09887 0.0
H661 H 0.45022 0.47146 0.09867 0.0
H662 H 0.43648 0.50234 0.08107 0.0
H663 H 0.48652 0.46247 0.0184 0.0
H664 H 0.44927 0.37489 0.02458 0.0
H665 H 0.46485 0.40395 0.08284 0.0
C666 C 0.5466 0.59896 0.06901 0.0
C667 C 0.56211 0.63269 0.05449 0.0
C668 C 0.5576 0.61591 0.03627 0.0
C669 C 0.53618 0.56627 0.0325 0.0
C670 C 0.52019 0.5339 0.0471 0.0
C671 C 0.52622 0.54959 0.06501 0.0
C672 C 0.50733 0.50733 0.0782 0.0
C673 C 0.54841 0.51059 0.09023 0.0
C674 C 0.46578 0.50425 0.08989 0.0
C675 C 0.48926 0.46542 0.0649 0.0
C676 C 0.49632 0.48151 0.04703 0.0
C677 C 0.48127 0.44947 0.03233 0.0
C678 C 0.45974 0.39975 0.03598 0.0
C679 C 0.4542 0.38258 0.05418 0.0
C680 C 0.46872 0.41599 0.06879 0.0
H681 H 0.94367 0.54801 0.37364 0.0
H682 H 0.94566 0.57871 0.43148 0.0
H683 H 1.00245 0.54868 0.43694 0.0
H684 H 0.94286 0.43716 0.37936 0.0
H685 H 0.98127 0.44476 0.36009 0.0
H686 H 0.94448 0.47312 0.36006 0.0
H687 H 0.0204 0.55682 0.35461 0.0
H688 H 0.05736 0.52861 0.35435 0.0
H689 H 0.07117 0.57764 0.36993 0.0
H690 H 0.0552 0.51248 0.43666 0.0
H691 H 0.10407 0.47383 0.4306 0.0
H692 H 0.06668 0.46223 0.37306 0.0
C693 C 0.95715 0.54951 0.38734 0.0
C694 C 0.94082 0.56623 0.40214 0.0
C695 C 0.95801 0.56634 0.41997 0.0
C696 C 0.99018 0.54928 0.42321 0.0
C697 C 1.00454 0.53175 0.40848 0.0
C698 C 0.9889 0.53182 0.39088 0.0
C699 C 0.00825 0.50847 0.37775 0.0
C700 C 0.96673 0.46319 0.36879 0.0
C701 C 0.04126 0.54507 0.36331 0.0
C702 C 0.03688 0.49514 0.39079 0.0
C703 C 0.03428 0.50925 0.40841 0.0
C704 C 0.05769 0.50138 0.42292 0.0
C705 C 0.08531 0.47929 0.41932 0.0
C706 C 0.08915 0.46484 0.40137 0.0
C707 C 0.06403 0.47239 0.38694 0.0
H708 H 0.60878 0.07017 0.70877 0.0
H709 H 0.63758 0.07786 0.76697 0.0
H710 H 0.55058 0.02514 0.77301 0.0
H711 H 0.49974 0.07594 0.7128 0.0
H712 H 0.46868 0.03445 0.69436 0.0
H713 H 0.53369 0.07038 0.69417 0.0
H714 H 0.54032 0.99281 0.69135 0.0
H715 H 0.47533 0.95671 0.69124 0.0
H716 H 0.50997 0.94485 0.70782 0.0
H717 H 0.46172 0.97211 0.77301 0.0
H718 H 0.37461 0.91988 0.76687 0.0
H719 H 0.40061 0.94974 0.7089 0.0
C720 C 0.5967 0.05991 0.72273 0.0
C721 C 0.62987 0.07762 0.73742 0.0
C722 C 0.61274 0.06448 0.75554 0.0
C723 C 0.56342 0.03468 0.75911 0.0
C724 C 0.53149 0.01875 0.74442 0.0
C725 C 0.54721 0.03072 0.72659 0.0
C726 C 0.5047 0.00971 0.71345 0.0
C727 C 0.50153 0.05004 0.70308 0.0
C728 C 0.50777 0.97388 0.70018 0.0
C729 C 0.46285 0.98393 0.72671 0.0
C730 C 0.47938 0.9896 0.7445 0.0
C731 C 0.44822 0.96768 0.75917 0.0
C732 C 0.39886 0.93826 0.75557 0.0
C733 C 0.38099 0.93154 0.73749 0.0
C734 C 0.4133 0.95533 0.72289 0.0
H735 H 0.61076 0.54552 0.6097 0.0
H736 H 0.6382 0.57596 0.66758 0.0
H737 H 0.55022 0.53881 0.67314 0.0
H738 H 0.5115 0.57222 0.60736 0.0
H739 H 0.47869 0.52561 0.59066 0.0
H740 H 0.54371 0.55527 0.59146 0.0
H741 H 0.53848 0.4718 0.59476 0.0
H742 H 0.47344 0.44194 0.59434 0.0
H743 H 0.50387 0.43226 0.61325 0.0
H744 H 0.45866 0.49145 0.67258 0.0
H745 H 0.37137 0.45138 0.66542 0.0
H746 H 0.40427 0.45775 0.60763 0.0
C747 C 0.59824 0.54497 0.62351 0.0
C748 C 0.63119 0.56356 0.63823 0.0
C749 C 0.61356 0.56234 0.65609 0.0
C750 C 0.56366 0.54089 0.65939 0.0
C751 C 0.53203 0.5217 0.64463 0.0
C752 C 0.5487 0.52472 0.62698 0.0
C753 C 0.50729 0.50278 0.61344 0.0
C754 C 0.51049 0.54127 0.59994 0.0
C755 C 0.5057 0.45964 0.60336 0.0
C756 C 0.46461 0.48633 0.62625 0.0
C757 C 0.47959 0.49682 0.64422 0.0
C758 C 0.44657 0.48357 0.65855 0.0
C759 C 0.39705 0.46039 0.65436 0.0
C760 C 0.38108 0.45149 0.63598 0.0
C761 C 0.41543 0.46419 0.6218 0.0
H762 H 0.11322 0.5937 0.95974 0.0
H763 H 0.0164 0.65226 0.95539 0.0
H764 H 0.94621 0.56908 0.95569 0.0
H765 H 0.04791 0.49017 0.93174 0.0
H766 H 0.05941 0.45052 0.9458 0.0
H767 H 0.10194 0.51447 0.94547 0.0
H768 H 0.09524 0.51804 0.98065 0.0
H769 H 0.05282 0.454 0.98111 0.0
H770 H 0.03662 0.49583 0.99099 0.0
H771 H 0.88761 0.48019 0.95431 0.0
H772 H 0.84287 0.39118 0.95421 0.0
H773 H 0.97719 0.38954 0.96166 0.0
C774 C 0.07719 0.58897 0.95889 0.0
C775 C 0.07009 0.6293 0.9574 0.0
C776 C 0.02252 0.62182 0.95657 0.0
C777 C 0.98254 0.57477 0.95667 0.0
C778 C 0.99085 0.53579 0.95798 0.0
C779 C 0.03692 0.54237 0.95937 0.0
C780 C 0.03582 0.49432 0.96103 0.0
C781 C 0.06287 0.48695 0.94506 0.0
C782 C 0.05634 0.49032 0.97955 0.0
C783 C 0.98188 0.45953 0.95991 0.0
C784 C 0.95676 0.48435 0.95806 0.0
C785 C 0.90682 0.46039 0.95596 0.0
C786 C 0.88179 0.40976 0.95583 0.0
C787 C 0.90652 0.38335 0.95799 0.0
C788 C 0.95728 0.40871 0.96017 0.0
H789 H 0.54766 0.94308 0.27031 0.0
H790 H 0.55827 0.92405 0.32846 0.0
H791 H 0.51896 0.97264 0.33491 0.0
H792 H 0.5761 0.06924 0.27413 0.0
H793 H 0.53618 0.06398 0.25574 0.0
H794 H 0.56426 0.02693 0.25582 0.0
H795 H 0.47977 0.95024 0.25331 0.0
H796 H 0.45138 0.98702 0.25355 0.0
H797 H 0.43424 0.93948 0.27017 0.0
H798 H 0.4722 0.0172 0.3349 0.0
H799 H 0.4365 0.06923 0.32889 0.0
H800 H 0.4643 0.06743 0.27096 0.0
C801 C 0.54213 0.94968 0.28439 0.0
C802 C 0.55588 0.92984 0.29892 0.0
C803 C 0.54837 0.93933 0.31716 0.0
C804 C 0.52565 0.96646 0.32094 0.0
C805 C 0.51165 0.98476 0.30632 0.0
C806 C 0.52084 0.978 0.28842 0.0
C807 C 0.50458 0.00399 0.2753 0.0
C808 C 0.54786 0.04338 0.26462 0.0
C809 C 0.46515 0.96802 0.26232 0.0
C810 C 0.4843 0.02589 0.28861 0.0
C811 C 0.48778 0.01341 0.3064 0.0
C812 C 0.46982 0.0277 0.32105 0.0
C813 C 0.44918 0.05684 0.31749 0.0
C814 C 0.44766 0.07229 0.29949 0.0
C815 C 0.46507 0.05616 0.28486 0.0
loop_
_geom_bond_atom_site_label_1
_geom_bond_atom_site_label_2
_geom_bond_distance
_geom_bond_site_symmetry_2
_ccdc_geom_bond_type
O0 Cd1 2.223 . S
O0 C8 1.315 . S
Cd1 O0 2.223 . S
Cd1 O4 2.297 . S
Cd1 O5 2.439 . S
Cd1 O11 2.240 . S
Cd2 O3 2.240 . S
Cd2 O10 2.223 . S
Cd2 O12 2.297 . S
Cd2 O13 2.439 . S
O3 Cd2 2.240 . S
O3 C8 1.279 . S
O4 Cd1 2.297 . S
O4 C6 1.247 . S
O5 Cd1 2.439 . S
O5 C6 1.208 . S
C6 O4 1.247 . S
C6 O5 1.208 . S
C7 O12 1.247 . S
C7 O13 1.208 . S
C8 O0 1.315 . S
C8 O3 1.279 . S
C9 O10 1.315 . S
C9 O11 1.279 . S
O10 Cd2 2.223 . S
O10 C9 1.315 . S
O11 Cd1 2.240 . S
O11 C9 1.279 . S
O12 Cd2 2.297 . S
O12 C7 1.247 . S
O13 Cd2 2.439 . S
O13 C7 1.208 . S
O14 Cd15 2.223 . S
O14 C22 1.315 . S
Cd15 O14 2.223 . S
Cd15 O18 2.297 . S
Cd15 O19 2.439 . S
Cd15 O25 2.240 . S
Cd16 O17 2.240 . S
Cd16 O24 2.223 . S
Cd16 O26 2.297 . S
Cd16 O27 2.439 . S
O17 Cd16 2.240 . S
O17 C22 1.279 . S
O18 Cd15 2.297 . S
O18 C20 1.247 . S
O19 Cd15 2.439 . S
O19 C20 1.208 . S
C20 O18 1.247 . S
C20 O19 1.208 . S
C21 O26 1.247 . S
C21 O27 1.208 . S
C22 O14 1.315 . S
C22 O17 1.279 . S
C23 O24 1.315 . S
C23 O25 1.279 . S
O24 Cd16 2.223 . S
O24 C23 1.315 . S
O25 Cd15 2.240 . S
O25 C23 1.279 . S
O26 Cd16 2.297 . S
O26 C21 1.247 . S
O27 Cd16 2.439 . S
O27 C21 1.208 . S
O28 Cd29 2.223 . S
O28 C36 1.315 . S
Cd29 O28 2.223 . S
Cd29 O32 2.297 . S
Cd29 O33 2.439 . S
Cd29 O39 2.240 . S
Cd30 O31 2.240 . S
Cd30 O38 2.223 . S
Cd30 O40 2.297 . S
Cd30 O41 2.439 . S
O31 Cd30 2.240 . S
O31 C36 1.279 . S
O32 Cd29 2.297 . S
O32 C34 1.247 . S
O33 Cd29 2.439 . S
O33 C34 1.208 . S
C34 O32 1.247 . S
C34 O33 1.208 . S
C35 O40 1.247 . S
C35 O41 1.208 . S
C36 O28 1.315 . S
C36 O31 1.279 . S
C37 O38 1.315 . S
C37 O39 1.279 . S
O38 Cd30 2.223 . S
O38 C37 1.315 . S
O39 Cd29 2.240 . S
O39 C37 1.279 . S
O40 Cd30 2.297 . S
O40 C35 1.247 . S
O41 Cd30 2.439 . S
O41 C35 1.208 . S
O42 Cd43 2.223 . S
O42 C50 1.315 . S
Cd43 O42 2.223 . S
Cd43 O46 2.297 . S
Cd43 O47 2.439 . S
Cd43 O53 2.240 . S
Cd44 O45 2.240 . S
Cd44 O52 2.223 . S
Cd44 O54 2.297 . S
Cd44 O55 2.439 . S
O45 Cd44 2.240 . S
O45 C50 1.279 . S
O46 Cd43 2.297 . S
O46 C48 1.247 . S
O47 Cd43 2.439 . S
O47 C48 1.208 . S
C48 O46 1.247 . S
C48 O47 1.208 . S
C49 O54 1.247 . S
C49 O55 1.208 . S
C50 O42 1.315 . S
C50 O45 1.279 . S
C51 O52 1.315 . S
C51 O53 1.279 . S
O52 Cd44 2.223 . S
O52 C51 1.315 . S
O53 Cd43 2.240 . S
O53 C51 1.279 . S
O54 Cd44 2.297 . S
O54 C49 1.247 . S
O55 Cd44 2.439 . S
O55 C49 1.208 . S
O56 Cd57 2.223 . S
O56 C64 1.315 . S
Cd57 O56 2.223 . S
Cd57 O60 2.297 . S
Cd57 O61 2.439 . S
Cd57 O67 2.240 . S
Cd58 O59 2.240 . S
Cd58 O66 2.223 . S
Cd58 O68 2.297 . S
Cd58 O69 2.439 . S
O59 Cd58 2.240 . S
O59 C64 1.279 . S
O60 Cd57 2.297 . S
O60 C62 1.247 . S
O61 Cd57 2.439 . S
O61 C62 1.208 . S
C62 O60 1.247 . S
C62 O61 1.208 . S
C63 O68 1.247 . S
C63 O69 1.208 . S
C64 O56 1.315 . S
C64 O59 1.279 . S
C65 O66 1.315 . S
C65 O67 1.279 . S
O66 Cd58 2.223 . S
O66 C65 1.315 . S
O67 Cd57 2.240 . S
O67 C65 1.279 . S
O68 Cd58 2.297 . S
O68 C63 1.247 . S
O69 Cd58 2.439 . S
O69 C63 1.208 . S
O70 Cd71 2.223 . S
O70 C78 1.315 . S
Cd71 O70 2.223 . S
Cd71 O74 2.297 . S
Cd71 O75 2.439 . S
Cd71 O81 2.240 . S
Cd72 O73 2.240 . S
Cd72 O80 2.223 . S
Cd72 O82 2.297 . S
Cd72 O83 2.439 . S
O73 Cd72 2.240 . S
O73 C78 1.279 . S
O74 Cd71 2.297 . S
O74 C76 1.247 . S
O75 Cd71 2.439 . S
O75 C76 1.208 . S
C76 O74 1.247 . S
C76 O75 1.208 . S
C77 O82 1.247 . S
C77 O83 1.208 . S
C78 O70 1.315 . S
C78 O73 1.279 . S
C79 O80 1.315 . S
C79 O81 1.279 . S
O80 Cd72 2.223 . S
O80 C79 1.315 . S
O81 Cd71 2.240 . S
O81 C79 1.279 . S
O82 Cd72 2.297 . S
O82 C77 1.247 . S
O83 Cd72 2.439 . S
O83 C77 1.208 . S
O84 Cd85 2.223 . S
O84 C92 1.315 . S
Cd85 O84 2.223 . S
Cd85 O88 2.297 . S
Cd85 O89 2.439 . S
Cd85 O95 2.240 . S
Cd86 O87 2.240 . S
Cd86 O94 2.223 . S
Cd86 O96 2.297 . S
Cd86 O97 2.439 . S
O87 Cd86 2.240 . S
O87 C92 1.279 . S
O88 Cd85 2.297 . S
O88 C90 1.247 . S
O89 Cd85 2.439 . S
O89 C90 1.208 . S
C90 O88 1.247 . S
C90 O89 1.208 . S
C91 O96 1.247 . S
C91 O97 1.208 . S
C92 O84 1.315 . S
C92 O87 1.279 . S
C93 O94 1.315 . S
C93 O95 1.279 . S
O94 Cd86 2.223 . S
O94 C93 1.315 . S
O95 Cd85 2.240 . S
O95 C93 1.279 . S
O96 Cd86 2.297 . S
O96 C91 1.247 . S
O97 Cd86 2.439 . S
O97 C91 1.208 . S
O98 Cd99 2.223 . S
O98 C106 1.315 . S
Cd99 O98 2.223 . S
Cd99 O102 2.297 . S
Cd99 O103 2.439 . S
Cd99 O109 2.240 . S
Cd100 O101 2.240 . S
Cd100 O108 2.223 . S
Cd100 O110 2.297 . S
Cd100 O111 2.439 . S
O101 Cd100 2.240 . S
O101 C106 1.279 . S
O102 Cd99 2.297 . S
O102 C104 1.247 . S
O103 Cd99 2.439 . S
O103 C104 1.208 . S
C104 O102 1.247 . S
C104 O103 1.208 . S
C105 O110 1.247 . S
C105 O111 1.208 . S
C106 O98 1.315 . S
C106 O101 1.279 . S
C107 O108 1.315 . S
C107 O109 1.279 . S
O108 Cd100 2.223 . S
O108 C107 1.315 . S
O109 Cd99 2.240 . S
O109 C107 1.279 . S
O110 Cd100 2.297 . S
O110 C105 1.247 . S
O111 Cd100 2.439 . S
O111 C105 1.208 . S
O112 Cd113 2.223 . S
O112 C120 1.315 . S
Cd113 O112 2.223 . S
Cd113 O116 2.297 . S
Cd113 O117 2.439 . S
Cd113 O123 2.240 . S
Cd114 O115 2.240 . S
Cd114 O122 2.223 . S
Cd114 O124 2.297 . S
Cd114 O125 2.439 . S
O115 Cd114 2.240 . S
O115 C120 1.279 . S
O116 Cd113 2.297 . S
O116 C118 1.247 . S
O117 Cd113 2.439 . S
O117 C118 1.208 . S
C118 O116 1.247 . S
C118 O117 1.208 . S
C119 O124 1.247 . S
C119 O125 1.208 . S
C120 O112 1.315 . S
C120 O115 1.279 . S
C121 O122 1.315 . S
C121 O123 1.279 . S
O122 Cd114 2.223 . S
O122 C121 1.315 . S
O123 Cd113 2.240 . S
O123 C121 1.279 . S
O124 Cd114 2.297 . S
O124 C119 1.247 . S
O125 Cd114 2.439 . S
O125 C119 1.208 . S
O126 Cd127 2.223 . S
O126 C134 1.315 . S
Cd127 O126 2.223 . S
Cd127 O130 2.297 . S
Cd127 O131 2.439 . S
Cd127 O137 2.240 . S
Cd128 O129 2.240 . S
Cd128 O136 2.223 . S
Cd128 O138 2.297 . S
Cd128 O139 2.439 . S
O129 Cd128 2.240 . S
O129 C134 1.279 . S
O130 Cd127 2.297 . S
O130 C132 1.247 . S
O131 Cd127 2.439 . S
O131 C132 1.208 . S
C132 O130 1.247 . S
C132 O131 1.208 . S
C133 O138 1.247 . S
C133 O139 1.208 . S
C134 O126 1.315 . S
C134 O129 1.279 . S
C135 O136 1.315 . S
C135 O137 1.279 . S
O136 Cd128 2.223 . S
O136 C135 1.315 . S
O137 Cd127 2.240 . S
O137 C135 1.279 . S
O138 Cd128 2.297 . S
O138 C133 1.247 . S
O139 Cd128 2.439 . S
O139 C133 1.208 . S
O140 Cd141 2.223 . S
O140 C148 1.315 . S
Cd141 O140 2.223 . S
Cd141 O144 2.297 . S
Cd141 O145 2.439 . S
Cd141 O151 2.240 . S
Cd142 O143 2.240 . S
Cd142 O150 2.223 . S
Cd142 O152 2.297 . S
Cd142 O153 2.439 . S
O143 Cd142 2.240 . S
O143 C148 1.279 . S
O144 Cd141 2.297 . S
O144 C146 1.247 . S
O145 Cd141 2.439 . S
O145 C146 1.208 . S
C146 O144 1.247 . S
C146 O145 1.208 . S
C147 O152 1.247 . S
C147 O153 1.208 . S
C148 O140 1.315 . S
C148 O143 1.279 . S
C149 O150 1.315 . S
C149 O151 1.279 . S
O150 Cd142 2.223 . S
O150 C149 1.315 . S
O151 Cd141 2.240 . S
O151 C149 1.279 . S
O152 Cd142 2.297 . S
O152 C147 1.247 . S
O153 Cd142 2.439 . S
O153 C147 1.208 . S
O154 Cd155 2.223 . S
O154 C162 1.315 . S
Cd155 O154 2.223 . S
Cd155 O158 2.297 . S
Cd155 O159 2.439 . S
Cd155 O165 2.240 . S
Cd156 O157 2.240 . S
Cd156 O164 2.223 . S
Cd156 O166 2.297 . S
Cd156 O167 2.439 . S
O157 Cd156 2.240 . S
O157 C162 1.279 . S
O158 Cd155 2.297 . S
O158 C160 1.247 . S
O159 Cd155 2.439 . S
O159 C160 1.208 . S
C160 O158 1.247 . S
C160 O159 1.208 . S
C161 O166 1.247 . S
C161 O167 1.208 . S
C162 O154 1.315 . S
C162 O157 1.279 . S
C163 O164 1.315 . S
C163 O165 1.279 . S
O164 Cd156 2.223 . S
O164 C163 1.315 . S
O165 Cd155 2.240 . S
O165 C163 1.279 . S
O166 Cd156 2.297 . S
O166 C161 1.247 . S
O167 Cd156 2.439 . S
O167 C161 1.208 . S
H168 C180 0.917 1_554 S
H169 C182 0.930 . S
H170 C183 0.930 1_545 S
H171 C187 0.959 . S
H172 C187 0.959 . S
H173 C187 0.961 . S
H174 C188 0.960 . S
H175 C188 0.961 . S
H176 C188 0.959 . S
H177 C191 0.929 . S
H178 C192 0.931 . S
H179 C194 0.930 . S
C180 H168 0.917 1_556 S
C180 C181 1.399 . S
C180 C185 1.399 . S
C181 C180 1.399 . S
C181 C182 1.376 . S
C182 H169 0.930 . S
C182 C181 1.376 . S
C182 C183 1.388 . S
C183 H170 0.930 1_565 S
C183 C182 1.388 . S
C183 C184 1.390 . S
C184 C183 1.390 . S
C184 C185 1.394 . S
C184 C190 1.465 1_565 S
C185 C180 1.399 . S
C185 C184 1.394 . S
C185 C186 1.516 1_556 S
C186 C185 1.516 1_554 S
C186 C187 1.502 . S
C186 C188 1.561 . S
C186 C189 1.526 1_565 S
C187 H171 0.959 . S
C187 H172 0.959 . S
C187 H173 0.961 . S
C187 C186 1.502 . S
C188 H174 0.960 . S
C188 H175 0.961 . S
C188 H176 0.959 . S
C188 C186 1.561 . S
C189 C186 1.526 1_545 S
C189 C190 1.396 1_554 S
C189 C194 1.390 . S
C190 C184 1.465 1_545 S
C190 C189 1.396 1_556 S
C190 C191 1.399 . S
C191 H177 0.929 . S
C191 C190 1.399 . S
C191 C192 1.385 1_556 S
C192 H178 0.931 . S
C192 C191 1.385 1_554 S
C192 C193 1.389 . S
C193 C192 1.389 . S
C193 C194 1.387 . S
C194 H179 0.930 . S
C194 C189 1.390 . S
C194 C193 1.387 . S
H195 C207 0.930 . S
H196 C209 0.930 . S
H197 C210 0.930 . S
H198 C214 0.959 . S
H199 C214 0.959 . S
H200 C214 0.961 . S
H201 C215 0.960 . S
H202 C215 0.961 . S
H203 C215 0.959 . S
H204 C218 0.929 . S
H205 C219 0.931 . S
H206 C221 0.930 . S
C207 H195 0.930 . S
C207 C208 1.399 . S
C207 C212 1.399 . S
C208 C207 1.399 . S
C208 C209 1.376 . S
C209 H196 0.930 . S
C209 C208 1.376 . S
C209 C210 1.388 . S
C210 H197 0.930 . S
C210 C209 1.388 . S
C210 C211 1.390 . S
C211 C210 1.390 . S
C211 C212 1.394 . S
C211 C217 1.465 . S
C212 C207 1.399 . S
C212 C211 1.394 . S
C212 C213 1.516 . S
C213 C212 1.516 . S
C213 C214 1.502 . S
C213 C215 1.561 . S
C213 C216 1.526 . S
C214 H198 0.959 . S
C214 H199 0.959 . S
C214 H200 0.961 . S
C214 C213 1.502 . S
C215 H201 0.960 . S
C215 H202 0.961 . S
C215 H203 0.959 . S
C215 C213 1.561 . S
C216 C213 1.526 . S
C216 C217 1.396 . S
C216 C221 1.390 . S
C217 C211 1.465 . S
C217 C216 1.396 . S
C217 C218 1.399 . S
C218 H204 0.929 . S
C218 C217 1.399 . S
C218 C219 1.385 . S
C219 H205 0.931 . S
C219 C218 1.385 . S
C219 C220 1.389 . S
C220 C219 1.389 . S
C220 C221 1.387 . S
C221 H206 0.930 . S
C221 C216 1.390 . S
C221 C220 1.387 . S
H222 C234 0.930 . S
H223 C236 0.930 . S
H224 C237 0.930 . S
H225 C241 0.959 . S
H226 C241 0.959 . S
H227 C241 0.961 . S
H228 C242 0.960 . S
H229 C242 0.961 1_455 S
H230 C242 0.959 . S
H231 C245 0.929 . S
H232 C246 0.931 . S
H233 C248 0.930 . S
C234 H222 0.930 . S
C234 C235 1.399 . S
C234 C239 1.399 . S
C235 C234 1.399 . S
C235 C236 1.376 . S
C236 H223 0.930 . S
C236 C235 1.376 . S
C236 C237 1.388 . S
C237 H224 0.930 . S
C237 C236 1.388 . S
C237 C238 1.390 . S
C238 C237 1.390 . S
C238 C239 1.394 . S
C238 C244 1.465 1_655 S
C239 C234 1.399 . S
C239 C238 1.394 . S
C239 C240 1.516 1_655 S
C240 C239 1.516 1_455 S
C240 C241 1.502 . S
C240 C242 1.561 1_455 S
C240 C243 1.526 . S
C241 H225 0.959 . S
C241 H226 0.959 . S
C241 H227 0.961 . S
C241 C240 1.502 . S
C242 H228 0.960 . S
C242 H229 0.961 1_655 S
C242 H230 0.959 . S
C242 C240 1.561 1_655 S
C243 C240 1.526 . S
C243 C244 1.396 . S
C243 C248 1.390 . S
C244 C238 1.465 1_455 S
C244 C243 1.396 . S
C244 C245 1.399 . S
C245 H231 0.929 . S
C245 C244 1.399 . S
C245 C246 1.385 . S
C246 H232 0.931 . S
C246 C245 1.385 . S
C246 C247 1.389 . S
C247 C246 1.389 . S
C247 C248 1.387 . S
C248 H233 0.930 . S
C248 C243 1.390 . S
C248 C247 1.387 . S
H249 C261 0.930 . S
H250 C263 0.930 . S
H251 C264 0.930 . S
H252 C268 0.959 . S
H253 C268 0.959 . S
H254 C268 0.961 . S
H255 C269 0.960 . S
H256 C269 0.961 . S
H257 C269 0.959 . S
H258 C272 0.929 1_565 S
H259 C273 0.931 . S
H260 C275 0.930 . S
C261 H249 0.930 . S
C261 C262 1.399 . S
C261 C266 1.399 . S
C262 C261 1.399 . S
C262 C263 1.376 . S
C263 H250 0.930 . S
C263 C262 1.376 . S
C263 C264 1.388 1_554 S
C264 H251 0.930 . S
C264 C263 1.388 1_556 S
C264 C265 1.398 . S
C265 C264 1.398 . S
C265 C266 1.362 1_556 S
C265 C271 1.486 1_565 S
C266 C261 1.399 . S
C266 C265 1.362 1_554 S
C266 C267 1.516 1_565 S
C267 C266 1.516 1_545 S
C267 C268 1.502 . S
C267 C269 1.561 . S
C267 C270 1.526 1_554 S
C268 H252 0.959 . S
C268 H253 0.959 . S
C268 H254 0.961 . S
C268 C267 1.502 . S
C269 H255 0.960 . S
C269 H256 0.961 . S
C269 H257 0.959 . S
C269 C267 1.561 . S
C270 C267 1.526 1_556 S
C270 C271 1.396 . S
C270 C275 1.390 . S
C271 C265 1.486 1_545 S
C271 C270 1.396 . S
C271 C272 1.399 . S
C272 H258 0.929 1_545 S
C272 C271 1.399 . S
C272 C273 1.385 . S
C273 H259 0.931 . S
C273 C272 1.385 . S
C273 C274 1.389 . S
C274 C273 1.389 . S
C274 C275 1.387 . S
C275 H260 0.930 . S
C275 C270 1.390 . S
C275 C274 1.387 . S
H276 C288 0.930 . S
H277 C290 0.930 . S
H278 C291 0.930 . S
H279 C295 0.959 . S
H280 C295 0.959 . S
H281 C295 0.961 . S
H282 C296 0.960 . S
H283 C296 0.961 . S
H284 C296 0.959 . S
H285 C299 0.929 . S
H286 C300 0.931 . S
H287 C302 0.930 . S
C288 H276 0.930 . S
C288 C289 1.399 . S
C288 C293 1.399 . S
C289 C288 1.399 . S
C289 C290 1.376 . S
C290 H277 0.930 . S
C290 C289 1.376 . S
C290 C291 1.388 . S
C291 H278 0.930 . S
C291 C290 1.388 . S
C291 C292 1.390 . S
C292 C291 1.390 . S
C292 C293 1.394 . S
C292 C298 1.465 . S
C293 C288 1.399 . S
C293 C292 1.394 . S
C293 C294 1.516 . S
C294 C293 1.516 . S
C294 C295 1.502 . S
C294 C296 1.561 . S
C294 C297 1.526 . S
C295 H279 0.959 . S
C295 H280 0.959 . S
C295 H281 0.961 . S
C295 C294 1.502 . S
C296 H282 0.960 . S
C296 H283 0.961 . S
C296 H284 0.959 . S
C296 C294 1.561 . S
C297 C294 1.526 . S
C297 C298 1.396 . S
C297 C302 1.390 . S
C298 C292 1.465 . S
C298 C297 1.396 . S
C298 C299 1.399 . S
C299 H285 0.929 . S
C299 C298 1.399 . S
C299 C300 1.385 . S
C300 H286 0.931 . S
C300 C299 1.385 . S
C300 C301 1.389 . S
C301 C300 1.389 . S
C301 C302 1.387 . S
C302 H287 0.930 . S
C302 C297 1.390 . S
C302 C301 1.387 . S
H303 C315 0.930 . S
H304 C317 0.930 . S
H305 C318 0.930 . S
H306 C322 0.959 . S
H307 C322 0.959 . S
H308 C322 0.961 . S
H309 C323 0.959 1_655 S
H310 C323 0.962 . S
H311 C323 0.960 . S
H312 C326 0.929 . S
H313 C327 0.931 . S
H314 C329 0.930 . S
C315 H303 0.930 . S
C315 C316 1.399 . S
C315 C320 1.399 . S
C316 C315 1.399 . S
C316 C317 1.376 . S
C317 H304 0.930 . S
C317 C316 1.376 . S
C317 C318 1.388 . S
C318 H305 0.930 . S
C318 C317 1.388 . S
C318 C319 1.390 . S
C319 C318 1.390 . S
C319 C320 1.394 . S
C319 C325 1.465 1_655 S
C320 C315 1.399 . S
C320 C319 1.394 . S
C320 C321 1.516 . S
C321 C320 1.516 . S
C321 C322 1.502 . S
C321 C323 1.560 1_655 S
C321 C324 1.526 1_655 S
C322 H306 0.959 . S
C322 H307 0.959 . S
C322 H308 0.961 . S
C322 C321 1.502 . S
C323 H309 0.959 1_455 S
C323 H310 0.962 . S
C323 H311 0.960 . S
C323 C321 1.560 1_455 S
C324 C321 1.526 1_455 S
C324 C325 1.396 . S
C324 C329 1.390 . S
C325 C319 1.465 1_455 S
C325 C324 1.396 . S
C325 C326 1.399 . S
C326 H312 0.929 . S
C326 C325 1.399 . S
C326 C327 1.385 . S
C327 H313 0.931 . S
C327 C326 1.385 . S
C327 C328 1.389 . S
C328 C327 1.389 . S
C328 C329 1.387 . S
C329 H314 0.930 . S
C329 C324 1.390 . S
C329 C328 1.387 . S
H330 C342 0.930 . S
H331 C344 0.930 . S
H332 C345 0.899 1_554 S
H333 C349 0.959 1_554 S
H334 C349 0.959 . S
H335 C349 0.961 . S
H336 C350 0.960 . S
H337 C350 0.961 . S
H338 C350 0.959 . S
H339 C353 0.929 . S
H340 C354 0.931 . S
H341 C356 0.930 . S
C342 H330 0.930 . S
C342 C343 1.399 . S
C342 C347 1.399 . S
C343 C342 1.399 . S
C343 C344 1.376 . S
C344 H331 0.930 . S
C344 C343 1.376 . S
C344 C345 1.419 . S
C345 H332 0.899 1_556 S
C345 C344 1.419 . S
C345 C346 1.394 . S
C346 C345 1.394 . S
C346 C347 1.394 . S
C346 C352 1.465 1_556 S
C347 C342 1.399 . S
C347 C346 1.394 . S
C347 C348 1.516 . S
C348 C347 1.516 . S
C348 C349 1.502 . S
C348 C350 1.561 . S
C348 C351 1.526 1_556 S
C349 H333 0.959 1_556 S
C349 H334 0.959 . S
C349 H335 0.961 . S
C349 C348 1.502 . S
C350 H336 0.960 . S
C350 H337 0.961 . S
C350 H338 0.959 . S
C350 C348 1.561 . S
C351 C348 1.526 1_554 S
C351 C352 1.396 . S
C351 C356 1.390 . S
C352 C346 1.465 1_554 S
C352 C351 1.396 . S
C352 C353 1.399 . S
C353 H339 0.929 . S
C353 C352 1.399 . S
C353 C354 1.385 . S
C354 H340 0.931 . S
C354 C353 1.385 . S
C354 C355 1.389 . S
C355 C354 1.389 . S
C355 C356 1.387 . S
C356 H341 0.930 . S
C356 C351 1.390 . S
C356 C355 1.387 . S
H357 C369 0.930 . S
H358 C371 0.930 . S
H359 C372 0.930 . S
H360 C376 0.959 . S
H361 C376 0.959 . S
H362 C376 0.961 . S
H363 C377 0.960 . S
H364 C377 0.961 . S
H365 C377 0.959 . S
H366 C380 0.929 . S
H367 C381 0.931 . S
H368 C383 0.930 . S
C369 H357 0.930 . S
C369 C370 1.399 . S
C369 C374 1.399 . S
C370 C369 1.399 . S
C370 C371 1.376 . S
C371 H358 0.930 . S
C371 C370 1.376 . S
C371 C372 1.388 . S
C372 H359 0.930 . S
C372 C371 1.388 . S
C372 C373 1.390 . S
C373 C372 1.390 . S
C373 C374 1.394 . S
C373 C379 1.465 . S
C374 C369 1.399 . S
C374 C373 1.394 . S
C374 C375 1.516 . S
C375 C374 1.516 . S
C375 C376 1.502 . S
C375 C377 1.561 . S
C375 C378 1.526 . S
C376 H360 0.959 . S
C376 H361 0.959 . S
C376 H362 0.961 . S
C376 C375 1.502 . S
C377 H363 0.960 . S
C377 H364 0.961 . S
C377 H365 0.959 . S
C377 C375 1.561 . S
C378 C375 1.526 . S
C378 C379 1.396 . S
C378 C383 1.390 . S
C379 C373 1.465 . S
C379 C378 1.396 . S
C379 C380 1.399 . S
C380 H366 0.929 . S
C380 C379 1.399 . S
C380 C381 1.385 . S
C381 H367 0.931 . S
C381 C380 1.385 . S
C381 C382 1.389 . S
C382 C381 1.389 . S
C382 C383 1.387 . S
C383 H368 0.930 . S
C383 C378 1.390 . S
C383 C382 1.387 . S
H384 C396 0.930 . S
H385 C398 0.930 . S
H386 C399 0.930 . S
H387 C403 0.959 . S
H388 C403 0.959 . S
H389 C403 0.961 . S
H390 C404 0.960 . S
H391 C404 0.961 . S
H392 C404 0.959 . S
H393 C407 0.929 . S
H394 C408 0.931 . S
H395 C410 0.930 . S
C396 H384 0.930 . S
C396 C397 1.399 . S
C396 C401 1.399 . S
C397 C396 1.399 . S
C397 C398 1.376 . S
C398 H385 0.930 . S
C398 C397 1.376 . S
C398 C399 1.388 . S
C399 H386 0.930 . S
C399 C398 1.388 . S
C399 C400 1.390 . S
C400 C399 1.390 . S
C400 C401 1.394 . S
C400 C406 1.465 . S
C401 C396 1.399 . S
C401 C400 1.394 . S
C401 C402 1.516 . S
C402 C401 1.516 . S
C402 C403 1.502 . S
C402 C404 1.561 . S
C402 C405 1.526 . S
C403 H387 0.959 . S
C403 H388 0.959 . S
C403 H389 0.961 . S
C403 C402 1.502 . S
C404 H390 0.960 . S
C404 H391 0.961 . S
C404 H392 0.959 . S
C404 C402 1.561 . S
C405 C402 1.526 . S
C405 C406 1.396 . S
C405 C410 1.390 . S
C406 C400 1.465 . S
C406 C405 1.396 . S
C406 C407 1.399 . S
C407 H393 0.929 . S
C407 C406 1.399 . S
C407 C408 1.385 . S
C408 H394 0.931 . S
C408 C407 1.385 . S
C408 C409 1.389 . S
C409 C408 1.389 . S
C409 C410 1.387 . S
C410 H395 0.930 . S
C410 C405 1.390 . S
C410 C409 1.387 . S
H411 C423 0.930 . S
H412 C425 0.930 1_554 S
H413 C426 0.930 . S
H414 C430 0.959 . S
H415 C430 0.959 . S
H416 C430 0.961 . S
H417 C431 0.960 . S
H418 C431 0.961 . S
H419 C431 0.959 . S
H420 C434 0.929 . S
H421 C435 0.931 . S
H422 C437 0.930 1_556 S
C423 H411 0.930 . S
C423 C424 1.399 . S
C423 C428 1.399 . S
C424 C423 1.399 . S
C424 C425 1.376 . S
C425 H412 0.930 1_556 S
C425 C424 1.376 . S
C425 C426 1.388 1_556 S
C426 H413 0.930 . S
C426 C425 1.388 1_554 S
C426 C427 1.390 . S
C427 C426 1.390 . S
C427 C428 1.394 1_554 S
C427 C433 1.465 . S
C428 C423 1.399 . S
C428 C427 1.394 1_556 S
C428 C429 1.516 . S
C429 C428 1.516 . S
C429 C430 1.502 . S
C429 C431 1.561 . S
C429 C432 1.484 1_556 S
C430 H414 0.959 . S
C430 H415 0.959 . S
C430 H416 0.961 . S
C430 C429 1.502 . S
C431 H417 0.960 . S
C431 H418 0.961 . S
C431 H419 0.959 . S
C431 C429 1.561 . S
C432 C429 1.484 1_554 S
C432 C433 1.428 . S
C432 C437 1.403 . S
C433 C427 1.465 . S
C433 C432 1.428 . S
C433 C434 1.399 . S
C434 H420 0.929 . S
C434 C433 1.399 . S
C434 C435 1.385 . S
C435 H421 0.931 . S
C435 C434 1.385 . S
C435 C436 1.389 . S
C436 C435 1.389 . S
C436 C437 1.387 . S
C437 H422 0.930 1_554 S
C437 C432 1.403 . S
C437 C436 1.387 . S
H438 C450 0.930 . S
H439 C452 0.930 . S
H440 C453 0.930 . S
H441 C457 0.959 . S
H442 C457 0.959 . S
H443 C457 0.961 . S
H444 C458 0.960 . S
H445 C458 0.961 . S
H446 C458 0.959 . S
H447 C461 0.929 . S
H448 C462 0.931 . S
H449 C464 0.930 . S
C450 H438 0.930 . S
C450 C451 1.399 . S
C450 C455 1.399 . S
C451 C450 1.399 . S
C451 C452 1.376 . S
C452 H439 0.930 . S
C452 C451 1.376 . S
C452 C453 1.388 . S
C453 H440 0.930 . S
C453 C452 1.388 . S
C453 C454 1.390 . S
C454 C453 1.390 . S
C454 C455 1.394 . S
C454 C460 1.465 . S
C455 C450 1.399 . S
C455 C454 1.394 . S
C455 C456 1.516 . S
C456 C455 1.516 . S
C456 C457 1.502 . S
C456 C458 1.561 . S
C456 C459 1.526 . S
C457 H441 0.959 . S
C457 H442 0.959 . S
C457 H443 0.961 . S
C457 C456 1.502 . S
C458 H444 0.960 . S
C458 H445 0.961 . S
C458 H446 0.959 . S
C458 C456 1.561 . S
C459 C456 1.526 . S
C459 C460 1.396 . S
C459 C464 1.390 . S
C460 C454 1.465 . S
C460 C459 1.396 . S
C460 C461 1.399 . S
C461 H447 0.929 . S
C461 C460 1.399 . S
C461 C462 1.385 . S
C462 H448 0.931 . S
C462 C461 1.385 . S
C462 C463 1.389 . S
C463 C462 1.389 . S
C463 C464 1.387 . S
C464 H449 0.930 . S
C464 C459 1.390 . S
C464 C463 1.387 . S
H465 C477 0.930 . S
H466 C479 0.930 . S
H467 C480 0.930 . S
H468 C484 0.959 . S
H469 C484 0.959 . S
H470 C484 0.961 . S
H471 C485 0.960 . S
H472 C485 0.961 . S
H473 C485 0.959 . S
H474 C488 0.929 . S
H475 C489 0.931 . S
H476 C491 0.930 . S
C477 H465 0.930 . S
C477 C478 1.399 . S
C477 C482 1.399 . S
C478 C477 1.399 . S
C478 C479 1.376 . S
C479 H466 0.930 . S
C479 C478 1.376 . S
C479 C480 1.388 . S
C480 H467 0.930 . S
C480 C479 1.388 . S
C480 C481 1.390 . S
C481 C480 1.390 . S
C481 C482 1.394 . S
C481 C487 1.465 . S
C482 C477 1.399 . S
C482 C481 1.394 . S
C482 C483 1.516 . S
C483 C482 1.516 . S
C483 C484 1.502 . S
C483 C485 1.561 . S
C483 C486 1.526 . S
C484 H468 0.959 . S
C484 H469 0.959 . S
C484 H470 0.961 . S
C484 C483 1.502 . S
C485 H471 0.960 . S
C485 H472 0.961 . S
C485 H473 0.959 . S
C485 C483 1.561 . S
C486 C483 1.526 . S
C486 C487 1.396 . S
C486 C491 1.390 . S
C487 C481 1.465 . S
C487 C486 1.396 . S
C487 C488 1.399 . S
C488 H474 0.929 . S
C488 C487 1.399 . S
C488 C489 1.385 . S
C489 H475 0.931 . S
C489 C488 1.385 . S
C489 C490 1.389 . S
C490 C489 1.389 . S
C490 C491 1.387 . S
C491 H476 0.930 . S
C491 C486 1.390 . S
C491 C490 1.387 . S
H492 C504 0.930 . S
H493 C506 0.930 . S
H494 C507 0.930 . S
H495 C511 0.959 . S
H496 C511 0.959 . S
H497 C511 0.961 . S
H498 C512 0.960 . S
H499 C512 0.961 . S
H500 C512 0.959 . S
H501 C515 0.929 . S
H502 C516 0.931 . S
H503 C518 0.930 . S
C504 H492 0.930 . S
C504 C505 1.399 . S
C504 C509 1.399 . S
C505 C504 1.399 . S
C505 C506 1.376 . S
C506 H493 0.930 . S
C506 C505 1.376 . S
C506 C507 1.388 . S
C507 H494 0.930 . S
C507 C506 1.388 . S
C507 C508 1.390 . S
C508 C507 1.390 . S
C508 C509 1.394 . S
C508 C514 1.465 . S
C509 C504 1.399 . S
C509 C508 1.394 . S
C509 C510 1.516 . S
C510 C509 1.516 . S
C510 C511 1.502 . S
C510 C512 1.561 . S
C510 C513 1.526 . S
C511 H495 0.959 . S
C511 H496 0.959 . S
C511 H497 0.961 . S
C511 C510 1.502 . S
C512 H498 0.960 . S
C512 H499 0.961 . S
C512 H500 0.959 . S
C512 C510 1.561 . S
C513 C510 1.526 . S
C513 C514 1.396 . S
C513 C518 1.390 . S
C514 C508 1.465 . S
C514 C513 1.396 . S
C514 C515 1.399 . S
C515 H501 0.929 . S
C515 C514 1.399 . S
C515 C516 1.385 . S
C516 H502 0.931 . S
C516 C515 1.385 . S
C516 C517 1.389 . S
C517 C516 1.389 . S
C517 C518 1.387 . S
C518 H503 0.930 . S
C518 C513 1.390 . S
C518 C517 1.387 . S
H519 C531 0.930 . S
H520 C533 0.930 . S
H521 C534 0.930 . S
H522 C538 0.959 . S
H523 C538 0.959 . S
H524 C538 0.961 . S
H525 C539 0.960 . S
H526 C539 0.961 . S
H527 C539 0.959 . S
H528 C542 0.929 . S
H529 C543 0.931 . S
H530 C545 0.930 . S
C531 H519 0.930 . S
C531 C532 1.399 . S
C531 C536 1.399 . S
C532 C531 1.399 . S
C532 C533 1.376 . S
C533 H520 0.930 . S
C533 C532 1.376 . S
C533 C534 1.388 . S
C534 H521 0.930 . S
C534 C533 1.388 . S
C534 C535 1.390 . S
C535 C534 1.390 . S
C535 C536 1.394 . S
C535 C541 1.465 . S
C536 C531 1.399 . S
C536 C535 1.394 . S
C536 C537 1.516 . S
C537 C536 1.516 . S
C537 C538 1.502 . S
C537 C539 1.561 . S
C537 C540 1.526 . S
C538 H522 0.959 . S
C538 H523 0.959 . S
C538 H524 0.961 . S
C538 C537 1.502 . S
C539 H525 0.960 . S
C539 H526 0.961 . S
C539 H527 0.959 . S
C539 C537 1.561 . S
C540 C537 1.526 . S
C540 C541 1.396 . S
C540 C545 1.390 . S
C541 C535 1.465 . S
C541 C540 1.396 . S
C541 C542 1.399 . S
C542 H528 0.929 . S
C542 C541 1.399 . S
C542 C543 1.385 . S
C543 H529 0.931 . S
C543 C542 1.385 . S
C543 C544 1.389 . S
C544 C543 1.389 . S
C544 C545 1.387 . S
C545 H530 0.930 . S
C545 C540 1.390 . S
C545 C544 1.387 . S
H546 C558 0.930 . S
H547 C560 0.930 . S
H548 C561 0.930 . S
H549 C565 0.959 . S
H550 C565 0.959 . S
H551 C565 0.961 . S
H552 C566 0.960 . S
H553 C566 0.961 . S
H554 C566 0.959 . S
H555 C569 0.929 . S
H556 C570 0.931 . S
H557 C572 0.930 . S
C558 H546 0.930 . S
C558 C559 1.399 . S
C558 C563 1.399 . S
C559 C558 1.399 . S
C559 C560 1.376 . S
C560 H547 0.930 . S
C560 C559 1.376 . S
C560 C561 1.388 . S
C561 H548 0.930 . S
C561 C560 1.388 . S
C561 C562 1.390 . S
C562 C561 1.390 . S
C562 C563 1.394 . S
C562 C568 1.465 . S
C563 C558 1.399 . S
C563 C562 1.394 . S
C563 C564 1.516 . S
C564 C563 1.516 . S
C564 C565 1.502 . S
C564 C566 1.561 . S
C564 C567 1.526 . S
C565 H549 0.959 . S
C565 H550 0.959 . S
C565 H551 0.961 . S
C565 C564 1.502 . S
C566 H552 0.960 . S
C566 H553 0.961 . S
C566 H554 0.959 . S
C566 C564 1.561 . S
C567 C564 1.526 . S
C567 C568 1.396 . S
C567 C572 1.390 . S
C568 C562 1.465 . S
C568 C567 1.396 . S
C568 C569 1.399 . S
C569 H555 0.929 . S
C569 C568 1.399 . S
C569 C570 1.385 . S
C570 H556 0.931 . S
C570 C569 1.385 . S
C570 C571 1.389 . S
C571 C570 1.389 . S
C571 C572 1.387 . S
C572 H557 0.930 . S
C572 C567 1.390 . S
C572 C571 1.387 . S
H573 C585 0.930 . S
H574 C587 0.930 . S
H575 C588 0.930 . S
H576 C592 0.959 . S
H577 C592 0.959 . S
H578 C592 0.961 . S
H579 C593 0.960 . S
H580 C593 0.961 . S
H581 C593 0.959 . S
H582 C596 0.929 . S
H583 C597 0.931 . S
H584 C599 0.930 . S
C585 H573 0.930 . S
C585 C586 1.399 . S
C585 C590 1.399 . S
C586 C585 1.399 . S
C586 C587 1.376 . S
C587 H574 0.930 . S
C587 C586 1.376 . S
C587 C588 1.388 . S
C588 H575 0.930 . S
C588 C587 1.388 . S
C588 C589 1.390 . S
C589 C588 1.390 . S
C589 C590 1.394 . S
C589 C595 1.465 . S
C590 C585 1.399 . S
C590 C589 1.394 . S
C590 C591 1.516 . S
C591 C590 1.516 . S
C591 C592 1.502 . S
C591 C593 1.561 . S
C591 C594 1.526 . S
C592 H576 0.959 . S
C592 H577 0.959 . S
C592 H578 0.961 . S
C592 C591 1.502 . S
C593 H579 0.960 . S
C593 H580 0.961 . S
C593 H581 0.959 . S
C593 C591 1.561 . S
C594 C591 1.526 . S
C594 C595 1.396 . S
C594 C599 1.390 . S
C595 C589 1.465 . S
C595 C594 1.396 . S
C595 C596 1.399 . S
C596 H582 0.929 . S
C596 C595 1.399 . S
C596 C597 1.385 . S
C597 H583 0.931 . S
C597 C596 1.385 . S
C597 C598 1.389 . S
C598 C597 1.389 . S
C598 C599 1.387 . S
C599 H584 0.930 . S
C599 C594 1.390 . S
C599 C598 1.387 . S
H600 C612 0.930 . S
H601 C614 0.930 . S
H602 C615 0.930 . S
H603 C619 0.959 . S
H604 C619 0.959 . S
H605 C619 0.961 . S
H606 C620 0.960 . S
H607 C620 0.961 . S
H608 C620 0.959 . S
H609 C623 0.929 . S
H610 C624 0.931 . S
H611 C626 0.930 . S
C612 H600 0.930 . S
C612 C613 1.399 . S
C612 C617 1.399 . S
C613 C612 1.399 . S
C613 C614 1.376 . S
C614 H601 0.930 . S
C614 C613 1.376 . S
C614 C615 1.388 . S
C615 H602 0.930 . S
C615 C614 1.388 . S
C615 C616 1.390 . S
C616 C615 1.390 . S
C616 C617 1.394 . S
C616 C622 1.465 . S
C617 C612 1.399 . S
C617 C616 1.394 . S
C617 C618 1.516 . S
C618 C617 1.516 . S
C618 C619 1.502 . S
C618 C620 1.561 . S
C618 C621 1.526 . S
C619 H603 0.959 . S
C619 H604 0.959 . S
C619 H605 0.961 . S
C619 C618 1.502 . S
C620 H606 0.960 . S
C620 H607 0.961 . S
C620 H608 0.959 . S
C620 C618 1.561 . S
C621 C618 1.526 . S
C621 C622 1.396 . S
C621 C626 1.390 . S
C622 C616 1.465 . S
C622 C621 1.396 . S
C622 C623 1.399 . S
C623 H609 0.929 . S
C623 C622 1.399 . S
C623 C624 1.385 . S
C624 H610 0.931 . S
C624 C623 1.385 . S
C624 C625 1.389 . S
C625 C624 1.389 . S
C625 C626 1.387 . S
C626 H611 0.930 . S
C626 C621 1.390 . S
C626 C625 1.387 . S
H627 C639 0.930 . S
H628 C641 0.930 . S
H629 C642 0.930 . S
H630 C646 0.959 . S
H631 C646 0.959 . S
H632 C646 0.961 . S
H633 C647 0.960 . S
H634 C647 0.961 . S
H635 C647 0.959 . S
H636 C650 0.929 . S
H637 C651 0.931 . S
H638 C653 0.930 . S
C639 H627 0.930 . S
C639 C640 1.399 . S
C639 C644 1.399 . S
C640 C639 1.399 . S
C640 C641 1.376 . S
C641 H628 0.930 . S
C641 C640 1.376 . S
C641 C642 1.388 . S
C642 H629 0.930 . S
C642 C641 1.388 . S
C642 C643 1.390 . S
C643 C642 1.390 . S
C643 C644 1.394 . S
C643 C649 1.465 . S
C644 C639 1.399 . S
C644 C643 1.394 . S
C644 C645 1.516 . S
C645 C644 1.516 . S
C645 C646 1.502 . S
C645 C647 1.561 . S
C645 C648 1.526 . S
C646 H630 0.959 . S
C646 H631 0.959 . S
C646 H632 0.961 . S
C646 C645 1.502 . S
C647 H633 0.960 . S
C647 H634 0.961 . S
C647 H635 0.959 . S
C647 C645 1.561 . S
C648 C645 1.526 . S
C648 C649 1.396 . S
C648 C653 1.390 . S
C649 C643 1.465 . S
C649 C648 1.396 . S
C649 C650 1.399 . S
C650 H636 0.929 . S
C650 C649 1.399 . S
C650 C651 1.385 . S
C651 H637 0.931 . S
C651 C650 1.385 . S
C651 C652 1.389 . S
C652 C651 1.389 . S
C652 C653 1.387 . S
C653 H638 0.930 . S
C653 C648 1.390 . S
C653 C652 1.387 . S
H654 C666 0.930 . S
H655 C668 0.930 . S
H656 C669 0.930 . S
H657 C673 0.959 . S
H658 C673 0.959 . S
H659 C673 0.961 . S
H660 C674 0.960 . S
H661 C674 0.961 . S
H662 C674 0.959 . S
H663 C677 0.929 . S
H664 C678 0.931 . S
H665 C680 0.930 . S
C666 H654 0.930 . S
C666 C667 1.399 . S
C666 C671 1.399 . S
C667 C666 1.399 . S
C667 C668 1.376 . S
C668 H655 0.930 . S
C668 C667 1.376 . S
C668 C669 1.388 . S
C669 H656 0.930 . S
C669 C668 1.388 . S
C669 C670 1.390 . S
C670 C669 1.390 . S
C670 C671 1.394 . S
C670 C676 1.465 . S
C671 C666 1.399 . S
C671 C670 1.394 . S
C671 C672 1.516 . S
C672 C671 1.516 . S
C672 C673 1.502 . S
C672 C674 1.561 . S
C672 C675 1.526 . S
C673 H657 0.959 . S
C673 H658 0.959 . S
C673 H659 0.961 . S
C673 C672 1.502 . S
C674 H660 0.960 . S
C674 H661 0.961 . S
C674 H662 0.959 . S
C674 C672 1.561 . S
C675 C672 1.526 . S
C675 C676 1.396 . S
C675 C680 1.390 . S
C676 C670 1.465 . S
C676 C675 1.396 . S
C676 C677 1.399 . S
C677 H663 0.929 . S
C677 C676 1.399 . S
C677 C678 1.385 . S
C678 H664 0.931 . S
C678 C677 1.385 . S
C678 C679 1.389 . S
C679 C678 1.389 . S
C679 C680 1.387 . S
C680 H665 0.930 . S
C680 C675 1.390 . S
C680 C679 1.387 . S
H681 C693 0.930 . S
H682 C695 0.930 . S
H683 C696 0.930 . S
H684 C700 0.959 . S
H685 C700 0.959 . S
H686 C700 0.961 . S
H687 C701 0.960 . S
H688 C701 0.961 . S
H689 C701 0.959 . S
H690 C704 0.929 . S
H691 C705 0.931 . S
H692 C707 0.930 . S
C693 H681 0.930 . S
C693 C694 1.399 . S
C693 C698 1.399 . S
C694 C693 1.399 . S
C694 C695 1.376 . S
C695 H682 0.930 . S
C695 C694 1.376 . S
C695 C696 1.388 . S
C696 H683 0.930 . S
C696 C695 1.388 . S
C696 C697 1.390 . S
C697 C696 1.390 . S
C697 C698 1.394 . S
C697 C703 1.465 1_655 S
C698 C693 1.399 . S
C698 C697 1.394 . S
C698 C699 1.515 1_655 S
C699 C698 1.515 1_455 S
C699 C700 1.501 1_455 S
C699 C701 1.562 . S
C699 C702 1.527 . S
C700 H684 0.959 . S
C700 H685 0.959 . S
C700 H686 0.961 . S
C700 C699 1.501 1_655 S
C701 H687 0.960 . S
C701 H688 0.961 . S
C701 H689 0.959 . S
C701 C699 1.562 . S
C702 C699 1.527 . S
C702 C703 1.396 . S
C702 C707 1.390 . S
C703 C697 1.465 1_455 S
C703 C702 1.396 . S
C703 C704 1.399 . S
C704 H690 0.929 . S
C704 C703 1.399 . S
C704 C705 1.385 . S
C705 H691 0.931 . S
C705 C704 1.385 . S
C705 C706 1.389 . S
C706 C705 1.389 . S
C706 C707 1.387 . S
C707 H692 0.930 . S
C707 C702 1.390 . S
C707 C706 1.387 . S
H708 C720 0.930 . S
H709 C722 0.930 . S
H710 C723 0.930 . S
H711 C727 0.959 . S
H712 C727 0.959 . S
H713 C727 0.961 . S
H714 C728 0.960 . S
H715 C728 0.961 . S
H716 C728 0.959 . S
H717 C731 0.929 . S
H718 C732 0.931 . S
H719 C734 0.930 . S
C720 H708 0.930 . S
C720 C721 1.399 . S
C720 C725 1.399 . S
C721 C720 1.399 . S
C721 C722 1.376 . S
C722 H709 0.930 . S
C722 C721 1.376 . S
C722 C723 1.388 . S
C723 H710 0.930 . S
C723 C722 1.388 . S
C723 C724 1.390 . S
C724 C723 1.390 . S
C724 C725 1.394 . S
C724 C730 1.465 1_545 S
C725 C720 1.399 . S
C725 C724 1.394 . S
C725 C726 1.516 . S
C726 C725 1.516 . S
C726 C727 1.502 . S
C726 C728 1.561 1_545 S
C726 C729 1.526 1_545 S
C727 H711 0.959 . S
C727 H712 0.959 . S
C727 H713 0.961 . S
C727 C726 1.502 . S
C728 H714 0.960 . S
C728 H715 0.961 . S
C728 H716 0.959 . S
C728 C726 1.561 1_565 S
C729 C726 1.526 1_565 S
C729 C730 1.396 . S
C729 C734 1.390 . S
C730 C724 1.465 1_565 S
C730 C729 1.396 . S
C730 C731 1.399 . S
C731 H717 0.929 . S
C731 C730 1.399 . S
C731 C732 1.385 . S
C732 H718 0.931 . S
C732 C731 1.385 . S
C732 C733 1.389 . S
C733 C732 1.389 . S
C733 C734 1.387 . S
C734 H719 0.930 . S
C734 C729 1.390 . S
C734 C733 1.387 . S
H735 C747 0.930 . S
H736 C749 0.930 . S
H737 C750 0.930 . S
H738 C754 0.959 . S
H739 C754 0.959 . S
H740 C754 0.961 . S
H741 C755 0.960 . S
H742 C755 0.961 . S
H743 C755 0.959 . S
H744 C758 0.929 . S
H745 C759 0.931 . S
H746 C761 0.930 . S
C747 H735 0.930 . S
C747 C748 1.399 . S
C747 C752 1.399 . S
C748 C747 1.399 . S
C748 C749 1.376 . S
C749 H736 0.930 . S
C749 C748 1.376 . S
C749 C750 1.388 . S
C750 H737 0.930 . S
C750 C749 1.388 . S
C750 C751 1.390 . S
C751 C750 1.390 . S
C751 C752 1.394 . S
C751 C757 1.465 . S
C752 C747 1.399 . S
C752 C751 1.394 . S
C752 C753 1.516 . S
C753 C752 1.516 . S
C753 C754 1.502 . S
C753 C755 1.561 . S
C753 C756 1.526 . S
C754 H738 0.959 . S
C754 H739 0.959 . S
C754 H740 0.961 . S
C754 C753 1.502 . S
C755 H741 0.960 . S
C755 H742 0.961 . S
C755 H743 0.959 . S
C755 C753 1.561 . S
C756 C753 1.526 . S
C756 C757 1.396 . S
C756 C761 1.390 . S
C757 C751 1.465 . S
C757 C756 1.396 . S
C757 C758 1.399 . S
C758 H744 0.929 . S
C758 C757 1.399 . S
C758 C759 1.385 . S
C759 H745 0.931 . S
C759 C758 1.385 . S
C759 C760 1.389 . S
C760 C759 1.389 . S
C760 C761 1.387 . S
C761 H746 0.930 . S
C761 C756 1.390 . S
C761 C760 1.387 . S
H762 C774 0.930 . S
H763 C776 0.930 . S
H764 C777 0.930 . S
H765 C781 0.959 . S
H766 C781 0.963 . S
H767 C781 0.961 . S
H768 C782 0.960 . S
H769 C782 0.961 . S
H770 C782 0.959 . S
H771 C785 0.929 . S
H772 C786 0.931 . S
H773 C788 0.930 . S
C774 H762 0.930 . S
C774 C775 1.399 . S
C774 C779 1.399 . S
C775 C774 1.399 . S
C775 C776 1.376 . S
C776 H763 0.930 . S
C776 C775 1.376 . S
C776 C777 1.388 . S
C777 H764 0.930 . S
C777 C776 1.388 . S
C777 C778 1.390 . S
C778 C777 1.390 . S
C778 C779 1.394 . S
C778 C784 1.465 1_455 S
C779 C774 1.399 . S
C779 C778 1.394 . S
C779 C780 1.516 1_455 S
C780 C779 1.516 1_655 S
C780 C781 1.502 1_655 S
C780 C782 1.561 . S
C780 C783 1.526 . S
C781 H765 0.959 . S
C781 H766 0.963 . S
C781 H767 0.961 . S
C781 C780 1.502 1_455 S
C782 H768 0.960 . S
C782 H769 0.961 . S
C782 H770 0.959 . S
C782 C780 1.561 . S
C783 C780 1.526 . S
C783 C784 1.396 . S
C783 C788 1.390 . S
C784 C778 1.465 1_655 S
C784 C783 1.396 . S
C784 C785 1.399 . S
C785 H771 0.929 . S
C785 C784 1.399 . S
C785 C786 1.385 . S
C786 H772 0.931 . S
C786 C785 1.385 . S
C786 C787 1.389 . S
C787 C786 1.389 . S
C787 C788 1.387 . S
C788 H773 0.930 . S
C788 C783 1.390 . S
C788 C787 1.387 . S
H789 C801 0.930 . S
H790 C803 0.930 . S
H791 C804 0.930 . S
H792 C808 0.959 . S
H793 C808 0.959 . S
H794 C808 0.961 . S
H795 C809 0.960 . S
H796 C809 0.961 1_545 S
H797 C809 0.959 . S
H798 C812 0.929 1_565 S
H799 C813 0.931 . S
H800 C815 0.930 . S
C801 H789 0.930 . S
C801 C802 1.399 . S
C801 C806 1.399 . S
C802 C801 1.399 . S
C802 C803 1.376 . S
C803 H790 0.930 . S
C803 C802 1.376 . S
C803 C804 1.388 . S
C804 H791 0.930 . S
C804 C803 1.388 . S
C804 C805 1.390 . S
C805 C804 1.390 . S
C805 C806 1.394 . S
C805 C811 1.465 1_565 S
C806 C801 1.399 . S
C806 C805 1.394 . S
C806 C807 1.516 1_565 S
C807 C806 1.516 1_545 S
C807 C808 1.502 . S
C807 C809 1.561 1_545 S
C807 C810 1.526 . S
C808 H792 0.959 . S
C808 H793 0.959 . S
C808 H794 0.961 . S
C808 C807 1.502 . S
C809 H795 0.960 . S
C809 H796 0.961 1_565 S
C809 H797 0.959 . S
C809 C807 1.561 1_565 S
C810 C807 1.526 . S
C810 C811 1.396 . S
C810 C815 1.390 . S
C811 C805 1.465 1_545 S
C811 C810 1.396 . S
C811 C812 1.399 . S
C812 H798 0.929 1_545 S
C812 C811 1.399 . S
C812 C813 1.385 . S
C813 H799 0.931 . S
C813 C812 1.385 . S
C813 C814 1.389 . S
C814 C813 1.389 . S
C814 C815 1.387 . S
C815 H800 0.930 . S
C815 C810 1.390 . S
C815 C814 1.387 . S
C181 C105 1.210 . S
C193 C7 1.139 . S
C208 C21 1.204 . S
C220 C119 1.167 . S
C235 C35 1.142 . S
C247 C133 1.193 . S
C262 C49 1.159 . S
C274 C147 1.208 . S
C289 C161 1.188 . S
C301 C63 1.186 . S
C316 C91 1.210 . S
C328 C77 1.156 . S
C343 C149 1.675 . S
C355 C9 1.681 . S
C370 C23 1.717 . S
C382 C163 1.700 . S
C397 C37 1.716 . S
C409 C93 1.699 . S
C424 C107 1.689 . S
C436 C51 1.710 . S
C451 C121 1.678 . S
C463 C65 1.699 . S
C478 C135 1.713 . S
C490 C79 1.693 . S
C505 C6 1.715 . S
C517 C118 1.711 . S
C532 C20 1.777 . S
C544 C132 1.772 . S
C559 C146 1.741 . S
C571 C34 1.726 . S
C586 C48 1.776 . S
C598 C160 1.777 . S
C613 C90 1.715 . S
C625 C62 1.727 . S
C640 C104 1.714 . S
C652 C76 1.711 . S
C667 C50 1.314 . S
C679 C8 1.348 . S
C694 C64 1.300 . S
C706 C22 1.279 . S
C721 C36 1.304 . S
C733 C78 1.276 . S
C748 C92 1.310 . S
C760 C134 1.348 . S
C775 C106 1.295 . S
C787 C148 1.281 . S
C802 C162 1.311 . S
C814 C120 1.348 . S
