# Generated by pormake.
# Topology uoo, (4)-cn, num edge types: 1
# Building blocks:
#     Node 0, Type 0, BuildingBlock: CEKHIL_clean_sbu_0, # of connection points: 4
#     Node 1, Type 0, BuildingBlock: CEKHIL_clean_sbu_0, # of connection points: 4
#     Node 2, Type 0, BuildingBlock: CEKHIL_clean_sbu_0, # of connection points: 4
#     Node 3, Type 0, BuildingBlock: CEKHIL_clean_sbu_0, # of connection points: 4
#     Node 4, Type 0, BuildingBlock: CEKHIL_clean_sbu_0, # of connection points: 4
#     Node 5, Type 0, BuildingBlock: CEKHIL_clean_sbu_0, # of connection points: 4
#     Edge 6, Type (0, 0), BuildingBlock: FUNLAD_clean_linker_0, # of connection points: 2
#     Edge 7, Type (0, 0), BuildingBlock: FUNLAD_clean_linker_0, # of connection points: 2
#     Edge 8, Type (0, 0), BuildingBlock: FUNLAD_clean_linker_0, # of connection points: 2
#     Edge 9, Type (0, 0), BuildingBlock: FUNLAD_clean_linker_0, # of connection points: 2
#     Edge 10, Type (0, 0), BuildingBlock: FUNLAD_clean_linker_0, # of connection points: 2
#     Edge 11, Type (0, 0), BuildingBlock: FUNLAD_clean_linker_0, # of connection points: 2
#     Edge 12, Type (0, 0), BuildingBlock: FUNLAD_clean_linker_0, # of connection points: 2
#     Edge 13, Type (0, 0), BuildingBlock: FUNLAD_clean_linker_0, # of connection points: 2
#     Edge 14, Type (0, 0), BuildingBlock: FUNLAD_clean_linker_0, # of connection points: 2
#     Edge 15, Type (0, 0), BuildingBlock: FUNLAD_clean_linker_0, # of connection points: 2
#     Edge 16, Type (0, 0), BuildingBlock: FUNLAD_clean_linker_0, # of connection points: 2
#     Edge 17, Type (0, 0), BuildingBlock: FUNLAD_clean_linker_0, # of connection points: 2
# Relax obj value: 0.248
# Max RMSD: 0.171
# Mean RMSD: 0.171
data_MOF--net-uoo--node1-CEKHIL_clean_sbu_0--edge1-FUNLAD_clean_linker_0
_symmetry_space_group_name_H-M    P1
_symmetry_Int_Tables_number       1
_symmetry_cell_setting            triclinic
loop_
_symmetry_equiv_pos_as_xyz
'x, y, z'
_cell_length_a     28.246282
_cell_length_b     28.29093
_cell_length_c     45.342324
_cell_angle_alpha  89.768915
_cell_angle_beta   90.036293
_cell_angle_gamma 119.95039
loop_
_atom_site_label
_atom_site_type_symbol
_atom_site_fract_x
_atom_site_fract_y
_atom_site_fract_z
_atom_type_partial_charge
Co0 Co 0.13719 0.29179 0.98111 0.0
O1 O 0.06572 0.28496 0.97985 0.0
O2 O 0.14355 0.36098 0.98927 0.0
C3 C 0.12931 0.24564 0.93967 0.0
O4 O 0.21798 0.31767 0.9829 0.0
Co5 Co 0.158 0.19559 0.98825 0.0
O6 O 0.23634 0.2494 0.98089 0.0
C7 C 0.11598 0.2294 0.0384 0.0
C8 C 0.09096 0.33681 0.98595 0.0
C9 C 0.25186 0.3001 0.98117 0.0
O10 O 0.12738 0.27316 0.02418 0.0
O11 O 0.12083 0.19066 0.02704 0.0
O12 O 0.1417 0.29647 0.93849 0.0
O13 O 0.11788 0.22297 0.96552 0.0
Co14 Co 0.83087 0.1357 0.3188 0.0
O15 O 0.76943 0.06199 0.31776 0.0
O16 O 0.76597 0.13635 0.32974 0.0
C17 C 0.86953 0.13369 0.27598 0.0
O18 O 0.88041 0.21726 0.32066 0.0
Co19 Co 0.95194 0.16707 0.3222 0.0
O20 O 0.96898 0.24358 0.31538 0.0
C21 C 0.88103 0.11894 0.37408 0.0
C22 C 0.74068 0.08397 0.32613 0.0
C23 C 0.93043 0.25442 0.3173 0.0
O24 O 0.84423 0.12573 0.36129 0.0
O25 O 0.92547 0.1288 0.36129 0.0
O26 O 0.82798 0.14171 0.2762 0.0
O27 O 0.88332 0.12266 0.30118 0.0
Co28 Co 0.69197 0.828 0.65386 0.0
O29 O 0.69927 0.7637 0.65054 0.0
O30 O 0.62865 0.76681 0.67003 0.0
C31 C 0.71994 0.86176 0.6084 0.0
O32 O 0.66553 0.88138 0.66008 0.0
Co33 Co 0.78631 0.9468 0.65096 0.0
O34 O 0.72766 0.96589 0.64608 0.0
C35 C 0.77184 0.88201 0.70452 0.0
C36 C 0.65167 0.73849 0.66343 0.0
C37 C 0.67931 0.93081 0.65393 0.0
O38 O 0.72712 0.84387 0.69362 0.0
O39 O 0.80374 0.92595 0.69044 0.0
O40 O 0.67037 0.82187 0.61279 0.0
O41 O 0.75238 0.87628 0.63093 0.0
Co42 Co 0.8451 0.68284 0.98554 0.0
O43 O 0.91544 0.68903 0.97867 0.0
O44 O 0.84134 0.61521 -0.0048 0.0
C45 C 0.83956 0.72127 0.94348 0.0
O46 O 0.76577 0.65788 -0.00617 0.0
Co47 Co 0.82715 0.78074 -0.00715 0.0
O48 O 0.74814 0.72621 0.98814 0.0
C49 C 0.87778 0.75189 0.04108 0.0
C50 C 0.89242 0.63854 0.98759 0.0
C51 C 0.73217 0.67573 -0.0084 0.0
O52 O 0.86659 0.70819 0.0271 0.0
O53 O 0.86894 0.78873 0.03034 0.0
O54 O 0.8277 0.67057 0.94407 0.0
O55 O 0.8596 0.7488 0.9675 0.0
Co56 Co 0.15354 0.84898 0.32579 0.0
O57 O 0.21955 0.91785 0.31849 0.0
O58 O 0.21559 0.8437 0.33771 0.0
C59 C 0.11364 0.84404 0.2822 0.0
O60 O 0.09813 0.77065 0.3351 0.0
Co61 Co 0.03633 0.82958 0.32836 0.0
O62 O 0.01249 0.75056 0.3254 0.0
C63 C 0.11175 0.88368 0.37818 0.0
C64 C 0.24517 0.89369 0.32874 0.0
C65 C 0.04727 0.73606 0.33183 0.0
O66 O 0.14682 0.8732 0.36634 0.0
O67 O 0.06675 0.87278 0.36566 0.0
O68 O 0.15087 0.82998 0.28447 0.0
O69 O 0.10411 0.86374 0.30569 0.0
Co70 Co 0.30132 0.15821 0.661 0.0
O71 O 0.29061 0.22062 0.66083 0.0
O72 O 0.36414 0.21959 0.67727 0.0
C73 C 0.27255 0.1301 0.61489 0.0
O74 O 0.33138 0.10713 0.66331 0.0
Co75 Co 0.21045 0.03813 0.65456 0.0
O76 O 0.27154 0.02331 0.64754 0.0
C77 C 0.22299 0.09507 0.71075 0.0
C78 C 0.33967 0.24712 0.67188 0.0
C79 C 0.31965 0.0592 0.65521 0.0
O80 O 0.26782 0.13563 0.70127 0.0
O81 O 0.19143 0.05408 0.69474 0.0
O82 O 0.32151 0.17056 0.61962 0.0
O83 O 0.241 0.1112 0.63777 0.0
C84 C 0.1523 0.0723 0.74992 0.0
C85 C 0.20749 0.09635 0.74165 0.0
C86 C 0.13821 0.07802 0.77872 0.0
C87 C 0.17917 0.10695 0.79975 0.0
C88 C 0.2341 0.12819 0.79188 0.0
C89 C 0.24821 0.12365 0.76299 0.0
C90 C 0.16623 0.11875 0.82944 0.0
C91 C 0.12951 0.13519 0.8333 0.0
C92 C 0.12618 0.16045 0.86112 0.0
C93 C 0.11974 0.20641 0.8596 0.0
C94 C 0.121 0.23416 0.88521 0.0
C95 C 0.12723 0.2155 0.91287 0.0
H96 H 0.13562 0.10513 0.8906 0.0
C97 C 0.13149 0.16819 0.91456 0.0
C98 C 0.13146 0.14107 0.88883 0.0
H99 H 0.136 0.15283 0.93568 0.0
H100 H 0.12014 0.05085 0.7339 0.0
H101 H 0.09545 0.06052 0.78442 0.0
H102 H 0.26627 0.15043 0.8078 0.0
H103 H 0.29107 0.14198 0.75727 0.0
H104 H 0.19313 0.12222 0.84749 0.0
H105 H 0.10712 0.13763 0.81439 0.0
H106 H 0.11544 0.22191 0.83847 0.0
H107 H 0.11701 0.2702 0.88333 0.0
C108 C 0.88983 0.1586 0.22269 0.0
C109 C 0.90134 0.14002 0.24899 0.0
C110 C 0.92075 0.16559 0.19733 0.0
C111 C 0.96391 0.1542 0.19782 0.0
C112 C 0.97449 0.13439 0.22393 0.0
C113 C 0.94381 0.12776 0.24935 0.0
C114 C -0.00243 0.16131 0.17127 0.0
C115 C 0.00788 0.19977 0.15074 0.0
C116 C 0.04006 0.20741 0.12347 0.0
C117 C 0.06146 0.25733 0.10841 0.0
C118 C 0.08793 0.26507 0.08139 0.0
C119 C 0.09335 0.2228 0.06859 0.0
H120 H 0.02981 0.12595 0.12168 0.0
C121 C 0.0733 0.17322 0.08403 0.0
C122 C 0.04675 0.16548 0.11115 0.0
H123 H 0.07646 0.13969 0.07474 0.0
H124 H 0.85704 0.16793 0.22169 0.0
H125 H 0.9102 0.17919 0.17732 0.0
H126 H 0.00708 0.12474 0.22479 0.0
H127 H 0.9534 0.11301 0.26928 0.0
H128 H 0.01627 0.13597 0.16951 0.0
H129 H 0.99325 0.22826 0.15434 0.0
H130 H 0.05682 0.29028 0.11734 0.0
H131 H 0.10289 0.30388 0.07022 0.0
C132 C 0.82118 0.08396 0.41889 0.0
C133 C 0.87025 0.09657 0.40451 0.0
C134 C 0.80895 0.0591 0.44665 0.0
C135 C 0.84533 0.04582 0.46059 0.0
C136 C 0.89527 0.06039 0.44679 0.0
C137 C 0.90756 0.08528 0.419 0.0
C138 C 0.83261 0.01705 0.48947 0.0
C139 C 0.7811 0.98312 0.49871 0.0
C140 C 0.76728 0.95227 0.52699 0.0
C141 C 0.71511 0.90623 0.53022 0.0
C142 C 0.6999 0.87643 0.55654 0.0
C143 C 0.73653 0.89228 0.58029 0.0
H144 H 0.84382 0.00447 0.54975 0.0
C145 C 0.78866 0.93845 0.5772 0.0
C146 C 0.80387 0.96834 0.55089 0.0
H147 H 0.81759 0.95199 0.59525 0.0
H148 H 0.79171 0.09263 0.40859 0.0
H149 H 0.771 0.05053 0.45705 0.0
H150 H 0.92436 0.0513 0.45722 0.0
H151 H 0.94588 0.09469 0.40868 0.0
H152 H 0.86686 0.02131 0.50239 0.0
H153 H 0.74719 0.97514 0.48431 0.0
H154 H 0.68594 0.89314 0.51229 0.0
H155 H 0.65932 0.84116 0.55831 0.0
C156 C 0.85389 0.80046 0.91211 0.0
C157 C 0.82608 0.74405 0.91774 0.0
C158 C 0.84172 0.82108 0.88687 0.0
C159 C 0.80075 0.78546 0.86738 0.0
C160 C 0.77193 0.72943 0.87366 0.0
C161 C 0.78493 0.70881 0.89836 0.0
C162 C 0.78662 0.80441 0.84011 0.0
C163 C 0.82376 0.84478 0.82286 0.0
C164 C 0.81015 0.85469 0.79263 0.0
C165 C 0.84045 0.90651 0.77955 0.0
C166 C 0.82856 0.91593 0.75082 0.0
C167 C 0.78628 0.87344 0.73468 0.0
H168 H 0.74657 0.77078 0.78453 0.0
C169 C 0.75701 0.8214 0.74763 0.0
C170 C 0.76903 0.81203 0.77604 0.0
H171 H 0.72493 0.78732 0.73571 0.0
H172 H 0.88563 0.8284 0.92689 0.0
H173 H 0.86388 0.86464 0.88283 0.0
H174 H 0.74 0.70128 0.85902 0.0
H175 H 0.76245 0.66522 0.90238 0.0
H176 H 0.74459 0.78043 0.83273 0.0
H177 H 0.86564 0.86951 0.83038 0.0
H178 H 0.87305 0.93981 0.79165 0.0
H179 H 0.85211 0.95641 0.74139 0.0
C180 C 0.09468 0.81606 0.22939 0.0
C181 C 0.08309 0.83699 0.25464 0.0
C182 C 0.06629 0.81013 0.20318 0.0
C183 C 0.02528 0.82456 0.20178 0.0
C184 C 0.01429 0.84616 0.22696 0.0
C185 C 0.0427 0.8521 0.25318 0.0
C186 C -0.00564 0.81894 0.17427 0.0
C187 C 0.98587 0.78154 0.15357 0.0
C188 C 0.95565 0.77481 0.12566 0.0
C189 C 0.93669 0.7259 0.11013 0.0
C190 C 0.9106 0.71829 0.08305 0.0
C191 C 0.90298 0.75966 0.07063 0.0
H192 H 0.96282 0.85508 0.12432 0.0
C193 C 0.92138 0.80856 0.08627 0.0
C194 C 0.94766 0.81621 0.11348 0.0
H195 H 0.91651 0.84139 0.07726 0.0
H196 H 0.12604 0.80468 0.22976 0.0
H197 H 0.07742 0.79519 0.18399 0.0
H198 H 0.98333 0.8581 0.22641 0.0
H199 H 0.03309 0.86867 0.27227 0.0
H200 H 0.97608 0.84456 0.17188 0.0
H201 H 4e-05 0.75278 0.1576 0.0
H202 H 0.94245 0.69341 0.11888 0.0
H203 H 0.897 0.68001 0.07172 0.0
C204 C 0.20455 0.05713 0.58193 0.0
C205 C 0.25604 0.10373 0.5858 0.0
C206 C 0.18974 0.031 0.55462 0.0
C207 C 0.22611 0.05133 0.53056 0.0
C208 C 0.27754 0.09793 0.53454 0.0
C209 C 0.29233 0.124 0.56183 0.0
C210 C 0.21313 0.02384 0.50145 0.0
C211 C 0.16189 0.99009 0.49195 0.0
C212 C 0.14986 0.96259 0.46286 0.0
C213 C 0.09953 0.94703 0.44931 0.0
C214 C 0.08696 0.92128 0.42188 0.0
C215 C 0.12436 0.91003 0.40753 0.0
H216 H 0.22523 0.95987 0.459 0.0
C217 C 0.1743 0.92459 0.42143 0.0
C218 C 0.18685 0.95037 0.44881 0.0
H219 H 0.20391 0.91613 0.4112 0.0
H220 H 0.17592 0.04029 0.60011 0.0
H221 H 0.15039 0.99426 0.55281 0.0
H222 H 0.30652 0.11422 0.51647 0.0
H223 H 0.3324 0.15976 0.56417 0.0
H224 H 0.24737 0.03369 0.48689 0.0
H225 H 0.1273 0.98422 0.50514 0.0
H226 H 0.07005 0.95538 0.45983 0.0
H227 H 0.04797 0.91037 0.41193 0.0
C228 C 0.32742 0.39679 0.97713 0.0
C229 C 0.31084 0.34112 0.9801 0.0
C230 C 0.38262 0.43636 0.97724 0.0
C231 C 0.42284 0.42134 0.98065 0.0
C232 C 0.40645 0.36564 0.98271 0.0
C233 C 0.35101 0.32587 0.98251 0.0
C234 C 0.48205 0.46241 0.98166 0.0
C235 C 0.50165 0.51496 0.98945 0.0
C236 C 0.56087 0.5557 -0.00926 0.0
C237 C 0.57787 0.61135 0.98745 0.0
C238 C 0.63341 0.65075 0.98813 0.0
C239 C 0.67302 0.63519 -0.00758 0.0
H240 H 0.58906 0.49822 -0.00032 0.0
C241 C 0.65573 0.57956 -0.00342 0.0
C242 C 0.60043 0.54034 -0.00415 0.0
H243 H 0.68495 0.56597 0.00027 0.0
H244 H 0.2977 0.41009 0.97469 0.0
H245 H 0.39326 0.47847 0.97431 0.0
H246 H 0.43662 0.35287 0.98495 0.0
H247 H 0.33969 0.28336 0.98465 0.0
H248 H 0.51021 0.44817 0.9762 0.0
H249 H 0.47371 0.52947 -0.00515 0.0
H250 H 0.54814 0.62433 0.98386 0.0
H251 H 0.64525 0.69321 0.98495 0.0
C252 C -0.00644 0.35539 0.32288 0.0
C253 C 0.94214 0.31141 0.31543 0.0
C254 C 0.00231 0.40867 0.32275 0.0
C255 C 0.95984 0.41871 0.31485 0.0
C256 C 0.90937 0.37499 0.30622 0.0
C257 C 0.90038 0.32188 0.30679 0.0
C258 C 0.96685 0.47422 0.31502 0.0
C259 C -0.0018 0.51201 0.33497 0.0
C260 C 0.00676 0.56822 0.33545 0.0
C261 C 0.05401 0.60897 0.34909 0.0
C262 C 0.06589 0.66301 0.34872 0.0
C263 C 0.03042 0.67769 0.33495 0.0
H264 H 0.93189 0.55176 0.31298 0.0
C265 C 0.98157 0.63662 0.32258 0.0
C266 C 0.96979 0.58229 0.32279 0.0
H267 H 0.95331 0.64663 0.31196 0.0
H268 H 0.02656 0.34854 0.32941 0.0
H269 H 0.04232 0.44184 0.32864 0.0
H270 H 0.87632 0.38177 0.29966 0.0
H271 H 0.86048 0.28892 0.30049 0.0
H272 H 0.94405 0.48307 0.2988 0.0
H273 H 0.02023 0.50206 0.35122 0.0
H274 H 0.08277 0.59925 0.35938 0.0
H275 H 0.10361 0.69352 0.35881 0.0
C276 C 0.35688 -0.00357 0.64501 0.0
C277 C 0.36501 0.04728 0.65425 0.0
C278 C 0.4011 0.98721 0.64323 0.0
C279 C 0.45416 0.02875 0.65076 0.0
C280 C 0.46213 0.07945 0.65972 0.0
C281 C 0.4182 0.08857 0.66163 0.0
C282 C 0.50246 0.02135 0.64928 0.0
C283 C 0.49917 0.9727 0.653 0.0
C284 C 0.54764 0.96547 0.65398 0.0
C285 C 0.54245 0.91925 0.66837 0.0
C286 C 0.58599 0.90939 0.66917 0.0
C287 C 0.63592 0.9454 0.65537 0.0
H288 H 0.60311 0.03764 0.62851 0.0
C289 C 0.64172 0.99232 0.64133 0.0
C290 C 0.59786 0.00219 0.64048 0.0
H291 H 0.67942 0.02041 0.63018 0.0
H292 H 0.3166 0.96403 0.63885 0.0
H293 H 0.39365 0.94799 0.63543 0.0
H294 H 0.50254 0.11216 0.66551 0.0
H295 H 0.42631 0.12846 0.66868 0.0
H296 H 0.54225 0.05793 0.64748 0.0
H297 H 0.4597 0.93701 0.65756 0.0
H298 H 0.50436 0.89036 0.67894 0.0
H299 H 0.58006 0.87286 0.6803 0.0
C300 C 0.41767 0.33171 0.69193 0.0
C301 C 0.36981 0.30683 0.67492 0.0
C302 C 0.45266 0.38795 0.6906 0.0
C303 C 0.44044 0.42045 0.67214 0.0
C304 C 0.39136 0.39585 0.65613 0.0
C305 C 0.35597 0.33948 0.65771 0.0
C306 C 0.48016 0.479 0.66733 0.0
C307 C 0.51688 0.51042 0.68773 0.0
C308 C 0.55595 0.56855 0.68207 0.0
C309 C 0.56345 0.60694 0.70363 0.0
C310 C 0.59638 0.66247 0.69777 0.0
C311 C 0.62383 0.68024 0.67068 0.0
H312 H 0.58044 0.55699 0.63858 0.0
C313 C 0.61927 0.64185 0.64978 0.0
C314 C 0.58492 0.58618 0.6553 0.0
H315 H 0.63998 0.65492 0.62871 0.0
H316 H 0.42938 0.30741 0.70532 0.0
H317 H 0.49056 0.4052 0.70282 0.0
H318 H 0.38115 0.42009 0.64172 0.0
H319 H 0.31954 0.32122 0.64417 0.0
H320 H 0.47831 0.49722 0.6465 0.0
H321 H 0.5156 0.49464 0.70977 0.0
H322 H 0.54189 0.59406 0.72449 0.0
H323 H 0.59962 0.69167 0.7142 0.0
C324 C 0.89751 0.5563 0.00205 0.0
C325 C 0.92227 0.60827 0.98894 0.0
C326 C 0.92437 0.52629 0.00272 0.0
C327 C 0.97639 0.54735 0.98987 0.0
C328 C 0.00177 0.59996 0.97748 0.0
C329 C 0.97493 0.6302 0.97697 0.0
C330 C 0.00566 0.51605 0.98956 0.0
C331 C 0.97992 0.46117 -0.00862 0.0
C332 C 0.00896 0.42966 -0.00917 0.0
C333 C 0.9802 0.37462 0.98236 0.0
C334 C 0.00645 0.3439 0.98113 0.0
C335 C 0.06194 0.36775 0.98848 0.0
H336 H 0.08719 0.49442 0.00694 0.0
C337 C 0.09032 0.42232 -0.00224 0.0
C338 C 0.0641 0.45289 -0.00089 0.0
H339 H 0.13298 0.44159 0.00399 0.0
H340 H 0.85727 0.53868 0.01192 0.0
H341 H 0.90429 0.48696 0.01362 0.0
H342 H 0.04215 0.61744 0.9678 0.0
H343 H -0.00491 0.67032 0.96686 0.0
H344 H 0.04956 0.5391 0.9862 0.0
H345 H 0.9356 0.43784 -0.00823 0.0
H346 H 0.93748 0.35554 0.97625 0.0
H347 H 0.98351 0.30181 0.97404 0.0
C348 C 0.64657 0.01408 0.31092 0.0
C349 C 0.68182 0.05187 0.33168 0.0
C350 C 0.58998 0.99011 0.31444 0.0
C351 C 0.56835 0.00274 0.33915 0.0
C352 C 0.60375 0.03804 0.36068 0.0
C353 C 0.66013 0.06326 0.3567 0.0
C354 C 0.50905 0.98027 0.34279 0.0
C355 C 0.47758 0.98033 0.32055 0.0
C356 C 0.4185 0.96035 0.32431 0.0
C357 C 0.39353 0.98379 0.30761 0.0
C358 C 0.33731 0.96398 0.30998 0.0
C359 C 0.30516 0.91963 0.32865 0.0
H360 H 0.40404 0.89697 0.35617 0.0
C361 C 0.3303 0.89664 0.34557 0.0
C362 C 0.38636 0.9168 0.34348 0.0
H363 H 0.30644 0.86221 0.36004 0.0
H364 H 0.66272 0.00513 0.29139 0.0
H365 H 0.56319 0.96216 0.2978 0.0
H366 H 0.58779 0.04787 0.37999 0.0
H367 H 0.68686 0.09233 0.37297 0.0
H368 H 0.49211 0.96825 0.36485 0.0
H369 H 0.49624 -0.00188 0.2994 0.0
H370 H 0.41751 0.01725 0.29258 0.0
H371 H 0.3188 0.98205 0.29648 0.0
loop_
_geom_bond_atom_site_label_1
_geom_bond_atom_site_label_2
_geom_bond_distance
_geom_bond_site_symmetry_2
_ccdc_geom_bond_type
Co0 O1 2.221 . S
Co0 O2 2.092 . S
Co0 O4 2.000 1_556 S
Co0 O10 1.988 1_556 S
Co0 O12 2.171 . S
Co0 O13 2.257 . S
O1 Co0 2.221 . S
O1 C8 1.247 . S
O2 Co0 2.092 . S
O2 C8 1.261 . S
C3 O12 1.247 . S
C3 O13 1.272 . S
O4 Co0 2.000 1_554 S
O4 C9 1.259 . S
Co5 O6 2.061 . S
Co5 O11 2.052 . S
Co5 O13 2.135 1_554 S
O6 Co5 2.061 . S
O6 C9 1.235 . S
C7 O10 1.238 . S
C7 O11 1.241 . S
C8 O1 1.247 . S
C8 O2 1.261 . S
C9 O4 1.259 . S
C9 O6 1.235 . S
O10 Co0 1.988 1_554 S
O10 C7 1.238 . S
O11 Co5 2.052 . S
O11 C7 1.241 . S
O12 Co0 2.171 . S
O12 C3 1.247 . S
O13 Co0 2.257 . S
O13 C3 1.272 . S
O13 Co5 2.135 1_556 S
Co14 O15 2.216 . S
Co14 O16 2.091 . S
Co14 O18 2.004 . S
Co14 O24 2.021 . S
Co14 O26 2.137 . S
Co14 O27 2.244 . S
O15 Co14 2.216 . S
O15 C22 1.247 . S
O16 Co14 2.091 . S
O16 C22 1.261 . S
C17 O26 1.247 . S
C17 O27 1.272 . S
O18 Co14 2.004 . S
O18 C23 1.259 . S
Co19 O20 2.061 . S
Co19 O25 2.052 . S
Co19 O27 2.135 . S
O20 Co19 2.061 . S
O20 C23 1.235 . S
C21 O24 1.238 . S
C21 O25 1.241 . S
C22 O15 1.247 . S
C22 O16 1.261 . S
C23 O18 1.259 . S
C23 O20 1.235 . S
O24 Co14 2.021 . S
O24 C21 1.238 . S
O25 Co19 2.052 . S
O25 C21 1.241 . S
O26 Co14 2.137 . S
O26 C17 1.247 . S
O27 Co14 2.244 . S
O27 C17 1.272 . S
O27 Co19 2.135 . S
Co28 O29 2.216 . S
Co28 O30 2.091 . S
Co28 O32 2.004 . S
Co28 O38 2.021 . S
Co28 O40 2.137 . S
Co28 O41 2.244 . S
O29 Co28 2.216 . S
O29 C36 1.247 . S
O30 Co28 2.091 . S
O30 C36 1.261 . S
C31 O40 1.247 . S
C31 O41 1.272 . S
O32 Co28 2.004 . S
O32 C37 1.259 . S
Co33 O34 2.061 . S
Co33 O39 2.052 . S
Co33 O41 2.135 . S
O34 Co33 2.061 . S
O34 C37 1.235 . S
C35 O38 1.238 . S
C35 O39 1.241 . S
C36 O29 1.247 . S
C36 O30 1.261 . S
C37 O32 1.259 . S
C37 O34 1.235 . S
O38 Co28 2.021 . S
O38 C35 1.238 . S
O39 Co33 2.052 . S
O39 C35 1.241 . S
O40 Co28 2.137 . S
O40 C31 1.247 . S
O41 Co28 2.244 . S
O41 C31 1.272 . S
O41 Co33 2.135 . S
Co42 O43 2.221 . S
Co42 O44 2.092 . S
Co42 O46 2.000 1_556 S
Co42 O52 1.988 1_556 S
Co42 O54 2.171 . S
Co42 O55 2.257 . S
O43 Co42 2.221 . S
O43 C50 1.247 . S
O44 Co42 2.092 . S
O44 C50 1.261 . S
C45 O54 1.247 . S
C45 O55 1.272 . S
O46 Co42 2.000 1_554 S
O46 C51 1.259 . S
Co47 O48 2.061 . S
Co47 O53 2.052 . S
Co47 O55 2.135 1_554 S
O48 Co47 2.061 . S
O48 C51 1.235 . S
C49 O52 1.238 . S
C49 O53 1.241 . S
C50 O43 1.247 . S
C50 O44 1.261 . S
C51 O46 1.259 . S
C51 O48 1.235 . S
O52 Co42 1.988 1_554 S
O52 C49 1.238 . S
O53 Co47 2.052 . S
O53 C49 1.241 . S
O54 Co42 2.171 . S
O54 C45 1.247 . S
O55 Co42 2.257 . S
O55 C45 1.272 . S
O55 Co47 2.135 1_556 S
Co56 O57 2.216 . S
Co56 O58 2.091 . S
Co56 O60 2.004 . S
Co56 O66 2.021 . S
Co56 O68 2.137 . S
Co56 O69 2.244 . S
O57 Co56 2.216 . S
O57 C64 1.247 . S
O58 Co56 2.091 . S
O58 C64 1.261 . S
C59 O68 1.247 . S
C59 O69 1.272 . S
O60 Co56 2.004 . S
O60 C65 1.259 . S
Co61 O62 2.061 . S
Co61 O67 2.052 . S
Co61 O69 2.135 . S
O62 Co61 2.061 . S
O62 C65 1.235 . S
C63 O66 1.238 . S
C63 O67 1.241 . S
C64 O57 1.247 . S
C64 O58 1.261 . S
C65 O60 1.259 . S
C65 O62 1.235 . S
O66 Co56 2.021 . S
O66 C63 1.238 . S
O67 Co61 2.052 . S
O67 C63 1.241 . S
O68 Co56 2.137 . S
O68 C59 1.247 . S
O69 Co56 2.244 . S
O69 C59 1.272 . S
O69 Co61 2.135 . S
Co70 O71 2.216 . S
Co70 O72 2.091 . S
Co70 O74 2.004 . S
Co70 O80 2.021 . S
Co70 O82 2.137 . S
Co70 O83 2.244 . S
O71 Co70 2.216 . S
O71 C78 1.247 . S
O72 Co70 2.091 . S
O72 C78 1.261 . S
C73 O82 1.247 . S
C73 O83 1.272 . S
O74 Co70 2.004 . S
O74 C79 1.259 . S
Co75 O76 2.061 . S
Co75 O81 2.052 . S
Co75 O83 2.135 . S
O76 Co75 2.061 . S
O76 C79 1.235 . S
C77 O80 1.238 . S
C77 O81 1.241 . S
C78 O71 1.247 . S
C78 O72 1.261 . S
C79 O74 1.259 . S
C79 O76 1.235 . S
O80 Co70 2.021 . S
O80 C77 1.238 . S
O81 Co75 2.052 . S
O81 C77 1.241 . S
O82 Co70 2.137 . S
O82 C73 1.247 . S
O83 Co70 2.244 . S
O83 C73 1.272 . S
O83 Co75 2.135 . S
C84 C85 1.386 . S
C84 C86 1.383 . S
C84 H100 0.951 . S
C85 C84 1.386 . S
C85 C89 1.383 . S
C86 C84 1.383 . S
C86 C87 1.402 . S
C86 H101 0.951 . S
C87 C86 1.402 . S
C87 C88 1.375 . S
C87 C90 1.481 . S
C88 C87 1.375 . S
C88 C89 1.367 . S
C88 H102 0.951 . S
C89 C85 1.383 . S
C89 C88 1.367 . S
C89 H103 0.950 . S
C90 C87 1.481 . S
C90 C91 1.297 . S
C90 H104 0.950 . S
C91 C90 1.297 . S
C91 C92 1.479 . S
C91 H105 0.950 . S
C92 C91 1.479 . S
C92 C93 1.375 . S
C92 C98 1.404 . S
C93 C92 1.375 . S
C93 C94 1.369 . S
C93 H106 0.950 . S
C94 C93 1.369 . S
C94 C95 1.392 . S
C94 H107 0.951 . S
C95 C94 1.392 . S
C95 C97 1.384 . S
H96 C98 0.949 . S
C97 C95 1.384 . S
C97 C98 1.385 . S
C97 H99 0.950 . S
C98 C92 1.404 . S
C98 H96 0.949 . S
C98 C97 1.385 . S
H99 C97 0.950 . S
H100 C84 0.951 . S
H101 C86 0.951 . S
H102 C88 0.951 . S
H103 C89 0.950 . S
H104 C90 0.950 . S
H105 C91 0.950 . S
H106 C93 0.950 . S
H107 C94 0.951 . S
C108 C109 1.386 . S
C108 C110 1.383 . S
C108 H124 0.951 . S
C109 C108 1.386 . S
C109 C113 1.383 . S
C110 C108 1.383 . S
C110 C111 1.402 . S
C110 H125 0.951 . S
C111 C110 1.402 . S
C111 C112 1.375 . S
C111 C114 1.481 1_655 S
C112 C111 1.375 . S
C112 C113 1.367 . S
C112 H126 0.951 . S
C113 C109 1.383 . S
C113 C112 1.367 . S
C113 H127 0.950 . S
C114 C111 1.481 1_455 S
C114 C115 1.297 . S
C114 H128 0.950 . S
C115 C114 1.297 . S
C115 C116 1.479 . S
C115 H129 0.950 . S
C116 C115 1.479 . S
C116 C117 1.375 . S
C116 C122 1.404 . S
C117 C116 1.375 . S
C117 C118 1.369 . S
C117 H130 0.950 . S
C118 C117 1.369 . S
C118 C119 1.392 . S
C118 H131 0.951 . S
C119 C118 1.392 . S
C119 C121 1.384 . S
H120 C122 0.949 . S
C121 C119 1.384 . S
C121 C122 1.385 . S
C121 H123 0.950 . S
C122 C116 1.404 . S
C122 H120 0.949 . S
C122 C121 1.385 . S
H123 C121 0.950 . S
H124 C108 0.951 . S
H125 C110 0.951 . S
H126 C112 0.951 . S
H127 C113 0.950 . S
H128 C114 0.950 . S
H129 C115 0.950 . S
H130 C117 0.950 . S
H131 C118 0.951 . S
C132 C133 1.386 . S
C132 C134 1.383 . S
C132 H148 0.951 . S
C133 C132 1.386 . S
C133 C137 1.383 . S
C134 C132 1.383 . S
C134 C135 1.402 . S
C134 H149 0.951 . S
C135 C134 1.402 . S
C135 C136 1.375 . S
C135 C138 1.481 1_545 S
C136 C135 1.375 . S
C136 C137 1.367 . S
C136 H150 0.951 1_545 S
C137 C133 1.383 . S
C137 C136 1.367 . S
C137 H151 0.950 . S
C138 C135 1.481 1_565 S
C138 C139 1.297 . S
C138 H152 0.950 . S
C139 C138 1.297 . S
C139 C140 1.479 . S
C139 H153 0.950 . S
C140 C139 1.479 . S
C140 C141 1.375 . S
C140 C146 1.404 . S
C141 C140 1.375 . S
C141 C142 1.369 . S
C141 H154 0.950 . S
C142 C141 1.369 . S
C142 C143 1.392 . S
C142 H155 0.951 . S
C143 C142 1.392 . S
C143 C145 1.384 . S
H144 C146 0.949 . S
C145 C143 1.384 . S
C145 C146 1.385 . S
C145 H147 0.950 . S
C146 C140 1.404 . S
C146 H144 0.949 . S
C146 C145 1.385 . S
H147 C145 0.950 . S
H148 C132 0.951 . S
H149 C134 0.951 . S
H150 C136 0.951 1_565 S
H151 C137 0.950 . S
H152 C138 0.950 . S
H153 C139 0.950 . S
H154 C141 0.950 . S
H155 C142 0.951 . S
C156 C157 1.386 . S
C156 C158 1.383 . S
C156 H172 0.951 . S
C157 C156 1.386 . S
C157 C161 1.383 . S
C158 C156 1.383 . S
C158 C159 1.402 . S
C158 H173 0.951 . S
C159 C158 1.402 . S
C159 C160 1.375 . S
C159 C162 1.481 . S
C160 C159 1.375 . S
C160 C161 1.367 . S
C160 H174 0.951 . S
C161 C157 1.383 . S
C161 C160 1.367 . S
C161 H175 0.950 . S
C162 C159 1.481 . S
C162 C163 1.297 . S
C162 H176 0.950 . S
C163 C162 1.297 . S
C163 C164 1.479 . S
C163 H177 0.950 . S
C164 C163 1.479 . S
C164 C165 1.375 . S
C164 C170 1.404 . S
C165 C164 1.375 . S
C165 C166 1.369 . S
C165 H178 0.950 . S
C166 C165 1.369 . S
C166 C167 1.392 . S
C166 H179 0.951 . S
C167 C166 1.392 . S
C167 C169 1.384 . S
H168 C170 0.949 . S
C169 C167 1.384 . S
C169 C170 1.385 . S
C169 H171 0.950 . S
C170 C164 1.404 . S
C170 H168 0.949 . S
C170 C169 1.385 . S
H171 C169 0.950 . S
H172 C156 0.951 . S
H173 C158 0.951 . S
H174 C160 0.951 . S
H175 C161 0.950 . S
H176 C162 0.950 . S
H177 C163 0.950 . S
H178 C165 0.950 . S
H179 C166 0.951 . S
C180 C181 1.386 . S
C180 C182 1.383 . S
C180 H196 0.951 . S
C181 C180 1.386 . S
C181 C185 1.383 . S
C182 C180 1.383 . S
C182 C183 1.402 . S
C182 H197 0.951 . S
C183 C182 1.402 . S
C183 C184 1.375 . S
C183 C186 1.481 1_455 S
C184 C183 1.375 . S
C184 C185 1.367 . S
C184 H198 0.951 . S
C185 C181 1.383 . S
C185 C184 1.367 . S
C185 H199 0.950 . S
C186 C183 1.481 1_655 S
C186 C187 1.297 . S
C186 H200 0.950 . S
C187 C186 1.297 . S
C187 C188 1.479 . S
C187 H201 0.950 . S
C188 C187 1.479 . S
C188 C189 1.375 . S
C188 C194 1.404 . S
C189 C188 1.375 . S
C189 C190 1.369 . S
C189 H202 0.950 . S
C190 C189 1.369 . S
C190 C191 1.392 . S
C190 H203 0.951 . S
C191 C190 1.392 . S
C191 C193 1.384 . S
H192 C194 0.949 . S
C193 C191 1.384 . S
C193 C194 1.385 . S
C193 H195 0.950 . S
C194 C188 1.404 . S
C194 H192 0.949 . S
C194 C193 1.385 . S
H195 C193 0.950 . S
H196 C180 0.951 . S
H197 C182 0.951 . S
H198 C184 0.951 . S
H199 C185 0.950 . S
H200 C186 0.950 . S
H201 C187 0.950 . S
H202 C189 0.950 . S
H203 C190 0.951 . S
C204 C205 1.386 . S
C204 C206 1.383 . S
C204 H220 0.951 . S
C205 C204 1.386 . S
C205 C209 1.383 . S
C206 C204 1.383 . S
C206 C207 1.402 . S
C206 H221 0.951 1_545 S
C207 C206 1.402 . S
C207 C208 1.375 . S
C207 C210 1.481 . S
C208 C207 1.375 . S
C208 C209 1.367 . S
C208 H222 0.951 . S
C209 C205 1.383 . S
C209 C208 1.367 . S
C209 H223 0.950 . S
C210 C207 1.481 . S
C210 C211 1.297 1_545 S
C210 H224 0.950 . S
C211 C210 1.297 1_565 S
C211 C212 1.479 . S
C211 H225 0.950 . S
C212 C211 1.479 . S
C212 C213 1.375 . S
C212 C218 1.404 . S
C213 C212 1.375 . S
C213 C214 1.369 . S
C213 H226 0.950 . S
C214 C213 1.369 . S
C214 C215 1.392 . S
C214 H227 0.951 . S
C215 C214 1.392 . S
C215 C217 1.384 . S
H216 C218 0.949 1_545 S
C217 C215 1.384 . S
C217 C218 1.385 . S
C217 H219 0.950 . S
C218 C212 1.404 . S
C218 H216 0.949 1_565 S
C218 C217 1.385 . S
H219 C217 0.950 . S
H220 C204 0.951 . S
H221 C206 0.951 1_565 S
H222 C208 0.951 . S
H223 C209 0.950 . S
H224 C210 0.950 . S
H225 C211 0.950 . S
H226 C213 0.950 . S
H227 C214 0.951 . S
C228 C229 1.386 . S
C228 C230 1.383 . S
C228 H244 0.951 . S
C229 C228 1.386 . S
C229 C233 1.383 1_554 S
C230 C228 1.383 . S
C230 C231 1.402 . S
C230 H245 0.951 . S
C231 C230 1.402 . S
C231 C232 1.375 1_554 S
C231 C234 1.481 . S
C232 C231 1.375 1_556 S
C232 C233 1.367 . S
C232 H246 0.951 . S
C233 C229 1.383 1_556 S
C233 C232 1.367 . S
C233 H247 0.950 . S
C234 C231 1.481 . S
C234 C235 1.297 . S
C234 H248 0.950 1_554 S
C235 C234 1.297 . S
C235 C236 1.479 . S
C235 H249 0.950 . S
C236 C235 1.479 . S
C236 C237 1.375 . S
C236 C242 1.404 1_554 S
C237 C236 1.375 . S
C237 C238 1.369 . S
C237 H250 0.950 . S
C238 C237 1.369 . S
C238 C239 1.392 . S
C238 H251 0.951 . S
C239 C238 1.392 . S
C239 C241 1.384 1_554 S
H240 C242 0.949 . S
C241 C239 1.384 1_556 S
C241 C242 1.385 . S
C241 H243 0.950 . S
C242 C236 1.404 1_556 S
C242 H240 0.949 . S
C242 C241 1.385 . S
H243 C241 0.950 . S
H244 C228 0.951 . S
H245 C230 0.951 . S
H246 C232 0.951 . S
H247 C233 0.950 . S
H248 C234 0.950 1_556 S
H249 C235 0.950 . S
H250 C237 0.950 . S
H251 C238 0.951 . S
C252 C253 1.386 . S
C252 C254 1.383 1_655 S
C252 H268 0.951 1_655 S
C253 C252 1.386 . S
C253 C257 1.383 . S
C254 C252 1.383 1_455 S
C254 C255 1.402 1_455 S
C254 H269 0.951 . S
C255 C254 1.402 1_655 S
C255 C256 1.375 . S
C255 C258 1.481 . S
C256 C255 1.375 . S
C256 C257 1.367 . S
C256 H270 0.951 . S
C257 C253 1.383 . S
C257 C256 1.367 . S
C257 H271 0.950 . S
C258 C255 1.481 . S
C258 C259 1.297 1_655 S
C258 H272 0.950 . S
C259 C258 1.297 1_455 S
C259 C260 1.479 . S
C259 H273 0.950 . S
C260 C259 1.479 . S
C260 C261 1.375 . S
C260 C266 1.404 . S
C261 C260 1.375 . S
C261 C262 1.369 . S
C261 H274 0.950 . S
C262 C261 1.369 . S
C262 C263 1.392 . S
C262 H275 0.951 . S
C263 C262 1.392 . S
C263 C265 1.384 . S
H264 C266 0.949 1_655 S
C265 C263 1.384 . S
C265 C266 1.385 . S
C265 H267 0.950 . S
C266 C260 1.404 . S
C266 H264 0.949 1_455 S
C266 C265 1.385 . S
H267 C265 0.950 . S
H268 C252 0.951 1_455 S
H269 C254 0.951 . S
H270 C256 0.951 . S
H271 C257 0.950 . S
H272 C258 0.950 . S
H273 C259 0.950 . S
H274 C261 0.950 . S
H275 C262 0.951 . S
C276 C277 1.386 . S
C276 C278 1.383 1_545 S
C276 H292 0.951 1_545 S
C277 C276 1.386 . S
C277 C281 1.383 . S
C278 C276 1.383 1_565 S
C278 C279 1.402 1_565 S
C278 H293 0.951 . S
C279 C278 1.402 1_545 S
C279 C280 1.375 . S
C279 C282 1.481 . S
C280 C279 1.375 . S
C280 C281 1.367 . S
C280 H294 0.951 . S
C281 C277 1.383 . S
C281 C280 1.367 . S
C281 H295 0.950 . S
C282 C279 1.481 . S
C282 C283 1.297 1_545 S
C282 H296 0.950 . S
C283 C282 1.297 1_565 S
C283 C284 1.479 . S
C283 H297 0.950 . S
C284 C283 1.479 . S
C284 C285 1.375 . S
C284 C290 1.404 . S
C285 C284 1.375 . S
C285 C286 1.369 . S
C285 H298 0.950 . S
C286 C285 1.369 . S
C286 C287 1.392 . S
C286 H299 0.951 . S
C287 C286 1.392 . S
C287 C289 1.384 . S
H288 C290 0.949 1_545 S
C289 C287 1.384 . S
C289 C290 1.385 . S
C289 H291 0.950 1_565 S
C290 C284 1.404 . S
C290 H288 0.949 1_565 S
C290 C289 1.385 . S
H291 C289 0.950 1_545 S
H292 C276 0.951 1_565 S
H293 C278 0.951 . S
H294 C280 0.951 . S
H295 C281 0.950 . S
H296 C282 0.950 . S
H297 C283 0.950 . S
H298 C285 0.950 . S
H299 C286 0.951 . S
C300 C301 1.386 . S
C300 C302 1.383 . S
C300 H316 0.951 . S
C301 C300 1.386 . S
C301 C305 1.383 . S
C302 C300 1.383 . S
C302 C303 1.402 . S
C302 H317 0.951 . S
C303 C302 1.402 . S
C303 C304 1.375 . S
C303 C306 1.481 . S
C304 C303 1.375 . S
C304 C305 1.367 . S
C304 H318 0.951 . S
C305 C301 1.383 . S
C305 C304 1.367 . S
C305 H319 0.950 . S
C306 C303 1.481 . S
C306 C307 1.297 . S
C306 H320 0.950 . S
C307 C306 1.297 . S
C307 C308 1.479 . S
C307 H321 0.950 . S
C308 C307 1.479 . S
C308 C309 1.375 . S
C308 C314 1.404 . S
C309 C308 1.375 . S
C309 C310 1.369 . S
C309 H322 0.950 . S
C310 C309 1.369 . S
C310 C311 1.392 . S
C310 H323 0.951 . S
C311 C310 1.392 . S
C311 C313 1.384 . S
H312 C314 0.949 . S
C313 C311 1.384 . S
C313 C314 1.385 . S
C313 H315 0.950 . S
C314 C308 1.404 . S
C314 H312 0.949 . S
C314 C313 1.385 . S
H315 C313 0.950 . S
H316 C300 0.951 . S
H317 C302 0.951 . S
H318 C304 0.951 . S
H319 C305 0.950 . S
H320 C306 0.950 . S
H321 C307 0.950 . S
H322 C309 0.950 . S
H323 C310 0.951 . S
C324 C325 1.386 . S
C324 C326 1.383 . S
C324 H340 0.951 . S
C325 C324 1.386 . S
C325 C329 1.383 1_655 S
C326 C324 1.383 . S
C326 C327 1.402 . S
C326 H341 0.951 . S
C327 C326 1.402 . S
C327 C328 1.375 1_655 S
C327 C330 1.481 1_655 S
C328 C327 1.375 1_455 S
C328 C329 1.367 . S
C328 H342 0.951 . S
C329 C325 1.383 1_455 S
C329 C328 1.367 . S
C329 H343 0.949 1_556 S
C330 C327 1.481 1_455 S
C330 C331 1.297 1_455 S
C330 H344 0.950 . S
C331 C330 1.297 1_655 S
C331 C332 1.479 1_655 S
C331 H345 0.950 . S
C332 C331 1.479 1_455 S
C332 C333 1.375 1_455 S
C332 C338 1.404 . S
C333 C332 1.375 1_655 S
C333 C334 1.356 1_655 S
C333 H346 0.950 . S
C334 C333 1.356 1_455 S
C334 C335 1.408 . S
C334 H347 0.947 1_455 S
C335 C334 1.408 . S
C335 C337 1.384 . S
H336 C338 0.949 . S
C337 C335 1.384 . S
C337 C338 1.385 . S
C337 H339 0.950 . S
C338 C332 1.404 . S
C338 H336 0.949 . S
C338 C337 1.385 . S
H339 C337 0.950 . S
H340 C324 0.951 . S
H341 C326 0.951 . S
H342 C328 0.951 . S
H343 C329 0.949 1_554 S
H344 C330 0.950 . S
H345 C331 0.950 . S
H346 C333 0.950 . S
H347 C334 0.947 1_655 S
C348 C349 1.386 . S
C348 C350 1.383 . S
C348 H364 0.951 . S
C349 C348 1.386 . S
C349 C353 1.383 . S
C350 C348 1.383 . S
C350 C351 1.402 . S
C350 H365 0.951 . S
C351 C350 1.402 . S
C351 C352 1.375 . S
C351 C354 1.481 1_545 S
C352 C351 1.375 . S
C352 C353 1.367 . S
C352 H366 0.951 . S
C353 C349 1.383 . S
C353 C352 1.367 . S
C353 H367 0.950 . S
C354 C351 1.481 1_565 S
C354 C355 1.297 . S
C354 H368 0.950 . S
C355 C354 1.297 . S
C355 C356 1.479 . S
C355 H369 0.950 . S
C356 C355 1.479 . S
C356 C357 1.375 . S
C356 C362 1.404 . S
C357 C356 1.375 . S
C357 C358 1.369 . S
C357 H370 0.950 . S
C358 C357 1.369 . S
C358 C359 1.392 . S
C358 H371 0.951 . S
C359 C358 1.392 . S
C359 C361 1.384 . S
H360 C362 0.949 . S
C361 C359 1.384 . S
C361 C362 1.385 . S
C361 H363 0.950 . S
C362 C356 1.404 . S
C362 H360 0.949 . S
C362 C361 1.385 . S
H363 C361 0.950 . S
H364 C348 0.951 . S
H365 C350 0.951 . S
H366 C352 0.951 . S
H367 C353 0.950 . S
H368 C354 0.950 . S
H369 C355 0.950 . S
H370 C357 0.950 . S
H371 C358 0.951 . S
C85 C77 1.196 . S
C95 C3 1.221 . S
C109 C17 1.207 . S
C119 C7 1.189 . S
C133 C21 1.205 . S
C143 C31 1.154 . S
C157 C45 1.162 . S
C167 C35 1.206 . S
C181 C59 1.201 . S
C191 C49 1.192 . S
C205 C73 1.193 . S
C215 C63 1.191 . S
C229 C9 1.420 . S
C239 C51 1.414 . S
C253 C23 1.413 . S
C263 C65 1.401 . S
C277 C79 1.413 . S
C287 C37 1.398 . S
C301 C78 1.341 . S
C311 C36 1.382 . S
C325 C50 1.373 . S
C335 C8 1.348 . S
C349 C22 1.362 . S
C359 C64 1.306 . S
