# Generated by pormake.
# Topology xfu, (5)-cn, num edge types: 1
# Building blocks:
#     Node 0, Type 0, BuildingBlock: BEQFEK_clean_sbu_0, # of connection points: 5
#     Node 1, Type 0, BuildingBlock: BEQFEK_clean_sbu_0, # of connection points: 5
#     Node 2, Type 0, BuildingBlock: BEQFEK_clean_sbu_0, # of connection points: 5
#     Node 3, Type 0, BuildingBlock: BEQFEK_clean_sbu_0, # of connection points: 5
#     Node 4, Type 0, BuildingBlock: BEQFEK_clean_sbu_0, # of connection points: 5
#     Node 5, Type 0, BuildingBlock: BEQFEK_clean_sbu_0, # of connection points: 5
#     Node 6, Type 0, BuildingBlock: BEQFEK_clean_sbu_0, # of connection points: 5
#     Node 7, Type 0, BuildingBlock: BEQFEK_clean_sbu_0, # of connection points: 5
#     Edge 8, Type (0, 0), BuildingBlock: TEMPAE_clean_linker_10, # of connection points: 2
#     Edge 9, Type (0, 0), BuildingBlock: TEMPAE_clean_linker_10, # of connection points: 2
#     Edge 10, Type (0, 0), BuildingBlock: TEMPAE_clean_linker_10, # of connection points: 2
#     Edge 11, Type (0, 0), BuildingBlock: TEMPAE_clean_linker_10, # of connection points: 2
#     Edge 12, Type (0, 0), BuildingBlock: TEMPAE_clean_linker_10, # of connection points: 2
#     Edge 13, Type (0, 0), BuildingBlock: TEMPAE_clean_linker_10, # of connection points: 2
#     Edge 14, Type (0, 0), BuildingBlock: TEMPAE_clean_linker_10, # of connection points: 2
#     Edge 15, Type (0, 0), BuildingBlock: TEMPAE_clean_linker_10, # of connection points: 2
#     Edge 16, Type (0, 0), BuildingBlock: TEMPAE_clean_linker_10, # of connection points: 2
#     Edge 17, Type (0, 0), BuildingBlock: TEMPAE_clean_linker_10, # of connection points: 2
#     Edge 18, Type (0, 0), BuildingBlock: TEMPAE_clean_linker_10, # of connection points: 2
#     Edge 19, Type (0, 0), BuildingBlock: TEMPAE_clean_linker_10, # of connection points: 2
#     Edge 20, Type (0, 0), BuildingBlock: TEMPAE_clean_linker_10, # of connection points: 2
#     Edge 21, Type (0, 0), BuildingBlock: TEMPAE_clean_linker_10, # of connection points: 2
#     Edge 22, Type (0, 0), BuildingBlock: TEMPAE_clean_linker_10, # of connection points: 2
#     Edge 23, Type (0, 0), BuildingBlock: TEMPAE_clean_linker_10, # of connection points: 2
#     Edge 24, Type (0, 0), BuildingBlock: TEMPAE_clean_linker_10, # of connection points: 2
#     Edge 25, Type (0, 0), BuildingBlock: TEMPAE_clean_linker_10, # of connection points: 2
#     Edge 26, Type (0, 0), BuildingBlock: TEMPAE_clean_linker_10, # of connection points: 2
#     Edge 27, Type (0, 0), BuildingBlock: TEMPAE_clean_linker_10, # of connection points: 2
# Relax obj value: 0.266
# Max RMSD: 0.181
# Mean RMSD: 0.181
data_MOF--net-xfu--node1-BEQFEK_clean_sbu_0--edge1-TEMPAE_clean_linker_10
_symmetry_space_group_name_H-M    P1
_symmetry_Int_Tables_number       1
_symmetry_cell_setting            triclinic
loop_
_symmetry_equiv_pos_as_xyz
'x, y, z'
_cell_length_a     30.519505
_cell_length_b     30.507919
_cell_length_c     57.018219
_cell_angle_alpha  89.962369
_cell_angle_beta   90.046846
_cell_angle_gamma 89.957071
loop_
_atom_site_label
_atom_site_type_symbol
_atom_site_fract_x
_atom_site_fract_y
_atom_site_fract_z
_atom_type_partial_charge
Co0 Co 0.05734 0.26836 0.65549 0.0
Co1 Co 0.06999 0.18497 0.62461 0.0
C2 C 0.13899 0.25576 0.6281 0.0
O3 O 0.11536 0.27921 0.64155 0.0
O4 O 0.12538 0.21895 0.62043 0.0
C5 C 0.0451 0.35926 0.67071 0.0
O6 O 0.06015 0.37152 0.65014 0.0
C7 C 0.07798 0.13828 0.58015 0.0
C8 C 0.05702 0.07142 0.59004 0.0
C9 C 0.06936 0.097 0.5711 0.0
N10 N 0.07 0.13735 0.60329 0.0
N11 N 0.05816 0.09717 0.60918 0.0
C12 C 0.09435 0.17786 0.56728 0.0
H13 H 0.06728 0.20177 0.56507 0.0
H14 H 0.10768 0.16902 0.54982 0.0
H15 H 0.12038 0.1941 0.57765 0.0
C16 C 0.97641 0.27519 0.62755 0.0
N17 N 0.01496 0.25594 0.63246 0.0
N18 N 0.01927 0.22033 0.61965 0.0
C19 C 0.98301 0.21553 0.6063 0.0
C20 C 0.95512 0.25057 0.61061 0.0
C21 C 0.95794 0.31295 0.64114 0.0
H22 H 0.96271 0.30723 0.66017 0.0
H23 H 0.97569 0.34329 0.63621 0.0
H24 H 0.92248 0.31777 0.63777 0.0
O25 O 0.06287 0.21956 0.67794 0.0
O26 O 0.06977 0.1594 0.65655 0.0
H27 H 0.98032 0.14612 0.60068 0.0
H28 H 0.93973 0.17681 0.58431 0.0
C29 C 0.97392 0.17687 0.59088 0.0
H30 H 0.99597 0.17786 0.5755 0.0
H31 H 0.04954 0.08767 0.62614 0.0
O32 O 0.0409 0.31871 0.67518 0.0
C33 C 0.06735 0.17823 0.67641 0.0
Co34 Co 0.80757 0.54694 0.16348 0.0
Co35 Co 0.88675 0.55903 0.12948 0.0
C36 C 0.8162 0.62592 0.132 0.0
O37 O 0.79698 0.60396 0.14796 0.0
O38 O 0.85149 0.61218 0.12259 0.0
C39 C 0.71723 0.54323 0.17876 0.0
O40 O 0.70727 0.55635 0.15746 0.0
C41 C 0.93696 0.56502 0.08577 0.0
C42 C -0.00033 0.53442 0.09636 0.0
C43 C 0.97743 0.55167 0.07731 0.0
N44 N 0.93502 0.55499 0.10867 0.0
N45 N 0.97281 0.53738 0.11498 0.0
C46 C 0.90101 0.58792 0.0727 0.0
H47 H 0.89048 0.61716 0.08273 0.0
H48 H 0.87228 0.56586 0.07113 0.0
H49 H 0.9117 0.59865 0.05503 0.0
C50 C 0.79837 0.46439 0.13737 0.0
N51 N 0.81811 0.50302 0.14128 0.0
N52 N 0.85167 0.50736 0.12698 0.0
C53 C 0.85421 0.47127 0.11336 0.0
C54 C 0.82031 0.44315 0.11939 0.0
C55 C 0.7621 0.44657 0.15227 0.0
H56 H 0.76826 0.45459 0.17094 0.0
H57 H 0.7308 0.46223 0.14696 0.0
H58 H 0.75889 0.41052 0.15047 0.0
O59 O 0.85735 0.55174 0.18512 0.0
O60 O 0.91287 0.56569 0.16119 0.0
H61 H 0.92135 0.46419 0.10328 0.0
H62 H 0.88371 0.43199 0.08584 0.0
C63 C 0.88845 0.46366 0.09503 0.0
H64 H 0.88688 0.49023 0.08185 0.0
H65 H 0.97975 0.5261 0.13187 0.0
O66 O 0.75691 0.53489 0.18378 0.0
C67 C 0.8975 0.56039 0.1817 0.0
Co68 Co 0.53647 0.30958 0.66601 0.0
Co69 Co 0.52969 0.39218 0.6339 0.0
C70 C 0.45869 0.32394 0.63508 0.0
O71 O 0.47984 0.30082 0.64988 0.0
O72 O 0.47419 0.35995 0.62731 0.0
C73 C 0.54368 0.21854 0.6822 0.0
O74 O 0.53179 0.20613 0.66107 0.0
C75 C 0.526 0.44081 0.58989 0.0
C76 C 0.55191 0.5055 0.60051 0.0
C77 C 0.53703 0.48193 0.58133 0.0
N78 N 0.5342 0.44019 0.613 0.0
N79 N 0.54915 0.47906 0.61933 0.0
C80 C 0.512 0.40131 0.57625 0.0
H81 H 0.5203 0.37089 0.58598 0.0
H82 H 0.52787 0.40083 0.55874 0.0
H83 H 0.47595 0.40237 0.57374 0.0
C84 C 0.62019 0.2996 0.6408 0.0
N85 N 0.58192 0.32025 0.64454 0.0
N86 N 0.57946 0.35492 0.63084 0.0
C87 C 0.61628 0.3572 0.6178 0.0
C88 C 0.64292 0.32207 0.62361 0.0
C89 C 0.63528 0.26 0.65405 0.0
H90 H 0.61405 0.23186 0.64941 0.0
H91 H 0.66968 0.25129 0.64985 0.0
H92 H 0.63215 0.26599 0.67317 0.0
O93 O 0.53011 0.35869 0.688 0.0
O94 O 0.52622 0.41797 0.66574 0.0
H95 H 0.6622 0.39225 0.59574 0.0
H96 H 0.60606 0.39274 0.58599 0.0
C97 C 0.6276 0.39413 0.60162 0.0
H98 H 0.62211 0.42586 0.61061 0.0
H99 H 0.55862 0.48712 0.63638 0.0
O100 O 0.54851 0.25906 0.68654 0.0
C101 C 0.5264 0.39998 0.68586 0.0
Co102 Co 0.76492 0.01886 0.16454 0.0
Co103 Co 0.67962 0.01791 0.13433 0.0
C104 C 0.74273 0.94274 0.13377 0.0
O105 O 0.76766 0.96263 0.14812 0.0
O106 O 0.70707 0.96005 0.12664 0.0
C107 C 0.85672 0.01192 0.17644 0.0
O108 O 0.8621 -0.00275 0.15498 0.0
C109 C 0.62676 0.01787 0.09172 0.0
C110 C 0.56635 0.05136 0.10346 0.0
C111 C 0.58647 0.03315 0.084 0.0
N112 N 0.6303 0.02675 0.11468 0.0
N113 N 0.59391 0.04623 0.12169 0.0
C114 C 0.66321 -0.0007 0.07726 0.0
H115 H 0.69528 0.00567 0.08578 0.0
H116 H 0.663 0.0136 0.05935 0.0
H117 H 0.65877 0.96332 0.07576 0.0
C118 C 0.7783 0.10203 0.1397 0.0
N119 N 0.75585 0.06485 0.14338 0.0
N120 N 0.72008 0.06501 0.13047 0.0
C121 C 0.71875 0.10268 0.11807 0.0
C122 C 0.75566 0.12715 0.1235 0.0
C123 C 0.81936 0.11412 0.15252 0.0
H124 H 0.81307 0.11368 0.17169 0.0
H125 H 0.84498 0.08935 0.14874 0.0
H126 H 0.8317 0.14686 0.14724 0.0
O127 O 0.71777 0.01622 0.18791 0.0
O128 O 0.6567 0.01601 0.1669 0.0
H129 H 0.65021 0.11529 0.11394 0.0
H130 H 0.68489 0.15132 0.09701 0.0
C131 C 0.6807 0.11725 0.10344 0.0
H132 H 0.67734 0.09514 0.08814 0.0
H133 H 0.58847 0.05726 0.13876 0.0
O134 O 0.81914 0.02517 0.18287 0.0
C135 C 0.67621 0.0152 0.18663 0.0
Co136 Co 0.01149 0.79467 0.33534 0.0
Co137 Co 0.01184 0.88517 0.36121 0.0
C138 C 0.9354 0.82492 0.36445 0.0
O139 O 0.95475 0.79778 0.35111 0.0
O140 O 0.95358 0.86078 0.37046 0.0
C141 C 0.99125 0.70513 0.32589 0.0
O142 O 0.96325 0.7104 0.34313 0.0
C143 C 0.01572 0.94372 0.40125 0.0
C144 C 0.04449 0.00375 0.38593 0.0
C145 C 0.03027 0.9855 0.40685 0.0
N146 N 0.02126 0.93762 0.37817 0.0
N147 N 0.03786 0.97376 0.369 0.0
C148 C 0.0013 0.90825 0.41768 0.0
H149 H 0.006 0.87555 0.40953 0.0
H150 H 0.01982 0.90995 0.43441 0.0
H151 H 0.96594 0.9125 0.42156 0.0
C152 C 0.09366 0.78417 0.36111 0.0
N153 N 0.05678 0.80651 0.35648 0.0
N154 N 0.05798 0.84465 0.36723 0.0
C155 C 0.0963 0.84787 0.37891 0.0
C156 C 0.11981 0.8095 0.37554 0.0
C157 C 0.10548 0.74154 0.34978 0.0
H158 H 0.10807 0.74634 0.33054 0.0
H159 H 0.07906 0.71735 0.35303 0.0
H160 H 0.13693 0.72843 0.35663 0.0
O161 O 0.01112 0.83728 0.3094 0.0
O162 O 0.01082 0.90156 0.32758 0.0
H163 H 0.1082 0.91708 0.37817 0.0
H164 H 0.14812 0.88627 0.39486 0.0
C165 C 0.1129 0.88892 0.3902 0.0
H166 H 0.09407 0.8952 0.40646 0.0
H167 H 0.04602 0.9774 0.35133 0.0
O168 O 0.01725 0.73614 0.32068 0.0
C169 C 0.01063 0.87896 0.30883 0.0
Co170 Co 0.2554 0.51386 0.82487 0.0
Co171 Co 0.17769 0.51065 0.86021 0.0
C172 C 0.24513 0.44123 0.86061 0.0
O173 O 0.26562 0.461 0.84427 0.0
O174 O 0.20934 0.45631 0.86879 0.0
C175 C 0.34636 0.52458 0.81044 0.0
O176 O 0.35637 0.52627 0.83284 0.0
C177 C 0.12493 0.51036 0.90348 0.0
C178 C 0.06973 0.55282 0.89261 0.0
C179 C 0.08667 0.52992 0.91154 0.0
N180 N 0.13029 0.52157 0.88087 0.0
N181 N 0.09691 0.5464 0.87441 0.0
C182 C 0.15825 0.48547 0.91748 0.0
H183 H 0.19103 0.4878 0.90923 0.0
H184 H 0.16007 0.49817 0.93569 0.0
H185 H 0.14867 0.45041 0.91814 0.0
C186 C 0.26278 0.60311 0.84369 0.0
N187 N 0.24457 0.56315 0.84341 0.0
N188 N 0.21631 0.55971 0.86061 0.0
C189 C 0.21846 0.59617 0.87388 0.0
C190 C 0.24766 0.62563 0.86345 0.0
C191 C 0.28916 0.6204 0.82354 0.0
H192 H 0.2809 0.60239 0.80724 0.0
H193 H 0.32456 0.61562 0.82718 0.0
H194 H 0.28264 0.65578 0.82065 0.0
O195 O 0.20636 0.50277 0.80431 0.0
O196 O 0.14966 0.50247 0.82858 0.0
H197 H 0.16246 0.61297 0.89461 0.0
H198 H 0.2146 0.6224 0.90907 0.0
C199 C 0.19623 0.6003 0.89716 0.0
H200 H 0.19426 0.56783 0.90567 0.0
H201 H 0.09347 0.56015 0.85775 0.0
O202 O 0.30651 0.52118 0.8043 0.0
C203 C 0.16556 0.49923 0.808 0.0
Co204 Co 0.54739 0.76744 0.33224 0.0
Co205 Co 0.55491 0.68432 0.36403 0.0
C206 C 0.62072 0.75721 0.36641 0.0
O207 O 0.60004 0.77898 0.35091 0.0
O208 O 0.60736 0.71963 0.37311 0.0
C209 C 0.54227 0.8588 0.31783 0.0
O210 O 0.55147 0.86881 0.3397 0.0
C211 C 0.55784 0.63352 0.40742 0.0
C212 C 0.53327 0.56892 0.39571 0.0
C213 C 0.54707 0.5919 0.41529 0.0
N214 N 0.54995 0.63527 0.38429 0.0
N215 N 0.53572 0.59649 0.37732 0.0
C216 C 0.57725 0.67065 0.42109 0.0
H217 H 0.55798 0.70096 0.418 0.0
H218 H 0.57914 0.66352 0.44012 0.0
H219 H 0.61091 0.67683 0.41459 0.0
C220 C 0.46102 0.77292 0.35507 0.0
N221 N 0.50011 0.75358 0.3519 0.0
N222 N 0.50304 0.71888 0.36555 0.0
C223 C 0.46561 0.71508 0.37794 0.0
C224 C 0.43803 0.74939 0.37182 0.0
C225 C 0.44495 0.81108 0.34095 0.0
H226 H 0.45511 0.80727 0.3224 0.0
H227 H 0.45989 0.84158 0.34788 0.0
H228 H 0.40876 0.81418 0.34169 0.0
O229 O 0.55968 0.71967 0.3101 0.0
O230 O 0.56313 0.65986 0.33209 0.0
H231 H 0.45951 0.64722 0.38692 0.0
H232 H 0.42374 0.68295 0.40351 0.0
C233 C 0.45667 0.67969 0.3955 0.0
H234 H 0.48129 0.68147 0.40972 0.0
H235 H 0.5269 0.5891 0.36009 0.0
O236 O 0.53677 0.81891 0.31221 0.0
C237 C 0.5648 0.67852 0.31217 0.0
Co238 Co 0.31516 0.05442 0.82659 0.0
Co239 Co 0.38972 0.05642 0.86402 0.0
C240 C 0.32402 0.12751 0.86211 0.0
O241 O 0.30483 0.1081 0.8452 0.0
O242 O 0.35837 0.11151 0.87153 0.0
C243 C 0.22542 0.04879 0.8092 0.0
O244 O 0.21274 0.05049 0.8312 0.0
C245 C 0.4379 0.05852 0.90865 0.0
C246 C 0.49461 0.01602 0.90043 0.0
C247 C 0.47552 0.04029 0.91818 0.0
N248 N 0.43461 0.04514 0.88629 0.0
N249 N 0.46873 0.02003 0.88143 0.0
C250 C 0.40666 0.08988 0.91999 0.0
H251 H 0.4091 0.122 0.91097 0.0
H252 H 0.37255 0.07806 0.91776 0.0
H253 H 0.41394 0.09477 0.93886 0.0
C254 C 0.30256 0.96652 0.84615 0.0
N255 N 0.32255 0.00559 0.84591 0.0
N256 N 0.34976 0.00834 0.86365 0.0
C257 C 0.34518 0.97235 0.87714 0.0
C258 C 0.31534 0.94394 0.86638 0.0
C259 C 0.2767 0.94988 0.82564 0.0
H260 H 0.28703 0.96683 0.80934 0.0
H261 H 0.24139 0.95665 0.82848 0.0
H262 H 0.28157 0.91413 0.8232 0.0
O263 O 0.3665 0.06294 0.80742 0.0
O264 O 0.42093 0.0636 0.83312 0.0
H265 H 0.39931 0.95348 0.8988 0.0
H266 H 0.34613 0.94655 0.91248 0.0
C267 C 0.36604 0.96768 0.90078 0.0
H268 H 0.36913 0.00021 0.90915 0.0
H269 H 0.47402 0.00515 0.8652 0.0
O270 O 0.26606 0.04829 0.80446 0.0
C271 C 0.40699 0.06608 0.81208 0.0
C272 C 0.07342 0.02884 0.43565 0.0
C273 C 0.03546 0.00506 0.43031 0.0
C274 C 0.0803 0.04557 0.45823 0.0
C275 C 0.04819 0.03861 0.47572 0.0
C276 C 0.00917 0.01577 0.4702 0.0
C277 C 0.00323 -0.00067 0.44749 0.0
C278 C 0.12226 0.06985 0.46351 0.0
C279 C 0.97398 0.00821 0.48837 0.0
C280 C 0.08098 0.04158 0.53979 0.0
C281 C 0.06682 0.08343 0.54636 0.0
C282 C 0.07592 0.02687 0.51666 0.0
C283 C 0.05567 0.05457 0.49992 0.0
C284 C 0.04143 0.09695 0.50648 0.0
C285 C 0.04702 0.11082 0.52971 0.0
C286 C 0.09156 0.98147 0.51024 0.0
C287 C 0.0193 0.12719 0.48915 0.0
H288 H 0.09833 0.03334 0.42231 0.0
H289 H 0.97328 0.98211 0.44316 0.0
H290 H 0.11476 0.10293 0.47052 0.0
H291 H 0.14102 0.05208 0.47723 0.0
H292 H 0.14336 0.0735 0.44776 0.0
H293 H 0.94514 0.99068 0.48106 0.0
H294 H 0.98744 0.98866 0.50313 0.0
H295 H 0.96285 0.03999 0.4957 0.0
H296 H 0.09586 0.0203 0.55279 0.0
H297 H 0.03456 0.14258 0.53498 0.0
H298 H 0.11482 0.98328 0.49532 0.0
H299 H 0.06338 0.9612 0.50447 0.0
H300 H 0.108 0.96466 0.52513 0.0
H301 H 0.04043 0.13192 0.47353 0.0
H302 H 0.01184 0.1598 0.49684 0.0
H303 H 0.98823 0.11225 0.48298 0.0
C304 C 0.0364 0.55908 0.04754 0.0
C305 C 0.99265 0.54968 0.05285 0.0
C306 C 0.052 0.55538 0.02451 0.0
C307 C 0.0231 0.54158 0.00655 0.0
C308 C 0.97899 0.53152 0.01191 0.0
C309 C 0.96436 0.5354 0.03508 0.0
C310 C 0.09931 0.5662 0.0194 0.0
C311 C 0.94733 0.51647 0.9932 0.0
C312 C 0.05129 0.5712 0.94393 0.0
C313 C 0.06968 0.53201 0.93572 0.0
C314 C 0.03593 0.57473 0.96697 0.0
C315 C 0.0389 0.53807 0.98208 0.0
C316 C 0.05676 0.49816 0.97379 0.0
C317 C 0.07172 0.49552 0.9506 0.0
C318 C 0.01685 0.61775 0.9752 0.0
C319 C 0.06015 0.45833 0.98944 0.0
H320 H 0.05836 0.56949 0.06142 0.0
H321 H 0.93099 0.52633 0.03937 0.0
H322 H 0.11592 0.53735 0.01157 0.0
H323 H 0.10114 0.5932 0.00639 0.0
H324 H 0.11754 0.57618 0.0354 0.0
H325 H 0.91401 0.51026 0.00029 0.0
H326 H 0.94488 0.54158 0.97918 0.0
H327 H 0.95956 0.48591 0.98494 0.0
H328 H 0.04962 0.59946 0.93242 0.0
H329 H 0.08461 0.46479 0.94407 0.0
H330 H 0.03612 0.63045 0.99024 0.0
H331 H 0.98279 0.61276 0.98144 0.0
H332 H 0.01654 0.64298 0.96115 0.0
H333 H 0.08017 0.46614 0.00514 0.0
H334 H 0.07516 0.42988 0.98032 0.0
H335 H 0.02713 0.44874 0.99572 0.0
C336 C 0.57238 0.52342 0.54899 0.0
C337 C 0.53763 0.49728 0.55681 0.0
C338 C 0.57405 0.53831 0.52578 0.0
C339 C 0.53983 0.52715 0.51014 0.0
C340 C 0.50436 0.50114 0.518 0.0
C341 C 0.50367 0.48652 0.54132 0.0
C342 C 0.61245 0.5659 0.51797 0.0
C343 C 0.46704 0.48908 0.50185 0.0
C344 C 0.52483 0.60014 0.457 0.0
C345 C 0.54566 0.57556 0.43954 0.0
C346 C 0.52235 0.58457 0.48006 0.0
C347 C 0.54095 0.54335 0.48564 0.0
C348 C 0.56133 0.51804 0.46793 0.0
C349 C 0.56313 0.53438 0.44496 0.0
C350 C 0.49989 0.61221 0.49845 0.0
C351 C 0.58156 0.47397 0.47329 0.0
H352 H 0.59867 0.53175 0.56099 0.0
H353 H 0.47616 0.46735 0.54752 0.0
H354 H 0.62929 0.54988 0.50301 0.0
H355 H 0.60071 0.59832 0.51176 0.0
H356 H 0.63665 0.57116 0.53226 0.0
H357 H 0.44222 0.46813 0.51064 0.0
H358 H 0.45066 0.51924 0.49538 0.0
H359 H 0.47977 0.47137 0.4863 0.0
H360 H 0.50995 0.63133 0.45251 0.0
H361 H 0.57868 0.51525 0.43127 0.0
H362 H 0.52339 0.6205 0.51262 0.0
H363 H 0.47272 0.59347 0.50658 0.0
H364 H 0.48646 0.64316 0.4911 0.0
H365 H 0.60786 0.47781 0.48657 0.0
H366 H 0.5957 0.45822 0.45745 0.0
H367 H 0.55656 0.45173 0.48088 0.0
C368 C 0.46247 0.03032 0.96087 0.0
C369 C 0.49086 0.04172 0.9426 0.0
C370 C 0.47735 0.02888 0.98411 0.0
C371 C 0.52158 0.03936 0.98906 0.0
C372 C 0.5503 0.05113 0.97061 0.0
C373 C 0.53465 0.05163 0.94749 0.0
C374 C 0.44601 0.01541 0.00328 0.0
C375 C 0.59753 0.06299 0.9753 0.0
C376 C 0.54993 0.07261 0.05125 0.0
C377 C 0.5695 0.0343 0.05983 0.0
C378 C 0.53448 0.07485 0.02814 0.0
C379 C 0.53792 0.03754 0.01353 0.0
C380 C 0.55694 -0.00154 0.02229 0.0
C381 C 0.57276 -0.0026 0.04537 0.0
C382 C 0.51492 0.11723 0.01927 0.0
C383 C 0.56038 0.95778 0.00733 0.0
H384 H 0.42887 0.02146 0.95687 0.0
H385 H 0.55655 0.06002 0.93321 0.0
H386 H 0.45852 0.98566 0.01227 0.0
H387 H 0.44361 0.0417 0.01665 0.0
H388 H 0.41263 0.00843 0.99645 0.0
H389 H 0.61516 0.07269 0.95907 0.0
H390 H 0.59923 0.09046 0.98801 0.0
H391 H 0.61485 0.03471 0.98331 0.0
H392 H 0.54756 0.10116 0.0625 0.0
H393 H 0.5871 0.96752 0.05223 0.0
H394 H 0.48063 0.11176 0.01352 0.0
H395 H 0.53352 0.12895 0.00377 0.0
H396 H 0.51513 0.14338 0.03282 0.0
H397 H 0.52736 0.94782 0.00118 0.0
H398 H 0.57541 0.92987 0.01694 0.0
H399 H 0.5804 0.96468 0.99153 0.0
C400 C 0.20924 0.06273 0.76709 0.0
C401 C 0.19366 0.05488 0.78984 0.0
C402 C 0.18106 0.07659 0.74922 0.0
C403 C 0.13585 0.08167 0.75403 0.0
C404 C 0.1192 0.06991 0.77633 0.0
C405 C 0.14845 0.05714 0.79414 0.0
C406 C 0.20038 0.08912 0.72575 0.0
C407 C 0.07096 0.07323 0.78182 0.0
C408 C 0.08941 0.17468 0.71838 0.0
C409 C 0.07568 0.15277 0.69805 0.0
C410 C 0.10613 0.15151 0.73759 0.0
C411 C 0.1081 0.10518 0.7367 0.0
C412 C 0.09007 0.08268 0.71725 0.0
C413 C 0.07466 0.10679 0.69792 0.0
C414 C 0.12546 0.17692 0.75785 0.0
C415 C 0.0898 0.03328 0.71615 0.0
H416 H 0.24405 0.06059 0.76348 0.0
H417 H 0.13606 0.05047 0.81159 0.0
H418 H 0.18286 0.07214 0.71135 0.0
H419 H 0.19644 0.12491 0.72291 0.0
H420 H 0.23579 0.08096 0.72449 0.0
H421 H 0.0621 0.0533 0.79742 0.0
H422 H 0.06242 0.10787 0.78553 0.0
H423 H 0.05086 0.06237 0.76667 0.0
H424 H 0.09006 0.21021 0.71871 0.0
H425 H 0.06335 0.08963 0.68242 0.0
H426 H 0.16159 0.17271 0.75798 0.0
H427 H 0.11284 0.16429 0.77477 0.0
H428 H 0.11803 0.21253 0.75675 0.0
H429 H 0.12283 0.02135 0.71114 0.0
H430 H 0.06592 0.02106 0.70297 0.0
H431 H 0.0817 0.01897 0.73351 0.0
C432 C 0.94103 0.65991 0.30207 0.0
C433 C 0.98402 0.67027 0.30855 0.0
C434 C 0.93261 0.63516 0.28192 0.0
C435 C 0.96818 0.61885 0.26855 0.0
C436 C 0.01168 0.62557 0.2764 0.0
C437 C 0.01918 0.65231 0.29604 0.0
C438 C 0.8857 0.62988 0.27386 0.0
C439 C 0.05032 0.60665 0.26338 0.0
C440 C 0.92708 0.54251 0.22123 0.0
C441 C 0.92454 0.57123 0.20213 0.0
C442 C 0.94567 0.55619 0.24252 0.0
C443 C 0.95948 0.60025 0.24496 0.0
C444 C 0.95884 0.62862 0.22526 0.0
C445 C 0.94217 0.61335 0.20389 0.0
C446 C 0.94803 0.52432 0.26273 0.0
C447 C 0.97194 0.67623 0.22724 0.0
H448 H 0.91386 0.67421 0.31165 0.0
H449 H 0.05245 0.66022 0.3012 0.0
H450 H 0.8811 0.64686 0.25681 0.0
H451 H 0.87794 0.59479 0.2711 0.0
H452 H 0.86187 0.64357 0.28663 0.0
H453 H 0.08021 0.60592 0.27451 0.0
H454 H 0.04313 0.57289 0.25725 0.0
H455 H 0.05738 0.627 0.24771 0.0
H456 H 0.91342 0.50983 0.2197 0.0
H457 H 0.93959 0.63554 0.18907 0.0
H458 H 0.9201 0.53004 0.27477 0.0
H459 H 0.9787 0.52896 0.27291 0.0
H460 H 0.94641 0.48981 0.25658 0.0
H461 H 0.94925 0.69337 0.23938 0.0
H462 H 0.97117 0.69334 0.21003 0.0
H463 H 0.00539 0.67914 0.23464 0.0
C464 C 0.3689 0.50797 0.76952 0.0
C465 C 0.38086 0.51971 0.79242 0.0
C466 C 0.40043 0.49555 0.75306 0.0
C467 C 0.44526 0.49593 0.75943 0.0
C468 C 0.45792 0.51159 0.7818 0.0
C469 C 0.42543 0.52279 0.79822 0.0
C470 C 0.38532 0.47878 0.72944 0.0
C471 C 0.50547 0.51418 0.78889 0.0
C472 C 0.50338 0.40507 0.72764 0.0
C473 C 0.51594 0.42636 0.7069 0.0
C474 C 0.48363 0.42824 0.74597 0.0
C475 C 0.47725 0.47401 0.74373 0.0
C476 C 0.49454 0.49643 0.72407 0.0
C477 C 0.51322 0.47223 0.70567 0.0
C478 C 0.46553 0.40292 0.76659 0.0
C479 C 0.49019 0.54548 0.72161 0.0
H480 H 0.33457 0.50599 0.76475 0.0
H481 H 0.43496 0.53251 0.81578 0.0
H482 H 0.40236 0.49643 0.71511 0.0
H483 H 0.39362 0.44348 0.72778 0.0
H484 H 0.34943 0.4826 0.72689 0.0
H485 H 0.51036 0.53742 0.80366 0.0
H486 H 0.51683 0.48136 0.79468 0.0
H487 H 0.5263 0.52452 0.77394 0.0
H488 H 0.50587 0.3697 0.72892 0.0
H489 H 0.52371 0.48907 0.68989 0.0
H490 H 0.42918 0.40298 0.76575 0.0
H491 H 0.47517 0.41862 0.78333 0.0
H492 H 0.47696 0.36834 0.7668 0.0
H493 H 0.45672 0.55366 0.71539 0.0
H494 H 0.51405 0.55882 0.70875 0.0
H495 H 0.49517 0.562 0.73874 0.0
C496 C 0.55401 0.93614 0.3041 0.0
C497 C 0.54779 0.89162 0.29895 0.0
C498 C 0.56756 0.96564 0.28659 0.0
C499 C 0.57632 0.94976 0.26374 0.0
C500 C 0.56692 0.90558 0.25811 0.0
C501 C 0.55211 0.87729 0.27569 0.0
C502 C 0.57519 0.01299 0.29297 0.0
C503 C 0.57627 0.88701 0.23405 0.0
C504 C 0.60506 0.01248 0.20863 0.0
C505 C 0.65074 0.00729 0.20828 0.0
C506 C 0.58027 -0.00211 0.22787 0.0
C507 C 0.60165 0.97643 0.2467 0.0
C508 C 0.64798 0.97406 0.24714 0.0
C509 C 0.67195 0.99007 0.22807 0.0
C510 C 0.5311 0.00291 0.22731 0.0
C511 C 0.67219 0.95102 0.26674 0.0
H512 H 0.55003 0.94762 0.32196 0.0
H513 H 0.54694 0.84305 0.27144 0.0
H514 H 0.61047 0.01813 0.29675 0.0
H515 H 0.56599 0.03506 0.27829 0.0
H516 H 0.55629 0.02248 0.30882 0.0
H517 H 0.56475 0.85265 0.23219 0.0
H518 H 0.56029 0.90716 0.22031 0.0
H519 H 0.6121 0.88775 0.23071 0.0
H520 H 0.58851 0.02651 0.19356 0.0
H521 H 0.70726 0.98621 0.22804 0.0
H522 H 0.51817 0.01071 0.24501 0.0
H523 H 0.51597 0.97165 0.22158 0.0
H524 H 0.52077 0.02902 0.21489 0.0
H525 H 0.66175 0.96399 0.28401 0.0
H526 H 0.70829 0.95473 0.26525 0.0
H527 H 0.66424 0.91552 0.26641 0.0
C528 C 0.0143 0.94569 0.28332 0.0
C529 C 0.00372 0.90127 0.28615 0.0
C530 C 0.00067 0.96886 0.26332 0.0
C531 C 0.9745 0.9474 0.24635 0.0
C532 C 0.96648 0.90183 0.24836 0.0
C533 C 0.98181 0.8792 0.26808 0.0
C534 C 0.01177 0.01688 0.26117 0.0
C535 C 0.93817 0.87772 0.23085 0.0
C536 C 0.879 0.00542 0.21823 0.0
C537 C 0.89076 0.00441 0.19446 0.0
C538 C 0.90728 0.98935 0.23551 0.0
C539 C 0.94899 0.97317 0.22897 0.0
C540 C 0.96286 0.97628 0.20534 0.0
C541 C 0.93322 0.99124 0.18823 0.0
C542 C 0.89085 0.9862 0.26047 0.0
C543 C 0.00786 0.96133 0.19788 0.0
H544 H 0.03193 0.9627 0.2971 0.0
H545 H 0.97364 0.84483 0.27015 0.0
H546 H 0.01883 0.02574 0.24267 0.0
H547 H 0.98345 0.03685 0.26703 0.0
H548 H 0.04048 0.02569 0.27219 0.0
H549 H 0.93772 0.84179 0.23405 0.0
H550 H 0.90404 0.89016 0.23192 0.0
H551 H 0.94994 0.88364 0.21274 0.0
H552 H 0.8464 0.0159 0.22326 0.0
H553 H 0.94278 0.99105 0.16992 0.0
H554 H 0.91444 0.00168 0.2727 0.0
H555 H 0.88781 0.95121 0.26557 0.0
H556 H 0.85842 0.00218 0.2628 0.0
H557 H 0.03281 0.96981 0.2113 0.0
H558 H 0.01754 0.97616 0.18085 0.0
H559 H 0.00796 0.92519 0.19578 0.0
C560 C 0.09365 0.5 0.78642 0.0
C561 C 0.13753 0.48675 0.78806 0.0
C562 C 0.06776 0.48728 0.76712 0.0
C563 C 0.08617 0.45989 0.74964 0.0
C564 C 0.13049 0.44649 0.75142 0.0
C565 C 0.15563 0.46056 0.7704 0.0
C566 C 0.02122 0.50362 0.76528 0.0
C567 C 0.15135 0.4163 0.73356 0.0
C568 C 0.03071 0.37554 0.71277 0.0
C569 C 0.04167 0.39083 0.69031 0.0
C570 C 0.03981 0.40061 0.73272 0.0
C571 C 0.05954 0.44224 0.73003 0.0
C572 C 0.06403 0.46055 0.70733 0.0
C573 C 0.05547 0.43436 0.68761 0.0
C574 C 0.03411 0.37981 0.75657 0.0
C575 C 0.08288 0.50575 0.70383 0.0
H576 H 0.07986 0.52071 0.79998 0.0
H577 H 0.18946 0.44992 0.77176 0.0
H578 H 0.01899 0.52775 0.75075 0.0
H579 H -0.00155 0.47644 0.76104 0.0
H580 H 0.01011 0.51975 0.7817 0.0
H581 H 0.18586 0.40812 0.73799 0.0
H582 H 0.13252 0.38527 0.73236 0.0
H583 H 0.15087 0.43185 0.71598 0.0
H584 H 0.01869 0.34236 0.71501 0.0
H585 H 0.06282 0.44693 0.67027 0.0
H586 H 0.02198 0.40396 0.76955 0.0
H587 H 0.06635 0.36763 0.76284 0.0
H588 H 0.01104 0.35168 0.756 0.0
H589 H 0.07109 0.52858 0.71759 0.0
H590 H 0.07419 0.51923 0.68632 0.0
H591 H 0.11913 0.5041 0.70508 0.0
C592 C 0.59977 0.67331 0.27299 0.0
C593 C 0.57684 0.65283 0.29122 0.0
C594 C 0.61619 0.64907 0.25413 0.0
C595 C 0.6083 0.60337 0.25309 0.0
C596 C 0.58266 0.58294 0.27065 0.0
C597 C 0.56792 0.60782 0.28983 0.0
C598 C 0.64418 0.67207 0.23604 0.0
C599 C 0.57215 0.53466 0.26966 0.0
C600 C 0.64179 0.56025 0.19363 0.0
C601 C 0.68531 0.54801 0.19812 0.0
C602 C 0.61432 0.57423 0.21192 0.0
C603 C 0.63128 0.57701 0.23499 0.0
C604 C 0.67385 0.56102 0.23987 0.0
C605 C 0.70009 0.54613 0.22141 0.0
C606 C 0.56839 0.58918 0.20625 0.0
C607 C 0.69347 0.56377 0.26417 0.0
H608 H 0.60687 0.70807 0.27405 0.0
H609 H 0.54974 0.59202 0.30381 0.0
H610 H 0.67786 0.65833 0.23638 0.0
H611 H 0.63078 0.66658 0.21821 0.0
H612 H 0.64625 0.70797 0.23914 0.0
H613 H 0.54459 0.52601 0.28151 0.0
H614 H 0.56361 0.52461 0.25152 0.0
H615 H 0.60129 0.51544 0.2751 0.0
H616 H 0.62984 0.56105 0.17572 0.0
H617 H 0.73347 0.53613 0.22514 0.0
H618 H 0.56752 0.6255 0.20538 0.0
H619 H 0.54514 0.57875 0.22013 0.0
H620 H 0.55703 0.57611 0.18911 0.0
H621 H 0.69904 0.59867 0.26877 0.0
H622 H 0.72523 0.54611 0.26546 0.0
H623 H 0.6707 0.54996 0.27737 0.0
C624 C 0.48246 0.07203 0.79445 0.0
C625 C 0.43695 0.0775 0.79266 0.0
C626 C 0.51038 0.08651 0.77639 0.0
C627 C 0.49225 0.10839 0.7567 0.0
C628 C 0.44621 0.11255 0.75456 0.0
C629 C 0.41928 0.09647 0.77234 0.0
C630 C 0.5591 0.07973 0.77897 0.0
C631 C 0.42522 0.13639 0.73415 0.0
C632 C 0.54229 0.20344 0.72507 0.0
C633 C 0.54299 0.18728 0.70203 0.0
C634 C 0.53042 0.17646 0.74385 0.0
C635 C 0.5202 0.13197 0.73955 0.0
C636 C 0.52712 0.11408 0.71695 0.0
C637 C 0.53771 0.14218 0.69826 0.0
C638 C 0.52372 0.19692 0.7677 0.0
C639 C 0.51943 0.06612 0.71211 0.0
H640 H 0.49629 0.05689 0.81 0.0
H641 H 0.38414 0.10087 0.77078 0.0
H642 H 0.57571 0.07763 0.7617 0.0
H643 H 0.57334 0.10764 0.78882 0.0
H644 H 0.5662 0.04939 0.78908 0.0
H645 H 0.38888 0.13683 0.73527 0.0
H646 H 0.43698 0.1708 0.73357 0.0
H647 H 0.43458 0.12061 0.71738 0.0
H648 H 0.54734 0.2381 0.72827 0.0
H649 H 0.5395 0.12919 0.6806 0.0
H650 H 0.53948 0.17673 0.78149 0.0
H651 H 0.48813 0.19841 0.77165 0.0
H652 H 0.53722 0.23068 0.76868 0.0
H653 H 0.53094 0.04572 0.72703 0.0
H654 H 0.53638 0.05539 0.69586 0.0
H655 H 0.48382 0.06015 0.70986 0.0
C656 C 0.89623 0.29631 0.59328 0.0
C657 C 0.90936 0.25641 0.60313 0.0
C658 C 0.85173 0.30713 0.5916 0.0
C659 C 0.82006 0.27715 0.60001 0.0
C660 C 0.8332 0.23509 0.60787 0.0
C661 C 0.87793 0.22532 0.60951 0.0
C662 C 0.83902 0.35222 0.58306 0.0
C663 C 0.80034 0.20207 0.61677 0.0
C664 C 0.72197 0.32123 0.63265 0.0
C665 C 0.6884 0.31444 0.61643 0.0
C666 C 0.76527 0.31057 0.6271 0.0
C667 C 0.77487 0.29237 0.60482 0.0
C668 C 0.74107 0.28683 0.58807 0.0
C669 C 0.69793 0.29816 0.59409 0.0
C670 C 0.80049 0.31747 0.64538 0.0
C671 C 0.75019 0.26747 0.56422 0.0
H672 H 0.92088 0.32024 0.58842 0.0
H673 H 0.88831 0.19465 0.61739 0.0
H674 H 0.80953 0.3507 0.57171 0.0
H675 H 0.8309 0.37318 0.59836 0.0
H676 H 0.86602 0.36811 0.57316 0.0
H677 H 0.81495 0.16887 0.6186 0.0
H678 H 0.78814 0.2126 0.63422 0.0
H679 H 0.77171 0.20008 0.60483 0.0
H680 H 0.71408 0.33407 0.64987 0.0
H681 H 0.67148 0.29304 0.58168 0.0
H682 H 0.82753 0.33749 0.63803 0.0
H683 H 0.81458 0.28539 0.65064 0.0
H684 H 0.78779 0.33407 0.66132 0.0
H685 H 0.77823 0.28442 0.55581 0.0
H686 H 0.72129 0.26961 0.55241 0.0
H687 H 0.75941 0.23247 0.56618 0.0
C688 C 0.84633 0.36676 0.11394 0.0
C689 C 0.81295 0.39785 0.11153 0.0
C690 C 0.83744 0.32206 0.11113 0.0
C691 C 0.79408 0.30855 0.10607 0.0
C692 C 0.76115 0.3402 0.10171 0.0
C693 C 0.77105 0.3847 0.10452 0.0
C694 C 0.8735 0.28926 0.11574 0.0
C695 C 0.71458 0.32706 0.09623 0.0
C696 C 0.77365 0.18739 0.0956 0.0
C697 C 0.7632 0.17363 0.11832 0.0
C698 C 0.78316 0.23161 0.09107 0.0
C699 C 0.78171 0.26216 0.10974 0.0
C700 C 0.76982 0.24826 0.13257 0.0
C701 C 0.76079 0.20402 0.13656 0.0
C702 C 0.79578 0.24542 0.06658 0.0
C703 C 0.76751 0.27993 0.15291 0.0
H704 H 0.87866 0.37712 0.11955 0.0
H705 H 0.74544 0.4091 0.10257 0.0
H706 H 0.86832 0.27389 0.13317 0.0
H707 H 0.87297 0.26273 0.10246 0.0
H708 H 0.90639 0.30485 0.11565 0.0
H709 H 0.69514 0.355 0.08927 0.0
H710 H 0.7138 0.29993 0.0833 0.0
H711 H 0.69856 0.31513 0.11249 0.0
H712 H 0.77527 0.16343 0.08159 0.0
H713 H 0.75223 0.19295 0.15405 0.0
H714 H 0.83036 0.25662 0.06646 0.0
H715 H 0.77532 0.27347 0.06077 0.0
H716 H 0.79221 0.2183 0.05373 0.0
H717 H 0.80033 0.29433 0.15616 0.0
H718 H 0.75613 0.26393 0.16932 0.0
H719 H 0.74488 0.30731 0.1487 0.0
C720 C 0.36133 0.72378 0.37596 0.0
C721 C 0.3925 0.75679 0.37915 0.0
C722 C 0.31678 0.73237 0.37943 0.0
C723 C 0.30345 0.77512 0.38592 0.0
C724 C 0.33515 0.80781 0.39057 0.0
C725 C 0.37953 0.79817 0.38711 0.0
C726 C 0.28386 0.69666 0.37439 0.0
C727 C 0.32209 0.85376 0.39746 0.0
C728 C 0.19496 0.80887 0.35995 0.0
C729 C 0.16693 0.80356 0.37906 0.0
C730 C 0.23982 0.80099 0.36224 0.0
C731 C 0.25665 0.78717 0.38418 0.0
C732 C 0.22844 0.78288 0.40375 0.0
C733 C 0.18354 0.79134 0.40094 0.0
C734 C 0.26896 0.8063 0.341 0.0
C735 C 0.24544 0.76813 0.42733 0.0
H736 H 0.37159 0.69193 0.36956 0.0
H737 H 0.404 0.8235 0.38962 0.0
H738 H 0.25889 0.69503 0.38849 0.0
H739 H 0.26648 0.70413 0.35775 0.0
H740 H 0.29966 0.66399 0.37268 0.0
H741 H 0.3505 0.87314 0.40386 0.0
H742 H 0.30788 0.87081 0.38203 0.0
H743 H 0.29661 0.8531 0.41132 0.0
H744 H 0.18154 0.81861 0.34311 0.0
H745 H 0.1613 0.78745 0.41562 0.0
H746 H 0.28329 0.77413 0.33614 0.0
H747 H 0.29653 0.82872 0.34507 0.0
H748 H 0.2509 0.81945 0.3256 0.0
H749 H 0.2575 0.7339 0.42604 0.0
H750 H 0.21982 0.76963 0.44113 0.0
H751 H 0.27357 0.78875 0.43279 0.0
C752 C 0.33045 0.87146 0.88622 0.0
C753 C 0.30211 0.89887 0.87351 0.0
C754 C 0.31936 0.82776 0.89091 0.0
C755 C 0.28208 0.80927 0.87985 0.0
C756 C 0.25291 0.83707 0.86739 0.0
C757 C 0.26173 0.88196 0.86617 0.0
C758 C 0.34893 0.80183 0.90701 0.0
C759 C 0.21331 0.82024 0.85422 0.0
C760 C 0.29881 0.68975 0.8641 0.0
C761 C 0.25869 0.67125 0.87069 0.0
C762 C 0.30642 0.73473 0.86628 0.0
C763 C 0.27617 0.76092 0.87896 0.0
C764 C 0.23854 0.74094 0.88883 0.0
C765 C 0.22879 0.69734 0.88314 0.0
C766 C 0.34615 0.75343 0.854 0.0
C767 C 0.20738 0.76502 0.90486 0.0
H768 H 0.362 0.88317 0.89206 0.0
H769 H 0.2377 0.90323 0.85812 0.0
H770 H 0.33571 0.76905 0.91154 0.0
H771 H 0.3817 0.79812 0.89882 0.0
H772 H 0.35398 0.82041 0.92354 0.0
H773 H 0.20622 0.84103 0.83866 0.0
H774 H 0.2175 0.78602 0.84807 0.0
H775 H 0.1842 0.82201 0.8658 0.0
H776 H 0.32387 0.66968 0.85612 0.0
H777 H 0.19718 0.68455 0.88817 0.0
H778 H 0.37487 0.75126 0.86585 0.0
H779 H 0.34147 0.78804 0.84859 0.0
H780 H 0.35422 0.7341 0.83805 0.0
H781 H 0.21966 0.7976 0.91042 0.0
H782 H 0.20145 0.745 0.92082 0.0
H783 H 0.17519 0.76888 0.89603 0.0
C784 C 0.38999 0.33352 0.6113 0.0
C785 C 0.41344 0.3108 0.62868 0.0
C786 C 0.34539 0.32476 0.60726 0.0
C787 C 0.32368 0.29304 0.62117 0.0
C788 C 0.34768 0.26865 0.63797 0.0
C789 C 0.39227 0.27759 0.64138 0.0
C790 C 0.32111 0.35075 0.58884 0.0
C791 C 0.32574 0.23472 0.65329 0.0
C792 C 0.20332 0.30418 0.6361 0.0
C793 C 0.1848 0.26943 0.62339 0.0
C794 C 0.24821 0.31349 0.63466 0.0
C795 C 0.27526 0.28786 0.61988 0.0
C796 C 0.25635 0.25465 0.60581 0.0
C797 C 0.21136 0.24559 0.60785 0.0
C798 C 0.26707 0.34905 0.65008 0.0
C799 C 0.28397 0.22724 0.58948 0.0
H800 H 0.40615 0.35896 0.60124 0.0
H801 H 0.41003 0.25974 0.65481 0.0
H802 H 0.3011 0.32869 0.57769 0.0
H803 H 0.29833 0.37403 0.59748 0.0
H804 H 0.34372 0.36972 0.57744 0.0
H805 H 0.34951 0.21686 0.66456 0.0
H806 H 0.30124 0.25091 0.66476 0.0
H807 H 0.30795 0.21054 0.64233 0.0
H808 H 0.18315 0.32293 0.6481 0.0
H809 H 0.19732 0.21894 0.59779 0.0
H810 H 0.28705 0.37208 0.63951 0.0
H811 H 0.28907 0.33415 0.6634 0.0
H812 H 0.24124 0.368 0.65934 0.0
H813 H 0.30607 0.2484 0.57898 0.0
H814 H 0.26361 0.20732 0.57735 0.0
H815 H 0.30489 0.20472 0.5999 0.0
C816 C 0.8183 0.69484 0.10792 0.0
C817 C 0.79921 0.67003 0.12595 0.0
C818 C 0.80656 0.7389 0.10443 0.0
C819 C 0.7756 0.75865 0.11958 0.0
C820 C 0.75414 0.73297 0.13676 0.0
C821 C 0.76597 0.68893 0.13962 0.0
C822 C 0.82934 0.76496 0.08553 0.0
C823 C 0.72114 0.75281 0.15341 0.0
C824 C 0.79004 0.87662 0.13797 0.0
C825 C 0.75406 0.89712 0.1272 0.0
C826 C 0.79835 0.83195 0.13477 0.0
C827 C 0.77047 0.80707 0.12009 0.0
C828 C 0.73578 0.82798 0.10793 0.0
C829 C 0.72771 0.87281 0.11178 0.0
C830 C 0.83557 0.81094 0.14822 0.0
C831 C 0.70607 0.80267 0.09169 0.0
H832 H 0.84356 0.68039 0.09705 0.0
H833 H 0.75068 0.67 0.15347 0.0
H834 H 0.80565 0.78616 0.07606 0.0
H835 H 0.85424 0.78666 0.09365 0.0
H836 H 0.84611 0.74339 0.07266 0.0
H837 H 0.70429 0.72758 0.16418 0.0
H838 H 0.73803 0.77595 0.1654 0.0
H839 H 0.69607 0.77173 0.1436 0.0
H840 H 0.81087 0.89505 0.14979 0.0
H841 H 0.7001 0.88846 0.1032 0.0
H842 H 0.85749 0.79287 0.13611 0.0
H843 H 0.82223 0.78683 0.16094 0.0
H844 H 0.85544 0.83532 0.15803 0.0
H845 H 0.72552 0.7811 0.07998 0.0
H846 H 0.68548 0.82472 0.08075 0.0
H847 H 0.68412 0.78132 0.10216 0.0
C848 C 0.68121 0.81193 0.36426 0.0
C849 C 0.66358 0.77409 0.37461 0.0
C850 C 0.72505 0.82357 0.36781 0.0
C851 C 0.75172 0.79719 0.38242 0.0
C852 C 0.73287 0.76193 0.39501 0.0
C853 C 0.689 0.75046 0.39078 0.0
C854 C 0.74381 0.86137 0.35395 0.0
C855 C 0.75992 0.73408 0.41142 0.0
C856 C 0.86618 0.78366 0.35868 0.0
C857 C 0.88963 0.81543 0.37125 0.0
C858 C 0.82169 0.77644 0.36285 0.0
C859 C 0.80007 0.80095 0.38045 0.0
C860 C 0.82398 0.83135 0.39418 0.0
C861 C 0.86852 0.83874 0.38919 0.0
C862 C 0.79742 0.74409 0.34752 0.0
C863 C 0.80232 0.85709 0.41356 0.0
H864 H 0.66167 0.83096 0.35206 0.0
H865 H 0.67546 0.72168 0.39923 0.0
H866 H 0.76427 0.88258 0.36531 0.0
H867 H 0.76519 0.8484 0.33982 0.0
H868 H 0.71782 0.88182 0.34576 0.0
H869 H 0.73897 0.7148 0.42356 0.0
H870 H 0.78005 0.71083 0.40105 0.0
H871 H 0.78262 0.75469 0.42189 0.0
H872 H 0.88213 0.76548 0.34476 0.0
H873 H 0.8866 0.86303 0.39913 0.0
H874 H 0.7717 0.76142 0.33733 0.0
H875 H 0.78087 0.71909 0.3585 0.0
H876 H 0.81943 0.72696 0.335 0.0
H877 H 0.78288 0.88424 0.40585 0.0
H878 H 0.82679 0.87148 0.42576 0.0
H879 H 0.77951 0.83607 0.42372 0.0
C880 C 0.33032 0.19589 0.88641 0.0
C881 C 0.30842 0.17161 0.86908 0.0
C882 C 0.31994 0.24015 0.89034 0.0
C883 C 0.28737 0.26054 0.87642 0.0
C884 C 0.26316 0.23539 0.86008 0.0
C885 C 0.27377 0.19121 0.85674 0.0
C886 C 0.34566 0.26565 0.90836 0.0
C887 C 0.22816 0.25587 0.84482 0.0
C888 C 0.23825 0.37337 0.88528 0.0
C889 C 0.26095 0.39756 0.86822 0.0
C890 C 0.24877 0.32926 0.88962 0.0
C891 C 0.28227 0.30894 0.87635 0.0
C892 C 0.30733 0.33409 0.86039 0.0
C893 C 0.29657 0.37814 0.85666 0.0
C894 C 0.22216 0.30377 0.90726 0.0
C895 C 0.34335 0.31369 0.84585 0.0
H896 H 0.35678 0.18092 0.89625 0.0
H897 H 0.25623 0.17268 0.84352 0.0
H898 H 0.37019 0.28652 0.89935 0.0
H899 H 0.32381 0.28764 0.91852 0.0
H900 H 0.36329 0.24366 0.92072 0.0
H901 H 0.21005 0.23109 0.83434 0.0
H902 H 0.2043 0.2742 0.85572 0.0
H903 H 0.24346 0.27964 0.83257 0.0
H904 H 0.21107 0.38827 0.89457 0.0
H905 H 0.31471 0.39663 0.84365 0.0
H906 H 0.24356 0.28208 0.91791 0.0
H907 H 0.19835 0.28261 0.8979 0.0
H908 H 0.20365 0.32577 0.9192 0.0
H909 H 0.36645 0.29528 0.8572 0.0
H910 H 0.36216 0.33852 0.83577 0.0
H911 H 0.32888 0.29 0.83328 0.0
loop_
_geom_bond_atom_site_label_1
_geom_bond_atom_site_label_2
_geom_bond_distance
_geom_bond_site_symmetry_2
_ccdc_geom_bond_type
Co0 O3 1.970 . S
Co0 N17 1.989 . S
Co0 O25 1.967 . S
Co0 O32 1.920 . S
Co1 O4 1.966 . S
Co1 N10 2.022 . S
Co1 N18 1.993 . S
Co1 O26 1.941 . S
C2 O3 1.258 . S
C2 O4 1.263 . S
O3 Co0 1.970 . S
O3 C2 1.258 . S
O4 Co1 1.966 . S
O4 C2 1.263 . S
C5 O6 1.235 . S
C5 O32 1.289 . S
O6 C5 1.235 . S
C7 C9 1.400 . S
C7 N10 1.351 . S
C7 C12 1.501 . S
C8 C9 1.387 . S
C8 N11 1.341 . S
C9 C7 1.400 . S
C9 C8 1.387 . S
N10 Co1 2.022 . S
N10 C7 1.351 . S
N10 N11 1.365 . S
N11 C8 1.341 . S
N11 N10 1.365 . S
N11 H31 0.862 . S
C12 C7 1.501 . S
C12 H13 0.961 . S
C12 H14 0.961 . S
C12 H15 0.960 . S
H13 C12 0.961 . S
H14 C12 0.961 . S
H15 C12 0.960 . S
C16 N17 1.342 1_655 S
C16 C20 1.401 . S
C16 C21 1.499 . S
N17 Co0 1.989 . S
N17 C16 1.342 1_455 S
N17 N18 1.388 . S
N18 Co1 1.993 . S
N18 N17 1.388 . S
N18 C19 1.346 1_455 S
C19 N18 1.346 1_655 S
C19 C20 1.396 . S
C19 C29 1.510 . S
C20 C16 1.401 . S
C20 C19 1.396 . S
C21 C16 1.499 . S
C21 H22 0.959 . S
C21 H23 0.960 . S
C21 H24 0.961 . S
H22 C21 0.959 . S
H23 C21 0.960 . S
H24 C21 0.961 . S
O25 Co0 1.967 . S
O25 C33 1.258 . S
O26 Co1 1.941 . S
O26 C33 1.266 . S
H27 C29 0.959 . S
H28 C29 0.961 . S
C29 C19 1.510 . S
C29 H27 0.959 . S
C29 H28 0.961 . S
C29 H30 0.960 . S
H30 C29 0.960 . S
H31 N11 0.862 . S
O32 Co0 1.920 . S
O32 C5 1.289 . S
C33 O25 1.258 . S
C33 O26 1.266 . S
Co34 O37 1.970 . S
Co34 N51 1.989 . S
Co34 O59 1.967 . S
Co34 O66 1.920 . S
Co35 O38 1.966 . S
Co35 N44 2.022 . S
Co35 N52 1.993 . S
Co35 O60 1.941 . S
C36 O37 1.258 . S
C36 O38 1.263 . S
O37 Co34 1.970 . S
O37 C36 1.258 . S
O38 Co35 1.966 . S
O38 C36 1.263 . S
C39 O40 1.235 . S
C39 O66 1.289 . S
O40 C39 1.235 . S
C41 C43 1.400 . S
C41 N44 1.351 . S
C41 C46 1.501 . S
C42 C43 1.387 . S
C42 N45 1.341 . S
C43 C41 1.400 . S
C43 C42 1.387 . S
N44 Co35 2.022 . S
N44 C41 1.351 . S
N44 N45 1.365 . S
N45 C42 1.341 . S
N45 N44 1.365 . S
N45 H65 0.862 . S
C46 C41 1.501 . S
C46 H47 0.961 . S
C46 H48 0.961 . S
C46 H49 0.960 . S
H47 C46 0.961 . S
H48 C46 0.961 . S
H49 C46 0.960 . S
C50 N51 1.342 . S
C50 C54 1.401 . S
C50 C55 1.499 . S
N51 Co34 1.989 . S
N51 C50 1.342 . S
N51 N52 1.388 . S
N52 Co35 1.993 . S
N52 N51 1.388 . S
N52 C53 1.346 . S
C53 N52 1.346 . S
C53 C54 1.396 . S
C53 C63 1.510 . S
C54 C50 1.401 . S
C54 C53 1.396 . S
C55 C50 1.499 . S
C55 H56 0.959 . S
C55 H57 0.960 . S
C55 H58 0.961 . S
H56 C55 0.959 . S
H57 C55 0.960 . S
H58 C55 0.961 . S
O59 Co34 1.967 . S
O59 C67 1.258 . S
O60 Co35 1.941 . S
O60 C67 1.266 . S
H61 C63 0.959 . S
H62 C63 0.961 . S
C63 C53 1.510 . S
C63 H61 0.959 . S
C63 H62 0.961 . S
C63 H64 0.960 . S
H64 C63 0.960 . S
H65 N45 0.862 . S
O66 Co34 1.920 . S
O66 C39 1.289 . S
C67 O59 1.258 . S
C67 O60 1.266 . S
Co68 O71 1.970 . S
Co68 N85 1.989 . S
Co68 O93 1.967 . S
Co68 O100 1.920 . S
Co69 O72 1.966 . S
Co69 N78 2.022 . S
Co69 N86 1.993 . S
Co69 O94 1.941 . S
C70 O71 1.258 . S
C70 O72 1.263 . S
O71 Co68 1.970 . S
O71 C70 1.258 . S
O72 Co69 1.966 . S
O72 C70 1.263 . S
C73 O74 1.235 . S
C73 O100 1.289 . S
O74 C73 1.235 . S
C75 C77 1.400 . S
C75 N78 1.351 . S
C75 C80 1.501 . S
C76 C77 1.387 . S
C76 N79 1.341 . S
C77 C75 1.400 . S
C77 C76 1.387 . S
N78 Co69 2.022 . S
N78 C75 1.351 . S
N78 N79 1.365 . S
N79 C76 1.341 . S
N79 N78 1.365 . S
N79 H99 0.862 . S
C80 C75 1.501 . S
C80 H81 0.961 . S
C80 H82 0.961 . S
C80 H83 0.960 . S
H81 C80 0.961 . S
H82 C80 0.961 . S
H83 C80 0.960 . S
C84 N85 1.342 . S
C84 C88 1.401 . S
C84 C89 1.499 . S
N85 Co68 1.989 . S
N85 C84 1.342 . S
N85 N86 1.388 . S
N86 Co69 1.993 . S
N86 N85 1.388 . S
N86 C87 1.346 . S
C87 N86 1.346 . S
C87 C88 1.396 . S
C87 C97 1.510 . S
C88 C84 1.401 . S
C88 C87 1.396 . S
C89 C84 1.499 . S
C89 H90 0.959 . S
C89 H91 0.960 . S
C89 H92 0.961 . S
H90 C89 0.959 . S
H91 C89 0.960 . S
H92 C89 0.961 . S
O93 Co68 1.967 . S
O93 C101 1.258 . S
O94 Co69 1.941 . S
O94 C101 1.266 . S
H95 C97 0.959 . S
H96 C97 0.961 . S
C97 C87 1.510 . S
C97 H95 0.959 . S
C97 H96 0.961 . S
C97 H98 0.960 . S
H98 C97 0.960 . S
H99 N79 0.862 . S
O100 Co68 1.920 . S
O100 C73 1.289 . S
C101 O93 1.258 . S
C101 O94 1.266 . S
Co102 O105 1.970 1_545 S
Co102 N119 1.989 . S
Co102 O127 1.967 1_545 S
Co102 O134 1.920 . S
Co103 O106 1.966 1_545 S
Co103 N112 2.022 . S
Co103 N120 1.993 . S
Co103 O128 1.941 1_545 S
C104 O105 1.258 . S
C104 O106 1.263 . S
O105 Co102 1.970 1_565 S
O105 C104 1.258 . S
O106 Co103 1.966 1_565 S
O106 C104 1.263 . S
C107 O108 1.235 . S
C107 O134 1.289 . S
O108 C107 1.235 . S
C109 C111 1.400 . S
C109 N112 1.351 . S
C109 C114 1.501 1_545 S
C110 C111 1.387 . S
C110 N113 1.341 . S
C111 C109 1.400 . S
C111 C110 1.387 . S
N112 Co103 2.022 . S
N112 C109 1.351 . S
N112 N113 1.365 . S
N113 C110 1.341 . S
N113 N112 1.365 . S
N113 H133 0.862 . S
C114 C109 1.501 1_565 S
C114 H115 0.961 . S
C114 H116 0.961 . S
C114 H117 0.960 . S
H115 C114 0.961 . S
H116 C114 0.961 . S
H117 C114 0.960 . S
C118 N119 1.342 . S
C118 C122 1.401 . S
C118 C123 1.499 . S
N119 Co102 1.989 . S
N119 C118 1.342 . S
N119 N120 1.388 . S
N120 Co103 1.993 . S
N120 N119 1.388 . S
N120 C121 1.346 . S
C121 N120 1.346 . S
C121 C122 1.396 . S
C121 C131 1.510 . S
C122 C118 1.401 . S
C122 C121 1.396 . S
C123 C118 1.499 . S
C123 H124 0.959 . S
C123 H125 0.960 . S
C123 H126 0.961 . S
H124 C123 0.959 . S
H125 C123 0.960 . S
H126 C123 0.961 . S
O127 Co102 1.967 1_565 S
O127 C135 1.258 . S
O128 Co103 1.941 1_565 S
O128 C135 1.266 . S
H129 C131 0.959 . S
H130 C131 0.961 . S
C131 C121 1.510 . S
C131 H129 0.959 . S
C131 H130 0.961 . S
C131 H132 0.960 . S
H132 C131 0.960 . S
H133 N113 0.862 . S
O134 Co102 1.920 . S
O134 C107 1.289 . S
C135 O127 1.258 . S
C135 O128 1.266 . S
Co136 O139 1.970 1_455 S
Co136 N153 1.989 . S
Co136 O161 1.967 1_455 S
Co136 O168 1.920 . S
Co137 O140 1.966 1_455 S
Co137 N146 2.022 . S
Co137 N154 1.993 . S
Co137 O162 1.941 1_455 S
C138 O139 1.258 . S
C138 O140 1.263 . S
O139 Co136 1.970 1_655 S
O139 C138 1.258 . S
O140 Co137 1.966 1_655 S
O140 C138 1.263 . S
C141 O142 1.235 . S
C141 O168 1.289 . S
O142 C141 1.235 . S
C143 C145 1.400 . S
C143 N146 1.351 . S
C143 C148 1.501 1_455 S
C144 C145 1.387 . S
C144 N147 1.341 . S
C145 C143 1.400 . S
C145 C144 1.387 . S
N146 Co137 2.022 . S
N146 C143 1.351 . S
N146 N147 1.365 . S
N147 C144 1.341 . S
N147 N146 1.365 . S
N147 H167 0.862 . S
C148 C143 1.501 1_655 S
C148 H149 0.961 . S
C148 H150 0.961 . S
C148 H151 0.960 . S
H149 C148 0.961 . S
H150 C148 0.961 . S
H151 C148 0.960 . S
C152 N153 1.342 . S
C152 C156 1.401 . S
C152 C157 1.499 . S
N153 Co136 1.989 . S
N153 C152 1.342 . S
N153 N154 1.388 . S
N154 Co137 1.993 . S
N154 N153 1.388 . S
N154 C155 1.346 . S
C155 N154 1.346 . S
C155 C156 1.396 . S
C155 C165 1.510 . S
C156 C152 1.401 . S
C156 C155 1.396 . S
C157 C152 1.499 . S
C157 H158 0.959 . S
C157 H159 0.960 . S
C157 H160 0.961 . S
H158 C157 0.959 . S
H159 C157 0.960 . S
H160 C157 0.961 . S
O161 Co136 1.967 1_655 S
O161 C169 1.258 . S
O162 Co137 1.941 1_655 S
O162 C169 1.266 . S
H163 C165 0.959 . S
H164 C165 0.961 . S
C165 C155 1.510 . S
C165 H163 0.959 . S
C165 H164 0.961 . S
C165 H166 0.960 . S
H166 C165 0.960 . S
H167 N147 0.862 . S
O168 Co136 1.920 . S
O168 C141 1.289 . S
C169 O161 1.258 . S
C169 O162 1.266 . S
Co170 O173 1.970 . S
Co170 N187 1.989 . S
Co170 O195 1.967 . S
Co170 O202 1.920 . S
Co171 O174 1.966 . S
Co171 N180 2.022 . S
Co171 N188 1.993 . S
Co171 O196 1.941 . S
C172 O173 1.258 . S
C172 O174 1.263 . S
O173 Co170 1.970 . S
O173 C172 1.258 . S
O174 Co171 1.966 . S
O174 C172 1.263 . S
C175 O176 1.235 . S
C175 O202 1.289 . S
O176 C175 1.235 . S
C177 C179 1.400 . S
C177 N180 1.351 . S
C177 C182 1.501 . S
C178 C179 1.387 . S
C178 N181 1.341 . S
C179 C177 1.400 . S
C179 C178 1.387 . S
N180 Co171 2.022 . S
N180 C177 1.351 . S
N180 N181 1.365 . S
N181 C178 1.341 . S
N181 N180 1.365 . S
N181 H201 0.862 . S
C182 C177 1.501 . S
C182 H183 0.961 . S
C182 H184 0.961 . S
C182 H185 0.960 . S
H183 C182 0.961 . S
H184 C182 0.961 . S
H185 C182 0.960 . S
C186 N187 1.342 . S
C186 C190 1.401 . S
C186 C191 1.499 . S
N187 Co170 1.989 . S
N187 C186 1.342 . S
N187 N188 1.388 . S
N188 Co171 1.993 . S
N188 N187 1.388 . S
N188 C189 1.346 . S
C189 N188 1.346 . S
C189 C190 1.396 . S
C189 C199 1.510 . S
C190 C186 1.401 . S
C190 C189 1.396 . S
C191 C186 1.499 . S
C191 H192 0.959 . S
C191 H193 0.960 . S
C191 H194 0.961 . S
H192 C191 0.959 . S
H193 C191 0.960 . S
H194 C191 0.961 . S
O195 Co170 1.967 . S
O195 C203 1.258 . S
O196 Co171 1.941 . S
O196 C203 1.266 . S
H197 C199 0.959 . S
H198 C199 0.961 . S
C199 C189 1.510 . S
C199 H197 0.959 . S
C199 H198 0.961 . S
C199 H200 0.960 . S
H200 C199 0.960 . S
H201 N181 0.862 . S
O202 Co170 1.920 . S
O202 C175 1.289 . S
C203 O195 1.258 . S
C203 O196 1.266 . S
Co204 O207 1.970 . S
Co204 N221 1.989 . S
Co204 O229 1.967 . S
Co204 O236 1.920 . S
Co205 O208 1.966 . S
Co205 N214 2.022 . S
Co205 N222 1.993 . S
Co205 O230 1.941 . S
C206 O207 1.258 . S
C206 O208 1.263 . S
O207 Co204 1.970 . S
O207 C206 1.258 . S
O208 Co205 1.966 . S
O208 C206 1.263 . S
C209 O210 1.235 . S
C209 O236 1.289 . S
O210 C209 1.235 . S
C211 C213 1.400 . S
C211 N214 1.351 . S
C211 C216 1.501 . S
C212 C213 1.387 . S
C212 N215 1.341 . S
C213 C211 1.400 . S
C213 C212 1.387 . S
N214 Co205 2.022 . S
N214 C211 1.351 . S
N214 N215 1.365 . S
N215 C212 1.341 . S
N215 N214 1.365 . S
N215 H235 0.862 . S
C216 C211 1.501 . S
C216 H217 0.961 . S
C216 H218 0.961 . S
C216 H219 0.960 . S
H217 C216 0.961 . S
H218 C216 0.961 . S
H219 C216 0.960 . S
C220 N221 1.342 . S
C220 C224 1.401 . S
C220 C225 1.499 . S
N221 Co204 1.989 . S
N221 C220 1.342 . S
N221 N222 1.388 . S
N222 Co205 1.993 . S
N222 N221 1.388 . S
N222 C223 1.346 . S
C223 N222 1.346 . S
C223 C224 1.396 . S
C223 C233 1.510 . S
C224 C220 1.401 . S
C224 C223 1.396 . S
C225 C220 1.499 . S
C225 H226 0.959 . S
C225 H227 0.960 . S
C225 H228 0.961 . S
H226 C225 0.959 . S
H227 C225 0.960 . S
H228 C225 0.961 . S
O229 Co204 1.967 . S
O229 C237 1.258 . S
O230 Co205 1.941 . S
O230 C237 1.266 . S
H231 C233 0.959 . S
H232 C233 0.961 . S
C233 C223 1.510 . S
C233 H231 0.959 . S
C233 H232 0.961 . S
C233 H234 0.960 . S
H234 C233 0.960 . S
H235 N215 0.862 . S
O236 Co204 1.920 . S
O236 C209 1.289 . S
C237 O229 1.258 . S
C237 O230 1.266 . S
Co238 O241 1.970 . S
Co238 N255 1.989 . S
Co238 O263 1.967 . S
Co238 O270 1.920 . S
Co239 O242 1.966 . S
Co239 N248 2.022 . S
Co239 N256 1.993 . S
Co239 O264 1.941 . S
C240 O241 1.258 . S
C240 O242 1.263 . S
O241 Co238 1.970 . S
O241 C240 1.258 . S
O242 Co239 1.966 . S
O242 C240 1.263 . S
C243 O244 1.235 . S
C243 O270 1.289 . S
O244 C243 1.235 . S
C245 C247 1.400 . S
C245 N248 1.351 . S
C245 C250 1.501 . S
C246 C247 1.387 . S
C246 N249 1.341 . S
C247 C245 1.400 . S
C247 C246 1.387 . S
N248 Co239 2.022 . S
N248 C245 1.351 . S
N248 N249 1.365 . S
N249 C246 1.341 . S
N249 N248 1.365 . S
N249 H269 0.862 . S
C250 C245 1.501 . S
C250 H251 0.961 . S
C250 H252 0.961 . S
C250 H253 0.960 . S
H251 C250 0.961 . S
H252 C250 0.961 . S
H253 C250 0.960 . S
C254 N255 1.342 1_565 S
C254 C258 1.401 . S
C254 C259 1.499 . S
N255 Co238 1.989 . S
N255 C254 1.342 1_545 S
N255 N256 1.388 . S
N256 Co239 1.993 . S
N256 N255 1.388 . S
N256 C257 1.346 1_545 S
C257 N256 1.346 1_565 S
C257 C258 1.396 . S
C257 C267 1.510 . S
C258 C254 1.401 . S
C258 C257 1.396 . S
C259 C254 1.499 . S
C259 H260 0.959 . S
C259 H261 0.960 . S
C259 H262 0.961 . S
H260 C259 0.959 . S
H261 C259 0.960 . S
H262 C259 0.961 . S
O263 Co238 1.967 . S
O263 C271 1.258 . S
O264 Co239 1.941 . S
O264 C271 1.266 . S
H265 C267 0.959 . S
H266 C267 0.961 . S
C267 C257 1.510 . S
C267 H265 0.959 . S
C267 H266 0.961 . S
C267 H268 0.960 . S
H268 C267 0.960 . S
H269 N249 0.862 . S
O270 Co238 1.920 . S
O270 C243 1.289 . S
C271 O263 1.258 . S
C271 O264 1.266 . S
C272 C273 1.391 1_545 S
C272 C274 1.394 . S
C272 H288 0.931 . S
C273 C272 1.391 1_565 S
C273 C277 1.376 . S
C274 C272 1.394 . S
C274 C275 1.369 . S
C274 C278 1.531 . S
C275 C274 1.369 . S
C275 C276 1.410 1_545 S
C275 C283 1.503 . S
C276 C275 1.410 1_565 S
C276 C277 1.392 . S
C276 C279 1.511 1_455 S
C277 C273 1.376 . S
C277 C276 1.392 . S
C277 H289 0.929 1_455 S
C278 C274 1.531 . S
C278 H290 0.960 . S
C278 H291 0.962 . S
C278 H292 0.960 . S
C279 C276 1.511 1_655 S
C279 H293 0.961 . S
C279 H294 0.961 . S
C279 H295 0.961 1_565 S
C280 C281 1.370 . S
C280 C282 1.363 . S
C280 H296 0.931 . S
C281 C280 1.370 . S
C281 C285 1.408 . S
C282 C280 1.363 . S
C282 C283 1.370 . S
C282 C286 1.524 . S
C283 C275 1.503 . S
C283 C282 1.370 . S
C283 C284 1.403 . S
C284 C283 1.403 . S
C284 C285 1.404 . S
C284 C287 1.539 1_455 S
C285 C281 1.408 . S
C285 C284 1.404 . S
C285 H297 0.930 1_455 S
C286 C282 1.524 . S
C286 H298 0.956 . S
C286 H299 0.961 1_545 S
C286 H300 0.961 . S
C287 C284 1.539 1_655 S
C287 H301 0.958 . S
C287 H302 0.961 . S
C287 H303 0.960 . S
H288 C272 0.931 . S
H289 C277 0.929 1_655 S
H290 C278 0.960 . S
H291 C278 0.962 . S
H292 C278 0.960 . S
H293 C279 0.961 . S
H294 C279 0.961 . S
H295 C279 0.961 1_545 S
H296 C280 0.931 . S
H297 C285 0.930 1_655 S
H298 C286 0.956 . S
H299 C286 0.961 1_565 S
H300 C286 0.961 . S
H301 C287 0.958 . S
H302 C287 0.961 . S
H303 C287 0.960 . S
C304 C305 1.391 1_455 S
C304 C306 1.394 . S
C304 H320 0.931 . S
C305 C304 1.391 1_655 S
C305 C309 1.376 . S
C306 C304 1.394 . S
C306 C307 1.369 . S
C306 C310 1.531 . S
C307 C306 1.369 . S
C307 C308 1.410 1_455 S
C307 C315 1.503 1_554 S
C308 C307 1.410 1_655 S
C308 C309 1.392 . S
C308 C311 1.511 1_554 S
C309 C305 1.376 . S
C309 C308 1.392 . S
C309 H321 0.929 . S
C310 C306 1.531 . S
C310 H322 0.960 . S
C310 H323 0.962 . S
C310 H324 0.960 . S
C311 C308 1.511 1_556 S
C311 H325 0.961 . S
C311 H326 0.961 . S
C311 H327 0.961 . S
C312 C313 1.370 . S
C312 C314 1.363 . S
C312 H328 0.931 . S
C313 C312 1.370 . S
C313 C317 1.408 . S
C314 C312 1.363 . S
C314 C315 1.370 . S
C314 C318 1.524 . S
C315 C307 1.503 1_556 S
C315 C314 1.370 . S
C315 C316 1.403 . S
C316 C315 1.403 . S
C316 C317 1.404 . S
C316 C319 1.539 . S
C317 C313 1.408 . S
C317 C316 1.404 . S
C317 H329 0.930 . S
C318 C314 1.524 . S
C318 H330 0.978 . S
C318 H331 0.980 . S
C318 H332 0.961 . S
C319 C316 1.539 . S
C319 H333 0.958 1_556 S
C319 H334 0.961 . S
C319 H335 0.960 1_556 S
H320 C304 0.931 . S
H321 C309 0.929 . S
H322 C310 0.960 . S
H323 C310 0.962 . S
H324 C310 0.960 . S
H325 C311 0.961 . S
H326 C311 0.961 . S
H327 C311 0.961 . S
H328 C312 0.931 . S
H329 C317 0.930 . S
H330 C318 0.978 . S
H331 C318 0.980 . S
H332 C318 0.961 . S
H333 C319 0.958 1_554 S
H334 C319 0.961 . S
H335 C319 0.960 1_554 S
C336 C337 1.391 . S
C336 C338 1.394 . S
C336 H352 0.931 . S
C337 C336 1.391 . S
C337 C341 1.376 . S
C338 C336 1.394 . S
C338 C339 1.369 . S
C338 C342 1.531 . S
C339 C338 1.369 . S
C339 C340 1.410 . S
C339 C347 1.503 . S
C340 C339 1.410 . S
C340 C341 1.392 . S
C340 C343 1.511 . S
C341 C337 1.376 . S
C341 C340 1.392 . S
C341 H353 0.929 . S
C342 C338 1.531 . S
C342 H354 0.960 . S
C342 H355 0.962 . S
C342 H356 0.960 . S
C343 C340 1.511 . S
C343 H357 0.961 . S
C343 H358 0.961 . S
C343 H359 0.961 . S
C344 C345 1.370 . S
C344 C346 1.363 . S
C344 H360 0.931 . S
C345 C344 1.370 . S
C345 C349 1.408 . S
C346 C344 1.363 . S
C346 C347 1.370 . S
C346 C350 1.524 . S
C347 C339 1.503 . S
C347 C346 1.370 . S
C347 C348 1.403 . S
C348 C347 1.403 . S
C348 C349 1.404 . S
C348 C351 1.539 . S
C349 C345 1.408 . S
C349 C348 1.404 . S
C349 H361 0.930 . S
C350 C346 1.524 . S
C350 H362 0.956 . S
C350 H363 0.961 . S
C350 H364 0.961 . S
C351 C348 1.539 . S
C351 H365 0.958 . S
C351 H366 0.961 . S
C351 H367 0.960 . S
H352 C336 0.931 . S
H353 C341 0.929 . S
H354 C342 0.960 . S
H355 C342 0.962 . S
H356 C342 0.960 . S
H357 C343 0.961 . S
H358 C343 0.961 . S
H359 C343 0.961 . S
H360 C344 0.931 . S
H361 C349 0.930 . S
H362 C350 0.956 . S
H363 C350 0.961 . S
H364 C350 0.961 . S
H365 C351 0.958 . S
H366 C351 0.961 . S
H367 C351 0.960 . S
C368 C369 1.391 . S
C368 C370 1.394 . S
C368 H384 0.931 . S
C369 C368 1.391 . S
C369 C373 1.376 . S
C370 C368 1.394 . S
C370 C371 1.369 . S
C370 C374 1.531 1_556 S
C371 C370 1.369 . S
C371 C372 1.410 . S
C371 C379 1.503 1_556 S
C372 C371 1.410 . S
C372 C373 1.392 . S
C372 C375 1.513 . S
C373 C369 1.376 . S
C373 C372 1.392 . S
C373 H385 0.929 . S
C374 C370 1.531 1_554 S
C374 H386 0.960 . S
C374 H387 0.962 . S
C374 H388 0.960 . S
C375 C372 1.513 . S
C375 H389 0.962 . S
C375 H390 0.964 . S
C375 H391 0.954 1_545 S
C376 C377 1.370 . S
C376 C378 1.363 . S
C376 H392 0.931 . S
C377 C376 1.370 . S
C377 C381 1.417 . S
C378 C376 1.363 . S
C378 C379 1.370 . S
C378 C382 1.524 1_554 S
C379 C371 1.503 1_554 S
C379 C378 1.370 . S
C379 C380 1.403 1_545 S
C380 C379 1.403 1_565 S
C380 C381 1.403 1_565 S
C380 C383 1.539 . S
C381 C377 1.417 . S
C381 C380 1.403 1_545 S
C381 H393 0.922 1_545 S
C382 C378 1.524 1_556 S
C382 H394 0.956 1_556 S
C382 H395 0.961 . S
C382 H396 0.961 1_556 S
C383 C380 1.539 . S
C383 H397 0.958 . S
C383 H398 0.961 . S
C383 H399 0.960 . S
H384 C368 0.931 . S
H385 C373 0.929 . S
H386 C374 0.960 . S
H387 C374 0.962 . S
H388 C374 0.960 . S
H389 C375 0.962 . S
H390 C375 0.964 . S
H391 C375 0.954 1_565 S
H392 C376 0.931 . S
H393 C381 0.922 1_565 S
H394 C382 0.956 1_554 S
H395 C382 0.961 . S
H396 C382 0.961 1_554 S
H397 C383 0.958 . S
H398 C383 0.961 . S
H399 C383 0.960 . S
C400 C401 1.391 . S
C400 C402 1.394 . S
C400 H416 0.931 . S
C401 C400 1.391 . S
C401 C405 1.376 . S
C402 C400 1.394 . S
C402 C403 1.369 . S
C402 C406 1.531 . S
C403 C402 1.369 . S
C403 C404 1.410 . S
C403 C411 1.503 . S
C404 C403 1.410 . S
C404 C405 1.392 . S
C404 C407 1.511 . S
C405 C401 1.376 . S
C405 C404 1.392 . S
C405 H417 0.929 . S
C406 C402 1.531 . S
C406 H418 0.960 . S
C406 H419 0.962 . S
C406 H420 0.960 . S
C407 C404 1.511 . S
C407 H421 0.961 . S
C407 H422 0.961 . S
C407 H423 0.961 . S
C408 C409 1.370 . S
C408 C410 1.363 . S
C408 H424 0.931 . S
C409 C408 1.370 . S
C409 C413 1.408 . S
C410 C408 1.363 . S
C410 C411 1.370 . S
C410 C414 1.524 . S
C411 C403 1.503 . S
C411 C410 1.370 . S
C411 C412 1.403 . S
C412 C411 1.403 . S
C412 C413 1.404 . S
C412 C415 1.539 . S
C413 C409 1.408 . S
C413 C412 1.404 . S
C413 H425 0.930 . S
C414 C410 1.524 . S
C414 H426 0.956 . S
C414 H427 0.961 . S
C414 H428 0.961 . S
C415 C412 1.539 . S
C415 H429 0.958 . S
C415 H430 0.961 . S
C415 H431 0.960 . S
H416 C400 0.931 . S
H417 C405 0.929 . S
H418 C406 0.960 . S
H419 C406 0.962 . S
H420 C406 0.960 . S
H421 C407 0.961 . S
H422 C407 0.961 . S
H423 C407 0.961 . S
H424 C408 0.931 . S
H425 C413 0.930 . S
H426 C414 0.956 . S
H427 C414 0.961 . S
H428 C414 0.961 . S
H429 C415 0.958 . S
H430 C415 0.961 . S
H431 C415 0.960 . S
C432 C433 1.391 1_655 S
C432 C434 1.394 . S
C432 H448 0.931 . S
C433 C432 1.391 1_455 S
C433 C437 1.376 . S
C434 C432 1.394 . S
C434 C435 1.369 . S
C434 C438 1.531 . S
C435 C434 1.369 . S
C435 C436 1.410 1_655 S
C435 C443 1.503 . S
C436 C435 1.410 1_455 S
C436 C437 1.392 . S
C436 C439 1.511 . S
C437 C433 1.376 . S
C437 C436 1.392 . S
C437 H449 0.929 . S
C438 C434 1.531 . S
C438 H450 0.960 . S
C438 H451 0.962 . S
C438 H452 0.960 . S
C439 C436 1.511 . S
C439 H453 0.961 . S
C439 H454 0.961 . S
C439 H455 0.961 . S
C440 C441 1.370 . S
C440 C442 1.363 . S
C440 H456 0.931 . S
C441 C440 1.370 . S
C441 C445 1.408 . S
C442 C440 1.363 . S
C442 C443 1.370 . S
C442 C446 1.524 . S
C443 C435 1.503 . S
C443 C442 1.370 . S
C443 C444 1.403 . S
C444 C443 1.403 . S
C444 C445 1.404 . S
C444 C447 1.539 . S
C445 C441 1.408 . S
C445 C444 1.404 . S
C445 H457 0.930 . S
C446 C442 1.524 . S
C446 H458 0.956 . S
C446 H459 0.961 . S
C446 H460 0.961 . S
C447 C444 1.539 . S
C447 H461 0.958 . S
C447 H462 0.961 . S
C447 H463 0.960 . S
H448 C432 0.931 . S
H449 C437 0.929 . S
H450 C438 0.960 . S
H451 C438 0.962 . S
H452 C438 0.960 . S
H453 C439 0.961 . S
H454 C439 0.961 . S
H455 C439 0.961 . S
H456 C440 0.931 . S
H457 C445 0.930 . S
H458 C446 0.956 . S
H459 C446 0.961 . S
H460 C446 0.961 . S
H461 C447 0.958 . S
H462 C447 0.961 . S
H463 C447 0.960 . S
C464 C465 1.391 . S
C464 C466 1.394 . S
C464 H480 0.931 . S
C465 C464 1.391 . S
C465 C469 1.376 . S
C466 C464 1.394 . S
C466 C467 1.369 . S
C466 C470 1.531 . S
C467 C466 1.369 . S
C467 C468 1.410 . S
C467 C475 1.503 . S
C468 C467 1.410 . S
C468 C469 1.392 . S
C468 C471 1.511 . S
C469 C465 1.376 . S
C469 C468 1.392 . S
C469 H481 0.929 . S
C470 C466 1.531 . S
C470 H482 0.960 . S
C470 H483 0.962 . S
C470 H484 0.960 . S
C471 C468 1.511 . S
C471 H485 0.961 . S
C471 H486 0.961 . S
C471 H487 0.961 . S
C472 C473 1.370 . S
C472 C474 1.363 . S
C472 H488 0.931 . S
C473 C472 1.370 . S
C473 C477 1.408 . S
C474 C472 1.363 . S
C474 C475 1.370 . S
C474 C478 1.524 . S
C475 C467 1.503 . S
C475 C474 1.370 . S
C475 C476 1.403 . S
C476 C475 1.403 . S
C476 C477 1.404 . S
C476 C479 1.539 . S
C477 C473 1.408 . S
C477 C476 1.404 . S
C477 H489 0.930 . S
C478 C474 1.524 . S
C478 H490 0.956 . S
C478 H491 0.961 . S
C478 H492 0.961 . S
C479 C476 1.539 . S
C479 H493 0.958 . S
C479 H494 0.961 . S
C479 H495 0.960 . S
H480 C464 0.931 . S
H481 C469 0.929 . S
H482 C470 0.960 . S
H483 C470 0.962 . S
H484 C470 0.960 . S
H485 C471 0.961 . S
H486 C471 0.961 . S
H487 C471 0.961 . S
H488 C472 0.931 . S
H489 C477 0.930 . S
H490 C478 0.956 . S
H491 C478 0.961 . S
H492 C478 0.961 . S
H493 C479 0.958 . S
H494 C479 0.961 . S
H495 C479 0.960 . S
C496 C497 1.391 . S
C496 C498 1.394 . S
C496 H512 0.931 . S
C497 C496 1.391 . S
C497 C501 1.376 . S
C498 C496 1.394 . S
C498 C499 1.369 . S
C498 C502 1.531 . S
C499 C498 1.369 . S
C499 C500 1.410 . S
C499 C507 1.503 . S
C500 C499 1.410 . S
C500 C501 1.392 . S
C500 C503 1.511 . S
C501 C497 1.376 . S
C501 C500 1.392 . S
C501 H513 0.929 . S
C502 C498 1.531 . S
C502 H514 0.960 1_565 S
C502 H515 0.962 . S
C502 H516 0.958 1_565 S
C503 C500 1.511 . S
C503 H517 0.961 . S
C503 H518 0.961 . S
C503 H519 0.961 . S
C504 C505 1.370 . S
C504 C506 1.363 . S
C504 H520 0.931 . S
C505 C504 1.370 . S
C505 C509 1.408 . S
C506 C504 1.363 . S
C506 C507 1.370 . S
C506 C510 1.524 . S
C507 C499 1.503 . S
C507 C506 1.370 . S
C507 C508 1.403 . S
C508 C507 1.403 . S
C508 C509 1.404 . S
C508 C511 1.539 . S
C509 C505 1.408 . S
C509 C508 1.404 . S
C509 H521 0.930 1_565 S
C510 C506 1.524 . S
C510 H522 0.956 . S
C510 H523 0.961 . S
C510 H524 0.961 . S
C511 C508 1.539 . S
C511 H525 0.942 1_565 S
C511 H526 0.961 . S
C511 H527 0.960 . S
H512 C496 0.931 . S
H513 C501 0.929 . S
H514 C502 0.960 1_545 S
H515 C502 0.962 . S
H516 C502 0.958 1_545 S
H517 C503 0.961 . S
H518 C503 0.961 . S
H519 C503 0.961 . S
H520 C504 0.931 . S
H521 C509 0.930 1_545 S
H522 C510 0.956 . S
H523 C510 0.961 . S
H524 C510 0.961 . S
H525 C511 0.942 1_545 S
H526 C511 0.961 . S
H527 C511 0.960 . S
C528 C529 1.391 . S
C528 C530 1.394 . S
C528 H544 0.931 1_655 S
C529 C528 1.391 . S
C529 C533 1.376 . S
C530 C528 1.394 . S
C530 C531 1.369 . S
C530 C534 1.531 1_565 S
C531 C530 1.369 . S
C531 C532 1.410 . S
C531 C539 1.503 . S
C532 C531 1.410 . S
C532 C533 1.392 . S
C532 C535 1.511 . S
C533 C529 1.376 . S
C533 C532 1.392 . S
C533 H545 0.929 . S
C534 C530 1.531 1_545 S
C534 H546 0.960 . S
C534 H547 0.962 . S
C534 H548 0.960 1_655 S
C535 C532 1.511 . S
C535 H549 0.961 . S
C535 H550 0.961 . S
C535 H551 0.961 . S
C536 C537 1.370 . S
C536 C538 1.363 1_545 S
C536 H552 0.931 . S
C537 C536 1.370 . S
C537 C541 1.408 1_545 S
C538 C536 1.363 1_565 S
C538 C539 1.370 . S
C538 C542 1.524 . S
C539 C531 1.503 . S
C539 C538 1.370 . S
C539 C540 1.403 . S
C540 C539 1.403 . S
C540 C541 1.404 . S
C540 C543 1.539 . S
C541 C537 1.408 1_565 S
C541 C540 1.404 . S
C541 H553 0.930 . S
C542 C538 1.524 . S
C542 H554 0.956 1_565 S
C542 H555 0.961 . S
C542 H556 0.961 . S
C543 C540 1.539 . S
C543 H557 0.958 1_655 S
C543 H558 0.961 . S
C543 H559 0.960 . S
H544 C528 0.931 1_455 S
H545 C533 0.929 . S
H546 C534 0.960 . S
H547 C534 0.962 . S
H548 C534 0.960 1_455 S
H549 C535 0.961 . S
H550 C535 0.961 . S
H551 C535 0.961 . S
H552 C536 0.931 . S
H553 C541 0.930 . S
H554 C542 0.956 1_545 S
H555 C542 0.961 . S
H556 C542 0.961 . S
H557 C543 0.958 1_455 S
H558 C543 0.961 . S
H559 C543 0.960 . S
C560 C561 1.391 . S
C560 C562 1.394 . S
C560 H576 0.931 . S
C561 C560 1.391 . S
C561 C565 1.376 . S
C562 C560 1.394 . S
C562 C563 1.369 . S
C562 C566 1.531 . S
C563 C562 1.369 . S
C563 C564 1.410 . S
C563 C571 1.503 . S
C564 C563 1.410 . S
C564 C565 1.392 . S
C564 C567 1.511 . S
C565 C561 1.376 . S
C565 C564 1.392 . S
C565 H577 0.929 . S
C566 C562 1.531 . S
C566 H578 0.960 . S
C566 H579 0.962 . S
C566 H580 0.960 . S
C567 C564 1.511 . S
C567 H581 0.961 . S
C567 H582 0.961 . S
C567 H583 0.961 . S
C568 C569 1.370 . S
C568 C570 1.363 . S
C568 H584 0.931 . S
C569 C568 1.370 . S
C569 C573 1.408 . S
C570 C568 1.363 . S
C570 C571 1.370 . S
C570 C574 1.524 . S
C571 C563 1.503 . S
C571 C570 1.370 . S
C571 C572 1.403 . S
C572 C571 1.403 . S
C572 C573 1.404 . S
C572 C575 1.539 . S
C573 C569 1.408 . S
C573 C572 1.404 . S
C573 H585 0.930 . S
C574 C570 1.524 . S
C574 H586 0.956 . S
C574 H587 0.961 . S
C574 H588 0.961 . S
C575 C572 1.539 . S
C575 H589 0.958 . S
C575 H590 0.961 . S
C575 H591 0.960 . S
H576 C560 0.931 . S
H577 C565 0.929 . S
H578 C566 0.960 . S
H579 C566 0.962 . S
H580 C566 0.960 . S
H581 C567 0.961 . S
H582 C567 0.961 . S
H583 C567 0.961 . S
H584 C568 0.931 . S
H585 C573 0.930 . S
H586 C574 0.956 . S
H587 C574 0.961 . S
H588 C574 0.961 . S
H589 C575 0.958 . S
H590 C575 0.961 . S
H591 C575 0.960 . S
C592 C593 1.391 . S
C592 C594 1.394 . S
C592 H608 0.931 . S
C593 C592 1.391 . S
C593 C597 1.376 . S
C594 C592 1.394 . S
C594 C595 1.369 . S
C594 C598 1.531 . S
C595 C594 1.369 . S
C595 C596 1.410 . S
C595 C603 1.503 . S
C596 C595 1.410 . S
C596 C597 1.392 . S
C596 C599 1.511 . S
C597 C593 1.376 . S
C597 C596 1.392 . S
C597 H609 0.929 . S
C598 C594 1.531 . S
C598 H610 0.960 . S
C598 H611 0.962 . S
C598 H612 0.960 . S
C599 C596 1.511 . S
C599 H613 0.961 . S
C599 H614 0.961 . S
C599 H615 0.961 . S
C600 C601 1.370 . S
C600 C602 1.363 . S
C600 H616 0.931 . S
C601 C600 1.370 . S
C601 C605 1.408 . S
C602 C600 1.363 . S
C602 C603 1.370 . S
C602 C606 1.524 . S
C603 C595 1.503 . S
C603 C602 1.370 . S
C603 C604 1.403 . S
C604 C603 1.403 . S
C604 C605 1.404 . S
C604 C607 1.539 . S
C605 C601 1.408 . S
C605 C604 1.404 . S
C605 H617 0.930 . S
C606 C602 1.524 . S
C606 H618 0.956 . S
C606 H619 0.961 . S
C606 H620 0.961 . S
C607 C604 1.539 . S
C607 H621 0.958 . S
C607 H622 0.961 . S
C607 H623 0.960 . S
H608 C592 0.931 . S
H609 C597 0.929 . S
H610 C598 0.960 . S
H611 C598 0.962 . S
H612 C598 0.960 . S
H613 C599 0.961 . S
H614 C599 0.961 . S
H615 C599 0.961 . S
H616 C600 0.931 . S
H617 C605 0.930 . S
H618 C606 0.956 . S
H619 C606 0.961 . S
H620 C606 0.961 . S
H621 C607 0.958 . S
H622 C607 0.961 . S
H623 C607 0.960 . S
C624 C625 1.391 . S
C624 C626 1.394 . S
C624 H640 0.931 . S
C625 C624 1.391 . S
C625 C629 1.376 . S
C626 C624 1.394 . S
C626 C627 1.369 . S
C626 C630 1.531 . S
C627 C626 1.369 . S
C627 C628 1.410 . S
C627 C635 1.503 . S
C628 C627 1.410 . S
C628 C629 1.392 . S
C628 C631 1.511 . S
C629 C625 1.376 . S
C629 C628 1.392 . S
C629 H641 0.929 . S
C630 C626 1.531 . S
C630 H642 0.960 . S
C630 H643 0.962 . S
C630 H644 0.960 . S
C631 C628 1.511 . S
C631 H645 0.961 . S
C631 H646 0.961 . S
C631 H647 0.961 . S
C632 C633 1.370 . S
C632 C634 1.363 . S
C632 H648 0.931 . S
C633 C632 1.370 . S
C633 C637 1.408 . S
C634 C632 1.363 . S
C634 C635 1.370 . S
C634 C638 1.524 . S
C635 C627 1.503 . S
C635 C634 1.370 . S
C635 C636 1.403 . S
C636 C635 1.403 . S
C636 C637 1.404 . S
C636 C639 1.539 . S
C637 C633 1.408 . S
C637 C636 1.404 . S
C637 H649 0.930 . S
C638 C634 1.524 . S
C638 H650 0.956 . S
C638 H651 0.961 . S
C638 H652 0.961 . S
C639 C636 1.539 . S
C639 H653 0.958 . S
C639 H654 0.961 . S
C639 H655 0.960 . S
H640 C624 0.931 . S
H641 C629 0.929 . S
H642 C630 0.960 . S
H643 C630 0.962 . S
H644 C630 0.960 . S
H645 C631 0.961 . S
H646 C631 0.961 . S
H647 C631 0.961 . S
H648 C632 0.931 . S
H649 C637 0.930 . S
H650 C638 0.956 . S
H651 C638 0.961 . S
H652 C638 0.961 . S
H653 C639 0.958 . S
H654 C639 0.961 . S
H655 C639 0.960 . S
C656 C657 1.391 . S
C656 C658 1.394 . S
C656 H672 0.931 . S
C657 C656 1.391 . S
C657 C661 1.376 . S
C658 C656 1.394 . S
C658 C659 1.369 . S
C658 C662 1.531 . S
C659 C658 1.369 . S
C659 C660 1.410 . S
C659 C667 1.503 . S
C660 C659 1.410 . S
C660 C661 1.392 . S
C660 C663 1.511 . S
C661 C657 1.376 . S
C661 C660 1.392 . S
C661 H673 0.929 . S
C662 C658 1.531 . S
C662 H674 0.960 . S
C662 H675 0.962 . S
C662 H676 0.960 . S
C663 C660 1.511 . S
C663 H677 0.961 . S
C663 H678 0.961 . S
C663 H679 0.961 . S
C664 C665 1.370 . S
C664 C666 1.363 . S
C664 H680 0.931 . S
C665 C664 1.370 . S
C665 C669 1.408 . S
C666 C664 1.363 . S
C666 C667 1.370 . S
C666 C670 1.524 . S
C667 C659 1.503 . S
C667 C666 1.370 . S
C667 C668 1.403 . S
C668 C667 1.403 . S
C668 C669 1.404 . S
C668 C671 1.539 . S
C669 C665 1.408 . S
C669 C668 1.404 . S
C669 H681 0.930 . S
C670 C666 1.524 . S
C670 H682 0.956 . S
C670 H683 0.961 . S
C670 H684 0.961 . S
C671 C668 1.539 . S
C671 H685 0.958 . S
C671 H686 0.961 . S
C671 H687 0.960 . S
H672 C656 0.931 . S
H673 C661 0.929 . S
H674 C662 0.960 . S
H675 C662 0.962 . S
H676 C662 0.960 . S
H677 C663 0.961 . S
H678 C663 0.961 . S
H679 C663 0.961 . S
H680 C664 0.931 . S
H681 C669 0.930 . S
H682 C670 0.956 . S
H683 C670 0.961 . S
H684 C670 0.961 . S
H685 C671 0.958 . S
H686 C671 0.961 . S
H687 C671 0.960 . S
C688 C689 1.391 . S
C688 C690 1.394 . S
C688 H704 0.931 . S
C689 C688 1.391 . S
C689 C693 1.376 . S
C690 C688 1.394 . S
C690 C691 1.369 . S
C690 C694 1.531 . S
C691 C690 1.369 . S
C691 C692 1.410 . S
C691 C699 1.503 . S
C692 C691 1.410 . S
C692 C693 1.392 . S
C692 C695 1.511 . S
C693 C689 1.376 . S
C693 C692 1.392 . S
C693 H705 0.929 . S
C694 C690 1.531 . S
C694 H706 0.960 . S
C694 H707 0.962 . S
C694 H708 0.960 . S
C695 C692 1.511 . S
C695 H709 0.961 . S
C695 H710 0.961 . S
C695 H711 0.961 . S
C696 C697 1.370 . S
C696 C698 1.363 . S
C696 H712 0.931 . S
C697 C696 1.370 . S
C697 C701 1.408 . S
C698 C696 1.363 . S
C698 C699 1.370 . S
C698 C702 1.524 . S
C699 C691 1.503 . S
C699 C698 1.370 . S
C699 C700 1.403 . S
C700 C699 1.403 . S
C700 C701 1.404 . S
C700 C703 1.539 . S
C701 C697 1.408 . S
C701 C700 1.404 . S
C701 H713 0.930 . S
C702 C698 1.524 . S
C702 H714 0.956 . S
C702 H715 0.961 . S
C702 H716 0.961 . S
C703 C700 1.539 . S
C703 H717 0.958 . S
C703 H718 0.961 . S
C703 H719 0.960 . S
H704 C688 0.931 . S
H705 C693 0.929 . S
H706 C694 0.960 . S
H707 C694 0.962 . S
H708 C694 0.960 . S
H709 C695 0.961 . S
H710 C695 0.961 . S
H711 C695 0.961 . S
H712 C696 0.931 . S
H713 C701 0.930 . S
H714 C702 0.956 . S
H715 C702 0.961 . S
H716 C702 0.961 . S
H717 C703 0.958 . S
H718 C703 0.961 . S
H719 C703 0.960 . S
C720 C721 1.391 . S
C720 C722 1.394 . S
C720 H736 0.931 . S
C721 C720 1.391 . S
C721 C725 1.376 . S
C722 C720 1.394 . S
C722 C723 1.369 . S
C722 C726 1.531 . S
C723 C722 1.369 . S
C723 C724 1.410 . S
C723 C731 1.503 . S
C724 C723 1.410 . S
C724 C725 1.392 . S
C724 C727 1.511 . S
C725 C721 1.376 . S
C725 C724 1.392 . S
C725 H737 0.929 . S
C726 C722 1.531 . S
C726 H738 0.960 . S
C726 H739 0.962 . S
C726 H740 0.960 . S
C727 C724 1.511 . S
C727 H741 0.961 . S
C727 H742 0.961 . S
C727 H743 0.961 . S
C728 C729 1.370 . S
C728 C730 1.363 . S
C728 H744 0.931 . S
C729 C728 1.370 . S
C729 C733 1.408 . S
C730 C728 1.363 . S
C730 C731 1.370 . S
C730 C734 1.524 . S
C731 C723 1.503 . S
C731 C730 1.370 . S
C731 C732 1.403 . S
C732 C731 1.403 . S
C732 C733 1.404 . S
C732 C735 1.539 . S
C733 C729 1.408 . S
C733 C732 1.404 . S
C733 H745 0.930 . S
C734 C730 1.524 . S
C734 H746 0.956 . S
C734 H747 0.961 . S
C734 H748 0.961 . S
C735 C732 1.539 . S
C735 H749 0.958 . S
C735 H750 0.961 . S
C735 H751 0.960 . S
H736 C720 0.931 . S
H737 C725 0.929 . S
H738 C726 0.960 . S
H739 C726 0.962 . S
H740 C726 0.960 . S
H741 C727 0.961 . S
H742 C727 0.961 . S
H743 C727 0.961 . S
H744 C728 0.931 . S
H745 C733 0.930 . S
H746 C734 0.956 . S
H747 C734 0.961 . S
H748 C734 0.961 . S
H749 C735 0.958 . S
H750 C735 0.961 . S
H751 C735 0.960 . S
C752 C753 1.391 . S
C752 C754 1.394 . S
C752 H768 0.931 . S
C753 C752 1.391 . S
C753 C757 1.376 . S
C754 C752 1.394 . S
C754 C755 1.369 . S
C754 C758 1.531 . S
C755 C754 1.369 . S
C755 C756 1.410 . S
C755 C763 1.503 . S
C756 C755 1.410 . S
C756 C757 1.392 . S
C756 C759 1.511 . S
C757 C753 1.376 . S
C757 C756 1.392 . S
C757 H769 0.929 . S
C758 C754 1.531 . S
C758 H770 0.960 . S
C758 H771 0.962 . S
C758 H772 0.960 . S
C759 C756 1.511 . S
C759 H773 0.961 . S
C759 H774 0.961 . S
C759 H775 0.961 . S
C760 C761 1.370 . S
C760 C762 1.363 . S
C760 H776 0.931 . S
C761 C760 1.370 . S
C761 C765 1.408 . S
C762 C760 1.363 . S
C762 C763 1.370 . S
C762 C766 1.524 . S
C763 C755 1.503 . S
C763 C762 1.370 . S
C763 C764 1.403 . S
C764 C763 1.403 . S
C764 C765 1.404 . S
C764 C767 1.539 . S
C765 C761 1.408 . S
C765 C764 1.404 . S
C765 H777 0.930 . S
C766 C762 1.524 . S
C766 H778 0.956 . S
C766 H779 0.961 . S
C766 H780 0.961 . S
C767 C764 1.539 . S
C767 H781 0.958 . S
C767 H782 0.961 . S
C767 H783 0.960 . S
H768 C752 0.931 . S
H769 C757 0.929 . S
H770 C758 0.960 . S
H771 C758 0.962 . S
H772 C758 0.960 . S
H773 C759 0.961 . S
H774 C759 0.961 . S
H775 C759 0.961 . S
H776 C760 0.931 . S
H777 C765 0.930 . S
H778 C766 0.956 . S
H779 C766 0.961 . S
H780 C766 0.961 . S
H781 C767 0.958 . S
H782 C767 0.961 . S
H783 C767 0.960 . S
C784 C785 1.391 . S
C784 C786 1.394 . S
C784 H800 0.931 . S
C785 C784 1.391 . S
C785 C789 1.376 . S
C786 C784 1.394 . S
C786 C787 1.369 . S
C786 C790 1.531 . S
C787 C786 1.369 . S
C787 C788 1.410 . S
C787 C795 1.503 . S
C788 C787 1.410 . S
C788 C789 1.392 . S
C788 C791 1.511 . S
C789 C785 1.376 . S
C789 C788 1.392 . S
C789 H801 0.929 . S
C790 C786 1.531 . S
C790 H802 0.960 . S
C790 H803 0.962 . S
C790 H804 0.960 . S
C791 C788 1.511 . S
C791 H805 0.961 . S
C791 H806 0.961 . S
C791 H807 0.961 . S
C792 C793 1.370 . S
C792 C794 1.363 . S
C792 H808 0.931 . S
C793 C792 1.370 . S
C793 C797 1.408 . S
C794 C792 1.363 . S
C794 C795 1.370 . S
C794 C798 1.524 . S
C795 C787 1.503 . S
C795 C794 1.370 . S
C795 C796 1.403 . S
C796 C795 1.403 . S
C796 C797 1.404 . S
C796 C799 1.539 . S
C797 C793 1.408 . S
C797 C796 1.404 . S
C797 H809 0.930 . S
C798 C794 1.524 . S
C798 H810 0.956 . S
C798 H811 0.961 . S
C798 H812 0.961 . S
C799 C796 1.539 . S
C799 H813 0.958 . S
C799 H814 0.961 . S
C799 H815 0.960 . S
H800 C784 0.931 . S
H801 C789 0.929 . S
H802 C790 0.960 . S
H803 C790 0.962 . S
H804 C790 0.960 . S
H805 C791 0.961 . S
H806 C791 0.961 . S
H807 C791 0.961 . S
H808 C792 0.931 . S
H809 C797 0.930 . S
H810 C798 0.956 . S
H811 C798 0.961 . S
H812 C798 0.961 . S
H813 C799 0.958 . S
H814 C799 0.961 . S
H815 C799 0.960 . S
C816 C817 1.391 . S
C816 C818 1.394 . S
C816 H832 0.931 . S
C817 C816 1.391 . S
C817 C821 1.376 . S
C818 C816 1.394 . S
C818 C819 1.369 . S
C818 C822 1.531 . S
C819 C818 1.369 . S
C819 C820 1.410 . S
C819 C827 1.503 . S
C820 C819 1.410 . S
C820 C821 1.392 . S
C820 C823 1.511 . S
C821 C817 1.376 . S
C821 C820 1.392 . S
C821 H833 0.929 . S
C822 C818 1.531 . S
C822 H834 0.960 . S
C822 H835 0.962 . S
C822 H836 0.960 . S
C823 C820 1.511 . S
C823 H837 0.961 . S
C823 H838 0.961 . S
C823 H839 0.961 . S
C824 C825 1.370 . S
C824 C826 1.363 . S
C824 H840 0.931 . S
C825 C824 1.370 . S
C825 C829 1.408 . S
C826 C824 1.363 . S
C826 C827 1.370 . S
C826 C830 1.524 . S
C827 C819 1.503 . S
C827 C826 1.370 . S
C827 C828 1.403 . S
C828 C827 1.403 . S
C828 C829 1.404 . S
C828 C831 1.539 . S
C829 C825 1.408 . S
C829 C828 1.404 . S
C829 H841 0.930 . S
C830 C826 1.524 . S
C830 H842 0.956 . S
C830 H843 0.961 . S
C830 H844 0.961 . S
C831 C828 1.539 . S
C831 H845 0.958 . S
C831 H846 0.961 . S
C831 H847 0.960 . S
H832 C816 0.931 . S
H833 C821 0.929 . S
H834 C822 0.960 . S
H835 C822 0.962 . S
H836 C822 0.960 . S
H837 C823 0.961 . S
H838 C823 0.961 . S
H839 C823 0.961 . S
H840 C824 0.931 . S
H841 C829 0.930 . S
H842 C830 0.956 . S
H843 C830 0.961 . S
H844 C830 0.961 . S
H845 C831 0.958 . S
H846 C831 0.961 . S
H847 C831 0.960 . S
C848 C849 1.391 . S
C848 C850 1.394 . S
C848 H864 0.931 . S
C849 C848 1.391 . S
C849 C853 1.376 . S
C850 C848 1.394 . S
C850 C851 1.369 . S
C850 C854 1.531 . S
C851 C850 1.369 . S
C851 C852 1.410 . S
C851 C859 1.503 . S
C852 C851 1.410 . S
C852 C853 1.392 . S
C852 C855 1.511 . S
C853 C849 1.376 . S
C853 C852 1.392 . S
C853 H865 0.929 . S
C854 C850 1.531 . S
C854 H866 0.960 . S
C854 H867 0.962 . S
C854 H868 0.960 . S
C855 C852 1.511 . S
C855 H869 0.961 . S
C855 H870 0.961 . S
C855 H871 0.961 . S
C856 C857 1.370 . S
C856 C858 1.363 . S
C856 H872 0.931 . S
C857 C856 1.370 . S
C857 C861 1.408 . S
C858 C856 1.363 . S
C858 C859 1.370 . S
C858 C862 1.524 . S
C859 C851 1.503 . S
C859 C858 1.370 . S
C859 C860 1.403 . S
C860 C859 1.403 . S
C860 C861 1.404 . S
C860 C863 1.539 . S
C861 C857 1.408 . S
C861 C860 1.404 . S
C861 H873 0.930 . S
C862 C858 1.524 . S
C862 H874 0.956 . S
C862 H875 0.961 . S
C862 H876 0.961 . S
C863 C860 1.539 . S
C863 H877 0.958 . S
C863 H878 0.961 . S
C863 H879 0.960 . S
H864 C848 0.931 . S
H865 C853 0.929 . S
H866 C854 0.960 . S
H867 C854 0.962 . S
H868 C854 0.960 . S
H869 C855 0.961 . S
H870 C855 0.961 . S
H871 C855 0.961 . S
H872 C856 0.931 . S
H873 C861 0.930 . S
H874 C862 0.956 . S
H875 C862 0.961 . S
H876 C862 0.961 . S
H877 C863 0.958 . S
H878 C863 0.961 . S
H879 C863 0.960 . S
C880 C881 1.391 . S
C880 C882 1.394 . S
C880 H896 0.931 . S
C881 C880 1.391 . S
C881 C885 1.376 . S
C882 C880 1.394 . S
C882 C883 1.369 . S
C882 C886 1.531 . S
C883 C882 1.369 . S
C883 C884 1.410 . S
C883 C891 1.503 . S
C884 C883 1.410 . S
C884 C885 1.392 . S
C884 C887 1.511 . S
C885 C881 1.376 . S
C885 C884 1.392 . S
C885 H897 0.929 . S
C886 C882 1.531 . S
C886 H898 0.960 . S
C886 H899 0.962 . S
C886 H900 0.960 . S
C887 C884 1.511 . S
C887 H901 0.961 . S
C887 H902 0.961 . S
C887 H903 0.961 . S
C888 C889 1.370 . S
C888 C890 1.363 . S
C888 H904 0.931 . S
C889 C888 1.370 . S
C889 C893 1.408 . S
C890 C888 1.363 . S
C890 C891 1.370 . S
C890 C894 1.524 . S
C891 C883 1.503 . S
C891 C890 1.370 . S
C891 C892 1.403 . S
C892 C891 1.403 . S
C892 C893 1.404 . S
C892 C895 1.539 . S
C893 C889 1.408 . S
C893 C892 1.404 . S
C893 H905 0.930 . S
C894 C890 1.524 . S
C894 H906 0.956 . S
C894 H907 0.961 . S
C894 H908 0.961 . S
C895 C892 1.539 . S
C895 H909 0.958 . S
C895 H910 0.961 . S
C895 H911 0.960 . S
H896 C880 0.931 . S
H897 C885 0.929 . S
H898 C886 0.960 . S
H899 C886 0.962 . S
H900 C886 0.960 . S
H901 C887 0.961 . S
H902 C887 0.961 . S
H903 C887 0.961 . S
H904 C888 0.931 . S
H905 C893 0.930 . S
H906 C894 0.956 . S
H907 C894 0.961 . S
H908 C894 0.961 . S
H909 C895 0.958 . S
H910 C895 0.961 . S
H911 C895 0.960 . S
C273 C145 1.430 . S
C281 C9 1.467 . S
C305 C43 1.444 . S
C313 C179 1.461 . S
C337 C77 1.478 . S
C345 C213 1.447 . S
C369 C247 1.466 . S
C377 C111 1.456 . S
C401 C243 0.827 . S
C409 C33 0.815 . S
C433 C141 0.807 . S
C441 C67 0.807 . S
C465 C175 0.831 . S
C473 C101 0.815 . S
C497 C209 0.782 . S
C505 C135 0.802 . S
C529 C169 0.813 . S
C537 C107 0.803 . S
C561 C203 0.798 . S
C569 C5 0.796 . S
C593 C237 0.832 . S
C601 C39 0.823 . S
C625 C271 0.824 . S
C633 C73 0.810 . S
C657 C20 1.273 . S
C665 C88 1.279 . S
C689 C54 1.267 . S
C697 C122 1.277 . S
C721 C224 1.278 . S
C729 C156 1.278 . S
C753 C258 1.270 . S
C761 C190 1.279 . S
C785 C70 1.234 . S
C793 C2 1.217 . S
C817 C36 1.237 . S
C825 C104 1.219 . S
C849 C206 1.231 . S
C857 C138 1.224 . S
C881 C240 1.180 . S
C889 C172 1.201 . S
