# Generated by pormake.
# Topology umf, (4)-cn, num edge types: 1
# Building blocks:
#     Node 0, Type 0, BuildingBlock: NAWXER_clean_sbu_0, # of connection points: 4
#     Node 1, Type 0, BuildingBlock: NAWXER_clean_sbu_0, # of connection points: 4
#     Node 2, Type 0, BuildingBlock: NAWXER_clean_sbu_0, # of connection points: 4
#     Node 3, Type 0, BuildingBlock: NAWXER_clean_sbu_0, # of connection points: 4
#     Node 4, Type 0, BuildingBlock: NAWXER_clean_sbu_0, # of connection points: 4
#     Node 5, Type 0, BuildingBlock: NAWXER_clean_sbu_0, # of connection points: 4
#     Node 6, Type 0, BuildingBlock: NAWXER_clean_sbu_0, # of connection points: 4
#     Node 7, Type 0, BuildingBlock: NAWXER_clean_sbu_0, # of connection points: 4
#     Edge 8, Type (0, 0), BuildingBlock: EZIPEK_clean_linker_0, # of connection points: 2
#     Edge 9, Type (0, 0), BuildingBlock: EZIPEK_clean_linker_0, # of connection points: 2
#     Edge 10, Type (0, 0), BuildingBlock: EZIPEK_clean_linker_0, # of connection points: 2
#     Edge 11, Type (0, 0), BuildingBlock: EZIPEK_clean_linker_0, # of connection points: 2
#     Edge 12, Type (0, 0), BuildingBlock: EZIPEK_clean_linker_0, # of connection points: 2
#     Edge 13, Type (0, 0), BuildingBlock: EZIPEK_clean_linker_0, # of connection points: 2
#     Edge 14, Type (0, 0), BuildingBlock: EZIPEK_clean_linker_0, # of connection points: 2
#     Edge 15, Type (0, 0), BuildingBlock: EZIPEK_clean_linker_0, # of connection points: 2
#     Edge 16, Type (0, 0), BuildingBlock: EZIPEK_clean_linker_0, # of connection points: 2
#     Edge 17, Type (0, 0), BuildingBlock: EZIPEK_clean_linker_0, # of connection points: 2
#     Edge 18, Type (0, 0), BuildingBlock: EZIPEK_clean_linker_0, # of connection points: 2
#     Edge 19, Type (0, 0), BuildingBlock: EZIPEK_clean_linker_0, # of connection points: 2
#     Edge 20, Type (0, 0), BuildingBlock: EZIPEK_clean_linker_0, # of connection points: 2
#     Edge 21, Type (0, 0), BuildingBlock: EZIPEK_clean_linker_0, # of connection points: 2
#     Edge 22, Type (0, 0), BuildingBlock: EZIPEK_clean_linker_0, # of connection points: 2
#     Edge 23, Type (0, 0), BuildingBlock: EZIPEK_clean_linker_0, # of connection points: 2
# Relax obj value: 0.064
# Max RMSD: 0.167
# Mean RMSD: 0.166
data_MOF--net-umf--node1-NAWXER_clean_sbu_0--edge1-EZIPEK_clean_linker_0
_symmetry_space_group_name_H-M    P1
_symmetry_Int_Tables_number       1
_symmetry_cell_setting            triclinic
loop_
_symmetry_equiv_pos_as_xyz
'x, y, z'
_cell_length_a     21.099142
_cell_length_b     21.178635
_cell_length_c     38.49876
_cell_angle_alpha  90.31941
_cell_angle_beta   89.295947
_cell_angle_gamma 89.931466
loop_
_atom_site_label
_atom_site_type_symbol
_atom_site_fract_x
_atom_site_fract_y
_atom_site_fract_z
_atom_type_partial_charge
C0 C 0.12698 0.22309 0.21974 0.0
C1 C 0.04404 0.24388 0.10136 0.0
O2 O 0.06655 0.21995 0.21831 0.0
Zn3 Zn 0.9948 0.22278 0.17992 0.0
O4 O 0.15881 0.2336 0.1921 0.0
Zn5 Zn 0.08839 0.23632 0.15968 0.0
O6 O 0.03876 0.32113 0.17322 0.0
O7 O 0.94422 0.29498 0.19402 0.0
O8 O 0.10189 0.24877 0.11009 0.0
O9 O 0.00116 0.23435 0.12458 0.0
O10 O 0.96099 0.13788 0.18304 0.0
O11 O 0.05704 0.14003 0.15983 0.0
C12 C 0.98457 0.33705 0.18579 0.0
C13 C 0.00827 0.10876 0.16972 0.0
C14 C 0.76959 0.15109 0.71679 0.0
C15 C 0.76857 0.03824 0.60456 0.0
O16 O 0.77944 0.09156 0.71907 0.0
Zn17 Zn 0.7858 0.01038 0.68591 0.0
O18 O 0.75906 0.17526 0.68721 0.0
Zn19 Zn 0.76952 0.09761 0.66006 0.0
O20 O 0.68609 0.04593 0.67478 0.0
O21 O 0.71511 0.95961 0.70256 0.0
O22 O 0.76355 0.09749 0.60967 0.0
O23 O 0.776 0.00164 0.63059 0.0
O24 O 0.87216 0.98357 0.69365 0.0
O25 O 0.86775 0.07613 0.66767 0.0
C26 C 0.67166 -0.00494 0.69089 0.0
C27 C 0.90029 0.03106 0.68056 0.0
C28 C 0.95406 0.60735 0.17669 0.0
C29 C 0.97652 0.83707 0.1668 0.0
O30 O 0.903 0.63443 0.16715 0.0
Zn31 Zn 0.87286 0.72686 0.15384 0.0
O32 O 0.00318 0.64057 0.18189 0.0
Zn33 Zn 0.96786 0.723 0.17122 0.0
O34 O 0.89675 0.74051 0.21115 0.0
O35 O 0.80288 0.7382 0.18639 0.0
O36 O 0.01933 0.79764 0.17504 0.0
O37 O 0.92106 0.81681 0.15905 0.0
O38 O 0.85871 0.72026 0.10361 0.0
O39 O 0.96003 0.72161 0.11627 0.0
C40 C 0.83615 0.74542 0.2135 0.0
C41 C 0.91638 0.72062 0.09355 0.0
C42 C 0.40012 0.97099 0.68847 0.0
C43 C 0.17139 0.00924 0.68567 0.0
O44 O 0.37003 0.9256 0.67413 0.0
Zn45 Zn 0.27462 0.90423 0.66152 0.0
O46 O 0.36956 0.01827 0.70031 0.0
Zn47 Zn 0.2845 0.992 0.68777 0.0
O48 O 0.26287 0.91289 0.72062 0.0
O49 O 0.25898 0.82749 0.68769 0.0
O50 O 0.2127 0.04527 0.69924 0.0
O51 O 0.18813 0.95703 0.67118 0.0
O52 O 0.27672 0.90225 0.61116 0.0
O53 O 0.2827 -0.0008 0.63208 0.0
C54 C 0.25356 0.8533 0.71749 0.0
C55 C 0.27978 0.96148 0.60602 0.0
C56 C 0.00232 0.87745 0.87868 0.0
C57 C 0.98735 0.64903 0.86661 0.0
O58 O 0.0509 0.84874 0.89052 0.0
Zn59 Zn 0.08055 0.75306 0.89873 0.0
O60 O 0.95652 0.84542 0.86664 0.0
Zn61 Zn 0.99338 0.7631 0.87207 0.0
O62 O 0.98278 0.75152 0.92687 0.0
O63 O 0.07828 0.74668 0.94927 0.0
O64 O 0.94958 0.68974 0.85432 0.0
O65 O 0.03629 0.66666 0.88343 0.0
O66 O 0.16039 0.75045 0.87288 0.0
O67 O 0.07741 0.76806 0.8399 0.0
C68 C 0.01833 0.74691 0.95341 0.0
C69 C 0.13764 0.7629 0.84322 0.0
C70 C 0.1188 0.01514 0.38971 0.0
C71 C 0.34772 0.99031 0.3829 0.0
O72 O 0.14827 0.06567 0.3982 0.0
Zn73 Zn 0.24445 0.09541 0.40525 0.0
O74 O 0.15003 0.96534 0.38237 0.0
Zn75 Zn 0.23378 -0.00024 0.38754 0.0
O76 O 0.24271 0.00799 0.44202 0.0
O77 O 0.24898 0.10909 0.45554 0.0
O78 O 0.30634 0.94918 0.37516 0.0
O79 O 0.33094 0.0449 0.39431 0.0
O80 O 0.24888 0.16454 0.37116 0.0
O81 O 0.23593 0.07038 0.34861 0.0
C82 C 0.24753 0.05153 0.46494 0.0
C83 C 0.24242 0.12987 0.34426 0.0
C84 C 0.98565 0.14986 0.8798 0.0
C85 C 0.9659 0.37916 0.87702 0.0
O86 O 0.93481 0.17039 0.89447 0.0
Zn87 Zn 0.89002 0.25946 0.90531 0.0
O88 O 0.02626 0.18808 0.86718 0.0
Zn89 Zn 0.98019 0.26392 0.87931 0.0
O90 O 0.98691 0.26223 0.93454 0.0
O91 O 0.88963 0.26199 0.95608 0.0
O92 O 0.01297 0.34625 0.86668 0.0
O93 O 0.91806 0.35201 0.89111 0.0
O94 O 0.8126 0.25046 0.87845 0.0
O95 O 0.90003 0.25229 0.84633 0.0
C96 C 0.94924 0.26207 0.96083 0.0
C97 C 0.83965 0.24699 0.84872 0.0
C98 C 0.84796 0.99 0.38263 0.0
C99 C 0.61924 0.96165 0.38414 0.0
O100 O 0.83085 0.93716 0.39581 0.0
Zn101 Zn 0.74378 0.88722 0.40618 0.0
O102 O 0.80695 0.0289 0.3716 0.0
Zn103 Zn 0.7346 0.97779 0.38319 0.0
O104 O 0.73883 0.98023 0.43875 0.0
O105 O 0.74406 0.88177 0.45675 0.0
O106 O 0.6506 0.00935 0.37393 0.0
O107 O 0.64863 0.91324 0.39547 0.0
O108 O 0.75448 0.81234 0.37722 0.0
O109 O 0.74879 0.90065 0.34725 0.0
C110 C 0.74168 0.94058 0.46366 0.0
C111 C 0.75632 0.84056 0.34812 0.0
C112 C 0.99383 0.44474 0.21269 0.0
C113 C 0.96788 0.40482 0.18688 0.0
C114 C 0.93162 0.49696 0.15446 0.0
C115 C 0.95558 0.53742 0.18099 0.0
N116 N 0.99348 0.54839 0.23966 0.0
N117 N 0.90109 0.3912 0.13708 0.0
C118 C 0.98216 0.51089 0.21139 0.0
C119 C 0.93284 0.43047 0.15918 0.0
N120 N 0.0305 0.41953 0.23816 0.0
N121 N 0.91136 0.52132 0.1237 0.0
H122 H 0.90288 0.34211 0.13873 0.0
H123 H 0.86858 0.40717 0.11897 0.0
H124 H 0.90838 0.56929 0.11856 0.0
H125 H 0.90215 0.49377 0.10185 0.0
H126 H 0.05711 0.44682 0.25519 0.0
H127 H 0.03734 0.371 0.24091 0.0
H128 H 0.00708 0.53077 0.26365 0.0
H129 H 0.98281 0.59647 0.24035 0.0
C130 C 0.50116 0.9751 0.72265 0.0
C131 C 0.47055 0.96878 0.69012 0.0
C132 C 0.57433 0.95976 0.66085 0.0
C133 C 0.60419 0.97604 0.69235 0.0
N134 N 0.59811 -0.0013 0.75359 0.0
N135 N 0.47818 0.95829 0.6275 0.0
C136 C 0.56825 0.98289 0.72349 0.0
C137 C 0.50717 0.96106 0.65904 0.0
N138 N 0.4663 0.97137 0.75274 0.0
N139 N 0.61055 0.94185 0.63276 0.0
H140 H 0.42932 0.95695 0.62458 0.0
H141 H 0.50246 0.96172 0.60388 0.0
H142 H 0.65992 0.93966 0.63348 0.0
H143 H 0.59193 0.92323 0.60998 0.0
H144 H 0.48618 0.96942 0.77732 0.0
H145 H 0.41735 0.96455 0.7531 0.0
H146 H 0.57435 0.01248 0.77625 0.0
H147 H 0.64735 0.00072 0.75542 0.0
C148 C 0.97744 0.47619 0.83996 0.0
C149 C 0.96557 0.44887 0.87309 0.0
C150 C 0.9494 0.55453 0.89811 0.0
C151 C 0.97108 0.58135 0.8666 0.0
N152 N 0.00647 0.56985 0.80731 0.0
N153 N 0.94476 0.46274 0.93477 0.0
C154 C 0.98492 0.54281 0.83733 0.0
C155 C 0.95204 0.48818 0.90241 0.0
N156 N 0.97867 0.43884 0.81087 0.0
N157 N 0.92505 0.59273 0.92378 0.0
H158 H 0.94424 0.41453 0.93952 0.0
H159 H 0.94389 0.48959 0.95751 0.0
H160 H 0.92146 0.64158 0.92116 0.0
H161 H 0.90246 0.57582 0.94605 0.0
H162 H 0.98086 0.45657 0.78572 0.0
H163 H 0.97148 0.39017 0.81159 0.0
H164 H 0.02522 0.54419 0.78644 0.0
H165 H 0.00809 0.61866 0.80395 0.0
C166 C 0.44548 0.95685 0.41318 0.0
C167 C 0.4157 0.97427 0.38185 0.0
C168 C 0.51819 0.97507 0.35119 0.0
C169 C 0.54884 0.96199 0.38306 0.0
N170 N 0.54145 0.92866 0.44317 0.0
N171 N 0.42147 0.00482 0.3218 0.0
C172 C 0.51243 0.94916 0.41369 0.0
C173 C 0.45137 0.98408 0.35095 0.0
N174 N 0.40968 0.95095 0.44292 0.0
N175 N 0.55269 0.97535 0.32085 0.0
H176 H 0.37234 0.00958 0.32038 0.0
H177 H 0.44514 0.02083 0.29969 0.0
H178 H 0.6014 0.96716 0.31978 0.0
H179 H 0.5327 0.97791 0.29633 0.0
H180 H 0.42824 0.94784 0.46775 0.0
H181 H 0.36027 0.95226 0.44315 0.0
H182 H 0.51743 0.91065 0.46466 0.0
H183 H 0.59022 0.92573 0.44601 0.0
C184 C 0.96624 0.20069 1.01579 0.0
C185 C 0.97598 0.25683 0.99637 0.0
C186 C 0.03189 0.30434 0.04572 0.0
C187 C 0.02489 0.2473 0.06442 0.0
N188 N -0.00224 0.13685 0.06487 0.0
N189 N 0.03268 0.35533 0.9897 0.0
C190 C 0.99534 0.19423 0.0488 0.0
C191 C 0.01342 0.30654 1.01032 0.0
N192 N 0.92987 0.15309 1.00255 0.0
N193 N 0.05345 0.35737 0.06216 0.0
H194 H 0.02154 0.35837 0.96354 0.0
H195 H 0.06512 0.3894 0.99758 0.0
H196 H 0.06744 0.3578 0.08805 0.0
H197 H 0.05226 0.40211 0.05108 0.0
H198 H 0.91432 0.1147 1.0171 0.0
H199 H 0.91229 0.15326 0.97736 0.0
H200 H 0.98287 0.09482 0.05349 0.0
H201 H 0.02033 0.13008 0.08852 0.0
C202 C 0.70455 0.02324 0.55043 0.0
C203 C 0.761 0.01089 0.56898 0.0
C204 C 0.80355 0.95086 0.51881 0.0
C205 C 0.74753 0.96411 0.50008 0.0
N206 N 0.64959 0.0226 0.49558 0.0
N207 N 0.85829 0.95113 0.57369 0.0
C208 C 0.69942 0.00304 0.5152 0.0
C209 C 0.8087 0.97115 0.55404 0.0
N210 N 0.65375 0.05005 0.56738 0.0
N211 N 0.85417 0.92333 0.50202 0.0
H212 H 0.86549 0.96564 0.59914 0.0
H213 H 0.88973 0.91574 0.56588 0.0
H214 H 0.85341 0.90929 0.47604 0.0
H215 H 0.8992 0.91989 0.51259 0.0
H216 H 0.60866 0.05325 0.55685 0.0
H217 H 0.65441 0.06328 0.5935 0.0
H218 H 0.61761 0.05744 0.50349 0.0
H219 H 0.64267 0.00796 0.4701 0.0
C220 C 0.97909 0.67792 0.0424 0.0
C221 C 0.93498 0.72304 0.05596 0.0
C222 C 0.94353 0.78332 1.00139 0.0
C223 C 0.98872 0.73868 0.98846 0.0
N224 N 0.03384 0.63439 0.992 0.0
N225 N 0.87624 0.82012 0.04911 0.0
C226 C 0.00228 0.68355 1.00771 0.0
C227 C 0.91637 0.77544 0.03532 0.0
N228 N 0.00044 0.6302 0.06299 0.0
N229 N 0.92633 0.83317 0.98105 0.0
H230 H 0.8544 0.81631 0.07336 0.0
H231 H 0.86607 0.86317 0.03764 0.0
H232 H 0.94838 0.84377 0.9575 0.0
H233 H 0.88854 0.86333 0.98637 0.0
H234 H 0.03913 0.60173 0.05651 0.0
H235 H 0.98221 0.62121 0.08766 0.0
H236 H 0.03831 0.58987 1.00305 0.0
H237 H 0.05 0.63555 0.96631 0.0
C238 C 0.31004 0.04804 0.52021 0.0
C239 C 0.25374 0.03307 0.50204 0.0
C240 C 0.2139 0.97388 0.5527 0.0
C241 C 0.27089 0.9875 0.57052 0.0
N242 N 0.3663 0.04991 0.57467 0.0
N243 N 0.15545 0.97483 0.49905 0.0
C244 C 0.31683 0.02838 0.55533 0.0
C245 C 0.20658 0.9942 0.51781 0.0
N246 N 0.35937 0.07652 0.50302 0.0
N247 N 0.16465 0.94549 0.57007 0.0
H248 H 0.14574 0.99114 0.47427 0.0
H249 H 0.12455 0.93929 0.50696 0.0
H250 H 0.16694 0.93139 0.59591 0.0
H251 H 0.11907 0.94151 0.56029 0.0
H252 H 0.40462 0.08108 0.51319 0.0
H253 H 0.3573 0.09062 0.47717 0.0
H254 H 0.39674 0.08578 0.56665 0.0
H255 H 0.37407 0.03609 0.60012 0.0
C256 C 0.15455 0.13982 0.26258 0.0
C257 C 0.15938 0.20354 0.25211 0.0
C258 C 0.23285 0.22185 0.3006 0.0
C259 C 0.22976 0.15626 0.30872 0.0
N260 N 0.219 0.0538 0.28102 0.0
N261 N 0.20991 0.30482 0.25868 0.0
C262 C 0.20078 0.11538 0.28452 0.0
C263 C 0.20115 0.24459 0.27022 0.0
N264 N 0.10565 0.10206 0.25274 0.0
N265 N 0.26701 0.26171 0.32103 0.0
H266 H 0.1846 0.32333 0.23795 0.0
H267 H 0.24391 0.33539 0.26855 0.0
H268 H 0.29881 0.24529 0.33942 0.0
H269 H 0.26456 0.31069 0.31938 0.0
H270 H 0.0999 0.05667 0.26275 0.0
H271 H 0.06797 0.11719 0.2378 0.0
H272 H 0.1993 0.02382 0.26245 0.0
H273 H 0.25987 0.03631 0.29258 0.0
C274 C 0.82176 0.26942 0.78608 0.0
C275 C 0.80422 0.23465 0.81613 0.0
C276 C 0.74069 0.16529 0.77931 0.0
C277 C 0.77165 0.1895 0.74933 0.0
N278 N 0.84598 0.26442 0.72463 0.0
N279 N 0.74926 0.14448 0.84062 0.0
C280 C 0.81242 0.24247 0.75261 0.0
C281 C 0.76315 0.18191 0.81278 0.0
N282 N 0.84781 0.32806 0.78968 0.0
N283 N 0.6898 0.12618 0.77567 0.0
H284 H 0.7653 0.15327 0.86562 0.0
H285 H 0.72576 0.10144 0.83826 0.0
H286 H 0.67119 0.11532 0.75136 0.0
H287 H 0.66214 0.11096 0.79662 0.0
H288 H 0.85697 0.35778 0.76873 0.0
H289 H 0.85352 0.34945 0.81394 0.0
H290 H 0.88183 0.29797 0.72679 0.0
H291 H 0.84184 0.24603 0.69965 0.0
C292 C 0.81957 0.7621 0.31125 0.0
C293 C 0.76888 0.80607 0.3148 0.0
C294 C 0.75912 0.80872 0.25138 0.0
C295 C 0.80672 0.76138 0.24795 0.0
N296 N 0.86551 0.6785 0.276 0.0
N297 N 0.67709 0.85323 0.28856 0.0
C298 C 0.83143 0.73327 0.27837 0.0
C299 C 0.73421 0.82335 0.28493 0.0
N300 N 0.85941 0.75072 0.33822 0.0
N301 N 0.74057 0.84325 0.2234 0.0
H302 H 0.65602 0.8618 0.3128 0.0
H303 H 0.64764 0.86238 0.26763 0.0
H304 H 0.76008 0.83795 0.1986 0.0
H305 H 0.71058 0.88225 0.22571 0.0
H306 H 0.90064 0.72392 0.33539 0.0
H307 H 0.85548 0.773 0.36231 0.0
H308 H 0.88019 0.65354 0.29775 0.0
H309 H 0.87234 0.65424 0.25258 0.0
C310 C 0.18053 0.77558 0.74836 0.0
C311 C 0.23361 0.81696 0.74887 0.0
C312 C 0.23057 0.81657 0.81264 0.0
C313 C 0.17889 0.77356 0.81204 0.0
N314 N 0.1221 0.69496 0.77945 0.0
N315 N 0.32194 0.85725 0.78137 0.0
C316 C 0.15988 0.74724 0.77987 0.0
C317 C 0.26294 0.83079 0.78103 0.0
N318 N 0.1464 0.76673 0.7188 0.0
N319 N 0.24632 0.84755 0.84253 0.0
H320 H 0.34789 0.86575 0.75862 0.0
H321 H 0.34764 0.86366 0.80406 0.0
H322 H 0.223 0.84103 0.86619 0.0
H323 H 0.27909 0.88432 0.84304 0.0
H324 H 0.1036 0.74219 0.71857 0.0
H325 H 0.15665 0.78874 0.69532 0.0
H326 H 0.11081 0.67083 0.75668 0.0
H327 H 0.10872 0.6717 0.80221 0.0
C328 C 0.04973 -0.00041 0.18237 0.0
C329 C 0.00645 0.0391 0.16481 0.0
C330 C 0.95864 0.94421 0.14002 0.0
C331 C 0.98994 0.90626 0.16502 0.0
N332 N 0.05692 0.90461 0.21593 0.0
N333 N 0.9176 0.04763 0.12609 0.0
C334 C 0.03353 0.93557 0.18782 0.0
C335 C 0.95965 0.01101 0.14365 0.0
N336 N 0.10703 0.02161 0.19293 0.0
N337 N 0.93227 0.9171 0.11139 0.0
H338 H 0.91979 0.09682 0.12585 0.0
H339 H 0.87868 0.02881 0.11323 0.0
H340 H 0.93804 0.86938 0.10547 0.0
H341 H 0.91311 0.94323 0.0912 0.0
H342 H 0.14129 0.99206 0.20351 0.0
H343 H 0.12313 0.06697 0.18754 0.0
H344 H 0.08526 0.92711 0.23425 0.0
H345 H 0.04175 0.85995 0.22351 0.0
C346 C 0.06689 0.02641 0.7162 0.0
C347 C 0.10366 0.02712 0.68519 0.0
C348 C 0.00735 0.03842 0.6507 0.0
C349 C 0.97045 0.036 0.68179 0.0
N350 N 0.96641 0.05194 0.74369 0.0
N351 N 0.11167 0.05094 0.62425 0.0
C352 C 0.00061 0.03724 0.71445 0.0
C353 C 0.07464 0.03842 0.65278 0.0
N354 N 0.09449 0.01226 0.74714 0.0
N355 N 0.97831 0.03898 0.61919 0.0
H356 H 0.16104 0.05257 0.62526 0.0
H357 H 0.09384 0.06532 0.60048 0.0
H358 H 0.9296 0.04423 0.61656 0.0
H359 H 0.00214 0.03175 0.59566 0.0
H360 H 0.06848 0.00382 0.76983 0.0
H361 H 0.14307 0.00464 0.74963 0.0
H362 H 0.98793 0.06249 0.76722 0.0
H363 H 0.91776 0.06085 0.74342 0.0
C364 C 0.96519 0.04587 0.85121 0.0
C365 C -0.00462 0.0811 0.87761 0.0
C366 C 0.02438 0.98336 0.90692 0.0
C367 C 0.0008 0.94777 0.87828 0.0
N368 N 0.96415 0.94787 0.81891 0.0
N369 N 0.0623 0.08456 0.9278 0.0
C370 C 0.97536 0.97974 0.84919 0.0
C371 C 0.0282 0.05014 0.90441 0.0
N372 N 0.926 0.07526 0.82837 0.0
N373 N 0.03901 0.95439 0.93745 0.0
H374 H 0.0645 0.13377 0.92735 0.0
H375 H 0.09268 0.06411 0.94568 0.0
H376 H 0.03385 0.90622 0.94166 0.0
H377 H 0.04971 0.97911 0.9601 0.0
H378 H 0.89622 0.05053 0.81173 0.0
H379 H 0.91974 0.1241 0.82783 0.0
H380 H 0.94816 0.96967 0.79651 0.0
H381 H 0.97767 0.90109 0.8147 0.0
C382 C 0.94245 0.03767 0.41038 0.0
C383 C 0.91591 0.00552 0.38174 0.0
C384 C 0.02117 0.99297 0.35527 0.0
C385 C 0.04874 0.01606 0.38636 0.0
N386 N 0.03541 0.05825 0.44465 0.0
N387 N 0.92857 0.94816 0.32786 0.0
C388 C 0.00938 0.03873 0.41409 0.0
C389 C 0.95483 0.98207 0.35436 0.0
N390 N 0.9035 0.06727 0.43405 0.0
N391 N 0.0579 0.98439 0.3261 0.0
H392 H 0.87978 0.94165 0.32553 0.0
H393 H 0.95531 0.92324 0.30944 0.0
H394 H 0.10613 -0.00487 0.32516 0.0
H395 H 0.03946 0.97328 0.30186 0.0
H396 H 0.91976 0.0974 0.45344 0.0
H397 H 0.85417 0.06609 0.43254 0.0
H398 H 0.00906 0.06661 0.46726 0.0
H399 H 0.08386 0.06252 0.44846 0.0
loop_
_geom_bond_atom_site_label_1
_geom_bond_atom_site_label_2
_geom_bond_distance
_geom_bond_site_symmetry_2
_ccdc_geom_bond_type
C0 O2 1.247 . S
C0 O4 1.258 . S
C1 O8 1.247 . S
C1 O9 1.258 1_455 S
O2 C0 1.247 . S
O2 Zn3 2.028 . S
Zn3 O2 2.028 . S
Zn3 O7 2.035 . S
Zn3 O9 2.035 1_455 S
Zn3 O10 2.028 . S
O4 C0 1.258 . S
O4 Zn5 2.035 . S
Zn5 O4 2.035 . S
Zn5 O6 2.028 . S
Zn5 O8 2.028 . S
Zn5 O11 2.035 . S
O6 Zn5 2.028 . S
O6 C12 1.247 . S
O7 Zn3 2.035 . S
O7 C12 1.258 . S
O8 C1 1.247 . S
O8 Zn5 2.028 . S
O9 C1 1.258 1_655 S
O9 Zn3 2.035 1_655 S
O10 Zn3 2.028 . S
O10 C13 1.247 . S
O11 Zn5 2.035 . S
O11 C13 1.258 . S
C12 O6 1.247 . S
C12 O7 1.258 . S
C13 O10 1.247 . S
C13 O11 1.258 . S
C14 O16 1.247 . S
C14 O18 1.258 . S
C15 O22 1.247 . S
C15 O23 1.258 1_545 S
O16 C14 1.247 . S
O16 Zn17 2.028 . S
Zn17 O16 2.028 . S
Zn17 O21 2.035 . S
Zn17 O23 2.035 1_545 S
Zn17 O24 2.028 . S
O18 C14 1.258 . S
O18 Zn19 2.035 . S
Zn19 O18 2.035 . S
Zn19 O20 2.028 . S
Zn19 O22 2.028 . S
Zn19 O25 2.035 . S
O20 Zn19 2.028 . S
O20 C26 1.247 . S
O21 Zn17 2.035 . S
O21 C26 1.258 . S
O22 C15 1.247 . S
O22 Zn19 2.028 . S
O23 C15 1.258 1_565 S
O23 Zn17 2.035 1_565 S
O24 Zn17 2.028 . S
O24 C27 1.247 . S
O25 Zn19 2.035 . S
O25 C27 1.258 . S
C26 O20 1.247 . S
C26 O21 1.258 . S
C27 O24 1.247 . S
C27 O25 1.258 . S
C28 O30 1.247 . S
C28 O32 1.258 . S
C29 O36 1.247 . S
C29 O37 1.258 . S
O30 C28 1.247 . S
O30 Zn31 2.028 . S
Zn31 O30 2.028 . S
Zn31 O35 2.035 . S
Zn31 O37 2.035 . S
Zn31 O38 2.028 . S
O32 C28 1.258 . S
O32 Zn33 2.035 . S
Zn33 O32 2.035 . S
Zn33 O34 2.028 . S
Zn33 O36 2.028 . S
Zn33 O39 2.035 1_655 S
O34 Zn33 2.028 . S
O34 C40 1.247 . S
O35 Zn31 2.035 . S
O35 C40 1.258 . S
O36 C29 1.247 . S
O36 Zn33 2.028 . S
O37 C29 1.258 . S
O37 Zn31 2.035 . S
O38 Zn31 2.028 . S
O38 C41 1.247 . S
O39 Zn33 2.035 1_455 S
O39 C41 1.258 1_455 S
C40 O34 1.247 . S
C40 O35 1.258 . S
C41 O38 1.247 . S
C41 O39 1.258 1_655 S
C42 O44 1.247 . S
C42 O46 1.258 . S
C43 O50 1.247 . S
C43 O51 1.258 . S
O44 C42 1.247 . S
O44 Zn45 2.028 . S
Zn45 O44 2.028 . S
Zn45 O49 2.035 . S
Zn45 O51 2.035 . S
Zn45 O52 2.028 . S
O46 C42 1.258 . S
O46 Zn47 2.035 . S
Zn47 O46 2.035 . S
Zn47 O48 2.028 . S
Zn47 O50 2.028 . S
Zn47 O53 2.035 1_565 S
O48 Zn47 2.028 . S
O48 C54 1.247 . S
O49 Zn45 2.035 . S
O49 C54 1.258 . S
O50 C43 1.247 . S
O50 Zn47 2.028 . S
O51 C43 1.258 . S
O51 Zn45 2.035 . S
O52 Zn45 2.028 . S
O52 C55 1.247 . S
O53 Zn47 2.035 1_545 S
O53 C55 1.258 1_545 S
C54 O48 1.247 . S
C54 O49 1.258 . S
C55 O52 1.247 . S
C55 O53 1.258 1_565 S
C56 O58 1.247 . S
C56 O60 1.258 . S
C57 O64 1.247 . S
C57 O65 1.258 . S
O58 C56 1.247 . S
O58 Zn59 2.028 . S
Zn59 O58 2.028 . S
Zn59 O63 2.035 . S
Zn59 O65 2.035 . S
Zn59 O66 2.028 . S
O60 C56 1.258 . S
O60 Zn61 2.035 . S
Zn61 O60 2.035 . S
Zn61 O62 2.028 1_455 S
Zn61 O64 2.028 . S
Zn61 O67 2.035 . S
O62 Zn61 2.028 1_655 S
O62 C68 1.247 1_655 S
O63 Zn59 2.035 . S
O63 C68 1.258 . S
O64 C57 1.247 . S
O64 Zn61 2.028 . S
O65 C57 1.258 . S
O65 Zn59 2.035 . S
O66 Zn59 2.028 . S
O66 C69 1.247 . S
O67 Zn61 2.035 . S
O67 C69 1.258 . S
C68 O62 1.247 1_455 S
C68 O63 1.258 . S
C69 O66 1.247 . S
C69 O67 1.258 . S
C70 O72 1.247 . S
C70 O74 1.258 . S
C71 O78 1.247 . S
C71 O79 1.258 . S
O72 C70 1.247 . S
O72 Zn73 2.028 . S
Zn73 O72 2.028 . S
Zn73 O77 2.035 . S
Zn73 O79 2.035 . S
Zn73 O80 2.028 . S
O74 C70 1.258 . S
O74 Zn75 2.035 . S
Zn75 O74 2.035 . S
Zn75 O76 2.028 1_545 S
Zn75 O78 2.028 . S
Zn75 O81 2.035 . S
O76 Zn75 2.028 1_565 S
O76 C82 1.247 1_565 S
O77 Zn73 2.035 . S
O77 C82 1.258 . S
O78 C71 1.247 . S
O78 Zn75 2.028 . S
O79 C71 1.258 . S
O79 Zn73 2.035 . S
O80 Zn73 2.028 . S
O80 C83 1.247 . S
O81 Zn75 2.035 . S
O81 C83 1.258 . S
C82 O76 1.247 1_545 S
C82 O77 1.258 . S
C83 O80 1.247 . S
C83 O81 1.258 . S
C84 O86 1.247 . S
C84 O88 1.258 . S
C85 O92 1.247 . S
C85 O93 1.258 . S
O86 C84 1.247 . S
O86 Zn87 2.028 . S
Zn87 O86 2.028 . S
Zn87 O91 2.035 . S
Zn87 O93 2.035 . S
Zn87 O94 2.028 . S
O88 C84 1.258 . S
O88 Zn89 2.035 . S
Zn89 O88 2.035 . S
Zn89 O90 2.028 1_655 S
Zn89 O92 2.028 . S
Zn89 O95 2.035 . S
O90 Zn89 2.028 1_455 S
O90 C96 1.247 1_455 S
O91 Zn87 2.035 . S
O91 C96 1.258 . S
O92 C85 1.247 . S
O92 Zn89 2.028 . S
O93 C85 1.258 . S
O93 Zn87 2.035 . S
O94 Zn87 2.028 . S
O94 C97 1.247 . S
O95 Zn89 2.035 . S
O95 C97 1.258 . S
C96 O90 1.247 1_655 S
C96 O91 1.258 . S
C97 O94 1.247 . S
C97 O95 1.258 . S
C98 O100 1.247 . S
C98 O102 1.258 . S
C99 O106 1.247 . S
C99 O107 1.258 . S
O100 C98 1.247 . S
O100 Zn101 2.028 . S
Zn101 O100 2.028 . S
Zn101 O105 2.035 . S
Zn101 O107 2.035 . S
Zn101 O108 2.028 . S
O102 C98 1.258 . S
O102 Zn103 2.035 . S
Zn103 O102 2.035 . S
Zn103 O104 2.028 1_565 S
Zn103 O106 2.028 . S
Zn103 O109 2.035 . S
O104 Zn103 2.028 1_545 S
O104 C110 1.247 1_545 S
O105 Zn101 2.035 . S
O105 C110 1.258 . S
O106 C99 1.247 . S
O106 Zn103 2.028 . S
O107 C99 1.258 . S
O107 Zn101 2.035 . S
O108 Zn101 2.028 . S
O108 C111 1.247 . S
O109 Zn103 2.035 . S
O109 C111 1.258 . S
C110 O104 1.247 1_565 S
C110 O105 1.258 . S
C111 O108 1.247 . S
C111 O109 1.258 . S
C112 C113 1.363 1_655 S
C112 C118 1.379 . S
C112 N120 1.356 1_655 S
C113 C112 1.363 1_455 S
C113 C119 1.363 . S
C114 C115 1.363 1_455 S
C114 C119 1.379 . S
C114 N121 1.356 1_455 S
C115 C114 1.363 1_655 S
C115 C118 1.363 . S
N116 C118 1.356 . S
N116 H128 0.984 . S
N116 H129 0.985 . S
N117 C119 1.356 . S
N117 H122 0.984 . S
N117 H123 0.985 . S
C118 C112 1.379 . S
C118 C115 1.363 . S
C118 N116 1.356 . S
C119 C113 1.363 . S
C119 C114 1.379 . S
C119 N117 1.356 . S
N120 C112 1.356 1_455 S
N120 H126 0.984 1_455 S
N120 H127 0.984 . S
N121 C114 1.356 1_655 S
N121 H124 0.984 . S
N121 H125 0.985 1_655 S
H122 N117 0.984 . S
H123 N117 0.985 . S
H124 N121 0.984 . S
H125 N121 0.985 1_455 S
H126 N120 0.984 1_655 S
H127 N120 0.984 . S
H128 N116 0.984 . S
H129 N116 0.985 . S
C130 C131 1.363 1_545 S
C130 C136 1.379 . S
C130 N138 1.356 1_545 S
C131 C130 1.363 1_565 S
C131 C137 1.363 . S
C132 C133 1.363 1_565 S
C132 C137 1.379 . S
C132 N139 1.356 1_565 S
C133 C132 1.363 1_545 S
C133 C136 1.363 . S
N134 C136 1.356 . S
N134 H146 0.984 . S
N134 H147 0.985 . S
N135 C137 1.356 . S
N135 H140 0.984 . S
N135 H141 0.985 . S
C136 C130 1.379 . S
C136 C133 1.363 . S
C136 N134 1.356 . S
C137 C131 1.363 . S
C137 C132 1.379 . S
C137 N135 1.356 . S
N138 C130 1.356 1_565 S
N138 H144 0.984 1_565 S
N138 H145 0.984 . S
N139 C132 1.356 1_545 S
N139 H142 0.984 . S
N139 H143 0.985 1_545 S
H140 N135 0.984 . S
H141 N135 0.985 . S
H142 N139 0.984 . S
H143 N139 0.985 1_565 S
H144 N138 0.984 1_545 S
H145 N138 0.984 . S
H146 N134 0.984 . S
H147 N134 0.985 . S
C148 C149 1.363 1_455 S
C148 C154 1.379 . S
C148 N156 1.356 1_455 S
C149 C148 1.363 1_655 S
C149 C155 1.363 . S
C150 C151 1.363 1_655 S
C150 C155 1.379 . S
C150 N157 1.356 1_655 S
C151 C150 1.363 1_455 S
C151 C154 1.363 . S
N152 C154 1.356 . S
N152 H164 0.984 . S
N152 H165 0.985 . S
N153 C155 1.356 . S
N153 H158 0.984 . S
N153 H159 0.985 . S
C154 C148 1.379 . S
C154 C151 1.363 . S
C154 N152 1.356 . S
C155 C149 1.363 . S
C155 C150 1.379 . S
C155 N153 1.356 . S
N156 C148 1.356 1_655 S
N156 H162 0.984 1_655 S
N156 H163 0.984 . S
N157 C150 1.356 1_455 S
N157 H160 0.984 . S
N157 H161 0.985 1_455 S
H158 N153 0.984 . S
H159 N153 0.985 . S
H160 N157 0.984 . S
H161 N157 0.985 1_655 S
H162 N156 0.984 1_455 S
H163 N156 0.984 . S
H164 N152 0.984 . S
H165 N152 0.985 . S
C166 C167 1.363 . S
C166 C172 1.379 . S
C166 N174 1.356 . S
C167 C166 1.363 . S
C167 C173 1.363 1_545 S
C168 C169 1.363 . S
C168 C173 1.379 . S
C168 N175 1.356 . S
C169 C168 1.363 . S
C169 C172 1.363 1_565 S
N170 C172 1.356 1_565 S
N170 H182 0.984 1_565 S
N170 H183 0.985 . S
N171 C173 1.356 1_545 S
N171 H176 0.984 . S
N171 H177 0.985 1_545 S
C172 C166 1.379 . S
C172 C169 1.363 1_545 S
C172 N170 1.356 1_545 S
C173 C167 1.363 1_565 S
C173 C168 1.379 . S
C173 N171 1.356 1_565 S
N174 C166 1.356 . S
N174 H180 0.984 . S
N174 H181 0.984 . S
N175 C168 1.356 . S
N175 H178 0.984 . S
N175 H179 0.985 . S
H176 N171 0.984 . S
H177 N171 0.985 1_565 S
H178 N175 0.984 . S
H179 N175 0.985 . S
H180 N174 0.984 . S
H181 N174 0.984 . S
H182 N170 0.984 1_545 S
H183 N170 0.985 . S
C184 C185 1.363 . S
C184 C190 1.379 1_556 S
C184 N192 1.356 . S
C185 C184 1.363 . S
C185 C191 1.363 1_655 S
C186 C187 1.363 . S
C186 C191 1.379 1_554 S
C186 N193 1.356 . S
C187 C186 1.363 . S
C187 C190 1.363 1_455 S
N188 C190 1.356 . S
N188 H200 0.984 . S
N188 H201 0.985 . S
N189 C191 1.356 . S
N189 H194 0.984 . S
N189 H195 0.985 . S
C190 C184 1.379 1_554 S
C190 C187 1.363 1_655 S
C190 N188 1.356 . S
C191 C185 1.363 1_455 S
C191 C186 1.379 1_556 S
C191 N189 1.356 . S
N192 C184 1.356 . S
N192 H198 0.984 . S
N192 H199 0.984 . S
N193 C186 1.356 . S
N193 H196 0.984 . S
N193 H197 0.985 . S
H194 N189 0.984 . S
H195 N189 0.985 . S
H196 N193 0.984 . S
H197 N193 0.985 . S
H198 N192 0.984 . S
H199 N192 0.984 . S
H200 N188 0.984 . S
H201 N188 0.985 . S
C202 C203 1.363 . S
C202 C208 1.379 . S
C202 N210 1.356 . S
C203 C202 1.363 . S
C203 C209 1.363 1_545 S
C204 C205 1.363 . S
C204 C209 1.379 . S
C204 N211 1.356 . S
C205 C204 1.363 . S
C205 C208 1.363 1_565 S
N206 C208 1.356 . S
N206 H218 0.984 . S
N206 H219 0.985 . S
N207 C209 1.356 . S
N207 H212 0.984 . S
N207 H213 0.985 . S
C208 C202 1.379 . S
C208 C205 1.363 1_545 S
C208 N206 1.356 . S
C209 C203 1.363 1_565 S
C209 C204 1.379 . S
C209 N207 1.356 . S
N210 C202 1.356 . S
N210 H216 0.984 . S
N210 H217 0.984 . S
N211 C204 1.356 . S
N211 H214 0.984 . S
N211 H215 0.985 . S
H212 N207 0.984 . S
H213 N207 0.985 . S
H214 N211 0.984 . S
H215 N211 0.985 . S
H216 N210 0.984 . S
H217 N210 0.984 . S
H218 N206 0.984 . S
H219 N206 0.985 . S
C220 C221 1.363 1_455 S
C220 C226 1.379 1_554 S
C220 N228 1.356 . S
C221 C220 1.363 1_655 S
C221 C227 1.363 . S
C222 C223 1.363 1_655 S
C222 C227 1.379 1_556 S
C222 N229 1.356 . S
C223 C222 1.363 1_455 S
C223 C226 1.363 . S
N224 C226 1.356 . S
N224 H236 0.984 . S
N224 H237 0.985 . S
N225 C227 1.356 . S
N225 H230 0.984 . S
N225 H231 0.985 . S
C226 C220 1.379 1_556 S
C226 C223 1.363 . S
C226 N224 1.356 . S
C227 C221 1.363 . S
C227 C222 1.379 1_554 S
C227 N225 1.356 . S
N228 C220 1.356 . S
N228 H234 0.984 . S
N228 H235 0.984 . S
N229 C222 1.356 . S
N229 H232 0.984 . S
N229 H233 0.985 . S
H230 N225 0.984 . S
H231 N225 0.985 . S
H232 N229 0.984 . S
H233 N229 0.985 . S
H234 N228 0.984 . S
H235 N228 0.984 . S
H236 N224 0.984 . S
H237 N224 0.985 . S
C238 C239 1.363 . S
C238 C244 1.379 . S
C238 N246 1.356 . S
C239 C238 1.363 . S
C239 C245 1.363 1_545 S
C240 C241 1.363 . S
C240 C245 1.379 . S
C240 N247 1.356 . S
C241 C240 1.363 . S
C241 C244 1.363 1_565 S
N242 C244 1.356 . S
N242 H254 0.984 . S
N242 H255 0.985 . S
N243 C245 1.356 . S
N243 H248 0.984 . S
N243 H249 0.985 . S
C244 C238 1.379 . S
C244 C241 1.363 1_545 S
C244 N242 1.356 . S
C245 C239 1.363 1_565 S
C245 C240 1.379 . S
C245 N243 1.356 . S
N246 C238 1.356 . S
N246 H252 0.984 . S
N246 H253 0.984 . S
N247 C240 1.356 . S
N247 H250 0.984 . S
N247 H251 0.985 . S
H248 N243 0.984 . S
H249 N243 0.985 . S
H250 N247 0.984 . S
H251 N247 0.985 . S
H252 N246 0.984 . S
H253 N246 0.984 . S
H254 N242 0.984 . S
H255 N242 0.985 . S
C256 C257 1.363 . S
C256 C262 1.379 . S
C256 N264 1.356 . S
C257 C256 1.363 . S
C257 C263 1.363 . S
C258 C259 1.363 . S
C258 C263 1.379 . S
C258 N265 1.356 . S
C259 C258 1.363 . S
C259 C262 1.363 . S
N260 C262 1.356 . S
N260 H272 0.984 . S
N260 H273 0.985 . S
N261 C263 1.356 . S
N261 H266 0.984 . S
N261 H267 0.985 . S
C262 C256 1.379 . S
C262 C259 1.363 . S
C262 N260 1.356 . S
C263 C257 1.363 . S
C263 C258 1.379 . S
C263 N261 1.356 . S
N264 C256 1.356 . S
N264 H270 0.984 . S
N264 H271 0.984 . S
N265 C258 1.356 . S
N265 H268 0.984 . S
N265 H269 0.985 . S
H266 N261 0.984 . S
H267 N261 0.985 . S
H268 N265 0.984 . S
H269 N265 0.985 . S
H270 N264 0.984 . S
H271 N264 0.984 . S
H272 N260 0.984 . S
H273 N260 0.985 . S
C274 C275 1.363 . S
C274 C280 1.379 . S
C274 N282 1.356 . S
C275 C274 1.363 . S
C275 C281 1.363 . S
C276 C277 1.363 . S
C276 C281 1.379 . S
C276 N283 1.356 . S
C277 C276 1.363 . S
C277 C280 1.363 . S
N278 C280 1.356 . S
N278 H290 0.984 . S
N278 H291 0.985 . S
N279 C281 1.356 . S
N279 H284 0.984 . S
N279 H285 0.985 . S
C280 C274 1.379 . S
C280 C277 1.363 . S
C280 N278 1.356 . S
C281 C275 1.363 . S
C281 C276 1.379 . S
C281 N279 1.356 . S
N282 C274 1.356 . S
N282 H288 0.984 . S
N282 H289 0.984 . S
N283 C276 1.356 . S
N283 H286 0.984 . S
N283 H287 0.985 . S
H284 N279 0.984 . S
H285 N279 0.985 . S
H286 N283 0.984 . S
H287 N283 0.985 . S
H288 N282 0.984 . S
H289 N282 0.984 . S
H290 N278 0.984 . S
H291 N278 0.985 . S
C292 C293 1.363 . S
C292 C298 1.379 . S
C292 N300 1.356 . S
C293 C292 1.363 . S
C293 C299 1.363 . S
C294 C295 1.363 . S
C294 C299 1.379 . S
C294 N301 1.356 . S
C295 C294 1.363 . S
C295 C298 1.363 . S
N296 C298 1.356 . S
N296 H308 0.984 . S
N296 H309 0.985 . S
N297 C299 1.356 . S
N297 H302 0.984 . S
N297 H303 0.985 . S
C298 C292 1.379 . S
C298 C295 1.363 . S
C298 N296 1.356 . S
C299 C293 1.363 . S
C299 C294 1.379 . S
C299 N297 1.356 . S
N300 C292 1.356 . S
N300 H306 0.984 . S
N300 H307 0.984 . S
N301 C294 1.356 . S
N301 H304 0.984 . S
N301 H305 0.985 . S
H302 N297 0.984 . S
H303 N297 0.985 . S
H304 N301 0.984 . S
H305 N301 0.985 . S
H306 N300 0.984 . S
H307 N300 0.984 . S
H308 N296 0.984 . S
H309 N296 0.985 . S
C310 C311 1.363 . S
C310 C316 1.379 . S
C310 N318 1.356 . S
C311 C310 1.363 . S
C311 C317 1.363 . S
C312 C313 1.363 . S
C312 C317 1.379 . S
C312 N319 1.356 . S
C313 C312 1.363 . S
C313 C316 1.363 . S
N314 C316 1.356 . S
N314 H326 0.984 . S
N314 H327 0.985 . S
N315 C317 1.356 . S
N315 H320 0.984 . S
N315 H321 0.985 . S
C316 C310 1.379 . S
C316 C313 1.363 . S
C316 N314 1.356 . S
C317 C311 1.363 . S
C317 C312 1.379 . S
C317 N315 1.356 . S
N318 C310 1.356 . S
N318 H324 0.984 . S
N318 H325 0.984 . S
N319 C312 1.356 . S
N319 H322 0.984 . S
N319 H323 0.985 . S
H320 N315 0.984 . S
H321 N315 0.985 . S
H322 N319 0.984 . S
H323 N319 0.985 . S
H324 N318 0.984 . S
H325 N318 0.984 . S
H326 N314 0.984 . S
H327 N314 0.985 . S
C328 C329 1.363 . S
C328 C334 1.379 1_545 S
C328 N336 1.356 . S
C329 C328 1.363 . S
C329 C335 1.363 1_455 S
C330 C331 1.363 . S
C330 C335 1.379 1_565 S
C330 N337 1.356 . S
C331 C330 1.363 . S
C331 C334 1.363 1_655 S
N332 C334 1.356 1_655 S
N332 H344 0.984 1_655 S
N332 H345 0.985 . S
N333 C335 1.356 1_455 S
N333 H338 0.984 . S
N333 H339 0.985 1_455 S
C334 C328 1.379 1_565 S
C334 C331 1.363 1_455 S
C334 N332 1.356 1_455 S
C335 C329 1.363 1_655 S
C335 C330 1.379 1_545 S
C335 N333 1.356 1_655 S
N336 C328 1.356 . S
N336 H342 0.984 . S
N336 H343 0.984 . S
N337 C330 1.356 . S
N337 H340 0.984 . S
N337 H341 0.985 . S
H338 N333 0.984 . S
H339 N333 0.985 1_655 S
H340 N337 0.984 . S
H341 N337 0.985 . S
H342 N336 0.984 . S
H343 N336 0.984 . S
H344 N332 0.984 1_455 S
H345 N332 0.985 . S
C346 C347 1.363 . S
C346 C352 1.379 1_455 S
C346 N354 1.356 . S
C347 C346 1.363 . S
C347 C353 1.363 1_565 S
C348 C349 1.363 . S
C348 C353 1.379 1_655 S
C348 N355 1.356 . S
C349 C348 1.363 . S
C349 C352 1.363 1_545 S
N350 C352 1.356 1_545 S
N350 H362 0.984 1_545 S
N350 H363 0.985 . S
N351 C353 1.356 1_565 S
N351 H356 0.984 . S
N351 H357 0.985 1_565 S
C352 C346 1.379 1_655 S
C352 C349 1.363 1_565 S
C352 N350 1.356 1_565 S
C353 C347 1.363 1_545 S
C353 C348 1.379 1_455 S
C353 N351 1.356 1_545 S
N354 C346 1.356 . S
N354 H360 0.984 . S
N354 H361 0.984 . S
N355 C348 1.356 . S
N355 H358 0.984 . S
N355 H359 0.985 . S
H356 N351 0.984 . S
H357 N351 0.985 1_545 S
H358 N355 0.984 . S
H359 N355 0.985 . S
H360 N354 0.984 . S
H361 N354 0.984 . S
H362 N350 0.984 1_565 S
H363 N350 0.985 . S
C364 C365 1.363 . S
C364 C370 1.379 1_545 S
C364 N372 1.356 . S
C365 C364 1.363 . S
C365 C371 1.363 1_655 S
C366 C367 1.363 . S
C366 C371 1.379 1_565 S
C366 N373 1.356 . S
C367 C366 1.363 . S
C367 C370 1.363 1_455 S
N368 C370 1.356 1_455 S
N368 H380 0.984 1_455 S
N368 H381 0.985 . S
N369 C371 1.356 1_655 S
N369 H374 0.984 . S
N369 H375 0.985 1_655 S
C370 C364 1.379 1_565 S
C370 C367 1.363 1_655 S
C370 N368 1.356 1_655 S
C371 C365 1.363 1_455 S
C371 C366 1.379 1_545 S
C371 N369 1.356 1_455 S
N372 C364 1.356 . S
N372 H378 0.984 . S
N372 H379 0.984 . S
N373 C366 1.356 . S
N373 H376 0.984 . S
N373 H377 0.985 . S
H374 N369 0.984 . S
H375 N369 0.985 1_455 S
H376 N373 0.984 . S
H377 N373 0.985 . S
H378 N372 0.984 . S
H379 N372 0.984 . S
H380 N368 0.984 1_655 S
H381 N368 0.985 . S
C382 C383 1.363 1_545 S
C382 C388 1.379 1_655 S
C382 N390 1.356 1_545 S
C383 C382 1.363 1_565 S
C383 C389 1.363 . S
C384 C385 1.363 1_565 S
C384 C389 1.379 1_455 S
C384 N391 1.356 1_565 S
C385 C384 1.363 1_545 S
C385 C388 1.363 . S
N386 C388 1.356 . S
N386 H398 0.984 . S
N386 H399 0.985 . S
N387 C389 1.356 . S
N387 H392 0.984 . S
N387 H393 0.985 . S
C388 C382 1.379 1_455 S
C388 C385 1.363 . S
C388 N386 1.356 . S
C389 C383 1.363 . S
C389 C384 1.379 1_655 S
C389 N387 1.356 . S
N390 C382 1.356 1_565 S
N390 H396 0.984 1_565 S
N390 H397 0.984 . S
N391 C384 1.356 1_545 S
N391 H394 0.984 . S
N391 H395 0.985 1_545 S
H392 N387 0.984 . S
H393 N387 0.985 . S
H394 N391 0.984 . S
H395 N391 0.985 1_565 S
H396 N390 0.984 1_545 S
H397 N390 0.984 . S
H398 N386 0.984 . S
H399 N386 0.985 . S
C113 C12 1.803 . S
C115 C28 1.803 . S
C131 C42 1.803 . S
C133 C26 1.803 . S
C149 C85 1.800 . S
C151 C57 1.800 . S
C167 C71 1.800 . S
C169 C99 1.800 . S
C185 C96 1.580 . S
C187 C1 1.580 . S
C203 C15 1.580 . S
C205 C110 1.580 . S
C221 C41 1.580 . S
C223 C68 1.580 . S
C239 C82 1.580 . S
C241 C55 1.580 . S
C257 C0 1.658 . S
C259 C83 1.657 . S
C275 C97 1.657 . S
C277 C14 1.658 . S
C293 C111 1.657 . S
C295 C40 1.658 . S
C311 C54 1.658 . S
C313 C69 1.657 . S
C329 C13 1.552 . S
C331 C29 1.552 . S
C347 C43 1.552 . S
C349 C27 1.552 . S
C365 C84 1.555 . S
C367 C56 1.555 . S
C383 C98 1.555 . S
C385 C70 1.555 . S
