# Generated by pormake.
# Topology sxb, (6)-cn, num edge types: 1
# Building blocks:
#     Node 0, Type 0, BuildingBlock: MIFKUJ_clean_sbu_0, # of connection points: 6
#     Node 1, Type 0, BuildingBlock: MIFKUJ_clean_sbu_0, # of connection points: 6
#     Node 2, Type 0, BuildingBlock: MIFKUJ_clean_sbu_0, # of connection points: 6
#     Node 3, Type 0, BuildingBlock: MIFKUJ_clean_sbu_0, # of connection points: 6
#     Edge 4, Type (0, 0), BuildingBlock: KIFKEQ_clean_linker_1, # of connection points: 2
#     Edge 5, Type (0, 0), BuildingBlock: KIFKEQ_clean_linker_1, # of connection points: 2
#     Edge 6, Type (0, 0), BuildingBlock: KIFKEQ_clean_linker_1, # of connection points: 2
#     Edge 7, Type (0, 0), BuildingBlock: KIFKEQ_clean_linker_1, # of connection points: 2
#     Edge 8, Type (0, 0), BuildingBlock: KIFKEQ_clean_linker_1, # of connection points: 2
#     Edge 9, Type (0, 0), BuildingBlock: KIFKEQ_clean_linker_1, # of connection points: 2
#     Edge 10, Type (0, 0), BuildingBlock: KIFKEQ_clean_linker_1, # of connection points: 2
#     Edge 11, Type (0, 0), BuildingBlock: KIFKEQ_clean_linker_1, # of connection points: 2
#     Edge 12, Type (0, 0), BuildingBlock: KIFKEQ_clean_linker_1, # of connection points: 2
#     Edge 13, Type (0, 0), BuildingBlock: KIFKEQ_clean_linker_1, # of connection points: 2
#     Edge 14, Type (0, 0), BuildingBlock: KIFKEQ_clean_linker_1, # of connection points: 2
#     Edge 15, Type (0, 0), BuildingBlock: KIFKEQ_clean_linker_1, # of connection points: 2
# Relax obj value: 0.019
# Max RMSD: 0.063
# Mean RMSD: 0.050
data_MOF--net-sxb--node1-MIFKUJ_clean_sbu_0--edge1-KIFKEQ_clean_linker_1
_symmetry_space_group_name_H-M    P1
_symmetry_Int_Tables_number       1
_symmetry_cell_setting            triclinic
loop_
_symmetry_equiv_pos_as_xyz
'x, y, z'
_cell_length_a     18.434558
_cell_length_b     31.968812
_cell_length_c     29.001801
_cell_angle_alpha  96.538475
_cell_angle_beta   97.720757
_cell_angle_gamma 84.843205
loop_
_atom_site_label
_atom_site_type_symbol
_atom_site_fract_x
_atom_site_fract_y
_atom_site_fract_z
_atom_type_partial_charge
Zn0 Zn 0.08891 0.01239 0.00129 0.0
Zn1 Zn 0.92337 0.00309 -0.00967 0.0
C2 C 0.13104 0.92891 0.0258 0.0
O3 O 0.16093 0.95044 0.06384 0.0
C4 C 0.85713 0.08104 0.96504 0.0
O5 O 0.82682 0.05456 0.93149 0.0
O6 O 0.19537 0.0235 0.00685 0.0
O7 O 0.04159 0.03283 0.94089 0.0
O8 O 0.96388 0.98327 0.92989 0.0
C9 C 0.23136 0.00256 0.97628 0.0
O10 O 0.19621 0.97836 0.94246 0.0
O11 O 0.0923 0.94871 -0.00562 0.0
C12 C 0.78421 0.99515 0.01822 0.0
O13 O 0.81685 0.01384 0.05723 0.0
O14 O 0.82087 0.98458 0.98405 0.0
O15 O 0.97507 0.98503 0.05128 0.0
O16 O 0.05074 0.03546 0.06161 0.0
O17 O 0.90653 0.06665 -0.00457 0.0
C18 C 0.00268 0.00745 0.91339 0.0
C19 C 0.01384 0.01064 0.0786 0.0
Zn20 Zn 0.04753 0.05012 0.48755 0.0
Zn21 Zn 0.88026 0.96829 0.478 0.0
C22 C 0.19093 0.00329 0.49044 0.0
O23 O 0.17694 0.9955 0.53173 0.0
C24 C 0.72774 0.96983 0.44734 0.0
O25 O 0.75352 0.93755 0.42047 0.0
O26 O 0.06558 0.11186 0.49747 0.0
O27 O 0.95568 0.03856 0.44512 0.0
O28 O 0.92357 0.97511 0.41972 0.0
C29 C 0.09569 0.12714 0.46683 0.0
O30 O 0.10445 0.10391 0.4273 0.0
O31 O 0.14132 0.02249 0.46399 0.0
C32 C 0.8417 0.89223 0.50916 0.0
O33 O 0.82025 0.91894 0.54346 0.0
O34 O 0.87417 0.9058 0.47848 0.0
O35 O 0.94226 0.9899 0.53836 0.0
O36 O 0.03462 0.03231 0.55006 0.0
O37 O 0.77309 0.99189 0.4747 0.0
C38 C 0.95593 0.0072 0.41424 0.0
C39 C -0.00841 0.00951 0.56534 0.0
Zn40 Zn 0.56559 0.46024 0.98524 0.0
Zn41 Zn 0.37795 0.54279 0.98529 0.0
C42 C 0.63214 0.38062 0.01188 0.0
O43 O 0.65188 0.40423 0.05089 0.0
C44 C 0.31373 0.62286 0.96345 0.0
O45 O 0.27926 0.59807 0.92992 0.0
O46 O 0.66252 0.48492 -0.00945 0.0
O47 O 0.51064 0.47562 0.92394 0.0
O48 O 0.41399 0.52236 0.92364 0.0
C49 C 0.70507 0.46971 0.96081 0.0
O50 O 0.68213 0.44063 0.92762 0.0
O51 O 0.59111 0.39729 0.97896 0.0
C52 C 0.23567 0.5354 0.01055 0.0
O53 O 0.26298 0.55676 0.04944 0.0
O54 O 0.276 0.52455 0.97836 0.0
O55 O 0.42786 0.52273 0.04594 0.0
O56 O 0.52616 0.47711 0.04675 0.0
O57 O 0.36403 0.60651 -0.00809 0.0
C58 C 0.45926 0.49772 0.90221 0.0
C59 C 0.47806 0.49989 0.06773 0.0
Zn60 Zn 0.58596 0.53833 0.49661 0.0
Zn61 Zn 0.41348 0.45814 0.49219 0.0
C62 C 0.73553 0.53191 0.52494 0.0
O63 O 0.71354 0.56449 0.5529 0.0
C64 C 0.26252 0.47442 0.47016 0.0
O65 O 0.27711 0.44834 0.43361 0.0
O66 O 0.59111 0.59886 0.48458 0.0
O67 O 0.51816 0.50564 0.44497 0.0
O68 O 0.42963 0.46213 0.42568 0.0
C69 C 0.63475 0.60669 0.45674 0.0
O70 O 0.66661 0.57504 0.43195 0.0
O71 O 0.68808 0.51254 0.4966 0.0
C72 C 0.36915 0.39059 0.53446 0.0
O73 O 0.34122 0.42282 0.56043 0.0
O74 O 0.41124 0.39754 0.5052 0.0
O75 O 0.48703 0.49299 0.52902 0.0
O76 O 0.56245 0.53749 0.56318 0.0
O77 O 0.31483 0.4857 0.50076 0.0
C78 C 0.47563 0.48511 0.4137 0.0
C79 C 0.51492 0.51229 0.56665 0.0
H80 H 0.19229 0.66323 0.91891 0.0
H81 H 0.37721 0.68484 0.02486 0.0
H82 H 0.14461 0.73605 0.93457 0.0
H83 H 0.331 0.75845 0.03934 0.0
H84 H 0.19244 0.87491 0.08908 0.0
H85 H 0.23591 0.80104 0.0734 0.0
H86 H 0.16299 0.80661 0.92601 0.0
H87 H 0.11696 0.87986 0.94209 0.0
C88 C 0.2234 0.68371 0.94514 0.0
C89 C 0.28853 0.66817 0.97072 0.0
C90 C 0.19612 0.72564 0.95401 0.0
C91 C 0.23364 0.75327 0.9884 0.0
C92 C 0.29976 0.73791 0.01327 0.0
C93 C 0.32671 0.69579 0.00468 0.0
C94 C 0.18503 0.86015 0.05341 0.0
C95 C 0.15118 0.88317 0.01686 0.0
C96 C 0.21064 0.81791 0.04431 0.0
C97 C 0.20377 0.79782 -0.00166 0.0
C98 C 0.16851 0.82075 0.96192 0.0
C99 C 0.14214 0.86284 0.97112 0.0
H100 H 0.70123 0.33133 0.0781 0.0
H101 H 0.63496 0.33026 0.92938 0.0
H102 H 0.75715 0.25955 0.066 0.0
H103 H 0.69337 0.25926 0.91695 0.0
H104 H 0.73573 0.11682 0.91579 0.0
H105 H 0.68105 0.18852 0.92739 0.0
H106 H 0.85821 0.21892 0.03636 0.0
H107 H 0.91147 0.14626 0.0259 0.0
C108 C 0.69877 0.31577 0.04279 0.0
C109 C 0.66326 0.33638 0.00475 0.0
C110 C 0.73148 0.27473 0.03577 0.0
C111 C 0.7302 0.25348 -0.00955 0.0
C112 C 0.69451 0.27424 0.95243 0.0
C113 C 0.66108 0.31506 0.95952 0.0
C114 C 0.76341 0.13882 0.94205 0.0
C115 C 0.82798 0.12578 0.96997 0.0
C116 C 0.73212 0.18014 0.94857 0.0
C117 C 0.76497 0.20971 0.98288 0.0
C118 C 0.83057 0.19687 0.01017 0.0
C119 C 0.86155 0.15531 0.00392 0.0
H120 H 0.15147 0.17244 0.40735 0.0
H121 H 0.12306 0.17186 0.55273 0.0
H122 H 0.2218 0.23432 0.42738 0.0
H123 H 0.19559 0.23287 0.57307 0.0
H124 H 0.40465 0.31802 0.47945 0.0
H125 H 0.33894 0.254 0.46537 0.0
H126 H 0.19477 0.30635 0.56671 0.0
H127 H 0.26186 0.36949 0.58192 0.0
C128 C 0.16008 0.18561 0.44359 0.0
C129 C 0.1316 0.16725 0.47842 0.0
C130 C 0.2012 0.22081 0.45519 0.0
C131 C 0.21541 0.2383 0.50197 0.0
C132 C 0.18537 0.22048 0.53665 0.0
C133 C 0.14368 0.18547 0.52498 0.0
C134 C 0.35984 0.31551 0.49936 0.0
C135 C 0.33823 0.34904 0.53154 0.0
C136 C 0.32154 0.27901 0.49089 0.0
C137 C 0.26057 0.27528 0.51423 0.0
C138 C 0.24153 0.30795 0.54819 0.0
C139 C 0.28006 0.34429 0.55686 0.0
H140 H 0.78315 0.8503 0.57069 0.0
H141 H 0.84313 0.83657 0.43048 0.0
H142 H 0.73212 0.78159 0.55584 0.0
H143 H 0.78982 0.76873 0.41501 0.0
H144 H 0.57761 0.68017 0.50077 0.0
H145 H 0.62919 0.74874 0.51261 0.0
H146 H 0.80463 0.69771 0.43275 0.0
H147 H 0.75162 0.62981 0.41954 0.0
C148 C 0.78563 0.83255 0.53675 0.0
C149 C 0.81726 0.84887 0.50182 0.0
C150 C 0.75566 0.79335 0.52803 0.0
C151 C 0.75599 0.76974 0.48401 0.0
C152 C 0.78918 0.78575 0.44945 0.0
C153 C 0.81975 0.82474 0.45833 0.0
C154 C 0.62661 0.6838 0.48521 0.0
C155 C 0.66049 0.64952 0.45925 0.0
C156 C 0.6567 0.72299 0.49243 0.0
C157 C 0.72171 0.7287 0.47418 0.0
C158 C 0.75421 0.69468 0.447 0.0
C159 C 0.72378 0.65563 0.43945 0.0
H160 H 0.32457 0.95017 0.92673 0.0
H161 H 0.32106 0.05313 0.03692 0.0
H162 H 0.45798 0.94564 0.93756 0.0
H163 H 0.45485 0.04964 0.04669 0.0
H164 H 0.69299 0.00513 0.08603 0.0
H165 H 0.55948 0.00611 0.0755 0.0
H166 H 0.5604 0.9814 0.92587 0.0
H167 H 0.69387 0.97893 0.93663 0.0
C168 C 0.3523 0.97223 0.9529 0.0
C169 C 0.31224 0.00201 0.98101 0.0
C170 C 0.42891 0.96971 0.95901 0.0
C171 C 0.46735 0.99716 -0.00689 0.0
C172 C 0.42712 0.02745 0.0207 0.0
C173 C 0.3504 0.02973 0.01484 0.0
C174 C 0.66465 0.99947 0.05094 0.0
C175 C 0.70395 0.99194 0.01218 0.0
C176 C 0.58806 1.00043 0.04485 0.0
C177 C 0.549 0.99427 -0.00021 0.0
C178 C 0.5886 0.98581 0.96112 0.0
C179 C 0.66521 0.98446 0.96726 0.0
H180 H 0.25638 0.04592 0.43255 0.0
H181 H 0.29837 0.94572 0.52295 0.0
H182 H 0.38632 0.03948 0.42045 0.0
H183 H 0.42753 0.93859 0.50961 0.0
H184 H 0.627 0.9118 0.42184 0.0
H185 H 0.49613 0.91954 0.42949 0.0
H186 H 0.51479 0.04956 0.48531 0.0
H187 H 0.64724 0.04166 0.47898 0.0
C188 C 0.29299 0.02203 0.44912 0.0
C189 C 0.2671 0.99612 0.47853 0.0
C190 C 0.36734 0.01868 0.44253 0.0
C191 C 0.4167 0.9887 0.46429 0.0
C192 C 0.39043 0.96194 0.49244 0.0
C193 C 0.31659 0.96596 0.49996 0.0
C194 C 0.60336 0.94221 0.43544 0.0
C195 C 0.64755 0.9762 0.44974 0.0
C196 C 0.52848 0.94649 0.43996 0.0
C197 C 0.49559 0.9851 0.45788 0.0
C198 C 0.53901 0.01951 0.47113 0.0
C199 C 0.61462 0.01496 0.46766 0.0
H200 H 0.81692 0.43171 0.91493 0.0
H201 H 0.76557 0.53473 0.01826 0.0
H202 H 0.9447 0.44807 0.92707 0.0
H203 H 0.89319 0.55219 0.02921 0.0
H204 H 0.14053 0.53987 0.07575 0.0
H205 H 0.01138 0.52528 0.06258 0.0
H206 H 0.02514 0.49825 0.91434 0.0
H207 H 0.15459 0.5112 0.92783 0.0
C208 C 0.83274 0.45826 0.93977 0.0
C209 C 0.78128 0.48184 0.96577 0.0
C210 C 0.90602 0.46778 0.9466 0.0
C211 C 0.92935 0.50139 0.97923 0.0
C212 C 0.87737 0.52561 0.00444 0.0
C213 C 0.80414 0.51581 -0.00208 0.0
C214 C 0.11587 0.53069 0.04041 0.0
C215 C 0.1577 0.52638 0.00289 0.0
C216 C 0.04175 0.52266 0.03277 0.0
C217 C 0.00781 0.5106 0.98737 0.0
C218 C 0.04976 0.50672 0.94985 0.0
C219 C 0.12395 0.51427 0.95756 0.0
H220 H 0.13906 0.46414 0.40837 0.0
H221 H 0.21365 0.50991 0.55142 0.0
H222 H 0.01221 0.47797 0.42411 0.0
H223 H 0.08688 0.52245 0.56758 0.0
H224 H 0.84832 0.5794 0.56298 0.0
H225 H 0.97654 0.567 0.55005 0.0
H226 H 0.92883 0.4492 0.46722 0.0
H227 H 0.80005 0.46231 0.47888 0.0
C228 C 0.12829 0.4772 0.44314 0.0
C229 C 0.18608 0.48592 0.47864 0.0
C230 C 0.05572 0.48476 0.45229 0.0
C231 C 0.03962 0.50082 0.49724 0.0
C232 C 0.09752 0.51039 0.5325 0.0
C233 C 0.17011 0.50316 0.52324 0.0
C234 C 0.86538 0.55064 0.54242 0.0
C235 C 0.81422 0.52192 0.52167 0.0
C236 C 0.93887 0.54351 0.53509 0.0
C237 C 0.96259 0.50736 0.50719 0.0
C238 C 0.91183 0.47784 0.48798 0.0
C239 C 0.83825 0.48515 0.49498 0.0
H240 H 0.00543 0.94083 0.357 0.0
H241 H 0.97499 0.077 0.37204 0.0
H242 H 0.03424 0.94185 0.27763 0.0
H243 H 0.00233 0.07804 0.29196 0.0
H244 H 0.0873 0.06236 0.14817 0.0
H245 H 0.09025 0.06176 0.23279 0.0
H246 H 0.94991 0.95822 0.20854 0.0
H247 H 0.94757 0.95841 0.12481 0.0
C248 C 0.00599 0.97103 0.3435 0.0
C249 C -0.01306 0.0088 0.37029 0.0
C250 C 0.02221 0.97161 0.29804 0.0
C251 C 0.01886 0.00996 0.27824 0.0
C252 C 0.00541 0.04801 0.3063 0.0
C253 C -0.01028 0.04743 0.3521 0.0
C254 C 0.05748 0.03935 0.16103 0.0
C255 C 0.01723 0.0104 0.12978 0.0
C256 C 0.05909 0.03909 0.20941 0.0
C257 C 0.02097 0.00968 0.22729 0.0
C258 C 0.9812 0.98069 0.19593 0.0
C259 C 0.97933 0.98105 0.14783 0.0
H260 H 0.89937 0.9778 0.84402 0.0
H261 H 0.10871 0.0325 0.86798 0.0
H262 H 0.89945 0.97666 0.75992 0.0
H263 H 0.11093 0.02946 0.78397 0.0
H264 H 0.05152 0.06491 0.63541 0.0
H265 H 0.05553 0.06288 0.71917 0.0
H266 H 0.95262 0.9446 0.69416 0.0
H267 H 0.94544 0.94789 0.61012 0.0
C268 C 0.9458 0.98912 0.8312 0.0
C269 C 0.0037 0.00558 0.86246 0.0
C270 C 0.94621 0.98819 0.78297 0.0
C271 C 0.00514 0.00307 0.76495 0.0
C272 C 0.06385 0.01861 0.79646 0.0
C273 C 0.0628 0.02019 0.84465 0.0
C274 C 0.03007 0.03838 0.64783 0.0
C275 C -0.00221 0.00669 0.61621 0.0
C276 C 0.03275 0.03703 0.69594 0.0
C277 C 0.00435 0.00358 0.71365 0.0
C278 C 0.97367 0.97131 0.68188 0.0
C279 C 0.9699 0.97303 0.63368 0.0
H280 H 0.58328 0.51562 0.3727 0.0
H281 H 0.37405 0.46096 0.34057 0.0
H282 H 0.58584 0.52037 0.28916 0.0
H283 H 0.37663 0.46597 0.25764 0.0
H284 H 0.36906 0.528 0.12157 0.0
H285 H 0.37074 0.5255 0.20546 0.0
H286 H 0.59275 0.46844 0.21424 0.0
H287 H 0.59123 0.47058 0.13006 0.0
C288 C 0.5379 0.50472 0.34791 0.0
C289 C 0.47848 0.48794 0.36331 0.0
C290 C 0.53954 0.50725 0.30014 0.0
C291 C 0.48127 0.49369 0.26698 0.0
C292 C 0.42193 0.47706 0.28243 0.0
C293 C 0.42075 0.47397 0.32996 0.0
C294 C 0.41839 0.51505 0.14131 0.0
C295 C 0.47991 0.49936 0.11899 0.0
C296 C 0.41918 0.51348 0.18934 0.0
C297 C 0.48182 0.49671 0.21632 0.0
C298 C 0.54391 0.48178 0.19432 0.0
C299 C 0.54278 0.48279 0.14609 0.0
H300 H 0.47883 0.44167 0.60007 0.0
H301 H 0.4981 0.5752 0.63616 0.0
H302 H 0.45205 0.43508 0.67953 0.0
H303 H 0.47131 0.56886 0.71513 0.0
H304 H 0.37222 0.54914 0.8445 0.0
H305 H 0.37172 0.55032 0.76044 0.0
H306 H 0.53341 0.44396 0.75863 0.0
H307 H 0.53442 0.44266 0.84268 0.0
C308 C 0.47529 0.4697 0.62465 0.0
C309 C 0.48988 0.50894 0.61212 0.0
C310 C 0.46078 0.46591 0.67013 0.0
C311 C 0.45959 0.50148 0.70346 0.0
C312 C 0.47111 0.541 0.69009 0.0
C313 C 0.48684 0.5446 0.64502 0.0
C314 C 0.40714 0.52568 0.82618 0.0
C315 C 0.45402 0.4961 0.85052 0.0
C316 C 0.40682 0.52643 0.77804 0.0
C317 C 0.45266 0.49733 0.75308 0.0
C318 C 0.49702 0.46654 0.77692 0.0
C319 C 0.49799 0.46605 0.82515 0.0
loop_
_geom_bond_atom_site_label_1
_geom_bond_atom_site_label_2
_geom_bond_distance
_geom_bond_site_symmetry_2
_ccdc_geom_bond_type
Zn0 O6 1.969 1_565 S
Zn0 O7 1.965 1_564 S
Zn0 O11 2.024 1_554 S
Zn0 O16 1.969 . S
Zn1 O8 1.969 . S
Zn1 O14 1.969 1_545 S
Zn1 O15 1.965 1_546 S
Zn1 O17 2.024 1_556 S
C2 O3 1.229 . S
C2 O11 1.058 1_554 S
O3 C2 1.229 . S
C4 O5 1.229 . S
C4 O17 1.058 1_556 S
O5 C4 1.229 . S
O6 Zn0 1.969 1_545 S
O6 C9 1.267 1_544 S
O7 Zn0 1.965 1_546 S
O7 C18 1.260 1_455 S
O8 Zn1 1.969 . S
O8 C18 1.258 . S
C9 O6 1.267 1_566 S
C9 O10 1.228 . S
O10 C9 1.228 . S
O11 Zn0 2.024 1_556 S
O11 C2 1.058 1_556 S
C12 O13 1.228 . S
C12 O14 1.267 1_544 S
O13 C12 1.228 . S
O14 Zn1 1.969 1_565 S
O14 C12 1.267 1_566 S
O15 Zn1 1.965 1_564 S
O15 C19 1.260 1_655 S
O16 Zn0 1.969 . S
O16 C19 1.258 . S
O17 Zn1 2.024 1_554 S
O17 C4 1.058 1_554 S
C18 O7 1.260 1_655 S
C18 O8 1.258 . S
C19 O15 1.260 1_455 S
C19 O16 1.258 . S
Zn20 O26 1.969 . S
Zn20 O27 1.965 . S
Zn20 O31 2.024 1_545 S
Zn20 O36 1.969 . S
Zn21 O28 1.969 . S
Zn21 O34 1.969 . S
Zn21 O35 1.965 . S
Zn21 O37 2.024 1_565 S
C22 O23 1.229 . S
C22 O31 1.058 1_545 S
O23 C22 1.229 . S
C24 O25 1.229 . S
C24 O37 1.058 1_565 S
O25 C24 1.229 . S
O26 Zn20 1.969 . S
O26 C29 1.267 . S
O27 Zn20 1.965 . S
O27 C38 1.260 1_455 S
O28 Zn21 1.969 . S
O28 C38 1.258 1_565 S
C29 O26 1.267 . S
C29 O30 1.228 . S
O30 C29 1.228 . S
O31 Zn20 2.024 1_565 S
O31 C22 1.058 1_565 S
C32 O33 1.228 . S
C32 O34 1.267 . S
O33 C32 1.228 . S
O34 Zn21 1.969 . S
O34 C32 1.267 . S
O35 Zn21 1.965 . S
O35 C39 1.260 1_655 S
O36 Zn20 1.969 . S
O36 C39 1.258 1_545 S
O37 Zn21 2.024 1_545 S
O37 C24 1.058 1_545 S
C38 O27 1.260 1_655 S
C38 O28 1.258 1_545 S
C39 O35 1.260 1_455 S
C39 O36 1.258 1_565 S
Zn40 O46 1.969 . S
Zn40 O47 1.965 1_554 S
Zn40 O51 2.024 1_554 S
Zn40 O56 1.969 . S
Zn41 O48 1.969 . S
Zn41 O54 1.969 . S
Zn41 O55 1.965 1_556 S
Zn41 O57 2.024 1_556 S
C42 O43 1.229 . S
C42 O51 1.058 1_554 S
O43 C42 1.229 . S
C44 O45 1.229 . S
C44 O57 1.058 1_556 S
O45 C44 1.229 . S
O46 Zn40 1.969 . S
O46 C49 1.267 1_554 S
O47 Zn40 1.965 1_556 S
O47 C58 1.260 . S
O48 Zn41 1.969 . S
O48 C58 1.258 . S
C49 O46 1.267 1_556 S
C49 O50 1.228 . S
O50 C49 1.228 . S
O51 Zn40 2.024 1_556 S
O51 C42 1.058 1_556 S
C52 O53 1.228 . S
C52 O54 1.267 1_554 S
O53 C52 1.228 . S
O54 Zn41 1.969 . S
O54 C52 1.267 1_556 S
O55 Zn41 1.965 1_554 S
O55 C59 1.260 . S
O56 Zn40 1.969 . S
O56 C59 1.258 . S
O57 Zn41 2.024 1_554 S
O57 C44 1.058 1_554 S
C58 O47 1.260 . S
C58 O48 1.258 . S
C59 O55 1.260 . S
C59 O56 1.258 . S
Zn60 O66 1.969 . S
Zn60 O67 1.965 . S
Zn60 O71 2.024 . S
Zn60 O76 1.969 . S
Zn61 O68 1.969 . S
Zn61 O74 1.969 . S
Zn61 O75 1.965 . S
Zn61 O77 2.024 . S
C62 O63 1.229 . S
C62 O71 1.058 . S
O63 C62 1.229 . S
C64 O65 1.229 . S
C64 O77 1.058 . S
O65 C64 1.229 . S
O66 Zn60 1.969 . S
O66 C69 1.267 . S
O67 Zn60 1.965 . S
O67 C78 1.260 . S
O68 Zn61 1.969 . S
O68 C78 1.258 . S
C69 O66 1.267 . S
C69 O70 1.228 . S
O70 C69 1.228 . S
O71 Zn60 2.024 . S
O71 C62 1.058 . S
C72 O73 1.228 . S
C72 O74 1.267 . S
O73 C72 1.228 . S
O74 Zn61 1.969 . S
O74 C72 1.267 . S
O75 Zn61 1.965 . S
O75 C79 1.260 . S
O76 Zn60 1.969 . S
O76 C79 1.258 . S
O77 Zn61 2.024 . S
O77 C64 1.058 . S
C78 O67 1.260 . S
C78 O68 1.258 . S
C79 O75 1.260 . S
C79 O76 1.258 . S
H80 C88 0.950 . S
H81 C93 0.950 . S
H82 C90 0.950 . S
H83 C92 0.950 . S
H84 C94 0.950 . S
H85 C96 0.950 . S
H86 C98 0.950 . S
H87 C99 0.950 . S
C88 H80 0.950 . S
C88 C89 1.386 1_556 S
C88 C90 1.391 . S
C89 C88 1.386 1_554 S
C89 C93 1.393 . S
C90 H82 0.950 . S
C90 C88 1.391 . S
C90 C91 1.401 1_556 S
C91 C90 1.401 1_554 S
C91 C92 1.397 . S
C91 C97 1.491 . S
C92 H83 0.950 . S
C92 C91 1.397 . S
C92 C93 1.391 . S
C93 H81 0.950 . S
C93 C89 1.393 . S
C93 C92 1.391 . S
C94 H84 0.950 . S
C94 C95 1.368 1_554 S
C94 C96 1.391 . S
C95 C94 1.368 1_556 S
C95 C99 1.410 . S
C96 H85 0.950 . S
C96 C94 1.391 . S
C96 C97 1.401 . S
C97 C91 1.491 . S
C97 C96 1.401 . S
C97 C98 1.397 1_554 S
C98 H86 0.950 . S
C98 C97 1.397 1_556 S
C98 C99 1.391 . S
C99 H87 0.950 . S
C99 C95 1.410 . S
C99 C98 1.391 . S
H100 C108 0.950 . S
H101 C113 0.950 . S
H102 C110 0.950 . S
H103 C112 0.950 . S
H104 C114 0.950 . S
H105 C116 0.950 . S
H106 C118 0.950 . S
H107 C119 0.950 . S
C108 H100 0.950 . S
C108 C109 1.386 1_554 S
C108 C110 1.391 . S
C109 C108 1.386 1_556 S
C109 C113 1.393 . S
C110 H102 0.950 . S
C110 C108 1.391 . S
C110 C111 1.395 1_554 S
C111 C110 1.395 1_556 S
C111 C112 1.403 . S
C111 C117 1.490 1_556 S
C112 H103 0.950 . S
C112 C111 1.403 . S
C112 C113 1.391 . S
C113 H101 0.950 . S
C113 C109 1.393 . S
C113 C112 1.391 . S
C114 H104 0.950 . S
C114 C115 1.386 1_556 S
C114 C116 1.391 . S
C115 C114 1.386 1_554 S
C115 C119 1.393 . S
C116 H105 0.950 . S
C116 C114 1.391 . S
C116 C117 1.391 1_556 S
C117 C111 1.490 1_554 S
C117 C116 1.391 1_554 S
C117 C118 1.408 . S
C118 H106 0.950 . S
C118 C117 1.408 . S
C118 C119 1.391 . S
C119 H107 0.950 . S
C119 C115 1.393 . S
C119 C118 1.391 . S
H120 C128 0.950 . S
H121 C133 0.950 . S
H122 C130 0.950 . S
H123 C132 0.950 . S
H124 C134 0.950 . S
H125 C136 0.950 . S
H126 C138 0.950 . S
H127 C139 0.950 . S
C128 H120 0.950 . S
C128 C129 1.386 . S
C128 C130 1.391 . S
C129 C128 1.386 . S
C129 C133 1.393 . S
C130 H122 0.950 . S
C130 C128 1.391 . S
C130 C131 1.400 . S
C131 C130 1.400 . S
C131 C132 1.398 . S
C131 C137 1.491 . S
C132 H123 0.950 . S
C132 C131 1.398 . S
C132 C133 1.391 . S
C133 H121 0.950 . S
C133 C129 1.393 . S
C133 C132 1.391 . S
C134 H124 0.950 . S
C134 C135 1.386 . S
C134 C136 1.391 . S
C135 C134 1.386 . S
C135 C139 1.393 . S
C136 H125 0.950 . S
C136 C134 1.391 . S
C136 C137 1.400 . S
C137 C131 1.491 . S
C137 C136 1.400 . S
C137 C138 1.398 . S
C138 H126 0.950 . S
C138 C137 1.398 . S
C138 C139 1.391 . S
C139 H127 0.950 . S
C139 C135 1.393 . S
C139 C138 1.391 . S
H140 C148 0.950 . S
H141 C153 0.950 . S
H142 C150 0.950 . S
H143 C152 0.950 . S
H144 C154 0.950 . S
H145 C156 0.950 . S
H146 C158 0.950 . S
H147 C159 0.950 . S
C148 H140 0.950 . S
C148 C149 1.386 . S
C148 C150 1.391 . S
C149 C148 1.386 . S
C149 C153 1.393 . S
C150 H142 0.950 . S
C150 C148 1.391 . S
C150 C151 1.400 . S
C151 C150 1.400 . S
C151 C152 1.398 . S
C151 C157 1.491 . S
C152 H143 0.950 . S
C152 C151 1.398 . S
C152 C153 1.391 . S
C153 H141 0.950 . S
C153 C149 1.393 . S
C153 C152 1.391 . S
C154 H144 0.950 . S
C154 C155 1.386 . S
C154 C156 1.391 . S
C155 C154 1.386 . S
C155 C159 1.393 . S
C156 H145 0.950 . S
C156 C154 1.391 . S
C156 C157 1.400 . S
C157 C151 1.491 . S
C157 C156 1.400 . S
C157 C158 1.398 . S
C158 H146 0.950 . S
C158 C157 1.398 . S
C158 C159 1.391 . S
C159 H147 0.950 . S
C159 C155 1.393 . S
C159 C158 1.391 . S
H160 C168 0.950 . S
H161 C173 0.946 1_565 S
H162 C170 0.950 . S
H163 C172 0.950 1_565 S
H164 C174 0.950 . S
H165 C176 0.950 . S
H166 C178 0.950 . S
H167 C179 0.950 1_545 S
C168 H160 0.950 . S
C168 C169 1.386 . S
C168 C170 1.391 . S
C169 C168 1.386 . S
C169 C173 1.393 1_556 S
C170 H162 0.950 . S
C170 C168 1.391 . S
C170 C171 1.413 . S
C171 C170 1.413 . S
C171 C172 1.385 1_556 S
C171 C177 1.494 1_546 S
C172 H163 0.950 1_545 S
C172 C171 1.385 1_554 S
C172 C173 1.391 . S
C173 H161 0.946 1_545 S
C173 C169 1.393 1_554 S
C173 C172 1.391 . S
C174 H164 0.950 . S
C174 C175 1.386 . S
C174 C176 1.391 . S
C175 C174 1.386 . S
C175 C179 1.393 1_554 S
C176 H165 0.950 . S
C176 C174 1.391 . S
C176 C177 1.417 . S
C177 C171 1.494 1_564 S
C177 C176 1.417 . S
C177 C178 1.380 1_564 S
C178 H166 0.950 . S
C178 C177 1.380 1_546 S
C178 C179 1.391 1_545 S
C179 H167 0.950 1_565 S
C179 C175 1.393 1_556 S
C179 C178 1.391 1_565 S
H180 C188 0.950 . S
H181 C193 0.950 . S
H182 C190 0.950 . S
H183 C192 0.950 . S
H184 C194 0.950 . S
H185 C196 0.950 . S
H186 C198 0.950 . S
H187 C199 0.950 . S
C188 H180 0.950 . S
C188 C189 1.386 1_545 S
C188 C190 1.391 . S
C189 C188 1.386 1_565 S
C189 C193 1.393 . S
C190 H182 0.950 . S
C190 C188 1.391 . S
C190 C191 1.380 1_545 S
C191 C190 1.380 1_565 S
C191 C192 1.420 . S
C191 C197 1.489 1_565 S
C192 H183 0.950 . S
C192 C191 1.420 . S
C192 C193 1.391 . S
C193 H181 0.950 . S
C193 C189 1.393 . S
C193 C192 1.391 . S
C194 H184 0.950 . S
C194 C195 1.386 1_565 S
C194 C196 1.391 . S
C195 C194 1.386 1_545 S
C195 C199 1.393 . S
C196 H185 0.950 . S
C196 C194 1.391 . S
C196 C197 1.400 1_565 S
C197 C191 1.489 1_545 S
C197 C196 1.400 1_545 S
C197 C198 1.398 . S
C198 H186 0.950 . S
C198 C197 1.398 . S
C198 C199 1.391 . S
C199 H187 0.950 . S
C199 C195 1.393 . S
C199 C198 1.391 . S
H200 C208 0.950 . S
H201 C213 0.950 . S
H202 C210 0.950 . S
H203 C212 0.950 . S
H204 C214 0.950 . S
H205 C216 0.950 . S
H206 C218 0.950 . S
H207 C219 0.950 . S
C208 H200 0.950 . S
C208 C209 1.386 . S
C208 C210 1.391 . S
C209 C208 1.386 . S
C209 C213 1.393 1_556 S
C210 H202 0.950 . S
C210 C208 1.391 . S
C210 C211 1.416 . S
C211 C210 1.416 . S
C211 C212 1.381 1_556 S
C211 C217 1.494 1_656 S
C212 H203 0.950 . S
C212 C211 1.381 1_554 S
C212 C213 1.391 . S
C213 H201 0.950 . S
C213 C209 1.393 1_554 S
C213 C212 1.391 . S
C214 H204 0.950 . S
C214 C215 1.386 . S
C214 C216 1.391 . S
C215 C214 1.386 . S
C215 C219 1.393 1_554 S
C216 H205 0.950 . S
C216 C214 1.391 . S
C216 C217 1.421 . S
C217 C211 1.494 1_454 S
C217 C216 1.421 . S
C217 C218 1.376 1_554 S
C218 H206 0.950 . S
C218 C217 1.376 1_556 S
C218 C219 1.391 . S
C219 H207 0.950 . S
C219 C215 1.393 1_556 S
C219 C218 1.391 . S
H220 C228 0.950 . S
H221 C233 0.950 . S
H222 C230 0.950 . S
H223 C232 0.950 . S
H224 C234 0.950 . S
H225 C236 0.950 . S
H226 C238 0.950 . S
H227 C239 0.950 . S
C228 H220 0.950 . S
C228 C229 1.386 . S
C228 C230 1.391 . S
C229 C228 1.386 . S
C229 C233 1.393 . S
C230 H222 0.950 . S
C230 C228 1.391 . S
C230 C231 1.400 . S
C231 C230 1.400 . S
C231 C232 1.398 . S
C231 C237 1.491 1_455 S
C232 H223 0.950 . S
C232 C231 1.398 . S
C232 C233 1.391 . S
C233 H221 0.950 . S
C233 C229 1.393 . S
C233 C232 1.391 . S
C234 H224 0.950 . S
C234 C235 1.386 . S
C234 C236 1.391 . S
C235 C234 1.386 . S
C235 C239 1.393 . S
C236 H225 0.950 . S
C236 C234 1.391 . S
C236 C237 1.400 . S
C237 C231 1.491 1_655 S
C237 C236 1.400 . S
C237 C238 1.398 . S
C238 H226 0.950 . S
C238 C237 1.398 . S
C238 C239 1.391 . S
C239 H227 0.950 . S
C239 C235 1.393 . S
C239 C238 1.391 . S
H240 C248 0.950 . S
H241 C253 0.950 . S
H242 C250 0.950 . S
H243 C252 0.950 . S
H244 C254 0.950 . S
H245 C256 0.950 . S
H246 C258 0.950 1_455 S
H247 C259 0.949 1_455 S
C248 H240 0.950 . S
C248 C249 1.386 1_565 S
C248 C250 1.391 . S
C249 C248 1.386 1_545 S
C249 C253 1.393 . S
C250 H242 0.950 . S
C250 C248 1.391 . S
C250 C251 1.400 1_565 S
C251 C250 1.400 1_545 S
C251 C252 1.398 . S
C251 C257 1.491 . S
C252 H243 0.950 . S
C252 C251 1.398 . S
C252 C253 1.391 . S
C253 H241 0.950 . S
C253 C249 1.393 . S
C253 C252 1.391 . S
C254 H244 0.950 . S
C254 C255 1.386 . S
C254 C256 1.391 . S
C255 C254 1.386 . S
C255 C259 1.392 1_545 S
C256 H245 0.950 . S
C256 C254 1.391 . S
C256 C257 1.400 . S
C257 C251 1.491 . S
C257 C256 1.400 . S
C257 C258 1.399 1_545 S
C258 H246 0.950 1_655 S
C258 C257 1.399 1_565 S
C258 C259 1.391 . S
C259 H247 0.949 1_655 S
C259 C255 1.392 1_565 S
C259 C258 1.391 . S
H260 C268 0.950 . S
H261 C273 0.950 . S
H262 C270 0.950 . S
H263 C272 0.950 . S
H264 C274 0.950 . S
H265 C276 0.950 . S
H266 C278 0.950 . S
H267 C279 0.950 . S
C268 H260 0.950 . S
C268 C269 1.383 1_665 S
C268 C270 1.391 . S
C269 C268 1.383 1_445 S
C269 C273 1.396 . S
C270 H262 0.950 . S
C270 C268 1.391 . S
C270 C271 1.413 1_655 S
C271 C270 1.413 1_455 S
C271 C272 1.387 1_565 S
C271 C277 1.489 . S
C272 H263 0.950 . S
C272 C271 1.387 1_545 S
C272 C273 1.391 . S
C273 H261 0.950 . S
C273 C269 1.396 . S
C273 C272 1.391 . S
C274 H264 0.950 . S
C274 C275 1.386 1_545 S
C274 C276 1.391 . S
C275 C274 1.386 1_565 S
C275 C279 1.393 1_455 S
C276 H265 0.950 . S
C276 C274 1.391 . S
C276 C277 1.400 1_545 S
C277 C271 1.489 . S
C277 C276 1.400 1_565 S
C277 C278 1.398 1_455 S
C278 H266 0.950 . S
C278 C277 1.398 1_655 S
C278 C279 1.391 . S
C279 H267 0.950 . S
C279 C275 1.393 1_655 S
C279 C278 1.391 . S
H280 C288 0.950 . S
H281 C293 0.950 . S
H282 C290 0.950 . S
H283 C292 0.950 . S
H284 C294 0.950 . S
H285 C296 0.950 . S
H286 C298 0.950 . S
H287 C299 0.950 . S
C288 H280 0.950 . S
C288 C289 1.386 . S
C288 C290 1.391 . S
C289 C288 1.386 . S
C289 C293 1.393 . S
C290 H282 0.950 . S
C290 C288 1.391 . S
C290 C291 1.400 . S
C291 C290 1.400 . S
C291 C292 1.398 . S
C291 C297 1.491 . S
C292 H283 0.950 . S
C292 C291 1.398 . S
C292 C293 1.391 . S
C293 H281 0.950 . S
C293 C289 1.393 . S
C293 C292 1.391 . S
C294 H284 0.950 . S
C294 C295 1.386 . S
C294 C296 1.391 . S
C295 C294 1.386 . S
C295 C299 1.393 . S
C296 H285 0.950 . S
C296 C294 1.391 . S
C296 C297 1.400 . S
C297 C291 1.491 . S
C297 C296 1.400 . S
C297 C298 1.398 . S
C298 H286 0.950 . S
C298 C297 1.398 . S
C298 C299 1.391 . S
C299 H287 0.950 . S
C299 C295 1.393 . S
C299 C298 1.391 . S
H300 C308 0.950 . S
H301 C313 0.950 . S
H302 C310 0.950 . S
H303 C312 0.950 . S
H304 C314 0.950 . S
H305 C316 0.950 . S
H306 C318 0.950 . S
H307 C319 0.950 . S
C308 H300 0.950 . S
C308 C309 1.386 . S
C308 C310 1.391 . S
C309 C308 1.386 . S
C309 C313 1.393 . S
C310 H302 0.950 . S
C310 C308 1.391 . S
C310 C311 1.400 . S
C311 C310 1.400 . S
C311 C312 1.398 . S
C311 C317 1.491 . S
C312 H303 0.950 . S
C312 C311 1.398 . S
C312 C313 1.391 . S
C313 H301 0.950 . S
C313 C309 1.393 . S
C313 C312 1.391 . S
C314 H304 0.950 . S
C314 C315 1.386 . S
C314 C316 1.391 . S
C315 C314 1.386 . S
C315 C319 1.393 . S
C316 H305 0.950 . S
C316 C314 1.391 . S
C316 C317 1.400 . S
C317 C311 1.491 . S
C317 C316 1.400 . S
C317 C318 1.398 . S
C318 H306 0.950 . S
C318 C317 1.398 . S
C318 C319 1.391 . S
C319 H307 0.950 . S
C319 C315 1.393 . S
C319 C318 1.391 . S
C89 C44 1.533 1_554 S
C95 C2 1.533 1_556 S
C109 C42 1.564 1_556 S
C115 C4 1.564 1_554 S
C129 C29 1.318 . S
C135 C72 1.318 . S
C149 C32 1.309 . S
C155 C69 1.309 . S
C169 C9 1.054 1_545 S
C175 C12 1.054 1_565 S
C189 C22 1.500 1_565 S
C195 C24 1.500 1_545 S
C209 C49 1.054 . S
C215 C52 1.054 . S
C229 C64 1.494 . S
C235 C62 1.494 . S
C249 C38 1.480 . S
C255 C19 1.472 1_645 S
C269 C18 1.471 1_455 S
C275 C39 1.486 . S
C289 C78 1.492 . S
C295 C59 1.485 . S
C309 C79 1.484 . S
C315 C58 1.486 . S
