# Generated by pormake.
# Topology wgi, (5)-cn, num edge types: 1
# Building blocks:
#     Node 0, Type 0, BuildingBlock: BEQFEK_clean_sbu_0, # of connection points: 5
#     Node 1, Type 0, BuildingBlock: BEQFEK_clean_sbu_0, # of connection points: 5
#     Node 2, Type 0, BuildingBlock: BEQFEK_clean_sbu_0, # of connection points: 5
#     Node 3, Type 0, BuildingBlock: BEQFEK_clean_sbu_0, # of connection points: 5
#     Node 4, Type 0, BuildingBlock: BEQFEK_clean_sbu_0, # of connection points: 5
#     Node 5, Type 0, BuildingBlock: BEQFEK_clean_sbu_0, # of connection points: 5
#     Node 6, Type 0, BuildingBlock: BEQFEK_clean_sbu_0, # of connection points: 5
#     Node 7, Type 0, BuildingBlock: BEQFEK_clean_sbu_0, # of connection points: 5
#     Node 8, Type 0, BuildingBlock: BEQFEK_clean_sbu_0, # of connection points: 5
#     Node 9, Type 0, BuildingBlock: BEQFEK_clean_sbu_0, # of connection points: 5
#     Node 10, Type 0, BuildingBlock: BEQFEK_clean_sbu_0, # of connection points: 5
#     Node 11, Type 0, BuildingBlock: BEQFEK_clean_sbu_0, # of connection points: 5
#     Node 12, Type 0, BuildingBlock: BEQFEK_clean_sbu_0, # of connection points: 5
#     Node 13, Type 0, BuildingBlock: BEQFEK_clean_sbu_0, # of connection points: 5
#     Node 14, Type 0, BuildingBlock: BEQFEK_clean_sbu_0, # of connection points: 5
#     Node 15, Type 0, BuildingBlock: BEQFEK_clean_sbu_0, # of connection points: 5
#     Node 16, Type 0, BuildingBlock: BEQFEK_clean_sbu_0, # of connection points: 5
#     Node 17, Type 0, BuildingBlock: BEQFEK_clean_sbu_0, # of connection points: 5
#     Node 18, Type 0, BuildingBlock: BEQFEK_clean_sbu_0, # of connection points: 5
#     Node 19, Type 0, BuildingBlock: BEQFEK_clean_sbu_0, # of connection points: 5
#     Node 20, Type 0, BuildingBlock: BEQFEK_clean_sbu_0, # of connection points: 5
#     Node 21, Type 0, BuildingBlock: BEQFEK_clean_sbu_0, # of connection points: 5
#     Node 22, Type 0, BuildingBlock: BEQFEK_clean_sbu_0, # of connection points: 5
#     Node 23, Type 0, BuildingBlock: BEQFEK_clean_sbu_0, # of connection points: 5
#     Node 24, Type 0, BuildingBlock: BEQFEK_clean_sbu_0, # of connection points: 5
#     Node 25, Type 0, BuildingBlock: BEQFEK_clean_sbu_0, # of connection points: 5
#     Node 26, Type 0, BuildingBlock: BEQFEK_clean_sbu_0, # of connection points: 5
#     Node 27, Type 0, BuildingBlock: BEQFEK_clean_sbu_0, # of connection points: 5
#     Node 28, Type 0, BuildingBlock: BEQFEK_clean_sbu_0, # of connection points: 5
#     Node 29, Type 0, BuildingBlock: BEQFEK_clean_sbu_0, # of connection points: 5
#     Node 30, Type 0, BuildingBlock: BEQFEK_clean_sbu_0, # of connection points: 5
#     Node 31, Type 0, BuildingBlock: BEQFEK_clean_sbu_0, # of connection points: 5
#     Edge 32, Type (0, 0), BuildingBlock: KIFKEQ_clean_linker_1, # of connection points: 2
#     Edge 33, Type (0, 0), BuildingBlock: KIFKEQ_clean_linker_1, # of connection points: 2
#     Edge 34, Type (0, 0), BuildingBlock: KIFKEQ_clean_linker_1, # of connection points: 2
#     Edge 35, Type (0, 0), BuildingBlock: KIFKEQ_clean_linker_1, # of connection points: 2
#     Edge 36, Type (0, 0), BuildingBlock: KIFKEQ_clean_linker_1, # of connection points: 2
#     Edge 37, Type (0, 0), BuildingBlock: KIFKEQ_clean_linker_1, # of connection points: 2
#     Edge 38, Type (0, 0), BuildingBlock: KIFKEQ_clean_linker_1, # of connection points: 2
#     Edge 39, Type (0, 0), BuildingBlock: KIFKEQ_clean_linker_1, # of connection points: 2
#     Edge 40, Type (0, 0), BuildingBlock: KIFKEQ_clean_linker_1, # of connection points: 2
#     Edge 41, Type (0, 0), BuildingBlock: KIFKEQ_clean_linker_1, # of connection points: 2
#     Edge 42, Type (0, 0), BuildingBlock: KIFKEQ_clean_linker_1, # of connection points: 2
#     Edge 43, Type (0, 0), BuildingBlock: KIFKEQ_clean_linker_1, # of connection points: 2
#     Edge 44, Type (0, 0), BuildingBlock: KIFKEQ_clean_linker_1, # of connection points: 2
#     Edge 45, Type (0, 0), BuildingBlock: KIFKEQ_clean_linker_1, # of connection points: 2
#     Edge 46, Type (0, 0), BuildingBlock: KIFKEQ_clean_linker_1, # of connection points: 2
#     Edge 47, Type (0, 0), BuildingBlock: KIFKEQ_clean_linker_1, # of connection points: 2
#     Edge 48, Type (0, 0), BuildingBlock: KIFKEQ_clean_linker_1, # of connection points: 2
#     Edge 49, Type (0, 0), BuildingBlock: KIFKEQ_clean_linker_1, # of connection points: 2
#     Edge 50, Type (0, 0), BuildingBlock: KIFKEQ_clean_linker_1, # of connection points: 2
#     Edge 51, Type (0, 0), BuildingBlock: KIFKEQ_clean_linker_1, # of connection points: 2
#     Edge 52, Type (0, 0), BuildingBlock: KIFKEQ_clean_linker_1, # of connection points: 2
#     Edge 53, Type (0, 0), BuildingBlock: KIFKEQ_clean_linker_1, # of connection points: 2
#     Edge 54, Type (0, 0), BuildingBlock: KIFKEQ_clean_linker_1, # of connection points: 2
#     Edge 55, Type (0, 0), BuildingBlock: KIFKEQ_clean_linker_1, # of connection points: 2
#     Edge 56, Type (0, 0), BuildingBlock: KIFKEQ_clean_linker_1, # of connection points: 2
#     Edge 57, Type (0, 0), BuildingBlock: KIFKEQ_clean_linker_1, # of connection points: 2
#     Edge 58, Type (0, 0), BuildingBlock: KIFKEQ_clean_linker_1, # of connection points: 2
#     Edge 59, Type (0, 0), BuildingBlock: KIFKEQ_clean_linker_1, # of connection points: 2
#     Edge 60, Type (0, 0), BuildingBlock: KIFKEQ_clean_linker_1, # of connection points: 2
#     Edge 61, Type (0, 0), BuildingBlock: KIFKEQ_clean_linker_1, # of connection points: 2
#     Edge 62, Type (0, 0), BuildingBlock: KIFKEQ_clean_linker_1, # of connection points: 2
#     Edge 63, Type (0, 0), BuildingBlock: KIFKEQ_clean_linker_1, # of connection points: 2
#     Edge 64, Type (0, 0), BuildingBlock: KIFKEQ_clean_linker_1, # of connection points: 2
#     Edge 65, Type (0, 0), BuildingBlock: KIFKEQ_clean_linker_1, # of connection points: 2
#     Edge 66, Type (0, 0), BuildingBlock: KIFKEQ_clean_linker_1, # of connection points: 2
#     Edge 67, Type (0, 0), BuildingBlock: KIFKEQ_clean_linker_1, # of connection points: 2
#     Edge 68, Type (0, 0), BuildingBlock: KIFKEQ_clean_linker_1, # of connection points: 2
#     Edge 69, Type (0, 0), BuildingBlock: KIFKEQ_clean_linker_1, # of connection points: 2
#     Edge 70, Type (0, 0), BuildingBlock: KIFKEQ_clean_linker_1, # of connection points: 2
#     Edge 71, Type (0, 0), BuildingBlock: KIFKEQ_clean_linker_1, # of connection points: 2
#     Edge 72, Type (0, 0), BuildingBlock: KIFKEQ_clean_linker_1, # of connection points: 2
#     Edge 73, Type (0, 0), BuildingBlock: KIFKEQ_clean_linker_1, # of connection points: 2
#     Edge 74, Type (0, 0), BuildingBlock: KIFKEQ_clean_linker_1, # of connection points: 2
#     Edge 75, Type (0, 0), BuildingBlock: KIFKEQ_clean_linker_1, # of connection points: 2
#     Edge 76, Type (0, 0), BuildingBlock: KIFKEQ_clean_linker_1, # of connection points: 2
#     Edge 77, Type (0, 0), BuildingBlock: KIFKEQ_clean_linker_1, # of connection points: 2
#     Edge 78, Type (0, 0), BuildingBlock: KIFKEQ_clean_linker_1, # of connection points: 2
#     Edge 79, Type (0, 0), BuildingBlock: KIFKEQ_clean_linker_1, # of connection points: 2
#     Edge 80, Type (0, 0), BuildingBlock: KIFKEQ_clean_linker_1, # of connection points: 2
#     Edge 81, Type (0, 0), BuildingBlock: KIFKEQ_clean_linker_1, # of connection points: 2
#     Edge 82, Type (0, 0), BuildingBlock: KIFKEQ_clean_linker_1, # of connection points: 2
#     Edge 83, Type (0, 0), BuildingBlock: KIFKEQ_clean_linker_1, # of connection points: 2
#     Edge 84, Type (0, 0), BuildingBlock: KIFKEQ_clean_linker_1, # of connection points: 2
#     Edge 85, Type (0, 0), BuildingBlock: KIFKEQ_clean_linker_1, # of connection points: 2
#     Edge 86, Type (0, 0), BuildingBlock: KIFKEQ_clean_linker_1, # of connection points: 2
#     Edge 87, Type (0, 0), BuildingBlock: KIFKEQ_clean_linker_1, # of connection points: 2
#     Edge 88, Type (0, 0), BuildingBlock: KIFKEQ_clean_linker_1, # of connection points: 2
#     Edge 89, Type (0, 0), BuildingBlock: KIFKEQ_clean_linker_1, # of connection points: 2
#     Edge 90, Type (0, 0), BuildingBlock: KIFKEQ_clean_linker_1, # of connection points: 2
#     Edge 91, Type (0, 0), BuildingBlock: KIFKEQ_clean_linker_1, # of connection points: 2
#     Edge 92, Type (0, 0), BuildingBlock: KIFKEQ_clean_linker_1, # of connection points: 2
#     Edge 93, Type (0, 0), BuildingBlock: KIFKEQ_clean_linker_1, # of connection points: 2
#     Edge 94, Type (0, 0), BuildingBlock: KIFKEQ_clean_linker_1, # of connection points: 2
#     Edge 95, Type (0, 0), BuildingBlock: KIFKEQ_clean_linker_1, # of connection points: 2
#     Edge 96, Type (0, 0), BuildingBlock: KIFKEQ_clean_linker_1, # of connection points: 2
#     Edge 97, Type (0, 0), BuildingBlock: KIFKEQ_clean_linker_1, # of connection points: 2
#     Edge 98, Type (0, 0), BuildingBlock: KIFKEQ_clean_linker_1, # of connection points: 2
#     Edge 99, Type (0, 0), BuildingBlock: KIFKEQ_clean_linker_1, # of connection points: 2
#     Edge 100, Type (0, 0), BuildingBlock: KIFKEQ_clean_linker_1, # of connection points: 2
#     Edge 101, Type (0, 0), BuildingBlock: KIFKEQ_clean_linker_1, # of connection points: 2
#     Edge 102, Type (0, 0), BuildingBlock: KIFKEQ_clean_linker_1, # of connection points: 2
#     Edge 103, Type (0, 0), BuildingBlock: KIFKEQ_clean_linker_1, # of connection points: 2
#     Edge 104, Type (0, 0), BuildingBlock: KIFKEQ_clean_linker_1, # of connection points: 2
#     Edge 105, Type (0, 0), BuildingBlock: KIFKEQ_clean_linker_1, # of connection points: 2
#     Edge 106, Type (0, 0), BuildingBlock: KIFKEQ_clean_linker_1, # of connection points: 2
#     Edge 107, Type (0, 0), BuildingBlock: KIFKEQ_clean_linker_1, # of connection points: 2
#     Edge 108, Type (0, 0), BuildingBlock: KIFKEQ_clean_linker_1, # of connection points: 2
#     Edge 109, Type (0, 0), BuildingBlock: KIFKEQ_clean_linker_1, # of connection points: 2
#     Edge 110, Type (0, 0), BuildingBlock: KIFKEQ_clean_linker_1, # of connection points: 2
#     Edge 111, Type (0, 0), BuildingBlock: KIFKEQ_clean_linker_1, # of connection points: 2
# Relax obj value: 0.192
# Max RMSD: 0.122
# Mean RMSD: 0.122
data_MOF--net-wgi--node1-BEQFEK_clean_sbu_0--edge1-KIFKEQ_clean_linker_1
_symmetry_space_group_name_H-M    P1
_symmetry_Int_Tables_number       1
_symmetry_cell_setting            triclinic
loop_
_symmetry_equiv_pos_as_xyz
'x, y, z'
_cell_length_a     77.525105
_cell_length_b     77.478365
_cell_length_c     29.735966
_cell_angle_alpha  89.970015
_cell_angle_beta   89.960671
_cell_angle_gamma 89.959048
loop_
_atom_site_label
_atom_site_type_symbol
_atom_site_fract_x
_atom_site_fract_y
_atom_site_fract_z
_atom_type_partial_charge
Co0 Co 0.11553 0.17182 0.34422 0.0
Co1 Co 0.15618 0.17643 0.34956 0.0
C2 C 0.13891 0.15742 0.27335 0.0
O3 O 0.12412 0.15991 0.29061 0.0
O4 O 0.15265 0.16327 0.29149 0.0
C5 C 0.08424 0.15188 0.3456 0.0
O6 O 0.09487 0.13898 0.33802 0.0
C7 C 0.19244 0.1671 0.37534 0.0
C8 C 0.20357 0.19311 0.38356 0.0
C9 C 0.20718 0.17578 0.38969 0.0
N10 N 0.18055 0.17885 0.36254 0.0
N11 N 0.18753 0.19433 0.3666 0.0
C12 C 0.18986 0.14799 0.3726 0.0
H13 H 0.17591 0.14483 0.37109 0.0
H14 H 0.19608 0.14132 0.40132 0.0
H15 H 0.19606 0.14319 0.34137 0.0
C16 C 0.12122 0.15719 0.4345 0.0
N17 N 0.12736 0.1637 0.39568 0.0
N18 N 0.14419 0.166 0.39924 0.0
C19 C 0.14904 0.16154 0.44136 0.0
C20 C 0.13476 0.15537 0.46416 0.0
C21 C 0.1025 0.15486 0.44538 0.0
H22 H 0.09496 0.16595 0.43243 0.0
H23 H 0.09779 0.14283 0.42942 0.0
H24 H 0.1003 0.15383 0.48216 0.0
O25 O 0.11859 0.19721 0.33967 0.0
O26 O 0.14704 0.20034 0.34415 0.0
H27 H 0.17239 0.17631 0.44719 0.0
H28 H 0.16601 0.16573 0.49823 0.0
C29 C 0.16653 0.16446 0.46119 0.0
H30 H 0.17473 0.15313 0.45388 0.0
H31 H 0.18103 0.20585 0.35997 0.0
O32 O 0.09029 0.16708 0.34891 0.0
C33 C 0.13195 0.20677 0.34099 0.0
Co34 Co 0.08868 0.86524 0.58618 0.0
Co35 Co 0.08484 0.90587 0.59595 0.0
C36 C 0.10368 0.89085 0.51858 0.0
O37 O 0.1008 0.87585 0.53449 0.0
O38 O 0.09804 0.90454 0.53769 0.0
C39 C 0.1099 0.83487 0.59264 0.0
O40 O 0.1225 0.84619 0.59445 0.0
C41 C 0.08976 0.94342 0.62419 0.0
C42 C 0.06583 0.94602 0.66384 0.0
C43 C 0.08096 0.95449 0.65316 0.0
N44 N 0.08029 0.9289 0.6188 0.0
N45 N 0.0658 0.93093 0.64172 0.0
C46 C 0.1073 0.94623 0.60464 0.0
H47 H 0.11215 0.93429 0.58833 0.0
H48 H 0.11636 0.95056 0.63125 0.0
H49 H 0.10656 0.9567 0.57922 0.0
C50 C 0.10095 0.86913 0.67904 0.0
N51 N 0.0957 0.87591 0.63974 0.0
N52 N 0.09629 0.89286 0.642 0.0
C53 C 0.10304 0.89735 0.68215 0.0
C54 C 0.10609 0.88248 0.70706 0.0
C55 C 0.09862 0.85055 0.6917 0.0
H56 H 0.08813 0.84465 0.67163 0.0
H57 H 0.11079 0.84342 0.68538 0.0
H58 H 0.0954 0.84929 0.72793 0.0
O59 O 0.06366 0.86753 0.58071 0.0
O60 O 0.061 0.89591 0.58766 0.0
H61 H 0.09562 0.92246 0.70467 0.0
H62 H 0.11677 0.91578 0.72361 0.0
C63 C 0.10753 0.91541 0.69519 0.0
H64 H 0.11366 0.92187 0.66625 0.0
H65 H 0.05633 0.92145 0.64486 0.0
O66 O 0.09448 0.84021 0.58808 0.0
C67 C 0.0543 0.88099 0.58273 0.0
Co68 Co 0.39627 0.84013 0.84712 0.0
Co69 Co 0.35583 0.83437 0.84627 0.0
C70 C 0.37393 0.85437 0.77339 0.0
O71 O 0.38833 0.85174 0.79266 0.0
O72 O 0.35987 0.84835 0.78956 0.0
C73 C 0.42727 0.8607 0.85188 0.0
O74 O 0.4168 0.87362 0.84319 0.0
C75 C 0.31871 0.84219 0.86622 0.0
C76 C 0.30902 0.81582 0.87847 0.0
C77 C 0.30431 0.83302 0.88099 0.0
N78 N 0.33145 0.83086 0.85681 0.0
N79 N 0.32534 0.81513 0.86323 0.0
C80 C 0.32022 0.86128 0.85986 0.0
H81 H 0.33398 0.86525 0.85961 0.0
H82 H 0.31299 0.86839 0.88617 0.0
H83 H 0.31448 0.86475 0.82689 0.0
C84 C 0.38827 0.8548 0.93586 0.0
N85 N 0.3832 0.84775 0.89673 0.0
N86 N 0.36638 0.84512 0.89773 0.0
C87 C 0.3604 0.85011 0.93848 0.0
C88 C 0.374 0.8568 0.96302 0.0
C89 C 0.40666 0.85776 0.94925 0.0
H90 H 0.41482 0.84691 0.93754 0.0
H91 H 0.4113 0.86992 0.93377 0.0
H92 H 0.40803 0.85889 0.98627 0.0
O93 O 0.39427 0.81487 0.84219 0.0
O94 O 0.36596 0.81066 0.84057 0.0
H95 H 0.33703 0.83537 0.94298 0.0
H96 H 0.34155 0.84802 0.99214 0.0
C97 C 0.34233 0.84779 0.95499 0.0
H98 H 0.33437 0.85864 0.94267 0.0
H99 H 0.33262 0.80389 0.85953 0.0
O100 O 0.42119 0.8455 0.85475 0.0
C101 C 0.38134 0.80479 0.84029 0.0
Co102 Co 0.4194 0.14512 0.09773 0.0
Co103 Co 0.42418 0.1044 0.09918 0.0
C104 C 0.40444 0.12275 0.02546 0.0
O105 O 0.40743 0.13728 0.04374 0.0
O106 O 0.41017 0.10868 0.04244 0.0
C107 C 0.40106 0.17779 0.09301 0.0
O108 O 0.38965 0.16905 0.06964 0.0
C109 C 0.41524 0.0679 0.12369 0.0
C110 C 0.44134 0.05675 0.12936 0.0
C111 C 0.42411 0.05308 0.13686 0.0
N112 N 0.4268 0.07988 0.11031 0.0
N113 N 0.44233 0.07288 0.1128 0.0
C114 C 0.39612 0.07051 0.1227 0.0
H115 H 0.39293 0.08448 0.12254 0.0
H116 H 0.38978 0.06392 0.15138 0.0
H117 H 0.39098 0.06471 0.09135 0.0
C118 C 0.40433 0.13818 0.18616 0.0
N119 N 0.41139 0.13248 0.14762 0.0
N120 N 0.41415 0.11571 0.15044 0.0
C121 C 0.40967 0.11047 0.19225 0.0
C122 C 0.40286 0.12442 0.21535 0.0
C123 C 0.40074 0.15676 0.19648 0.0
H124 H 0.4126 0.16446 0.19086 0.0
H125 H 0.39054 0.16157 0.17357 0.0
H126 H 0.39649 0.15867 0.23174 0.0
O127 O 0.44472 0.1422 0.09181 0.0
O128 O 0.44805 0.11371 0.09257 0.0
H129 H 0.42451 0.08706 0.19595 0.0
H130 H 0.41487 0.09338 0.24823 0.0
C131 C 0.41293 0.09292 0.21139 0.0
H132 H 0.40144 0.08479 0.20545 0.0
H133 H 0.45374 0.07945 0.10552 0.0
O134 O 0.41459 0.17018 0.10696 0.0
C135 C 0.45436 0.12888 0.0907 0.0
Co136 Co 0.11453 0.83766 0.15004 0.0
Co137 Co 0.1552 0.83432 0.14072 0.0
C138 C 0.13954 0.85286 0.21826 0.0
O139 O 0.12459 0.8499 0.2022 0.0
O140 O 0.1533 0.84733 0.19924 0.0
C141 C 0.083 0.85769 0.15394 0.0
O142 O 0.09305 0.87018 0.16824 0.0
C143 C 0.19267 0.84041 0.11421 0.0
C144 C 0.1966 0.81641 0.07566 0.0
C145 C 0.20438 0.83189 0.08644 0.0
N146 N 0.17848 0.83042 0.11898 0.0
N147 N 0.18129 0.81591 0.0967 0.0
C148 C 0.19471 0.85806 0.13378 0.0
H149 H 0.18242 0.86258 0.14894 0.0
H150 H 0.19915 0.86722 0.1075 0.0
H151 H 0.20481 0.85763 0.16018 0.0
C152 C 0.11848 0.85098 0.05838 0.0
N153 N 0.1253 0.84521 0.0971 0.0
N154 N 0.14224 0.84576 0.09467 0.0
C155 C 0.14669 0.85283 0.05484 0.0
C156 C 0.1318 0.85625 0.03038 0.0
C157 C 0.09975 0.84941 0.04667 0.0
H158 H 0.09409 0.83795 0.0634 0.0
H159 H 0.09281 0.86111 0.05835 0.0
H160 H 0.09787 0.84807 0.00987 0.0
O161 O 0.11726 0.81258 0.15532 0.0
O162 O 0.14564 0.81027 0.14762 0.0
H163 H 0.17186 0.84529 0.03314 0.0
H164 H 0.16521 0.86629 0.01283 0.0
C165 C 0.16475 0.85727 0.04172 0.0
H166 H 0.1711 0.86367 0.07037 0.0
H167 H 0.17221 0.80608 0.09324 0.0
O168 O 0.08946 0.84291 0.14602 0.0
C169 C 0.13081 0.80338 0.15266 0.0
Co170 Co 0.42065 0.86412 0.39097 0.0
Co171 Co 0.42617 0.90474 0.39103 0.0
C172 C 0.40698 0.88623 0.46547 0.0
O173 O 0.40961 0.87176 0.44651 0.0
O174 O 0.41266 0.90031 0.44848 0.0
C175 C 0.40234 0.83151 0.3961 0.0
O176 O 0.39091 0.84039 0.4191 0.0
C177 C 0.41694 0.94131 0.36841 0.0
C178 C 0.44292 0.95259 0.36126 0.0
C179 C 0.4256 0.95623 0.35504 0.0
N180 N 0.42869 0.92932 0.38062 0.0
N181 N 0.44415 0.93639 0.37727 0.0
C182 C 0.39785 0.93861 0.37067 0.0
H183 H 0.39474 0.92463 0.37023 0.0
H184 H 0.39115 0.94541 0.34291 0.0
H185 H 0.39301 0.94409 0.40275 0.0
C186 C 0.40425 0.8719 0.30483 0.0
N187 N 0.41204 0.87717 0.34277 0.0
N188 N 0.41533 0.89384 0.34019 0.0
C189 C 0.4105 0.89941 0.29898 0.0
C190 C 0.40288 0.88584 0.27619 0.0
C191 C 0.39992 0.8535 0.29439 0.0
H192 H 0.41166 0.84542 0.29798 0.0
H193 H 0.39011 0.84884 0.31866 0.0
H194 H 0.39486 0.85192 0.25977 0.0
O195 O 0.44598 0.86681 0.39345 0.0
O196 O 0.4501 0.89516 0.39562 0.0
H197 H 0.4259 0.92245 0.29521 0.0
H198 H 0.41597 0.91645 0.24309 0.0
C199 C 0.41414 0.9169 0.27998 0.0
H200 H 0.40284 0.92528 0.28625 0.0
H201 H 0.45566 0.92983 0.38354 0.0
O202 O 0.4158 0.83908 0.38164 0.0
C203 C 0.45602 0.8798 0.395 0.0
Co204 Co 0.39543 0.17208 0.64688 0.0
Co205 Co 0.35477 0.17683 0.64521 0.0
C206 C 0.37305 0.15694 0.71886 0.0
O207 O 0.38759 0.15999 0.70073 0.0
O208 O 0.35902 0.16271 0.70183 0.0
C209 C 0.42803 0.15389 0.65117 0.0
O210 O 0.41902 0.14201 0.67218 0.0
C211 C 0.31843 0.1673 0.62143 0.0
C212 C 0.3069 0.19321 0.61456 0.0
C213 C 0.30347 0.17586 0.60802 0.0
N214 N 0.33025 0.17913 0.63402 0.0
N215 N 0.32304 0.19455 0.6308 0.0
C216 C 0.32133 0.14822 0.6234 0.0
H217 H 0.33534 0.14525 0.62338 0.0
H218 H 0.31476 0.14154 0.59525 0.0
H219 H 0.31572 0.14323 0.65518 0.0
C220 C 0.38864 0.15692 0.55846 0.0
N221 N 0.38294 0.16408 0.59686 0.0
N222 N 0.36617 0.16681 0.59402 0.0
C223 C 0.36094 0.16217 0.55236 0.0
C224 C 0.37489 0.15533 0.52936 0.0
C225 C 0.4072 0.15321 0.5483 0.0
H226 H 0.415 0.16496 0.55436 0.0
H227 H 0.41186 0.14286 0.57101 0.0
H228 H 0.40915 0.14909 0.51295 0.0
O229 O 0.39236 0.19731 0.65271 0.0
O230 O 0.36392 0.20084 0.65181 0.0
H231 H 0.33736 0.17672 0.54851 0.0
H232 H 0.34363 0.16682 0.49653 0.0
C233 C 0.34331 0.1651 0.53346 0.0
H234 H 0.33533 0.15356 0.54017 0.0
H235 H 0.32945 0.20611 0.6374 0.0
O236 O 0.42055 0.16764 0.63825 0.0
C237 C 0.37913 0.20706 0.6537 0.0
Co238 Co 0.08819 0.14771 0.89974 0.0
Co239 Co 0.08216 0.10724 0.89424 0.0
C240 C 0.10165 0.12344 0.97058 0.0
O241 O 0.0996 0.13835 0.95349 0.0
O242 O 0.09544 0.10988 0.95226 0.0
C243 C 0.10934 0.17841 0.89862 0.0
O244 O 0.122 0.16742 0.90526 0.0
C245 C 0.08939 0.07022 0.87043 0.0
C246 C 0.06298 0.06156 0.85438 0.0
C247 C 0.08003 0.05632 0.85345 0.0
N248 N 0.07832 0.08321 0.87972 0.0
N249 N 0.06254 0.07771 0.87083 0.0
C250 C 0.10837 0.07096 0.87927 0.0
H251 H 0.11266 0.08455 0.88319 0.0
H252 H 0.11572 0.06451 0.85207 0.0
H253 H 0.11113 0.06394 0.91099 0.0
C254 C 0.10286 0.14155 0.80979 0.0
N255 N 0.09593 0.13566 0.84836 0.0
N256 N 0.09343 0.11885 0.84516 0.0
C257 C 0.0985 0.11367 0.80377 0.0
C258 C 0.10495 0.12781 0.78079 0.0
C259 C 0.1054 0.16022 0.79851 0.0
H260 H 0.09461 0.168 0.81213 0.0
H261 H 0.11768 0.16473 0.81351 0.0
H262 H 0.10608 0.1623 0.76163 0.0
O263 O 0.06276 0.14582 0.90329 0.0
O264 O 0.05865 0.1175 0.90027 0.0
H265 H 0.08366 0.09059 0.7944 0.0
H266 H 0.09788 0.09545 0.74829 0.0
C267 C 0.09648 0.09582 0.78532 0.0
H268 H 0.10672 0.0875 0.79937 0.0
H269 H 0.05147 0.08528 0.87403 0.0
O270 O 0.09397 0.17277 0.8957 0.0
C271 C 0.05271 0.13282 0.90264 0.0
Co272 Co 0.89558 0.84277 0.64331 0.0
Co273 Co 0.85526 0.83636 0.64635 0.0
C274 C 0.8738 0.85587 0.71943 0.0
O275 O 0.88816 0.85341 0.69964 0.0
O276 O 0.85966 0.85003 0.7033 0.0
C277 C 0.92809 0.86155 0.64749 0.0
O278 O 0.91981 0.87214 0.67441 0.0
C279 C 0.81805 0.84332 0.62557 0.0
C280 C 0.80903 0.81654 0.61613 0.0
C281 C 0.80393 0.83357 0.61122 0.0
N282 N 0.83096 0.83242 0.63671 0.0
N283 N 0.82524 0.81646 0.63199 0.0
C284 C 0.81915 0.86249 0.6311 0.0
H285 H 0.83249 0.86702 0.6245 0.0
H286 H 0.80979 0.86939 0.60945 0.0
H287 H 0.81609 0.8657 0.66659 0.0
C288 C 0.88636 0.85957 0.55861 0.0
N289 N 0.88173 0.85139 0.59657 0.0
N290 N 0.86513 0.84775 0.5952 0.0
C291 C 0.85895 0.85273 0.5547 0.0
C292 C 0.87205 0.86086 0.53122 0.0
C293 C 0.90456 0.86412 0.54659 0.0
H294 H 0.91267 0.85233 0.54782 0.0
H295 H 0.90963 0.87347 0.57151 0.0
H296 H 0.90558 0.86986 0.51254 0.0
O297 O 0.89391 0.81724 0.64568 0.0
O298 O 0.86571 0.81288 0.65054 0.0
H299 H 0.83721 0.83559 0.54992 0.0
H300 H 0.8418 0.84731 0.49907 0.0
C301 C 0.84159 0.84814 0.53626 0.0
H302 H 0.83229 0.85842 0.54516 0.0
H303 H 0.83272 0.80545 0.6372 0.0
O304 O 0.92026 0.84849 0.63163 0.0
C305 C 0.88107 0.80706 0.64868 0.0
Co306 Co 0.92191 0.14634 0.40147 0.0
Co307 Co 0.92756 0.10591 0.39313 0.0
C308 C 0.90814 0.12234 0.4708 0.0
O309 O 0.91036 0.13742 0.45504 0.0
O310 O 0.9142 0.10892 0.45132 0.0
C311 C 0.9046 0.17946 0.41318 0.0
O312 O 0.89422 0.17098 0.44022 0.0
C313 C 0.91825 0.07037 0.36207 0.0
C314 C 0.94396 0.05811 0.36129 0.0
C315 C 0.92688 0.05529 0.35003 0.0
N316 N 0.92984 0.08168 0.37874 0.0
N317 N 0.94511 0.07407 0.37883 0.0
C318 C 0.89925 0.0737 0.35984 0.0
H319 H 0.89645 0.08763 0.36466 0.0
H320 H 0.89379 0.06914 0.32754 0.0
H321 H 0.89283 0.06631 0.38707 0.0
C322 C 0.90614 0.14107 0.31332 0.0
N323 N 0.91341 0.13461 0.35069 0.0
N324 N 0.91699 0.11814 0.34453 0.0
C325 C 0.91305 0.11398 0.30161 0.0
C326 C 0.90577 0.12827 0.28103 0.0
C327 C 0.89988 0.15926 0.30856 0.0
H328 H 0.892 0.16273 0.3383 0.0
H329 H 0.89184 0.16098 0.27803 0.0
H330 H 0.9111 0.16811 0.30678 0.0
O331 O 0.94747 0.14346 0.40471 0.0
O332 O 0.95132 0.11512 0.39897 0.0
H333 H 0.93029 0.09227 0.29512 0.0
H334 H 0.92279 0.10112 0.24263 0.0
C335 C 0.91905 0.09805 0.27779 0.0
H336 H 0.90833 0.08865 0.27617 0.0
H337 H 0.95649 0.08004 0.38919 0.0
O338 O 0.91712 0.17153 0.39475 0.0
C339 C 0.95738 0.13034 0.40263 0.0
Co340 Co 0.6129 0.17011 0.14101 0.0
Co341 Co 0.65346 0.17554 0.14193 0.0
C342 C 0.63512 0.15583 0.21491 0.0
O343 O 0.62072 0.15859 0.19574 0.0
O344 O 0.64921 0.16167 0.19854 0.0
C345 C 0.58182 0.14971 0.13736 0.0
O346 O 0.59236 0.13686 0.14625 0.0
C347 C 0.69028 0.16674 0.12182 0.0
C348 C 0.70098 0.19282 0.11153 0.0
C349 C 0.70506 0.17549 0.10783 0.0
N350 N 0.67796 0.17843 0.1319 0.0
N351 N 0.68467 0.19398 0.12672 0.0
C352 C 0.68799 0.14765 0.12665 0.0
H353 H 0.67409 0.14422 0.12582 0.0
H354 H 0.69519 0.14053 0.10031 0.0
H355 H 0.69327 0.14363 0.15972 0.0
C356 C 0.62085 0.15501 0.05267 0.0
N357 N 0.62593 0.16217 0.09167 0.0
N358 N 0.64273 0.16492 0.09047 0.0
C359 C 0.64865 0.16003 0.04961 0.0
C360 C 0.63509 0.15318 0.02531 0.0
C361 C 0.60248 0.15176 0.03963 0.0
H362 H 0.59425 0.16265 0.05069 0.0
H363 H 0.59796 0.13973 0.05602 0.0
H364 H 0.60108 0.15023 0.00271 0.0
O365 O 0.61535 0.1954 0.14514 0.0
O366 O 0.6437 0.19938 0.1475 0.0
H367 H 0.67207 0.17478 0.04619 0.0
H368 H 0.66711 0.16327 0.9955 0.0
C369 C 0.66661 0.16266 0.03266 0.0
H370 H 0.67455 0.15148 0.04288 0.0
H371 H 0.67781 0.20545 0.13117 0.0
O372 O 0.58787 0.1649 0.13373 0.0
C373 C 0.62837 0.20538 0.14721 0.0
Co374 Co 0.58858 0.8633 0.90436 0.0
Co375 Co 0.58486 0.90396 0.89267 0.0
C376 C 0.60359 0.88967 0.97049 0.0
O377 O 0.60068 0.87453 0.95544 0.0
O378 O 0.59801 0.90324 0.95071 0.0
C379 C 0.60993 0.83293 0.89825 0.0
O380 O 0.62242 0.84431 0.89478 0.0
C381 C 0.58798 0.94182 0.86295 0.0
C382 C 0.56386 0.94271 0.82352 0.0
C383 C 0.57818 0.95242 0.83464 0.0
N384 N 0.57978 0.92648 0.86736 0.0
N385 N 0.56532 0.92737 0.84394 0.0
C386 C 0.60441 0.9464 0.88641 0.0
H387 H 0.60748 0.9367 0.9127 0.0
H388 H 0.61517 0.94687 0.86191 0.0
H389 H 0.60324 0.95942 0.90167 0.0
C390 C 0.60114 0.86698 0.81111 0.0
N391 N 0.59566 0.87373 0.85027 0.0
N392 N 0.59642 0.89066 0.84805 0.0
C393 C 0.60349 0.8952 0.8084 0.0
C394 C 0.60655 0.88037 0.78338 0.0
C395 C 0.59894 0.8484 0.79844 0.0
H396 H 0.58856 0.84238 0.81874 0.0
H397 H 0.61118 0.84136 0.80451 0.0
H398 H 0.59565 0.84717 0.76227 0.0
O399 O 0.56346 0.86555 0.91036 0.0
O400 O 0.56123 0.8939 0.90182 0.0
H401 H 0.5968 0.92025 0.78374 0.0
H402 H 0.61854 0.91357 0.77016 0.0
C403 C 0.60833 0.91328 0.7963 0.0
H404 H 0.61326 0.91988 0.82661 0.0
H405 H 0.55666 0.91717 0.84035 0.0
O406 O 0.59452 0.83823 0.90358 0.0
C407 C 0.55432 0.87914 0.90778 0.0
Co408 Co 0.89314 0.16931 0.8437 0.0
Co409 Co 0.85263 0.17471 0.84901 0.0
C410 C 0.87014 0.15561 0.77227 0.0
O411 O 0.88499 0.1578 0.78939 0.0
O412 O 0.85647 0.16158 0.79071 0.0
C413 C 0.92656 0.15243 0.83495 0.0
O414 O 0.91839 0.14139 0.80907 0.0
C415 C 0.81688 0.16509 0.87789 0.0
C416 C 0.80463 0.1908 0.87935 0.0
C417 C 0.80179 0.17367 0.89016 0.0
N418 N 0.82822 0.17676 0.86167 0.0
N419 N 0.82059 0.19202 0.86177 0.0
C420 C 0.82025 0.1461 0.88016 0.0
H421 H 0.83428 0.14339 0.87772 0.0
H422 H 0.81482 0.14042 0.91133 0.0
H423 H 0.81371 0.13979 0.85135 0.0
C424 C 0.88703 0.1531 0.93114 0.0
N425 N 0.88098 0.16055 0.89349 0.0
N426 N 0.86446 0.16411 0.89849 0.0
C427 C 0.85987 0.16005 0.94107 0.0
C428 C 0.87383 0.15242 0.96222 0.0
C429 C 0.90559 0.14873 0.93916 0.0
H430 H 0.91344 0.16068 0.93732 0.0
H431 H 0.9101 0.13975 0.91263 0.0
H432 H 0.90763 0.14265 0.9725 0.0
O433 O 0.89 0.19478 0.84011 0.0
O434 O 0.86164 0.19862 0.84388 0.0
H435 H 0.83754 0.17654 0.94601 0.0
H436 H 0.84567 0.169 -0.00097 0.0
C437 C 0.84343 0.16538 0.96347 0.0
H438 H 0.83448 0.15427 0.96377 0.0
H439 H 0.82658 0.20347 0.85195 0.0
O440 O 0.9183 0.16506 0.85178 0.0
C441 C 0.87687 0.20469 0.84113 0.0
Co442 Co 0.59049 0.14682 0.59865 0.0
Co443 Co 0.58357 0.10648 0.59731 0.0
C444 C 0.60336 0.12409 0.52355 0.0
O445 O 0.6012 0.13859 0.54293 0.0
O446 O 0.59724 0.11012 0.5401 0.0
C447 C 0.61053 0.17862 0.59483 0.0
O448 O 0.62164 0.16953 0.57132 0.0
C449 C 0.58922 0.06879 0.61689 0.0
C450 C 0.56247 0.0614 0.63355 0.0
C451 C 0.57923 0.05524 0.6337 0.0
N452 N 0.57878 0.0824 0.6088 0.0
N453 N 0.56278 0.07765 0.61791 0.0
C454 C 0.60811 0.06865 0.60647 0.0
H455 H 0.61323 0.08203 0.60553 0.0
H456 H 0.61543 0.06074 0.63091 0.0
H457 H 0.61 0.06283 0.57274 0.0
C458 C 0.60634 0.138 0.6849 0.0
N459 N 0.59838 0.13323 0.64678 0.0
N460 N 0.5952 0.11651 0.64791 0.0
C461 C 0.60067 0.11028 0.68795 0.0
C462 C 0.60821 0.12362 0.71186 0.0
C463 C 0.61044 0.1563 0.69709 0.0
H464 H 0.59886 0.16448 0.69187 0.0
H465 H 0.62089 0.1611 0.6749 0.0
H466 H 0.61459 0.15758 0.7326 0.0
O467 O 0.56507 0.14572 0.59554 0.0
O468 O 0.56034 0.11753 0.5923 0.0
H469 H 0.58499 0.08765 0.69539 0.0
H470 H 0.59972 0.09114 0.74122 0.0
C471 C 0.59807 0.09221 0.70434 0.0
H472 H 0.60789 0.08376 0.68877 0.0
H473 H 0.55211 0.08581 0.61574 0.0
O474 O 0.59673 0.17149 0.60862 0.0
C475 C 0.55474 0.13299 0.59309 0.0
Co476 Co 0.61431 0.8385 0.33906 0.0
Co477 Co 0.65498 0.83497 0.34841 0.0
C478 C 0.63972 0.85382 0.27142 0.0
O479 O 0.62472 0.85082 0.28727 0.0
O480 O 0.65345 0.84822 0.29042 0.0
C481 C 0.58283 0.85878 0.33608 0.0
O482 O 0.5929 0.87139 0.32256 0.0
C483 C 0.69285 0.83916 0.3756 0.0
C484 C 0.69509 0.81478 0.4137 0.0
C485 C 0.70404 0.82964 0.40295 0.0
N486 N 0.67788 0.83031 0.37152 0.0
N487 N 0.67959 0.81568 0.39398 0.0
C488 C 0.69656 0.8559 0.35246 0.0
H489 H 0.6865 0.85874 0.32695 0.0
H490 H 0.69688 0.86658 0.3772 0.0
H491 H 0.70944 0.8553 0.33622 0.0
C492 C 0.61841 0.85142 0.43116 0.0
N493 N 0.62511 0.84574 0.39219 0.0
N494 N 0.64204 0.84627 0.39428 0.0
C495 C 0.64665 0.85322 0.43403 0.0
C496 C 0.63185 0.85658 0.45893 0.0
C497 C 0.5997 0.84991 0.44318 0.0
H498 H 0.59389 0.83865 0.42595 0.0
H499 H 0.59283 0.86176 0.43228 0.0
H500 H 0.59792 0.84828 0.47996 0.0
O501 O 0.6168 0.81339 0.33299 0.0
O502 O 0.64518 0.81119 0.34007 0.0
H503 H 0.67167 0.84577 0.4572 0.0
H504 H 0.66527 0.86729 0.47397 0.0
C505 C 0.66478 0.85763 0.4465 0.0
H506 H 0.67133 0.86314 0.41681 0.0
H507 H 0.66982 0.80655 0.39763 0.0
O508 O 0.58927 0.84393 0.34316 0.0
C509 C 0.63041 0.80426 0.33494 0.0
Co510 Co 0.92098 0.8644 0.09848 0.0
Co511 Co 0.92695 0.90488 0.10072 0.0
C512 C 0.9071 0.88701 0.02606 0.0
O513 O 0.90971 0.87231 0.04384 0.0
O514 O 0.91306 0.90086 0.04366 0.0
C515 C 0.90396 0.83105 0.09039 0.0
O516 O 0.89367 0.83906 0.06218 0.0
C517 C 0.91772 0.94088 0.12785 0.0
C518 C 0.94346 0.95305 0.12779 0.0
C519 C 0.92637 0.95608 0.13876 0.0
N520 N 0.92931 0.92933 0.11221 0.0
N521 N 0.94459 0.93688 0.11151 0.0
C522 C 0.89872 0.93762 0.13024 0.0
H523 H 0.89592 0.92363 0.127 0.0
H524 H 0.89314 0.94274 0.16185 0.0
H525 H 0.89237 0.94453 0.10205 0.0
C526 C 0.90479 0.87161 0.18471 0.0
N527 N 0.91246 0.87722 0.147 0.0
N528 N 0.91639 0.89368 0.15121 0.0
C529 C 0.91228 0.8987 0.19343 0.0
C530 C 0.90454 0.88497 0.21537 0.0
C531 C 0.89802 0.85369 0.19127 0.0
H532 H 0.89053 0.8498 0.16125 0.0
H533 H 0.8895 0.8528 0.22115 0.0
H534 H 0.909 0.84463 0.19543 0.0
O535 O 0.94634 0.86708 0.0955 0.0
O536 O 0.9508 0.89539 0.09489 0.0
H537 H 0.92213 0.91236 0.25091 0.0
H538 H 0.90765 0.92436 0.21634 0.0
C539 C 0.91837 0.91493 0.21551 0.0
H540 H 0.9296 0.92041 0.19749 0.0
H541 H 0.95598 0.93073 0.10182 0.0
O542 O 0.91629 0.83936 0.10847 0.0
C543 C 0.95654 0.87996 0.09447 0.0
Co544 Co 0.61558 0.67003 0.8525 0.0
Co545 Co 0.65612 0.67564 0.84969 0.0
C546 C 0.63702 0.65637 0.77651 0.0
O547 O 0.62273 0.659 0.7964 0.0
O548 O 0.65123 0.66206 0.79264 0.0
C549 C 0.58328 0.6512 0.84947 0.0
O550 O 0.59216 0.64 0.82571 0.0
C551 C 0.69313 0.66729 0.87033 0.0
C552 C 0.70384 0.69363 0.87388 0.0
C553 C 0.70799 0.67649 0.88135 0.0
N554 N 0.6807 0.6786 0.85825 0.0
N555 N 0.68741 0.69427 0.85953 0.0
C556 C 0.69096 0.6481 0.86937 0.0
H557 H 0.67708 0.64461 0.87073 0.0
H558 H 0.69812 0.64183 0.89716 0.0
H559 H 0.69636 0.64314 0.83732 0.0
C560 C 0.6244 0.6538 0.93849 0.0
N561 N 0.62923 0.66148 0.89995 0.0
N562 N 0.6459 0.66483 0.90128 0.0
C563 C 0.65192 0.66022 0.94224 0.0
C564 C 0.63862 0.65261 0.96617 0.0
C565 C 0.60615 0.64944 0.95044 0.0
H566 H 0.59802 0.66118 0.94747 0.0
H567 H 0.60122 0.63964 0.92655 0.0
H568 H 0.605 0.64434 0.98516 0.0
O569 O 0.61793 0.69552 0.84907 0.0
O570 O 0.64629 0.69941 0.84595 0.0
H571 H 0.67445 0.67641 0.94444 0.0
H572 H 0.669 0.66659 -0.00275 0.0
C573 C 0.66939 0.66454 0.9604 0.0
H574 H 0.67819 0.65355 0.95432 0.0
H575 H 0.68051 0.70554 0.85273 0.0
O576 O 0.59071 0.66478 0.86366 0.0
C577 C 0.631 0.70547 0.84694 0.0
Co578 Co 0.58797 0.3637 0.08856 0.0
Co579 Co 0.58501 0.4045 0.09469 0.0
C580 C 0.60326 0.38828 0.01818 0.0
O581 O 0.59985 0.3736 0.03559 0.0
O582 O 0.59815 0.4024 0.03631 0.0
C583 C 0.60798 0.33204 0.08594 0.0
O584 O 0.6205 0.34187 0.07078 0.0
C585 C 0.58904 0.44263 0.12121 0.0
C586 C 0.5648 0.44463 0.15996 0.0
C587 C 0.57946 0.45376 0.14859 0.0
N588 N 0.58039 0.42751 0.11757 0.0
N589 N 0.56586 0.42908 0.1405 0.0
C590 C 0.60559 0.44661 0.09751 0.0
H591 H 0.60931 0.43583 0.07491 0.0
H592 H 0.61602 0.44885 0.12228 0.0
H593 H 0.60407 0.45867 0.07774 0.0
C594 C 0.60285 0.36868 0.17805 0.0
N595 N 0.59583 0.37501 0.1402 0.0
N596 N 0.59678 0.39194 0.14052 0.0
C597 C 0.60542 0.3969 0.17767 0.0
C598 C 0.60949 0.38233 0.20287 0.0
C599 C 0.60163 0.35011 0.19177 0.0
H600 H 0.58985 0.34418 0.17743 0.0
H601 H 0.61306 0.34302 0.17898 0.0
H602 H 0.60116 0.3488 0.2289 0.0
O603 O 0.56301 0.36618 0.08348 0.0
O604 O 0.56102 0.39466 0.0876 0.0
H605 H 0.60022 0.42265 0.19959 0.0
H606 H 0.62207 0.41551 0.21031 0.0
C607 C 0.61117 0.415 0.18621 0.0
H608 H 0.61552 0.42073 0.15413 0.0
H609 H 0.55688 0.4192 0.14459 0.0
O610 O 0.5933 0.33868 0.09389 0.0
C611 C 0.55398 0.37985 0.08414 0.0
Co612 Co 0.89558 0.34029 0.34856 0.0
Co613 Co 0.85505 0.33447 0.34679 0.0
C614 C 0.87412 0.35402 0.2733 0.0
O615 O 0.88847 0.35147 0.2929 0.0
O616 O 0.85998 0.34816 0.28958 0.0
C617 C 0.92845 0.35812 0.34541 0.0
O618 O 0.92011 0.36947 0.32085 0.0
C619 C 0.81866 0.34403 0.3702 0.0
C620 C 0.80681 0.3182 0.37422 0.0
C621 C 0.80355 0.33547 0.38272 0.0
N622 N 0.83036 0.33224 0.35639 0.0
N623 N 0.82296 0.31689 0.3579 0.0
C624 C 0.82181 0.36309 0.37 0.0
H625 H 0.83585 0.36586 0.37135 0.0
H626 H 0.815 0.36961 0.39802 0.0
H627 H 0.8167 0.36851 0.33813 0.0
C628 C 0.88716 0.35643 0.43464 0.0
N629 N 0.8822 0.34884 0.39614 0.0
N630 N 0.86564 0.34507 0.39826 0.0
C631 C 0.85991 0.3492 0.43982 0.0
C632 C 0.87317 0.35703 0.46321 0.0
C633 C 0.90539 0.36119 0.44572 0.0
H634 H 0.91362 0.34949 0.44418 0.0
H635 H 0.91018 0.37059 0.42052 0.0
H636 H 0.90652 0.36695 0.47973 0.0
O637 O 0.89287 0.31495 0.34537 0.0
O638 O 0.86459 0.3105 0.34261 0.0
H639 H 0.8375 0.33281 0.4417 0.0
H640 H 0.84374 0.34134 0.49535 0.0
C641 C 0.84279 0.34428 0.45898 0.0
H642 H 0.83401 0.35544 0.45564 0.0
H643 H 0.82925 0.30536 0.35021 0.0
O644 O 0.92049 0.34489 0.35988 0.0
C645 C 0.88001 0.30475 0.34349 0.0
Co646 Co 0.91851 0.64689 0.59959 0.0
Co647 Co 0.9249 0.60641 0.60124 0.0
C648 C 0.90531 0.62385 0.52617 0.0
O649 O 0.90781 0.63851 0.54435 0.0
O650 O 0.91118 0.60993 0.54371 0.0
C651 C 0.90012 0.67973 0.59256 0.0
O652 O 0.88889 0.67112 0.56832 0.0
C653 C 0.9184 0.56924 0.62601 0.0
C654 C 0.94531 0.56079 0.63647 0.0
C655 C 0.9284 0.55542 0.64139 0.0
N656 N 0.92907 0.58226 0.61409 0.0
N657 N 0.9451 0.57687 0.61962 0.0
C658 C 0.89924 0.56985 0.62005 0.0
H659 H 0.89465 0.58343 0.61972 0.0
H660 H 0.89245 0.56237 0.64638 0.0
H661 H 0.89599 0.56396 0.58712 0.0
C662 C 0.90165 0.63912 0.68506 0.0
N663 N 0.90989 0.63384 0.64781 0.0
N664 N 0.91341 0.61723 0.65102 0.0
C665 C 0.90822 0.6117 0.69199 0.0
C666 C 0.90016 0.62526 0.71391 0.0
C667 C 0.89716 0.65754 0.69493 0.0
H668 H 0.90896 0.66559 0.69263 0.0
H669 H 0.8878 0.66221 0.66951 0.0
H670 H 0.89146 0.65916 0.72888 0.0
O671 O 0.94391 0.64504 0.59763 0.0
O672 O 0.94841 0.6168 0.59589 0.0
H673 H 0.92516 0.58993 0.69998 0.0
H674 H 0.9128 0.59514 0.74942 0.0
C675 C 0.91247 0.59451 0.71219 0.0
H676 H 0.9023 0.58515 0.70305 0.0
H677 H 0.95598 0.58448 0.61394 0.0
O678 O 0.91323 0.67191 0.6082 0.0
C679 C 0.95414 0.63221 0.59618 0.0
Co680 Co 0.61627 0.34026 0.63894 0.0
Co681 Co 0.65677 0.33521 0.64142 0.0
C682 C 0.63762 0.35608 0.71161 0.0
O683 O 0.62336 0.35303 0.69226 0.0
O684 O 0.65176 0.34998 0.69624 0.0
C685 C 0.58542 0.36057 0.63091 0.0
O686 O 0.59622 0.37344 0.63675 0.0
C687 C 0.69261 0.34543 0.61632 0.0
C688 C 0.70602 0.3204 0.62169 0.0
C689 C 0.70821 0.33723 0.60696 0.0
N690 N 0.68157 0.33376 0.6339 0.0
N691 N 0.68991 0.31897 0.63818 0.0
C692 C 0.68804 0.3639 0.60745 0.0
H693 H 0.67695 0.36784 0.62873 0.0
H694 H 0.68438 0.36565 0.57179 0.0
H695 H 0.69934 0.3723 0.61421 0.0
C696 C 0.62409 0.35238 0.54759 0.0
N697 N 0.62934 0.34712 0.58843 0.0
N698 N 0.64604 0.34396 0.58742 0.0
C699 C 0.65172 0.34632 0.54478 0.0
C700 C 0.63821 0.35285 0.5189 0.0
C701 C 0.6055 0.35341 0.53384 0.0
H702 H 0.59812 0.34281 0.54975 0.0
H703 H 0.60004 0.36595 0.54479 0.0
H704 H 0.60394 0.35219 0.49691 0.0
O705 O 0.61929 0.31507 0.64713 0.0
O706 O 0.64772 0.31124 0.64998 0.0
H707 H 0.66412 0.32779 0.50262 0.0
H708 H 0.67561 0.3479 0.50818 0.0
C709 C 0.66775 0.33818 0.52637 0.0
H710 H 0.67532 0.33165 0.55242 0.0
H711 H 0.68427 0.30758 0.6498 0.0
O712 O 0.59121 0.3452 0.63066 0.0
C713 C 0.6324 0.30519 0.65053 0.0
Co714 Co 0.92156 0.36189 0.89465 0.0
Co715 Co 0.92657 0.4026 0.89013 0.0
C716 C 0.90755 0.38642 0.96605 0.0
O717 O 0.91046 0.37175 0.9482 0.0
O718 O 0.91312 0.40041 0.94827 0.0
C719 C 0.8999 0.33163 0.89206 0.0
O720 O 0.88731 0.34288 0.89615 0.0
C721 C 0.92269 0.44095 0.86744 0.0
C722 C 0.9476 0.44413 0.83237 0.0
C723 C 0.93244 0.45273 0.84235 0.0
N724 N 0.93166 0.426 0.87071 0.0
N725 N 0.94662 0.42827 0.85024 0.0
C726 C 0.90565 0.44411 0.88969 0.0
H727 H 0.90259 0.43353 0.91358 0.0
H728 H 0.89525 0.44492 0.8643 0.0
H729 H 0.90599 0.45665 0.90772 0.0
C730 C 0.90634 0.36818 0.80556 0.0
N731 N 0.91365 0.37387 0.84376 0.0
N732 N 0.91476 0.39085 0.84252 0.0
C733 C 0.90782 0.39643 0.80349 0.0
C734 C 0.90216 0.38228 0.7793 0.0
C735 C 0.90509 0.3496 0.79207 0.0
H736 H 0.91579 0.34207 0.80709 0.0
H737 H 0.8926 0.34428 0.8038 0.0
H738 H 0.90562 0.3482 0.75495 0.0
O739 O 0.94677 0.36355 0.89777 0.0
O740 O 0.95012 0.39195 0.89667 0.0
H741 H 0.91918 0.42058 0.78533 0.0
H742 H 0.89871 0.41649 0.75841 0.0
C743 C 0.90617 0.41492 0.78994 0.0
H744 H 0.89936 0.42196 0.81688 0.0
H745 H 0.95597 0.41868 0.84658 0.0
O746 O 0.91541 0.33697 0.89123 0.0
C747 C 0.95646 0.37677 0.89812 0.0
Co748 Co 0.89565 0.67005 0.15073 0.0
Co749 Co 0.85529 0.67677 0.14804 0.0
C750 C 0.87238 0.65521 0.22061 0.0
O751 O 0.88713 0.65794 0.20341 0.0
O752 O 0.85866 0.66166 0.20344 0.0
C753 C 0.92744 0.65034 0.15144 0.0
O754 O 0.91761 0.63771 0.16602 0.0
C755 C 0.81926 0.67003 0.1152 0.0
C756 C 0.80925 0.69669 0.11664 0.0
C757 C 0.80535 0.68024 0.10136 0.0
N758 N 0.831 0.68027 0.13563 0.0
N759 N 0.82456 0.69603 0.13765 0.0
C760 C 0.82202 0.65123 0.10623 0.0
H761 H 0.83572 0.64763 0.11158 0.0
H762 H 0.8179 0.64781 0.07166 0.0
H763 H 0.81396 0.64366 0.12996 0.0
C764 C 0.88865 0.65654 0.06075 0.0
N765 N 0.88301 0.66296 0.10003 0.0
N766 N 0.86666 0.66743 0.09617 0.0
C767 C 0.86183 0.66509 0.0529 0.0
C768 C 0.87544 0.65771 0.02981 0.0
C769 C 0.90648 0.64973 0.05287 0.0
H770 H 0.90944 0.63985 0.07862 0.0
H771 H 0.90783 0.6436 0.01938 0.0
H772 H 0.91593 0.66041 0.05587 0.0
O773 O 0.8935 0.69545 0.15707 0.0
O774 O 0.86525 0.70018 0.15759 0.0
H775 H 0.85003 0.67866 -0.00217 0.0
H776 H 0.83643 0.66337 0.025 0.0
C777 C 0.84644 0.67327 0.03115 0.0
H778 H 0.84124 0.68386 0.05212 0.0
H779 H 0.83118 0.70666 0.1505 0.0
O780 O 0.92071 0.66498 0.14318 0.0
C781 C 0.88071 0.70575 0.15913 0.0
Co782 Co 0.5905 0.64659 0.39655 0.0
Co783 Co 0.58537 0.606 0.3944 0.0
C784 C 0.60482 0.62292 0.46883 0.0
O785 O 0.60192 0.63748 0.45042 0.0
O786 O 0.59913 0.60886 0.45175 0.0
C787 C 0.61165 0.67725 0.39255 0.0
O788 O 0.62449 0.6664 0.39835 0.0
C789 C 0.59049 0.56813 0.37235 0.0
C790 C 0.5642 0.56244 0.34795 0.0
C791 C 0.5805 0.55536 0.35184 0.0
N792 N 0.58051 0.58223 0.37882 0.0
N793 N 0.56476 0.57847 0.36493 0.0
C794 C 0.60882 0.56669 0.38763 0.0
H795 H 0.61395 0.57957 0.39704 0.0
H796 H 0.61702 0.56077 0.3613 0.0
H797 H 0.60934 0.55811 0.41749 0.0
C798 C 0.60534 0.63974 0.30727 0.0
N799 N 0.59819 0.63422 0.3459 0.0
N800 N 0.59666 0.61726 0.34481 0.0
C801 C 0.60295 0.61155 0.30507 0.0
C802 C 0.60885 0.62558 0.28068 0.0
C803 C 0.6071 0.65829 0.29378 0.0
H804 H 0.59633 0.66599 0.3078 0.0
H805 H 0.61951 0.66338 0.30664 0.0
H806 H 0.60708 0.65971 0.25664 0.0
O807 O 0.56528 0.64488 0.40101 0.0
O808 O 0.56185 0.61649 0.40151 0.0
H809 H 0.59032 0.58746 0.29276 0.0
H810 H 0.6082 0.59164 0.25551 0.0
C811 C 0.60341 0.59311 0.29041 0.0
H812 H 0.6123 0.58593 0.3126 0.0
H813 H 0.55449 0.58716 0.36488 0.0
O814 O 0.5963 0.67151 0.39129 0.0
C815 C 0.55556 0.63169 0.40259 0.0
Co816 Co 0.39702 0.33864 0.14974 0.0
Co817 Co 0.35634 0.33491 0.14699 0.0
C818 C 0.37345 0.35421 0.22081 0.0
O819 O 0.38796 0.35091 0.20262 0.0
O820 O 0.35934 0.34863 0.20399 0.0
C821 C 0.42724 0.35987 0.14169 0.0
O822 O 0.41594 0.37251 0.1434 0.0
C823 C 0.31868 0.34171 0.12722 0.0
C824 C 0.31169 0.3163 0.09917 0.0
C825 C 0.30534 0.33273 0.10642 0.0
N826 N 0.33242 0.33109 0.13117 0.0
N827 N 0.3279 0.31583 0.11515 0.0
C828 C 0.31807 0.35987 0.1442 0.0
H829 H 0.33111 0.36428 0.15444 0.0
H830 H 0.31263 0.36859 0.11822 0.0
H831 H 0.30935 0.36043 0.17378 0.0
C832 C 0.39106 0.35142 0.05836 0.0
N833 N 0.38507 0.34573 0.09808 0.0
N834 N 0.36809 0.34593 0.09778 0.0
C835 C 0.36278 0.35265 0.05818 0.0
C836 C 0.37718 0.35637 0.03206 0.0
C837 C 0.4095 0.34988 0.04372 0.0
H838 H 0.41594 0.33912 0.0617 0.0
H839 H 0.41638 0.36209 0.05115 0.0
H840 H 0.41037 0.34745 0.007 0.0
O841 O 0.3947 0.31367 0.15597 0.0
O842 O 0.36622 0.31087 0.15393 0.0
H843 H 0.33717 0.34409 0.04343 0.0
H844 H 0.34306 0.36398 0.01536 0.0
C845 C 0.34439 0.35638 0.0467 0.0
H846 H 0.33869 0.36413 0.07402 0.0
H847 H 0.33619 0.30525 0.11299 0.0
O848 O 0.42196 0.34436 0.14438 0.0
C849 C 0.38128 0.30424 0.15638 0.0
Co850 Co 0.42118 0.64591 0.89816 0.0
Co851 Co 0.42663 0.60537 0.89319 0.0
C852 C 0.40618 0.62275 0.96779 0.0
O853 O 0.40915 0.63758 0.95121 0.0
O854 O 0.41216 0.609 0.94965 0.0
C855 C 0.40432 0.67924 0.90785 0.0
O856 O 0.39388 0.67102 0.93527 0.0
C857 C 0.41711 0.56992 0.86184 0.0
C858 C 0.44245 0.557 0.86471 0.0
C859 C 0.42556 0.5546 0.85112 0.0
N860 N 0.42862 0.58096 0.88009 0.0
N861 N 0.44365 0.57294 0.88245 0.0
C862 C 0.39833 0.57377 0.8561 0.0
H863 H 0.39577 0.58778 0.86007 0.0
H864 H 0.39364 0.56916 0.82301 0.0
H865 H 0.391 0.56668 0.8823 0.0
C866 C 0.40595 0.63993 0.81012 0.0
N867 N 0.41312 0.63379 0.84793 0.0
N868 N 0.41698 0.61735 0.84266 0.0
C869 C 0.41341 0.61292 0.79969 0.0
C870 C 0.406 0.62697 0.77832 0.0
C871 C 0.39918 0.65792 0.80475 0.0
H872 H 0.41016 0.66703 0.80176 0.0
H873 H 0.39148 0.66145 0.83476 0.0
H874 H 0.39085 0.65917 0.77462 0.0
O875 O 0.44651 0.64279 0.90326 0.0
O876 O 0.45053 0.6144 0.90174 0.0
H877 H 0.43046 0.59095 0.79572 0.0
H878 H 0.42455 0.60023 0.74236 0.0
C879 C 0.41982 0.59701 0.7766 0.0
H880 H 0.409 0.58784 0.77245 0.0
H881 H 0.45496 0.57863 0.89427 0.0
O882 O 0.41675 0.67107 0.8897 0.0
C883 C 0.4565 0.62972 0.9041 0.0
Co884 Co 0.11272 0.67339 0.6475 0.0
Co885 Co 0.15344 0.67706 0.63967 0.0
C886 C 0.1378 0.65857 0.71681 0.0
O887 O 0.12289 0.66143 0.70023 0.0
O888 O 0.15163 0.66411 0.69816 0.0
C889 C 0.08114 0.65326 0.65116 0.0
O890 O 0.09112 0.64075 0.66578 0.0
C891 C 0.19158 0.67309 0.61398 0.0
C892 C 0.19364 0.69716 0.57453 0.0
C893 C 0.20278 0.68255 0.58651 0.0
N894 N 0.17642 0.68173 0.61696 0.0
N895 N 0.17803 0.69617 0.59367 0.0
C896 C 0.19543 0.65661 0.63824 0.0
H897 H 0.18524 0.6538 0.66344 0.0
H898 H 0.19614 0.64575 0.6141 0.0
H899 H 0.20818 0.65757 0.655 0.0
C900 C 0.11752 0.65948 0.5565 0.0
N901 N 0.12389 0.66574 0.59521 0.0
N902 N 0.14083 0.66531 0.59392 0.0
C903 C 0.14579 0.65785 0.55509 0.0
C904 C 0.1312 0.65403 0.52981 0.0
C905 C 0.09886 0.66058 0.54369 0.0
H906 H 0.09278 0.67197 0.55975 0.0
H907 H 0.09211 0.64878 0.55539 0.0
H908 H 0.09728 0.66172 0.50674 0.0
O909 O 0.11505 0.69853 0.65237 0.0
O910 O 0.14345 0.70087 0.6467 0.0
H911 H 0.17099 0.66494 0.53247 0.0
H912 H 0.16478 0.64315 0.51779 0.0
C913 C 0.16403 0.65326 0.54411 0.0
H914 H 0.17033 0.64826 0.57476 0.0
H915 H 0.16813 0.70513 0.58915 0.0
O916 O 0.0877 0.66798 0.64297 0.0
C917 C 0.12859 0.70774 0.65074 0.0
Co918 Co 0.09033 0.3644 0.40317 0.0
Co919 Co 0.08306 0.40454 0.39785 0.0
C920 C 0.10433 0.38857 0.47219 0.0
O921 O 0.10234 0.37357 0.45571 0.0
O922 O 0.09754 0.40194 0.4542 0.0
C923 C 0.11069 0.33307 0.40476 0.0
O924 O 0.12326 0.34334 0.41747 0.0
C925 C 0.08994 0.44083 0.36775 0.0
C926 C 0.06317 0.45043 0.36361 0.0
C927 C 0.08006 0.45492 0.35367 0.0
N928 N 0.07921 0.42854 0.38376 0.0
N929 N 0.0633 0.43459 0.38193 0.0
C930 C 0.10919 0.43929 0.3682 0.0
H931 H 0.11329 0.42996 0.39446 0.0
H932 H 0.11392 0.4345 0.33539 0.0
H933 H 0.11515 0.45209 0.37448 0.0
C934 C 0.10355 0.37075 0.31219 0.0
N935 N 0.09729 0.37664 0.35144 0.0
N936 N 0.09303 0.39304 0.34707 0.0
C937 C 0.09558 0.39775 0.30375 0.0
C938 C 0.10266 0.38389 0.28091 0.0
C939 C 0.10973 0.35268 0.30444 0.0
H940 H 0.09895 0.34351 0.30989 0.0
H941 H 0.12013 0.34971 0.32872 0.0
H942 H 0.11502 0.35085 0.27014 0.0
O943 O 0.06482 0.36614 0.40914 0.0
O944 O 0.05987 0.39435 0.40724 0.0
H945 H 0.07682 0.4183 0.30131 0.0
H946 H 0.08349 0.4103 0.24729 0.0
C947 C 0.08795 0.41341 0.28183 0.0
H948 H 0.09788 0.42358 0.27859 0.0
H949 H 0.05238 0.42758 0.39124 0.0
O950 O 0.09582 0.33938 0.39729 0.0
C951 C 0.05441 0.37888 0.41 0.0
Co952 Co 0.39617 0.66885 0.34736 0.0
Co953 Co 0.35583 0.67527 0.3465 0.0
C954 C 0.37379 0.65516 0.27326 0.0
O955 O 0.38829 0.65773 0.29216 0.0
O956 O 0.35977 0.66117 0.28986 0.0
C957 C 0.42874 0.65012 0.34297 0.0
O958 O 0.42024 0.63892 0.31839 0.0
C959 C 0.3187 0.66856 0.36937 0.0
C960 C 0.30982 0.69542 0.37842 0.0
C961 C 0.30467 0.67844 0.38384 0.0
N962 N 0.33161 0.67935 0.35755 0.0
N963 N 0.32598 0.69535 0.36215 0.0
C964 C 0.31967 0.64936 0.36434 0.0
H965 H 0.33322 0.6449 0.36771 0.0
H966 H 0.31124 0.64261 0.38869 0.0
H967 H 0.31522 0.64591 0.33005 0.0
C968 C 0.38776 0.65283 0.43365 0.0
N969 N 0.38278 0.66067 0.39551 0.0
N970 N 0.36616 0.66423 0.39761 0.0
C971 C 0.36032 0.65948 0.43866 0.0
C972 C 0.37368 0.65165 0.46188 0.0
C973 C 0.40608 0.64844 0.44483 0.0
H974 H 0.41416 0.66019 0.44195 0.0
H975 H 0.41092 0.63875 0.42046 0.0
H976 H 0.40743 0.64316 0.47932 0.0
O977 O 0.39444 0.69429 0.34366 0.0
O978 O 0.36622 0.69875 0.34055 0.0
H979 H 0.33844 0.67643 0.44417 0.0
H980 H 0.34328 0.66465 0.49479 0.0
C981 C 0.34297 0.66389 0.45759 0.0
H982 H 0.33373 0.65357 0.44872 0.0
H983 H 0.33347 0.70631 0.35639 0.0
O984 O 0.42097 0.66343 0.35767 0.0
C985 C 0.38162 0.7045 0.34108 0.0
Co986 Co 0.08829 0.64658 0.08797 0.0
Co987 Co 0.08452 0.60588 0.09677 0.0
C988 C 0.10258 0.62115 0.01869 0.0
O989 O 0.0999 0.63611 0.03517 0.0
O990 O 0.09709 0.6074 0.03777 0.0
C991 C 0.10993 0.67666 0.09407 0.0
O992 O 0.12241 0.66516 0.09447 0.0
C993 C 0.08858 0.56776 0.12229 0.0
C994 C 0.06421 0.56526 0.16025 0.0
C995 C 0.07897 0.55632 0.14867 0.0
N996 N 0.07983 0.58285 0.11933 0.0
N997 N 0.06524 0.58101 0.14182 0.0
C998 C 0.10531 0.56416 0.09905 0.0
H999 H 0.10883 0.575 0.07642 0.0
H1000 H 0.11571 0.56228 0.12413 0.0
H1001 H 0.10423 0.55202 0.07946 0.0
C1002 C 0.10163 0.64188 0.17992 0.0
N1003 N 0.09586 0.63548 0.14071 0.0
N1004 N 0.09647 0.61852 0.14202 0.0
C1005 C 0.10367 0.61362 0.18125 0.0
C1006 C 0.10707 0.62825 0.20677 0.0
C1007 C 0.09962 0.66038 0.19368 0.0
H1008 H 0.08901 0.66656 0.17455 0.0
H1009 H 0.1118 0.66742 0.18693 0.0
H1010 H 0.09673 0.66138 0.23014 0.0
O1011 O 0.06309 0.64454 0.08353 0.0
O1012 O 0.06078 0.61613 0.0907 0.0
H1013 H 0.09637 0.58848 0.20394 0.0
H1014 H 0.11805 0.5947 0.21955 0.0
C1015 C 0.10814 0.59538 0.19272 0.0
H1016 H 0.11334 0.58897 0.16244 0.0
H1017 H 0.05616 0.5908 0.14618 0.0
O1018 O 0.0944 0.67155 0.09049 0.0
C1019 C 0.0539 0.63099 0.08621 0.0
Co1020 Co 0.11636 0.34082 0.84439 0.0
Co1021 Co 0.15675 0.33525 0.85267 0.0
C1022 C 0.14009 0.35397 0.77392 0.0
O1023 O 0.12503 0.35192 0.78999 0.0
O1024 O 0.15352 0.34807 0.79364 0.0
C1025 C 0.08296 0.35769 0.83305 0.0
O1026 O 0.0912 0.36846 0.80651 0.0
C1027 C 0.19229 0.3449 0.88325 0.0
C1028 C 0.20465 0.31924 0.8845 0.0
C1029 C 0.20737 0.33637 0.89553 0.0
N1030 N 0.18105 0.33324 0.8666 0.0
N1031 N 0.18875 0.31801 0.86663 0.0
C1032 C 0.18885 0.36387 0.88616 0.0
H1033 H 0.17488 0.36661 0.88232 0.0
H1034 H 0.19376 0.36921 0.91828 0.0
H1035 H 0.19591 0.37043 0.85856 0.0
C1036 C 0.12175 0.35785 0.93108 0.0
N1037 N 0.1281 0.34995 0.89439 0.0
N1038 N 0.14452 0.34625 0.90082 0.0
C1039 C 0.14868 0.3506 0.94347 0.0
C1040 C 0.1346 0.35864 0.96306 0.0
C1041 C 0.10318 0.36258 0.93745 0.0
H1042 H 0.09518 0.35073 0.93639 0.0
H1043 H 0.09907 0.37122 0.90973 0.0
H1044 H 0.10092 0.3692 0.96999 0.0
O1045 O 0.11939 0.31527 0.84241 0.0
O1046 O 0.14769 0.31134 0.84823 0.0
H1047 H 0.17082 0.33394 0.95042 0.0
H1048 H 0.16168 0.34115 0.00265 0.0
C1049 C 0.16467 0.34501 0.96761 0.0
H1050 H 0.1737 0.35604 0.96966 0.0
H1051 H 0.18284 0.30656 0.85642 0.0
O1052 O 0.09116 0.34525 0.85101 0.0
C1053 C 0.13246 0.30531 0.84484 0.0
Co1054 Co 0.42404 0.36389 0.59419 0.0
Co1055 Co 0.42677 0.40473 0.59868 0.0
C1056 C 0.4074 0.38778 0.52507 0.0
O1057 O 0.41115 0.37324 0.54254 0.0
O1058 O 0.41278 0.40195 0.54213 0.0
C1059 C 0.40294 0.33377 0.60223 0.0
O1060 O 0.3905 0.3453 0.60173 0.0
C1061 C 0.42011 0.44245 0.62055 0.0
C1062 C 0.44536 0.44874 0.65056 0.0
C1063 C 0.42915 0.45547 0.64257 0.0
N1064 N 0.4305 0.42852 0.61649 0.0
N1065 N 0.44566 0.43264 0.63382 0.0
C1066 C 0.40213 0.44358 0.60261 0.0
H1067 H 0.39779 0.43087 0.58961 0.0
H1068 H 0.39321 0.44826 0.62916 0.0
H1069 H 0.4018 0.45318 0.57489 0.0
C1070 C 0.41162 0.36914 0.68642 0.0
N1071 N 0.41717 0.3754 0.64684 0.0
N1072 N 0.41623 0.39236 0.64727 0.0
C1073 C 0.40907 0.39736 0.68657 0.0
C1074 C 0.40595 0.3828 0.71267 0.0
C1075 C 0.41372 0.35071 0.70072 0.0
H1076 H 0.42452 0.34458 0.68223 0.0
H1077 H 0.40167 0.34351 0.69358 0.0
H1078 H 0.41632 0.34985 0.73735 0.0
O1079 O 0.44891 0.3667 0.58579 0.0
O1080 O 0.45086 0.39525 0.59004 0.0
H1081 H 0.41576 0.42333 0.70353 0.0
H1082 H 0.39529 0.41634 0.72661 0.0
C1083 C 0.40402 0.41551 0.6972 0.0
H1084 H 0.39704 0.42089 0.66811 0.0
H1085 H 0.45605 0.42414 0.63621 0.0
O1086 O 0.4185 0.33883 0.59882 0.0
C1087 C 0.45788 0.38043 0.58574 0.0
H1088 H 0.13399 0.13475 0.98741 0.0
H1089 H 0.08996 0.11102 0.05047 0.0
H1090 H 0.14742 0.13891 0.06066 0.0
H1091 H 0.10248 0.11634 0.12418 0.0
H1092 H 0.12654 0.12552 0.25561 0.0
H1093 H 0.12137 0.11282 0.1819 0.0
H1094 H 0.14511 0.15742 0.1196 0.0
H1095 H 0.1514 0.16917 0.19364 0.0
C1096 C 0.12734 0.13017 0.01719 0.0
C1097 C 0.11104 0.12247 0.01354 0.0
C1098 C 0.13489 0.1328 0.05934 0.0
C1099 C 0.126 0.12835 0.09903 0.0
C1100 C 0.10999 0.11978 0.09485 0.0
C1101 C 0.10269 0.11671 0.05251 0.0
C1102 C 0.13117 0.13222 0.22596 0.0
C1103 C 0.13947 0.14822 0.23007 0.0
C1104 C 0.12796 0.12511 0.18357 0.0
C1105 C 0.13242 0.13416 0.14414 0.0
C1106 C 0.14163 0.1498 0.1487 0.0
C1107 C 0.14526 0.15665 0.19125 0.0
H1108 H 0.09193 0.90272 0.43832 0.0
H1109 H 0.13609 0.87955 0.50217 0.0
H1110 H 0.10416 0.89638 0.36477 0.0
H1111 H 0.1492 0.87429 0.4289 0.0
H1112 H 0.15206 0.84194 0.2988 0.0
H1113 H 0.14626 0.85485 0.37191 0.0
H1114 H 0.12289 0.89891 0.30611 0.0
H1115 H 0.12761 0.88511 0.23348 0.0
C1116 C 0.10467 0.89698 0.43643 0.0
C1117 C 0.11313 0.8917 0.47567 0.0
C1118 C 0.11178 0.89331 0.39417 0.0
C1119 C 0.12769 0.88452 0.39028 0.0
C1120 C 0.13673 0.88057 0.43008 0.0
C1121 C 0.12939 0.88385 0.47221 0.0
C1122 C 0.14611 0.85459 0.3002 0.0
C1123 C 0.14032 0.86258 0.26076 0.0
C1124 C 0.14276 0.8621 0.34218 0.0
C1125 C 0.13382 0.87795 0.34554 0.0
C1126 C 0.12931 0.8865 0.3054 0.0
C1127 C 0.13225 0.87876 0.26361 0.0
H1128 H 0.39878 0.87641 0.74469 0.0
H1129 H 0.34999 0.85434 0.70481 0.0
H1130 H 0.40271 0.88815 0.66993 0.0
H1131 H 0.35376 0.86654 0.62936 0.0
H1132 H 0.38509 0.86145 0.49526 0.0
H1133 H 0.37315 0.858 0.56987 0.0
H1134 H 0.39474 0.90716 0.60892 0.0
H1135 H 0.40715 0.91046 0.53349 0.0
C1136 C 0.38868 0.87436 0.72011 0.0
C1137 C 0.37423 0.86411 0.73044 0.0
C1138 C 0.39086 0.88131 0.67722 0.0
C1139 C 0.37866 0.87817 0.64334 0.0
C1140 C 0.36354 0.86899 0.65455 0.0
C1141 C 0.36131 0.86207 0.69779 0.0
C1142 C 0.38713 0.87169 0.51946 0.0
C1143 C 0.3974 0.88608 0.50867 0.0
C1144 C 0.38005 0.86979 0.56227 0.0
C1145 C 0.38307 0.88222 0.59568 0.0
C1146 C 0.39236 0.89723 0.58408 0.0
C1147 C 0.39941 0.89918 0.54086 0.0
H1148 H 0.39794 0.13502 0.74802 0.0
H1149 H 0.34846 0.15613 0.78601 0.0
H1150 H 0.40125 0.12257 0.82212 0.0
H1151 H 0.35162 0.1432 0.86087 0.0
H1152 H 0.38178 0.14712 -0.00263 0.0
H1153 H 0.37015 0.15113 0.92258 0.0
H1154 H 0.39296 0.1028 0.88091 0.0
H1155 H 0.40505 0.09897 0.95647 0.0
C1156 C 0.38757 0.13672 0.77202 0.0
C1157 C 0.37309 0.1469 0.76137 0.0
C1158 C 0.38938 0.12936 0.81453 0.0
C1159 C 0.37679 0.13198 0.84778 0.0
C1160 C 0.36169 0.14113 0.83619 0.0
C1161 C 0.35982 0.14847 0.79328 0.0
C1162 C 0.3841 0.13716 0.97255 0.0
C1163 C 0.39466 0.1229 0.98261 0.0
C1164 C 0.37723 0.13938 0.92962 0.0
C1165 C 0.38075 0.1274 0.8954 0.0
C1166 C 0.39021 0.11241 0.90636 0.0
C1167 C 0.39706 0.11014 0.94966 0.0
H1168 H 0.89902 0.87731 0.74888 0.0
H1169 H 0.84957 0.85632 0.78746 0.0
H1170 H 0.90274 0.88921 0.8233 0.0
H1171 H 0.85312 0.86877 0.86266 0.0
H1172 H 0.90776 0.91139 0.95845 0.0
H1173 H 0.89506 0.90851 0.88331 0.0
H1174 H 0.87177 0.86018 0.92314 0.0
H1175 H 0.88393 0.8633 -0.00246 0.0
C1176 C 0.88875 0.87549 0.7731 0.0
C1177 C 0.87417 0.86548 0.76252 0.0
C1178 C 0.8908 0.88258 0.8158 0.0
C1179 C 0.87832 0.87985 0.84927 0.0
C1180 C 0.8631 0.8709 0.83779 0.0
C1181 C 0.86102 0.86382 0.79472 0.0
C1182 C 0.89955 0.90042 0.95132 0.0
C1183 C 0.89718 0.88738 0.98353 0.0
C1184 C 0.89234 0.8987 0.90828 0.0
C1185 C 0.88257 0.88397 0.89692 0.0
C1186 C 0.87908 0.87174 0.93053 0.0
C1187 C 0.88629 0.87342 0.97319 0.0
H1188 H 0.882 0.12352 0.75473 0.0
H1189 H 0.8578 0.16752 0.69256 0.0
H1190 H 0.88723 0.11079 0.68105 0.0
H1191 H 0.8641 0.15568 0.61855 0.0
H1192 H 0.87554 0.13304 0.48668 0.0
H1193 H 0.86173 0.13694 0.55963 0.0
H1194 H 0.90662 0.11467 0.62408 0.0
H1195 H 0.91958 0.10968 0.55065 0.0
C1196 C 0.8775 0.13027 0.72505 0.0
C1197 C 0.86941 0.1464 0.72906 0.0
C1198 C 0.88073 0.12314 0.6827 0.0
C1199 C 0.87649 0.13228 0.64327 0.0
C1200 C 0.86742 0.14802 0.64771 0.0
C1201 C 0.86378 0.15491 0.69021 0.0
C1202 C 0.88209 0.12845 0.51657 0.0
C1203 C 0.89852 0.12096 0.51331 0.0
C1204 C 0.87432 0.13091 0.55852 0.0
C1205 C 0.8831 0.1265 0.59836 0.0
C1206 C 0.89921 0.11807 0.59456 0.0
C1207 C 0.90675 0.11519 0.55241 0.0
H1208 H 0.60986 0.13448 0.2448 0.0
H1209 H 0.65952 0.15523 0.2823 0.0
H1210 H 0.60627 0.12265 0.31957 0.0
H1211 H 0.65606 0.14293 0.35775 0.0
H1212 H 0.6257 0.14844 0.49349 0.0
H1213 H 0.63728 0.1518 0.41843 0.0
H1214 H 0.61442 0.1032 0.37956 0.0
H1215 H 0.60239 0.09999 0.45539 0.0
C1216 C 0.62021 0.13623 0.26885 0.0
C1217 C 0.63483 0.14614 0.25789 0.0
C1218 C 0.61822 0.12923 0.31172 0.0
C1219 C 0.63078 0.13196 0.34493 0.0
C1220 C 0.64602 0.1408 0.33306 0.0
C1221 C 0.64805 0.14778 0.28984 0.0
C1222 C 0.62332 0.1383 0.46923 0.0
C1223 C 0.61279 0.12411 0.48016 0.0
C1224 C 0.63018 0.14014 0.42617 0.0
C1225 C 0.62668 0.12786 0.39271 0.0
C1226 C 0.61717 0.11301 0.40446 0.0
C1227 C 0.61033 0.11112 0.44789 0.0
H1228 H 0.62744 0.88589 0.25536 0.0
H1229 H 0.65281 0.84291 0.19158 0.0
H1230 H 0.62276 0.89937 0.18231 0.0
H1231 H 0.64702 0.85545 0.11808 0.0
H1232 H 0.63624 0.8791 0.98698 0.0
H1233 H 0.64955 0.87464 0.06036 0.0
H1234 H 0.60408 0.89611 0.12395 0.0
H1235 H 0.59165 0.90169 0.05028 0.0
C1236 C 0.6323 0.87952 0.22549 0.0
C1237 C 0.64059 0.86348 0.22885 0.0
C1238 C 0.62938 0.88708 0.18346 0.0
C1239 C 0.63411 0.87843 0.14364 0.0
C1240 C 0.64333 0.86276 0.14754 0.0
C1241 C 0.64667 0.85546 0.18976 0.0
C1242 C 0.62948 0.88343 0.01683 0.0
C1243 C 0.61305 0.89088 0.01325 0.0
C1244 C 0.63695 0.88062 0.05902 0.0
C1245 C 0.62785 0.88462 0.09872 0.0
C1246 C 0.61174 0.89302 0.09462 0.0
C1247 C 0.60451 0.89624 0.0523 0.0
H1248 H 0.60392 0.5993 0.53823 0.0
H1249 H 0.62756 0.64718 0.49672 0.0
H1250 H 0.61593 0.60319 0.61386 0.0
H1251 H 0.63914 0.65123 0.57158 0.0
H1252 H 0.66125 0.65562 0.70842 0.0
H1253 H 0.65769 0.64304 0.63334 0.0
H1254 H 0.60777 0.62327 0.67234 0.0
H1255 H 0.61144 0.6354 0.74665 0.0
C1256 C 0.61198 0.61042 0.54493 0.0
C1257 C 0.61452 0.62307 0.51178 0.0
C1258 C 0.61878 0.61273 0.58827 0.0
C1259 C 0.62834 0.62765 0.59903 0.0
C1260 C 0.63198 0.63953 0.56466 0.0
C1261 C 0.62515 0.63729 0.52171 0.0
C1262 C 0.64971 0.64827 0.70112 0.0
C1263 C 0.63651 0.64681 0.73327 0.0
C1264 C 0.64762 0.64111 0.6581 0.0
C1265 C 0.63236 0.63224 0.64659 0.0
C1266 C 0.61976 0.62982 0.67991 0.0
C1267 C 0.62179 0.63701 0.72254 0.0
H1268 H 0.61234 0.37793 0.73926 0.0
H1269 H 0.66139 0.35672 0.78049 0.0
H1270 H 0.60805 0.38983 0.81379 0.0
H1271 H 0.65721 0.36903 0.85562 0.0
H1272 H 0.62545 0.36366 0.9892 0.0
H1273 H 0.63761 0.3602 0.91475 0.0
H1274 H 0.61577 0.40919 0.87485 0.0
H1275 H 0.60322 0.41254 0.95017 0.0
C1276 C 0.62243 0.37612 0.76405 0.0
C1277 C 0.63707 0.36607 0.75416 0.0
C1278 C 0.62002 0.38315 0.8068 0.0
C1279 C 0.63218 0.38026 0.84098 0.0
C1280 C 0.64747 0.37129 0.83019 0.0
C1281 C 0.64993 0.36431 0.78711 0.0
C1282 C 0.62344 0.37388 0.96485 0.0
C1283 C 0.61309 0.38824 0.97536 0.0
C1284 C 0.63062 0.37197 0.92215 0.0
C1285 C 0.6276 0.38434 0.88854 0.0
C1286 C 0.61819 0.39932 0.89986 0.0
C1287 C 0.61107 0.4013 0.94301 0.0
H1288 H 0.90792 0.41049 0.03454 0.0
H1289 H 0.88491 0.36215 0.9944 0.0
H1290 H 0.8954 0.40701 0.10982 0.0
H1291 H 0.87288 0.35849 0.06887 0.0
H1292 H 0.89919 0.37577 0.24436 0.0
H1293 H 0.90311 0.3877 0.16991 0.0
H1294 H 0.85395 0.36661 0.1293 0.0
H1295 H 0.85019 0.35416 0.20452 0.0
C1296 C 0.89992 0.39934 0.04146 0.0
C1297 C 0.8977 0.38645 0.00883 0.0
C1298 C 0.89282 0.39727 0.08461 0.0
C1299 C 0.88328 0.38235 0.09569 0.0
C1300 C 0.87999 0.37021 0.06174 0.0
C1301 C 0.88711 0.37222 0.01901 0.0
C1302 C 0.88905 0.37383 0.21985 0.0
C1303 C 0.87453 0.36366 0.23015 0.0
C1304 C 0.89122 0.38091 0.17711 0.0
C1305 C 0.87894 0.37802 0.14328 0.0
C1306 C 0.86379 0.36888 0.15442 0.0
C1307 C 0.86157 0.3618 0.19754 0.0
H1308 H 0.89586 0.63154 0.24792 0.0
H1309 H 0.84809 0.65567 0.28843 0.0
H1310 H 0.89938 0.61956 0.32244 0.0
H1311 H 0.85134 0.64311 0.36364 0.0
H1312 H 0.88325 0.64841 0.4961 0.0
H1313 H 0.87078 0.65128 0.42212 0.0
H1314 H 0.89179 0.6016 0.38487 0.0
H1315 H 0.90485 0.59895 0.45969 0.0
C1316 C 0.88584 0.63393 0.27257 0.0
C1317 C 0.8719 0.64492 0.26261 0.0
C1318 C 0.88777 0.62684 0.31535 0.0
C1319 C 0.8758 0.63055 0.34945 0.0
C1320 C 0.86099 0.64026 0.33834 0.0
C1321 C 0.85903 0.64737 0.29522 0.0
C1322 C 0.88508 0.63794 0.47245 0.0
C1323 C 0.89543 0.62363 0.48347 0.0
C1324 C 0.87766 0.63949 0.42999 0.0
C1325 C 0.88036 0.62676 0.39717 0.0
C1326 C 0.88966 0.61178 0.40919 0.0
C1327 C 0.89709 0.61021 0.45205 0.0
H1328 H 0.38538 0.36277 0.4977 0.0
H1329 H 0.40628 0.41206 0.45737 0.0
H1330 H 0.37287 0.35898 0.42372 0.0
H1331 H 0.3934 0.40838 0.38268 0.0
H1332 H 0.39817 0.37651 0.24845 0.0
H1333 H 0.40192 0.38884 0.32264 0.0
H1334 H 0.35305 0.36726 0.36408 0.0
H1335 H 0.3494 0.35456 0.28914 0.0
C1336 C 0.38698 0.37301 0.47321 0.0
C1337 C 0.39713 0.38757 0.48308 0.0
C1338 C 0.37961 0.37091 0.43082 0.0
C1339 C 0.38224 0.38328 0.397 0.0
C1340 C 0.39131 0.3985 0.40787 0.0
C1341 C 0.39863 0.40066 0.45066 0.0
C1342 C 0.38804 0.37462 0.27308 0.0
C1343 C 0.37364 0.36425 0.26321 0.0
C1344 C 0.39011 0.38189 0.31561 0.0
C1345 C 0.37787 0.37893 0.34956 0.0
C1346 C 0.36282 0.3696 0.33877 0.0
C1347 C 0.36068 0.36239 0.29585 0.0
H1348 H 0.38226 0.64593 0.9952 0.0
H1349 H 0.40702 0.59847 0.03561 0.0
H1350 H 0.3702 0.64927 0.0697 0.0
H1351 H 0.39439 0.60152 0.11083 0.0
H1352 H 0.34911 0.65422 0.20639 0.0
H1353 H 0.35219 0.64123 0.13164 0.0
H1354 H 0.4021 0.62108 0.16969 0.0
H1355 H 0.39881 0.63348 0.24368 0.0
C1356 C 0.38481 0.63596 0.01986 0.0
C1357 C 0.39597 0.62216 0.00988 0.0
C1358 C 0.37766 0.63777 0.06261 0.0
C1359 C 0.38149 0.62581 0.09666 0.0
C1360 C 0.39143 0.61114 0.08556 0.0
C1361 C 0.39859 0.60931 0.04245 0.0
C1362 C 0.36052 0.64667 0.19897 0.0
C1363 C 0.37387 0.64523 0.23064 0.0
C1364 C 0.36234 0.63927 0.15613 0.0
C1365 C 0.3775 0.63025 0.14434 0.0
C1366 C 0.39018 0.62775 0.17739 0.0
C1367 C 0.38838 0.63512 0.21985 0.0
H1368 H 0.13499 0.63214 0.00112 0.0
H1369 H 0.09018 0.60976 0.93872 0.0
H1370 H 0.14782 0.63723 0.92742 0.0
H1371 H 0.10211 0.61597 0.86478 0.0
H1372 H 0.1252 0.62664 0.73278 0.0
H1373 H 0.12052 0.61303 0.80566 0.0
H1374 H 0.14502 0.65666 0.87035 0.0
H1375 H 0.15079 0.66935 0.79695 0.0
C1376 C 0.12807 0.628 0.97137 0.0
C1377 C 0.11172 0.6204 0.97534 0.0
C1378 C 0.13526 0.63118 0.92901 0.0
C1379 C 0.12596 0.62739 0.88951 0.0
C1380 C 0.10992 0.6189 0.89392 0.0
C1381 C 0.10297 0.61531 0.9364 0.0
C1382 C 0.13007 0.63294 0.76271 0.0
C1383 C 0.13845 0.64894 0.75948 0.0
C1384 C 0.12717 0.6253 0.80465 0.0
C1385 C 0.13201 0.6338 0.84456 0.0
C1386 C 0.14125 0.64946 0.8408 0.0
C1387 C 0.14457 0.65685 0.79866 0.0
H1388 H 0.15169 0.34125 0.69439 0.0
H1389 H 0.13018 0.3867 0.75615 0.0
H1390 H 0.14625 0.35342 0.62028 0.0
H1391 H 0.12584 0.39969 0.68231 0.0
H1392 H 0.09374 0.40245 0.55153 0.0
H1393 H 0.10638 0.39701 0.62509 0.0
H1394 H 0.14993 0.37194 0.56132 0.0
H1395 H 0.1364 0.37632 0.48827 0.0
C1396 C 0.14651 0.35421 0.69192 0.0
C1397 C 0.1414 0.36309 0.73067 0.0
C1398 C 0.14337 0.36129 0.64936 0.0
C1399 C 0.13532 0.37757 0.64475 0.0
C1400 C 0.13157 0.38697 0.6841 0.0
C1401 C 0.1343 0.37967 0.72652 0.0
C1402 C 0.10624 0.39622 0.55342 0.0
C1403 C 0.11411 0.38978 0.5145 0.0
C1404 C 0.11359 0.39308 0.59567 0.0
C1405 C 0.12916 0.3837 0.59972 0.0
C1406 C 0.13771 0.37868 0.56002 0.0
C1407 C 0.13011 0.38142 0.51801 0.0
H1408 H 0.12499 0.12383 0.49267 0.0
H1409 H 0.14077 0.17403 0.53983 0.0
H1410 H 0.11971 0.11467 0.57037 0.0
H1411 H 0.13573 0.16493 0.61747 0.0
H1412 H 0.13628 0.1389 0.75383 0.0
H1413 H 0.14603 0.14376 0.67646 0.0
H1414 H 0.09736 0.12439 0.62698 0.0
H1415 H 0.08763 0.11976 0.70428 0.0
C1416 C 0.12764 0.13273 0.51991 0.0
C1417 C 0.13356 0.14945 0.51089 0.0
C1418 C 0.12458 0.12755 0.56409 0.0
C1419 C 0.12741 0.13908 0.59972 0.0
C1420 C 0.13377 0.1557 0.5906 0.0
C1421 C 0.13669 0.16089 0.54638 0.0
C1422 C 0.12786 0.13544 0.72618 0.0
C1423 C 0.11138 0.12873 0.73446 0.0
C1424 C 0.13338 0.13826 0.68218 0.0
C1425 C 0.12245 0.13437 0.64596 0.0
C1426 C 0.10613 0.12719 0.65435 0.0
C1427 C 0.10058 0.12451 0.69838 0.0
H1428 H 0.12809 0.85847 0.7411 0.0
H1429 H 0.09799 0.90303 0.77893 0.0
H1430 H 0.13514 0.85336 0.81876 0.0
H1431 H 0.10755 0.89999 0.85581 0.0
H1432 H 0.10819 0.87891 -0.00292 0.0
H1433 H 0.10314 0.88627 0.91939 0.0
H1434 H 0.14911 0.85775 0.88164 0.0
H1435 H 0.152 0.84793 0.95824 0.0
C1436 C 0.12324 0.86739 0.7661 0.0
C1437 C 0.11229 0.88099 0.7539 0.0
C1438 C 0.12767 0.86476 0.81093 0.0
C1439 C 0.12195 0.87619 0.84468 0.0
C1440 C 0.11184 0.89048 0.83168 0.0
C1441 C 0.10669 0.89256 0.78708 0.0
C1442 C 0.11698 0.87397 0.97187 0.0
C1443 C 0.13034 0.86267 0.98373 0.0
C1444 C 0.11437 0.87854 0.92706 0.0
C1445 C 0.1256 0.87258 0.89311 0.0
C1446 C 0.13971 0.86219 0.90588 0.0
C1447 C 0.14173 0.8569 0.95035 0.0
H1448 H 0.38383 0.88871 0.98819 0.0
H1449 H 0.36505 0.84022 0.04014 0.0
H1450 H 0.38826 0.89914 0.06509 0.0
H1451 H 0.36908 0.85072 0.11694 0.0
H1452 H 0.37024 0.87878 0.25055 0.0
H1453 H 0.35979 0.87442 0.17351 0.0
H1454 H 0.41033 0.88734 0.12232 0.0
H1455 H 0.42077 0.89124 0.19913 0.0
C1456 C 0.38023 0.88052 0.01623 0.0
C1457 C 0.37391 0.86382 0.00877 0.0
C1458 C 0.38276 0.88644 0.05993 0.0
C1459 C 0.37893 0.87573 0.09663 0.0
C1460 C 0.37183 0.85931 0.08909 0.0
C1461 C 0.36948 0.85333 0.04535 0.0
C1462 C 0.37892 0.88099 0.22256 0.0
C1463 C 0.39616 0.88557 0.23017 0.0
C1464 C 0.373 0.87849 0.1788 0.0
C1465 C 0.38425 0.88069 0.14228 0.0
C1466 C 0.40133 0.88592 0.14998 0.0
C1467 C 0.4073 0.88819 0.19373 0.0
H1468 H 0.421 0.11834 0.29182 0.0
H1469 H 0.37078 0.13307 0.24241 0.0
H1470 H 0.41124 0.12308 0.36905 0.0
H1471 H 0.36109 0.13832 0.31974 0.0
H1472 H 0.36827 0.17261 0.45177 0.0
H1473 H 0.37233 0.16195 0.37509 0.0
H1474 H 0.38838 0.11248 0.4275 0.0
H1475 H 0.3838 0.12306 0.50431 0.0
C1476 C 0.40772 0.12208 0.29775 0.0
C1477 C 0.39649 0.12509 0.26174 0.0
C1478 C 0.40216 0.12484 0.34173 0.0
C1479 C 0.38542 0.13099 0.35003 0.0
C1480 C 0.37405 0.13356 0.31397 0.0
C1481 C 0.37954 0.13055 0.27004 0.0
C1482 C 0.37207 0.15929 0.44669 0.0
C1483 C 0.37547 0.1485 0.48341 0.0
C1484 C 0.37444 0.15322 0.40303 0.0
C1485 C 0.38057 0.1364 0.39571 0.0
C1486 C 0.38362 0.12549 0.43251 0.0
C1487 C 0.381 0.13149 0.47615 0.0
H1488 H 0.91586 0.86163 0.27579 0.0
H1489 H 0.88228 0.90572 0.26116 0.0
H1490 H 0.90513 0.85701 0.35184 0.0
H1491 H 0.87146 0.90117 0.33809 0.0
H1492 H 0.87622 0.89315 0.49827 0.0
H1493 H 0.88299 0.90083 0.42013 0.0
H1494 H 0.87591 0.84759 0.38111 0.0
H1495 H 0.86951 0.83999 0.45908 0.0
C1496 C 0.90618 0.87033 0.28912 0.0
C1497 C 0.89956 0.88378 0.26283 0.0
C1498 C 0.9 0.86766 0.33237 0.0
C1499 C 0.88717 0.87848 0.35012 0.0
C1500 C 0.88125 0.89259 0.32477 0.0
C1501 C 0.88743 0.89522 0.28114 0.0
C1502 C 0.87564 0.88329 0.47248 0.0
C1503 C 0.87226 0.86607 0.48394 0.0
C1504 C 0.8795 0.88764 0.42807 0.0
C1505 C 0.88015 0.87474 0.39503 0.0
C1506 C 0.87568 0.8577 0.40625 0.0
C1507 C 0.87184 0.85338 0.45052 0.0
H1508 H 0.88371 0.1085 0.2322 0.0
H1509 H 0.9177 0.15244 0.22331 0.0
H1510 H 0.87419 0.11362 0.15459 0.0
H1511 H 0.90837 0.15756 0.1462 0.0
H1512 H 0.87455 0.17444 0.03253 0.0
H1513 H 0.88141 0.16751 0.11066 0.0
H1514 H 0.88556 0.11351 0.07565 0.0
H1515 H 0.87821 0.12056 -0.00246 0.0
C1516 C 0.88921 0.11913 0.21335 0.0
C1517 C 0.90112 0.13031 0.23348 0.0
C1518 C 0.88379 0.12207 0.1692 0.0
C1519 C 0.89031 0.13619 0.14486 0.0
C1520 C 0.90279 0.14688 0.16466 0.0
C1521 C 0.90817 0.14393 0.20858 0.0
C1522 C 0.87648 0.16108 0.04203 0.0
C1523 C 0.87566 0.14795 0.00981 0.0
C1524 C 0.88061 0.15712 0.08638 0.0
C1525 C 0.88417 0.13999 0.09897 0.0
C1526 C 0.88274 0.12678 0.06686 0.0
C1527 C 0.87858 0.13077 0.02241 0.0
H1528 H 0.64046 0.13206 0.73823 0.0
H1529 H 0.59087 0.11557 0.78811 0.0
H1530 H 0.65047 0.13641 0.8156 0.0
H1531 H 0.60084 0.11961 0.86527 0.0
H1532 H 0.62638 0.12087 0.0006 0.0
H1533 H 0.62278 0.10996 0.92382 0.0
H1534 H 0.63984 0.1591 0.87137 0.0
H1535 H 0.64314 0.16998 0.94799 0.0
C1536 C 0.63192 0.12895 0.76594 0.0
C1537 C 0.61502 0.12336 0.7578 0.0
C1538 C 0.63759 0.13145 0.80991 0.0
C1539 C 0.62641 0.1283 0.84614 0.0
C1540 C 0.60979 0.12185 0.83788 0.0
C1541 C 0.60408 0.11952 0.79391 0.0
C1542 C 0.62967 0.12913 0.97245 0.0
C1543 C 0.63525 0.1461 0.97964 0.0
C1544 C 0.62761 0.12294 0.9288 0.0
C1545 C 0.63115 0.13368 0.89193 0.0
C1546 C 0.63738 0.15047 0.89931 0.0
C1547 C 0.63929 0.15668 0.94296 0.0
H1548 H 0.59902 0.90172 0.71281 0.0
H1549 H 0.62809 0.85613 0.74789 0.0
H1550 H 0.60863 0.89926 0.63587 0.0
H1551 H 0.63524 0.85175 0.66981 0.0
H1552 H 0.6525 0.84804 0.52998 0.0
H1553 H 0.64967 0.85713 0.60731 0.0
H1554 H 0.6035 0.88573 0.57199 0.0
H1555 H 0.60832 0.87898 0.4938 0.0
C1556 C 0.60751 0.89115 0.70408 0.0
C1557 C 0.61277 0.8791 0.73651 0.0
C1558 C 0.61269 0.88943 0.65943 0.0
C1559 C 0.62251 0.87508 0.64556 0.0
C1560 C 0.62795 0.86317 0.67849 0.0
C1561 C 0.62346 0.8654 0.72348 0.0
C1562 C 0.64218 0.85685 0.53858 0.0
C1563 C 0.6306 0.86276 0.5058 0.0
C1564 C 0.64022 0.86174 0.58339 0.0
C1565 C 0.62609 0.87192 0.59695 0.0
C1566 C 0.61474 0.87811 0.5636 0.0
C1567 C 0.61722 0.8739 0.51854 0.0
H1568 H 0.6429 0.67189 0.04123 0.0
H1569 H 0.63351 0.61999 0.99506 0.0
H1570 H 0.6389 0.66251 0.11895 0.0
H1571 H 0.62941 0.61045 0.07297 0.0
H1572 H 0.59484 0.61313 0.20362 0.0
H1573 H 0.60569 0.6173 0.12721 0.0
H1574 H 0.6504 0.64367 0.18012 0.0
H1575 H 0.63946 0.63941 0.25657 0.0
C1576 C 0.64051 0.65836 0.04807 0.0
C1577 C 0.63871 0.64654 0.01282 0.0
C1578 C 0.63822 0.65298 0.09236 0.0
C1579 C 0.63389 0.63574 0.10184 0.0
C1580 C 0.63268 0.62381 0.06645 0.0
C1581 C 0.63508 0.6292 0.02215 0.0
C1582 C 0.60722 0.61935 0.19876 0.0
C1583 C 0.61643 0.62589 0.23547 0.0
C1584 C 0.61344 0.62173 0.15522 0.0
C1585 C 0.62887 0.63082 0.14791 0.0
C1586 C 0.63841 0.63673 0.18493 0.0
C1587 C 0.63221 0.63428 0.22844 0.0
H1588 H 0.62028 0.38041 0.48845 0.0
H1589 H 0.65717 0.34237 0.44316 0.0
H1590 H 0.61614 0.38969 0.41265 0.0
H1591 H 0.65589 0.35393 0.36913 0.0
H1592 H 0.6327 0.35826 0.2309 0.0
H1593 H 0.64242 0.35317 0.30616 0.0
H1594 H 0.61895 0.40152 0.34784 0.0
H1595 H 0.6064 0.40443 0.27423 0.0
C1596 C 0.62772 0.3741 0.46237 0.0
C1597 C 0.63839 0.35998 0.4724 0.0
C1598 C 0.62576 0.37986 0.41835 0.0
C1599 C 0.63528 0.37238 0.38297 0.0
C1600 C 0.64748 0.35956 0.39411 0.0
C1601 C 0.64865 0.35311 0.43783 0.0
C1602 C 0.62928 0.36754 0.25659 0.0
C1603 C 0.61826 0.38137 0.24692 0.0
C1604 C 0.63531 0.36492 0.30014 0.0
C1605 C 0.63125 0.37663 0.33491 0.0
C1606 C 0.62175 0.39156 0.32351 0.0
C1607 C 0.61488 0.39359 0.2805 0.0
H1608 H 0.91494 0.39684 0.70333 0.0
H1609 H 0.87263 0.36639 0.75426 0.0
H1610 H 0.90435 0.39285 0.62673 0.0
H1611 H 0.86192 0.36236 0.67759 0.0
H1612 H 0.87084 0.33663 0.53671 0.0
H1613 H 0.87455 0.3453 0.61501 0.0
H1614 H 0.88039 0.39842 0.573 0.0
H1615 H 0.87667 0.38955 0.49444 0.0
C1616 C 0.90311 0.38969 0.69803 0.0
C1617 C 0.89454 0.38188 0.73418 0.0
C1618 C 0.89703 0.38744 0.65437 0.0
C1619 C 0.88235 0.37725 0.64637 0.0
C1620 C 0.87335 0.37012 0.68291 0.0
C1621 C 0.87943 0.37242 0.72656 0.0
C1622 C 0.87243 0.35018 0.54457 0.0
C1623 C 0.8733 0.36252 0.51027 0.0
C1624 C 0.87453 0.35517 0.58919 0.0
C1625 C 0.87768 0.37254 0.59995 0.0
C1626 C 0.87803 0.38495 0.56549 0.0
C1627 C 0.87586 0.37994 0.52083 0.0
H1628 H 0.86781 0.63012 0.7456 0.0
H1629 H 0.92079 0.62378 0.78667 0.0
H1630 H 0.85984 0.63786 0.82294 0.0
H1631 H 0.91292 0.63124 0.86384 0.0
H1632 H 0.8985 0.67027 0.97009 0.0
H1633 H 0.90317 0.66038 0.89313 0.0
H1634 H 0.85921 0.6264 0.90461 0.0
H1635 H 0.8546 0.63639 0.98215 0.0
C1636 C 0.87758 0.62989 0.77166 0.0
C1637 C 0.89481 0.62625 0.76098 0.0
C1638 C 0.87306 0.63433 0.81558 0.0
C1639 C 0.88583 0.63534 0.84889 0.0
C1640 C 0.90291 0.63076 0.83845 0.0
C1641 C 0.90738 0.6263 0.79468 0.0
C1642 C 0.8898 0.66079 0.95588 0.0
C1643 C 0.87645 0.65375 0.98173 0.0
C1644 C 0.8925 0.65507 0.91218 0.0
C1645 C 0.8818 0.64233 0.89364 0.0
C1646 C 0.86769 0.63614 0.91849 0.0
C1647 C 0.86503 0.64184 0.96249 0.0
H1648 H 0.39931 0.38058 0.00064 0.0
H1649 H 0.35709 0.34798 0.95956 0.0
H1650 H 0.40442 0.38856 0.92368 0.0
H1651 H 0.3599 0.35839 0.88327 0.0
H1652 H 0.38306 0.3592 0.74439 0.0
H1653 H 0.37432 0.35464 0.82104 0.0
H1654 H 0.40084 0.40168 0.8596 0.0
H1655 H 0.41221 0.40407 0.78425 0.0
C1656 C 0.39083 0.37546 0.97502 0.0
C1657 C 0.37801 0.36345 0.98602 0.0
C1658 C 0.39346 0.38038 0.93056 0.0
C1659 C 0.38274 0.37407 0.89599 0.0
C1660 C 0.36895 0.36311 0.90798 0.0
C1661 C 0.36695 0.35746 0.95223 0.0
C1662 C 0.38733 0.36831 0.7696 0.0
C1663 C 0.39859 0.38178 0.75842 0.0
C1664 C 0.3819 0.36601 0.81381 0.0
C1665 C 0.3869 0.37765 0.84779 0.0
C1666 C 0.39714 0.39194 0.83546 0.0
C1667 C 0.40334 0.39366 0.79166 0.0
H1668 H 0.38441 0.60622 0.7307 0.0
H1669 H 0.41687 0.65125 0.71964 0.0
H1670 H 0.37391 0.61108 0.65375 0.0
H1671 H 0.40643 0.6562 0.64344 0.0
H1672 H 0.37112 0.67259 0.53402 0.0
H1673 H 0.37768 0.66511 0.61199 0.0
H1674 H 0.38549 0.61194 0.57301 0.0
H1675 H 0.37856 0.61951 0.49495 0.0
C1676 C 0.38938 0.61701 0.7115 0.0
C1677 C 0.40113 0.62858 0.73085 0.0
C1678 C 0.38338 0.61982 0.66782 0.0
C1679 C 0.38908 0.63424 0.64334 0.0
C1680 C 0.40146 0.64528 0.66218 0.0
C1681 C 0.40748 0.64243 0.70553 0.0
C1682 C 0.37368 0.65924 0.5426 0.0
C1683 C 0.37421 0.64654 0.50922 0.0
C1684 C 0.37762 0.65499 0.58687 0.0
C1685 C 0.38229 0.638 0.59815 0.0
C1686 C 0.38185 0.62509 0.56509 0.0
C1687 C 0.3779 0.62938 0.5207 0.0
H1688 H 0.10801 0.63111 0.49566 0.0
H1689 H 0.15251 0.66151 0.45923 0.0
H1690 H 0.10383 0.62342 0.41783 0.0
H1691 H 0.15035 0.65142 0.38267 0.0
H1692 H 0.12933 0.65184 0.24151 0.0
H1693 H 0.13649 0.65636 0.3194 0.0
H1694 H 0.109 0.6095 0.35452 0.0
H1695 H 0.09944 0.60693 0.27749 0.0
C1696 C 0.11712 0.63587 0.471 0.0
C1697 C 0.13037 0.64717 0.48349 0.0
C1698 C 0.11501 0.6311 0.42617 0.0
C1699 C 0.12662 0.63688 0.39291 0.0
C1700 C 0.14069 0.64715 0.40642 0.0
C1701 C 0.14226 0.6526 0.45087 0.0
C1702 C 0.12456 0.64272 0.26611 0.0
C1703 C 0.11358 0.62924 0.25341 0.0
C1704 C 0.12904 0.64502 0.31104 0.0
C1705 C 0.12329 0.63339 0.3443 0.0
C1706 C 0.11328 0.61915 0.33071 0.0
C1707 C 0.10813 0.61735 0.28603 0.0
H1708 H 0.08832 0.36148 0.22225 0.0
H1709 H 0.1248 0.40332 0.23163 0.0
H1710 H 0.09694 0.35639 0.14441 0.0
H1711 H 0.13367 0.39821 0.15346 0.0
H1712 H 0.13106 0.39087 -0.00338 0.0
H1713 H 0.12279 0.3987 0.07365 0.0
H1714 H 0.12388 0.34478 0.11101 0.0
H1715 H 0.13177 0.33709 0.034 0.0
C1716 C 0.09812 0.36963 0.20729 0.0
C1717 C 0.1062 0.38253 0.23259 0.0
C1718 C 0.10313 0.36669 0.16304 0.0
C1719 C 0.11624 0.37666 0.14341 0.0
C1720 C 0.12358 0.3903 0.16796 0.0
C1721 C 0.11854 0.39324 0.21242 0.0
C1722 C 0.12982 0.38083 0.0218 0.0
C1723 C 0.13222 0.36347 0.01023 0.0
C1724 C 0.12509 0.38526 0.0656 0.0
C1725 C 0.12255 0.37232 0.098 0.0
C1726 C 0.12552 0.35498 0.08644 0.0
C1727 C 0.13025 0.35058 0.04277 0.0
H1728 H 0.30512 0.15785 0.52927 0.0
H1729 H 0.26921 0.18131 0.62158 0.0
H1730 H 0.28188 0.15352 0.47494 0.0
H1731 H 0.24583 0.17681 0.56743 0.0
H1732 H 0.20537 0.15784 0.46852 0.0
H1733 H 0.22856 0.1536 0.52326 0.0
H1734 H 0.26472 0.17675 0.43084 0.0
H1735 H 0.24142 0.1812 0.37643 0.0
C1736 C 0.29214 0.16142 0.53875 0.0
C1737 C 0.28892 0.16956 0.58015 0.0
C1738 C 0.27886 0.15915 0.50735 0.0
C1739 C 0.26202 0.16481 0.51688 0.0
C1740 C 0.25862 0.17211 0.55929 0.0
C1741 C 0.27198 0.17467 0.59033 0.0
C1742 C 0.21838 0.16141 0.45923 0.0
C1743 C 0.22167 0.1695 0.41778 0.0
C1744 C 0.23161 0.15919 0.49082 0.0
C1745 C 0.24847 0.16482 0.48137 0.0
C1746 C 0.25192 0.17208 0.43891 0.0
C1747 C 0.23862 0.1746 0.40772 0.0
H1748 H 0.08452 0.98838 0.62848 0.0
H1749 H 0.09123 0.95331 0.73959 0.0
H1750 H 0.08853 0.01296 0.67964 0.0
H1751 H 0.0954 0.97763 0.7906 0.0
H1752 H 0.06944 0.02348 0.8671 0.0
H1753 H 0.07408 0.99864 0.81819 0.0
H1754 H 0.10742 0.02932 0.73358 0.0
H1755 H 0.10262 0.05426 0.78282 0.0
C1756 C 0.08748 0.98596 0.66352 0.0
C1757 C 0.08767 0.96902 0.68016 0.0
C1758 C 0.08974 1.0 0.69289 0.0
C1759 C 0.09208 0.99727 0.7394 0.0
C1760 C 0.09338 0.98021 0.75519 0.0
C1761 C 0.09116 0.96628 0.72594 0.0
C1762 C 0.07819 0.02474 0.83887 0.0
C1763 C 0.08601 0.04066 0.82947 0.0
C1764 C 0.08087 0.01052 0.81075 0.0
C1765 C 0.09118 0.01194 0.77191 0.0
C1766 C 0.09941 0.02778 0.76317 0.0
C1767 C 0.0969 0.04199 0.79178 0.0
H1768 H 0.20261 0.84551 0.00313 0.0
H1769 H 0.23855 0.83295 0.10865 0.0
H1770 H 0.22654 0.85024 0.95098 0.0
H1771 H 0.26268 0.83771 0.05652 0.0
H1772 H 0.30331 0.8541 0.9547 0.0
H1773 H 0.27892 0.85849 0.00576 0.0
H1774 H 0.24657 0.8284 0.91747 0.0
H1775 H 0.27098 0.82403 0.8667 0.0
C1776 C 0.2157 0.84436 0.0155 0.0
C1777 C 0.21881 0.83908 0.05995 0.0
C1778 C 0.22939 0.84689 0.98556 0.0
C1779 C 0.24652 0.84421 -0.00056 0.0
C1780 C 0.24965 0.84004 0.04486 0.0
C1781 C 0.23589 0.83736 0.07478 0.0
C1782 C 0.29083 0.84902 0.94534 0.0
C1783 C 0.28893 0.83907 0.9061 0.0
C1784 C 0.27692 0.85131 0.97496 0.0
C1785 C 0.26079 0.84382 0.96573 0.0
C1786 C 0.25874 0.83457 0.92534 0.0
C1787 C 0.27269 0.83207 0.89617 0.0
H1788 H 0.40725 0.95491 0.27676 0.0
H1789 H 0.43153 0.99045 0.36842 0.0
H1790 H 0.40283 0.97826 0.22279 0.0
H1791 H 0.42693 0.01397 0.31457 0.0
H1792 H 0.42967 0.01885 0.12318 0.0
H1793 H 0.42583 0.99544 0.17771 0.0
H1794 H 0.40336 0.03142 0.27177 0.0
H1795 H 0.40699 0.05469 0.21699 0.0
C1796 C 0.411 0.96783 0.2862 0.0
C1797 C 0.41938 0.9709 0.32734 0.0
C1798 C 0.40868 0.98118 0.25497 0.0
C1799 C 0.41452 0.99795 0.2644 0.0
C1800 C 0.4221 1.00122 0.30653 0.0
C1801 C 0.42471 0.98779 0.3374 0.0
C1802 C 0.42336 0.02159 0.1549 0.0
C1803 C 0.41825 0.03851 0.16536 0.0
C1804 C 0.42119 0.00823 0.18617 0.0
C1805 C 0.41429 0.0116 0.22907 0.0
C1806 C 0.40869 0.02843 0.23899 0.0
C1807 C 0.41055 0.04172 0.20736 0.0
H1808 H 0.7304 0.80794 0.42046 0.0
H1809 H 0.71477 0.86103 0.43778 0.0
H1810 H 0.75417 0.81241 0.47272 0.0
H1811 H 0.73913 0.8656 0.48917 0.0
H1812 H 0.80096 0.85741 0.54253 0.0
H1813 H 0.77714 0.85977 0.4888 0.0
H1814 H 0.74871 0.82152 0.56353 0.0
H1815 H 0.77213 0.81959 0.61816 0.0
C1816 C 0.73236 0.82073 0.43427 0.0
C1817 C 0.72073 0.83415 0.4245 0.0
C1818 C 0.74591 0.82324 0.46438 0.0
C1819 C 0.74832 0.83928 0.48527 0.0
C1820 C 0.73753 0.85313 0.4733 0.0
C1821 C 0.72373 0.85055 0.44334 0.0
C1822 C 0.78928 0.85022 0.54902 0.0
C1823 C 0.78831 0.83859 0.58538 0.0
C1824 C 0.77574 0.85141 0.51779 0.0
C1825 C 0.76119 0.84075 0.52197 0.0
C1826 C 0.75983 0.82985 0.55953 0.0
C1827 C 0.7732 0.82882 0.5909 0.0
H1828 H 0.90966 0.95545 0.21973 0.0
H1829 H 0.93157 0.99013 0.12177 0.0
H1830 H 0.9055 0.97951 0.27163 0.0
H1831 H 0.92755 0.01428 0.17378 0.0
H1832 H 0.91048 0.05648 0.26875 0.0
H1833 H 0.9061 0.03258 0.21626 0.0
H1834 H 0.92728 0.99721 0.31397 0.0
H1835 H 0.93156 0.02115 0.36638 0.0
C1836 C 0.91294 0.96831 0.20854 0.0
C1837 C 0.92054 0.97097 0.16617 0.0
C1838 C 0.91081 0.98208 0.2386 0.0
C1839 C 0.91619 0.99883 0.2269 0.0
C1840 C 0.92305 1.0016 0.18366 0.0
C1841 C 0.92537 0.98779 0.15385 0.0
C1842 C 0.91354 0.04351 0.27967 0.0
C1843 C 0.92096 0.0406 0.32211 0.0
C1844 C 0.91129 0.02985 0.24933 0.0
C1845 C 0.91632 0.01298 0.26091 0.0
C1846 C 0.92303 0.00999 0.30419 0.0
C1847 C 0.9255 0.02368 0.33423 0.0
H1848 H 0.76735 0.17725 0.87601 0.0
H1849 H 0.80428 0.1586 0.97284 0.0
H1850 H 0.74417 0.17335 0.93112 0.0
H1851 H 0.78122 0.15485 0.02812 0.0
H1852 H 0.73896 0.18284 0.12078 0.0
H1853 H 0.76268 0.1781 0.06772 0.0
H1854 H 0.7281 0.15072 0.97934 0.0
H1855 H 0.70453 0.15532 0.03253 0.0
C1856 C 0.77041 0.1718 0.90861 0.0
C1857 C 0.78755 0.16783 0.91973 0.0
C1858 C 0.75717 0.16958 0.94018 0.0
C1859 C 0.76087 0.16377 0.98398 0.0
C1860 C 0.77796 0.15931 0.99464 0.0
C1861 C 0.79114 0.16123 0.96277 0.0
C1862 C 0.73661 0.17527 0.09077 0.0
C1863 C 0.71997 0.16911 0.08138 0.0
C1864 C 0.75016 0.17258 0.06034 0.0
C1865 C 0.74724 0.16405 0.01929 0.0
C1866 C 0.73074 0.15733 0.01068 0.0
C1867 C 0.71728 0.15975 0.0415 0.0
H1868 H 0.56397 0.02408 0.62649 0.0
H1869 H 0.6044 0.05063 0.69814 0.0
H1870 H 0.56629 0.99986 0.67866 0.0
H1871 H 0.60708 0.02605 0.74964 0.0
H1872 H 0.60912 0.96519 0.8015 0.0
H1873 H 0.61261 0.99013 0.75126 0.0
H1874 H 0.55853 1.00193 0.76592 0.0
H1875 H 0.55511 0.97754 0.81672 0.0
C1876 C 0.57381 0.02446 0.65234 0.0
C1877 C 0.58424 0.03914 0.65743 0.0
C1878 C 0.57505 0.01066 0.6824 0.0
C1879 C 0.58677 0.01116 0.71839 0.0
C1880 C 0.59804 0.02529 0.72195 0.0
C1881 C 0.59667 0.03926 0.69196 0.0
C1882 C 0.59816 0.97352 0.7956 0.0
C1883 C 0.58185 0.96942 0.8135 0.0
C1884 C 0.60013 0.98768 0.76633 0.0
C1885 C 0.58576 0.99773 0.75408 0.0
C1886 C 0.56976 0.99422 0.77417 0.0
C1887 C 0.56785 0.98031 0.80352 0.0
H1888 H 0.74121 0.68454 0.86261 0.0
H1889 H 0.70967 0.65767 0.95935 0.0
H1890 H 0.7659 0.68233 0.91311 0.0
H1891 H 0.73425 0.6557 0.01046 0.0
H1892 H 0.78594 0.65042 0.08781 0.0
H1893 H 0.76377 0.64568 0.03006 0.0
H1894 H 0.7715 0.69767 0.98163 0.0
H1895 H 0.79364 0.70215 0.03753 0.0
C1896 C 0.73971 0.67769 0.89414 0.0
C1897 C 0.72357 0.67104 0.90661 0.0
C1898 C 0.7538 0.67658 0.92337 0.0
C1899 C 0.75203 0.66909 0.96632 0.0
C1900 C 0.73616 0.66141 0.97759 0.0
C1901 C 0.72206 0.66242 0.94807 0.0
C1902 C 0.78308 0.66069 0.0643 0.0
C1903 C 0.79174 0.67661 0.06719 0.0
C1904 C 0.77027 0.65804 0.03144 0.0
C1905 C 0.76599 0.6712 0.00062 0.0
C1906 C 0.77468 0.68706 0.00388 0.0
C1907 C 0.78728 0.68971 0.03655 0.0
H1908 H 0.56344 0.52507 0.35417 0.0
H1909 H 0.60752 0.54975 0.29328 0.0
H1910 H 0.56605 0.50119 0.30112 0.0
H1911 H 0.61045 0.52546 0.24085 0.0
H1912 H 0.61003 0.46423 0.18797 0.0
H1913 H 0.61364 0.48885 0.23918 0.0
H1914 H 0.56138 0.50479 0.21192 0.0
H1915 H 0.55791 0.48067 0.16018 0.0
C1916 C 0.5741 0.52507 0.33059 0.0
C1917 C 0.58548 0.53914 0.32867 0.0
C1918 C 0.57551 0.51147 0.29998 0.0
C1919 C 0.58835 0.51158 0.26664 0.0
C1920 C 0.60051 0.52502 0.26646 0.0
C1921 C 0.59899 0.5388 0.297 0.0
C1922 C 0.59963 0.47346 0.19118 0.0
C1923 C 0.58374 0.47062 0.16946 0.0
C1924 C 0.60162 0.48741 0.22103 0.0
C1925 C 0.58769 0.49852 0.23003 0.0
C1926 C 0.57226 0.49628 0.20609 0.0
C1927 C 0.57032 0.48255 0.17618 0.0
H1928 H 0.74261 0.33197 0.61821 0.0
H1929 H 0.70571 0.3533 0.52502 0.0
H1930 H 0.76543 0.33547 0.56203 0.0
H1931 H 0.72842 0.35662 0.46871 0.0
H1932 H 0.76933 0.32906 0.37084 0.0
H1933 H 0.74605 0.33342 0.42552 0.0
H1934 H 0.78189 0.3582 0.51565 0.0
H1935 H 0.80496 0.35393 0.46115 0.0
C1936 C 0.73947 0.33786 0.58619 0.0
C1937 C 0.7224 0.34267 0.57648 0.0
C1938 C 0.75252 0.33985 0.55398 0.0
C1939 C 0.74872 0.34632 0.51088 0.0
C1940 C 0.73175 0.35161 0.5016 0.0
C1941 C 0.71876 0.34993 0.53416 0.0
C1942 C 0.77208 0.33595 0.40171 0.0
C1943 C 0.78895 0.34151 0.41107 0.0
C1944 C 0.75877 0.33843 0.43305 0.0
C1945 C 0.76215 0.34615 0.47497 0.0
C1946 C 0.77888 0.35222 0.48368 0.0
C1947 C 0.79209 0.35 0.45204 0.0
H1948 H 0.90122 0.46388 0.80694 0.0
H1949 H 0.95409 0.47944 0.82773 0.0
H1950 H 0.89677 0.489 0.75796 0.0
H1951 H 0.94975 0.50398 0.7777 0.0
H1952 H 0.94273 0.52381 0.63289 0.0
H1953 H 0.94092 0.49977 0.68584 0.0
H1954 H 0.90255 0.52726 0.76252 0.0
H1955 H 0.90484 0.55174 0.71052 0.0
C1956 C 0.91168 0.47294 0.80269 0.0
C1957 C 0.92798 0.4697 0.82188 0.0
C1958 C 0.90917 0.48721 0.77408 0.0
C1959 C 0.92298 0.49826 0.76373 0.0
C1960 C 0.93893 0.49556 0.78486 0.0
C1961 C 0.94136 0.48154 0.81367 0.0
C1962 C 0.93352 0.52455 0.66025 0.0
C1963 C 0.92363 0.53956 0.66668 0.0
C1964 C 0.93256 0.51083 0.69066 0.0
C1965 C 0.92161 0.5117 0.72822 0.0
C1966 C 0.91092 0.52621 0.73348 0.0
C1967 C 0.91205 0.54012 0.7032 0.0
H1968 H 0.24189 0.33507 0.87961 0.0
H1969 H 0.20446 0.34926 0.98029 0.0
H1970 H 0.26512 0.33891 0.93465 0.0
H1971 H 0.2276 0.35271 0.03566 0.0
H1972 H 0.27226 0.32215 0.11783 0.0
H1973 H 0.2479 0.32774 0.06739 0.0
H1974 H 0.27963 0.36225 0.9891 0.0
H1975 H 0.30385 0.35701 0.04044 0.0
C1976 C 0.23871 0.33953 0.91313 0.0
C1977 C 0.22144 0.34224 0.92544 0.0
C1978 C 0.25197 0.34171 0.94463 0.0
C1979 C 0.24815 0.34615 0.98942 0.0
C1980 C 0.23091 0.34938 0.00134 0.0
C1981 C 0.21769 0.34758 0.96955 0.0
C1982 C 0.27377 0.33146 0.09092 0.0
C1983 C 0.28978 0.33943 0.08356 0.0
C1984 C 0.25988 0.33462 0.06197 0.0
C1985 C 0.26189 0.34542 0.02429 0.0
C1986 C 0.27772 0.35392 0.01794 0.0
C1987 C 0.2915 0.35107 0.04757 0.0
H1988 H 0.42626 0.5201 0.86811 0.0
H1989 H 0.41383 0.55722 0.76508 0.0
H1990 H 0.42258 0.49662 0.81365 0.0
H1991 H 0.41049 0.53384 0.71039 0.0
H1992 H 0.4404 0.48831 0.63085 0.0
H1993 H 0.43504 0.51296 0.68053 0.0
H1994 H 0.39962 0.48213 0.7585 0.0
H1995 H 0.40464 0.45761 0.70784 0.0
C1996 C 0.42223 0.52317 0.83415 0.0
C1997 C 0.41994 0.54044 0.82106 0.0
C1998 C 0.42013 0.50977 0.80299 0.0
C1999 C 0.4162 0.51341 0.75778 0.0
C2000 C 0.41343 0.53066 0.74503 0.0
C2001 C 0.41516 0.54402 0.77644 0.0
C2002 C 0.43095 0.48706 0.65752 0.0
C2003 C 0.42265 0.47122 0.66497 0.0
C2004 C 0.42792 0.50112 0.68605 0.0
C2005 C 0.41693 0.49945 0.72343 0.0
C2006 C 0.40812 0.48378 0.7299 0.0
C2007 C 0.41084 0.46983 0.70066 0.0
H2008 H 0.30148 0.65521 0.45383 0.0
H2009 H 0.27285 0.69223 0.37505 0.0
H2010 H 0.27724 0.65298 0.50647 0.0
H2011 H 0.24901 0.69045 0.42857 0.0
H2012 H 0.2288 0.70466 0.56909 0.0
H2013 H 0.25317 0.70023 0.51864 0.0
H2014 H 0.23954 0.64658 0.50475 0.0
H2015 H 0.21459 0.65108 0.55434 0.0
C2016 C 0.28976 0.66223 0.44644 0.0
C2017 C 0.28894 0.67358 0.40945 0.0
C2018 C 0.27598 0.66113 0.47705 0.0
C2019 C 0.26134 0.67161 0.47163 0.0
C2020 C 0.26019 0.68227 0.43354 0.0
C2021 C 0.27379 0.68321 0.40281 0.0
C2022 C 0.23118 0.69179 0.55624 0.0
C2023 C 0.21977 0.67821 0.56618 0.0
C2024 C 0.24509 0.6893 0.52716 0.0
C2025 C 0.24808 0.67313 0.50747 0.0
C2026 C 0.2375 0.65916 0.51969 0.0
C2027 C 0.22334 0.66171 0.54861 0.0
H2028 H 0.10956 0.54535 0.18714 0.0
H2029 H 0.05744 0.52927 0.15819 0.0
H2030 H 0.11317 0.52019 0.23661 0.0
H2031 H 0.06094 0.5046 0.20824 0.0
H2032 H 0.06382 0.48581 0.35392 0.0
H2033 H 0.06647 0.50906 0.29926 0.0
H2034 H 0.1089 0.4826 0.23571 0.0
H2035 H 0.10596 0.45885 0.28977 0.0
C2036 C 0.09917 0.5361 0.18964 0.0
C2037 C 0.08326 0.53921 0.16824 0.0
C2038 C 0.10118 0.52181 0.21843 0.0
C2039 C 0.08725 0.51062 0.22658 0.0
C2040 C 0.07182 0.51312 0.20282 0.0
C2041 C 0.06987 0.5272 0.17399 0.0
C2042 C 0.07396 0.48502 0.32891 0.0
C2043 C 0.0847 0.47042 0.32657 0.0
C2044 C 0.07542 0.49833 0.29752 0.0
C2045 C 0.08776 0.49752 0.26305 0.0
C2046 C 0.09932 0.48354 0.26213 0.0
C2047 C 0.09773 0.47001 0.29348 0.0
H2048 H 0.15455 0.23019 0.37566 0.0
H2049 H 0.10426 0.22618 0.31426 0.0
H2050 H 0.14959 0.2606 0.3902 0.0
H2051 H 0.09961 0.25692 0.3263 0.0
H2052 H 0.08759 0.30658 0.40103 0.0
H2053 H 0.09319 0.27649 0.38277 0.0
H2054 H 0.14719 0.28841 0.36299 0.0
H2055 H 0.14162 0.31826 0.38395 0.0
C2056 C 0.14258 0.23592 0.36423 0.0
C2057 C 0.12977 0.22574 0.34394 0.0
C2058 C 0.13973 0.25345 0.37245 0.0
C2059 C 0.12411 0.26137 0.35982 0.0
C2060 C 0.11161 0.25128 0.33766 0.0
C2061 C 0.11434 0.23365 0.33025 0.0
C2062 C 0.10067 0.30271 0.393 0.0
C2063 C 0.11419 0.31474 0.39427 0.0
C2064 C 0.10388 0.28545 0.38201 0.0
C2065 C 0.12067 0.27986 0.37107 0.0
C2066 C 0.13415 0.29204 0.37199 0.0
C2067 C 0.13097 0.30921 0.38388 0.0
H2068 H 0.9499 0.88596 0.68189 0.0
H2069 H 0.94713 0.84539 0.58252 0.0
H2070 H 0.97984 0.89135 0.66114 0.0
H2071 H 0.97687 0.85111 0.56083 0.0
H2072 H 0.03579 0.85105 0.57764 0.0
H2073 H 0.00513 0.8471 0.59024 0.0
H2074 H 0.99869 0.90227 0.60356 0.0
H2075 H 0.02963 0.90623 0.59224 0.0
C2076 C 0.95564 0.87828 0.65536 0.0
C2077 C 0.94617 0.86514 0.63418 0.0
C2078 C 0.97278 0.88147 0.64317 0.0
C2079 C 0.98083 0.87166 0.6093 0.0
C2080 C 0.97121 0.85874 0.58755 0.0
C2081 C 0.95411 0.85548 0.59992 0.0
C2082 C 0.02785 0.8624 0.58271 0.0
C2083 C 0.03525 0.87897 0.58417 0.0
C2084 C 0.01019 0.86012 0.58975 0.0
C2085 C 0.99939 0.87435 0.59822 0.0
C2086 C 0.00667 0.89099 0.59792 0.0
C2087 C 0.02439 0.89328 0.59101 0.0
H2088 H 0.37936 0.70065 0.94132 0.0
H2089 H 0.42124 0.69894 0.84543 0.0
H2090 H 0.37345 0.73046 0.92013 0.0
H2091 H 0.41508 0.72863 0.82358 0.0
H2092 H 0.41227 0.78781 0.84037 0.0
H2093 H 0.41748 0.75734 0.85417 0.0
H2094 H 0.36254 0.74822 0.8591 0.0
H2095 H 0.35727 0.77888 0.84626 0.0
C2096 C 0.38728 0.7066 0.91561 0.0
C2097 C 0.40085 0.69743 0.89531 0.0
C2098 C 0.38378 0.72366 0.90315 0.0
C2099 C 0.39375 0.73195 0.87003 0.0
C2100 C 0.40727 0.72272 0.84957 0.0
C2101 C 0.41078 0.70567 0.86207 0.0
C2102 C 0.40126 0.77931 0.84385 0.0
C2103 C 0.38434 0.78587 0.84247 0.0
C2104 C 0.40427 0.76178 0.8516 0.0
C2105 C 0.39044 0.75033 0.85813 0.0
C2106 C 0.37349 0.75675 0.855 0.0
C2107 C 0.37047 0.77431 0.84722 0.0
H2108 H 0.47295 0.15722 0.06496 0.0
H2109 H 0.47868 0.10582 0.11909 0.0
H2110 H 0.50387 0.16187 0.07253 0.0
H2111 H 0.50939 0.11071 0.12911 0.0
H2112 H 0.56673 0.11922 0.11362 0.0
H2113 H 0.53645 0.11387 0.09703 0.0
H2114 H 0.52477 0.1673 0.12646 0.0
H2115 H 0.55519 0.17274 0.14049 0.0
C2116 C 0.48084 0.1469 0.07846 0.0
C2117 C 0.47335 0.13116 0.09141 0.0
C2118 C 0.49858 0.14961 0.08327 0.0
C2119 C 0.50926 0.13677 0.10199 0.0
C2120 C 0.50175 0.12086 0.11395 0.0
C2121 C 0.48406 0.11805 0.10836 0.0
C2122 C 0.55766 0.1298 0.1165 0.0
C2123 C 0.56333 0.14639 0.12846 0.0
C2124 C 0.54024 0.12674 0.10718 0.0
C2125 C 0.52799 0.14012 0.11036 0.0
C2126 C 0.53376 0.15671 0.12262 0.0
C2127 C 0.55122 0.15983 0.13112 0.0
H2128 H 0.10275 0.78402 0.17605 0.0
H2129 H 0.15455 0.77961 0.12364 0.0
H2130 H 0.09833 0.75329 0.16404 0.0
H2131 H 0.14993 0.74897 0.10999 0.0
H2132 H 0.1403 0.69094 0.12254 0.0
H2133 H 0.14595 0.72104 0.14125 0.0
H2134 H 0.09379 0.73426 0.1031 0.0
H2135 H 0.08801 0.70411 0.08604 0.0
C2136 C 0.11324 0.77647 0.16215 0.0
C2137 C 0.12898 0.78433 0.15062 0.0
C2138 C 0.11065 0.75885 0.15483 0.0
C2139 C 0.12366 0.74862 0.1353 0.0
C2140 C 0.13964 0.75636 0.12537 0.0
C2141 C 0.1423 0.77398 0.13314 0.0
C2142 C 0.13007 0.70029 0.11799 0.0
C2143 C 0.1137 0.69511 0.1028 0.0
C2144 C 0.13332 0.71759 0.12862 0.0
C2145 C 0.12031 0.73015 0.12402 0.0
C2146 C 0.10403 0.72494 0.10809 0.0
C2147 C 0.10074 0.70765 0.09786 0.0
H2148 H 0.48213 0.90373 0.40034 0.0
H2149 H 0.47278 0.84922 0.38152 0.0
H2150 H 0.51295 0.89892 0.38889 0.0
H2151 H 0.50328 0.84454 0.36846 0.0
H2152 H 0.56072 0.83815 0.3831 0.0
H2153 H 0.53071 0.84368 0.40198 0.0
H2154 H 0.53304 0.89226 0.33068 0.0
H2155 H 0.56336 0.88698 0.31331 0.0
C2156 C 0.48663 0.89072 0.39397 0.0
C2157 C 0.47493 0.87688 0.39193 0.0
C2158 C 0.5043 0.88797 0.38697 0.0
C2159 C 0.51067 0.87134 0.37749 0.0
C2160 C 0.49897 0.85749 0.37635 0.0
C2161 C 0.48138 0.8602 0.38367 0.0
C2162 C 0.55483 0.85 0.37133 0.0
C2163 C 0.56441 0.86207 0.3464 0.0
C2164 C 0.53756 0.85316 0.38207 0.0
C2165 C 0.52934 0.86839 0.36773 0.0
C2166 C 0.53897 0.88051 0.34291 0.0
C2167 C 0.55633 0.87742 0.33257 0.0
H2168 H 0.40824 0.22509 0.67532 0.0
H2169 H 0.35593 0.23193 0.62868 0.0
H2170 H 0.41355 0.25581 0.66566 0.0
H2171 H 0.36142 0.26256 0.61711 0.0
H2172 H 0.37266 0.3199 0.63245 0.0
H2173 H 0.36652 0.28978 0.64967 0.0
H2174 H 0.41806 0.27581 0.60744 0.0
H2175 H 0.42436 0.30601 0.59212 0.0
C2176 C 0.39784 0.23318 0.66313 0.0
C2177 C 0.38168 0.22603 0.65266 0.0
C2178 C 0.40093 0.2508 0.65714 0.0
C2179 C 0.38801 0.26173 0.63992 0.0
C2180 C 0.37165 0.25465 0.63085 0.0
C2181 C 0.3685 0.23703 0.6374 0.0
C2182 C 0.38267 0.31038 0.62676 0.0
C2183 C 0.399 0.31535 0.61087 0.0
C2184 C 0.37912 0.29306 0.63651 0.0
C2185 C 0.39178 0.28026 0.63015 0.0
C2186 C 0.40807 0.28529 0.61375 0.0
C2187 C 0.41167 0.30262 0.60452 0.0
H2188 H 0.9484 0.12745 0.80335 0.0
H2189 H 0.9462 0.17085 0.89438 0.0
H2190 H 0.97846 0.12264 0.82382 0.0
H2191 H 0.97614 0.1658 0.91557 0.0
H2192 H 0.03535 0.1636 0.89915 0.0
H2193 H 1.0048 0.16818 0.88473 0.0
H2194 H 0.9965 0.11305 0.8853 0.0
H2195 H 0.02715 0.10842 0.89874 0.0
C2196 C 0.9543 0.13593 0.82784 0.0
C2197 C 0.9449 0.14958 0.84703 0.0
C2198 C 0.97151 0.13309 0.83988 0.0
C2199 C 0.97973 0.1438 0.87149 0.0
C2200 C 0.97029 0.15743 0.89074 0.0
C2201 C 0.95309 0.16029 0.87865 0.0
C2202 C 0.02701 0.15244 0.89675 0.0
C2203 C 0.03379 0.13563 0.89985 0.0
C2204 C 0.00944 0.15508 0.8886 0.0
C2205 C 0.99819 0.14099 0.88342 0.0
C2206 C 1.00485 0.12419 0.88823 0.0
C2207 C 0.02242 0.12155 0.89634 0.0
H2208 H 0.91972 0.70071 0.64608 0.0
H2209 H 0.87393 0.70063 0.56334 0.0
H2210 H 0.91495 0.73106 0.66376 0.0
H2211 H 0.86935 0.73107 0.58033 0.0
H2212 H 0.85686 0.78128 0.65161 0.0
H2213 H 0.86136 0.75043 0.64087 0.0
H2214 H 0.91618 0.75905 0.62785 0.0
H2215 H 0.91176 0.78984 0.63947 0.0
C2216 C 0.90867 0.70718 0.63149 0.0
C2217 C 0.89723 0.69823 0.60315 0.0
C2218 C 0.90597 0.72461 0.64153 0.0
C2219 C 0.89176 0.73354 0.62349 0.0
C2220 C 0.88028 0.72455 0.59535 0.0
C2221 C 0.88298 0.70711 0.58532 0.0
C2222 C 0.86991 0.7766 0.64692 0.0
C2223 C 0.88394 0.78811 0.64628 0.0
C2224 C 0.87247 0.7589 0.6404 0.0
C2225 C 0.88912 0.75224 0.6331 0.0
C2226 C 0.9032 0.76368 0.63378 0.0
C2227 C 0.90064 0.78139 0.64029 0.0
H2228 H 0.98155 0.10763 0.3717 0.0
H2229 H 0.97604 0.15902 0.4261 0.0
H2230 H 0.012 0.11282 0.35861 0.0
H2231 H 0.0068 0.16397 0.41527 0.0
H2232 H 0.05749 0.17486 0.3431 0.0
H2233 H 0.02719 0.16941 0.35938 0.0
H2234 H 0.03927 0.11609 0.38908 0.0
H2235 H 0.06934 0.12143 0.37037 0.0
C2236 C 0.98693 0.11994 0.38181 0.0
C2237 C 0.97632 0.13293 0.39986 0.0
C2238 C 1.00448 0.12291 0.37444 0.0
C2239 C 0.01201 0.13888 0.38561 0.0
C2240 C 1.00147 0.15166 0.4052 0.0
C2241 C 0.98383 0.14877 0.41189 0.0
C2242 C 0.05362 0.16197 0.3529 0.0
C2243 C 0.06578 0.14855 0.35507 0.0
C2244 C 0.03624 0.15885 0.36272 0.0
C2245 C 0.03063 0.14228 0.37574 0.0
C2246 C 0.04293 0.12893 0.37834 0.0
C2247 C 0.06024 0.13199 0.36776 0.0
H2248 H 0.59781 0.2224 0.13598 0.0
H2249 H 0.65252 0.23129 0.15162 0.0
H2250 H 0.59332 0.25294 0.12286 0.0
H2251 H 0.6479 0.26214 0.14004 0.0
H2252 H 0.63576 0.31213 0.0624 0.0
H2253 H 0.64093 0.28189 0.08104 0.0
H2254 H 0.59309 0.2806 0.15574 0.0
H2255 H 0.58767 0.31053 0.13569 0.0
C2256 C 0.60888 0.23091 0.13746 0.0
C2257 C 0.62555 0.22431 0.14474 0.0
C2258 C 0.60627 0.24851 0.1301 0.0
C2259 C 0.62024 0.26009 0.13019 0.0
C2260 C 0.63687 0.25358 0.13892 0.0
C2261 C 0.6395 0.2359 0.146 0.0
C2262 C 0.62635 0.30535 0.0827 0.0
C2263 C 0.61122 0.31368 0.09713 0.0
C2264 C 0.62938 0.28804 0.09377 0.0
C2265 C 0.61742 0.27872 0.11989 0.0
C2266 C 0.60244 0.28721 0.13487 0.0
C2267 C 0.59934 0.30443 0.12344 0.0
H2268 H 0.44244 0.89117 0.87581 0.0
H2269 H 0.45362 0.83737 0.8516 0.0
H2270 H 0.47255 0.89615 0.8953 0.0
H2271 H 0.48386 0.84243 0.86877 0.0
H2272 H 0.53464 0.85183 0.93553 0.0
H2273 H 0.5037 0.84793 0.92592 0.0
H2274 H 0.5002 0.89851 0.86501 0.0
H2275 H 0.5309 0.9027 0.87687 0.0
C2276 C 0.45139 0.88045 0.87414 0.0
C2277 C 0.44567 0.86389 0.86208 0.0
C2278 C 0.4687 0.8833 0.88518 0.0
C2279 C 0.48076 0.86971 0.88377 0.0
C2280 C 0.47497 0.85317 0.87131 0.0
C2281 C 0.45763 0.85027 0.86099 0.0
C2282 C 0.5272 0.86221 0.9207 0.0
C2283 C 0.53527 0.87754 0.9068 0.0
C2284 C 0.50945 0.85992 0.91473 0.0
C2285 C 0.49937 0.87278 0.894 0.0
C2286 C 0.5074 0.88836 0.88154 0.0
C2287 C 0.52509 0.89075 0.88819 0.0
H2288 H 0.86936 0.31725 0.86565 0.0
H2289 H 0.92194 0.30429 0.89959 0.0
H2290 H 0.86351 0.28706 0.84884 0.0
H2291 H 0.91595 0.27399 0.88496 0.0
H2292 H 0.90582 0.22296 0.81853 0.0
H2293 H 0.91095 0.25372 0.82822 0.0
H2294 H 0.85932 0.25984 0.88106 0.0
H2295 H 0.85398 0.22927 0.86926 0.0
C2296 C 0.87961 0.3079 0.8701 0.0
C2297 C 0.89611 0.31316 0.88401 0.0
C2298 C 0.87625 0.29054 0.86059 0.0
C2299 C 0.88924 0.27796 0.86537 0.0
C2300 C 0.90569 0.28327 0.87986 0.0
C2301 C 0.90911 0.30066 0.88871 0.0
C2302 C 0.8955 0.23093 0.83172 0.0
C2303 C 0.8795 0.22363 0.84316 0.0
C2304 C 0.89849 0.24858 0.83772 0.0
C2305 C 0.88564 0.25936 0.856 0.0
C2306 C 0.86949 0.25208 0.86638 0.0
C2307 C 0.86642 0.23448 0.85974 0.0
H2308 H 0.5381 0.16394 0.60304 0.0
H2309 H 0.52856 0.10926 0.58862 0.0
H2310 H 0.50746 0.16887 0.61493 0.0
H2311 H 0.4978 0.11428 0.59942 0.0
H2312 H 0.44843 0.12699 0.67798 0.0
H2313 H 0.47868 0.12199 0.66006 0.0
H2314 H 0.47945 0.16864 0.5804 0.0
H2315 H 0.44929 0.17387 0.59925 0.0
C2316 C 0.52945 0.15299 0.60169 0.0
C2317 C 0.53587 0.13618 0.59514 0.0
C2318 C 0.51183 0.15583 0.60836 0.0
C2319 C 0.50013 0.14196 0.6085 0.0
C2320 C 0.50647 0.12523 0.60038 0.0
C2321 C 0.52412 0.12237 0.59383 0.0
C2322 C 0.45505 0.13619 0.65666 0.0
C2323 C 0.44645 0.15087 0.64027 0.0
C2324 C 0.47238 0.13325 0.64606 0.0
C2325 C 0.48153 0.14488 0.61865 0.0
C2326 C 0.47288 0.15953 0.60205 0.0
C2327 C 0.45556 0.1625 0.61278 0.0
H2328 H 0.65426 0.78077 0.36418 0.0
H2329 H 0.60277 0.7846 0.30963 0.0
H2330 H 0.65008 0.75007 0.37692 0.0
H2331 H 0.59884 0.75371 0.32025 0.0
H2332 H 0.5888 0.70398 0.39641 0.0
H2333 H 0.59398 0.73419 0.37901 0.0
H2334 H 0.64709 0.72228 0.3468 0.0
H2335 H 0.64201 0.69215 0.36635 0.0
C2336 C 0.64217 0.77499 0.35396 0.0
C2337 C 0.6288 0.78519 0.33625 0.0
C2338 C 0.63978 0.75731 0.36113 0.0
C2339 C 0.62402 0.74933 0.35018 0.0
C2340 C 0.61098 0.75943 0.3303 0.0
C2341 C 0.61329 0.77715 0.32374 0.0
C2342 C 0.6016 0.70784 0.38578 0.0
C2343 C 0.61501 0.69569 0.38296 0.0
C2344 C 0.60456 0.72517 0.37532 0.0
C2345 C 0.62095 0.73077 0.36106 0.0
C2346 C 0.63436 0.71856 0.35823 0.0
C2347 C 0.63145 0.70124 0.36933 0.0
H2348 H 0.06096 0.83747 0.10559 0.0
H2349 H 0.06354 0.88572 0.17794 0.0
H2350 H 0.03104 0.84328 0.08637 0.0
H2351 H 0.03333 0.89128 0.16021 0.0
H2352 H 0.98285 0.90367 0.09021 0.0
H2353 H 0.01359 0.89851 0.10173 0.0
H2354 H 1.00344 0.84407 0.11926 0.0
H2355 H 0.973 0.84911 0.10613 0.0
C2356 C 0.05507 0.84925 0.11784 0.0
C2357 C 0.06461 0.86108 0.14356 0.0
C2358 C 0.03786 0.85257 0.1069 0.0
C2359 C 0.02966 0.86774 0.12182 0.0
C2360 C 0.03925 0.8796 0.1475 0.0
C2361 C 0.05655 0.87635 0.15805 0.0
C2362 C 0.98723 0.89057 0.09592 0.0
C2363 C 0.97541 0.87682 0.0972 0.0
C2364 C 1.00485 0.88763 0.10297 0.0
C2365 C 0.01106 0.87088 0.11175 0.0
C2366 C 0.99925 0.85711 0.11197 0.0
C2367 C 0.9817 0.86002 0.1046 0.0
H2368 H 0.58869 0.80561 0.91616 0.0
H2369 H 0.63898 0.8182 0.86298 0.0
H2370 H 0.59409 0.77513 0.90192 0.0
H2371 H 0.64414 0.78783 0.84683 0.0
H2372 H 0.65493 0.73026 0.86684 0.0
H2373 H 0.65003 0.76088 0.87938 0.0
H2374 H 0.59628 0.75439 0.84468 0.0
H2375 H 0.60107 0.7236 0.83409 0.0
C2376 C 0.60089 0.80186 0.90124 0.0
C2377 C 0.61343 0.81433 0.89092 0.0
C2378 C 0.60394 0.78437 0.89263 0.0
C2379 C 0.61953 0.7789 0.8729 0.0
C2380 C 0.63208 0.79143 0.86267 0.0
C2381 C 0.62911 0.8089 0.87181 0.0
C2382 C 0.64209 0.73539 0.86146 0.0
C2383 C 0.62838 0.72443 0.8496 0.0
C2384 C 0.63927 0.75302 0.86854 0.0
C2385 C 0.62271 0.76022 0.86342 0.0
C2386 C 0.60913 0.74931 0.85003 0.0
C2387 C 0.6119 0.73164 0.8435 0.0
H2388 H 0.45446 0.33768 0.14851 0.0
H2389 H 0.44162 0.39021 0.11314 0.0
H2390 H 0.48461 0.34331 0.13133 0.0
H2391 H 0.47172 0.39571 0.09414 0.0
H2392 H 0.53033 0.40386 0.11226 0.0
H2393 H 0.49961 0.39948 0.12514 0.0
H2394 H 0.50373 0.34787 0.07097 0.0
H2395 H 0.53453 0.35202 0.05995 0.0
C2396 C 0.45807 0.35043 0.13682 0.0
C2397 C 0.44565 0.3635 0.13232 0.0
C2398 C 0.47536 0.35363 0.12652 0.0
C2399 C 0.48067 0.36994 0.11087 0.0
C2400 C 0.4682 0.38306 0.10656 0.0
C2401 C 0.45091 0.37989 0.11735 0.0
C2402 C 0.52463 0.39166 0.1026 0.0
C2403 C 0.53493 0.37823 0.08549 0.0
C2404 C 0.50697 0.38914 0.1099 0.0
C2405 C 0.49915 0.37321 0.09977 0.0
C2406 C 0.50934 0.36014 0.08041 0.0
C2407 C 0.52701 0.36258 0.07365 0.0
H2408 H 0.85622 0.27861 0.35112 0.0
H2409 H 0.91111 0.2881 0.34461 0.0
H2410 H 0.86185 0.24806 0.36512 0.0
H2411 H 0.91667 0.2578 0.35958 0.0
H2412 H 0.92127 0.19953 0.35114 0.0
H2413 H 0.91468 0.22912 0.32941 0.0
H2414 H 0.87299 0.23029 0.42586 0.0
H2415 H 0.87933 0.20053 0.4469 0.0
C2416 C 0.86947 0.27418 0.35222 0.0
C2417 C 0.88319 0.28587 0.34684 0.0
C2418 C 0.8727 0.25669 0.36068 0.0
C2419 C 0.88972 0.25047 0.36386 0.0
C2420 C 0.9034 0.26206 0.35694 0.0
C2421 C 0.90019 0.27951 0.34852 0.0
C2422 C 0.91071 0.20609 0.36782 0.0
C2423 C 0.90088 0.19766 0.40096 0.0
C2424 C 0.90695 0.22309 0.35539 0.0
C2425 C 0.89329 0.23212 0.37584 0.0
C2426 C 0.88343 0.22366 0.4089 0.0
C2427 C 0.88717 0.20663 0.42128 0.0
H2428 H 0.97072 0.6629 0.60962 0.0
H2429 H 0.98037 0.60848 0.5898 0.0
H2430 H 1.00129 0.66769 0.62178 0.0
H2431 H 0.01117 0.6134 0.60047 0.0
H2432 H 0.06168 0.62521 0.67489 0.0
H2433 H 0.03128 0.62005 0.65867 0.0
H2434 H 0.02872 0.66857 0.58715 0.0
H2435 H 0.05887 0.67396 0.60474 0.0
C2436 C 0.97939 0.65197 0.60709 0.0
C2437 C 0.97302 0.63528 0.59882 0.0
C2438 C 0.997 0.65475 0.61391 0.0
C2439 C 0.00878 0.64094 0.6123 0.0
C2440 C 1.00247 0.6243 0.60278 0.0
C2441 C 0.9848 0.6215 0.59625 0.0
C2442 C 0.05459 0.63478 0.6558 0.0
C2443 C 0.06267 0.65006 0.64146 0.0
C2444 C 0.03718 0.63176 0.64614 0.0
C2445 C 0.02746 0.64389 0.62156 0.0
C2446 C 0.03566 0.65907 0.60683 0.0
C2447 C 0.053 0.66215 0.61681 0.0
H2448 H 0.637 0.19893 0.56457 0.0
H2449 H 0.5927 0.19942 0.65277 0.0
H2450 H 0.64275 0.22903 0.58315 0.0
H2451 H 0.59871 0.22933 0.67232 0.0
H2452 H 0.6017 0.28787 0.6489 0.0
H2453 H 0.59703 0.25718 0.63849 0.0
H2454 H 0.65208 0.24849 0.64151 0.0
H2455 H 0.65682 0.27944 0.65071 0.0
C2456 C 0.62856 0.20542 0.58818 0.0
C2457 C 0.6143 0.1968 0.60684 0.0
C2458 C 0.63194 0.22265 0.59916 0.0
C2459 C 0.62118 0.23167 0.62923 0.0
C2460 C 0.60711 0.22291 0.6485 0.0
C2461 C 0.60368 0.20572 0.63736 0.0
C2462 C 0.61285 0.27945 0.6479 0.0
C2463 C 0.62966 0.28621 0.65042 0.0
C2464 C 0.61015 0.26176 0.64211 0.0
C2465 C 0.62417 0.25031 0.63887 0.0
C2466 C 0.64098 0.25697 0.6431 0.0
C2467 C 0.6437 0.27471 0.6488 0.0
H2468 H 0.98158 0.40163 0.89158 0.0
H2469 H 0.9744 0.34635 0.89747 0.0
H2470 H 0.01237 0.39735 0.87868 0.0
H2471 H 1.00499 0.34211 0.88357 0.0
H2472 H 0.06332 0.34011 0.8942 0.0
H2473 H 0.03336 0.34532 0.91473 0.0
H2474 H 0.03094 0.38713 0.81872 0.0
H2475 H 0.06107 0.38218 0.79893 0.0
C2476 C 0.98656 0.38858 0.89053 0.0
C2477 C 0.97545 0.37435 0.89546 0.0
C2478 C 1.0042 0.38612 0.88271 0.0
C2479 C 0.01116 0.36938 0.87968 0.0
C2480 C 1.00014 0.35519 0.88612 0.0
C2481 C 0.98253 0.35763 0.89395 0.0
C2482 C 0.05641 0.35041 0.87739 0.0
C2483 C 0.0646 0.36068 0.84473 0.0
C2484 C 0.03919 0.35337 0.88911 0.0
C2485 C 0.0297 0.36665 0.8684 0.0
C2486 C 0.03792 0.37696 0.83586 0.0
C2487 C 0.05517 0.37403 0.82421 0.0
H2488 H 0.87889 0.80956 0.0582 0.0
H2489 H 0.92111 0.81154 0.15286 0.0
H2490 H 0.87306 0.77984 0.08022 0.0
H2491 H 0.91506 0.78189 0.17548 0.0
H2492 H 0.91184 0.72244 0.15895 0.0
H2493 H 0.91722 0.75292 0.14527 0.0
H2494 H 0.86234 0.76252 0.1424 0.0
H2495 H 0.8569 0.73192 0.15518 0.0
C2496 C 0.88689 0.80368 0.08383 0.0
C2497 C 0.90052 0.81292 0.10356 0.0
C2498 C 0.88345 0.78668 0.09676 0.0
C2499 C 0.89355 0.77848 0.12978 0.0
C2500 C 0.90715 0.78775 0.14963 0.0
C2501 C 0.91059 0.80476 0.1367 0.0
C2502 C 0.90089 0.73105 0.15604 0.0
C2503 C 0.88393 0.72465 0.15785 0.0
C2504 C 0.90399 0.74858 0.14833 0.0
C2505 C 0.89021 0.76016 0.14223 0.0
C2506 C 0.87325 0.7539 0.14608 0.0
C2507 C 0.87014 0.73636 0.15383 0.0
H2508 H 0.44881 0.66871 0.40096 0.0
H2509 H 0.45002 0.62439 0.31286 0.0
H2510 H 0.47887 0.6637 0.42083 0.0
H2511 H 0.48024 0.61963 0.33191 0.0
H2512 H 0.53037 0.60679 0.40237 0.0
H2513 H 0.49944 0.61085 0.39175 0.0
H2514 H 0.50689 0.66608 0.3871 0.0
H2515 H 0.53765 0.66209 0.39874 0.0
C2516 C 0.45551 0.65793 0.38566 0.0
C2517 C 0.44703 0.647 0.3551 0.0
C2518 C 0.47278 0.65509 0.39698 0.0
C2519 C 0.48202 0.64128 0.37793 0.0
C2520 C 0.47346 0.63024 0.34773 0.0
C2521 C 0.45616 0.63305 0.33652 0.0
C2522 C 0.52539 0.61981 0.39966 0.0
C2523 C 0.53656 0.6341 0.40123 0.0
C2524 C 0.50766 0.62213 0.3932 0.0
C2525 C 0.50067 0.63878 0.38816 0.0
C2526 C 0.51177 0.65307 0.39129 0.0
C2527 C 0.52947 0.65077 0.39781 0.0
H2528 H 0.41857 0.19757 0.15385 0.0
H2529 H 0.3757 0.19913 0.06121 0.0
H2530 H 0.41286 0.22735 0.17524 0.0
H2531 H 0.37031 0.22914 0.08147 0.0
H2532 H 0.35621 0.2792 0.15069 0.0
H2533 H 0.3604 0.24825 0.13946 0.0
H2534 H 0.41563 0.25548 0.14496 0.0
H2535 H 0.41147 0.28608 0.15759 0.0
C2536 C 0.408 0.20431 0.13778 0.0
C2537 C 0.39767 0.196 0.10556 0.0
C2538 C 0.40473 0.22143 0.14998 0.0
C2539 C 0.39114 0.23073 0.13002 0.0
C2540 C 0.38072 0.22233 0.09809 0.0
C2541 C 0.38391 0.20515 0.08613 0.0
C2542 C 0.36923 0.27412 0.15023 0.0
C2543 C 0.38349 0.28519 0.15492 0.0
C2544 C 0.37164 0.25639 0.14335 0.0
C2545 C 0.38836 0.24933 0.14091 0.0
C2546 C 0.40256 0.26035 0.14717 0.0
C2547 C 0.40016 0.278 0.15421 0.0
H2548 H 0.47374 0.66051 0.90253 0.0
H2549 H 0.48228 0.60537 0.90346 0.0
H2550 H 0.50445 0.66527 0.89231 0.0
H2551 H 0.51319 0.61019 0.8945 0.0
H2552 H 0.56277 0.62507 0.81862 0.0
H2553 H 0.53261 0.61959 0.83654 0.0
H2554 H 0.53238 0.66357 0.92585 0.0
H2555 H 0.56243 0.66933 0.90693 0.0
C2556 C 0.48219 0.64938 0.90134 0.0
C2557 C 0.47546 0.63254 0.90356 0.0
C2558 C 0.49987 0.65213 0.89567 0.0
C2559 C 0.51135 0.63813 0.89225 0.0
C2560 C 0.5047 0.62129 0.89616 0.0
C2561 C 0.48698 0.61852 0.9017 0.0
C2562 C 0.55629 0.63357 0.84213 0.0
C2563 C 0.56499 0.64771 0.86107 0.0
C2564 C 0.53901 0.63034 0.85272 0.0
C2565 C 0.53 0.64112 0.88271 0.0
C2566 C 0.53881 0.65514 0.90213 0.0
C2567 C 0.55607 0.65841 0.89137 0.0
H2568 H 0.13951 0.82012 0.62478 0.0
H2569 H 0.08789 0.80775 0.58083 0.0
H2570 H 0.14444 0.78989 0.64353 0.0
H2571 H 0.093 0.77746 0.59788 0.0
H2572 H 0.15296 0.73146 0.62565 0.0
H2573 H 0.14881 0.76216 0.61213 0.0
H2574 H 0.09612 0.75801 0.65854 0.0
H2575 H 0.10009 0.72719 0.6703 0.0
C2576 C 0.12929 0.81091 0.61857 0.0
C2577 C 0.11331 0.81634 0.60128 0.0
C2578 C 0.13213 0.79354 0.62924 0.0
C2579 C 0.1191 0.78116 0.62252 0.0
C2580 C 0.10322 0.78663 0.60451 0.0
C2581 C 0.10033 0.804 0.59428 0.0
C2582 C 0.14054 0.73712 0.63345 0.0
C2583 C 0.12682 0.7268 0.64871 0.0
C2584 C 0.13816 0.75479 0.6258 0.0
C2585 C 0.12205 0.76261 0.63366 0.0
C2586 C 0.10858 0.7524 0.65095 0.0
C2587 C 0.1109 0.73472 0.65814 0.0
H2588 H 0.94963 0.38426 0.31784 0.0
H2589 H 0.94853 0.33883 0.40214 0.0
H2590 H 0.9796 0.38919 0.33856 0.0
H2591 H 0.97844 0.34398 0.42366 0.0
H2592 H 0.03771 0.34779 0.40432 0.0
H2593 H 0.00709 0.34286 0.39166 0.0
H2594 H 0.99762 0.3977 0.40088 0.0
H2595 H 0.0283 0.4027 0.41252 0.0
C2596 C 0.95575 0.37537 0.34098 0.0
C2597 C 0.94669 0.36111 0.35814 0.0
C2598 C 0.97292 0.37827 0.35318 0.0
C2599 C 0.98144 0.36702 0.38295 0.0
C2600 C 0.97234 0.3528 0.40028 0.0
C2601 C 0.95517 0.34987 0.38802 0.0
C2602 C 0.02909 0.35879 0.40429 0.0
C2603 C 0.03554 0.37566 0.40908 0.0
C2604 C 0.01148 0.35595 0.39713 0.0
C2605 C 0.9999 0.3699 0.3947 0.0
C2606 C 0.00624 0.38669 0.4016 0.0
C2607 C 0.02383 0.38954 0.40866 0.0
H2608 H 0.42164 0.81031 0.34224 0.0
H2609 H 0.37585 0.81103 0.42515 0.0
H2610 H 0.41635 0.78009 0.32412 0.0
H2611 H 0.37079 0.78072 0.40789 0.0
H2612 H 0.35761 0.73053 0.33825 0.0
H2613 H 0.36247 0.76137 0.34816 0.0
H2614 H 0.41727 0.75215 0.35931 0.0
H2615 H 0.41249 0.72142 0.34834 0.0
C2616 C 0.41049 0.80401 0.35679 0.0
C2617 C 0.3992 0.81309 0.3853 0.0
C2618 C 0.40748 0.78665 0.3465 0.0
C2619 C 0.39314 0.77793 0.36452 0.0
C2620 C 0.38182 0.78707 0.39283 0.0
C2621 C 0.3848 0.80443 0.40304 0.0
C2622 C 0.37072 0.73508 0.34228 0.0
C2623 C 0.38464 0.72343 0.34264 0.0
C2624 C 0.37349 0.75278 0.34834 0.0
C2625 C 0.39025 0.75927 0.35495 0.0
C2626 C 0.40421 0.74766 0.35388 0.0
C2627 C 0.40144 0.72999 0.34776 0.0
H2628 H 0.03096 0.60821 0.12264 0.0
H2629 H 0.03387 0.65793 0.05748 0.0
H2630 H 1.00051 0.61272 0.13729 0.0
H2631 H 1.00308 0.66209 0.06955 0.0
H2632 H 0.95337 0.67397 0.14434 0.0
H2633 H 0.98347 0.66878 0.12555 0.0
H2634 H 0.97263 0.61429 0.11088 0.0
H2635 H 0.94279 0.61949 0.13243 0.0
C2636 C 0.02499 0.61995 0.11044 0.0
C2637 C 0.03489 0.63275 0.08912 0.0
C2638 C 0.00743 0.62254 0.11869 0.0
C2639 C 0.99918 0.63787 0.10503 0.0
C2640 C 0.00897 0.65032 0.08175 0.0
C2641 C 0.02663 0.64787 0.07432 0.0
C2642 C 0.95748 0.66088 0.13728 0.0
C2643 C 0.94576 0.64713 0.14022 0.0
C2644 C 0.97474 0.65789 0.12599 0.0
C2645 C 0.98065 0.64108 0.11639 0.0
C2646 C 0.96876 0.62736 0.11886 0.0
C2647 C 0.95159 0.63033 0.13106 0.0
H2648 H 0.1549 0.28094 0.87633 0.0
H2649 H 0.10376 0.28688 0.82093 0.0
H2650 H 0.14944 0.25045 0.88902 0.0
H2651 H 0.09854 0.25615 0.83142 0.0
H2652 H 0.08685 0.20553 0.90228 0.0
H2653 H 0.09278 0.23584 0.88733 0.0
H2654 H 0.14594 0.22316 0.85783 0.0
H2655 H 0.14011 0.19301 0.87511 0.0
C2656 C 0.1426 0.27566 0.86599 0.0
C2657 C 0.12975 0.28638 0.84775 0.0
C2658 C 0.13946 0.25809 0.87312 0.0
C2659 C 0.12348 0.2507 0.86157 0.0
C2660 C 0.11086 0.26137 0.84182 0.0
C2661 C 0.1139 0.279 0.83535 0.0
C2662 C 0.09982 0.20926 0.8928 0.0
C2663 C 0.11303 0.19689 0.89016 0.0
C2664 C 0.10322 0.22665 0.88376 0.0
C2665 C 0.11986 0.23209 0.87108 0.0
C2666 C 0.13304 0.21961 0.86824 0.0
C2667 C 0.12969 0.20226 0.87799 0.0
H2668 H 0.48177 0.40384 0.61525 0.0
H2669 H 0.4771 0.35326 0.5556 0.0
H2670 H 0.51266 0.39938 0.62436 0.0
H2671 H 0.50807 0.34907 0.56267 0.0
H2672 H 0.55873 0.33761 0.63324 0.0
H2673 H 0.52836 0.34316 0.6188 0.0
H2674 H 0.54005 0.3967 0.5912 0.0
H2675 H 0.57034 0.39122 0.60773 0.0
C2676 C 0.4874 0.39192 0.6031 0.0
C2677 C 0.47694 0.37885 0.58502 0.0
C2678 C 0.50517 0.38936 0.60823 0.0
C2679 C 0.51295 0.37375 0.59482 0.0
C2680 C 0.50254 0.36106 0.57459 0.0
C2681 C 0.48477 0.36352 0.57009 0.0
C2682 C 0.5548 0.35057 0.62413 0.0
C2683 C 0.56694 0.36398 0.62183 0.0
C2684 C 0.53737 0.35375 0.61541 0.0
C2685 C 0.53164 0.37039 0.60349 0.0
C2686 C 0.54386 0.38378 0.6009 0.0
C2687 C 0.56128 0.38063 0.61021 0.0
loop_
_geom_bond_atom_site_label_1
_geom_bond_atom_site_label_2
_geom_bond_distance
_geom_bond_site_symmetry_2
_ccdc_geom_bond_type
Co0 O3 1.970 . S
Co0 N17 1.989 . S
Co0 O25 1.967 . S
Co0 O32 1.920 . S
Co1 O4 1.966 . S
Co1 N10 2.022 . S
Co1 N18 1.993 . S
Co1 O26 1.941 . S
C2 O3 1.258 . S
C2 O4 1.263 . S
O3 Co0 1.970 . S
O3 C2 1.258 . S
O4 Co1 1.966 . S
O4 C2 1.263 . S
C5 O6 1.235 . S
C5 O32 1.289 . S
O6 C5 1.235 . S
C7 C9 1.400 . S
C7 N10 1.351 . S
C7 C12 1.501 . S
C8 C9 1.387 . S
C8 N11 1.341 . S
C9 C7 1.400 . S
C9 C8 1.387 . S
N10 Co1 2.022 . S
N10 C7 1.351 . S
N10 N11 1.365 . S
N11 C8 1.341 . S
N11 N10 1.365 . S
N11 H31 0.862 . S
C12 C7 1.501 . S
C12 H13 0.961 . S
C12 H14 0.961 . S
C12 H15 0.960 . S
H13 C12 0.961 . S
H14 C12 0.961 . S
H15 C12 0.960 . S
C16 N17 1.342 . S
C16 C20 1.401 . S
C16 C21 1.499 . S
N17 Co0 1.989 . S
N17 C16 1.342 . S
N17 N18 1.388 . S
N18 Co1 1.993 . S
N18 N17 1.388 . S
N18 C19 1.346 . S
C19 N18 1.346 . S
C19 C20 1.396 . S
C19 C29 1.510 . S
C20 C16 1.401 . S
C20 C19 1.396 . S
C21 C16 1.499 . S
C21 H22 0.959 . S
C21 H23 0.960 . S
C21 H24 0.961 . S
H22 C21 0.959 . S
H23 C21 0.960 . S
H24 C21 0.961 . S
O25 Co0 1.967 . S
O25 C33 1.258 . S
O26 Co1 1.941 . S
O26 C33 1.266 . S
H27 C29 0.959 . S
H28 C29 0.961 . S
C29 C19 1.510 . S
C29 H27 0.959 . S
C29 H28 0.961 . S
C29 H30 0.960 . S
H30 C29 0.960 . S
H31 N11 0.862 . S
O32 Co0 1.920 . S
O32 C5 1.289 . S
C33 O25 1.258 . S
C33 O26 1.266 . S
Co34 O37 1.970 . S
Co34 N51 1.989 . S
Co34 O59 1.967 . S
Co34 O66 1.920 . S
Co35 O38 1.966 . S
Co35 N44 2.022 . S
Co35 N52 1.993 . S
Co35 O60 1.941 . S
C36 O37 1.258 . S
C36 O38 1.263 . S
O37 Co34 1.970 . S
O37 C36 1.258 . S
O38 Co35 1.966 . S
O38 C36 1.263 . S
C39 O40 1.235 . S
C39 O66 1.289 . S
O40 C39 1.235 . S
C41 C43 1.400 . S
C41 N44 1.351 . S
C41 C46 1.501 . S
C42 C43 1.387 . S
C42 N45 1.341 . S
C43 C41 1.400 . S
C43 C42 1.387 . S
N44 Co35 2.022 . S
N44 C41 1.351 . S
N44 N45 1.365 . S
N45 C42 1.341 . S
N45 N44 1.365 . S
N45 H65 0.862 . S
C46 C41 1.501 . S
C46 H47 0.961 . S
C46 H48 0.961 . S
C46 H49 0.960 . S
H47 C46 0.961 . S
H48 C46 0.961 . S
H49 C46 0.960 . S
C50 N51 1.342 . S
C50 C54 1.401 . S
C50 C55 1.499 . S
N51 Co34 1.989 . S
N51 C50 1.342 . S
N51 N52 1.388 . S
N52 Co35 1.993 . S
N52 N51 1.388 . S
N52 C53 1.346 . S
C53 N52 1.346 . S
C53 C54 1.396 . S
C53 C63 1.510 . S
C54 C50 1.401 . S
C54 C53 1.396 . S
C55 C50 1.499 . S
C55 H56 0.959 . S
C55 H57 0.960 . S
C55 H58 0.961 . S
H56 C55 0.959 . S
H57 C55 0.960 . S
H58 C55 0.961 . S
O59 Co34 1.967 . S
O59 C67 1.258 . S
O60 Co35 1.941 . S
O60 C67 1.266 . S
H61 C63 0.959 . S
H62 C63 0.961 . S
C63 C53 1.510 . S
C63 H61 0.959 . S
C63 H62 0.961 . S
C63 H64 0.960 . S
H64 C63 0.960 . S
H65 N45 0.862 . S
O66 Co34 1.920 . S
O66 C39 1.289 . S
C67 O59 1.258 . S
C67 O60 1.266 . S
Co68 O71 1.970 . S
Co68 N85 1.989 . S
Co68 O93 1.967 . S
Co68 O100 1.920 . S
Co69 O72 1.966 . S
Co69 N78 2.022 . S
Co69 N86 1.993 . S
Co69 O94 1.941 . S
C70 O71 1.258 . S
C70 O72 1.263 . S
O71 Co68 1.970 . S
O71 C70 1.258 . S
O72 Co69 1.966 . S
O72 C70 1.263 . S
C73 O74 1.235 . S
C73 O100 1.289 . S
O74 C73 1.235 . S
C75 C77 1.400 . S
C75 N78 1.351 . S
C75 C80 1.501 . S
C76 C77 1.387 . S
C76 N79 1.341 . S
C77 C75 1.400 . S
C77 C76 1.387 . S
N78 Co69 2.022 . S
N78 C75 1.351 . S
N78 N79 1.365 . S
N79 C76 1.341 . S
N79 N78 1.365 . S
N79 H99 0.862 . S
C80 C75 1.501 . S
C80 H81 0.961 . S
C80 H82 0.961 . S
C80 H83 0.960 . S
H81 C80 0.961 . S
H82 C80 0.961 . S
H83 C80 0.960 . S
C84 N85 1.342 . S
C84 C88 1.401 1_556 S
C84 C89 1.499 . S
N85 Co68 1.989 . S
N85 C84 1.342 . S
N85 N86 1.388 . S
N86 Co69 1.993 . S
N86 N85 1.388 . S
N86 C87 1.346 . S
C87 N86 1.346 . S
C87 C88 1.396 1_556 S
C87 C97 1.510 . S
C88 C84 1.401 1_554 S
C88 C87 1.396 1_554 S
C89 C84 1.499 . S
C89 H90 0.959 . S
C89 H91 0.960 . S
C89 H92 0.961 1_556 S
H90 C89 0.959 . S
H91 C89 0.960 . S
H92 C89 0.961 1_554 S
O93 Co68 1.967 . S
O93 C101 1.258 . S
O94 Co69 1.941 . S
O94 C101 1.266 . S
H95 C97 0.959 1_554 S
H96 C97 0.961 . S
C97 C87 1.510 . S
C97 H95 0.959 1_556 S
C97 H96 0.961 . S
C97 H98 0.960 . S
H98 C97 0.960 . S
H99 N79 0.862 . S
O100 Co68 1.920 . S
O100 C73 1.289 . S
C101 O93 1.258 . S
C101 O94 1.266 . S
Co102 O105 1.970 . S
Co102 N119 1.989 . S
Co102 O127 1.967 . S
Co102 O134 1.920 . S
Co103 O106 1.966 . S
Co103 N112 2.022 . S
Co103 N120 1.993 . S
Co103 O128 1.941 . S
C104 O105 1.258 . S
C104 O106 1.263 . S
O105 Co102 1.970 . S
O105 C104 1.258 . S
O106 Co103 1.966 . S
O106 C104 1.263 . S
C107 O108 1.235 . S
C107 O134 1.289 . S
O108 C107 1.235 . S
C109 C111 1.400 . S
C109 N112 1.351 . S
C109 C114 1.501 . S
C110 C111 1.387 . S
C110 N113 1.341 . S
C111 C109 1.400 . S
C111 C110 1.387 . S
N112 Co103 2.022 . S
N112 C109 1.351 . S
N112 N113 1.365 . S
N113 C110 1.341 . S
N113 N112 1.365 . S
N113 H133 0.862 . S
C114 C109 1.501 . S
C114 H115 0.961 . S
C114 H116 0.961 . S
C114 H117 0.960 . S
H115 C114 0.961 . S
H116 C114 0.961 . S
H117 C114 0.960 . S
C118 N119 1.342 . S
C118 C122 1.401 . S
C118 C123 1.499 . S
N119 Co102 1.989 . S
N119 C118 1.342 . S
N119 N120 1.388 . S
N120 Co103 1.993 . S
N120 N119 1.388 . S
N120 C121 1.346 . S
C121 N120 1.346 . S
C121 C122 1.396 . S
C121 C131 1.510 . S
C122 C118 1.401 . S
C122 C121 1.396 . S
C123 C118 1.499 . S
C123 H124 0.959 . S
C123 H125 0.960 . S
C123 H126 0.961 . S
H124 C123 0.959 . S
H125 C123 0.960 . S
H126 C123 0.961 . S
O127 Co102 1.967 . S
O127 C135 1.258 . S
O128 Co103 1.941 . S
O128 C135 1.266 . S
H129 C131 0.959 . S
H130 C131 0.961 . S
C131 C121 1.510 . S
C131 H129 0.959 . S
C131 H130 0.961 . S
C131 H132 0.960 . S
H132 C131 0.960 . S
H133 N113 0.862 . S
O134 Co102 1.920 . S
O134 C107 1.289 . S
C135 O127 1.258 . S
C135 O128 1.266 . S
Co136 O139 1.970 . S
Co136 N153 1.989 . S
Co136 O161 1.967 . S
Co136 O168 1.920 . S
Co137 O140 1.966 . S
Co137 N146 2.022 . S
Co137 N154 1.993 . S
Co137 O162 1.941 . S
C138 O139 1.258 . S
C138 O140 1.263 . S
O139 Co136 1.970 . S
O139 C138 1.258 . S
O140 Co137 1.966 . S
O140 C138 1.263 . S
C141 O142 1.235 . S
C141 O168 1.289 . S
O142 C141 1.235 . S
C143 C145 1.400 . S
C143 N146 1.351 . S
C143 C148 1.501 . S
C144 C145 1.387 . S
C144 N147 1.341 . S
C145 C143 1.400 . S
C145 C144 1.387 . S
N146 Co137 2.022 . S
N146 C143 1.351 . S
N146 N147 1.365 . S
N147 C144 1.341 . S
N147 N146 1.365 . S
N147 H167 0.862 . S
C148 C143 1.501 . S
C148 H149 0.961 . S
C148 H150 0.961 . S
C148 H151 0.960 . S
H149 C148 0.961 . S
H150 C148 0.961 . S
H151 C148 0.960 . S
C152 N153 1.342 . S
C152 C156 1.401 1_554 S
C152 C157 1.499 . S
N153 Co136 1.989 . S
N153 C152 1.342 . S
N153 N154 1.388 . S
N154 Co137 1.993 . S
N154 N153 1.388 . S
N154 C155 1.346 . S
C155 N154 1.346 . S
C155 C156 1.396 1_554 S
C155 C165 1.510 . S
C156 C152 1.401 1_556 S
C156 C155 1.396 1_556 S
C157 C152 1.499 . S
C157 H158 0.959 . S
C157 H159 0.960 . S
C157 H160 0.961 1_554 S
H158 C157 0.959 . S
H159 C157 0.960 . S
H160 C157 0.961 1_556 S
O161 Co136 1.967 . S
O161 C169 1.258 . S
O162 Co137 1.941 . S
O162 C169 1.266 . S
H163 C165 0.959 1_556 S
H164 C165 0.961 . S
C165 C155 1.510 . S
C165 H163 0.959 1_554 S
C165 H164 0.961 . S
C165 H166 0.960 . S
H166 C165 0.960 . S
H167 N147 0.862 . S
O168 Co136 1.920 . S
O168 C141 1.289 . S
C169 O161 1.258 . S
C169 O162 1.266 . S
Co170 O173 1.970 . S
Co170 N187 1.989 . S
Co170 O195 1.967 . S
Co170 O202 1.920 . S
Co171 O174 1.966 . S
Co171 N180 2.022 . S
Co171 N188 1.993 . S
Co171 O196 1.941 . S
C172 O173 1.258 . S
C172 O174 1.263 . S
O173 Co170 1.970 . S
O173 C172 1.258 . S
O174 Co171 1.966 . S
O174 C172 1.263 . S
C175 O176 1.235 . S
C175 O202 1.289 . S
O176 C175 1.235 . S
C177 C179 1.400 . S
C177 N180 1.351 . S
C177 C182 1.501 . S
C178 C179 1.387 . S
C178 N181 1.341 . S
C179 C177 1.400 . S
C179 C178 1.387 . S
N180 Co171 2.022 . S
N180 C177 1.351 . S
N180 N181 1.365 . S
N181 C178 1.341 . S
N181 N180 1.365 . S
N181 H201 0.862 . S
C182 C177 1.501 . S
C182 H183 0.961 . S
C182 H184 0.961 . S
C182 H185 0.960 . S
H183 C182 0.961 . S
H184 C182 0.961 . S
H185 C182 0.960 . S
C186 N187 1.342 . S
C186 C190 1.401 . S
C186 C191 1.499 . S
N187 Co170 1.989 . S
N187 C186 1.342 . S
N187 N188 1.388 . S
N188 Co171 1.993 . S
N188 N187 1.388 . S
N188 C189 1.346 . S
C189 N188 1.346 . S
C189 C190 1.396 . S
C189 C199 1.510 . S
C190 C186 1.401 . S
C190 C189 1.396 . S
C191 C186 1.499 . S
C191 H192 0.959 . S
C191 H193 0.960 . S
C191 H194 0.961 . S
H192 C191 0.959 . S
H193 C191 0.960 . S
H194 C191 0.961 . S
O195 Co170 1.967 . S
O195 C203 1.258 . S
O196 Co171 1.941 . S
O196 C203 1.266 . S
H197 C199 0.959 . S
H198 C199 0.961 . S
C199 C189 1.510 . S
C199 H197 0.959 . S
C199 H198 0.961 . S
C199 H200 0.960 . S
H200 C199 0.960 . S
H201 N181 0.862 . S
O202 Co170 1.920 . S
O202 C175 1.289 . S
C203 O195 1.258 . S
C203 O196 1.266 . S
Co204 O207 1.970 . S
Co204 N221 1.989 . S
Co204 O229 1.967 . S
Co204 O236 1.920 . S
Co205 O208 1.966 . S
Co205 N214 2.022 . S
Co205 N222 1.993 . S
Co205 O230 1.941 . S
C206 O207 1.258 . S
C206 O208 1.263 . S
O207 Co204 1.970 . S
O207 C206 1.258 . S
O208 Co205 1.966 . S
O208 C206 1.263 . S
C209 O210 1.235 . S
C209 O236 1.289 . S
O210 C209 1.235 . S
C211 C213 1.400 . S
C211 N214 1.351 . S
C211 C216 1.501 . S
C212 C213 1.387 . S
C212 N215 1.341 . S
C213 C211 1.400 . S
C213 C212 1.387 . S
N214 Co205 2.022 . S
N214 C211 1.351 . S
N214 N215 1.365 . S
N215 C212 1.341 . S
N215 N214 1.365 . S
N215 H235 0.862 . S
C216 C211 1.501 . S
C216 H217 0.961 . S
C216 H218 0.961 . S
C216 H219 0.960 . S
H217 C216 0.961 . S
H218 C216 0.961 . S
H219 C216 0.960 . S
C220 N221 1.342 . S
C220 C224 1.401 . S
C220 C225 1.499 . S
N221 Co204 1.989 . S
N221 C220 1.342 . S
N221 N222 1.388 . S
N222 Co205 1.993 . S
N222 N221 1.388 . S
N222 C223 1.346 . S
C223 N222 1.346 . S
C223 C224 1.396 . S
C223 C233 1.510 . S
C224 C220 1.401 . S
C224 C223 1.396 . S
C225 C220 1.499 . S
C225 H226 0.959 . S
C225 H227 0.960 . S
C225 H228 0.961 . S
H226 C225 0.959 . S
H227 C225 0.960 . S
H228 C225 0.961 . S
O229 Co204 1.967 . S
O229 C237 1.258 . S
O230 Co205 1.941 . S
O230 C237 1.266 . S
H231 C233 0.959 . S
H232 C233 0.961 . S
C233 C223 1.510 . S
C233 H231 0.959 . S
C233 H232 0.961 . S
C233 H234 0.960 . S
H234 C233 0.960 . S
H235 N215 0.862 . S
O236 Co204 1.920 . S
O236 C209 1.289 . S
C237 O229 1.258 . S
C237 O230 1.266 . S
Co238 O241 1.970 . S
Co238 N255 1.989 . S
Co238 O263 1.967 . S
Co238 O270 1.920 . S
Co239 O242 1.966 . S
Co239 N248 2.022 . S
Co239 N256 1.993 . S
Co239 O264 1.941 . S
C240 O241 1.258 . S
C240 O242 1.263 . S
O241 Co238 1.970 . S
O241 C240 1.258 . S
O242 Co239 1.966 . S
O242 C240 1.263 . S
C243 O244 1.235 . S
C243 O270 1.289 . S
O244 C243 1.235 . S
C245 C247 1.400 . S
C245 N248 1.351 . S
C245 C250 1.501 . S
C246 C247 1.387 . S
C246 N249 1.341 . S
C247 C245 1.400 . S
C247 C246 1.387 . S
N248 Co239 2.022 . S
N248 C245 1.351 . S
N248 N249 1.365 . S
N249 C246 1.341 . S
N249 N248 1.365 . S
N249 H269 0.862 . S
C250 C245 1.501 . S
C250 H251 0.961 . S
C250 H252 0.961 . S
C250 H253 0.960 . S
H251 C250 0.961 . S
H252 C250 0.961 . S
H253 C250 0.960 . S
C254 N255 1.342 . S
C254 C258 1.401 . S
C254 C259 1.499 . S
N255 Co238 1.989 . S
N255 C254 1.342 . S
N255 N256 1.388 . S
N256 Co239 1.993 . S
N256 N255 1.388 . S
N256 C257 1.346 . S
C257 N256 1.346 . S
C257 C258 1.396 . S
C257 C267 1.510 . S
C258 C254 1.401 . S
C258 C257 1.396 . S
C259 C254 1.499 . S
C259 H260 0.959 . S
C259 H261 0.960 . S
C259 H262 0.961 . S
H260 C259 0.959 . S
H261 C259 0.960 . S
H262 C259 0.961 . S
O263 Co238 1.967 . S
O263 C271 1.258 . S
O264 Co239 1.941 . S
O264 C271 1.266 . S
H265 C267 0.959 . S
H266 C267 0.961 . S
C267 C257 1.510 . S
C267 H265 0.959 . S
C267 H266 0.961 . S
C267 H268 0.960 . S
H268 C267 0.960 . S
H269 N249 0.862 . S
O270 Co238 1.920 . S
O270 C243 1.289 . S
C271 O263 1.258 . S
C271 O264 1.266 . S
Co272 O275 1.970 . S
Co272 N289 1.989 . S
Co272 O297 1.967 . S
Co272 O304 1.920 . S
Co273 O276 1.966 . S
Co273 N282 2.022 . S
Co273 N290 1.993 . S
Co273 O298 1.941 . S
C274 O275 1.258 . S
C274 O276 1.263 . S
O275 Co272 1.970 . S
O275 C274 1.258 . S
O276 Co273 1.966 . S
O276 C274 1.263 . S
C277 O278 1.235 . S
C277 O304 1.289 . S
O278 C277 1.235 . S
C279 C281 1.400 . S
C279 N282 1.351 . S
C279 C284 1.501 . S
C280 C281 1.387 . S
C280 N283 1.341 . S
C281 C279 1.400 . S
C281 C280 1.387 . S
N282 Co273 2.022 . S
N282 C279 1.351 . S
N282 N283 1.365 . S
N283 C280 1.341 . S
N283 N282 1.365 . S
N283 H303 0.862 . S
C284 C279 1.501 . S
C284 H285 0.961 . S
C284 H286 0.961 . S
C284 H287 0.960 . S
H285 C284 0.961 . S
H286 C284 0.961 . S
H287 C284 0.960 . S
C288 N289 1.342 . S
C288 C292 1.401 . S
C288 C293 1.499 . S
N289 Co272 1.989 . S
N289 C288 1.342 . S
N289 N290 1.388 . S
N290 Co273 1.993 . S
N290 N289 1.388 . S
N290 C291 1.346 . S
C291 N290 1.346 . S
C291 C292 1.396 . S
C291 C301 1.510 . S
C292 C288 1.401 . S
C292 C291 1.396 . S
C293 C288 1.499 . S
C293 H294 0.959 . S
C293 H295 0.960 . S
C293 H296 0.961 . S
H294 C293 0.959 . S
H295 C293 0.960 . S
H296 C293 0.961 . S
O297 Co272 1.967 . S
O297 C305 1.258 . S
O298 Co273 1.941 . S
O298 C305 1.266 . S
H299 C301 0.959 . S
H300 C301 0.961 . S
C301 C291 1.510 . S
C301 H299 0.959 . S
C301 H300 0.961 . S
C301 H302 0.960 . S
H302 C301 0.960 . S
H303 N283 0.862 . S
O304 Co272 1.920 . S
O304 C277 1.289 . S
C305 O297 1.258 . S
C305 O298 1.266 . S
Co306 O309 1.970 . S
Co306 N323 1.989 . S
Co306 O331 1.967 . S
Co306 O338 1.920 . S
Co307 O310 1.966 . S
Co307 N316 2.022 . S
Co307 N324 1.993 . S
Co307 O332 1.941 . S
C308 O309 1.258 . S
C308 O310 1.263 . S
O309 Co306 1.970 . S
O309 C308 1.258 . S
O310 Co307 1.966 . S
O310 C308 1.263 . S
C311 O312 1.235 . S
C311 O338 1.289 . S
O312 C311 1.235 . S
C313 C315 1.400 . S
C313 N316 1.351 . S
C313 C318 1.501 . S
C314 C315 1.387 . S
C314 N317 1.341 . S
C315 C313 1.400 . S
C315 C314 1.387 . S
N316 Co307 2.022 . S
N316 C313 1.351 . S
N316 N317 1.365 . S
N317 C314 1.341 . S
N317 N316 1.365 . S
N317 H337 0.862 . S
C318 C313 1.501 . S
C318 H319 0.961 . S
C318 H320 0.961 . S
C318 H321 0.960 . S
H319 C318 0.961 . S
H320 C318 0.961 . S
H321 C318 0.960 . S
C322 N323 1.342 . S
C322 C326 1.401 . S
C322 C327 1.499 . S
N323 Co306 1.989 . S
N323 C322 1.342 . S
N323 N324 1.388 . S
N324 Co307 1.993 . S
N324 N323 1.388 . S
N324 C325 1.346 . S
C325 N324 1.346 . S
C325 C326 1.396 . S
C325 C335 1.510 . S
C326 C322 1.401 . S
C326 C325 1.396 . S
C327 C322 1.499 . S
C327 H328 0.959 . S
C327 H329 0.960 . S
C327 H330 0.961 . S
H328 C327 0.959 . S
H329 C327 0.960 . S
H330 C327 0.961 . S
O331 Co306 1.967 . S
O331 C339 1.258 . S
O332 Co307 1.941 . S
O332 C339 1.266 . S
H333 C335 0.959 . S
H334 C335 0.961 . S
C335 C325 1.510 . S
C335 H333 0.959 . S
C335 H334 0.961 . S
C335 H336 0.960 . S
H336 C335 0.960 . S
H337 N317 0.862 . S
O338 Co306 1.920 . S
O338 C311 1.289 . S
C339 O331 1.258 . S
C339 O332 1.266 . S
Co340 O343 1.970 . S
Co340 N357 1.989 . S
Co340 O365 1.967 . S
Co340 O372 1.920 . S
Co341 O344 1.966 . S
Co341 N350 2.022 . S
Co341 N358 1.993 . S
Co341 O366 1.941 . S
C342 O343 1.258 . S
C342 O344 1.263 . S
O343 Co340 1.970 . S
O343 C342 1.258 . S
O344 Co341 1.966 . S
O344 C342 1.263 . S
C345 O346 1.235 . S
C345 O372 1.289 . S
O346 C345 1.235 . S
C347 C349 1.400 . S
C347 N350 1.351 . S
C347 C352 1.501 . S
C348 C349 1.387 . S
C348 N351 1.341 . S
C349 C347 1.400 . S
C349 C348 1.387 . S
N350 Co341 2.022 . S
N350 C347 1.351 . S
N350 N351 1.365 . S
N351 C348 1.341 . S
N351 N350 1.365 . S
N351 H371 0.862 . S
C352 C347 1.501 . S
C352 H353 0.961 . S
C352 H354 0.961 . S
C352 H355 0.960 . S
H353 C352 0.961 . S
H354 C352 0.961 . S
H355 C352 0.960 . S
C356 N357 1.342 . S
C356 C360 1.401 1_554 S
C356 C361 1.499 . S
N357 Co340 1.989 . S
N357 C356 1.342 . S
N357 N358 1.388 . S
N358 Co341 1.993 . S
N358 N357 1.388 . S
N358 C359 1.346 . S
C359 N358 1.346 . S
C359 C360 1.396 1_554 S
C359 C369 1.510 . S
C360 C356 1.401 1_556 S
C360 C359 1.396 1_556 S
C361 C356 1.499 . S
C361 H362 0.959 . S
C361 H363 0.960 . S
C361 H364 0.961 1_554 S
H362 C361 0.959 . S
H363 C361 0.960 . S
H364 C361 0.961 1_556 S
O365 Co340 1.967 . S
O365 C373 1.258 . S
O366 Co341 1.941 . S
O366 C373 1.266 . S
H367 C369 0.959 1_556 S
H368 C369 0.961 . S
C369 C359 1.510 . S
C369 H367 0.959 1_554 S
C369 H368 0.961 . S
C369 H370 0.960 . S
H370 C369 0.960 . S
H371 N351 0.862 . S
O372 Co340 1.920 . S
O372 C345 1.289 . S
C373 O365 1.258 . S
C373 O366 1.266 . S
Co374 O377 1.970 . S
Co374 N391 1.989 . S
Co374 O399 1.967 . S
Co374 O406 1.920 . S
Co375 O378 1.966 . S
Co375 N384 2.022 . S
Co375 N392 1.993 . S
Co375 O400 1.941 . S
C376 O377 1.258 . S
C376 O378 1.263 . S
O377 Co374 1.970 . S
O377 C376 1.258 . S
O378 Co375 1.966 . S
O378 C376 1.263 . S
C379 O380 1.235 . S
C379 O406 1.289 . S
O380 C379 1.235 . S
C381 C383 1.400 . S
C381 N384 1.351 . S
C381 C386 1.501 . S
C382 C383 1.387 . S
C382 N385 1.341 . S
C383 C381 1.400 . S
C383 C382 1.387 . S
N384 Co375 2.022 . S
N384 C381 1.351 . S
N384 N385 1.365 . S
N385 C382 1.341 . S
N385 N384 1.365 . S
N385 H405 0.862 . S
C386 C381 1.501 . S
C386 H387 0.961 . S
C386 H388 0.961 . S
C386 H389 0.960 . S
H387 C386 0.961 . S
H388 C386 0.961 . S
H389 C386 0.960 . S
C390 N391 1.342 . S
C390 C394 1.401 . S
C390 C395 1.499 . S
N391 Co374 1.989 . S
N391 C390 1.342 . S
N391 N392 1.388 . S
N392 Co375 1.993 . S
N392 N391 1.388 . S
N392 C393 1.346 . S
C393 N392 1.346 . S
C393 C394 1.396 . S
C393 C403 1.510 . S
C394 C390 1.401 . S
C394 C393 1.396 . S
C395 C390 1.499 . S
C395 H396 0.959 . S
C395 H397 0.960 . S
C395 H398 0.961 . S
H396 C395 0.959 . S
H397 C395 0.960 . S
H398 C395 0.961 . S
O399 Co374 1.967 . S
O399 C407 1.258 . S
O400 Co375 1.941 . S
O400 C407 1.266 . S
H401 C403 0.959 . S
H402 C403 0.961 . S
C403 C393 1.510 . S
C403 H401 0.959 . S
C403 H402 0.961 . S
C403 H404 0.960 . S
H404 C403 0.960 . S
H405 N385 0.862 . S
O406 Co374 1.920 . S
O406 C379 1.289 . S
C407 O399 1.258 . S
C407 O400 1.266 . S
Co408 O411 1.970 . S
Co408 N425 1.989 . S
Co408 O433 1.967 . S
Co408 O440 1.920 . S
Co409 O412 1.966 . S
Co409 N418 2.022 . S
Co409 N426 1.993 . S
Co409 O434 1.941 . S
C410 O411 1.258 . S
C410 O412 1.263 . S
O411 Co408 1.970 . S
O411 C410 1.258 . S
O412 Co409 1.966 . S
O412 C410 1.263 . S
C413 O414 1.235 . S
C413 O440 1.289 . S
O414 C413 1.235 . S
C415 C417 1.400 . S
C415 N418 1.351 . S
C415 C420 1.501 . S
C416 C417 1.387 . S
C416 N419 1.341 . S
C417 C415 1.400 . S
C417 C416 1.387 . S
N418 Co409 2.022 . S
N418 C415 1.351 . S
N418 N419 1.365 . S
N419 C416 1.341 . S
N419 N418 1.365 . S
N419 H439 0.862 . S
C420 C415 1.501 . S
C420 H421 0.961 . S
C420 H422 0.961 . S
C420 H423 0.960 . S
H421 C420 0.961 . S
H422 C420 0.961 . S
H423 C420 0.960 . S
C424 N425 1.342 . S
C424 C428 1.401 1_556 S
C424 C429 1.499 . S
N425 Co408 1.989 . S
N425 C424 1.342 . S
N425 N426 1.388 . S
N426 Co409 1.993 . S
N426 N425 1.388 . S
N426 C427 1.346 . S
C427 N426 1.346 . S
C427 C428 1.396 1_556 S
C427 C437 1.510 . S
C428 C424 1.401 1_554 S
C428 C427 1.396 1_554 S
C429 C424 1.499 . S
C429 H430 0.959 . S
C429 H431 0.960 . S
C429 H432 0.961 1_556 S
H430 C429 0.959 . S
H431 C429 0.960 . S
H432 C429 0.961 1_554 S
O433 Co408 1.967 . S
O433 C441 1.258 . S
O434 Co409 1.941 . S
O434 C441 1.266 . S
H435 C437 0.959 1_554 S
H436 C437 0.961 . S
C437 C427 1.510 . S
C437 H435 0.959 1_556 S
C437 H436 0.961 . S
C437 H438 0.960 . S
H438 C437 0.960 . S
H439 N419 0.862 . S
O440 Co408 1.920 . S
O440 C413 1.289 . S
C441 O433 1.258 . S
C441 O434 1.266 . S
Co442 O445 1.970 . S
Co442 N459 1.989 . S
Co442 O467 1.967 . S
Co442 O474 1.920 . S
Co443 O446 1.966 . S
Co443 N452 2.022 . S
Co443 N460 1.993 . S
Co443 O468 1.941 . S
C444 O445 1.258 . S
C444 O446 1.263 . S
O445 Co442 1.970 . S
O445 C444 1.258 . S
O446 Co443 1.966 . S
O446 C444 1.263 . S
C447 O448 1.235 . S
C447 O474 1.289 . S
O448 C447 1.235 . S
C449 C451 1.400 . S
C449 N452 1.351 . S
C449 C454 1.501 . S
C450 C451 1.387 . S
C450 N453 1.341 . S
C451 C449 1.400 . S
C451 C450 1.387 . S
N452 Co443 2.022 . S
N452 C449 1.351 . S
N452 N453 1.365 . S
N453 C450 1.341 . S
N453 N452 1.365 . S
N453 H473 0.862 . S
C454 C449 1.501 . S
C454 H455 0.961 . S
C454 H456 0.961 . S
C454 H457 0.960 . S
H455 C454 0.961 . S
H456 C454 0.961 . S
H457 C454 0.960 . S
C458 N459 1.342 . S
C458 C462 1.401 . S
C458 C463 1.499 . S
N459 Co442 1.989 . S
N459 C458 1.342 . S
N459 N460 1.388 . S
N460 Co443 1.993 . S
N460 N459 1.388 . S
N460 C461 1.346 . S
C461 N460 1.346 . S
C461 C462 1.396 . S
C461 C471 1.510 . S
C462 C458 1.401 . S
C462 C461 1.396 . S
C463 C458 1.499 . S
C463 H464 0.959 . S
C463 H465 0.960 . S
C463 H466 0.961 . S
H464 C463 0.959 . S
H465 C463 0.960 . S
H466 C463 0.961 . S
O467 Co442 1.967 . S
O467 C475 1.258 . S
O468 Co443 1.941 . S
O468 C475 1.266 . S
H469 C471 0.959 . S
H470 C471 0.961 . S
C471 C461 1.510 . S
C471 H469 0.959 . S
C471 H470 0.961 . S
C471 H472 0.960 . S
H472 C471 0.960 . S
H473 N453 0.862 . S
O474 Co442 1.920 . S
O474 C447 1.289 . S
C475 O467 1.258 . S
C475 O468 1.266 . S
Co476 O479 1.970 . S
Co476 N493 1.989 . S
Co476 O501 1.967 . S
Co476 O508 1.920 . S
Co477 O480 1.966 . S
Co477 N486 2.022 . S
Co477 N494 1.993 . S
Co477 O502 1.941 . S
C478 O479 1.258 . S
C478 O480 1.263 . S
O479 Co476 1.970 . S
O479 C478 1.258 . S
O480 Co477 1.966 . S
O480 C478 1.263 . S
C481 O482 1.235 . S
C481 O508 1.289 . S
O482 C481 1.235 . S
C483 C485 1.400 . S
C483 N486 1.351 . S
C483 C488 1.501 . S
C484 C485 1.387 . S
C484 N487 1.341 . S
C485 C483 1.400 . S
C485 C484 1.387 . S
N486 Co477 2.022 . S
N486 C483 1.351 . S
N486 N487 1.365 . S
N487 C484 1.341 . S
N487 N486 1.365 . S
N487 H507 0.862 . S
C488 C483 1.501 . S
C488 H489 0.961 . S
C488 H490 0.961 . S
C488 H491 0.960 . S
H489 C488 0.961 . S
H490 C488 0.961 . S
H491 C488 0.960 . S
C492 N493 1.342 . S
C492 C496 1.401 . S
C492 C497 1.499 . S
N493 Co476 1.989 . S
N493 C492 1.342 . S
N493 N494 1.388 . S
N494 Co477 1.993 . S
N494 N493 1.388 . S
N494 C495 1.346 . S
C495 N494 1.346 . S
C495 C496 1.396 . S
C495 C505 1.510 . S
C496 C492 1.401 . S
C496 C495 1.396 . S
C497 C492 1.499 . S
C497 H498 0.959 . S
C497 H499 0.960 . S
C497 H500 0.961 . S
H498 C497 0.959 . S
H499 C497 0.960 . S
H500 C497 0.961 . S
O501 Co476 1.967 . S
O501 C509 1.258 . S
O502 Co477 1.941 . S
O502 C509 1.266 . S
H503 C505 0.959 . S
H504 C505 0.961 . S
C505 C495 1.510 . S
C505 H503 0.959 . S
C505 H504 0.961 . S
C505 H506 0.960 . S
H506 C505 0.960 . S
H507 N487 0.862 . S
O508 Co476 1.920 . S
O508 C481 1.289 . S
C509 O501 1.258 . S
C509 O502 1.266 . S
Co510 O513 1.970 . S
Co510 N527 1.989 . S
Co510 O535 1.967 . S
Co510 O542 1.920 . S
Co511 O514 1.966 . S
Co511 N520 2.022 . S
Co511 N528 1.993 . S
Co511 O536 1.941 . S
C512 O513 1.258 . S
C512 O514 1.263 . S
O513 Co510 1.970 . S
O513 C512 1.258 . S
O514 Co511 1.966 . S
O514 C512 1.263 . S
C515 O516 1.235 . S
C515 O542 1.289 . S
O516 C515 1.235 . S
C517 C519 1.400 . S
C517 N520 1.351 . S
C517 C522 1.501 . S
C518 C519 1.387 . S
C518 N521 1.341 . S
C519 C517 1.400 . S
C519 C518 1.387 . S
N520 Co511 2.022 . S
N520 C517 1.351 . S
N520 N521 1.365 . S
N521 C518 1.341 . S
N521 N520 1.365 . S
N521 H541 0.862 . S
C522 C517 1.501 . S
C522 H523 0.961 . S
C522 H524 0.961 . S
C522 H525 0.960 . S
H523 C522 0.961 . S
H524 C522 0.961 . S
H525 C522 0.960 . S
C526 N527 1.342 . S
C526 C530 1.401 . S
C526 C531 1.499 . S
N527 Co510 1.989 . S
N527 C526 1.342 . S
N527 N528 1.388 . S
N528 Co511 1.993 . S
N528 N527 1.388 . S
N528 C529 1.346 . S
C529 N528 1.346 . S
C529 C530 1.396 . S
C529 C539 1.510 . S
C530 C526 1.401 . S
C530 C529 1.396 . S
C531 C526 1.499 . S
C531 H532 0.959 . S
C531 H533 0.960 . S
C531 H534 0.961 . S
H532 C531 0.959 . S
H533 C531 0.960 . S
H534 C531 0.961 . S
O535 Co510 1.967 . S
O535 C543 1.258 . S
O536 Co511 1.941 . S
O536 C543 1.266 . S
H537 C539 0.959 . S
H538 C539 0.961 . S
C539 C529 1.510 . S
C539 H537 0.959 . S
C539 H538 0.961 . S
C539 H540 0.960 . S
H540 C539 0.960 . S
H541 N521 0.862 . S
O542 Co510 1.920 . S
O542 C515 1.289 . S
C543 O535 1.258 . S
C543 O536 1.266 . S
Co544 O547 1.970 . S
Co544 N561 1.989 . S
Co544 O569 1.967 . S
Co544 O576 1.920 . S
Co545 O548 1.966 . S
Co545 N554 2.022 . S
Co545 N562 1.993 . S
Co545 O570 1.941 . S
C546 O547 1.258 . S
C546 O548 1.263 . S
O547 Co544 1.970 . S
O547 C546 1.258 . S
O548 Co545 1.966 . S
O548 C546 1.263 . S
C549 O550 1.235 . S
C549 O576 1.289 . S
O550 C549 1.235 . S
C551 C553 1.400 . S
C551 N554 1.351 . S
C551 C556 1.501 . S
C552 C553 1.387 . S
C552 N555 1.341 . S
C553 C551 1.400 . S
C553 C552 1.387 . S
N554 Co545 2.022 . S
N554 C551 1.351 . S
N554 N555 1.365 . S
N555 C552 1.341 . S
N555 N554 1.365 . S
N555 H575 0.862 . S
C556 C551 1.501 . S
C556 H557 0.961 . S
C556 H558 0.961 . S
C556 H559 0.960 . S
H557 C556 0.961 . S
H558 C556 0.961 . S
H559 C556 0.960 . S
C560 N561 1.342 . S
C560 C564 1.401 1_556 S
C560 C565 1.499 . S
N561 Co544 1.989 . S
N561 C560 1.342 . S
N561 N562 1.388 . S
N562 Co545 1.993 . S
N562 N561 1.388 . S
N562 C563 1.346 . S
C563 N562 1.346 . S
C563 C564 1.396 1_556 S
C563 C573 1.510 . S
C564 C560 1.401 1_554 S
C564 C563 1.396 1_554 S
C565 C560 1.499 . S
C565 H566 0.959 . S
C565 H567 0.960 . S
C565 H568 0.961 1_556 S
H566 C565 0.959 . S
H567 C565 0.960 . S
H568 C565 0.961 1_554 S
O569 Co544 1.967 . S
O569 C577 1.258 . S
O570 Co545 1.941 . S
O570 C577 1.266 . S
H571 C573 0.959 1_554 S
H572 C573 0.961 . S
C573 C563 1.510 . S
C573 H571 0.959 1_556 S
C573 H572 0.961 . S
C573 H574 0.960 . S
H574 C573 0.960 . S
H575 N555 0.862 . S
O576 Co544 1.920 . S
O576 C549 1.289 . S
C577 O569 1.258 . S
C577 O570 1.266 . S
Co578 O581 1.970 . S
Co578 N595 1.989 . S
Co578 O603 1.967 . S
Co578 O610 1.920 . S
Co579 O582 1.966 . S
Co579 N588 2.022 . S
Co579 N596 1.993 . S
Co579 O604 1.941 . S
C580 O581 1.258 . S
C580 O582 1.263 . S
O581 Co578 1.970 . S
O581 C580 1.258 . S
O582 Co579 1.966 . S
O582 C580 1.263 . S
C583 O584 1.235 . S
C583 O610 1.289 . S
O584 C583 1.235 . S
C585 C587 1.400 . S
C585 N588 1.351 . S
C585 C590 1.501 . S
C586 C587 1.387 . S
C586 N589 1.341 . S
C587 C585 1.400 . S
C587 C586 1.387 . S
N588 Co579 2.022 . S
N588 C585 1.351 . S
N588 N589 1.365 . S
N589 C586 1.341 . S
N589 N588 1.365 . S
N589 H609 0.862 . S
C590 C585 1.501 . S
C590 H591 0.961 . S
C590 H592 0.961 . S
C590 H593 0.960 . S
H591 C590 0.961 . S
H592 C590 0.961 . S
H593 C590 0.960 . S
C594 N595 1.342 . S
C594 C598 1.401 . S
C594 C599 1.499 . S
N595 Co578 1.989 . S
N595 C594 1.342 . S
N595 N596 1.388 . S
N596 Co579 1.993 . S
N596 N595 1.388 . S
N596 C597 1.346 . S
C597 N596 1.346 . S
C597 C598 1.396 . S
C597 C607 1.510 . S
C598 C594 1.401 . S
C598 C597 1.396 . S
C599 C594 1.499 . S
C599 H600 0.959 . S
C599 H601 0.960 . S
C599 H602 0.961 . S
H600 C599 0.959 . S
H601 C599 0.960 . S
H602 C599 0.961 . S
O603 Co578 1.967 . S
O603 C611 1.258 . S
O604 Co579 1.941 . S
O604 C611 1.266 . S
H605 C607 0.959 . S
H606 C607 0.961 . S
C607 C597 1.510 . S
C607 H605 0.959 . S
C607 H606 0.961 . S
C607 H608 0.960 . S
H608 C607 0.960 . S
H609 N589 0.862 . S
O610 Co578 1.920 . S
O610 C583 1.289 . S
C611 O603 1.258 . S
C611 O604 1.266 . S
Co612 O615 1.970 . S
Co612 N629 1.989 . S
Co612 O637 1.967 . S
Co612 O644 1.920 . S
Co613 O616 1.966 . S
Co613 N622 2.022 . S
Co613 N630 1.993 . S
Co613 O638 1.941 . S
C614 O615 1.258 . S
C614 O616 1.263 . S
O615 Co612 1.970 . S
O615 C614 1.258 . S
O616 Co613 1.966 . S
O616 C614 1.263 . S
C617 O618 1.235 . S
C617 O644 1.289 . S
O618 C617 1.235 . S
C619 C621 1.400 . S
C619 N622 1.351 . S
C619 C624 1.501 . S
C620 C621 1.387 . S
C620 N623 1.341 . S
C621 C619 1.400 . S
C621 C620 1.387 . S
N622 Co613 2.022 . S
N622 C619 1.351 . S
N622 N623 1.365 . S
N623 C620 1.341 . S
N623 N622 1.365 . S
N623 H643 0.862 . S
C624 C619 1.501 . S
C624 H625 0.961 . S
C624 H626 0.961 . S
C624 H627 0.960 . S
H625 C624 0.961 . S
H626 C624 0.961 . S
H627 C624 0.960 . S
C628 N629 1.342 . S
C628 C632 1.401 . S
C628 C633 1.499 . S
N629 Co612 1.989 . S
N629 C628 1.342 . S
N629 N630 1.388 . S
N630 Co613 1.993 . S
N630 N629 1.388 . S
N630 C631 1.346 . S
C631 N630 1.346 . S
C631 C632 1.396 . S
C631 C641 1.510 . S
C632 C628 1.401 . S
C632 C631 1.396 . S
C633 C628 1.499 . S
C633 H634 0.959 . S
C633 H635 0.960 . S
C633 H636 0.961 . S
H634 C633 0.959 . S
H635 C633 0.960 . S
H636 C633 0.961 . S
O637 Co612 1.967 . S
O637 C645 1.258 . S
O638 Co613 1.941 . S
O638 C645 1.266 . S
H639 C641 0.959 . S
H640 C641 0.961 . S
C641 C631 1.510 . S
C641 H639 0.959 . S
C641 H640 0.961 . S
C641 H642 0.960 . S
H642 C641 0.960 . S
H643 N623 0.862 . S
O644 Co612 1.920 . S
O644 C617 1.289 . S
C645 O637 1.258 . S
C645 O638 1.266 . S
Co646 O649 1.970 . S
Co646 N663 1.989 . S
Co646 O671 1.967 . S
Co646 O678 1.920 . S
Co647 O650 1.966 . S
Co647 N656 2.022 . S
Co647 N664 1.993 . S
Co647 O672 1.941 . S
C648 O649 1.258 . S
C648 O650 1.263 . S
O649 Co646 1.970 . S
O649 C648 1.258 . S
O650 Co647 1.966 . S
O650 C648 1.263 . S
C651 O652 1.235 . S
C651 O678 1.289 . S
O652 C651 1.235 . S
C653 C655 1.400 . S
C653 N656 1.351 . S
C653 C658 1.501 . S
C654 C655 1.387 . S
C654 N657 1.341 . S
C655 C653 1.400 . S
C655 C654 1.387 . S
N656 Co647 2.022 . S
N656 C653 1.351 . S
N656 N657 1.365 . S
N657 C654 1.341 . S
N657 N656 1.365 . S
N657 H677 0.862 . S
C658 C653 1.501 . S
C658 H659 0.961 . S
C658 H660 0.961 . S
C658 H661 0.960 . S
H659 C658 0.961 . S
H660 C658 0.961 . S
H661 C658 0.960 . S
C662 N663 1.342 . S
C662 C666 1.401 . S
C662 C667 1.499 . S
N663 Co646 1.989 . S
N663 C662 1.342 . S
N663 N664 1.388 . S
N664 Co647 1.993 . S
N664 N663 1.388 . S
N664 C665 1.346 . S
C665 N664 1.346 . S
C665 C666 1.396 . S
C665 C675 1.510 . S
C666 C662 1.401 . S
C666 C665 1.396 . S
C667 C662 1.499 . S
C667 H668 0.959 . S
C667 H669 0.960 . S
C667 H670 0.961 . S
H668 C667 0.959 . S
H669 C667 0.960 . S
H670 C667 0.961 . S
O671 Co646 1.967 . S
O671 C679 1.258 . S
O672 Co647 1.941 . S
O672 C679 1.266 . S
H673 C675 0.959 . S
H674 C675 0.961 . S
C675 C665 1.510 . S
C675 H673 0.959 . S
C675 H674 0.961 . S
C675 H676 0.960 . S
H676 C675 0.960 . S
H677 N657 0.862 . S
O678 Co646 1.920 . S
O678 C651 1.289 . S
C679 O671 1.258 . S
C679 O672 1.266 . S
Co680 O683 1.970 . S
Co680 N697 1.989 . S
Co680 O705 1.967 . S
Co680 O712 1.920 . S
Co681 O684 1.966 . S
Co681 N690 2.022 . S
Co681 N698 1.993 . S
Co681 O706 1.941 . S
C682 O683 1.258 . S
C682 O684 1.263 . S
O683 Co680 1.970 . S
O683 C682 1.258 . S
O684 Co681 1.966 . S
O684 C682 1.263 . S
C685 O686 1.235 . S
C685 O712 1.289 . S
O686 C685 1.235 . S
C687 C689 1.400 . S
C687 N690 1.351 . S
C687 C692 1.501 . S
C688 C689 1.387 . S
C688 N691 1.341 . S
C689 C687 1.400 . S
C689 C688 1.387 . S
N690 Co681 2.022 . S
N690 C687 1.351 . S
N690 N691 1.365 . S
N691 C688 1.341 . S
N691 N690 1.365 . S
N691 H711 0.862 . S
C692 C687 1.501 . S
C692 H693 0.961 . S
C692 H694 0.961 . S
C692 H695 0.960 . S
H693 C692 0.961 . S
H694 C692 0.961 . S
H695 C692 0.960 . S
C696 N697 1.342 . S
C696 C700 1.401 . S
C696 C701 1.499 . S
N697 Co680 1.989 . S
N697 C696 1.342 . S
N697 N698 1.388 . S
N698 Co681 1.993 . S
N698 N697 1.388 . S
N698 C699 1.346 . S
C699 N698 1.346 . S
C699 C700 1.396 . S
C699 C709 1.510 . S
C700 C696 1.401 . S
C700 C699 1.396 . S
C701 C696 1.499 . S
C701 H702 0.959 . S
C701 H703 0.960 . S
C701 H704 0.961 . S
H702 C701 0.959 . S
H703 C701 0.960 . S
H704 C701 0.961 . S
O705 Co680 1.967 . S
O705 C713 1.258 . S
O706 Co681 1.941 . S
O706 C713 1.266 . S
H707 C709 0.959 . S
H708 C709 0.961 . S
C709 C699 1.510 . S
C709 H707 0.959 . S
C709 H708 0.961 . S
C709 H710 0.960 . S
H710 C709 0.960 . S
H711 N691 0.862 . S
O712 Co680 1.920 . S
O712 C685 1.289 . S
C713 O705 1.258 . S
C713 O706 1.266 . S
Co714 O717 1.970 . S
Co714 N731 1.989 . S
Co714 O739 1.967 . S
Co714 O746 1.920 . S
Co715 O718 1.966 . S
Co715 N724 2.022 . S
Co715 N732 1.993 . S
Co715 O740 1.941 . S
C716 O717 1.258 . S
C716 O718 1.263 . S
O717 Co714 1.970 . S
O717 C716 1.258 . S
O718 Co715 1.966 . S
O718 C716 1.263 . S
C719 O720 1.235 . S
C719 O746 1.289 . S
O720 C719 1.235 . S
C721 C723 1.400 . S
C721 N724 1.351 . S
C721 C726 1.501 . S
C722 C723 1.387 . S
C722 N725 1.341 . S
C723 C721 1.400 . S
C723 C722 1.387 . S
N724 Co715 2.022 . S
N724 C721 1.351 . S
N724 N725 1.365 . S
N725 C722 1.341 . S
N725 N724 1.365 . S
N725 H745 0.862 . S
C726 C721 1.501 . S
C726 H727 0.961 . S
C726 H728 0.961 . S
C726 H729 0.960 . S
H727 C726 0.961 . S
H728 C726 0.961 . S
H729 C726 0.960 . S
C730 N731 1.342 . S
C730 C734 1.401 . S
C730 C735 1.499 . S
N731 Co714 1.989 . S
N731 C730 1.342 . S
N731 N732 1.388 . S
N732 Co715 1.993 . S
N732 N731 1.388 . S
N732 C733 1.346 . S
C733 N732 1.346 . S
C733 C734 1.396 . S
C733 C743 1.510 . S
C734 C730 1.401 . S
C734 C733 1.396 . S
C735 C730 1.499 . S
C735 H736 0.959 . S
C735 H737 0.960 . S
C735 H738 0.961 . S
H736 C735 0.959 . S
H737 C735 0.960 . S
H738 C735 0.961 . S
O739 Co714 1.967 . S
O739 C747 1.258 . S
O740 Co715 1.941 . S
O740 C747 1.266 . S
H741 C743 0.959 . S
H742 C743 0.961 . S
C743 C733 1.510 . S
C743 H741 0.959 . S
C743 H742 0.961 . S
C743 H744 0.960 . S
H744 C743 0.960 . S
H745 N725 0.862 . S
O746 Co714 1.920 . S
O746 C719 1.289 . S
C747 O739 1.258 . S
C747 O740 1.266 . S
Co748 O751 1.970 . S
Co748 N765 1.989 . S
Co748 O773 1.967 . S
Co748 O780 1.920 . S
Co749 O752 1.966 . S
Co749 N758 2.022 . S
Co749 N766 1.993 . S
Co749 O774 1.941 . S
C750 O751 1.258 . S
C750 O752 1.263 . S
O751 Co748 1.970 . S
O751 C750 1.258 . S
O752 Co749 1.966 . S
O752 C750 1.263 . S
C753 O754 1.235 . S
C753 O780 1.289 . S
O754 C753 1.235 . S
C755 C757 1.400 . S
C755 N758 1.351 . S
C755 C760 1.501 . S
C756 C757 1.387 . S
C756 N759 1.341 . S
C757 C755 1.400 . S
C757 C756 1.387 . S
N758 Co749 2.022 . S
N758 C755 1.351 . S
N758 N759 1.365 . S
N759 C756 1.341 . S
N759 N758 1.365 . S
N759 H779 0.862 . S
C760 C755 1.501 . S
C760 H761 0.961 . S
C760 H762 0.961 . S
C760 H763 0.960 . S
H761 C760 0.961 . S
H762 C760 0.961 . S
H763 C760 0.960 . S
C764 N765 1.342 . S
C764 C768 1.401 1_554 S
C764 C769 1.499 . S
N765 Co748 1.989 . S
N765 C764 1.342 . S
N765 N766 1.388 . S
N766 Co749 1.993 . S
N766 N765 1.388 . S
N766 C767 1.346 . S
C767 N766 1.346 . S
C767 C768 1.396 1_554 S
C767 C777 1.510 . S
C768 C764 1.401 1_556 S
C768 C767 1.396 1_556 S
C769 C764 1.499 . S
C769 H770 0.959 . S
C769 H771 0.960 . S
C769 H772 0.961 1_554 S
H770 C769 0.959 . S
H771 C769 0.960 . S
H772 C769 0.961 1_556 S
O773 Co748 1.967 . S
O773 C781 1.258 . S
O774 Co749 1.941 . S
O774 C781 1.266 . S
H775 C777 0.959 1_556 S
H776 C777 0.961 . S
C777 C767 1.510 . S
C777 H775 0.959 1_554 S
C777 H776 0.961 . S
C777 H778 0.960 . S
H778 C777 0.960 . S
H779 N759 0.862 . S
O780 Co748 1.920 . S
O780 C753 1.289 . S
C781 O773 1.258 . S
C781 O774 1.266 . S
Co782 O785 1.970 . S
Co782 N799 1.989 . S
Co782 O807 1.967 . S
Co782 O814 1.920 . S
Co783 O786 1.966 . S
Co783 N792 2.022 . S
Co783 N800 1.993 . S
Co783 O808 1.941 . S
C784 O785 1.258 . S
C784 O786 1.263 . S
O785 Co782 1.970 . S
O785 C784 1.258 . S
O786 Co783 1.966 . S
O786 C784 1.263 . S
C787 O788 1.235 . S
C787 O814 1.289 . S
O788 C787 1.235 . S
C789 C791 1.400 . S
C789 N792 1.351 . S
C789 C794 1.501 . S
C790 C791 1.387 . S
C790 N793 1.341 . S
C791 C789 1.400 . S
C791 C790 1.387 . S
N792 Co783 2.022 . S
N792 C789 1.351 . S
N792 N793 1.365 . S
N793 C790 1.341 . S
N793 N792 1.365 . S
N793 H813 0.862 . S
C794 C789 1.501 . S
C794 H795 0.961 . S
C794 H796 0.961 . S
C794 H797 0.960 . S
H795 C794 0.961 . S
H796 C794 0.961 . S
H797 C794 0.960 . S
C798 N799 1.342 . S
C798 C802 1.401 . S
C798 C803 1.499 . S
N799 Co782 1.989 . S
N799 C798 1.342 . S
N799 N800 1.388 . S
N800 Co783 1.993 . S
N800 N799 1.388 . S
N800 C801 1.346 . S
C801 N800 1.346 . S
C801 C802 1.396 . S
C801 C811 1.510 . S
C802 C798 1.401 . S
C802 C801 1.396 . S
C803 C798 1.499 . S
C803 H804 0.959 . S
C803 H805 0.960 . S
C803 H806 0.961 . S
H804 C803 0.959 . S
H805 C803 0.960 . S
H806 C803 0.961 . S
O807 Co782 1.967 . S
O807 C815 1.258 . S
O808 Co783 1.941 . S
O808 C815 1.266 . S
H809 C811 0.959 . S
H810 C811 0.961 . S
C811 C801 1.510 . S
C811 H809 0.959 . S
C811 H810 0.961 . S
C811 H812 0.960 . S
H812 C811 0.960 . S
H813 N793 0.862 . S
O814 Co782 1.920 . S
O814 C787 1.289 . S
C815 O807 1.258 . S
C815 O808 1.266 . S
Co816 O819 1.970 . S
Co816 N833 1.989 . S
Co816 O841 1.967 . S
Co816 O848 1.920 . S
Co817 O820 1.966 . S
Co817 N826 2.022 . S
Co817 N834 1.993 . S
Co817 O842 1.941 . S
C818 O819 1.258 . S
C818 O820 1.263 . S
O819 Co816 1.970 . S
O819 C818 1.258 . S
O820 Co817 1.966 . S
O820 C818 1.263 . S
C821 O822 1.235 . S
C821 O848 1.289 . S
O822 C821 1.235 . S
C823 C825 1.400 . S
C823 N826 1.351 . S
C823 C828 1.501 . S
C824 C825 1.387 . S
C824 N827 1.341 . S
C825 C823 1.400 . S
C825 C824 1.387 . S
N826 Co817 2.022 . S
N826 C823 1.351 . S
N826 N827 1.365 . S
N827 C824 1.341 . S
N827 N826 1.365 . S
N827 H847 0.862 . S
C828 C823 1.501 . S
C828 H829 0.961 . S
C828 H830 0.961 . S
C828 H831 0.960 . S
H829 C828 0.961 . S
H830 C828 0.961 . S
H831 C828 0.960 . S
C832 N833 1.342 . S
C832 C836 1.401 1_554 S
C832 C837 1.499 . S
N833 Co816 1.989 . S
N833 C832 1.342 . S
N833 N834 1.388 . S
N834 Co817 1.993 . S
N834 N833 1.388 . S
N834 C835 1.346 . S
C835 N834 1.346 . S
C835 C836 1.396 1_554 S
C835 C845 1.510 . S
C836 C832 1.401 1_556 S
C836 C835 1.396 1_556 S
C837 C832 1.499 . S
C837 H838 0.959 . S
C837 H839 0.960 . S
C837 H840 0.961 1_554 S
H838 C837 0.959 . S
H839 C837 0.960 . S
H840 C837 0.961 1_556 S
O841 Co816 1.967 . S
O841 C849 1.258 . S
O842 Co817 1.941 . S
O842 C849 1.266 . S
H843 C845 0.959 1_556 S
H844 C845 0.961 . S
C845 C835 1.510 . S
C845 H843 0.959 1_554 S
C845 H844 0.961 . S
C845 H846 0.960 . S
H846 C845 0.960 . S
H847 N827 0.862 . S
O848 Co816 1.920 . S
O848 C821 1.289 . S
C849 O841 1.258 . S
C849 O842 1.266 . S
Co850 O853 1.970 . S
Co850 N867 1.989 . S
Co850 O875 1.967 . S
Co850 O882 1.920 . S
Co851 O854 1.966 . S
Co851 N860 2.022 . S
Co851 N868 1.993 . S
Co851 O876 1.941 . S
C852 O853 1.258 . S
C852 O854 1.263 . S
O853 Co850 1.970 . S
O853 C852 1.258 . S
O854 Co851 1.966 . S
O854 C852 1.263 . S
C855 O856 1.235 . S
C855 O882 1.289 . S
O856 C855 1.235 . S
C857 C859 1.400 . S
C857 N860 1.351 . S
C857 C862 1.501 . S
C858 C859 1.387 . S
C858 N861 1.341 . S
C859 C857 1.400 . S
C859 C858 1.387 . S
N860 Co851 2.022 . S
N860 C857 1.351 . S
N860 N861 1.365 . S
N861 C858 1.341 . S
N861 N860 1.365 . S
N861 H881 0.862 . S
C862 C857 1.501 . S
C862 H863 0.961 . S
C862 H864 0.961 . S
C862 H865 0.960 . S
H863 C862 0.961 . S
H864 C862 0.961 . S
H865 C862 0.960 . S
C866 N867 1.342 . S
C866 C870 1.401 . S
C866 C871 1.499 . S
N867 Co850 1.989 . S
N867 C866 1.342 . S
N867 N868 1.388 . S
N868 Co851 1.993 . S
N868 N867 1.388 . S
N868 C869 1.346 . S
C869 N868 1.346 . S
C869 C870 1.396 . S
C869 C879 1.510 . S
C870 C866 1.401 . S
C870 C869 1.396 . S
C871 C866 1.499 . S
C871 H872 0.959 . S
C871 H873 0.960 . S
C871 H874 0.961 . S
H872 C871 0.959 . S
H873 C871 0.960 . S
H874 C871 0.961 . S
O875 Co850 1.967 . S
O875 C883 1.258 . S
O876 Co851 1.941 . S
O876 C883 1.266 . S
H877 C879 0.959 . S
H878 C879 0.961 . S
C879 C869 1.510 . S
C879 H877 0.959 . S
C879 H878 0.961 . S
C879 H880 0.960 . S
H880 C879 0.960 . S
H881 N861 0.862 . S
O882 Co850 1.920 . S
O882 C855 1.289 . S
C883 O875 1.258 . S
C883 O876 1.266 . S
Co884 O887 1.970 . S
Co884 N901 1.989 . S
Co884 O909 1.967 . S
Co884 O916 1.920 . S
Co885 O888 1.966 . S
Co885 N894 2.022 . S
Co885 N902 1.993 . S
Co885 O910 1.941 . S
C886 O887 1.258 . S
C886 O888 1.263 . S
O887 Co884 1.970 . S
O887 C886 1.258 . S
O888 Co885 1.966 . S
O888 C886 1.263 . S
C889 O890 1.235 . S
C889 O916 1.289 . S
O890 C889 1.235 . S
C891 C893 1.400 . S
C891 N894 1.351 . S
C891 C896 1.501 . S
C892 C893 1.387 . S
C892 N895 1.341 . S
C893 C891 1.400 . S
C893 C892 1.387 . S
N894 Co885 2.022 . S
N894 C891 1.351 . S
N894 N895 1.365 . S
N895 C892 1.341 . S
N895 N894 1.365 . S
N895 H915 0.862 . S
C896 C891 1.501 . S
C896 H897 0.961 . S
C896 H898 0.961 . S
C896 H899 0.960 . S
H897 C896 0.961 . S
H898 C896 0.961 . S
H899 C896 0.960 . S
C900 N901 1.342 . S
C900 C904 1.401 . S
C900 C905 1.499 . S
N901 Co884 1.989 . S
N901 C900 1.342 . S
N901 N902 1.388 . S
N902 Co885 1.993 . S
N902 N901 1.388 . S
N902 C903 1.346 . S
C903 N902 1.346 . S
C903 C904 1.396 . S
C903 C913 1.510 . S
C904 C900 1.401 . S
C904 C903 1.396 . S
C905 C900 1.499 . S
C905 H906 0.959 . S
C905 H907 0.960 . S
C905 H908 0.961 . S
H906 C905 0.959 . S
H907 C905 0.960 . S
H908 C905 0.961 . S
O909 Co884 1.967 . S
O909 C917 1.258 . S
O910 Co885 1.941 . S
O910 C917 1.266 . S
H911 C913 0.959 . S
H912 C913 0.961 . S
C913 C903 1.510 . S
C913 H911 0.959 . S
C913 H912 0.961 . S
C913 H914 0.960 . S
H914 C913 0.960 . S
H915 N895 0.862 . S
O916 Co884 1.920 . S
O916 C889 1.289 . S
C917 O909 1.258 . S
C917 O910 1.266 . S
Co918 O921 1.970 . S
Co918 N935 1.989 . S
Co918 O943 1.967 . S
Co918 O950 1.920 . S
Co919 O922 1.966 . S
Co919 N928 2.022 . S
Co919 N936 1.993 . S
Co919 O944 1.941 . S
C920 O921 1.258 . S
C920 O922 1.263 . S
O921 Co918 1.970 . S
O921 C920 1.258 . S
O922 Co919 1.966 . S
O922 C920 1.263 . S
C923 O924 1.235 . S
C923 O950 1.289 . S
O924 C923 1.235 . S
C925 C927 1.400 . S
C925 N928 1.351 . S
C925 C930 1.501 . S
C926 C927 1.387 . S
C926 N929 1.341 . S
C927 C925 1.400 . S
C927 C926 1.387 . S
N928 Co919 2.022 . S
N928 C925 1.351 . S
N928 N929 1.365 . S
N929 C926 1.341 . S
N929 N928 1.365 . S
N929 H949 0.862 . S
C930 C925 1.501 . S
C930 H931 0.961 . S
C930 H932 0.961 . S
C930 H933 0.960 . S
H931 C930 0.961 . S
H932 C930 0.961 . S
H933 C930 0.960 . S
C934 N935 1.342 . S
C934 C938 1.401 . S
C934 C939 1.499 . S
N935 Co918 1.989 . S
N935 C934 1.342 . S
N935 N936 1.388 . S
N936 Co919 1.993 . S
N936 N935 1.388 . S
N936 C937 1.346 . S
C937 N936 1.346 . S
C937 C938 1.396 . S
C937 C947 1.510 . S
C938 C934 1.401 . S
C938 C937 1.396 . S
C939 C934 1.499 . S
C939 H940 0.959 . S
C939 H941 0.960 . S
C939 H942 0.961 . S
H940 C939 0.959 . S
H941 C939 0.960 . S
H942 C939 0.961 . S
O943 Co918 1.967 . S
O943 C951 1.258 . S
O944 Co919 1.941 . S
O944 C951 1.266 . S
H945 C947 0.959 . S
H946 C947 0.961 . S
C947 C937 1.510 . S
C947 H945 0.959 . S
C947 H946 0.961 . S
C947 H948 0.960 . S
H948 C947 0.960 . S
H949 N929 0.862 . S
O950 Co918 1.920 . S
O950 C923 1.289 . S
C951 O943 1.258 . S
C951 O944 1.266 . S
Co952 O955 1.970 . S
Co952 N969 1.989 . S
Co952 O977 1.967 . S
Co952 O984 1.920 . S
Co953 O956 1.966 . S
Co953 N962 2.022 . S
Co953 N970 1.993 . S
Co953 O978 1.941 . S
C954 O955 1.258 . S
C954 O956 1.263 . S
O955 Co952 1.970 . S
O955 C954 1.258 . S
O956 Co953 1.966 . S
O956 C954 1.263 . S
C957 O958 1.235 . S
C957 O984 1.289 . S
O958 C957 1.235 . S
C959 C961 1.400 . S
C959 N962 1.351 . S
C959 C964 1.501 . S
C960 C961 1.387 . S
C960 N963 1.341 . S
C961 C959 1.400 . S
C961 C960 1.387 . S
N962 Co953 2.022 . S
N962 C959 1.351 . S
N962 N963 1.365 . S
N963 C960 1.341 . S
N963 N962 1.365 . S
N963 H983 0.862 . S
C964 C959 1.501 . S
C964 H965 0.961 . S
C964 H966 0.961 . S
C964 H967 0.960 . S
H965 C964 0.961 . S
H966 C964 0.961 . S
H967 C964 0.960 . S
C968 N969 1.342 . S
C968 C972 1.401 . S
C968 C973 1.499 . S
N969 Co952 1.989 . S
N969 C968 1.342 . S
N969 N970 1.388 . S
N970 Co953 1.993 . S
N970 N969 1.388 . S
N970 C971 1.346 . S
C971 N970 1.346 . S
C971 C972 1.396 . S
C971 C981 1.510 . S
C972 C968 1.401 . S
C972 C971 1.396 . S
C973 C968 1.499 . S
C973 H974 0.959 . S
C973 H975 0.960 . S
C973 H976 0.961 . S
H974 C973 0.959 . S
H975 C973 0.960 . S
H976 C973 0.961 . S
O977 Co952 1.967 . S
O977 C985 1.258 . S
O978 Co953 1.941 . S
O978 C985 1.266 . S
H979 C981 0.959 . S
H980 C981 0.961 . S
C981 C971 1.510 . S
C981 H979 0.959 . S
C981 H980 0.961 . S
C981 H982 0.960 . S
H982 C981 0.960 . S
H983 N963 0.862 . S
O984 Co952 1.920 . S
O984 C957 1.289 . S
C985 O977 1.258 . S
C985 O978 1.266 . S
Co986 O989 1.970 . S
Co986 N1003 1.989 . S
Co986 O1011 1.967 . S
Co986 O1018 1.920 . S
Co987 O990 1.966 . S
Co987 N996 2.022 . S
Co987 N1004 1.993 . S
Co987 O1012 1.941 . S
C988 O989 1.258 . S
C988 O990 1.263 . S
O989 Co986 1.970 . S
O989 C988 1.258 . S
O990 Co987 1.966 . S
O990 C988 1.263 . S
C991 O992 1.235 . S
C991 O1018 1.289 . S
O992 C991 1.235 . S
C993 C995 1.400 . S
C993 N996 1.351 . S
C993 C998 1.501 . S
C994 C995 1.387 . S
C994 N997 1.341 . S
C995 C993 1.400 . S
C995 C994 1.387 . S
N996 Co987 2.022 . S
N996 C993 1.351 . S
N996 N997 1.365 . S
N997 C994 1.341 . S
N997 N996 1.365 . S
N997 H1017 0.862 . S
C998 C993 1.501 . S
C998 H999 0.961 . S
C998 H1000 0.961 . S
C998 H1001 0.960 . S
H999 C998 0.961 . S
H1000 C998 0.961 . S
H1001 C998 0.960 . S
C1002 N1003 1.342 . S
C1002 C1006 1.401 . S
C1002 C1007 1.499 . S
N1003 Co986 1.989 . S
N1003 C1002 1.342 . S
N1003 N1004 1.388 . S
N1004 Co987 1.993 . S
N1004 N1003 1.388 . S
N1004 C1005 1.346 . S
C1005 N1004 1.346 . S
C1005 C1006 1.396 . S
C1005 C1015 1.510 . S
C1006 C1002 1.401 . S
C1006 C1005 1.396 . S
C1007 C1002 1.499 . S
C1007 H1008 0.959 . S
C1007 H1009 0.960 . S
C1007 H1010 0.961 . S
H1008 C1007 0.959 . S
H1009 C1007 0.960 . S
H1010 C1007 0.961 . S
O1011 Co986 1.967 . S
O1011 C1019 1.258 . S
O1012 Co987 1.941 . S
O1012 C1019 1.266 . S
H1013 C1015 0.959 . S
H1014 C1015 0.961 . S
C1015 C1005 1.510 . S
C1015 H1013 0.959 . S
C1015 H1014 0.961 . S
C1015 H1016 0.960 . S
H1016 C1015 0.960 . S
H1017 N997 0.862 . S
O1018 Co986 1.920 . S
O1018 C991 1.289 . S
C1019 O1011 1.258 . S
C1019 O1012 1.266 . S
Co1020 O1023 1.970 . S
Co1020 N1037 1.989 . S
Co1020 O1045 1.967 . S
Co1020 O1052 1.920 . S
Co1021 O1024 1.966 . S
Co1021 N1030 2.022 . S
Co1021 N1038 1.993 . S
Co1021 O1046 1.941 . S
C1022 O1023 1.258 . S
C1022 O1024 1.263 . S
O1023 Co1020 1.970 . S
O1023 C1022 1.258 . S
O1024 Co1021 1.966 . S
O1024 C1022 1.263 . S
C1025 O1026 1.235 . S
C1025 O1052 1.289 . S
O1026 C1025 1.235 . S
C1027 C1029 1.400 . S
C1027 N1030 1.351 . S
C1027 C1032 1.501 . S
C1028 C1029 1.387 . S
C1028 N1031 1.341 . S
C1029 C1027 1.400 . S
C1029 C1028 1.387 . S
N1030 Co1021 2.022 . S
N1030 C1027 1.351 . S
N1030 N1031 1.365 . S
N1031 C1028 1.341 . S
N1031 N1030 1.365 . S
N1031 H1051 0.862 . S
C1032 C1027 1.501 . S
C1032 H1033 0.961 . S
C1032 H1034 0.961 . S
C1032 H1035 0.960 . S
H1033 C1032 0.961 . S
H1034 C1032 0.961 . S
H1035 C1032 0.960 . S
C1036 N1037 1.342 . S
C1036 C1040 1.401 1_556 S
C1036 C1041 1.499 . S
N1037 Co1020 1.989 . S
N1037 C1036 1.342 . S
N1037 N1038 1.388 . S
N1038 Co1021 1.993 . S
N1038 N1037 1.388 . S
N1038 C1039 1.346 . S
C1039 N1038 1.346 . S
C1039 C1040 1.396 1_556 S
C1039 C1049 1.510 . S
C1040 C1036 1.401 1_554 S
C1040 C1039 1.396 1_554 S
C1041 C1036 1.499 . S
C1041 H1042 0.959 . S
C1041 H1043 0.960 . S
C1041 H1044 0.961 1_556 S
H1042 C1041 0.959 . S
H1043 C1041 0.960 . S
H1044 C1041 0.961 1_554 S
O1045 Co1020 1.967 . S
O1045 C1053 1.258 . S
O1046 Co1021 1.941 . S
O1046 C1053 1.266 . S
H1047 C1049 0.959 1_554 S
H1048 C1049 0.961 . S
C1049 C1039 1.510 . S
C1049 H1047 0.959 1_556 S
C1049 H1048 0.961 . S
C1049 H1050 0.960 . S
H1050 C1049 0.960 . S
H1051 N1031 0.862 . S
O1052 Co1020 1.920 . S
O1052 C1025 1.289 . S
C1053 O1045 1.258 . S
C1053 O1046 1.266 . S
Co1054 O1057 1.970 . S
Co1054 N1071 1.989 . S
Co1054 O1079 1.967 . S
Co1054 O1086 1.920 . S
Co1055 O1058 1.966 . S
Co1055 N1064 2.022 . S
Co1055 N1072 1.993 . S
Co1055 O1080 1.941 . S
C1056 O1057 1.258 . S
C1056 O1058 1.263 . S
O1057 Co1054 1.970 . S
O1057 C1056 1.258 . S
O1058 Co1055 1.966 . S
O1058 C1056 1.263 . S
C1059 O1060 1.235 . S
C1059 O1086 1.289 . S
O1060 C1059 1.235 . S
C1061 C1063 1.400 . S
C1061 N1064 1.351 . S
C1061 C1066 1.501 . S
C1062 C1063 1.387 . S
C1062 N1065 1.341 . S
C1063 C1061 1.400 . S
C1063 C1062 1.387 . S
N1064 Co1055 2.022 . S
N1064 C1061 1.351 . S
N1064 N1065 1.365 . S
N1065 C1062 1.341 . S
N1065 N1064 1.365 . S
N1065 H1085 0.862 . S
C1066 C1061 1.501 . S
C1066 H1067 0.961 . S
C1066 H1068 0.961 . S
C1066 H1069 0.960 . S
H1067 C1066 0.961 . S
H1068 C1066 0.961 . S
H1069 C1066 0.960 . S
C1070 N1071 1.342 . S
C1070 C1074 1.401 . S
C1070 C1075 1.499 . S
N1071 Co1054 1.989 . S
N1071 C1070 1.342 . S
N1071 N1072 1.388 . S
N1072 Co1055 1.993 . S
N1072 N1071 1.388 . S
N1072 C1073 1.346 . S
C1073 N1072 1.346 . S
C1073 C1074 1.396 . S
C1073 C1083 1.510 . S
C1074 C1070 1.401 . S
C1074 C1073 1.396 . S
C1075 C1070 1.499 . S
C1075 H1076 0.959 . S
C1075 H1077 0.960 . S
C1075 H1078 0.961 . S
H1076 C1075 0.959 . S
H1077 C1075 0.960 . S
H1078 C1075 0.961 . S
O1079 Co1054 1.967 . S
O1079 C1087 1.258 . S
O1080 Co1055 1.941 . S
O1080 C1087 1.266 . S
H1081 C1083 0.959 . S
H1082 C1083 0.961 . S
C1083 C1073 1.510 . S
C1083 H1081 0.959 . S
C1083 H1082 0.961 . S
C1083 H1084 0.960 . S
H1084 C1083 0.960 . S
H1085 N1065 0.862 . S
O1086 Co1054 1.920 . S
O1086 C1059 1.289 . S
C1087 O1079 1.258 . S
C1087 O1080 1.266 . S
H1088 C1096 0.950 . S
H1089 C1101 0.950 . S
H1090 C1098 0.950 . S
H1091 C1100 0.950 . S
H1092 C1102 0.950 . S
H1093 C1104 0.950 . S
H1094 C1106 0.950 . S
H1095 C1107 0.950 . S
C1096 H1088 0.950 . S
C1096 C1097 1.386 . S
C1096 C1098 1.391 . S
C1097 C1096 1.386 . S
C1097 C1101 1.393 . S
C1098 H1090 0.950 . S
C1098 C1096 1.391 . S
C1098 C1099 1.400 . S
C1099 C1098 1.400 . S
C1099 C1100 1.398 . S
C1099 C1105 1.491 . S
C1100 H1091 0.950 . S
C1100 C1099 1.398 . S
C1100 C1101 1.391 . S
C1101 H1089 0.950 . S
C1101 C1097 1.393 . S
C1101 C1100 1.391 . S
C1102 H1092 0.950 . S
C1102 C1103 1.386 . S
C1102 C1104 1.391 . S
C1103 C1102 1.386 . S
C1103 C1107 1.393 . S
C1104 H1093 0.950 . S
C1104 C1102 1.391 . S
C1104 C1105 1.400 . S
C1105 C1099 1.491 . S
C1105 C1104 1.400 . S
C1105 C1106 1.398 . S
C1106 H1094 0.950 . S
C1106 C1105 1.398 . S
C1106 C1107 1.391 . S
C1107 H1095 0.950 . S
C1107 C1103 1.393 . S
C1107 C1106 1.391 . S
H1108 C1116 0.950 . S
H1109 C1121 0.950 . S
H1110 C1118 0.950 . S
H1111 C1120 0.950 . S
H1112 C1122 0.950 . S
H1113 C1124 0.950 . S
H1114 C1126 0.950 . S
H1115 C1127 0.950 . S
C1116 H1108 0.950 . S
C1116 C1117 1.386 . S
C1116 C1118 1.391 . S
C1117 C1116 1.386 . S
C1117 C1121 1.393 . S
C1118 H1110 0.950 . S
C1118 C1116 1.391 . S
C1118 C1119 1.400 . S
C1119 C1118 1.400 . S
C1119 C1120 1.398 . S
C1119 C1125 1.491 . S
C1120 H1111 0.950 . S
C1120 C1119 1.398 . S
C1120 C1121 1.391 . S
C1121 H1109 0.950 . S
C1121 C1117 1.393 . S
C1121 C1120 1.391 . S
C1122 H1112 0.950 . S
C1122 C1123 1.386 . S
C1122 C1124 1.391 . S
C1123 C1122 1.386 . S
C1123 C1127 1.393 . S
C1124 H1113 0.950 . S
C1124 C1122 1.391 . S
C1124 C1125 1.400 . S
C1125 C1119 1.491 . S
C1125 C1124 1.400 . S
C1125 C1126 1.398 . S
C1126 H1114 0.950 . S
C1126 C1125 1.398 . S
C1126 C1127 1.391 . S
C1127 H1115 0.950 . S
C1127 C1123 1.393 . S
C1127 C1126 1.391 . S
H1128 C1136 0.950 . S
H1129 C1141 0.950 . S
H1130 C1138 0.950 . S
H1131 C1140 0.950 . S
H1132 C1142 0.950 . S
H1133 C1144 0.950 . S
H1134 C1146 0.950 . S
H1135 C1147 0.950 . S
C1136 H1128 0.950 . S
C1136 C1137 1.386 . S
C1136 C1138 1.391 . S
C1137 C1136 1.386 . S
C1137 C1141 1.393 . S
C1138 H1130 0.950 . S
C1138 C1136 1.391 . S
C1138 C1139 1.400 . S
C1139 C1138 1.400 . S
C1139 C1140 1.398 . S
C1139 C1145 1.491 . S
C1140 H1131 0.950 . S
C1140 C1139 1.398 . S
C1140 C1141 1.391 . S
C1141 H1129 0.950 . S
C1141 C1137 1.393 . S
C1141 C1140 1.391 . S
C1142 H1132 0.950 . S
C1142 C1143 1.386 . S
C1142 C1144 1.391 . S
C1143 C1142 1.386 . S
C1143 C1147 1.393 . S
C1144 H1133 0.950 . S
C1144 C1142 1.391 . S
C1144 C1145 1.400 . S
C1145 C1139 1.491 . S
C1145 C1144 1.400 . S
C1145 C1146 1.398 . S
C1146 H1134 0.950 . S
C1146 C1145 1.398 . S
C1146 C1147 1.391 . S
C1147 H1135 0.950 . S
C1147 C1143 1.393 . S
C1147 C1146 1.391 . S
H1148 C1156 0.950 . S
H1149 C1161 0.950 . S
H1150 C1158 0.950 . S
H1151 C1160 0.950 . S
H1152 C1162 0.950 . S
H1153 C1164 0.950 . S
H1154 C1166 0.950 . S
H1155 C1167 0.950 . S
C1156 H1148 0.950 . S
C1156 C1157 1.386 . S
C1156 C1158 1.391 . S
C1157 C1156 1.386 . S
C1157 C1161 1.393 . S
C1158 H1150 0.950 . S
C1158 C1156 1.391 . S
C1158 C1159 1.400 . S
C1159 C1158 1.400 . S
C1159 C1160 1.398 . S
C1159 C1165 1.491 . S
C1160 H1151 0.950 . S
C1160 C1159 1.398 . S
C1160 C1161 1.391 . S
C1161 H1149 0.950 . S
C1161 C1157 1.393 . S
C1161 C1160 1.391 . S
C1162 H1152 0.950 . S
C1162 C1163 1.386 . S
C1162 C1164 1.391 . S
C1163 C1162 1.386 . S
C1163 C1167 1.393 . S
C1164 H1153 0.950 . S
C1164 C1162 1.391 . S
C1164 C1165 1.400 . S
C1165 C1159 1.491 . S
C1165 C1164 1.400 . S
C1165 C1166 1.398 . S
C1166 H1154 0.950 . S
C1166 C1165 1.398 . S
C1166 C1167 1.391 . S
C1167 H1155 0.950 . S
C1167 C1163 1.393 . S
C1167 C1166 1.391 . S
H1168 C1176 0.950 . S
H1169 C1181 0.950 . S
H1170 C1178 0.950 . S
H1171 C1180 0.950 . S
H1172 C1182 0.950 . S
H1173 C1184 0.950 . S
H1174 C1186 0.950 . S
H1175 C1187 0.950 . S
C1176 H1168 0.950 . S
C1176 C1177 1.386 . S
C1176 C1178 1.391 . S
C1177 C1176 1.386 . S
C1177 C1181 1.393 . S
C1178 H1170 0.950 . S
C1178 C1176 1.391 . S
C1178 C1179 1.400 . S
C1179 C1178 1.400 . S
C1179 C1180 1.398 . S
C1179 C1185 1.491 . S
C1180 H1171 0.950 . S
C1180 C1179 1.398 . S
C1180 C1181 1.391 . S
C1181 H1169 0.950 . S
C1181 C1177 1.393 . S
C1181 C1180 1.391 . S
C1182 H1172 0.950 . S
C1182 C1183 1.386 . S
C1182 C1184 1.391 . S
C1183 C1182 1.386 . S
C1183 C1187 1.393 . S
C1184 H1173 0.950 . S
C1184 C1182 1.391 . S
C1184 C1185 1.400 . S
C1185 C1179 1.491 . S
C1185 C1184 1.400 . S
C1185 C1186 1.398 . S
C1186 H1174 0.950 . S
C1186 C1185 1.398 . S
C1186 C1187 1.391 . S
C1187 H1175 0.950 . S
C1187 C1183 1.393 . S
C1187 C1186 1.391 . S
H1188 C1196 0.950 . S
H1189 C1201 0.950 . S
H1190 C1198 0.950 . S
H1191 C1200 0.950 . S
H1192 C1202 0.950 . S
H1193 C1204 0.950 . S
H1194 C1206 0.950 . S
H1195 C1207 0.950 . S
C1196 H1188 0.950 . S
C1196 C1197 1.386 . S
C1196 C1198 1.391 . S
C1197 C1196 1.386 . S
C1197 C1201 1.393 . S
C1198 H1190 0.950 . S
C1198 C1196 1.391 . S
C1198 C1199 1.400 . S
C1199 C1198 1.400 . S
C1199 C1200 1.398 . S
C1199 C1205 1.491 . S
C1200 H1191 0.950 . S
C1200 C1199 1.398 . S
C1200 C1201 1.391 . S
C1201 H1189 0.950 . S
C1201 C1197 1.393 . S
C1201 C1200 1.391 . S
C1202 H1192 0.950 . S
C1202 C1203 1.386 . S
C1202 C1204 1.391 . S
C1203 C1202 1.386 . S
C1203 C1207 1.393 . S
C1204 H1193 0.950 . S
C1204 C1202 1.391 . S
C1204 C1205 1.400 . S
C1205 C1199 1.491 . S
C1205 C1204 1.400 . S
C1205 C1206 1.398 . S
C1206 H1194 0.950 . S
C1206 C1205 1.398 . S
C1206 C1207 1.391 . S
C1207 H1195 0.950 . S
C1207 C1203 1.393 . S
C1207 C1206 1.391 . S
H1208 C1216 0.950 . S
H1209 C1221 0.950 . S
H1210 C1218 0.950 . S
H1211 C1220 0.950 . S
H1212 C1222 0.950 . S
H1213 C1224 0.950 . S
H1214 C1226 0.950 . S
H1215 C1227 0.950 . S
C1216 H1208 0.950 . S
C1216 C1217 1.386 . S
C1216 C1218 1.391 . S
C1217 C1216 1.386 . S
C1217 C1221 1.393 . S
C1218 H1210 0.950 . S
C1218 C1216 1.391 . S
C1218 C1219 1.400 . S
C1219 C1218 1.400 . S
C1219 C1220 1.398 . S
C1219 C1225 1.491 . S
C1220 H1211 0.950 . S
C1220 C1219 1.398 . S
C1220 C1221 1.391 . S
C1221 H1209 0.950 . S
C1221 C1217 1.393 . S
C1221 C1220 1.391 . S
C1222 H1212 0.950 . S
C1222 C1223 1.386 . S
C1222 C1224 1.391 . S
C1223 C1222 1.386 . S
C1223 C1227 1.393 . S
C1224 H1213 0.950 . S
C1224 C1222 1.391 . S
C1224 C1225 1.400 . S
C1225 C1219 1.491 . S
C1225 C1224 1.400 . S
C1225 C1226 1.398 . S
C1226 H1214 0.950 . S
C1226 C1225 1.398 . S
C1226 C1227 1.391 . S
C1227 H1215 0.950 . S
C1227 C1223 1.393 . S
C1227 C1226 1.391 . S
H1228 C1236 0.950 . S
H1229 C1241 0.950 . S
H1230 C1238 0.950 . S
H1231 C1240 0.950 . S
H1232 C1242 0.950 . S
H1233 C1244 0.950 . S
H1234 C1246 0.950 . S
H1235 C1247 0.950 . S
C1236 H1228 0.950 . S
C1236 C1237 1.386 . S
C1236 C1238 1.391 . S
C1237 C1236 1.386 . S
C1237 C1241 1.393 . S
C1238 H1230 0.950 . S
C1238 C1236 1.391 . S
C1238 C1239 1.400 . S
C1239 C1238 1.400 . S
C1239 C1240 1.398 . S
C1239 C1245 1.491 . S
C1240 H1231 0.950 . S
C1240 C1239 1.398 . S
C1240 C1241 1.391 . S
C1241 H1229 0.950 . S
C1241 C1237 1.393 . S
C1241 C1240 1.391 . S
C1242 H1232 0.950 . S
C1242 C1243 1.386 . S
C1242 C1244 1.391 . S
C1243 C1242 1.386 . S
C1243 C1247 1.393 . S
C1244 H1233 0.950 . S
C1244 C1242 1.391 . S
C1244 C1245 1.400 . S
C1245 C1239 1.491 . S
C1245 C1244 1.400 . S
C1245 C1246 1.398 . S
C1246 H1234 0.950 . S
C1246 C1245 1.398 . S
C1246 C1247 1.391 . S
C1247 H1235 0.950 . S
C1247 C1243 1.393 . S
C1247 C1246 1.391 . S
H1248 C1256 0.950 . S
H1249 C1261 0.950 . S
H1250 C1258 0.950 . S
H1251 C1260 0.950 . S
H1252 C1262 0.950 . S
H1253 C1264 0.950 . S
H1254 C1266 0.950 . S
H1255 C1267 0.950 . S
C1256 H1248 0.950 . S
C1256 C1257 1.386 . S
C1256 C1258 1.391 . S
C1257 C1256 1.386 . S
C1257 C1261 1.393 . S
C1258 H1250 0.950 . S
C1258 C1256 1.391 . S
C1258 C1259 1.400 . S
C1259 C1258 1.400 . S
C1259 C1260 1.398 . S
C1259 C1265 1.491 . S
C1260 H1251 0.950 . S
C1260 C1259 1.398 . S
C1260 C1261 1.391 . S
C1261 H1249 0.950 . S
C1261 C1257 1.393 . S
C1261 C1260 1.391 . S
C1262 H1252 0.950 . S
C1262 C1263 1.386 . S
C1262 C1264 1.391 . S
C1263 C1262 1.386 . S
C1263 C1267 1.393 . S
C1264 H1253 0.950 . S
C1264 C1262 1.391 . S
C1264 C1265 1.400 . S
C1265 C1259 1.491 . S
C1265 C1264 1.400 . S
C1265 C1266 1.398 . S
C1266 H1254 0.950 . S
C1266 C1265 1.398 . S
C1266 C1267 1.391 . S
C1267 H1255 0.950 . S
C1267 C1263 1.393 . S
C1267 C1266 1.391 . S
H1268 C1276 0.950 . S
H1269 C1281 0.950 . S
H1270 C1278 0.950 . S
H1271 C1280 0.950 . S
H1272 C1282 0.949 . S
H1273 C1284 0.950 . S
H1274 C1286 0.950 . S
H1275 C1287 0.950 . S
C1276 H1268 0.950 . S
C1276 C1277 1.386 . S
C1276 C1278 1.391 . S
C1277 C1276 1.386 . S
C1277 C1281 1.393 . S
C1278 H1270 0.950 . S
C1278 C1276 1.391 . S
C1278 C1279 1.400 . S
C1279 C1278 1.400 . S
C1279 C1280 1.398 . S
C1279 C1285 1.491 . S
C1280 H1271 0.950 . S
C1280 C1279 1.398 . S
C1280 C1281 1.391 . S
C1281 H1269 0.950 . S
C1281 C1277 1.393 . S
C1281 C1280 1.391 . S
C1282 H1272 0.949 . S
C1282 C1283 1.386 . S
C1282 C1284 1.391 . S
C1283 C1282 1.386 . S
C1283 C1287 1.393 . S
C1284 H1273 0.950 . S
C1284 C1282 1.391 . S
C1284 C1285 1.400 . S
C1285 C1279 1.491 . S
C1285 C1284 1.400 . S
C1285 C1286 1.398 . S
C1286 H1274 0.950 . S
C1286 C1285 1.398 . S
C1286 C1287 1.391 . S
C1287 H1275 0.950 . S
C1287 C1283 1.393 . S
C1287 C1286 1.391 . S
H1288 C1296 0.950 . S
H1289 C1301 0.950 . S
H1290 C1298 0.950 . S
H1291 C1300 0.950 . S
H1292 C1302 0.950 . S
H1293 C1304 0.950 . S
H1294 C1306 0.950 . S
H1295 C1307 0.950 . S
C1296 H1288 0.950 . S
C1296 C1297 1.386 . S
C1296 C1298 1.391 . S
C1297 C1296 1.386 . S
C1297 C1301 1.393 . S
C1298 H1290 0.950 . S
C1298 C1296 1.391 . S
C1298 C1299 1.400 . S
C1299 C1298 1.400 . S
C1299 C1300 1.398 . S
C1299 C1305 1.491 . S
C1300 H1291 0.950 . S
C1300 C1299 1.398 . S
C1300 C1301 1.391 . S
C1301 H1289 0.950 . S
C1301 C1297 1.393 . S
C1301 C1300 1.391 . S
C1302 H1292 0.950 . S
C1302 C1303 1.386 . S
C1302 C1304 1.391 . S
C1303 C1302 1.386 . S
C1303 C1307 1.393 . S
C1304 H1293 0.950 . S
C1304 C1302 1.391 . S
C1304 C1305 1.400 . S
C1305 C1299 1.491 . S
C1305 C1304 1.400 . S
C1305 C1306 1.398 . S
C1306 H1294 0.950 . S
C1306 C1305 1.398 . S
C1306 C1307 1.391 . S
C1307 H1295 0.950 . S
C1307 C1303 1.393 . S
C1307 C1306 1.391 . S
H1308 C1316 0.950 . S
H1309 C1321 0.950 . S
H1310 C1318 0.950 . S
H1311 C1320 0.950 . S
H1312 C1322 0.950 . S
H1313 C1324 0.950 . S
H1314 C1326 0.950 . S
H1315 C1327 0.950 . S
C1316 H1308 0.950 . S
C1316 C1317 1.386 . S
C1316 C1318 1.391 . S
C1317 C1316 1.386 . S
C1317 C1321 1.393 . S
C1318 H1310 0.950 . S
C1318 C1316 1.391 . S
C1318 C1319 1.400 . S
C1319 C1318 1.400 . S
C1319 C1320 1.398 . S
C1319 C1325 1.491 . S
C1320 H1311 0.950 . S
C1320 C1319 1.398 . S
C1320 C1321 1.391 . S
C1321 H1309 0.950 . S
C1321 C1317 1.393 . S
C1321 C1320 1.391 . S
C1322 H1312 0.950 . S
C1322 C1323 1.386 . S
C1322 C1324 1.391 . S
C1323 C1322 1.386 . S
C1323 C1327 1.393 . S
C1324 H1313 0.950 . S
C1324 C1322 1.391 . S
C1324 C1325 1.400 . S
C1325 C1319 1.491 . S
C1325 C1324 1.400 . S
C1325 C1326 1.398 . S
C1326 H1314 0.950 . S
C1326 C1325 1.398 . S
C1326 C1327 1.391 . S
C1327 H1315 0.950 . S
C1327 C1323 1.393 . S
C1327 C1326 1.391 . S
H1328 C1336 0.950 . S
H1329 C1341 0.950 . S
H1330 C1338 0.950 . S
H1331 C1340 0.950 . S
H1332 C1342 0.950 . S
H1333 C1344 0.950 . S
H1334 C1346 0.950 . S
H1335 C1347 0.950 . S
C1336 H1328 0.950 . S
C1336 C1337 1.386 . S
C1336 C1338 1.391 . S
C1337 C1336 1.386 . S
C1337 C1341 1.393 . S
C1338 H1330 0.950 . S
C1338 C1336 1.391 . S
C1338 C1339 1.400 . S
C1339 C1338 1.400 . S
C1339 C1340 1.398 . S
C1339 C1345 1.491 . S
C1340 H1331 0.950 . S
C1340 C1339 1.398 . S
C1340 C1341 1.391 . S
C1341 H1329 0.950 . S
C1341 C1337 1.393 . S
C1341 C1340 1.391 . S
C1342 H1332 0.950 . S
C1342 C1343 1.386 . S
C1342 C1344 1.391 . S
C1343 C1342 1.386 . S
C1343 C1347 1.393 . S
C1344 H1333 0.950 . S
C1344 C1342 1.391 . S
C1344 C1345 1.400 . S
C1345 C1339 1.491 . S
C1345 C1344 1.400 . S
C1345 C1346 1.398 . S
C1346 H1334 0.950 . S
C1346 C1345 1.398 . S
C1346 C1347 1.391 . S
C1347 H1335 0.950 . S
C1347 C1343 1.393 . S
C1347 C1346 1.391 . S
H1348 C1356 0.950 . S
H1349 C1361 0.950 . S
H1350 C1358 0.950 . S
H1351 C1360 0.950 . S
H1352 C1362 0.950 . S
H1353 C1364 0.950 . S
H1354 C1366 0.950 . S
H1355 C1367 0.950 . S
C1356 H1348 0.950 . S
C1356 C1357 1.386 . S
C1356 C1358 1.391 . S
C1357 C1356 1.386 . S
C1357 C1361 1.393 . S
C1358 H1350 0.950 . S
C1358 C1356 1.391 . S
C1358 C1359 1.400 . S
C1359 C1358 1.400 . S
C1359 C1360 1.398 . S
C1359 C1365 1.491 . S
C1360 H1351 0.950 . S
C1360 C1359 1.398 . S
C1360 C1361 1.391 . S
C1361 H1349 0.950 . S
C1361 C1357 1.393 . S
C1361 C1360 1.391 . S
C1362 H1352 0.950 . S
C1362 C1363 1.386 . S
C1362 C1364 1.391 . S
C1363 C1362 1.386 . S
C1363 C1367 1.393 . S
C1364 H1353 0.950 . S
C1364 C1362 1.391 . S
C1364 C1365 1.400 . S
C1365 C1359 1.491 . S
C1365 C1364 1.400 . S
C1365 C1366 1.398 . S
C1366 H1354 0.950 . S
C1366 C1365 1.398 . S
C1366 C1367 1.391 . S
C1367 H1355 0.950 . S
C1367 C1363 1.393 . S
C1367 C1366 1.391 . S
H1368 C1376 0.950 . S
H1369 C1381 0.950 . S
H1370 C1378 0.950 . S
H1371 C1380 0.950 . S
H1372 C1382 0.950 . S
H1373 C1384 0.950 . S
H1374 C1386 0.950 . S
H1375 C1387 0.950 . S
C1376 H1368 0.950 . S
C1376 C1377 1.386 . S
C1376 C1378 1.391 . S
C1377 C1376 1.386 . S
C1377 C1381 1.393 . S
C1378 H1370 0.950 . S
C1378 C1376 1.391 . S
C1378 C1379 1.400 . S
C1379 C1378 1.400 . S
C1379 C1380 1.398 . S
C1379 C1385 1.491 . S
C1380 H1371 0.950 . S
C1380 C1379 1.398 . S
C1380 C1381 1.391 . S
C1381 H1369 0.950 . S
C1381 C1377 1.393 . S
C1381 C1380 1.391 . S
C1382 H1372 0.950 . S
C1382 C1383 1.386 . S
C1382 C1384 1.391 . S
C1383 C1382 1.386 . S
C1383 C1387 1.393 . S
C1384 H1373 0.950 . S
C1384 C1382 1.391 . S
C1384 C1385 1.400 . S
C1385 C1379 1.491 . S
C1385 C1384 1.400 . S
C1385 C1386 1.398 . S
C1386 H1374 0.950 . S
C1386 C1385 1.398 . S
C1386 C1387 1.391 . S
C1387 H1375 0.950 . S
C1387 C1383 1.393 . S
C1387 C1386 1.391 . S
H1388 C1396 0.950 . S
H1389 C1401 0.950 . S
H1390 C1398 0.950 . S
H1391 C1400 0.950 . S
H1392 C1402 0.950 . S
H1393 C1404 0.950 . S
H1394 C1406 0.950 . S
H1395 C1407 0.950 . S
C1396 H1388 0.950 . S
C1396 C1397 1.386 . S
C1396 C1398 1.391 . S
C1397 C1396 1.386 . S
C1397 C1401 1.393 . S
C1398 H1390 0.950 . S
C1398 C1396 1.391 . S
C1398 C1399 1.400 . S
C1399 C1398 1.400 . S
C1399 C1400 1.398 . S
C1399 C1405 1.491 . S
C1400 H1391 0.950 . S
C1400 C1399 1.398 . S
C1400 C1401 1.391 . S
C1401 H1389 0.950 . S
C1401 C1397 1.393 . S
C1401 C1400 1.391 . S
C1402 H1392 0.950 . S
C1402 C1403 1.386 . S
C1402 C1404 1.391 . S
C1403 C1402 1.386 . S
C1403 C1407 1.393 . S
C1404 H1393 0.950 . S
C1404 C1402 1.391 . S
C1404 C1405 1.400 . S
C1405 C1399 1.491 . S
C1405 C1404 1.400 . S
C1405 C1406 1.398 . S
C1406 H1394 0.950 . S
C1406 C1405 1.398 . S
C1406 C1407 1.391 . S
C1407 H1395 0.950 . S
C1407 C1403 1.393 . S
C1407 C1406 1.391 . S
H1408 C1416 0.950 . S
H1409 C1421 0.950 . S
H1410 C1418 0.950 . S
H1411 C1420 0.950 . S
H1412 C1422 0.950 . S
H1413 C1424 0.950 . S
H1414 C1426 0.950 . S
H1415 C1427 0.950 . S
C1416 H1408 0.950 . S
C1416 C1417 1.386 . S
C1416 C1418 1.391 . S
C1417 C1416 1.386 . S
C1417 C1421 1.393 . S
C1418 H1410 0.950 . S
C1418 C1416 1.391 . S
C1418 C1419 1.400 . S
C1419 C1418 1.400 . S
C1419 C1420 1.398 . S
C1419 C1425 1.491 . S
C1420 H1411 0.950 . S
C1420 C1419 1.398 . S
C1420 C1421 1.391 . S
C1421 H1409 0.950 . S
C1421 C1417 1.393 . S
C1421 C1420 1.391 . S
C1422 H1412 0.950 . S
C1422 C1423 1.386 . S
C1422 C1424 1.391 . S
C1423 C1422 1.386 . S
C1423 C1427 1.393 . S
C1424 H1413 0.950 . S
C1424 C1422 1.391 . S
C1424 C1425 1.400 . S
C1425 C1419 1.491 . S
C1425 C1424 1.400 . S
C1425 C1426 1.398 . S
C1426 H1414 0.950 . S
C1426 C1425 1.398 . S
C1426 C1427 1.391 . S
C1427 H1415 0.950 . S
C1427 C1423 1.393 . S
C1427 C1426 1.391 . S
H1428 C1436 0.950 . S
H1429 C1441 0.950 . S
H1430 C1438 0.950 . S
H1431 C1440 0.950 . S
H1432 C1442 0.950 . S
H1433 C1444 0.950 . S
H1434 C1446 0.950 . S
H1435 C1447 0.950 . S
C1436 H1428 0.950 . S
C1436 C1437 1.386 . S
C1436 C1438 1.391 . S
C1437 C1436 1.386 . S
C1437 C1441 1.393 . S
C1438 H1430 0.950 . S
C1438 C1436 1.391 . S
C1438 C1439 1.400 . S
C1439 C1438 1.400 . S
C1439 C1440 1.398 . S
C1439 C1445 1.491 . S
C1440 H1431 0.950 . S
C1440 C1439 1.398 . S
C1440 C1441 1.391 . S
C1441 H1429 0.950 . S
C1441 C1437 1.393 . S
C1441 C1440 1.391 . S
C1442 H1432 0.950 . S
C1442 C1443 1.386 . S
C1442 C1444 1.391 . S
C1443 C1442 1.386 . S
C1443 C1447 1.393 . S
C1444 H1433 0.950 . S
C1444 C1442 1.391 . S
C1444 C1445 1.400 . S
C1445 C1439 1.491 . S
C1445 C1444 1.400 . S
C1445 C1446 1.398 . S
C1446 H1434 0.950 . S
C1446 C1445 1.398 . S
C1446 C1447 1.391 . S
C1447 H1435 0.950 . S
C1447 C1443 1.393 . S
C1447 C1446 1.391 . S
H1448 C1456 0.950 . S
H1449 C1461 0.950 . S
H1450 C1458 0.950 . S
H1451 C1460 0.950 . S
H1452 C1462 0.950 . S
H1453 C1464 0.950 . S
H1454 C1466 0.950 . S
H1455 C1467 0.950 . S
C1456 H1448 0.950 . S
C1456 C1457 1.386 . S
C1456 C1458 1.391 . S
C1457 C1456 1.386 . S
C1457 C1461 1.393 . S
C1458 H1450 0.950 . S
C1458 C1456 1.391 . S
C1458 C1459 1.400 . S
C1459 C1458 1.400 . S
C1459 C1460 1.398 . S
C1459 C1465 1.491 . S
C1460 H1451 0.950 . S
C1460 C1459 1.398 . S
C1460 C1461 1.391 . S
C1461 H1449 0.950 . S
C1461 C1457 1.393 . S
C1461 C1460 1.391 . S
C1462 H1452 0.950 . S
C1462 C1463 1.386 . S
C1462 C1464 1.391 . S
C1463 C1462 1.386 . S
C1463 C1467 1.393 . S
C1464 H1453 0.950 . S
C1464 C1462 1.391 . S
C1464 C1465 1.400 . S
C1465 C1459 1.491 . S
C1465 C1464 1.400 . S
C1465 C1466 1.398 . S
C1466 H1454 0.950 . S
C1466 C1465 1.398 . S
C1466 C1467 1.391 . S
C1467 H1455 0.950 . S
C1467 C1463 1.393 . S
C1467 C1466 1.391 . S
H1468 C1476 0.950 . S
H1469 C1481 0.950 . S
H1470 C1478 0.950 . S
H1471 C1480 0.950 . S
H1472 C1482 0.950 . S
H1473 C1484 0.950 . S
H1474 C1486 0.950 . S
H1475 C1487 0.950 . S
C1476 H1468 0.950 . S
C1476 C1477 1.386 . S
C1476 C1478 1.391 . S
C1477 C1476 1.386 . S
C1477 C1481 1.393 . S
C1478 H1470 0.950 . S
C1478 C1476 1.391 . S
C1478 C1479 1.400 . S
C1479 C1478 1.400 . S
C1479 C1480 1.398 . S
C1479 C1485 1.491 . S
C1480 H1471 0.950 . S
C1480 C1479 1.398 . S
C1480 C1481 1.391 . S
C1481 H1469 0.950 . S
C1481 C1477 1.393 . S
C1481 C1480 1.391 . S
C1482 H1472 0.950 . S
C1482 C1483 1.386 . S
C1482 C1484 1.391 . S
C1483 C1482 1.386 . S
C1483 C1487 1.393 . S
C1484 H1473 0.950 . S
C1484 C1482 1.391 . S
C1484 C1485 1.400 . S
C1485 C1479 1.491 . S
C1485 C1484 1.400 . S
C1485 C1486 1.398 . S
C1486 H1474 0.950 . S
C1486 C1485 1.398 . S
C1486 C1487 1.391 . S
C1487 H1475 0.950 . S
C1487 C1483 1.393 . S
C1487 C1486 1.391 . S
H1488 C1496 0.950 . S
H1489 C1501 0.950 . S
H1490 C1498 0.950 . S
H1491 C1500 0.950 . S
H1492 C1502 0.950 . S
H1493 C1504 0.950 . S
H1494 C1506 0.950 . S
H1495 C1507 0.950 . S
C1496 H1488 0.950 . S
C1496 C1497 1.386 . S
C1496 C1498 1.391 . S
C1497 C1496 1.386 . S
C1497 C1501 1.393 . S
C1498 H1490 0.950 . S
C1498 C1496 1.391 . S
C1498 C1499 1.400 . S
C1499 C1498 1.400 . S
C1499 C1500 1.398 . S
C1499 C1505 1.491 . S
C1500 H1491 0.950 . S
C1500 C1499 1.398 . S
C1500 C1501 1.391 . S
C1501 H1489 0.950 . S
C1501 C1497 1.393 . S
C1501 C1500 1.391 . S
C1502 H1492 0.950 . S
C1502 C1503 1.386 . S
C1502 C1504 1.391 . S
C1503 C1502 1.386 . S
C1503 C1507 1.393 . S
C1504 H1493 0.950 . S
C1504 C1502 1.391 . S
C1504 C1505 1.400 . S
C1505 C1499 1.491 . S
C1505 C1504 1.400 . S
C1505 C1506 1.398 . S
C1506 H1494 0.950 . S
C1506 C1505 1.398 . S
C1506 C1507 1.391 . S
C1507 H1495 0.950 . S
C1507 C1503 1.393 . S
C1507 C1506 1.391 . S
H1508 C1516 0.950 . S
H1509 C1521 0.950 . S
H1510 C1518 0.950 . S
H1511 C1520 0.950 . S
H1512 C1522 0.950 . S
H1513 C1524 0.950 . S
H1514 C1526 0.950 . S
H1515 C1527 0.950 . S
C1516 H1508 0.950 . S
C1516 C1517 1.386 . S
C1516 C1518 1.391 . S
C1517 C1516 1.386 . S
C1517 C1521 1.393 . S
C1518 H1510 0.950 . S
C1518 C1516 1.391 . S
C1518 C1519 1.400 . S
C1519 C1518 1.400 . S
C1519 C1520 1.398 . S
C1519 C1525 1.491 . S
C1520 H1511 0.950 . S
C1520 C1519 1.398 . S
C1520 C1521 1.391 . S
C1521 H1509 0.950 . S
C1521 C1517 1.393 . S
C1521 C1520 1.391 . S
C1522 H1512 0.950 . S
C1522 C1523 1.386 . S
C1522 C1524 1.391 . S
C1523 C1522 1.386 . S
C1523 C1527 1.393 . S
C1524 H1513 0.950 . S
C1524 C1522 1.391 . S
C1524 C1525 1.400 . S
C1525 C1519 1.491 . S
C1525 C1524 1.400 . S
C1525 C1526 1.398 . S
C1526 H1514 0.950 . S
C1526 C1525 1.398 . S
C1526 C1527 1.391 . S
C1527 H1515 0.950 . S
C1527 C1523 1.393 . S
C1527 C1526 1.391 . S
H1528 C1536 0.950 . S
H1529 C1541 0.950 . S
H1530 C1538 0.950 . S
H1531 C1540 0.950 . S
H1532 C1542 0.950 . S
H1533 C1544 0.950 . S
H1534 C1546 0.950 . S
H1535 C1547 0.950 . S
C1536 H1528 0.950 . S
C1536 C1537 1.386 . S
C1536 C1538 1.391 . S
C1537 C1536 1.386 . S
C1537 C1541 1.393 . S
C1538 H1530 0.950 . S
C1538 C1536 1.391 . S
C1538 C1539 1.400 . S
C1539 C1538 1.400 . S
C1539 C1540 1.398 . S
C1539 C1545 1.491 . S
C1540 H1531 0.950 . S
C1540 C1539 1.398 . S
C1540 C1541 1.391 . S
C1541 H1529 0.950 . S
C1541 C1537 1.393 . S
C1541 C1540 1.391 . S
C1542 H1532 0.950 . S
C1542 C1543 1.386 . S
C1542 C1544 1.391 . S
C1543 C1542 1.386 . S
C1543 C1547 1.393 . S
C1544 H1533 0.950 . S
C1544 C1542 1.391 . S
C1544 C1545 1.400 . S
C1545 C1539 1.491 . S
C1545 C1544 1.400 . S
C1545 C1546 1.398 . S
C1546 H1534 0.950 . S
C1546 C1545 1.398 . S
C1546 C1547 1.391 . S
C1547 H1535 0.950 . S
C1547 C1543 1.393 . S
C1547 C1546 1.391 . S
H1548 C1556 0.950 . S
H1549 C1561 0.950 . S
H1550 C1558 0.950 . S
H1551 C1560 0.950 . S
H1552 C1562 0.950 . S
H1553 C1564 0.950 . S
H1554 C1566 0.950 . S
H1555 C1567 0.950 . S
C1556 H1548 0.950 . S
C1556 C1557 1.386 . S
C1556 C1558 1.391 . S
C1557 C1556 1.386 . S
C1557 C1561 1.393 . S
C1558 H1550 0.950 . S
C1558 C1556 1.391 . S
C1558 C1559 1.400 . S
C1559 C1558 1.400 . S
C1559 C1560 1.398 . S
C1559 C1565 1.491 . S
C1560 H1551 0.950 . S
C1560 C1559 1.398 . S
C1560 C1561 1.391 . S
C1561 H1549 0.950 . S
C1561 C1557 1.393 . S
C1561 C1560 1.391 . S
C1562 H1552 0.950 . S
C1562 C1563 1.386 . S
C1562 C1564 1.391 . S
C1563 C1562 1.386 . S
C1563 C1567 1.393 . S
C1564 H1553 0.950 . S
C1564 C1562 1.391 . S
C1564 C1565 1.400 . S
C1565 C1559 1.491 . S
C1565 C1564 1.400 . S
C1565 C1566 1.398 . S
C1566 H1554 0.950 . S
C1566 C1565 1.398 . S
C1566 C1567 1.391 . S
C1567 H1555 0.950 . S
C1567 C1563 1.393 . S
C1567 C1566 1.391 . S
H1568 C1576 0.950 . S
H1569 C1581 0.950 . S
H1570 C1578 0.950 . S
H1571 C1580 0.950 . S
H1572 C1582 0.950 . S
H1573 C1584 0.950 . S
H1574 C1586 0.950 . S
H1575 C1587 0.950 . S
C1576 H1568 0.950 . S
C1576 C1577 1.386 . S
C1576 C1578 1.391 . S
C1577 C1576 1.386 . S
C1577 C1581 1.393 . S
C1578 H1570 0.950 . S
C1578 C1576 1.391 . S
C1578 C1579 1.400 . S
C1579 C1578 1.400 . S
C1579 C1580 1.398 . S
C1579 C1585 1.491 . S
C1580 H1571 0.950 . S
C1580 C1579 1.398 . S
C1580 C1581 1.391 . S
C1581 H1569 0.950 . S
C1581 C1577 1.393 . S
C1581 C1580 1.391 . S
C1582 H1572 0.950 . S
C1582 C1583 1.386 . S
C1582 C1584 1.391 . S
C1583 C1582 1.386 . S
C1583 C1587 1.393 . S
C1584 H1573 0.950 . S
C1584 C1582 1.391 . S
C1584 C1585 1.400 . S
C1585 C1579 1.491 . S
C1585 C1584 1.400 . S
C1585 C1586 1.398 . S
C1586 H1574 0.950 . S
C1586 C1585 1.398 . S
C1586 C1587 1.391 . S
C1587 H1575 0.950 . S
C1587 C1583 1.393 . S
C1587 C1586 1.391 . S
H1588 C1596 0.950 . S
H1589 C1601 0.950 . S
H1590 C1598 0.950 . S
H1591 C1600 0.950 . S
H1592 C1602 0.950 . S
H1593 C1604 0.950 . S
H1594 C1606 0.950 . S
H1595 C1607 0.950 . S
C1596 H1588 0.950 . S
C1596 C1597 1.386 . S
C1596 C1598 1.391 . S
C1597 C1596 1.386 . S
C1597 C1601 1.393 . S
C1598 H1590 0.950 . S
C1598 C1596 1.391 . S
C1598 C1599 1.400 . S
C1599 C1598 1.400 . S
C1599 C1600 1.398 . S
C1599 C1605 1.491 . S
C1600 H1591 0.950 . S
C1600 C1599 1.398 . S
C1600 C1601 1.391 . S
C1601 H1589 0.950 . S
C1601 C1597 1.393 . S
C1601 C1600 1.391 . S
C1602 H1592 0.950 . S
C1602 C1603 1.386 . S
C1602 C1604 1.391 . S
C1603 C1602 1.386 . S
C1603 C1607 1.393 . S
C1604 H1593 0.950 . S
C1604 C1602 1.391 . S
C1604 C1605 1.400 . S
C1605 C1599 1.491 . S
C1605 C1604 1.400 . S
C1605 C1606 1.398 . S
C1606 H1594 0.950 . S
C1606 C1605 1.398 . S
C1606 C1607 1.391 . S
C1607 H1595 0.950 . S
C1607 C1603 1.393 . S
C1607 C1606 1.391 . S
H1608 C1616 0.950 . S
H1609 C1621 0.950 . S
H1610 C1618 0.950 . S
H1611 C1620 0.950 . S
H1612 C1622 0.950 . S
H1613 C1624 0.950 . S
H1614 C1626 0.950 . S
H1615 C1627 0.950 . S
C1616 H1608 0.950 . S
C1616 C1617 1.386 . S
C1616 C1618 1.391 . S
C1617 C1616 1.386 . S
C1617 C1621 1.393 . S
C1618 H1610 0.950 . S
C1618 C1616 1.391 . S
C1618 C1619 1.400 . S
C1619 C1618 1.400 . S
C1619 C1620 1.398 . S
C1619 C1625 1.491 . S
C1620 H1611 0.950 . S
C1620 C1619 1.398 . S
C1620 C1621 1.391 . S
C1621 H1609 0.950 . S
C1621 C1617 1.393 . S
C1621 C1620 1.391 . S
C1622 H1612 0.950 . S
C1622 C1623 1.386 . S
C1622 C1624 1.391 . S
C1623 C1622 1.386 . S
C1623 C1627 1.393 . S
C1624 H1613 0.950 . S
C1624 C1622 1.391 . S
C1624 C1625 1.400 . S
C1625 C1619 1.491 . S
C1625 C1624 1.400 . S
C1625 C1626 1.398 . S
C1626 H1614 0.950 . S
C1626 C1625 1.398 . S
C1626 C1627 1.391 . S
C1627 H1615 0.950 . S
C1627 C1623 1.393 . S
C1627 C1626 1.391 . S
H1628 C1636 0.950 . S
H1629 C1641 0.950 . S
H1630 C1638 0.950 . S
H1631 C1640 0.950 . S
H1632 C1642 0.950 . S
H1633 C1644 0.950 . S
H1634 C1646 0.950 . S
H1635 C1647 0.950 . S
C1636 H1628 0.950 . S
C1636 C1637 1.386 . S
C1636 C1638 1.391 . S
C1637 C1636 1.386 . S
C1637 C1641 1.393 . S
C1638 H1630 0.950 . S
C1638 C1636 1.391 . S
C1638 C1639 1.400 . S
C1639 C1638 1.400 . S
C1639 C1640 1.398 . S
C1639 C1645 1.491 . S
C1640 H1631 0.950 . S
C1640 C1639 1.398 . S
C1640 C1641 1.391 . S
C1641 H1629 0.950 . S
C1641 C1637 1.393 . S
C1641 C1640 1.391 . S
C1642 H1632 0.950 . S
C1642 C1643 1.386 . S
C1642 C1644 1.391 . S
C1643 C1642 1.386 . S
C1643 C1647 1.393 . S
C1644 H1633 0.950 . S
C1644 C1642 1.391 . S
C1644 C1645 1.400 . S
C1645 C1639 1.491 . S
C1645 C1644 1.400 . S
C1645 C1646 1.398 . S
C1646 H1634 0.950 . S
C1646 C1645 1.398 . S
C1646 C1647 1.391 . S
C1647 H1635 0.950 . S
C1647 C1643 1.393 . S
C1647 C1646 1.391 . S
H1648 C1656 0.950 . S
H1649 C1661 0.950 . S
H1650 C1658 0.950 . S
H1651 C1660 0.950 . S
H1652 C1662 0.950 . S
H1653 C1664 0.950 . S
H1654 C1666 0.950 . S
H1655 C1667 0.950 . S
C1656 H1648 0.950 . S
C1656 C1657 1.386 . S
C1656 C1658 1.391 . S
C1657 C1656 1.386 . S
C1657 C1661 1.393 . S
C1658 H1650 0.950 . S
C1658 C1656 1.391 . S
C1658 C1659 1.400 . S
C1659 C1658 1.400 . S
C1659 C1660 1.398 . S
C1659 C1665 1.491 . S
C1660 H1651 0.950 . S
C1660 C1659 1.398 . S
C1660 C1661 1.391 . S
C1661 H1649 0.950 . S
C1661 C1657 1.393 . S
C1661 C1660 1.391 . S
C1662 H1652 0.950 . S
C1662 C1663 1.386 . S
C1662 C1664 1.391 . S
C1663 C1662 1.386 . S
C1663 C1667 1.393 . S
C1664 H1653 0.950 . S
C1664 C1662 1.391 . S
C1664 C1665 1.400 . S
C1665 C1659 1.491 . S
C1665 C1664 1.400 . S
C1665 C1666 1.398 . S
C1666 H1654 0.950 . S
C1666 C1665 1.398 . S
C1666 C1667 1.391 . S
C1667 H1655 0.950 . S
C1667 C1663 1.393 . S
C1667 C1666 1.391 . S
H1668 C1676 0.950 . S
H1669 C1681 0.950 . S
H1670 C1678 0.950 . S
H1671 C1680 0.950 . S
H1672 C1682 0.950 . S
H1673 C1684 0.950 . S
H1674 C1686 0.950 . S
H1675 C1687 0.950 . S
C1676 H1668 0.950 . S
C1676 C1677 1.386 . S
C1676 C1678 1.391 . S
C1677 C1676 1.386 . S
C1677 C1681 1.393 . S
C1678 H1670 0.950 . S
C1678 C1676 1.391 . S
C1678 C1679 1.400 . S
C1679 C1678 1.400 . S
C1679 C1680 1.398 . S
C1679 C1685 1.491 . S
C1680 H1671 0.950 . S
C1680 C1679 1.398 . S
C1680 C1681 1.391 . S
C1681 H1669 0.950 . S
C1681 C1677 1.393 . S
C1681 C1680 1.391 . S
C1682 H1672 0.950 . S
C1682 C1683 1.386 . S
C1682 C1684 1.391 . S
C1683 C1682 1.386 . S
C1683 C1687 1.393 . S
C1684 H1673 0.950 . S
C1684 C1682 1.391 . S
C1684 C1685 1.400 . S
C1685 C1679 1.491 . S
C1685 C1684 1.400 . S
C1685 C1686 1.398 . S
C1686 H1674 0.950 . S
C1686 C1685 1.398 . S
C1686 C1687 1.391 . S
C1687 H1675 0.950 . S
C1687 C1683 1.393 . S
C1687 C1686 1.391 . S
H1688 C1696 0.950 . S
H1689 C1701 0.950 . S
H1690 C1698 0.950 . S
H1691 C1700 0.950 . S
H1692 C1702 0.950 . S
H1693 C1704 0.950 . S
H1694 C1706 0.950 . S
H1695 C1707 0.950 . S
C1696 H1688 0.950 . S
C1696 C1697 1.386 . S
C1696 C1698 1.391 . S
C1697 C1696 1.386 . S
C1697 C1701 1.393 . S
C1698 H1690 0.950 . S
C1698 C1696 1.391 . S
C1698 C1699 1.400 . S
C1699 C1698 1.400 . S
C1699 C1700 1.398 . S
C1699 C1705 1.491 . S
C1700 H1691 0.950 . S
C1700 C1699 1.398 . S
C1700 C1701 1.391 . S
C1701 H1689 0.950 . S
C1701 C1697 1.393 . S
C1701 C1700 1.391 . S
C1702 H1692 0.950 . S
C1702 C1703 1.386 . S
C1702 C1704 1.391 . S
C1703 C1702 1.386 . S
C1703 C1707 1.393 . S
C1704 H1693 0.950 . S
C1704 C1702 1.391 . S
C1704 C1705 1.400 . S
C1705 C1699 1.491 . S
C1705 C1704 1.400 . S
C1705 C1706 1.398 . S
C1706 H1694 0.950 . S
C1706 C1705 1.398 . S
C1706 C1707 1.391 . S
C1707 H1695 0.950 . S
C1707 C1703 1.393 . S
C1707 C1706 1.391 . S
H1708 C1716 0.950 . S
H1709 C1721 0.950 . S
H1710 C1718 0.950 . S
H1711 C1720 0.950 . S
H1712 C1722 0.950 . S
H1713 C1724 0.950 . S
H1714 C1726 0.950 . S
H1715 C1727 0.950 . S
C1716 H1708 0.950 . S
C1716 C1717 1.386 . S
C1716 C1718 1.391 . S
C1717 C1716 1.386 . S
C1717 C1721 1.393 . S
C1718 H1710 0.950 . S
C1718 C1716 1.391 . S
C1718 C1719 1.400 . S
C1719 C1718 1.400 . S
C1719 C1720 1.398 . S
C1719 C1725 1.491 . S
C1720 H1711 0.950 . S
C1720 C1719 1.398 . S
C1720 C1721 1.391 . S
C1721 H1709 0.950 . S
C1721 C1717 1.393 . S
C1721 C1720 1.391 . S
C1722 H1712 0.950 . S
C1722 C1723 1.386 . S
C1722 C1724 1.391 . S
C1723 C1722 1.386 . S
C1723 C1727 1.393 . S
C1724 H1713 0.950 . S
C1724 C1722 1.391 . S
C1724 C1725 1.400 . S
C1725 C1719 1.491 . S
C1725 C1724 1.400 . S
C1725 C1726 1.398 . S
C1726 H1714 0.950 . S
C1726 C1725 1.398 . S
C1726 C1727 1.391 . S
C1727 H1715 0.950 . S
C1727 C1723 1.393 . S
C1727 C1726 1.391 . S
H1728 C1736 0.950 . S
H1729 C1741 0.950 . S
H1730 C1738 0.950 . S
H1731 C1740 0.950 . S
H1732 C1742 0.950 . S
H1733 C1744 0.950 . S
H1734 C1746 0.950 . S
H1735 C1747 0.950 . S
C1736 H1728 0.950 . S
C1736 C1737 1.386 . S
C1736 C1738 1.391 . S
C1737 C1736 1.386 . S
C1737 C1741 1.393 . S
C1738 H1730 0.950 . S
C1738 C1736 1.391 . S
C1738 C1739 1.400 . S
C1739 C1738 1.400 . S
C1739 C1740 1.398 . S
C1739 C1745 1.491 . S
C1740 H1731 0.950 . S
C1740 C1739 1.398 . S
C1740 C1741 1.391 . S
C1741 H1729 0.950 . S
C1741 C1737 1.393 . S
C1741 C1740 1.391 . S
C1742 H1732 0.950 . S
C1742 C1743 1.386 . S
C1742 C1744 1.391 . S
C1743 C1742 1.386 . S
C1743 C1747 1.393 . S
C1744 H1733 0.950 . S
C1744 C1742 1.391 . S
C1744 C1745 1.400 . S
C1745 C1739 1.491 . S
C1745 C1744 1.400 . S
C1745 C1746 1.398 . S
C1746 H1734 0.950 . S
C1746 C1745 1.398 . S
C1746 C1747 1.391 . S
C1747 H1735 0.950 . S
C1747 C1743 1.393 . S
C1747 C1746 1.391 . S
H1748 C1756 0.950 . S
H1749 C1761 0.950 . S
H1750 C1758 0.950 1_545 S
H1751 C1760 0.950 . S
H1752 C1762 0.950 . S
H1753 C1764 0.950 1_565 S
H1754 C1766 0.950 . S
H1755 C1767 0.950 . S
C1756 H1748 0.950 . S
C1756 C1757 1.386 . S
C1756 C1758 1.391 . S
C1757 C1756 1.386 . S
C1757 C1761 1.393 . S
C1758 H1750 0.950 1_565 S
C1758 C1756 1.391 . S
C1758 C1759 1.400 . S
C1759 C1758 1.400 . S
C1759 C1760 1.398 . S
C1759 C1765 1.491 1_565 S
C1760 H1751 0.950 . S
C1760 C1759 1.398 . S
C1760 C1761 1.391 . S
C1761 H1749 0.950 . S
C1761 C1757 1.393 . S
C1761 C1760 1.391 . S
C1762 H1752 0.950 . S
C1762 C1763 1.386 . S
C1762 C1764 1.391 . S
C1763 C1762 1.386 . S
C1763 C1767 1.393 . S
C1764 H1753 0.950 1_545 S
C1764 C1762 1.391 . S
C1764 C1765 1.400 . S
C1765 C1759 1.491 1_545 S
C1765 C1764 1.400 . S
C1765 C1766 1.398 . S
C1766 H1754 0.950 . S
C1766 C1765 1.398 . S
C1766 C1767 1.391 . S
C1767 H1755 0.950 . S
C1767 C1763 1.393 . S
C1767 C1766 1.391 . S
H1768 C1776 0.950 . S
H1769 C1781 0.950 . S
H1770 C1778 0.950 1_556 S
H1771 C1780 0.950 . S
H1772 C1782 0.950 . S
H1773 C1784 0.950 1_554 S
H1774 C1786 0.950 . S
H1775 C1787 0.950 . S
C1776 H1768 0.950 . S
C1776 C1777 1.386 . S
C1776 C1778 1.391 . S
C1777 C1776 1.386 . S
C1777 C1781 1.393 . S
C1778 H1770 0.950 1_554 S
C1778 C1776 1.391 . S
C1778 C1779 1.400 . S
C1779 C1778 1.400 . S
C1779 C1780 1.398 . S
C1779 C1785 1.491 1_554 S
C1780 H1771 0.950 . S
C1780 C1779 1.398 . S
C1780 C1781 1.391 . S
C1781 H1769 0.950 . S
C1781 C1777 1.393 . S
C1781 C1780 1.391 . S
C1782 H1772 0.950 . S
C1782 C1783 1.386 . S
C1782 C1784 1.391 . S
C1783 C1782 1.386 . S
C1783 C1787 1.393 . S
C1784 H1773 0.950 1_556 S
C1784 C1782 1.391 . S
C1784 C1785 1.400 . S
C1785 C1779 1.491 1_556 S
C1785 C1784 1.400 . S
C1785 C1786 1.398 . S
C1786 H1774 0.950 . S
C1786 C1785 1.398 . S
C1786 C1787 1.391 . S
C1787 H1775 0.950 . S
C1787 C1783 1.393 . S
C1787 C1786 1.391 . S
H1788 C1796 0.950 . S
H1789 C1801 0.950 . S
H1790 C1798 0.950 . S
H1791 C1800 0.950 . S
H1792 C1802 0.950 . S
H1793 C1804 0.950 . S
H1794 C1806 0.950 . S
H1795 C1807 0.950 . S
C1796 H1788 0.950 . S
C1796 C1797 1.386 . S
C1796 C1798 1.391 . S
C1797 C1796 1.386 . S
C1797 C1801 1.393 . S
C1798 H1790 0.950 . S
C1798 C1796 1.391 . S
C1798 C1799 1.400 . S
C1799 C1798 1.400 . S
C1799 C1800 1.398 . S
C1799 C1805 1.491 1_565 S
C1800 H1791 0.950 . S
C1800 C1799 1.398 . S
C1800 C1801 1.391 . S
C1801 H1789 0.950 . S
C1801 C1797 1.393 . S
C1801 C1800 1.391 . S
C1802 H1792 0.950 . S
C1802 C1803 1.386 . S
C1802 C1804 1.391 . S
C1803 C1802 1.386 . S
C1803 C1807 1.393 . S
C1804 H1793 0.950 . S
C1804 C1802 1.391 . S
C1804 C1805 1.400 . S
C1805 C1799 1.491 1_545 S
C1805 C1804 1.400 . S
C1805 C1806 1.398 . S
C1806 H1794 0.950 . S
C1806 C1805 1.398 . S
C1806 C1807 1.391 . S
C1807 H1795 0.950 . S
C1807 C1803 1.393 . S
C1807 C1806 1.391 . S
H1808 C1816 0.950 . S
H1809 C1821 0.950 . S
H1810 C1818 0.950 . S
H1811 C1820 0.950 . S
H1812 C1822 0.950 . S
H1813 C1824 0.950 . S
H1814 C1826 0.950 . S
H1815 C1827 0.950 . S
C1816 H1808 0.950 . S
C1816 C1817 1.386 . S
C1816 C1818 1.391 . S
C1817 C1816 1.386 . S
C1817 C1821 1.393 . S
C1818 H1810 0.950 . S
C1818 C1816 1.391 . S
C1818 C1819 1.400 . S
C1819 C1818 1.400 . S
C1819 C1820 1.398 . S
C1819 C1825 1.491 . S
C1820 H1811 0.950 . S
C1820 C1819 1.398 . S
C1820 C1821 1.391 . S
C1821 H1809 0.950 . S
C1821 C1817 1.393 . S
C1821 C1820 1.391 . S
C1822 H1812 0.950 . S
C1822 C1823 1.386 . S
C1822 C1824 1.391 . S
C1823 C1822 1.386 . S
C1823 C1827 1.393 . S
C1824 H1813 0.950 . S
C1824 C1822 1.391 . S
C1824 C1825 1.400 . S
C1825 C1819 1.491 . S
C1825 C1824 1.400 . S
C1825 C1826 1.398 . S
C1826 H1814 0.950 . S
C1826 C1825 1.398 . S
C1826 C1827 1.391 . S
C1827 H1815 0.950 . S
C1827 C1823 1.393 . S
C1827 C1826 1.391 . S
H1828 C1836 0.950 . S
H1829 C1841 0.950 . S
H1830 C1838 0.950 . S
H1831 C1840 0.950 1_545 S
H1832 C1842 0.950 . S
H1833 C1844 0.950 . S
H1834 C1846 0.950 1_565 S
H1835 C1847 0.950 . S
C1836 H1828 0.950 . S
C1836 C1837 1.386 . S
C1836 C1838 1.391 . S
C1837 C1836 1.386 . S
C1837 C1841 1.393 . S
C1838 H1830 0.950 . S
C1838 C1836 1.391 . S
C1838 C1839 1.400 . S
C1839 C1838 1.400 . S
C1839 C1840 1.398 . S
C1839 C1845 1.491 1_565 S
C1840 H1831 0.950 1_565 S
C1840 C1839 1.398 . S
C1840 C1841 1.391 . S
C1841 H1829 0.950 . S
C1841 C1837 1.393 . S
C1841 C1840 1.391 . S
C1842 H1832 0.950 . S
C1842 C1843 1.386 . S
C1842 C1844 1.391 . S
C1843 C1842 1.386 . S
C1843 C1847 1.393 . S
C1844 H1833 0.950 . S
C1844 C1842 1.391 . S
C1844 C1845 1.400 . S
C1845 C1839 1.491 1_545 S
C1845 C1844 1.400 . S
C1845 C1846 1.398 . S
C1846 H1834 0.950 1_545 S
C1846 C1845 1.398 . S
C1846 C1847 1.391 . S
C1847 H1835 0.950 . S
C1847 C1843 1.393 . S
C1847 C1846 1.391 . S
H1848 C1856 0.950 . S
H1849 C1861 0.950 . S
H1850 C1858 0.950 . S
H1851 C1860 0.961 . S
H1852 C1862 0.950 . S
H1853 C1864 0.950 . S
H1854 C1866 0.961 . S
H1855 C1867 0.950 . S
C1856 H1848 0.950 . S
C1856 C1857 1.386 . S
C1856 C1858 1.391 . S
C1857 C1856 1.386 . S
C1857 C1861 1.393 . S
C1858 H1850 0.950 . S
C1858 C1856 1.391 . S
C1858 C1859 1.400 . S
C1859 C1858 1.400 . S
C1859 C1860 1.394 1_556 S
C1859 C1865 1.491 1_556 S
C1860 H1851 0.961 . S
C1860 C1859 1.394 1_554 S
C1860 C1861 1.384 1_554 S
C1861 H1849 0.950 . S
C1861 C1857 1.393 . S
C1861 C1860 1.384 1_556 S
C1862 H1852 0.950 . S
C1862 C1863 1.386 . S
C1862 C1864 1.391 . S
C1863 C1862 1.386 . S
C1863 C1867 1.393 . S
C1864 H1853 0.950 . S
C1864 C1862 1.391 . S
C1864 C1865 1.400 . S
C1865 C1859 1.491 1_554 S
C1865 C1864 1.400 . S
C1865 C1866 1.394 1_554 S
C1866 H1854 0.961 . S
C1866 C1865 1.394 1_556 S
C1866 C1867 1.384 1_556 S
C1867 H1855 0.950 . S
C1867 C1863 1.393 . S
C1867 C1866 1.384 1_554 S
H1868 C1876 0.950 . S
H1869 C1881 0.950 . S
H1870 C1878 0.950 . S
H1871 C1880 0.950 . S
H1872 C1882 0.950 . S
H1873 C1884 0.950 . S
H1874 C1886 0.950 . S
H1875 C1887 0.950 . S
C1876 H1868 0.950 . S
C1876 C1877 1.386 . S
C1876 C1878 1.391 . S
C1877 C1876 1.386 . S
C1877 C1881 1.393 . S
C1878 H1870 0.950 . S
C1878 C1876 1.391 . S
C1878 C1879 1.400 . S
C1879 C1878 1.400 . S
C1879 C1880 1.398 . S
C1879 C1885 1.491 1_545 S
C1880 H1871 0.950 . S
C1880 C1879 1.398 . S
C1880 C1881 1.391 . S
C1881 H1869 0.950 . S
C1881 C1877 1.393 . S
C1881 C1880 1.391 . S
C1882 H1872 0.950 . S
C1882 C1883 1.386 . S
C1882 C1884 1.391 . S
C1883 C1882 1.386 . S
C1883 C1887 1.393 . S
C1884 H1873 0.950 . S
C1884 C1882 1.391 . S
C1884 C1885 1.400 . S
C1885 C1879 1.491 1_565 S
C1885 C1884 1.400 . S
C1885 C1886 1.398 . S
C1886 H1874 0.950 . S
C1886 C1885 1.398 . S
C1886 C1887 1.391 . S
C1887 H1875 0.950 . S
C1887 C1883 1.393 . S
C1887 C1886 1.391 . S
H1888 C1896 0.950 . S
H1889 C1901 0.950 . S
H1890 C1898 0.950 . S
H1891 C1900 0.950 1_554 S
H1892 C1902 0.950 . S
H1893 C1904 0.950 . S
H1894 C1906 0.950 1_556 S
H1895 C1907 0.950 . S
C1896 H1888 0.950 . S
C1896 C1897 1.386 . S
C1896 C1898 1.391 . S
C1897 C1896 1.386 . S
C1897 C1901 1.393 . S
C1898 H1890 0.950 . S
C1898 C1896 1.391 . S
C1898 C1899 1.400 . S
C1899 C1898 1.400 . S
C1899 C1900 1.398 . S
C1899 C1905 1.491 1_556 S
C1900 H1891 0.950 1_556 S
C1900 C1899 1.398 . S
C1900 C1901 1.391 . S
C1901 H1889 0.950 . S
C1901 C1897 1.393 . S
C1901 C1900 1.391 . S
C1902 H1892 0.950 . S
C1902 C1903 1.386 . S
C1902 C1904 1.391 . S
C1903 C1902 1.386 . S
C1903 C1907 1.393 . S
C1904 H1893 0.950 . S
C1904 C1902 1.391 . S
C1904 C1905 1.400 . S
C1905 C1899 1.491 1_554 S
C1905 C1904 1.400 . S
C1905 C1906 1.398 . S
C1906 H1894 0.950 1_554 S
C1906 C1905 1.398 . S
C1906 C1907 1.391 . S
C1907 H1895 0.950 . S
C1907 C1903 1.393 . S
C1907 C1906 1.391 . S
H1908 C1916 0.950 . S
H1909 C1921 0.950 . S
H1910 C1918 0.950 . S
H1911 C1920 0.950 . S
H1912 C1922 0.950 . S
H1913 C1924 0.950 . S
H1914 C1926 0.950 . S
H1915 C1927 0.950 . S
C1916 H1908 0.950 . S
C1916 C1917 1.386 . S
C1916 C1918 1.391 . S
C1917 C1916 1.386 . S
C1917 C1921 1.393 . S
C1918 H1910 0.950 . S
C1918 C1916 1.391 . S
C1918 C1919 1.400 . S
C1919 C1918 1.400 . S
C1919 C1920 1.398 . S
C1919 C1925 1.491 . S
C1920 H1911 0.950 . S
C1920 C1919 1.398 . S
C1920 C1921 1.391 . S
C1921 H1909 0.950 . S
C1921 C1917 1.393 . S
C1921 C1920 1.391 . S
C1922 H1912 0.950 . S
C1922 C1923 1.386 . S
C1922 C1924 1.391 . S
C1923 C1922 1.386 . S
C1923 C1927 1.393 . S
C1924 H1913 0.950 . S
C1924 C1922 1.391 . S
C1924 C1925 1.400 . S
C1925 C1919 1.491 . S
C1925 C1924 1.400 . S
C1925 C1926 1.398 . S
C1926 H1914 0.950 . S
C1926 C1925 1.398 . S
C1926 C1927 1.391 . S
C1927 H1915 0.950 . S
C1927 C1923 1.393 . S
C1927 C1926 1.391 . S
H1928 C1936 0.950 . S
H1929 C1941 0.950 . S
H1930 C1938 0.950 . S
H1931 C1940 0.950 . S
H1932 C1942 0.950 . S
H1933 C1944 0.950 . S
H1934 C1946 0.950 . S
H1935 C1947 0.950 . S
C1936 H1928 0.950 . S
C1936 C1937 1.386 . S
C1936 C1938 1.391 . S
C1937 C1936 1.386 . S
C1937 C1941 1.393 . S
C1938 H1930 0.950 . S
C1938 C1936 1.391 . S
C1938 C1939 1.400 . S
C1939 C1938 1.400 . S
C1939 C1940 1.398 . S
C1939 C1945 1.491 . S
C1940 H1931 0.950 . S
C1940 C1939 1.398 . S
C1940 C1941 1.391 . S
C1941 H1929 0.950 . S
C1941 C1937 1.393 . S
C1941 C1940 1.391 . S
C1942 H1932 0.950 . S
C1942 C1943 1.386 . S
C1942 C1944 1.391 . S
C1943 C1942 1.386 . S
C1943 C1947 1.393 . S
C1944 H1933 0.950 . S
C1944 C1942 1.391 . S
C1944 C1945 1.400 . S
C1945 C1939 1.491 . S
C1945 C1944 1.400 . S
C1945 C1946 1.398 . S
C1946 H1934 0.950 . S
C1946 C1945 1.398 . S
C1946 C1947 1.391 . S
C1947 H1935 0.950 . S
C1947 C1943 1.393 . S
C1947 C1946 1.391 . S
H1948 C1956 0.950 . S
H1949 C1961 0.950 . S
H1950 C1958 0.950 . S
H1951 C1960 0.950 . S
H1952 C1962 0.950 . S
H1953 C1964 0.950 . S
H1954 C1966 0.950 . S
H1955 C1967 0.950 . S
C1956 H1948 0.950 . S
C1956 C1957 1.386 . S
C1956 C1958 1.391 . S
C1957 C1956 1.386 . S
C1957 C1961 1.393 . S
C1958 H1950 0.950 . S
C1958 C1956 1.391 . S
C1958 C1959 1.400 . S
C1959 C1958 1.400 . S
C1959 C1960 1.398 . S
C1959 C1965 1.491 . S
C1960 H1951 0.950 . S
C1960 C1959 1.398 . S
C1960 C1961 1.391 . S
C1961 H1949 0.950 . S
C1961 C1957 1.393 . S
C1961 C1960 1.391 . S
C1962 H1952 0.950 . S
C1962 C1963 1.386 . S
C1962 C1964 1.391 . S
C1963 C1962 1.386 . S
C1963 C1967 1.393 . S
C1964 H1953 0.950 . S
C1964 C1962 1.391 . S
C1964 C1965 1.400 . S
C1965 C1959 1.491 . S
C1965 C1964 1.400 . S
C1965 C1966 1.398 . S
C1966 H1954 0.950 . S
C1966 C1965 1.398 . S
C1966 C1967 1.391 . S
C1967 H1955 0.950 . S
C1967 C1963 1.393 . S
C1967 C1966 1.391 . S
H1968 C1976 0.950 . S
H1969 C1981 0.950 . S
H1970 C1978 0.950 . S
H1971 C1980 0.950 . S
H1972 C1982 0.950 . S
H1973 C1984 0.950 . S
H1974 C1986 0.950 . S
H1975 C1987 0.950 . S
C1976 H1968 0.950 . S
C1976 C1977 1.386 . S
C1976 C1978 1.391 . S
C1977 C1976 1.386 . S
C1977 C1981 1.393 . S
C1978 H1970 0.950 . S
C1978 C1976 1.391 . S
C1978 C1979 1.400 . S
C1979 C1978 1.400 . S
C1979 C1980 1.398 1_556 S
C1979 C1985 1.491 1_556 S
C1980 H1971 0.950 . S
C1980 C1979 1.398 1_554 S
C1980 C1981 1.391 1_554 S
C1981 H1969 0.950 . S
C1981 C1977 1.393 . S
C1981 C1980 1.391 1_556 S
C1982 H1972 0.950 . S
C1982 C1983 1.386 . S
C1982 C1984 1.391 . S
C1983 C1982 1.386 . S
C1983 C1987 1.393 . S
C1984 H1973 0.950 . S
C1984 C1982 1.391 . S
C1984 C1985 1.400 . S
C1985 C1979 1.491 1_554 S
C1985 C1984 1.400 . S
C1985 C1986 1.398 1_554 S
C1986 H1974 0.950 . S
C1986 C1985 1.398 1_556 S
C1986 C1987 1.391 1_556 S
C1987 H1975 0.950 . S
C1987 C1983 1.393 . S
C1987 C1986 1.391 1_554 S
H1988 C1996 0.950 . S
H1989 C2001 0.950 . S
H1990 C1998 0.950 . S
H1991 C2000 0.950 . S
H1992 C2002 0.950 . S
H1993 C2004 0.950 . S
H1994 C2006 0.950 . S
H1995 C2007 0.950 . S
C1996 H1988 0.950 . S
C1996 C1997 1.386 . S
C1996 C1998 1.391 . S
C1997 C1996 1.386 . S
C1997 C2001 1.393 . S
C1998 H1990 0.950 . S
C1998 C1996 1.391 . S
C1998 C1999 1.400 . S
C1999 C1998 1.400 . S
C1999 C2000 1.398 . S
C1999 C2005 1.491 . S
C2000 H1991 0.950 . S
C2000 C1999 1.398 . S
C2000 C2001 1.391 . S
C2001 H1989 0.950 . S
C2001 C1997 1.393 . S
C2001 C2000 1.391 . S
C2002 H1992 0.950 . S
C2002 C2003 1.386 . S
C2002 C2004 1.391 . S
C2003 C2002 1.386 . S
C2003 C2007 1.393 . S
C2004 H1993 0.950 . S
C2004 C2002 1.391 . S
C2004 C2005 1.400 . S
C2005 C1999 1.491 . S
C2005 C2004 1.400 . S
C2005 C2006 1.398 . S
C2006 H1994 0.950 . S
C2006 C2005 1.398 . S
C2006 C2007 1.391 . S
C2007 H1995 0.950 . S
C2007 C2003 1.393 . S
C2007 C2006 1.391 . S
H2008 C2016 0.950 . S
H2009 C2021 0.950 . S
H2010 C2018 0.950 . S
H2011 C2020 0.950 . S
H2012 C2022 0.950 . S
H2013 C2024 0.950 . S
H2014 C2026 0.950 . S
H2015 C2027 0.950 . S
C2016 H2008 0.950 . S
C2016 C2017 1.386 . S
C2016 C2018 1.391 . S
C2017 C2016 1.386 . S
C2017 C2021 1.393 . S
C2018 H2010 0.950 . S
C2018 C2016 1.391 . S
C2018 C2019 1.400 . S
C2019 C2018 1.400 . S
C2019 C2020 1.398 . S
C2019 C2025 1.491 . S
C2020 H2011 0.950 . S
C2020 C2019 1.398 . S
C2020 C2021 1.391 . S
C2021 H2009 0.950 . S
C2021 C2017 1.393 . S
C2021 C2020 1.391 . S
C2022 H2012 0.950 . S
C2022 C2023 1.386 . S
C2022 C2024 1.391 . S
C2023 C2022 1.386 . S
C2023 C2027 1.393 . S
C2024 H2013 0.950 . S
C2024 C2022 1.391 . S
C2024 C2025 1.400 . S
C2025 C2019 1.491 . S
C2025 C2024 1.400 . S
C2025 C2026 1.398 . S
C2026 H2014 0.950 . S
C2026 C2025 1.398 . S
C2026 C2027 1.391 . S
C2027 H2015 0.950 . S
C2027 C2023 1.393 . S
C2027 C2026 1.391 . S
H2028 C2036 0.950 . S
H2029 C2041 0.950 . S
H2030 C2038 0.950 . S
H2031 C2040 0.950 . S
H2032 C2042 0.950 . S
H2033 C2044 0.950 . S
H2034 C2046 0.950 . S
H2035 C2047 0.950 . S
C2036 H2028 0.950 . S
C2036 C2037 1.386 . S
C2036 C2038 1.391 . S
C2037 C2036 1.386 . S
C2037 C2041 1.393 . S
C2038 H2030 0.950 . S
C2038 C2036 1.391 . S
C2038 C2039 1.400 . S
C2039 C2038 1.400 . S
C2039 C2040 1.398 . S
C2039 C2045 1.491 . S
C2040 H2031 0.950 . S
C2040 C2039 1.398 . S
C2040 C2041 1.391 . S
C2041 H2029 0.950 . S
C2041 C2037 1.393 . S
C2041 C2040 1.391 . S
C2042 H2032 0.950 . S
C2042 C2043 1.386 . S
C2042 C2044 1.391 . S
C2043 C2042 1.386 . S
C2043 C2047 1.393 . S
C2044 H2033 0.950 . S
C2044 C2042 1.391 . S
C2044 C2045 1.400 . S
C2045 C2039 1.491 . S
C2045 C2044 1.400 . S
C2045 C2046 1.398 . S
C2046 H2034 0.950 . S
C2046 C2045 1.398 . S
C2046 C2047 1.391 . S
C2047 H2035 0.950 . S
C2047 C2043 1.393 . S
C2047 C2046 1.391 . S
H2048 C2056 0.950 . S
H2049 C2061 0.950 . S
H2050 C2058 0.950 . S
H2051 C2060 0.950 . S
H2052 C2062 0.950 . S
H2053 C2064 0.950 . S
H2054 C2066 0.950 . S
H2055 C2067 0.950 . S
C2056 H2048 0.950 . S
C2056 C2057 1.386 . S
C2056 C2058 1.391 . S
C2057 C2056 1.386 . S
C2057 C2061 1.393 . S
C2058 H2050 0.950 . S
C2058 C2056 1.391 . S
C2058 C2059 1.400 . S
C2059 C2058 1.400 . S
C2059 C2060 1.398 . S
C2059 C2065 1.491 . S
C2060 H2051 0.950 . S
C2060 C2059 1.398 . S
C2060 C2061 1.391 . S
C2061 H2049 0.950 . S
C2061 C2057 1.393 . S
C2061 C2060 1.391 . S
C2062 H2052 0.950 . S
C2062 C2063 1.386 . S
C2062 C2064 1.391 . S
C2063 C2062 1.386 . S
C2063 C2067 1.393 . S
C2064 H2053 0.950 . S
C2064 C2062 1.391 . S
C2064 C2065 1.400 . S
C2065 C2059 1.491 . S
C2065 C2064 1.400 . S
C2065 C2066 1.398 . S
C2066 H2054 0.950 . S
C2066 C2065 1.398 . S
C2066 C2067 1.391 . S
C2067 H2055 0.950 . S
C2067 C2063 1.393 . S
C2067 C2066 1.391 . S
H2068 C2076 0.950 . S
H2069 C2081 0.950 . S
H2070 C2078 0.950 . S
H2071 C2080 0.950 . S
H2072 C2082 0.950 . S
H2073 C2084 0.950 . S
H2074 C2086 0.950 . S
H2075 C2087 0.950 . S
C2076 H2068 0.950 . S
C2076 C2077 1.386 . S
C2076 C2078 1.391 . S
C2077 C2076 1.386 . S
C2077 C2081 1.393 . S
C2078 H2070 0.950 . S
C2078 C2076 1.391 . S
C2078 C2079 1.400 . S
C2079 C2078 1.400 . S
C2079 C2080 1.398 . S
C2079 C2085 1.491 1_655 S
C2080 H2071 0.950 . S
C2080 C2079 1.398 . S
C2080 C2081 1.391 . S
C2081 H2069 0.950 . S
C2081 C2077 1.393 . S
C2081 C2080 1.391 . S
C2082 H2072 0.950 . S
C2082 C2083 1.386 . S
C2082 C2084 1.391 . S
C2083 C2082 1.386 . S
C2083 C2087 1.393 . S
C2084 H2073 0.950 . S
C2084 C2082 1.391 . S
C2084 C2085 1.400 . S
C2085 C2079 1.491 1_455 S
C2085 C2084 1.400 . S
C2085 C2086 1.398 . S
C2086 H2074 0.950 . S
C2086 C2085 1.398 . S
C2086 C2087 1.391 . S
C2087 H2075 0.950 . S
C2087 C2083 1.393 . S
C2087 C2086 1.391 . S
H2088 C2096 0.950 . S
H2089 C2101 0.950 . S
H2090 C2098 0.950 . S
H2091 C2100 0.950 . S
H2092 C2102 0.950 . S
H2093 C2104 0.950 . S
H2094 C2106 0.950 . S
H2095 C2107 0.950 . S
C2096 H2088 0.950 . S
C2096 C2097 1.386 . S
C2096 C2098 1.391 . S
C2097 C2096 1.386 . S
C2097 C2101 1.393 . S
C2098 H2090 0.950 . S
C2098 C2096 1.391 . S
C2098 C2099 1.400 . S
C2099 C2098 1.400 . S
C2099 C2100 1.398 . S
C2099 C2105 1.491 . S
C2100 H2091 0.950 . S
C2100 C2099 1.398 . S
C2100 C2101 1.391 . S
C2101 H2089 0.950 . S
C2101 C2097 1.393 . S
C2101 C2100 1.391 . S
C2102 H2092 0.950 . S
C2102 C2103 1.386 . S
C2102 C2104 1.391 . S
C2103 C2102 1.386 . S
C2103 C2107 1.393 . S
C2104 H2093 0.950 . S
C2104 C2102 1.391 . S
C2104 C2105 1.400 . S
C2105 C2099 1.491 . S
C2105 C2104 1.400 . S
C2105 C2106 1.398 . S
C2106 H2094 0.950 . S
C2106 C2105 1.398 . S
C2106 C2107 1.391 . S
C2107 H2095 0.950 . S
C2107 C2103 1.393 . S
C2107 C2106 1.391 . S
H2108 C2116 0.950 . S
H2109 C2121 0.950 . S
H2110 C2118 0.950 . S
H2111 C2120 0.950 . S
H2112 C2122 0.950 . S
H2113 C2124 0.950 . S
H2114 C2126 0.950 . S
H2115 C2127 0.950 . S
C2116 H2108 0.950 . S
C2116 C2117 1.386 . S
C2116 C2118 1.391 . S
C2117 C2116 1.386 . S
C2117 C2121 1.393 . S
C2118 H2110 0.950 . S
C2118 C2116 1.391 . S
C2118 C2119 1.400 . S
C2119 C2118 1.400 . S
C2119 C2120 1.398 . S
C2119 C2125 1.491 . S
C2120 H2111 0.950 . S
C2120 C2119 1.398 . S
C2120 C2121 1.391 . S
C2121 H2109 0.950 . S
C2121 C2117 1.393 . S
C2121 C2120 1.391 . S
C2122 H2112 0.950 . S
C2122 C2123 1.386 . S
C2122 C2124 1.391 . S
C2123 C2122 1.386 . S
C2123 C2127 1.393 . S
C2124 H2113 0.950 . S
C2124 C2122 1.391 . S
C2124 C2125 1.400 . S
C2125 C2119 1.491 . S
C2125 C2124 1.400 . S
C2125 C2126 1.398 . S
C2126 H2114 0.950 . S
C2126 C2125 1.398 . S
C2126 C2127 1.391 . S
C2127 H2115 0.950 . S
C2127 C2123 1.393 . S
C2127 C2126 1.391 . S
H2128 C2136 0.950 . S
H2129 C2141 0.950 . S
H2130 C2138 0.950 . S
H2131 C2140 0.950 . S
H2132 C2142 0.950 . S
H2133 C2144 0.950 . S
H2134 C2146 0.950 . S
H2135 C2147 0.950 . S
C2136 H2128 0.950 . S
C2136 C2137 1.386 . S
C2136 C2138 1.391 . S
C2137 C2136 1.386 . S
C2137 C2141 1.393 . S
C2138 H2130 0.950 . S
C2138 C2136 1.391 . S
C2138 C2139 1.400 . S
C2139 C2138 1.400 . S
C2139 C2140 1.398 . S
C2139 C2145 1.491 . S
C2140 H2131 0.950 . S
C2140 C2139 1.398 . S
C2140 C2141 1.391 . S
C2141 H2129 0.950 . S
C2141 C2137 1.393 . S
C2141 C2140 1.391 . S
C2142 H2132 0.950 . S
C2142 C2143 1.386 . S
C2142 C2144 1.391 . S
C2143 C2142 1.386 . S
C2143 C2147 1.393 . S
C2144 H2133 0.950 . S
C2144 C2142 1.391 . S
C2144 C2145 1.400 . S
C2145 C2139 1.491 . S
C2145 C2144 1.400 . S
C2145 C2146 1.398 . S
C2146 H2134 0.950 . S
C2146 C2145 1.398 . S
C2146 C2147 1.391 . S
C2147 H2135 0.950 . S
C2147 C2143 1.393 . S
C2147 C2146 1.391 . S
H2148 C2156 0.950 . S
H2149 C2161 0.950 . S
H2150 C2158 0.950 . S
H2151 C2160 0.950 . S
H2152 C2162 0.950 . S
H2153 C2164 0.950 . S
H2154 C2166 0.950 . S
H2155 C2167 0.950 . S
C2156 H2148 0.950 . S
C2156 C2157 1.386 . S
C2156 C2158 1.391 . S
C2157 C2156 1.386 . S
C2157 C2161 1.393 . S
C2158 H2150 0.950 . S
C2158 C2156 1.391 . S
C2158 C2159 1.400 . S
C2159 C2158 1.400 . S
C2159 C2160 1.398 . S
C2159 C2165 1.491 . S
C2160 H2151 0.950 . S
C2160 C2159 1.398 . S
C2160 C2161 1.391 . S
C2161 H2149 0.950 . S
C2161 C2157 1.393 . S
C2161 C2160 1.391 . S
C2162 H2152 0.950 . S
C2162 C2163 1.386 . S
C2162 C2164 1.391 . S
C2163 C2162 1.386 . S
C2163 C2167 1.393 . S
C2164 H2153 0.950 . S
C2164 C2162 1.391 . S
C2164 C2165 1.400 . S
C2165 C2159 1.491 . S
C2165 C2164 1.400 . S
C2165 C2166 1.398 . S
C2166 H2154 0.950 . S
C2166 C2165 1.398 . S
C2166 C2167 1.391 . S
C2167 H2155 0.950 . S
C2167 C2163 1.393 . S
C2167 C2166 1.391 . S
H2168 C2176 0.950 . S
H2169 C2181 0.950 . S
H2170 C2178 0.950 . S
H2171 C2180 0.950 . S
H2172 C2182 0.950 . S
H2173 C2184 0.950 . S
H2174 C2186 0.950 . S
H2175 C2187 0.950 . S
C2176 H2168 0.950 . S
C2176 C2177 1.386 . S
C2176 C2178 1.391 . S
C2177 C2176 1.386 . S
C2177 C2181 1.393 . S
C2178 H2170 0.950 . S
C2178 C2176 1.391 . S
C2178 C2179 1.400 . S
C2179 C2178 1.400 . S
C2179 C2180 1.398 . S
C2179 C2185 1.491 . S
C2180 H2171 0.950 . S
C2180 C2179 1.398 . S
C2180 C2181 1.391 . S
C2181 H2169 0.950 . S
C2181 C2177 1.393 . S
C2181 C2180 1.391 . S
C2182 H2172 0.950 . S
C2182 C2183 1.386 . S
C2182 C2184 1.391 . S
C2183 C2182 1.386 . S
C2183 C2187 1.393 . S
C2184 H2173 0.950 . S
C2184 C2182 1.391 . S
C2184 C2185 1.400 . S
C2185 C2179 1.491 . S
C2185 C2184 1.400 . S
C2185 C2186 1.398 . S
C2186 H2174 0.950 . S
C2186 C2185 1.398 . S
C2186 C2187 1.391 . S
C2187 H2175 0.950 . S
C2187 C2183 1.393 . S
C2187 C2186 1.391 . S
H2188 C2196 0.950 . S
H2189 C2201 0.950 . S
H2190 C2198 0.950 . S
H2191 C2200 0.950 . S
H2192 C2202 0.950 . S
H2193 C2204 0.950 . S
H2194 C2206 0.950 . S
H2195 C2207 0.950 . S
C2196 H2188 0.950 . S
C2196 C2197 1.386 . S
C2196 C2198 1.391 . S
C2197 C2196 1.386 . S
C2197 C2201 1.393 . S
C2198 H2190 0.950 . S
C2198 C2196 1.391 . S
C2198 C2199 1.400 . S
C2199 C2198 1.400 . S
C2199 C2200 1.398 . S
C2199 C2205 1.491 1_655 S
C2200 H2191 0.950 . S
C2200 C2199 1.398 . S
C2200 C2201 1.391 . S
C2201 H2189 0.950 . S
C2201 C2197 1.393 . S
C2201 C2200 1.391 . S
C2202 H2192 0.950 . S
C2202 C2203 1.386 . S
C2202 C2204 1.391 . S
C2203 C2202 1.386 . S
C2203 C2207 1.393 . S
C2204 H2193 0.950 . S
C2204 C2202 1.391 . S
C2204 C2205 1.400 . S
C2205 C2199 1.491 1_455 S
C2205 C2204 1.400 . S
C2205 C2206 1.398 . S
C2206 H2194 0.950 . S
C2206 C2205 1.398 . S
C2206 C2207 1.391 . S
C2207 H2195 0.950 . S
C2207 C2203 1.393 . S
C2207 C2206 1.391 . S
H2208 C2216 0.950 . S
H2209 C2221 0.950 . S
H2210 C2218 0.950 . S
H2211 C2220 0.950 . S
H2212 C2222 0.950 . S
H2213 C2224 0.950 . S
H2214 C2226 0.950 . S
H2215 C2227 0.950 . S
C2216 H2208 0.950 . S
C2216 C2217 1.386 . S
C2216 C2218 1.391 . S
C2217 C2216 1.386 . S
C2217 C2221 1.393 . S
C2218 H2210 0.950 . S
C2218 C2216 1.391 . S
C2218 C2219 1.400 . S
C2219 C2218 1.400 . S
C2219 C2220 1.398 . S
C2219 C2225 1.491 . S
C2220 H2211 0.950 . S
C2220 C2219 1.398 . S
C2220 C2221 1.391 . S
C2221 H2209 0.950 . S
C2221 C2217 1.393 . S
C2221 C2220 1.391 . S
C2222 H2212 0.950 . S
C2222 C2223 1.386 . S
C2222 C2224 1.391 . S
C2223 C2222 1.386 . S
C2223 C2227 1.393 . S
C2224 H2213 0.950 . S
C2224 C2222 1.391 . S
C2224 C2225 1.400 . S
C2225 C2219 1.491 . S
C2225 C2224 1.400 . S
C2225 C2226 1.398 . S
C2226 H2214 0.950 . S
C2226 C2225 1.398 . S
C2226 C2227 1.391 . S
C2227 H2215 0.950 . S
C2227 C2223 1.393 . S
C2227 C2226 1.391 . S
H2228 C2236 0.950 . S
H2229 C2241 0.950 . S
H2230 C2238 0.950 . S
H2231 C2240 0.950 . S
H2232 C2242 0.950 . S
H2233 C2244 0.950 . S
H2234 C2246 0.950 . S
H2235 C2247 0.950 . S
C2236 H2228 0.950 . S
C2236 C2237 1.386 . S
C2236 C2238 1.391 . S
C2237 C2236 1.386 . S
C2237 C2241 1.393 . S
C2238 H2230 0.950 . S
C2238 C2236 1.391 . S
C2238 C2239 1.400 . S
C2239 C2238 1.400 . S
C2239 C2240 1.398 . S
C2239 C2245 1.491 1_655 S
C2240 H2231 0.950 . S
C2240 C2239 1.398 . S
C2240 C2241 1.391 . S
C2241 H2229 0.950 . S
C2241 C2237 1.393 . S
C2241 C2240 1.391 . S
C2242 H2232 0.950 . S
C2242 C2243 1.386 . S
C2242 C2244 1.391 . S
C2243 C2242 1.386 . S
C2243 C2247 1.393 . S
C2244 H2233 0.950 . S
C2244 C2242 1.391 . S
C2244 C2245 1.400 . S
C2245 C2239 1.491 1_455 S
C2245 C2244 1.400 . S
C2245 C2246 1.398 . S
C2246 H2234 0.950 . S
C2246 C2245 1.398 . S
C2246 C2247 1.391 . S
C2247 H2235 0.950 . S
C2247 C2243 1.393 . S
C2247 C2246 1.391 . S
H2248 C2256 0.950 . S
H2249 C2261 0.950 . S
H2250 C2258 0.950 . S
H2251 C2260 0.950 . S
H2252 C2262 0.950 . S
H2253 C2264 0.950 . S
H2254 C2266 0.950 . S
H2255 C2267 0.950 . S
C2256 H2248 0.950 . S
C2256 C2257 1.386 . S
C2256 C2258 1.391 . S
C2257 C2256 1.386 . S
C2257 C2261 1.393 . S
C2258 H2250 0.950 . S
C2258 C2256 1.391 . S
C2258 C2259 1.400 . S
C2259 C2258 1.400 . S
C2259 C2260 1.398 . S
C2259 C2265 1.491 . S
C2260 H2251 0.950 . S
C2260 C2259 1.398 . S
C2260 C2261 1.391 . S
C2261 H2249 0.950 . S
C2261 C2257 1.393 . S
C2261 C2260 1.391 . S
C2262 H2252 0.950 . S
C2262 C2263 1.386 . S
C2262 C2264 1.391 . S
C2263 C2262 1.386 . S
C2263 C2267 1.393 . S
C2264 H2253 0.950 . S
C2264 C2262 1.391 . S
C2264 C2265 1.400 . S
C2265 C2259 1.491 . S
C2265 C2264 1.400 . S
C2265 C2266 1.398 . S
C2266 H2254 0.950 . S
C2266 C2265 1.398 . S
C2266 C2267 1.391 . S
C2267 H2255 0.950 . S
C2267 C2263 1.393 . S
C2267 C2266 1.391 . S
H2268 C2276 0.950 . S
H2269 C2281 0.950 . S
H2270 C2278 0.950 . S
H2271 C2280 0.950 . S
H2272 C2282 0.950 . S
H2273 C2284 0.950 . S
H2274 C2286 0.950 . S
H2275 C2287 0.950 . S
C2276 H2268 0.950 . S
C2276 C2277 1.386 . S
C2276 C2278 1.391 . S
C2277 C2276 1.386 . S
C2277 C2281 1.393 . S
C2278 H2270 0.950 . S
C2278 C2276 1.391 . S
C2278 C2279 1.400 . S
C2279 C2278 1.400 . S
C2279 C2280 1.398 . S
C2279 C2285 1.491 . S
C2280 H2271 0.950 . S
C2280 C2279 1.398 . S
C2280 C2281 1.391 . S
C2281 H2269 0.950 . S
C2281 C2277 1.393 . S
C2281 C2280 1.391 . S
C2282 H2272 0.950 . S
C2282 C2283 1.386 . S
C2282 C2284 1.391 . S
C2283 C2282 1.386 . S
C2283 C2287 1.393 . S
C2284 H2273 0.950 . S
C2284 C2282 1.391 . S
C2284 C2285 1.400 . S
C2285 C2279 1.491 . S
C2285 C2284 1.400 . S
C2285 C2286 1.398 . S
C2286 H2274 0.950 . S
C2286 C2285 1.398 . S
C2286 C2287 1.391 . S
C2287 H2275 0.950 . S
C2287 C2283 1.393 . S
C2287 C2286 1.391 . S
H2288 C2296 0.950 . S
H2289 C2301 0.950 . S
H2290 C2298 0.950 . S
H2291 C2300 0.950 . S
H2292 C2302 0.950 . S
H2293 C2304 0.950 . S
H2294 C2306 0.950 . S
H2295 C2307 0.950 . S
C2296 H2288 0.950 . S
C2296 C2297 1.386 . S
C2296 C2298 1.391 . S
C2297 C2296 1.386 . S
C2297 C2301 1.393 . S
C2298 H2290 0.950 . S
C2298 C2296 1.391 . S
C2298 C2299 1.400 . S
C2299 C2298 1.400 . S
C2299 C2300 1.398 . S
C2299 C2305 1.491 . S
C2300 H2291 0.950 . S
C2300 C2299 1.398 . S
C2300 C2301 1.391 . S
C2301 H2289 0.950 . S
C2301 C2297 1.393 . S
C2301 C2300 1.391 . S
C2302 H2292 0.950 . S
C2302 C2303 1.386 . S
C2302 C2304 1.391 . S
C2303 C2302 1.386 . S
C2303 C2307 1.393 . S
C2304 H2293 0.950 . S
C2304 C2302 1.391 . S
C2304 C2305 1.400 . S
C2305 C2299 1.491 . S
C2305 C2304 1.400 . S
C2305 C2306 1.398 . S
C2306 H2294 0.950 . S
C2306 C2305 1.398 . S
C2306 C2307 1.391 . S
C2307 H2295 0.950 . S
C2307 C2303 1.393 . S
C2307 C2306 1.391 . S
H2308 C2316 0.950 . S
H2309 C2321 0.950 . S
H2310 C2318 0.950 . S
H2311 C2320 0.950 . S
H2312 C2322 0.950 . S
H2313 C2324 0.950 . S
H2314 C2326 0.950 . S
H2315 C2327 0.950 . S
C2316 H2308 0.950 . S
C2316 C2317 1.386 . S
C2316 C2318 1.391 . S
C2317 C2316 1.386 . S
C2317 C2321 1.393 . S
C2318 H2310 0.950 . S
C2318 C2316 1.391 . S
C2318 C2319 1.400 . S
C2319 C2318 1.400 . S
C2319 C2320 1.398 . S
C2319 C2325 1.491 . S
C2320 H2311 0.950 . S
C2320 C2319 1.398 . S
C2320 C2321 1.391 . S
C2321 H2309 0.950 . S
C2321 C2317 1.393 . S
C2321 C2320 1.391 . S
C2322 H2312 0.950 . S
C2322 C2323 1.386 . S
C2322 C2324 1.391 . S
C2323 C2322 1.386 . S
C2323 C2327 1.393 . S
C2324 H2313 0.950 . S
C2324 C2322 1.391 . S
C2324 C2325 1.400 . S
C2325 C2319 1.491 . S
C2325 C2324 1.400 . S
C2325 C2326 1.398 . S
C2326 H2314 0.950 . S
C2326 C2325 1.398 . S
C2326 C2327 1.391 . S
C2327 H2315 0.950 . S
C2327 C2323 1.393 . S
C2327 C2326 1.391 . S
H2328 C2336 0.950 . S
H2329 C2341 0.950 . S
H2330 C2338 0.950 . S
H2331 C2340 0.950 . S
H2332 C2342 0.950 . S
H2333 C2344 0.950 . S
H2334 C2346 0.950 . S
H2335 C2347 0.950 . S
C2336 H2328 0.950 . S
C2336 C2337 1.386 . S
C2336 C2338 1.391 . S
C2337 C2336 1.386 . S
C2337 C2341 1.393 . S
C2338 H2330 0.950 . S
C2338 C2336 1.391 . S
C2338 C2339 1.400 . S
C2339 C2338 1.400 . S
C2339 C2340 1.398 . S
C2339 C2345 1.491 . S
C2340 H2331 0.950 . S
C2340 C2339 1.398 . S
C2340 C2341 1.391 . S
C2341 H2329 0.950 . S
C2341 C2337 1.393 . S
C2341 C2340 1.391 . S
C2342 H2332 0.950 . S
C2342 C2343 1.386 . S
C2342 C2344 1.391 . S
C2343 C2342 1.386 . S
C2343 C2347 1.393 . S
C2344 H2333 0.950 . S
C2344 C2342 1.391 . S
C2344 C2345 1.400 . S
C2345 C2339 1.491 . S
C2345 C2344 1.400 . S
C2345 C2346 1.398 . S
C2346 H2334 0.950 . S
C2346 C2345 1.398 . S
C2346 C2347 1.391 . S
C2347 H2335 0.950 . S
C2347 C2343 1.393 . S
C2347 C2346 1.391 . S
H2348 C2356 0.950 . S
H2349 C2361 0.950 . S
H2350 C2358 0.950 . S
H2351 C2360 0.950 . S
H2352 C2362 0.950 . S
H2353 C2364 0.950 . S
H2354 C2366 0.950 . S
H2355 C2367 0.950 . S
C2356 H2348 0.950 . S
C2356 C2357 1.386 . S
C2356 C2358 1.391 . S
C2357 C2356 1.386 . S
C2357 C2361 1.393 . S
C2358 H2350 0.950 . S
C2358 C2356 1.391 . S
C2358 C2359 1.400 . S
C2359 C2358 1.400 . S
C2359 C2360 1.398 . S
C2359 C2365 1.491 1_455 S
C2360 H2351 0.950 . S
C2360 C2359 1.398 . S
C2360 C2361 1.391 . S
C2361 H2349 0.950 . S
C2361 C2357 1.393 . S
C2361 C2360 1.391 . S
C2362 H2352 0.950 . S
C2362 C2363 1.386 . S
C2362 C2364 1.391 . S
C2363 C2362 1.386 . S
C2363 C2367 1.393 . S
C2364 H2353 0.950 . S
C2364 C2362 1.391 . S
C2364 C2365 1.400 . S
C2365 C2359 1.491 1_655 S
C2365 C2364 1.400 . S
C2365 C2366 1.398 . S
C2366 H2354 0.950 . S
C2366 C2365 1.398 . S
C2366 C2367 1.391 . S
C2367 H2355 0.950 . S
C2367 C2363 1.393 . S
C2367 C2366 1.391 . S
H2368 C2376 0.950 . S
H2369 C2381 0.950 . S
H2370 C2378 0.950 . S
H2371 C2380 0.950 . S
H2372 C2382 0.950 . S
H2373 C2384 0.950 . S
H2374 C2386 0.950 . S
H2375 C2387 0.950 . S
C2376 H2368 0.950 . S
C2376 C2377 1.386 . S
C2376 C2378 1.391 . S
C2377 C2376 1.386 . S
C2377 C2381 1.393 . S
C2378 H2370 0.950 . S
C2378 C2376 1.391 . S
C2378 C2379 1.400 . S
C2379 C2378 1.400 . S
C2379 C2380 1.398 . S
C2379 C2385 1.491 . S
C2380 H2371 0.950 . S
C2380 C2379 1.398 . S
C2380 C2381 1.391 . S
C2381 H2369 0.950 . S
C2381 C2377 1.393 . S
C2381 C2380 1.391 . S
C2382 H2372 0.950 . S
C2382 C2383 1.386 . S
C2382 C2384 1.391 . S
C2383 C2382 1.386 . S
C2383 C2387 1.393 . S
C2384 H2373 0.950 . S
C2384 C2382 1.391 . S
C2384 C2385 1.400 . S
C2385 C2379 1.491 . S
C2385 C2384 1.400 . S
C2385 C2386 1.398 . S
C2386 H2374 0.950 . S
C2386 C2385 1.398 . S
C2386 C2387 1.391 . S
C2387 H2375 0.950 . S
C2387 C2383 1.393 . S
C2387 C2386 1.391 . S
H2388 C2396 0.950 . S
H2389 C2401 0.950 . S
H2390 C2398 0.950 . S
H2391 C2400 0.950 . S
H2392 C2402 0.950 . S
H2393 C2404 0.950 . S
H2394 C2406 0.950 . S
H2395 C2407 0.950 . S
C2396 H2388 0.950 . S
C2396 C2397 1.386 . S
C2396 C2398 1.391 . S
C2397 C2396 1.386 . S
C2397 C2401 1.393 . S
C2398 H2390 0.950 . S
C2398 C2396 1.391 . S
C2398 C2399 1.400 . S
C2399 C2398 1.400 . S
C2399 C2400 1.398 . S
C2399 C2405 1.491 . S
C2400 H2391 0.950 . S
C2400 C2399 1.398 . S
C2400 C2401 1.391 . S
C2401 H2389 0.950 . S
C2401 C2397 1.393 . S
C2401 C2400 1.391 . S
C2402 H2392 0.950 . S
C2402 C2403 1.386 . S
C2402 C2404 1.391 . S
C2403 C2402 1.386 . S
C2403 C2407 1.393 . S
C2404 H2393 0.950 . S
C2404 C2402 1.391 . S
C2404 C2405 1.400 . S
C2405 C2399 1.491 . S
C2405 C2404 1.400 . S
C2405 C2406 1.398 . S
C2406 H2394 0.950 . S
C2406 C2405 1.398 . S
C2406 C2407 1.391 . S
C2407 H2395 0.950 . S
C2407 C2403 1.393 . S
C2407 C2406 1.391 . S
H2408 C2416 0.950 . S
H2409 C2421 0.950 . S
H2410 C2418 0.950 . S
H2411 C2420 0.950 . S
H2412 C2422 0.950 . S
H2413 C2424 0.950 . S
H2414 C2426 0.950 . S
H2415 C2427 0.950 . S
C2416 H2408 0.950 . S
C2416 C2417 1.386 . S
C2416 C2418 1.391 . S
C2417 C2416 1.386 . S
C2417 C2421 1.393 . S
C2418 H2410 0.950 . S
C2418 C2416 1.391 . S
C2418 C2419 1.400 . S
C2419 C2418 1.400 . S
C2419 C2420 1.398 . S
C2419 C2425 1.491 . S
C2420 H2411 0.950 . S
C2420 C2419 1.398 . S
C2420 C2421 1.391 . S
C2421 H2409 0.950 . S
C2421 C2417 1.393 . S
C2421 C2420 1.391 . S
C2422 H2412 0.950 . S
C2422 C2423 1.386 . S
C2422 C2424 1.391 . S
C2423 C2422 1.386 . S
C2423 C2427 1.393 . S
C2424 H2413 0.950 . S
C2424 C2422 1.391 . S
C2424 C2425 1.400 . S
C2425 C2419 1.491 . S
C2425 C2424 1.400 . S
C2425 C2426 1.398 . S
C2426 H2414 0.950 . S
C2426 C2425 1.398 . S
C2426 C2427 1.391 . S
C2427 H2415 0.950 . S
C2427 C2423 1.393 . S
C2427 C2426 1.391 . S
H2428 C2436 0.950 . S
H2429 C2441 0.950 . S
H2430 C2438 0.950 . S
H2431 C2440 0.950 . S
H2432 C2442 0.950 . S
H2433 C2444 0.950 . S
H2434 C2446 0.950 . S
H2435 C2447 0.950 . S
C2436 H2428 0.950 . S
C2436 C2437 1.386 . S
C2436 C2438 1.391 . S
C2437 C2436 1.386 . S
C2437 C2441 1.393 . S
C2438 H2430 0.950 . S
C2438 C2436 1.391 . S
C2438 C2439 1.400 . S
C2439 C2438 1.400 . S
C2439 C2440 1.398 . S
C2439 C2445 1.491 1_655 S
C2440 H2431 0.950 . S
C2440 C2439 1.398 . S
C2440 C2441 1.391 . S
C2441 H2429 0.950 . S
C2441 C2437 1.393 . S
C2441 C2440 1.391 . S
C2442 H2432 0.950 . S
C2442 C2443 1.386 . S
C2442 C2444 1.391 . S
C2443 C2442 1.386 . S
C2443 C2447 1.393 . S
C2444 H2433 0.950 . S
C2444 C2442 1.391 . S
C2444 C2445 1.400 . S
C2445 C2439 1.491 1_455 S
C2445 C2444 1.400 . S
C2445 C2446 1.398 . S
C2446 H2434 0.950 . S
C2446 C2445 1.398 . S
C2446 C2447 1.391 . S
C2447 H2435 0.950 . S
C2447 C2443 1.393 . S
C2447 C2446 1.391 . S
H2448 C2456 0.950 . S
H2449 C2461 0.950 . S
H2450 C2458 0.950 . S
H2451 C2460 0.950 . S
H2452 C2462 0.950 . S
H2453 C2464 0.950 . S
H2454 C2466 0.950 . S
H2455 C2467 0.950 . S
C2456 H2448 0.950 . S
C2456 C2457 1.386 . S
C2456 C2458 1.391 . S
C2457 C2456 1.386 . S
C2457 C2461 1.393 . S
C2458 H2450 0.950 . S
C2458 C2456 1.391 . S
C2458 C2459 1.400 . S
C2459 C2458 1.400 . S
C2459 C2460 1.398 . S
C2459 C2465 1.491 . S
C2460 H2451 0.950 . S
C2460 C2459 1.398 . S
C2460 C2461 1.391 . S
C2461 H2449 0.950 . S
C2461 C2457 1.393 . S
C2461 C2460 1.391 . S
C2462 H2452 0.950 . S
C2462 C2463 1.386 . S
C2462 C2464 1.391 . S
C2463 C2462 1.386 . S
C2463 C2467 1.393 . S
C2464 H2453 0.950 . S
C2464 C2462 1.391 . S
C2464 C2465 1.400 . S
C2465 C2459 1.491 . S
C2465 C2464 1.400 . S
C2465 C2466 1.398 . S
C2466 H2454 0.950 . S
C2466 C2465 1.398 . S
C2466 C2467 1.391 . S
C2467 H2455 0.950 . S
C2467 C2463 1.393 . S
C2467 C2466 1.391 . S
H2468 C2476 0.950 . S
H2469 C2481 0.950 . S
H2470 C2478 0.950 . S
H2471 C2480 0.950 . S
H2472 C2482 0.950 . S
H2473 C2484 0.950 . S
H2474 C2486 0.950 . S
H2475 C2487 0.950 . S
C2476 H2468 0.950 . S
C2476 C2477 1.386 . S
C2476 C2478 1.391 . S
C2477 C2476 1.386 . S
C2477 C2481 1.393 . S
C2478 H2470 0.950 . S
C2478 C2476 1.391 . S
C2478 C2479 1.400 . S
C2479 C2478 1.400 . S
C2479 C2480 1.398 . S
C2479 C2485 1.491 1_655 S
C2480 H2471 0.950 . S
C2480 C2479 1.398 . S
C2480 C2481 1.391 . S
C2481 H2469 0.950 . S
C2481 C2477 1.393 . S
C2481 C2480 1.391 . S
C2482 H2472 0.950 . S
C2482 C2483 1.386 . S
C2482 C2484 1.391 . S
C2483 C2482 1.386 . S
C2483 C2487 1.393 . S
C2484 H2473 0.950 . S
C2484 C2482 1.391 . S
C2484 C2485 1.400 . S
C2485 C2479 1.491 1_455 S
C2485 C2484 1.400 . S
C2485 C2486 1.398 . S
C2486 H2474 0.950 . S
C2486 C2485 1.398 . S
C2486 C2487 1.391 . S
C2487 H2475 0.950 . S
C2487 C2483 1.393 . S
C2487 C2486 1.391 . S
H2488 C2496 0.950 . S
H2489 C2501 0.950 . S
H2490 C2498 0.950 . S
H2491 C2500 0.950 . S
H2492 C2502 0.950 . S
H2493 C2504 0.950 . S
H2494 C2506 0.950 . S
H2495 C2507 0.950 . S
C2496 H2488 0.950 . S
C2496 C2497 1.386 . S
C2496 C2498 1.391 . S
C2497 C2496 1.386 . S
C2497 C2501 1.393 . S
C2498 H2490 0.950 . S
C2498 C2496 1.391 . S
C2498 C2499 1.400 . S
C2499 C2498 1.400 . S
C2499 C2500 1.398 . S
C2499 C2505 1.491 . S
C2500 H2491 0.950 . S
C2500 C2499 1.398 . S
C2500 C2501 1.391 . S
C2501 H2489 0.950 . S
C2501 C2497 1.393 . S
C2501 C2500 1.391 . S
C2502 H2492 0.950 . S
C2502 C2503 1.386 . S
C2502 C2504 1.391 . S
C2503 C2502 1.386 . S
C2503 C2507 1.393 . S
C2504 H2493 0.950 . S
C2504 C2502 1.391 . S
C2504 C2505 1.400 . S
C2505 C2499 1.491 . S
C2505 C2504 1.400 . S
C2505 C2506 1.398 . S
C2506 H2494 0.950 . S
C2506 C2505 1.398 . S
C2506 C2507 1.391 . S
C2507 H2495 0.950 . S
C2507 C2503 1.393 . S
C2507 C2506 1.391 . S
H2508 C2516 0.950 . S
H2509 C2521 0.950 . S
H2510 C2518 0.950 . S
H2511 C2520 0.950 . S
H2512 C2522 0.950 . S
H2513 C2524 0.950 . S
H2514 C2526 0.950 . S
H2515 C2527 0.950 . S
C2516 H2508 0.950 . S
C2516 C2517 1.386 . S
C2516 C2518 1.391 . S
C2517 C2516 1.386 . S
C2517 C2521 1.393 . S
C2518 H2510 0.950 . S
C2518 C2516 1.391 . S
C2518 C2519 1.400 . S
C2519 C2518 1.400 . S
C2519 C2520 1.398 . S
C2519 C2525 1.491 . S
C2520 H2511 0.950 . S
C2520 C2519 1.398 . S
C2520 C2521 1.391 . S
C2521 H2509 0.950 . S
C2521 C2517 1.393 . S
C2521 C2520 1.391 . S
C2522 H2512 0.950 . S
C2522 C2523 1.386 . S
C2522 C2524 1.391 . S
C2523 C2522 1.386 . S
C2523 C2527 1.393 . S
C2524 H2513 0.950 . S
C2524 C2522 1.391 . S
C2524 C2525 1.400 . S
C2525 C2519 1.491 . S
C2525 C2524 1.400 . S
C2525 C2526 1.398 . S
C2526 H2514 0.950 . S
C2526 C2525 1.398 . S
C2526 C2527 1.391 . S
C2527 H2515 0.950 . S
C2527 C2523 1.393 . S
C2527 C2526 1.391 . S
H2528 C2536 0.950 . S
H2529 C2541 0.950 . S
H2530 C2538 0.950 . S
H2531 C2540 0.950 . S
H2532 C2542 0.950 . S
H2533 C2544 0.950 . S
H2534 C2546 0.950 . S
H2535 C2547 0.950 . S
C2536 H2528 0.950 . S
C2536 C2537 1.386 . S
C2536 C2538 1.391 . S
C2537 C2536 1.386 . S
C2537 C2541 1.393 . S
C2538 H2530 0.950 . S
C2538 C2536 1.391 . S
C2538 C2539 1.400 . S
C2539 C2538 1.400 . S
C2539 C2540 1.398 . S
C2539 C2545 1.491 . S
C2540 H2531 0.950 . S
C2540 C2539 1.398 . S
C2540 C2541 1.391 . S
C2541 H2529 0.950 . S
C2541 C2537 1.393 . S
C2541 C2540 1.391 . S
C2542 H2532 0.950 . S
C2542 C2543 1.386 . S
C2542 C2544 1.391 . S
C2543 C2542 1.386 . S
C2543 C2547 1.393 . S
C2544 H2533 0.950 . S
C2544 C2542 1.391 . S
C2544 C2545 1.400 . S
C2545 C2539 1.491 . S
C2545 C2544 1.400 . S
C2545 C2546 1.398 . S
C2546 H2534 0.950 . S
C2546 C2545 1.398 . S
C2546 C2547 1.391 . S
C2547 H2535 0.950 . S
C2547 C2543 1.393 . S
C2547 C2546 1.391 . S
H2548 C2556 0.950 . S
H2549 C2561 0.950 . S
H2550 C2558 0.950 . S
H2551 C2560 0.950 . S
H2552 C2562 0.950 . S
H2553 C2564 0.950 . S
H2554 C2566 0.950 . S
H2555 C2567 0.950 . S
C2556 H2548 0.950 . S
C2556 C2557 1.386 . S
C2556 C2558 1.391 . S
C2557 C2556 1.386 . S
C2557 C2561 1.393 . S
C2558 H2550 0.950 . S
C2558 C2556 1.391 . S
C2558 C2559 1.400 . S
C2559 C2558 1.400 . S
C2559 C2560 1.398 . S
C2559 C2565 1.491 . S
C2560 H2551 0.950 . S
C2560 C2559 1.398 . S
C2560 C2561 1.391 . S
C2561 H2549 0.950 . S
C2561 C2557 1.393 . S
C2561 C2560 1.391 . S
C2562 H2552 0.950 . S
C2562 C2563 1.386 . S
C2562 C2564 1.391 . S
C2563 C2562 1.386 . S
C2563 C2567 1.393 . S
C2564 H2553 0.950 . S
C2564 C2562 1.391 . S
C2564 C2565 1.400 . S
C2565 C2559 1.491 . S
C2565 C2564 1.400 . S
C2565 C2566 1.398 . S
C2566 H2554 0.950 . S
C2566 C2565 1.398 . S
C2566 C2567 1.391 . S
C2567 H2555 0.950 . S
C2567 C2563 1.393 . S
C2567 C2566 1.391 . S
H2568 C2576 0.950 . S
H2569 C2581 0.950 . S
H2570 C2578 0.950 . S
H2571 C2580 0.950 . S
H2572 C2582 0.950 . S
H2573 C2584 0.950 . S
H2574 C2586 0.950 . S
H2575 C2587 0.950 . S
C2576 H2568 0.950 . S
C2576 C2577 1.386 . S
C2576 C2578 1.391 . S
C2577 C2576 1.386 . S
C2577 C2581 1.393 . S
C2578 H2570 0.950 . S
C2578 C2576 1.391 . S
C2578 C2579 1.400 . S
C2579 C2578 1.400 . S
C2579 C2580 1.398 . S
C2579 C2585 1.491 . S
C2580 H2571 0.950 . S
C2580 C2579 1.398 . S
C2580 C2581 1.391 . S
C2581 H2569 0.950 . S
C2581 C2577 1.393 . S
C2581 C2580 1.391 . S
C2582 H2572 0.950 . S
C2582 C2583 1.386 . S
C2582 C2584 1.391 . S
C2583 C2582 1.386 . S
C2583 C2587 1.393 . S
C2584 H2573 0.950 . S
C2584 C2582 1.391 . S
C2584 C2585 1.400 . S
C2585 C2579 1.491 . S
C2585 C2584 1.400 . S
C2585 C2586 1.398 . S
C2586 H2574 0.950 . S
C2586 C2585 1.398 . S
C2586 C2587 1.391 . S
C2587 H2575 0.950 . S
C2587 C2583 1.393 . S
C2587 C2586 1.391 . S
H2588 C2596 0.950 . S
H2589 C2601 0.950 . S
H2590 C2598 0.950 . S
H2591 C2600 0.950 . S
H2592 C2602 0.950 . S
H2593 C2604 0.950 . S
H2594 C2606 0.950 . S
H2595 C2607 0.950 . S
C2596 H2588 0.950 . S
C2596 C2597 1.386 . S
C2596 C2598 1.391 . S
C2597 C2596 1.386 . S
C2597 C2601 1.393 . S
C2598 H2590 0.950 . S
C2598 C2596 1.391 . S
C2598 C2599 1.400 . S
C2599 C2598 1.400 . S
C2599 C2600 1.398 . S
C2599 C2605 1.491 1_655 S
C2600 H2591 0.950 . S
C2600 C2599 1.398 . S
C2600 C2601 1.391 . S
C2601 H2589 0.950 . S
C2601 C2597 1.393 . S
C2601 C2600 1.391 . S
C2602 H2592 0.950 . S
C2602 C2603 1.386 . S
C2602 C2604 1.391 . S
C2603 C2602 1.386 . S
C2603 C2607 1.393 . S
C2604 H2593 0.950 . S
C2604 C2602 1.391 . S
C2604 C2605 1.400 . S
C2605 C2599 1.491 1_455 S
C2605 C2604 1.400 . S
C2605 C2606 1.398 . S
C2606 H2594 0.950 . S
C2606 C2605 1.398 . S
C2606 C2607 1.391 . S
C2607 H2595 0.950 . S
C2607 C2603 1.393 . S
C2607 C2606 1.391 . S
H2608 C2616 0.950 . S
H2609 C2621 0.950 . S
H2610 C2618 0.950 . S
H2611 C2620 0.950 . S
H2612 C2622 0.950 . S
H2613 C2624 0.950 . S
H2614 C2626 0.950 . S
H2615 C2627 0.950 . S
C2616 H2608 0.950 . S
C2616 C2617 1.386 . S
C2616 C2618 1.391 . S
C2617 C2616 1.386 . S
C2617 C2621 1.393 . S
C2618 H2610 0.950 . S
C2618 C2616 1.391 . S
C2618 C2619 1.400 . S
C2619 C2618 1.400 . S
C2619 C2620 1.398 . S
C2619 C2625 1.491 . S
C2620 H2611 0.950 . S
C2620 C2619 1.398 . S
C2620 C2621 1.391 . S
C2621 H2609 0.950 . S
C2621 C2617 1.393 . S
C2621 C2620 1.391 . S
C2622 H2612 0.950 . S
C2622 C2623 1.386 . S
C2622 C2624 1.391 . S
C2623 C2622 1.386 . S
C2623 C2627 1.393 . S
C2624 H2613 0.950 . S
C2624 C2622 1.391 . S
C2624 C2625 1.400 . S
C2625 C2619 1.491 . S
C2625 C2624 1.400 . S
C2625 C2626 1.398 . S
C2626 H2614 0.950 . S
C2626 C2625 1.398 . S
C2626 C2627 1.391 . S
C2627 H2615 0.950 . S
C2627 C2623 1.393 . S
C2627 C2626 1.391 . S
H2628 C2636 0.950 . S
H2629 C2641 0.950 . S
H2630 C2638 0.950 . S
H2631 C2640 0.950 . S
H2632 C2642 0.950 . S
H2633 C2644 0.950 . S
H2634 C2646 0.950 . S
H2635 C2647 0.950 . S
C2636 H2628 0.950 . S
C2636 C2637 1.386 . S
C2636 C2638 1.391 . S
C2637 C2636 1.386 . S
C2637 C2641 1.393 . S
C2638 H2630 0.950 . S
C2638 C2636 1.391 . S
C2638 C2639 1.400 . S
C2639 C2638 1.400 . S
C2639 C2640 1.398 . S
C2639 C2645 1.491 1_455 S
C2640 H2631 0.950 . S
C2640 C2639 1.398 . S
C2640 C2641 1.391 . S
C2641 H2629 0.950 . S
C2641 C2637 1.393 . S
C2641 C2640 1.391 . S
C2642 H2632 0.950 . S
C2642 C2643 1.386 . S
C2642 C2644 1.391 . S
C2643 C2642 1.386 . S
C2643 C2647 1.393 . S
C2644 H2633 0.950 . S
C2644 C2642 1.391 . S
C2644 C2645 1.400 . S
C2645 C2639 1.491 1_655 S
C2645 C2644 1.400 . S
C2645 C2646 1.398 . S
C2646 H2634 0.950 . S
C2646 C2645 1.398 . S
C2646 C2647 1.391 . S
C2647 H2635 0.950 . S
C2647 C2643 1.393 . S
C2647 C2646 1.391 . S
H2648 C2656 0.950 . S
H2649 C2661 0.950 . S
H2650 C2658 0.950 . S
H2651 C2660 0.950 . S
H2652 C2662 0.950 . S
H2653 C2664 0.950 . S
H2654 C2666 0.950 . S
H2655 C2667 0.950 . S
C2656 H2648 0.950 . S
C2656 C2657 1.386 . S
C2656 C2658 1.391 . S
C2657 C2656 1.386 . S
C2657 C2661 1.393 . S
C2658 H2650 0.950 . S
C2658 C2656 1.391 . S
C2658 C2659 1.400 . S
C2659 C2658 1.400 . S
C2659 C2660 1.398 . S
C2659 C2665 1.491 . S
C2660 H2651 0.950 . S
C2660 C2659 1.398 . S
C2660 C2661 1.391 . S
C2661 H2649 0.950 . S
C2661 C2657 1.393 . S
C2661 C2660 1.391 . S
C2662 H2652 0.950 . S
C2662 C2663 1.386 . S
C2662 C2664 1.391 . S
C2663 C2662 1.386 . S
C2663 C2667 1.393 . S
C2664 H2653 0.950 . S
C2664 C2662 1.391 . S
C2664 C2665 1.400 . S
C2665 C2659 1.491 . S
C2665 C2664 1.400 . S
C2665 C2666 1.398 . S
C2666 H2654 0.950 . S
C2666 C2665 1.398 . S
C2666 C2667 1.391 . S
C2667 H2655 0.950 . S
C2667 C2663 1.393 . S
C2667 C2666 1.391 . S
H2668 C2676 0.950 . S
H2669 C2681 0.950 . S
H2670 C2678 0.950 . S
H2671 C2680 0.950 . S
H2672 C2682 0.950 . S
H2673 C2684 0.950 . S
H2674 C2686 0.950 . S
H2675 C2687 0.950 . S
C2676 H2668 0.950 . S
C2676 C2677 1.386 . S
C2676 C2678 1.391 . S
C2677 C2676 1.386 . S
C2677 C2681 1.393 . S
C2678 H2670 0.950 . S
C2678 C2676 1.391 . S
C2678 C2679 1.400 . S
C2679 C2678 1.400 . S
C2679 C2680 1.398 . S
C2679 C2685 1.491 . S
C2680 H2671 0.950 . S
C2680 C2679 1.398 . S
C2680 C2681 1.391 . S
C2681 H2669 0.950 . S
C2681 C2677 1.393 . S
C2681 C2680 1.391 . S
C2682 H2672 0.950 . S
C2682 C2683 1.386 . S
C2682 C2684 1.391 . S
C2683 C2682 1.386 . S
C2683 C2687 1.393 . S
C2684 H2673 0.950 . S
C2684 C2682 1.391 . S
C2684 C2685 1.400 . S
C2685 C2679 1.491 . S
C2685 C2684 1.400 . S
C2685 C2686 1.398 . S
C2686 H2674 0.950 . S
C2686 C2685 1.398 . S
C2686 C2687 1.391 . S
C2687 H2675 0.950 . S
C2687 C2683 1.393 . S
C2687 C2686 1.391 . S
C1097 C240 1.891 1_554 S
C1103 C2 1.899 . S
C1117 C36 1.899 . S
C1123 C138 1.891 . S
C1137 C70 1.891 . S
C1143 C172 1.903 . S
C1157 C206 1.897 . S
C1163 C104 1.902 1_556 S
C1177 C274 1.897 . S
C1183 C512 1.892 1_556 S
C1197 C410 1.900 . S
C1203 C308 1.891 . S
C1217 C342 1.903 . S
C1223 C444 1.891 . S
C1237 C478 1.900 . S
C1243 C376 1.891 1_554 S
C1257 C784 1.904 . S
C1263 C546 1.893 . S
C1277 C682 1.892 . S
C1283 C580 1.904 1_556 S
C1297 C716 1.893 1_554 S
C1303 C614 1.896 . S
C1317 C750 1.893 . S
C1323 C648 1.904 . S
C1337 C1056 1.903 . S
C1343 C818 1.891 . S
C1357 C852 1.897 1_554 S
C1363 C954 1.892 . S
C1377 C988 1.901 1_556 S
C1383 C886 1.890 . S
C1397 C1022 1.891 . S
C1403 C920 1.900 . S
C1417 C20 0.223 . S
C1423 C258 0.159 . S
C1437 C54 0.242 . S
C1443 C156 0.188 . S
C1457 C88 0.239 . S
C1463 C190 0.180 . S
C1477 C122 0.155 . S
C1483 C224 0.216 . S
C1497 C530 0.158 . S
C1503 C292 0.180 . S
C1517 C326 0.239 . S
C1523 C428 0.228 . S
C1537 C462 0.152 . S
C1543 C360 0.203 . S
C1557 C394 0.245 . S
C1563 C496 0.207 . S
C1577 C564 0.187 . S
C1583 C802 0.241 . S
C1597 C700 0.244 . S
C1603 C598 0.208 . S
C1617 C734 0.189 . S
C1623 C632 0.242 . S
C1637 C666 0.190 . S
C1643 C768 0.153 . S
C1657 C836 0.152 . S
C1663 C1074 0.198 . S
C1677 C870 0.233 . S
C1683 C972 0.235 . S
C1697 C904 0.196 . S
C1703 C1006 0.244 . S
C1717 C938 0.173 . S
C1723 C1040 0.163 . S
C1737 C213 1.660 . S
C1743 C9 1.634 . S
C1757 C43 1.639 . S
C1763 C247 1.664 . S
C1777 C145 1.665 . S
C1783 C77 1.647 . S
C1797 C179 1.659 . S
C1803 C111 1.661 . S
C1817 C485 1.652 . S
C1823 C281 1.664 . S
C1837 C519 1.640 . S
C1843 C315 1.664 . S
C1857 C417 1.664 . S
C1863 C349 1.641 . S
C1877 C451 1.657 . S
C1883 C383 1.662 . S
C1897 C553 1.631 . S
C1903 C757 1.643 . S
C1917 C791 1.648 . S
C1923 C587 1.630 . S
C1937 C689 1.630 . S
C1943 C621 1.649 . S
C1957 C723 1.648 . S
C1963 C655 1.665 . S
C1977 C1029 1.655 . S
C1983 C825 1.631 . S
C1997 C859 1.665 . S
C2003 C1063 1.643 . S
C2017 C961 1.641 . S
C2023 C893 1.632 . S
C2037 C995 1.631 . S
C2043 C927 1.645 . S
C2057 C33 1.566 . S
C2063 C923 1.571 . S
C2077 C277 1.570 . S
C2083 C67 1.570 . S
C2097 C855 1.569 . S
C2103 C101 1.571 . S
C2117 C135 1.565 . S
C2123 C345 1.563 . S
C2137 C169 1.564 . S
C2143 C991 1.565 . S
C2157 C203 1.571 . S
C2163 C481 1.563 . S
C2177 C237 1.563 . S
C2183 C1059 1.566 . S
C2197 C413 1.570 . S
C2203 C271 1.570 . S
C2217 C651 1.570 . S
C2223 C305 1.571 . S
C2237 C339 1.564 . S
C2243 C5 1.564 . S
C2257 C373 1.570 . S
C2263 C583 1.571 . S
C2277 C73 1.565 . S
C2283 C407 1.564 . S
C2297 C719 1.562 . S
C2303 C441 1.569 . S
C2317 C475 1.570 . S
C2323 C209 1.571 . S
C2337 C509 1.564 . S
C2343 C787 1.564 . S
C2357 C141 1.569 . S
C2363 C543 1.571 . S
C2377 C379 1.565 . S
C2383 C577 1.564 . S
C2397 C821 1.563 . S
C2403 C611 1.565 . S
C2417 C645 1.568 . S
C2423 C311 1.571 . S
C2437 C679 1.564 . S
C2443 C889 1.570 . S
C2457 C447 1.567 . S
C2463 C713 1.572 . S
C2477 C747 1.572 . S
C2483 C1025 1.564 . S
C2497 C515 1.568 . S
C2503 C781 1.572 . S
C2517 C957 1.568 . S
C2523 C815 1.563 . S
C2537 C107 1.564 . S
C2543 C849 1.572 . S
C2557 C883 1.572 . S
C2563 C549 1.565 . S
C2577 C39 1.571 . S
C2583 C917 1.565 . S
C2597 C617 1.569 . S
C2603 C951 1.563 . S
C2617 C175 1.566 . S
C2623 C985 1.572 . S
C2637 C1019 1.568 . S
C2643 C753 1.562 . S
C2657 C1053 1.564 . S
C2663 C243 1.565 . S
C2677 C1087 1.568 . S
C2683 C685 1.562 . S
