# Generated by pormake.
# Topology ato, (4)-cn, num edge types: 1
# Building blocks:
#     Node 0, Type 0, BuildingBlock: NAHDIM_clean_sbu_0, # of connection points: 4
#     Node 1, Type 0, BuildingBlock: NAHDIM_clean_sbu_0, # of connection points: 4
#     Node 2, Type 0, BuildingBlock: NAHDIM_clean_sbu_0, # of connection points: 4
#     Node 3, Type 0, BuildingBlock: NAHDIM_clean_sbu_0, # of connection points: 4
#     Node 4, Type 0, BuildingBlock: NAHDIM_clean_sbu_0, # of connection points: 4
#     Node 5, Type 0, BuildingBlock: NAHDIM_clean_sbu_0, # of connection points: 4
#     Node 6, Type 0, BuildingBlock: NAHDIM_clean_sbu_0, # of connection points: 4
#     Node 7, Type 0, BuildingBlock: NAHDIM_clean_sbu_0, # of connection points: 4
#     Node 8, Type 0, BuildingBlock: NAHDIM_clean_sbu_0, # of connection points: 4
#     Node 9, Type 0, BuildingBlock: NAHDIM_clean_sbu_0, # of connection points: 4
#     Node 10, Type 0, BuildingBlock: NAHDIM_clean_sbu_0, # of connection points: 4
#     Node 11, Type 0, BuildingBlock: NAHDIM_clean_sbu_0, # of connection points: 4
#     Node 12, Type 0, BuildingBlock: NAHDIM_clean_sbu_0, # of connection points: 4
#     Node 13, Type 0, BuildingBlock: NAHDIM_clean_sbu_0, # of connection points: 4
#     Node 14, Type 0, BuildingBlock: NAHDIM_clean_sbu_0, # of connection points: 4
#     Node 15, Type 0, BuildingBlock: NAHDIM_clean_sbu_0, # of connection points: 4
#     Node 16, Type 0, BuildingBlock: NAHDIM_clean_sbu_0, # of connection points: 4
#     Node 17, Type 0, BuildingBlock: NAHDIM_clean_sbu_0, # of connection points: 4
#     Node 18, Type 0, BuildingBlock: NAHDIM_clean_sbu_0, # of connection points: 4
#     Node 19, Type 0, BuildingBlock: NAHDIM_clean_sbu_0, # of connection points: 4
#     Node 20, Type 0, BuildingBlock: NAHDIM_clean_sbu_0, # of connection points: 4
#     Node 21, Type 0, BuildingBlock: NAHDIM_clean_sbu_0, # of connection points: 4
#     Node 22, Type 0, BuildingBlock: NAHDIM_clean_sbu_0, # of connection points: 4
#     Node 23, Type 0, BuildingBlock: NAHDIM_clean_sbu_0, # of connection points: 4
#     Node 24, Type 0, BuildingBlock: NAHDIM_clean_sbu_0, # of connection points: 4
#     Node 25, Type 0, BuildingBlock: NAHDIM_clean_sbu_0, # of connection points: 4
#     Node 26, Type 0, BuildingBlock: NAHDIM_clean_sbu_0, # of connection points: 4
#     Node 27, Type 0, BuildingBlock: NAHDIM_clean_sbu_0, # of connection points: 4
#     Node 28, Type 0, BuildingBlock: NAHDIM_clean_sbu_0, # of connection points: 4
#     Node 29, Type 0, BuildingBlock: NAHDIM_clean_sbu_0, # of connection points: 4
#     Node 30, Type 0, BuildingBlock: NAHDIM_clean_sbu_0, # of connection points: 4
#     Node 31, Type 0, BuildingBlock: NAHDIM_clean_sbu_0, # of connection points: 4
#     Node 32, Type 0, BuildingBlock: NAHDIM_clean_sbu_0, # of connection points: 4
#     Node 33, Type 0, BuildingBlock: NAHDIM_clean_sbu_0, # of connection points: 4
#     Node 34, Type 0, BuildingBlock: NAHDIM_clean_sbu_0, # of connection points: 4
#     Node 35, Type 0, BuildingBlock: NAHDIM_clean_sbu_0, # of connection points: 4
#     Edge 36, Type (0, 0), BuildingBlock: AJUNOK_clean_linker_0, # of connection points: 2
#     Edge 37, Type (0, 0), BuildingBlock: AJUNOK_clean_linker_0, # of connection points: 2
#     Edge 38, Type (0, 0), BuildingBlock: AJUNOK_clean_linker_0, # of connection points: 2
#     Edge 39, Type (0, 0), BuildingBlock: AJUNOK_clean_linker_0, # of connection points: 2
#     Edge 40, Type (0, 0), BuildingBlock: AJUNOK_clean_linker_0, # of connection points: 2
#     Edge 41, Type (0, 0), BuildingBlock: AJUNOK_clean_linker_0, # of connection points: 2
#     Edge 42, Type (0, 0), BuildingBlock: AJUNOK_clean_linker_0, # of connection points: 2
#     Edge 43, Type (0, 0), BuildingBlock: AJUNOK_clean_linker_0, # of connection points: 2
#     Edge 44, Type (0, 0), BuildingBlock: AJUNOK_clean_linker_0, # of connection points: 2
#     Edge 45, Type (0, 0), BuildingBlock: AJUNOK_clean_linker_0, # of connection points: 2
#     Edge 46, Type (0, 0), BuildingBlock: AJUNOK_clean_linker_0, # of connection points: 2
#     Edge 47, Type (0, 0), BuildingBlock: AJUNOK_clean_linker_0, # of connection points: 2
#     Edge 48, Type (0, 0), BuildingBlock: AJUNOK_clean_linker_0, # of connection points: 2
#     Edge 49, Type (0, 0), BuildingBlock: AJUNOK_clean_linker_0, # of connection points: 2
#     Edge 50, Type (0, 0), BuildingBlock: AJUNOK_clean_linker_0, # of connection points: 2
#     Edge 51, Type (0, 0), BuildingBlock: AJUNOK_clean_linker_0, # of connection points: 2
#     Edge 52, Type (0, 0), BuildingBlock: AJUNOK_clean_linker_0, # of connection points: 2
#     Edge 53, Type (0, 0), BuildingBlock: AJUNOK_clean_linker_0, # of connection points: 2
#     Edge 54, Type (0, 0), BuildingBlock: AJUNOK_clean_linker_0, # of connection points: 2
#     Edge 55, Type (0, 0), BuildingBlock: AJUNOK_clean_linker_0, # of connection points: 2
#     Edge 56, Type (0, 0), BuildingBlock: AJUNOK_clean_linker_0, # of connection points: 2
#     Edge 57, Type (0, 0), BuildingBlock: AJUNOK_clean_linker_0, # of connection points: 2
#     Edge 58, Type (0, 0), BuildingBlock: AJUNOK_clean_linker_0, # of connection points: 2
#     Edge 59, Type (0, 0), BuildingBlock: AJUNOK_clean_linker_0, # of connection points: 2
#     Edge 60, Type (0, 0), BuildingBlock: AJUNOK_clean_linker_0, # of connection points: 2
#     Edge 61, Type (0, 0), BuildingBlock: AJUNOK_clean_linker_0, # of connection points: 2
#     Edge 62, Type (0, 0), BuildingBlock: AJUNOK_clean_linker_0, # of connection points: 2
#     Edge 63, Type (0, 0), BuildingBlock: AJUNOK_clean_linker_0, # of connection points: 2
#     Edge 64, Type (0, 0), BuildingBlock: AJUNOK_clean_linker_0, # of connection points: 2
#     Edge 65, Type (0, 0), BuildingBlock: AJUNOK_clean_linker_0, # of connection points: 2
#     Edge 66, Type (0, 0), BuildingBlock: AJUNOK_clean_linker_0, # of connection points: 2
#     Edge 67, Type (0, 0), BuildingBlock: AJUNOK_clean_linker_0, # of connection points: 2
#     Edge 68, Type (0, 0), BuildingBlock: AJUNOK_clean_linker_0, # of connection points: 2
#     Edge 69, Type (0, 0), BuildingBlock: AJUNOK_clean_linker_0, # of connection points: 2
#     Edge 70, Type (0, 0), BuildingBlock: AJUNOK_clean_linker_0, # of connection points: 2
#     Edge 71, Type (0, 0), BuildingBlock: AJUNOK_clean_linker_0, # of connection points: 2
#     Edge 72, Type (0, 0), BuildingBlock: AJUNOK_clean_linker_0, # of connection points: 2
#     Edge 73, Type (0, 0), BuildingBlock: AJUNOK_clean_linker_0, # of connection points: 2
#     Edge 74, Type (0, 0), BuildingBlock: AJUNOK_clean_linker_0, # of connection points: 2
#     Edge 75, Type (0, 0), BuildingBlock: AJUNOK_clean_linker_0, # of connection points: 2
#     Edge 76, Type (0, 0), BuildingBlock: AJUNOK_clean_linker_0, # of connection points: 2
#     Edge 77, Type (0, 0), BuildingBlock: AJUNOK_clean_linker_0, # of connection points: 2
#     Edge 78, Type (0, 0), BuildingBlock: AJUNOK_clean_linker_0, # of connection points: 2
#     Edge 79, Type (0, 0), BuildingBlock: AJUNOK_clean_linker_0, # of connection points: 2
#     Edge 80, Type (0, 0), BuildingBlock: AJUNOK_clean_linker_0, # of connection points: 2
#     Edge 81, Type (0, 0), BuildingBlock: AJUNOK_clean_linker_0, # of connection points: 2
#     Edge 82, Type (0, 0), BuildingBlock: AJUNOK_clean_linker_0, # of connection points: 2
#     Edge 83, Type (0, 0), BuildingBlock: AJUNOK_clean_linker_0, # of connection points: 2
#     Edge 84, Type (0, 0), BuildingBlock: AJUNOK_clean_linker_0, # of connection points: 2
#     Edge 85, Type (0, 0), BuildingBlock: AJUNOK_clean_linker_0, # of connection points: 2
#     Edge 86, Type (0, 0), BuildingBlock: AJUNOK_clean_linker_0, # of connection points: 2
#     Edge 87, Type (0, 0), BuildingBlock: AJUNOK_clean_linker_0, # of connection points: 2
#     Edge 88, Type (0, 0), BuildingBlock: AJUNOK_clean_linker_0, # of connection points: 2
#     Edge 89, Type (0, 0), BuildingBlock: AJUNOK_clean_linker_0, # of connection points: 2
#     Edge 90, Type (0, 0), BuildingBlock: AJUNOK_clean_linker_0, # of connection points: 2
#     Edge 91, Type (0, 0), BuildingBlock: AJUNOK_clean_linker_0, # of connection points: 2
#     Edge 92, Type (0, 0), BuildingBlock: AJUNOK_clean_linker_0, # of connection points: 2
#     Edge 93, Type (0, 0), BuildingBlock: AJUNOK_clean_linker_0, # of connection points: 2
#     Edge 94, Type (0, 0), BuildingBlock: AJUNOK_clean_linker_0, # of connection points: 2
#     Edge 95, Type (0, 0), BuildingBlock: AJUNOK_clean_linker_0, # of connection points: 2
#     Edge 96, Type (0, 0), BuildingBlock: AJUNOK_clean_linker_0, # of connection points: 2
#     Edge 97, Type (0, 0), BuildingBlock: AJUNOK_clean_linker_0, # of connection points: 2
#     Edge 98, Type (0, 0), BuildingBlock: AJUNOK_clean_linker_0, # of connection points: 2
#     Edge 99, Type (0, 0), BuildingBlock: AJUNOK_clean_linker_0, # of connection points: 2
#     Edge 100, Type (0, 0), BuildingBlock: AJUNOK_clean_linker_0, # of connection points: 2
#     Edge 101, Type (0, 0), BuildingBlock: AJUNOK_clean_linker_0, # of connection points: 2
#     Edge 102, Type (0, 0), BuildingBlock: AJUNOK_clean_linker_0, # of connection points: 2
#     Edge 103, Type (0, 0), BuildingBlock: AJUNOK_clean_linker_0, # of connection points: 2
#     Edge 104, Type (0, 0), BuildingBlock: AJUNOK_clean_linker_0, # of connection points: 2
#     Edge 105, Type (0, 0), BuildingBlock: AJUNOK_clean_linker_0, # of connection points: 2
#     Edge 106, Type (0, 0), BuildingBlock: AJUNOK_clean_linker_0, # of connection points: 2
#     Edge 107, Type (0, 0), BuildingBlock: AJUNOK_clean_linker_0, # of connection points: 2
# Relax obj value: 0.056
# Max RMSD: 0.062
# Mean RMSD: 0.062
data_MOF--net-ato--node1-NAHDIM_clean_sbu_0--edge1-AJUNOK_clean_linker_0
_symmetry_space_group_name_H-M    P1
_symmetry_Int_Tables_number       1
_symmetry_cell_setting            triclinic
loop_
_symmetry_equiv_pos_as_xyz
'x, y, z'
_cell_length_a     74.607255
_cell_length_b     74.599186
_cell_length_c     18.128034
_cell_angle_alpha  90.004019
_cell_angle_beta   90.007869
_cell_angle_gamma 119.98777
loop_
_atom_site_label
_atom_site_type_symbol
_atom_site_fract_x
_atom_site_fract_y
_atom_site_fract_z
_atom_type_partial_charge
C0 C 0.2187 0.02528 0.35469 0.0
O1 O 0.2051 0.02382 0.30553 0.0
O2 O 0.24256 0.07643 0.2427 0.0
Zn3 Zn 0.24682 0.05179 0.24413 0.0
O4 O 0.23106 0.03102 0.16444 0.0
C5 C 0.28568 0.06705 0.16729 0.0
O6 O 0.27384 0.06372 0.10943 0.0
O7 O 0.23785 0.03689 0.34119 0.0
C8 C 0.22548 0.03467 0.1027 0.0
O9 O 0.22985 0.05363 0.08714 0.0
C10 C 0.22596 0.07691 0.23247 0.0
O11 O 0.20861 0.05954 0.22029 0.0
O12 O 0.27744 0.06276 0.231 0.0
C13 C 0.97189 0.20066 0.35414 0.0
O14 O 0.96768 0.18292 0.32432 0.0
O15 O 0.92767 0.17009 0.24275 0.0
Zn16 Zn 0.94894 0.20023 0.2293 0.0
O17 O 0.96979 0.20437 0.15105 0.0
C18 C 0.91684 0.206 0.16667 0.0
O19 O 0.90963 0.18643 0.1502 0.0
O20 O 0.96487 0.21125 0.32379 0.0
C21 C 0.9665 0.20487 0.08258 0.0
O22 O 0.94839 0.20182 0.06085 0.0
C23 C 0.92658 0.15517 0.20538 0.0
O24 O 0.94071 0.15898 0.15504 0.0
O25 O 0.93394 0.21567 0.20132 0.0
C26 C 0.80805 0.77989 0.35943 0.0
O27 O 0.82577 0.79335 0.32936 0.0
O28 O 0.83667 0.76364 0.24149 0.0
Zn29 Zn 0.80697 0.75666 0.23335 0.0
O30 O 0.80337 0.77379 0.15626 0.0
C31 C 0.79469 0.71397 0.23718 0.0
O32 O 0.8099 0.72139 0.28524 0.0
O33 O 0.79726 0.76234 0.32901 0.0
C34 C 0.80395 0.77054 0.08787 0.0
O35 O 0.80761 0.75581 0.0669 0.0
C36 C 0.85221 0.77891 0.21162 0.0
O37 O 0.84947 0.79225 0.17304 0.0
O38 O 0.78985 0.72637 0.20714 0.0
C39 C 0.0232 0.22773 0.6182 0.0
O40 O 0.02033 0.21377 0.6681 0.0
O41 O 0.07446 0.24701 0.72853 0.0
Zn42 Zn 0.05184 0.25436 0.7271 0.0
O43 O 0.03069 0.24018 0.80718 0.0
C44 C 0.07284 0.29339 0.80315 0.0
O45 O 0.07106 0.28127 0.85857 0.0
O46 O 0.03664 0.24654 0.63016 0.0
C47 C 0.03347 0.23377 0.86868 0.0
O48 O 0.05173 0.23611 0.88399 0.0
C49 C 0.07275 0.22937 0.73907 0.0
O50 O 0.05435 0.21322 0.75033 0.0
O51 O 0.06542 0.28528 0.74078 0.0
C52 C 0.78079 0.80377 0.62363 0.0
O53 O 0.79461 0.81454 0.67433 0.0
O54 O 0.75881 0.83393 0.73511 0.0
Zn55 Zn 0.75351 0.80469 0.7324 0.0
O56 O 0.76846 0.79858 0.81162 0.0
C57 C 0.71445 0.78515 0.80763 0.0
O58 O 0.72611 0.79647 0.86253 0.0
O59 O 0.76194 0.79829 0.63515 0.0
C60 C 0.77514 0.80816 0.87226 0.0
O61 O 0.77261 0.824 0.88689 0.0
C62 C 0.7761 0.85063 0.73938 0.0
O63 O 0.79321 0.84974 0.74307 0.0
O64 O 0.72291 0.78588 0.74602 0.0
C65 C 0.19391 0.97464 0.62031 0.0
O66 O 0.17756 0.97118 0.65873 0.0
O67 O 0.17045 0.92723 0.7372 0.0
Zn68 Zn 0.19859 0.95292 0.74147 0.0
O69 O 0.20037 0.97308 0.81854 0.0
C70 C 0.2149 0.92893 0.80628 0.0
O71 O 0.1961 0.91895 0.83373 0.0
O72 O 0.20536 0.96781 0.64432 0.0
C73 C 0.19595 0.96856 0.88608 0.0
O74 O 0.18898 0.9494 0.90777 0.0
C75 C 0.15335 0.92543 0.75773 0.0
O76 O 0.15299 0.94173 0.78327 0.0
O77 O 0.21977 0.94435 0.7643 0.0
C78 C 0.77751 0.9781 0.61778 0.0
O79 O 0.79125 0.9815 0.66924 0.0
O80 O 0.75677 0.9267 0.73118 0.0
Zn81 Zn 0.75067 0.95013 0.72729 0.0
O82 O 0.76601 0.97181 0.80453 0.0
C83 C 0.71235 0.93139 0.80658 0.0
O84 O 0.72483 0.93318 0.86075 0.0
O85 O 0.75869 0.96454 0.629 0.0
C86 C 0.77308 0.96962 0.86546 0.0
O87 O 0.7703 0.95136 0.88374 0.0
C88 C 0.77436 0.928 0.73695 0.0
O89 O 0.79104 0.94633 0.74136 0.0
O90 O 0.71997 0.93788 0.74286 0.0
C91 C 0.02551 0.79999 0.62623 0.0
O92 O 0.02314 0.81147 0.67586 0.0
O93 O 0.07696 0.82894 0.73961 0.0
Zn94 Zn 0.05269 0.79982 0.7368 0.0
O95 O 0.03145 0.7942 0.81521 0.0
C96 C 0.06927 0.77822 0.81638 0.0
O97 O 0.06702 0.78834 0.87151 0.0
O98 O 0.03812 0.79361 0.63904 0.0
C99 C 0.03444 0.80378 0.87595 0.0
O100 O 0.05296 0.81927 0.89114 0.0
C101 C 0.07668 0.84575 0.74641 0.0
O102 O 0.05884 0.84512 0.75306 0.0
O103 O 0.06395 0.78054 0.75203 0.0
C104 C 0.19585 0.22275 0.62184 0.0
O105 O 0.18225 0.20903 0.66754 0.0
O106 O 0.16577 0.24249 0.72781 0.0
Zn107 Zn 0.19547 0.24931 0.73267 0.0
O108 O 0.20072 0.23414 0.81375 0.0
C109 C 0.22609 0.28963 0.79629 0.0
O110 O 0.23209 0.27909 0.83738 0.0
O111 O 0.20384 0.24185 0.63734 0.0
C112 C 0.19519 0.23325 0.88051 0.0
O113 O 0.18479 0.24244 0.89964 0.0
C114 C 0.14943 0.22642 0.74927 0.0
O115 O 0.15079 0.21098 0.77807 0.0
O116 O 0.21186 0.28011 0.74893 0.0
C117 C 0.9745 0.77717 0.36186 0.0
O118 O 0.97099 0.79104 0.33085 0.0
O119 O 0.92949 0.76253 0.24854 0.0
Zn120 Zn 0.95101 0.75389 0.23823 0.0
O121 O 0.97174 0.77022 0.15982 0.0
C122 C 0.91825 0.7144 0.18824 0.0
O123 O 0.90926 0.72544 0.17679 0.0
O124 O 0.96682 0.75933 0.33285 0.0
C125 C 0.96789 0.76699 0.09141 0.0
O126 O 0.94935 0.75261 0.07032 0.0
C127 C 0.92952 0.77749 0.21486 0.0
O128 O 0.94524 0.78942 0.17215 0.0
O129 O 0.93663 0.72328 0.21345 0.0
C130 C 0.2232 0.19843 0.3586 0.0
O131 O 0.21024 0.18235 0.31918 0.0
O132 O 0.24284 0.17233 0.24345 0.0
Zn133 Zn 0.24858 0.20173 0.23799 0.0
O134 O 0.23149 0.20593 0.16135 0.0
C135 C 0.28721 0.21273 0.17055 0.0
O136 O 0.27554 0.19418 0.14262 0.0
O137 O 0.24162 0.20964 0.33539 0.0
C138 C 0.23004 0.20078 0.09393 0.0
O139 O 0.23981 0.19132 0.07051 0.0
C140 C 0.22731 0.15579 0.22014 0.0
O141 O 0.21187 0.15669 0.1891 0.0
O142 O 0.27903 0.21992 0.21439 0.0
C143 C 0.80539 0.02921 0.35354 0.0
O144 O 0.82368 0.03442 0.32634 0.0
O145 O 0.83457 0.07441 0.24099 0.0
Zn146 Zn 0.80493 0.0518 0.22767 0.0
O147 O 0.80176 0.03173 0.14778 0.0
C148 C 0.796 0.08239 0.16899 0.0
O149 O 0.81585 0.0917 0.15361 0.0
O150 O 0.79441 0.03547 0.32129 0.0
C151 C 0.80308 0.03637 0.07984 0.0
O152 O 0.80765 0.05521 0.06133 0.0
C153 C 0.85006 0.07602 0.20603 0.0
O154 O 0.84732 0.06161 0.15834 0.0
O155 O 0.78771 0.06494 0.20148 0.0
C156 C 0.88417 0.35875 0.7108 0.0
O157 O 0.86976 0.36052 0.67537 0.0
O158 O 0.90239 0.40743 0.59884 0.0
Zn159 Zn 0.91013 0.38514 0.59283 0.0
O160 O 0.89711 0.36632 0.50547 0.0
C161 C 0.94888 0.40542 0.5156 0.0
O162 O 0.93658 0.40257 0.45953 0.0
O163 O 0.90256 0.36819 0.68605 0.0
C164 C 0.90402 0.35423 0.49086 0.0
O165 O 0.91795 0.35415 0.53503 0.0
C166 C 0.8915 0.41006 0.55077 0.0
O167 O 0.88378 0.39699 0.49551 0.0
O168 O 0.94103 0.39938 0.57935 0.0
C169 C 0.63756 0.52992 0.73581 0.0
O170 O 0.62713 0.50987 0.72373 0.0
O171 O 0.59369 0.50272 0.61419 0.0
Zn172 Zn 0.61754 0.53172 0.60037 0.0
O173 O 0.63493 0.5332 0.5131 0.0
C174 C 0.59822 0.55083 0.51929 0.0
O175 O 0.59957 0.53987 0.46511 0.0
O176 O 0.63564 0.54193 0.69095 0.0
C177 C 0.64792 0.55094 0.48818 0.0
O178 O 0.64944 0.56743 0.52037 0.0
C179 C 0.59236 0.48653 0.58566 0.0
O180 O 0.60789 0.48817 0.54624 0.0
O181 O 0.60513 0.54998 0.58253 0.0
C182 C 0.47386 0.11175 0.7066 0.0
O183 O 0.49149 0.12452 0.67439 0.0
O184 O 0.50042 0.09302 0.59046 0.0
Zn185 Zn 0.47106 0.08725 0.58217 0.0
O186 O 0.46777 0.10415 0.50284 0.0
C187 C 0.45697 0.04366 0.58395 0.0
O188 O 0.47294 0.04991 0.62828 0.0
O189 O 0.46224 0.09417 0.67748 0.0
C190 C 0.46454 0.09804 0.43629 0.0
O191 O 0.46459 0.08095 0.41903 0.0
C192 C 0.51544 0.10478 0.5488 0.0
O193 O 0.51242 0.11498 0.49579 0.0
O194 O 0.45273 0.05697 0.55845 0.0
C195 C 0.68948 0.56065 0.99867 0.0
O196 O 0.68543 0.54785 0.05413 0.0
O197 O 0.7435 0.58037 0.0986 0.0
Zn198 Zn 0.72141 0.58849 0.09815 0.0
O199 O 0.70289 0.57826 0.18748 0.0
C200 C 0.74903 0.62616 0.16224 0.0
O201 O 0.75019 0.61255 0.20494 0.0
O202 O 0.70442 0.57912 0.00456 0.0
C203 C 0.69825 0.56254 0.22745 0.0
O204 O 0.7056 0.55032 0.21069 0.0
C205 C 0.74247 0.56311 0.08625 0.0
O206 O 0.72453 0.54677 0.0709 0.0
O207 O 0.73676 0.61961 0.10737 0.0
C208 C 0.44538 0.13462 0.97023 0.0
O209 O 0.45806 0.14449 0.02493 0.0
O210 O 0.42134 0.16239 0.08201 0.0
Zn211 Zn 0.41583 0.13305 0.07446 0.0
O212 O 0.42944 0.12574 0.15575 0.0
C213 C 0.3756 0.11168 0.14128 0.0
O214 O 0.38652 0.12128 0.2 0.0
O215 O 0.42621 0.12839 0.97797 0.0
C216 C 0.43508 0.13461 0.21811 0.0
O217 O 0.43198 0.15005 0.23351 0.0
C218 C 0.43864 0.17858 0.09448 0.0
O219 O 0.45521 0.17691 0.10341 0.0
O220 O 0.38493 0.11411 0.08025 0.0
C221 C 0.86114 0.30691 0.97449 0.0
O222 O 0.84334 0.30158 0.00632 0.0
O223 O 0.83319 0.26091 0.08525 0.0
Zn224 Zn 0.86335 0.28257 0.09306 0.0
O225 O 0.86806 0.30032 0.18312 0.0
C226 C 0.87259 0.24916 0.08412 0.0
O227 O 0.85487 0.23989 0.0487 0.0
O228 O 0.87255 0.30044 0.00186 0.0
C229 C 0.88528 0.30759 0.21654 0.0
O230 O 0.89943 0.30381 0.18985 0.0
C231 C 0.82362 0.25119 0.14297 0.0
O232 O 0.83339 0.2566 0.20651 0.0
O233 O 0.87963 0.2677 0.10569 0.0
C234 C 0.44316 0.30385 0.98168 0.0
O235 O 0.45637 0.29952 0.01345 0.0
O236 O 0.42321 0.25729 0.0985 0.0
Zn237 Zn 0.41861 0.28165 0.10627 0.0
O238 O 0.4364 0.30175 0.18424 0.0
C239 C 0.37497 0.25545 0.09497 0.0
O240 O 0.38105 0.24776 0.04171 0.0
O241 O 0.42543 0.29717 0.01055 0.0
C242 C 0.43411 0.29699 0.25216 0.0
O243 O 0.42024 0.27807 0.2714 0.0
C244 C 0.4392 0.25685 0.12 0.0
O245 O 0.45458 0.27353 0.14963 0.0
O246 O 0.3886 0.27079 0.13131 0.0
C247 C 0.69099 0.13127 0.95914 0.0
O248 O 0.69099 0.14586 -0.00021 0.0
O249 O 0.73841 0.16314 0.07385 0.0
Zn250 Zn 0.71692 0.13273 0.07637 0.0
O251 O 0.69539 0.12685 0.15394 0.0
C252 C 0.74992 0.12318 0.08115 0.0
O253 O 0.75976 0.1407 0.04462 0.0
O254 O 0.70192 0.12347 0.97956 0.0
C255 C 0.69654 0.12068 0.21812 0.0
O256 O 0.7127 0.11893 0.23549 0.0
C257 C 0.74622 0.17274 0.13379 0.0
O258 O 0.73912 0.16285 0.19643 0.0
O259 O 0.73116 0.1164 0.09923 0.0
C260 C 0.86499 0.56053 0.95707 0.0
O261 O 0.85055 0.54711 0.00115 0.0
O262 O 0.83645 0.57911 0.06928 0.0
Zn263 Zn 0.86653 0.58682 0.07201 0.0
O264 O 0.87269 0.57184 0.1512 0.0
C265 C 0.87483 0.62584 0.12878 0.0
O266 O 0.85609 0.61393 0.15472 0.0
O267 O 0.8745 0.57954 0.9752 0.0
C268 C 0.86673 0.57008 0.21775 0.0
O269 O 0.85511 0.5779 0.23735 0.0
C270 C 0.82034 0.56258 0.08929 0.0
O271 O 0.82207 0.54702 0.1146 0.0
O272 O 0.88334 0.61769 0.09135 0.0
C273 C 0.63796 0.10281 0.69922 0.0
O274 O 0.63513 0.11635 0.66224 0.0
O275 O 0.59192 0.08662 0.58862 0.0
Zn276 Zn 0.61342 0.07781 0.58101 0.0
O277 O 0.63427 0.09263 0.50081 0.0
C278 C 0.58238 0.03923 0.52042 0.0
O279 O 0.57514 0.05118 0.49858 0.0
O280 O 0.6294 0.08427 0.67602 0.0
C281 C 0.62988 0.09163 0.43269 0.0
O282 O 0.61042 0.08116 0.41199 0.0
C283 C 0.59167 0.10133 0.55412 0.0
O284 O 0.607 0.11298 0.50949 0.0
O285 O 0.59886 0.04712 0.55879 0.0
C286 C 0.8898 0.5335 0.69421 0.0
O287 O 0.87619 0.51848 0.6523 0.0
O288 O 0.90645 0.50327 0.58697 0.0
Zn289 Zn 0.9152 0.53363 0.57936 0.0
O290 O 0.89956 0.53905 0.50048 0.0
C291 C 0.95444 0.54077 0.52681 0.0
O292 O 0.94278 0.52135 0.50708 0.0
O293 O 0.9087 0.54283 0.67482 0.0
C294 C 0.90309 0.53927 0.43191 0.0
O295 O 0.91736 0.53509 0.40967 0.0
C296 C 0.89281 0.48881 0.54739 0.0
O297 O 0.88244 0.49319 0.49909 0.0
O298 O 0.94603 0.54995 0.55832 0.0
C299 C 0.46908 0.35549 0.71848 0.0
O300 O 0.48154 0.35369 0.67167 0.0
O301 O 0.4984 0.40685 0.60712 0.0
Zn302 Zn 0.46936 0.38254 0.60623 0.0
O303 O 0.46406 0.36126 0.52845 0.0
C304 C 0.4486 0.40076 0.52846 0.0
O305 O 0.4593 0.39984 0.47253 0.0
O306 O 0.46244 0.36777 0.70337 0.0
C307 C 0.47247 0.36386 0.46555 0.0
O308 O 0.48672 0.38251 0.44508 0.0
C309 C 0.51536 0.40728 0.59451 0.0
O310 O 0.51512 0.39007 0.57701 0.0
O311 O 0.45017 0.39386 0.59076 0.0
C312 C 0.55779 0.68637 0.01472 0.0
O313 O 0.54539 0.68124 0.95745 0.0
O314 O 0.57752 0.73981 0.90438 0.0
Zn315 Zn 0.58605 0.71819 0.91514 0.0
O316 O 0.57716 0.69882 0.82858 0.0
C317 C 0.62508 0.73943 0.84832 0.0
O318 O 0.61274 0.73638 0.79221 0.0
O319 O 0.57589 0.70199 0.00988 0.0
C320 C 0.56221 0.69394 0.7845 0.0
O321 O 0.5493 0.70078 0.79654 0.0
C322 C 0.56319 0.74048 0.94001 0.0
O323 O 0.5519 0.72551 0.98639 0.0
O324 O 0.61719 0.73325 0.91194 0.0
C325 C 0.3077 0.88589 0.03281 0.0
O326 O 0.31492 0.89942 0.97877 0.0
O327 O 0.25444 0.83379 0.91625 0.0
Zn328 Zn 0.27704 0.86348 0.92372 0.0
O329 O 0.29875 0.87079 0.8459 0.0
C330 C 0.27005 0.89648 0.86908 0.0
O331 O 0.28784 0.90318 0.83526 0.0
O332 O 0.29093 0.86894 0.02281 0.0
C333 C 0.29483 0.86552 0.77863 0.0
O334 O 0.27547 0.85396 0.75793 0.0
C335 C 0.25635 0.81779 0.91695 0.0
O336 O 0.27491 0.82001 0.92225 0.0
O337 O 0.26325 0.88062 0.91033 0.0
C338 C 0.13107 0.44608 0.03249 0.0
O339 O 0.13934 0.45952 0.97848 0.0
O340 O 0.16847 0.42699 0.94181 0.0
Zn341 Zn 0.13891 0.42055 0.93271 0.0
O342 O 0.13559 0.43532 0.84528 0.0
C343 C 0.1195 0.38261 0.85072 0.0
O344 O 0.12961 0.39542 0.79661 0.0
O345 O 0.12955 0.42842 0.02563 0.0
C346 C 0.11742 0.43095 0.82703 0.0
O347 O 0.10182 0.41776 0.86786 0.0
C348 C 0.1805 0.43303 0.88633 0.0
O349 O 0.17368 0.43606 0.8234 0.0
O350 O 0.12114 0.38981 0.91552 0.0
C351 C 0.35262 0.89844 0.30913 0.0
O352 O 0.34608 0.88286 0.35543 0.0
O353 O 0.40375 0.91018 0.41569 0.0
Zn354 Zn 0.38219 0.91891 0.42486 0.0
O355 O 0.36014 0.90182 0.49959 0.0
C356 C 0.41297 0.95703 0.49281 0.0
O357 O 0.42072 0.94533 0.5123 0.0
O358 O 0.36828 0.91566 0.32666 0.0
C359 C 0.36264 0.90539 0.56842 0.0
O360 O 0.38054 0.92028 0.59248 0.0
C361 C 0.40562 0.8979 0.45945 0.0
O362 O 0.39227 0.88932 0.5135 0.0
O363 O 0.39641 0.94907 0.4549 0.0
C364 C 0.0965 0.46718 0.2846 0.0
O365 O 0.09307 0.48275 0.27797 0.0
O366 O 0.08506 0.4936 0.42488 0.0
Zn367 Zn 0.07872 0.46411 0.42924 0.0
O368 O 0.08716 0.45776 0.52653 0.0
C369 C 0.03849 0.44795 0.48332 0.0
O370 O 0.04969 0.45965 0.53837 0.0
O371 O 0.09164 0.45701 0.3446 0.0
C372 C 0.10498 0.46141 0.54641 0.0
O373 O 0.12062 0.47088 0.50059 0.0
C374 C 0.10206 0.51021 0.43581 0.0
O375 O 0.11867 0.50921 0.45247 0.0
O376 O 0.04767 0.44684 0.42587 0.0
C377 C 0.52876 0.63373 0.27592 0.0
O378 O 0.50878 0.62154 0.28581 0.0
O379 O 0.50344 0.59067 0.40144 0.0
Zn380 Zn 0.5325 0.61454 0.41118 0.0
O381 O 0.5349 0.63146 0.50087 0.0
C382 C 0.55275 0.59505 0.48351 0.0
O383 O 0.54246 0.59609 0.5406 0.0
O384 O 0.5413 0.63304 0.32167 0.0
C385 C 0.5529 0.6448 0.52254 0.0
O386 O 0.56897 0.64707 0.48503 0.0
C387 C 0.48755 0.59058 0.42719 0.0
O388 O 0.48975 0.60725 0.46006 0.0
O389 O 0.5512 0.60238 0.42209 0.0
C390 C 0.10881 0.6364 0.30306 0.0
O391 O 0.12103 0.63114 0.33718 0.0
O392 O 0.08929 0.59109 0.41419 0.0
Zn393 Zn 0.08335 0.6145 0.42442 0.0
O394 O 0.09985 0.63412 0.50562 0.0
C395 C 0.04342 0.58405 0.47602 0.0
O396 O 0.05431 0.57547 0.49618 0.0
O397 O 0.09105 0.63077 0.33013 0.0
C398 C 0.09825 0.62883 0.57291 0.0
O399 O 0.08572 0.60941 0.59077 0.0
C400 C 0.10408 0.58936 0.44095 0.0
O401 O 0.11881 0.60489 0.4779 0.0
O402 O 0.05259 0.60173 0.44507 0.0
C403 C 0.35829 0.4668 0.30708 0.0
O404 O 0.3556 0.47707 0.36066 0.0
O405 O 0.41034 0.49615 0.41377 0.0
Zn406 Zn 0.38664 0.46678 0.41189 0.0
O407 O 0.36585 0.46054 0.49265 0.0
C408 C 0.40341 0.44503 0.48853 0.0
O409 O 0.40015 0.45414 0.54468 0.0
O410 O 0.37137 0.46078 0.31562 0.0
C411 C 0.36872 0.46995 0.55372 0.0
O412 O 0.38701 0.48589 0.56844 0.0
C413 C 0.40936 0.51254 0.42251 0.0
O414 O 0.39125 0.51113 0.43217 0.0
O415 O 0.39868 0.44802 0.42409 0.0
C416 C 0.54346 0.89457 0.31241 0.0
O417 O 0.547 0.88633 0.37067 0.0
O418 O 0.49555 0.90328 0.41298 0.0
Zn419 Zn 0.52512 0.90952 0.42012 0.0
O420 O 0.5286 0.89197 0.49702 0.0
C421 C 0.53819 0.95285 0.42625 0.0
O422 O 0.52214 0.94677 0.38245 0.0
O423 O 0.53434 0.90497 0.32066 0.0
C424 C 0.53247 0.89811 0.56351 0.0
O425 O 0.53298 0.9154 0.5817 0.0
C426 C 0.48185 0.89438 0.46254 0.0
O427 O 0.48651 0.8876 0.52229 0.0
O428 O 0.54285 0.93955 0.44862 0.0
C429 C 0.30688 0.44224 0.04358 0.0
O430 O 0.3013 0.45449 0.01154 0.0
O431 O 0.26226 0.42302 0.9271 0.0
Zn432 Zn 0.2861 0.41752 0.9188 0.0
O433 O 0.30642 0.43488 0.84004 0.0
C434 C 0.25846 0.3772 0.85941 0.0
O435 O 0.24861 0.38677 0.83785 0.0
O436 O 0.30173 0.42487 0.01414 0.0
C437 C 0.30326 0.43029 0.77204 0.0
O438 O 0.28575 0.41407 0.75184 0.0
C439 C 0.25928 0.43462 0.88352 0.0
O440 O 0.27253 0.44417 0.82995 0.0
O441 O 0.27505 0.38722 0.89646 0.0
C442 C 0.57025 0.88187 0.02448 0.0
O443 O 0.57284 0.89397 0.96803 0.0
O444 O 0.57732 0.83346 0.90635 0.0
Zn445 Zn 0.58329 0.86283 0.91668 0.0
O446 O 0.56905 0.87025 0.8382 0.0
C447 C 0.62273 0.88575 0.84442 0.0
O448 O 0.61112 0.87807 0.78542 0.0
O449 O 0.57403 0.86715 0.01624 0.0
C450 C 0.56083 0.86001 0.77975 0.0
O451 O 0.56112 0.84279 0.76772 0.0
C452 C 0.56195 0.81795 0.93594 0.0
O453 O 0.54855 0.82083 0.97357 0.0
O454 O 0.61412 0.88155 0.90744 0.0
C455 C 0.13446 0.68671 0.037 0.0
O456 O 0.1439 0.68291 0.98326 0.0
O457 O 0.16317 0.73817 0.92078 0.0
Zn458 Zn 0.13404 0.71422 0.9288 0.0
O459 O 0.12709 0.69249 0.85134 0.0
C460 C 0.11252 0.73197 0.85534 0.0
O461 O 0.12184 0.72964 0.79772 0.0
O462 O 0.12904 0.7002 0.02728 0.0
C463 C 0.13613 0.6948 0.78988 0.0
O464 O 0.1516 0.71308 0.7718 0.0
C465 C 0.18003 0.73783 0.91862 0.0
O466 O 0.17949 0.71997 0.92084 0.0
O467 O 0.11507 0.72596 0.91805 0.0
C468 C 0.22 0.99644 0.52516 0.0
C469 C 0.19963 0.98731 0.55221 0.0
C470 C 0.22607 0.00893 0.46205 0.0
C471 C 0.21193 0.01258 0.42275 0.0
H472 H 0.23149 0.99412 0.55335 0.0
H473 H 0.24193 0.01556 0.44348 0.0
S474 S 0.15667 0.99221 0.47021 0.0
N475 N 0.16528 0.98282 0.53481 0.0
N476 N 0.17661 0.00611 0.41567 0.0
C477 C 0.19148 0.0035 0.44897 0.0
C478 C 0.18535 0.99094 0.51381 0.0
C479 C 0.99995 0.2006 0.52857 0.0
C480 C 0.0105 0.22151 0.55009 0.0
C481 C 0.98756 0.19408 0.4652 0.0
C482 C 0.98494 0.20815 0.4213 0.0
H483 H 0.00136 0.18911 0.56063 0.0
H484 H 0.97984 0.1778 0.45094 0.0
S485 S 0.00906 0.2647 0.45365 0.0
N486 N 0.01752 0.25636 0.52228 0.0
N487 N 0.994 0.24405 0.40364 0.0
C488 C 0.9953 0.22913 0.44228 0.0
C489 C 0.00816 0.23582 0.50643 0.0
C490 C 0.81462 0.80214 0.47058 0.0
C491 C 0.80059 0.78546 0.42657 0.0
C492 C 0.80805 0.80793 0.53402 0.0
C493 C 0.78712 0.79748 0.55539 0.0
H494 H 0.83089 0.81074 0.45636 0.0
H495 H 0.81948 0.82081 0.56629 0.0
S496 S 0.74404 0.75287 0.45857 0.0
N497 N 0.76472 0.75857 0.40863 0.0
N498 N 0.75232 0.76961 0.52735 0.0
C499 C 0.77286 0.78086 0.51157 0.0
C500 C 0.7796 0.77479 0.44741 0.0
C501 C 0.80499 0.0015 0.52952 0.0
C502 C 0.78393 0.99054 0.54913 0.0
C503 C 0.81172 0.01385 0.46609 0.0
C504 C 0.7977 0.016 0.42021 0.0
H505 H 0.81644 0.0005 0.56328 0.0
H506 H 0.8281 0.02195 0.45345 0.0
S507 S 0.74082 0.99057 0.44683 0.0
N508 N 0.74902 0.98255 0.51721 0.0
N509 N 0.76168 0.00595 0.39841 0.0
C510 C 0.77657 0.00515 0.43911 0.0
C511 C 0.76968 0.99235 0.50334 0.0
C512 C 0.00344 0.80525 0.53512 0.0
C513 C 0.01299 0.79399 0.55778 0.0
C514 C 0.99111 0.79972 0.47161 0.0
C515 C 0.98757 0.78252 0.42883 0.0
H516 H 0.00557 0.81854 0.56645 0.0
H517 H 0.98415 0.80892 0.45644 0.0
S518 S 0.00896 0.74782 0.46431 0.0
N519 N 0.01812 0.76484 0.53216 0.0
N520 N 0.99476 0.75431 0.41329 0.0
C521 C 0.99698 0.77107 0.45088 0.0
C522 C 0.00976 0.77686 0.51512 0.0
C523 C 0.22737 0.22428 0.4549 0.0
C524 C 0.21613 0.20404 0.42667 0.0
C525 C 0.22058 0.23022 0.51747 0.0
C526 C 0.20241 0.21609 0.55493 0.0
H527 H 0.24141 0.23576 0.4279 0.0
H528 H 0.22977 0.24601 0.53686 0.0
S529 S 0.16757 0.16102 0.50444 0.0
N530 N 0.18602 0.16973 0.44156 0.0
N531 N 0.17336 0.18083 0.55939 0.0
C532 C 0.19112 0.19572 0.52772 0.0
C533 C 0.19793 0.18973 0.46356 0.0
C534 C 0.85914 0.33749 0.80995 0.0
C535 C 0.87893 0.34574 0.77828 0.0
C536 C 0.85363 0.32506 0.87327 0.0
C537 C 0.86761 0.32022 0.90753 0.0
H538 H 0.84773 0.34067 0.78586 0.0
H539 H 0.83818 0.31914 0.89519 0.0
S540 S 0.92146 0.33786 0.84668 0.0
N541 N 0.91265 0.34813 0.78626 0.0
N542 N 0.90227 0.32476 0.90495 0.0
C543 C 0.88749 0.32834 0.87649 0.0
C544 C 0.89315 0.3411 0.81208 0.0
C545 C 0.65011 0.52481 0.85777 0.0
C546 C 0.65118 0.53832 0.80157 0.0
C547 C 0.66253 0.53221 0.92096 0.0
C548 C 0.67671 0.55344 0.93052 0.0
H549 H 0.63944 0.50832 0.85343 0.0
H550 H 0.66098 0.5211 0.96255 0.0
S551 S 0.68591 0.59538 0.799 0.0
N552 N 0.66783 0.57405 0.75924 0.0
N553 N 0.69123 0.58793 0.87774 0.0
C554 C 0.67811 0.56715 0.87447 0.0
C555 C 0.66534 0.55961 0.8102 0.0
C556 C 0.44613 0.10733 0.7946 0.0
C557 C 0.46713 0.11803 0.77396 0.0
C558 C 0.43921 0.11308 0.85726 0.0
C559 C 0.45304 0.12955 0.90248 0.0
H560 H 0.43486 0.09449 0.76179 0.0
H561 H 0.4229 0.10429 0.87092 0.0
S562 S 0.50961 0.16269 0.87269 0.0
N563 N 0.5017 0.14607 0.80352 0.0
N564 N 0.48872 0.15669 0.92179 0.0
C565 C 0.47408 0.14041 0.88255 0.0
C566 C 0.48111 0.13471 0.81818 0.0
C567 C 0.473 0.3328 0.81084 0.0
C568 C 0.46223 0.34268 0.78626 0.0
C569 C 0.46671 0.3203 0.87399 0.0
C570 C 0.44922 0.31694 0.91456 0.0
H571 H 0.48651 0.33481 0.78137 0.0
H572 H 0.47558 0.31312 0.89074 0.0
S573 S 0.41544 0.33907 0.87312 0.0
N574 N 0.43312 0.3482 0.80744 0.0
N575 N 0.42119 0.32457 0.92561 0.0
C576 C 0.43821 0.32664 0.89042 0.0
C577 C 0.44475 0.33955 0.82651 0.0
C578 C 0.66944 0.13525 0.86209 0.0
C579 C 0.67782 0.12364 0.89223 0.0
C580 C 0.6566 0.12834 0.79988 0.0
C581 C 0.65136 0.10941 0.76568 0.0
H582 H 0.67289 0.14989 0.88646 0.0
H583 H 0.65062 0.13792 0.77881 0.0
S584 S 0.6691 0.07303 0.82302 0.0
N585 N 0.67994 0.0922 0.88299 0.0
N586 N 0.65564 0.07914 0.76648 0.0
C587 C 0.65955 0.09757 0.79533 0.0
C588 C 0.67283 0.10471 0.85836 0.0
C589 C 0.89624 0.55938 0.79353 0.0
C590 C 0.88311 0.53996 0.76127 0.0
C591 C 0.89012 0.56606 0.85601 0.0
C592 C 0.87075 0.55345 0.88934 0.0
H593 H 0.91133 0.56964 0.77002 0.0
H594 H 0.90081 0.58111 0.87889 0.0
S595 S 0.83055 0.50123 0.82644 0.0
N596 N 0.84973 0.50823 0.76729 0.0
N597 N 0.83834 0.52067 0.88493 0.0
C598 C 0.85746 0.53399 0.85772 0.0
C599 C 0.8636 0.52727 0.79366 0.0
C600 C 0.52304 0.64529 0.1529 0.0
C601 C 0.53656 0.64779 0.21119 0.0
C602 C 0.53004 0.65793 0.09012 0.0
C603 C 0.55082 0.67373 0.08315 0.0
H604 H 0.50693 0.63328 0.15511 0.0
H605 H 0.519 0.65518 0.04661 0.0
S606 S 0.59239 0.68732 0.22166 0.0
N607 N 0.57168 0.66772 0.25885 0.0
N608 N 0.58479 0.6915 0.14119 0.0
C609 C 0.56446 0.67666 0.14164 0.0
C610 C 0.55735 0.66369 0.20545 0.0
C611 C 0.32325 0.87721 0.22332 0.0
C612 C 0.34157 0.89591 0.23831 0.0
C613 C 0.31236 0.87424 0.15729 0.0
C614 C 0.31933 0.88983 0.10313 0.0
H615 H 0.31717 0.86465 0.26292 0.0
H616 H 0.29841 0.8595 0.14861 0.0
S617 S 0.36638 0.94184 0.11527 0.0
N618 N 0.36615 0.93039 0.19344 0.0
N619 N 0.34572 0.92483 0.06938 0.0
C620 C 0.33759 0.90868 0.11743 0.0
C621 C 0.34868 0.91171 0.1849 0.0
C622 C 0.1126 0.47416 0.15912 0.0
C623 C 0.10569 0.46153 0.22234 0.0
C624 C 0.12101 0.46916 0.09878 0.0
C625 C 0.12277 0.45123 0.09871 0.0
H626 H 0.11149 0.48807 0.15584 0.0
H627 H 0.12592 0.47937 0.05141 0.0
S628 S 0.10745 0.41312 0.25137 0.0
N629 N 0.10158 0.43041 0.28173 0.0
N630 N 0.11728 0.42098 0.16823 0.0
C631 C 0.1161 0.43852 0.16182 0.0
C632 C 0.10761 0.44367 0.22358 0.0
C633 C 0.10613 0.66037 0.21325 0.0
C634 C 0.11583 0.64922 0.23542 0.0
C635 C 0.11257 0.6728 0.14996 0.0
C636 C 0.12876 0.67432 0.10568 0.0
H637 H 0.09352 0.65963 0.2453 0.0
H638 H 0.10452 0.68099 0.13502 0.0
S639 S 0.15935 0.64831 0.13959 0.0
N640 N 0.14263 0.64066 0.20835 0.0
N641 N 0.15455 0.66381 0.0889 0.0
C642 C 0.13864 0.66329 0.12721 0.0
C643 C 0.13223 0.65081 0.1922 0.0
C644 C 0.34358 0.44514 0.194 0.0
C645 C 0.34541 0.46123 0.23958 0.0
C646 C 0.33093 0.439 0.13129 0.0
C647 C 0.31981 0.44889 0.11104 0.0
H648 H 0.35177 0.43698 0.20728 0.0
H649 H 0.33003 0.4265 0.09812 0.0
S650 S 0.31949 0.49216 0.21105 0.0
N651 N 0.33512 0.48709 0.25978 0.0
N652 N 0.3115 0.47568 0.14148 0.0
C653 C 0.32162 0.46514 0.1557 0.0
C654 C 0.33436 0.47126 0.22007 0.0
C655 C 0.55804 0.87823 0.22926 0.0
C656 C 0.55003 0.89165 0.23813 0.0
C657 C 0.56441 0.8751 0.16008 0.0
C658 C 0.56319 0.88538 0.09683 0.0
H659 H 0.55939 0.86997 0.2761 0.0
H660 H 0.57048 0.86464 0.15644 0.0
S661 S 0.54313 0.922 0.08961 0.0
N662 N 0.54105 0.91518 0.17716 0.0
N663 N 0.55307 0.90937 0.04736 0.0
C664 C 0.55517 0.89883 0.10474 0.0
C665 C 0.54858 0.90193 0.17522 0.0
C666 C 0.20245 0.9814 0.01602 0.0
C667 C 0.20111 0.98521 0.94085 0.0
C668 C 0.20971 0.99739 0.06803 0.0
C669 C 0.21581 0.01785 0.0472 0.0
H670 H 0.19857 0.96609 0.03477 0.0
H671 H 0.21098 0.9937 0.12489 0.0
S672 S 0.21307 0.03557 0.85826 0.0
N673 N 0.20486 0.01064 0.84886 0.0
N674 N 0.21847 0.04069 0.9467 0.0
C675 C 0.21354 0.02169 0.97275 0.0
C676 C 0.20622 0.00538 0.9196 0.0
C677 C 0.98065 0.21474 0.95491 0.0
C678 C 0.9834 0.21055 0.02836 0.0
C679 C 0.9968 0.22178 0.90366 0.0
C680 C 0.0164 0.22487 0.92346 0.0
H681 H 0.96605 0.21306 0.93693 0.0
H682 H 0.99389 0.22512 0.84822 0.0
S683 S 0.03124 0.21459 0.10752 0.0
N684 N 0.00695 0.20884 0.11744 0.0
N685 N 0.0373 0.22206 0.02098 0.0
C686 C 0.01919 0.22004 0.99609 0.0
C687 C 0.00271 0.2129 0.04851 0.0
C688 C 0.78778 0.78403 0.90764 0.0
C689 C 0.78433 0.80034 0.92718 0.0
C690 C 0.7948 0.77501 0.95933 0.0
C691 C 0.79859 0.78184 0.03293 0.0
H692 H 0.78467 0.77782 0.85212 0.0
H693 H 0.79669 0.76218 0.94167 0.0
S694 S 0.7938 0.82529 0.11129 0.0
N695 N 0.78657 0.82387 0.02442 0.0
N696 N 0.79977 0.80692 0.12172 0.0
C697 C 0.79601 0.79869 0.05271 0.0
C698 C 0.7889 0.80794 -0.00015 0.0
C699 C 0.784 0.98353 0.99316 0.0
C700 C 0.78278 0.9872 0.91778 0.0
C701 C 0.79119 0.99965 0.04475 0.0
C702 C 0.79757 0.02011 0.023 0.0
H703 H 0.7787 0.96798 0.013 0.0
H704 H 0.79123 0.99586 0.10241 0.0
S705 S 0.7998 0.03829 0.83064 0.0
N706 N 0.79025 0.01309 0.82289 0.0
N707 N 0.80382 0.04337 0.91965 0.0
C708 C 0.79739 0.02415 0.94723 0.0
C709 C 0.78998 0.00771 0.89472 0.0
C710 C 0.99756 0.78005 0.9112 0.0
C711 C 0.01741 0.79616 0.93076 0.0
C712 C 0.9815 0.77121 0.96288 0.0
C713 C 0.98462 0.77803 0.0365 0.0
H714 H 0.9944 0.77385 0.85566 0.0
H715 H 0.9667 0.75853 0.9452 0.0
S716 S 0.03317 0.82101 0.11499 0.0
N717 N 0.0389 0.8195 0.02812 0.0
N718 N 0.00873 0.80289 0.12536 0.0
C719 C 0.00416 0.79468 0.05633 0.0
C720 C 0.02054 0.80375 0.00348 0.0
C721 C 0.22203 0.20627 0.96479 0.0
C722 C 0.21919 0.2073 0.04102 0.0
C723 C 0.21371 0.21417 0.91359 0.0
C724 C 0.20211 0.22339 0.93629 0.0
H725 H 0.23128 0.19986 0.94427 0.0
H726 H 0.21683 0.21341 0.85566 0.0
S727 S 0.18833 0.22799 0.12948 0.0
N728 N 0.2026 0.21686 0.13667 0.0
N729 N 0.18695 0.2317 0.04037 0.0
C730 C 0.19836 0.22371 0.01225 0.0
C731 C 0.2069 0.21569 0.06455 0.0
C732 C 0.91028 0.33341 0.39755 0.0
C733 C 0.89822 0.34194 0.42179 0.0
C734 C 0.90596 0.32248 0.33114 0.0
C735 C 0.88926 0.31937 0.28633 0.0
H736 H 0.92343 0.33542 0.42954 0.0
H737 H 0.91583 0.31633 0.31515 0.0
S738 S 0.85259 0.33819 0.32514 0.0
N739 N 0.86867 0.34638 0.39594 0.0
N740 N 0.86039 0.32558 0.27121 0.0
C741 C 0.87687 0.32759 0.31013 0.0
C742 C 0.8814 0.33894 0.37772 0.0
C743 C 0.68256 0.57493 0.32176 0.0
C744 C 0.68528 0.55882 0.29401 0.0
C745 C 0.67061 0.57221 0.38467 0.0
C746 C 0.66063 0.55318 0.42221 0.0
H747 H 0.68989 0.58994 0.29509 0.0
H748 H 0.66907 0.58515 0.40352 0.0
S749 S 0.66257 0.50589 0.37217 0.0
N750 N 0.67694 0.52306 0.30905 0.0
N751 N 0.65424 0.51785 0.42712 0.0
C752 C 0.66309 0.53684 0.39506 0.0
C753 C 0.67548 0.5397 0.33114 0.0
C754 C 0.44559 0.10904 0.25713 0.0
C755 C 0.44403 0.12666 0.2736 0.0
C756 C 0.4528 0.10032 0.30934 0.0
C757 C 0.45879 0.10882 0.3804 0.0
H758 H 0.44085 0.10159 0.20375 0.0
H759 H 0.45324 0.08651 0.29408 0.0
S760 S 0.45929 0.15595 0.44991 0.0
N761 N 0.45024 0.15305 0.36502 0.0
N762 N 0.46382 0.13668 0.46323 0.0
C763 C 0.45799 0.12688 0.39698 0.0
C764 C 0.45061 0.13577 0.34366 0.0
C765 C 0.45891 0.33384 0.28588 0.0
C766 C 0.4455 0.31328 0.30843 0.0
C767 C 0.46825 0.34999 0.33721 0.0
C768 C 0.46451 0.34626 0.41319 0.0
H769 H 0.46181 0.33768 0.22786 0.0
H770 H 0.47787 0.3656 0.31679 0.0
S771 S 0.43276 0.29491 0.50202 0.0
N772 N 0.4305 0.28987 0.41277 0.0
N773 N 0.44802 0.3202 0.50914 0.0
C774 C 0.45198 0.32564 0.43687 0.0
C775 C 0.44251 0.30918 0.38457 0.0
C776 C 0.68293 0.11235 0.34675 0.0
C777 C 0.67954 0.11466 0.27194 0.0
C778 C 0.66692 0.10554 0.39848 0.0
C779 C 0.64677 0.10047 0.37742 0.0
H780 H 0.69806 0.11566 0.36564 0.0
H781 H 0.67032 0.1037 0.45517 0.0
S782 S 0.62988 0.10475 0.18882 0.0
N783 N 0.65464 0.11214 0.17971 0.0
N784 N 0.62448 0.0991 0.27699 0.0
C785 C 0.64322 0.10315 0.30308 0.0
C786 C 0.65962 0.11031 0.25037 0.0
C787 C 0.89761 0.54748 0.30298 0.0
C788 C 0.89226 0.54559 0.3781 0.0
C789 C 0.88885 0.55487 0.25158 0.0
C790 C 0.87436 0.56075 0.27298 0.0
H791 H 0.909 0.54361 0.28361 0.0
H792 H 0.89388 0.55638 0.19472 0.0
S793 S 0.85374 0.55721 0.46216 0.0
N794 N 0.8705 0.54903 0.47074 0.0
N795 N 0.8541 0.56297 0.37407 0.0
C796 C 0.8683 0.55828 0.34752 0.0
C797 C 0.87722 0.5507 0.4 0.0
C798 C 0.53879 0.65861 0.61855 0.0
C799 C 0.55566 0.65742 0.58932 0.0
C800 C 0.54103 0.67053 0.68141 0.0
C801 C 0.56013 0.68144 0.71813 0.0
H802 H 0.52374 0.65041 0.59236 0.0
H803 H 0.52763 0.67103 0.70172 0.0
S804 S 0.6092 0.68357 0.66392 0.0
N805 N 0.59219 0.66834 0.6019 0.0
N806 N 0.59634 0.69051 0.72007 0.0
C807 C 0.57712 0.68034 0.68961 0.0
C808 C 0.5749 0.66841 0.62521 0.0
C809 C 0.33207 0.8888 0.74692 0.0
C810 C 0.31195 0.8741 0.72399 0.0
C811 C 0.34836 0.89842 0.69645 0.0
C812 C 0.34529 0.89375 0.62073 0.0
H813 H 0.33529 0.89332 0.80435 0.0
H814 H 0.36341 0.90989 0.71714 0.0
S815 S 0.2959 0.85525 0.53237 0.0
N816 N 0.2901 0.85452 0.62059 0.0
N817 N 0.32072 0.87257 0.52559 0.0
C818 C 0.3254 0.87859 0.59713 0.0
C819 C 0.30874 0.86879 0.64871 0.0
C820 C 0.13069 0.45226 0.71201 0.0
C821 C 0.11386 0.4394 0.75788 0.0
C822 C 0.12771 0.4595 0.64432 0.0
C823 C 0.10779 0.45423 0.61971 0.0
H824 H 0.14634 0.45659 0.72786 0.0
H825 H 0.14117 0.46917 0.61085 0.0
S826 S 0.05847 0.42144 0.72005 0.0
N827 N 0.07651 0.42209 0.77446 0.0
N828 N 0.0709 0.43565 0.64771 0.0
C829 C 0.09082 0.44168 0.6657 0.0
C830 C 0.09386 0.43428 0.73456 0.0
C831 C 0.13239 0.68134 0.66119 0.0
C832 C 0.12794 0.6774 0.73673 0.0
C833 C 0.12316 0.66542 0.60901 0.0
C834 C 0.10922 0.64487 0.63027 0.0
H835 H 0.14254 0.69696 0.64176 0.0
H836 H 0.12668 0.66941 0.55131 0.0
S837 S 0.09421 0.62602 0.82247 0.0
N838 N 0.10997 0.65118 0.83103 0.0
N839 N 0.09268 0.62125 0.73309 0.0
C840 C 0.1054 0.64055 0.70606 0.0
C841 C 0.11473 0.65681 0.7592 0.0
C842 C 0.31673 0.43503 0.6433 0.0
C843 C 0.31968 0.44202 0.71672 0.0
C844 C 0.33248 0.44458 0.59089 0.0
C845 C 0.35191 0.46156 0.60945 0.0
H846 H 0.30228 0.42174 0.6262 0.0
H847 H 0.32945 0.43823 0.53556 0.0
S848 S 0.36705 0.48706 0.7928 0.0
N849 N 0.34313 0.46788 0.8044 0.0
N850 N 0.37278 0.48582 0.70569 0.0
C851 C 0.35484 0.46928 0.68199 0.0
C852 C 0.33874 0.45951 0.7356 0.0
C853 C 0.55105 0.88617 0.74165 0.0
C854 C 0.55209 0.86829 0.72468 0.0
C855 C 0.54416 0.89528 0.68987 0.0
C856 C 0.53802 0.88696 0.61862 0.0
H857 H 0.5559 0.89347 0.79524 0.0
H858 H 0.54406 0.90923 0.70568 0.0
S859 S 0.5366 0.83957 0.54722 0.0
N860 N 0.54548 0.84203 0.63221 0.0
N861 N 0.53252 0.85916 0.53473 0.0
C862 C 0.53838 0.86872 0.60138 0.0
C863 C 0.5454 0.85939 0.65437 0.0
C864 C 0.34291 0.09594 0.21517 0.0
C865 C 0.35267 0.09911 0.14611 0.0
C866 C 0.3213 0.08513 0.22157 0.0
C867 C 0.3085 0.07711 0.15912 0.0
H868 H 0.35198 0.10207 0.26498 0.0
H869 H 0.31463 0.08347 0.27594 0.0
S870 S 0.32622 0.07999 0.96573 0.0
N871 N 0.34778 0.09245 0.01406 0.0
N872 N 0.3072 0.07221 0.02607 0.0
C873 C 0.31802 0.07969 0.08982 0.0
C874 C 0.34007 0.09064 0.08332 0.0
C875 C 0.90337 0.24839 0.13622 0.0
C876 C 0.88373 0.23786 0.10254 0.0
C877 C 0.91394 0.23801 0.15657 0.0
C878 C 0.90533 0.21664 0.14422 0.0
H879 H 0.91067 0.26483 0.14733 0.0
H880 H 0.92899 0.24688 0.18231 0.0
S881 S 0.85413 0.18169 0.05879 0.0
N882 N 0.85602 0.20468 0.05827 0.0
N883 N 0.8758 0.18522 0.09646 0.0
C884 C 0.88571 0.20589 0.11044 0.0
C885 C 0.87495 0.21647 0.08961 0.0
C886 C 0.75593 0.66258 0.14929 0.0
C887 C 0.76132 0.64857 0.17979 0.0
C888 C 0.76679 0.68366 0.16802 0.0
C889 C 0.78355 0.69161 0.21772 0.0
H890 H 0.74299 0.65718 0.11154 0.0
H891 H 0.76188 0.69375 0.14358 0.0
S892 S 0.80482 0.66158 0.30895 0.0
N893 N 0.78519 0.64432 0.25947 0.0
N894 N 0.80557 0.68378 0.29448 0.0
C895 C 0.78938 0.6778 0.24738 0.0
C896 C 0.77828 0.65635 0.22849 0.0
C897 C 0.08985 0.32461 0.88469 0.0
C898 C 0.08397 0.31621 0.81333 0.0
C899 C 0.101 0.34604 0.89628 0.0
C900 C 0.10693 0.36001 0.83693 0.0
H901 H 0.08592 0.31456 0.93232 0.0
H902 H 0.1053 0.35167 0.95224 0.0
S903 S 0.09471 0.34615 0.63925 0.0
N904 N 0.0844 0.32369 0.6824 0.0
N905 N 0.10543 0.36394 0.70416 0.0
C906 C 0.1009 0.35188 0.7653 0.0
C907 C 0.0894 0.33002 0.75352 0.0
C908 C 0.68274 0.77104 0.88676 0.0
C909 C 0.69166 0.77251 0.81691 0.0
C910 C 0.66123 0.75998 0.89681 0.0
C911 C 0.64777 0.75014 0.83726 0.0
H912 H 0.69241 0.77863 0.93423 0.0
H913 H 0.65512 0.75954 0.95141 0.0
S914 S 0.66309 0.74799 0.64401 0.0
N915 N 0.68519 0.76218 0.68776 0.0
N916 N 0.64484 0.74158 0.7067 0.0
C917 C 0.65643 0.75108 0.76743 0.0
C918 C 0.67834 0.76219 0.75725 0.0
C919 C 0.22405 0.90516 0.87207 0.0
C920 C 0.22986 0.92185 0.8233 0.0
C921 C 0.23733 0.89747 0.88761 0.0
C922 C 0.25705 0.90608 0.855 0.0
H923 H 0.20898 0.89773 0.89819 0.0
H924 H 0.23187 0.88441 0.92482 0.0
S925 S 0.28021 0.95065 0.72552 0.0
N926 N 0.25706 0.94725 0.7441 0.0
N927 N 0.28203 0.93278 0.77322 0.0
C928 C 0.2633 0.92308 0.80722 0.0
C929 C 0.24972 0.93096 0.79142 0.0
C930 C 0.67617 0.91483 0.75741 0.0
C931 C 0.68962 0.92082 0.8184 0.0
C932 C 0.65464 0.90379 0.76658 0.0
C933 C 0.64561 0.89836 0.83716 0.0
H934 H 0.68228 0.91834 0.70179 0.0
H935 H 0.64504 0.89932 0.71762 0.0
S936 S 0.67395 0.91142 0.01548 0.0
N937 N 0.69231 0.92124 0.95229 0.0
N938 N 0.6519 0.90058 0.96955 0.0
C939 C 0.65887 0.90471 0.89884 0.0
C940 C 0.68083 0.91589 0.88946 0.0
C941 C 0.08591 0.7587 0.76721 0.0
C942 C 0.07905 0.76534 0.82813 0.0
C943 C 0.09636 0.74763 0.77668 0.0
C944 C 0.10027 0.74258 0.84745 0.0
H945 H 0.08361 0.76245 0.71156 0.0
H946 H 0.10161 0.74322 0.72789 0.0
S947 S 0.08432 0.75517 0.02528 0.0
N948 N 0.07607 0.76521 0.96187 0.0
N949 N 0.09561 0.74435 0.97968 0.0
C950 C 0.09296 0.74859 0.9089 0.0
C951 C 0.0824 0.75998 0.89924 0.0
C952 C 0.25068 0.32276 0.86046 0.0
C953 C 0.23472 0.31218 0.80864 0.0
C954 C 0.2584 0.3438 0.87588 0.0
C955 C 0.2504 0.3551 0.84054 0.0
H956 H 0.25718 0.31473 0.89002 0.0
H957 H 0.27055 0.35114 0.91672 0.0
S958 S 0.20913 0.33501 0.69782 0.0
N959 N 0.21164 0.31493 0.72004 0.0
N960 N 0.22608 0.3543 0.74928 0.0
C961 C 0.23467 0.34482 0.78773 0.0
C962 C 0.22687 0.32344 0.77169 0.0
C963 C 0.91788 0.68137 0.15851 0.0
C964 C 0.90696 0.69187 0.17274 0.0
C965 C 0.90742 0.66007 0.14309 0.0
C966 C 0.88566 0.64842 0.14286 0.0
H967 H 0.93464 0.6897 0.15855 0.0
H968 H 0.91645 0.65262 0.13242 0.0
S969 S 0.8498 0.66852 0.17692 0.0
N970 N 0.87313 0.68897 0.18523 0.0
N971 N 0.85354 0.64902 0.15747 0.0
C972 C 0.87457 0.65873 0.15723 0.0
C973 C 0.88519 0.68043 0.17179 0.0
C974 C 0.33838 0.22711 0.07876 0.0
C975 C 0.35266 0.2456 0.11415 0.0
C976 C 0.31735 0.21684 0.0971 0.0
C977 C 0.30957 0.22462 0.15145 0.0
H978 H 0.34346 0.22026 0.03694 0.0
H979 H 0.30715 0.20258 0.06837 0.0
S980 S 0.34028 0.2729 0.25932 0.0
N981 N 0.35741 0.27158 0.20536 0.0
N982 N 0.31781 0.25228 0.23963 0.0
C983 C 0.32357 0.2433 0.18661 0.0
C984 C 0.3451 0.25376 0.16807 0.0
C985 C 0.78215 0.12081 0.08744 0.0
C986 C 0.76095 0.11206 0.10335 0.0
C987 C 0.79322 0.11108 0.10897 0.0
C988 C 0.7836 0.09213 0.14729 0.0
H989 H 0.79042 0.13542 0.0584 0.0
H990 H 0.80953 0.1186 0.09532 0.0
S991 S 0.72826 0.06252 0.20222 0.0
N992 N 0.73064 0.08316 0.15968 0.0
N993 N 0.75146 0.06486 0.2 0.0
C994 C 0.76236 0.08311 0.16338 0.0
C995 C 0.75105 0.09306 0.14149 0.0
C996 C 0.00631 0.43387 0.55887 0.0
C997 C 0.01561 0.4365 0.48917 0.0
C998 C 0.98477 0.42361 0.56678 0.0
C999 C 0.97161 0.41577 0.50522 0.0
H1000 H 0.01573 0.43974 0.60809 0.0
H1001 H 0.97844 0.42209 0.62169 0.0
S1002 S 0.9881 0.41828 0.31035 0.0
N1003 N 0.00997 0.43013 0.3573 0.0
N1004 N 0.96945 0.41098 0.372 0.0
C1005 C 0.98067 0.41817 0.43509 0.0
C1006 C 0.00266 0.42846 0.42712 0.0
C1007 C 0.58063 0.56932 0.56965 0.0
C1008 C 0.58768 0.56304 0.50825 0.0
C1009 C 0.56959 0.57984 0.56097 0.0
C1010 C 0.56533 0.58475 0.49054 0.0
H1011 H 0.58325 0.5657 0.62508 0.0
H1012 H 0.56426 0.58403 0.61009 0.0
S1013 S 0.58142 0.57286 0.3117 0.0
N1014 N 0.5903 0.56323 0.37445 0.0
N1015 N 0.56973 0.58314 0.35807 0.0
C1016 C 0.57277 0.57906 0.4286 0.0
C1017 C 0.58386 0.56816 0.43746 0.0
C1018 C 0.45111 0.0076 0.58556 0.0
C1019 C 0.44489 0.02158 0.56128 0.0
C1020 C 0.44064 0.98686 0.56326 0.0
C1021 C 0.42342 0.9791 0.51582 0.0
H1022 H 0.46434 0.0127 0.62172 0.0
H1023 H 0.44621 0.97686 0.58346 0.0
S1024 S 0.40053 0.00915 0.43716 0.0
N1025 N 0.42014 0.02609 0.48757 0.0
N1026 N 0.40042 0.98708 0.44583 0.0
C1027 C 0.41685 0.99283 0.49161 0.0
C1028 C 0.42757 0.01404 0.51424 0.0
C1029 C 0.55404 0.00935 0.4525 0.0
C1030 C 0.57162 0.01708 0.49819 0.0
C1031 C 0.54354 0.98868 0.42939 0.0
C1032 C 0.55008 0.97475 0.45099 0.0
H1033 H 0.54826 0.01932 0.43403 0.0
H1034 H 0.53008 0.98363 0.39441 0.0
S1035 S 0.59529 0.98707 0.57044 0.0
N1036 N 0.59518 0.00909 0.56424 0.0
N1037 N 0.5754 0.9702 0.52094 0.0
C1038 C 0.56766 0.98222 0.49674 0.0
C1039 C 0.57842 0.00336 0.52026 0.0
C1040 C 0.9886 0.57335 0.50971 0.0
C1041 C 0.97707 0.55159 0.51339 0.0
C1042 C 0.01002 0.5838 0.4964 0.0
C1043 C 0.02074 0.57288 0.48786 0.0
H1044 H 0.98099 0.58239 0.51645 0.0
H1045 H 0.01828 0.60055 0.49395 0.0
S1046 S 0.9978 0.51578 0.49243 0.0
N1047 N 0.97806 0.5195 0.50674 0.0
N1048 N 0.01819 0.53909 0.48293 0.0
C1049 C 0.00941 0.55113 0.49154 0.0
C1050 C 0.98761 0.54051 0.50395 0.0
C1051 C 0.42244 0.42785 0.43946 0.0
C1052 C 0.41363 0.43254 0.49975 0.0
C1053 C 0.43338 0.41728 0.44923 0.0
C1054 C 0.43584 0.41081 0.51961 0.0
H1055 H 0.42131 0.43279 0.38431 0.0
H1056 H 0.44018 0.4144 0.4011 0.0
S1057 S 0.41441 0.41793 0.69511 0.0
N1058 N 0.40717 0.42895 0.632 0.0
N1059 N 0.42762 0.40903 0.65037 0.0
C1060 C 0.42654 0.41483 0.58016 0.0
C1061 C 0.4155 0.42571 0.57024 0.0
C1062 C 0.20911 0.09822 0.20765 0.0
C1063 C 0.22643 0.09707 0.23202 0.0
C1064 C 0.20946 0.1172 0.20444 0.0
C1065 C 0.2271 0.1358 0.22588 0.0
H1066 H 0.19521 0.08439 0.18995 0.0
H1067 H 0.19579 0.11725 0.18464 0.0
S1068 S 0.27639 0.14119 0.29627 0.0
N1069 N 0.26161 0.11624 0.27972 0.0
N1070 N 0.26229 0.15174 0.2738 0.0
C1071 C 0.24445 0.13482 0.25139 0.0
C1072 C 0.24411 0.11553 0.2544 0.0
C1073 C 0.88591 0.09981 0.15939 0.0
C1074 C 0.87048 0.0952 0.21263 0.0
C1075 C 0.90438 0.11892 0.15922 0.0
C1076 C 0.90816 0.13418 0.21233 0.0
H1077 H 0.88346 0.0889 0.11572 0.0
H1078 H 0.91542 0.12197 0.11544 0.0
S1079 S 0.87391 0.12873 0.36983 0.0
N1080 N 0.8611 0.10672 0.3243 0.0
N1081 N 0.89573 0.14254 0.32408 0.0
C1082 C 0.89334 0.12932 0.26834 0.0
C1083 C 0.87453 0.10988 0.26845 0.0
C1084 C 0.89353 0.76535 0.25879 0.0
C1085 C 0.91086 0.77977 0.21817 0.0
C1086 C 0.87495 0.76565 0.25781 0.0
C1087 C 0.8728 0.78041 0.21626 0.0
H1088 H 0.89406 0.7533 0.29041 0.0
H1089 H 0.86202 0.75385 0.28888 0.0
S1090 S 0.91401 0.82275 0.10493 0.0
N1091 N 0.92508 0.81011 0.13864 0.0
N1092 N 0.89008 0.81069 0.13685 0.0
C1093 C 0.89023 0.79548 0.17762 0.0
C1094 C 0.90925 0.79515 0.17856 0.0
C1095 C 0.11075 0.24466 0.71956 0.0
C1096 C 0.09169 0.22751 0.7401 0.0
C1097 C 0.1291 0.24392 0.7218 0.0
C1098 C 0.12933 0.22603 0.74502 0.0
H1099 H 0.11163 0.25894 0.70176 0.0
H1100 H 0.14328 0.25771 0.70587 0.0
S1101 S 0.08353 0.17657 0.80307 0.0
N1102 N 0.07406 0.19183 0.78317 0.0
N1103 N 0.10866 0.19046 0.78761 0.0
C1104 C 0.11035 0.20861 0.76492 0.0
C1105 C 0.09154 0.20934 0.76236 0.0
C1106 C 0.75777 0.87092 0.73468 0.0
C1107 C 0.77652 0.87077 0.73976 0.0
C1108 C 0.75735 0.88945 0.73407 0.0
C1109 C 0.77567 0.90876 0.73854 0.0
H1110 H 0.74314 0.85657 0.7309 0.0
H1111 H 0.74243 0.88851 0.72987 0.0
S1112 S 0.82896 0.9171 0.75378 0.0
N1113 N 0.81399 0.8917 0.75011 0.0
N1114 N 0.81321 0.92661 0.74898 0.0
C1115 C 0.79458 0.90892 0.74407 0.0
C1116 C 0.79502 0.88995 0.74468 0.0
C1117 C 0.11471 0.90344 0.76661 0.0
C1118 C 0.13405 0.90498 0.75384 0.0
C1119 C 0.09628 0.8843 0.76362 0.0
C1120 C 0.09642 0.86587 0.74818 0.0
H1121 H 0.11374 0.91714 0.77886 0.0
H1122 H 0.08184 0.884 0.77397 0.0
S1123 S 0.14301 0.86134 0.71111 0.0
N1124 N 0.15217 0.88627 0.72538 0.0
N1125 N 0.11769 0.85043 0.71989 0.0
C1126 C 0.11567 0.86718 0.73532 0.0
C1127 C 0.13441 0.88667 0.73809 0.0
C1128 C 0.90164 0.44481 0.60393 0.0
C1129 C 0.8897 0.42903 0.55303 0.0
C1130 C 0.90199 0.46375 0.60298 0.0
C1131 C 0.89035 0.46777 0.55128 0.0
H1132 H 0.91134 0.44283 0.64375 0.0
H1133 H 0.91189 0.47549 0.64225 0.0
S1134 S 0.85489 0.43088 0.41049 0.0
N1135 N 0.86476 0.41816 0.45264 0.0
N1136 N 0.86535 0.45375 0.45095 0.0
C1137 C 0.87761 0.45181 0.50208 0.0
C1138 C 0.87731 0.43248 0.5029 0.0
C1139 C 0.55302 0.42925 0.56325 0.0
C1140 C 0.53512 0.42731 0.59679 0.0
C1141 C 0.57152 0.44834 0.56104 0.0
C1142 C 0.57295 0.46625 0.59277 0.0
H1143 H 0.55264 0.41602 0.53696 0.0
H1144 H 0.58473 0.44906 0.53331 0.0
S1145 S 0.53088 0.46912 0.69228 0.0
N1146 N 0.52029 0.44475 0.66589 0.0
N1147 N 0.55495 0.48048 0.6621 0.0
C1148 C 0.55531 0.46436 0.62848 0.0
C1149 C 0.53645 0.44497 0.63035 0.0
C1150 C 0.56961 0.11513 0.50411 0.0
C1151 C 0.57315 0.1038 0.55856 0.0
C1152 C 0.5512 0.11589 0.50269 0.0
C1153 C 0.53561 0.10542 0.55583 0.0
H1154 H 0.58083 0.12293 0.46065 0.0
H1155 H 0.54899 0.12431 0.45829 0.0
S1156 S 0.53834 0.07556 0.71536 0.0
N1157 N 0.56026 0.0833 0.67063 0.0
N1158 N 0.52578 0.08477 0.66826 0.0
C1159 C 0.53939 0.09484 0.61267 0.0
C1160 C 0.55811 0.09402 0.61394 0.0
C1161 C 0.78099 0.58054 0.08261 0.0
C1162 C 0.76182 0.56205 0.08677 0.0
C1163 C 0.79965 0.5804 0.08281 0.0
C1164 C 0.80006 0.56179 0.08806 0.0
H1165 H 0.78167 0.59536 0.07866 0.0
H1166 H 0.8139 0.59513 0.0796 0.0
S1167 S 0.75422 0.50904 0.10076 0.0
N1168 N 0.74437 0.52452 0.09624 0.0
N1169 N 0.77959 0.52428 0.09747 0.0
C1170 C 0.78105 0.54314 0.09256 0.0
C1171 C 0.76192 0.54326 0.09156 0.0
C1172 C 0.42217 0.20051 0.08217 0.0
C1173 C 0.4397 0.19896 0.10029 0.0
C1174 C 0.42232 0.21927 0.08821 0.0
C1175 C 0.43996 0.23738 0.11298 0.0
H1176 H 0.4081 0.18708 0.06313 0.0
H1177 H 0.40832 0.21946 0.07375 0.0
S1178 S 0.49008 0.24185 0.16687 0.0
N1179 N 0.47536 0.21732 0.14352 0.0
N1180 N 0.47561 0.25263 0.15507 0.0
C1181 C 0.45769 0.23615 0.13094 0.0
C1182 C 0.45757 0.21697 0.1245 0.0
C1183 C 0.77382 0.20339 0.20104 0.0
C1184 C 0.76462 0.19389 0.13359 0.0
C1185 C 0.79245 0.22226 0.20327 0.0
C1186 C 0.80272 0.23252 0.13818 0.0
H1187 H 0.76692 0.19595 0.25294 0.0
H1188 H 0.7991 0.22856 0.25676 0.0
S1189 S 0.78427 0.2152 0.9469 0.0
N1190 N 0.76654 0.19693 -0.00027 0.0
N1191 N 0.80155 0.23242 0.00392 0.0
C1192 C 0.79323 0.22371 0.0702 0.0
C1193 C 0.77422 0.20441 0.06791 0.0
C1194 C 0.57538 0.77625 0.89283 0.0
C1195 C 0.56098 0.75918 0.93461 0.0
C1196 C 0.57511 0.79487 0.89201 0.0
C1197 C 0.56039 0.7973 0.93275 0.0
H1198 H 0.58739 0.77551 0.86181 0.0
H1199 H 0.5869 0.80762 0.86025 0.0
S1200 S 0.51796 0.7567 0.04567 0.0
N1201 N 0.5306 0.74543 0.01378 0.0
N1202 N 0.53007 0.78045 0.01214 0.0
C1203 C 0.5453 0.78008 0.97225 0.0
C1204 C 0.54561 0.76105 0.97323 0.0
C1205 C 0.19968 0.77637 0.90942 0.0
C1206 C 0.19997 0.75771 0.91534 0.0
C1207 C 0.21795 0.79551 0.90896 0.0
C1208 C 0.23746 0.79698 0.91447 0.0
H1209 H 0.18516 0.77631 0.90564 0.0
H1210 H 0.21665 0.8093 0.90492 0.0
S1211 S 0.24701 0.75276 0.92857 0.0
N1212 N 0.22156 0.74185 0.92488 0.0
N1213 N 0.25602 0.77795 0.92406 0.0
C1214 C 0.2381 0.77845 0.91911 0.0
C1215 C 0.21937 0.75883 0.91952 0.0
C1216 C 0.21449 0.44229 0.82855 0.0
C1217 C 0.20129 0.43499 0.89027 0.0
C1218 C 0.23349 0.44274 0.82789 0.0
C1219 C 0.24003 0.43576 0.8887 0.0
H1220 H 0.21 0.44737 0.77952 0.0
H1221 H 0.24281 0.44804 0.7783 0.0
S1222 S 0.21214 0.41679 0.06657 0.0
N1223 N 0.19681 0.42186 0.01592 0.0
N1224 N 0.23245 0.42261 0.01438 0.0
C1225 C 0.22736 0.4291 0.95184 0.0
C1226 C 0.20804 0.42875 0.95273 0.0
C1227 C 0.4288 0.88602 0.51368 0.0
C1228 C 0.42405 0.89525 0.45484 0.0
C1229 C 0.44718 0.88522 0.51451 0.0
C1230 C 0.46158 0.89356 0.45642 0.0
H1231 H 0.41856 0.87989 0.56081 0.0
H1232 H 0.45032 0.87846 0.56216 0.0
S1233 S 0.45551 0.91755 0.28547 0.0
N1234 N 0.43456 0.91153 0.33416 0.0
N1235 N 0.46902 0.91001 0.33553 0.0
C1236 C 0.45658 0.90201 0.39557 0.0
C1237 C 0.43787 0.90286 0.39485 0.0
C1238 C 0.12087 0.56768 0.45802 0.0
C1239 C 0.10372 0.56932 0.435 0.0
C1240 C 0.1204 0.54863 0.4566 0.0
C1241 C 0.10272 0.53043 0.43264 0.0
H1242 H 0.13473 0.58116 0.47803 0.0
H1243 H 0.13391 0.54815 0.4758 0.0
S1244 S 0.05383 0.5264 0.36426 0.0
N1245 N 0.06867 0.55104 0.38544 0.0
N1246 N 0.06778 0.51544 0.38303 0.0
C1247 C 0.08559 0.53193 0.4081 0.0
C1248 C 0.08609 0.5513 0.40919 0.0
C1249 C 0.46599 0.55288 0.39907 0.0
C1250 C 0.46711 0.57129 0.42389 0.0
C1251 C 0.44726 0.53413 0.39845 0.0
C1252 C 0.42872 0.53293 0.42214 0.0
H1253 H 0.47976 0.55278 0.38082 0.0
H1254 H 0.4474 0.52045 0.37933 0.0
S1255 S 0.42295 0.57673 0.49021 0.0
N1256 N 0.44784 0.58723 0.47131 0.0
N1257 N 0.41255 0.55193 0.4698 0.0
C1258 C 0.42947 0.55126 0.44588 0.0
C1259 C 0.44865 0.57042 0.4469 0.0
loop_
_geom_bond_atom_site_label_1
_geom_bond_atom_site_label_2
_geom_bond_distance
_geom_bond_site_symmetry_2
_ccdc_geom_bond_type
C0 O1 1.160 . S
C0 O7 1.185 . S
O1 C0 1.160 . S
O2 Zn3 1.899 . S
O2 C10 1.284 . S
Zn3 O2 1.899 . S
Zn3 O4 2.032 . S
Zn3 O7 2.086 . S
Zn3 O12 1.977 . S
O4 Zn3 2.032 . S
O4 C8 1.278 . S
C5 O6 1.203 . S
C5 O12 1.267 . S
O6 C5 1.203 . S
O7 C0 1.185 . S
O7 Zn3 2.086 . S
C8 O4 1.278 . S
C8 O9 1.211 . S
O9 C8 1.211 . S
C10 O2 1.284 . S
C10 O11 1.273 . S
O11 C10 1.273 . S
O12 Zn3 1.977 . S
O12 C5 1.267 . S
C13 O14 1.160 . S
C13 O20 1.185 . S
O14 C13 1.160 . S
O15 Zn16 1.899 . S
O15 C23 1.284 . S
Zn16 O15 1.899 . S
Zn16 O17 2.032 . S
Zn16 O20 2.086 . S
Zn16 O25 1.977 . S
O17 Zn16 2.032 . S
O17 C21 1.278 . S
C18 O19 1.203 . S
C18 O25 1.267 . S
O19 C18 1.203 . S
O20 C13 1.185 . S
O20 Zn16 2.086 . S
C21 O17 1.278 . S
C21 O22 1.211 . S
O22 C21 1.211 . S
C23 O15 1.284 . S
C23 O24 1.273 . S
O24 C23 1.273 . S
O25 Zn16 1.977 . S
O25 C18 1.267 . S
C26 O27 1.160 . S
C26 O33 1.185 . S
O27 C26 1.160 . S
O28 Zn29 1.899 . S
O28 C36 1.284 . S
Zn29 O28 1.899 . S
Zn29 O30 2.032 . S
Zn29 O33 2.086 . S
Zn29 O38 1.977 . S
O30 Zn29 2.032 . S
O30 C34 1.278 . S
C31 O32 1.203 . S
C31 O38 1.267 . S
O32 C31 1.203 . S
O33 C26 1.185 . S
O33 Zn29 2.086 . S
C34 O30 1.278 . S
C34 O35 1.211 . S
O35 C34 1.211 . S
C36 O28 1.284 . S
C36 O37 1.273 . S
O37 C36 1.273 . S
O38 Zn29 1.977 . S
O38 C31 1.267 . S
C39 O40 1.160 . S
C39 O46 1.185 . S
O40 C39 1.160 . S
O41 Zn42 1.899 . S
O41 C49 1.284 . S
Zn42 O41 1.899 . S
Zn42 O43 2.032 . S
Zn42 O46 2.086 . S
Zn42 O51 1.977 . S
O43 Zn42 2.032 . S
O43 C47 1.278 . S
C44 O45 1.203 . S
C44 O51 1.267 . S
O45 C44 1.203 . S
O46 C39 1.185 . S
O46 Zn42 2.086 . S
C47 O43 1.278 . S
C47 O48 1.211 . S
O48 C47 1.211 . S
C49 O41 1.284 . S
C49 O50 1.273 . S
O50 C49 1.273 . S
O51 Zn42 1.977 . S
O51 C44 1.267 . S
C52 O53 1.160 . S
C52 O59 1.185 . S
O53 C52 1.160 . S
O54 Zn55 1.899 . S
O54 C62 1.284 . S
Zn55 O54 1.899 . S
Zn55 O56 2.032 . S
Zn55 O59 2.086 . S
Zn55 O64 1.977 . S
O56 Zn55 2.032 . S
O56 C60 1.278 . S
C57 O58 1.203 . S
C57 O64 1.267 . S
O58 C57 1.203 . S
O59 C52 1.185 . S
O59 Zn55 2.086 . S
C60 O56 1.278 . S
C60 O61 1.211 . S
O61 C60 1.211 . S
C62 O54 1.284 . S
C62 O63 1.273 . S
O63 C62 1.273 . S
O64 Zn55 1.977 . S
O64 C57 1.267 . S
C65 O66 1.160 . S
C65 O72 1.185 . S
O66 C65 1.160 . S
O67 Zn68 1.899 . S
O67 C75 1.284 . S
Zn68 O67 1.899 . S
Zn68 O69 2.032 . S
Zn68 O72 2.086 . S
Zn68 O77 1.977 . S
O69 Zn68 2.032 . S
O69 C73 1.278 . S
C70 O71 1.203 . S
C70 O77 1.267 . S
O71 C70 1.203 . S
O72 C65 1.185 . S
O72 Zn68 2.086 . S
C73 O69 1.278 . S
C73 O74 1.211 . S
O74 C73 1.211 . S
C75 O67 1.284 . S
C75 O76 1.273 . S
O76 C75 1.273 . S
O77 Zn68 1.977 . S
O77 C70 1.267 . S
C78 O79 1.160 . S
C78 O85 1.185 . S
O79 C78 1.160 . S
O80 Zn81 1.899 . S
O80 C88 1.284 . S
Zn81 O80 1.899 . S
Zn81 O82 2.032 . S
Zn81 O85 2.086 . S
Zn81 O90 1.977 . S
O82 Zn81 2.032 . S
O82 C86 1.278 . S
C83 O84 1.203 . S
C83 O90 1.267 . S
O84 C83 1.203 . S
O85 C78 1.185 . S
O85 Zn81 2.086 . S
C86 O82 1.278 . S
C86 O87 1.211 . S
O87 C86 1.211 . S
C88 O80 1.284 . S
C88 O89 1.273 . S
O89 C88 1.273 . S
O90 Zn81 1.977 . S
O90 C83 1.267 . S
C91 O92 1.160 . S
C91 O98 1.185 . S
O92 C91 1.160 . S
O93 Zn94 1.899 . S
O93 C101 1.284 . S
Zn94 O93 1.899 . S
Zn94 O95 2.032 . S
Zn94 O98 2.086 . S
Zn94 O103 1.977 . S
O95 Zn94 2.032 . S
O95 C99 1.278 . S
C96 O97 1.203 . S
C96 O103 1.267 . S
O97 C96 1.203 . S
O98 C91 1.185 . S
O98 Zn94 2.086 . S
C99 O95 1.278 . S
C99 O100 1.211 . S
O100 C99 1.211 . S
C101 O93 1.284 . S
C101 O102 1.273 . S
O102 C101 1.273 . S
O103 Zn94 1.977 . S
O103 C96 1.267 . S
C104 O105 1.160 . S
C104 O111 1.185 . S
O105 C104 1.160 . S
O106 Zn107 1.899 . S
O106 C114 1.284 . S
Zn107 O106 1.899 . S
Zn107 O108 2.032 . S
Zn107 O111 2.086 . S
Zn107 O116 1.977 . S
O108 Zn107 2.032 . S
O108 C112 1.278 . S
C109 O110 1.203 . S
C109 O116 1.267 . S
O110 C109 1.203 . S
O111 C104 1.185 . S
O111 Zn107 2.086 . S
C112 O108 1.278 . S
C112 O113 1.211 . S
O113 C112 1.211 . S
C114 O106 1.284 . S
C114 O115 1.273 . S
O115 C114 1.273 . S
O116 Zn107 1.977 . S
O116 C109 1.267 . S
C117 O118 1.160 . S
C117 O124 1.185 . S
O118 C117 1.160 . S
O119 Zn120 1.899 . S
O119 C127 1.284 . S
Zn120 O119 1.899 . S
Zn120 O121 2.032 . S
Zn120 O124 2.086 . S
Zn120 O129 1.977 . S
O121 Zn120 2.032 . S
O121 C125 1.278 . S
C122 O123 1.203 . S
C122 O129 1.267 . S
O123 C122 1.203 . S
O124 C117 1.185 . S
O124 Zn120 2.086 . S
C125 O121 1.278 . S
C125 O126 1.211 . S
O126 C125 1.211 . S
C127 O119 1.284 . S
C127 O128 1.273 . S
O128 C127 1.273 . S
O129 Zn120 1.977 . S
O129 C122 1.267 . S
C130 O131 1.160 . S
C130 O137 1.185 . S
O131 C130 1.160 . S
O132 Zn133 1.899 . S
O132 C140 1.284 . S
Zn133 O132 1.899 . S
Zn133 O134 2.032 . S
Zn133 O137 2.086 . S
Zn133 O142 1.977 . S
O134 Zn133 2.032 . S
O134 C138 1.278 . S
C135 O136 1.203 . S
C135 O142 1.267 . S
O136 C135 1.203 . S
O137 C130 1.185 . S
O137 Zn133 2.086 . S
C138 O134 1.278 . S
C138 O139 1.211 . S
O139 C138 1.211 . S
C140 O132 1.284 . S
C140 O141 1.273 . S
O141 C140 1.273 . S
O142 Zn133 1.977 . S
O142 C135 1.267 . S
C143 O144 1.160 . S
C143 O150 1.185 . S
O144 C143 1.160 . S
O145 Zn146 1.899 . S
O145 C153 1.284 . S
Zn146 O145 1.899 . S
Zn146 O147 2.032 . S
Zn146 O150 2.086 . S
Zn146 O155 1.977 . S
O147 Zn146 2.032 . S
O147 C151 1.278 . S
C148 O149 1.203 . S
C148 O155 1.267 . S
O149 C148 1.203 . S
O150 C143 1.185 . S
O150 Zn146 2.086 . S
C151 O147 1.278 . S
C151 O152 1.211 . S
O152 C151 1.211 . S
C153 O145 1.284 . S
C153 O154 1.273 . S
O154 C153 1.273 . S
O155 Zn146 1.977 . S
O155 C148 1.267 . S
C156 O157 1.160 . S
C156 O163 1.185 . S
O157 C156 1.160 . S
O158 Zn159 1.899 . S
O158 C166 1.284 . S
Zn159 O158 1.899 . S
Zn159 O160 2.032 . S
Zn159 O163 2.086 . S
Zn159 O168 1.977 . S
O160 Zn159 2.032 . S
O160 C164 1.278 . S
C161 O162 1.203 . S
C161 O168 1.267 . S
O162 C161 1.203 . S
O163 C156 1.185 . S
O163 Zn159 2.086 . S
C164 O160 1.278 . S
C164 O165 1.211 . S
O165 C164 1.211 . S
C166 O158 1.284 . S
C166 O167 1.273 . S
O167 C166 1.273 . S
O168 Zn159 1.977 . S
O168 C161 1.267 . S
C169 O170 1.160 . S
C169 O176 1.185 . S
O170 C169 1.160 . S
O171 Zn172 1.899 . S
O171 C179 1.284 . S
Zn172 O171 1.899 . S
Zn172 O173 2.032 . S
Zn172 O176 2.086 . S
Zn172 O181 1.977 . S
O173 Zn172 2.032 . S
O173 C177 1.278 . S
C174 O175 1.203 . S
C174 O181 1.267 . S
O175 C174 1.203 . S
O176 C169 1.185 . S
O176 Zn172 2.086 . S
C177 O173 1.278 . S
C177 O178 1.211 . S
O178 C177 1.211 . S
C179 O171 1.284 . S
C179 O180 1.273 . S
O180 C179 1.273 . S
O181 Zn172 1.977 . S
O181 C174 1.267 . S
C182 O183 1.160 . S
C182 O189 1.185 . S
O183 C182 1.160 . S
O184 Zn185 1.899 . S
O184 C192 1.284 . S
Zn185 O184 1.899 . S
Zn185 O186 2.032 . S
Zn185 O189 2.086 . S
Zn185 O194 1.977 . S
O186 Zn185 2.032 . S
O186 C190 1.278 . S
C187 O188 1.203 . S
C187 O194 1.267 . S
O188 C187 1.203 . S
O189 C182 1.185 . S
O189 Zn185 2.086 . S
C190 O186 1.278 . S
C190 O191 1.211 . S
O191 C190 1.211 . S
C192 O184 1.284 . S
C192 O193 1.273 . S
O193 C192 1.273 . S
O194 Zn185 1.977 . S
O194 C187 1.267 . S
C195 O196 1.160 . S
C195 O202 1.185 . S
O196 C195 1.160 . S
O197 Zn198 1.899 . S
O197 C205 1.284 . S
Zn198 O197 1.899 . S
Zn198 O199 2.032 . S
Zn198 O202 2.086 1_554 S
Zn198 O207 1.977 . S
O199 Zn198 2.032 . S
O199 C203 1.278 . S
C200 O201 1.203 . S
C200 O207 1.267 . S
O201 C200 1.203 . S
O202 C195 1.185 . S
O202 Zn198 2.086 1_556 S
C203 O199 1.278 . S
C203 O204 1.211 . S
O204 C203 1.211 . S
C205 O197 1.284 . S
C205 O206 1.273 . S
O206 C205 1.273 . S
O207 Zn198 1.977 . S
O207 C200 1.267 . S
C208 O209 1.160 . S
C208 O215 1.185 . S
O209 C208 1.160 . S
O210 Zn211 1.899 . S
O210 C218 1.284 . S
Zn211 O210 1.899 . S
Zn211 O212 2.032 . S
Zn211 O215 2.086 1_554 S
Zn211 O220 1.977 . S
O212 Zn211 2.032 . S
O212 C216 1.278 . S
C213 O214 1.203 . S
C213 O220 1.267 . S
O214 C213 1.203 . S
O215 C208 1.185 . S
O215 Zn211 2.086 1_556 S
C216 O212 1.278 . S
C216 O217 1.211 . S
O217 C216 1.211 . S
C218 O210 1.284 . S
C218 O219 1.273 . S
O219 C218 1.273 . S
O220 Zn211 1.977 . S
O220 C213 1.267 . S
C221 O222 1.160 . S
C221 O228 1.185 . S
O222 C221 1.160 . S
O223 Zn224 1.899 . S
O223 C231 1.284 . S
Zn224 O223 1.899 . S
Zn224 O225 2.032 . S
Zn224 O228 2.086 1_554 S
Zn224 O233 1.977 . S
O225 Zn224 2.032 . S
O225 C229 1.278 . S
C226 O227 1.203 . S
C226 O233 1.267 . S
O227 C226 1.203 . S
O228 C221 1.185 . S
O228 Zn224 2.086 1_556 S
C229 O225 1.278 . S
C229 O230 1.211 . S
O230 C229 1.211 . S
C231 O223 1.284 . S
C231 O232 1.273 . S
O232 C231 1.273 . S
O233 Zn224 1.977 . S
O233 C226 1.267 . S
C234 O235 1.160 . S
C234 O241 1.185 . S
O235 C234 1.160 . S
O236 Zn237 1.899 . S
O236 C244 1.284 . S
Zn237 O236 1.899 . S
Zn237 O238 2.032 . S
Zn237 O241 2.086 1_554 S
Zn237 O246 1.977 . S
O238 Zn237 2.032 . S
O238 C242 1.278 . S
C239 O240 1.203 . S
C239 O246 1.267 . S
O240 C239 1.203 . S
O241 C234 1.185 . S
O241 Zn237 2.086 1_556 S
C242 O238 1.278 . S
C242 O243 1.211 . S
O243 C242 1.211 . S
C244 O236 1.284 . S
C244 O245 1.273 . S
O245 C244 1.273 . S
O246 Zn237 1.977 . S
O246 C239 1.267 . S
C247 O248 1.160 . S
C247 O254 1.185 . S
O248 C247 1.160 . S
O249 Zn250 1.899 . S
O249 C257 1.284 . S
Zn250 O249 1.899 . S
Zn250 O251 2.032 . S
Zn250 O254 2.086 1_554 S
Zn250 O259 1.977 . S
O251 Zn250 2.032 . S
O251 C255 1.278 . S
C252 O253 1.203 . S
C252 O259 1.267 . S
O253 C252 1.203 . S
O254 C247 1.185 . S
O254 Zn250 2.086 1_556 S
C255 O251 1.278 . S
C255 O256 1.211 . S
O256 C255 1.211 . S
C257 O249 1.284 . S
C257 O258 1.273 . S
O258 C257 1.273 . S
O259 Zn250 1.977 . S
O259 C252 1.267 . S
C260 O261 1.160 . S
C260 O267 1.185 . S
O261 C260 1.160 . S
O262 Zn263 1.899 . S
O262 C270 1.284 . S
Zn263 O262 1.899 . S
Zn263 O264 2.032 . S
Zn263 O267 2.086 1_554 S
Zn263 O272 1.977 . S
O264 Zn263 2.032 . S
O264 C268 1.278 . S
C265 O266 1.203 . S
C265 O272 1.267 . S
O266 C265 1.203 . S
O267 C260 1.185 . S
O267 Zn263 2.086 1_556 S
C268 O264 1.278 . S
C268 O269 1.211 . S
O269 C268 1.211 . S
C270 O262 1.284 . S
C270 O271 1.273 . S
O271 C270 1.273 . S
O272 Zn263 1.977 . S
O272 C265 1.267 . S
C273 O274 1.160 . S
C273 O280 1.185 . S
O274 C273 1.160 . S
O275 Zn276 1.899 . S
O275 C283 1.284 . S
Zn276 O275 1.899 . S
Zn276 O277 2.032 . S
Zn276 O280 2.086 . S
Zn276 O285 1.977 . S
O277 Zn276 2.032 . S
O277 C281 1.278 . S
C278 O279 1.203 . S
C278 O285 1.267 . S
O279 C278 1.203 . S
O280 C273 1.185 . S
O280 Zn276 2.086 . S
C281 O277 1.278 . S
C281 O282 1.211 . S
O282 C281 1.211 . S
C283 O275 1.284 . S
C283 O284 1.273 . S
O284 C283 1.273 . S
O285 Zn276 1.977 . S
O285 C278 1.267 . S
C286 O287 1.160 . S
C286 O293 1.185 . S
O287 C286 1.160 . S
O288 Zn289 1.899 . S
O288 C296 1.284 . S
Zn289 O288 1.899 . S
Zn289 O290 2.032 . S
Zn289 O293 2.086 . S
Zn289 O298 1.977 . S
O290 Zn289 2.032 . S
O290 C294 1.278 . S
C291 O292 1.203 . S
C291 O298 1.267 . S
O292 C291 1.203 . S
O293 C286 1.185 . S
O293 Zn289 2.086 . S
C294 O290 1.278 . S
C294 O295 1.211 . S
O295 C294 1.211 . S
C296 O288 1.284 . S
C296 O297 1.273 . S
O297 C296 1.273 . S
O298 Zn289 1.977 . S
O298 C291 1.267 . S
C299 O300 1.160 . S
C299 O306 1.185 . S
O300 C299 1.160 . S
O301 Zn302 1.899 . S
O301 C309 1.284 . S
Zn302 O301 1.899 . S
Zn302 O303 2.032 . S
Zn302 O306 2.086 . S
Zn302 O311 1.977 . S
O303 Zn302 2.032 . S
O303 C307 1.278 . S
C304 O305 1.203 . S
C304 O311 1.267 . S
O305 C304 1.203 . S
O306 C299 1.185 . S
O306 Zn302 2.086 . S
C307 O303 1.278 . S
C307 O308 1.211 . S
O308 C307 1.211 . S
C309 O301 1.284 . S
C309 O310 1.273 . S
O310 C309 1.273 . S
O311 Zn302 1.977 . S
O311 C304 1.267 . S
C312 O313 1.160 . S
C312 O319 1.185 . S
O313 C312 1.160 . S
O314 Zn315 1.899 . S
O314 C322 1.284 . S
Zn315 O314 1.899 . S
Zn315 O316 2.032 . S
Zn315 O319 2.086 1_556 S
Zn315 O324 1.977 . S
O316 Zn315 2.032 . S
O316 C320 1.278 . S
C317 O318 1.203 . S
C317 O324 1.267 . S
O318 C317 1.203 . S
O319 C312 1.185 . S
O319 Zn315 2.086 1_554 S
C320 O316 1.278 . S
C320 O321 1.211 . S
O321 C320 1.211 . S
C322 O314 1.284 . S
C322 O323 1.273 . S
O323 C322 1.273 . S
O324 Zn315 1.977 . S
O324 C317 1.267 . S
C325 O326 1.160 . S
C325 O332 1.185 . S
O326 C325 1.160 . S
O327 Zn328 1.899 . S
O327 C335 1.284 . S
Zn328 O327 1.899 . S
Zn328 O329 2.032 . S
Zn328 O332 2.086 1_556 S
Zn328 O337 1.977 . S
O329 Zn328 2.032 . S
O329 C333 1.278 . S
C330 O331 1.203 . S
C330 O337 1.267 . S
O331 C330 1.203 . S
O332 C325 1.185 . S
O332 Zn328 2.086 1_554 S
C333 O329 1.278 . S
C333 O334 1.211 . S
O334 C333 1.211 . S
C335 O327 1.284 . S
C335 O336 1.273 . S
O336 C335 1.273 . S
O337 Zn328 1.977 . S
O337 C330 1.267 . S
C338 O339 1.160 . S
C338 O345 1.185 . S
O339 C338 1.160 . S
O340 Zn341 1.899 . S
O340 C348 1.284 . S
Zn341 O340 1.899 . S
Zn341 O342 2.032 . S
Zn341 O345 2.086 1_556 S
Zn341 O350 1.977 . S
O342 Zn341 2.032 . S
O342 C346 1.278 . S
C343 O344 1.203 . S
C343 O350 1.267 . S
O344 C343 1.203 . S
O345 C338 1.185 . S
O345 Zn341 2.086 1_554 S
C346 O342 1.278 . S
C346 O347 1.211 . S
O347 C346 1.211 . S
C348 O340 1.284 . S
C348 O349 1.273 . S
O349 C348 1.273 . S
O350 Zn341 1.977 . S
O350 C343 1.267 . S
C351 O352 1.160 . S
C351 O358 1.185 . S
O352 C351 1.160 . S
O353 Zn354 1.899 . S
O353 C361 1.284 . S
Zn354 O353 1.899 . S
Zn354 O355 2.032 . S
Zn354 O358 2.086 . S
Zn354 O363 1.977 . S
O355 Zn354 2.032 . S
O355 C359 1.278 . S
C356 O357 1.203 . S
C356 O363 1.267 . S
O357 C356 1.203 . S
O358 C351 1.185 . S
O358 Zn354 2.086 . S
C359 O355 1.278 . S
C359 O360 1.211 . S
O360 C359 1.211 . S
C361 O353 1.284 . S
C361 O362 1.273 . S
O362 C361 1.273 . S
O363 Zn354 1.977 . S
O363 C356 1.267 . S
C364 O365 1.160 . S
C364 O371 1.185 . S
O365 C364 1.160 . S
O366 Zn367 1.899 . S
O366 C374 1.284 . S
Zn367 O366 1.899 . S
Zn367 O368 2.032 . S
Zn367 O371 2.086 . S
Zn367 O376 1.977 . S
O368 Zn367 2.032 . S
O368 C372 1.278 . S
C369 O370 1.203 . S
C369 O376 1.267 . S
O370 C369 1.203 . S
O371 C364 1.185 . S
O371 Zn367 2.086 . S
C372 O368 1.278 . S
C372 O373 1.211 . S
O373 C372 1.211 . S
C374 O366 1.284 . S
C374 O375 1.273 . S
O375 C374 1.273 . S
O376 Zn367 1.977 . S
O376 C369 1.267 . S
C377 O378 1.160 . S
C377 O384 1.185 . S
O378 C377 1.160 . S
O379 Zn380 1.899 . S
O379 C387 1.284 . S
Zn380 O379 1.899 . S
Zn380 O381 2.032 . S
Zn380 O384 2.086 . S
Zn380 O389 1.977 . S
O381 Zn380 2.032 . S
O381 C385 1.278 . S
C382 O383 1.203 . S
C382 O389 1.267 . S
O383 C382 1.203 . S
O384 C377 1.185 . S
O384 Zn380 2.086 . S
C385 O381 1.278 . S
C385 O386 1.211 . S
O386 C385 1.211 . S
C387 O379 1.284 . S
C387 O388 1.273 . S
O388 C387 1.273 . S
O389 Zn380 1.977 . S
O389 C382 1.267 . S
C390 O391 1.160 . S
C390 O397 1.185 . S
O391 C390 1.160 . S
O392 Zn393 1.899 . S
O392 C400 1.284 . S
Zn393 O392 1.899 . S
Zn393 O394 2.032 . S
Zn393 O397 2.086 . S
Zn393 O402 1.977 . S
O394 Zn393 2.032 . S
O394 C398 1.278 . S
C395 O396 1.203 . S
C395 O402 1.267 . S
O396 C395 1.203 . S
O397 C390 1.185 . S
O397 Zn393 2.086 . S
C398 O394 1.278 . S
C398 O399 1.211 . S
O399 C398 1.211 . S
C400 O392 1.284 . S
C400 O401 1.273 . S
O401 C400 1.273 . S
O402 Zn393 1.977 . S
O402 C395 1.267 . S
C403 O404 1.160 . S
C403 O410 1.185 . S
O404 C403 1.160 . S
O405 Zn406 1.899 . S
O405 C413 1.284 . S
Zn406 O405 1.899 . S
Zn406 O407 2.032 . S
Zn406 O410 2.086 . S
Zn406 O415 1.977 . S
O407 Zn406 2.032 . S
O407 C411 1.278 . S
C408 O409 1.203 . S
C408 O415 1.267 . S
O409 C408 1.203 . S
O410 C403 1.185 . S
O410 Zn406 2.086 . S
C411 O407 1.278 . S
C411 O412 1.211 . S
O412 C411 1.211 . S
C413 O405 1.284 . S
C413 O414 1.273 . S
O414 C413 1.273 . S
O415 Zn406 1.977 . S
O415 C408 1.267 . S
C416 O417 1.160 . S
C416 O423 1.185 . S
O417 C416 1.160 . S
O418 Zn419 1.899 . S
O418 C426 1.284 . S
Zn419 O418 1.899 . S
Zn419 O420 2.032 . S
Zn419 O423 2.086 . S
Zn419 O428 1.977 . S
O420 Zn419 2.032 . S
O420 C424 1.278 . S
C421 O422 1.203 . S
C421 O428 1.267 . S
O422 C421 1.203 . S
O423 C416 1.185 . S
O423 Zn419 2.086 . S
C424 O420 1.278 . S
C424 O425 1.211 . S
O425 C424 1.211 . S
C426 O418 1.284 . S
C426 O427 1.273 . S
O427 C426 1.273 . S
O428 Zn419 1.977 . S
O428 C421 1.267 . S
C429 O430 1.160 . S
C429 O436 1.185 . S
O430 C429 1.160 . S
O431 Zn432 1.899 . S
O431 C439 1.284 . S
Zn432 O431 1.899 . S
Zn432 O433 2.032 . S
Zn432 O436 2.086 1_556 S
Zn432 O441 1.977 . S
O433 Zn432 2.032 . S
O433 C437 1.278 . S
C434 O435 1.203 . S
C434 O441 1.267 . S
O435 C434 1.203 . S
O436 C429 1.185 . S
O436 Zn432 2.086 1_554 S
C437 O433 1.278 . S
C437 O438 1.211 . S
O438 C437 1.211 . S
C439 O431 1.284 . S
C439 O440 1.273 . S
O440 C439 1.273 . S
O441 Zn432 1.977 . S
O441 C434 1.267 . S
C442 O443 1.160 . S
C442 O449 1.185 . S
O443 C442 1.160 . S
O444 Zn445 1.899 . S
O444 C452 1.284 . S
Zn445 O444 1.899 . S
Zn445 O446 2.032 . S
Zn445 O449 2.086 1_556 S
Zn445 O454 1.977 . S
O446 Zn445 2.032 . S
O446 C450 1.278 . S
C447 O448 1.203 . S
C447 O454 1.267 . S
O448 C447 1.203 . S
O449 C442 1.185 . S
O449 Zn445 2.086 1_554 S
C450 O446 1.278 . S
C450 O451 1.211 . S
O451 C450 1.211 . S
C452 O444 1.284 . S
C452 O453 1.273 . S
O453 C452 1.273 . S
O454 Zn445 1.977 . S
O454 C447 1.267 . S
C455 O456 1.160 . S
C455 O462 1.185 . S
O456 C455 1.160 . S
O457 Zn458 1.899 . S
O457 C465 1.284 . S
Zn458 O457 1.899 . S
Zn458 O459 2.032 . S
Zn458 O462 2.086 1_556 S
Zn458 O467 1.977 . S
O459 Zn458 2.032 . S
O459 C463 1.278 . S
C460 O461 1.203 . S
C460 O467 1.267 . S
O461 C460 1.203 . S
O462 C455 1.185 . S
O462 Zn458 2.086 1_554 S
C463 O459 1.278 . S
C463 O464 1.211 . S
O464 C463 1.211 . S
C465 O457 1.284 . S
C465 O466 1.273 . S
O466 C465 1.273 . S
O467 Zn458 1.977 . S
O467 C460 1.267 . S
C468 C469 1.369 1_545 S
C468 C470 1.419 . S
C468 H472 0.930 . S
C469 C468 1.369 1_565 S
C469 C478 1.429 . S
C470 C468 1.419 . S
C470 C471 1.363 . S
C470 H473 0.929 . S
C471 C470 1.363 . S
C471 C477 1.428 1_545 S
H472 C468 0.930 . S
H473 C470 0.929 . S
S474 N475 1.613 . S
S474 N476 1.610 . S
N475 S474 1.613 . S
N475 C478 1.350 . S
N476 S474 1.610 . S
N476 C477 1.351 . S
C477 C471 1.428 1_565 S
C477 N476 1.351 . S
C477 C478 1.434 . S
C478 C469 1.429 . S
C478 N475 1.350 . S
C478 C477 1.434 . S
C479 C480 1.369 . S
C479 C481 1.419 1_455 S
C479 H483 0.930 . S
C480 C479 1.369 . S
C480 C489 1.429 . S
C481 C479 1.419 1_655 S
C481 C482 1.363 . S
C481 H484 0.929 . S
C482 C481 1.363 . S
C482 C488 1.428 . S
H483 C479 0.930 . S
H484 C481 0.929 . S
S485 N486 1.613 . S
S485 N487 1.610 1_455 S
N486 S485 1.613 . S
N486 C489 1.350 . S
N487 S485 1.610 1_655 S
N487 C488 1.351 . S
C488 C482 1.428 . S
C488 N487 1.351 . S
C488 C489 1.434 1_655 S
C489 C480 1.429 . S
C489 N486 1.350 . S
C489 C488 1.434 1_455 S
C490 C491 1.369 . S
C490 C492 1.419 . S
C490 H494 0.930 . S
C491 C490 1.369 . S
C491 C500 1.429 . S
C492 C490 1.419 . S
C492 C493 1.363 . S
C492 H495 0.929 . S
C493 C492 1.363 . S
C493 C499 1.428 . S
H494 C490 0.930 . S
H495 C492 0.929 . S
S496 N497 1.613 . S
S496 N498 1.610 . S
N497 S496 1.613 . S
N497 C500 1.350 . S
N498 S496 1.610 . S
N498 C499 1.351 . S
C499 C493 1.428 . S
C499 N498 1.351 . S
C499 C500 1.434 . S
C500 C491 1.429 . S
C500 N497 1.350 . S
C500 C499 1.434 . S
C501 C502 1.369 1_545 S
C501 C503 1.419 . S
C501 H505 0.930 . S
C502 C501 1.369 1_565 S
C502 C511 1.429 . S
C503 C501 1.419 . S
C503 C504 1.363 . S
C503 H506 0.929 . S
C504 C503 1.363 . S
C504 C510 1.428 1_545 S
H505 C501 0.930 . S
H506 C503 0.929 . S
S507 N508 1.613 . S
S507 N509 1.610 . S
N508 S507 1.613 . S
N508 C511 1.350 . S
N509 S507 1.610 . S
N509 C510 1.351 . S
C510 C504 1.428 1_565 S
C510 N509 1.351 . S
C510 C511 1.434 . S
C511 C502 1.429 . S
C511 N508 1.350 . S
C511 C510 1.434 . S
C512 C513 1.369 1_655 S
C512 C514 1.419 . S
C512 H516 0.930 . S
C513 C512 1.369 1_455 S
C513 C522 1.429 . S
C514 C512 1.419 . S
C514 C515 1.363 . S
C514 H517 0.929 . S
C515 C514 1.363 . S
C515 C521 1.428 1_655 S
H516 C512 0.930 . S
H517 C514 0.929 . S
S518 N519 1.613 . S
S518 N520 1.610 . S
N519 S518 1.613 . S
N519 C522 1.350 . S
N520 S518 1.610 . S
N520 C521 1.351 . S
C521 C515 1.428 1_455 S
C521 N520 1.351 . S
C521 C522 1.434 . S
C522 C513 1.429 . S
C522 N519 1.350 . S
C522 C521 1.434 . S
C523 C524 1.369 . S
C523 C525 1.419 . S
C523 H527 0.930 . S
C524 C523 1.369 . S
C524 C533 1.429 . S
C525 C523 1.419 . S
C525 C526 1.363 . S
C525 H528 0.929 . S
C526 C525 1.363 . S
C526 C532 1.428 . S
H527 C523 0.930 . S
H528 C525 0.929 . S
S529 N530 1.613 . S
S529 N531 1.610 . S
N530 S529 1.613 . S
N530 C533 1.350 . S
N531 S529 1.610 . S
N531 C532 1.351 . S
C532 C526 1.428 . S
C532 N531 1.351 . S
C532 C533 1.434 . S
C533 C524 1.429 . S
C533 N530 1.350 . S
C533 C532 1.434 . S
C534 C535 1.369 . S
C534 C536 1.419 . S
C534 H538 0.930 . S
C535 C534 1.369 . S
C535 C544 1.429 . S
C536 C534 1.419 . S
C536 C537 1.363 . S
C536 H539 0.929 . S
C537 C536 1.363 . S
C537 C543 1.428 . S
H538 C534 0.930 . S
H539 C536 0.929 . S
S540 N541 1.613 . S
S540 N542 1.610 . S
N541 S540 1.613 . S
N541 C544 1.350 . S
N542 S540 1.610 . S
N542 C543 1.351 . S
C543 C537 1.428 . S
C543 N542 1.351 . S
C543 C544 1.434 . S
C544 C535 1.429 . S
C544 N541 1.350 . S
C544 C543 1.434 . S
C545 C546 1.369 . S
C545 C547 1.419 . S
C545 H549 0.930 . S
C546 C545 1.369 . S
C546 C555 1.429 . S
C547 C545 1.419 . S
C547 C548 1.363 . S
C547 H550 0.929 . S
C548 C547 1.363 . S
C548 C554 1.428 . S
H549 C545 0.930 . S
H550 C547 0.929 . S
S551 N552 1.613 . S
S551 N553 1.610 . S
N552 S551 1.613 . S
N552 C555 1.350 . S
N553 S551 1.610 . S
N553 C554 1.351 . S
C554 C548 1.428 . S
C554 N553 1.351 . S
C554 C555 1.434 . S
C555 C546 1.429 . S
C555 N552 1.350 . S
C555 C554 1.434 . S
C556 C557 1.369 . S
C556 C558 1.419 . S
C556 H560 0.930 . S
C557 C556 1.369 . S
C557 C566 1.429 . S
C558 C556 1.419 . S
C558 C559 1.363 . S
C558 H561 0.929 . S
C559 C558 1.363 . S
C559 C565 1.428 . S
H560 C556 0.930 . S
H561 C558 0.929 . S
S562 N563 1.613 . S
S562 N564 1.610 . S
N563 S562 1.613 . S
N563 C566 1.350 . S
N564 S562 1.610 . S
N564 C565 1.351 . S
C565 C559 1.428 . S
C565 N564 1.351 . S
C565 C566 1.434 . S
C566 C557 1.429 . S
C566 N563 1.350 . S
C566 C565 1.434 . S
C567 C568 1.369 . S
C567 C569 1.419 . S
C567 H571 0.930 . S
C568 C567 1.369 . S
C568 C577 1.429 . S
C569 C567 1.419 . S
C569 C570 1.363 . S
C569 H572 0.929 . S
C570 C569 1.363 . S
C570 C576 1.428 . S
H571 C567 0.930 . S
H572 C569 0.929 . S
S573 N574 1.613 . S
S573 N575 1.610 . S
N574 S573 1.613 . S
N574 C577 1.350 . S
N575 S573 1.610 . S
N575 C576 1.351 . S
C576 C570 1.428 . S
C576 N575 1.351 . S
C576 C577 1.434 . S
C577 C568 1.429 . S
C577 N574 1.350 . S
C577 C576 1.434 . S
C578 C579 1.369 . S
C578 C580 1.419 . S
C578 H582 0.930 . S
C579 C578 1.369 . S
C579 C588 1.429 . S
C580 C578 1.419 . S
C580 C581 1.363 . S
C580 H583 0.929 . S
C581 C580 1.363 . S
C581 C587 1.428 . S
H582 C578 0.930 . S
H583 C580 0.929 . S
S584 N585 1.613 . S
S584 N586 1.610 . S
N585 S584 1.613 . S
N585 C588 1.350 . S
N586 S584 1.610 . S
N586 C587 1.351 . S
C587 C581 1.428 . S
C587 N586 1.351 . S
C587 C588 1.434 . S
C588 C579 1.429 . S
C588 N585 1.350 . S
C588 C587 1.434 . S
C589 C590 1.369 . S
C589 C591 1.419 . S
C589 H593 0.930 . S
C590 C589 1.369 . S
C590 C599 1.429 . S
C591 C589 1.419 . S
C591 C592 1.363 . S
C591 H594 0.929 . S
C592 C591 1.363 . S
C592 C598 1.428 . S
H593 C589 0.930 . S
H594 C591 0.929 . S
S595 N596 1.613 . S
S595 N597 1.610 . S
N596 S595 1.613 . S
N596 C599 1.350 . S
N597 S595 1.610 . S
N597 C598 1.351 . S
C598 C592 1.428 . S
C598 N597 1.351 . S
C598 C599 1.434 . S
C599 C590 1.429 . S
C599 N596 1.350 . S
C599 C598 1.434 . S
C600 C601 1.369 . S
C600 C602 1.419 . S
C600 H604 0.930 . S
C601 C600 1.369 . S
C601 C610 1.429 . S
C602 C600 1.419 . S
C602 C603 1.363 . S
C602 H605 0.929 . S
C603 C602 1.363 . S
C603 C609 1.428 . S
H604 C600 0.930 . S
H605 C602 0.929 . S
S606 N607 1.613 . S
S606 N608 1.610 . S
N607 S606 1.613 . S
N607 C610 1.350 . S
N608 S606 1.610 . S
N608 C609 1.351 . S
C609 C603 1.428 . S
C609 N608 1.351 . S
C609 C610 1.434 . S
C610 C601 1.429 . S
C610 N607 1.350 . S
C610 C609 1.434 . S
C611 C612 1.369 . S
C611 C613 1.419 . S
C611 H615 0.930 . S
C612 C611 1.369 . S
C612 C621 1.429 . S
C613 C611 1.419 . S
C613 C614 1.363 . S
C613 H616 0.929 . S
C614 C613 1.363 . S
C614 C620 1.428 . S
H615 C611 0.930 . S
H616 C613 0.929 . S
S617 N618 1.613 . S
S617 N619 1.610 . S
N618 S617 1.613 . S
N618 C621 1.350 . S
N619 S617 1.610 . S
N619 C620 1.351 . S
C620 C614 1.428 . S
C620 N619 1.351 . S
C620 C621 1.434 . S
C621 C612 1.429 . S
C621 N618 1.350 . S
C621 C620 1.434 . S
C622 C623 1.369 . S
C622 C624 1.419 . S
C622 H626 0.930 . S
C623 C622 1.369 . S
C623 C632 1.429 . S
C624 C622 1.419 . S
C624 C625 1.363 . S
C624 H627 0.929 . S
C625 C624 1.363 . S
C625 C631 1.428 . S
H626 C622 0.930 . S
H627 C624 0.929 . S
S628 N629 1.613 . S
S628 N630 1.610 . S
N629 S628 1.613 . S
N629 C632 1.350 . S
N630 S628 1.610 . S
N630 C631 1.351 . S
C631 C625 1.428 . S
C631 N630 1.351 . S
C631 C632 1.434 . S
C632 C623 1.429 . S
C632 N629 1.350 . S
C632 C631 1.434 . S
C633 C634 1.369 . S
C633 C635 1.419 . S
C633 H637 0.930 . S
C634 C633 1.369 . S
C634 C643 1.429 . S
C635 C633 1.419 . S
C635 C636 1.363 . S
C635 H638 0.929 . S
C636 C635 1.363 . S
C636 C642 1.428 . S
H637 C633 0.930 . S
H638 C635 0.929 . S
S639 N640 1.613 . S
S639 N641 1.610 . S
N640 S639 1.613 . S
N640 C643 1.350 . S
N641 S639 1.610 . S
N641 C642 1.351 . S
C642 C636 1.428 . S
C642 N641 1.351 . S
C642 C643 1.434 . S
C643 C634 1.429 . S
C643 N640 1.350 . S
C643 C642 1.434 . S
C644 C645 1.369 . S
C644 C646 1.419 . S
C644 H648 0.930 . S
C645 C644 1.369 . S
C645 C654 1.429 . S
C646 C644 1.419 . S
C646 C647 1.363 . S
C646 H649 0.929 . S
C647 C646 1.363 . S
C647 C653 1.428 . S
H648 C644 0.930 . S
H649 C646 0.929 . S
S650 N651 1.613 . S
S650 N652 1.610 . S
N651 S650 1.613 . S
N651 C654 1.350 . S
N652 S650 1.610 . S
N652 C653 1.351 . S
C653 C647 1.428 . S
C653 N652 1.351 . S
C653 C654 1.434 . S
C654 C645 1.429 . S
C654 N651 1.350 . S
C654 C653 1.434 . S
C655 C656 1.369 . S
C655 C657 1.419 . S
C655 H659 0.930 . S
C656 C655 1.369 . S
C656 C665 1.429 . S
C657 C655 1.419 . S
C657 C658 1.363 . S
C657 H660 0.929 . S
C658 C657 1.363 . S
C658 C664 1.428 . S
H659 C655 0.930 . S
H660 C657 0.929 . S
S661 N662 1.613 . S
S661 N663 1.610 . S
N662 S661 1.613 . S
N662 C665 1.350 . S
N663 S661 1.610 . S
N663 C664 1.351 . S
C664 C658 1.428 . S
C664 N663 1.351 . S
C664 C665 1.434 . S
C665 C656 1.429 . S
C665 N662 1.350 . S
C665 C664 1.434 . S
C666 C667 1.369 . S
C666 C668 1.412 1_566 S
C666 H670 0.930 . S
C667 C666 1.369 . S
C667 C676 1.384 1_565 S
C668 C666 1.412 1_544 S
C668 C669 1.375 . S
C668 H671 0.922 1_545 S
C669 C668 1.375 . S
C669 C675 1.428 . S
H670 C666 0.930 . S
H671 C668 0.922 1_565 S
S672 N673 1.613 . S
S672 N674 1.610 1_556 S
N673 S672 1.613 . S
N673 C676 1.375 . S
N674 S672 1.610 1_554 S
N674 C675 1.351 . S
C675 C669 1.428 . S
C675 N674 1.351 . S
C675 C676 1.460 1_554 S
C676 C667 1.384 1_545 S
C676 N673 1.375 . S
C676 C675 1.460 1_556 S
C677 C678 1.369 . S
C677 C679 1.419 1_554 S
C677 H681 0.930 . S
C678 C677 1.369 . S
C678 C687 1.429 1_655 S
C679 C677 1.419 1_556 S
C679 C680 1.363 1_655 S
C679 H682 0.929 . S
C680 C679 1.363 1_455 S
C680 C686 1.428 . S
H681 C677 0.930 . S
H682 C679 0.929 . S
S683 N684 1.613 . S
S683 N685 1.610 1_554 S
N684 S683 1.613 . S
N684 C687 1.350 . S
N685 S683 1.610 1_556 S
N685 C686 1.351 . S
C686 C680 1.428 . S
C686 N685 1.351 . S
C686 C687 1.434 1_556 S
C687 C678 1.429 1_455 S
C687 N684 1.350 . S
C687 C686 1.434 1_554 S
C688 C689 1.369 . S
C688 C690 1.419 . S
C688 H692 0.930 . S
C689 C688 1.369 . S
C689 C698 1.429 1_556 S
C690 C688 1.419 . S
C690 C691 1.363 1_556 S
C690 H693 0.929 . S
C691 C690 1.363 1_554 S
C691 C697 1.428 . S
H692 C688 0.930 . S
H693 C690 0.929 . S
S694 N695 1.613 . S
S694 N696 1.610 . S
N695 S694 1.613 . S
N695 C698 1.350 . S
N696 S694 1.610 . S
N696 C697 1.351 . S
C697 C691 1.428 . S
C697 N696 1.351 . S
C697 C698 1.434 . S
C698 C689 1.429 1_554 S
C698 N695 1.350 . S
C698 C697 1.434 . S
C699 C700 1.369 1_554 S
C699 C701 1.419 . S
C699 H703 0.930 . S
C700 C699 1.369 1_556 S
C700 C709 1.429 1_565 S
C701 C699 1.419 . S
C701 C702 1.363 1_565 S
C701 H704 0.929 . S
C702 C701 1.363 1_545 S
C702 C708 1.428 1_554 S
H703 C699 0.930 . S
H704 C701 0.929 . S
S705 N706 1.613 . S
S705 N707 1.610 . S
N706 S705 1.613 . S
N706 C709 1.350 . S
N707 S705 1.610 . S
N707 C708 1.351 . S
C708 C702 1.428 1_556 S
C708 N707 1.351 . S
C708 C709 1.434 . S
C709 C700 1.429 1_545 S
C709 N706 1.350 . S
C709 C708 1.434 . S
C710 C711 1.369 1_655 S
C710 C712 1.411 1_556 S
C710 H714 0.930 . S
C711 C710 1.369 1_455 S
C711 C720 1.429 1_556 S
C712 C710 1.411 1_554 S
C712 C713 1.371 . S
C712 H715 0.929 1_554 S
C713 C712 1.371 . S
C713 C719 1.428 1_655 S
H714 C710 0.930 . S
H715 C712 0.929 1_556 S
S716 N717 1.613 . S
S716 N718 1.610 . S
N717 S716 1.613 . S
N717 C720 1.350 . S
N718 S716 1.610 . S
N718 C719 1.351 . S
C719 C713 1.428 1_455 S
C719 N718 1.351 . S
C719 C720 1.434 . S
C720 C711 1.429 1_554 S
C720 N717 1.350 . S
C720 C719 1.434 . S
C721 C722 1.365 1_556 S
C721 C723 1.422 . S
C721 H725 0.930 . S
C722 C721 1.365 1_554 S
C722 C731 1.429 . S
C723 C721 1.422 . S
C723 C724 1.363 . S
C723 H726 0.929 . S
C724 C723 1.363 . S
C724 C730 1.428 1_556 S
H725 C721 0.930 . S
H726 C723 0.929 . S
S727 N728 1.613 . S
S727 N729 1.610 . S
N728 S727 1.613 . S
N728 C731 1.350 . S
N729 S727 1.610 . S
N729 C730 1.351 . S
C730 C724 1.428 1_554 S
C730 N729 1.351 . S
C730 C731 1.434 . S
C731 C722 1.429 . S
C731 N728 1.350 . S
C731 C730 1.434 . S
C732 C733 1.369 . S
C732 C734 1.419 . S
C732 H736 0.930 . S
C733 C732 1.369 . S
C733 C742 1.429 . S
C734 C732 1.419 . S
C734 C735 1.363 . S
C734 H737 0.929 . S
C735 C734 1.363 . S
C735 C741 1.428 . S
H736 C732 0.930 . S
H737 C734 0.929 . S
S738 N739 1.613 . S
S738 N740 1.610 . S
N739 S738 1.613 . S
N739 C742 1.350 . S
N740 S738 1.610 . S
N740 C741 1.351 . S
C741 C735 1.428 . S
C741 N740 1.351 . S
C741 C742 1.434 . S
C742 C733 1.429 . S
C742 N739 1.350 . S
C742 C741 1.434 . S
C743 C744 1.369 . S
C743 C745 1.419 . S
C743 H747 0.930 . S
C744 C743 1.369 . S
C744 C753 1.429 . S
C745 C743 1.419 . S
C745 C746 1.363 . S
C745 H748 0.929 . S
C746 C745 1.363 . S
C746 C752 1.428 . S
H747 C743 0.930 . S
H748 C745 0.929 . S
S749 N750 1.613 . S
S749 N751 1.610 . S
N750 S749 1.613 . S
N750 C753 1.350 . S
N751 S749 1.610 . S
N751 C752 1.351 . S
C752 C746 1.428 . S
C752 N751 1.351 . S
C752 C753 1.434 . S
C753 C744 1.429 . S
C753 N750 1.350 . S
C753 C752 1.434 . S
C754 C755 1.369 . S
C754 C756 1.419 . S
C754 H758 0.930 . S
C755 C754 1.369 . S
C755 C764 1.429 . S
C756 C754 1.419 . S
C756 C757 1.363 . S
C756 H759 0.929 . S
C757 C756 1.363 . S
C757 C763 1.428 . S
H758 C754 0.930 . S
H759 C756 0.929 . S
S760 N761 1.613 . S
S760 N762 1.610 . S
N761 S760 1.613 . S
N761 C764 1.350 . S
N762 S760 1.610 . S
N762 C763 1.351 . S
C763 C757 1.428 . S
C763 N762 1.351 . S
C763 C764 1.434 . S
C764 C755 1.429 . S
C764 N761 1.350 . S
C764 C763 1.434 . S
C765 C766 1.369 . S
C765 C767 1.419 . S
C765 H769 0.930 . S
C766 C765 1.369 . S
C766 C775 1.429 . S
C767 C765 1.419 . S
C767 C768 1.363 . S
C767 H770 0.929 . S
C768 C767 1.363 . S
C768 C774 1.428 . S
H769 C765 0.930 . S
H770 C767 0.929 . S
S771 N772 1.613 . S
S771 N773 1.610 . S
N772 S771 1.613 . S
N772 C775 1.350 . S
N773 S771 1.610 . S
N773 C774 1.351 . S
C774 C768 1.428 . S
C774 N773 1.351 . S
C774 C775 1.434 . S
C775 C766 1.429 . S
C775 N772 1.350 . S
C775 C774 1.434 . S
C776 C777 1.369 . S
C776 C778 1.419 . S
C776 H780 0.930 . S
C777 C776 1.369 . S
C777 C786 1.429 . S
C778 C776 1.419 . S
C778 C779 1.363 . S
C778 H781 0.929 . S
C779 C778 1.363 . S
C779 C785 1.428 . S
H780 C776 0.930 . S
H781 C778 0.929 . S
S782 N783 1.613 . S
S782 N784 1.610 . S
N783 S782 1.613 . S
N783 C786 1.350 . S
N784 S782 1.610 . S
N784 C785 1.351 . S
C785 C779 1.428 . S
C785 N784 1.351 . S
C785 C786 1.434 . S
C786 C777 1.429 . S
C786 N783 1.350 . S
C786 C785 1.434 . S
C787 C788 1.369 . S
C787 C789 1.419 . S
C787 H791 0.930 . S
C788 C787 1.369 . S
C788 C797 1.429 . S
C789 C787 1.419 . S
C789 C790 1.363 . S
C789 H792 0.929 . S
C790 C789 1.363 . S
C790 C796 1.428 . S
H791 C787 0.930 . S
H792 C789 0.929 . S
S793 N794 1.613 . S
S793 N795 1.610 . S
N794 S793 1.613 . S
N794 C797 1.350 . S
N795 S793 1.610 . S
N795 C796 1.351 . S
C796 C790 1.428 . S
C796 N795 1.351 . S
C796 C797 1.434 . S
C797 C788 1.429 . S
C797 N794 1.350 . S
C797 C796 1.434 . S
C798 C799 1.369 . S
C798 C800 1.419 . S
C798 H802 0.930 . S
C799 C798 1.369 . S
C799 C808 1.429 . S
C800 C798 1.419 . S
C800 C801 1.363 . S
C800 H803 0.929 . S
C801 C800 1.363 . S
C801 C807 1.428 . S
H802 C798 0.930 . S
H803 C800 0.929 . S
S804 N805 1.613 . S
S804 N806 1.610 . S
N805 S804 1.613 . S
N805 C808 1.350 . S
N806 S804 1.610 . S
N806 C807 1.351 . S
C807 C801 1.428 . S
C807 N806 1.351 . S
C807 C808 1.434 . S
C808 C799 1.429 . S
C808 N805 1.350 . S
C808 C807 1.434 . S
C809 C810 1.369 . S
C809 C811 1.419 . S
C809 H813 0.930 . S
C810 C809 1.369 . S
C810 C819 1.429 . S
C811 C809 1.419 . S
C811 C812 1.363 . S
C811 H814 0.929 . S
C812 C811 1.363 . S
C812 C818 1.428 . S
H813 C809 0.930 . S
H814 C811 0.929 . S
S815 N816 1.613 . S
S815 N817 1.610 . S
N816 S815 1.613 . S
N816 C819 1.350 . S
N817 S815 1.610 . S
N817 C818 1.351 . S
C818 C812 1.428 . S
C818 N817 1.351 . S
C818 C819 1.434 . S
C819 C810 1.429 . S
C819 N816 1.350 . S
C819 C818 1.434 . S
C820 C821 1.369 . S
C820 C822 1.419 . S
C820 H824 0.930 . S
C821 C820 1.369 . S
C821 C830 1.429 . S
C822 C820 1.419 . S
C822 C823 1.363 . S
C822 H825 0.929 . S
C823 C822 1.363 . S
C823 C829 1.428 . S
H824 C820 0.930 . S
H825 C822 0.929 . S
S826 N827 1.613 . S
S826 N828 1.610 . S
N827 S826 1.613 . S
N827 C830 1.350 . S
N828 S826 1.610 . S
N828 C829 1.351 . S
C829 C823 1.428 . S
C829 N828 1.351 . S
C829 C830 1.434 . S
C830 C821 1.429 . S
C830 N827 1.350 . S
C830 C829 1.434 . S
C831 C832 1.369 . S
C831 C833 1.419 . S
C831 H835 0.930 . S
C832 C831 1.369 . S
C832 C841 1.429 . S
C833 C831 1.419 . S
C833 C834 1.363 . S
C833 H836 0.929 . S
C834 C833 1.363 . S
C834 C840 1.428 . S
H835 C831 0.930 . S
H836 C833 0.929 . S
S837 N838 1.613 . S
S837 N839 1.610 . S
N838 S837 1.613 . S
N838 C841 1.350 . S
N839 S837 1.610 . S
N839 C840 1.351 . S
C840 C834 1.428 . S
C840 N839 1.351 . S
C840 C841 1.434 . S
C841 C832 1.429 . S
C841 N838 1.350 . S
C841 C840 1.434 . S
C842 C843 1.369 . S
C842 C844 1.419 . S
C842 H846 0.930 . S
C843 C842 1.369 . S
C843 C852 1.429 . S
C844 C842 1.419 . S
C844 C845 1.363 . S
C844 H847 0.929 . S
C845 C844 1.363 . S
C845 C851 1.428 . S
H846 C842 0.930 . S
H847 C844 0.929 . S
S848 N849 1.613 . S
S848 N850 1.610 . S
N849 S848 1.613 . S
N849 C852 1.350 . S
N850 S848 1.610 . S
N850 C851 1.351 . S
C851 C845 1.428 . S
C851 N850 1.351 . S
C851 C852 1.434 . S
C852 C843 1.429 . S
C852 N849 1.350 . S
C852 C851 1.434 . S
C853 C854 1.369 . S
C853 C855 1.419 . S
C853 H857 0.930 . S
C854 C853 1.369 . S
C854 C863 1.429 . S
C855 C853 1.419 . S
C855 C856 1.363 . S
C855 H858 0.929 . S
C856 C855 1.363 . S
C856 C862 1.428 . S
H857 C853 0.930 . S
H858 C855 0.929 . S
S859 N860 1.613 . S
S859 N861 1.610 . S
N860 S859 1.613 . S
N860 C863 1.350 . S
N861 S859 1.610 . S
N861 C862 1.351 . S
C862 C856 1.428 . S
C862 N861 1.351 . S
C862 C863 1.434 . S
C863 C854 1.429 . S
C863 N860 1.350 . S
C863 C862 1.434 . S
C864 C865 1.369 . S
C864 C866 1.419 . S
C864 H868 0.930 . S
C865 C864 1.369 . S
C865 C874 1.429 . S
C866 C864 1.419 . S
C866 C867 1.363 . S
C866 H869 0.929 . S
C867 C866 1.363 . S
C867 C873 1.428 . S
H868 C864 0.930 . S
H869 C866 0.929 . S
S870 N871 1.613 1_556 S
S870 N872 1.610 1_556 S
N871 S870 1.613 1_554 S
N871 C874 1.350 . S
N872 S870 1.610 1_554 S
N872 C873 1.351 . S
C873 C867 1.428 . S
C873 N872 1.351 . S
C873 C874 1.434 . S
C874 C865 1.429 . S
C874 N871 1.350 . S
C874 C873 1.434 . S
C875 C876 1.369 . S
C875 C877 1.419 . S
C875 H879 0.930 . S
C876 C875 1.369 . S
C876 C885 1.429 . S
C877 C875 1.419 . S
C877 C878 1.363 . S
C877 H880 0.929 . S
C878 C877 1.363 . S
C878 C884 1.428 . S
H879 C875 0.930 . S
H880 C877 0.929 . S
S881 N882 1.613 . S
S881 N883 1.610 . S
N882 S881 1.613 . S
N882 C885 1.350 . S
N883 S881 1.610 . S
N883 C884 1.351 . S
C884 C878 1.428 . S
C884 N883 1.351 . S
C884 C885 1.434 . S
C885 C876 1.429 . S
C885 N882 1.350 . S
C885 C884 1.434 . S
C886 C887 1.369 . S
C886 C888 1.419 . S
C886 H890 0.930 . S
C887 C886 1.369 . S
C887 C896 1.429 . S
C888 C886 1.419 . S
C888 C889 1.363 . S
C888 H891 0.929 . S
C889 C888 1.363 . S
C889 C895 1.428 . S
H890 C886 0.930 . S
H891 C888 0.929 . S
S892 N893 1.613 . S
S892 N894 1.610 . S
N893 S892 1.613 . S
N893 C896 1.350 . S
N894 S892 1.610 . S
N894 C895 1.351 . S
C895 C889 1.428 . S
C895 N894 1.351 . S
C895 C896 1.434 . S
C896 C887 1.429 . S
C896 N893 1.350 . S
C896 C895 1.434 . S
C897 C898 1.369 . S
C897 C899 1.419 . S
C897 H901 0.930 . S
C898 C897 1.369 . S
C898 C907 1.429 . S
C899 C897 1.419 . S
C899 C900 1.363 . S
C899 H902 0.929 . S
C900 C899 1.363 . S
C900 C906 1.428 . S
H901 C897 0.930 . S
H902 C899 0.929 . S
S903 N904 1.613 . S
S903 N905 1.610 . S
N904 S903 1.613 . S
N904 C907 1.350 . S
N905 S903 1.610 . S
N905 C906 1.351 . S
C906 C900 1.428 . S
C906 N905 1.351 . S
C906 C907 1.434 . S
C907 C898 1.429 . S
C907 N904 1.350 . S
C907 C906 1.434 . S
C908 C909 1.369 . S
C908 C910 1.419 . S
C908 H912 0.930 . S
C909 C908 1.369 . S
C909 C918 1.429 . S
C910 C908 1.419 . S
C910 C911 1.363 . S
C910 H913 0.929 . S
C911 C910 1.363 . S
C911 C917 1.428 . S
H912 C908 0.930 . S
H913 C910 0.929 . S
S914 N915 1.613 . S
S914 N916 1.610 . S
N915 S914 1.613 . S
N915 C918 1.350 . S
N916 S914 1.610 . S
N916 C917 1.351 . S
C917 C911 1.428 . S
C917 N916 1.351 . S
C917 C918 1.434 . S
C918 C909 1.429 . S
C918 N915 1.350 . S
C918 C917 1.434 . S
C919 C920 1.369 . S
C919 C921 1.419 . S
C919 H923 0.930 . S
C920 C919 1.369 . S
C920 C929 1.429 . S
C921 C919 1.419 . S
C921 C922 1.363 . S
C921 H924 0.929 . S
C922 C921 1.363 . S
C922 C928 1.428 . S
H923 C919 0.930 . S
H924 C921 0.929 . S
S925 N926 1.613 . S
S925 N927 1.610 . S
N926 S925 1.613 . S
N926 C929 1.350 . S
N927 S925 1.610 . S
N927 C928 1.351 . S
C928 C922 1.428 . S
C928 N927 1.351 . S
C928 C929 1.434 . S
C929 C920 1.429 . S
C929 N926 1.350 . S
C929 C928 1.434 . S
C930 C931 1.369 . S
C930 C932 1.419 . S
C930 H934 0.930 . S
C931 C930 1.369 . S
C931 C940 1.429 . S
C932 C930 1.419 . S
C932 C933 1.363 . S
C932 H935 0.929 . S
C933 C932 1.363 . S
C933 C939 1.428 . S
H934 C930 0.930 . S
H935 C932 0.929 . S
S936 N937 1.613 . S
S936 N938 1.610 . S
N937 S936 1.613 . S
N937 C940 1.350 . S
N938 S936 1.610 . S
N938 C939 1.351 . S
C939 C933 1.428 . S
C939 N938 1.351 . S
C939 C940 1.434 . S
C940 C931 1.429 . S
C940 N937 1.350 . S
C940 C939 1.434 . S
C941 C942 1.369 . S
C941 C943 1.419 . S
C941 H945 0.930 . S
C942 C941 1.369 . S
C942 C951 1.429 . S
C943 C941 1.419 . S
C943 C944 1.363 . S
C943 H946 0.929 . S
C944 C943 1.363 . S
C944 C950 1.428 . S
H945 C941 0.930 . S
H946 C943 0.929 . S
S947 N948 1.613 1_554 S
S947 N949 1.610 1_554 S
N948 S947 1.613 1_556 S
N948 C951 1.350 . S
N949 S947 1.610 1_556 S
N949 C950 1.351 . S
C950 C944 1.428 . S
C950 N949 1.351 . S
C950 C951 1.434 . S
C951 C942 1.429 . S
C951 N948 1.350 . S
C951 C950 1.434 . S
C952 C953 1.369 . S
C952 C954 1.419 . S
C952 H956 0.930 . S
C953 C952 1.369 . S
C953 C962 1.429 . S
C954 C952 1.419 . S
C954 C955 1.363 . S
C954 H957 0.929 . S
C955 C954 1.363 . S
C955 C961 1.428 . S
H956 C952 0.930 . S
H957 C954 0.929 . S
S958 N959 1.613 . S
S958 N960 1.610 . S
N959 S958 1.613 . S
N959 C962 1.350 . S
N960 S958 1.610 . S
N960 C961 1.351 . S
C961 C955 1.428 . S
C961 N960 1.351 . S
C961 C962 1.434 . S
C962 C953 1.429 . S
C962 N959 1.350 . S
C962 C961 1.434 . S
C963 C964 1.369 . S
C963 C965 1.419 . S
C963 H967 0.930 . S
C964 C963 1.369 . S
C964 C973 1.429 . S
C965 C963 1.419 . S
C965 C966 1.363 . S
C965 H968 0.929 . S
C966 C965 1.363 . S
C966 C972 1.428 . S
H967 C963 0.930 . S
H968 C965 0.929 . S
S969 N970 1.613 . S
S969 N971 1.610 . S
N970 S969 1.613 . S
N970 C973 1.350 . S
N971 S969 1.610 . S
N971 C972 1.351 . S
C972 C966 1.428 . S
C972 N971 1.351 . S
C972 C973 1.434 . S
C973 C964 1.429 . S
C973 N970 1.350 . S
C973 C972 1.434 . S
C974 C975 1.369 . S
C974 C976 1.419 . S
C974 H978 0.930 . S
C975 C974 1.369 . S
C975 C984 1.429 . S
C976 C974 1.419 . S
C976 C977 1.363 . S
C976 H979 0.929 . S
C977 C976 1.363 . S
C977 C983 1.428 . S
H978 C974 0.930 . S
H979 C976 0.929 . S
S980 N981 1.613 . S
S980 N982 1.610 . S
N981 S980 1.613 . S
N981 C984 1.350 . S
N982 S980 1.610 . S
N982 C983 1.351 . S
C983 C977 1.428 . S
C983 N982 1.351 . S
C983 C984 1.434 . S
C984 C975 1.429 . S
C984 N981 1.350 . S
C984 C983 1.434 . S
C985 C986 1.369 . S
C985 C987 1.419 . S
C985 H989 0.930 . S
C986 C985 1.369 . S
C986 C995 1.429 . S
C987 C985 1.419 . S
C987 C988 1.363 . S
C987 H990 0.929 . S
C988 C987 1.363 . S
C988 C994 1.428 . S
H989 C985 0.930 . S
H990 C987 0.929 . S
S991 N992 1.613 . S
S991 N993 1.610 . S
N992 S991 1.613 . S
N992 C995 1.350 . S
N993 S991 1.610 . S
N993 C994 1.351 . S
C994 C988 1.428 . S
C994 N993 1.351 . S
C994 C995 1.434 . S
C995 C986 1.429 . S
C995 N992 1.350 . S
C995 C994 1.434 . S
C996 C997 1.369 . S
C996 C998 1.419 1_455 S
C996 H1000 0.930 . S
C997 C996 1.369 . S
C997 C1006 1.429 . S
C998 C996 1.419 1_655 S
C998 C999 1.363 . S
C998 H1001 0.929 . S
C999 C998 1.363 . S
C999 C1005 1.428 . S
H1000 C996 0.930 . S
H1001 C998 0.929 . S
S1002 N1003 1.613 1_655 S
S1002 N1004 1.610 . S
N1003 S1002 1.613 1_455 S
N1003 C1006 1.350 . S
N1004 S1002 1.610 . S
N1004 C1005 1.351 . S
C1005 C999 1.428 . S
C1005 N1004 1.351 . S
C1005 C1006 1.434 1_655 S
C1006 C997 1.429 . S
C1006 N1003 1.350 . S
C1006 C1005 1.434 1_455 S
C1007 C1008 1.369 . S
C1007 C1009 1.419 . S
C1007 H1011 0.930 . S
C1008 C1007 1.369 . S
C1008 C1017 1.429 . S
C1009 C1007 1.419 . S
C1009 C1010 1.363 . S
C1009 H1012 0.929 . S
C1010 C1009 1.363 . S
C1010 C1016 1.428 . S
H1011 C1007 0.930 . S
H1012 C1009 0.929 . S
S1013 N1014 1.613 . S
S1013 N1015 1.610 . S
N1014 S1013 1.613 . S
N1014 C1017 1.350 . S
N1015 S1013 1.610 . S
N1015 C1016 1.351 . S
C1016 C1010 1.428 . S
C1016 N1015 1.351 . S
C1016 C1017 1.434 . S
C1017 C1008 1.429 . S
C1017 N1014 1.350 . S
C1017 C1016 1.434 . S
C1018 C1019 1.369 . S
C1018 C1020 1.419 1_545 S
C1018 H1022 0.930 . S
C1019 C1018 1.369 . S
C1019 C1028 1.429 . S
C1020 C1018 1.419 1_565 S
C1020 C1021 1.363 . S
C1020 H1023 0.929 . S
C1021 C1020 1.363 . S
C1021 C1027 1.428 . S
H1022 C1018 0.930 . S
H1023 C1020 0.929 . S
S1024 N1025 1.613 . S
S1024 N1026 1.610 1_545 S
N1025 S1024 1.613 . S
N1025 C1028 1.350 . S
N1026 S1024 1.610 1_565 S
N1026 C1027 1.351 . S
C1027 C1021 1.428 . S
C1027 N1026 1.351 . S
C1027 C1028 1.434 1_565 S
C1028 C1019 1.429 . S
C1028 N1025 1.350 . S
C1028 C1027 1.434 1_545 S
C1029 C1030 1.369 . S
C1029 C1031 1.419 1_545 S
C1029 H1033 0.930 . S
C1030 C1029 1.369 . S
C1030 C1039 1.429 . S
C1031 C1029 1.419 1_565 S
C1031 C1032 1.363 . S
C1031 H1034 0.929 . S
C1032 C1031 1.363 . S
C1032 C1038 1.428 . S
H1033 C1029 0.930 . S
H1034 C1031 0.929 . S
S1035 N1036 1.613 1_565 S
S1035 N1037 1.610 . S
N1036 S1035 1.613 1_545 S
N1036 C1039 1.350 . S
N1037 S1035 1.610 . S
N1037 C1038 1.351 . S
C1038 C1032 1.428 . S
C1038 N1037 1.351 . S
C1038 C1039 1.434 1_565 S
C1039 C1030 1.429 . S
C1039 N1036 1.350 . S
C1039 C1038 1.434 1_545 S
C1040 C1041 1.369 . S
C1040 C1042 1.419 1_655 S
C1040 H1044 0.930 . S
C1041 C1040 1.369 . S
C1041 C1050 1.429 . S
C1042 C1040 1.419 1_455 S
C1042 C1043 1.363 . S
C1042 H1045 0.929 . S
C1043 C1042 1.363 . S
C1043 C1049 1.428 . S
H1044 C1040 0.930 . S
H1045 C1042 0.929 . S
S1046 N1047 1.613 . S
S1046 N1048 1.610 1_655 S
N1047 S1046 1.613 . S
N1047 C1050 1.350 . S
N1048 S1046 1.610 1_455 S
N1048 C1049 1.351 . S
C1049 C1043 1.428 . S
C1049 N1048 1.351 . S
C1049 C1050 1.434 1_455 S
C1050 C1041 1.429 . S
C1050 N1047 1.350 . S
C1050 C1049 1.434 1_655 S
C1051 C1052 1.369 . S
C1051 C1053 1.419 . S
C1051 H1055 0.930 . S
C1052 C1051 1.369 . S
C1052 C1061 1.429 . S
C1053 C1051 1.419 . S
C1053 C1054 1.363 . S
C1053 H1056 0.929 . S
C1054 C1053 1.363 . S
C1054 C1060 1.428 . S
H1055 C1051 0.930 . S
H1056 C1053 0.929 . S
S1057 N1058 1.613 . S
S1057 N1059 1.610 . S
N1058 S1057 1.613 . S
N1058 C1061 1.350 . S
N1059 S1057 1.610 . S
N1059 C1060 1.351 . S
C1060 C1054 1.428 . S
C1060 N1059 1.351 . S
C1060 C1061 1.434 . S
C1061 C1052 1.429 . S
C1061 N1058 1.350 . S
C1061 C1060 1.434 . S
C1062 C1063 1.369 . S
C1062 C1064 1.419 . S
C1062 H1066 0.930 . S
C1063 C1062 1.369 . S
C1063 C1072 1.429 . S
C1064 C1062 1.419 . S
C1064 C1065 1.363 . S
C1064 H1067 0.929 . S
C1065 C1064 1.363 . S
C1065 C1071 1.428 . S
H1066 C1062 0.930 . S
H1067 C1064 0.929 . S
S1068 N1069 1.613 . S
S1068 N1070 1.610 . S
N1069 S1068 1.613 . S
N1069 C1072 1.350 . S
N1070 S1068 1.610 . S
N1070 C1071 1.351 . S
C1071 C1065 1.428 . S
C1071 N1070 1.351 . S
C1071 C1072 1.434 . S
C1072 C1063 1.429 . S
C1072 N1069 1.350 . S
C1072 C1071 1.434 . S
C1073 C1074 1.369 . S
C1073 C1075 1.419 . S
C1073 H1077 0.930 . S
C1074 C1073 1.369 . S
C1074 C1083 1.429 . S
C1075 C1073 1.419 . S
C1075 C1076 1.363 . S
C1075 H1078 0.929 . S
C1076 C1075 1.363 . S
C1076 C1082 1.428 . S
H1077 C1073 0.930 . S
H1078 C1075 0.929 . S
S1079 N1080 1.613 . S
S1079 N1081 1.610 . S
N1080 S1079 1.613 . S
N1080 C1083 1.350 . S
N1081 S1079 1.610 . S
N1081 C1082 1.351 . S
C1082 C1076 1.428 . S
C1082 N1081 1.351 . S
C1082 C1083 1.434 . S
C1083 C1074 1.429 . S
C1083 N1080 1.350 . S
C1083 C1082 1.434 . S
C1084 C1085 1.369 . S
C1084 C1086 1.419 . S
C1084 H1088 0.930 . S
C1085 C1084 1.369 . S
C1085 C1094 1.429 . S
C1086 C1084 1.419 . S
C1086 C1087 1.363 . S
C1086 H1089 0.929 . S
C1087 C1086 1.363 . S
C1087 C1093 1.428 . S
H1088 C1084 0.930 . S
H1089 C1086 0.929 . S
S1090 N1091 1.613 . S
S1090 N1092 1.610 . S
N1091 S1090 1.613 . S
N1091 C1094 1.350 . S
N1092 S1090 1.610 . S
N1092 C1093 1.351 . S
C1093 C1087 1.428 . S
C1093 N1092 1.351 . S
C1093 C1094 1.434 . S
C1094 C1085 1.429 . S
C1094 N1091 1.350 . S
C1094 C1093 1.434 . S
C1095 C1096 1.369 . S
C1095 C1097 1.419 . S
C1095 H1099 0.930 . S
C1096 C1095 1.369 . S
C1096 C1105 1.429 . S
C1097 C1095 1.419 . S
C1097 C1098 1.363 . S
C1097 H1100 0.929 . S
C1098 C1097 1.363 . S
C1098 C1104 1.428 . S
H1099 C1095 0.930 . S
H1100 C1097 0.929 . S
S1101 N1102 1.613 . S
S1101 N1103 1.610 . S
N1102 S1101 1.613 . S
N1102 C1105 1.350 . S
N1103 S1101 1.610 . S
N1103 C1104 1.351 . S
C1104 C1098 1.428 . S
C1104 N1103 1.351 . S
C1104 C1105 1.434 . S
C1105 C1096 1.429 . S
C1105 N1102 1.350 . S
C1105 C1104 1.434 . S
C1106 C1107 1.369 . S
C1106 C1108 1.419 . S
C1106 H1110 0.930 . S
C1107 C1106 1.369 . S
C1107 C1116 1.429 . S
C1108 C1106 1.419 . S
C1108 C1109 1.363 . S
C1108 H1111 0.929 . S
C1109 C1108 1.363 . S
C1109 C1115 1.428 . S
H1110 C1106 0.930 . S
H1111 C1108 0.929 . S
S1112 N1113 1.613 . S
S1112 N1114 1.610 . S
N1113 S1112 1.613 . S
N1113 C1116 1.350 . S
N1114 S1112 1.610 . S
N1114 C1115 1.351 . S
C1115 C1109 1.428 . S
C1115 N1114 1.351 . S
C1115 C1116 1.434 . S
C1116 C1107 1.429 . S
C1116 N1113 1.350 . S
C1116 C1115 1.434 . S
C1117 C1118 1.369 . S
C1117 C1119 1.419 . S
C1117 H1121 0.930 . S
C1118 C1117 1.369 . S
C1118 C1127 1.429 . S
C1119 C1117 1.419 . S
C1119 C1120 1.363 . S
C1119 H1122 0.929 . S
C1120 C1119 1.363 . S
C1120 C1126 1.428 . S
H1121 C1117 0.930 . S
H1122 C1119 0.929 . S
S1123 N1124 1.613 . S
S1123 N1125 1.610 . S
N1124 S1123 1.613 . S
N1124 C1127 1.350 . S
N1125 S1123 1.610 . S
N1125 C1126 1.351 . S
C1126 C1120 1.428 . S
C1126 N1125 1.351 . S
C1126 C1127 1.434 . S
C1127 C1118 1.429 . S
C1127 N1124 1.350 . S
C1127 C1126 1.434 . S
C1128 C1129 1.369 . S
C1128 C1130 1.419 . S
C1128 H1132 0.930 . S
C1129 C1128 1.369 . S
C1129 C1138 1.429 . S
C1130 C1128 1.419 . S
C1130 C1131 1.363 . S
C1130 H1133 0.929 . S
C1131 C1130 1.363 . S
C1131 C1137 1.428 . S
H1132 C1128 0.930 . S
H1133 C1130 0.929 . S
S1134 N1135 1.613 . S
S1134 N1136 1.610 . S
N1135 S1134 1.613 . S
N1135 C1138 1.350 . S
N1136 S1134 1.610 . S
N1136 C1137 1.351 . S
C1137 C1131 1.428 . S
C1137 N1136 1.351 . S
C1137 C1138 1.434 . S
C1138 C1129 1.429 . S
C1138 N1135 1.350 . S
C1138 C1137 1.434 . S
C1139 C1140 1.369 . S
C1139 C1141 1.419 . S
C1139 H1143 0.930 . S
C1140 C1139 1.369 . S
C1140 C1149 1.429 . S
C1141 C1139 1.419 . S
C1141 C1142 1.363 . S
C1141 H1144 0.929 . S
C1142 C1141 1.363 . S
C1142 C1148 1.428 . S
H1143 C1139 0.930 . S
H1144 C1141 0.929 . S
S1145 N1146 1.613 . S
S1145 N1147 1.610 . S
N1146 S1145 1.613 . S
N1146 C1149 1.350 . S
N1147 S1145 1.610 . S
N1147 C1148 1.351 . S
C1148 C1142 1.428 . S
C1148 N1147 1.351 . S
C1148 C1149 1.434 . S
C1149 C1140 1.429 . S
C1149 N1146 1.350 . S
C1149 C1148 1.434 . S
C1150 C1151 1.369 . S
C1150 C1152 1.419 . S
C1150 H1154 0.930 . S
C1151 C1150 1.369 . S
C1151 C1160 1.429 . S
C1152 C1150 1.419 . S
C1152 C1153 1.363 . S
C1152 H1155 0.929 . S
C1153 C1152 1.363 . S
C1153 C1159 1.428 . S
H1154 C1150 0.930 . S
H1155 C1152 0.929 . S
S1156 N1157 1.613 . S
S1156 N1158 1.610 . S
N1157 S1156 1.613 . S
N1157 C1160 1.350 . S
N1158 S1156 1.610 . S
N1158 C1159 1.351 . S
C1159 C1153 1.428 . S
C1159 N1158 1.351 . S
C1159 C1160 1.434 . S
C1160 C1151 1.429 . S
C1160 N1157 1.350 . S
C1160 C1159 1.434 . S
C1161 C1162 1.369 . S
C1161 C1163 1.419 . S
C1161 H1165 0.930 . S
C1162 C1161 1.369 . S
C1162 C1171 1.429 . S
C1163 C1161 1.419 . S
C1163 C1164 1.363 . S
C1163 H1166 0.929 . S
C1164 C1163 1.363 . S
C1164 C1170 1.428 . S
H1165 C1161 0.930 . S
H1166 C1163 0.929 . S
S1167 N1168 1.613 . S
S1167 N1169 1.610 . S
N1168 S1167 1.613 . S
N1168 C1171 1.350 . S
N1169 S1167 1.610 . S
N1169 C1170 1.351 . S
C1170 C1164 1.428 . S
C1170 N1169 1.351 . S
C1170 C1171 1.434 . S
C1171 C1162 1.429 . S
C1171 N1168 1.350 . S
C1171 C1170 1.434 . S
C1172 C1173 1.369 . S
C1172 C1174 1.419 . S
C1172 H1176 0.930 . S
C1173 C1172 1.369 . S
C1173 C1182 1.429 . S
C1174 C1172 1.419 . S
C1174 C1175 1.363 . S
C1174 H1177 0.929 . S
C1175 C1174 1.363 . S
C1175 C1181 1.428 . S
H1176 C1172 0.930 . S
H1177 C1174 0.929 . S
S1178 N1179 1.613 . S
S1178 N1180 1.610 . S
N1179 S1178 1.613 . S
N1179 C1182 1.350 . S
N1180 S1178 1.610 . S
N1180 C1181 1.351 . S
C1181 C1175 1.428 . S
C1181 N1180 1.351 . S
C1181 C1182 1.434 . S
C1182 C1173 1.429 . S
C1182 N1179 1.350 . S
C1182 C1181 1.434 . S
C1183 C1184 1.369 . S
C1183 C1185 1.419 . S
C1183 H1187 0.930 . S
C1184 C1183 1.369 . S
C1184 C1193 1.429 . S
C1185 C1183 1.419 . S
C1185 C1186 1.363 . S
C1185 H1188 0.929 . S
C1186 C1185 1.363 . S
C1186 C1192 1.428 . S
H1187 C1183 0.930 . S
H1188 C1185 0.929 . S
S1189 N1190 1.613 . S
S1189 N1191 1.610 . S
N1190 S1189 1.613 . S
N1190 C1193 1.350 1_556 S
N1191 S1189 1.610 . S
N1191 C1192 1.351 1_556 S
C1192 C1186 1.428 . S
C1192 N1191 1.351 1_554 S
C1192 C1193 1.434 . S
C1193 C1184 1.429 . S
C1193 N1190 1.350 1_554 S
C1193 C1192 1.434 . S
C1194 C1195 1.369 . S
C1194 C1196 1.419 . S
C1194 H1198 0.930 . S
C1195 C1194 1.369 . S
C1195 C1204 1.429 . S
C1196 C1194 1.419 . S
C1196 C1197 1.363 . S
C1196 H1199 0.929 . S
C1197 C1196 1.363 . S
C1197 C1203 1.428 . S
H1198 C1194 0.930 . S
H1199 C1196 0.929 . S
S1200 N1201 1.613 . S
S1200 N1202 1.610 . S
N1201 S1200 1.613 . S
N1201 C1204 1.350 . S
N1202 S1200 1.610 . S
N1202 C1203 1.351 . S
C1203 C1197 1.428 . S
C1203 N1202 1.351 . S
C1203 C1204 1.434 . S
C1204 C1195 1.429 . S
C1204 N1201 1.350 . S
C1204 C1203 1.434 . S
C1205 C1206 1.369 . S
C1205 C1207 1.419 . S
C1205 H1209 0.930 . S
C1206 C1205 1.369 . S
C1206 C1215 1.429 . S
C1207 C1205 1.419 . S
C1207 C1208 1.363 . S
C1207 H1210 0.929 . S
C1208 C1207 1.363 . S
C1208 C1214 1.428 . S
H1209 C1205 0.930 . S
H1210 C1207 0.929 . S
S1211 N1212 1.613 . S
S1211 N1213 1.610 . S
N1212 S1211 1.613 . S
N1212 C1215 1.350 . S
N1213 S1211 1.610 . S
N1213 C1214 1.351 . S
C1214 C1208 1.428 . S
C1214 N1213 1.351 . S
C1214 C1215 1.434 . S
C1215 C1206 1.429 . S
C1215 N1212 1.350 . S
C1215 C1214 1.434 . S
C1216 C1217 1.369 . S
C1216 C1218 1.419 . S
C1216 H1220 0.930 . S
C1217 C1216 1.369 . S
C1217 C1226 1.429 . S
C1218 C1216 1.419 . S
C1218 C1219 1.363 . S
C1218 H1221 0.929 . S
C1219 C1218 1.363 . S
C1219 C1225 1.428 . S
H1220 C1216 0.930 . S
H1221 C1218 0.929 . S
S1222 N1223 1.613 . S
S1222 N1224 1.610 . S
N1223 S1222 1.613 . S
N1223 C1226 1.350 1_554 S
N1224 S1222 1.610 . S
N1224 C1225 1.351 1_554 S
C1225 C1219 1.428 . S
C1225 N1224 1.351 1_556 S
C1225 C1226 1.434 . S
C1226 C1217 1.429 . S
C1226 N1223 1.350 1_556 S
C1226 C1225 1.434 . S
C1227 C1228 1.369 . S
C1227 C1229 1.419 . S
C1227 H1231 0.930 . S
C1228 C1227 1.369 . S
C1228 C1237 1.429 . S
C1229 C1227 1.419 . S
C1229 C1230 1.363 . S
C1229 H1232 0.929 . S
C1230 C1229 1.363 . S
C1230 C1236 1.428 . S
H1231 C1227 0.930 . S
H1232 C1229 0.929 . S
S1233 N1234 1.613 . S
S1233 N1235 1.610 . S
N1234 S1233 1.613 . S
N1234 C1237 1.350 . S
N1235 S1233 1.610 . S
N1235 C1236 1.351 . S
C1236 C1230 1.428 . S
C1236 N1235 1.351 . S
C1236 C1237 1.434 . S
C1237 C1228 1.429 . S
C1237 N1234 1.350 . S
C1237 C1236 1.434 . S
C1238 C1239 1.369 . S
C1238 C1240 1.419 . S
C1238 H1242 0.930 . S
C1239 C1238 1.369 . S
C1239 C1248 1.429 . S
C1240 C1238 1.419 . S
C1240 C1241 1.363 . S
C1240 H1243 0.929 . S
C1241 C1240 1.363 . S
C1241 C1247 1.428 . S
H1242 C1238 0.930 . S
H1243 C1240 0.929 . S
S1244 N1245 1.613 . S
S1244 N1246 1.610 . S
N1245 S1244 1.613 . S
N1245 C1248 1.350 . S
N1246 S1244 1.610 . S
N1246 C1247 1.351 . S
C1247 C1241 1.428 . S
C1247 N1246 1.351 . S
C1247 C1248 1.434 . S
C1248 C1239 1.429 . S
C1248 N1245 1.350 . S
C1248 C1247 1.434 . S
C1249 C1250 1.369 . S
C1249 C1251 1.419 . S
C1249 H1253 0.930 . S
C1250 C1249 1.369 . S
C1250 C1259 1.429 . S
C1251 C1249 1.419 . S
C1251 C1252 1.363 . S
C1251 H1254 0.929 . S
C1252 C1251 1.363 . S
C1252 C1258 1.428 . S
H1253 C1249 0.930 . S
H1254 C1251 0.929 . S
S1255 N1256 1.613 . S
S1255 N1257 1.610 . S
N1256 S1255 1.613 . S
N1256 C1259 1.350 . S
N1257 S1255 1.610 . S
N1257 C1258 1.351 . S
C1258 C1252 1.428 . S
C1258 N1257 1.351 . S
C1258 C1259 1.434 . S
C1259 C1250 1.429 . S
C1259 N1256 1.350 . S
C1259 C1258 1.434 . S
C469 C65 1.510 . S
C471 C0 1.514 . S
C480 C39 1.515 . S
C482 C13 1.514 . S
C491 C26 1.515 . S
C493 C52 1.514 . S
C502 C78 1.512 . S
C504 C143 1.515 . S
C513 C91 1.512 . S
C515 C117 1.515 . S
C524 C130 1.511 . S
C526 C104 1.512 . S
C535 C156 1.515 . S
C537 C221 1.514 . S
C546 C169 1.516 . S
C548 C195 1.512 . S
C557 C182 1.511 . S
C559 C208 1.512 . S
C568 C299 1.512 . S
C570 C234 1.515 . S
C579 C247 1.511 . S
C581 C273 1.515 . S
C590 C286 1.514 . S
C592 C260 1.511 . S
C601 C377 1.516 . S
C603 C312 1.512 . S
C612 C351 1.512 . S
C614 C325 1.515 . S
C623 C364 1.515 . S
C625 C338 1.511 . S
C634 C390 1.511 . S
C636 C455 1.513 . S
C645 C403 1.516 . S
C647 C429 1.512 . S
C656 C416 1.510 . S
C658 C442 1.514 . S
C667 C73 1.304 . S
C669 C8 1.300 . S
C678 C21 1.304 . S
C680 C47 1.300 . S
C689 C60 1.298 . S
C691 C34 1.302 . S
C700 C86 1.302 . S
C702 C151 1.297 . S
C711 C99 1.294 . S
C713 C125 1.298 . S
C722 C138 1.301 . S
C724 C112 1.297 . S
C733 C164 1.305 . S
C735 C229 1.302 . S
C744 C203 1.305 . S
C746 C177 1.303 . S
C755 C216 1.301 . S
C757 C190 1.303 . S
C766 C242 1.296 . S
C768 C307 1.301 . S
C777 C255 1.304 . S
C779 C281 1.303 . S
C788 C294 1.304 . S
C790 C268 1.299 . S
C799 C385 1.295 . S
C801 C320 1.299 . S
C810 C333 1.302 . S
C812 C359 1.304 . S
C821 C346 1.295 . S
C823 C372 1.298 . S
C832 C463 1.301 . S
C834 C398 1.296 . S
C843 C437 1.304 . S
C845 C411 1.303 . S
C854 C450 1.300 . S
C856 C424 1.303 . S
C865 C213 1.547 . S
C867 C5 1.544 . S
C876 C226 1.543 . S
C878 C18 1.543 . S
C887 C200 1.542 . S
C889 C31 1.546 . S
C898 C44 1.546 . S
C900 C343 1.543 . S
C909 C57 1.546 . S
C911 C317 1.543 . S
C920 C70 1.545 . S
C922 C330 1.543 . S
C931 C83 1.542 . S
C933 C447 1.545 . S
C942 C96 1.542 . S
C944 C460 1.546 . S
C953 C109 1.547 . S
C955 C434 1.543 . S
C964 C122 1.542 . S
C966 C265 1.544 . S
C975 C239 1.546 . S
C977 C135 1.548 . S
C986 C252 1.548 . S
C988 C148 1.547 . S
C997 C369 1.547 . S
C999 C161 1.544 . S
C1008 C174 1.545 . S
C1010 C382 1.548 . S
C1019 C187 1.548 . S
C1021 C356 1.548 . S
C1030 C278 1.548 . S
C1032 C421 1.548 . S
C1041 C291 1.542 . S
C1043 C395 1.544 . S
C1052 C408 1.543 . S
C1054 C304 1.547 . S
C1063 C10 1.364 . S
C1065 C140 1.364 . S
C1074 C153 1.362 . S
C1076 C23 1.362 . S
C1085 C127 1.364 . S
C1087 C36 1.363 . S
C1096 C49 1.363 . S
C1098 C114 1.363 . S
C1107 C62 1.363 . S
C1109 C88 1.363 . S
C1118 C75 1.363 . S
C1120 C101 1.363 . S
C1129 C166 1.361 . S
C1131 C296 1.362 . S
C1140 C309 1.361 . S
C1142 C179 1.362 . S
C1151 C283 1.365 . S
C1153 C192 1.364 . S
C1162 C205 1.364 . S
C1164 C270 1.363 . S
C1173 C218 1.361 . S
C1175 C244 1.362 . S
C1184 C257 1.364 . S
C1186 C231 1.364 . S
C1195 C322 1.363 . S
C1197 C452 1.363 . S
C1206 C465 1.364 . S
C1208 C335 1.363 . S
C1217 C348 1.364 . S
C1219 C439 1.364 . S
C1228 C361 1.364 . S
C1230 C426 1.364 . S
C1239 C400 1.361 . S
C1241 C374 1.362 . S
C1250 C387 1.361 . S
C1252 C413 1.361 . S
