# Generated by pormake.
# Topology wiq, (6)-cn, num edge types: 1
# Building blocks:
#     Node 0, Type 0, BuildingBlock: MIDCAF_clean_sbu_0, # of connection points: 6
#     Node 1, Type 0, BuildingBlock: MIDCAF_clean_sbu_0, # of connection points: 6
#     Node 2, Type 0, BuildingBlock: MIDCAF_clean_sbu_0, # of connection points: 6
#     Node 3, Type 0, BuildingBlock: MIDCAF_clean_sbu_0, # of connection points: 6
#     Node 4, Type 0, BuildingBlock: MIDCAF_clean_sbu_0, # of connection points: 6
#     Node 5, Type 0, BuildingBlock: MIDCAF_clean_sbu_0, # of connection points: 6
#     Node 6, Type 0, BuildingBlock: MIDCAF_clean_sbu_0, # of connection points: 6
#     Node 7, Type 0, BuildingBlock: MIDCAF_clean_sbu_0, # of connection points: 6
#     Node 8, Type 0, BuildingBlock: MIDCAF_clean_sbu_0, # of connection points: 6
#     Node 9, Type 0, BuildingBlock: MIDCAF_clean_sbu_0, # of connection points: 6
#     Node 10, Type 0, BuildingBlock: MIDCAF_clean_sbu_0, # of connection points: 6
#     Node 11, Type 0, BuildingBlock: MIDCAF_clean_sbu_0, # of connection points: 6
#     Node 12, Type 0, BuildingBlock: MIDCAF_clean_sbu_0, # of connection points: 6
#     Node 13, Type 0, BuildingBlock: MIDCAF_clean_sbu_0, # of connection points: 6
#     Node 14, Type 0, BuildingBlock: MIDCAF_clean_sbu_0, # of connection points: 6
#     Node 15, Type 0, BuildingBlock: MIDCAF_clean_sbu_0, # of connection points: 6
#     Node 16, Type 0, BuildingBlock: MIDCAF_clean_sbu_0, # of connection points: 6
#     Node 17, Type 0, BuildingBlock: MIDCAF_clean_sbu_0, # of connection points: 6
#     Node 18, Type 0, BuildingBlock: MIDCAF_clean_sbu_0, # of connection points: 6
#     Node 19, Type 0, BuildingBlock: MIDCAF_clean_sbu_0, # of connection points: 6
#     Node 20, Type 0, BuildingBlock: MIDCAF_clean_sbu_0, # of connection points: 6
#     Node 21, Type 0, BuildingBlock: MIDCAF_clean_sbu_0, # of connection points: 6
#     Node 22, Type 0, BuildingBlock: MIDCAF_clean_sbu_0, # of connection points: 6
#     Node 23, Type 0, BuildingBlock: MIDCAF_clean_sbu_0, # of connection points: 6
#     Node 24, Type 0, BuildingBlock: MIDCAF_clean_sbu_0, # of connection points: 6
#     Node 25, Type 0, BuildingBlock: MIDCAF_clean_sbu_0, # of connection points: 6
#     Node 26, Type 0, BuildingBlock: MIDCAF_clean_sbu_0, # of connection points: 6
#     Node 27, Type 0, BuildingBlock: MIDCAF_clean_sbu_0, # of connection points: 6
#     Node 28, Type 0, BuildingBlock: MIDCAF_clean_sbu_0, # of connection points: 6
#     Node 29, Type 0, BuildingBlock: MIDCAF_clean_sbu_0, # of connection points: 6
#     Node 30, Type 0, BuildingBlock: MIDCAF_clean_sbu_0, # of connection points: 6
#     Node 31, Type 0, BuildingBlock: MIDCAF_clean_sbu_0, # of connection points: 6
#     Edge 32, Type (0, 0), BuildingBlock: ZUJKAS_clean_linker_0, # of connection points: 2
#     Edge 33, Type (0, 0), BuildingBlock: ZUJKAS_clean_linker_0, # of connection points: 2
#     Edge 34, Type (0, 0), BuildingBlock: ZUJKAS_clean_linker_0, # of connection points: 2
#     Edge 35, Type (0, 0), BuildingBlock: ZUJKAS_clean_linker_0, # of connection points: 2
#     Edge 36, Type (0, 0), BuildingBlock: ZUJKAS_clean_linker_0, # of connection points: 2
#     Edge 37, Type (0, 0), BuildingBlock: ZUJKAS_clean_linker_0, # of connection points: 2
#     Edge 38, Type (0, 0), BuildingBlock: ZUJKAS_clean_linker_0, # of connection points: 2
#     Edge 39, Type (0, 0), BuildingBlock: ZUJKAS_clean_linker_0, # of connection points: 2
#     Edge 40, Type (0, 0), BuildingBlock: ZUJKAS_clean_linker_0, # of connection points: 2
#     Edge 41, Type (0, 0), BuildingBlock: ZUJKAS_clean_linker_0, # of connection points: 2
#     Edge 42, Type (0, 0), BuildingBlock: ZUJKAS_clean_linker_0, # of connection points: 2
#     Edge 43, Type (0, 0), BuildingBlock: ZUJKAS_clean_linker_0, # of connection points: 2
#     Edge 44, Type (0, 0), BuildingBlock: ZUJKAS_clean_linker_0, # of connection points: 2
#     Edge 45, Type (0, 0), BuildingBlock: ZUJKAS_clean_linker_0, # of connection points: 2
#     Edge 46, Type (0, 0), BuildingBlock: ZUJKAS_clean_linker_0, # of connection points: 2
#     Edge 47, Type (0, 0), BuildingBlock: ZUJKAS_clean_linker_0, # of connection points: 2
#     Edge 48, Type (0, 0), BuildingBlock: ZUJKAS_clean_linker_0, # of connection points: 2
#     Edge 49, Type (0, 0), BuildingBlock: ZUJKAS_clean_linker_0, # of connection points: 2
#     Edge 50, Type (0, 0), BuildingBlock: ZUJKAS_clean_linker_0, # of connection points: 2
#     Edge 51, Type (0, 0), BuildingBlock: ZUJKAS_clean_linker_0, # of connection points: 2
#     Edge 52, Type (0, 0), BuildingBlock: ZUJKAS_clean_linker_0, # of connection points: 2
#     Edge 53, Type (0, 0), BuildingBlock: ZUJKAS_clean_linker_0, # of connection points: 2
#     Edge 54, Type (0, 0), BuildingBlock: ZUJKAS_clean_linker_0, # of connection points: 2
#     Edge 55, Type (0, 0), BuildingBlock: ZUJKAS_clean_linker_0, # of connection points: 2
#     Edge 56, Type (0, 0), BuildingBlock: ZUJKAS_clean_linker_0, # of connection points: 2
#     Edge 57, Type (0, 0), BuildingBlock: ZUJKAS_clean_linker_0, # of connection points: 2
#     Edge 58, Type (0, 0), BuildingBlock: ZUJKAS_clean_linker_0, # of connection points: 2
#     Edge 59, Type (0, 0), BuildingBlock: ZUJKAS_clean_linker_0, # of connection points: 2
#     Edge 60, Type (0, 0), BuildingBlock: ZUJKAS_clean_linker_0, # of connection points: 2
#     Edge 61, Type (0, 0), BuildingBlock: ZUJKAS_clean_linker_0, # of connection points: 2
#     Edge 62, Type (0, 0), BuildingBlock: ZUJKAS_clean_linker_0, # of connection points: 2
#     Edge 63, Type (0, 0), BuildingBlock: ZUJKAS_clean_linker_0, # of connection points: 2
#     Edge 64, Type (0, 0), BuildingBlock: ZUJKAS_clean_linker_0, # of connection points: 2
#     Edge 65, Type (0, 0), BuildingBlock: ZUJKAS_clean_linker_0, # of connection points: 2
#     Edge 66, Type (0, 0), BuildingBlock: ZUJKAS_clean_linker_0, # of connection points: 2
#     Edge 67, Type (0, 0), BuildingBlock: ZUJKAS_clean_linker_0, # of connection points: 2
#     Edge 68, Type (0, 0), BuildingBlock: ZUJKAS_clean_linker_0, # of connection points: 2
#     Edge 69, Type (0, 0), BuildingBlock: ZUJKAS_clean_linker_0, # of connection points: 2
#     Edge 70, Type (0, 0), BuildingBlock: ZUJKAS_clean_linker_0, # of connection points: 2
#     Edge 71, Type (0, 0), BuildingBlock: ZUJKAS_clean_linker_0, # of connection points: 2
#     Edge 72, Type (0, 0), BuildingBlock: ZUJKAS_clean_linker_0, # of connection points: 2
#     Edge 73, Type (0, 0), BuildingBlock: ZUJKAS_clean_linker_0, # of connection points: 2
#     Edge 74, Type (0, 0), BuildingBlock: ZUJKAS_clean_linker_0, # of connection points: 2
#     Edge 75, Type (0, 0), BuildingBlock: ZUJKAS_clean_linker_0, # of connection points: 2
#     Edge 76, Type (0, 0), BuildingBlock: ZUJKAS_clean_linker_0, # of connection points: 2
#     Edge 77, Type (0, 0), BuildingBlock: ZUJKAS_clean_linker_0, # of connection points: 2
#     Edge 78, Type (0, 0), BuildingBlock: ZUJKAS_clean_linker_0, # of connection points: 2
#     Edge 79, Type (0, 0), BuildingBlock: ZUJKAS_clean_linker_0, # of connection points: 2
#     Edge 80, Type (0, 0), BuildingBlock: ZUJKAS_clean_linker_0, # of connection points: 2
#     Edge 81, Type (0, 0), BuildingBlock: ZUJKAS_clean_linker_0, # of connection points: 2
#     Edge 82, Type (0, 0), BuildingBlock: ZUJKAS_clean_linker_0, # of connection points: 2
#     Edge 83, Type (0, 0), BuildingBlock: ZUJKAS_clean_linker_0, # of connection points: 2
#     Edge 84, Type (0, 0), BuildingBlock: ZUJKAS_clean_linker_0, # of connection points: 2
#     Edge 85, Type (0, 0), BuildingBlock: ZUJKAS_clean_linker_0, # of connection points: 2
#     Edge 86, Type (0, 0), BuildingBlock: ZUJKAS_clean_linker_0, # of connection points: 2
#     Edge 87, Type (0, 0), BuildingBlock: ZUJKAS_clean_linker_0, # of connection points: 2
#     Edge 88, Type (0, 0), BuildingBlock: ZUJKAS_clean_linker_0, # of connection points: 2
#     Edge 89, Type (0, 0), BuildingBlock: ZUJKAS_clean_linker_0, # of connection points: 2
#     Edge 90, Type (0, 0), BuildingBlock: ZUJKAS_clean_linker_0, # of connection points: 2
#     Edge 91, Type (0, 0), BuildingBlock: ZUJKAS_clean_linker_0, # of connection points: 2
#     Edge 92, Type (0, 0), BuildingBlock: ZUJKAS_clean_linker_0, # of connection points: 2
#     Edge 93, Type (0, 0), BuildingBlock: ZUJKAS_clean_linker_0, # of connection points: 2
#     Edge 94, Type (0, 0), BuildingBlock: ZUJKAS_clean_linker_0, # of connection points: 2
#     Edge 95, Type (0, 0), BuildingBlock: ZUJKAS_clean_linker_0, # of connection points: 2
#     Edge 96, Type (0, 0), BuildingBlock: ZUJKAS_clean_linker_0, # of connection points: 2
#     Edge 97, Type (0, 0), BuildingBlock: ZUJKAS_clean_linker_0, # of connection points: 2
#     Edge 98, Type (0, 0), BuildingBlock: ZUJKAS_clean_linker_0, # of connection points: 2
#     Edge 99, Type (0, 0), BuildingBlock: ZUJKAS_clean_linker_0, # of connection points: 2
#     Edge 100, Type (0, 0), BuildingBlock: ZUJKAS_clean_linker_0, # of connection points: 2
#     Edge 101, Type (0, 0), BuildingBlock: ZUJKAS_clean_linker_0, # of connection points: 2
#     Edge 102, Type (0, 0), BuildingBlock: ZUJKAS_clean_linker_0, # of connection points: 2
#     Edge 103, Type (0, 0), BuildingBlock: ZUJKAS_clean_linker_0, # of connection points: 2
#     Edge 104, Type (0, 0), BuildingBlock: ZUJKAS_clean_linker_0, # of connection points: 2
#     Edge 105, Type (0, 0), BuildingBlock: ZUJKAS_clean_linker_0, # of connection points: 2
#     Edge 106, Type (0, 0), BuildingBlock: ZUJKAS_clean_linker_0, # of connection points: 2
#     Edge 107, Type (0, 0), BuildingBlock: ZUJKAS_clean_linker_0, # of connection points: 2
#     Edge 108, Type (0, 0), BuildingBlock: ZUJKAS_clean_linker_0, # of connection points: 2
#     Edge 109, Type (0, 0), BuildingBlock: ZUJKAS_clean_linker_0, # of connection points: 2
#     Edge 110, Type (0, 0), BuildingBlock: ZUJKAS_clean_linker_0, # of connection points: 2
#     Edge 111, Type (0, 0), BuildingBlock: ZUJKAS_clean_linker_0, # of connection points: 2
#     Edge 112, Type (0, 0), BuildingBlock: ZUJKAS_clean_linker_0, # of connection points: 2
#     Edge 113, Type (0, 0), BuildingBlock: ZUJKAS_clean_linker_0, # of connection points: 2
#     Edge 114, Type (0, 0), BuildingBlock: ZUJKAS_clean_linker_0, # of connection points: 2
#     Edge 115, Type (0, 0), BuildingBlock: ZUJKAS_clean_linker_0, # of connection points: 2
#     Edge 116, Type (0, 0), BuildingBlock: ZUJKAS_clean_linker_0, # of connection points: 2
#     Edge 117, Type (0, 0), BuildingBlock: ZUJKAS_clean_linker_0, # of connection points: 2
#     Edge 118, Type (0, 0), BuildingBlock: ZUJKAS_clean_linker_0, # of connection points: 2
#     Edge 119, Type (0, 0), BuildingBlock: ZUJKAS_clean_linker_0, # of connection points: 2
#     Edge 120, Type (0, 0), BuildingBlock: ZUJKAS_clean_linker_0, # of connection points: 2
#     Edge 121, Type (0, 0), BuildingBlock: ZUJKAS_clean_linker_0, # of connection points: 2
#     Edge 122, Type (0, 0), BuildingBlock: ZUJKAS_clean_linker_0, # of connection points: 2
#     Edge 123, Type (0, 0), BuildingBlock: ZUJKAS_clean_linker_0, # of connection points: 2
#     Edge 124, Type (0, 0), BuildingBlock: ZUJKAS_clean_linker_0, # of connection points: 2
#     Edge 125, Type (0, 0), BuildingBlock: ZUJKAS_clean_linker_0, # of connection points: 2
#     Edge 126, Type (0, 0), BuildingBlock: ZUJKAS_clean_linker_0, # of connection points: 2
#     Edge 127, Type (0, 0), BuildingBlock: ZUJKAS_clean_linker_0, # of connection points: 2
# Relax obj value: 0.522
# Max RMSD: 0.295
# Mean RMSD: 0.295
data_MOF--net-wiq--node1-MIDCAF_clean_sbu_0--edge1-ZUJKAS_clean_linker_0
_symmetry_space_group_name_H-M    P1
_symmetry_Int_Tables_number       1
_symmetry_cell_setting            triclinic
loop_
_symmetry_equiv_pos_as_xyz
'x, y, z'
_cell_length_a     60.949778
_cell_length_b     60.985832
_cell_length_c     62.941972
_cell_angle_alpha  90.015872
_cell_angle_beta   90.080643
_cell_angle_gamma 90.138321
loop_
_atom_site_label
_atom_site_type_symbol
_atom_site_fract_x
_atom_site_fract_y
_atom_site_fract_z
_atom_type_partial_charge
Zn0 Zn 0.14367 0.11988 0.25161 0.0
Zn1 Zn 0.10418 0.20917 0.29945 0.0
Zn2 Zn 0.12414 0.14308 0.27762 0.0
C3 C 0.08897 0.16622 0.3133 0.0
C4 C 0.09815 0.1832 0.26098 0.0
O5 O 0.15818 0.15368 0.27538 0.0
O6 O 0.16352 0.14404 0.24223 0.0
C7 C 0.13508 0.09421 0.28393 0.0
O8 O 0.10306 0.16022 0.29947 0.0
O9 O 0.08645 0.18664 0.31737 0.0
O10 O 0.11293 0.19359 0.27122 0.0
O11 O 0.09981 0.16224 0.25996 0.0
O12 O 0.15285 0.09948 0.27502 0.0
O13 O 0.11981 0.1085 0.28483 0.0
O14 O 0.1096 0.14558 0.24652 0.0
O15 O 0.11741 0.11329 0.23298 0.0
C16 C 0.10669 0.13099 0.23215 0.0
O17 O 0.14766 0.16297 0.29653 0.0
O18 O 0.13069 0.19272 0.28678 0.0
C19 C 0.16883 0.15566 0.258 0.0
C20 C 0.14378 0.18342 0.29963 0.0
Zn21 Zn 0.10408 0.90024 0.51732 0.0
Zn22 Zn 0.07293 0.80686 0.54176 0.0
Zn23 Zn 0.09185 0.8653 0.52118 0.0
C24 C 0.11532 0.82557 0.52455 0.0
C25 C 0.06066 0.83959 0.50447 0.0
O26 O 0.06861 0.8839 0.50288 0.0
O27 O 0.07394 0.90921 0.52706 0.0
C28 C 0.14051 0.88262 0.52889 0.0
O29 O 0.12127 0.84448 0.5178 0.0
O30 O 0.09504 0.82166 0.52233 0.0
O31 O 0.07239 0.83139 0.51909 0.0
O32 O 0.06625 0.85854 0.498 0.0
O33 O 0.13149 0.90018 0.53504 0.0
O34 O 0.12846 0.86741 0.52072 0.0
O35 O 0.11705 0.85859 0.49786 0.0
O36 O 0.10809 0.89107 0.48556 0.0
C37 C 0.11495 0.87176 0.48197 0.0
O38 O 0.0783 0.85923 0.55312 0.0
O39 O 0.06707 0.82703 0.5671 0.0
C40 C 0.0621 0.90115 0.51248 0.0
C41 C 0.07008 0.84781 0.56845 0.0
Zn42 Zn 0.40634 0.82781 0.81989 0.0
Zn43 Zn 0.35451 0.85823 0.74571 0.0
Zn44 Zn 0.37578 0.84279 0.77113 0.0
C45 C 0.39207 0.84792 0.7254 0.0
C46 C 0.35699 0.89026 0.77337 0.0
O47 O 0.35607 0.82168 0.79169 0.0
O48 O 0.3881 0.80938 0.8004 0.0
C49 C 0.41938 0.81634 0.77091 0.0
O50 O 0.3922 0.83475 0.74136 0.0
O51 O 0.37893 0.86392 0.7254 0.0
O52 O 0.34165 0.88289 0.76193 0.0
O53 O 0.37374 0.87809 0.77686 0.0
O54 O 0.41986 0.81686 0.7912 0.0
O55 O 0.40405 0.82553 0.76012 0.0
O56 O 0.39389 0.86835 0.7888 0.0
O57 O 0.39443 0.85866 0.82243 0.0
C58 C 0.40111 0.87121 0.80783 0.0
O59 O 0.34415 0.82421 0.77214 0.0
O60 O 0.33587 0.83275 0.73921 0.0
C61 C 0.36785 0.81012 0.8042 0.0
C62 C 0.33263 0.82082 0.75525 0.0
Zn63 Zn 0.38577 0.10379 0.99319 0.0
Zn64 Zn 0.43843 0.12917 0.03812 0.0
Zn65 Zn 0.4057 0.12328 0.02062 0.0
C66 C 0.40872 0.16517 0.04214 0.0
C67 C 0.44528 0.15274 0.00436 0.0
O68 O 0.42651 0.09811 0.01013 0.0
O69 O 0.40837 0.08196 0.98429 0.0
C70 C 0.35967 0.10458 0.02997 0.0
O71 O 0.40554 0.15887 0.02282 0.0
O72 O 0.4216 0.15404 0.05367 0.0
O73 O 0.45728 0.13858 0.01338 0.0
O74 O 0.42424 0.15172 0.00691 0.0
O75 O 0.36163 0.09458 0.01248 0.0
O76 O 0.37503 0.11727 0.03634 0.0
O77 O 0.40171 0.15045 0.99796 0.0
O78 O 0.38169 0.13084 0.97551 0.0
C79 C 0.3909 0.14878 0.98034 0.0
O80 O 0.4037 0.11525 0.05468 0.0
O81 O 0.43531 0.09896 0.05072 0.0
C82 C 0.42523 0.08343 0.99587 0.0
C83 C 0.41875 0.10274 0.06227 0.0
Zn84 Zn 0.09612 0.82571 0.20231 0.0
Zn85 Zn 0.14061 0.85441 0.25446 0.0
Zn86 Zn 0.1145 0.84197 0.22776 0.0
C87 C 0.09677 0.86081 0.26899 0.0
C88 C 0.14632 0.88149 0.21951 0.0
O89 O 0.13214 0.84724 0.19676 0.0
O90 O 0.12288 0.81338 0.18939 0.0
C91 C 0.09079 0.79751 0.23292 0.0
O92 O 0.09151 0.8581 0.24937 0.0
O93 O 0.11642 0.85832 0.27495 0.0
O94 O 0.15087 0.88033 0.23904 0.0
O95 O 0.1351 0.86603 0.21066 0.0
O96 O 0.07807 0.80563 0.21923 0.0
O97 O 0.10944 0.80685 0.23653 0.0
O98 O 0.08178 0.8577 0.22769 0.0
O99 O 0.08383 0.85449 0.19302 0.0
C100 C 0.07537 0.86361 0.20904 0.0
O101 O 0.13111 0.81228 0.24014 0.0
O102 O 0.15918 0.82831 0.25624 0.0
C103 C 0.13514 0.82959 0.18583 0.0
C104 C 0.14997 0.81118 0.2494 0.0
Zn105 Zn 0.40287 0.85132 0.44009 0.0
Zn106 Zn 0.39094 0.88781 0.50154 0.0
Zn107 Zn 0.40271 0.86384 0.47401 0.0
C108 C 0.39359 0.84312 0.51655 0.0
C109 C 0.36012 0.89068 0.46876 0.0
O110 O 0.43045 0.87829 0.4553 0.0
O111 O 0.41088 0.88028 0.42607 0.0
C112 C 0.44188 0.83908 0.46243 0.0
O113 O 0.39872 0.8386 0.49737 0.0
O114 O 0.38976 0.86273 0.52198 0.0
O115 O 0.36342 0.89744 0.48747 0.0
O116 O 0.37432 0.87851 0.45977 0.0
O117 O 0.42858 0.83114 0.44896 0.0
O118 O 0.43772 0.85833 0.47 0.0
O119 O 0.39207 0.82951 0.47356 0.0
O120 O 0.37323 0.83765 0.44483 0.0
C121 C 0.37723 0.82438 0.45985 0.0
O122 O 0.43294 0.88329 0.47889 0.0
O123 O 0.41721 0.90707 0.50062 0.0
C124 C 0.42811 0.88551 0.4362 0.0
C125 C 0.43377 0.90101 0.4901 0.0
Zn126 Zn 0.38098 0.19412 0.71467 0.0
Zn127 Zn 0.34643 0.13844 0.73456 0.0
Zn128 Zn 0.37516 0.15933 0.72612 0.0
C129 C 0.38594 0.14284 0.76554 0.0
C130 C 0.36529 0.10866 0.71593 0.0
O131 O 0.36642 0.16458 0.69256 0.0
O132 O 0.35154 0.19609 0.70047 0.0
C133 C 0.4034 0.19813 0.74922 0.0
O134 O 0.3968 0.15314 0.75112 0.0
O135 O 0.36641 0.13635 0.76165 0.0
O136 O 0.34528 0.11351 0.71405 0.0
O137 O 0.37861 0.12355 0.72206 0.0
O138 O 0.38959 0.21093 0.74079 0.0
O139 O 0.40219 0.17746 0.74474 0.0
O140 O 0.41017 0.16042 0.727 0.0
O141 O 0.40697 0.17956 0.69776 0.0
C142 C 0.41782 0.166 0.70882 0.0
O143 O 0.34877 0.1788 0.74059 0.0
O144 O 0.32061 0.15641 0.73815 0.0
C145 C 0.35359 0.18037 0.68754 0.0
C146 C 0.32826 0.175 0.74292 0.0
Zn147 Zn 0.03834 0.15501 0.95176 0.0
Zn148 Zn 0.12374 0.10322 0.99574 0.0
Zn149 Zn 0.10036 0.12581 0.97258 0.0
C150 C 0.11373 0.13704 0.02 0.0
C151 C 0.14906 0.11486 0.96397 0.0
O152 O 0.08049 0.10281 0.95248 0.0
O153 O 0.05462 0.12618 0.95834 0.0
C154 C 0.06196 0.15065 0.9913 0.0
O155 O 0.09905 0.13656 0.00539 0.0
O156 O 0.13115 0.12608 0.01781 0.0
O157 O 0.14436 0.09643 0.97188 0.0
O158 O 0.13467 0.13001 0.96476 0.0
O159 O 0.05271 0.13902 0.97714 0.0
O160 O 0.08255 0.14775 0.99409 0.0
O161 O 0.08861 0.15159 0.95167 0.0
O162 O 0.06301 0.17247 0.93651 0.0
C163 C 0.08316 0.16703 0.93894 0.0
O164 O 0.08808 0.09193 0.972 0.0
O165 O 0.10034 0.08196 0.00341 0.0
C166 C 0.06224 0.11122 0.94644 0.0
C167 C 0.08754 0.07886 0.98795 0.0
Zn168 Zn 0.89098 0.85723 0.69411 0.0
Zn169 Zn 0.85238 0.86454 0.75591 0.0
Zn170 Zn 0.87756 0.85598 0.72836 0.0
C171 C 0.89652 0.86078 0.77218 0.0
C172 C 0.84854 0.89797 0.7258 0.0
O173 O 0.86384 0.82926 0.70848 0.0
O174 O 0.8626 0.84842 0.67895 0.0
C175 C 0.90354 0.81743 0.71422 0.0
O176 O 0.90168 0.8573 0.75282 0.0
O177 O 0.87692 0.86527 0.77708 0.0
O178 O 0.84075 0.8923 0.74356 0.0
O179 O 0.86224 0.88547 0.71641 0.0
O180 O 0.91163 0.83155 0.70169 0.0
O181 O 0.8844 0.82124 0.72223 0.0
O182 O 0.91143 0.86667 0.7295 0.0
O183 O 0.90309 0.88704 0.70196 0.0
C184 C 0.9164 0.88241 0.71681 0.0
O185 O 0.8593 0.82494 0.73142 0.0
O186 O 0.83509 0.83675 0.75499 0.0
C187 C 0.85716 0.83133 0.68916 0.0
C188 C 0.84248 0.82155 0.74342 0.0
Zn189 Zn 0.88144 0.09953 0.49695 0.0
Zn190 Zn 0.92178 0.1424 0.4503 0.0
Zn191 Zn 0.90187 0.12411 0.47447 0.0
C192 C 0.88405 0.16098 0.44525 0.0
C193 C 0.9398 0.15343 0.48686 0.0
O194 O 0.91952 0.09287 0.47557 0.0
O195 O 0.90413 0.07722 0.50343 0.0
C196 C 0.85354 0.10944 0.46497 0.0
O197 O 0.87945 0.14192 0.45289 0.0
O198 O 0.90346 0.16808 0.44582 0.0
O199 O 0.94792 0.14625 0.46973 0.0
O200 O 0.91972 0.1491 0.49136 0.0
O201 O 0.85774 0.09276 0.47612 0.0
O202 O 0.86793 0.1248 0.46353 0.0
O203 O 0.90452 0.13838 0.50609 0.0
O204 O 0.87604 0.12155 0.52009 0.0
C205 C 0.89102 0.13587 0.52154 0.0
O206 O 0.92417 0.10218 0.45631 0.0
O207 O 0.91957 0.12042 0.42684 0.0
C208 C 0.91944 0.07788 0.48999 0.0
C209 C 0.92609 0.10334 0.43598 0.0
Zn210 Zn 0.64268 0.14065 0.25314 0.0
Zn211 Zn 0.61787 0.19043 0.20824 0.0
Zn212 Zn 0.62426 0.15512 0.22278 0.0
C213 C 0.5798 0.16353 0.20404 0.0
C214 C 0.59756 0.19489 0.244 0.0
O215 O 0.64914 0.17784 0.2329 0.0
O216 O 0.65702 0.16723 0.26523 0.0
C217 C 0.64954 0.11018 0.22548 0.0
O218 O 0.58867 0.15633 0.22124 0.0
O219 O 0.58994 0.178 0.19338 0.0
O220 O 0.61151 0.2073 0.23511 0.0
O221 O 0.59791 0.1741 0.23983 0.0
O222 O 0.66212 0.11896 0.23895 0.0
O223 O 0.63278 0.12086 0.21913 0.0
O224 O 0.59701 0.15124 0.24546 0.0
O225 O 0.61516 0.12883 0.26661 0.0
C226 C 0.59761 0.13878 0.26212 0.0
O227 O 0.62878 0.15717 0.18853 0.0
O228 O 0.64666 0.18797 0.19247 0.0
C229 C 0.65928 0.18093 0.25037 0.0
C230 C 0.64175 0.1717 0.18092 0.0
Zn231 Zn 0.61543 0.88895 0.00698 0.0
Zn232 Zn 0.56097 0.86441 0.96613 0.0
Zn233 Zn 0.59883 0.86988 0.97706 0.0
C234 C 0.58857 0.82763 0.95928 0.0
C235 C 0.55691 0.84221 -0.00025 0.0
O236 O 0.57978 0.8969 0.98592 0.0
O237 O 0.5901 0.90625 0.01808 0.0
C238 C 0.64634 0.89027 0.97848 0.0
O239 O 0.59489 0.83526 0.97726 0.0
O240 O 0.57447 0.83833 0.94878 0.0
O241 O 0.54361 0.85597 0.99203 0.0
O242 O 0.57761 0.84369 0.9949 0.0
O243 O 0.63859 0.90481 0.99058 0.0
O244 O 0.63421 0.87395 0.97347 0.0
O245 O 0.59937 0.84431 0.0015 0.0
O246 O 0.62391 0.86092 0.02175 0.0
C247 C 0.61144 0.84469 0.01845 0.0
O248 O 0.59009 0.87807 0.94341 0.0
O249 O 0.55781 0.89241 0.95019 0.0
C250 C 0.57719 0.9084 0.00255 0.0
C251 C 0.57352 0.88956 0.93737 0.0
Zn252 Zn 0.90002 0.17457 0.79255 0.0
Zn253 Zn 0.86187 0.14191 0.74027 0.0
Zn254 Zn 0.88127 0.15726 0.76815 0.0
C255 C 0.90438 0.13904 0.72777 0.0
C256 C 0.85448 0.11549 0.77536 0.0
O257 O 0.86609 0.15203 0.80024 0.0
O258 O 0.87195 0.18716 0.80319 0.0
C259 C 0.90367 0.20052 0.75936 0.0
O260 O 0.90689 0.14231 0.74782 0.0
O261 O 0.8856 0.14079 0.71946 0.0
O262 O 0.85496 0.11494 0.75535 0.0
O263 O 0.86128 0.13269 0.7853 0.0
O264 O 0.91688 0.19222 0.77249 0.0
O265 O 0.88425 0.19217 0.75745 0.0
O266 O 0.91426 0.14299 0.76853 0.0
O267 O 0.91328 0.14653 0.80326 0.0
C268 C 0.92138 0.13749 0.78702 0.0
O269 O 0.86201 0.18514 0.75494 0.0
O270 O 0.83856 0.16352 0.73852 0.0
C271 C 0.86208 0.17034 0.80971 0.0
C272 C 0.84318 0.18214 0.74596 0.0
Zn273 Zn 0.53212 0.14973 0.54777 0.0
Zn274 Zn 0.61839 0.10466 0.49926 0.0
Zn275 Zn 0.59491 0.12594 0.52281 0.0
C276 C 0.60768 0.14019 0.4763 0.0
C277 C 0.64307 0.11557 0.53287 0.0
O278 O 0.57422 0.10253 0.5408 0.0
O279 O 0.54547 0.12219 0.53334 0.0
C280 C 0.5567 0.15418 0.50726 0.0
O281 O 0.59297 0.13953 0.49086 0.0
O282 O 0.62471 0.12855 0.47816 0.0
O283 O 0.63936 0.09803 0.52282 0.0
O284 O 0.62847 0.13052 0.53272 0.0
O285 O 0.54635 0.14057 0.51891 0.0
O286 O 0.57717 0.15054 0.50411 0.0
O287 O 0.57987 0.14626 0.54632 0.0
O288 O 0.55645 0.16403 0.56663 0.0
C289 C 0.57626 0.15959 0.5615 0.0
O290 O 0.58407 0.09178 0.52142 0.0
O291 O 0.59709 0.08176 0.49032 0.0
C292 C 0.55423 0.10757 0.54496 0.0
C293 C 0.58456 0.0783 0.50586 0.0
Zn294 Zn 0.56523 0.82874 0.29377 0.0
Zn295 Zn 0.64831 0.84725 0.2732 0.0
Zn296 Zn 0.61091 0.83913 0.2754 0.0
C297 C 0.62556 0.85656 0.23501 0.0
C298 C 0.62981 0.8866 0.27978 0.0
O299 O 0.61873 0.83585 0.3074 0.0
O300 O 0.58997 0.81413 0.31153 0.0
C301 C 0.58072 0.80706 0.25344 0.0
O302 O 0.61205 0.86266 0.24953 0.0
O303 O 0.64324 0.84742 0.24074 0.0
O304 O 0.64605 0.87705 0.28835 0.0
O305 O 0.61517 0.87478 0.27029 0.0
O306 O 0.56535 0.81802 0.26221 0.0
O307 O 0.60074 0.8102 0.25864 0.0
O308 O 0.59303 0.86783 0.2654 0.0
O309 O 0.56595 0.84556 0.26553 0.0
C310 C 0.57242 0.86505 0.26791 0.0
O311 O 0.62666 0.81164 0.26081 0.0
O312 O 0.65224 0.8166 0.28501 0.0
C313 C 0.6093 0.81994 0.31674 0.0
C314 C 0.64333 0.80442 0.27108 0.0
Zn315 Zn 0.91226 0.84621 0.04627 0.0
Zn316 Zn 0.88841 0.90073 -0.00063 0.0
Zn317 Zn 0.90087 0.87074 0.02308 0.0
C318 C 0.88468 0.85836 0.98019 0.0
C319 C 0.86198 0.8996 0.03552 0.0
O320 O 0.89856 0.886 0.05534 0.0
O321 O 0.92822 0.8675 0.06384 0.0
C322 C 0.93974 0.84393 0.01299 0.0
O323 O 0.88368 0.85164 -0.00052 0.0
O324 O 0.88918 0.87822 0.97628 0.0
O325 O 0.86174 0.90461 0.01608 0.0
O326 O 0.87875 0.88967 0.04345 0.0
O327 O 0.92851 0.83038 0.02355 0.0
O328 O 0.93512 0.86448 0.01414 0.0
O329 O 0.88271 0.83916 0.01894 0.0
O330 O 0.88155 0.83772 0.05365 0.0
C331 C 0.87435 0.83104 0.03601 0.0
O332 O 0.93099 0.88657 0.0114 0.0
O333 O 0.91458 0.91841 0.0063 0.0
C334 C 0.9156 0.88343 0.06728 0.0
C335 C 0.93193 0.90747 0.00873 0.0
Zn336 Zn 0.64588 0.63242 0.73932 0.0
Zn337 Zn 0.60451 0.71134 0.79135 0.0
Zn338 Zn 0.6263 0.64775 0.76891 0.0
C339 C 0.58771 0.66717 0.80403 0.0
C340 C 0.60547 0.68932 0.75186 0.0
O341 O 0.65881 0.66149 0.76845 0.0
O342 O 0.66044 0.66148 0.7337 0.0
C343 C 0.64461 0.6029 0.77117 0.0
O344 O 0.60207 0.65991 0.79096 0.0
O345 O 0.58531 0.68787 0.80663 0.0
O346 O 0.61909 0.69795 0.76464 0.0
O347 O 0.60536 0.66835 0.75004 0.0
O348 O 0.65949 0.61086 0.7595 0.0
O349 O 0.62702 0.61377 0.77388 0.0
O350 O 0.60819 0.65022 0.73887 0.0
O351 O 0.62115 0.62287 0.72014 0.0
C352 C 0.60691 0.63762 0.72258 0.0
O353 O 0.63851 0.66444 0.79654 0.0
O354 O 0.6344 0.69749 0.78409 0.0
C355 C 0.667 0.66895 0.7513 0.0
C356 C 0.64074 0.68501 0.79905 0.0
Zn357 Zn 0.61632 0.39877 0.99474 0.0
Zn358 Zn 0.58403 0.3497 0.06607 0.0
Zn359 Zn 0.60177 0.37878 0.02488 0.0
C360 C 0.61752 0.33834 0.0411 0.0
C361 C 0.56492 0.34076 0.02258 0.0
O362 O 0.58023 0.40655 0.02397 0.0
O363 O 0.59104 0.41924 0.99296 0.0
C364 C 0.64978 0.39666 0.02417 0.0
O365 O 0.60642 0.34408 0.02481 0.0
O366 O 0.61655 0.35061 0.05726 0.0
O367 O 0.56022 0.34313 0.04221 0.0
O368 O 0.58309 0.34862 0.015 0.0
O369 O 0.64438 0.40821 0.00834 0.0
O370 O 0.6359 0.38333 0.0321 0.0
O371 O 0.59476 0.35776 0.99776 0.0
O372 O 0.61599 0.37381 0.97399 0.0
C373 C 0.60316 0.35839 0.97909 0.0
O374 O 0.58021 0.39603 0.04768 0.0
O375 O 0.55887 0.36816 0.05466 0.0
C376 C 0.57787 0.41979 0.00842 0.0
C377 C 0.56329 0.38818 0.05717 0.0
Zn378 Zn 0.90402 0.32763 0.3024 0.0
Zn379 Zn 0.84618 0.35094 0.26432 0.0
Zn380 Zn 0.87945 0.34001 0.27762 0.0
C381 C 0.88079 0.35942 0.2352 0.0
C382 C 0.86404 0.38815 0.2778 0.0
O383 O 0.85745 0.33717 0.30415 0.0
O384 O 0.88075 0.31646 0.32159 0.0
C385 C 0.90937 0.30259 0.26495 0.0
O386 O 0.89034 0.36283 0.25323 0.0
O387 O 0.86126 0.35231 0.23518 0.0
O388 O 0.84558 0.37928 0.28152 0.0
O389 O 0.88013 0.37578 0.27227 0.0
O390 O 0.91904 0.30737 0.2821 0.0
O391 O 0.89112 0.31173 0.26026 0.0
O392 O 0.90483 0.36598 0.27595 0.0
O393 O 0.91837 0.35633 0.30719 0.0
C394 C 0.91819 0.36929 0.29154 0.0
O395 O 0.86671 0.31309 0.25848 0.0
O396 O 0.83389 0.32118 0.27095 0.0
C397 C 0.86171 0.32432 0.31957 0.0
C398 C 0.84666 0.30765 0.26198 0.0
Zn399 Zn 0.87954 0.60223 0.50339 0.0
Zn400 Zn 0.95266 0.67121 0.54883 0.0
Zn401 Zn 0.90098 0.62841 0.52467 0.0
C402 C 0.90471 0.67673 0.55262 0.0
C403 C 0.9373 0.65613 0.50792 0.0
O404 O 0.91532 0.5963 0.53011 0.0
O405 O 0.90109 0.57841 0.50281 0.0
C406 C 0.85233 0.61662 0.53445 0.0
O407 O 0.90344 0.65876 0.54221 0.0
O408 O 0.92322 0.68606 0.55645 0.0
O409 O 0.94451 0.64919 0.52551 0.0
O410 O 0.91857 0.64888 0.50197 0.0
O411 O 0.85605 0.59908 0.5245 0.0
O412 O 0.86681 0.63183 0.53433 0.0
O413 O 0.90386 0.63575 0.49082 0.0
O414 O 0.87482 0.61976 0.47675 0.0
C415 C 0.89108 0.63249 0.47488 0.0
O416 O 0.92283 0.60915 0.54663 0.0
O417 O 0.94012 0.63988 0.54752 0.0
C418 C 0.9144 0.57925 0.51814 0.0
C419 C 0.93801 0.62081 0.55515 0.0
Zn420 Zn 0.64566 0.36156 0.74411 0.0
Zn421 Zn 0.59908 0.33072 0.67127 0.0
Zn422 Zn 0.62127 0.33769 0.72482 0.0
C423 C 0.58079 0.36496 0.70419 0.0
C424 C 0.59271 0.30199 0.70078 0.0
O425 O 0.63983 0.31984 0.75004 0.0
O426 O 0.66875 0.3413 0.75241 0.0
C427 C 0.63367 0.38737 0.71575 0.0
O428 O 0.59517 0.36197 0.71904 0.0
O429 O 0.5814 0.35474 0.68653 0.0
O430 O 0.58705 0.3001 0.68152 0.0
O431 O 0.60668 0.31684 0.7046 0.0
O432 O 0.65302 0.38299 0.7212 0.0
O433 O 0.61875 0.37306 0.71912 0.0
O434 O 0.61468 0.32813 0.75617 0.0
O435 O 0.61783 0.36307 0.76373 0.0
C436 C 0.60943 0.34444 0.76789 0.0
O437 O 0.63818 0.31928 0.70072 0.0
O438 O 0.63277 0.33552 0.66999 0.0
C439 C 0.65989 0.32293 0.75568 0.0
C440 C 0.64353 0.32203 0.68124 0.0
Zn441 Zn 0.93357 0.36407 0.9598 0.0
Zn442 Zn 0.87937 0.39438 0.99679 0.0
Zn443 Zn 0.90132 0.37009 0.9768 0.0
C444 C 0.88446 0.35282 0.01907 0.0
C445 C 0.85585 0.38494 0.95988 0.0
O446 O 0.89701 0.37435 0.94249 0.0
O447 O 0.92791 0.39258 0.94441 0.0
C448 C 0.93948 0.34399 0.99644 0.0
O449 O 0.89522 0.34685 0.00245 0.0
O450 O 0.87636 0.3719 0.02001 0.0
O451 O 0.85538 0.39723 0.97602 0.0
O452 O 0.87265 0.3729 0.95646 0.0
O453 O 0.95054 0.35871 0.98705 0.0
O454 O 0.9186 0.34296 0.99298 0.0
O455 O 0.90167 0.33404 0.97548 0.0
O456 O 0.92065 0.3361 0.94589 0.0
C457 C 0.90733 0.32555 0.9575 0.0
O458 O 0.92294 0.39665 0.98531 0.0
O459 O 0.89993 0.41932 0.00053 0.0
C460 C 0.91103 0.38733 0.9338 0.0
C461 C 0.91902 0.41514 0.99395 0.0
Zn462 Zn 0.87787 0.69125 0.20791 0.0
Zn463 Zn 0.84662 0.64133 0.24737 0.0
Zn464 Zn 0.86939 0.65814 0.2227 0.0
C465 C 0.89074 0.63831 0.26166 0.0
C466 C 0.8446 0.61238 0.21956 0.0
O467 O 0.86369 0.66019 0.18808 0.0
O468 O 0.84927 0.69274 0.19203 0.0
C469 C 0.8987 0.69679 0.24371 0.0
O470 O 0.89435 0.65249 0.24681 0.0
O471 O 0.87289 0.62768 0.26162 0.0
O472 O 0.82879 0.62114 0.2293 0.0
O473 O 0.86205 0.62367 0.21679 0.0
O474 O 0.88615 0.70929 0.23325 0.0
O475 O 0.89686 0.67574 0.2411 0.0
O476 O 0.90472 0.65753 0.22437 0.0
O477 O 0.90358 0.67419 0.19359 0.0
C478 C 0.91328 0.66112 0.20609 0.0
O479 O 0.84558 0.68174 0.23295 0.0
O480 O 0.8319 0.6664 0.26141 0.0
C481 C 0.85206 0.67592 0.18061 0.0
C482 C 0.83326 0.68277 0.24923 0.0
Zn483 Zn 0.59922 0.59959 0.47668 0.0
Zn484 Zn 0.57266 0.66685 0.45864 0.0
Zn485 Zn 0.58532 0.63439 0.47027 0.0
C486 C 0.6165 0.67428 0.46203 0.0
C487 C 0.55128 0.65975 0.49639 0.0
O488 O 0.56054 0.61535 0.48709 0.0
O489 O 0.57035 0.58839 0.46589 0.0
C490 C 0.63587 0.6183 0.4671 0.0
O491 O 0.61454 0.65649 0.47308 0.0
O492 O 0.60014 0.68173 0.45216 0.0
O493 O 0.55817 0.67544 0.48521 0.0
O494 O 0.55733 0.64013 0.49196 0.0
O495 O 0.62846 0.59975 0.46154 0.0
O496 O 0.62225 0.63315 0.47332 0.0
O497 O 0.61 0.64263 0.49339 0.0
O498 O 0.59897 0.61161 0.50742 0.0
C499 C 0.6056 0.63116 0.51008 0.0
O500 O 0.57921 0.62443 0.4387 0.0
O501 O 0.5565 0.65204 0.43479 0.0
C502 C 0.55623 0.5969 0.47813 0.0
C503 C 0.56425 0.63407 0.42814 0.0
Zn504 Zn 0.38953 0.34413 0.19656 0.0
Zn505 Zn 0.34815 0.36462 0.25243 0.0
Zn506 Zn 0.37272 0.35074 0.22696 0.0
C507 C 0.3876 0.35521 0.27377 0.0
C508 C 0.35253 0.39816 0.22461 0.0
O509 O 0.35626 0.32553 0.20513 0.0
O510 O 0.36579 0.34153 0.17538 0.0
C511 C 0.40894 0.3173 0.22885 0.0
O512 O 0.39169 0.34581 0.25597 0.0
O513 O 0.37058 0.36685 0.2757 0.0
O514 O 0.33843 0.39192 0.238 0.0
O515 O 0.36754 0.38488 0.21885 0.0
O516 O 0.4035 0.31503 0.2095 0.0
O517 O 0.40258 0.33479 0.23857 0.0
O518 O 0.40853 0.35866 0.2298 0.0
O519 O 0.40622 0.37229 0.19782 0.0
C520 C 0.41652 0.37095 0.21514 0.0
O521 O 0.34675 0.32605 0.2263 0.0
O522 O 0.3283 0.33887 0.25379 0.0
C523 C 0.35479 0.32689 0.18469 0.0
C524 C 0.33103 0.32432 0.23979 0.0
Zn525 Zn 0.38795 0.59167 0.98948 0.0
Zn526 Zn 0.42629 0.65756 0.92508 0.0
Zn527 Zn 0.39911 0.61769 0.96632 0.0
C528 C 0.38071 0.65208 0.94674 0.0
C529 C 0.44 0.65681 0.97193 0.0
O530 O 0.42821 0.61394 0.9854 0.0
O531 O 0.41826 0.57918 0.98423 0.0
C532 C 0.35161 0.60063 0.97002 0.0
O533 O 0.37145 0.6391 0.95971 0.0
O534 O 0.39929 0.64588 0.94006 0.0
O535 O 0.44217 0.66393 0.95286 0.0
O536 O 0.42592 0.64168 0.97753 0.0
O537 O 0.36045 0.58248 0.97452 0.0
O538 O 0.36354 0.61801 0.96927 0.0
O539 O 0.41315 0.63013 0.99603 0.0
O540 O 0.38518 0.61537 0.01279 0.0
C541 C 0.40069 0.62924 0.01255 0.0
O542 O 0.41082 0.59456 0.94289 0.0
O543 O 0.41315 0.62773 0.93201 0.0
C544 C 0.43325 0.59351 0.98607 0.0
C545 C 0.41952 0.60805 0.9302 0.0
Zn546 Zn 0.08274 0.65365 0.68423 0.0
Zn547 Zn 0.1436 0.63518 0.74545 0.0
Zn548 Zn 0.11293 0.6471 0.72722 0.0
C549 C 0.10783 0.63118 0.77325 0.0
C550 C 0.13925 0.60719 0.71102 0.0
O551 O 0.12143 0.67528 0.7073 0.0
O552 O 0.11567 0.6577 0.67706 0.0
C553 C 0.08423 0.68974 0.71853 0.0
O554 O 0.09802 0.63942 0.75716 0.0
O555 O 0.12792 0.62625 0.77194 0.0
O556 O 0.1531 0.61204 0.72524 0.0
O557 O 0.1228 0.61976 0.70804 0.0
O558 O 0.07233 0.67829 0.70589 0.0
O559 O 0.10358 0.68282 0.72387 0.0
O560 O 0.08329 0.631 0.73722 0.0
O561 O 0.06872 0.6514 0.71364 0.0
C562 C 0.06814 0.63357 0.72366 0.0
O563 O 0.12977 0.67898 0.73035 0.0
O564 O 0.158 0.66413 0.74709 0.0
C565 C 0.12485 0.67321 0.68721 0.0
C566 C 0.14834 0.68091 0.74002 0.0
Zn567 Zn 0.06264 0.36912 0.45919 0.0
Zn568 Zn 0.11786 0.397 0.50071 0.0
Zn569 Zn 0.0962 0.37601 0.47325 0.0
C570 C 0.1089 0.35277 0.5158 0.0
C571 C 0.14549 0.39228 0.46736 0.0
O572 O 0.09147 0.38458 0.43873 0.0
O573 O 0.05925 0.39843 0.44567 0.0
C574 C 0.05529 0.34637 0.49193 0.0
O575 O 0.09838 0.35054 0.49801 0.0
O576 O 0.11893 0.37048 0.51994 0.0
O577 O 0.14351 0.40466 0.48328 0.0
O578 O 0.12972 0.37952 0.46218 0.0
O579 O 0.04278 0.35947 0.48221 0.0
O580 O 0.07637 0.34836 0.48964 0.0
O581 O 0.0957 0.34086 0.47451 0.0
O582 O 0.08003 0.34392 0.44333 0.0
C583 C 0.09265 0.33336 0.45565 0.0
O584 O 0.0766 0.40216 0.48418 0.0
O585 O 0.09678 0.42068 0.5069 0.0
C586 C 0.07513 0.39649 0.43299 0.0
C587 C 0.07906 0.41828 0.49677 0.0
Zn588 Zn 0.34593 0.64064 0.2465 0.0
Zn589 Zn 0.40086 0.66429 0.29138 0.0
Zn590 Zn 0.37614 0.6524 0.26936 0.0
C591 C 0.41674 0.62708 0.27898 0.0
C592 C 0.40093 0.69392 0.26123 0.0
O593 O 0.35886 0.68251 0.2602 0.0
O594 O 0.32725 0.66598 0.25355 0.0
C595 C 0.34879 0.61233 0.28155 0.0
O596 O 0.40765 0.63578 0.26256 0.0
O597 O 0.41109 0.63377 0.29712 0.0
O598 O 0.41569 0.68277 0.27019 0.0
O599 O 0.38081 0.68754 0.26235 0.0
O600 O 0.3429 0.61285 0.2623 0.0
O601 O 0.35908 0.6288 0.28964 0.0
O602 O 0.39502 0.63782 0.24382 0.0
O603 O 0.36703 0.6437 0.22235 0.0
C604 C 0.3873 0.64023 0.22498 0.0
O605 O 0.36485 0.64683 0.30288 0.0
O606 O 0.3798 0.67868 0.31029 0.0
C607 C 0.33805 0.68332 0.25693 0.0
C608 C 0.3666 0.66364 0.31523 0.0
Zn609 Zn 0.12166 0.60421 0.00725 0.0
Zn610 Zn 0.04586 0.65458 0.05951 0.0
Zn611 Zn 0.09716 0.62836 0.02853 0.0
C612 C 0.09268 0.66728 0.06083 0.0
C613 C 0.05859 0.65865 0.01468 0.0
O614 O 0.08094 0.59691 0.02277 0.0
O615 O 0.10079 0.58085 0.99817 0.0
C616 C 0.14424 0.61647 0.042 0.0
O617 O 0.09227 0.66071 0.04159 0.0
O618 O 0.07527 0.66609 0.07196 0.0
O619 O 0.04665 0.6466 0.02655 0.0
O620 O 0.07955 0.65618 0.01522 0.0
O621 O 0.14163 0.5987 0.03201 0.0
O622 O 0.12939 0.631 0.04077 0.0
O623 O 0.09514 0.64159 0.99783 0.0
O624 O 0.12693 0.62941 0.9866 0.0
C625 C 0.11061 0.642 0.98425 0.0
O626 O 0.07664 0.60522 0.04643 0.0
O627 O 0.04892 0.62709 0.042 0.0
C628 C 0.08351 0.58155 0.00916 0.0
C629 C 0.05736 0.6112 0.05195 0.0
Zn630 Zn 0.10216 0.3504 0.8052 0.0
Zn631 Zn 0.13488 0.36322 0.74158 0.0
Zn632 Zn 0.11276 0.35067 0.76959 0.0
C633 C 0.09157 0.35793 0.72605 0.0
C634 C 0.14009 0.394 0.77343 0.0
O635 O 0.13012 0.32478 0.78796 0.0
O636 O 0.13298 0.34462 0.81696 0.0
C637 C 0.09103 0.31008 0.78499 0.0
O638 O 0.08814 0.35124 0.74502 0.0
O639 O 0.11021 0.36536 0.72095 0.0
O640 O 0.14689 0.38995 0.75492 0.0
O641 O 0.12692 0.38062 0.78246 0.0
O642 O 0.08326 0.32302 0.7988 0.0
O643 O 0.10913 0.3156 0.77571 0.0
O644 O 0.07805 0.35771 0.77109 0.0
O645 O 0.0862 0.37864 0.79838 0.0
C646 C 0.07233 0.37248 0.78451 0.0
O647 O 0.13358 0.32163 0.76466 0.0
O648 O 0.15422 0.33727 0.74006 0.0
C649 C 0.13856 0.32772 0.80655 0.0
C650 C 0.15002 0.32099 0.75178 0.0
Zn651 Zn 0.4295 0.33966 0.54581 0.0
Zn652 Zn 0.39722 0.39987 0.52003 0.0
Zn653 Zn 0.41171 0.36705 0.52861 0.0
C654 C 0.39317 0.36684 0.48752 0.0
C655 C 0.36135 0.37872 0.53011 0.0
O656 O 0.41421 0.38246 0.55904 0.0
O657 O 0.4429 0.36184 0.56554 0.0
C658 C 0.44842 0.3435 0.50553 0.0
O659 O 0.38899 0.3557 0.50449 0.0
O660 O 0.39877 0.38677 0.48969 0.0
O661 O 0.36813 0.3976 0.53541 0.0
O662 O 0.37548 0.36443 0.52391 0.0
O663 O 0.4454 0.32966 0.52014 0.0
O664 O 0.43935 0.3624 0.50671 0.0
O665 O 0.3867 0.34105 0.52575 0.0
O666 O 0.402 0.32359 0.55276 0.0
C667 C 0.3863 0.32562 0.53976 0.0
O668 O 0.43686 0.38621 0.51188 0.0
O669 O 0.42473 0.41442 0.53024 0.0
C670 C 0.4314 0.37846 0.56988 0.0
C671 C 0.43992 0.40552 0.51958 0.0
H672 H 0.16238 0.06135 0.29586 0.0
H673 H 0.16085 0.02399 0.28175 0.0
H674 H 0.0963 0.03645 0.25656 0.0
H675 H 0.09762 0.07382 0.27085 0.0
H676 H 0.12706 0.9864 0.28183 0.0
H677 H 0.14167 0.02837 0.20446 0.0
H678 H 0.14734 0.04144 0.22964 0.0
H679 H 0.11954 0.03812 0.22086 0.0
C680 C 0.14739 0.05575 0.28829 0.0
C681 C 0.13014 0.07051 0.28443 0.0
C682 C 0.14664 0.03448 0.28004 0.0
C683 C 0.12869 0.02771 0.2677 0.0
C684 C 0.11039 0.04152 0.26587 0.0
H685 H 0.11341 0.90433 0.20117 0.0
H686 H 0.10858 0.94334 0.20873 0.0
C687 C 0.11103 0.06276 0.27434 0.0
C688 C 0.13045 0.00752 0.2547 0.0
H689 H 0.14099 0.98971 0.20412 0.0
C690 C 0.12985 0.98708 0.26483 0.0
C691 C 0.13441 0.00855 0.23254 0.0
C692 C 0.13593 0.03025 0.22111 0.0
C693 C 0.13309 0.96761 0.25335 0.0
C694 C 0.13729 0.96864 0.23124 0.0
C695 C 0.13768 0.98904 0.22103 0.0
C696 C 0.14204 0.94841 0.21907 0.0
C697 C 0.13235 0.94595 0.26494 0.0
C698 C 0.16294 0.93898 0.22048 0.0
C699 C 0.16578 0.91671 0.21598 0.0
C700 C 0.14765 0.90364 0.21028 0.0
C701 C 0.12771 0.91401 0.20532 0.0
C702 C 0.12483 0.93629 0.20999 0.0
H703 H 0.12713 0.94781 0.28174 0.0
H704 H 0.12087 0.93453 0.25681 0.0
H705 H 0.14887 0.93833 0.26469 0.0
H706 H 0.17645 0.94814 0.22736 0.0
H707 H 0.18128 0.90912 0.22004 0.0
H708 H 0.33361 0.92621 0.4647 0.0
H709 H 0.29384 0.92467 0.47007 0.0
H710 H 0.29575 0.85416 0.46524 0.0
H711 H 0.33514 0.85577 0.45874 0.0
H712 H 0.25549 0.87159 0.45254 0.0
H713 H 0.28216 0.90456 0.53077 0.0
H714 H 0.2885 0.92202 0.50868 0.0
H715 H 0.30139 0.8956 0.51085 0.0
C716 C 0.32527 0.91055 0.46343 0.0
C717 C 0.33735 0.89113 0.46126 0.0
C718 C 0.30265 0.90963 0.46687 0.0
C719 C 0.29209 0.88925 0.46888 0.0
C720 C 0.30363 0.87005 0.46392 0.0
H721 H 0.16637 0.84668 0.52197 0.0
H722 H 0.20415 0.84691 0.50874 0.0
C723 C 0.32615 0.87101 0.45993 0.0
C724 C 0.27042 0.88765 0.47936 0.0
H725 H 0.24427 0.89871 0.52609 0.0
C726 C 0.25297 0.87753 0.4686 0.0
C727 C 0.26737 0.89502 0.50051 0.0
C728 C 0.28588 0.90471 0.51349 0.0
C729 C 0.23226 0.87529 0.47815 0.0
C730 C 0.22917 0.88301 0.49917 0.0
C731 C 0.24671 0.89284 0.51 0.0
C732 C 0.20754 0.88224 0.50981 0.0
C733 C 0.21377 0.86524 0.46545 0.0
C734 C 0.19763 0.90185 0.51634 0.0
C735 C 0.17634 0.90171 0.52441 0.0
C736 C 0.16449 0.88197 0.52588 0.0
C737 C 0.17501 0.86217 0.52078 0.0
C738 C 0.19647 0.8623 0.51298 0.0
H739 H 0.21748 0.86494 0.44818 0.0
H740 H 0.21117 0.84808 0.47073 0.0
H741 H 0.19825 0.87438 0.46792 0.0
H742 H 0.20598 0.9174 0.51426 0.0
H743 H 0.16869 0.91727 0.52811 0.0
H744 H 0.40117 0.09101 0.73557 0.0
H745 H 0.40352 0.05359 0.74935 0.0
H746 H 0.34464 0.03621 0.71521 0.0
H747 H 0.3421 0.07351 0.70134 0.0
H748 H 0.3445 0.03318 0.76316 0.0
H749 H 0.41376 0.9899 0.72354 0.0
H750 H 0.4176 0.01802 0.73155 0.0
H751 H 0.39878 0.01164 0.71053 0.0
C752 C 0.38925 0.07901 0.73024 0.0
C753 C 0.37124 0.08528 0.71763 0.0
C754 C 0.39056 0.05767 0.73825 0.0
C755 C 0.37407 0.04237 0.73349 0.0
C756 C 0.3574 0.04794 0.71915 0.0
H757 H 0.32417 0.91956 0.76654 0.0
H758 H 0.32852 0.95887 0.76312 0.0
C759 C 0.35606 0.06921 0.71115 0.0
C760 C 0.37247 0.02168 0.74549 0.0
H761 H 0.39441 0.97066 0.74975 0.0
C762 C 0.3555 0.01951 0.76041 0.0
C763 C 0.38704 0.00416 0.74204 0.0
C764 C 0.40533 0.00583 0.726 0.0
C765 C 0.35236 -9e-05 0.77165 0.0
C766 C 0.36636 0.98196 0.7675 0.0
C767 C 0.38382 0.9845 0.75312 0.0
C768 C 0.36172 0.95961 0.77548 0.0
C769 C 0.33396 -0.00137 0.78762 0.0
C770 C 0.3786 0.94691 0.78435 0.0
C771 C 0.37635 0.92416 0.78584 0.0
C772 C 0.35715 0.91388 0.77847 0.0
C773 C 0.33932 0.92694 0.77208 0.0
C774 C 0.34169 0.94957 0.77032 0.0
H775 H 0.33094 0.0149 0.795 0.0
H776 H 0.31864 0.99362 0.77939 0.0
H777 H 0.33752 0.98658 0.80038 0.0
H778 H 0.39416 0.95439 0.78854 0.0
H779 H 0.3903 0.91462 0.79105 0.0
H780 H 0.33925 0.14146 0.0437 0.0
H781 H 0.30032 0.14816 0.037 0.0
H782 H 0.29044 0.0791 0.02549 0.0
H783 H 0.32908 0.07239 0.03244 0.0
H784 H 0.28826 0.13975 0.99629 0.0
H785 H 0.23199 0.09534 0.04995 0.0
H786 H 0.26016 0.10099 0.05707 0.0
H787 H 0.25341 0.07772 0.04065 0.0
C788 C 0.32847 0.12753 0.04121 0.0
C789 C 0.33719 0.10644 0.03827 0.0
C790 C 0.30626 0.13143 0.03704 0.0
C791 C 0.29251 0.1142 0.0304 0.0
C792 C 0.30059 0.09267 0.03075 0.0
H793 H 0.18203 0.087 0.95357 0.0
H794 H 0.21941 0.09021 0.9672 0.0
C795 C 0.32274 0.08879 0.03485 0.0
C796 C 0.27176 0.11889 0.01893 0.0
H797 H 0.21849 0.10229 0.01432 0.0
C798 C 0.27285 0.13198 0.00052 0.0
C799 C 0.25176 0.10851 0.02424 0.0
C800 C 0.24921 0.09503 0.04418 0.0
C801 C 0.25474 0.13418 0.98687 0.0
C802 C 0.23511 0.12306 0.99179 0.0
C803 C 0.23374 0.1106 0.0105 0.0
C804 C 0.21566 0.12372 0.97776 0.0
C805 C 0.25686 0.14752 0.96682 0.0
C806 C 0.20184 0.14208 0.97775 0.0
C807 C 0.18044 0.14035 0.9698 0.0
C808 C 0.17264 0.1201 0.96215 0.0
C809 C 0.18756 0.10275 0.95952 0.0
C810 C 0.20887 0.10449 0.96745 0.0
H811 H 0.27386 0.15359 0.96431 0.0
H812 H 0.25186 0.13751 0.95288 0.0
H813 H 0.24566 0.16182 0.96764 0.0
H814 H 0.20686 0.15706 0.98565 0.0
H815 H 0.16934 0.15399 0.9721 0.0
H816 H 0.81166 0.92299 0.7249 0.0
H817 H 0.81112 0.9623 0.73252 0.0
H818 H 0.88157 0.96457 0.72599 0.0
H819 H 0.88186 0.92577 0.71699 0.0
H820 H 0.82806 0.97533 0.76773 0.0
H821 H 0.86856 0.02367 0.70464 0.0
H822 H 0.85949 0.99585 0.70029 0.0
H823 H 0.88548 0.0013 0.71298 0.0
C824 C 0.82682 0.93224 0.72374 0.0
C825 C 0.84678 0.92137 0.72027 0.0
C826 C 0.82658 0.95465 0.72844 0.0
C827 C 0.84633 0.96651 0.73017 0.0
C828 C 0.86603 0.9561 0.72445 0.0
H829 H 0.88453 0.08802 0.79143 0.0
H830 H 0.88251 0.04876 0.78375 0.0
C831 C 0.86618 0.9338 0.71916 0.0
C832 C 0.84664 0.98814 0.7413 0.0
H833 H 0.8668 0.04045 0.73916 0.0
C834 C 0.83632 0.98962 0.76127 0.0
C835 C 0.85769 0.0068 0.73319 0.0
C836 C 0.86823 0.00689 0.71151 0.0
C837 C 0.83678 0.00905 0.77327 0.0
C838 C 0.84797 0.02752 0.76525 0.0
C839 C 0.85843 0.02612 0.74541 0.0
C840 C 0.84786 0.04902 0.77639 0.0
C841 C 0.82551 0.00969 0.79456 0.0
C842 C 0.82875 0.0618 0.77644 0.0
C843 C 0.82992 0.08424 0.78106 0.0
C844 C 0.85023 0.09423 0.78552 0.0
C845 C 0.86862 0.08073 0.78857 0.0
C846 C 0.86756 0.05834 0.78367 0.0
H847 H 0.82115 0.99302 0.80032 0.0
H848 H 0.83616 0.01781 0.80656 0.0
H849 H 0.8102 0.01941 0.79318 0.0
H850 H 0.81339 0.05498 0.77078 0.0
H851 H 0.81559 0.09427 0.77808 0.0
H852 H 0.83338 0.14915 0.46179 0.0
H853 H 0.79542 0.15503 0.47257 0.0
H854 H 0.78326 0.08547 0.46924 0.0
H855 H 0.82121 0.07939 0.45844 0.0
H856 H 0.7476 0.13553 0.46068 0.0
H857 H 0.78844 0.10828 0.53535 0.0
H858 H 0.80374 0.11883 0.51301 0.0
H859 H 0.7923 0.09173 0.51198 0.0
C860 C 0.82234 0.13521 0.4621 0.0
C861 C 0.83037 0.11373 0.45997 0.0
C862 C 0.80067 0.13861 0.46845 0.0
C863 C 0.78694 0.12059 0.47228 0.0
C864 C 0.79385 0.0995 0.46662 0.0
H865 H 0.67532 0.08662 0.54244 0.0
H866 H 0.71322 0.09146 0.53132 0.0
C867 C 0.81549 0.09609 0.46033 0.0
C868 C 0.76762 0.12319 0.48604 0.0
H869 H 0.75032 0.11469 0.53693 0.0
C870 C 0.74812 0.13123 0.47739 0.0
C871 C 0.76861 0.11743 0.50779 0.0
C872 C 0.7894 0.10869 0.51773 0.0
C873 C 0.72911 0.13291 0.48984 0.0
C874 C 0.73002 0.12715 0.51169 0.0
C875 C 0.74977 0.11951 0.52035 0.0
C876 C 0.70994 0.12617 0.52488 0.0
C877 C 0.708 0.13969 0.47914 0.0
C878 C 0.69626 0.14453 0.52716 0.0
C879 C 0.67441 0.14175 0.53344 0.0
C880 C 0.66626 0.1206 0.53752 0.0
C881 C 0.68111 0.10304 0.53896 0.0
C882 C 0.70279 0.10578 0.53248 0.0
H883 H 0.70923 0.13899 0.46154 0.0
H884 H 0.6942 0.12897 0.48419 0.0
H885 H 0.70404 0.15681 0.48367 0.0
H886 H 0.70181 0.16059 0.52213 0.0
H887 H 0.66342 0.15565 0.53247 0.0
H888 H 0.62108 0.08342 0.20371 0.0
H889 H 0.61779 0.04366 0.20824 0.0
H890 H 0.67742 0.04321 0.24516 0.0
H891 H 0.68121 0.08261 0.2403 0.0
H892 H 0.67108 0.00514 0.21978 0.0
H893 H 0.59782 0.02596 0.26861 0.0
H894 H 0.59764 0.03529 0.24153 0.0
H895 H 0.61723 0.04646 0.25994 0.0
C896 C 0.63389 0.07475 0.21216 0.0
C897 C 0.65109 0.08625 0.2221 0.0
C898 C 0.63188 0.05208 0.21488 0.0
C899 C 0.64698 0.04073 0.22762 0.0
C900 C 0.66546 0.05176 0.23548 0.0
H901 H 0.66119 0.9164 0.29198 0.0
H902 H 0.66443 0.95446 0.27993 0.0
C903 C 0.66758 0.07432 0.23266 0.0
C904 C 0.64238 0.01821 0.23505 0.0
H905 H 0.60845 0.989 0.2677 0.0
C906 C 0.65731 0.00153 0.23013 0.0
C907 C 0.62448 0.01369 0.2487 0.0
C908 C 0.60841 0.03127 0.2552 0.0
C909 C 0.65482 0.98036 0.23849 0.0
C910 C 0.63721 0.97598 0.25251 0.0
C911 C 0.62203 0.99254 0.2571 0.0
C912 C 0.63402 0.95411 0.26215 0.0
C913 C 0.67089 0.96278 0.23208 0.0
C914 C 0.61518 0.94192 0.25726 0.0
C915 C 0.61313 0.92036 0.26433 0.0
C916 C 0.62994 0.91058 0.27639 0.0
C917 C 0.64807 0.92338 0.28257 0.0
C918 C 0.65005 0.94504 0.27553 0.0
H919 H 0.68008 0.96734 0.2175 0.0
H920 H 0.68295 0.96034 0.24508 0.0
H921 H 0.66234 0.94694 0.22924 0.0
H922 H 0.60251 0.94876 0.24717 0.0
H923 H 0.59884 0.91108 0.25941 0.0
H924 H 0.83447 0.93376 0.0417 0.0
H925 H 0.79562 0.9297 0.03312 0.0
H926 H 0.8015 0.85953 0.03927 0.0
H927 H 0.84009 0.86376 0.0486 0.0
H928 H 0.78894 0.90806 0.99543 0.0
H929 H 0.73906 0.86893 0.05875 0.0
H930 H 0.76493 0.88231 0.06421 0.0
H931 H 0.76438 0.85516 0.05308 0.0
C932 C 0.82704 0.91764 0.04292 0.0
C933 C 0.84031 0.89904 0.04561 0.0
C934 C 0.80492 0.91527 0.03749 0.0
C935 C 0.79573 0.89428 0.03505 0.0
C936 C 0.80811 0.87591 0.04114 0.0
H937 H 0.67255 0.85412 0.97532 0.0
H938 H 0.71163 0.853 0.9845 0.0
C939 C 0.83019 0.87836 0.04684 0.0
C940 C 0.77513 0.89156 0.02264 0.0
H941 H 0.72316 0.87073 0.02439 0.0
C942 C 0.77452 0.89997 0.00183 0.0
C943 C 0.75654 0.8805 0.03072 0.0
C944 C 0.75611 0.87135 0.05297 0.0
C945 C 0.75566 0.89809 0.9891 0.0
C946 C 0.73684 0.8877 0.99746 0.0
C947 C 0.73768 0.87861 0.01797 0.0
C948 C 0.71535 0.88824 0.98639 0.0
C949 C 0.75603 0.90726 0.96684 0.0
C950 C 0.70484 0.90842 0.98327 0.0
C951 C 0.68258 0.9091 0.97806 0.0
C952 C 0.67043 0.8896 0.9759 0.0
C953 C 0.68151 0.86942 0.97675 0.0
C954 C 0.70379 0.86875 0.98219 0.0
H955 H 0.77303 0.90837 0.96058 0.0
H956 H 0.74604 0.89703 0.95587 0.0
H957 H 0.74904 0.92405 0.96699 0.0
H958 H 0.71333 0.92366 0.98663 0.0
H959 H 0.67446 0.92488 0.97752 0.0
H960 H 0.6785 0.57477 0.76418 0.0
H961 H 0.67412 0.53558 0.7583 0.0
H962 H 0.60846 0.53843 0.78353 0.0
H963 H 0.61248 0.57785 0.78924 0.0
H964 H 0.65626 0.49506 0.77983 0.0
H965 H 0.60495 0.53211 0.71585 0.0
H966 H 0.62446 0.54789 0.73112 0.0
H967 H 0.59881 0.5399 0.74276 0.0
C968 C 0.66342 0.56696 0.76931 0.0
C969 C 0.64542 0.57943 0.77626 0.0
C970 C 0.66102 0.54454 0.766 0.0
C971 C 0.64074 0.53452 0.76988 0.0
C972 C 0.62407 0.5462 0.78014 0.0
H973 H 0.59705 0.40801 0.72968 0.0
H974 H 0.59555 0.44672 0.73909 0.0
C975 C 0.62641 0.56868 0.78338 0.0
C976 C 0.63564 0.51389 0.759 0.0
H977 H 0.6092 0.49377 0.71524 0.0
C978 C 0.6458 0.49465 0.76588 0.0
C979 C 0.62237 0.5138 0.7405 0.0
C980 C 0.6121 0.53451 0.73193 0.0
C981 C 0.64282 0.47502 0.75474 0.0
C982 C 0.62956 0.47494 0.73627 0.0
C983 C 0.61929 0.49412 0.72945 0.0
C984 C 0.62642 0.45471 0.7241 0.0
C985 C 0.65401 0.4545 0.76259 0.0
C986 C 0.6434 0.44714 0.71108 0.0
C987 C 0.64419 0.42507 0.70546 0.0
C988 C 0.62805 0.41054 0.71295 0.0
C989 C 0.60953 0.41888 0.72343 0.0
C990 C 0.60874 0.44096 0.72901 0.0
H991 H 0.66186 0.45689 0.77836 0.0
H992 H 0.64201 0.44082 0.76374 0.0
H993 H 0.66686 0.44955 0.75107 0.0
H994 H 0.65711 0.45773 0.70717 0.0
H995 H 0.65861 0.41897 0.69734 0.0
H996 H 0.83629 0.34536 0.95733 0.0
H997 H 0.79819 0.34227 0.96875 0.0
H998 H 0.78836 0.41077 0.95499 0.0
H999 H 0.82654 0.41395 0.94388 0.0
H1000 H 0.79095 0.39575 0.00099 0.0
H1001 H 0.73066 0.3495 0.95142 0.0
H1002 H 0.7588 0.34043 0.95253 0.0
H1003 H 0.75227 0.36572 0.93955 0.0
C1004 C 0.82557 0.35934 0.9551 0.0
C1005 C 0.83444 0.38006 0.95035 0.0
C1006 C 0.80382 0.35762 0.96199 0.0
C1007 C 0.79074 0.37645 0.96324 0.0
C1008 C 0.79835 0.39611 0.95433 0.0
H1009 H 0.6808 0.42847 0.0207 0.0
H1010 H 0.71918 0.42142 0.01247 0.0
C1011 C 0.82009 0.39783 0.94759 0.0
C1012 C 0.77211 0.37714 0.9782 0.0
H1013 H 0.7186 0.36252 0.98458 0.0
C1014 C 0.77512 0.38839 0.99749 0.0
C1015 C 0.75179 0.36711 0.97373 0.0
C1016 C 0.74796 0.35501 0.95319 0.0
C1017 C 0.75796 0.39059 0.01213 0.0
C1018 C 0.73731 0.38143 0.00724 0.0
C1019 C 0.73458 0.36935 0.98837 0.0
C1020 C 0.71745 0.38674 0.01962 0.0
C1021 C 0.76189 0.40298 0.03254 0.0
C1022 C 0.70425 0.36989 0.02785 0.0
C1023 C 0.68229 0.37397 0.03283 0.0
C1024 C 0.67331 0.39481 0.02905 0.0
C1025 C 0.68734 0.41223 0.02362 0.0
C1026 C 0.7093 0.40821 0.01891 0.0
H1027 H 0.77961 0.40352 0.03669 0.0
H1028 H 0.7561 0.4201 0.03063 0.0
H1029 H 0.75268 0.39543 0.04589 0.0
H1030 H 0.71033 0.35323 0.02854 0.0
H1031 H 0.67183 0.36025 0.03699 0.0
H1032 H 0.83395 0.41898 0.28966 0.0
H1033 H 0.83281 0.45734 0.2784 0.0
H1034 H 0.89553 0.44995 0.24767 0.0
H1035 H 0.89706 0.41168 0.25919 0.0
H1036 H 0.88959 0.49111 0.26846 0.0
H1037 H 0.81983 0.47013 0.21534 0.0
H1038 H 0.81559 0.46311 0.24273 0.0
H1039 H 0.83671 0.44952 0.22781 0.0
C1040 C 0.84772 0.42562 0.28088 0.0
C1041 C 0.86545 0.4122 0.27506 0.0
C1042 C 0.84697 0.44749 0.27434 0.0
C1043 C 0.8638 0.45624 0.26171 0.0
C1044 C 0.88228 0.4434 0.25724 0.0
H1045 H 0.8774 0.58658 0.20322 0.0
H1046 H 0.88298 0.54751 0.21061 0.0
C1047 C 0.88314 0.42155 0.26389 0.0
C1048 C 0.8614 0.47824 0.25203 0.0
H1049 H 0.82876 0.50784 0.21857 0.0
C1050 C 0.87643 0.49479 0.25741 0.0
C1051 C 0.84429 0.48286 0.23748 0.0
C1052 C 0.82828 0.46544 0.2303 0.0
C1053 C 0.87424 0.51615 0.24932 0.0
C1054 C 0.85682 0.52087 0.23512 0.0
C1055 C 0.84213 0.50415 0.22937 0.0
C1056 C 0.85236 0.54345 0.22755 0.0
C1057 C 0.89 0.53369 0.25675 0.0
C1058 C 0.83259 0.55359 0.23316 0.0
C1059 C 0.82911 0.57566 0.2285 0.0
C1060 C 0.84548 0.58814 0.21834 0.0
C1061 C 0.86453 0.57748 0.21118 0.0
C1062 C 0.86789 0.55525 0.21566 0.0
H1063 H 0.89986 0.52827 0.27064 0.0
H1064 H 0.90149 0.5378 0.24368 0.0
H1065 H 0.88101 0.54885 0.26113 0.0
H1066 H 0.82029 0.54473 0.24217 0.0
H1067 H 0.81422 0.58326 0.23429 0.0
H1068 H 0.65638 0.65409 0.48419 0.0
H1069 H 0.6939 0.65654 0.4969 0.0
H1070 H 0.70687 0.59158 0.47321 0.0
H1071 H 0.66922 0.58913 0.45959 0.0
H1072 H 0.7102 0.60539 0.52327 0.0
H1073 H 0.75845 0.65393 0.46457 0.0
H1074 H 0.73024 0.66113 0.46959 0.0
H1075 H 0.73643 0.63586 0.45643 0.0
C1076 C 0.66729 0.64063 0.48077 0.0
C1077 C 0.65969 0.62143 0.47072 0.0
C1078 C 0.68877 0.64204 0.48824 0.0
C1079 C 0.70299 0.62425 0.486 0.0
C1080 C 0.69602 0.6055 0.47497 0.0
H1081 H 0.82213 0.58573 0.54416 0.0
H1082 H 0.78344 0.58922 0.53665 0.0
C1083 C 0.67453 0.60416 0.46721 0.0
C1084 C 0.72393 0.62433 0.49769 0.0
H1085 H 0.77598 0.6445 0.49652 0.0
C1086 C 0.72467 0.6139 0.51751 0.0
C1087 C 0.74241 0.63584 0.49021 0.0
C1088 C 0.74208 0.64734 0.46901 0.0
C1089 C 0.74359 0.61469 0.53021 0.0
C1090 C 0.76245 0.62575 0.52254 0.0
C1091 C 0.7615 0.63631 0.50266 0.0
C1092 C 0.78408 0.6246 0.53339 0.0
C1093 C 0.74287 0.6039 0.55177 0.0
C1094 C 0.79745 0.64339 0.53514 0.0
C1095 C 0.82003 0.64132 0.53879 0.0
C1096 C 0.82936 0.62041 0.54078 0.0
C1097 C 0.81541 0.60207 0.54238 0.0
C1098 C 0.79309 0.60406 0.53822 0.0
H1099 H 0.72614 0.60485 0.55868 0.0
H1100 H 0.74691 0.58625 0.55003 0.0
H1101 H 0.75464 0.61152 0.56305 0.0
H1102 H 0.7908 0.65947 0.53174 0.0
H1103 H 0.83035 0.65576 0.53762 0.0
H1104 H 0.32007 0.42815 0.21977 0.0
H1105 H 0.32272 0.46626 0.23146 0.0
H1106 H 0.39289 0.45962 0.23747 0.0
H1107 H 0.39036 0.42175 0.22507 0.0
H1108 H 0.33714 0.47155 0.27235 0.0
H1109 H 0.38752 0.52277 0.21803 0.0
H1110 H 0.37513 0.49725 0.20968 0.0
H1111 H 0.39978 0.49712 0.22539 0.0
C1112 C 0.33617 0.43523 0.22241 0.0
C1113 C 0.35498 0.422 0.22163 0.0
C1114 C 0.33766 0.45692 0.22934 0.0
C1115 C 0.35795 0.4657 0.23569 0.0
C1116 C 0.37708 0.45332 0.2325 0.0
H1117 H 0.38381 0.59061 0.2973 0.0
H1118 H 0.38808 0.55107 0.2921 0.0
C1119 C 0.37562 0.43166 0.22524 0.0
C1120 C 0.35846 0.48594 0.24881 0.0
H1121 H 0.37872 0.53804 0.25149 0.0
C1122 C 0.34625 0.48611 0.26776 0.0
C1123 C 0.37073 0.50471 0.24313 0.0
C1124 C 0.38391 0.50562 0.22287 0.0
C1125 C 0.34547 0.50471 0.28086 0.0
C1126 C 0.35705 0.52378 0.27478 0.0
C1127 C 0.36997 0.52334 0.25626 0.0
C1128 C 0.3537 0.54522 0.28548 0.0
C1129 C 0.3321 0.50377 0.30098 0.0
C1130 C 0.33274 0.5547 0.28528 0.0
C1131 C 0.33031 0.57723 0.28841 0.0
C1132 C 0.34883 0.59059 0.29156 0.0
C1133 C 0.36926 0.58063 0.2951 0.0
C1134 C 0.37176 0.55807 0.29177 0.0
H1135 H 0.3313 0.48678 0.30733 0.0
H1136 H 0.33896 0.51472 0.31344 0.0
H1137 H 0.31507 0.50903 0.29745 0.0
H1138 H 0.31858 0.54526 0.28027 0.0
H1139 H 0.31444 0.58456 0.28537 0.0
H1140 H 0.32668 0.63039 0.94878 0.0
H1141 H 0.28861 0.64023 0.9575 0.0
H1142 H 0.28434 0.58375 0.99851 0.0
H1143 H 0.32239 0.57456 0.99058 0.0
H1144 H 0.24352 0.59879 0.97062 0.0
H1145 H 0.2833 0.66019 0.02415 0.0
H1146 H 0.29136 0.65778 0.99669 0.0
H1147 H 0.29846 0.63656 0.01514 0.0
C1148 C 0.31746 0.62017 0.95955 0.0
C1149 C 0.3276 0.60245 0.96977 0.0
C1150 C 0.29575 0.62555 0.96425 0.0
C1151 C 0.28405 0.61291 0.97895 0.0
C1152 C 0.29332 0.59371 0.98719 0.0
H1153 H 0.17773 0.59038 0.05507 0.0
H1154 H 0.21459 0.59503 0.04073 0.0
C1155 C 0.31501 0.58846 0.98262 0.0
C1156 C 0.26373 0.62108 0.98854 0.0
H1157 H 0.24677 0.65034 0.03172 0.0
C1158 C 0.24402 0.61048 0.98361 0.0
C1159 C 0.26458 0.63649 0.00533 0.0
C1160 C 0.28551 0.64852 0.01077 0.0
C1161 C 0.22533 0.61385 0.99604 0.0
C1162 C 0.22683 0.62754 0.01418 0.0
C1163 C 0.246 0.63951 0.01807 0.0
C1164 C 0.20893 0.62815 0.02977 0.0
C1165 C 0.20436 0.60204 0.99021 0.0
C1166 C 0.19483 0.64621 0.03057 0.0
C1167 C 0.17391 0.64375 0.03926 0.0
C1168 C 0.16698 0.62301 0.04644 0.0
C1169 C 0.18262 0.6064 0.04929 0.0
C1170 C 0.20356 0.60895 0.04085 0.0
H1171 H 0.20416 0.59727 0.97317 0.0
H1172 H 0.20295 0.58687 -0.00014 0.0
H1173 H 0.1898 0.61241 0.99351 0.0
H1174 H 0.19898 0.66128 0.02238 0.0
H1175 H 0.16226 0.65697 0.03715 0.0
H1176 H 0.10257 0.58189 0.70979 0.0
H1177 H 0.10238 0.54408 0.72228 0.0
H1178 H 0.17257 0.54107 0.71473 0.0
H1179 H 0.17293 0.57917 0.70265 0.0
H1180 H 0.11795 0.50168 0.7126 0.0
H1181 H 0.1637 0.53943 0.77967 0.0
H1182 H 0.1508 0.55548 0.75909 0.0
H1183 H 0.17681 0.54254 0.75431 0.0
C1184 C 0.11783 0.57284 0.70949 0.0
C1185 C 0.13784 0.58367 0.7056 0.0
C1186 C 0.11772 0.55125 0.71703 0.0
C1187 C 0.13758 0.54017 0.72035 0.0
C1188 C 0.15714 0.54965 0.71295 0.0
H1189 H 0.17691 0.41894 0.77144 0.0
H1190 H 0.17572 0.45812 0.76369 0.0
C1191 C 0.15728 0.57129 0.70562 0.0
C1192 C 0.13818 0.52035 0.73402 0.0
H1193 H 0.15894 0.5008 0.78088 0.0
C1194 C 0.12678 0.50151 0.72757 0.0
C1195 C 0.14941 0.52033 0.75378 0.0
C1196 C 0.1607 0.54058 0.76228 0.0
C1197 C 0.12709 0.48233 0.73992 0.0
C1198 C 0.13881 0.48214 0.75939 0.0
C1199 C 0.14986 0.50109 0.76604 0.0
C1200 C 0.14142 0.46161 0.77168 0.0
C1201 C 0.11549 0.46212 0.73171 0.0
C1202 C 0.12315 0.45125 0.78088 0.0
C1203 C 0.12391 0.42885 0.78566 0.0
C1204 C 0.14284 0.41671 0.78091 0.0
C1205 C 0.16209 0.42795 0.77515 0.0
C1206 C 0.16137 0.45032 0.77051 0.0
H1207 H 0.11 0.46404 0.71497 0.0
H1208 H 0.12641 0.4476 0.73273 0.0
H1209 H 0.10083 0.4588 0.74165 0.0
H1210 H 0.1077 0.45987 0.78223 0.0
H1211 H 0.10882 0.4206 0.79006 0.0
H1212 H 0.16472 0.35362 0.45678 0.0
H1213 H 0.20387 0.34651 0.46204 0.0
H1214 H 0.21608 0.41596 0.46707 0.0
H1215 H 0.17705 0.42316 0.46199 0.0
H1216 H 0.25284 0.38498 0.44875 0.0
H1217 H 0.21652 0.36563 0.5279 0.0
H1218 H 0.20463 0.35294 0.50473 0.0
H1219 H 0.20221 0.38197 0.50843 0.0
C1220 C 0.17592 0.36741 0.45769 0.0
C1221 C 0.16789 0.38891 0.45936 0.0
C1222 C 0.19826 0.36331 0.46091 0.0
C1223 C 0.21263 0.38071 0.46542 0.0
C1224 C 0.20516 0.40234 0.46372 0.0
H1225 H 0.32743 0.40673 0.53846 0.0
H1226 H 0.29023 0.40443 0.52398 0.0
C1227 C 0.18287 0.40643 0.4607 0.0
C1228 C 0.23371 0.37658 0.47625 0.0
H1229 H 0.25496 0.36539 0.52535 0.0
C1230 C 0.25338 0.38033 0.46537 0.0
C1231 C 0.23418 0.37106 0.49811 0.0
C1232 C 0.21332 0.36775 0.51064 0.0
C1233 C 0.27365 0.37867 0.47587 0.0
C1234 C 0.27409 0.37317 0.4977 0.0
C1235 C 0.25444 0.36935 0.50856 0.0
C1236 C 0.29493 0.37258 0.50961 0.0
C1237 C 0.2945 0.38348 0.46384 0.0
C1238 C 0.30935 0.35492 0.50716 0.0
C1239 C 0.33057 0.35609 0.51551 0.0
C1240 C 0.33768 0.37506 0.52627 0.0
C1241 C 0.32252 0.39196 0.53015 0.0
C1242 C 0.30128 0.39071 0.52186 0.0
H1243 H 0.29125 0.38915 0.44737 0.0
H1244 H 0.30419 0.39624 0.47229 0.0
H1245 H 0.3047 0.36844 0.46311 0.0
H1246 H 0.30455 0.34073 0.49788 0.0
H1247 H 0.34176 0.34273 0.51231 0.0
H1248 H 0.3083 0.30771 0.20596 0.0
H1249 H 0.279 0.27991 0.20737 0.0
H1250 H 0.29034 0.27192 0.27464 0.0
H1251 H 0.31896 0.29998 0.27333 0.0
H1252 H 0.27916 0.23725 0.21922 0.0
H1253 H 0.22556 0.28383 0.27379 0.0
H1254 H 0.24898 0.29611 0.26087 0.0
H1255 H 0.25248 0.28003 0.28464 0.0
C1256 C 0.30469 0.29967 0.22089 0.0
C1257 C 0.31581 0.30572 0.23951 0.0
C1258 C 0.28788 0.28403 0.22176 0.0
C1259 C 0.28211 0.27434 0.24125 0.0
C1260 C 0.294 0.27974 0.2596 0.0
H1261 H 0.19482 0.17433 0.28863 0.0
H1262 H 0.22191 0.20374 0.28366 0.0
C1263 C 0.31049 0.29551 0.2588 0.0
C1264 C 0.26407 0.25816 0.24251 0.0
H1265 H 0.21734 0.24561 0.26979 0.0
C1266 C 0.2655 0.23914 0.23009 0.0
C1267 C 0.24625 0.26077 0.25669 0.0
C1268 C 0.24309 0.2814 0.26958 0.0
C1269 C 0.25012 0.22216 0.23213 0.0
C1270 C 0.23264 0.22449 0.24675 0.0
C1271 C 0.23089 0.24377 0.25878 0.0
C1272 C 0.21605 0.20706 0.24985 0.0
C1273 C 0.25326 0.2016 0.21913 0.0
C1274 C 0.20356 0.19953 0.23262 0.0
C1275 C 0.1886 0.18247 0.23532 0.0
C1276 C 0.18538 0.17305 0.25545 0.0
C1277 C 0.19722 0.18116 0.27291 0.0
C1278 C 0.21258 0.19797 0.2701 0.0
H1279 H 0.27046 0.19992 0.21354 0.0
H1280 H 0.24886 0.18673 0.22839 0.0
H1281 H 0.24254 0.20233 0.20489 0.0
H1282 H 0.20536 0.20686 0.21705 0.0
H1283 H 0.17921 0.17696 0.22169 0.0
H1284 H 0.95993 0.08051 0.47207 0.0
H1285 H 0.98808 0.05193 0.4708 0.0
H1286 H 0.94811 0.01107 0.51117 0.0
H1287 H 0.9196 0.0392 0.51174 0.0
H1288 H 0.00873 0.0246 0.50955 0.0
H1289 H 0.95909 0.98029 0.44888 0.0
H1290 H 0.95784 0.00968 0.45249 0.0
H1291 H 0.94422 0.9918 0.47091 0.0
C1292 C 0.95702 0.06528 0.48025 0.0
C1293 C 0.93716 0.06158 0.49097 0.0
C1294 C 0.97324 0.04921 0.4799 0.0
C1295 C 0.9698 0.02941 0.49057 0.0
C1296 C 0.95074 0.02627 0.50261 0.0
H1297 H 0.02709 0.91617 0.53383 0.0
H1298 H 0.00509 0.94804 0.52366 0.0
C1299 C 0.93449 0.04226 0.50283 0.0
C1300 C 0.985 0.01108 0.4878 0.0
H1301 H 0.98688 0.95971 0.46659 0.0
C1302 C 0.00429 0.01057 0.49985 0.0
C1303 C 0.9792 0.99313 0.47476 0.0
C1304 C 0.95905 0.99368 0.46084 0.0
C1305 C 0.01716 0.9916 0.50041 0.0
C1306 C 0.0102 0.97293 0.48889 0.0
C1307 C 0.99189 0.97408 0.47555 0.0
C1308 C 0.0202 0.95148 0.49275 0.0
C1309 C 0.03755 0.9912 0.51403 0.0
C1310 C 0.0347 0.94226 0.47802 0.0
C1311 C 0.04683 0.92375 0.48362 0.0
C1312 C 0.04455 0.91466 0.50399 0.0
C1313 C 0.02879 0.9229 0.51798 0.0
C1314 C 0.01649 0.94113 0.51229 0.0
H1315 H 0.04314 0.00799 0.51829 0.0
H1316 H 0.03406 0.98215 0.52895 0.0
H1317 H 0.05106 0.98256 0.5057 0.0
H1318 H 0.03763 0.95016 0.46287 0.0
H1319 H 0.05934 0.9178 0.47285 0.0
H1320 H 0.3039 0.8148 0.7228 0.0
H1321 H 0.27357 0.78909 0.72057 0.0
H1322 H 0.29158 0.76179 0.78128 0.0
H1323 H 0.32298 0.78721 0.78326 0.0
H1324 H 0.27047 0.73972 0.72585 0.0
H1325 H 0.22769 0.79078 0.78644 0.0
H1326 H 0.25108 0.80095 0.77184 0.0
H1327 H 0.25484 0.78086 0.79231 0.0
C1328 C 0.30167 0.80328 0.73571 0.0
C1329 C 0.31532 0.80377 0.7538 0.0
C1330 C 0.28436 0.78846 0.73426 0.0
C1331 C 0.28017 0.77388 0.75089 0.0
C1332 C 0.29444 0.77326 0.76843 0.0
H1333 H 0.16495 0.69765 0.77583 0.0
H1334 H 0.19635 0.72227 0.77794 0.0
C1335 C 0.31208 0.78801 0.76977 0.0
C1336 C 0.25942 0.76139 0.75058 0.0
H1337 H 0.20728 0.76288 0.77007 0.0
C1338 C 0.25666 0.74455 0.73563 0.0
C1339 C 0.24151 0.76797 0.76324 0.0
C1340 C 0.24371 0.78619 0.77934 0.0
C1341 C 0.23634 0.73392 0.73315 0.0
C1342 C 0.21817 0.74101 0.7454 0.0
C1343 C 0.2211 0.75774 0.76045 0.0
C1344 C 0.19655 0.72988 0.74434 0.0
C1345 C 0.23475 0.71488 0.71788 0.0
C1346 C 0.18516 0.72728 0.72502 0.0
C1347 C 0.16707 0.7131 0.72382 0.0
C1348 C 0.16014 0.70175 0.74199 0.0
C1349 C 0.16998 0.70639 0.76165 0.0
C1350 C 0.18804 0.72031 0.76282 0.0
H1351 H 0.25116 0.70811 0.71398 0.0
H1352 H 0.22448 0.70148 0.72455 0.0
H1353 H 0.22709 0.72051 0.70285 0.0
H1354 H 0.19106 0.73509 0.71068 0.0
H1355 H 0.15996 0.70949 0.70847 0.0
H1356 H 0.44162 0.06238 0.02965 0.0
H1357 H 0.46733 0.03178 0.02973 0.0
H1358 H 0.47071 0.03421 0.96131 0.0
H1359 H 0.44448 0.06497 0.96111 0.0
H1360 H 0.46008 0.98892 0.99325 0.0
H1361 H 0.53621 0.03929 0.00195 0.0
H1362 H 0.51077 0.04835 0.01365 0.0
H1363 H 0.51375 0.0483 0.98535 0.0
C1364 C 0.44816 0.05666 0.01466 0.0
C1365 C 0.44159 0.06611 0.99539 0.0
C1366 C 0.46258 0.03912 0.01473 0.0
C1367 C 0.47075 0.03106 0.99555 0.0
C1368 C 0.46435 0.04043 0.9762 0.0
H1369 H 0.56342 0.93143 0.9687 0.0
H1370 H 0.53617 0.96057 0.968 0.0
C1371 C 0.44958 0.05788 0.9761 0.0
C1372 C 0.48605 0.01275 0.99612 0.0
H1373 H 0.54 0.00088 0.0037 0.0
C1374 C 0.47757 0.9914 0.9954 0.0
C1375 C 0.50866 0.01642 -0.00079 0.0
C1376 C 0.51808 0.0393 0.0001 0.0
C1377 C 0.49145 0.97334 0.9977 0.0
C1378 C 0.51404 0.97704 0.00088 0.0
C1379 C 0.5225 0.99838 0.00153 0.0
C1380 C 0.52949 0.95888 0.00168 0.0
C1381 C 0.48213 0.95044 0.99662 0.0
C1382 C 0.53456 0.94864 0.02098 0.0
C1383 C 0.55018 0.93196 0.02146 0.0
C1384 C 0.56049 0.92545 0.00258 0.0
C1385 C 0.55523 0.93581 0.98334 0.0
C1386 C 0.53985 0.95249 0.98292 0.0
H1387 H 0.46411 0.95039 0.99396 0.0
H1388 H 0.49011 0.94123 0.98353 0.0
H1389 H 0.48576 0.94163 0.01165 0.0
H1390 H 0.52661 0.95367 0.03557 0.0
H1391 H 0.55411 0.92413 0.03643 0.0
H1392 H 0.16243 0.78592 0.2827 0.0
H1393 H 0.19569 0.76324 0.28327 0.0
H1394 H 0.20297 0.77227 0.21571 0.0
H1395 H 0.16928 0.79418 0.21506 0.0
H1396 H 0.21269 0.72416 0.25142 0.0
H1397 H 0.25591 0.80479 0.25387 0.0
H1398 H 0.22771 0.80167 0.26213 0.0
H1399 H 0.23447 0.80103 0.23443 0.0
C1400 C 0.17049 0.78196 0.26786 0.0
C1401 C 0.16324 0.7913 0.24875 0.0
C1402 C 0.18956 0.7693 0.26822 0.0
C1403 C 0.20177 0.7664 0.24957 0.0
C1404 C 0.19363 0.77431 0.23021 0.0
H1405 H 0.3284 0.70985 0.2239 0.0
H1406 H 0.2962 0.73393 0.22248 0.0
C1407 C 0.17431 0.78655 0.2298 0.0
C1408 C 0.22417 0.7575 0.25078 0.0
H1409 H 0.27802 0.77306 0.25328 0.0
C1410 C 0.22699 0.73478 0.25182 0.0
C1411 C 0.24266 0.77156 0.25132 0.0
C1412 C 0.24021 0.79616 0.25049 0.0
C1413 C 0.24802 0.72566 0.25328 0.0
C1414 C 0.26651 0.73972 0.254 0.0
C1415 C 0.26372 0.76245 0.25282 0.0
C1416 C 0.2888 0.73069 0.25593 0.0
C1417 C 0.25045 0.70105 0.25397 0.0
C1418 C 0.29585 0.72217 0.27545 0.0
C1419 C 0.31432 0.70875 0.27631 0.0
C1420 C 0.32586 0.70382 0.25767 0.0
C1421 C 0.32 0.71399 0.23852 0.0
C1422 C 0.30155 0.72751 0.23767 0.0
H1423 H 0.23476 0.69245 0.25046 0.0
H1424 H 0.26301 0.69561 0.24236 0.0
H1425 H 0.25608 0.69604 0.27003 0.0
H1426 H 0.28606 0.72443 0.28964 0.0
H1427 H 0.3183 0.70053 0.29108 0.0
H1428 H 0.478 0.89665 0.49754 0.0
H1429 H 0.50491 0.92699 0.49853 0.0
H1430 H 0.45515 0.97177 0.47648 0.0
H1431 H 0.42841 0.9419 0.47596 0.0
H1432 H 0.51905 0.95977 0.46728 0.0
H1433 H 0.47344 0.99608 0.53519 0.0
H1434 H 0.46892 0.96827 0.52633 0.0
H1435 H 0.45725 0.99083 0.51187 0.0
C1436 C 0.47309 0.91291 0.49254 0.0
C1437 C 0.45125 0.9172 0.48699 0.0
C1438 C 0.48833 0.93016 0.49315 0.0
C1439 C 0.48175 0.95163 0.48808 0.0
C1440 C 0.46036 0.95542 0.48092 0.0
H1441 H 0.54913 0.07629 0.48055 0.0
H1442 H 0.52341 0.04544 0.47663 0.0
C1443 C 0.44519 0.93838 0.48055 0.0
C1444 C 0.49663 0.97041 0.49156 0.0
H1445 H 0.50264 0.01718 0.52092 0.0
C1446 C 0.51558 0.97224 0.47908 0.0
C1447 C 0.49185 0.98672 0.5069 0.0
C1448 C 0.47186 0.98537 0.52098 0.0
C1449 C 0.52983 0.99017 0.48145 0.0
C1450 C 0.52505 0.00633 0.49679 0.0
C1451 C 0.50616 0.00457 0.50926 0.0
C1452 C 0.53965 0.02523 0.50007 0.0
C1453 C 0.54989 0.99193 0.46755 0.0
C1454 C 0.55682 0.02401 0.51488 0.0
C1455 C 0.57129 0.04163 0.51729 0.0
C1456 C 0.56872 0.0604 0.50474 0.0
C1457 C 0.55131 0.06177 0.49024 0.0
C1458 C 0.53671 0.04429 0.48801 0.0
H1459 H 0.55105 0.9782 0.456 0.0
H1460 H 0.54954 0.00765 0.45865 0.0
H1461 H 0.56485 0.99204 0.47763 0.0
H1462 H 0.55918 0.00932 0.52428 0.0
H1463 H 0.58475 0.04042 0.52849 0.0
H1464 H 0.19236 0.33036 0.75745 0.0
H1465 H 0.22302 0.30508 0.76077 0.0
H1466 H 0.17845 0.25023 0.75615 0.0
H1467 H 0.14717 0.27586 0.75321 0.0
H1468 H 0.22804 0.26679 0.79211 0.0
H1469 H 0.22738 0.24802 0.70535 0.0
H1470 H 0.21472 0.27239 0.71602 0.0
H1471 H 0.20188 0.24621 0.71975 0.0
C1472 C 0.18905 0.31289 0.7572 0.0
C1473 C 0.16756 0.30491 0.75474 0.0
C1474 C 0.20654 0.29854 0.75924 0.0
C1475 C 0.2029 0.27594 0.75859 0.0
C1476 C 0.1814 0.26774 0.75665 0.0
H1477 H 0.28949 0.16795 0.76241 0.0
H1478 H 0.26087 0.19473 0.76956 0.0
C1479 C 0.16367 0.28225 0.75496 0.0
C1480 C 0.22204 0.26135 0.75878 0.0
H1481 H 0.25538 0.23211 0.72593 0.0
C1482 C 0.23398 0.25902 0.77773 0.0
C1483 C 0.2299 0.25188 0.73981 0.0
C1484 C 0.21797 0.25474 0.71897 0.0
C1485 C 0.25352 0.24694 0.77821 0.0
C1486 C 0.26117 0.23728 0.75929 0.0
C1487 C 0.2494 0.23983 0.74033 0.0
C1488 C 0.2801 0.22249 0.75909 0.0
C1489 C 0.26593 0.24445 0.7988 0.0
C1490 C 0.30054 0.22954 0.75139 0.0
C1491 C 0.3171 0.21424 0.74736 0.0
C1492 C 0.31302 0.19182 0.75061 0.0
C1493 C 0.29295 0.18513 0.75951 0.0
C1494 C 0.27664 0.20036 0.76374 0.0
H1495 H 0.25887 0.25463 0.81172 0.0
H1496 H 0.26556 0.22699 0.8038 0.0
H1497 H 0.28339 0.24911 0.79647 0.0
H1498 H 0.30329 0.24666 0.74762 0.0
H1499 H 0.33246 0.21974 0.74055 0.0
H1500 H 0.94174 0.94028 0.03516 0.0
H1501 H 0.9708 0.96754 0.0306 0.0
H1502 H 0.99615 0.93106 0.97735 0.0
H1503 H 0.96707 0.90327 0.98219 0.0
H1504 H 0.02653 0.95509 0.017 0.0
H1505 H 0.96794 0.00384 0.968 0.0
H1506 H 0.95804 0.98897 0.99084 0.0
H1507 H 0.96741 0.9742 0.968 0.0
C1508 C 0.95408 0.93763 0.02304 0.0
C1509 C 0.95258 0.91964 0.00923 0.0
C1510 C 0.97046 0.95327 0.02034 0.0
C1511 C 0.98533 0.95127 0.00357 0.0
C1512 C 0.98472 0.93268 0.99041 0.0
H1513 H 0.07059 0.05465 0.95531 0.0
H1514 H 0.04483 0.02371 0.95808 0.0
C1515 C 0.96836 0.91679 0.99329 0.0
C1516 C 0.00029 0.96959 0.99905 0.0
H1517 H 0.00183 0.02042 0.97647 0.0
C1518 C 0.02132 0.96928 0.00793 0.0
C1519 C 0.99313 0.98805 0.98742 0.0
C1520 C 0.97042 0.98897 0.97791 0.0
C1521 C 0.0355 0.98722 0.00562 0.0
C1522 C 0.02824 0.00591 0.99431 0.0
C1523 C 0.00729 0.00603 0.98509 0.0
C1524 C 0.04213 0.02561 0.99232 0.0
C1525 C 0.0581 0.98608 0.01539 0.0
C1526 C 0.04845 0.03719 0.01056 0.0
C1527 C 0.06314 0.05463 0.00899 0.0
C1528 C 0.07139 0.06101 0.9891 0.0
C1529 C 0.06426 0.05009 0.97073 0.0
C1530 C 0.04969 0.03244 0.97233 0.0
H1531 H 0.06306 0.96889 0.01869 0.0
H1532 H 0.07052 0.99373 0.00483 0.0
H1533 H 0.0581 0.99513 0.03068 0.0
H1534 H 0.04232 0.03248 0.02605 0.0
H1535 H 0.06807 0.06311 0.02336 0.0
H1536 H 0.67097 0.70414 0.72542 0.0
H1537 H 0.70211 0.7297 0.72334 0.0
H1538 H 0.73381 0.6957 0.77496 0.0
H1539 H 0.70243 0.67041 0.77747 0.0
H1540 H 0.72704 0.75205 0.769 0.0
H1541 H 0.77035 0.70082 0.70883 0.0
H1542 H 0.74076 0.70225 0.70963 0.0
H1543 H 0.75523 0.68789 0.7301 0.0
C1544 C 0.68453 0.70232 0.73644 0.0
C1545 C 0.68452 0.68541 0.75158 0.0
C1546 C 0.70219 0.71685 0.73523 0.0
C1547 C 0.72015 0.71432 0.74889 0.0
C1548 C 0.71996 0.69779 0.76436 0.0
H1549 H 0.83888 0.78804 0.77135 0.0
H1550 H 0.80981 0.75999 0.77158 0.0
C1551 C 0.7021 0.68349 0.76583 0.0
C1552 C 0.73947 0.72856 0.74658 0.0
H1553 H 0.78848 0.73279 0.72074 0.0
C1554 C 0.74052 0.74789 0.75852 0.0
C1555 C 0.75674 0.72302 0.73266 0.0
C1556 C 0.7559 0.70239 0.71946 0.0
C1557 C 0.75874 0.76185 0.75705 0.0
C1558 C 0.77626 0.75609 0.74347 0.0
C1559 C 0.77504 0.73692 0.73127 0.0
C1560 C 0.79575 0.77021 0.74161 0.0
C1561 C 0.75911 0.78283 0.76976 0.0
C1562 C 0.79773 0.78452 0.72431 0.0
C1563 C 0.81426 0.80037 0.72416 0.0
C1564 C 0.82915 0.80178 0.74112 0.0
C1565 C 0.82782 0.78678 0.75791 0.0
C1566 C 0.81124 0.77094 0.7581 0.0
H1567 H 0.74324 0.78596 0.77787 0.0
H1568 H 0.77222 0.78191 0.78198 0.0
H1569 H 0.76293 0.79694 0.75923 0.0
H1570 H 0.78574 0.78426 0.71159 0.0
H1571 H 0.81456 0.81239 0.7115 0.0
H1572 H 0.68951 0.18614 0.28193 0.0
H1573 H 0.72302 0.20799 0.28017 0.0
H1574 H 0.70194 0.23551 0.22045 0.0
H1575 H 0.66822 0.21377 0.22207 0.0
H1576 H 0.75203 0.20129 0.24397 0.0
H1577 H 0.72721 0.28835 0.25509 0.0
H1578 H 0.71074 0.26567 0.26446 0.0
H1579 H 0.71115 0.27235 0.23671 0.0
C1580 C 0.69166 0.19728 0.26869 0.0
C1581 C 0.67642 0.19794 0.25191 0.0
C1582 C 0.71087 0.20967 0.2677 0.0
C1583 C 0.71495 0.22311 0.2501 0.0
C1584 C 0.69899 0.22521 0.23417 0.0
H1585 H 0.82736 0.30469 0.22381 0.0
H1586 H 0.79692 0.27979 0.21576 0.0
C1587 C 0.67978 0.21274 0.2351 0.0
C1588 C 0.73683 0.23296 0.24734 0.0
H1589 H 0.76417 0.28166 0.24635 0.0
C1590 C 0.75476 0.21887 0.24442 0.0
C1591 C 0.74012 0.25584 0.24771 0.0
C1592 C 0.72137 0.27152 0.2513 0.0
C1593 C 0.7761 0.22712 0.24214 0.0
C1594 C 0.7795 0.24999 0.24305 0.0
C1595 C 0.76145 0.26409 0.24544 0.0
C1596 C 0.80165 0.2598 0.24378 0.0
C1597 C 0.79481 0.21136 0.23884 0.0
C1598 C 0.81524 0.2558 0.26137 0.0
C1599 C 0.83281 0.26983 0.26577 0.0
C1600 C 0.83674 0.28802 0.25274 0.0
C1601 C 0.82476 0.2905 0.23387 0.0
C1602 C 0.80727 0.27644 0.22939 0.0
H1603 H 0.78897 0.19544 0.23233 0.0
H1604 H 0.80728 0.21835 0.2279 0.0
H1605 H 0.80286 0.20809 0.25434 0.0
H1606 H 0.81102 0.24323 0.27282 0.0
H1607 H 0.84188 0.26767 0.28037 0.0
H1608 H 0.80057 0.17495 0.73615 0.0
H1609 H 0.76958 0.19904 0.74115 0.0
H1610 H 0.81279 0.25054 0.76257 0.0
H1611 H 0.84465 0.22595 0.75809 0.0
H1612 H 0.76165 0.22365 0.78527 0.0
H1613 H 0.76713 0.2715 0.70994 0.0
H1614 H 0.7781 0.2441 0.71205 0.0
H1615 H 0.79173 0.26636 0.72517 0.0
C1616 C 0.80381 0.19147 0.74167 0.0
C1617 C 0.82528 0.19854 0.74665 0.0
C1618 C 0.78591 0.20516 0.74462 0.0
C1619 C 0.78893 0.22641 0.75229 0.0
C1620 C 0.81026 0.23403 0.75669 0.0
H1621 H 0.69525 0.32606 0.78151 0.0
H1622 H 0.72566 0.30011 0.78317 0.0
C1623 C 0.8284 0.22008 0.75404 0.0
C1624 C 0.76935 0.24009 0.75591 0.0
H1625 H 0.73678 0.27832 0.73214 0.0
C1626 C 0.7563 0.23581 0.77382 0.0
C1627 C 0.76222 0.25538 0.74059 0.0
C1628 C 0.77538 0.25971 0.72075 0.0
C1629 C 0.73631 0.24676 0.77691 0.0
C1630 C 0.72932 0.26217 0.76168 0.0
C1631 C 0.74229 0.26637 0.74373 0.0
C1632 C 0.70921 0.2752 0.76462 0.0
C1633 C 0.72262 0.24182 0.79625 0.0
C1634 C 0.68956 0.2692 0.75447 0.0
C1635 C 0.67197 0.28393 0.7537 0.0
C1636 C 0.67412 0.30487 0.76276 0.0
C1637 C 0.69315 0.30998 0.77444 0.0
C1638 C 0.71057 0.29526 0.77533 0.0
H1639 H 0.72982 0.22859 0.80615 0.0
H1640 H 0.72106 0.25686 0.80606 0.0
H1641 H 0.70582 0.23688 0.79128 0.0
H1642 H 0.68834 0.25374 0.74608 0.0
H1643 H 0.65761 0.27972 0.74437 0.0
H1644 H 0.82843 0.71897 0.22393 0.0
H1645 H 0.7979 0.74499 0.2249 0.0
H1646 H 0.7736 0.71416 0.28192 0.0
H1647 H 0.80394 0.68846 0.28128 0.0
H1648 H 0.75536 0.72913 0.22131 0.0
H1649 H 0.76379 0.77863 0.29436 0.0
H1650 H 0.78666 0.76431 0.28256 0.0
H1651 H 0.76776 0.75004 0.29968 0.0
C1652 C 0.81691 0.71815 0.23699 0.0
C1653 C 0.81832 0.70143 0.2523 0.0
C1654 C 0.79952 0.73302 0.23751 0.0
C1655 C 0.78358 0.73147 0.25348 0.0
C1656 C 0.78595 0.71587 0.26966 0.0
H1657 H 0.65724 0.76831 0.29193 0.0
H1658 H 0.69077 0.74829 0.28323 0.0
C1659 C 0.80325 0.70106 0.26917 0.0
C1660 C 0.76275 0.74356 0.25175 0.0
H1661 H 0.72686 0.77324 0.28134 0.0
C1662 C 0.74916 0.73914 0.23422 0.0
C1663 C 0.75489 0.75661 0.26857 0.0
C1664 C 0.76916 0.76286 0.28724 0.0
C1665 C 0.72723 0.74607 0.23383 0.0
C1666 C 0.71895 0.75791 0.25136 0.0
C1667 C 0.73306 0.76357 0.26818 0.0
C1668 C 0.69574 0.76466 0.25307 0.0
C1669 C 0.71298 0.73976 0.21518 0.0
C1670 C 0.68658 0.77917 0.23823 0.0
C1671 C 0.66694 0.7899 0.24285 0.0
C1672 C 0.6567 0.78667 0.26257 0.0
C1673 C 0.66474 0.7707 0.2765 0.0
C1674 C 0.684 0.75953 0.27163 0.0
H1675 H 0.72002 0.72581 0.20612 0.0
H1676 H 0.69618 0.73524 0.22042 0.0
H1677 H 0.7117 0.75393 0.2042 0.0
H1678 H 0.69551 0.78373 0.22404 0.0
H1679 H 0.66126 0.8026 0.23215 0.0
H1680 H 0.5585 0.44007 0.0423 0.0
H1681 H 0.53374 0.47176 0.04073 0.0
H1682 H 0.53327 0.46793 0.97228 0.0
H1683 H 0.55795 0.43652 0.97372 0.0
H1684 H 0.54886 0.50873 0.9909 0.0
H1685 H 0.46786 0.48127 0.02226 0.0
H1686 H 0.49209 0.47214 0.03608 0.0
H1687 H 0.48685 0.46272 0.00957 0.0
C1688 C 0.55259 0.44566 0.027 0.0
C1689 C 0.56029 0.43617 0.00814 0.0
C1690 C 0.53849 0.46368 0.02612 0.0
C1691 C 0.53185 0.47209 0.00638 0.0
C1692 C 0.53836 0.46166 0.98763 0.0
H1693 H 0.45978 0.57773 0.95601 0.0
H1694 H 0.48851 0.55068 0.96244 0.0
C1695 C 0.55249 0.44383 0.98849 0.0
C1696 C 0.52056 0.49331 0.00501 0.0
H1697 H 0.47195 0.51886 0.01445 0.0
C1698 C 0.53208 0.51104 0.99615 0.0
C1699 C 0.49871 0.49604 0.0118 0.0
C1700 C 0.48548 0.47707 0.02036 0.0
C1701 C 0.52222 0.5316 0.99386 0.0
C1702 C 0.50037 0.53437 0.00063 0.0
C1703 C 0.48891 0.51668 0.00969 0.0
C1704 C 0.48822 0.55476 0.99661 0.0
C1705 C 0.5351 0.55019 0.98412 0.0
C1706 C 0.47939 0.56666 0.01364 0.0
C1707 C 0.46312 0.58229 0.00993 0.0
C1708 C 0.4556 0.58591 0.98919 0.0
C1709 C 0.46589 0.57552 0.97205 0.0
C1710 C 0.48216 0.56 0.97573 0.0
H1711 H 0.55298 0.5467 0.98382 0.0
H1712 H 0.52951 0.55274 0.96751 0.0
H1713 H 0.53227 0.56565 0.99301 0.0
H1714 H 0.48382 0.56264 0.02985 0.0
H1715 H 0.4549 0.58979 0.02333 0.0
H1716 H 0.03608 0.41373 0.48577 0.0
H1717 H 0.00707 0.44118 0.4897 0.0
H1718 H 0.0539 0.4868 0.51617 0.0
H1719 H 0.08294 0.45955 0.51249 0.0
H1720 H 0.99757 0.46278 0.53217 0.0
H1721 H 0.0195 0.5193 0.46598 0.0
H1722 H 0.02723 0.49071 0.46621 0.0
H1723 H 0.04175 0.51004 0.48252 0.0
C1724 C 0.04018 0.42965 0.49233 0.0
C1725 C 0.06164 0.43456 0.49896 0.0
C1726 C 0.02367 0.44522 0.49452 0.0
C1727 C 0.02862 0.46584 0.50302 0.0
C1728 C 0.05003 0.47091 0.5094 0.0
H1729 H 0.95584 0.58184 0.5341 0.0
H1730 H 0.98365 0.55304 0.53312 0.0
C1731 C 0.06647 0.45532 0.50744 0.0
C1732 C 0.01119 0.48178 0.50651 0.0
H1733 H 0.99252 0.53156 0.4903 0.0
C1734 C 0.9963 0.47778 0.52299 0.0
C1735 C 0.00993 0.5012 0.49444 0.0
C1736 C 0.02533 0.50562 0.47617 0.0
C1737 C 0.98014 0.49311 0.52799 0.0
C1738 C 0.97901 0.51261 0.51607 0.0
C1739 C 0.99381 0.51656 0.49949 0.0
C1740 C 0.96177 0.52869 0.51973 0.0
C1741 C 0.96455 0.48863 0.54607 0.0
C1742 C 0.94041 0.52408 0.5129 0.0
C1743 C 0.92457 0.54037 0.5135 0.0
C1744 C 0.92998 0.56137 0.52096 0.0
C1745 C 0.95116 0.56564 0.52872 0.0
C1746 C 0.96706 0.54934 0.528 0.0
H1747 H 0.96984 0.47443 0.55586 0.0
H1748 H 0.96317 0.5033 0.55645 0.0
H1749 H 0.94799 0.48505 0.53957 0.0
H1750 H 0.93629 0.5082 0.50626 0.0
H1751 H 0.90831 0.53679 0.5074 0.0
H1752 H 0.04012 0.58494 0.01939 0.0
H1753 H 0.0114 0.55736 0.01421 0.0
H1754 H 0.05835 0.51419 0.98483 0.0
H1755 H 0.08727 0.5416 0.99009 0.0
H1756 H 0.99846 0.53225 0.973 0.0
H1757 H 0.0313 0.48311 0.04045 0.0
H1758 H 0.03699 0.51201 0.03739 0.0
H1759 H 0.05079 0.4924 0.02093 0.0
C1760 C 0.0444 0.56951 0.01204 0.0
C1761 C 0.06607 0.56515 0.00571 0.0
C1762 C 0.02792 0.55395 0.00881 0.0
C1763 C 0.03293 0.53382 -0.00069 0.0
C1764 C 0.05433 0.52968 0.99229 0.0
H1765 H 0.96231 0.41184 0.98293 0.0
H1766 H 0.98987 0.44118 0.98332 0.0
C1767 C 0.07079 0.54528 0.9954 0.0
C1768 C 0.01624 0.51642 0.99825 0.0
H1769 H 0.00193 0.46775 0.02101 0.0
C1770 C -0.00087 0.51813 0.98345 0.0
C1771 C 0.01726 0.49821 0.01206 0.0
C1772 C 0.03495 0.49625 0.02875 0.0
C1773 C 0.98306 0.5017 0.9819 0.0
C1774 C 0.98423 0.4834 0.99563 0.0
C1775 C 0.0013 0.48179 0.01044 0.0
C1776 C 0.96762 0.46588 0.99521 0.0
C1777 C 0.96511 0.50381 0.9655 0.0
C1778 C 0.94627 0.47012 0.00222 0.0
C1779 C 0.93062 0.45345 0.00222 0.0
C1780 C 0.93609 0.43226 0.99515 0.0
C1781 C 0.95762 0.42799 0.98842 0.0
C1782 C 0.97332 0.4447 0.98857 0.0
H1783 H 0.96892 0.5166 0.95349 0.0
H1784 H 0.96241 0.48794 0.95722 0.0
H1785 H 0.94956 0.50833 0.97352 0.0
H1786 H 0.94176 0.48633 0.00774 0.0
H1787 H 0.91417 0.45728 0.00752 0.0
H1788 H 0.52694 0.57827 0.45176 0.0
H1789 H 0.50617 0.54485 0.45926 0.0
H1790 H 0.52492 0.54905 0.52524 0.0
H1791 H 0.5456 0.58283 0.51774 0.0
H1792 H 0.53909 0.50992 0.50173 0.0
H1793 H 0.44986 0.5264 0.49224 0.0
H1794 H 0.46763 0.53873 0.47279 0.0
H1795 H 0.46928 0.54738 0.5 0.0
C1796 C 0.52562 0.57268 0.46806 0.0
C1797 C 0.53756 0.58313 0.48424 0.0
C1798 C 0.51389 0.55353 0.47231 0.0
C1799 C 0.51411 0.54448 0.49277 0.0
C1800 C 0.52453 0.55589 0.50936 0.0
H1801 H 0.46267 0.43046 0.547 0.0
H1802 H 0.48614 0.46142 0.53817 0.0
C1803 C 0.53607 0.57529 0.50515 0.0
C1804 C 0.50633 0.52174 0.49588 0.0
H1805 H 0.46079 0.48924 0.49351 0.0
C1806 C 0.52196 0.50538 0.50004 0.0
C1807 C 0.48406 0.51591 0.49331 0.0
C1808 C 0.46664 0.53298 0.48948 0.0
C1809 C 0.51579 0.48327 0.50182 0.0
C1810 C 0.49354 0.4775 0.49933 0.0
C1811 C 0.47795 0.49379 0.49495 0.0
C1812 C 0.48541 0.45534 0.50437 0.0
C1813 C 0.53292 0.46613 0.50645 0.0
C1814 C 0.47827 0.44101 0.48828 0.0
C1815 C 0.46545 0.42264 0.49343 0.0
C1816 C 0.45923 0.41899 0.51461 0.0
C1817 C 0.46777 0.43252 0.53067 0.0
C1818 C 0.481 0.45036 0.52562 0.0
H1819 H 0.54985 0.47282 0.50531 0.0
H1820 H 0.5304 0.45961 0.52274 0.0
H1821 H 0.53117 0.4522 0.4952 0.0
H1822 H 0.48137 0.44484 0.47175 0.0
H1823 H 0.45864 0.41268 0.48076 0.0
H1824 H 0.13183 0.16792 0.33861 0.0
H1825 H 0.12866 0.18997 0.37116 0.0
H1826 H 0.16094 0.24397 0.33971 0.0
H1827 H 0.16296 0.22242 0.30696 0.0
H1828 H 0.15533 0.21481 0.39896 0.0
H1829 H 0.10005 0.26774 0.35149 0.0
H1830 H 0.10973 0.24166 0.34189 0.0
H1831 H 0.12689 0.26567 0.34007 0.0
C1832 C 0.13881 0.18427 0.33895 0.0
C1833 C 0.14756 0.19363 0.32042 0.0
C1834 C 0.13696 0.19685 0.35749 0.0
C1835 C 0.14412 0.21877 0.35767 0.0
C1836 C 0.15487 0.22726 0.33974 0.0
H1837 H 0.12908 0.33416 0.43195 0.0
H1838 H 0.145 0.30351 0.41215 0.0
C1839 C 0.1562 0.21493 0.32113 0.0
C1840 C 0.13803 0.23363 0.37533 0.0
H1841 H 0.11056 0.28119 0.38533 0.0
C1842 C 0.14546 0.22927 0.39607 0.0
C1843 C 0.12474 0.25226 0.37157 0.0
C1844 C 0.11469 0.257 0.35011 0.0
C1845 C 0.14064 0.24364 0.41296 0.0
C1846 C 0.12823 0.26269 0.40884 0.0
C1847 C 0.12038 0.26668 0.38829 0.0
C1848 C 0.12298 0.27916 0.42527 0.0
C1849 C 0.14913 0.23878 0.43494 0.0
C1850 C 0.10581 0.27542 0.4397 0.0
C1851 C 0.09669 0.29296 0.45101 0.0
C1852 C 0.10466 0.31428 0.44782 0.0
C1853 C 0.12279 0.31774 0.43457 0.0
C1854 C 0.13193 0.30028 0.42339 0.0
H1855 H 0.15985 0.22407 0.43525 0.0
H1856 H 0.1585 0.25309 0.44108 0.0
H1857 H 0.13509 0.23599 0.44582 0.0
H1858 H 0.09847 0.25929 0.44106 0.0
H1859 H 0.0826 0.29012 0.46113 0.0
H1860 H 0.06394 0.83029 0.60771 0.0
H1861 H 0.04379 0.84628 0.63736 0.0
H1862 H 0.03586 0.90638 0.60212 0.0
H1863 H 0.05601 0.89037 0.57214 0.0
H1864 H 0.0489 0.88532 0.66245 0.0
H1865 H 0.97249 0.88441 0.6137 0.0
H1866 H 0.9969 0.86991 0.60577 0.0
H1867 H 0.99552 0.89916 0.60295 0.0
C1868 C 0.05826 0.84706 0.60638 0.0
C1869 C 0.06149 0.85903 0.58755 0.0
C1870 C 0.0468 0.85619 0.62337 0.0
C1871 C 0.03814 0.87741 0.62186 0.0
C1872 C 0.04228 0.8899 0.60353 0.0
H1873 H 0.93051 0.92117 0.70067 0.0
H1874 H 0.96449 0.9258 0.68064 0.0
C1875 C 0.05395 0.88079 0.5865 0.0
C1876 C 0.0233 0.88538 0.63882 0.0
H1877 H 0.96915 0.89407 0.64946 0.0
C1878 C 0.0315 0.88761 0.65959 0.0
C1879 C 0.0006 0.88823 0.63505 0.0
C1880 C 0.9907 0.88519 0.61323 0.0
C1881 C 0.01748 0.892 0.6768 0.0
C1882 C 0.99471 0.89397 0.67312 0.0
C1883 C 0.98667 0.89271 0.65223 0.0
C1884 C 0.97843 0.89489 0.69061 0.0
C1885 C 0.02705 0.89409 0.69879 0.0
C1886 C 0.97568 0.87671 0.70408 0.0
C1887 C 0.95629 0.87411 0.71573 0.0
C1888 C 0.93933 0.88953 0.71374 0.0
C1889 C 0.94334 0.90903 0.70246 0.0
C1890 C 0.9627 0.91164 0.69089 0.0
H1891 H 0.04467 0.89876 0.69823 0.0
H1892 H 0.018 0.90647 0.70828 0.0
H1893 H 0.02573 0.87806 0.70703 0.0
H1894 H 0.98745 0.86343 0.70391 0.0
H1895 H 0.95358 0.85881 0.72408 0.0
H1896 H 0.32497 0.80156 0.81629 0.0
H1897 H 0.3133 0.78056 0.84774 0.0
H1898 H 0.38004 0.7801 0.87048 0.0
H1899 H 0.39196 0.79893 0.83882 0.0
H1900 H 0.3347 0.73752 0.85541 0.0
H1901 H 0.34202 0.79288 0.92452 0.0
H1902 H 0.3372 0.80275 0.89781 0.0
H1903 H 0.36454 0.7959 0.90639 0.0
C1904 C 0.3371 0.79695 0.82798 0.0
C1905 C 0.35949 0.80139 0.82463 0.0
C1906 C 0.33036 0.78529 0.84609 0.0
C1907 C 0.34581 0.77904 0.86151 0.0
C1908 C 0.3678 0.78507 0.85895 0.0
H1909 H 0.40295 0.68794 0.93313 0.0
H1910 H 0.38772 0.72084 0.91687 0.0
C1911 C 0.3746 0.79582 0.84065 0.0
C1912 C 0.34052 0.76303 0.87836 0.0
H1913 H 0.35107 0.75428 0.93094 0.0
C1914 C 0.33724 0.74121 0.8721 0.0
C1915 C 0.34418 0.76793 0.90003 0.0
C1916 C 0.34698 0.7912 0.90762 0.0
C1917 C 0.33985 0.72396 0.88659 0.0
C1918 C 0.34541 0.7288 0.90789 0.0
C1919 C 0.34672 0.75068 0.91459 0.0
C1920 C 0.35389 0.71142 0.92193 0.0
C1921 C 0.33887 0.70061 0.87863 0.0
C1922 C 0.33986 0.69578 0.93099 0.0
C1923 C 0.3486 0.67698 0.94051 0.0
C1924 C 0.37136 0.67338 0.94044 0.0
C1925 C 0.38532 0.6899 0.93276 0.0
C1926 C 0.37665 0.70882 0.92368 0.0
H1927 H 0.33507 0.69966 0.86139 0.0
H1928 H 0.35484 0.69237 0.88152 0.0
H1929 H 0.32612 0.69139 0.8875 0.0
H1930 H 0.32223 0.69762 0.92983 0.0
H1931 H 0.3375 0.6649 0.9469 0.0
H1932 H 0.54668 0.1863 0.18547 0.0
H1933 H 0.51422 0.17131 0.16771 0.0
H1934 H 0.53429 0.10587 0.18501 0.0
H1935 H 0.56603 0.12107 0.20398 0.0
H1936 H 0.51462 0.14651 0.13434 0.0
H1937 H 0.47083 0.09987 0.19713 0.0
H1938 H 0.49284 0.1187 0.20322 0.0
H1939 H 0.49877 0.09164 0.19336 0.0
C1940 C 0.54376 0.16877 0.18599 0.0
C1941 C 0.55864 0.15485 0.19628 0.0
C1942 C 0.52528 0.16017 0.17575 0.0
C1943 C 0.52152 0.13741 0.17513 0.0
C1944 C 0.53628 0.12349 0.18577 0.0
H1945 H 0.43976 0.06996 0.08314 0.0
H1946 H 0.4629 0.07599 0.11438 0.0
C1947 C 0.55449 0.13218 0.19655 0.0
C1948 C 0.50334 0.12852 0.1617 0.0
H1949 H 0.45744 0.09591 0.16177 0.0
C1950 C 0.50207 0.13559 0.14049 0.0
C1951 C 0.48712 0.11383 0.16946 0.0
C1952 C 0.4873 0.10569 0.19209 0.0
C1953 C 0.48495 0.12888 0.12705 0.0
C1954 C 0.46843 0.11479 0.13498 0.0
C1955 C 0.46995 0.10702 0.1559 0.0
C1956 C 0.44977 0.10809 0.12124 0.0
C1957 C 0.48464 0.13689 0.10435 0.0
C1958 C 0.43352 0.1234 0.11579 0.0
C1959 C 0.42001 0.11986 0.09807 0.0
C1960 C 0.42289 0.10112 0.08539 0.0
C1961 C 0.43708 0.08451 0.09268 0.0
C1962 C 0.45049 0.08801 0.11043 0.0
H1963 H 0.50029 0.14499 0.09979 0.0
H1964 H 0.48152 0.12304 0.09328 0.0
H1965 H 0.47114 0.1489 0.10232 0.0
H1966 H 0.43271 0.139 0.12398 0.0
H1967 H 0.40945 0.13306 0.09283 0.0
H1968 H 0.11748 0.66785 0.09654 0.0
H1969 H 0.13765 0.69924 0.11124 0.0
H1970 H 0.12306 0.73677 0.05496 0.0
H1971 H 0.1043 0.70486 0.03959 0.0
H1972 H 0.16625 0.74743 0.07747 0.0
H1973 H 0.09213 0.74699 0.12909 0.0
H1974 H 0.10717 0.72174 0.12793 0.0
H1975 H 0.09342 0.73168 0.10459 0.0
C1976 C 0.11922 0.68257 0.08706 0.0
C1977 C 0.10884 0.68416 0.06724 0.0
C1978 C 0.13075 0.70047 0.09542 0.0
C1979 C 0.13143 0.72051 0.08441 0.0
C1980 C 0.12273 0.72151 0.06377 0.0
H1981 H 0.12371 0.84404 0.14699 0.0
H1982 H 0.12785 0.8195 0.11665 0.0
C1983 C 0.11177 0.70332 0.0551 0.0
C1984 C 0.13723 0.74099 0.09598 0.0
H1985 H 0.1191 0.77348 0.13647 0.0
C1986 C 0.15598 0.75319 0.09036 0.0
C1987 C 0.12364 0.74864 0.11261 0.0
C1988 C 0.10287 0.73675 0.11889 0.0
C1989 C 0.16169 0.77257 0.10141 0.0
C1990 C 0.14819 0.77992 0.11818 0.0
C1991 C 0.12938 0.76785 0.12351 0.0
C1992 C 0.15307 0.79968 0.13122 0.0
C1993 C 0.18197 0.78517 0.09523 0.0
C1994 C 0.16721 0.79788 0.14874 0.0
C1995 C 0.16495 0.81215 0.16608 0.0
C1996 C 0.14825 0.82804 0.16628 0.0
C1997 C 0.13692 0.83219 0.14724 0.0
C1998 C 0.13904 0.81787 0.12994 0.0
H1999 H 0.18982 0.77839 0.08074 0.0
H2000 H 0.17776 0.80264 0.09243 0.0
H2001 H 0.19397 0.78467 0.10851 0.0
H2002 H 0.17806 0.78391 0.15016 0.0
H2003 H 0.1739 0.80849 0.1805 0.0
H2004 H 0.47171 0.87997 0.44506 0.0
H2005 H 0.50181 0.88372 0.41957 0.0
H2006 H 0.45766 0.91379 0.37473 0.0
H2007 H 0.42743 0.90971 0.39989 0.0
H2008 H 0.47819 0.86958 0.36472 0.0
H2009 H 0.53854 0.93424 0.38762 0.0
H2010 H 0.52644 0.9168 0.40759 0.0
H2011 H 0.50983 0.93681 0.39442 0.0
C2012 C 0.46859 0.8882 0.43012 0.0
C2013 C 0.44712 0.89426 0.4243 0.0
C2014 C 0.48585 0.89033 0.41557 0.0
C2015 C 0.4819 0.89898 0.39527 0.0
C2016 C 0.461 0.90711 0.39035 0.0
H2017 H 0.53216 0.88342 0.26892 0.0
H2018 H 0.51173 0.89421 0.30075 0.0
C2019 C 0.44374 0.90477 0.40473 0.0
C2020 C 0.49783 0.89563 0.37787 0.0
H2021 H 0.54501 0.91519 0.35555 0.0
C2022 C 0.49281 0.87955 0.3627 0.0
C2023 C 0.51718 0.90818 0.37571 0.0
C2024 C 0.5235 0.92504 0.39213 0.0
C2025 C 0.50627 0.87608 0.34502 0.0
C2026 C 0.52485 0.8897 0.34195 0.0
C2027 C 0.53046 0.90516 0.35765 0.0
C2028 C 0.5385 0.8878 0.32253 0.0
C2029 C 0.50057 0.85757 0.33003 0.0
C2030 C 0.56081 0.88237 0.32406 0.0
C2031 C 0.57267 0.87694 0.3058 0.0
C2032 C 0.56231 0.87674 0.28581 0.0
C2033 C 0.54048 0.88364 0.28415 0.0
C2034 C 0.52877 0.88951 0.30233 0.0
H2035 H 0.4905 0.84479 0.33801 0.0
H2036 H 0.4908 0.86411 0.31657 0.0
H2037 H 0.51555 0.84969 0.32356 0.0
H2038 H 0.56867 0.88101 0.33944 0.0
H2039 H 0.5894 0.87128 0.30754 0.0
H2040 H 0.35186 0.3306 0.56612 0.0
H2041 H 0.33506 0.29964 0.58483 0.0
H2042 H 0.36461 0.25494 0.54031 0.0
H2043 H 0.38149 0.28587 0.52168 0.0
H2044 H 0.31463 0.247 0.56845 0.0
H2045 H 0.39592 0.26137 0.60715 0.0
H2046 H 0.37959 0.28415 0.59813 0.0
H2047 H 0.3924 0.26646 0.57913 0.0
C2048 C 0.35344 0.31429 0.55945 0.0
C2049 C 0.36776 0.31055 0.54237 0.0
C2050 C 0.34398 0.29659 0.57026 0.0
C2051 C 0.34873 0.27503 0.564 0.0
C2052 C 0.36059 0.27148 0.54523 0.0
H2053 H 0.37413 0.16863 0.65075 0.0
H2054 H 0.36964 0.1875 0.61668 0.0
C2055 C 0.37007 0.28917 0.53447 0.0
C2056 C 0.34654 0.25696 0.57954 0.0
H2057 H 0.37448 0.23264 0.62014 0.0
C2058 C 0.32769 0.24372 0.57972 0.0
C2059 C 0.36366 0.25281 0.59417 0.0
C2060 C 0.3841 0.26686 0.59481 0.0
C2061 C 0.32553 0.22637 0.59437 0.0
C2062 C 0.34266 0.22229 0.60905 0.0
C2063 C 0.36153 0.23551 0.60863 0.0
C2064 C 0.34098 0.20584 0.62636 0.0
C2065 C 0.30501 0.21253 0.59404 0.0
C2066 C 0.32562 0.20893 0.64264 0.0
C2067 C 0.32815 0.19814 0.66206 0.0
C2068 C 0.34614 0.18418 0.66554 0.0
C2069 C 0.36001 0.17913 0.64845 0.0
C2070 C 0.35754 0.19004 0.62902 0.0
H2071 H 0.29655 0.21347 0.57842 0.0
H2072 H 0.30879 0.19512 0.59761 0.0
H2073 H 0.29353 0.21862 0.60636 0.0
H2074 H 0.31293 0.22124 0.64114 0.0
H2075 H 0.31725 0.20235 0.67502 0.0
H2076 H 0.92057 0.09569 0.80106 0.0
H2077 H 0.95022 0.07859 0.82118 0.0
H2078 H 0.99357 0.13139 0.80324 0.0
H2079 H 0.96408 0.14794 0.78226 0.0
H2080 H 0.01603 0.09088 0.81382 0.0
H2081 H 0.95513 0.11834 0.87405 0.0
H2082 H 0.94533 0.09784 0.85589 0.0
H2083 H 0.95238 0.1247 0.84626 0.0
C2084 C 0.93681 0.10279 0.80022 0.0
C2085 C 0.94019 0.12298 0.79009 0.0
C2086 C 0.95372 0.09313 0.81188 0.0
C2087 C 0.97388 0.10404 0.81411 0.0
C2088 C 0.97811 0.12273 0.80172 0.0
H2089 H 0.0444 0.14121 0.9197 0.0
H2090 H 0.02559 0.13503 0.88654 0.0
C2091 C 0.96129 0.13215 0.78969 0.0
C2092 C 0.98796 0.09952 0.83276 0.0
H2093 H 0.98861 0.10542 0.88665 0.0
C2094 C 0.01001 0.09363 0.8298 0.0
C2095 C 0.98009 0.10366 0.85355 0.0
C2096 C 0.95703 0.11167 0.85773 0.0
C2097 C 0.02455 0.09231 0.84716 0.0
C2098 C 0.01666 0.09676 0.86779 0.0
C2099 C 0.99445 0.10174 0.87076 0.0
C2100 C 0.03139 0.10007 0.88615 0.0
C2101 C 0.04845 0.08746 0.84335 0.0
C2102 C 0.04152 0.08252 0.89672 0.0
C2103 C 0.05259 0.08616 0.916 0.0
C2104 C 0.05313 0.10726 0.92501 0.0
C2105 C 0.04381 0.12474 0.91374 0.0
C2106 C 0.03318 0.12124 0.89453 0.0
H2107 H 0.05221 0.08535 0.8262 0.0
H2108 H 0.05873 0.10098 0.84978 0.0
H2109 H 0.05307 0.07223 0.85189 0.0
H2110 H 0.04013 0.066 0.89054 0.0
H2111 H 0.0598 0.0724 0.92424 0.0
H2112 H 0.87785 0.65916 0.58198 0.0
H2113 H 0.85426 0.68041 0.60577 0.0
H2114 H 0.8634 0.73744 0.56616 0.0
H2115 H 0.88799 0.71654 0.54317 0.0
H2116 H 0.88614 0.73522 0.60705 0.0
H2117 H 0.79668 0.71779 0.61517 0.0
H2118 H 0.81582 0.69589 0.61011 0.0
H2119 H 0.8102 0.71551 0.58968 0.0
C2120 C 0.8739 0.67596 0.5779 0.0
C2121 C 0.88486 0.68654 0.56122 0.0
C2122 C 0.86028 0.68801 0.59135 0.0
C2123 C 0.85723 0.71048 0.58774 0.0
C2124 C 0.86557 0.72007 0.56912 0.0
H2125 H 0.83831 0.83 0.64967 0.0
H2126 H 0.83282 0.79725 0.62779 0.0
C2127 C 0.87969 0.70824 0.5561 0.0
C2128 C 0.85231 0.72505 0.60576 0.0
H2129 H 0.81175 0.74558 0.63731 0.0
C2130 C 0.86987 0.73744 0.61371 0.0
C2131 C 0.83124 0.72726 0.61474 0.0
C2132 C 0.81228 0.71346 0.6071 0.0
C2133 C 0.86677 0.75299 0.62964 0.0
C2134 C 0.84548 0.75622 0.63786 0.0
C2135 C 0.82798 0.7431 0.63072 0.0
C2136 C 0.84155 0.77446 0.65268 0.0
C2137 C 0.88617 0.76641 0.63712 0.0
C2138 C 0.84744 0.77227 0.67406 0.0
C2139 C 0.85079 0.79091 0.68653 0.0
C2140 C 0.84826 0.81202 0.67777 0.0
C2141 C 0.84042 0.81401 0.65686 0.0
C2142 C 0.83708 0.79533 0.6444 0.0
H2143 H 0.90159 0.76192 0.62881 0.0
H2144 H 0.88298 0.7841 0.63443 0.0
H2145 H 0.88862 0.76398 0.65444 0.0
H2146 H 0.8513 0.75628 0.68057 0.0
H2147 H 0.85699 0.78871 0.70251 0.0
H2148 H 0.92093 0.07989 0.39959 0.0
H2149 H 0.95008 0.07583 0.37302 0.0
H2150 H 0.99734 0.09916 0.41891 0.0
H2151 H 0.96866 0.1031 0.44493 0.0
H2152 H 0.9701 0.11221 0.35997 0.0
H2153 H 0.03443 0.05612 0.38836 0.0
H2154 H 0.00677 0.05521 0.39864 0.0
H2155 H 0.02659 0.07425 0.40938 0.0
C2156 C 0.93783 0.08258 0.40431 0.0
C2157 C 0.94275 0.09086 0.42459 0.0
C2158 C 0.9544 0.08055 0.38908 0.0
C2159 C 0.976 0.08683 0.39405 0.0
C2160 C 0.98107 0.09329 0.41488 0.0
H2161 H 0.0742 0.16712 0.35377 0.0
H2162 H 0.04689 0.14275 0.36988 0.0
C2163 C 0.96462 0.09518 0.43002 0.0
C2164 C 0.99229 0.09107 0.37711 0.0
H2165 H 0.04741 0.08839 0.3682 0.0
C2166 C 0.98683 0.10633 0.36122 0.0
C2167 C 0.01414 0.08352 0.37877 0.0
C2168 C 0.02072 0.06619 0.39461 0.0
C2169 C 0.00307 0.11565 0.34828 0.0
C2170 C 0.02515 0.10952 0.35136 0.0
C2171 C 0.03039 0.09307 0.36602 0.0
C2172 C 0.0431 0.12242 0.34194 0.0
C2173 C 0.99688 0.13318 0.33245 0.0
C2174 C 0.05022 0.11859 0.3211 0.0
C2175 C 0.0661 0.13227 0.312 0.0
C2176 C 0.07459 0.15009 0.32358 0.0
C2177 C 0.06777 0.15351 0.34458 0.0
C2178 C 0.05227 0.13964 0.35375 0.0
H2179 H 0.97887 0.13587 0.33171 0.0
H2180 H 0.005 0.14888 0.33677 0.0
H2181 H 0.00278 0.12849 0.3164 0.0
H2182 H 0.04314 0.10541 0.31179 0.0
H2183 H 0.07098 0.12954 0.29567 0.0
H2184 H 0.65648 0.32222 0.0535 0.0
H2185 H 0.66311 0.28631 0.06961 0.0
H2186 H 0.59611 0.26763 0.05653 0.0
H2187 H 0.58971 0.30337 0.03994 0.0
H2188 H 0.63984 0.27523 0.10507 0.0
H2189 H 0.62864 0.2108 0.04355 0.0
H2190 H 0.63352 0.23922 0.03689 0.0
H2191 H 0.60681 0.23044 0.04546 0.0
C2192 C 0.64352 0.31002 0.05322 0.0
C2193 C 0.62279 0.31524 0.04504 0.0
C2194 C 0.64724 0.2896 0.06252 0.0
C2195 C 0.63018 0.27417 0.06408 0.0
C2196 C 0.6097 0.27899 0.05497 0.0
H2197 H 0.61035 0.1667 0.15065 0.0
H2198 H 0.60876 0.18898 0.11837 0.0
C2199 C 0.60605 0.29938 0.04541 0.0
C2200 C 0.63301 0.25474 0.07798 0.0
H2201 H 0.63154 0.1987 0.07944 0.0
C2202 C 0.63827 0.2585 0.09938 0.0
C2203 C 0.63039 0.23295 0.07066 0.0
C2204 C 0.62468 0.22801 0.04785 0.0
C2205 C 0.64104 0.24114 0.11367 0.0
C2206 C 0.63914 0.21929 0.10624 0.0
C2207 C 0.63344 0.21545 0.08495 0.0
C2208 C 0.64224 0.20055 0.12091 0.0
C2209 C 0.64539 0.24646 0.13676 0.0
C2210 C 0.66216 0.19817 0.13188 0.0
C2211 C 0.66304 0.18561 0.15039 0.0
C2212 C 0.64413 0.17496 0.1579 0.0
C2213 C 0.62522 0.17459 0.1451 0.0
C2214 C 0.62423 0.1875 0.12674 0.0
H2215 H 0.64072 0.26357 0.14073 0.0
H2216 H 0.63624 0.23518 0.14741 0.0
H2217 H 0.66318 0.24461 0.1401 0.0
H2218 H 0.67637 0.2078 0.12737 0.0
H2219 H 0.67778 0.18619 0.16003 0.0
H2220 H 0.4381 0.85831 0.78713 0.0
H2221 H 0.47595 0.86385 0.79945 0.0
H2222 H 0.45286 0.90884 0.84719 0.0
H2223 H 0.41491 0.9026 0.83552 0.0
H2224 H 0.50319 0.91148 0.81619 0.0
H2225 H 0.48006 0.84425 0.87195 0.0
H2226 H 0.4695 0.84533 0.84513 0.0
H2227 H 0.45962 0.86422 0.8647 0.0
C2228 C 0.44119 0.87001 0.79974 0.0
C2229 C 0.42358 0.88005 0.81044 0.0
C2230 C 0.46284 0.87315 0.80674 0.0
C2231 C 0.46719 0.88675 0.82424 0.0
C2232 C 0.44982 0.89834 0.83361 0.0
H2233 H 0.55073 0.92371 0.92099 0.0
H2234 H 0.53009 0.92301 0.88771 0.0
C2235 C 0.42817 0.89482 0.82694 0.0
C2236 C 0.48873 0.88598 0.83527 0.0
H2237 H 0.51281 0.86333 0.87906 0.0
C2238 C 0.5055 0.90074 0.82972 0.0
C2239 C 0.49182 0.87174 0.85274 0.0
C2240 C 0.47441 0.85537 0.85908 0.0
C2241 C 0.52479 0.9024 0.84205 0.0
C2242 C 0.52719 0.88909 0.86028 0.0
C2243 C 0.51097 0.87349 0.86502 0.0
C2244 C 0.54461 0.89289 0.87639 0.0
C2245 C 0.5423 0.91869 0.83598 0.0
C2246 C 0.56047 0.87677 0.88059 0.0
C2247 C 0.57265 0.87735 0.89953 0.0
C2248 C 0.56865 0.89376 0.91472 0.0
C2249 C 0.55432 0.91099 0.90948 0.0
C2250 C 0.54244 0.91058 0.89047 0.0
H2251 H 0.54008 0.92479 0.81949 0.0
H2252 H 0.54167 0.93288 0.84701 0.0
H2253 H 0.55881 0.91116 0.83747 0.0
H2254 H 0.56224 0.86288 0.87001 0.0
H2255 H 0.58332 0.8637 0.90326 0.0
H2256 H 0.86456 0.31212 0.95742 0.0
H2257 H 0.84889 0.28114 0.93728 0.0
H2258 H 0.91391 0.2613 0.91873 0.0
H2259 H 0.92953 0.29247 0.93829 0.0
H2260 H 0.86729 0.27395 0.88642 0.0
H2261 H 0.8707 0.20558 0.94481 0.0
H2262 H 0.86657 0.23372 0.95295 0.0
H2263 H 0.89301 0.22507 0.94385 0.0
C2264 C 0.8755 0.30073 0.94958 0.0
C2265 C 0.89828 0.30448 0.94965 0.0
C2266 C 0.86653 0.28318 0.93793 0.0
C2267 C 0.88025 0.26888 0.92657 0.0
C2268 C 0.90304 0.27208 0.92744 0.0
H2269 H 0.88233 0.15795 0.8457 0.0
H2270 H 0.88255 0.18177 0.87678 0.0
C2271 C 0.91195 0.28981 0.9387 0.0
C2272 C 0.87099 0.25155 0.91246 0.0
H2273 H 0.86167 0.19635 0.90939 0.0
C2274 C 0.8657 0.257 0.89144 0.0
C2275 C 0.86925 0.22949 0.91904 0.0
C2276 C 0.87508 0.22292 0.94141 0.0
C2277 C 0.85958 0.24086 0.87653 0.0
C2278 C 0.85792 0.21855 0.88302 0.0
C2279 C 0.86264 0.21331 0.90433 0.0
C2280 C 0.85384 0.2003 0.86745 0.0
C2281 C 0.85636 0.24787 0.85372 0.0
C2282 C 0.83637 0.20105 0.85282 0.0
C2283 C 0.83639 0.18743 0.83483 0.0
C2284 C 0.85349 0.17238 0.83148 0.0
C2285 C 0.86869 0.16907 0.84797 0.0
C2286 C 0.86906 0.18309 0.86564 0.0
H2287 H 0.86368 0.26425 0.85055 0.0
H2288 H 0.86383 0.23592 0.84257 0.0
H2289 H 0.83855 0.24898 0.85024 0.0
H2290 H 0.82376 0.21343 0.85427 0.0
H2291 H 0.8246 0.1906 0.8223 0.0
H2292 H 0.57491 0.11138 0.58338 0.0
H2293 H 0.55668 0.11453 0.61807 0.0
H2294 H 0.49462 0.09896 0.5887 0.0
H2295 H 0.51262 0.09638 0.55406 0.0
H2296 H 0.50278 0.14401 0.60893 0.0
H2297 H 0.51888 0.07194 0.6611 0.0
H2298 H 0.54017 0.08253 0.64398 0.0
H2299 H 0.5169 0.06895 0.63257 0.0
C2300 C 0.55754 0.10776 0.58455 0.0
C2301 C 0.54505 0.10363 0.56618 0.0
C2302 C 0.54718 0.10955 0.60433 0.0
C2303 C 0.52436 0.10683 0.60589 0.0
C2304 C 0.51227 0.10093 0.58779 0.0
H2305 H 0.41581 0.12906 0.68587 0.0
H2306 H 0.44519 0.11285 0.66446 0.0
C2307 C 0.52252 0.09949 0.56806 0.0
C2308 C 0.51242 0.11439 0.62491 0.0
H2309 H 0.49524 0.09946 0.67449 0.0
C2310 C 0.50136 0.13444 0.6234 0.0
C2311 C 0.51064 0.10173 0.64361 0.0
C2312 C 0.52221 0.08003 0.64562 0.0
C2313 C 0.48802 0.14199 0.6399 0.0
C2314 C 0.48586 0.12923 0.65851 0.0
C2315 C 0.49722 0.10929 0.66027 0.0
C2316 C 0.47006 0.13573 0.67511 0.0
C2317 C 0.47551 0.16312 0.63699 0.0
C2318 C 0.47455 0.15359 0.68856 0.0
C2319 C 0.45774 0.16292 0.70069 0.0
C2320 C 0.43643 0.15437 0.69948 0.0
C2321 C 0.43227 0.13573 0.68706 0.0
C2322 C 0.44901 0.12643 0.67496 0.0
H2323 H 0.47791 0.17031 0.62095 0.0
H2324 H 0.4577 0.16021 0.63946 0.0
H2325 H 0.48101 0.17527 0.64902 0.0
H2326 H 0.49069 0.16106 0.68871 0.0
H2327 H 0.4611 0.17735 0.71019 0.0
H2328 H 0.63857 0.83224 0.34774 0.0
H2329 H 0.65563 0.80809 0.37446 0.0
H2330 H 0.62541 0.75187 0.34481 0.0
H2331 H 0.60795 0.77579 0.31866 0.0
H2332 H 0.62092 0.77624 0.39764 0.0
H2333 H 0.69422 0.73657 0.36195 0.0
H2334 H 0.68545 0.76384 0.35444 0.0
H2335 H 0.67018 0.74039 0.34565 0.0
C2336 C 0.63591 0.8147 0.34682 0.0
C2337 C 0.62163 0.80587 0.33153 0.0
C2338 C 0.64575 0.80095 0.36191 0.0
C2339 C 0.64195 0.77823 0.36137 0.0
C2340 C 0.62875 0.76933 0.3453 0.0
H2341 H 0.63989 0.6618 0.42829 0.0
H2342 H 0.65434 0.68977 0.40461 0.0
C2343 C 0.61858 0.78303 0.33058 0.0
C2344 C 0.64813 0.7642 0.37954 0.0
H2345 H 0.68086 0.72147 0.3943 0.0
C2346 C 0.63435 0.76459 0.39726 0.0
C2347 C 0.66518 0.74863 0.37842 0.0
C2348 C 0.67975 0.74723 0.35915 0.0
C2349 C 0.63639 0.74912 0.41357 0.0
C2350 C 0.65375 0.73359 0.41284 0.0
C2351 C 0.66801 0.73368 0.39526 0.0
C2352 C 0.65494 0.71533 0.42852 0.0
C2353 C 0.61861 0.7485 0.43031 0.0
C2354 C 0.65326 0.71947 0.45046 0.0
C2355 C 0.64414 0.70359 0.46388 0.0
C2356 C 0.63778 0.68322 0.45559 0.0
C2357 C 0.64457 0.67751 0.435 0.0
C2358 C 0.65267 0.69365 0.42133 0.0
H2359 H 0.6039 0.75803 0.4255 0.0
H2360 H 0.61328 0.7314 0.43352 0.0
H2361 H 0.62492 0.75579 0.44527 0.0
H2362 H 0.65604 0.73583 0.4566 0.0
H2363 H 0.63918 0.70833 0.47975 0.0
H2364 H 0.07557 0.89921 0.18385 0.0
H2365 H 0.04381 0.91341 0.16466 0.0
H2366 H 0.00111 0.87333 0.20308 0.0
H2367 H 0.03306 0.85928 0.22257 0.0
H2368 H 0.01998 0.88144 0.14213 0.0
H2369 H 0.9647 0.93018 0.19385 0.0
H2370 H 0.99357 0.92673 0.19954 0.0
H2371 H 0.97462 0.90484 0.20487 0.0
C2372 C 0.05931 0.8944 0.18904 0.0
C2373 C 0.05674 0.87839 0.2049 0.0
C2374 C 0.04116 0.90235 0.17789 0.0
C2375 C 0.02003 0.89444 0.18235 0.0
C2376 C 0.01718 0.87998 0.19956 0.0
H2377 H 0.90286 0.87812 0.10806 0.0
H2378 H 0.92775 0.88496 0.13791 0.0
C2379 C 0.03544 0.87207 0.21085 0.0
C2380 C 0.00204 0.89814 0.1667 0.0
H2381 H 0.95049 0.91925 0.1602 0.0
C2382 C 0.00489 0.88995 0.14603 0.0
C2383 C 0.98224 0.90893 0.17186 0.0
C2384 C 0.97853 0.91835 0.19368 0.0
C2385 C 0.98844 0.8919 0.13053 0.0
C2386 C 0.96865 0.90291 0.13556 0.0
C2387 C 0.96574 0.9111 0.15625 0.0
C2388 C 0.95051 0.90468 0.11973 0.0
C2389 C 0.99213 0.88137 0.10909 0.0
C2390 C 0.95401 0.91504 0.10008 0.0
C2391 C 0.93961 0.91133 0.08308 0.0
C2392 C 0.92139 0.89738 0.0855 0.0
C2393 C 0.9164 0.88945 0.10589 0.0
C2394 C 0.93086 0.89307 0.12289 0.0
H2395 H 0.00564 0.86917 0.10954 0.0
H2396 H 0.97702 0.87303 0.10337 0.0
H2397 H 0.99663 0.89421 0.09739 0.0
H2398 H 0.96891 0.92432 0.09732 0.0
H2399 H 0.94426 0.91707 0.06744 0.0
H2400 H 0.62125 0.67222 0.83629 0.0
H2401 H 0.62098 0.69334 0.86954 0.0
H2402 H 0.66792 0.73868 0.84294 0.0
H2403 H 0.6672 0.71844 0.80938 0.0
H2404 H 0.65322 0.71286 0.90006 0.0
H2405 H 0.60941 0.77285 0.84866 0.0
H2406 H 0.61413 0.74489 0.8406 0.0
H2407 H 0.63596 0.76472 0.83926 0.0
C2408 C 0.6318 0.68645 0.83777 0.0
C2409 C 0.64385 0.69421 0.8203 0.0
C2410 C 0.63179 0.69834 0.85677 0.0
C2411 C 0.64421 0.71768 0.85845 0.0
C2412 C 0.65806 0.72393 0.84176 0.0
H2413 H 0.62433 0.83277 0.93543 0.0
H2414 H 0.64274 0.80479 0.91398 0.0
C2415 C 0.65757 0.71248 0.82264 0.0
C2416 C 0.63959 0.73343 0.87557 0.0
H2417 H 0.61592 0.7832 0.88395 0.0
C2418 C 0.64515 0.72829 0.89663 0.0
C2419 C 0.62892 0.75343 0.87091 0.0
C2420 C 0.62156 0.7593 0.84869 0.0
C2421 C 0.64035 0.7429 0.91325 0.0
C2422 C 0.62961 0.7628 0.90849 0.0
C2423 C 0.62435 0.76796 0.88743 0.0
C2424 C 0.62214 0.77816 0.92497 0.0
C2425 C 0.64676 0.73709 0.93568 0.0
C2426 C 0.60469 0.77227 0.93837 0.0
C2427 C 0.59402 0.78827 0.95039 0.0
C2428 C 0.60089 0.81014 0.94912 0.0
C2429 C 0.61899 0.81584 0.93658 0.0
C2430 C 0.62954 0.79993 0.92451 0.0
H2431 H 0.65962 0.72422 0.93606 0.0
H2432 H 0.65283 0.75177 0.94435 0.0
H2433 H 0.63212 0.73077 0.94421 0.0
H2434 H 0.59846 0.75562 0.93849 0.0
H2435 H 0.5799 0.78374 0.95986 0.0
H2436 H 0.57846 0.37857 0.09587 0.0
H2437 H 0.55764 0.38128 0.12872 0.0
H2438 H 0.50979 0.42188 0.09698 0.0
H2439 H 0.52982 0.41737 0.06341 0.0
H2440 H 0.54251 0.40715 0.15624 0.0
H2441 H 0.47109 0.37288 0.11264 0.0
H2442 H 0.49744 0.37643 0.10026 0.0
H2443 H 0.47891 0.39929 0.10279 0.0
C2444 C 0.56385 0.38868 0.0961 0.0
C2445 C 0.55569 0.39778 0.07721 0.0
C2446 C 0.55187 0.39014 0.11489 0.0
C2447 C 0.53163 0.40107 0.11523 0.0
C2448 C 0.52488 0.41256 0.09693 0.0
H2449 H 0.43251 0.41201 0.21129 0.0
H2450 H 0.46492 0.42048 0.18988 0.0
C2451 C 0.53657 0.41047 0.07786 0.0
C2452 C 0.51695 0.3984 0.13401 0.0
H2453 H 0.46554 0.38176 0.14874 0.0
C2454 C 0.52566 0.40168 0.15453 0.0
C2455 C 0.4951 0.39053 0.13195 0.0
C2456 C 0.48516 0.38433 0.11076 0.0
C2457 C 0.51307 0.39765 0.17284 0.0
C2458 C 0.49112 0.39079 0.17061 0.0
C2459 C 0.48238 0.38737 0.15027 0.0
C2460 C 0.47659 0.38707 0.18906 0.0
C2461 C 0.52323 0.4003 0.19452 0.0
C2462 C 0.47329 0.36574 0.19676 0.0
C2463 C 0.45499 0.36097 0.20937 0.0
C2464 C 0.43967 0.37743 0.21414 0.0
C2465 C 0.44441 0.39918 0.2084 0.0
C2466 C 0.46275 0.40397 0.1959 0.0
H2467 H 0.54076 0.40523 0.19366 0.0
H2468 H 0.51403 0.41283 0.20367 0.0
H2469 H 0.52197 0.38459 0.20336 0.0
H2470 H 0.48363 0.35243 0.19136 0.0
H2471 H 0.45126 0.34395 0.21271 0.0
H2472 H 0.8723 0.16373 0.40407 0.0
H2473 H 0.85483 0.19563 0.38743 0.0
H2474 H 0.84412 0.22407 0.44932 0.0
H2475 H 0.86165 0.19215 0.4659 0.0
H2476 H 0.81218 0.2175 0.39395 0.0
H2477 H 0.88499 0.26785 0.41688 0.0
H2478 H 0.88567 0.23828 0.41677 0.0
H2479 H 0.87145 0.25255 0.4375 0.0
C2480 C 0.86519 0.17632 0.41407 0.0
C2481 C 0.86748 0.17535 0.4362 0.0
C2482 C 0.8555 0.19459 0.40461 0.0
C2483 C 0.8483 0.21215 0.41721 0.0
C2484 C 0.84958 0.21064 0.4394 0.0
H2485 H 0.84353 0.33876 0.35667 0.0
H2486 H 0.82981 0.31374 0.38423 0.0
C2487 C 0.85922 0.19234 0.44884 0.0
C2488 C 0.84118 0.23264 0.40688 0.0
H2489 H 0.85926 0.28392 0.39446 0.0
C2490 C 0.82217 0.23224 0.39435 0.0
C2491 C 0.85427 0.2518 0.4076 0.0
C2492 C 0.87531 0.25279 0.42028 0.0
C2493 C 0.81646 0.25016 0.38155 0.0
C2494 C 0.8303 0.26882 0.38116 0.0
C2495 C 0.84847 0.26975 0.39492 0.0
C2496 C 0.82942 0.28518 0.36378 0.0
C2497 C 0.7962 0.24847 0.3679 0.0
C2498 C 0.83219 0.27778 0.34285 0.0
C2499 C 0.83948 0.29213 0.32719 0.0
C2500 C 0.8444 0.31399 0.33216 0.0
C2501 C 0.83935 0.32206 0.3524 0.0
C2502 C 0.83171 0.30771 0.36815 0.0
H2503 H 0.78322 0.23887 0.37611 0.0
H2504 H 0.7896 0.26487 0.36374 0.0
H2505 H 0.80031 0.2396 0.35303 0.0
H2506 H 0.83133 0.26047 0.33911 0.0
H2507 H 0.84411 0.28545 0.31194 0.0
H2508 H 0.93796 0.58061 0.57518 0.0
H2509 H 0.96075 0.56947 0.60569 0.0
H2510 H 0.99232 0.63279 0.6054 0.0
H2511 H 0.96995 0.64396 0.57523 0.0
H2512 H 0.01261 0.57308 0.61148 0.0
H2513 H 0.96064 0.62242 0.66571 0.0
H2514 H 0.95101 0.61277 0.6402 0.0
H2515 H 0.96886 0.63621 0.64176 0.0
C2516 C 0.94988 0.59205 0.58157 0.0
C2517 C 0.95202 0.61322 0.57291 0.0
C2518 C 0.96293 0.58564 0.59887 0.0
C2519 C 0.97813 0.60036 0.60774 0.0
C2520 C 0.98065 0.62122 0.59875 0.0
H2521 H 0.08489 0.61667 0.68715 0.0
H2522 H 0.06245 0.60004 0.65979 0.0
C2523 C 0.96776 0.62758 0.58154 0.0
C2524 C 0.9904 0.59501 0.62736 0.0
H2525 H 0.99595 0.61271 0.67828 0.0
C2526 C 0.00878 0.58124 0.62633 0.0
C2527 C 0.98519 0.60548 0.64668 0.0
C2528 C 0.96524 0.61992 0.64881 0.0
C2529 C 0.02287 0.57871 0.64392 0.0
C2530 C 0.01859 0.59063 0.66285 0.0
C2531 C -0.00063 0.60331 0.66404 0.0
C2532 C 0.03482 0.59314 0.68047 0.0
C2533 C 0.04231 0.56363 0.64176 0.0
C2534 C 0.02757 0.594 0.70173 0.0
C2535 C 0.04002 0.60491 0.71718 0.0
C2536 C 0.06019 0.61436 0.71173 0.0
C2537 C 0.06905 0.6101 0.69157 0.0
C2538 C 0.05629 0.60008 0.6759 0.0
H2539 H 0.03804 0.54921 0.63178 0.0
H2540 H 0.05581 0.57247 0.63359 0.0
H2541 H 0.04828 0.55775 0.65742 0.0
H2542 H 0.01122 0.58844 0.70583 0.0
H2543 H 0.03289 0.60791 0.73266 0.0
H2544 H 0.58025 0.1675 0.60364 0.0
H2545 H 0.60714 0.19155 0.62092 0.0
H2546 H 0.63932 0.20195 0.56078 0.0
H2547 H 0.61275 0.17729 0.54348 0.0
H2548 H 0.65991 0.19533 0.61824 0.0
H2549 H 0.60744 0.26169 0.58446 0.0
H2550 H 0.59716 0.23413 0.58768 0.0
H2551 H 0.61687 0.23998 0.56735 0.0
C2552 C 0.59342 0.17448 0.59426 0.0
C2553 C 0.59447 0.17078 0.5723 0.0
C2554 C 0.60882 0.18804 0.60413 0.0
C2555 C 0.62515 0.19842 0.59209 0.0
C2556 C 0.62696 0.19383 0.57032 0.0
H2557 H 0.66384 0.32358 0.64275 0.0
H2558 H 0.66945 0.29235 0.61907 0.0
C2559 C 0.6118 0.17984 0.56049 0.0
C2560 C 0.63753 0.21667 0.60177 0.0
H2561 H 0.63319 0.2716 0.61007 0.0
C2562 C 0.65451 0.21212 0.61616 0.0
C2563 C 0.6304 0.23848 0.59893 0.0
C2564 C 0.61194 0.24405 0.58384 0.0
C2565 C 0.66392 0.22888 0.62857 0.0
C2566 C 0.65571 0.25049 0.62678 0.0
C2567 C 0.63964 0.2551 0.61139 0.0
C2568 C 0.66064 0.26793 0.64252 0.0
C2569 C 0.68211 0.22316 0.64381 0.0
C2570 C 0.65542 0.2645 0.664 0.0
C2571 C 0.65254 0.28232 0.67765 0.0
C2572 C 0.65434 0.30385 0.66985 0.0
C2573 C 0.66211 0.30715 0.64909 0.0
C2574 C 0.66533 0.28931 0.63555 0.0
H2575 H 0.69217 0.20944 0.63755 0.0
H2576 H 0.69298 0.23744 0.64694 0.0
H2577 H 0.67487 0.21768 0.65909 0.0
H2578 H 0.65131 0.24826 0.66974 0.0
H2579 H 0.64657 0.2792 0.69358 0.0
H2580 H 0.90619 0.35502 0.90436 0.0
H2581 H 0.92791 0.3533 0.87166 0.0
H2582 H 0.94507 0.4215 0.87888 0.0
H2583 H 0.92377 0.42316 0.9117 0.0
H2584 H 0.93463 0.37775 0.83155 0.0
H2585 H 0.00276 0.38616 0.88958 0.0
H2586 H 0.9749 0.38047 0.89753 0.0
H2587 H 0.98304 0.40795 0.8908 0.0
C2588 C 0.9135 0.36997 0.89829 0.0
C2589 C 0.91333 0.38923 0.91058 0.0
C2590 C 0.92618 0.36888 0.87974 0.0
C2591 C 0.93856 0.38712 0.87319 0.0
C2592 C 0.93591 0.40715 0.88385 0.0
H2593 H 0.05502 0.41006 0.80006 0.0
H2594 H 0.02023 0.41344 0.81903 0.0
C2595 C 0.92344 0.40818 0.90243 0.0
C2596 C 0.95658 0.38456 0.85751 0.0
H2597 H 0.01236 0.38737 0.85321 0.0
C2598 C 0.95164 0.37982 0.83621 0.0
C2599 C 0.9788 0.38681 0.86377 0.0
C2600 C 0.98529 0.3904 0.88669 0.0
C2601 C 0.96832 0.37827 0.82079 0.0
C2602 C 0.99048 0.38134 0.82694 0.0
C2603 C 0.99537 0.38542 0.84839 0.0
C2604 C 0.00907 0.38059 0.81163 0.0
C2605 C 0.96207 0.3739 0.798 0.0
C2606 C 0.01397 0.36136 0.80028 0.0
C2607 C 0.03372 0.35958 0.78899 0.0
C2608 C 0.04903 0.37688 0.78923 0.0
C2609 C 0.0434 0.3966 0.79938 0.0
C2610 C 0.02362 0.39845 0.8104 0.0
H2611 H 0.94448 0.37747 0.79499 0.0
H2612 H 0.97222 0.38386 0.78698 0.0
H2613 H 0.96493 0.35633 0.79436 0.0
H2614 H 0.0033 0.34718 0.80133 0.0
H2615 H 0.03787 0.34399 0.7818 0.0
H2616 H 0.83603 0.82383 0.05632 0.0
H2617 H 0.82679 0.78896 0.07317 0.0
H2618 H 0.87719 0.75686 0.03677 0.0
H2619 H 0.88628 0.79181 0.0196 0.0
H2620 H 0.83277 0.73066 0.05109 0.0
H2621 H 0.88353 0.77261 0.11269 0.0
H2622 H 0.86146 0.78806 0.10106 0.0
H2623 H 0.88451 0.78039 0.08503 0.0
C2624 C 0.84412 0.80908 0.05084 0.0
C2625 C 0.86176 0.81047 0.03654 0.0
C2626 C 0.839 0.78919 0.06067 0.0
C2627 C 0.85151 0.77043 0.05641 0.0
C2628 C 0.86727 0.77115 0.04018 0.0
H2629 H 0.88036 0.66797 0.14818 0.0
H2630 H 0.87967 0.6872 0.11395 0.0
C2631 C 0.87228 0.79108 0.03016 0.0
C2632 C 0.85126 0.75196 0.07172 0.0
H2633 H 0.86786 0.73859 0.12192 0.0
C2634 C 0.84053 0.73228 0.06652 0.0
C2635 C 0.86156 0.75413 0.09178 0.0
C2636 C 0.87356 0.77485 0.09806 0.0
C2637 C 0.83936 0.71489 0.08124 0.0
C2638 C 0.84928 0.7173 0.10139 0.0
C2639 C 0.8604 0.73678 0.10635 0.0
C2640 C 0.84718 0.70061 0.11836 0.0
C2641 C 0.82737 0.69412 0.07544 0.0
C2642 C 0.82875 0.70101 0.13164 0.0
C2643 C 0.82917 0.69017 0.1512 0.0
C2644 C 0.84798 0.67865 0.15769 0.0
C2645 C 0.86548 0.6763 0.14337 0.0
C2646 C 0.86519 0.68746 0.1239 0.0
H2647 H 0.8222 0.69394 0.05851 0.0
H2648 H 0.83801 0.67971 0.07855 0.0
H2649 H 0.81259 0.69242 0.0856 0.0
H2650 H 0.81483 0.71128 0.12776 0.0
H2651 H 0.81564 0.69252 0.16211 0.0
H2652 H 0.55355 0.65685 0.39321 0.0
H2653 H 0.5341 0.6436 0.36184 0.0
H2654 H 0.53462 0.57789 0.38721 0.0
H2655 H 0.55457 0.59119 0.41886 0.0
H2656 H 0.54498 0.60749 0.33164 0.0
H2657 H 0.46797 0.59707 0.37839 0.0
H2658 H 0.49063 0.61334 0.3881 0.0
H2659 H 0.49264 0.58403 0.3878 0.0
C2660 C 0.5499 0.6395 0.3919 0.0
C2661 C 0.55558 0.62498 0.40826 0.0
C2662 C 0.53884 0.63196 0.374 0.0
C2663 C 0.53295 0.60983 0.37228 0.0
C2664 C 0.53914 0.59504 0.38831 0.0
H2665 H 0.42367 0.58453 0.28925 0.0
H2666 H 0.45672 0.573 0.30815 0.0
C2667 C 0.5506 0.60258 0.40622 0.0
C2668 C 0.51892 0.60312 0.35428 0.0
H2669 H 0.46517 0.59561 0.34144 0.0
C2670 C 0.5276 0.60428 0.33369 0.0
C2671 C 0.49629 0.59916 0.35712 0.0
C2672 C 0.48615 0.59839 0.37899 0.0
C2673 C 0.51404 0.60245 0.31572 0.0
C2674 C 0.49115 0.59977 0.31848 0.0
C2675 C 0.48272 0.59742 0.33918 0.0
C2676 C 0.47516 0.6024 0.30078 0.0
C2677 C 0.52443 0.60406 0.29406 0.0
C2678 C 0.47519 0.6218 0.28871 0.0
C2679 C 0.45661 0.6279 0.27713 0.0
C2680 C 0.43748 0.61511 0.27814 0.0
C2681 C 0.43836 0.59447 0.28792 0.0
C2682 C 0.45715 0.58807 0.29905 0.0
H2683 H 0.54116 0.59687 0.29419 0.0
H2684 H 0.51447 0.59562 0.28174 0.0
H2685 H 0.52615 0.62161 0.28967 0.0
H2686 H 0.4885 0.6335 0.2901 0.0
H2687 H 0.45611 0.64417 0.2702 0.0
H2688 H 0.3794 0.15632 0.07236 0.0
H2689 H 0.35994 0.18235 0.09504 0.0
H2690 H 0.38677 0.23609 0.05883 0.0
H2691 H 0.40636 0.20977 0.03583 0.0
H2692 H 0.38816 0.21613 0.11714 0.0
H2693 H 0.31808 0.25006 0.07102 0.0
H2694 H 0.32913 0.22308 0.06583 0.0
H2695 H 0.34422 0.24698 0.05798 0.0
C2696 C 0.3807 0.17369 0.06894 0.0
C2697 C 0.3943 0.18118 0.05248 0.0
C2698 C 0.36956 0.1885 0.08185 0.0
C2699 C 0.37183 0.21109 0.07856 0.0
C2700 C 0.38457 0.21867 0.0614 0.0
H2701 H 0.34469 0.32918 0.14281 0.0
H2702 H 0.34421 0.29864 0.11824 0.0
C2703 C 0.39573 0.20372 0.04832 0.0
C2704 C 0.3635 0.22641 0.09492 0.0
H2705 H 0.32472 0.26527 0.10496 0.0
C2706 C 0.37423 0.22687 0.11461 0.0
C2707 C 0.34535 0.24024 0.09143 0.0
C2708 C 0.33334 0.24015 0.07048 0.0
C2709 C 0.36802 0.24154 0.13068 0.0
C2710 C 0.34974 0.25557 0.12735 0.0
C2711 C 0.33854 0.25448 0.10774 0.0
C2712 C 0.34416 0.27354 0.14259 0.0
C2713 C 0.38209 0.24261 0.15044 0.0
C2714 C 0.34233 0.2699 0.16464 0.0
C2715 C 0.34341 0.28758 0.17894 0.0
C2716 C 0.34543 0.30914 0.17129 0.0
C2717 C 0.34363 0.31275 0.14927 0.0
C2718 C 0.34329 0.29518 0.1351 0.0
H2719 H 0.39828 0.23466 0.14806 0.0
H2720 H 0.38504 0.25984 0.15537 0.0
H2721 H 0.3737 0.23383 0.16356 0.0
H2722 H 0.34174 0.25338 0.17088 0.0
H2723 H 0.34453 0.28421 0.1958 0.0
H2724 H 0.45548 0.63341 0.92613 0.0
H2725 H 0.48674 0.62797 0.90312 0.0
H2726 H 0.46153 0.56453 0.88478 0.0
H2727 H 0.42925 0.57041 0.90783 0.0
H2728 H 0.51921 0.59557 0.90037 0.0
H2729 H 0.46634 0.59835 0.82797 0.0
H2730 H 0.45553 0.60605 0.85357 0.0
H2731 H 0.46146 0.57784 0.84799 0.0
C2732 C 0.45634 0.61841 0.91708 0.0
C2733 C 0.4395 0.60276 0.91807 0.0
C2734 C 0.47448 0.61511 0.90417 0.0
C2735 C 0.47633 0.59602 0.89193 0.0
C2736 C 0.46022 0.57957 0.89383 0.0
H2737 H 0.59216 0.62274 0.81048 0.0
H2738 H 0.56651 0.5982 0.82919 0.0
C2739 C 0.44189 0.58289 0.90698 0.0
C2740 C 0.49432 0.59512 0.87611 0.0
H2741 H 0.50316 0.6088 0.82422 0.0
C2742 C 0.51593 0.59758 0.88354 0.0
C2743 C 0.48993 0.59777 0.85418 0.0
C2744 C 0.4671 0.59492 0.84528 0.0
C2745 C 0.53273 0.60501 0.8701 0.0
C2746 C 0.52781 0.60982 0.84867 0.0
C2747 C 0.50679 0.60515 0.84071 0.0
C2748 C 0.54277 0.62359 0.83577 0.0
C2749 C 0.55508 0.60982 0.87934 0.0
C2750 C 0.53778 0.64586 0.83318 0.0
C2751 C 0.5524 0.65987 0.82287 0.0
C2752 C 0.57228 0.65189 0.81466 0.0
C2753 C 0.57701 0.62939 0.8167 0.0
C2754 C 0.56239 0.61535 0.82732 0.0
H2755 H 0.55615 0.60551 0.89646 0.0
H2756 H 0.56773 0.60041 0.87057 0.0
H2757 H 0.55897 0.62752 0.87749 0.0
H2758 H 0.52273 0.65253 0.83964 0.0
H2759 H 0.54809 0.67702 0.82135 0.0
H2760 H 0.11292 0.71607 0.68998 0.0
H2761 H 0.1205 0.74487 0.66386 0.0
H2762 H 0.16409 0.70113 0.63053 0.0
H2763 H 0.15531 0.67187 0.65586 0.0
H2764 H 0.155 0.76715 0.6474 0.0
H2765 H 0.11953 0.71268 0.58545 0.0
H2766 H 0.1185 0.70594 0.61328 0.0
H2767 H 0.14324 0.70148 0.59829 0.0
C2768 C 0.12442 0.71278 0.67729 0.0
C2769 C 0.1334 0.69176 0.67473 0.0
C2770 C 0.12876 0.72924 0.66237 0.0
C2771 C 0.14237 0.72498 0.64484 0.0
C2772 C 0.15295 0.70458 0.64349 0.0
H2773 H 0.14528 0.79244 0.5229 0.0
H2774 H 0.15807 0.77031 0.55307 0.0
C2775 C 0.14813 0.68795 0.65805 0.0
C2776 C 0.14376 0.74102 0.62708 0.0
H2777 H 0.13244 0.74683 0.57429 0.0
C2778 C 0.15026 0.7627 0.63135 0.0
C2779 C 0.13745 0.73528 0.60612 0.0
C2780 C 0.12909 0.71266 0.6005 0.0
C2781 C 0.15065 0.77876 0.61528 0.0
C2782 C 0.14397 0.77306 0.59437 0.0
C2783 C 0.1379 0.75126 0.59013 0.0
C2784 C 0.14105 0.78942 0.57697 0.0
C2785 C 0.15833 0.80154 0.62101 0.0
C2786 C 0.12823 0.80822 0.58029 0.0
C2787 C 0.12189 0.82131 0.56317 0.0
C2788 C 0.12717 0.8153 0.54231 0.0
C2789 C 0.14095 0.79731 0.5389 0.0
C2790 C 0.1481 0.78464 0.55614 0.0
H2791 H 0.1707 0.80103 0.63398 0.0
H2792 H 0.16559 0.81019 0.60717 0.0
H2793 H 0.14417 0.81117 0.62694 0.0
H2794 H 0.12195 0.81216 0.59589 0.0
H2795 H 0.11182 0.83547 0.56616 0.0
H2796 H 0.91867 0.40818 0.31231 0.0
H2797 H 0.95209 0.42191 0.3293 0.0
H2798 H 0.99064 0.37814 0.29061 0.0
H2799 H 0.95742 0.36549 0.27297 0.0
H2800 H 0.97178 0.39259 0.35286 0.0
H2801 H 0.03455 0.42554 0.29795 0.0
H2802 H 0.00602 0.42316 0.29049 0.0
H2803 H 0.02383 0.39966 0.28924 0.0
C2804 C 0.93444 0.40285 0.3063 0.0
C2805 C 0.93555 0.38592 0.29125 0.0
C2806 C 0.95355 0.41037 0.31629 0.0
C2807 C 0.97399 0.4009 0.3115 0.0
C2808 C 0.97529 0.38608 0.29445 0.0
H2809 H 0.08249 0.37193 0.39733 0.0
H2810 H 0.06 0.37413 0.36494 0.0
C2811 C 0.9562 0.37894 0.28416 0.0
C2812 C 0.9925 0.40279 0.32692 0.0
H2813 H 0.04762 0.41264 0.33184 0.0
C2814 C 0.98826 0.39732 0.34822 0.0
C2815 C 0.01422 0.40832 0.32089 0.0
C2816 C 0.01989 0.41468 0.29842 0.0
C2817 C 0.00495 0.39728 0.36357 0.0
C2818 C 0.02656 0.40307 0.3576 0.0
C2819 C 0.03101 0.40826 0.33633 0.0
C2820 C 0.04426 0.40455 0.37375 0.0
C2821 C -0.00064 0.3909 0.38611 0.0
C2822 C 0.04383 0.42161 0.38865 0.0
C2823 C 0.05682 0.42053 0.4069 0.0
C2824 C 0.07037 0.40228 0.41068 0.0
C2825 C 0.07257 0.38639 0.39465 0.0
C2826 C 0.05951 0.38749 0.37628 0.0
H2827 H 0.98319 0.38252 0.38717 0.0
H2828 H 0.01211 0.37993 0.39284 0.0
H2829 H -0.00127 0.40589 0.3961 0.0
H2830 H 0.03218 0.43489 0.38698 0.0
H2831 H 0.05456 0.43286 0.4191 0.0
H2832 H 0.40188 0.78737 0.46248 0.0
H2833 H 0.39409 0.75322 0.44331 0.0
H2834 H 0.32878 0.77621 0.42935 0.0
H2835 H 0.33681 0.81062 0.4478 0.0
H2836 H 0.36362 0.71938 0.44263 0.0
H2837 H 0.35557 0.77122 0.37065 0.0
H2838 H 0.36531 0.78191 0.39565 0.0
H2839 H 0.33639 0.7781 0.39116 0.0
C2840 C 0.38554 0.7847 0.45615 0.0
C2841 C 0.36991 0.80158 0.45663 0.0
C2842 C 0.38118 0.76528 0.44496 0.0
C2843 C 0.36108 0.76245 0.43431 0.0
C2844 C 0.34461 0.77828 0.43692 0.0
H2845 H 0.32702 0.68015 0.32675 0.0
H2846 H 0.32222 0.70147 0.35939 0.0
C2847 C 0.34907 0.79778 0.44778 0.0
C2848 C 0.35807 0.74414 0.41892 0.0
H2849 H 0.34849 0.73355 0.36644 0.0
C2850 C 0.36015 0.72243 0.42599 0.0
C2851 C 0.35385 0.74814 0.39711 0.0
C2852 C 0.35287 0.77109 0.38811 0.0
C2853 C 0.35768 0.70457 0.41198 0.0
C2854 C 0.35333 0.70853 0.39017 0.0
C2855 C 0.35131 0.73033 0.38317 0.0
C2856 C 0.35265 0.69074 0.37383 0.0
C2857 C 0.35961 0.6817 0.42087 0.0
C2858 C 0.37043 0.6763 0.37164 0.0
C2859 C 0.37253 0.66332 0.35346 0.0
C2860 C 0.35741 0.66512 0.33669 0.0
C2861 C 0.33855 0.67789 0.33968 0.0
C2862 C 0.3361 0.69049 0.35817 0.0
H2863 H 0.35449 0.68118 0.4378 0.0
H2864 H 0.34951 0.66978 0.41177 0.0
H2865 H 0.37703 0.6765 0.42021 0.0
H2866 H 0.38383 0.67654 0.38293 0.0
H2867 H 0.38764 0.65426 0.35123 0.0
H2868 H 0.90952 0.63141 0.17521 0.0
H2869 H 0.93914 0.61241 0.15669 0.0
H2870 H 0.9864 0.6414 0.1994 0.0
H2871 H 0.95641 0.66013 0.2185 0.0
H2872 H 0.97622 0.64892 0.14382 0.0
H2873 H 0.00188 0.56963 0.18005 0.0
H2874 H 0.97347 0.57798 0.18112 0.0
H2875 H 0.99361 0.59272 0.1962 0.0
C2876 C 0.92619 0.63315 0.18102 0.0
C2877 C 0.93094 0.64727 0.19799 0.0
C2878 C 0.94301 0.62216 0.17061 0.0
C2879 C 0.96484 0.62537 0.17685 0.0
C2880 C 0.96955 0.63846 0.19467 0.0
H2881 H 0.07556 0.61048 0.09145 0.0
H2882 H 0.05498 0.60881 0.12499 0.0
C2883 C 0.95255 0.64924 0.2054 0.0
C2884 C 0.98223 0.61947 0.16167 0.0
H2885 H 0.01667 0.57839 0.14612 0.0
C2886 C 0.98535 0.63367 0.14448 0.0
C2887 C 0.99384 0.5995 0.16265 0.0
C2888 C 0.9907 0.58396 0.18098 0.0
C2889 C -0.00063 0.6282 0.1278 0.0
C2890 C 0.01047 0.60787 0.12827 0.0
C2891 C 0.008 0.59389 0.14584 0.0
C2892 C 0.02395 0.60121 0.10995 0.0
C2893 C 0.00172 0.64398 0.10943 0.0
C2894 C 0.01344 0.59639 0.09066 0.0
C2895 C 0.02499 0.59787 0.07162 0.0
C2896 C 0.04727 0.60359 0.07173 0.0
C2897 C 0.05839 0.60586 0.09114 0.0
C2898 C 0.0467 0.60483 0.11024 0.0
H2899 H 0.99553 0.66059 0.11344 0.0
H2900 H 0.01913 0.64539 0.10443 0.0
H2901 H 0.99211 0.63775 0.09569 0.0
H2902 H 0.99587 0.59365 0.09018 0.0
H2903 H 0.01619 0.59603 0.05674 0.0
H2904 H 0.13579 0.28433 0.79636 0.0
H2905 H 0.14076 0.25393 0.82085 0.0
H2906 H 0.17031 0.2977 0.86655 0.0
H2907 H 0.16396 0.32866 0.84255 0.0
H2908 H 0.16904 0.23185 0.84515 0.0
H2909 H 0.11451 0.28239 0.89635 0.0
H2910 H 0.12151 0.29035 0.8697 0.0
H2911 H 0.14073 0.29458 0.89109 0.0
C2912 C 0.14391 0.2875 0.81137 0.0
C2913 C 0.1488 0.30906 0.81783 0.0
C2914 C 0.14679 0.26999 0.82539 0.0
C2915 C 0.15503 0.27369 0.84593 0.0
C2916 C 0.16307 0.29464 0.85111 0.0
H2917 H 0.12041 0.18724 0.95297 0.0
H2918 H 0.14476 0.21107 0.93185 0.0
C2919 C 0.15961 0.3123 0.83732 0.0
C2920 C 0.1516 0.25675 0.8626 0.0
H2921 H 0.12199 0.24696 0.90769 0.0
C2922 C 0.1591 0.23526 0.85904 0.0
C2923 C 0.1383 0.26107 0.88062 0.0
C2924 C 0.12811 0.28326 0.88463 0.0
C2925 C 0.15296 0.21793 0.87255 0.0
C2926 C 0.13925 0.22229 0.89009 0.0
C2927 C 0.13281 0.24385 0.89436 0.0
C2928 C 0.12815 0.20467 0.90206 0.0
C2929 C 0.16037 0.19493 0.86757 0.0
C2930 C 0.11093 0.19322 0.89223 0.0
C2931 C 0.09677 0.18028 0.90427 0.0
C2932 C 0.09988 0.17826 0.92625 0.0
C2933 C 0.1179 0.18855 0.93597 0.0
C2934 C 0.13179 0.20202 0.92396 0.0
H2935 H 0.17497 0.19488 0.85702 0.0
H2936 H 0.1643 0.18586 0.88239 0.0
H2937 H 0.14688 0.18605 0.85937 0.0
H2938 H 0.10763 0.19538 0.87544 0.0
H2939 H 0.08296 0.17237 0.89654 0.0
H2940 H 0.54144 0.36118 0.72345 0.0
H2941 H 0.50851 0.37885 0.70943 0.0
H2942 H 0.54882 0.42324 0.67317 0.0
H2943 H 0.58166 0.40531 0.68677 0.0
H2944 H 0.49287 0.43137 0.68732 0.0
H2945 H 0.52435 0.36006 0.64064 0.0
H2946 H 0.52604 0.36002 0.66919 0.0
H2947 H 0.54333 0.37797 0.65406 0.0
C2948 C 0.54325 0.37576 0.71375 0.0
C2949 C 0.56395 0.38191 0.70608 0.0
C2950 C 0.5244 0.38589 0.70576 0.0
C2951 C 0.52629 0.40213 0.69006 0.0
C2952 C 0.54705 0.41084 0.68538 0.0
H2953 H 0.46924 0.40043 0.56901 0.0
H2954 H 0.48938 0.41408 0.59968 0.0
C2955 C 0.56585 0.40057 0.69317 0.0
C2956 C 0.50916 0.40351 0.67353 0.0
H2957 H 0.4945 0.37889 0.62706 0.0
C2958 C 0.49306 0.41993 0.67414 0.0
C2959 C 0.50962 0.38851 0.6564 0.0
C2960 C 0.52668 0.3706 0.65487 0.0
C2961 C 0.47748 0.42185 0.65765 0.0
C2962 C 0.47823 0.40699 0.64043 0.0
C2963 C 0.49413 0.39042 0.6402 0.0
C2964 C 0.46315 0.40782 0.62201 0.0
C2965 C 0.46065 0.43987 0.65841 0.0
C2966 C 0.44113 0.40129 0.62416 0.0
C2967 C 0.42925 0.39421 0.60632 0.0
C2968 C 0.43951 0.39331 0.58641 0.0
C2969 C 0.46077 0.40175 0.58407 0.0
C2970 C 0.47235 0.40936 0.60165 0.0
H2971 H 0.46458 0.45228 0.67077 0.0
H2972 H 0.45943 0.44814 0.64274 0.0
H2973 H 0.44435 0.43266 0.66205 0.0
H2974 H 0.43388 0.39955 0.63977 0.0
H2975 H 0.41303 0.38727 0.60847 0.0
H2976 H 0.05832 0.16415 0.25294 0.0
H2977 H 0.02383 0.18269 0.24461 0.0
H2978 H 0.05729 0.24514 0.24554 0.0
H2979 H 0.09161 0.22676 0.25475 0.0
H2980 H 0.02231 0.24574 0.26983 0.0
H2981 H 0.9985 0.2102 0.19207 0.0
H2982 H 0.00348 0.18979 0.21201 0.0
H2983 H 0.02566 0.20702 0.20314 0.0
C2984 C 0.05833 0.18182 0.25119 0.0
C2985 C 0.07756 0.19408 0.25473 0.0
C2986 C 0.03866 0.19237 0.24616 0.0
C2987 C 0.03802 0.21528 0.2441 0.0
C2988 C 0.05741 0.22743 0.24698 0.0
H2989 H 0.93925 0.31395 0.23567 0.0
H2990 H 0.96927 0.29033 0.22418 0.0
C2991 C 0.07697 0.21695 0.25234 0.0
C2992 C 0.01685 0.22687 0.24137 0.0
H2993 H 0.9707 0.23048 0.21052 0.0
C2994 C 0.01118 0.24252 0.25673 0.0
C2995 C 0.00225 0.22258 0.22431 0.0
C2996 C 0.00785 0.20663 0.20683 0.0
C2997 C 0.99127 0.2538 0.2557 0.0
C2998 C 0.97658 0.24933 0.23885 0.0
C2999 C 0.98209 0.23376 0.2234 0.0
C3000 C 0.95538 0.26087 0.23776 0.0
C3001 C 0.98596 0.27037 0.27278 0.0
C3002 C 0.937 0.2517 0.24782 0.0
C3003 C 0.91966 0.26516 0.25417 0.0
C3004 C 0.92062 0.28778 0.25037 0.0
C3005 C 0.93781 0.29641 0.23812 0.0
C3006 C 0.95506 0.28297 0.23169 0.0
H3007 H 0.998 0.27005 0.28605 0.0
H3008 H 0.986 0.28708 0.2658 0.0
H3009 H 0.96934 0.26728 0.27935 0.0
H3010 H 0.93715 0.2347 0.25283 0.0
H3011 H 0.90681 0.25835 0.26407 0.0
H3012 H 0.04723 0.83235 0.46361 0.0
H3013 H 0.01951 0.80516 0.45243 0.0
H3014 H 0.00359 0.79299 0.51819 0.0
H3015 H 0.03095 0.81979 0.52919 0.0
H3016 H 0.02372 0.76187 0.46398 0.0
H3017 H 0.94346 0.79211 0.49141 0.0
H3018 H 0.9668 0.81011 0.48802 0.0
H3019 H 0.96346 0.79456 0.51217 0.0
C3020 C 0.0371 0.82443 0.4755 0.0
C3021 C 0.04098 0.82804 0.4972 0.0
C3022 C 0.02143 0.80888 0.46916 0.0
C3023 C 0.0093 0.79727 0.48448 0.0
C3024 C 0.01232 0.80209 0.50607 0.0
H3025 H 0.97909 0.66989 0.51297 0.0
H3026 H 0.99558 0.70374 0.5002 0.0
C3027 C 0.02805 0.81729 0.51237 0.0
C3028 C 0.99609 0.77779 0.47869 0.0
H3029 H 0.94827 0.75227 0.49189 0.0
C3030 C 0.00694 0.75992 0.46941 0.0
C3031 C 0.97419 0.77529 0.48563 0.0
C3032 C 0.96127 0.79417 0.49466 0.0
C3033 C 0.99714 0.73911 0.46866 0.0
C3034 C 0.97607 0.73614 0.47766 0.0
C3035 C 0.96449 0.75445 0.48513 0.0
C3036 C 0.967 0.71412 0.48235 0.0
C3037 C 0.00989 0.72039 0.45909 0.0
C3038 C 0.94531 0.70869 0.47679 0.0
C3039 C 0.93565 0.68943 0.48449 0.0
C3040 C 0.94754 0.67545 0.49794 0.0
C3041 C 0.96948 0.68049 0.50275 0.0
C3042 C 0.97906 0.69968 0.49516 0.0
H3043 H 0.02052 0.72626 0.44593 0.0
H3044 H 0.02077 0.71322 0.4714 0.0
H3045 H -0.00113 0.70732 0.45293 0.0
H3046 H 0.93564 0.71973 0.4671 0.0
H3047 H 0.91868 0.68596 0.48059 0.0
H3048 H 0.43218 0.77615 0.78298 0.0
H3049 H 0.46245 0.75461 0.7687 0.0
H3050 H 0.47388 0.80406 0.72092 0.0
H3051 H 0.44354 0.82601 0.73555 0.0
H3052 H 0.4729 0.73841 0.72561 0.0
H3053 H 0.53088 0.8008 0.75843 0.0
H3054 H 0.50247 0.79976 0.7664 0.0
H3055 H 0.50968 0.80988 0.74057 0.0
C3056 C 0.44097 0.78227 0.76924 0.0
C3057 C 0.4357 0.80265 0.76028 0.0
C3058 C 0.4581 0.76991 0.76102 0.0
C3059 C 0.47035 0.77784 0.74385 0.0
C3060 C 0.46453 0.79776 0.73421 0.0
H3061 H 0.60298 0.72683 0.7291 0.0
H3062 H 0.56975 0.7478 0.72071 0.0
C3063 C 0.44722 0.81016 0.74243 0.0
C3064 C 0.4906 0.7662 0.738 0.0
H3065 H 0.54563 0.76761 0.7471 0.0
C3066 C 0.48893 0.7449 0.7298 0.0
C3067 C 0.51135 0.7748 0.74358 0.0
C3068 C 0.51389 0.79751 0.75284 0.0
C3069 C 0.50751 0.73157 0.72771 0.0
C3070 C 0.52812 0.73964 0.73465 0.0
C3071 C 0.52987 0.76141 0.74176 0.0
C3072 C 0.54766 0.7254 0.7368 0.0
C3073 C 0.50469 0.70892 0.71842 0.0
C3074 C 0.54629 0.70578 0.74843 0.0
C3075 C 0.56509 0.69358 0.75264 0.0
C3076 C 0.58564 0.70128 0.74603 0.0
C3077 C 0.58717 0.72077 0.73438 0.0
C3078 C 0.56826 0.73265 0.72957 0.0
H3079 H 0.49117 0.70864 0.70657 0.0
H3080 H 0.51994 0.70307 0.71066 0.0
H3081 H 0.50018 0.69731 0.73128 0.0
H3082 H 0.53082 0.70026 0.75497 0.0
H3083 H 0.5637 0.67863 0.76184 0.0
H3084 H 0.42533 0.19145 0.99475 0.0
H3085 H 0.44302 0.22597 0.98547 0.0
H3086 H 0.50594 0.19381 0.98443 0.0
H3087 H 0.48827 0.15891 0.99319 0.0
H3088 H 0.47284 0.24122 0.01502 0.0
H3089 H 0.51113 0.23824 0.93523 0.0
H3090 H 0.48917 0.21998 0.9431 0.0
H3091 H 0.51683 0.21484 0.95165 0.0
C3092 C 0.44284 0.19148 0.99182 0.0
C3093 C 0.45544 0.17244 0.99482 0.0
C3094 C 0.4529 0.21125 0.98644 0.0
C3095 C 0.47574 0.21241 0.98408 0.0
C3096 C 0.48823 0.19318 0.98573 0.0
H3097 H 0.57839 0.30464 0.00129 0.0
H3098 H 0.55474 0.27542 0.98742 0.0
C3099 C 0.47814 0.17331 0.99099 0.0
C3100 C 0.48671 0.23403 0.98441 0.0
H3101 H 0.52408 0.26635 0.95889 0.0
C3102 C 0.48374 0.24695 0.00258 0.0
C3103 C 0.50116 0.24116 0.9683 0.0
C3104 C 0.50467 0.22792 0.94837 0.0
C3105 C 0.49557 0.26635 0.00564 0.0
C3106 C 0.51019 0.2736 0.98958 0.0
C3107 C 0.51271 0.26094 0.97106 0.0
C3108 C 0.52442 0.29304 0.99291 0.0
C3109 C 0.49323 0.278 0.02673 0.0
C3110 C 0.51538 0.31315 -0.00069 0.0
C3111 C 0.52877 0.32932 0.00821 0.0
C3112 C 0.55145 0.32603 0.00963 0.0
C3113 C 0.56083 0.30725 0.0006 0.0
C3114 C 0.54735 0.29066 0.99255 0.0
H3115 H 0.48593 0.26721 0.03908 0.0
H3116 H 0.50935 0.28391 0.03266 0.0
H3117 H 0.48218 0.2923 0.02479 0.0
H3118 H 0.49781 0.31571 0.99886 0.0
H3119 H 0.52137 0.344 0.0147 0.0
H3120 H 0.92499 0.68006 0.27513 0.0
H3121 H 0.96139 0.69316 0.28606 0.0
H3122 H 0.95465 0.74797 0.24323 0.0
H3123 H 0.91837 0.73524 0.23311 0.0
H3124 H 0.99652 0.69634 0.26276 0.0
H3125 H 0.97966 0.77944 0.2924 0.0
H3126 H 0.95796 0.75971 0.2882 0.0
H3127 H 0.96775 0.77651 0.26656 0.0
C3128 C 0.93118 0.69502 0.26849 0.0
C3129 C 0.91877 0.70643 0.25337 0.0
C3130 C 0.95197 0.7026 0.2747 0.0
C3131 C 0.96077 0.72182 0.26575 0.0
C3132 C 0.94808 0.73356 0.25101 0.0
H3133 H 0.07736 0.75953 0.21585 0.0
H3134 H 0.04906 0.73625 0.23094 0.0
C3135 C 0.92724 0.72615 0.24514 0.0
C3136 C 0.98392 0.72854 0.26988 0.0
H3137 H 0.01583 0.77409 0.2764 0.0
C3138 C 0.00074 0.71323 0.26632 0.0
C3139 C 0.98968 0.75042 0.27506 0.0
C3140 C 0.97274 0.76734 0.28101 0.0
C3141 C 0.02291 0.71965 0.26589 0.0
C3142 C 0.0284 0.74204 0.26858 0.0
C3143 C 0.01177 0.75692 0.27407 0.0
C3144 C 0.05012 0.75113 0.26219 0.0
C3145 C 0.04013 0.70245 0.26183 0.0
C3146 C 0.0611 0.76669 0.27492 0.0
C3147 C 0.07755 0.78006 0.26618 0.0
C3148 C 0.08289 0.77819 0.24458 0.0
C3149 C 0.07372 0.76103 0.23265 0.0
C3150 C 0.05746 0.74767 0.24133 0.0
H3151 H 0.03533 0.68658 0.26918 0.0
H3152 H 0.04156 0.69966 0.24446 0.0
H3153 H 0.05641 0.70744 0.26815 0.0
H3154 H 0.05572 0.76972 0.29105 0.0
H3155 H 0.08424 0.79335 0.2756 0.0
H3156 H 0.55287 0.67818 0.53572 0.0
H3157 H 0.52908 0.70926 0.54321 0.0
H3158 H 0.48657 0.68901 0.49185 0.0
H3159 H 0.50884 0.65685 0.48635 0.0
H3160 H 0.53055 0.73883 0.51691 0.0
H3161 H 0.4424 0.72128 0.52165 0.0
H3162 H 0.46235 0.69994 0.52602 0.0
H3163 H 0.45279 0.70627 0.4995 0.0
C3164 C 0.53729 0.6792 0.52749 0.0
C3165 C 0.5328 0.66517 0.5103 0.0
C3166 C 0.52394 0.69745 0.53133 0.0
C3167 C 0.50615 0.70211 0.51778 0.0
C3168 C 0.4998 0.68601 0.50294 0.0
H3169 H 0.46266 0.80539 0.44299 0.0
H3170 H 0.4802 0.77431 0.46059 0.0
C3171 C 0.51259 0.66728 0.49984 0.0
C3172 C 0.4978 0.7251 0.51565 0.0
H3173 H 0.45248 0.75463 0.50135 0.0
C3174 C 0.51332 0.74227 0.51426 0.0
C3175 C 0.47536 0.73005 0.51208 0.0
C3176 C 0.45735 0.71336 0.51514 0.0
C3177 C 0.50727 0.76354 0.50799 0.0
C3178 C 0.48525 0.76777 0.5026 0.0
C3179 C 0.46948 0.75119 0.50522 0.0
C3180 C 0.47857 0.78843 0.49204 0.0
C3181 C 0.52455 0.78113 0.50599 0.0
C3182 C 0.47292 0.80714 0.50381 0.0
C3183 C 0.46315 0.82518 0.49368 0.0
C3184 C 0.45867 0.82449 0.47175 0.0
C3185 C 0.46597 0.80641 0.45989 0.0
C3186 C 0.47583 0.78857 0.46994 0.0
H3187 H 0.54085 0.77557 0.51175 0.0
H3188 H 0.52605 0.78616 0.4891 0.0
H3189 H 0.51957 0.79582 0.51521 0.0
H3190 H 0.47491 0.80729 0.52091 0.0
H3191 H 0.45741 0.83875 0.50328 0.0
H3192 H 0.41285 0.24146 0.75589 0.0
H3193 H 0.44925 0.25754 0.75943 0.0
H3194 H 0.47692 0.19309 0.76772 0.0
H3195 H 0.44096 0.17681 0.76156 0.0
H3196 H 0.48346 0.26088 0.78415 0.0
H3197 H 0.50722 0.20943 0.71494 0.0
H3198 H 0.47951 0.21047 0.72462 0.0
H3199 H 0.49976 0.1939 0.73796 0.0
C3200 C 0.42658 0.23064 0.75885 0.0
C3201 C 0.42385 0.2077 0.7583 0.0
C3202 C 0.44749 0.23993 0.76095 0.0
C3203 C 0.46607 0.22652 0.76303 0.0
C3204 C 0.46301 0.20378 0.76527 0.0
H3205 H 0.59881 0.2652 0.72475 0.0
H3206 H 0.57092 0.24691 0.74683 0.0
C3207 C 0.44222 0.19443 0.76234 0.0
C3208 C 0.48841 0.23618 0.76012 0.0
H3209 H 0.53311 0.23428 0.72744 0.0
C3210 C 0.49442 0.25488 0.77191 0.0
C3211 C 0.50282 0.22851 0.74405 0.0
C3212 C 0.49698 0.20963 0.72953 0.0
C3213 C 0.51396 0.26643 0.76763 0.0
C3214 C 0.52792 0.25905 0.75118 0.0
C3215 C 0.52251 0.23977 0.74021 0.0
C3216 C 0.5465 0.27233 0.74284 0.0
C3217 C 0.51924 0.28669 0.78041 0.0
C3218 C 0.5423 0.29295 0.73379 0.0
C3219 C 0.55813 0.30327 0.72123 0.0
C3220 C 0.5784 0.29315 0.71748 0.0
C3221 C 0.58326 0.27327 0.72757 0.0
C3222 C 0.56738 0.26289 0.74017 0.0
H3223 H 0.51172 0.28589 0.79646 0.0
H3224 H 0.53723 0.28904 0.78214 0.0
H3225 H 0.5124 0.30125 0.77218 0.0
H3226 H 0.52622 0.30034 0.73511 0.0
H3227 H 0.55406 0.31856 0.71341 0.0
H3228 H 0.98278 0.34178 0.00758 0.0
H3229 H 0.00377 0.30844 0.01462 0.0
H3230 H 0.94395 0.27055 0.01426 0.0
H3231 H 0.92294 0.30355 0.00632 0.0
H3232 H 0.00421 0.27321 0.04395 0.0
H3233 H 0.97794 0.24725 0.96317 0.0
H3234 H 0.97334 0.27457 0.9731 0.0
H3235 H 0.95563 0.25241 0.98103 0.0
C3236 C 0.97403 0.32643 0.00946 0.0
C3237 C 0.95122 0.32528 0.00613 0.0
C3238 C 0.98605 0.30741 0.01356 0.0
C3239 C 0.97544 0.28702 0.01448 0.0
C3240 C 0.95247 0.28612 0.0132 0.0
H3241 H 0.0187 0.15427 0.99892 0.0
H3242 H 0.99844 0.18713 0.00897 0.0
C3243 C 0.94047 0.30504 0.00881 0.0
C3244 C 0.98848 0.26659 0.01395 0.0
H3245 H -0.0011 0.22209 0.98283 0.0
C3246 C 0.00305 0.26194 0.03066 0.0
C3247 C 0.98717 0.25217 0.99639 0.0
C3248 C 0.97286 0.2569 0.9773 0.0
C3249 C 0.01594 0.24282 0.03051 0.0
C3250 C 0.01432 0.22829 0.01306 0.0
C3251 C -8e-05 0.23314 0.99632 0.0
C3252 C 0.02724 0.20783 0.01139 0.0
C3253 C 0.03088 0.23818 0.04908 0.0
C3254 C 0.05026 0.20838 0.0101 0.0
C3255 C 0.06192 0.18945 0.00463 0.0
C3256 C 0.0506 0.16996 -0.00011 0.0
C3257 C 0.02773 0.16922 0.0022 0.0
C3258 C 0.01618 0.18793 0.00803 0.0
H3259 H 0.02609 0.24773 0.06338 0.0
H3260 H 0.03078 0.22046 0.05312 0.0
H3261 H 0.04791 0.24289 0.04482 0.0
H3262 H 0.0591 0.22365 0.01222 0.0
H3263 H 0.07959 0.19036 0.00296 0.0
H3264 H 0.06918 0.6908 0.75898 0.0
H3265 H 0.03801 0.71314 0.77087 0.0
H3266 H 0.04204 0.75116 0.7133 0.0
H3267 H 0.07277 0.72863 0.70127 0.0
H3268 H 0.02659 0.77452 0.75508 0.0
H3269 H 0.98266 0.69813 0.73076 0.0
H3270 H 0.00483 0.69655 0.74965 0.0
H3271 H 0.01054 0.70327 0.72249 0.0
C3272 C 0.06418 0.70475 0.74948 0.0
C3273 C 0.07351 0.70824 0.72934 0.0
C3274 C 0.04624 0.71735 0.75618 0.0
C3275 C 0.03757 0.73367 0.74286 0.0
C3276 C 0.04851 0.73872 0.72386 0.0
H3277 H 0.93125 0.79353 0.68983 0.0
H3278 H 0.96147 0.77057 0.70239 0.0
C3279 C 0.06619 0.72596 0.71704 0.0
C3280 C 0.01509 0.74245 0.74615 0.0
H3281 H 0.96179 0.73016 0.73385 0.0
C3282 C 0.01231 0.76471 0.75108 0.0
C3283 C 0.99647 0.72959 0.74089 0.0
C3284 C 0.99856 0.70555 0.73558 0.0
C3285 C 0.99154 0.77471 0.74965 0.0
C3286 C 0.97327 0.7622 0.74276 0.0
C3287 C 0.97582 0.73967 0.73915 0.0
C3288 C 0.95271 0.77295 0.73558 0.0
C3289 C 0.9894 0.7989 0.75415 0.0
C3290 C 0.93708 0.78095 0.75001 0.0
C3291 C 0.91936 0.7936 0.74272 0.0
C3292 C 0.91737 0.79882 0.72104 0.0
C3293 C 0.93231 0.78967 0.7066 0.0
C3294 C 0.94966 0.77668 0.71378 0.0
H3295 H 0.00517 0.80637 0.75933 0.0
H3296 H 0.98356 0.80755 0.73969 0.0
H3297 H 0.977 0.80151 0.7668 0.0
H3298 H 0.93911 0.7782 0.7669 0.0
H3299 H 0.9082 0.80065 0.75415 0.0
H3300 H 0.01236 0.33952 0.50196 0.0
H3301 H 0.99518 0.30491 0.51168 0.0
H3302 H 0.05878 0.27415 0.51473 0.0
H3303 H 0.07606 0.30854 0.50391 0.0
H3304 H 0.03208 0.25326 0.48865 0.0
H3305 H 0.98677 0.26785 0.56332 0.0
H3306 H 0.98026 0.28793 0.54353 0.0
H3307 H 0.0078 0.28636 0.55389 0.0
C3308 C 0.02278 0.32554 0.50521 0.0
C3309 C 0.04559 0.32682 0.50219 0.0
C3310 C 0.01291 0.30578 0.51103 0.0
C3311 C 0.0257 0.28699 0.51433 0.0
C3312 C 0.04862 0.28852 0.51248 0.0
H3313 H 0.98136 0.15117 0.50247 0.0
H3314 H 0.00343 0.18219 0.51538 0.0
C3315 C 0.05848 0.30822 0.50638 0.0
C3316 C 0.01495 0.26527 0.51618 0.0
H3317 H 0.97411 0.23742 0.54175 0.0
C3318 C 0.01979 0.24957 0.50059 0.0
C3319 C 0.99866 0.26066 0.53155 0.0
C3320 C 0.99323 0.27655 0.54913 0.0
C3321 C 0.00809 0.22986 0.49925 0.0
C3322 C 0.99146 0.22541 0.51434 0.0
C3323 C 0.98701 0.2408 0.53035 0.0
C3324 C 0.97721 0.20589 0.51225 0.0
C3325 C 0.01274 0.21464 0.48084 0.0
C3326 C 0.95479 0.20869 0.50799 0.0
C3327 C 0.94209 0.19091 0.50136 0.0
C3328 C 0.95176 0.17026 0.49866 0.0
C3329 C 0.97373 0.16707 0.5044 0.0
C3330 C 0.98629 0.18474 0.51162 0.0
H3331 H 0.0225 0.22279 0.46819 0.0
H3332 H 0.02229 0.20036 0.4866 0.0
H3333 H 0.99725 0.20848 0.47367 0.0
H3334 H 0.94747 0.22486 0.50838 0.0
H3335 H 0.92516 0.19365 0.49681 0.0
H3336 H 0.44693 0.32926 0.24822 0.0
H3337 H 0.47644 0.30518 0.26038 0.0
H3338 H 0.43553 0.24878 0.24765 0.0
H3339 H 0.40713 0.27289 0.23297 0.0
H3340 H 0.4855 0.27614 0.28829 0.0
H3341 H 0.48409 0.23276 0.21067 0.0
H3342 H 0.46742 0.25648 0.21557 0.0
H3343 H 0.45895 0.22982 0.22501 0.0
C3344 C 0.44445 0.31168 0.24773 0.0
C3345 C 0.42531 0.30278 0.23874 0.0
C3346 C 0.4612 0.29791 0.25496 0.0
C3347 C 0.45871 0.275 0.25409 0.0
C3348 C 0.43843 0.26629 0.24737 0.0
H3349 H 0.55901 0.17483 0.25496 0.0
H3350 H 0.52486 0.19257 0.26495 0.0
C3351 C 0.42214 0.28003 0.23912 0.0
C3352 C 0.4779 0.26048 0.2584 0.0
H3353 H 0.50938 0.2206 0.23572 0.0
C3354 C 0.49063 0.2639 0.27683 0.0
C3355 C 0.48482 0.2445 0.24346 0.0
C3356 C 0.47325 0.24081 0.2225 0.0
C3357 C 0.51015 0.25213 0.28046 0.0
C3358 C 0.51702 0.23643 0.26536 0.0
C3359 C 0.50393 0.23247 0.24743 0.0
C3360 C 0.53864 0.22527 0.26624 0.0
C3361 C 0.52333 0.25674 0.30026 0.0
C3362 C 0.55808 0.23757 0.26469 0.0
C3363 C 0.57785 0.22737 0.25925 0.0
C3364 C 0.57845 0.20472 0.25503 0.0
C3365 C 0.55931 0.19224 0.25829 0.0
C3366 C 0.53966 0.20239 0.26396 0.0
H3367 H 0.51284 0.26343 0.31313 0.0
H3368 H 0.53163 0.24172 0.30612 0.0
H3369 H 0.5361 0.26917 0.29658 0.0
H3370 H 0.55769 0.25528 0.26595 0.0
H3371 H 0.59228 0.23747 0.2569 0.0
H3372 H 0.57149 0.80076 0.99366 0.0
H3373 H 0.55153 0.76696 0.00068 0.0
H3374 H 0.50357 0.80327 0.03669 0.0
H3375 H 0.52237 0.83762 0.02743 0.0
H3376 H 0.53878 0.74252 0.03106 0.0
H3377 H 0.46287 0.77759 0.99562 0.0
H3378 H 0.48852 0.79221 0.99526 0.0
H3379 H 0.47214 0.79136 0.01908 0.0
C3380 C 0.55678 0.80156 0.00319 0.0
C3381 C 0.54818 0.82189 0.00949 0.0
C3382 C 0.54535 0.78214 0.0073 0.0
C3383 C 0.52542 0.78247 0.01853 0.0
C3384 C 0.51822 0.80257 0.02704 0.0
H3385 H 0.42703 0.67787 0.00807 0.0
H3386 H 0.44829 0.70611 0.02691 0.0
C3387 C 0.52916 0.82218 0.02207 0.0
C3388 C 0.51176 0.76207 0.0197 0.0
H3389 H 0.46198 0.74081 0.00512 0.0
C3390 C 0.52189 0.74226 0.02561 0.0
C3391 C 0.48959 0.76149 0.01272 0.0
C3392 C 0.47767 0.78173 0.00514 0.0
C3393 C 0.51095 0.72199 0.02381 0.0
C3394 C 0.48921 0.72139 0.0159 0.0
C3395 C 0.4786 0.74124 0.01131 0.0
C3396 C 0.47822 0.70063 0.00918 0.0
C3397 C 0.52303 0.70138 0.02994 0.0
C3398 C 0.48817 0.68746 0.99365 0.0
C3399 C 0.47614 0.67121 0.98318 0.0
C3400 C 0.45388 0.66782 0.9879 0.0
C3401 C 0.44432 0.67974 0.00456 0.0
C3402 C 0.45641 0.69605 0.01513 0.0
H3403 H 0.53498 0.70467 0.04291 0.0
H3404 H 0.51159 0.68825 0.03515 0.0
H3405 H 0.53243 0.69536 0.01604 0.0
H3406 H 0.50468 0.69092 0.98829 0.0
H3407 H 0.48375 0.66249 0.97013 0.0
H3408 H 0.90777 0.24202 0.77332 0.0
H3409 H 0.94164 0.26223 0.76692 0.0
H3410 H 0.956 0.21996 0.71385 0.0
H3411 H 0.92146 0.20026 0.71991 0.0
H3412 H 0.98598 0.21667 0.7485 0.0
H3413 H 0.97413 0.30358 0.72589 0.0
H3414 H 0.95617 0.2947 0.74681 0.0
H3415 H 0.95368 0.28268 0.72081 0.0
C3416 C 0.91722 0.23816 0.75924 0.0
C3417 C 0.91212 0.21936 0.74729 0.0
C3418 C 0.9369 0.24951 0.75579 0.0
C3419 C 0.95165 0.24241 0.74013 0.0
C3420 C 0.945 0.22567 0.72616 0.0
H3421 H 0.08657 0.29632 0.74405 0.0
H3422 H 0.05437 0.27725 0.72926 0.0
C3423 C 0.9251 0.21456 0.72946 0.0
C3424 C 0.97508 0.24944 0.74127 0.0
H3425 H 0.00794 0.29486 0.74392 0.0
C3426 C 0.99089 0.2337 0.74698 0.0
C3427 C 0.98154 0.27164 0.73941 0.0
C3428 C 0.96553 0.28912 0.73271 0.0
C3429 C 0.01256 0.23979 0.75207 0.0
C3430 C 0.01864 0.26212 0.75135 0.0
C3431 C 0.00324 0.2777 0.74448 0.0
C3432 C 0.04001 0.26999 0.75988 0.0
C3433 C 0.02865 0.22246 0.75899 0.0
C3434 C 0.04299 0.27154 0.78194 0.0
C3435 C 0.0611 0.28274 0.79033 0.0
C3436 C 0.07677 0.2923 0.77681 0.0
C3437 C 0.07483 0.28898 0.75479 0.0
C3438 C 0.05637 0.27823 0.74634 0.0
H3439 H 0.02285 0.20569 0.75493 0.0
H3440 H 0.04489 0.22529 0.75148 0.0
H3441 H 0.0309 0.22344 0.77647 0.0
H3442 H 0.03055 0.26533 0.79267 0.0
H3443 H 0.06208 0.28519 0.80735 0.0
H3444 H 0.49217 0.34918 0.50375 0.0
H3445 H 0.51537 0.31863 0.49293 0.0
H3446 H 0.46066 0.28939 0.45992 0.0
H3447 H 0.43746 0.32004 0.47072 0.0
H3448 H 0.49064 0.27918 0.51171 0.0
H3449 H 0.52132 0.26752 0.42917 0.0
H3450 H 0.5183 0.29449 0.44078 0.0
H3451 H 0.49444 0.27915 0.43326 0.0
C3452 C 0.48557 0.3372 0.49273 0.0
C3453 C 0.46303 0.3368 0.48827 0.0
C3454 C 0.49879 0.31954 0.48676 0.0
C3455 C 0.48963 0.30158 0.47594 0.0
C3456 C 0.46809 0.30311 0.4682 0.0
H3457 H 0.51339 0.1651 0.50818 0.0
H3458 H 0.49675 0.2002 0.49858 0.0
C3459 C 0.45487 0.32081 0.47421 0.0
C3460 C 0.49973 0.27969 0.47868 0.0
H3461 H 0.52666 0.23821 0.45337 0.0
C3462 C 0.4986 0.27024 0.49898 0.0
C3463 C 0.50984 0.26808 0.46199 0.0
C3464 C 0.51121 0.27771 0.44001 0.0
C3465 C 0.50752 0.24954 0.50315 0.0
C3466 C 0.51765 0.23778 0.48647 0.0
C3467 C 0.51883 0.24723 0.46611 0.0
C3468 C 0.52746 0.21586 0.49022 0.0
C3469 C 0.5063 0.24062 0.5255 0.0
C3470 C 0.55015 0.21277 0.48803 0.0
C3471 C 0.55969 0.19265 0.49334 0.0
C3472 C 0.54669 0.17531 0.50105 0.0
C3473 C 0.52389 0.17826 0.50264 0.0
C3474 C 0.51435 0.1983 0.49713 0.0
H3475 H 0.5028 0.25371 0.5373 0.0
H3476 H 0.49288 0.22834 0.52645 0.0
H3477 H 0.52187 0.23241 0.53002 0.0
H3478 H 0.56055 0.2261 0.48271 0.0
H3479 H 0.57729 0.19082 0.49179 0.0
H3480 H 0.41152 0.69637 0.2199 0.0
H3481 H 0.44335 0.71743 0.20816 0.0
H3482 H 0.44171 0.75443 0.26652 0.0
H3483 H 0.40956 0.73358 0.27797 0.0
H3484 H 0.46047 0.77765 0.23209 0.0
H3485 H 0.49607 0.69495 0.24423 0.0
H3486 H 0.47478 0.69585 0.22446 0.0
H3487 H 0.46841 0.70189 0.25171 0.0
C3488 C 0.41687 0.71013 0.22941 0.0
C3489 C 0.40812 0.71343 0.24976 0.0
C3490 C 0.43539 0.72184 0.22293 0.0
C3491 C 0.44527 0.7369 0.23683 0.0
C3492 C 0.43444 0.74269 0.25566 0.0
H3493 H 0.57602 0.76658 0.26878 0.0
H3494 H 0.54321 0.74561 0.26018 0.0
C3495 C 0.41584 0.73101 0.26206 0.0
C3496 C 0.46843 0.74343 0.2338 0.0
H3497 H 0.52048 0.72275 0.23329 0.0
C3498 C 0.47362 0.7657 0.23201 0.0
C3499 C 0.48554 0.72775 0.23476 0.0
C3500 C 0.48104 0.7038 0.23913 0.0
C3501 C 0.49551 0.7728 0.23103 0.0
C3502 C 0.51265 0.75703 0.23074 0.0
C3503 C 0.50737 0.73473 0.23267 0.0
C3504 C 0.53608 0.7637 0.23136 0.0
C3505 C 0.49997 0.79718 0.23167 0.0
C3506 C 0.54443 0.77899 0.21674 0.0
C3507 C 0.56301 0.79136 0.22197 0.0
C3508 C 0.57368 0.78785 0.24142 0.0
C3509 C 0.56804 0.76946 0.25363 0.0
C3510 C 0.54904 0.75765 0.24885 0.0
H3511 H 0.48549 0.80656 0.23728 0.0
H3512 H 0.514 0.80102 0.24232 0.0
H3513 H 0.50399 0.80304 0.21545 0.0
H3514 H 0.53519 0.78319 0.20262 0.0
H3515 H 0.56713 0.80549 0.21231 0.0
H3516 H 0.98371 0.84846 0.01895 0.0
H3517 H 0.01022 0.82005 0.0088 0.0
H3518 H 0.96138 0.78955 0.96898 0.0
H3519 H 0.93476 0.81658 0.98026 0.0
H3520 H 0.97863 0.77161 0.01527 0.0
H3521 H 0.03714 0.78396 0.94829 0.0
H3522 H 0.02969 0.80661 0.96537 0.0
H3523 H 0.00978 0.79533 0.94748 0.0
C3524 C 0.97917 0.83655 0.00694 0.0
C3525 C 0.9574 0.83508 -0.00017 0.0
C3526 C 0.99427 0.82031 0.00118 0.0
C3527 C 0.98772 0.8029 0.98798 0.0
C3528 C 0.96684 0.80313 0.97877 0.0
H3529 H 0.02737 0.66521 0.98454 0.0
H3530 H 0.01044 0.7005 0.97474 0.0
C3531 C 0.95167 0.81887 0.98497 0.0
C3532 C -0.00082 0.78173 0.98923 0.0
H3533 H 0.03911 0.75018 0.96689 0.0
C3534 C 0.99185 0.76689 0.00469 0.0
C3535 C 0.01607 0.77569 0.97515 0.0
C3536 C 0.02376 0.79112 0.95804 0.0
C3537 C 0.00128 0.74614 0.0067 0.0
C3538 C 0.01859 0.74025 0.99302 0.0
C3539 C 0.02576 0.7549 0.97729 0.0
C3540 C 0.03045 0.71959 0.99637 0.0
C3541 C 0.99298 0.73068 0.02364 0.0
C3542 C 0.04716 0.71893 0.01163 0.0
C3543 C 0.05669 0.69902 0.01715 0.0
C3544 C 0.04963 0.67957 0.0075 0.0
C3545 C 0.03308 0.68018 0.992 0.0
C3546 C 0.02358 0.7002 0.98634 0.0
H3547 H 0.9781 0.73705 0.03173 0.0
H3548 H 0.98905 0.71447 0.01654 0.0
H3549 H 0.006 0.72812 0.03573 0.0
H3550 H 0.05223 0.73373 0.01983 0.0
H3551 H 0.06885 0.69868 0.02963 0.0
H3552 H 0.07354 0.14459 0.03674 0.0
H3553 H 0.06538 0.15401 0.07327 0.0
H3554 H 0.13438 0.16418 0.08549 0.0
H3555 H 0.14278 0.15366 0.04888 0.0
H3556 H 0.11888 0.13193 0.10759 0.0
H3557 H 0.06145 0.20124 0.11698 0.0
H3558 H 0.05177 0.18199 0.09756 0.0
H3559 H 0.07689 0.19682 0.09288 0.0
C3560 C 0.08694 0.14964 0.04694 0.0
C3561 C 0.10885 0.14802 0.04018 0.0
C3562 C 0.08219 0.15528 0.06784 0.0
C3563 C 0.09925 0.15982 0.08211 0.0
C3564 C 0.12098 0.16067 0.07467 0.0
H3565 H 0.10104 0.17146 0.21542 0.0
H3566 H 0.09167 0.17942 0.17873 0.0
C3567 C 0.1258 0.15452 0.05387 0.0
C3568 C 0.09512 0.15794 0.10511 0.0
H3569 H 0.06231 0.17491 0.14579 0.0
C3570 C 0.10673 0.1416 0.11597 0.0
C3571 C 0.07903 0.17031 0.11592 0.0
C3572 C 0.06674 0.18871 0.10525 0.0
C3573 C 0.10293 0.13732 0.13737 0.0
C3574 C 0.0862 0.14901 0.14806 0.0
C3575 C 0.07461 0.16553 0.13732 0.0
C3576 C 0.0829 0.14594 0.17103 0.0
C3577 C 0.11747 0.12077 0.14839 0.0
C3578 C 0.07912 0.12487 0.17928 0.0
C3579 C 0.08527 0.12006 0.20011 0.0
C3580 C 0.09422 0.13657 0.21299 0.0
C3581 C 0.09437 0.15836 0.20574 0.0
C3582 C 0.08888 0.163 0.18476 0.0
H3583 H 0.13253 0.11719 0.13909 0.0
H3584 H 0.12256 0.12671 0.16433 0.0
H3585 H 0.10836 0.10513 0.15036 0.0
H3586 H 0.07387 0.11164 0.16894 0.0
H3587 H 0.08457 0.10323 0.20558 0.0
H3588 H 0.10141 0.8322 0.46658 0.0
H3589 H 0.0928 0.82374 0.42927 0.0
H3590 H 0.12023 0.88592 0.41026 0.0
H3591 H 0.1284 0.8946 0.44738 0.0
H3592 H 0.06403 0.85401 0.40376 0.0
H3593 H 0.14546 0.83912 0.36743 0.0
H3594 H 0.14022 0.83534 0.39546 0.0
H3595 H 0.14472 0.86238 0.38497 0.0
C3596 C 0.10637 0.84365 0.45432 0.0
C3597 C 0.11583 0.86395 0.45979 0.0
C3598 C 0.10118 0.83892 0.43307 0.0
C3599 C 0.10588 0.85421 0.41702 0.0
C3600 C 0.11663 0.87383 0.42238 0.0
H3601 H 0.0904 0.89643 0.29363 0.0
H3602 H 0.08606 0.89229 0.33196 0.0
C3603 C 0.12141 0.87873 0.44356 0.0
C3604 C 0.09803 0.85097 0.39491 0.0
H3605 H 0.11659 0.85007 0.34383 0.0
C3606 C 0.07544 0.85265 0.39062 0.0
C3607 C 0.11292 0.84908 0.37784 0.0
C3608 C 0.13718 0.84616 0.38158 0.0
C3609 C 0.06756 0.85398 0.3696 0.0
C3610 C 0.08266 0.85369 0.35265 0.0
C3611 C 0.10506 0.8506 0.35693 0.0
C3612 C 0.07625 0.85825 0.33036 0.0
C3613 C 0.04338 0.85677 0.36552 0.0
C3614 C 0.07021 0.84107 0.31672 0.0
C3615 C 0.07206 0.84368 0.29465 0.0
C3616 C 0.08069 0.8632 0.28617 0.0
C3617 C 0.0834 0.88132 0.29969 0.0
C3618 C 0.0813 0.87884 0.32167 0.0
H3619 H 0.03357 0.85554 0.38034 0.0
H3620 H 0.04043 0.87303 0.35813 0.0
H3621 H 0.03761 0.84409 0.35413 0.0
H3622 H 0.06634 0.82502 0.32311 0.0
H3623 H 0.07008 0.82939 0.2846 0.0
H3624 H 0.41052 0.80906 0.71318 0.0
H3625 H 0.4219 0.79928 0.67719 0.0
H3626 H 0.40998 0.86573 0.65671 0.0
H3627 H 0.40006 0.87586 0.69272 0.0
H3628 H 0.39204 0.80028 0.64742 0.0
H3629 H 0.46075 0.85203 0.6199 0.0
H3630 H 0.45412 0.8493 0.64774 0.0
H3631 H 0.4396 0.86861 0.63123 0.0
C3632 C 0.41145 0.82182 0.70125 0.0
C3633 C 0.40431 0.84317 0.70575 0.0
C3634 C 0.41779 0.81618 0.68064 0.0
C3635 C 0.41683 0.83174 0.6642 0.0
C3636 C 0.41137 0.8535 0.6691 0.0
H3637 H 0.36236 0.83452 0.54544 0.0
H3638 H 0.37018 0.82371 0.58182 0.0
C3639 C 0.40542 0.85921 0.68973 0.0
C3640 C 0.41716 0.82456 0.6417 0.0
H3641 H 0.4353 0.83931 0.59254 0.0
C3642 C 0.40204 0.80834 0.63549 0.0
C3643 C 0.43004 0.83512 0.62607 0.0
C3644 C 0.44717 0.85208 0.63166 0.0
C3645 C 0.39849 0.80333 0.61403 0.0
C3646 C 0.41023 0.81498 0.59833 0.0
C3647 C 0.42634 0.83024 0.60457 0.0
C3648 C 0.40384 0.81436 0.57561 0.0
C3649 C 0.38154 0.78621 0.60846 0.0
C3650 C 0.41976 0.81157 0.5597 0.0
C3651 C 0.41517 0.81767 0.53872 0.0
C3652 C 0.39477 0.82691 0.53365 0.0
C3653 C 0.37811 0.82714 0.54899 0.0
C3654 C 0.38262 0.82099 0.56985 0.0
H3655 H 0.38062 0.77338 0.62096 0.0
H3656 H 0.36517 0.7941 0.60749 0.0
H3657 H 0.38513 0.77825 0.59299 0.0
H3658 H 0.43626 0.80654 0.56384 0.0
H3659 H 0.42835 0.81771 0.52721 0.0
H3660 H 0.42753 0.15001 0.7819 0.0
H3661 H 0.43681 0.15642 0.81955 0.0
H3662 H 0.37008 0.14119 0.83694 0.0
H3663 H 0.3608 0.13519 0.80009 0.0
H3664 H 0.4156 0.18823 0.84746 0.0
H3665 H 0.40636 0.10349 0.87728 0.0
H3666 H 0.41067 0.10956 0.8495 0.0
H3667 H 0.38361 0.11123 0.86085 0.0
C3668 C 0.41496 0.14811 0.79381 0.0
C3669 C 0.3934 0.14256 0.78791 0.0
C3670 C 0.42027 0.15163 0.81526 0.0
C3671 C 0.4041 0.14923 0.83097 0.0
C3672 C 0.38288 0.14282 0.82511 0.0
H3673 H 0.36119 0.16881 0.95453 0.0
H3674 H 0.36808 0.17609 0.91682 0.0
C3675 C 0.37764 0.13934 0.80392 0.0
C3676 C 0.40841 0.15418 0.85357 0.0
H3677 H 0.39961 0.13246 0.90269 0.0
C3678 C 0.41265 0.17599 0.85961 0.0
C3679 C 0.40465 0.13814 0.86935 0.0
C3680 C 0.4013 0.11425 0.86391 0.0
C3681 C 0.41171 0.18236 0.88109 0.0
C3682 C 0.40615 0.16659 0.89653 0.0
C3683 C 0.40331 0.14461 0.89061 0.0
C3684 C 0.40322 0.17194 0.91918 0.0
C3685 C 0.41588 0.20587 0.88722 0.0
C3686 C 0.42079 0.16837 0.93302 0.0
C3687 C 0.41682 0.16393 0.95437 0.0
C3688 C 0.39533 0.16359 0.96241 0.0
C3689 C 0.37799 0.16975 0.94898 0.0
C3690 C 0.38191 0.17384 0.92743 0.0
H3691 H 0.42079 0.21607 0.87339 0.0
H3692 H 0.40082 0.21289 0.8944 0.0
H3693 H 0.42904 0.20662 0.89943 0.0
H3694 H 0.43722 0.16615 0.92682 0.0
H3695 H 0.43023 0.1574 0.96354 0.0
H3696 H 0.85257 0.83795 0.95687 0.0
H3697 H 0.85762 0.82478 0.92022 0.0
H3698 H 0.92754 0.83395 0.92649 0.0
H3699 H 0.92233 0.84774 0.96225 0.0
H3700 H 0.87496 0.85639 0.89432 0.0
H3701 H 0.9251 0.78146 0.88632 0.0
H3702 H 0.90888 0.78733 0.90967 0.0
H3703 H 0.93553 0.79962 0.90641 0.0
C3704 C 0.86902 0.83584 0.95074 0.0
C3705 C 0.8872 0.843 0.96252 0.0
C3706 C 0.87193 0.8284 0.92984 0.0
C3707 C 0.89303 0.82802 0.92073 0.0
C3708 C 0.91124 0.83332 0.93331 0.0
H3709 H 0.92155 0.88432 0.80007 0.0
H3710 H 0.92597 0.87318 0.83728 0.0
C3711 C 0.90828 0.84106 0.95388 0.0
C3712 C 0.89584 0.82813 0.89739 0.0
H3713 H 0.92781 0.8077 0.85752 0.0
C3714 C 0.88617 0.84545 0.88617 0.0
C3715 C 0.91055 0.81395 0.88683 0.0
C3716 C 0.92045 0.79441 0.89789 0.0
C3717 C 0.89148 0.84959 0.86494 0.0
C3718 C 0.90741 0.83638 0.85476 0.0
C3719 C 0.91624 0.8183 0.8656 0.0
C3720 C 0.91345 0.84031 0.83229 0.0
C3721 C 0.87984 0.86811 0.85368 0.0
C3722 C 0.90767 0.82468 0.81697 0.0
C3723 C 0.90614 0.83077 0.79568 0.0
C3724 C 0.91011 0.85257 0.78955 0.0
C3725 C 0.91879 0.86734 0.80439 0.0
C3726 C 0.9209 0.86106 0.82567 0.0
H3727 H 0.8645 0.8729 0.862 0.0
H3728 H 0.89073 0.88271 0.85325 0.0
H3729 H 0.87562 0.86351 0.8371 0.0
H3730 H 0.90189 0.80859 0.82169 0.0
H3731 H 0.89862 0.81934 0.7847 0.0
H3732 H 0.92597 0.16135 0.53347 0.0
H3733 H 0.93747 0.16933 0.56977 0.0
H3734 H 0.87723 0.14144 0.59338 0.0
H3735 H 0.86541 0.13366 0.55708 0.0
H3736 H 0.89751 0.18072 0.6172 0.0
H3737 H 0.95125 0.1086 0.60207 0.0
H3738 H 0.95143 0.13055 0.58292 0.0
H3739 H 0.92718 0.11422 0.58629 0.0
C3740 C 0.91479 0.15765 0.54624 0.0
C3741 C 0.89503 0.14642 0.54235 0.0
C3742 C 0.92143 0.16219 0.56701 0.0
C3743 C 0.90837 0.15556 0.58414 0.0
C3744 C 0.88756 0.14656 0.58029 0.0
H3745 H 0.91021 0.10412 0.7024 0.0
H3746 H 0.92015 0.10994 0.66549 0.0
C3747 C 0.8809 0.14206 0.55951 0.0
C3748 C 0.9177 0.15447 0.60574 0.0
H3749 H 0.95068 0.12253 0.63672 0.0
C3750 C 0.90951 0.16838 0.62151 0.0
C3751 C 0.93299 0.13799 0.61115 0.0
C3752 C 0.94122 0.12183 0.59484 0.0
C3753 C 0.91567 0.16575 0.64286 0.0
C3754 C 0.93081 0.14901 0.64838 0.0
C3755 C 0.93957 0.13566 0.63238 0.0
C3756 C 0.93392 0.14226 0.6708 0.0
C3757 C 0.90463 0.17984 0.65943 0.0
C3758 C 0.94102 0.15719 0.68638 0.0
C3759 C 0.93559 0.15358 0.70772 0.0
C3760 C 0.92271 0.13538 0.71323 0.0
C3761 C 0.91993 0.11844 0.69839 0.0
C3762 C 0.92535 0.12193 0.67717 0.0
H3763 H 0.891 0.18971 0.65268 0.0
H3764 H 0.89794 0.16953 0.67245 0.0
H3765 H 0.91681 0.19133 0.6664 0.0
H3766 H 0.94845 0.17263 0.68184 0.0
H3767 H 0.9385 0.16651 0.71916 0.0
H3768 H 0.6372 0.15165 0.44575 0.0
H3769 H 0.62863 0.16023 0.40876 0.0
H3770 H 0.55962 0.16145 0.42383 0.0
H3771 H 0.56803 0.15334 0.46079 0.0
H3772 H 0.60495 0.12845 0.38879 0.0
H3773 H 0.56425 0.20898 0.37828 0.0
H3774 H 0.58122 0.2026 0.40101 0.0
H3775 H 0.55342 0.19282 0.39974 0.0
C3776 C 0.62027 0.15455 0.44133 0.0
C3777 C 0.60326 0.15142 0.45604 0.0
C3778 C 0.6154 0.1595 0.42023 0.0
C3779 C 0.59348 0.1613 0.41357 0.0
C3780 C 0.57664 0.16042 0.42868 0.0
H3781 H 0.5681 0.11399 0.2849 0.0
H3782 H 0.55959 0.12037 0.32264 0.0
C3783 C 0.58151 0.15567 0.44984 0.0
C3784 C 0.58817 0.1594 0.39075 0.0
H3785 H 0.56149 0.1838 0.34942 0.0
C3786 C 0.59547 0.14057 0.38015 0.0
C3787 C 0.57571 0.17519 0.37968 0.0
C3788 C 0.56834 0.19614 0.39017 0.0
C3789 C 0.59115 0.13726 0.35858 0.0
C3790 C 0.57832 0.15282 0.34745 0.0
C3791 C 0.57072 0.17157 0.35816 0.0
C3792 C 0.57623 0.15178 0.32406 0.0
C3793 C 0.60143 0.1177 0.34774 0.0
C3794 C 0.58663 0.16809 0.31214 0.0
C3795 C 0.59103 0.16464 0.2908 0.0
C3796 C 0.5847 0.14505 0.28074 0.0
C3797 C 0.57247 0.12952 0.29213 0.0
C3798 C 0.5679 0.13306 0.31369 0.0
H3799 H 0.61419 0.10981 0.35777 0.0
H3800 H 0.58858 0.10526 0.34437 0.0
H3801 H 0.60911 0.12257 0.33247 0.0
H3802 H 0.5935 0.18247 0.31981 0.0
H3803 H 0.6018 0.17618 0.28296 0.0
H3804 H 0.63809 0.82673 0.20603 0.0
H3805 H 0.62602 0.82329 0.16932 0.0
H3806 H 0.58529 0.88054 0.17641 0.0
H3807 H 0.59697 0.8838 0.2139 0.0
H3808 H 0.56886 0.83417 0.15203 0.0
H3809 H 0.64504 0.87669 0.1257 0.0
H3810 H 0.64764 0.85809 0.14776 0.0
H3811 H 0.63181 0.88266 0.15073 0.0
C3812 C 0.6267 0.83874 0.1998 0.0
C3813 C 0.61885 0.85588 0.21259 0.0
C3814 C 0.61959 0.83654 0.17895 0.0
C3815 C 0.60479 0.85161 0.17033 0.0
C3816 C 0.5966 0.86866 0.183 0.0
H3817 H 0.57457 0.8572 0.03721 0.0
H3818 H 0.56744 0.85545 0.07498 0.0
C3819 C 0.60344 0.87065 0.2042 0.0
C3820 C 0.6 0.85024 0.14746 0.0
H3821 H 0.62602 0.85578 0.09998 0.0
C3822 C 0.58107 0.8392 0.14049 0.0
C3823 C 0.61602 0.85688 0.13266 0.0
C3824 C 0.63625 0.86939 0.13945 0.0
C3825 C 0.57835 0.83369 0.11893 0.0
C3826 C 0.59518 0.83906 0.10442 0.0
C3827 C 0.61349 0.85107 0.11134 0.0
C3828 C 0.59425 0.83337 0.08166 0.0
C3829 C 0.55803 0.82156 0.11188 0.0
C3830 C 0.61115 0.82071 0.07269 0.0
C3831 C 0.61535 0.82173 0.05086 0.0
C3832 C 0.60239 0.83506 0.03786 0.0
C3833 C 0.58406 0.84577 0.04662 0.0
C3834 C 0.58005 0.84499 0.06836 0.0
H3835 H 0.54775 0.81629 0.12553 0.0
H3836 H 0.54802 0.83238 0.10155 0.0
H3837 H 0.56261 0.80693 0.10238 0.0
H3838 H 0.62241 0.81184 0.08285 0.0
H3839 H 0.62989 0.81389 0.04457 0.0
H3840 H 0.56834 0.62756 0.53176 0.0
H3841 H 0.56046 0.64035 0.56737 0.0
H3842 H 0.62473 0.66992 0.57113 0.0
H3843 H 0.63237 0.65797 0.53431 0.0
H3844 H 0.59002 0.62245 0.59741 0.0
H3845 H 0.58186 0.71306 0.60454 0.0
H3846 H 0.57657 0.69867 0.5799 0.0
H3847 H 0.60422 0.70238 0.58897 0.0
C3848 C 0.58061 0.63736 0.53988 0.0
C3849 C 0.60104 0.64164 0.53052 0.0
C3850 C 0.57599 0.64478 0.56016 0.0
C3851 C 0.59192 0.65613 0.57176 0.0
C3852 C 0.61206 0.66154 0.56215 0.0
H3853 H 0.62345 0.6691 0.6986 0.0
H3854 H 0.61271 0.6783 0.66249 0.0
C3855 C 0.61652 0.65454 0.54135 0.0
C3856 C 0.58892 0.65759 0.5949 0.0
H3857 H 0.58154 0.69246 0.63656 0.0
C3858 C 0.58794 0.63774 0.60601 0.0
C3859 C 0.58627 0.67759 0.6058 0.0
C3860 C 0.58714 0.69922 0.59428 0.0
C3861 C 0.58508 0.63719 0.62797 0.0
C3862 C 0.58247 0.6572 0.63912 0.0
C3863 C 0.58299 0.67716 0.62789 0.0
C3864 C 0.58376 0.65761 0.66253 0.0
C3865 C 0.58632 0.61519 0.639 0.0
C3866 C 0.57011 0.64421 0.6751 0.0
C3867 C 0.57682 0.63818 0.69555 0.0
C3868 C 0.59656 0.64647 0.70363 0.0
C3869 C 0.60833 0.66232 0.69227 0.0
C3870 C 0.60205 0.66779 0.67178 0.0
H3871 H 0.59236 0.60204 0.62829 0.0
H3872 H 0.59741 0.61599 0.65298 0.0
H3873 H 0.56972 0.61034 0.6445 0.0
H3874 H 0.55549 0.63681 0.6684 0.0
H3875 H 0.56735 0.62627 0.70446 0.0
H3876 H 0.5923 0.37577 0.79396 0.0
H3877 H 0.57946 0.37048 0.83038 0.0
H3878 H 0.58591 0.3005 0.82327 0.0
H3879 H 0.59849 0.30555 0.7867 0.0
H3880 H 0.54849 0.32226 0.85471 0.0
H3881 H 0.63699 0.34369 0.86381 0.0
H3882 H 0.62073 0.36077 0.84664 0.0
H3883 H 0.62598 0.33283 0.83936 0.0
C3884 C 0.59038 0.35922 0.79993 0.0
C3885 C 0.59708 0.3411 0.78778 0.0
C3886 C 0.58278 0.35622 0.82063 0.0
C3887 C 0.58194 0.33513 0.82944 0.0
C3888 C 0.58636 0.31688 0.81662 0.0
H3889 H 0.62315 0.32444 0.95898 0.0
H3890 H 0.61354 0.31108 0.92345 0.0
C3891 C 0.59378 0.31984 0.79583 0.0
C3892 C 0.58218 0.33269 0.85272 0.0
H3893 H 0.61638 0.33993 0.89484 0.0
C3894 C 0.56331 0.32588 0.86362 0.0
C3895 C 0.60167 0.33711 0.86408 0.0
C3896 C 0.62259 0.34389 0.85297 0.0
C3897 C 0.56335 0.32392 0.88592 0.0
C3898 C 0.58272 0.32916 0.89738 0.0
C3899 C 0.60161 0.33553 0.88619 0.0
C3900 C 0.5838 0.33036 0.92093 0.0
C3901 C 0.54273 0.31622 0.89686 0.0
C3902 C 0.56943 0.34423 0.93199 0.0
C3903 C 0.57452 0.35109 0.95257 0.0
C3904 C 0.59431 0.34468 0.96208 0.0
C3905 C 0.60769 0.32932 0.95193 0.0
C3906 C 0.60222 0.32184 0.93162 0.0
H3907 H 0.5331 0.30508 0.88642 0.0
H3908 H 0.54642 0.30758 0.91196 0.0
H3909 H 0.53225 0.33062 0.90042 0.0
H3910 H 0.55547 0.35154 0.92408 0.0
H3911 H 0.56421 0.36327 0.96012 0.0
H3912 H 0.91942 0.33167 0.03636 0.0
H3913 H 0.92483 0.32377 0.0739 0.0
H3914 H 0.85789 0.34259 0.08625 0.0
H3915 H 0.85224 0.34923 0.04847 0.0
H3916 H 0.92334 0.3565 0.10131 0.0
H3917 H 0.86412 0.29381 0.12806 0.0
H3918 H 0.8706 0.29769 0.10032 0.0
H3919 H 0.85041 0.31471 0.11315 0.0
C3920 C 0.90544 0.33245 0.04672 0.0
C3921 C 0.88529 0.34045 0.03925 0.0
C3922 C 0.90866 0.32844 0.06838 0.0
C3923 C 0.89177 0.33249 0.083 0.0
C3924 C 0.87107 0.33881 0.07534 0.0
H3925 H 0.88137 0.39008 0.20375 0.0
H3926 H 0.89024 0.3825 0.16637 0.0
C3927 C 0.86784 0.34262 0.05367 0.0
C3928 C 0.89658 0.33379 0.10613 0.0
H3929 H 0.87593 0.32019 0.15476 0.0
C3930 C 0.91325 0.34817 0.11299 0.0
C3931 C 0.8836 0.32286 0.12146 0.0
C3932 C 0.86635 0.30624 0.11533 0.0
C3933 C 0.91635 0.3529 0.13463 0.0
C3934 C 0.9023 0.34319 0.14973 0.0
C3935 C 0.88653 0.32783 0.14306 0.0
C3936 C 0.90245 0.34977 0.17237 0.0
C3937 C 0.93429 0.36854 0.14125 0.0
C3938 C 0.9072 0.33423 0.1881 0.0
C3939 C 0.90251 0.33875 0.20935 0.0
C3940 C 0.89294 0.35876 0.21518 0.0
C3941 C 0.88944 0.37484 0.19966 0.0
C3942 C 0.89437 0.37044 0.17835 0.0
H3943 H 0.9466 0.3709 0.12845 0.0
H3944 H 0.92697 0.38471 0.14505 0.0
H3945 H 0.94274 0.36247 0.15573 0.0
H3946 H 0.91312 0.3181 0.18378 0.0
H3947 H 0.90436 0.32579 0.22092 0.0
H3948 H 0.86312 0.6406 0.44189 0.0
H3949 H 0.87324 0.65262 0.40605 0.0
H3950 H 0.94068 0.65942 0.42584 0.0
H3951 H 0.93092 0.64684 0.46132 0.0
H3952 H 0.90076 0.69097 0.38771 0.0
H3953 H 0.93652 0.60698 0.38179 0.0
H3954 H 0.91741 0.61414 0.4025 0.0
H3955 H 0.94498 0.62444 0.40337 0.0
C3956 C 0.88002 0.64499 0.43865 0.0
C3957 C 0.89626 0.64263 0.4543 0.0
C3958 C 0.88572 0.65208 0.41832 0.0
C3959 C 0.9077 0.65675 0.41346 0.0
C3960 C 0.92365 0.65592 0.42942 0.0
H3961 H 0.93324 0.63439 0.27765 0.0
H3962 H 0.94487 0.64441 0.31417 0.0
C3963 C 0.91799 0.64877 0.44969 0.0
C3964 C 0.91429 0.65859 0.39109 0.0
H3965 H 0.93188 0.62649 0.35029 0.0
C3966 C 0.90811 0.67716 0.37952 0.0
C3967 C 0.92421 0.64065 0.38065 0.0
C3968 C 0.93115 0.62033 0.39259 0.0
C3969 C 0.91014 0.67757 0.35736 0.0
C3970 C 0.91782 0.65861 0.34668 0.0
C3971 C 0.92598 0.64096 0.35849 0.0
C3972 C 0.91239 0.65455 0.32415 0.0
C3973 C 0.90277 0.6978 0.34556 0.0
C3974 C 0.89039 0.65626 0.31809 0.0
C3975 C 0.88398 0.65084 0.29772 0.0
C3976 C 0.89925 0.64295 0.28293 0.0
C3977 C 0.92128 0.64047 0.28889 0.0
C3978 C 0.92787 0.64635 0.30955 0.0
H3979 H 0.90708 0.71283 0.35465 0.0
H3980 H 0.91024 0.69886 0.32951 0.0
H3981 H 0.88464 0.69751 0.34389 0.0
H3982 H 0.87792 0.66135 0.32929 0.0
H3983 H 0.86684 0.65281 0.2935 0.0
H3984 H 0.3718 0.33017 0.47172 0.0
H3985 H 0.37562 0.31472 0.43559 0.0
H3986 H 0.42311 0.36489 0.42047 0.0
H3987 H 0.41926 0.38024 0.45574 0.0
H3988 H 0.3667 0.3382 0.39819 0.0
H3989 H 0.45249 0.31002 0.3969 0.0
H3990 H 0.43749 0.31409 0.42136 0.0
H3991 H 0.45083 0.33686 0.40843 0.0
C3992 C 0.38311 0.33769 0.46063 0.0
C3993 C 0.39492 0.35659 0.46636 0.0
C3994 C 0.3854 0.32881 0.44013 0.0
C3995 C 0.40004 0.33838 0.42552 0.0
C3996 C 0.41215 0.35688 0.43159 0.0
H3997 H 0.39959 0.38311 0.30503 0.0
H3998 H 0.40623 0.37283 0.34199 0.0
C3999 C 0.40961 0.36589 0.45169 0.0
C4000 C 0.401 0.3314 0.403 0.0
H4001 H 0.4383 0.32476 0.36301 0.0
C4002 C 0.38217 0.3344 0.39054 0.0
C4003 C 0.42118 0.32636 0.39299 0.0
C4004 C 0.44157 0.32142 0.40569 0.0
C4005 C 0.38348 0.33478 0.36831 0.0
C4006 C 0.40413 0.33223 0.35839 0.0
C4007 C 0.42257 0.32706 0.37071 0.0
C4008 C 0.40688 0.33797 0.33575 0.0
C4009 C 0.36305 0.3396 0.35559 0.0
C4010 C 0.40668 0.32178 0.31991 0.0
C4011 C 0.40333 0.32769 0.29862 0.0
C4012 C 0.39979 0.34978 0.29322 0.0
C4013 C 0.40234 0.366 0.30884 0.0
C4014 C 0.40601 0.36014 0.32993 0.0
H4015 H 0.34791 0.33649 0.36494 0.0
H4016 H 0.36315 0.35712 0.35079 0.0
H4017 H 0.36254 0.3295 0.34092 0.0
H4018 H 0.40731 0.30459 0.32418 0.0
H4019 H 0.40117 0.31489 0.28686 0.0
H4020 H 0.41947 0.61305 0.20904 0.0
H4021 H 0.4357 0.61594 0.17323 0.0
H4022 H 0.4024 0.67755 0.16381 0.0
H4023 H 0.38608 0.67444 0.19878 0.0
H4024 H 0.40644 0.6158 0.14033 0.0
H4025 H 0.4589 0.68923 0.13215 0.0
H4026 H 0.45339 0.67656 0.15757 0.0
H4027 H 0.43404 0.69544 0.14608 0.0
C4028 C 0.41643 0.62754 0.19954 0.0
C4029 C 0.4016 0.64353 0.20649 0.0
C4030 C 0.42568 0.62924 0.17918 0.0
C4031 C 0.42051 0.64716 0.16594 0.0
C4032 C 0.40715 0.66391 0.17382 0.0
H4033 H 0.37335 0.64763 0.04127 0.0
H4034 H 0.38217 0.65627 0.0783 0.0
C4035 C 0.39765 0.662 0.19377 0.0
C4036 C 0.4243 0.64622 0.14273 0.0
H4037 H 0.43876 0.67803 0.10021 0.0
C4038 C 0.41413 0.62908 0.13159 0.0
C4039 C 0.43401 0.66374 0.1313 0.0
C4040 C 0.44588 0.68217 0.14244 0.0
C4041 C 0.4122 0.62959 0.10946 0.0
C4042 C 0.42062 0.64776 0.09813 0.0
C4043 C 0.43203 0.6643 0.10903 0.0
C4044 C 0.41686 0.64961 0.07502 0.0
C4045 C 0.40029 0.61105 0.09843 0.0
C4046 C 0.43373 0.64456 0.06072 0.0
C4047 C 0.42874 0.63991 0.03948 0.0
C4048 C 0.40683 0.64011 0.03253 0.0
C4049 C 0.39033 0.64725 0.04638 0.0
C4050 C 0.39536 0.65223 0.06746 0.0
H4051 H 0.39922 0.59621 0.10861 0.0
H4052 H 0.38333 0.61633 0.0946 0.0
H4053 H 0.40857 0.6066 0.08333 0.0
H4054 H 0.4504 0.64244 0.06633 0.0
H4055 H 0.4417 0.63433 0.02904 0.0
H4056 H 0.14036 0.64718 0.95221 0.0
H4057 H 0.13127 0.65597 0.91544 0.0
H4058 H 0.06537 0.67261 0.93407 0.0
H4059 H 0.07427 0.66411 0.97085 0.0
H4060 H 0.08149 0.62706 0.90919 0.0
H4061 H 0.09732 0.70939 0.87409 0.0
H4062 H 0.11644 0.69898 0.89356 0.0
H4063 H 0.08905 0.70572 0.90147 0.0
C4064 C 0.12421 0.65361 0.94866 0.0
C4065 C 0.10777 0.65419 0.96425 0.0
C4066 C 0.11913 0.65884 0.92768 0.0
C4067 C 0.09762 0.66469 0.92221 0.0
C4068 C 0.08207 0.6682 0.93814 0.0
H4069 H 0.07137 0.65348 0.78626 0.0
H4070 H 0.06114 0.66063 0.82327 0.0
C4071 C 0.08718 0.66315 0.95915 0.0
C4072 C 0.09013 0.66015 0.90052 0.0
H4073 H 0.09134 0.67982 0.85004 0.0
C4074 C 0.08309 0.63871 0.89623 0.0
C4075 C 0.09208 0.6755 0.88398 0.0
C4076 C 0.09903 0.69878 0.88835 0.0
C4077 C 0.07946 0.63167 0.87542 0.0
C4078 C 0.08316 0.64649 0.85856 0.0
C4079 C 0.08851 0.66848 0.86302 0.0
C4080 C 0.08545 0.63873 0.8365 0.0
C4081 C 0.07282 0.60813 0.87169 0.0
C4082 C 0.10187 0.62342 0.83182 0.0
C4083 C 0.10761 0.61922 0.81086 0.0
C4084 C 0.09724 0.63051 0.79422 0.0
C4085 C 0.07956 0.64448 0.7988 0.0
C4086 C 0.0738 0.6487 0.81989 0.0
H4087 H 0.0627 0.60187 0.88506 0.0
H4088 H 0.06345 0.60619 0.85667 0.0
H4089 H 0.08777 0.59782 0.87083 0.0
H4090 H 0.11138 0.61588 0.84439 0.0
H4091 H 0.12129 0.60835 0.8078 0.0
H4092 H 0.13736 0.33085 0.54167 0.0
H4093 H 0.1295 0.31995 0.57846 0.0
H4094 H 0.06121 0.33541 0.56892 0.0
H4095 H 0.06924 0.34714 0.53314 0.0
H4096 H 0.11486 0.35302 0.60329 0.0
H4097 H 0.05639 0.28395 0.60983 0.0
H4098 H 0.07312 0.28844 0.58653 0.0
H4099 H 0.04807 0.30354 0.59014 0.0
C4100 C 0.12051 0.33065 0.54714 0.0
C4101 C 0.10367 0.3387 0.53409 0.0
C4102 C 0.11602 0.32451 0.56815 0.0
C4103 C 0.09465 0.32646 0.57637 0.0
C4104 C 0.07762 0.33291 0.5628 0.0
H4105 H 0.06994 0.38399 0.69794 0.0
H4106 H 0.06577 0.37408 0.66043 0.0
C4107 C 0.08217 0.33927 0.54202 0.0
C4108 C 0.09094 0.32725 0.59963 0.0
H4109 H 0.05663 0.30976 0.63909 0.0
C4110 C 0.10239 0.34326 0.61119 0.0
C4111 C 0.07458 0.31464 0.6099 0.0
C4112 C 0.06248 0.29653 0.59849 0.0
C4113 C 0.09753 0.34753 0.63252 0.0
C4114 C 0.08026 0.33585 0.64251 0.0
C4115 C 0.06939 0.31915 0.63124 0.0
C4116 C 0.07454 0.34003 0.66506 0.0
C4117 C 0.11114 0.36449 0.64411 0.0
C4118 C 0.07811 0.32364 0.68028 0.0
C4119 C 0.07942 0.32912 0.7018 0.0
C4120 C 0.07759 0.35108 0.70828 0.0
C4121 C 0.07107 0.36689 0.69339 0.0
C4122 C 0.06916 0.3613 0.67191 0.0
H4123 H 0.12697 0.36771 0.63593 0.0
H4124 H 0.10197 0.38017 0.64473 0.0
H4125 H 0.11471 0.35921 0.66064 0.0
H4126 H 0.08221 0.30711 0.67539 0.0
H4127 H 0.0851 0.31676 0.71282 0.0
loop_
_geom_bond_atom_site_label_1
_geom_bond_atom_site_label_2
_geom_bond_distance
_geom_bond_site_symmetry_2
_ccdc_geom_bond_type
Zn0 O6 1.920 . S
Zn0 O12 1.898 . S
Zn0 O15 1.905 . S
Zn1 O9 1.905 . S
Zn1 O10 1.898 . S
Zn1 O18 1.920 . S
Zn2 O5 2.080 . S
Zn2 O8 2.114 . S
Zn2 O11 2.120 . S
Zn2 O13 2.120 . S
Zn2 O14 2.114 . S
Zn2 O17 2.080 . S
C3 O8 1.166 . S
C3 O9 1.182 . S
C4 O10 1.167 . S
C4 O11 1.299 . S
O5 Zn2 2.080 . S
O5 C19 1.305 . S
O6 Zn0 1.920 . S
O6 C19 1.234 . S
C7 O12 1.167 . S
C7 O13 1.299 . S
O8 Zn2 2.114 . S
O8 C3 1.166 . S
O9 Zn1 1.905 . S
O9 C3 1.182 . S
O10 Zn1 1.898 . S
O10 C4 1.167 . S
O11 Zn2 2.120 . S
O11 C4 1.299 . S
O12 Zn0 1.898 . S
O12 C7 1.167 . S
O13 Zn2 2.120 . S
O13 C7 1.299 . S
O14 Zn2 2.114 . S
O14 C16 1.166 . S
O15 Zn0 1.905 . S
O15 C16 1.182 . S
C16 O14 1.166 . S
C16 O15 1.182 . S
O17 Zn2 2.080 . S
O17 C20 1.305 . S
O18 Zn1 1.920 . S
O18 C20 1.234 . S
C19 O5 1.305 . S
C19 O6 1.234 . S
C20 O17 1.305 . S
C20 O18 1.234 . S
Zn21 O27 1.920 . S
Zn21 O33 1.898 . S
Zn21 O36 1.905 . S
Zn22 O30 1.905 . S
Zn22 O31 1.898 . S
Zn22 O39 1.920 . S
Zn23 O26 2.080 . S
Zn23 O29 2.114 . S
Zn23 O32 2.120 . S
Zn23 O34 2.120 . S
Zn23 O35 2.114 . S
Zn23 O38 2.080 . S
C24 O29 1.166 . S
C24 O30 1.182 . S
C25 O31 1.167 . S
C25 O32 1.299 . S
O26 Zn23 2.080 . S
O26 C40 1.305 . S
O27 Zn21 1.920 . S
O27 C40 1.234 . S
C28 O33 1.167 . S
C28 O34 1.299 . S
O29 Zn23 2.114 . S
O29 C24 1.166 . S
O30 Zn22 1.905 . S
O30 C24 1.182 . S
O31 Zn22 1.898 . S
O31 C25 1.167 . S
O32 Zn23 2.120 . S
O32 C25 1.299 . S
O33 Zn21 1.898 . S
O33 C28 1.167 . S
O34 Zn23 2.120 . S
O34 C28 1.299 . S
O35 Zn23 2.114 . S
O35 C37 1.166 . S
O36 Zn21 1.905 . S
O36 C37 1.182 . S
C37 O35 1.166 . S
C37 O36 1.182 . S
O38 Zn23 2.080 . S
O38 C41 1.305 . S
O39 Zn22 1.920 . S
O39 C41 1.234 . S
C40 O26 1.305 . S
C40 O27 1.234 . S
C41 O38 1.305 . S
C41 O39 1.234 . S
Zn42 O48 1.920 . S
Zn42 O54 1.898 . S
Zn42 O57 1.905 . S
Zn43 O51 1.905 . S
Zn43 O52 1.898 . S
Zn43 O60 1.920 . S
Zn44 O47 2.080 . S
Zn44 O50 2.114 . S
Zn44 O53 2.120 . S
Zn44 O55 2.120 . S
Zn44 O56 2.114 . S
Zn44 O59 2.080 . S
C45 O50 1.166 . S
C45 O51 1.182 . S
C46 O52 1.167 . S
C46 O53 1.299 . S
O47 Zn44 2.080 . S
O47 C61 1.305 . S
O48 Zn42 1.920 . S
O48 C61 1.234 . S
C49 O54 1.167 . S
C49 O55 1.299 . S
O50 Zn44 2.114 . S
O50 C45 1.166 . S
O51 Zn43 1.905 . S
O51 C45 1.182 . S
O52 Zn43 1.898 . S
O52 C46 1.167 . S
O53 Zn44 2.120 . S
O53 C46 1.299 . S
O54 Zn42 1.898 . S
O54 C49 1.167 . S
O55 Zn44 2.120 . S
O55 C49 1.299 . S
O56 Zn44 2.114 . S
O56 C58 1.166 . S
O57 Zn42 1.905 . S
O57 C58 1.182 . S
C58 O56 1.166 . S
C58 O57 1.182 . S
O59 Zn44 2.080 . S
O59 C62 1.305 . S
O60 Zn43 1.920 . S
O60 C62 1.234 . S
C61 O47 1.305 . S
C61 O48 1.234 . S
C62 O59 1.305 . S
C62 O60 1.234 . S
Zn63 O69 1.920 . S
Zn63 O75 1.898 1_556 S
Zn63 O78 1.905 . S
Zn64 O72 1.905 . S
Zn64 O73 1.898 . S
Zn64 O81 1.920 . S
Zn65 O68 2.080 . S
Zn65 O71 2.114 . S
Zn65 O74 2.120 . S
Zn65 O76 2.120 . S
Zn65 O77 2.114 1_554 S
Zn65 O80 2.080 . S
C66 O71 1.166 . S
C66 O72 1.182 . S
C67 O73 1.167 . S
C67 O74 1.299 . S
O68 Zn65 2.080 . S
O68 C82 1.305 . S
O69 Zn63 1.920 . S
O69 C82 1.234 1_556 S
C70 O75 1.167 . S
C70 O76 1.299 . S
O71 Zn65 2.114 . S
O71 C66 1.166 . S
O72 Zn64 1.905 . S
O72 C66 1.182 . S
O73 Zn64 1.898 . S
O73 C67 1.167 . S
O74 Zn65 2.120 . S
O74 C67 1.299 . S
O75 Zn63 1.898 1_554 S
O75 C70 1.167 . S
O76 Zn65 2.120 . S
O76 C70 1.299 . S
O77 Zn65 2.114 1_556 S
O77 C79 1.166 . S
O78 Zn63 1.905 . S
O78 C79 1.182 . S
C79 O77 1.166 . S
C79 O78 1.182 . S
O80 Zn65 2.080 . S
O80 C83 1.305 . S
O81 Zn64 1.920 . S
O81 C83 1.234 . S
C82 O68 1.305 . S
C82 O69 1.234 1_554 S
C83 O80 1.305 . S
C83 O81 1.234 . S
Zn84 O90 1.920 . S
Zn84 O96 1.898 . S
Zn84 O99 1.905 . S
Zn85 O93 1.905 . S
Zn85 O94 1.898 . S
Zn85 O102 1.920 . S
Zn86 O89 2.080 . S
Zn86 O92 2.114 . S
Zn86 O95 2.120 . S
Zn86 O97 2.120 . S
Zn86 O98 2.114 . S
Zn86 O101 2.080 . S
C87 O92 1.166 . S
C87 O93 1.182 . S
C88 O94 1.167 . S
C88 O95 1.299 . S
O89 Zn86 2.080 . S
O89 C103 1.305 . S
O90 Zn84 1.920 . S
O90 C103 1.234 . S
C91 O96 1.167 . S
C91 O97 1.299 . S
O92 Zn86 2.114 . S
O92 C87 1.166 . S
O93 Zn85 1.905 . S
O93 C87 1.182 . S
O94 Zn85 1.898 . S
O94 C88 1.167 . S
O95 Zn86 2.120 . S
O95 C88 1.299 . S
O96 Zn84 1.898 . S
O96 C91 1.167 . S
O97 Zn86 2.120 . S
O97 C91 1.299 . S
O98 Zn86 2.114 . S
O98 C100 1.166 . S
O99 Zn84 1.905 . S
O99 C100 1.182 . S
C100 O98 1.166 . S
C100 O99 1.182 . S
O101 Zn86 2.080 . S
O101 C104 1.305 . S
O102 Zn85 1.920 . S
O102 C104 1.234 . S
C103 O89 1.305 . S
C103 O90 1.234 . S
C104 O101 1.305 . S
C104 O102 1.234 . S
Zn105 O111 1.920 . S
Zn105 O117 1.898 . S
Zn105 O120 1.905 . S
Zn106 O114 1.905 . S
Zn106 O115 1.898 . S
Zn106 O123 1.920 . S
Zn107 O110 2.080 . S
Zn107 O113 2.114 . S
Zn107 O116 2.120 . S
Zn107 O118 2.120 . S
Zn107 O119 2.114 . S
Zn107 O122 2.080 . S
C108 O113 1.166 . S
C108 O114 1.182 . S
C109 O115 1.167 . S
C109 O116 1.299 . S
O110 Zn107 2.080 . S
O110 C124 1.305 . S
O111 Zn105 1.920 . S
O111 C124 1.234 . S
C112 O117 1.167 . S
C112 O118 1.299 . S
O113 Zn107 2.114 . S
O113 C108 1.166 . S
O114 Zn106 1.905 . S
O114 C108 1.182 . S
O115 Zn106 1.898 . S
O115 C109 1.167 . S
O116 Zn107 2.120 . S
O116 C109 1.299 . S
O117 Zn105 1.898 . S
O117 C112 1.167 . S
O118 Zn107 2.120 . S
O118 C112 1.299 . S
O119 Zn107 2.114 . S
O119 C121 1.166 . S
O120 Zn105 1.905 . S
O120 C121 1.182 . S
C121 O119 1.166 . S
C121 O120 1.182 . S
O122 Zn107 2.080 . S
O122 C125 1.305 . S
O123 Zn106 1.920 . S
O123 C125 1.234 . S
C124 O110 1.305 . S
C124 O111 1.234 . S
C125 O122 1.305 . S
C125 O123 1.234 . S
Zn126 O132 1.920 . S
Zn126 O138 1.898 . S
Zn126 O141 1.905 . S
Zn127 O135 1.905 . S
Zn127 O136 1.898 . S
Zn127 O144 1.920 . S
Zn128 O131 2.080 . S
Zn128 O134 2.114 . S
Zn128 O137 2.120 . S
Zn128 O139 2.120 . S
Zn128 O140 2.114 . S
Zn128 O143 2.080 . S
C129 O134 1.166 . S
C129 O135 1.182 . S
C130 O136 1.167 . S
C130 O137 1.299 . S
O131 Zn128 2.080 . S
O131 C145 1.305 . S
O132 Zn126 1.920 . S
O132 C145 1.234 . S
C133 O138 1.167 . S
C133 O139 1.299 . S
O134 Zn128 2.114 . S
O134 C129 1.166 . S
O135 Zn127 1.905 . S
O135 C129 1.182 . S
O136 Zn127 1.898 . S
O136 C130 1.167 . S
O137 Zn128 2.120 . S
O137 C130 1.299 . S
O138 Zn126 1.898 . S
O138 C133 1.167 . S
O139 Zn128 2.120 . S
O139 C133 1.299 . S
O140 Zn128 2.114 . S
O140 C142 1.166 . S
O141 Zn126 1.905 . S
O141 C142 1.182 . S
C142 O140 1.166 . S
C142 O141 1.182 . S
O143 Zn128 2.080 . S
O143 C146 1.305 . S
O144 Zn127 1.920 . S
O144 C146 1.234 . S
C145 O131 1.305 . S
C145 O132 1.234 . S
C146 O143 1.305 . S
C146 O144 1.234 . S
Zn147 O153 1.920 . S
Zn147 O159 1.898 . S
Zn147 O162 1.905 . S
Zn148 O156 1.905 . S
Zn148 O157 1.898 1_554 S
Zn148 O165 1.920 . S
Zn149 O152 2.080 . S
Zn149 O155 2.114 1_556 S
Zn149 O158 2.120 . S
Zn149 O160 2.120 . S
Zn149 O161 2.114 . S
Zn149 O164 2.080 . S
C150 O155 1.166 . S
C150 O156 1.182 . S
C151 O157 1.167 . S
C151 O158 1.299 . S
O152 Zn149 2.080 . S
O152 C166 1.305 . S
O153 Zn147 1.920 . S
O153 C166 1.234 . S
C154 O159 1.167 . S
C154 O160 1.299 . S
O155 Zn149 2.114 1_554 S
O155 C150 1.166 . S
O156 Zn148 1.905 . S
O156 C150 1.182 . S
O157 Zn148 1.898 1_556 S
O157 C151 1.167 . S
O158 Zn149 2.120 . S
O158 C151 1.299 . S
O159 Zn147 1.898 . S
O159 C154 1.167 . S
O160 Zn149 2.120 . S
O160 C154 1.299 . S
O161 Zn149 2.114 . S
O161 C163 1.166 . S
O162 Zn147 1.905 . S
O162 C163 1.182 . S
C163 O161 1.166 . S
C163 O162 1.182 . S
O164 Zn149 2.080 . S
O164 C167 1.305 . S
O165 Zn148 1.920 . S
O165 C167 1.234 1_554 S
C166 O152 1.305 . S
C166 O153 1.234 . S
C167 O164 1.305 . S
C167 O165 1.234 1_556 S
Zn168 O174 1.920 . S
Zn168 O180 1.898 . S
Zn168 O183 1.905 . S
Zn169 O177 1.905 . S
Zn169 O178 1.898 . S
Zn169 O186 1.920 . S
Zn170 O173 2.080 . S
Zn170 O176 2.114 . S
Zn170 O179 2.120 . S
Zn170 O181 2.120 . S
Zn170 O182 2.114 . S
Zn170 O185 2.080 . S
C171 O176 1.166 . S
C171 O177 1.182 . S
C172 O178 1.167 . S
C172 O179 1.299 . S
O173 Zn170 2.080 . S
O173 C187 1.305 . S
O174 Zn168 1.920 . S
O174 C187 1.234 . S
C175 O180 1.167 . S
C175 O181 1.299 . S
O176 Zn170 2.114 . S
O176 C171 1.166 . S
O177 Zn169 1.905 . S
O177 C171 1.182 . S
O178 Zn169 1.898 . S
O178 C172 1.167 . S
O179 Zn170 2.120 . S
O179 C172 1.299 . S
O180 Zn168 1.898 . S
O180 C175 1.167 . S
O181 Zn170 2.120 . S
O181 C175 1.299 . S
O182 Zn170 2.114 . S
O182 C184 1.166 . S
O183 Zn168 1.905 . S
O183 C184 1.182 . S
C184 O182 1.166 . S
C184 O183 1.182 . S
O185 Zn170 2.080 . S
O185 C188 1.305 . S
O186 Zn169 1.920 . S
O186 C188 1.234 . S
C187 O173 1.305 . S
C187 O174 1.234 . S
C188 O185 1.305 . S
C188 O186 1.234 . S
Zn189 O195 1.920 . S
Zn189 O201 1.898 . S
Zn189 O204 1.905 . S
Zn190 O198 1.905 . S
Zn190 O199 1.898 . S
Zn190 O207 1.920 . S
Zn191 O194 2.080 . S
Zn191 O197 2.114 . S
Zn191 O200 2.120 . S
Zn191 O202 2.120 . S
Zn191 O203 2.114 . S
Zn191 O206 2.080 . S
C192 O197 1.166 . S
C192 O198 1.182 . S
C193 O199 1.167 . S
C193 O200 1.299 . S
O194 Zn191 2.080 . S
O194 C208 1.305 . S
O195 Zn189 1.920 . S
O195 C208 1.234 . S
C196 O201 1.167 . S
C196 O202 1.299 . S
O197 Zn191 2.114 . S
O197 C192 1.166 . S
O198 Zn190 1.905 . S
O198 C192 1.182 . S
O199 Zn190 1.898 . S
O199 C193 1.167 . S
O200 Zn191 2.120 . S
O200 C193 1.299 . S
O201 Zn189 1.898 . S
O201 C196 1.167 . S
O202 Zn191 2.120 . S
O202 C196 1.299 . S
O203 Zn191 2.114 . S
O203 C205 1.166 . S
O204 Zn189 1.905 . S
O204 C205 1.182 . S
C205 O203 1.166 . S
C205 O204 1.182 . S
O206 Zn191 2.080 . S
O206 C209 1.305 . S
O207 Zn190 1.920 . S
O207 C209 1.234 . S
C208 O194 1.305 . S
C208 O195 1.234 . S
C209 O206 1.305 . S
C209 O207 1.234 . S
Zn210 O216 1.920 . S
Zn210 O222 1.898 . S
Zn210 O225 1.905 . S
Zn211 O219 1.905 . S
Zn211 O220 1.898 . S
Zn211 O228 1.920 . S
Zn212 O215 2.080 . S
Zn212 O218 2.114 . S
Zn212 O221 2.120 . S
Zn212 O223 2.120 . S
Zn212 O224 2.114 . S
Zn212 O227 2.080 . S
C213 O218 1.166 . S
C213 O219 1.182 . S
C214 O220 1.167 . S
C214 O221 1.299 . S
O215 Zn212 2.080 . S
O215 C229 1.305 . S
O216 Zn210 1.920 . S
O216 C229 1.234 . S
C217 O222 1.167 . S
C217 O223 1.299 . S
O218 Zn212 2.114 . S
O218 C213 1.166 . S
O219 Zn211 1.905 . S
O219 C213 1.182 . S
O220 Zn211 1.898 . S
O220 C214 1.167 . S
O221 Zn212 2.120 . S
O221 C214 1.299 . S
O222 Zn210 1.898 . S
O222 C217 1.167 . S
O223 Zn212 2.120 . S
O223 C217 1.299 . S
O224 Zn212 2.114 . S
O224 C226 1.166 . S
O225 Zn210 1.905 . S
O225 C226 1.182 . S
C226 O224 1.166 . S
C226 O225 1.182 . S
O227 Zn212 2.080 . S
O227 C230 1.305 . S
O228 Zn211 1.920 . S
O228 C230 1.234 . S
C229 O215 1.305 . S
C229 O216 1.234 . S
C230 O227 1.305 . S
C230 O228 1.234 . S
Zn231 O237 1.920 . S
Zn231 O243 1.898 1_554 S
Zn231 O246 1.905 . S
Zn232 O240 1.905 . S
Zn232 O241 1.898 . S
Zn232 O249 1.920 . S
Zn233 O236 2.080 . S
Zn233 O239 2.114 . S
Zn233 O242 2.120 . S
Zn233 O244 2.120 . S
Zn233 O245 2.114 1_556 S
Zn233 O248 2.080 . S
C234 O239 1.166 . S
C234 O240 1.182 . S
C235 O241 1.167 . S
C235 O242 1.299 . S
O236 Zn233 2.080 . S
O236 C250 1.305 . S
O237 Zn231 1.920 . S
O237 C250 1.234 1_554 S
C238 O243 1.167 . S
C238 O244 1.299 . S
O239 Zn233 2.114 . S
O239 C234 1.166 . S
O240 Zn232 1.905 . S
O240 C234 1.182 . S
O241 Zn232 1.898 . S
O241 C235 1.167 . S
O242 Zn233 2.120 . S
O242 C235 1.299 . S
O243 Zn231 1.898 1_556 S
O243 C238 1.167 . S
O244 Zn233 2.120 . S
O244 C238 1.299 . S
O245 Zn233 2.114 1_554 S
O245 C247 1.166 . S
O246 Zn231 1.905 . S
O246 C247 1.182 . S
C247 O245 1.166 . S
C247 O246 1.182 . S
O248 Zn233 2.080 . S
O248 C251 1.305 . S
O249 Zn232 1.920 . S
O249 C251 1.234 . S
C250 O236 1.305 . S
C250 O237 1.234 1_556 S
C251 O248 1.305 . S
C251 O249 1.234 . S
Zn252 O258 1.920 . S
Zn252 O264 1.898 . S
Zn252 O267 1.905 . S
Zn253 O261 1.905 . S
Zn253 O262 1.898 . S
Zn253 O270 1.920 . S
Zn254 O257 2.080 . S
Zn254 O260 2.114 . S
Zn254 O263 2.120 . S
Zn254 O265 2.120 . S
Zn254 O266 2.114 . S
Zn254 O269 2.080 . S
C255 O260 1.166 . S
C255 O261 1.182 . S
C256 O262 1.167 . S
C256 O263 1.299 . S
O257 Zn254 2.080 . S
O257 C271 1.305 . S
O258 Zn252 1.920 . S
O258 C271 1.234 . S
C259 O264 1.167 . S
C259 O265 1.299 . S
O260 Zn254 2.114 . S
O260 C255 1.166 . S
O261 Zn253 1.905 . S
O261 C255 1.182 . S
O262 Zn253 1.898 . S
O262 C256 1.167 . S
O263 Zn254 2.120 . S
O263 C256 1.299 . S
O264 Zn252 1.898 . S
O264 C259 1.167 . S
O265 Zn254 2.120 . S
O265 C259 1.299 . S
O266 Zn254 2.114 . S
O266 C268 1.166 . S
O267 Zn252 1.905 . S
O267 C268 1.182 . S
C268 O266 1.166 . S
C268 O267 1.182 . S
O269 Zn254 2.080 . S
O269 C272 1.305 . S
O270 Zn253 1.920 . S
O270 C272 1.234 . S
C271 O257 1.305 . S
C271 O258 1.234 . S
C272 O269 1.305 . S
C272 O270 1.234 . S
Zn273 O279 1.920 . S
Zn273 O285 1.898 . S
Zn273 O288 1.905 . S
Zn274 O282 1.905 . S
Zn274 O283 1.898 . S
Zn274 O291 1.920 . S
Zn275 O278 2.080 . S
Zn275 O281 2.114 . S
Zn275 O284 2.120 . S
Zn275 O286 2.120 . S
Zn275 O287 2.114 . S
Zn275 O290 2.080 . S
C276 O281 1.166 . S
C276 O282 1.182 . S
C277 O283 1.167 . S
C277 O284 1.299 . S
O278 Zn275 2.080 . S
O278 C292 1.305 . S
O279 Zn273 1.920 . S
O279 C292 1.234 . S
C280 O285 1.167 . S
C280 O286 1.299 . S
O281 Zn275 2.114 . S
O281 C276 1.166 . S
O282 Zn274 1.905 . S
O282 C276 1.182 . S
O283 Zn274 1.898 . S
O283 C277 1.167 . S
O284 Zn275 2.120 . S
O284 C277 1.299 . S
O285 Zn273 1.898 . S
O285 C280 1.167 . S
O286 Zn275 2.120 . S
O286 C280 1.299 . S
O287 Zn275 2.114 . S
O287 C289 1.166 . S
O288 Zn273 1.905 . S
O288 C289 1.182 . S
C289 O287 1.166 . S
C289 O288 1.182 . S
O290 Zn275 2.080 . S
O290 C293 1.305 . S
O291 Zn274 1.920 . S
O291 C293 1.234 . S
C292 O278 1.305 . S
C292 O279 1.234 . S
C293 O290 1.305 . S
C293 O291 1.234 . S
Zn294 O300 1.920 . S
Zn294 O306 1.898 . S
Zn294 O309 1.905 . S
Zn295 O303 1.905 . S
Zn295 O304 1.898 . S
Zn295 O312 1.920 . S
Zn296 O299 2.080 . S
Zn296 O302 2.114 . S
Zn296 O305 2.120 . S
Zn296 O307 2.120 . S
Zn296 O308 2.114 . S
Zn296 O311 2.080 . S
C297 O302 1.166 . S
C297 O303 1.182 . S
C298 O304 1.167 . S
C298 O305 1.299 . S
O299 Zn296 2.080 . S
O299 C313 1.305 . S
O300 Zn294 1.920 . S
O300 C313 1.234 . S
C301 O306 1.167 . S
C301 O307 1.299 . S
O302 Zn296 2.114 . S
O302 C297 1.166 . S
O303 Zn295 1.905 . S
O303 C297 1.182 . S
O304 Zn295 1.898 . S
O304 C298 1.167 . S
O305 Zn296 2.120 . S
O305 C298 1.299 . S
O306 Zn294 1.898 . S
O306 C301 1.167 . S
O307 Zn296 2.120 . S
O307 C301 1.299 . S
O308 Zn296 2.114 . S
O308 C310 1.166 . S
O309 Zn294 1.905 . S
O309 C310 1.182 . S
C310 O308 1.166 . S
C310 O309 1.182 . S
O311 Zn296 2.080 . S
O311 C314 1.305 . S
O312 Zn295 1.920 . S
O312 C314 1.234 . S
C313 O299 1.305 . S
C313 O300 1.234 . S
C314 O311 1.305 . S
C314 O312 1.234 . S
Zn315 O321 1.920 . S
Zn315 O327 1.898 . S
Zn315 O330 1.905 . S
Zn316 O324 1.905 . S
Zn316 O325 1.898 1_556 S
Zn316 O333 1.920 . S
Zn317 O320 2.080 . S
Zn317 O323 2.114 1_554 S
Zn317 O326 2.120 . S
Zn317 O328 2.120 . S
Zn317 O329 2.114 . S
Zn317 O332 2.080 . S
C318 O323 1.166 . S
C318 O324 1.182 . S
C319 O325 1.167 . S
C319 O326 1.299 . S
O320 Zn317 2.080 . S
O320 C334 1.305 . S
O321 Zn315 1.920 . S
O321 C334 1.234 . S
C322 O327 1.167 . S
C322 O328 1.299 . S
O323 Zn317 2.114 1_556 S
O323 C318 1.166 . S
O324 Zn316 1.905 . S
O324 C318 1.182 . S
O325 Zn316 1.898 1_554 S
O325 C319 1.167 . S
O326 Zn317 2.120 . S
O326 C319 1.299 . S
O327 Zn315 1.898 . S
O327 C322 1.167 . S
O328 Zn317 2.120 . S
O328 C322 1.299 . S
O329 Zn317 2.114 . S
O329 C331 1.166 . S
O330 Zn315 1.905 . S
O330 C331 1.182 . S
C331 O329 1.166 . S
C331 O330 1.182 . S
O332 Zn317 2.080 . S
O332 C335 1.305 . S
O333 Zn316 1.920 . S
O333 C335 1.234 1_556 S
C334 O320 1.305 . S
C334 O321 1.234 . S
C335 O332 1.305 . S
C335 O333 1.234 1_554 S
Zn336 O342 1.920 . S
Zn336 O348 1.898 . S
Zn336 O351 1.905 . S
Zn337 O345 1.905 . S
Zn337 O346 1.898 . S
Zn337 O354 1.920 . S
Zn338 O341 2.080 . S
Zn338 O344 2.114 . S
Zn338 O347 2.120 . S
Zn338 O349 2.120 . S
Zn338 O350 2.114 . S
Zn338 O353 2.080 . S
C339 O344 1.166 . S
C339 O345 1.182 . S
C340 O346 1.167 . S
C340 O347 1.299 . S
O341 Zn338 2.080 . S
O341 C355 1.305 . S
O342 Zn336 1.920 . S
O342 C355 1.234 . S
C343 O348 1.167 . S
C343 O349 1.299 . S
O344 Zn338 2.114 . S
O344 C339 1.166 . S
O345 Zn337 1.905 . S
O345 C339 1.182 . S
O346 Zn337 1.898 . S
O346 C340 1.167 . S
O347 Zn338 2.120 . S
O347 C340 1.299 . S
O348 Zn336 1.898 . S
O348 C343 1.167 . S
O349 Zn338 2.120 . S
O349 C343 1.299 . S
O350 Zn338 2.114 . S
O350 C352 1.166 . S
O351 Zn336 1.905 . S
O351 C352 1.182 . S
C352 O350 1.166 . S
C352 O351 1.182 . S
O353 Zn338 2.080 . S
O353 C356 1.305 . S
O354 Zn337 1.920 . S
O354 C356 1.234 . S
C355 O341 1.305 . S
C355 O342 1.234 . S
C356 O353 1.305 . S
C356 O354 1.234 . S
Zn357 O363 1.920 . S
Zn357 O369 1.898 1_556 S
Zn357 O372 1.905 . S
Zn358 O366 1.905 . S
Zn358 O367 1.898 . S
Zn358 O375 1.920 . S
Zn359 O362 2.080 . S
Zn359 O365 2.114 . S
Zn359 O368 2.120 . S
Zn359 O370 2.120 . S
Zn359 O371 2.114 1_554 S
Zn359 O374 2.080 . S
C360 O365 1.166 . S
C360 O366 1.182 . S
C361 O367 1.167 . S
C361 O368 1.299 . S
O362 Zn359 2.080 . S
O362 C376 1.305 . S
O363 Zn357 1.920 . S
O363 C376 1.234 1_556 S
C364 O369 1.167 . S
C364 O370 1.299 . S
O365 Zn359 2.114 . S
O365 C360 1.166 . S
O366 Zn358 1.905 . S
O366 C360 1.182 . S
O367 Zn358 1.898 . S
O367 C361 1.167 . S
O368 Zn359 2.120 . S
O368 C361 1.299 . S
O369 Zn357 1.898 1_554 S
O369 C364 1.167 . S
O370 Zn359 2.120 . S
O370 C364 1.299 . S
O371 Zn359 2.114 1_556 S
O371 C373 1.166 . S
O372 Zn357 1.905 . S
O372 C373 1.182 . S
C373 O371 1.166 . S
C373 O372 1.182 . S
O374 Zn359 2.080 . S
O374 C377 1.305 . S
O375 Zn358 1.920 . S
O375 C377 1.234 . S
C376 O362 1.305 . S
C376 O363 1.234 1_554 S
C377 O374 1.305 . S
C377 O375 1.234 . S
Zn378 O384 1.920 . S
Zn378 O390 1.898 . S
Zn378 O393 1.905 . S
Zn379 O387 1.905 . S
Zn379 O388 1.898 . S
Zn379 O396 1.920 . S
Zn380 O383 2.080 . S
Zn380 O386 2.114 . S
Zn380 O389 2.120 . S
Zn380 O391 2.120 . S
Zn380 O392 2.114 . S
Zn380 O395 2.080 . S
C381 O386 1.166 . S
C381 O387 1.182 . S
C382 O388 1.167 . S
C382 O389 1.299 . S
O383 Zn380 2.080 . S
O383 C397 1.305 . S
O384 Zn378 1.920 . S
O384 C397 1.234 . S
C385 O390 1.167 . S
C385 O391 1.299 . S
O386 Zn380 2.114 . S
O386 C381 1.166 . S
O387 Zn379 1.905 . S
O387 C381 1.182 . S
O388 Zn379 1.898 . S
O388 C382 1.167 . S
O389 Zn380 2.120 . S
O389 C382 1.299 . S
O390 Zn378 1.898 . S
O390 C385 1.167 . S
O391 Zn380 2.120 . S
O391 C385 1.299 . S
O392 Zn380 2.114 . S
O392 C394 1.166 . S
O393 Zn378 1.905 . S
O393 C394 1.182 . S
C394 O392 1.166 . S
C394 O393 1.182 . S
O395 Zn380 2.080 . S
O395 C398 1.305 . S
O396 Zn379 1.920 . S
O396 C398 1.234 . S
C397 O383 1.305 . S
C397 O384 1.234 . S
C398 O395 1.305 . S
C398 O396 1.234 . S
Zn399 O405 1.920 . S
Zn399 O411 1.898 . S
Zn399 O414 1.905 . S
Zn400 O408 1.905 . S
Zn400 O409 1.898 . S
Zn400 O417 1.920 . S
Zn401 O404 2.080 . S
Zn401 O407 2.114 . S
Zn401 O410 2.120 . S
Zn401 O412 2.120 . S
Zn401 O413 2.114 . S
Zn401 O416 2.080 . S
C402 O407 1.166 . S
C402 O408 1.182 . S
C403 O409 1.167 . S
C403 O410 1.299 . S
O404 Zn401 2.080 . S
O404 C418 1.305 . S
O405 Zn399 1.920 . S
O405 C418 1.234 . S
C406 O411 1.167 . S
C406 O412 1.299 . S
O407 Zn401 2.114 . S
O407 C402 1.166 . S
O408 Zn400 1.905 . S
O408 C402 1.182 . S
O409 Zn400 1.898 . S
O409 C403 1.167 . S
O410 Zn401 2.120 . S
O410 C403 1.299 . S
O411 Zn399 1.898 . S
O411 C406 1.167 . S
O412 Zn401 2.120 . S
O412 C406 1.299 . S
O413 Zn401 2.114 . S
O413 C415 1.166 . S
O414 Zn399 1.905 . S
O414 C415 1.182 . S
C415 O413 1.166 . S
C415 O414 1.182 . S
O416 Zn401 2.080 . S
O416 C419 1.305 . S
O417 Zn400 1.920 . S
O417 C419 1.234 . S
C418 O404 1.305 . S
C418 O405 1.234 . S
C419 O416 1.305 . S
C419 O417 1.234 . S
Zn420 O426 1.920 . S
Zn420 O432 1.898 . S
Zn420 O435 1.905 . S
Zn421 O429 1.905 . S
Zn421 O430 1.898 . S
Zn421 O438 1.920 . S
Zn422 O425 2.080 . S
Zn422 O428 2.114 . S
Zn422 O431 2.120 . S
Zn422 O433 2.120 . S
Zn422 O434 2.114 . S
Zn422 O437 2.080 . S
C423 O428 1.166 . S
C423 O429 1.182 . S
C424 O430 1.167 . S
C424 O431 1.299 . S
O425 Zn422 2.080 . S
O425 C439 1.305 . S
O426 Zn420 1.920 . S
O426 C439 1.234 . S
C427 O432 1.167 . S
C427 O433 1.299 . S
O428 Zn422 2.114 . S
O428 C423 1.166 . S
O429 Zn421 1.905 . S
O429 C423 1.182 . S
O430 Zn421 1.898 . S
O430 C424 1.167 . S
O431 Zn422 2.120 . S
O431 C424 1.299 . S
O432 Zn420 1.898 . S
O432 C427 1.167 . S
O433 Zn422 2.120 . S
O433 C427 1.299 . S
O434 Zn422 2.114 . S
O434 C436 1.166 . S
O435 Zn420 1.905 . S
O435 C436 1.182 . S
C436 O434 1.166 . S
C436 O435 1.182 . S
O437 Zn422 2.080 . S
O437 C440 1.305 . S
O438 Zn421 1.920 . S
O438 C440 1.234 . S
C439 O425 1.305 . S
C439 O426 1.234 . S
C440 O437 1.305 . S
C440 O438 1.234 . S
Zn441 O447 1.920 . S
Zn441 O453 1.898 . S
Zn441 O456 1.905 . S
Zn442 O450 1.905 . S
Zn442 O451 1.898 1_554 S
Zn442 O459 1.920 . S
Zn443 O446 2.080 . S
Zn443 O449 2.114 1_556 S
Zn443 O452 2.120 . S
Zn443 O454 2.120 . S
Zn443 O455 2.114 . S
Zn443 O458 2.080 . S
C444 O449 1.166 . S
C444 O450 1.182 . S
C445 O451 1.167 . S
C445 O452 1.299 . S
O446 Zn443 2.080 . S
O446 C460 1.305 . S
O447 Zn441 1.920 . S
O447 C460 1.234 . S
C448 O453 1.167 . S
C448 O454 1.299 . S
O449 Zn443 2.114 1_554 S
O449 C444 1.166 . S
O450 Zn442 1.905 . S
O450 C444 1.182 . S
O451 Zn442 1.898 1_556 S
O451 C445 1.167 . S
O452 Zn443 2.120 . S
O452 C445 1.299 . S
O453 Zn441 1.898 . S
O453 C448 1.167 . S
O454 Zn443 2.120 . S
O454 C448 1.299 . S
O455 Zn443 2.114 . S
O455 C457 1.166 . S
O456 Zn441 1.905 . S
O456 C457 1.182 . S
C457 O455 1.166 . S
C457 O456 1.182 . S
O458 Zn443 2.080 . S
O458 C461 1.305 . S
O459 Zn442 1.920 . S
O459 C461 1.234 1_554 S
C460 O446 1.305 . S
C460 O447 1.234 . S
C461 O458 1.305 . S
C461 O459 1.234 1_556 S
Zn462 O468 1.920 . S
Zn462 O474 1.898 . S
Zn462 O477 1.905 . S
Zn463 O471 1.905 . S
Zn463 O472 1.898 . S
Zn463 O480 1.920 . S
Zn464 O467 2.080 . S
Zn464 O470 2.114 . S
Zn464 O473 2.120 . S
Zn464 O475 2.120 . S
Zn464 O476 2.114 . S
Zn464 O479 2.080 . S
C465 O470 1.166 . S
C465 O471 1.182 . S
C466 O472 1.167 . S
C466 O473 1.299 . S
O467 Zn464 2.080 . S
O467 C481 1.305 . S
O468 Zn462 1.920 . S
O468 C481 1.234 . S
C469 O474 1.167 . S
C469 O475 1.299 . S
O470 Zn464 2.114 . S
O470 C465 1.166 . S
O471 Zn463 1.905 . S
O471 C465 1.182 . S
O472 Zn463 1.898 . S
O472 C466 1.167 . S
O473 Zn464 2.120 . S
O473 C466 1.299 . S
O474 Zn462 1.898 . S
O474 C469 1.167 . S
O475 Zn464 2.120 . S
O475 C469 1.299 . S
O476 Zn464 2.114 . S
O476 C478 1.166 . S
O477 Zn462 1.905 . S
O477 C478 1.182 . S
C478 O476 1.166 . S
C478 O477 1.182 . S
O479 Zn464 2.080 . S
O479 C482 1.305 . S
O480 Zn463 1.920 . S
O480 C482 1.234 . S
C481 O467 1.305 . S
C481 O468 1.234 . S
C482 O479 1.305 . S
C482 O480 1.234 . S
Zn483 O489 1.920 . S
Zn483 O495 1.898 . S
Zn483 O498 1.905 . S
Zn484 O492 1.905 . S
Zn484 O493 1.898 . S
Zn484 O501 1.920 . S
Zn485 O488 2.080 . S
Zn485 O491 2.114 . S
Zn485 O494 2.120 . S
Zn485 O496 2.120 . S
Zn485 O497 2.114 . S
Zn485 O500 2.080 . S
C486 O491 1.166 . S
C486 O492 1.182 . S
C487 O493 1.167 . S
C487 O494 1.299 . S
O488 Zn485 2.080 . S
O488 C502 1.305 . S
O489 Zn483 1.920 . S
O489 C502 1.234 . S
C490 O495 1.167 . S
C490 O496 1.299 . S
O491 Zn485 2.114 . S
O491 C486 1.166 . S
O492 Zn484 1.905 . S
O492 C486 1.182 . S
O493 Zn484 1.898 . S
O493 C487 1.167 . S
O494 Zn485 2.120 . S
O494 C487 1.299 . S
O495 Zn483 1.898 . S
O495 C490 1.167 . S
O496 Zn485 2.120 . S
O496 C490 1.299 . S
O497 Zn485 2.114 . S
O497 C499 1.166 . S
O498 Zn483 1.905 . S
O498 C499 1.182 . S
C499 O497 1.166 . S
C499 O498 1.182 . S
O500 Zn485 2.080 . S
O500 C503 1.305 . S
O501 Zn484 1.920 . S
O501 C503 1.234 . S
C502 O488 1.305 . S
C502 O489 1.234 . S
C503 O500 1.305 . S
C503 O501 1.234 . S
Zn504 O510 1.920 . S
Zn504 O516 1.898 . S
Zn504 O519 1.905 . S
Zn505 O513 1.905 . S
Zn505 O514 1.898 . S
Zn505 O522 1.920 . S
Zn506 O509 2.080 . S
Zn506 O512 2.114 . S
Zn506 O515 2.120 . S
Zn506 O517 2.120 . S
Zn506 O518 2.114 . S
Zn506 O521 2.080 . S
C507 O512 1.166 . S
C507 O513 1.182 . S
C508 O514 1.167 . S
C508 O515 1.299 . S
O509 Zn506 2.080 . S
O509 C523 1.305 . S
O510 Zn504 1.920 . S
O510 C523 1.234 . S
C511 O516 1.167 . S
C511 O517 1.299 . S
O512 Zn506 2.114 . S
O512 C507 1.166 . S
O513 Zn505 1.905 . S
O513 C507 1.182 . S
O514 Zn505 1.898 . S
O514 C508 1.167 . S
O515 Zn506 2.120 . S
O515 C508 1.299 . S
O516 Zn504 1.898 . S
O516 C511 1.167 . S
O517 Zn506 2.120 . S
O517 C511 1.299 . S
O518 Zn506 2.114 . S
O518 C520 1.166 . S
O519 Zn504 1.905 . S
O519 C520 1.182 . S
C520 O518 1.166 . S
C520 O519 1.182 . S
O521 Zn506 2.080 . S
O521 C524 1.305 . S
O522 Zn505 1.920 . S
O522 C524 1.234 . S
C523 O509 1.305 . S
C523 O510 1.234 . S
C524 O521 1.305 . S
C524 O522 1.234 . S
Zn525 O531 1.920 . S
Zn525 O537 1.898 1_554 S
Zn525 O540 1.905 . S
Zn526 O534 1.905 . S
Zn526 O535 1.898 . S
Zn526 O543 1.920 . S
Zn527 O530 2.080 . S
Zn527 O533 2.114 . S
Zn527 O536 2.120 . S
Zn527 O538 2.120 . S
Zn527 O539 2.114 1_556 S
Zn527 O542 2.080 . S
C528 O533 1.166 . S
C528 O534 1.182 . S
C529 O535 1.167 . S
C529 O536 1.299 . S
O530 Zn527 2.080 . S
O530 C544 1.305 . S
O531 Zn525 1.920 . S
O531 C544 1.234 1_554 S
C532 O537 1.167 . S
C532 O538 1.299 . S
O533 Zn527 2.114 . S
O533 C528 1.166 . S
O534 Zn526 1.905 . S
O534 C528 1.182 . S
O535 Zn526 1.898 . S
O535 C529 1.167 . S
O536 Zn527 2.120 . S
O536 C529 1.299 . S
O537 Zn525 1.898 1_556 S
O537 C532 1.167 . S
O538 Zn527 2.120 . S
O538 C532 1.299 . S
O539 Zn527 2.114 1_554 S
O539 C541 1.166 . S
O540 Zn525 1.905 . S
O540 C541 1.182 . S
C541 O539 1.166 . S
C541 O540 1.182 . S
O542 Zn527 2.080 . S
O542 C545 1.305 . S
O543 Zn526 1.920 . S
O543 C545 1.234 . S
C544 O530 1.305 . S
C544 O531 1.234 1_556 S
C545 O542 1.305 . S
C545 O543 1.234 . S
Zn546 O552 1.920 . S
Zn546 O558 1.898 . S
Zn546 O561 1.905 . S
Zn547 O555 1.905 . S
Zn547 O556 1.898 . S
Zn547 O564 1.920 . S
Zn548 O551 2.080 . S
Zn548 O554 2.114 . S
Zn548 O557 2.120 . S
Zn548 O559 2.120 . S
Zn548 O560 2.114 . S
Zn548 O563 2.080 . S
C549 O554 1.166 . S
C549 O555 1.182 . S
C550 O556 1.167 . S
C550 O557 1.299 . S
O551 Zn548 2.080 . S
O551 C565 1.305 . S
O552 Zn546 1.920 . S
O552 C565 1.234 . S
C553 O558 1.167 . S
C553 O559 1.299 . S
O554 Zn548 2.114 . S
O554 C549 1.166 . S
O555 Zn547 1.905 . S
O555 C549 1.182 . S
O556 Zn547 1.898 . S
O556 C550 1.167 . S
O557 Zn548 2.120 . S
O557 C550 1.299 . S
O558 Zn546 1.898 . S
O558 C553 1.167 . S
O559 Zn548 2.120 . S
O559 C553 1.299 . S
O560 Zn548 2.114 . S
O560 C562 1.166 . S
O561 Zn546 1.905 . S
O561 C562 1.182 . S
C562 O560 1.166 . S
C562 O561 1.182 . S
O563 Zn548 2.080 . S
O563 C566 1.305 . S
O564 Zn547 1.920 . S
O564 C566 1.234 . S
C565 O551 1.305 . S
C565 O552 1.234 . S
C566 O563 1.305 . S
C566 O564 1.234 . S
Zn567 O573 1.920 . S
Zn567 O579 1.898 . S
Zn567 O582 1.905 . S
Zn568 O576 1.905 . S
Zn568 O577 1.898 . S
Zn568 O585 1.920 . S
Zn569 O572 2.080 . S
Zn569 O575 2.114 . S
Zn569 O578 2.120 . S
Zn569 O580 2.120 . S
Zn569 O581 2.114 . S
Zn569 O584 2.080 . S
C570 O575 1.166 . S
C570 O576 1.182 . S
C571 O577 1.167 . S
C571 O578 1.299 . S
O572 Zn569 2.080 . S
O572 C586 1.305 . S
O573 Zn567 1.920 . S
O573 C586 1.234 . S
C574 O579 1.167 . S
C574 O580 1.299 . S
O575 Zn569 2.114 . S
O575 C570 1.166 . S
O576 Zn568 1.905 . S
O576 C570 1.182 . S
O577 Zn568 1.898 . S
O577 C571 1.167 . S
O578 Zn569 2.120 . S
O578 C571 1.299 . S
O579 Zn567 1.898 . S
O579 C574 1.167 . S
O580 Zn569 2.120 . S
O580 C574 1.299 . S
O581 Zn569 2.114 . S
O581 C583 1.166 . S
O582 Zn567 1.905 . S
O582 C583 1.182 . S
C583 O581 1.166 . S
C583 O582 1.182 . S
O584 Zn569 2.080 . S
O584 C587 1.305 . S
O585 Zn568 1.920 . S
O585 C587 1.234 . S
C586 O572 1.305 . S
C586 O573 1.234 . S
C587 O584 1.305 . S
C587 O585 1.234 . S
Zn588 O594 1.920 . S
Zn588 O600 1.898 . S
Zn588 O603 1.905 . S
Zn589 O597 1.905 . S
Zn589 O598 1.898 . S
Zn589 O606 1.920 . S
Zn590 O593 2.080 . S
Zn590 O596 2.114 . S
Zn590 O599 2.120 . S
Zn590 O601 2.120 . S
Zn590 O602 2.114 . S
Zn590 O605 2.080 . S
C591 O596 1.166 . S
C591 O597 1.182 . S
C592 O598 1.167 . S
C592 O599 1.299 . S
O593 Zn590 2.080 . S
O593 C607 1.305 . S
O594 Zn588 1.920 . S
O594 C607 1.234 . S
C595 O600 1.167 . S
C595 O601 1.299 . S
O596 Zn590 2.114 . S
O596 C591 1.166 . S
O597 Zn589 1.905 . S
O597 C591 1.182 . S
O598 Zn589 1.898 . S
O598 C592 1.167 . S
O599 Zn590 2.120 . S
O599 C592 1.299 . S
O600 Zn588 1.898 . S
O600 C595 1.167 . S
O601 Zn590 2.120 . S
O601 C595 1.299 . S
O602 Zn590 2.114 . S
O602 C604 1.166 . S
O603 Zn588 1.905 . S
O603 C604 1.182 . S
C604 O602 1.166 . S
C604 O603 1.182 . S
O605 Zn590 2.080 . S
O605 C608 1.305 . S
O606 Zn589 1.920 . S
O606 C608 1.234 . S
C607 O593 1.305 . S
C607 O594 1.234 . S
C608 O605 1.305 . S
C608 O606 1.234 . S
Zn609 O615 1.920 . S
Zn609 O621 1.898 1_556 S
Zn609 O624 1.905 . S
Zn610 O618 1.905 . S
Zn610 O619 1.898 . S
Zn610 O627 1.920 . S
Zn611 O614 2.080 . S
Zn611 O617 2.114 . S
Zn611 O620 2.120 . S
Zn611 O622 2.120 . S
Zn611 O623 2.114 1_554 S
Zn611 O626 2.080 . S
C612 O617 1.166 . S
C612 O618 1.182 . S
C613 O619 1.167 . S
C613 O620 1.299 . S
O614 Zn611 2.080 . S
O614 C628 1.305 . S
O615 Zn609 1.920 . S
O615 C628 1.234 1_556 S
C616 O621 1.167 . S
C616 O622 1.299 . S
O617 Zn611 2.114 . S
O617 C612 1.166 . S
O618 Zn610 1.905 . S
O618 C612 1.182 . S
O619 Zn610 1.898 . S
O619 C613 1.167 . S
O620 Zn611 2.120 . S
O620 C613 1.299 . S
O621 Zn609 1.898 1_554 S
O621 C616 1.167 . S
O622 Zn611 2.120 . S
O622 C616 1.299 . S
O623 Zn611 2.114 1_556 S
O623 C625 1.166 . S
O624 Zn609 1.905 . S
O624 C625 1.182 . S
C625 O623 1.166 . S
C625 O624 1.182 . S
O626 Zn611 2.080 . S
O626 C629 1.305 . S
O627 Zn610 1.920 . S
O627 C629 1.234 . S
C628 O614 1.305 . S
C628 O615 1.234 1_554 S
C629 O626 1.305 . S
C629 O627 1.234 . S
Zn630 O636 1.920 . S
Zn630 O642 1.898 . S
Zn630 O645 1.905 . S
Zn631 O639 1.905 . S
Zn631 O640 1.898 . S
Zn631 O648 1.920 . S
Zn632 O635 2.080 . S
Zn632 O638 2.114 . S
Zn632 O641 2.120 . S
Zn632 O643 2.120 . S
Zn632 O644 2.114 . S
Zn632 O647 2.080 . S
C633 O638 1.166 . S
C633 O639 1.182 . S
C634 O640 1.167 . S
C634 O641 1.299 . S
O635 Zn632 2.080 . S
O635 C649 1.305 . S
O636 Zn630 1.920 . S
O636 C649 1.234 . S
C637 O642 1.167 . S
C637 O643 1.299 . S
O638 Zn632 2.114 . S
O638 C633 1.166 . S
O639 Zn631 1.905 . S
O639 C633 1.182 . S
O640 Zn631 1.898 . S
O640 C634 1.167 . S
O641 Zn632 2.120 . S
O641 C634 1.299 . S
O642 Zn630 1.898 . S
O642 C637 1.167 . S
O643 Zn632 2.120 . S
O643 C637 1.299 . S
O644 Zn632 2.114 . S
O644 C646 1.166 . S
O645 Zn630 1.905 . S
O645 C646 1.182 . S
C646 O644 1.166 . S
C646 O645 1.182 . S
O647 Zn632 2.080 . S
O647 C650 1.305 . S
O648 Zn631 1.920 . S
O648 C650 1.234 . S
C649 O635 1.305 . S
C649 O636 1.234 . S
C650 O647 1.305 . S
C650 O648 1.234 . S
Zn651 O657 1.920 . S
Zn651 O663 1.898 . S
Zn651 O666 1.905 . S
Zn652 O660 1.905 . S
Zn652 O661 1.898 . S
Zn652 O669 1.920 . S
Zn653 O656 2.080 . S
Zn653 O659 2.114 . S
Zn653 O662 2.120 . S
Zn653 O664 2.120 . S
Zn653 O665 2.114 . S
Zn653 O668 2.080 . S
C654 O659 1.166 . S
C654 O660 1.182 . S
C655 O661 1.167 . S
C655 O662 1.299 . S
O656 Zn653 2.080 . S
O656 C670 1.305 . S
O657 Zn651 1.920 . S
O657 C670 1.234 . S
C658 O663 1.167 . S
C658 O664 1.299 . S
O659 Zn653 2.114 . S
O659 C654 1.166 . S
O660 Zn652 1.905 . S
O660 C654 1.182 . S
O661 Zn652 1.898 . S
O661 C655 1.167 . S
O662 Zn653 2.120 . S
O662 C655 1.299 . S
O663 Zn651 1.898 . S
O663 C658 1.167 . S
O664 Zn653 2.120 . S
O664 C658 1.299 . S
O665 Zn653 2.114 . S
O665 C667 1.166 . S
O666 Zn651 1.905 . S
O666 C667 1.182 . S
C667 O665 1.166 . S
C667 O666 1.182 . S
O668 Zn653 2.080 . S
O668 C671 1.305 . S
O669 Zn652 1.920 . S
O669 C671 1.234 . S
C670 O656 1.305 . S
C670 O657 1.234 . S
C671 O668 1.305 . S
C671 O669 1.234 . S
H672 C680 0.929 . S
H673 C682 0.930 . S
H674 C684 0.930 . S
H675 C687 0.929 . S
H676 C690 0.930 . S
H677 C692 0.960 . S
H678 C692 0.960 . S
H679 C692 0.960 . S
C680 H672 0.929 . S
C680 C681 1.377 . S
C680 C682 1.384 . S
C681 C680 1.377 . S
C681 C687 1.390 . S
C682 H673 0.930 . S
C682 C680 1.384 . S
C682 C683 1.372 . S
C683 C682 1.372 . S
C683 C684 1.400 . S
C683 C688 1.490 . S
C684 H674 0.930 . S
C684 C683 1.400 . S
C684 C687 1.386 . S
H685 C701 0.930 . S
H686 C702 0.931 . S
C687 H675 0.929 . S
C687 C681 1.390 . S
C687 C684 1.386 . S
C688 C683 1.490 . S
C688 C690 1.395 . S
C688 C691 1.403 . S
H689 C695 0.930 . S
C690 H676 0.930 . S
C690 C688 1.395 . S
C690 C693 1.403 1_545 S
C691 C688 1.403 . S
C691 C692 1.524 . S
C691 C695 1.400 1_545 S
C692 H677 0.960 . S
C692 H678 0.960 . S
C692 H679 0.960 . S
C692 C691 1.524 . S
C693 C690 1.403 1_565 S
C693 C694 1.392 . S
C693 C697 1.495 . S
C694 C693 1.392 . S
C694 C695 1.385 . S
C694 C696 1.478 . S
C695 H689 0.930 . S
C695 C691 1.400 1_565 S
C695 C694 1.385 . S
C696 C694 1.478 . S
C696 C698 1.381 . S
C696 C702 1.383 . S
C697 C693 1.495 . S
C697 H703 0.959 . S
C697 H704 0.961 . S
C697 H705 0.960 . S
C698 C696 1.381 . S
C698 C699 1.394 . S
C698 H706 0.930 . S
C699 C698 1.394 . S
C699 C700 1.383 . S
C699 H707 0.929 . S
C700 C699 1.383 . S
C700 C701 1.377 . S
C701 H685 0.930 . S
C701 C700 1.377 . S
C701 C702 1.379 . S
C702 H686 0.931 . S
C702 C696 1.383 . S
C702 C701 1.379 . S
H703 C697 0.959 . S
H704 C697 0.961 . S
H705 C697 0.960 . S
H706 C698 0.930 . S
H707 C699 0.929 . S
H708 C716 0.929 . S
H709 C718 0.930 . S
H710 C720 0.930 . S
H711 C723 0.929 . S
H712 C726 0.930 . S
H713 C728 0.960 . S
H714 C728 0.960 . S
H715 C728 0.960 . S
C716 H708 0.929 . S
C716 C717 1.377 . S
C716 C718 1.384 . S
C717 C716 1.377 . S
C717 C723 1.390 . S
C718 H709 0.930 . S
C718 C716 1.384 . S
C718 C719 1.372 . S
C719 C718 1.372 . S
C719 C720 1.400 . S
C719 C724 1.490 . S
C720 H710 0.930 . S
C720 C719 1.400 . S
C720 C723 1.386 . S
H721 C737 0.930 . S
H722 C738 0.931 . S
C723 H711 0.929 . S
C723 C717 1.390 . S
C723 C720 1.386 . S
C724 C719 1.490 . S
C724 C726 1.395 . S
C724 C727 1.403 . S
H725 C731 0.930 . S
C726 H712 0.930 . S
C726 C724 1.395 . S
C726 C729 1.403 . S
C727 C724 1.403 . S
C727 C728 1.524 . S
C727 C731 1.400 . S
C728 H713 0.960 . S
C728 H714 0.960 . S
C728 H715 0.960 . S
C728 C727 1.524 . S
C729 C726 1.403 . S
C729 C730 1.392 . S
C729 C733 1.495 . S
C730 C729 1.392 . S
C730 C731 1.385 . S
C730 C732 1.478 . S
C731 H725 0.930 . S
C731 C727 1.400 . S
C731 C730 1.385 . S
C732 C730 1.478 . S
C732 C734 1.381 . S
C732 C738 1.383 . S
C733 C729 1.495 . S
C733 H739 0.959 . S
C733 H740 0.961 . S
C733 H741 0.960 . S
C734 C732 1.381 . S
C734 C735 1.394 . S
C734 H742 0.930 . S
C735 C734 1.394 . S
C735 C736 1.383 . S
C735 H743 0.929 . S
C736 C735 1.383 . S
C736 C737 1.377 . S
C737 H721 0.930 . S
C737 C736 1.377 . S
C737 C738 1.379 . S
C738 H722 0.931 . S
C738 C732 1.383 . S
C738 C737 1.379 . S
H739 C733 0.959 . S
H740 C733 0.961 . S
H741 C733 0.960 . S
H742 C734 0.930 . S
H743 C735 0.929 . S
H744 C752 0.929 . S
H745 C754 0.930 . S
H746 C756 0.930 . S
H747 C759 0.929 . S
H748 C762 0.930 . S
H749 C764 0.958 . S
H750 C764 0.960 . S
H751 C764 0.960 . S
C752 H744 0.929 . S
C752 C753 1.377 . S
C752 C754 1.384 . S
C753 C752 1.377 . S
C753 C759 1.390 . S
C754 H745 0.930 . S
C754 C752 1.384 . S
C754 C755 1.372 . S
C755 C754 1.372 . S
C755 C756 1.400 . S
C755 C760 1.490 . S
C756 H746 0.930 . S
C756 C755 1.400 . S
C756 C759 1.386 . S
H757 C773 0.930 . S
H758 C774 0.931 . S
C759 H747 0.929 . S
C759 C753 1.390 . S
C759 C756 1.386 . S
C760 C755 1.490 . S
C760 C762 1.395 . S
C760 C763 1.403 . S
H761 C767 0.930 . S
C762 H748 0.930 . S
C762 C760 1.395 . S
C762 C765 1.403 1_545 S
C763 C760 1.403 . S
C763 C764 1.524 . S
C763 C767 1.400 1_545 S
C764 H749 0.958 . S
C764 H750 0.960 . S
C764 H751 0.960 . S
C764 C763 1.524 . S
C765 C762 1.403 1_565 S
C765 C766 1.392 . S
C765 C769 1.495 . S
C766 C765 1.392 . S
C766 C767 1.385 . S
C766 C768 1.478 . S
C767 H761 0.930 . S
C767 C763 1.400 1_565 S
C767 C766 1.385 . S
C768 C766 1.478 . S
C768 C770 1.381 . S
C768 C774 1.383 . S
C769 C765 1.495 . S
C769 H775 0.946 1_565 S
C769 H776 0.961 . S
C769 H777 0.960 . S
C770 C768 1.381 . S
C770 C771 1.394 . S
C770 H778 0.930 . S
C771 C770 1.394 . S
C771 C772 1.383 . S
C771 H779 0.929 . S
C772 C771 1.383 . S
C772 C773 1.377 . S
C773 H757 0.930 . S
C773 C772 1.377 . S
C773 C774 1.379 . S
C774 H758 0.931 . S
C774 C768 1.383 . S
C774 C773 1.379 . S
H775 C769 0.946 1_545 S
H776 C769 0.961 . S
H777 C769 0.960 . S
H778 C770 0.930 . S
H779 C771 0.929 . S
H780 C788 0.929 . S
H781 C790 0.930 . S
H782 C792 0.930 . S
H783 C795 0.929 . S
H784 C798 0.930 . S
H785 C800 0.960 . S
H786 C800 0.960 . S
H787 C800 0.960 . S
C788 H780 0.929 . S
C788 C789 1.377 . S
C788 C790 1.384 . S
C789 C788 1.377 . S
C789 C795 1.390 . S
C790 H781 0.930 . S
C790 C788 1.384 . S
C790 C791 1.372 . S
C791 C790 1.372 . S
C791 C792 1.400 . S
C791 C796 1.490 . S
C792 H782 0.930 . S
C792 C791 1.400 . S
C792 C795 1.386 . S
H793 C809 0.930 . S
H794 C810 0.931 . S
C795 H783 0.929 . S
C795 C789 1.390 . S
C795 C792 1.386 . S
C796 C791 1.490 . S
C796 C798 1.395 1_554 S
C796 C799 1.403 . S
H797 C803 0.930 . S
C798 H784 0.930 . S
C798 C796 1.395 1_556 S
C798 C801 1.403 . S
C799 C796 1.403 . S
C799 C800 1.524 . S
C799 C803 1.400 . S
C800 H785 0.960 . S
C800 H786 0.960 . S
C800 H787 0.960 . S
C800 C799 1.524 . S
C801 C798 1.403 . S
C801 C802 1.392 . S
C801 C805 1.495 . S
C802 C801 1.392 . S
C802 C803 1.385 1_556 S
C802 C804 1.478 . S
C803 H797 0.930 . S
C803 C799 1.400 . S
C803 C802 1.385 1_554 S
C804 C802 1.478 . S
C804 C806 1.381 . S
C804 C810 1.383 . S
C805 C801 1.495 . S
C805 H811 0.959 . S
C805 H812 0.961 . S
C805 H813 0.960 . S
C806 C804 1.381 . S
C806 C807 1.394 . S
C806 H814 0.930 . S
C807 C806 1.394 . S
C807 C808 1.383 . S
C807 H815 0.929 . S
C808 C807 1.383 . S
C808 C809 1.377 . S
C809 H793 0.930 . S
C809 C808 1.377 . S
C809 C810 1.379 . S
C810 H794 0.931 . S
C810 C804 1.383 . S
C810 C809 1.379 . S
H811 C805 0.959 . S
H812 C805 0.961 . S
H813 C805 0.960 . S
H814 C806 0.930 . S
H815 C807 0.929 . S
H816 C824 0.929 . S
H817 C826 0.930 . S
H818 C828 0.930 . S
H819 C831 0.929 . S
H820 C834 0.930 . S
H821 C836 0.960 1_545 S
H822 C836 0.960 . S
H823 C836 0.960 . S
C824 H816 0.929 . S
C824 C825 1.377 . S
C824 C826 1.384 . S
C825 C824 1.377 . S
C825 C831 1.390 . S
C826 H817 0.930 . S
C826 C824 1.384 . S
C826 C827 1.372 . S
C827 C826 1.372 . S
C827 C828 1.400 . S
C827 C832 1.490 . S
C828 H818 0.930 . S
C828 C827 1.400 . S
C828 C831 1.386 . S
H829 C845 0.930 . S
H830 C846 0.931 . S
C831 H819 0.929 . S
C831 C825 1.390 . S
C831 C828 1.386 . S
C832 C827 1.490 . S
C832 C834 1.395 . S
C832 C835 1.403 . S
H833 C839 0.930 . S
C834 H820 0.930 . S
C834 C832 1.395 . S
C834 C837 1.403 1_565 S
C835 C832 1.403 . S
C835 C836 1.524 . S
C835 C839 1.400 1_565 S
C836 H821 0.960 1_565 S
C836 H822 0.960 . S
C836 H823 0.960 . S
C836 C835 1.524 . S
C837 C834 1.403 1_545 S
C837 C838 1.392 . S
C837 C841 1.495 . S
C838 C837 1.392 . S
C838 C839 1.385 . S
C838 C840 1.478 . S
C839 H833 0.930 . S
C839 C835 1.400 1_545 S
C839 C838 1.385 . S
C840 C838 1.478 . S
C840 C842 1.381 . S
C840 C846 1.383 . S
C841 C837 1.495 . S
C841 H847 0.959 1_545 S
C841 H848 0.961 . S
C841 H849 0.960 . S
C842 C840 1.381 . S
C842 C843 1.394 . S
C842 H850 0.930 . S
C843 C842 1.394 . S
C843 C844 1.383 . S
C843 H851 0.929 . S
C844 C843 1.383 . S
C844 C845 1.377 . S
C845 H829 0.930 . S
C845 C844 1.377 . S
C845 C846 1.379 . S
C846 H830 0.931 . S
C846 C840 1.383 . S
C846 C845 1.379 . S
H847 C841 0.959 1_565 S
H848 C841 0.961 . S
H849 C841 0.960 . S
H850 C842 0.930 . S
H851 C843 0.929 . S
H852 C860 0.929 . S
H853 C862 0.930 . S
H854 C864 0.930 . S
H855 C867 0.929 . S
H856 C870 0.930 . S
H857 C872 0.960 . S
H858 C872 0.960 . S
H859 C872 0.960 . S
C860 H852 0.929 . S
C860 C861 1.377 . S
C860 C862 1.384 . S
C861 C860 1.377 . S
C861 C867 1.390 . S
C862 H853 0.930 . S
C862 C860 1.384 . S
C862 C863 1.372 . S
C863 C862 1.372 . S
C863 C864 1.400 . S
C863 C868 1.490 . S
C864 H854 0.930 . S
C864 C863 1.400 . S
C864 C867 1.386 . S
H865 C881 0.930 . S
H866 C882 0.931 . S
C867 H855 0.929 . S
C867 C861 1.390 . S
C867 C864 1.386 . S
C868 C863 1.490 . S
C868 C870 1.395 . S
C868 C871 1.403 . S
H869 C875 0.930 . S
C870 H856 0.930 . S
C870 C868 1.395 . S
C870 C873 1.403 . S
C871 C868 1.403 . S
C871 C872 1.524 . S
C871 C875 1.400 . S
C872 H857 0.960 . S
C872 H858 0.960 . S
C872 H859 0.960 . S
C872 C871 1.524 . S
C873 C870 1.403 . S
C873 C874 1.392 . S
C873 C877 1.495 . S
C874 C873 1.392 . S
C874 C875 1.385 . S
C874 C876 1.478 . S
C875 H869 0.930 . S
C875 C871 1.400 . S
C875 C874 1.385 . S
C876 C874 1.478 . S
C876 C878 1.381 . S
C876 C882 1.383 . S
C877 C873 1.495 . S
C877 H883 0.959 . S
C877 H884 0.961 . S
C877 H885 0.960 . S
C878 C876 1.381 . S
C878 C879 1.394 . S
C878 H886 0.930 . S
C879 C878 1.394 . S
C879 C880 1.383 . S
C879 H887 0.929 . S
C880 C879 1.383 . S
C880 C881 1.377 . S
C881 H865 0.930 . S
C881 C880 1.377 . S
C881 C882 1.379 . S
C882 H866 0.931 . S
C882 C876 1.383 . S
C882 C881 1.379 . S
H883 C877 0.959 . S
H884 C877 0.961 . S
H885 C877 0.960 . S
H886 C878 0.930 . S
H887 C879 0.929 . S
H888 C896 0.929 . S
H889 C898 0.930 . S
H890 C900 0.930 . S
H891 C903 0.929 . S
H892 C906 0.930 . S
H893 C908 0.960 . S
H894 C908 0.960 . S
H895 C908 0.960 . S
C896 H888 0.929 . S
C896 C897 1.377 . S
C896 C898 1.384 . S
C897 C896 1.377 . S
C897 C903 1.390 . S
C898 H889 0.930 . S
C898 C896 1.384 . S
C898 C899 1.372 . S
C899 C898 1.372 . S
C899 C900 1.400 . S
C899 C904 1.490 . S
C900 H890 0.930 . S
C900 C899 1.400 . S
C900 C903 1.386 . S
H901 C917 0.930 . S
H902 C918 0.931 . S
C903 H891 0.929 . S
C903 C897 1.390 . S
C903 C900 1.386 . S
C904 C899 1.490 . S
C904 C906 1.395 . S
C904 C907 1.403 . S
H905 C911 0.930 . S
C906 H892 0.930 . S
C906 C904 1.395 . S
C906 C909 1.403 1_545 S
C907 C904 1.403 . S
C907 C908 1.524 . S
C907 C911 1.400 1_545 S
C908 H893 0.960 . S
C908 H894 0.960 . S
C908 H895 0.960 . S
C908 C907 1.524 . S
C909 C906 1.403 1_565 S
C909 C910 1.392 . S
C909 C913 1.495 . S
C910 C909 1.392 . S
C910 C911 1.385 . S
C910 C912 1.478 . S
C911 H905 0.930 . S
C911 C907 1.400 1_565 S
C911 C910 1.385 . S
C912 C910 1.478 . S
C912 C914 1.381 . S
C912 C918 1.383 . S
C913 C909 1.495 . S
C913 H919 0.959 . S
C913 H920 0.961 . S
C913 H921 0.960 . S
C914 C912 1.381 . S
C914 C915 1.394 . S
C914 H922 0.930 . S
C915 C914 1.394 . S
C915 C916 1.383 . S
C915 H923 0.929 . S
C916 C915 1.383 . S
C916 C917 1.377 . S
C917 H901 0.930 . S
C917 C916 1.377 . S
C917 C918 1.379 . S
C918 H902 0.931 . S
C918 C912 1.383 . S
C918 C917 1.379 . S
H919 C913 0.959 . S
H920 C913 0.961 . S
H921 C913 0.960 . S
H922 C914 0.930 . S
H923 C915 0.929 . S
H924 C932 0.929 . S
H925 C934 0.930 . S
H926 C936 0.930 . S
H927 C939 0.929 . S
H928 C942 0.930 . S
H929 C944 0.960 . S
H930 C944 0.960 . S
H931 C944 0.960 . S
C932 H924 0.929 . S
C932 C933 1.377 . S
C932 C934 1.384 . S
C933 C932 1.377 . S
C933 C939 1.390 . S
C934 H925 0.930 . S
C934 C932 1.384 . S
C934 C935 1.372 . S
C935 C934 1.372 . S
C935 C936 1.400 . S
C935 C940 1.490 . S
C936 H926 0.930 . S
C936 C935 1.400 . S
C936 C939 1.386 . S
H937 C953 0.930 . S
H938 C954 0.931 . S
C939 H927 0.929 . S
C939 C933 1.390 . S
C939 C936 1.386 . S
C940 C935 1.490 . S
C940 C942 1.395 1_554 S
C940 C943 1.403 . S
H941 C947 0.930 . S
C942 H928 0.930 . S
C942 C940 1.395 1_556 S
C942 C945 1.403 . S
C943 C940 1.403 . S
C943 C944 1.524 . S
C943 C947 1.400 . S
C944 H929 0.960 . S
C944 H930 0.960 . S
C944 H931 0.960 . S
C944 C943 1.524 . S
C945 C942 1.403 . S
C945 C946 1.392 . S
C945 C949 1.495 . S
C946 C945 1.392 . S
C946 C947 1.385 1_556 S
C946 C948 1.478 . S
C947 H941 0.930 . S
C947 C943 1.400 . S
C947 C946 1.385 1_554 S
C948 C946 1.478 . S
C948 C950 1.381 . S
C948 C954 1.383 . S
C949 C945 1.495 . S
C949 H955 0.959 . S
C949 H956 0.961 . S
C949 H957 0.960 . S
C950 C948 1.381 . S
C950 C951 1.394 . S
C950 H958 0.930 . S
C951 C950 1.394 . S
C951 C952 1.383 . S
C951 H959 0.929 . S
C952 C951 1.383 . S
C952 C953 1.377 . S
C953 H937 0.930 . S
C953 C952 1.377 . S
C953 C954 1.379 . S
C954 H938 0.931 . S
C954 C948 1.383 . S
C954 C953 1.379 . S
H955 C949 0.959 . S
H956 C949 0.961 . S
H957 C949 0.960 . S
H958 C950 0.930 . S
H959 C951 0.929 . S
H960 C968 0.929 . S
H961 C970 0.930 . S
H962 C972 0.930 . S
H963 C975 0.929 . S
H964 C978 0.930 . S
H965 C980 0.960 . S
H966 C980 0.960 . S
H967 C980 0.960 . S
C968 H960 0.929 . S
C968 C969 1.377 . S
C968 C970 1.384 . S
C969 C968 1.377 . S
C969 C975 1.390 . S
C970 H961 0.930 . S
C970 C968 1.384 . S
C970 C971 1.372 . S
C971 C970 1.372 . S
C971 C972 1.400 . S
C971 C976 1.490 . S
C972 H962 0.930 . S
C972 C971 1.400 . S
C972 C975 1.386 . S
H973 C989 0.930 . S
H974 C990 0.931 . S
C975 H963 0.929 . S
C975 C969 1.390 . S
C975 C972 1.386 . S
C976 C971 1.490 . S
C976 C978 1.395 . S
C976 C979 1.403 . S
H977 C983 0.930 . S
C978 H964 0.930 . S
C978 C976 1.395 . S
C978 C981 1.403 . S
C979 C976 1.403 . S
C979 C980 1.524 . S
C979 C983 1.400 . S
C980 H965 0.960 . S
C980 H966 0.960 . S
C980 H967 0.960 . S
C980 C979 1.524 . S
C981 C978 1.403 . S
C981 C982 1.392 . S
C981 C985 1.495 . S
C982 C981 1.392 . S
C982 C983 1.385 . S
C982 C984 1.478 . S
C983 H977 0.930 . S
C983 C979 1.400 . S
C983 C982 1.385 . S
C984 C982 1.478 . S
C984 C986 1.381 . S
C984 C990 1.383 . S
C985 C981 1.495 . S
C985 H991 0.959 . S
C985 H992 0.961 . S
C985 H993 0.960 . S
C986 C984 1.381 . S
C986 C987 1.394 . S
C986 H994 0.930 . S
C987 C986 1.394 . S
C987 C988 1.383 . S
C987 H995 0.929 . S
C988 C987 1.383 . S
C988 C989 1.377 . S
C989 H973 0.930 . S
C989 C988 1.377 . S
C989 C990 1.379 . S
C990 H974 0.931 . S
C990 C984 1.383 . S
C990 C989 1.379 . S
H991 C985 0.959 . S
H992 C985 0.961 . S
H993 C985 0.960 . S
H994 C986 0.930 . S
H995 C987 0.929 . S
H996 C1004 0.929 1_554 S
H997 C1006 0.930 . S
H998 C1008 0.930 . S
H999 C1011 0.929 . S
H1000 C1014 0.930 . S
H1001 C1016 0.960 . S
H1002 C1016 0.960 . S
H1003 C1016 0.960 . S
C1004 H996 0.929 1_556 S
C1004 C1005 1.377 . S
C1004 C1006 1.384 1_556 S
C1005 C1004 1.377 . S
C1005 C1011 1.390 . S
C1006 H997 0.930 . S
C1006 C1004 1.384 1_554 S
C1006 C1007 1.372 1_554 S
C1007 C1006 1.372 1_556 S
C1007 C1008 1.400 . S
C1007 C1012 1.490 . S
C1008 H998 0.930 . S
C1008 C1007 1.400 . S
C1008 C1011 1.386 . S
H1009 C1025 0.927 1_556 S
H1010 C1026 0.931 1_556 S
C1011 H999 0.929 . S
C1011 C1005 1.390 . S
C1011 C1008 1.386 . S
C1012 C1007 1.490 . S
C1012 C1014 1.395 1_556 S
C1012 C1015 1.403 . S
H1013 C1019 0.930 . S
C1014 H1000 0.930 . S
C1014 C1012 1.395 1_554 S
C1014 C1017 1.403 . S
C1015 C1012 1.403 . S
C1015 C1016 1.524 . S
C1015 C1019 1.400 . S
C1016 H1001 0.960 . S
C1016 H1002 0.960 . S
C1016 H1003 0.960 . S
C1016 C1015 1.524 . S
C1017 C1014 1.403 . S
C1017 C1018 1.392 . S
C1017 C1021 1.495 . S
C1018 C1017 1.392 . S
C1018 C1019 1.385 1_554 S
C1018 C1020 1.478 . S
C1019 H1013 0.930 . S
C1019 C1015 1.400 . S
C1019 C1018 1.385 1_556 S
C1020 C1018 1.478 . S
C1020 C1022 1.381 . S
C1020 C1026 1.383 . S
C1021 C1017 1.495 . S
C1021 H1027 0.959 . S
C1021 H1028 0.961 . S
C1021 H1029 0.960 . S
C1022 C1020 1.381 . S
C1022 C1023 1.394 . S
C1022 H1030 0.930 . S
C1023 C1022 1.394 . S
C1023 C1024 1.383 . S
C1023 H1031 0.929 . S
C1024 C1023 1.383 . S
C1024 C1025 1.377 . S
C1025 H1009 0.927 1_554 S
C1025 C1024 1.377 . S
C1025 C1026 1.379 . S
C1026 H1010 0.931 1_554 S
C1026 C1020 1.383 . S
C1026 C1025 1.379 . S
H1027 C1021 0.959 . S
H1028 C1021 0.961 . S
H1029 C1021 0.960 . S
H1030 C1022 0.930 . S
H1031 C1023 0.929 . S
H1032 C1040 0.929 . S
H1033 C1042 0.930 . S
H1034 C1044 0.930 . S
H1035 C1047 0.929 . S
H1036 C1050 0.930 . S
H1037 C1052 0.960 . S
H1038 C1052 0.960 . S
H1039 C1052 0.960 . S
C1040 H1032 0.929 . S
C1040 C1041 1.377 . S
C1040 C1042 1.384 . S
C1041 C1040 1.377 . S
C1041 C1047 1.390 . S
C1042 H1033 0.930 . S
C1042 C1040 1.384 . S
C1042 C1043 1.372 . S
C1043 C1042 1.372 . S
C1043 C1044 1.400 . S
C1043 C1048 1.490 . S
C1044 H1034 0.930 . S
C1044 C1043 1.400 . S
C1044 C1047 1.386 . S
H1045 C1061 0.930 . S
H1046 C1062 0.931 . S
C1047 H1035 0.929 . S
C1047 C1041 1.390 . S
C1047 C1044 1.386 . S
C1048 C1043 1.490 . S
C1048 C1050 1.395 . S
C1048 C1051 1.403 . S
H1049 C1055 0.930 . S
C1050 H1036 0.930 . S
C1050 C1048 1.395 . S
C1050 C1053 1.403 . S
C1051 C1048 1.403 . S
C1051 C1052 1.524 . S
C1051 C1055 1.400 . S
C1052 H1037 0.960 . S
C1052 H1038 0.960 . S
C1052 H1039 0.960 . S
C1052 C1051 1.524 . S
C1053 C1050 1.403 . S
C1053 C1054 1.392 . S
C1053 C1057 1.495 . S
C1054 C1053 1.392 . S
C1054 C1055 1.385 . S
C1054 C1056 1.478 . S
C1055 H1049 0.930 . S
C1055 C1051 1.400 . S
C1055 C1054 1.385 . S
C1056 C1054 1.478 . S
C1056 C1058 1.381 . S
C1056 C1062 1.383 . S
C1057 C1053 1.495 . S
C1057 H1063 0.959 . S
C1057 H1064 0.961 . S
C1057 H1065 0.960 . S
C1058 C1056 1.381 . S
C1058 C1059 1.394 . S
C1058 H1066 0.930 . S
C1059 C1058 1.394 . S
C1059 C1060 1.383 . S
C1059 H1067 0.929 . S
C1060 C1059 1.383 . S
C1060 C1061 1.377 . S
C1061 H1045 0.930 . S
C1061 C1060 1.377 . S
C1061 C1062 1.379 . S
C1062 H1046 0.931 . S
C1062 C1056 1.383 . S
C1062 C1061 1.379 . S
H1063 C1057 0.959 . S
H1064 C1057 0.961 . S
H1065 C1057 0.960 . S
H1066 C1058 0.930 . S
H1067 C1059 0.929 . S
H1068 C1076 0.929 . S
H1069 C1078 0.930 . S
H1070 C1080 0.930 . S
H1071 C1083 0.929 . S
H1072 C1086 0.930 . S
H1073 C1088 0.960 . S
H1074 C1088 0.960 . S
H1075 C1088 0.960 . S
C1076 H1068 0.929 . S
C1076 C1077 1.377 . S
C1076 C1078 1.384 . S
C1077 C1076 1.377 . S
C1077 C1083 1.390 . S
C1078 H1069 0.930 . S
C1078 C1076 1.384 . S
C1078 C1079 1.372 . S
C1079 C1078 1.372 . S
C1079 C1080 1.400 . S
C1079 C1084 1.490 . S
C1080 H1070 0.930 . S
C1080 C1079 1.400 . S
C1080 C1083 1.386 . S
H1081 C1097 0.930 . S
H1082 C1098 0.931 . S
C1083 H1071 0.929 . S
C1083 C1077 1.390 . S
C1083 C1080 1.386 . S
C1084 C1079 1.490 . S
C1084 C1086 1.395 . S
C1084 C1087 1.403 . S
H1085 C1091 0.930 . S
C1086 H1072 0.930 . S
C1086 C1084 1.395 . S
C1086 C1089 1.403 . S
C1087 C1084 1.403 . S
C1087 C1088 1.524 . S
C1087 C1091 1.400 . S
C1088 H1073 0.960 . S
C1088 H1074 0.960 . S
C1088 H1075 0.960 . S
C1088 C1087 1.524 . S
C1089 C1086 1.403 . S
C1089 C1090 1.392 . S
C1089 C1093 1.495 . S
C1090 C1089 1.392 . S
C1090 C1091 1.385 . S
C1090 C1092 1.478 . S
C1091 H1085 0.930 . S
C1091 C1087 1.400 . S
C1091 C1090 1.385 . S
C1092 C1090 1.478 . S
C1092 C1094 1.381 . S
C1092 C1098 1.383 . S
C1093 C1089 1.495 . S
C1093 H1099 0.959 . S
C1093 H1100 0.961 . S
C1093 H1101 0.960 . S
C1094 C1092 1.381 . S
C1094 C1095 1.394 . S
C1094 H1102 0.930 . S
C1095 C1094 1.394 . S
C1095 C1096 1.383 . S
C1095 H1103 0.929 . S
C1096 C1095 1.383 . S
C1096 C1097 1.377 . S
C1097 H1081 0.930 . S
C1097 C1096 1.377 . S
C1097 C1098 1.379 . S
C1098 H1082 0.931 . S
C1098 C1092 1.383 . S
C1098 C1097 1.379 . S
H1099 C1093 0.959 . S
H1100 C1093 0.961 . S
H1101 C1093 0.960 . S
H1102 C1094 0.930 . S
H1103 C1095 0.929 . S
H1104 C1112 0.929 . S
H1105 C1114 0.930 . S
H1106 C1116 0.930 . S
H1107 C1119 0.929 . S
H1108 C1122 0.930 . S
H1109 C1124 0.960 . S
H1110 C1124 0.960 . S
H1111 C1124 0.960 . S
C1112 H1104 0.929 . S
C1112 C1113 1.377 . S
C1112 C1114 1.384 . S
C1113 C1112 1.377 . S
C1113 C1119 1.390 . S
C1114 H1105 0.930 . S
C1114 C1112 1.384 . S
C1114 C1115 1.372 . S
C1115 C1114 1.372 . S
C1115 C1116 1.400 . S
C1115 C1120 1.490 . S
C1116 H1106 0.930 . S
C1116 C1115 1.400 . S
C1116 C1119 1.386 . S
H1117 C1133 0.930 . S
H1118 C1134 0.931 . S
C1119 H1107 0.929 . S
C1119 C1113 1.390 . S
C1119 C1116 1.386 . S
C1120 C1115 1.490 . S
C1120 C1122 1.395 . S
C1120 C1123 1.403 . S
H1121 C1127 0.930 . S
C1122 H1108 0.930 . S
C1122 C1120 1.395 . S
C1122 C1125 1.403 . S
C1123 C1120 1.403 . S
C1123 C1124 1.524 . S
C1123 C1127 1.400 . S
C1124 H1109 0.960 . S
C1124 H1110 0.960 . S
C1124 H1111 0.960 . S
C1124 C1123 1.524 . S
C1125 C1122 1.403 . S
C1125 C1126 1.392 . S
C1125 C1129 1.495 . S
C1126 C1125 1.392 . S
C1126 C1127 1.385 . S
C1126 C1128 1.478 . S
C1127 H1121 0.930 . S
C1127 C1123 1.400 . S
C1127 C1126 1.385 . S
C1128 C1126 1.478 . S
C1128 C1130 1.381 . S
C1128 C1134 1.383 . S
C1129 C1125 1.495 . S
C1129 H1135 0.959 . S
C1129 H1136 0.961 . S
C1129 H1137 0.960 . S
C1130 C1128 1.381 . S
C1130 C1131 1.394 . S
C1130 H1138 0.930 . S
C1131 C1130 1.394 . S
C1131 C1132 1.383 . S
C1131 H1139 0.929 . S
C1132 C1131 1.383 . S
C1132 C1133 1.377 . S
C1133 H1117 0.930 . S
C1133 C1132 1.377 . S
C1133 C1134 1.379 . S
C1134 H1118 0.931 . S
C1134 C1128 1.383 . S
C1134 C1133 1.379 . S
H1135 C1129 0.959 . S
H1136 C1129 0.961 . S
H1137 C1129 0.960 . S
H1138 C1130 0.930 . S
H1139 C1131 0.929 . S
H1140 C1148 0.929 . S
H1141 C1150 0.930 . S
H1142 C1152 0.930 . S
H1143 C1155 0.929 1_554 S
H1144 C1158 0.930 . S
H1145 C1160 0.960 . S
H1146 C1160 0.960 . S
H1147 C1160 0.960 . S
C1148 H1140 0.929 . S
C1148 C1149 1.377 . S
C1148 C1150 1.384 . S
C1149 C1148 1.377 . S
C1149 C1155 1.390 . S
C1150 H1141 0.930 . S
C1150 C1148 1.384 . S
C1150 C1151 1.372 . S
C1151 C1150 1.372 . S
C1151 C1152 1.400 1_556 S
C1151 C1156 1.490 . S
C1152 H1142 0.930 . S
C1152 C1151 1.400 1_554 S
C1152 C1155 1.386 1_554 S
H1153 C1169 0.930 . S
H1154 C1170 0.931 . S
C1155 H1143 0.929 1_556 S
C1155 C1149 1.390 . S
C1155 C1152 1.386 1_556 S
C1156 C1151 1.490 . S
C1156 C1158 1.395 . S
C1156 C1159 1.403 1_556 S
H1157 C1163 0.930 . S
C1158 H1144 0.930 . S
C1158 C1156 1.395 . S
C1158 C1161 1.403 . S
C1159 C1156 1.403 1_554 S
C1159 C1160 1.524 . S
C1159 C1163 1.400 . S
C1160 H1145 0.960 . S
C1160 H1146 0.960 . S
C1160 H1147 0.960 . S
C1160 C1159 1.524 . S
C1161 C1158 1.403 . S
C1161 C1162 1.392 1_556 S
C1161 C1165 1.495 . S
C1162 C1161 1.392 1_554 S
C1162 C1163 1.385 . S
C1162 C1164 1.478 . S
C1163 H1157 0.930 . S
C1163 C1159 1.400 . S
C1163 C1162 1.385 . S
C1164 C1162 1.478 . S
C1164 C1166 1.381 1_554 S
C1164 C1170 1.383 . S
C1165 C1161 1.495 . S
C1165 H1171 0.959 . S
C1165 H1172 0.961 . S
C1165 H1173 0.960 . S
C1166 C1164 1.381 1_556 S
C1166 C1167 1.394 1_556 S
C1166 H1174 0.930 . S
C1167 C1166 1.394 1_554 S
C1167 C1168 1.383 . S
C1167 H1175 0.929 1_554 S
C1168 C1167 1.383 . S
C1168 C1169 1.377 . S
C1169 H1153 0.930 . S
C1169 C1168 1.377 . S
C1169 C1170 1.379 . S
C1170 H1154 0.931 . S
C1170 C1164 1.383 . S
C1170 C1169 1.379 . S
H1171 C1165 0.959 . S
H1172 C1165 0.961 . S
H1173 C1165 0.960 . S
H1174 C1166 0.930 . S
H1175 C1167 0.929 1_556 S
H1176 C1184 0.929 . S
H1177 C1186 0.930 . S
H1178 C1188 0.930 . S
H1179 C1191 0.929 . S
H1180 C1194 0.930 . S
H1181 C1196 0.960 . S
H1182 C1196 0.960 . S
H1183 C1196 0.960 . S
C1184 H1176 0.929 . S
C1184 C1185 1.377 . S
C1184 C1186 1.384 . S
C1185 C1184 1.377 . S
C1185 C1191 1.390 . S
C1186 H1177 0.930 . S
C1186 C1184 1.384 . S
C1186 C1187 1.372 . S
C1187 C1186 1.372 . S
C1187 C1188 1.400 . S
C1187 C1192 1.490 . S
C1188 H1178 0.930 . S
C1188 C1187 1.400 . S
C1188 C1191 1.386 . S
H1189 C1205 0.930 . S
H1190 C1206 0.931 . S
C1191 H1179 0.929 . S
C1191 C1185 1.390 . S
C1191 C1188 1.386 . S
C1192 C1187 1.490 . S
C1192 C1194 1.395 . S
C1192 C1195 1.403 . S
H1193 C1199 0.930 . S
C1194 H1180 0.930 . S
C1194 C1192 1.395 . S
C1194 C1197 1.403 . S
C1195 C1192 1.403 . S
C1195 C1196 1.524 . S
C1195 C1199 1.400 . S
C1196 H1181 0.960 . S
C1196 H1182 0.960 . S
C1196 H1183 0.960 . S
C1196 C1195 1.524 . S
C1197 C1194 1.403 . S
C1197 C1198 1.392 . S
C1197 C1201 1.495 . S
C1198 C1197 1.392 . S
C1198 C1199 1.385 . S
C1198 C1200 1.478 . S
C1199 H1193 0.930 . S
C1199 C1195 1.400 . S
C1199 C1198 1.385 . S
C1200 C1198 1.478 . S
C1200 C1202 1.381 . S
C1200 C1206 1.383 . S
C1201 C1197 1.495 . S
C1201 H1207 0.959 . S
C1201 H1208 0.961 . S
C1201 H1209 0.960 . S
C1202 C1200 1.381 . S
C1202 C1203 1.394 . S
C1202 H1210 0.930 . S
C1203 C1202 1.394 . S
C1203 C1204 1.383 . S
C1203 H1211 0.929 . S
C1204 C1203 1.383 . S
C1204 C1205 1.377 . S
C1205 H1189 0.930 . S
C1205 C1204 1.377 . S
C1205 C1206 1.379 . S
C1206 H1190 0.931 . S
C1206 C1200 1.383 . S
C1206 C1205 1.379 . S
H1207 C1201 0.959 . S
H1208 C1201 0.961 . S
H1209 C1201 0.960 . S
H1210 C1202 0.930 . S
H1211 C1203 0.929 . S
H1212 C1220 0.929 . S
H1213 C1222 0.930 . S
H1214 C1224 0.930 . S
H1215 C1227 0.929 . S
H1216 C1230 0.930 . S
H1217 C1232 0.960 . S
H1218 C1232 0.960 . S
H1219 C1232 0.960 . S
C1220 H1212 0.929 . S
C1220 C1221 1.377 . S
C1220 C1222 1.384 . S
C1221 C1220 1.377 . S
C1221 C1227 1.390 . S
C1222 H1213 0.930 . S
C1222 C1220 1.384 . S
C1222 C1223 1.372 . S
C1223 C1222 1.372 . S
C1223 C1224 1.400 . S
C1223 C1228 1.490 . S
C1224 H1214 0.930 . S
C1224 C1223 1.400 . S
C1224 C1227 1.386 . S
H1225 C1241 0.930 . S
H1226 C1242 0.931 . S
C1227 H1215 0.929 . S
C1227 C1221 1.390 . S
C1227 C1224 1.386 . S
C1228 C1223 1.490 . S
C1228 C1230 1.395 . S
C1228 C1231 1.403 . S
H1229 C1235 0.930 . S
C1230 H1216 0.930 . S
C1230 C1228 1.395 . S
C1230 C1233 1.403 . S
C1231 C1228 1.403 . S
C1231 C1232 1.524 . S
C1231 C1235 1.400 . S
C1232 H1217 0.960 . S
C1232 H1218 0.960 . S
C1232 H1219 0.960 . S
C1232 C1231 1.524 . S
C1233 C1230 1.403 . S
C1233 C1234 1.392 . S
C1233 C1237 1.495 . S
C1234 C1233 1.392 . S
C1234 C1235 1.385 . S
C1234 C1236 1.478 . S
C1235 H1229 0.930 . S
C1235 C1231 1.400 . S
C1235 C1234 1.385 . S
C1236 C1234 1.478 . S
C1236 C1238 1.381 . S
C1236 C1242 1.383 . S
C1237 C1233 1.495 . S
C1237 H1243 0.959 . S
C1237 H1244 0.961 . S
C1237 H1245 0.960 . S
C1238 C1236 1.381 . S
C1238 C1239 1.394 . S
C1238 H1246 0.930 . S
C1239 C1238 1.394 . S
C1239 C1240 1.383 . S
C1239 H1247 0.929 . S
C1240 C1239 1.383 . S
C1240 C1241 1.377 . S
C1241 H1225 0.930 . S
C1241 C1240 1.377 . S
C1241 C1242 1.379 . S
C1242 H1226 0.931 . S
C1242 C1236 1.383 . S
C1242 C1241 1.379 . S
H1243 C1237 0.959 . S
H1244 C1237 0.961 . S
H1245 C1237 0.960 . S
H1246 C1238 0.930 . S
H1247 C1239 0.929 . S
H1248 C1256 0.929 . S
H1249 C1258 0.930 . S
H1250 C1260 0.930 . S
H1251 C1263 0.929 . S
H1252 C1266 0.930 . S
H1253 C1268 0.960 . S
H1254 C1268 0.960 . S
H1255 C1268 0.960 . S
C1256 H1248 0.929 . S
C1256 C1257 1.377 . S
C1256 C1258 1.384 . S
C1257 C1256 1.377 . S
C1257 C1263 1.390 . S
C1258 H1249 0.930 . S
C1258 C1256 1.384 . S
C1258 C1259 1.372 . S
C1259 C1258 1.372 . S
C1259 C1260 1.400 . S
C1259 C1264 1.490 . S
C1260 H1250 0.930 . S
C1260 C1259 1.400 . S
C1260 C1263 1.386 . S
H1261 C1277 0.930 . S
H1262 C1278 0.931 . S
C1263 H1251 0.929 . S
C1263 C1257 1.390 . S
C1263 C1260 1.386 . S
C1264 C1259 1.490 . S
C1264 C1266 1.395 . S
C1264 C1267 1.403 . S
H1265 C1271 0.930 . S
C1266 H1252 0.930 . S
C1266 C1264 1.395 . S
C1266 C1269 1.403 . S
C1267 C1264 1.403 . S
C1267 C1268 1.524 . S
C1267 C1271 1.400 . S
C1268 H1253 0.960 . S
C1268 H1254 0.960 . S
C1268 H1255 0.960 . S
C1268 C1267 1.524 . S
C1269 C1266 1.403 . S
C1269 C1270 1.392 . S
C1269 C1273 1.495 . S
C1270 C1269 1.392 . S
C1270 C1271 1.385 . S
C1270 C1272 1.478 . S
C1271 H1265 0.930 . S
C1271 C1267 1.400 . S
C1271 C1270 1.385 . S
C1272 C1270 1.478 . S
C1272 C1274 1.381 . S
C1272 C1278 1.383 . S
C1273 C1269 1.495 . S
C1273 H1279 0.959 . S
C1273 H1280 0.961 . S
C1273 H1281 0.960 . S
C1274 C1272 1.381 . S
C1274 C1275 1.394 . S
C1274 H1282 0.930 . S
C1275 C1274 1.394 . S
C1275 C1276 1.383 . S
C1275 H1283 0.929 . S
C1276 C1275 1.383 . S
C1276 C1277 1.377 . S
C1277 H1261 0.930 . S
C1277 C1276 1.377 . S
C1277 C1278 1.379 . S
C1278 H1262 0.931 . S
C1278 C1272 1.383 . S
C1278 C1277 1.379 . S
H1279 C1273 0.959 . S
H1280 C1273 0.961 . S
H1281 C1273 0.960 . S
H1282 C1274 0.930 . S
H1283 C1275 0.929 . S
H1284 C1292 0.929 . S
H1285 C1294 0.930 . S
H1286 C1296 0.930 . S
H1287 C1299 0.929 . S
H1288 C1302 0.930 . S
H1289 C1304 0.960 . S
H1290 C1304 0.960 1_545 S
H1291 C1304 0.960 . S
C1292 H1284 0.929 . S
C1292 C1293 1.377 . S
C1292 C1294 1.384 . S
C1293 C1292 1.377 . S
C1293 C1299 1.390 . S
C1294 H1285 0.930 . S
C1294 C1292 1.384 . S
C1294 C1295 1.372 . S
C1295 C1294 1.372 . S
C1295 C1296 1.400 . S
C1295 C1300 1.490 . S
C1296 H1286 0.930 . S
C1296 C1295 1.400 . S
C1296 C1299 1.386 . S
H1297 C1313 0.930 . S
H1298 C1314 0.931 . S
C1299 H1287 0.929 . S
C1299 C1293 1.390 . S
C1299 C1296 1.386 . S
C1300 C1295 1.490 . S
C1300 C1302 1.395 1_655 S
C1300 C1303 1.403 1_545 S
H1301 C1307 0.930 . S
C1302 H1288 0.930 . S
C1302 C1300 1.395 1_455 S
C1302 C1305 1.403 . S
C1303 C1300 1.403 1_565 S
C1303 C1304 1.524 . S
C1303 C1307 1.400 . S
C1304 H1289 0.960 . S
C1304 H1290 0.960 1_565 S
C1304 H1291 0.960 . S
C1304 C1303 1.524 . S
C1305 C1302 1.403 . S
C1305 C1306 1.392 1_545 S
C1305 C1309 1.495 . S
C1306 C1305 1.392 1_565 S
C1306 C1307 1.385 1_455 S
C1306 C1308 1.478 . S
C1307 H1301 0.930 . S
C1307 C1303 1.400 . S
C1307 C1306 1.385 1_655 S
C1308 C1306 1.478 . S
C1308 C1310 1.381 . S
C1308 C1314 1.383 . S
C1309 C1305 1.495 . S
C1309 H1315 0.959 . S
C1309 H1316 0.961 . S
C1309 H1317 0.960 . S
C1310 C1308 1.381 . S
C1310 C1311 1.394 . S
C1310 H1318 0.930 . S
C1311 C1310 1.394 . S
C1311 C1312 1.383 . S
C1311 H1319 0.929 . S
C1312 C1311 1.383 . S
C1312 C1313 1.377 . S
C1313 H1297 0.930 . S
C1313 C1312 1.377 . S
C1313 C1314 1.379 . S
C1314 H1298 0.931 . S
C1314 C1308 1.383 . S
C1314 C1313 1.379 . S
H1315 C1309 0.959 . S
H1316 C1309 0.961 . S
H1317 C1309 0.960 . S
H1318 C1310 0.930 . S
H1319 C1311 0.929 . S
H1320 C1328 0.929 . S
H1321 C1330 0.930 . S
H1322 C1332 0.930 . S
H1323 C1335 0.929 . S
H1324 C1338 0.930 . S
H1325 C1340 0.960 . S
H1326 C1340 0.960 . S
H1327 C1340 0.960 . S
C1328 H1320 0.929 . S
C1328 C1329 1.377 . S
C1328 C1330 1.384 . S
C1329 C1328 1.377 . S
C1329 C1335 1.390 . S
C1330 H1321 0.930 . S
C1330 C1328 1.384 . S
C1330 C1331 1.372 . S
C1331 C1330 1.372 . S
C1331 C1332 1.400 . S
C1331 C1336 1.490 . S
C1332 H1322 0.930 . S
C1332 C1331 1.400 . S
C1332 C1335 1.386 . S
H1333 C1349 0.930 . S
H1334 C1350 0.931 . S
C1335 H1323 0.929 . S
C1335 C1329 1.390 . S
C1335 C1332 1.386 . S
C1336 C1331 1.490 . S
C1336 C1338 1.395 . S
C1336 C1339 1.403 . S
H1337 C1343 0.930 . S
C1338 H1324 0.930 . S
C1338 C1336 1.395 . S
C1338 C1341 1.403 . S
C1339 C1336 1.403 . S
C1339 C1340 1.524 . S
C1339 C1343 1.400 . S
C1340 H1325 0.960 . S
C1340 H1326 0.960 . S
C1340 H1327 0.960 . S
C1340 C1339 1.524 . S
C1341 C1338 1.403 . S
C1341 C1342 1.392 . S
C1341 C1345 1.495 . S
C1342 C1341 1.392 . S
C1342 C1343 1.385 . S
C1342 C1344 1.478 . S
C1343 H1337 0.930 . S
C1343 C1339 1.400 . S
C1343 C1342 1.385 . S
C1344 C1342 1.478 . S
C1344 C1346 1.381 . S
C1344 C1350 1.383 . S
C1345 C1341 1.495 . S
C1345 H1351 0.959 . S
C1345 H1352 0.961 . S
C1345 H1353 0.960 . S
C1346 C1344 1.381 . S
C1346 C1347 1.394 . S
C1346 H1354 0.930 . S
C1347 C1346 1.394 . S
C1347 C1348 1.383 . S
C1347 H1355 0.929 . S
C1348 C1347 1.383 . S
C1348 C1349 1.377 . S
C1349 H1333 0.930 . S
C1349 C1348 1.377 . S
C1349 C1350 1.379 . S
C1350 H1334 0.931 . S
C1350 C1344 1.383 . S
C1350 C1349 1.379 . S
H1351 C1345 0.959 . S
H1352 C1345 0.961 . S
H1353 C1345 0.960 . S
H1354 C1346 0.930 . S
H1355 C1347 0.929 . S
H1356 C1364 0.929 . S
H1357 C1366 0.930 . S
H1358 C1368 0.930 . S
H1359 C1371 0.929 . S
H1360 C1374 0.930 . S
H1361 C1376 0.960 . S
H1362 C1376 0.960 . S
H1363 C1376 0.960 1_556 S
C1364 H1356 0.929 . S
C1364 C1365 1.377 . S
C1364 C1366 1.384 . S
C1365 C1364 1.377 . S
C1365 C1371 1.390 1_554 S
C1366 H1357 0.930 . S
C1366 C1364 1.384 . S
C1366 C1367 1.372 . S
C1367 C1366 1.372 . S
C1367 C1368 1.400 1_554 S
C1367 C1372 1.490 . S
C1368 H1358 0.930 . S
C1368 C1367 1.400 1_556 S
C1368 C1371 1.386 . S
H1369 C1385 0.930 . S
H1370 C1386 0.931 . S
C1371 H1359 0.929 . S
C1371 C1365 1.390 1_556 S
C1371 C1368 1.386 . S
C1372 C1367 1.490 . S
C1372 C1374 1.395 1_545 S
C1372 C1375 1.403 . S
H1373 C1379 0.930 1_546 S
C1374 H1360 0.930 . S
C1374 C1372 1.395 1_565 S
C1374 C1377 1.400 1_554 S
C1375 C1372 1.403 . S
C1375 C1376 1.524 . S
C1375 C1379 1.399 1_545 S
C1376 H1361 0.960 . S
C1376 H1362 0.960 . S
C1376 H1363 0.960 1_554 S
C1376 C1375 1.524 . S
C1377 C1374 1.400 1_556 S
C1377 C1378 1.394 . S
C1377 C1381 1.499 . S
C1378 C1377 1.394 . S
C1378 C1379 1.387 1_556 S
C1378 C1380 1.478 . S
C1379 H1373 0.930 1_564 S
C1379 C1375 1.399 1_565 S
C1379 C1378 1.387 1_554 S
C1380 C1378 1.478 . S
C1380 C1382 1.381 1_556 S
C1380 C1386 1.383 . S
C1381 C1377 1.499 . S
C1381 H1387 0.959 . S
C1381 H1388 0.961 . S
C1381 H1389 0.960 1_556 S
C1382 C1380 1.381 1_554 S
C1382 C1383 1.394 . S
C1382 H1390 0.930 . S
C1383 C1382 1.394 . S
C1383 C1384 1.383 1_554 S
C1383 H1391 0.929 . S
C1384 C1383 1.383 1_556 S
C1384 C1385 1.377 . S
C1385 H1369 0.930 . S
C1385 C1384 1.377 . S
C1385 C1386 1.379 . S
C1386 H1370 0.931 . S
C1386 C1380 1.383 . S
C1386 C1385 1.379 . S
H1387 C1381 0.959 . S
H1388 C1381 0.961 . S
H1389 C1381 0.960 1_554 S
H1390 C1382 0.930 . S
H1391 C1383 0.929 . S
H1392 C1400 0.929 . S
H1393 C1402 0.930 . S
H1394 C1404 0.930 . S
H1395 C1407 0.929 . S
H1396 C1410 0.930 . S
H1397 C1412 0.960 . S
H1398 C1412 0.960 . S
H1399 C1412 0.960 . S
C1400 H1392 0.929 . S
C1400 C1401 1.377 . S
C1400 C1402 1.384 . S
C1401 C1400 1.377 . S
C1401 C1407 1.390 . S
C1402 H1393 0.930 . S
C1402 C1400 1.384 . S
C1402 C1403 1.372 . S
C1403 C1402 1.372 . S
C1403 C1404 1.400 . S
C1403 C1408 1.490 . S
C1404 H1394 0.930 . S
C1404 C1403 1.400 . S
C1404 C1407 1.386 . S
H1405 C1421 0.930 . S
H1406 C1422 0.931 . S
C1407 H1395 0.929 . S
C1407 C1401 1.390 . S
C1407 C1404 1.386 . S
C1408 C1403 1.490 . S
C1408 C1410 1.395 . S
C1408 C1411 1.403 . S
H1409 C1415 0.930 . S
C1410 H1396 0.930 . S
C1410 C1408 1.395 . S
C1410 C1413 1.403 . S
C1411 C1408 1.403 . S
C1411 C1412 1.524 . S
C1411 C1415 1.400 . S
C1412 H1397 0.960 . S
C1412 H1398 0.960 . S
C1412 H1399 0.960 . S
C1412 C1411 1.524 . S
C1413 C1410 1.403 . S
C1413 C1414 1.392 . S
C1413 C1417 1.495 . S
C1414 C1413 1.392 . S
C1414 C1415 1.385 . S
C1414 C1416 1.478 . S
C1415 H1409 0.930 . S
C1415 C1411 1.400 . S
C1415 C1414 1.385 . S
C1416 C1414 1.478 . S
C1416 C1418 1.381 . S
C1416 C1422 1.383 . S
C1417 C1413 1.495 . S
C1417 H1423 0.959 . S
C1417 H1424 0.961 . S
C1417 H1425 0.960 . S
C1418 C1416 1.381 . S
C1418 C1419 1.394 . S
C1418 H1426 0.930 . S
C1419 C1418 1.394 . S
C1419 C1420 1.383 . S
C1419 H1427 0.929 . S
C1420 C1419 1.383 . S
C1420 C1421 1.377 . S
C1421 H1405 0.930 . S
C1421 C1420 1.377 . S
C1421 C1422 1.379 . S
C1422 H1406 0.931 . S
C1422 C1416 1.383 . S
C1422 C1421 1.379 . S
H1423 C1417 0.959 . S
H1424 C1417 0.961 . S
H1425 C1417 0.960 . S
H1426 C1418 0.930 . S
H1427 C1419 0.929 . S
H1428 C1436 0.929 . S
H1429 C1438 0.930 . S
H1430 C1440 0.930 . S
H1431 C1443 0.929 . S
H1432 C1446 0.930 . S
H1433 C1448 0.982 . S
H1434 C1448 0.940 1_565 S
H1435 C1448 0.959 1_565 S
C1436 H1428 0.929 . S
C1436 C1437 1.377 . S
C1436 C1438 1.384 . S
C1437 C1436 1.377 . S
C1437 C1443 1.390 . S
C1438 H1429 0.930 . S
C1438 C1436 1.384 . S
C1438 C1439 1.372 . S
C1439 C1438 1.372 . S
C1439 C1440 1.400 . S
C1439 C1444 1.490 . S
C1440 H1430 0.930 . S
C1440 C1439 1.400 . S
C1440 C1443 1.386 . S
H1441 C1457 0.930 . S
H1442 C1458 0.931 . S
C1443 H1431 0.929 . S
C1443 C1437 1.390 . S
C1443 C1440 1.386 . S
C1444 C1439 1.490 . S
C1444 C1446 1.395 . S
C1444 C1447 1.436 . S
H1445 C1451 0.930 . S
C1446 H1432 0.930 . S
C1446 C1444 1.395 . S
C1446 C1449 1.403 . S
C1447 C1444 1.436 . S
C1447 C1448 1.522 1_565 S
C1447 C1451 1.368 1_565 S
C1448 H1433 0.982 . S
C1448 H1434 0.940 1_545 S
C1448 H1435 0.959 1_545 S
C1448 C1447 1.522 1_545 S
C1449 C1446 1.403 . S
C1449 C1450 1.392 1_565 S
C1449 C1453 1.495 . S
C1450 C1449 1.392 1_545 S
C1450 C1451 1.385 . S
C1450 C1452 1.478 . S
C1451 H1445 0.930 . S
C1451 C1447 1.368 1_545 S
C1451 C1450 1.385 . S
C1452 C1450 1.478 . S
C1452 C1454 1.381 . S
C1452 C1458 1.383 . S
C1453 C1449 1.495 . S
C1453 H1459 0.959 . S
C1453 H1460 0.961 1_565 S
C1453 H1461 0.960 . S
C1454 C1452 1.381 . S
C1454 C1455 1.394 . S
C1454 H1462 0.930 . S
C1455 C1454 1.394 . S
C1455 C1456 1.383 . S
C1455 H1463 0.929 . S
C1456 C1455 1.383 . S
C1456 C1457 1.377 . S
C1457 H1441 0.930 . S
C1457 C1456 1.377 . S
C1457 C1458 1.379 . S
C1458 H1442 0.931 . S
C1458 C1452 1.383 . S
C1458 C1457 1.379 . S
H1459 C1453 0.959 . S
H1460 C1453 0.961 1_545 S
H1461 C1453 0.960 . S
H1462 C1454 0.930 . S
H1463 C1455 0.929 . S
H1464 C1472 0.929 . S
H1465 C1474 0.930 . S
H1466 C1476 0.930 . S
H1467 C1479 0.929 . S
H1468 C1482 0.930 . S
H1469 C1484 0.960 . S
H1470 C1484 0.960 . S
H1471 C1484 0.960 . S
C1472 H1464 0.929 . S
C1472 C1473 1.377 . S
C1472 C1474 1.384 . S
C1473 C1472 1.377 . S
C1473 C1479 1.390 . S
C1474 H1465 0.930 . S
C1474 C1472 1.384 . S
C1474 C1475 1.372 . S
C1475 C1474 1.372 . S
C1475 C1476 1.400 . S
C1475 C1480 1.490 . S
C1476 H1466 0.930 . S
C1476 C1475 1.400 . S
C1476 C1479 1.386 . S
H1477 C1493 0.930 . S
H1478 C1494 0.931 . S
C1479 H1467 0.929 . S
C1479 C1473 1.390 . S
C1479 C1476 1.386 . S
C1480 C1475 1.490 . S
C1480 C1482 1.395 . S
C1480 C1483 1.403 . S
H1481 C1487 0.930 . S
C1482 H1468 0.930 . S
C1482 C1480 1.395 . S
C1482 C1485 1.403 . S
C1483 C1480 1.403 . S
C1483 C1484 1.524 . S
C1483 C1487 1.400 . S
C1484 H1469 0.960 . S
C1484 H1470 0.960 . S
C1484 H1471 0.960 . S
C1484 C1483 1.524 . S
C1485 C1482 1.403 . S
C1485 C1486 1.392 . S
C1485 C1489 1.495 . S
C1486 C1485 1.392 . S
C1486 C1487 1.385 . S
C1486 C1488 1.478 . S
C1487 H1481 0.930 . S
C1487 C1483 1.400 . S
C1487 C1486 1.385 . S
C1488 C1486 1.478 . S
C1488 C1490 1.381 . S
C1488 C1494 1.383 . S
C1489 C1485 1.495 . S
C1489 H1495 0.959 . S
C1489 H1496 0.961 . S
C1489 H1497 0.960 . S
C1490 C1488 1.381 . S
C1490 C1491 1.394 . S
C1490 H1498 0.930 . S
C1491 C1490 1.394 . S
C1491 C1492 1.383 . S
C1491 H1499 0.929 . S
C1492 C1491 1.383 . S
C1492 C1493 1.377 . S
C1493 H1477 0.930 . S
C1493 C1492 1.377 . S
C1493 C1494 1.379 . S
C1494 H1478 0.931 . S
C1494 C1488 1.383 . S
C1494 C1493 1.379 . S
H1495 C1489 0.959 . S
H1496 C1489 0.961 . S
H1497 C1489 0.960 . S
H1498 C1490 0.930 . S
H1499 C1491 0.929 . S
H1500 C1508 0.929 . S
H1501 C1510 0.930 . S
H1502 C1512 0.930 . S
H1503 C1515 0.929 . S
H1504 C1518 0.930 . S
H1505 C1520 0.960 . S
H1506 C1520 0.960 . S
H1507 C1520 0.960 1_565 S
C1508 H1500 0.929 . S
C1508 C1509 1.377 . S
C1508 C1510 1.384 . S
C1509 C1508 1.377 . S
C1509 C1515 1.390 1_554 S
C1510 H1501 0.930 . S
C1510 C1508 1.384 . S
C1510 C1511 1.372 . S
C1511 C1510 1.372 . S
C1511 C1512 1.400 1_554 S
C1511 C1516 1.490 . S
C1512 H1502 0.930 . S
C1512 C1511 1.400 1_556 S
C1512 C1515 1.386 . S
H1513 C1529 0.930 . S
H1514 C1530 0.931 . S
C1515 H1503 0.929 . S
C1515 C1509 1.390 1_556 S
C1515 C1512 1.386 . S
C1516 C1511 1.490 . S
C1516 C1518 1.395 1_655 S
C1516 C1519 1.403 1_564 S
H1517 C1523 0.930 . S
C1518 H1504 0.930 . S
C1518 C1516 1.395 1_455 S
C1518 C1521 1.403 . S
C1519 C1516 1.403 1_546 S
C1519 C1520 1.524 . S
C1519 C1523 1.400 . S
C1520 H1505 0.960 . S
C1520 H1506 0.960 . S
C1520 H1507 0.960 1_545 S
C1520 C1519 1.524 . S
C1521 C1518 1.403 . S
C1521 C1522 1.392 1_565 S
C1521 C1525 1.495 . S
C1522 C1521 1.392 1_545 S
C1522 C1523 1.385 1_454 S
C1522 C1524 1.478 1_554 S
C1523 H1517 0.930 . S
C1523 C1519 1.400 . S
C1523 C1522 1.385 1_656 S
C1524 C1522 1.478 1_556 S
C1524 C1526 1.381 1_556 S
C1524 C1530 1.383 . S
C1525 C1521 1.495 . S
C1525 H1531 0.959 . S
C1525 H1532 0.961 . S
C1525 H1533 0.960 1_565 S
C1526 C1524 1.381 1_554 S
C1526 C1527 1.394 . S
C1526 H1534 0.930 . S
C1527 C1526 1.394 . S
C1527 C1528 1.383 1_554 S
C1527 H1535 0.929 . S
C1528 C1527 1.383 1_556 S
C1528 C1529 1.377 . S
C1529 H1513 0.930 . S
C1529 C1528 1.377 . S
C1529 C1530 1.379 . S
C1530 H1514 0.931 . S
C1530 C1524 1.383 . S
C1530 C1529 1.379 . S
H1531 C1525 0.959 . S
H1532 C1525 0.961 . S
H1533 C1525 0.960 1_545 S
H1534 C1526 0.930 . S
H1535 C1527 0.929 . S
H1536 C1544 0.929 . S
H1537 C1546 0.930 . S
H1538 C1548 0.930 . S
H1539 C1551 0.929 . S
H1540 C1554 0.930 . S
H1541 C1556 0.960 . S
H1542 C1556 0.960 . S
H1543 C1556 0.960 . S
C1544 H1536 0.929 . S
C1544 C1545 1.377 . S
C1544 C1546 1.384 . S
C1545 C1544 1.377 . S
C1545 C1551 1.390 . S
C1546 H1537 0.930 . S
C1546 C1544 1.384 . S
C1546 C1547 1.372 . S
C1547 C1546 1.372 . S
C1547 C1548 1.400 . S
C1547 C1552 1.490 . S
C1548 H1538 0.930 . S
C1548 C1547 1.400 . S
C1548 C1551 1.386 . S
H1549 C1565 0.930 . S
H1550 C1566 0.931 . S
C1551 H1539 0.929 . S
C1551 C1545 1.390 . S
C1551 C1548 1.386 . S
C1552 C1547 1.490 . S
C1552 C1554 1.395 . S
C1552 C1555 1.403 . S
H1553 C1559 0.930 . S
C1554 H1540 0.930 . S
C1554 C1552 1.395 . S
C1554 C1557 1.403 . S
C1555 C1552 1.403 . S
C1555 C1556 1.524 . S
C1555 C1559 1.400 . S
C1556 H1541 0.960 . S
C1556 H1542 0.960 . S
C1556 H1543 0.960 . S
C1556 C1555 1.524 . S
C1557 C1554 1.403 . S
C1557 C1558 1.392 . S
C1557 C1561 1.495 . S
C1558 C1557 1.392 . S
C1558 C1559 1.385 . S
C1558 C1560 1.478 . S
C1559 H1553 0.930 . S
C1559 C1555 1.400 . S
C1559 C1558 1.385 . S
C1560 C1558 1.478 . S
C1560 C1562 1.381 . S
C1560 C1566 1.383 . S
C1561 C1557 1.495 . S
C1561 H1567 0.959 . S
C1561 H1568 0.961 . S
C1561 H1569 0.960 . S
C1562 C1560 1.381 . S
C1562 C1563 1.394 . S
C1562 H1570 0.930 . S
C1563 C1562 1.394 . S
C1563 C1564 1.383 . S
C1563 H1571 0.929 . S
C1564 C1563 1.383 . S
C1564 C1565 1.377 . S
C1565 H1549 0.930 . S
C1565 C1564 1.377 . S
C1565 C1566 1.379 . S
C1566 H1550 0.931 . S
C1566 C1560 1.383 . S
C1566 C1565 1.379 . S
H1567 C1561 0.959 . S
H1568 C1561 0.961 . S
H1569 C1561 0.960 . S
H1570 C1562 0.930 . S
H1571 C1563 0.929 . S
H1572 C1580 0.929 . S
H1573 C1582 0.930 . S
H1574 C1584 0.930 . S
H1575 C1587 0.929 . S
H1576 C1590 0.930 . S
H1577 C1592 0.960 . S
H1578 C1592 0.960 . S
H1579 C1592 0.960 . S
C1580 H1572 0.929 . S
C1580 C1581 1.377 . S
C1580 C1582 1.384 . S
C1581 C1580 1.377 . S
C1581 C1587 1.390 . S
C1582 H1573 0.930 . S
C1582 C1580 1.384 . S
C1582 C1583 1.372 . S
C1583 C1582 1.372 . S
C1583 C1584 1.400 . S
C1583 C1588 1.490 . S
C1584 H1574 0.930 . S
C1584 C1583 1.400 . S
C1584 C1587 1.386 . S
H1585 C1601 0.930 . S
H1586 C1602 0.931 . S
C1587 H1575 0.929 . S
C1587 C1581 1.390 . S
C1587 C1584 1.386 . S
C1588 C1583 1.490 . S
C1588 C1590 1.395 . S
C1588 C1591 1.403 . S
H1589 C1595 0.930 . S
C1590 H1576 0.930 . S
C1590 C1588 1.395 . S
C1590 C1593 1.403 . S
C1591 C1588 1.403 . S
C1591 C1592 1.524 . S
C1591 C1595 1.400 . S
C1592 H1577 0.960 . S
C1592 H1578 0.960 . S
C1592 H1579 0.960 . S
C1592 C1591 1.524 . S
C1593 C1590 1.403 . S
C1593 C1594 1.392 . S
C1593 C1597 1.495 . S
C1594 C1593 1.392 . S
C1594 C1595 1.385 . S
C1594 C1596 1.478 . S
C1595 H1589 0.930 . S
C1595 C1591 1.400 . S
C1595 C1594 1.385 . S
C1596 C1594 1.478 . S
C1596 C1598 1.381 . S
C1596 C1602 1.383 . S
C1597 C1593 1.495 . S
C1597 H1603 0.959 . S
C1597 H1604 0.961 . S
C1597 H1605 0.960 . S
C1598 C1596 1.381 . S
C1598 C1599 1.394 . S
C1598 H1606 0.930 . S
C1599 C1598 1.394 . S
C1599 C1600 1.383 . S
C1599 H1607 0.929 . S
C1600 C1599 1.383 . S
C1600 C1601 1.377 . S
C1601 H1585 0.930 . S
C1601 C1600 1.377 . S
C1601 C1602 1.379 . S
C1602 H1586 0.931 . S
C1602 C1596 1.383 . S
C1602 C1601 1.379 . S
H1603 C1597 0.959 . S
H1604 C1597 0.961 . S
H1605 C1597 0.960 . S
H1606 C1598 0.930 . S
H1607 C1599 0.929 . S
H1608 C1616 0.929 . S
H1609 C1618 0.930 . S
H1610 C1620 0.930 . S
H1611 C1623 0.929 . S
H1612 C1626 0.930 . S
H1613 C1628 0.960 . S
H1614 C1628 0.960 . S
H1615 C1628 0.960 . S
C1616 H1608 0.929 . S
C1616 C1617 1.377 . S
C1616 C1618 1.384 . S
C1617 C1616 1.377 . S
C1617 C1623 1.390 . S
C1618 H1609 0.930 . S
C1618 C1616 1.384 . S
C1618 C1619 1.372 . S
C1619 C1618 1.372 . S
C1619 C1620 1.400 . S
C1619 C1624 1.490 . S
C1620 H1610 0.930 . S
C1620 C1619 1.400 . S
C1620 C1623 1.386 . S
H1621 C1637 0.930 . S
H1622 C1638 0.931 . S
C1623 H1611 0.929 . S
C1623 C1617 1.390 . S
C1623 C1620 1.386 . S
C1624 C1619 1.490 . S
C1624 C1626 1.395 . S
C1624 C1627 1.403 . S
H1625 C1631 0.930 . S
C1626 H1612 0.930 . S
C1626 C1624 1.395 . S
C1626 C1629 1.403 . S
C1627 C1624 1.403 . S
C1627 C1628 1.524 . S
C1627 C1631 1.400 . S
C1628 H1613 0.960 . S
C1628 H1614 0.960 . S
C1628 H1615 0.960 . S
C1628 C1627 1.524 . S
C1629 C1626 1.403 . S
C1629 C1630 1.392 . S
C1629 C1633 1.495 . S
C1630 C1629 1.392 . S
C1630 C1631 1.385 . S
C1630 C1632 1.478 . S
C1631 H1625 0.930 . S
C1631 C1627 1.400 . S
C1631 C1630 1.385 . S
C1632 C1630 1.478 . S
C1632 C1634 1.381 . S
C1632 C1638 1.383 . S
C1633 C1629 1.495 . S
C1633 H1639 0.959 . S
C1633 H1640 0.961 . S
C1633 H1641 0.960 . S
C1634 C1632 1.381 . S
C1634 C1635 1.394 . S
C1634 H1642 0.930 . S
C1635 C1634 1.394 . S
C1635 C1636 1.383 . S
C1635 H1643 0.929 . S
C1636 C1635 1.383 . S
C1636 C1637 1.377 . S
C1637 H1621 0.930 . S
C1637 C1636 1.377 . S
C1637 C1638 1.379 . S
C1638 H1622 0.931 . S
C1638 C1632 1.383 . S
C1638 C1637 1.379 . S
H1639 C1633 0.959 . S
H1640 C1633 0.961 . S
H1641 C1633 0.960 . S
H1642 C1634 0.930 . S
H1643 C1635 0.929 . S
H1644 C1652 0.929 . S
H1645 C1654 0.930 . S
H1646 C1656 0.930 . S
H1647 C1659 0.929 . S
H1648 C1662 0.930 . S
H1649 C1664 0.960 . S
H1650 C1664 0.960 . S
H1651 C1664 0.960 . S
C1652 H1644 0.929 . S
C1652 C1653 1.377 . S
C1652 C1654 1.384 . S
C1653 C1652 1.377 . S
C1653 C1659 1.390 . S
C1654 H1645 0.930 . S
C1654 C1652 1.384 . S
C1654 C1655 1.372 . S
C1655 C1654 1.372 . S
C1655 C1656 1.400 . S
C1655 C1660 1.490 . S
C1656 H1646 0.930 . S
C1656 C1655 1.400 . S
C1656 C1659 1.386 . S
H1657 C1673 0.930 . S
H1658 C1674 0.931 . S
C1659 H1647 0.929 . S
C1659 C1653 1.390 . S
C1659 C1656 1.386 . S
C1660 C1655 1.490 . S
C1660 C1662 1.395 . S
C1660 C1663 1.403 . S
H1661 C1667 0.930 . S
C1662 H1648 0.930 . S
C1662 C1660 1.395 . S
C1662 C1665 1.403 . S
C1663 C1660 1.403 . S
C1663 C1664 1.524 . S
C1663 C1667 1.400 . S
C1664 H1649 0.960 . S
C1664 H1650 0.960 . S
C1664 H1651 0.960 . S
C1664 C1663 1.524 . S
C1665 C1662 1.403 . S
C1665 C1666 1.392 . S
C1665 C1669 1.495 . S
C1666 C1665 1.392 . S
C1666 C1667 1.385 . S
C1666 C1668 1.478 . S
C1667 H1661 0.930 . S
C1667 C1663 1.400 . S
C1667 C1666 1.385 . S
C1668 C1666 1.478 . S
C1668 C1670 1.381 . S
C1668 C1674 1.383 . S
C1669 C1665 1.495 . S
C1669 H1675 0.959 . S
C1669 H1676 0.961 . S
C1669 H1677 0.960 . S
C1670 C1668 1.381 . S
C1670 C1671 1.394 . S
C1670 H1678 0.930 . S
C1671 C1670 1.394 . S
C1671 C1672 1.383 . S
C1671 H1679 0.929 . S
C1672 C1671 1.383 . S
C1672 C1673 1.377 . S
C1673 H1657 0.930 . S
C1673 C1672 1.377 . S
C1673 C1674 1.379 . S
C1674 H1658 0.931 . S
C1674 C1668 1.383 . S
C1674 C1673 1.379 . S
H1675 C1669 0.959 . S
H1676 C1669 0.961 . S
H1677 C1669 0.960 . S
H1678 C1670 0.930 . S
H1679 C1671 0.929 . S
H1680 C1688 0.929 . S
H1681 C1690 0.930 . S
H1682 C1692 0.930 . S
H1683 C1695 0.929 . S
H1684 C1698 0.930 . S
H1685 C1700 0.960 . S
H1686 C1700 0.960 . S
H1687 C1700 0.960 . S
C1688 H1680 0.929 . S
C1688 C1689 1.377 . S
C1688 C1690 1.384 . S
C1689 C1688 1.377 . S
C1689 C1695 1.390 1_554 S
C1690 H1681 0.930 . S
C1690 C1688 1.384 . S
C1690 C1691 1.372 . S
C1691 C1690 1.372 . S
C1691 C1692 1.400 1_554 S
C1691 C1696 1.490 . S
C1692 H1682 0.930 . S
C1692 C1691 1.400 1_556 S
C1692 C1695 1.386 . S
H1693 C1709 0.930 . S
H1694 C1710 0.931 . S
C1695 H1683 0.929 . S
C1695 C1689 1.390 1_556 S
C1695 C1692 1.386 . S
C1696 C1691 1.490 . S
C1696 C1698 1.395 1_554 S
C1696 C1699 1.403 . S
H1697 C1703 0.930 . S
C1698 H1684 0.930 . S
C1698 C1696 1.395 1_556 S
C1698 C1701 1.403 . S
C1699 C1696 1.403 . S
C1699 C1700 1.524 . S
C1699 C1703 1.400 . S
C1700 H1685 0.960 . S
C1700 H1686 0.960 . S
C1700 H1687 0.960 . S
C1700 C1699 1.524 . S
C1701 C1698 1.403 . S
C1701 C1702 1.392 . S
C1701 C1705 1.495 . S
C1702 C1701 1.392 . S
C1702 C1703 1.385 1_556 S
C1702 C1704 1.478 . S
C1703 H1697 0.930 . S
C1703 C1699 1.400 . S
C1703 C1702 1.385 1_554 S
C1704 C1702 1.478 . S
C1704 C1706 1.381 1_556 S
C1704 C1710 1.383 . S
C1705 C1701 1.495 . S
C1705 H1711 0.959 . S
C1705 H1712 0.961 . S
C1705 H1713 0.960 . S
C1706 C1704 1.381 1_554 S
C1706 C1707 1.394 . S
C1706 H1714 0.930 . S
C1707 C1706 1.394 . S
C1707 C1708 1.383 1_554 S
C1707 H1715 0.929 . S
C1708 C1707 1.383 1_556 S
C1708 C1709 1.377 . S
C1709 H1693 0.930 . S
C1709 C1708 1.377 . S
C1709 C1710 1.379 . S
C1710 H1694 0.931 . S
C1710 C1704 1.383 . S
C1710 C1709 1.379 . S
H1711 C1705 0.959 . S
H1712 C1705 0.961 . S
H1713 C1705 0.960 . S
H1714 C1706 0.930 . S
H1715 C1707 0.929 . S
H1716 C1724 0.929 . S
H1717 C1726 0.930 . S
H1718 C1728 0.930 . S
H1719 C1731 0.929 . S
H1720 C1734 0.930 . S
H1721 C1736 0.960 . S
H1722 C1736 0.960 . S
H1723 C1736 0.960 . S
C1724 H1716 0.929 . S
C1724 C1725 1.377 . S
C1724 C1726 1.384 . S
C1725 C1724 1.377 . S
C1725 C1731 1.390 . S
C1726 H1717 0.930 . S
C1726 C1724 1.384 . S
C1726 C1727 1.372 . S
C1727 C1726 1.372 . S
C1727 C1728 1.400 . S
C1727 C1732 1.490 . S
C1728 H1718 0.930 . S
C1728 C1727 1.400 . S
C1728 C1731 1.386 . S
H1729 C1745 0.930 . S
H1730 C1746 0.931 . S
C1731 H1719 0.929 . S
C1731 C1725 1.390 . S
C1731 C1728 1.386 . S
C1732 C1727 1.490 . S
C1732 C1734 1.395 1_455 S
C1732 C1735 1.403 . S
H1733 C1739 0.929 . S
C1734 H1720 0.930 . S
C1734 C1732 1.395 1_655 S
C1734 C1737 1.403 . S
C1735 C1732 1.403 . S
C1735 C1736 1.524 . S
C1735 C1739 1.369 1_455 S
C1736 H1721 0.960 . S
C1736 H1722 0.960 . S
C1736 H1723 0.960 . S
C1736 C1735 1.524 . S
C1737 C1734 1.403 . S
C1737 C1738 1.392 . S
C1737 C1741 1.495 . S
C1738 C1737 1.392 . S
C1738 C1739 1.419 . S
C1738 C1740 1.478 . S
C1739 H1733 0.929 . S
C1739 C1735 1.369 1_655 S
C1739 C1738 1.419 . S
C1740 C1738 1.478 . S
C1740 C1742 1.381 . S
C1740 C1746 1.383 . S
C1741 C1737 1.495 . S
C1741 H1747 0.959 . S
C1741 H1748 0.961 . S
C1741 H1749 0.960 . S
C1742 C1740 1.381 . S
C1742 C1743 1.394 . S
C1742 H1750 0.930 . S
C1743 C1742 1.394 . S
C1743 C1744 1.383 . S
C1743 H1751 0.929 . S
C1744 C1743 1.383 . S
C1744 C1745 1.377 . S
C1745 H1729 0.930 . S
C1745 C1744 1.377 . S
C1745 C1746 1.379 . S
C1746 H1730 0.931 . S
C1746 C1740 1.383 . S
C1746 C1745 1.379 . S
H1747 C1741 0.959 . S
H1748 C1741 0.961 . S
H1749 C1741 0.960 . S
H1750 C1742 0.930 . S
H1751 C1743 0.929 . S
H1752 C1760 0.929 . S
H1753 C1762 0.930 . S
H1754 C1764 0.940 . S
H1755 C1767 0.919 1_556 S
H1756 C1770 0.930 . S
H1757 C1772 0.960 . S
H1758 C1772 0.960 . S
H1759 C1772 0.960 . S
C1760 H1752 0.929 . S
C1760 C1761 1.377 . S
C1760 C1762 1.384 . S
C1761 C1760 1.377 . S
C1761 C1767 1.405 . S
C1762 H1753 0.930 . S
C1762 C1760 1.384 . S
C1762 C1763 1.372 . S
C1763 C1762 1.372 . S
C1763 C1764 1.393 1_554 S
C1763 C1768 1.490 . S
C1764 H1754 0.940 . S
C1764 C1763 1.393 1_556 S
C1764 C1767 1.383 1_556 S
H1765 C1781 0.930 . S
H1766 C1782 0.931 . S
C1767 H1755 0.919 1_554 S
C1767 C1761 1.405 . S
C1767 C1764 1.383 1_554 S
C1768 C1763 1.490 . S
C1768 C1770 1.395 1_454 S
C1768 C1771 1.403 . S
H1769 C1775 0.931 . S
C1770 H1756 0.930 . S
C1770 C1768 1.395 1_656 S
C1770 C1773 1.403 . S
C1771 C1768 1.403 . S
C1771 C1772 1.524 . S
C1771 C1775 1.404 . S
C1772 H1757 0.960 . S
C1772 H1758 0.960 . S
C1772 H1759 0.960 . S
C1772 C1771 1.524 . S
C1773 C1770 1.403 . S
C1773 C1774 1.392 . S
C1773 C1777 1.495 . S
C1774 C1773 1.392 . S
C1774 C1775 1.381 1_656 S
C1774 C1776 1.478 . S
C1775 H1769 0.931 . S
C1775 C1771 1.404 . S
C1775 C1774 1.381 1_454 S
C1776 C1774 1.478 . S
C1776 C1778 1.370 1_556 S
C1776 C1782 1.383 . S
C1777 C1773 1.495 . S
C1777 H1783 0.959 . S
C1777 H1784 0.961 . S
C1777 H1785 0.960 . S
C1778 C1776 1.370 1_554 S
C1778 C1779 1.394 1_554 S
C1778 H1786 0.943 . S
C1779 C1778 1.394 1_556 S
C1779 C1780 1.383 . S
C1779 H1787 0.929 1_556 S
C1780 C1779 1.383 . S
C1780 C1781 1.377 . S
C1781 H1765 0.930 . S
C1781 C1780 1.377 . S
C1781 C1782 1.379 . S
C1782 H1766 0.931 . S
C1782 C1776 1.383 . S
C1782 C1781 1.379 . S
H1783 C1777 0.959 . S
H1784 C1777 0.961 . S
H1785 C1777 0.960 . S
H1786 C1778 0.943 . S
H1787 C1779 0.929 1_554 S
H1788 C1796 0.929 . S
H1789 C1798 0.930 . S
H1790 C1800 0.930 . S
H1791 C1803 0.929 . S
H1792 C1806 0.930 . S
H1793 C1808 0.960 . S
H1794 C1808 0.960 . S
H1795 C1808 0.960 . S
C1796 H1788 0.929 . S
C1796 C1797 1.377 . S
C1796 C1798 1.384 . S
C1797 C1796 1.377 . S
C1797 C1803 1.390 . S
C1798 H1789 0.930 . S
C1798 C1796 1.384 . S
C1798 C1799 1.372 . S
C1799 C1798 1.372 . S
C1799 C1800 1.400 . S
C1799 C1804 1.490 . S
C1800 H1790 0.930 . S
C1800 C1799 1.400 . S
C1800 C1803 1.386 . S
H1801 C1817 0.930 . S
H1802 C1818 0.931 . S
C1803 H1791 0.929 . S
C1803 C1797 1.390 . S
C1803 C1800 1.386 . S
C1804 C1799 1.490 . S
C1804 C1806 1.395 . S
C1804 C1807 1.403 . S
H1805 C1811 0.930 . S
C1806 H1792 0.930 . S
C1806 C1804 1.395 . S
C1806 C1809 1.403 . S
C1807 C1804 1.403 . S
C1807 C1808 1.524 . S
C1807 C1811 1.400 . S
C1808 H1793 0.960 . S
C1808 H1794 0.960 . S
C1808 H1795 0.960 . S
C1808 C1807 1.524 . S
C1809 C1806 1.403 . S
C1809 C1810 1.392 . S
C1809 C1813 1.495 . S
C1810 C1809 1.392 . S
C1810 C1811 1.385 . S
C1810 C1812 1.478 . S
C1811 H1805 0.930 . S
C1811 C1807 1.400 . S
C1811 C1810 1.385 . S
C1812 C1810 1.478 . S
C1812 C1814 1.381 . S
C1812 C1818 1.383 . S
C1813 C1809 1.495 . S
C1813 H1819 0.959 . S
C1813 H1820 0.961 . S
C1813 H1821 0.960 . S
C1814 C1812 1.381 . S
C1814 C1815 1.394 . S
C1814 H1822 0.930 . S
C1815 C1814 1.394 . S
C1815 C1816 1.383 . S
C1815 H1823 0.929 . S
C1816 C1815 1.383 . S
C1816 C1817 1.377 . S
C1817 H1801 0.930 . S
C1817 C1816 1.377 . S
C1817 C1818 1.379 . S
C1818 H1802 0.931 . S
C1818 C1812 1.383 . S
C1818 C1817 1.379 . S
H1819 C1813 0.959 . S
H1820 C1813 0.961 . S
H1821 C1813 0.960 . S
H1822 C1814 0.930 . S
H1823 C1815 0.929 . S
H1824 C1832 0.929 . S
H1825 C1834 0.930 . S
H1826 C1836 0.930 . S
H1827 C1839 0.929 . S
H1828 C1842 0.930 . S
H1829 C1844 0.960 . S
H1830 C1844 0.960 . S
H1831 C1844 0.960 . S
C1832 H1824 0.929 . S
C1832 C1833 1.377 . S
C1832 C1834 1.384 . S
C1833 C1832 1.377 . S
C1833 C1839 1.390 . S
C1834 H1825 0.930 . S
C1834 C1832 1.384 . S
C1834 C1835 1.372 . S
C1835 C1834 1.372 . S
C1835 C1836 1.400 . S
C1835 C1840 1.490 . S
C1836 H1826 0.930 . S
C1836 C1835 1.400 . S
C1836 C1839 1.386 . S
H1837 C1853 0.930 . S
H1838 C1854 0.931 . S
C1839 H1827 0.929 . S
C1839 C1833 1.390 . S
C1839 C1836 1.386 . S
C1840 C1835 1.490 . S
C1840 C1842 1.395 . S
C1840 C1843 1.403 . S
H1841 C1847 0.930 . S
C1842 H1828 0.930 . S
C1842 C1840 1.395 . S
C1842 C1845 1.403 . S
C1843 C1840 1.403 . S
C1843 C1844 1.524 . S
C1843 C1847 1.400 . S
C1844 H1829 0.960 . S
C1844 H1830 0.960 . S
C1844 H1831 0.960 . S
C1844 C1843 1.524 . S
C1845 C1842 1.403 . S
C1845 C1846 1.392 . S
C1845 C1849 1.495 . S
C1846 C1845 1.392 . S
C1846 C1847 1.385 . S
C1846 C1848 1.478 . S
C1847 H1841 0.930 . S
C1847 C1843 1.400 . S
C1847 C1846 1.385 . S
C1848 C1846 1.478 . S
C1848 C1850 1.381 . S
C1848 C1854 1.383 . S
C1849 C1845 1.495 . S
C1849 H1855 0.959 . S
C1849 H1856 0.961 . S
C1849 H1857 0.960 . S
C1850 C1848 1.381 . S
C1850 C1851 1.394 . S
C1850 H1858 0.930 . S
C1851 C1850 1.394 . S
C1851 C1852 1.383 . S
C1851 H1859 0.929 . S
C1852 C1851 1.383 . S
C1852 C1853 1.377 . S
C1853 H1837 0.930 . S
C1853 C1852 1.377 . S
C1853 C1854 1.379 . S
C1854 H1838 0.931 . S
C1854 C1848 1.383 . S
C1854 C1853 1.379 . S
H1855 C1849 0.959 . S
H1856 C1849 0.961 . S
H1857 C1849 0.960 . S
H1858 C1850 0.930 . S
H1859 C1851 0.929 . S
H1860 C1868 0.929 . S
H1861 C1870 0.930 . S
H1862 C1872 0.930 . S
H1863 C1875 0.929 . S
H1864 C1878 0.930 . S
H1865 C1880 0.960 . S
H1866 C1880 0.960 . S
H1867 C1880 0.960 . S
C1868 H1860 0.929 . S
C1868 C1869 1.377 . S
C1868 C1870 1.384 . S
C1869 C1868 1.377 . S
C1869 C1875 1.390 . S
C1870 H1861 0.930 . S
C1870 C1868 1.384 . S
C1870 C1871 1.372 . S
C1871 C1870 1.372 . S
C1871 C1872 1.400 . S
C1871 C1876 1.490 . S
C1872 H1862 0.930 . S
C1872 C1871 1.400 . S
C1872 C1875 1.386 . S
H1873 C1889 0.930 . S
H1874 C1890 0.931 . S
C1875 H1863 0.929 . S
C1875 C1869 1.390 . S
C1875 C1872 1.386 . S
C1876 C1871 1.490 . S
C1876 C1878 1.395 . S
C1876 C1879 1.403 1_455 S
H1877 C1883 0.930 . S
C1878 H1864 0.930 . S
C1878 C1876 1.395 . S
C1878 C1881 1.403 . S
C1879 C1876 1.403 1_655 S
C1879 C1880 1.524 . S
C1879 C1883 1.400 . S
C1880 H1865 0.960 . S
C1880 H1866 0.960 . S
C1880 H1867 0.960 . S
C1880 C1879 1.524 . S
C1881 C1878 1.403 . S
C1881 C1882 1.392 1_455 S
C1881 C1885 1.495 . S
C1882 C1881 1.392 1_655 S
C1882 C1883 1.385 . S
C1882 C1884 1.478 . S
C1883 H1877 0.930 . S
C1883 C1879 1.400 . S
C1883 C1882 1.385 . S
C1884 C1882 1.478 . S
C1884 C1886 1.381 . S
C1884 C1890 1.383 . S
C1885 C1881 1.495 . S
C1885 H1891 0.959 . S
C1885 H1892 0.961 . S
C1885 H1893 0.960 . S
C1886 C1884 1.381 . S
C1886 C1887 1.394 . S
C1886 H1894 0.930 . S
C1887 C1886 1.394 . S
C1887 C1888 1.383 . S
C1887 H1895 0.929 . S
C1888 C1887 1.383 . S
C1888 C1889 1.377 . S
C1889 H1873 0.930 . S
C1889 C1888 1.377 . S
C1889 C1890 1.379 . S
C1890 H1874 0.931 . S
C1890 C1884 1.383 . S
C1890 C1889 1.379 . S
H1891 C1885 0.959 . S
H1892 C1885 0.961 . S
H1893 C1885 0.960 . S
H1894 C1886 0.930 . S
H1895 C1887 0.929 . S
H1896 C1904 0.929 . S
H1897 C1906 0.930 . S
H1898 C1908 0.930 . S
H1899 C1911 0.929 . S
H1900 C1914 0.930 . S
H1901 C1916 0.960 . S
H1902 C1916 0.960 . S
H1903 C1916 0.960 . S
C1904 H1896 0.929 . S
C1904 C1905 1.377 . S
C1904 C1906 1.384 . S
C1905 C1904 1.377 . S
C1905 C1911 1.390 . S
C1906 H1897 0.930 . S
C1906 C1904 1.384 . S
C1906 C1907 1.372 . S
C1907 C1906 1.372 . S
C1907 C1908 1.400 . S
C1907 C1912 1.490 . S
C1908 H1898 0.930 . S
C1908 C1907 1.400 . S
C1908 C1911 1.386 . S
H1909 C1925 0.930 . S
H1910 C1926 0.931 . S
C1911 H1899 0.929 . S
C1911 C1905 1.390 . S
C1911 C1908 1.386 . S
C1912 C1907 1.490 . S
C1912 C1914 1.395 . S
C1912 C1915 1.403 . S
H1913 C1919 0.930 . S
C1914 H1900 0.930 . S
C1914 C1912 1.395 . S
C1914 C1917 1.403 . S
C1915 C1912 1.403 . S
C1915 C1916 1.524 . S
C1915 C1919 1.400 . S
C1916 H1901 0.960 . S
C1916 H1902 0.960 . S
C1916 H1903 0.960 . S
C1916 C1915 1.524 . S
C1917 C1914 1.403 . S
C1917 C1918 1.392 . S
C1917 C1921 1.495 . S
C1918 C1917 1.392 . S
C1918 C1919 1.385 . S
C1918 C1920 1.478 . S
C1919 H1913 0.930 . S
C1919 C1915 1.400 . S
C1919 C1918 1.385 . S
C1920 C1918 1.478 . S
C1920 C1922 1.381 . S
C1920 C1926 1.383 . S
C1921 C1917 1.495 . S
C1921 H1927 0.959 . S
C1921 H1928 0.961 . S
C1921 H1929 0.960 . S
C1922 C1920 1.381 . S
C1922 C1923 1.394 . S
C1922 H1930 0.930 . S
C1923 C1922 1.394 . S
C1923 C1924 1.383 . S
C1923 H1931 0.929 . S
C1924 C1923 1.383 . S
C1924 C1925 1.377 . S
C1925 H1909 0.930 . S
C1925 C1924 1.377 . S
C1925 C1926 1.379 . S
C1926 H1910 0.931 . S
C1926 C1920 1.383 . S
C1926 C1925 1.379 . S
H1927 C1921 0.959 . S
H1928 C1921 0.961 . S
H1929 C1921 0.960 . S
H1930 C1922 0.930 . S
H1931 C1923 0.929 . S
H1932 C1940 0.929 . S
H1933 C1942 0.930 . S
H1934 C1944 0.930 . S
H1935 C1947 0.929 . S
H1936 C1950 0.930 . S
H1937 C1952 0.960 . S
H1938 C1952 0.960 . S
H1939 C1952 0.960 . S
C1940 H1932 0.929 . S
C1940 C1941 1.377 . S
C1940 C1942 1.384 . S
C1941 C1940 1.377 . S
C1941 C1947 1.390 . S
C1942 H1933 0.930 . S
C1942 C1940 1.384 . S
C1942 C1943 1.372 . S
C1943 C1942 1.372 . S
C1943 C1944 1.400 . S
C1943 C1948 1.490 . S
C1944 H1934 0.930 . S
C1944 C1943 1.400 . S
C1944 C1947 1.386 . S
H1945 C1961 0.930 . S
H1946 C1962 0.931 . S
C1947 H1935 0.929 . S
C1947 C1941 1.390 . S
C1947 C1944 1.386 . S
C1948 C1943 1.490 . S
C1948 C1950 1.395 . S
C1948 C1951 1.403 . S
H1949 C1955 0.930 . S
C1950 H1936 0.930 . S
C1950 C1948 1.395 . S
C1950 C1953 1.403 . S
C1951 C1948 1.403 . S
C1951 C1952 1.524 . S
C1951 C1955 1.400 . S
C1952 H1937 0.960 . S
C1952 H1938 0.960 . S
C1952 H1939 0.960 . S
C1952 C1951 1.524 . S
C1953 C1950 1.403 . S
C1953 C1954 1.392 . S
C1953 C1957 1.495 . S
C1954 C1953 1.392 . S
C1954 C1955 1.385 . S
C1954 C1956 1.478 . S
C1955 H1949 0.930 . S
C1955 C1951 1.400 . S
C1955 C1954 1.385 . S
C1956 C1954 1.478 . S
C1956 C1958 1.381 . S
C1956 C1962 1.383 . S
C1957 C1953 1.495 . S
C1957 H1963 0.959 . S
C1957 H1964 0.961 . S
C1957 H1965 0.960 . S
C1958 C1956 1.381 . S
C1958 C1959 1.394 . S
C1958 H1966 0.930 . S
C1959 C1958 1.394 . S
C1959 C1960 1.383 . S
C1959 H1967 0.929 . S
C1960 C1959 1.383 . S
C1960 C1961 1.377 . S
C1961 H1945 0.930 . S
C1961 C1960 1.377 . S
C1961 C1962 1.379 . S
C1962 H1946 0.931 . S
C1962 C1956 1.383 . S
C1962 C1961 1.379 . S
H1963 C1957 0.959 . S
H1964 C1957 0.961 . S
H1965 C1957 0.960 . S
H1966 C1958 0.930 . S
H1967 C1959 0.929 . S
H1968 C1976 0.929 . S
H1969 C1978 0.930 . S
H1970 C1980 0.930 . S
H1971 C1983 0.929 . S
H1972 C1986 0.930 . S
H1973 C1988 0.960 . S
H1974 C1988 0.960 . S
H1975 C1988 0.960 . S
C1976 H1968 0.929 . S
C1976 C1977 1.377 . S
C1976 C1978 1.384 . S
C1977 C1976 1.377 . S
C1977 C1983 1.390 . S
C1978 H1969 0.930 . S
C1978 C1976 1.384 . S
C1978 C1979 1.372 . S
C1979 C1978 1.372 . S
C1979 C1980 1.400 . S
C1979 C1984 1.490 . S
C1980 H1970 0.930 . S
C1980 C1979 1.400 . S
C1980 C1983 1.386 . S
H1981 C1997 0.930 . S
H1982 C1998 0.931 . S
C1983 H1971 0.929 . S
C1983 C1977 1.390 . S
C1983 C1980 1.386 . S
C1984 C1979 1.490 . S
C1984 C1986 1.395 . S
C1984 C1987 1.403 . S
H1985 C1991 0.930 . S
C1986 H1972 0.930 . S
C1986 C1984 1.395 . S
C1986 C1989 1.403 . S
C1987 C1984 1.403 . S
C1987 C1988 1.524 . S
C1987 C1991 1.400 . S
C1988 H1973 0.960 . S
C1988 H1974 0.960 . S
C1988 H1975 0.960 . S
C1988 C1987 1.524 . S
C1989 C1986 1.403 . S
C1989 C1990 1.392 . S
C1989 C1993 1.495 . S
C1990 C1989 1.392 . S
C1990 C1991 1.385 . S
C1990 C1992 1.478 . S
C1991 H1985 0.930 . S
C1991 C1987 1.400 . S
C1991 C1990 1.385 . S
C1992 C1990 1.478 . S
C1992 C1994 1.381 . S
C1992 C1998 1.383 . S
C1993 C1989 1.495 . S
C1993 H1999 0.959 . S
C1993 H2000 0.961 . S
C1993 H2001 0.960 . S
C1994 C1992 1.381 . S
C1994 C1995 1.394 . S
C1994 H2002 0.930 . S
C1995 C1994 1.394 . S
C1995 C1996 1.383 . S
C1995 H2003 0.929 . S
C1996 C1995 1.383 . S
C1996 C1997 1.377 . S
C1997 H1981 0.930 . S
C1997 C1996 1.377 . S
C1997 C1998 1.379 . S
C1998 H1982 0.931 . S
C1998 C1992 1.383 . S
C1998 C1997 1.379 . S
H1999 C1993 0.959 . S
H2000 C1993 0.961 . S
H2001 C1993 0.960 . S
H2002 C1994 0.930 . S
H2003 C1995 0.929 . S
H2004 C2012 0.929 . S
H2005 C2014 0.930 . S
H2006 C2016 0.930 . S
H2007 C2019 0.929 . S
H2008 C2022 0.930 . S
H2009 C2024 0.960 . S
H2010 C2024 0.960 . S
H2011 C2024 0.960 . S
C2012 H2004 0.929 . S
C2012 C2013 1.377 . S
C2012 C2014 1.384 . S
C2013 C2012 1.377 . S
C2013 C2019 1.390 . S
C2014 H2005 0.930 . S
C2014 C2012 1.384 . S
C2014 C2015 1.372 . S
C2015 C2014 1.372 . S
C2015 C2016 1.400 . S
C2015 C2020 1.490 . S
C2016 H2006 0.930 . S
C2016 C2015 1.400 . S
C2016 C2019 1.386 . S
H2017 C2033 0.930 . S
H2018 C2034 0.931 . S
C2019 H2007 0.929 . S
C2019 C2013 1.390 . S
C2019 C2016 1.386 . S
C2020 C2015 1.490 . S
C2020 C2022 1.395 . S
C2020 C2023 1.403 . S
H2021 C2027 0.930 . S
C2022 H2008 0.930 . S
C2022 C2020 1.395 . S
C2022 C2025 1.403 . S
C2023 C2020 1.403 . S
C2023 C2024 1.524 . S
C2023 C2027 1.400 . S
C2024 H2009 0.960 . S
C2024 H2010 0.960 . S
C2024 H2011 0.960 . S
C2024 C2023 1.524 . S
C2025 C2022 1.403 . S
C2025 C2026 1.392 . S
C2025 C2029 1.495 . S
C2026 C2025 1.392 . S
C2026 C2027 1.385 . S
C2026 C2028 1.478 . S
C2027 H2021 0.930 . S
C2027 C2023 1.400 . S
C2027 C2026 1.385 . S
C2028 C2026 1.478 . S
C2028 C2030 1.381 . S
C2028 C2034 1.383 . S
C2029 C2025 1.495 . S
C2029 H2035 0.959 . S
C2029 H2036 0.961 . S
C2029 H2037 0.960 . S
C2030 C2028 1.381 . S
C2030 C2031 1.394 . S
C2030 H2038 0.930 . S
C2031 C2030 1.394 . S
C2031 C2032 1.383 . S
C2031 H2039 0.929 . S
C2032 C2031 1.383 . S
C2032 C2033 1.377 . S
C2033 H2017 0.930 . S
C2033 C2032 1.377 . S
C2033 C2034 1.379 . S
C2034 H2018 0.931 . S
C2034 C2028 1.383 . S
C2034 C2033 1.379 . S
H2035 C2029 0.959 . S
H2036 C2029 0.961 . S
H2037 C2029 0.960 . S
H2038 C2030 0.930 . S
H2039 C2031 0.929 . S
H2040 C2048 0.929 . S
H2041 C2050 0.930 . S
H2042 C2052 0.930 . S
H2043 C2055 0.929 . S
H2044 C2058 0.930 . S
H2045 C2060 0.960 . S
H2046 C2060 0.960 . S
H2047 C2060 0.960 . S
C2048 H2040 0.929 . S
C2048 C2049 1.377 . S
C2048 C2050 1.384 . S
C2049 C2048 1.377 . S
C2049 C2055 1.390 . S
C2050 H2041 0.930 . S
C2050 C2048 1.384 . S
C2050 C2051 1.372 . S
C2051 C2050 1.372 . S
C2051 C2052 1.400 . S
C2051 C2056 1.490 . S
C2052 H2042 0.930 . S
C2052 C2051 1.400 . S
C2052 C2055 1.386 . S
H2053 C2069 0.930 . S
H2054 C2070 0.931 . S
C2055 H2043 0.929 . S
C2055 C2049 1.390 . S
C2055 C2052 1.386 . S
C2056 C2051 1.490 . S
C2056 C2058 1.395 . S
C2056 C2059 1.403 . S
H2057 C2063 0.930 . S
C2058 H2044 0.930 . S
C2058 C2056 1.395 . S
C2058 C2061 1.403 . S
C2059 C2056 1.403 . S
C2059 C2060 1.524 . S
C2059 C2063 1.400 . S
C2060 H2045 0.960 . S
C2060 H2046 0.960 . S
C2060 H2047 0.960 . S
C2060 C2059 1.524 . S
C2061 C2058 1.403 . S
C2061 C2062 1.392 . S
C2061 C2065 1.495 . S
C2062 C2061 1.392 . S
C2062 C2063 1.385 . S
C2062 C2064 1.478 . S
C2063 H2057 0.930 . S
C2063 C2059 1.400 . S
C2063 C2062 1.385 . S
C2064 C2062 1.478 . S
C2064 C2066 1.381 . S
C2064 C2070 1.383 . S
C2065 C2061 1.495 . S
C2065 H2071 0.959 . S
C2065 H2072 0.961 . S
C2065 H2073 0.960 . S
C2066 C2064 1.381 . S
C2066 C2067 1.394 . S
C2066 H2074 0.930 . S
C2067 C2066 1.394 . S
C2067 C2068 1.383 . S
C2067 H2075 0.929 . S
C2068 C2067 1.383 . S
C2068 C2069 1.377 . S
C2069 H2053 0.930 . S
C2069 C2068 1.377 . S
C2069 C2070 1.379 . S
C2070 H2054 0.931 . S
C2070 C2064 1.383 . S
C2070 C2069 1.379 . S
H2071 C2065 0.959 . S
H2072 C2065 0.961 . S
H2073 C2065 0.960 . S
H2074 C2066 0.930 . S
H2075 C2067 0.929 . S
H2076 C2084 0.929 . S
H2077 C2086 0.930 . S
H2078 C2088 0.930 . S
H2079 C2091 0.929 . S
H2080 C2094 0.930 . S
H2081 C2096 0.960 . S
H2082 C2096 0.960 . S
H2083 C2096 0.960 . S
C2084 H2076 0.929 . S
C2084 C2085 1.377 . S
C2084 C2086 1.384 . S
C2085 C2084 1.377 . S
C2085 C2091 1.390 . S
C2086 H2077 0.930 . S
C2086 C2084 1.384 . S
C2086 C2087 1.372 . S
C2087 C2086 1.372 . S
C2087 C2088 1.400 . S
C2087 C2092 1.490 . S
C2088 H2078 0.930 . S
C2088 C2087 1.400 . S
C2088 C2091 1.386 . S
H2089 C2105 0.930 . S
H2090 C2106 0.931 . S
C2091 H2079 0.929 . S
C2091 C2085 1.390 . S
C2091 C2088 1.386 . S
C2092 C2087 1.490 . S
C2092 C2094 1.395 . S
C2092 C2095 1.403 . S
H2093 C2099 0.930 . S
C2094 H2080 0.930 . S
C2094 C2092 1.395 . S
C2094 C2097 1.403 1_655 S
C2095 C2092 1.403 . S
C2095 C2096 1.524 . S
C2095 C2099 1.400 . S
C2096 H2081 0.960 . S
C2096 H2082 0.960 . S
C2096 H2083 0.960 . S
C2096 C2095 1.524 . S
C2097 C2094 1.403 1_455 S
C2097 C2098 1.392 . S
C2097 C2101 1.495 . S
C2098 C2097 1.392 . S
C2098 C2099 1.385 1_455 S
C2098 C2100 1.478 . S
C2099 H2093 0.930 . S
C2099 C2095 1.400 . S
C2099 C2098 1.385 1_655 S
C2100 C2098 1.478 . S
C2100 C2102 1.381 . S
C2100 C2106 1.383 . S
C2101 C2097 1.495 . S
C2101 H2107 0.959 . S
C2101 H2108 0.961 . S
C2101 H2109 0.960 . S
C2102 C2100 1.381 . S
C2102 C2103 1.394 . S
C2102 H2110 0.930 . S
C2103 C2102 1.394 . S
C2103 C2104 1.383 . S
C2103 H2111 0.929 . S
C2104 C2103 1.383 . S
C2104 C2105 1.377 . S
C2105 H2089 0.930 . S
C2105 C2104 1.377 . S
C2105 C2106 1.379 . S
C2106 H2090 0.931 . S
C2106 C2100 1.383 . S
C2106 C2105 1.379 . S
H2107 C2101 0.959 . S
H2108 C2101 0.961 . S
H2109 C2101 0.960 . S
H2110 C2102 0.930 . S
H2111 C2103 0.929 . S
H2112 C2120 0.929 . S
H2113 C2122 0.930 . S
H2114 C2124 0.930 . S
H2115 C2127 0.929 . S
H2116 C2130 0.930 . S
H2117 C2132 0.960 . S
H2118 C2132 0.960 . S
H2119 C2132 0.960 . S
C2120 H2112 0.929 . S
C2120 C2121 1.377 . S
C2120 C2122 1.384 . S
C2121 C2120 1.377 . S
C2121 C2127 1.390 . S
C2122 H2113 0.930 . S
C2122 C2120 1.384 . S
C2122 C2123 1.372 . S
C2123 C2122 1.372 . S
C2123 C2124 1.400 . S
C2123 C2128 1.490 . S
C2124 H2114 0.930 . S
C2124 C2123 1.400 . S
C2124 C2127 1.386 . S
H2125 C2141 0.930 . S
H2126 C2142 0.931 . S
C2127 H2115 0.929 . S
C2127 C2121 1.390 . S
C2127 C2124 1.386 . S
C2128 C2123 1.490 . S
C2128 C2130 1.395 . S
C2128 C2131 1.403 . S
H2129 C2135 0.930 . S
C2130 H2116 0.930 . S
C2130 C2128 1.395 . S
C2130 C2133 1.403 . S
C2131 C2128 1.403 . S
C2131 C2132 1.524 . S
C2131 C2135 1.400 . S
C2132 H2117 0.960 . S
C2132 H2118 0.960 . S
C2132 H2119 0.960 . S
C2132 C2131 1.524 . S
C2133 C2130 1.403 . S
C2133 C2134 1.392 . S
C2133 C2137 1.495 . S
C2134 C2133 1.392 . S
C2134 C2135 1.385 . S
C2134 C2136 1.478 . S
C2135 H2129 0.930 . S
C2135 C2131 1.400 . S
C2135 C2134 1.385 . S
C2136 C2134 1.478 . S
C2136 C2138 1.381 . S
C2136 C2142 1.383 . S
C2137 C2133 1.495 . S
C2137 H2143 0.959 . S
C2137 H2144 0.961 . S
C2137 H2145 0.960 . S
C2138 C2136 1.381 . S
C2138 C2139 1.394 . S
C2138 H2146 0.930 . S
C2139 C2138 1.394 . S
C2139 C2140 1.383 . S
C2139 H2147 0.929 . S
C2140 C2139 1.383 . S
C2140 C2141 1.377 . S
C2141 H2125 0.930 . S
C2141 C2140 1.377 . S
C2141 C2142 1.379 . S
C2142 H2126 0.931 . S
C2142 C2136 1.383 . S
C2142 C2141 1.379 . S
H2143 C2137 0.959 . S
H2144 C2137 0.961 . S
H2145 C2137 0.960 . S
H2146 C2138 0.930 . S
H2147 C2139 0.929 . S
H2148 C2156 0.929 . S
H2149 C2158 0.930 . S
H2150 C2160 0.930 . S
H2151 C2163 0.929 . S
H2152 C2166 0.930 . S
H2153 C2168 0.960 . S
H2154 C2168 0.960 . S
H2155 C2168 0.960 . S
C2156 H2148 0.929 . S
C2156 C2157 1.377 . S
C2156 C2158 1.384 . S
C2157 C2156 1.377 . S
C2157 C2163 1.390 . S
C2158 H2149 0.930 . S
C2158 C2156 1.384 . S
C2158 C2159 1.372 . S
C2159 C2158 1.372 . S
C2159 C2160 1.400 . S
C2159 C2164 1.490 . S
C2160 H2150 0.930 . S
C2160 C2159 1.400 . S
C2160 C2163 1.386 . S
H2161 C2177 0.930 . S
H2162 C2178 0.931 . S
C2163 H2151 0.929 . S
C2163 C2157 1.390 . S
C2163 C2160 1.386 . S
C2164 C2159 1.490 . S
C2164 C2166 1.395 . S
C2164 C2167 1.403 1_655 S
H2165 C2171 0.930 . S
C2166 H2152 0.930 . S
C2166 C2164 1.395 . S
C2166 C2169 1.370 1_655 S
C2167 C2164 1.403 1_455 S
C2167 C2168 1.524 . S
C2167 C2171 1.400 . S
C2168 H2153 0.960 . S
C2168 H2154 0.960 . S
C2168 H2155 0.960 . S
C2168 C2167 1.524 . S
C2169 C2166 1.370 1_455 S
C2169 C2170 1.443 . S
C2169 C2173 1.479 1_455 S
C2170 C2169 1.443 . S
C2170 C2171 1.385 . S
C2170 C2172 1.478 . S
C2171 H2165 0.930 . S
C2171 C2167 1.400 . S
C2171 C2170 1.385 . S
C2172 C2170 1.478 . S
C2172 C2174 1.381 . S
C2172 C2178 1.383 . S
C2173 C2169 1.479 1_655 S
C2173 H2179 0.959 . S
C2173 H2180 0.961 1_655 S
C2173 H2181 0.960 . S
C2174 C2172 1.381 . S
C2174 C2175 1.394 . S
C2174 H2182 0.930 . S
C2175 C2174 1.394 . S
C2175 C2176 1.383 . S
C2175 H2183 0.929 . S
C2176 C2175 1.383 . S
C2176 C2177 1.377 . S
C2177 H2161 0.930 . S
C2177 C2176 1.377 . S
C2177 C2178 1.379 . S
C2178 H2162 0.931 . S
C2178 C2172 1.383 . S
C2178 C2177 1.379 . S
H2179 C2173 0.959 . S
H2180 C2173 0.961 1_455 S
H2181 C2173 0.960 . S
H2182 C2174 0.930 . S
H2183 C2175 0.929 . S
H2184 C2192 0.929 . S
H2185 C2194 0.930 . S
H2186 C2196 0.930 . S
H2187 C2199 0.929 . S
H2188 C2202 0.930 . S
H2189 C2204 0.960 . S
H2190 C2204 0.960 . S
H2191 C2204 0.960 . S
C2192 H2184 0.929 . S
C2192 C2193 1.377 . S
C2192 C2194 1.384 . S
C2193 C2192 1.377 . S
C2193 C2199 1.390 . S
C2194 H2185 0.930 . S
C2194 C2192 1.384 . S
C2194 C2195 1.372 . S
C2195 C2194 1.372 . S
C2195 C2196 1.400 . S
C2195 C2200 1.490 . S
C2196 H2186 0.930 . S
C2196 C2195 1.400 . S
C2196 C2199 1.386 . S
H2197 C2213 0.930 . S
H2198 C2214 0.931 . S
C2199 H2187 0.929 . S
C2199 C2193 1.390 . S
C2199 C2196 1.386 . S
C2200 C2195 1.490 . S
C2200 C2202 1.395 . S
C2200 C2203 1.403 . S
H2201 C2207 0.930 . S
C2202 H2188 0.930 . S
C2202 C2200 1.395 . S
C2202 C2205 1.403 . S
C2203 C2200 1.403 . S
C2203 C2204 1.524 . S
C2203 C2207 1.400 . S
C2204 H2189 0.960 . S
C2204 H2190 0.960 . S
C2204 H2191 0.960 . S
C2204 C2203 1.524 . S
C2205 C2202 1.403 . S
C2205 C2206 1.392 . S
C2205 C2209 1.495 . S
C2206 C2205 1.392 . S
C2206 C2207 1.385 . S
C2206 C2208 1.478 . S
C2207 H2201 0.930 . S
C2207 C2203 1.400 . S
C2207 C2206 1.385 . S
C2208 C2206 1.478 . S
C2208 C2210 1.381 . S
C2208 C2214 1.383 . S
C2209 C2205 1.495 . S
C2209 H2215 0.959 . S
C2209 H2216 0.961 . S
C2209 H2217 0.960 . S
C2210 C2208 1.381 . S
C2210 C2211 1.394 . S
C2210 H2218 0.930 . S
C2211 C2210 1.394 . S
C2211 C2212 1.383 . S
C2211 H2219 0.929 . S
C2212 C2211 1.383 . S
C2212 C2213 1.377 . S
C2213 H2197 0.930 . S
C2213 C2212 1.377 . S
C2213 C2214 1.379 . S
C2214 H2198 0.931 . S
C2214 C2208 1.383 . S
C2214 C2213 1.379 . S
H2215 C2209 0.959 . S
H2216 C2209 0.961 . S
H2217 C2209 0.960 . S
H2218 C2210 0.930 . S
H2219 C2211 0.929 . S
H2220 C2228 0.929 . S
H2221 C2230 0.930 . S
H2222 C2232 0.930 . S
H2223 C2235 0.929 . S
H2224 C2238 0.930 . S
H2225 C2240 0.960 . S
H2226 C2240 0.960 . S
H2227 C2240 0.960 . S
C2228 H2220 0.929 . S
C2228 C2229 1.377 . S
C2228 C2230 1.384 . S
C2229 C2228 1.377 . S
C2229 C2235 1.390 . S
C2230 H2221 0.930 . S
C2230 C2228 1.384 . S
C2230 C2231 1.372 . S
C2231 C2230 1.372 . S
C2231 C2232 1.400 . S
C2231 C2236 1.490 . S
C2232 H2222 0.930 . S
C2232 C2231 1.400 . S
C2232 C2235 1.386 . S
H2233 C2249 0.930 . S
H2234 C2250 0.931 . S
C2235 H2223 0.929 . S
C2235 C2229 1.390 . S
C2235 C2232 1.386 . S
C2236 C2231 1.490 . S
C2236 C2238 1.395 . S
C2236 C2239 1.403 . S
H2237 C2243 0.930 . S
C2238 H2224 0.930 . S
C2238 C2236 1.395 . S
C2238 C2241 1.403 . S
C2239 C2236 1.403 . S
C2239 C2240 1.524 . S
C2239 C2243 1.400 . S
C2240 H2225 0.960 . S
C2240 H2226 0.960 . S
C2240 H2227 0.960 . S
C2240 C2239 1.524 . S
C2241 C2238 1.403 . S
C2241 C2242 1.392 . S
C2241 C2245 1.495 . S
C2242 C2241 1.392 . S
C2242 C2243 1.385 . S
C2242 C2244 1.478 . S
C2243 H2237 0.930 . S
C2243 C2239 1.400 . S
C2243 C2242 1.385 . S
C2244 C2242 1.478 . S
C2244 C2246 1.381 . S
C2244 C2250 1.383 . S
C2245 C2241 1.495 . S
C2245 H2251 0.959 . S
C2245 H2252 0.961 . S
C2245 H2253 0.960 . S
C2246 C2244 1.381 . S
C2246 C2247 1.394 . S
C2246 H2254 0.930 . S
C2247 C2246 1.394 . S
C2247 C2248 1.383 . S
C2247 H2255 0.929 . S
C2248 C2247 1.383 . S
C2248 C2249 1.377 . S
C2249 H2233 0.930 . S
C2249 C2248 1.377 . S
C2249 C2250 1.379 . S
C2250 H2234 0.931 . S
C2250 C2244 1.383 . S
C2250 C2249 1.379 . S
H2251 C2245 0.959 . S
H2252 C2245 0.961 . S
H2253 C2245 0.960 . S
H2254 C2246 0.930 . S
H2255 C2247 0.929 . S
H2256 C2264 0.929 . S
H2257 C2266 0.930 . S
H2258 C2268 0.930 . S
H2259 C2271 0.929 . S
H2260 C2274 0.930 . S
H2261 C2276 0.960 . S
H2262 C2276 0.960 . S
H2263 C2276 0.960 . S
C2264 H2256 0.929 . S
C2264 C2265 1.377 . S
C2264 C2266 1.384 . S
C2265 C2264 1.377 . S
C2265 C2271 1.390 . S
C2266 H2257 0.930 . S
C2266 C2264 1.384 . S
C2266 C2267 1.372 . S
C2267 C2266 1.372 . S
C2267 C2268 1.400 . S
C2267 C2272 1.490 . S
C2268 H2258 0.930 . S
C2268 C2267 1.400 . S
C2268 C2271 1.386 . S
H2269 C2285 0.930 . S
H2270 C2286 0.931 . S
C2271 H2259 0.929 . S
C2271 C2265 1.390 . S
C2271 C2268 1.386 . S
C2272 C2267 1.490 . S
C2272 C2274 1.395 . S
C2272 C2275 1.403 . S
H2273 C2279 0.930 . S
C2274 H2260 0.930 . S
C2274 C2272 1.395 . S
C2274 C2277 1.403 . S
C2275 C2272 1.403 . S
C2275 C2276 1.524 . S
C2275 C2279 1.400 . S
C2276 H2261 0.960 . S
C2276 H2262 0.960 . S
C2276 H2263 0.960 . S
C2276 C2275 1.524 . S
C2277 C2274 1.403 . S
C2277 C2278 1.392 . S
C2277 C2281 1.495 . S
C2278 C2277 1.392 . S
C2278 C2279 1.385 . S
C2278 C2280 1.478 . S
C2279 H2273 0.930 . S
C2279 C2275 1.400 . S
C2279 C2278 1.385 . S
C2280 C2278 1.478 . S
C2280 C2282 1.381 . S
C2280 C2286 1.383 . S
C2281 C2277 1.495 . S
C2281 H2287 0.959 . S
C2281 H2288 0.961 . S
C2281 H2289 0.960 . S
C2282 C2280 1.381 . S
C2282 C2283 1.394 . S
C2282 H2290 0.930 . S
C2283 C2282 1.394 . S
C2283 C2284 1.383 . S
C2283 H2291 0.929 . S
C2284 C2283 1.383 . S
C2284 C2285 1.377 . S
C2285 H2269 0.930 . S
C2285 C2284 1.377 . S
C2285 C2286 1.379 . S
C2286 H2270 0.931 . S
C2286 C2280 1.383 . S
C2286 C2285 1.379 . S
H2287 C2281 0.959 . S
H2288 C2281 0.961 . S
H2289 C2281 0.960 . S
H2290 C2282 0.930 . S
H2291 C2283 0.929 . S
H2292 C2300 0.929 . S
H2293 C2302 0.930 . S
H2294 C2304 0.930 . S
H2295 C2307 0.929 . S
H2296 C2310 0.930 . S
H2297 C2312 0.960 . S
H2298 C2312 0.960 . S
H2299 C2312 0.960 . S
C2300 H2292 0.929 . S
C2300 C2301 1.377 . S
C2300 C2302 1.384 . S
C2301 C2300 1.377 . S
C2301 C2307 1.390 . S
C2302 H2293 0.930 . S
C2302 C2300 1.384 . S
C2302 C2303 1.372 . S
C2303 C2302 1.372 . S
C2303 C2304 1.400 . S
C2303 C2308 1.490 . S
C2304 H2294 0.930 . S
C2304 C2303 1.400 . S
C2304 C2307 1.386 . S
H2305 C2321 0.930 . S
H2306 C2322 0.931 . S
C2307 H2295 0.929 . S
C2307 C2301 1.390 . S
C2307 C2304 1.386 . S
C2308 C2303 1.490 . S
C2308 C2310 1.395 . S
C2308 C2311 1.403 . S
H2309 C2315 0.930 . S
C2310 H2296 0.930 . S
C2310 C2308 1.395 . S
C2310 C2313 1.403 . S
C2311 C2308 1.403 . S
C2311 C2312 1.524 . S
C2311 C2315 1.400 . S
C2312 H2297 0.960 . S
C2312 H2298 0.960 . S
C2312 H2299 0.960 . S
C2312 C2311 1.524 . S
C2313 C2310 1.403 . S
C2313 C2314 1.392 . S
C2313 C2317 1.495 . S
C2314 C2313 1.392 . S
C2314 C2315 1.385 . S
C2314 C2316 1.478 . S
C2315 H2309 0.930 . S
C2315 C2311 1.400 . S
C2315 C2314 1.385 . S
C2316 C2314 1.478 . S
C2316 C2318 1.381 . S
C2316 C2322 1.383 . S
C2317 C2313 1.495 . S
C2317 H2323 0.959 . S
C2317 H2324 0.961 . S
C2317 H2325 0.960 . S
C2318 C2316 1.381 . S
C2318 C2319 1.394 . S
C2318 H2326 0.930 . S
C2319 C2318 1.394 . S
C2319 C2320 1.383 . S
C2319 H2327 0.929 . S
C2320 C2319 1.383 . S
C2320 C2321 1.377 . S
C2321 H2305 0.930 . S
C2321 C2320 1.377 . S
C2321 C2322 1.379 . S
C2322 H2306 0.931 . S
C2322 C2316 1.383 . S
C2322 C2321 1.379 . S
H2323 C2317 0.959 . S
H2324 C2317 0.961 . S
H2325 C2317 0.960 . S
H2326 C2318 0.930 . S
H2327 C2319 0.929 . S
H2328 C2336 0.929 . S
H2329 C2338 0.930 . S
H2330 C2340 0.930 . S
H2331 C2343 0.929 . S
H2332 C2346 0.930 . S
H2333 C2348 0.960 . S
H2334 C2348 0.960 . S
H2335 C2348 0.960 . S
C2336 H2328 0.929 . S
C2336 C2337 1.377 . S
C2336 C2338 1.384 . S
C2337 C2336 1.377 . S
C2337 C2343 1.390 . S
C2338 H2329 0.930 . S
C2338 C2336 1.384 . S
C2338 C2339 1.372 . S
C2339 C2338 1.372 . S
C2339 C2340 1.400 . S
C2339 C2344 1.490 . S
C2340 H2330 0.930 . S
C2340 C2339 1.400 . S
C2340 C2343 1.386 . S
H2341 C2357 0.930 . S
H2342 C2358 0.931 . S
C2343 H2331 0.929 . S
C2343 C2337 1.390 . S
C2343 C2340 1.386 . S
C2344 C2339 1.490 . S
C2344 C2346 1.395 . S
C2344 C2347 1.403 . S
H2345 C2351 0.930 . S
C2346 H2332 0.930 . S
C2346 C2344 1.395 . S
C2346 C2349 1.403 . S
C2347 C2344 1.403 . S
C2347 C2348 1.524 . S
C2347 C2351 1.400 . S
C2348 H2333 0.960 . S
C2348 H2334 0.960 . S
C2348 H2335 0.960 . S
C2348 C2347 1.524 . S
C2349 C2346 1.403 . S
C2349 C2350 1.392 . S
C2349 C2353 1.495 . S
C2350 C2349 1.392 . S
C2350 C2351 1.385 . S
C2350 C2352 1.478 . S
C2351 H2345 0.930 . S
C2351 C2347 1.400 . S
C2351 C2350 1.385 . S
C2352 C2350 1.478 . S
C2352 C2354 1.381 . S
C2352 C2358 1.383 . S
C2353 C2349 1.495 . S
C2353 H2359 0.959 . S
C2353 H2360 0.961 . S
C2353 H2361 0.960 . S
C2354 C2352 1.381 . S
C2354 C2355 1.394 . S
C2354 H2362 0.930 . S
C2355 C2354 1.394 . S
C2355 C2356 1.383 . S
C2355 H2363 0.929 . S
C2356 C2355 1.383 . S
C2356 C2357 1.377 . S
C2357 H2341 0.930 . S
C2357 C2356 1.377 . S
C2357 C2358 1.379 . S
C2358 H2342 0.931 . S
C2358 C2352 1.383 . S
C2358 C2357 1.379 . S
H2359 C2353 0.959 . S
H2360 C2353 0.961 . S
H2361 C2353 0.960 . S
H2362 C2354 0.930 . S
H2363 C2355 0.929 . S
H2364 C2372 0.929 . S
H2365 C2374 0.930 . S
H2366 C2376 0.930 . S
H2367 C2379 0.929 . S
H2368 C2382 0.930 . S
H2369 C2384 0.997 . S
H2370 C2384 0.935 1_455 S
H2371 C2384 0.960 . S
C2372 H2364 0.929 . S
C2372 C2373 1.377 . S
C2372 C2374 1.384 . S
C2373 C2372 1.377 . S
C2373 C2379 1.390 . S
C2374 H2365 0.930 . S
C2374 C2372 1.384 . S
C2374 C2375 1.372 . S
C2375 C2374 1.372 . S
C2375 C2376 1.400 . S
C2375 C2380 1.490 . S
C2376 H2366 0.930 . S
C2376 C2375 1.400 . S
C2376 C2379 1.386 . S
H2377 C2393 0.930 . S
H2378 C2394 0.931 . S
C2379 H2367 0.929 . S
C2379 C2373 1.390 . S
C2379 C2376 1.386 . S
C2380 C2375 1.490 . S
C2380 C2382 1.395 . S
C2380 C2383 1.403 . S
H2381 C2387 0.930 . S
C2382 H2368 0.930 . S
C2382 C2380 1.395 . S
C2382 C2385 1.403 . S
C2383 C2380 1.403 . S
C2383 C2384 1.514 1_455 S
C2383 C2387 1.400 1_455 S
C2384 H2369 0.997 . S
C2384 H2370 0.935 1_655 S
C2384 H2371 0.960 . S
C2384 C2383 1.514 1_655 S
C2385 C2382 1.403 . S
C2385 C2386 1.392 1_455 S
C2385 C2389 1.495 . S
C2386 C2385 1.392 1_655 S
C2386 C2387 1.385 . S
C2386 C2388 1.478 . S
C2387 H2381 0.930 . S
C2387 C2383 1.400 1_655 S
C2387 C2386 1.385 . S
C2388 C2386 1.478 . S
C2388 C2390 1.381 . S
C2388 C2394 1.383 . S
C2389 C2385 1.495 . S
C2389 H2395 0.959 . S
C2389 H2396 0.961 . S
C2389 H2397 0.960 . S
C2390 C2388 1.381 . S
C2390 C2391 1.394 . S
C2390 H2398 0.930 . S
C2391 C2390 1.394 . S
C2391 C2392 1.383 . S
C2391 H2399 0.929 . S
C2392 C2391 1.383 . S
C2392 C2393 1.377 . S
C2393 H2377 0.930 . S
C2393 C2392 1.377 . S
C2393 C2394 1.379 . S
C2394 H2378 0.931 . S
C2394 C2388 1.383 . S
C2394 C2393 1.379 . S
H2395 C2389 0.959 . S
H2396 C2389 0.961 . S
H2397 C2389 0.960 . S
H2398 C2390 0.930 . S
H2399 C2391 0.929 . S
H2400 C2408 0.929 . S
H2401 C2410 0.930 . S
H2402 C2412 0.930 . S
H2403 C2415 0.929 . S
H2404 C2418 0.930 . S
H2405 C2420 0.960 . S
H2406 C2420 0.960 . S
H2407 C2420 0.960 . S
C2408 H2400 0.929 . S
C2408 C2409 1.377 . S
C2408 C2410 1.384 . S
C2409 C2408 1.377 . S
C2409 C2415 1.390 . S
C2410 H2401 0.930 . S
C2410 C2408 1.384 . S
C2410 C2411 1.372 . S
C2411 C2410 1.372 . S
C2411 C2412 1.400 . S
C2411 C2416 1.490 . S
C2412 H2402 0.930 . S
C2412 C2411 1.400 . S
C2412 C2415 1.386 . S
H2413 C2429 0.930 . S
H2414 C2430 0.931 . S
C2415 H2403 0.929 . S
C2415 C2409 1.390 . S
C2415 C2412 1.386 . S
C2416 C2411 1.490 . S
C2416 C2418 1.395 . S
C2416 C2419 1.403 . S
H2417 C2423 0.930 . S
C2418 H2404 0.930 . S
C2418 C2416 1.395 . S
C2418 C2421 1.403 . S
C2419 C2416 1.403 . S
C2419 C2420 1.524 . S
C2419 C2423 1.400 . S
C2420 H2405 0.960 . S
C2420 H2406 0.960 . S
C2420 H2407 0.960 . S
C2420 C2419 1.524 . S
C2421 C2418 1.403 . S
C2421 C2422 1.392 . S
C2421 C2425 1.495 . S
C2422 C2421 1.392 . S
C2422 C2423 1.385 . S
C2422 C2424 1.478 . S
C2423 H2417 0.930 . S
C2423 C2419 1.400 . S
C2423 C2422 1.385 . S
C2424 C2422 1.478 . S
C2424 C2426 1.381 . S
C2424 C2430 1.383 . S
C2425 C2421 1.495 . S
C2425 H2431 0.959 . S
C2425 H2432 0.961 . S
C2425 H2433 0.960 . S
C2426 C2424 1.381 . S
C2426 C2427 1.394 . S
C2426 H2434 0.930 . S
C2427 C2426 1.394 . S
C2427 C2428 1.383 . S
C2427 H2435 0.929 . S
C2428 C2427 1.383 . S
C2428 C2429 1.377 . S
C2429 H2413 0.930 . S
C2429 C2428 1.377 . S
C2429 C2430 1.379 . S
C2430 H2414 0.931 . S
C2430 C2424 1.383 . S
C2430 C2429 1.379 . S
H2431 C2425 0.959 . S
H2432 C2425 0.961 . S
H2433 C2425 0.960 . S
H2434 C2426 0.930 . S
H2435 C2427 0.929 . S
H2436 C2444 0.929 . S
H2437 C2446 0.930 . S
H2438 C2448 0.930 . S
H2439 C2451 0.929 . S
H2440 C2454 0.930 . S
H2441 C2456 0.960 . S
H2442 C2456 0.960 . S
H2443 C2456 0.960 . S
C2444 H2436 0.929 . S
C2444 C2445 1.377 . S
C2444 C2446 1.384 . S
C2445 C2444 1.377 . S
C2445 C2451 1.390 . S
C2446 H2437 0.930 . S
C2446 C2444 1.384 . S
C2446 C2447 1.372 . S
C2447 C2446 1.372 . S
C2447 C2448 1.400 . S
C2447 C2452 1.490 . S
C2448 H2438 0.930 . S
C2448 C2447 1.400 . S
C2448 C2451 1.386 . S
H2449 C2465 0.930 . S
H2450 C2466 0.931 . S
C2451 H2439 0.929 . S
C2451 C2445 1.390 . S
C2451 C2448 1.386 . S
C2452 C2447 1.490 . S
C2452 C2454 1.395 . S
C2452 C2455 1.403 . S
H2453 C2459 0.930 . S
C2454 H2440 0.930 . S
C2454 C2452 1.395 . S
C2454 C2457 1.403 . S
C2455 C2452 1.403 . S
C2455 C2456 1.524 . S
C2455 C2459 1.400 . S
C2456 H2441 0.960 . S
C2456 H2442 0.960 . S
C2456 H2443 0.960 . S
C2456 C2455 1.524 . S
C2457 C2454 1.403 . S
C2457 C2458 1.392 . S
C2457 C2461 1.495 . S
C2458 C2457 1.392 . S
C2458 C2459 1.385 . S
C2458 C2460 1.478 . S
C2459 H2453 0.930 . S
C2459 C2455 1.400 . S
C2459 C2458 1.385 . S
C2460 C2458 1.478 . S
C2460 C2462 1.381 . S
C2460 C2466 1.383 . S
C2461 C2457 1.495 . S
C2461 H2467 0.959 . S
C2461 H2468 0.961 . S
C2461 H2469 0.960 . S
C2462 C2460 1.381 . S
C2462 C2463 1.394 . S
C2462 H2470 0.930 . S
C2463 C2462 1.394 . S
C2463 C2464 1.383 . S
C2463 H2471 0.929 . S
C2464 C2463 1.383 . S
C2464 C2465 1.377 . S
C2465 H2449 0.930 . S
C2465 C2464 1.377 . S
C2465 C2466 1.379 . S
C2466 H2450 0.931 . S
C2466 C2460 1.383 . S
C2466 C2465 1.379 . S
H2467 C2461 0.959 . S
H2468 C2461 0.961 . S
H2469 C2461 0.960 . S
H2470 C2462 0.930 . S
H2471 C2463 0.929 . S
H2472 C2480 0.929 . S
H2473 C2482 0.930 . S
H2474 C2484 0.930 . S
H2475 C2487 0.929 . S
H2476 C2490 0.930 . S
H2477 C2492 0.960 . S
H2478 C2492 0.960 . S
H2479 C2492 0.960 . S
C2480 H2472 0.929 . S
C2480 C2481 1.377 . S
C2480 C2482 1.384 . S
C2481 C2480 1.377 . S
C2481 C2487 1.390 . S
C2482 H2473 0.930 . S
C2482 C2480 1.384 . S
C2482 C2483 1.372 . S
C2483 C2482 1.372 . S
C2483 C2484 1.400 . S
C2483 C2488 1.490 . S
C2484 H2474 0.930 . S
C2484 C2483 1.400 . S
C2484 C2487 1.386 . S
H2485 C2501 0.930 . S
H2486 C2502 0.931 . S
C2487 H2475 0.929 . S
C2487 C2481 1.390 . S
C2487 C2484 1.386 . S
C2488 C2483 1.490 . S
C2488 C2490 1.395 . S
C2488 C2491 1.403 . S
H2489 C2495 0.930 . S
C2490 H2476 0.930 . S
C2490 C2488 1.395 . S
C2490 C2493 1.403 . S
C2491 C2488 1.403 . S
C2491 C2492 1.524 . S
C2491 C2495 1.400 . S
C2492 H2477 0.960 . S
C2492 H2478 0.960 . S
C2492 H2479 0.960 . S
C2492 C2491 1.524 . S
C2493 C2490 1.403 . S
C2493 C2494 1.392 . S
C2493 C2497 1.495 . S
C2494 C2493 1.392 . S
C2494 C2495 1.385 . S
C2494 C2496 1.478 . S
C2495 H2489 0.930 . S
C2495 C2491 1.400 . S
C2495 C2494 1.385 . S
C2496 C2494 1.478 . S
C2496 C2498 1.381 . S
C2496 C2502 1.383 . S
C2497 C2493 1.495 . S
C2497 H2503 0.959 . S
C2497 H2504 0.961 . S
C2497 H2505 0.960 . S
C2498 C2496 1.381 . S
C2498 C2499 1.394 . S
C2498 H2506 0.930 . S
C2499 C2498 1.394 . S
C2499 C2500 1.383 . S
C2499 H2507 0.929 . S
C2500 C2499 1.383 . S
C2500 C2501 1.377 . S
C2501 H2485 0.930 . S
C2501 C2500 1.377 . S
C2501 C2502 1.379 . S
C2502 H2486 0.931 . S
C2502 C2496 1.383 . S
C2502 C2501 1.379 . S
H2503 C2497 0.959 . S
H2504 C2497 0.961 . S
H2505 C2497 0.960 . S
H2506 C2498 0.930 . S
H2507 C2499 0.929 . S
H2508 C2516 0.929 . S
H2509 C2518 0.930 . S
H2510 C2520 0.930 . S
H2511 C2523 0.929 . S
H2512 C2526 0.930 . S
H2513 C2528 0.960 . S
H2514 C2528 0.960 . S
H2515 C2528 0.960 . S
C2516 H2508 0.929 . S
C2516 C2517 1.377 . S
C2516 C2518 1.384 . S
C2517 C2516 1.377 . S
C2517 C2523 1.390 . S
C2518 H2509 0.930 . S
C2518 C2516 1.384 . S
C2518 C2519 1.372 . S
C2519 C2518 1.372 . S
C2519 C2520 1.400 . S
C2519 C2524 1.490 . S
C2520 H2510 0.930 . S
C2520 C2519 1.400 . S
C2520 C2523 1.386 . S
H2521 C2537 0.930 . S
H2522 C2538 0.931 . S
C2523 H2511 0.929 . S
C2523 C2517 1.390 . S
C2523 C2520 1.386 . S
C2524 C2519 1.490 . S
C2524 C2526 1.395 1_655 S
C2524 C2527 1.403 . S
H2525 C2531 0.930 . S
C2526 H2512 0.930 . S
C2526 C2524 1.395 1_455 S
C2526 C2529 1.403 . S
C2527 C2524 1.403 . S
C2527 C2528 1.524 . S
C2527 C2531 1.400 1_655 S
C2528 H2513 0.960 . S
C2528 H2514 0.960 . S
C2528 H2515 0.960 . S
C2528 C2527 1.524 . S
C2529 C2526 1.403 . S
C2529 C2530 1.392 . S
C2529 C2533 1.495 . S
C2530 C2529 1.392 . S
C2530 C2531 1.385 . S
C2530 C2532 1.478 . S
C2531 H2525 0.930 . S
C2531 C2527 1.400 1_455 S
C2531 C2530 1.385 . S
C2532 C2530 1.478 . S
C2532 C2534 1.381 . S
C2532 C2538 1.383 . S
C2533 C2529 1.495 . S
C2533 H2539 0.959 . S
C2533 H2540 0.961 . S
C2533 H2541 0.960 . S
C2534 C2532 1.381 . S
C2534 C2535 1.394 . S
C2534 H2542 0.930 . S
C2535 C2534 1.394 . S
C2535 C2536 1.383 . S
C2535 H2543 0.929 . S
C2536 C2535 1.383 . S
C2536 C2537 1.377 . S
C2537 H2521 0.930 . S
C2537 C2536 1.377 . S
C2537 C2538 1.379 . S
C2538 H2522 0.931 . S
C2538 C2532 1.383 . S
C2538 C2537 1.379 . S
H2539 C2533 0.959 . S
H2540 C2533 0.961 . S
H2541 C2533 0.960 . S
H2542 C2534 0.930 . S
H2543 C2535 0.929 . S
H2544 C2552 0.929 . S
H2545 C2554 0.930 . S
H2546 C2556 0.930 . S
H2547 C2559 0.929 . S
H2548 C2562 0.930 . S
H2549 C2564 0.960 . S
H2550 C2564 0.960 . S
H2551 C2564 0.960 . S
C2552 H2544 0.929 . S
C2552 C2553 1.377 . S
C2552 C2554 1.384 . S
C2553 C2552 1.377 . S
C2553 C2559 1.390 . S
C2554 H2545 0.930 . S
C2554 C2552 1.384 . S
C2554 C2555 1.372 . S
C2555 C2554 1.372 . S
C2555 C2556 1.400 . S
C2555 C2560 1.490 . S
C2556 H2546 0.930 . S
C2556 C2555 1.400 . S
C2556 C2559 1.386 . S
H2557 C2573 0.930 . S
H2558 C2574 0.931 . S
C2559 H2547 0.929 . S
C2559 C2553 1.390 . S
C2559 C2556 1.386 . S
C2560 C2555 1.490 . S
C2560 C2562 1.395 . S
C2560 C2563 1.403 . S
H2561 C2567 0.930 . S
C2562 H2548 0.930 . S
C2562 C2560 1.395 . S
C2562 C2565 1.403 . S
C2563 C2560 1.403 . S
C2563 C2564 1.524 . S
C2563 C2567 1.400 . S
C2564 H2549 0.960 . S
C2564 H2550 0.960 . S
C2564 H2551 0.960 . S
C2564 C2563 1.524 . S
C2565 C2562 1.403 . S
C2565 C2566 1.392 . S
C2565 C2569 1.495 . S
C2566 C2565 1.392 . S
C2566 C2567 1.385 . S
C2566 C2568 1.478 . S
C2567 H2561 0.930 . S
C2567 C2563 1.400 . S
C2567 C2566 1.385 . S
C2568 C2566 1.478 . S
C2568 C2570 1.381 . S
C2568 C2574 1.383 . S
C2569 C2565 1.495 . S
C2569 H2575 0.959 . S
C2569 H2576 0.961 . S
C2569 H2577 0.960 . S
C2570 C2568 1.381 . S
C2570 C2571 1.394 . S
C2570 H2578 0.930 . S
C2571 C2570 1.394 . S
C2571 C2572 1.383 . S
C2571 H2579 0.929 . S
C2572 C2571 1.383 . S
C2572 C2573 1.377 . S
C2573 H2557 0.930 . S
C2573 C2572 1.377 . S
C2573 C2574 1.379 . S
C2574 H2558 0.931 . S
C2574 C2568 1.383 . S
C2574 C2573 1.379 . S
H2575 C2569 0.959 . S
H2576 C2569 0.961 . S
H2577 C2569 0.960 . S
H2578 C2570 0.930 . S
H2579 C2571 0.929 . S
H2580 C2588 0.929 . S
H2581 C2590 0.930 . S
H2582 C2592 0.930 . S
H2583 C2595 0.929 . S
H2584 C2598 0.930 . S
H2585 C2600 0.960 . S
H2586 C2600 0.960 . S
H2587 C2600 0.960 . S
C2588 H2580 0.929 . S
C2588 C2589 1.377 . S
C2588 C2590 1.384 . S
C2589 C2588 1.377 . S
C2589 C2595 1.390 . S
C2590 H2581 0.930 . S
C2590 C2588 1.384 . S
C2590 C2591 1.372 . S
C2591 C2590 1.372 . S
C2591 C2592 1.400 . S
C2591 C2596 1.490 . S
C2592 H2582 0.930 . S
C2592 C2591 1.400 . S
C2592 C2595 1.386 . S
H2593 C2609 0.930 . S
H2594 C2610 0.931 . S
C2595 H2583 0.929 . S
C2595 C2589 1.390 . S
C2595 C2592 1.386 . S
C2596 C2591 1.490 . S
C2596 C2598 1.395 . S
C2596 C2599 1.403 1_655 S
H2597 C2603 0.930 . S
C2598 H2584 0.930 . S
C2598 C2596 1.395 . S
C2598 C2601 1.391 1_655 S
C2599 C2596 1.403 1_455 S
C2599 C2600 1.524 . S
C2599 C2603 1.400 . S
C2600 H2585 0.960 . S
C2600 H2586 0.960 . S
C2600 H2587 0.960 . S
C2600 C2599 1.524 . S
C2601 C2598 1.391 1_455 S
C2601 C2602 1.412 . S
C2601 C2605 1.488 1_455 S
C2602 C2601 1.412 . S
C2602 C2603 1.385 . S
C2602 C2604 1.478 . S
C2603 H2597 0.930 . S
C2603 C2599 1.400 . S
C2603 C2602 1.385 . S
C2604 C2602 1.478 . S
C2604 C2606 1.381 . S
C2604 C2610 1.383 . S
C2605 C2601 1.488 1_655 S
C2605 H2611 0.959 . S
C2605 H2612 0.961 . S
C2605 H2613 0.960 . S
C2606 C2604 1.381 . S
C2606 C2607 1.394 . S
C2606 H2614 0.930 . S
C2607 C2606 1.394 . S
C2607 C2608 1.383 . S
C2607 H2615 0.929 . S
C2608 C2607 1.383 . S
C2608 C2609 1.377 . S
C2609 H2593 0.930 . S
C2609 C2608 1.377 . S
C2609 C2610 1.379 . S
C2610 H2594 0.931 . S
C2610 C2604 1.383 . S
C2610 C2609 1.379 . S
H2611 C2605 0.959 . S
H2612 C2605 0.961 . S
H2613 C2605 0.960 . S
H2614 C2606 0.930 . S
H2615 C2607 0.929 . S
H2616 C2624 0.929 . S
H2617 C2626 0.930 . S
H2618 C2628 0.930 . S
H2619 C2631 0.929 . S
H2620 C2634 0.930 . S
H2621 C2636 0.960 . S
H2622 C2636 0.960 . S
H2623 C2636 0.960 . S
C2624 H2616 0.929 . S
C2624 C2625 1.377 . S
C2624 C2626 1.384 . S
C2625 C2624 1.377 . S
C2625 C2631 1.390 . S
C2626 H2617 0.930 . S
C2626 C2624 1.384 . S
C2626 C2627 1.372 . S
C2627 C2626 1.372 . S
C2627 C2628 1.400 . S
C2627 C2632 1.490 . S
C2628 H2618 0.930 . S
C2628 C2627 1.400 . S
C2628 C2631 1.386 . S
H2629 C2645 0.930 . S
H2630 C2646 0.931 . S
C2631 H2619 0.929 . S
C2631 C2625 1.390 . S
C2631 C2628 1.386 . S
C2632 C2627 1.490 . S
C2632 C2634 1.395 . S
C2632 C2635 1.403 . S
H2633 C2639 0.930 . S
C2634 H2620 0.930 . S
C2634 C2632 1.395 . S
C2634 C2637 1.403 . S
C2635 C2632 1.403 . S
C2635 C2636 1.524 . S
C2635 C2639 1.400 . S
C2636 H2621 0.960 . S
C2636 H2622 0.960 . S
C2636 H2623 0.960 . S
C2636 C2635 1.524 . S
C2637 C2634 1.403 . S
C2637 C2638 1.392 . S
C2637 C2641 1.495 . S
C2638 C2637 1.392 . S
C2638 C2639 1.385 . S
C2638 C2640 1.478 . S
C2639 H2633 0.930 . S
C2639 C2635 1.400 . S
C2639 C2638 1.385 . S
C2640 C2638 1.478 . S
C2640 C2642 1.381 . S
C2640 C2646 1.383 . S
C2641 C2637 1.495 . S
C2641 H2647 0.959 . S
C2641 H2648 0.961 . S
C2641 H2649 0.960 . S
C2642 C2640 1.381 . S
C2642 C2643 1.394 . S
C2642 H2650 0.930 . S
C2643 C2642 1.394 . S
C2643 C2644 1.383 . S
C2643 H2651 0.929 . S
C2644 C2643 1.383 . S
C2644 C2645 1.377 . S
C2645 H2629 0.930 . S
C2645 C2644 1.377 . S
C2645 C2646 1.379 . S
C2646 H2630 0.931 . S
C2646 C2640 1.383 . S
C2646 C2645 1.379 . S
H2647 C2641 0.959 . S
H2648 C2641 0.961 . S
H2649 C2641 0.960 . S
H2650 C2642 0.930 . S
H2651 C2643 0.929 . S
H2652 C2660 0.929 . S
H2653 C2662 0.930 . S
H2654 C2664 0.930 . S
H2655 C2667 0.929 . S
H2656 C2670 0.930 . S
H2657 C2672 0.960 . S
H2658 C2672 0.960 . S
H2659 C2672 0.960 . S
C2660 H2652 0.929 . S
C2660 C2661 1.377 . S
C2660 C2662 1.384 . S
C2661 C2660 1.377 . S
C2661 C2667 1.390 . S
C2662 H2653 0.930 . S
C2662 C2660 1.384 . S
C2662 C2663 1.372 . S
C2663 C2662 1.372 . S
C2663 C2664 1.400 . S
C2663 C2668 1.490 . S
C2664 H2654 0.930 . S
C2664 C2663 1.400 . S
C2664 C2667 1.386 . S
H2665 C2681 0.930 . S
H2666 C2682 0.931 . S
C2667 H2655 0.929 . S
C2667 C2661 1.390 . S
C2667 C2664 1.386 . S
C2668 C2663 1.490 . S
C2668 C2670 1.395 . S
C2668 C2671 1.403 . S
H2669 C2675 0.930 . S
C2670 H2656 0.930 . S
C2670 C2668 1.395 . S
C2670 C2673 1.403 . S
C2671 C2668 1.403 . S
C2671 C2672 1.524 . S
C2671 C2675 1.400 . S
C2672 H2657 0.960 . S
C2672 H2658 0.960 . S
C2672 H2659 0.960 . S
C2672 C2671 1.524 . S
C2673 C2670 1.403 . S
C2673 C2674 1.392 . S
C2673 C2677 1.495 . S
C2674 C2673 1.392 . S
C2674 C2675 1.385 . S
C2674 C2676 1.478 . S
C2675 H2669 0.930 . S
C2675 C2671 1.400 . S
C2675 C2674 1.385 . S
C2676 C2674 1.478 . S
C2676 C2678 1.381 . S
C2676 C2682 1.383 . S
C2677 C2673 1.495 . S
C2677 H2683 0.959 . S
C2677 H2684 0.961 . S
C2677 H2685 0.960 . S
C2678 C2676 1.381 . S
C2678 C2679 1.394 . S
C2678 H2686 0.930 . S
C2679 C2678 1.394 . S
C2679 C2680 1.383 . S
C2679 H2687 0.929 . S
C2680 C2679 1.383 . S
C2680 C2681 1.377 . S
C2681 H2665 0.930 . S
C2681 C2680 1.377 . S
C2681 C2682 1.379 . S
C2682 H2666 0.931 . S
C2682 C2676 1.383 . S
C2682 C2681 1.379 . S
H2683 C2677 0.959 . S
H2684 C2677 0.961 . S
H2685 C2677 0.960 . S
H2686 C2678 0.930 . S
H2687 C2679 0.929 . S
H2688 C2696 0.929 . S
H2689 C2698 0.930 . S
H2690 C2700 0.930 . S
H2691 C2703 0.929 . S
H2692 C2706 0.930 . S
H2693 C2708 0.960 . S
H2694 C2708 0.960 . S
H2695 C2708 0.960 . S
C2696 H2688 0.929 . S
C2696 C2697 1.377 . S
C2696 C2698 1.384 . S
C2697 C2696 1.377 . S
C2697 C2703 1.390 . S
C2698 H2689 0.930 . S
C2698 C2696 1.384 . S
C2698 C2699 1.372 . S
C2699 C2698 1.372 . S
C2699 C2700 1.400 . S
C2699 C2704 1.490 . S
C2700 H2690 0.930 . S
C2700 C2699 1.400 . S
C2700 C2703 1.386 . S
H2701 C2717 0.930 . S
H2702 C2718 0.931 . S
C2703 H2691 0.929 . S
C2703 C2697 1.390 . S
C2703 C2700 1.386 . S
C2704 C2699 1.490 . S
C2704 C2706 1.395 . S
C2704 C2707 1.403 . S
H2705 C2711 0.930 . S
C2706 H2692 0.930 . S
C2706 C2704 1.395 . S
C2706 C2709 1.403 . S
C2707 C2704 1.403 . S
C2707 C2708 1.524 . S
C2707 C2711 1.400 . S
C2708 H2693 0.960 . S
C2708 H2694 0.960 . S
C2708 H2695 0.960 . S
C2708 C2707 1.524 . S
C2709 C2706 1.403 . S
C2709 C2710 1.392 . S
C2709 C2713 1.495 . S
C2710 C2709 1.392 . S
C2710 C2711 1.385 . S
C2710 C2712 1.478 . S
C2711 H2705 0.930 . S
C2711 C2707 1.400 . S
C2711 C2710 1.385 . S
C2712 C2710 1.478 . S
C2712 C2714 1.381 . S
C2712 C2718 1.383 . S
C2713 C2709 1.495 . S
C2713 H2719 0.959 . S
C2713 H2720 0.961 . S
C2713 H2721 0.960 . S
C2714 C2712 1.381 . S
C2714 C2715 1.394 . S
C2714 H2722 0.930 . S
C2715 C2714 1.394 . S
C2715 C2716 1.383 . S
C2715 H2723 0.929 . S
C2716 C2715 1.383 . S
C2716 C2717 1.377 . S
C2717 H2701 0.930 . S
C2717 C2716 1.377 . S
C2717 C2718 1.379 . S
C2718 H2702 0.931 . S
C2718 C2712 1.383 . S
C2718 C2717 1.379 . S
H2719 C2713 0.959 . S
H2720 C2713 0.961 . S
H2721 C2713 0.960 . S
H2722 C2714 0.930 . S
H2723 C2715 0.929 . S
H2724 C2732 0.929 . S
H2725 C2734 0.930 . S
H2726 C2736 0.930 . S
H2727 C2739 0.929 . S
H2728 C2742 0.930 . S
H2729 C2744 0.960 . S
H2730 C2744 0.960 . S
H2731 C2744 0.960 . S
C2732 H2724 0.929 . S
C2732 C2733 1.377 . S
C2732 C2734 1.384 . S
C2733 C2732 1.377 . S
C2733 C2739 1.390 . S
C2734 H2725 0.930 . S
C2734 C2732 1.384 . S
C2734 C2735 1.372 . S
C2735 C2734 1.372 . S
C2735 C2736 1.400 . S
C2735 C2740 1.490 . S
C2736 H2726 0.930 . S
C2736 C2735 1.400 . S
C2736 C2739 1.386 . S
H2737 C2753 0.930 . S
H2738 C2754 0.931 . S
C2739 H2727 0.929 . S
C2739 C2733 1.390 . S
C2739 C2736 1.386 . S
C2740 C2735 1.490 . S
C2740 C2742 1.395 . S
C2740 C2743 1.403 . S
H2741 C2747 0.930 . S
C2742 H2728 0.930 . S
C2742 C2740 1.395 . S
C2742 C2745 1.403 . S
C2743 C2740 1.403 . S
C2743 C2744 1.524 . S
C2743 C2747 1.400 . S
C2744 H2729 0.960 . S
C2744 H2730 0.960 . S
C2744 H2731 0.960 . S
C2744 C2743 1.524 . S
C2745 C2742 1.403 . S
C2745 C2746 1.392 . S
C2745 C2749 1.495 . S
C2746 C2745 1.392 . S
C2746 C2747 1.385 . S
C2746 C2748 1.478 . S
C2747 H2741 0.930 . S
C2747 C2743 1.400 . S
C2747 C2746 1.385 . S
C2748 C2746 1.478 . S
C2748 C2750 1.381 . S
C2748 C2754 1.383 . S
C2749 C2745 1.495 . S
C2749 H2755 0.959 . S
C2749 H2756 0.961 . S
C2749 H2757 0.960 . S
C2750 C2748 1.381 . S
C2750 C2751 1.394 . S
C2750 H2758 0.930 . S
C2751 C2750 1.394 . S
C2751 C2752 1.383 . S
C2751 H2759 0.929 . S
C2752 C2751 1.383 . S
C2752 C2753 1.377 . S
C2753 H2737 0.930 . S
C2753 C2752 1.377 . S
C2753 C2754 1.379 . S
C2754 H2738 0.931 . S
C2754 C2748 1.383 . S
C2754 C2753 1.379 . S
H2755 C2749 0.959 . S
H2756 C2749 0.961 . S
H2757 C2749 0.960 . S
H2758 C2750 0.930 . S
H2759 C2751 0.929 . S
H2760 C2768 0.929 . S
H2761 C2770 0.930 . S
H2762 C2772 0.930 . S
H2763 C2775 0.929 . S
H2764 C2778 0.930 . S
H2765 C2780 0.960 . S
H2766 C2780 0.960 . S
H2767 C2780 0.960 . S
C2768 H2760 0.929 . S
C2768 C2769 1.377 . S
C2768 C2770 1.384 . S
C2769 C2768 1.377 . S
C2769 C2775 1.390 . S
C2770 H2761 0.930 . S
C2770 C2768 1.384 . S
C2770 C2771 1.372 . S
C2771 C2770 1.372 . S
C2771 C2772 1.400 . S
C2771 C2776 1.490 . S
C2772 H2762 0.930 . S
C2772 C2771 1.400 . S
C2772 C2775 1.386 . S
H2773 C2789 0.930 . S
H2774 C2790 0.931 . S
C2775 H2763 0.929 . S
C2775 C2769 1.390 . S
C2775 C2772 1.386 . S
C2776 C2771 1.490 . S
C2776 C2778 1.395 . S
C2776 C2779 1.403 . S
H2777 C2783 0.930 . S
C2778 H2764 0.930 . S
C2778 C2776 1.395 . S
C2778 C2781 1.403 . S
C2779 C2776 1.403 . S
C2779 C2780 1.524 . S
C2779 C2783 1.400 . S
C2780 H2765 0.960 . S
C2780 H2766 0.960 . S
C2780 H2767 0.960 . S
C2780 C2779 1.524 . S
C2781 C2778 1.403 . S
C2781 C2782 1.392 . S
C2781 C2785 1.495 . S
C2782 C2781 1.392 . S
C2782 C2783 1.385 . S
C2782 C2784 1.478 . S
C2783 H2777 0.930 . S
C2783 C2779 1.400 . S
C2783 C2782 1.385 . S
C2784 C2782 1.478 . S
C2784 C2786 1.381 . S
C2784 C2790 1.383 . S
C2785 C2781 1.495 . S
C2785 H2791 0.959 . S
C2785 H2792 0.961 . S
C2785 H2793 0.960 . S
C2786 C2784 1.381 . S
C2786 C2787 1.394 . S
C2786 H2794 0.930 . S
C2787 C2786 1.394 . S
C2787 C2788 1.383 . S
C2787 H2795 0.929 . S
C2788 C2787 1.383 . S
C2788 C2789 1.377 . S
C2789 H2773 0.930 . S
C2789 C2788 1.377 . S
C2789 C2790 1.379 . S
C2790 H2774 0.931 . S
C2790 C2784 1.383 . S
C2790 C2789 1.379 . S
H2791 C2785 0.959 . S
H2792 C2785 0.961 . S
H2793 C2785 0.960 . S
H2794 C2786 0.930 . S
H2795 C2787 0.929 . S
H2796 C2804 0.929 . S
H2797 C2806 0.930 . S
H2798 C2808 0.930 . S
H2799 C2811 0.929 . S
H2800 C2814 0.930 . S
H2801 C2816 0.960 . S
H2802 C2816 0.960 1_655 S
H2803 C2816 0.960 . S
C2804 H2796 0.929 . S
C2804 C2805 1.377 . S
C2804 C2806 1.384 . S
C2805 C2804 1.377 . S
C2805 C2811 1.390 . S
C2806 H2797 0.930 . S
C2806 C2804 1.384 . S
C2806 C2807 1.372 . S
C2807 C2806 1.372 . S
C2807 C2808 1.400 . S
C2807 C2812 1.490 . S
C2808 H2798 0.930 . S
C2808 C2807 1.400 . S
C2808 C2811 1.386 . S
H2809 C2825 0.930 . S
H2810 C2826 0.931 . S
C2811 H2799 0.929 . S
C2811 C2805 1.390 . S
C2811 C2808 1.386 . S
C2812 C2807 1.490 . S
C2812 C2814 1.395 . S
C2812 C2815 1.403 . S
H2813 C2819 0.930 . S
C2814 H2800 0.930 . S
C2814 C2812 1.395 . S
C2814 C2817 1.403 . S
C2815 C2812 1.403 . S
C2815 C2816 1.524 1_655 S
C2815 C2819 1.400 1_655 S
C2816 H2801 0.960 . S
C2816 H2802 0.960 1_455 S
C2816 H2803 0.960 . S
C2816 C2815 1.524 1_455 S
C2817 C2814 1.403 . S
C2817 C2818 1.392 1_655 S
C2817 C2821 1.495 . S
C2818 C2817 1.392 1_455 S
C2818 C2819 1.385 . S
C2818 C2820 1.478 . S
C2819 H2813 0.930 . S
C2819 C2815 1.400 1_455 S
C2819 C2818 1.385 . S
C2820 C2818 1.478 . S
C2820 C2822 1.381 . S
C2820 C2826 1.383 . S
C2821 C2817 1.495 . S
C2821 H2827 0.959 . S
C2821 H2828 0.961 . S
C2821 H2829 0.960 . S
C2822 C2820 1.381 . S
C2822 C2823 1.394 . S
C2822 H2830 0.930 . S
C2823 C2822 1.394 . S
C2823 C2824 1.383 . S
C2823 H2831 0.929 . S
C2824 C2823 1.383 . S
C2824 C2825 1.377 . S
C2825 H2809 0.930 . S
C2825 C2824 1.377 . S
C2825 C2826 1.379 . S
C2826 H2810 0.931 . S
C2826 C2820 1.383 . S
C2826 C2825 1.379 . S
H2827 C2821 0.959 . S
H2828 C2821 0.961 . S
H2829 C2821 0.960 . S
H2830 C2822 0.930 . S
H2831 C2823 0.929 . S
H2832 C2840 0.929 . S
H2833 C2842 0.930 . S
H2834 C2844 0.930 . S
H2835 C2847 0.929 . S
H2836 C2850 0.930 . S
H2837 C2852 0.960 . S
H2838 C2852 0.960 . S
H2839 C2852 0.960 . S
C2840 H2832 0.929 . S
C2840 C2841 1.377 . S
C2840 C2842 1.384 . S
C2841 C2840 1.377 . S
C2841 C2847 1.390 . S
C2842 H2833 0.930 . S
C2842 C2840 1.384 . S
C2842 C2843 1.372 . S
C2843 C2842 1.372 . S
C2843 C2844 1.400 . S
C2843 C2848 1.490 . S
C2844 H2834 0.930 . S
C2844 C2843 1.400 . S
C2844 C2847 1.386 . S
H2845 C2861 0.930 . S
H2846 C2862 0.931 . S
C2847 H2835 0.929 . S
C2847 C2841 1.390 . S
C2847 C2844 1.386 . S
C2848 C2843 1.490 . S
C2848 C2850 1.395 . S
C2848 C2851 1.403 . S
H2849 C2855 0.930 . S
C2850 H2836 0.930 . S
C2850 C2848 1.395 . S
C2850 C2853 1.403 . S
C2851 C2848 1.403 . S
C2851 C2852 1.524 . S
C2851 C2855 1.400 . S
C2852 H2837 0.960 . S
C2852 H2838 0.960 . S
C2852 H2839 0.960 . S
C2852 C2851 1.524 . S
C2853 C2850 1.403 . S
C2853 C2854 1.392 . S
C2853 C2857 1.495 . S
C2854 C2853 1.392 . S
C2854 C2855 1.385 . S
C2854 C2856 1.478 . S
C2855 H2849 0.930 . S
C2855 C2851 1.400 . S
C2855 C2854 1.385 . S
C2856 C2854 1.478 . S
C2856 C2858 1.381 . S
C2856 C2862 1.383 . S
C2857 C2853 1.495 . S
C2857 H2863 0.959 . S
C2857 H2864 0.961 . S
C2857 H2865 0.960 . S
C2858 C2856 1.381 . S
C2858 C2859 1.394 . S
C2858 H2866 0.930 . S
C2859 C2858 1.394 . S
C2859 C2860 1.383 . S
C2859 H2867 0.929 . S
C2860 C2859 1.383 . S
C2860 C2861 1.377 . S
C2861 H2845 0.930 . S
C2861 C2860 1.377 . S
C2861 C2862 1.379 . S
C2862 H2846 0.931 . S
C2862 C2856 1.383 . S
C2862 C2861 1.379 . S
H2863 C2857 0.959 . S
H2864 C2857 0.961 . S
H2865 C2857 0.960 . S
H2866 C2858 0.930 . S
H2867 C2859 0.929 . S
H2868 C2876 0.929 . S
H2869 C2878 0.930 . S
H2870 C2880 0.930 . S
H2871 C2883 0.929 . S
H2872 C2886 0.930 . S
H2873 C2888 0.960 1_455 S
H2874 C2888 0.960 . S
H2875 C2888 0.960 . S
C2876 H2868 0.929 . S
C2876 C2877 1.377 . S
C2876 C2878 1.384 . S
C2877 C2876 1.377 . S
C2877 C2883 1.390 . S
C2878 H2869 0.930 . S
C2878 C2876 1.384 . S
C2878 C2879 1.372 . S
C2879 C2878 1.372 . S
C2879 C2880 1.400 . S
C2879 C2884 1.490 . S
C2880 H2870 0.930 . S
C2880 C2879 1.400 . S
C2880 C2883 1.386 . S
H2881 C2897 0.930 . S
H2882 C2898 0.931 . S
C2883 H2871 0.929 . S
C2883 C2877 1.390 . S
C2883 C2880 1.386 . S
C2884 C2879 1.490 . S
C2884 C2886 1.395 . S
C2884 C2887 1.403 . S
H2885 C2891 0.930 . S
C2886 H2872 0.930 . S
C2886 C2884 1.395 . S
C2886 C2889 1.403 . S
C2887 C2884 1.403 . S
C2887 C2888 1.524 . S
C2887 C2891 1.400 1_655 S
C2888 H2873 0.960 1_655 S
C2888 H2874 0.960 . S
C2888 H2875 0.960 . S
C2888 C2887 1.524 . S
C2889 C2886 1.403 . S
C2889 C2890 1.392 1_655 S
C2889 C2893 1.495 . S
C2890 C2889 1.392 1_455 S
C2890 C2891 1.385 . S
C2890 C2892 1.478 . S
C2891 H2885 0.930 . S
C2891 C2887 1.400 1_455 S
C2891 C2890 1.385 . S
C2892 C2890 1.478 . S
C2892 C2894 1.381 . S
C2892 C2898 1.383 . S
C2893 C2889 1.495 . S
C2893 H2899 0.959 . S
C2893 H2900 0.944 1_655 S
C2893 H2901 0.960 . S
C2894 C2892 1.381 . S
C2894 C2895 1.394 . S
C2894 H2902 0.930 . S
C2895 C2894 1.394 . S
C2895 C2896 1.383 . S
C2895 H2903 0.929 . S
C2896 C2895 1.383 . S
C2896 C2897 1.377 . S
C2897 H2881 0.930 . S
C2897 C2896 1.377 . S
C2897 C2898 1.379 . S
C2898 H2882 0.931 . S
C2898 C2892 1.383 . S
C2898 C2897 1.379 . S
H2899 C2893 0.959 . S
H2900 C2893 0.944 1_455 S
H2901 C2893 0.960 . S
H2902 C2894 0.930 . S
H2903 C2895 0.929 . S
H2904 C2912 0.929 . S
H2905 C2914 0.930 . S
H2906 C2916 0.930 . S
H2907 C2919 0.929 . S
H2908 C2922 0.930 . S
H2909 C2924 0.960 . S
H2910 C2924 0.960 . S
H2911 C2924 0.960 . S
C2912 H2904 0.929 . S
C2912 C2913 1.377 . S
C2912 C2914 1.384 . S
C2913 C2912 1.377 . S
C2913 C2919 1.390 . S
C2914 H2905 0.930 . S
C2914 C2912 1.384 . S
C2914 C2915 1.372 . S
C2915 C2914 1.372 . S
C2915 C2916 1.400 . S
C2915 C2920 1.490 . S
C2916 H2906 0.930 . S
C2916 C2915 1.400 . S
C2916 C2919 1.386 . S
H2917 C2933 0.930 . S
H2918 C2934 0.931 . S
C2919 H2907 0.929 . S
C2919 C2913 1.390 . S
C2919 C2916 1.386 . S
C2920 C2915 1.490 . S
C2920 C2922 1.395 . S
C2920 C2923 1.403 . S
H2921 C2927 0.930 . S
C2922 H2908 0.930 . S
C2922 C2920 1.395 . S
C2922 C2925 1.403 . S
C2923 C2920 1.403 . S
C2923 C2924 1.524 . S
C2923 C2927 1.400 . S
C2924 H2909 0.960 . S
C2924 H2910 0.960 . S
C2924 H2911 0.960 . S
C2924 C2923 1.524 . S
C2925 C2922 1.403 . S
C2925 C2926 1.392 . S
C2925 C2929 1.495 . S
C2926 C2925 1.392 . S
C2926 C2927 1.385 . S
C2926 C2928 1.478 . S
C2927 H2921 0.930 . S
C2927 C2923 1.400 . S
C2927 C2926 1.385 . S
C2928 C2926 1.478 . S
C2928 C2930 1.381 . S
C2928 C2934 1.383 . S
C2929 C2925 1.495 . S
C2929 H2935 0.959 . S
C2929 H2936 0.961 . S
C2929 H2937 0.960 . S
C2930 C2928 1.381 . S
C2930 C2931 1.394 . S
C2930 H2938 0.930 . S
C2931 C2930 1.394 . S
C2931 C2932 1.383 . S
C2931 H2939 0.929 . S
C2932 C2931 1.383 . S
C2932 C2933 1.377 . S
C2933 H2917 0.930 . S
C2933 C2932 1.377 . S
C2933 C2934 1.379 . S
C2934 H2918 0.931 . S
C2934 C2928 1.383 . S
C2934 C2933 1.379 . S
H2935 C2929 0.959 . S
H2936 C2929 0.961 . S
H2937 C2929 0.960 . S
H2938 C2930 0.930 . S
H2939 C2931 0.929 . S
H2940 C2948 0.929 . S
H2941 C2950 0.930 . S
H2942 C2952 0.930 . S
H2943 C2955 0.929 . S
H2944 C2958 0.930 . S
H2945 C2960 0.960 . S
H2946 C2960 0.960 . S
H2947 C2960 0.960 . S
C2948 H2940 0.929 . S
C2948 C2949 1.377 . S
C2948 C2950 1.384 . S
C2949 C2948 1.377 . S
C2949 C2955 1.390 . S
C2950 H2941 0.930 . S
C2950 C2948 1.384 . S
C2950 C2951 1.372 . S
C2951 C2950 1.372 . S
C2951 C2952 1.400 . S
C2951 C2956 1.490 . S
C2952 H2942 0.930 . S
C2952 C2951 1.400 . S
C2952 C2955 1.386 . S
H2953 C2969 0.930 . S
H2954 C2970 0.931 . S
C2955 H2943 0.929 . S
C2955 C2949 1.390 . S
C2955 C2952 1.386 . S
C2956 C2951 1.490 . S
C2956 C2958 1.395 . S
C2956 C2959 1.403 . S
H2957 C2963 0.930 . S
C2958 H2944 0.930 . S
C2958 C2956 1.395 . S
C2958 C2961 1.403 . S
C2959 C2956 1.403 . S
C2959 C2960 1.524 . S
C2959 C2963 1.400 . S
C2960 H2945 0.960 . S
C2960 H2946 0.960 . S
C2960 H2947 0.960 . S
C2960 C2959 1.524 . S
C2961 C2958 1.403 . S
C2961 C2962 1.392 . S
C2961 C2965 1.495 . S
C2962 C2961 1.392 . S
C2962 C2963 1.385 . S
C2962 C2964 1.478 . S
C2963 H2957 0.930 . S
C2963 C2959 1.400 . S
C2963 C2962 1.385 . S
C2964 C2962 1.478 . S
C2964 C2966 1.381 . S
C2964 C2970 1.383 . S
C2965 C2961 1.495 . S
C2965 H2971 0.959 . S
C2965 H2972 0.961 . S
C2965 H2973 0.960 . S
C2966 C2964 1.381 . S
C2966 C2967 1.394 . S
C2966 H2974 0.930 . S
C2967 C2966 1.394 . S
C2967 C2968 1.383 . S
C2967 H2975 0.929 . S
C2968 C2967 1.383 . S
C2968 C2969 1.377 . S
C2969 H2953 0.930 . S
C2969 C2968 1.377 . S
C2969 C2970 1.379 . S
C2970 H2954 0.931 . S
C2970 C2964 1.383 . S
C2970 C2969 1.379 . S
H2971 C2965 0.959 . S
H2972 C2965 0.961 . S
H2973 C2965 0.960 . S
H2974 C2966 0.930 . S
H2975 C2967 0.929 . S
H2976 C2984 0.929 . S
H2977 C2986 0.930 . S
H2978 C2988 0.930 . S
H2979 C2991 0.929 . S
H2980 C2994 0.930 . S
H2981 C2996 0.960 1_655 S
H2982 C2996 0.960 . S
H2983 C2996 0.960 . S
C2984 H2976 0.929 . S
C2984 C2985 1.377 . S
C2984 C2986 1.384 . S
C2985 C2984 1.377 . S
C2985 C2991 1.390 . S
C2986 H2977 0.930 . S
C2986 C2984 1.384 . S
C2986 C2987 1.372 . S
C2987 C2986 1.372 . S
C2987 C2988 1.400 . S
C2987 C2992 1.490 . S
C2988 H2978 0.930 . S
C2988 C2987 1.400 . S
C2988 C2991 1.386 . S
H2989 C3005 0.930 . S
H2990 C3006 0.931 . S
C2991 H2979 0.929 . S
C2991 C2985 1.390 . S
C2991 C2988 1.386 . S
C2992 C2987 1.490 . S
C2992 C2994 1.395 . S
C2992 C2995 1.403 . S
H2993 C2999 0.930 . S
C2994 H2980 0.930 . S
C2994 C2992 1.395 . S
C2994 C2997 1.403 1_455 S
C2995 C2992 1.403 . S
C2995 C2996 1.524 . S
C2995 C2999 1.400 1_455 S
C2996 H2981 0.960 1_455 S
C2996 H2982 0.960 . S
C2996 H2983 0.960 . S
C2996 C2995 1.524 . S
C2997 C2994 1.403 1_655 S
C2997 C2998 1.392 . S
C2997 C3001 1.495 . S
C2998 C2997 1.392 . S
C2998 C2999 1.385 . S
C2998 C3000 1.478 . S
C2999 H2993 0.930 . S
C2999 C2995 1.400 1_655 S
C2999 C2998 1.385 . S
C3000 C2998 1.478 . S
C3000 C3002 1.381 . S
C3000 C3006 1.383 . S
C3001 C2997 1.495 . S
C3001 H3007 0.959 1_655 S
C3001 H3008 0.961 . S
C3001 H3009 0.960 . S
C3002 C3000 1.381 . S
C3002 C3003 1.394 . S
C3002 H3010 0.930 . S
C3003 C3002 1.394 . S
C3003 C3004 1.383 . S
C3003 H3011 0.929 . S
C3004 C3003 1.383 . S
C3004 C3005 1.377 . S
C3005 H2989 0.930 . S
C3005 C3004 1.377 . S
C3005 C3006 1.379 . S
C3006 H2990 0.931 . S
C3006 C3000 1.383 . S
C3006 C3005 1.379 . S
H3007 C3001 0.959 1_455 S
H3008 C3001 0.961 . S
H3009 C3001 0.960 . S
H3010 C3002 0.930 . S
H3011 C3003 0.929 . S
H3012 C3020 0.929 . S
H3013 C3022 0.930 . S
H3014 C3024 0.930 . S
H3015 C3027 0.929 . S
H3016 C3030 0.930 . S
H3017 C3032 0.960 . S
H3018 C3032 0.960 . S
H3019 C3032 0.960 . S
C3020 H3012 0.929 . S
C3020 C3021 1.377 . S
C3020 C3022 1.384 . S
C3021 C3020 1.377 . S
C3021 C3027 1.390 . S
C3022 H3013 0.930 . S
C3022 C3020 1.384 . S
C3022 C3023 1.372 . S
C3023 C3022 1.372 . S
C3023 C3024 1.400 . S
C3023 C3028 1.490 . S
C3024 H3014 0.930 . S
C3024 C3023 1.400 . S
C3024 C3027 1.386 . S
H3025 C3041 0.930 . S
H3026 C3042 0.931 . S
C3027 H3015 0.929 . S
C3027 C3021 1.390 . S
C3027 C3024 1.386 . S
C3028 C3023 1.490 . S
C3028 C3030 1.395 . S
C3028 C3031 1.403 1_455 S
H3029 C3035 0.930 . S
C3030 H3016 0.930 . S
C3030 C3028 1.395 . S
C3030 C3033 1.403 . S
C3031 C3028 1.403 1_655 S
C3031 C3032 1.524 . S
C3031 C3035 1.400 . S
C3032 H3017 0.960 . S
C3032 H3018 0.960 . S
C3032 H3019 0.960 . S
C3032 C3031 1.524 . S
C3033 C3030 1.403 . S
C3033 C3034 1.392 1_455 S
C3033 C3037 1.495 . S
C3034 C3033 1.392 1_655 S
C3034 C3035 1.385 . S
C3034 C3036 1.478 . S
C3035 H3029 0.930 . S
C3035 C3031 1.400 . S
C3035 C3034 1.385 . S
C3036 C3034 1.478 . S
C3036 C3038 1.381 . S
C3036 C3042 1.383 . S
C3037 C3033 1.495 . S
C3037 H3043 0.959 . S
C3037 H3044 0.961 . S
C3037 H3045 0.960 . S
C3038 C3036 1.381 . S
C3038 C3039 1.394 . S
C3038 H3046 0.930 . S
C3039 C3038 1.394 . S
C3039 C3040 1.383 . S
C3039 H3047 0.929 . S
C3040 C3039 1.383 . S
C3040 C3041 1.377 . S
C3041 H3025 0.930 . S
C3041 C3040 1.377 . S
C3041 C3042 1.379 . S
C3042 H3026 0.931 . S
C3042 C3036 1.383 . S
C3042 C3041 1.379 . S
H3043 C3037 0.959 . S
H3044 C3037 0.961 . S
H3045 C3037 0.960 . S
H3046 C3038 0.930 . S
H3047 C3039 0.929 . S
H3048 C3056 0.929 . S
H3049 C3058 0.930 . S
H3050 C3060 0.930 . S
H3051 C3063 0.929 . S
H3052 C3066 0.930 . S
H3053 C3068 0.960 . S
H3054 C3068 0.960 . S
H3055 C3068 0.960 . S
C3056 H3048 0.929 . S
C3056 C3057 1.377 . S
C3056 C3058 1.384 . S
C3057 C3056 1.377 . S
C3057 C3063 1.390 . S
C3058 H3049 0.930 . S
C3058 C3056 1.384 . S
C3058 C3059 1.372 . S
C3059 C3058 1.372 . S
C3059 C3060 1.400 . S
C3059 C3064 1.490 . S
C3060 H3050 0.930 . S
C3060 C3059 1.400 . S
C3060 C3063 1.386 . S
H3061 C3077 0.930 . S
H3062 C3078 0.931 . S
C3063 H3051 0.929 . S
C3063 C3057 1.390 . S
C3063 C3060 1.386 . S
C3064 C3059 1.490 . S
C3064 C3066 1.395 . S
C3064 C3067 1.403 . S
H3065 C3071 0.930 . S
C3066 H3052 0.930 . S
C3066 C3064 1.395 . S
C3066 C3069 1.403 . S
C3067 C3064 1.403 . S
C3067 C3068 1.524 . S
C3067 C3071 1.400 . S
C3068 H3053 0.960 . S
C3068 H3054 0.960 . S
C3068 H3055 0.960 . S
C3068 C3067 1.524 . S
C3069 C3066 1.403 . S
C3069 C3070 1.392 . S
C3069 C3073 1.495 . S
C3070 C3069 1.392 . S
C3070 C3071 1.385 . S
C3070 C3072 1.478 . S
C3071 H3065 0.930 . S
C3071 C3067 1.400 . S
C3071 C3070 1.385 . S
C3072 C3070 1.478 . S
C3072 C3074 1.381 . S
C3072 C3078 1.383 . S
C3073 C3069 1.495 . S
C3073 H3079 0.959 . S
C3073 H3080 0.961 . S
C3073 H3081 0.960 . S
C3074 C3072 1.381 . S
C3074 C3075 1.394 . S
C3074 H3082 0.930 . S
C3075 C3074 1.394 . S
C3075 C3076 1.383 . S
C3075 H3083 0.929 . S
C3076 C3075 1.383 . S
C3076 C3077 1.377 . S
C3077 H3061 0.930 . S
C3077 C3076 1.377 . S
C3077 C3078 1.379 . S
C3078 H3062 0.931 . S
C3078 C3072 1.383 . S
C3078 C3077 1.379 . S
H3079 C3073 0.959 . S
H3080 C3073 0.961 . S
H3081 C3073 0.960 . S
H3082 C3074 0.930 . S
H3083 C3075 0.929 . S
H3084 C3092 0.923 1_556 S
H3085 C3094 0.922 1_556 S
H3086 C3096 0.930 . S
H3087 C3099 0.929 . S
H3088 C3102 0.930 . S
H3089 C3104 0.960 . S
H3090 C3104 0.960 . S
H3091 C3104 0.960 . S
C3092 H3084 0.923 1_554 S
C3092 C3093 1.385 . S
C3092 C3094 1.384 . S
C3093 C3092 1.385 . S
C3093 C3099 1.390 . S
C3094 H3085 0.922 1_554 S
C3094 C3092 1.384 . S
C3094 C3095 1.381 . S
C3095 C3094 1.381 . S
C3095 C3096 1.400 . S
C3095 C3100 1.490 . S
C3096 H3086 0.930 . S
C3096 C3095 1.400 . S
C3096 C3099 1.386 . S
H3097 C3113 0.930 . S
H3098 C3114 0.931 . S
C3099 H3087 0.929 . S
C3099 C3093 1.390 . S
C3099 C3096 1.386 . S
C3100 C3095 1.490 . S
C3100 C3102 1.395 . S
C3100 C3103 1.403 1_554 S
H3101 C3107 0.930 . S
C3102 H3088 0.930 . S
C3102 C3100 1.395 . S
C3102 C3105 1.403 . S
C3103 C3100 1.403 1_556 S
C3103 C3104 1.524 . S
C3103 C3107 1.400 . S
C3104 H3089 0.960 . S
C3104 H3090 0.960 . S
C3104 H3091 0.960 . S
C3104 C3103 1.524 . S
C3105 C3102 1.403 . S
C3105 C3106 1.392 . S
C3105 C3109 1.495 . S
C3106 C3105 1.392 . S
C3106 C3107 1.385 1_554 S
C3106 C3108 1.478 . S
C3107 H3101 0.930 . S
C3107 C3103 1.400 . S
C3107 C3106 1.385 1_556 S
C3108 C3106 1.478 . S
C3108 C3110 1.381 . S
C3108 C3114 1.383 . S
C3109 C3105 1.495 . S
C3109 H3115 0.959 . S
C3109 H3116 0.961 . S
C3109 H3117 0.960 . S
C3110 C3108 1.381 . S
C3110 C3111 1.394 . S
C3110 H3118 0.924 1_554 S
C3111 C3110 1.394 . S
C3111 C3112 1.383 . S
C3111 H3119 0.929 1_554 S
C3112 C3111 1.383 . S
C3112 C3113 1.377 . S
C3113 H3097 0.930 . S
C3113 C3112 1.377 . S
C3113 C3114 1.379 . S
C3114 H3098 0.931 . S
C3114 C3108 1.383 . S
C3114 C3113 1.379 . S
H3115 C3109 0.959 . S
H3116 C3109 0.961 . S
H3117 C3109 0.960 . S
H3118 C3110 0.924 1_556 S
H3119 C3111 0.929 1_556 S
H3120 C3128 0.929 . S
H3121 C3130 0.930 . S
H3122 C3132 0.930 . S
H3123 C3135 0.929 . S
H3124 C3138 0.928 1_655 S
H3125 C3140 0.960 . S
H3126 C3140 0.960 . S
H3127 C3140 0.960 . S
C3128 H3120 0.929 . S
C3128 C3129 1.377 . S
C3128 C3130 1.384 . S
C3129 C3128 1.377 . S
C3129 C3135 1.390 . S
C3130 H3121 0.930 . S
C3130 C3128 1.384 . S
C3130 C3131 1.372 . S
C3131 C3130 1.372 . S
C3131 C3132 1.400 . S
C3131 C3136 1.490 . S
C3132 H3122 0.930 . S
C3132 C3131 1.400 . S
C3132 C3135 1.386 . S
H3133 C3149 0.930 . S
H3134 C3150 0.931 . S
C3135 H3123 0.929 . S
C3135 C3129 1.390 . S
C3135 C3132 1.386 . S
C3136 C3131 1.490 . S
C3136 C3138 1.378 1_655 S
C3136 C3139 1.403 . S
H3137 C3143 0.930 . S
C3138 H3124 0.928 1_455 S
C3138 C3136 1.378 1_455 S
C3138 C3141 1.421 . S
C3139 C3136 1.403 . S
C3139 C3140 1.524 . S
C3139 C3143 1.400 1_655 S
C3140 H3125 0.960 . S
C3140 H3126 0.960 . S
C3140 H3127 0.960 . S
C3140 C3139 1.524 . S
C3141 C3138 1.421 . S
C3141 C3142 1.392 . S
C3141 C3145 1.495 . S
C3142 C3141 1.392 . S
C3142 C3143 1.385 . S
C3142 C3144 1.478 . S
C3143 H3137 0.930 . S
C3143 C3139 1.400 1_455 S
C3143 C3142 1.385 . S
C3144 C3142 1.478 . S
C3144 C3146 1.381 . S
C3144 C3150 1.383 . S
C3145 C3141 1.495 . S
C3145 H3151 0.959 . S
C3145 H3152 0.961 . S
C3145 H3153 0.960 . S
C3146 C3144 1.381 . S
C3146 C3147 1.394 . S
C3146 H3154 0.930 . S
C3147 C3146 1.394 . S
C3147 C3148 1.383 . S
C3147 H3155 0.929 . S
C3148 C3147 1.383 . S
C3148 C3149 1.377 . S
C3149 H3133 0.930 . S
C3149 C3148 1.377 . S
C3149 C3150 1.379 . S
C3150 H3134 0.931 . S
C3150 C3144 1.383 . S
C3150 C3149 1.379 . S
H3151 C3145 0.959 . S
H3152 C3145 0.961 . S
H3153 C3145 0.960 . S
H3154 C3146 0.930 . S
H3155 C3147 0.929 . S
H3156 C3164 0.929 . S
H3157 C3166 0.930 . S
H3158 C3168 0.930 . S
H3159 C3171 0.929 . S
H3160 C3174 0.930 . S
H3161 C3176 0.960 . S
H3162 C3176 0.960 . S
H3163 C3176 0.960 . S
C3164 H3156 0.929 . S
C3164 C3165 1.377 . S
C3164 C3166 1.384 . S
C3165 C3164 1.377 . S
C3165 C3171 1.390 . S
C3166 H3157 0.930 . S
C3166 C3164 1.384 . S
C3166 C3167 1.372 . S
C3167 C3166 1.372 . S
C3167 C3168 1.400 . S
C3167 C3172 1.490 . S
C3168 H3158 0.930 . S
C3168 C3167 1.400 . S
C3168 C3171 1.386 . S
H3169 C3185 0.930 . S
H3170 C3186 0.931 . S
C3171 H3159 0.929 . S
C3171 C3165 1.390 . S
C3171 C3168 1.386 . S
C3172 C3167 1.490 . S
C3172 C3174 1.395 . S
C3172 C3175 1.403 . S
H3173 C3179 0.930 . S
C3174 H3160 0.930 . S
C3174 C3172 1.395 . S
C3174 C3177 1.403 . S
C3175 C3172 1.403 . S
C3175 C3176 1.524 . S
C3175 C3179 1.400 . S
C3176 H3161 0.960 . S
C3176 H3162 0.960 . S
C3176 H3163 0.960 . S
C3176 C3175 1.524 . S
C3177 C3174 1.403 . S
C3177 C3178 1.392 . S
C3177 C3181 1.495 . S
C3178 C3177 1.392 . S
C3178 C3179 1.385 . S
C3178 C3180 1.478 . S
C3179 H3173 0.930 . S
C3179 C3175 1.400 . S
C3179 C3178 1.385 . S
C3180 C3178 1.478 . S
C3180 C3182 1.381 . S
C3180 C3186 1.383 . S
C3181 C3177 1.495 . S
C3181 H3187 0.959 . S
C3181 H3188 0.961 . S
C3181 H3189 0.960 . S
C3182 C3180 1.381 . S
C3182 C3183 1.394 . S
C3182 H3190 0.930 . S
C3183 C3182 1.394 . S
C3183 C3184 1.383 . S
C3183 H3191 0.929 . S
C3184 C3183 1.383 . S
C3184 C3185 1.377 . S
C3185 H3169 0.930 . S
C3185 C3184 1.377 . S
C3185 C3186 1.379 . S
C3186 H3170 0.931 . S
C3186 C3180 1.383 . S
C3186 C3185 1.379 . S
H3187 C3181 0.959 . S
H3188 C3181 0.961 . S
H3189 C3181 0.960 . S
H3190 C3182 0.930 . S
H3191 C3183 0.929 . S
H3192 C3200 0.929 . S
H3193 C3202 0.930 . S
H3194 C3204 0.930 . S
H3195 C3207 0.929 . S
H3196 C3210 0.930 . S
H3197 C3212 0.960 . S
H3198 C3212 0.960 . S
H3199 C3212 0.960 . S
C3200 H3192 0.929 . S
C3200 C3201 1.377 . S
C3200 C3202 1.384 . S
C3201 C3200 1.377 . S
C3201 C3207 1.390 . S
C3202 H3193 0.930 . S
C3202 C3200 1.384 . S
C3202 C3203 1.372 . S
C3203 C3202 1.372 . S
C3203 C3204 1.400 . S
C3203 C3208 1.490 . S
C3204 H3194 0.930 . S
C3204 C3203 1.400 . S
C3204 C3207 1.386 . S
H3205 C3221 0.930 . S
H3206 C3222 0.931 . S
C3207 H3195 0.929 . S
C3207 C3201 1.390 . S
C3207 C3204 1.386 . S
C3208 C3203 1.490 . S
C3208 C3210 1.395 . S
C3208 C3211 1.403 . S
H3209 C3215 0.930 . S
C3210 H3196 0.930 . S
C3210 C3208 1.395 . S
C3210 C3213 1.403 . S
C3211 C3208 1.403 . S
C3211 C3212 1.524 . S
C3211 C3215 1.400 . S
C3212 H3197 0.960 . S
C3212 H3198 0.960 . S
C3212 H3199 0.960 . S
C3212 C3211 1.524 . S
C3213 C3210 1.403 . S
C3213 C3214 1.392 . S
C3213 C3217 1.495 . S
C3214 C3213 1.392 . S
C3214 C3215 1.385 . S
C3214 C3216 1.478 . S
C3215 H3209 0.930 . S
C3215 C3211 1.400 . S
C3215 C3214 1.385 . S
C3216 C3214 1.478 . S
C3216 C3218 1.381 . S
C3216 C3222 1.383 . S
C3217 C3213 1.495 . S
C3217 H3223 0.959 . S
C3217 H3224 0.961 . S
C3217 H3225 0.960 . S
C3218 C3216 1.381 . S
C3218 C3219 1.394 . S
C3218 H3226 0.930 . S
C3219 C3218 1.394 . S
C3219 C3220 1.383 . S
C3219 H3227 0.929 . S
C3220 C3219 1.383 . S
C3220 C3221 1.377 . S
C3221 H3205 0.930 . S
C3221 C3220 1.377 . S
C3221 C3222 1.379 . S
C3222 H3206 0.931 . S
C3222 C3216 1.383 . S
C3222 C3221 1.379 . S
H3223 C3217 0.959 . S
H3224 C3217 0.961 . S
H3225 C3217 0.960 . S
H3226 C3218 0.930 . S
H3227 C3219 0.929 . S
H3228 C3236 0.929 . S
H3229 C3238 0.930 1_455 S
H3230 C3240 0.931 . S
H3231 C3243 0.926 1_554 S
H3232 C3246 0.930 . S
H3233 C3248 0.960 . S
H3234 C3248 0.960 . S
H3235 C3248 0.960 . S
C3236 H3228 0.929 . S
C3236 C3237 1.377 . S
C3236 C3238 1.384 . S
C3237 C3236 1.377 . S
C3237 C3243 1.390 . S
C3238 H3229 0.930 1_655 S
C3238 C3236 1.384 . S
C3238 C3239 1.372 . S
C3239 C3238 1.372 . S
C3239 C3240 1.400 . S
C3239 C3244 1.490 . S
C3240 H3230 0.931 . S
C3240 C3239 1.400 . S
C3240 C3243 1.386 . S
H3241 C3257 0.930 . S
H3242 C3258 0.931 . S
C3243 H3231 0.926 1_556 S
C3243 C3237 1.390 . S
C3243 C3240 1.386 . S
C3244 C3239 1.490 . S
C3244 C3246 1.395 1_656 S
C3244 C3247 1.403 . S
H3245 C3251 0.930 . S
C3246 H3232 0.930 . S
C3246 C3244 1.395 1_454 S
C3246 C3249 1.403 . S
C3247 C3244 1.403 . S
C3247 C3248 1.524 . S
C3247 C3251 1.400 . S
C3248 H3233 0.960 . S
C3248 H3234 0.960 . S
C3248 H3235 0.960 . S
C3248 C3247 1.524 . S
C3249 C3246 1.403 . S
C3249 C3250 1.392 1_554 S
C3249 C3253 1.495 . S
C3250 C3249 1.392 1_556 S
C3250 C3251 1.385 1_455 S
C3250 C3252 1.479 . S
C3251 H3245 0.930 . S
C3251 C3247 1.400 . S
C3251 C3250 1.385 1_655 S
C3252 C3250 1.479 . S
C3252 C3254 1.395 . S
C3252 C3258 1.373 1_556 S
C3253 C3249 1.495 . S
C3253 H3259 0.959 . S
C3253 H3260 0.961 . S
C3253 H3261 0.960 . S
C3254 C3252 1.395 . S
C3254 C3255 1.394 . S
C3254 H3262 0.930 . S
C3255 C3254 1.394 . S
C3255 C3256 1.383 . S
C3255 H3263 0.929 . S
C3256 C3255 1.383 . S
C3256 C3257 1.377 1_556 S
C3257 H3241 0.930 . S
C3257 C3256 1.377 1_554 S
C3257 C3258 1.379 . S
C3258 H3242 0.931 . S
C3258 C3252 1.373 1_554 S
C3258 C3257 1.379 . S
H3259 C3253 0.959 . S
H3260 C3253 0.961 . S
H3261 C3253 0.960 . S
H3262 C3254 0.930 . S
H3263 C3255 0.929 . S
H3264 C3272 0.929 . S
H3265 C3274 0.930 . S
H3266 C3276 0.930 . S
H3267 C3279 0.929 . S
H3268 C3282 0.930 . S
H3269 C3284 0.960 . S
H3270 C3284 0.960 1_455 S
H3271 C3284 0.960 1_455 S
C3272 H3264 0.929 . S
C3272 C3273 1.377 . S
C3272 C3274 1.384 . S
C3273 C3272 1.377 . S
C3273 C3279 1.390 . S
C3274 H3265 0.930 . S
C3274 C3272 1.384 . S
C3274 C3275 1.372 . S
C3275 C3274 1.372 . S
C3275 C3276 1.400 . S
C3275 C3280 1.490 . S
C3276 H3266 0.930 . S
C3276 C3275 1.400 . S
C3276 C3279 1.386 . S
H3277 C3293 0.930 . S
H3278 C3294 0.931 . S
C3279 H3267 0.929 . S
C3279 C3273 1.390 . S
C3279 C3276 1.386 . S
C3280 C3275 1.490 . S
C3280 C3282 1.395 . S
C3280 C3283 1.401 . S
H3281 C3287 0.930 . S
C3282 H3268 0.930 . S
C3282 C3280 1.395 . S
C3282 C3285 1.403 . S
C3283 C3280 1.401 . S
C3283 C3284 1.524 1_455 S
C3283 C3287 1.402 1_455 S
C3284 H3269 0.960 . S
C3284 H3270 0.960 1_655 S
C3284 H3271 0.960 1_655 S
C3284 C3283 1.524 1_655 S
C3285 C3282 1.403 . S
C3285 C3286 1.392 1_455 S
C3285 C3289 1.495 . S
C3286 C3285 1.392 1_655 S
C3286 C3287 1.385 . S
C3286 C3288 1.478 . S
C3287 H3281 0.930 . S
C3287 C3283 1.402 1_655 S
C3287 C3286 1.385 . S
C3288 C3286 1.478 . S
C3288 C3290 1.381 . S
C3288 C3294 1.383 . S
C3289 C3285 1.495 . S
C3289 H3295 0.959 . S
C3289 H3296 0.954 1_455 S
C3289 H3297 0.960 1_455 S
C3290 C3288 1.381 . S
C3290 C3291 1.394 . S
C3290 H3298 0.930 . S
C3291 C3290 1.394 . S
C3291 C3292 1.383 . S
C3291 H3299 0.929 . S
C3292 C3291 1.383 . S
C3292 C3293 1.377 . S
C3293 H3277 0.930 . S
C3293 C3292 1.377 . S
C3293 C3294 1.379 . S
C3294 H3278 0.931 . S
C3294 C3288 1.383 . S
C3294 C3293 1.379 . S
H3295 C3289 0.959 . S
H3296 C3289 0.954 1_655 S
H3297 C3289 0.960 1_655 S
H3298 C3290 0.930 . S
H3299 C3291 0.929 . S
H3300 C3308 0.929 . S
H3301 C3310 0.930 . S
H3302 C3312 0.930 . S
H3303 C3315 0.929 . S
H3304 C3318 0.930 . S
H3305 C3320 0.960 . S
H3306 C3320 0.960 . S
H3307 C3320 0.954 1_455 S
C3308 H3300 0.929 . S
C3308 C3309 1.377 . S
C3308 C3310 1.384 . S
C3309 C3308 1.377 . S
C3309 C3315 1.390 . S
C3310 H3301 0.930 . S
C3310 C3308 1.384 . S
C3310 C3311 1.372 . S
C3311 C3310 1.372 . S
C3311 C3312 1.400 . S
C3311 C3316 1.490 . S
C3312 H3302 0.930 . S
C3312 C3311 1.400 . S
C3312 C3315 1.386 . S
H3313 C3329 0.930 . S
H3314 C3330 0.931 . S
C3315 H3303 0.929 . S
C3315 C3309 1.390 . S
C3315 C3312 1.386 . S
C3316 C3311 1.490 . S
C3316 C3318 1.395 . S
C3316 C3319 1.403 1_455 S
H3317 C3323 0.930 . S
C3318 H3304 0.930 . S
C3318 C3316 1.395 . S
C3318 C3321 1.403 . S
C3319 C3316 1.403 1_655 S
C3319 C3320 1.524 . S
C3319 C3323 1.400 . S
C3320 H3305 0.960 . S
C3320 H3306 0.960 . S
C3320 H3307 0.954 1_655 S
C3320 C3319 1.524 . S
C3321 C3318 1.403 . S
C3321 C3322 1.392 1_455 S
C3321 C3325 1.495 . S
C3322 C3321 1.392 1_655 S
C3322 C3323 1.385 . S
C3322 C3324 1.478 . S
C3323 H3317 0.930 . S
C3323 C3319 1.400 . S
C3323 C3322 1.385 . S
C3324 C3322 1.478 . S
C3324 C3326 1.381 . S
C3324 C3330 1.383 . S
C3325 C3321 1.495 . S
C3325 H3331 0.959 . S
C3325 H3332 0.961 . S
C3325 H3333 0.938 1_455 S
C3326 C3324 1.381 . S
C3326 C3327 1.394 . S
C3326 H3334 0.930 . S
C3327 C3326 1.394 . S
C3327 C3328 1.383 . S
C3327 H3335 0.929 . S
C3328 C3327 1.383 . S
C3328 C3329 1.377 . S
C3329 H3313 0.930 . S
C3329 C3328 1.377 . S
C3329 C3330 1.379 . S
C3330 H3314 0.931 . S
C3330 C3324 1.383 . S
C3330 C3329 1.379 . S
H3331 C3325 0.959 . S
H3332 C3325 0.961 . S
H3333 C3325 0.938 1_655 S
H3334 C3326 0.930 . S
H3335 C3327 0.929 . S
H3336 C3344 0.929 . S
H3337 C3346 0.930 . S
H3338 C3348 0.930 . S
H3339 C3351 0.929 . S
H3340 C3354 0.930 . S
H3341 C3356 0.960 . S
H3342 C3356 0.960 . S
H3343 C3356 0.960 . S
C3344 H3336 0.929 . S
C3344 C3345 1.377 . S
C3344 C3346 1.384 . S
C3345 C3344 1.377 . S
C3345 C3351 1.390 . S
C3346 H3337 0.930 . S
C3346 C3344 1.384 . S
C3346 C3347 1.372 . S
C3347 C3346 1.372 . S
C3347 C3348 1.400 . S
C3347 C3352 1.490 . S
C3348 H3338 0.930 . S
C3348 C3347 1.400 . S
C3348 C3351 1.386 . S
H3349 C3365 0.930 . S
H3350 C3366 0.931 . S
C3351 H3339 0.929 . S
C3351 C3345 1.390 . S
C3351 C3348 1.386 . S
C3352 C3347 1.490 . S
C3352 C3354 1.395 . S
C3352 C3355 1.403 . S
H3353 C3359 0.930 . S
C3354 H3340 0.930 . S
C3354 C3352 1.395 . S
C3354 C3357 1.403 . S
C3355 C3352 1.403 . S
C3355 C3356 1.524 . S
C3355 C3359 1.400 . S
C3356 H3341 0.960 . S
C3356 H3342 0.960 . S
C3356 H3343 0.960 . S
C3356 C3355 1.524 . S
C3357 C3354 1.403 . S
C3357 C3358 1.392 . S
C3357 C3361 1.495 . S
C3358 C3357 1.392 . S
C3358 C3359 1.385 . S
C3358 C3360 1.478 . S
C3359 H3353 0.930 . S
C3359 C3355 1.400 . S
C3359 C3358 1.385 . S
C3360 C3358 1.478 . S
C3360 C3362 1.381 . S
C3360 C3366 1.383 . S
C3361 C3357 1.495 . S
C3361 H3367 0.959 . S
C3361 H3368 0.961 . S
C3361 H3369 0.960 . S
C3362 C3360 1.381 . S
C3362 C3363 1.394 . S
C3362 H3370 0.930 . S
C3363 C3362 1.394 . S
C3363 C3364 1.383 . S
C3363 H3371 0.929 . S
C3364 C3363 1.383 . S
C3364 C3365 1.377 . S
C3365 H3349 0.930 . S
C3365 C3364 1.377 . S
C3365 C3366 1.379 . S
C3366 H3350 0.931 . S
C3366 C3360 1.383 . S
C3366 C3365 1.379 . S
H3367 C3361 0.959 . S
H3368 C3361 0.961 . S
H3369 C3361 0.960 . S
H3370 C3362 0.930 . S
H3371 C3363 0.929 . S
H3372 C3380 0.929 . S
H3373 C3382 0.930 . S
H3374 C3384 0.930 . S
H3375 C3387 0.929 . S
H3376 C3390 0.930 . S
H3377 C3392 0.960 . S
H3378 C3392 0.960 . S
H3379 C3392 0.960 1_554 S
C3380 H3372 0.929 . S
C3380 C3381 1.377 . S
C3380 C3382 1.384 . S
C3381 C3380 1.377 . S
C3381 C3387 1.390 1_556 S
C3382 H3373 0.930 . S
C3382 C3380 1.384 . S
C3382 C3383 1.372 . S
C3383 C3382 1.372 . S
C3383 C3384 1.400 1_556 S
C3383 C3388 1.490 . S
C3384 H3374 0.930 . S
C3384 C3383 1.400 1_554 S
C3384 C3387 1.386 . S
H3385 C3401 0.930 . S
H3386 C3402 0.931 . S
C3387 H3375 0.929 . S
C3387 C3381 1.390 1_554 S
C3387 C3384 1.386 . S
C3388 C3383 1.490 . S
C3388 C3390 1.395 . S
C3388 C3391 1.403 . S
H3389 C3395 0.930 . S
C3390 H3376 0.930 . S
C3390 C3388 1.395 . S
C3390 C3393 1.403 . S
C3391 C3388 1.403 . S
C3391 C3392 1.524 . S
C3391 C3395 1.400 . S
C3392 H3377 0.960 . S
C3392 H3378 0.960 . S
C3392 H3379 0.960 1_556 S
C3392 C3391 1.524 . S
C3393 C3390 1.403 . S
C3393 C3394 1.392 . S
C3393 C3397 1.495 . S
C3394 C3393 1.392 . S
C3394 C3395 1.385 . S
C3394 C3396 1.478 . S
C3395 H3389 0.930 . S
C3395 C3391 1.400 . S
C3395 C3394 1.385 . S
C3396 C3394 1.478 . S
C3396 C3398 1.381 . S
C3396 C3402 1.383 1_556 S
C3397 C3393 1.495 . S
C3397 H3403 0.961 . S
C3397 H3404 0.961 1_556 S
C3397 H3405 0.960 . S
C3398 C3396 1.381 . S
C3398 C3399 1.394 . S
C3398 H3406 0.930 . S
C3399 C3398 1.394 . S
C3399 C3400 1.383 . S
C3399 H3407 0.929 . S
C3400 C3399 1.383 . S
C3400 C3401 1.377 1_556 S
C3401 H3385 0.930 . S
C3401 C3400 1.377 1_554 S
C3401 C3402 1.379 . S
C3402 H3386 0.931 . S
C3402 C3396 1.383 1_554 S
C3402 C3401 1.379 . S
H3403 C3397 0.961 . S
H3404 C3397 0.961 1_554 S
H3405 C3397 0.960 . S
H3406 C3398 0.930 . S
H3407 C3399 0.929 . S
H3408 C3416 0.929 . S
H3409 C3418 0.930 . S
H3410 C3420 0.930 . S
H3411 C3423 0.929 . S
H3412 C3426 0.930 . S
H3413 C3428 0.960 . S
H3414 C3428 0.960 . S
H3415 C3428 0.960 . S
C3416 H3408 0.929 . S
C3416 C3417 1.377 . S
C3416 C3418 1.384 . S
C3417 C3416 1.377 . S
C3417 C3423 1.390 . S
C3418 H3409 0.930 . S
C3418 C3416 1.384 . S
C3418 C3419 1.372 . S
C3419 C3418 1.372 . S
C3419 C3420 1.400 . S
C3419 C3424 1.490 . S
C3420 H3410 0.930 . S
C3420 C3419 1.400 . S
C3420 C3423 1.386 . S
H3421 C3437 0.930 . S
H3422 C3438 0.931 . S
C3423 H3411 0.929 . S
C3423 C3417 1.390 . S
C3423 C3420 1.386 . S
C3424 C3419 1.490 . S
C3424 C3426 1.398 . S
C3424 C3427 1.403 . S
H3425 C3431 0.930 . S
C3426 H3412 0.930 . S
C3426 C3424 1.398 . S
C3426 C3429 1.400 1_655 S
C3427 C3424 1.403 . S
C3427 C3428 1.524 . S
C3427 C3431 1.400 1_655 S
C3428 H3413 0.960 . S
C3428 H3414 0.960 . S
C3428 H3415 0.960 . S
C3428 C3427 1.524 . S
C3429 C3426 1.400 1_455 S
C3429 C3430 1.392 . S
C3429 C3433 1.495 . S
C3430 C3429 1.392 . S
C3430 C3431 1.385 . S
C3430 C3432 1.478 . S
C3431 H3425 0.930 . S
C3431 C3427 1.400 1_455 S
C3431 C3430 1.385 . S
C3432 C3430 1.478 . S
C3432 C3434 1.381 . S
C3432 C3438 1.383 . S
C3433 C3429 1.495 . S
C3433 H3439 0.959 . S
C3433 H3440 0.961 . S
C3433 H3441 0.960 . S
C3434 C3432 1.381 . S
C3434 C3435 1.394 . S
C3434 H3442 0.930 . S
C3435 C3434 1.394 . S
C3435 C3436 1.383 . S
C3435 H3443 0.929 . S
C3436 C3435 1.383 . S
C3436 C3437 1.377 . S
C3437 H3421 0.930 . S
C3437 C3436 1.377 . S
C3437 C3438 1.379 . S
C3438 H3422 0.931 . S
C3438 C3432 1.383 . S
C3438 C3437 1.379 . S
H3439 C3433 0.959 . S
H3440 C3433 0.961 . S
H3441 C3433 0.960 . S
H3442 C3434 0.930 . S
H3443 C3435 0.929 . S
H3444 C3452 0.929 . S
H3445 C3454 0.930 . S
H3446 C3456 0.930 . S
H3447 C3459 0.929 . S
H3448 C3462 0.930 . S
H3449 C3464 0.960 . S
H3450 C3464 0.960 . S
H3451 C3464 0.960 . S
C3452 H3444 0.929 . S
C3452 C3453 1.377 . S
C3452 C3454 1.384 . S
C3453 C3452 1.377 . S
C3453 C3459 1.390 . S
C3454 H3445 0.930 . S
C3454 C3452 1.384 . S
C3454 C3455 1.372 . S
C3455 C3454 1.372 . S
C3455 C3456 1.400 . S
C3455 C3460 1.490 . S
C3456 H3446 0.930 . S
C3456 C3455 1.400 . S
C3456 C3459 1.386 . S
H3457 C3473 0.930 . S
H3458 C3474 0.931 . S
C3459 H3447 0.929 . S
C3459 C3453 1.390 . S
C3459 C3456 1.386 . S
C3460 C3455 1.490 . S
C3460 C3462 1.395 . S
C3460 C3463 1.403 . S
H3461 C3467 0.930 . S
C3462 H3448 0.930 . S
C3462 C3460 1.395 . S
C3462 C3465 1.403 . S
C3463 C3460 1.403 . S
C3463 C3464 1.524 . S
C3463 C3467 1.400 . S
C3464 H3449 0.960 . S
C3464 H3450 0.960 . S
C3464 H3451 0.960 . S
C3464 C3463 1.524 . S
C3465 C3462 1.403 . S
C3465 C3466 1.392 . S
C3465 C3469 1.495 . S
C3466 C3465 1.392 . S
C3466 C3467 1.385 . S
C3466 C3468 1.478 . S
C3467 H3461 0.930 . S
C3467 C3463 1.400 . S
C3467 C3466 1.385 . S
C3468 C3466 1.478 . S
C3468 C3470 1.381 . S
C3468 C3474 1.383 . S
C3469 C3465 1.495 . S
C3469 H3475 0.959 . S
C3469 H3476 0.961 . S
C3469 H3477 0.960 . S
C3470 C3468 1.381 . S
C3470 C3471 1.394 . S
C3470 H3478 0.930 . S
C3471 C3470 1.394 . S
C3471 C3472 1.383 . S
C3471 H3479 0.929 . S
C3472 C3471 1.383 . S
C3472 C3473 1.377 . S
C3473 H3457 0.930 . S
C3473 C3472 1.377 . S
C3473 C3474 1.379 . S
C3474 H3458 0.931 . S
C3474 C3468 1.383 . S
C3474 C3473 1.379 . S
H3475 C3469 0.959 . S
H3476 C3469 0.961 . S
H3477 C3469 0.960 . S
H3478 C3470 0.930 . S
H3479 C3471 0.929 . S
H3480 C3488 0.929 . S
H3481 C3490 0.930 . S
H3482 C3492 0.930 . S
H3483 C3495 0.929 . S
H3484 C3498 0.930 . S
H3485 C3500 0.960 . S
H3486 C3500 0.960 . S
H3487 C3500 0.960 . S
C3488 H3480 0.929 . S
C3488 C3489 1.377 . S
C3488 C3490 1.384 . S
C3489 C3488 1.377 . S
C3489 C3495 1.390 . S
C3490 H3481 0.930 . S
C3490 C3488 1.384 . S
C3490 C3491 1.372 . S
C3491 C3490 1.372 . S
C3491 C3492 1.400 . S
C3491 C3496 1.490 . S
C3492 H3482 0.930 . S
C3492 C3491 1.400 . S
C3492 C3495 1.386 . S
H3493 C3509 0.930 . S
H3494 C3510 0.931 . S
C3495 H3483 0.929 . S
C3495 C3489 1.390 . S
C3495 C3492 1.386 . S
C3496 C3491 1.490 . S
C3496 C3498 1.395 . S
C3496 C3499 1.403 . S
H3497 C3503 0.930 . S
C3498 H3484 0.930 . S
C3498 C3496 1.395 . S
C3498 C3501 1.403 . S
C3499 C3496 1.403 . S
C3499 C3500 1.524 . S
C3499 C3503 1.400 . S
C3500 H3485 0.960 . S
C3500 H3486 0.960 . S
C3500 H3487 0.960 . S
C3500 C3499 1.524 . S
C3501 C3498 1.403 . S
C3501 C3502 1.392 . S
C3501 C3505 1.495 . S
C3502 C3501 1.392 . S
C3502 C3503 1.385 . S
C3502 C3504 1.478 . S
C3503 H3497 0.930 . S
C3503 C3499 1.400 . S
C3503 C3502 1.385 . S
C3504 C3502 1.478 . S
C3504 C3506 1.381 . S
C3504 C3510 1.383 . S
C3505 C3501 1.495 . S
C3505 H3511 0.959 . S
C3505 H3512 0.961 . S
C3505 H3513 0.960 . S
C3506 C3504 1.381 . S
C3506 C3507 1.394 . S
C3506 H3514 0.930 . S
C3507 C3506 1.394 . S
C3507 C3508 1.383 . S
C3507 H3515 0.929 . S
C3508 C3507 1.383 . S
C3508 C3509 1.377 . S
C3509 H3493 0.930 . S
C3509 C3508 1.377 . S
C3509 C3510 1.379 . S
C3510 H3494 0.931 . S
C3510 C3504 1.383 . S
C3510 C3509 1.379 . S
H3511 C3505 0.959 . S
H3512 C3505 0.961 . S
H3513 C3505 0.960 . S
H3514 C3506 0.930 . S
H3515 C3507 0.929 . S
H3516 C3524 0.929 . S
H3517 C3526 0.930 . S
H3518 C3528 0.930 . S
H3519 C3531 0.929 . S
H3520 C3534 0.930 . S
H3521 C3536 0.960 . S
H3522 C3536 0.960 . S
H3523 C3536 0.960 . S
C3524 H3516 0.929 . S
C3524 C3525 1.377 . S
C3524 C3526 1.384 . S
C3525 C3524 1.377 . S
C3525 C3531 1.390 1_554 S
C3526 H3517 0.930 . S
C3526 C3524 1.384 . S
C3526 C3527 1.372 . S
C3527 C3526 1.372 . S
C3527 C3528 1.400 1_554 S
C3527 C3532 1.490 . S
C3528 H3518 0.930 . S
C3528 C3527 1.400 1_556 S
C3528 C3531 1.386 . S
H3529 C3545 0.930 . S
H3530 C3546 0.931 . S
C3531 H3519 0.929 . S
C3531 C3525 1.390 1_556 S
C3531 C3528 1.386 . S
C3532 C3527 1.490 . S
C3532 C3534 1.395 . S
C3532 C3535 1.403 1_654 S
H3533 C3539 0.930 . S
C3534 H3520 0.930 . S
C3534 C3532 1.395 . S
C3534 C3537 1.403 . S
C3535 C3532 1.403 1_456 S
C3535 C3536 1.524 . S
C3535 C3539 1.400 . S
C3536 H3521 0.960 . S
C3536 H3522 0.960 . S
C3536 H3523 0.960 . S
C3536 C3535 1.524 . S
C3537 C3534 1.403 . S
C3537 C3538 1.392 1_655 S
C3537 C3541 1.495 . S
C3538 C3537 1.392 1_455 S
C3538 C3539 1.385 1_554 S
C3538 C3540 1.478 . S
C3539 H3533 0.930 . S
C3539 C3535 1.400 . S
C3539 C3538 1.385 1_556 S
C3540 C3538 1.478 . S
C3540 C3542 1.381 . S
C3540 C3546 1.383 1_554 S
C3541 C3537 1.495 . S
C3541 H3547 0.959 . S
C3541 H3548 0.961 . S
C3541 H3549 0.960 . S
C3542 C3540 1.381 . S
C3542 C3543 1.394 . S
C3542 H3550 0.930 . S
C3543 C3542 1.394 . S
C3543 C3544 1.383 . S
C3543 H3551 0.929 . S
C3544 C3543 1.383 . S
C3544 C3545 1.377 1_554 S
C3545 H3529 0.930 . S
C3545 C3544 1.377 1_556 S
C3545 C3546 1.379 . S
C3546 H3530 0.931 . S
C3546 C3540 1.383 1_556 S
C3546 C3545 1.379 . S
H3547 C3541 0.959 . S
H3548 C3541 0.961 . S
H3549 C3541 0.960 . S
H3550 C3542 0.930 . S
H3551 C3543 0.929 . S
H3552 C3560 0.929 . S
H3553 C3562 0.930 . S
H3554 C3564 0.930 . S
H3555 C3567 0.929 . S
H3556 C3570 0.930 . S
H3557 C3572 0.960 . S
H3558 C3572 0.960 . S
H3559 C3572 0.960 . S
C3560 H3552 0.929 . S
C3560 C3561 1.377 . S
C3560 C3562 1.384 . S
C3561 C3560 1.377 . S
C3561 C3567 1.390 . S
C3562 H3553 0.930 . S
C3562 C3560 1.384 . S
C3562 C3563 1.372 . S
C3563 C3562 1.372 . S
C3563 C3564 1.400 . S
C3563 C3568 1.490 . S
C3564 H3554 0.930 . S
C3564 C3563 1.400 . S
C3564 C3567 1.386 . S
H3565 C3581 0.930 . S
H3566 C3582 0.931 . S
C3567 H3555 0.929 . S
C3567 C3561 1.390 . S
C3567 C3564 1.386 . S
C3568 C3563 1.490 . S
C3568 C3570 1.395 . S
C3568 C3571 1.403 . S
H3569 C3575 0.930 . S
C3570 H3556 0.930 . S
C3570 C3568 1.395 . S
C3570 C3573 1.403 . S
C3571 C3568 1.403 . S
C3571 C3572 1.524 . S
C3571 C3575 1.400 . S
C3572 H3557 0.960 . S
C3572 H3558 0.960 . S
C3572 H3559 0.960 . S
C3572 C3571 1.524 . S
C3573 C3570 1.403 . S
C3573 C3574 1.392 . S
C3573 C3577 1.495 . S
C3574 C3573 1.392 . S
C3574 C3575 1.385 . S
C3574 C3576 1.478 . S
C3575 H3569 0.930 . S
C3575 C3571 1.400 . S
C3575 C3574 1.385 . S
C3576 C3574 1.478 . S
C3576 C3578 1.381 . S
C3576 C3582 1.383 . S
C3577 C3573 1.495 . S
C3577 H3583 0.959 . S
C3577 H3584 0.961 . S
C3577 H3585 0.960 . S
C3578 C3576 1.381 . S
C3578 C3579 1.394 . S
C3578 H3586 0.930 . S
C3579 C3578 1.394 . S
C3579 C3580 1.383 . S
C3579 H3587 0.929 . S
C3580 C3579 1.383 . S
C3580 C3581 1.377 . S
C3581 H3565 0.930 . S
C3581 C3580 1.377 . S
C3581 C3582 1.379 . S
C3582 H3566 0.931 . S
C3582 C3576 1.383 . S
C3582 C3581 1.379 . S
H3583 C3577 0.959 . S
H3584 C3577 0.961 . S
H3585 C3577 0.960 . S
H3586 C3578 0.930 . S
H3587 C3579 0.929 . S
H3588 C3596 0.929 . S
H3589 C3598 0.930 . S
H3590 C3600 0.930 . S
H3591 C3603 0.929 . S
H3592 C3606 0.930 . S
H3593 C3608 0.960 . S
H3594 C3608 0.960 . S
H3595 C3608 0.960 . S
C3596 H3588 0.929 . S
C3596 C3597 1.377 . S
C3596 C3598 1.384 . S
C3597 C3596 1.377 . S
C3597 C3603 1.390 . S
C3598 H3589 0.930 . S
C3598 C3596 1.384 . S
C3598 C3599 1.372 . S
C3599 C3598 1.372 . S
C3599 C3600 1.400 . S
C3599 C3604 1.490 . S
C3600 H3590 0.930 . S
C3600 C3599 1.400 . S
C3600 C3603 1.386 . S
H3601 C3617 0.930 . S
H3602 C3618 0.931 . S
C3603 H3591 0.929 . S
C3603 C3597 1.390 . S
C3603 C3600 1.386 . S
C3604 C3599 1.490 . S
C3604 C3606 1.395 . S
C3604 C3607 1.403 . S
H3605 C3611 0.930 . S
C3606 H3592 0.930 . S
C3606 C3604 1.395 . S
C3606 C3609 1.403 . S
C3607 C3604 1.403 . S
C3607 C3608 1.524 . S
C3607 C3611 1.400 . S
C3608 H3593 0.960 . S
C3608 H3594 0.960 . S
C3608 H3595 0.960 . S
C3608 C3607 1.524 . S
C3609 C3606 1.403 . S
C3609 C3610 1.392 . S
C3609 C3613 1.495 . S
C3610 C3609 1.392 . S
C3610 C3611 1.385 . S
C3610 C3612 1.478 . S
C3611 H3605 0.930 . S
C3611 C3607 1.400 . S
C3611 C3610 1.385 . S
C3612 C3610 1.478 . S
C3612 C3614 1.381 . S
C3612 C3618 1.383 . S
C3613 C3609 1.495 . S
C3613 H3619 0.959 . S
C3613 H3620 0.961 . S
C3613 H3621 0.960 . S
C3614 C3612 1.381 . S
C3614 C3615 1.394 . S
C3614 H3622 0.930 . S
C3615 C3614 1.394 . S
C3615 C3616 1.383 . S
C3615 H3623 0.929 . S
C3616 C3615 1.383 . S
C3616 C3617 1.377 . S
C3617 H3601 0.930 . S
C3617 C3616 1.377 . S
C3617 C3618 1.379 . S
C3618 H3602 0.931 . S
C3618 C3612 1.383 . S
C3618 C3617 1.379 . S
H3619 C3613 0.959 . S
H3620 C3613 0.961 . S
H3621 C3613 0.960 . S
H3622 C3614 0.930 . S
H3623 C3615 0.929 . S
H3624 C3632 0.929 . S
H3625 C3634 0.930 . S
H3626 C3636 0.930 . S
H3627 C3639 0.929 . S
H3628 C3642 0.930 . S
H3629 C3644 0.960 . S
H3630 C3644 0.960 . S
H3631 C3644 0.960 . S
C3632 H3624 0.929 . S
C3632 C3633 1.377 . S
C3632 C3634 1.384 . S
C3633 C3632 1.377 . S
C3633 C3639 1.390 . S
C3634 H3625 0.930 . S
C3634 C3632 1.384 . S
C3634 C3635 1.372 . S
C3635 C3634 1.372 . S
C3635 C3636 1.400 . S
C3635 C3640 1.490 . S
C3636 H3626 0.930 . S
C3636 C3635 1.400 . S
C3636 C3639 1.386 . S
H3637 C3653 0.930 . S
H3638 C3654 0.931 . S
C3639 H3627 0.929 . S
C3639 C3633 1.390 . S
C3639 C3636 1.386 . S
C3640 C3635 1.490 . S
C3640 C3642 1.395 . S
C3640 C3643 1.403 . S
H3641 C3647 0.930 . S
C3642 H3628 0.930 . S
C3642 C3640 1.395 . S
C3642 C3645 1.403 . S
C3643 C3640 1.403 . S
C3643 C3644 1.524 . S
C3643 C3647 1.400 . S
C3644 H3629 0.960 . S
C3644 H3630 0.960 . S
C3644 H3631 0.960 . S
C3644 C3643 1.524 . S
C3645 C3642 1.403 . S
C3645 C3646 1.392 . S
C3645 C3649 1.495 . S
C3646 C3645 1.392 . S
C3646 C3647 1.385 . S
C3646 C3648 1.478 . S
C3647 H3641 0.930 . S
C3647 C3643 1.400 . S
C3647 C3646 1.385 . S
C3648 C3646 1.478 . S
C3648 C3650 1.381 . S
C3648 C3654 1.383 . S
C3649 C3645 1.495 . S
C3649 H3655 0.959 . S
C3649 H3656 0.961 . S
C3649 H3657 0.960 . S
C3650 C3648 1.381 . S
C3650 C3651 1.394 . S
C3650 H3658 0.930 . S
C3651 C3650 1.394 . S
C3651 C3652 1.383 . S
C3651 H3659 0.929 . S
C3652 C3651 1.383 . S
C3652 C3653 1.377 . S
C3653 H3637 0.930 . S
C3653 C3652 1.377 . S
C3653 C3654 1.379 . S
C3654 H3638 0.931 . S
C3654 C3648 1.383 . S
C3654 C3653 1.379 . S
H3655 C3649 0.959 . S
H3656 C3649 0.961 . S
H3657 C3649 0.960 . S
H3658 C3650 0.930 . S
H3659 C3651 0.929 . S
H3660 C3668 0.929 . S
H3661 C3670 0.930 . S
H3662 C3672 0.930 . S
H3663 C3675 0.929 . S
H3664 C3678 0.930 . S
H3665 C3680 0.960 . S
H3666 C3680 0.960 . S
H3667 C3680 0.960 . S
C3668 H3660 0.929 . S
C3668 C3669 1.377 . S
C3668 C3670 1.384 . S
C3669 C3668 1.377 . S
C3669 C3675 1.390 . S
C3670 H3661 0.930 . S
C3670 C3668 1.384 . S
C3670 C3671 1.372 . S
C3671 C3670 1.372 . S
C3671 C3672 1.400 . S
C3671 C3676 1.490 . S
C3672 H3662 0.930 . S
C3672 C3671 1.400 . S
C3672 C3675 1.386 . S
H3673 C3689 0.930 . S
H3674 C3690 0.931 . S
C3675 H3663 0.929 . S
C3675 C3669 1.390 . S
C3675 C3672 1.386 . S
C3676 C3671 1.490 . S
C3676 C3678 1.395 . S
C3676 C3679 1.403 . S
H3677 C3683 0.930 . S
C3678 H3664 0.930 . S
C3678 C3676 1.395 . S
C3678 C3681 1.403 . S
C3679 C3676 1.403 . S
C3679 C3680 1.524 . S
C3679 C3683 1.400 . S
C3680 H3665 0.960 . S
C3680 H3666 0.960 . S
C3680 H3667 0.960 . S
C3680 C3679 1.524 . S
C3681 C3678 1.403 . S
C3681 C3682 1.392 . S
C3681 C3685 1.495 . S
C3682 C3681 1.392 . S
C3682 C3683 1.385 . S
C3682 C3684 1.478 . S
C3683 H3677 0.930 . S
C3683 C3679 1.400 . S
C3683 C3682 1.385 . S
C3684 C3682 1.478 . S
C3684 C3686 1.381 . S
C3684 C3690 1.383 . S
C3685 C3681 1.495 . S
C3685 H3691 0.959 . S
C3685 H3692 0.961 . S
C3685 H3693 0.960 . S
C3686 C3684 1.381 . S
C3686 C3687 1.394 . S
C3686 H3694 0.930 . S
C3687 C3686 1.394 . S
C3687 C3688 1.383 . S
C3687 H3695 0.929 . S
C3688 C3687 1.383 . S
C3688 C3689 1.377 . S
C3689 H3673 0.930 . S
C3689 C3688 1.377 . S
C3689 C3690 1.379 . S
C3690 H3674 0.931 . S
C3690 C3684 1.383 . S
C3690 C3689 1.379 . S
H3691 C3685 0.959 . S
H3692 C3685 0.961 . S
H3693 C3685 0.960 . S
H3694 C3686 0.930 . S
H3695 C3687 0.929 . S
H3696 C3704 0.929 . S
H3697 C3706 0.930 . S
H3698 C3708 0.930 . S
H3699 C3711 0.929 . S
H3700 C3714 0.930 . S
H3701 C3716 0.960 . S
H3702 C3716 0.960 . S
H3703 C3716 0.960 . S
C3704 H3696 0.929 . S
C3704 C3705 1.377 . S
C3704 C3706 1.384 . S
C3705 C3704 1.377 . S
C3705 C3711 1.390 . S
C3706 H3697 0.930 . S
C3706 C3704 1.384 . S
C3706 C3707 1.372 . S
C3707 C3706 1.372 . S
C3707 C3708 1.400 . S
C3707 C3712 1.490 . S
C3708 H3698 0.930 . S
C3708 C3707 1.400 . S
C3708 C3711 1.386 . S
H3709 C3725 0.930 . S
H3710 C3726 0.931 . S
C3711 H3699 0.929 . S
C3711 C3705 1.390 . S
C3711 C3708 1.386 . S
C3712 C3707 1.490 . S
C3712 C3714 1.395 . S
C3712 C3715 1.403 . S
H3713 C3719 0.930 . S
C3714 H3700 0.930 . S
C3714 C3712 1.395 . S
C3714 C3717 1.403 . S
C3715 C3712 1.403 . S
C3715 C3716 1.524 . S
C3715 C3719 1.400 . S
C3716 H3701 0.960 . S
C3716 H3702 0.960 . S
C3716 H3703 0.960 . S
C3716 C3715 1.524 . S
C3717 C3714 1.403 . S
C3717 C3718 1.392 . S
C3717 C3721 1.495 . S
C3718 C3717 1.392 . S
C3718 C3719 1.385 . S
C3718 C3720 1.478 . S
C3719 H3713 0.930 . S
C3719 C3715 1.400 . S
C3719 C3718 1.385 . S
C3720 C3718 1.478 . S
C3720 C3722 1.381 . S
C3720 C3726 1.383 . S
C3721 C3717 1.495 . S
C3721 H3727 0.959 . S
C3721 H3728 0.961 . S
C3721 H3729 0.960 . S
C3722 C3720 1.381 . S
C3722 C3723 1.394 . S
C3722 H3730 0.930 . S
C3723 C3722 1.394 . S
C3723 C3724 1.383 . S
C3723 H3731 0.929 . S
C3724 C3723 1.383 . S
C3724 C3725 1.377 . S
C3725 H3709 0.930 . S
C3725 C3724 1.377 . S
C3725 C3726 1.379 . S
C3726 H3710 0.931 . S
C3726 C3720 1.383 . S
C3726 C3725 1.379 . S
H3727 C3721 0.959 . S
H3728 C3721 0.961 . S
H3729 C3721 0.960 . S
H3730 C3722 0.930 . S
H3731 C3723 0.929 . S
H3732 C3740 0.929 . S
H3733 C3742 0.930 . S
H3734 C3744 0.930 . S
H3735 C3747 0.929 . S
H3736 C3750 0.930 . S
H3737 C3752 0.960 . S
H3738 C3752 0.960 . S
H3739 C3752 0.960 . S
C3740 H3732 0.929 . S
C3740 C3741 1.377 . S
C3740 C3742 1.384 . S
C3741 C3740 1.377 . S
C3741 C3747 1.390 . S
C3742 H3733 0.930 . S
C3742 C3740 1.384 . S
C3742 C3743 1.372 . S
C3743 C3742 1.372 . S
C3743 C3744 1.400 . S
C3743 C3748 1.490 . S
C3744 H3734 0.930 . S
C3744 C3743 1.400 . S
C3744 C3747 1.386 . S
H3745 C3761 0.930 . S
H3746 C3762 0.931 . S
C3747 H3735 0.929 . S
C3747 C3741 1.390 . S
C3747 C3744 1.386 . S
C3748 C3743 1.490 . S
C3748 C3750 1.395 . S
C3748 C3751 1.403 . S
H3749 C3755 0.930 . S
C3750 H3736 0.930 . S
C3750 C3748 1.395 . S
C3750 C3753 1.403 . S
C3751 C3748 1.403 . S
C3751 C3752 1.524 . S
C3751 C3755 1.400 . S
C3752 H3737 0.960 . S
C3752 H3738 0.960 . S
C3752 H3739 0.960 . S
C3752 C3751 1.524 . S
C3753 C3750 1.403 . S
C3753 C3754 1.392 . S
C3753 C3757 1.495 . S
C3754 C3753 1.392 . S
C3754 C3755 1.385 . S
C3754 C3756 1.478 . S
C3755 H3749 0.930 . S
C3755 C3751 1.400 . S
C3755 C3754 1.385 . S
C3756 C3754 1.478 . S
C3756 C3758 1.381 . S
C3756 C3762 1.383 . S
C3757 C3753 1.495 . S
C3757 H3763 0.959 . S
C3757 H3764 0.961 . S
C3757 H3765 0.960 . S
C3758 C3756 1.381 . S
C3758 C3759 1.394 . S
C3758 H3766 0.930 . S
C3759 C3758 1.394 . S
C3759 C3760 1.383 . S
C3759 H3767 0.929 . S
C3760 C3759 1.383 . S
C3760 C3761 1.377 . S
C3761 H3745 0.930 . S
C3761 C3760 1.377 . S
C3761 C3762 1.379 . S
C3762 H3746 0.931 . S
C3762 C3756 1.383 . S
C3762 C3761 1.379 . S
H3763 C3757 0.959 . S
H3764 C3757 0.961 . S
H3765 C3757 0.960 . S
H3766 C3758 0.930 . S
H3767 C3759 0.929 . S
H3768 C3776 0.929 . S
H3769 C3778 0.930 . S
H3770 C3780 0.930 . S
H3771 C3783 0.929 . S
H3772 C3786 0.930 . S
H3773 C3788 0.960 . S
H3774 C3788 0.960 . S
H3775 C3788 0.960 . S
C3776 H3768 0.929 . S
C3776 C3777 1.377 . S
C3776 C3778 1.384 . S
C3777 C3776 1.377 . S
C3777 C3783 1.390 . S
C3778 H3769 0.930 . S
C3778 C3776 1.384 . S
C3778 C3779 1.372 . S
C3779 C3778 1.372 . S
C3779 C3780 1.400 . S
C3779 C3784 1.490 . S
C3780 H3770 0.930 . S
C3780 C3779 1.400 . S
C3780 C3783 1.386 . S
H3781 C3797 0.930 . S
H3782 C3798 0.931 . S
C3783 H3771 0.929 . S
C3783 C3777 1.390 . S
C3783 C3780 1.386 . S
C3784 C3779 1.490 . S
C3784 C3786 1.395 . S
C3784 C3787 1.403 . S
H3785 C3791 0.930 . S
C3786 H3772 0.930 . S
C3786 C3784 1.395 . S
C3786 C3789 1.403 . S
C3787 C3784 1.403 . S
C3787 C3788 1.524 . S
C3787 C3791 1.400 . S
C3788 H3773 0.960 . S
C3788 H3774 0.960 . S
C3788 H3775 0.960 . S
C3788 C3787 1.524 . S
C3789 C3786 1.403 . S
C3789 C3790 1.392 . S
C3789 C3793 1.495 . S
C3790 C3789 1.392 . S
C3790 C3791 1.385 . S
C3790 C3792 1.478 . S
C3791 H3785 0.930 . S
C3791 C3787 1.400 . S
C3791 C3790 1.385 . S
C3792 C3790 1.478 . S
C3792 C3794 1.381 . S
C3792 C3798 1.383 . S
C3793 C3789 1.495 . S
C3793 H3799 0.959 . S
C3793 H3800 0.961 . S
C3793 H3801 0.960 . S
C3794 C3792 1.381 . S
C3794 C3795 1.394 . S
C3794 H3802 0.930 . S
C3795 C3794 1.394 . S
C3795 C3796 1.383 . S
C3795 H3803 0.929 . S
C3796 C3795 1.383 . S
C3796 C3797 1.377 . S
C3797 H3781 0.930 . S
C3797 C3796 1.377 . S
C3797 C3798 1.379 . S
C3798 H3782 0.931 . S
C3798 C3792 1.383 . S
C3798 C3797 1.379 . S
H3799 C3793 0.959 . S
H3800 C3793 0.961 . S
H3801 C3793 0.960 . S
H3802 C3794 0.930 . S
H3803 C3795 0.929 . S
H3804 C3812 0.929 . S
H3805 C3814 0.930 . S
H3806 C3816 0.930 . S
H3807 C3819 0.929 . S
H3808 C3822 0.930 . S
H3809 C3824 0.960 . S
H3810 C3824 0.960 . S
H3811 C3824 0.960 . S
C3812 H3804 0.929 . S
C3812 C3813 1.377 . S
C3812 C3814 1.384 . S
C3813 C3812 1.377 . S
C3813 C3819 1.390 . S
C3814 H3805 0.930 . S
C3814 C3812 1.384 . S
C3814 C3815 1.372 . S
C3815 C3814 1.372 . S
C3815 C3816 1.400 . S
C3815 C3820 1.490 . S
C3816 H3806 0.930 . S
C3816 C3815 1.400 . S
C3816 C3819 1.386 . S
H3817 C3833 0.930 . S
H3818 C3834 0.931 . S
C3819 H3807 0.929 . S
C3819 C3813 1.390 . S
C3819 C3816 1.386 . S
C3820 C3815 1.490 . S
C3820 C3822 1.395 . S
C3820 C3823 1.403 . S
H3821 C3827 0.930 . S
C3822 H3808 0.930 . S
C3822 C3820 1.395 . S
C3822 C3825 1.403 . S
C3823 C3820 1.403 . S
C3823 C3824 1.524 . S
C3823 C3827 1.400 . S
C3824 H3809 0.960 . S
C3824 H3810 0.960 . S
C3824 H3811 0.960 . S
C3824 C3823 1.524 . S
C3825 C3822 1.403 . S
C3825 C3826 1.392 . S
C3825 C3829 1.495 . S
C3826 C3825 1.392 . S
C3826 C3827 1.385 . S
C3826 C3828 1.478 . S
C3827 H3821 0.930 . S
C3827 C3823 1.400 . S
C3827 C3826 1.385 . S
C3828 C3826 1.478 . S
C3828 C3830 1.381 . S
C3828 C3834 1.383 . S
C3829 C3825 1.495 . S
C3829 H3835 0.959 . S
C3829 H3836 0.961 . S
C3829 H3837 0.960 . S
C3830 C3828 1.381 . S
C3830 C3831 1.394 . S
C3830 H3838 0.930 . S
C3831 C3830 1.394 . S
C3831 C3832 1.383 . S
C3831 H3839 0.929 . S
C3832 C3831 1.383 . S
C3832 C3833 1.377 . S
C3833 H3817 0.930 . S
C3833 C3832 1.377 . S
C3833 C3834 1.379 . S
C3834 H3818 0.931 . S
C3834 C3828 1.383 . S
C3834 C3833 1.379 . S
H3835 C3829 0.959 . S
H3836 C3829 0.961 . S
H3837 C3829 0.960 . S
H3838 C3830 0.930 . S
H3839 C3831 0.929 . S
H3840 C3848 0.929 . S
H3841 C3850 0.930 . S
H3842 C3852 0.930 . S
H3843 C3855 0.929 . S
H3844 C3858 0.930 . S
H3845 C3860 0.960 . S
H3846 C3860 0.960 . S
H3847 C3860 0.960 . S
C3848 H3840 0.929 . S
C3848 C3849 1.377 . S
C3848 C3850 1.384 . S
C3849 C3848 1.377 . S
C3849 C3855 1.390 . S
C3850 H3841 0.930 . S
C3850 C3848 1.384 . S
C3850 C3851 1.372 . S
C3851 C3850 1.372 . S
C3851 C3852 1.400 . S
C3851 C3856 1.490 . S
C3852 H3842 0.930 . S
C3852 C3851 1.400 . S
C3852 C3855 1.386 . S
H3853 C3869 0.930 . S
H3854 C3870 0.931 . S
C3855 H3843 0.929 . S
C3855 C3849 1.390 . S
C3855 C3852 1.386 . S
C3856 C3851 1.490 . S
C3856 C3858 1.395 . S
C3856 C3859 1.403 . S
H3857 C3863 0.930 . S
C3858 H3844 0.930 . S
C3858 C3856 1.395 . S
C3858 C3861 1.403 . S
C3859 C3856 1.403 . S
C3859 C3860 1.524 . S
C3859 C3863 1.400 . S
C3860 H3845 0.960 . S
C3860 H3846 0.960 . S
C3860 H3847 0.960 . S
C3860 C3859 1.524 . S
C3861 C3858 1.403 . S
C3861 C3862 1.392 . S
C3861 C3865 1.495 . S
C3862 C3861 1.392 . S
C3862 C3863 1.385 . S
C3862 C3864 1.478 . S
C3863 H3857 0.930 . S
C3863 C3859 1.400 . S
C3863 C3862 1.385 . S
C3864 C3862 1.478 . S
C3864 C3866 1.381 . S
C3864 C3870 1.383 . S
C3865 C3861 1.495 . S
C3865 H3871 0.959 . S
C3865 H3872 0.961 . S
C3865 H3873 0.960 . S
C3866 C3864 1.381 . S
C3866 C3867 1.394 . S
C3866 H3874 0.930 . S
C3867 C3866 1.394 . S
C3867 C3868 1.383 . S
C3867 H3875 0.929 . S
C3868 C3867 1.383 . S
C3868 C3869 1.377 . S
C3869 H3853 0.930 . S
C3869 C3868 1.377 . S
C3869 C3870 1.379 . S
C3870 H3854 0.931 . S
C3870 C3864 1.383 . S
C3870 C3869 1.379 . S
H3871 C3865 0.959 . S
H3872 C3865 0.961 . S
H3873 C3865 0.960 . S
H3874 C3866 0.930 . S
H3875 C3867 0.929 . S
H3876 C3884 0.929 . S
H3877 C3886 0.930 . S
H3878 C3888 0.930 . S
H3879 C3891 0.929 . S
H3880 C3894 0.930 . S
H3881 C3896 0.960 . S
H3882 C3896 0.960 . S
H3883 C3896 0.960 . S
C3884 H3876 0.929 . S
C3884 C3885 1.377 . S
C3884 C3886 1.384 . S
C3885 C3884 1.377 . S
C3885 C3891 1.390 . S
C3886 H3877 0.930 . S
C3886 C3884 1.384 . S
C3886 C3887 1.372 . S
C3887 C3886 1.372 . S
C3887 C3888 1.400 . S
C3887 C3892 1.490 . S
C3888 H3878 0.930 . S
C3888 C3887 1.400 . S
C3888 C3891 1.386 . S
H3889 C3905 0.930 . S
H3890 C3906 0.931 . S
C3891 H3879 0.929 . S
C3891 C3885 1.390 . S
C3891 C3888 1.386 . S
C3892 C3887 1.490 . S
C3892 C3894 1.395 . S
C3892 C3895 1.403 . S
H3893 C3899 0.930 . S
C3894 H3880 0.930 . S
C3894 C3892 1.395 . S
C3894 C3897 1.403 . S
C3895 C3892 1.403 . S
C3895 C3896 1.524 . S
C3895 C3899 1.400 . S
C3896 H3881 0.960 . S
C3896 H3882 0.960 . S
C3896 H3883 0.960 . S
C3896 C3895 1.524 . S
C3897 C3894 1.403 . S
C3897 C3898 1.392 . S
C3897 C3901 1.495 . S
C3898 C3897 1.392 . S
C3898 C3899 1.385 . S
C3898 C3900 1.478 . S
C3899 H3893 0.930 . S
C3899 C3895 1.400 . S
C3899 C3898 1.385 . S
C3900 C3898 1.478 . S
C3900 C3902 1.381 . S
C3900 C3906 1.383 . S
C3901 C3897 1.495 . S
C3901 H3907 0.959 . S
C3901 H3908 0.961 . S
C3901 H3909 0.960 . S
C3902 C3900 1.381 . S
C3902 C3903 1.394 . S
C3902 H3910 0.930 . S
C3903 C3902 1.394 . S
C3903 C3904 1.383 . S
C3903 H3911 0.929 . S
C3904 C3903 1.383 . S
C3904 C3905 1.377 . S
C3905 H3889 0.930 . S
C3905 C3904 1.377 . S
C3905 C3906 1.379 . S
C3906 H3890 0.931 . S
C3906 C3900 1.383 . S
C3906 C3905 1.379 . S
H3907 C3901 0.959 . S
H3908 C3901 0.961 . S
H3909 C3901 0.960 . S
H3910 C3902 0.930 . S
H3911 C3903 0.929 . S
H3912 C3920 0.929 . S
H3913 C3922 0.930 . S
H3914 C3924 0.930 . S
H3915 C3927 0.929 . S
H3916 C3930 0.930 . S
H3917 C3932 0.960 . S
H3918 C3932 0.960 . S
H3919 C3932 0.960 . S
C3920 H3912 0.929 . S
C3920 C3921 1.377 . S
C3920 C3922 1.384 . S
C3921 C3920 1.377 . S
C3921 C3927 1.390 . S
C3922 H3913 0.930 . S
C3922 C3920 1.384 . S
C3922 C3923 1.372 . S
C3923 C3922 1.372 . S
C3923 C3924 1.400 . S
C3923 C3928 1.490 . S
C3924 H3914 0.930 . S
C3924 C3923 1.400 . S
C3924 C3927 1.386 . S
H3925 C3941 0.930 . S
H3926 C3942 0.931 . S
C3927 H3915 0.929 . S
C3927 C3921 1.390 . S
C3927 C3924 1.386 . S
C3928 C3923 1.490 . S
C3928 C3930 1.395 . S
C3928 C3931 1.403 . S
H3929 C3935 0.930 . S
C3930 H3916 0.930 . S
C3930 C3928 1.395 . S
C3930 C3933 1.403 . S
C3931 C3928 1.403 . S
C3931 C3932 1.524 . S
C3931 C3935 1.400 . S
C3932 H3917 0.960 . S
C3932 H3918 0.960 . S
C3932 H3919 0.960 . S
C3932 C3931 1.524 . S
C3933 C3930 1.403 . S
C3933 C3934 1.392 . S
C3933 C3937 1.495 . S
C3934 C3933 1.392 . S
C3934 C3935 1.385 . S
C3934 C3936 1.478 . S
C3935 H3929 0.930 . S
C3935 C3931 1.400 . S
C3935 C3934 1.385 . S
C3936 C3934 1.478 . S
C3936 C3938 1.381 . S
C3936 C3942 1.383 . S
C3937 C3933 1.495 . S
C3937 H3943 0.959 . S
C3937 H3944 0.961 . S
C3937 H3945 0.960 . S
C3938 C3936 1.381 . S
C3938 C3939 1.394 . S
C3938 H3946 0.930 . S
C3939 C3938 1.394 . S
C3939 C3940 1.383 . S
C3939 H3947 0.929 . S
C3940 C3939 1.383 . S
C3940 C3941 1.377 . S
C3941 H3925 0.930 . S
C3941 C3940 1.377 . S
C3941 C3942 1.379 . S
C3942 H3926 0.931 . S
C3942 C3936 1.383 . S
C3942 C3941 1.379 . S
H3943 C3937 0.959 . S
H3944 C3937 0.961 . S
H3945 C3937 0.960 . S
H3946 C3938 0.930 . S
H3947 C3939 0.929 . S
H3948 C3956 0.929 . S
H3949 C3958 0.930 . S
H3950 C3960 0.930 . S
H3951 C3963 0.929 . S
H3952 C3966 0.930 . S
H3953 C3968 0.960 . S
H3954 C3968 0.960 . S
H3955 C3968 0.960 . S
C3956 H3948 0.929 . S
C3956 C3957 1.377 . S
C3956 C3958 1.384 . S
C3957 C3956 1.377 . S
C3957 C3963 1.390 . S
C3958 H3949 0.930 . S
C3958 C3956 1.384 . S
C3958 C3959 1.372 . S
C3959 C3958 1.372 . S
C3959 C3960 1.400 . S
C3959 C3964 1.490 . S
C3960 H3950 0.930 . S
C3960 C3959 1.400 . S
C3960 C3963 1.386 . S
H3961 C3977 0.930 . S
H3962 C3978 0.931 . S
C3963 H3951 0.929 . S
C3963 C3957 1.390 . S
C3963 C3960 1.386 . S
C3964 C3959 1.490 . S
C3964 C3966 1.395 . S
C3964 C3967 1.403 . S
H3965 C3971 0.930 . S
C3966 H3952 0.930 . S
C3966 C3964 1.395 . S
C3966 C3969 1.403 . S
C3967 C3964 1.403 . S
C3967 C3968 1.524 . S
C3967 C3971 1.400 . S
C3968 H3953 0.960 . S
C3968 H3954 0.960 . S
C3968 H3955 0.960 . S
C3968 C3967 1.524 . S
C3969 C3966 1.403 . S
C3969 C3970 1.392 . S
C3969 C3973 1.495 . S
C3970 C3969 1.392 . S
C3970 C3971 1.385 . S
C3970 C3972 1.478 . S
C3971 H3965 0.930 . S
C3971 C3967 1.400 . S
C3971 C3970 1.385 . S
C3972 C3970 1.478 . S
C3972 C3974 1.381 . S
C3972 C3978 1.383 . S
C3973 C3969 1.495 . S
C3973 H3979 0.959 . S
C3973 H3980 0.961 . S
C3973 H3981 0.960 . S
C3974 C3972 1.381 . S
C3974 C3975 1.394 . S
C3974 H3982 0.930 . S
C3975 C3974 1.394 . S
C3975 C3976 1.383 . S
C3975 H3983 0.929 . S
C3976 C3975 1.383 . S
C3976 C3977 1.377 . S
C3977 H3961 0.930 . S
C3977 C3976 1.377 . S
C3977 C3978 1.379 . S
C3978 H3962 0.931 . S
C3978 C3972 1.383 . S
C3978 C3977 1.379 . S
H3979 C3973 0.959 . S
H3980 C3973 0.961 . S
H3981 C3973 0.960 . S
H3982 C3974 0.930 . S
H3983 C3975 0.929 . S
H3984 C3992 0.929 . S
H3985 C3994 0.930 . S
H3986 C3996 0.930 . S
H3987 C3999 0.929 . S
H3988 C4002 0.930 . S
H3989 C4004 0.960 . S
H3990 C4004 0.960 . S
H3991 C4004 0.960 . S
C3992 H3984 0.929 . S
C3992 C3993 1.377 . S
C3992 C3994 1.384 . S
C3993 C3992 1.377 . S
C3993 C3999 1.390 . S
C3994 H3985 0.930 . S
C3994 C3992 1.384 . S
C3994 C3995 1.372 . S
C3995 C3994 1.372 . S
C3995 C3996 1.400 . S
C3995 C4000 1.490 . S
C3996 H3986 0.930 . S
C3996 C3995 1.400 . S
C3996 C3999 1.386 . S
H3997 C4013 0.930 . S
H3998 C4014 0.931 . S
C3999 H3987 0.929 . S
C3999 C3993 1.390 . S
C3999 C3996 1.386 . S
C4000 C3995 1.490 . S
C4000 C4002 1.395 . S
C4000 C4003 1.403 . S
H4001 C4007 0.930 . S
C4002 H3988 0.930 . S
C4002 C4000 1.395 . S
C4002 C4005 1.403 . S
C4003 C4000 1.403 . S
C4003 C4004 1.524 . S
C4003 C4007 1.400 . S
C4004 H3989 0.960 . S
C4004 H3990 0.960 . S
C4004 H3991 0.960 . S
C4004 C4003 1.524 . S
C4005 C4002 1.403 . S
C4005 C4006 1.392 . S
C4005 C4009 1.495 . S
C4006 C4005 1.392 . S
C4006 C4007 1.385 . S
C4006 C4008 1.478 . S
C4007 H4001 0.930 . S
C4007 C4003 1.400 . S
C4007 C4006 1.385 . S
C4008 C4006 1.478 . S
C4008 C4010 1.381 . S
C4008 C4014 1.383 . S
C4009 C4005 1.495 . S
C4009 H4015 0.959 . S
C4009 H4016 0.961 . S
C4009 H4017 0.960 . S
C4010 C4008 1.381 . S
C4010 C4011 1.394 . S
C4010 H4018 0.930 . S
C4011 C4010 1.394 . S
C4011 C4012 1.383 . S
C4011 H4019 0.929 . S
C4012 C4011 1.383 . S
C4012 C4013 1.377 . S
C4013 H3997 0.930 . S
C4013 C4012 1.377 . S
C4013 C4014 1.379 . S
C4014 H3998 0.931 . S
C4014 C4008 1.383 . S
C4014 C4013 1.379 . S
H4015 C4009 0.959 . S
H4016 C4009 0.961 . S
H4017 C4009 0.960 . S
H4018 C4010 0.930 . S
H4019 C4011 0.929 . S
H4020 C4028 0.929 . S
H4021 C4030 0.930 . S
H4022 C4032 0.930 . S
H4023 C4035 0.929 . S
H4024 C4038 0.930 . S
H4025 C4040 0.960 . S
H4026 C4040 0.960 . S
H4027 C4040 0.960 . S
C4028 H4020 0.929 . S
C4028 C4029 1.377 . S
C4028 C4030 1.384 . S
C4029 C4028 1.377 . S
C4029 C4035 1.390 . S
C4030 H4021 0.930 . S
C4030 C4028 1.384 . S
C4030 C4031 1.372 . S
C4031 C4030 1.372 . S
C4031 C4032 1.400 . S
C4031 C4036 1.490 . S
C4032 H4022 0.930 . S
C4032 C4031 1.400 . S
C4032 C4035 1.386 . S
H4033 C4049 0.930 . S
H4034 C4050 0.931 . S
C4035 H4023 0.929 . S
C4035 C4029 1.390 . S
C4035 C4032 1.386 . S
C4036 C4031 1.490 . S
C4036 C4038 1.395 . S
C4036 C4039 1.403 . S
H4037 C4043 0.930 . S
C4038 H4024 0.930 . S
C4038 C4036 1.395 . S
C4038 C4041 1.403 . S
C4039 C4036 1.403 . S
C4039 C4040 1.524 . S
C4039 C4043 1.400 . S
C4040 H4025 0.960 . S
C4040 H4026 0.960 . S
C4040 H4027 0.960 . S
C4040 C4039 1.524 . S
C4041 C4038 1.403 . S
C4041 C4042 1.392 . S
C4041 C4045 1.495 . S
C4042 C4041 1.392 . S
C4042 C4043 1.385 . S
C4042 C4044 1.478 . S
C4043 H4037 0.930 . S
C4043 C4039 1.400 . S
C4043 C4042 1.385 . S
C4044 C4042 1.478 . S
C4044 C4046 1.381 . S
C4044 C4050 1.383 . S
C4045 C4041 1.495 . S
C4045 H4051 0.959 . S
C4045 H4052 0.961 . S
C4045 H4053 0.960 . S
C4046 C4044 1.381 . S
C4046 C4047 1.394 . S
C4046 H4054 0.930 . S
C4047 C4046 1.394 . S
C4047 C4048 1.383 . S
C4047 H4055 0.929 . S
C4048 C4047 1.383 . S
C4048 C4049 1.377 . S
C4049 H4033 0.930 . S
C4049 C4048 1.377 . S
C4049 C4050 1.379 . S
C4050 H4034 0.931 . S
C4050 C4044 1.383 . S
C4050 C4049 1.379 . S
H4051 C4045 0.959 . S
H4052 C4045 0.961 . S
H4053 C4045 0.960 . S
H4054 C4046 0.930 . S
H4055 C4047 0.929 . S
H4056 C4064 0.929 . S
H4057 C4066 0.930 . S
H4058 C4068 0.930 . S
H4059 C4071 0.929 . S
H4060 C4074 0.930 . S
H4061 C4076 0.960 . S
H4062 C4076 0.960 . S
H4063 C4076 0.960 . S
C4064 H4056 0.929 . S
C4064 C4065 1.377 . S
C4064 C4066 1.384 . S
C4065 C4064 1.377 . S
C4065 C4071 1.390 . S
C4066 H4057 0.930 . S
C4066 C4064 1.384 . S
C4066 C4067 1.372 . S
C4067 C4066 1.372 . S
C4067 C4068 1.400 . S
C4067 C4072 1.490 . S
C4068 H4058 0.930 . S
C4068 C4067 1.400 . S
C4068 C4071 1.386 . S
H4069 C4085 0.930 . S
H4070 C4086 0.931 . S
C4071 H4059 0.929 . S
C4071 C4065 1.390 . S
C4071 C4068 1.386 . S
C4072 C4067 1.490 . S
C4072 C4074 1.395 . S
C4072 C4075 1.403 . S
H4073 C4079 0.930 . S
C4074 H4060 0.930 . S
C4074 C4072 1.395 . S
C4074 C4077 1.403 . S
C4075 C4072 1.403 . S
C4075 C4076 1.524 . S
C4075 C4079 1.400 . S
C4076 H4061 0.960 . S
C4076 H4062 0.960 . S
C4076 H4063 0.960 . S
C4076 C4075 1.524 . S
C4077 C4074 1.403 . S
C4077 C4078 1.392 . S
C4077 C4081 1.495 . S
C4078 C4077 1.392 . S
C4078 C4079 1.385 . S
C4078 C4080 1.478 . S
C4079 H4073 0.930 . S
C4079 C4075 1.400 . S
C4079 C4078 1.385 . S
C4080 C4078 1.478 . S
C4080 C4082 1.381 . S
C4080 C4086 1.383 . S
C4081 C4077 1.495 . S
C4081 H4087 0.959 . S
C4081 H4088 0.961 . S
C4081 H4089 0.960 . S
C4082 C4080 1.381 . S
C4082 C4083 1.394 . S
C4082 H4090 0.930 . S
C4083 C4082 1.394 . S
C4083 C4084 1.383 . S
C4083 H4091 0.929 . S
C4084 C4083 1.383 . S
C4084 C4085 1.377 . S
C4085 H4069 0.930 . S
C4085 C4084 1.377 . S
C4085 C4086 1.379 . S
C4086 H4070 0.931 . S
C4086 C4080 1.383 . S
C4086 C4085 1.379 . S
H4087 C4081 0.959 . S
H4088 C4081 0.961 . S
H4089 C4081 0.960 . S
H4090 C4082 0.930 . S
H4091 C4083 0.929 . S
H4092 C4100 0.929 . S
H4093 C4102 0.930 . S
H4094 C4104 0.930 . S
H4095 C4107 0.929 . S
H4096 C4110 0.930 . S
H4097 C4112 0.960 . S
H4098 C4112 0.960 . S
H4099 C4112 0.960 . S
C4100 H4092 0.929 . S
C4100 C4101 1.377 . S
C4100 C4102 1.384 . S
C4101 C4100 1.377 . S
C4101 C4107 1.390 . S
C4102 H4093 0.930 . S
C4102 C4100 1.384 . S
C4102 C4103 1.372 . S
C4103 C4102 1.372 . S
C4103 C4104 1.400 . S
C4103 C4108 1.490 . S
C4104 H4094 0.930 . S
C4104 C4103 1.400 . S
C4104 C4107 1.386 . S
H4105 C4121 0.930 . S
H4106 C4122 0.931 . S
C4107 H4095 0.929 . S
C4107 C4101 1.390 . S
C4107 C4104 1.386 . S
C4108 C4103 1.490 . S
C4108 C4110 1.395 . S
C4108 C4111 1.403 . S
H4109 C4115 0.930 . S
C4110 H4096 0.930 . S
C4110 C4108 1.395 . S
C4110 C4113 1.403 . S
C4111 C4108 1.403 . S
C4111 C4112 1.524 . S
C4111 C4115 1.400 . S
C4112 H4097 0.960 . S
C4112 H4098 0.960 . S
C4112 H4099 0.960 . S
C4112 C4111 1.524 . S
C4113 C4110 1.403 . S
C4113 C4114 1.392 . S
C4113 C4117 1.495 . S
C4114 C4113 1.392 . S
C4114 C4115 1.385 . S
C4114 C4116 1.478 . S
C4115 H4109 0.930 . S
C4115 C4111 1.400 . S
C4115 C4114 1.385 . S
C4116 C4114 1.478 . S
C4116 C4118 1.381 . S
C4116 C4122 1.383 . S
C4117 C4113 1.495 . S
C4117 H4123 0.959 . S
C4117 H4124 0.961 . S
C4117 H4125 0.960 . S
C4118 C4116 1.381 . S
C4118 C4119 1.394 . S
C4118 H4126 0.930 . S
C4119 C4118 1.394 . S
C4119 C4120 1.383 . S
C4119 H4127 0.929 . S
C4120 C4119 1.383 . S
C4120 C4121 1.377 . S
C4121 H4105 0.930 . S
C4121 C4120 1.377 . S
C4121 C4122 1.379 . S
C4122 H4106 0.931 . S
C4122 C4116 1.383 . S
C4122 C4121 1.379 . S
H4123 C4117 0.959 . S
H4124 C4117 0.961 . S
H4125 C4117 0.960 . S
H4126 C4118 0.930 . S
H4127 C4119 0.929 . S
C681 C7 1.603 . S
C700 C88 1.567 . S
C717 C109 1.605 . S
C736 C28 1.575 . S
C753 C130 1.605 . S
C772 C46 1.620 . S
C789 C70 1.615 . S
C808 C151 1.641 . S
C825 C172 1.613 . S
C844 C256 1.635 . S
C861 C196 1.601 . S
C880 C277 1.573 . S
C897 C217 1.613 . S
C916 C298 1.575 . S
C933 C319 1.611 . S
C952 C238 1.638 . S
C969 C343 1.599 . S
C988 C427 1.566 . S
C1005 C445 1.609 . S
C1024 C364 1.633 . S
C1041 C382 1.609 . S
C1060 C466 1.591 . S
C1077 C490 1.608 . S
C1096 C406 1.630 . S
C1113 C508 1.614 . S
C1132 C595 1.626 . S
C1149 C532 1.611 . S
C1168 C616 1.569 . S
C1185 C550 1.600 . S
C1204 C634 1.579 . S
C1221 C571 1.607 . S
C1240 C655 1.563 . S
C1257 C524 1.277 . S
C1276 C19 1.246 . S
C1293 C208 1.286 . S
C1312 C40 1.277 . S
C1329 C62 1.275 . S
C1348 C566 1.284 . S
C1365 C82 1.286 . S
C1384 C250 1.299 . S
C1401 C104 1.274 . S
C1420 C607 1.258 . S
C1437 C125 1.276 . S
C1456 C293 1.246 . S
C1473 C650 1.274 . S
C1492 C146 1.256 . S
C1509 C335 1.280 . S
C1528 C167 1.249 . S
C1545 C355 1.276 . S
C1564 C188 1.247 . S
C1581 C229 1.276 . S
C1600 C398 1.291 . S
C1617 C272 1.274 . S
C1636 C439 1.264 . S
C1653 C482 1.284 . S
C1672 C314 1.264 . S
C1689 C376 1.286 . S
C1708 C544 1.304 . S
C1725 C587 1.286 . S
C1744 C418 1.287 . S
C1761 C628 1.286 . S
C1780 C461 1.283 . S
C1797 C502 1.286 . S
C1816 C671 1.298 . S
C1833 C20 0.807 . S
C1852 C583 0.861 . S
C1869 C41 0.808 . S
C1888 C184 0.835 . S
C1905 C61 0.839 . S
C1924 C528 0.832 . S
C1941 C213 0.808 . S
C1960 C83 0.780 . S
C1977 C612 0.818 . S
C1996 C103 0.893 . S
C2013 C124 0.817 . S
C2032 C310 0.769 . S
C2049 C667 0.815 . S
C2068 C145 0.900 . S
C2085 C268 0.829 . S
C2104 C166 0.852 . S
C2121 C402 0.816 . S
C2140 C187 0.749 . S
C2157 C209 0.843 . S
C2176 C3 0.777 . S
C2193 C360 0.830 . S
C2212 C230 0.847 . S
C2229 C58 0.799 . S
C2248 C251 0.890 . S
C2265 C457 0.830 . S
C2284 C271 0.849 . S
C2301 C292 0.824 . S
C2320 C142 0.739 . S
C2337 C313 0.843 . S
C2356 C486 0.763 . S
C2373 C100 0.834 . S
C2392 C334 0.775 . S
C2409 C356 0.807 . S
C2428 C234 0.853 . S
C2445 C377 0.810 . S
C2464 C520 0.817 . S
C2481 C192 0.799 . S
C2500 C397 0.896 . S
C2517 C419 0.834 . S
C2536 C562 0.861 . S
C2553 C289 0.798 . S
C2572 C440 0.883 . S
C2589 C460 0.810 . S
C2608 C646 0.810 . S
C2625 C331 0.826 . S
C2644 C481 0.868 . S
C2661 C503 0.811 . S
C2680 C591 0.802 . S
C2697 C66 0.834 . S
C2716 C523 0.763 . S
C2733 C545 0.812 . S
C2752 C339 0.792 . S
C2769 C565 0.809 . S
C2788 C24 0.818 . S
C2805 C394 0.834 . S
C2824 C586 0.802 . S
C2841 C121 0.804 . S
C2860 C608 0.793 . S
C2877 C478 0.831 . S
C2896 C629 0.747 . S
C2913 C649 0.807 . S
C2932 C163 0.843 . S
C2949 C423 0.800 . S
C2968 C670 0.894 . S
C2985 C4 0.684 . S
C3004 C385 0.602 . S
C3021 C25 0.709 . S
C3040 C403 0.755 . S
C3057 C49 0.671 . S
C3076 C340 0.693 . S
C3093 C67 0.708 . S
C3112 C361 0.627 . S
C3129 C469 0.712 . S
C3148 C91 0.723 . S
C3165 C487 0.711 . S
C3184 C112 0.742 . S
C3201 C133 0.673 . S
C3220 C424 0.740 . S
C3237 C448 0.677 . S
C3256 C154 0.764 . S
C3273 C553 0.702 . S
C3292 C175 0.712 . S
C3309 C574 0.693 . S
C3328 C193 0.639 . S
C3345 C511 0.671 . S
C3364 C214 0.783 . S
C3381 C235 0.674 . S
C3400 C529 0.738 . S
C3417 C259 0.680 . S
C3436 C637 0.701 . S
C3453 C658 0.700 . S
C3472 C280 0.611 . S
C3489 C592 0.705 . S
C3508 C301 0.694 . S
C3525 C322 0.690 . S
C3544 C613 0.649 . S
C3561 C150 0.778 . S
C3580 C16 0.712 . S
C3597 C37 0.787 . S
C3616 C87 0.844 . S
C3633 C45 0.790 . S
C3652 C108 0.820 . S
C3669 C129 0.782 . S
C3688 C79 0.851 . S
C3705 C318 0.783 . S
C3724 C171 0.723 . S
C3741 C205 0.779 . S
C3760 C255 0.768 . S
C3777 C276 0.783 . S
C3796 C226 0.722 . S
C3813 C297 0.765 . S
C3832 C247 0.828 . S
C3849 C499 0.786 . S
C3868 C352 0.751 . S
C3885 C436 0.764 . S
C3904 C373 0.811 . S
C3921 C444 0.789 . S
C3940 C381 0.833 . S
C3957 C415 0.759 . S
C3976 C465 0.766 . S
C3993 C654 0.790 . S
C4012 C507 0.695 . S
C4029 C604 0.789 . S
C4048 C541 0.697 . S
C4065 C625 0.776 . S
C4084 C549 0.755 . S
C4101 C570 0.785 . S
C4120 C633 0.713 . S
