# Generated by pormake.
# Topology umu, (4)-cn, num edge types: 1
# Building blocks:
#     Node 0, Type 0, BuildingBlock: QUQFOY_clean_sbu_1, # of connection points: 4
#     Node 1, Type 0, BuildingBlock: QUQFOY_clean_sbu_1, # of connection points: 4
#     Node 2, Type 0, BuildingBlock: QUQFOY_clean_sbu_1, # of connection points: 4
#     Node 3, Type 0, BuildingBlock: QUQFOY_clean_sbu_1, # of connection points: 4
#     Node 4, Type 0, BuildingBlock: QUQFOY_clean_sbu_1, # of connection points: 4
#     Node 5, Type 0, BuildingBlock: QUQFOY_clean_sbu_1, # of connection points: 4
#     Node 6, Type 0, BuildingBlock: QUQFOY_clean_sbu_1, # of connection points: 4
#     Node 7, Type 0, BuildingBlock: QUQFOY_clean_sbu_1, # of connection points: 4
#     Node 8, Type 0, BuildingBlock: QUQFOY_clean_sbu_1, # of connection points: 4
#     Node 9, Type 0, BuildingBlock: QUQFOY_clean_sbu_1, # of connection points: 4
#     Node 10, Type 0, BuildingBlock: QUQFOY_clean_sbu_1, # of connection points: 4
#     Node 11, Type 0, BuildingBlock: QUQFOY_clean_sbu_1, # of connection points: 4
#     Node 12, Type 0, BuildingBlock: QUQFOY_clean_sbu_1, # of connection points: 4
#     Node 13, Type 0, BuildingBlock: QUQFOY_clean_sbu_1, # of connection points: 4
#     Node 14, Type 0, BuildingBlock: QUQFOY_clean_sbu_1, # of connection points: 4
#     Node 15, Type 0, BuildingBlock: QUQFOY_clean_sbu_1, # of connection points: 4
#     Node 16, Type 0, BuildingBlock: QUQFOY_clean_sbu_1, # of connection points: 4
#     Node 17, Type 0, BuildingBlock: QUQFOY_clean_sbu_1, # of connection points: 4
#     Node 18, Type 0, BuildingBlock: QUQFOY_clean_sbu_1, # of connection points: 4
#     Node 19, Type 0, BuildingBlock: QUQFOY_clean_sbu_1, # of connection points: 4
#     Node 20, Type 0, BuildingBlock: QUQFOY_clean_sbu_1, # of connection points: 4
#     Node 21, Type 0, BuildingBlock: QUQFOY_clean_sbu_1, # of connection points: 4
#     Node 22, Type 0, BuildingBlock: QUQFOY_clean_sbu_1, # of connection points: 4
#     Node 23, Type 0, BuildingBlock: QUQFOY_clean_sbu_1, # of connection points: 4
#     Node 24, Type 0, BuildingBlock: QUQFOY_clean_sbu_1, # of connection points: 4
#     Node 25, Type 0, BuildingBlock: QUQFOY_clean_sbu_1, # of connection points: 4
#     Node 26, Type 0, BuildingBlock: QUQFOY_clean_sbu_1, # of connection points: 4
#     Node 27, Type 0, BuildingBlock: QUQFOY_clean_sbu_1, # of connection points: 4
#     Node 28, Type 0, BuildingBlock: QUQFOY_clean_sbu_1, # of connection points: 4
#     Node 29, Type 0, BuildingBlock: QUQFOY_clean_sbu_1, # of connection points: 4
#     Node 30, Type 0, BuildingBlock: QUQFOY_clean_sbu_1, # of connection points: 4
#     Node 31, Type 0, BuildingBlock: QUQFOY_clean_sbu_1, # of connection points: 4
#     Edge 32, Type (0, 0), BuildingBlock: XUDNAN_clean_linker_2, # of connection points: 2
#     Edge 33, Type (0, 0), BuildingBlock: XUDNAN_clean_linker_2, # of connection points: 2
#     Edge 34, Type (0, 0), BuildingBlock: XUDNAN_clean_linker_2, # of connection points: 2
#     Edge 35, Type (0, 0), BuildingBlock: XUDNAN_clean_linker_2, # of connection points: 2
#     Edge 36, Type (0, 0), BuildingBlock: XUDNAN_clean_linker_2, # of connection points: 2
#     Edge 37, Type (0, 0), BuildingBlock: XUDNAN_clean_linker_2, # of connection points: 2
#     Edge 38, Type (0, 0), BuildingBlock: XUDNAN_clean_linker_2, # of connection points: 2
#     Edge 39, Type (0, 0), BuildingBlock: XUDNAN_clean_linker_2, # of connection points: 2
#     Edge 40, Type (0, 0), BuildingBlock: XUDNAN_clean_linker_2, # of connection points: 2
#     Edge 41, Type (0, 0), BuildingBlock: XUDNAN_clean_linker_2, # of connection points: 2
#     Edge 42, Type (0, 0), BuildingBlock: XUDNAN_clean_linker_2, # of connection points: 2
#     Edge 43, Type (0, 0), BuildingBlock: XUDNAN_clean_linker_2, # of connection points: 2
#     Edge 44, Type (0, 0), BuildingBlock: XUDNAN_clean_linker_2, # of connection points: 2
#     Edge 45, Type (0, 0), BuildingBlock: XUDNAN_clean_linker_2, # of connection points: 2
#     Edge 46, Type (0, 0), BuildingBlock: XUDNAN_clean_linker_2, # of connection points: 2
#     Edge 47, Type (0, 0), BuildingBlock: XUDNAN_clean_linker_2, # of connection points: 2
#     Edge 48, Type (0, 0), BuildingBlock: XUDNAN_clean_linker_2, # of connection points: 2
#     Edge 49, Type (0, 0), BuildingBlock: XUDNAN_clean_linker_2, # of connection points: 2
#     Edge 50, Type (0, 0), BuildingBlock: XUDNAN_clean_linker_2, # of connection points: 2
#     Edge 51, Type (0, 0), BuildingBlock: XUDNAN_clean_linker_2, # of connection points: 2
#     Edge 52, Type (0, 0), BuildingBlock: XUDNAN_clean_linker_2, # of connection points: 2
#     Edge 53, Type (0, 0), BuildingBlock: XUDNAN_clean_linker_2, # of connection points: 2
#     Edge 54, Type (0, 0), BuildingBlock: XUDNAN_clean_linker_2, # of connection points: 2
#     Edge 55, Type (0, 0), BuildingBlock: XUDNAN_clean_linker_2, # of connection points: 2
#     Edge 56, Type (0, 0), BuildingBlock: XUDNAN_clean_linker_2, # of connection points: 2
#     Edge 57, Type (0, 0), BuildingBlock: XUDNAN_clean_linker_2, # of connection points: 2
#     Edge 58, Type (0, 0), BuildingBlock: XUDNAN_clean_linker_2, # of connection points: 2
#     Edge 59, Type (0, 0), BuildingBlock: XUDNAN_clean_linker_2, # of connection points: 2
#     Edge 60, Type (0, 0), BuildingBlock: XUDNAN_clean_linker_2, # of connection points: 2
#     Edge 61, Type (0, 0), BuildingBlock: XUDNAN_clean_linker_2, # of connection points: 2
#     Edge 62, Type (0, 0), BuildingBlock: XUDNAN_clean_linker_2, # of connection points: 2
#     Edge 63, Type (0, 0), BuildingBlock: XUDNAN_clean_linker_2, # of connection points: 2
#     Edge 64, Type (0, 0), BuildingBlock: XUDNAN_clean_linker_2, # of connection points: 2
#     Edge 65, Type (0, 0), BuildingBlock: XUDNAN_clean_linker_2, # of connection points: 2
#     Edge 66, Type (0, 0), BuildingBlock: XUDNAN_clean_linker_2, # of connection points: 2
#     Edge 67, Type (0, 0), BuildingBlock: XUDNAN_clean_linker_2, # of connection points: 2
#     Edge 68, Type (0, 0), BuildingBlock: XUDNAN_clean_linker_2, # of connection points: 2
#     Edge 69, Type (0, 0), BuildingBlock: XUDNAN_clean_linker_2, # of connection points: 2
#     Edge 70, Type (0, 0), BuildingBlock: XUDNAN_clean_linker_2, # of connection points: 2
#     Edge 71, Type (0, 0), BuildingBlock: XUDNAN_clean_linker_2, # of connection points: 2
#     Edge 72, Type (0, 0), BuildingBlock: XUDNAN_clean_linker_2, # of connection points: 2
#     Edge 73, Type (0, 0), BuildingBlock: XUDNAN_clean_linker_2, # of connection points: 2
#     Edge 74, Type (0, 0), BuildingBlock: XUDNAN_clean_linker_2, # of connection points: 2
#     Edge 75, Type (0, 0), BuildingBlock: XUDNAN_clean_linker_2, # of connection points: 2
#     Edge 76, Type (0, 0), BuildingBlock: XUDNAN_clean_linker_2, # of connection points: 2
#     Edge 77, Type (0, 0), BuildingBlock: XUDNAN_clean_linker_2, # of connection points: 2
#     Edge 78, Type (0, 0), BuildingBlock: XUDNAN_clean_linker_2, # of connection points: 2
#     Edge 79, Type (0, 0), BuildingBlock: XUDNAN_clean_linker_2, # of connection points: 2
#     Edge 80, Type (0, 0), BuildingBlock: XUDNAN_clean_linker_2, # of connection points: 2
#     Edge 81, Type (0, 0), BuildingBlock: XUDNAN_clean_linker_2, # of connection points: 2
#     Edge 82, Type (0, 0), BuildingBlock: XUDNAN_clean_linker_2, # of connection points: 2
#     Edge 83, Type (0, 0), BuildingBlock: XUDNAN_clean_linker_2, # of connection points: 2
#     Edge 84, Type (0, 0), BuildingBlock: XUDNAN_clean_linker_2, # of connection points: 2
#     Edge 85, Type (0, 0), BuildingBlock: XUDNAN_clean_linker_2, # of connection points: 2
#     Edge 86, Type (0, 0), BuildingBlock: XUDNAN_clean_linker_2, # of connection points: 2
#     Edge 87, Type (0, 0), BuildingBlock: XUDNAN_clean_linker_2, # of connection points: 2
#     Edge 88, Type (0, 0), BuildingBlock: XUDNAN_clean_linker_2, # of connection points: 2
#     Edge 89, Type (0, 0), BuildingBlock: XUDNAN_clean_linker_2, # of connection points: 2
#     Edge 90, Type (0, 0), BuildingBlock: XUDNAN_clean_linker_2, # of connection points: 2
#     Edge 91, Type (0, 0), BuildingBlock: XUDNAN_clean_linker_2, # of connection points: 2
#     Edge 92, Type (0, 0), BuildingBlock: XUDNAN_clean_linker_2, # of connection points: 2
#     Edge 93, Type (0, 0), BuildingBlock: XUDNAN_clean_linker_2, # of connection points: 2
#     Edge 94, Type (0, 0), BuildingBlock: XUDNAN_clean_linker_2, # of connection points: 2
#     Edge 95, Type (0, 0), BuildingBlock: XUDNAN_clean_linker_2, # of connection points: 2
# Relax obj value: 0.032
# Max RMSD: 0.063
# Mean RMSD: 0.063
data_MOF--net-umu--node1-QUQFOY_clean_sbu_1--edge1-XUDNAN_clean_linker_2
_symmetry_space_group_name_H-M    P1
_symmetry_Int_Tables_number       1
_symmetry_cell_setting            triclinic
loop_
_symmetry_equiv_pos_as_xyz
'x, y, z'
_cell_length_a     85.842844
_cell_length_b     85.944441
_cell_length_c     28.016151
_cell_angle_alpha  89.981782
_cell_angle_beta   89.954903
_cell_angle_gamma 90.017155
loop_
_atom_site_label
_atom_site_type_symbol
_atom_site_fract_x
_atom_site_fract_y
_atom_site_fract_z
_atom_type_partial_charge
O0 O 0.21796 0.16601 0.02152 0.0
Cd1 Cd 0.19764 0.16699 0.06014 0.0
Cd2 Cd 0.22449 0.17222 0.13243 0.0
O3 O 0.23776 0.16827 0.07155 0.0
O4 O 0.1833 0.16572 1.00426 0.0
O5 O 0.18339 0.1481 0.06137 0.0
C6 C 0.17806 0.15281 0.02081 0.0
C7 C 0.23357 0.16407 0.20775 0.0
C8 C 0.23251 0.16648 0.02939 0.0
C9 C 0.19884 0.1969 0.11691 0.0
O10 O 0.21177 0.19261 0.13467 0.0
O11 O 0.19118 0.18803 0.08923 0.0
O12 O 0.23946 0.17592 0.18615 0.0
O13 O 0.22286 0.1563 0.1859 0.0
O14 O 0.08626 0.96839 0.25153 0.0
Cd15 Cd 0.08605 0.95332 0.30793 0.0
Cd16 Cd 0.09054 0.97968 0.35844 0.0
O17 O 0.09909 0.98623 0.29191 0.0
O18 O 0.09262 0.93297 0.28099 0.0
O19 O 0.10741 0.94728 0.32901 0.0
C20 C 0.10597 0.93542 0.30085 0.0
C21 C 0.10204 0.98923 0.42823 0.0
C22 C 0.09434 0.98075 0.2523 0.0
C23 C 0.05926 0.96332 0.36382 0.0
O24 O 0.0669 0.97596 0.36733 0.0
O25 O 0.06554 0.95135 0.34545 0.0
O26 O 0.09465 0.99824 0.39938 0.0
O27 O 0.10365 0.97479 0.41643 0.0
O28 O 0.28763 0.84742 0.53267 0.0
Cd29 Cd 0.30549 0.84173 0.57826 0.0
Cd30 Cd 0.27827 0.83853 0.63874 0.0
O31 O 0.26694 0.84749 0.57951 0.0
O32 O 0.32322 0.84504 0.53325 0.0
O33 O 0.32089 0.85796 0.60099 0.0
C34 C 0.32843 0.85551 0.56183 0.0
C35 C 0.27363 0.84812 0.71589 0.0
C36 C 0.27312 0.84949 0.53866 0.0
C37 C 0.29788 0.80998 0.6183 0.0
O38 O 0.28524 0.81552 0.63487 0.0
O39 O 0.30774 0.81871 0.59755 0.0
O40 O 0.26342 0.83976 0.69388 0.0
O41 O 0.28632 0.85153 0.69333 0.0
O42 O 0.41416 0.03731 0.74681 0.0
Cd43 Cd 0.41367 0.05204 0.80434 0.0
Cd44 Cd 0.41457 0.02457 0.85263 0.0
O45 O 0.40524 0.01743 0.78799 0.0
O46 O 0.40785 0.07228 0.77506 0.0
O47 O 0.39217 0.05898 0.82291 0.0
C48 C 0.39432 0.07062 0.79442 0.0
C49 C 0.40418 0.01444 0.92327 0.0
C50 C 0.40799 0.02391 0.74807 0.0
C51 C 0.44294 0.04498 0.85456 0.0
O52 O 0.43785 0.03108 0.85636 0.0
O53 O 0.43408 0.05593 0.84083 0.0
O54 O 0.41244 0.006 0.8949 0.0
O55 O 0.40148 0.02869 0.91122 0.0
O56 O 0.21117 0.84489 0.21328 0.0
Cd57 Cd 0.20001 0.8457 0.14879 0.0
Cd58 Cd 0.22999 0.8415 0.11944 0.0
O59 O 0.23502 0.84949 0.18798 0.0
O60 O 0.17869 0.85197 0.16931 0.0
O61 O 0.19434 0.8674 0.12811 0.0
C62 C 0.18154 0.86551 0.15171 0.0
C63 C 0.24165 0.85118 0.05008 0.0
C64 C 0.22524 0.84838 0.222 0.0
C65 C 0.20761 0.81509 0.10677 0.0
O66 O 0.22177 0.81899 0.11267 0.0
O67 O 0.1968 0.82499 0.1131 0.0
O68 O 0.2494 0.84286 0.08014 0.0
O69 O 0.22743 0.85477 0.06059 0.0
O70 O 0.40645 0.96515 0.43304 0.0
Cd71 Cd 0.41476 0.94834 0.38788 0.0
Cd72 Cd 0.41143 0.97796 0.32978 0.0
O73 O 0.40277 0.98699 0.39285 0.0
O74 O 0.41723 0.93173 0.4369 0.0
O75 O 0.40023 0.92997 0.37829 0.0
C76 C 0.40576 0.92446 0.41765 0.0
C77 C 0.40019 0.98323 0.2556 0.0
C78 C 0.40207 0.97922 0.43136 0.0
C79 C 0.44306 0.96165 0.33762 0.0
O80 O 0.43487 0.97332 0.32546 0.0
O81 O 0.43711 0.95027 0.36032 0.0
O82 O 0.40781 0.99374 0.27866 0.0
O83 O 0.39813 0.96991 0.27612 0.0
O84 O 0.29774 0.17226 0.70567 0.0
Cd85 Cd 0.30935 0.16915 0.64249 0.0
Cd86 Cd 0.28022 0.17412 0.61014 0.0
O87 O 0.27365 0.16911 0.68036 0.0
O88 O 0.32958 0.16059 0.66484 0.0
O89 O 0.31244 0.14674 0.62391 0.0
C90 C 0.32529 0.14735 0.64786 0.0
C91 C 0.2685 0.16402 0.54146 0.0
C92 C 0.28336 0.17039 0.71456 0.0
C93 C 0.30482 0.1989 0.59409 0.0
O94 O 0.29046 0.19552 0.59792 0.0
O95 O 0.31513 0.18891 0.60491 0.0
O96 O 0.26186 0.17476 0.56637 0.0
O97 O 0.28132 0.15809 0.55746 0.0
O98 O 0.09757 0.03912 0.92873 0.0
Cd99 Cd 0.09065 0.05438 0.87651 0.0
Cd100 Cd 0.0856 0.0247 0.83485 0.0
O101 O 0.09435 0.01575 0.89775 0.0
O102 O 0.09449 0.07368 0.91387 0.0
O103 O 0.10707 0.06836 0.84711 0.0
C104 C 0.10519 0.07727 0.88374 0.0
C105 C 0.09684 0.01965 0.76077 0.0
C106 C 0.09848 0.02443 0.93217 0.0
C107 C 0.05786 0.0457 0.84568 0.0
O108 O 0.0628 0.03216 0.83532 0.0
O109 O 0.0672 0.05618 0.86017 0.0
O110 O 0.08825 0.00941 0.78195 0.0
O111 O 0.09947 0.03264 0.78266 0.0
O112 O 0.79451 0.84434 0.20082 0.0
Cd113 Cd 0.80703 0.84155 0.139 0.0
Cd114 Cd 0.77529 0.83943 0.10657 0.0
O115 O 0.7706 0.84815 0.17439 0.0
O116 O 0.82852 0.84141 0.16607 0.0
O117 O 0.81984 0.86044 0.12037 0.0
C118 C 0.83076 0.85477 0.14677 0.0
C119 C 0.76436 0.84947 0.03649 0.0
C120 C 0.78039 0.84792 0.2085 0.0
C121 C 0.79549 0.81118 0.09839 0.0
O122 O 0.78164 0.81632 0.10174 0.0
O123 O 0.80705 0.82008 0.106 0.0
O124 O 0.75603 0.84193 0.06706 0.0
O125 O 0.77882 0.85205 0.04673 0.0
O126 O 0.9036 0.03721 0.93561 0.0
Cd127 Cd 0.91093 0.0533 0.88619 0.0
Cd128 Cd 0.91605 0.02317 0.84017 0.0
O129 O 0.90724 0.01409 0.90311 0.0
O130 O 0.90808 0.07189 0.92783 0.0
O131 O 0.89525 0.0688 0.86028 0.0
C132 C 0.89771 0.07682 0.89848 0.0
C133 C 0.90552 0.0174 0.76535 0.0
C134 C 0.90284 0.02249 0.93794 0.0
C135 C 0.94361 0.04454 0.85249 0.0
O136 O 0.93871 0.0311 0.84085 0.0
O137 O 0.93431 0.05478 0.86879 0.0
O138 O 0.9142 0.00752 0.78766 0.0
O139 O 0.90232 0.03039 0.78655 0.0
O140 O 0.71258 0.16646 0.71219 0.0
Cd141 Cd 0.6964 0.17032 0.65981 0.0
Cd142 Cd 0.72315 0.16465 0.60435 0.0
O143 O 0.73082 0.15522 0.66861 0.0
O144 O 0.67638 0.17051 0.69589 0.0
O145 O 0.68271 0.15191 0.64479 0.0
C146 C 0.67316 0.15735 0.67632 0.0
C147 C 0.72832 0.1536 0.5295 0.0
C148 C 0.72522 0.15886 0.70924 0.0
C149 C 0.70913 0.19705 0.606 0.0
O150 O 0.72099 0.18849 0.59912 0.0
O151 O 0.69697 0.19155 0.6256 0.0
O152 O 0.73921 0.15993 0.55449 0.0
O153 O 0.71467 0.15243 0.54872 0.0
O154 O 0.59003 0.96849 0.44582 0.0
Cd155 Cd 0.58502 0.95237 0.39435 0.0
Cd156 Cd 0.58863 0.97981 0.3359 0.0
O157 O 0.59701 0.9883 0.4005 0.0
O158 O 0.58853 0.93257 0.42957 0.0
O159 O 0.60238 0.93962 0.36635 0.0
C160 C 0.59995 0.92992 0.40084 0.0
C161 C 0.59907 0.98971 0.26445 0.0
C162 C 0.59547 0.98214 0.44155 0.0
C163 C 0.55688 0.96322 0.3427 0.0
O164 O 0.56514 0.9748 0.32987 0.0
O165 O 0.56273 0.95223 0.36721 0.0
O166 O 0.5911 0.99829 0.29306 0.0
O167 O 0.60172 0.9755 0.27693 0.0
O168 O 0.78641 0.15604 0.0274 0.0
Cd169 Cd 0.8038 0.16321 0.07242 0.0
Cd170 Cd 0.77158 0.16825 0.12448 0.0
O171 O 0.76329 0.15943 0.06052 0.0
O172 O 0.81983 0.16467 0.02106 0.0
O173 O 0.82172 0.14786 0.07992 0.0
C174 C 0.82698 0.15309 0.03986 0.0
C175 C 0.76078 0.15948 0.19655 0.0
C176 C 0.77169 0.1551 0.02561 0.0
C177 C 0.79438 0.19518 0.11403 0.0
O178 O 0.78071 0.19051 0.12441 0.0
O179 O 0.80456 0.18592 0.09705 0.0
O180 O 0.75311 0.16841 0.16809 0.0
O181 O 0.77464 0.15527 0.18401 0.0
O182 O 0.59212 0.04418 0.76288 0.0
Cd183 Cd 0.58773 0.05784 0.82164 0.0
Cd184 Cd 0.5853 0.02711 0.85845 0.0
O185 O 0.59408 0.02046 0.79264 0.0
O186 O 0.58812 0.07884 0.79127 0.0
O187 O 0.60607 0.07106 0.84239 0.0
C188 C 0.60096 0.08151 0.81327 0.0
C189 C 0.59692 0.02143 0.93168 0.0
C190 C 0.59511 0.02981 0.75758 0.0
C191 C 0.55673 0.04683 0.86113 0.0
O192 O 0.56206 0.03304 0.86185 0.0
O193 O 0.56557 0.05824 0.85095 0.0
O194 O 0.5892 0.01098 0.90848 0.0
O195 O 0.59876 0.03491 0.91179 0.0
O196 O 0.71736 0.84752 0.5181 0.0
Cd197 Cd 0.69818 0.8434 0.56014 0.0
Cd198 Cd 0.72598 0.83983 0.62542 0.0
O199 O 0.7378 0.848 0.56589 0.0
O200 O 0.68269 0.84375 0.50709 0.0
O201 O 0.68194 0.86055 0.56633 0.0
C202 C 0.67644 0.85583 0.52599 0.0
C203 C 0.73161 0.84898 0.70255 0.0
C204 C 0.73186 0.84945 0.52454 0.0
C205 C 0.70439 0.81229 0.60778 0.0
O206 O 0.71748 0.81731 0.62252 0.0
O207 O 0.69485 0.82124 0.58649 0.0
O208 O 0.7411 0.83997 0.68002 0.0
O209 O 0.71912 0.85333 0.68051 0.0
O210 O 0.91639 0.96457 0.25291 0.0
Cd211 Cd 0.91965 0.9487 0.30644 0.0
Cd212 Cd 0.91366 0.97613 0.36156 0.0
O213 O 0.90442 0.98251 0.29567 0.0
O214 O 0.92004 0.92855 0.27135 0.0
O215 O 0.90095 0.93527 0.32035 0.0
C216 C 0.90661 0.92557 0.28968 0.0
C217 C 0.90249 0.98562 0.43234 0.0
C218 C 0.90838 0.97695 0.25531 0.0
C219 C 0.94595 0.96141 0.36263 0.0
O220 O 0.93749 0.9734 0.36863 0.0
O221 O 0.94047 0.94931 0.34274 0.0
O222 O 0.90935 0.99472 0.40248 0.0
O223 O 0.90121 0.97111 0.42113 0.0
O224 O 0.70964 0.65966 0.51337 0.0
Cd225 Cd 0.69493 0.66595 0.56778 0.0
Cd226 Cd 0.72522 0.67076 0.60642 0.0
O227 O 0.73339 0.66161 0.54268 0.0
O228 O 0.67521 0.66223 0.53229 0.0
O229 O 0.68143 0.6492 0.59744 0.0
C230 C 0.67207 0.65129 0.56199 0.0
C231 C 0.73065 0.6603 0.68133 0.0
C232 C 0.72426 0.65821 0.50853 0.0
C233 C 0.70392 0.69844 0.59951 0.0
O234 O 0.71772 0.69355 0.60648 0.0
O235 O 0.69318 0.68912 0.5868 0.0
O236 O 0.74092 0.6684 0.65852 0.0
O237 O 0.71754 0.65746 0.66028 0.0
O238 O 0.59067 0.4587 0.75233 0.0
Cd239 Cd 0.58383 0.444 0.80589 0.0
Cd240 Cd 0.58866 0.47597 0.85211 0.0
O241 O 0.59711 0.48132 0.78431 0.0
O242 O 0.58048 0.42537 0.76485 0.0
O243 O 0.59889 0.42637 0.81953 0.0
C244 C 0.59256 0.41916 0.78406 0.0
C245 C 0.59939 0.48657 0.92199 0.0
C246 C 0.59603 0.47239 0.74824 0.0
C247 C 0.55676 0.45971 0.8551 0.0
O248 O 0.56516 0.47181 0.85973 0.0
O249 O 0.56228 0.44719 0.83765 0.0
O250 O 0.59224 0.49514 0.8913 0.0
O251 O 0.60134 0.47204 0.91184 0.0
O252 O 0.7863 0.34445 1.00894 0.0
Cd253 Cd 0.80495 0.3393 0.05195 0.0
Cd254 Cd 0.77657 0.33776 0.1165 0.0
O255 O 0.76576 0.34667 0.05601 0.0
O256 O 0.82087 0.3387 1.00001 0.0
O257 O 0.82182 0.35576 0.05858 0.0
C258 C 0.8274 0.35067 0.01875 0.0
C259 C 0.77125 0.3478 0.19285 0.0
C260 C 0.77198 0.34757 0.01484 0.0
C261 C 0.79681 0.30899 0.10218 0.0
O262 O 0.78386 0.31475 0.11558 0.0
O263 O 0.80688 0.31727 0.08057 0.0
O264 O 0.76129 0.33924 0.17059 0.0
O265 O 0.78407 0.35119 0.17093 0.0
O266 O 0.9061 0.53647 0.27091 0.0
Cd267 Cd 0.91087 0.55527 0.31359 0.0
Cd268 Cd 0.91402 0.52723 0.37708 0.0
O269 O 0.90555 0.51576 0.31744 0.0
O270 O 0.91085 0.57089 0.26101 0.0
O271 O 0.89386 0.57161 0.31992 0.0
C272 C 0.89867 0.57708 0.27961 0.0
C273 C 0.90372 0.5221 0.453 0.0
C274 C 0.90387 0.52201 0.27662 0.0
C275 C 0.9419 0.54846 0.36168 0.0
O276 O 0.93677 0.53533 0.37563 0.0
O277 O 0.93304 0.55812 0.34051 0.0
O278 O 0.91283 0.51234 0.43195 0.0
O279 O 0.90005 0.53466 0.43023 0.0
O280 O 0.71006 0.3475 0.69645 0.0
Cd281 Cd 0.696 0.33939 0.64294 0.0
Cd282 Cd 0.72774 0.34238 0.59751 0.0
O283 O 0.73326 0.35145 0.6644 0.0
O284 O 0.67623 0.33899 0.68034 0.0
O285 O 0.67943 0.35373 0.61645 0.0
C286 C 0.67092 0.34954 0.65222 0.0
C287 C 0.73853 0.35225 0.52657 0.0
C288 C 0.72409 0.35195 0.7001 0.0
C289 C 0.71113 0.31073 0.60135 0.0
O290 O 0.7232 0.31888 0.59288 0.0
O291 O 0.69895 0.31678 0.61938 0.0
O292 O 0.74698 0.34523 0.55786 0.0
O293 O 0.72401 0.3545 0.53652 0.0
O294 O 0.9066 0.4628 0.95358 0.0
Cd295 Cd 0.91362 0.45082 0.89424 0.0
Cd296 Cd 0.90882 0.48144 0.85759 0.0
O297 O 0.89936 0.48556 0.92477 0.0
O298 O 0.91322 0.42954 0.92212 0.0
O299 O 0.89787 0.43677 0.8627 0.0
C300 C 0.9018 0.42645 0.89397 0.0
C301 C 0.89787 0.49098 0.78687 0.0
C302 C 0.90064 0.47615 0.95959 0.0
C303 C 0.94148 0.46756 0.85648 0.0
O304 O 0.93267 0.4794 0.85288 0.0
O305 O 0.93604 0.45447 0.86958 0.0
O306 O 0.90386 0.5002 0.81815 0.0
O307 O 0.89719 0.47632 0.79694 0.0
O308 O 0.78483 0.66278 0.19332 0.0
Cd309 Cd 0.80084 0.6665 0.14007 0.0
Cd310 Cd 0.77203 0.66932 0.08804 0.0
O311 O 0.76335 0.66004 0.15102 0.0
O312 O 0.8202 0.66231 0.17697 0.0
O313 O 0.81326 0.64847 0.11394 0.0
C314 C 0.82279 0.65076 0.14887 0.0
C315 C 0.76184 0.6605 0.0153 0.0
C316 C 0.77045 0.65951 0.19079 0.0
C317 C 0.79305 0.69752 0.09698 0.0
O318 O 0.77952 0.69226 0.08782 0.0
O319 O 0.80354 0.68873 0.11424 0.0
O320 O 0.75368 0.66883 0.04418 0.0
O321 O 0.77583 0.65682 0.02791 0.0
O322 O 0.59136 0.53461 0.43837 0.0
Cd323 Cd 0.58706 0.55347 0.39548 0.0
Cd324 Cd 0.58473 0.52525 0.3305 0.0
O325 O 0.59279 0.51403 0.39136 0.0
O326 O 0.58641 0.5691 0.44805 0.0
O327 O 0.60399 0.56993 0.39079 0.0
C328 C 0.59869 0.57543 0.43046 0.0
C329 C 0.59506 0.51955 0.2548 0.0
C330 C 0.59384 0.52019 0.43255 0.0
C331 C 0.55675 0.54663 0.34336 0.0
O332 O 0.56203 0.53349 0.33007 0.0
O333 O 0.56531 0.55627 0.36565 0.0
O334 O 0.58593 0.50996 0.27653 0.0
O335 O 0.59883 0.5322 0.2769 0.0
O336 O 0.28752 0.33762 0.69992 0.0
Cd337 Cd 0.30495 0.33989 0.65006 0.0
Cd338 Cd 0.27844 0.33663 0.58888 0.0
O339 O 0.26737 0.34217 0.65287 0.0
O340 O 0.32319 0.34634 0.68932 0.0
O341 O 0.31172 0.36191 0.63714 0.0
C342 C 0.32202 0.3599 0.67016 0.0
C343 C 0.26831 0.34509 0.51531 0.0
C344 C 0.27312 0.34051 0.69452 0.0
C345 C 0.3033 0.31108 0.59298 0.0
O346 O 0.28946 0.31529 0.58337 0.0
O347 O 0.31241 0.32016 0.6153 0.0
O348 O 0.26187 0.33402 0.5392 0.0
O349 O 0.28013 0.35205 0.53416 0.0
O350 O 0.40893 0.53651 0.43195 0.0
Cd351 Cd 0.41286 0.55515 0.38789 0.0
Cd352 Cd 0.41513 0.5267 0.32276 0.0
O353 O 0.40755 0.516 0.38478 0.0
O354 O 0.41329 0.57108 0.4396 0.0
O355 O 0.39562 0.57125 0.38265 0.0
C356 C 0.40081 0.577 0.42208 0.0
C357 C 0.40558 0.51706 0.25001 0.0
C358 C 0.40659 0.52208 0.42602 0.0
C359 C 0.44314 0.54822 0.33534 0.0
O360 O 0.43772 0.5352 0.32138 0.0
O361 O 0.43469 0.55785 0.35816 0.0
O362 O 0.41499 0.50909 0.27608 0.0
O363 O 0.40138 0.53061 0.26511 0.0
O364 O 0.21163 0.66594 0.18756 0.0
Cd365 Cd 0.19507 0.6705 0.13652 0.0
Cd366 Cd 0.22253 0.67245 0.08279 0.0
O367 O 0.23257 0.66271 0.14311 0.0
O368 O 0.17602 0.66619 0.17489 0.0
O369 O 0.18212 0.65294 0.10986 0.0
C370 C 0.17298 0.65499 0.14595 0.0
C371 C 0.22696 0.66255 1.00617 0.0
C372 C 0.22588 0.66228 0.18362 0.0
C373 C 0.20333 0.70158 0.09589 0.0
O374 O 0.21651 0.69578 0.0851 0.0
O375 O 0.1926 0.69307 0.11319 0.0
O376 O 0.23757 0.67027 0.0286 0.0
O377 O 0.214 0.65985 0.02821 0.0
O378 O 0.09134 0.46581 0.95122 0.0
Cd379 Cd 0.0839 0.45353 0.89299 0.0
Cd380 Cd 0.08792 0.48441 0.85526 0.0
O381 O 0.09751 0.48884 0.92201 0.0
O382 O 0.08395 0.4326 0.92315 0.0
O383 O 0.0992 0.43876 0.86233 0.0
C384 C 0.09515 0.42891 0.89485 0.0
C385 C 0.09879 0.49402 0.78448 0.0
C386 C 0.09689 0.47936 0.95682 0.0
C387 C 0.05558 0.46977 0.85573 0.0
O388 O 0.06409 0.48179 0.85104 0.0
O389 O 0.06137 0.4569 0.86941 0.0
O390 O 0.09253 0.50317 0.81545 0.0
O391 O 0.0997 0.47939 0.79476 0.0
O392 O 0.2869 0.65834 0.50746 0.0
Cd393 Cd 0.30138 0.66384 0.56311 0.0
Cd394 Cd 0.26982 0.66981 0.6008 0.0
O395 O 0.26297 0.66129 0.5347 0.0
O396 O 0.32116 0.66056 0.52733 0.0
O397 O 0.31494 0.64681 0.59109 0.0
C398 C 0.32436 0.64937 0.55604 0.0
C399 C 0.25837 0.6611 0.67173 0.0
C400 C 0.27229 0.65764 0.50124 0.0
C401 C 0.29293 0.69637 0.59758 0.0
O402 O 0.27889 0.69204 0.60352 0.0
O403 O 0.30335 0.68675 0.58441 0.0
O404 O 0.25082 0.66976 0.6421 0.0
O405 O 0.27233 0.65686 0.66042 0.0
O406 O 0.0918 0.53946 0.26823 0.0
Cd407 Cd 0.08662 0.55806 0.3113 0.0
Cd408 Cd 0.08436 0.52987 0.37443 0.0
O409 O 0.09314 0.51874 0.31459 0.0
O410 O 0.08616 0.57381 0.25909 0.0
O411 O 0.10323 0.5748 0.31765 0.0
C412 C 0.09822 0.58026 0.27759 0.0
C413 C 0.09465 0.52482 0.45034 0.0
C414 C 0.09451 0.52507 0.27377 0.0
C415 C 0.05586 0.55028 0.35971 0.0
O416 O 0.06139 0.53727 0.37324 0.0
O417 O 0.06441 0.56026 0.33868 0.0
O418 O 0.08586 0.51486 0.42891 0.0
O419 O 0.09805 0.53753 0.42789 0.0
O420 O 0.20764 0.34422 0.01179 0.0
Cd421 Cd 0.18948 0.3402 0.05778 0.0
Cd422 Cd 0.2214 0.33487 0.11066 0.0
O423 O 0.23081 0.34077 0.0445 0.0
O424 O 0.17326 0.33965 1.0069 0.0
O425 O 0.17325 0.35734 0.06371 0.0
C426 C 0.16729 0.35204 0.0247 0.0
C427 C 0.23197 0.34378 0.18285 0.0
C428 C 0.22238 0.34423 1.00865 0.0
C429 C 0.19612 0.30938 0.10729 0.0
O430 O 0.20992 0.31384 0.11656 0.0
O431 O 0.18641 0.31839 0.08712 0.0
O432 O 0.23844 0.33271 0.15897 0.0
O433 O 0.21986 0.35045 0.16465 0.0
O434 O 0.41423 0.46156 0.75101 0.0
Cd435 Cd 0.41519 0.45029 0.81512 0.0
Cd436 Cd 0.4131 0.47938 0.84693 0.0
O437 O 0.40549 0.48406 0.77772 0.0
O438 O 0.4087 0.42869 0.7991 0.0
O439 O 0.39411 0.44505 0.84089 0.0
C440 C 0.39547 0.43196 0.81854 0.0
C441 C 0.40038 0.48554 0.91801 0.0
C442 C 0.40847 0.47491 0.74312 0.0
C443 C 0.44348 0.4625 0.86036 0.0
O444 O 0.43652 0.47552 0.8573 0.0
O445 O 0.43644 0.44996 0.8496 0.0
O446 O 0.40734 0.49616 0.89326 0.0
O447 O 0.39949 0.47171 0.90002 0.0
H448 H 0.11367 0.08787 0.97106 0.0
H449 H 0.12112 0.09556 0.81977 0.0
H450 H 0.13974 0.11677 0.83881 0.0
H451 H 0.11689 0.12782 0.01115 0.0
H452 H 0.12736 0.1227 0.06462 0.0
H453 H 0.11374 0.10914 0.03885 0.0
H454 H 0.1354 0.08819 0.03464 0.0
H455 H 0.1491 0.10167 0.0603 0.0
H456 H 0.15334 0.09253 1.00388 0.0
H457 H 0.15728 0.13717 0.87496 0.0
H458 H 0.17444 0.15357 0.92452 0.0
H459 H 0.15716 0.13077 0.05224 0.0
C460 C 0.11902 0.0942 0.9419 0.0
C461 C 0.1158 0.09034 0.89391 0.0
C462 C 0.12337 0.0985 0.85672 0.0
C463 C 0.1339 0.11054 0.86724 0.0
C464 C 0.13688 0.114 0.91508 0.0
C465 C 0.1298 0.10593 0.95178 0.0
C466 C 0.13583 0.11108 1.00007 0.0
C467 C 0.12267 0.1181 0.03045 0.0
C468 C 0.1439 0.09756 0.02624 0.0
C469 C 0.14743 0.12338 0.98492 0.0
C470 C 0.14767 0.12505 0.93579 0.0
C471 C 0.15723 0.13591 0.9134 0.0
C472 C 0.16689 0.1452 0.94189 0.0
C473 C 0.16714 0.14339 0.99218 0.0
C474 C 0.15726 0.13233 0.01388 0.0
H475 H 0.1068 0.90538 0.26798 0.0
H476 H 0.13596 0.94558 0.29605 0.0
H477 H 0.15796 0.93271 0.25512 0.0
H478 H 0.13778 0.8766 0.2879 0.0
H479 H 0.13046 0.86374 0.24234 0.0
H480 H 0.11725 0.87617 0.27455 0.0
H481 H 0.10744 0.88745 0.19419 0.0
H482 H 0.12093 0.87535 0.16181 0.0
H483 H 0.1212 0.89614 0.15347 0.0
H484 H 0.17597 0.91646 0.20438 0.0
H485 H 0.19068 0.89561 0.16354 0.0
H486 H 0.1505 0.86519 0.17423 0.0
C487 C 0.11791 0.91133 0.26628 0.0
C488 C 0.11971 0.92645 0.28522 0.0
C489 C 0.1344 0.9339 0.28229 0.0
C490 C 0.1469 0.92677 0.25859 0.0
C491 C 0.14459 0.91207 0.23884 0.0
C492 C 0.13062 0.90422 0.24375 0.0
C493 C 0.13141 0.88825 0.22102 0.0
C494 C 0.1291 0.87543 0.2587 0.0
C495 C 0.11954 0.88672 0.1802 0.0
C496 C 0.14794 0.88841 0.20211 0.0
C497 C 0.15524 0.90238 0.21188 0.0
C498 C 0.17044 0.90541 0.19695 0.0
C499 C 0.17863 0.89357 0.17326 0.0
C500 C 0.1717 0.87884 0.16565 0.0
C501 C 0.15606 0.87638 0.17944 0.0
H502 H 0.38186 0.90545 0.38697 0.0
H503 H 0.41147 0.91519 0.50895 0.0
H504 H 0.3956 0.89765 0.5585 0.0
H505 H 0.3466 0.90462 0.44753 0.0
H506 H 0.3382 0.88864 0.41478 0.0
H507 H 0.3527 0.90078 0.38708 0.0
H508 H 0.36978 0.87661 0.36941 0.0
H509 H 0.35522 0.86434 0.39649 0.0
H510 H 0.37504 0.86371 0.41753 0.0
H511 H 0.37426 0.88236 0.59787 0.0
H512 H 0.35103 0.86693 0.62107 0.0
H513 H 0.3366 0.86523 0.47291 0.0
C514 C 0.38525 0.90357 0.42374 0.0
C515 C 0.39793 0.91171 0.44397 0.0
C516 C 0.40188 0.90904 0.49244 0.0
C517 C 0.39289 0.89913 0.52105 0.0
C518 C 0.38015 0.89171 0.50053 0.0
C519 C 0.37654 0.89347 0.45272 0.0
C520 C 0.362 0.8844 0.43991 0.0
C521 C 0.34912 0.89526 0.42124 0.0
C522 C 0.36574 0.87149 0.4037 0.0
C523 C 0.35778 0.87766 0.48824 0.0
C524 C 0.36832 0.88213 0.52284 0.0
C525 C 0.36613 0.87845 0.57093 0.0
C526 C 0.35289 0.8698 0.58385 0.0
C527 C 0.34225 0.86473 0.54867 0.0
C528 C 0.34479 0.86868 0.50033 0.0
H529 H 0.39587 0.10066 0.76301 0.0
H530 H 0.3636 0.06273 0.78858 0.0
H531 H 0.3427 0.07763 0.74846 0.0
H532 H 0.36748 0.13171 0.78444 0.0
H533 H 0.37592 0.14417 0.73957 0.0
H534 H 0.38799 0.13048 0.7711 0.0
H535 H 0.39688 0.11887 0.69014 0.0
H536 H 0.38452 0.13226 0.65842 0.0
H537 H 0.38248 0.11162 0.64896 0.0
H538 H 0.32603 0.09585 0.69907 0.0
H539 H 0.31329 0.11816 0.65915 0.0
H540 H 0.35606 0.14475 0.67102 0.0
C541 C 0.38433 0.09562 0.76088 0.0
C542 C 0.3813 0.08058 0.77887 0.0
C543 C 0.36608 0.07433 0.77548 0.0
C544 C 0.35421 0.08262 0.75228 0.0
C545 C 0.35771 0.09723 0.73348 0.0
C546 C 0.37229 0.10386 0.73877 0.0
C547 C 0.37291 0.11996 0.71693 0.0
C548 C 0.37627 0.13231 0.7553 0.0
C549 C 0.38491 0.12071 0.6762 0.0
C550 C 0.35645 0.1213 0.69805 0.0
C551 C 0.34795 0.10797 0.70714 0.0
C552 C 0.33254 0.10641 0.69215 0.0
C553 C 0.32546 0.11905 0.66902 0.0
C554 C 0.33372 0.13313 0.66196 0.0
C555 C 0.34949 0.1341 0.67586 0.0
H556 H 0.83193 0.885 0.17548 0.0
H557 H 0.86057 0.84428 0.15102 0.0
H558 H 0.88331 0.85799 0.18543 0.0
H559 H 0.86191 0.91485 0.15504 0.0
H560 H 0.85489 0.92697 0.20294 0.0
H561 H 0.84156 0.9146 0.17096 0.0
H562 H 0.83304 0.90205 0.25096 0.0
H563 H 0.84658 0.91415 0.28308 0.0
H564 H 0.84752 0.89329 0.28904 0.0
H565 H 0.90273 0.87603 0.22348 0.0
H566 H 0.91744 0.89702 0.26387 0.0
H567 H 0.8754 0.92485 0.27164 0.0
C568 C 0.84313 0.87921 0.17602 0.0
C569 C 0.84471 0.86378 0.15949 0.0
C570 C 0.85931 0.85623 0.16269 0.0
C571 C 0.87222 0.86389 0.18235 0.0
C572 C 0.87021 0.87896 0.19962 0.0
C573 C 0.85603 0.88654 0.19681 0.0
C574 C 0.85668 0.90225 0.22127 0.0
C575 C 0.85358 0.91545 0.18541 0.0
C576 C 0.84528 0.90297 0.2636 0.0
C577 C 0.87344 0.90234 0.23818 0.0
C578 C 0.88108 0.88887 0.22483 0.0
C579 C 0.89684 0.88656 0.23453 0.0
C580 C 0.90507 0.89848 0.25763 0.0
C581 C 0.89744 0.91233 0.2717 0.0
C582 C 0.88138 0.91416 0.26246 0.0
H583 H 0.88857 0.08582 0.98695 0.0
H584 H 0.88507 0.09831 0.83741 0.0
H585 H 0.86867 0.121 0.85914 0.0
H586 H 0.84915 0.09385 0.01385 0.0
H587 H 0.85297 0.10087 0.07332 0.0
H588 H 0.86585 0.08686 0.04645 0.0
H589 H 0.88924 0.10535 0.06074 0.0
H590 H 0.8764 0.11947 0.0875 0.0
H591 H 0.88857 0.12494 0.03779 0.0
H592 H 0.85249 0.14193 0.89733 0.0
H593 H 0.83473 0.15761 0.94669 0.0
H594 H 0.84694 0.13004 0.07107 0.0
C595 C 0.88457 0.09352 0.95888 0.0
C596 C 0.88827 0.09058 0.91058 0.0
C597 C 0.88244 0.10052 0.87461 0.0
C598 C 0.87321 0.11343 0.88669 0.0
C599 C 0.86975 0.116 0.93476 0.0
C600 C 0.87505 0.10617 0.97021 0.0
C601 C 0.86842 0.11057 0.01853 0.0
C602 C 0.85851 0.09725 0.03923 0.0
C603 C 0.88144 0.11537 0.05318 0.0
C604 C 0.85843 0.12437 1.00476 0.0
C605 C 0.85965 0.12749 0.95645 0.0
C606 C 0.85145 0.13959 0.93515 0.0
C607 C 0.84142 0.14847 0.96366 0.0
C608 C 0.83943 0.14506 0.01284 0.0
C609 C 0.84826 0.13298 0.03369 0.0
H610 H 0.67214 0.12613 0.6934 0.0
H611 H 0.64455 0.16827 0.70132 0.0
H612 H 0.62315 0.15355 0.73982 0.0
H613 H 0.64051 0.09871 0.67284 0.0
H614 H 0.64893 0.08396 0.71061 0.0
H615 H 0.66135 0.09761 0.68005 0.0
H616 H 0.6737 0.10539 0.76098 0.0
H617 H 0.66111 0.09197 0.79187 0.0
H618 H 0.66136 0.11222 0.80865 0.0
H619 H 0.60464 0.13407 0.77571 0.0
H620 H 0.59056 0.11131 0.80869 0.0
H621 H 0.63136 0.08259 0.78597 0.0
C622 C 0.66143 0.13213 0.70225 0.0
C623 C 0.65976 0.14822 0.69353 0.0
C624 C 0.64587 0.15588 0.70715 0.0
C625 C 0.63372 0.14764 0.72917 0.0
C626 C 0.63584 0.13184 0.73829 0.0
C627 C 0.64937 0.12417 0.7255 0.0
C628 C 0.64904 0.10734 0.74173 0.0
C629 C 0.65001 0.09625 0.69875 0.0
C630 C 0.66208 0.10405 0.77796 0.0
C631 C 0.63315 0.10671 0.76522 0.0
C632 C 0.62567 0.12093 0.76242 0.0
C633 C 0.61046 0.12296 0.77882 0.0
C634 C 0.6026 0.11003 0.79768 0.0
C635 C 0.61009 0.09543 0.80104 0.0
C636 C 0.62562 0.09381 0.78531 0.0
H637 H 0.60921 0.91891 0.48718 0.0
H638 H 0.61535 0.91212 0.335 0.0
H639 H 0.63428 0.89099 0.35123 0.0
H640 H 0.64923 0.91474 0.51553 0.0
H641 H 0.64588 0.90526 0.57201 0.0
H642 H 0.63159 0.91853 0.54854 0.0
H643 H 0.61047 0.89706 0.55437 0.0
H644 H 0.62471 0.88371 0.57792 0.0
H645 H 0.61367 0.87859 0.5255 0.0
H646 H 0.65249 0.87084 0.38424 0.0
H647 H 0.67099 0.85498 0.43059 0.0
H648 H 0.65487 0.87665 0.56153 0.0
C649 C 0.61433 0.91275 0.45732 0.0
C650 C 0.61065 0.91685 0.40982 0.0
C651 C 0.61794 0.90897 0.37158 0.0
C652 C 0.62864 0.89696 0.38051 0.0
C653 C 0.6321 0.89325 0.42784 0.0
C654 C 0.62533 0.90106 0.46562 0.0
C655 C 0.63209 0.89581 0.51295 0.0
C656 C 0.64018 0.90939 0.53876 0.0
C657 C 0.61948 0.88835 0.54454 0.0
C658 C 0.64377 0.88383 0.49595 0.0
C659 C 0.64336 0.88235 0.44679 0.0
C660 C 0.65294 0.87192 0.4227 0.0
C661 C 0.66337 0.86293 0.44942 0.0
C662 C 0.66437 0.8646 0.49967 0.0
C663 C 0.65438 0.87516 0.52318 0.0
H664 H 0.66177 0.642 0.47523 0.0
H665 H 0.65359 0.63599 0.62684 0.0
H666 H 0.63237 0.61726 0.60886 0.0
H667 H 0.62182 0.63808 0.43366 0.0
H668 H 0.6273 0.62703 0.38163 0.0
H669 H 0.64062 0.64107 0.40643 0.0
H670 H 0.66179 0.61973 0.41399 0.0
H671 H 0.64857 0.60563 0.3892 0.0
H672 H 0.65747 0.60213 0.44647 0.0
H673 H 0.61221 0.59926 0.5738 0.0
H674 H 0.59667 0.58092 0.52578 0.0
H675 H 0.61986 0.59695 0.39713 0.0
C676 C 0.6553 0.63696 0.50463 0.0
C677 C 0.65902 0.64061 0.55242 0.0
C678 C 0.65073 0.63341 0.59003 0.0
C679 C 0.63867 0.62284 0.5801 0.0
C680 C 0.63533 0.61943 0.53245 0.0
C681 C 0.64357 0.62611 0.49536 0.0
C682 C 0.6387 0.61947 0.44755 0.0
C683 C 0.63169 0.63217 0.41543 0.0
C684 C 0.65245 0.61125 0.42287 0.0
C685 C 0.62642 0.60794 0.46342 0.0
C686 C 0.62445 0.60833 0.51243 0.0
C687 C 0.61368 0.59884 0.53545 0.0
C688 C 0.60487 0.58851 0.50779 0.0
C689 C 0.60708 0.58752 0.45772 0.0
C690 C 0.61795 0.59745 0.43531 0.0
H691 H 0.61671 0.40115 0.81819 0.0
H692 H 0.58618 0.40725 0.69618 0.0
H693 H 0.60188 0.38856 0.65027 0.0
H694 H 0.6514 0.39918 0.7565 0.0
H695 H 0.66027 0.3842 0.7924 0.0
H696 H 0.6457 0.39671 0.818 0.0
H697 H 0.62918 0.37272 0.8421 0.0
H698 H 0.64382 0.36009 0.81709 0.0
H699 H 0.6239 0.35859 0.7974 0.0
H700 H 0.62351 0.37301 0.61305 0.0
H701 H 0.64738 0.35824 0.59176 0.0
H702 H 0.66229 0.35997 0.73937 0.0
C703 C 0.61307 0.39819 0.78232 0.0
C704 C 0.6002 0.40567 0.76089 0.0
C705 C 0.59591 0.40161 0.71362 0.0
C706 C 0.6048 0.39103 0.68705 0.0
C707 C 0.61775 0.3843 0.70856 0.0
C708 C 0.62165 0.38738 0.75554 0.0
C709 C 0.63643 0.37891 0.76959 0.0
C710 C 0.6492 0.39044 0.78501 0.0
C711 C 0.63313 0.36686 0.80887 0.0
C712 C 0.6405 0.37109 0.72274 0.0
C713 C 0.62965 0.37443 0.68782 0.0
C714 C 0.63184 0.3699 0.6404 0.0
C715 C 0.64541 0.36161 0.62853 0.0
C716 C 0.65636 0.35771 0.66417 0.0
C717 C 0.65379 0.36241 0.71181 0.0
H718 H 0.89364 0.4145 0.97966 0.0
H719 H 0.88747 0.40786 0.82753 0.0
H720 H 0.86958 0.38577 0.84376 0.0
H721 H 0.89052 0.3738 0.01825 0.0
H722 H 0.87934 0.37873 0.07059 0.0
H723 H 0.89329 0.39237 0.04689 0.0
H724 H 0.8717 0.41335 0.04091 0.0
H725 H 0.85769 0.39979 0.06446 0.0
H726 H 0.85418 0.40914 1.00788 0.0
H727 H 0.85192 0.36501 0.87709 0.0
H728 H 0.83337 0.34919 0.92357 0.0
H729 H 0.84904 0.37137 0.05412 0.0
C730 C 0.88884 0.4081 0.94979 0.0
C731 C 0.89219 0.41252 0.90231 0.0
C732 C 0.8852 0.4044 0.86406 0.0
C733 C 0.87509 0.39187 0.87302 0.0
C734 C 0.87189 0.38789 0.92038 0.0
C735 C 0.8784 0.39592 0.95812 0.0
C736 C 0.87173 0.39059 1.0055 0.0
C737 C 0.88448 0.38345 0.03717 0.0
C738 C 0.86333 0.40401 0.03117 0.0
C739 C 0.86034 0.37833 0.9886 0.0
C740 C 0.86088 0.37673 0.93948 0.0
C741 C 0.85142 0.36616 0.91553 0.0
C742 C 0.84095 0.35719 0.94233 0.0
C743 C 0.83977 0.35906 0.99249 0.0
C744 C 0.8497 0.3697 0.01587 0.0
H745 H 0.83332 0.64169 0.23588 0.0
H746 H 0.84098 0.63527 0.08419 0.0
H747 H 0.86262 0.61704 0.1019 0.0
H748 H 0.8734 0.63894 0.27563 0.0
H749 H 0.86859 0.62792 0.32837 0.0
H750 H 0.85467 0.64141 0.3038 0.0
H751 H 0.83417 0.61936 0.29809 0.0
H752 H 0.84798 0.60582 0.32278 0.0
H753 H 0.8389 0.60177 0.26614 0.0
H754 H 0.88347 0.59992 0.13644 0.0
H755 H 0.89995 0.58237 0.18414 0.0
H756 H 0.87701 0.59806 0.31361 0.0
C757 C 0.83972 0.63659 0.20644 0.0
C758 C 0.83576 0.64002 0.15866 0.0
C759 C 0.84399 0.63283 0.12097 0.0
C760 C 0.85629 0.62254 0.13074 0.0
C761 C 0.85992 0.6194 0.17834 0.0
C762 C 0.85171 0.62601 0.21557 0.0
C763 C 0.85706 0.61972 0.26338 0.0
C764 C 0.86383 0.63278 0.29463 0.0
C765 C 0.84374 0.61116 0.28909 0.0
C766 C 0.86963 0.60854 0.2473 0.0
C767 C 0.87128 0.60877 0.19817 0.0
C768 C 0.88225 0.5996 0.17488 0.0
C769 C 0.8916 0.58972 0.20238 0.0
C770 C 0.88975 0.58885 0.25261 0.0
C771 C 0.87867 0.59848 0.27531 0.0
H772 H 0.35198 0.35935 0.70302 0.0
H773 H 0.31224 0.38974 0.68248 0.0
H774 H 0.32594 0.41074 0.72607 0.0
H775 H 0.36314 0.37211 0.81926 0.0
H776 H 0.38378 0.37142 0.80764 0.0
H777 H 0.37079 0.35859 0.77601 0.0
H778 H 0.38107 0.36893 0.69494 0.0
H779 H 0.39434 0.3815 0.72634 0.0
H780 H 0.38094 0.38957 0.6835 0.0
H781 H 0.34337 0.42774 0.77634 0.0
H782 H 0.36534 0.44169 0.81372 0.0
H783 H 0.39462 0.401 0.79504 0.0
C784 C 0.34626 0.37049 0.70736 0.0
C785 C 0.33108 0.373 0.68959 0.0
C786 C 0.32394 0.3877 0.69553 0.0
C787 C 0.33155 0.3996 0.7207 0.0
C788 C 0.34638 0.39665 0.73883 0.0
C789 C 0.35385 0.38262 0.73123 0.0
C790 C 0.3702 0.3828 0.75151 0.0
C791 C 0.37208 0.3705 0.79095 0.0
C792 C 0.38235 0.38057 0.7117 0.0
C793 C 0.37075 0.39911 0.77189 0.0
C794 C 0.35676 0.40676 0.76524 0.0
C795 C 0.35441 0.4219 0.78147 0.0
C796 C 0.36691 0.42967 0.80314 0.0
C797 C 0.38165 0.4224 0.80738 0.0
C798 C 0.38345 0.4068 0.79251 0.0
H799 H 0.3347 0.64045 0.46892 0.0
H800 H 0.34347 0.63465 0.62024 0.0
H801 H 0.3655 0.61696 0.60153 0.0
H802 H 0.34094 0.60075 0.43948 0.0
H803 H 0.34952 0.60481 0.38206 0.0
H804 H 0.33562 0.61814 0.4074 0.0
H805 H 0.35563 0.64058 0.39958 0.0
H806 H 0.36963 0.6273 0.37433 0.0
H807 H 0.37461 0.63856 0.42639 0.0
H808 H 0.38653 0.60015 0.56578 0.0
H809 H 0.40289 0.58269 0.51724 0.0
H810 H 0.37863 0.59758 0.38928 0.0
C811 C 0.34144 0.63564 0.49808 0.0
C812 C 0.33768 0.63908 0.54601 0.0
C813 C 0.34634 0.63221 0.58333 0.0
C814 C 0.35886 0.62224 0.57299 0.0
C815 C 0.36228 0.61907 0.52521 0.0
C816 C 0.35364 0.62537 0.48841 0.0
C817 C 0.35876 0.61906 0.44039 0.0
C818 C 0.34542 0.61016 0.41591 0.0
C819 C 0.36503 0.63216 0.40829 0.0
C820 C 0.37166 0.60818 0.45582 0.0
C821 C 0.3737 0.60861 0.5048 0.0
C822 C 0.38501 0.59969 0.52746 0.0
C823 C 0.39429 0.58986 0.49949 0.0
C824 C 0.39202 0.58878 0.44947 0.0
C825 C 0.38062 0.59817 0.42741 0.0
H826 H 0.11991 0.60124 0.31134 0.0
H827 H 0.09616 0.58623 0.18259 0.0
H828 H 0.11215 0.60425 0.13485 0.0
H829 H 0.12305 0.6424 0.27568 0.0
H830 H 0.14193 0.64473 0.30288 0.0
H831 H 0.12821 0.63099 0.32732 0.0
H832 H 0.14873 0.60904 0.31909 0.0
H833 H 0.16246 0.62268 0.29436 0.0
H834 H 0.15746 0.60532 0.26167 0.0
H835 H 0.13268 0.62169 0.09987 0.0
H836 H 0.15423 0.63999 0.08169 0.0
H837 H 0.16295 0.64547 0.23317 0.0
C838 C 0.11795 0.60192 0.27322 0.0
C839 C 0.1068 0.59234 0.25071 0.0
C840 C 0.10457 0.59355 0.2007 0.0
C841 C 0.11364 0.60369 0.17317 0.0
C842 C 0.12471 0.6128 0.19624 0.0
C843 C 0.1267 0.61227 0.24522 0.0
C844 C 0.13939 0.62337 0.26102 0.0
C845 C 0.13274 0.63613 0.29365 0.0
C846 C 0.1528 0.61457 0.28547 0.0
C847 C 0.14439 0.62995 0.21322 0.0
C848 C 0.1359 0.62359 0.17623 0.0
C849 C 0.13921 0.62701 0.12857 0.0
C850 C 0.15146 0.63734 0.11853 0.0
C851 C 0.15998 0.64429 0.15604 0.0
C852 C 0.15633 0.64058 0.20388 0.0
H853 H 0.10333 0.41775 0.98137 0.0
H854 H 0.10861 0.40916 0.82981 0.0
H855 H 0.1258 0.38666 0.84772 0.0
H856 H 0.14272 0.41131 1.00857 0.0
H857 H 0.13909 0.40276 0.06627 0.0
H858 H 0.1255 0.41655 0.0418 0.0
H859 H 0.10317 0.39647 0.05094 0.0
H860 H 0.1167 0.38259 0.07556 0.0
H861 H 0.10514 0.37749 0.02423 0.0
H862 H 0.14279 0.36568 0.88259 0.0
H863 H 0.16091 0.34971 0.93003 0.0
H864 H 0.14661 0.37393 0.05872 0.0
C865 C 0.10779 0.41086 0.95202 0.0
C866 C 0.10439 0.41483 0.90424 0.0
C867 C 0.11094 0.40606 0.8666 0.0
C868 C 0.12064 0.39329 0.87651 0.0
C869 C 0.12388 0.38976 0.92415 0.0
C870 C 0.11782 0.39844 0.96125 0.0
C871 C 0.12448 0.39341 1.00891 0.0
C872 C 0.13348 0.4068 0.03277 0.0
C873 C 0.1116 0.38711 0.04185 0.0
C874 C 0.13533 0.38056 0.99292 0.0
C875 C 0.13454 0.37842 0.94402 0.0
C876 C 0.14349 0.36725 0.92085 0.0
C877 C 0.15371 0.3582 0.9482 0.0
C878 C 0.15515 0.3606 0.99808 0.0
C879 C 0.14573 0.37185 0.02069 0.0
H880 H 0.22448 0.16401 0.9351 0.0
H881 H 0.26461 0.16774 0.02883 0.0
H882 H 0.28189 0.16843 0.95813 0.0
H883 H 0.2426 0.13965 0.84462 0.0
H884 H 0.23272 0.14927 0.79614 0.0
H885 H 0.22367 0.1482 0.85409 0.0
H886 H 0.22084 0.1782 0.85514 0.0
H887 H 0.22997 0.1794 0.79737 0.0
H888 H 0.23787 0.19019 0.84691 0.0
H889 H 0.29457 0.1699 0.87755 0.0
H890 H 0.30208 0.17154 0.7931 0.0
H891 H 0.25354 0.16704 0.75138 0.0
C892 C 0.23692 0.1648 0.94102 0.0
C893 C 0.24319 0.16578 0.98773 0.0
C894 C 0.25953 0.16691 0.99353 0.0
C895 C 0.26943 0.16733 0.95359 0.0
C896 C 0.2628 0.16657 0.90816 0.0
C897 C 0.24692 0.16526 0.90169 0.0
C898 C 0.24268 0.16513 0.84913 0.0
C899 C 0.23496 0.14964 0.83519 0.0
C900 C 0.23223 0.17906 0.83641 0.0
C901 C 0.25868 0.16672 0.82684 0.0
C902 C 0.2701 0.16748 0.86161 0.0
C903 C 0.28574 0.16924 0.85006 0.0
C904 C 0.28987 0.1702 0.80179 0.0
C905 C 0.27841 0.16942 0.7653 0.0
C906 C 0.26259 0.16764 0.77825 0.0
H907 H 0.08499 0.97267 0.16213 0.0
H908 H 0.11305 0.0063 0.23956 0.0
H909 H 0.11981 0.01915 0.16349 0.0
H910 H 0.10997 0.97001 0.05597 0.0
H911 H 0.09364 0.96855 0.01583 0.0
H912 H 0.09207 0.96113 0.07583 0.0
H913 H 0.06777 0.97838 0.09051 0.0
H914 H 0.06918 0.98572 0.03054 0.0
H915 H 0.06904 0.99905 0.0802 0.0
H916 H 0.12182 0.02952 0.08071 0.0
H917 H 0.11785 0.0376 0.99717 0.0
H918 H 0.08883 0.99704 0.97291 0.0
C919 C 0.0927 0.98264 0.16314 0.0
C920 C 0.09852 0.98846 0.20685 0.0
C921 C 0.10845 0.00162 0.20655 0.0
C922 C 0.11244 0.00894 0.16351 0.0
C923 C 0.10648 0.0029 0.12112 0.0
C924 C 0.0968 0.99007 0.12058 0.0
C925 C 0.0911 0.98654 0.07056 0.0
C926 C 0.09706 0.97061 0.05355 0.0
C927 C 0.07322 0.98749 0.06781 0.0
C928 C 0.09876 -0.00034 0.04316 0.0
C929 C 0.10774 0.00884 0.07299 0.0
C930 C 0.11503 0.02231 0.05686 0.0
C931 C 0.1127 0.0268 1.00938 0.0
C932 C 0.10317 0.01784 0.97858 0.0
C933 C 0.09648 0.00387 0.99537 0.0
H934 H 0.25488 0.84979 0.2601 0.0
H935 H 0.20592 0.85307 0.29784 0.0
H936 H 0.21298 0.85631 0.38233 0.0
H937 H 0.26592 0.82716 0.35886 0.0
H938 H 0.2846 0.83636 0.36708 0.0
H939 H 0.27582 0.83591 0.30881 0.0
H940 H 0.27784 0.86595 0.30357 0.0
H941 H 0.2866 0.86649 0.36199 0.0
H942 H 0.26932 0.87774 0.34997 0.0
H943 H 0.22507 0.85708 0.46351 0.0
H944 H 0.24151 0.85474 0.53555 0.0
H945 H 0.28255 0.85113 0.4454 0.0
C946 C 0.24567 0.85145 0.28605 0.0
C947 C 0.22985 0.85119 0.27223 0.0
C948 C 0.21813 0.85317 0.30745 0.0
C949 C 0.22201 0.85511 0.35561 0.0
C950 C 0.23768 0.85508 0.36819 0.0
C951 C 0.24934 0.85333 0.33449 0.0
C952 C 0.26521 0.85269 0.35801 0.0
C953 C 0.27336 0.8371 0.34757 0.0
C954 C 0.27534 0.86655 0.34245 0.0
C955 C 0.26058 0.854 0.41008 0.0
C956 C 0.24466 0.85553 0.41519 0.0
C957 C 0.23758 0.85607 0.46001 0.0
C958 C 0.24701 0.85474 0.50073 0.0
C959 C 0.26333 0.85283 0.4963 0.0
C960 C 0.27014 0.85276 0.45022 0.0
H961 H 0.41574 0.0325 0.65671 0.0
H962 H 0.39008 0.99779 0.73754 0.0
H963 H 0.38243 0.98495 0.66241 0.0
H964 H 0.38914 0.03441 0.55346 0.0
H965 H 0.40488 0.03632 0.51122 0.0
H966 H 0.407 0.04386 0.57092 0.0
H967 H 0.432 0.02738 0.58267 0.0
H968 H 0.43005 0.01997 0.52296 0.0
H969 H 0.43124 0.00667 0.57258 0.0
H970 H 0.37953 0.97459 0.58051 0.0
H971 H 0.38325 0.96611 0.49722 0.0
H972 H 0.41047 0.00753 0.46822 0.0
C973 C 0.40835 0.02231 0.65861 0.0
C974 C 0.40346 0.01618 0.70303 0.0
C975 C 0.39398 0.0027 0.70397 0.0
C976 C 0.38946 0.9954 0.66147 0.0
C977 C 0.39447 0.00175 0.61834 0.0
C978 C 0.40378 0.01484 0.61653 0.0
C979 C 0.40869 0.01849 0.56574 0.0
C980 C 0.40203 0.0342 0.54938 0.0
C981 C 0.42655 0.0181 0.56071 0.0
C982 C 0.40108 0.0051 0.53941 0.0
C983 C 0.39272 0.99575 0.57047 0.0
C984 C 0.38578 0.98194 0.55567 0.0
C985 C 0.38793 0.97724 0.50835 0.0
C986 C 0.39689 0.98634 0.47638 0.0
C987 C 0.40314 0.00067 0.49165 0.0
H988 H 0.75068 0.84874 0.24622 0.0
H989 H 0.79941 0.85452 0.28373 0.0
H990 H 0.79215 0.85782 0.36812 0.0
H991 H 0.73487 0.87641 0.33531 0.0
H992 H 0.71813 0.86437 0.34745 0.0
H993 H 0.72698 0.86413 0.2891 0.0
H994 H 0.73036 0.83422 0.29508 0.0
H995 H 0.72157 0.83439 0.35339 0.0
H996 H 0.74067 0.82608 0.34525 0.0
H997 H 0.77994 0.858 0.4496 0.0
H998 H 0.76343 0.85534 0.52162 0.0
H999 H 0.72278 0.84974 0.43101 0.0
C1000 C 0.75978 0.85103 0.27203 0.0
C1001 C 0.77561 0.85139 0.25823 0.0
C1002 C 0.7872 0.85415 0.29334 0.0
C1003 C 0.7832 0.85611 0.34144 0.0
C1004 C 0.76755 0.85533 0.35407 0.0
C1005 C 0.756 0.85295 0.32039 0.0
C1006 C 0.74017 0.85161 0.34388 0.0
C1007 C 0.7294 0.86493 0.32799 0.0
C1008 C 0.73277 0.83562 0.3338 0.0
C1009 C 0.74469 0.85325 0.39591 0.0
C1010 C 0.76051 0.85551 0.4011 0.0
C1011 C 0.76748 0.85645 0.44601 0.0
C1012 C 0.75803 0.85491 0.48671 0.0
C1013 C 0.7418 0.85242 0.48215 0.0
C1014 C 0.73511 0.85181 0.43597 0.0
H1015 H 0.91248 0.99477 0.97666 0.0
H1016 H 0.88346 0.03509 1.00419 0.0
H1017 H 0.87967 0.02644 0.08728 0.0
H1018 H 0.89147 0.96714 0.05888 0.0
H1019 H 0.90947 0.95816 0.07722 0.0
H1020 H 0.90761 0.96601 0.01782 0.0
H1021 H 0.93208 0.98303 0.03219 0.0
H1022 H 0.93387 0.97545 0.09176 0.0
H1023 H 0.93248 0.99615 0.08238 0.0
H1024 H 0.88203 0.01559 0.1697 0.0
H1025 H 0.88929 0.0024 0.24486 0.0
H1026 H 0.91698 0.96928 0.16412 0.0
C1027 C 0.90484 0.00142 0.9997 0.0
C1028 C 0.89813 0.0155 0.98392 0.0
C1029 C 0.88863 0.0242 0.01554 0.0
C1030 C 0.8864 0.01939 0.0628 0.0
C1031 C 0.89372 0.00581 0.07794 0.0
C1032 C 0.9026 0.99683 0.04724 0.0
C1033 C 0.9104 0.98359 0.07372 0.0
C1034 C 0.90437 0.96779 0.05585 0.0
C1035 C 0.92826 0.98463 0.06977 0.0
C1036 C 0.90491 0.98684 0.12414 0.0
C1037 C 0.89518 -0.00039 0.12578 0.0
C1038 C 0.88943 0.00541 0.16882 0.0
C1039 C 0.89369 0.99789 0.21134 0.0
C1040 C 0.90366 0.98477 0.21048 0.0
C1041 C 0.90922 0.97919 0.1661 0.0
H1042 H 0.74374 0.16425 0.98708 0.0
H1043 H 0.78443 0.1357 0.95975 0.0
H1044 H 0.77569 0.13152 0.87697 0.0
H1045 H 0.71621 0.14261 0.90646 0.0
H1046 H 0.70694 0.16039 0.8876 0.0
H1047 H 0.71497 0.15889 0.94685 0.0
H1048 H 0.73167 0.18348 0.93097 0.0
H1049 H 0.7239 0.18493 0.87155 0.0
H1050 H 0.74467 0.18384 0.8804 0.0
H1051 H 0.76463 0.13345 0.79455 0.0
H1052 H 0.75108 0.14022 0.71947 0.0
H1053 H 0.71773 0.16762 0.80026 0.0
C1054 C 0.75046 0.15663 0.96418 0.0
C1055 C 0.76467 0.15017 0.97991 0.0
C1056 C 0.77345 0.14069 0.94844 0.0
C1057 C 0.76858 0.13824 0.90135 0.0
C1058 C 0.75488 0.14532 0.88622 0.0
C1059 C 0.74582 0.15417 0.9168 0.0
C1060 C 0.7324 0.16166 0.89037 0.0
C1061 C 0.7167 0.15552 0.90892 0.0
C1062 C 0.73322 0.17953 0.89352 0.0
C1063 C 0.73561 0.15602 0.8401 0.0
C1064 C 0.74854 0.14649 0.83847 0.0
C1065 C 0.75431 0.14068 0.79545 0.0
C1066 C 0.7466 0.14465 0.75297 0.0
C1067 C 0.7333 0.15439 0.75389 0.0
C1068 C 0.72776 0.16002 0.79823 0.0
H1069 H 0.59151 0.00043 0.71993 0.0
H1070 H 0.6078 0.04693 0.68576 0.0
H1071 H 0.61217 0.03898 0.60235 0.0
H1072 H 0.6178 0.97908 0.63658 0.0
H1073 H 0.60285 0.96525 0.62105 0.0
H1074 H 0.60305 0.97392 0.67962 0.0
H1075 H 0.57468 0.98341 0.66726 0.0
H1076 H 0.57443 0.97486 0.60868 0.0
H1077 H 0.57009 0.99524 0.61602 0.0
H1078 H 0.61216 0.02699 0.52116 0.0
H1079 H 0.60782 0.01159 0.44789 0.0
H1080 H 0.59137 0.97297 0.53438 0.0
C1081 C 0.5964 0.00879 0.69515 0.0
C1082 C 0.59939 0.02426 0.70937 0.0
C1083 C 0.60541 0.035 0.67564 0.0
C1084 C 0.608 0.03059 0.62819 0.0
C1085 C 0.60453 0.01539 0.61491 0.0
C1086 C 0.59893 0.00461 0.64739 0.0
C1087 C 0.59488 0.98943 0.6229 0.0
C1088 C 0.60527 0.97613 0.64112 0.0
C1089 C 0.57749 0.98552 0.62908 0.0
C1090 C 0.59869 0.99353 0.57158 0.0
C1091 C 0.60441 0.00849 0.5678 0.0
C1092 C 0.6079 0.01517 0.52368 0.0
C1093 C 0.60536 0.00635 0.48226 0.0
C1094 C 0.5993 0.99105 0.48527 0.0
C1095 C 0.59615 0.98457 0.53072 0.0
H1096 H 0.75334 0.66354 0.46989 0.0
H1097 H 0.70832 0.64283 0.43928 0.0
H1098 H 0.71619 0.63874 0.35578 0.0
H1099 H 0.75629 0.6846 0.36549 0.0
H1100 H 0.77692 0.68192 0.35668 0.0
H1101 H 0.76886 0.68114 0.41591 0.0
H1102 H 0.78068 0.6537 0.42836 0.0
H1103 H 0.78894 0.65446 0.36923 0.0
H1104 H 0.77647 0.63849 0.38598 0.0
H1105 H 0.72725 0.64025 0.2737 0.0
H1106 H 0.74175 0.6457 0.19926 0.0
H1107 H 0.7798 0.66487 0.28267 0.0
C1108 C 0.74536 0.65769 0.44597 0.0
C1109 C 0.73024 0.65348 0.46116 0.0
C1110 C 0.71997 0.64618 0.42846 0.0
C1111 C 0.72433 0.64376 0.38092 0.0
C1112 C 0.73906 0.64859 0.36653 0.0
C1113 C 0.74953 0.65521 0.39814 0.0
C1114 C 0.76417 0.66042 0.3725 0.0
C1115 C 0.7667 0.67807 0.37797 0.0
C1116 C 0.77841 0.65121 0.39006 0.0
C1117 C 0.76006 0.65615 0.32155 0.0
C1118 C 0.74556 0.64926 0.31892 0.0
C1119 C 0.73876 0.64536 0.27532 0.0
C1120 C 0.74703 0.64857 0.23323 0.0
C1121 C 0.76195 0.65558 0.23513 0.0
C1122 C 0.76853 0.65926 0.28002 0.0
H1123 H 0.59293 0.52946 0.52587 0.0
H1124 H 0.60262 0.48935 0.43636 0.0
H1125 H 0.60737 0.47356 0.50879 0.0
H1126 H 0.62121 0.52083 0.62076 0.0
H1127 H 0.60829 0.52752 0.66715 0.0
H1128 H 0.60732 0.53603 0.60841 0.0
H1129 H 0.57794 0.52933 0.60359 0.0
H1130 H 0.57879 0.52086 0.66224 0.0
H1131 H 0.57173 0.5095 0.6127 0.0
H1132 H 0.60886 0.46176 0.59038 0.0
H1133 H 0.60586 0.45431 0.67477 0.0
H1134 H 0.5951 0.50216 0.71148 0.0
C1135 C 0.59631 0.51742 0.52125 0.0
C1136 C 0.5975 0.51067 0.47526 0.0
C1137 C 0.60169 0.4948 0.47112 0.0
C1138 C 0.60448 0.48577 0.51205 0.0
C1139 C 0.60306 0.4928 0.55677 0.0
C1140 C 0.59905 0.50826 0.56158 0.0
C1141 C 0.59709 0.51275 0.6136 0.0
C1142 C 0.6092 0.52501 0.62834 0.0
C1143 C 0.5804 0.51844 0.6236 0.0
C1144 C 0.60025 0.49726 0.63748 0.0
C1145 C 0.60386 0.48597 0.604 0.0
C1146 C 0.60624 0.47053 0.61689 0.0
C1147 C 0.60448 0.46642 0.66495 0.0
C1148 C 0.60034 0.47768 0.69973 0.0
C1149 C 0.59859 0.49338 0.68589 0.0
H1150 H 0.75379 0.34964 0.7364 0.0
H1151 H 0.70671 0.36354 0.77308 0.0
H1152 H 0.71443 0.36636 0.85732 0.0
H1153 H 0.75957 0.3262 0.8343 0.0
H1154 H 0.77979 0.33097 0.84351 0.0
H1155 H 0.77144 0.33256 0.78488 0.0
H1156 H 0.77996 0.36144 0.77994 0.0
H1157 H 0.78853 0.35989 0.83846 0.0
H1158 H 0.77424 0.37475 0.82649 0.0
H1159 H 0.72619 0.36409 0.93905 0.0
H1160 H 0.74171 0.35829 0.01134 0.0
H1161 H 0.78107 0.34602 0.92143 0.0
C1162 C 0.74528 0.35383 0.76188 0.0
C1163 C 0.72969 0.35648 0.74811 0.0
C1164 C 0.71874 0.36149 0.78281 0.0
C1165 C 0.72301 0.36314 0.83079 0.0
C1166 C 0.7383 0.35982 0.84364 0.0
C1167 C 0.74934 0.35545 0.81014 0.0
C1168 C 0.76459 0.35124 0.83397 0.0
C1169 C 0.7691 0.33424 0.82354 0.0
C1170 C 0.7776 0.36251 0.81881 0.0
C1171 C 0.76025 0.35348 0.88596 0.0
C1172 C 0.74509 0.35854 0.89087 0.0
C1173 C 0.73819 0.3604 0.93567 0.0
C1174 C 0.74706 0.35701 0.97653 0.0
C1175 C 0.76264 0.3518 0.97224 0.0
C1176 C 0.76926 0.35018 0.92618 0.0
H1177 H 0.90241 0.53187 0.18406 0.0
H1178 H 0.89664 0.49076 0.2725 0.0
H1179 H 0.89167 0.47511 0.19993 0.0
H1180 H 0.87328 0.52191 0.09232 0.0
H1181 H 0.88513 0.52971 0.04486 0.0
H1182 H 0.88627 0.53795 0.10392 0.0
H1183 H 0.91608 0.53324 0.10489 0.0
H1184 H 0.91505 0.52505 0.04595 0.0
H1185 H 0.92348 0.51393 0.09399 0.0
H1186 H 0.88998 0.46363 0.11779 0.0
H1187 H 0.89272 0.45687 0.03272 0.0
H1188 H 0.89964 0.50558 0.99791 0.0
C1189 C 0.89981 0.51963 0.18848 0.0
C1190 C 0.89983 0.51256 0.23414 0.0
C1191 C 0.89662 0.49645 0.23799 0.0
C1192 C 0.89372 0.48749 0.19699 0.0
C1193 C 0.894 0.49484 0.15255 0.0
C1194 C 0.89696 0.51056 0.14811 0.0
C1195 C 0.89796 0.51545 0.09622 0.0
C1196 C 0.88487 0.52694 0.0836 0.0
C1197 C 0.9141 0.52231 0.08461 0.0
C1198 C 0.89554 0.49992 0.07192 0.0
C1199 C 0.89306 0.48823 0.10507 0.0
C1200 C 0.89168 0.47272 0.09154 0.0
C1201 C 0.89329 0.469 0.04311 0.0
C1202 C 0.89629 0.48073 1.00869 0.0
C1203 C 0.89701 0.49643 0.02325 0.0
H1204 H 0.27992 0.33224 0.78693 0.0
H1205 H 0.24422 0.35393 0.69962 0.0
H1206 H 0.22861 0.35902 0.77202 0.0
H1207 H 0.2536 0.31314 0.86745 0.0
H1208 H 0.26584 0.31586 0.91904 0.0
H1209 H 0.27444 0.31446 0.86057 0.0
H1210 H 0.28815 0.34097 0.87373 0.0
H1211 H 0.27943 0.34254 0.93206 0.0
H1212 H 0.27667 0.35783 0.88883 0.0
H1213 H 0.21699 0.36185 0.85279 0.0
H1214 H 0.20844 0.3598 0.93618 0.0
H1215 H 0.25125 0.3356 0.9724 0.0
C1216 C 0.26883 0.33809 0.783 0.0
C1217 C 0.26332 0.34276 0.73752 0.0
C1218 C 0.24866 0.35021 0.73395 0.0
C1219 C 0.23977 0.35325 0.77492 0.0
C1220 C 0.24565 0.34868 0.81914 0.0
C1221 C 0.25973 0.34108 0.82347 0.0
C1222 C 0.26299 0.33675 0.87508 0.0
C1223 C 0.26429 0.319 0.88086 0.0
C1224 C 0.27768 0.34502 0.8935 0.0
C1225 C 0.24845 0.34302 0.89911 0.0
C1226 C 0.23874 0.35002 0.86607 0.0
C1227 C 0.22448 0.35639 0.87897 0.0
C1228 C 0.21974 0.35516 0.92656 0.0
C1229 C 0.22915 0.3475 0.96097 0.0
C1230 C 0.24389 0.34168 0.94716 0.0
H1231 H 0.40482 0.53163 0.51907 0.0
H1232 H 0.40217 0.49039 0.42978 0.0
H1233 H 0.39987 0.47409 0.50212 0.0
H1234 H 0.42865 0.51577 0.60646 0.0
H1235 H 0.41956 0.52561 0.65599 0.0
H1236 H 0.41906 0.5342 0.59745 0.0
H1237 H 0.38894 0.53557 0.60128 0.0
H1238 H 0.38933 0.52705 0.66006 0.0
H1239 H 0.37793 0.51815 0.61346 0.0
H1240 H 0.40069 0.4622 0.58339 0.0
H1241 H 0.40405 0.45538 0.6681 0.0
H1242 H 0.40595 0.5044 0.70498 0.0
C1243 C 0.40346 0.5192 0.51451 0.0
C1244 C 0.40364 0.51229 0.46862 0.0
C1245 C 0.402 0.49596 0.46448 0.0
C1246 C 0.40067 0.48661 0.50535 0.0
C1247 C 0.40088 0.49379 0.55 0.0
C1248 C 0.40212 0.50972 0.55482 0.0
C1249 C 0.40312 0.51447 0.60684 0.0
C1250 C 0.41851 0.52301 0.61727 0.0
C1251 C 0.38898 0.5244 0.62125 0.0
C1252 C 0.40267 0.49867 0.63062 0.0
C1253 C 0.40125 0.48692 0.59712 0.0
C1254 C 0.40159 0.4713 0.60997 0.0
C1255 C 0.40359 0.46755 0.65819 0.0
C1256 C 0.40523 0.47937 0.69315 0.0
C1257 C 0.4045 0.49514 0.67916 0.0
H1258 H 0.24331 0.66337 0.46267 0.0
H1259 H 0.28856 0.64352 0.42983 0.0
H1260 H 0.28085 0.64056 0.34575 0.0
H1261 H 0.22056 0.63928 0.37624 0.0
H1262 H 0.20791 0.6553 0.36136 0.0
H1263 H 0.21622 0.65394 0.42029 0.0
H1264 H 0.22776 0.68163 0.41074 0.0
H1265 H 0.21965 0.68302 0.35171 0.0
H1266 H 0.24026 0.68581 0.3606 0.0
H1267 H 0.26964 0.64286 0.26355 0.0
H1268 H 0.25488 0.64881 0.18995 0.0
H1269 H 0.21682 0.66664 0.27619 0.0
C1270 C 0.25141 0.65797 0.43809 0.0
C1271 C 0.26652 0.65365 0.45294 0.0
C1272 C 0.27691 0.64694 0.41936 0.0
C1273 C 0.27264 0.64517 0.37144 0.0
C1274 C 0.25789 0.65006 0.35756 0.0
C1275 C 0.24733 0.65614 0.38994 0.0
C1276 C 0.23263 0.66148 0.36504 0.0
C1277 C 0.21849 0.65193 0.38173 0.0
C1278 C 0.22993 0.67902 0.37247 0.0
C1279 C 0.23676 0.65786 0.31365 0.0
C1280 C 0.25134 0.6512 0.31006 0.0
C1281 C 0.25808 0.64781 0.26592 0.0
C1282 C 0.24965 0.65129 0.22431 0.0
C1283 C 0.23466 0.65807 0.22724 0.0
C1284 C 0.22816 0.66124 0.27265 0.0
H1285 H 0.09537 0.53503 0.18124 0.0
H1286 H 0.10263 0.49405 0.26921 0.0
H1287 H 0.10765 0.47856 0.19634 0.0
H1288 H 0.07426 0.51664 0.09261 0.0
H1289 H 0.08212 0.52794 0.04402 0.0
H1290 H 0.08129 0.53612 0.10301 0.0
H1291 H 0.11098 0.54151 0.10008 0.0
H1292 H 0.11192 0.5333 0.04094 0.0
H1293 H 0.12425 0.52577 0.08759 0.0
H1294 H 0.10909 0.46713 0.11412 0.0
H1295 H 0.10584 0.46029 0.02931 0.0
H1296 H 0.09754 0.50882 0.99501 0.0
C1297 C 0.09832 0.52286 0.18549 0.0
C1298 C 0.09868 0.51577 0.2311 0.0
C1299 C 0.10234 0.49976 0.23473 0.0
C1300 C 0.10528 0.49089 0.19356 0.0
C1301 C 0.10458 0.49824 0.14916 0.0
C1302 C 0.1012 0.51388 0.14494 0.0
C1303 C 0.09975 0.51874 0.09313 0.0
C1304 C 0.08338 0.52523 0.0826 0.0
C1305 C 0.11249 0.53053 0.07965 0.0
C1306 C 0.10236 0.50327 0.06867 0.0
C1307 C 0.10536 0.49165 0.10163 0.0
C1308 C 0.10698 0.47617 0.088 0.0
C1309 C 0.10508 0.47241 0.03972 0.0
C1310 C 0.10153 0.48405 1.00555 0.0
C1311 C 0.10058 0.49973 0.02014 0.0
H1312 H 0.21539 0.22092 0.15571 0.0
H1313 H 0.17056 0.20968 0.093 0.0
H1314 H 0.16343 0.23751 0.09454 0.0
H1315 H 0.20212 0.25454 0.23059 0.0
H1316 H 0.21979 0.26517 0.2185 0.0
H1317 H 0.22012 0.24421 0.2209 0.0
H1318 H 0.23222 0.24343 0.13615 0.0
H1319 H 0.23183 0.2643 0.13331 0.0
H1320 H 0.22231 0.25301 0.08763 0.0
H1321 H 0.16269 0.26672 0.09251 0.0
H1322 H 0.16851 0.29476 0.08599 0.0
H1323 H 0.21405 0.28674 0.14871 0.0
C1324 C 0.20387 0.22421 0.14372 0.0
C1325 C 0.19349 0.21309 0.12455 0.0
C1326 C 0.17867 0.21797 0.1081 0.0
C1327 C 0.1745 0.23376 0.10898 0.0
C1328 C 0.18524 0.24449 0.12661 0.0
C1329 C 0.19959 0.2399 0.14397 0.0
C1330 C 0.20973 0.25377 0.15586 0.0
C1331 C 0.21314 0.25446 0.20967 0.0
C1332 C 0.2249 0.25361 0.12647 0.0
C1333 C 0.19909 0.26689 0.14067 0.0
C1334 C 0.18491 0.26134 0.12474 0.0
C1335 C 0.17365 0.27122 0.10567 0.0
C1336 C 0.17708 0.28714 0.10202 0.0
C1337 C 0.19174 0.29299 0.11689 0.0
C1338 C 0.20269 0.2827 0.1374 0.0
H1339 H 0.03632 0.94324 0.33427 0.0
H1340 H 0.04475 0.98334 0.4248 0.0
H1341 H 0.01663 0.98519 0.44176 0.0
H1342 H 0.00316 0.95776 0.28044 0.0
H1343 H 0.99284 0.93953 0.27694 0.0
H1344 H 0.01379 0.93969 0.27777 0.0
H1345 H 0.01376 0.92138 0.35126 0.0
H1346 H 0.99276 0.92108 0.35051 0.0
H1347 H 0.00296 0.9268 0.40391 0.0
H1348 H 0.98771 0.98482 0.44106 0.0
H1349 H 0.95973 0.98214 0.4232 0.0
H1350 H 0.96973 0.94231 0.33298 0.0
C1351 C 0.03228 0.95212 0.35877 0.0
C1352 C 0.04272 0.96308 0.37849 0.0
C1353 C 0.03696 0.97479 0.40937 0.0
C1354 C 0.02101 0.9759 0.41939 0.0
C1355 C 0.01097 0.9652 0.39832 0.0
C1356 C 0.01635 0.95347 0.36885 0.0
C1357 C 0.00295 0.94441 0.34722 0.0
C1358 C 0.00321 0.94542 0.29236 0.0
C1359 C 0.00312 0.92741 0.36426 0.0
C1360 C 0.98922 0.95319 0.36798 0.0
C1361 C 0.99413 0.96502 0.3978 0.0
C1362 C 0.9837 0.97544 0.41843 0.0
C1363 C 0.96783 0.97387 0.40789 0.0
C1364 C 0.96253 0.96197 0.37691 0.0
C1365 C 0.97339 0.95135 0.35743 0.0
H1366 H 0.27678 0.78679 0.63724 0.0
H1367 H 0.32546 0.79482 0.60293 0.0
H1368 H 0.32986 0.76647 0.59975 0.0
H1369 H 0.28248 0.75149 0.70984 0.0
H1370 H 0.26511 0.74236 0.68699 0.0
H1371 H 0.26616 0.76325 0.69155 0.0
H1372 H 0.25953 0.76567 0.60161 0.0
H1373 H 0.25855 0.74482 0.59672 0.0
H1374 H 0.27145 0.75568 0.55836 0.0
H1375 H 0.3286 0.73744 0.59465 0.0
H1376 H 0.32174 0.7097 0.58716 0.0
H1377 H 0.27374 0.72057 0.62339 0.0
C1378 C 0.28844 0.7826 0.63004 0.0
C1379 C 0.3008 0.79303 0.62062 0.0
C1380 C 0.31582 0.78706 0.61036 0.0
C1381 C 0.31845 0.77097 0.6086 0.0
C1382 C 0.30594 0.76102 0.61715 0.0
C1383 C 0.29124 0.76659 0.62775 0.0
C1384 C 0.27959 0.75343 0.63228 0.0
C1385 C 0.27295 0.75259 0.6832 0.0
C1386 C 0.26651 0.755 0.59502 0.0
C1387 C 0.28998 0.73962 0.62168 0.0
C1388 C 0.30517 0.74425 0.61353 0.0
C1389 C 0.31678 0.73366 0.60137 0.0
C1390 C 0.31274 0.71791 0.59711 0.0
C1391 C 0.2972 0.71291 0.60471 0.0
C1392 C 0.28574 0.72397 0.61758 0.0
H1393 H 0.46684 0.02402 0.86532 0.0
H1394 H 0.45663 0.0735 0.86607 0.0
H1395 H 0.48461 0.07922 0.87567 0.0
H1396 H 0.49963 0.02528 0.95124 0.0
H1397 H 0.51049 0.01071 0.91906 0.0
H1398 H 0.48949 0.01043 0.9181 0.0
H1399 H 0.48996 0.01108 0.82563 0.0
H1400 H 0.51091 0.01142 0.8263 0.0
H1401 H 0.50031 0.02649 0.79554 0.0
H1402 H 0.51372 0.07969 0.87738 0.0
H1403 H 0.54196 0.0749 0.87089 0.0
H1404 H 0.53334 0.02511 0.86871 0.0
C1405 C 0.47044 0.03605 0.8686 0.0
C1406 C 0.45951 0.04831 0.86519 0.0
C1407 C 0.46476 0.06391 0.86869 0.0
C1408 C 0.48063 0.06728 0.8743 0.0
C1409 C 0.49112 0.05494 0.87649 0.0
C1410 C 0.48625 0.03963 0.87395 0.0
C1411 C 0.5 0.02858 0.8736 0.0
C1412 C 0.49989 0.01813 0.91816 0.0
C1413 C 0.50031 0.01883 0.82753 0.0
C1414 C 0.51336 0.04008 0.87508 0.0
C1415 C 0.50798 0.05521 0.87725 0.0
C1416 C 0.51809 0.06789 0.8763 0.0
C1417 C 0.53412 0.06504 0.87248 0.0
C1418 C 0.53991 0.04962 0.86947 0.0
C1419 C 0.52934 0.03702 0.87152 0.0
H1420 H 0.22773 0.7908 0.09123 0.0
H1421 H 0.1785 0.80213 0.09982 0.0
H1422 H 0.17198 0.77432 0.09119 0.0
H1423 H 0.22376 0.75851 1.00451 0.0
H1424 H 0.23885 0.74726 0.03294 0.0
H1425 H 0.23957 0.76822 0.03461 0.0
H1426 H 0.2411 0.76735 0.12695 0.0
H1427 H 0.24029 0.74645 0.12562 0.0
H1428 H 0.22621 0.75722 0.16004 0.0
H1429 H 0.1709 0.74518 0.0909 0.0
H1430 H 0.17534 0.71683 0.09525 0.0
H1431 H 0.22522 0.72454 0.08486 0.0
C1432 C 0.21556 0.7875 0.09036 0.0
C1433 C 0.20363 0.79868 0.09617 0.0
C1434 C 0.18786 0.79381 0.09526 0.0
C1435 C 0.18402 0.77803 0.09035 0.0
C1436 C 0.19608 0.76728 0.08588 0.0
C1437 C 0.21152 0.77182 0.08529 0.0
C1438 C 0.22229 0.75788 0.08266 0.0
C1439 C 0.23167 0.75798 0.03589 0.0
C1440 C 0.2331 0.75719 0.12643 0.0
C1441 C 0.2105 0.74479 0.08328 0.0
C1442 C 0.19544 0.75046 0.08488 0.0
C1443 C 0.18262 0.74059 0.08886 0.0
C1444 C 0.18527 0.72452 0.09151 0.0
C1445 C 0.20061 0.71846 0.09004 0.0
C1446 C 0.21334 0.72878 0.08527 0.0
H1447 H 0.46656 0.94464 0.37957 0.0
H1448 H 0.45757 0.9793 0.27019 0.0
H1449 H 0.48572 0.98151 0.25487 0.0
H1450 H 0.49931 0.963 0.42774 0.0
H1451 H 0.51004 0.94543 0.44008 0.0
H1452 H 0.48909 0.94502 0.43879 0.0
H1453 H 0.48981 0.92321 0.37502 0.0
H1454 H 0.51081 0.92351 0.37623 0.0
H1455 H 0.50062 0.92619 0.32059 0.0
H1456 H 0.51451 0.98196 0.25624 0.0
H1457 H 0.54255 0.98058 0.27417 0.0
H1458 H 0.5334 0.94565 0.38273 0.0
C1459 C 0.47051 0.95242 0.35167 0.0
C1460 C 0.45986 0.96175 0.32594 0.0
C1461 C 0.4655 0.97205 0.2904 0.0
C1462 C 0.48147 0.97335 0.28125 0.0
C1463 C 0.49168 0.96426 0.30788 0.0
C1464 C 0.48648 0.95395 0.34227 0.0
C1465 C 0.50005 0.94644 0.36818 0.0
C1466 C 0.49959 0.9502 0.42187 0.0
C1467 C 0.50034 0.92879 0.35947 0.0
C1468 C 0.51363 0.95443 0.34371 0.0
C1469 C 0.5085 0.96455 0.30876 0.0
C1470 C 0.51872 0.97394 0.28308 0.0
C1471 C 0.53462 0.97311 0.29369 0.0
C1472 C 0.54018 0.96296 0.32972 0.0
C1473 C 0.52953 0.95335 0.35453 0.0
H1474 H 0.28598 0.22182 0.55937 0.0
H1475 H 0.33357 0.21267 0.6033 0.0
H1476 H 0.33959 0.2407 0.5962 0.0
H1477 H 0.29507 0.25486 0.4757 0.0
H1478 H 0.27762 0.26504 0.49315 0.0
H1479 H 0.27797 0.24407 0.49308 0.0
H1480 H 0.26931 0.24393 0.58173 0.0
H1481 H 0.26904 0.26482 0.58221 0.0
H1482 H 0.28069 0.25443 0.62518 0.0
H1483 H 0.33905 0.27005 0.59781 0.0
H1484 H 0.33225 0.29789 0.60518 0.0
H1485 H 0.28516 0.28752 0.55859 0.0
C1486 C 0.29781 0.22562 0.56616 0.0
C1487 C 0.30931 0.21505 0.58184 0.0
C1488 C 0.32459 0.22054 0.59085 0.0
C1489 C 0.32812 0.23645 0.58691 0.0
C1490 C 0.31631 0.24665 0.57314 0.0
C1491 C 0.30152 0.24139 0.56218 0.0
C1492 C 0.29048 0.25476 0.55274 0.0
C1493 C 0.28497 0.25468 0.50056 0.0
C1494 C 0.27657 0.25446 0.58755 0.0
C1495 C 0.30115 0.26839 0.56245 0.0
C1496 C 0.31607 0.26353 0.57348 0.0
C1497 C 0.32751 0.27401 0.58815 0.0
C1498 C 0.32352 0.2898 0.59237 0.0
C1499 C 0.30819 0.29493 0.58219 0.0
C1500 C 0.29705 0.28406 0.56592 0.0
H1501 H 0.96757 0.02456 0.83075 0.0
H1502 H 0.95777 0.0728 0.86587 0.0
H1503 H 0.98588 0.07867 0.86302 0.0
H1504 H 0.00129 0.02112 0.90192 0.0
H1505 H 0.01162 0.00878 0.86064 0.0
H1506 H 0.99066 0.00859 0.8619 0.0
H1507 H 0.98996 0.0151 0.77158 0.0
H1508 H 0.01094 0.01529 0.77003 0.0
H1509 H 0.00015 0.03202 0.74983 0.0
H1510 H 0.0151 0.07902 0.86075 0.0
H1511 H 0.04335 0.07374 0.85992 0.0
H1512 H 0.03406 0.02527 0.82642 0.0
C1513 C 0.97129 0.03641 0.83725 0.0
C1514 C 0.96042 0.04823 0.84839 0.0
C1515 C 0.96584 0.06354 0.85721 0.0
C1516 C 0.98179 0.06701 0.85557 0.0
C1517 C 0.99219 0.05506 0.84499 0.0
C1518 C 0.98717 0.04007 0.83591 0.0
C1519 C 0.00078 0.0292 0.82762 0.0
C1520 C 0.0011 0.01616 0.86527 0.0
C1521 C 0.00043 0.02251 0.77673 0.0
C1522 C 0.01425 0.04037 0.8341 0.0
C1523 C 0.00904 0.05525 0.8438 0.0
C1524 C 0.01932 0.06744 0.85281 0.0
C1525 C 0.03536 0.06431 0.85231 0.0
C1526 C 0.04096 0.0491 0.84297 0.0
C1527 C 0.0302 0.03706 0.83327 0.0
H1528 H 0.77228 0.72155 0.08623 0.0
H1529 H 0.82175 0.7112 0.09155 0.0
H1530 H 0.82769 0.73918 0.08426 0.0
H1531 H 0.77473 0.75479 1.00276 0.0
H1532 H 0.7598 0.76553 0.03375 0.0
H1533 H 0.75941 0.74456 0.03369 0.0
H1534 H 0.75893 0.74449 0.12618 0.0
H1535 H 0.75933 0.76542 0.12653 0.0
H1536 H 0.77399 0.75462 0.1585 0.0
H1537 H 0.82831 0.76819 0.08253 0.0
H1538 H 0.82358 0.79637 0.08965 0.0
H1539 H 0.77367 0.78801 0.08717 0.0
C1540 C 0.78437 0.72514 0.08486 0.0
C1541 C 0.79656 0.71418 0.08914 0.0
C1542 C 0.81222 0.71938 0.08826 0.0
C1543 C 0.81572 0.73524 0.0839 0.0
C1544 C 0.80343 0.74576 0.08051 0.0
C1545 C 0.78807 0.74095 0.08098 0.0
C1546 C 0.77706 0.75473 0.08072 0.0
C1547 C 0.76717 0.75491 0.035 0.0
C1548 C 0.76673 0.75482 0.12566 0.0
C1549 C 0.78864 0.76802 0.0812 0.0
C1550 C 0.80378 0.76259 0.08037 0.0
C1551 C 0.8165 0.77261 0.08273 0.0
C1552 C 0.81368 0.78861 0.08683 0.0
C1553 C 0.79825 0.79444 0.08892 0.0
C1554 C 0.7856 0.78396 0.08527 0.0
H1555 H 0.69052 0.22098 0.63767 0.0
H1556 H 0.72993 0.21076 0.5456 0.0
H1557 H 0.7331 0.23873 0.52904 0.0
H1558 H 0.67532 0.25449 0.56831 0.0
H1559 H 0.6701 0.26516 0.62135 0.0
H1560 H 0.66969 0.24419 0.62168 0.0
H1561 H 0.68827 0.24396 0.69453 0.0
H1562 H 0.6888 0.26489 0.69428 0.0
H1563 H 0.70669 0.25397 0.69075 0.0
H1564 H 0.73375 0.26755 0.52846 0.0
H1565 H 0.73168 0.29571 0.54315 0.0
H1566 H 0.69183 0.28767 0.63556 0.0
C1567 C 0.69958 0.22461 0.61317 0.0
C1568 C 0.70994 0.21368 0.59276 0.0
C1569 C 0.72186 0.21892 0.56166 0.0
C1570 C 0.72372 0.23478 0.55187 0.0
C1571 C 0.71356 0.24527 0.57337 0.0
C1572 C 0.70167 0.24045 0.60321 0.0
C1573 C 0.69312 0.25425 0.62442 0.0
C1574 C 0.67604 0.25454 0.60794 0.0
C1575 C 0.6943 0.25426 0.67924 0.0
C1576 C 0.7023 0.26755 0.6027 0.0
C1577 C 0.71395 0.26207 0.57307 0.0
C1578 C 0.72456 0.27201 0.55107 0.0
C1579 C 0.72332 0.28799 0.55985 0.0
C1580 C 0.71156 0.29391 0.59039 0.0
C1581 C 0.7008 0.28352 0.61154 0.0
H1582 H 0.77603 0.28602 0.12719 0.0
H1583 H 0.82475 0.29397 0.09314 0.0
H1584 H 0.82981 0.26581 0.09974 0.0
H1585 H 0.78214 0.25358 0.21163 0.0
H1586 H 0.76515 0.24324 0.1911 0.0
H1587 H 0.76564 0.26419 0.18873 0.0
H1588 H 0.75953 0.26328 0.09821 0.0
H1589 H 0.75905 0.24237 0.10027 0.0
H1590 H 0.77193 0.25212 0.05915 0.0
H1591 H 0.82924 0.23679 0.10364 0.0
H1592 H 0.82303 0.20879 0.10329 0.0
H1593 H 0.77461 0.21953 0.13424 0.0
C1594 C 0.78783 0.28188 0.12205 0.0
C1595 C 0.80001 0.29224 0.10987 0.0
C1596 C 0.81523 0.28629 0.10255 0.0
C1597 C 0.81823 0.27031 0.10639 0.0
C1598 C 0.80592 0.2604 0.11764 0.0
C1599 C 0.79103 0.26594 0.12545 0.0
C1600 C 0.77967 0.2527 0.13376 0.0
C1601 C 0.77274 0.25348 0.18432 0.0
C1602 C 0.76679 0.25262 0.09557 0.0
C1603 C 0.79045 0.23886 0.12834 0.0
C1604 C 0.80557 0.24358 0.11956 0.0
C1605 C 0.81748 0.23294 0.111 0.0
C1606 C 0.81381 0.21704 0.11079 0.0
C1607 C 0.79833 0.21191 0.11889 0.0
C1608 C 0.78659 0.22303 0.12847 0.0
H1609 H 0.72414 0.722 0.62321 0.0
H1610 H 0.67576 0.71294 0.58731 0.0
H1611 H 0.67018 0.74104 0.59201 0.0
H1612 H 0.71676 0.75419 0.70639 0.0
H1613 H 0.7337 0.76488 0.68709 0.0
H1614 H 0.73364 0.74393 0.68465 0.0
H1615 H 0.74044 0.74498 0.59455 0.0
H1616 H 0.74052 0.7659 0.59671 0.0
H1617 H 0.72816 0.75595 0.55466 0.0
H1618 H 0.67027 0.77019 0.59438 0.0
H1619 H 0.67605 0.79831 0.59437 0.0
H1620 H 0.72426 0.78835 0.62993 0.0
C1621 C 0.71232 0.72587 0.61695 0.0
C1622 C 0.70039 0.71522 0.60495 0.0
C1623 C 0.6851 0.72084 0.59663 0.0
C1624 C 0.68179 0.73679 0.59934 0.0
C1625 C 0.69386 0.74697 0.61069 0.0
C1626 C 0.7088 0.74174 0.61956 0.0
C1627 C 0.71983 0.75517 0.62871 0.0
C1628 C 0.72636 0.7545 0.67975 0.0
C1629 C 0.73301 0.75551 0.59143 0.0
C1630 C 0.70883 0.76878 0.62254 0.0
C1631 C 0.69388 0.7638 0.61248 0.0
C1632 C 0.68188 0.77424 0.60279 0.0
C1633 C 0.6853 0.79019 0.60279 0.0
C1634 C 0.70059 0.79556 0.61242 0.0
C1635 C 0.71241 0.78466 0.62314 0.0
H1636 H 0.53274 0.44024 0.82879 0.0
H1637 H 0.54323 0.48143 0.91258 0.0
H1638 H 0.51537 0.48458 0.93086 0.0
H1639 H 0.49934 0.45493 0.77537 0.0
H1640 H 0.4885 0.43696 0.77591 0.0
H1641 H 0.50944 0.43654 0.77464 0.0
H1642 H 0.50967 0.41949 0.85094 0.0
H1643 H 0.48867 0.41985 0.8524 0.0
H1644 H 0.49965 0.42615 0.9037 0.0
H1645 H 0.48661 0.4853 0.93223 0.0
H1646 H 0.4584 0.48344 0.91674 0.0
H1647 H 0.466 0.44159 0.83333 0.0
C1648 C 0.5292 0.44969 0.85193 0.0
C1649 C 0.54018 0.46056 0.86937 0.0
C1650 C 0.53505 0.47297 0.89872 0.0
C1651 C 0.51924 0.47481 0.90956 0.0
C1652 C 0.50869 0.46413 0.89098 0.0
C1653 C 0.51341 0.45176 0.86297 0.0
C1654 C 0.4995 0.44275 0.84423 0.0
C1655 C 0.49918 0.44281 0.78929 0.0
C1656 C 0.49937 0.42607 0.86401 0.0
C1657 C 0.48626 0.4523 0.86489 0.0
C1658 C 0.49187 0.46447 0.89215 0.0
C1659 C 0.48204 0.47566 0.91174 0.0
C1660 C 0.46605 0.47454 0.9026 0.0
C1661 C 0.46005 0.46229 0.87428 0.0
C1662 C 0.47026 0.45086 0.85603 0.0
H1663 H 0.96591 0.52877 0.38572 0.0
H1664 H 0.95577 0.57686 0.34964 0.0
H1665 H 0.98381 0.58297 0.35235 0.0
H1666 H 0.99927 0.53671 0.46562 0.0
H1667 H 0.00994 0.51996 0.44488 0.0
H1668 H 0.98895 0.51969 0.44529 0.0
H1669 H 0.98885 0.5129 0.35518 0.0
H1670 H 0.00981 0.5132 0.35445 0.0
H1671 H 0.99902 0.52537 0.31382 0.0
H1672 H 0.01286 0.58343 0.35177 0.0
H1673 H 0.04107 0.57822 0.348 0.0
H1674 H 0.03254 0.52983 0.38444 0.0
C1675 C 0.96955 0.54066 0.37938 0.0
C1676 C 0.9586 0.55235 0.36769 0.0
C1677 C 0.9639 0.5677 0.35874 0.0
C1678 C 0.97981 0.57131 0.36034 0.0
C1679 C 0.99031 0.55946 0.37104 0.0
C1680 C 0.98542 0.54445 0.38059 0.0
C1681 C 0.99918 0.53366 0.38789 0.0
C1682 C 0.99934 0.52712 0.43896 0.0
C1683 C 0.99921 0.52051 0.35061 0.0
C1684 C 0.01255 0.54488 0.37988 0.0
C1685 C 0.00716 0.55972 0.37062 0.0
C1686 C 0.01724 0.5719 0.35954 0.0
C1687 C 0.03325 0.5688 0.35736 0.0
C1688 C 0.03906 0.55363 0.36613 0.0
C1689 C 0.02852 0.5416 0.37819 0.0
H1690 H 0.9655 0.44774 0.88019 0.0
H1691 H 0.95549 0.49172 0.81024 0.0
H1692 H 0.98354 0.49598 0.79753 0.0
H1693 H 0.99853 0.46073 0.94278 0.0
H1694 H 0.00942 0.44291 0.93665 0.0
H1695 H 0.98846 0.44244 0.93638 0.0
H1696 H 0.9888 0.42836 0.85462 0.0
H1697 H 0.00979 0.42875 0.85471 0.0
H1698 H 0.99918 0.43695 0.80523 0.0
H1699 H 0.01238 0.4966 0.79757 0.0
H1700 H 0.04059 0.49349 0.81009 0.0
H1701 H 0.03233 0.4491 0.87996 0.0
C1702 C 0.9692 0.45812 0.86146 0.0
C1703 C 0.95829 0.46938 0.84613 0.0
C1704 C 0.96362 0.48294 0.82242 0.0
C1705 C 0.97953 0.48545 0.81484 0.0
C1706 C 0.98999 0.47429 0.83108 0.0
C1707 C 0.9851 0.46087 0.85377 0.0
C1708 C 0.99888 0.45121 0.87013 0.0
C1709 C 0.99881 0.44922 0.92472 0.0
C1710 C 0.99917 0.43538 0.84464 0.0
C1711 C 0.01224 0.46147 0.85388 0.0
C1712 C 0.00681 0.47466 0.83114 0.0
C1713 C 0.01681 0.48625 0.81487 0.0
C1714 C 0.03282 0.48439 0.82234 0.0
C1715 C 0.03869 0.47103 0.84591 0.0
C1716 C 0.02823 0.45936 0.86137 0.0
H1717 H 0.46657 0.52803 0.31045 0.0
H1718 H 0.45762 0.57636 0.34634 0.0
H1719 H 0.48584 0.58172 0.34406 0.0
H1720 H 0.49888 0.52365 0.38336 0.0
H1721 H 0.50962 0.51116 0.3435 0.0
H1722 H 0.48869 0.51151 0.34119 0.0
H1723 H 0.48972 0.51835 0.25117 0.0
H1724 H 0.51071 0.51794 0.25312 0.0
H1725 H 0.50076 0.53504 0.23167 0.0
H1726 H 0.51487 0.58126 0.34666 0.0
H1727 H 0.54282 0.57507 0.3534 0.0
H1728 H 0.53306 0.52701 0.31599 0.0
C1729 C 0.4705 0.53984 0.31659 0.0
C1730 C 0.45986 0.5518 0.3283 0.0
C1731 C 0.46554 0.56701 0.33718 0.0
C1732 C 0.48154 0.57019 0.33582 0.0
C1733 C 0.49174 0.55805 0.32539 0.0
C1734 C 0.48646 0.54319 0.31566 0.0
C1735 C 0.49992 0.53196 0.30935 0.0
C1736 C 0.49923 0.5188 0.34658 0.0
C1737 C 0.5003 0.52544 0.25828 0.0
C1738 C 0.51357 0.54275 0.31837 0.0
C1739 C 0.50858 0.55777 0.32705 0.0
C1740 C 0.51894 0.56959 0.33924 0.0
C1741 C 0.5348 0.56594 0.34315 0.0
C1742 C 0.54017 0.55057 0.33502 0.0
C1743 C 0.52938 0.53891 0.32176 0.0
H1744 H 0.2399 0.18452 0.27894 0.0
H1745 H 0.23772 0.13519 0.24805 0.0
H1746 H 0.24638 0.12935 0.3308 0.0
H1747 H 0.27305 0.18432 0.35569 0.0
H1748 H 0.26519 0.19865 0.39604 0.0
H1749 H 0.25942 0.19867 0.33427 0.0
H1750 H 0.23043 0.19687 0.3596 0.0
H1751 H 0.23612 0.19681 0.42147 0.0
H1752 H 0.22423 0.18127 0.39825 0.0
H1753 H 0.25743 0.12942 0.41648 0.0
H1754 H 0.26649 0.13521 0.4989 0.0
H1755 H 0.25801 0.18427 0.47482 0.0
C1756 C 0.24132 0.17248 0.28958 0.0
C1757 C 0.23838 0.16028 0.25711 0.0
C1758 C 0.24 0.14468 0.27249 0.0
C1759 C 0.24494 0.14129 0.31931 0.0
C1760 C 0.24779 0.15364 0.35054 0.0
C1761 C 0.24574 0.16892 0.33639 0.0
C1762 C 0.24881 0.18011 0.37703 0.0
C1763 C 0.26243 0.19108 0.36503 0.0
C1764 C 0.23401 0.1893 0.38984 0.0
C1765 C 0.25314 0.1688 0.41624 0.0
C1766 C 0.25277 0.15359 0.40027 0.0
C1767 C 0.25745 0.14127 0.42954 0.0
C1768 C 0.26259 0.14464 0.47619 0.0
C1769 C 0.26257 0.16011 0.49338 0.0
C1770 C 0.2577 0.17227 0.46298 0.0
H1771 H 0.09994 0.97428 0.51381 0.0
H1772 H 0.11374 0.0179 0.4488 0.0
H1773 H 0.11755 0.02941 0.52886 0.0
H1774 H 0.07676 0.99108 0.59945 0.0
H1775 H 0.08093 0.97734 0.64635 0.0
H1776 H 0.08254 0.97147 0.58497 0.0
H1777 H 0.11113 0.96298 0.59898 0.0
H1778 H 0.10958 0.96873 0.66068 0.0
H1779 H 0.12484 0.97666 0.62375 0.0
H1780 H 0.11695 0.03704 0.61525 0.0
H1781 H 0.11056 0.0407 0.70049 0.0
H1782 H 0.09546 0.99258 0.70905 0.0
C1783 C 0.10439 0.98604 0.5166 0.0
C1784 C 0.10695 0.99512 0.47534 0.0
C1785 C 0.112 0.01071 0.48013 0.0
C1786 C 0.11421 0.01732 0.52542 0.0
C1787 C 0.11112 0.00823 0.56556 0.0
C1788 C 0.10627 0.99292 0.5616 0.0
C1789 C 0.10166 0.98636 0.60982 0.0
C1790 C 0.08446 0.98127 0.61014 0.0
C1791 C 0.11245 0.97288 0.62415 0.0
C1792 C 0.10426 0.00047 0.64127 0.0
C1793 C 0.11004 0.01286 0.61525 0.0
C1794 C 0.11261 0.02736 0.6361 0.0
C1795 C 0.10895 0.02933 0.68457 0.0
C1796 C 0.10254 0.01693 0.71151 0.0
C1797 C 0.10044 0.00227 0.68956 0.0
H1798 H 0.22741 0.85045 0.963 0.0
H1799 H 0.27168 0.85962 0.0316 0.0
H1800 H 0.2841 0.86293 0.95243 0.0
H1801 H 0.243 0.82662 0.87453 0.0
H1802 H 0.22981 0.83259 0.82796 0.0
H1803 H 0.22383 0.8337 0.88941 0.0
H1804 H 0.21764 0.86301 0.87919 0.0
H1805 H 0.22356 0.86198 0.81752 0.0
H1806 H 0.2325 0.87595 0.85688 0.0
H1807 H 0.29206 0.86338 0.86572 0.0
H1808 H 0.29545 0.8588 0.77923 0.0
H1809 H 0.2464 0.84724 0.76738 0.0
C1810 C 0.2396 0.85368 0.96123 0.0
C1811 C 0.24854 0.85519 1.00328 0.0
C1812 C 0.26461 0.85869 0.99972 0.0
C1813 C 0.27173 0.8606 0.95494 0.0
C1814 C 0.26268 0.85872 0.91401 0.0
C1815 C 0.24697 0.85522 0.91676 0.0
C1816 C 0.24029 0.85191 0.86768 0.0
C1817 C 0.23386 0.83521 0.86475 0.0
C1818 C 0.22776 0.86393 0.85455 0.0
C1819 C 0.25473 0.85386 0.83701 0.0
C1820 C 0.26744 0.8581 0.86427 0.0
C1821 C 0.28215 0.86015 0.84401 0.0
C1822 C 0.28396 0.85755 0.79479 0.0
C1823 C 0.27121 0.85267 0.76647 0.0
C1824 C 0.25637 0.85102 0.78798 0.0
H1825 H 0.40308 0.02913 1.00972 0.0
H1826 H 0.3942 0.98493 0.94055 0.0
H1827 H 0.38822 0.97305 0.01885 0.0
H1828 H 0.42385 0.01332 0.10371 0.0
H1829 H 0.41713 0.02682 0.14844 0.0
H1830 H 0.41769 0.0326 0.0868 0.0
H1831 H 0.38836 0.03963 0.09026 0.0
H1832 H 0.38772 0.03386 0.15211 0.0
H1833 H 0.37448 0.02522 0.10982 0.0
H1834 H 0.38575 0.96534 0.10477 0.0
H1835 H 0.3892 0.96179 0.19159 0.0
H1836 H 0.40131 0.01061 0.2054 0.0
C1837 C 0.39935 0.0171 0.01108 0.0
C1838 C 0.39876 0.00799 0.9692 0.0
C1839 C 0.39451 0.99212 0.97231 0.0
C1840 C 0.39104 0.9853 0.01656 0.0
C1841 C 0.39206 0.99448 0.05746 0.0
C1842 C 0.39621 0.01002 0.05517 0.0
C1843 C 0.39851 0.01674 0.10469 0.0
C1844 C 0.41529 0.02271 0.11127 0.0
C1845 C 0.38655 0.02963 0.11481 0.0
C1846 C 0.3954 0.00247 0.13506 0.0
C1847 C 0.39135 0.98985 0.1072 0.0
C1848 C 0.38874 0.97519 0.12702 0.0
C1849 C 0.3907 0.97328 0.17642 0.0
C1850 C 0.39548 0.98592 0.20537 0.0
C1851 C 0.39751 0.00075 0.18435 0.0
H1852 H 0.77826 0.84717 0.949 0.0
H1853 H 0.73513 0.86034 0.01841 0.0
H1854 H 0.72288 0.86455 0.93946 0.0
H1855 H 0.77532 0.87281 0.84283 0.0
H1856 H 0.78287 0.85807 0.80335 0.0
H1857 H 0.78895 0.85857 0.8649 0.0
H1858 H 0.78009 0.82996 0.8754 0.0
H1859 H 0.77394 0.82938 0.81406 0.0
H1860 H 0.76033 0.82466 0.86089 0.0
H1861 H 0.71484 0.86567 0.8529 0.0
H1862 H 0.71093 0.8615 0.76644 0.0
H1863 H 0.75872 0.84558 0.75362 0.0
C1864 C 0.76639 0.85142 0.94743 0.0
C1865 C 0.75771 0.85382 0.98966 0.0
C1866 C 0.74201 0.8587 0.98639 0.0
C1867 C 0.73499 0.86113 0.94173 0.0
C1868 C 0.74375 0.85838 0.90064 0.0
C1869 C 0.75909 0.85351 0.90309 0.0
C1870 C 0.76535 0.84959 0.85389 0.0
C1871 C 0.77893 0.86041 0.84046 0.0
C1872 C 0.7702 0.83238 0.85091 0.0
C1873 C 0.75111 0.85284 0.82347 0.0
C1874 C 0.73887 0.85818 0.85098 0.0
C1875 C 0.72438 0.86158 0.83099 0.0
C1876 C 0.72228 0.8592 0.78178 0.0
C1877 C 0.7345 0.85323 0.75317 0.0
C1878 C 0.74915 0.85022 0.77443 0.0
H1879 H 0.90849 0.99031 0.71409 0.0
H1880 H 0.89143 0.03772 0.70359 0.0
H1881 H 0.88584 0.03364 0.61806 0.0
H1882 H 0.9279 0.98943 0.60569 0.0
H1883 H 0.9231 0.96957 0.59114 0.0
H1884 H 0.924 0.97558 0.65255 0.0
H1885 H 0.89575 0.96588 0.66581 0.0
H1886 H 0.89476 0.9598 0.6043 0.0
H1887 H 0.88035 0.97298 0.62788 0.0
H1888 H 0.88584 0.02572 0.53181 0.0
H1889 H 0.89002 0.01401 0.45217 0.0
H1890 H 0.90542 0.97121 0.51882 0.0
C1891 C 0.90326 -0.00027 0.69408 0.0
C1892 C 0.90037 0.01434 0.71566 0.0
C1893 C 0.89366 0.0264 0.68802 0.0
C1894 C 0.89044 0.02419 0.63936 0.0
C1895 C 0.89375 0.00977 0.61895 0.0
C1896 C 0.89981 0.99766 0.64558 0.0
C1897 C 0.90317 0.98361 0.61447 0.0
C1898 C 0.92057 0.97931 0.61606 0.0
C1899 C 0.89289 0.96975 0.62899 0.0
C1900 C 0.89855 0.98987 0.5659 0.0
C1901 C 0.89311 0.00498 0.5693 0.0
C1902 C 0.88968 0.01377 0.52882 0.0
C1903 C 0.89209 0.00704 0.48376 0.0
C1904 C 0.89766 0.99161 0.47951 0.0
C1905 C 0.90062 0.98283 0.52115 0.0
H1906 H 0.77504 0.15798 0.28393 0.0
H1907 H 0.73074 0.15104 0.21301 0.0
H1908 H 0.71834 0.14519 0.29071 0.0
H1909 H 0.77008 0.12913 0.38133 0.0
H1910 H 0.7789 0.14171 0.42513 0.0
H1911 H 0.78485 0.14288 0.36351 0.0
H1912 H 0.77842 0.17234 0.36275 0.0
H1913 H 0.77251 0.17125 0.42427 0.0
H1914 H 0.75923 0.17872 0.38004 0.0
H1915 H 0.71034 0.14198 0.37636 0.0
H1916 H 0.70673 0.14416 0.46354 0.0
H1917 H 0.75587 0.15482 0.4796 0.0
C1918 C 0.76283 0.15479 0.2848 0.0
C1919 C 0.75387 0.15463 0.24254 0.0
C1920 C 0.73781 0.15103 0.24504 0.0
C1921 C 0.73069 0.14764 0.28895 0.0
C1922 C 0.73976 0.14812 0.33019 0.0
C1923 C 0.75546 0.15175 0.32859 0.0
C1924 C 0.76211 0.15335 0.3785 0.0
C1925 C 0.77473 0.14103 0.38764 0.0
C1926 C 0.76843 0.1699 0.38686 0.0
C1927 C 0.74768 0.15026 0.40834 0.0
C1928 C 0.73499 0.14697 0.3798 0.0
C1929 C 0.72023 0.14441 0.3991 0.0
C1930 C 0.7183 0.14563 0.44875 0.0
C1931 C 0.73101 0.1496 0.47857 0.0
C1932 C 0.74594 0.1516 0.45794 0.0
H1933 H 0.59769 0.97509 0.17789 0.0
H1934 H 0.61008 0.01871 0.24538 0.0
H1935 H 0.61448 0.03057 0.16606 0.0
H1936 H 0.62375 0.97818 0.07102 0.0
H1937 H 0.60912 0.97018 0.03198 0.0
H1938 H 0.60987 0.96427 0.09369 0.0
H1939 H 0.58102 0.9724 0.10438 0.0
H1940 H 0.5802 0.97838 0.04293 0.0
H1941 H 0.57521 0.99196 0.0895 0.0
H1942 H 0.61496 0.03844 0.07997 0.0
H1943 H 0.60974 0.04232 0.99417 0.0
H1944 H 0.5954 0.99404 0.98224 0.0
C1945 C 0.6019 0.98696 0.17582 0.0
C1946 C 0.60395 0.99591 0.21759 0.0
C1947 C 0.60872 0.01162 0.21369 0.0
C1948 C 0.61127 0.01842 0.16882 0.0
C1949 C 0.60878 0.00942 0.12814 0.0
C1950 C 0.60413 0.99404 0.13117 0.0
C1951 C 0.60028 0.98757 0.0822 0.0
C1952 C 0.61142 0.97426 0.06895 0.0
C1953 C 0.58316 0.98227 0.07963 0.0
C1954 C 0.60314 0.0018 0.05136 0.0
C1955 C 0.60835 0.01418 0.07844 0.0
C1956 C 0.61105 0.02878 0.05832 0.0
C1957 C 0.60807 0.03086 1.00947 0.0
C1958 C 0.60221 0.01849 0.98131 0.0
C1959 C 0.60001 0.00371 1.00259 0.0
H1960 H 0.77649 0.66117 0.92857 0.0
H1961 H 0.73234 0.65084 0.99658 0.0
H1962 H 0.72042 0.6462 0.9175 0.0
H1963 H 0.76032 0.68339 0.83732 0.0
H1964 H 0.7739 0.67749 0.79168 0.0
H1965 H 0.7797 0.67722 0.85334 0.0
H1966 H 0.78708 0.64809 0.84598 0.0
H1967 H 0.78131 0.64828 0.78412 0.0
H1968 H 0.77281 0.63436 0.82463 0.0
H1969 H 0.71277 0.64471 0.83129 0.0
H1970 H 0.70929 0.64878 0.74473 0.0
H1971 H 0.75794 0.66196 0.73233 0.0
C1972 C 0.76446 0.65743 0.92668 0.0
C1973 C 0.75538 0.656 0.9685 0.0
C1974 C 0.7395 0.65177 0.96483 0.0
C1975 C 0.73266 0.64907 0.92013 0.0
C1976 C 0.74181 0.65087 0.87938 0.0
C1977 C 0.75735 0.65508 0.88218 0.0
C1978 C 0.76404 0.65817 0.83296 0.0
C1979 C 0.76982 0.67507 0.82859 0.0
C1980 C 0.77708 0.64653 0.82124 0.0
C1981 C 0.74979 0.65534 0.8022 0.0
C1982 C 0.73719 0.65082 0.82958 0.0
C1983 C 0.72259 0.64812 0.80942 0.0
C1984 C 0.72073 0.65044 0.76016 0.0
C1985 C 0.73333 0.65566 0.73166 0.0
C1986 C 0.7481 0.65786 0.75304 0.0
H1987 H 0.59243 0.49236 0.20385 0.0
H1988 H 0.60859 0.54006 0.19233 0.0
H1989 H 0.6141 0.53595 0.10666 0.0
H1990 H 0.62092 0.47551 0.11837 0.0
H1991 H 0.60689 0.4619 0.09504 0.0
H1992 H 0.60563 0.46816 0.15632 0.0
H1993 H 0.57718 0.47713 0.14237 0.0
H1994 H 0.57835 0.47093 0.08117 0.0
H1995 H 0.57304 0.49071 0.09499 0.0
H1996 H 0.61424 0.52777 0.02023 0.0
H1997 H 0.61074 0.51555 0.94095 0.0
H1998 H 0.59639 0.47262 1.00914 0.0
C1999 C 0.59742 0.50186 0.18355 0.0
C2000 C 0.6001 0.51654 0.2049 0.0
C2001 C 0.60654 0.52868 0.17693 0.0
C2002 C 0.60969 0.52646 0.12818 0.0
C2003 C 0.60661 0.51194 0.10802 0.0
C2004 C 0.60084 0.49977 0.135 0.0
C2005 C 0.59789 0.48553 0.1043 0.0
C2006 C 0.60847 0.47197 0.11941 0.0
C2007 C 0.58059 0.48081 0.1058 0.0
C2008 C 0.60245 0.49173 0.05556 0.0
C2009 C 0.60744 0.507 0.05848 0.0
C2010 C 0.61075 0.5157 0.01766 0.0
C2011 C 0.60873 0.50868 0.97281 0.0
C2012 C 0.6037 0.49305 0.96907 0.0
C2013 C 0.6008 0.48441 0.01107 0.0
H2014 H 0.72448 0.34965 0.43933 0.0
H2015 H 0.7679 0.36258 0.50735 0.0
H2016 H 0.78023 0.36576 0.42806 0.0
H2017 H 0.74175 0.32596 0.3534 0.0
H2018 H 0.7283 0.33057 0.30607 0.0
H2019 H 0.72213 0.33194 0.3673 0.0
H2020 H 0.71409 0.36067 0.35408 0.0
H2021 H 0.72018 0.35937 0.29262 0.0
H2022 H 0.72812 0.3743 0.33066 0.0
H2023 H 0.78837 0.3656 0.34159 0.0
H2024 H 0.79224 0.36035 0.25568 0.0
H2025 H 0.74401 0.34569 0.24417 0.0
C2026 C 0.73642 0.35367 0.43736 0.0
C2027 C 0.74516 0.35625 0.47934 0.0
C2028 C 0.76096 0.3608 0.47553 0.0
C2029 C 0.76804 0.36264 0.43067 0.0
C2030 C 0.75922 0.35967 0.38987 0.0
C2031 C 0.74377 0.35519 0.3928 0.0
C2032 C 0.73743 0.35094 0.34397 0.0
C2033 C 0.7321 0.33384 0.34263 0.0
C2034 C 0.72417 0.36198 0.32948 0.0
C2035 C 0.75177 0.35349 0.31328 0.0
C2036 C 0.76413 0.3588 0.34028 0.0
C2037 C 0.77873 0.36154 0.32005 0.0
C2038 C 0.78082 0.35855 0.27115 0.0
C2039 C 0.76845 0.35263 0.24307 0.0
C2040 C 0.75369 0.35028 0.26453 0.0
H2041 H 0.90174 0.47657 0.70082 0.0
H2042 H 0.88562 0.51942 0.76559 0.0
H2043 H 0.88235 0.53108 0.68546 0.0
H2044 H 0.92512 0.49462 0.61665 0.0
H2045 H 0.92179 0.48077 0.56945 0.0
H2046 H 0.92008 0.47478 0.63073 0.0
H2047 H 0.89195 0.4651 0.61509 0.0
H2048 H 0.89362 0.47097 0.55353 0.0
H2049 H 0.87783 0.47822 0.58967 0.0
H2050 H 0.88316 0.53887 0.59881 0.0
H2051 H 0.88934 0.54269 0.51342 0.0
H2052 H 0.9066 0.4953 0.50562 0.0
C2053 C 0.89697 0.4882 0.69794 0.0
C2054 C 0.89356 0.49699 0.73923 0.0
C2055 C 0.88804 0.51243 0.73429 0.0
C2056 C 0.88614 0.51913 0.68894 0.0
C2057 C 0.89001 0.5103 0.64887 0.0
C2058 C 0.89536 0.49518 0.65294 0.0
C2059 C 0.90051 0.48887 0.6049 0.0
C2060 C 0.9179 0.48451 0.6055 0.0
C2061 C 0.89037 0.47497 0.58992 0.0
C2062 C 0.89751 0.50289 0.57338 0.0
C2063 C 0.89119 0.51504 0.59922 0.0
C2064 C 0.88798 0.52939 0.57814 0.0
C2065 C 0.89152 0.53145 0.52957 0.0
C2066 C 0.89844 0.51931 0.50275 0.0
C2067 C 0.90125 0.5048 0.52503 0.0
H2068 H 0.24107 0.32356 0.25175 0.0
H2069 H 0.23495 0.37273 0.22353 0.0
H2070 H 0.24428 0.37883 0.30541 0.0
H2071 H 0.22636 0.32523 0.37158 0.0
H2072 H 0.23942 0.31046 0.39358 0.0
H2073 H 0.23341 0.31025 0.33203 0.0
H2074 H 0.2623 0.31058 0.30516 0.0
H2075 H 0.26841 0.31076 0.36663 0.0
H2076 H 0.27503 0.32576 0.32643 0.0
H2077 H 0.25579 0.3792 0.39039 0.0
H2078 H 0.26498 0.37376 0.47289 0.0
H2079 H 0.26015 0.32431 0.44693 0.0
C2080 C 0.24186 0.33562 0.2627 0.0
C2081 C 0.23759 0.34772 0.23126 0.0
C2082 C 0.23831 0.36333 0.24713 0.0
C2083 C 0.24362 0.36687 0.29346 0.0
C2084 C 0.24775 0.35463 0.32373 0.0
C2085 C 0.24662 0.3393 0.30912 0.0
C2086 C 0.25068 0.32819 0.34916 0.0
C2087 C 0.23663 0.31793 0.36236 0.0
C2088 C 0.26495 0.31824 0.33605 0.0
C2089 C 0.25446 0.33961 0.38859 0.0
C2090 C 0.253 0.35482 0.37318 0.0
C2091 C 0.25673 0.36733 0.40294 0.0
C2092 C 0.26196 0.36416 0.44962 0.0
C2093 C 0.26299 0.34866 0.46632 0.0
C2094 C 0.25915 0.33629 0.43532 0.0
H2095 H 0.40177 0.51318 0.96736 0.0
H2096 H 0.3889 0.46458 0.9826 0.0
H2097 H 0.38584 0.46831 0.06933 0.0
H2098 H 0.42469 0.51556 0.06701 0.0
H2099 H 0.41906 0.53493 0.08467 0.0
H2100 H 0.41784 0.52926 0.02302 0.0
H2101 H 0.38861 0.53669 0.0213 0.0
H2102 H 0.38976 0.54256 0.08299 0.0
H2103 H 0.37551 0.52836 0.06467 0.0
H2104 H 0.38898 0.47593 0.1548 0.0
H2105 H 0.39545 0.48771 0.23282 0.0
H2106 H 0.40454 0.53183 0.16339 0.0
C2107 C 0.3978 0.50344 0.9887 0.0
C2108 C 0.39551 0.48859 0.96801 0.0
C2109 C 0.39061 0.4761 0.99741 0.0
C2110 C 0.38886 0.4781 0.04683 0.0
C2111 C 0.3918 0.49273 0.06632 0.0
C2112 C 0.39586 0.50528 0.03811 0.0
C2113 C 0.39943 0.51949 0.06841 0.0
C2114 C 0.41625 0.52513 0.06029 0.0
C2115 C 0.38762 0.53255 0.05877 0.0
C2116 C 0.39735 0.51278 0.1181 0.0
C2117 C 0.39292 0.49732 0.11602 0.0
C2118 C 0.39198 0.48814 0.15695 0.0
C2119 C 0.39573 0.49489 0.20104 0.0
C2120 C 0.40012 0.51072 0.20402 0.0
C2121 C 0.4007 0.51984 0.16211 0.0
H2122 H 0.25421 0.66262 0.95477 0.0
H2123 H 0.20475 0.65298 0.9425 0.0
H2124 H 0.2079 0.649 0.85569 0.0
H2125 H 0.25809 0.6841 0.85065 0.0
H2126 H 0.27699 0.67666 0.83437 0.0
H2127 H 0.2712 0.67708 0.89606 0.0
H2128 H 0.27641 0.64748 0.90309 0.0
H2129 H 0.28231 0.64697 0.84133 0.0
H2130 H 0.26703 0.63427 0.86222 0.0
H2131 H 0.21572 0.65004 0.76916 0.0
H2132 H 0.2281 0.65373 0.69013 0.0
H2133 H 0.2728 0.66067 0.75865 0.0
C2134 C 0.24409 0.65933 0.934 0.0
C2135 C 0.22922 0.65809 0.95548 0.0
C2136 C 0.21627 0.65389 0.92696 0.0
C2137 C 0.21795 0.65163 0.87757 0.0
C2138 C 0.2327 0.65332 0.85734 0.0
C2139 C 0.24561 0.65681 0.88478 0.0
C2140 C 0.26004 0.65866 0.854 0.0
C2141 C 0.26698 0.6751 0.85908 0.0
C2142 C 0.27216 0.64609 0.86587 0.0
C2143 C 0.25315 0.65617 0.80479 0.0
C2144 C 0.23735 0.65313 0.8075 0.0
C2145 C 0.22815 0.65199 0.76663 0.0
C2146 C 0.23525 0.65413 0.72195 0.0
C2147 C 0.25142 0.65711 0.71842 0.0
C2148 C 0.2605 0.65789 0.76037 0.0
H2149 H 0.09205 0.49795 0.50271 0.0
H2150 H 0.10839 0.54565 0.5113 0.0
H2151 H 0.1141 0.54197 0.597 0.0
H2152 H 0.07277 0.4971 0.61148 0.0
H2153 H 0.07793 0.47737 0.62648 0.0
H2154 H 0.07681 0.48319 0.56493 0.0
H2155 H 0.1052 0.47393 0.55144 0.0
H2156 H 0.1064 0.46804 0.6131 0.0
H2157 H 0.12054 0.4814 0.58889 0.0
H2158 H 0.1144 0.53428 0.68368 0.0
H2159 H 0.11068 0.52265 0.76369 0.0
H2160 H 0.09578 0.47946 0.6983 0.0
C2161 C 0.09713 0.50754 0.52235 0.0
C2162 C 0.0998 0.5221 0.50021 0.0
C2163 C 0.10634 0.53437 0.52734 0.0
C2164 C 0.10962 0.53238 0.57609 0.0
C2165 C 0.10654 0.51798 0.59704 0.0
C2166 C 0.10064 0.50569 0.57088 0.0
C2167 C 0.09758 0.49167 0.60241 0.0
C2168 C 0.08025 0.48707 0.60125 0.0
C2169 C 0.10806 0.47795 0.5881 0.0
C2170 C 0.10218 0.49815 0.65071 0.0
C2171 C 0.10736 0.51334 0.64682 0.0
C2172 C 0.11076 0.52227 0.68703 0.0
C2173 C 0.1086 0.51559 0.73231 0.0
C2174 C 0.1033 0.50007 0.73704 0.0
C2175 C 0.10036 0.49117 0.69564 0.0
loop_
_geom_bond_atom_site_label_1
_geom_bond_atom_site_label_2
_geom_bond_distance
_geom_bond_site_symmetry_2
_ccdc_geom_bond_type
O0 Cd1 2.223 1_556 S
O0 C8 1.315 . S
Cd1 O0 2.223 1_554 S
Cd1 O4 2.297 1_554 S
Cd1 O5 2.439 . S
Cd1 O11 2.240 . S
Cd2 O3 2.240 . S
Cd2 O10 2.223 . S
Cd2 O12 2.297 . S
Cd2 O13 2.439 . S
O3 Cd2 2.240 . S
O3 C8 1.279 1_554 S
O4 Cd1 2.297 1_556 S
O4 C6 1.247 1_556 S
O5 Cd1 2.439 . S
O5 C6 1.208 . S
C6 O4 1.247 1_554 S
C6 O5 1.208 . S
C7 O12 1.247 . S
C7 O13 1.208 . S
C8 O0 1.315 . S
C8 O3 1.279 1_556 S
C9 O10 1.315 . S
C9 O11 1.279 . S
O10 Cd2 2.223 . S
O10 C9 1.315 . S
O11 Cd1 2.240 . S
O11 C9 1.279 . S
O12 Cd2 2.297 . S
O12 C7 1.247 . S
O13 Cd2 2.439 . S
O13 C7 1.208 . S
O14 Cd15 2.223 . S
O14 C22 1.315 . S
Cd15 O14 2.223 . S
Cd15 O18 2.297 . S
Cd15 O19 2.439 . S
Cd15 O25 2.240 . S
Cd16 O17 2.240 . S
Cd16 O24 2.223 . S
Cd16 O26 2.297 . S
Cd16 O27 2.439 . S
O17 Cd16 2.240 . S
O17 C22 1.279 . S
O18 Cd15 2.297 . S
O18 C20 1.247 . S
O19 Cd15 2.439 . S
O19 C20 1.208 . S
C20 O18 1.247 . S
C20 O19 1.208 . S
C21 O26 1.247 . S
C21 O27 1.208 . S
C22 O14 1.315 . S
C22 O17 1.279 . S
C23 O24 1.315 . S
C23 O25 1.279 . S
O24 Cd16 2.223 . S
O24 C23 1.315 . S
O25 Cd15 2.240 . S
O25 C23 1.279 . S
O26 Cd16 2.297 . S
O26 C21 1.247 . S
O27 Cd16 2.439 . S
O27 C21 1.208 . S
O28 Cd29 2.223 . S
O28 C36 1.315 . S
Cd29 O28 2.223 . S
Cd29 O32 2.297 . S
Cd29 O33 2.439 . S
Cd29 O39 2.240 . S
Cd30 O31 2.240 . S
Cd30 O38 2.223 . S
Cd30 O40 2.297 . S
Cd30 O41 2.439 . S
O31 Cd30 2.240 . S
O31 C36 1.279 . S
O32 Cd29 2.297 . S
O32 C34 1.247 . S
O33 Cd29 2.439 . S
O33 C34 1.208 . S
C34 O32 1.247 . S
C34 O33 1.208 . S
C35 O40 1.247 . S
C35 O41 1.208 . S
C36 O28 1.315 . S
C36 O31 1.279 . S
C37 O38 1.315 . S
C37 O39 1.279 . S
O38 Cd30 2.223 . S
O38 C37 1.315 . S
O39 Cd29 2.240 . S
O39 C37 1.279 . S
O40 Cd30 2.297 . S
O40 C35 1.247 . S
O41 Cd30 2.439 . S
O41 C35 1.208 . S
O42 Cd43 2.223 . S
O42 C50 1.315 . S
Cd43 O42 2.223 . S
Cd43 O46 2.297 . S
Cd43 O47 2.439 . S
Cd43 O53 2.240 . S
Cd44 O45 2.240 . S
Cd44 O52 2.223 . S
Cd44 O54 2.297 . S
Cd44 O55 2.439 . S
O45 Cd44 2.240 . S
O45 C50 1.279 . S
O46 Cd43 2.297 . S
O46 C48 1.247 . S
O47 Cd43 2.439 . S
O47 C48 1.208 . S
C48 O46 1.247 . S
C48 O47 1.208 . S
C49 O54 1.247 . S
C49 O55 1.208 . S
C50 O42 1.315 . S
C50 O45 1.279 . S
C51 O52 1.315 . S
C51 O53 1.279 . S
O52 Cd44 2.223 . S
O52 C51 1.315 . S
O53 Cd43 2.240 . S
O53 C51 1.279 . S
O54 Cd44 2.297 . S
O54 C49 1.247 . S
O55 Cd44 2.439 . S
O55 C49 1.208 . S
O56 Cd57 2.223 . S
O56 C64 1.315 . S
Cd57 O56 2.223 . S
Cd57 O60 2.297 . S
Cd57 O61 2.439 . S
Cd57 O67 2.240 . S
Cd58 O59 2.240 . S
Cd58 O66 2.223 . S
Cd58 O68 2.297 . S
Cd58 O69 2.439 . S
O59 Cd58 2.240 . S
O59 C64 1.279 . S
O60 Cd57 2.297 . S
O60 C62 1.247 . S
O61 Cd57 2.439 . S
O61 C62 1.208 . S
C62 O60 1.247 . S
C62 O61 1.208 . S
C63 O68 1.247 . S
C63 O69 1.208 . S
C64 O56 1.315 . S
C64 O59 1.279 . S
C65 O66 1.315 . S
C65 O67 1.279 . S
O66 Cd58 2.223 . S
O66 C65 1.315 . S
O67 Cd57 2.240 . S
O67 C65 1.279 . S
O68 Cd58 2.297 . S
O68 C63 1.247 . S
O69 Cd58 2.439 . S
O69 C63 1.208 . S
O70 Cd71 2.223 . S
O70 C78 1.315 . S
Cd71 O70 2.223 . S
Cd71 O74 2.297 . S
Cd71 O75 2.439 . S
Cd71 O81 2.240 . S
Cd72 O73 2.240 . S
Cd72 O80 2.223 . S
Cd72 O82 2.297 . S
Cd72 O83 2.439 . S
O73 Cd72 2.240 . S
O73 C78 1.279 . S
O74 Cd71 2.297 . S
O74 C76 1.247 . S
O75 Cd71 2.439 . S
O75 C76 1.208 . S
C76 O74 1.247 . S
C76 O75 1.208 . S
C77 O82 1.247 . S
C77 O83 1.208 . S
C78 O70 1.315 . S
C78 O73 1.279 . S
C79 O80 1.315 . S
C79 O81 1.279 . S
O80 Cd72 2.223 . S
O80 C79 1.315 . S
O81 Cd71 2.240 . S
O81 C79 1.279 . S
O82 Cd72 2.297 . S
O82 C77 1.247 . S
O83 Cd72 2.439 . S
O83 C77 1.208 . S
O84 Cd85 2.223 . S
O84 C92 1.315 . S
Cd85 O84 2.223 . S
Cd85 O88 2.297 . S
Cd85 O89 2.439 . S
Cd85 O95 2.240 . S
Cd86 O87 2.240 . S
Cd86 O94 2.223 . S
Cd86 O96 2.297 . S
Cd86 O97 2.439 . S
O87 Cd86 2.240 . S
O87 C92 1.279 . S
O88 Cd85 2.297 . S
O88 C90 1.247 . S
O89 Cd85 2.439 . S
O89 C90 1.208 . S
C90 O88 1.247 . S
C90 O89 1.208 . S
C91 O96 1.247 . S
C91 O97 1.208 . S
C92 O84 1.315 . S
C92 O87 1.279 . S
C93 O94 1.315 . S
C93 O95 1.279 . S
O94 Cd86 2.223 . S
O94 C93 1.315 . S
O95 Cd85 2.240 . S
O95 C93 1.279 . S
O96 Cd86 2.297 . S
O96 C91 1.247 . S
O97 Cd86 2.439 . S
O97 C91 1.208 . S
O98 Cd99 2.223 . S
O98 C106 1.315 . S
Cd99 O98 2.223 . S
Cd99 O102 2.297 . S
Cd99 O103 2.439 . S
Cd99 O109 2.240 . S
Cd100 O101 2.240 . S
Cd100 O108 2.223 . S
Cd100 O110 2.297 . S
Cd100 O111 2.439 . S
O101 Cd100 2.240 . S
O101 C106 1.279 . S
O102 Cd99 2.297 . S
O102 C104 1.247 . S
O103 Cd99 2.439 . S
O103 C104 1.208 . S
C104 O102 1.247 . S
C104 O103 1.208 . S
C105 O110 1.247 . S
C105 O111 1.208 . S
C106 O98 1.315 . S
C106 O101 1.279 . S
C107 O108 1.315 . S
C107 O109 1.279 . S
O108 Cd100 2.223 . S
O108 C107 1.315 . S
O109 Cd99 2.240 . S
O109 C107 1.279 . S
O110 Cd100 2.297 . S
O110 C105 1.247 . S
O111 Cd100 2.439 . S
O111 C105 1.208 . S
O112 Cd113 2.223 . S
O112 C120 1.315 . S
Cd113 O112 2.223 . S
Cd113 O116 2.297 . S
Cd113 O117 2.439 . S
Cd113 O123 2.240 . S
Cd114 O115 2.240 . S
Cd114 O122 2.223 . S
Cd114 O124 2.297 . S
Cd114 O125 2.439 . S
O115 Cd114 2.240 . S
O115 C120 1.279 . S
O116 Cd113 2.297 . S
O116 C118 1.247 . S
O117 Cd113 2.439 . S
O117 C118 1.208 . S
C118 O116 1.247 . S
C118 O117 1.208 . S
C119 O124 1.247 . S
C119 O125 1.208 . S
C120 O112 1.315 . S
C120 O115 1.279 . S
C121 O122 1.315 . S
C121 O123 1.279 . S
O122 Cd114 2.223 . S
O122 C121 1.315 . S
O123 Cd113 2.240 . S
O123 C121 1.279 . S
O124 Cd114 2.297 . S
O124 C119 1.247 . S
O125 Cd114 2.439 . S
O125 C119 1.208 . S
O126 Cd127 2.223 . S
O126 C134 1.315 . S
Cd127 O126 2.223 . S
Cd127 O130 2.297 . S
Cd127 O131 2.439 . S
Cd127 O137 2.240 . S
Cd128 O129 2.240 . S
Cd128 O136 2.223 . S
Cd128 O138 2.297 . S
Cd128 O139 2.439 . S
O129 Cd128 2.240 . S
O129 C134 1.279 . S
O130 Cd127 2.297 . S
O130 C132 1.247 . S
O131 Cd127 2.439 . S
O131 C132 1.208 . S
C132 O130 1.247 . S
C132 O131 1.208 . S
C133 O138 1.247 . S
C133 O139 1.208 . S
C134 O126 1.315 . S
C134 O129 1.279 . S
C135 O136 1.315 . S
C135 O137 1.279 . S
O136 Cd128 2.223 . S
O136 C135 1.315 . S
O137 Cd127 2.240 . S
O137 C135 1.279 . S
O138 Cd128 2.297 . S
O138 C133 1.247 . S
O139 Cd128 2.439 . S
O139 C133 1.208 . S
O140 Cd141 2.223 . S
O140 C148 1.315 . S
Cd141 O140 2.223 . S
Cd141 O144 2.297 . S
Cd141 O145 2.439 . S
Cd141 O151 2.240 . S
Cd142 O143 2.240 . S
Cd142 O150 2.223 . S
Cd142 O152 2.297 . S
Cd142 O153 2.439 . S
O143 Cd142 2.240 . S
O143 C148 1.279 . S
O144 Cd141 2.297 . S
O144 C146 1.247 . S
O145 Cd141 2.439 . S
O145 C146 1.208 . S
C146 O144 1.247 . S
C146 O145 1.208 . S
C147 O152 1.247 . S
C147 O153 1.208 . S
C148 O140 1.315 . S
C148 O143 1.279 . S
C149 O150 1.315 . S
C149 O151 1.279 . S
O150 Cd142 2.223 . S
O150 C149 1.315 . S
O151 Cd141 2.240 . S
O151 C149 1.279 . S
O152 Cd142 2.297 . S
O152 C147 1.247 . S
O153 Cd142 2.439 . S
O153 C147 1.208 . S
O154 Cd155 2.223 . S
O154 C162 1.315 . S
Cd155 O154 2.223 . S
Cd155 O158 2.297 . S
Cd155 O159 2.439 . S
Cd155 O165 2.240 . S
Cd156 O157 2.240 . S
Cd156 O164 2.223 . S
Cd156 O166 2.297 . S
Cd156 O167 2.439 . S
O157 Cd156 2.240 . S
O157 C162 1.279 . S
O158 Cd155 2.297 . S
O158 C160 1.247 . S
O159 Cd155 2.439 . S
O159 C160 1.208 . S
C160 O158 1.247 . S
C160 O159 1.208 . S
C161 O166 1.247 . S
C161 O167 1.208 . S
C162 O154 1.315 . S
C162 O157 1.279 . S
C163 O164 1.315 . S
C163 O165 1.279 . S
O164 Cd156 2.223 . S
O164 C163 1.315 . S
O165 Cd155 2.240 . S
O165 C163 1.279 . S
O166 Cd156 2.297 . S
O166 C161 1.247 . S
O167 Cd156 2.439 . S
O167 C161 1.208 . S
O168 Cd169 2.223 1_556 S
O168 C176 1.315 . S
Cd169 O168 2.223 1_554 S
Cd169 O172 2.297 1_554 S
Cd169 O173 2.439 . S
Cd169 O179 2.240 . S
Cd170 O171 2.240 . S
Cd170 O178 2.223 . S
Cd170 O180 2.297 . S
Cd170 O181 2.439 . S
O171 Cd170 2.240 . S
O171 C176 1.279 1_554 S
O172 Cd169 2.297 1_556 S
O172 C174 1.247 1_556 S
O173 Cd169 2.439 . S
O173 C174 1.208 . S
C174 O172 1.247 1_554 S
C174 O173 1.208 . S
C175 O180 1.247 . S
C175 O181 1.208 . S
C176 O168 1.315 . S
C176 O171 1.279 1_556 S
C177 O178 1.315 . S
C177 O179 1.279 . S
O178 Cd170 2.223 . S
O178 C177 1.315 . S
O179 Cd169 2.240 . S
O179 C177 1.279 . S
O180 Cd170 2.297 . S
O180 C175 1.247 . S
O181 Cd170 2.439 . S
O181 C175 1.208 . S
O182 Cd183 2.223 . S
O182 C190 1.315 . S
Cd183 O182 2.223 . S
Cd183 O186 2.297 . S
Cd183 O187 2.439 . S
Cd183 O193 2.240 . S
Cd184 O185 2.240 . S
Cd184 O192 2.223 . S
Cd184 O194 2.297 . S
Cd184 O195 2.439 . S
O185 Cd184 2.240 . S
O185 C190 1.279 . S
O186 Cd183 2.297 . S
O186 C188 1.247 . S
O187 Cd183 2.439 . S
O187 C188 1.208 . S
C188 O186 1.247 . S
C188 O187 1.208 . S
C189 O194 1.247 . S
C189 O195 1.208 . S
C190 O182 1.315 . S
C190 O185 1.279 . S
C191 O192 1.315 . S
C191 O193 1.279 . S
O192 Cd184 2.223 . S
O192 C191 1.315 . S
O193 Cd183 2.240 . S
O193 C191 1.279 . S
O194 Cd184 2.297 . S
O194 C189 1.247 . S
O195 Cd184 2.439 . S
O195 C189 1.208 . S
O196 Cd197 2.223 . S
O196 C204 1.315 . S
Cd197 O196 2.223 . S
Cd197 O200 2.297 . S
Cd197 O201 2.439 . S
Cd197 O207 2.240 . S
Cd198 O199 2.240 . S
Cd198 O206 2.223 . S
Cd198 O208 2.297 . S
Cd198 O209 2.439 . S
O199 Cd198 2.240 . S
O199 C204 1.279 . S
O200 Cd197 2.297 . S
O200 C202 1.247 . S
O201 Cd197 2.439 . S
O201 C202 1.208 . S
C202 O200 1.247 . S
C202 O201 1.208 . S
C203 O208 1.247 . S
C203 O209 1.208 . S
C204 O196 1.315 . S
C204 O199 1.279 . S
C205 O206 1.315 . S
C205 O207 1.279 . S
O206 Cd198 2.223 . S
O206 C205 1.315 . S
O207 Cd197 2.240 . S
O207 C205 1.279 . S
O208 Cd198 2.297 . S
O208 C203 1.247 . S
O209 Cd198 2.439 . S
O209 C203 1.208 . S
O210 Cd211 2.223 . S
O210 C218 1.315 . S
Cd211 O210 2.223 . S
Cd211 O214 2.297 . S
Cd211 O215 2.439 . S
Cd211 O221 2.240 . S
Cd212 O213 2.240 . S
Cd212 O220 2.223 . S
Cd212 O222 2.297 . S
Cd212 O223 2.439 . S
O213 Cd212 2.240 . S
O213 C218 1.279 . S
O214 Cd211 2.297 . S
O214 C216 1.247 . S
O215 Cd211 2.439 . S
O215 C216 1.208 . S
C216 O214 1.247 . S
C216 O215 1.208 . S
C217 O222 1.247 . S
C217 O223 1.208 . S
C218 O210 1.315 . S
C218 O213 1.279 . S
C219 O220 1.315 . S
C219 O221 1.279 . S
O220 Cd212 2.223 . S
O220 C219 1.315 . S
O221 Cd211 2.240 . S
O221 C219 1.279 . S
O222 Cd212 2.297 . S
O222 C217 1.247 . S
O223 Cd212 2.439 . S
O223 C217 1.208 . S
O224 Cd225 2.223 . S
O224 C232 1.315 . S
Cd225 O224 2.223 . S
Cd225 O228 2.297 . S
Cd225 O229 2.439 . S
Cd225 O235 2.240 . S
Cd226 O227 2.240 . S
Cd226 O234 2.223 . S
Cd226 O236 2.297 . S
Cd226 O237 2.439 . S
O227 Cd226 2.240 . S
O227 C232 1.279 . S
O228 Cd225 2.297 . S
O228 C230 1.247 . S
O229 Cd225 2.439 . S
O229 C230 1.208 . S
C230 O228 1.247 . S
C230 O229 1.208 . S
C231 O236 1.247 . S
C231 O237 1.208 . S
C232 O224 1.315 . S
C232 O227 1.279 . S
C233 O234 1.315 . S
C233 O235 1.279 . S
O234 Cd226 2.223 . S
O234 C233 1.315 . S
O235 Cd225 2.240 . S
O235 C233 1.279 . S
O236 Cd226 2.297 . S
O236 C231 1.247 . S
O237 Cd226 2.439 . S
O237 C231 1.208 . S
O238 Cd239 2.223 . S
O238 C246 1.315 . S
Cd239 O238 2.223 . S
Cd239 O242 2.297 . S
Cd239 O243 2.439 . S
Cd239 O249 2.240 . S
Cd240 O241 2.240 . S
Cd240 O248 2.223 . S
Cd240 O250 2.297 . S
Cd240 O251 2.439 . S
O241 Cd240 2.240 . S
O241 C246 1.279 . S
O242 Cd239 2.297 . S
O242 C244 1.247 . S
O243 Cd239 2.439 . S
O243 C244 1.208 . S
C244 O242 1.247 . S
C244 O243 1.208 . S
C245 O250 1.247 . S
C245 O251 1.208 . S
C246 O238 1.315 . S
C246 O241 1.279 . S
C247 O248 1.315 . S
C247 O249 1.279 . S
O248 Cd240 2.223 . S
O248 C247 1.315 . S
O249 Cd239 2.240 . S
O249 C247 1.279 . S
O250 Cd240 2.297 . S
O250 C245 1.247 . S
O251 Cd240 2.439 . S
O251 C245 1.208 . S
O252 Cd253 2.223 1_556 S
O252 C260 1.315 . S
Cd253 O252 2.223 1_554 S
Cd253 O256 2.297 1_554 S
Cd253 O257 2.439 . S
Cd253 O263 2.240 . S
Cd254 O255 2.240 . S
Cd254 O262 2.223 . S
Cd254 O264 2.297 . S
Cd254 O265 2.439 . S
O255 Cd254 2.240 . S
O255 C260 1.279 1_554 S
O256 Cd253 2.297 1_556 S
O256 C258 1.247 1_556 S
O257 Cd253 2.439 . S
O257 C258 1.208 . S
C258 O256 1.247 1_554 S
C258 O257 1.208 . S
C259 O264 1.247 . S
C259 O265 1.208 . S
C260 O252 1.315 . S
C260 O255 1.279 1_556 S
C261 O262 1.315 . S
C261 O263 1.279 . S
O262 Cd254 2.223 . S
O262 C261 1.315 . S
O263 Cd253 2.240 . S
O263 C261 1.279 . S
O264 Cd254 2.297 . S
O264 C259 1.247 . S
O265 Cd254 2.439 . S
O265 C259 1.208 . S
O266 Cd267 2.223 . S
O266 C274 1.315 . S
Cd267 O266 2.223 . S
Cd267 O270 2.297 . S
Cd267 O271 2.439 . S
Cd267 O277 2.240 . S
Cd268 O269 2.240 . S
Cd268 O276 2.223 . S
Cd268 O278 2.297 . S
Cd268 O279 2.439 . S
O269 Cd268 2.240 . S
O269 C274 1.279 . S
O270 Cd267 2.297 . S
O270 C272 1.247 . S
O271 Cd267 2.439 . S
O271 C272 1.208 . S
C272 O270 1.247 . S
C272 O271 1.208 . S
C273 O278 1.247 . S
C273 O279 1.208 . S
C274 O266 1.315 . S
C274 O269 1.279 . S
C275 O276 1.315 . S
C275 O277 1.279 . S
O276 Cd268 2.223 . S
O276 C275 1.315 . S
O277 Cd267 2.240 . S
O277 C275 1.279 . S
O278 Cd268 2.297 . S
O278 C273 1.247 . S
O279 Cd268 2.439 . S
O279 C273 1.208 . S
O280 Cd281 2.223 . S
O280 C288 1.315 . S
Cd281 O280 2.223 . S
Cd281 O284 2.297 . S
Cd281 O285 2.439 . S
Cd281 O291 2.240 . S
Cd282 O283 2.240 . S
Cd282 O290 2.223 . S
Cd282 O292 2.297 . S
Cd282 O293 2.439 . S
O283 Cd282 2.240 . S
O283 C288 1.279 . S
O284 Cd281 2.297 . S
O284 C286 1.247 . S
O285 Cd281 2.439 . S
O285 C286 1.208 . S
C286 O284 1.247 . S
C286 O285 1.208 . S
C287 O292 1.247 . S
C287 O293 1.208 . S
C288 O280 1.315 . S
C288 O283 1.279 . S
C289 O290 1.315 . S
C289 O291 1.279 . S
O290 Cd282 2.223 . S
O290 C289 1.315 . S
O291 Cd281 2.240 . S
O291 C289 1.279 . S
O292 Cd282 2.297 . S
O292 C287 1.247 . S
O293 Cd282 2.439 . S
O293 C287 1.208 . S
O294 Cd295 2.223 . S
O294 C302 1.315 . S
Cd295 O294 2.223 . S
Cd295 O298 2.297 . S
Cd295 O299 2.439 . S
Cd295 O305 2.240 . S
Cd296 O297 2.240 . S
Cd296 O304 2.223 . S
Cd296 O306 2.297 . S
Cd296 O307 2.439 . S
O297 Cd296 2.240 . S
O297 C302 1.279 . S
O298 Cd295 2.297 . S
O298 C300 1.247 . S
O299 Cd295 2.439 . S
O299 C300 1.208 . S
C300 O298 1.247 . S
C300 O299 1.208 . S
C301 O306 1.247 . S
C301 O307 1.208 . S
C302 O294 1.315 . S
C302 O297 1.279 . S
C303 O304 1.315 . S
C303 O305 1.279 . S
O304 Cd296 2.223 . S
O304 C303 1.315 . S
O305 Cd295 2.240 . S
O305 C303 1.279 . S
O306 Cd296 2.297 . S
O306 C301 1.247 . S
O307 Cd296 2.439 . S
O307 C301 1.208 . S
O308 Cd309 2.223 . S
O308 C316 1.315 . S
Cd309 O308 2.223 . S
Cd309 O312 2.297 . S
Cd309 O313 2.439 . S
Cd309 O319 2.240 . S
Cd310 O311 2.240 . S
Cd310 O318 2.223 . S
Cd310 O320 2.297 . S
Cd310 O321 2.439 . S
O311 Cd310 2.240 . S
O311 C316 1.279 . S
O312 Cd309 2.297 . S
O312 C314 1.247 . S
O313 Cd309 2.439 . S
O313 C314 1.208 . S
C314 O312 1.247 . S
C314 O313 1.208 . S
C315 O320 1.247 . S
C315 O321 1.208 . S
C316 O308 1.315 . S
C316 O311 1.279 . S
C317 O318 1.315 . S
C317 O319 1.279 . S
O318 Cd310 2.223 . S
O318 C317 1.315 . S
O319 Cd309 2.240 . S
O319 C317 1.279 . S
O320 Cd310 2.297 . S
O320 C315 1.247 . S
O321 Cd310 2.439 . S
O321 C315 1.208 . S
O322 Cd323 2.223 . S
O322 C330 1.315 . S
Cd323 O322 2.223 . S
Cd323 O326 2.297 . S
Cd323 O327 2.439 . S
Cd323 O333 2.240 . S
Cd324 O325 2.240 . S
Cd324 O332 2.223 . S
Cd324 O334 2.297 . S
Cd324 O335 2.439 . S
O325 Cd324 2.240 . S
O325 C330 1.279 . S
O326 Cd323 2.297 . S
O326 C328 1.247 . S
O327 Cd323 2.439 . S
O327 C328 1.208 . S
C328 O326 1.247 . S
C328 O327 1.208 . S
C329 O334 1.247 . S
C329 O335 1.208 . S
C330 O322 1.315 . S
C330 O325 1.279 . S
C331 O332 1.315 . S
C331 O333 1.279 . S
O332 Cd324 2.223 . S
O332 C331 1.315 . S
O333 Cd323 2.240 . S
O333 C331 1.279 . S
O334 Cd324 2.297 . S
O334 C329 1.247 . S
O335 Cd324 2.439 . S
O335 C329 1.208 . S
O336 Cd337 2.223 . S
O336 C344 1.315 . S
Cd337 O336 2.223 . S
Cd337 O340 2.297 . S
Cd337 O341 2.439 . S
Cd337 O347 2.240 . S
Cd338 O339 2.240 . S
Cd338 O346 2.223 . S
Cd338 O348 2.297 . S
Cd338 O349 2.439 . S
O339 Cd338 2.240 . S
O339 C344 1.279 . S
O340 Cd337 2.297 . S
O340 C342 1.247 . S
O341 Cd337 2.439 . S
O341 C342 1.208 . S
C342 O340 1.247 . S
C342 O341 1.208 . S
C343 O348 1.247 . S
C343 O349 1.208 . S
C344 O336 1.315 . S
C344 O339 1.279 . S
C345 O346 1.315 . S
C345 O347 1.279 . S
O346 Cd338 2.223 . S
O346 C345 1.315 . S
O347 Cd337 2.240 . S
O347 C345 1.279 . S
O348 Cd338 2.297 . S
O348 C343 1.247 . S
O349 Cd338 2.439 . S
O349 C343 1.208 . S
O350 Cd351 2.223 . S
O350 C358 1.315 . S
Cd351 O350 2.223 . S
Cd351 O354 2.297 . S
Cd351 O355 2.439 . S
Cd351 O361 2.240 . S
Cd352 O353 2.240 . S
Cd352 O360 2.223 . S
Cd352 O362 2.297 . S
Cd352 O363 2.439 . S
O353 Cd352 2.240 . S
O353 C358 1.279 . S
O354 Cd351 2.297 . S
O354 C356 1.247 . S
O355 Cd351 2.439 . S
O355 C356 1.208 . S
C356 O354 1.247 . S
C356 O355 1.208 . S
C357 O362 1.247 . S
C357 O363 1.208 . S
C358 O350 1.315 . S
C358 O353 1.279 . S
C359 O360 1.315 . S
C359 O361 1.279 . S
O360 Cd352 2.223 . S
O360 C359 1.315 . S
O361 Cd351 2.240 . S
O361 C359 1.279 . S
O362 Cd352 2.297 . S
O362 C357 1.247 . S
O363 Cd352 2.439 . S
O363 C357 1.208 . S
O364 Cd365 2.223 . S
O364 C372 1.315 . S
Cd365 O364 2.223 . S
Cd365 O368 2.297 . S
Cd365 O369 2.439 . S
Cd365 O375 2.240 . S
Cd366 O367 2.240 . S
Cd366 O374 2.223 . S
Cd366 O376 2.297 . S
Cd366 O377 2.439 . S
O367 Cd366 2.240 . S
O367 C372 1.279 . S
O368 Cd365 2.297 . S
O368 C370 1.247 . S
O369 Cd365 2.439 . S
O369 C370 1.208 . S
C370 O368 1.247 . S
C370 O369 1.208 . S
C371 O376 1.247 . S
C371 O377 1.208 . S
C372 O364 1.315 . S
C372 O367 1.279 . S
C373 O374 1.315 . S
C373 O375 1.279 . S
O374 Cd366 2.223 . S
O374 C373 1.315 . S
O375 Cd365 2.240 . S
O375 C373 1.279 . S
O376 Cd366 2.297 . S
O376 C371 1.247 . S
O377 Cd366 2.439 . S
O377 C371 1.208 . S
O378 Cd379 2.223 . S
O378 C386 1.315 . S
Cd379 O378 2.223 . S
Cd379 O382 2.297 . S
Cd379 O383 2.439 . S
Cd379 O389 2.240 . S
Cd380 O381 2.240 . S
Cd380 O388 2.223 . S
Cd380 O390 2.297 . S
Cd380 O391 2.439 . S
O381 Cd380 2.240 . S
O381 C386 1.279 . S
O382 Cd379 2.297 . S
O382 C384 1.247 . S
O383 Cd379 2.439 . S
O383 C384 1.208 . S
C384 O382 1.247 . S
C384 O383 1.208 . S
C385 O390 1.247 . S
C385 O391 1.208 . S
C386 O378 1.315 . S
C386 O381 1.279 . S
C387 O388 1.315 . S
C387 O389 1.279 . S
O388 Cd380 2.223 . S
O388 C387 1.315 . S
O389 Cd379 2.240 . S
O389 C387 1.279 . S
O390 Cd380 2.297 . S
O390 C385 1.247 . S
O391 Cd380 2.439 . S
O391 C385 1.208 . S
O392 Cd393 2.223 . S
O392 C400 1.315 . S
Cd393 O392 2.223 . S
Cd393 O396 2.297 . S
Cd393 O397 2.439 . S
Cd393 O403 2.240 . S
Cd394 O395 2.240 . S
Cd394 O402 2.223 . S
Cd394 O404 2.297 . S
Cd394 O405 2.439 . S
O395 Cd394 2.240 . S
O395 C400 1.279 . S
O396 Cd393 2.297 . S
O396 C398 1.247 . S
O397 Cd393 2.439 . S
O397 C398 1.208 . S
C398 O396 1.247 . S
C398 O397 1.208 . S
C399 O404 1.247 . S
C399 O405 1.208 . S
C400 O392 1.315 . S
C400 O395 1.279 . S
C401 O402 1.315 . S
C401 O403 1.279 . S
O402 Cd394 2.223 . S
O402 C401 1.315 . S
O403 Cd393 2.240 . S
O403 C401 1.279 . S
O404 Cd394 2.297 . S
O404 C399 1.247 . S
O405 Cd394 2.439 . S
O405 C399 1.208 . S
O406 Cd407 2.223 . S
O406 C414 1.315 . S
Cd407 O406 2.223 . S
Cd407 O410 2.297 . S
Cd407 O411 2.439 . S
Cd407 O417 2.240 . S
Cd408 O409 2.240 . S
Cd408 O416 2.223 . S
Cd408 O418 2.297 . S
Cd408 O419 2.439 . S
O409 Cd408 2.240 . S
O409 C414 1.279 . S
O410 Cd407 2.297 . S
O410 C412 1.247 . S
O411 Cd407 2.439 . S
O411 C412 1.208 . S
C412 O410 1.247 . S
C412 O411 1.208 . S
C413 O418 1.247 . S
C413 O419 1.208 . S
C414 O406 1.315 . S
C414 O409 1.279 . S
C415 O416 1.315 . S
C415 O417 1.279 . S
O416 Cd408 2.223 . S
O416 C415 1.315 . S
O417 Cd407 2.240 . S
O417 C415 1.279 . S
O418 Cd408 2.297 . S
O418 C413 1.247 . S
O419 Cd408 2.439 . S
O419 C413 1.208 . S
O420 Cd421 2.223 1_556 S
O420 C428 1.315 . S
Cd421 O420 2.223 1_554 S
Cd421 O424 2.297 1_554 S
Cd421 O425 2.439 . S
Cd421 O431 2.240 . S
Cd422 O423 2.240 . S
Cd422 O430 2.223 . S
Cd422 O432 2.297 . S
Cd422 O433 2.439 . S
O423 Cd422 2.240 . S
O423 C428 1.279 1_554 S
O424 Cd421 2.297 1_556 S
O424 C426 1.247 1_556 S
O425 Cd421 2.439 . S
O425 C426 1.208 . S
C426 O424 1.247 1_554 S
C426 O425 1.208 . S
C427 O432 1.247 . S
C427 O433 1.208 . S
C428 O420 1.315 . S
C428 O423 1.279 1_556 S
C429 O430 1.315 . S
C429 O431 1.279 . S
O430 Cd422 2.223 . S
O430 C429 1.315 . S
O431 Cd421 2.240 . S
O431 C429 1.279 . S
O432 Cd422 2.297 . S
O432 C427 1.247 . S
O433 Cd422 2.439 . S
O433 C427 1.208 . S
O434 Cd435 2.223 . S
O434 C442 1.315 . S
Cd435 O434 2.223 . S
Cd435 O438 2.297 . S
Cd435 O439 2.439 . S
Cd435 O445 2.240 . S
Cd436 O437 2.240 . S
Cd436 O444 2.223 . S
Cd436 O446 2.297 . S
Cd436 O447 2.439 . S
O437 Cd436 2.240 . S
O437 C442 1.279 . S
O438 Cd435 2.297 . S
O438 C440 1.247 . S
O439 Cd435 2.439 . S
O439 C440 1.208 . S
C440 O438 1.247 . S
C440 O439 1.208 . S
C441 O446 1.247 . S
C441 O447 1.208 . S
C442 O434 1.315 . S
C442 O437 1.279 . S
C443 O444 1.315 . S
C443 O445 1.279 . S
O444 Cd436 2.223 . S
O444 C443 1.315 . S
O445 Cd435 2.240 . S
O445 C443 1.279 . S
O446 Cd436 2.297 . S
O446 C441 1.247 . S
O447 Cd436 2.439 . S
O447 C441 1.208 . S
H448 C460 0.930 . S
H449 C462 0.930 . S
H450 C463 0.930 . S
H451 C467 0.959 1_556 S
H452 C467 0.959 . S
H453 C467 0.961 . S
H454 C468 0.960 . S
H455 C468 0.961 . S
H456 C468 0.959 . S
H457 C471 0.929 . S
H458 C472 0.931 . S
H459 C474 0.930 . S
C460 H448 0.930 . S
C460 C461 1.399 . S
C460 C465 1.399 . S
C461 C460 1.399 . S
C461 C462 1.376 . S
C462 H449 0.930 . S
C462 C461 1.376 . S
C462 C463 1.388 . S
C463 H450 0.930 . S
C463 C462 1.388 . S
C463 C464 1.390 . S
C464 C463 1.390 . S
C464 C465 1.394 . S
C464 C470 1.465 . S
C465 C460 1.399 . S
C465 C464 1.394 . S
C465 C466 1.516 1_556 S
C466 C465 1.516 1_554 S
C466 C467 1.502 . S
C466 C468 1.561 . S
C466 C469 1.526 . S
C467 H451 0.959 1_554 S
C467 H452 0.959 . S
C467 H453 0.961 . S
C467 C466 1.502 . S
C468 H454 0.960 . S
C468 H455 0.961 . S
C468 H456 0.959 . S
C468 C466 1.561 . S
C469 C466 1.526 . S
C469 C470 1.396 1_554 S
C469 C474 1.390 . S
C470 C464 1.465 . S
C470 C469 1.396 1_556 S
C470 C471 1.399 . S
C471 H457 0.929 . S
C471 C470 1.399 . S
C471 C472 1.385 . S
C472 H458 0.931 . S
C472 C471 1.385 . S
C472 C473 1.389 1_556 S
C473 C472 1.389 1_554 S
C473 C474 1.387 . S
C474 H459 0.930 . S
C474 C469 1.390 . S
C474 C473 1.387 . S
H475 C487 0.930 . S
H476 C489 0.930 . S
H477 C490 0.930 . S
H478 C494 0.959 . S
H479 C494 0.959 . S
H480 C494 0.961 . S
H481 C495 0.960 . S
H482 C495 0.961 . S
H483 C495 0.959 . S
H484 C498 0.929 . S
H485 C499 0.931 . S
H486 C501 0.930 . S
C487 H475 0.930 . S
C487 C488 1.399 . S
C487 C492 1.399 . S
C488 C487 1.399 . S
C488 C489 1.376 . S
C489 H476 0.930 . S
C489 C488 1.376 . S
C489 C490 1.388 . S
C490 H477 0.930 . S
C490 C489 1.388 . S
C490 C491 1.390 . S
C491 C490 1.390 . S
C491 C492 1.394 . S
C491 C497 1.465 . S
C492 C487 1.399 . S
C492 C491 1.394 . S
C492 C493 1.516 . S
C493 C492 1.516 . S
C493 C494 1.502 . S
C493 C495 1.561 . S
C493 C496 1.526 . S
C494 H478 0.959 . S
C494 H479 0.959 . S
C494 H480 0.961 . S
C494 C493 1.502 . S
C495 H481 0.960 . S
C495 H482 0.961 . S
C495 H483 0.959 . S
C495 C493 1.561 . S
C496 C493 1.526 . S
C496 C497 1.396 . S
C496 C501 1.390 . S
C497 C491 1.465 . S
C497 C496 1.396 . S
C497 C498 1.399 . S
C498 H484 0.929 . S
C498 C497 1.399 . S
C498 C499 1.385 . S
C499 H485 0.931 . S
C499 C498 1.385 . S
C499 C500 1.389 . S
C500 C499 1.389 . S
C500 C501 1.387 . S
C501 H486 0.930 . S
C501 C496 1.390 . S
C501 C500 1.387 . S
H502 C514 0.930 . S
H503 C516 0.930 . S
H504 C517 0.930 . S
H505 C521 0.959 . S
H506 C521 0.959 . S
H507 C521 0.961 . S
H508 C522 0.960 . S
H509 C522 0.961 . S
H510 C522 0.959 . S
H511 C525 0.929 . S
H512 C526 0.931 . S
H513 C528 0.930 . S
C514 H502 0.930 . S
C514 C515 1.399 . S
C514 C519 1.399 . S
C515 C514 1.399 . S
C515 C516 1.376 . S
C516 H503 0.930 . S
C516 C515 1.376 . S
C516 C517 1.388 . S
C517 H504 0.930 . S
C517 C516 1.388 . S
C517 C518 1.390 . S
C518 C517 1.390 . S
C518 C519 1.394 . S
C518 C524 1.465 . S
C519 C514 1.399 . S
C519 C518 1.394 . S
C519 C520 1.516 . S
C520 C519 1.516 . S
C520 C521 1.502 . S
C520 C522 1.561 . S
C520 C523 1.526 . S
C521 H505 0.959 . S
C521 H506 0.959 . S
C521 H507 0.961 . S
C521 C520 1.502 . S
C522 H508 0.960 . S
C522 H509 0.961 . S
C522 H510 0.959 . S
C522 C520 1.561 . S
C523 C520 1.526 . S
C523 C524 1.396 . S
C523 C528 1.390 . S
C524 C518 1.465 . S
C524 C523 1.396 . S
C524 C525 1.399 . S
C525 H511 0.929 . S
C525 C524 1.399 . S
C525 C526 1.385 . S
C526 H512 0.931 . S
C526 C525 1.385 . S
C526 C527 1.389 . S
C527 C526 1.389 . S
C527 C528 1.387 . S
C528 H513 0.930 . S
C528 C523 1.390 . S
C528 C527 1.387 . S
H529 C541 0.930 . S
H530 C543 0.930 . S
H531 C544 0.930 . S
H532 C548 0.959 . S
H533 C548 0.959 . S
H534 C548 0.961 . S
H535 C549 0.960 . S
H536 C549 0.961 . S
H537 C549 0.959 . S
H538 C552 0.929 . S
H539 C553 0.931 . S
H540 C555 0.930 . S
C541 H529 0.930 . S
C541 C542 1.399 . S
C541 C546 1.399 . S
C542 C541 1.399 . S
C542 C543 1.376 . S
C543 H530 0.930 . S
C543 C542 1.376 . S
C543 C544 1.388 . S
C544 H531 0.930 . S
C544 C543 1.388 . S
C544 C545 1.390 . S
C545 C544 1.390 . S
C545 C546 1.394 . S
C545 C551 1.465 . S
C546 C541 1.399 . S
C546 C545 1.394 . S
C546 C547 1.516 . S
C547 C546 1.516 . S
C547 C548 1.502 . S
C547 C549 1.561 . S
C547 C550 1.526 . S
C548 H532 0.959 . S
C548 H533 0.959 . S
C548 H534 0.961 . S
C548 C547 1.502 . S
C549 H535 0.960 . S
C549 H536 0.961 . S
C549 H537 0.959 . S
C549 C547 1.561 . S
C550 C547 1.526 . S
C550 C551 1.396 . S
C550 C555 1.390 . S
C551 C545 1.465 . S
C551 C550 1.396 . S
C551 C552 1.399 . S
C552 H538 0.929 . S
C552 C551 1.399 . S
C552 C553 1.385 . S
C553 H539 0.931 . S
C553 C552 1.385 . S
C553 C554 1.389 . S
C554 C553 1.389 . S
C554 C555 1.387 . S
C555 H540 0.930 . S
C555 C550 1.390 . S
C555 C554 1.387 . S
H556 C568 0.930 . S
H557 C570 0.930 . S
H558 C571 0.930 . S
H559 C575 0.959 . S
H560 C575 0.959 . S
H561 C575 0.961 . S
H562 C576 0.960 . S
H563 C576 0.961 . S
H564 C576 0.959 . S
H565 C579 0.929 . S
H566 C580 0.931 . S
H567 C582 0.930 . S
C568 H556 0.930 . S
C568 C569 1.399 . S
C568 C573 1.399 . S
C569 C568 1.399 . S
C569 C570 1.376 . S
C570 H557 0.930 . S
C570 C569 1.376 . S
C570 C571 1.388 . S
C571 H558 0.930 . S
C571 C570 1.388 . S
C571 C572 1.390 . S
C572 C571 1.390 . S
C572 C573 1.394 . S
C572 C578 1.465 . S
C573 C568 1.399 . S
C573 C572 1.394 . S
C573 C574 1.516 . S
C574 C573 1.516 . S
C574 C575 1.502 . S
C574 C576 1.561 . S
C574 C577 1.526 . S
C575 H559 0.959 . S
C575 H560 0.959 . S
C575 H561 0.961 . S
C575 C574 1.502 . S
C576 H562 0.960 . S
C576 H563 0.961 . S
C576 H564 0.959 . S
C576 C574 1.561 . S
C577 C574 1.526 . S
C577 C578 1.396 . S
C577 C582 1.390 . S
C578 C572 1.465 . S
C578 C577 1.396 . S
C578 C579 1.399 . S
C579 H565 0.929 . S
C579 C578 1.399 . S
C579 C580 1.385 . S
C580 H566 0.931 . S
C580 C579 1.385 . S
C580 C581 1.389 . S
C581 C580 1.389 . S
C581 C582 1.387 . S
C582 H567 0.930 . S
C582 C577 1.390 . S
C582 C581 1.387 . S
H583 C595 0.930 . S
H584 C597 0.930 . S
H585 C598 0.930 . S
H586 C602 0.959 . S
H587 C602 0.959 . S
H588 C602 0.961 . S
H589 C603 0.960 . S
H590 C603 0.961 . S
H591 C603 0.959 . S
H592 C606 0.929 . S
H593 C607 0.931 . S
H594 C609 0.930 . S
C595 H583 0.930 . S
C595 C596 1.399 . S
C595 C600 1.399 . S
C596 C595 1.399 . S
C596 C597 1.376 . S
C597 H584 0.930 . S
C597 C596 1.376 . S
C597 C598 1.388 . S
C598 H585 0.930 . S
C598 C597 1.388 . S
C598 C599 1.390 . S
C599 C598 1.390 . S
C599 C600 1.394 . S
C599 C605 1.465 . S
C600 C595 1.399 . S
C600 C599 1.394 . S
C600 C601 1.516 1_556 S
C601 C600 1.516 1_554 S
C601 C602 1.502 . S
C601 C603 1.561 . S
C601 C604 1.526 . S
C602 H586 0.959 . S
C602 H587 0.959 . S
C602 H588 0.961 . S
C602 C601 1.502 . S
C603 H589 0.960 . S
C603 H590 0.961 . S
C603 H591 0.959 . S
C603 C601 1.561 . S
C604 C601 1.526 . S
C604 C605 1.396 1_554 S
C604 C609 1.390 . S
C605 C599 1.465 . S
C605 C604 1.396 1_556 S
C605 C606 1.399 . S
C606 H592 0.929 . S
C606 C605 1.399 . S
C606 C607 1.385 . S
C607 H593 0.931 . S
C607 C606 1.385 . S
C607 C608 1.389 1_556 S
C608 C607 1.389 1_554 S
C608 C609 1.387 . S
C609 H594 0.930 . S
C609 C604 1.390 . S
C609 C608 1.387 . S
H610 C622 0.930 . S
H611 C624 0.930 . S
H612 C625 0.930 . S
H613 C629 0.959 . S
H614 C629 0.959 . S
H615 C629 0.961 . S
H616 C630 0.960 . S
H617 C630 0.961 . S
H618 C630 0.959 . S
H619 C633 0.929 . S
H620 C634 0.931 . S
H621 C636 0.930 . S
C622 H610 0.930 . S
C622 C623 1.399 . S
C622 C627 1.399 . S
C623 C622 1.399 . S
C623 C624 1.376 . S
C624 H611 0.930 . S
C624 C623 1.376 . S
C624 C625 1.388 . S
C625 H612 0.930 . S
C625 C624 1.388 . S
C625 C626 1.390 . S
C626 C625 1.390 . S
C626 C627 1.394 . S
C626 C632 1.465 . S
C627 C622 1.399 . S
C627 C626 1.394 . S
C627 C628 1.516 . S
C628 C627 1.516 . S
C628 C629 1.502 . S
C628 C630 1.561 . S
C628 C631 1.526 . S
C629 H613 0.959 . S
C629 H614 0.959 . S
C629 H615 0.961 . S
C629 C628 1.502 . S
C630 H616 0.960 . S
C630 H617 0.961 . S
C630 H618 0.959 . S
C630 C628 1.561 . S
C631 C628 1.526 . S
C631 C632 1.396 . S
C631 C636 1.390 . S
C632 C626 1.465 . S
C632 C631 1.396 . S
C632 C633 1.399 . S
C633 H619 0.929 . S
C633 C632 1.399 . S
C633 C634 1.385 . S
C634 H620 0.931 . S
C634 C633 1.385 . S
C634 C635 1.389 . S
C635 C634 1.389 . S
C635 C636 1.387 . S
C636 H621 0.930 . S
C636 C631 1.390 . S
C636 C635 1.387 . S
H637 C649 0.930 . S
H638 C651 0.930 . S
H639 C652 0.930 . S
H640 C656 0.959 . S
H641 C656 0.959 . S
H642 C656 0.961 . S
H643 C657 0.960 . S
H644 C657 0.961 . S
H645 C657 0.959 . S
H646 C660 0.929 . S
H647 C661 0.931 . S
H648 C663 0.930 . S
C649 H637 0.930 . S
C649 C650 1.399 . S
C649 C654 1.399 . S
C650 C649 1.399 . S
C650 C651 1.376 . S
C651 H638 0.930 . S
C651 C650 1.376 . S
C651 C652 1.388 . S
C652 H639 0.930 . S
C652 C651 1.388 . S
C652 C653 1.390 . S
C653 C652 1.390 . S
C653 C654 1.394 . S
C653 C659 1.465 . S
C654 C649 1.399 . S
C654 C653 1.394 . S
C654 C655 1.516 . S
C655 C654 1.516 . S
C655 C656 1.502 . S
C655 C657 1.561 . S
C655 C658 1.526 . S
C656 H640 0.959 . S
C656 H641 0.959 . S
C656 H642 0.961 . S
C656 C655 1.502 . S
C657 H643 0.960 . S
C657 H644 0.961 . S
C657 H645 0.959 . S
C657 C655 1.561 . S
C658 C655 1.526 . S
C658 C659 1.396 . S
C658 C663 1.390 . S
C659 C653 1.465 . S
C659 C658 1.396 . S
C659 C660 1.399 . S
C660 H646 0.929 . S
C660 C659 1.399 . S
C660 C661 1.385 . S
C661 H647 0.931 . S
C661 C660 1.385 . S
C661 C662 1.389 . S
C662 C661 1.389 . S
C662 C663 1.387 . S
C663 H648 0.930 . S
C663 C658 1.390 . S
C663 C662 1.387 . S
H664 C676 0.930 . S
H665 C678 0.930 . S
H666 C679 0.930 . S
H667 C683 0.959 . S
H668 C683 0.959 . S
H669 C683 0.961 . S
H670 C684 0.960 . S
H671 C684 0.961 . S
H672 C684 0.959 . S
H673 C687 0.929 . S
H674 C688 0.931 . S
H675 C690 0.930 . S
C676 H664 0.930 . S
C676 C677 1.399 . S
C676 C681 1.399 . S
C677 C676 1.399 . S
C677 C678 1.376 . S
C678 H665 0.930 . S
C678 C677 1.376 . S
C678 C679 1.388 . S
C679 H666 0.930 . S
C679 C678 1.388 . S
C679 C680 1.390 . S
C680 C679 1.390 . S
C680 C681 1.394 . S
C680 C686 1.465 . S
C681 C676 1.399 . S
C681 C680 1.394 . S
C681 C682 1.516 . S
C682 C681 1.516 . S
C682 C683 1.502 . S
C682 C684 1.561 . S
C682 C685 1.526 . S
C683 H667 0.959 . S
C683 H668 0.959 . S
C683 H669 0.961 . S
C683 C682 1.502 . S
C684 H670 0.960 . S
C684 H671 0.961 . S
C684 H672 0.959 . S
C684 C682 1.561 . S
C685 C682 1.526 . S
C685 C686 1.396 . S
C685 C690 1.390 . S
C686 C680 1.465 . S
C686 C685 1.396 . S
C686 C687 1.399 . S
C687 H673 0.929 . S
C687 C686 1.399 . S
C687 C688 1.385 . S
C688 H674 0.931 . S
C688 C687 1.385 . S
C688 C689 1.389 . S
C689 C688 1.389 . S
C689 C690 1.387 . S
C690 H675 0.930 . S
C690 C685 1.390 . S
C690 C689 1.387 . S
H691 C703 0.930 . S
H692 C705 0.930 . S
H693 C706 0.930 . S
H694 C710 0.959 . S
H695 C710 0.959 . S
H696 C710 0.961 . S
H697 C711 0.960 . S
H698 C711 0.961 . S
H699 C711 0.959 . S
H700 C714 0.929 . S
H701 C715 0.931 . S
H702 C717 0.930 . S
C703 H691 0.930 . S
C703 C704 1.399 . S
C703 C708 1.399 . S
C704 C703 1.399 . S
C704 C705 1.376 . S
C705 H692 0.930 . S
C705 C704 1.376 . S
C705 C706 1.388 . S
C706 H693 0.930 . S
C706 C705 1.388 . S
C706 C707 1.390 . S
C707 C706 1.390 . S
C707 C708 1.394 . S
C707 C713 1.465 . S
C708 C703 1.399 . S
C708 C707 1.394 . S
C708 C709 1.516 . S
C709 C708 1.516 . S
C709 C710 1.502 . S
C709 C711 1.561 . S
C709 C712 1.526 . S
C710 H694 0.959 . S
C710 H695 0.959 . S
C710 H696 0.961 . S
C710 C709 1.502 . S
C711 H697 0.960 . S
C711 H698 0.961 . S
C711 H699 0.959 . S
C711 C709 1.561 . S
C712 C709 1.526 . S
C712 C713 1.396 . S
C712 C717 1.390 . S
C713 C707 1.465 . S
C713 C712 1.396 . S
C713 C714 1.399 . S
C714 H700 0.929 . S
C714 C713 1.399 . S
C714 C715 1.385 . S
C715 H701 0.931 . S
C715 C714 1.385 . S
C715 C716 1.389 . S
C716 C715 1.389 . S
C716 C717 1.387 . S
C717 H702 0.930 . S
C717 C712 1.390 . S
C717 C716 1.387 . S
H718 C730 0.930 . S
H719 C732 0.930 . S
H720 C733 0.930 . S
H721 C737 0.959 . S
H722 C737 0.959 . S
H723 C737 0.961 . S
H724 C738 0.960 . S
H725 C738 0.961 . S
H726 C738 0.959 . S
H727 C741 0.929 . S
H728 C742 0.931 . S
H729 C744 0.930 . S
C730 H718 0.930 . S
C730 C731 1.399 . S
C730 C735 1.399 . S
C731 C730 1.399 . S
C731 C732 1.376 . S
C732 H719 0.930 . S
C732 C731 1.376 . S
C732 C733 1.388 . S
C733 H720 0.930 . S
C733 C732 1.388 . S
C733 C734 1.390 . S
C734 C733 1.390 . S
C734 C735 1.394 . S
C734 C740 1.465 . S
C735 C730 1.399 . S
C735 C734 1.394 . S
C735 C736 1.516 1_556 S
C736 C735 1.516 1_554 S
C736 C737 1.502 . S
C736 C738 1.561 . S
C736 C739 1.526 . S
C737 H721 0.959 . S
C737 H722 0.959 . S
C737 H723 0.961 . S
C737 C736 1.502 . S
C738 H724 0.960 . S
C738 H725 0.961 . S
C738 H726 0.959 . S
C738 C736 1.561 . S
C739 C736 1.526 . S
C739 C740 1.396 1_554 S
C739 C744 1.390 . S
C740 C734 1.465 . S
C740 C739 1.396 1_556 S
C740 C741 1.399 . S
C741 H727 0.929 . S
C741 C740 1.399 . S
C741 C742 1.385 . S
C742 H728 0.931 . S
C742 C741 1.385 . S
C742 C743 1.389 1_556 S
C743 C742 1.389 1_554 S
C743 C744 1.387 . S
C744 H729 0.930 . S
C744 C739 1.390 . S
C744 C743 1.387 . S
H745 C757 0.930 . S
H746 C759 0.930 . S
H747 C760 0.930 . S
H748 C764 0.959 . S
H749 C764 0.959 . S
H750 C764 0.961 . S
H751 C765 0.960 . S
H752 C765 0.961 . S
H753 C765 0.959 . S
H754 C768 0.929 . S
H755 C769 0.931 . S
H756 C771 0.930 . S
C757 H745 0.930 . S
C757 C758 1.399 . S
C757 C762 1.399 . S
C758 C757 1.399 . S
C758 C759 1.376 . S
C759 H746 0.930 . S
C759 C758 1.376 . S
C759 C760 1.388 . S
C760 H747 0.930 . S
C760 C759 1.388 . S
C760 C761 1.390 . S
C761 C760 1.390 . S
C761 C762 1.394 . S
C761 C767 1.465 . S
C762 C757 1.399 . S
C762 C761 1.394 . S
C762 C763 1.516 . S
C763 C762 1.516 . S
C763 C764 1.502 . S
C763 C765 1.561 . S
C763 C766 1.526 . S
C764 H748 0.959 . S
C764 H749 0.959 . S
C764 H750 0.961 . S
C764 C763 1.502 . S
C765 H751 0.960 . S
C765 H752 0.961 . S
C765 H753 0.959 . S
C765 C763 1.561 . S
C766 C763 1.526 . S
C766 C767 1.396 . S
C766 C771 1.390 . S
C767 C761 1.465 . S
C767 C766 1.396 . S
C767 C768 1.399 . S
C768 H754 0.929 . S
C768 C767 1.399 . S
C768 C769 1.385 . S
C769 H755 0.931 . S
C769 C768 1.385 . S
C769 C770 1.389 . S
C770 C769 1.389 . S
C770 C771 1.387 . S
C771 H756 0.930 . S
C771 C766 1.390 . S
C771 C770 1.387 . S
H772 C784 0.930 . S
H773 C786 0.930 . S
H774 C787 0.930 . S
H775 C791 0.959 . S
H776 C791 0.959 . S
H777 C791 0.961 . S
H778 C792 0.960 . S
H779 C792 0.961 . S
H780 C792 0.959 . S
H781 C795 0.929 . S
H782 C796 0.931 . S
H783 C798 0.930 . S
C784 H772 0.930 . S
C784 C785 1.399 . S
C784 C789 1.399 . S
C785 C784 1.399 . S
C785 C786 1.376 . S
C786 H773 0.930 . S
C786 C785 1.376 . S
C786 C787 1.388 . S
C787 H774 0.930 . S
C787 C786 1.388 . S
C787 C788 1.390 . S
C788 C787 1.390 . S
C788 C789 1.394 . S
C788 C794 1.465 . S
C789 C784 1.399 . S
C789 C788 1.394 . S
C789 C790 1.516 . S
C790 C789 1.516 . S
C790 C791 1.502 . S
C790 C792 1.561 . S
C790 C793 1.526 . S
C791 H775 0.959 . S
C791 H776 0.959 . S
C791 H777 0.961 . S
C791 C790 1.502 . S
C792 H778 0.960 . S
C792 H779 0.961 . S
C792 H780 0.959 . S
C792 C790 1.561 . S
C793 C790 1.526 . S
C793 C794 1.396 . S
C793 C798 1.390 . S
C794 C788 1.465 . S
C794 C793 1.396 . S
C794 C795 1.399 . S
C795 H781 0.929 . S
C795 C794 1.399 . S
C795 C796 1.385 . S
C796 H782 0.931 . S
C796 C795 1.385 . S
C796 C797 1.389 . S
C797 C796 1.389 . S
C797 C798 1.387 . S
C798 H783 0.930 . S
C798 C793 1.390 . S
C798 C797 1.387 . S
H799 C811 0.930 . S
H800 C813 0.930 . S
H801 C814 0.930 . S
H802 C818 0.959 . S
H803 C818 0.959 . S
H804 C818 0.961 . S
H805 C819 0.960 . S
H806 C819 0.961 . S
H807 C819 0.959 . S
H808 C822 0.929 . S
H809 C823 0.931 . S
H810 C825 0.930 . S
C811 H799 0.930 . S
C811 C812 1.399 . S
C811 C816 1.399 . S
C812 C811 1.399 . S
C812 C813 1.376 . S
C813 H800 0.930 . S
C813 C812 1.376 . S
C813 C814 1.388 . S
C814 H801 0.930 . S
C814 C813 1.388 . S
C814 C815 1.390 . S
C815 C814 1.390 . S
C815 C816 1.394 . S
C815 C821 1.465 . S
C816 C811 1.399 . S
C816 C815 1.394 . S
C816 C817 1.516 . S
C817 C816 1.516 . S
C817 C818 1.502 . S
C817 C819 1.561 . S
C817 C820 1.526 . S
C818 H802 0.959 . S
C818 H803 0.959 . S
C818 H804 0.961 . S
C818 C817 1.502 . S
C819 H805 0.960 . S
C819 H806 0.961 . S
C819 H807 0.959 . S
C819 C817 1.561 . S
C820 C817 1.526 . S
C820 C821 1.396 . S
C820 C825 1.390 . S
C821 C815 1.465 . S
C821 C820 1.396 . S
C821 C822 1.399 . S
C822 H808 0.929 . S
C822 C821 1.399 . S
C822 C823 1.385 . S
C823 H809 0.931 . S
C823 C822 1.385 . S
C823 C824 1.389 . S
C824 C823 1.389 . S
C824 C825 1.387 . S
C825 H810 0.930 . S
C825 C820 1.390 . S
C825 C824 1.387 . S
H826 C838 0.930 . S
H827 C840 0.930 . S
H828 C841 0.930 . S
H829 C845 0.959 . S
H830 C845 0.959 . S
H831 C845 0.961 . S
H832 C846 0.960 . S
H833 C846 0.961 . S
H834 C846 0.959 . S
H835 C849 0.929 . S
H836 C850 0.931 . S
H837 C852 0.930 . S
C838 H826 0.930 . S
C838 C839 1.399 . S
C838 C843 1.399 . S
C839 C838 1.399 . S
C839 C840 1.376 . S
C840 H827 0.930 . S
C840 C839 1.376 . S
C840 C841 1.388 . S
C841 H828 0.930 . S
C841 C840 1.388 . S
C841 C842 1.390 . S
C842 C841 1.390 . S
C842 C843 1.394 . S
C842 C848 1.465 . S
C843 C838 1.399 . S
C843 C842 1.394 . S
C843 C844 1.516 . S
C844 C843 1.516 . S
C844 C845 1.502 . S
C844 C846 1.561 . S
C844 C847 1.526 . S
C845 H829 0.959 . S
C845 H830 0.959 . S
C845 H831 0.961 . S
C845 C844 1.502 . S
C846 H832 0.960 . S
C846 H833 0.961 . S
C846 H834 0.959 . S
C846 C844 1.561 . S
C847 C844 1.526 . S
C847 C848 1.396 . S
C847 C852 1.390 . S
C848 C842 1.465 . S
C848 C847 1.396 . S
C848 C849 1.399 . S
C849 H835 0.929 . S
C849 C848 1.399 . S
C849 C850 1.385 . S
C850 H836 0.931 . S
C850 C849 1.385 . S
C850 C851 1.389 . S
C851 C850 1.389 . S
C851 C852 1.387 . S
C852 H837 0.930 . S
C852 C847 1.390 . S
C852 C851 1.387 . S
H853 C865 0.930 . S
H854 C867 0.930 . S
H855 C868 0.930 . S
H856 C872 0.959 . S
H857 C872 0.959 . S
H858 C872 0.961 . S
H859 C873 0.960 . S
H860 C873 0.961 . S
H861 C873 0.959 . S
H862 C876 0.929 . S
H863 C877 0.931 . S
H864 C879 0.930 . S
C865 H853 0.930 . S
C865 C866 1.399 . S
C865 C870 1.399 . S
C866 C865 1.399 . S
C866 C867 1.376 . S
C867 H854 0.930 . S
C867 C866 1.376 . S
C867 C868 1.388 . S
C868 H855 0.930 . S
C868 C867 1.388 . S
C868 C869 1.390 . S
C869 C868 1.390 . S
C869 C870 1.394 . S
C869 C875 1.465 . S
C870 C865 1.399 . S
C870 C869 1.394 . S
C870 C871 1.516 1_556 S
C871 C870 1.516 1_554 S
C871 C872 1.502 . S
C871 C873 1.561 . S
C871 C874 1.526 . S
C872 H856 0.959 . S
C872 H857 0.959 . S
C872 H858 0.961 . S
C872 C871 1.502 . S
C873 H859 0.960 . S
C873 H860 0.961 . S
C873 H861 0.959 . S
C873 C871 1.561 . S
C874 C871 1.526 . S
C874 C875 1.396 1_554 S
C874 C879 1.390 . S
C875 C869 1.465 . S
C875 C874 1.396 1_556 S
C875 C876 1.399 . S
C876 H862 0.929 . S
C876 C875 1.399 . S
C876 C877 1.385 . S
C877 H863 0.931 . S
C877 C876 1.385 . S
C877 C878 1.389 1_556 S
C878 C877 1.389 1_554 S
C878 C879 1.387 . S
C879 H864 0.930 . S
C879 C874 1.390 . S
C879 C878 1.387 . S
H880 C892 0.930 . S
H881 C894 0.930 . S
H882 C895 0.930 . S
H883 C899 0.959 . S
H884 C899 0.959 . S
H885 C899 0.961 . S
H886 C900 0.960 . S
H887 C900 0.961 . S
H888 C900 0.959 . S
H889 C903 0.929 . S
H890 C904 0.931 . S
H891 C906 0.930 . S
C892 H880 0.930 . S
C892 C893 1.399 . S
C892 C897 1.399 . S
C893 C892 1.399 . S
C893 C894 1.376 . S
C894 H881 0.930 . S
C894 C893 1.376 . S
C894 C895 1.388 . S
C895 H882 0.930 . S
C895 C894 1.388 . S
C895 C896 1.390 . S
C896 C895 1.390 . S
C896 C897 1.394 . S
C896 C902 1.465 . S
C897 C892 1.399 . S
C897 C896 1.394 . S
C897 C898 1.516 . S
C898 C897 1.516 . S
C898 C899 1.502 . S
C898 C900 1.561 . S
C898 C901 1.526 . S
C899 H883 0.959 . S
C899 H884 0.959 . S
C899 H885 0.961 . S
C899 C898 1.502 . S
C900 H886 0.960 . S
C900 H887 0.961 . S
C900 H888 0.959 . S
C900 C898 1.561 . S
C901 C898 1.526 . S
C901 C902 1.396 . S
C901 C906 1.390 . S
C902 C896 1.465 . S
C902 C901 1.396 . S
C902 C903 1.399 . S
C903 H889 0.929 . S
C903 C902 1.399 . S
C903 C904 1.385 . S
C904 H890 0.931 . S
C904 C903 1.385 . S
C904 C905 1.389 . S
C905 C904 1.389 . S
C905 C906 1.387 . S
C906 H891 0.930 . S
C906 C901 1.390 . S
C906 C905 1.387 . S
H907 C919 0.930 . S
H908 C921 0.930 . S
H909 C922 0.930 . S
H910 C926 0.959 . S
H911 C926 0.959 . S
H912 C926 0.961 . S
H913 C927 0.960 . S
H914 C927 0.961 . S
H915 C927 0.959 . S
H916 C930 0.929 . S
H917 C931 0.931 1_556 S
H918 C933 0.951 1_556 S
C919 H907 0.930 . S
C919 C920 1.399 . S
C919 C924 1.399 . S
C920 C919 1.399 . S
C920 C921 1.376 1_565 S
C921 H908 0.930 . S
C921 C920 1.376 1_545 S
C921 C922 1.388 . S
C922 H909 0.930 . S
C922 C921 1.388 . S
C922 C923 1.390 . S
C923 C922 1.390 . S
C923 C924 1.394 1_545 S
C923 C929 1.465 . S
C924 C919 1.399 . S
C924 C923 1.394 1_565 S
C924 C925 1.516 . S
C925 C924 1.516 . S
C925 C926 1.502 . S
C925 C927 1.561 . S
C925 C928 1.526 1_565 S
C926 H910 0.959 . S
C926 H911 0.959 . S
C926 H912 0.961 . S
C926 C925 1.502 . S
C927 H913 0.960 . S
C927 H914 0.961 . S
C927 H915 0.959 . S
C927 C925 1.561 . S
C928 C925 1.526 1_545 S
C928 C929 1.396 . S
C928 C933 1.390 . S
C929 C923 1.465 . S
C929 C928 1.396 . S
C929 C930 1.399 . S
C930 H916 0.929 . S
C930 C929 1.399 . S
C930 C931 1.385 . S
C931 H917 0.931 1_554 S
C931 C930 1.385 . S
C931 C932 1.389 1_554 S
C932 C931 1.389 1_556 S
C932 C933 1.387 1_556 S
C933 H918 0.951 1_554 S
C933 C928 1.390 . S
C933 C932 1.387 1_554 S
H934 C946 0.930 . S
H935 C948 0.930 . S
H936 C949 0.930 . S
H937 C953 0.959 . S
H938 C953 0.959 . S
H939 C953 0.961 . S
H940 C954 0.960 . S
H941 C954 0.961 . S
H942 C954 0.959 . S
H943 C957 0.929 . S
H944 C958 0.931 . S
H945 C960 0.930 . S
C946 H934 0.930 . S
C946 C947 1.399 . S
C946 C951 1.399 . S
C947 C946 1.399 . S
C947 C948 1.376 . S
C948 H935 0.930 . S
C948 C947 1.376 . S
C948 C949 1.388 . S
C949 H936 0.930 . S
C949 C948 1.388 . S
C949 C950 1.390 . S
C950 C949 1.390 . S
C950 C951 1.394 . S
C950 C956 1.465 . S
C951 C946 1.399 . S
C951 C950 1.394 . S
C951 C952 1.516 . S
C952 C951 1.516 . S
C952 C953 1.502 . S
C952 C954 1.561 . S
C952 C955 1.526 . S
C953 H937 0.959 . S
C953 H938 0.959 . S
C953 H939 0.961 . S
C953 C952 1.502 . S
C954 H940 0.960 . S
C954 H941 0.961 . S
C954 H942 0.959 . S
C954 C952 1.561 . S
C955 C952 1.526 . S
C955 C956 1.396 . S
C955 C960 1.390 . S
C956 C950 1.465 . S
C956 C955 1.396 . S
C956 C957 1.399 . S
C957 H943 0.929 . S
C957 C956 1.399 . S
C957 C958 1.385 . S
C958 H944 0.931 . S
C958 C957 1.385 . S
C958 C959 1.389 . S
C959 C958 1.389 . S
C959 C960 1.387 . S
C960 H945 0.930 . S
C960 C955 1.390 . S
C960 C959 1.387 . S
H961 C973 0.930 . S
H962 C975 0.930 . S
H963 C976 0.930 . S
H964 C980 0.959 . S
H965 C980 0.959 . S
H966 C980 0.961 . S
H967 C981 0.960 . S
H968 C981 0.961 . S
H969 C981 0.959 . S
H970 C984 0.929 . S
H971 C985 0.931 . S
H972 C987 0.930 . S
C973 H961 0.930 . S
C973 C974 1.399 . S
C973 C978 1.399 . S
C974 C973 1.399 . S
C974 C975 1.376 . S
C975 H962 0.930 . S
C975 C974 1.376 . S
C975 C976 1.388 . S
C976 H963 0.930 . S
C976 C975 1.388 . S
C976 C977 1.390 . S
C977 C976 1.390 . S
C977 C978 1.394 . S
C977 C983 1.465 1_545 S
C978 C973 1.399 . S
C978 C977 1.394 . S
C978 C979 1.516 . S
C979 C978 1.516 . S
C979 C980 1.502 . S
C979 C981 1.561 1_545 S
C979 C982 1.500 1_545 S
C980 H964 0.959 . S
C980 H965 0.959 . S
C980 H966 0.961 . S
C980 C979 1.502 . S
C981 H967 0.960 . S
C981 H968 0.961 . S
C981 H969 0.959 . S
C981 C979 1.561 1_565 S
C982 C979 1.500 1_565 S
C982 C983 1.403 . S
C982 C987 1.414 . S
C983 C977 1.465 1_565 S
C983 C982 1.403 . S
C983 C984 1.399 . S
C984 H970 0.929 . S
C984 C983 1.399 . S
C984 C985 1.385 . S
C985 H971 0.931 . S
C985 C984 1.385 . S
C985 C986 1.389 . S
C986 C985 1.389 . S
C986 C987 1.387 . S
C987 H972 0.930 . S
C987 C982 1.414 . S
C987 C986 1.387 . S
H988 C1000 0.930 . S
H989 C1002 0.930 . S
H990 C1003 0.930 . S
H991 C1007 0.959 . S
H992 C1007 0.959 . S
H993 C1007 0.961 . S
H994 C1008 0.960 . S
H995 C1008 0.961 . S
H996 C1008 0.959 . S
H997 C1011 0.929 . S
H998 C1012 0.931 . S
H999 C1014 0.930 . S
C1000 H988 0.930 . S
C1000 C1001 1.399 . S
C1000 C1005 1.399 . S
C1001 C1000 1.399 . S
C1001 C1002 1.376 . S
C1002 H989 0.930 . S
C1002 C1001 1.376 . S
C1002 C1003 1.388 . S
C1003 H990 0.930 . S
C1003 C1002 1.388 . S
C1003 C1004 1.390 . S
C1004 C1003 1.390 . S
C1004 C1005 1.394 . S
C1004 C1010 1.465 . S
C1005 C1000 1.399 . S
C1005 C1004 1.394 . S
C1005 C1006 1.516 . S
C1006 C1005 1.516 . S
C1006 C1007 1.502 . S
C1006 C1008 1.561 . S
C1006 C1009 1.526 . S
C1007 H991 0.959 . S
C1007 H992 0.959 . S
C1007 H993 0.961 . S
C1007 C1006 1.502 . S
C1008 H994 0.960 . S
C1008 H995 0.961 . S
C1008 H996 0.959 . S
C1008 C1006 1.561 . S
C1009 C1006 1.526 . S
C1009 C1010 1.396 . S
C1009 C1014 1.390 . S
C1010 C1004 1.465 . S
C1010 C1009 1.396 . S
C1010 C1011 1.399 . S
C1011 H997 0.929 . S
C1011 C1010 1.399 . S
C1011 C1012 1.385 . S
C1012 H998 0.931 . S
C1012 C1011 1.385 . S
C1012 C1013 1.389 . S
C1013 C1012 1.389 . S
C1013 C1014 1.387 . S
C1014 H999 0.930 . S
C1014 C1009 1.390 . S
C1014 C1013 1.387 . S
H1015 C1027 0.937 1_565 S
H1016 C1029 0.930 . S
H1017 C1030 0.930 . S
H1018 C1034 0.959 . S
H1019 C1034 0.959 . S
H1020 C1034 0.961 . S
H1021 C1035 0.960 . S
H1022 C1035 0.961 . S
H1023 C1035 0.959 . S
H1024 C1038 0.929 . S
H1025 C1039 0.931 . S
H1026 C1041 0.930 . S
C1027 H1015 0.937 1_545 S
C1027 C1028 1.403 . S
C1027 C1032 1.388 1_556 S
C1028 C1027 1.403 . S
C1028 C1029 1.376 1_556 S
C1029 H1016 0.930 . S
C1029 C1028 1.376 1_554 S
C1029 C1030 1.388 . S
C1030 H1017 0.930 . S
C1030 C1029 1.388 . S
C1030 C1031 1.390 . S
C1031 C1030 1.390 . S
C1031 C1032 1.394 . S
C1031 C1037 1.465 . S
C1032 C1027 1.388 1_554 S
C1032 C1031 1.394 . S
C1032 C1033 1.516 1_545 S
C1033 C1032 1.516 1_565 S
C1033 C1034 1.502 . S
C1033 C1035 1.561 . S
C1033 C1036 1.526 . S
C1034 H1018 0.959 . S
C1034 H1019 0.959 . S
C1034 H1020 0.961 . S
C1034 C1033 1.502 . S
C1035 H1021 0.960 . S
C1035 H1022 0.961 . S
C1035 H1023 0.959 . S
C1035 C1033 1.561 . S
C1036 C1033 1.526 . S
C1036 C1037 1.396 1_565 S
C1036 C1041 1.390 . S
C1037 C1031 1.465 . S
C1037 C1036 1.396 1_545 S
C1037 C1038 1.399 . S
C1038 H1024 0.929 . S
C1038 C1037 1.399 . S
C1038 C1039 1.385 . S
C1039 H1025 0.931 . S
C1039 C1038 1.385 . S
C1039 C1040 1.389 1_545 S
C1040 C1039 1.389 1_565 S
C1040 C1041 1.387 . S
C1041 H1026 0.930 . S
C1041 C1036 1.390 . S
C1041 C1040 1.387 . S
H1042 C1054 0.930 . S
H1043 C1056 0.930 . S
H1044 C1057 0.930 . S
H1045 C1061 0.959 . S
H1046 C1061 0.959 . S
H1047 C1061 0.961 . S
H1048 C1062 0.960 . S
H1049 C1062 0.961 . S
H1050 C1062 0.959 . S
H1051 C1065 0.929 . S
H1052 C1066 0.931 . S
H1053 C1068 0.930 . S
C1054 H1042 0.930 . S
C1054 C1055 1.399 . S
C1054 C1059 1.399 . S
C1055 C1054 1.399 . S
C1055 C1056 1.376 . S
C1056 H1043 0.930 . S
C1056 C1055 1.376 . S
C1056 C1057 1.388 . S
C1057 H1044 0.930 . S
C1057 C1056 1.388 . S
C1057 C1058 1.390 . S
C1058 C1057 1.390 . S
C1058 C1059 1.394 . S
C1058 C1064 1.465 . S
C1059 C1054 1.399 . S
C1059 C1058 1.394 . S
C1059 C1060 1.516 . S
C1060 C1059 1.516 . S
C1060 C1061 1.502 . S
C1060 C1062 1.561 . S
C1060 C1063 1.526 . S
C1061 H1045 0.959 . S
C1061 H1046 0.959 . S
C1061 H1047 0.961 . S
C1061 C1060 1.502 . S
C1062 H1048 0.960 . S
C1062 H1049 0.961 . S
C1062 H1050 0.959 . S
C1062 C1060 1.561 . S
C1063 C1060 1.526 . S
C1063 C1064 1.396 . S
C1063 C1068 1.390 . S
C1064 C1058 1.465 . S
C1064 C1063 1.396 . S
C1064 C1065 1.399 . S
C1065 H1051 0.929 . S
C1065 C1064 1.399 . S
C1065 C1066 1.385 . S
C1066 H1052 0.931 . S
C1066 C1065 1.385 . S
C1066 C1067 1.389 . S
C1067 C1066 1.389 . S
C1067 C1068 1.387 . S
C1068 H1053 0.930 . S
C1068 C1063 1.390 . S
C1068 C1067 1.387 . S
H1069 C1081 0.930 . S
H1070 C1083 0.930 . S
H1071 C1084 0.930 . S
H1072 C1088 0.959 . S
H1073 C1088 0.959 . S
H1074 C1088 0.961 . S
H1075 C1089 0.960 . S
H1076 C1089 0.961 1_565 S
H1077 C1089 0.959 . S
H1078 C1092 0.929 . S
H1079 C1093 0.933 . S
H1080 C1095 0.930 . S
C1081 H1069 0.930 . S
C1081 C1082 1.399 . S
C1081 C1086 1.399 . S
C1082 C1081 1.399 . S
C1082 C1083 1.376 . S
C1083 H1070 0.930 . S
C1083 C1082 1.376 . S
C1083 C1084 1.388 . S
C1084 H1071 0.930 . S
C1084 C1083 1.388 . S
C1084 C1085 1.390 . S
C1085 C1084 1.390 . S
C1085 C1086 1.394 . S
C1085 C1091 1.465 . S
C1086 C1081 1.399 . S
C1086 C1085 1.394 . S
C1086 C1087 1.516 1_545 S
C1087 C1086 1.516 1_565 S
C1087 C1088 1.502 . S
C1087 C1089 1.561 1_565 S
C1087 C1090 1.526 . S
C1088 H1072 0.959 . S
C1088 H1073 0.959 . S
C1088 H1074 0.961 . S
C1088 C1087 1.502 . S
C1089 H1075 0.960 . S
C1089 H1076 0.961 1_545 S
C1089 H1077 0.959 . S
C1089 C1087 1.561 1_545 S
C1090 C1087 1.526 . S
C1090 C1091 1.396 1_565 S
C1090 C1095 1.390 . S
C1091 C1085 1.465 . S
C1091 C1090 1.396 1_545 S
C1091 C1092 1.399 . S
C1092 H1078 0.929 . S
C1092 C1091 1.399 . S
C1092 C1093 1.393 . S
C1093 H1079 0.933 . S
C1093 C1092 1.393 . S
C1093 C1094 1.380 1_545 S
C1094 C1093 1.380 1_565 S
C1094 C1095 1.387 . S
C1095 H1080 0.930 . S
C1095 C1090 1.390 . S
C1095 C1094 1.387 . S
H1096 C1108 0.930 . S
H1097 C1110 0.930 . S
H1098 C1111 0.930 . S
H1099 C1115 0.959 . S
H1100 C1115 0.959 . S
H1101 C1115 0.961 . S
H1102 C1116 0.960 . S
H1103 C1116 0.961 . S
H1104 C1116 0.959 . S
H1105 C1119 0.929 . S
H1106 C1120 0.931 . S
H1107 C1122 0.930 . S
C1108 H1096 0.930 . S
C1108 C1109 1.399 . S
C1108 C1113 1.399 . S
C1109 C1108 1.399 . S
C1109 C1110 1.376 . S
C1110 H1097 0.930 . S
C1110 C1109 1.376 . S
C1110 C1111 1.388 . S
C1111 H1098 0.930 . S
C1111 C1110 1.388 . S
C1111 C1112 1.390 . S
C1112 C1111 1.390 . S
C1112 C1113 1.394 . S
C1112 C1118 1.465 . S
C1113 C1108 1.399 . S
C1113 C1112 1.394 . S
C1113 C1114 1.516 . S
C1114 C1113 1.516 . S
C1114 C1115 1.502 . S
C1114 C1116 1.561 . S
C1114 C1117 1.526 . S
C1115 H1099 0.959 . S
C1115 H1100 0.959 . S
C1115 H1101 0.961 . S
C1115 C1114 1.502 . S
C1116 H1102 0.960 . S
C1116 H1103 0.961 . S
C1116 H1104 0.959 . S
C1116 C1114 1.561 . S
C1117 C1114 1.526 . S
C1117 C1118 1.396 . S
C1117 C1122 1.390 . S
C1118 C1112 1.465 . S
C1118 C1117 1.396 . S
C1118 C1119 1.399 . S
C1119 H1105 0.929 . S
C1119 C1118 1.399 . S
C1119 C1120 1.385 . S
C1120 H1106 0.931 . S
C1120 C1119 1.385 . S
C1120 C1121 1.389 . S
C1121 C1120 1.389 . S
C1121 C1122 1.387 . S
C1122 H1107 0.930 . S
C1122 C1117 1.390 . S
C1122 C1121 1.387 . S
H1123 C1135 0.930 . S
H1124 C1137 0.930 . S
H1125 C1138 0.930 . S
H1126 C1142 0.959 . S
H1127 C1142 0.959 . S
H1128 C1142 0.961 . S
H1129 C1143 0.960 . S
H1130 C1143 0.961 . S
H1131 C1143 0.959 . S
H1132 C1146 0.929 . S
H1133 C1147 0.931 . S
H1134 C1149 0.930 . S
C1135 H1123 0.930 . S
C1135 C1136 1.399 . S
C1135 C1140 1.399 . S
C1136 C1135 1.399 . S
C1136 C1137 1.376 . S
C1137 H1124 0.930 . S
C1137 C1136 1.376 . S
C1137 C1138 1.388 . S
C1138 H1125 0.930 . S
C1138 C1137 1.388 . S
C1138 C1139 1.390 . S
C1139 C1138 1.390 . S
C1139 C1140 1.394 . S
C1139 C1145 1.465 . S
C1140 C1135 1.399 . S
C1140 C1139 1.394 . S
C1140 C1141 1.516 . S
C1141 C1140 1.516 . S
C1141 C1142 1.502 . S
C1141 C1143 1.561 . S
C1141 C1144 1.526 . S
C1142 H1126 0.959 . S
C1142 H1127 0.959 . S
C1142 H1128 0.961 . S
C1142 C1141 1.502 . S
C1143 H1129 0.960 . S
C1143 H1130 0.961 . S
C1143 H1131 0.959 . S
C1143 C1141 1.561 . S
C1144 C1141 1.526 . S
C1144 C1145 1.396 . S
C1144 C1149 1.390 . S
C1145 C1139 1.465 . S
C1145 C1144 1.396 . S
C1145 C1146 1.399 . S
C1146 H1132 0.929 . S
C1146 C1145 1.399 . S
C1146 C1147 1.385 . S
C1147 H1133 0.931 . S
C1147 C1146 1.385 . S
C1147 C1148 1.389 . S
C1148 C1147 1.389 . S
C1148 C1149 1.387 . S
C1149 H1134 0.930 . S
C1149 C1144 1.390 . S
C1149 C1148 1.387 . S
H1150 C1162 0.930 . S
H1151 C1164 0.930 . S
H1152 C1165 0.930 . S
H1153 C1169 0.959 . S
H1154 C1169 0.959 . S
H1155 C1169 0.961 . S
H1156 C1170 0.960 . S
H1157 C1170 0.961 . S
H1158 C1170 0.959 . S
H1159 C1173 0.929 . S
H1160 C1174 0.931 . S
H1161 C1176 0.930 . S
C1162 H1150 0.930 . S
C1162 C1163 1.399 . S
C1162 C1167 1.399 . S
C1163 C1162 1.399 . S
C1163 C1164 1.376 . S
C1164 H1151 0.930 . S
C1164 C1163 1.376 . S
C1164 C1165 1.388 . S
C1165 H1152 0.930 . S
C1165 C1164 1.388 . S
C1165 C1166 1.390 . S
C1166 C1165 1.390 . S
C1166 C1167 1.394 . S
C1166 C1172 1.465 . S
C1167 C1162 1.399 . S
C1167 C1166 1.394 . S
C1167 C1168 1.516 . S
C1168 C1167 1.516 . S
C1168 C1169 1.502 . S
C1168 C1170 1.561 . S
C1168 C1171 1.526 . S
C1169 H1153 0.959 . S
C1169 H1154 0.959 . S
C1169 H1155 0.961 . S
C1169 C1168 1.502 . S
C1170 H1156 0.960 . S
C1170 H1157 0.961 . S
C1170 H1158 0.959 . S
C1170 C1168 1.561 . S
C1171 C1168 1.526 . S
C1171 C1172 1.396 . S
C1171 C1176 1.390 . S
C1172 C1166 1.465 . S
C1172 C1171 1.396 . S
C1172 C1173 1.399 . S
C1173 H1159 0.929 . S
C1173 C1172 1.399 . S
C1173 C1174 1.385 . S
C1174 H1160 0.931 . S
C1174 C1173 1.385 . S
C1174 C1175 1.389 . S
C1175 C1174 1.389 . S
C1175 C1176 1.387 . S
C1176 H1161 0.930 . S
C1176 C1171 1.390 . S
C1176 C1175 1.387 . S
H1177 C1189 0.930 . S
H1178 C1191 0.930 . S
H1179 C1192 0.930 . S
H1180 C1196 0.959 . S
H1181 C1196 0.959 . S
H1182 C1196 0.961 . S
H1183 C1197 0.960 . S
H1184 C1197 0.961 . S
H1185 C1197 0.959 . S
H1186 C1200 0.929 . S
H1187 C1201 0.931 1_556 S
H1188 C1203 0.930 1_556 S
C1189 H1177 0.930 . S
C1189 C1190 1.399 . S
C1189 C1194 1.399 . S
C1190 C1189 1.399 . S
C1190 C1191 1.376 . S
C1191 H1178 0.930 . S
C1191 C1190 1.376 . S
C1191 C1192 1.388 . S
C1192 H1179 0.930 . S
C1192 C1191 1.388 . S
C1192 C1193 1.390 . S
C1193 C1192 1.390 . S
C1193 C1194 1.394 . S
C1193 C1199 1.465 . S
C1194 C1189 1.399 . S
C1194 C1193 1.394 . S
C1194 C1195 1.516 . S
C1195 C1194 1.516 . S
C1195 C1196 1.502 . S
C1195 C1197 1.561 . S
C1195 C1198 1.526 . S
C1196 H1180 0.959 . S
C1196 H1181 0.959 . S
C1196 H1182 0.961 . S
C1196 C1195 1.502 . S
C1197 H1183 0.960 . S
C1197 H1184 0.961 . S
C1197 H1185 0.959 . S
C1197 C1195 1.561 . S
C1198 C1195 1.526 . S
C1198 C1199 1.396 . S
C1198 C1203 1.390 . S
C1199 C1193 1.465 . S
C1199 C1198 1.396 . S
C1199 C1200 1.399 . S
C1200 H1186 0.929 . S
C1200 C1199 1.399 . S
C1200 C1201 1.385 . S
C1201 H1187 0.931 1_554 S
C1201 C1200 1.385 . S
C1201 C1202 1.389 1_554 S
C1202 C1201 1.389 1_556 S
C1202 C1203 1.387 1_556 S
C1203 H1188 0.930 1_554 S
C1203 C1198 1.390 . S
C1203 C1202 1.387 1_554 S
H1204 C1216 0.930 . S
H1205 C1218 0.930 . S
H1206 C1219 0.930 . S
H1207 C1223 0.959 . S
H1208 C1223 0.959 . S
H1209 C1223 0.961 . S
H1210 C1224 0.960 . S
H1211 C1224 0.961 . S
H1212 C1224 0.959 . S
H1213 C1227 0.929 . S
H1214 C1228 0.931 . S
H1215 C1230 0.930 . S
C1216 H1204 0.930 . S
C1216 C1217 1.399 . S
C1216 C1221 1.399 . S
C1217 C1216 1.399 . S
C1217 C1218 1.376 . S
C1218 H1205 0.930 . S
C1218 C1217 1.376 . S
C1218 C1219 1.388 . S
C1219 H1206 0.930 . S
C1219 C1218 1.388 . S
C1219 C1220 1.390 . S
C1220 C1219 1.390 . S
C1220 C1221 1.394 . S
C1220 C1226 1.465 . S
C1221 C1216 1.399 . S
C1221 C1220 1.394 . S
C1221 C1222 1.516 . S
C1222 C1221 1.516 . S
C1222 C1223 1.502 . S
C1222 C1224 1.561 . S
C1222 C1225 1.526 . S
C1223 H1207 0.959 . S
C1223 H1208 0.959 . S
C1223 H1209 0.961 . S
C1223 C1222 1.502 . S
C1224 H1210 0.960 . S
C1224 H1211 0.961 . S
C1224 H1212 0.959 . S
C1224 C1222 1.561 . S
C1225 C1222 1.526 . S
C1225 C1226 1.396 . S
C1225 C1230 1.390 . S
C1226 C1220 1.465 . S
C1226 C1225 1.396 . S
C1226 C1227 1.399 . S
C1227 H1213 0.929 . S
C1227 C1226 1.399 . S
C1227 C1228 1.385 . S
C1228 H1214 0.931 . S
C1228 C1227 1.385 . S
C1228 C1229 1.389 . S
C1229 C1228 1.389 . S
C1229 C1230 1.387 . S
C1230 H1215 0.930 . S
C1230 C1225 1.390 . S
C1230 C1229 1.387 . S
H1231 C1243 0.930 . S
H1232 C1245 0.930 . S
H1233 C1246 0.930 . S
H1234 C1250 0.959 . S
H1235 C1250 0.959 . S
H1236 C1250 0.961 . S
H1237 C1251 0.960 . S
H1238 C1251 0.961 . S
H1239 C1251 0.959 . S
H1240 C1254 0.929 . S
H1241 C1255 0.931 . S
H1242 C1257 0.930 . S
C1243 H1231 0.930 . S
C1243 C1244 1.399 . S
C1243 C1248 1.399 . S
C1244 C1243 1.399 . S
C1244 C1245 1.376 . S
C1245 H1232 0.930 . S
C1245 C1244 1.376 . S
C1245 C1246 1.388 . S
C1246 H1233 0.930 . S
C1246 C1245 1.388 . S
C1246 C1247 1.390 . S
C1247 C1246 1.390 . S
C1247 C1248 1.394 . S
C1247 C1253 1.465 . S
C1248 C1243 1.399 . S
C1248 C1247 1.394 . S
C1248 C1249 1.516 . S
C1249 C1248 1.516 . S
C1249 C1250 1.502 . S
C1249 C1251 1.561 . S
C1249 C1252 1.526 . S
C1250 H1234 0.959 . S
C1250 H1235 0.959 . S
C1250 H1236 0.961 . S
C1250 C1249 1.502 . S
C1251 H1237 0.960 . S
C1251 H1238 0.961 . S
C1251 H1239 0.959 . S
C1251 C1249 1.561 . S
C1252 C1249 1.526 . S
C1252 C1253 1.396 . S
C1252 C1257 1.390 . S
C1253 C1247 1.465 . S
C1253 C1252 1.396 . S
C1253 C1254 1.399 . S
C1254 H1240 0.929 . S
C1254 C1253 1.399 . S
C1254 C1255 1.385 . S
C1255 H1241 0.931 . S
C1255 C1254 1.385 . S
C1255 C1256 1.389 . S
C1256 C1255 1.389 . S
C1256 C1257 1.387 . S
C1257 H1242 0.930 . S
C1257 C1252 1.390 . S
C1257 C1256 1.387 . S
H1258 C1270 0.930 . S
H1259 C1272 0.930 . S
H1260 C1273 0.930 . S
H1261 C1277 0.959 . S
H1262 C1277 0.959 . S
H1263 C1277 0.961 . S
H1264 C1278 0.960 . S
H1265 C1278 0.961 . S
H1266 C1278 0.959 . S
H1267 C1281 0.929 . S
H1268 C1282 0.931 . S
H1269 C1284 0.930 . S
C1270 H1258 0.930 . S
C1270 C1271 1.399 . S
C1270 C1275 1.399 . S
C1271 C1270 1.399 . S
C1271 C1272 1.376 . S
C1272 H1259 0.930 . S
C1272 C1271 1.376 . S
C1272 C1273 1.388 . S
C1273 H1260 0.930 . S
C1273 C1272 1.388 . S
C1273 C1274 1.390 . S
C1274 C1273 1.390 . S
C1274 C1275 1.394 . S
C1274 C1280 1.465 . S
C1275 C1270 1.399 . S
C1275 C1274 1.394 . S
C1275 C1276 1.516 . S
C1276 C1275 1.516 . S
C1276 C1277 1.502 . S
C1276 C1278 1.561 . S
C1276 C1279 1.526 . S
C1277 H1261 0.959 . S
C1277 H1262 0.959 . S
C1277 H1263 0.961 . S
C1277 C1276 1.502 . S
C1278 H1264 0.960 . S
C1278 H1265 0.961 . S
C1278 H1266 0.959 . S
C1278 C1276 1.561 . S
C1279 C1276 1.526 . S
C1279 C1280 1.396 . S
C1279 C1284 1.390 . S
C1280 C1274 1.465 . S
C1280 C1279 1.396 . S
C1280 C1281 1.399 . S
C1281 H1267 0.929 . S
C1281 C1280 1.399 . S
C1281 C1282 1.385 . S
C1282 H1268 0.931 . S
C1282 C1281 1.385 . S
C1282 C1283 1.389 . S
C1283 C1282 1.389 . S
C1283 C1284 1.387 . S
C1284 H1269 0.930 . S
C1284 C1279 1.390 . S
C1284 C1283 1.387 . S
H1285 C1297 0.930 . S
H1286 C1299 0.930 . S
H1287 C1300 0.930 . S
H1288 C1304 0.959 . S
H1289 C1304 0.959 . S
H1290 C1304 0.961 . S
H1291 C1305 0.960 . S
H1292 C1305 0.961 . S
H1293 C1305 0.959 . S
H1294 C1308 0.929 . S
H1295 C1309 0.931 . S
H1296 C1311 0.930 . S
C1297 H1285 0.930 . S
C1297 C1298 1.399 . S
C1297 C1302 1.399 . S
C1298 C1297 1.399 . S
C1298 C1299 1.376 . S
C1299 H1286 0.930 . S
C1299 C1298 1.376 . S
C1299 C1300 1.388 . S
C1300 H1287 0.930 . S
C1300 C1299 1.388 . S
C1300 C1301 1.390 . S
C1301 C1300 1.390 . S
C1301 C1302 1.394 . S
C1301 C1307 1.465 . S
C1302 C1297 1.399 . S
C1302 C1301 1.394 . S
C1302 C1303 1.516 . S
C1303 C1302 1.516 . S
C1303 C1304 1.502 . S
C1303 C1305 1.561 . S
C1303 C1306 1.526 . S
C1304 H1288 0.959 . S
C1304 H1289 0.959 . S
C1304 H1290 0.961 . S
C1304 C1303 1.502 . S
C1305 H1291 0.960 . S
C1305 H1292 0.961 . S
C1305 H1293 0.959 . S
C1305 C1303 1.561 . S
C1306 C1303 1.526 . S
C1306 C1307 1.396 . S
C1306 C1311 1.389 1_554 S
C1307 C1301 1.465 . S
C1307 C1306 1.396 . S
C1307 C1308 1.399 . S
C1308 H1294 0.929 . S
C1308 C1307 1.399 . S
C1308 C1309 1.385 . S
C1309 H1295 0.931 . S
C1309 C1308 1.385 . S
C1309 C1310 1.389 1_554 S
C1310 C1309 1.389 1_556 S
C1310 C1311 1.387 . S
C1311 H1296 0.930 . S
C1311 C1306 1.389 1_556 S
C1311 C1310 1.387 . S
H1312 C1324 0.930 . S
H1313 C1326 0.930 1_556 S
H1314 C1327 0.930 1_556 S
H1315 C1331 0.959 . S
H1316 C1331 0.959 . S
H1317 C1331 0.961 . S
H1318 C1332 0.960 . S
H1319 C1332 0.961 . S
H1320 C1332 0.959 . S
H1321 C1335 0.929 1_556 S
H1322 C1336 0.931 1_556 S
H1323 C1338 0.930 . S
C1324 H1312 0.930 . S
C1324 C1325 1.399 . S
C1324 C1329 1.399 . S
C1325 C1324 1.399 . S
C1325 C1326 1.376 . S
C1326 H1313 0.930 1_554 S
C1326 C1325 1.376 . S
C1326 C1327 1.388 . S
C1327 H1314 0.930 1_554 S
C1327 C1326 1.388 . S
C1327 C1328 1.390 . S
C1328 C1327 1.390 . S
C1328 C1329 1.394 . S
C1328 C1334 1.465 . S
C1329 C1324 1.399 . S
C1329 C1328 1.394 . S
C1329 C1330 1.516 . S
C1330 C1329 1.516 . S
C1330 C1331 1.502 . S
C1330 C1332 1.561 . S
C1330 C1333 1.526 . S
C1331 H1315 0.959 . S
C1331 H1316 0.959 . S
C1331 H1317 0.961 . S
C1331 C1330 1.502 . S
C1332 H1318 0.960 . S
C1332 H1319 0.961 . S
C1332 H1320 0.959 . S
C1332 C1330 1.561 . S
C1333 C1330 1.526 . S
C1333 C1334 1.396 . S
C1333 C1338 1.390 . S
C1334 C1328 1.465 . S
C1334 C1333 1.396 . S
C1334 C1335 1.399 . S
C1335 H1321 0.929 1_554 S
C1335 C1334 1.399 . S
C1335 C1336 1.385 . S
C1336 H1322 0.931 1_554 S
C1336 C1335 1.385 . S
C1336 C1337 1.389 . S
C1337 C1336 1.389 . S
C1337 C1338 1.387 . S
C1338 H1323 0.930 . S
C1338 C1333 1.390 . S
C1338 C1337 1.387 . S
H1339 C1351 0.930 . S
H1340 C1353 0.930 . S
H1341 C1354 0.930 . S
H1342 C1358 0.962 . S
H1343 C1358 0.977 . S
H1344 C1358 0.942 1_455 S
H1345 C1359 0.960 1_455 S
H1346 C1359 0.961 . S
H1347 C1359 0.959 . S
H1348 C1362 0.929 . S
H1349 C1363 0.931 . S
H1350 C1365 0.930 . S
C1351 H1339 0.930 . S
C1351 C1352 1.399 . S
C1351 C1356 1.399 . S
C1352 C1351 1.399 . S
C1352 C1353 1.376 . S
C1353 H1340 0.930 . S
C1353 C1352 1.376 . S
C1353 C1354 1.388 . S
C1354 H1341 0.930 . S
C1354 C1353 1.388 . S
C1354 C1355 1.390 . S
C1355 C1354 1.390 . S
C1355 C1356 1.394 . S
C1355 C1361 1.465 1_455 S
C1356 C1351 1.399 . S
C1356 C1355 1.394 . S
C1356 C1357 1.519 1_455 S
C1357 C1356 1.519 1_655 S
C1357 C1358 1.502 . S
C1357 C1359 1.561 . S
C1357 C1360 1.523 . S
C1358 H1342 0.962 . S
C1358 H1343 0.977 . S
C1358 H1344 0.942 1_655 S
C1358 C1357 1.502 . S
C1359 H1345 0.960 1_655 S
C1359 H1346 0.961 . S
C1359 H1347 0.959 . S
C1359 C1357 1.561 . S
C1360 C1357 1.523 . S
C1360 C1361 1.396 . S
C1360 C1365 1.390 . S
C1361 C1355 1.465 1_655 S
C1361 C1360 1.396 . S
C1361 C1362 1.399 . S
C1362 H1348 0.929 . S
C1362 C1361 1.399 . S
C1362 C1363 1.385 . S
C1363 H1349 0.931 . S
C1363 C1362 1.385 . S
C1363 C1364 1.389 . S
C1364 C1363 1.389 . S
C1364 C1365 1.387 . S
C1365 H1350 0.930 . S
C1365 C1360 1.390 . S
C1365 C1364 1.387 . S
H1366 C1378 0.930 . S
H1367 C1380 0.930 . S
H1368 C1381 0.930 . S
H1369 C1385 0.959 . S
H1370 C1385 0.959 . S
H1371 C1385 0.961 . S
H1372 C1386 0.960 . S
H1373 C1386 0.961 . S
H1374 C1386 0.959 . S
H1375 C1389 0.929 . S
H1376 C1390 0.931 . S
H1377 C1392 0.930 . S
C1378 H1366 0.930 . S
C1378 C1379 1.399 . S
C1378 C1383 1.399 . S
C1379 C1378 1.399 . S
C1379 C1380 1.376 . S
C1380 H1367 0.930 . S
C1380 C1379 1.376 . S
C1380 C1381 1.388 . S
C1381 H1368 0.930 . S
C1381 C1380 1.388 . S
C1381 C1382 1.390 . S
C1382 C1381 1.390 . S
C1382 C1383 1.394 . S
C1382 C1388 1.465 . S
C1383 C1378 1.399 . S
C1383 C1382 1.394 . S
C1383 C1384 1.516 . S
C1384 C1383 1.516 . S
C1384 C1385 1.502 . S
C1384 C1386 1.561 . S
C1384 C1387 1.526 . S
C1385 H1369 0.959 . S
C1385 H1370 0.959 . S
C1385 H1371 0.961 . S
C1385 C1384 1.502 . S
C1386 H1372 0.960 . S
C1386 H1373 0.961 . S
C1386 H1374 0.959 . S
C1386 C1384 1.561 . S
C1387 C1384 1.526 . S
C1387 C1388 1.396 . S
C1387 C1392 1.390 . S
C1388 C1382 1.465 . S
C1388 C1387 1.396 . S
C1388 C1389 1.399 . S
C1389 H1375 0.929 . S
C1389 C1388 1.399 . S
C1389 C1390 1.385 . S
C1390 H1376 0.931 . S
C1390 C1389 1.385 . S
C1390 C1391 1.389 . S
C1391 C1390 1.389 . S
C1391 C1392 1.387 . S
C1392 H1377 0.930 . S
C1392 C1387 1.390 . S
C1392 C1391 1.387 . S
H1393 C1405 0.930 . S
H1394 C1407 0.930 . S
H1395 C1408 0.930 . S
H1396 C1412 0.959 . S
H1397 C1412 0.959 . S
H1398 C1412 0.961 . S
H1399 C1413 0.960 . S
H1400 C1413 0.961 . S
H1401 C1413 0.959 . S
H1402 C1416 0.929 . S
H1403 C1417 0.931 . S
H1404 C1419 0.930 . S
C1405 H1393 0.930 . S
C1405 C1406 1.399 . S
C1405 C1410 1.399 . S
C1406 C1405 1.399 . S
C1406 C1407 1.376 . S
C1407 H1394 0.930 . S
C1407 C1406 1.376 . S
C1407 C1408 1.388 . S
C1408 H1395 0.930 . S
C1408 C1407 1.388 . S
C1408 C1409 1.390 . S
C1409 C1408 1.390 . S
C1409 C1410 1.394 . S
C1409 C1415 1.465 . S
C1410 C1405 1.399 . S
C1410 C1409 1.394 . S
C1410 C1411 1.516 . S
C1411 C1410 1.516 . S
C1411 C1412 1.502 . S
C1411 C1413 1.561 . S
C1411 C1414 1.526 . S
C1412 H1396 0.959 . S
C1412 H1397 0.959 . S
C1412 H1398 0.961 . S
C1412 C1411 1.502 . S
C1413 H1399 0.960 . S
C1413 H1400 0.961 . S
C1413 H1401 0.959 . S
C1413 C1411 1.561 . S
C1414 C1411 1.526 . S
C1414 C1415 1.396 . S
C1414 C1419 1.390 . S
C1415 C1409 1.465 . S
C1415 C1414 1.396 . S
C1415 C1416 1.399 . S
C1416 H1402 0.929 . S
C1416 C1415 1.399 . S
C1416 C1417 1.385 . S
C1417 H1403 0.931 . S
C1417 C1416 1.385 . S
C1417 C1418 1.389 . S
C1418 C1417 1.389 . S
C1418 C1419 1.387 . S
C1419 H1404 0.930 . S
C1419 C1414 1.390 . S
C1419 C1418 1.387 . S
H1420 C1432 0.930 . S
H1421 C1434 0.930 . S
H1422 C1435 0.930 . S
H1423 C1439 0.959 . S
H1424 C1439 0.959 . S
H1425 C1439 0.961 . S
H1426 C1440 0.960 . S
H1427 C1440 0.961 . S
H1428 C1440 0.959 . S
H1429 C1443 0.929 . S
H1430 C1444 0.931 . S
H1431 C1446 0.930 . S
C1432 H1420 0.930 . S
C1432 C1433 1.399 . S
C1432 C1437 1.399 . S
C1433 C1432 1.399 . S
C1433 C1434 1.376 . S
C1434 H1421 0.930 . S
C1434 C1433 1.376 . S
C1434 C1435 1.388 . S
C1435 H1422 0.930 . S
C1435 C1434 1.388 . S
C1435 C1436 1.390 . S
C1436 C1435 1.390 . S
C1436 C1437 1.394 . S
C1436 C1442 1.465 . S
C1437 C1432 1.399 . S
C1437 C1436 1.394 . S
C1437 C1438 1.516 . S
C1438 C1437 1.516 . S
C1438 C1439 1.502 . S
C1438 C1440 1.561 . S
C1438 C1441 1.526 . S
C1439 H1423 0.959 . S
C1439 H1424 0.959 . S
C1439 H1425 0.961 . S
C1439 C1438 1.502 . S
C1440 H1426 0.960 . S
C1440 H1427 0.961 . S
C1440 H1428 0.959 . S
C1440 C1438 1.561 . S
C1441 C1438 1.526 . S
C1441 C1442 1.396 . S
C1441 C1446 1.390 . S
C1442 C1436 1.465 . S
C1442 C1441 1.396 . S
C1442 C1443 1.399 . S
C1443 H1429 0.929 . S
C1443 C1442 1.399 . S
C1443 C1444 1.385 . S
C1444 H1430 0.931 . S
C1444 C1443 1.385 . S
C1444 C1445 1.389 . S
C1445 C1444 1.389 . S
C1445 C1446 1.387 . S
C1446 H1431 0.930 . S
C1446 C1441 1.390 . S
C1446 C1445 1.387 . S
H1447 C1459 0.930 . S
H1448 C1461 0.930 . S
H1449 C1462 0.930 . S
H1450 C1466 0.959 . S
H1451 C1466 0.959 . S
H1452 C1466 0.961 . S
H1453 C1467 0.960 . S
H1454 C1467 0.961 . S
H1455 C1467 0.959 . S
H1456 C1470 0.929 . S
H1457 C1471 0.931 . S
H1458 C1473 0.930 . S
C1459 H1447 0.930 . S
C1459 C1460 1.399 . S
C1459 C1464 1.399 . S
C1460 C1459 1.399 . S
C1460 C1461 1.376 . S
C1461 H1448 0.930 . S
C1461 C1460 1.376 . S
C1461 C1462 1.388 . S
C1462 H1449 0.930 . S
C1462 C1461 1.388 . S
C1462 C1463 1.390 . S
C1463 C1462 1.390 . S
C1463 C1464 1.394 . S
C1463 C1469 1.465 . S
C1464 C1459 1.399 . S
C1464 C1463 1.394 . S
C1464 C1465 1.516 . S
C1465 C1464 1.516 . S
C1465 C1466 1.502 . S
C1465 C1467 1.561 . S
C1465 C1468 1.526 . S
C1466 H1450 0.959 . S
C1466 H1451 0.959 . S
C1466 H1452 0.961 . S
C1466 C1465 1.502 . S
C1467 H1453 0.960 . S
C1467 H1454 0.961 . S
C1467 H1455 0.959 . S
C1467 C1465 1.561 . S
C1468 C1465 1.526 . S
C1468 C1469 1.396 . S
C1468 C1473 1.390 . S
C1469 C1463 1.465 . S
C1469 C1468 1.396 . S
C1469 C1470 1.399 . S
C1470 H1456 0.929 . S
C1470 C1469 1.399 . S
C1470 C1471 1.385 . S
C1471 H1457 0.931 . S
C1471 C1470 1.385 . S
C1471 C1472 1.389 . S
C1472 C1471 1.389 . S
C1472 C1473 1.387 . S
C1473 H1458 0.930 . S
C1473 C1468 1.390 . S
C1473 C1472 1.387 . S
H1474 C1486 0.930 . S
H1475 C1488 0.930 . S
H1476 C1489 0.930 . S
H1477 C1493 0.959 . S
H1478 C1493 0.959 . S
H1479 C1493 0.961 . S
H1480 C1494 0.960 . S
H1481 C1494 0.961 . S
H1482 C1494 0.959 . S
H1483 C1497 0.929 . S
H1484 C1498 0.931 . S
H1485 C1500 0.930 . S
C1486 H1474 0.930 . S
C1486 C1487 1.399 . S
C1486 C1491 1.399 . S
C1487 C1486 1.399 . S
C1487 C1488 1.376 . S
C1488 H1475 0.930 . S
C1488 C1487 1.376 . S
C1488 C1489 1.388 . S
C1489 H1476 0.930 . S
C1489 C1488 1.388 . S
C1489 C1490 1.390 . S
C1490 C1489 1.390 . S
C1490 C1491 1.394 . S
C1490 C1496 1.465 . S
C1491 C1486 1.399 . S
C1491 C1490 1.394 . S
C1491 C1492 1.516 . S
C1492 C1491 1.516 . S
C1492 C1493 1.502 . S
C1492 C1494 1.561 . S
C1492 C1495 1.526 . S
C1493 H1477 0.959 . S
C1493 H1478 0.959 . S
C1493 H1479 0.961 . S
C1493 C1492 1.502 . S
C1494 H1480 0.960 . S
C1494 H1481 0.961 . S
C1494 H1482 0.959 . S
C1494 C1492 1.561 . S
C1495 C1492 1.526 . S
C1495 C1496 1.396 . S
C1495 C1500 1.390 . S
C1496 C1490 1.465 . S
C1496 C1495 1.396 . S
C1496 C1497 1.399 . S
C1497 H1483 0.929 . S
C1497 C1496 1.399 . S
C1497 C1498 1.385 . S
C1498 H1484 0.931 . S
C1498 C1497 1.385 . S
C1498 C1499 1.389 . S
C1499 C1498 1.389 . S
C1499 C1500 1.387 . S
C1500 H1485 0.930 . S
C1500 C1495 1.390 . S
C1500 C1499 1.387 . S
H1501 C1513 0.930 . S
H1502 C1515 0.930 . S
H1503 C1516 0.930 . S
H1504 C1520 0.962 . S
H1505 C1520 0.977 1_565 S
H1506 C1520 0.942 1_665 S
H1507 C1521 0.960 1_655 S
H1508 C1521 0.961 . S
H1509 C1521 0.959 . S
H1510 C1524 0.929 . S
H1511 C1525 0.931 . S
H1512 C1527 0.930 . S
C1513 H1501 0.930 . S
C1513 C1514 1.399 . S
C1513 C1518 1.399 . S
C1514 C1513 1.399 . S
C1514 C1515 1.376 . S
C1515 H1502 0.930 . S
C1515 C1514 1.376 . S
C1515 C1516 1.388 . S
C1516 H1503 0.930 . S
C1516 C1515 1.388 . S
C1516 C1517 1.390 . S
C1517 C1516 1.390 . S
C1517 C1518 1.394 . S
C1517 C1523 1.465 1_655 S
C1518 C1513 1.399 . S
C1518 C1517 1.394 . S
C1518 C1519 1.519 1_655 S
C1519 C1518 1.519 1_455 S
C1519 C1520 1.502 . S
C1519 C1521 1.561 . S
C1519 C1522 1.523 . S
C1520 H1504 0.962 . S
C1520 H1505 0.977 1_545 S
C1520 H1506 0.942 1_445 S
C1520 C1519 1.502 . S
C1521 H1507 0.960 1_455 S
C1521 H1508 0.961 . S
C1521 H1509 0.959 . S
C1521 C1519 1.561 . S
C1522 C1519 1.523 . S
C1522 C1523 1.396 . S
C1522 C1527 1.390 . S
C1523 C1517 1.465 1_455 S
C1523 C1522 1.396 . S
C1523 C1524 1.399 . S
C1524 H1510 0.929 . S
C1524 C1523 1.399 . S
C1524 C1525 1.385 . S
C1525 H1511 0.931 . S
C1525 C1524 1.385 . S
C1525 C1526 1.389 . S
C1526 C1525 1.389 . S
C1526 C1527 1.387 . S
C1527 H1512 0.930 . S
C1527 C1522 1.390 . S
C1527 C1526 1.387 . S
H1528 C1540 0.930 . S
H1529 C1542 0.930 . S
H1530 C1543 0.930 . S
H1531 C1547 0.959 . S
H1532 C1547 0.959 . S
H1533 C1547 0.961 . S
H1534 C1548 0.960 . S
H1535 C1548 0.961 . S
H1536 C1548 0.959 . S
H1537 C1551 0.929 . S
H1538 C1552 0.931 . S
H1539 C1554 0.930 . S
C1540 H1528 0.930 . S
C1540 C1541 1.399 . S
C1540 C1545 1.399 . S
C1541 C1540 1.399 . S
C1541 C1542 1.376 . S
C1542 H1529 0.930 . S
C1542 C1541 1.376 . S
C1542 C1543 1.388 . S
C1543 H1530 0.930 . S
C1543 C1542 1.388 . S
C1543 C1544 1.390 . S
C1544 C1543 1.390 . S
C1544 C1545 1.394 . S
C1544 C1550 1.465 . S
C1545 C1540 1.399 . S
C1545 C1544 1.394 . S
C1545 C1546 1.516 . S
C1546 C1545 1.516 . S
C1546 C1547 1.502 . S
C1546 C1548 1.561 . S
C1546 C1549 1.526 . S
C1547 H1531 0.959 . S
C1547 H1532 0.959 . S
C1547 H1533 0.961 . S
C1547 C1546 1.502 . S
C1548 H1534 0.960 . S
C1548 H1535 0.961 . S
C1548 H1536 0.959 . S
C1548 C1546 1.561 . S
C1549 C1546 1.526 . S
C1549 C1550 1.396 . S
C1549 C1554 1.390 . S
C1550 C1544 1.465 . S
C1550 C1549 1.396 . S
C1550 C1551 1.399 . S
C1551 H1537 0.929 . S
C1551 C1550 1.399 . S
C1551 C1552 1.385 . S
C1552 H1538 0.931 . S
C1552 C1551 1.385 . S
C1552 C1553 1.389 . S
C1553 C1552 1.389 . S
C1553 C1554 1.387 . S
C1554 H1539 0.930 . S
C1554 C1549 1.390 . S
C1554 C1553 1.387 . S
H1555 C1567 0.930 . S
H1556 C1569 0.930 . S
H1557 C1570 0.930 . S
H1558 C1574 0.959 . S
H1559 C1574 0.959 . S
H1560 C1574 0.961 . S
H1561 C1575 0.960 . S
H1562 C1575 0.961 . S
H1563 C1575 0.959 . S
H1564 C1578 0.929 . S
H1565 C1579 0.931 . S
H1566 C1581 0.930 . S
C1567 H1555 0.930 . S
C1567 C1568 1.399 . S
C1567 C1572 1.399 . S
C1568 C1567 1.399 . S
C1568 C1569 1.376 . S
C1569 H1556 0.930 . S
C1569 C1568 1.376 . S
C1569 C1570 1.388 . S
C1570 H1557 0.930 . S
C1570 C1569 1.388 . S
C1570 C1571 1.390 . S
C1571 C1570 1.390 . S
C1571 C1572 1.394 . S
C1571 C1577 1.465 . S
C1572 C1567 1.399 . S
C1572 C1571 1.394 . S
C1572 C1573 1.516 . S
C1573 C1572 1.516 . S
C1573 C1574 1.502 . S
C1573 C1575 1.561 . S
C1573 C1576 1.526 . S
C1574 H1558 0.959 . S
C1574 H1559 0.959 . S
C1574 H1560 0.961 . S
C1574 C1573 1.502 . S
C1575 H1561 0.960 . S
C1575 H1562 0.961 . S
C1575 H1563 0.959 . S
C1575 C1573 1.561 . S
C1576 C1573 1.526 . S
C1576 C1577 1.396 . S
C1576 C1581 1.390 . S
C1577 C1571 1.465 . S
C1577 C1576 1.396 . S
C1577 C1578 1.399 . S
C1578 H1564 0.929 . S
C1578 C1577 1.399 . S
C1578 C1579 1.385 . S
C1579 H1565 0.931 . S
C1579 C1578 1.385 . S
C1579 C1580 1.389 . S
C1580 C1579 1.389 . S
C1580 C1581 1.387 . S
C1581 H1566 0.930 . S
C1581 C1576 1.390 . S
C1581 C1580 1.387 . S
H1582 C1594 0.930 . S
H1583 C1596 0.930 1_556 S
H1584 C1597 0.930 1_556 S
H1585 C1601 0.959 . S
H1586 C1601 0.959 . S
H1587 C1601 0.961 . S
H1588 C1602 0.960 . S
H1589 C1602 0.961 . S
H1590 C1602 0.959 . S
H1591 C1605 0.929 1_556 S
H1592 C1606 0.931 1_556 S
H1593 C1608 0.930 . S
C1594 H1582 0.930 . S
C1594 C1595 1.399 . S
C1594 C1599 1.399 . S
C1595 C1594 1.399 . S
C1595 C1596 1.376 . S
C1596 H1583 0.930 1_554 S
C1596 C1595 1.376 . S
C1596 C1597 1.388 . S
C1597 H1584 0.930 1_554 S
C1597 C1596 1.388 . S
C1597 C1598 1.390 . S
C1598 C1597 1.390 . S
C1598 C1599 1.394 . S
C1598 C1604 1.465 . S
C1599 C1594 1.399 . S
C1599 C1598 1.394 . S
C1599 C1600 1.516 . S
C1600 C1599 1.516 . S
C1600 C1601 1.502 . S
C1600 C1602 1.561 . S
C1600 C1603 1.526 . S
C1601 H1585 0.959 . S
C1601 H1586 0.959 . S
C1601 H1587 0.961 . S
C1601 C1600 1.502 . S
C1602 H1588 0.960 . S
C1602 H1589 0.961 . S
C1602 H1590 0.959 . S
C1602 C1600 1.561 . S
C1603 C1600 1.526 . S
C1603 C1604 1.396 . S
C1603 C1608 1.390 . S
C1604 C1598 1.465 . S
C1604 C1603 1.396 . S
C1604 C1605 1.399 . S
C1605 H1591 0.929 1_554 S
C1605 C1604 1.399 . S
C1605 C1606 1.385 . S
C1606 H1592 0.931 1_554 S
C1606 C1605 1.385 . S
C1606 C1607 1.389 . S
C1607 C1606 1.389 . S
C1607 C1608 1.387 . S
C1608 H1593 0.930 . S
C1608 C1603 1.390 . S
C1608 C1607 1.387 . S
H1609 C1621 0.930 . S
H1610 C1623 0.930 . S
H1611 C1624 0.930 . S
H1612 C1628 0.959 . S
H1613 C1628 0.959 . S
H1614 C1628 0.961 . S
H1615 C1629 0.960 . S
H1616 C1629 0.961 . S
H1617 C1629 0.959 . S
H1618 C1632 0.929 . S
H1619 C1633 0.931 . S
H1620 C1635 0.930 . S
C1621 H1609 0.930 . S
C1621 C1622 1.399 . S
C1621 C1626 1.399 . S
C1622 C1621 1.399 . S
C1622 C1623 1.376 . S
C1623 H1610 0.930 . S
C1623 C1622 1.376 . S
C1623 C1624 1.388 . S
C1624 H1611 0.930 . S
C1624 C1623 1.388 . S
C1624 C1625 1.390 . S
C1625 C1624 1.390 . S
C1625 C1626 1.394 . S
C1625 C1631 1.465 . S
C1626 C1621 1.399 . S
C1626 C1625 1.394 . S
C1626 C1627 1.516 . S
C1627 C1626 1.516 . S
C1627 C1628 1.502 . S
C1627 C1629 1.561 . S
C1627 C1630 1.526 . S
C1628 H1612 0.959 . S
C1628 H1613 0.959 . S
C1628 H1614 0.961 . S
C1628 C1627 1.502 . S
C1629 H1615 0.960 . S
C1629 H1616 0.961 . S
C1629 H1617 0.959 . S
C1629 C1627 1.561 . S
C1630 C1627 1.526 . S
C1630 C1631 1.396 . S
C1630 C1635 1.390 . S
C1631 C1625 1.465 . S
C1631 C1630 1.396 . S
C1631 C1632 1.399 . S
C1632 H1618 0.929 . S
C1632 C1631 1.399 . S
C1632 C1633 1.385 . S
C1633 H1619 0.931 . S
C1633 C1632 1.385 . S
C1633 C1634 1.389 . S
C1634 C1633 1.389 . S
C1634 C1635 1.387 . S
C1635 H1620 0.930 . S
C1635 C1630 1.390 . S
C1635 C1634 1.387 . S
H1636 C1648 0.930 . S
H1637 C1650 0.930 . S
H1638 C1651 0.930 . S
H1639 C1655 0.959 . S
H1640 C1655 0.959 . S
H1641 C1655 0.961 . S
H1642 C1656 0.960 . S
H1643 C1656 0.961 . S
H1644 C1656 0.959 . S
H1645 C1659 0.929 . S
H1646 C1660 0.931 . S
H1647 C1662 0.930 . S
C1648 H1636 0.930 . S
C1648 C1649 1.399 . S
C1648 C1653 1.399 . S
C1649 C1648 1.399 . S
C1649 C1650 1.376 . S
C1650 H1637 0.930 . S
C1650 C1649 1.376 . S
C1650 C1651 1.388 . S
C1651 H1638 0.930 . S
C1651 C1650 1.388 . S
C1651 C1652 1.390 . S
C1652 C1651 1.390 . S
C1652 C1653 1.394 . S
C1652 C1658 1.465 . S
C1653 C1648 1.399 . S
C1653 C1652 1.394 . S
C1653 C1654 1.516 . S
C1654 C1653 1.516 . S
C1654 C1655 1.502 . S
C1654 C1656 1.561 . S
C1654 C1657 1.526 . S
C1655 H1639 0.959 . S
C1655 H1640 0.959 . S
C1655 H1641 0.961 . S
C1655 C1654 1.502 . S
C1656 H1642 0.960 . S
C1656 H1643 0.961 . S
C1656 H1644 0.959 . S
C1656 C1654 1.561 . S
C1657 C1654 1.526 . S
C1657 C1658 1.396 . S
C1657 C1662 1.390 . S
C1658 C1652 1.465 . S
C1658 C1657 1.396 . S
C1658 C1659 1.399 . S
C1659 H1645 0.929 . S
C1659 C1658 1.399 . S
C1659 C1660 1.385 . S
C1660 H1646 0.931 . S
C1660 C1659 1.385 . S
C1660 C1661 1.389 . S
C1661 C1660 1.389 . S
C1661 C1662 1.387 . S
C1662 H1647 0.930 . S
C1662 C1657 1.390 . S
C1662 C1661 1.387 . S
H1663 C1675 0.930 . S
H1664 C1677 0.930 . S
H1665 C1678 0.930 . S
H1666 C1682 0.962 . S
H1667 C1682 0.977 . S
H1668 C1682 0.942 1_655 S
H1669 C1683 0.960 1_655 S
H1670 C1683 0.961 . S
H1671 C1683 0.959 . S
H1672 C1686 0.929 . S
H1673 C1687 0.931 . S
H1674 C1689 0.930 . S
C1675 H1663 0.930 . S
C1675 C1676 1.399 . S
C1675 C1680 1.399 . S
C1676 C1675 1.399 . S
C1676 C1677 1.376 . S
C1677 H1664 0.930 . S
C1677 C1676 1.376 . S
C1677 C1678 1.388 . S
C1678 H1665 0.930 . S
C1678 C1677 1.388 . S
C1678 C1679 1.390 . S
C1679 C1678 1.390 . S
C1679 C1680 1.394 . S
C1679 C1685 1.465 1_655 S
C1680 C1675 1.399 . S
C1680 C1679 1.394 . S
C1680 C1681 1.519 1_655 S
C1681 C1680 1.519 1_455 S
C1681 C1682 1.502 . S
C1681 C1683 1.561 . S
C1681 C1684 1.523 . S
C1682 H1666 0.962 . S
C1682 H1667 0.977 . S
C1682 H1668 0.942 1_455 S
C1682 C1681 1.502 . S
C1683 H1669 0.960 1_455 S
C1683 H1670 0.961 . S
C1683 H1671 0.959 . S
C1683 C1681 1.561 . S
C1684 C1681 1.523 . S
C1684 C1685 1.396 . S
C1684 C1689 1.390 . S
C1685 C1679 1.465 1_455 S
C1685 C1684 1.396 . S
C1685 C1686 1.399 . S
C1686 H1672 0.929 . S
C1686 C1685 1.399 . S
C1686 C1687 1.385 . S
C1687 H1673 0.931 . S
C1687 C1686 1.385 . S
C1687 C1688 1.389 . S
C1688 C1687 1.389 . S
C1688 C1689 1.387 . S
C1689 H1674 0.930 . S
C1689 C1684 1.390 . S
C1689 C1688 1.387 . S
H1690 C1702 0.930 . S
H1691 C1704 0.930 . S
H1692 C1705 0.930 . S
H1693 C1709 0.962 . S
H1694 C1709 0.977 . S
H1695 C1709 0.942 1_655 S
H1696 C1710 0.960 1_655 S
H1697 C1710 0.961 . S
H1698 C1710 0.959 . S
H1699 C1713 0.929 . S
H1700 C1714 0.931 . S
H1701 C1716 0.930 . S
C1702 H1690 0.930 . S
C1702 C1703 1.399 . S
C1702 C1707 1.399 . S
C1703 C1702 1.399 . S
C1703 C1704 1.376 . S
C1704 H1691 0.930 . S
C1704 C1703 1.376 . S
C1704 C1705 1.388 . S
C1705 H1692 0.930 . S
C1705 C1704 1.388 . S
C1705 C1706 1.390 . S
C1706 C1705 1.390 . S
C1706 C1707 1.394 . S
C1706 C1712 1.465 1_655 S
C1707 C1702 1.399 . S
C1707 C1706 1.394 . S
C1707 C1708 1.519 1_655 S
C1708 C1707 1.519 1_455 S
C1708 C1709 1.502 . S
C1708 C1710 1.561 . S
C1708 C1711 1.523 . S
C1709 H1693 0.962 . S
C1709 H1694 0.977 . S
C1709 H1695 0.942 1_455 S
C1709 C1708 1.502 . S
C1710 H1696 0.960 1_455 S
C1710 H1697 0.961 . S
C1710 H1698 0.959 . S
C1710 C1708 1.561 . S
C1711 C1708 1.523 . S
C1711 C1712 1.396 . S
C1711 C1716 1.390 . S
C1712 C1706 1.465 1_455 S
C1712 C1711 1.396 . S
C1712 C1713 1.399 . S
C1713 H1699 0.929 . S
C1713 C1712 1.399 . S
C1713 C1714 1.385 . S
C1714 H1700 0.931 . S
C1714 C1713 1.385 . S
C1714 C1715 1.389 . S
C1715 C1714 1.389 . S
C1715 C1716 1.387 . S
C1716 H1701 0.930 . S
C1716 C1711 1.390 . S
C1716 C1715 1.387 . S
H1717 C1729 0.930 . S
H1718 C1731 0.930 . S
H1719 C1732 0.930 . S
H1720 C1736 0.959 . S
H1721 C1736 0.959 . S
H1722 C1736 0.961 . S
H1723 C1737 0.960 . S
H1724 C1737 0.961 . S
H1725 C1737 0.959 . S
H1726 C1740 0.929 . S
H1727 C1741 0.931 . S
H1728 C1743 0.930 . S
C1729 H1717 0.930 . S
C1729 C1730 1.399 . S
C1729 C1734 1.399 . S
C1730 C1729 1.399 . S
C1730 C1731 1.376 . S
C1731 H1718 0.930 . S
C1731 C1730 1.376 . S
C1731 C1732 1.388 . S
C1732 H1719 0.930 . S
C1732 C1731 1.388 . S
C1732 C1733 1.390 . S
C1733 C1732 1.390 . S
C1733 C1734 1.394 . S
C1733 C1739 1.465 . S
C1734 C1729 1.399 . S
C1734 C1733 1.394 . S
C1734 C1735 1.516 . S
C1735 C1734 1.516 . S
C1735 C1736 1.502 . S
C1735 C1737 1.561 . S
C1735 C1738 1.526 . S
C1736 H1720 0.959 . S
C1736 H1721 0.959 . S
C1736 H1722 0.961 . S
C1736 C1735 1.502 . S
C1737 H1723 0.960 . S
C1737 H1724 0.961 . S
C1737 H1725 0.959 . S
C1737 C1735 1.561 . S
C1738 C1735 1.526 . S
C1738 C1739 1.396 . S
C1738 C1743 1.390 . S
C1739 C1733 1.465 . S
C1739 C1738 1.396 . S
C1739 C1740 1.399 . S
C1740 H1726 0.929 . S
C1740 C1739 1.399 . S
C1740 C1741 1.385 . S
C1741 H1727 0.931 . S
C1741 C1740 1.385 . S
C1741 C1742 1.389 . S
C1742 C1741 1.389 . S
C1742 C1743 1.387 . S
C1743 H1728 0.930 . S
C1743 C1738 1.390 . S
C1743 C1742 1.387 . S
H1744 C1756 0.930 . S
H1745 C1758 0.930 . S
H1746 C1759 0.930 . S
H1747 C1763 0.959 . S
H1748 C1763 0.959 . S
H1749 C1763 0.961 . S
H1750 C1764 0.960 . S
H1751 C1764 0.961 . S
H1752 C1764 0.959 . S
H1753 C1767 0.929 . S
H1754 C1768 0.931 . S
H1755 C1770 0.930 . S
C1756 H1744 0.930 . S
C1756 C1757 1.399 . S
C1756 C1761 1.399 . S
C1757 C1756 1.399 . S
C1757 C1758 1.376 . S
C1758 H1745 0.930 . S
C1758 C1757 1.376 . S
C1758 C1759 1.388 . S
C1759 H1746 0.930 . S
C1759 C1758 1.388 . S
C1759 C1760 1.390 . S
C1760 C1759 1.390 . S
C1760 C1761 1.394 . S
C1760 C1766 1.465 . S
C1761 C1756 1.399 . S
C1761 C1760 1.394 . S
C1761 C1762 1.516 . S
C1762 C1761 1.516 . S
C1762 C1763 1.502 . S
C1762 C1764 1.561 . S
C1762 C1765 1.526 . S
C1763 H1747 0.959 . S
C1763 H1748 0.959 . S
C1763 H1749 0.961 . S
C1763 C1762 1.502 . S
C1764 H1750 0.960 . S
C1764 H1751 0.961 . S
C1764 H1752 0.959 . S
C1764 C1762 1.561 . S
C1765 C1762 1.526 . S
C1765 C1766 1.396 . S
C1765 C1770 1.390 . S
C1766 C1760 1.465 . S
C1766 C1765 1.396 . S
C1766 C1767 1.399 . S
C1767 H1753 0.929 . S
C1767 C1766 1.399 . S
C1767 C1768 1.385 . S
C1768 H1754 0.931 . S
C1768 C1767 1.385 . S
C1768 C1769 1.389 . S
C1769 C1768 1.389 . S
C1769 C1770 1.387 . S
C1770 H1755 0.930 . S
C1770 C1765 1.390 . S
C1770 C1769 1.387 . S
H1771 C1783 0.930 . S
H1772 C1785 0.930 . S
H1773 C1786 0.930 . S
H1774 C1790 0.959 . S
H1775 C1790 0.959 . S
H1776 C1790 0.961 . S
H1777 C1791 0.960 . S
H1778 C1791 0.961 . S
H1779 C1791 0.959 1_545 S
H1780 C1794 0.929 . S
H1781 C1795 0.931 . S
H1782 C1797 0.891 1_565 S
C1783 H1771 0.930 . S
C1783 C1784 1.399 . S
C1783 C1788 1.399 . S
C1784 C1783 1.399 . S
C1784 C1785 1.376 1_565 S
C1785 H1772 0.930 . S
C1785 C1784 1.376 1_545 S
C1785 C1786 1.388 . S
C1786 H1773 0.930 . S
C1786 C1785 1.388 . S
C1786 C1787 1.390 . S
C1787 C1786 1.390 . S
C1787 C1788 1.394 1_545 S
C1787 C1793 1.465 . S
C1788 C1783 1.399 . S
C1788 C1787 1.394 1_565 S
C1788 C1789 1.516 . S
C1789 C1788 1.516 . S
C1789 C1790 1.502 . S
C1789 C1791 1.561 . S
C1789 C1792 1.526 1_565 S
C1790 H1774 0.959 . S
C1790 H1775 0.959 . S
C1790 H1776 0.961 . S
C1790 C1789 1.502 . S
C1791 H1777 0.960 . S
C1791 H1778 0.961 . S
C1791 H1779 0.959 1_565 S
C1791 C1789 1.561 . S
C1792 C1789 1.526 1_545 S
C1792 C1793 1.396 . S
C1792 C1797 1.390 . S
C1793 C1787 1.465 . S
C1793 C1792 1.396 . S
C1793 C1794 1.399 . S
C1794 H1780 0.929 . S
C1794 C1793 1.399 . S
C1794 C1795 1.385 . S
C1795 H1781 0.931 . S
C1795 C1794 1.385 . S
C1795 C1796 1.389 . S
C1796 C1795 1.389 . S
C1796 C1797 1.387 . S
C1797 H1782 0.891 1_545 S
C1797 C1792 1.390 . S
C1797 C1796 1.387 . S
H1798 C1810 0.930 . S
H1799 C1812 0.930 . S
H1800 C1813 0.930 . S
H1801 C1817 0.959 . S
H1802 C1817 0.959 . S
H1803 C1817 0.961 . S
H1804 C1818 0.960 . S
H1805 C1818 0.961 . S
H1806 C1818 0.959 . S
H1807 C1821 0.929 . S
H1808 C1822 0.931 . S
H1809 C1824 0.930 . S
C1810 H1798 0.930 . S
C1810 C1811 1.399 . S
C1810 C1815 1.399 . S
C1811 C1810 1.399 . S
C1811 C1812 1.376 . S
C1812 H1799 0.930 . S
C1812 C1811 1.376 . S
C1812 C1813 1.388 . S
C1813 H1800 0.930 . S
C1813 C1812 1.388 . S
C1813 C1814 1.390 . S
C1814 C1813 1.390 . S
C1814 C1815 1.394 . S
C1814 C1820 1.465 . S
C1815 C1810 1.399 . S
C1815 C1814 1.394 . S
C1815 C1816 1.516 . S
C1816 C1815 1.516 . S
C1816 C1817 1.502 . S
C1816 C1818 1.561 . S
C1816 C1819 1.526 . S
C1817 H1801 0.959 . S
C1817 H1802 0.959 . S
C1817 H1803 0.961 . S
C1817 C1816 1.502 . S
C1818 H1804 0.960 . S
C1818 H1805 0.961 . S
C1818 H1806 0.959 . S
C1818 C1816 1.561 . S
C1819 C1816 1.526 . S
C1819 C1820 1.396 . S
C1819 C1824 1.390 . S
C1820 C1814 1.465 . S
C1820 C1819 1.396 . S
C1820 C1821 1.399 . S
C1821 H1807 0.929 . S
C1821 C1820 1.399 . S
C1821 C1822 1.385 . S
C1822 H1808 0.931 . S
C1822 C1821 1.385 . S
C1822 C1823 1.389 . S
C1823 C1822 1.389 . S
C1823 C1824 1.387 . S
C1824 H1809 0.930 . S
C1824 C1819 1.390 . S
C1824 C1823 1.387 . S
H1825 C1837 0.930 . S
H1826 C1839 0.930 1_565 S
H1827 C1840 0.930 . S
H1828 C1844 0.959 . S
H1829 C1844 0.959 . S
H1830 C1844 0.961 . S
H1831 C1845 0.960 . S
H1832 C1845 0.961 . S
H1833 C1845 0.959 . S
H1834 C1848 0.929 . S
H1835 C1849 0.931 . S
H1836 C1851 0.930 . S
C1837 H1825 0.930 . S
C1837 C1838 1.399 1_554 S
C1837 C1842 1.399 . S
C1838 C1837 1.399 1_556 S
C1838 C1839 1.376 . S
C1839 H1826 0.930 1_545 S
C1839 C1838 1.376 . S
C1839 C1840 1.388 1_546 S
C1840 H1827 0.930 . S
C1840 C1839 1.388 1_564 S
C1840 C1841 1.369 1_565 S
C1841 C1840 1.369 1_545 S
C1841 C1842 1.441 . S
C1841 C1847 1.448 1_545 S
C1842 C1837 1.399 . S
C1842 C1841 1.441 . S
C1842 C1843 1.516 . S
C1843 C1842 1.516 . S
C1843 C1844 1.502 . S
C1843 C1845 1.561 . S
C1843 C1846 1.526 . S
C1844 H1828 0.959 . S
C1844 H1829 0.959 . S
C1844 H1830 0.961 . S
C1844 C1843 1.502 . S
C1845 H1831 0.960 . S
C1845 H1832 0.961 . S
C1845 H1833 0.959 . S
C1845 C1843 1.561 . S
C1846 C1843 1.526 . S
C1846 C1847 1.396 1_545 S
C1846 C1851 1.390 . S
C1847 C1841 1.448 1_565 S
C1847 C1846 1.396 1_565 S
C1847 C1848 1.399 . S
C1848 H1834 0.929 . S
C1848 C1847 1.399 . S
C1848 C1849 1.385 . S
C1849 H1835 0.931 . S
C1849 C1848 1.385 . S
C1849 C1850 1.389 . S
C1850 C1849 1.389 . S
C1850 C1851 1.387 1_565 S
C1851 H1836 0.930 . S
C1851 C1846 1.390 . S
C1851 C1850 1.387 1_545 S
H1852 C1864 0.930 . S
H1853 C1866 0.930 . S
H1854 C1867 0.930 . S
H1855 C1871 0.959 . S
H1856 C1871 0.959 . S
H1857 C1871 0.961 . S
H1858 C1872 0.960 . S
H1859 C1872 0.961 . S
H1860 C1872 0.959 . S
H1861 C1875 0.929 . S
H1862 C1876 0.931 . S
H1863 C1878 0.930 . S
C1864 H1852 0.930 . S
C1864 C1865 1.399 . S
C1864 C1869 1.399 . S
C1865 C1864 1.399 . S
C1865 C1866 1.376 . S
C1866 H1853 0.930 . S
C1866 C1865 1.376 . S
C1866 C1867 1.388 . S
C1867 H1854 0.930 . S
C1867 C1866 1.388 . S
C1867 C1868 1.390 . S
C1868 C1867 1.390 . S
C1868 C1869 1.394 . S
C1868 C1874 1.465 . S
C1869 C1864 1.399 . S
C1869 C1868 1.394 . S
C1869 C1870 1.516 . S
C1870 C1869 1.516 . S
C1870 C1871 1.502 . S
C1870 C1872 1.561 . S
C1870 C1873 1.526 . S
C1871 H1855 0.959 . S
C1871 H1856 0.959 . S
C1871 H1857 0.961 . S
C1871 C1870 1.502 . S
C1872 H1858 0.960 . S
C1872 H1859 0.961 . S
C1872 H1860 0.959 . S
C1872 C1870 1.561 . S
C1873 C1870 1.526 . S
C1873 C1874 1.396 . S
C1873 C1878 1.390 . S
C1874 C1868 1.465 . S
C1874 C1873 1.396 . S
C1874 C1875 1.399 . S
C1875 H1861 0.929 . S
C1875 C1874 1.399 . S
C1875 C1876 1.385 . S
C1876 H1862 0.931 . S
C1876 C1875 1.385 . S
C1876 C1877 1.389 . S
C1877 C1876 1.389 . S
C1877 C1878 1.387 . S
C1878 H1863 0.930 . S
C1878 C1873 1.390 . S
C1878 C1877 1.387 . S
H1879 C1891 0.930 1_565 S
H1880 C1893 0.930 . S
H1881 C1894 0.930 . S
H1882 C1898 0.959 . S
H1883 C1898 0.959 . S
H1884 C1898 0.961 . S
H1885 C1899 0.960 . S
H1886 C1899 0.961 . S
H1887 C1899 0.959 . S
H1888 C1902 0.929 . S
H1889 C1903 0.931 . S
H1890 C1905 0.930 . S
C1891 H1879 0.930 1_545 S
C1891 C1892 1.399 . S
C1891 C1896 1.399 . S
C1892 C1891 1.399 . S
C1892 C1893 1.376 . S
C1893 H1880 0.930 . S
C1893 C1892 1.376 . S
C1893 C1894 1.388 . S
C1894 H1881 0.930 . S
C1894 C1893 1.388 . S
C1894 C1895 1.390 . S
C1895 C1894 1.390 . S
C1895 C1896 1.394 . S
C1895 C1901 1.465 . S
C1896 C1891 1.399 . S
C1896 C1895 1.394 . S
C1896 C1897 1.516 1_545 S
C1897 C1896 1.516 1_565 S
C1897 C1898 1.502 . S
C1897 C1899 1.561 . S
C1897 C1900 1.526 . S
C1898 H1882 0.959 . S
C1898 H1883 0.959 . S
C1898 H1884 0.961 . S
C1898 C1897 1.502 . S
C1899 H1885 0.960 . S
C1899 H1886 0.961 . S
C1899 H1887 0.959 . S
C1899 C1897 1.561 . S
C1900 C1897 1.526 . S
C1900 C1901 1.396 1_565 S
C1900 C1905 1.390 . S
C1901 C1895 1.465 . S
C1901 C1900 1.396 1_545 S
C1901 C1902 1.399 . S
C1902 H1888 0.929 . S
C1902 C1901 1.399 . S
C1902 C1903 1.385 . S
C1903 H1889 0.931 . S
C1903 C1902 1.385 . S
C1903 C1904 1.389 1_545 S
C1904 C1903 1.389 1_565 S
C1904 C1905 1.387 . S
C1905 H1890 0.930 . S
C1905 C1900 1.390 . S
C1905 C1904 1.387 . S
H1906 C1918 0.930 . S
H1907 C1920 0.930 . S
H1908 C1921 0.930 . S
H1909 C1925 0.959 . S
H1910 C1925 0.959 . S
H1911 C1925 0.961 . S
H1912 C1926 0.960 . S
H1913 C1926 0.961 . S
H1914 C1926 0.959 . S
H1915 C1929 0.929 . S
H1916 C1930 0.931 . S
H1917 C1932 0.930 . S
C1918 H1906 0.930 . S
C1918 C1919 1.399 . S
C1918 C1923 1.399 . S
C1919 C1918 1.399 . S
C1919 C1920 1.376 . S
C1920 H1907 0.930 . S
C1920 C1919 1.376 . S
C1920 C1921 1.388 . S
C1921 H1908 0.930 . S
C1921 C1920 1.388 . S
C1921 C1922 1.390 . S
C1922 C1921 1.390 . S
C1922 C1923 1.394 . S
C1922 C1928 1.465 . S
C1923 C1918 1.399 . S
C1923 C1922 1.394 . S
C1923 C1924 1.516 . S
C1924 C1923 1.516 . S
C1924 C1925 1.502 . S
C1924 C1926 1.561 . S
C1924 C1927 1.526 . S
C1925 H1909 0.959 . S
C1925 H1910 0.959 . S
C1925 H1911 0.961 . S
C1925 C1924 1.502 . S
C1926 H1912 0.960 . S
C1926 H1913 0.961 . S
C1926 H1914 0.959 . S
C1926 C1924 1.561 . S
C1927 C1924 1.526 . S
C1927 C1928 1.396 . S
C1927 C1932 1.390 . S
C1928 C1922 1.465 . S
C1928 C1927 1.396 . S
C1928 C1929 1.399 . S
C1929 H1915 0.929 . S
C1929 C1928 1.399 . S
C1929 C1930 1.385 . S
C1930 H1916 0.931 . S
C1930 C1929 1.385 . S
C1930 C1931 1.389 . S
C1931 C1930 1.389 . S
C1931 C1932 1.387 . S
C1932 H1917 0.930 . S
C1932 C1927 1.390 . S
C1932 C1931 1.387 . S
H1933 C1945 0.930 . S
H1934 C1947 0.930 . S
H1935 C1948 0.930 . S
H1936 C1952 0.959 . S
H1937 C1952 0.959 . S
H1938 C1952 0.961 . S
H1939 C1953 0.960 . S
H1940 C1953 0.961 . S
H1941 C1953 0.959 . S
H1942 C1956 0.929 . S
H1943 C1957 0.926 1_556 S
H1944 C1959 0.928 1_565 S
C1945 H1933 0.930 . S
C1945 C1946 1.399 . S
C1945 C1950 1.399 . S
C1946 C1945 1.399 . S
C1946 C1947 1.376 1_565 S
C1947 H1934 0.930 . S
C1947 C1946 1.376 1_545 S
C1947 C1948 1.388 . S
C1948 H1935 0.930 . S
C1948 C1947 1.388 . S
C1948 C1949 1.390 . S
C1949 C1948 1.390 . S
C1949 C1950 1.394 1_545 S
C1949 C1955 1.465 . S
C1950 C1945 1.399 . S
C1950 C1949 1.394 1_565 S
C1950 C1951 1.516 . S
C1951 C1950 1.516 . S
C1951 C1952 1.502 . S
C1951 C1953 1.561 . S
C1951 C1954 1.526 1_565 S
C1952 H1936 0.959 . S
C1952 H1937 0.959 . S
C1952 H1938 0.961 . S
C1952 C1951 1.502 . S
C1953 H1939 0.960 . S
C1953 H1940 0.961 . S
C1953 H1941 0.959 . S
C1953 C1951 1.561 . S
C1954 C1951 1.526 1_545 S
C1954 C1955 1.396 . S
C1954 C1959 1.392 1_554 S
C1955 C1949 1.465 . S
C1955 C1954 1.396 . S
C1955 C1956 1.399 . S
C1956 H1942 0.929 . S
C1956 C1955 1.399 . S
C1956 C1957 1.385 . S
C1957 H1943 0.926 1_554 S
C1957 C1956 1.385 . S
C1957 C1958 1.389 1_554 S
C1958 C1957 1.389 1_556 S
C1958 C1959 1.386 . S
C1959 H1944 0.928 1_545 S
C1959 C1954 1.392 1_556 S
C1959 C1958 1.386 . S
H1960 C1972 0.930 . S
H1961 C1974 0.930 . S
H1962 C1975 0.930 . S
H1963 C1979 0.959 . S
H1964 C1979 0.959 . S
H1965 C1979 0.961 . S
H1966 C1980 0.960 . S
H1967 C1980 0.961 . S
H1968 C1980 0.959 . S
H1969 C1983 0.929 . S
H1970 C1984 0.931 . S
H1971 C1986 0.930 . S
C1972 H1960 0.930 . S
C1972 C1973 1.399 . S
C1972 C1977 1.399 . S
C1973 C1972 1.399 . S
C1973 C1974 1.376 . S
C1974 H1961 0.930 . S
C1974 C1973 1.376 . S
C1974 C1975 1.388 . S
C1975 H1962 0.930 . S
C1975 C1974 1.388 . S
C1975 C1976 1.390 . S
C1976 C1975 1.390 . S
C1976 C1977 1.394 . S
C1976 C1982 1.465 . S
C1977 C1972 1.399 . S
C1977 C1976 1.394 . S
C1977 C1978 1.516 . S
C1978 C1977 1.516 . S
C1978 C1979 1.502 . S
C1978 C1980 1.561 . S
C1978 C1981 1.526 . S
C1979 H1963 0.959 . S
C1979 H1964 0.959 . S
C1979 H1965 0.961 . S
C1979 C1978 1.502 . S
C1980 H1966 0.960 . S
C1980 H1967 0.961 . S
C1980 H1968 0.959 . S
C1980 C1978 1.561 . S
C1981 C1978 1.526 . S
C1981 C1982 1.396 . S
C1981 C1986 1.390 . S
C1982 C1976 1.465 . S
C1982 C1981 1.396 . S
C1982 C1983 1.399 . S
C1983 H1969 0.929 . S
C1983 C1982 1.399 . S
C1983 C1984 1.385 . S
C1984 H1970 0.931 . S
C1984 C1983 1.385 . S
C1984 C1985 1.389 . S
C1985 C1984 1.389 . S
C1985 C1986 1.387 . S
C1986 H1971 0.930 . S
C1986 C1981 1.390 . S
C1986 C1985 1.387 . S
H1987 C1999 0.930 . S
H1988 C2001 0.930 . S
H1989 C2002 0.930 . S
H1990 C2006 0.959 . S
H1991 C2006 0.959 . S
H1992 C2006 0.961 . S
H1993 C2007 0.960 . S
H1994 C2007 0.961 . S
H1995 C2007 0.959 . S
H1996 C2010 0.929 . S
H1997 C2011 0.931 . S
H1998 C2013 0.930 . S
C1999 H1987 0.930 . S
C1999 C2000 1.399 . S
C1999 C2004 1.399 . S
C2000 C1999 1.399 . S
C2000 C2001 1.376 . S
C2001 H1988 0.930 . S
C2001 C2000 1.376 . S
C2001 C2002 1.388 . S
C2002 H1989 0.930 . S
C2002 C2001 1.388 . S
C2002 C2003 1.390 . S
C2003 C2002 1.390 . S
C2003 C2004 1.394 . S
C2003 C2009 1.465 . S
C2004 C1999 1.399 . S
C2004 C2003 1.394 . S
C2004 C2005 1.516 . S
C2005 C2004 1.516 . S
C2005 C2006 1.502 . S
C2005 C2007 1.561 . S
C2005 C2008 1.526 . S
C2006 H1990 0.959 . S
C2006 H1991 0.959 . S
C2006 H1992 0.961 . S
C2006 C2005 1.502 . S
C2007 H1993 0.960 . S
C2007 H1994 0.961 . S
C2007 H1995 0.959 . S
C2007 C2005 1.561 . S
C2008 C2005 1.526 . S
C2008 C2009 1.396 . S
C2008 C2013 1.390 . S
C2009 C2003 1.465 . S
C2009 C2008 1.396 . S
C2009 C2010 1.399 . S
C2010 H1996 0.929 . S
C2010 C2009 1.399 . S
C2010 C2011 1.385 1_554 S
C2011 H1997 0.931 . S
C2011 C2010 1.385 1_556 S
C2011 C2012 1.389 . S
C2012 C2011 1.389 . S
C2012 C2013 1.387 1_556 S
C2013 H1998 0.930 . S
C2013 C2008 1.390 . S
C2013 C2012 1.387 1_554 S
H2014 C2026 0.930 . S
H2015 C2028 0.930 . S
H2016 C2029 0.930 . S
H2017 C2033 0.959 . S
H2018 C2033 0.959 . S
H2019 C2033 0.961 . S
H2020 C2034 0.960 . S
H2021 C2034 0.961 . S
H2022 C2034 0.959 . S
H2023 C2037 0.929 . S
H2024 C2038 0.931 . S
H2025 C2040 0.930 . S
C2026 H2014 0.930 . S
C2026 C2027 1.399 . S
C2026 C2031 1.399 . S
C2027 C2026 1.399 . S
C2027 C2028 1.376 . S
C2028 H2015 0.930 . S
C2028 C2027 1.376 . S
C2028 C2029 1.388 . S
C2029 H2016 0.930 . S
C2029 C2028 1.388 . S
C2029 C2030 1.390 . S
C2030 C2029 1.390 . S
C2030 C2031 1.394 . S
C2030 C2036 1.465 . S
C2031 C2026 1.399 . S
C2031 C2030 1.394 . S
C2031 C2032 1.516 . S
C2032 C2031 1.516 . S
C2032 C2033 1.502 . S
C2032 C2034 1.561 . S
C2032 C2035 1.526 . S
C2033 H2017 0.959 . S
C2033 H2018 0.959 . S
C2033 H2019 0.961 . S
C2033 C2032 1.502 . S
C2034 H2020 0.960 . S
C2034 H2021 0.961 . S
C2034 H2022 0.959 . S
C2034 C2032 1.561 . S
C2035 C2032 1.526 . S
C2035 C2036 1.396 . S
C2035 C2040 1.390 . S
C2036 C2030 1.465 . S
C2036 C2035 1.396 . S
C2036 C2037 1.399 . S
C2037 H2023 0.929 . S
C2037 C2036 1.399 . S
C2037 C2038 1.385 . S
C2038 H2024 0.931 . S
C2038 C2037 1.385 . S
C2038 C2039 1.389 . S
C2039 C2038 1.389 . S
C2039 C2040 1.387 . S
C2040 H2025 0.930 . S
C2040 C2035 1.390 . S
C2040 C2039 1.387 . S
H2041 C2053 0.930 . S
H2042 C2055 0.930 . S
H2043 C2056 0.930 . S
H2044 C2060 0.959 . S
H2045 C2060 0.959 . S
H2046 C2060 0.961 . S
H2047 C2061 0.960 . S
H2048 C2061 0.961 . S
H2049 C2061 0.959 . S
H2050 C2064 0.929 . S
H2051 C2065 0.931 . S
H2052 C2067 0.930 . S
C2053 H2041 0.930 . S
C2053 C2054 1.399 . S
C2053 C2058 1.399 . S
C2054 C2053 1.399 . S
C2054 C2055 1.376 . S
C2055 H2042 0.930 . S
C2055 C2054 1.376 . S
C2055 C2056 1.388 . S
C2056 H2043 0.930 . S
C2056 C2055 1.388 . S
C2056 C2057 1.390 . S
C2057 C2056 1.390 . S
C2057 C2058 1.394 . S
C2057 C2063 1.465 . S
C2058 C2053 1.399 . S
C2058 C2057 1.394 . S
C2058 C2059 1.516 . S
C2059 C2058 1.516 . S
C2059 C2060 1.502 . S
C2059 C2061 1.561 . S
C2059 C2062 1.526 . S
C2060 H2044 0.959 . S
C2060 H2045 0.959 . S
C2060 H2046 0.961 . S
C2060 C2059 1.502 . S
C2061 H2047 0.960 . S
C2061 H2048 0.961 . S
C2061 H2049 0.959 . S
C2061 C2059 1.561 . S
C2062 C2059 1.526 . S
C2062 C2063 1.396 . S
C2062 C2067 1.390 . S
C2063 C2057 1.465 . S
C2063 C2062 1.396 . S
C2063 C2064 1.399 . S
C2064 H2050 0.929 . S
C2064 C2063 1.399 . S
C2064 C2065 1.385 . S
C2065 H2051 0.931 . S
C2065 C2064 1.385 . S
C2065 C2066 1.389 . S
C2066 C2065 1.389 . S
C2066 C2067 1.387 . S
C2067 H2052 0.930 . S
C2067 C2062 1.390 . S
C2067 C2066 1.387 . S
H2068 C2080 0.930 . S
H2069 C2082 0.930 . S
H2070 C2083 0.930 . S
H2071 C2087 0.959 . S
H2072 C2087 0.959 . S
H2073 C2087 0.961 . S
H2074 C2088 0.960 . S
H2075 C2088 0.961 . S
H2076 C2088 0.959 . S
H2077 C2091 0.929 . S
H2078 C2092 0.931 . S
H2079 C2094 0.930 . S
C2080 H2068 0.930 . S
C2080 C2081 1.399 . S
C2080 C2085 1.399 . S
C2081 C2080 1.399 . S
C2081 C2082 1.376 . S
C2082 H2069 0.930 . S
C2082 C2081 1.376 . S
C2082 C2083 1.388 . S
C2083 H2070 0.930 . S
C2083 C2082 1.388 . S
C2083 C2084 1.390 . S
C2084 C2083 1.390 . S
C2084 C2085 1.394 . S
C2084 C2090 1.465 . S
C2085 C2080 1.399 . S
C2085 C2084 1.394 . S
C2085 C2086 1.516 . S
C2086 C2085 1.516 . S
C2086 C2087 1.502 . S
C2086 C2088 1.561 . S
C2086 C2089 1.526 . S
C2087 H2071 0.959 . S
C2087 H2072 0.959 . S
C2087 H2073 0.961 . S
C2087 C2086 1.502 . S
C2088 H2074 0.960 . S
C2088 H2075 0.961 . S
C2088 H2076 0.959 . S
C2088 C2086 1.561 . S
C2089 C2086 1.526 . S
C2089 C2090 1.396 . S
C2089 C2094 1.390 . S
C2090 C2084 1.465 . S
C2090 C2089 1.396 . S
C2090 C2091 1.399 . S
C2091 H2077 0.929 . S
C2091 C2090 1.399 . S
C2091 C2092 1.385 . S
C2092 H2078 0.931 . S
C2092 C2091 1.385 . S
C2092 C2093 1.389 . S
C2093 C2092 1.389 . S
C2093 C2094 1.387 . S
C2094 H2079 0.930 . S
C2094 C2089 1.390 . S
C2094 C2093 1.387 . S
H2095 C2107 0.930 1_556 S
H2096 C2109 0.930 1_556 S
H2097 C2110 0.930 . S
H2098 C2114 0.959 . S
H2099 C2114 0.959 . S
H2100 C2114 0.961 . S
H2101 C2115 0.960 . S
H2102 C2115 0.961 . S
H2103 C2115 0.959 . S
H2104 C2118 0.929 . S
H2105 C2119 0.931 . S
H2106 C2121 0.930 . S
C2107 H2095 0.930 1_554 S
C2107 C2108 1.399 1_554 S
C2107 C2112 1.399 . S
C2108 C2107 1.399 1_556 S
C2108 C2109 1.376 1_556 S
C2109 H2096 0.930 1_554 S
C2109 C2108 1.376 1_554 S
C2109 C2110 1.388 . S
C2110 H2097 0.930 . S
C2110 C2109 1.388 . S
C2110 C2111 1.390 . S
C2111 C2110 1.390 . S
C2111 C2112 1.394 . S
C2111 C2117 1.465 . S
C2112 C2107 1.399 . S
C2112 C2111 1.394 . S
C2112 C2113 1.516 . S
C2113 C2112 1.516 . S
C2113 C2114 1.502 . S
C2113 C2115 1.561 . S
C2113 C2116 1.526 . S
C2114 H2098 0.959 . S
C2114 H2099 0.959 . S
C2114 H2100 0.961 . S
C2114 C2113 1.502 . S
C2115 H2101 0.960 . S
C2115 H2102 0.961 . S
C2115 H2103 0.959 . S
C2115 C2113 1.561 . S
C2116 C2113 1.526 . S
C2116 C2117 1.396 . S
C2116 C2121 1.390 . S
C2117 C2111 1.465 . S
C2117 C2116 1.396 . S
C2117 C2118 1.399 . S
C2118 H2104 0.929 . S
C2118 C2117 1.399 . S
C2118 C2119 1.385 . S
C2119 H2105 0.931 . S
C2119 C2118 1.385 . S
C2119 C2120 1.389 . S
C2120 C2119 1.389 . S
C2120 C2121 1.387 . S
C2121 H2106 0.930 . S
C2121 C2116 1.390 . S
C2121 C2120 1.387 . S
H2122 C2134 0.930 . S
H2123 C2136 0.930 . S
H2124 C2137 0.930 . S
H2125 C2141 0.959 . S
H2126 C2141 0.959 . S
H2127 C2141 0.961 . S
H2128 C2142 0.960 . S
H2129 C2142 0.961 . S
H2130 C2142 0.959 . S
H2131 C2145 0.929 . S
H2132 C2146 0.931 . S
H2133 C2148 0.930 . S
C2134 H2122 0.930 . S
C2134 C2135 1.399 . S
C2134 C2139 1.399 . S
C2135 C2134 1.399 . S
C2135 C2136 1.376 . S
C2136 H2123 0.930 . S
C2136 C2135 1.376 . S
C2136 C2137 1.388 . S
C2137 H2124 0.930 . S
C2137 C2136 1.388 . S
C2137 C2138 1.390 . S
C2138 C2137 1.390 . S
C2138 C2139 1.394 . S
C2138 C2144 1.465 . S
C2139 C2134 1.399 . S
C2139 C2138 1.394 . S
C2139 C2140 1.516 . S
C2140 C2139 1.516 . S
C2140 C2141 1.502 . S
C2140 C2142 1.561 . S
C2140 C2143 1.526 . S
C2141 H2125 0.959 . S
C2141 H2126 0.959 . S
C2141 H2127 0.961 . S
C2141 C2140 1.502 . S
C2142 H2128 0.960 . S
C2142 H2129 0.961 . S
C2142 H2130 0.959 . S
C2142 C2140 1.561 . S
C2143 C2140 1.526 . S
C2143 C2144 1.396 . S
C2143 C2148 1.390 . S
C2144 C2138 1.465 . S
C2144 C2143 1.396 . S
C2144 C2145 1.399 . S
C2145 H2131 0.929 . S
C2145 C2144 1.399 . S
C2145 C2146 1.385 . S
C2146 H2132 0.931 . S
C2146 C2145 1.385 . S
C2146 C2147 1.389 . S
C2147 C2146 1.389 . S
C2147 C2148 1.387 . S
C2148 H2133 0.930 . S
C2148 C2143 1.390 . S
C2148 C2147 1.387 . S
H2149 C2161 0.930 . S
H2150 C2163 0.930 . S
H2151 C2164 0.930 . S
H2152 C2168 0.959 . S
H2153 C2168 0.959 . S
H2154 C2168 0.961 . S
H2155 C2169 0.960 . S
H2156 C2169 0.961 . S
H2157 C2169 0.959 . S
H2158 C2172 0.929 . S
H2159 C2173 0.931 . S
H2160 C2175 0.930 . S
C2161 H2149 0.930 . S
C2161 C2162 1.399 . S
C2161 C2166 1.399 . S
C2162 C2161 1.399 . S
C2162 C2163 1.376 . S
C2163 H2150 0.930 . S
C2163 C2162 1.376 . S
C2163 C2164 1.388 . S
C2164 H2151 0.930 . S
C2164 C2163 1.388 . S
C2164 C2165 1.390 . S
C2165 C2164 1.390 . S
C2165 C2166 1.394 . S
C2165 C2171 1.465 . S
C2166 C2161 1.399 . S
C2166 C2165 1.394 . S
C2166 C2167 1.516 . S
C2167 C2166 1.516 . S
C2167 C2168 1.502 . S
C2167 C2169 1.561 . S
C2167 C2170 1.526 . S
C2168 H2152 0.959 . S
C2168 H2153 0.959 . S
C2168 H2154 0.961 . S
C2168 C2167 1.502 . S
C2169 H2155 0.960 . S
C2169 H2156 0.961 . S
C2169 H2157 0.959 . S
C2169 C2167 1.561 . S
C2170 C2167 1.526 . S
C2170 C2171 1.396 . S
C2170 C2175 1.390 . S
C2171 C2165 1.465 . S
C2171 C2170 1.396 . S
C2171 C2172 1.399 . S
C2172 H2158 0.929 . S
C2172 C2171 1.399 . S
C2172 C2173 1.385 . S
C2173 H2159 0.931 . S
C2173 C2172 1.385 . S
C2173 C2174 1.389 . S
C2174 C2173 1.389 . S
C2174 C2175 1.387 . S
C2175 H2160 0.930 . S
C2175 C2170 1.390 . S
C2175 C2174 1.387 . S
C461 C104 1.539 . S
C473 C6 1.514 . S
C488 C20 1.511 . S
C500 C62 1.540 . S
C515 C76 1.476 . S
C527 C34 1.535 . S
C542 C48 1.525 . S
C554 C90 1.531 . S
C569 C118 1.476 . S
C581 C216 1.483 . S
C596 C132 1.502 . S
C608 C174 1.472 . S
C623 C146 1.476 . S
C635 C188 1.484 . S
C650 C160 1.541 . S
C662 C202 1.502 . S
C677 C230 1.542 . S
C689 C328 1.507 . S
C704 C244 1.474 . S
C716 C286 1.532 . S
C731 C300 1.543 . S
C743 C258 1.488 . S
C758 C314 1.543 . S
C770 C272 1.503 . S
C785 C342 1.542 . S
C797 C440 1.504 . S
C812 C398 1.535 . S
C824 C356 1.491 . S
C839 C412 1.516 . S
C851 C370 1.544 . S
C866 C384 1.504 . S
C878 C426 1.473 . S
C893 C8 0.997 . S
C905 C92 0.928 . S
C920 C22 0.984 . S
C932 C106 0.928 . S
C947 C64 0.927 . S
C959 C36 0.983 . S
C974 C50 0.986 . S
C986 C78 0.942 . S
C1001 C120 0.927 . S
C1013 C204 0.974 . S
C1028 C134 0.921 . S
C1040 C218 1.004 . S
C1055 C176 0.927 . S
C1067 C148 0.973 . S
C1082 C190 0.916 . S
C1094 C162 0.988 . S
C1109 C232 0.923 . S
C1121 C316 0.988 . S
C1136 C330 0.997 . S
C1148 C246 0.917 . S
C1163 C288 0.913 . S
C1175 C260 1.006 . S
C1190 C274 1.003 . S
C1202 C302 0.921 . S
C1217 C344 1.002 . S
C1229 C428 0.930 . S
C1244 C358 0.974 . S
C1256 C442 0.928 . S
C1271 C400 0.935 . S
C1283 C372 0.964 . S
C1298 C414 0.992 . S
C1310 C386 0.915 . S
C1325 C9 1.546 . S
C1337 C429 1.554 . S
C1352 C23 1.536 . S
C1364 C219 1.533 . S
C1379 C37 1.564 . S
C1391 C401 1.557 . S
C1406 C51 1.560 . S
C1418 C191 1.553 . S
C1433 C65 1.557 . S
C1445 C373 1.550 . S
C1460 C79 1.538 . S
C1472 C163 1.545 . S
C1487 C93 1.547 . S
C1499 C345 1.555 . S
C1514 C135 1.575 . S
C1526 C107 1.577 . S
C1541 C317 1.564 . S
C1553 C121 1.557 . S
C1568 C149 1.529 . S
C1580 C289 1.532 . S
C1595 C261 1.550 . S
C1607 C177 1.557 . S
C1622 C233 1.562 . S
C1634 C205 1.556 . S
C1649 C247 1.542 . S
C1661 C443 1.537 . S
C1676 C275 1.562 . S
C1688 C415 1.555 . S
C1703 C303 1.541 . S
C1715 C387 1.549 . S
C1730 C359 1.576 . S
C1742 C331 1.577 . S
C1757 C7 1.564 . S
C1769 C91 1.531 . S
C1784 C21 1.505 . S
C1796 C105 1.556 . S
C1811 C63 1.505 1_556 S
C1823 C35 1.543 . S
C1838 C49 1.525 . S
C1850 C77 1.565 . S
C1865 C119 1.523 1_556 S
C1877 C203 1.559 . S
C1892 C133 1.563 . S
C1904 C217 1.517 . S
C1919 C175 1.520 . S
C1931 C147 1.561 . S
C1946 C161 1.507 . S
C1958 C189 1.554 . S
C1973 C315 1.507 1_556 S
C1985 C231 1.537 . S
C2000 C329 1.540 . S
C2012 C245 1.507 . S
C2027 C287 1.542 . S
C2039 C259 1.558 . S
C2054 C301 1.517 . S
C2066 C273 1.565 . S
C2081 C427 1.521 . S
C2093 C343 1.560 . S
C2108 C441 1.559 . S
C2120 C357 1.523 . S
C2135 C371 1.550 1_556 S
C2147 C399 1.511 . S
C2162 C413 1.564 . S
C2174 C385 1.515 . S
