# Generated by pormake.
# Topology yfg, (5)-cn, num edge types: 1
# Building blocks:
#     Node 0, Type 0, BuildingBlock: BEQFEK_clean_sbu_0, # of connection points: 5
#     Node 1, Type 0, BuildingBlock: BEQFEK_clean_sbu_0, # of connection points: 5
#     Node 2, Type 0, BuildingBlock: BEQFEK_clean_sbu_0, # of connection points: 5
#     Node 3, Type 0, BuildingBlock: BEQFEK_clean_sbu_0, # of connection points: 5
#     Node 4, Type 0, BuildingBlock: BEQFEK_clean_sbu_0, # of connection points: 5
#     Node 5, Type 0, BuildingBlock: BEQFEK_clean_sbu_0, # of connection points: 5
#     Node 6, Type 0, BuildingBlock: BEQFEK_clean_sbu_0, # of connection points: 5
#     Node 7, Type 0, BuildingBlock: BEQFEK_clean_sbu_0, # of connection points: 5
#     Edge 8, Type (0, 0), BuildingBlock: AJUNOK_clean_linker_0, # of connection points: 2
#     Edge 9, Type (0, 0), BuildingBlock: AJUNOK_clean_linker_0, # of connection points: 2
#     Edge 10, Type (0, 0), BuildingBlock: AJUNOK_clean_linker_0, # of connection points: 2
#     Edge 11, Type (0, 0), BuildingBlock: AJUNOK_clean_linker_0, # of connection points: 2
#     Edge 12, Type (0, 0), BuildingBlock: AJUNOK_clean_linker_0, # of connection points: 2
#     Edge 13, Type (0, 0), BuildingBlock: AJUNOK_clean_linker_0, # of connection points: 2
#     Edge 14, Type (0, 0), BuildingBlock: AJUNOK_clean_linker_0, # of connection points: 2
#     Edge 15, Type (0, 0), BuildingBlock: AJUNOK_clean_linker_0, # of connection points: 2
#     Edge 16, Type (0, 0), BuildingBlock: AJUNOK_clean_linker_0, # of connection points: 2
#     Edge 17, Type (0, 0), BuildingBlock: AJUNOK_clean_linker_0, # of connection points: 2
#     Edge 18, Type (0, 0), BuildingBlock: AJUNOK_clean_linker_0, # of connection points: 2
#     Edge 19, Type (0, 0), BuildingBlock: AJUNOK_clean_linker_0, # of connection points: 2
#     Edge 20, Type (0, 0), BuildingBlock: AJUNOK_clean_linker_0, # of connection points: 2
#     Edge 21, Type (0, 0), BuildingBlock: AJUNOK_clean_linker_0, # of connection points: 2
#     Edge 22, Type (0, 0), BuildingBlock: AJUNOK_clean_linker_0, # of connection points: 2
#     Edge 23, Type (0, 0), BuildingBlock: AJUNOK_clean_linker_0, # of connection points: 2
#     Edge 24, Type (0, 0), BuildingBlock: AJUNOK_clean_linker_0, # of connection points: 2
#     Edge 25, Type (0, 0), BuildingBlock: AJUNOK_clean_linker_0, # of connection points: 2
#     Edge 26, Type (0, 0), BuildingBlock: AJUNOK_clean_linker_0, # of connection points: 2
#     Edge 27, Type (0, 0), BuildingBlock: AJUNOK_clean_linker_0, # of connection points: 2
# Relax obj value: 0.529
# Max RMSD: 0.226
# Mean RMSD: 0.226
data_MOF--net-yfg--node1-BEQFEK_clean_sbu_0--edge1-AJUNOK_clean_linker_0
_symmetry_space_group_name_H-M    P1
_symmetry_Int_Tables_number       1
_symmetry_cell_setting            triclinic
loop_
_symmetry_equiv_pos_as_xyz
'x, y, z'
_cell_length_a     25.476616
_cell_length_b     25.482766
_cell_length_c     35.190674
_cell_angle_alpha  89.759908
_cell_angle_beta   89.826388
_cell_angle_gamma 89.967926
loop_
_atom_site_label
_atom_site_type_symbol
_atom_site_fract_x
_atom_site_fract_y
_atom_site_fract_z
_atom_type_partial_charge
Co0 Co 0.20589 0.51221 0.10422 0.0
Co1 Co 0.26509 0.50263 0.02661 0.0
C2 C 0.2834 0.59136 0.08398 0.0
O3 O 0.24614 0.57646 0.10535 0.0
O4 O 0.2948 0.56617 0.05371 0.0
C5 C 0.14719 0.54912 0.16735 0.0
O6 O 0.15438 0.59523 0.15134 0.0
C7 C 0.29038 0.54605 0.95122 0.0
C8 C 0.32408 0.47794 0.92137 0.0
C9 C 0.3132 0.53102 0.91678 0.0
N10 N 0.28849 0.50416 0.97461 0.0
N11 N 0.30809 0.46339 0.95637 0.0
C12 C 0.27248 0.59967 0.96276 0.0
H13 H 0.26299 0.60106 0.99339 0.0
H14 H 0.23604 0.60977 0.9472 0.0
H15 H 0.30302 0.62929 0.95588 0.0
C16 C 0.11409 0.50171 0.05667 0.0
N17 N 0.16615 0.50618 0.06076 0.0
N18 N 0.18968 0.49984 0.02782 0.0
C19 C 0.15256 0.49019 0.0014 0.0
C20 C 0.10361 0.49051 0.01911 0.0
C21 C 0.07529 0.50968 0.08819 0.0
H22 H 0.08433 0.54682 0.10302 0.0
H23 H 0.03439 0.51183 0.07761 0.0
H24 H 0.07869 0.47699 0.10896 0.0
O25 O 0.2558 0.45449 0.10837 0.0
O26 O 0.29679 0.44082 0.0538 0.0
H27 H 0.12881 0.46227 0.94606 0.0
H28 H 0.17734 0.51398 0.946 0.0
C29 C 0.16402 0.47777 0.96072 0.0
H30 H 0.19622 0.44855 0.9591 0.0
H31 H 0.31168 0.42591 0.96814 0.0
O32 O 0.16314 0.50837 0.15027 0.0
C33 C 0.28887 0.42904 0.08865 0.0
Co34 Co 0.50446 0.20478 0.35482 0.0
Co35 Co 0.50058 0.2635 0.277 0.0
C36 C 0.41935 0.2799 0.33954 0.0
O37 O 0.44034 0.24557 0.36073 0.0
O38 O 0.43851 0.29009 0.30682 0.0
C39 C 0.47035 0.14518 0.41749 0.0
O40 O 0.42478 0.15093 0.40061 0.0
C41 C 0.44394 0.2851 0.20795 0.0
C42 C 0.49581 0.33974 0.17679 0.0
C43 C 0.44592 0.31792 0.17632 0.0
N44 N 0.4897 0.28852 0.22655 0.0
N45 N 0.52107 0.32043 0.20744 0.0
C46 C 0.39942 0.25096 0.22093 0.0
H47 H 0.4147 0.21261 0.23097 0.0
H48 H 0.37068 0.24466 0.19774 0.0
H49 H 0.37945 0.26935 0.24554 0.0
C50 C 0.51017 0.1128 0.30596 0.0
N51 N 0.50494 0.16473 0.31076 0.0
N52 N 0.50634 0.18862 0.27759 0.0
C53 C 0.5138 0.15219 0.25034 0.0
C54 C 0.51632 0.103 0.26757 0.0
C55 C 0.50843 0.07358 0.33776 0.0
H56 H 0.47265 0.08025 0.35499 0.0
H57 H 0.50753 0.03261 0.32737 0.0
H58 H 0.54309 0.07913 0.35633 0.0
O59 O 0.56321 0.25445 0.35487 0.0
O60 O 0.56385 0.29723 0.29984 0.0
H61 H 0.54511 0.13249 0.1951 0.0
H62 H 0.48505 0.16976 0.19474 0.0
C63 C 0.52327 0.16465 0.2093 0.0
H64 H 0.5456 0.20183 0.20655 0.0
H65 H 0.55845 0.33141 0.21646 0.0
O66 O 0.51135 0.16193 0.40085 0.0
C67 C 0.58296 0.28892 0.3328 0.0
Co68 Co 0.78306 0.51293 0.60396 0.0
Co69 Co 0.7364 0.49641 0.52341 0.0
C70 C 0.71845 0.41814 0.58631 0.0
O71 O 0.74525 0.44588 0.609 0.0
O72 O 0.71285 0.43214 0.55176 0.0
C73 C 0.84199 0.48249 0.66701 0.0
O74 O 0.84261 0.43786 0.64846 0.0
C75 C 0.72268 0.44005 0.45288 0.0
C76 C 0.67546 0.49469 0.41824 0.0
C77 C 0.69557 0.444 0.41863 0.0
N78 N 0.71778 0.48551 0.47168 0.0
N79 N 0.69034 0.51846 0.45057 0.0
C80 C 0.75325 0.3944 0.46808 0.0
H81 H 0.78534 0.40833 0.48673 0.0
H82 H 0.76971 0.37057 0.44455 0.0
H83 H 0.72724 0.36942 0.48578 0.0
C84 C 0.88132 0.52328 0.56087 0.0
N85 N 0.82926 0.51486 0.56262 0.0
N86 N 0.81049 0.50882 0.52814 0.0
C87 C 0.85065 0.51315 0.50313 0.0
C88 C 0.89675 0.52223 0.52318 0.0
C89 C 0.91577 0.52987 0.59495 0.0
H90 H 0.89883 0.56003 0.61402 0.0
H91 H 0.91767 0.49215 0.61062 0.0
H92 H 0.95639 0.54121 0.5873 0.0
O93 O 0.7305 0.56874 0.60022 0.0
O94 O 0.69296 0.55569 0.5441 0.0
H95 H 0.80861 0.53215 0.45215 0.0
H96 H 0.87927 0.52924 0.44642 0.0
C97 C 0.84484 0.51127 0.46086 0.0
H98 H 0.84166 0.46983 0.4517 0.0
H99 H 0.67952 0.55614 0.45905 0.0
O100 O 0.82025 0.52212 0.65181 0.0
C101 C 0.69598 0.58029 0.57553 0.0
Co102 Co 0.47332 0.7749 0.85187 0.0
Co103 Co 0.49875 0.72773 0.77175 0.0
C104 C 0.57177 0.71153 0.83605 0.0
O105 O 0.53991 0.73598 0.85739 0.0
O106 O 0.5626 0.70675 0.80068 0.0
C107 C 0.50857 0.83616 0.91124 0.0
O108 O 0.54946 0.83841 0.88846 0.0
C109 C 0.55036 0.69128 0.70154 0.0
C110 C 0.48859 0.70192 0.65828 0.0
C111 C 0.54032 0.68649 0.66292 0.0
N112 N 0.50712 0.70993 0.71883 0.0
N113 N 0.47019 0.71581 0.69281 0.0
C114 C 0.5982 0.67334 0.72249 0.0
H115 H 0.61822 0.70777 0.73507 0.0
H116 H 0.62603 0.65164 0.70412 0.0
H117 H 0.58589 0.6467 0.74583 0.0
C118 C 0.46482 0.87219 0.80768 0.0
N119 N 0.4734 0.82022 0.81007 0.0
N120 N 0.4866 0.80193 0.77645 0.0
C121 C 0.48904 0.84273 0.75182 0.0
C122 C 0.47484 0.88825 0.77088 0.0
C123 C 0.4492 0.9062 0.8404 0.0
H124 H 0.48483 0.91733 0.85649 0.0
H125 H 0.42982 0.94276 0.83052 0.0
H126 H 0.42222 0.88457 0.85964 0.0
O127 O 0.41749 0.72302 0.84797 0.0
O128 O 0.44011 0.68356 0.79399 0.0
H129 H 0.51684 0.87742 0.69933 0.0
H130 H 0.53869 0.8108 0.70834 0.0
C131 C 0.5054 0.8386 0.7111 0.0
H132 H 0.47198 0.8235 0.69427 0.0
H133 H 0.43244 0.72964 0.69858 0.0
O134 O 0.46728 0.81317 0.89986 0.0
C135 C 0.41136 0.68668 0.82375 0.0
Co136 Co 0.22302 0.53724 0.39025 0.0
Co137 Co 0.27322 0.51498 0.46995 0.0
C138 C 0.28418 0.43899 0.40488 0.0
O139 O 0.25714 0.4684 0.38317 0.0
O140 O 0.29306 0.45174 0.4393 0.0
C141 C 0.15784 0.51802 0.32676 0.0
O142 O 0.15528 0.47048 0.34126 0.0
C143 C 0.29441 0.46108 0.54356 0.0
C144 C 0.32534 0.52633 0.57783 0.0
C145 C 0.3153 0.47284 0.5792 0.0
N146 N 0.29288 0.5053 0.52244 0.0
N147 N 0.31077 0.54424 0.5434 0.0
C148 C 0.27805 0.40846 0.52904 0.0
H149 H 0.30964 0.37919 0.53389 0.0
H150 H 0.26799 0.4104 0.49861 0.0
H151 H 0.24224 0.39529 0.54425 0.0
C152 C 0.12692 0.54484 0.43594 0.0
N153 N 0.17918 0.53859 0.43287 0.0
N154 N 0.19913 0.52863 0.4666 0.0
C155 C 0.15945 0.52746 0.49219 0.0
C156 C 0.11266 0.53755 0.47337 0.0
C157 C 0.09064 0.55619 0.40356 0.0
H158 H 0.10824 0.58605 0.38443 0.0
H159 H 0.08393 0.51961 0.38735 0.0
H160 H 0.05209 0.57074 0.41389 0.0
O161 O 0.27796 0.58998 0.39349 0.0
O162 O 0.3175 0.57391 0.44844 0.0
H163 H 0.19592 0.53906 0.54616 0.0
H164 H 0.12805 0.51822 0.549 0.0
C165 C 0.16558 0.51361 0.53325 0.0
H166 H 0.17891 0.47233 0.53569 0.0
H167 H 0.31429 0.5829 0.53384 0.0
O168 O 0.18401 0.55288 0.34394 0.0
C169 C 0.31402 0.59953 0.41729 0.0
Co170 Co 0.46488 0.21789 0.6409 0.0
Co171 Co 0.49373 0.26481 0.71994 0.0
C172 C 0.56692 0.2765 0.65481 0.0
O173 O 0.53386 0.2528 0.63398 0.0
O174 O 0.55827 0.28255 0.69026 0.0
C175 C 0.48846 0.15383 0.57834 0.0
O176 O 0.53435 0.1511 0.59519 0.0
C177 C 0.54476 0.29739 0.79127 0.0
C178 C 0.47959 0.29149 0.83268 0.0
C179 C 0.53254 0.30297 0.8296 0.0
N180 N 0.50137 0.28212 0.77275 0.0
N181 N 0.46249 0.27898 0.79765 0.0
C182 C 0.59537 0.31055 0.7717 0.0
H183 H 0.58718 0.33684 0.74725 0.0
H184 H 0.6134 0.27403 0.76059 0.0
H185 H 0.62341 0.3307 0.79069 0.0
C186 C 0.45547 0.12087 0.68568 0.0
N187 N 0.46384 0.17286 0.68287 0.0
N188 N 0.47883 0.19124 0.71596 0.0
C189 C 0.4827 0.1506 0.7406 0.0
C190 C 0.46757 0.10497 0.72216 0.0
C191 C 0.43959 0.08635 0.65339 0.0
H192 H 0.41103 0.10706 0.63495 0.0
H193 H 0.47485 0.07635 0.63635 0.0
H194 H 0.42185 0.04922 0.66378 0.0
O195 O 0.41195 0.27266 0.64515 0.0
O196 O 0.43705 0.31169 0.69841 0.0
H197 H 0.47158 0.17228 0.79852 0.0
H198 H 0.51306 0.11584 0.79228 0.0
C199 C 0.50263 0.15486 0.7804 0.0
H200 H 0.53744 0.18096 0.78109 0.0
H201 H 0.42427 0.26789 0.79075 0.0
O202 O 0.45171 0.17963 0.59394 0.0
C203 C 0.40784 0.30965 0.66903 0.0
Co204 Co 0.77495 0.46434 0.89016 0.0
Co205 Co 0.72935 0.48724 0.97098 0.0
C206 C 0.71311 0.5629 0.90723 0.0
O207 O 0.73787 0.53185 0.8854 0.0
O208 O 0.70734 0.5522 0.94248 0.0
C209 C 0.83701 0.49304 0.8279 0.0
O210 O 0.83881 0.53773 0.84635 0.0
C211 C 0.70271 0.5371 0.04382 0.0
C212 C 0.70707 0.47101 0.08451 0.0
C213 C 0.6987 0.52458 0.08212 0.0
N214 N 0.7145 0.49337 0.02444 0.0
N215 N 0.71686 0.4539 0.04893 0.0
C216 C 0.69082 0.58855 0.02521 0.0
H217 H 0.65936 0.58234 0.00402 0.0
H218 H 0.72634 0.60288 0.01008 0.0
H219 H 0.67716 0.61859 0.04564 0.0
C220 C 0.87346 0.45733 0.93184 0.0
N221 N 0.82113 0.46362 0.93072 0.0
N222 N 0.80338 0.47527 0.96478 0.0
C223 C 0.84475 0.4783 0.98861 0.0
C224 C 0.8902 0.46697 0.9683 0.0
C225 C 0.9071 0.4417 0.89882 0.0
H226 H 0.88583 0.41364 0.88048 0.0
H227 H 0.91732 0.47713 0.88198 0.0
H228 H 0.94417 0.42326 0.90865 0.0
O229 O 0.72304 0.40929 0.89515 0.0
O230 O 0.6848 0.42828 0.95026 0.0
H231 H 0.82483 0.46405 0.04668 0.0
H232 H 0.88078 0.50649 0.04027 0.0
C233 C 0.8415 0.49611 0.029 0.0
H234 H 0.81518 0.53065 0.0311 0.0
H235 H 0.72555 0.41529 0.0414 0.0
O236 O 0.81218 0.45466 0.84232 0.0
C237 C 0.68776 0.40092 0.91999 0.0
Co238 Co 0.54945 0.77559 0.13534 0.0
Co239 Co 0.51749 0.73195 0.21584 0.0
C240 C 0.44691 0.71892 0.14988 0.0
O241 O 0.48146 0.7399 0.12866 0.0
O242 O 0.45373 0.71476 0.18564 0.0
C243 C 0.52166 0.83652 0.07327 0.0
O244 O 0.47891 0.84066 0.09405 0.0
C245 C 0.46257 0.69993 0.28669 0.0
C246 C 0.5243 0.71013 0.32996 0.0
C247 C 0.47213 0.69627 0.32552 0.0
N248 N 0.50658 0.7164 0.26911 0.0
N249 N 0.54343 0.72203 0.29518 0.0
C250 C 0.4137 0.68432 0.26614 0.0
H251 H 0.42418 0.66044 0.24099 0.0
H252 H 0.39315 0.72025 0.2563 0.0
H253 H 0.38689 0.66085 0.28432 0.0
C254 C 0.55525 0.87442 0.17716 0.0
N255 N 0.54816 0.82219 0.176 0.0
N256 N 0.53328 0.80506 0.2097 0.0
C257 C 0.52882 0.84666 0.23312 0.0
C258 C 0.54278 0.89162 0.21313 0.0
C259 C 0.57305 0.90766 0.14443 0.0
H260 H 0.6013 0.88566 0.12652 0.0
H261 H 0.53861 0.91875 0.12696 0.0
H262 H 0.59181 0.94428 0.15464 0.0
O263 O 0.60279 0.72213 0.14275 0.0
O264 O 0.57543 0.68467 0.19652 0.0
H265 H 0.53735 0.82994 0.29222 0.0
H266 H 0.49352 0.88363 0.28218 0.0
C267 C 0.50664 0.84433 0.2725 0.0
H268 H 0.47305 0.81669 0.27351 0.0
H269 H 0.58164 0.73441 0.28927 0.0
O270 O 0.56078 0.81182 0.08672 0.0
C271 C 0.60647 0.68646 0.16795 0.0
C272 C 0.13004 0.48629 0.26324 0.0
C273 C 0.13959 0.52853 0.28774 0.0
C274 C 0.12701 0.49415 0.224 0.0
C275 C 0.13342 0.54449 0.20799 0.0
H276 H 0.12906 0.44639 0.27395 0.0
H277 H 0.12362 0.45993 0.206 0.0
S278 S 0.14486 0.66952 0.26099 0.0
N279 N 0.14451 0.62353 0.29415 0.0
N280 N 0.13915 0.63829 0.22021 0.0
C281 C 0.13611 0.58775 0.23255 0.0
C282 C 0.13924 0.57973 0.27256 0.0
C283 C 0.52266 0.12923 0.47602 0.0
C284 C 0.47322 0.13183 0.45832 0.0
C285 C 0.52721 0.13157 0.51554 0.0
C286 C 0.48248 0.13671 0.53865 0.0
H287 H 0.55838 0.12914 0.45923 0.0
H288 H 0.56619 0.1335 0.52767 0.0
S289 S 0.34378 0.13193 0.50707 0.0
N290 N 0.3784 0.12985 0.46738 0.0
N291 N 0.38712 0.13428 0.54179 0.0
C292 C 0.43274 0.13311 0.52167 0.0
C293 C 0.42805 0.13054 0.4814 0.0
C294 C 0.8556 0.53343 0.72622 0.0
C295 C 0.85629 0.48469 0.70754 0.0
C296 C 0.85452 0.53616 0.76584 0.0
C297 C 0.85382 0.49021 0.78798 0.0
H298 H 0.85218 0.56968 0.71022 0.0
H299 H 0.84984 0.5743 0.77892 0.0
S300 S 0.86887 0.35381 0.75331 0.0
N301 N 0.86653 0.39005 0.71436 0.0
N302 N 0.86424 0.39535 0.78903 0.0
C303 C 0.86088 0.44167 0.76987 0.0
C304 C 0.86229 0.43886 0.7295 0.0
C305 C 0.46807 0.85284 0.97442 0.0
C306 C 0.51353 0.84972 0.9518 0.0
C307 C 0.4713 0.85318 0.01405 0.0
C308 C 0.52011 0.84973 0.03245 0.0
H309 H 0.42952 0.85206 0.96151 0.0
H310 H 0.43505 0.85233 0.03021 0.0
S311 S 0.65116 0.8511 0.98628 0.0
N312 N 0.60916 0.85122 0.95065 0.0
N313 N 0.61506 0.85115 0.02531 0.0
C314 C 0.566 0.85158 0.01023 0.0
C315 C 0.56275 0.85183 0.9698 0.0
C316 C 0.03127 0.51187 0.97425 0.0
C317 C 0.05145 0.47961 0.0031 0.0
C318 C 0.97877 0.50738 0.96305 0.0
C319 C 0.94509 0.47088 0.98066 0.0
H320 H 0.05563 0.54189 0.9613 0.0
H321 H 0.96405 0.53335 0.94107 0.0
S322 S 0.98064 0.37393 0.0547 0.0
N323 N 0.03534 0.40701 0.04667 0.0
N324 N 0.93612 0.39965 0.02611 0.0
C325 C 0.96525 0.4373 0.00854 0.0
C326 C 0.01874 0.4413 0.01957 0.0
C327 C 0.56604 0.01904 0.26446 0.0
C328 C 0.52586 0.0514 0.25014 0.0
C329 C 0.57134 0.96706 0.25238 0.0
C330 C 0.53724 0.94644 0.22512 0.0
H331 H 0.59262 0.03364 0.28594 0.0
H332 H 0.602 0.9428 0.26451 0.0
S333 S 0.42708 0.01527 0.17789 0.0
N334 N 0.4521 0.05939 0.20695 0.0
N335 N 0.46319 0.96189 0.18324 0.0
C336 C 0.49816 0.97877 0.20957 0.0
C337 C 0.49232 0.03144 0.22223 0.0
C338 C 0.03432 0.57404 0.50649 0.0
C339 C 0.05852 0.53223 0.48749 0.0
C340 C 0.98119 0.57128 0.51685 0.0
C341 C 0.95101 0.5265 0.50868 0.0
H342 H 0.05638 0.60924 0.51288 0.0
H343 H 0.96365 0.60413 0.53165 0.0
S344 S 0.99667 0.40704 0.45896 0.0
N345 N 0.04881 0.44553 0.46012 0.0
N346 N 0.94916 0.43975 0.48045 0.0
C347 C 0.97483 0.48474 0.48938 0.0
C348 C 0.02869 0.4877 0.47866 0.0
C349 C 0.42392 0.02184 0.74192 0.0
C350 C 0.47036 0.05034 0.73581 0.0
C351 C 0.42567 0.96877 0.75248 0.0
C352 C 0.47388 0.9427 0.75675 0.0
H353 H 0.38612 0.04071 0.73842 0.0
H354 H 0.38918 0.94803 0.75755 0.0
S355 S 0.60623 -0.00013 0.74344 0.0
N356 N 0.56561 0.04886 0.73424 0.0
N357 N 0.56889 0.94891 0.75428 0.0
C358 C 0.52049 0.97068 0.75052 0.0
C359 C 0.51873 0.0247 0.73999 0.0
C360 C 0.40512 0.67547 0.09416 0.0
C361 C 0.40083 0.6942 0.13167 0.0
C362 C 0.36528 0.64521 0.07782 0.0
C363 C 0.31931 0.63286 0.09821 0.0
H364 H 0.44075 0.68179 0.07789 0.0
H365 H 0.37185 0.6293 0.0497 0.0
S366 S 0.28487 0.68126 0.19485 0.0
N367 N 0.34436 0.70445 0.18678 0.0
N368 N 0.26899 0.64828 0.15631 0.0
C369 C 0.31274 0.65523 0.13463 0.0
C370 C 0.35366 0.68557 0.15134 0.0
C371 C 0.35363 0.35271 0.33283 0.0
C372 C 0.37708 0.31369 0.35555 0.0
C373 C 0.32104 0.39119 0.34879 0.0
C374 C 0.31102 0.39266 0.3882 0.0
H375 H 0.36219 0.355 0.30269 0.0
H376 H 0.30592 0.42165 0.33024 0.0
S377 S 0.35606 0.29495 0.45948 0.0
N378 N 0.3825 0.27532 0.4191 0.0
N379 N 0.32216 0.34818 0.44883 0.0
C380 C 0.33128 0.35193 0.41085 0.0
C381 C 0.36395 0.31229 0.39459 0.0
C382 C 0.64765 0.33263 0.6587 0.0
C383 C 0.61233 0.30364 0.63644 0.0
C384 C 0.68434 0.3667 0.64202 0.0
C385 C 0.68719 0.37369 0.60227 0.0
H386 H 0.64553 0.33095 0.68941 0.0
H387 H 0.70872 0.38981 0.66076 0.0
S388 S 0.60998 0.30017 0.53071 0.0
N389 N 0.58765 0.27882 0.57204 0.0
N390 N 0.65592 0.34345 0.54092 0.0
C391 C 0.65502 0.34186 0.57952 0.0
C392 C 0.61785 0.30672 0.59651 0.0
C393 C 0.67768 0.60877 0.84981 0.0
C394 C 0.68497 0.60802 0.88954 0.0
C395 C 0.64386 0.64482 0.8324 0.0
C396 C 0.61575 0.68186 0.85386 0.0
H397 H 0.69605 0.57945 0.83196 0.0
H398 H 0.63781 0.64159 0.80211 0.0
S399 S 0.62968 0.70417 0.95774 0.0
N400 N 0.66783 0.65326 0.94893 0.0
N401 N 0.60394 0.72093 0.91645 0.0
C402 C 0.62628 0.68472 0.89317 0.0
C403 C 0.66085 0.64783 0.91092 0.0
C404 C 0.37015 0.37275 0.09212 0.0
C405 C 0.32352 0.39123 0.10906 0.0
C406 C 0.40863 0.34669 0.11375 0.0
C407 C 0.4018 0.33794 0.15297 0.0
H408 H 0.3783 0.3808 0.06244 0.0
H409 H 0.44482 0.33492 0.09995 0.0
S410 S 0.28662 0.37768 0.2111 0.0
N411 N 0.27167 0.39568 0.16742 0.0
N412 N 0.34535 0.35095 0.20793 0.0
C413 C 0.35481 0.35481 0.16998 0.0
C414 C 0.31526 0.38015 0.14801 0.0
C415 C 0.64271 0.31305 0.38564 0.0
C416 C 0.62308 0.32456 0.34919 0.0
C417 C 0.66892 0.35077 0.40704 0.0
C418 C 0.67841 0.40142 0.39262 0.0
H419 H 0.6345 0.27567 0.39918 0.0
H420 H 0.67767 0.34065 0.43609 0.0
S421 S 0.64364 0.44905 0.29606 0.0
N422 N 0.62037 0.38859 0.29772 0.0
N423 N 0.67178 0.45914 0.33762 0.0
C424 C 0.66326 0.41209 0.35488 0.0
C425 C 0.63554 0.37371 0.33314 0.0
C426 C 0.62896 0.68492 0.63256 0.0
C427 C 0.57669 0.66729 0.63313 0.0
C428 C 0.66707 0.65956 0.61056 0.0
C429 C 0.65397 0.61661 0.58752 0.0
H430 H 0.64117 0.71642 0.65113 0.0
H431 H 0.70768 0.67152 0.61343 0.0
S432 S 0.52071 0.56148 0.57378 0.0
N433 N 0.5123 0.60886 0.60513 0.0
N434 N 0.58384 0.56186 0.56288 0.0
C435 C 0.60079 0.60236 0.58462 0.0
C436 C 0.56204 0.62773 0.60758 0.0
C437 C 0.30604 0.61258 0.87597 0.0
C438 C 0.33181 0.56512 0.88479 0.0
C439 C 0.32979 0.65069 0.85277 0.0
C440 C 0.37893 0.64167 0.83587 0.0
H441 H 0.26827 0.62171 0.88819 0.0
H442 H 0.31092 0.68859 0.84971 0.0
S443 S 0.45754 0.51961 0.84224 0.0
N444 N 0.40598 0.50836 0.86962 0.0
N445 N 0.44898 0.57907 0.82454 0.0
C446 C 0.40196 0.59198 0.84031 0.0
C447 C 0.37864 0.55373 0.86492 0.0
C448 C 0.34468 0.67562 0.37894 0.0
C449 C 0.35692 0.63428 0.40405 0.0
C450 C 0.38314 0.69821 0.35556 0.0
C451 C 0.43508 0.67965 0.35588 0.0
H452 H 0.30433 0.68822 0.3755 0.0
H453 H 0.37143 0.72841 0.33555 0.0
S454 S 0.48932 0.5783 0.4207 0.0
N455 N 0.42619 0.5806 0.43146 0.0
N456 N 0.49848 0.62273 0.38699 0.0
C457 C 0.44903 0.64211 0.38346 0.0
C458 C 0.40986 0.61938 0.40766 0.0
C459 C 0.30631 0.38834 0.61648 0.0
C460 C 0.33289 0.43595 0.60973 0.0
C461 C 0.32855 0.34863 0.63896 0.0
C462 C 0.37708 0.3559 0.65701 0.0
H463 H 0.26891 0.38055 0.6034 0.0
H464 H 0.30894 0.31096 0.64066 0.0
S465 S 0.45785 0.4768 0.6552 0.0
N466 N 0.40742 0.49045 0.62749 0.0
N467 N 0.44774 0.41658 0.67105 0.0
C468 C 0.4011 0.40535 0.65427 0.0
C469 C 0.37923 0.44533 0.6305 0.0
C470 C 0.65662 0.32179 0.88626 0.0
C471 C 0.64458 0.36583 0.90862 0.0
C472 C 0.61873 0.2988 0.86294 0.0
C473 C 0.56782 0.31974 0.8606 0.0
H474 H 0.69664 0.30751 0.88458 0.0
H475 H 0.63035 0.26659 0.84476 0.0
S476 S 0.51393 0.42854 0.91842 0.0
N477 N 0.57615 0.42455 0.93122 0.0
N478 N 0.50496 0.3817 0.88678 0.0
C479 C 0.55367 0.35998 0.88583 0.0
C480 C 0.59218 0.38306 0.91 0.0
C481 C 0.61748 0.59072 0.15782 0.0
C482 C 0.63995 0.64116 0.15853 0.0
C483 C 0.63952 0.55083 0.13541 0.0
C484 C 0.68465 0.56042 0.11341 0.0
H485 H 0.57987 0.5836 0.17135 0.0
H486 H 0.61863 0.51401 0.13272 0.0
S487 S 0.76525 0.68128 0.11335 0.0
N488 N 0.71449 0.69541 0.14079 0.0
N489 N 0.75679 0.61989 0.09979 0.0
C490 C 0.71103 0.60829 0.11792 0.0
C491 C 0.68836 0.64894 0.14022 0.0
loop_
_geom_bond_atom_site_label_1
_geom_bond_atom_site_label_2
_geom_bond_distance
_geom_bond_site_symmetry_2
_ccdc_geom_bond_type
Co0 O3 1.970 . S
Co0 N17 1.989 . S
Co0 O25 1.967 . S
Co0 O32 1.920 . S
Co1 O4 1.966 . S
Co1 N10 2.022 1_554 S
Co1 N18 1.993 . S
Co1 O26 1.941 . S
C2 O3 1.258 . S
C2 O4 1.263 . S
O3 Co0 1.970 . S
O3 C2 1.258 . S
O4 Co1 1.966 . S
O4 C2 1.263 . S
C5 O6 1.235 . S
C5 O32 1.289 . S
O6 C5 1.235 . S
C7 C9 1.400 . S
C7 N10 1.351 . S
C7 C12 1.501 . S
C8 C9 1.387 . S
C8 N11 1.341 . S
C9 C7 1.400 . S
C9 C8 1.387 . S
N10 Co1 2.022 1_556 S
N10 C7 1.351 . S
N10 N11 1.365 . S
N11 C8 1.341 . S
N11 N10 1.365 . S
N11 H31 0.862 . S
C12 C7 1.501 . S
C12 H13 0.961 . S
C12 H14 0.961 . S
C12 H15 0.960 . S
H13 C12 0.961 . S
H14 C12 0.961 . S
H15 C12 0.960 . S
C16 N17 1.342 . S
C16 C20 1.401 . S
C16 C21 1.499 . S
N17 Co0 1.989 . S
N17 C16 1.342 . S
N17 N18 1.388 . S
N18 Co1 1.993 . S
N18 N17 1.388 . S
N18 C19 1.337 1_554 S
C19 N18 1.337 1_556 S
C19 C20 1.390 1_556 S
C19 C29 1.523 . S
C20 C16 1.401 . S
C20 C19 1.390 1_554 S
C21 C16 1.499 . S
C21 H22 0.959 . S
C21 H23 0.960 . S
C21 H24 0.961 . S
H22 C21 0.959 . S
H23 C21 0.960 . S
H24 C21 0.961 . S
O25 Co0 1.967 . S
O25 C33 1.258 . S
O26 Co1 1.941 . S
O26 C33 1.266 . S
H27 C29 0.959 . S
H28 C29 0.961 . S
C29 C19 1.523 . S
C29 H27 0.959 . S
C29 H28 0.961 . S
C29 H30 0.960 . S
H30 C29 0.960 . S
H31 N11 0.862 . S
O32 Co0 1.920 . S
O32 C5 1.289 . S
C33 O25 1.258 . S
C33 O26 1.266 . S
Co34 O37 1.970 . S
Co34 N51 1.989 . S
Co34 O59 1.967 . S
Co34 O66 1.920 . S
Co35 O38 1.966 . S
Co35 N44 2.022 . S
Co35 N52 1.993 . S
Co35 O60 1.941 . S
C36 O37 1.258 . S
C36 O38 1.263 . S
O37 Co34 1.970 . S
O37 C36 1.258 . S
O38 Co35 1.966 . S
O38 C36 1.263 . S
C39 O40 1.235 . S
C39 O66 1.289 . S
O40 C39 1.235 . S
C41 C43 1.400 . S
C41 N44 1.351 . S
C41 C46 1.501 . S
C42 C43 1.387 . S
C42 N45 1.341 . S
C43 C41 1.400 . S
C43 C42 1.387 . S
N44 Co35 2.022 . S
N44 C41 1.351 . S
N44 N45 1.365 . S
N45 C42 1.341 . S
N45 N44 1.365 . S
N45 H65 0.862 . S
C46 C41 1.501 . S
C46 H47 0.961 . S
C46 H48 0.961 . S
C46 H49 0.960 . S
H47 C46 0.961 . S
H48 C46 0.961 . S
H49 C46 0.960 . S
C50 N51 1.342 . S
C50 C54 1.401 . S
C50 C55 1.499 . S
N51 Co34 1.989 . S
N51 C50 1.342 . S
N51 N52 1.388 . S
N52 Co35 1.993 . S
N52 N51 1.388 . S
N52 C53 1.346 . S
C53 N52 1.346 . S
C53 C54 1.396 . S
C53 C63 1.510 . S
C54 C50 1.401 . S
C54 C53 1.396 . S
C55 C50 1.499 . S
C55 H56 0.959 . S
C55 H57 0.960 . S
C55 H58 0.961 . S
H56 C55 0.959 . S
H57 C55 0.960 . S
H58 C55 0.961 . S
O59 Co34 1.967 . S
O59 C67 1.258 . S
O60 Co35 1.941 . S
O60 C67 1.266 . S
H61 C63 0.959 . S
H62 C63 0.961 . S
C63 C53 1.510 . S
C63 H61 0.959 . S
C63 H62 0.961 . S
C63 H64 0.960 . S
H64 C63 0.960 . S
H65 N45 0.862 . S
O66 Co34 1.920 . S
O66 C39 1.289 . S
C67 O59 1.258 . S
C67 O60 1.266 . S
Co68 O71 1.970 . S
Co68 N85 1.989 . S
Co68 O93 1.967 . S
Co68 O100 1.920 . S
Co69 O72 1.966 . S
Co69 N78 2.022 . S
Co69 N86 1.993 . S
Co69 O94 1.941 . S
C70 O71 1.258 . S
C70 O72 1.263 . S
O71 Co68 1.970 . S
O71 C70 1.258 . S
O72 Co69 1.966 . S
O72 C70 1.263 . S
C73 O74 1.235 . S
C73 O100 1.289 . S
O74 C73 1.235 . S
C75 C77 1.400 . S
C75 N78 1.351 . S
C75 C80 1.501 . S
C76 C77 1.387 . S
C76 N79 1.341 . S
C77 C75 1.400 . S
C77 C76 1.387 . S
N78 Co69 2.022 . S
N78 C75 1.351 . S
N78 N79 1.365 . S
N79 C76 1.341 . S
N79 N78 1.365 . S
N79 H99 0.862 . S
C80 C75 1.501 . S
C80 H81 0.961 . S
C80 H82 0.961 . S
C80 H83 0.960 . S
H81 C80 0.961 . S
H82 C80 0.961 . S
H83 C80 0.960 . S
C84 N85 1.342 . S
C84 C88 1.401 . S
C84 C89 1.499 . S
N85 Co68 1.989 . S
N85 C84 1.342 . S
N85 N86 1.388 . S
N86 Co69 1.993 . S
N86 N85 1.388 . S
N86 C87 1.346 . S
C87 N86 1.346 . S
C87 C88 1.396 . S
C87 C97 1.510 . S
C88 C84 1.401 . S
C88 C87 1.396 . S
C89 C84 1.499 . S
C89 H90 0.959 . S
C89 H91 0.960 . S
C89 H92 0.961 . S
H90 C89 0.959 . S
H91 C89 0.960 . S
H92 C89 0.961 . S
O93 Co68 1.967 . S
O93 C101 1.258 . S
O94 Co69 1.941 . S
O94 C101 1.266 . S
H95 C97 0.959 . S
H96 C97 0.961 . S
C97 C87 1.510 . S
C97 H95 0.959 . S
C97 H96 0.961 . S
C97 H98 0.960 . S
H98 C97 0.960 . S
H99 N79 0.862 . S
O100 Co68 1.920 . S
O100 C73 1.289 . S
C101 O93 1.258 . S
C101 O94 1.266 . S
Co102 O105 1.970 . S
Co102 N119 1.989 . S
Co102 O127 1.967 . S
Co102 O134 1.920 . S
Co103 O106 1.966 . S
Co103 N112 2.022 . S
Co103 N120 1.993 . S
Co103 O128 1.941 . S
C104 O105 1.258 . S
C104 O106 1.263 . S
O105 Co102 1.970 . S
O105 C104 1.258 . S
O106 Co103 1.966 . S
O106 C104 1.263 . S
C107 O108 1.235 . S
C107 O134 1.289 . S
O108 C107 1.235 . S
C109 C111 1.400 . S
C109 N112 1.351 . S
C109 C114 1.501 . S
C110 C111 1.387 . S
C110 N113 1.341 . S
C111 C109 1.400 . S
C111 C110 1.387 . S
N112 Co103 2.022 . S
N112 C109 1.351 . S
N112 N113 1.365 . S
N113 C110 1.341 . S
N113 N112 1.365 . S
N113 H133 0.862 . S
C114 C109 1.501 . S
C114 H115 0.961 . S
C114 H116 0.961 . S
C114 H117 0.960 . S
H115 C114 0.961 . S
H116 C114 0.961 . S
H117 C114 0.960 . S
C118 N119 1.342 . S
C118 C122 1.401 . S
C118 C123 1.499 . S
N119 Co102 1.989 . S
N119 C118 1.342 . S
N119 N120 1.388 . S
N120 Co103 1.993 . S
N120 N119 1.388 . S
N120 C121 1.346 . S
C121 N120 1.346 . S
C121 C122 1.396 . S
C121 C131 1.510 . S
C122 C118 1.401 . S
C122 C121 1.396 . S
C123 C118 1.499 . S
C123 H124 0.959 . S
C123 H125 0.960 . S
C123 H126 0.961 . S
H124 C123 0.959 . S
H125 C123 0.960 . S
H126 C123 0.961 . S
O127 Co102 1.967 . S
O127 C135 1.258 . S
O128 Co103 1.941 . S
O128 C135 1.266 . S
H129 C131 0.959 . S
H130 C131 0.961 . S
C131 C121 1.510 . S
C131 H129 0.959 . S
C131 H130 0.961 . S
C131 H132 0.960 . S
H132 C131 0.960 . S
H133 N113 0.862 . S
O134 Co102 1.920 . S
O134 C107 1.289 . S
C135 O127 1.258 . S
C135 O128 1.266 . S
Co136 O139 1.970 . S
Co136 N153 1.989 . S
Co136 O161 1.967 . S
Co136 O168 1.920 . S
Co137 O140 1.966 . S
Co137 N146 2.022 . S
Co137 N154 1.993 . S
Co137 O162 1.941 . S
C138 O139 1.258 . S
C138 O140 1.263 . S
O139 Co136 1.970 . S
O139 C138 1.258 . S
O140 Co137 1.966 . S
O140 C138 1.263 . S
C141 O142 1.235 . S
C141 O168 1.289 . S
O142 C141 1.235 . S
C143 C145 1.400 . S
C143 N146 1.351 . S
C143 C148 1.501 . S
C144 C145 1.387 . S
C144 N147 1.341 . S
C145 C143 1.400 . S
C145 C144 1.387 . S
N146 Co137 2.022 . S
N146 C143 1.351 . S
N146 N147 1.365 . S
N147 C144 1.341 . S
N147 N146 1.365 . S
N147 H167 0.862 . S
C148 C143 1.501 . S
C148 H149 0.961 . S
C148 H150 0.961 . S
C148 H151 0.960 . S
H149 C148 0.961 . S
H150 C148 0.961 . S
H151 C148 0.960 . S
C152 N153 1.342 . S
C152 C156 1.401 . S
C152 C157 1.499 . S
N153 Co136 1.989 . S
N153 C152 1.342 . S
N153 N154 1.388 . S
N154 Co137 1.993 . S
N154 N153 1.388 . S
N154 C155 1.346 . S
C155 N154 1.346 . S
C155 C156 1.396 . S
C155 C165 1.510 . S
C156 C152 1.401 . S
C156 C155 1.396 . S
C157 C152 1.499 . S
C157 H158 0.959 . S
C157 H159 0.960 . S
C157 H160 0.961 . S
H158 C157 0.959 . S
H159 C157 0.960 . S
H160 C157 0.961 . S
O161 Co136 1.967 . S
O161 C169 1.258 . S
O162 Co137 1.941 . S
O162 C169 1.266 . S
H163 C165 0.959 . S
H164 C165 0.961 . S
C165 C155 1.510 . S
C165 H163 0.959 . S
C165 H164 0.961 . S
C165 H166 0.960 . S
H166 C165 0.960 . S
H167 N147 0.862 . S
O168 Co136 1.920 . S
O168 C141 1.289 . S
C169 O161 1.258 . S
C169 O162 1.266 . S
Co170 O173 1.970 . S
Co170 N187 1.989 . S
Co170 O195 1.967 . S
Co170 O202 1.920 . S
Co171 O174 1.966 . S
Co171 N180 2.022 . S
Co171 N188 1.993 . S
Co171 O196 1.941 . S
C172 O173 1.258 . S
C172 O174 1.263 . S
O173 Co170 1.970 . S
O173 C172 1.258 . S
O174 Co171 1.966 . S
O174 C172 1.263 . S
C175 O176 1.235 . S
C175 O202 1.289 . S
O176 C175 1.235 . S
C177 C179 1.400 . S
C177 N180 1.351 . S
C177 C182 1.501 . S
C178 C179 1.387 . S
C178 N181 1.341 . S
C179 C177 1.400 . S
C179 C178 1.387 . S
N180 Co171 2.022 . S
N180 C177 1.351 . S
N180 N181 1.365 . S
N181 C178 1.341 . S
N181 N180 1.365 . S
N181 H201 0.862 . S
C182 C177 1.501 . S
C182 H183 0.961 . S
C182 H184 0.961 . S
C182 H185 0.960 . S
H183 C182 0.961 . S
H184 C182 0.961 . S
H185 C182 0.960 . S
C186 N187 1.342 . S
C186 C190 1.401 . S
C186 C191 1.499 . S
N187 Co170 1.989 . S
N187 C186 1.342 . S
N187 N188 1.388 . S
N188 Co171 1.993 . S
N188 N187 1.388 . S
N188 C189 1.346 . S
C189 N188 1.346 . S
C189 C190 1.396 . S
C189 C199 1.510 . S
C190 C186 1.401 . S
C190 C189 1.396 . S
C191 C186 1.499 . S
C191 H192 0.959 . S
C191 H193 0.960 . S
C191 H194 0.961 . S
H192 C191 0.959 . S
H193 C191 0.960 . S
H194 C191 0.961 . S
O195 Co170 1.967 . S
O195 C203 1.258 . S
O196 Co171 1.941 . S
O196 C203 1.266 . S
H197 C199 0.959 . S
H198 C199 0.961 . S
C199 C189 1.510 . S
C199 H197 0.959 . S
C199 H198 0.961 . S
C199 H200 0.960 . S
H200 C199 0.960 . S
H201 N181 0.862 . S
O202 Co170 1.920 . S
O202 C175 1.289 . S
C203 O195 1.258 . S
C203 O196 1.266 . S
Co204 O207 1.970 . S
Co204 N221 1.989 . S
Co204 O229 1.967 . S
Co204 O236 1.920 . S
Co205 O208 1.966 . S
Co205 N214 2.022 1_556 S
Co205 N222 1.993 . S
Co205 O230 1.941 . S
C206 O207 1.258 . S
C206 O208 1.263 . S
O207 Co204 1.970 . S
O207 C206 1.258 . S
O208 Co205 1.966 . S
O208 C206 1.263 . S
C209 O210 1.235 . S
C209 O236 1.289 . S
O210 C209 1.235 . S
C211 C213 1.400 . S
C211 N214 1.351 . S
C211 C216 1.501 . S
C212 C213 1.387 . S
C212 N215 1.341 . S
C213 C211 1.400 . S
C213 C212 1.387 . S
N214 Co205 2.022 1_554 S
N214 C211 1.351 . S
N214 N215 1.365 . S
N215 C212 1.341 . S
N215 N214 1.365 . S
N215 H235 0.862 . S
C216 C211 1.501 . S
C216 H217 0.961 . S
C216 H218 0.961 . S
C216 H219 0.960 . S
H217 C216 0.961 . S
H218 C216 0.961 . S
H219 C216 0.960 . S
C220 N221 1.342 . S
C220 C224 1.401 . S
C220 C225 1.499 . S
N221 Co204 1.989 . S
N221 C220 1.342 . S
N221 N222 1.388 . S
N222 Co205 1.993 . S
N222 N221 1.388 . S
N222 C223 1.337 1_556 S
C223 N222 1.337 1_554 S
C223 C224 1.390 1_554 S
C223 C233 1.523 . S
C224 C220 1.401 . S
C224 C223 1.390 1_556 S
C225 C220 1.499 . S
C225 H226 0.959 . S
C225 H227 0.960 . S
C225 H228 0.961 . S
H226 C225 0.959 . S
H227 C225 0.960 . S
H228 C225 0.961 . S
O229 Co204 1.967 . S
O229 C237 1.258 . S
O230 Co205 1.941 . S
O230 C237 1.266 . S
H231 C233 0.959 . S
H232 C233 0.961 . S
C233 C223 1.523 . S
C233 H231 0.959 . S
C233 H232 0.961 . S
C233 H234 0.960 . S
H234 C233 0.960 . S
H235 N215 0.862 . S
O236 Co204 1.920 . S
O236 C209 1.289 . S
C237 O229 1.258 . S
C237 O230 1.266 . S
Co238 O241 1.970 . S
Co238 N255 1.989 . S
Co238 O263 1.967 . S
Co238 O270 1.920 . S
Co239 O242 1.966 . S
Co239 N248 2.022 . S
Co239 N256 1.993 . S
Co239 O264 1.941 . S
C240 O241 1.258 . S
C240 O242 1.263 . S
O241 Co238 1.970 . S
O241 C240 1.258 . S
O242 Co239 1.966 . S
O242 C240 1.263 . S
C243 O244 1.235 . S
C243 O270 1.289 . S
O244 C243 1.235 . S
C245 C247 1.400 . S
C245 N248 1.351 . S
C245 C250 1.501 . S
C246 C247 1.387 . S
C246 N249 1.341 . S
C247 C245 1.400 . S
C247 C246 1.387 . S
N248 Co239 2.022 . S
N248 C245 1.351 . S
N248 N249 1.365 . S
N249 C246 1.341 . S
N249 N248 1.365 . S
N249 H269 0.862 . S
C250 C245 1.501 . S
C250 H251 0.961 . S
C250 H252 0.961 . S
C250 H253 0.960 . S
H251 C250 0.961 . S
H252 C250 0.961 . S
H253 C250 0.960 . S
C254 N255 1.342 . S
C254 C258 1.401 . S
C254 C259 1.499 . S
N255 Co238 1.989 . S
N255 C254 1.342 . S
N255 N256 1.388 . S
N256 Co239 1.993 . S
N256 N255 1.388 . S
N256 C257 1.346 . S
C257 N256 1.346 . S
C257 C258 1.396 . S
C257 C267 1.510 . S
C258 C254 1.401 . S
C258 C257 1.396 . S
C259 C254 1.499 . S
C259 H260 0.959 . S
C259 H261 0.960 . S
C259 H262 0.961 . S
H260 C259 0.959 . S
H261 C259 0.960 . S
H262 C259 0.961 . S
O263 Co238 1.967 . S
O263 C271 1.258 . S
O264 Co239 1.941 . S
O264 C271 1.266 . S
H265 C267 0.959 . S
H266 C267 0.961 . S
C267 C257 1.510 . S
C267 H265 0.959 . S
C267 H266 0.961 . S
C267 H268 0.960 . S
H268 C267 0.960 . S
H269 N249 0.862 . S
O270 Co238 1.920 . S
O270 C243 1.289 . S
C271 O263 1.258 . S
C271 O264 1.266 . S
C272 C273 1.369 . S
C272 C274 1.419 . S
C272 H276 0.930 . S
C273 C272 1.369 . S
C273 C282 1.429 . S
C274 C272 1.419 . S
C274 C275 1.363 . S
C274 H277 0.929 . S
C275 C274 1.363 . S
C275 C281 1.428 . S
H276 C272 0.930 . S
H277 C274 0.929 . S
S278 N279 1.613 . S
S278 N280 1.610 . S
N279 S278 1.613 . S
N279 C282 1.350 . S
N280 S278 1.610 . S
N280 C281 1.351 . S
C281 C275 1.428 . S
C281 N280 1.351 . S
C281 C282 1.434 . S
C282 C273 1.429 . S
C282 N279 1.350 . S
C282 C281 1.434 . S
C283 C284 1.369 . S
C283 C285 1.419 . S
C283 H287 0.930 . S
C284 C283 1.369 . S
C284 C293 1.429 . S
C285 C283 1.419 . S
C285 C286 1.363 . S
C285 H288 0.929 . S
C286 C285 1.363 . S
C286 C292 1.428 . S
H287 C283 0.930 . S
H288 C285 0.929 . S
S289 N290 1.613 . S
S289 N291 1.610 . S
N290 S289 1.613 . S
N290 C293 1.350 . S
N291 S289 1.610 . S
N291 C292 1.351 . S
C292 C286 1.428 . S
C292 N291 1.351 . S
C292 C293 1.434 . S
C293 C284 1.429 . S
C293 N290 1.350 . S
C293 C292 1.434 . S
C294 C295 1.369 . S
C294 C296 1.419 . S
C294 H298 0.930 . S
C295 C294 1.369 . S
C295 C304 1.429 . S
C296 C294 1.419 . S
C296 C297 1.363 . S
C296 H299 0.929 . S
C297 C296 1.363 . S
C297 C303 1.428 . S
H298 C294 0.930 . S
H299 C296 0.929 . S
S300 N301 1.613 . S
S300 N302 1.610 . S
N301 S300 1.613 . S
N301 C304 1.350 . S
N302 S300 1.610 . S
N302 C303 1.351 . S
C303 C297 1.428 . S
C303 N302 1.351 . S
C303 C304 1.434 . S
C304 C295 1.429 . S
C304 N301 1.350 . S
C304 C303 1.434 . S
C305 C306 1.369 . S
C305 C307 1.419 1_556 S
C305 H309 0.930 . S
C306 C305 1.369 . S
C306 C315 1.429 . S
C307 C305 1.419 1_554 S
C307 C308 1.363 . S
C307 H310 0.929 . S
C308 C307 1.363 . S
C308 C314 1.428 . S
H309 C305 0.930 . S
H310 C307 0.929 . S
S311 N312 1.613 1_554 S
S311 N313 1.610 . S
N312 S311 1.613 1_556 S
N312 C315 1.350 . S
N313 S311 1.610 . S
N313 C314 1.351 . S
C314 C308 1.428 . S
C314 N313 1.351 . S
C314 C315 1.434 1_554 S
C315 C306 1.429 . S
C315 N312 1.350 . S
C315 C314 1.434 1_556 S
C316 C317 1.369 1_556 S
C316 C318 1.419 1_455 S
C316 H320 0.930 . S
C317 C316 1.369 1_554 S
C317 C326 1.429 . S
C318 C316 1.419 1_655 S
C318 C319 1.363 . S
C318 H321 0.929 . S
C319 C318 1.363 . S
C319 C325 1.428 1_556 S
H320 C316 0.930 . S
H321 C318 0.929 . S
S322 N323 1.613 1_655 S
S322 N324 1.610 . S
N323 S322 1.613 1_455 S
N323 C326 1.350 . S
N324 S322 1.610 . S
N324 C325 1.351 . S
C325 C319 1.428 1_554 S
C325 N324 1.351 . S
C325 C326 1.434 1_655 S
C326 C317 1.429 . S
C326 N323 1.350 . S
C326 C325 1.434 1_455 S
C327 C328 1.369 . S
C327 C329 1.419 1_545 S
C327 H331 0.930 . S
C328 C327 1.369 . S
C328 C337 1.429 . S
C329 C327 1.419 1_565 S
C329 C330 1.363 . S
C329 H332 0.929 . S
C330 C329 1.363 . S
C330 C336 1.428 . S
H331 C327 0.930 . S
H332 C329 0.929 . S
S333 N334 1.613 . S
S333 N335 1.610 1_545 S
N334 S333 1.613 . S
N334 C337 1.350 . S
N335 S333 1.610 1_565 S
N335 C336 1.351 . S
C336 C330 1.428 . S
C336 N335 1.351 . S
C336 C337 1.434 1_565 S
C337 C328 1.429 . S
C337 N334 1.350 . S
C337 C336 1.434 1_545 S
C338 C339 1.369 . S
C338 C340 1.419 1_455 S
C338 H342 0.930 . S
C339 C338 1.369 . S
C339 C348 1.429 . S
C340 C338 1.419 1_655 S
C340 C341 1.363 . S
C340 H343 0.929 . S
C341 C340 1.363 . S
C341 C347 1.428 . S
H342 C338 0.930 . S
H343 C340 0.929 . S
S344 N345 1.613 1_655 S
S344 N346 1.610 . S
N345 S344 1.613 1_455 S
N345 C348 1.350 . S
N346 S344 1.610 . S
N346 C347 1.351 . S
C347 C341 1.428 . S
C347 N346 1.351 . S
C347 C348 1.434 1_655 S
C348 C339 1.429 . S
C348 N345 1.350 . S
C348 C347 1.434 1_455 S
C349 C350 1.369 . S
C349 C351 1.419 1_545 S
C349 H353 0.930 . S
C350 C349 1.369 . S
C350 C359 1.429 . S
C351 C349 1.419 1_565 S
C351 C352 1.363 . S
C351 H354 0.929 . S
C352 C351 1.363 . S
C352 C358 1.428 . S
H353 C349 0.930 . S
H354 C351 0.929 . S
S355 N356 1.613 1_565 S
S355 N357 1.610 . S
N356 S355 1.613 1_545 S
N356 C359 1.350 . S
N357 S355 1.610 . S
N357 C358 1.351 . S
C358 C352 1.428 . S
C358 N357 1.351 . S
C358 C359 1.434 1_565 S
C359 C350 1.429 . S
C359 N356 1.350 . S
C359 C358 1.434 1_545 S
C360 C361 1.369 . S
C360 C362 1.419 . S
C360 H364 0.930 . S
C361 C360 1.369 . S
C361 C370 1.429 . S
C362 C360 1.419 . S
C362 C363 1.363 . S
C362 H365 0.929 . S
C363 C362 1.363 . S
C363 C369 1.428 . S
H364 C360 0.930 . S
H365 C362 0.929 . S
S366 N367 1.613 . S
S366 N368 1.610 . S
N367 S366 1.613 . S
N367 C370 1.350 . S
N368 S366 1.610 . S
N368 C369 1.351 . S
C369 C363 1.428 . S
C369 N368 1.351 . S
C369 C370 1.434 . S
C370 C361 1.429 . S
C370 N367 1.350 . S
C370 C369 1.434 . S
C371 C372 1.369 . S
C371 C373 1.419 . S
C371 H375 0.930 . S
C372 C371 1.369 . S
C372 C381 1.429 . S
C373 C371 1.419 . S
C373 C374 1.363 . S
C373 H376 0.929 . S
C374 C373 1.363 . S
C374 C380 1.428 . S
H375 C371 0.930 . S
H376 C373 0.929 . S
S377 N378 1.613 . S
S377 N379 1.610 . S
N378 S377 1.613 . S
N378 C381 1.350 . S
N379 S377 1.610 . S
N379 C380 1.351 . S
C380 C374 1.428 . S
C380 N379 1.351 . S
C380 C381 1.434 . S
C381 C372 1.429 . S
C381 N378 1.350 . S
C381 C380 1.434 . S
C382 C383 1.369 . S
C382 C384 1.419 . S
C382 H386 0.930 . S
C383 C382 1.369 . S
C383 C392 1.429 . S
C384 C382 1.419 . S
C384 C385 1.363 . S
C384 H387 0.929 . S
C385 C384 1.363 . S
C385 C391 1.428 . S
H386 C382 0.930 . S
H387 C384 0.929 . S
S388 N389 1.613 . S
S388 N390 1.610 . S
N389 S388 1.613 . S
N389 C392 1.350 . S
N390 S388 1.610 . S
N390 C391 1.351 . S
C391 C385 1.428 . S
C391 N390 1.351 . S
C391 C392 1.434 . S
C392 C383 1.429 . S
C392 N389 1.350 . S
C392 C391 1.434 . S
C393 C394 1.369 . S
C393 C395 1.419 . S
C393 H397 0.930 . S
C394 C393 1.369 . S
C394 C403 1.429 . S
C395 C393 1.419 . S
C395 C396 1.363 . S
C395 H398 0.929 . S
C396 C395 1.363 . S
C396 C402 1.428 . S
H397 C393 0.930 . S
H398 C395 0.929 . S
S399 N400 1.613 . S
S399 N401 1.610 . S
N400 S399 1.613 . S
N400 C403 1.350 . S
N401 S399 1.610 . S
N401 C402 1.351 . S
C402 C396 1.428 . S
C402 N401 1.351 . S
C402 C403 1.434 . S
C403 C394 1.429 . S
C403 N400 1.350 . S
C403 C402 1.434 . S
C404 C405 1.369 . S
C404 C406 1.419 . S
C404 H408 0.930 . S
C405 C404 1.369 . S
C405 C414 1.429 . S
C406 C404 1.419 . S
C406 C407 1.363 . S
C406 H409 0.929 . S
C407 C406 1.363 . S
C407 C413 1.428 . S
H408 C404 0.930 . S
H409 C406 0.929 . S
S410 N411 1.613 . S
S410 N412 1.610 . S
N411 S410 1.613 . S
N411 C414 1.350 . S
N412 S410 1.610 . S
N412 C413 1.351 . S
C413 C407 1.428 . S
C413 N412 1.351 . S
C413 C414 1.434 . S
C414 C405 1.429 . S
C414 N411 1.350 . S
C414 C413 1.434 . S
C415 C416 1.369 . S
C415 C417 1.419 . S
C415 H419 0.930 . S
C416 C415 1.369 . S
C416 C425 1.429 . S
C417 C415 1.419 . S
C417 C418 1.363 . S
C417 H420 0.929 . S
C418 C417 1.363 . S
C418 C424 1.428 . S
H419 C415 0.930 . S
H420 C417 0.929 . S
S421 N422 1.613 . S
S421 N423 1.610 . S
N422 S421 1.613 . S
N422 C425 1.350 . S
N423 S421 1.610 . S
N423 C424 1.351 . S
C424 C418 1.428 . S
C424 N423 1.351 . S
C424 C425 1.434 . S
C425 C416 1.429 . S
C425 N422 1.350 . S
C425 C424 1.434 . S
C426 C427 1.369 . S
C426 C428 1.419 . S
C426 H430 0.930 . S
C427 C426 1.369 . S
C427 C436 1.429 . S
C428 C426 1.419 . S
C428 C429 1.363 . S
C428 H431 0.929 . S
C429 C428 1.363 . S
C429 C435 1.428 . S
H430 C426 0.930 . S
H431 C428 0.929 . S
S432 N433 1.613 . S
S432 N434 1.610 . S
N433 S432 1.613 . S
N433 C436 1.350 . S
N434 S432 1.610 . S
N434 C435 1.351 . S
C435 C429 1.428 . S
C435 N434 1.351 . S
C435 C436 1.434 . S
C436 C427 1.429 . S
C436 N433 1.350 . S
C436 C435 1.434 . S
C437 C438 1.369 . S
C437 C439 1.419 . S
C437 H441 0.930 . S
C438 C437 1.369 . S
C438 C447 1.429 . S
C439 C437 1.419 . S
C439 C440 1.363 . S
C439 H442 0.929 . S
C440 C439 1.363 . S
C440 C446 1.428 . S
H441 C437 0.930 . S
H442 C439 0.929 . S
S443 N444 1.613 . S
S443 N445 1.610 . S
N444 S443 1.613 . S
N444 C447 1.350 . S
N445 S443 1.610 . S
N445 C446 1.351 . S
C446 C440 1.428 . S
C446 N445 1.351 . S
C446 C447 1.434 . S
C447 C438 1.429 . S
C447 N444 1.350 . S
C447 C446 1.434 . S
C448 C449 1.369 . S
C448 C450 1.419 . S
C448 H452 0.930 . S
C449 C448 1.369 . S
C449 C458 1.429 . S
C450 C448 1.419 . S
C450 C451 1.363 . S
C450 H453 0.929 . S
C451 C450 1.363 . S
C451 C457 1.428 . S
H452 C448 0.930 . S
H453 C450 0.929 . S
S454 N455 1.613 . S
S454 N456 1.610 . S
N455 S454 1.613 . S
N455 C458 1.350 . S
N456 S454 1.610 . S
N456 C457 1.351 . S
C457 C451 1.428 . S
C457 N456 1.351 . S
C457 C458 1.434 . S
C458 C449 1.429 . S
C458 N455 1.350 . S
C458 C457 1.434 . S
C459 C460 1.369 . S
C459 C461 1.419 . S
C459 H463 0.930 . S
C460 C459 1.369 . S
C460 C469 1.429 . S
C461 C459 1.419 . S
C461 C462 1.363 . S
C461 H464 0.929 . S
C462 C461 1.363 . S
C462 C468 1.428 . S
H463 C459 0.930 . S
H464 C461 0.929 . S
S465 N466 1.613 . S
S465 N467 1.610 . S
N466 S465 1.613 . S
N466 C469 1.350 . S
N467 S465 1.610 . S
N467 C468 1.351 . S
C468 C462 1.428 . S
C468 N467 1.351 . S
C468 C469 1.434 . S
C469 C460 1.429 . S
C469 N466 1.350 . S
C469 C468 1.434 . S
C470 C471 1.369 . S
C470 C472 1.419 . S
C470 H474 0.930 . S
C471 C470 1.369 . S
C471 C480 1.429 . S
C472 C470 1.419 . S
C472 C473 1.363 . S
C472 H475 0.929 . S
C473 C472 1.363 . S
C473 C479 1.428 . S
H474 C470 0.930 . S
H475 C472 0.929 . S
S476 N477 1.613 . S
S476 N478 1.610 . S
N477 S476 1.613 . S
N477 C480 1.350 . S
N478 S476 1.610 . S
N478 C479 1.351 . S
C479 C473 1.428 . S
C479 N478 1.351 . S
C479 C480 1.434 . S
C480 C471 1.429 . S
C480 N477 1.350 . S
C480 C479 1.434 . S
C481 C482 1.369 . S
C481 C483 1.419 . S
C481 H485 0.930 . S
C482 C481 1.369 . S
C482 C491 1.429 . S
C483 C481 1.419 . S
C483 C484 1.363 . S
C483 H486 0.929 . S
C484 C483 1.363 . S
C484 C490 1.428 . S
H485 C481 0.930 . S
H486 C483 0.929 . S
S487 N488 1.613 . S
S487 N489 1.610 . S
N488 S487 1.613 . S
N488 C491 1.350 . S
N489 S487 1.610 . S
N489 C490 1.351 . S
C490 C484 1.428 . S
C490 N489 1.351 . S
C490 C491 1.434 . S
C491 C482 1.429 . S
C491 N488 1.350 . S
C491 C490 1.434 . S
C273 C141 1.371 . S
C275 C5 1.372 . S
C284 C39 1.373 . S
C286 C175 1.375 . S
C295 C73 1.372 . S
C297 C209 1.374 . S
C306 C107 1.371 . S
C308 C243 1.373 . S
C317 C20 1.245 . S
C319 C224 1.249 . S
C328 C54 1.247 . S
C330 C258 1.243 . S
C339 C156 1.243 . S
C341 C88 1.247 . S
C350 C190 1.242 . S
C352 C122 1.248 . S
C361 C240 1.195 . S
C363 C2 1.190 . S
C372 C36 1.189 . S
C374 C138 1.194 . S
C383 C172 1.192 . S
C385 C70 1.193 . S
C394 C206 1.193 . S
C396 C104 1.191 . S
C405 C33 1.509 . S
C407 C43 1.496 . S
C416 C67 1.515 . S
C418 C77 1.501 . S
C427 C111 1.495 . S
C429 C101 1.510 . S
C438 C9 1.494 . S
C440 C135 1.510 . S
C449 C169 1.514 . S
C451 C247 1.500 . S
C460 C145 1.497 . S
C462 C203 1.511 . S
C471 C237 1.513 . S
C473 C179 1.499 . S
C482 C271 1.514 . S
C484 C213 1.500 . S
