# Generated by pormake.
# Topology bcg, (8)-cn, num edge types: 1
# Building blocks:
#     Node 0, Type 0, BuildingBlock: TAGTUT_clean_sbu_3, # of connection points: 8
#     Node 1, Type 0, BuildingBlock: TAGTUT_clean_sbu_3, # of connection points: 8
#     Node 2, Type 0, BuildingBlock: TAGTUT_clean_sbu_3, # of connection points: 8
#     Node 3, Type 0, BuildingBlock: TAGTUT_clean_sbu_3, # of connection points: 8
#     Edge 4, Type (0, 0), BuildingBlock: MIFKUJ_clean_linker_0, # of connection points: 2
#     Edge 5, Type (0, 0), BuildingBlock: MIFKUJ_clean_linker_0, # of connection points: 2
#     Edge 6, Type (0, 0), BuildingBlock: MIFKUJ_clean_linker_0, # of connection points: 2
#     Edge 7, Type (0, 0), BuildingBlock: MIFKUJ_clean_linker_0, # of connection points: 2
#     Edge 8, Type (0, 0), BuildingBlock: MIFKUJ_clean_linker_0, # of connection points: 2
#     Edge 9, Type (0, 0), BuildingBlock: MIFKUJ_clean_linker_0, # of connection points: 2
#     Edge 10, Type (0, 0), BuildingBlock: MIFKUJ_clean_linker_0, # of connection points: 2
#     Edge 11, Type (0, 0), BuildingBlock: MIFKUJ_clean_linker_0, # of connection points: 2
#     Edge 12, Type (0, 0), BuildingBlock: MIFKUJ_clean_linker_0, # of connection points: 2
#     Edge 13, Type (0, 0), BuildingBlock: MIFKUJ_clean_linker_0, # of connection points: 2
#     Edge 14, Type (0, 0), BuildingBlock: MIFKUJ_clean_linker_0, # of connection points: 2
#     Edge 15, Type (0, 0), BuildingBlock: MIFKUJ_clean_linker_0, # of connection points: 2
#     Edge 16, Type (0, 0), BuildingBlock: MIFKUJ_clean_linker_0, # of connection points: 2
#     Edge 17, Type (0, 0), BuildingBlock: MIFKUJ_clean_linker_0, # of connection points: 2
#     Edge 18, Type (0, 0), BuildingBlock: MIFKUJ_clean_linker_0, # of connection points: 2
#     Edge 19, Type (0, 0), BuildingBlock: MIFKUJ_clean_linker_0, # of connection points: 2
# Relax obj value: 0.119
# Max RMSD: 0.246
# Mean RMSD: 0.246
data_MOF--net-bcg--node1-TAGTUT_clean_sbu_3--edge1-MIFKUJ_clean_linker_0
_symmetry_space_group_name_H-M    P1
_symmetry_Int_Tables_number       1
_symmetry_cell_setting            triclinic
loop_
_symmetry_equiv_pos_as_xyz
'x, y, z'
_cell_length_a     19.019242
_cell_length_b     35.45975
_cell_length_c     40.854218
_cell_angle_alpha  90.15155
_cell_angle_beta   90.047594
_cell_angle_gamma 89.939798
loop_
_atom_site_label
_atom_site_type_symbol
_atom_site_fract_x
_atom_site_fract_y
_atom_site_fract_z
_atom_type_partial_charge
C0 C 0.38622 0.21948 0.0165 0.0
C1 C 0.27532 0.26014 0.12954 0.0
C2 C 0.08295 0.25322 0.07896 0.0
Mg3 Mg 0.32665 0.22776 0.94308 0.0
Mg4 Mg 0.22175 0.2982 0.92085 0.0
O5 O 0.23813 0.25771 0.94954 0.0
Mg6 Mg 0.24484 0.2652 0.99819 0.0
O7 O 0.2559 0.26839 0.04686 0.0
Mg8 Mg 0.24027 0.21423 0.05858 0.0
Mg9 Mg 0.21052 0.30506 0.07179 0.0
C10 C 0.09951 0.30877 0.97347 0.0
O11 O 0.28422 0.32623 0.99646 0.0
O12 O 0.2888 0.21729 0.88961 0.0
O13 O 0.24446 0.35336 0.04308 0.0
O14 O 0.38758 0.28028 0.92611 0.0
O15 O 0.2153 0.26494 0.87655 0.0
O16 O 0.31819 0.33018 0.91759 0.0
O17 O 0.20742 0.20502 0.00423 0.0
O18 O 0.26243 0.17785 0.96199 0.0
C19 C 0.22105 0.17593 0.98669 0.0
C20 C 0.24727 0.23412 0.86958 0.0
O21 O 0.13393 0.28989 0.99508 0.0
O22 O 0.27223 0.22992 0.11207 0.0
O23 O 0.12501 0.31711 0.94519 0.0
O24 O 0.12452 0.22532 0.07394 0.0
O25 O 0.25771 0.29253 0.11833 0.0
O26 O 0.10396 0.28727 0.07644 0.0
O27 O 0.35272 0.24086 0.99683 0.0
O28 O 0.35694 0.20673 0.04253 0.0
C29 C 0.37915 0.31503 0.91878 0.0
C30 C 0.27629 0.355 0.01535 0.0
C31 C 0.88695 0.72289 0.99413 0.0
C32 C 0.80274 0.77193 0.10721 0.0
C33 C 0.59684 0.75614 0.06907 0.0
Mg34 Mg 0.81252 0.72705 0.92359 0.0
Mg35 Mg 0.70313 0.79618 0.90393 0.0
O36 O 0.72427 0.7564 0.93263 0.0
Mg37 Mg 0.74131 0.76677 0.98015 0.0
O38 O 0.7616 0.77307 0.02767 0.0
Mg39 Mg 0.75189 0.71944 0.04256 0.0
Mg40 Mg 0.71576 0.8103 0.05198 0.0
C41 C 0.59346 0.81053 0.96126 0.0
O42 O 0.77828 0.82797 0.97363 0.0
O43 O 0.76514 0.71431 0.87219 0.0
O44 O 0.73951 0.85724 0.0194 0.0
O45 O 0.86855 0.77932 0.90334 0.0
O46 O 0.68896 0.76121 0.86106 0.0
O47 O 0.79702 0.82874 0.89703 0.0
O48 O 0.70701 0.70679 0.99057 0.0
O49 O 0.75326 0.67766 0.94699 0.0
C50 C 0.71742 0.67688 0.97358 0.0
C51 C 0.71958 0.73013 0.85342 0.0
O52 O 0.63059 0.79122 0.98153 0.0
O53 O 0.79798 0.74002 0.09227 0.0
O54 O 0.61384 0.8178 0.93191 0.0
O55 O 0.64075 0.72952 0.06353 0.0
O56 O 0.77642 0.80243 0.09567 0.0
O57 O 0.61199 0.79056 0.0633 0.0
O58 O 0.84928 0.74299 0.97511 0.0
O59 O 0.86287 0.7114 0.02159 0.0
C60 C 0.85815 0.81398 0.89642 0.0
C61 C 0.76885 0.85782 0.99104 0.0
C62 C 0.39053 0.76643 0.49605 0.0
C63 C 0.28441 0.73236 0.37612 0.0
C64 C 0.09549 0.74683 0.42289 0.0
Mg65 Mg 0.31928 0.75674 0.56434 0.0
Mg66 Mg 0.20026 0.69091 0.58003 0.0
O67 O 0.228 0.7315 0.55378 0.0
Mg68 Mg 0.24291 0.72487 0.50563 0.0
O69 O 0.26379 0.72198 0.45775 0.0
Mg70 Mg 0.25697 0.77734 0.44726 0.0
Mg71 Mg 0.2078 0.68941 0.43298 0.0
C72 C 0.08556 0.69368 0.52379 0.0
O73 O 0.2706 0.66193 0.50799 0.0
O74 O 0.27471 0.76741 0.61602 0.0
O75 O 0.23112 0.63796 0.46015 0.0
O76 O 0.3682 0.70131 0.58165 0.0
O77 O 0.19076 0.72382 0.62427 0.0
O78 O 0.29086 0.6542 0.5853 0.0
O79 O 0.21527 0.78647 0.49991 0.0
O80 O 0.26583 0.80999 0.54486 0.0
C81 C 0.22873 0.81429 0.51892 0.0
C82 C 0.22583 0.75283 0.63353 0.0
O83 O 0.12902 0.70827 0.50347 0.0
O84 O 0.29484 0.76127 0.39468 0.0
O85 O 0.10403 0.68073 0.55194 0.0
O86 O 0.14464 0.7711 0.42653 0.0
O87 O 0.25316 0.70241 0.38597 0.0
O88 O 0.10436 0.71244 0.43096 0.0
O89 O 0.35172 0.74383 0.51192 0.0
O90 O 0.36944 0.78213 0.4695 0.0
C91 C 0.35383 0.66669 0.5871 0.0
C92 C 0.2594 0.634 0.48855 0.0
C93 C 0.87974 0.27871 0.5034 0.0
C94 C 0.78889 0.23657 0.38776 0.0
C95 C 0.5881 0.23663 0.43368 0.0
Mg96 Mg 0.81181 0.26808 0.57484 0.0
Mg97 Mg 0.7101 0.19516 0.59419 0.0
O98 O 0.72796 0.23541 0.56589 0.0
Mg99 Mg 0.74155 0.22807 0.5176 0.0
O100 O 0.75905 0.22598 0.46925 0.0
Mg101 Mg 0.73858 0.27988 0.4576 0.0
Mg102 Mg 0.72068 0.18853 0.44292 0.0
C103 C 0.59341 0.18385 0.53877 0.0
O104 O 0.78814 0.16792 0.52012 0.0
O105 O 0.76907 0.27673 0.62769 0.0
O106 O 0.75747 0.14102 0.47194 0.0
O107 O 0.87564 0.21672 0.59265 0.0
O108 O 0.69663 0.22822 0.63828 0.0
O109 O 0.8087 0.16535 0.59895 0.0
O110 O 0.69856 0.28625 0.51088 0.0
O111 O 0.74144 0.31615 0.55469 0.0
C112 C 0.70287 0.31565 0.52886 0.0
C113 C 0.72634 0.25924 0.64667 0.0
O114 O 0.63069 0.20158 0.51747 0.0
O115 O 0.77927 0.26656 0.40498 0.0
O116 O 0.61632 0.17603 0.56766 0.0
O117 O 0.62611 0.26575 0.4393 0.0
O118 O 0.7731 0.2036 0.39821 0.0
O119 O 0.61256 0.20324 0.43663 0.0
O120 O 0.84658 0.25598 0.52201 0.0
O121 O 0.85176 0.29089 0.47683 0.0
C122 C 0.86868 0.18163 0.59921 0.0
C123 C 0.78618 0.13954 0.50042 0.0
H124 H 0.45817 0.22767 0.95965 0.0
H125 H 0.58248 0.24119 0.95413 0.0
H126 H 0.61353 0.21707 0.05666 0.0
H127 H 0.48735 0.20516 0.06267 0.0
H128 H 0.6638 0.28364 0.04274 0.0
H129 H 0.6897 0.16198 0.99432 0.0
H130 H 0.66305 0.10881 0.95734 0.0
H131 H 0.70191 0.17922 0.87397 0.0
H132 H 0.72755 0.23298 0.91037 0.0
H133 H 0.03178 0.3098 0.03188 0.0
H134 H 0.90933 0.29421 0.04051 0.0
H135 H 0.86973 0.30832 0.93717 0.0
H136 H 0.99485 0.31993 0.92821 0.0
H137 H 0.8258 0.24381 0.95414 0.0
H138 H 0.78888 0.36723 0.00329 0.0
H139 H 0.81669 0.41973 0.04091 0.0
H140 H 0.8014 0.34486 0.12307 0.0
H141 H 0.77459 0.29189 0.08584 0.0
C142 C 0.49154 0.2244 0.98091 0.0
C143 C 0.46278 0.21598 0.0117 0.0
C144 C 0.56297 0.23183 0.97765 0.0
C145 C 0.60747 0.23019 0.00499 0.0
C146 C 0.57997 0.21864 0.03527 0.0
C147 C 0.50803 0.21146 0.03861 0.0
C148 C 0.68 0.24506 0.00253 0.0
C149 C 0.69975 0.27448 0.02369 0.0
C150 C 0.72612 0.23386 0.97717 0.0
C151 C 0.71017 0.2016 0.95513 0.0
C152 C 0.69198 0.16622 0.9681 0.0
C153 C 0.6771 0.13596 0.94722 0.0
C154 C 0.68059 0.14065 0.91331 0.0
C155 C 0.69905 0.17562 0.90021 0.0
C156 C 0.71387 0.20599 0.92096 0.0
C157 C -0.00304 0.30992 0.01113 0.0
C158 C 0.02359 0.31449 0.9794 0.0
C159 C 0.92627 0.30173 0.01612 0.0
C160 C 0.87985 0.29987 0.98949 0.0
C161 C 0.90472 0.30912 0.9581 0.0
C162 C 0.97619 0.31623 0.95304 0.0
C163 C 0.80889 0.28319 0.99371 0.0
C164 C 0.7897 0.25317 0.97305 0.0
C165 C 0.76333 0.29383 0.01951 0.0
C166 C 0.77941 0.32569 0.04184 0.0
C167 C 0.79163 0.362 0.02937 0.0
C168 C 0.80728 0.39182 0.05062 0.0
C169 C 0.81074 0.38565 0.08436 0.0
C170 C 0.79851 0.34964 0.09694 0.0
C171 C 0.78283 0.31975 0.07581 0.0
H172 H 0.82292 0.40876 0.10075 0.0
H173 H 0.66913 0.11718 0.89718 0.0
H174 H 0.95545 0.74077 0.93782 0.0
H175 H 0.07759 0.75973 0.93363 0.0
H176 H 0.11503 0.72075 0.03217 0.0
H177 H 0.99127 0.70352 0.03712 0.0
H178 H 0.15593 0.78998 0.0273 0.0
H179 H 0.18946 0.67976 0.96295 0.0
H180 H 0.17241 0.63275 0.91912 0.0
H181 H 0.21666 0.71707 0.84688 0.0
H182 H 0.23015 0.76487 0.88985 0.0
H183 H 0.52642 0.79163 0.0175 0.0
H184 H 0.40108 0.7879 0.02591 0.0
H185 H 0.36621 0.84329 0.93348 0.0
H186 H 0.49315 0.84743 0.92495 0.0
H187 H 0.3217 0.77046 0.93532 0.0
H188 H 0.29826 0.87925 0.00417 0.0
H189 H 0.32676 0.92124 0.05047 0.0
H190 H 0.27755 0.83283 0.11826 0.0
H191 H 0.25069 0.78991 0.07241 0.0
C192 C 0.98984 0.73552 0.95838 0.0
C193 C 0.96325 0.72173 0.98809 0.0
C194 C 0.05997 0.74616 0.95588 0.0
C195 C 0.10518 0.74212 0.98277 0.0
C196 C 0.08058 0.72459 0.0113 0.0
C197 C 0.01002 0.71437 0.01396 0.0
C198 C 0.17535 0.75989 0.98221 0.0
C199 C 0.19274 0.78529 0.00743 0.0
C200 C 0.22227 0.75457 0.95582 0.0
C201 C 0.21012 0.72607 0.92972 0.0
C202 C 0.19405 0.68846 0.93765 0.0
C203 C 0.18485 0.66162 0.91288 0.0
C204 C 0.19264 0.67192 0.8801 0.0
C205 C 0.20939 0.7091 0.87208 0.0
C206 C 0.21764 0.73613 0.89665 0.0
C207 C 0.49275 0.80484 0.99974 0.0
C208 C 0.52011 0.81925 0.9704 0.0
C209 C 0.42062 0.80278 0.00465 0.0
C210 C 0.37453 0.8152 0.98028 0.0
C211 C 0.40133 0.83357 0.95258 0.0
C212 C 0.47386 0.83575 0.9477 0.0
C213 C 0.30209 0.80063 0.9802 0.0
C214 C 0.28439 0.77554 0.95494 0.0
C215 C 0.25606 0.80548 0.007 0.0
C216 C 0.27277 0.83124 0.03472 0.0
C217 C 0.29426 0.86858 0.02892 0.0
C218 C 0.31014 0.89256 0.05512 0.0
C219 C 0.30422 0.87966 0.08728 0.0
C220 C 0.28232 0.84276 0.09333 0.0
C221 C 0.26678 0.81858 0.06723 0.0
H222 H 0.31634 0.89832 0.10751 0.0
H223 H 0.18618 0.65107 0.86094 0.0
H224 H 0.46665 0.71997 0.53377 0.0
H225 H 0.58424 0.72908 0.5542 0.0
H226 H 0.58752 0.84126 0.513 0.0
H227 H 0.46875 0.83126 0.49099 0.0
H228 H 0.68324 0.80437 0.48864 0.0
H229 H 0.62508 0.82137 0.59776 0.0
H230 H 0.56611 0.81433 0.65102 0.0
H231 H 0.65195 0.70304 0.6611 0.0
H232 H 0.70918 0.70855 0.60736 0.0
H233 H 0.0421 0.75936 0.49832 0.0
H234 H 0.92935 0.78902 0.50574 0.0
H235 H 0.84813 0.68676 0.54874 0.0
H236 H 0.96533 0.65789 0.54455 0.0
H237 H 0.80309 0.743 0.58211 0.0
H238 H 0.80981 0.72195 0.46236 0.0
H239 H 0.85299 0.72944 0.40587 0.0
H240 H 0.85534 0.84978 0.41786 0.0
H241 H 0.81129 0.84301 0.47429 0.0
C242 C 0.49172 0.74696 0.52964 0.0
C243 C 0.45961 0.77463 0.51017 0.0
C244 C 0.55873 0.75249 0.54201 0.0
C245 C 0.59487 0.78607 0.53557 0.0
C246 C 0.56047 0.81512 0.51834 0.0
C247 C 0.4934 0.80923 0.50531 0.0
C248 C 0.67226 0.78576 0.53859 0.0
C249 C 0.70964 0.79214 0.50966 0.0
C250 C 0.70703 0.76948 0.56582 0.0
C251 C 0.67179 0.7655 0.59824 0.0
C252 C 0.63089 0.79517 0.61107 0.0
C253 C 0.59759 0.7914 0.6414 0.0
C254 C 0.60515 0.7582 0.65939 0.0
C255 C 0.64604 0.7287 0.6471 0.0
C256 C 0.67893 0.73214 0.61665 0.0
C257 C -7e-05 0.74255 0.50851 0.0
C258 C 0.0121 0.70578 0.52016 0.0
C259 C 0.93514 0.75978 0.51283 0.0
C260 C 0.87949 0.73998 0.52711 0.0
C261 C 0.89045 0.70263 0.53762 0.0
C262 C 0.95675 0.68584 0.53467 0.0
C263 C 0.81011 0.75831 0.53126 0.0
C264 C 0.77593 0.75592 0.56166 0.0
C265 C 0.77733 0.77811 0.50543 0.0
C266 C 0.80843 0.78192 0.47254 0.0
C267 C 0.82056 0.74993 0.45305 0.0
C268 C 0.84493 0.75409 0.42106 0.0
C269 C 0.85732 0.79008 0.40849 0.0
C270 C 0.84594 0.82198 0.4278 0.0
C271 C 0.82115 0.81801 0.45971 0.0
H272 H 0.87454 0.79343 0.38361 0.0
H273 H 0.57943 0.75534 0.68289 0.0
H274 H 0.98093 0.30047 0.45971 0.0
H275 H 0.10734 0.28982 0.46559 0.0
H276 H 0.07683 0.25656 0.56602 0.0
H277 H 0.95097 0.26807 0.56067 0.0
H278 H 0.20908 0.2923 0.55383 0.0
H279 H 0.05972 0.19196 0.51002 0.0
H280 H 0.96905 0.17268 0.47016 0.0
H281 H 0.10891 0.19881 0.39088 0.0
H282 H 0.20034 0.21823 0.43039 0.0
H283 H 0.48819 0.17258 0.58349 0.0
H284 H 0.36472 0.189 0.57601 0.0
H285 H 0.40072 0.20668 0.47302 0.0
H286 H 0.52384 0.18889 0.48024 0.0
H287 H 0.26746 0.18173 0.48387 0.0
H288 H 0.41756 0.27975 0.52374 0.0
H289 H 0.50566 0.30888 0.56017 0.0
H290 H 0.36744 0.29471 0.64226 0.0
H291 H 0.27882 0.26494 0.6064 0.0
C292 C 0.00138 0.29238 0.48343 0.0
C293 C 0.95573 0.28407 0.50948 0.0
C294 C 0.07363 0.28618 0.4867 0.0
C295 C 0.10091 0.27148 0.51598 0.0
C296 C 0.05666 0.26761 0.54316 0.0
C297 C 0.98457 0.2739 0.53994 0.0
C298 C 0.17168 0.25412 0.51676 0.0
C299 C 0.22185 0.26801 0.53875 0.0
C300 C 0.18836 0.22282 0.49659 0.0
C301 C 0.13639 0.20721 0.47309 0.0
C302 C 0.07109 0.19359 0.48408 0.0
C303 C 0.01948 0.18274 0.46157 0.0
C304 C 0.03292 0.18492 0.428 0.0
C305 C 0.09836 0.19742 0.41689 0.0
C306 C 0.15012 0.20833 0.43933 0.0
C307 C 0.46957 0.17852 0.55898 0.0
C308 C 0.51669 0.18062 0.5325 0.0
C309 C 0.3989 0.18828 0.55482 0.0
C310 C 0.37419 0.20039 0.52418 0.0
C311 C 0.41892 0.19805 0.497 0.0
C312 C 0.4895 0.18809 0.50116 0.0
C313 C 0.3051 0.21963 0.52137 0.0
C314 C 0.25506 0.20605 0.49898 0.0
C315 C 0.2889 0.25169 0.54081 0.0
C316 C 0.34189 0.26972 0.56246 0.0
C317 C 0.40616 0.28257 0.54961 0.0
C318 C 0.45614 0.29925 0.57013 0.0
C319 C 0.44222 0.30356 0.60351 0.0
C320 C 0.37819 0.29129 0.61641 0.0
C321 C 0.32804 0.27452 0.596 0.0
H322 H 0.481 0.31648 0.61936 0.0
H323 H 0.99287 0.17657 0.4106 0.0
H324 H 0.60889 0.66913 0.01677 0.0
H325 H 0.53368 0.61419 0.02385 0.0
H326 H 0.66309 0.55096 0.95645 0.0
H327 H 0.73757 0.60625 0.94848 0.0
H328 H 0.52946 0.54337 0.94084 0.0
H329 H 0.66344 0.53258 0.04011 0.0
H330 H 0.71572 0.55526 0.09179 0.0
H331 H 0.50998 0.5799 0.12946 0.0
H332 H 0.45648 0.55768 0.07786 0.0
H333 H 0.38735 0.36316 0.97416 0.0
H334 H 0.45988 0.41886 0.96663 0.0
H335 H 0.32386 0.48203 0.03116 0.0
H336 H 0.25102 0.42592 0.0391 0.0
H337 H 0.4595 0.48974 0.04804 0.0
H338 H 0.32621 0.50269 0.94819 0.0
H339 H 0.27323 0.47735 0.89758 0.0
H340 H 0.47748 0.44611 0.86226 0.0
H341 H 0.53199 0.47143 0.91267 0.0
C342 C 0.62222 0.64335 0.00391 0.0
C343 C 0.67909 0.64207 0.98198 0.0
C344 C 0.57913 0.61192 0.008 0.0
C345 C 0.59293 0.57842 0.99075 0.0
C346 C 0.65133 0.5766 0.96986 0.0
C347 C 0.69403 0.60815 0.96548 0.0
C348 C 0.54435 0.54598 0.99321 0.0
C349 C 0.51494 0.53135 0.96427 0.0
C350 C 0.52405 0.53086 0.02379 0.0
C351 C 0.55601 0.54375 0.05502 0.0
C352 C 0.62937 0.54302 0.05935 0.0
C353 C 0.65922 0.55575 0.08864 0.0
C354 C 0.61621 0.56909 0.11386 0.0
C355 C 0.54323 0.56958 0.1099 0.0
C356 C 0.51311 0.55685 0.08066 0.0
C357 C 0.37146 0.38915 0.98593 0.0
C358 C 0.31301 0.39025 0.00693 0.0
C359 C 0.41327 0.42098 0.98175 0.0
C360 C 0.39692 0.45465 0.99816 0.0
C361 C 0.3373 0.45625 0.01832 0.0
C362 C 0.29564 0.42428 0.0227 0.0
C363 C 0.44461 0.48739 0.99578 0.0
C364 C 0.47394 0.50197 0.02467 0.0
C365 C 0.46492 0.5024 0.96522 0.0
C366 C 0.4331 0.48895 0.93416 0.0
C367 C 0.35988 0.49056 0.92955 0.0
C368 C 0.32965 0.47622 0.90092 0.0
C369 C 0.37213 0.46023 0.87669 0.0
C370 C 0.44495 0.45878 0.88097 0.0
C371 C 0.47555 0.47325 0.90949 0.0
H372 H 0.34865 0.44889 0.85463 0.0
H373 H 0.63942 0.57899 0.1365 0.0
H374 H 0.58229 0.31255 0.49312 0.0
H375 H 0.49174 0.36067 0.48844 0.0
H376 H 0.61825 0.43698 0.54613 0.0
H377 H 0.7082 0.38802 0.55225 0.0
H378 H 0.48513 0.43685 0.5663 0.0
H379 H 0.5997 0.44236 0.4581 0.0
H380 H 0.63762 0.41179 0.4067 0.0
H381 H 0.42474 0.37851 0.38679 0.0
H382 H 0.38572 0.40869 0.43817 0.0
H383 H 0.3647 0.61871 0.53151 0.0
H384 H 0.42214 0.55856 0.54111 0.0
H385 H 0.27619 0.50416 0.4752 0.0
H386 H 0.21899 0.56492 0.46506 0.0
H387 H 0.40012 0.48451 0.45935 0.0
H388 H 0.27917 0.48841 0.55915 0.0
H389 H 0.23295 0.51121 0.61191 0.0
H390 H 0.44265 0.51731 0.65048 0.0
H391 H 0.49055 0.49658 0.59751 0.0
C392 C 0.59161 0.33979 0.50437 0.0
C393 C 0.65288 0.34669 0.52279 0.0
C394 C 0.53956 0.36728 0.50168 0.0
C395 C 0.54862 0.40263 0.51651 0.0
C396 C 0.61026 0.40985 0.53446 0.0
C397 C 0.66182 0.38203 0.53775 0.0
C398 C 0.49347 0.43201 0.51399 0.0
C399 C 0.46712 0.44783 0.54299 0.0
C400 C 0.46662 0.44429 0.48352 0.0
C401 C 0.48992 0.42759 0.45203 0.0
C402 C 0.56105 0.42853 0.44274 0.0
C403 C 0.58272 0.41125 0.41363 0.0
C404 C 0.53365 0.39316 0.39353 0.0
C405 C 0.4627 0.39253 0.40237 0.0
C406 C 0.44076 0.40979 0.43143 0.0
C407 C 0.34332 0.59382 0.51985 0.0
C408 C 0.28694 0.59654 0.49774 0.0
C409 C 0.37636 0.55931 0.52532 0.0
C410 C 0.35316 0.52663 0.50913 0.0
C411 C 0.29505 0.52898 0.48797 0.0
C412 C 0.26234 0.56367 0.48223 0.0
C413 C 0.39427 0.49118 0.51183 0.0
C414 C 0.41755 0.47378 0.48285 0.0
C415 C 0.41711 0.47694 0.54243 0.0
C416 C 0.3886 0.49114 0.57407 0.0
C417 C 0.31564 0.4953 0.57864 0.0
C418 C 0.28909 0.50793 0.60863 0.0
C419 C 0.33482 0.51591 0.6345 0.0
C420 C 0.40724 0.51141 0.63037 0.0
C421 C 0.43416 0.49939 0.60029 0.0
H422 H 0.31417 0.52552 0.65775 0.0
H423 H 0.55058 0.37965 0.37109 0.0
H424 H 0.24973 0.10593 0.96236 0.0
H425 H 0.17136 0.05146 0.96161 0.0
H426 H 0.01969 0.11313 0.01925 0.0
H427 H 0.09869 0.16741 0.02096 0.0
H428 H 0.02584 0.04029 0.03718 0.0
H429 H 0.00032 0.10775 0.93372 0.0
H430 H 0.04996 0.13732 0.8842 0.0
H431 H 0.14511 0.03208 0.85673 0.0
H432 H 0.09539 0.0018 0.90591 0.0
H433 H 0.73339 0.92955 0.00882 0.0
H434 H 0.807 0.98561 0.00343 0.0
H435 H 0.95674 0.92186 0.94641 0.0
H436 H 0.88286 0.86591 0.95125 0.0
H437 H 0.9528 0.99535 0.92701 0.0
H438 H 0.97664 0.92675 0.02748 0.0
H439 H 0.93398 0.89583 0.07767 0.0
H440 H 0.85234 0.00152 0.11247 0.0
H441 H 0.89363 0.03297 0.06221 0.0
C442 C 0.20022 0.10767 0.97537 0.0
C443 C 0.17998 0.1411 0.99138 0.0
C444 C 0.15529 0.07664 0.9747 0.0
C445 C 0.08888 0.07873 0.9895 0.0
C446 C 0.07048 0.11112 0.00737 0.0
C447 C 0.11579 0.14207 0.0084 0.0
C448 C 0.03742 0.04784 0.9852 0.0
C449 C 0.00907 0.03084 0.01312 0.0
C450 C 0.01711 0.03487 0.95376 0.0
C451 C 0.04419 0.05255 0.92344 0.0
C452 C 0.03155 0.0909 0.917 0.0
C453 C 0.05962 0.10776 0.889 0.0
C454 C 0.10047 0.08654 0.86728 0.0
C455 C 0.11308 0.0484 0.87346 0.0
C456 C 0.08468 0.03133 0.9013 0.0
C457 C 0.78095 0.92778 0.99432 0.0
C458 C 0.80276 0.89326 0.98076 0.0
C459 C 0.82303 0.95977 0.99133 0.0
C460 C 0.88817 0.95754 0.9753 0.0
C461 C 0.90685 0.92411 0.95906 0.0
C462 C 0.86435 0.89216 0.96174 0.0
C463 C 0.94021 0.98827 0.97906 0.0
C464 C 0.96906 0.00503 0.95107 0.0
C465 C 0.96162 0.00083 0.01049 0.0
C466 C 0.93761 0.98213 0.04095 0.0
C467 C 0.94921 0.94334 0.04575 0.0
C468 C 0.92531 0.92572 0.07421 0.0
C469 C 0.89032 0.94667 0.09821 0.0
C470 C 0.87937 0.98532 0.09384 0.0
C471 C 0.90303 0.00306 0.06538 0.0
H472 H 0.87183 0.93298 0.12022 0.0
H473 H 0.12249 0.09962 0.84571 0.0
H474 H 0.90014 0.13358 0.54082 0.0
H475 H 0.97715 0.07876 0.54746 0.0
H476 H 0.84172 0.01365 0.4842 0.0
H477 H 0.7645 0.06824 0.47752 0.0
H478 H 0.88591 0.97299 0.53735 0.0
H479 H 0.99251 0.04788 0.45139 0.0
H480 H 0.05217 0.10003 0.42284 0.0
H481 H 0.20392 0.10759 0.50045 0.0
H482 H 0.14559 0.0551 0.52926 0.0
H483 H 0.11017 0.82623 0.4825 0.0
H484 H 0.03439 0.88195 0.48371 0.0
H485 H 0.18089 0.93789 0.5482 0.0
H486 H 0.25693 0.88229 0.54726 0.0
H487 H 0.13288 0.98364 0.49957 0.0
H488 H 0.04046 0.89938 0.57831 0.0
H489 H 0.99303 0.84019 0.60056 0.0
H490 H 0.81408 0.84885 0.537 0.0
H491 H 0.86204 0.90709 0.51307 0.0
C492 C 0.88583 0.10732 0.529 0.0
C493 C 0.82607 0.10512 0.50878 0.0
C494 C 0.93036 0.07618 0.53247 0.0
C495 C 0.91553 0.04234 0.51597 0.0
C496 C 0.85416 0.03956 0.49706 0.0
C497 C 0.81009 0.07074 0.49329 0.0
C498 C 0.9647 0.01002 0.51752 0.0
C499 C 0.93977 0.97515 0.52885 0.0
C500 C 0.03546 0.01318 0.50733 0.0
C501 C 0.06434 0.04791 0.49258 0.0
C502 C 0.03777 0.06117 0.46265 0.0
C503 C 0.07179 0.09048 0.44627 0.0
C504 C 0.1321 0.10684 0.45973 0.0
C505 C 0.15747 0.09468 0.48999 0.0
C506 C 0.12405 0.06513 0.50632 0.0
C507 C 0.12696 0.85063 0.49646 0.0
C508 C 0.18949 0.84988 0.51488 0.0
C509 C 0.08319 0.88224 0.49741 0.0
C510 C 0.10152 0.91363 0.51657 0.0
C511 C 0.16563 0.91374 0.53353 0.0
C512 C 0.20907 0.88203 0.53287 0.0
C513 C 0.05396 0.94649 0.51888 0.0
C514 C 0.07924 0.98147 0.50842 0.0
C515 C 0.98367 0.94328 0.52991 0.0
C516 C 0.95548 0.90749 0.54353 0.0
C517 C 0.9917 0.88832 0.56854 0.0
C518 C 0.96472 0.85486 0.58144 0.0
C519 C 0.90086 0.84057 0.56999 0.0
C520 C 0.86395 0.85967 0.54554 0.0
C521 C 0.89114 0.89287 0.53222 0.0
H522 H 0.87982 0.81485 0.58023 0.0
H523 H 0.1595 0.12879 0.44663 0.0
H524 H 0.52942 0.30202 0.41039 0.0
H525 H 0.44362 0.30563 0.36612 0.0
H526 H 0.40634 0.18608 0.37385 0.0
H527 H 0.49236 0.182 0.41788 0.0
H528 H 0.47135 0.20864 0.316 0.0
H529 H 0.27115 0.24565 0.38119 0.0
H530 H 0.20967 0.28545 0.42184 0.0
H531 H 0.24129 0.38279 0.36155 0.0
H532 H 0.30412 0.34393 0.32087 0.0
H533 H 0.29006 0.19624 0.16641 0.0
H534 H 0.31735 0.19209 0.2247 0.0
H535 H 0.33232 0.31332 0.23031 0.0
H536 H 0.30353 0.31784 0.1722 0.0
H537 H 0.26702 0.287 0.28338 0.0
H538 H 0.4802 0.26102 0.22628 0.0
H539 H 0.55842 0.23029 0.18611 0.0
H540 H 0.52048 0.12287 0.23103 0.0
H541 H 0.44156 0.15298 0.27134 0.0
C542 C 0.50095 0.27671 0.40366 0.0
C543 C 0.5196 0.24146 0.41689 0.0
C544 C 0.45154 0.2789 0.37837 0.0
C545 C 0.41963 0.24598 0.36636 0.0
C546 C 0.43096 0.21173 0.38262 0.0
C547 C 0.48037 0.20949 0.40779 0.0
C548 C 0.38904 0.24562 0.33304 0.0
C549 C 0.42543 0.22498 0.30906 0.0
C550 C 0.33167 0.26862 0.32377 0.0
C551 C 0.29273 0.29185 0.34803 0.0
C552 C 0.2654 0.27558 0.37669 0.0
C553 C 0.23019 0.29794 0.39971 0.0
C554 C 0.22153 0.33652 0.39424 0.0
C555 C 0.24795 0.35287 0.36573 0.0
C556 C 0.28329 0.33069 0.34267 0.0
C557 C 0.29949 0.22203 0.17996 0.0
C558 C 0.29537 0.25735 0.1645 0.0
C559 C 0.31477 0.21962 0.21333 0.0
C560 C 0.3273 0.2524 0.23181 0.0
C561 C 0.32247 0.28768 0.21657 0.0
C562 C 0.30665 0.29016 0.18325 0.0
C563 C 0.34916 0.24973 0.26657 0.0
C564 C 0.31185 0.27 0.29059 0.0
C565 C 0.40751 0.22751 0.27594 0.0
C566 C 0.45429 0.20917 0.25155 0.0
C567 C 0.48804 0.23079 0.2274 0.0
C568 C 0.53263 0.21351 0.20466 0.0
C569 C 0.54419 0.17463 0.20594 0.0
C570 C 0.51135 0.15297 0.23003 0.0
C571 C 0.46675 0.17013 0.25285 0.0
H572 H 0.57877 0.1613 0.18833 0.0
H573 H 0.19433 0.35375 0.41211 0.0
H574 H 0.47696 0.79887 0.07665 0.0
H575 H 0.38954 0.79191 0.12001 0.0
H576 H 0.49286 0.69007 0.1522 0.0
H577 H 0.57488 0.69467 0.10719 0.0
H578 H 0.37133 0.68416 0.1707 0.0
H579 H 0.53785 0.78953 0.17927 0.0
H580 H 0.59018 0.8492 0.16008 0.0
H581 H 0.38721 0.90233 0.16296 0.0
H582 H 0.33368 0.84279 0.18182 0.0
H583 H 0.39924 0.76547 0.34794 0.0
H584 H 0.42717 0.76837 0.28943 0.0
H585 H 0.23257 0.71115 0.26694 0.0
H586 H 0.20714 0.70612 0.3253 0.0
H587 H 0.37491 0.79952 0.23958 0.0
H588 H 0.24677 0.66001 0.19654 0.0
H589 H 0.21537 0.59756 0.21857 0.0
H590 H 0.37867 0.60716 0.29075 0.0
H591 H 0.41142 0.66951 0.26896 0.0
C592 C 0.479 0.77414 0.09211 0.0
C593 C 0.53361 0.74766 0.08877 0.0
C594 C 0.42952 0.77045 0.11723 0.0
C595 C 0.43634 0.74148 0.14049 0.0
C596 C 0.48645 0.71302 0.13501 0.0
C597 C 0.53387 0.71578 0.10915 0.0
C598 C 0.39924 0.74301 0.17263 0.0
C599 C 0.37156 0.70952 0.18562 0.0
C600 C 0.39964 0.77592 0.19246 0.0
C601 C 0.43181 0.81176 0.18164 0.0
C602 C 0.50449 0.81397 0.17574 0.0
C603 C 0.53429 0.84771 0.16488 0.0
C604 C 0.49199 0.8795 0.1602 0.0
C605 C 0.41985 0.87765 0.1665 0.0
C606 C 0.38975 0.84395 0.17728 0.0
C607 C 0.36296 0.75328 0.33042 0.0
C608 C 0.30198 0.73486 0.34105 0.0
C609 C 0.37854 0.75514 0.29699 0.0
C610 C 0.33254 0.73942 0.27362 0.0
C611 C 0.27 0.7225 0.28434 0.0
C612 C 0.25551 0.71965 0.31773 0.0
C613 C 0.35111 0.74015 0.23824 0.0
C614 C 0.37391 0.77425 0.22455 0.0
C615 C 0.34953 0.70733 0.21834 0.0
C616 C 0.33065 0.66972 0.23148 0.0
C617 C 0.27588 0.64882 0.21714 0.0
C618 C 0.2579 0.61342 0.22956 0.0
C619 C 0.29474 0.59849 0.25616 0.0
C620 C 0.34991 0.61885 0.27027 0.0
C621 C 0.36814 0.65424 0.25792 0.0
H622 H 0.28072 0.5711 0.26575 0.0
H623 H 0.51513 0.90559 0.15176 0.0
H624 H 0.34078 0.60305 0.62482 0.0
H625 H 0.42583 0.58453 0.66664 0.0
H626 H 0.57844 0.66027 0.62514 0.0
H627 H 0.49517 0.678 0.58295 0.0
H628 H 0.64497 0.61289 0.66414 0.0
H629 H 0.44805 0.70405 0.68013 0.0
H630 H 0.32278 0.71944 0.67402 0.0
H631 H 0.26653 0.61818 0.72511 0.0
H632 H 0.39247 0.6029 0.73253 0.0
H633 H 0.64097 0.75936 0.80379 0.0
H634 H 0.59722 0.72703 0.75534 0.0
H635 H 0.70617 0.62561 0.78403 0.0
H636 H 0.75129 0.65807 0.83284 0.0
H637 H 0.51077 0.66767 0.75693 0.0
H638 H 0.73909 0.57692 0.70817 0.0
H639 H 0.86888 0.57711 0.70666 0.0
H640 H 0.86944 0.69802 0.71298 0.0
H641 H 0.73979 0.69852 0.71416 0.0
C642 C 0.39366 0.61425 0.62354 0.0
C643 C 0.41025 0.64336 0.60162 0.0
C644 C 0.44232 0.60369 0.64757 0.0
C645 C 0.50702 0.62265 0.65014 0.0
C646 C 0.52811 0.64611 0.62439 0.0
C647 C 0.48002 0.65641 0.60025 0.0
C648 C 0.54212 0.62726 0.68244 0.0
C649 C 0.61558 0.62375 0.68487 0.0
C650 C 0.50434 0.64265 0.70922 0.0
C651 C 0.42905 0.65235 0.70672 0.0
C652 C 0.4088 0.68531 0.69031 0.0
C653 C 0.33769 0.69399 0.68662 0.0
C654 C 0.28634 0.66976 0.699 0.0
C655 C 0.30628 0.63696 0.71554 0.0
C656 C 0.37753 0.62845 0.71981 0.0
C657 C 0.6563 0.73028 0.79981 0.0
C658 C 0.699 0.71121 0.82246 0.0
C659 C 0.63117 0.71181 0.77205 0.0
C660 C 0.6479 0.67383 0.76626 0.0
C661 C 0.6928 0.65496 0.78803 0.0
C662 C 0.71836 0.67356 0.81592 0.0
C663 C 0.6138 0.65402 0.73849 0.0
C664 C 0.54026 0.65484 0.73706 0.0
C665 C 0.65206 0.63761 0.71239 0.0
C666 C 0.72989 0.63766 0.71179 0.0
C667 C 0.767 0.60351 0.70926 0.0
C668 C 0.8405 0.60351 0.70844 0.0
C669 C 0.87739 0.63754 0.70989 0.0
C670 C 0.84084 0.67167 0.71205 0.0
C671 C 0.76736 0.67181 0.71288 0.0
H672 H 0.93428 0.63749 0.70924 0.0
H673 H 0.23121 0.6765 0.69593 0.0
H674 H 0.51637 0.30819 0.93709 0.0
H675 H 0.61681 0.31965 0.90132 0.0
H676 H 0.47945 0.37463 0.83198 0.0
H677 H 0.38042 0.36509 0.86849 0.0
H678 H 0.62072 0.28165 0.8513 0.0
H679 H 0.55463 0.41594 0.77137 0.0
H680 H 0.53725 0.4842 0.77977 0.0
H681 H 0.64391 0.47782 0.87225 0.0
H682 H 0.66196 0.40954 0.86446 0.0
H683 H 0.62301 0.23755 0.68878 0.0
H684 H 0.59834 0.26201 0.74319 0.0
H685 H 0.76972 0.3409 0.73425 0.0
H686 H 0.79424 0.31688 0.67901 0.0
H687 H 0.66014 0.37444 0.76264 0.0
H688 H 0.79076 0.26511 0.78376 0.0
H689 H 0.83015 0.19911 0.77844 0.0
H690 H 0.62795 0.16043 0.81068 0.0
H691 H 0.58704 0.22616 0.81588 0.0
C692 C 0.50854 0.32454 0.91501 0.0
C693 C 0.44049 0.33502 0.90515 0.0
C694 C 0.56597 0.33097 0.89446 0.0
C695 C 0.55589 0.34721 0.86343 0.0
C696 C 0.4894 0.36225 0.85574 0.0
C697 C 0.43228 0.35663 0.87668 0.0
C698 C 0.60712 0.33969 0.83658 0.0
C699 C 0.63032 0.30233 0.83232 0.0
C700 C 0.62264 0.36662 0.81208 0.0
C701 C 0.60956 0.40751 0.81731 0.0
C702 C 0.57454 0.42908 0.79347 0.0
C703 C 0.56446 0.46779 0.79816 0.0
C704 C 0.58961 0.48535 0.82649 0.0
C705 C 0.62451 0.46419 0.8503 0.0
C706 C 0.63424 0.42542 0.84586 0.0
C707 C 0.65573 0.26005 0.69826 0.0
C708 C 0.71094 0.27504 0.67954 0.0
C709 C 0.6417 0.27395 0.72952 0.0
C710 C 0.68309 0.30278 0.74312 0.0
C711 C 0.7374 0.31848 0.72433 0.0
C712 C 0.7513 0.30469 0.69279 0.0
C713 C 0.66806 0.31618 0.77689 0.0
C714 C 0.65199 0.35437 0.78224 0.0
C715 C 0.66162 0.29039 0.80306 0.0
C716 C 0.68577 0.25064 0.80011 0.0
C717 C 0.75455 0.24253 0.78955 0.0
C718 C 0.77717 0.20516 0.78659 0.0
C719 C 0.73156 0.1756 0.79419 0.0
C720 C 0.66321 0.18336 0.80478 0.0
C721 C 0.64036 0.22068 0.80786 0.0
H722 H 0.74919 0.14668 0.7919 0.0
H723 H 0.58184 0.51532 0.83005 0.0
H724 H 0.06611 0.81511 0.39503 0.0
H725 H 0.00752 0.82385 0.3424 0.0
H726 H 0.94126 0.70769 0.34321 0.0
H727 H -0.00021 0.69838 0.39566 0.0
H728 H 0.05726 0.76664 0.28852 0.0
H729 H 0.81614 0.71437 0.32595 0.0
H730 H 0.71636 0.7174 0.36454 0.0
H731 H 0.7097 0.83792 0.35478 0.0
H732 H 0.80967 0.83546 0.31621 0.0
H733 H 0.88572 0.71828 0.13633 0.0
H734 H 0.93475 0.72001 0.19181 0.0
H735 H 0.84604 0.8307 0.20661 0.0
H736 H 0.79752 0.82953 0.15141 0.0
H737 H 0.80806 0.77842 0.25414 0.0
H738 H 0.01255 0.82407 0.19967 0.0
H739 H 0.11267 0.82593 0.16147 0.0
H740 H 0.19628 0.72482 0.20392 0.0
H741 H 0.09587 0.72172 0.24191 0.0
C742 C 0.03686 0.79173 0.38471 0.0
C743 C 0.03877 0.75584 0.39937 0.0
C744 C 0.00388 0.79677 0.35451 0.0
C745 C 0.97048 0.76636 0.33906 0.0
C746 C 0.96623 0.73155 0.35502 0.0
C747 C -0.00038 0.72637 0.38512 0.0
C748 C 0.94958 0.76946 0.30451 0.0
C749 C 0.00282 0.76887 0.28077 0.0
C750 C 0.87885 0.77317 0.29486 0.0
C751 C 0.82084 0.77478 0.31879 0.0
C752 C 0.79377 0.7415 0.33235 0.0
C753 C 0.73695 0.74309 0.35402 0.0
C754 C 0.70678 0.77784 0.36216 0.0
C755 C 0.73316 0.81104 0.3485 0.0
C756 C 0.78986 0.80956 0.32675 0.0
C757 C 0.87731 0.74314 0.15128 0.0
C758 C 0.83726 0.77362 0.13957 0.0
C759 C 0.90571 0.74416 0.18283 0.0
C760 C 0.89394 0.77551 0.2031 0.0
C761 C 0.85566 0.80632 0.1912 0.0
C762 C 0.82802 0.80554 0.15964 0.0
C763 C 0.91571 0.77485 0.23772 0.0
C764 C 0.86268 0.776 0.26158 0.0
C765 C 0.98693 0.77161 0.24732 0.0
C766 C 0.04579 0.77235 0.22337 0.0
C767 C 0.05148 0.80179 0.2005 0.0
C768 C 0.10855 0.80315 0.17895 0.0
C769 C 0.16071 0.77542 0.1802 0.0
C770 C 0.15576 0.74619 0.20292 0.0
C771 C 0.0987 0.74459 0.22443 0.0
H772 H 0.2051 0.77666 0.16365 0.0
H773 H 0.66301 0.77903 0.37904 0.0
H774 H 0.85474 0.1826 0.35145 0.0
H775 H 0.88892 0.18603 0.29392 0.0
H776 H 0.8147 0.30086 0.28938 0.0
H777 H 0.78078 0.29781 0.34726 0.0
H778 H 0.76662 0.25498 0.23702 0.0
H779 H 0.98031 0.28897 0.28955 0.0
H780 H 0.08098 0.28526 0.32748 0.0
H781 H 0.14322 0.17972 0.28469 0.0
H782 H 0.04215 0.18239 0.24688 0.0
H783 H 0.98129 0.30482 0.09572 0.0
H784 H 0.9039 0.29871 0.14297 0.0
H785 H 0.95644 0.18079 0.15009 0.0
H786 H 0.03326 0.1863 0.10271 0.0
H787 H 0.01105 0.23041 0.20058 0.0
H788 H 0.79517 0.1993 0.14621 0.0
H789 H 0.69741 0.2073 0.10721 0.0
H790 H 0.64366 0.31312 0.15197 0.0
H791 H 0.7418 0.30604 0.191 0.0
C792 C 0.84617 0.20871 0.33831 0.0
C793 C 0.81517 0.23996 0.35387 0.0
C794 C 0.86575 0.21061 0.30547 0.0
C795 C 0.85418 0.24367 0.28747 0.0
C796 C 0.82382 0.27508 0.30292 0.0
C797 C 0.80509 0.27339 0.336 0.0
C798 C 0.87344 0.2449 0.25242 0.0
C799 C 0.8202 0.25012 0.22895 0.0
C800 C 0.94321 0.23804 0.24211 0.0
C801 C 0.00289 0.23565 0.26561 0.0
C802 C 0.01477 0.26467 0.28853 0.0
C803 C 0.0721 0.26282 0.30995 0.0
C804 C 0.11831 0.23221 0.30858 0.0
C805 C 0.10725 0.20337 0.28579 0.0
C806 C 0.04993 0.20503 0.26436 0.0
C807 C 0.97392 0.27712 0.1063 0.0
C808 C 0.01569 0.24636 0.09624 0.0
C809 C 0.92937 0.27371 0.13332 0.0
C810 C 0.92594 0.23952 0.15038 0.0
C811 C 0.95907 0.2075 0.13733 0.0
C812 C 0.00305 0.21077 0.11017 0.0
C813 C 0.90407 0.23954 0.18508 0.0
C814 C 0.95729 0.23498 0.20859 0.0
C815 C 0.83469 0.24759 0.19524 0.0
C816 C 0.7764 0.25229 0.17138 0.0
C817 C 0.76306 0.2245 0.14753 0.0
C818 C 0.70732 0.22878 0.1255 0.0
C819 C 0.66427 0.26067 0.12713 0.0
C820 C 0.67695 0.28838 0.15078 0.0
C821 C 0.73261 0.28423 0.17288 0.0
H822 H 0.62122 0.26396 0.11002 0.0
H823 H 0.16278 0.23091 0.3251 0.0
H824 H 0.16256 0.17472 0.85683 0.0
H825 H 0.12541 0.15175 0.80296 0.0
H826 H 0.26461 0.23166 0.75671 0.0
H827 H 0.2984 0.256 0.81077 0.0
H828 H 0.14557 0.23667 0.72989 0.0
H829 H 0.29091 0.13144 0.75369 0.0
H830 H 0.33928 0.07976 0.78712 0.0
H831 H 0.1369 0.02657 0.78939 0.0
H832 H 0.08675 0.07817 0.7564 0.0
H833 H 0.00663 0.18998 0.58283 0.0
H834 H 0.1049 0.18002 0.62043 0.0
H835 H 0.96618 0.12307 0.68752 0.0
H836 H 0.86864 0.1315 0.64941 0.0
H837 H 0.10804 0.10314 0.69753 0.0
H838 H 0.96349 0.21873 0.68847 0.0
H839 H 0.91306 0.26941 0.65439 0.0
H840 H 0.1203 0.30144 0.6234 0.0
H841 H 0.17179 0.25082 0.65728 0.0
C842 C 0.18598 0.18675 0.83507 0.0
C843 C 0.23336 0.21684 0.8376 0.0
C844 C 0.16531 0.17345 0.8043 0.0
C845 C 0.19306 0.18945 0.7756 0.0
C846 C 0.24259 0.21872 0.77839 0.0
C847 C 0.26208 0.23254 0.80917 0.0
C848 C 0.16453 0.17859 0.74295 0.0
C849 C 0.13951 0.20743 0.72254 0.0
C850 C 0.15508 0.14044 0.73333 0.0
C851 C 0.18501 0.10884 0.75265 0.0
C852 C 0.25656 0.10881 0.76144 0.0
C853 C 0.28427 0.07951 0.78032 0.0
C854 C 0.24106 0.04992 0.79041 0.0
C855 C 0.17015 0.0495 0.78153 0.0
C856 C 0.14208 0.07874 0.76269 0.0
C857 C -0.00194 0.17353 0.60479 0.0
C858 C 0.92987 0.16232 0.61368 0.0
C859 C 0.05421 0.16787 0.62629 0.0
C860 C 0.04213 0.15206 0.65728 0.0
C861 C 0.97652 0.13567 0.66387 0.0
C862 C 0.92064 0.14056 0.64203 0.0
C863 C 0.08954 0.16122 0.68504 0.0
C864 C 0.11688 0.13225 0.70463 0.0
C865 C 0.10179 0.19925 0.69402 0.0
C866 C 0.07135 0.23106 0.67528 0.0
C867 C -0.00179 0.23676 0.67451 0.0
C868 C 0.96946 0.26539 0.65519 0.0
C869 C 0.01345 0.28862 0.63673 0.0
C870 C 0.08631 0.28348 0.63777 0.0
C871 C 0.11532 0.25489 0.65708 0.0
H872 H 0.99108 0.31059 0.62159 0.0
H873 H 0.26253 0.0273 0.80509 0.0
H874 H 0.2953 0.8102 0.66532 0.0
H875 H 0.26662 0.83766 0.71887 0.0
H876 H 0.08901 0.7627 0.72679 0.0
H877 H 0.11758 0.73477 0.67412 0.0
H878 H 0.14405 0.87347 0.74177 0.0
H879 H 0.07568 0.72853 0.79547 0.0
H880 H 0.11798 0.66278 0.79288 0.0
H881 H 0.32668 0.70171 0.77157 0.0
H882 H 0.2855 0.76771 0.77387 0.0
H883 H 0.85505 0.85696 0.84203 0.0
H884 H 0.95495 0.86728 0.80632 0.0
H885 H 0.09524 0.82783 0.88218 0.0
H886 H 0.99382 0.81516 0.9172 0.0
H887 H 0.10872 0.78533 0.83435 0.0
H888 H 0.1092 0.91731 0.84169 0.0
H889 H 0.05631 0.98049 0.84502 0.0
H890 H 0.98337 0.97075 0.74598 0.0
H891 H 0.03234 0.9066 0.74245 0.0
C892 C 0.25018 0.79956 0.67853 0.0
C893 C 0.20895 0.7701 0.66554 0.0
C894 C 0.23393 0.81534 0.70903 0.0
C895 C 0.17648 0.80177 0.7269 0.0
C896 C 0.13452 0.77302 0.71363 0.0
C897 C 0.15083 0.75715 0.68343 0.0
C898 C 0.15888 0.81701 0.75956 0.0
C899 C 0.1371 0.85468 0.76241 0.0
C900 C 0.15252 0.79261 0.7866 0.0
C901 C 0.17764 0.75301 0.78512 0.0
C902 C 0.13062 0.72304 0.79034 0.0
C903 C 0.1543 0.68575 0.78875 0.0
C904 C 0.225 0.6781 0.78223 0.0
C905 C 0.27198 0.70771 0.77677 0.0
C906 C 0.24845 0.74505 0.77806 0.0
C907 C 0.90745 0.85229 0.85165 0.0
C908 C 0.91707 0.83469 0.88197 0.0
C909 C 0.96499 0.85837 0.83122 0.0
C910 C 0.03309 0.84807 0.84134 0.0
C911 C 0.04328 0.83564 0.87364 0.0
C912 C 0.98547 0.82852 0.8937 0.0
C913 C 0.08839 0.84158 0.81627 0.0
C914 C 0.11772 0.80521 0.81466 0.0
C915 C 0.10146 0.86743 0.79054 0.0
C916 C 0.07474 0.90689 0.79183 0.0
C917 C 0.08168 0.92848 0.82061 0.0
C918 C 0.05212 0.9645 0.82257 0.0
C919 C 0.01672 0.97972 0.79572 0.0
C920 C 0.01083 0.95893 0.76678 0.0
C921 C 0.03941 0.92264 0.7648 0.0
H922 H 0.99407 0.00768 0.79732 0.0
H923 H 0.24338 0.64923 0.7815 0.0
loop_
_geom_bond_atom_site_label_1
_geom_bond_atom_site_label_2
_geom_bond_distance
_geom_bond_site_symmetry_2
_ccdc_geom_bond_type
C0 O27 1.312 1_554 S
C0 O28 1.208 . S
C1 O22 1.331 . S
C1 O25 1.244 . S
C2 O24 1.264 . S
C2 O26 1.273 . S
Mg3 O5 1.936 . S
Mg3 O12 2.081 . S
Mg3 O14 2.023 . S
Mg3 O18 2.031 . S
Mg3 O27 2.291 . S
Mg4 O5 1.963 . S
Mg4 O15 1.942 . S
Mg4 O16 1.955 . S
Mg4 O23 1.986 . S
O5 Mg3 1.936 . S
O5 Mg4 1.963 . S
O5 Mg6 1.915 1_556 S
Mg6 O5 1.915 1_554 S
Mg6 O7 1.915 . S
Mg6 O11 2.013 1_554 S
Mg6 O17 2.114 . S
Mg6 O21 2.013 . S
Mg6 O27 2.114 1_554 S
O7 Mg6 1.915 . S
O7 Mg8 1.936 . S
O7 Mg9 1.963 . S
Mg8 O7 1.936 . S
Mg8 O17 2.291 . S
Mg8 O22 2.081 . S
Mg8 O24 2.023 . S
Mg8 O28 2.031 . S
Mg9 O7 1.963 . S
Mg9 O13 1.986 . S
Mg9 O25 1.942 . S
Mg9 O26 1.955 . S
C10 O21 1.191 1_556 S
C10 O23 1.307 . S
O11 Mg6 2.013 1_556 S
O11 C30 1.191 1_556 S
O12 Mg3 2.081 . S
O12 C20 1.331 . S
O13 Mg9 1.986 . S
O13 C30 1.307 . S
O14 Mg3 2.023 . S
O14 C29 1.264 . S
O15 Mg4 1.942 . S
O15 C20 1.244 . S
O16 Mg4 1.955 . S
O16 C29 1.273 . S
O17 Mg6 2.114 . S
O17 Mg8 2.291 . S
O17 C19 1.312 1_554 S
O18 Mg3 2.031 . S
O18 C19 1.208 . S
C19 O17 1.312 1_556 S
C19 O18 1.208 . S
C20 O12 1.331 . S
C20 O15 1.244 . S
O21 Mg6 2.013 . S
O21 C10 1.191 1_554 S
O22 C1 1.331 . S
O22 Mg8 2.081 . S
O23 Mg4 1.986 . S
O23 C10 1.307 . S
O24 C2 1.264 . S
O24 Mg8 2.023 . S
O25 C1 1.244 . S
O25 Mg9 1.942 . S
O26 C2 1.273 . S
O26 Mg9 1.955 . S
O27 C0 1.312 1_556 S
O27 Mg3 2.291 . S
O27 Mg6 2.114 1_556 S
O28 C0 1.208 . S
O28 Mg8 2.031 . S
C29 O14 1.264 . S
C29 O16 1.273 . S
C30 O11 1.191 1_554 S
C30 O13 1.307 . S
C31 O58 1.312 1_554 S
C31 O59 1.208 . S
C32 O53 1.331 . S
C32 O56 1.244 . S
C33 O55 1.264 . S
C33 O57 1.273 . S
Mg34 O36 1.936 . S
Mg34 O43 2.081 . S
Mg34 O45 2.023 . S
Mg34 O49 2.031 . S
Mg34 O58 2.291 . S
Mg35 O36 1.963 . S
Mg35 O46 1.942 . S
Mg35 O47 1.955 . S
Mg35 O54 1.986 . S
O36 Mg34 1.936 . S
O36 Mg35 1.963 . S
O36 Mg37 1.915 1_556 S
Mg37 O36 1.915 1_554 S
Mg37 O38 1.915 . S
Mg37 O42 2.013 1_554 S
Mg37 O48 2.114 . S
Mg37 O52 2.013 . S
Mg37 O58 2.114 1_554 S
O38 Mg37 1.915 . S
O38 Mg39 1.936 . S
O38 Mg40 1.963 . S
Mg39 O38 1.936 . S
Mg39 O48 2.291 . S
Mg39 O53 2.081 . S
Mg39 O55 2.023 . S
Mg39 O59 2.031 . S
Mg40 O38 1.963 . S
Mg40 O44 1.986 . S
Mg40 O56 1.942 . S
Mg40 O57 1.955 . S
C41 O52 1.191 1_556 S
C41 O54 1.307 . S
O42 Mg37 2.013 1_556 S
O42 C61 1.191 1_556 S
O43 Mg34 2.081 . S
O43 C51 1.331 . S
O44 Mg40 1.986 . S
O44 C61 1.307 . S
O45 Mg34 2.023 . S
O45 C60 1.264 . S
O46 Mg35 1.942 . S
O46 C51 1.244 . S
O47 Mg35 1.955 . S
O47 C60 1.273 . S
O48 Mg37 2.114 . S
O48 Mg39 2.291 . S
O48 C50 1.312 1_554 S
O49 Mg34 2.031 . S
O49 C50 1.208 . S
C50 O48 1.312 1_556 S
C50 O49 1.208 . S
C51 O43 1.331 . S
C51 O46 1.244 . S
O52 Mg37 2.013 . S
O52 C41 1.191 1_554 S
O53 C32 1.331 . S
O53 Mg39 2.081 . S
O54 Mg35 1.986 . S
O54 C41 1.307 . S
O55 C33 1.264 . S
O55 Mg39 2.023 . S
O56 C32 1.244 . S
O56 Mg40 1.942 . S
O57 C33 1.273 . S
O57 Mg40 1.955 . S
O58 C31 1.312 1_556 S
O58 Mg34 2.291 . S
O58 Mg37 2.114 1_556 S
O59 C31 1.208 . S
O59 Mg39 2.031 . S
C60 O45 1.264 . S
C60 O47 1.273 . S
C61 O42 1.191 1_554 S
C61 O44 1.307 . S
C62 O89 1.312 . S
C62 O90 1.208 . S
C63 O84 1.331 . S
C63 O87 1.244 . S
C64 O86 1.264 . S
C64 O88 1.273 . S
Mg65 O67 1.936 . S
Mg65 O74 2.081 . S
Mg65 O76 2.023 . S
Mg65 O80 2.031 . S
Mg65 O89 2.291 . S
Mg66 O67 1.963 . S
Mg66 O77 1.942 . S
Mg66 O78 1.955 . S
Mg66 O85 1.986 . S
O67 Mg65 1.936 . S
O67 Mg66 1.963 . S
O67 Mg68 1.915 . S
Mg68 O67 1.915 . S
Mg68 O69 1.915 . S
Mg68 O73 2.013 . S
Mg68 O79 2.114 . S
Mg68 O83 2.013 . S
Mg68 O89 2.114 . S
O69 Mg68 1.915 . S
O69 Mg70 1.936 . S
O69 Mg71 1.963 . S
Mg70 O69 1.936 . S
Mg70 O79 2.291 . S
Mg70 O84 2.081 . S
Mg70 O86 2.023 . S
Mg70 O90 2.031 . S
Mg71 O69 1.963 . S
Mg71 O75 1.986 . S
Mg71 O87 1.942 . S
Mg71 O88 1.955 . S
C72 O83 1.191 . S
C72 O85 1.307 . S
O73 Mg68 2.013 . S
O73 C92 1.191 . S
O74 Mg65 2.081 . S
O74 C82 1.331 . S
O75 Mg71 1.986 . S
O75 C92 1.307 . S
O76 Mg65 2.023 . S
O76 C91 1.264 . S
O77 Mg66 1.942 . S
O77 C82 1.244 . S
O78 Mg66 1.955 . S
O78 C91 1.273 . S
O79 Mg68 2.114 . S
O79 Mg70 2.291 . S
O79 C81 1.312 . S
O80 Mg65 2.031 . S
O80 C81 1.208 . S
C81 O79 1.312 . S
C81 O80 1.208 . S
C82 O74 1.331 . S
C82 O77 1.244 . S
O83 Mg68 2.013 . S
O83 C72 1.191 . S
O84 C63 1.331 . S
O84 Mg70 2.081 . S
O85 Mg66 1.986 . S
O85 C72 1.307 . S
O86 C64 1.264 . S
O86 Mg70 2.023 . S
O87 C63 1.244 . S
O87 Mg71 1.942 . S
O88 C64 1.273 . S
O88 Mg71 1.955 . S
O89 C62 1.312 . S
O89 Mg65 2.291 . S
O89 Mg68 2.114 . S
O90 C62 1.208 . S
O90 Mg70 2.031 . S
C91 O76 1.264 . S
C91 O78 1.273 . S
C92 O73 1.191 . S
C92 O75 1.307 . S
C93 O120 1.312 . S
C93 O121 1.208 . S
C94 O115 1.331 . S
C94 O118 1.244 . S
C95 O117 1.264 . S
C95 O119 1.273 . S
Mg96 O98 1.936 . S
Mg96 O105 2.081 . S
Mg96 O107 2.023 . S
Mg96 O111 2.031 . S
Mg96 O120 2.291 . S
Mg97 O98 1.963 . S
Mg97 O108 1.942 . S
Mg97 O109 1.955 . S
Mg97 O116 1.986 . S
O98 Mg96 1.936 . S
O98 Mg97 1.963 . S
O98 Mg99 1.915 . S
Mg99 O98 1.915 . S
Mg99 O100 1.915 . S
Mg99 O104 2.013 . S
Mg99 O110 2.114 . S
Mg99 O114 2.013 . S
Mg99 O120 2.114 . S
O100 Mg99 1.915 . S
O100 Mg101 1.936 . S
O100 Mg102 1.963 . S
Mg101 O100 1.936 . S
Mg101 O110 2.291 . S
Mg101 O115 2.081 . S
Mg101 O117 2.023 . S
Mg101 O121 2.031 . S
Mg102 O100 1.963 . S
Mg102 O106 1.986 . S
Mg102 O118 1.942 . S
Mg102 O119 1.955 . S
C103 O114 1.191 . S
C103 O116 1.307 . S
O104 Mg99 2.013 . S
O104 C123 1.191 . S
O105 Mg96 2.081 . S
O105 C113 1.331 . S
O106 Mg102 1.986 . S
O106 C123 1.307 . S
O107 Mg96 2.023 . S
O107 C122 1.264 . S
O108 Mg97 1.942 . S
O108 C113 1.244 . S
O109 Mg97 1.955 . S
O109 C122 1.273 . S
O110 Mg99 2.114 . S
O110 Mg101 2.291 . S
O110 C112 1.312 . S
O111 Mg96 2.031 . S
O111 C112 1.208 . S
C112 O110 1.312 . S
C112 O111 1.208 . S
C113 O105 1.331 . S
C113 O108 1.244 . S
O114 Mg99 2.013 . S
O114 C103 1.191 . S
O115 C94 1.331 . S
O115 Mg101 2.081 . S
O116 Mg97 1.986 . S
O116 C103 1.307 . S
O117 C95 1.264 . S
O117 Mg101 2.023 . S
O118 C94 1.244 . S
O118 Mg102 1.942 . S
O119 C95 1.273 . S
O119 Mg102 1.955 . S
O120 C93 1.312 . S
O120 Mg96 2.291 . S
O120 Mg99 2.114 . S
O121 C93 1.208 . S
O121 Mg101 2.031 . S
C122 O107 1.264 . S
C122 O109 1.273 . S
C123 O104 1.191 . S
C123 O106 1.307 . S
H124 C142 0.951 . S
H125 C144 0.951 . S
H126 C146 0.950 . S
H127 C147 0.950 . S
H128 C149 0.950 . S
H129 C152 0.950 . S
H130 C153 0.950 . S
H131 C155 0.950 . S
H132 C156 0.950 . S
H133 C157 0.951 1_455 S
H134 C159 0.951 . S
H135 C161 0.950 . S
H136 C162 0.950 . S
H137 C164 0.950 . S
H138 C167 0.950 . S
H139 C168 0.950 . S
H140 C170 0.950 . S
H141 C171 0.950 . S
C142 H124 0.951 . S
C142 C143 1.343 1_556 S
C142 C144 1.388 . S
C143 C142 1.343 1_554 S
C143 C147 1.409 . S
C144 H125 0.951 . S
C144 C142 1.388 . S
C144 C145 1.366 1_556 S
C145 C144 1.366 1_554 S
C145 C146 1.414 . S
C145 C148 1.499 . S
C146 H126 0.950 . S
C146 C145 1.414 . S
C146 C147 1.374 . S
C147 H127 0.950 . S
C147 C143 1.409 . S
C147 C146 1.374 . S
C148 C145 1.499 . S
C148 C149 1.373 . S
C148 C150 1.388 1_554 S
C149 H128 0.950 . S
C149 C148 1.373 . S
C149 C165 1.377 . S
C150 C148 1.388 1_556 S
C150 C151 1.524 1_556 S
C150 C164 1.377 . S
C151 C150 1.524 1_554 S
C151 C152 1.411 . S
C151 C156 1.350 1_554 S
C152 H129 0.950 . S
C152 C151 1.411 . S
C152 C153 1.334 . S
C153 H130 0.950 . S
C153 C152 1.334 . S
C153 C154 1.287 . S
C154 C153 1.287 . S
C154 C155 1.524 1_554 S
C154 H173 0.913 . S
C155 H131 0.950 . S
C155 C154 1.524 1_556 S
C155 C156 1.415 . S
C156 H132 0.950 . S
C156 C151 1.350 1_556 S
C156 C155 1.415 . S
C157 H133 0.951 1_655 S
C157 C158 1.386 1_655 S
C157 C159 1.388 . S
C158 C157 1.386 1_455 S
C158 C162 1.364 1_554 S
C159 H134 0.951 . S
C159 C157 1.388 . S
C159 C160 1.360 1_554 S
C160 C159 1.360 1_556 S
C160 C161 1.419 . S
C160 C163 1.499 . S
C161 H135 0.950 . S
C161 C160 1.419 . S
C161 C162 1.374 1_655 S
C162 H136 0.950 . S
C162 C158 1.364 1_556 S
C162 C161 1.374 1_455 S
C163 C160 1.499 . S
C163 C164 1.373 . S
C163 C165 1.389 1_556 S
C164 H137 0.950 . S
C164 C150 1.377 . S
C164 C163 1.373 . S
C165 C149 1.377 . S
C165 C163 1.389 1_554 S
C165 C166 1.524 . S
C166 C165 1.524 . S
C166 C167 1.397 1_554 S
C166 C171 1.363 . S
C167 H138 0.950 . S
C167 C166 1.397 1_556 S
C167 C168 1.334 . S
C168 H139 0.950 . S
C168 C167 1.334 . S
C168 C169 1.287 . S
C169 C168 1.287 . S
C169 C170 1.524 1_556 S
C169 H172 0.999 . S
C170 H140 0.950 . S
C170 C169 1.524 1_554 S
C170 C171 1.415 . S
C171 H141 0.950 . S
C171 C166 1.363 . S
C171 C170 1.415 . S
H172 C169 0.999 . S
H173 C154 0.913 . S
H174 C192 0.951 . S
H175 C194 0.951 . S
H176 C196 0.950 . S
H177 C197 0.950 . S
H178 C199 0.950 . S
H179 C202 0.950 . S
H180 C203 0.950 . S
H181 C205 0.950 . S
H182 C206 0.950 . S
H183 C207 0.951 . S
H184 C209 0.951 . S
H185 C211 0.950 . S
H186 C212 0.950 . S
H187 C214 0.950 . S
H188 C217 0.950 . S
H189 C218 0.950 . S
H190 C220 0.950 . S
H191 C221 0.950 . S
C192 H174 0.951 . S
C192 C193 1.335 1_556 S
C192 C194 1.388 1_655 S
C193 C192 1.335 1_554 S
C193 C197 1.415 . S
C194 H175 0.951 . S
C194 C192 1.388 1_455 S
C194 C195 1.341 1_556 S
C195 C194 1.341 1_554 S
C195 C196 1.439 . S
C195 C198 1.500 . S
C196 H176 0.950 . S
C196 C195 1.439 . S
C196 C197 1.374 1_455 S
C197 H177 0.950 . S
C197 C193 1.415 . S
C197 C196 1.374 1_655 S
C198 C195 1.500 . S
C198 C199 1.373 . S
C198 C200 1.389 1_554 S
C199 H178 0.950 . S
C199 C198 1.373 . S
C199 C215 1.377 . S
C200 C198 1.389 1_556 S
C200 C201 1.524 . S
C200 C214 1.377 . S
C201 C200 1.524 . S
C201 C202 1.397 . S
C201 C206 1.363 . S
C202 H179 0.950 . S
C202 C201 1.397 . S
C202 C203 1.334 . S
C203 H180 0.950 . S
C203 C202 1.334 . S
C203 C204 1.287 . S
C204 C203 1.287 . S
C204 C205 1.524 . S
C204 H223 0.913 . S
C205 H181 0.950 . S
C205 C204 1.524 . S
C205 C206 1.415 . S
C206 H182 0.950 . S
C206 C201 1.363 . S
C206 C205 1.415 . S
C207 H183 0.951 . S
C207 C208 1.389 . S
C207 C209 1.388 . S
C208 C207 1.389 . S
C208 C212 1.361 1_554 S
C209 H184 0.951 . S
C209 C207 1.388 . S
C209 C210 1.395 . S
C210 C209 1.395 . S
C210 C211 1.385 1_554 S
C210 C213 1.498 1_554 S
C211 H185 0.950 . S
C211 C210 1.385 1_556 S
C211 C212 1.374 . S
C212 H186 0.950 . S
C212 C208 1.361 1_556 S
C212 C211 1.374 . S
C213 C210 1.498 1_556 S
C213 C214 1.371 . S
C213 C215 1.392 1_556 S
C214 H187 0.950 . S
C214 C200 1.377 . S
C214 C213 1.371 . S
C215 C199 1.377 . S
C215 C213 1.392 1_554 S
C215 C216 1.524 . S
C216 C215 1.524 . S
C216 C217 1.397 . S
C216 C221 1.363 . S
C217 H188 0.950 . S
C217 C216 1.397 . S
C217 C218 1.334 . S
C218 H189 0.950 . S
C218 C217 1.334 . S
C218 C219 1.287 . S
C219 C218 1.287 . S
C219 C220 1.524 . S
C219 H222 0.999 . S
C220 H190 0.950 . S
C220 C219 1.524 . S
C220 C221 1.415 . S
C221 H191 0.950 . S
C221 C216 1.363 . S
C221 C220 1.415 . S
H222 C219 0.999 . S
H223 C204 0.913 . S
H224 C242 0.951 . S
H225 C244 0.951 . S
H226 C246 0.950 . S
H227 C247 0.950 . S
H228 C249 0.950 . S
H229 C252 0.950 . S
H230 C253 0.950 . S
H231 C255 0.950 . S
H232 C256 0.950 . S
H233 C257 0.951 . S
H234 C259 0.951 . S
H235 C261 0.950 . S
H236 C262 0.950 1_455 S
H237 C264 0.950 . S
H238 C267 0.950 . S
H239 C268 0.950 . S
H240 C270 0.950 . S
H241 C271 0.950 . S
C242 H224 0.951 . S
C242 C243 1.366 . S
C242 C244 1.388 . S
C243 C242 1.366 . S
C243 C247 1.385 . S
C244 H225 0.951 . S
C244 C242 1.388 . S
C244 C245 1.366 . S
C245 C244 1.366 . S
C245 C246 1.414 . S
C245 C248 1.499 . S
C246 H226 0.950 . S
C246 C245 1.414 . S
C246 C247 1.374 . S
C247 H227 0.950 . S
C247 C243 1.385 . S
C247 C246 1.374 . S
C248 C245 1.499 . S
C248 C249 1.373 . S
C248 C250 1.389 . S
C249 H228 0.950 . S
C249 C248 1.373 . S
C249 C265 1.377 . S
C250 C248 1.389 . S
C250 C251 1.524 . S
C250 C264 1.377 . S
C251 C250 1.524 . S
C251 C252 1.397 . S
C251 C256 1.363 . S
C252 H229 0.950 . S
C252 C251 1.397 . S
C252 C253 1.334 . S
C253 H230 0.950 . S
C253 C252 1.334 . S
C253 C254 1.287 . S
C254 C253 1.287 . S
C254 C255 1.524 . S
C254 H273 0.913 . S
C255 H231 0.950 . S
C255 C254 1.524 . S
C255 C256 1.415 . S
C256 H232 0.950 . S
C256 C251 1.363 . S
C256 C255 1.415 . S
C257 H233 0.951 . S
C257 C258 1.366 . S
C257 C259 1.388 1_455 S
C258 C257 1.366 . S
C258 C262 1.385 1_455 S
C259 H234 0.951 . S
C259 C257 1.388 1_655 S
C259 C260 1.366 . S
C260 C259 1.366 . S
C260 C261 1.414 . S
C260 C263 1.499 . S
C261 H235 0.950 . S
C261 C260 1.414 . S
C261 C262 1.374 . S
C262 H236 0.950 1_655 S
C262 C258 1.385 1_655 S
C262 C261 1.374 . S
C263 C260 1.499 . S
C263 C264 1.373 . S
C263 C265 1.389 . S
C264 H237 0.950 . S
C264 C250 1.377 . S
C264 C263 1.373 . S
C265 C249 1.377 . S
C265 C263 1.389 . S
C265 C266 1.524 . S
C266 C265 1.524 . S
C266 C267 1.397 . S
C266 C271 1.363 . S
C267 H238 0.950 . S
C267 C266 1.397 . S
C267 C268 1.334 . S
C268 H239 0.950 . S
C268 C267 1.334 . S
C268 C269 1.287 . S
C269 C268 1.287 . S
C269 C270 1.524 . S
C269 H272 0.999 . S
C270 H240 0.950 . S
C270 C269 1.524 . S
C270 C271 1.415 . S
C271 H241 0.950 . S
C271 C266 1.363 . S
C271 C270 1.415 . S
H272 C269 0.999 . S
H273 C254 0.913 . S
H274 C292 0.952 . S
H275 C294 0.951 . S
H276 C296 0.950 . S
H277 C297 0.950 . S
H278 C299 0.950 . S
H279 C302 0.950 . S
H280 C303 0.950 . S
H281 C305 0.950 . S
H282 C306 0.950 . S
H283 C307 0.951 . S
H284 C309 0.951 . S
H285 C311 0.950 . S
H286 C312 0.950 . S
H287 C314 0.950 . S
H288 C317 0.950 . S
H289 C318 0.950 . S
H290 C320 0.950 . S
H291 C321 0.950 . S
C292 H274 0.952 . S
C292 C293 1.369 . S
C292 C294 1.383 1_655 S
C293 C292 1.369 . S
C293 C297 1.385 . S
C294 H275 0.951 . S
C294 C292 1.383 1_455 S
C294 C295 1.366 . S
C295 C294 1.366 . S
C295 C296 1.414 . S
C295 C298 1.499 . S
C296 H276 0.950 . S
C296 C295 1.414 . S
C296 C297 1.374 1_455 S
C297 H277 0.950 . S
C297 C293 1.385 . S
C297 C296 1.374 1_655 S
C298 C295 1.499 . S
C298 C299 1.373 . S
C298 C300 1.389 . S
C299 H278 0.950 . S
C299 C298 1.373 . S
C299 C315 1.377 . S
C300 C298 1.389 . S
C300 C301 1.524 . S
C300 C314 1.377 . S
C301 C300 1.524 . S
C301 C302 1.397 . S
C301 C306 1.363 . S
C302 H279 0.950 . S
C302 C301 1.397 . S
C302 C303 1.334 . S
C303 H280 0.950 . S
C303 C302 1.334 . S
C303 C304 1.287 . S
C304 C303 1.287 . S
C304 C305 1.524 . S
C304 H323 0.913 . S
C305 H281 0.950 . S
C305 C304 1.524 . S
C305 C306 1.415 . S
C306 H282 0.950 . S
C306 C301 1.363 . S
C306 C305 1.415 . S
C307 H283 0.951 . S
C307 C308 1.366 . S
C307 C309 1.388 . S
C308 C307 1.366 . S
C308 C312 1.385 . S
C309 H284 0.951 . S
C309 C307 1.388 . S
C309 C310 1.366 . S
C310 C309 1.366 . S
C310 C311 1.414 . S
C310 C313 1.499 . S
C311 H285 0.950 . S
C311 C310 1.414 . S
C311 C312 1.374 . S
C312 H286 0.950 . S
C312 C308 1.385 . S
C312 C311 1.374 . S
C313 C310 1.499 . S
C313 C314 1.373 . S
C313 C315 1.389 . S
C314 H287 0.950 . S
C314 C300 1.377 . S
C314 C313 1.373 . S
C315 C299 1.377 . S
C315 C313 1.389 . S
C315 C316 1.524 . S
C316 C315 1.524 . S
C316 C317 1.397 . S
C316 C321 1.363 . S
C317 H288 0.950 . S
C317 C316 1.397 . S
C317 C318 1.334 . S
C318 H289 0.950 . S
C318 C317 1.334 . S
C318 C319 1.287 . S
C319 C318 1.287 . S
C319 C320 1.524 . S
C319 H322 0.999 . S
C320 H290 0.950 . S
C320 C319 1.524 . S
C320 C321 1.415 . S
C321 H291 0.950 . S
C321 C316 1.363 . S
C321 C320 1.415 . S
H322 C319 0.999 . S
H323 C304 0.913 . S
H324 C342 0.951 . S
H325 C344 0.951 . S
H326 C346 0.950 . S
H327 C347 0.950 . S
H328 C349 0.950 . S
H329 C352 0.950 . S
H330 C353 0.950 . S
H331 C355 0.950 . S
H332 C356 0.950 . S
H333 C357 0.951 . S
H334 C359 0.951 . S
H335 C361 0.950 . S
H336 C362 0.950 . S
H337 C364 0.950 . S
H338 C367 0.950 . S
H339 C368 0.950 . S
H340 C370 0.950 . S
H341 C371 0.950 . S
C342 H324 0.951 . S
C342 C343 1.366 . S
C342 C344 1.388 . S
C343 C342 1.366 . S
C343 C347 1.385 1_554 S
C344 H325 0.951 . S
C344 C342 1.388 . S
C344 C345 1.366 . S
C345 C344 1.366 . S
C345 C346 1.414 1_554 S
C345 C348 1.499 . S
C346 H326 0.950 . S
C346 C345 1.414 1_556 S
C346 C347 1.374 . S
C347 H327 0.950 . S
C347 C343 1.385 1_556 S
C347 C346 1.374 . S
C348 C345 1.499 . S
C348 C349 1.373 1_554 S
C348 C350 1.389 . S
C349 H328 0.950 . S
C349 C348 1.373 1_556 S
C349 C365 1.377 . S
C350 C348 1.389 . S
C350 C351 1.524 . S
C350 C364 1.377 . S
C351 C350 1.524 . S
C351 C352 1.397 . S
C351 C356 1.363 . S
C352 H329 0.950 . S
C352 C351 1.397 . S
C352 C353 1.334 . S
C353 H330 0.950 . S
C353 C352 1.334 . S
C353 C354 1.287 . S
C354 C353 1.287 . S
C354 C355 1.524 . S
C354 H373 0.913 . S
C355 H331 0.950 . S
C355 C354 1.524 . S
C355 C356 1.415 . S
C356 H332 0.950 . S
C356 C351 1.363 . S
C356 C355 1.415 . S
C357 H333 0.951 . S
C357 C358 1.366 1_556 S
C357 C359 1.388 . S
C358 C357 1.366 1_554 S
C358 C362 1.385 . S
C359 H334 0.951 . S
C359 C357 1.388 . S
C359 C360 1.366 1_556 S
C360 C359 1.366 1_554 S
C360 C361 1.414 . S
C360 C363 1.499 . S
C361 H335 0.950 . S
C361 C360 1.414 . S
C361 C362 1.374 . S
C362 H336 0.950 . S
C362 C358 1.385 . S
C362 C361 1.374 . S
C363 C360 1.499 . S
C363 C364 1.373 . S
C363 C365 1.389 1_554 S
C364 H337 0.950 . S
C364 C350 1.377 . S
C364 C363 1.373 . S
C365 C349 1.377 . S
C365 C363 1.389 1_556 S
C365 C366 1.524 . S
C366 C365 1.524 . S
C366 C367 1.397 . S
C366 C371 1.363 . S
C367 H338 0.950 . S
C367 C366 1.397 . S
C367 C368 1.334 . S
C368 H339 0.950 . S
C368 C367 1.334 . S
C368 C369 1.287 . S
C369 C368 1.287 . S
C369 C370 1.524 . S
C369 H372 0.999 . S
C370 H340 0.950 . S
C370 C369 1.524 . S
C370 C371 1.415 . S
C371 H341 0.950 . S
C371 C366 1.363 . S
C371 C370 1.415 . S
H372 C369 0.999 . S
H373 C354 0.913 . S
H374 C392 0.951 . S
H375 C394 0.951 . S
H376 C396 0.950 . S
H377 C397 0.950 . S
H378 C399 0.950 . S
H379 C402 0.950 . S
H380 C403 0.950 . S
H381 C405 0.950 . S
H382 C406 0.950 . S
H383 C407 0.951 . S
H384 C409 0.951 . S
H385 C411 0.950 . S
H386 C412 0.950 . S
H387 C414 0.950 . S
H388 C417 0.950 . S
H389 C418 0.950 . S
H390 C420 0.950 . S
H391 C421 0.950 . S
C392 H374 0.951 . S
C392 C393 1.366 . S
C392 C394 1.388 . S
C393 C392 1.366 . S
C393 C397 1.385 . S
C394 H375 0.951 . S
C394 C392 1.388 . S
C394 C395 1.366 . S
C395 C394 1.366 . S
C395 C396 1.414 . S
C395 C398 1.499 . S
C396 H376 0.950 . S
C396 C395 1.414 . S
C396 C397 1.374 . S
C397 H377 0.950 . S
C397 C393 1.385 . S
C397 C396 1.374 . S
C398 C395 1.499 . S
C398 C399 1.373 . S
C398 C400 1.389 . S
C399 H378 0.950 . S
C399 C398 1.373 . S
C399 C415 1.377 . S
C400 C398 1.389 . S
C400 C401 1.524 . S
C400 C414 1.377 . S
C401 C400 1.524 . S
C401 C402 1.397 . S
C401 C406 1.363 . S
C402 H379 0.950 . S
C402 C401 1.397 . S
C402 C403 1.334 . S
C403 H380 0.950 . S
C403 C402 1.334 . S
C403 C404 1.287 . S
C404 C403 1.287 . S
C404 C405 1.524 . S
C404 H423 0.913 . S
C405 H381 0.950 . S
C405 C404 1.524 . S
C405 C406 1.415 . S
C406 H382 0.950 . S
C406 C401 1.363 . S
C406 C405 1.415 . S
C407 H383 0.951 . S
C407 C408 1.366 . S
C407 C409 1.388 . S
C408 C407 1.366 . S
C408 C412 1.385 . S
C409 H384 0.951 . S
C409 C407 1.388 . S
C409 C410 1.366 . S
C410 C409 1.366 . S
C410 C411 1.414 . S
C410 C413 1.499 . S
C411 H385 0.950 . S
C411 C410 1.414 . S
C411 C412 1.374 . S
C412 H386 0.950 . S
C412 C408 1.385 . S
C412 C411 1.374 . S
C413 C410 1.499 . S
C413 C414 1.373 . S
C413 C415 1.389 . S
C414 H387 0.950 . S
C414 C400 1.377 . S
C414 C413 1.373 . S
C415 C399 1.377 . S
C415 C413 1.389 . S
C415 C416 1.524 . S
C416 C415 1.524 . S
C416 C417 1.397 . S
C416 C421 1.363 . S
C417 H388 0.950 . S
C417 C416 1.397 . S
C417 C418 1.334 . S
C418 H389 0.950 . S
C418 C417 1.334 . S
C418 C419 1.287 . S
C419 C418 1.287 . S
C419 C420 1.524 . S
C419 H422 0.999 . S
C420 H390 0.950 . S
C420 C419 1.524 . S
C420 C421 1.415 . S
C421 H391 0.950 . S
C421 C416 1.363 . S
C421 C420 1.415 . S
H422 C419 0.999 . S
H423 C404 0.913 . S
H424 C442 0.951 . S
H425 C444 0.951 . S
H426 C446 0.950 . S
H427 C447 0.950 . S
H428 C449 0.950 . S
H429 C452 0.950 . S
H430 C453 0.950 . S
H431 C455 0.950 . S
H432 C456 0.950 1_554 S
H433 C457 0.951 . S
H434 C459 0.951 . S
H435 C461 0.950 . S
H436 C462 0.950 . S
H437 C464 0.950 . S
H438 C467 0.950 . S
H439 C468 0.950 . S
H440 C470 0.950 . S
H441 C471 0.950 . S
C442 H424 0.951 . S
C442 C443 1.366 . S
C442 C444 1.388 . S
C443 C442 1.366 . S
C443 C447 1.385 1_554 S
C444 H425 0.951 . S
C444 C442 1.388 . S
C444 C445 1.366 . S
C445 C444 1.366 . S
C445 C446 1.414 1_554 S
C445 C448 1.499 . S
C446 H426 0.950 . S
C446 C445 1.414 1_556 S
C446 C447 1.374 . S
C447 H427 0.950 . S
C447 C443 1.385 1_556 S
C447 C446 1.374 . S
C448 C445 1.499 . S
C448 C449 1.373 1_455 S
C448 C450 1.389 1_554 S
C449 H428 0.950 . S
C449 C448 1.373 1_655 S
C449 C465 1.377 . S
C450 C448 1.389 1_556 S
C450 C451 1.524 1_545 S
C450 C464 1.377 1_545 S
C451 C450 1.524 1_565 S
C451 C452 1.397 1_565 S
C451 C456 1.363 . S
C452 H429 0.950 . S
C452 C451 1.397 1_545 S
C452 C453 1.334 . S
C453 H430 0.950 . S
C453 C452 1.334 . S
C453 C454 1.287 1_545 S
C454 C453 1.287 1_565 S
C454 C455 1.524 . S
C454 H473 0.913 . S
C455 H431 0.950 . S
C455 C454 1.524 . S
C455 C456 1.415 . S
C456 H432 0.950 1_556 S
C456 C451 1.363 . S
C456 C455 1.415 . S
C457 H433 0.951 . S
C457 C458 1.366 1_556 S
C457 C459 1.388 . S
C458 C457 1.366 1_554 S
C458 C462 1.385 . S
C459 H434 0.951 . S
C459 C457 1.388 . S
C459 C460 1.366 1_556 S
C460 C459 1.366 1_554 S
C460 C461 1.414 . S
C460 C463 1.499 . S
C461 H435 0.950 . S
C461 C460 1.414 . S
C461 C462 1.374 . S
C462 H436 0.950 . S
C462 C458 1.385 . S
C462 C461 1.374 . S
C463 C460 1.499 . S
C463 C464 1.373 1_654 S
C463 C465 1.389 1_565 S
C464 H437 0.950 . S
C464 C450 1.377 1_565 S
C464 C463 1.373 1_456 S
C465 C449 1.377 . S
C465 C463 1.389 1_545 S
C465 C466 1.524 . S
C466 C465 1.524 . S
C466 C467 1.397 1_545 S
C466 C471 1.363 . S
C467 H438 0.950 . S
C467 C466 1.397 1_565 S
C467 C468 1.334 . S
C468 H439 0.950 . S
C468 C467 1.334 . S
C468 C469 1.287 1_565 S
C469 C468 1.287 1_545 S
C469 C470 1.524 . S
C469 H472 0.999 . S
C470 H440 0.950 . S
C470 C469 1.524 . S
C470 C471 1.415 . S
C471 H441 0.950 . S
C471 C466 1.363 . S
C471 C470 1.415 . S
H472 C469 0.999 . S
H473 C454 0.913 . S
H474 C492 0.951 . S
H475 C494 0.951 . S
H476 C496 0.950 . S
H477 C497 0.950 . S
H478 C499 0.950 . S
H479 C502 0.950 1_655 S
H480 C503 0.950 . S
H481 C505 0.950 . S
H482 C506 0.950 . S
H483 C507 0.951 . S
H484 C509 0.951 . S
H485 C511 0.950 . S
H486 C512 0.950 . S
H487 C514 0.950 . S
H488 C517 0.950 1_455 S
H489 C518 0.950 . S
H490 C520 0.950 . S
H491 C521 0.950 . S
C492 H474 0.951 . S
C492 C493 1.366 . S
C492 C494 1.388 . S
C493 C492 1.366 . S
C493 C497 1.385 . S
C494 H475 0.951 . S
C494 C492 1.388 . S
C494 C495 1.366 . S
C495 C494 1.366 . S
C495 C496 1.414 . S
C495 C498 1.499 . S
C496 H476 0.950 . S
C496 C495 1.414 . S
C496 C497 1.374 . S
C497 H477 0.950 . S
C497 C493 1.385 . S
C497 C496 1.374 . S
C498 C495 1.499 . S
C498 C499 1.373 1_545 S
C498 C500 1.389 1_655 S
C499 H478 0.950 . S
C499 C498 1.373 1_565 S
C499 C515 1.377 . S
C500 C498 1.389 1_455 S
C500 C501 1.524 . S
C500 C514 1.377 1_545 S
C501 C500 1.524 . S
C501 C502 1.397 . S
C501 C506 1.363 . S
C502 H479 0.950 1_455 S
C502 C501 1.397 . S
C502 C503 1.334 . S
C503 H480 0.950 . S
C503 C502 1.334 . S
C503 C504 1.287 . S
C504 C503 1.287 . S
C504 C505 1.524 . S
C504 H523 0.913 . S
C505 H481 0.950 . S
C505 C504 1.524 . S
C505 C506 1.415 . S
C506 H482 0.950 . S
C506 C501 1.363 . S
C506 C505 1.415 . S
C507 H483 0.951 . S
C507 C508 1.366 . S
C507 C509 1.388 . S
C508 C507 1.366 . S
C508 C512 1.385 . S
C509 H484 0.951 . S
C509 C507 1.388 . S
C509 C510 1.366 . S
C510 C509 1.366 . S
C510 C511 1.414 . S
C510 C513 1.499 . S
C511 H485 0.950 . S
C511 C510 1.414 . S
C511 C512 1.374 . S
C512 H486 0.950 . S
C512 C508 1.385 . S
C512 C511 1.374 . S
C513 C510 1.499 . S
C513 C514 1.373 . S
C513 C515 1.389 1_455 S
C514 H487 0.950 . S
C514 C500 1.377 1_565 S
C514 C513 1.373 . S
C515 C499 1.377 . S
C515 C513 1.389 1_655 S
C515 C516 1.524 . S
C516 C515 1.524 . S
C516 C517 1.397 . S
C516 C521 1.363 . S
C517 H488 0.950 1_655 S
C517 C516 1.397 . S
C517 C518 1.334 . S
C518 H489 0.950 . S
C518 C517 1.334 . S
C518 C519 1.287 . S
C519 C518 1.287 . S
C519 C520 1.524 . S
C519 H522 0.999 . S
C520 H490 0.950 . S
C520 C519 1.524 . S
C520 C521 1.415 . S
C521 H491 0.950 . S
C521 C516 1.363 . S
C521 C520 1.415 . S
H522 C519 0.999 . S
H523 C504 0.913 . S
H524 C542 0.951 . S
H525 C544 0.951 . S
H526 C546 0.950 . S
H527 C547 0.950 . S
H528 C549 0.950 . S
H529 C552 0.950 . S
H530 C553 0.950 . S
H531 C555 0.950 . S
H532 C556 0.950 . S
H533 C557 0.951 . S
H534 C559 0.951 . S
H535 C561 0.950 . S
H536 C562 0.950 . S
H537 C564 0.950 . S
H538 C567 0.950 . S
H539 C568 0.950 . S
H540 C570 0.950 . S
H541 C571 0.950 . S
C542 H524 0.951 . S
C542 C543 1.366 . S
C542 C544 1.388 . S
C543 C542 1.366 . S
C543 C547 1.385 . S
C544 H525 0.951 . S
C544 C542 1.388 . S
C544 C545 1.366 . S
C545 C544 1.366 . S
C545 C546 1.414 . S
C545 C548 1.499 . S
C546 H526 0.950 . S
C546 C545 1.414 . S
C546 C547 1.374 . S
C547 H527 0.950 . S
C547 C543 1.385 . S
C547 C546 1.374 . S
C548 C545 1.499 . S
C548 C549 1.373 . S
C548 C550 1.389 . S
C549 H528 0.950 . S
C549 C548 1.373 . S
C549 C565 1.377 . S
C550 C548 1.389 . S
C550 C551 1.524 . S
C550 C564 1.377 . S
C551 C550 1.524 . S
C551 C552 1.397 . S
C551 C556 1.363 . S
C552 H529 0.950 . S
C552 C551 1.397 . S
C552 C553 1.334 . S
C553 H530 0.950 . S
C553 C552 1.334 . S
C553 C554 1.287 . S
C554 C553 1.287 . S
C554 C555 1.524 . S
C554 H573 0.913 . S
C555 H531 0.950 . S
C555 C554 1.524 . S
C555 C556 1.415 . S
C556 H532 0.950 . S
C556 C551 1.363 . S
C556 C555 1.415 . S
C557 H533 0.951 . S
C557 C558 1.366 . S
C557 C559 1.388 . S
C558 C557 1.366 . S
C558 C562 1.385 . S
C559 H534 0.951 . S
C559 C557 1.388 . S
C559 C560 1.366 . S
C560 C559 1.366 . S
C560 C561 1.414 . S
C560 C563 1.499 . S
C561 H535 0.950 . S
C561 C560 1.414 . S
C561 C562 1.374 . S
C562 H536 0.950 . S
C562 C558 1.385 . S
C562 C561 1.374 . S
C563 C560 1.499 . S
C563 C564 1.373 . S
C563 C565 1.389 . S
C564 H537 0.950 . S
C564 C550 1.377 . S
C564 C563 1.373 . S
C565 C549 1.377 . S
C565 C563 1.389 . S
C565 C566 1.524 . S
C566 C565 1.524 . S
C566 C567 1.397 . S
C566 C571 1.363 . S
C567 H538 0.950 . S
C567 C566 1.397 . S
C567 C568 1.334 . S
C568 H539 0.950 . S
C568 C567 1.334 . S
C568 C569 1.287 . S
C569 C568 1.287 . S
C569 C570 1.524 . S
C569 H572 0.999 . S
C570 H540 0.950 . S
C570 C569 1.524 . S
C570 C571 1.415 . S
C571 H541 0.950 . S
C571 C566 1.363 . S
C571 C570 1.415 . S
H572 C569 0.999 . S
H573 C554 0.913 . S
H574 C592 0.951 . S
H575 C594 0.951 . S
H576 C596 0.950 . S
H577 C597 0.950 . S
H578 C599 0.950 . S
H579 C602 0.950 . S
H580 C603 0.950 . S
H581 C605 0.950 . S
H582 C606 0.950 . S
H583 C607 0.951 . S
H584 C609 0.951 . S
H585 C611 0.950 . S
H586 C612 0.950 . S
H587 C614 0.950 . S
H588 C617 0.950 . S
H589 C618 0.950 . S
H590 C620 0.950 . S
H591 C621 0.950 . S
C592 H574 0.951 . S
C592 C593 1.366 . S
C592 C594 1.388 . S
C593 C592 1.366 . S
C593 C597 1.385 . S
C594 H575 0.951 . S
C594 C592 1.388 . S
C594 C595 1.366 . S
C595 C594 1.366 . S
C595 C596 1.414 . S
C595 C598 1.499 . S
C596 H576 0.950 . S
C596 C595 1.414 . S
C596 C597 1.374 . S
C597 H577 0.950 . S
C597 C593 1.385 . S
C597 C596 1.374 . S
C598 C595 1.499 . S
C598 C599 1.373 . S
C598 C600 1.389 . S
C599 H578 0.950 . S
C599 C598 1.373 . S
C599 C615 1.377 . S
C600 C598 1.389 . S
C600 C601 1.524 . S
C600 C614 1.377 . S
C601 C600 1.524 . S
C601 C602 1.397 . S
C601 C606 1.363 . S
C602 H579 0.950 . S
C602 C601 1.397 . S
C602 C603 1.334 . S
C603 H580 0.950 . S
C603 C602 1.334 . S
C603 C604 1.287 . S
C604 C603 1.287 . S
C604 C605 1.524 . S
C604 H623 0.913 . S
C605 H581 0.950 . S
C605 C604 1.524 . S
C605 C606 1.415 . S
C606 H582 0.950 . S
C606 C601 1.363 . S
C606 C605 1.415 . S
C607 H583 0.951 . S
C607 C608 1.366 . S
C607 C609 1.388 . S
C608 C607 1.366 . S
C608 C612 1.385 . S
C609 H584 0.951 . S
C609 C607 1.388 . S
C609 C610 1.366 . S
C610 C609 1.366 . S
C610 C611 1.414 . S
C610 C613 1.499 . S
C611 H585 0.950 . S
C611 C610 1.414 . S
C611 C612 1.374 . S
C612 H586 0.950 . S
C612 C608 1.385 . S
C612 C611 1.374 . S
C613 C610 1.499 . S
C613 C614 1.373 . S
C613 C615 1.389 . S
C614 H587 0.950 . S
C614 C600 1.377 . S
C614 C613 1.373 . S
C615 C599 1.377 . S
C615 C613 1.389 . S
C615 C616 1.524 . S
C616 C615 1.524 . S
C616 C617 1.397 . S
C616 C621 1.363 . S
C617 H588 0.950 . S
C617 C616 1.397 . S
C617 C618 1.334 . S
C618 H589 0.950 . S
C618 C617 1.334 . S
C618 C619 1.287 . S
C619 C618 1.287 . S
C619 C620 1.524 . S
C619 H622 0.999 . S
C620 H590 0.950 . S
C620 C619 1.524 . S
C620 C621 1.415 . S
C621 H591 0.950 . S
C621 C616 1.363 . S
C621 C620 1.415 . S
H622 C619 0.999 . S
H623 C604 0.913 . S
H624 C642 0.951 . S
H625 C644 0.951 . S
H626 C646 0.950 . S
H627 C647 0.950 . S
H628 C649 0.950 . S
H629 C652 0.950 . S
H630 C653 0.950 . S
H631 C655 0.950 . S
H632 C656 0.950 . S
H633 C657 0.951 . S
H634 C659 0.951 . S
H635 C661 0.950 . S
H636 C662 0.950 . S
H637 C664 0.950 . S
H638 C667 0.950 . S
H639 C668 0.950 . S
H640 C670 0.950 . S
H641 C671 0.950 . S
C642 H624 0.951 . S
C642 C643 1.366 . S
C642 C644 1.388 . S
C643 C642 1.366 . S
C643 C647 1.385 . S
C644 H625 0.951 . S
C644 C642 1.388 . S
C644 C645 1.366 . S
C645 C644 1.366 . S
C645 C646 1.414 . S
C645 C648 1.499 . S
C646 H626 0.950 . S
C646 C645 1.414 . S
C646 C647 1.374 . S
C647 H627 0.950 . S
C647 C643 1.385 . S
C647 C646 1.374 . S
C648 C645 1.499 . S
C648 C649 1.373 . S
C648 C650 1.389 . S
C649 H628 0.950 . S
C649 C648 1.373 . S
C649 C665 1.377 . S
C650 C648 1.389 . S
C650 C651 1.524 . S
C650 C664 1.377 . S
C651 C650 1.524 . S
C651 C652 1.397 . S
C651 C656 1.363 . S
C652 H629 0.950 . S
C652 C651 1.397 . S
C652 C653 1.334 . S
C653 H630 0.950 . S
C653 C652 1.334 . S
C653 C654 1.287 . S
C654 C653 1.287 . S
C654 C655 1.524 . S
C654 H673 0.913 . S
C655 H631 0.950 . S
C655 C654 1.524 . S
C655 C656 1.415 . S
C656 H632 0.950 . S
C656 C651 1.363 . S
C656 C655 1.415 . S
C657 H633 0.951 . S
C657 C658 1.366 . S
C657 C659 1.388 . S
C658 C657 1.366 . S
C658 C662 1.385 . S
C659 H634 0.951 . S
C659 C657 1.388 . S
C659 C660 1.366 . S
C660 C659 1.366 . S
C660 C661 1.414 . S
C660 C663 1.499 . S
C661 H635 0.950 . S
C661 C660 1.414 . S
C661 C662 1.374 . S
C662 H636 0.950 . S
C662 C658 1.385 . S
C662 C661 1.374 . S
C663 C660 1.499 . S
C663 C664 1.373 . S
C663 C665 1.389 . S
C664 H637 0.950 . S
C664 C650 1.377 . S
C664 C663 1.373 . S
C665 C649 1.377 . S
C665 C663 1.389 . S
C665 C666 1.524 . S
C666 C665 1.524 . S
C666 C667 1.397 . S
C666 C671 1.363 . S
C667 H638 0.950 . S
C667 C666 1.397 . S
C667 C668 1.334 . S
C668 H639 0.950 . S
C668 C667 1.334 . S
C668 C669 1.287 . S
C669 C668 1.287 . S
C669 C670 1.524 . S
C669 H672 0.999 . S
C670 H640 0.950 . S
C670 C669 1.524 . S
C670 C671 1.415 . S
C671 H641 0.950 . S
C671 C666 1.363 . S
C671 C670 1.415 . S
H672 C669 0.999 . S
H673 C654 0.913 . S
H674 C692 0.951 . S
H675 C694 0.951 . S
H676 C696 0.950 . S
H677 C697 0.950 . S
H678 C699 0.950 . S
H679 C702 0.950 . S
H680 C703 0.950 . S
H681 C705 0.950 . S
H682 C706 0.950 . S
H683 C707 0.951 . S
H684 C709 0.951 . S
H685 C711 0.950 . S
H686 C712 0.950 . S
H687 C714 0.950 . S
H688 C717 0.950 . S
H689 C718 0.950 . S
H690 C720 0.950 . S
H691 C721 0.950 . S
C692 H674 0.951 . S
C692 C693 1.366 . S
C692 C694 1.388 . S
C693 C692 1.366 . S
C693 C697 1.385 . S
C694 H675 0.951 . S
C694 C692 1.388 . S
C694 C695 1.366 . S
C695 C694 1.366 . S
C695 C696 1.414 . S
C695 C698 1.499 . S
C696 H676 0.950 . S
C696 C695 1.414 . S
C696 C697 1.374 . S
C697 H677 0.950 . S
C697 C693 1.385 . S
C697 C696 1.374 . S
C698 C695 1.499 . S
C698 C699 1.373 . S
C698 C700 1.389 . S
C699 H678 0.950 . S
C699 C698 1.373 . S
C699 C715 1.377 . S
C700 C698 1.389 . S
C700 C701 1.524 . S
C700 C714 1.377 . S
C701 C700 1.524 . S
C701 C702 1.397 . S
C701 C706 1.363 . S
C702 H679 0.950 . S
C702 C701 1.397 . S
C702 C703 1.334 . S
C703 H680 0.950 . S
C703 C702 1.334 . S
C703 C704 1.287 . S
C704 C703 1.287 . S
C704 C705 1.524 . S
C704 H723 0.913 . S
C705 H681 0.950 . S
C705 C704 1.524 . S
C705 C706 1.415 . S
C706 H682 0.950 . S
C706 C701 1.363 . S
C706 C705 1.415 . S
C707 H683 0.951 . S
C707 C708 1.366 . S
C707 C709 1.388 . S
C708 C707 1.366 . S
C708 C712 1.385 . S
C709 H684 0.951 . S
C709 C707 1.388 . S
C709 C710 1.366 . S
C710 C709 1.366 . S
C710 C711 1.414 . S
C710 C713 1.499 . S
C711 H685 0.950 . S
C711 C710 1.414 . S
C711 C712 1.374 . S
C712 H686 0.950 . S
C712 C708 1.385 . S
C712 C711 1.374 . S
C713 C710 1.499 . S
C713 C714 1.373 . S
C713 C715 1.389 . S
C714 H687 0.950 . S
C714 C700 1.377 . S
C714 C713 1.373 . S
C715 C699 1.377 . S
C715 C713 1.389 . S
C715 C716 1.524 . S
C716 C715 1.524 . S
C716 C717 1.397 . S
C716 C721 1.363 . S
C717 H688 0.950 . S
C717 C716 1.397 . S
C717 C718 1.334 . S
C718 H689 0.950 . S
C718 C717 1.334 . S
C718 C719 1.287 . S
C719 C718 1.287 . S
C719 C720 1.524 . S
C719 H722 0.999 . S
C720 H690 0.950 . S
C720 C719 1.524 . S
C720 C721 1.415 . S
C721 H691 0.950 . S
C721 C716 1.363 . S
C721 C720 1.415 . S
H722 C719 0.999 . S
H723 C704 0.913 . S
H724 C742 0.951 . S
H725 C744 0.951 . S
H726 C746 0.950 . S
H727 C747 0.950 . S
H728 C749 0.950 . S
H729 C752 0.950 . S
H730 C753 0.950 . S
H731 C755 0.950 . S
H732 C756 0.950 . S
H733 C757 0.951 . S
H734 C759 0.951 . S
H735 C761 0.950 . S
H736 C762 0.950 . S
H737 C764 0.950 . S
H738 C767 0.950 . S
H739 C768 0.950 . S
H740 C770 0.950 . S
H741 C771 0.950 . S
C742 H724 0.951 . S
C742 C743 1.366 . S
C742 C744 1.388 . S
C743 C742 1.366 . S
C743 C747 1.385 . S
C744 H725 0.951 . S
C744 C742 1.388 . S
C744 C745 1.366 . S
C745 C744 1.366 . S
C745 C746 1.414 . S
C745 C748 1.499 . S
C746 H726 0.950 . S
C746 C745 1.414 . S
C746 C747 1.374 . S
C747 H727 0.950 . S
C747 C743 1.385 . S
C747 C746 1.374 . S
C748 C745 1.499 . S
C748 C749 1.373 . S
C748 C750 1.389 1_455 S
C749 H728 0.950 . S
C749 C748 1.373 . S
C749 C765 1.377 . S
C750 C748 1.389 1_655 S
C750 C751 1.524 . S
C750 C764 1.377 . S
C751 C750 1.524 . S
C751 C752 1.397 . S
C751 C756 1.363 . S
C752 H729 0.950 . S
C752 C751 1.397 . S
C752 C753 1.334 . S
C753 H730 0.950 . S
C753 C752 1.334 . S
C753 C754 1.287 . S
C754 C753 1.287 . S
C754 C755 1.524 . S
C754 H773 0.913 . S
C755 H731 0.950 . S
C755 C754 1.524 . S
C755 C756 1.415 . S
C756 H732 0.950 . S
C756 C751 1.363 . S
C756 C755 1.415 . S
C757 H733 0.951 . S
C757 C758 1.366 . S
C757 C759 1.388 . S
C758 C757 1.366 . S
C758 C762 1.385 . S
C759 H734 0.951 . S
C759 C757 1.388 . S
C759 C760 1.366 . S
C760 C759 1.366 . S
C760 C761 1.414 . S
C760 C763 1.499 . S
C761 H735 0.950 . S
C761 C760 1.414 . S
C761 C762 1.374 . S
C762 H736 0.950 . S
C762 C758 1.385 . S
C762 C761 1.374 . S
C763 C760 1.499 . S
C763 C764 1.373 . S
C763 C765 1.389 1_655 S
C764 H737 0.950 . S
C764 C750 1.377 . S
C764 C763 1.373 . S
C765 C749 1.377 . S
C765 C763 1.389 1_455 S
C765 C766 1.524 . S
C766 C765 1.524 . S
C766 C767 1.397 . S
C766 C771 1.363 . S
C767 H738 0.950 . S
C767 C766 1.397 . S
C767 C768 1.334 . S
C768 H739 0.950 . S
C768 C767 1.334 . S
C768 C769 1.287 . S
C769 C768 1.287 . S
C769 C770 1.524 . S
C769 H772 0.999 . S
C770 H740 0.950 . S
C770 C769 1.524 . S
C770 C771 1.415 . S
C771 H741 0.950 . S
C771 C766 1.363 . S
C771 C770 1.415 . S
H772 C769 0.999 . S
H773 C754 0.913 . S
H774 C792 0.951 . S
H775 C794 0.951 . S
H776 C796 0.945 1_455 S
H777 C797 0.950 . S
H778 C799 0.950 . S
H779 C802 0.950 . S
H780 C803 0.950 . S
H781 C805 0.950 . S
H782 C806 0.950 1_655 S
H783 C807 0.951 . S
H784 C809 0.951 . S
H785 C811 0.950 . S
H786 C812 0.950 . S
H787 C814 0.950 . S
H788 C817 0.950 . S
H789 C818 0.950 . S
H790 C820 0.950 . S
H791 C821 0.950 . S
C792 H774 0.951 . S
C792 C793 1.366 . S
C792 C794 1.388 . S
C793 C792 1.366 . S
C793 C797 1.385 . S
C794 H775 0.951 . S
C794 C792 1.388 . S
C794 C795 1.366 . S
C795 C794 1.366 . S
C795 C796 1.414 . S
C795 C798 1.499 . S
C796 H776 0.945 1_655 S
C796 C795 1.414 . S
C796 C797 1.374 . S
C797 H777 0.950 . S
C797 C793 1.385 . S
C797 C796 1.374 . S
C798 C795 1.499 . S
C798 C799 1.373 . S
C798 C800 1.389 1_655 S
C799 H778 0.950 . S
C799 C798 1.373 . S
C799 C815 1.376 1_655 S
C800 C798 1.389 1_455 S
C800 C801 1.524 . S
C800 C814 1.377 . S
C801 C800 1.524 . S
C801 C802 1.397 . S
C801 C806 1.363 . S
C802 H779 0.950 . S
C802 C801 1.397 . S
C802 C803 1.334 . S
C803 H780 0.950 . S
C803 C802 1.334 . S
C803 C804 1.287 . S
C804 C803 1.287 . S
C804 C805 1.524 . S
C804 H823 0.913 . S
C805 H781 0.950 . S
C805 C804 1.524 . S
C805 C806 1.415 . S
C806 H782 0.950 1_455 S
C806 C801 1.363 . S
C806 C805 1.415 . S
C807 H783 0.951 . S
C807 C808 1.366 . S
C807 C809 1.388 . S
C808 C807 1.366 . S
C808 C812 1.385 . S
C809 H784 0.951 . S
C809 C807 1.388 . S
C809 C810 1.366 . S
C810 C809 1.366 . S
C810 C811 1.414 . S
C810 C813 1.499 . S
C811 H785 0.950 . S
C811 C810 1.414 . S
C811 C812 1.374 . S
C812 H786 0.950 . S
C812 C808 1.385 . S
C812 C811 1.374 . S
C813 C810 1.499 . S
C813 C814 1.373 . S
C813 C815 1.390 . S
C814 H787 0.950 . S
C814 C800 1.377 . S
C814 C813 1.373 . S
C815 C799 1.376 1_455 S
C815 C813 1.390 . S
C815 C816 1.524 1_455 S
C816 C815 1.524 1_655 S
C816 C817 1.397 . S
C816 C821 1.363 1_655 S
C817 H788 0.950 . S
C817 C816 1.397 . S
C817 C818 1.334 . S
C818 H789 0.950 . S
C818 C817 1.334 . S
C818 C819 1.287 . S
C819 C818 1.287 . S
C819 C820 1.524 . S
C819 H822 0.999 . S
C820 H790 0.950 . S
C820 C819 1.524 . S
C820 C821 1.415 1_655 S
C821 H791 0.950 . S
C821 C816 1.363 1_455 S
C821 C820 1.415 1_455 S
H822 C819 0.999 . S
H823 C804 0.913 . S
H824 C842 0.951 . S
H825 C844 0.951 . S
H826 C846 0.950 . S
H827 C847 0.950 . S
H828 C849 0.950 . S
H829 C852 0.950 . S
H830 C853 0.950 . S
H831 C855 0.950 . S
H832 C856 0.950 1_655 S
H833 C857 0.951 . S
H834 C859 0.951 . S
H835 C861 0.950 . S
H836 C862 0.950 . S
H837 C864 0.950 . S
H838 C867 0.950 . S
H839 C868 0.950 . S
H840 C870 0.950 . S
H841 C871 0.950 . S
C842 H824 0.951 . S
C842 C843 1.366 . S
C842 C844 1.388 . S
C843 C842 1.366 . S
C843 C847 1.385 . S
C844 H825 0.951 . S
C844 C842 1.388 . S
C844 C845 1.366 . S
C845 C844 1.366 . S
C845 C846 1.414 . S
C845 C848 1.499 . S
C846 H826 0.950 . S
C846 C845 1.414 . S
C846 C847 1.374 . S
C847 H827 0.950 . S
C847 C843 1.385 . S
C847 C846 1.374 . S
C848 C845 1.499 . S
C848 C849 1.373 1_455 S
C848 C850 1.389 . S
C849 H828 0.950 . S
C849 C848 1.373 1_655 S
C849 C865 1.377 . S
C850 C848 1.389 . S
C850 C851 1.524 . S
C850 C864 1.377 1_455 S
C851 C850 1.524 . S
C851 C852 1.397 . S
C851 C856 1.363 . S
C852 H829 0.950 . S
C852 C851 1.397 . S
C852 C853 1.334 . S
C853 H830 0.950 . S
C853 C852 1.334 . S
C853 C854 1.287 . S
C854 C853 1.287 . S
C854 C855 1.524 . S
C854 H873 0.913 . S
C855 H831 0.950 . S
C855 C854 1.524 . S
C855 C856 1.415 . S
C856 H832 0.950 1_455 S
C856 C851 1.363 . S
C856 C855 1.415 . S
C857 H833 0.951 . S
C857 C858 1.366 . S
C857 C859 1.388 . S
C858 C857 1.366 . S
C858 C862 1.385 . S
C859 H834 0.951 . S
C859 C857 1.388 . S
C859 C860 1.366 . S
C860 C859 1.366 . S
C860 C861 1.414 . S
C860 C863 1.499 . S
C861 H835 0.950 . S
C861 C860 1.414 . S
C861 C862 1.374 . S
C862 H836 0.950 . S
C862 C858 1.385 . S
C862 C861 1.374 . S
C863 C860 1.499 . S
C863 C864 1.373 . S
C863 C865 1.389 . S
C864 H837 0.950 . S
C864 C850 1.377 1_655 S
C864 C863 1.373 . S
C865 C849 1.377 . S
C865 C863 1.389 . S
C865 C866 1.524 . S
C866 C865 1.524 . S
C866 C867 1.397 . S
C866 C871 1.363 . S
C867 H838 0.950 . S
C867 C866 1.397 . S
C867 C868 1.334 . S
C868 H839 0.950 . S
C868 C867 1.334 . S
C868 C869 1.287 . S
C869 C868 1.287 . S
C869 C870 1.524 . S
C869 H872 0.999 . S
C870 H840 0.950 . S
C870 C869 1.524 . S
C870 C871 1.415 . S
C871 H841 0.950 . S
C871 C866 1.363 . S
C871 C870 1.415 . S
H872 C869 0.999 . S
H873 C854 0.913 . S
H874 C892 0.951 . S
H875 C894 0.951 . S
H876 C896 0.950 1_655 S
H877 C897 0.950 . S
H878 C899 0.950 . S
H879 C902 0.950 . S
H880 C903 0.950 . S
H881 C905 0.950 . S
H882 C906 0.950 . S
H883 C907 0.951 . S
H884 C909 0.951 . S
H885 C911 0.950 1_455 S
H886 C912 0.950 . S
H887 C914 0.950 . S
H888 C917 0.950 . S
H889 C918 0.950 . S
H890 C920 0.950 . S
H891 C921 0.950 . S
C892 H874 0.951 . S
C892 C893 1.366 . S
C892 C894 1.388 . S
C893 C892 1.366 . S
C893 C897 1.385 . S
C894 H875 0.951 . S
C894 C892 1.388 . S
C894 C895 1.366 . S
C895 C894 1.366 . S
C895 C896 1.414 . S
C895 C898 1.499 . S
C896 H876 0.950 1_455 S
C896 C895 1.414 . S
C896 C897 1.374 . S
C897 H877 0.950 . S
C897 C893 1.385 . S
C897 C896 1.374 . S
C898 C895 1.499 . S
C898 C899 1.373 1_455 S
C898 C900 1.389 . S
C899 H878 0.950 . S
C899 C898 1.373 1_655 S
C899 C915 1.377 . S
C900 C898 1.389 . S
C900 C901 1.524 . S
C900 C914 1.377 . S
C901 C900 1.524 . S
C901 C902 1.397 . S
C901 C906 1.363 . S
C902 H879 0.950 . S
C902 C901 1.397 . S
C902 C903 1.334 . S
C903 H880 0.950 . S
C903 C902 1.334 . S
C903 C904 1.287 . S
C904 C903 1.287 . S
C904 C905 1.524 . S
C904 H923 0.913 . S
C905 H881 0.950 . S
C905 C904 1.524 . S
C905 C906 1.415 . S
C906 H882 0.950 . S
C906 C901 1.363 . S
C906 C905 1.415 . S
C907 H883 0.951 . S
C907 C908 1.366 . S
C907 C909 1.388 . S
C908 C907 1.366 . S
C908 C912 1.385 . S
C909 H884 0.951 . S
C909 C907 1.388 . S
C909 C910 1.366 . S
C910 C909 1.366 . S
C910 C911 1.414 . S
C910 C913 1.499 . S
C911 H885 0.950 1_655 S
C911 C910 1.414 . S
C911 C912 1.374 . S
C912 H886 0.950 . S
C912 C908 1.385 . S
C912 C911 1.374 . S
C913 C910 1.499 . S
C913 C914 1.373 1_655 S
C913 C915 1.389 . S
C914 H887 0.950 . S
C914 C900 1.377 . S
C914 C913 1.373 1_455 S
C915 C899 1.377 . S
C915 C913 1.389 . S
C915 C916 1.524 . S
C916 C915 1.524 . S
C916 C917 1.397 . S
C916 C921 1.363 . S
C917 H888 0.950 . S
C917 C916 1.397 . S
C917 C918 1.334 . S
C918 H889 0.950 . S
C918 C917 1.334 . S
C918 C919 1.287 . S
C919 C918 1.287 . S
C919 C920 1.524 . S
C919 H922 0.999 . S
C920 H890 0.950 . S
C920 C919 1.524 . S
C920 C921 1.415 . S
C921 H891 0.950 . S
C921 C916 1.363 . S
C921 C920 1.415 . S
H922 C919 0.999 . S
H923 C904 0.913 . S
C143 C0 1.207 . S
C158 C10 1.184 1_554 S
C193 C31 1.207 . S
C208 C41 1.184 1_554 S
C243 C62 1.199 . S
C258 C72 1.190 . S
C293 C93 1.200 . S
C308 C103 1.190 . S
C343 C50 1.538 1_554 S
C358 C30 1.542 . S
C393 C112 1.538 . S
C408 C92 1.542 . S
C443 C19 1.539 1_554 S
C458 C61 1.543 . S
C493 C123 1.543 . S
C508 C81 1.538 . S
C543 C95 1.104 . S
C558 C1 1.108 . S
C593 C33 1.105 . S
C608 C63 1.107 . S
C643 C91 1.200 . S
C658 C51 1.195 . S
C693 C29 1.199 . S
C708 C113 1.195 . S
C743 C64 1.105 . S
C758 C32 1.107 . S
C793 C94 1.107 . S
C808 C2 1.105 . S
C843 C20 1.194 . S
C858 C122 1.200 . S
C893 C82 1.195 . S
C908 C60 1.199 . S
