# Generated by pormake.
# Topology uku, (4)-cn, num edge types: 1
# Building blocks:
#     Node 0, Type 0, BuildingBlock: ESEHIV_clean_sbu_0, # of connection points: 4
#     Node 1, Type 0, BuildingBlock: ESEHIV_clean_sbu_0, # of connection points: 4
#     Node 2, Type 0, BuildingBlock: ESEHIV_clean_sbu_0, # of connection points: 4
#     Node 3, Type 0, BuildingBlock: ESEHIV_clean_sbu_0, # of connection points: 4
#     Node 4, Type 0, BuildingBlock: ESEHIV_clean_sbu_0, # of connection points: 4
#     Node 5, Type 0, BuildingBlock: ESEHIV_clean_sbu_0, # of connection points: 4
#     Node 6, Type 0, BuildingBlock: ESEHIV_clean_sbu_0, # of connection points: 4
#     Node 7, Type 0, BuildingBlock: ESEHIV_clean_sbu_0, # of connection points: 4
#     Node 8, Type 0, BuildingBlock: ESEHIV_clean_sbu_0, # of connection points: 4
#     Node 9, Type 0, BuildingBlock: ESEHIV_clean_sbu_0, # of connection points: 4
#     Node 10, Type 0, BuildingBlock: ESEHIV_clean_sbu_0, # of connection points: 4
#     Node 11, Type 0, BuildingBlock: ESEHIV_clean_sbu_0, # of connection points: 4
#     Edge 12, Type (0, 0), BuildingBlock: TEMPAE_clean_linker_10, # of connection points: 2
#     Edge 13, Type (0, 0), BuildingBlock: TEMPAE_clean_linker_10, # of connection points: 2
#     Edge 14, Type (0, 0), BuildingBlock: TEMPAE_clean_linker_10, # of connection points: 2
#     Edge 15, Type (0, 0), BuildingBlock: TEMPAE_clean_linker_10, # of connection points: 2
#     Edge 16, Type (0, 0), BuildingBlock: TEMPAE_clean_linker_10, # of connection points: 2
#     Edge 17, Type (0, 0), BuildingBlock: TEMPAE_clean_linker_10, # of connection points: 2
#     Edge 18, Type (0, 0), BuildingBlock: TEMPAE_clean_linker_10, # of connection points: 2
#     Edge 19, Type (0, 0), BuildingBlock: TEMPAE_clean_linker_10, # of connection points: 2
#     Edge 20, Type (0, 0), BuildingBlock: TEMPAE_clean_linker_10, # of connection points: 2
#     Edge 21, Type (0, 0), BuildingBlock: TEMPAE_clean_linker_10, # of connection points: 2
#     Edge 22, Type (0, 0), BuildingBlock: TEMPAE_clean_linker_10, # of connection points: 2
#     Edge 23, Type (0, 0), BuildingBlock: TEMPAE_clean_linker_10, # of connection points: 2
#     Edge 24, Type (0, 0), BuildingBlock: TEMPAE_clean_linker_10, # of connection points: 2
#     Edge 25, Type (0, 0), BuildingBlock: TEMPAE_clean_linker_10, # of connection points: 2
#     Edge 26, Type (0, 0), BuildingBlock: TEMPAE_clean_linker_10, # of connection points: 2
#     Edge 27, Type (0, 0), BuildingBlock: TEMPAE_clean_linker_10, # of connection points: 2
#     Edge 28, Type (0, 0), BuildingBlock: TEMPAE_clean_linker_10, # of connection points: 2
#     Edge 29, Type (0, 0), BuildingBlock: TEMPAE_clean_linker_10, # of connection points: 2
#     Edge 30, Type (0, 0), BuildingBlock: TEMPAE_clean_linker_10, # of connection points: 2
#     Edge 31, Type (0, 0), BuildingBlock: TEMPAE_clean_linker_10, # of connection points: 2
#     Edge 32, Type (0, 0), BuildingBlock: TEMPAE_clean_linker_10, # of connection points: 2
#     Edge 33, Type (0, 0), BuildingBlock: TEMPAE_clean_linker_10, # of connection points: 2
#     Edge 34, Type (0, 0), BuildingBlock: TEMPAE_clean_linker_10, # of connection points: 2
#     Edge 35, Type (0, 0), BuildingBlock: TEMPAE_clean_linker_10, # of connection points: 2
# Relax obj value: 0.123
# Max RMSD: 0.255
# Mean RMSD: 0.255
data_MOF--net-uku--node1-ESEHIV_clean_sbu_0--edge1-TEMPAE_clean_linker_10
_symmetry_space_group_name_H-M    P1
_symmetry_Int_Tables_number       1
_symmetry_cell_setting            triclinic
loop_
_symmetry_equiv_pos_as_xyz
'x, y, z'
_cell_length_a     48.183344
_cell_length_b     48.218844
_cell_length_c     48.181916
_cell_angle_alpha  89.956978
_cell_angle_beta   89.966163
_cell_angle_gamma 89.982803
loop_
_atom_site_label
_atom_site_type_symbol
_atom_site_fract_x
_atom_site_fract_y
_atom_site_fract_z
_atom_type_partial_charge
Cu0 Cu 0.09841 0.12547 0.65138 0.0
N1 N 0.13487 0.11307 0.6548 0.0
N2 N 0.17438 0.09927 0.67468 0.0
C3 C 0.14763 0.1065 0.67875 0.0
C4 C 0.17859 0.10133 0.64706 0.0
C5 C 0.1541 0.10974 0.63482 0.0
O6 O 0.09394 0.15717 0.67566 0.0
C7 C 0.048 0.09826 0.66475 0.0
O8 O 0.03676 0.12281 0.66097 0.0
H9 H 0.13768 0.10775 0.69885 0.0
H10 H 0.15067 0.11341 0.61295 0.0
N11 N 0.09117 0.1363 0.61488 0.0
N12 N 0.06996 0.14219 0.57398 0.0
C13 C 0.06916 0.12953 0.59903 0.0
C14 C 0.10647 0.15376 0.59941 0.0
C15 C 0.09352 0.15738 0.57418 0.0
C16 C 0.08891 0.15454 0.70144 0.0
O17 O 0.08531 0.12961 0.71185 0.0
H18 H 0.05256 0.11616 0.60603 0.0
H19 H 0.12559 0.16337 0.60615 0.0
O20 O 0.07405 0.09537 0.66183 0.0
H21 H 0.19794 0.09705 0.63647 0.0
H22 H 0.101 0.17019 0.55732 0.0
Cu23 Cu 0.90335 0.88119 0.65178 0.0
N24 N 0.86746 0.89478 0.65656 0.0
N25 N 0.82839 0.90793 0.6778 0.0
C26 C 0.85387 0.89668 0.68088 0.0
C27 C 0.82589 0.91323 0.65039 0.0
C28 C 0.85009 0.90518 0.63735 0.0
O29 O 0.90946 0.85194 0.67876 0.0
C30 C 0.93077 0.92598 0.67863 0.0
O31 O 0.91527 0.91964 0.70016 0.0
H32 H 0.86247 0.88964 0.7004 0.0
H33 H 0.8548 0.90696 0.61547 0.0
N34 N 0.90846 0.86777 0.61583 0.0
N35 N 0.92887 0.85936 0.57499 0.0
C36 C 0.9318 0.87026 0.60066 0.0
C37 C 0.89006 0.85487 0.59931 0.0
C38 C 0.90259 0.84965 0.5741 0.0
C39 C 0.89312 0.83121 0.67874 0.0
O40 O 0.87342 0.83003 0.65994 0.0
H41 H 0.95033 0.88046 0.60816 0.0
H42 H 0.86896 0.84986 0.6051 0.0
O43 O 0.92911 0.91143 0.65672 0.0
H44 H 0.80806 0.92269 0.64052 0.0
H45 H 0.8931 0.83932 0.55658 0.0
Cu46 Cu 0.0995 0.87354 0.34636 0.0
N47 N 0.13622 0.88533 0.34628 0.0
N48 N 0.17687 0.89945 0.32906 0.0
C49 C 0.14993 0.89409 0.32361 0.0
C50 C 0.18019 0.89381 0.35632 0.0
C51 C 0.15499 0.88515 0.36693 0.0
O52 O 0.09691 0.84585 0.3174 0.0
C53 C 0.05046 0.90656 0.3411 0.0
O54 O 0.03694 0.88444 0.34947 0.0
H55 H 0.14053 0.89538 0.30325 0.0
H56 H 0.15079 0.87857 0.38799 0.0
N57 N 0.09036 0.85783 0.38065 0.0
N58 N 0.06912 0.84914 0.42106 0.0
C59 C 0.07252 0.86737 0.39999 0.0
C60 C 0.09891 0.83299 0.38998 0.0
C61 C 0.08588 0.82755 0.41485 0.0
C62 C 0.07712 0.82869 0.31439 0.0
O63 O 0.05572 0.82971 0.33125 0.0
H64 H 0.06149 0.88682 0.39812 0.0
H65 H 0.11312 0.81948 0.37905 0.0
O66 O 0.07665 0.90558 0.33811 0.0
H67 H 0.19948 0.89551 0.3677 0.0
H68 H 0.08837 0.80896 0.4272 0.0
Cu69 Cu 0.90468 0.12266 0.34202 0.0
N70 N 0.86847 0.10997 0.3385 0.0
N71 N 0.82857 0.09919 0.31761 0.0
C72 C 0.85283 0.11299 0.3156 0.0
C73 C 0.82896 0.087 0.34285 0.0
C74 C 0.85366 0.09376 0.35575 0.0
O75 O 0.90874 0.15225 0.31515 0.0
C76 C 0.95508 0.09202 0.33705 0.0
O77 O 0.96735 0.11467 0.3459 0.0
H78 H 0.85977 0.12399 0.29727 0.0
H79 H 0.86073 0.08665 0.37584 0.0
N80 N 0.91103 0.13571 0.37796 0.0
N81 N 0.9303 0.14164 0.41975 0.0
C82 C 0.929 0.12558 0.39683 0.0
C83 C 0.90026 0.15872 0.38945 0.0
C84 C 0.91207 0.16244 0.41523 0.0
C85 C 0.92641 0.17179 0.3161 0.0
O86 O 0.94485 0.17231 0.33616 0.0
H87 H 0.94117 0.10701 0.39366 0.0
H88 H 0.88558 0.17235 0.37932 0.0
O89 O 0.92894 0.09181 0.33355 0.0
H90 H 0.8128 0.07383 0.3512 0.0
H91 H 0.90847 0.17981 0.42899 0.0
Cu92 Cu 0.65467 0.09593 0.12118 0.0
N93 N 0.66089 0.13253 0.11051 0.0
N94 N 0.68287 0.17273 0.10324 0.0
C95 C 0.68497 0.14645 0.1128 0.0
C96 C 0.65633 0.17528 0.09453 0.0
C97 C 0.64286 0.15044 0.09901 0.0
O98 O 0.67659 0.08893 0.15413 0.0
C99 C 0.66757 0.04601 0.09268 0.0
O100 O 0.6632 0.03404 0.1168 0.0
H101 H 0.70372 0.13728 0.12104 0.0
H102 H 0.62141 0.14579 0.09433 0.0
N103 N 0.6172 0.09079 0.1296 0.0
N104 N 0.57554 0.07108 0.13519 0.0
C105 C 0.60166 0.06794 0.12541 0.0
C106 C 0.6004 0.10903 0.14237 0.0
C107 C 0.57471 0.09699 0.14582 0.0
C108 C 0.70228 0.083 0.15295 0.0
O109 O 0.71412 0.07991 0.12857 0.0
H110 H 0.60956 0.04917 0.11603 0.0
H111 H 0.60653 0.12958 0.14895 0.0
O112 O 0.66527 0.07218 0.0906 0.0
H113 H 0.64708 0.19385 0.08597 0.0
H114 H 0.55682 0.10664 0.15537 0.0
Cu115 Cu 0.34345 0.90516 0.12857 0.0
N116 N 0.34123 0.86834 0.11754 0.0
N117 N 0.32225 0.82699 0.10893 0.0
C118 C 0.31799 0.85297 0.11842 0.0
C119 C 0.34934 0.82608 0.10171 0.0
C120 C 0.36102 0.85168 0.1071 0.0
O121 O 0.31608 0.90952 0.15769 0.0
C122 C 0.33896 0.95394 0.09557 0.0
O123 O 0.34865 0.96695 0.11746 0.0
H124 H 0.29823 0.86095 0.12553 0.0
H125 H 0.38237 0.85773 0.1037 0.0
N126 N 0.379 0.913 0.14184 0.0
N127 N 0.42076 0.93268 0.14656 0.0
C128 C 0.39841 0.92924 0.12997 0.0
C129 C 0.38957 0.90545 0.16653 0.0
C130 C 0.4153 0.91755 0.16952 0.0
C131 C 0.31649 0.92755 0.17692 0.0
O132 O 0.33616 0.9464 0.17726 0.0
H133 H 0.39596 0.93874 0.10979 0.0
H134 H 0.37881 0.89289 0.18172 0.0
O135 O 0.33471 0.92795 0.09665 0.0
H136 H 0.36006 0.80814 0.09351 0.0
H137 H 0.42834 0.91636 0.18777 0.0
Cu138 Cu 0.65421 0.9049 0.87364 0.0
N139 N 0.65794 0.86959 0.88869 0.0
N140 N 0.67778 0.82919 0.89974 0.0
C141 C 0.68078 0.85373 0.88657 0.0
C142 C 0.65194 0.82976 0.91065 0.0
C143 C 0.63973 0.85476 0.90376 0.0
O144 O 0.68127 0.90758 0.84411 0.0
C145 C 0.68143 0.9322 0.91809 0.0
O146 O 0.70171 0.91463 0.91325 0.0
H147 H 0.6994 0.86038 0.87592 0.0
H148 H 0.61908 0.86163 0.90928 0.0
N149 N 0.61855 0.90997 0.85971 0.0
N150 N 0.57718 0.92936 0.85162 0.0
C151 C 0.60209 0.93208 0.86419 0.0
C152 C 0.60369 0.8926 0.84377 0.0
C153 C 0.57813 0.90448 0.83875 0.0
C154 C 0.68806 0.92946 0.83107 0.0
O155 O 0.67638 0.95318 0.83769 0.0
H156 H 0.60819 0.94959 0.87684 0.0
H157 H 0.61095 0.87269 0.8364 0.0
O158 O 0.66007 0.93189 0.90264 0.0
H159 H 0.64237 0.81321 0.92243 0.0
H160 H 0.56169 0.89562 0.8263 0.0
Cu161 Cu 0.3434 0.0928 0.87337 0.0
N162 N 0.34199 0.12986 0.88377 0.0
N163 N 0.3239 0.17166 0.8922 0.0
C164 C 0.31902 0.14566 0.88307 0.0
C165 C 0.35111 0.17213 0.89899 0.0
C166 C 0.36223 0.14626 0.89371 0.0
O167 O 0.31428 0.08817 0.84613 0.0
C168 C 0.33829 0.04456 0.90738 0.0
O169 O 0.34452 0.03048 0.8849 0.0
H170 H 0.299 0.13798 0.87641 0.0
H171 H 0.3835 0.13983 0.8969 0.0
N172 N 0.37796 0.08481 0.8577 0.0
N173 N 0.41871 0.06459 0.84831 0.0
C174 C 0.39682 0.06583 0.86585 0.0
C175 C 0.38838 0.09623 0.83447 0.0
C176 C 0.41346 0.08383 0.8286 0.0
C177 C 0.31389 0.07029 0.82677 0.0
O178 O 0.33378 0.05171 0.82522 0.0
H179 H 0.39419 0.05268 0.88384 0.0
H180 H 0.37816 0.11216 0.82241 0.0
O181 O 0.33651 0.07083 0.90629 0.0
H182 H 0.36225 0.18994 0.90688 0.0
H183 H 0.42672 0.08861 0.8111 0.0
Cu184 Cu 0.12564 0.65276 0.09633 0.0
N185 N 0.11219 0.65744 0.13227 0.0
N186 N 0.09946 0.67833 0.17159 0.0
C187 C 0.11013 0.68168 0.1459 0.0
C188 C 0.09466 0.65088 0.1742 0.0
C189 C 0.10242 0.63804 0.14982 0.0
O190 O 0.15519 0.6793 0.09015 0.0
C191 C 0.08162 0.68026 0.06816 0.0
O192 O 0.08883 0.70205 0.08284 0.0
H193 H 0.11669 0.70134 0.13724 0.0
H194 H 0.10094 0.61616 0.14516 0.0
N195 N 0.13897 0.61685 0.09119 0.0
N196 N 0.14801 0.57651 0.07017 0.0
C197 C 0.13772 0.60244 0.06733 0.0
C198 C 0.15051 0.59961 0.10986 0.0
C199 C 0.15613 0.57471 0.09696 0.0
C200 C 0.17667 0.67781 0.10541 0.0
O201 O 0.17812 0.65808 0.12418 0.0
H202 H 0.12937 0.61094 0.0483 0.0
H203 H 0.15415 0.60463 0.13142 0.0
O204 O 0.09536 0.65789 0.0706 0.0
H205 H 0.08581 0.64086 0.19226 0.0
H206 H 0.16482 0.5565 0.1068 0.0
Cu207 Cu 0.12796 0.34591 0.90638 0.0
N208 N 0.11397 0.33913 0.87106 0.0
N209 N 0.10275 0.31612 0.83248 0.0
C210 C 0.1171 0.31554 0.85652 0.0
C211 C 0.0901 0.34111 0.83192 0.0
C212 C 0.0971 0.35528 0.85578 0.0
O213 O 0.15829 0.32043 0.91318 0.0
C214 C 0.0831 0.31987 0.93463 0.0
O215 O 0.08843 0.29843 0.91868 0.0
H216 H 0.12886 0.29791 0.86397 0.0
H217 H 0.08998 0.37567 0.86187 0.0
N218 N 0.14009 0.38241 0.90953 0.0
N219 N 0.14794 0.4238 0.92882 0.0
C220 C 0.1398 0.39733 0.93308 0.0
C221 C 0.14875 0.39986 0.88955 0.0
C222 C 0.15371 0.42543 0.90141 0.0
C223 C 0.1799 0.32233 0.89812 0.0
O224 O 0.18119 0.34209 0.87938 0.0
H225 H 0.13349 0.38885 0.9529 0.0
H226 H 0.15067 0.39454 0.86783 0.0
O227 O 0.0983 0.34133 0.93295 0.0
H228 H 0.07667 0.34856 0.81554 0.0
H229 H 0.16014 0.44397 0.89049 0.0
Cu230 Cu 0.87679 0.65782 0.90517 0.0
N231 N 0.88642 0.66323 0.86814 0.0
N232 N 0.89375 0.68464 0.82763 0.0
C233 C 0.88502 0.68735 0.85415 0.0
C234 C 0.90093 0.65767 0.82497 0.0
C235 C 0.89639 0.64454 0.85 0.0
O236 O 0.84604 0.68238 0.91367 0.0
C237 C 0.9068 0.67036 0.95385 0.0
O238 O 0.88247 0.66794 0.96595 0.0
H239 H 0.87808 0.70655 0.86347 0.0
H240 H 0.90007 0.6229 0.85467 0.0
N241 N 0.86689 0.6208 0.91123 0.0
N242 N 0.86237 0.57908 0.93125 0.0
C243 C 0.87294 0.60499 0.9335 0.0
C244 C 0.85219 0.60436 0.89418 0.0
C245 C 0.84927 0.57874 0.90645 0.0
C246 C 0.82337 0.68012 0.90034 0.0
O247 O 0.82092 0.66038 0.88175 0.0
H248 H 0.88512 0.61234 0.95083 0.0
H249 H 0.84412 0.61059 0.87419 0.0
O250 O 0.90862 0.66701 0.92776 0.0
H251 H 0.90854 0.64797 0.80621 0.0
H252 H 0.83792 0.56142 0.89784 0.0
Cu253 Cu 0.8802 0.34805 0.09985 0.0
N254 N 0.89132 0.345 0.13673 0.0
N255 N 0.90336 0.32534 0.17692 0.0
C256 C 0.89737 0.32115 0.14988 0.0
C257 C 0.90101 0.35295 0.18089 0.0
C258 C 0.89367 0.36506 0.15598 0.0
O259 O 0.85062 0.32146 0.09357 0.0
C260 C 0.90964 0.3358 0.05063 0.0
O261 O 0.88518 0.3381 0.03882 0.0
H262 H 0.89648 0.30102 0.13998 0.0
H263 H 0.88993 0.38686 0.15228 0.0
N264 N 0.86765 0.38398 0.09226 0.0
N265 N 0.86064 0.42463 0.071 0.0
C266 C 0.87472 0.40038 0.0707 0.0
C267 C 0.84867 0.39845 0.10676 0.0
C268 C 0.84425 0.42347 0.09369 0.0
C269 C 0.83025 0.32039 0.11037 0.0
O270 O 0.82947 0.3378 0.13131 0.0
H271 H 0.88937 0.3944 0.05477 0.0
H272 H 0.83865 0.39129 0.12551 0.0
O273 O 0.91177 0.33929 0.07669 0.0
H274 H 0.90429 0.36361 0.20037 0.0
H275 H 0.83018 0.43961 0.10045 0.0
C276 C 0.94247 0.14989 0.46889 0.0
C277 C 0.9493 0.13899 0.44278 0.0
C278 C 0.96147 0.14908 0.49099 0.0
C279 C 0.98802 0.13716 0.48687 0.0
C280 C 0.9948 0.12548 0.46078 0.0
C281 C 0.97537 0.12651 0.43908 0.0
C282 C 0.95335 0.16154 0.51857 0.0
C283 C 0.02292 0.11269 0.45549 0.0
C284 C 0.04697 0.16237 0.53274 0.0
C285 C 0.04949 0.14072 0.55208 0.0
C286 C 0.02715 0.16138 0.51143 0.0
C287 C 0.0092 0.13824 0.50938 0.0
C288 C 0.01152 0.11632 0.52881 0.0
C289 C 0.03166 0.11779 0.54987 0.0
C290 C 0.02536 0.18521 0.49113 0.0
C291 C 0.99276 0.09129 0.52732 0.0
H292 H 0.92225 0.1592 0.47202 0.0
H293 H 0.98102 0.11836 0.41893 0.0
H294 H 0.95629 0.14613 0.53542 0.0
H295 H 0.96696 0.17948 0.52326 0.0
H296 H 0.93142 0.16868 0.51883 0.0
H297 H 0.02432 0.10295 0.43464 0.0
H298 H 0.03921 0.12886 0.4571 0.0
H299 H 0.02753 0.09672 0.47142 0.0
H300 H 0.06024 0.18039 0.53445 0.0
H301 H 0.0336 0.10079 0.56442 0.0
H302 H 0.00442 0.19474 0.49209 0.0
H303 H 0.0284 0.17751 0.46965 0.0
H304 H 0.04107 0.20153 0.49535 0.0
H305 H 0.97074 0.09788 0.52867 0.0
H306 H 0.99697 0.07616 0.5442 0.0
H307 H 0.99548 0.0807 0.50707 0.0
C308 C 0.04089 0.87718 0.4536 0.0
C309 C 0.04985 0.8512 0.44398 0.0
C310 C 0.02144 0.87939 0.47525 0.0
C311 C 0.01066 0.85502 0.48764 0.0
C312 C 0.01978 0.82876 0.47824 0.0
C313 C 0.03919 0.82717 0.45656 0.0
C314 C 0.0123 0.90779 0.48475 0.0
C315 C 0.00874 0.80227 0.49084 0.0
C316 C 0.97782 0.85872 0.5594 0.0
C317 C 0.94938 0.85866 0.55309 0.0
C318 C 0.99798 0.85786 0.53834 0.0
C319 C 0.98955 0.8569 0.51021 0.0
C320 C 0.9609 0.85704 0.50366 0.0
C321 C 0.9412 0.8579 0.52514 0.0
C322 C 0.02831 0.85764 0.54619 0.0
C323 C 0.95106 0.85614 0.47392 0.0
H324 H 0.04921 0.89586 0.44431 0.0
H325 H 0.04555 0.80699 0.44906 0.0
H326 H 0.98955 0.91003 0.48202 0.0
H327 H 0.01674 0.91037 0.50719 0.0
H328 H 0.02281 0.92471 0.47313 0.0
H329 H 0.01841 0.7835 0.48161 0.0
H330 H 0.01259 0.80211 0.51354 0.0
H331 H 0.98595 0.80107 0.48778 0.0
H332 H 0.98438 0.85894 0.58089 0.0
H333 H 0.91933 0.85829 0.52001 0.0
H334 H 0.03925 0.87511 0.53594 0.0
H335 H 0.03815 0.83819 0.53881 0.0
H336 H 0.03147 0.85929 0.56897 0.0
H337 H 0.95979 0.87392 0.46218 0.0
H338 H 0.92807 0.85681 0.47228 0.0
H339 H 0.9586 0.83692 0.46377 0.0
C340 C 0.44119 0.97486 0.12558 0.0
C341 C 0.44401 0.95109 0.14221 0.0
C342 C 0.463 0.99398 0.12279 0.0
C343 C 0.48829 0.98929 0.13699 0.0
C344 C 0.49157 0.96498 0.15316 0.0
C345 C 0.46942 0.9462 0.15556 0.0
C346 C 0.45864 0.01965 0.10535 0.0
C347 C 0.51826 0.95914 0.16851 0.0
C348 C 0.55281 0.0295 0.11541 0.0
C349 C 0.55354 0.05071 0.13534 0.0
C350 C 0.53168 0.0094 0.11559 0.0
C351 C 0.51074 0.01053 0.13619 0.0
C352 C 0.51129 0.03192 0.15629 0.0
C353 C 0.53266 0.05168 0.15564 0.0
C354 C 0.53174 0.98697 0.09374 0.0
C355 C 0.4894 0.03381 0.17866 0.0
H356 H 0.42159 0.97909 0.11545 0.0
H357 H 0.47194 0.92771 0.16808 0.0
H358 H 0.45916 0.0383 0.11882 0.0
H359 H 0.47564 0.02183 0.08997 0.0
H360 H 0.43851 0.01929 0.09411 0.0
H361 H 0.518 0.93865 0.17907 0.0
H362 H 0.53609 0.95972 0.15393 0.0
H363 H 0.52184 0.97546 0.18433 0.0
H364 H 0.5686 0.02875 0.09943 0.0
H365 H 0.53323 0.06766 0.17139 0.0
H366 H 0.51219 0.98778 0.08163 0.0
H367 H 0.5327 0.96627 0.10378 0.0
H368 H 0.54953 0.98894 0.07919 0.0
H369 H 0.46852 0.03548 0.16912 0.0
H370 H 0.49259 0.05192 0.19254 0.0
H371 H 0.48959 0.01467 0.19145 0.0
C372 C 0.52699 0.93974 0.84855 0.0
C373 C 0.55443 0.94888 0.85194 0.0
C374 C 0.50469 0.95852 0.8486 0.0
C375 C 0.50992 0.9872 0.85209 0.0
C376 C 0.53751 0.99658 0.85572 0.0
C377 C 0.5594 0.97733 0.85559 0.0
C378 C 0.47554 0.94768 0.84478 0.0
C379 C 0.54396 0.027 0.8594 0.0
C380 C 0.45605 0.03811 0.82507 0.0
C381 C 0.44189 0.04558 0.84942 0.0
C382 C 0.47826 0.01927 0.82569 0.0
C383 C 0.48656 0.00747 0.85127 0.0
C384 C 0.47247 0.01493 0.87596 0.0
C385 C 0.45035 0.0339 0.87474 0.0
C386 C 0.49271 0.01181 0.79888 0.0
C387 C 0.48074 0.00284 0.90367 0.0
H388 H 0.52287 0.9178 0.84614 0.0
H389 H 0.58051 0.98467 0.85785 0.0
H390 H 0.46244 0.95381 0.8627 0.0
H391 H 0.46614 0.957 0.82594 0.0
H392 H 0.47494 0.92474 0.84274 0.0
H393 H 0.56644 0.03084 0.86275 0.0
H394 H 0.5372 0.03872 0.84077 0.0
H395 H 0.53229 0.03541 0.87738 0.0
H396 H 0.44947 0.0466 0.80534 0.0
H397 H 0.43983 0.03976 0.89371 0.0
H398 H 0.4908 0.98921 0.79501 0.0
H399 H 0.51518 0.01659 0.80043 0.0
H400 H 0.48402 0.02313 0.78077 0.0
H401 H 0.47907 0.9799 0.90304 0.0
H402 H 0.46763 0.01069 0.92093 0.0
H403 H 0.50273 0.00793 0.90819 0.0
C404 C 0.13208 0.4448 0.97288 0.0
C405 C 0.14883 0.4459 0.94904 0.0
C406 C 0.13256 0.46613 0.99266 0.0
C407 C 0.15006 0.48932 0.98848 0.0
C408 C 0.16702 0.49065 0.96451 0.0
C409 C 0.16625 0.4689 0.94512 0.0
C410 C 0.11415 0.46393 0.01795 0.0
C411 C 0.18589 0.51509 0.95929 0.0
C412 C 0.13081 0.55553 0.02659 0.0
C413 C 0.14905 0.55501 0.04931 0.0
C414 C 0.13126 0.53456 0.00641 0.0
C415 C 0.15025 0.51233 0.00906 0.0
C416 C 0.16885 0.5117 0.03178 0.0
C417 C 0.16808 0.53307 0.05156 0.0
C418 C 0.11111 0.536 0.98245 0.0
C419 C 0.18935 0.48828 0.03536 0.0
H420 H 0.11818 0.42744 0.97595 0.0
H421 H 0.17949 0.46983 0.92699 0.0
H422 H 0.12687 0.46525 0.03709 0.0
H423 H 0.0993 0.48151 0.01838 0.0
H424 H 0.10219 0.44423 0.01844 0.0
H425 H 0.19785 0.51294 0.93969 0.0
H426 H 0.17348 0.53445 0.95825 0.0
H427 H 0.20072 0.51742 0.97674 0.0
H428 H 0.11573 0.57206 0.02478 0.0
H429 H 0.18253 0.53262 0.06875 0.0
H430 H 0.09696 0.51786 0.98306 0.0
H431 H 0.12252 0.53511 0.96246 0.0
H432 H 0.09839 0.55522 0.98281 0.0
H433 H 0.17809 0.46831 0.03742 0.0
H434 H 0.20274 0.49109 0.05391 0.0
H435 H 0.20281 0.48666 0.01674 0.0
C436 C 0.87016 0.56204 0.97923 0.0
C437 C 0.86409 0.55667 0.95122 0.0
C438 C 0.87104 0.54055 0.99893 0.0
C439 C 0.86538 0.51299 0.99058 0.0
C440 C 0.8596 0.50731 0.96237 0.0
C441 C 0.85922 0.52913 0.94305 0.0
C442 C 0.87751 0.54743 0.02881 0.0
C443 C 0.85331 0.47821 0.95264 0.0
C444 C 0.88684 0.45265 0.03691 0.0
C445 C 0.86198 0.44675 0.05088 0.0
C446 C 0.88838 0.47432 0.01743 0.0
C447 C 0.86437 0.49024 0.01153 0.0
C448 C 0.83919 0.48425 0.02545 0.0
C449 C 0.83835 0.4627 0.04502 0.0
C450 C 0.91569 0.48028 0.00327 0.0
C451 C 0.81303 0.50045 0.01947 0.0
H452 H 0.87368 0.58313 0.98602 0.0
H453 H 0.85506 0.52448 0.92149 0.0
H454 H 0.85924 0.54276 0.04202 0.0
H455 H 0.89492 0.53438 0.03636 0.0
H456 H 0.88314 0.56959 0.03164 0.0
H457 H 0.84971 0.47716 0.92989 0.0
H458 H 0.87073 0.46415 0.95799 0.0
H459 H 0.83457 0.47027 0.96342 0.0
H460 H 0.90522 0.44059 0.04158 0.0
H461 H 0.81899 0.45797 0.05543 0.0
H462 H 0.92205 0.50201 0.00739 0.0
H463 H 0.9134 0.47808 0.98048 0.0
H464 H 0.9325 0.4662 0.01039 0.0
H465 H 0.81643 0.52277 0.02384 0.0
H466 H 0.79512 0.49315 0.03204 0.0
H467 H 0.8076 0.49861 0.99717 0.0
C468 C 0.1862 0.07852 0.71998 0.0
C469 C 0.19446 0.09232 0.69571 0.0
C470 C 0.20526 0.0728 0.74126 0.0
C471 C 0.23319 0.08142 0.73834 0.0
C472 C 0.24177 0.09494 0.71368 0.0
C473 C 0.22233 0.10007 0.69259 0.0
C474 C 0.19538 0.05801 0.76707 0.0
C475 C 0.27128 0.10479 0.70993 0.0
C476 C 0.27488 0.09544 0.80364 0.0
C477 C 0.29231 0.07214 0.80492 0.0
C478 C 0.25546 0.09857 0.78221 0.0
C479 C 0.2531 0.07773 0.76168 0.0
C480 C 0.27014 0.05383 0.76317 0.0
C481 C 0.28969 0.05139 0.7847 0.0
C482 C 0.23785 0.12449 0.78124 0.0
C483 C 0.26793 0.03102 0.74185 0.0
H484 H 0.16476 0.07216 0.72228 0.0
H485 H 0.22874 0.111 0.67402 0.0
H486 H 0.20864 0.03966 0.77124 0.0
H487 H 0.1972 0.07201 0.78524 0.0
H488 H 0.17346 0.0511 0.76534 0.0
H489 H 0.27488 0.11397 0.68908 0.0
H490 H 0.27623 0.12062 0.72587 0.0
H491 H 0.28595 0.0873 0.7129 0.0
H492 H 0.2768 0.11166 0.81909 0.0
H493 H 0.303 0.03329 0.78559 0.0
H494 H 0.21552 0.11891 0.78148 0.0
H495 H 0.24185 0.13591 0.76164 0.0
H496 H 0.24205 0.13861 0.79896 0.0
H497 H 0.24624 0.02341 0.74068 0.0
H498 H 0.28178 0.01322 0.74664 0.0
H499 H 0.27343 0.03921 0.72104 0.0
C500 C 0.72002 0.90191 0.80085 0.0
C501 C 0.7088 0.92772 0.80834 0.0
C502 C 0.73947 0.89958 0.77931 0.0
C503 C 0.74806 0.92366 0.76487 0.0
C504 C 0.73694 0.94981 0.77234 0.0
C505 C 0.71739 0.95154 0.79397 0.0
C506 C 0.75079 0.87129 0.77199 0.0
C507 C 0.74572 0.97595 0.75749 0.0
C508 C 0.81686 0.91836 0.72666 0.0
C509 C 0.80823 0.9131 0.69935 0.0
C510 C 0.79751 0.92251 0.74805 0.0
C511 C 0.76878 0.92129 0.74204 0.0
C512 C 0.75991 0.91648 0.71445 0.0
C513 C 0.77974 0.91251 0.69343 0.0
C514 C 0.80782 0.92774 0.77717 0.0
C515 C 0.72946 0.91484 0.70724 0.0
H516 H 0.71355 0.88335 0.8118 0.0
H517 H 0.70887 0.97156 0.79961 0.0
H518 H 0.74623 0.86649 0.74994 0.0
H519 H 0.77368 0.8711 0.77443 0.0
H520 H 0.74187 0.85459 0.78516 0.0
H521 H 0.73522 0.99469 0.76584 0.0
H522 H 0.76849 0.97878 0.7594 0.0
H523 H 0.74095 0.97423 0.73503 0.0
H524 H 0.83882 0.91934 0.73131 0.0
H525 H 0.77291 0.9082 0.67247 0.0
H526 H 0.80105 0.91065 0.79104 0.0
H527 H 0.79872 0.94721 0.7854 0.0
H528 H 0.83081 0.92931 0.77816 0.0
H529 H 0.71983 0.89707 0.71828 0.0
H530 H 0.72597 0.91222 0.68461 0.0
H531 H 0.7186 0.93389 0.71422 0.0
C532 C 0.29483 0.9461 0.22059 0.0
C533 C 0.29579 0.92589 0.19968 0.0
C534 C 0.27585 0.94397 0.24269 0.0
C535 C 0.25758 0.921 0.24396 0.0
C536 C 0.25836 0.90065 0.22283 0.0
C537 C 0.27734 0.90339 0.20093 0.0
C538 C 0.27543 0.9662 0.26473 0.0
C539 C 0.2393 0.87577 0.22346 0.0
C540 C 0.22525 0.89779 0.3121 0.0
C541 C 0.19784 0.90712 0.30912 0.0
C542 C 0.2452 0.90296 0.29146 0.0
C543 C 0.23759 0.91799 0.26736 0.0
C544 C 0.21026 0.92844 0.26478 0.0
C545 C 0.19072 0.92281 0.28564 0.0
C546 C 0.27409 0.89133 0.2949 0.0
C547 C 0.20139 0.94477 0.23954 0.0
H548 H 0.30897 0.96356 0.21978 0.0
H549 H 0.27793 0.8876 0.18494 0.0
H550 H 0.25439 0.97542 0.26621 0.0
H551 H 0.28027 0.95696 0.28526 0.0
H552 H 0.2906 0.98302 0.26045 0.0
H553 H 0.24259 0.86176 0.20545 0.0
H554 H 0.24271 0.86377 0.24282 0.0
H555 H 0.21734 0.88267 0.22346 0.0
H556 H 0.23083 0.88546 0.33004 0.0
H557 H 0.1697 0.93047 0.28347 0.0
H558 H 0.28978 0.90789 0.29188 0.0
H559 H 0.27792 0.87529 0.27885 0.0
H560 H 0.27725 0.88183 0.31567 0.0
H561 H 0.21595 0.96219 0.23579 0.0
H562 H 0.18006 0.95326 0.2417 0.0
H563 H 0.20201 0.93124 0.22094 0.0
C564 C 0.74716 0.07436 0.17763 0.0
C565 C 0.71918 0.08234 0.17863 0.0
C566 C 0.76401 0.07574 0.20135 0.0
C567 C 0.75268 0.08553 0.22663 0.0
C568 C 0.72428 0.0929 0.22798 0.0
C569 C 0.70784 0.09111 0.20399 0.0
C570 C 0.79416 0.06745 0.19914 0.0
C571 C 0.71148 0.10359 0.25452 0.0
C572 C 0.79312 0.07155 0.29299 0.0
C573 C 0.80804 0.09633 0.29606 0.0
C574 C 0.77469 0.06783 0.27071 0.0
C575 C 0.77096 0.0895 0.2512 0.0
C576 C 0.78537 0.11484 0.25468 0.0
C577 C 0.80378 0.11789 0.277 0.0
C578 C 0.75981 0.04046 0.26759 0.0
C579 C 0.78174 0.13858 0.23453 0.0
H580 H 0.75607 0.06743 0.15817 0.0
H581 H 0.68625 0.09735 0.20497 0.0
H582 H 0.80754 0.08583 0.20272 0.0
H583 H 0.79934 0.05195 0.21536 0.0
H584 H 0.79932 0.05858 0.1785 0.0
H585 H 0.68875 0.10694 0.25255 0.0
H586 H 0.71529 0.0888 0.27174 0.0
H587 H 0.72134 0.12354 0.26035 0.0
H588 H 0.79656 0.05472 0.30748 0.0
H589 H 0.81497 0.13721 0.27953 0.0
H590 H 0.76644 0.03025 0.24805 0.0
H591 H 0.73709 0.04387 0.26614 0.0
H592 H 0.76403 0.02616 0.28518 0.0
H593 H 0.78869 0.13216 0.21354 0.0
H594 H 0.79368 0.15727 0.24077 0.0
H595 H 0.75948 0.14425 0.23293 0.0
C596 C 0.72701 0.19198 0.12104 0.0
C597 C 0.70433 0.19367 0.10282 0.0
C598 C 0.74785 0.21231 0.12112 0.0
C599 C 0.74591 0.23511 0.1027 0.0
C600 C 0.72324 0.23693 0.08413 0.0
C601 C 0.7028 0.21616 0.08434 0.0
C602 C 0.77175 0.20959 0.14122 0.0
C603 C 0.72039 0.261 0.06426 0.0
C604 C 0.78423 0.30059 0.12373 0.0
C605 C 0.80823 0.29916 0.10729 0.0
C606 C 0.76359 0.28015 0.12205 0.0
C607 C 0.76711 0.25756 0.10364 0.0
C608 C 0.79112 0.25613 0.08673 0.0
C609 C 0.81135 0.27704 0.08865 0.0
C610 C 0.73817 0.28256 0.14024 0.0
C611 C 0.79568 0.23224 0.06701 0.0
H612 H 0.7283 0.17502 0.1357 0.0
H613 H 0.68568 0.21752 0.06988 0.0
H614 H 0.79177 0.21036 0.12985 0.0
H615 H 0.77157 0.22726 0.15596 0.0
H616 H 0.77087 0.18998 0.1533 0.0
H617 H 0.70178 0.2591 0.05079 0.0
H618 H 0.71891 0.28069 0.07606 0.0
H619 H 0.73907 0.26244 0.05087 0.0
H620 H 0.78157 0.31768 0.13808 0.0
H621 H 0.82987 0.27574 0.07593 0.0
H622 H 0.73709 0.2646 0.15461 0.0
H623 H 0.71913 0.28213 0.1273 0.0
H624 H 0.73813 0.30192 0.15273 0.0
H625 H 0.79676 0.21252 0.07883 0.0
H626 H 0.81508 0.23456 0.05476 0.0
H627 H 0.77794 0.23051 0.05245 0.0
C628 C 0.22333 0.69566 0.11924 0.0
C629 C 0.19914 0.69868 0.10331 0.0
C630 C 0.24421 0.71592 0.11887 0.0
C631 C 0.24081 0.73988 0.10225 0.0
C632 C 0.21677 0.74278 0.08559 0.0
C633 C 0.19623 0.72211 0.08627 0.0
C634 C 0.26959 0.712 0.13685 0.0
C635 C 0.2124 0.76809 0.06764 0.0
C636 C 0.27911 0.80466 0.12522 0.0
C637 C 0.30197 0.80504 0.10716 0.0
C638 C 0.25897 0.78376 0.12362 0.0
C639 C 0.26173 0.76255 0.10353 0.0
C640 C 0.28474 0.7627 0.08523 0.0
C641 C 0.3046 0.78395 0.08727 0.0
C642 C 0.23481 0.78426 0.14363 0.0
C643 C 0.28839 0.74042 0.06354 0.0
H644 H 0.22586 0.67756 0.13235 0.0
H645 H 0.17762 0.72461 0.0739 0.0
H646 H 0.2887 0.71392 0.12413 0.0
H647 H 0.27036 0.72848 0.15289 0.0
H648 H 0.26978 0.69152 0.14741 0.0
H649 H 0.19337 0.76649 0.05474 0.0
H650 H 0.21068 0.78679 0.08094 0.0
H651 H 0.2305 0.77121 0.05375 0.0
H652 H 0.27713 0.82055 0.14096 0.0
H653 H 0.32199 0.78425 0.07304 0.0
H654 H 0.23492 0.76519 0.15653 0.0
H655 H 0.21495 0.78454 0.13199 0.0
H656 H 0.23537 0.80256 0.15761 0.0
H657 H 0.28978 0.7198 0.07369 0.0
H658 H 0.3073 0.74364 0.05074 0.0
H659 H 0.27006 0.73995 0.04962 0.0
C660 C 0.77484 0.69616 0.89157 0.0
C661 C 0.80082 0.70072 0.90388 0.0
C662 C 0.7539 0.71636 0.89269 0.0
C663 C 0.75913 0.74186 0.90623 0.0
C664 C 0.78501 0.74627 0.91945 0.0
C665 C 0.80552 0.72558 0.91822 0.0
C666 C 0.72649 0.71074 0.87858 0.0
C667 C 0.79141 0.77326 0.93396 0.0
C668 C 0.71848 0.80436 0.88092 0.0
C669 C 0.69804 0.80718 0.90149 0.0
C670 C 0.73858 0.78338 0.8824 0.0
C671 C 0.7382 0.76454 0.90493 0.0
C672 C 0.71762 0.76713 0.92575 0.0
C673 C 0.69779 0.78843 0.9238 0.0
C674 C 0.76013 0.78129 0.8597 0.0
C675 C 0.71655 0.74739 0.95007 0.0
H676 H 0.77096 0.67692 0.88063 0.0
H677 H 0.82554 0.72928 0.92776 0.0
H678 H 0.70908 0.7145 0.89318 0.0
H679 H 0.7238 0.72518 0.86084 0.0
H680 H 0.72499 0.68914 0.87072 0.0
H681 H 0.81175 0.77273 0.9448 0.0
H682 H 0.79174 0.7904 0.91858 0.0
H683 H 0.77497 0.77816 0.94932 0.0
H684 H 0.71859 0.81837 0.86335 0.0
H685 H 0.68232 0.79062 0.93995 0.0
H686 H 0.75838 0.76095 0.84911 0.0
H687 H 0.78126 0.78247 0.86877 0.0
H688 H 0.75796 0.79797 0.84394 0.0
H689 H 0.714 0.72581 0.94252 0.0
H690 H 0.69926 0.75224 0.96454 0.0
H691 H 0.73638 0.74822 0.96173 0.0
C692 C 0.30723 0.21499 0.91406 0.0
C693 C 0.30402 0.19396 0.89421 0.0
C694 C 0.2877 0.23652 0.91642 0.0
C695 C 0.26445 0.23704 0.89846 0.0
C696 C 0.26114 0.21592 0.87835 0.0
C697 C 0.28095 0.1947 0.87646 0.0
C698 C 0.29191 0.25868 0.93813 0.0
C699 C 0.23671 0.2158 0.8587 0.0
C700 C 0.19957 0.27796 0.91696 0.0
C701 C 0.20241 0.30145 0.9 0.0
C702 C 0.21996 0.25712 0.91723 0.0
C703 C 0.24377 0.2599 0.90021 0.0
C704 C 0.24714 0.28395 0.88369 0.0
C705 C 0.22642 0.30439 0.88376 0.0
C706 C 0.21563 0.23175 0.9351 0.0
C707 C 0.27227 0.28773 0.86533 0.0
H708 H 0.32479 0.2144 0.92806 0.0
H709 H 0.27854 0.17884 0.86075 0.0
H710 H 0.2933 0.27933 0.92806 0.0
H711 H 0.27383 0.25924 0.95239 0.0
H712 H 0.31101 0.25523 0.95057 0.0
H713 H 0.23693 0.19761 0.84455 0.0
H714 H 0.21701 0.2156 0.87062 0.0
H715 H 0.23681 0.23497 0.84596 0.0
H716 H 0.18109 0.27551 0.92957 0.0
H717 H 0.22888 0.32253 0.87068 0.0
H718 H 0.23393 0.22833 0.94863 0.0
H719 H 0.21347 0.21316 0.92171 0.0
H720 H 0.19684 0.23347 0.94836 0.0
H721 H 0.29156 0.28549 0.8777 0.0
H722 H 0.27252 0.3083 0.85493 0.0
H723 H 0.27261 0.27138 0.84915 0.0
C724 C 0.10448 0.80185 0.27944 0.0
C725 C 0.07908 0.80691 0.29279 0.0
C726 C 0.1071 0.78076 0.25958 0.0
C727 C 0.08367 0.76452 0.25257 0.0
C728 C 0.05786 0.76975 0.26565 0.0
C729 C 0.05591 0.79077 0.28577 0.0
C730 C 0.13506 0.77564 0.24633 0.0
C731 C 0.03233 0.75311 0.25842 0.0
C732 C 0.08719 0.72655 0.18358 0.0
C733 C 0.09449 0.69965 0.19195 0.0
C734 C 0.08294 0.74771 0.20312 0.0
C735 C 0.08638 0.7419 0.23172 0.0
C736 C 0.09348 0.71472 0.24032 0.0
C737 C 0.09729 0.69389 0.22033 0.0
C738 C 0.07506 0.77634 0.19315 0.0
C739 C 0.09769 0.70779 0.2706 0.0
H740 H 0.12254 0.81411 0.28482 0.0
H741 H 0.0362 0.79463 0.2959 0.0
H742 H 0.14184 0.75403 0.25047 0.0
H743 H 0.13353 0.77808 0.22349 0.0
H744 H 0.15126 0.79003 0.25416 0.0
H745 H 0.01367 0.76024 0.26993 0.0
H746 H 0.02811 0.75464 0.23583 0.0
H747 H 0.03587 0.73089 0.26321 0.0
H748 H 0.08459 0.73098 0.16169 0.0
H749 H 0.10321 0.67322 0.22686 0.0
H750 H 0.09155 0.79137 0.19877 0.0
H751 H 0.05568 0.78325 0.2035 0.0
H752 H 0.07193 0.77712 0.17032 0.0
H753 H 0.11503 0.72033 0.27908 0.0
H754 H 0.10245 0.68549 0.27391 0.0
H755 H 0.07882 0.71315 0.28266 0.0
C756 C 0.09804 0.20498 0.70986 0.0
C757 C 0.08899 0.17917 0.71984 0.0
C758 C 0.09983 0.22808 0.72749 0.0
C759 C 0.09214 0.22538 0.75572 0.0
C760 C 0.08237 0.19957 0.76577 0.0
C761 C 0.08103 0.17674 0.74774 0.0
C762 C 0.11053 0.25522 0.71605 0.0
C763 C 0.07374 0.19594 0.79569 0.0
C764 C 0.12233 0.2753 0.80865 0.0
C765 C 0.10036 0.29399 0.81253 0.0
C766 C 0.12004 0.25308 0.79001 0.0
C767 C 0.09508 0.24934 0.77497 0.0
C768 C 0.07289 0.26825 0.7786 0.0
C769 C 0.07584 0.29042 0.79726 0.0
C770 C 0.14429 0.23353 0.78651 0.0
C771 C 0.04588 0.26481 0.76311 0.0
H772 H 0.10431 0.20704 0.68835 0.0
H773 H 0.07391 0.15692 0.7556 0.0
H774 H 0.09516 0.27195 0.71972 0.0
H775 H 0.12987 0.26118 0.72701 0.0
H776 H 0.11495 0.2541 0.69345 0.0
H777 H 0.06547 0.17486 0.79994 0.0
H778 H 0.09177 0.19965 0.8095 0.0
H779 H 0.0576 0.21142 0.80119 0.0
H780 H 0.14145 0.27819 0.82011 0.0
H781 H 0.05868 0.30457 0.80043 0.0
H782 H 0.15078 0.23293 0.76442 0.0
H783 H 0.13803 0.21218 0.79239 0.0
H784 H 0.16242 0.23965 0.79935 0.0
H785 H 0.04976 0.2647 0.74042 0.0
H786 H 0.03081 0.28156 0.76794 0.0
H787 H 0.03634 0.24457 0.76851 0.0
C788 C 0.91366 0.70383 0.78434 0.0
C789 C 0.89499 0.70599 0.80661 0.0
C790 C 0.91474 0.72421 0.76352 0.0
C791 C 0.89678 0.7474 0.76501 0.0
C792 C 0.87813 0.74991 0.78758 0.0
C793 C 0.87742 0.72918 0.80804 0.0
C794 C 0.93491 0.72078 0.73977 0.0
C795 C 0.8586 0.77431 0.78991 0.0
C796 C 0.91325 0.8122 0.72291 0.0
C797 C 0.89513 0.80933 0.70031 0.0
C798 C 0.91421 0.79209 0.74404 0.0
C799 C 0.89674 0.76853 0.74244 0.0
C800 C 0.87876 0.76532 0.71945 0.0
C801 C 0.87813 0.78576 0.69873 0.0
C802 C 0.93358 0.79628 0.7683 0.0
C803 C 0.85992 0.74041 0.71689 0.0
H804 H 0.92761 0.68627 0.78324 0.0
H805 H 0.86265 0.7309 0.8249 0.0
H806 H 0.92339 0.7195 0.71988 0.0
H807 H 0.94876 0.73911 0.73844 0.0
H808 H 0.94791 0.70187 0.74197 0.0
H809 H 0.84612 0.77374 0.8093 0.0
H810 H 0.87048 0.794 0.78935 0.0
H811 H 0.8442 0.77452 0.77194 0.0
H812 H 0.92641 0.83037 0.72434 0.0
H813 H 0.86413 0.7833 0.68131 0.0
H814 H 0.94769 0.77821 0.77037 0.0
H815 H 0.92142 0.7977 0.78781 0.0
H816 H 0.94631 0.81536 0.76612 0.0
H817 H 0.87234 0.72105 0.71754 0.0
H818 H 0.84767 0.74067 0.69736 0.0
H819 H 0.84532 0.73977 0.73469 0.0
C820 C 0.90215 0.19633 0.27737 0.0
C821 C 0.92497 0.1945 0.29538 0.0
C822 C 0.89976 0.21812 0.25824 0.0
C823 C 0.92086 0.23849 0.2568 0.0
C824 C 0.94415 0.23661 0.27463 0.0
C825 C 0.94586 0.21471 0.29384 0.0
C826 C 0.87448 0.21949 0.23975 0.0
C827 C 0.96719 0.25779 0.27347 0.0
C828 C 0.92332 0.28002 0.18983 0.0
C829 C 0.90935 0.30438 0.1974 0.0
C830 C 0.92803 0.25877 0.20919 0.0
C831 C 0.91825 0.26183 0.23673 0.0
C832 C 0.90461 0.28662 0.24465 0.0
C833 C 0.90046 0.30766 0.22492 0.0
C834 C 0.94295 0.2328 0.20001 0.0
C835 C 0.89359 0.29054 0.27373 0.0
H836 H 0.88582 0.1809 0.27846 0.0
H837 H 0.96358 0.2134 0.30762 0.0
H838 H 0.86328 0.23929 0.24324 0.0
H839 H 0.88087 0.21905 0.21763 0.0
H840 H 0.85988 0.20205 0.24354 0.0
H841 H 0.98421 0.25302 0.28827 0.0
H842 H 0.97596 0.25873 0.25219 0.0
H843 H 0.95884 0.27868 0.27832 0.0
H844 H 0.93057 0.27759 0.16869 0.0
H845 H 0.8894 0.32631 0.23079 0.0
H846 H 0.92869 0.21479 0.20132 0.0
H847 H 0.96071 0.22847 0.21402 0.0
H848 H 0.95081 0.2344 0.17839 0.0
H849 H 0.87727 0.27487 0.27802 0.0
H850 H 0.88461 0.31152 0.27691 0.0
H851 H 0.91039 0.28728 0.28911 0.0
C852 C 0.00165 0.07493 0.66692 0.0
C853 C 0.03049 0.07372 0.67056 0.0
C854 C 0.98514 0.05116 0.67019 0.0
C855 C 0.99777 0.02567 0.67755 0.0
C856 C 0.02673 0.02458 0.68232 0.0
C857 C 0.04275 0.04858 0.67863 0.0
C858 C 0.95434 0.05308 0.66472 0.0
C859 C 0.04092 0.99786 0.69047 0.0
C860 C 0.95165 0.9669 0.70309 0.0
C861 C 0.94872 0.95093 0.67894 0.0
C862 C 0.96777 0.99119 0.70308 0.0
C863 C 0.98105 0.99976 0.67829 0.0
C864 C 0.97832 0.98361 0.65394 0.0
C865 C 0.96231 0.95937 0.65459 0.0
C866 C 0.97045 0.00778 0.7295 0.0
C867 C 0.99208 0.99211 0.62705 0.0
H868 H 0.99203 0.09427 0.66066 0.0
H869 H 0.06501 0.04753 0.68173 0.0
H870 H 0.94897 0.04032 0.64633 0.0
H871 H 0.94252 0.04466 0.68259 0.0
H872 H 0.94748 0.07474 0.66085 0.0
H873 H 0.06318 0.00098 0.69559 0.0
H874 H 0.03039 0.98846 0.70868 0.0
H875 H 0.03948 0.98276 0.67317 0.0
H876 H 0.94126 0.96051 0.72199 0.0
H877 H 0.96014 0.94722 0.63579 0.0
H878 H 0.96197 0.02894 0.72633 0.0
H879 H 0.99267 0.0101 0.73509 0.0
H880 H 0.95936 0.99797 0.74718 0.0
H881 H 0.98459 0.01292 0.62066 0.0
H882 H 0.98788 0.97725 0.60995 0.0
H883 H 0.01486 0.99363 0.62998 0.0
C884 C 0.99403 0.06099 0.35116 0.0
C885 C 0.97077 0.06586 0.33442 0.0
C886 C 0.00729 0.03506 0.35112 0.0
C887 C 0.99746 0.01382 0.33336 0.0
C888 C 0.97469 0.01906 0.31557 0.0
C889 C 0.96136 0.04492 0.3166 0.0
C890 C 0.03114 0.03008 0.37083 0.0
C891 C 0.96406 0.99719 0.29584 0.0
C892 C 0.0466 0.95368 0.31994 0.0
C893 C 0.03588 0.93327 0.3377 0.0
C894 C 0.03384 0.97976 0.31771 0.0
C895 C 0.01031 0.98578 0.33424 0.0
C896 C 0.99933 0.96517 0.35211 0.0
C897 C 0.01204 0.93901 0.35333 0.0
C898 C 0.04569 0.00094 0.29787 0.0
C899 C 0.97463 0.971 0.37051 0.0
H900 H 0.00115 0.07706 0.36518 0.0
H901 H 0.94344 0.04873 0.30354 0.0
H902 H 0.02569 0.01316 0.38548 0.0
H903 H 0.04979 0.02331 0.35918 0.0
H904 H 0.03649 0.04888 0.38302 0.0
H905 H 0.9476 0.00529 0.28187 0.0
H906 H 0.98135 0.98906 0.28296 0.0
H907 H 0.95547 0.97948 0.30776 0.0
H908 H 0.06496 0.94921 0.30772 0.0
H909 H 0.00389 0.92335 0.36729 0.0
H910 H 0.05339 0.01916 0.3096 0.0
H911 H 0.02924 0.00845 0.28361 0.0
H912 H 0.06305 0.99242 0.28532 0.0
H913 H 0.97935 0.98862 0.38454 0.0
H914 H 0.96875 0.95278 0.38335 0.0
H915 H 0.9565 0.97712 0.35772 0.0
C916 C 0.65816 0.96525 0.95055 0.0
C917 C 0.682 0.95038 0.94287 0.0
C918 C 0.65749 0.98097 0.97501 0.0
C919 C 0.68133 0.98213 0.99211 0.0
C920 C 0.70571 0.96779 0.98415 0.0
C921 C 0.70572 0.95195 0.95967 0.0
C922 C 0.63102 0.99585 0.98284 0.0
C923 C 0.73164 0.96887 0.0017 0.0
C924 C 0.68273 0.04199 0.0432 0.0
C925 C 0.67335 0.0292 0.06764 0.0
C926 C 0.68647 0.0267 0.01871 0.0
C927 C 0.68035 0.998 0.01857 0.0
C928 C 0.67158 0.98482 0.04335 0.0
C929 C 0.66835 0.00056 0.06765 0.0
C930 C 0.69621 0.04142 0.9928 0.0
C931 C 0.66459 0.9543 0.04394 0.0
H932 H 0.6397 0.96414 0.93776 0.0
H933 H 0.72424 0.9406 0.95385 0.0
H934 H 0.62333 0.98798 0.00308 0.0
H935 H 0.63506 0.01835 0.98533 0.0
H936 H 0.6144 0.99309 0.96711 0.0
H937 H 0.74925 0.9576 0.99199 0.0
H938 H 0.7379 0.99074 0.00518 0.0
H939 H 0.72746 0.9596 0.02236 0.0
H940 H 0.68686 0.06408 0.04309 0.0
H941 H 0.66105 0.99055 0.08643 0.0
H942 H 0.67942 0.04132 0.97706 0.0
H943 H 0.71424 0.0304 0.98366 0.0
H944 H 0.70223 0.06327 0.99692 0.0
H945 H 0.64658 0.95023 0.03019 0.0
H946 H 0.65943 0.9469 0.06517 0.0
H947 H 0.68227 0.94194 0.03591 0.0
C948 C 0.35379 0.99073 0.06234 0.0
C949 C 0.33616 0.96855 0.06879 0.0
C950 C 0.35327 0.00305 0.03594 0.0
C951 C 0.33409 0.99344 0.01585 0.0
C952 C 0.31556 0.97169 0.02264 0.0
C953 C 0.3171 0.95921 0.04892 0.0
C954 C 0.37381 0.02576 0.02929 0.0
C955 C 0.29433 0.96139 0.00205 0.0
C956 C 0.31954 0.04215 0.95561 0.0
C957 C 0.3357 0.03041 0.93445 0.0
C958 C 0.31815 0.02986 0.98198 0.0
C959 C 0.33394 0.00572 0.98751 0.0
C960 C 0.35015 0.99368 0.96614 0.0
C961 C 0.35053 0.00598 0.93971 0.0
C962 C 0.30003 0.04286 0.004 0.0
C963 C 0.36776 0.9683 0.9714 0.0
H964 H 0.36878 0.99774 0.07758 0.0
H965 H 0.30338 0.94211 0.05396 0.0
H966 H 0.38704 0.01937 0.01154 0.0
H967 H 0.36268 0.04488 0.02296 0.0
H968 H 0.38744 0.03075 0.04719 0.0
H969 H 0.28027 0.94557 0.01119 0.0
H970 H 0.28162 0.97897 0.99431 0.0
H971 H 0.30496 0.95213 0.98386 0.0
H972 H 0.30792 0.06097 0.9515 0.0
H973 H 0.36326 0.99703 0.92345 0.0
H974 H 0.31308 0.05044 0.02137 0.0
H975 H 0.28559 0.02716 0.01267 0.0
H976 H 0.2877 0.06054 0.99583 0.0
H977 H 0.38303 0.97273 0.98805 0.0
H978 H 0.37919 0.96151 0.95256 0.0
H979 H 0.35458 0.95091 0.9787 0.0
C980 C 0.93149 0.67234 0.9995 0.0
C981 C 0.93216 0.67512 0.97054 0.0
C982 C 0.95579 0.67489 0.01536 0.0
C983 C 0.98131 0.68065 0.00194 0.0
C984 C 0.98195 0.68442 0.97282 0.0
C985 C 0.9574 0.68146 0.95744 0.0
C986 C 0.95432 0.67049 0.04636 0.0
C987 C 0.0087 0.69086 0.9578 0.0
C988 C 0.04156 0.70553 0.04646 0.0
C989 C 0.05663 0.68091 0.05024 0.0
C990 C 0.01718 0.7059 0.03046 0.0
C991 C 0.00756 0.68102 0.01817 0.0
C992 C 0.02285 0.6562 0.02168 0.0
C993 C 0.04722 0.65647 0.03755 0.0
C994 C 0.00156 0.73281 0.02692 0.0
C995 C 0.01322 0.62921 0.00901 0.0
H996 H 0.91209 0.66739 0.00977 0.0
H997 H 0.95806 0.68385 0.93508 0.0
H998 H 0.96668 0.65195 0.05215 0.0
H999 H 0.96345 0.68849 0.05738 0.0
H1000 H 0.93269 0.6675 0.05377 0.0
H1001 H 0.00535 0.69516 0.93539 0.0
H1002 H 0.01898 0.7091 0.96734 0.0
H1003 H 0.02318 0.67307 0.95974 0.0
H1004 H 0.04872 0.72451 0.05613 0.0
H1005 H 0.05867 0.63732 0.04035 0.0
H1006 H 0.98047 0.73085 0.03595 0.0
H1007 H 0.99898 0.73755 0.00453 0.0
H1008 H 0.01227 0.75052 0.03703 0.0
H1009 H 0.99236 0.62377 0.01713 0.0
H1010 H 0.02763 0.61178 0.01351 0.0
H1011 H 0.01132 0.63144 0.98618 0.0
C1012 C 0.05001 0.34496 0.96568 0.0
C1013 C 0.05833 0.32017 0.95288 0.0
C1014 C 0.02578 0.34622 0.98174 0.0
C1015 C 0.00956 0.32202 0.9854 0.0
C1016 C 0.0181 0.29678 0.97304 0.0
C1017 C 0.04232 0.29618 0.95678 0.0
C1018 C 0.01728 0.37359 0.99441 0.0
C1019 C 0.0015 0.27049 0.9768 0.0
C1020 C 0.95993 0.32348 0.04661 0.0
C1021 C 0.93478 0.33054 0.03373 0.0
C1022 C 0.98425 0.31971 0.03102 0.0
C1023 C 0.98348 0.32343 0.00189 0.0
C1024 C 0.95806 0.33004 0.9887 0.0
C1025 C 0.93396 0.33334 0.00478 0.0
C1026 C 0.01089 0.31236 0.04579 0.0
C1027 C 0.95648 0.33445 0.95771 0.0
H1028 H 0.06217 0.36364 0.96273 0.0
H1029 H 0.04864 0.27694 0.94703 0.0
H1030 H 0.99657 0.37979 0.98647 0.0
H1031 H 0.0155 0.3715 0.01726 0.0
H1032 H 0.03228 0.39045 0.98971 0.0
H1033 H 0.01146 0.25236 0.96664 0.0
H1034 H 0.99894 0.26591 0.99923 0.0
H1035 H 0.98042 0.27323 0.96796 0.0
H1036 H 0.96068 0.32106 0.06896 0.0
H1037 H 0.91463 0.33885 0.99469 0.0
H1038 H 0.026 0.32958 0.04358 0.0
H1039 H 0.02039 0.2937 0.03624 0.0
H1040 H 0.0076 0.30832 0.06825 0.0
H1041 H 0.96955 0.35245 0.95176 0.0
H1042 H 0.93492 0.33834 0.95052 0.0
H1043 H 0.96475 0.31607 0.94664 0.0
loop_
_geom_bond_atom_site_label_1
_geom_bond_atom_site_label_2
_geom_bond_distance
_geom_bond_site_symmetry_2
_ccdc_geom_bond_type
Cu0 N1 1.999 . S
Cu0 O6 1.974 . S
Cu0 N11 1.985 . S
Cu0 O20 1.959 . S
N1 Cu0 1.999 . S
N1 C3 1.263 . S
N1 C5 1.389 . S
N2 C3 1.358 . S
N2 C4 1.400 . S
C3 N1 1.263 . S
C3 N2 1.358 . S
C3 H9 0.930 . S
C4 N2 1.400 . S
C4 C5 1.351 . S
C4 H21 0.930 . S
C5 N1 1.389 . S
C5 C4 1.351 . S
C5 H10 0.930 . S
O6 Cu0 1.974 . S
O6 C16 1.282 . S
C7 O8 1.261 . S
C7 O20 1.251 . S
O8 C7 1.261 . S
H9 C3 0.930 . S
H10 C5 0.930 . S
N11 Cu0 1.985 . S
N11 C13 1.335 . S
N11 C14 1.390 . S
N12 C13 1.345 . S
N12 C15 1.336 . S
C13 N11 1.335 . S
C13 N12 1.345 . S
C13 H18 0.930 . S
C14 N11 1.390 . S
C14 C15 1.346 . S
C14 H19 0.930 . S
C15 N12 1.336 . S
C15 C14 1.346 . S
C15 H22 0.929 . S
C16 O6 1.282 . S
C16 O17 1.216 . S
O17 C16 1.216 . S
H18 C13 0.930 . S
H19 C14 0.930 . S
O20 Cu0 1.959 . S
O20 C7 1.251 . S
H21 C4 0.930 . S
H22 C15 0.929 . S
Cu23 N24 1.999 . S
Cu23 O29 1.974 . S
Cu23 N34 1.985 . S
Cu23 O43 1.959 . S
N24 Cu23 1.999 . S
N24 C26 1.263 . S
N24 C28 1.389 . S
N25 C26 1.358 . S
N25 C27 1.400 . S
C26 N24 1.263 . S
C26 N25 1.358 . S
C26 H32 0.930 . S
C27 N25 1.400 . S
C27 C28 1.351 . S
C27 H44 0.930 . S
C28 N24 1.389 . S
C28 C27 1.351 . S
C28 H33 0.930 . S
O29 Cu23 1.974 . S
O29 C39 1.282 . S
C30 O31 1.261 . S
C30 O43 1.251 . S
O31 C30 1.261 . S
H32 C26 0.930 . S
H33 C28 0.930 . S
N34 Cu23 1.985 . S
N34 C36 1.335 . S
N34 C37 1.390 . S
N35 C36 1.345 . S
N35 C38 1.336 . S
C36 N34 1.335 . S
C36 N35 1.345 . S
C36 H41 0.930 . S
C37 N34 1.390 . S
C37 C38 1.346 . S
C37 H42 0.930 . S
C38 N35 1.336 . S
C38 C37 1.346 . S
C38 H45 0.929 . S
C39 O29 1.282 . S
C39 O40 1.216 . S
O40 C39 1.216 . S
H41 C36 0.930 . S
H42 C37 0.930 . S
O43 Cu23 1.959 . S
O43 C30 1.251 . S
H44 C27 0.930 . S
H45 C38 0.929 . S
Cu46 N47 1.999 . S
Cu46 O52 1.974 . S
Cu46 N57 1.985 . S
Cu46 O66 1.959 . S
N47 Cu46 1.999 . S
N47 C49 1.263 . S
N47 C51 1.389 . S
N48 C49 1.358 . S
N48 C50 1.400 . S
C49 N47 1.263 . S
C49 N48 1.358 . S
C49 H55 0.930 . S
C50 N48 1.400 . S
C50 C51 1.351 . S
C50 H67 0.930 . S
C51 N47 1.389 . S
C51 C50 1.351 . S
C51 H56 0.930 . S
O52 Cu46 1.974 . S
O52 C62 1.282 . S
C53 O54 1.261 . S
C53 O66 1.251 . S
O54 C53 1.261 . S
H55 C49 0.930 . S
H56 C51 0.930 . S
N57 Cu46 1.985 . S
N57 C59 1.335 . S
N57 C60 1.390 . S
N58 C59 1.345 . S
N58 C61 1.336 . S
C59 N57 1.335 . S
C59 N58 1.345 . S
C59 H64 0.930 . S
C60 N57 1.390 . S
C60 C61 1.346 . S
C60 H65 0.930 . S
C61 N58 1.336 . S
C61 C60 1.346 . S
C61 H68 0.929 . S
C62 O52 1.282 . S
C62 O63 1.216 . S
O63 C62 1.216 . S
H64 C59 0.930 . S
H65 C60 0.930 . S
O66 Cu46 1.959 . S
O66 C53 1.251 . S
H67 C50 0.930 . S
H68 C61 0.929 . S
Cu69 N70 1.999 . S
Cu69 O75 1.974 . S
Cu69 N80 1.985 . S
Cu69 O89 1.959 . S
N70 Cu69 1.999 . S
N70 C72 1.263 . S
N70 C74 1.389 . S
N71 C72 1.358 . S
N71 C73 1.400 . S
C72 N70 1.263 . S
C72 N71 1.358 . S
C72 H78 0.930 . S
C73 N71 1.400 . S
C73 C74 1.351 . S
C73 H90 0.930 . S
C74 N70 1.389 . S
C74 C73 1.351 . S
C74 H79 0.930 . S
O75 Cu69 1.974 . S
O75 C85 1.282 . S
C76 O77 1.261 . S
C76 O89 1.251 . S
O77 C76 1.261 . S
H78 C72 0.930 . S
H79 C74 0.930 . S
N80 Cu69 1.985 . S
N80 C82 1.335 . S
N80 C83 1.390 . S
N81 C82 1.345 . S
N81 C84 1.336 . S
C82 N80 1.335 . S
C82 N81 1.345 . S
C82 H87 0.930 . S
C83 N80 1.390 . S
C83 C84 1.346 . S
C83 H88 0.930 . S
C84 N81 1.336 . S
C84 C83 1.346 . S
C84 H91 0.929 . S
C85 O75 1.282 . S
C85 O86 1.216 . S
O86 C85 1.216 . S
H87 C82 0.930 . S
H88 C83 0.930 . S
O89 Cu69 1.959 . S
O89 C76 1.251 . S
H90 C73 0.930 . S
H91 C84 0.929 . S
Cu92 N93 1.999 . S
Cu92 O98 1.974 . S
Cu92 N103 1.985 . S
Cu92 O112 1.959 . S
N93 Cu92 1.999 . S
N93 C95 1.263 . S
N93 C97 1.389 . S
N94 C95 1.358 . S
N94 C96 1.400 . S
C95 N93 1.263 . S
C95 N94 1.358 . S
C95 H101 0.930 . S
C96 N94 1.400 . S
C96 C97 1.351 . S
C96 H113 0.930 . S
C97 N93 1.389 . S
C97 C96 1.351 . S
C97 H102 0.930 . S
O98 Cu92 1.974 . S
O98 C108 1.282 . S
C99 O100 1.261 . S
C99 O112 1.251 . S
O100 C99 1.261 . S
H101 C95 0.930 . S
H102 C97 0.930 . S
N103 Cu92 1.985 . S
N103 C105 1.335 . S
N103 C106 1.390 . S
N104 C105 1.345 . S
N104 C107 1.336 . S
C105 N103 1.335 . S
C105 N104 1.345 . S
C105 H110 0.930 . S
C106 N103 1.390 . S
C106 C107 1.346 . S
C106 H111 0.930 . S
C107 N104 1.336 . S
C107 C106 1.346 . S
C107 H114 0.929 . S
C108 O98 1.282 . S
C108 O109 1.216 . S
O109 C108 1.216 . S
H110 C105 0.930 . S
H111 C106 0.930 . S
O112 Cu92 1.959 . S
O112 C99 1.251 . S
H113 C96 0.930 . S
H114 C107 0.929 . S
Cu115 N116 1.999 . S
Cu115 O121 1.974 . S
Cu115 N126 1.985 . S
Cu115 O135 1.959 . S
N116 Cu115 1.999 . S
N116 C118 1.263 . S
N116 C120 1.389 . S
N117 C118 1.358 . S
N117 C119 1.400 . S
C118 N116 1.263 . S
C118 N117 1.358 . S
C118 H124 0.930 . S
C119 N117 1.400 . S
C119 C120 1.351 . S
C119 H136 0.930 . S
C120 N116 1.389 . S
C120 C119 1.351 . S
C120 H125 0.930 . S
O121 Cu115 1.974 . S
O121 C131 1.282 . S
C122 O123 1.261 . S
C122 O135 1.251 . S
O123 C122 1.261 . S
H124 C118 0.930 . S
H125 C120 0.930 . S
N126 Cu115 1.985 . S
N126 C128 1.335 . S
N126 C129 1.390 . S
N127 C128 1.345 . S
N127 C130 1.336 . S
C128 N126 1.335 . S
C128 N127 1.345 . S
C128 H133 0.930 . S
C129 N126 1.390 . S
C129 C130 1.346 . S
C129 H134 0.930 . S
C130 N127 1.336 . S
C130 C129 1.346 . S
C130 H137 0.929 . S
C131 O121 1.282 . S
C131 O132 1.216 . S
O132 C131 1.216 . S
H133 C128 0.930 . S
H134 C129 0.930 . S
O135 Cu115 1.959 . S
O135 C122 1.251 . S
H136 C119 0.930 . S
H137 C130 0.929 . S
Cu138 N139 1.999 . S
Cu138 O144 1.974 . S
Cu138 N149 1.985 . S
Cu138 O158 1.959 . S
N139 Cu138 1.999 . S
N139 C141 1.263 . S
N139 C143 1.389 . S
N140 C141 1.358 . S
N140 C142 1.400 . S
C141 N139 1.263 . S
C141 N140 1.358 . S
C141 H147 0.930 . S
C142 N140 1.400 . S
C142 C143 1.351 . S
C142 H159 0.930 . S
C143 N139 1.389 . S
C143 C142 1.351 . S
C143 H148 0.930 . S
O144 Cu138 1.974 . S
O144 C154 1.282 . S
C145 O146 1.261 . S
C145 O158 1.251 . S
O146 C145 1.261 . S
H147 C141 0.930 . S
H148 C143 0.930 . S
N149 Cu138 1.985 . S
N149 C151 1.335 . S
N149 C152 1.390 . S
N150 C151 1.345 . S
N150 C153 1.336 . S
C151 N149 1.335 . S
C151 N150 1.345 . S
C151 H156 0.930 . S
C152 N149 1.390 . S
C152 C153 1.346 . S
C152 H157 0.930 . S
C153 N150 1.336 . S
C153 C152 1.346 . S
C153 H160 0.929 . S
C154 O144 1.282 . S
C154 O155 1.216 . S
O155 C154 1.216 . S
H156 C151 0.930 . S
H157 C152 0.930 . S
O158 Cu138 1.959 . S
O158 C145 1.251 . S
H159 C142 0.930 . S
H160 C153 0.929 . S
Cu161 N162 1.999 . S
Cu161 O167 1.974 . S
Cu161 N172 1.985 . S
Cu161 O181 1.959 . S
N162 Cu161 1.999 . S
N162 C164 1.263 . S
N162 C166 1.389 . S
N163 C164 1.358 . S
N163 C165 1.400 . S
C164 N162 1.263 . S
C164 N163 1.358 . S
C164 H170 0.930 . S
C165 N163 1.400 . S
C165 C166 1.351 . S
C165 H182 0.930 . S
C166 N162 1.389 . S
C166 C165 1.351 . S
C166 H171 0.930 . S
O167 Cu161 1.974 . S
O167 C177 1.282 . S
C168 O169 1.261 . S
C168 O181 1.251 . S
O169 C168 1.261 . S
H170 C164 0.930 . S
H171 C166 0.930 . S
N172 Cu161 1.985 . S
N172 C174 1.335 . S
N172 C175 1.390 . S
N173 C174 1.345 . S
N173 C176 1.336 . S
C174 N172 1.335 . S
C174 N173 1.345 . S
C174 H179 0.930 . S
C175 N172 1.390 . S
C175 C176 1.346 . S
C175 H180 0.930 . S
C176 N173 1.336 . S
C176 C175 1.346 . S
C176 H183 0.929 . S
C177 O167 1.282 . S
C177 O178 1.216 . S
O178 C177 1.216 . S
H179 C174 0.930 . S
H180 C175 0.930 . S
O181 Cu161 1.959 . S
O181 C168 1.251 . S
H182 C165 0.930 . S
H183 C176 0.929 . S
Cu184 N185 1.999 . S
Cu184 O190 1.974 . S
Cu184 N195 1.985 . S
Cu184 O204 1.959 . S
N185 Cu184 1.999 . S
N185 C187 1.263 . S
N185 C189 1.389 . S
N186 C187 1.358 . S
N186 C188 1.400 . S
C187 N185 1.263 . S
C187 N186 1.358 . S
C187 H193 0.930 . S
C188 N186 1.400 . S
C188 C189 1.351 . S
C188 H205 0.930 . S
C189 N185 1.389 . S
C189 C188 1.351 . S
C189 H194 0.930 . S
O190 Cu184 1.974 . S
O190 C200 1.282 . S
C191 O192 1.261 . S
C191 O204 1.251 . S
O192 C191 1.261 . S
H193 C187 0.930 . S
H194 C189 0.930 . S
N195 Cu184 1.985 . S
N195 C197 1.335 . S
N195 C198 1.390 . S
N196 C197 1.345 . S
N196 C199 1.336 . S
C197 N195 1.335 . S
C197 N196 1.345 . S
C197 H202 0.930 . S
C198 N195 1.390 . S
C198 C199 1.346 . S
C198 H203 0.930 . S
C199 N196 1.336 . S
C199 C198 1.346 . S
C199 H206 0.929 . S
C200 O190 1.282 . S
C200 O201 1.216 . S
O201 C200 1.216 . S
H202 C197 0.930 . S
H203 C198 0.930 . S
O204 Cu184 1.959 . S
O204 C191 1.251 . S
H205 C188 0.930 . S
H206 C199 0.929 . S
Cu207 N208 1.999 . S
Cu207 O213 1.974 . S
Cu207 N218 1.985 . S
Cu207 O227 1.959 . S
N208 Cu207 1.999 . S
N208 C210 1.263 . S
N208 C212 1.389 . S
N209 C210 1.358 . S
N209 C211 1.400 . S
C210 N208 1.263 . S
C210 N209 1.358 . S
C210 H216 0.930 . S
C211 N209 1.400 . S
C211 C212 1.351 . S
C211 H228 0.930 . S
C212 N208 1.389 . S
C212 C211 1.351 . S
C212 H217 0.930 . S
O213 Cu207 1.974 . S
O213 C223 1.282 . S
C214 O215 1.261 . S
C214 O227 1.251 . S
O215 C214 1.261 . S
H216 C210 0.930 . S
H217 C212 0.930 . S
N218 Cu207 1.985 . S
N218 C220 1.335 . S
N218 C221 1.390 . S
N219 C220 1.345 . S
N219 C222 1.336 . S
C220 N218 1.335 . S
C220 N219 1.345 . S
C220 H225 0.930 . S
C221 N218 1.390 . S
C221 C222 1.346 . S
C221 H226 0.930 . S
C222 N219 1.336 . S
C222 C221 1.346 . S
C222 H229 0.929 . S
C223 O213 1.282 . S
C223 O224 1.216 . S
O224 C223 1.216 . S
H225 C220 0.930 . S
H226 C221 0.930 . S
O227 Cu207 1.959 . S
O227 C214 1.251 . S
H228 C211 0.930 . S
H229 C222 0.929 . S
Cu230 N231 1.999 . S
Cu230 O236 1.974 . S
Cu230 N241 1.985 . S
Cu230 O250 1.959 . S
N231 Cu230 1.999 . S
N231 C233 1.263 . S
N231 C235 1.389 . S
N232 C233 1.358 . S
N232 C234 1.400 . S
C233 N231 1.263 . S
C233 N232 1.358 . S
C233 H239 0.930 . S
C234 N232 1.400 . S
C234 C235 1.351 . S
C234 H251 0.930 . S
C235 N231 1.389 . S
C235 C234 1.351 . S
C235 H240 0.930 . S
O236 Cu230 1.974 . S
O236 C246 1.282 . S
C237 O238 1.261 . S
C237 O250 1.251 . S
O238 C237 1.261 . S
H239 C233 0.930 . S
H240 C235 0.930 . S
N241 Cu230 1.985 . S
N241 C243 1.335 . S
N241 C244 1.390 . S
N242 C243 1.345 . S
N242 C245 1.336 . S
C243 N241 1.335 . S
C243 N242 1.345 . S
C243 H248 0.930 . S
C244 N241 1.390 . S
C244 C245 1.346 . S
C244 H249 0.930 . S
C245 N242 1.336 . S
C245 C244 1.346 . S
C245 H252 0.929 . S
C246 O236 1.282 . S
C246 O247 1.216 . S
O247 C246 1.216 . S
H248 C243 0.930 . S
H249 C244 0.930 . S
O250 Cu230 1.959 . S
O250 C237 1.251 . S
H251 C234 0.930 . S
H252 C245 0.929 . S
Cu253 N254 1.999 . S
Cu253 O259 1.974 . S
Cu253 N264 1.985 . S
Cu253 O273 1.959 . S
N254 Cu253 1.999 . S
N254 C256 1.263 . S
N254 C258 1.389 . S
N255 C256 1.358 . S
N255 C257 1.400 . S
C256 N254 1.263 . S
C256 N255 1.358 . S
C256 H262 0.930 . S
C257 N255 1.400 . S
C257 C258 1.351 . S
C257 H274 0.930 . S
C258 N254 1.389 . S
C258 C257 1.351 . S
C258 H263 0.930 . S
O259 Cu253 1.974 . S
O259 C269 1.282 . S
C260 O261 1.261 . S
C260 O273 1.251 . S
O261 C260 1.261 . S
H262 C256 0.930 . S
H263 C258 0.930 . S
N264 Cu253 1.985 . S
N264 C266 1.335 . S
N264 C267 1.390 . S
N265 C266 1.345 . S
N265 C268 1.336 . S
C266 N264 1.335 . S
C266 N265 1.345 . S
C266 H271 0.930 . S
C267 N264 1.390 . S
C267 C268 1.346 . S
C267 H272 0.930 . S
C268 N265 1.336 . S
C268 C267 1.346 . S
C268 H275 0.929 . S
C269 O259 1.282 . S
C269 O270 1.216 . S
O270 C269 1.216 . S
H271 C266 0.930 . S
H272 C267 0.930 . S
O273 Cu253 1.959 . S
O273 C260 1.251 . S
H274 C257 0.930 . S
H275 C268 0.929 . S
C276 C277 1.391 . S
C276 C278 1.394 . S
C276 H292 0.931 . S
C277 C276 1.391 . S
C277 C281 1.376 . S
C278 C276 1.394 . S
C278 C279 1.369 . S
C278 C282 1.531 . S
C279 C278 1.369 . S
C279 C280 1.410 1_655 S
C279 C287 1.503 1_655 S
C280 C279 1.410 1_455 S
C280 C281 1.392 1_455 S
C280 C283 1.511 . S
C281 C277 1.376 . S
C281 C280 1.392 1_655 S
C281 H293 0.929 . S
C282 C278 1.531 . S
C282 H294 0.960 . S
C282 H295 0.962 . S
C282 H296 0.960 . S
C283 C280 1.511 . S
C283 H297 0.961 . S
C283 H298 0.961 . S
C283 H299 0.961 . S
C284 C285 1.370 . S
C284 C286 1.363 . S
C284 H300 0.931 . S
C285 C284 1.370 . S
C285 C289 1.408 . S
C286 C284 1.363 . S
C286 C287 1.370 . S
C286 C290 1.524 1_455 S
C287 C279 1.503 1_455 S
C287 C286 1.370 . S
C287 C288 1.403 . S
C288 C287 1.403 . S
C288 C289 1.404 . S
C288 C291 1.539 . S
C289 C285 1.408 . S
C289 C288 1.404 . S
C289 H301 0.930 . S
C290 C286 1.524 1_655 S
C290 H302 0.956 . S
C290 H303 0.961 . S
C290 H304 0.961 . S
C291 C288 1.539 . S
C291 H305 0.958 . S
C291 H306 0.961 . S
C291 H307 0.960 . S
H292 C276 0.931 . S
H293 C281 0.929 . S
H294 C282 0.960 . S
H295 C282 0.962 . S
H296 C282 0.960 . S
H297 C283 0.961 . S
H298 C283 0.961 . S
H299 C283 0.961 . S
H300 C284 0.931 . S
H301 C289 0.930 . S
H302 C290 0.956 . S
H303 C290 0.961 . S
H304 C290 0.961 . S
H305 C291 0.958 . S
H306 C291 0.961 . S
H307 C291 0.960 . S
C308 C309 1.391 . S
C308 C310 1.394 . S
C308 H324 0.931 . S
C309 C308 1.391 . S
C309 C313 1.376 . S
C310 C308 1.394 . S
C310 C311 1.369 . S
C310 C314 1.531 . S
C311 C310 1.369 . S
C311 C312 1.410 1_455 S
C311 C319 1.503 1_455 S
C312 C311 1.410 1_655 S
C312 C313 1.392 1_655 S
C312 C315 1.511 . S
C313 C309 1.376 . S
C313 C312 1.392 1_455 S
C313 H325 0.929 . S
C314 C310 1.531 . S
C314 H326 0.960 . S
C314 H327 0.962 . S
C314 H328 0.960 . S
C315 C312 1.511 . S
C315 H329 0.961 . S
C315 H330 0.961 . S
C315 H331 0.961 . S
C316 C317 1.370 . S
C316 C318 1.363 . S
C316 H332 0.931 . S
C317 C316 1.370 . S
C317 C321 1.408 . S
C318 C316 1.363 . S
C318 C319 1.370 . S
C318 C322 1.524 1_655 S
C319 C311 1.503 1_655 S
C319 C318 1.370 . S
C319 C320 1.403 . S
C320 C319 1.403 . S
C320 C321 1.404 . S
C320 C323 1.539 . S
C321 C317 1.408 . S
C321 C320 1.404 . S
C321 H333 0.930 . S
C322 C318 1.524 1_455 S
C322 H334 0.956 . S
C322 H335 0.961 . S
C322 H336 0.961 . S
C323 C320 1.539 . S
C323 H337 0.958 . S
C323 H338 0.961 . S
C323 H339 0.960 . S
H324 C308 0.931 . S
H325 C313 0.929 . S
H326 C314 0.960 . S
H327 C314 0.962 . S
H328 C314 0.960 . S
H329 C315 0.961 . S
H330 C315 0.961 . S
H331 C315 0.961 . S
H332 C316 0.931 . S
H333 C321 0.930 . S
H334 C322 0.956 . S
H335 C322 0.961 . S
H336 C322 0.961 . S
H337 C323 0.958 . S
H338 C323 0.961 . S
H339 C323 0.960 . S
C340 C341 1.391 . S
C340 C342 1.394 1_565 S
C340 H356 0.924 1_565 S
C341 C340 1.391 . S
C341 C345 1.376 . S
C342 C340 1.394 1_545 S
C342 C343 1.369 1_545 S
C342 C346 1.531 . S
C343 C342 1.369 1_565 S
C343 C344 1.410 . S
C343 C351 1.503 1_565 S
C344 C343 1.410 . S
C344 C345 1.392 . S
C344 C347 1.511 . S
C345 C341 1.376 . S
C345 C344 1.392 . S
C345 H357 0.929 . S
C346 C342 1.531 . S
C346 H358 0.960 . S
C346 H359 0.962 . S
C346 H360 0.960 . S
C347 C344 1.511 . S
C347 H361 0.961 . S
C347 H362 0.961 . S
C347 H363 0.961 . S
C348 C349 1.370 . S
C348 C350 1.363 . S
C348 H364 0.931 . S
C349 C348 1.370 . S
C349 C353 1.408 . S
C350 C348 1.363 . S
C350 C351 1.370 . S
C350 C354 1.524 1_545 S
C351 C343 1.503 1_545 S
C351 C350 1.370 . S
C351 C352 1.403 . S
C352 C351 1.403 . S
C352 C353 1.404 . S
C352 C355 1.539 . S
C353 C349 1.408 . S
C353 C352 1.404 . S
C353 H365 0.930 . S
C354 C350 1.524 1_565 S
C354 H366 0.956 1_565 S
C354 H367 0.961 . S
C354 H368 0.961 . S
C355 C352 1.539 . S
C355 H369 0.958 . S
C355 H370 0.961 . S
C355 H371 0.960 . S
H356 C340 0.924 1_545 S
H357 C345 0.929 . S
H358 C346 0.960 . S
H359 C346 0.962 . S
H360 C346 0.960 . S
H361 C347 0.961 . S
H362 C347 0.961 . S
H363 C347 0.961 . S
H364 C348 0.931 . S
H365 C353 0.930 . S
H366 C354 0.956 1_545 S
H367 C354 0.961 . S
H368 C354 0.961 . S
H369 C355 0.958 . S
H370 C355 0.961 . S
H371 C355 0.960 . S
C372 C373 1.391 . S
C372 C374 1.394 . S
C372 H388 0.931 . S
C373 C372 1.391 . S
C373 C377 1.376 . S
C374 C372 1.394 . S
C374 C375 1.369 . S
C374 C378 1.531 . S
C375 C374 1.369 . S
C375 C376 1.402 1_565 S
C375 C383 1.503 1_565 S
C376 C375 1.402 1_545 S
C376 C377 1.383 1_545 S
C376 C379 1.528 . S
C377 C373 1.376 . S
C377 C376 1.383 1_565 S
C377 H389 0.929 . S
C378 C374 1.531 . S
C378 H390 0.960 . S
C378 H391 0.962 . S
C378 H392 0.960 . S
C379 C376 1.528 . S
C379 H393 0.961 . S
C379 H394 0.961 . S
C379 H395 0.961 . S
C380 C381 1.370 . S
C380 C382 1.363 . S
C380 H396 0.931 . S
C381 C380 1.370 . S
C381 C385 1.408 . S
C382 C380 1.363 . S
C382 C383 1.370 . S
C382 C386 1.524 . S
C383 C375 1.503 1_545 S
C383 C382 1.370 . S
C383 C384 1.403 . S
C384 C383 1.403 . S
C384 C385 1.404 . S
C384 C387 1.539 1_545 S
C385 C381 1.408 . S
C385 C384 1.404 . S
C385 H397 0.930 . S
C386 C382 1.524 . S
C386 H398 0.956 . S
C386 H399 0.961 . S
C386 H400 0.961 . S
C387 C384 1.539 1_565 S
C387 H401 0.958 . S
C387 H402 0.961 . S
C387 H403 0.960 . S
H388 C372 0.931 . S
H389 C377 0.929 . S
H390 C378 0.960 . S
H391 C378 0.962 . S
H392 C378 0.960 . S
H393 C379 0.961 . S
H394 C379 0.961 . S
H395 C379 0.961 . S
H396 C380 0.931 . S
H397 C385 0.930 . S
H398 C386 0.956 . S
H399 C386 0.961 . S
H400 C386 0.961 . S
H401 C387 0.958 . S
H402 C387 0.961 . S
H403 C387 0.960 . S
C404 C405 1.391 . S
C404 C406 1.394 . S
C404 H420 0.931 . S
C405 C404 1.391 . S
C405 C409 1.376 . S
C406 C404 1.394 . S
C406 C407 1.369 . S
C406 C410 1.531 1_556 S
C407 C406 1.369 . S
C407 C408 1.410 . S
C407 C415 1.503 1_556 S
C408 C407 1.410 . S
C408 C409 1.392 . S
C408 C411 1.511 . S
C409 C405 1.376 . S
C409 C408 1.392 . S
C409 H421 0.929 . S
C410 C406 1.531 1_554 S
C410 H422 0.960 . S
C410 H423 0.962 . S
C410 H424 0.960 . S
C411 C408 1.511 . S
C411 H425 0.961 . S
C411 H426 0.961 . S
C411 H427 0.961 . S
C412 C413 1.370 . S
C412 C414 1.363 1_554 S
C412 H428 0.931 . S
C413 C412 1.370 . S
C413 C417 1.408 . S
C414 C412 1.363 1_556 S
C414 C415 1.370 1_556 S
C414 C418 1.524 . S
C415 C407 1.503 1_554 S
C415 C414 1.370 1_554 S
C415 C416 1.403 . S
C416 C415 1.403 . S
C416 C417 1.404 . S
C416 C419 1.539 . S
C417 C413 1.408 . S
C417 C416 1.404 . S
C417 H429 0.930 . S
C418 C414 1.524 . S
C418 H430 0.956 . S
C418 H431 0.961 . S
C418 H432 0.961 . S
C419 C416 1.539 . S
C419 H433 0.958 . S
C419 H434 0.961 . S
C419 H435 0.960 . S
H420 C404 0.931 . S
H421 C409 0.929 . S
H422 C410 0.960 . S
H423 C410 0.962 . S
H424 C410 0.960 . S
H425 C411 0.961 . S
H426 C411 0.961 . S
H427 C411 0.961 . S
H428 C412 0.931 . S
H429 C417 0.930 . S
H430 C418 0.956 . S
H431 C418 0.961 . S
H432 C418 0.961 . S
H433 C419 0.958 . S
H434 C419 0.961 . S
H435 C419 0.960 . S
C436 C437 1.391 . S
C436 C438 1.394 1_556 S
C436 H452 0.931 . S
C437 C436 1.391 . S
C437 C441 1.376 . S
C438 C436 1.394 1_554 S
C438 C439 1.369 1_554 S
C438 C442 1.531 . S
C439 C438 1.369 1_556 S
C439 C440 1.410 . S
C439 C447 1.503 1_556 S
C440 C439 1.410 . S
C440 C441 1.392 . S
C440 C443 1.511 . S
C441 C437 1.376 . S
C441 C440 1.392 . S
C441 H453 0.929 . S
C442 C438 1.531 . S
C442 H454 0.960 . S
C442 H455 0.962 . S
C442 H456 0.960 . S
C443 C440 1.511 . S
C443 H457 0.961 . S
C443 H458 0.961 . S
C443 H459 0.961 . S
C444 C445 1.370 . S
C444 C446 1.368 . S
C444 H460 0.931 . S
C445 C444 1.370 . S
C445 C449 1.408 . S
C446 C444 1.368 . S
C446 C447 1.375 . S
C446 C450 1.515 1_554 S
C447 C439 1.503 1_554 S
C447 C446 1.375 . S
C447 C448 1.403 . S
C448 C447 1.403 . S
C448 C449 1.404 . S
C448 C451 1.539 . S
C449 C445 1.408 . S
C449 C448 1.404 . S
C449 H461 0.930 . S
C450 C446 1.515 1_556 S
C450 H462 0.956 . S
C450 H463 0.961 . S
C450 H464 0.961 . S
C451 C448 1.539 . S
C451 H465 0.958 . S
C451 H466 0.961 . S
C451 H467 0.960 . S
H452 C436 0.931 . S
H453 C441 0.929 . S
H454 C442 0.960 . S
H455 C442 0.962 . S
H456 C442 0.960 . S
H457 C443 0.961 . S
H458 C443 0.961 . S
H459 C443 0.961 . S
H460 C444 0.931 . S
H461 C449 0.930 . S
H462 C450 0.956 . S
H463 C450 0.961 . S
H464 C450 0.961 . S
H465 C451 0.958 . S
H466 C451 0.961 . S
H467 C451 0.960 . S
C468 C469 1.391 . S
C468 C470 1.394 . S
C468 H484 0.931 . S
C469 C468 1.391 . S
C469 C473 1.376 . S
C470 C468 1.394 . S
C470 C471 1.369 . S
C470 C474 1.531 . S
C471 C470 1.369 . S
C471 C472 1.410 . S
C471 C479 1.503 . S
C472 C471 1.410 . S
C472 C473 1.392 . S
C472 C475 1.511 . S
C473 C469 1.376 . S
C473 C472 1.392 . S
C473 H485 0.929 . S
C474 C470 1.531 . S
C474 H486 0.960 . S
C474 H487 0.962 . S
C474 H488 0.960 . S
C475 C472 1.511 . S
C475 H489 0.961 . S
C475 H490 0.961 . S
C475 H491 0.961 . S
C476 C477 1.370 . S
C476 C478 1.363 . S
C476 H492 0.931 . S
C477 C476 1.370 . S
C477 C481 1.408 . S
C478 C476 1.363 . S
C478 C479 1.370 . S
C478 C482 1.524 . S
C479 C471 1.503 . S
C479 C478 1.370 . S
C479 C480 1.403 . S
C480 C479 1.403 . S
C480 C481 1.404 . S
C480 C483 1.539 . S
C481 C477 1.408 . S
C481 C480 1.404 . S
C481 H493 0.930 . S
C482 C478 1.524 . S
C482 H494 0.956 . S
C482 H495 0.961 . S
C482 H496 0.961 . S
C483 C480 1.539 . S
C483 H497 0.958 . S
C483 H498 0.961 . S
C483 H499 0.960 . S
H484 C468 0.931 . S
H485 C473 0.929 . S
H486 C474 0.960 . S
H487 C474 0.962 . S
H488 C474 0.960 . S
H489 C475 0.961 . S
H490 C475 0.961 . S
H491 C475 0.961 . S
H492 C476 0.931 . S
H493 C481 0.930 . S
H494 C482 0.956 . S
H495 C482 0.961 . S
H496 C482 0.961 . S
H497 C483 0.958 . S
H498 C483 0.961 . S
H499 C483 0.960 . S
C500 C501 1.391 . S
C500 C502 1.394 . S
C500 H516 0.931 . S
C501 C500 1.391 . S
C501 C505 1.376 . S
C502 C500 1.394 . S
C502 C503 1.369 . S
C502 C506 1.531 . S
C503 C502 1.369 . S
C503 C504 1.410 . S
C503 C511 1.503 . S
C504 C503 1.410 . S
C504 C505 1.392 . S
C504 C507 1.511 . S
C505 C501 1.376 . S
C505 C504 1.392 . S
C505 H517 0.929 . S
C506 C502 1.531 . S
C506 H518 0.960 . S
C506 H519 0.962 . S
C506 H520 0.960 . S
C507 C504 1.511 . S
C507 H521 0.961 . S
C507 H522 0.961 . S
C507 H523 0.961 . S
C508 C509 1.370 . S
C508 C510 1.363 . S
C508 H524 0.931 . S
C509 C508 1.370 . S
C509 C513 1.408 . S
C510 C508 1.363 . S
C510 C511 1.370 . S
C510 C514 1.524 . S
C511 C503 1.503 . S
C511 C510 1.370 . S
C511 C512 1.403 . S
C512 C511 1.403 . S
C512 C513 1.404 . S
C512 C515 1.539 . S
C513 C509 1.408 . S
C513 C512 1.404 . S
C513 H525 0.930 . S
C514 C510 1.524 . S
C514 H526 0.956 . S
C514 H527 0.961 . S
C514 H528 0.961 . S
C515 C512 1.539 . S
C515 H529 0.958 . S
C515 H530 0.961 . S
C515 H531 0.960 . S
H516 C500 0.931 . S
H517 C505 0.929 . S
H518 C506 0.960 . S
H519 C506 0.962 . S
H520 C506 0.960 . S
H521 C507 0.961 . S
H522 C507 0.961 . S
H523 C507 0.961 . S
H524 C508 0.931 . S
H525 C513 0.930 . S
H526 C514 0.956 . S
H527 C514 0.961 . S
H528 C514 0.961 . S
H529 C515 0.958 . S
H530 C515 0.961 . S
H531 C515 0.960 . S
C532 C533 1.391 . S
C532 C534 1.394 . S
C532 H548 0.931 . S
C533 C532 1.391 . S
C533 C537 1.376 . S
C534 C532 1.394 . S
C534 C535 1.369 . S
C534 C538 1.531 . S
C535 C534 1.369 . S
C535 C536 1.410 . S
C535 C543 1.503 . S
C536 C535 1.410 . S
C536 C537 1.392 . S
C536 C539 1.511 . S
C537 C533 1.376 . S
C537 C536 1.392 . S
C537 H549 0.929 . S
C538 C534 1.531 . S
C538 H550 0.960 . S
C538 H551 0.962 . S
C538 H552 0.960 . S
C539 C536 1.511 . S
C539 H553 0.961 . S
C539 H554 0.961 . S
C539 H555 0.961 . S
C540 C541 1.370 . S
C540 C542 1.363 . S
C540 H556 0.931 . S
C541 C540 1.370 . S
C541 C545 1.408 . S
C542 C540 1.363 . S
C542 C543 1.370 . S
C542 C546 1.524 . S
C543 C535 1.503 . S
C543 C542 1.370 . S
C543 C544 1.403 . S
C544 C543 1.403 . S
C544 C545 1.404 . S
C544 C547 1.539 . S
C545 C541 1.408 . S
C545 C544 1.404 . S
C545 H557 0.930 . S
C546 C542 1.524 . S
C546 H558 0.956 . S
C546 H559 0.961 . S
C546 H560 0.961 . S
C547 C544 1.539 . S
C547 H561 0.958 . S
C547 H562 0.961 . S
C547 H563 0.960 . S
H548 C532 0.931 . S
H549 C537 0.929 . S
H550 C538 0.960 . S
H551 C538 0.962 . S
H552 C538 0.960 . S
H553 C539 0.961 . S
H554 C539 0.961 . S
H555 C539 0.961 . S
H556 C540 0.931 . S
H557 C545 0.930 . S
H558 C546 0.956 . S
H559 C546 0.961 . S
H560 C546 0.961 . S
H561 C547 0.958 . S
H562 C547 0.961 . S
H563 C547 0.960 . S
C564 C565 1.391 . S
C564 C566 1.394 . S
C564 H580 0.931 . S
C565 C564 1.391 . S
C565 C569 1.376 . S
C566 C564 1.394 . S
C566 C567 1.369 . S
C566 C570 1.531 . S
C567 C566 1.369 . S
C567 C568 1.410 . S
C567 C575 1.503 . S
C568 C567 1.410 . S
C568 C569 1.392 . S
C568 C571 1.511 . S
C569 C565 1.376 . S
C569 C568 1.392 . S
C569 H581 0.929 . S
C570 C566 1.531 . S
C570 H582 0.960 . S
C570 H583 0.962 . S
C570 H584 0.960 . S
C571 C568 1.511 . S
C571 H585 0.961 . S
C571 H586 0.961 . S
C571 H587 0.961 . S
C572 C573 1.370 . S
C572 C574 1.363 . S
C572 H588 0.931 . S
C573 C572 1.370 . S
C573 C577 1.408 . S
C574 C572 1.363 . S
C574 C575 1.370 . S
C574 C578 1.524 . S
C575 C567 1.503 . S
C575 C574 1.370 . S
C575 C576 1.403 . S
C576 C575 1.403 . S
C576 C577 1.404 . S
C576 C579 1.539 . S
C577 C573 1.408 . S
C577 C576 1.404 . S
C577 H589 0.930 . S
C578 C574 1.524 . S
C578 H590 0.956 . S
C578 H591 0.961 . S
C578 H592 0.961 . S
C579 C576 1.539 . S
C579 H593 0.958 . S
C579 H594 0.961 . S
C579 H595 0.960 . S
H580 C564 0.931 . S
H581 C569 0.929 . S
H582 C570 0.960 . S
H583 C570 0.962 . S
H584 C570 0.960 . S
H585 C571 0.961 . S
H586 C571 0.961 . S
H587 C571 0.961 . S
H588 C572 0.931 . S
H589 C577 0.930 . S
H590 C578 0.956 . S
H591 C578 0.961 . S
H592 C578 0.961 . S
H593 C579 0.958 . S
H594 C579 0.961 . S
H595 C579 0.960 . S
C596 C597 1.391 . S
C596 C598 1.394 . S
C596 H612 0.931 . S
C597 C596 1.391 . S
C597 C601 1.376 . S
C598 C596 1.394 . S
C598 C599 1.369 . S
C598 C602 1.531 . S
C599 C598 1.369 . S
C599 C600 1.410 . S
C599 C607 1.503 . S
C600 C599 1.410 . S
C600 C601 1.392 . S
C600 C603 1.511 . S
C601 C597 1.376 . S
C601 C600 1.392 . S
C601 H613 0.929 . S
C602 C598 1.531 . S
C602 H614 0.960 . S
C602 H615 0.962 . S
C602 H616 0.960 . S
C603 C600 1.511 . S
C603 H617 0.961 . S
C603 H618 0.961 . S
C603 H619 0.961 . S
C604 C605 1.370 . S
C604 C606 1.363 . S
C604 H620 0.931 . S
C605 C604 1.370 . S
C605 C609 1.408 . S
C606 C604 1.363 . S
C606 C607 1.370 . S
C606 C610 1.524 . S
C607 C599 1.503 . S
C607 C606 1.370 . S
C607 C608 1.403 . S
C608 C607 1.403 . S
C608 C609 1.404 . S
C608 C611 1.539 . S
C609 C605 1.408 . S
C609 C608 1.404 . S
C609 H621 0.930 . S
C610 C606 1.524 . S
C610 H622 0.956 . S
C610 H623 0.961 . S
C610 H624 0.961 . S
C611 C608 1.539 . S
C611 H625 0.958 . S
C611 H626 0.961 . S
C611 H627 0.960 . S
H612 C596 0.931 . S
H613 C601 0.929 . S
H614 C602 0.960 . S
H615 C602 0.962 . S
H616 C602 0.960 . S
H617 C603 0.961 . S
H618 C603 0.961 . S
H619 C603 0.961 . S
H620 C604 0.931 . S
H621 C609 0.930 . S
H622 C610 0.956 . S
H623 C610 0.961 . S
H624 C610 0.961 . S
H625 C611 0.958 . S
H626 C611 0.961 . S
H627 C611 0.960 . S
C628 C629 1.391 . S
C628 C630 1.394 . S
C628 H644 0.931 . S
C629 C628 1.391 . S
C629 C633 1.376 . S
C630 C628 1.394 . S
C630 C631 1.369 . S
C630 C634 1.531 . S
C631 C630 1.369 . S
C631 C632 1.410 . S
C631 C639 1.503 . S
C632 C631 1.410 . S
C632 C633 1.392 . S
C632 C635 1.511 . S
C633 C629 1.376 . S
C633 C632 1.392 . S
C633 H645 0.929 . S
C634 C630 1.531 . S
C634 H646 0.960 . S
C634 H647 0.962 . S
C634 H648 0.960 . S
C635 C632 1.511 . S
C635 H649 0.961 . S
C635 H650 0.961 . S
C635 H651 0.961 . S
C636 C637 1.370 . S
C636 C638 1.363 . S
C636 H652 0.931 . S
C637 C636 1.370 . S
C637 C641 1.408 . S
C638 C636 1.363 . S
C638 C639 1.370 . S
C638 C642 1.524 . S
C639 C631 1.503 . S
C639 C638 1.370 . S
C639 C640 1.403 . S
C640 C639 1.403 . S
C640 C641 1.404 . S
C640 C643 1.539 . S
C641 C637 1.408 . S
C641 C640 1.404 . S
C641 H653 0.930 . S
C642 C638 1.524 . S
C642 H654 0.956 . S
C642 H655 0.961 . S
C642 H656 0.961 . S
C643 C640 1.539 . S
C643 H657 0.958 . S
C643 H658 0.961 . S
C643 H659 0.960 . S
H644 C628 0.931 . S
H645 C633 0.929 . S
H646 C634 0.960 . S
H647 C634 0.962 . S
H648 C634 0.960 . S
H649 C635 0.961 . S
H650 C635 0.961 . S
H651 C635 0.961 . S
H652 C636 0.931 . S
H653 C641 0.930 . S
H654 C642 0.956 . S
H655 C642 0.961 . S
H656 C642 0.961 . S
H657 C643 0.958 . S
H658 C643 0.961 . S
H659 C643 0.960 . S
C660 C661 1.391 . S
C660 C662 1.394 . S
C660 H676 0.931 . S
C661 C660 1.391 . S
C661 C665 1.376 . S
C662 C660 1.394 . S
C662 C663 1.369 . S
C662 C666 1.531 . S
C663 C662 1.369 . S
C663 C664 1.410 . S
C663 C671 1.503 . S
C664 C663 1.410 . S
C664 C665 1.392 . S
C664 C667 1.511 . S
C665 C661 1.376 . S
C665 C664 1.392 . S
C665 H677 0.929 . S
C666 C662 1.531 . S
C666 H678 0.960 . S
C666 H679 0.962 . S
C666 H680 0.960 . S
C667 C664 1.511 . S
C667 H681 0.961 . S
C667 H682 0.961 . S
C667 H683 0.961 . S
C668 C669 1.370 . S
C668 C670 1.363 . S
C668 H684 0.931 . S
C669 C668 1.370 . S
C669 C673 1.408 . S
C670 C668 1.363 . S
C670 C671 1.370 . S
C670 C674 1.524 . S
C671 C663 1.503 . S
C671 C670 1.370 . S
C671 C672 1.403 . S
C672 C671 1.403 . S
C672 C673 1.404 . S
C672 C675 1.539 . S
C673 C669 1.408 . S
C673 C672 1.404 . S
C673 H685 0.930 . S
C674 C670 1.524 . S
C674 H686 0.956 . S
C674 H687 0.961 . S
C674 H688 0.961 . S
C675 C672 1.539 . S
C675 H689 0.958 . S
C675 H690 0.961 . S
C675 H691 0.960 . S
H676 C660 0.931 . S
H677 C665 0.929 . S
H678 C666 0.960 . S
H679 C666 0.962 . S
H680 C666 0.960 . S
H681 C667 0.961 . S
H682 C667 0.961 . S
H683 C667 0.961 . S
H684 C668 0.931 . S
H685 C673 0.930 . S
H686 C674 0.956 . S
H687 C674 0.961 . S
H688 C674 0.961 . S
H689 C675 0.958 . S
H690 C675 0.961 . S
H691 C675 0.960 . S
C692 C693 1.391 . S
C692 C694 1.394 . S
C692 H708 0.931 . S
C693 C692 1.391 . S
C693 C697 1.376 . S
C694 C692 1.394 . S
C694 C695 1.369 . S
C694 C698 1.531 . S
C695 C694 1.369 . S
C695 C696 1.410 . S
C695 C703 1.503 . S
C696 C695 1.410 . S
C696 C697 1.392 . S
C696 C699 1.511 . S
C697 C693 1.376 . S
C697 C696 1.392 . S
C697 H709 0.929 . S
C698 C694 1.531 . S
C698 H710 0.960 . S
C698 H711 0.962 . S
C698 H712 0.960 . S
C699 C696 1.511 . S
C699 H713 0.961 . S
C699 H714 0.961 . S
C699 H715 0.961 . S
C700 C701 1.370 . S
C700 C702 1.363 . S
C700 H716 0.931 . S
C701 C700 1.370 . S
C701 C705 1.408 . S
C702 C700 1.363 . S
C702 C703 1.370 . S
C702 C706 1.524 . S
C703 C695 1.503 . S
C703 C702 1.370 . S
C703 C704 1.403 . S
C704 C703 1.403 . S
C704 C705 1.404 . S
C704 C707 1.539 . S
C705 C701 1.408 . S
C705 C704 1.404 . S
C705 H717 0.930 . S
C706 C702 1.524 . S
C706 H718 0.956 . S
C706 H719 0.961 . S
C706 H720 0.961 . S
C707 C704 1.539 . S
C707 H721 0.958 . S
C707 H722 0.961 . S
C707 H723 0.960 . S
H708 C692 0.931 . S
H709 C697 0.929 . S
H710 C698 0.960 . S
H711 C698 0.962 . S
H712 C698 0.960 . S
H713 C699 0.961 . S
H714 C699 0.961 . S
H715 C699 0.961 . S
H716 C700 0.931 . S
H717 C705 0.930 . S
H718 C706 0.956 . S
H719 C706 0.961 . S
H720 C706 0.961 . S
H721 C707 0.958 . S
H722 C707 0.961 . S
H723 C707 0.960 . S
C724 C725 1.391 . S
C724 C726 1.394 . S
C724 H740 0.931 . S
C725 C724 1.391 . S
C725 C729 1.376 . S
C726 C724 1.394 . S
C726 C727 1.369 . S
C726 C730 1.531 . S
C727 C726 1.369 . S
C727 C728 1.410 . S
C727 C735 1.503 . S
C728 C727 1.410 . S
C728 C729 1.392 . S
C728 C731 1.511 . S
C729 C725 1.376 . S
C729 C728 1.392 . S
C729 H741 0.929 . S
C730 C726 1.531 . S
C730 H742 0.960 . S
C730 H743 0.962 . S
C730 H744 0.960 . S
C731 C728 1.511 . S
C731 H745 0.961 . S
C731 H746 0.961 . S
C731 H747 0.961 . S
C732 C733 1.370 . S
C732 C734 1.363 . S
C732 H748 0.931 . S
C733 C732 1.370 . S
C733 C737 1.408 . S
C734 C732 1.363 . S
C734 C735 1.370 . S
C734 C738 1.524 . S
C735 C727 1.503 . S
C735 C734 1.370 . S
C735 C736 1.403 . S
C736 C735 1.403 . S
C736 C737 1.404 . S
C736 C739 1.539 . S
C737 C733 1.408 . S
C737 C736 1.404 . S
C737 H749 0.930 . S
C738 C734 1.524 . S
C738 H750 0.956 . S
C738 H751 0.961 . S
C738 H752 0.961 . S
C739 C736 1.539 . S
C739 H753 0.958 . S
C739 H754 0.961 . S
C739 H755 0.960 . S
H740 C724 0.931 . S
H741 C729 0.929 . S
H742 C730 0.960 . S
H743 C730 0.962 . S
H744 C730 0.960 . S
H745 C731 0.961 . S
H746 C731 0.961 . S
H747 C731 0.961 . S
H748 C732 0.931 . S
H749 C737 0.930 . S
H750 C738 0.956 . S
H751 C738 0.961 . S
H752 C738 0.961 . S
H753 C739 0.958 . S
H754 C739 0.961 . S
H755 C739 0.960 . S
C756 C757 1.391 . S
C756 C758 1.394 . S
C756 H772 0.931 . S
C757 C756 1.391 . S
C757 C761 1.376 . S
C758 C756 1.394 . S
C758 C759 1.369 . S
C758 C762 1.531 . S
C759 C758 1.369 . S
C759 C760 1.410 . S
C759 C767 1.503 . S
C760 C759 1.410 . S
C760 C761 1.392 . S
C760 C763 1.511 . S
C761 C757 1.376 . S
C761 C760 1.392 . S
C761 H773 0.929 . S
C762 C758 1.531 . S
C762 H774 0.960 . S
C762 H775 0.962 . S
C762 H776 0.960 . S
C763 C760 1.511 . S
C763 H777 0.961 . S
C763 H778 0.961 . S
C763 H779 0.961 . S
C764 C765 1.370 . S
C764 C766 1.363 . S
C764 H780 0.931 . S
C765 C764 1.370 . S
C765 C769 1.408 . S
C766 C764 1.363 . S
C766 C767 1.370 . S
C766 C770 1.524 . S
C767 C759 1.503 . S
C767 C766 1.370 . S
C767 C768 1.403 . S
C768 C767 1.403 . S
C768 C769 1.404 . S
C768 C771 1.539 . S
C769 C765 1.408 . S
C769 C768 1.404 . S
C769 H781 0.930 . S
C770 C766 1.524 . S
C770 H782 0.956 . S
C770 H783 0.961 . S
C770 H784 0.961 . S
C771 C768 1.539 . S
C771 H785 0.958 . S
C771 H786 0.961 . S
C771 H787 0.960 . S
H772 C756 0.931 . S
H773 C761 0.929 . S
H774 C762 0.960 . S
H775 C762 0.962 . S
H776 C762 0.960 . S
H777 C763 0.961 . S
H778 C763 0.961 . S
H779 C763 0.961 . S
H780 C764 0.931 . S
H781 C769 0.930 . S
H782 C770 0.956 . S
H783 C770 0.961 . S
H784 C770 0.961 . S
H785 C771 0.958 . S
H786 C771 0.961 . S
H787 C771 0.960 . S
C788 C789 1.391 . S
C788 C790 1.394 . S
C788 H804 0.931 . S
C789 C788 1.391 . S
C789 C793 1.376 . S
C790 C788 1.394 . S
C790 C791 1.369 . S
C790 C794 1.531 . S
C791 C790 1.369 . S
C791 C792 1.410 . S
C791 C799 1.503 . S
C792 C791 1.410 . S
C792 C793 1.392 . S
C792 C795 1.511 . S
C793 C789 1.376 . S
C793 C792 1.392 . S
C793 H805 0.929 . S
C794 C790 1.531 . S
C794 H806 0.960 . S
C794 H807 0.962 . S
C794 H808 0.960 . S
C795 C792 1.511 . S
C795 H809 0.961 . S
C795 H810 0.961 . S
C795 H811 0.961 . S
C796 C797 1.370 . S
C796 C798 1.363 . S
C796 H812 0.931 . S
C797 C796 1.370 . S
C797 C801 1.408 . S
C798 C796 1.363 . S
C798 C799 1.370 . S
C798 C802 1.524 . S
C799 C791 1.503 . S
C799 C798 1.370 . S
C799 C800 1.403 . S
C800 C799 1.403 . S
C800 C801 1.404 . S
C800 C803 1.539 . S
C801 C797 1.408 . S
C801 C800 1.404 . S
C801 H813 0.930 . S
C802 C798 1.524 . S
C802 H814 0.956 . S
C802 H815 0.961 . S
C802 H816 0.961 . S
C803 C800 1.539 . S
C803 H817 0.958 . S
C803 H818 0.961 . S
C803 H819 0.960 . S
H804 C788 0.931 . S
H805 C793 0.929 . S
H806 C794 0.960 . S
H807 C794 0.962 . S
H808 C794 0.960 . S
H809 C795 0.961 . S
H810 C795 0.961 . S
H811 C795 0.961 . S
H812 C796 0.931 . S
H813 C801 0.930 . S
H814 C802 0.956 . S
H815 C802 0.961 . S
H816 C802 0.961 . S
H817 C803 0.958 . S
H818 C803 0.961 . S
H819 C803 0.960 . S
C820 C821 1.391 . S
C820 C822 1.394 . S
C820 H836 0.931 . S
C821 C820 1.391 . S
C821 C825 1.376 . S
C822 C820 1.394 . S
C822 C823 1.369 . S
C822 C826 1.531 . S
C823 C822 1.369 . S
C823 C824 1.410 . S
C823 C831 1.503 . S
C824 C823 1.410 . S
C824 C825 1.392 . S
C824 C827 1.511 . S
C825 C821 1.376 . S
C825 C824 1.392 . S
C825 H837 0.929 . S
C826 C822 1.531 . S
C826 H838 0.960 . S
C826 H839 0.962 . S
C826 H840 0.960 . S
C827 C824 1.511 . S
C827 H841 0.961 . S
C827 H842 0.961 . S
C827 H843 0.961 . S
C828 C829 1.370 . S
C828 C830 1.363 . S
C828 H844 0.931 . S
C829 C828 1.370 . S
C829 C833 1.408 . S
C830 C828 1.363 . S
C830 C831 1.370 . S
C830 C834 1.524 . S
C831 C823 1.503 . S
C831 C830 1.370 . S
C831 C832 1.403 . S
C832 C831 1.403 . S
C832 C833 1.404 . S
C832 C835 1.539 . S
C833 C829 1.408 . S
C833 C832 1.404 . S
C833 H845 0.930 . S
C834 C830 1.524 . S
C834 H846 0.956 . S
C834 H847 0.961 . S
C834 H848 0.961 . S
C835 C832 1.539 . S
C835 H849 0.958 . S
C835 H850 0.961 . S
C835 H851 0.960 . S
H836 C820 0.931 . S
H837 C825 0.929 . S
H838 C826 0.960 . S
H839 C826 0.962 . S
H840 C826 0.960 . S
H841 C827 0.961 . S
H842 C827 0.961 . S
H843 C827 0.961 . S
H844 C828 0.931 . S
H845 C833 0.930 . S
H846 C834 0.956 . S
H847 C834 0.961 . S
H848 C834 0.961 . S
H849 C835 0.958 . S
H850 C835 0.961 . S
H851 C835 0.960 . S
C852 C853 1.391 . S
C852 C854 1.394 . S
C852 H868 0.931 . S
C853 C852 1.391 . S
C853 C857 1.376 . S
C854 C852 1.394 . S
C854 C855 1.369 . S
C854 C858 1.531 1_455 S
C855 C854 1.369 . S
C855 C856 1.410 . S
C855 C863 1.503 1_445 S
C856 C855 1.410 . S
C856 C857 1.392 . S
C856 C859 1.511 1_545 S
C857 C853 1.376 . S
C857 C856 1.392 . S
C857 H869 0.929 . S
C858 C854 1.531 1_655 S
C858 H870 0.960 . S
C858 H871 0.962 . S
C858 H872 0.960 . S
C859 C856 1.511 1_565 S
C859 H873 0.961 . S
C859 H874 0.961 . S
C859 H875 0.961 . S
C860 C861 1.370 . S
C860 C862 1.363 . S
C860 H876 0.931 . S
C861 C860 1.370 . S
C861 C865 1.408 . S
C862 C860 1.363 . S
C862 C863 1.370 . S
C862 C866 1.524 . S
C863 C855 1.503 1_665 S
C863 C862 1.370 . S
C863 C864 1.403 . S
C864 C863 1.403 . S
C864 C865 1.404 . S
C864 C867 1.539 . S
C865 C861 1.408 . S
C865 C864 1.404 . S
C865 H877 0.930 . S
C866 C862 1.524 . S
C866 H878 0.956 1_565 S
C866 H879 0.961 1_655 S
C866 H880 0.961 . S
C867 C864 1.539 . S
C867 H881 0.958 1_565 S
C867 H882 0.961 . S
C867 H883 0.960 1_655 S
H868 C852 0.931 . S
H869 C857 0.929 . S
H870 C858 0.960 . S
H871 C858 0.962 . S
H872 C858 0.960 . S
H873 C859 0.961 . S
H874 C859 0.961 . S
H875 C859 0.961 . S
H876 C860 0.931 . S
H877 C865 0.930 . S
H878 C866 0.956 1_545 S
H879 C866 0.961 1_455 S
H880 C866 0.961 . S
H881 C867 0.958 1_545 S
H882 C867 0.961 . S
H883 C867 0.960 1_455 S
C884 C885 1.391 . S
C884 C886 1.394 . S
C884 H900 0.931 . S
C885 C884 1.391 . S
C885 C889 1.376 . S
C886 C884 1.394 . S
C886 C887 1.369 . S
C886 C890 1.531 1_655 S
C887 C886 1.369 . S
C887 C888 1.410 . S
C887 C895 1.503 1_645 S
C888 C887 1.410 . S
C888 C889 1.392 . S
C888 C891 1.511 1_545 S
C889 C885 1.376 . S
C889 C888 1.392 . S
C889 H901 0.929 . S
C890 C886 1.531 1_455 S
C890 H902 0.960 . S
C890 H903 0.962 . S
C890 H904 0.960 . S
C891 C888 1.511 1_565 S
C891 H905 0.961 . S
C891 H906 0.961 . S
C891 H907 0.961 . S
C892 C893 1.370 . S
C892 C894 1.363 . S
C892 H908 0.931 . S
C893 C892 1.370 . S
C893 C897 1.408 . S
C894 C892 1.363 . S
C894 C895 1.370 . S
C894 C898 1.524 . S
C895 C887 1.503 1_465 S
C895 C894 1.370 . S
C895 C896 1.403 . S
C896 C895 1.403 . S
C896 C897 1.404 . S
C896 C899 1.539 . S
C897 C893 1.408 . S
C897 C896 1.404 . S
C897 H909 0.930 . S
C898 C894 1.524 . S
C898 H910 0.956 1_565 S
C898 H911 0.961 1_455 S
C898 H912 0.961 . S
C899 C896 1.539 . S
C899 H913 0.958 1_565 S
C899 H914 0.961 . S
C899 H915 0.960 1_455 S
H900 C884 0.931 . S
H901 C889 0.929 . S
H902 C890 0.960 . S
H903 C890 0.962 . S
H904 C890 0.960 . S
H905 C891 0.961 . S
H906 C891 0.961 . S
H907 C891 0.961 . S
H908 C892 0.931 . S
H909 C897 0.930 . S
H910 C898 0.956 1_545 S
H911 C898 0.961 1_655 S
H912 C898 0.961 . S
H913 C899 0.958 1_545 S
H914 C899 0.961 . S
H915 C899 0.960 1_655 S
C916 C917 1.391 . S
C916 C918 1.394 . S
C916 H932 0.931 . S
C917 C916 1.391 . S
C917 C921 1.376 . S
C918 C916 1.394 . S
C918 C919 1.369 . S
C918 C922 1.531 1_556 S
C919 C918 1.369 . S
C919 C920 1.410 . S
C919 C927 1.503 1_566 S
C920 C919 1.410 . S
C920 C921 1.392 . S
C920 C923 1.511 1_565 S
C921 C917 1.376 . S
C921 C920 1.392 . S
C921 H933 0.929 . S
C922 C918 1.531 1_554 S
C922 H934 0.960 . S
C922 H935 0.962 . S
C922 H936 0.960 . S
C923 C920 1.511 1_545 S
C923 H937 0.961 . S
C923 H938 0.961 . S
C923 H939 0.961 1_545 S
C924 C925 1.370 . S
C924 C926 1.363 . S
C924 H940 0.931 . S
C925 C924 1.370 . S
C925 C929 1.408 . S
C926 C924 1.363 . S
C926 C927 1.370 . S
C926 C930 1.524 1_554 S
C927 C919 1.503 1_544 S
C927 C926 1.370 . S
C927 C928 1.403 . S
C928 C927 1.403 . S
C928 C929 1.404 . S
C928 C931 1.539 1_545 S
C929 C925 1.408 . S
C929 C928 1.404 . S
C929 H941 0.930 . S
C930 C926 1.524 1_556 S
C930 H942 0.956 . S
C930 H943 0.961 . S
C930 H944 0.961 . S
C931 C928 1.539 1_565 S
C931 H945 0.958 . S
C931 H946 0.961 . S
C931 H947 0.960 . S
H932 C916 0.931 . S
H933 C921 0.929 . S
H934 C922 0.960 . S
H935 C922 0.962 . S
H936 C922 0.960 . S
H937 C923 0.961 . S
H938 C923 0.961 . S
H939 C923 0.961 1_565 S
H940 C924 0.931 . S
H941 C929 0.930 . S
H942 C930 0.956 . S
H943 C930 0.961 . S
H944 C930 0.961 . S
H945 C931 0.958 . S
H946 C931 0.961 . S
H947 C931 0.960 . S
C948 C949 1.391 . S
C948 C950 1.394 . S
C948 H964 0.931 . S
C949 C948 1.391 . S
C949 C953 1.376 . S
C950 C948 1.394 . S
C950 C951 1.369 . S
C950 C954 1.531 1_554 S
C951 C950 1.369 . S
C951 C952 1.410 . S
C951 C959 1.503 1_564 S
C952 C951 1.410 . S
C952 C953 1.392 . S
C952 C955 1.511 . S
C953 C949 1.376 . S
C953 C952 1.392 . S
C953 H965 0.929 . S
C954 C950 1.531 1_556 S
C954 H966 0.960 . S
C954 H967 0.962 1_556 S
C954 H968 0.960 . S
C955 C952 1.511 . S
C955 H969 0.961 . S
C955 H970 0.961 1_565 S
C955 H971 0.961 1_554 S
C956 C957 1.370 . S
C956 C958 1.363 . S
C956 H972 0.931 . S
C957 C956 1.370 . S
C957 C961 1.408 . S
C958 C956 1.363 . S
C958 C959 1.370 . S
C958 C962 1.524 1_556 S
C959 C951 1.503 1_546 S
C959 C958 1.370 . S
C959 C960 1.403 . S
C960 C959 1.403 . S
C960 C961 1.404 . S
C960 C963 1.539 1_545 S
C961 C957 1.408 . S
C961 C960 1.404 . S
C961 H973 0.930 . S
C962 C958 1.524 1_554 S
C962 H974 0.956 . S
C962 H975 0.961 . S
C962 H976 0.961 . S
C963 C960 1.539 1_565 S
C963 H977 0.958 . S
C963 H978 0.961 . S
C963 H979 0.960 . S
H964 C948 0.931 . S
H965 C953 0.929 . S
H966 C954 0.960 . S
H967 C954 0.962 1_554 S
H968 C954 0.960 . S
H969 C955 0.961 . S
H970 C955 0.961 1_545 S
H971 C955 0.961 1_556 S
H972 C956 0.931 . S
H973 C961 0.930 . S
H974 C962 0.956 . S
H975 C962 0.961 . S
H976 C962 0.961 . S
H977 C963 0.958 . S
H978 C963 0.961 . S
H979 C963 0.960 . S
C980 C981 1.391 . S
C980 C982 1.394 . S
C980 H996 0.931 . S
C981 C980 1.391 . S
C981 C985 1.376 . S
C982 C980 1.394 . S
C982 C983 1.369 . S
C982 C986 1.531 1_556 S
C983 C982 1.369 . S
C983 C984 1.410 . S
C983 C991 1.503 1_656 S
C984 C983 1.410 . S
C984 C985 1.392 . S
C984 C987 1.511 1_655 S
C985 C981 1.376 . S
C985 C984 1.392 . S
C985 H997 0.929 . S
C986 C982 1.531 1_554 S
C986 H998 0.960 . S
C986 H999 0.962 . S
C986 H1000 0.960 . S
C987 C984 1.511 1_455 S
C987 H1001 0.961 . S
C987 H1002 0.961 . S
C987 H1003 0.961 . S
C988 C989 1.370 . S
C988 C990 1.363 . S
C988 H1004 0.931 . S
C989 C988 1.370 . S
C989 C993 1.408 . S
C990 C988 1.363 . S
C990 C991 1.370 . S
C990 C994 1.524 1_455 S
C991 C983 1.503 1_454 S
C991 C990 1.370 . S
C991 C992 1.403 . S
C992 C991 1.403 . S
C992 C993 1.404 . S
C992 C995 1.539 1_554 S
C993 C989 1.408 . S
C993 C992 1.404 . S
C993 H1005 0.930 . S
C994 C990 1.524 1_655 S
C994 H1006 0.956 . S
C994 H1007 0.961 . S
C994 H1008 0.961 . S
C995 C992 1.539 1_556 S
C995 H1009 0.958 . S
C995 H1010 0.961 . S
C995 H1011 0.960 . S
H996 C980 0.931 . S
H997 C985 0.929 . S
H998 C986 0.960 . S
H999 C986 0.962 . S
H1000 C986 0.960 . S
H1001 C987 0.961 . S
H1002 C987 0.961 . S
H1003 C987 0.961 . S
H1004 C988 0.931 . S
H1005 C993 0.930 . S
H1006 C994 0.956 . S
H1007 C994 0.961 . S
H1008 C994 0.961 . S
H1009 C995 0.958 . S
H1010 C995 0.961 . S
H1011 C995 0.960 . S
C1012 C1013 1.391 . S
C1012 C1014 1.394 . S
C1012 H1028 0.931 . S
C1013 C1012 1.391 . S
C1013 C1017 1.376 . S
C1014 C1012 1.394 . S
C1014 C1015 1.369 . S
C1014 C1018 1.531 . S
C1015 C1014 1.369 . S
C1015 C1016 1.410 . S
C1015 C1023 1.503 1_456 S
C1016 C1015 1.410 . S
C1016 C1017 1.392 . S
C1016 C1019 1.514 . S
C1017 C1013 1.376 . S
C1017 C1016 1.392 . S
C1017 H1029 0.929 . S
C1018 C1014 1.531 . S
C1018 H1030 0.960 1_455 S
C1018 H1031 0.962 1_556 S
C1018 H1032 0.960 . S
C1019 C1016 1.514 . S
C1019 H1033 0.965 . S
C1019 H1034 0.969 1_455 S
C1019 H1035 0.955 1_455 S
C1020 C1021 1.370 . S
C1020 C1022 1.363 . S
C1020 H1036 0.931 . S
C1021 C1020 1.370 . S
C1021 C1025 1.408 . S
C1022 C1020 1.363 . S
C1022 C1023 1.370 . S
C1022 C1026 1.524 1_655 S
C1023 C1015 1.503 1_654 S
C1023 C1022 1.370 . S
C1023 C1024 1.403 . S
C1024 C1023 1.403 . S
C1024 C1025 1.404 . S
C1024 C1027 1.539 1_554 S
C1025 C1021 1.408 . S
C1025 C1024 1.404 . S
C1025 H1037 0.930 . S
C1026 C1022 1.524 1_455 S
C1026 H1038 0.956 . S
C1026 H1039 0.961 . S
C1026 H1040 0.961 . S
C1027 C1024 1.539 1_556 S
C1027 H1041 0.958 . S
C1027 H1042 0.961 . S
C1027 H1043 0.960 . S
H1028 C1012 0.931 . S
H1029 C1017 0.929 . S
H1030 C1018 0.960 1_655 S
H1031 C1018 0.962 1_554 S
H1032 C1018 0.960 . S
H1033 C1019 0.965 . S
H1034 C1019 0.969 1_655 S
H1035 C1019 0.955 1_655 S
H1036 C1020 0.931 . S
H1037 C1025 0.930 . S
H1038 C1026 0.956 . S
H1039 C1026 0.961 . S
H1040 C1026 0.961 . S
H1041 C1027 0.958 . S
H1042 C1027 0.961 . S
H1043 C1027 0.960 . S
C277 N81 1.155 . S
C285 N12 1.144 . S
C309 N58 1.154 . S
C317 N35 1.143 . S
C341 N127 1.123 . S
C349 N104 1.133 . S
C373 N150 1.149 . S
C381 N173 1.148 . S
C405 N219 1.136 . S
C413 N196 1.134 . S
C437 N242 1.132 . S
C445 N265 1.134 . S
C469 N2 1.464 . S
C477 C177 1.409 . S
C501 C154 1.440 . S
C509 N25 1.476 . S
C533 C131 1.377 . S
C541 N48 1.504 . S
C565 C108 1.418 . S
C573 N71 1.497 . S
C597 N94 1.510 . S
C605 C269 1.389 . S
C629 C200 1.368 . S
C637 N117 1.492 . S
C661 C246 1.358 . S
C669 N140 1.498 . S
C693 N163 1.458 . S
C701 C223 1.415 . S
C725 C62 1.428 . S
C733 N186 1.477 . S
C757 C16 1.425 . S
C765 N209 1.478 . S
C789 N232 1.455 . S
C797 C39 1.428 . S
C821 C85 1.437 . S
C829 N255 1.476 . S
C853 C7 2.089 . S
C861 C30 2.083 . S
C885 C76 2.087 . S
C893 C53 2.084 . S
C917 C145 2.080 . S
C925 C99 2.068 . S
C949 C122 2.087 . S
C957 C168 2.069 . S
C981 C237 2.096 . S
C989 C191 2.076 . S
C1013 C214 2.092 . S
C1021 C260 2.070 . S
