# Generated by pormake.
# Topology fnz, (5)-cn, num edge types: 1
# Building blocks:
#     Node 0, Type 0, BuildingBlock: BEQFEK_clean_sbu_0, # of connection points: 5
#     Node 1, Type 0, BuildingBlock: BEQFEK_clean_sbu_0, # of connection points: 5
#     Node 2, Type 0, BuildingBlock: BEQFEK_clean_sbu_0, # of connection points: 5
#     Node 3, Type 0, BuildingBlock: BEQFEK_clean_sbu_0, # of connection points: 5
#     Node 4, Type 0, BuildingBlock: BEQFEK_clean_sbu_0, # of connection points: 5
#     Node 5, Type 0, BuildingBlock: BEQFEK_clean_sbu_0, # of connection points: 5
#     Node 6, Type 0, BuildingBlock: BEQFEK_clean_sbu_0, # of connection points: 5
#     Node 7, Type 0, BuildingBlock: BEQFEK_clean_sbu_0, # of connection points: 5
#     Node 8, Type 0, BuildingBlock: BEQFEK_clean_sbu_0, # of connection points: 5
#     Node 9, Type 0, BuildingBlock: BEQFEK_clean_sbu_0, # of connection points: 5
#     Node 10, Type 0, BuildingBlock: BEQFEK_clean_sbu_0, # of connection points: 5
#     Node 11, Type 0, BuildingBlock: BEQFEK_clean_sbu_0, # of connection points: 5
#     Edge 12, Type (0, 0), BuildingBlock: ZUJKAS_clean_linker_0, # of connection points: 2
#     Edge 13, Type (0, 0), BuildingBlock: ZUJKAS_clean_linker_0, # of connection points: 2
#     Edge 14, Type (0, 0), BuildingBlock: ZUJKAS_clean_linker_0, # of connection points: 2
#     Edge 15, Type (0, 0), BuildingBlock: ZUJKAS_clean_linker_0, # of connection points: 2
#     Edge 16, Type (0, 0), BuildingBlock: ZUJKAS_clean_linker_0, # of connection points: 2
#     Edge 17, Type (0, 0), BuildingBlock: ZUJKAS_clean_linker_0, # of connection points: 2
#     Edge 18, Type (0, 0), BuildingBlock: ZUJKAS_clean_linker_0, # of connection points: 2
#     Edge 19, Type (0, 0), BuildingBlock: ZUJKAS_clean_linker_0, # of connection points: 2
#     Edge 20, Type (0, 0), BuildingBlock: ZUJKAS_clean_linker_0, # of connection points: 2
#     Edge 21, Type (0, 0), BuildingBlock: ZUJKAS_clean_linker_0, # of connection points: 2
#     Edge 22, Type (0, 0), BuildingBlock: ZUJKAS_clean_linker_0, # of connection points: 2
#     Edge 23, Type (0, 0), BuildingBlock: ZUJKAS_clean_linker_0, # of connection points: 2
#     Edge 24, Type (0, 0), BuildingBlock: ZUJKAS_clean_linker_0, # of connection points: 2
#     Edge 25, Type (0, 0), BuildingBlock: ZUJKAS_clean_linker_0, # of connection points: 2
#     Edge 26, Type (0, 0), BuildingBlock: ZUJKAS_clean_linker_0, # of connection points: 2
#     Edge 27, Type (0, 0), BuildingBlock: ZUJKAS_clean_linker_0, # of connection points: 2
#     Edge 28, Type (0, 0), BuildingBlock: ZUJKAS_clean_linker_0, # of connection points: 2
#     Edge 29, Type (0, 0), BuildingBlock: ZUJKAS_clean_linker_0, # of connection points: 2
#     Edge 30, Type (0, 0), BuildingBlock: ZUJKAS_clean_linker_0, # of connection points: 2
#     Edge 31, Type (0, 0), BuildingBlock: ZUJKAS_clean_linker_0, # of connection points: 2
#     Edge 32, Type (0, 0), BuildingBlock: ZUJKAS_clean_linker_0, # of connection points: 2
#     Edge 33, Type (0, 0), BuildingBlock: ZUJKAS_clean_linker_0, # of connection points: 2
#     Edge 34, Type (0, 0), BuildingBlock: ZUJKAS_clean_linker_0, # of connection points: 2
#     Edge 35, Type (0, 0), BuildingBlock: ZUJKAS_clean_linker_0, # of connection points: 2
#     Edge 36, Type (0, 0), BuildingBlock: ZUJKAS_clean_linker_0, # of connection points: 2
#     Edge 37, Type (0, 0), BuildingBlock: ZUJKAS_clean_linker_0, # of connection points: 2
#     Edge 38, Type (0, 0), BuildingBlock: ZUJKAS_clean_linker_0, # of connection points: 2
#     Edge 39, Type (0, 0), BuildingBlock: ZUJKAS_clean_linker_0, # of connection points: 2
#     Edge 40, Type (0, 0), BuildingBlock: ZUJKAS_clean_linker_0, # of connection points: 2
#     Edge 41, Type (0, 0), BuildingBlock: ZUJKAS_clean_linker_0, # of connection points: 2
# Relax obj value: 0.275
# Max RMSD: 0.249
# Mean RMSD: 0.236
data_MOF--net-fnz--node1-BEQFEK_clean_sbu_0--edge1-ZUJKAS_clean_linker_0
_symmetry_space_group_name_H-M    P1
_symmetry_Int_Tables_number       1
_symmetry_cell_setting            triclinic
loop_
_symmetry_equiv_pos_as_xyz
'x, y, z'
_cell_length_a     48.886059
_cell_length_b     48.858824
_cell_length_c     44.297442
_cell_angle_alpha  89.96528
_cell_angle_beta   90.01435
_cell_angle_gamma 119.97866
loop_
_atom_site_label
_atom_site_type_symbol
_atom_site_fract_x
_atom_site_fract_y
_atom_site_fract_z
_atom_type_partial_charge
Co0 Co 0.47414 0.17361 0.05646 0.0
Co1 Co 0.46544 0.16696 0.98281 0.0
C2 C 0.50997 0.15183 0.01583 0.0
O3 O 0.50321 0.15905 0.04145 0.0
O4 O 0.49867 0.15568 0.99114 0.0
C5 C 0.46858 0.16738 0.12366 0.0
O6 O 0.45077 0.13711 0.1178 0.0
C7 C 0.47374 0.18112 0.91427 0.0
C8 C 0.42382 0.15366 0.90056 0.0
C9 C 0.45374 0.17333 0.88894 0.0
N10 N 0.4561 0.16693 0.93923 0.0
N11 N 0.42633 0.15052 0.93044 0.0
C12 C 0.50893 0.20085 0.91477 0.0
H13 H 0.51851 0.19636 0.93574 0.0
H14 H 0.51584 0.2262 0.91419 0.0
H15 H 0.51917 0.19572 0.89467 0.0
C16 C 0.47177 0.23036 0.04232 0.0
N17 N 0.47622 0.20684 0.03247 0.0
N18 N 0.47308 0.20469 1.00284 0.0
C19 C 0.46678 0.22709 0.9931 0.0
C20 C 0.46493 0.24362 0.01779 0.0
C21 C 0.46677 0.23471 0.07496 0.0
H22 H 0.44747 0.21216 0.08418 0.0
H23 H 0.48868 0.24099 0.08767 0.0
H24 H 0.46076 0.25352 0.07854 0.0
O25 O 0.43186 0.13575 0.05146 0.0
O26 O 0.42709 0.13084 1.00136 0.0
H27 H 0.43452 0.20718 0.95616 0.0
H28 H 0.45379 0.24978 0.95847 0.0
C29 C 0.45699 0.229 0.96152 0.0
H30 H 0.47537 0.23104 0.94561 0.0
H31 H 0.40747 0.13727 0.945 0.0
O32 O 0.48146 0.18644 0.10154 0.0
C33 C 0.41664 0.12083 0.02792 0.0
Co34 Co 0.29103 0.43998 0.0771 0.0
Co35 Co 0.2855 0.43001 1.00741 0.0
C36 C 0.34818 0.46766 0.03687 0.0
O37 O 0.33556 0.4637 0.06281 0.0
O38 O 0.33125 0.45729 1.01332 0.0
C39 C 0.30249 0.48093 0.1256 0.0
O40 O 0.31392 0.50172 0.10358 0.0
C41 C 0.28642 0.44874 0.94495 0.0
C42 C 0.25782 0.40279 0.92215 0.0
C43 C 0.27337 0.43517 0.91729 0.0
N44 N 0.27811 0.42548 0.96526 0.0
N45 N 0.26151 0.39805 0.95143 0.0
C46 C 0.30643 0.48312 0.95233 0.0
H47 H 0.32327 0.48659 0.97064 0.0
H48 H 0.29112 0.49236 0.96043 0.0
H49 H 0.31971 0.49679 0.93217 0.0
C50 C 0.23407 0.44411 0.06609 0.0
N51 N 0.26106 0.44637 0.05566 0.0
N52 N 0.25941 0.44346 0.02612 0.0
C53 C 0.23155 0.43991 0.01678 0.0
C54 C 0.21429 0.43968 0.04178 0.0
C55 C 0.22466 0.43884 0.0987 0.0
H56 H 0.23062 0.42162 0.10864 0.0
H57 H 0.23813 0.46149 0.11104 0.0
H58 H 0.19909 0.43001 0.10187 0.0
O59 O 0.27922 0.39521 0.07418 0.0
O60 O 0.27565 0.38867 0.02432 0.0
H61 H 0.21624 0.40813 0.97918 0.0
H62 H 0.19627 0.43071 0.98252 0.0
C63 C 0.21923 0.4315 0.98518 0.0
H64 H 0.23625 0.44943 0.96936 0.0
H65 H 0.25189 0.37615 0.96218 0.0
O66 O 0.29138 0.45186 0.11954 0.0
C67 C 0.27455 0.37808 0.0509 0.0
Co68 Co 0.82367 0.29694 0.0748 0.0
Co69 Co 0.82463 0.29401 1.00042 0.0
C70 C 0.83649 0.35242 0.03312 0.0
O71 O 0.83268 0.33907 0.0589 0.0
O72 O 0.83192 0.33715 1.0084 0.0
C73 C 0.79116 0.28716 0.13545 0.0
O74 O 0.76746 0.28529 0.11978 0.0
C75 C 0.80756 0.28602 0.93218 0.0
C76 C 0.83191 0.26026 0.91879 0.0
C77 C 0.81287 0.27132 0.90729 0.0
N78 N 0.8225 0.28318 0.95688 0.0
N79 N 0.83724 0.26804 0.94819 0.0
C80 C 0.78691 0.30047 0.93303 0.0
H81 H 0.78073 0.30265 0.95669 0.0
H82 H 0.76513 0.28604 0.91964 0.0
H83 H 0.79979 0.32443 0.92289 0.0
C84 C 0.77149 0.23327 0.06338 0.0
N85 N 0.79117 0.26258 0.05295 0.0
N86 N 0.78997 0.26229 0.02315 0.0
C87 C 0.76816 0.2331 1.01401 0.0
C88 C 0.75618 0.21361 0.03907 0.0
C89 C 0.77352 0.22271 0.0947 0.0
H90 H 0.79754 0.23771 0.10402 0.0
H91 H 0.7561 0.2245 0.10935 0.0
H92 H 0.76826 0.19785 0.09516 0.0
O93 O 0.86345 0.29729 0.06645 0.0
O94 O 0.86444 0.29676 0.01608 0.0
H95 H 0.78167 0.22091 0.97246 0.0
H96 H 0.73974 0.19963 0.97956 0.0
C97 C 0.76167 0.22288 0.98173 0.0
H98 H 0.75908 0.24065 0.96843 0.0
H99 H 0.85041 0.26222 0.96265 0.0
O100 O 0.81629 0.29271 0.12132 0.0
C101 C 0.87718 0.29814 0.04168 0.0
Co102 Co 0.55999 0.84219 0.07026 0.0
Co103 Co 0.57473 0.85339 1.0015 0.0
C104 C 0.5331 0.87357 0.03177 0.0
O105 O 0.53586 0.86324 0.05732 0.0
O106 O 0.54566 0.86965 1.00829 0.0
C107 C 0.52233 0.8205 0.12443 0.0
O108 O 0.50151 0.82453 0.10927 0.0
C109 C 0.55849 0.84081 0.9384 0.0
C110 C 0.60505 0.86315 0.91594 0.0
C111 C 0.57283 0.84548 0.91039 0.0
N112 N 0.58115 0.85478 0.95935 0.0
N113 N 0.60893 0.86858 0.94583 0.0
C114 C 0.52423 0.8206 0.94601 0.0
H115 H 0.52119 0.81448 0.97038 0.0
H116 H 0.51339 0.79864 0.93232 0.0
H117 H 0.5118 0.83385 0.94098 0.0
C118 C 0.55657 0.78223 0.0547 0.0
N119 N 0.55522 0.808 0.04603 0.0
N120 N 0.5611 0.81252 0.01695 0.0
C121 C 0.56615 0.78964 1.00614 0.0
C122 C 0.56398 0.76991 0.02975 0.0
C123 C 0.55802 0.7742 0.08708 0.0
H124 H 0.57794 0.79475 0.09841 0.0
H125 H 0.53587 0.76925 0.0986 0.0
H126 H 0.56115 0.75334 0.08945 0.0
O127 O 0.60473 0.87566 0.06998 0.0
O128 O 0.61495 0.88355 0.02084 0.0
H129 H 0.60135 0.81164 0.97176 0.0
H130 H 0.58102 0.76887 0.97107 0.0
C131 C 0.57827 0.78979 0.97505 0.0
H132 H 0.56142 0.78943 0.95815 0.0
H133 H 0.63051 0.88085 0.95709 0.0
O134 O 0.54843 0.82731 0.11212 0.0
C135 C 0.62358 0.89025 0.04829 0.0
Co136 Co 0.69845 0.51711 0.06184 0.0
Co137 Co 0.70225 0.52262 0.98781 0.0
C138 C 0.642 0.4786 0.02058 0.0
O139 O 0.65526 0.48643 0.04657 0.0
O140 O 0.65768 0.48942 0.99603 0.0
C141 C 0.69264 0.49185 0.12609 0.0
O142 O 0.67257 0.46372 0.11548 0.0
C143 C 0.70851 0.5135 0.91934 0.0
C144 C 0.74092 0.56335 0.90746 0.0
C145 C 0.72575 0.53329 0.8952 0.0
N146 N 0.71376 0.5313 0.94456 0.0
N147 N 0.73281 0.56108 0.93676 0.0
C148 C 0.68944 0.47827 0.9189 0.0
H149 H 0.68499 0.4687 0.94224 0.0
H150 H 0.70184 0.46847 0.90561 0.0
H151 H 0.66647 0.47094 0.90775 0.0
C152 C 0.7577 0.5183 0.0508 0.0
N153 N 0.73022 0.51417 0.03989 0.0
N154 N 0.7316 0.51553 1.01013 0.0
C155 C 0.75991 0.51992 1.00142 0.0
C156 C 0.77784 0.52285 0.02682 0.0
C157 C 0.76671 0.52494 0.08344 0.0
H158 H 0.76381 0.54497 0.09108 0.0
H159 H 0.7507 0.50383 0.09698 0.0
H160 H 0.79132 0.53072 0.08779 0.0
O161 O 0.70215 0.5586 0.05363 0.0
O162 O 0.70378 0.56165 1.00344 0.0
H163 H 0.77636 0.55008 0.96271 0.0
H164 H 0.79402 0.52561 0.96741 0.0
C165 C 0.77178 0.52635 0.96961 0.0
H166 H 0.75374 0.50845 0.95439 0.0
H167 H 0.74119 0.57999 0.95181 0.0
O168 O 0.70448 0.51537 0.10794 0.0
C169 C 0.70319 0.57297 0.02925 0.0
Co170 Co 0.14678 0.70797 0.08218 0.0
Co171 Co 0.13729 0.71165 1.01316 0.0
C172 C 0.11562 0.64977 0.04357 0.0
O173 O 0.12603 0.66297 0.06903 0.0
O174 O 0.12007 0.66621 0.01997 0.0
C175 C 0.18345 0.70336 0.12834 0.0
O176 O 0.19525 0.69569 0.10535 0.0
C177 C 0.15118 0.70886 0.94998 0.0
C178 C 0.12996 0.73427 0.92767 0.0
C179 C 0.14768 0.71978 0.92219 0.0
N180 N 0.13698 0.7173 0.97095 0.0
N181 N 0.12385 0.732 0.95747 0.0
C182 C 0.16766 0.69067 0.95684 0.0
H183 H 0.15623 0.67448 0.97611 0.0
H184 H 0.19248 0.70733 0.96332 0.0
H185 H 0.16751 0.67687 0.93689 0.0
C186 C 0.206 0.76617 0.06758 0.0
N187 N 0.18123 0.73835 0.05868 0.0
N188 N 0.17785 0.73901 0.02929 0.0
C189 C 0.20077 0.76698 0.0185 0.0
C190 C 0.21916 0.78531 0.0424 0.0
C191 C 0.21209 0.77692 0.09981 0.0
H192 H 0.18939 0.76857 0.11185 0.0
H193 H 0.22523 0.76669 0.111 0.0
H194 H 0.22632 0.80301 0.10169 0.0
O195 O 0.11289 0.71855 0.08162 0.0
O196 O 0.10663 0.72136 0.03214 0.0
H197 H 0.18046 0.78001 0.98234 0.0
H198 H 0.22316 0.80166 0.98285 0.0
C199 C 0.20186 0.77828 0.98684 0.0
H200 H 0.20247 0.76128 0.97078 0.0
H201 H 0.11149 0.74122 0.96871 0.0
O202 O 0.16124 0.70922 0.12377 0.0
C203 C 0.09878 0.72266 0.05936 0.0
Co204 Co 0.82208 0.50957 0.52373 0.0
Co205 Co 0.82704 0.57553 0.52174 0.0
C206 C 0.79782 0.53197 0.57599 0.0
O207 O 0.802 0.51062 0.5637 0.0
O208 O 0.80579 0.55787 0.5621 0.0
C209 C 0.83968 0.467 0.54026 0.0
O210 O 0.83904 0.47891 0.56667 0.0
C211 C 0.81225 0.62761 0.51978 0.0
C212 C 0.85199 0.66203 0.4916 0.0
C213 C 0.82485 0.65715 0.50608 0.0
N214 N 0.83084 0.61548 0.51302 0.0
N215 N 0.85472 0.63637 0.49653 0.0
C216 C 0.78365 0.61135 0.53953 0.0
H217 H 0.78718 0.59728 0.55706 0.0
H218 H 0.76304 0.59493 0.52562 0.0
H219 H 0.77859 0.62868 0.55065 0.0
C220 C 0.7944 0.50527 0.46147 0.0
N221 N 0.8051 0.51942 0.48864 0.0
N222 N 0.80652 0.54703 0.48832 0.0
C223 C 0.7961 0.55096 0.46122 0.0
C224 C 0.78833 0.52482 0.44287 0.0
C225 C 0.79332 0.4752 0.4526 0.0
H226 H 0.81461 0.47517 0.4612 0.0
H227 H 0.77232 0.45502 0.46311 0.0
H228 H 0.79202 0.47203 0.42775 0.0
O229 O 0.86773 0.53966 0.52617 0.0
O230 O 0.87211 0.5867 0.5243 0.0
H231 H 0.81688 0.59936 0.44798 0.0
H232 H 0.77752 0.57435 0.43336 0.0
C233 C 0.79315 0.57912 0.45317 0.0
H234 H 0.78318 0.58558 0.47252 0.0
H235 H 0.8726 0.63279 0.48802 0.0
O236 O 0.8249 0.47084 0.51852 0.0
C237 C 0.88471 0.56947 0.52597 0.0
Co238 Co 0.29169 0.8153 0.47988 0.0
Co239 Co 0.2813 0.82972 0.54573 0.0
C240 C 0.34639 0.85783 0.51866 0.0
O241 O 0.33581 0.84361 0.49365 0.0
O242 O 0.32782 0.8536 0.54053 0.0
C243 C 0.31091 0.8155 0.41875 0.0
O244 O 0.33139 0.84541 0.42383 0.0
C245 C 0.27824 0.81948 0.61056 0.0
C246 C 0.24981 0.84074 0.62538 0.0
C247 C 0.26355 0.82354 0.6355 0.0
N248 N 0.27291 0.83317 0.58676 0.0
N249 N 0.2566 0.84653 0.59586 0.0
C250 C 0.29367 0.79971 0.60834 0.0
H251 H 0.29735 0.79571 0.5844 0.0
H252 H 0.27908 0.77672 0.61992 0.0
H253 H 0.31698 0.81213 0.61971 0.0
C254 C 0.24335 0.75132 0.49837 0.0
N255 N 0.26617 0.7807 0.50599 0.0
N256 N 0.26078 0.78691 0.5335 0.0
C257 C 0.23379 0.7621 0.5439 0.0
C258 C 0.22178 0.73854 0.52198 0.0
C259 C 0.2395 0.73782 0.46733 0.0
H260 H 0.26234 0.74065 0.45955 0.0
H261 H 0.22129 0.71238 0.46689 0.0
H262 H 0.23255 0.75094 0.45156 0.0
O263 O 0.27132 0.84156 0.47453 0.0
O264 O 0.2629 0.85023 0.52201 0.0
H265 H 0.21728 0.78774 0.57037 0.0
H266 H 0.19044 0.74597 0.56982 0.0
C267 C 0.21574 0.76434 0.57028 0.0
H268 H 0.22615 0.76162 0.5915 0.0
H269 H 0.24865 0.8581 0.5816 0.0
O270 O 0.2927 0.79871 0.43986 0.0
C271 C 0.26052 0.85315 0.49376 0.0
Co272 Co 0.48122 0.30191 0.5196 0.0
Co273 Co 0.4148 0.24198 0.51648 0.0
C274 C 0.45824 0.25618 0.57166 0.0
O275 O 0.48065 0.28102 0.55942 0.0
O276 O 0.43225 0.23946 0.55749 0.0
C277 C 0.52276 0.36229 0.53567 0.0
O278 O 0.50877 0.34945 0.56137 0.0
C279 C 0.36807 0.17433 0.50991 0.0
C280 C 0.32511 0.17665 0.49895 0.0
C281 C 0.33628 0.15585 0.50263 0.0
N282 N 0.37535 0.2047 0.51 0.0
N283 N 0.34954 0.20589 0.50361 0.0
C284 C 0.39086 0.16353 0.51819 0.0
H285 H 0.41037 0.18166 0.53212 0.0
H286 H 0.40128 0.15994 0.4974 0.0
H287 H 0.3786 0.14078 0.53063 0.0
C288 C 0.48646 0.27768 0.458 0.0
N289 N 0.47152 0.27471 0.48459 0.0
N290 N 0.44313 0.24959 0.48325 0.0
C291 C 0.43892 0.23626 0.4556 0.0
C292 C 0.46639 0.25325 0.43852 0.0
C293 C 0.51898 0.30408 0.45113 0.0
H294 H 0.53343 0.31164 0.47202 0.0
H295 H 0.53054 0.29683 0.43385 0.0
H296 H 0.51739 0.32452 0.44235 0.0
O297 O 0.45073 0.31745 0.52243 0.0
O298 O 0.40355 0.27545 0.51666 0.0
H299 H 0.38843 0.2143 0.45296 0.0
H300 H 0.4066 0.21095 0.41901 0.0
C301 C 0.40764 0.21086 0.44402 0.0
H302 H 0.40366 0.18751 0.45153 0.0
H303 H 0.34861 0.22672 0.50208 0.0
O304 O 0.51956 0.3439 0.51392 0.0
C305 C 0.42105 0.305 0.52001 0.0
Co306 Co 0.17711 0.46955 0.47123 0.0
Co307 Co 0.17062 0.46197 0.54091 0.0
C308 C 0.14091 0.49313 0.50851 0.0
O309 O 0.15102 0.48895 0.4834 0.0
O310 O 0.14819 0.48515 0.5332 0.0
C311 C 0.2119 0.50858 0.4215 0.0
O312 O 0.22649 0.52998 0.44255 0.0
C313 C 0.17827 0.47481 0.60639 0.0
C314 C 0.16671 0.42773 0.62356 0.0
C315 C 0.17632 0.45836 0.63264 0.0
N316 N 0.17071 0.45481 0.58295 0.0
N317 N 0.16343 0.42666 0.59344 0.0
C318 C 0.1861 0.50849 0.60352 0.0
H319 H 0.17444 0.51157 0.5834 0.0
H320 H 0.21195 0.52392 0.60071 0.0
H321 H 0.17865 0.51608 0.62405 0.0
C322 C 0.2393 0.47822 0.48717 0.0
N323 N 0.21359 0.48009 0.49495 0.0
N324 N 0.21192 0.48065 0.52454 0.0
C325 C 0.23754 0.48113 0.53644 0.0
C326 C 0.25541 0.47862 0.51328 0.0
C327 C 0.24366 0.46825 0.45635 0.0
H328 H 0.22063 0.45492 0.44464 0.0
H329 H 0.25929 0.48962 0.4429 0.0
H330 H 0.25458 0.45312 0.45746 0.0
O331 O 0.14954 0.42358 0.47319 0.0
O332 O 0.145 0.41924 0.52306 0.0
H333 H 0.22714 0.45662 0.57873 0.0
H334 H 0.26795 0.48687 0.57421 0.0
C335 C 0.24315 0.48054 0.5696 0.0
H336 H 0.23824 0.4976 0.58132 0.0
H337 H 0.15689 0.40684 0.57994 0.0
O338 O 0.18967 0.48136 0.4289 0.0
C339 C 0.13855 0.40681 0.49686 0.0
Co340 Co 0.68701 0.17304 0.53673 0.0
Co341 Co 0.74554 0.16441 0.53628 0.0
C342 C 0.73209 0.19607 0.58962 0.0
O343 O 0.70739 0.1934 0.57681 0.0
O344 O 0.7489 0.18644 0.57619 0.0
C345 C 0.62674 0.15658 0.55133 0.0
O346 O 0.63864 0.15757 0.57818 0.0
C347 C 0.81259 0.18445 0.53148 0.0
C348 C 0.81078 0.1394 0.52047 0.0
C349 C 0.8314 0.17136 0.52472 0.0
N350 N 0.78235 0.16123 0.5312 0.0
N351 N 0.7814 0.13432 0.52495 0.0
C352 C 0.82246 0.21857 0.53541 0.0
H353 H 0.80218 0.22236 0.53134 0.0
H354 H 0.84209 0.23352 0.51979 0.0
H355 H 0.83071 0.2258 0.55893 0.0
C356 C 0.71265 0.20128 0.47527 0.0
N357 N 0.71474 0.18925 0.50217 0.0
N358 N 0.739 0.18458 0.50148 0.0
C359 C 0.75272 0.19293 0.47386 0.0
C360 C 0.73675 0.20419 0.45606 0.0
C361 C 0.68752 0.20921 0.46807 0.0
H362 H 0.68033 0.21663 0.48886 0.0
H363 H 0.6959 0.22828 0.45091 0.0
H364 H 0.66654 0.18785 0.45905 0.0
O365 O 0.67013 0.12684 0.53983 0.0
O366 O 0.71129 0.1199 0.53898 0.0
H367 H 0.77809 0.18445 0.43838 0.0
H368 H 0.80129 0.20566 0.47083 0.0
C369 C 0.77794 0.18629 0.46333 0.0
H370 H 0.77412 0.16381 0.47316 0.0
H371 H 0.76065 0.11259 0.52293 0.0
O372 O 0.64589 0.17073 0.52977 0.0
C373 C 0.68165 0.10865 0.54027 0.0
Co374 Co 0.54166 0.71343 0.47647 0.0
Co375 Co 0.54787 0.70971 0.54585 0.0
C376 C 0.52043 0.65154 0.50707 0.0
O377 O 0.52444 0.66732 0.48298 0.0
O378 O 0.52706 0.66507 0.53269 0.0
C379 C 0.50956 0.70263 0.41977 0.0
O380 O 0.48648 0.67812 0.4335 0.0
C381 C 0.52309 0.7027 0.60686 0.0
C382 C 0.56591 0.71778 0.63445 0.0
C383 C 0.53408 0.70833 0.63635 0.0
N384 N 0.54744 0.70916 0.58852 0.0
N385 N 0.57287 0.71764 0.60513 0.0
C386 C 0.48995 0.69031 0.59601 0.0
H387 H 0.48593 0.67644 0.57499 0.0
H388 H 0.48608 0.71028 0.59069 0.0
H389 H 0.47274 0.67541 0.61359 0.0
C390 C 0.51944 0.75679 0.49474 0.0
N391 N 0.52479 0.73301 0.5018 0.0
N392 N 0.53025 0.73386 0.53094 0.0
C393 C 0.53029 0.75926 0.54306 0.0
C394 C 0.52314 0.77457 0.52054 0.0
C395 C 0.5151 0.76489 0.46318 0.0
H396 H 0.53755 0.77386 0.4505 0.0
H397 H 0.4967 0.74337 0.45173 0.0
H398 H 0.50773 0.78301 0.4629 0.0
O399 O 0.58819 0.73492 0.48294 0.0
O400 O 0.59191 0.73028 0.53251 0.0
H401 H 0.56349 0.76711 0.57866 0.0
H402 H 0.55668 0.79952 0.57263 0.0
C403 C 0.54528 0.77339 0.57289 0.0
H404 H 0.52696 0.76433 0.59076 0.0
H405 H 0.59515 0.72428 0.59637 0.0
O406 O 0.53501 0.72015 0.43397 0.0
C407 C 0.6047 0.73945 0.50668 0.0
H408 H 0.51768 0.12102 0.96758 0.0
H409 H 0.52357 0.07428 0.97035 0.0
H410 H 0.53858 0.08715 0.06636 0.0
H411 H 0.53265 0.13384 0.06401 0.0
H412 H 0.56986 0.05909 0.99544 0.0
H413 H 0.45472 0.00089 0.05585 0.0
H414 H 0.46904 0.03763 0.0356 0.0
H415 H 0.48487 0.03727 0.07209 0.0
C416 C 0.52326 0.11462 0.98919 0.0
C417 C 0.52405 0.13097 0.01567 0.0
C418 C 0.52644 0.08772 0.99072 0.0
C419 C 0.53053 0.07676 0.01869 0.0
C420 C 0.53469 0.09485 0.04465 0.0
H421 H 0.52335 0.90438 0.07858 0.0
H422 H 0.5205 0.95282 0.07492 0.0
C423 C 0.53156 0.12175 0.04317 0.0
C424 C 0.52755 0.04509 0.02108 0.0
H425 H 0.48006 0.97091 0.04947 0.0
C426 C 0.55025 0.03978 1.00721 0.0
C427 C 0.50181 0.01992 0.03636 0.0
C428 C 0.47602 0.02397 0.05065 0.0
C429 C 0.54826 0.0101 1.00871 0.0
C430 C 0.52242 0.98485 0.02388 0.0
C431 C 0.49975 0.99021 0.03777 0.0
C432 C 0.51903 0.95294 0.0261 0.0
C433 C 0.57423 0.00629 0.9945 0.0
C434 C 0.51711 0.93585 0.99997 0.0
C435 C 0.51867 0.9081 1.00197 0.0
C436 C 0.52195 0.89677 0.03019 0.0
C437 C 0.52081 0.91235 0.05648 0.0
C438 C 0.51943 0.94023 0.05442 0.0
H439 H 0.59637 0.02936 0.99204 0.0
H440 H 0.57938 0.99025 1.008 0.0
H441 H 0.56665 0.99595 0.97164 0.0
H442 H 0.51587 0.94475 0.97791 0.0
H443 H 0.51921 0.89658 0.98126 0.0
H444 H 0.59995 0.45593 0.06767 0.0
H445 H 0.54714 0.44933 0.06773 0.0
H446 H 0.55179 0.46204 0.9712 0.0
H447 H 0.60479 0.46896 0.97083 0.0
H448 H 0.54324 0.5064 1.00242 0.0
H449 H 0.45702 0.38559 0.04148 0.0
H450 H 0.49151 0.40508 0.06494 0.0
H451 H 0.4953 0.39568 0.02648 0.0
C452 C 0.58938 0.45614 0.04624 0.0
C453 C 0.60701 0.46356 0.01931 0.0
C454 C 0.55903 0.45229 0.04634 0.0
C455 C 0.54558 0.45541 0.0195 0.0
C456 C 0.56179 0.45967 0.9922 0.0
H457 H 0.38383 0.47985 0.98565 0.0
H458 H 0.43343 0.47946 0.9811 0.0
C459 C 0.59211 0.46344 0.99204 0.0
C460 C 0.5173 0.45924 0.0206 0.0
H461 H 0.44063 0.42421 0.04425 0.0
C462 C 0.52068 0.48828 1.01123 0.0
C463 C 0.48799 0.43571 0.03237 0.0
C464 C 0.48255 0.40365 0.04164 0.0
C465 C 0.49582 0.4947 1.01396 0.0
C466 C 0.46671 0.47137 0.02613 0.0
C467 C 0.46313 0.44218 0.03519 0.0
C468 C 0.43935 0.47646 0.02915 0.0
C469 C 0.50112 0.52668 1.00456 0.0
C470 C 0.42678 0.47597 0.05774 0.0
C471 C 0.39853 0.47647 0.06048 0.0
C472 C 0.38203 0.47692 0.0346 0.0
C473 C 0.39588 0.47957 1.00608 0.0
C474 C 0.42423 0.47926 1.0034 0.0
H475 H 0.52663 0.54426 1.00204 0.0
H476 H 0.48945 0.52449 0.98249 0.0
H477 H 0.49063 0.53574 0.02125 0.0
H478 H 0.43819 0.47392 0.0779 0.0
H479 H 0.38855 0.47421 0.08279 0.0
H480 H 0.08389 0.61031 0.09079 0.0
H481 H 0.03443 0.55991 0.08772 0.0
H482 H 0.04142 0.56242 0.99066 0.0
H483 H 0.09091 0.61271 0.99341 0.0
H484 H 0.98064 0.55492 0.05638 0.0
H485 H 0.01555 0.4703 1.01235 0.0
H486 H 0.0433 0.50713 0.03016 0.0
H487 H 0.03124 0.50682 0.9918 0.0
C488 C 0.07557 0.59966 0.06881 0.0
C489 C 0.09145 0.61569 0.04233 0.0
C490 C 0.04707 0.57098 0.06711 0.0
C491 C 0.03418 0.5575 0.03898 0.0
C492 C 0.05105 0.57226 1.01262 0.0
H493 H 0.86158 0.39049 0.98338 0.0
H494 H 0.90688 0.44398 0.98359 0.0
C495 C 0.07943 0.60102 1.01427 0.0
C496 C 0.00193 0.52958 0.03702 0.0
H497 H 0.96087 0.4529 1.0135 0.0
C498 C 0.97627 0.53255 0.0471 0.0
C499 C 0.9963 0.50057 0.02466 0.0
C500 C 0.02302 0.49577 1.01432 0.0
C501 C 0.94506 0.50729 0.04494 0.0
C502 C 0.93946 0.47818 0.03279 0.0
C503 C 0.96515 0.47533 0.02256 0.0
C504 C 0.90754 0.44958 0.03204 0.0
C505 C 0.91836 0.51211 0.05523 0.0
C506 C 0.89171 0.43562 0.05907 0.0
C507 C 0.86563 0.40499 0.05907 0.0
C508 C 0.85513 0.38756 0.03204 0.0
C509 C 0.86899 0.40298 1.00468 0.0
C510 C 0.89511 0.43358 1.00473 0.0
H511 H 0.92555 0.53757 0.0559 0.0
H512 H 0.89753 0.4996 0.04018 0.0
H513 H 0.91113 0.50243 0.07836 0.0
H514 H 0.901 0.44735 0.08046 0.0
H515 H 0.85557 0.39404 0.08058 0.0
H516 H 0.1102 0.5009 0.46014 0.0
H517 H 0.06013 0.50083 0.46146 0.0
H518 H 0.06233 0.50098 0.55879 0.0
H519 H 0.11252 0.50197 0.55773 0.0
H520 H 0.00704 0.45299 0.484 0.0
H521 H 0.03117 0.5615 0.54472 0.0
H522 H 0.06229 0.5565 0.52859 0.0
H523 H 0.04627 0.54025 0.56519 0.0
C524 C 0.10061 0.50206 0.48183 0.0
C525 C 0.1154 0.50126 0.50883 0.0
C526 C 0.07183 0.5018 0.48254 0.0
C527 C 0.05742 0.501 0.51022 0.0
C528 C 0.07316 0.50225 0.53713 0.0
H529 H 0.8766 0.45825 0.58075 0.0
H530 H 0.92838 0.46384 0.57134 0.0
C531 C 0.10193 0.50265 0.53647 0.0
C532 C 0.02444 0.49498 0.51125 0.0
H533 H 0.97731 0.5184 0.54606 0.0
C534 C 0.0006 0.46776 0.49695 0.0
C535 C 0.01593 0.51409 0.52828 0.0
C536 C 0.04033 0.54488 0.54228 0.0
C537 C 0.96851 0.45854 0.50015 0.0
C538 C 0.96003 0.47702 0.51813 0.0
C539 C 0.98385 0.50441 0.53208 0.0
C540 C 0.92665 0.46863 0.52294 0.0
C541 C 0.9439 0.42844 0.4853 0.0
C542 C 0.90797 0.46835 0.49873 0.0
C543 C 0.87814 0.46488 0.50401 0.0
C544 C 0.86665 0.46202 0.53368 0.0
C545 C 0.88467 0.46038 0.55764 0.0
C546 C 0.91439 0.46377 0.55233 0.0
H547 H 0.95367 0.41313 0.47853 0.0
H548 H 0.92353 0.41484 0.50064 0.0
H549 H 0.93505 0.4344 0.46469 0.0
H550 H 0.91712 0.47253 0.47591 0.0
H551 H 0.8651 0.4666 0.48504 0.0
H552 H 0.60168 0.13 0.49621 0.0
H553 H 0.55486 0.07837 0.48747 0.0
H554 H 0.53312 0.06998 0.5825 0.0
H555 H 0.58 0.12136 0.59153 0.0
H556 H 0.53672 0.01885 0.5593 0.0
H557 H 0.45965 0.04575 0.48789 0.0
H558 H 0.49961 0.06228 0.47482 0.0
H559 H 0.49186 0.07558 0.50989 0.0
C560 C 0.58641 0.11768 0.51514 0.0
C561 C 0.59467 0.12986 0.54462 0.0
C562 C 0.55965 0.08806 0.51009 0.0
C563 C 0.54047 0.07028 0.53434 0.0
C564 C 0.54763 0.08324 0.56347 0.0
H565 H 0.37869 0.88954 0.56933 0.0
H566 H 0.42887 0.93913 0.57145 0.0
C567 C 0.57435 0.11274 0.56856 0.0
C568 C 0.51456 0.0372 0.52994 0.0
H569 H 0.44346 0.99182 0.49522 0.0
C570 C 0.51646 0.01292 0.54507 0.0
C571 C 0.48813 0.02947 0.51139 0.0
C572 C 0.48441 0.0546 0.49522 0.0
C573 C 0.49274 0.98115 0.54213 0.0
C574 C 0.46582 0.97351 0.52439 0.0
C575 C 0.46415 0.9977 0.50878 0.0
C576 C 0.43801 0.94107 0.52348 0.0
C577 C 0.49683 0.95602 0.55784 0.0
C578 C 0.42668 0.92528 0.49587 0.0
C579 C 0.39795 0.89675 0.49459 0.0
C580 C 0.37977 0.88372 0.52085 0.0
C581 C 0.39205 0.89881 0.54867 0.0
C582 C 0.42084 0.92718 0.54995 0.0
H583 H 0.52214 0.96421 0.56234 0.0
H584 H 0.48431 0.95031 0.57984 0.0
H585 H 0.48679 0.93405 0.54419 0.0
H586 H 0.43951 0.93563 0.47516 0.0
H587 H 0.38917 0.88593 0.47274 0.0
H588 H 0.53549 0.39334 0.48105 0.0
H589 H 0.53836 0.4441 0.47109 0.0
H590 H 0.52972 0.45587 0.56644 0.0
H591 H 0.52792 0.40611 0.57661 0.0
H592 H 0.4927 0.45814 0.48185 0.0
H593 H 0.59898 0.54239 0.54517 0.0
H594 H 0.59044 0.50274 0.53686 0.0
H595 H 0.5726 0.51035 0.569 0.0
C596 C 0.53527 0.40726 0.49997 0.0
C597 C 0.53157 0.39562 0.52966 0.0
C598 C 0.53661 0.43615 0.49421 0.0
C599 C 0.53451 0.45403 0.51801 0.0
C600 C 0.53214 0.44301 0.54771 0.0
H601 H 0.50485 0.60909 0.55322 0.0
H602 H 0.50611 0.55977 0.55243 0.0
C603 C 0.53099 0.41436 0.55348 0.0
C604 C 0.53221 0.48282 0.51203 0.0
H605 H 0.56096 0.559 0.53523 0.0
C606 C 0.50795 0.48037 0.49312 0.0
C607 C 0.55219 0.51193 0.52656 0.0
C608 C 0.58021 0.51711 0.54524 0.0
C609 C 0.50224 0.50573 0.48955 0.0
C610 C 0.52113 0.53416 0.5055 0.0
C611 C 0.54606 0.53696 0.52349 0.0
C612 C 0.51538 0.5613 0.50454 0.0
C613 C 0.47553 0.50162 0.46946 0.0
C614 C 0.51909 0.57806 0.47765 0.0
C615 C 0.51807 0.60623 0.47796 0.0
C616 C 0.51377 0.61838 0.50526 0.0
C617 C 0.50826 0.60052 0.5318 0.0
C618 C 0.50911 0.57235 0.53143 0.0
H619 H 0.46173 0.51129 0.48044 0.0
H620 H 0.48541 0.51481 0.44812 0.0
H621 H 0.45935 0.47644 0.46363 0.0
H622 H 0.52445 0.57031 0.45671 0.0
H623 H 0.5227 0.61947 0.45714 0.0
H624 H 0.37857 0.08114 0.98345 0.0
H625 H 0.34101 0.02469 0.98807 0.0
H626 H 0.35576 0.03031 0.08436 0.0
H627 H 0.39302 0.08685 0.08012 0.0
H628 H 0.35898 0.98292 1.00929 0.0
H629 H 0.26003 0.97471 0.07762 0.0
H630 H 0.28839 0.01067 0.0589 0.0
H631 H 0.29834 -0.00076 0.09396 0.0
C632 C 0.37325 0.07062 1.00574 0.0
C633 C 0.38903 0.08859 0.03139 0.0
C634 C 0.35184 0.03828 1.00831 0.0
C635 C 0.34559 0.02329 0.03654 0.0
C636 C 0.35987 0.04145 0.0624 0.0
H637 H 0.27998 0.82189 0.06184 0.0
H638 H 0.31151 0.88001 0.06202 0.0
C639 C 0.38125 0.07383 0.05989 0.0
C640 C 0.32676 0.98835 0.03846 0.0
H641 H 0.26126 0.92705 0.07052 0.0
C642 C 0.33753 0.97067 0.02258 0.0
C643 C 0.29881 0.97247 0.05577 0.0
C644 C 0.28548 0.99019 0.07233 0.0
C645 C 0.32112 0.93754 0.02355 0.0
C646 C 0.29352 0.92165 0.04137 0.0
C647 C 0.28265 0.93931 0.05716 0.0
C648 C 0.27459 0.88666 0.04253 0.0
C649 C 0.3331 0.91985 1.0049 0.0
C650 C 0.24321 0.87127 0.03242 0.0
C651 C 0.22532 0.83836 0.03253 0.0
C652 C 0.23851 0.8202 0.0426 0.0
C653 C 0.2696 0.8355 0.05349 0.0
C654 C 0.28755 0.86857 0.05348 0.0
H655 H 0.34989 0.93507 0.98715 0.0
H656 H 0.34565 0.91148 0.01982 0.0
H657 H 0.31325 0.89891 0.99391 0.0
H658 H 0.23266 0.88474 0.02411 0.0
H659 H 0.20109 0.82705 0.02473 0.0
H660 H 0.47901 0.30131 0.04022 0.0
H661 H 0.44121 0.31951 0.05069 0.0
H662 H 0.36672 0.23451 1.0101 0.0
H663 H 0.40385 0.2159 1.00085 0.0
H664 H 0.40312 0.33092 1.01442 0.0
H665 H 0.33033 0.23261 0.09259 0.0
H666 H 0.36886 0.24106 0.07987 0.0
H667 H 0.33463 0.2186 0.05649 0.0
C668 C 0.45462 0.28688 0.03328 0.0
C669 C 0.44423 0.25742 0.01963 0.0
C670 C 0.43309 0.2971 0.03938 0.0
C671 C 0.40106 0.27786 0.03192 0.0
C672 C 0.39115 0.24924 0.01682 0.0
H673 H 0.26435 0.33445 1.00728 0.0
H674 H 0.29092 0.30348 1.00587 0.0
C675 C 0.41248 0.23893 1.01103 0.0
C676 C 0.37777 0.28757 0.03954 0.0
H677 H 0.30664 0.26227 0.07418 0.0
C678 C 0.38217 0.31605 0.02767 0.0
C679 C 0.35075 0.26832 0.05734 0.0
C680 C 0.34601 0.23863 0.07258 0.0
C681 C 0.35957 0.32523 0.03208 0.0
C682 C 0.33163 0.30499 0.04819 0.0
C683 C 0.32775 0.27717 0.06116 0.0
C684 C 0.30687 0.31339 0.05217 0.0
C685 C 0.36568 0.35652 0.01941 0.0
C686 C 0.3047 0.32651 0.07953 0.0
C687 C 0.28941 0.34414 0.0805 0.0
C688 C 0.27664 0.3491 0.05394 0.0
C689 C 0.27457 0.33164 0.02794 0.0
C690 C 0.28979 0.31399 0.02704 0.0
H691 H 0.3908 0.3719 1.01282 0.0
H692 H 0.35081 0.35223 0.99908 0.0
H693 H 0.35934 0.36935 0.03615 0.0
H694 H 0.31754 0.32588 0.09922 0.0
H695 H 0.291 0.35686 0.10106 0.0
H696 H 0.91413 0.30803 0.09156 0.0
H697 H 0.9713 0.33042 0.09281 0.0
H698 H 0.97349 0.32824 0.99557 0.0
H699 H 0.9163 0.30627 0.99395 0.0
H700 H 0.01234 0.31155 0.07101 0.0
H701 H 0.03243 0.42186 0.01527 0.0
H702 H 0.99445 0.39275 0.02998 0.0
H703 H 0.0077 0.38667 0.99407 0.0
C704 C 0.92661 0.31183 0.07039 0.0
C705 C 0.91059 0.30573 0.04262 0.0
C706 C 0.95935 0.32472 0.07118 0.0
C707 C 0.97669 0.33177 0.04428 0.0
C708 C 0.9606 0.32373 0.01658 0.0
H709 H 0.17127 0.38114 0.02221 0.0
H710 H 0.11376 0.35569 0.02403 0.0
C711 C 0.92785 0.31089 0.01573 0.0
C712 C 0.01167 0.34857 0.04524 0.0
H713 H 0.07751 0.41618 0.02242 0.0
C714 C 0.02662 0.33446 0.06046 0.0
C715 C 0.0302 0.37881 0.03208 0.0
C716 C 0.01544 0.39612 0.01719 0.0
C717 C 0.05967 0.34938 0.06218 0.0
C718 C 0.07823 0.37892 0.04774 0.0
C719 C 0.06325 0.39341 0.03322 0.0
C720 C 0.11317 0.39468 0.04661 0.0
C721 C 0.07434 0.33351 0.07976 0.0
C722 C 0.13202 0.42549 0.05785 0.0
C723 C 0.16501 0.44036 0.05626 0.0
C724 C 0.17949 0.42468 0.04318 0.0
C725 C 0.1606 0.3939 0.03199 0.0
C726 C 0.12777 0.37917 0.03341 0.0
H727 H 0.05773 0.31688 0.09688 0.0
H728 H 0.08041 0.31969 0.06402 0.0
H729 H 0.09627 0.35112 0.09138 0.0
H730 H 0.12119 0.43793 0.068 0.0
H731 H 0.1792 0.46403 0.06518 0.0
H732 H 0.70599 0.17059 0.07191 0.0
H733 H 0.69011 0.1148 0.07977 0.0
H734 H 0.76044 0.12384 0.01543 0.0
H735 H 0.77723 0.17955 1.00866 0.0
H736 H 0.6681 0.06518 0.04143 0.0
H737 H 0.78307 0.08955 0.08853 0.0
H738 H 0.77291 0.12006 0.08332 0.0
H739 H 0.78703 0.10705 0.05202 0.0
C740 C 0.7176 0.16036 0.05918 0.0
C741 C 0.74248 0.17907 0.03946 0.0
C742 C 0.70876 0.12873 0.06382 0.0
C743 C 0.72478 0.11559 0.04879 0.0
C744 C 0.74845 0.13385 0.02787 0.0
H745 H 0.66998 0.92786 1.00845 0.0
H746 H 0.70291 0.98494 1.01378 0.0
C747 C 0.75749 0.16545 0.02348 0.0
C748 C 0.71643 0.08258 0.05449 0.0
H749 H 0.74753 0.03587 0.07341 0.0
C750 C 0.68533 0.0588 0.04883 0.0
C751 C 0.73903 0.07444 0.06439 0.0
C752 C 0.77229 0.09916 0.07273 0.0
C753 C 0.67645 0.02693 0.05165 0.0
C754 C 0.69939 0.01881 0.06008 0.0
C755 C 0.73025 0.04244 0.06667 0.0
C756 C 0.69114 0.98552 0.0607 0.0
C757 C 0.64276 0.00204 0.04482 0.0
C758 C 0.67603 0.96711 0.08613 0.0
C759 C 0.65709 0.93443 0.08321 0.0
C760 C 0.65288 0.92018 0.05468 0.0
C761 C 0.67219 0.93825 0.03056 0.0
C762 C 0.69114 0.97088 0.03355 0.0
H763 H 0.62748 0.01247 0.04056 0.0
H764 H 0.64218 0.98835 0.02461 0.0
H765 H 0.63267 0.98524 0.06398 0.0
H766 H 0.67599 0.97824 0.10727 0.0
H767 H 0.64295 0.92111 0.10238 0.0
H768 H 0.62506 0.78917 0.01665 0.0
H769 H 0.65144 0.75786 0.0172 0.0
H770 H 0.56523 0.67666 0.04781 0.0
H771 H 0.53838 0.70791 0.04615 0.0
H772 H 0.66237 0.72812 0.06287 0.0
H773 H 0.58796 0.64122 0.97551 0.0
H774 H 0.58681 0.677 0.98253 0.0
H775 H 0.56601 0.64337 1.00699 0.0
C776 C 0.61165 0.76449 0.02307 0.0
C777 C 0.57956 0.75062 0.03071 0.0
C778 C 0.62679 0.74672 0.02361 0.0
C779 C 0.61019 0.71478 0.03202 0.0
C780 C 0.57829 0.70107 0.04052 0.0
H781 H 0.69085 0.59799 0.07922 0.0
H782 H 0.67148 0.63527 0.0801 0.0
C783 C 0.56302 0.71887 0.03975 0.0
C784 C 0.62661 0.69615 0.03196 0.0
H785 H 0.62472 0.63128 1.00104 0.0
C786 C 0.65418 0.70696 0.04931 0.0
C787 C 0.6162 0.66887 1.01387 0.0
C788 C 0.58781 0.65704 0.99344 0.0
C789 C 0.67144 0.69104 0.04932 0.0
C790 C 0.66047 0.66323 0.03194 0.0
C791 C 0.63307 0.65259 1.0144 0.0
C792 C 0.67648 0.64423 0.032 0.0
C793 C 0.70152 0.70448 0.06748 0.0
C794 C 0.68618 0.63715 1.00471 0.0
C795 C 0.69708 0.6156 1.00406 0.0
C796 C 0.69833 0.60057 0.03071 0.0
C797 C 0.69034 0.60916 0.05826 0.0
C798 C 0.67932 0.6306 0.05885 0.0
H799 H 0.71149 0.73012 0.07187 0.0
H800 H 0.69641 0.69225 0.08961 0.0
H801 H 0.71963 0.70101 0.05575 0.0
H802 H 0.68422 0.64744 0.98372 0.0
H803 H 0.70307 0.60962 0.98245 0.0
H804 H 0.82097 0.51003 0.05289 0.0
H805 H 0.87635 0.54889 0.06466 0.0
H806 H 0.86668 0.62066 0.01699 0.0
H807 H 0.81161 0.58259 1.00632 0.0
H808 H 0.9281 0.58782 0.02882 0.0
H809 H 0.89451 0.65886 0.10093 0.0
H810 H 0.86642 0.61938 0.08854 0.0
H811 H 0.87763 0.65262 0.06386 0.0
C812 C 0.83105 0.534 0.04455 0.0
C813 C 0.81232 0.54343 0.02866 0.0
C814 C 0.86242 0.55612 0.0514 0.0
C815 C 0.87511 0.58775 0.04241 0.0
C816 C 0.85697 0.59655 0.02482 0.0
H817 H 0.06272 0.73282 0.01875 0.0
H818 H 0.00516 0.70382 0.01945 0.0
C819 C 0.82573 0.57465 0.01824 0.0
C820 C 0.90725 0.61195 0.05139 0.0
H821 H 0.94879 0.68445 0.08481 0.0
C822 C 0.93265 0.60873 0.04139 0.0
C823 C 0.91295 0.63898 0.06818 0.0
C824 C 0.8864 0.64255 0.08128 0.0
C825 C 0.96378 0.63267 0.04645 0.0
C826 C 0.9694 0.66056 0.06148 0.0
C827 C 0.94413 0.66323 0.07275 0.0
C828 C 0.00177 0.68696 0.06518 0.0
C829 C 0.99053 0.6283 0.03523 0.0
C830 C 0.01838 0.68932 0.09168 0.0
C831 C 0.05132 0.706 0.09145 0.0
C832 C 0.06766 0.71983 0.06447 0.0
C833 C 0.05077 0.7218 0.03965 0.0
C834 C 0.01788 0.70521 0.03996 0.0
H835 H 0.98223 0.60364 0.02787 0.0
H836 H 0.00215 0.64425 0.01575 0.0
H837 H 0.00858 0.63461 0.05317 0.0
H838 H 0.00608 0.6755 0.1114 0.0
H839 H 0.06363 0.70448 0.11115 0.0
H840 H 0.17893 0.73191 0.47919 0.0
H841 H 0.1218 0.6963 0.48043 0.0
H842 H 0.13121 0.65404 0.56236 0.0
H843 H 0.18883 0.68944 0.56087 0.0
H844 H 0.08145 0.62541 0.48644 0.0
H845 H 0.07514 0.69604 0.58211 0.0
H846 H 0.10923 0.71085 0.55775 0.0
H847 H 0.10217 0.68127 0.58548 0.0
C848 C 0.169 0.71424 0.49684 0.0
C849 C 0.18829 0.71313 0.51977 0.0
C850 C 0.13633 0.69408 0.49765 0.0
C851 C 0.12233 0.67275 0.52159 0.0
C852 C 0.14163 0.67047 0.54376 0.0
H853 H 0.91901 0.53954 0.53283 0.0
H854 H 0.97635 0.5632 0.53269 0.0
C855 C 0.17443 0.69051 0.54282 0.0
C856 C 0.08749 0.65517 0.52453 0.0
H857 H 0.0271 0.65497 0.56345 0.0
C858 C 0.06946 0.63159 0.5034 0.0
C859 C 0.07208 0.66366 0.54651 0.0
C860 C 0.09048 0.68945 0.56923 0.0
C861 C 0.0363 0.61648 0.50341 0.0
C862 C 0.02085 0.62512 0.5253 0.0
C863 C 0.03896 0.64843 0.54667 0.0
C864 C 0.98596 0.61092 0.52599 0.0
C865 C 0.01824 0.59215 0.47937 0.0
C866 C 0.97227 0.63015 0.52322 0.0
C867 C 0.9394 0.61683 0.52357 0.0
C868 C 0.91959 0.584 0.52679 0.0
C869 C 0.93346 0.5649 0.5301 0.0
C870 C 0.96627 0.57829 0.52984 0.0
H871 H 0.03357 0.59426 0.45997 0.0
H872 H 0.00873 0.56816 0.48911 0.0
H873 H 0.99808 0.59441 0.47088 0.0
H874 H 0.98703 0.65546 0.5204 0.0
H875 H 0.92955 0.63223 0.52098 0.0
H876 H 0.27501 0.11714 0.51831 0.0
H877 H 0.24327 0.05976 0.51082 0.0
H878 H 0.32283 0.06018 0.46836 0.0
H879 H 0.35444 0.11736 0.47528 0.0
H880 H 0.25439 0.02144 0.43951 0.0
H881 H 0.26914 -0.00028 0.5606 0.0
H882 H 0.25812 0.02869 0.55067 0.0
H883 H 0.2971 0.0361 0.54226 0.0
C884 C 0.28564 0.10492 0.50732 0.0
C885 C 0.31743 0.12144 0.4982 0.0
C886 C 0.26749 0.07233 0.50295 0.0
C887 C 0.28086 0.05602 0.48908 0.0
C888 C 0.31224 0.07256 0.47911 0.0
H889 H 0.28126 0.89434 0.44674 0.0
H890 H 0.27328 0.93945 0.44108 0.0
C891 C 0.33042 0.10508 0.4836 0.0
C892 C 0.26333 0.02135 0.4871 0.0
H893 H 0.2499 0.95684 0.52773 0.0
C894 C 0.25265 0.00702 0.45884 0.0
C895 C 0.26074 0.00281 0.5125 0.0
C896 C 0.27185 0.01739 0.54331 0.0
C897 C 0.24108 0.97454 0.45499 0.0
C898 C 0.24121 0.95646 0.47988 0.0
C899 C 0.24972 0.97057 0.50857 0.0
C900 C 0.23797 0.92482 0.4764 0.0
C901 C 0.2297 0.96023 0.42419 0.0
C902 C 0.22001 0.90091 0.49735 0.0
C903 C 0.22538 0.87567 0.50126 0.0
C904 C 0.24827 0.87365 0.48379 0.0
C905 C 0.26337 0.89536 0.46035 0.0
C906 C 0.25857 0.92105 0.45694 0.0
H907 H 0.21814 0.97185 0.41239 0.0
H908 H 0.25024 0.96415 0.41031 0.0
H909 H 0.21275 0.93445 0.42553 0.0
H910 H 0.20394 0.90326 0.51255 0.0
H911 H 0.21327 0.85897 0.51933 0.0
H912 H 0.31003 0.49634 0.48164 0.0
H913 H 0.3418 0.47006 0.4817 0.0
H914 H 0.28292 0.40758 0.55234 0.0
H915 H 0.24972 0.43131 0.55023 0.0
H916 H 0.37688 0.45975 0.52094 0.0
H917 H 0.2738 0.34469 0.49094 0.0
H918 H 0.27217 0.38071 0.49079 0.0
H919 H 0.26669 0.35915 0.52545 0.0
C920 C 0.30405 0.47705 0.4972 0.0
C921 C 0.27753 0.46617 0.51611 0.0
C922 C 0.32223 0.46213 0.49731 0.0
C923 C 0.31428 0.43629 0.51653 0.0
C924 C 0.28902 0.42682 0.53669 0.0
H925 H 0.4327 0.35359 0.55786 0.0
H926 H 0.40797 0.38652 0.55691 0.0
C927 C 0.27044 0.44104 0.53599 0.0
C928 C 0.33131 0.41823 0.51491 0.0
H929 H 0.31873 0.34319 0.50992 0.0
C930 C 0.36429 0.43429 0.51816 0.0
C931 C 0.31498 0.38508 0.51061 0.0
C932 C 0.28002 0.3665 0.5039 0.0
C933 C 0.38128 0.41802 0.51801 0.0
C934 C 0.36464 0.38456 0.51568 0.0
C935 C 0.33169 0.36873 0.51194 0.0
C936 C 0.38047 0.36519 0.51643 0.0
C937 C 0.41684 0.43708 0.51964 0.0
C938 C 0.37221 0.34098 0.49506 0.0
C939 C 0.38492 0.32102 0.49672 0.0
C940 C 0.40696 0.32547 0.51918 0.0
C941 C 0.41583 0.34992 0.54023 0.0
C942 C 0.4021 0.3691 0.53934 0.0
H943 H 0.42578 0.46168 0.51177 0.0
H944 H 0.42448 0.43849 0.54344 0.0
H945 H 0.42794 0.42627 0.50587 0.0
H946 H 0.35567 0.33733 0.4771 0.0
H947 H 0.37799 0.30247 0.48007 0.0
H948 H 0.11408 0.37228 0.44504 0.0
H949 H 0.0665 0.32028 0.44131 0.0
H950 H 0.06165 0.31317 0.53842 0.0
H951 H 0.10935 0.36449 0.54246 0.0
H952 H 0.03802 0.25394 0.50872 0.0
H953 H 0.9884 0.32696 0.46414 0.0
H954 H 0.02016 0.32771 0.44306 0.0
H955 H 0.02739 0.34452 0.48027 0.0
C956 C 0.10341 0.35925 0.46559 0.0
C957 C 0.1149 0.37292 0.49407 0.0
C958 C 0.07627 0.32955 0.46338 0.0
C959 C 0.06025 0.31339 0.4896 0.0
C960 C 0.07362 0.32542 0.51792 0.0
H961 H 0.87756 0.22108 0.55632 0.0
H962 H 0.93388 0.25088 0.54443 0.0
C963 C 0.10078 0.35493 0.52016 0.0
C964 C 0.0272 0.28743 0.48828 0.0
H965 H 0.95272 0.2749 0.47741 0.0
C966 C 0.01932 0.25814 0.50121 0.0
C967 C 0.00294 0.29335 0.47888 0.0
C968 C 0.00994 0.32485 0.46599 0.0
C969 C 0.98765 0.23506 0.50613 0.0
C970 C 0.96369 0.24167 0.4979 0.0
C971 C 0.97145 0.27017 0.48358 0.0
C972 C 0.9306 0.22112 0.50686 0.0
C973 C 0.97989 0.20454 0.52162 0.0
C974 C 0.91049 0.19443 0.4898 0.0
C975 C 0.87822 0.17764 0.49628 0.0
C976 C 0.86577 0.18764 0.51965 0.0
C977 C 0.8863 0.21356 0.53751 0.0
C978 C 0.91848 0.23029 0.53103 0.0
H979 H 0.00132 0.20288 0.52643 0.0
H980 H 0.96744 0.20251 0.5432 0.0
H981 H 0.96367 0.18425 0.50723 0.0
H982 H 0.91957 0.18727 0.47093 0.0
H983 H 0.86285 0.15758 0.4823 0.0
H984 H 0.61694 0.07618 0.53763 0.0
H985 H 0.58172 0.01888 0.53759 0.0
H986 H 0.662 0.00522 0.54495 0.0
H987 H 0.69747 0.06237 0.54494 0.0
H988 H 0.57876 0.97501 0.49764 0.0
H989 H 0.6048 0.94847 0.61195 0.0
H990 H 0.61587 0.98803 0.60001 0.0
H991 H 0.64002 0.97113 0.59014 0.0
C992 C 0.62715 0.06103 0.53955 0.0
C993 C 0.66011 0.07394 0.54144 0.0
C994 C 0.60692 0.02827 0.53957 0.0
C995 C 0.61913 0.00779 0.54198 0.0
C996 C 0.65197 0.02058 0.54386 0.0
H997 H 0.56332 0.82353 0.48452 0.0
H998 H 0.5797 0.87929 0.48997 0.0
C999 C 0.67226 0.0533 0.54365 0.0
C1000 C 0.59783 0.97301 0.54091 0.0
H1001 H 0.58099 0.9047 0.57727 0.0
C1002 C 0.57888 0.95965 0.51526 0.0
C1003 C 0.59736 0.95295 0.56421 0.0
C1004 C 0.61534 0.96588 0.59328 0.0
C1005 C 0.56119 0.92674 0.51138 0.0
C1006 C 0.56282 0.90677 0.53355 0.0
C1007 C 0.58006 0.92006 0.5601 0.0
C1008 C 0.54955 0.87244 0.52834 0.0
C1009 C 0.54143 0.91362 0.48329 0.0
C1010 C 0.52714 0.84997 0.54816 0.0
C1011 C 0.51734 0.81784 0.54477 0.0
C1012 C 0.53005 0.8078 0.52173 0.0
C1013 C 0.55221 0.83035 0.50179 0.0
C1014 C 0.56174 0.8623 0.50498 0.0
H1015 H 0.53491 0.93055 0.47355 0.0
H1016 H 0.55521 0.90914 0.46607 0.0
H1017 H 0.51951 0.89096 0.48808 0.0
H1018 H 0.51776 0.85738 0.56658 0.0
H1019 H 0.50057 0.80094 0.56068 0.0
H1020 H 0.64382 0.77214 0.45926 0.0
H1021 H 0.69819 0.78336 0.45185 0.0
H1022 H 0.69613 0.74438 0.53987 0.0
H1023 H 0.64328 0.7352 0.54813 0.0
H1024 H 0.75406 0.78836 0.5271 0.0
H1025 H 0.70404 0.70858 0.4273 0.0
H1026 H 0.70548 0.74595 0.42571 0.0
H1027 H 0.67927 0.71611 0.45187 0.0
C1028 C 0.65538 0.76674 0.47726 0.0
C1029 C 0.63902 0.75201 0.50394 0.0
C1030 C 0.68635 0.77302 0.47295 0.0
C1031 C 0.70082 0.76361 0.49481 0.0
C1032 C 0.68548 0.75168 0.52252 0.0
H1033 H 0.76256 0.64072 0.50285 0.0
H1034 H 0.74095 0.67553 0.49689 0.0
C1035 C 0.65503 0.74621 0.52715 0.0
C1036 C 0.72915 0.76104 0.48805 0.0
H1037 H 0.74918 0.71347 0.44902 0.0
C1038 C 0.75354 0.77261 0.50958 0.0
C1039 C 0.72859 0.74076 0.46488 0.0
C1040 C 0.70295 0.72696 0.44117 0.0
C1041 C 0.77471 0.76113 0.51104 0.0
C1042 C 0.77206 0.73854 0.4896 0.0
C1043 C 0.75061 0.73041 0.46568 0.0
C1044 C 0.78642 0.71849 0.49456 0.0
C1045 C 0.79755 0.77089 0.53713 0.0
C1046 C 0.81921 0.73109 0.49557 0.0
C1047 C 0.83167 0.71113 0.50016 0.0
C1048 C 0.81152 0.67834 0.50361 0.0
C1049 C 0.77877 0.66589 0.50198 0.0
C1050 C 0.76637 0.68579 0.49786 0.0
H1051 H 0.79377 0.78562 0.55385 0.0
H1052 H 0.79525 0.74974 0.54885 0.0
H1053 H 0.82207 0.7848 0.52849 0.0
H1054 H 0.8351 0.75615 0.49242 0.0
H1055 H 0.85708 0.7213 0.50074 0.0
H1056 H 0.45198 0.197 0.41211 0.0
H1057 H 0.45543 0.18587 0.35876 0.0
H1058 H 0.49501 0.28468 0.33782 0.0
H1059 H 0.49128 0.29584 0.39126 0.0
H1060 H 0.42577 0.19538 0.31015 0.0
H1061 H 0.55552 0.26408 0.29316 0.0
H1062 H 0.53778 0.2548 0.33022 0.0
H1063 H 0.53849 0.28622 0.3085 0.0
C1064 C 0.4616 0.21644 0.39619 0.0
C1065 C 0.47138 0.24735 0.40616 0.0
C1066 C 0.46361 0.21003 0.36559 0.0
C1067 C 0.47579 0.23438 0.34395 0.0
C1068 C 0.48613 0.26544 0.35392 0.0
H1069 H 0.49514 0.22878 0.14523 0.0
H1070 H 0.49702 0.24603 0.19774 0.0
C1071 C 0.48402 0.27185 0.38461 0.0
C1072 C 0.47604 0.22677 0.31099 0.0
H1073 H 0.52422 0.24077 0.24967 0.0
C1074 C 0.44737 0.20532 0.29702 0.0
C1075 C 0.50406 0.23984 0.29344 0.0
C1076 C 0.53579 0.26232 0.30706 0.0
C1077 C 0.44586 0.19671 0.26637 0.0
C1078 C 0.47396 0.20913 0.24895 0.0
C1079 C 0.50262 0.23104 0.26276 0.0
C1080 C 0.47403 0.19892 0.2168 0.0
C1081 C 0.41388 0.1748 0.25284 0.0
C1082 C 0.46129 0.16677 0.20966 0.0
C1083 C 0.46004 0.15686 0.17968 0.0
C1084 C 0.47192 0.17879 0.15572 0.0
C1085 C 0.4857 0.21113 0.16292 0.0
C1086 C 0.48678 0.22105 0.19306 0.0
H1087 H 0.39474 0.17577 0.26546 0.0
H1088 H 0.41274 0.18071 0.22884 0.0
H1089 H 0.40924 0.15016 0.25403 0.0
H1090 H 0.45214 0.14912 0.22736 0.0
H1091 H 0.44954 0.1318 0.17529 0.0
H1092 H 0.28078 0.44397 0.17592 0.0
H1093 H 0.27182 0.45918 0.22584 0.0
H1094 H 0.30826 0.55494 0.19504 0.0
H1095 H 0.31726 0.53997 0.14481 0.0
H1096 H 0.31605 0.50883 0.26633 0.0
H1097 H 0.21672 0.52496 0.22684 0.0
H1098 H 0.23101 0.50342 0.2051 0.0
H1099 H 0.25357 0.54573 0.20675 0.0
C1100 C 0.28714 0.46833 0.17977 0.0
C1101 C 0.29955 0.49073 0.15638 0.0
C1102 C 0.28206 0.47697 0.20831 0.0
C1103 C 0.28912 0.50806 0.2139 0.0
C1104 C 0.30239 0.53075 0.19095 0.0
H1105 H 0.26653 0.55852 0.39963 0.0
H1106 H 0.28802 0.5646 0.34846 0.0
C1107 C 0.30759 0.52216 0.16236 0.0
C1108 C 0.28129 0.51606 0.24355 0.0
H1109 H 0.22741 0.52998 0.27886 0.0
C1110 C 0.29705 0.514 0.26914 0.0
C1111 C 0.25631 0.52252 0.24691 0.0
C1112 C 0.23819 0.52415 0.22005 0.0
C1113 C 0.28773 0.51718 0.29825 0.0
C1114 C 0.2622 0.52281 0.30165 0.0
C1115 C 0.24716 0.52595 0.27601 0.0
C1116 C 0.24833 0.52149 0.33155 0.0
C1117 C 0.30406 0.51278 0.32519 0.0
C1118 C 0.21856 0.4958 0.33849 0.0
C1119 C 0.20627 0.49225 0.36751 0.0
C1120 C 0.2235 0.51446 0.39009 0.0
C1121 C 0.25273 0.541 0.38271 0.0
C1122 C 0.2651 0.54446 0.35359 0.0
H1123 H 0.32061 0.50445 0.31861 0.0
H1124 H 0.31769 0.53563 0.33723 0.0
H1125 H 0.28641 0.4955 0.34122 0.0
H1126 H 0.20529 0.47788 0.32168 0.0
H1127 H 0.1836 0.47165 0.37242 0.0
H1128 H 0.83588 0.29338 0.17772 0.0
H1129 H 0.82798 0.28043 0.23191 0.0
H1130 H 0.72948 0.25154 0.22301 0.0
H1131 H 0.73714 0.26461 0.16928 0.0
H1132 H 0.80134 0.30424 0.27924 0.0
H1133 H 0.72995 0.17432 0.26372 0.0
H1134 H 0.75524 0.20048 0.23444 0.0
H1135 H 0.7177 0.19739 0.24193 0.0
C1136 C 0.81254 0.28434 0.18728 0.0
C1137 C 0.7872 0.28012 0.16881 0.0
C1138 C 0.80804 0.27693 0.21837 0.0
C1139 C 0.77801 0.26461 0.23176 0.0
C1140 C 0.75281 0.2606 0.2134 0.0
H1141 H 0.69395 0.1895 0.40943 0.0
H1142 H 0.7045 0.20566 0.35638 0.0
C1143 C 0.75733 0.26829 0.18251 0.0
C1144 C 0.7728 0.25606 0.26481 0.0
H1145 H 0.73334 0.19359 0.31331 0.0
C1146 C 0.78665 0.28002 0.28669 0.0
C1147 C 0.75335 0.22451 0.2748 0.0
C1148 C 0.73833 0.19756 0.2526 0.0
C1149 C 0.78103 0.27348 0.31795 0.0
C1150 C 0.76175 0.24181 0.32806 0.0
C1151 C 0.74808 0.21787 0.30603 0.0
C1152 C 0.75535 0.23294 0.36113 0.0
C1153 C 0.79494 0.30091 0.33968 0.0
C1154 C 0.78015 0.24253 0.38213 0.0
C1155 C 0.77404 0.23379 0.41276 0.0
C1156 C 0.74296 0.21461 0.42344 0.0
C1157 C 0.71815 0.20478 0.40241 0.0
C1158 C 0.72424 0.21378 0.3718 0.0
H1159 H 0.79976 0.32322 0.32842 0.0
H1160 H 0.77896 0.29663 0.35912 0.0
H1161 H 0.81774 0.30436 0.34835 0.0
H1162 H 0.80444 0.25649 0.37481 0.0
H1163 H 0.79382 0.24201 0.42814 0.0
H1164 H 0.55598 0.8002 0.15708 0.0
H1165 H 0.54383 0.77611 0.20705 0.0
H1166 H 0.46037 0.78481 0.21116 0.0
H1167 H 0.47231 0.80907 0.16079 0.0
H1168 H 0.50144 0.8069 0.2638 0.0
H1169 H 0.47071 0.68589 0.22896 0.0
H1170 H 0.50705 0.7163 0.21295 0.0
H1171 H 0.47045 0.71436 0.20305 0.0
C1172 C 0.53499 0.79702 0.16851 0.0
C1173 C 0.51504 0.80649 0.15495 0.0
C1174 C 0.52799 0.78303 0.19698 0.0
C1175 C 0.50096 0.77825 0.21245 0.0
C1176 C 0.48118 0.78806 0.19931 0.0
H1177 H 0.45699 0.67341 0.38374 0.0
H1178 H 0.44962 0.69072 0.33391 0.0
C1179 C 0.48804 0.8019 0.17062 0.0
C1180 C 0.49443 0.76409 0.24288 0.0
H1181 H 0.48457 0.69914 0.28106 0.0
C1182 C 0.49716 0.78314 0.26764 0.0
C1183 C 0.48841 0.73297 0.24769 0.0
C1184 C 0.48366 0.71104 0.22174 0.0
C1185 C 0.49603 0.77251 0.29726 0.0
C1186 C 0.49247 0.74226 0.30203 0.0
C1187 C 0.48765 0.72246 0.27729 0.0
C1188 C 0.49639 0.73186 0.33222 0.0
C1189 C 0.49944 0.79403 0.32317 0.0
C1190 C 0.52533 0.7489 0.34729 0.0
C1191 C 0.52965 0.7391 0.37554 0.0
C1192 C 0.50514 0.71188 0.3892 0.0
C1193 C 0.4763 0.69448 0.37381 0.0
C1194 C 0.47201 0.70435 0.34544 0.0
H1195 H 0.49206 0.81133 0.31654 0.0
H1196 H 0.48523 0.78034 0.34295 0.0
H1197 H 0.52461 0.80753 0.33009 0.0
H1198 H 0.54471 0.76974 0.3371 0.0
H1199 H 0.55221 0.75298 0.3867 0.0
H1200 H 0.74076 0.47251 0.41418 0.0
H1201 H 0.72545 0.46665 0.36067 0.0
H1202 H 0.79875 0.56262 0.34398 0.0
H1203 H 0.81489 0.56799 0.39689 0.0
H1204 H 0.70313 0.49647 0.32622 0.0
H1205 H 0.81646 0.51962 0.27639 0.0
H1206 H 0.80843 0.51288 0.31626 0.0
H1207 H 0.821 0.55125 0.30024 0.0
C1208 C 0.75391 0.49219 0.39899 0.0
C1209 C 0.77909 0.52073 0.41002 0.0
C1210 C 0.74499 0.48891 0.36833 0.0
C1211 C 0.76115 0.51399 0.34774 0.0
C1212 C 0.78622 0.54253 0.35887 0.0
H1213 H 0.73806 0.54522 0.15565 0.0
H1214 H 0.75393 0.55061 0.20893 0.0
C1215 C 0.79519 0.54575 0.38941 0.0
C1216 C 0.75126 0.51069 0.31503 0.0
H1217 H 0.77875 0.5196 0.24229 0.0
C1218 C 0.7197 0.50133 0.30795 0.0
C1219 C 0.77266 0.51706 0.29078 0.0
C1220 C 0.80643 0.52545 0.29624 0.0
C1221 C 0.70923 0.49882 0.27777 0.0
C1222 C 0.73066 0.50536 0.25357 0.0
C1223 C 0.7622 0.51471 0.26061 0.0
C1224 C 0.72072 0.50214 0.22092 0.0
C1225 C 0.67534 0.48992 0.27213 0.0
C1226 C 0.69698 0.47305 0.20938 0.0
C1227 C 0.68787 0.4699 0.17888 0.0
C1228 C 0.70225 0.49573 0.1588 0.0
C1229 C 0.72621 0.52482 0.17031 0.0
C1230 C 0.73541 0.52792 0.20087 0.0
H1231 H 0.66459 0.4944 0.29226 0.0
H1232 H 0.67344 0.50324 0.2527 0.0
H1233 H 0.66139 0.46432 0.26686 0.0
H1234 H 0.68566 0.45252 0.22393 0.0
H1235 H 0.66953 0.44704 0.17102 0.0
H1236 H 0.24154 0.7115 0.14211 0.0
H1237 H 0.2695 0.72912 0.19028 0.0
H1238 H 0.18814 0.72764 0.22987 0.0
H1239 H 0.16039 0.71087 0.18168 0.0
H1240 H 0.24215 0.78337 0.23867 0.0
H1241 H 0.26021 0.68325 0.26949 0.0
H1242 H 0.27438 0.69966 0.23268 0.0
H1243 H 0.23278 0.68013 0.24057 0.0
C1244 C 0.22942 0.71438 0.16124 0.0
C1245 C 0.19882 0.70989 0.15816 0.0
C1246 C 0.24539 0.72435 0.18876 0.0
C1247 C 0.23078 0.72944 0.21366 0.0
C1248 C 0.19982 0.72385 0.21087 0.0
H1249 H 0.26768 0.75591 0.40088 0.0
H1250 H 0.25365 0.73641 0.34944 0.0
C1251 C 0.18399 0.71423 0.18336 0.0
C1252 C 0.24829 0.7428 0.24206 0.0
H1253 H 0.28427 0.72837 0.30099 0.0
C1254 C 0.2515 0.77144 0.25227 0.0
C1255 C 0.26039 0.72709 0.25964 0.0
C1256 C 0.2566 0.6957 0.25025 0.0
C1257 C 0.26565 0.7844 0.28007 0.0
C1258 C 0.27778 0.76873 0.29771 0.0
C1259 C 0.2753 0.74048 0.28717 0.0
C1260 C 0.28977 0.77945 0.32859 0.0
C1261 C 0.26607 0.81392 0.29091 0.0
C1262 C 0.31552 0.80976 0.33392 0.0
C1263 C 0.32344 0.8212 0.36342 0.0
C1264 C 0.30587 0.80231 0.38795 0.0
C1265 C 0.28151 0.7712 0.38251 0.0
C1266 C 0.27352 0.75992 0.3531 0.0
H1267 H 0.24991 0.81907 0.27758 0.0
H1268 H 0.25914 0.8117 0.31505 0.0
H1269 H 0.29032 0.83439 0.28864 0.0
H1270 H 0.32875 0.82493 0.31524 0.0
H1271 H 0.34255 0.84514 0.36691 0.0
H1272 H 0.49158 0.72933 0.64166 0.0
H1273 H 0.47749 0.74612 0.6881 0.0
H1274 H 0.53045 0.71348 0.73974 0.0
H1275 H 0.54359 0.69545 0.6935 0.0
H1276 H 0.47653 0.70755 0.77056 0.0
H1277 H 0.5533 0.82724 0.72091 0.0
H1278 H 0.51843 0.80032 0.70031 0.0
H1279 H 0.55025 0.79219 0.70423 0.0
C1280 C 0.49888 0.72419 0.66293 0.0
C1281 C 0.51867 0.71097 0.66395 0.0
C1282 C 0.49111 0.7342 0.68947 0.0
C1283 C 0.50343 0.73154 0.7172 0.0
C1284 C 0.52073 0.71576 0.71851 0.0
H1285 H 0.59756 0.82474 0.86759 0.0
H1286 H 0.57314 0.79768 0.82047 0.0
C1287 C 0.52836 0.70561 0.69209 0.0
C1288 C 0.50334 0.74957 0.74391 0.0
H1289 H 0.54263 0.82444 0.77242 0.0
C1290 C 0.49012 0.73316 0.77088 0.0
C1291 C 0.52139 0.78301 0.74416 0.0
C1292 C 0.53686 0.80188 0.71598 0.0
C1293 C 0.49629 0.74926 0.79847 0.0
C1294 C 0.51609 0.78238 0.79885 0.0
C1295 C 0.52733 0.79899 0.77174 0.0
C1296 C 0.53018 0.79934 0.82714 0.0
C1297 C 0.48379 0.73077 0.82735 0.0
C1298 C 0.51416 0.80965 0.84599 0.0
C1299 C 0.52819 0.8254 0.87291 0.0
C1300 C 0.55823 0.83068 0.88128 0.0
C1301 C 0.57439 0.82097 0.8618 0.0
C1302 C 0.56045 0.80539 0.83499 0.0
H1303 H 0.46698 0.70534 0.82309 0.0
H1304 H 0.5038 0.73286 0.84102 0.0
H1305 H 0.47172 0.74074 0.84088 0.0
H1306 H 0.49093 0.8055 0.83991 0.0
H1307 H 0.51561 0.83356 0.88694 0.0
H1308 H 0.77079 0.56263 0.60475 0.0
H1309 H 0.75464 0.55852 0.65756 0.0
H1310 H 0.78286 0.48905 0.67329 0.0
H1311 H 0.7975 0.4919 0.62001 0.0
H1312 H 0.73284 0.47294 0.7051 0.0
H1313 H 0.81126 0.60042 0.72624 0.0
H1314 H 0.78276 0.59382 0.69759 0.0
H1315 H 0.81202 0.58226 0.69115 0.0
C1316 C 0.77341 0.54631 0.61935 0.0
C1317 C 0.78572 0.52777 0.60788 0.0
C1318 C 0.76443 0.5442 0.64985 0.0
C1319 C 0.76836 0.52421 0.67019 0.0
C1320 C 0.77969 0.50491 0.6585 0.0
H1321 H 0.7811 0.5577 0.86454 0.0
H1322 H 0.78989 0.5525 0.81119 0.0
C1323 C 0.7881 0.50655 0.62783 0.0
C1324 C 0.7611 0.52368 0.7035 0.0
H1325 H 0.77469 0.57139 0.765 0.0
C1326 C 0.74216 0.49453 0.71817 0.0
C1327 C 0.77351 0.55162 0.7212 0.0
C1328 C 0.79628 0.58373 0.70833 0.0
C1329 C 0.73524 0.49258 0.74943 0.0
C1330 C 0.74661 0.52063 0.76681 0.0
C1331 C 0.76556 0.54971 0.75209 0.0
C1332 C 0.74069 0.5208 0.80039 0.0
C1333 C 0.71669 0.46027 0.76358 0.0
C1334 C 0.7101 0.50423 0.81311 0.0
C1335 C 0.70513 0.50656 0.84423 0.0
C1336 C 0.73051 0.52614 0.8633 0.0
C1337 C 0.76098 0.54232 0.85063 0.0
C1338 C 0.76601 0.53949 0.81988 0.0
H1339 H 0.7185 0.44209 0.75007 0.0
H1340 H 0.72499 0.46004 0.78686 0.0
H1341 H 0.69138 0.45344 0.76456 0.0
H1342 H 0.68981 0.49033 0.79887 0.0
H1343 H 0.68127 0.49433 0.85301 0.0
H1344 H 0.30462 0.81607 0.67216 0.0
H1345 H 0.29241 0.78841 0.72096 0.0
H1346 H 0.19582 0.76732 0.71329 0.0
H1347 H 0.20774 0.79451 0.66477 0.0
H1348 H 0.26724 0.8057 0.77155 0.0
H1349 H 0.1883 0.6816 0.73722 0.0
H1350 H 0.21617 0.71137 0.71166 0.0
H1351 H 0.17868 0.7086 0.71909 0.0
C1352 C 0.28071 0.80502 0.68072 0.0
C1353 C 0.25703 0.80716 0.66473 0.0
C1354 C 0.27381 0.78932 0.7085 0.0
C1355 C 0.24307 0.77526 0.72022 0.0
C1356 C 0.21949 0.77737 0.70418 0.0
H1357 H 0.12357 0.71554 0.86621 0.0
H1358 H 0.15106 0.7244 0.81797 0.0
C1359 C 0.22642 0.79325 0.67672 0.0
C1360 C 0.23576 0.76113 0.7506 0.0
H1361 H 0.18094 0.69545 0.7879 0.0
C1362 C 0.24905 0.78135 0.77537 0.0
C1363 C 0.21208 0.72938 0.75523 0.0
C1364 C 0.19819 0.70638 0.72938 0.0
C1365 C 0.23714 0.77146 0.80455 0.0
C1366 C 0.21179 0.7403 0.8089 0.0
C1367 C 0.20025 0.71935 0.78441 0.0
C1368 C 0.19431 0.73057 0.83769 0.0
C1369 C 0.25006 0.7952 0.82998 0.0
C1370 C 0.20931 0.73035 0.86455 0.0
C1371 C 0.19382 0.72575 0.89213 0.0
C1372 C 0.16282 0.72055 0.89315 0.0
C1373 C 0.14739 0.71935 0.86605 0.0
C1374 C 0.16298 0.72422 0.83853 0.0
H1375 H 0.26586 0.81963 0.82169 0.0
H1376 H 0.23054 0.79491 0.84304 0.0
H1377 H 0.26386 0.78895 0.84556 0.0
H1378 H 0.23343 0.73501 0.86429 0.0
H1379 H 0.20685 0.72799 0.91257 0.0
H1380 H 0.41763 0.14079 0.84064 0.0
H1381 H 0.42279 0.15667 0.78789 0.0
H1382 H 0.50785 0.24364 0.8088 0.0
H1383 H 0.50269 0.22801 0.86204 0.0
H1384 H 0.42174 0.20811 0.76434 0.0
H1385 H 0.53481 0.21438 0.73358 0.0
H1386 H 0.51322 0.19479 0.76738 0.0
H1387 H 0.53639 0.23714 0.76607 0.0
C1388 C 0.43774 0.16323 0.8342 0.0
C1389 C 0.45993 0.18278 0.85608 0.0
C1390 C 0.44063 0.17231 0.80377 0.0
C1391 C 0.46588 0.20128 0.79387 0.0
C1392 C 0.48846 0.22082 0.81545 0.0
H1393 H 0.50623 0.2899 0.6127 0.0
H1394 H 0.50886 0.27762 0.66598 0.0
C1395 C 0.48555 0.21171 0.84613 0.0
C1396 C 0.46714 0.21125 0.76139 0.0
H1397 H 0.51092 0.23018 0.69624 0.0
C1398 C 0.44129 0.2129 0.74952 0.0
C1399 C 0.49266 0.21786 0.74178 0.0
C1400 C 0.52079 0.21576 0.75264 0.0
C1401 C 0.44021 0.22087 0.71905 0.0
C1402 C 0.46531 0.22664 0.69915 0.0
C1403 C 0.49149 0.22561 0.71114 0.0
C1404 C 0.46453 0.23344 0.66597 0.0
C1405 C 0.41229 0.22367 0.70871 0.0
C1406 C 0.43924 0.21245 0.64747 0.0
C1407 C 0.43761 0.21948 0.61693 0.0
C1408 C 0.46144 0.24759 0.60366 0.0
C1409 C 0.48737 0.26804 0.6219 0.0
C1410 C 0.4889 0.26103 0.65254 0.0
H1411 H 0.40067 0.22843 0.72793 0.0
H1412 H 0.41943 0.24284 0.6918 0.0
H1413 H 0.39457 0.20107 0.69821 0.0
H1414 H 0.4205 0.19055 0.65671 0.0
H1415 H 0.41738 0.20291 0.60378 0.0
H1416 H 0.27002 0.48954 0.91071 0.0
H1417 H 0.26225 0.51123 0.86414 0.0
H1418 H 0.26059 0.43478 0.81393 0.0
H1419 H 0.27073 0.4142 0.86023 0.0
H1420 H 0.29144 0.49044 0.78358 0.0
H1421 H 0.17582 0.47052 0.82653 0.0
H1422 H 0.20991 0.49723 0.84812 0.0
H1423 H 0.19838 0.4561 0.84619 0.0
C1424 C 0.26944 0.47806 0.8897 0.0
C1425 C 0.27174 0.45048 0.88911 0.0
C1426 C 0.26428 0.49017 0.86311 0.0
C1427 C 0.26035 0.47435 0.83568 0.0
C1428 C 0.26359 0.44739 0.83489 0.0
H1429 H 0.15104 0.42593 0.68413 0.0
H1430 H 0.17358 0.43946 0.73461 0.0
C1431 C 0.26922 0.43556 0.86136 0.0
C1432 C 0.25066 0.48413 0.80797 0.0
H1433 H 0.18783 0.48548 0.77601 0.0
C1434 C 0.26905 0.48993 0.78192 0.0
C1435 C 0.22141 0.48344 0.80607 0.0
C1436 C 0.20006 0.47627 0.8331 0.0
C1437 C 0.25795 0.49266 0.75354 0.0
C1438 C 0.22805 0.49055 0.75145 0.0
C1439 C 0.21078 0.48722 0.77782 0.0
C1440 C 0.21186 0.48572 0.7221 0.0
C1441 C 0.27721 0.49519 0.72593 0.0
C1442 C 0.22513 0.50779 0.69858 0.0
C1443 C 0.21252 0.49984 0.66946 0.0
C1444 C 0.18607 0.46999 0.66373 0.0
C1445 C 0.17148 0.44905 0.68787 0.0
C1446 C 0.18425 0.45683 0.71676 0.0
H1447 H 0.29722 0.49131 0.73131 0.0
H1448 H 0.26222 0.47768 0.7086 0.0
H1449 H 0.2871 0.51915 0.71602 0.0
H1450 H 0.24615 0.53043 0.70238 0.0
H1451 H 0.22483 0.51626 0.65134 0.0
H1452 H 0.80035 0.22112 0.87146 0.0
H1453 H 0.78513 0.21222 0.8184 0.0
H1454 H 0.78283 0.29919 0.81611 0.0
H1455 H 0.79859 0.30854 0.86955 0.0
H1456 H 0.73231 0.20536 0.78795 0.0
H1457 H 0.84107 0.30965 0.74454 0.0
H1458 H 0.83806 0.29521 0.78262 0.0
H1459 H 0.81958 0.31779 0.77266 0.0
C1460 C 0.79653 0.23845 0.85987 0.0
C1461 C 0.80067 0.26555 0.87526 0.0
C1462 C 0.7877 0.23322 0.82932 0.0
C1463 C 0.78309 0.2551 0.81274 0.0
C1464 C 0.7866 0.28202 0.82805 0.0
H1465 H 0.69725 0.2098 0.62973 0.0
H1466 H 0.70879 0.22553 0.68286 0.0
C1467 C 0.79523 0.28716 0.85891 0.0
C1468 C 0.77491 0.2494 0.77957 0.0
H1469 H 0.80267 0.27791 0.70852 0.0
C1470 C 0.7476 0.22143 0.77065 0.0
C1471 C 0.79494 0.26995 0.75665 0.0
C1472 C 0.82521 0.29973 0.7644 0.0
C1473 C 0.73989 0.2135 0.73989 0.0
C1474 C 0.75983 0.23411 0.71695 0.0
C1475 C 0.78714 0.26211 0.72585 0.0
C1476 C 0.75342 0.22629 0.68379 0.0
C1477 C 0.71088 0.18249 0.7322 0.0
C1478 C 0.77495 0.22232 0.66585 0.0
C1479 C 0.76841 0.21331 0.63531 0.0
C1480 C 0.74024 0.20832 0.62153 0.0
C1481 C 0.71918 0.21334 0.6393 0.0
C1482 C 0.72566 0.22215 0.66992 0.0
H1483 H 0.70213 0.16624 0.75189 0.0
H1484 H 0.69178 0.18699 0.72486 0.0
H1485 H 0.71581 0.17054 0.71341 0.0
H1486 H 0.79661 0.22543 0.67571 0.0
H1487 H 0.78534 0.20981 0.62259 0.0
loop_
_geom_bond_atom_site_label_1
_geom_bond_atom_site_label_2
_geom_bond_distance
_geom_bond_site_symmetry_2
_ccdc_geom_bond_type
Co0 O3 1.970 . S
Co0 N17 1.989 . S
Co0 O25 1.967 . S
Co0 O32 1.920 . S
Co1 O4 1.966 . S
Co1 N10 2.022 . S
Co1 N18 1.993 . S
Co1 O26 1.941 . S
C2 O3 1.258 . S
C2 O4 1.263 1_554 S
O3 Co0 1.970 . S
O3 C2 1.258 . S
O4 Co1 1.966 . S
O4 C2 1.263 1_556 S
C5 O6 1.235 . S
C5 O32 1.289 . S
O6 C5 1.235 . S
C7 C9 1.400 . S
C7 N10 1.351 . S
C7 C12 1.501 . S
C8 C9 1.387 . S
C8 N11 1.341 . S
C9 C7 1.400 . S
C9 C8 1.387 . S
N10 Co1 2.022 . S
N10 C7 1.351 . S
N10 N11 1.365 . S
N11 C8 1.341 . S
N11 N10 1.365 . S
N11 H31 0.862 . S
C12 C7 1.501 . S
C12 H13 0.961 . S
C12 H14 0.961 . S
C12 H15 0.960 . S
H13 C12 0.961 . S
H14 C12 0.961 . S
H15 C12 0.960 . S
C16 N17 1.342 . S
C16 C20 1.401 . S
C16 C21 1.499 . S
N17 Co0 1.989 . S
N17 C16 1.342 . S
N17 N18 1.388 1_554 S
N18 Co1 1.993 . S
N18 N17 1.388 1_556 S
N18 C19 1.346 . S
C19 N18 1.346 . S
C19 C20 1.396 1_556 S
C19 C29 1.510 . S
C20 C16 1.401 . S
C20 C19 1.396 1_554 S
C21 C16 1.499 . S
C21 H22 0.959 . S
C21 H23 0.960 . S
C21 H24 0.961 . S
H22 C21 0.959 . S
H23 C21 0.960 . S
H24 C21 0.961 . S
O25 Co0 1.967 . S
O25 C33 1.258 . S
O26 Co1 1.941 . S
O26 C33 1.266 1_556 S
H27 C29 0.959 . S
H28 C29 0.961 . S
C29 C19 1.510 . S
C29 H27 0.959 . S
C29 H28 0.961 . S
C29 H30 0.960 . S
H30 C29 0.960 . S
H31 N11 0.862 . S
O32 Co0 1.920 . S
O32 C5 1.289 . S
C33 O25 1.258 . S
C33 O26 1.266 1_554 S
Co34 O37 1.970 . S
Co34 N51 1.989 . S
Co34 O59 1.967 . S
Co34 O66 1.920 . S
Co35 O38 1.968 . S
Co35 N44 2.022 . S
Co35 N52 1.993 1_556 S
Co35 O60 1.941 . S
C36 O37 1.258 . S
C36 O38 1.256 1_554 S
O37 Co34 1.970 . S
O37 C36 1.258 . S
O38 Co35 1.968 . S
O38 C36 1.256 1_556 S
C39 O40 1.235 . S
C39 O66 1.289 . S
O40 C39 1.235 . S
C41 C43 1.400 . S
C41 N44 1.351 . S
C41 C46 1.501 . S
C42 C43 1.387 . S
C42 N45 1.341 . S
C43 C41 1.400 . S
C43 C42 1.387 . S
N44 Co35 2.022 . S
N44 C41 1.351 . S
N44 N45 1.365 . S
N45 C42 1.341 . S
N45 N44 1.365 . S
N45 H65 0.862 . S
C46 C41 1.501 . S
C46 H47 0.961 . S
C46 H48 0.961 . S
C46 H49 0.960 . S
H47 C46 0.961 . S
H48 C46 0.961 . S
H49 C46 0.960 . S
C50 N51 1.342 . S
C50 C54 1.401 . S
C50 C55 1.499 . S
N51 Co34 1.989 . S
N51 C50 1.342 . S
N51 N52 1.388 . S
N52 Co35 1.993 1_554 S
N52 N51 1.388 . S
N52 C53 1.339 1_554 S
C53 N52 1.339 1_556 S
C53 C54 1.378 1_556 S
C53 C63 1.532 . S
C54 C50 1.401 . S
C54 C53 1.378 1_554 S
C55 C50 1.499 . S
C55 H56 0.959 . S
C55 H57 0.960 . S
C55 H58 0.961 . S
H56 C55 0.959 . S
H57 C55 0.960 . S
H58 C55 0.961 . S
O59 Co34 1.967 . S
O59 C67 1.258 . S
O60 Co35 1.941 . S
O60 C67 1.266 1_556 S
H61 C63 0.959 . S
H62 C63 0.961 . S
C63 C53 1.532 . S
C63 H61 0.959 . S
C63 H62 0.961 . S
C63 H64 0.960 . S
H64 C63 0.960 . S
H65 N45 0.862 . S
O66 Co34 1.920 . S
O66 C39 1.289 . S
C67 O59 1.258 . S
C67 O60 1.266 1_554 S
Co68 O71 1.970 . S
Co68 N85 1.989 . S
Co68 O93 1.967 . S
Co68 O100 1.920 . S
Co69 O72 1.966 . S
Co69 N78 2.022 . S
Co69 N86 1.993 . S
Co69 O94 1.941 . S
C70 O71 1.258 . S
C70 O72 1.263 1_554 S
O71 Co68 1.970 . S
O71 C70 1.258 . S
O72 Co69 1.966 . S
O72 C70 1.263 1_556 S
C73 O74 1.235 . S
C73 O100 1.289 . S
O74 C73 1.235 . S
C75 C77 1.400 . S
C75 N78 1.351 . S
C75 C80 1.501 . S
C76 C77 1.387 . S
C76 N79 1.341 . S
C77 C75 1.400 . S
C77 C76 1.387 . S
N78 Co69 2.022 . S
N78 C75 1.351 . S
N78 N79 1.365 . S
N79 C76 1.341 . S
N79 N78 1.365 . S
N79 H99 0.862 . S
C80 C75 1.501 . S
C80 H81 0.961 . S
C80 H82 0.961 . S
C80 H83 0.960 . S
H81 C80 0.961 . S
H82 C80 0.961 . S
H83 C80 0.960 . S
C84 N85 1.342 . S
C84 C88 1.401 . S
C84 C89 1.499 . S
N85 Co68 1.989 . S
N85 C84 1.342 . S
N85 N86 1.388 1_554 S
N86 Co69 1.993 . S
N86 N85 1.388 1_556 S
N86 C87 1.346 . S
C87 N86 1.346 . S
C87 C88 1.396 1_556 S
C87 C97 1.510 . S
C88 C84 1.401 . S
C88 C87 1.396 1_554 S
C89 C84 1.499 . S
C89 H90 0.959 . S
C89 H91 0.960 . S
C89 H92 0.961 . S
H90 C89 0.959 . S
H91 C89 0.960 . S
H92 C89 0.961 . S
O93 Co68 1.967 . S
O93 C101 1.258 . S
O94 Co69 1.941 . S
O94 C101 1.266 1_556 S
H95 C97 0.959 . S
H96 C97 0.961 . S
C97 C87 1.510 . S
C97 H95 0.959 . S
C97 H96 0.961 . S
C97 H98 0.960 . S
H98 C97 0.960 . S
H99 N79 0.862 . S
O100 Co68 1.920 . S
O100 C73 1.289 . S
C101 O93 1.258 . S
C101 O94 1.266 1_554 S
Co102 O105 1.970 . S
Co102 N119 1.989 . S
Co102 O127 1.967 . S
Co102 O134 1.920 . S
Co103 O106 1.968 . S
Co103 N112 2.022 . S
Co103 N120 1.993 1_556 S
Co103 O128 1.941 . S
C104 O105 1.258 . S
C104 O106 1.256 1_554 S
O105 Co102 1.970 . S
O105 C104 1.258 . S
O106 Co103 1.968 . S
O106 C104 1.256 1_556 S
C107 O108 1.235 . S
C107 O134 1.289 . S
O108 C107 1.235 . S
C109 C111 1.400 . S
C109 N112 1.351 . S
C109 C114 1.501 . S
C110 C111 1.387 . S
C110 N113 1.341 . S
C111 C109 1.400 . S
C111 C110 1.387 . S
N112 Co103 2.022 . S
N112 C109 1.351 . S
N112 N113 1.365 . S
N113 C110 1.341 . S
N113 N112 1.365 . S
N113 H133 0.862 . S
C114 C109 1.501 . S
C114 H115 0.961 . S
C114 H116 0.961 . S
C114 H117 0.960 . S
H115 C114 0.961 . S
H116 C114 0.961 . S
H117 C114 0.960 . S
C118 N119 1.342 . S
C118 C122 1.401 . S
C118 C123 1.499 . S
N119 Co102 1.989 . S
N119 C118 1.342 . S
N119 N120 1.388 . S
N120 Co103 1.993 1_554 S
N120 N119 1.388 . S
N120 C121 1.339 1_554 S
C121 N120 1.339 1_556 S
C121 C122 1.378 1_556 S
C121 C131 1.532 . S
C122 C118 1.401 . S
C122 C121 1.378 1_554 S
C123 C118 1.499 . S
C123 H124 0.959 . S
C123 H125 0.960 . S
C123 H126 0.961 . S
H124 C123 0.959 . S
H125 C123 0.960 . S
H126 C123 0.961 . S
O127 Co102 1.967 . S
O127 C135 1.258 . S
O128 Co103 1.941 . S
O128 C135 1.266 1_556 S
H129 C131 0.959 . S
H130 C131 0.961 . S
C131 C121 1.532 . S
C131 H129 0.959 . S
C131 H130 0.961 . S
C131 H132 0.960 . S
H132 C131 0.960 . S
H133 N113 0.862 . S
O134 Co102 1.920 . S
O134 C107 1.289 . S
C135 O127 1.258 . S
C135 O128 1.266 1_554 S
Co136 O139 1.970 . S
Co136 N153 1.989 . S
Co136 O161 1.967 . S
Co136 O168 1.920 . S
Co137 O140 1.966 . S
Co137 N146 2.022 . S
Co137 N154 1.993 . S
Co137 O162 1.941 . S
C138 O139 1.258 . S
C138 O140 1.263 1_554 S
O139 Co136 1.970 . S
O139 C138 1.258 . S
O140 Co137 1.966 . S
O140 C138 1.263 1_556 S
C141 O142 1.235 . S
C141 O168 1.289 . S
O142 C141 1.235 . S
C143 C145 1.400 . S
C143 N146 1.351 . S
C143 C148 1.501 . S
C144 C145 1.387 . S
C144 N147 1.341 . S
C145 C143 1.400 . S
C145 C144 1.387 . S
N146 Co137 2.022 . S
N146 C143 1.351 . S
N146 N147 1.365 . S
N147 C144 1.341 . S
N147 N146 1.365 . S
N147 H167 0.862 . S
C148 C143 1.501 . S
C148 H149 0.961 . S
C148 H150 0.961 . S
C148 H151 0.960 . S
H149 C148 0.961 . S
H150 C148 0.961 . S
H151 C148 0.960 . S
C152 N153 1.342 . S
C152 C156 1.401 . S
C152 C157 1.499 . S
N153 Co136 1.989 . S
N153 C152 1.342 . S
N153 N154 1.388 1_554 S
N154 Co137 1.993 . S
N154 N153 1.388 1_556 S
N154 C155 1.346 . S
C155 N154 1.346 . S
C155 C156 1.396 1_556 S
C155 C165 1.510 . S
C156 C152 1.401 . S
C156 C155 1.396 1_554 S
C157 C152 1.499 . S
C157 H158 0.959 . S
C157 H159 0.960 . S
C157 H160 0.961 . S
H158 C157 0.959 . S
H159 C157 0.960 . S
H160 C157 0.961 . S
O161 Co136 1.967 . S
O161 C169 1.258 . S
O162 Co137 1.941 . S
O162 C169 1.266 1_556 S
H163 C165 0.959 . S
H164 C165 0.961 . S
C165 C155 1.510 . S
C165 H163 0.959 . S
C165 H164 0.961 . S
C165 H166 0.960 . S
H166 C165 0.960 . S
H167 N147 0.862 . S
O168 Co136 1.920 . S
O168 C141 1.289 . S
C169 O161 1.258 . S
C169 O162 1.266 1_554 S
Co170 O173 1.970 . S
Co170 N187 1.989 . S
Co170 O195 1.967 . S
Co170 O202 1.920 . S
Co171 O174 1.968 . S
Co171 N180 2.022 . S
Co171 N188 1.993 1_556 S
Co171 O196 1.941 . S
C172 O173 1.258 . S
C172 O174 1.256 1_554 S
O173 Co170 1.970 . S
O173 C172 1.258 . S
O174 Co171 1.968 . S
O174 C172 1.256 1_556 S
C175 O176 1.235 . S
C175 O202 1.289 . S
O176 C175 1.235 . S
C177 C179 1.400 . S
C177 N180 1.351 . S
C177 C182 1.501 . S
C178 C179 1.387 . S
C178 N181 1.341 . S
C179 C177 1.400 . S
C179 C178 1.387 . S
N180 Co171 2.022 . S
N180 C177 1.351 . S
N180 N181 1.365 . S
N181 C178 1.341 . S
N181 N180 1.365 . S
N181 H201 0.862 . S
C182 C177 1.501 . S
C182 H183 0.961 . S
C182 H184 0.961 . S
C182 H185 0.960 . S
H183 C182 0.961 . S
H184 C182 0.961 . S
H185 C182 0.960 . S
C186 N187 1.342 . S
C186 C190 1.401 . S
C186 C191 1.499 . S
N187 Co170 1.989 . S
N187 C186 1.342 . S
N187 N188 1.388 . S
N188 Co171 1.993 1_554 S
N188 N187 1.388 . S
N188 C189 1.339 1_554 S
C189 N188 1.339 1_556 S
C189 C190 1.378 1_556 S
C189 C199 1.532 . S
C190 C186 1.401 . S
C190 C189 1.378 1_554 S
C191 C186 1.499 . S
C191 H192 0.959 . S
C191 H193 0.960 . S
C191 H194 0.961 . S
H192 C191 0.959 . S
H193 C191 0.960 . S
H194 C191 0.961 . S
O195 Co170 1.967 . S
O195 C203 1.258 . S
O196 Co171 1.941 . S
O196 C203 1.266 1_556 S
H197 C199 0.959 . S
H198 C199 0.961 . S
C199 C189 1.532 . S
C199 H197 0.959 . S
C199 H198 0.961 . S
C199 H200 0.960 . S
H200 C199 0.960 . S
H201 N181 0.862 . S
O202 Co170 1.920 . S
O202 C175 1.289 . S
C203 O195 1.258 . S
C203 O196 1.266 1_554 S
Co204 O207 1.970 . S
Co204 N221 1.989 . S
Co204 O229 1.967 . S
Co204 O236 1.920 . S
Co205 O208 1.966 . S
Co205 N214 2.022 . S
Co205 N222 1.993 . S
Co205 O230 1.941 . S
C206 O207 1.258 . S
C206 O208 1.263 . S
O207 Co204 1.970 . S
O207 C206 1.258 . S
O208 Co205 1.966 . S
O208 C206 1.263 . S
C209 O210 1.235 . S
C209 O236 1.289 . S
O210 C209 1.235 . S
C211 C213 1.400 . S
C211 N214 1.351 . S
C211 C216 1.501 . S
C212 C213 1.387 . S
C212 N215 1.341 . S
C213 C211 1.400 . S
C213 C212 1.387 . S
N214 Co205 2.022 . S
N214 C211 1.351 . S
N214 N215 1.365 . S
N215 C212 1.341 . S
N215 N214 1.365 . S
N215 H235 0.862 . S
C216 C211 1.501 . S
C216 H217 0.961 . S
C216 H218 0.961 . S
C216 H219 0.960 . S
H217 C216 0.961 . S
H218 C216 0.961 . S
H219 C216 0.960 . S
C220 N221 1.342 . S
C220 C224 1.401 . S
C220 C225 1.499 . S
N221 Co204 1.989 . S
N221 C220 1.342 . S
N221 N222 1.388 . S
N222 Co205 1.993 . S
N222 N221 1.388 . S
N222 C223 1.346 . S
C223 N222 1.346 . S
C223 C224 1.396 . S
C223 C233 1.510 . S
C224 C220 1.401 . S
C224 C223 1.396 . S
C225 C220 1.499 . S
C225 H226 0.959 . S
C225 H227 0.960 . S
C225 H228 0.961 . S
H226 C225 0.959 . S
H227 C225 0.960 . S
H228 C225 0.961 . S
O229 Co204 1.967 . S
O229 C237 1.258 . S
O230 Co205 1.941 . S
O230 C237 1.266 . S
H231 C233 0.959 . S
H232 C233 0.961 . S
C233 C223 1.510 . S
C233 H231 0.959 . S
C233 H232 0.961 . S
C233 H234 0.960 . S
H234 C233 0.960 . S
H235 N215 0.862 . S
O236 Co204 1.920 . S
O236 C209 1.289 . S
C237 O229 1.258 . S
C237 O230 1.266 . S
Co238 O241 1.970 . S
Co238 N255 1.989 . S
Co238 O263 1.967 . S
Co238 O270 1.920 . S
Co239 O242 1.966 . S
Co239 N248 2.022 . S
Co239 N256 1.993 . S
Co239 O264 1.941 . S
C240 O241 1.258 . S
C240 O242 1.263 . S
O241 Co238 1.970 . S
O241 C240 1.258 . S
O242 Co239 1.966 . S
O242 C240 1.263 . S
C243 O244 1.235 . S
C243 O270 1.289 . S
O244 C243 1.235 . S
C245 C247 1.400 . S
C245 N248 1.351 . S
C245 C250 1.501 . S
C246 C247 1.387 . S
C246 N249 1.341 . S
C247 C245 1.400 . S
C247 C246 1.387 . S
N248 Co239 2.022 . S
N248 C245 1.351 . S
N248 N249 1.365 . S
N249 C246 1.341 . S
N249 N248 1.365 . S
N249 H269 0.862 . S
C250 C245 1.501 . S
C250 H251 0.961 . S
C250 H252 0.961 . S
C250 H253 0.960 . S
H251 C250 0.961 . S
H252 C250 0.961 . S
H253 C250 0.960 . S
C254 N255 1.342 . S
C254 C258 1.401 . S
C254 C259 1.499 . S
N255 Co238 1.989 . S
N255 C254 1.342 . S
N255 N256 1.388 . S
N256 Co239 1.993 . S
N256 N255 1.388 . S
N256 C257 1.346 . S
C257 N256 1.346 . S
C257 C258 1.396 . S
C257 C267 1.510 . S
C258 C254 1.401 . S
C258 C257 1.396 . S
C259 C254 1.499 . S
C259 H260 0.959 . S
C259 H261 0.960 . S
C259 H262 0.961 . S
H260 C259 0.959 . S
H261 C259 0.960 . S
H262 C259 0.961 . S
O263 Co238 1.967 . S
O263 C271 1.258 . S
O264 Co239 1.941 . S
O264 C271 1.266 . S
H265 C267 0.959 . S
H266 C267 0.961 . S
C267 C257 1.510 . S
C267 H265 0.959 . S
C267 H266 0.961 . S
C267 H268 0.960 . S
H268 C267 0.960 . S
H269 N249 0.862 . S
O270 Co238 1.920 . S
O270 C243 1.289 . S
C271 O263 1.258 . S
C271 O264 1.266 . S
Co272 O275 1.970 . S
Co272 N289 1.989 . S
Co272 O297 1.967 . S
Co272 O304 1.920 . S
Co273 O276 1.966 . S
Co273 N282 2.022 . S
Co273 N290 1.993 . S
Co273 O298 1.941 . S
C274 O275 1.258 . S
C274 O276 1.263 . S
O275 Co272 1.970 . S
O275 C274 1.258 . S
O276 Co273 1.966 . S
O276 C274 1.263 . S
C277 O278 1.235 . S
C277 O304 1.289 . S
O278 C277 1.235 . S
C279 C281 1.400 . S
C279 N282 1.351 . S
C279 C284 1.501 . S
C280 C281 1.387 . S
C280 N283 1.341 . S
C281 C279 1.400 . S
C281 C280 1.387 . S
N282 Co273 2.022 . S
N282 C279 1.351 . S
N282 N283 1.365 . S
N283 C280 1.341 . S
N283 N282 1.365 . S
N283 H303 0.862 . S
C284 C279 1.501 . S
C284 H285 0.961 . S
C284 H286 0.961 . S
C284 H287 0.960 . S
H285 C284 0.961 . S
H286 C284 0.961 . S
H287 C284 0.960 . S
C288 N289 1.342 . S
C288 C292 1.401 . S
C288 C293 1.499 . S
N289 Co272 1.989 . S
N289 C288 1.342 . S
N289 N290 1.388 . S
N290 Co273 1.993 . S
N290 N289 1.388 . S
N290 C291 1.346 . S
C291 N290 1.346 . S
C291 C292 1.396 . S
C291 C301 1.510 . S
C292 C288 1.401 . S
C292 C291 1.396 . S
C293 C288 1.499 . S
C293 H294 0.959 . S
C293 H295 0.960 . S
C293 H296 0.961 . S
H294 C293 0.959 . S
H295 C293 0.960 . S
H296 C293 0.961 . S
O297 Co272 1.967 . S
O297 C305 1.258 . S
O298 Co273 1.941 . S
O298 C305 1.266 . S
H299 C301 0.959 . S
H300 C301 0.961 . S
C301 C291 1.510 . S
C301 H299 0.959 . S
C301 H300 0.961 . S
C301 H302 0.960 . S
H302 C301 0.960 . S
H303 N283 0.862 . S
O304 Co272 1.920 . S
O304 C277 1.289 . S
C305 O297 1.258 . S
C305 O298 1.266 . S
Co306 O309 1.970 . S
Co306 N323 1.989 . S
Co306 O331 1.967 . S
Co306 O338 1.920 . S
Co307 O310 1.966 . S
Co307 N316 2.022 . S
Co307 N324 1.993 . S
Co307 O332 1.941 . S
C308 O309 1.258 . S
C308 O310 1.263 . S
O309 Co306 1.970 . S
O309 C308 1.258 . S
O310 Co307 1.966 . S
O310 C308 1.263 . S
C311 O312 1.235 . S
C311 O338 1.289 . S
O312 C311 1.235 . S
C313 C315 1.400 . S
C313 N316 1.351 . S
C313 C318 1.501 . S
C314 C315 1.387 . S
C314 N317 1.341 . S
C315 C313 1.400 . S
C315 C314 1.387 . S
N316 Co307 2.022 . S
N316 C313 1.351 . S
N316 N317 1.365 . S
N317 C314 1.341 . S
N317 N316 1.365 . S
N317 H337 0.862 . S
C318 C313 1.501 . S
C318 H319 0.961 . S
C318 H320 0.961 . S
C318 H321 0.960 . S
H319 C318 0.961 . S
H320 C318 0.961 . S
H321 C318 0.960 . S
C322 N323 1.342 . S
C322 C326 1.401 . S
C322 C327 1.499 . S
N323 Co306 1.989 . S
N323 C322 1.342 . S
N323 N324 1.388 . S
N324 Co307 1.993 . S
N324 N323 1.388 . S
N324 C325 1.346 . S
C325 N324 1.346 . S
C325 C326 1.396 . S
C325 C335 1.510 . S
C326 C322 1.401 . S
C326 C325 1.396 . S
C327 C322 1.499 . S
C327 H328 0.959 . S
C327 H329 0.960 . S
C327 H330 0.961 . S
H328 C327 0.959 . S
H329 C327 0.960 . S
H330 C327 0.961 . S
O331 Co306 1.967 . S
O331 C339 1.258 . S
O332 Co307 1.941 . S
O332 C339 1.266 . S
H333 C335 0.959 . S
H334 C335 0.961 . S
C335 C325 1.510 . S
C335 H333 0.959 . S
C335 H334 0.961 . S
C335 H336 0.960 . S
H336 C335 0.960 . S
H337 N317 0.862 . S
O338 Co306 1.920 . S
O338 C311 1.289 . S
C339 O331 1.258 . S
C339 O332 1.266 . S
Co340 O343 1.970 . S
Co340 N357 1.989 . S
Co340 O365 1.967 . S
Co340 O372 1.920 . S
Co341 O344 1.966 . S
Co341 N350 2.022 . S
Co341 N358 1.993 . S
Co341 O366 1.941 . S
C342 O343 1.258 . S
C342 O344 1.263 . S
O343 Co340 1.970 . S
O343 C342 1.258 . S
O344 Co341 1.966 . S
O344 C342 1.263 . S
C345 O346 1.235 . S
C345 O372 1.289 . S
O346 C345 1.235 . S
C347 C349 1.400 . S
C347 N350 1.351 . S
C347 C352 1.501 . S
C348 C349 1.387 . S
C348 N351 1.341 . S
C349 C347 1.400 . S
C349 C348 1.387 . S
N350 Co341 2.022 . S
N350 C347 1.351 . S
N350 N351 1.365 . S
N351 C348 1.341 . S
N351 N350 1.365 . S
N351 H371 0.862 . S
C352 C347 1.501 . S
C352 H353 0.961 . S
C352 H354 0.961 . S
C352 H355 0.960 . S
H353 C352 0.961 . S
H354 C352 0.961 . S
H355 C352 0.960 . S
C356 N357 1.342 . S
C356 C360 1.401 . S
C356 C361 1.499 . S
N357 Co340 1.989 . S
N357 C356 1.342 . S
N357 N358 1.388 . S
N358 Co341 1.993 . S
N358 N357 1.388 . S
N358 C359 1.346 . S
C359 N358 1.346 . S
C359 C360 1.396 . S
C359 C369 1.510 . S
C360 C356 1.401 . S
C360 C359 1.396 . S
C361 C356 1.499 . S
C361 H362 0.959 . S
C361 H363 0.960 . S
C361 H364 0.961 . S
H362 C361 0.959 . S
H363 C361 0.960 . S
H364 C361 0.961 . S
O365 Co340 1.967 . S
O365 C373 1.258 . S
O366 Co341 1.941 . S
O366 C373 1.266 . S
H367 C369 0.959 . S
H368 C369 0.961 . S
C369 C359 1.510 . S
C369 H367 0.959 . S
C369 H368 0.961 . S
C369 H370 0.960 . S
H370 C369 0.960 . S
H371 N351 0.862 . S
O372 Co340 1.920 . S
O372 C345 1.289 . S
C373 O365 1.258 . S
C373 O366 1.266 . S
Co374 O377 1.970 . S
Co374 N391 1.989 . S
Co374 O399 1.967 . S
Co374 O406 1.920 . S
Co375 O378 1.966 . S
Co375 N384 2.022 . S
Co375 N392 1.993 . S
Co375 O400 1.941 . S
C376 O377 1.258 . S
C376 O378 1.263 . S
O377 Co374 1.970 . S
O377 C376 1.258 . S
O378 Co375 1.966 . S
O378 C376 1.263 . S
C379 O380 1.235 . S
C379 O406 1.289 . S
O380 C379 1.235 . S
C381 C383 1.400 . S
C381 N384 1.351 . S
C381 C386 1.501 . S
C382 C383 1.387 . S
C382 N385 1.341 . S
C383 C381 1.400 . S
C383 C382 1.387 . S
N384 Co375 2.022 . S
N384 C381 1.351 . S
N384 N385 1.365 . S
N385 C382 1.341 . S
N385 N384 1.365 . S
N385 H405 0.862 . S
C386 C381 1.501 . S
C386 H387 0.961 . S
C386 H388 0.961 . S
C386 H389 0.960 . S
H387 C386 0.961 . S
H388 C386 0.961 . S
H389 C386 0.960 . S
C390 N391 1.342 . S
C390 C394 1.401 . S
C390 C395 1.499 . S
N391 Co374 1.989 . S
N391 C390 1.342 . S
N391 N392 1.388 . S
N392 Co375 1.993 . S
N392 N391 1.388 . S
N392 C393 1.346 . S
C393 N392 1.346 . S
C393 C394 1.396 . S
C393 C403 1.510 . S
C394 C390 1.401 . S
C394 C393 1.396 . S
C395 C390 1.499 . S
C395 H396 0.959 . S
C395 H397 0.960 . S
C395 H398 0.961 . S
H396 C395 0.959 . S
H397 C395 0.960 . S
H398 C395 0.961 . S
O399 Co374 1.967 . S
O399 C407 1.258 . S
O400 Co375 1.941 . S
O400 C407 1.266 . S
H401 C403 0.959 . S
H402 C403 0.961 . S
C403 C393 1.510 . S
C403 H401 0.959 . S
C403 H402 0.961 . S
C403 H404 0.960 . S
H404 C403 0.960 . S
H405 N385 0.862 . S
O406 Co374 1.920 . S
O406 C379 1.289 . S
C407 O399 1.258 . S
C407 O400 1.266 . S
H408 C416 0.929 . S
H409 C418 0.930 . S
H410 C420 0.930 . S
H411 C423 0.929 . S
H412 C426 0.930 . S
H413 C428 0.960 . S
H414 C428 0.960 . S
H415 C428 0.960 . S
C416 H408 0.929 . S
C416 C417 1.377 1_556 S
C416 C418 1.384 . S
C417 C416 1.377 1_554 S
C417 C423 1.390 . S
C418 H409 0.930 . S
C418 C416 1.384 . S
C418 C419 1.372 1_556 S
C419 C418 1.372 1_554 S
C419 C420 1.400 . S
C419 C424 1.490 . S
C420 H410 0.930 . S
C420 C419 1.400 . S
C420 C423 1.386 . S
H421 C437 0.930 . S
H422 C438 0.931 . S
C423 H411 0.929 . S
C423 C417 1.390 . S
C423 C420 1.386 . S
C424 C419 1.490 . S
C424 C426 1.395 1_554 S
C424 C427 1.403 . S
H425 C431 0.930 . S
C426 H412 0.930 . S
C426 C424 1.395 1_556 S
C426 C429 1.403 1_545 S
C427 C424 1.403 . S
C427 C428 1.524 . S
C427 C431 1.400 1_545 S
C428 H413 0.960 . S
C428 H414 0.960 . S
C428 H415 0.960 . S
C428 C427 1.524 . S
C429 C426 1.403 1_565 S
C429 C430 1.392 1_556 S
C429 C433 1.495 . S
C430 C429 1.392 1_554 S
C430 C431 1.385 . S
C430 C432 1.478 . S
C431 H425 0.930 . S
C431 C427 1.400 1_565 S
C431 C430 1.385 . S
C432 C430 1.478 . S
C432 C434 1.383 . S
C432 C438 1.383 . S
C433 C429 1.495 . S
C433 H439 0.959 . S
C433 H440 0.961 . S
C433 H441 0.960 . S
C434 C432 1.383 . S
C434 C435 1.395 . S
C434 H442 0.928 1_554 S
C435 C434 1.395 . S
C435 C436 1.383 . S
C435 H443 0.929 1_554 S
C436 C435 1.383 . S
C436 C437 1.377 . S
C437 H421 0.930 . S
C437 C436 1.377 . S
C437 C438 1.379 . S
C438 H422 0.931 . S
C438 C432 1.383 . S
C438 C437 1.379 . S
H439 C433 0.959 . S
H440 C433 0.961 . S
H441 C433 0.960 . S
H442 C434 0.928 1_556 S
H443 C435 0.929 1_556 S
H444 C452 0.929 . S
H445 C454 0.930 . S
H446 C456 0.929 1_556 S
H447 C459 0.929 . S
H448 C462 0.920 1_556 S
H449 C464 0.960 . S
H450 C464 0.960 . S
H451 C464 0.960 . S
C452 H444 0.929 . S
C452 C453 1.377 . S
C452 C454 1.384 . S
C453 C452 1.377 . S
C453 C459 1.390 1_554 S
C454 H445 0.930 . S
C454 C452 1.384 . S
C454 C455 1.372 . S
C455 C454 1.372 . S
C455 C456 1.400 . S
C455 C460 1.490 . S
C456 H446 0.929 1_554 S
C456 C455 1.400 . S
C456 C459 1.386 1_554 S
H457 C473 0.930 1_556 S
H458 C474 0.910 1_556 S
C459 H447 0.929 . S
C459 C453 1.390 1_556 S
C459 C456 1.386 1_556 S
C460 C455 1.490 . S
C460 C462 1.404 . S
C460 C463 1.403 . S
H461 C467 0.930 . S
C462 H448 0.920 1_554 S
C462 C460 1.404 . S
C462 C465 1.403 . S
C463 C460 1.403 . S
C463 C464 1.524 . S
C463 C467 1.400 . S
C464 H449 0.960 . S
C464 H450 0.960 . S
C464 H451 0.960 . S
C464 C463 1.524 . S
C465 C462 1.403 . S
C465 C466 1.395 . S
C465 C469 1.492 1_554 S
C466 C465 1.395 . S
C466 C467 1.385 . S
C466 C468 1.478 . S
C467 H461 0.930 . S
C467 C463 1.400 . S
C467 C466 1.385 . S
C468 C466 1.478 . S
C468 C470 1.381 . S
C468 C474 1.401 . S
C469 C465 1.492 1_556 S
C469 H475 0.959 . S
C469 H476 0.961 . S
C469 H477 0.960 . S
C470 C468 1.381 . S
C470 C471 1.394 . S
C470 H478 0.930 . S
C471 C470 1.394 . S
C471 C472 1.383 . S
C471 H479 0.929 . S
C472 C471 1.383 . S
C472 C473 1.377 . S
C473 H457 0.930 1_554 S
C473 C472 1.377 . S
C473 C474 1.383 . S
C474 H458 0.910 1_554 S
C474 C468 1.401 . S
C474 C473 1.383 . S
H475 C469 0.959 . S
H476 C469 0.961 . S
H477 C469 0.960 . S
H478 C470 0.930 . S
H479 C471 0.929 . S
H480 C488 0.929 . S
H481 C490 0.930 . S
H482 C492 0.930 . S
H483 C495 0.942 . S
H484 C498 0.930 . S
H485 C500 0.960 . S
H486 C500 0.960 . S
H487 C500 0.960 . S
C488 H480 0.929 . S
C488 C489 1.377 . S
C488 C490 1.384 . S
C489 C488 1.377 . S
C489 C495 1.376 1_554 S
C490 H481 0.930 . S
C490 C488 1.384 . S
C490 C491 1.372 . S
C491 C490 1.372 . S
C491 C492 1.400 1_554 S
C491 C496 1.490 . S
C492 H482 0.930 . S
C492 C491 1.400 1_556 S
C492 C495 1.386 . S
H493 C509 0.930 . S
H494 C510 0.931 . S
C495 H483 0.942 . S
C495 C489 1.376 1_556 S
C495 C492 1.386 . S
C496 C491 1.490 . S
C496 C498 1.395 1_455 S
C496 C499 1.403 . S
H497 C503 0.930 . S
C498 H484 0.930 . S
C498 C496 1.395 1_655 S
C498 C501 1.403 . S
C499 C496 1.403 . S
C499 C500 1.524 . S
C499 C503 1.400 1_455 S
C500 H485 0.960 . S
C500 H486 0.960 . S
C500 H487 0.960 . S
C500 C499 1.524 . S
C501 C498 1.403 . S
C501 C502 1.392 . S
C501 C505 1.495 . S
C502 C501 1.392 . S
C502 C503 1.385 . S
C502 C504 1.478 . S
C503 H497 0.930 . S
C503 C499 1.400 1_655 S
C503 C502 1.385 . S
C504 C502 1.478 . S
C504 C506 1.381 . S
C504 C510 1.383 1_554 S
C505 C501 1.495 . S
C505 H511 0.959 . S
C505 H512 0.961 1_554 S
C505 H513 0.960 . S
C506 C504 1.381 . S
C506 C507 1.394 . S
C506 H514 0.930 . S
C507 C506 1.394 . S
C507 C508 1.383 . S
C507 H515 0.929 . S
C508 C507 1.383 . S
C508 C509 1.377 1_554 S
C509 H493 0.930 . S
C509 C508 1.377 1_556 S
C509 C510 1.379 . S
C510 H494 0.931 . S
C510 C504 1.383 1_556 S
C510 C509 1.379 . S
H511 C505 0.959 . S
H512 C505 0.961 1_556 S
H513 C505 0.960 . S
H514 C506 0.930 . S
H515 C507 0.929 . S
H516 C524 0.929 . S
H517 C526 0.930 . S
H518 C528 0.930 . S
H519 C531 0.929 . S
H520 C534 0.930 . S
H521 C536 0.960 . S
H522 C536 0.960 . S
H523 C536 0.960 . S
C524 H516 0.929 . S
C524 C525 1.377 . S
C524 C526 1.384 . S
C525 C524 1.377 . S
C525 C531 1.390 . S
C526 H517 0.930 . S
C526 C524 1.384 . S
C526 C527 1.372 . S
C527 C526 1.372 . S
C527 C528 1.400 . S
C527 C532 1.490 . S
C528 H518 0.930 . S
C528 C527 1.400 . S
C528 C531 1.386 . S
H529 C545 0.930 . S
H530 C546 0.931 . S
C531 H519 0.929 . S
C531 C525 1.390 . S
C531 C528 1.386 . S
C532 C527 1.490 . S
C532 C534 1.395 . S
C532 C535 1.403 . S
H533 C539 0.930 1_655 S
C534 H520 0.930 . S
C534 C532 1.395 . S
C534 C537 1.403 . S
C535 C532 1.403 . S
C535 C536 1.524 . S
C535 C539 1.400 . S
C536 H521 0.960 . S
C536 H522 0.960 . S
C536 H523 0.960 . S
C536 C535 1.524 . S
C537 C534 1.403 . S
C537 C538 1.392 1_455 S
C537 C541 1.495 1_455 S
C538 C537 1.392 1_655 S
C538 C539 1.385 1_655 S
C538 C540 1.478 . S
C539 H533 0.930 1_455 S
C539 C535 1.400 . S
C539 C538 1.385 1_455 S
C540 C538 1.478 . S
C540 C542 1.381 . S
C540 C546 1.383 . S
C541 C537 1.495 1_655 S
C541 H547 0.959 1_655 S
C541 H548 0.961 . S
C541 H549 0.960 . S
C542 C540 1.381 . S
C542 C543 1.394 . S
C542 H550 0.930 . S
C543 C542 1.394 . S
C543 C544 1.383 . S
C543 H551 0.929 . S
C544 C543 1.383 . S
C544 C545 1.377 . S
C545 H529 0.930 . S
C545 C544 1.377 . S
C545 C546 1.379 . S
C546 H530 0.931 . S
C546 C540 1.383 . S
C546 C545 1.379 . S
H547 C541 0.959 1_455 S
H548 C541 0.961 . S
H549 C541 0.960 . S
H550 C542 0.930 . S
H551 C543 0.929 . S
H552 C560 0.929 . S
H553 C562 0.930 . S
H554 C564 0.930 . S
H555 C567 0.929 . S
H556 C570 0.930 . S
H557 C572 0.960 . S
H558 C572 0.960 . S
H559 C572 0.960 . S
C560 H552 0.929 . S
C560 C561 1.377 . S
C560 C562 1.384 . S
C561 C560 1.377 . S
C561 C567 1.390 . S
C562 H553 0.930 . S
C562 C560 1.384 . S
C562 C563 1.372 . S
C563 C562 1.372 . S
C563 C564 1.400 . S
C563 C568 1.490 . S
C564 H554 0.930 . S
C564 C563 1.400 . S
C564 C567 1.386 . S
H565 C581 0.930 . S
H566 C582 0.931 . S
C567 H555 0.929 . S
C567 C561 1.390 . S
C567 C564 1.386 . S
C568 C563 1.490 . S
C568 C570 1.395 1_545 S
C568 C571 1.404 . S
H569 C575 0.930 . S
C570 H556 0.930 . S
C570 C568 1.395 1_565 S
C570 C573 1.403 . S
C571 C568 1.404 . S
C571 C572 1.521 . S
C571 C575 1.402 1_545 S
C572 H557 0.960 . S
C572 H558 0.960 . S
C572 H559 0.960 . S
C572 C571 1.521 . S
C573 C570 1.403 . S
C573 C574 1.392 . S
C573 C577 1.495 . S
C574 C573 1.392 . S
C574 C575 1.385 . S
C574 C576 1.478 . S
C575 H569 0.930 . S
C575 C571 1.402 1_565 S
C575 C574 1.385 . S
C576 C574 1.478 . S
C576 C578 1.381 . S
C576 C582 1.383 . S
C577 C573 1.495 . S
C577 H583 0.959 . S
C577 H584 0.961 . S
C577 H585 0.960 . S
C578 C576 1.381 . S
C578 C579 1.394 . S
C578 H586 0.930 . S
C579 C578 1.394 . S
C579 C580 1.383 . S
C579 H587 0.929 . S
C580 C579 1.383 . S
C580 C581 1.377 . S
C581 H565 0.930 . S
C581 C580 1.377 . S
C581 C582 1.379 . S
C582 H566 0.931 . S
C582 C576 1.383 . S
C582 C581 1.379 . S
H583 C577 0.959 . S
H584 C577 0.961 . S
H585 C577 0.960 . S
H586 C578 0.930 . S
H587 C579 0.929 . S
H588 C596 0.929 . S
H589 C598 0.930 . S
H590 C600 0.930 . S
H591 C603 0.929 . S
H592 C606 0.930 . S
H593 C608 0.960 . S
H594 C608 0.960 . S
H595 C608 0.960 . S
C596 H588 0.929 . S
C596 C597 1.377 . S
C596 C598 1.384 . S
C597 C596 1.377 . S
C597 C603 1.390 . S
C598 H589 0.930 . S
C598 C596 1.384 . S
C598 C599 1.372 . S
C599 C598 1.372 . S
C599 C600 1.400 . S
C599 C604 1.490 . S
C600 H590 0.930 . S
C600 C599 1.400 . S
C600 C603 1.386 . S
H601 C617 0.930 . S
H602 C618 0.931 . S
C603 H591 0.929 . S
C603 C597 1.390 . S
C603 C600 1.386 . S
C604 C599 1.490 . S
C604 C606 1.395 . S
C604 C607 1.403 . S
H605 C611 0.930 . S
C606 H592 0.930 . S
C606 C604 1.395 . S
C606 C609 1.403 . S
C607 C604 1.403 . S
C607 C608 1.524 . S
C607 C611 1.400 . S
C608 H593 0.960 . S
C608 H594 0.960 . S
C608 H595 0.960 . S
C608 C607 1.524 . S
C609 C606 1.403 . S
C609 C610 1.392 . S
C609 C613 1.495 . S
C610 C609 1.392 . S
C610 C611 1.385 . S
C610 C612 1.478 . S
C611 H605 0.930 . S
C611 C607 1.400 . S
C611 C610 1.385 . S
C612 C610 1.478 . S
C612 C614 1.381 . S
C612 C618 1.383 . S
C613 C609 1.495 . S
C613 H619 0.959 . S
C613 H620 0.961 . S
C613 H621 0.960 . S
C614 C612 1.381 . S
C614 C615 1.394 . S
C614 H622 0.930 . S
C615 C614 1.394 . S
C615 C616 1.383 . S
C615 H623 0.929 . S
C616 C615 1.383 . S
C616 C617 1.377 . S
C617 H601 0.930 . S
C617 C616 1.377 . S
C617 C618 1.379 . S
C618 H602 0.931 . S
C618 C612 1.383 . S
C618 C617 1.379 . S
H619 C613 0.959 . S
H620 C613 0.961 . S
H621 C613 0.960 . S
H622 C614 0.930 . S
H623 C615 0.929 . S
H624 C632 0.929 . S
H625 C634 0.930 . S
H626 C636 0.930 . S
H627 C639 0.929 . S
H628 C642 0.930 . S
H629 C644 0.960 . S
H630 C644 0.960 . S
H631 C644 0.960 . S
C632 H624 0.929 . S
C632 C633 1.377 1_556 S
C632 C634 1.384 . S
C633 C632 1.377 1_554 S
C633 C639 1.390 . S
C634 H625 0.930 . S
C634 C632 1.384 . S
C634 C635 1.372 1_556 S
C635 C634 1.372 1_554 S
C635 C636 1.400 . S
C635 C640 1.490 1_545 S
C636 H626 0.930 . S
C636 C635 1.400 . S
C636 C639 1.386 . S
H637 C653 0.930 . S
H638 C654 0.931 . S
C639 H627 0.929 . S
C639 C633 1.390 . S
C639 C636 1.386 . S
C640 C635 1.490 1_565 S
C640 C642 1.395 1_554 S
C640 C643 1.403 . S
H641 C647 0.930 . S
C642 H628 0.930 . S
C642 C640 1.395 1_556 S
C642 C645 1.403 . S
C643 C640 1.403 . S
C643 C644 1.524 . S
C643 C647 1.400 . S
C644 H629 0.960 . S
C644 H630 0.960 . S
C644 H631 0.960 . S
C644 C643 1.524 . S
C645 C642 1.403 . S
C645 C646 1.392 1_556 S
C645 C649 1.495 . S
C646 C645 1.392 1_554 S
C646 C647 1.385 . S
C646 C648 1.478 . S
C647 H641 0.930 . S
C647 C643 1.400 . S
C647 C646 1.385 . S
C648 C646 1.478 . S
C648 C650 1.391 . S
C648 C654 1.383 . S
C649 C645 1.495 . S
C649 H655 0.959 . S
C649 H656 0.961 . S
C649 H657 0.960 . S
C650 C648 1.391 . S
C650 C651 1.396 . S
C650 H658 0.919 1_554 S
C651 C650 1.396 . S
C651 C652 1.383 . S
C651 H659 0.929 1_554 S
C652 C651 1.383 . S
C652 C653 1.377 . S
C653 H637 0.930 . S
C653 C652 1.377 . S
C653 C654 1.379 . S
C654 H638 0.931 . S
C654 C648 1.383 . S
C654 C653 1.379 . S
H655 C649 0.959 . S
H656 C649 0.961 . S
H657 C649 0.960 . S
H658 C650 0.919 1_556 S
H659 C651 0.929 1_556 S
H660 C668 0.929 . S
H661 C670 0.930 . S
H662 C672 0.930 . S
H663 C675 0.929 . S
H664 C678 0.930 . S
H665 C680 0.960 . S
H666 C680 0.960 1_554 S
H667 C680 0.960 . S
C668 H660 0.929 . S
C668 C669 1.377 . S
C668 C670 1.384 . S
C669 C668 1.377 . S
C669 C675 1.390 1_554 S
C670 H661 0.930 . S
C670 C668 1.384 . S
C670 C671 1.372 . S
C671 C670 1.372 . S
C671 C672 1.400 1_554 S
C671 C676 1.490 . S
C672 H662 0.930 . S
C672 C671 1.400 1_556 S
C672 C675 1.386 . S
H673 C689 0.930 1_556 S
H674 C690 0.927 1_556 S
C675 H663 0.929 . S
C675 C669 1.390 1_556 S
C675 C672 1.386 . S
C676 C671 1.490 . S
C676 C678 1.395 . S
C676 C679 1.403 . S
H677 C683 0.930 . S
C678 H664 0.930 . S
C678 C676 1.395 . S
C678 C681 1.403 . S
C679 C676 1.403 . S
C679 C680 1.524 1_554 S
C679 C683 1.400 . S
C680 H665 0.960 . S
C680 H666 0.960 1_556 S
C680 H667 0.960 . S
C680 C679 1.524 1_556 S
C681 C678 1.403 . S
C681 C682 1.392 . S
C681 C685 1.495 . S
C682 C681 1.392 . S
C682 C683 1.385 . S
C682 C684 1.478 . S
C683 H677 0.930 . S
C683 C679 1.400 . S
C683 C682 1.385 . S
C684 C682 1.478 . S
C684 C686 1.381 . S
C684 C690 1.386 . S
C685 C681 1.495 . S
C685 H691 0.959 . S
C685 H692 0.961 . S
C685 H693 0.960 . S
C686 C684 1.381 . S
C686 C687 1.394 . S
C686 H694 0.930 . S
C687 C686 1.394 . S
C687 C688 1.383 . S
C687 H695 0.929 . S
C688 C687 1.383 . S
C688 C689 1.377 . S
C689 H673 0.930 1_554 S
C689 C688 1.377 . S
C689 C690 1.380 . S
C690 H674 0.927 1_554 S
C690 C684 1.386 . S
C690 C689 1.380 . S
H691 C685 0.959 . S
H692 C685 0.961 . S
H693 C685 0.960 . S
H694 C686 0.930 . S
H695 C687 0.929 . S
H696 C704 0.929 . S
H697 C706 0.930 . S
H698 C708 0.930 . S
H699 C711 0.929 . S
H700 C714 0.930 . S
H701 C716 0.960 . S
H702 C716 0.960 . S
H703 C716 0.960 1_556 S
C704 H696 0.929 . S
C704 C705 1.377 . S
C704 C706 1.384 . S
C705 C704 1.377 . S
C705 C711 1.390 1_554 S
C706 H697 0.930 . S
C706 C704 1.384 . S
C706 C707 1.372 . S
C707 C706 1.372 . S
C707 C708 1.400 1_554 S
C707 C712 1.490 1_655 S
C708 H698 0.930 . S
C708 C707 1.400 1_556 S
C708 C711 1.386 . S
H709 C725 0.930 . S
H710 C726 0.931 . S
C711 H699 0.929 . S
C711 C705 1.390 1_556 S
C711 C708 1.386 . S
C712 C707 1.490 1_455 S
C712 C714 1.395 . S
C712 C715 1.403 . S
H713 C719 0.930 . S
C714 H700 0.930 . S
C714 C712 1.395 . S
C714 C717 1.403 . S
C715 C712 1.403 . S
C715 C716 1.524 . S
C715 C719 1.400 . S
C716 H701 0.960 . S
C716 H702 0.960 . S
C716 H703 0.960 1_554 S
C716 C715 1.524 . S
C717 C714 1.403 . S
C717 C718 1.392 . S
C717 C721 1.495 . S
C718 C717 1.392 . S
C718 C719 1.385 . S
C718 C720 1.478 . S
C719 H713 0.930 . S
C719 C715 1.400 . S
C719 C718 1.385 . S
C720 C718 1.478 . S
C720 C722 1.381 . S
C720 C726 1.383 1_554 S
C721 C717 1.495 . S
C721 H727 0.959 . S
C721 H728 0.961 . S
C721 H729 0.960 . S
C722 C720 1.381 . S
C722 C723 1.394 . S
C722 H730 0.930 . S
C723 C722 1.394 . S
C723 C724 1.383 . S
C723 H731 0.929 . S
C724 C723 1.383 . S
C724 C725 1.377 1_554 S
C725 H709 0.930 . S
C725 C724 1.377 1_556 S
C725 C726 1.379 . S
C726 H710 0.931 . S
C726 C720 1.383 1_556 S
C726 C725 1.379 . S
H727 C721 0.959 . S
H728 C721 0.961 . S
H729 C721 0.960 . S
H730 C722 0.930 . S
H731 C723 0.929 . S
H732 C740 0.929 . S
H733 C742 0.930 . S
H734 C744 0.930 . S
H735 C747 0.929 . S
H736 C750 0.930 . S
H737 C752 0.960 . S
H738 C752 0.960 . S
H739 C752 0.960 . S
C740 H732 0.929 . S
C740 C741 1.377 . S
C740 C742 1.384 . S
C741 C740 1.377 . S
C741 C747 1.390 1_554 S
C742 H733 0.930 . S
C742 C740 1.384 . S
C742 C743 1.372 . S
C743 C742 1.372 . S
C743 C744 1.400 1_554 S
C743 C748 1.490 . S
C744 H734 0.930 . S
C744 C743 1.400 1_556 S
C744 C747 1.386 . S
H745 C761 0.930 1_556 S
H746 C762 0.931 1_556 S
C747 H735 0.929 . S
C747 C741 1.390 1_556 S
C747 C744 1.386 . S
C748 C743 1.490 . S
C748 C750 1.395 . S
C748 C751 1.403 . S
H749 C755 0.930 . S
C750 H736 0.930 . S
C750 C748 1.395 . S
C750 C753 1.403 . S
C751 C748 1.403 . S
C751 C752 1.524 . S
C751 C755 1.400 . S
C752 H737 0.960 . S
C752 H738 0.960 . S
C752 H739 0.960 . S
C752 C751 1.524 . S
C753 C750 1.403 . S
C753 C754 1.392 . S
C753 C757 1.495 . S
C754 C753 1.392 . S
C754 C755 1.385 . S
C754 C756 1.478 1_545 S
C755 H749 0.930 . S
C755 C751 1.400 . S
C755 C754 1.385 . S
C756 C754 1.478 1_565 S
C756 C758 1.381 . S
C756 C762 1.383 . S
C757 C753 1.495 . S
C757 H763 0.959 . S
C757 H764 0.973 . S
C757 H765 0.960 . S
C758 C756 1.381 . S
C758 C759 1.394 . S
C758 H766 0.930 . S
C759 C758 1.394 . S
C759 C760 1.383 . S
C759 H767 0.929 . S
C760 C759 1.383 . S
C760 C761 1.377 . S
C761 H745 0.930 1_554 S
C761 C760 1.377 . S
C761 C762 1.379 . S
C762 H746 0.931 1_554 S
C762 C756 1.383 . S
C762 C761 1.379 . S
H763 C757 0.959 . S
H764 C757 0.973 . S
H765 C757 0.960 . S
H766 C758 0.930 . S
H767 C759 0.929 . S
H768 C776 0.920 1_556 S
H769 C778 0.930 1_556 S
H770 C780 0.930 . S
H771 C783 0.929 . S
H772 C786 0.930 . S
H773 C788 0.960 . S
H774 C788 0.960 . S
H775 C788 0.960 1_554 S
C776 H768 0.920 1_554 S
C776 C777 1.377 . S
C776 C778 1.384 . S
C777 C776 1.377 . S
C777 C783 1.390 . S
C778 H769 0.930 1_554 S
C778 C776 1.384 . S
C778 C779 1.372 . S
C779 C778 1.372 . S
C779 C780 1.400 . S
C779 C784 1.490 . S
C780 H770 0.930 . S
C780 C779 1.400 . S
C780 C783 1.386 . S
H781 C797 0.930 . S
H782 C798 0.931 . S
C783 H771 0.929 . S
C783 C777 1.390 . S
C783 C780 1.386 . S
C784 C779 1.490 . S
C784 C786 1.395 . S
C784 C787 1.403 . S
H785 C791 0.930 1_556 S
C786 H772 0.930 . S
C786 C784 1.395 . S
C786 C789 1.403 . S
C787 C784 1.403 . S
C787 C788 1.524 1_554 S
C787 C791 1.400 . S
C788 H773 0.960 . S
C788 H774 0.960 . S
C788 H775 0.960 1_556 S
C788 C787 1.524 1_556 S
C789 C786 1.403 . S
C789 C790 1.392 . S
C789 C793 1.495 . S
C790 C789 1.392 . S
C790 C791 1.385 . S
C790 C792 1.478 . S
C791 H785 0.930 1_554 S
C791 C787 1.400 . S
C791 C790 1.385 . S
C792 C790 1.478 . S
C792 C794 1.381 . S
C792 C798 1.383 . S
C793 C789 1.495 . S
C793 H799 0.959 . S
C793 H800 0.961 . S
C793 H801 0.960 . S
C794 C792 1.381 . S
C794 C795 1.393 1_554 S
C794 H802 0.930 1_554 S
C795 C794 1.393 1_556 S
C795 C796 1.373 1_556 S
C795 H803 0.941 . S
C796 C795 1.373 1_554 S
C796 C797 1.377 . S
C797 H781 0.930 . S
C797 C796 1.377 . S
C797 C798 1.379 . S
C798 H782 0.931 . S
C798 C792 1.383 . S
C798 C797 1.379 . S
H799 C793 0.959 . S
H800 C793 0.961 . S
H801 C793 0.960 . S
H802 C794 0.930 1_556 S
H803 C795 0.941 . S
H804 C812 0.929 . S
H805 C814 0.930 . S
H806 C816 0.930 . S
H807 C819 0.929 . S
H808 C822 0.930 . S
H809 C824 0.960 . S
H810 C824 0.960 . S
H811 C824 0.960 . S
C812 H804 0.929 . S
C812 C813 1.377 . S
C812 C814 1.384 . S
C813 C812 1.377 . S
C813 C819 1.390 1_554 S
C814 H805 0.930 . S
C814 C812 1.384 . S
C814 C815 1.372 . S
C815 C814 1.372 . S
C815 C816 1.400 1_554 S
C815 C820 1.490 . S
C816 H806 0.930 . S
C816 C815 1.400 1_556 S
C816 C819 1.386 . S
H817 C833 0.930 1_556 S
H818 C834 0.930 . S
C819 H807 0.929 . S
C819 C813 1.390 1_556 S
C819 C816 1.386 . S
C820 C815 1.490 . S
C820 C822 1.395 . S
C820 C823 1.403 . S
H821 C827 0.930 . S
C822 H808 0.930 . S
C822 C820 1.395 . S
C822 C825 1.403 . S
C823 C820 1.403 . S
C823 C824 1.524 . S
C823 C827 1.400 . S
C824 H809 0.960 . S
C824 H810 0.960 . S
C824 H811 0.960 . S
C824 C823 1.524 . S
C825 C822 1.403 . S
C825 C826 1.392 . S
C825 C829 1.495 . S
C826 C825 1.392 . S
C826 C827 1.385 . S
C826 C828 1.478 1_655 S
C827 H821 0.930 . S
C827 C823 1.400 . S
C827 C826 1.385 . S
C828 C826 1.478 1_455 S
C828 C830 1.381 . S
C828 C834 1.383 1_554 S
C829 C825 1.495 . S
C829 H835 0.959 . S
C829 H836 0.961 . S
C829 H837 0.960 . S
C830 C828 1.381 . S
C830 C831 1.394 . S
C830 H838 0.930 . S
C831 C830 1.394 . S
C831 C832 1.383 . S
C831 H839 0.929 . S
C832 C831 1.383 . S
C832 C833 1.377 . S
C833 H817 0.930 1_554 S
C833 C832 1.377 . S
C833 C834 1.380 1_554 S
C834 H818 0.930 . S
C834 C828 1.383 1_556 S
C834 C833 1.380 1_556 S
H835 C829 0.959 . S
H836 C829 0.961 . S
H837 C829 0.960 . S
H838 C830 0.930 . S
H839 C831 0.929 . S
H840 C848 0.929 . S
H841 C850 0.930 . S
H842 C852 0.930 . S
H843 C855 0.929 . S
H844 C858 0.930 . S
H845 C860 0.960 . S
H846 C860 0.960 . S
H847 C860 0.960 . S
C848 H840 0.929 . S
C848 C849 1.377 . S
C848 C850 1.384 . S
C849 C848 1.377 . S
C849 C855 1.390 . S
C850 H841 0.930 . S
C850 C848 1.384 . S
C850 C851 1.372 . S
C851 C850 1.372 . S
C851 C852 1.400 . S
C851 C856 1.490 . S
C852 H842 0.930 . S
C852 C851 1.400 . S
C852 C855 1.386 . S
H853 C869 0.930 . S
H854 C870 0.931 . S
C855 H843 0.929 . S
C855 C849 1.390 . S
C855 C852 1.386 . S
C856 C851 1.490 . S
C856 C858 1.395 . S
C856 C859 1.403 . S
H857 C863 0.930 1_655 S
C858 H844 0.930 . S
C858 C856 1.395 . S
C858 C861 1.403 . S
C859 C856 1.403 . S
C859 C860 1.524 . S
C859 C863 1.400 . S
C860 H845 0.960 . S
C860 H846 0.960 . S
C860 H847 0.960 . S
C860 C859 1.524 . S
C861 C858 1.403 . S
C861 C862 1.392 1_455 S
C861 C865 1.495 1_455 S
C862 C861 1.392 1_655 S
C862 C863 1.385 1_655 S
C862 C864 1.478 . S
C863 H857 0.930 1_455 S
C863 C859 1.400 . S
C863 C862 1.385 1_455 S
C864 C862 1.478 . S
C864 C866 1.381 . S
C864 C870 1.383 . S
C865 C861 1.495 1_655 S
C865 H871 0.959 1_655 S
C865 H872 0.961 . S
C865 H873 0.960 . S
C866 C864 1.381 . S
C866 C867 1.394 . S
C866 H874 0.930 . S
C867 C866 1.394 . S
C867 C868 1.383 . S
C867 H875 0.929 . S
C868 C867 1.383 . S
C868 C869 1.377 . S
C869 H853 0.930 . S
C869 C868 1.377 . S
C869 C870 1.379 . S
C870 H854 0.931 . S
C870 C864 1.383 . S
C870 C869 1.379 . S
H871 C865 0.959 1_455 S
H872 C865 0.961 . S
H873 C865 0.960 . S
H874 C866 0.930 . S
H875 C867 0.929 . S
H876 C884 0.929 . S
H877 C886 0.930 . S
H878 C888 0.930 . S
H879 C891 0.929 . S
H880 C894 0.930 . S
H881 C896 0.960 . S
H882 C896 0.960 . S
H883 C896 0.960 . S
C884 H876 0.929 . S
C884 C885 1.377 . S
C884 C886 1.384 . S
C885 C884 1.377 . S
C885 C891 1.390 . S
C886 H877 0.930 . S
C886 C884 1.384 . S
C886 C887 1.372 . S
C887 C886 1.372 . S
C887 C888 1.400 . S
C887 C892 1.490 . S
C888 H878 0.930 . S
C888 C887 1.400 . S
C888 C891 1.386 . S
H889 C905 0.930 . S
H890 C906 0.931 . S
C891 H879 0.929 . S
C891 C885 1.390 . S
C891 C888 1.386 . S
C892 C887 1.490 . S
C892 C894 1.395 . S
C892 C895 1.403 . S
H893 C899 0.930 . S
C894 H880 0.930 . S
C894 C892 1.395 . S
C894 C897 1.403 1_545 S
C895 C892 1.403 . S
C895 C896 1.524 . S
C895 C899 1.400 1_545 S
C896 H881 0.960 . S
C896 H882 0.960 . S
C896 H883 0.960 . S
C896 C895 1.524 . S
C897 C894 1.403 1_565 S
C897 C898 1.392 . S
C897 C901 1.495 . S
C898 C897 1.392 . S
C898 C899 1.385 . S
C898 C900 1.478 . S
C899 H893 0.930 . S
C899 C895 1.400 1_565 S
C899 C898 1.385 . S
C900 C898 1.478 . S
C900 C902 1.381 . S
C900 C906 1.383 . S
C901 C897 1.495 . S
C901 H907 0.959 . S
C901 H908 0.961 . S
C901 H909 0.960 . S
C902 C900 1.381 . S
C902 C903 1.394 . S
C902 H910 0.930 . S
C903 C902 1.394 . S
C903 C904 1.383 . S
C903 H911 0.929 . S
C904 C903 1.383 . S
C904 C905 1.377 . S
C905 H889 0.930 . S
C905 C904 1.377 . S
C905 C906 1.379 . S
C906 H890 0.931 . S
C906 C900 1.383 . S
C906 C905 1.379 . S
H907 C901 0.959 . S
H908 C901 0.961 . S
H909 C901 0.960 . S
H910 C902 0.930 . S
H911 C903 0.929 . S
H912 C920 0.929 . S
H913 C922 0.930 . S
H914 C924 0.930 . S
H915 C927 0.929 . S
H916 C930 0.930 . S
H917 C932 0.960 . S
H918 C932 0.960 . S
H919 C932 0.960 . S
C920 H912 0.929 . S
C920 C921 1.377 . S
C920 C922 1.384 . S
C921 C920 1.377 . S
C921 C927 1.390 . S
C922 H913 0.930 . S
C922 C920 1.384 . S
C922 C923 1.372 . S
C923 C922 1.372 . S
C923 C924 1.400 . S
C923 C928 1.490 . S
C924 H914 0.930 . S
C924 C923 1.400 . S
C924 C927 1.386 . S
H925 C941 0.930 . S
H926 C942 0.931 . S
C927 H915 0.929 . S
C927 C921 1.390 . S
C927 C924 1.386 . S
C928 C923 1.490 . S
C928 C930 1.395 . S
C928 C931 1.403 . S
H929 C935 0.930 . S
C930 H916 0.930 . S
C930 C928 1.395 . S
C930 C933 1.403 . S
C931 C928 1.403 . S
C931 C932 1.524 . S
C931 C935 1.400 . S
C932 H917 0.960 . S
C932 H918 0.960 . S
C932 H919 0.960 . S
C932 C931 1.524 . S
C933 C930 1.403 . S
C933 C934 1.392 . S
C933 C937 1.495 . S
C934 C933 1.392 . S
C934 C935 1.385 . S
C934 C936 1.478 . S
C935 H929 0.930 . S
C935 C931 1.400 . S
C935 C934 1.385 . S
C936 C934 1.478 . S
C936 C938 1.381 . S
C936 C942 1.383 . S
C937 C933 1.495 . S
C937 H943 0.959 . S
C937 H944 0.961 . S
C937 H945 0.960 . S
C938 C936 1.381 . S
C938 C939 1.394 . S
C938 H946 0.930 . S
C939 C938 1.394 . S
C939 C940 1.383 . S
C939 H947 0.929 . S
C940 C939 1.383 . S
C940 C941 1.377 . S
C941 H925 0.930 . S
C941 C940 1.377 . S
C941 C942 1.379 . S
C942 H926 0.931 . S
C942 C936 1.383 . S
C942 C941 1.379 . S
H943 C937 0.959 . S
H944 C937 0.961 . S
H945 C937 0.960 . S
H946 C938 0.930 . S
H947 C939 0.929 . S
H948 C956 0.929 . S
H949 C958 0.930 . S
H950 C960 0.930 . S
H951 C963 0.929 . S
H952 C966 0.930 . S
H953 C968 0.960 . S
H954 C968 0.960 . S
H955 C968 0.960 . S
C956 H948 0.929 . S
C956 C957 1.377 . S
C956 C958 1.384 . S
C957 C956 1.377 . S
C957 C963 1.390 . S
C958 H949 0.930 . S
C958 C956 1.384 . S
C958 C959 1.372 . S
C959 C958 1.372 . S
C959 C960 1.400 . S
C959 C964 1.490 . S
C960 H950 0.930 . S
C960 C959 1.400 . S
C960 C963 1.386 . S
H961 C977 0.930 . S
H962 C978 0.931 . S
C963 H951 0.929 . S
C963 C957 1.390 . S
C963 C960 1.386 . S
C964 C959 1.490 . S
C964 C966 1.395 . S
C964 C967 1.403 . S
H965 C971 0.930 . S
C966 H952 0.930 . S
C966 C964 1.395 . S
C966 C969 1.403 1_455 S
C967 C964 1.403 . S
C967 C968 1.524 . S
C967 C971 1.400 1_455 S
C968 H953 0.960 . S
C968 H954 0.960 . S
C968 H955 0.960 . S
C968 C967 1.524 . S
C969 C966 1.403 1_655 S
C969 C970 1.392 . S
C969 C973 1.495 . S
C970 C969 1.392 . S
C970 C971 1.385 . S
C970 C972 1.478 . S
C971 H965 0.930 . S
C971 C967 1.400 1_655 S
C971 C970 1.385 . S
C972 C970 1.478 . S
C972 C974 1.381 . S
C972 C978 1.383 . S
C973 C969 1.495 . S
C973 H979 0.959 . S
C973 H980 0.961 . S
C973 H981 0.960 . S
C974 C972 1.381 . S
C974 C975 1.394 . S
C974 H982 0.930 . S
C975 C974 1.394 . S
C975 C976 1.383 . S
C975 H983 0.929 . S
C976 C975 1.383 . S
C976 C977 1.377 . S
C977 H961 0.930 . S
C977 C976 1.377 . S
C977 C978 1.379 . S
C978 H962 0.931 . S
C978 C972 1.383 . S
C978 C977 1.379 . S
H979 C973 0.959 . S
H980 C973 0.961 . S
H981 C973 0.960 . S
H982 C974 0.930 . S
H983 C975 0.929 . S
H984 C992 0.929 . S
H985 C994 0.930 . S
H986 C996 0.930 . S
H987 C999 0.929 . S
H988 C1002 0.920 1_545 S
H989 C1004 0.960 . S
H990 C1004 0.960 1_545 S
H991 C1004 0.960 1_545 S
C992 H984 0.929 . S
C992 C993 1.377 . S
C992 C994 1.384 . S
C993 C992 1.377 . S
C993 C999 1.390 . S
C994 H985 0.930 . S
C994 C992 1.384 . S
C994 C995 1.372 . S
C995 C994 1.372 . S
C995 C996 1.400 . S
C995 C1000 1.490 . S
C996 H986 0.930 . S
C996 C995 1.400 . S
C996 C999 1.386 . S
H997 C1013 0.930 . S
H998 C1014 0.931 . S
C999 H987 0.929 . S
C999 C993 1.390 . S
C999 C996 1.386 . S
C1000 C995 1.490 . S
C1000 C1002 1.395 1_545 S
C1000 C1003 1.403 1_545 S
H1001 C1007 0.930 . S
C1002 H988 0.920 1_565 S
C1002 C1000 1.395 1_565 S
C1002 C1005 1.403 . S
C1003 C1000 1.403 1_565 S
C1003 C1004 1.524 . S
C1003 C1007 1.400 . S
C1004 H989 0.960 . S
C1004 H990 0.960 1_565 S
C1004 H991 0.960 1_565 S
C1004 C1003 1.524 . S
C1005 C1002 1.403 . S
C1005 C1006 1.392 . S
C1005 C1009 1.495 . S
C1006 C1005 1.392 . S
C1006 C1007 1.385 . S
C1006 C1008 1.478 . S
C1007 H1001 0.930 . S
C1007 C1003 1.400 . S
C1007 C1006 1.385 . S
C1008 C1006 1.478 . S
C1008 C1010 1.381 . S
C1008 C1014 1.383 . S
C1009 C1005 1.495 . S
C1009 H1015 0.959 . S
C1009 H1016 0.961 . S
C1009 H1017 0.960 . S
C1010 C1008 1.381 . S
C1010 C1011 1.394 . S
C1010 H1018 0.930 . S
C1011 C1010 1.394 . S
C1011 C1012 1.383 . S
C1011 H1019 0.929 . S
C1012 C1011 1.383 . S
C1012 C1013 1.377 . S
C1013 H997 0.930 . S
C1013 C1012 1.377 . S
C1013 C1014 1.379 . S
C1014 H998 0.931 . S
C1014 C1008 1.383 . S
C1014 C1013 1.379 . S
H1015 C1009 0.959 . S
H1016 C1009 0.961 . S
H1017 C1009 0.960 . S
H1018 C1010 0.930 . S
H1019 C1011 0.929 . S
H1020 C1028 0.929 . S
H1021 C1030 0.930 . S
H1022 C1032 0.930 . S
H1023 C1035 0.929 . S
H1024 C1038 0.930 . S
H1025 C1040 0.960 . S
H1026 C1040 0.960 . S
H1027 C1040 0.960 . S
C1028 H1020 0.929 . S
C1028 C1029 1.377 . S
C1028 C1030 1.384 . S
C1029 C1028 1.377 . S
C1029 C1035 1.390 . S
C1030 H1021 0.930 . S
C1030 C1028 1.384 . S
C1030 C1031 1.372 . S
C1031 C1030 1.372 . S
C1031 C1032 1.400 . S
C1031 C1036 1.490 . S
C1032 H1022 0.930 . S
C1032 C1031 1.400 . S
C1032 C1035 1.386 . S
H1033 C1049 0.930 . S
H1034 C1050 0.931 . S
C1035 H1023 0.929 . S
C1035 C1029 1.390 . S
C1035 C1032 1.386 . S
C1036 C1031 1.490 . S
C1036 C1038 1.395 . S
C1036 C1039 1.403 . S
H1037 C1043 0.930 . S
C1038 H1024 0.930 . S
C1038 C1036 1.395 . S
C1038 C1041 1.403 . S
C1039 C1036 1.403 . S
C1039 C1040 1.524 . S
C1039 C1043 1.400 . S
C1040 H1025 0.960 . S
C1040 H1026 0.960 . S
C1040 H1027 0.960 . S
C1040 C1039 1.524 . S
C1041 C1038 1.403 . S
C1041 C1042 1.392 . S
C1041 C1045 1.495 . S
C1042 C1041 1.392 . S
C1042 C1043 1.385 . S
C1042 C1044 1.478 . S
C1043 H1037 0.930 . S
C1043 C1039 1.400 . S
C1043 C1042 1.385 . S
C1044 C1042 1.478 . S
C1044 C1046 1.381 . S
C1044 C1050 1.383 . S
C1045 C1041 1.495 . S
C1045 H1051 0.959 . S
C1045 H1052 0.961 . S
C1045 H1053 0.960 . S
C1046 C1044 1.381 . S
C1046 C1047 1.394 . S
C1046 H1054 0.930 . S
C1047 C1046 1.394 . S
C1047 C1048 1.383 . S
C1047 H1055 0.929 . S
C1048 C1047 1.383 . S
C1048 C1049 1.377 . S
C1049 H1033 0.930 . S
C1049 C1048 1.377 . S
C1049 C1050 1.379 . S
C1050 H1034 0.931 . S
C1050 C1044 1.383 . S
C1050 C1049 1.379 . S
H1051 C1045 0.959 . S
H1052 C1045 0.961 . S
H1053 C1045 0.960 . S
H1054 C1046 0.930 . S
H1055 C1047 0.929 . S
H1056 C1064 0.929 . S
H1057 C1066 0.930 . S
H1058 C1068 0.930 . S
H1059 C1071 0.929 . S
H1060 C1074 0.930 . S
H1061 C1076 0.960 . S
H1062 C1076 0.960 . S
H1063 C1076 0.960 . S
C1064 H1056 0.929 . S
C1064 C1065 1.377 . S
C1064 C1066 1.384 . S
C1065 C1064 1.377 . S
C1065 C1071 1.390 . S
C1066 H1057 0.930 . S
C1066 C1064 1.384 . S
C1066 C1067 1.372 . S
C1067 C1066 1.372 . S
C1067 C1068 1.400 . S
C1067 C1072 1.490 . S
C1068 H1058 0.930 . S
C1068 C1067 1.400 . S
C1068 C1071 1.386 . S
H1069 C1085 0.930 . S
H1070 C1086 0.931 . S
C1071 H1059 0.929 . S
C1071 C1065 1.390 . S
C1071 C1068 1.386 . S
C1072 C1067 1.490 . S
C1072 C1074 1.395 . S
C1072 C1075 1.403 . S
H1073 C1079 0.930 . S
C1074 H1060 0.930 . S
C1074 C1072 1.395 . S
C1074 C1077 1.403 . S
C1075 C1072 1.403 . S
C1075 C1076 1.524 . S
C1075 C1079 1.400 . S
C1076 H1061 0.960 . S
C1076 H1062 0.960 . S
C1076 H1063 0.960 . S
C1076 C1075 1.524 . S
C1077 C1074 1.403 . S
C1077 C1078 1.392 . S
C1077 C1081 1.495 . S
C1078 C1077 1.392 . S
C1078 C1079 1.385 . S
C1078 C1080 1.478 . S
C1079 H1073 0.930 . S
C1079 C1075 1.400 . S
C1079 C1078 1.385 . S
C1080 C1078 1.478 . S
C1080 C1082 1.381 . S
C1080 C1086 1.383 . S
C1081 C1077 1.495 . S
C1081 H1087 0.959 . S
C1081 H1088 0.961 . S
C1081 H1089 0.960 . S
C1082 C1080 1.381 . S
C1082 C1083 1.394 . S
C1082 H1090 0.930 . S
C1083 C1082 1.394 . S
C1083 C1084 1.383 . S
C1083 H1091 0.929 . S
C1084 C1083 1.383 . S
C1084 C1085 1.377 . S
C1085 H1069 0.930 . S
C1085 C1084 1.377 . S
C1085 C1086 1.379 . S
C1086 H1070 0.931 . S
C1086 C1080 1.383 . S
C1086 C1085 1.379 . S
H1087 C1081 0.959 . S
H1088 C1081 0.961 . S
H1089 C1081 0.960 . S
H1090 C1082 0.930 . S
H1091 C1083 0.929 . S
H1092 C1100 0.929 . S
H1093 C1102 0.930 . S
H1094 C1104 0.930 . S
H1095 C1107 0.929 . S
H1096 C1110 0.930 . S
H1097 C1112 0.960 . S
H1098 C1112 0.960 . S
H1099 C1112 0.960 . S
C1100 H1092 0.929 . S
C1100 C1101 1.377 . S
C1100 C1102 1.384 . S
C1101 C1100 1.377 . S
C1101 C1107 1.390 . S
C1102 H1093 0.930 . S
C1102 C1100 1.384 . S
C1102 C1103 1.372 . S
C1103 C1102 1.372 . S
C1103 C1104 1.400 . S
C1103 C1108 1.490 . S
C1104 H1094 0.930 . S
C1104 C1103 1.400 . S
C1104 C1107 1.386 . S
H1105 C1121 0.930 . S
H1106 C1122 0.931 . S
C1107 H1095 0.929 . S
C1107 C1101 1.390 . S
C1107 C1104 1.386 . S
C1108 C1103 1.490 . S
C1108 C1110 1.395 . S
C1108 C1111 1.403 . S
H1109 C1115 0.930 . S
C1110 H1096 0.930 . S
C1110 C1108 1.395 . S
C1110 C1113 1.403 . S
C1111 C1108 1.403 . S
C1111 C1112 1.524 . S
C1111 C1115 1.400 . S
C1112 H1097 0.960 . S
C1112 H1098 0.960 . S
C1112 H1099 0.960 . S
C1112 C1111 1.524 . S
C1113 C1110 1.403 . S
C1113 C1114 1.392 . S
C1113 C1117 1.495 . S
C1114 C1113 1.392 . S
C1114 C1115 1.385 . S
C1114 C1116 1.478 . S
C1115 H1109 0.930 . S
C1115 C1111 1.400 . S
C1115 C1114 1.385 . S
C1116 C1114 1.478 . S
C1116 C1118 1.381 . S
C1116 C1122 1.383 . S
C1117 C1113 1.495 . S
C1117 H1123 0.959 . S
C1117 H1124 0.961 . S
C1117 H1125 0.960 . S
C1118 C1116 1.381 . S
C1118 C1119 1.394 . S
C1118 H1126 0.930 . S
C1119 C1118 1.394 . S
C1119 C1120 1.383 . S
C1119 H1127 0.929 . S
C1120 C1119 1.383 . S
C1120 C1121 1.377 . S
C1121 H1105 0.930 . S
C1121 C1120 1.377 . S
C1121 C1122 1.379 . S
C1122 H1106 0.931 . S
C1122 C1116 1.383 . S
C1122 C1121 1.379 . S
H1123 C1117 0.959 . S
H1124 C1117 0.961 . S
H1125 C1117 0.960 . S
H1126 C1118 0.930 . S
H1127 C1119 0.929 . S
H1128 C1136 0.929 . S
H1129 C1138 0.930 . S
H1130 C1140 0.930 . S
H1131 C1143 0.929 . S
H1132 C1146 0.930 . S
H1133 C1148 0.960 . S
H1134 C1148 0.960 . S
H1135 C1148 0.960 . S
C1136 H1128 0.929 . S
C1136 C1137 1.377 . S
C1136 C1138 1.384 . S
C1137 C1136 1.377 . S
C1137 C1143 1.390 . S
C1138 H1129 0.930 . S
C1138 C1136 1.384 . S
C1138 C1139 1.372 . S
C1139 C1138 1.372 . S
C1139 C1140 1.400 . S
C1139 C1144 1.490 . S
C1140 H1130 0.930 . S
C1140 C1139 1.400 . S
C1140 C1143 1.386 . S
H1141 C1157 0.930 . S
H1142 C1158 0.931 . S
C1143 H1131 0.929 . S
C1143 C1137 1.390 . S
C1143 C1140 1.386 . S
C1144 C1139 1.490 . S
C1144 C1146 1.395 . S
C1144 C1147 1.403 . S
H1145 C1151 0.930 . S
C1146 H1132 0.930 . S
C1146 C1144 1.395 . S
C1146 C1149 1.403 . S
C1147 C1144 1.403 . S
C1147 C1148 1.524 . S
C1147 C1151 1.400 . S
C1148 H1133 0.960 . S
C1148 H1134 0.960 . S
C1148 H1135 0.960 . S
C1148 C1147 1.524 . S
C1149 C1146 1.403 . S
C1149 C1150 1.392 . S
C1149 C1153 1.495 . S
C1150 C1149 1.392 . S
C1150 C1151 1.385 . S
C1150 C1152 1.478 . S
C1151 H1145 0.930 . S
C1151 C1147 1.400 . S
C1151 C1150 1.385 . S
C1152 C1150 1.478 . S
C1152 C1154 1.381 . S
C1152 C1158 1.383 . S
C1153 C1149 1.495 . S
C1153 H1159 0.959 . S
C1153 H1160 0.961 . S
C1153 H1161 0.960 . S
C1154 C1152 1.381 . S
C1154 C1155 1.394 . S
C1154 H1162 0.930 . S
C1155 C1154 1.394 . S
C1155 C1156 1.383 . S
C1155 H1163 0.929 . S
C1156 C1155 1.383 . S
C1156 C1157 1.377 . S
C1157 H1141 0.930 . S
C1157 C1156 1.377 . S
C1157 C1158 1.379 . S
C1158 H1142 0.931 . S
C1158 C1152 1.383 . S
C1158 C1157 1.379 . S
H1159 C1153 0.959 . S
H1160 C1153 0.961 . S
H1161 C1153 0.960 . S
H1162 C1154 0.930 . S
H1163 C1155 0.929 . S
H1164 C1172 0.929 . S
H1165 C1174 0.930 . S
H1166 C1176 0.930 . S
H1167 C1179 0.929 . S
H1168 C1182 0.930 . S
H1169 C1184 0.960 . S
H1170 C1184 0.960 . S
H1171 C1184 0.960 . S
C1172 H1164 0.929 . S
C1172 C1173 1.377 . S
C1172 C1174 1.384 . S
C1173 C1172 1.377 . S
C1173 C1179 1.390 . S
C1174 H1165 0.930 . S
C1174 C1172 1.384 . S
C1174 C1175 1.372 . S
C1175 C1174 1.372 . S
C1175 C1176 1.400 . S
C1175 C1180 1.490 . S
C1176 H1166 0.930 . S
C1176 C1175 1.400 . S
C1176 C1179 1.386 . S
H1177 C1193 0.930 . S
H1178 C1194 0.931 . S
C1179 H1167 0.929 . S
C1179 C1173 1.390 . S
C1179 C1176 1.386 . S
C1180 C1175 1.490 . S
C1180 C1182 1.395 . S
C1180 C1183 1.403 . S
H1181 C1187 0.930 . S
C1182 H1168 0.930 . S
C1182 C1180 1.395 . S
C1182 C1185 1.403 . S
C1183 C1180 1.403 . S
C1183 C1184 1.524 . S
C1183 C1187 1.400 . S
C1184 H1169 0.960 . S
C1184 H1170 0.960 . S
C1184 H1171 0.960 . S
C1184 C1183 1.524 . S
C1185 C1182 1.403 . S
C1185 C1186 1.392 . S
C1185 C1189 1.495 . S
C1186 C1185 1.392 . S
C1186 C1187 1.385 . S
C1186 C1188 1.478 . S
C1187 H1181 0.930 . S
C1187 C1183 1.400 . S
C1187 C1186 1.385 . S
C1188 C1186 1.478 . S
C1188 C1190 1.381 . S
C1188 C1194 1.383 . S
C1189 C1185 1.495 . S
C1189 H1195 0.959 . S
C1189 H1196 0.961 . S
C1189 H1197 0.960 . S
C1190 C1188 1.381 . S
C1190 C1191 1.394 . S
C1190 H1198 0.930 . S
C1191 C1190 1.394 . S
C1191 C1192 1.383 . S
C1191 H1199 0.929 . S
C1192 C1191 1.383 . S
C1192 C1193 1.377 . S
C1193 H1177 0.930 . S
C1193 C1192 1.377 . S
C1193 C1194 1.379 . S
C1194 H1178 0.931 . S
C1194 C1188 1.383 . S
C1194 C1193 1.379 . S
H1195 C1189 0.959 . S
H1196 C1189 0.961 . S
H1197 C1189 0.960 . S
H1198 C1190 0.930 . S
H1199 C1191 0.929 . S
H1200 C1208 0.929 . S
H1201 C1210 0.930 . S
H1202 C1212 0.930 . S
H1203 C1215 0.929 . S
H1204 C1218 0.930 . S
H1205 C1220 0.960 . S
H1206 C1220 0.960 . S
H1207 C1220 0.960 . S
C1208 H1200 0.929 . S
C1208 C1209 1.377 . S
C1208 C1210 1.384 . S
C1209 C1208 1.377 . S
C1209 C1215 1.390 . S
C1210 H1201 0.930 . S
C1210 C1208 1.384 . S
C1210 C1211 1.372 . S
C1211 C1210 1.372 . S
C1211 C1212 1.400 . S
C1211 C1216 1.490 . S
C1212 H1202 0.930 . S
C1212 C1211 1.400 . S
C1212 C1215 1.386 . S
H1213 C1229 0.930 . S
H1214 C1230 0.931 . S
C1215 H1203 0.929 . S
C1215 C1209 1.390 . S
C1215 C1212 1.386 . S
C1216 C1211 1.490 . S
C1216 C1218 1.395 . S
C1216 C1219 1.403 . S
H1217 C1223 0.930 . S
C1218 H1204 0.930 . S
C1218 C1216 1.395 . S
C1218 C1221 1.403 . S
C1219 C1216 1.403 . S
C1219 C1220 1.524 . S
C1219 C1223 1.400 . S
C1220 H1205 0.960 . S
C1220 H1206 0.960 . S
C1220 H1207 0.960 . S
C1220 C1219 1.524 . S
C1221 C1218 1.403 . S
C1221 C1222 1.392 . S
C1221 C1225 1.495 . S
C1222 C1221 1.392 . S
C1222 C1223 1.385 . S
C1222 C1224 1.478 . S
C1223 H1217 0.930 . S
C1223 C1219 1.400 . S
C1223 C1222 1.385 . S
C1224 C1222 1.478 . S
C1224 C1226 1.381 . S
C1224 C1230 1.383 . S
C1225 C1221 1.495 . S
C1225 H1231 0.959 . S
C1225 H1232 0.961 . S
C1225 H1233 0.960 . S
C1226 C1224 1.381 . S
C1226 C1227 1.394 . S
C1226 H1234 0.930 . S
C1227 C1226 1.394 . S
C1227 C1228 1.383 . S
C1227 H1235 0.929 . S
C1228 C1227 1.383 . S
C1228 C1229 1.377 . S
C1229 H1213 0.930 . S
C1229 C1228 1.377 . S
C1229 C1230 1.379 . S
C1230 H1214 0.931 . S
C1230 C1224 1.383 . S
C1230 C1229 1.379 . S
H1231 C1225 0.959 . S
H1232 C1225 0.961 . S
H1233 C1225 0.960 . S
H1234 C1226 0.930 . S
H1235 C1227 0.929 . S
H1236 C1244 0.929 . S
H1237 C1246 0.930 . S
H1238 C1248 0.930 . S
H1239 C1251 0.929 . S
H1240 C1254 0.930 . S
H1241 C1256 0.960 . S
H1242 C1256 0.960 . S
H1243 C1256 0.960 . S
C1244 H1236 0.929 . S
C1244 C1245 1.377 . S
C1244 C1246 1.384 . S
C1245 C1244 1.377 . S
C1245 C1251 1.390 . S
C1246 H1237 0.930 . S
C1246 C1244 1.384 . S
C1246 C1247 1.372 . S
C1247 C1246 1.372 . S
C1247 C1248 1.400 . S
C1247 C1252 1.490 . S
C1248 H1238 0.930 . S
C1248 C1247 1.400 . S
C1248 C1251 1.386 . S
H1249 C1265 0.930 . S
H1250 C1266 0.931 . S
C1251 H1239 0.929 . S
C1251 C1245 1.390 . S
C1251 C1248 1.386 . S
C1252 C1247 1.490 . S
C1252 C1254 1.395 . S
C1252 C1255 1.403 . S
H1253 C1259 0.930 . S
C1254 H1240 0.930 . S
C1254 C1252 1.395 . S
C1254 C1257 1.403 . S
C1255 C1252 1.403 . S
C1255 C1256 1.524 . S
C1255 C1259 1.400 . S
C1256 H1241 0.960 . S
C1256 H1242 0.960 . S
C1256 H1243 0.960 . S
C1256 C1255 1.524 . S
C1257 C1254 1.403 . S
C1257 C1258 1.392 . S
C1257 C1261 1.495 . S
C1258 C1257 1.392 . S
C1258 C1259 1.385 . S
C1258 C1260 1.478 . S
C1259 H1253 0.930 . S
C1259 C1255 1.400 . S
C1259 C1258 1.385 . S
C1260 C1258 1.478 . S
C1260 C1262 1.381 . S
C1260 C1266 1.383 . S
C1261 C1257 1.495 . S
C1261 H1267 0.959 . S
C1261 H1268 0.961 . S
C1261 H1269 0.960 . S
C1262 C1260 1.381 . S
C1262 C1263 1.394 . S
C1262 H1270 0.930 . S
C1263 C1262 1.394 . S
C1263 C1264 1.383 . S
C1263 H1271 0.929 . S
C1264 C1263 1.383 . S
C1264 C1265 1.377 . S
C1265 H1249 0.930 . S
C1265 C1264 1.377 . S
C1265 C1266 1.379 . S
C1266 H1250 0.931 . S
C1266 C1260 1.383 . S
C1266 C1265 1.379 . S
H1267 C1261 0.959 . S
H1268 C1261 0.961 . S
H1269 C1261 0.960 . S
H1270 C1262 0.930 . S
H1271 C1263 0.929 . S
H1272 C1280 0.929 . S
H1273 C1282 0.930 . S
H1274 C1284 0.930 . S
H1275 C1287 0.929 . S
H1276 C1290 0.930 . S
H1277 C1292 0.960 . S
H1278 C1292 0.960 . S
H1279 C1292 0.960 . S
C1280 H1272 0.929 . S
C1280 C1281 1.377 . S
C1280 C1282 1.384 . S
C1281 C1280 1.377 . S
C1281 C1287 1.390 . S
C1282 H1273 0.930 . S
C1282 C1280 1.384 . S
C1282 C1283 1.372 . S
C1283 C1282 1.372 . S
C1283 C1284 1.400 . S
C1283 C1288 1.490 . S
C1284 H1274 0.930 . S
C1284 C1283 1.400 . S
C1284 C1287 1.386 . S
H1285 C1301 0.930 . S
H1286 C1302 0.931 . S
C1287 H1275 0.929 . S
C1287 C1281 1.390 . S
C1287 C1284 1.386 . S
C1288 C1283 1.490 . S
C1288 C1290 1.395 . S
C1288 C1291 1.403 . S
H1289 C1295 0.930 . S
C1290 H1276 0.930 . S
C1290 C1288 1.395 . S
C1290 C1293 1.403 . S
C1291 C1288 1.403 . S
C1291 C1292 1.524 . S
C1291 C1295 1.400 . S
C1292 H1277 0.960 . S
C1292 H1278 0.960 . S
C1292 H1279 0.960 . S
C1292 C1291 1.524 . S
C1293 C1290 1.403 . S
C1293 C1294 1.392 . S
C1293 C1297 1.495 . S
C1294 C1293 1.392 . S
C1294 C1295 1.385 . S
C1294 C1296 1.478 . S
C1295 H1289 0.930 . S
C1295 C1291 1.400 . S
C1295 C1294 1.385 . S
C1296 C1294 1.478 . S
C1296 C1298 1.381 . S
C1296 C1302 1.383 . S
C1297 C1293 1.495 . S
C1297 H1303 0.959 . S
C1297 H1304 0.961 . S
C1297 H1305 0.960 . S
C1298 C1296 1.381 . S
C1298 C1299 1.394 . S
C1298 H1306 0.930 . S
C1299 C1298 1.394 . S
C1299 C1300 1.383 . S
C1299 H1307 0.929 . S
C1300 C1299 1.383 . S
C1300 C1301 1.377 . S
C1301 H1285 0.930 . S
C1301 C1300 1.377 . S
C1301 C1302 1.379 . S
C1302 H1286 0.931 . S
C1302 C1296 1.383 . S
C1302 C1301 1.379 . S
H1303 C1297 0.959 . S
H1304 C1297 0.961 . S
H1305 C1297 0.960 . S
H1306 C1298 0.930 . S
H1307 C1299 0.929 . S
H1308 C1316 0.929 . S
H1309 C1318 0.930 . S
H1310 C1320 0.930 . S
H1311 C1323 0.929 . S
H1312 C1326 0.930 . S
H1313 C1328 0.960 . S
H1314 C1328 0.960 . S
H1315 C1328 0.960 . S
C1316 H1308 0.929 . S
C1316 C1317 1.377 . S
C1316 C1318 1.384 . S
C1317 C1316 1.377 . S
C1317 C1323 1.390 . S
C1318 H1309 0.930 . S
C1318 C1316 1.384 . S
C1318 C1319 1.372 . S
C1319 C1318 1.372 . S
C1319 C1320 1.400 . S
C1319 C1324 1.490 . S
C1320 H1310 0.930 . S
C1320 C1319 1.400 . S
C1320 C1323 1.386 . S
H1321 C1337 0.930 . S
H1322 C1338 0.931 . S
C1323 H1311 0.929 . S
C1323 C1317 1.390 . S
C1323 C1320 1.386 . S
C1324 C1319 1.490 . S
C1324 C1326 1.395 . S
C1324 C1327 1.403 . S
H1325 C1331 0.930 . S
C1326 H1312 0.930 . S
C1326 C1324 1.395 . S
C1326 C1329 1.403 . S
C1327 C1324 1.403 . S
C1327 C1328 1.524 . S
C1327 C1331 1.400 . S
C1328 H1313 0.960 . S
C1328 H1314 0.960 . S
C1328 H1315 0.960 . S
C1328 C1327 1.524 . S
C1329 C1326 1.403 . S
C1329 C1330 1.392 . S
C1329 C1333 1.495 . S
C1330 C1329 1.392 . S
C1330 C1331 1.385 . S
C1330 C1332 1.478 . S
C1331 H1325 0.930 . S
C1331 C1327 1.400 . S
C1331 C1330 1.385 . S
C1332 C1330 1.478 . S
C1332 C1334 1.381 . S
C1332 C1338 1.383 . S
C1333 C1329 1.495 . S
C1333 H1339 0.959 . S
C1333 H1340 0.961 . S
C1333 H1341 0.960 . S
C1334 C1332 1.381 . S
C1334 C1335 1.394 . S
C1334 H1342 0.930 . S
C1335 C1334 1.394 . S
C1335 C1336 1.383 . S
C1335 H1343 0.929 . S
C1336 C1335 1.383 . S
C1336 C1337 1.377 . S
C1337 H1321 0.930 . S
C1337 C1336 1.377 . S
C1337 C1338 1.379 . S
C1338 H1322 0.931 . S
C1338 C1332 1.383 . S
C1338 C1337 1.379 . S
H1339 C1333 0.959 . S
H1340 C1333 0.961 . S
H1341 C1333 0.960 . S
H1342 C1334 0.930 . S
H1343 C1335 0.929 . S
H1344 C1352 0.929 . S
H1345 C1354 0.930 . S
H1346 C1356 0.930 . S
H1347 C1359 0.929 . S
H1348 C1362 0.930 . S
H1349 C1364 0.960 . S
H1350 C1364 0.960 . S
H1351 C1364 0.960 . S
C1352 H1344 0.929 . S
C1352 C1353 1.377 . S
C1352 C1354 1.384 . S
C1353 C1352 1.377 . S
C1353 C1359 1.390 . S
C1354 H1345 0.930 . S
C1354 C1352 1.384 . S
C1354 C1355 1.372 . S
C1355 C1354 1.372 . S
C1355 C1356 1.400 . S
C1355 C1360 1.490 . S
C1356 H1346 0.930 . S
C1356 C1355 1.400 . S
C1356 C1359 1.386 . S
H1357 C1373 0.930 . S
H1358 C1374 0.931 . S
C1359 H1347 0.929 . S
C1359 C1353 1.390 . S
C1359 C1356 1.386 . S
C1360 C1355 1.490 . S
C1360 C1362 1.395 . S
C1360 C1363 1.403 . S
H1361 C1367 0.930 . S
C1362 H1348 0.930 . S
C1362 C1360 1.395 . S
C1362 C1365 1.403 . S
C1363 C1360 1.403 . S
C1363 C1364 1.524 . S
C1363 C1367 1.400 . S
C1364 H1349 0.960 . S
C1364 H1350 0.960 . S
C1364 H1351 0.960 . S
C1364 C1363 1.524 . S
C1365 C1362 1.403 . S
C1365 C1366 1.392 . S
C1365 C1369 1.495 . S
C1366 C1365 1.392 . S
C1366 C1367 1.385 . S
C1366 C1368 1.478 . S
C1367 H1361 0.930 . S
C1367 C1363 1.400 . S
C1367 C1366 1.385 . S
C1368 C1366 1.478 . S
C1368 C1370 1.381 . S
C1368 C1374 1.383 . S
C1369 C1365 1.495 . S
C1369 H1375 0.959 . S
C1369 H1376 0.961 . S
C1369 H1377 0.960 . S
C1370 C1368 1.381 . S
C1370 C1371 1.394 . S
C1370 H1378 0.930 . S
C1371 C1370 1.394 . S
C1371 C1372 1.383 . S
C1371 H1379 0.929 . S
C1372 C1371 1.383 . S
C1372 C1373 1.377 . S
C1373 H1357 0.930 . S
C1373 C1372 1.377 . S
C1373 C1374 1.379 . S
C1374 H1358 0.931 . S
C1374 C1368 1.383 . S
C1374 C1373 1.379 . S
H1375 C1369 0.959 . S
H1376 C1369 0.961 . S
H1377 C1369 0.960 . S
H1378 C1370 0.930 . S
H1379 C1371 0.929 . S
H1380 C1388 0.929 . S
H1381 C1390 0.930 . S
H1382 C1392 0.930 . S
H1383 C1395 0.929 . S
H1384 C1398 0.930 . S
H1385 C1400 0.960 . S
H1386 C1400 0.960 . S
H1387 C1400 0.960 . S
C1388 H1380 0.929 . S
C1388 C1389 1.377 . S
C1388 C1390 1.384 . S
C1389 C1388 1.377 . S
C1389 C1395 1.390 . S
C1390 H1381 0.930 . S
C1390 C1388 1.384 . S
C1390 C1391 1.372 . S
C1391 C1390 1.372 . S
C1391 C1392 1.400 . S
C1391 C1396 1.490 . S
C1392 H1382 0.930 . S
C1392 C1391 1.400 . S
C1392 C1395 1.386 . S
H1393 C1409 0.930 . S
H1394 C1410 0.931 . S
C1395 H1383 0.929 . S
C1395 C1389 1.390 . S
C1395 C1392 1.386 . S
C1396 C1391 1.490 . S
C1396 C1398 1.395 . S
C1396 C1399 1.403 . S
H1397 C1403 0.930 . S
C1398 H1384 0.930 . S
C1398 C1396 1.395 . S
C1398 C1401 1.403 . S
C1399 C1396 1.403 . S
C1399 C1400 1.524 . S
C1399 C1403 1.400 . S
C1400 H1385 0.960 . S
C1400 H1386 0.960 . S
C1400 H1387 0.960 . S
C1400 C1399 1.524 . S
C1401 C1398 1.403 . S
C1401 C1402 1.392 . S
C1401 C1405 1.495 . S
C1402 C1401 1.392 . S
C1402 C1403 1.385 . S
C1402 C1404 1.478 . S
C1403 H1397 0.930 . S
C1403 C1399 1.400 . S
C1403 C1402 1.385 . S
C1404 C1402 1.478 . S
C1404 C1406 1.381 . S
C1404 C1410 1.383 . S
C1405 C1401 1.495 . S
C1405 H1411 0.959 . S
C1405 H1412 0.961 . S
C1405 H1413 0.960 . S
C1406 C1404 1.381 . S
C1406 C1407 1.394 . S
C1406 H1414 0.930 . S
C1407 C1406 1.394 . S
C1407 C1408 1.383 . S
C1407 H1415 0.929 . S
C1408 C1407 1.383 . S
C1408 C1409 1.377 . S
C1409 H1393 0.930 . S
C1409 C1408 1.377 . S
C1409 C1410 1.379 . S
C1410 H1394 0.931 . S
C1410 C1404 1.383 . S
C1410 C1409 1.379 . S
H1411 C1405 0.959 . S
H1412 C1405 0.961 . S
H1413 C1405 0.960 . S
H1414 C1406 0.930 . S
H1415 C1407 0.929 . S
H1416 C1424 0.929 . S
H1417 C1426 0.930 . S
H1418 C1428 0.930 . S
H1419 C1431 0.929 . S
H1420 C1434 0.930 . S
H1421 C1436 0.960 . S
H1422 C1436 0.960 . S
H1423 C1436 0.960 . S
C1424 H1416 0.929 . S
C1424 C1425 1.377 . S
C1424 C1426 1.384 . S
C1425 C1424 1.377 . S
C1425 C1431 1.390 . S
C1426 H1417 0.930 . S
C1426 C1424 1.384 . S
C1426 C1427 1.372 . S
C1427 C1426 1.372 . S
C1427 C1428 1.400 . S
C1427 C1432 1.490 . S
C1428 H1418 0.930 . S
C1428 C1427 1.400 . S
C1428 C1431 1.386 . S
H1429 C1445 0.930 . S
H1430 C1446 0.931 . S
C1431 H1419 0.929 . S
C1431 C1425 1.390 . S
C1431 C1428 1.386 . S
C1432 C1427 1.490 . S
C1432 C1434 1.395 . S
C1432 C1435 1.403 . S
H1433 C1439 0.930 . S
C1434 H1420 0.930 . S
C1434 C1432 1.395 . S
C1434 C1437 1.403 . S
C1435 C1432 1.403 . S
C1435 C1436 1.524 . S
C1435 C1439 1.400 . S
C1436 H1421 0.960 . S
C1436 H1422 0.960 . S
C1436 H1423 0.960 . S
C1436 C1435 1.524 . S
C1437 C1434 1.403 . S
C1437 C1438 1.392 . S
C1437 C1441 1.495 . S
C1438 C1437 1.392 . S
C1438 C1439 1.385 . S
C1438 C1440 1.478 . S
C1439 H1433 0.930 . S
C1439 C1435 1.400 . S
C1439 C1438 1.385 . S
C1440 C1438 1.478 . S
C1440 C1442 1.381 . S
C1440 C1446 1.383 . S
C1441 C1437 1.495 . S
C1441 H1447 0.959 . S
C1441 H1448 0.961 . S
C1441 H1449 0.960 . S
C1442 C1440 1.381 . S
C1442 C1443 1.394 . S
C1442 H1450 0.930 . S
C1443 C1442 1.394 . S
C1443 C1444 1.383 . S
C1443 H1451 0.929 . S
C1444 C1443 1.383 . S
C1444 C1445 1.377 . S
C1445 H1429 0.930 . S
C1445 C1444 1.377 . S
C1445 C1446 1.379 . S
C1446 H1430 0.931 . S
C1446 C1440 1.383 . S
C1446 C1445 1.379 . S
H1447 C1441 0.959 . S
H1448 C1441 0.961 . S
H1449 C1441 0.960 . S
H1450 C1442 0.930 . S
H1451 C1443 0.929 . S
H1452 C1460 0.929 . S
H1453 C1462 0.930 . S
H1454 C1464 0.930 . S
H1455 C1467 0.929 . S
H1456 C1470 0.930 . S
H1457 C1472 0.960 . S
H1458 C1472 0.960 . S
H1459 C1472 0.960 . S
C1460 H1452 0.929 . S
C1460 C1461 1.377 . S
C1460 C1462 1.384 . S
C1461 C1460 1.377 . S
C1461 C1467 1.390 . S
C1462 H1453 0.930 . S
C1462 C1460 1.384 . S
C1462 C1463 1.372 . S
C1463 C1462 1.372 . S
C1463 C1464 1.400 . S
C1463 C1468 1.490 . S
C1464 H1454 0.930 . S
C1464 C1463 1.400 . S
C1464 C1467 1.386 . S
H1465 C1481 0.930 . S
H1466 C1482 0.931 . S
C1467 H1455 0.929 . S
C1467 C1461 1.390 . S
C1467 C1464 1.386 . S
C1468 C1463 1.490 . S
C1468 C1470 1.395 . S
C1468 C1471 1.403 . S
H1469 C1475 0.930 . S
C1470 H1456 0.930 . S
C1470 C1468 1.395 . S
C1470 C1473 1.403 . S
C1471 C1468 1.403 . S
C1471 C1472 1.524 . S
C1471 C1475 1.400 . S
C1472 H1457 0.960 . S
C1472 H1458 0.960 . S
C1472 H1459 0.960 . S
C1472 C1471 1.524 . S
C1473 C1470 1.403 . S
C1473 C1474 1.392 . S
C1473 C1477 1.495 . S
C1474 C1473 1.392 . S
C1474 C1475 1.385 . S
C1474 C1476 1.478 . S
C1475 H1469 0.930 . S
C1475 C1471 1.400 . S
C1475 C1474 1.385 . S
C1476 C1474 1.478 . S
C1476 C1478 1.381 . S
C1476 C1482 1.383 . S
C1477 C1473 1.495 . S
C1477 H1483 0.959 . S
C1477 H1484 0.961 . S
C1477 H1485 0.960 . S
C1478 C1476 1.381 . S
C1478 C1479 1.394 . S
C1478 H1486 0.930 . S
C1479 C1478 1.394 . S
C1479 C1480 1.383 . S
C1479 H1487 0.929 . S
C1480 C1479 1.383 . S
C1480 C1481 1.377 . S
C1481 H1465 0.930 . S
C1481 C1480 1.377 . S
C1481 C1482 1.379 . S
C1482 H1466 0.931 . S
C1482 C1476 1.383 . S
C1482 C1481 1.379 . S
H1483 C1477 0.959 . S
H1484 C1477 0.961 . S
H1485 C1477 0.960 . S
H1486 C1478 0.930 . S
H1487 C1479 0.929 . S
C417 C2 1.954 . S
C436 C104 1.954 . S
C453 C138 1.957 . S
C472 C36 1.980 . S
C489 C172 1.964 . S
C508 C70 1.981 . S
C525 C308 2.019 . S
C544 C209 2.133 . S
C561 C345 2.131 . S
C580 C240 2.030 . S
C597 C277 2.133 . S
C616 C376 2.037 . S
C633 C33 0.625 . S
C652 C190 0.619 . S
C669 C20 0.331 . S
C688 C67 0.349 . S
C705 C101 0.614 . S
C724 C54 0.589 . S
C741 C88 0.336 . S
C760 C135 0.319 . S
C777 C122 0.610 . S
C796 C169 0.655 . S
C813 C156 0.335 . S
C832 C203 0.320 . S
C849 C258 0.197 . S
C868 C237 0.190 . S
C885 C281 0.555 . S
C904 C271 0.437 . S
C921 C326 0.199 . S
C940 C305 0.178 . S
C957 C339 0.386 . S
C976 C349 0.498 . S
C993 C373 0.267 . S
C1012 C394 0.280 . S
C1029 C407 0.395 . S
C1048 C213 0.531 . S
C1065 C292 1.960 . S
C1084 C5 1.947 . S
C1101 C39 1.442 . S
C1120 C311 1.418 . S
C1137 C73 1.938 . S
C1156 C360 1.962 . S
C1173 C107 1.436 . S
C1192 C379 1.440 . S
C1209 C224 1.959 . S
C1228 C141 1.938 . S
C1245 C175 1.435 . S
C1264 C243 1.450 . S
C1281 C383 0.870 . S
C1300 C111 0.920 . S
C1317 C206 2.427 . S
C1336 C145 2.332 . S
C1353 C247 0.883 . S
C1372 C179 0.865 . S
C1389 C9 2.315 . S
C1408 C274 2.422 . S
C1425 C43 0.878 . S
C1444 C315 0.890 . S
C1461 C77 2.313 . S
C1480 C342 2.427 . S
