# Generated by pormake.
# Topology lcy-a, (4)-cn, num edge types: 1
# Building blocks:
#     Node 0, Type 0, BuildingBlock: TATPOV_clean_sbu_0, # of connection points: 4
#     Node 1, Type 0, BuildingBlock: TATPOV_clean_sbu_0, # of connection points: 4
#     Node 2, Type 0, BuildingBlock: TATPOV_clean_sbu_0, # of connection points: 4
#     Node 3, Type 0, BuildingBlock: TATPOV_clean_sbu_0, # of connection points: 4
#     Node 4, Type 0, BuildingBlock: TATPOV_clean_sbu_0, # of connection points: 4
#     Node 5, Type 0, BuildingBlock: TATPOV_clean_sbu_0, # of connection points: 4
#     Node 6, Type 0, BuildingBlock: TATPOV_clean_sbu_0, # of connection points: 4
#     Node 7, Type 0, BuildingBlock: TATPOV_clean_sbu_0, # of connection points: 4
#     Node 8, Type 0, BuildingBlock: TATPOV_clean_sbu_0, # of connection points: 4
#     Node 9, Type 0, BuildingBlock: TATPOV_clean_sbu_0, # of connection points: 4
#     Node 10, Type 0, BuildingBlock: TATPOV_clean_sbu_0, # of connection points: 4
#     Node 11, Type 0, BuildingBlock: TATPOV_clean_sbu_0, # of connection points: 4
#     Node 12, Type 0, BuildingBlock: TATPOV_clean_sbu_0, # of connection points: 4
#     Node 13, Type 0, BuildingBlock: TATPOV_clean_sbu_0, # of connection points: 4
#     Node 14, Type 0, BuildingBlock: TATPOV_clean_sbu_0, # of connection points: 4
#     Node 15, Type 0, BuildingBlock: TATPOV_clean_sbu_0, # of connection points: 4
#     Node 16, Type 0, BuildingBlock: TATPOV_clean_sbu_0, # of connection points: 4
#     Node 17, Type 0, BuildingBlock: TATPOV_clean_sbu_0, # of connection points: 4
#     Node 18, Type 0, BuildingBlock: TATPOV_clean_sbu_0, # of connection points: 4
#     Node 19, Type 0, BuildingBlock: TATPOV_clean_sbu_0, # of connection points: 4
#     Node 20, Type 0, BuildingBlock: TATPOV_clean_sbu_0, # of connection points: 4
#     Node 21, Type 0, BuildingBlock: TATPOV_clean_sbu_0, # of connection points: 4
#     Node 22, Type 0, BuildingBlock: TATPOV_clean_sbu_0, # of connection points: 4
#     Node 23, Type 0, BuildingBlock: TATPOV_clean_sbu_0, # of connection points: 4
#     Edge 24, Type (0, 0), BuildingBlock: OJICUG_clean_linker_0, # of connection points: 2
#     Edge 25, Type (0, 0), BuildingBlock: OJICUG_clean_linker_0, # of connection points: 2
#     Edge 26, Type (0, 0), BuildingBlock: OJICUG_clean_linker_0, # of connection points: 2
#     Edge 27, Type (0, 0), BuildingBlock: OJICUG_clean_linker_0, # of connection points: 2
#     Edge 28, Type (0, 0), BuildingBlock: OJICUG_clean_linker_0, # of connection points: 2
#     Edge 29, Type (0, 0), BuildingBlock: OJICUG_clean_linker_0, # of connection points: 2
#     Edge 30, Type (0, 0), BuildingBlock: OJICUG_clean_linker_0, # of connection points: 2
#     Edge 31, Type (0, 0), BuildingBlock: OJICUG_clean_linker_0, # of connection points: 2
#     Edge 32, Type (0, 0), BuildingBlock: OJICUG_clean_linker_0, # of connection points: 2
#     Edge 33, Type (0, 0), BuildingBlock: OJICUG_clean_linker_0, # of connection points: 2
#     Edge 34, Type (0, 0), BuildingBlock: OJICUG_clean_linker_0, # of connection points: 2
#     Edge 35, Type (0, 0), BuildingBlock: OJICUG_clean_linker_0, # of connection points: 2
#     Edge 36, Type (0, 0), BuildingBlock: OJICUG_clean_linker_0, # of connection points: 2
#     Edge 37, Type (0, 0), BuildingBlock: OJICUG_clean_linker_0, # of connection points: 2
#     Edge 38, Type (0, 0), BuildingBlock: OJICUG_clean_linker_0, # of connection points: 2
#     Edge 39, Type (0, 0), BuildingBlock: OJICUG_clean_linker_0, # of connection points: 2
#     Edge 40, Type (0, 0), BuildingBlock: OJICUG_clean_linker_0, # of connection points: 2
#     Edge 41, Type (0, 0), BuildingBlock: OJICUG_clean_linker_0, # of connection points: 2
#     Edge 42, Type (0, 0), BuildingBlock: OJICUG_clean_linker_0, # of connection points: 2
#     Edge 43, Type (0, 0), BuildingBlock: OJICUG_clean_linker_0, # of connection points: 2
#     Edge 44, Type (0, 0), BuildingBlock: OJICUG_clean_linker_0, # of connection points: 2
#     Edge 45, Type (0, 0), BuildingBlock: OJICUG_clean_linker_0, # of connection points: 2
#     Edge 46, Type (0, 0), BuildingBlock: OJICUG_clean_linker_0, # of connection points: 2
#     Edge 47, Type (0, 0), BuildingBlock: OJICUG_clean_linker_0, # of connection points: 2
#     Edge 48, Type (0, 0), BuildingBlock: OJICUG_clean_linker_0, # of connection points: 2
#     Edge 49, Type (0, 0), BuildingBlock: OJICUG_clean_linker_0, # of connection points: 2
#     Edge 50, Type (0, 0), BuildingBlock: OJICUG_clean_linker_0, # of connection points: 2
#     Edge 51, Type (0, 0), BuildingBlock: OJICUG_clean_linker_0, # of connection points: 2
#     Edge 52, Type (0, 0), BuildingBlock: OJICUG_clean_linker_0, # of connection points: 2
#     Edge 53, Type (0, 0), BuildingBlock: OJICUG_clean_linker_0, # of connection points: 2
#     Edge 54, Type (0, 0), BuildingBlock: OJICUG_clean_linker_0, # of connection points: 2
#     Edge 55, Type (0, 0), BuildingBlock: OJICUG_clean_linker_0, # of connection points: 2
#     Edge 56, Type (0, 0), BuildingBlock: OJICUG_clean_linker_0, # of connection points: 2
#     Edge 57, Type (0, 0), BuildingBlock: OJICUG_clean_linker_0, # of connection points: 2
#     Edge 58, Type (0, 0), BuildingBlock: OJICUG_clean_linker_0, # of connection points: 2
#     Edge 59, Type (0, 0), BuildingBlock: OJICUG_clean_linker_0, # of connection points: 2
#     Edge 60, Type (0, 0), BuildingBlock: OJICUG_clean_linker_0, # of connection points: 2
#     Edge 61, Type (0, 0), BuildingBlock: OJICUG_clean_linker_0, # of connection points: 2
#     Edge 62, Type (0, 0), BuildingBlock: OJICUG_clean_linker_0, # of connection points: 2
#     Edge 63, Type (0, 0), BuildingBlock: OJICUG_clean_linker_0, # of connection points: 2
#     Edge 64, Type (0, 0), BuildingBlock: OJICUG_clean_linker_0, # of connection points: 2
#     Edge 65, Type (0, 0), BuildingBlock: OJICUG_clean_linker_0, # of connection points: 2
#     Edge 66, Type (0, 0), BuildingBlock: OJICUG_clean_linker_0, # of connection points: 2
#     Edge 67, Type (0, 0), BuildingBlock: OJICUG_clean_linker_0, # of connection points: 2
#     Edge 68, Type (0, 0), BuildingBlock: OJICUG_clean_linker_0, # of connection points: 2
#     Edge 69, Type (0, 0), BuildingBlock: OJICUG_clean_linker_0, # of connection points: 2
#     Edge 70, Type (0, 0), BuildingBlock: OJICUG_clean_linker_0, # of connection points: 2
#     Edge 71, Type (0, 0), BuildingBlock: OJICUG_clean_linker_0, # of connection points: 2
# Relax obj value: 0.362
# Max RMSD: 0.194
# Mean RMSD: 0.194
data_MOF--net-lcy-a--node1-TATPOV_clean_sbu_0--edge1-OJICUG_clean_linker_0
_symmetry_space_group_name_H-M    P1
_symmetry_Int_Tables_number       1
_symmetry_cell_setting            triclinic
loop_
_symmetry_equiv_pos_as_xyz
'x, y, z'
_cell_length_a     41.908295
_cell_length_b     41.754908
_cell_length_c     41.709086
_cell_angle_alpha  89.88882
_cell_angle_beta   90.084378
_cell_angle_gamma 90.094649
loop_
_atom_site_label
_atom_site_type_symbol
_atom_site_fract_x
_atom_site_fract_y
_atom_site_fract_z
_atom_type_partial_charge
Zn0 Zn 0.3191 0.25824 0.41068 0.0
Zn1 Zn 0.26354 0.2657 0.4083 0.0
O2 O 0.27805 0.21854 0.39739 0.0
O3 O 0.32706 0.21106 0.41343 0.0
O4 O 0.22002 0.25776 0.42771 0.0
O5 O 0.33393 0.28708 0.44495 0.0
O6 O 0.28451 0.30193 0.43705 0.0
C7 C 0.302 0.19993 0.40088 0.0
C8 C 0.28994 0.28955 0.35134 0.0
O9 O 0.26264 0.28686 0.36459 0.0
O10 O 0.31461 0.27912 0.3658 0.0
C11 C 0.19881 0.24145 0.41323 0.0
O12 O 0.20364 0.23297 0.38332 0.0
C13 C 0.31195 0.30721 0.44938 0.0
Zn14 Zn 0.97725 0.00945 0.6894 0.0
Zn15 Zn 0.98256 0.95697 0.67152 0.0
O16 O 0.02292 0.98645 0.66329 0.0
O17 O 0.02126 0.02766 0.69541 0.0
O18 O -0.00186 0.91319 0.68578 0.0
O19 O 0.94375 0.00941 0.72378 0.0
O20 O 0.94006 0.96458 0.69703 0.0
C21 C 0.03567 0.01226 0.67374 0.0
C22 C 0.95694 0.98752 0.621 0.0
O23 O 0.96419 0.95861 0.62756 0.0
O24 O 0.9608 0.00959 0.64178 0.0
C25 C 0.02665 0.90349 0.68202 0.0
O26 O 0.04662 0.92112 0.66532 0.0
C27 C 0.92792 0.98465 0.71654 0.0
Zn28 Zn 0.24659 0.65484 0.85949 0.0
Zn29 Zn 0.29498 0.67683 0.89031 0.0
O30 O 0.27021 0.71669 0.87278 0.0
O31 O 0.22932 0.69713 0.84624 0.0
O32 O 0.33205 0.69936 0.91112 0.0
O33 O 0.23282 0.63223 0.90037 0.0
O34 O 0.27151 0.65525 0.92783 0.0
C35 C 0.2453 0.72096 0.85575 0.0
C36 C 0.30256 0.62805 0.83518 0.0
O37 O 0.31488 0.64252 0.85917 0.0
O38 O 0.27335 0.63162 0.82868 0.0
C39 C 0.34633 0.72034 0.89429 0.0
O40 O 0.33867 0.72324 0.86386 0.0
C41 C 0.2472 0.63696 0.92669 0.0
Zn42 Zn 0.51975 0.91811 0.16378 0.0
Zn43 Zn 0.52965 0.97512 0.16515 0.0
O44 O 0.48357 0.9635 0.14875 0.0
O45 O 0.47182 0.91528 0.16473 0.0
O46 O 0.52235 0.02033 0.1802 0.0
O47 O 0.54494 0.90294 0.20071 0.0
O48 O 0.55793 0.95378 0.20137 0.0
C49 C 0.46336 0.94069 0.1508 0.0
C50 C 0.55841 0.94711 0.10988 0.0
O51 O 0.55684 0.97352 0.12507 0.0
O52 O 0.54404 0.92251 0.1208 0.0
C53 C 0.51005 0.0409 0.16142 0.0
O54 O 0.50657 0.0337 0.13096 0.0
C55 C 0.5617 0.92533 0.2121 0.0
Zn56 Zn 0.69361 0.2185 0.64181 0.0
Zn57 Zn 0.66585 0.22804 0.59192 0.0
O58 O 0.68886 0.26997 0.60929 0.0
O59 O 0.70634 0.26106 0.65789 0.0
O60 O 0.63343 0.24457 0.55967 0.0
O61 O 0.72427 0.19381 0.61119 0.0
O62 O 0.69921 0.20561 0.56625 0.0
C63 C 0.70301 0.28 0.63456 0.0
C64 C 0.64574 0.17885 0.64638 0.0
O65 O 0.64587 0.18865 0.61728 0.0
O66 O 0.66149 0.19439 0.6669 0.0
C67 C 0.64117 0.26871 0.54261 0.0
O68 O 0.66966 0.28138 0.54616 0.0
C69 C 0.72204 0.19181 0.58078 0.0
Zn70 Zn 0.98583 0.52399 0.80715 0.0
Zn71 Zn 0.97942 0.46614 0.82361 0.0
O72 O 0.9376 0.49216 0.82993 0.0
O73 O 0.94005 0.53908 0.80675 0.0
O74 O 0.96459 0.42062 0.81584 0.0
O75 O 0.01283 0.51884 0.76738 0.0
O76 O 0.01371 0.47079 0.7883 0.0
C77 C 0.92439 0.51878 0.8229 0.0
C78 C 0.01412 0.50102 0.87099 0.0
O79 O 0.0041 0.47278 0.86488 0.0
O80 O 0.00893 0.52372 0.8512 0.0
C81 C 0.93612 0.41104 0.82045 0.0
O82 O 0.91645 0.42919 0.83678 0.0
C83 C 0.0245 0.49093 0.76806 0.0
Zn84 Zn 0.79411 0.8735 0.12553 0.0
Zn85 Zn 0.80555 0.81518 0.11207 0.0
O86 O 0.76021 0.80554 0.12585 0.0
O87 O 0.75082 0.85534 0.14027 0.0
O88 O 0.82422 0.77391 0.0955 0.0
O89 O 0.79883 0.89299 0.08198 0.0
O90 O 0.80505 0.84227 0.07037 0.0
C91 C 0.74184 0.82631 0.1383 0.0
C92 C 0.83497 0.85186 0.17086 0.0
O93 O 0.82864 0.82665 0.15468 0.0
O94 O 0.82739 0.87887 0.15944 0.0
C95 C 0.81492 0.74556 0.10164 0.0
O96 O 0.79225 0.74087 0.12286 0.0
C97 C 0.80243 0.87131 0.06123 0.0
Zn98 Zn 0.36937 0.54448 0.3144 0.0
Zn99 Zn 0.42554 0.55597 0.30256 0.0
O100 O 0.4415 0.51499 0.32325 0.0
O101 O 0.39148 0.50616 0.33708 0.0
O102 O 0.46174 0.58345 0.28559 0.0
O103 O 0.35041 0.53854 0.27113 0.0
O104 O 0.40154 0.54163 0.26097 0.0
C105 C 0.42079 0.49812 0.33803 0.0
C106 C 0.38161 0.58832 0.35595 0.0
O107 O 0.40781 0.58024 0.34257 0.0
O108 O 0.35567 0.58045 0.34262 0.0
C109 C 0.48865 0.58847 0.29878 0.0
O110 O 0.49537 0.57412 0.32602 0.0
C111 C 0.37311 0.53605 0.25144 0.0
Zn112 Zn 0.3285 0.19276 0.25994 0.0
Zn113 Zn 0.38201 0.17016 0.24946 0.0
O114 O 0.36605 0.19326 0.20721 0.0
O115 O 0.31915 0.21346 0.21846 0.0
O116 O 0.41673 0.13955 0.23519 0.0
O117 O 0.3546 0.2155 0.29569 0.0
O118 O 0.40271 0.20299 0.27854 0.0
C119 C 0.34145 0.20921 0.19864 0.0
C120 C 0.3251 0.14032 0.28974 0.0
O121 O 0.35456 0.14522 0.28351 0.0
O122 O 0.30472 0.15263 0.27117 0.0
C123 C 0.43275 0.14425 0.20969 0.0
O124 O 0.42718 0.16998 0.19241 0.0
C125 C 0.38482 0.21732 0.29855 0.0
Zn126 Zn 0.00682 0.12484 0.55372 0.0
Zn127 Zn 0.0582 0.14845 0.5288 0.0
O128 O 0.03261 0.13089 0.48927 0.0
O129 O 0.98935 0.11111 0.51167 0.0
O130 O 0.09732 0.16835 0.50758 0.0
O131 O -0.00475 0.16689 0.57342 0.0
O132 O 0.03679 0.18843 0.54926 0.0
C133 C 0.00581 0.11659 0.48692 0.0
C134 C 0.05975 0.09404 0.58023 0.0
O135 O 0.0751 0.11406 0.56271 0.0
O136 O 0.02967 0.09339 0.57982 0.0
C137 C 0.09311 0.1837 0.48146 0.0
O138 O 0.06421 0.18574 0.46943 0.0
C139 C 0.01226 0.1911 0.56708 0.0
Zn140 Zn 0.10279 0.75366 0.87322 0.0
Zn141 Zn 0.08224 0.76443 0.82022 0.0
O142 O 0.09918 0.72466 0.80014 0.0
O143 O 0.12092 0.71471 0.84734 0.0
O144 O 0.06116 0.79217 0.78629 0.0
O145 O 0.06437 0.74718 0.89996 0.0
O146 O 0.04622 0.74634 0.85062 0.0
C147 C 0.11666 0.70718 0.818 0.0
C148 C 0.14314 0.79477 0.85464 0.0
O149 O 0.12598 0.78611 0.83085 0.0
O150 O 0.13233 0.79017 0.88251 0.0
C151 C 0.07719 0.80241 0.76248 0.0
O152 O 0.10717 0.79371 0.75965 0.0
C153 C 0.04198 0.7414 0.88059 0.0
Zn154 Zn 0.48026 0.90639 0.01706 0.0
Zn155 Zn 0.4557 0.85391 0.00312 0.0
O156 O 0.48597 0.86744 0.96502 0.0
O157 O 0.50864 0.91243 0.97983 0.0
O158 O 0.42802 0.81907 0.98417 0.0
O159 O 0.49303 0.88034 0.05747 0.0
O160 O 0.4811 0.83256 0.03865 0.0
C161 C 0.50503 0.89062 0.95925 0.0
C162 C 0.4223 0.91401 0.03398 0.0
O163 O 0.42581 0.88387 0.03007 0.0
O164 O 0.44014 0.93243 0.01802 0.0
C165 C 0.42095 0.8201 0.95453 0.0
O166 O 0.43038 0.84475 0.93735 0.0
C167 C 0.49212 0.85006 0.06105 0.0
Zn168 Zn 0.86315 0.28198 0.60835 0.0
Zn169 Zn 0.87815 0.29615 0.66445 0.0
O170 O 0.86164 0.25316 0.67908 0.0
O171 O 0.84919 0.23943 0.62962 0.0
O172 O 0.89603 0.31853 0.70346 0.0
O173 O 0.90505 0.28411 0.58616 0.0
O174 O 0.91886 0.28721 0.63673 0.0
C175 C 0.85029 0.23286 0.6594 0.0
C176 C 0.82036 0.32638 0.62619 0.0
O177 O 0.83682 0.32126 0.65152 0.0
O178 O 0.82982 0.31479 0.59993 0.0
C179 C 0.88082 0.3234 0.72935 0.0
O180 O 0.85112 0.31357 0.73172 0.0
C181 C 0.92657 0.28354 0.60734 0.0
Zn182 Zn 0.95316 0.5791 0.95488 0.0
Zn183 Zn 0.91296 0.61683 0.98003 0.0
O184 O 0.93576 0.59439 0.01889 0.0
O185 O 0.97198 0.56424 -0.00416 0.0
O186 O 0.88214 0.64661 0.0021 0.0
O187 O 0.97166 0.61653 0.92925 0.0
O188 O 0.94207 0.64931 0.95769 0.0
C189 C 0.95877 0.5745 0.02099 0.0
C190 C 0.89351 0.56481 0.93071 0.0
O191 O 0.88719 0.59121 0.94482 0.0
O192 O 0.92025 0.55166 0.93516 0.0
C193 C 0.86863 0.64083 0.02879 0.0
O194 O 0.87176 0.6124 0.04196 0.0
C195 C 0.96327 0.64478 0.9364 0.0
Zn196 Zn 0.56381 0.8119 0.23637 0.0
Zn197 Zn 0.572 0.7568 0.2261 0.0
O198 O 0.58174 0.77025 0.274 0.0
O199 O 0.56228 0.81768 0.28392 0.0
O200 O 0.55726 0.71059 0.23032 0.0
O201 O 0.52747 0.8243 0.20894 0.0
O202 O 0.54189 0.77737 0.19083 0.0
C203 C 0.57678 0.79308 0.29376 0.0
C204 C 0.62461 0.79057 0.20241 0.0
O205 O 0.61485 0.76171 0.20479 0.0
O206 O 0.60782 0.8132 0.21384 0.0
C207 C 0.56766 0.69251 0.25262 0.0
O208 O 0.59138 0.70264 0.27058 0.0
C209 C 0.52636 0.80342 0.1871 0.0
Zn210 Zn 0.42515 0.33036 0.45442 0.0
Zn211 Zn 0.48066 0.33187 0.4418 0.0
O212 O 0.47014 0.34811 0.48835 0.0
O213 O 0.4235 0.33009 0.50263 0.0
O214 O 0.52506 0.31479 0.44883 0.0
O215 O 0.40932 0.29326 0.42984 0.0
O216 O 0.45858 0.29675 0.41282 0.0
C217 C 0.44856 0.34524 0.50973 0.0
C218 C 0.45091 0.38606 0.41466 0.0
O219 O 0.47813 0.3724 0.41506 0.0
O220 O 0.42762 0.37343 0.42971 0.0
C221 C 0.54559 0.33074 0.46459 0.0
O222 O 0.53974 0.3609 0.4713 0.0
C223 C 0.43077 0.28435 0.41065 0.0
Zn224 Zn 0.35642 0.36908 0.17484 0.0
Zn225 Zn 0.29824 0.37795 0.16607 0.0
O226 O 0.28893 0.36318 0.21156 0.0
O227 O 0.33994 0.35245 0.21846 0.0
O228 O 0.25696 0.39101 0.14432 0.0
O229 O 0.37371 0.41339 0.17132 0.0
O230 O 0.32219 0.42169 0.16904 0.0
C231 C 0.31142 0.35209 0.22892 0.0
C232 C 0.33974 0.32198 0.13619 0.0
O233 O 0.31372 0.33584 0.14406 0.0
O234 O 0.36585 0.33614 0.14165 0.0
C235 C 0.25827 0.39595 0.11424 0.0
O236 O 0.28499 0.38954 0.09912 0.0
C237 C 0.35057 0.43271 0.17074 0.0
Zn238 Zn 0.75874 0.05193 0.67983 0.0
Zn239 Zn 0.75214 0.07128 0.73731 0.0
O240 O 0.70957 0.0756 0.71188 0.0
O241 O 0.71288 0.05295 0.66472 0.0
O242 O 0.73901 0.0685 0.78409 0.0
O243 O 0.78457 0.0118 0.68776 0.0
O244 O 0.78596 0.03527 0.73461 0.0
C245 C 0.69673 0.06844 0.68505 0.0
C246 C 0.78816 0.11572 0.69894 0.0
O247 O 0.77681 0.11176 0.72704 0.0
O248 O 0.78354 0.09457 0.67748 0.0
C249 C 0.71117 0.07496 0.79437 0.0
O250 O 0.69056 0.08852 0.7749 0.0
C251 C 0.79645 0.0139 0.71559 0.0
Zn252 Zn 0.10577 0.58336 0.03541 0.0
Zn253 Zn 0.12267 0.52782 0.04212 0.0
O254 O 0.10174 0.51335 0.00113 0.0
O255 O 0.08386 0.56267 -0.00451 0.0
O256 O 0.14457 0.49027 0.06383 0.0
O257 O 0.14615 0.60749 0.02948 0.0
O258 O 0.16053 0.55714 0.02686 0.0
C259 C 0.08529 0.53382 0.98563 0.0
C260 C 0.06778 0.56379 0.08023 0.0
O261 O 0.08234 0.5392 0.06942 0.0
O262 O 0.07935 0.5911 0.07433 0.0
C263 C 0.16572 0.4749 0.04837 0.0
O264 O 0.17096 0.48255 0.01826 0.0
C265 C 0.16719 0.58682 0.02341 0.0
Zn266 Zn 0.71476 0.82612 0.30193 0.0
Zn267 Zn 0.72364 0.87913 0.32649 0.0
O268 O 0.76531 0.86595 0.30132 0.0
O269 O 0.75578 0.81907 0.2798 0.0
O270 O 0.73908 0.91351 0.35703 0.0
O271 O 0.67764 0.85161 0.28082 0.0
O272 O 0.693 0.90002 0.2952 0.0
C273 C 0.77453 0.84229 0.28429 0.0
C274 C 0.68653 0.81955 0.35494 0.0
O275 O 0.69143 0.84956 0.35136 0.0
O276 O 0.70575 0.80058 0.34161 0.0
C277 C 0.76445 0.90772 0.37278 0.0
O278 O 0.77783 0.87944 0.36985 0.0
C279 C 0.67357 0.88183 0.28033 0.0
Zn280 Zn 0.40895 0.47987 0.49721 0.0
Zn281 Zn 0.35767 0.49048 0.5246 0.0
O282 O 0.36689 0.53017 0.49455 0.0
O283 O 0.41139 0.51823 0.4697 0.0
O284 O 0.32476 0.50626 0.556 0.0
O285 O 0.38416 0.43883 0.48423 0.0
O286 O 0.33644 0.45481 0.49931 0.0
C287 C 0.3887 0.53745 0.47443 0.0
C288 C 0.42085 0.46089 0.55376 0.0
O289 O 0.39058 0.4639 0.55174 0.0
O290 O 0.43781 0.47799 0.53552 0.0
C291 C 0.32741 0.5338 0.56869 0.0
O292 O 0.35211 0.55177 0.56129 0.0
C293 C 0.35429 0.43373 0.48658 0.0
Zn294 Zn 0.20073 0.52517 0.78052 0.0
Zn295 Zn 0.20568 0.54894 0.72539 0.0
O296 O 0.24893 0.54637 0.7495 0.0
O297 O 0.24666 0.51663 0.79252 0.0
O298 O 0.22022 0.55082 0.6795 0.0
O299 O 0.16872 0.49055 0.77072 0.0
O300 O 0.16733 0.51758 0.7257 0.0
C301 C 0.26286 0.53397 0.77371 0.0
C302 C 0.17872 0.59375 0.76928 0.0
O303 O 0.18635 0.59054 0.7399 0.0
O304 O 0.18304 0.57077 0.78894 0.0
C305 C 0.2432 0.56922 0.67191 0.0
O306 O 0.2536 0.59006 0.69307 0.0
C307 C 0.15534 0.49638 0.74414 0.0
Zn308 Zn 0.66425 0.88362 0.94691 0.0
Zn309 Zn 0.67058 0.94176 0.93933 0.0
O310 O 0.64913 0.95273 0.98124 0.0
O311 O 0.64047 0.90091 0.98701 0.0
O312 O 0.68368 0.98137 0.91463 0.0
O313 O 0.70922 0.8689 0.95095 0.0
O314 O 0.71401 0.92107 0.95211 0.0
C315 C 0.63685 0.92954 -0.0031 0.0
C316 C 0.62121 0.89513 0.90436 0.0
O317 O 0.63246 0.92186 0.9141 0.0
O318 O 0.63673 0.86988 0.91027 0.0
C319 C 0.66465 0.00081 0.90104 0.0
O320 O 0.63375 -0.00314 0.9047 0.0
C321 C 0.72638 0.89336 0.95546 0.0
Zn322 Zn 0.87963 0.11135 0.49008 0.0
Zn323 Zn 0.84593 0.06786 0.4708 0.0
O324 O 0.86799 0.04325 0.50723 0.0
O325 O 0.90844 0.07675 0.50842 0.0
O326 O 0.81894 0.0348 0.44757 0.0
O327 O 0.84762 0.13031 0.51875 0.0
O328 O 0.81404 0.10198 0.48985 0.0
C329 C 0.89618 0.05014 0.51649 0.0
C330 C 0.89655 0.10543 0.43209 0.0
O331 O 0.88297 0.07902 0.43928 0.0
O332 O 0.88665 0.13026 0.44606 0.0
C333 C 0.83109 0.00732 0.44276 0.0
O334 O 0.86034 0.00184 0.45274 0.0
C335 C 0.8193 0.12325 0.51127 0.0
C336 C 0.14779 0.2085 0.48083 0.0
C337 C 0.1201 0.19903 0.46437 0.0
H338 H 0.19408 0.23024 0.47768 0.0
C339 C 0.11803 0.20475 0.43119 0.0
H340 H 0.14996 0.20459 0.50643 0.0
C341 C 0.14342 0.21893 0.41466 0.0
C342 C 0.1711 0.22847 0.43107 0.0
H343 H 0.09699 0.1977 0.41783 0.0
H344 H 0.1414 0.2224 0.38899 0.0
C345 C 0.1729 0.22344 0.46441 0.0
C346 C 0.01886 0.85973 0.72278 0.0
C347 C 0.03837 0.8751 0.7 0.0
H348 H 0.01573 0.82481 0.76036 0.0
C349 C 0.07004 0.86466 0.69643 0.0
H350 H -0.00566 0.86713 0.72618 0.0
C351 C 0.08228 0.84033 0.716 0.0
C352 C 0.06319 0.82594 0.73973 0.0
H353 H 0.08571 0.87585 0.67907 0.0
H354 H 0.10702 0.83348 0.71309 0.0
C355 C 0.03116 0.8355 0.74247 0.0
C356 C 0.38023 0.76955 0.89127 0.0
C357 C 0.36762 0.74421 0.90954 0.0
H358 H 0.40665 0.81334 0.89113 0.0
C359 C 0.37359 0.74343 0.94272 0.0
H360 H 0.37608 0.77093 0.86567 0.0
C361 C 0.39116 0.7679 0.9574 0.0
C362 C 0.403 0.79367 0.93919 0.0
H363 H 0.36417 0.72427 0.95748 0.0
H364 H 0.39504 0.76684 0.98306 0.0
C365 C 0.39764 0.794 0.90593 0.0
C366 C 0.48403 0.0944 0.15419 0.0
C367 C 0.4942 0.06966 0.17464 0.0
H368 H 0.45701 0.13762 0.14934 0.0
C369 C 0.48604 0.07102 0.20732 0.0
H370 H 0.48995 0.09404 0.12892 0.0
C371 C 0.46668 0.09567 0.21891 0.0
C372 C 0.45554 0.11977 0.1982 0.0
H373 H 0.49337 0.05227 0.22371 0.0
H374 H 0.45991 0.09548 0.24396 0.0
C375 C 0.46514 0.11935 0.16591 0.0
C376 C 0.59191 0.26631 0.50842 0.0
C377 C 0.61801 0.28371 0.52039 0.0
H378 H 0.54903 0.26734 0.48046 0.0
C379 C 0.62147 0.31608 0.51162 0.0
H380 H 0.58876 0.2413 0.5146 0.0
C381 C 0.5985 0.33114 0.49249 0.0
C382 C 0.57203 0.31395 0.48107 0.0
H383 H 0.64135 0.33013 0.52048 0.0
H384 H 0.60114 0.35641 0.48714 0.0
C385 C 0.56934 0.28119 0.48864 0.0
C386 C 0.92858 0.34959 0.75434 0.0
C387 C 0.89588 0.34214 0.7555 0.0
H388 H 0.96717 0.37648 0.7744 0.0
C389 C 0.8775 0.35431 0.78087 0.0
H390 H 0.94354 0.34028 0.73537 0.0
C391 C 0.89107 0.3752 0.80331 0.0
C392 C 0.92336 0.38417 0.80099 0.0
H393 H 0.85229 0.34883 0.78262 0.0
H394 H 0.87589 0.38539 0.82164 0.0
C395 C 0.9422 0.37023 0.7769 0.0
C396 C 0.84536 0.72438 0.05477 0.0
C397 C 0.82809 0.71844 0.08303 0.0
H398 H 0.87103 0.70468 0.01526 0.0
C399 C 0.82309 0.68656 0.09272 0.0
H400 H 0.84939 0.74863 0.04642 0.0
C401 C 0.83575 0.6612 0.07484 0.0
C402 C 0.85322 0.66724 0.04669 0.0
H403 H 0.80978 0.68121 0.11432 0.0
H404 H 0.83202 0.6369 0.08319 0.0
C405 C 0.85757 0.69911 0.03672 0.0
C406 C 0.52194 0.65418 0.24528 0.0
C407 C 0.54983 0.6631 0.2618 0.0
H408 H 0.4809 0.62366 0.24384 0.0
C409 C 0.55881 0.64539 0.2891 0.0
H410 H 0.51432 0.6672 0.22413 0.0
C411 C 0.53955 0.62042 0.3005 0.0
C412 C 0.51086 0.61254 0.28487 0.0
H413 H 0.58018 0.65151 0.30239 0.0
H414 H 0.5467 0.60796 0.32215 0.0
C415 C 0.5027 0.62921 0.25667 0.0
C416 C 0.20636 0.42629 0.11391 0.0
C417 C 0.232 0.4126 0.09709 0.0
H418 H 0.16517 0.45666 0.11176 0.0
C419 C 0.23383 0.41729 0.06376 0.0
H420 H 0.20421 0.42313 0.13959 0.0
C421 C 0.2115 0.43642 0.04784 0.0
C422 C 0.18679 0.45146 0.06484 0.0
H423 H 0.25312 0.40695 0.04999 0.0
H424 H 0.21429 0.44022 0.0223 0.0
C425 C 0.184 0.44556 0.09795 0.0
C426 C 0.71002 0.02567 0.87065 0.0
C427 C 0.67716 0.02431 0.87742 0.0
H428 H 0.74664 0.04306 0.83939 0.0
C429 C 0.65624 0.04339 0.85925 0.0
H430 H 0.72689 0.01153 0.88434 0.0
C431 C 0.66763 0.06164 0.83348 0.0
C432 C 0.70018 0.06111 0.82526 0.0
H433 H 0.63083 0.04314 0.86396 0.0
H434 H 0.65062 0.07483 0.81904 0.0
C435 C 0.72139 0.04382 0.84485 0.0
C436 C 0.76691 0.96374 0.39507 0.0
C437 C 0.78028 0.933 0.39209 0.0
H438 H 0.77237 0.0114 0.41348 0.0
C439 C 0.80988 0.92683 0.40672 0.0
H440 H 0.74414 0.96929 0.38409 0.0
C441 C 0.82606 0.9509 0.42333 0.0
C442 C 0.81304 0.98178 0.42591 0.0
H443 H 0.82091 0.90346 0.40496 0.0
H444 H 0.84897 0.94528 0.43397 0.0
C445 C 0.7831 0.98788 0.41188 0.0
C446 C 0.28868 0.58182 0.63505 0.0
C447 C 0.26203 0.56278 0.6426 0.0
H448 H 0.33016 0.58769 0.60574 0.0
C449 C 0.25568 0.53551 0.62389 0.0
H450 H 0.29422 0.60302 0.64892 0.0
C451 C 0.27647 0.52654 0.59933 0.0
C452 C 0.30393 0.54477 0.59277 0.0
H453 H 0.23535 0.5203 0.62902 0.0
H454 H 0.27141 0.50486 0.58602 0.0
C455 C 0.30936 0.57296 0.61034 0.0
C456 C 0.30942 0.3959 0.47114 0.0
C457 C 0.34174 0.40153 0.47841 0.0
H458 H 0.27424 0.36137 0.45612 0.0
C459 C 0.36274 0.37544 0.47928 0.0
H460 H 0.29257 0.41553 0.4707 0.0
C461 C 0.35216 0.34465 0.47221 0.0
C462 C 0.32039 0.33894 0.46316 0.0
H463 H 0.3876 0.37885 0.48548 0.0
H464 H 0.3693 0.32534 0.47268 0.0
C465 C 0.29888 0.36486 0.46317 0.0
C466 C 0.87244 0.96754 0.7024 0.0
C467 C 0.89323 0.98356 0.72357 0.0
H468 H 0.82504 0.96446 0.68328 0.0
C469 C 0.88009 0.0038 0.74691 0.0
H470 H 0.88173 0.95169 0.68413 0.0
C471 C 0.84741 0.01067 0.74677 0.0
C472 C 0.82733 -0.00203 0.72281 0.0
H473 H 0.8954 0.01629 0.76371 0.0
H474 H 0.8386 0.02835 0.76352 0.0
C475 C 0.83985 0.9749 0.70183 0.0
C476 C 0.22529 0.58975 0.95548 0.0
C477 C 0.23426 0.62213 0.95592 0.0
H478 H 0.19814 0.55256 0.97786 0.0
C479 C 0.22631 0.64104 0.98247 0.0
H480 H 0.23131 0.57475 0.9352 0.0
C481 C 0.20665 0.62859 0.0066 0.0
C482 C 0.19547 0.59684 0.00483 0.0
H483 H 0.23293 0.66612 0.98318 0.0
H484 H 0.19841 0.64439 0.02541 0.0
C485 C 0.20651 0.57702 0.98004 0.0
C486 C 0.59037 0.88555 0.24591 0.0
C487 C 0.58852 0.91689 0.23382 0.0
H488 H 0.61859 0.85008 0.26936 0.0
C489 C 0.61445 0.93778 0.23898 0.0
H490 H 0.57078 0.86898 0.2427 0.0
C491 C 0.64215 0.92688 0.25465 0.0
C492 C 0.64443 0.89485 0.26493 0.0
H493 H 0.61387 0.96205 0.2298 0.0
H494 H 0.66208 0.94313 0.25775 0.0
C495 C 0.61794 0.87463 0.261 0.0
C496 C 0.74 0.16223 0.53143 0.0
C497 C 0.74616 0.17354 0.56264 0.0
H498 H 0.7582 0.1366 0.49064 0.0
C499 C 0.77581 0.16711 0.57679 0.0
H500 H 0.71718 0.16666 0.52004 0.0
C501 C 0.79912 0.15043 0.56 0.0
C502 C 0.79323 0.13929 0.52875 0.0
H503 H 0.78123 0.17548 0.60074 0.0
H504 H 0.82189 0.14626 0.57159 0.0
C505 C 0.76329 0.14488 0.51471 0.0
C506 C 0.10061 0.50718 0.72322 0.0
C507 C 0.1216 0.48658 0.7397 0.0
H508 H 0.05277 0.5248 0.71932 0.0
C509 C 0.10864 0.46196 0.75863 0.0
H510 H 0.10974 0.52634 0.70826 0.0
C511 C 0.0758 0.46074 0.76449 0.0
C512 C 0.05546 0.48457 0.75207 0.0
H513 H 0.12413 0.44553 0.77139 0.0
H514 H 0.06703 0.44326 0.78157 0.0
C515 C 0.06785 0.50642 0.72965 0.0
C516 C 0.76891 0.85887 0.97917 0.0
C517 C 0.75687 0.8897 0.97306 0.0
H518 H 0.79403 0.82879 0.01207 0.0
C519 C 0.76898 0.9156 0.99083 0.0
H520 H 0.76065 0.83849 0.96541 0.0
C521 C 0.78799 0.91001 0.01782 0.0
C522 C 0.79531 0.87849 0.02717 0.0
H523 H 0.76073 0.93978 0.98637 0.0
H524 H 0.79389 0.93007 0.03318 0.0
C525 C 0.78811 0.85331 0.00601 0.0
C526 C 0.33047 0.48503 0.19135 0.0
C527 C 0.35607 0.46648 0.18014 0.0
H528 H 0.31588 0.52271 0.2227 0.0
C529 C 0.38737 0.47763 0.18518 0.0
H530 H 0.30603 0.47751 0.18741 0.0
C531 C 0.39303 0.50373 0.20534 0.0
C532 C 0.36746 0.5189 0.2209 0.0
H533 H 0.40764 0.46427 0.17628 0.0
H534 H 0.41749 0.50957 0.21145 0.0
C535 C 0.33613 0.51101 0.21167 0.0
C536 C 0.39074 0.25067 0.38231 0.0
C537 C 0.42166 0.26358 0.38325 0.0
H538 H 0.35499 0.22671 0.35493 0.0
C539 C 0.44148 0.25976 0.35627 0.0
H540 H 0.37504 0.25283 0.4027 0.0
C541 C 0.42996 0.24437 0.32858 0.0
C542 C 0.39833 0.23308 0.32735 0.0
H543 H 0.46541 0.26957 0.35615 0.0
H544 H 0.44542 0.24212 0.30793 0.0
C545 C 0.37917 0.23591 0.35475 0.0
C546 C 0.989 0.24464 0.55639 0.0
C547 C 0.00112 0.2224 0.57846 0.0
H548 H 0.95557 0.28264 0.54855 0.0
C549 C -0.00528 0.2264 0.61121 0.0
H550 H -0.00657 0.24174 0.53097 0.0
C551 C 0.97366 0.25017 0.62142 0.0
C552 C 0.95783 0.2695 0.59883 0.0
H553 H 0.00375 0.20932 0.62858 0.0
H554 H 0.96696 0.25068 0.64649 0.0
C555 C 0.96729 0.26797 0.56649 0.0
C556 C 0.98846 0.66985 0.88829 0.0
C557 C 0.97867 0.67228 0.92038 0.0
H558 H 0.01497 0.69107 0.84987 0.0
C559 C 0.98536 0.70046 0.93746 0.0
H560 H 0.98326 0.64849 0.87452 0.0
C561 C 0.004 0.7246 0.92354 0.0
C562 C 0.01526 0.72139 0.89198 0.0
H563 H 0.97796 0.70293 0.96221 0.0
H564 H 0.011 0.745 0.93797 0.0
C565 C 0.00618 0.69443 0.87405 0.0
C566 C 0.50273 0.84422 0.15062 0.0
C567 C 0.51328 0.81265 0.15523 0.0
H568 H 0.4891 0.88062 0.11741 0.0
C569 C 0.51565 0.79246 0.12827 0.0
H570 H 0.50056 0.86042 0.17069 0.0
C571 C 0.50846 0.80412 0.09739 0.0
C572 C 0.49965 0.83633 0.09298 0.0
H573 H 0.52393 0.76805 0.1309 0.0
H574 H 0.5107 0.78829 0.07698 0.0
C575 C 0.49647 0.85595 0.12 0.0
C576 C 0.32499 0.30726 0.3065 0.0
C577 C 0.29421 0.30545 0.31976 0.0
H578 H 0.35441 0.32341 0.26822 0.0
C579 C 0.26867 0.31955 0.30296 0.0
H580 H 0.34532 0.29668 0.31859 0.0
C581 C 0.274 0.33515 0.27352 0.0
C582 C 0.30495 0.33696 0.26051 0.0
H583 H 0.24469 0.31863 0.31256 0.0
H584 H 0.25394 0.34566 0.26097 0.0
C585 C 0.33027 0.32279 0.27746 0.0
C586 C 0.89937 0.00245 0.5535 0.0
C587 C 0.91394 0.02912 0.53884 0.0
H588 H 0.90229 0.96743 0.59132 0.0
C589 C 0.9451 0.03766 0.54802 0.0
H590 H 0.87546 -0.00481 0.5468 0.0
C591 C 0.96017 0.02194 0.57327 0.0
C592 C 0.9447 -0.00303 0.58946 0.0
H593 H 0.95727 0.05772 0.53694 0.0
H594 H 0.98325 0.03051 0.58136 0.0
C595 C 0.91475 0.98639 0.57872 0.0
C596 C 0.30511 0.57565 0.76852 0.0
C597 C 0.29283 0.54913 0.7854 0.0
H598 H 0.32102 0.62413 0.77274 0.0
C599 C 0.30168 0.5454 0.81777 0.0
H600 H 0.30002 0.57878 0.74323 0.0
C601 C 0.31485 0.57134 0.83449 0.0
C602 C 0.31823 0.60108 0.81905 0.0
H603 H 0.29372 0.52476 0.83137 0.0
H604 H 0.31584 0.56995 0.86043 0.0
C605 C 0.31775 0.60168 0.7854 0.0
C606 C 0.57964 0.91392 0.06514 0.0
C607 C 0.57785 0.94386 0.08035 0.0
H608 H 0.59953 0.88607 0.02747 0.0
C609 C 0.5955 0.96963 0.06763 0.0
H610 H 0.56634 0.8935 0.07407 0.0
C611 C 0.61477 0.96531 0.04043 0.0
C612 C 0.61687 0.9351 0.0257 0.0
H613 H 0.59462 -0.00699 0.07879 0.0
H614 H 0.62817 0.98549 0.03115 0.0
C615 C 0.5989 0.9096 0.03834 0.0
C616 C 0.6493 0.12149 0.63129 0.0
C617 C 0.64 0.14458 0.65393 0.0
H618 H 0.67467 0.07776 0.62366 0.0
C619 C 0.63831 0.13535 0.68635 0.0
H620 H 0.65046 0.12754 0.60605 0.0
C621 C 0.65245 0.10674 0.69655 0.0
C622 C 0.66829 0.08699 0.67443 0.0
H623 H 0.63061 0.15233 0.70435 0.0
H624 H 0.65473 0.10247 0.72205 0.0
C625 C 0.66348 0.09283 0.6415 0.0
C626 C 0.06384 0.49238 0.94708 0.0
C627 C 0.06721 0.52461 0.95644 0.0
H628 H 0.04402 0.4594 0.91283 0.0
C629 C 0.05243 0.54847 0.93787 0.0
H630 H 0.07477 0.47341 0.961 0.0
C631 C 0.03511 0.54051 0.9105 0.0
C632 C 0.03178 0.50841 0.90092 0.0
H633 H 0.05433 0.57351 0.94435 0.0
H634 H 0.02422 0.5597 0.89684 0.0
C635 C 0.04611 0.48433 0.91963 0.0
C636 C 0.81516 0.87414 0.25406 0.0
C637 C 0.80371 0.84424 0.26439 0.0
H638 H 0.83676 0.90016 0.21563 0.0
C639 C 0.81504 0.81648 0.24916 0.0
H640 H 0.80751 0.89596 0.26575 0.0
C641 C 0.83206 0.81883 0.22046 0.0
C642 C 0.83723 0.849 0.20633 0.0
H643 H 0.80749 0.79298 0.25723 0.0
H644 H 0.83664 0.79704 0.20719 0.0
C645 C 0.83212 0.87649 0.22524 0.0
C646 C 0.35553 0.5724 0.43914 0.0
C647 C 0.38544 0.5649 0.45226 0.0
H648 H 0.33048 0.58809 0.39732 0.0
C649 C 0.41297 0.57752 0.43773 0.0
H650 H 0.33386 0.56343 0.45012 0.0
C651 C 0.41109 0.59196 0.40756 0.0
C652 C 0.38173 0.59309 0.39124 0.0
H653 H 0.43634 0.57279 0.44783 0.0
H654 H 0.43315 0.59762 0.39525 0.0
C655 C 0.35366 0.58667 0.40876 0.0
C656 C 0.27847 0.16138 0.36151 0.0
C657 C 0.30398 0.17006 0.38164 0.0
H658 H 0.26496 0.1423 0.316 0.0
C659 C 0.33393 0.15582 0.3763 0.0
H660 H 0.25482 0.17101 0.36547 0.0
C661 C 0.33982 0.13935 0.34773 0.0
C662 C 0.31588 0.13723 0.3241 0.0
H663 H 0.35397 0.16109 0.39186 0.0
H664 H 0.36423 0.13284 0.34227 0.0
C665 C 0.28434 0.14469 0.33305 0.0
C666 C 0.06547 0.01802 0.62212 0.0
C667 C 0.05932 0.02942 0.65327 0.0
H668 H 0.07237 0.03095 0.57291 0.0
C669 C 0.0676 0.06133 0.66039 0.0
H670 H 0.05996 -0.00651 0.61574 0.0
C671 C 0.07546 0.08271 0.63566 0.0
C672 C 0.07501 0.07248 0.6036 0.0
H673 H 0.06377 0.07087 0.6842 0.0
H674 H 0.07667 0.10805 0.64113 0.0
C675 C 0.07307 0.0395 0.59742 0.0
C676 C 0.2162 0.76025 0.82227 0.0
C677 C 0.23126 0.75297 0.85142 0.0
H678 H 0.17678 0.78317 0.79959 0.0
C679 C 0.2242 0.77145 0.87854 0.0
H680 H 0.22172 0.74668 0.80087 0.0
C681 C 0.19783 0.79202 0.87807 0.0
C682 C 0.17835 0.7938 0.85053 0.0
H683 H 0.23582 0.76653 0.90125 0.0
H684 H 0.18988 0.80217 0.90057 0.0
C685 C 0.1904 0.78136 0.82162 0.0
C686 C 0.42111 0.90979 0.12194 0.0
C687 C 0.4361 0.93939 0.12797 0.0
H688 H 0.40271 0.87836 0.08603 0.0
C689 C 0.432 0.96419 0.1055 0.0
H690 H 0.42269 0.8904 0.13916 0.0
C691 C 0.41998 0.95733 0.07494 0.0
C692 C 0.41281 0.92546 0.0664 0.0
H693 H 0.44217 0.98767 0.10977 0.0
H694 H 0.42154 0.9758 0.05672 0.0
C695 C 0.40939 0.90288 0.09128 0.0
C696 C 0.73559 0.31936 0.6037 0.0
C697 C 0.72395 0.30867 0.63343 0.0
H698 H 0.77658 0.33563 0.57795 0.0
C699 C 0.74036 0.31795 0.6614 0.0
H700 H 0.72315 0.31349 0.58169 0.0
C701 C 0.77118 0.33068 0.65927 0.0
C702 C 0.78584 0.33394 0.62913 0.0
H703 H 0.73149 0.31107 0.68481 0.0
H704 H 0.785 0.33295 0.68113 0.0
C705 C 0.76642 0.33213 0.60158 0.0
C706 C 0.88486 0.50899 0.8665 0.0
C707 C 0.89687 0.52959 0.84262 0.0
H708 H 0.8714 0.50522 0.91578 0.0
C709 C 0.89055 0.56258 0.84544 0.0
H710 H 0.88812 0.48334 0.86471 0.0
C711 C 0.88005 0.57508 0.87476 0.0
C712 C 0.87669 0.55468 0.90138 0.0
H713 H 0.89844 0.57919 0.8271 0.0
H714 H 0.88101 0.6008 0.8781 0.0
C715 C 0.87469 0.52156 0.89583 0.0
C716 C 0.66419 0.83112 0.18384 0.0
C717 C 0.65465 0.79885 0.18562 0.0
H718 H 0.69852 0.86497 0.16727 0.0
C719 C 0.67356 0.77549 0.17064 0.0
H720 H 0.65025 0.84987 0.19499 0.0
C721 C 0.70159 0.78431 0.15448 0.0
C722 C 0.71111 0.81664 0.153 0.0
H723 H 0.66679 0.75046 0.17146 0.0
H724 H 0.71596 0.76579 0.14353 0.0
C725 C 0.69193 0.83987 0.16774 0.0
C726 C 0.46066 0.45634 0.35665 0.0
C727 C 0.42997 0.46998 0.35781 0.0
H728 H 0.49163 0.41888 0.37373 0.0
C729 C 0.40731 0.45663 0.37875 0.0
H730 H 0.47872 0.4662 0.34091 0.0
C731 C 0.41468 0.43009 0.39752 0.0
C732 C 0.44496 0.41576 0.39592 0.0
H733 H 0.38358 0.46668 0.38077 0.0
H734 H 0.39626 0.4206 0.41309 0.0
C735 C 0.46807 0.42934 0.3755 0.0
C736 C 0.31202 0.24105 0.15772 0.0
C737 C 0.34112 0.22845 0.1688 0.0
H738 H 0.2886 0.28094 0.13599 0.0
C739 C 0.36968 0.24133 0.1568 0.0
H740 H 0.28957 0.23098 0.1658 0.0
C741 C 0.36914 0.27013 0.13953 0.0
C742 C 0.34006 0.28642 0.13461 0.0
H743 H 0.3925 0.23176 0.16435 0.0
H744 H 0.39169 0.2818 0.13447 0.0
C745 C 0.31148 0.2697 0.14039 0.0
C746 C 0.81162 0.16976 0.71238 0.0
C747 C 0.80606 0.14508 0.69016 0.0
H748 H 0.83037 0.21702 0.72017 0.0
C749 C 0.8171 0.1489 0.65854 0.0
H750 H 0.80355 0.16751 0.73694 0.0
C751 C 0.83226 0.17703 0.64902 0.0
C752 C 0.83697 0.20211 0.67085 0.0
H753 H 0.81349 0.13037 0.64075 0.0
H754 H 0.8399 0.1793 0.62432 0.0
C755 C 0.82708 0.19802 0.70282 0.0
C756 C 0.98838 0.53735 0.05631 0.0
C757 C 0.97481 0.56774 0.05172 0.0
H758 H 0.02905 0.51135 0.07256 0.0
C759 C 0.9862 0.59349 0.07003 0.0
H760 H 0.97956 0.51695 0.04292 0.0
C761 C 0.01504 0.59043 0.08679 0.0
C762 C 0.03265 0.56174 0.08477 0.0
H763 H 0.97587 0.6171 0.06728 0.0
H764 H 0.02595 0.61192 0.0964 0.0
C765 C 0.01687 0.5342 0.07345 0.0
C766 C 0.62817 0.83156 0.35576 0.0
C767 C 0.65272 0.80861 0.35728 0.0
H768 H 0.58369 0.84438 0.33423 0.0
C769 C 0.64524 0.77685 0.34864 0.0
H770 H 0.6325 0.85605 0.36313 0.0
C771 C 0.61724 0.77019 0.33155 0.0
C772 C 0.59605 0.79506 0.32366 0.0
H773 H 0.66306 0.75816 0.35052 0.0
H774 H 0.61437 0.74662 0.32112 0.0
C775 C 0.60004 0.82485 0.33891 0.0
C776 C 0.46517 0.42116 0.55299 0.0
C777 C 0.43366 0.42865 0.56204 0.0
H778 H 0.4951 0.38754 0.5288 0.0
C779 C 0.41206 0.40313 0.56627 0.0
H780 H 0.48295 0.4399 0.55071 0.0
C781 C 0.4191 0.37291 0.55371 0.0
C782 C 0.44791 0.36791 0.53714 0.0
H783 H 0.38792 0.40758 0.57437 0.0
H784 H 0.40019 0.3552 0.55289 0.0
C785 C 0.47217 0.39101 0.54022 0.0
C786 C 0.16353 0.63002 0.8141 0.0
C787 C 0.16398 0.62364 0.78104 0.0
H788 H 0.14842 0.66123 0.85155 0.0
C789 C 0.14907 0.64525 0.75995 0.0
H790 H 0.17498 0.61397 0.83099 0.0
C791 C 0.13341 0.67235 0.77184 0.0
C792 C 0.13273 0.67849 0.80499 0.0
H793 H 0.14895 0.64088 0.73436 0.0
H794 H 0.1219 0.68849 0.75509 0.0
C795 C 0.14826 0.65717 0.8259 0.0
C796 C 0.54146 0.86181 0.9219 0.0
C797 C 0.52666 0.89038 0.93136 0.0
H798 H 0.58402 0.84071 0.90337 0.0
C799 C 0.5385 0.91959 0.91957 0.0
H800 H 0.53249 0.83891 0.93021 0.0
C801 C 0.56778 0.92067 0.90369 0.0
C802 C 0.58606 0.89264 0.90053 0.0
H803 H 0.52698 0.94194 0.9258 0.0
H804 H 0.5781 0.94393 0.89854 0.0
C805 C 0.57104 0.86292 0.90632 0.0
C806 C 0.94838 0.077 0.43422 0.0
C807 C 0.93133 0.10464 0.42517 0.0
H808 H 0.98724 0.0594 0.46252 0.0
C809 C 0.94806 0.13392 0.42381 0.0
H810 H 0.93684 0.05377 0.43458 0.0
C811 C 0.97756 0.13695 0.43935 0.0
C812 C -0.00956 0.11064 0.4558 0.0
H813 H 0.93602 0.15554 0.41604 0.0
H814 H 0.98727 0.16073 0.44306 0.0
C815 C 0.9775 0.08013 0.45029 0.0
loop_
_geom_bond_atom_site_label_1
_geom_bond_atom_site_label_2
_geom_bond_distance
_geom_bond_site_symmetry_2
_ccdc_geom_bond_type
Zn0 O3 2.031 . S
Zn0 O5 2.049 . S
Zn0 O10 2.067 . S
Zn1 O2 1.962 . S
Zn1 O4 1.986 . S
Zn1 O6 1.996 . S
Zn1 O9 1.943 . S
O2 Zn1 1.962 . S
O2 C7 1.254 . S
O3 Zn0 2.031 . S
O3 C7 1.269 . S
O4 Zn1 1.986 . S
O4 C11 1.262 . S
O5 Zn0 2.049 . S
O5 C13 1.260 . S
O6 Zn1 1.996 . S
O6 C13 1.257 . S
C7 O2 1.254 . S
C7 O3 1.269 . S
C8 O9 1.249 . S
C8 O10 1.270 . S
O9 Zn1 1.943 . S
O9 C8 1.249 . S
O10 Zn0 2.067 . S
O10 C8 1.270 . S
C11 O4 1.262 . S
C11 O12 1.232 . S
O12 C11 1.232 . S
C13 O5 1.260 . S
C13 O6 1.257 . S
Zn14 O17 2.031 . S
Zn14 O19 2.049 . S
Zn14 O24 2.067 1_545 S
Zn15 O16 1.962 1_655 S
Zn15 O18 1.986 . S
Zn15 O20 1.996 . S
Zn15 O23 1.943 . S
O16 Zn15 1.962 1_455 S
O16 C21 1.254 1_465 S
O17 Zn14 2.031 . S
O17 C21 1.269 . S
O18 Zn15 1.986 . S
O18 C25 1.262 . S
O19 Zn14 2.049 . S
O19 C27 1.260 1_545 S
O20 Zn15 1.996 . S
O20 C27 1.257 . S
C21 O16 1.254 1_645 S
C21 O17 1.269 . S
C22 O23 1.249 . S
C22 O24 1.270 . S
O23 Zn15 1.943 . S
O23 C22 1.249 . S
O24 Zn14 2.067 1_565 S
O24 C22 1.270 . S
C25 O18 1.262 . S
C25 O26 1.232 1_655 S
O26 C25 1.232 1_455 S
C27 O19 1.260 1_565 S
C27 O20 1.257 . S
Zn28 O31 2.031 . S
Zn28 O33 2.049 . S
Zn28 O38 2.067 . S
Zn29 O30 1.962 . S
Zn29 O32 1.986 . S
Zn29 O34 1.996 . S
Zn29 O37 1.943 . S
O30 Zn29 1.962 . S
O30 C35 1.254 . S
O31 Zn28 2.031 . S
O31 C35 1.269 . S
O32 Zn29 1.986 . S
O32 C39 1.262 . S
O33 Zn28 2.049 . S
O33 C41 1.260 . S
O34 Zn29 1.996 . S
O34 C41 1.257 . S
C35 O30 1.254 . S
C35 O31 1.269 . S
C36 O37 1.249 . S
C36 O38 1.270 . S
O37 Zn29 1.943 . S
O37 C36 1.249 . S
O38 Zn28 2.067 . S
O38 C36 1.270 . S
C39 O32 1.262 . S
C39 O40 1.232 . S
O40 C39 1.232 . S
C41 O33 1.260 . S
C41 O34 1.257 . S
Zn42 O45 2.031 . S
Zn42 O47 2.049 . S
Zn42 O52 2.067 1_565 S
Zn43 O44 1.962 . S
Zn43 O46 1.986 . S
Zn43 O48 1.996 . S
Zn43 O51 1.943 . S
O44 Zn43 1.962 . S
O44 C49 1.254 1_545 S
O45 Zn42 2.031 . S
O45 C49 1.269 . S
O46 Zn43 1.986 . S
O46 C53 1.262 . S
O47 Zn42 2.049 . S
O47 C55 1.260 1_565 S
O48 Zn43 1.996 . S
O48 C55 1.257 . S
C49 O44 1.254 1_565 S
C49 O45 1.269 . S
C50 O51 1.249 . S
C50 O52 1.270 . S
O51 Zn43 1.943 . S
O51 C50 1.249 . S
O52 Zn42 2.067 1_545 S
O52 C50 1.270 . S
C53 O46 1.262 . S
C53 O54 1.232 . S
O54 C53 1.232 . S
C55 O47 1.260 1_545 S
C55 O48 1.257 . S
Zn56 O59 2.031 . S
Zn56 O61 2.049 . S
Zn56 O66 2.067 . S
Zn57 O58 1.962 . S
Zn57 O60 1.986 . S
Zn57 O62 1.996 . S
Zn57 O65 1.943 . S
O58 Zn57 1.962 . S
O58 C63 1.254 . S
O59 Zn56 2.031 . S
O59 C63 1.269 . S
O60 Zn57 1.986 . S
O60 C67 1.262 . S
O61 Zn56 2.049 . S
O61 C69 1.260 . S
O62 Zn57 1.996 . S
O62 C69 1.257 . S
C63 O58 1.254 . S
C63 O59 1.269 . S
C64 O65 1.249 . S
C64 O66 1.270 . S
O65 Zn57 1.943 . S
O65 C64 1.249 . S
O66 Zn56 2.067 . S
O66 C64 1.270 . S
C67 O60 1.262 . S
C67 O68 1.232 . S
O68 C67 1.232 . S
C69 O61 1.260 . S
C69 O62 1.257 . S
Zn70 O73 2.031 . S
Zn70 O75 2.049 . S
Zn70 O80 2.067 . S
Zn71 O72 1.962 1_455 S
Zn71 O74 1.986 . S
Zn71 O76 1.996 . S
Zn71 O79 1.943 . S
O72 Zn71 1.962 1_655 S
O72 C77 1.254 1_655 S
O73 Zn70 2.031 . S
O73 C77 1.269 . S
O74 Zn71 1.986 . S
O74 C81 1.262 . S
O75 Zn70 2.049 . S
O75 C83 1.260 . S
O76 Zn71 1.996 . S
O76 C83 1.257 . S
C77 O72 1.254 1_455 S
C77 O73 1.269 . S
C78 O79 1.249 . S
C78 O80 1.270 . S
O79 Zn71 1.943 . S
O79 C78 1.249 . S
O80 Zn70 2.067 . S
O80 C78 1.270 . S
C81 O74 1.262 . S
C81 O82 1.232 1_455 S
O82 C81 1.232 1_655 S
C83 O75 1.260 . S
C83 O76 1.257 . S
Zn84 O87 2.031 . S
Zn84 O89 2.049 . S
Zn84 O94 2.067 . S
Zn85 O86 1.962 . S
Zn85 O88 1.986 . S
Zn85 O90 1.996 . S
Zn85 O93 1.943 . S
O86 Zn85 1.962 . S
O86 C91 1.254 . S
O87 Zn84 2.031 . S
O87 C91 1.269 . S
O88 Zn85 1.986 . S
O88 C95 1.262 . S
O89 Zn84 2.049 . S
O89 C97 1.260 . S
O90 Zn85 1.996 . S
O90 C97 1.257 . S
C91 O86 1.254 . S
C91 O87 1.269 . S
C92 O93 1.249 . S
C92 O94 1.270 . S
O93 Zn85 1.943 . S
O93 C92 1.249 . S
O94 Zn84 2.067 . S
O94 C92 1.270 . S
C95 O88 1.262 . S
C95 O96 1.232 . S
O96 C95 1.232 . S
C97 O89 1.260 . S
C97 O90 1.257 . S
Zn98 O101 2.031 . S
Zn98 O103 2.049 . S
Zn98 O108 2.067 . S
Zn99 O100 1.962 . S
Zn99 O102 1.986 . S
Zn99 O104 1.996 . S
Zn99 O107 1.943 . S
O100 Zn99 1.962 . S
O100 C105 1.254 . S
O101 Zn98 2.031 . S
O101 C105 1.269 . S
O102 Zn99 1.986 . S
O102 C109 1.262 . S
O103 Zn98 2.049 . S
O103 C111 1.260 . S
O104 Zn99 1.996 . S
O104 C111 1.257 . S
C105 O100 1.254 . S
C105 O101 1.269 . S
C106 O107 1.249 . S
C106 O108 1.270 . S
O107 Zn99 1.943 . S
O107 C106 1.249 . S
O108 Zn98 2.067 . S
O108 C106 1.270 . S
C109 O102 1.262 . S
C109 O110 1.232 . S
O110 C109 1.232 . S
C111 O103 1.260 . S
C111 O104 1.257 . S
Zn112 O115 2.031 . S
Zn112 O117 2.049 . S
Zn112 O122 2.067 . S
Zn113 O114 1.962 . S
Zn113 O116 1.986 . S
Zn113 O118 1.996 . S
Zn113 O121 1.943 . S
O114 Zn113 1.962 . S
O114 C119 1.254 . S
O115 Zn112 2.031 . S
O115 C119 1.269 . S
O116 Zn113 1.986 . S
O116 C123 1.262 . S
O117 Zn112 2.049 . S
O117 C125 1.260 . S
O118 Zn113 1.996 . S
O118 C125 1.257 . S
C119 O114 1.254 . S
C119 O115 1.269 . S
C120 O121 1.249 . S
C120 O122 1.270 . S
O121 Zn113 1.943 . S
O121 C120 1.249 . S
O122 Zn112 2.067 . S
O122 C120 1.270 . S
C123 O116 1.262 . S
C123 O124 1.232 . S
O124 C123 1.232 . S
C125 O117 1.260 . S
C125 O118 1.257 . S
Zn126 O129 2.031 . S
Zn126 O131 2.049 . S
Zn126 O136 2.067 1_655 S
Zn127 O128 1.962 . S
Zn127 O130 1.986 . S
Zn127 O132 1.996 . S
Zn127 O135 1.943 . S
O128 Zn127 1.962 . S
O128 C133 1.254 1_455 S
O129 Zn126 2.031 . S
O129 C133 1.269 . S
O130 Zn127 1.986 . S
O130 C137 1.262 . S
O131 Zn126 2.049 . S
O131 C139 1.260 1_655 S
O132 Zn127 1.996 . S
O132 C139 1.257 . S
C133 O128 1.254 1_655 S
C133 O129 1.269 . S
C134 O135 1.249 . S
C134 O136 1.270 . S
O135 Zn127 1.943 . S
O135 C134 1.249 . S
O136 Zn126 2.067 1_455 S
O136 C134 1.270 . S
C137 O130 1.262 . S
C137 O138 1.232 . S
O138 C137 1.232 . S
C139 O131 1.260 1_455 S
C139 O132 1.257 . S
Zn140 O143 2.031 . S
Zn140 O145 2.049 . S
Zn140 O150 2.067 . S
Zn141 O142 1.962 . S
Zn141 O144 1.986 . S
Zn141 O146 1.996 . S
Zn141 O149 1.943 . S
O142 Zn141 1.962 . S
O142 C147 1.254 . S
O143 Zn140 2.031 . S
O143 C147 1.269 . S
O144 Zn141 1.986 . S
O144 C151 1.262 . S
O145 Zn140 2.049 . S
O145 C153 1.260 . S
O146 Zn141 1.996 . S
O146 C153 1.257 . S
C147 O142 1.254 . S
C147 O143 1.269 . S
C148 O149 1.249 . S
C148 O150 1.270 . S
O149 Zn141 1.943 . S
O149 C148 1.249 . S
O150 Zn140 2.067 . S
O150 C148 1.270 . S
C151 O144 1.262 . S
C151 O152 1.232 . S
O152 C151 1.232 . S
C153 O145 1.260 . S
C153 O146 1.257 . S
Zn154 O157 2.031 . S
Zn154 O159 2.049 . S
Zn154 O164 2.067 . S
Zn155 O156 1.962 1_554 S
Zn155 O158 1.986 . S
Zn155 O160 1.996 . S
Zn155 O163 1.943 . S
O156 Zn155 1.962 1_556 S
O156 C161 1.254 1_556 S
O157 Zn154 2.031 . S
O157 C161 1.269 . S
O158 Zn155 1.986 . S
O158 C165 1.262 . S
O159 Zn154 2.049 . S
O159 C167 1.260 . S
O160 Zn155 1.996 . S
O160 C167 1.257 . S
C161 O156 1.254 1_554 S
C161 O157 1.269 . S
C162 O163 1.249 . S
C162 O164 1.270 . S
O163 Zn155 1.943 . S
O163 C162 1.249 . S
O164 Zn154 2.067 . S
O164 C162 1.270 . S
C165 O158 1.262 . S
C165 O166 1.232 1_554 S
O166 C165 1.232 1_556 S
C167 O159 1.260 . S
C167 O160 1.257 . S
Zn168 O171 2.031 . S
Zn168 O173 2.049 . S
Zn168 O178 2.067 . S
Zn169 O170 1.962 . S
Zn169 O172 1.986 . S
Zn169 O174 1.996 . S
Zn169 O177 1.943 . S
O170 Zn169 1.962 . S
O170 C175 1.254 . S
O171 Zn168 2.031 . S
O171 C175 1.269 . S
O172 Zn169 1.986 . S
O172 C179 1.262 . S
O173 Zn168 2.049 . S
O173 C181 1.260 . S
O174 Zn169 1.996 . S
O174 C181 1.257 . S
C175 O170 1.254 . S
C175 O171 1.269 . S
C176 O177 1.249 . S
C176 O178 1.270 . S
O177 Zn169 1.943 . S
O177 C176 1.249 . S
O178 Zn168 2.067 . S
O178 C176 1.270 . S
C179 O172 1.262 . S
C179 O180 1.232 . S
O180 C179 1.232 . S
C181 O173 1.260 . S
C181 O174 1.257 . S
Zn182 O185 2.031 . S
Zn182 O187 2.049 . S
Zn182 O192 2.067 1_455 S
Zn183 O184 1.962 1_556 S
Zn183 O186 1.986 . S
Zn183 O188 1.996 . S
Zn183 O191 1.943 . S
O184 Zn183 1.962 1_554 S
O184 C189 1.254 1_654 S
O185 Zn182 2.031 . S
O185 C189 1.269 . S
O186 Zn183 1.986 . S
O186 C193 1.262 . S
O187 Zn182 2.049 . S
O187 C195 1.260 1_455 S
O188 Zn183 1.996 . S
O188 C195 1.257 . S
C189 O184 1.254 1_456 S
C189 O185 1.269 . S
C190 O191 1.249 . S
C190 O192 1.270 . S
O191 Zn183 1.943 . S
O191 C190 1.249 . S
O192 Zn182 2.067 1_655 S
O192 C190 1.270 . S
C193 O186 1.262 . S
C193 O194 1.232 1_556 S
O194 C193 1.232 1_554 S
C195 O187 1.260 1_655 S
C195 O188 1.257 . S
Zn196 O199 2.031 . S
Zn196 O201 2.049 . S
Zn196 O206 2.067 . S
Zn197 O198 1.962 . S
Zn197 O200 1.986 . S
Zn197 O202 1.996 . S
Zn197 O205 1.943 . S
O198 Zn197 1.962 . S
O198 C203 1.254 . S
O199 Zn196 2.031 . S
O199 C203 1.269 . S
O200 Zn197 1.986 . S
O200 C207 1.262 . S
O201 Zn196 2.049 . S
O201 C209 1.260 . S
O202 Zn197 1.996 . S
O202 C209 1.257 . S
C203 O198 1.254 . S
C203 O199 1.269 . S
C204 O205 1.249 . S
C204 O206 1.270 . S
O205 Zn197 1.943 . S
O205 C204 1.249 . S
O206 Zn196 2.067 . S
O206 C204 1.270 . S
C207 O200 1.262 . S
C207 O208 1.232 . S
O208 C207 1.232 . S
C209 O201 1.260 . S
C209 O202 1.257 . S
Zn210 O213 2.031 . S
Zn210 O215 2.049 . S
Zn210 O220 2.067 . S
Zn211 O212 1.962 . S
Zn211 O214 1.986 . S
Zn211 O216 1.996 . S
Zn211 O219 1.943 . S
O212 Zn211 1.962 . S
O212 C217 1.254 . S
O213 Zn210 2.031 . S
O213 C217 1.269 . S
O214 Zn211 1.986 . S
O214 C221 1.262 . S
O215 Zn210 2.049 . S
O215 C223 1.260 . S
O216 Zn211 1.996 . S
O216 C223 1.257 . S
C217 O212 1.254 . S
C217 O213 1.269 . S
C218 O219 1.249 . S
C218 O220 1.270 . S
O219 Zn211 1.943 . S
O219 C218 1.249 . S
O220 Zn210 2.067 . S
O220 C218 1.270 . S
C221 O214 1.262 . S
C221 O222 1.232 . S
O222 C221 1.232 . S
C223 O215 1.260 . S
C223 O216 1.257 . S
Zn224 O227 2.031 . S
Zn224 O229 2.049 . S
Zn224 O234 2.067 . S
Zn225 O226 1.962 . S
Zn225 O228 1.986 . S
Zn225 O230 1.996 . S
Zn225 O233 1.943 . S
O226 Zn225 1.962 . S
O226 C231 1.254 . S
O227 Zn224 2.031 . S
O227 C231 1.269 . S
O228 Zn225 1.986 . S
O228 C235 1.262 . S
O229 Zn224 2.049 . S
O229 C237 1.260 . S
O230 Zn225 1.996 . S
O230 C237 1.257 . S
C231 O226 1.254 . S
C231 O227 1.269 . S
C232 O233 1.249 . S
C232 O234 1.270 . S
O233 Zn225 1.943 . S
O233 C232 1.249 . S
O234 Zn224 2.067 . S
O234 C232 1.270 . S
C235 O228 1.262 . S
C235 O236 1.232 . S
O236 C235 1.232 . S
C237 O229 1.260 . S
C237 O230 1.257 . S
Zn238 O241 2.031 . S
Zn238 O243 2.049 . S
Zn238 O248 2.067 . S
Zn239 O240 1.962 . S
Zn239 O242 1.986 . S
Zn239 O244 1.996 . S
Zn239 O247 1.943 . S
O240 Zn239 1.962 . S
O240 C245 1.254 . S
O241 Zn238 2.031 . S
O241 C245 1.269 . S
O242 Zn239 1.986 . S
O242 C249 1.262 . S
O243 Zn238 2.049 . S
O243 C251 1.260 . S
O244 Zn239 1.996 . S
O244 C251 1.257 . S
C245 O240 1.254 . S
C245 O241 1.269 . S
C246 O247 1.249 . S
C246 O248 1.270 . S
O247 Zn239 1.943 . S
O247 C246 1.249 . S
O248 Zn238 2.067 . S
O248 C246 1.270 . S
C249 O242 1.262 . S
C249 O250 1.232 . S
O250 C249 1.232 . S
C251 O243 1.260 . S
C251 O244 1.257 . S
Zn252 O255 2.031 . S
Zn252 O257 2.049 . S
Zn252 O262 2.067 1_556 S
Zn253 O254 1.962 . S
Zn253 O256 1.986 . S
Zn253 O258 1.996 . S
Zn253 O261 1.943 . S
O254 Zn253 1.962 . S
O254 C259 1.254 1_554 S
O255 Zn252 2.031 . S
O255 C259 1.269 . S
O256 Zn253 1.986 . S
O256 C263 1.262 . S
O257 Zn252 2.049 . S
O257 C265 1.260 1_556 S
O258 Zn253 1.996 . S
O258 C265 1.257 . S
C259 O254 1.254 1_556 S
C259 O255 1.269 . S
C260 O261 1.249 . S
C260 O262 1.270 . S
O261 Zn253 1.943 . S
O261 C260 1.249 . S
O262 Zn252 2.067 1_554 S
O262 C260 1.270 . S
C263 O256 1.262 . S
C263 O264 1.232 . S
O264 C263 1.232 . S
C265 O257 1.260 1_554 S
C265 O258 1.257 . S
Zn266 O269 2.031 . S
Zn266 O271 2.049 . S
Zn266 O276 2.067 . S
Zn267 O268 1.962 . S
Zn267 O270 1.986 . S
Zn267 O272 1.996 . S
Zn267 O275 1.943 . S
O268 Zn267 1.962 . S
O268 C273 1.254 . S
O269 Zn266 2.031 . S
O269 C273 1.269 . S
O270 Zn267 1.986 . S
O270 C277 1.262 . S
O271 Zn266 2.049 . S
O271 C279 1.260 . S
O272 Zn267 1.996 . S
O272 C279 1.257 . S
C273 O268 1.254 . S
C273 O269 1.269 . S
C274 O275 1.249 . S
C274 O276 1.270 . S
O275 Zn267 1.943 . S
O275 C274 1.249 . S
O276 Zn266 2.067 . S
O276 C274 1.270 . S
C277 O270 1.262 . S
C277 O278 1.232 . S
O278 C277 1.232 . S
C279 O271 1.260 . S
C279 O272 1.257 . S
Zn280 O283 2.031 . S
Zn280 O285 2.049 . S
Zn280 O290 2.067 . S
Zn281 O282 1.962 . S
Zn281 O284 1.986 . S
Zn281 O286 1.996 . S
Zn281 O289 1.943 . S
O282 Zn281 1.962 . S
O282 C287 1.254 . S
O283 Zn280 2.031 . S
O283 C287 1.269 . S
O284 Zn281 1.986 . S
O284 C291 1.262 . S
O285 Zn280 2.049 . S
O285 C293 1.260 . S
O286 Zn281 1.996 . S
O286 C293 1.257 . S
C287 O282 1.254 . S
C287 O283 1.269 . S
C288 O289 1.249 . S
C288 O290 1.270 . S
O289 Zn281 1.943 . S
O289 C288 1.249 . S
O290 Zn280 2.067 . S
O290 C288 1.270 . S
C291 O284 1.262 . S
C291 O292 1.232 . S
O292 C291 1.232 . S
C293 O285 1.260 . S
C293 O286 1.257 . S
Zn294 O297 2.031 . S
Zn294 O299 2.049 . S
Zn294 O304 2.067 . S
Zn295 O296 1.962 . S
Zn295 O298 1.986 . S
Zn295 O300 1.996 . S
Zn295 O303 1.943 . S
O296 Zn295 1.962 . S
O296 C301 1.254 . S
O297 Zn294 2.031 . S
O297 C301 1.269 . S
O298 Zn295 1.986 . S
O298 C305 1.262 . S
O299 Zn294 2.049 . S
O299 C307 1.260 . S
O300 Zn295 1.996 . S
O300 C307 1.257 . S
C301 O296 1.254 . S
C301 O297 1.269 . S
C302 O303 1.249 . S
C302 O304 1.270 . S
O303 Zn295 1.943 . S
O303 C302 1.249 . S
O304 Zn294 2.067 . S
O304 C302 1.270 . S
C305 O298 1.262 . S
C305 O306 1.232 . S
O306 C305 1.232 . S
C307 O299 1.260 . S
C307 O300 1.257 . S
Zn308 O311 2.031 . S
Zn308 O313 2.049 . S
Zn308 O318 2.067 1_554 S
Zn309 O310 1.962 1_565 S
Zn309 O312 1.986 . S
Zn309 O314 1.996 . S
Zn309 O317 1.943 . S
O310 Zn309 1.962 1_545 S
O310 C315 1.254 1_546 S
O311 Zn308 2.031 . S
O311 C315 1.269 . S
O312 Zn309 1.986 . S
O312 C319 1.262 . S
O313 Zn308 2.049 . S
O313 C321 1.260 1_554 S
O314 Zn309 1.996 . S
O314 C321 1.257 . S
C315 O310 1.254 1_564 S
C315 O311 1.269 . S
C316 O317 1.249 . S
C316 O318 1.270 . S
O317 Zn309 1.943 . S
O317 C316 1.249 . S
O318 Zn308 2.067 1_556 S
O318 C316 1.270 . S
C319 O312 1.262 . S
C319 O320 1.232 1_565 S
O320 C319 1.232 1_545 S
C321 O313 1.260 1_556 S
C321 O314 1.257 . S
Zn322 O325 2.031 . S
Zn322 O327 2.049 . S
Zn322 O332 2.067 . S
Zn323 O324 1.962 1_545 S
Zn323 O326 1.986 . S
Zn323 O328 1.996 . S
Zn323 O331 1.943 . S
O324 Zn323 1.962 1_565 S
O324 C329 1.254 1_565 S
O325 Zn322 2.031 . S
O325 C329 1.269 . S
O326 Zn323 1.986 . S
O326 C333 1.262 . S
O327 Zn322 2.049 . S
O327 C335 1.260 . S
O328 Zn323 1.996 . S
O328 C335 1.257 . S
C329 O324 1.254 1_545 S
C329 O325 1.269 . S
C330 O331 1.249 . S
C330 O332 1.270 . S
O331 Zn323 1.943 . S
O331 C330 1.249 . S
O332 Zn322 2.067 . S
O332 C330 1.270 . S
C333 O326 1.262 . S
C333 O334 1.232 1_545 S
O334 C333 1.232 1_565 S
C335 O327 1.260 . S
C335 O328 1.257 . S
C336 C337 1.387 . S
C336 H340 0.950 . S
C336 C345 1.390 . S
C337 C336 1.387 . S
C337 C339 1.387 . S
H338 C345 0.950 . S
C339 C337 1.387 . S
C339 C341 1.390 . S
C339 H343 0.950 . S
H340 C336 0.950 . S
C341 C339 1.390 . S
C341 C342 1.387 . S
C341 H344 0.950 . S
C342 C341 1.387 . S
C342 C345 1.387 . S
H343 C339 0.950 . S
H344 C341 0.950 . S
C345 C336 1.390 . S
C345 H338 0.950 . S
C345 C342 1.387 . S
C346 C347 1.387 . S
C346 H350 0.950 . S
C346 C355 1.390 . S
C347 C346 1.387 . S
C347 C349 1.387 . S
H348 C355 0.950 . S
C349 C347 1.387 . S
C349 C351 1.390 . S
C349 H353 0.950 . S
H350 C346 0.950 . S
C351 C349 1.390 . S
C351 C352 1.387 . S
C351 H354 0.950 . S
C352 C351 1.387 . S
C352 C355 1.387 . S
H353 C349 0.950 . S
H354 C351 0.950 . S
C355 C346 1.390 . S
C355 H348 0.950 . S
C355 C352 1.387 . S
C356 C357 1.387 . S
C356 H360 0.950 . S
C356 C365 1.390 . S
C357 C356 1.387 . S
C357 C359 1.387 . S
H358 C365 0.950 . S
C359 C357 1.387 . S
C359 C361 1.390 . S
C359 H363 0.950 . S
H360 C356 0.950 . S
C361 C359 1.390 . S
C361 C362 1.387 . S
C361 H364 0.950 1_556 S
C362 C361 1.387 . S
C362 C365 1.387 . S
H363 C359 0.950 . S
H364 C361 0.950 1_554 S
C365 C356 1.390 . S
C365 H358 0.950 . S
C365 C362 1.387 . S
C366 C367 1.387 . S
C366 H370 0.950 . S
C366 C375 1.390 . S
C367 C366 1.387 . S
C367 C369 1.387 . S
H368 C375 0.950 . S
C369 C367 1.387 . S
C369 C371 1.390 . S
C369 H373 0.950 . S
H370 C366 0.950 . S
C371 C369 1.390 . S
C371 C372 1.387 . S
C371 H374 0.950 . S
C372 C371 1.387 . S
C372 C375 1.387 . S
H373 C369 0.950 . S
H374 C371 0.950 . S
C375 C366 1.390 . S
C375 H368 0.950 . S
C375 C372 1.387 . S
C376 C377 1.387 . S
C376 H380 0.950 . S
C376 C385 1.390 . S
C377 C376 1.387 . S
C377 C379 1.387 . S
H378 C385 0.950 . S
C379 C377 1.387 . S
C379 C381 1.390 . S
C379 H383 0.950 . S
H380 C376 0.950 . S
C381 C379 1.390 . S
C381 C382 1.387 . S
C381 H384 0.950 . S
C382 C381 1.387 . S
C382 C385 1.387 . S
H383 C379 0.950 . S
H384 C381 0.950 . S
C385 C376 1.390 . S
C385 H378 0.950 . S
C385 C382 1.387 . S
C386 C387 1.387 . S
C386 H390 0.950 . S
C386 C395 1.390 . S
C387 C386 1.387 . S
C387 C389 1.387 . S
H388 C395 0.950 . S
C389 C387 1.387 . S
C389 C391 1.390 . S
C389 H393 0.950 . S
H390 C386 0.950 . S
C391 C389 1.390 . S
C391 C392 1.387 . S
C391 H394 0.950 . S
C392 C391 1.387 . S
C392 C395 1.387 . S
H393 C389 0.950 . S
H394 C391 0.950 . S
C395 C386 1.390 . S
C395 H388 0.950 . S
C395 C392 1.387 . S
C396 C397 1.387 . S
C396 H400 0.950 . S
C396 C405 1.390 . S
C397 C396 1.387 . S
C397 C399 1.387 . S
H398 C405 0.950 1_556 S
C399 C397 1.387 . S
C399 C401 1.390 . S
C399 H403 0.950 . S
H400 C396 0.950 . S
C401 C399 1.390 . S
C401 C402 1.387 . S
C401 H404 0.950 . S
C402 C401 1.387 . S
C402 C405 1.387 . S
H403 C399 0.950 . S
H404 C401 0.950 . S
C405 C396 1.390 . S
C405 H398 0.950 1_554 S
C405 C402 1.387 . S
C406 C407 1.387 . S
C406 H410 0.950 . S
C406 C415 1.390 . S
C407 C406 1.387 . S
C407 C409 1.387 . S
H408 C415 0.950 . S
C409 C407 1.387 . S
C409 C411 1.390 . S
C409 H413 0.950 . S
H410 C406 0.950 . S
C411 C409 1.390 . S
C411 C412 1.387 . S
C411 H414 0.950 . S
C412 C411 1.387 . S
C412 C415 1.387 . S
H413 C409 0.950 . S
H414 C411 0.950 . S
C415 C406 1.390 . S
C415 H408 0.950 . S
C415 C412 1.387 . S
C416 C417 1.387 . S
C416 H420 0.950 . S
C416 C425 1.390 . S
C417 C416 1.387 . S
C417 C419 1.387 . S
H418 C425 0.950 . S
C419 C417 1.387 . S
C419 C421 1.390 . S
C419 H423 0.950 . S
H420 C416 0.950 . S
C421 C419 1.390 . S
C421 C422 1.387 . S
C421 H424 0.950 . S
C422 C421 1.387 . S
C422 C425 1.387 . S
H423 C419 0.950 . S
H424 C421 0.950 . S
C425 C416 1.390 . S
C425 H418 0.950 . S
C425 C422 1.387 . S
C426 C427 1.387 . S
C426 H430 0.950 . S
C426 C435 1.390 . S
C427 C426 1.387 . S
C427 C429 1.387 . S
H428 C435 0.950 . S
C429 C427 1.387 . S
C429 C431 1.390 . S
C429 H433 0.950 . S
H430 C426 0.950 . S
C431 C429 1.390 . S
C431 C432 1.387 . S
C431 H434 0.950 . S
C432 C431 1.387 . S
C432 C435 1.387 . S
H433 C429 0.950 . S
H434 C431 0.950 . S
C435 C426 1.390 . S
C435 H428 0.950 . S
C435 C432 1.387 . S
C436 C437 1.387 . S
C436 H440 0.950 . S
C436 C445 1.390 . S
C437 C436 1.387 . S
C437 C439 1.387 . S
H438 C445 0.950 . S
C439 C437 1.387 . S
C439 C441 1.390 . S
C439 H443 0.950 . S
H440 C436 0.950 . S
C441 C439 1.390 . S
C441 C442 1.387 . S
C441 H444 0.950 . S
C442 C441 1.387 . S
C442 C445 1.387 . S
H443 C439 0.950 . S
H444 C441 0.950 . S
C445 C436 1.390 . S
C445 H438 0.950 . S
C445 C442 1.387 . S
C446 C447 1.387 . S
C446 H450 0.950 . S
C446 C455 1.390 . S
C447 C446 1.387 . S
C447 C449 1.387 . S
H448 C455 0.950 . S
C449 C447 1.387 . S
C449 C451 1.390 . S
C449 H453 0.950 . S
H450 C446 0.950 . S
C451 C449 1.390 . S
C451 C452 1.387 . S
C451 H454 0.950 . S
C452 C451 1.387 . S
C452 C455 1.387 . S
H453 C449 0.950 . S
H454 C451 0.950 . S
C455 C446 1.390 . S
C455 H448 0.950 . S
C455 C452 1.387 . S
C456 C457 1.387 . S
C456 H460 0.950 . S
C456 C465 1.390 . S
C457 C456 1.387 . S
C457 C459 1.387 . S
H458 C465 0.950 . S
C459 C457 1.387 . S
C459 C461 1.390 . S
C459 H463 0.950 . S
H460 C456 0.950 . S
C461 C459 1.390 . S
C461 C462 1.387 . S
C461 H464 0.950 . S
C462 C461 1.387 . S
C462 C465 1.387 . S
H463 C459 0.950 . S
H464 C461 0.950 . S
C465 C456 1.390 . S
C465 H458 0.950 . S
C465 C462 1.387 . S
C466 C467 1.387 1_545 S
C466 H470 0.950 . S
C466 C475 1.390 . S
C467 C466 1.387 1_565 S
C467 C469 1.387 . S
H468 C475 0.950 . S
C469 C467 1.387 . S
C469 C471 1.390 1_565 S
C469 H473 0.950 . S
H470 C466 0.950 . S
C471 C469 1.390 1_545 S
C471 C472 1.387 . S
C471 H474 0.950 . S
C472 C471 1.387 . S
C472 C475 1.387 . S
H473 C469 0.950 . S
H474 C471 0.950 . S
C475 C466 1.390 . S
C475 H468 0.950 . S
C475 C472 1.387 . S
C476 C477 1.387 . S
C476 H480 0.950 . S
C476 C485 1.390 . S
C477 C476 1.387 . S
C477 C479 1.387 . S
H478 C485 0.950 . S
C479 C477 1.387 . S
C479 C481 1.390 . S
C479 H483 0.950 . S
H480 C476 0.950 . S
C481 C479 1.390 . S
C481 C482 1.387 1_556 S
C481 H484 0.950 1_556 S
C482 C481 1.387 1_554 S
C482 C485 1.387 1_554 S
H483 C479 0.950 . S
H484 C481 0.950 1_554 S
C485 C476 1.390 . S
C485 H478 0.950 . S
C485 C482 1.387 1_556 S
C486 C487 1.387 . S
C486 H490 0.950 . S
C486 C495 1.390 1_545 S
C487 C486 1.387 . S
C487 C489 1.387 1_545 S
H488 C495 0.950 . S
C489 C487 1.387 1_565 S
C489 C491 1.390 . S
C489 H493 0.950 . S
H490 C486 0.950 . S
C491 C489 1.390 . S
C491 C492 1.387 . S
C491 H494 0.950 . S
C492 C491 1.387 . S
C492 C495 1.387 . S
H493 C489 0.950 . S
H494 C491 0.950 . S
C495 C486 1.390 1_565 S
C495 H488 0.950 . S
C495 C492 1.387 . S
C496 C497 1.387 . S
C496 H500 0.950 . S
C496 C505 1.390 . S
C497 C496 1.387 . S
C497 C499 1.387 . S
H498 C505 0.950 . S
C499 C497 1.387 . S
C499 C501 1.390 . S
C499 H503 0.950 . S
H500 C496 0.950 . S
C501 C499 1.390 . S
C501 C502 1.387 . S
C501 H504 0.950 . S
C502 C501 1.387 . S
C502 C505 1.387 . S
H503 C499 0.950 . S
H504 C501 0.950 . S
C505 C496 1.390 . S
C505 H498 0.950 . S
C505 C502 1.387 . S
C506 C507 1.387 . S
C506 H510 0.950 . S
C506 C515 1.390 . S
C507 C506 1.387 . S
C507 C509 1.387 . S
H508 C515 0.950 . S
C509 C507 1.387 . S
C509 C511 1.390 . S
C509 H513 0.950 . S
H510 C506 0.950 . S
C511 C509 1.390 . S
C511 C512 1.387 . S
C511 H514 0.950 . S
C512 C511 1.387 . S
C512 C515 1.387 . S
H513 C509 0.950 . S
H514 C511 0.950 . S
C515 C506 1.390 . S
C515 H508 0.950 . S
C515 C512 1.387 . S
C516 C517 1.387 . S
C516 H520 0.950 . S
C516 C525 1.390 1_556 S
C517 C516 1.387 . S
C517 C519 1.387 1_556 S
H518 C525 0.940 1_556 S
C519 C517 1.387 1_554 S
C519 C521 1.390 . S
C519 H523 0.950 . S
H520 C516 0.950 . S
C521 C519 1.390 . S
C521 C522 1.387 . S
C521 H524 0.950 . S
C522 C521 1.387 . S
C522 C525 1.387 . S
H523 C519 0.950 . S
H524 C521 0.950 . S
C525 C516 1.390 1_554 S
C525 H518 0.940 1_554 S
C525 C522 1.387 . S
C526 C527 1.387 . S
C526 H530 0.950 . S
C526 C535 1.390 . S
C527 C526 1.387 . S
C527 C529 1.387 . S
H528 C535 0.950 . S
C529 C527 1.387 . S
C529 C531 1.390 . S
C529 H533 0.950 . S
H530 C526 0.950 . S
C531 C529 1.390 . S
C531 C532 1.387 . S
C531 H534 0.950 . S
C532 C531 1.387 . S
C532 C535 1.387 . S
H533 C529 0.950 . S
H534 C531 0.950 . S
C535 C526 1.390 . S
C535 H528 0.950 . S
C535 C532 1.387 . S
C536 C537 1.387 . S
C536 H540 0.950 . S
C536 C545 1.390 . S
C537 C536 1.387 . S
C537 C539 1.387 . S
H538 C545 0.950 . S
C539 C537 1.387 . S
C539 C541 1.390 . S
C539 H543 0.950 . S
H540 C536 0.950 . S
C541 C539 1.390 . S
C541 C542 1.387 . S
C541 H544 0.950 . S
C542 C541 1.387 . S
C542 C545 1.387 . S
H543 C539 0.950 . S
H544 C541 0.950 . S
C545 C536 1.390 . S
C545 H538 0.950 . S
C545 C542 1.387 . S
C546 C547 1.387 1_655 S
C546 H550 0.950 . S
C546 C555 1.390 . S
C547 C546 1.387 1_455 S
C547 C549 1.387 . S
H548 C555 0.950 . S
C549 C547 1.387 . S
C549 C551 1.390 1_455 S
C549 H553 0.950 . S
H550 C546 0.950 . S
C551 C549 1.390 1_655 S
C551 C552 1.387 . S
C551 H554 0.950 1_655 S
C552 C551 1.387 . S
C552 C555 1.387 . S
H553 C549 0.950 . S
H554 C551 0.950 1_455 S
C555 C546 1.390 . S
C555 H548 0.950 . S
C555 C552 1.387 . S
C556 C557 1.387 1_455 S
C556 H560 0.959 . S
C556 C565 1.390 . S
C557 C556 1.387 1_655 S
C557 C559 1.387 1_655 S
H558 C565 0.950 . S
C559 C557 1.387 1_455 S
C559 C561 1.390 . S
C559 H563 0.950 . S
H560 C556 0.959 . S
C561 C559 1.390 . S
C561 C562 1.387 . S
C561 H564 0.950 . S
C562 C561 1.387 . S
C562 C565 1.387 . S
H563 C559 0.950 . S
H564 C561 0.950 . S
C565 C556 1.390 . S
C565 H558 0.950 . S
C565 C562 1.387 . S
C566 C567 1.387 . S
C566 H570 0.950 . S
C566 C575 1.390 . S
C567 C566 1.387 . S
C567 C569 1.387 . S
H568 C575 0.950 . S
C569 C567 1.387 . S
C569 C571 1.390 . S
C569 H573 0.950 . S
H570 C566 0.950 . S
C571 C569 1.390 . S
C571 C572 1.387 . S
C571 H574 0.950 . S
C572 C571 1.387 . S
C572 C575 1.387 . S
H573 C569 0.950 . S
H574 C571 0.950 . S
C575 C566 1.390 . S
C575 H568 0.950 . S
C575 C572 1.387 . S
C576 C577 1.387 . S
C576 H580 0.950 . S
C576 C585 1.390 . S
C577 C576 1.387 . S
C577 C579 1.387 . S
H578 C585 0.950 . S
C579 C577 1.387 . S
C579 C581 1.390 . S
C579 H583 0.950 . S
H580 C576 0.950 . S
C581 C579 1.390 . S
C581 C582 1.387 . S
C581 H584 0.950 . S
C582 C581 1.387 . S
C582 C585 1.387 . S
H583 C579 0.950 . S
H584 C581 0.950 . S
C585 C576 1.390 . S
C585 H578 0.950 . S
C585 C582 1.387 . S
C586 C587 1.387 . S
C586 H590 0.950 . S
C586 C595 1.390 . S
C587 C586 1.387 . S
C587 C589 1.401 . S
H588 C595 0.950 . S
C589 C587 1.401 . S
C589 C591 1.405 . S
C589 H593 0.922 1_565 S
H590 C586 0.950 . S
C591 C589 1.405 . S
C591 C592 1.387 . S
C591 H594 0.950 . S
C592 C591 1.387 . S
C592 C595 1.387 . S
H593 C589 0.922 1_545 S
H594 C591 0.950 . S
C595 C586 1.390 . S
C595 H588 0.950 . S
C595 C592 1.387 . S
C596 C597 1.387 . S
C596 H600 0.950 . S
C596 C605 1.390 . S
C597 C596 1.387 . S
C597 C599 1.387 . S
H598 C605 0.950 . S
C599 C597 1.387 . S
C599 C601 1.390 . S
C599 H603 0.950 . S
H600 C596 0.950 . S
C601 C599 1.390 . S
C601 C602 1.387 . S
C601 H604 0.950 . S
C602 C601 1.387 . S
C602 C605 1.387 . S
H603 C599 0.950 . S
H604 C601 0.950 . S
C605 C596 1.390 . S
C605 H598 0.950 . S
C605 C602 1.387 . S
C606 C607 1.387 . S
C606 H610 0.950 . S
C606 C615 1.390 . S
C607 C606 1.387 . S
C607 C609 1.387 . S
H608 C615 0.933 1_556 S
C609 C607 1.387 . S
C609 C611 1.390 . S
C609 H613 0.950 . S
H610 C606 0.950 . S
C611 C609 1.390 . S
C611 C612 1.387 . S
C611 H614 0.950 . S
C612 C611 1.387 . S
C612 C615 1.387 . S
H613 C609 0.950 . S
H614 C611 0.950 . S
C615 C606 1.390 . S
C615 H608 0.933 1_554 S
C615 C612 1.387 . S
C616 C617 1.387 . S
C616 H620 0.950 . S
C616 C625 1.390 . S
C617 C616 1.387 . S
C617 C619 1.387 . S
H618 C625 0.950 . S
C619 C617 1.387 . S
C619 C621 1.390 . S
C619 H623 0.950 . S
H620 C616 0.950 . S
C621 C619 1.390 . S
C621 C622 1.387 . S
C621 H624 0.950 . S
C622 C621 1.387 . S
C622 C625 1.387 . S
H623 C619 0.950 . S
H624 C621 0.950 . S
C625 C616 1.390 . S
C625 H618 0.950 . S
C625 C622 1.387 . S
C626 C627 1.387 . S
C626 H630 0.950 . S
C626 C635 1.390 . S
C627 C626 1.387 . S
C627 C629 1.387 . S
H628 C635 0.950 . S
C629 C627 1.387 . S
C629 C631 1.390 . S
C629 H633 0.950 . S
H630 C626 0.950 . S
C631 C629 1.390 . S
C631 C632 1.387 . S
C631 H634 0.950 . S
C632 C631 1.387 . S
C632 C635 1.387 . S
H633 C629 0.950 . S
H634 C631 0.950 . S
C635 C626 1.390 . S
C635 H628 0.950 . S
C635 C632 1.387 . S
C636 C637 1.387 . S
C636 H640 0.950 . S
C636 C645 1.390 . S
C637 C636 1.387 . S
C637 C639 1.387 . S
H638 C645 0.950 . S
C639 C637 1.387 . S
C639 C641 1.390 . S
C639 H643 0.950 . S
H640 C636 0.950 . S
C641 C639 1.390 . S
C641 C642 1.387 . S
C641 H644 0.950 . S
C642 C641 1.387 . S
C642 C645 1.387 . S
H643 C639 0.950 . S
H644 C641 0.950 . S
C645 C636 1.390 . S
C645 H638 0.950 . S
C645 C642 1.387 . S
C646 C647 1.387 . S
C646 H650 0.950 . S
C646 C655 1.390 . S
C647 C646 1.387 . S
C647 C649 1.387 . S
H648 C655 0.950 . S
C649 C647 1.387 . S
C649 C651 1.390 . S
C649 H653 0.950 . S
H650 C646 0.950 . S
C651 C649 1.390 . S
C651 C652 1.387 . S
C651 H654 0.950 . S
C652 C651 1.387 . S
C652 C655 1.387 . S
H653 C649 0.950 . S
H654 C651 0.950 . S
C655 C646 1.390 . S
C655 H648 0.950 . S
C655 C652 1.387 . S
C656 C657 1.387 . S
C656 H660 0.950 . S
C656 C665 1.390 . S
C657 C656 1.387 . S
C657 C659 1.387 . S
H658 C665 0.950 . S
C659 C657 1.387 . S
C659 C661 1.390 . S
C659 H663 0.950 . S
H660 C656 0.950 . S
C661 C659 1.390 . S
C661 C662 1.387 . S
C661 H664 0.950 . S
C662 C661 1.387 . S
C662 C665 1.387 . S
H663 C659 0.950 . S
H664 C661 0.950 . S
C665 C656 1.390 . S
C665 H658 0.950 . S
C665 C662 1.387 . S
C666 C667 1.387 . S
C666 H670 0.950 . S
C666 C675 1.390 . S
C667 C666 1.387 . S
C667 C669 1.387 . S
H668 C675 0.950 . S
C669 C667 1.387 . S
C669 C671 1.390 . S
C669 H673 0.950 . S
H670 C666 0.950 . S
C671 C669 1.390 . S
C671 C672 1.387 . S
C671 H674 0.950 . S
C672 C671 1.387 . S
C672 C675 1.387 . S
H673 C669 0.950 . S
H674 C671 0.950 . S
C675 C666 1.390 . S
C675 H668 0.950 . S
C675 C672 1.387 . S
C676 C677 1.387 . S
C676 H680 0.950 . S
C676 C685 1.390 . S
C677 C676 1.387 . S
C677 C679 1.387 . S
H678 C685 0.950 . S
C679 C677 1.387 . S
C679 C681 1.390 . S
C679 H683 0.950 . S
H680 C676 0.950 . S
C681 C679 1.390 . S
C681 C682 1.387 . S
C681 H684 0.950 . S
C682 C681 1.387 . S
C682 C685 1.387 . S
H683 C679 0.950 . S
H684 C681 0.950 . S
C685 C676 1.390 . S
C685 H678 0.950 . S
C685 C682 1.387 . S
C686 C687 1.387 . S
C686 H690 0.950 . S
C686 C695 1.390 . S
C687 C686 1.387 . S
C687 C689 1.387 . S
H688 C695 0.950 . S
C689 C687 1.387 . S
C689 C691 1.390 . S
C689 H693 0.950 . S
H690 C686 0.950 . S
C691 C689 1.390 . S
C691 C692 1.387 . S
C691 H694 0.950 . S
C692 C691 1.387 . S
C692 C695 1.387 . S
H693 C689 0.950 . S
H694 C691 0.950 . S
C695 C686 1.390 . S
C695 H688 0.950 . S
C695 C692 1.387 . S
C696 C697 1.387 . S
C696 H700 0.950 . S
C696 C705 1.390 . S
C697 C696 1.387 . S
C697 C699 1.387 . S
H698 C705 0.950 . S
C699 C697 1.387 . S
C699 C701 1.390 . S
C699 H703 0.950 . S
H700 C696 0.950 . S
C701 C699 1.390 . S
C701 C702 1.387 . S
C701 H704 0.950 . S
C702 C701 1.387 . S
C702 C705 1.387 . S
H703 C699 0.950 . S
H704 C701 0.950 . S
C705 C696 1.390 . S
C705 H698 0.950 . S
C705 C702 1.387 . S
C706 C707 1.387 . S
C706 H710 0.950 . S
C706 C715 1.390 . S
C707 C706 1.387 . S
C707 C709 1.387 . S
H708 C715 0.950 . S
C709 C707 1.387 . S
C709 C711 1.390 . S
C709 H713 0.950 . S
H710 C706 0.950 . S
C711 C709 1.390 . S
C711 C712 1.387 . S
C711 H714 0.950 . S
C712 C711 1.387 . S
C712 C715 1.387 . S
H713 C709 0.950 . S
H714 C711 0.950 . S
C715 C706 1.390 . S
C715 H708 0.950 . S
C715 C712 1.387 . S
C716 C717 1.387 . S
C716 H720 0.950 . S
C716 C725 1.390 . S
C717 C716 1.387 . S
C717 C719 1.387 . S
H718 C725 0.950 . S
C719 C717 1.387 . S
C719 C721 1.390 . S
C719 H723 0.950 . S
H720 C716 0.950 . S
C721 C719 1.390 . S
C721 C722 1.387 . S
C721 H724 0.950 . S
C722 C721 1.387 . S
C722 C725 1.387 . S
H723 C719 0.950 . S
H724 C721 0.950 . S
C725 C716 1.390 . S
C725 H718 0.950 . S
C725 C722 1.387 . S
C726 C727 1.387 . S
C726 H730 0.950 . S
C726 C735 1.390 . S
C727 C726 1.387 . S
C727 C729 1.387 . S
H728 C735 0.950 . S
C729 C727 1.387 . S
C729 C731 1.390 . S
C729 H733 0.950 . S
H730 C726 0.950 . S
C731 C729 1.390 . S
C731 C732 1.387 . S
C731 H734 0.950 . S
C732 C731 1.387 . S
C732 C735 1.387 . S
H733 C729 0.950 . S
H734 C731 0.950 . S
C735 C726 1.390 . S
C735 H728 0.950 . S
C735 C732 1.387 . S
C736 C737 1.387 . S
C736 H740 0.950 . S
C736 C745 1.390 . S
C737 C736 1.387 . S
C737 C739 1.387 . S
H738 C745 0.950 . S
C739 C737 1.387 . S
C739 C741 1.390 . S
C739 H743 0.950 . S
H740 C736 0.950 . S
C741 C739 1.390 . S
C741 C742 1.387 . S
C741 H744 0.950 . S
C742 C741 1.387 . S
C742 C745 1.387 . S
H743 C739 0.950 . S
H744 C741 0.950 . S
C745 C736 1.390 . S
C745 H738 0.950 . S
C745 C742 1.387 . S
C746 C747 1.387 . S
C746 H750 0.950 . S
C746 C755 1.390 . S
C747 C746 1.387 . S
C747 C749 1.387 . S
H748 C755 0.950 . S
C749 C747 1.387 . S
C749 C751 1.390 . S
C749 H753 0.950 . S
H750 C746 0.950 . S
C751 C749 1.390 . S
C751 C752 1.387 . S
C751 H754 0.950 . S
C752 C751 1.387 . S
C752 C755 1.387 . S
H753 C749 0.950 . S
H754 C751 0.950 . S
C755 C746 1.390 . S
C755 H748 0.950 . S
C755 C752 1.387 . S
C756 C757 1.387 . S
C756 H760 0.950 1_554 S
C756 C765 1.390 . S
C757 C756 1.387 . S
C757 C759 1.387 . S
H758 C765 0.950 . S
C759 C757 1.387 . S
C759 C761 1.390 . S
C759 H763 0.950 . S
H760 C756 0.950 1_556 S
C761 C759 1.390 . S
C761 C762 1.387 . S
C761 H764 0.950 . S
C762 C761 1.387 . S
C762 C765 1.387 . S
H763 C759 0.950 . S
H764 C761 0.950 . S
C765 C756 1.390 . S
C765 H758 0.950 . S
C765 C762 1.387 . S
C766 C767 1.387 . S
C766 H770 0.950 . S
C766 C775 1.390 . S
C767 C766 1.387 . S
C767 C769 1.387 . S
H768 C775 0.950 . S
C769 C767 1.387 . S
C769 C771 1.390 . S
C769 H773 0.950 . S
H770 C766 0.950 . S
C771 C769 1.390 . S
C771 C772 1.387 . S
C771 H774 0.950 . S
C772 C771 1.387 . S
C772 C775 1.387 . S
H773 C769 0.950 . S
H774 C771 0.950 . S
C775 C766 1.390 . S
C775 H768 0.950 . S
C775 C772 1.387 . S
C776 C777 1.387 . S
C776 H780 0.950 . S
C776 C785 1.390 . S
C777 C776 1.387 . S
C777 C779 1.387 . S
H778 C785 0.950 . S
C779 C777 1.387 . S
C779 C781 1.390 . S
C779 H783 0.950 . S
H780 C776 0.950 . S
C781 C779 1.390 . S
C781 C782 1.387 . S
C781 H784 0.950 . S
C782 C781 1.387 . S
C782 C785 1.387 . S
H783 C779 0.950 . S
H784 C781 0.950 . S
C785 C776 1.390 . S
C785 H778 0.950 . S
C785 C782 1.387 . S
C786 C787 1.387 . S
C786 H790 0.950 . S
C786 C795 1.390 . S
C787 C786 1.387 . S
C787 C789 1.387 . S
H788 C795 0.950 . S
C789 C787 1.387 . S
C789 C791 1.390 . S
C789 H793 0.950 . S
H790 C786 0.950 . S
C791 C789 1.390 . S
C791 C792 1.387 . S
C791 H794 0.950 . S
C792 C791 1.387 . S
C792 C795 1.387 . S
H793 C789 0.950 . S
H794 C791 0.950 . S
C795 C786 1.390 . S
C795 H788 0.950 . S
C795 C792 1.387 . S
C796 C797 1.387 . S
C796 H800 0.950 . S
C796 C805 1.390 . S
C797 C796 1.387 . S
C797 C799 1.387 . S
H798 C805 0.950 . S
C799 C797 1.387 . S
C799 C801 1.390 . S
C799 H803 0.950 1_556 S
H800 C796 0.950 . S
C801 C799 1.390 . S
C801 C802 1.387 . S
C801 H804 0.950 . S
C802 C801 1.387 . S
C802 C805 1.387 . S
H803 C799 0.950 1_554 S
H804 C801 0.950 . S
C805 C796 1.390 . S
C805 H798 0.950 . S
C805 C802 1.387 . S
C806 C807 1.387 . S
C806 H810 0.950 . S
C806 C815 1.390 . S
C807 C806 1.387 . S
C807 C809 1.387 . S
H808 C815 0.950 1_455 S
C809 C807 1.387 . S
C809 C811 1.390 . S
C809 H813 0.950 . S
H810 C806 0.950 . S
C811 C809 1.390 . S
C811 C812 1.387 . S
C811 H814 0.950 . S
C812 C811 1.387 . S
C812 C815 1.387 . S
H813 C809 0.950 . S
H814 C811 0.950 . S
C815 C806 1.390 . S
C815 H808 0.950 1_655 S
C815 C812 1.387 . S
C337 C137 1.329 . S
C342 C11 1.329 . S
C347 C25 1.331 1_455 S
C352 C151 1.330 . S
C357 C39 1.333 . S
C362 C165 1.333 1_556 S
C367 C53 1.332 . S
C372 C123 1.331 . S
C377 C67 1.330 . S
C382 C221 1.330 . S
C387 C179 1.331 . S
C392 C81 1.330 1_655 S
C397 C95 1.329 . S
C402 C193 1.329 1_554 S
C407 C207 1.331 . S
C412 C109 1.331 . S
C417 C235 1.330 . S
C422 C263 1.331 . S
C427 C319 1.331 1_545 S
C432 C249 1.330 . S
C437 C277 1.330 . S
C442 C333 1.331 1_565 S
C447 C305 1.332 . S
C452 C291 1.331 . S
C457 C293 1.408 . S
C462 C13 1.403 . S
C467 C27 1.404 . S
C472 C251 1.407 . S
C477 C41 1.403 . S
C482 C265 1.408 . S
C487 C55 1.403 . S
C492 C279 1.408 . S
C497 C69 1.408 . S
C502 C335 1.404 . S
C507 C307 1.404 . S
C512 C83 1.407 . S
C517 C321 1.404 . S
C522 C97 1.408 . S
C527 C237 1.406 . S
C532 C111 1.406 . S
C537 C223 1.408 . S
C542 C125 1.403 . S
C547 C139 1.406 . S
C552 C181 1.404 . S
C557 C195 1.403 . S
C562 C153 1.408 . S
C567 C209 1.408 . S
C572 C167 1.403 . S
C577 C8 1.039 . S
C582 C231 1.161 . S
C587 C329 1.159 1_565 S
C592 C22 1.043 . S
C597 C301 1.161 . S
C602 C36 1.039 . S
C607 C50 1.039 . S
C612 C315 1.161 1_545 S
C617 C64 1.046 . S
C622 C245 1.158 . S
C627 C259 1.161 . S
C632 C78 1.040 . S
C637 C273 1.158 . S
C642 C92 1.045 . S
C647 C287 1.160 . S
C652 C106 1.042 . S
C657 C7 1.161 . S
C662 C120 1.039 . S
C667 C21 1.161 1_455 S
C672 C134 1.039 . S
C677 C35 1.161 . S
C682 C148 1.040 . S
C687 C49 1.158 . S
C692 C162 1.046 . S
C697 C63 1.159 . S
C702 C176 1.044 . S
C707 C77 1.161 1_655 S
C712 C190 1.039 . S
C717 C204 1.040 . S
C722 C91 1.161 . S
C727 C105 1.158 . S
C732 C218 1.046 . S
C737 C119 1.161 . S
C742 C232 1.039 . S
C747 C246 1.040 . S
C752 C175 1.160 . S
C757 C189 1.161 1_554 S
C762 C260 1.039 . S
C767 C274 1.044 . S
C772 C203 1.159 . S
C777 C288 1.039 . S
C782 C217 1.161 . S
C787 C302 1.046 . S
C792 C147 1.158 . S
C797 C161 1.158 1_556 S
C802 C316 1.045 . S
C807 C330 1.040 . S
C812 C133 1.161 . S
