# Generated by pormake.
# Topology sxb, (6)-cn, num edge types: 1
# Building blocks:
#     Node 0, Type 0, BuildingBlock: PAMTUU_clean_sbu_0, # of connection points: 6
#     Node 1, Type 0, BuildingBlock: PAMTUU_clean_sbu_0, # of connection points: 6
#     Node 2, Type 0, BuildingBlock: PAMTUU_clean_sbu_0, # of connection points: 6
#     Node 3, Type 0, BuildingBlock: PAMTUU_clean_sbu_0, # of connection points: 6
#     Edge 4, Type (0, 0), BuildingBlock: UVAHIK_clean_linker_0, # of connection points: 2
#     Edge 5, Type (0, 0), BuildingBlock: UVAHIK_clean_linker_0, # of connection points: 2
#     Edge 6, Type (0, 0), BuildingBlock: UVAHIK_clean_linker_0, # of connection points: 2
#     Edge 7, Type (0, 0), BuildingBlock: UVAHIK_clean_linker_0, # of connection points: 2
#     Edge 8, Type (0, 0), BuildingBlock: UVAHIK_clean_linker_0, # of connection points: 2
#     Edge 9, Type (0, 0), BuildingBlock: UVAHIK_clean_linker_0, # of connection points: 2
#     Edge 10, Type (0, 0), BuildingBlock: UVAHIK_clean_linker_0, # of connection points: 2
#     Edge 11, Type (0, 0), BuildingBlock: UVAHIK_clean_linker_0, # of connection points: 2
#     Edge 12, Type (0, 0), BuildingBlock: UVAHIK_clean_linker_0, # of connection points: 2
#     Edge 13, Type (0, 0), BuildingBlock: UVAHIK_clean_linker_0, # of connection points: 2
#     Edge 14, Type (0, 0), BuildingBlock: UVAHIK_clean_linker_0, # of connection points: 2
#     Edge 15, Type (0, 0), BuildingBlock: UVAHIK_clean_linker_0, # of connection points: 2
# Relax obj value: 0.073
# Max RMSD: 0.147
# Mean RMSD: 0.147
data_MOF--net-sxb--node1-PAMTUU_clean_sbu_0--edge1-UVAHIK_clean_linker_0
_symmetry_space_group_name_H-M    P1
_symmetry_Int_Tables_number       1
_symmetry_cell_setting            triclinic
loop_
_symmetry_equiv_pos_as_xyz
'x, y, z'
_cell_length_a     29.186262
_cell_length_b     25.775058
_cell_length_c     39.194281
_cell_angle_alpha  89.546787
_cell_angle_beta   99.898143
_cell_angle_gamma 89.960179
loop_
_atom_site_label
_atom_site_type_symbol
_atom_site_fract_x
_atom_site_fract_y
_atom_site_fract_z
_atom_type_partial_charge
Tb0 Tb 0.04098 0.01101 0.00616 0.0
Tb1 Tb 0.95332 0.9267 -0.00204 0.0
C2 C 1.00414 0.96391 0.06962 0.0
C3 C 0.16418 0.04913 0.01432 0.0
C4 C 0.2581 0.01983 0.01572 0.0
C5 C 0.24439 0.07233 0.01205 0.0
C6 C 0.19791 0.08675 0.01128 0.0
C7 C 0.17763 -0.0032 0.01838 0.0
C8 C 0.22405 0.98227 0.01904 0.0
C9 C 0.11477 0.06416 0.01117 0.0
O10 O 0.06436 0.93832 0.98856 0.0
O11 O 0.01668 0.87989 0.00965 0.0
O12 O 0.97629 0.93574 0.94825 0.0
O13 O 0.99967 0.02011 0.95477 0.0
O14 O 0.91367 0.86941 0.01831 0.0
O15 O 0.89522 0.89605 0.96548 0.0
O16 O 0.92258 0.00362 -0.00623 0.0
O17 O 0.9833 0.05891 0.01539 0.0
O18 O 0.04146 0.97147 0.05567 0.0
O19 O 0.96345 0.95668 0.05018 0.0
C20 C 0.05571 0.89143 -0.00123 0.0
O21 O 0.08873 0.05224 0.98194 0.0
O22 O 0.09438 0.05265 0.03733 0.0
C23 C 0.98587 0.98046 0.93483 0.0
C24 C 0.8334 0.87855 -0.00469 0.0
C25 C 0.73958 0.89614 0.00237 0.0
C26 C 0.75784 0.84538 0.0034 0.0
C27 C 0.80432 0.83672 -4e-05 0.0
C28 C 0.8154 0.92916 -0.00558 0.0
C29 C 0.76913 0.9379 -0.00205 0.0
C30 C 0.88192 0.86944 0.99045 0.0
C31 C 0.93874 0.04875 0.00589 0.0
H32 H 0.2694 0.10226 0.00893 0.0
H33 H 0.18817 0.12727 0.00778 0.0
H34 H 0.15214 0.96708 0.02075 0.0
H35 H 0.23327 0.94161 0.02232 0.0
H36 H 0.73633 0.81231 0.00713 0.0
H37 H 0.81745 0.79733 0.0007 0.0
H38 H 0.83696 0.96199 0.99041 0.0
H39 H 0.75629 0.97743 -0.00355 0.0
Tb40 Tb 0.98021 0.04371 0.50057 0.0
Tb41 Tb 0.06834 0.96056 0.51194 0.0
C42 C 0.02109 -0.00228 0.43944 0.0
C43 C 0.85772 0.08635 0.48986 0.0
C44 C 0.76304 0.06105 0.48886 0.0
C45 C 0.77786 0.11315 0.49033 0.0
C46 C 0.82475 0.12561 0.49093 0.0
C47 C 0.84308 0.0344 0.48788 0.0
C48 C 0.7963 0.02186 0.48745 0.0
C49 C 0.90747 0.09945 0.4924 0.0
O50 O 0.95306 0.97019 0.51422 0.0
O51 O 1.00618 0.91251 0.49875 0.0
O52 O 0.03953 0.96065 0.55947 0.0
O53 O 0.01355 0.04467 0.55481 0.0
O54 O 0.10929 0.90549 0.49133 0.0
O55 O 0.12754 0.93073 0.54418 0.0
O56 O 0.09548 0.03732 0.52518 0.0
O57 O 0.0402 0.08961 0.49291 0.0
O58 O 0.98258 0.00403 0.45198 0.0
O59 O 0.06112 -0.00596 0.46033 0.0
C60 C 0.96492 0.92332 0.50632 0.0
O61 O 0.93329 0.08981 0.52226 0.0
O62 O 0.92764 0.08401 0.46709 0.0
C63 C 0.02594 0.0028 0.57355 0.0
C64 C 0.18918 0.91678 0.51371 0.0
C65 C 0.28213 0.93865 0.50615 0.0
C66 C 0.26756 0.88725 0.5106 0.0
C67 C 0.2216 0.8765 0.51442 0.0
C68 C 0.20319 0.96799 0.50872 0.0
C69 C 0.24914 0.97885 0.5051 0.0
C70 C 0.14126 0.90555 0.51903 0.0
C71 C 0.08287 0.0814 0.50932 0.0
H72 H 0.75339 0.1443 0.49185 0.0
H73 H 0.83537 0.16591 0.49268 0.0
H74 H 0.86788 0.00345 0.48691 0.0
H75 H 0.78617 0.98142 0.48584 0.0
H76 H 0.29158 0.85515 0.51095 0.0
H77 H 0.21146 0.83669 0.51809 0.0
H78 H 0.17869 -0.00029 0.50804 0.0
H79 H 0.25895 0.01895 0.5022 0.0
Tb80 Tb 0.54883 0.53252 0.97766 0.0
Tb81 Tb 0.45988 0.44957 0.9695 0.0
C82 C 0.51477 0.48195 0.041 0.0
C83 C 0.67123 0.57613 0.98726 0.0
C84 C 0.76702 0.55299 -0.00809 0.0
C85 C 0.7514 0.6048 -0.00819 0.0
C86 C 0.70398 0.6162 0.98937 0.0
C87 C 0.68656 0.52445 0.9882 0.0
C88 C 0.73386 0.51296 0.99034 0.0
C89 C 0.62111 0.58828 0.98252 0.0
O90 O 0.57391 0.45849 0.96291 0.0
O91 O 0.52191 0.40101 0.98046 0.0
O92 O 0.48438 0.45567 0.92045 0.0
O93 O 0.50778 0.54008 0.926 0.0
O94 O 0.4202 0.39256 0.9899 0.0
O95 O 0.39984 0.42158 0.9378 0.0
O96 O 0.43088 0.52719 0.96477 0.0
O97 O 0.49194 0.57833 0.99076 0.0
O98 O 0.55138 0.49067 0.02644 0.0
O99 O 0.47326 0.47697 0.02229 0.0
C100 C 0.56256 0.41163 0.97179 0.0
O101 O 0.59669 0.57328 0.95332 0.0
O102 O 0.60018 0.57734 0.00847 0.0
C103 C 0.4944 0.49978 0.90653 0.0
C104 C 0.33989 0.40517 0.9694 0.0
C105 C 0.2478 0.42796 0.97833 0.0
C106 C 0.26059 0.37717 0.97067 0.0
C107 C 0.30623 0.36593 0.9662 0.0
C108 C 0.3275 0.45557 0.97761 0.0
C109 C 0.28206 0.46689 0.98208 0.0
C110 C 0.38727 0.39437 0.9628 0.0
C111 C 0.44736 0.5699 0.9803 0.0
H112 H 0.7758 0.63669 -0.00637 0.0
H113 H 0.69284 0.65635 0.9888 0.0
H114 H 0.66182 0.49297 0.98674 0.0
H115 H 0.74419 0.47265 0.98989 0.0
H116 H 0.23506 0.34634 0.96725 0.0
H117 H 0.31502 0.32682 0.95969 0.0
H118 H 0.3529 0.48637 0.98006 0.0
H119 H 0.27379 0.50623 0.98848 0.0
Tb120 Tb 0.47979 0.53021 0.46846 0.0
Tb121 Tb 0.56948 0.44889 0.48489 0.0
C122 C 0.52917 0.48982 0.40965 0.0
C123 C 0.3579 0.57179 0.46253 0.0
C124 C 0.26497 0.54752 0.46848 0.0
C125 C 0.27645 0.59659 0.45628 0.0
C126 C 0.32246 0.60854 0.45332 0.0
C127 C 0.34685 0.52299 0.47507 0.0
C128 C 0.30089 0.51097 0.47804 0.0
C129 C 0.40588 0.58354 0.45773 0.0
O130 O 0.45622 0.45228 0.45459 0.0
O131 O 0.50897 0.40315 0.49144 0.0
O132 O 0.55981 0.48562 0.53306 0.0
O133 O 0.48144 0.49773 0.51972 0.0
O134 O 0.61118 0.38918 0.46992 0.0
O135 O 0.62874 0.42498 0.51972 0.0
O136 O 0.59589 0.52202 0.46986 0.0
O137 O 0.54114 0.5789 0.48376 0.0
O138 O 0.51152 0.53074 0.42244 0.0
O139 O 0.54429 0.44937 0.42912 0.0
C140 C 0.46751 0.40961 0.47256 0.0
O141 O 0.43696 0.58643 0.48587 0.0
O142 O 0.42104 0.55646 0.43403 0.0
C143 C 0.51943 0.49294 0.5427 0.0
C144 C 0.69102 0.40274 0.49198 0.0
C145 C 0.78488 0.42243 0.48613 0.0
C146 C 0.77204 0.37539 0.50046 0.0
C147 C 0.72559 0.36574 0.50341 0.0
C148 C 0.70343 0.44928 0.47715 0.0
C149 C 0.74979 0.45908 0.47429 0.0
C150 C 0.6428 0.39414 0.49752 0.0
C151 C 0.58297 0.56881 0.47705 0.0
H152 H 0.24989 0.62593 0.44913 0.0
H153 H 0.33028 0.64638 0.44358 0.0
H154 H 0.37372 0.49392 0.48213 0.0
H155 H 0.29337 0.47261 0.48709 0.0
H156 H 0.79787 0.34592 0.50939 0.0
H157 H 0.71677 0.32962 0.51501 0.0
H158 H 0.67737 0.4785 0.46835 0.0
H159 H 0.75824 0.49601 0.46358 0.0
C160 C 0.38202 0.58778 0.01066 0.0
C161 C 0.41312 0.60605 0.9898 0.0
C162 C 0.34479 0.61838 0.01634 0.0
C163 C 0.29772 0.75195 0.00866 0.0
H164 H 0.17843 0.68185 -0.00175 0.0
C165 C 0.12754 0.86343 0.97836 0.0
C166 C 0.09233 0.85224 -0.00229 0.0
C167 C 0.1662 0.83147 0.98041 0.0
C168 C 0.21157 0.70175 0.00176 0.0
H169 H 0.43182 0.67088 0.95975 0.0
H170 H 0.36605 0.72503 0.96931 0.0
H171 H 0.24908 0.63159 -0.00275 0.0
H172 H 0.06895 0.79715 0.03304 0.0
H173 H 0.13719 0.74004 0.03627 0.0
H174 H 0.25997 0.82226 0.01219 0.0
C175 C 0.37058 0.68715 0.98158 0.0
C176 C 0.25207 0.67308 0.00122 0.0
C177 C 0.40812 0.65638 0.97603 0.0
C178 C 0.09551 0.80663 0.01783 0.0
C179 C 0.13453 0.77419 0.01977 0.0
C180 C 0.25727 0.78057 0.00909 0.0
C181 C 0.33791 0.66789 0.00113 0.0
C182 C 0.2955 0.698 0.00415 0.0
C183 C 0.17074 0.78725 0.00173 0.0
C184 C 0.21373 0.75586 0.00499 0.0
H185 H 0.38607 0.54927 0.02209 0.0
H186 H 0.32096 0.60291 0.03218 0.0
H187 H 0.33069 0.77213 0.01162 0.0
H188 H 0.12594 0.89782 0.96212 0.0
H189 H 0.19292 0.84174 0.9655 0.0
C190 C 0.59406 0.32276 0.98936 0.0
C191 C 0.59831 0.37075 0.97299 0.0
C192 C 0.63073 0.28695 -0.00658 0.0
C193 C 0.74043 0.25616 0.96159 0.0
H194 H 0.77245 0.18408 0.04969 0.0
C195 C 0.91089 0.14048 -0.00197 0.0
C196 C 0.90414 0.08925 0.00835 0.0
C197 C 0.87471 0.17661 -0.00397 0.0
C198 C 0.76379 0.20399 0.02498 0.0
H199 H 0.64355 0.41776 0.94665 0.0
H200 H 0.70725 0.35662 0.95462 0.0
H201 H 0.70438 0.24093 0.03941 0.0
H202 H 0.85642 0.03627 0.02724 0.0
H203 H 0.79346 0.09924 0.02394 0.0
H204 H 0.80022 0.21969 0.94739 0.0
C205 C 0.67568 0.34599 0.96397 0.0
C206 C 0.72464 0.23612 0.01895 0.0
C207 C 0.63915 0.3814 0.95972 0.0
C208 C 0.862 0.07541 0.01859 0.0
C209 C 0.8262 0.11152 0.01705 0.0
C210 C 0.77977 0.22449 0.96776 0.0
C211 C 0.67221 0.2986 0.9812 0.0
C212 C 0.71252 0.26259 0.98717 0.0
C213 C 0.83179 0.16206 0.00494 0.0
C214 C 0.79177 0.19809 -0.00053 0.0
H215 H 0.56302 0.31341 -0.00018 0.0
H216 H 0.62674 0.25037 0.00636 0.0
H217 H 0.73165 0.27525 0.9366 0.0
H218 H 0.94318 0.15187 0.99001 0.0
H219 H 0.87991 0.21558 0.9869 0.0
C220 C 0.16277 0.11442 0.53028 0.0
C221 C 0.11944 0.1207 0.50856 0.0
C222 C 0.19995 0.14655 0.52669 0.0
C223 C 0.23183 0.27055 0.49025 0.0
H224 H 0.35032 0.20153 0.4911 0.0
C225 C 0.38731 0.3773 0.45153 0.0
C226 C 0.43055 0.37075 0.47335 0.0
C227 C 0.34991 0.34541 0.45503 0.0
C228 C 0.3176 0.22138 0.49115 0.0
H229 H 0.08055 0.16715 0.46706 0.0
H230 H 0.14593 0.22372 0.46077 0.0
H231 H 0.28264 0.15084 0.49969 0.0
H232 H 0.46894 0.32418 0.51502 0.0
H233 H 0.40324 0.26807 0.5211 0.0
H234 H 0.26681 0.3411 0.4817 0.0
C235 C 0.15087 0.19383 0.48064 0.0
C236 C 0.27886 0.19243 0.49608 0.0
C237 C 0.11346 0.16152 0.48425 0.0
C238 C 0.43614 0.33004 0.49775 0.0
C239 C 0.39853 0.29796 0.50122 0.0
C240 C 0.27058 0.2995 0.4853 0.0
C241 C 0.19477 0.18578 0.50131 0.0
C242 C 0.23561 0.21675 0.49578 0.0
C243 C 0.3548 0.30615 0.48038 0.0
C244 C 0.31384 0.27519 0.48567 0.0
H245 H 0.16847 0.0837 0.54958 0.0
H246 H 0.23304 0.14016 0.54351 0.0
H247 H 0.19912 0.29039 0.4903 0.0
H248 H 0.3818 0.40804 0.43225 0.0
H249 H 0.31691 0.35196 0.43812 0.0
C250 C 0.89225 0.89151 0.52404 0.0
C251 C 0.92944 0.88263 0.50626 0.0
C252 C 0.85508 0.85723 0.52108 0.0
C253 C 0.81735 0.72511 0.49566 0.0
H254 H 0.69418 0.78711 0.48264 0.0
C255 C 0.65396 0.60271 0.45797 0.0
C256 C 0.61749 0.61038 0.47663 0.0
C257 C 0.69063 0.63761 0.46061 0.0
C258 C 0.72833 0.76929 0.48661 0.0
H259 H 0.95781 0.8297 0.47259 0.0
H260 H 0.89216 0.76922 0.46722 0.0
H261 H 0.7627 0.84273 0.48969 0.0
H262 H 0.58947 0.66203 0.51124 0.0
H263 H 0.65426 0.72375 0.51598 0.0
H264 H 0.78296 0.65169 0.49249 0.0
C265 C 0.89213 0.80288 0.48357 0.0
C266 C 0.76758 0.80104 0.49064 0.0
C267 C 0.92969 0.83736 0.48664 0.0
C268 C 0.61714 0.65529 0.49659 0.0
C269 C 0.65418 0.69044 0.4993 0.0
C270 C 0.77811 0.69338 0.49158 0.0
C271 C 0.854 0.81321 0.50019 0.0
C272 C 0.8125 0.77927 0.49529 0.0
C273 C 0.69183 0.68109 0.48199 0.0
C274 C 0.73321 0.71515 0.48692 0.0
H275 H 0.8913 0.92567 0.53984 0.0
H276 H 0.82687 0.86557 0.53492 0.0
H277 H 0.85147 0.70723 0.49969 0.0
H278 H 0.65476 0.56899 0.44176 0.0
H279 H 0.71847 0.63011 0.44624 0.0
C280 C 0.31819 0.95939 -0.00159 0.0
C281 C 0.3075 0.00439 0.01565 0.0
C282 C 0.36449 0.9456 -0.00226 0.0
C283 C 0.48564 0.96822 0.04268 0.0
H284 H 0.5192 0.91772 0.95737 0.0
C285 C 0.67746 0.94834 0.02411 0.0
C286 C 0.68987 0.90572 0.00537 0.0
C287 C 0.63082 0.95839 0.02606 0.0
C288 C 0.51042 0.93108 0.98157 0.0
H289 H 0.33769 0.06945 0.04633 0.0
H290 H 0.41816 0.0459 0.04471 0.0
H291 H 0.43824 0.9386 0.95952 0.0
H292 H 0.66235 0.84025 0.97394 0.0
H293 H 0.58117 0.85718 0.97788 0.0
H294 H 0.55777 0.96084 0.06473 0.0
C295 C 0.39073 0.02102 0.03187 0.0
C296 C 0.46388 0.9431 0.9828 0.0
C297 C 0.34446 0.03489 0.03246 0.0
C298 C 0.65426 0.87313 0.9889 0.0
C299 C 0.60755 0.88324 0.9908 0.0
C300 C 0.53213 0.95613 0.04147 0.0
C301 C 0.40143 0.97629 0.0144 0.0
C302 C 0.45087 0.96212 0.01332 0.0
C303 C 0.59514 0.92614 0.00931 0.0
C304 C 0.54527 0.93765 0.01085 0.0
H305 H 0.29072 0.93516 0.9849 0.0
H306 H 0.37134 0.91061 0.98433 0.0
H307 H 0.47687 0.9819 0.06682 0.0
H308 H 0.70387 0.97399 0.03747 0.0
H309 H 0.6227 -0.00791 0.04024 0.0
C310 C 0.34226 -0.0098 0.48094 0.0
C311 C 0.33153 0.95038 0.50309 0.0
C312 C 0.38854 0.00172 0.47859 0.0
C313 C 0.50782 0.94649 0.49536 0.0
H314 H 0.54611 0.09024 0.49277 0.0
C315 C 0.70177 0.00506 0.5089 0.0
C316 C 0.71332 0.04762 0.48934 0.0
C317 C 0.65522 -0.0071 0.50984 0.0
C318 C 0.536 0.04985 0.49297 0.0
H319 H 0.36188 0.89199 0.54044 0.0
H320 H 0.44228 0.91169 0.536 0.0
H321 H 0.46533 0.06963 0.49548 0.0
H322 H 0.6845 0.11002 0.4548 0.0
H323 H 0.60347 0.08862 0.45615 0.0
H324 H 0.57834 0.92661 0.49266 0.0
C325 C 0.41478 0.93362 0.52013 0.0
C326 C 0.48955 0.03803 0.49458 0.0
C327 C 0.36853 0.92225 0.52262 0.0
C328 C 0.67699 0.07746 0.47056 0.0
C329 C 0.63041 0.06519 0.4714 0.0
C330 C 0.55423 0.9583 0.4936 0.0
C331 C 0.42545 0.97362 0.49817 0.0
C332 C 0.47484 0.98619 0.49592 0.0
C333 C 0.61881 0.02283 0.49115 0.0
C334 C 0.56907 0.01017 0.4925 0.0
H335 H 0.31485 0.01219 0.46503 0.0
H336 H 0.39537 0.03228 0.46102 0.0
H337 H 0.49764 0.90613 0.49581 0.0
H338 H 0.72877 0.98164 0.52411 0.0
H339 H 0.64786 0.96055 0.52583 0.0
C340 C 0.83811 0.4969 0.01087 0.0
C341 C 0.81736 0.54076 -0.00718 0.0
C342 C 0.88489 0.48472 0.01082 0.0
C343 C 0.99624 0.54178 -0.00406 0.0
H344 H 0.03053 0.39923 0.98171 0.0
C345 C 0.17807 0.48725 0.96751 0.0
C346 C 0.1988 0.44074 0.98155 0.0
C347 C 0.13205 0.49928 0.97017 0.0
C348 C 0.02179 0.43914 0.98623 0.0
H349 H 0.83022 0.60584 0.96026 0.0
H350 H 0.91171 0.58505 0.96071 0.0
H351 H 0.94984 0.4206 0.98444 0.0
H352 H 0.18722 0.37081 0.00995 0.0
H353 H 0.1071 0.39192 0.01483 0.0
H354 H 0.06809 0.56041 -0.00205 0.0
C355 C 0.89181 0.56034 0.97519 0.0
C356 C 0.97541 0.4514 0.98774 0.0
C357 C 0.84498 0.57233 0.97503 0.0
C358 C 0.17223 0.40663 -0.00159 0.0
C359 C 0.12619 0.41875 0.00118 0.0
C360 C 0.04265 0.5295 -0.00537 0.0
C361 C 0.91233 0.51623 -0.00707 0.0
C362 C 0.96198 0.50293 -0.00762 0.0
C363 C 0.1054 0.46524 0.98704 0.0
C364 C 0.05608 0.47805 0.98951 0.0
H365 H 0.81835 0.4721 0.02538 0.0
H366 H 0.89974 0.45086 0.02515 0.0
H367 H 0.98726 0.58174 0.0001 0.0
H368 H 0.19714 0.51408 0.95383 0.0
H369 H 0.11713 0.53495 0.95836 0.0
C370 C 0.2048 0.50532 0.49882 0.0
C371 C 0.21569 0.53427 0.47069 0.0
C372 C 0.15858 0.4927 0.50069 0.0
C373 C 0.04193 0.47946 0.44634 0.0
H374 H 0.9977 0.48828 0.53388 0.0
C375 C 0.84663 0.46041 0.45545 0.0
C376 C 0.83464 0.43371 0.48412 0.0
C377 C 0.89313 0.47193 0.45391 0.0
C378 C 1.00955 0.48492 0.50929 0.0
H379 H 0.1861 0.57197 0.42222 0.0
H380 H 0.10569 0.55065 0.42572 0.0
H381 H 0.0784 0.50955 0.53115 0.0
H382 H 0.86279 0.39862 0.53381 0.0
H383 H 0.94375 0.4175 0.53071 0.0
H384 H 0.97323 0.45466 0.42446 0.0
C385 C 0.13292 0.53737 0.44627 0.0
C386 C 0.05592 0.49719 0.50772 0.0
C387 C 0.17908 0.55016 0.44447 0.0
C388 C 0.87059 0.41865 0.51111 0.0
C389 C 0.9171 0.43014 0.50955 0.0
C390 C 0.99561 0.46705 0.44791 0.0
C391 C 0.12201 0.50845 0.47439 0.0
C392 C 0.07272 0.49479 0.4762 0.0
C393 C 0.92906 0.45705 0.48096 0.0
C394 C 0.97869 0.46974 0.47939 0.0
H395 H 0.23198 0.49279 0.51964 0.0
H396 H 0.15158 0.46998 0.52257 0.0
H397 H 0.05378 0.47632 0.42172 0.0
H398 H 0.82007 0.47219 0.43398 0.0
H399 H 0.9008 0.49321 0.43164 0.0
C400 C 0.97699 -0.00708 0.37853 0.0
C401 C 0.01963 -0.00557 0.40148 0.0
C402 C 0.97588 -0.01075 0.34278 0.0
C403 C 0.04883 0.95263 0.27763 0.0
H404 H 0.95529 0.02888 0.21453 0.0
C405 C 0.05038 0.97041 0.12991 0.0
C406 C 1.00728 0.96524 0.10781 0.0
C407 C 0.05265 0.97334 0.16586 0.0
C408 C 0.98138 0.00696 0.23179 0.0
H409 H 0.09462 -0.00623 0.40471 0.0
H410 H 0.09266 -0.01158 0.34252 0.0
H411 H 0.95758 0.03563 0.27677 0.0
H412 H 0.93279 0.95866 0.10635 0.0
H413 H 0.93687 0.96368 0.16874 0.0
H414 H 0.07282 0.92441 0.23248 0.0
C415 C 0.06001 -0.01099 0.35209 0.0
C416 C 0.98265 0.01073 0.26752 0.0
C417 C 0.06111 -0.00757 0.38782 0.0
C418 C 0.96662 0.96268 0.12252 0.0
C419 C 0.96888 0.96592 0.15833 0.0
C420 C 0.0477 0.94909 0.24187 0.0
C421 C 0.01739 -0.01273 0.32906 0.0
C422 C 0.01627 0.98347 0.29095 0.0
C423 C 1.01186 0.97157 0.18044 0.0
C424 C 0.01382 0.97602 0.21852 0.0
H425 H 0.94438 -0.00588 0.38817 0.0
H426 H 0.9424 -0.01276 0.32592 0.0
H427 H 0.07479 0.93044 0.29481 0.0
H428 H 0.08237 0.97257 0.11947 0.0
H429 H 0.08629 0.97806 0.18217 0.0
C430 C 0.98978 0.0334 0.88137 0.0
C431 C 0.98527 0.98486 0.89704 0.0
C432 C 0.99191 0.03706 0.84604 0.0
C433 C 0.96938 0.96193 0.76387 0.0
H434 H 0.05407 0.06178 0.73414 0.0
C435 C 0.02415 0.95525 0.62928 0.0
C436 C 0.02253 0.00239 0.61081 0.0
C437 C 0.01866 0.95443 0.66401 0.0
C438 C 0.02999 0.03401 0.74204 0.0
H439 H 0.97918 0.90209 0.88776 0.0
H440 H 0.98411 0.90825 0.82661 0.0
H441 H 0.04532 0.0579 0.79489 0.0
H442 H 0.01467 0.08576 0.61456 0.0
H443 H 1.00579 0.08428 0.67546 0.0
H444 H 0.95514 0.93723 0.71104 0.0
C445 C 0.98491 0.94375 0.84128 0.0
C446 C 0.02477 0.03189 0.77684 0.0
C447 C 0.9823 0.94016 0.87649 0.0
C448 C 0.01607 0.04879 0.62804 0.0
C449 C 1.01117 0.04801 0.66293 0.0
C450 C 0.97502 0.96369 0.72918 0.0
C451 C 0.99004 -0.00779 0.82558 0.0
C452 C 0.9945 -0.00433 0.78827 0.0
C453 C 1.01197 0.00076 0.68117 0.0
C454 C 1.0055 -0.00038 0.71792 0.0
H455 H 0.99189 0.06864 0.89643 0.0
H456 H 0.99499 0.07513 0.83479 0.0
H457 H 0.94505 0.93424 0.77147 0.0
H458 H 0.02891 0.91878 0.61678 0.0
H459 H 0.01991 0.9175 0.67753 0.0
C460 C 0.51811 0.53308 0.35143 0.0
C461 C 0.53176 0.48926 0.37228 0.0
C462 C 0.51929 0.53234 0.316 0.0
C463 C 0.49514 0.50796 0.23982 0.0
H464 H 0.59546 0.44228 0.20275 0.0
C465 C 0.48063 0.46869 0.09463 0.0
C466 C 0.51963 0.47957 0.07917 0.0
C467 C 0.48412 0.4688 0.13055 0.0
C468 C 0.56738 0.46109 0.21274 0.0
H469 H 0.55819 0.41052 0.37229 0.0
H470 H 0.5596 0.40904 0.31026 0.0
H471 H 0.59888 0.44623 0.26543 0.0
H472 H 0.59319 0.4981 0.08945 0.0
H473 H 0.59916 0.49878 0.15241 0.0
H474 H 0.46395 0.52366 0.18736 0.0
C475 C 0.54849 0.44419 0.32145 0.0
C476 C 0.56909 0.46287 0.2486 0.0
C477 C 0.54739 0.44495 0.35697 0.0
C478 C 0.5625 0.48953 0.10054 0.0
C479 C 0.56597 0.4897 0.1366 0.0
C480 C 0.49342 0.50618 0.20407 0.0
C481 C 0.53404 0.48774 0.30052 0.0
C482 C 0.53292 0.48627 0.26252 0.0
C483 C 0.52665 0.47993 0.15196 0.0
C484 C 0.52936 0.48249 0.19008 0.0
H485 H 0.50627 0.56805 0.36239 0.0
H486 H 0.50868 0.56684 0.30071 0.0
H487 H 0.46644 0.52574 0.24964 0.0
H488 H 0.44711 0.46047 0.079 0.0
H489 H 0.45339 0.46014 0.14157 0.0
C490 C 0.47347 0.50607 0.59031 0.0
C491 C 0.5164 0.49601 0.57996 0.0
C492 C 0.47024 0.50896 0.62537 0.0
C493 C 0.54048 0.52821 0.71233 0.0
H494 H 0.43446 0.46462 0.74357 0.0
C495 C 0.48028 0.45925 0.84788 0.0
C496 C 0.49346 0.50275 0.86867 0.0
C497 C 0.48169 0.46069 0.81247 0.0
C498 C 0.46441 0.48236 0.73531 0.0
H499 H 0.58967 0.48123 0.59845 0.0
H500 H 0.5839 0.48559 0.65974 0.0
H501 H 0.44092 0.46153 0.68251 0.0
H502 H 0.51775 0.58227 0.86835 0.0
H503 H 0.51965 0.58495 0.80632 0.0
H504 H 0.56457 0.54775 0.76537 0.0
C505 C 0.55283 0.49196 0.64066 0.0
C506 C 0.46786 0.4811 0.70023 0.0
C507 C 0.55609 0.48912 0.60552 0.0
C508 C 0.50741 0.54805 0.85309 0.0
C509 C 0.50882 0.54948 0.81759 0.0
C510 C 0.53703 0.52946 0.74746 0.0
C511 C 0.50982 0.50176 0.65099 0.0
C512 C 0.50602 0.50382 0.68831 0.0
C513 C 0.49625 0.50568 0.79691 0.0
C514 C 0.49907 0.50628 0.75939 0.0
H515 H 0.4422 0.51187 0.57132 0.0
H516 H 0.43672 0.51735 0.63239 0.0
H517 H 0.57006 0.54659 0.70396 0.0
H518 H 0.46949 0.42364 0.859 0.0
H519 H 0.47237 0.42604 0.79742 0.0
loop_
_geom_bond_atom_site_label_1
_geom_bond_atom_site_label_2
_geom_bond_distance
_geom_bond_site_symmetry_2
_ccdc_geom_bond_type
Tb0 C9 2.764 . S
Tb0 O10 2.325 1_545 S
Tb0 O13 2.303 1_554 S
Tb0 O17 2.322 1_455 S
Tb0 O18 2.349 . S
Tb0 O21 2.415 1_554 S
Tb0 O22 2.399 . S
Tb1 O11 2.322 1_655 S
Tb1 O12 2.349 . S
Tb1 O14 2.415 1_556 S
Tb1 O15 2.399 . S
Tb1 O16 2.325 1_565 S
Tb1 O19 2.303 1_556 S
Tb1 C30 2.764 . S
C2 O18 1.261 . S
C2 O19 1.257 1_445 S
C3 C6 1.358 . S
C3 C7 1.332 1_554 S
C3 C9 1.504 . S
C4 C5 1.373 . S
C4 C8 1.308 1_554 S
C5 C4 1.373 . S
C5 C6 1.429 . S
C5 H32 0.932 . S
C6 C3 1.358 . S
C6 C5 1.429 . S
C6 H33 0.930 . S
C7 C3 1.332 1_556 S
C7 C8 1.394 . S
C7 H34 0.932 . S
C8 C4 1.308 1_556 S
C8 C7 1.394 . S
C8 H35 0.929 . S
C9 Tb0 2.764 . S
C9 C3 1.504 . S
C9 O21 1.239 1_554 S
C9 O22 1.263 . S
O10 Tb0 2.325 1_565 S
O10 C20 1.236 . S
O11 Tb1 2.322 1_455 S
O11 C20 1.257 1_556 S
O12 Tb1 2.349 . S
O12 C23 1.261 . S
O13 Tb0 2.303 1_556 S
O13 C23 1.257 1_445 S
O14 Tb1 2.415 1_554 S
O14 C30 1.239 1_554 S
O15 Tb1 2.399 . S
O15 C30 1.263 . S
O16 Tb1 2.325 1_545 S
O16 C31 1.247 . S
O17 Tb0 2.322 1_655 S
O17 C31 1.253 1_554 S
O18 Tb0 2.349 . S
O18 C2 1.261 . S
O19 Tb1 2.303 1_554 S
O19 C2 1.257 1_665 S
C20 O10 1.236 . S
C20 O11 1.257 1_554 S
O21 Tb0 2.415 1_556 S
O21 C9 1.239 1_556 S
O22 Tb0 2.399 . S
O22 C9 1.263 . S
C23 O12 1.261 . S
C23 O13 1.257 1_665 S
C24 C27 1.358 . S
C24 C28 1.332 1_556 S
C24 C30 1.504 . S
C25 C26 1.387 . S
C25 C29 1.298 1_556 S
C26 C25 1.387 . S
C26 C27 1.429 . S
C26 H36 0.932 . S
C27 C24 1.358 . S
C27 C26 1.429 . S
C27 H37 0.930 . S
C28 C24 1.332 1_554 S
C28 C29 1.394 . S
C28 H38 0.932 . S
C29 C25 1.298 1_554 S
C29 C28 1.394 . S
C29 H39 0.929 . S
C30 Tb1 2.764 . S
C30 O14 1.239 1_556 S
C30 O15 1.263 . S
C30 C24 1.504 . S
C31 O16 1.247 . S
C31 O17 1.253 1_556 S
H32 C5 0.932 . S
H33 C6 0.930 . S
H34 C7 0.932 . S
H35 C8 0.929 . S
H36 C26 0.932 . S
H37 C27 0.930 . S
H38 C28 0.932 . S
H39 C29 0.929 . S
Tb40 C49 2.764 . S
Tb40 O50 2.325 1_545 S
Tb40 O53 2.303 . S
Tb40 O57 2.322 1_655 S
Tb40 O58 2.349 . S
Tb40 O61 2.415 . S
Tb40 O62 2.399 . S
Tb41 O51 2.322 1_455 S
Tb41 O52 2.349 . S
Tb41 O54 2.415 . S
Tb41 O55 2.399 . S
Tb41 O56 2.325 1_565 S
Tb41 O59 2.303 . S
Tb41 C70 2.764 . S
C42 O58 1.261 . S
C42 O59 1.257 1_645 S
C43 C46 1.358 . S
C43 C47 1.332 . S
C43 C49 1.504 . S
C44 C45 1.373 . S
C44 C48 1.308 . S
C45 C44 1.373 . S
C45 C46 1.429 . S
C45 H72 0.932 . S
C46 C43 1.358 . S
C46 C45 1.429 . S
C46 H73 0.930 . S
C47 C43 1.332 . S
C47 C48 1.394 . S
C47 H74 0.932 . S
C48 C44 1.308 . S
C48 C47 1.394 . S
C48 H75 0.929 . S
C49 Tb40 2.764 . S
C49 C43 1.504 . S
C49 O61 1.239 . S
C49 O62 1.263 . S
O50 Tb40 2.325 1_565 S
O50 C60 1.236 . S
O51 Tb41 2.322 1_655 S
O51 C60 1.257 . S
O52 Tb41 2.349 . S
O52 C63 1.261 . S
O53 Tb40 2.303 . S
O53 C63 1.257 1_645 S
O54 Tb41 2.415 . S
O54 C70 1.239 . S
O55 Tb41 2.399 . S
O55 C70 1.263 . S
O56 Tb41 2.325 1_545 S
O56 C71 1.236 . S
O57 Tb40 2.322 1_455 S
O57 C71 1.257 . S
O58 Tb40 2.349 . S
O58 C42 1.261 . S
O59 Tb41 2.303 . S
O59 C42 1.257 1_465 S
C60 O50 1.236 . S
C60 O51 1.257 . S
O61 Tb40 2.415 . S
O61 C49 1.239 . S
O62 Tb40 2.399 . S
O62 C49 1.263 . S
C63 O52 1.261 . S
C63 O53 1.257 1_465 S
C64 C67 1.358 . S
C64 C68 1.332 . S
C64 C70 1.504 . S
C65 C66 1.373 . S
C65 C69 1.308 . S
C66 C65 1.373 . S
C66 C67 1.429 . S
C66 H76 0.932 . S
C67 C64 1.358 . S
C67 C66 1.429 . S
C67 H77 0.930 . S
C68 C64 1.332 . S
C68 C69 1.394 . S
C68 H78 0.932 . S
C69 C65 1.308 . S
C69 C68 1.394 . S
C69 H79 0.929 . S
C70 Tb41 2.764 . S
C70 O54 1.239 . S
C70 O55 1.263 . S
C70 C64 1.504 . S
C71 O56 1.236 . S
C71 O57 1.257 . S
H72 C45 0.932 . S
H73 C46 0.930 . S
H74 C47 0.932 . S
H75 C48 0.929 . S
H76 C66 0.932 . S
H77 C67 0.930 . S
H78 C68 0.932 . S
H79 C69 0.929 . S
Tb80 C89 2.764 . S
Tb80 O90 2.325 . S
Tb80 O93 2.303 1_554 S
Tb80 O97 2.322 . S
Tb80 O98 2.349 . S
Tb80 O101 2.415 1_554 S
Tb80 O102 2.399 . S
Tb81 O91 2.322 . S
Tb81 O92 2.349 . S
Tb81 O94 2.415 1_556 S
Tb81 O95 2.399 . S
Tb81 O96 2.325 . S
Tb81 O99 2.303 1_556 S
Tb81 C110 2.764 . S
C82 O98 1.261 . S
C82 O99 1.257 . S
C83 C86 1.358 . S
C83 C87 1.332 1_554 S
C83 C89 1.504 . S
C84 C85 1.373 . S
C84 C88 1.308 1_554 S
C85 C84 1.373 . S
C85 C86 1.429 . S
C85 H112 0.932 . S
C86 C83 1.358 . S
C86 C85 1.429 . S
C86 H113 0.930 . S
C87 C83 1.332 1_556 S
C87 C88 1.394 . S
C87 H114 0.932 . S
C88 C84 1.308 1_556 S
C88 C87 1.394 . S
C88 H115 0.929 . S
C89 Tb80 2.764 . S
C89 C83 1.504 . S
C89 O101 1.239 1_554 S
C89 O102 1.263 . S
O90 Tb80 2.325 . S
O90 C100 1.236 . S
O91 Tb81 2.322 . S
O91 C100 1.257 1_556 S
O92 Tb81 2.349 . S
O92 C103 1.261 . S
O93 Tb80 2.303 1_556 S
O93 C103 1.257 . S
O94 Tb81 2.415 1_554 S
O94 C110 1.239 1_554 S
O95 Tb81 2.399 . S
O95 C110 1.263 . S
O96 Tb81 2.325 . S
O96 C111 1.247 . S
O97 Tb80 2.322 . S
O97 C111 1.253 1_554 S
O98 Tb80 2.349 . S
O98 C82 1.261 . S
O99 Tb81 2.303 1_554 S
O99 C82 1.257 . S
C100 O90 1.236 . S
C100 O91 1.257 1_554 S
O101 Tb80 2.415 1_556 S
O101 C89 1.239 1_556 S
O102 Tb80 2.399 . S
O102 C89 1.263 . S
C103 O92 1.261 . S
C103 O93 1.257 . S
C104 C107 1.358 . S
C104 C108 1.332 1_556 S
C104 C110 1.504 . S
C105 C106 1.387 . S
C105 C109 1.298 1_556 S
C106 C105 1.387 . S
C106 C107 1.429 . S
C106 H116 0.932 . S
C107 C104 1.358 . S
C107 C106 1.429 . S
C107 H117 0.930 . S
C108 C104 1.332 1_554 S
C108 C109 1.394 . S
C108 H118 0.932 . S
C109 C105 1.298 1_554 S
C109 C108 1.394 . S
C109 H119 0.929 . S
C110 Tb81 2.764 . S
C110 O94 1.239 1_556 S
C110 O95 1.263 . S
C110 C104 1.504 . S
C111 O96 1.247 . S
C111 O97 1.253 1_556 S
H112 C85 0.932 . S
H113 C86 0.930 . S
H114 C87 0.932 . S
H115 C88 0.929 . S
H116 C106 0.932 . S
H117 C107 0.930 . S
H118 C108 0.932 . S
H119 C109 0.929 . S
Tb120 C129 2.764 . S
Tb120 O130 2.325 . S
Tb120 O133 2.303 . S
Tb120 O137 2.322 . S
Tb120 O138 2.349 . S
Tb120 O141 2.415 . S
Tb120 O142 2.399 . S
Tb121 O131 2.322 . S
Tb121 O132 2.349 . S
Tb121 O134 2.415 . S
Tb121 O135 2.399 . S
Tb121 O136 2.325 . S
Tb121 O139 2.303 . S
Tb121 C150 2.764 . S
C122 O138 1.261 . S
C122 O139 1.257 . S
C123 C126 1.358 . S
C123 C127 1.332 . S
C123 C129 1.504 . S
C124 C125 1.373 . S
C124 C128 1.308 . S
C125 C124 1.373 . S
C125 C126 1.429 . S
C125 H152 0.932 . S
C126 C123 1.358 . S
C126 C125 1.429 . S
C126 H153 0.930 . S
C127 C123 1.332 . S
C127 C128 1.394 . S
C127 H154 0.932 . S
C128 C124 1.308 . S
C128 C127 1.394 . S
C128 H155 0.929 . S
C129 Tb120 2.764 . S
C129 C123 1.504 . S
C129 O141 1.239 . S
C129 O142 1.263 . S
O130 Tb120 2.325 . S
O130 C140 1.236 . S
O131 Tb121 2.322 . S
O131 C140 1.257 . S
O132 Tb121 2.349 . S
O132 C143 1.261 . S
O133 Tb120 2.303 . S
O133 C143 1.257 . S
O134 Tb121 2.415 . S
O134 C150 1.239 . S
O135 Tb121 2.399 . S
O135 C150 1.263 . S
O136 Tb121 2.325 . S
O136 C151 1.236 . S
O137 Tb120 2.322 . S
O137 C151 1.257 . S
O138 Tb120 2.349 . S
O138 C122 1.261 . S
O139 Tb121 2.303 . S
O139 C122 1.257 . S
C140 O130 1.236 . S
C140 O131 1.257 . S
O141 Tb120 2.415 . S
O141 C129 1.239 . S
O142 Tb120 2.399 . S
O142 C129 1.263 . S
C143 O132 1.261 . S
C143 O133 1.257 . S
C144 C147 1.358 . S
C144 C148 1.332 . S
C144 C150 1.504 . S
C145 C146 1.373 . S
C145 C149 1.308 . S
C146 C145 1.373 . S
C146 C147 1.429 . S
C146 H156 0.932 . S
C147 C144 1.358 . S
C147 C146 1.429 . S
C147 H157 0.930 . S
C148 C144 1.332 . S
C148 C149 1.394 . S
C148 H158 0.932 . S
C149 C145 1.308 . S
C149 C148 1.394 . S
C149 H159 0.929 . S
C150 Tb121 2.764 . S
C150 O134 1.239 . S
C150 O135 1.263 . S
C150 C144 1.504 . S
C151 O136 1.236 . S
C151 O137 1.257 . S
H152 C125 0.932 . S
H153 C126 0.930 . S
H154 C127 0.932 . S
H155 C128 0.929 . S
H156 C146 0.932 . S
H157 C147 0.930 . S
H158 C148 0.932 . S
H159 C149 0.929 . S
C160 C161 1.349 . S
C160 C162 1.327 . S
C160 H185 0.950 . S
C161 C160 1.349 . S
C161 C177 1.349 1_554 S
C162 C160 1.327 . S
C162 C181 1.452 . S
C162 H186 0.950 . S
C163 C180 1.574 . S
C163 C182 1.351 1_556 S
C163 H187 0.949 . S
H164 C168 0.949 . S
C165 C166 1.366 . S
C165 C167 1.327 . S
C165 H188 0.950 . S
C166 C165 1.366 . S
C166 C178 1.335 1_556 S
C167 C165 1.327 . S
C167 C183 1.428 . S
C167 H189 0.950 . S
C168 H164 0.949 . S
C168 C176 1.574 . S
C168 C184 1.371 . S
H169 C177 0.950 . S
H170 C175 0.950 . S
H171 C176 0.949 . S
H172 C178 0.950 . S
H173 C179 0.950 . S
H174 C180 0.949 . S
C175 H170 0.950 . S
C175 C177 1.327 . S
C175 C181 1.401 1_556 S
C176 C168 1.574 . S
C176 H171 0.949 . S
C176 C182 1.388 . S
C177 C161 1.349 1_556 S
C177 H169 0.950 . S
C177 C175 1.327 . S
C178 C166 1.335 1_554 S
C178 H172 0.950 . S
C178 C179 1.327 . S
C179 H173 0.950 . S
C179 C178 1.327 . S
C179 C183 1.429 1_554 S
C180 C163 1.574 . S
C180 H174 0.949 . S
C180 C184 1.365 1_556 S
C181 C162 1.452 . S
C181 C175 1.401 1_554 S
C181 C182 1.524 . S
C182 C163 1.351 1_554 S
C182 C176 1.388 . S
C182 C181 1.524 . S
C183 C167 1.428 . S
C183 C179 1.429 1_556 S
C183 C184 1.523 1_556 S
C184 C168 1.371 . S
C184 C180 1.365 1_554 S
C184 C183 1.523 1_554 S
H185 C160 0.950 . S
H186 C162 0.950 . S
H187 C163 0.949 . S
H188 C165 0.950 . S
H189 C167 0.950 . S
C190 C191 1.339 1_554 S
C190 C192 1.327 . S
C190 H215 0.950 . S
C191 C190 1.339 1_556 S
C191 C207 1.361 . S
C192 C190 1.327 . S
C192 C211 1.429 1_554 S
C192 H216 0.950 . S
C193 C210 1.574 . S
C193 C212 1.366 1_556 S
C193 H217 0.949 . S
H194 C198 0.949 . S
C195 C196 1.349 1_556 S
C195 C197 1.327 . S
C195 H218 0.950 . S
C196 C195 1.349 1_554 S
C196 C208 1.349 . S
C197 C195 1.327 . S
C197 C213 1.408 1_556 S
C197 H219 0.950 . S
C198 H194 0.949 . S
C198 C206 1.574 . S
C198 C214 1.383 . S
H199 C207 0.950 . S
H200 C205 0.950 . S
H201 C206 0.949 . S
H202 C208 0.950 . S
H203 C209 0.950 . S
H204 C210 0.949 . S
C205 H200 0.950 . S
C205 C207 1.327 . S
C205 C211 1.428 . S
C206 C198 1.574 . S
C206 H201 0.949 . S
C206 C212 1.370 . S
C207 C191 1.361 . S
C207 H199 0.950 . S
C207 C205 1.327 . S
C208 C196 1.349 . S
C208 H202 0.950 . S
C208 C209 1.327 . S
C209 H203 0.950 . S
C209 C208 1.327 . S
C209 C213 1.445 . S
C210 C193 1.574 . S
C210 H204 0.949 . S
C210 C214 1.356 1_556 S
C211 C192 1.429 1_556 S
C211 C205 1.428 . S
C211 C212 1.523 1_556 S
C212 C193 1.366 1_554 S
C212 C206 1.370 . S
C212 C211 1.523 1_554 S
C213 C197 1.408 1_554 S
C213 C209 1.445 . S
C213 C214 1.524 . S
C214 C198 1.383 . S
C214 C210 1.356 1_554 S
C214 C213 1.524 . S
H215 C190 0.950 . S
H216 C192 0.950 . S
H217 C193 0.949 . S
H218 C195 0.950 . S
H219 C197 0.950 . S
C220 C221 1.349 . S
C220 C222 1.327 . S
C220 H245 0.950 . S
C221 C220 1.349 . S
C221 C237 1.349 . S
C222 C220 1.327 . S
C222 C241 1.429 . S
C222 H246 0.950 . S
C223 C240 1.574 . S
C223 C242 1.368 . S
C223 H247 0.949 . S
H224 C228 0.949 . S
C225 C226 1.349 . S
C225 C227 1.327 . S
C225 H248 0.950 . S
C226 C225 1.349 . S
C226 C238 1.349 . S
C227 C225 1.327 . S
C227 C243 1.429 . S
C227 H249 0.950 . S
C228 H224 0.949 . S
C228 C236 1.574 . S
C228 C244 1.368 . S
H229 C237 0.950 . S
H230 C235 0.950 . S
H231 C236 0.949 . S
H232 C238 0.950 . S
H233 C239 0.950 . S
H234 C240 0.949 . S
C235 H230 0.950 . S
C235 C237 1.327 . S
C235 C241 1.429 . S
C236 C228 1.574 . S
C236 H231 0.949 . S
C236 C242 1.368 . S
C237 C221 1.349 . S
C237 H229 0.950 . S
C237 C235 1.327 . S
C238 C226 1.349 . S
C238 H232 0.950 . S
C238 C239 1.327 . S
C239 H233 0.950 . S
C239 C238 1.327 . S
C239 C243 1.429 . S
C240 C223 1.574 . S
C240 H234 0.949 . S
C240 C244 1.368 . S
C241 C222 1.429 . S
C241 C235 1.429 . S
C241 C242 1.523 . S
C242 C223 1.368 . S
C242 C236 1.368 . S
C242 C241 1.523 . S
C243 C227 1.429 . S
C243 C239 1.429 . S
C243 C244 1.523 . S
C244 C228 1.368 . S
C244 C240 1.368 . S
C244 C243 1.523 . S
H245 C220 0.950 . S
H246 C222 0.950 . S
H247 C223 0.949 . S
H248 C225 0.950 . S
H249 C227 0.950 . S
C250 C251 1.349 . S
C250 C252 1.327 . S
C250 H275 0.950 . S
C251 C250 1.349 . S
C251 C267 1.349 . S
C252 C250 1.327 . S
C252 C271 1.429 . S
C252 H276 0.950 . S
C253 C270 1.574 . S
C253 C272 1.368 . S
C253 H277 0.949 . S
H254 C258 0.949 . S
C255 C256 1.349 . S
C255 C257 1.327 . S
C255 H278 0.950 . S
C256 C255 1.349 . S
C256 C268 1.349 . S
C257 C255 1.327 . S
C257 C273 1.429 . S
C257 H279 0.950 . S
C258 H254 0.949 . S
C258 C266 1.574 . S
C258 C274 1.368 . S
H259 C267 0.950 . S
H260 C265 0.950 . S
H261 C266 0.949 . S
H262 C268 0.950 . S
H263 C269 0.950 . S
H264 C270 0.949 . S
C265 H260 0.950 . S
C265 C267 1.327 . S
C265 C271 1.429 . S
C266 C258 1.574 . S
C266 H261 0.949 . S
C266 C272 1.368 . S
C267 C251 1.349 . S
C267 H259 0.950 . S
C267 C265 1.327 . S
C268 C256 1.349 . S
C268 H262 0.950 . S
C268 C269 1.327 . S
C269 H263 0.950 . S
C269 C268 1.327 . S
C269 C273 1.429 . S
C270 C253 1.574 . S
C270 H264 0.949 . S
C270 C274 1.368 . S
C271 C252 1.429 . S
C271 C265 1.429 . S
C271 C272 1.523 . S
C272 C253 1.368 . S
C272 C266 1.368 . S
C272 C271 1.523 . S
C273 C257 1.429 . S
C273 C269 1.429 . S
C273 C274 1.523 . S
C274 C258 1.368 . S
C274 C270 1.368 . S
C274 C273 1.523 . S
H275 C250 0.950 . S
H276 C252 0.950 . S
H277 C253 0.949 . S
H278 C255 0.950 . S
H279 C257 0.950 . S
C280 C281 1.349 1_556 S
C280 C282 1.327 . S
C280 H305 0.950 . S
C281 C280 1.349 1_554 S
C281 C297 1.349 . S
C282 C280 1.327 . S
C282 C301 1.429 1_556 S
C282 H306 0.950 . S
C283 C300 1.574 . S
C283 C302 1.389 1_565 S
C283 H307 0.949 . S
H284 C288 0.949 . S
C285 C286 1.349 1_554 S
C285 C287 1.327 . S
C285 H308 0.950 . S
C286 C285 1.349 1_556 S
C286 C298 1.349 . S
C287 C285 1.327 . S
C287 C303 1.421 1_554 S
C287 H309 0.950 . S
C288 H284 0.949 . S
C288 C296 1.574 . S
C288 C304 1.370 1_546 S
H289 C297 0.950 . S
H290 C295 0.950 . S
H291 C296 0.949 . S
H292 C298 0.950 . S
H293 C299 0.950 . S
H294 C300 0.949 . S
C295 H290 0.950 . S
C295 C297 1.327 . S
C295 C301 1.429 . S
C296 C288 1.574 . S
C296 H291 0.949 . S
C296 C302 1.344 1_556 S
C297 C281 1.349 . S
C297 H289 0.950 . S
C297 C295 1.327 . S
C298 C286 1.349 . S
C298 H292 0.950 . S
C298 C299 1.327 . S
C299 H293 0.950 . S
C299 C298 1.327 . S
C299 C303 1.439 . S
C300 C283 1.574 . S
C300 H294 0.949 . S
C300 C304 1.366 . S
C301 C282 1.429 1_554 S
C301 C295 1.429 . S
C301 C302 1.528 . S
C302 C283 1.389 1_545 S
C302 C296 1.344 1_554 S
C302 C301 1.528 . S
C303 C287 1.421 1_556 S
C303 C299 1.439 . S
C303 C304 1.521 1_556 S
C304 C288 1.370 1_564 S
C304 C300 1.366 . S
C304 C303 1.521 1_554 S
H305 C280 0.950 . S
H306 C282 0.950 . S
H307 C283 0.949 . S
H308 C285 0.950 . S
H309 C287 0.950 . S
C310 C311 1.349 . S
C310 C312 1.327 . S
C310 H335 0.950 . S
C311 C310 1.349 . S
C311 C327 1.349 . S
C312 C310 1.327 . S
C312 C331 1.429 . S
C312 H336 0.950 . S
C313 C330 1.574 . S
C313 C332 1.368 . S
C313 H337 0.949 . S
H314 C318 0.949 . S
C315 C316 1.349 . S
C315 C317 1.327 . S
C315 H338 0.950 . S
C316 C315 1.349 . S
C316 C328 1.349 . S
C317 C315 1.327 . S
C317 C333 1.429 . S
C317 H339 0.950 . S
C318 H314 0.949 . S
C318 C326 1.574 . S
C318 C334 1.368 . S
H319 C327 0.950 . S
H320 C325 0.950 . S
H321 C326 0.949 . S
H322 C328 0.950 . S
H323 C329 0.950 . S
H324 C330 0.949 . S
C325 H320 0.950 . S
C325 C327 1.327 . S
C325 C331 1.429 . S
C326 C318 1.574 . S
C326 H321 0.949 . S
C326 C332 1.368 1_545 S
C327 C311 1.349 . S
C327 H319 0.950 . S
C327 C325 1.327 . S
C328 C316 1.349 . S
C328 H322 0.950 . S
C328 C329 1.327 . S
C329 H323 0.950 . S
C329 C328 1.327 . S
C329 C333 1.429 . S
C330 C313 1.574 . S
C330 H324 0.949 . S
C330 C334 1.368 1_565 S
C331 C312 1.429 . S
C331 C325 1.429 . S
C331 C332 1.523 . S
C332 C313 1.368 . S
C332 C326 1.368 1_565 S
C332 C331 1.523 . S
C333 C317 1.429 . S
C333 C329 1.429 . S
C333 C334 1.523 . S
C334 C318 1.368 . S
C334 C330 1.368 1_545 S
C334 C333 1.523 . S
H335 C310 0.950 . S
H336 C312 0.950 . S
H337 C313 0.949 . S
H338 C315 0.950 . S
H339 C317 0.950 . S
C340 C341 1.349 . S
C340 C342 1.327 . S
C340 H365 0.950 . S
C341 C340 1.349 . S
C341 C357 1.349 1_554 S
C342 C340 1.327 . S
C342 C361 1.429 . S
C342 H366 0.950 . S
C343 C360 1.574 1_655 S
C343 C362 1.360 1_556 S
C343 H367 0.949 . S
H344 C348 0.949 . S
C345 C346 1.349 . S
C345 C347 1.327 . S
C345 H368 0.950 . S
C346 C345 1.349 . S
C346 C358 1.349 1_556 S
C347 C345 1.327 . S
C347 C363 1.432 . S
C347 H369 0.950 . S
C348 H344 0.949 . S
C348 C356 1.574 1_455 S
C348 C364 1.367 . S
H349 C357 0.950 . S
H350 C355 0.950 . S
H351 C356 0.949 . S
H352 C358 0.950 . S
H353 C359 0.950 . S
H354 C360 0.949 . S
C355 H350 0.950 . S
C355 C357 1.327 . S
C355 C361 1.429 1_556 S
C356 C348 1.574 1_655 S
C356 H351 0.949 . S
C356 C362 1.373 . S
C357 C341 1.349 1_556 S
C357 H349 0.950 . S
C357 C355 1.327 . S
C358 C346 1.349 1_554 S
C358 H352 0.950 . S
C358 C359 1.327 . S
C359 H353 0.950 . S
C359 C358 1.327 . S
C359 C363 1.427 1_554 S
C360 C343 1.574 1_455 S
C360 H354 0.949 . S
C360 C364 1.369 1_556 S
C361 C342 1.429 . S
C361 C355 1.429 1_554 S
C361 C362 1.528 . S
C362 C343 1.360 1_554 S
C362 C356 1.373 . S
C362 C361 1.528 . S
C363 C347 1.432 . S
C363 C359 1.427 1_556 S
C363 C364 1.521 1_556 S
C364 C348 1.367 . S
C364 C360 1.369 1_554 S
C364 C363 1.521 1_554 S
H365 C340 0.950 . S
H366 C342 0.950 . S
H367 C343 0.949 . S
H368 C345 0.950 . S
H369 C347 0.950 . S
C370 C371 1.349 . S
C370 C372 1.327 . S
C370 H395 0.950 . S
C371 C370 1.349 . S
C371 C387 1.349 . S
C372 C370 1.327 . S
C372 C391 1.429 . S
C372 H396 0.950 . S
C373 C390 1.574 1_455 S
C373 C392 1.368 . S
C373 H397 0.949 . S
H374 C378 0.949 . S
C375 C376 1.349 . S
C375 C377 1.327 . S
C375 H398 0.950 . S
C376 C375 1.349 . S
C376 C388 1.349 . S
C377 C375 1.327 . S
C377 C393 1.429 . S
C377 H399 0.950 . S
C378 H374 0.949 . S
C378 C386 1.574 1_655 S
C378 C394 1.368 . S
H379 C387 0.950 . S
H380 C385 0.950 . S
H381 C386 0.949 . S
H382 C388 0.950 . S
H383 C389 0.950 . S
H384 C390 0.949 . S
C385 H380 0.950 . S
C385 C387 1.327 . S
C385 C391 1.429 . S
C386 C378 1.574 1_455 S
C386 H381 0.949 . S
C386 C392 1.368 . S
C387 C371 1.349 . S
C387 H379 0.950 . S
C387 C385 1.327 . S
C388 C376 1.349 . S
C388 H382 0.950 . S
C388 C389 1.327 . S
C389 H383 0.950 . S
C389 C388 1.327 . S
C389 C393 1.429 . S
C390 C373 1.574 1_655 S
C390 H384 0.949 . S
C390 C394 1.368 . S
C391 C372 1.429 . S
C391 C385 1.429 . S
C391 C392 1.523 . S
C392 C373 1.368 . S
C392 C386 1.368 . S
C392 C391 1.523 . S
C393 C377 1.429 . S
C393 C389 1.429 . S
C393 C394 1.523 . S
C394 C378 1.368 . S
C394 C390 1.368 . S
C394 C393 1.523 . S
H395 C370 0.950 . S
H396 C372 0.950 . S
H397 C373 0.949 . S
H398 C375 0.950 . S
H399 C377 0.950 . S
C400 C401 1.342 1_665 S
C400 C402 1.327 . S
C400 H425 0.950 . S
C401 C400 1.342 1_445 S
C401 C417 1.359 . S
C402 C400 1.327 . S
C402 C421 1.421 1_665 S
C402 H426 0.950 . S
C403 C420 1.574 . S
C403 C422 1.375 . S
C403 H427 0.949 . S
H404 C408 0.949 . S
C405 C406 1.349 . S
C405 C407 1.327 . S
C405 H428 0.950 . S
C406 C405 1.349 . S
C406 C418 1.348 1_445 S
C407 C405 1.327 . S
C407 C423 1.432 . S
C407 H429 0.950 . S
C408 H404 0.949 . S
C408 C416 1.574 . S
C408 C424 1.364 1_665 S
H409 C417 0.950 . S
H410 C415 0.950 . S
H411 C416 0.949 . S
H412 C418 0.950 . S
H413 C419 0.950 . S
H414 C420 0.949 . S
C415 H410 0.950 . S
C415 C417 1.327 . S
C415 C421 1.434 . S
C416 C408 1.574 . S
C416 H411 0.949 . S
C416 C422 1.363 1_665 S
C417 C401 1.359 . S
C417 H409 0.950 . S
C417 C415 1.327 . S
C418 C406 1.348 1_665 S
C418 H412 0.950 . S
C418 C419 1.327 . S
C419 H413 0.950 . S
C419 C418 1.327 . S
C419 C423 1.426 1_665 S
C420 C403 1.574 . S
C420 H414 0.949 . S
C420 C424 1.372 . S
C421 C402 1.421 1_445 S
C421 C415 1.434 . S
C421 C422 1.523 . S
C422 C403 1.375 . S
C422 C416 1.363 1_445 S
C422 C421 1.523 . S
C423 C407 1.432 . S
C423 C419 1.426 1_445 S
C423 C424 1.523 . S
C424 C408 1.364 1_445 S
C424 C420 1.372 . S
C424 C423 1.523 . S
H425 C400 0.950 . S
H426 C402 0.950 . S
H427 C403 0.949 . S
H428 C405 0.950 . S
H429 C407 0.950 . S
C430 C431 1.344 1_545 S
C430 C432 1.327 . S
C430 H455 0.950 . S
C431 C430 1.344 1_565 S
C431 C447 1.357 1_455 S
C432 C430 1.327 . S
C432 C451 1.419 1_545 S
C432 H456 0.950 . S
C433 C450 1.574 . S
C433 C452 1.380 1_655 S
C433 H457 0.949 . S
H434 C438 0.949 . S
C435 C436 1.364 1_655 S
C435 C437 1.327 . S
C435 H458 0.950 . S
C436 C435 1.364 1_455 S
C436 C448 1.334 1_565 S
C437 C435 1.327 . S
C437 C453 1.442 1_655 S
C437 H459 0.950 . S
C438 H434 0.949 . S
C438 C446 1.574 . S
C438 C454 1.355 1_545 S
H439 C447 0.950 . S
H440 C445 0.950 . S
H441 C446 0.949 . S
H442 C448 0.950 . S
H443 C449 0.950 . S
H444 C450 0.949 . S
C445 H440 0.950 . S
C445 C447 1.327 . S
C445 C451 1.436 1_655 S
C446 C438 1.574 . S
C446 H441 0.949 . S
C446 C452 1.359 1_545 S
C447 C431 1.357 1_655 S
C447 H439 0.950 . S
C447 C445 1.327 . S
C448 C436 1.334 1_545 S
C448 H442 0.950 . S
C448 C449 1.327 . S
C449 H443 0.950 . S
C449 C448 1.327 . S
C449 C453 1.417 1_545 S
C450 C433 1.574 . S
C450 H444 0.949 . S
C450 C454 1.380 1_655 S
C451 C432 1.419 1_565 S
C451 C445 1.436 1_455 S
C451 C452 1.523 . S
C452 C433 1.380 1_455 S
C452 C446 1.359 1_565 S
C452 C451 1.523 . S
C453 C437 1.442 1_455 S
C453 C449 1.417 1_565 S
C453 C454 1.523 . S
C454 C438 1.355 1_565 S
C454 C450 1.380 1_455 S
C454 C453 1.523 . S
H455 C430 0.950 . S
H456 C432 0.950 . S
H457 C433 0.949 . S
H458 C435 0.950 . S
H459 C437 0.950 . S
C460 C461 1.349 . S
C460 C462 1.327 . S
C460 H485 0.950 . S
C461 C460 1.349 . S
C461 C477 1.349 . S
C462 C460 1.327 . S
C462 C481 1.429 . S
C462 H486 0.950 . S
C463 C480 1.574 . S
C463 C482 1.368 . S
C463 H487 0.949 . S
H464 C468 0.949 . S
C465 C466 1.349 . S
C465 C467 1.327 . S
C465 H488 0.950 . S
C466 C465 1.349 . S
C466 C478 1.349 . S
C467 C465 1.327 . S
C467 C483 1.429 . S
C467 H489 0.950 . S
C468 H464 0.949 . S
C468 C476 1.574 . S
C468 C484 1.368 . S
H469 C477 0.950 . S
H470 C475 0.950 . S
H471 C476 0.949 . S
H472 C478 0.950 . S
H473 C479 0.950 . S
H474 C480 0.949 . S
C475 H470 0.950 . S
C475 C477 1.327 . S
C475 C481 1.429 . S
C476 C468 1.574 . S
C476 H471 0.949 . S
C476 C482 1.368 . S
C477 C461 1.349 . S
C477 H469 0.950 . S
C477 C475 1.327 . S
C478 C466 1.349 . S
C478 H472 0.950 . S
C478 C479 1.327 . S
C479 H473 0.950 . S
C479 C478 1.327 . S
C479 C483 1.429 . S
C480 C463 1.574 . S
C480 H474 0.949 . S
C480 C484 1.368 . S
C481 C462 1.429 . S
C481 C475 1.429 . S
C481 C482 1.523 . S
C482 C463 1.368 . S
C482 C476 1.368 . S
C482 C481 1.523 . S
C483 C467 1.429 . S
C483 C479 1.429 . S
C483 C484 1.523 . S
C484 C468 1.368 . S
C484 C480 1.368 . S
C484 C483 1.523 . S
H485 C460 0.950 . S
H486 C462 0.950 . S
H487 C463 0.949 . S
H488 C465 0.950 . S
H489 C467 0.950 . S
C490 C491 1.349 . S
C490 C492 1.327 . S
C490 H515 0.950 . S
C491 C490 1.349 . S
C491 C507 1.349 . S
C492 C490 1.327 . S
C492 C511 1.429 . S
C492 H516 0.950 . S
C493 C510 1.574 . S
C493 C512 1.368 . S
C493 H517 0.949 . S
H494 C498 0.949 . S
C495 C496 1.349 . S
C495 C497 1.327 . S
C495 H518 0.950 . S
C496 C495 1.349 . S
C496 C508 1.349 . S
C497 C495 1.327 . S
C497 C513 1.429 . S
C497 H519 0.950 . S
C498 H494 0.949 . S
C498 C506 1.574 . S
C498 C514 1.368 . S
H499 C507 0.950 . S
H500 C505 0.950 . S
H501 C506 0.949 . S
H502 C508 0.950 . S
H503 C509 0.950 . S
H504 C510 0.949 . S
C505 H500 0.950 . S
C505 C507 1.327 . S
C505 C511 1.429 . S
C506 C498 1.574 . S
C506 H501 0.949 . S
C506 C512 1.368 . S
C507 C491 1.349 . S
C507 H499 0.950 . S
C507 C505 1.327 . S
C508 C496 1.349 . S
C508 H502 0.950 . S
C508 C509 1.327 . S
C509 H503 0.950 . S
C509 C508 1.327 . S
C509 C513 1.429 . S
C510 C493 1.574 . S
C510 H504 0.949 . S
C510 C514 1.368 . S
C511 C492 1.429 . S
C511 C505 1.429 . S
C511 C512 1.523 . S
C512 C493 1.368 . S
C512 C506 1.368 . S
C512 C511 1.523 . S
C513 C497 1.429 . S
C513 C509 1.429 . S
C513 C514 1.523 . S
C514 C498 1.368 . S
C514 C510 1.368 . S
C514 C513 1.523 . S
H515 C490 0.950 . S
H516 C492 0.950 . S
H517 C493 0.949 . S
H518 C495 0.950 . S
H519 C497 0.950 . S
C161 C111 1.564 1_554 S
C166 C20 1.567 1_556 S
C191 C100 1.566 1_556 S
C196 C31 1.563 1_554 S
C221 C71 1.569 . S
C226 C140 1.568 . S
C251 C60 1.570 . S
C256 C151 1.571 . S
C281 C4 1.078 . S
C286 C25 1.076 . S
C311 C65 1.078 . S
C316 C44 1.078 . S
C341 C84 1.078 . S
C346 C105 1.076 . S
C371 C124 1.078 . S
C376 C145 1.078 . S
C401 C42 1.459 1_455 S
C406 C2 1.466 . S
C431 C23 1.462 1_455 S
C436 C63 1.469 . S
C461 C122 1.466 . S
C466 C82 1.466 . S
C491 C143 1.466 . S
C496 C103 1.466 . S
