# Generated by pormake.
# Topology upa, (4)-cn, num edge types: 1
# Building blocks:
#     Node 0, Type 0, BuildingBlock: ICAMEG_clean_sbu_1, # of connection points: 4
#     Node 1, Type 0, BuildingBlock: ICAMEG_clean_sbu_1, # of connection points: 4
#     Node 2, Type 0, BuildingBlock: ICAMEG_clean_sbu_1, # of connection points: 4
#     Node 3, Type 0, BuildingBlock: ICAMEG_clean_sbu_1, # of connection points: 4
#     Node 4, Type 0, BuildingBlock: ICAMEG_clean_sbu_1, # of connection points: 4
#     Node 5, Type 0, BuildingBlock: ICAMEG_clean_sbu_1, # of connection points: 4
#     Node 6, Type 0, BuildingBlock: ICAMEG_clean_sbu_1, # of connection points: 4
#     Node 7, Type 0, BuildingBlock: ICAMEG_clean_sbu_1, # of connection points: 4
#     Edge 8, Type (0, 0), None
#     Edge 9, Type (0, 0), None
#     Edge 10, Type (0, 0), None
#     Edge 11, Type (0, 0), None
#     Edge 12, Type (0, 0), None
#     Edge 13, Type (0, 0), None
#     Edge 14, Type (0, 0), None
#     Edge 15, Type (0, 0), None
#     Edge 16, Type (0, 0), None
#     Edge 17, Type (0, 0), None
#     Edge 18, Type (0, 0), None
#     Edge 19, Type (0, 0), None
#     Edge 20, Type (0, 0), None
#     Edge 21, Type (0, 0), None
#     Edge 22, Type (0, 0), None
#     Edge 23, Type (0, 0), None
# Relax obj value: 0.124
# Max RMSD: 0.086
# Mean RMSD: 0.086
data_MOF--net-upa--node1-ICAMEG_clean_sbu_1--edge1-none
_symmetry_space_group_name_H-M    P1
_symmetry_Int_Tables_number       1
_symmetry_cell_setting            triclinic
loop_
_symmetry_equiv_pos_as_xyz
'x, y, z'
_cell_length_a     13.963475
_cell_length_b     13.963545
_cell_length_c     26.522587
_cell_angle_alpha  90.002472
_cell_angle_beta   89.997692
_cell_angle_gamma 90.00002
loop_
_atom_site_label
_atom_site_type_symbol
_atom_site_fract_x
_atom_site_fract_y
_atom_site_fract_z
_atom_type_partial_charge
Co0 Co 0.02146 0.17088 0.35524 0.0
Co1 Co 0.13667 0.09741 0.24811 0.0
O2 O 0.13871 0.17031 0.31248 0.0
C3 C 0.16735 0.18116 0.44414 0.0
O4 O 0.22257 0.24177 0.41986 0.0
C5 C 0.35239 0.17489 0.23351 0.0
O6 O 0.36936 0.14742 0.27992 0.0
O7 O 0.02659 0.18654 0.2214 0.0
O8 O 0.93516 0.19419 0.29123 0.0
H9 H 0.07981 0.81005 0.13498 0.0
H10 H 0.04627 0.31346 0.44284 0.0
O11 O 0.09521 0.14342 0.42154 0.0
H12 H 0.0508 0.50488 0.28979 0.0
H13 H 0.81269 0.28949 0.49169 0.0
H14 H 0.8226 0.10056 0.33594 0.0
H15 H 0.05069 0.32727 0.28275 0.0
H16 H -0.0417 0.20373 0.46702 0.0
O17 O 0.26204 0.17261 0.21792 0.0
H18 H 0.1146 0.88783 0.2168 0.0
H19 H 0.12214 0.1585 0.14551 0.0
H20 H 0.66943 0.1665 0.36499 0.0
H21 H 0.0697 0.47922 0.44852 0.0
H22 H 0.67115 0.28479 0.4353 0.0
H23 H 0.06388 0.57692 0.36782 0.0
O24 O 0.0048 0.03354 0.35058 0.0
H25 H 0.29916 0.93747 0.39635 0.0
H26 H 0.28158 0.95314 0.21303 0.0
H27 H 0.40434 0.85692 0.25106 0.0
H28 H 0.41288 0.84257 0.34481 0.0
H29 H 0.17925 0.03499 0.35582 0.0
H30 H 0.06544 0.0853 0.06614 0.0
H31 H 0.0534 0.90889 0.05928 0.0
O32 O 0.02618 0.01658 0.26885 0.0
C33 C 0.94246 0.19982 0.24272 0.0
C34 C 0.08936 0.88634 0.13717 0.0
C35 C 0.08493 0.04069 0.09766 0.0
N36 N 0.12788 0.02751 0.18491 0.0
C37 C 0.11141 0.93082 0.18295 0.0
C38 C 0.11552 0.08183 0.1428 0.0
C39 C 0.07518 0.94192 0.09438 0.0
C40 C 0.05013 0.35085 0.40801 0.0
N41 N 0.04047 0.30734 0.36212 0.0
C42 C 0.06601 0.44777 0.41163 0.0
C43 C 0.06708 0.50166 0.36785 0.0
C44 C 0.06036 0.45879 0.32181 0.0
C45 C 0.05199 0.36006 0.31919 0.0
C46 C 0.81466 0.24901 0.45704 0.0
C47 C 0.82124 0.14329 0.36983 0.0
C48 C 0.8981 0.20413 0.44183 0.0
N49 N 0.90385 0.16955 0.39396 0.0
C50 C 0.73444 0.18184 0.38519 0.0
C51 C 0.73447 0.24485 0.42574 0.0
C52 C -0.01203 -0.00821 0.30986 0.0
C53 C 0.29569 0.93982 0.35573 0.0
C54 C 0.28613 0.95198 0.25239 0.0
C55 C 0.35441 0.89364 0.27471 0.0
C56 C 0.35947 0.88714 0.32685 0.0
N57 N 0.2249 0.00562 0.28017 0.0
C58 C 0.22779 -0.00282 0.33179 0.0
Co59 Co 0.23625 0.52148 0.85522 0.0
Co60 Co 0.30972 0.63667 0.7481 0.0
O61 O 0.2368 0.63872 0.81247 0.0
C62 C 0.2259 0.66735 0.94414 0.0
O63 O 0.16527 0.72256 0.91986 0.0
C64 C 0.23225 0.85239 0.7335 0.0
O65 O 0.25972 0.86937 0.77991 0.0
O66 O 0.2206 0.52659 0.72139 0.0
O67 O 0.21296 0.43517 0.79121 0.0
H68 H 0.59709 0.57974 0.63498 0.0
H69 H 0.09366 0.5462 0.94283 0.0
O70 O 0.26368 0.59524 0.92152 0.0
H71 H 0.90225 0.55084 0.78978 0.0
H72 H 0.11768 0.31272 -0.00832 0.0
H73 H 0.30658 0.32262 0.83592 0.0
H74 H 0.07987 0.55072 0.78274 0.0
H75 H 0.20345 0.45833 0.96702 0.0
O76 O 0.23453 0.76204 0.71791 0.0
H77 H 0.51931 0.61457 0.7168 0.0
H78 H 0.24864 0.62216 0.6455 0.0
H79 H 0.24064 0.16945 0.86497 0.0
H80 H 0.9279 0.56961 0.94851 0.0
H81 H 0.12235 0.17119 0.93528 0.0
H82 H 0.8302 0.56388 0.8678 0.0
O83 O 0.37359 0.50485 0.85058 0.0
H84 H 0.46959 0.79921 0.89636 0.0
H85 H 0.45406 0.78154 0.71303 0.0
H86 H 0.55025 0.90432 0.75108 0.0
H87 H 0.56454 0.91289 0.84483 0.0
H88 H 0.37209 0.67929 0.85582 0.0
H89 H 0.32184 0.56543 0.56613 0.0
H90 H 0.49826 0.55334 0.55928 0.0
O91 O 0.39055 0.52618 0.76884 0.0
C92 C 0.20732 0.44246 0.74271 0.0
C93 C 0.5208 0.58932 0.63718 0.0
C94 C 0.36646 0.58492 0.59766 0.0
N95 N 0.37964 0.62787 0.68491 0.0
C96 C 0.47632 0.61138 0.68295 0.0
C97 C 0.32532 0.61553 0.6428 0.0
C98 C 0.46523 0.57514 0.59438 0.0
C99 C 0.05628 0.55008 0.90799 0.0
N100 N 0.09978 0.54046 0.8621 0.0
C101 C -0.04064 0.56595 0.91162 0.0
C102 C 0.90546 0.56706 0.86784 0.0
C103 C 0.94834 0.56037 0.8218 0.0
C104 C 0.04707 0.552 0.81917 0.0
C105 C 0.15817 0.31469 0.95704 0.0
C106 C 0.26386 0.32126 0.86982 0.0
C107 C 0.20304 0.39812 0.94182 0.0
N108 N 0.2376 0.40387 0.89395 0.0
C109 C 0.22532 0.23446 0.88518 0.0
C110 C 0.16232 0.2345 0.92573 0.0
C111 C 0.41534 0.488 0.80986 0.0
C112 C 0.46727 0.79572 0.85574 0.0
C113 C 0.45519 0.78611 0.7524 0.0
C114 C 0.51351 0.85439 0.77472 0.0
C115 C 0.51998 0.85948 0.82687 0.0
N116 N 0.4015 0.7249 0.78017 0.0
C117 C 0.40991 0.72782 0.83179 0.0
Co118 Co 0.88555 0.73627 0.35522 0.0
Co119 Co 0.77034 0.80971 0.24811 0.0
O120 O 0.7683 0.73681 0.31247 0.0
C121 C 0.73969 0.72589 0.44414 0.0
O122 O 0.6845 0.66524 0.41987 0.0
C123 C 0.55462 0.73224 0.2335 0.0
O124 O 0.53764 0.75972 0.27991 0.0
O125 O 0.88042 0.72059 0.22139 0.0
O126 O -0.02815 0.71298 0.29121 0.0
H127 H 0.82725 0.09707 0.13499 0.0
H128 H 0.86091 0.5937 0.44283 0.0
O129 O 0.81178 0.7637 0.42152 0.0
H130 H 0.85615 0.40226 0.28978 0.0
H131 H 0.09431 0.61777 0.49167 0.0
H132 H 0.0844 0.80662 0.33591 0.0
H133 H 0.85627 0.57988 0.28274 0.0
H134 H 0.94871 0.70355 0.46702 0.0
O135 O 0.64497 0.73451 0.21791 0.0
H136 H 0.79243 0.0193 0.21681 0.0
H137 H 0.78485 0.74862 0.1455 0.0
H138 H 0.23757 0.74069 0.36495 0.0
H139 H 0.83755 0.42795 0.44851 0.0
H140 H 0.23583 0.62241 0.43527 0.0
H141 H 0.84319 0.33023 0.36781 0.0
O142 O 0.90215 0.87362 0.35058 0.0
H143 H 0.6078 -0.0304 0.39637 0.0
H144 H 0.62546 -0.04596 0.21304 0.0
H145 H 0.5027 0.05025 0.25109 0.0
H146 H 0.49413 0.06456 0.34483 0.0
H147 H 0.72771 0.87208 0.35582 0.0
H148 H 0.84159 0.82182 0.06613 0.0
H149 H 0.85366 -0.00177 0.05929 0.0
O150 O 0.88083 0.89055 0.26884 0.0
C151 C -0.03545 0.70732 0.24271 0.0
C152 C 0.81768 0.02078 0.13718 0.0
C153 C 0.82209 0.86643 0.09766 0.0
N154 N 0.77913 0.87962 0.18491 0.0
C155 C 0.79562 -0.02369 0.18295 0.0
C156 C 0.79148 0.8253 0.1428 0.0
C157 C 0.83187 -0.0348 0.09438 0.0
C158 C 0.85701 0.55631 0.40799 0.0
N159 N 0.86659 0.59981 0.3621 0.0
C160 C 0.84116 0.45939 0.41162 0.0
C161 C 0.84 0.40549 0.36785 0.0
C162 C 0.84665 0.44836 0.3218 0.0
C163 C 0.85502 0.54709 0.31918 0.0
C164 C 0.09235 0.65825 0.45703 0.0
C165 C 0.08576 0.76391 0.36981 0.0
C166 C 0.00891 0.70313 0.44182 0.0
N167 N 0.00315 0.73765 0.39394 0.0
C168 C 0.17256 0.72537 0.38517 0.0
C169 C 0.17253 0.66239 0.42572 0.0
C170 C 0.91899 0.91537 0.30986 0.0
C171 C 0.6113 -0.03272 0.35574 0.0
C172 C 0.62089 -0.04482 0.2524 0.0
C173 C 0.55262 0.01352 0.27472 0.0
C174 C 0.54754 0.01999 0.32687 0.0
N175 N 0.68211 0.9015 0.28017 0.0
C176 C 0.67919 0.90991 0.33179 0.0
Co177 Co 0.67086 0.38556 0.85523 0.0
Co178 Co 0.59742 0.27034 0.74811 0.0
O179 O 0.67031 0.26831 0.81248 0.0
C180 C 0.68118 0.2397 0.94415 0.0
O181 O 0.74181 0.18449 0.91987 0.0
C182 C 0.6749 0.05462 0.73351 0.0
O183 O 0.64742 0.03765 0.77993 0.0
O184 O 0.68655 0.38042 0.7214 0.0
O185 O 0.69416 0.47185 0.79122 0.0
H186 H 0.31007 0.32718 0.63498 0.0
H187 H 0.81342 0.36084 0.94284 0.0
O188 O 0.6434 0.31181 0.92153 0.0
H189 H 0.00486 0.3562 0.7898 0.0
H190 H 0.7894 0.59434 -0.00832 0.0
H191 H 0.60052 0.58441 0.83593 0.0
H192 H 0.82725 0.35629 0.78275 0.0
H193 H 0.70363 0.44873 0.96702 0.0
O194 O 0.67263 0.14497 0.71792 0.0
H195 H 0.38783 0.29239 0.7168 0.0
H196 H 0.65853 0.28487 0.64551 0.0
H197 H 0.66646 0.73759 0.86497 0.0
H198 H -0.02082 0.33746 0.94852 0.0
H199 H 0.78474 0.73586 0.93529 0.0
H200 H 0.07689 0.34319 0.86782 0.0
O201 O 0.53351 0.40219 0.85058 0.0
H202 H 0.43746 0.10785 0.89636 0.0
H203 H 0.45316 0.12542 0.71303 0.0
H204 H 0.35693 0.00267 0.75107 0.0
H205 H 0.34255 -0.00586 0.84481 0.0
H206 H 0.53499 0.22775 0.85582 0.0
H207 H 0.58533 0.34158 0.56614 0.0
H208 H 0.40892 0.35361 0.55929 0.0
O209 O 0.51658 0.38083 0.76885 0.0
C210 C 0.69982 0.46455 0.74272 0.0
C211 C 0.38637 0.31763 0.63718 0.0
C212 C 0.54072 0.32208 0.59766 0.0
N213 N 0.52752 0.27913 0.68491 0.0
C214 C 0.43083 0.29558 0.68295 0.0
C215 C 0.58185 0.29149 0.6428 0.0
C216 C 0.44194 0.33183 0.59438 0.0
C217 C 0.85081 0.35697 0.90801 0.0
N218 N 0.80732 0.36657 0.86212 0.0
C219 C 0.94773 0.3411 0.91164 0.0
C220 C 0.00163 0.33999 0.86786 0.0
C221 C -0.04123 0.34666 0.82182 0.0
C222 C 0.86004 0.35503 0.81919 0.0
C223 C 0.74892 0.59237 0.95704 0.0
C224 C 0.64324 0.58578 0.86983 0.0
C225 C 0.70405 0.50893 0.94183 0.0
N226 N 0.6695 0.50317 0.89395 0.0
C227 C 0.68178 0.67258 0.88518 0.0
C228 C 0.74477 0.67255 0.92573 0.0
C229 C 0.49176 0.41902 0.80986 0.0
C230 C 0.43981 0.11132 0.85573 0.0
C231 C 0.45199 0.12088 0.75239 0.0
C232 C 0.39364 0.05261 0.77471 0.0
C233 C 0.38713 0.04755 0.82685 0.0
N234 N 0.50563 0.18211 0.78017 0.0
C235 C 0.49718 0.17921 0.83179 0.0
Co236 Co 0.52148 0.23623 0.08895 0.0
Co237 Co 0.63667 0.30971 0.19607 0.0
O238 O 0.63872 0.23679 0.13171 0.0
C239 C 0.66736 0.22589 4e-05 0.0
O240 O 0.72257 0.16526 0.02432 0.0
C241 C 0.8524 0.23225 0.21068 0.0
O242 O 0.86937 0.25971 0.16427 0.0
O243 O 0.52659 0.22059 0.22279 0.0
O244 O 0.43517 0.21294 0.15296 0.0
H245 H 0.57974 0.59708 0.30919 0.0
H246 H 0.54621 0.09365 0.00135 0.0
O247 O 0.59525 0.26367 0.02265 0.0
H248 H 0.55085 0.90224 0.1544 0.0
H249 H 0.31272 0.11767 0.9525 0.0
H250 H 0.32262 0.30657 0.10826 0.0
H251 H 0.55072 0.07986 0.16144 0.0
H252 H 0.45833 0.20344 -0.02284 0.0
O253 O 0.76204 0.23452 0.22627 0.0
H254 H 0.61457 0.5193 0.22737 0.0
H255 H 0.62216 0.24864 0.29867 0.0
H256 H 0.16945 0.24063 0.07921 0.0
H257 H 0.56962 0.92789 -0.00433 0.0
H258 H 0.17119 0.12234 0.00889 0.0
H259 H 0.56389 0.83019 0.07637 0.0
O260 O 0.50485 0.37358 0.0936 0.0
H261 H 0.79921 0.46958 0.04781 0.0
H262 H 0.78155 0.45405 0.23114 0.0
H263 H 0.90432 0.55024 0.19309 0.0
H264 H 0.9129 0.56453 0.09935 0.0
H265 H 0.67929 0.37208 0.08836 0.0
H266 H 0.56543 0.32184 0.37805 0.0
H267 H 0.55335 0.49825 0.38489 0.0
O268 O 0.52618 0.39054 0.17533 0.0
C269 C 0.44246 0.20731 0.20147 0.0
C270 C 0.58932 0.52079 0.307 0.0
C271 C 0.58492 0.36645 0.34652 0.0
N272 N 0.62787 0.37963 0.25927 0.0
C273 C 0.61139 0.47631 0.26123 0.0
C274 C 0.61553 0.32531 0.30138 0.0
C275 C 0.57514 0.46522 0.3498 0.0
C276 C 0.55009 0.05627 0.03618 0.0
N277 N 0.54046 0.09977 0.08207 0.0
C278 C 0.56596 -0.04065 0.03256 0.0
C279 C 0.56707 0.90546 0.07633 0.0
C280 C 0.56038 0.94833 0.12238 0.0
C281 C 0.552 0.04706 0.125 0.0
C282 C 0.31469 0.15816 -0.01286 0.0
C283 C 0.32126 0.26385 0.07436 0.0
C284 C 0.39813 0.20303 0.00236 0.0
N285 N 0.40387 0.23758 0.05023 0.0
C286 C 0.23446 0.2253 0.059 0.0
C287 C 0.2345 0.1623 0.01844 0.0
C288 C 0.488 0.41533 0.13432 0.0
C289 C 0.79572 0.46726 0.08844 0.0
C290 C 0.78612 0.45518 0.19178 0.0
C291 C 0.8544 0.5135 0.16946 0.0
C292 C 0.85948 0.51997 0.11731 0.0
N293 N 0.7249 0.40149 0.16401 0.0
C294 C 0.72782 0.4099 0.11239 0.0
Co295 Co 0.17089 0.02145 0.58894 0.0
Co296 Co 0.09742 0.13666 0.69607 0.0
O297 O 0.17032 0.1387 0.6317 0.0
C298 C 0.18117 0.16734 0.50003 0.0
O299 O 0.24179 0.22257 0.52431 0.0
C300 C 0.1749 0.35239 0.71066 0.0
O301 O 0.14743 0.36936 0.66425 0.0
O302 O 0.18655 0.02659 0.72278 0.0
O303 O 0.1942 0.93516 0.65295 0.0
H304 H 0.81006 0.07981 0.8092 0.0
H305 H 0.31346 0.04626 0.50133 0.0
O306 O 0.14343 0.09521 0.52264 0.0
H307 H 0.50489 0.05079 0.65438 0.0
H308 H 0.2895 0.81268 0.45249 0.0
H309 H 0.10056 0.82259 0.60824 0.0
H310 H 0.32728 0.05069 0.66143 0.0
H311 H 0.20373 -0.0417 0.47716 0.0
O312 O 0.17262 0.26204 0.72626 0.0
H313 H 0.88783 0.1146 0.72737 0.0
H314 H 0.15852 0.12214 0.79867 0.0
H315 H 0.16651 0.66943 0.57919 0.0
H316 H 0.47923 0.06969 0.49566 0.0
H317 H 0.2848 0.67115 0.50888 0.0
H318 H 0.57693 0.06387 0.57636 0.0
O319 O 0.03355 0.0048 0.5936 0.0
H320 H 0.93747 0.29916 0.54782 0.0
H321 H 0.95315 0.28157 0.73115 0.0
H322 H 0.85693 0.40434 0.69311 0.0
H323 H 0.84257 0.41287 0.59937 0.0
H324 H 0.035 0.17924 0.58836 0.0
H325 H 0.08531 0.06543 0.87804 0.0
H326 H 0.9089 0.0534 0.88489 0.0
O327 O 0.01659 0.02617 0.67533 0.0
C328 C 0.19983 0.94246 0.70146 0.0
C329 C 0.88635 0.08936 0.807 0.0
C330 C 0.0407 0.08493 0.84651 0.0
N331 N 0.02752 0.12787 0.75927 0.0
C332 C 0.93083 0.11141 0.76123 0.0
C333 C 0.08184 0.11552 0.80137 0.0
C334 C 0.94193 0.07518 0.8498 0.0
C335 C 0.35085 0.05012 0.53617 0.0
N336 N 0.30735 0.04047 0.58206 0.0
C337 C 0.44777 0.066 0.53255 0.0
C338 C 0.50167 0.06707 0.57632 0.0
C339 C 0.4588 0.06035 0.62236 0.0
C340 C 0.36006 0.05199 0.62499 0.0
C341 C 0.24901 0.81466 0.48713 0.0
C342 C 0.1433 0.82123 0.57434 0.0
C343 C 0.20414 0.8981 0.50235 0.0
N344 N 0.16956 0.90385 0.55022 0.0
C345 C 0.18184 0.73444 0.55898 0.0
C346 C 0.24485 0.73447 0.51843 0.0
C347 C -0.0082 -0.01203 0.63432 0.0
C348 C 0.93983 0.29568 0.58845 0.0
C349 C 0.95199 0.28613 0.69179 0.0
C350 C 0.89365 0.3544 0.66947 0.0
C351 C 0.88715 0.35946 0.61733 0.0
N352 N 0.00563 0.22489 0.66401 0.0
C353 C -0.00281 0.22779 0.61239 0.0
Co354 Co 0.38557 0.67085 0.08894 0.0
Co355 Co 0.27035 0.59741 0.19606 0.0
O356 O 0.26831 0.6703 0.1317 0.0
C357 C 0.23971 0.68117 3e-05 0.0
O358 O 0.18449 0.74181 0.0243 0.0
C359 C 0.05462 0.67489 0.21066 0.0
O360 O 0.03765 0.64741 0.16425 0.0
O361 O 0.38042 0.68654 0.22278 0.0
O362 O 0.47186 0.69416 0.15295 0.0
H363 H 0.32719 0.31006 0.30919 0.0
H364 H 0.36086 0.81341 0.00134 0.0
O365 O 0.31181 0.6434 0.02264 0.0
H366 H 0.3562 0.00485 0.15438 0.0
H367 H 0.59435 0.78939 0.9525 0.0
H368 H 0.58442 0.60051 0.10825 0.0
H369 H 0.3563 0.82724 0.16143 0.0
H370 H 0.44874 0.70362 -0.02285 0.0
O371 O 0.14497 0.67262 0.22625 0.0
H372 H 0.29239 0.38783 0.22737 0.0
H373 H 0.28487 0.65852 0.29867 0.0
H374 H 0.73759 0.66645 0.07921 0.0
H375 H 0.33747 -0.02083 -0.00435 0.0
H376 H 0.73587 0.78473 0.00889 0.0
H377 H 0.34319 0.07688 0.07636 0.0
O378 O 0.4022 0.5335 0.0936 0.0
H379 H 0.10785 0.43745 0.04782 0.0
H380 H 0.12543 0.45315 0.23115 0.0
H381 H 0.00268 0.35691 0.19311 0.0
H382 H -0.00586 0.34254 0.09937 0.0
H383 H 0.22775 0.53499 0.08835 0.0
H384 H 0.34158 0.58532 0.37804 0.0
H385 H 0.35361 0.40891 0.38489 0.0
O386 O 0.38084 0.51657 0.17533 0.0
C387 C 0.46456 0.69981 0.20146 0.0
C388 C 0.31764 0.38636 0.307 0.0
C389 C 0.32208 0.54071 0.34651 0.0
N390 N 0.27913 0.52752 0.25927 0.0
C391 C 0.29559 0.43082 0.26123 0.0
C392 C 0.29149 0.58184 0.30137 0.0
C393 C 0.33183 0.44193 0.3498 0.0
C394 C 0.35698 0.8508 0.03617 0.0
N395 N 0.36658 0.80731 0.08206 0.0
C396 C 0.34111 0.94772 0.03254 0.0
C397 C 0.33999 0.00162 0.07632 0.0
C398 C 0.34667 -0.04124 0.12236 0.0
C399 C 0.35503 0.86003 0.12499 0.0
C400 C 0.59238 0.74891 -0.01286 0.0
C401 C 0.58579 0.64323 0.07435 0.0
C402 C 0.50894 0.70403 0.00235 0.0
N403 N 0.50318 0.66949 0.05022 0.0
C404 C 0.67259 0.68177 0.05899 0.0
C405 C 0.67256 0.74476 0.01844 0.0
C406 C 0.41902 0.49175 0.13432 0.0
C407 C 0.11133 0.4398 0.08845 0.0
C408 C 0.12088 0.45198 0.19179 0.0
C409 C 0.05261 0.39363 0.16947 0.0
C410 C 0.04755 0.38712 0.11732 0.0
N411 N 0.18212 0.50562 0.16401 0.0
C412 C 0.17922 0.49717 0.11239 0.0
Co413 Co 0.73628 0.88554 0.58895 0.0
Co414 Co 0.80972 0.77034 0.69607 0.0
O415 O 0.73681 0.7683 0.63171 0.0
C416 C 0.72589 0.73969 0.50004 0.0
O417 O 0.66524 0.68449 0.52431 0.0
C418 C 0.73225 0.55461 0.71068 0.0
O419 O 0.75973 0.53763 0.66426 0.0
O420 O 0.7206 0.88042 0.72279 0.0
O421 O 0.71299 -0.02815 0.65297 0.0
H422 H 0.09708 0.82725 0.80919 0.0
H423 H 0.59371 0.8609 0.50135 0.0
O424 O 0.76371 0.81177 0.52265 0.0
H425 H 0.40227 0.85614 0.6544 0.0
H426 H 0.61778 0.09431 0.4525 0.0
H427 H 0.80663 0.08439 0.60827 0.0
H428 H 0.57989 0.85627 0.66144 0.0
H429 H 0.70356 0.94871 0.47716 0.0
O430 O 0.73452 0.64497 0.72626 0.0
H431 H 0.01931 0.79242 0.72737 0.0
H432 H 0.74863 0.78485 0.79867 0.0
H433 H 0.74069 0.23756 0.57922 0.0
H434 H 0.42795 0.83754 0.49566 0.0
H435 H 0.62242 0.23582 0.50891 0.0
H436 H 0.33024 0.84318 0.57637 0.0
O437 O 0.87363 0.90215 0.5936 0.0
H438 H -0.0304 0.60779 0.54781 0.0
H439 H -0.04595 0.62546 0.73114 0.0
H440 H 0.05026 0.50269 0.69309 0.0
H441 H 0.06457 0.49412 0.59935 0.0
H442 H 0.87209 0.7277 0.58835 0.0
H443 H 0.82182 0.84158 0.87805 0.0
H444 H -0.00176 0.85366 0.88489 0.0
O445 O 0.89056 0.88082 0.67534 0.0
C446 C 0.70733 -0.03545 0.70147 0.0
C447 C 0.02079 0.81768 0.807 0.0
C448 C 0.86644 0.82209 0.84652 0.0
N449 N 0.87963 0.77913 0.75927 0.0
C450 C -0.02368 0.79561 0.76123 0.0
C451 C 0.82531 0.79148 0.80138 0.0
C452 C -0.03479 0.83186 0.8498 0.0
C453 C 0.55632 0.85701 0.53618 0.0
N454 N 0.59982 0.86658 0.58207 0.0
C455 C 0.4594 0.84115 0.53255 0.0
C456 C 0.4055 0.84 0.57633 0.0
C457 C 0.44837 0.84664 0.62237 0.0
C458 C 0.5471 0.85501 0.625 0.0
C459 C 0.65826 0.09234 0.48714 0.0
C460 C 0.76392 0.08576 0.57437 0.0
C461 C 0.70314 0.0089 0.50236 0.0
N462 N 0.73766 0.00315 0.55024 0.0
C463 C 0.72538 0.17255 0.55901 0.0
C464 C 0.66239 0.17252 0.51845 0.0
C465 C 0.91538 0.91899 0.63432 0.0
C466 C -0.03271 0.61129 0.58844 0.0
C467 C -0.04481 0.62089 0.69178 0.0
C468 C 0.01352 0.55262 0.66945 0.0
C469 C 0.02 0.54754 0.61731 0.0
N470 N 0.90151 0.6821 0.66401 0.0
C471 C 0.90992 0.67918 0.61239 0.0
loop_
_geom_bond_atom_site_label_1
_geom_bond_atom_site_label_2
_geom_bond_distance
_geom_bond_site_symmetry_2
_ccdc_geom_bond_type
Co0 O2 2.143 . S
Co0 O8 2.074 1_455 S
Co0 O11 2.093 . S
Co0 O24 2.097 . S
Co0 N41 2.151 . S
Co0 N49 2.214 1_455 S
Co1 O2 2.160 . S
Co1 O7 2.058 . S
Co1 O17 2.057 . S
Co1 O32 2.037 . S
Co1 N36 2.145 . S
Co1 N57 2.257 . S
O2 Co0 2.143 . S
O2 Co1 2.160 . S
C3 O4 1.278 . S
C3 O11 1.224 . S
O4 C3 1.278 . S
C5 O6 1.245 . S
C5 O17 1.232 . S
O6 C5 1.245 . S
O7 Co1 2.058 . S
O7 C33 1.269 1_455 S
O8 Co0 2.074 1_655 S
O8 C33 1.257 . S
H9 C34 0.930 . S
H10 C40 0.930 . S
O11 Co0 2.093 . S
O11 C3 1.224 . S
H12 C44 0.929 . S
H13 C46 0.930 . S
H14 C47 0.930 . S
H15 C45 0.929 . S
H16 C48 0.928 . S
O17 Co1 2.057 . S
O17 C5 1.232 . S
H18 C37 0.929 1_545 S
H19 C38 0.929 . S
H20 C50 0.931 . S
H21 C42 0.929 . S
H22 C51 0.930 . S
H23 C43 0.931 . S
O24 Co0 2.097 . S
O24 C52 1.214 . S
H25 C53 0.929 1_545 S
H26 C54 0.929 . S
H27 C55 0.930 . S
H28 C56 0.929 . S
H29 C58 0.930 . S
H30 C35 0.931 . S
H31 C39 0.930 . S
O32 Co1 2.037 . S
O32 C52 1.234 . S
C33 O7 1.269 1_655 S
C33 O8 1.257 . S
C34 H9 0.930 . S
C34 C37 1.391 . S
C34 C39 1.418 . S
C35 H30 0.931 . S
C35 C38 1.407 . S
C35 C39 1.349 1_545 S
N36 Co1 2.145 . S
N36 C37 1.393 1_545 S
N36 C38 1.334 . S
C37 H18 0.929 1_565 S
C37 C34 1.391 . S
C37 N36 1.393 1_565 S
C38 H19 0.929 . S
C38 C35 1.407 . S
C38 N36 1.334 . S
C39 H31 0.930 . S
C39 C34 1.418 . S
C39 C35 1.349 1_565 S
C40 H10 0.930 . S
C40 N41 1.330 . S
C40 C42 1.446 . S
N41 Co0 2.151 . S
N41 C40 1.330 . S
N41 C45 1.418 1_455 S
C42 H21 0.929 . S
C42 C40 1.446 . S
C42 C43 1.332 . S
C43 H23 0.931 . S
C43 C42 1.332 . S
C43 C44 1.267 1_455 S
C44 H12 0.929 . S
C44 C43 1.267 1_655 S
C44 C45 1.251 . S
C45 H15 0.929 . S
C45 N41 1.418 1_655 S
C45 C44 1.251 . S
C46 H13 0.930 . S
C46 C48 1.406 . S
C46 C51 1.261 . S
C47 H14 0.930 . S
C47 N49 1.325 . S
C47 C50 1.357 . S
C48 H16 0.928 . S
C48 C46 1.406 . S
C48 N49 1.261 . S
N49 Co0 2.214 1_655 S
N49 C47 1.325 . S
N49 C48 1.261 . S
C50 H20 0.931 . S
C50 C47 1.357 . S
C50 C51 1.312 . S
C51 H22 0.930 . S
C51 C46 1.261 . S
C51 C50 1.312 . S
C52 O24 1.214 . S
C52 O32 1.234 . S
C53 H25 0.929 1_565 S
C53 C56 1.391 . S
C53 C58 1.391 1_565 S
C54 H26 0.929 . S
C54 C55 1.390 . S
C54 N57 1.391 1_565 S
C55 H27 0.930 . S
C55 C54 1.390 . S
C55 C56 1.392 . S
C56 H28 0.929 . S
C56 C53 1.391 . S
C56 C55 1.392 . S
N57 Co1 2.257 . S
N57 C54 1.391 1_545 S
N57 C58 1.388 . S
C58 H29 0.930 . S
C58 C53 1.391 1_545 S
C58 N57 1.388 . S
Co59 O61 2.143 . S
Co59 O67 2.074 . S
Co59 O70 2.093 . S
Co59 O83 2.097 . S
Co59 N100 2.151 . S
Co59 N108 2.214 . S
Co60 O61 2.160 . S
Co60 O66 2.058 . S
Co60 O76 2.057 . S
Co60 O91 2.037 . S
Co60 N95 2.145 . S
Co60 N116 2.257 . S
O61 Co59 2.143 . S
O61 Co60 2.160 . S
C62 O63 1.278 . S
C62 O70 1.224 . S
O63 C62 1.278 . S
C64 O65 1.245 . S
C64 O76 1.232 . S
O65 C64 1.245 . S
O66 Co60 2.058 . S
O66 C92 1.269 . S
O67 Co59 2.074 . S
O67 C92 1.257 . S
H68 C93 0.930 . S
H69 C99 0.930 . S
O70 Co59 2.093 . S
O70 C62 1.224 . S
H71 C103 0.929 . S
H72 C105 0.930 1_554 S
H73 C106 0.930 . S
H74 C104 0.929 . S
H75 C107 0.928 . S
O76 Co60 2.057 . S
O76 C64 1.232 . S
H77 C96 0.929 . S
H78 C97 0.929 . S
H79 C109 0.931 . S
H80 C101 0.929 . S
H81 C110 0.930 . S
H82 C102 0.931 . S
O83 Co59 2.097 . S
O83 C111 1.214 . S
H84 C112 0.929 1_545 S
H85 C113 0.929 . S
H86 C114 0.930 . S
H87 C115 0.929 . S
H88 C117 0.930 . S
H89 C94 0.930 . S
H90 C98 0.930 . S
O91 Co60 2.037 . S
O91 C111 1.234 . S
C92 O66 1.269 . S
C92 O67 1.257 . S
C93 H68 0.930 . S
C93 C96 1.388 . S
C93 C98 1.418 . S
C94 H89 0.930 . S
C94 C97 1.404 . S
C94 C98 1.353 . S
N95 Co60 2.145 . S
N95 C96 1.397 . S
N95 C97 1.334 . S
C96 H77 0.929 . S
C96 C93 1.388 . S
C96 N95 1.397 . S
C97 H78 0.929 . S
C97 C94 1.404 . S
C97 N95 1.334 . S
C98 H90 0.930 . S
C98 C93 1.418 . S
C98 C94 1.353 . S
C99 H69 0.930 . S
C99 N100 1.330 . S
C99 C101 1.446 1_455 S
N100 Co59 2.151 . S
N100 C99 1.330 . S
N100 C104 1.418 . S
C101 H80 0.929 . S
C101 C99 1.446 1_655 S
C101 C102 1.332 . S
C102 H82 0.931 . S
C102 C101 1.332 . S
C102 C103 1.267 . S
C103 H71 0.929 . S
C103 C102 1.267 . S
C103 C104 1.251 1_655 S
C104 H74 0.929 . S
C104 N100 1.418 . S
C104 C103 1.251 1_455 S
C105 H72 0.930 1_556 S
C105 C107 1.406 . S
C105 C110 1.261 . S
C106 H73 0.930 . S
C106 N108 1.325 . S
C106 C109 1.357 . S
C107 H75 0.928 . S
C107 C105 1.406 . S
C107 N108 1.261 . S
N108 Co59 2.214 . S
N108 C106 1.325 . S
N108 C107 1.261 . S
C109 H79 0.931 . S
C109 C106 1.357 . S
C109 C110 1.312 . S
C110 H81 0.930 . S
C110 C105 1.261 . S
C110 C109 1.312 . S
C111 O83 1.214 . S
C111 O91 1.234 . S
C112 H84 0.929 1_565 S
C112 C115 1.391 . S
C112 C117 1.391 . S
C113 H85 0.929 . S
C113 C114 1.390 . S
C113 N116 1.391 . S
C114 H86 0.930 . S
C114 C113 1.390 . S
C114 C115 1.392 . S
C115 H87 0.929 . S
C115 C112 1.391 . S
C115 C114 1.392 . S
N116 Co60 2.257 . S
N116 C113 1.391 . S
N116 C117 1.388 . S
C117 H88 0.930 . S
C117 C112 1.391 . S
C117 N116 1.388 . S
Co118 O120 2.143 . S
Co118 O126 2.074 1_655 S
Co118 O129 2.093 . S
Co118 O142 2.097 . S
Co118 N159 2.151 . S
Co118 N167 2.214 1_655 S
Co119 O120 2.160 . S
Co119 O125 2.058 . S
Co119 O135 2.057 . S
Co119 O150 2.037 . S
Co119 N154 2.145 . S
Co119 N175 2.257 . S
O120 Co118 2.143 . S
O120 Co119 2.160 . S
C121 O122 1.278 . S
C121 O129 1.224 . S
O122 C121 1.278 . S
C123 O124 1.245 . S
C123 O135 1.232 . S
O124 C123 1.245 . S
O125 Co119 2.058 . S
O125 C151 1.269 1_655 S
O126 Co118 2.074 1_455 S
O126 C151 1.257 . S
H127 C152 0.930 . S
H128 C158 0.930 . S
O129 Co118 2.093 . S
O129 C121 1.224 . S
H130 C162 0.929 . S
H131 C164 0.930 . S
H132 C165 0.930 . S
H133 C163 0.929 . S
H134 C166 0.928 . S
O135 Co119 2.057 . S
O135 C123 1.232 . S
H136 C155 0.929 1_565 S
H137 C156 0.929 . S
H138 C168 0.931 . S
H139 C160 0.929 . S
H140 C169 0.930 . S
H141 C161 0.931 . S
O142 Co118 2.097 . S
O142 C170 1.214 . S
H143 C171 0.929 1_565 S
H144 C172 0.929 . S
H145 C173 0.930 . S
H146 C174 0.929 . S
H147 C176 0.930 . S
H148 C153 0.931 . S
H149 C157 0.930 . S
O150 Co119 2.037 . S
O150 C170 1.234 . S
C151 O125 1.269 1_455 S
C151 O126 1.257 . S
C152 H127 0.930 . S
C152 C155 1.391 . S
C152 C157 1.418 . S
C153 H148 0.931 . S
C153 C156 1.407 . S
C153 C157 1.349 1_565 S
N154 Co119 2.145 . S
N154 C155 1.393 1_565 S
N154 C156 1.334 . S
C155 H136 0.929 1_545 S
C155 C152 1.391 . S
C155 N154 1.393 1_545 S
C156 H137 0.929 . S
C156 C153 1.407 . S
C156 N154 1.334 . S
C157 H149 0.930 . S
C157 C152 1.418 . S
C157 C153 1.349 1_545 S
C158 H128 0.930 . S
C158 N159 1.330 . S
C158 C160 1.446 . S
N159 Co118 2.151 . S
N159 C158 1.330 . S
N159 C163 1.418 1_655 S
C160 H139 0.929 . S
C160 C158 1.446 . S
C160 C161 1.332 . S
C161 H141 0.931 . S
C161 C160 1.332 . S
C161 C162 1.267 1_655 S
C162 H130 0.929 . S
C162 C161 1.267 1_455 S
C162 C163 1.251 . S
C163 H133 0.929 . S
C163 N159 1.418 1_455 S
C163 C162 1.251 . S
C164 H131 0.930 . S
C164 C166 1.406 . S
C164 C169 1.261 . S
C165 H132 0.930 . S
C165 N167 1.325 . S
C165 C168 1.357 . S
C166 H134 0.928 . S
C166 C164 1.406 . S
C166 N167 1.261 . S
N167 Co118 2.214 1_455 S
N167 C165 1.325 . S
N167 C166 1.261 . S
C168 H138 0.931 . S
C168 C165 1.357 . S
C168 C169 1.312 . S
C169 H140 0.930 . S
C169 C164 1.261 . S
C169 C168 1.312 . S
C170 O142 1.214 . S
C170 O150 1.234 . S
C171 H143 0.929 1_545 S
C171 C174 1.391 . S
C171 C176 1.391 1_545 S
C172 H144 0.929 . S
C172 C173 1.390 . S
C172 N175 1.391 1_545 S
C173 H145 0.930 . S
C173 C172 1.390 . S
C173 C174 1.392 . S
C174 H146 0.929 . S
C174 C171 1.391 . S
C174 C173 1.392 . S
N175 Co119 2.257 . S
N175 C172 1.391 1_565 S
N175 C176 1.388 . S
C176 H147 0.930 . S
C176 C171 1.391 1_565 S
C176 N175 1.388 . S
Co177 O179 2.143 . S
Co177 O185 2.074 . S
Co177 O188 2.093 . S
Co177 O201 2.097 . S
Co177 N218 2.151 . S
Co177 N226 2.214 . S
Co178 O179 2.160 . S
Co178 O184 2.058 . S
Co178 O194 2.057 . S
Co178 O209 2.037 . S
Co178 N213 2.145 . S
Co178 N234 2.257 . S
O179 Co177 2.143 . S
O179 Co178 2.160 . S
C180 O181 1.278 . S
C180 O188 1.224 . S
O181 C180 1.278 . S
C182 O183 1.245 . S
C182 O194 1.232 . S
O183 C182 1.245 . S
O184 Co178 2.058 . S
O184 C210 1.269 . S
O185 Co177 2.074 . S
O185 C210 1.257 . S
H186 C211 0.930 . S
H187 C217 0.930 . S
O188 Co177 2.093 . S
O188 C180 1.224 . S
H189 C221 0.929 . S
H190 C223 0.930 1_554 S
H191 C224 0.930 . S
H192 C222 0.929 . S
H193 C225 0.928 . S
O194 Co178 2.057 . S
O194 C182 1.232 . S
H195 C214 0.929 . S
H196 C215 0.929 . S
H197 C227 0.931 . S
H198 C219 0.929 . S
H199 C228 0.930 . S
H200 C220 0.931 . S
O201 Co177 2.097 . S
O201 C229 1.214 . S
H202 C230 0.929 1_565 S
H203 C231 0.929 . S
H204 C232 0.930 . S
H205 C233 0.929 . S
H206 C235 0.930 . S
H207 C212 0.930 . S
H208 C216 0.930 . S
O209 Co178 2.037 . S
O209 C229 1.234 . S
C210 O184 1.269 . S
C210 O185 1.257 . S
C211 H186 0.930 . S
C211 C214 1.388 . S
C211 C216 1.418 . S
C212 H207 0.930 . S
C212 C215 1.404 . S
C212 C216 1.353 . S
N213 Co178 2.145 . S
N213 C214 1.397 . S
N213 C215 1.334 . S
C214 H195 0.929 . S
C214 C211 1.388 . S
C214 N213 1.397 . S
C215 H196 0.929 . S
C215 C212 1.404 . S
C215 N213 1.334 . S
C216 H208 0.930 . S
C216 C211 1.418 . S
C216 C212 1.353 . S
C217 H187 0.930 . S
C217 N218 1.330 . S
C217 C219 1.446 1_655 S
N218 Co177 2.151 . S
N218 C217 1.330 . S
N218 C222 1.418 . S
C219 H198 0.929 . S
C219 C217 1.446 1_455 S
C219 C220 1.332 . S
C220 H200 0.931 . S
C220 C219 1.332 . S
C220 C221 1.267 . S
C221 H189 0.929 . S
C221 C220 1.267 . S
C221 C222 1.251 1_455 S
C222 H192 0.929 . S
C222 N218 1.418 . S
C222 C221 1.251 1_655 S
C223 H190 0.930 1_556 S
C223 C225 1.406 . S
C223 C228 1.261 . S
C224 H191 0.930 . S
C224 N226 1.325 . S
C224 C227 1.357 . S
C225 H193 0.928 . S
C225 C223 1.406 . S
C225 N226 1.261 . S
N226 Co177 2.214 . S
N226 C224 1.325 . S
N226 C225 1.261 . S
C227 H197 0.931 . S
C227 C224 1.357 . S
C227 C228 1.312 . S
C228 H199 0.930 . S
C228 C223 1.261 . S
C228 C227 1.312 . S
C229 O201 1.214 . S
C229 O209 1.234 . S
C230 H202 0.929 1_545 S
C230 C233 1.391 . S
C230 C235 1.391 . S
C231 H203 0.929 . S
C231 C232 1.390 . S
C231 N234 1.391 . S
C232 H204 0.930 . S
C232 C231 1.390 . S
C232 C233 1.392 . S
C233 H205 0.929 . S
C233 C230 1.391 . S
C233 C232 1.392 . S
N234 Co178 2.257 . S
N234 C231 1.391 . S
N234 C235 1.388 . S
C235 H206 0.930 . S
C235 C230 1.391 . S
C235 N234 1.388 . S
Co236 O238 2.143 . S
Co236 O244 2.074 . S
Co236 O247 2.093 . S
Co236 O260 2.097 . S
Co236 N277 2.151 . S
Co236 N285 2.214 . S
Co237 O238 2.160 . S
Co237 O243 2.058 . S
Co237 O253 2.057 . S
Co237 O268 2.037 . S
Co237 N272 2.145 . S
Co237 N293 2.257 . S
O238 Co236 2.143 . S
O238 Co237 2.160 . S
C239 O240 1.278 . S
C239 O247 1.224 . S
O240 C239 1.278 . S
C241 O242 1.245 . S
C241 O253 1.232 . S
O242 C241 1.245 . S
O243 Co237 2.058 . S
O243 C269 1.269 . S
O244 Co236 2.074 . S
O244 C269 1.257 . S
H245 C270 0.930 . S
H246 C276 0.930 . S
O247 Co236 2.093 . S
O247 C239 1.224 . S
H248 C280 0.929 . S
H249 C282 0.930 1_556 S
H250 C283 0.930 . S
H251 C281 0.929 . S
H252 C284 0.928 . S
O253 Co237 2.057 . S
O253 C241 1.232 . S
H254 C273 0.929 . S
H255 C274 0.929 . S
H256 C286 0.931 . S
H257 C278 0.929 . S
H258 C287 0.930 . S
H259 C279 0.931 . S
O260 Co236 2.097 . S
O260 C288 1.214 . S
H261 C289 0.929 1_455 S
H262 C290 0.929 . S
H263 C291 0.930 . S
H264 C292 0.929 . S
H265 C294 0.930 . S
H266 C271 0.930 . S
H267 C275 0.930 . S
O268 Co237 2.037 . S
O268 C288 1.234 . S
C269 O243 1.269 . S
C269 O244 1.257 . S
C270 H245 0.930 . S
C270 C273 1.388 . S
C270 C275 1.418 . S
C271 H266 0.930 . S
C271 C274 1.404 . S
C271 C275 1.353 . S
N272 Co237 2.145 . S
N272 C273 1.397 . S
N272 C274 1.334 . S
C273 H254 0.929 . S
C273 C270 1.388 . S
C273 N272 1.397 . S
C274 H255 0.929 . S
C274 C271 1.404 . S
C274 N272 1.334 . S
C275 H267 0.930 . S
C275 C270 1.418 . S
C275 C271 1.353 . S
C276 H246 0.930 . S
C276 N277 1.330 . S
C276 C278 1.446 1_545 S
N277 Co236 2.151 . S
N277 C276 1.330 . S
N277 C281 1.418 . S
C278 H257 0.929 . S
C278 C276 1.446 1_565 S
C278 C279 1.332 . S
C279 H259 0.931 . S
C279 C278 1.332 . S
C279 C280 1.267 . S
C280 H248 0.929 . S
C280 C279 1.267 . S
C280 C281 1.251 1_565 S
C281 H251 0.929 . S
C281 N277 1.418 . S
C281 C280 1.251 1_545 S
C282 H249 0.930 1_554 S
C282 C284 1.406 . S
C282 C287 1.261 . S
C283 H250 0.930 . S
C283 N285 1.325 . S
C283 C286 1.357 . S
C284 H252 0.928 . S
C284 C282 1.406 . S
C284 N285 1.261 . S
N285 Co236 2.214 . S
N285 C283 1.325 . S
N285 C284 1.261 . S
C286 H256 0.931 . S
C286 C283 1.357 . S
C286 C287 1.312 . S
C287 H258 0.930 . S
C287 C282 1.261 . S
C287 C286 1.312 . S
C288 O260 1.214 . S
C288 O268 1.234 . S
C289 H261 0.929 1_655 S
C289 C292 1.391 . S
C289 C294 1.391 . S
C290 H262 0.929 . S
C290 C291 1.390 . S
C290 N293 1.391 . S
C291 H263 0.930 . S
C291 C290 1.390 . S
C291 C292 1.392 . S
C292 H264 0.929 . S
C292 C289 1.391 . S
C292 C291 1.392 . S
N293 Co237 2.257 . S
N293 C290 1.391 . S
N293 C294 1.388 . S
C294 H265 0.930 . S
C294 C289 1.391 . S
C294 N293 1.388 . S
Co295 O297 2.143 . S
Co295 O303 2.074 1_545 S
Co295 O306 2.093 . S
Co295 O319 2.097 . S
Co295 N336 2.151 . S
Co295 N344 2.214 1_545 S
Co296 O297 2.160 . S
Co296 O302 2.058 . S
Co296 O312 2.057 . S
Co296 O327 2.037 . S
Co296 N331 2.145 . S
Co296 N352 2.257 . S
O297 Co295 2.143 . S
O297 Co296 2.160 . S
C298 O299 1.278 . S
C298 O306 1.224 . S
O299 C298 1.278 . S
C300 O301 1.245 . S
C300 O312 1.232 . S
O301 C300 1.245 . S
O302 Co296 2.058 . S
O302 C328 1.269 1_545 S
O303 Co295 2.074 1_565 S
O303 C328 1.257 . S
H304 C329 0.930 . S
H305 C335 0.930 . S
O306 Co295 2.093 . S
O306 C298 1.224 . S
H307 C339 0.929 . S
H308 C341 0.930 . S
H309 C342 0.930 . S
H310 C340 0.929 . S
H311 C343 0.928 . S
O312 Co296 2.057 . S
O312 C300 1.232 . S
H313 C332 0.929 1_455 S
H314 C333 0.929 . S
H315 C345 0.931 . S
H316 C337 0.929 . S
H317 C346 0.930 . S
H318 C338 0.931 . S
O319 Co295 2.097 . S
O319 C347 1.214 . S
H320 C348 0.929 1_455 S
H321 C349 0.929 . S
H322 C350 0.930 . S
H323 C351 0.929 . S
H324 C353 0.930 . S
H325 C330 0.931 . S
H326 C334 0.930 . S
O327 Co296 2.037 . S
O327 C347 1.234 . S
C328 O302 1.269 1_565 S
C328 O303 1.257 . S
C329 H304 0.930 . S
C329 C332 1.391 . S
C329 C334 1.418 . S
C330 H325 0.931 . S
C330 C333 1.407 . S
C330 C334 1.349 1_455 S
N331 Co296 2.145 . S
N331 C332 1.393 1_455 S
N331 C333 1.334 . S
C332 H313 0.929 1_655 S
C332 C329 1.391 . S
C332 N331 1.393 1_655 S
C333 H314 0.929 . S
C333 C330 1.407 . S
C333 N331 1.334 . S
C334 H326 0.930 . S
C334 C329 1.418 . S
C334 C330 1.349 1_655 S
C335 H305 0.930 . S
C335 N336 1.330 . S
C335 C337 1.446 . S
N336 Co295 2.151 . S
N336 C335 1.330 . S
N336 C340 1.418 1_545 S
C337 H316 0.929 . S
C337 C335 1.446 . S
C337 C338 1.332 . S
C338 H318 0.931 . S
C338 C337 1.332 . S
C338 C339 1.267 1_545 S
C339 H307 0.929 . S
C339 C338 1.267 1_565 S
C339 C340 1.251 . S
C340 H310 0.929 . S
C340 N336 1.418 1_565 S
C340 C339 1.251 . S
C341 H308 0.930 . S
C341 C343 1.406 . S
C341 C346 1.261 . S
C342 H309 0.930 . S
C342 N344 1.325 . S
C342 C345 1.357 . S
C343 H311 0.928 . S
C343 C341 1.406 . S
C343 N344 1.261 . S
N344 Co295 2.214 1_565 S
N344 C342 1.325 . S
N344 C343 1.261 . S
C345 H315 0.931 . S
C345 C342 1.357 . S
C345 C346 1.312 . S
C346 H317 0.930 . S
C346 C341 1.261 . S
C346 C345 1.312 . S
C347 O319 1.214 . S
C347 O327 1.234 . S
C348 H320 0.929 1_655 S
C348 C351 1.391 . S
C348 C353 1.391 1_655 S
C349 H321 0.929 . S
C349 C350 1.390 . S
C349 N352 1.391 1_655 S
C350 H322 0.930 . S
C350 C349 1.390 . S
C350 C351 1.392 . S
C351 H323 0.929 . S
C351 C348 1.391 . S
C351 C350 1.392 . S
N352 Co296 2.257 . S
N352 C349 1.391 1_455 S
N352 C353 1.388 . S
C353 H324 0.930 . S
C353 C348 1.391 1_455 S
C353 N352 1.388 . S
Co354 O356 2.143 . S
Co354 O362 2.074 . S
Co354 O365 2.093 . S
Co354 O378 2.097 . S
Co354 N395 2.151 . S
Co354 N403 2.214 . S
Co355 O356 2.160 . S
Co355 O361 2.058 . S
Co355 O371 2.057 . S
Co355 O386 2.037 . S
Co355 N390 2.145 . S
Co355 N411 2.257 . S
O356 Co354 2.143 . S
O356 Co355 2.160 . S
C357 O358 1.278 . S
C357 O365 1.224 . S
O358 C357 1.278 . S
C359 O360 1.245 . S
C359 O371 1.232 . S
O360 C359 1.245 . S
O361 Co355 2.058 . S
O361 C387 1.269 . S
O362 Co354 2.074 . S
O362 C387 1.257 . S
H363 C388 0.930 . S
H364 C394 0.930 . S
O365 Co354 2.093 . S
O365 C357 1.224 . S
H366 C398 0.929 . S
H367 C400 0.930 1_556 S
H368 C401 0.930 . S
H369 C399 0.929 . S
H370 C402 0.928 . S
O371 Co355 2.057 . S
O371 C359 1.232 . S
H372 C391 0.929 . S
H373 C392 0.929 . S
H374 C404 0.931 . S
H375 C396 0.929 . S
H376 C405 0.930 . S
H377 C397 0.931 . S
O378 Co354 2.097 . S
O378 C406 1.214 . S
H379 C407 0.929 1_655 S
H380 C408 0.929 . S
H381 C409 0.930 . S
H382 C410 0.929 . S
H383 C412 0.930 . S
H384 C389 0.930 . S
H385 C393 0.930 . S
O386 Co355 2.037 . S
O386 C406 1.234 . S
C387 O361 1.269 . S
C387 O362 1.257 . S
C388 H363 0.930 . S
C388 C391 1.388 . S
C388 C393 1.418 . S
C389 H384 0.930 . S
C389 C392 1.404 . S
C389 C393 1.353 . S
N390 Co355 2.145 . S
N390 C391 1.397 . S
N390 C392 1.334 . S
C391 H372 0.929 . S
C391 C388 1.388 . S
C391 N390 1.397 . S
C392 H373 0.929 . S
C392 C389 1.404 . S
C392 N390 1.334 . S
C393 H385 0.930 . S
C393 C388 1.418 . S
C393 C389 1.353 . S
C394 H364 0.930 . S
C394 N395 1.330 . S
C394 C396 1.446 1_565 S
N395 Co354 2.151 . S
N395 C394 1.330 . S
N395 C399 1.418 . S
C396 H375 0.929 . S
C396 C394 1.446 1_545 S
C396 C397 1.332 . S
C397 H377 0.931 . S
C397 C396 1.332 . S
C397 C398 1.267 . S
C398 H366 0.929 . S
C398 C397 1.267 . S
C398 C399 1.251 1_545 S
C399 H369 0.929 . S
C399 N395 1.418 . S
C399 C398 1.251 1_565 S
C400 H367 0.930 1_554 S
C400 C402 1.406 . S
C400 C405 1.261 . S
C401 H368 0.930 . S
C401 N403 1.325 . S
C401 C404 1.357 . S
C402 H370 0.928 . S
C402 C400 1.406 . S
C402 N403 1.261 . S
N403 Co354 2.214 . S
N403 C401 1.325 . S
N403 C402 1.261 . S
C404 H374 0.931 . S
C404 C401 1.357 . S
C404 C405 1.312 . S
C405 H376 0.930 . S
C405 C400 1.261 . S
C405 C404 1.312 . S
C406 O378 1.214 . S
C406 O386 1.234 . S
C407 H379 0.929 1_455 S
C407 C410 1.391 . S
C407 C412 1.391 . S
C408 H380 0.929 . S
C408 C409 1.390 . S
C408 N411 1.391 . S
C409 H381 0.930 . S
C409 C408 1.390 . S
C409 C410 1.392 . S
C410 H382 0.929 . S
C410 C407 1.391 . S
C410 C409 1.392 . S
N411 Co355 2.257 . S
N411 C408 1.391 . S
N411 C412 1.388 . S
C412 H383 0.930 . S
C412 C407 1.391 . S
C412 N411 1.388 . S
Co413 O415 2.143 . S
Co413 O421 2.074 1_565 S
Co413 O424 2.093 . S
Co413 O437 2.097 . S
Co413 N454 2.151 . S
Co413 N462 2.214 1_565 S
Co414 O415 2.160 . S
Co414 O420 2.058 . S
Co414 O430 2.057 . S
Co414 O445 2.037 . S
Co414 N449 2.145 . S
Co414 N470 2.257 . S
O415 Co413 2.143 . S
O415 Co414 2.160 . S
C416 O417 1.278 . S
C416 O424 1.224 . S
O417 C416 1.278 . S
C418 O419 1.245 . S
C418 O430 1.232 . S
O419 C418 1.245 . S
O420 Co414 2.058 . S
O420 C446 1.269 1_565 S
O421 Co413 2.074 1_545 S
O421 C446 1.257 . S
H422 C447 0.930 . S
H423 C453 0.930 . S
O424 Co413 2.093 . S
O424 C416 1.224 . S
H425 C457 0.929 . S
H426 C459 0.930 . S
H427 C460 0.930 . S
H428 C458 0.929 . S
H429 C461 0.928 . S
O430 Co414 2.057 . S
O430 C418 1.232 . S
H431 C450 0.929 1_655 S
H432 C451 0.929 . S
H433 C463 0.931 . S
H434 C455 0.929 . S
H435 C464 0.930 . S
H436 C456 0.931 . S
O437 Co413 2.097 . S
O437 C465 1.214 . S
H438 C466 0.929 1_655 S
H439 C467 0.929 . S
H440 C468 0.930 . S
H441 C469 0.929 . S
H442 C471 0.930 . S
H443 C448 0.931 . S
H444 C452 0.930 . S
O445 Co414 2.037 . S
O445 C465 1.234 . S
C446 O420 1.269 1_545 S
C446 O421 1.257 . S
C447 H422 0.930 . S
C447 C450 1.391 . S
C447 C452 1.418 . S
C448 H443 0.931 . S
C448 C451 1.407 . S
C448 C452 1.349 1_655 S
N449 Co414 2.145 . S
N449 C450 1.393 1_655 S
N449 C451 1.334 . S
C450 H431 0.929 1_455 S
C450 C447 1.391 . S
C450 N449 1.393 1_455 S
C451 H432 0.929 . S
C451 C448 1.407 . S
C451 N449 1.334 . S
C452 H444 0.930 . S
C452 C447 1.418 . S
C452 C448 1.349 1_455 S
C453 H423 0.930 . S
C453 N454 1.330 . S
C453 C455 1.446 . S
N454 Co413 2.151 . S
N454 C453 1.330 . S
N454 C458 1.418 1_565 S
C455 H434 0.929 . S
C455 C453 1.446 . S
C455 C456 1.332 . S
C456 H436 0.931 . S
C456 C455 1.332 . S
C456 C457 1.267 1_565 S
C457 H425 0.929 . S
C457 C456 1.267 1_545 S
C457 C458 1.251 . S
C458 H428 0.929 . S
C458 N454 1.418 1_545 S
C458 C457 1.251 . S
C459 H426 0.930 . S
C459 C461 1.406 . S
C459 C464 1.261 . S
C460 H427 0.930 . S
C460 N462 1.325 . S
C460 C463 1.357 . S
C461 H429 0.928 . S
C461 C459 1.406 . S
C461 N462 1.261 . S
N462 Co413 2.214 1_545 S
N462 C460 1.325 . S
N462 C461 1.261 . S
C463 H433 0.931 . S
C463 C460 1.357 . S
C463 C464 1.312 . S
C464 H435 0.930 . S
C464 C459 1.261 . S
C464 C463 1.312 . S
C465 O437 1.214 . S
C465 O445 1.234 . S
C466 H438 0.929 1_455 S
C466 C469 1.391 . S
C466 C471 1.391 1_455 S
C467 H439 0.929 . S
C467 C468 1.390 . S
C467 N470 1.391 1_455 S
C468 H440 0.930 . S
C468 C467 1.390 . S
C468 C469 1.392 . S
C469 H441 0.929 . S
C469 C466 1.391 . S
C469 C468 1.392 . S
N470 Co414 2.257 . S
N470 C467 1.391 1_655 S
N470 C471 1.388 . S
C471 H442 0.930 . S
C471 C466 1.391 1_655 S
C471 N470 1.388 . S
C52 C170 1.021 1_445 S
C111 C229 1.021 . S
C288 C406 1.021 . S
C347 C465 1.021 1_445 S
C3 C298 1.419 . S
C62 C357 1.419 1_556 S
C416 C121 1.419 . S
C180 C239 1.419 1_556 S
C269 C5 2.231 . S
C64 C328 2.231 . S
C123 C387 2.231 . S
C182 C446 2.231 . S
C33 C241 2.231 . S
C300 C92 2.231 . S
C359 C151 2.231 . S
C210 C418 2.231 . S
