# Generated by pormake.
# Topology lcv-a, (4)-cn, num edge types: 1
# Building blocks:
#     Node 0, Type 0, BuildingBlock: NAHDIM_clean_sbu_0, # of connection points: 4
#     Node 1, Type 0, BuildingBlock: NAHDIM_clean_sbu_0, # of connection points: 4
#     Node 2, Type 0, BuildingBlock: NAHDIM_clean_sbu_0, # of connection points: 4
#     Node 3, Type 0, BuildingBlock: NAHDIM_clean_sbu_0, # of connection points: 4
#     Node 4, Type 0, BuildingBlock: NAHDIM_clean_sbu_0, # of connection points: 4
#     Node 5, Type 0, BuildingBlock: NAHDIM_clean_sbu_0, # of connection points: 4
#     Node 6, Type 0, BuildingBlock: NAHDIM_clean_sbu_0, # of connection points: 4
#     Node 7, Type 0, BuildingBlock: NAHDIM_clean_sbu_0, # of connection points: 4
#     Node 8, Type 0, BuildingBlock: NAHDIM_clean_sbu_0, # of connection points: 4
#     Node 9, Type 0, BuildingBlock: NAHDIM_clean_sbu_0, # of connection points: 4
#     Node 10, Type 0, BuildingBlock: NAHDIM_clean_sbu_0, # of connection points: 4
#     Node 11, Type 0, BuildingBlock: NAHDIM_clean_sbu_0, # of connection points: 4
#     Node 12, Type 0, BuildingBlock: NAHDIM_clean_sbu_0, # of connection points: 4
#     Node 13, Type 0, BuildingBlock: NAHDIM_clean_sbu_0, # of connection points: 4
#     Node 14, Type 0, BuildingBlock: NAHDIM_clean_sbu_0, # of connection points: 4
#     Node 15, Type 0, BuildingBlock: NAHDIM_clean_sbu_0, # of connection points: 4
#     Node 16, Type 0, BuildingBlock: NAHDIM_clean_sbu_0, # of connection points: 4
#     Node 17, Type 0, BuildingBlock: NAHDIM_clean_sbu_0, # of connection points: 4
#     Node 18, Type 0, BuildingBlock: NAHDIM_clean_sbu_0, # of connection points: 4
#     Node 19, Type 0, BuildingBlock: NAHDIM_clean_sbu_0, # of connection points: 4
#     Node 20, Type 0, BuildingBlock: NAHDIM_clean_sbu_0, # of connection points: 4
#     Node 21, Type 0, BuildingBlock: NAHDIM_clean_sbu_0, # of connection points: 4
#     Node 22, Type 0, BuildingBlock: NAHDIM_clean_sbu_0, # of connection points: 4
#     Node 23, Type 0, BuildingBlock: NAHDIM_clean_sbu_0, # of connection points: 4
#     Node 24, Type 0, BuildingBlock: NAHDIM_clean_sbu_0, # of connection points: 4
#     Node 25, Type 0, BuildingBlock: NAHDIM_clean_sbu_0, # of connection points: 4
#     Node 26, Type 0, BuildingBlock: NAHDIM_clean_sbu_0, # of connection points: 4
#     Node 27, Type 0, BuildingBlock: NAHDIM_clean_sbu_0, # of connection points: 4
#     Node 28, Type 0, BuildingBlock: NAHDIM_clean_sbu_0, # of connection points: 4
#     Node 29, Type 0, BuildingBlock: NAHDIM_clean_sbu_0, # of connection points: 4
#     Node 30, Type 0, BuildingBlock: NAHDIM_clean_sbu_0, # of connection points: 4
#     Node 31, Type 0, BuildingBlock: NAHDIM_clean_sbu_0, # of connection points: 4
#     Node 32, Type 0, BuildingBlock: NAHDIM_clean_sbu_0, # of connection points: 4
#     Node 33, Type 0, BuildingBlock: NAHDIM_clean_sbu_0, # of connection points: 4
#     Node 34, Type 0, BuildingBlock: NAHDIM_clean_sbu_0, # of connection points: 4
#     Node 35, Type 0, BuildingBlock: NAHDIM_clean_sbu_0, # of connection points: 4
#     Node 36, Type 0, BuildingBlock: NAHDIM_clean_sbu_0, # of connection points: 4
#     Node 37, Type 0, BuildingBlock: NAHDIM_clean_sbu_0, # of connection points: 4
#     Node 38, Type 0, BuildingBlock: NAHDIM_clean_sbu_0, # of connection points: 4
#     Node 39, Type 0, BuildingBlock: NAHDIM_clean_sbu_0, # of connection points: 4
#     Node 40, Type 0, BuildingBlock: NAHDIM_clean_sbu_0, # of connection points: 4
#     Node 41, Type 0, BuildingBlock: NAHDIM_clean_sbu_0, # of connection points: 4
#     Node 42, Type 0, BuildingBlock: NAHDIM_clean_sbu_0, # of connection points: 4
#     Node 43, Type 0, BuildingBlock: NAHDIM_clean_sbu_0, # of connection points: 4
#     Node 44, Type 0, BuildingBlock: NAHDIM_clean_sbu_0, # of connection points: 4
#     Node 45, Type 0, BuildingBlock: NAHDIM_clean_sbu_0, # of connection points: 4
#     Node 46, Type 0, BuildingBlock: NAHDIM_clean_sbu_0, # of connection points: 4
#     Node 47, Type 0, BuildingBlock: NAHDIM_clean_sbu_0, # of connection points: 4
#     Edge 48, Type (0, 0), BuildingBlock: AJUNOK_clean_linker_0, # of connection points: 2
#     Edge 49, Type (0, 0), BuildingBlock: AJUNOK_clean_linker_0, # of connection points: 2
#     Edge 50, Type (0, 0), BuildingBlock: AJUNOK_clean_linker_0, # of connection points: 2
#     Edge 51, Type (0, 0), BuildingBlock: AJUNOK_clean_linker_0, # of connection points: 2
#     Edge 52, Type (0, 0), BuildingBlock: AJUNOK_clean_linker_0, # of connection points: 2
#     Edge 53, Type (0, 0), BuildingBlock: AJUNOK_clean_linker_0, # of connection points: 2
#     Edge 54, Type (0, 0), BuildingBlock: AJUNOK_clean_linker_0, # of connection points: 2
#     Edge 55, Type (0, 0), BuildingBlock: AJUNOK_clean_linker_0, # of connection points: 2
#     Edge 56, Type (0, 0), BuildingBlock: AJUNOK_clean_linker_0, # of connection points: 2
#     Edge 57, Type (0, 0), BuildingBlock: AJUNOK_clean_linker_0, # of connection points: 2
#     Edge 58, Type (0, 0), BuildingBlock: AJUNOK_clean_linker_0, # of connection points: 2
#     Edge 59, Type (0, 0), BuildingBlock: AJUNOK_clean_linker_0, # of connection points: 2
#     Edge 60, Type (0, 0), BuildingBlock: AJUNOK_clean_linker_0, # of connection points: 2
#     Edge 61, Type (0, 0), BuildingBlock: AJUNOK_clean_linker_0, # of connection points: 2
#     Edge 62, Type (0, 0), BuildingBlock: AJUNOK_clean_linker_0, # of connection points: 2
#     Edge 63, Type (0, 0), BuildingBlock: AJUNOK_clean_linker_0, # of connection points: 2
#     Edge 64, Type (0, 0), BuildingBlock: AJUNOK_clean_linker_0, # of connection points: 2
#     Edge 65, Type (0, 0), BuildingBlock: AJUNOK_clean_linker_0, # of connection points: 2
#     Edge 66, Type (0, 0), BuildingBlock: AJUNOK_clean_linker_0, # of connection points: 2
#     Edge 67, Type (0, 0), BuildingBlock: AJUNOK_clean_linker_0, # of connection points: 2
#     Edge 68, Type (0, 0), BuildingBlock: AJUNOK_clean_linker_0, # of connection points: 2
#     Edge 69, Type (0, 0), BuildingBlock: AJUNOK_clean_linker_0, # of connection points: 2
#     Edge 70, Type (0, 0), BuildingBlock: AJUNOK_clean_linker_0, # of connection points: 2
#     Edge 71, Type (0, 0), BuildingBlock: AJUNOK_clean_linker_0, # of connection points: 2
#     Edge 72, Type (0, 0), BuildingBlock: AJUNOK_clean_linker_0, # of connection points: 2
#     Edge 73, Type (0, 0), BuildingBlock: AJUNOK_clean_linker_0, # of connection points: 2
#     Edge 74, Type (0, 0), BuildingBlock: AJUNOK_clean_linker_0, # of connection points: 2
#     Edge 75, Type (0, 0), BuildingBlock: AJUNOK_clean_linker_0, # of connection points: 2
#     Edge 76, Type (0, 0), BuildingBlock: AJUNOK_clean_linker_0, # of connection points: 2
#     Edge 77, Type (0, 0), BuildingBlock: AJUNOK_clean_linker_0, # of connection points: 2
#     Edge 78, Type (0, 0), BuildingBlock: AJUNOK_clean_linker_0, # of connection points: 2
#     Edge 79, Type (0, 0), BuildingBlock: AJUNOK_clean_linker_0, # of connection points: 2
#     Edge 80, Type (0, 0), BuildingBlock: AJUNOK_clean_linker_0, # of connection points: 2
#     Edge 81, Type (0, 0), BuildingBlock: AJUNOK_clean_linker_0, # of connection points: 2
#     Edge 82, Type (0, 0), BuildingBlock: AJUNOK_clean_linker_0, # of connection points: 2
#     Edge 83, Type (0, 0), BuildingBlock: AJUNOK_clean_linker_0, # of connection points: 2
#     Edge 84, Type (0, 0), BuildingBlock: AJUNOK_clean_linker_0, # of connection points: 2
#     Edge 85, Type (0, 0), BuildingBlock: AJUNOK_clean_linker_0, # of connection points: 2
#     Edge 86, Type (0, 0), BuildingBlock: AJUNOK_clean_linker_0, # of connection points: 2
#     Edge 87, Type (0, 0), BuildingBlock: AJUNOK_clean_linker_0, # of connection points: 2
#     Edge 88, Type (0, 0), BuildingBlock: AJUNOK_clean_linker_0, # of connection points: 2
#     Edge 89, Type (0, 0), BuildingBlock: AJUNOK_clean_linker_0, # of connection points: 2
#     Edge 90, Type (0, 0), BuildingBlock: AJUNOK_clean_linker_0, # of connection points: 2
#     Edge 91, Type (0, 0), BuildingBlock: AJUNOK_clean_linker_0, # of connection points: 2
#     Edge 92, Type (0, 0), BuildingBlock: AJUNOK_clean_linker_0, # of connection points: 2
#     Edge 93, Type (0, 0), BuildingBlock: AJUNOK_clean_linker_0, # of connection points: 2
#     Edge 94, Type (0, 0), BuildingBlock: AJUNOK_clean_linker_0, # of connection points: 2
#     Edge 95, Type (0, 0), BuildingBlock: AJUNOK_clean_linker_0, # of connection points: 2
#     Edge 96, Type (0, 0), BuildingBlock: AJUNOK_clean_linker_0, # of connection points: 2
#     Edge 97, Type (0, 0), BuildingBlock: AJUNOK_clean_linker_0, # of connection points: 2
#     Edge 98, Type (0, 0), BuildingBlock: AJUNOK_clean_linker_0, # of connection points: 2
#     Edge 99, Type (0, 0), BuildingBlock: AJUNOK_clean_linker_0, # of connection points: 2
#     Edge 100, Type (0, 0), BuildingBlock: AJUNOK_clean_linker_0, # of connection points: 2
#     Edge 101, Type (0, 0), BuildingBlock: AJUNOK_clean_linker_0, # of connection points: 2
#     Edge 102, Type (0, 0), BuildingBlock: AJUNOK_clean_linker_0, # of connection points: 2
#     Edge 103, Type (0, 0), BuildingBlock: AJUNOK_clean_linker_0, # of connection points: 2
#     Edge 104, Type (0, 0), BuildingBlock: AJUNOK_clean_linker_0, # of connection points: 2
#     Edge 105, Type (0, 0), BuildingBlock: AJUNOK_clean_linker_0, # of connection points: 2
#     Edge 106, Type (0, 0), BuildingBlock: AJUNOK_clean_linker_0, # of connection points: 2
#     Edge 107, Type (0, 0), BuildingBlock: AJUNOK_clean_linker_0, # of connection points: 2
#     Edge 108, Type (0, 0), BuildingBlock: AJUNOK_clean_linker_0, # of connection points: 2
#     Edge 109, Type (0, 0), BuildingBlock: AJUNOK_clean_linker_0, # of connection points: 2
#     Edge 110, Type (0, 0), BuildingBlock: AJUNOK_clean_linker_0, # of connection points: 2
#     Edge 111, Type (0, 0), BuildingBlock: AJUNOK_clean_linker_0, # of connection points: 2
#     Edge 112, Type (0, 0), BuildingBlock: AJUNOK_clean_linker_0, # of connection points: 2
#     Edge 113, Type (0, 0), BuildingBlock: AJUNOK_clean_linker_0, # of connection points: 2
#     Edge 114, Type (0, 0), BuildingBlock: AJUNOK_clean_linker_0, # of connection points: 2
#     Edge 115, Type (0, 0), BuildingBlock: AJUNOK_clean_linker_0, # of connection points: 2
#     Edge 116, Type (0, 0), BuildingBlock: AJUNOK_clean_linker_0, # of connection points: 2
#     Edge 117, Type (0, 0), BuildingBlock: AJUNOK_clean_linker_0, # of connection points: 2
#     Edge 118, Type (0, 0), BuildingBlock: AJUNOK_clean_linker_0, # of connection points: 2
#     Edge 119, Type (0, 0), BuildingBlock: AJUNOK_clean_linker_0, # of connection points: 2
#     Edge 120, Type (0, 0), BuildingBlock: AJUNOK_clean_linker_0, # of connection points: 2
#     Edge 121, Type (0, 0), BuildingBlock: AJUNOK_clean_linker_0, # of connection points: 2
#     Edge 122, Type (0, 0), BuildingBlock: AJUNOK_clean_linker_0, # of connection points: 2
#     Edge 123, Type (0, 0), BuildingBlock: AJUNOK_clean_linker_0, # of connection points: 2
#     Edge 124, Type (0, 0), BuildingBlock: AJUNOK_clean_linker_0, # of connection points: 2
#     Edge 125, Type (0, 0), BuildingBlock: AJUNOK_clean_linker_0, # of connection points: 2
#     Edge 126, Type (0, 0), BuildingBlock: AJUNOK_clean_linker_0, # of connection points: 2
#     Edge 127, Type (0, 0), BuildingBlock: AJUNOK_clean_linker_0, # of connection points: 2
#     Edge 128, Type (0, 0), BuildingBlock: AJUNOK_clean_linker_0, # of connection points: 2
#     Edge 129, Type (0, 0), BuildingBlock: AJUNOK_clean_linker_0, # of connection points: 2
#     Edge 130, Type (0, 0), BuildingBlock: AJUNOK_clean_linker_0, # of connection points: 2
#     Edge 131, Type (0, 0), BuildingBlock: AJUNOK_clean_linker_0, # of connection points: 2
#     Edge 132, Type (0, 0), BuildingBlock: AJUNOK_clean_linker_0, # of connection points: 2
#     Edge 133, Type (0, 0), BuildingBlock: AJUNOK_clean_linker_0, # of connection points: 2
#     Edge 134, Type (0, 0), BuildingBlock: AJUNOK_clean_linker_0, # of connection points: 2
#     Edge 135, Type (0, 0), BuildingBlock: AJUNOK_clean_linker_0, # of connection points: 2
#     Edge 136, Type (0, 0), BuildingBlock: AJUNOK_clean_linker_0, # of connection points: 2
#     Edge 137, Type (0, 0), BuildingBlock: AJUNOK_clean_linker_0, # of connection points: 2
#     Edge 138, Type (0, 0), BuildingBlock: AJUNOK_clean_linker_0, # of connection points: 2
#     Edge 139, Type (0, 0), BuildingBlock: AJUNOK_clean_linker_0, # of connection points: 2
#     Edge 140, Type (0, 0), BuildingBlock: AJUNOK_clean_linker_0, # of connection points: 2
#     Edge 141, Type (0, 0), BuildingBlock: AJUNOK_clean_linker_0, # of connection points: 2
#     Edge 142, Type (0, 0), BuildingBlock: AJUNOK_clean_linker_0, # of connection points: 2
#     Edge 143, Type (0, 0), BuildingBlock: AJUNOK_clean_linker_0, # of connection points: 2
# Relax obj value: 0.772
# Max RMSD: 0.299
# Mean RMSD: 0.291
data_MOF--net-lcv-a--node1-NAHDIM_clean_sbu_0--edge1-AJUNOK_clean_linker_0
_symmetry_space_group_name_H-M    P1
_symmetry_Int_Tables_number       1
_symmetry_cell_setting            triclinic
loop_
_symmetry_equiv_pos_as_xyz
'x, y, z'
_cell_length_a     66.50098
_cell_length_b     66.494312
_cell_length_c     66.461117
_cell_angle_alpha  91.526163
_cell_angle_beta   91.514523
_cell_angle_gamma 91.64805
loop_
_atom_site_label
_atom_site_type_symbol
_atom_site_fract_x
_atom_site_fract_y
_atom_site_fract_z
_atom_type_partial_charge
C0 C 0.01144 0.39752 0.16423 0.0
O1 O 0.00118 0.39214 0.1477 0.0
O2 O 0.03847 0.34296 0.17609 0.0
Zn3 Zn 0.03207 0.36235 0.15432 0.0
O4 O 0.00571 0.35085 0.14272 0.0
C5 C 0.06413 0.3474 0.13227 0.0
O6 O 0.07129 0.34181 0.14979 0.0
O7 O 0.02779 0.38886 0.16809 0.0
C8 C 0.00138 0.34788 0.12413 0.0
O9 O 0.01423 0.3539 0.11071 0.0
C10 C 0.02501 0.34123 0.18924 0.0
O11 O 0.00979 0.35338 0.1886 0.0
O12 O 0.05206 0.36183 0.13212 0.0
C13 C 0.88038 0.78339 0.45423 0.0
O14 O 0.89453 0.79244 0.46558 0.0
O15 O 0.92677 0.80874 0.43883 0.0
Zn16 Zn 0.90636 0.79332 0.4211 0.0
O17 O 0.92151 0.76901 0.41261 0.0
C18 C 0.90763 0.82547 0.39225 0.0
O19 O 0.91721 0.83543 0.4071 0.0
O20 O 0.88179 0.78338 0.4352 0.0
C21 C 0.9189 0.75897 0.39621 0.0
O22 O 0.9044 0.76382 0.38359 0.0
C23 C 0.93802 0.79842 0.45011 0.0
O24 O 0.93301 0.77941 0.45263 0.0
O25 O 0.90037 0.80798 0.39544 0.0
C26 C 0.51189 0.6342 0.69114 0.0
O27 O 0.49982 0.64765 0.69855 0.0
O28 O 0.50364 0.68202 0.67525 0.0
Zn29 Zn 0.50608 0.65765 0.65678 0.0
O30 O 0.52674 0.66842 0.63773 0.0
C31 C 0.46499 0.66076 0.64242 0.0
O32 O 0.46286 0.67025 0.6598 0.0
O33 O 0.5161 0.63459 0.67261 0.0
C34 C 0.52018 0.68454 0.6304 0.0
O35 O 0.50149 0.68927 0.63371 0.0
C36 C 0.52075 0.68871 0.68186 0.0
O37 O 0.53646 0.6774 0.6796 0.0
O38 O 0.4812 0.65163 0.63953 0.0
C39 C 0.59848 0.27306 0.93565 0.0
O40 O 0.58454 0.28005 0.92358 0.0
O41 O 0.55499 0.23096 0.9473 0.0
Zn42 Zn 0.57695 0.23511 0.92741 0.0
O43 O 0.5625 0.24855 0.90472 0.0
C44 C 0.58774 0.198 0.90358 0.0
O45 O 0.59919 0.18244 0.90098 0.0
O46 O 0.59824 0.2544 0.9394 0.0
C47 C 0.5681 0.25563 0.88819 0.0
O48 O 0.58689 0.25388 0.88293 0.0
C49 C 0.54741 0.24696 0.9543 0.0
O50 O 0.55636 0.26426 0.95066 0.0
O51 O 0.58995 0.20877 0.91965 0.0
C52 C -0.00016 0.66294 0.32993 0.0
O53 O -0.00194 0.6661 0.34939 0.0
O54 O 0.01262 0.72607 0.31533 0.0
Zn55 Zn 0.01091 0.70331 0.33419 0.0
O56 O 0.98521 0.70878 0.34849 0.0
C57 C 0.04806 0.71877 0.35043 0.0
O58 O 0.05123 0.72221 0.33139 0.0
O59 O 0.00777 0.6768 0.31976 0.0
C60 C 0.98406 0.71083 0.36748 0.0
O61 O -5e-05 0.70733 0.37885 0.0
C62 C 0.99672 0.73136 0.30618 0.0
O63 O 0.98095 0.71897 0.30539 0.0
O64 O 0.0336 0.70684 0.35461 0.0
C65 C 0.59284 0.75969 0.53819 0.0
O66 O 0.5737 0.75598 0.53372 0.0
O67 O 0.54964 0.78484 0.55052 0.0
Zn68 Zn 0.574 0.78144 0.5684 0.0
O69 O 0.56449 0.75925 0.58592 0.0
C70 C 0.58814 0.80192 0.604 0.0
O71 O 0.59825 0.78529 0.60533 0.0
O72 O 0.59745 0.77184 0.5528 0.0
C73 C 0.57053 0.74148 0.58811 0.0
O74 O 0.58614 0.73538 0.57816 0.0
C75 C 0.53569 0.79613 0.55618 0.0
O76 O 0.53917 0.80867 0.57155 0.0
O77 O 0.57893 0.80521 0.58747 0.0
C78 C 0.49176 0.36978 0.81786 0.0
O79 O 0.47636 0.36518 0.80566 0.0
O80 O 0.46904 0.31813 0.81543 0.0
Zn81 Zn 0.47976 0.33403 0.83986 0.0
O82 O 0.49916 0.31522 0.85278 0.0
C83 C 0.44255 0.32981 0.86171 0.0
O84 O 0.43633 0.31906 0.84576 0.0
O85 O 0.49518 0.3591 0.83305 0.0
C86 C 0.51625 0.31077 0.84606 0.0
O87 O 0.52284 0.31977 0.83007 0.0
C88 C 0.48005 0.31625 0.80015 0.0
O89 O 0.49595 0.32825 0.79881 0.0
O90 O 0.45952 0.33904 0.8613 0.0
C91 C 0.91462 0.25236 0.04267 0.0
O92 O 0.93404 0.25451 0.03996 0.0
O93 O 0.95304 0.23281 0.07046 0.0
Zn94 Zn 0.93048 0.24887 0.08146 0.0
O95 O 0.94245 0.27702 0.0858 0.0
C96 C 0.92711 0.22327 0.11615 0.0
O97 O 0.93639 0.21013 0.10487 0.0
O98 O 0.90855 0.24932 0.06035 0.0
C99 C 0.93935 0.28769 0.10151 0.0
O100 O 0.92602 0.28129 0.11426 0.0
C101 C 0.97066 0.23781 0.0769 0.0
O102 O 0.97286 0.2502 0.09257 0.0
O103 O 0.92162 0.23953 0.10838 0.0
C104 C 0.17922 0.00849 0.39542 0.0
O105 O 0.15991 0.00811 0.39911 0.0
O106 O 0.18638 0.02368 0.3313 0.0
Zn107 Zn 0.16793 0.01584 0.35324 0.0
O108 O 0.15372 0.99026 0.34294 0.0
C109 C 0.15127 0.05529 0.3525 0.0
O110 O 0.17014 0.06095 0.3501 0.0
O111 O 0.18492 0.01175 0.37772 0.0
C112 C 0.1349 0.98718 0.34472 0.0
O113 O 0.1249 -0.0002 0.35591 0.0
C114 C 0.19857 0.01084 0.32474 0.0
O115 O 0.19939 0.99329 0.33331 0.0
O116 O 0.14729 0.03699 0.35615 0.0
C117 C 0.26689 0.93656 0.61969 0.0
O118 O 0.25421 0.93979 0.60472 0.0
O119 O 0.26775 0.91154 0.5734 0.0
Zn120 Zn 0.2715 0.89821 0.59988 0.0
O121 O 0.29823 0.88572 0.59577 0.0
C122 C 0.23196 0.88108 0.59674 0.0
O123 O 0.22806 0.89973 0.59231 0.0
O124 O 0.27441 0.91932 0.62142 0.0
C125 C 0.29919 0.86781 0.5889 0.0
O126 O 0.28405 0.8552 0.59186 0.0
C127 C 0.26727 0.89969 0.55809 0.0
O128 O 0.26585 0.88021 0.56077 0.0
O129 O 0.24961 0.87724 0.60295 0.0
C130 C 0.26583 0.99045 0.86194 0.0
O131 O 0.2606 0.99219 0.8429 0.0
O132 O 0.29218 0.97615 0.81744 0.0
Zn133 Zn 0.30269 0.97551 0.84613 0.0
O134 O 0.32359 -0.00206 0.84809 0.0
C135 C 0.31922 0.93652 0.83787 0.0
O136 O 0.30743 0.93697 0.82173 0.0
O137 O 0.28211 0.98193 0.86653 0.0
C138 C 0.3401 -0.00239 0.85814 0.0
O139 O 0.34384 0.98209 0.86932 0.0
C140 C 0.29077 0.99331 0.80957 0.0
O141 O 0.29371 0.0095 0.82115 0.0
O142 O 0.31788 0.95033 0.85132 0.0
C143 C 0.27037 0.04192 0.10074 0.0
O144 O 0.27876 0.05885 0.09494 0.0
O145 O 0.26356 0.00689 0.04299 0.0
Zn146 Zn 0.268 0.03356 0.05829 0.0
O147 O 0.24787 0.05407 0.04984 0.0
C148 C 0.29803 0.06496 0.0532 0.0
O149 O 0.28183 0.0756 0.05124 0.0
O150 O 0.26459 0.02868 0.08754 0.0
C151 C 0.23521 0.06296 0.06069 0.0
O152 O 0.23211 0.05675 0.07897 0.0
C153 C 0.25471 0.00491 0.02582 0.0
O154 O 0.25082 0.98679 0.01808 0.0
O155 O 0.29609 0.04602 0.05539 0.0
C156 C 0.23753 0.0361 0.17998 0.0
O157 O 0.23666 0.05224 0.19174 0.0
O158 O 0.21707 0.01317 0.23184 0.0
Zn159 Zn 0.20621 0.02147 0.20504 0.0
O160 O 0.195 0.04892 0.20918 0.0
C161 C 0.18005 0.98541 0.20282 0.0
O162 O 0.19474 0.9771 0.21291 0.0
O163 O 0.22623 0.02094 0.18335 0.0
C164 C 0.18064 0.05478 0.19803 0.0
O165 O 0.17515 0.04379 0.18199 0.0
C166 C 0.22355 0.02658 0.24455 0.0
O167 O 0.22605 0.04517 0.23866 0.0
O168 O 0.18232 0.00348 0.19741 0.0
C169 C 0.23959 0.96972 0.44277 0.0
O170 O 0.23546 0.95915 0.45864 0.0
O171 O 0.27691 0.94219 0.47088 0.0
Zn172 Zn 0.26876 0.94083 0.44154 0.0
O173 O 0.2473 0.91896 0.44139 0.0
C174 C 0.30926 0.93316 0.43024 0.0
O175 O 0.31387 0.94675 0.44445 0.0
O176 O 0.25516 0.96559 0.43293 0.0
C177 C 0.24999 0.9005 0.43721 0.0
O178 O 0.26719 0.8951 0.42978 0.0
C179 C 0.28355 0.92579 0.47742 0.0
O180 O 0.2883 0.91171 0.46431 0.0
O181 O 0.29103 0.93139 0.42409 0.0
C182 C 0.30562 0.00034 0.66872 0.0
O183 O 0.29495 0.01083 0.68136 0.0
O184 O 0.31777 0.01088 0.71997 0.0
Zn185 Zn 0.33775 0.00589 0.69849 0.0
O186 O 0.35163 0.98114 0.70775 0.0
C187 C 0.35703 0.04353 0.7095 0.0
O188 O 0.33912 0.04737 0.71623 0.0
O189 O 0.32439 -0.00118 0.67214 0.0
C190 C 0.3705 0.9788 0.7072 0.0
O191 O 0.38187 0.99263 0.69898 0.0
C192 C 0.30696 0.99599 0.72529 0.0
O193 O 0.3076 0.97897 0.71482 0.0
O194 O 0.35894 0.02791 0.69841 0.0
C195 C 0.24748 0.05026 0.92209 0.0
O196 O 0.25312 0.04773 0.94092 0.0
O197 O 0.22869 0.07159 0.9626 0.0
Zn198 Zn 0.24234 0.08678 0.94068 0.0
O199 O 0.27106 0.09147 0.95153 0.0
C200 C 0.21264 0.1177 0.94216 0.0
O201 O 0.20065 0.10278 0.94734 0.0
O202 O 0.24212 0.06764 0.91692 0.0
C203 C 0.27596 0.10863 0.95936 0.0
O204 O 0.26349 0.12341 0.95739 0.0
C205 C 0.23512 0.07506 0.98053 0.0
O206 O 0.24479 0.09217 0.98489 0.0
O207 O 0.22997 0.1136 0.93596 0.0
C208 C 0.37982 0.16738 0.02165 0.0
O209 O 0.37144 0.15321 0.00982 0.0
O210 O 0.33896 0.15976 0.06754 0.0
Zn211 Zn 0.36015 0.14482 0.05229 0.0
O212 O 0.34325 0.13116 0.03013 0.0
C213 C 0.37387 0.10738 0.07249 0.0
O214 O 0.38774 0.0979 0.08264 0.0
O215 O 0.37816 0.16615 0.04057 0.0
C216 C 0.34304 0.11657 0.01743 0.0
O217 O 0.35852 0.10477 0.01648 0.0
C218 C 0.33057 0.17265 0.05649 0.0
O219 O 0.338 0.17593 0.03873 0.0
O220 O 0.37691 0.12593 0.06892 0.0
C221 C 0.85606 0.2782 0.98423 0.0
O222 O 0.83678 0.27505 0.98709 0.0
O223 O 0.81464 0.3044 0.95807 0.0
Zn224 Zn 0.84197 0.31475 0.9681 0.0
O225 O 0.83725 0.33015 0.99389 0.0
C226 C 0.84439 0.33817 0.932 0.0
O227 O 0.83057 0.32508 0.9251 0.0
O228 O 0.86168 0.2935 0.97457 0.0
C229 C 0.84894 0.34432 0.00069 0.0
O230 O 0.86547 0.3486 0.9911 0.0
C231 C 0.80088 0.30145 0.97067 0.0
O232 O 0.80575 0.30216 0.98997 0.0
O233 O 0.85259 0.33548 0.94918 0.0
C234 C 0.94515 0.60824 0.2854 0.0
O235 O 0.94965 0.59952 0.2682 0.0
O236 O 0.92294 0.56302 0.26702 0.0
Zn237 Zn 0.90817 0.58513 0.28039 0.0
O238 O 0.89384 0.57144 0.30269 0.0
C239 C 0.88828 0.59133 0.24235 0.0
O240 O 0.90557 0.58543 0.23553 0.0
O241 O 0.92776 0.60545 0.29245 0.0
C242 C 0.87769 0.56177 0.29761 0.0
O243 O 0.87114 0.56204 0.27882 0.0
C244 C 0.93409 0.55228 0.27789 0.0
O245 O 0.93668 0.55716 0.2971 0.0
O246 O 0.88709 0.59535 0.26108 0.0
C247 C 0.64919 0.70075 0.51118 0.0
O248 O 0.66764 0.7007 0.51874 0.0
O249 O 0.68858 0.67067 0.49645 0.0
Zn250 Zn 0.66037 0.66153 0.50202 0.0
O251 O 0.6639 0.65164 0.53024 0.0
C252 C 0.65932 0.64202 0.46376 0.0
O253 O 0.66462 0.6604 0.45885 0.0
O254 O 0.64214 0.68493 0.50205 0.0
C255 C 0.6655 0.63328 0.53466 0.0
O256 O 0.66021 0.6193 0.52105 0.0
C257 C 0.70065 0.65621 0.49642 0.0
O258 O 0.69331 0.63778 0.49799 0.0
O259 O 0.65359 0.63919 0.48161 0.0
C260 C 0.03373 0.92586 0.22885 0.0
O261 O 0.029 0.94375 0.22267 0.0
O262 O 0.05861 0.97296 0.23808 0.0
Zn263 Zn 0.07079 0.94623 0.24281 0.0
O264 O 0.0795 0.94775 0.27212 0.0
C265 C 0.09856 0.95554 0.2116 0.0
O266 O 0.08327 0.9655 0.20453 0.0
O267 O 0.05094 0.92339 0.23707 0.0
C268 C 0.09638 0.94168 0.27855 0.0
O269 O 0.10774 0.93172 0.2661 0.0
C270 C 0.04667 0.9807 0.25051 0.0
O271 O 0.04061 0.96997 0.26565 0.0
O272 O 0.09599 0.94465 0.2268 0.0
C273 C 0.16376 0.80453 0.4732 0.0
O274 O 0.17991 0.79976 0.46335 0.0
O275 O 0.2043 0.7812 0.50569 0.0
Zn276 Zn 0.19327 0.80912 0.50369 0.0
O277 O 0.20898 0.82626 0.48477 0.0
C278 C 0.19603 0.81762 0.54771 0.0
O279 O 0.19948 0.79843 0.5499 0.0
O280 O 0.16537 0.8078 0.49207 0.0
C281 C 0.2017 0.84318 0.48068 0.0
O282 O 0.18487 0.84829 0.48907 0.0
C283 C 0.22154 0.77539 0.50051 0.0
O284 O 0.22538 0.75615 0.50105 0.0
O285 O 0.19296 0.82424 0.53018 0.0
C286 C 0.96723 0.42371 0.23354 0.0
O287 O 0.97486 0.43558 0.24808 0.0
O288 O 0.94072 0.45718 0.26378 0.0
Zn289 Zn 0.92955 0.43075 0.25275 0.0
O290 O 0.90542 0.43895 0.23651 0.0
C291 C 0.91956 0.41896 0.29252 0.0
O292 O 0.93228 0.43379 0.29772 0.0
O293 O 0.9487 0.41848 0.23361 0.0
C294 C 0.8901 0.44491 0.24573 0.0
O295 O 0.88982 0.44387 0.26543 0.0
C296 C 0.94338 0.47034 0.2505 0.0
O297 O 0.94107 0.4648 0.23144 0.0
O298 O 0.91881 0.41284 0.27423 0.0
C299 C 0.56652 0.59183 0.74268 0.0
O300 O 0.56893 0.57229 0.74164 0.0
O301 O 0.59273 0.56274 0.7773 0.0
Zn302 Zn 0.60222 0.58861 0.76535 0.0
O303 O 0.62023 0.57755 0.74412 0.0
C304 C 0.61954 0.60115 0.80388 0.0
O305 O 0.60289 0.5931 0.81074 0.0
O306 O 0.5791 0.60288 0.75298 0.0
C307 C 0.61788 0.57458 0.72524 0.0
O308 O 0.60256 0.58245 0.71574 0.0
C309 C 0.60723 0.55201 0.78295 0.0
O310 O 0.62538 0.56035 0.78424 0.0
O311 O 0.62025 0.60452 0.78517 0.0
C312 C 0.49272 0.82345 0.72939 0.0
O313 O 0.48503 0.80529 0.72551 0.0
O314 O 0.51855 0.78614 0.70087 0.0
Zn315 Zn 0.51039 0.81371 0.69292 0.0
O316 O 0.48455 0.80749 0.67747 0.0
C317 C 0.54958 0.82318 0.67704 0.0
O318 O 0.55591 0.81566 0.69408 0.0
O319 O 0.50517 0.83087 0.71724 0.0
C320 C 0.47895 0.81463 0.66077 0.0
O321 O 0.48967 0.82931 0.65312 0.0
C322 C 0.52477 0.77512 0.68658 0.0
O323 O 0.52698 0.78281 0.66875 0.0
O324 O 0.53081 0.82543 0.67421 0.0
C325 C 0.41111 0.23964 0.98456 0.0
O326 O 0.42495 0.25141 0.9936 0.0
O327 O 0.45257 0.26278 0.96172 0.0
Zn328 Zn 0.42493 0.25891 0.94903 0.0
O329 O 0.43049 0.24315 0.92376 0.0
C330 C 0.42313 0.30058 0.93901 0.0
O331 O 0.43867 0.30258 0.95161 0.0
O332 O 0.40745 0.24155 0.96586 0.0
C333 C 0.44128 0.25241 0.91129 0.0
O334 O 0.44745 0.271 0.91556 0.0
C335 C 0.46175 0.24643 0.96399 0.0
O336 O 0.45172 0.22933 0.96039 0.0
O337 O 0.41267 0.2843 0.93906 0.0
C338 C 0.03044 0.20182 0.21619 0.0
O339 O 0.03864 0.21332 0.20273 0.0
O340 O 0.00065 0.25538 0.22264 0.0
Zn341 Zn -0.00185 0.22795 0.20924 0.0
O342 O 0.01032 0.23226 0.18229 0.0
C343 C 0.95755 0.23176 0.19627 0.0
O344 O 0.96187 0.25083 0.20061 0.0
O345 O 0.01326 0.20604 0.22284 0.0
C346 C 0.00802 0.21995 0.16741 0.0
O347 O 0.99709 0.2034 0.1694 0.0
C348 C 0.01835 0.26315 0.22378 0.0
O349 O 0.03359 0.25121 0.22168 0.0
O350 O 0.96985 0.21877 0.20212 0.0
C351 C 0.09227 0.82483 0.42679 0.0
O352 O 0.09229 0.82148 0.40722 0.0
O353 O 0.02601 0.826 0.43153 0.0
Zn354 Zn 0.0517 0.82752 0.41657 0.0
O355 O 0.04846 0.8503 0.39759 0.0
C356 C 0.05691 0.78487 0.40761 0.0
O357 O 0.05731 0.78315 0.42725 0.0
O358 O 0.07596 0.82971 0.43486 0.0
C359 C 0.05381 0.84875 0.37942 0.0
O360 O 0.06512 0.83371 0.37417 0.0
C361 C 0.02231 0.81744 0.44793 0.0
O362 O 0.03681 0.80853 0.45772 0.0
O363 O 0.05401 0.80194 0.40004 0.0
C364 C 0.47253 0.1786 0.80111 0.0
O365 O 0.46093 0.19364 0.80553 0.0
O366 O 0.50408 0.22991 0.78781 0.0
Zn367 Zn 0.5025 0.20919 0.80919 0.0
O368 O 0.4835 0.22061 0.82905 0.0
C369 C 0.53222 0.21889 0.83959 0.0
O370 O 0.52065 0.23438 0.84209 0.0
O371 O 0.49143 0.18185 0.80033 0.0
C372 C 0.47926 0.21163 0.84507 0.0
O373 O 0.48665 0.19382 0.84816 0.0
C374 C 0.4878 0.2341 0.77857 0.0
O375 O 0.47309 0.22052 0.77753 0.0
O376 O 0.52856 0.20646 0.82498 0.0
C377 C 0.09573 0.22188 0.06726 0.0
O378 O 0.08132 0.20895 0.07172 0.0
O379 O 0.05363 0.23867 0.02783 0.0
Zn380 Zn 0.06243 0.2465 0.05654 0.0
O381 O 0.04636 0.23243 0.0778 0.0
C382 C 0.04751 0.28242 0.07392 0.0
O383 O 0.03181 0.27031 0.0757 0.0
O384 O 0.09108 0.2387 0.06014 0.0
C385 C 0.05285 0.23697 0.09558 0.0
O386 O 0.06916 0.24852 0.09787 0.0
C387 C 0.03595 0.23323 0.02187 0.0
O388 O 0.03255 0.2276 0.00298 0.0
O389 O 0.06209 0.27639 0.06358 0.0
C390 C 0.97982 0.86326 0.25292 0.0
O391 O 0.98682 0.84509 0.25455 0.0
O392 O 0.96981 0.82331 0.28536 0.0
Zn393 Zn 0.96718 0.85305 0.2909 0.0
O394 O 0.9931 0.86058 0.30594 0.0
C395 C 0.93069 0.84411 0.31167 0.0
O396 O 0.92904 0.82958 0.2979 0.0
O397 O 0.96764 0.8694 0.26602 0.0
C398 C 0.99488 0.87259 0.3211 0.0
O399 O 0.97919 0.88272 0.32663 0.0
C400 C 0.97613 0.81468 0.30104 0.0
O401 O 0.97756 0.82497 0.31819 0.0
O402 O 0.94461 0.85745 0.31015 0.0
C403 C 0.40382 0.74811 0.52879 0.0
O404 O 0.42188 0.74438 0.52238 0.0
O405 O 0.44984 0.75087 0.55561 0.0
Zn406 Zn 0.42302 0.74511 0.56784 0.0
O407 O 0.42302 0.76605 0.59051 0.0
C408 C 0.43287 0.70362 0.57614 0.0
O409 O 0.44469 0.70545 0.56073 0.0
O410 O 0.40075 0.74884 0.54759 0.0
C411 C 0.43361 0.76154 0.60586 0.0
O412 O 0.44122 0.74356 0.60648 0.0
C413 C 0.45284 0.76922 0.55123 0.0
O414 O 0.43784 0.78156 0.55272 0.0
O415 O 0.42132 0.71789 0.58043 0.0
C416 C 0.75224 0.52557 0.83592 0.0
O417 O 0.75302 0.52406 0.81622 0.0
O418 O 0.71341 0.52668 0.79845 0.0
Zn419 Zn 0.70904 0.52622 0.82826 0.0
O420 O 0.69458 0.49952 0.83246 0.0
C421 C 0.69322 0.56594 0.82717 0.0
O422 O 0.70921 0.5691 0.81637 0.0
O423 O 0.73529 0.52739 0.84411 0.0
C424 C 0.67549 0.4981 0.83247 0.0
O425 O 0.66516 0.51462 0.83181 0.0
C426 C 0.71723 0.51035 0.78914 0.0
O427 O 0.71974 0.49404 0.79954 0.0
O428 O 0.69088 0.54896 0.83526 0.0
C429 C 0.78852 0.4663 0.09136 0.0
O430 O 0.78431 0.47859 0.07678 0.0
O431 O 0.79455 0.45731 0.03751 0.0
Zn432 Zn 0.79218 0.43678 0.05902 0.0
O433 O 0.81416 0.4173 0.05411 0.0
C434 C 0.7504 0.42841 0.04638 0.0
O435 O 0.75037 0.4476 0.04217 0.0
O436 O 0.79308 0.44832 0.08704 0.0
C437 C 0.81163 0.39857 0.05675 0.0
O438 O 0.79533 0.39219 0.06566 0.0
C439 C 0.81172 0.46156 0.03049 0.0
O440 O 0.82783 0.45507 0.03983 0.0
O441 O 0.76619 0.42116 0.0541 0.0
C442 C 0.78182 0.46937 0.35459 0.0
O443 O 0.77717 0.47384 0.33594 0.0
O444 O 0.80148 0.45667 0.30788 0.0
Zn445 Zn 0.81656 0.45961 0.33461 0.0
O446 O 0.82753 0.48779 0.33344 0.0
C447 C 0.84219 0.426 0.32579 0.0
O448 O 0.82671 0.41945 0.31451 0.0
O449 O 0.7981 0.4603 0.35799 0.0
C450 C 0.84424 0.49515 0.34017 0.0
O451 O 0.85628 0.48383 0.35066 0.0
C452 C 0.81006 0.46517 0.29333 0.0
O453 O 0.82913 0.47076 0.29549 0.0
O454 O 0.84034 0.44171 0.33678 0.0
C455 C 0.76523 0.54219 0.60331 0.0
O456 O 0.7698 0.53968 0.58435 0.0
O457 O 0.76583 0.57543 0.5639 0.0
Zn458 Zn 0.76289 0.5838 0.59265 0.0
O459 O 0.73502 0.59505 0.59239 0.0
C460 C 0.80078 0.60314 0.58864 0.0
O461 O 0.80472 0.58493 0.58196 0.0
O462 O 0.76352 0.5599 0.61067 0.0
C463 C 0.73244 0.61245 0.58552 0.0
O464 O 0.74834 0.6239 0.58206 0.0
C465 C 0.75154 0.56678 0.55369 0.0
O466 O 0.73525 0.56081 0.56287 0.0
O467 O 0.78424 0.60572 0.59741 0.0
C468 C 0.72128 0.48604 0.65074 0.0
O469 O 0.72776 0.48036 0.66847 0.0
O470 O 0.69816 0.48462 0.69628 0.0
Zn471 Zn 0.68312 0.48282 0.66954 0.0
O472 O 0.66507 0.50663 0.67157 0.0
C473 C 0.66956 0.44371 0.68062 0.0
O474 O 0.68792 0.44346 0.68839 0.0
O475 O 0.70243 0.48644 0.647 0.0
C476 C 0.65492 0.50583 0.68747 0.0
O477 O 0.65515 0.48932 0.6979 0.0
C478 C 0.70479 0.50181 0.70269 0.0
O479 O 0.70358 0.51717 0.69074 0.0
O480 O 0.66521 0.4578 0.66884 0.0
C481 C 0.80959 0.49053 0.88897 0.0
O482 O 0.81406 0.49701 0.90742 0.0
O483 O 0.81945 0.46277 0.93412 0.0
Zn484 Zn 0.81002 0.45155 0.90687 0.0
O485 O 0.78123 0.44281 0.91061 0.0
C486 C 0.84005 0.42102 0.91013 0.0
O487 O 0.84901 0.43436 0.92253 0.0
O488 O 0.80958 0.47174 0.88494 0.0
C489 C 0.77209 0.42888 0.90025 0.0
O490 O 0.78156 0.41965 0.88574 0.0
C491 C 0.80705 0.47203 0.94499 0.0
O492 O 0.78942 0.47628 0.93705 0.0
O493 O 0.8244 0.42602 0.90032 0.0
C494 C 0.78441 0.49389 0.17487 0.0
O495 O 0.77998 0.48154 0.18932 0.0
O496 O 0.76547 0.51534 0.2214 0.0
Zn497 Zn 0.79327 0.51669 0.20947 0.0
O498 O 0.8115 0.49492 0.21902 0.0
C499 C 0.81928 0.55177 0.20373 0.0
O500 O 0.81913 0.54484 0.18504 0.0
O501 O 0.79 0.51185 0.17967 0.0
C502 C 0.82765 0.49247 0.20956 0.0
O503 O 0.83103 0.50349 0.19383 0.0
C504 C 0.75892 0.50545 0.23614 0.0
O505 O 0.73966 0.50588 0.23997 0.0
O506 O 0.80812 0.54304 0.2163 0.0
C507 C 0.75301 0.52434 0.41489 0.0
O508 O 0.76145 0.52573 0.43298 0.0
O509 O 0.74238 0.5565 0.45527 0.0
Zn510 Zn 0.74346 0.56403 0.42633 0.0
O511 O 0.77043 0.57878 0.42521 0.0
C512 C 0.70351 0.57692 0.42966 0.0
O513 O 0.70187 0.55879 0.43693 0.0
O514 O 0.74334 0.53922 0.40847 0.0
C515 C 0.7729 0.5975 0.42242 0.0
O516 O 0.75738 0.60773 0.4163 0.0
C517 C 0.74667 0.57135 0.46718 0.0
O518 O 0.74955 0.5893 0.45983 0.0
O519 O 0.72007 0.58223 0.4219 0.0
C520 C 0.83222 0.71716 0.48331 0.0
O521 O 0.81538 0.7107 0.47425 0.0
O522 O 0.79704 0.68269 0.50165 0.0
Zn523 Zn 0.82671 0.67909 0.49936 0.0
O524 O 0.82766 0.66239 0.47356 0.0
C525 C 0.82789 0.6687 0.54059 0.0
O526 O 0.81823 0.68563 0.54178 0.0
O527 O 0.84061 0.70593 0.49605 0.0
C528 C 0.82978 0.64345 0.47308 0.0
O529 O 0.83594 0.63478 0.48958 0.0
C530 C 0.78749 0.66598 0.50292 0.0
O531 O 0.79776 0.6495 0.50451 0.0
O532 O 0.83537 0.6637 0.52382 0.0
C533 C 0.34391 0.78933 0.48347 0.0
O534 O 0.32529 0.78922 0.48957 0.0
O535 O 0.30262 0.81615 0.46778 0.0
Zn536 Zn 0.33071 0.82668 0.47464 0.0
O537 O 0.32948 0.83446 0.50401 0.0
C538 C 0.33418 0.85391 0.44087 0.0
O539 O 0.32563 0.83906 0.43002 0.0
O540 O 0.35025 0.8044 0.47383 0.0
C541 C 0.3345 0.85147 0.51202 0.0
O542 O 0.34208 0.86557 0.50075 0.0
C543 C 0.28856 0.82575 0.47591 0.0
O544 O 0.29274 0.8437 0.48394 0.0
O545 O 0.33835 0.8512 0.45933 0.0
C546 C 0.43965 0.09712 0.8057 0.0
O547 O 0.42045 0.0931 0.80215 0.0
O548 O 0.45552 0.03249 0.80227 0.0
Zn549 Zn 0.43712 0.0556 0.80603 0.0
O550 O 0.41891 0.04843 0.82878 0.0
C551 C 0.42458 0.05798 0.76322 0.0
O552 O 0.44367 0.05682 0.75884 0.0
O553 O 0.45115 0.08264 0.80937 0.0
C554 C 0.40027 0.05217 0.82794 0.0
O555 O 0.39349 0.06348 0.81352 0.0
C556 C 0.46017 0.02195 0.81729 0.0
O557 O 0.45564 0.02845 0.83541 0.0
O558 O 0.41927 0.05685 0.78136 0.0
C559 C 0.17733 0.19462 0.06703 0.0
O560 O 0.1815 0.177 0.07432 0.0
O561 O 0.2377 0.19468 0.04599 0.0
Zn562 Zn 0.20904 0.18512 0.04051 0.0
O563 O 0.20742 0.15655 0.04967 0.0
C564 C 0.21401 0.18448 0.9966 0.0
O565 O 0.23193 0.19269 0.00061 0.0
O566 O 0.18832 0.20181 0.05347 0.0
C567 C 0.21859 0.14499 0.03973 0.0
O568 O 0.22957 0.15274 0.02555 0.0
C569 C 0.24633 0.18897 0.06208 0.0
O570 O 0.23545 0.1797 0.07542 0.0
O571 O 0.20198 0.18222 0.01094 0.0
C572 C 0.56165 0.41619 0.79472 0.0
O573 O 0.56932 0.43159 0.80542 0.0
O574 O 0.59075 0.45401 0.77252 0.0
Zn575 Zn 0.59699 0.42487 0.7754 0.0
O576 O 0.61415 0.42614 0.8009 0.0
C577 C 0.60704 0.42077 0.73381 0.0
O578 O 0.58958 0.42931 0.73151 0.0
O579 O 0.57118 0.40964 0.77969 0.0
C580 C 0.63324 0.42712 0.80062 0.0
O581 O 0.64215 0.42002 0.78463 0.0
C582 C 0.60628 0.4655 0.77183 0.0
O583 O 0.62395 0.45744 0.76993 0.0
O584 O 0.61268 0.41588 0.75139 0.0
C585 C 0.6632 0.32749 0.96493 0.0
O586 O 0.67616 0.32264 0.97912 0.0
O587 O 0.71422 0.33703 0.96509 0.0
Zn588 Zn 0.6932 0.35747 0.96039 0.0
O589 O 0.70296 0.37304 0.93686 0.0
C590 C 0.70006 0.37054 0.0017 0.0
O591 O 0.70306 0.3513 0.00406 0.0
O592 O 0.66678 0.34315 0.95492 0.0
C593 C 0.70321 0.39216 0.9372 0.0
O594 O 0.69388 0.40162 0.95165 0.0
C595 C 0.72134 0.32676 0.9507 0.0
O596 O 0.71394 0.32878 0.93237 0.0
O597 O 0.69376 0.37626 0.98463 0.0
C598 C 0.46021 0.87948 0.78685 0.0
O599 O 0.47132 0.89399 0.79563 0.0
O600 O 0.44436 0.9275 0.80776 0.0
Zn601 Zn 0.42697 0.90634 0.79296 0.0
O602 O 0.41849 0.92007 0.76767 0.0
C603 C 0.39796 0.90691 0.82514 0.0
O604 O 0.41289 0.91533 0.83597 0.0
O605 O 0.44129 0.88134 0.78516 0.0
C606 C 0.40164 0.91701 0.75851 0.0
O607 O 0.38924 0.90294 0.76483 0.0
C608 C 0.45615 0.93778 0.79698 0.0
O609 O 0.45862 0.93172 0.77826 0.0
O610 O 0.40128 0.90067 0.80735 0.0
C611 C 0.06608 0.12655 0.23749 0.0
O612 O 0.07152 0.11355 0.22357 0.0
O613 O 0.06849 0.0729 0.25489 0.0
Zn614 Zn 0.08513 0.09811 0.2602 0.0
O615 O 0.10643 0.0959 0.23951 0.0
C616 C 0.0913 0.09109 0.30321 0.0
O617 O 0.07215 0.08572 0.30282 0.0
O618 O 0.06965 0.12289 0.25585 0.0
C619 C 0.1246 0.10211 0.24164 0.0
O620 O 0.13033 0.11211 0.25823 0.0
C621 C 0.05135 0.06654 0.26033 0.0
O622 O 0.04071 0.07758 0.27253 0.0
O623 O 0.09908 0.09766 0.28732 0.0
C624 C 0.04091 0.31065 0.20286 0.0
C625 C 0.02449 0.32349 0.20233 0.0
C626 C 0.03941 0.2918 0.21168 0.0
C627 C 0.02132 0.28492 0.22008 0.0
H628 H 0.05473 0.31469 0.19548 0.0
H629 H 0.05211 0.28204 0.21055 0.0
S630 S 0.97512 0.31424 0.22589 0.0
N631 N 0.9905 0.32919 0.21365 0.0
N632 N 0.98765 0.2936 0.22994 0.0
C633 C 0.00542 0.29833 0.2213 0.0
C634 C 0.007 0.31765 0.21248 0.0
C635 C 0.98677 0.82806 0.44571 0.0
C636 C 0.00103 0.81493 0.45359 0.0
C637 C 0.96613 0.82361 0.44647 0.0
C638 C 0.95893 0.80572 0.45495 0.0
H639 H 0.99161 0.84133 0.43783 0.0
H640 H 0.9559 0.83357 0.439 0.0
S641 S 0.98992 0.76834 0.48121 0.0
N642 N 0.00646 0.7849 0.47286 0.0
N643 N 0.9676 0.77644 0.47431 0.0
C644 C 0.97294 0.79354 0.46476 0.0
C645 C 0.99402 0.79816 0.46407 0.0
C646 C 0.50908 0.72133 0.69619 0.0
C647 C 0.52379 0.71046 0.68615 0.0
C648 C 0.51033 0.74242 0.69769 0.0
C649 C 0.526 0.75324 0.68864 0.0
H650 H 0.49623 0.71352 0.70239 0.0
H651 H 0.4983 0.75033 0.70487 0.0
S652 S 0.56855 0.73196 0.66118 0.0
N653 N 0.55506 0.71213 0.66789 0.0
N654 N 0.55683 0.75174 0.67003 0.0
C655 C 0.54108 0.74257 0.67912 0.0
C656 C 0.54014 0.72115 0.67805 0.0
C657 C 0.49413 0.22845 0.96271 0.0
C658 C 0.48397 0.24646 0.96621 0.0
C659 C 0.51499 0.2285 0.96046 0.0
C660 C 0.52655 0.24656 0.96166 0.0
H661 H 0.48583 0.21428 0.96048 0.0
H662 H 0.52187 0.2144 0.95653 0.0
S663 S 0.50776 0.29723 0.97474 0.0
N664 N 0.48741 0.2824 0.97378 0.0
N665 N 0.52667 0.28253 0.96973 0.0
C666 C 0.51684 0.2644 0.96709 0.0
C667 C 0.49555 0.26435 0.9693 0.0
C668 C 0.97793 0.7587 0.28953 0.0
C669 C 0.99404 0.75289 0.30207 0.0
C670 C 0.97271 0.77895 0.28839 0.0
C671 C 0.98314 0.7939 0.30015 0.0
H672 H 0.96885 0.74744 0.28107 0.0
H673 H 0.95983 0.78277 0.27908 0.0
S674 S 0.02754 0.7871 0.33396 0.0
N675 N 0.02139 0.76422 0.32522 0.0
N676 N 0.01123 0.80203 0.32334 0.0
C677 C -0.00017 0.78849 0.31196 0.0
C678 C 0.00541 0.76803 0.31284 0.0
C679 C 0.50933 0.77032 0.54572 0.0
C680 C 0.51468 0.79062 0.55017 0.0
C681 C 0.48914 0.76369 0.5449 0.0
C682 C 0.47356 0.77715 0.54818 0.0
H683 H 0.5208 0.75917 0.54427 0.0
H684 H 0.48581 0.74773 0.54261 0.0
S685 S 0.47971 0.83249 0.55677 0.0
N686 N 0.50292 0.8245 0.5555 0.0
N687 N 0.46488 0.81227 0.55338 0.0
C688 C 0.47869 0.7978 0.55084 0.0
C689 C 0.49929 0.80447 0.552 0.0
C690 C 0.49678 0.29009 0.77953 0.0
C691 C 0.47916 0.29695 0.78846 0.0
C692 C 0.49879 0.26973 0.77427 0.0
C693 C 0.48312 0.25563 0.77733 0.0
H694 H 0.50985 0.30004 0.7783 0.0
H695 H 0.51325 0.26476 0.76925 0.0
S696 S 0.43233 0.26678 0.79592 0.0
N697 N 0.44462 0.28872 0.79695 0.0
N698 N 0.44821 0.2505 0.78673 0.0
C699 C 0.46455 0.26274 0.78382 0.0
C700 C 0.46261 0.28343 0.78947 0.0
C701 C 0.99558 0.21786 0.05791 0.0
C702 C 0.98716 0.2364 0.06282 0.0
C703 C 0.01158 0.21683 0.04458 0.0
C704 C 0.01916 0.23428 0.03561 0.0
H705 H 0.98993 0.2042 0.06456 0.0
H706 H 0.01811 0.2024 0.04134 0.0
S707 S 2e-05 0.28578 0.0412 0.0
N708 N 0.98616 0.27214 0.05631 0.0
N709 N 0.01583 0.27009 0.03084 0.0
C710 C 0.01013 0.25265 0.03959 0.0
C711 C 0.99416 0.25375 0.05333 0.0
C712 C 0.21779 0.03835 0.27975 0.0
C713 C 0.22221 0.02254 0.26625 0.0
C714 C 0.21126 0.03447 0.29915 0.0
C715 C 0.20923 0.01466 0.30589 0.0
H716 H 0.21794 0.05378 0.2749 0.0
H717 H 0.20689 0.04705 0.30859 0.0
S718 S 0.22243 0.96822 0.27754 0.0
N719 N 0.22663 0.98655 0.26177 0.0
N720 N 0.21468 0.97921 0.29839 0.0
C721 C 0.21542 -0.00116 0.2932 0.0
C722 C 0.22183 0.0028 0.27333 0.0
C723 C 0.27918 0.89393 0.52337 0.0
C724 C 0.27168 0.90724 0.53794 0.0
C725 C 0.28403 0.90044 0.50426 0.0
C726 C 0.28131 0.9205 0.49876 0.0
H727 H 0.28146 0.87828 0.52672 0.0
H728 H 0.28942 0.8894 0.49356 0.0
S729 S 0.26313 0.96165 0.53184 0.0
N730 N 0.26268 0.94165 0.54604 0.0
N731 N 0.27148 0.95392 0.50985 0.0
C732 C 0.27434 0.93416 0.51338 0.0
C733 C 0.26958 0.92752 0.533 0.0
C734 C 0.29308 0.97798 0.75454 0.0
C735 C 0.29798 0.99629 0.74543 0.0
C736 C 0.28925 0.9773 0.77512 0.0
C737 C 0.29005 0.99492 0.78736 0.0
H738 H 0.29351 0.96386 0.74607 0.0
H739 H 0.28681 0.9627 0.78164 0.0
S740 S 0.29789 0.04712 0.76986 0.0
N741 N 0.30027 0.03275 0.74949 0.0
N742 N 0.2929 0.03156 0.78814 0.0
C743 C 0.29287 0.01353 0.77801 0.0
C744 C 0.29688 0.01419 0.75704 0.0
C745 C 0.26324 0.03842 0.01234 0.0
C746 C 0.24901 0.02271 0.01458 0.0
C747 C 0.25831 0.0556 0.00182 0.0
C748 C 0.23897 0.05764 0.99313 0.0
H749 H 0.27835 0.03733 0.01862 0.0
H750 H 0.26987 0.06723 0.00019 0.0
S751 S 0.19665 0.02026 0.99395 0.0
N752 N 0.21504 0.00985 0.00682 0.0
N753 N 0.20579 0.04223 0.98678 0.0
C754 C 0.22473 0.04185 0.99488 0.0
C755 C 0.22976 0.02433 0.00566 0.0
C756 C 0.27784 0.17468 0.07641 0.0
C757 C 0.2686 0.18839 0.06354 0.0
C758 C 0.29838 0.17071 0.07518 0.0
C759 C 0.31045 0.18037 0.06108 0.0
H760 H 0.26896 0.16598 0.08669 0.0
H761 H 0.30448 0.15907 0.08445 0.0
S762 S 0.29437 0.22038 0.02667 0.0
N763 N 0.27368 0.21362 0.03822 0.0
N764 N 0.31228 0.2064 0.03604 0.0
C765 C 0.30177 0.19541 0.0494 0.0
C766 C 0.28085 0.19935 0.05058 0.0
C767 C 0.74549 0.31097 0.97427 0.0
C768 C 0.73994 0.31559 0.95441 0.0
C769 C 0.76481 0.30453 0.9791 0.0
C770 C 0.77943 0.30268 0.96428 0.0
H771 H 0.73519 0.31336 0.98641 0.0
H772 H 0.76862 0.30232 0.99482 0.0
S773 S 0.77127 0.30929 0.90939 0.0
N774 N 0.74962 0.31505 0.91933 0.0
N775 N 0.78603 0.30301 0.92843 0.0
C776 C 0.77346 0.30533 0.94406 0.0
C777 C 0.75367 0.31179 0.93911 0.0
C778 C 0.94788 0.49757 0.27694 0.0
C779 C 0.94508 0.49193 0.25649 0.0
C780 C 0.94573 0.51752 0.28358 0.0
C781 C 0.94052 0.53254 0.27004 0.0
H782 H 0.95084 0.48635 0.28808 0.0
H783 H 0.947 0.52088 0.29961 0.0
S784 S 0.93456 0.52628 0.21452 0.0
N785 N 0.93922 0.50351 0.22239 0.0
N786 N 0.93506 0.54096 0.23495 0.0
C787 C 0.93921 0.52743 0.24937 0.0
C788 C 0.94154 0.50713 0.24257 0.0
C789 C 0.75599 0.64536 0.4979 0.0
C790 C 0.76533 0.66448 0.50094 0.0
C791 C 0.73515 0.64304 0.49585 0.0
C792 C 0.72268 0.65973 0.4968 0.0
H793 H 0.76481 0.63195 0.49703 0.0
H794 H 0.72881 0.62791 0.49373 0.0
S795 S 0.73959 0.7132 0.50403 0.0
N796 N 0.7606 0.70055 0.50436 0.0
N797 N 0.72116 0.69619 0.50058 0.0
C798 C 0.73177 0.67904 0.49946 0.0
C799 C 0.75314 0.68141 0.50153 0.0
C800 C 0.03622 0.0334 0.26974 0.0
C801 C 0.04552 0.04538 0.25537 0.0
C802 C 0.03521 0.01236 0.26733 0.0
C803 C 0.04339 0.00267 0.25042 0.0
H804 H 0.03105 0.04016 0.28362 0.0
H805 H 0.02916 0.00366 0.27944 0.0
S806 S 0.06543 0.02785 0.20653 0.0
N807 N 0.06022 0.04645 0.22232 0.0
N808 N 0.05811 0.00704 0.21757 0.0
C809 C 0.05086 0.01471 0.23502 0.0
C810 C 0.052 0.03605 0.23757 0.0
C811 C 0.26366 0.79718 0.46978 0.0
C812 C 0.26969 0.81477 0.48084 0.0
C813 C 0.24764 0.78484 0.47596 0.0
C814 C 0.23708 0.78963 0.4934 0.0
H815 H 0.2717 0.79264 0.45652 0.0
H816 H 0.24371 0.77125 0.4672 0.0
S817 S 0.24727 0.83345 0.52818 0.0
N818 N 0.26372 0.83627 0.51022 0.0
N819 N 0.2342 0.8126 0.52206 0.0
C820 C 0.24285 0.80715 0.50454 0.0
C821 C 0.25895 0.81991 0.49814 0.0
C822 C 0.622 0.51859 0.78798 0.0
C823 C 0.60504 0.5298 0.78301 0.0
C824 C 0.62212 0.49783 0.78432 0.0
C825 C 0.60514 0.48733 0.77593 0.0
H826 H 0.63568 0.52597 0.79403 0.0
H827 H 0.63576 0.49001 0.78797 0.0
S828 S 0.55611 0.50909 0.76221 0.0
N829 N 0.57022 0.52856 0.77053 0.0
N830 N 0.57036 0.48927 0.76417 0.0
C831 C 0.58763 0.49805 0.77202 0.0
C832 C 0.58758 0.51935 0.77549 0.0
C833 C 0.71695 0.49009 0.75699 0.0
C834 C 0.71669 0.50907 0.76684 0.0
C835 C 0.71399 0.48801 0.73611 0.0
C836 C 0.71081 0.50483 0.72419 0.0
H837 H 0.71872 0.47656 0.76549 0.0
H838 H 0.71362 0.47298 0.72937 0.0
S839 S 0.71028 0.55814 0.74238 0.0
N840 N 0.71419 0.54522 0.76291 0.0
N841 N 0.70872 0.54133 0.72364 0.0
C842 C 0.71153 0.52405 0.73368 0.0
C843 C 0.71442 0.52615 0.75501 0.0
C844 C 0.79434 0.47888 0.97942 0.0
C845 C 0.81048 0.47393 0.96712 0.0
C846 C 0.79546 0.47636 0.00026 0.0
C847 C 0.81283 0.46893 0.00967 0.0
H848 H 0.7802 0.48354 0.97285 0.0
H849 H 0.78218 0.47918 0.00887 0.0
S850 S 0.86067 0.45741 0.98472 0.0
N851 N 0.8454 0.46401 0.96622 0.0
N852 N 0.84758 0.45936 0.00541 0.0
C853 C 0.82978 0.46582 -0.00218 0.0
C854 C 0.82859 0.46828 0.97654 0.0
C855 C 0.80376 0.49231 0.26899 0.0
C856 C 0.7977 0.47378 0.27704 0.0
C857 C 0.79125 0.50234 0.25552 0.0
C858 C 0.77246 0.49396 0.24918 0.0
H859 H 0.81798 0.49955 0.27367 0.0
H860 H 0.79617 0.51694 0.25033 0.0
S861 S 0.74989 0.44544 0.26505 0.0
N862 N 0.77177 0.44731 0.2774 0.0
N863 N 0.74849 0.46589 0.25156 0.0
C864 C 0.76635 0.47529 0.25679 0.0
C865 C 0.77896 0.46521 0.27076 0.0
C866 C 0.7357 0.55635 0.49916 0.0
C867 C 0.74928 0.56862 0.48888 0.0
C868 C 0.73695 0.55528 0.52018 0.0
C869 C 0.75206 0.56613 0.53148 0.0
H870 H 0.72357 0.5482 0.491 0.0
H871 H 0.72571 0.54624 0.52762 0.0
S872 S 0.79284 0.59836 0.51091 0.0
N873 N 0.77919 0.59048 0.49099 0.0
N874 N 0.78196 0.58821 0.53039 0.0
C875 C 0.76641 0.57758 0.5211 0.0
C876 C 0.76489 0.57892 0.4998 0.0
C877 C 0.45888 0.98629 0.82802 0.0
C878 C 0.46472 0.0005 0.81381 0.0
C879 C 0.45775 0.96568 0.82301 0.0
C880 C 0.46258 0.95851 0.80366 0.0
H881 H 0.45362 0.99114 0.8426 0.0
H882 H 0.45179 0.9555 0.83398 0.0
S883 S 0.48315 0.98929 0.76266 0.0
N884 N 0.47855 0.0058 0.78083 0.0
N885 N 0.47678 0.96707 0.77143 0.0
C886 C 0.47061 0.97239 0.79012 0.0
C887 C 0.47157 0.9934 0.79518 0.0
C888 C 0.98223 0.32633 0.09834 0.0
C889 C 0.98367 0.33485 0.11795 0.0
C890 C 0.96725 0.3118 0.0929 0.0
C891 C 0.95304 0.3052 0.10682 0.0
H892 H 0.99324 0.33026 0.08727 0.0
H893 H 0.96724 0.30524 0.07781 0.0
S894 S 0.94916 0.32416 0.15965 0.0
N895 N 0.9687 0.3367 0.15095 0.0
N896 N 0.94061 0.30941 0.14077 0.0
C897 C 0.95369 0.31435 0.1262 0.0
C898 C 0.96899 0.32913 0.13175 0.0
C899 C 0.94972 0.72481 0.36336 0.0
C900 C 0.96612 0.72023 0.37612 0.0
C901 C 0.93397 0.73646 0.37026 0.0
C902 C 0.93397 0.74406 0.39021 0.0
H903 H 0.94937 0.72004 0.34763 0.0
H904 H 0.92216 0.74022 0.35959 0.0
S905 S 0.97205 0.73432 0.43048 0.0
N906 N 0.98038 0.72265 0.41025 0.0
N907 N 0.95079 0.74447 0.42325 0.0
C908 C 0.94962 0.73853 0.4035 0.0
C909 C 0.96567 0.72664 0.39646 0.0
C910 C 0.55067 0.69285 0.61038 0.0
C911 C 0.53359 0.69915 0.62054 0.0
C912 C 0.56291 0.70669 0.60032 0.0
C913 C 0.55862 0.72732 0.60031 0.0
H914 H 0.5543 0.67707 0.60974 0.0
H915 H 0.57556 0.70107 0.59216 0.0
S916 S 0.5171 0.75177 0.62727 0.0
N917 N 0.51404 0.72759 0.6316 0.0
N918 N 0.53703 0.75352 0.61311 0.0
C919 C 0.54208 0.73388 0.61131 0.0
C920 C 0.52957 0.71981 0.6213 0.0
C921 C 0.56068 0.27853 0.8597 0.0
C922 C 0.55401 0.26811 0.87652 0.0
C923 C 0.54827 0.29203 0.84977 0.0
C924 C 0.52866 0.29565 0.85626 0.0
H925 H 0.57581 0.27666 0.8544 0.0
H926 H 0.55428 0.29995 0.83714 0.0
S927 S 0.50322 0.2708 0.89853 0.0
N928 N 0.52591 0.26143 0.89848 0.0
N929 N 0.50268 0.2866 0.87982 0.0
C930 C 0.52152 0.28473 0.87259 0.0
C931 C 0.53412 0.271 0.88271 0.0
C932 C 0.12579 0.94861 0.30221 0.0
C933 C 0.10498 0.94973 0.29811 0.0
C934 C 0.13514 0.95972 0.31824 0.0
C935 C 0.12408 0.97233 0.33091 0.0
H936 H 0.1352 0.94006 0.29229 0.0
H937 H 0.15136 0.95918 0.32002 0.0
S938 S 0.06859 0.97766 0.32885 0.0
N939 N 0.07316 0.96228 0.30972 0.0
N940 N 0.09069 0.98309 0.33986 0.0
C941 C 0.103 0.97216 0.32808 0.0
C942 C 0.09347 0.96089 0.31169 0.0
C943 C 0.32173 0.84012 0.545 0.0
C944 C 0.32917 0.85583 0.53321 0.0
C945 C 0.31353 0.844 0.56384 0.0
C946 C 0.31249 0.86375 0.57174 0.0
H947 H 0.32139 0.82469 0.53929 0.0
H948 H 0.30702 0.8315 0.57181 0.0
S949 S 0.33177 0.91015 0.54776 0.0
N950 N 0.33643 0.8918 0.5315 0.0
N951 N 0.32124 0.89915 0.56697 0.0
C952 C 0.32121 0.8795 0.56075 0.0
C953 C 0.32946 0.87553 0.54147 0.0
C954 C 0.35049 0.03098 0.84503 0.0
C955 C 0.35588 0.01319 0.85453 0.0
C956 C 0.3651 0.04433 0.83788 0.0
C957 C 0.38573 0.04039 0.83982 0.0
H958 H 0.3348 0.03423 0.84226 0.0
H959 H 0.36008 0.05729 0.82982 0.0
S960 S 0.40789 0.99717 0.8659 0.0
N961 N 0.38334 0.99336 0.86741 0.0
N962 N 0.41088 0.01843 0.85392 0.0
C963 C 0.3914 0.02346 0.85071 0.0
C964 C 0.37646 0.00985 0.85806 0.0
C965 C 0.23688 0.09185 0.03768 0.0
C966 C 0.22806 0.08281 0.05433 0.0
C967 C 0.23313 0.11166 0.03282 0.0
C968 C 0.2204 0.12349 0.04443 0.0
H969 H 0.24764 0.08399 0.02879 0.0
H970 H 0.24088 0.11789 0.02017 0.0
S971 S 0.19181 0.1066 0.08847 0.0
N972 N 0.2047 0.0868 0.08163 0.0
N973 N 0.19763 0.12434 0.07252 0.0
C974 C 0.21063 0.11448 0.0606 0.0
C975 C 0.21448 0.09411 0.06555 0.0
C976 C 0.15997 0.09346 0.23408 0.0
C977 C 0.13969 0.09419 0.22769 0.0
C978 C 0.17361 0.08189 0.22342 0.0
C979 C 0.16753 0.0707 0.2059 0.0
H980 H 0.1651 0.10072 0.24815 0.0
H981 H 0.18875 0.08079 0.22967 0.0
S982 S 0.11703 0.07092 0.18066 0.0
N983 N 0.11492 0.08529 0.20108 0.0
N984 N 0.14053 0.06358 0.18103 0.0
C985 C 0.1478 0.07296 0.19825 0.0
C986 C 0.13388 0.08469 0.20917 0.0
C987 C 0.24261 0.86561 0.44864 0.0
C988 C 0.23598 0.88518 0.44528 0.0
C989 C 0.23111 0.85192 0.45952 0.0
C990 C 0.21254 0.85725 0.46751 0.0
H991 H 0.25722 0.86106 0.44364 0.0
H992 H 0.23712 0.83725 0.46215 0.0
S993 S 0.18721 0.90579 0.46058 0.0
N994 N 0.20874 0.90853 0.44903 0.0
N995 N 0.18716 0.88288 0.46955 0.0
C996 C 0.20519 0.87638 0.46324 0.0
C997 C 0.2169 0.89031 0.45212 0.0
C998 C 0.36702 0.94593 0.72435 0.0
C999 C 0.37952 0.9618 0.71788 0.0
C1000 C 0.37454 0.93093 0.73662 0.0
C1001 C 0.39487 0.93124 0.74307 0.0
H1002 H 0.3511 0.94535 0.72038 0.0
H1003 H 0.36409 0.91947 0.74171 0.0
S1004 S 0.43438 0.96855 0.72897 0.0
N1005 N 0.41362 0.97614 0.71775 0.0
N1006 N 0.42776 0.948 0.74082 0.0
C1007 C 0.40779 0.94647 0.73591 0.0
C1008 C 0.40013 0.96172 0.72332 0.0
C1009 C 0.30991 0.0986 0.97242 0.0
C1010 C 0.29303 0.11076 0.97407 0.0
C1011 C 0.32597 0.10029 0.98662 0.0
C1012 C 0.32555 0.11401 0.00311 0.0
H1013 H 0.31084 0.08789 0.95993 0.0
H1014 H 0.33885 0.09093 0.98451 0.0
S1015 S 0.28342 0.14745 0.01561 0.0
N1016 N 0.27613 0.13584 0.99432 0.0
N1017 N 0.30582 0.13876 0.02108 0.0
C1018 C 0.30832 0.1257 0.00529 0.0
C1019 C 0.29219 0.12416 0.99074 0.0
C1020 C 0.82621 0.35086 0.02929 0.0
C1021 C 0.84233 0.35737 0.01756 0.0
C1022 C 0.81734 0.3639 0.04311 0.0
C1023 C 0.82411 0.38408 0.04563 0.0
H1024 H 0.81981 0.33575 0.02723 0.0
H1025 H 0.80435 0.35836 0.051 0.0
S1026 S 0.86767 0.40791 0.02057 0.0
N1027 N 0.86612 0.38476 0.01095 0.0
N1028 N 0.84942 0.40932 0.03687 0.0
C1029 C 0.84118 0.39039 0.03508 0.0
C1030 C 0.85029 0.37704 0.02106 0.0
C1031 C 0.87992 0.53734 0.32538 0.0
C1032 C 0.86811 0.54775 0.31148 0.0
C1033 C 0.87177 0.52104 0.33571 0.0
C1034 C 0.85149 0.51476 0.3326 0.0
H1035 H 0.89587 0.54094 0.32731 0.0
H1036 H 0.88171 0.51268 0.34534 0.0
S1037 S 0.81348 0.53984 0.30061 0.0
N1038 N 0.83472 0.55253 0.29708 0.0
N1039 N 0.81914 0.52231 0.31676 0.0
C1040 C 0.83915 0.5263 0.32006 0.0
C1041 C 0.84754 0.54268 0.3094 0.0
C1042 C 0.70945 0.63802 0.57185 0.0
C1043 C 0.71254 0.61797 0.57702 0.0
C1044 C 0.69302 0.64313 0.55961 0.0
C1045 C 0.67917 0.62831 0.55173 0.0
H1046 H 0.7204 0.64977 0.57638 0.0
H1047 H 0.69209 0.65863 0.55513 0.0
S1048 S 0.67852 0.5741 0.56351 0.0
N1049 N 0.69873 0.58361 0.57567 0.0
N1050 N 0.66815 0.59318 0.55217 0.0
C1051 C 0.68111 0.60848 0.55816 0.0
C1052 C 0.6977 0.60332 0.57095 0.0
C1053 C 0.85471 0.45623 0.24332 0.0
C1054 C 0.87384 0.45522 0.23492 0.0
C1055 C 0.83961 0.46762 0.23451 0.0
C1056 C 0.84317 0.47879 0.2172 0.0
H1057 H 0.85143 0.44836 0.25698 0.0
H1058 H 0.82518 0.46798 0.24162 0.0
S1059 S 0.89078 0.48079 0.18912 0.0
N1060 N 0.89545 0.46581 0.20797 0.0
N1061 N 0.86725 0.48749 0.19157 0.0
C1062 C 0.86212 0.47744 0.20832 0.0
C1063 C 0.87742 0.46562 0.21716 0.0
C1064 C 0.63593 0.53781 0.68513 0.0
C1065 C 0.64685 0.52423 0.69664 0.0
C1066 C 0.62722 0.55463 0.69433 0.0
C1067 C 0.62962 0.55866 0.71522 0.0
H1068 H 0.63348 0.53502 0.66911 0.0
H1069 H 0.61814 0.56423 0.68508 0.0
S1070 S 0.65943 0.52874 0.75129 0.0
N1071 N 0.66102 0.51656 0.72949 0.0
N1072 N 0.64564 0.54839 0.74664 0.0
C1073 C 0.64168 0.54572 0.72655 0.0
C1074 C 0.65002 0.52843 0.71729 0.0
C1075 C 0.44712 0.77046 0.64014 0.0
C1076 C 0.44064 0.77688 0.62115 0.0
C1077 C 0.45819 0.78335 0.65348 0.0
C1078 C 0.46353 0.80315 0.64825 0.0
H1079 H 0.4445 0.75499 0.64436 0.0
H1080 H 0.46365 0.77722 0.66748 0.0
S1081 S 0.44748 0.82827 0.60155 0.0
N1082 N 0.43814 0.80506 0.5987 0.0
N1083 N 0.45927 0.82934 0.62376 0.0
C1084 C 0.4558 0.81027 0.62994 0.0
C1085 C 0.44424 0.79714 0.6164 0.0
C1086 C 0.45256 0.22123 0.89392 0.0
C1087 C 0.4488 0.24189 0.89337 0.0
C1088 C 0.46199 0.21145 0.87798 0.0
C1089 C 0.46776 0.22193 0.86084 0.0
H1090 H 0.44893 0.21272 0.90708 0.0
H1091 H 0.46514 0.19564 0.87934 0.0
S1092 S 0.45939 0.27594 0.8514 0.0
N1093 N 0.45027 0.2723 0.87391 0.0
N1094 N 0.46778 0.25397 0.84381 0.0
C1095 C 0.46325 0.24246 0.85978 0.0
C1096 C 0.45383 0.25243 0.87609 0.0
C1097 C 0.04448 0.24331 0.13135 0.0
C1098 C 0.04114 0.23183 0.11343 0.0
C1099 C 0.03351 0.23946 0.14852 0.0
C1100 C 0.01882 0.22381 0.14862 0.0
H1101 H 0.05552 0.25563 0.13213 0.0
H1102 H 0.03675 0.24882 0.16188 0.0
S1103 S 0.00438 0.18915 0.10561 0.0
N1104 N 0.02217 0.20407 0.09678 0.0
N1105 N 0.00142 0.19674 0.12917 0.0
C1106 C 0.01527 0.21217 0.1308 0.0
C1107 C 0.02643 0.21621 0.11319 0.0
C1108 C 0.04274 0.85237 0.34359 0.0
C1109 C 0.04246 0.85951 0.36369 0.0
C1110 C 0.02822 0.85807 0.3294 0.0
C1111 C 0.01283 0.87118 0.33472 0.0
H1112 H 0.0533 0.84113 0.33902 0.0
H1113 H 0.02833 0.85105 0.31451 0.0
S1114 S 0.00844 0.89792 0.3841 0.0
N1115 N 0.02781 0.88323 0.38725 0.0
N1116 N 0.00046 0.89395 0.36056 0.0
C1117 C 0.01378 0.88021 0.35413 0.0
C1118 C 0.02861 0.87438 0.36862 0.0
C1119 C 0.67551 0.46213 0.82033 0.0
C1120 C 0.6651 0.47822 0.82894 0.0
C1121 C 0.66522 0.44472 0.81274 0.0
C1122 C 0.64415 0.44262 0.81366 0.0
H1123 H 0.69158 0.46349 0.81816 0.0
H1124 H 0.67375 0.43338 0.805 0.0
S1125 S 0.61033 0.47902 0.83806 0.0
N1126 N 0.63292 0.48989 0.84033 0.0
N1127 N 0.61357 0.45714 0.82647 0.0
C1128 C 0.63381 0.4578 0.82404 0.0
C1129 C 0.64429 0.47562 0.83152 0.0
C1130 C 0.72915 0.39236 0.91061 0.0
C1131 C 0.71784 0.40314 0.92468 0.0
C1132 C 0.74598 0.40121 0.90173 0.0
C1133 C 0.75222 0.42116 0.90666 0.0
H1134 H 0.72565 0.3766 0.90717 0.0
H1135 H 0.7548 0.39195 0.89185 0.0
S1136 S 0.72586 0.45704 0.93978 0.0
N1137 N 0.7126 0.43576 0.94097 0.0
N1138 N 0.74429 0.45229 0.92436 0.0
C1139 C 0.74015 0.43261 0.91941 0.0
C1140 C 0.72292 0.42364 0.92836 0.0
C1141 C 0.80653 0.64065 0.4428 0.0
C1142 C 0.81937 0.63122 0.45663 0.0
C1143 C 0.7926 0.62946 0.43053 0.0
C1144 C 0.79099 0.60837 0.43146 0.0
H1145 H 0.8062 0.65691 0.44234 0.0
H1146 H 0.78221 0.63757 0.42115 0.0
S1147 S 0.82401 0.57613 0.46209 0.0
N1148 N 0.83167 0.59935 0.46827 0.0
N1149 N 0.80567 0.57828 0.44514 0.0
C1150 C 0.80516 0.59862 0.4437 0.0
C1151 C 0.81928 0.61005 0.4563 0.0
C1152 C 0.06952 0.33073 0.09866 0.0
C1153 C 0.0598 0.33126 0.11713 0.0
C1154 C 0.06509 0.31515 0.08435 0.0
C1155 C 0.05045 0.3 0.08795 0.0
H1156 H 0.08078 0.34219 0.0954 0.0
H1157 H 0.0733 0.31486 0.07049 0.0
S1158 S 0.02042 0.29547 0.13414 0.0
N1159 N 0.03502 0.31569 0.13839 0.0
N1160 N 0.02593 0.28706 0.11142 0.0
C1161 C 0.04024 0.30088 0.10626 0.0
C1162 C 0.04514 0.31634 0.1209 0.0
C1163 C 0.92691 0.85427 0.34791 0.0
C1164 C 0.92057 0.84194 0.33124 0.0
C1165 C 0.92139 0.84966 0.3675 0.0
C1166 C 0.90928 0.83252 0.37127 0.0
H1167 H 0.93727 0.86692 0.34604 0.0
H1168 H 0.92769 0.85898 0.37984 0.0
S1169 S 0.88524 0.79772 0.3325 0.0
N1170 N 0.89893 0.81363 0.31955 0.0
N1171 N 0.88856 0.80497 0.35633 0.0
C1172 C 0.90124 0.82119 0.35458 0.0
C1173 C 0.90688 0.82589 0.33459 0.0
C1174 C 0.43725 0.68046 0.62731 0.0
C1175 C 0.45261 0.6666 0.62466 0.0
C1176 C 0.42948 0.69106 0.61106 0.0
C1177 C 0.43686 0.68831 0.59152 0.0
H1178 H 0.4322 0.68432 0.64225 0.0
H1179 H 0.41875 0.7026 0.61423 0.0
S1180 S 0.47309 0.64997 0.57564 0.0
N1181 N 0.47191 0.64775 0.60026 0.0
N1182 N 0.45746 0.6679 0.56981 0.0
C1183 C 0.4504 0.67278 0.58826 0.0
C1184 C 0.45822 0.66184 0.6048 0.0
C1185 C 0.57959 0.20382 0.86743 0.0
C1186 C 0.57336 0.20323 0.88748 0.0
C1187 C 0.5662 0.2089 0.85183 0.0
C1188 C 0.54626 0.21364 0.85591 0.0
H1189 H 0.59498 0.20058 0.86383 0.0
H1190 H 0.57151 0.20939 0.83658 0.0
S1191 S 0.52183 0.21126 0.90533 0.0
N1192 N 0.54543 0.20548 0.91016 0.0
N1193 N 0.52038 0.21561 0.88098 0.0
C1194 C 0.53968 0.21242 0.87576 0.0
C1195 C 0.55321 0.20698 0.89154 0.0
C1196 C 0.05031 0.74832 0.39986 0.0
C1197 C 0.05848 0.76697 0.39422 0.0
C1198 C 0.04868 0.73201 0.38605 0.0
C1199 C 0.05528 0.73376 0.36616 0.0
H1200 H 0.044 0.74665 0.41461 0.0
H1201 H 0.04107 0.71835 0.39069 0.0
S1202 S 0.08219 0.77822 0.34576 0.0
N1203 N 0.07626 0.78542 0.36876 0.0
N1204 N 0.07357 0.75476 0.34285 0.0
C1205 C 0.06542 0.75176 0.36111 0.0
C1206 C 0.06684 0.76841 0.37511 0.0
C1207 C 0.58932 0.80583 0.64152 0.0
C1208 C 0.58214 0.81254 0.6228 0.0
C1209 C 0.57984 0.81098 0.65945 0.0
C1210 C 0.56275 0.82299 0.65935 0.0
H1211 H 0.60142 0.7953 0.64226 0.0
H1212 H 0.58501 0.80415 0.67318 0.0
S1213 S 0.54107 0.8485 0.61515 0.0
N1214 N 0.55931 0.83504 0.6059 0.0
N1215 N 0.54134 0.84443 0.63955 0.0
C1216 C 0.55687 0.83166 0.64112 0.0
C1217 C 0.56663 0.82655 0.62286 0.0
C1218 C 0.43796 0.32773 0.9182 0.0
C1219 C 0.4231 0.3125 0.92034 0.0
C1220 C 0.44287 0.33473 0.89919 0.0
C1221 C 0.43315 0.32675 0.88151 0.0
H1222 H 0.44701 0.33321 0.9311 0.0
H1223 H 0.45544 0.34537 0.89833 0.0
S1224 S 0.38962 0.29046 0.8793 0.0
N1225 N 0.39597 0.29261 0.90345 0.0
N1226 N 0.40534 0.30565 0.86776 0.0
C1227 C 0.41659 0.31339 0.88365 0.0
C1228 C 0.41151 0.30632 0.90306 0.0
C1229 C 0.92529 0.23988 0.15017 0.0
C1230 C 0.92865 0.2224 0.13843 0.0
C1231 C 0.93271 0.24197 0.17003 0.0
C1232 C 0.94359 0.22657 0.17898 0.0
H1233 H 0.91845 0.25281 0.14353 0.0
H1234 H 0.93139 0.25641 0.17775 0.0
S1235 S 0.95046 0.17537 0.1569 0.0
N1236 N 0.93934 0.18774 0.13871 0.0
N1237 N 0.9528 0.19139 0.17628 0.0
C1238 C 0.94421 0.20788 0.16849 0.0
C1239 C 0.93689 0.20587 0.14812 0.0
C1240 C 0.12487 0.09314 0.32086 0.0
C1241 C 0.10487 0.08557 0.32009 0.0
C1242 C 0.13956 0.08455 0.33312 0.0
C1243 C 0.13483 0.06793 0.34496 0.0
H1244 H 0.12955 0.10496 0.31094 0.0
H1245 H 0.15498 0.09002 0.33202 0.0
S1246 S 0.08383 0.04529 0.35172 0.0
N1247 N 0.08044 0.06269 0.33479 0.0
N1248 N 0.10806 0.04653 0.35784 0.0
C1249 C 0.11447 0.0617 0.34605 0.0
C1250 C 0.09947 0.07053 0.33361 0.0
C1251 C 0.22493 0.84426 0.59049 0.0
C1252 C 0.21865 0.86424 0.58878 0.0
C1253 C 0.21612 0.8286 0.57845 0.0
C1254 C 0.20078 0.8324 0.56424 0.0
H1255 H 0.23774 0.84088 0.6001 0.0
H1256 H 0.22255 0.81384 0.57911 0.0
S1257 S 0.17562 0.88086 0.55723 0.0
N1258 N 0.19356 0.88607 0.57438 0.0
N1259 N 0.17725 0.85664 0.5516 0.0
C1260 C 0.19286 0.85176 0.56398 0.0
C1261 C 0.2017 0.86768 0.57634 0.0
C1262 C 0.35364 0.9291 0.85129 0.0
C1263 C 0.33751 0.92421 0.83769 0.0
C1264 C 0.37293 0.92193 0.84813 0.0
C1265 C 0.37685 0.90952 0.8313 0.0
H1266 H 0.35179 0.93974 0.86368 0.0
H1267 H 0.38509 0.92737 0.85819 0.0
S1268 S 0.33872 0.88807 0.79424 0.0
N1269 N 0.32594 0.90312 0.80898 0.0
N1270 N 0.36215 0.88947 0.80312 0.0
C1271 C 0.36037 0.90257 0.81899 0.0
C1272 C 0.34071 0.90996 0.82217 0.0
C1273 C 0.33668 0.1064 0.06663 0.0
C1274 C 0.35501 0.09655 0.06595 0.0
C1275 C 0.31846 0.0962 0.06162 0.0
C1276 C 0.31782 0.07555 0.05625 0.0
H1277 H 0.3363 0.12198 0.0716 0.0
H1278 H 0.30473 0.1045 0.06271 0.0
S1279 S 0.36187 0.04296 0.05148 0.0
N1280 N 0.37164 0.06518 0.05874 0.0
N1281 N 0.33729 0.04577 0.04983 0.0
C1282 C 0.3361 0.06553 0.05529 0.0
C1283 C 0.35471 0.07604 0.06014 0.0
C1284 C 0.15554 0.95842 0.21267 0.0
C1285 C 0.15978 0.97544 0.20122 0.0
C1286 C 0.13575 0.95113 0.21473 0.0
C1287 C 0.11938 0.96053 0.20539 0.0
H1288 H 0.16743 0.95131 0.22108 0.0
H1289 H 0.13322 0.93868 0.22464 0.0
S1290 S 0.12278 0.00339 0.17077 0.0
N1291 N 0.14626 -0.00018 0.17815 0.0
N1292 N 0.1091 0.98614 0.18201 0.0
C1293 C 0.12359 0.97645 0.19244 0.0
C1294 C 0.14377 0.98392 0.19038 0.0
C1295 C 0.31488 0.89928 0.41473 0.0
C1296 C 0.32172 0.91509 0.42796 0.0
C1297 C 0.32075 0.87947 0.4176 0.0
C1298 C 0.33377 0.87483 0.43371 0.0
H1299 H 0.30337 0.90182 0.40332 0.0
H1300 H 0.31353 0.8676 0.40828 0.0
S1301 S 0.36107 0.91158 0.46829 0.0
N1302 N 0.34603 0.9254 0.45458 0.0
N1303 N 0.35715 0.88819 0.45985 0.0
C1304 C 0.34313 0.89088 0.44498 0.0
C1305 C 0.33714 0.91106 0.44207 0.0
C1306 C 0.41087 0.04799 0.72898 0.0
C1307 C 0.40884 0.05871 0.74725 0.0
C1308 C 0.39434 0.04482 0.71562 0.0
C1309 C 0.37528 0.05233 0.7201 0.0
H1310 H 0.42483 0.04074 0.72566 0.0
H1311 H 0.39623 0.03521 0.70244 0.0
S1312 S 0.36387 0.08572 0.76377 0.0
N1313 N 0.38762 0.07993 0.76748 0.0
N1314 N 0.3566 0.07422 0.74237 0.0
C1315 C 0.37382 0.06508 0.73722 0.0
C1316 C 0.39059 0.06814 0.75085 0.0
C1317 C 0.19393 0.15795 0.97705 0.0
C1318 C 0.21031 0.17192 0.97797 0.0
C1319 C 0.1935 0.14144 0.96351 0.0
C1320 C 0.20935 0.13835 0.95029 0.0
H1321 H 0.18222 0.15863 0.98804 0.0
H1322 H 0.18157 0.13014 0.96478 0.0
S1323 S 0.25188 0.17434 0.9419 0.0
N1324 N 0.24008 0.18426 0.96116 0.0
N1325 N 0.23897 0.15352 0.93527 0.0
C1326 C 0.22403 0.15394 0.94883 0.0
C1327 C 0.22461 0.17066 0.96282 0.0
C1328 C 0.85826 0.39335 0.92685 0.0
C1329 C 0.84469 0.39936 0.9117 0.0
C1330 C 0.85927 0.37317 0.93221 0.0
C1331 C 0.84679 0.35814 0.92264 0.0
H1332 H 0.86725 0.40444 0.9356 0.0
H1333 H 0.86905 0.3696 0.94484 0.0
S1334 S 0.81186 0.36532 0.87904 0.0
N1335 N 0.8209 0.38815 0.88496 0.0
N1336 N 0.8228 0.35024 0.89504 0.0
C1337 C 0.8347 0.36362 0.90606 0.0
C1338 C 0.83365 0.38422 0.90059 0.0
C1339 C 0.83431 0.57468 0.23091 0.0
C1340 C 0.83522 0.56642 0.21125 0.0
C1341 C 0.85103 0.58474 0.2402 0.0
C1342 C 0.86947 0.58661 0.23035 0.0
H1343 H 0.82095 0.57239 0.23965 0.0
H1344 H 0.84984 0.5897 0.25577 0.0
S1345 S 0.87847 0.57137 0.17728 0.0
N1346 N 0.85506 0.56376 0.18106 0.0
N1347 N 0.88655 0.58235 0.19868 0.0
C1348 C 0.86993 0.58028 0.20999 0.0
C1349 C 0.8528 0.57023 0.20042 0.0
C1350 C 0.69151 0.61223 0.42841 0.0
C1351 C 0.68856 0.59236 0.43474 0.0
C1352 C 0.68057 0.62804 0.43656 0.0
C1353 C 0.66633 0.62468 0.45153 0.0
H1354 H 0.70319 0.61585 0.41792 0.0
H1355 H 0.68438 0.64319 0.43206 0.0
S1356 S 0.65004 0.57497 0.47043 0.0
N1357 N 0.66805 0.56981 0.45464 0.0
N1358 N 0.64771 0.5996 0.47009 0.0
C1359 C 0.66186 0.60467 0.45658 0.0
C1360 C 0.67291 0.5885 0.44816 0.0
C1361 C 0.88471 0.40466 0.2963 0.0
C1362 C 0.90166 0.41514 0.30497 0.0
C1363 C 0.86559 0.4066 0.30436 0.0
C1364 C 0.86269 0.419 0.32147 0.0
H1365 H 0.8858 0.39632 0.28217 0.0
H1366 H 0.85283 0.39965 0.29611 0.0
S1367 S 0.90301 0.44453 0.3533 0.0
N1368 N 0.91495 0.43458 0.33416 0.0
N1369 N 0.87903 0.43813 0.34938 0.0
C1370 C 0.87989 0.42719 0.33187 0.0
C1371 C 0.89939 0.42524 0.32362 0.0
C1372 C 0.65774 0.57416 0.83502 0.0
C1373 C 0.67586 0.5795 0.82575 0.0
C1374 C 0.63964 0.58314 0.82965 0.0
C1375 C 0.63893 0.59771 0.81467 0.0
H1376 H 0.65717 0.56189 0.84541 0.0
H1377 H 0.62591 0.57723 0.83597 0.0
S1378 S 0.68291 0.62081 0.78985 0.0
N1379 N 0.69256 0.60324 0.80395 0.0
N1380 N 0.65849 0.61997 0.79376 0.0
C1381 C 0.6573 0.605 0.80724 0.0
C1382 C 0.67577 0.59591 0.81278 0.0
C1383 C 0.72147 0.42039 0.02249 0.0
C1384 C 0.73409 0.41451 0.03846 0.0
C1385 C 0.70912 0.40626 0.01167 0.0
C1386 C 0.70888 0.38573 0.01643 0.0
H1387 H 0.72211 0.43572 0.01739 0.0
H1388 H 0.70071 0.41134 -0.00133 0.0
S1389 S 0.73574 0.36357 0.05986 0.0
N1390 N 0.7431 0.3875 0.06066 0.0
N1391 N 0.71984 0.36095 0.04041 0.0
C1392 C 0.71983 0.38009 0.0337 0.0
C1393 C 0.73248 0.39447 0.04467 0.0
C1394 C 0.82503 0.61763 0.56441 0.0
C1395 C 0.81177 0.62073 0.58032 0.0
C1396 C 0.83157 0.63358 0.5526 0.0
C1397 C 0.8252 0.65332 0.55625 0.0
H1398 H 0.82933 0.60258 0.56004 0.0
H1399 H 0.84061 0.63009 0.53972 0.0
S1400 S 0.79417 0.67015 0.59889 0.0
N1401 N 0.79519 0.64554 0.60112 0.0
N1402 N 0.80758 0.67555 0.57909 0.0
C1403 C 0.81369 0.65695 0.57343 0.0
C1404 C 0.80696 0.64066 0.58541 0.0
C1405 C 0.61768 0.43287 0.70029 0.0
C1406 C 0.62185 0.4216 0.71746 0.0
C1407 C 0.63292 0.43832 0.68714 0.0
C1408 C 0.65296 0.43272 0.69064 0.0
H1409 H 0.60287 0.4388 0.69769 0.0
H1410 H 0.62916 0.44826 0.67504 0.0
S1411 S 0.67067 0.39883 0.7305 0.0
N1412 N 0.64665 0.40181 0.73506 0.0
N1413 N 0.67527 0.41201 0.71035 0.0
C1414 C 0.65681 0.41946 0.70637 0.0
C1415 C 0.64127 0.41393 0.7198 0.0
C1416 C 0.9799 0.40776 0.18041 0.0
C1417 C 0.00104 0.40746 0.18102 0.0
C1418 C 0.96922 0.41303 0.19749 0.0
C1419 C 0.97922 0.41852 0.21581 0.0
H1420 H 0.97138 0.40297 0.16693 0.0
H1421 H 0.95293 0.41261 0.1963 0.0
S1422 S 0.03451 0.42219 0.22486 0.0
N1423 N 0.0317 0.41449 0.2011 0.0
N1424 N 0.01152 0.42474 0.23321 0.0
C1425 C 0.00037 0.41933 0.2164 0.0
C1426 C 0.0113 0.41374 0.19901 0.0
C1427 C 0.87076 0.76019 0.48148 0.0
C1428 C 0.86578 0.76929 0.46321 0.0
C1429 C 0.85934 0.74383 0.48829 0.0
C1430 C 0.84236 0.73612 0.47723 0.0
H1431 H 0.88424 0.76494 0.49003 0.0
H1432 H 0.86429 0.73677 0.50199 0.0
S1433 S 0.82131 0.75669 0.42993 0.0
N1434 N 0.84163 0.77087 0.43527 0.0
N1435 N 0.81992 0.74035 0.44814 0.0
C1436 C 0.83639 0.74607 0.45968 0.0
C1437 C 0.84816 0.76259 0.45265 0.0
C1438 C 0.54258 0.61927 0.73665 0.0
C1439 C 0.55084 0.60108 0.73021 0.0
C1440 C 0.52901 0.6293 0.72429 0.0
C1441 C 0.52364 0.62172 0.70486 0.0
H1442 H 0.54688 0.62598 0.75123 0.0
H1443 H 0.52345 0.64358 0.72965 0.0
S1444 S 0.54038 0.57415 0.68126 0.0
N1445 N 0.55192 0.57531 0.70358 0.0
N1446 N 0.52683 0.59454 0.6801 0.0
C1447 C 0.53135 0.60326 0.69845 0.0
C1448 C 0.54483 0.59282 0.71121 0.0
C1449 C 0.6321 0.31957 0.94409 0.0
C1450 C 0.64592 0.31385 0.95911 0.0
C1451 C 0.61664 0.30639 0.93692 0.0
C1452 C 0.61441 0.28688 0.94439 0.0
H1453 H 0.63339 0.33427 0.9375 0.0
H1454 H 0.60663 0.31146 0.92509 0.0
S1455 S 0.64573 0.2649 0.98483 0.0
N1456 N 0.65571 0.28762 0.98202 0.0
N1457 N 0.62664 0.26281 0.96845 0.0
C1458 C 0.62774 0.28111 0.95983 0.0
C1459 C 0.64347 0.29461 0.96723 0.0
C1460 C 0.9754 0.63135 0.28729 0.0
C1461 C 0.96045 0.62035 0.29713 0.0
C1462 C 0.989 0.64423 0.29818 0.0
C1463 C 0.98825 0.64634 0.31931 0.0
H1464 H 0.97609 0.63066 0.27102 0.0
H1465 H -0.00036 0.65317 0.28986 0.0
S1466 S 0.95399 0.61792 0.3523 0.0
N1467 N 0.94711 0.61041 0.32921 0.0
N1468 N 0.97279 0.63432 0.34976 0.0
C1469 C 0.97428 0.6342 0.32939 0.0
C1470 C 0.9603 0.62132 0.31827 0.0
C1471 C 0.61556 0.71646 0.50948 0.0
C1472 C 0.63595 0.71778 0.51565 0.0
C1473 C 0.60199 0.7308 0.51593 0.0
C1474 C 0.60822 0.74701 0.52889 0.0
H1475 H 0.60978 0.70383 0.50022 0.0
H1476 H 0.58631 0.72856 0.51139 0.0
S1477 S 0.6606 0.75913 0.54688 0.0
N1478 N 0.66222 0.73798 0.53353 0.0
N1479 N 0.63662 0.76486 0.54577 0.0
C1480 C 0.62882 0.74932 0.53405 0.0
C1481 C 0.6427 0.73472 0.52741 0.0
C1482 C 0.51314 0.38478 0.79164 0.0
C1483 C 0.50761 0.38414 0.81188 0.0
C1484 C 0.53054 0.39545 0.78613 0.0
C1485 C 0.5427 0.40617 0.80063 0.0
H1486 H 0.50458 0.37614 0.78013 0.0
H1487 H 0.53464 0.39506 0.77046 0.0
S1488 S 0.53366 0.41046 0.85544 0.0
N1489 N 0.51493 0.39582 0.84629 0.0
N1490 N 0.54732 0.41636 0.83594 0.0
C1491 C 0.53673 0.40643 0.82078 0.0
C1492 C 0.51925 0.39527 0.82641 0.0
C1493 C 0.87928 0.25314 0.02908 0.0
C1494 C 0.90002 0.25566 0.02594 0.0
C1495 C 0.86504 0.25898 0.01467 0.0
C1496 C 0.87102 0.26774 0.99666 0.0
H1497 H 0.87392 0.2474 0.04314 0.0
H1498 H 0.84928 0.25775 0.01831 0.0
S1499 S 0.92336 0.27442 0.97955 0.0
N1500 N 0.92578 0.26501 0.00219 0.0
N1501 N 0.89892 0.27621 0.97526 0.0
C1502 C 0.89164 0.26889 0.99262 0.0
C1503 C 0.90617 0.26279 0.00722 0.0
C1504 C 0.22966 0.99491 0.41762 0.0
C1505 C 0.22445 0.98306 0.43398 0.0
C1506 C 0.21494 0.00429 0.40614 0.0
C1507 C 0.19439 0.00215 0.41049 0.0
H1508 H 0.24513 0.99615 0.41297 0.0
H1509 H 0.21971 0.01245 0.39312 0.0
S1510 S 0.17312 0.97547 0.45377 0.0
N1511 N 0.19754 0.97182 0.4556 0.0
N1512 N 0.16983 0.98943 0.43385 0.0
C1513 C 0.18911 0.99185 0.42786 0.0
C1514 C 0.20417 0.9823 0.43966 0.0
C1515 C 0.29629 0.95252 0.63792 0.0
C1516 C 0.27602 0.95357 0.63165 0.0
C1517 C 0.3059 0.96829 0.64889 0.0
C1518 C 0.29557 0.98566 0.65445 0.0
H1519 H 0.30493 0.93942 0.63424 0.0
H1520 H 0.32143 0.9664 0.65363 0.0
S1521 S 0.24252 0.99624 0.6409 0.0
N1522 N 0.24609 0.97369 0.63078 0.0
N1523 N 0.2641 0.00336 0.65217 0.0
C1524 C 0.27538 0.98714 0.64794 0.0
C1525 C 0.26563 0.9711 0.63633 0.0
C1526 C 0.24529 0.0369 0.88654 0.0
C1527 C 0.24882 0.03351 0.90712 0.0
C1528 C 0.24913 0.02206 0.87191 0.0
C1529 C 0.25678 0.00341 0.87736 0.0
H1530 H 0.24042 0.05141 0.88159 0.0
H1531 H 0.24741 0.02581 0.8562 0.0
S1532 S 0.26497 0.98559 0.92921 0.0
N1533 N 0.25756 0.00892 0.93226 0.0
N1534 N 0.2651 0.98128 0.90464 0.0
C1535 C 0.2588 -0.00077 0.89788 0.0
C1536 C 0.25476 0.01424 0.9128 0.0
C1537 C 0.2561 0.0552 0.15408 0.0
C1538 C 0.24891 0.03666 0.16117 0.0
C1539 C 0.264 0.05661 0.13484 0.0
C1540 C 0.26495 0.03954 0.12197 0.0
H1541 H 0.25479 0.06891 0.16305 0.0
H1542 H 0.26848 0.07136 0.1297 0.0
S1543 S 0.25135 0.98695 0.13462 0.0
N1544 N 0.24566 0.00045 0.15476 0.0
N1545 N 0.2604 0.00317 0.11856 0.0
C1546 C 0.25912 0.02071 0.12938 0.0
C1547 C 0.25114 0.01925 0.14899 0.0
C1548 C 0.38567 0.18884 0.99209 0.0
C1549 C 0.38836 0.18588 0.01285 0.0
C1550 C 0.39251 0.20653 0.9833 0.0
C1551 C 0.40252 0.222 0.99484 0.0
H1552 H 0.37806 0.17747 0.98245 0.0
H1553 H 0.39018 0.20786 0.96721 0.0
S1554 S 0.4132 0.22194 0.04995 0.0
N1555 N 0.40152 0.20008 0.04486 0.0
N1556 N 0.41455 0.23334 0.02825 0.0
C1557 C 0.40526 0.21934 0.01566 0.0
C1558 C 0.39816 0.20129 0.02467 0.0
C1559 C 0.01101 0.87409 0.23588 0.0
C1560 C 0.99118 0.87823 0.24126 0.0
C1561 C 0.02437 0.8895 0.23044 0.0
C1562 C 0.01829 0.90952 0.22972 0.0
H1563 H 0.01686 0.85916 0.23745 0.0
H1564 H 0.03989 0.88585 0.22785 0.0
S1565 S 0.96683 0.92757 0.23818 0.0
N1566 N 0.96526 0.90325 0.24254 0.0
N1567 N 0.99032 0.93222 0.23184 0.0
C1568 C -0.00207 0.91352 0.23283 0.0
C1569 C 0.98437 0.89784 0.23872 0.0
C1570 C 0.12769 0.81387 0.42971 0.0
C1571 C 0.11029 0.82035 0.43923 0.0
C1572 C 0.14464 0.80832 0.44086 0.0
C1573 C 0.14496 0.80906 0.46203 0.0
H1574 H 0.12828 0.81294 0.41344 0.0
H1575 H 0.15768 0.80361 0.43272 0.0
S1576 S 0.10316 0.82474 0.4944 0.0
N1577 N 0.0943 0.82703 0.47117 0.0
N1578 N 0.12624 0.81663 0.49219 0.0
C1579 C 0.12764 0.81545 0.47182 0.0
C1580 C 0.11031 0.82112 0.46042 0.0
C1581 C 0.49639 0.85348 0.7527 0.0
C1582 C 0.4855 0.83588 0.74637 0.0
C1583 C 0.48872 0.86687 0.76697 0.0
C1584 C 0.46972 0.8633 0.77519 0.0
H1585 H 0.5107 0.85728 0.74613 0.0
H1586 H 0.49724 0.88066 0.77069 0.0
S1587 S 0.4362 0.81836 0.76548 0.0
N1588 N 0.45556 0.81469 0.75092 0.0
N1589 N 0.44104 0.84008 0.7775 0.0
C1590 C 0.45919 0.84524 0.76988 0.0
C1591 C 0.46711 0.83146 0.75554 0.0
C1592 C 0.0449 0.156 0.24537 0.0
C1593 C 0.05708 0.14565 0.23181 0.0
C1594 C 0.0363 0.17423 0.24026 0.0
C1595 C 0.03999 0.18292 0.22162 0.0
H1596 H 0.04178 0.14985 0.25993 0.0
H1597 H 0.02682 0.18163 0.25102 0.0
S1598 S 0.07103 0.16191 0.18091 0.0
N1599 N 0.07244 0.14543 0.19898 0.0
N1600 N 0.05656 0.17978 0.1895 0.0
C1601 C 0.0523 0.17281 0.20801 0.0
C1602 C 0.06076 0.15412 0.21306 0.0
C1603 C 0.46863 0.12197 0.8057 0.0
C1604 C 0.44776 0.11795 0.80401 0.0
C1605 C 0.47663 0.14154 0.8039 0.0
C1606 C 0.46405 0.15782 0.80047 0.0
H1607 H 0.47891 0.10996 0.80853 0.0
H1608 H 0.49276 0.14396 0.80578 0.0
S1609 S 0.40845 0.15526 0.79368 0.0
N1610 N 0.41471 0.13188 0.79785 0.0
N1611 N 0.4298 0.16854 0.79447 0.0
C1612 C 0.44321 0.15396 0.79828 0.0
C1613 C 0.43505 0.13406 0.80007 0.0
C1614 C 0.14176 0.19115 0.07754 0.0
C1615 C 0.15753 0.2034 0.07053 0.0
C1616 C 0.12191 0.19756 0.07705 0.0
C1617 C 0.11708 0.2165 0.06966 0.0
H1618 H 0.14452 0.17605 0.08244 0.0
H1619 H 0.1102 0.18724 0.08187 0.0
S1620 S 0.15348 0.25559 0.05274 0.0
N1621 N 0.16744 0.23627 0.05828 0.0
N1622 N 0.13014 0.24844 0.05746 0.0
C1623 C 0.13294 0.22949 0.064 0.0
C1624 C 0.15316 0.22291 0.06443 0.0
C1625 C 0.37883 0.77666 0.48721 0.0
C1626 C 0.35835 0.77506 0.492 0.0
C1627 C 0.39346 0.76662 0.49832 0.0
C1628 C 0.38811 0.75487 0.51472 0.0
H1629 H 0.38376 0.78658 0.47553 0.0
H1630 H 0.40914 0.76919 0.49488 0.0
S1631 S 0.33647 0.74266 0.53109 0.0
N1632 N 0.33333 0.75821 0.51239 0.0
N1633 N 0.36099 0.73987 0.53349 0.0
C1634 C 0.36765 0.7518 0.51862 0.0
C1635 C 0.35271 0.76173 0.50715 0.0
C1636 C 0.79771 0.49808 0.8542 0.0
C1637 C 0.79889 0.50354 0.8748 0.0
C1638 C 0.78362 0.50665 0.84122 0.0
C1639 C 0.76996 0.52068 0.8485 0.0
H1640 H 0.80694 0.48624 0.8483 0.0
H1641 H 0.78246 0.50109 0.82575 0.0
S1642 S 0.76884 0.54237 0.90038 0.0
N1643 N 0.7869 0.52587 0.90126 0.0
N1644 N 0.7601 0.54157 0.87688 0.0
C1645 C 0.77205 0.52748 0.86864 0.0
C1646 C 0.78665 0.51904 0.88179 0.0
C1647 C 0.78698 0.50029 0.13806 0.0
C1648 C 0.78464 0.48656 0.15365 0.0
C1649 C 0.78807 0.49364 0.11793 0.0
C1650 C 0.78715 0.47301 0.11267 0.0
H1651 H 0.78804 0.51633 0.1414 0.0
H1652 H 0.78994 0.50477 0.10646 0.0
S1653 S 0.78059 0.43084 0.14769 0.0
N1654 N 0.78102 0.4513 0.16232 0.0
N1655 N 0.78324 0.43886 0.12461 0.0
C1656 C 0.78467 0.45911 0.12808 0.0
C1657 C 0.78335 0.46587 0.14852 0.0
C1658 C 0.75633 0.49334 0.36661 0.0
C1659 C 0.77137 0.47959 0.37126 0.0
C1660 C 0.74954 0.50693 0.38116 0.0
C1661 C 0.75742 0.50727 0.40101 0.0
H1662 H 0.75055 0.49453 0.35131 0.0
H1663 H 0.73878 0.51792 0.37649 0.0
S1664 S 0.79394 0.47155 0.42199 0.0
N1665 N 0.79167 0.46507 0.39787 0.0
N1666 N 0.77881 0.49053 0.42533 0.0
C1667 C 0.771 0.49229 0.40637 0.0
C1668 C 0.77798 0.47846 0.39148 0.0
C1669 C 0.76059 0.52414 0.63527 0.0
C1670 C 0.75698 0.5251 0.61443 0.0
C1671 C 0.75004 0.51017 0.64672 0.0
C1672 C 0.73509 0.49716 0.63777 0.0
H1673 H 0.7711 0.53473 0.64288 0.0
H1674 H 0.75267 0.51052 0.66289 0.0
S1675 S 0.72079 0.493 0.58354 0.0
N1676 N 0.73845 0.511 0.58503 0.0
N1677 N 0.71806 0.48528 0.60676 0.0
C1678 C 0.73195 0.49741 0.61683 0.0
C1679 C 0.74306 0.51125 0.60508 0.0
loop_
_geom_bond_atom_site_label_1
_geom_bond_atom_site_label_2
_geom_bond_distance
_geom_bond_site_symmetry_2
_ccdc_geom_bond_type
C0 O1 1.160 . S
C0 O7 1.185 . S
O1 C0 1.160 . S
O2 Zn3 1.899 . S
O2 C10 1.284 . S
Zn3 O2 1.899 . S
Zn3 O4 2.040 . S
Zn3 O7 2.086 . S
Zn3 O12 1.977 . S
O4 Zn3 2.040 . S
O4 C8 1.275 1_455 S
C5 O6 1.203 . S
C5 O12 1.267 . S
O6 C5 1.203 . S
O7 C0 1.185 . S
O7 Zn3 2.086 . S
C8 O4 1.275 1_655 S
C8 O9 1.211 1_655 S
O9 C8 1.211 1_455 S
C10 O2 1.284 . S
C10 O11 1.273 . S
O11 C10 1.273 . S
O12 Zn3 1.977 . S
O12 C5 1.267 . S
C13 O14 1.160 . S
C13 O20 1.185 . S
O14 C13 1.160 . S
O15 Zn16 1.899 . S
O15 C23 1.284 . S
Zn16 O15 1.899 . S
Zn16 O17 2.032 . S
Zn16 O20 2.086 . S
Zn16 O25 1.977 . S
O17 Zn16 2.032 . S
O17 C21 1.278 . S
C18 O19 1.203 . S
C18 O25 1.267 . S
O19 C18 1.203 . S
O20 C13 1.185 . S
O20 Zn16 2.086 . S
C21 O17 1.278 . S
C21 O22 1.211 . S
O22 C21 1.211 . S
C23 O15 1.284 . S
C23 O24 1.273 . S
O24 C23 1.273 . S
O25 Zn16 1.977 . S
O25 C18 1.267 . S
C26 O27 1.160 . S
C26 O33 1.185 . S
O27 C26 1.160 . S
O28 Zn29 1.899 . S
O28 C36 1.284 . S
Zn29 O28 1.899 . S
Zn29 O30 2.032 . S
Zn29 O33 2.086 . S
Zn29 O38 1.977 . S
O30 Zn29 2.032 . S
O30 C34 1.278 . S
C31 O32 1.203 . S
C31 O38 1.267 . S
O32 C31 1.203 . S
O33 C26 1.185 . S
O33 Zn29 2.086 . S
C34 O30 1.278 . S
C34 O35 1.211 . S
O35 C34 1.211 . S
C36 O28 1.284 . S
C36 O37 1.273 . S
O37 C36 1.273 . S
O38 Zn29 1.977 . S
O38 C31 1.267 . S
C39 O40 1.160 . S
C39 O46 1.185 . S
O40 C39 1.160 . S
O41 Zn42 1.899 . S
O41 C49 1.284 . S
Zn42 O41 1.899 . S
Zn42 O43 2.032 . S
Zn42 O46 2.086 . S
Zn42 O51 1.977 . S
O43 Zn42 2.032 . S
O43 C47 1.278 . S
C44 O45 1.203 . S
C44 O51 1.267 . S
O45 C44 1.203 . S
O46 C39 1.185 . S
O46 Zn42 2.086 . S
C47 O43 1.278 . S
C47 O48 1.211 . S
O48 C47 1.211 . S
C49 O41 1.284 . S
C49 O50 1.273 . S
O50 C49 1.273 . S
O51 Zn42 1.977 . S
O51 C44 1.267 . S
C52 O53 1.160 . S
C52 O59 1.185 1_655 S
O53 C52 1.160 . S
O54 Zn55 1.899 . S
O54 C62 1.284 . S
Zn55 O54 1.899 . S
Zn55 O56 2.032 1_455 S
Zn55 O59 2.086 . S
Zn55 O64 1.977 . S
O56 Zn55 2.032 1_655 S
O56 C60 1.278 . S
C57 O58 1.203 . S
C57 O64 1.267 . S
O58 C57 1.203 . S
O59 C52 1.185 1_455 S
O59 Zn55 2.086 . S
C60 O56 1.278 . S
C60 O61 1.211 . S
O61 C60 1.211 . S
C62 O54 1.284 . S
C62 O63 1.273 . S
O63 C62 1.273 . S
O64 Zn55 1.977 . S
O64 C57 1.267 . S
C65 O66 1.160 . S
C65 O72 1.185 . S
O66 C65 1.160 . S
O67 Zn68 1.899 . S
O67 C75 1.284 . S
Zn68 O67 1.899 . S
Zn68 O69 2.032 . S
Zn68 O72 2.086 . S
Zn68 O77 1.977 . S
O69 Zn68 2.032 . S
O69 C73 1.278 . S
C70 O71 1.203 . S
C70 O77 1.267 . S
O71 C70 1.203 . S
O72 C65 1.185 . S
O72 Zn68 2.086 . S
C73 O69 1.278 . S
C73 O74 1.211 . S
O74 C73 1.211 . S
C75 O67 1.284 . S
C75 O76 1.273 . S
O76 C75 1.273 . S
O77 Zn68 1.977 . S
O77 C70 1.267 . S
C78 O79 1.160 . S
C78 O85 1.185 . S
O79 C78 1.160 . S
O80 Zn81 1.899 . S
O80 C88 1.284 . S
Zn81 O80 1.899 . S
Zn81 O82 2.032 . S
Zn81 O85 2.086 . S
Zn81 O90 1.977 . S
O82 Zn81 2.032 . S
O82 C86 1.278 . S
C83 O84 1.203 . S
C83 O90 1.267 . S
O84 C83 1.203 . S
O85 C78 1.185 . S
O85 Zn81 2.086 . S
C86 O82 1.278 . S
C86 O87 1.211 . S
O87 C86 1.211 . S
C88 O80 1.284 . S
C88 O89 1.273 . S
O89 C88 1.273 . S
O90 Zn81 1.977 . S
O90 C83 1.267 . S
C91 O92 1.160 . S
C91 O98 1.185 . S
O92 C91 1.160 . S
O93 Zn94 1.899 . S
O93 C101 1.284 . S
Zn94 O93 1.899 . S
Zn94 O95 2.032 . S
Zn94 O98 2.086 . S
Zn94 O103 1.977 . S
O95 Zn94 2.032 . S
O95 C99 1.278 . S
C96 O97 1.203 . S
C96 O103 1.267 . S
O97 C96 1.203 . S
O98 C91 1.185 . S
O98 Zn94 2.086 . S
C99 O95 1.278 . S
C99 O100 1.211 . S
O100 C99 1.211 . S
C101 O93 1.284 . S
C101 O102 1.273 . S
O102 C101 1.273 . S
O103 Zn94 1.977 . S
O103 C96 1.267 . S
C104 O105 1.160 . S
C104 O111 1.185 . S
O105 C104 1.160 . S
O106 Zn107 1.899 . S
O106 C114 1.284 . S
Zn107 O106 1.899 . S
Zn107 O108 2.041 . S
Zn107 O111 2.086 . S
Zn107 O116 1.977 . S
O108 Zn107 2.041 . S
O108 C112 1.275 1_545 S
C109 O110 1.203 . S
C109 O116 1.267 . S
O110 C109 1.203 . S
O111 C104 1.185 . S
O111 Zn107 2.086 . S
C112 O108 1.275 1_565 S
C112 O113 1.211 1_565 S
O113 C112 1.211 1_545 S
C114 O106 1.284 . S
C114 O115 1.273 . S
O115 C114 1.273 . S
O116 Zn107 1.977 . S
O116 C109 1.267 . S
C117 O118 1.160 . S
C117 O124 1.185 . S
O118 C117 1.160 . S
O119 Zn120 1.899 . S
O119 C127 1.284 . S
Zn120 O119 1.899 . S
Zn120 O121 2.032 . S
Zn120 O124 2.086 . S
Zn120 O129 1.977 . S
O121 Zn120 2.032 . S
O121 C125 1.278 . S
C122 O123 1.203 . S
C122 O129 1.267 . S
O123 C122 1.203 . S
O124 C117 1.185 . S
O124 Zn120 2.086 . S
C125 O121 1.278 . S
C125 O126 1.211 . S
O126 C125 1.211 . S
C127 O119 1.284 . S
C127 O128 1.273 . S
O128 C127 1.273 . S
O129 Zn120 1.977 . S
O129 C122 1.267 . S
C130 O131 1.160 . S
C130 O137 1.185 . S
O131 C130 1.160 . S
O132 Zn133 1.899 . S
O132 C140 1.284 1_565 S
Zn133 O132 1.899 . S
Zn133 O134 2.032 1_565 S
Zn133 O137 2.086 1_565 S
Zn133 O142 1.977 . S
O134 Zn133 2.032 1_545 S
O134 C138 1.278 . S
C135 O136 1.203 . S
C135 O142 1.267 . S
O136 C135 1.203 . S
O137 C130 1.185 . S
O137 Zn133 2.086 1_545 S
C138 O134 1.278 . S
C138 O139 1.211 . S
O139 C138 1.211 . S
C140 O132 1.284 1_545 S
C140 O141 1.273 . S
O141 C140 1.273 . S
O142 Zn133 1.977 . S
O142 C135 1.267 . S
C143 O144 1.160 . S
C143 O150 1.185 . S
O144 C143 1.160 . S
O145 Zn146 1.899 . S
O145 C153 1.284 . S
Zn146 O145 1.899 . S
Zn146 O147 2.032 . S
Zn146 O150 2.086 . S
Zn146 O155 1.977 . S
O147 Zn146 2.032 . S
O147 C151 1.278 . S
C148 O149 1.203 . S
C148 O155 1.267 . S
O149 C148 1.203 . S
O150 C143 1.185 . S
O150 Zn146 2.086 . S
C151 O147 1.278 . S
C151 O152 1.211 . S
O152 C151 1.211 . S
C153 O145 1.284 . S
C153 O154 1.273 . S
O154 C153 1.273 . S
O155 Zn146 1.977 . S
O155 C148 1.267 . S
C156 O157 1.160 . S
C156 O163 1.185 . S
O157 C156 1.160 . S
O158 Zn159 1.899 . S
O158 C166 1.284 . S
Zn159 O158 1.899 . S
Zn159 O160 2.032 . S
Zn159 O163 2.086 . S
Zn159 O168 1.977 . S
O160 Zn159 2.032 . S
O160 C164 1.278 . S
C161 O162 1.215 . S
C161 O168 1.296 . S
O162 C161 1.215 . S
O163 C156 1.185 . S
O163 Zn159 2.086 . S
C164 O160 1.278 . S
C164 O165 1.211 . S
O165 C164 1.211 . S
C166 O158 1.284 . S
C166 O167 1.273 . S
O167 C166 1.273 . S
O168 Zn159 1.977 . S
O168 C161 1.296 . S
C169 O170 1.160 . S
C169 O176 1.185 . S
O170 C169 1.160 . S
O171 Zn172 1.899 . S
O171 C179 1.284 . S
Zn172 O171 1.899 . S
Zn172 O173 2.032 . S
Zn172 O176 2.086 . S
Zn172 O181 1.977 . S
O173 Zn172 2.032 . S
O173 C177 1.278 . S
C174 O175 1.203 . S
C174 O181 1.267 . S
O175 C174 1.203 . S
O176 C169 1.185 . S
O176 Zn172 2.086 . S
C177 O173 1.278 . S
C177 O178 1.211 . S
O178 C177 1.211 . S
C179 O171 1.284 . S
C179 O180 1.273 . S
O180 C179 1.273 . S
O181 Zn172 1.977 . S
O181 C174 1.267 . S
C182 O183 1.160 . S
C182 O189 1.185 1_565 S
O183 C182 1.160 . S
O184 Zn185 1.899 . S
O184 C192 1.284 . S
Zn185 O184 1.899 . S
Zn185 O186 2.032 1_545 S
Zn185 O189 2.086 . S
Zn185 O194 1.977 . S
O186 Zn185 2.032 1_565 S
O186 C190 1.278 . S
C187 O188 1.203 . S
C187 O194 1.267 . S
O188 C187 1.203 . S
O189 C182 1.185 1_545 S
O189 Zn185 2.086 . S
C190 O186 1.278 . S
C190 O191 1.211 . S
O191 C190 1.211 . S
C192 O184 1.284 . S
C192 O193 1.273 . S
O193 C192 1.273 . S
O194 Zn185 1.977 . S
O194 C187 1.267 . S
C195 O196 1.160 . S
C195 O202 1.185 . S
O196 C195 1.160 . S
O197 Zn198 1.899 . S
O197 C205 1.284 . S
Zn198 O197 1.899 . S
Zn198 O199 2.032 . S
Zn198 O202 2.086 . S
Zn198 O207 1.977 . S
O199 Zn198 2.032 . S
O199 C203 1.278 . S
C200 O201 1.203 . S
C200 O207 1.267 . S
O201 C200 1.203 . S
O202 C195 1.185 . S
O202 Zn198 2.086 . S
C203 O199 1.278 . S
C203 O204 1.211 . S
O204 C203 1.211 . S
C205 O197 1.284 . S
C205 O206 1.273 . S
O206 C205 1.273 . S
O207 Zn198 1.977 . S
O207 C200 1.267 . S
C208 O209 1.160 . S
C208 O215 1.185 . S
O209 C208 1.160 . S
O210 Zn211 1.899 . S
O210 C218 1.284 . S
Zn211 O210 1.899 . S
Zn211 O212 2.040 . S
Zn211 O215 2.086 . S
Zn211 O220 1.977 . S
O212 Zn211 2.040 . S
O212 C216 1.276 1_554 S
C213 O214 1.203 . S
C213 O220 1.267 . S
O214 C213 1.203 . S
O215 C208 1.185 . S
O215 Zn211 2.086 . S
C216 O212 1.276 1_556 S
C216 O217 1.211 1_556 S
O217 C216 1.211 1_554 S
C218 O210 1.284 . S
C218 O219 1.273 . S
O219 C218 1.273 . S
O220 Zn211 1.977 . S
O220 C213 1.267 . S
C221 O222 1.160 . S
C221 O228 1.185 . S
O222 C221 1.160 . S
O223 Zn224 1.899 . S
O223 C231 1.284 1_556 S
Zn224 O223 1.899 . S
Zn224 O225 2.032 1_556 S
Zn224 O228 2.086 1_556 S
Zn224 O233 1.977 . S
O225 Zn224 2.032 1_554 S
O225 C229 1.278 . S
C226 O227 1.203 . S
C226 O233 1.267 . S
O227 C226 1.203 . S
O228 C221 1.185 . S
O228 Zn224 2.086 1_554 S
C229 O225 1.278 . S
C229 O230 1.211 . S
O230 C229 1.211 . S
C231 O223 1.284 1_554 S
C231 O232 1.273 . S
O232 C231 1.273 . S
O233 Zn224 1.977 . S
O233 C226 1.267 . S
C234 O235 1.160 . S
C234 O241 1.185 . S
O235 C234 1.160 . S
O236 Zn237 1.899 . S
O236 C244 1.284 . S
Zn237 O236 1.899 . S
Zn237 O238 2.032 . S
Zn237 O241 2.086 . S
Zn237 O246 1.977 . S
O238 Zn237 2.032 . S
O238 C242 1.278 . S
C239 O240 1.203 . S
C239 O246 1.267 . S
O240 C239 1.203 . S
O241 C234 1.185 . S
O241 Zn237 2.086 . S
C242 O238 1.278 . S
C242 O243 1.211 . S
O243 C242 1.211 . S
C244 O236 1.284 . S
C244 O245 1.273 . S
O245 C244 1.273 . S
O246 Zn237 1.977 . S
O246 C239 1.267 . S
C247 O248 1.160 . S
C247 O254 1.185 . S
O248 C247 1.160 . S
O249 Zn250 1.899 . S
O249 C257 1.284 . S
Zn250 O249 1.899 . S
Zn250 O251 2.032 . S
Zn250 O254 2.086 . S
Zn250 O259 1.977 . S
O251 Zn250 2.032 . S
O251 C255 1.278 . S
C252 O253 1.203 . S
C252 O259 1.267 . S
O253 C252 1.203 . S
O254 C247 1.185 . S
O254 Zn250 2.086 . S
C255 O251 1.278 . S
C255 O256 1.211 . S
O256 C255 1.211 . S
C257 O249 1.284 . S
C257 O258 1.273 . S
O258 C257 1.273 . S
O259 Zn250 1.977 . S
O259 C252 1.267 . S
C260 O261 1.160 . S
C260 O267 1.185 . S
O261 C260 1.160 . S
O262 Zn263 1.899 . S
O262 C270 1.284 . S
Zn263 O262 1.899 . S
Zn263 O264 2.032 . S
Zn263 O267 2.086 . S
Zn263 O272 1.977 . S
O264 Zn263 2.032 . S
O264 C268 1.278 . S
C265 O266 1.203 . S
C265 O272 1.267 . S
O266 C265 1.203 . S
O267 C260 1.185 . S
O267 Zn263 2.086 . S
C268 O264 1.278 . S
C268 O269 1.211 . S
O269 C268 1.211 . S
C270 O262 1.284 . S
C270 O271 1.273 . S
O271 C270 1.273 . S
O272 Zn263 1.977 . S
O272 C265 1.267 . S
C273 O274 1.160 . S
C273 O280 1.185 . S
O274 C273 1.160 . S
O275 Zn276 1.899 . S
O275 C283 1.284 . S
Zn276 O275 1.899 . S
Zn276 O277 2.032 . S
Zn276 O280 2.086 . S
Zn276 O285 1.977 . S
O277 Zn276 2.032 . S
O277 C281 1.278 . S
C278 O279 1.203 . S
C278 O285 1.267 . S
O279 C278 1.203 . S
O280 C273 1.185 . S
O280 Zn276 2.086 . S
C281 O277 1.278 . S
C281 O282 1.211 . S
O282 C281 1.211 . S
C283 O275 1.284 . S
C283 O284 1.273 . S
O284 C283 1.273 . S
O285 Zn276 1.977 . S
O285 C278 1.267 . S
C286 O287 1.160 . S
C286 O293 1.185 . S
O287 C286 1.160 . S
O288 Zn289 1.899 . S
O288 C296 1.284 . S
Zn289 O288 1.899 . S
Zn289 O290 2.032 . S
Zn289 O293 2.086 . S
Zn289 O298 1.977 . S
O290 Zn289 2.032 . S
O290 C294 1.278 . S
C291 O292 1.203 . S
C291 O298 1.267 . S
O292 C291 1.203 . S
O293 C286 1.185 . S
O293 Zn289 2.086 . S
C294 O290 1.278 . S
C294 O295 1.211 . S
O295 C294 1.211 . S
C296 O288 1.284 . S
C296 O297 1.273 . S
O297 C296 1.273 . S
O298 Zn289 1.977 . S
O298 C291 1.267 . S
C299 O300 1.160 . S
C299 O306 1.185 . S
O300 C299 1.160 . S
O301 Zn302 1.899 . S
O301 C309 1.284 . S
Zn302 O301 1.899 . S
Zn302 O303 2.032 . S
Zn302 O306 2.086 . S
Zn302 O311 1.977 . S
O303 Zn302 2.032 . S
O303 C307 1.278 . S
C304 O305 1.203 . S
C304 O311 1.267 . S
O305 C304 1.203 . S
O306 C299 1.185 . S
O306 Zn302 2.086 . S
C307 O303 1.278 . S
C307 O308 1.211 . S
O308 C307 1.211 . S
C309 O301 1.284 . S
C309 O310 1.273 . S
O310 C309 1.273 . S
O311 Zn302 1.977 . S
O311 C304 1.267 . S
C312 O313 1.160 . S
C312 O319 1.185 . S
O313 C312 1.160 . S
O314 Zn315 1.899 . S
O314 C322 1.284 . S
Zn315 O314 1.899 . S
Zn315 O316 2.032 . S
Zn315 O319 2.086 . S
Zn315 O324 1.977 . S
O316 Zn315 2.032 . S
O316 C320 1.278 . S
C317 O318 1.203 . S
C317 O324 1.267 . S
O318 C317 1.203 . S
O319 C312 1.185 . S
O319 Zn315 2.086 . S
C320 O316 1.278 . S
C320 O321 1.211 . S
O321 C320 1.211 . S
C322 O314 1.284 . S
C322 O323 1.273 . S
O323 C322 1.273 . S
O324 Zn315 1.977 . S
O324 C317 1.267 . S
C325 O326 1.160 . S
C325 O332 1.185 . S
O326 C325 1.160 . S
O327 Zn328 1.899 . S
O327 C335 1.284 . S
Zn328 O327 1.899 . S
Zn328 O329 2.032 . S
Zn328 O332 2.086 . S
Zn328 O337 1.977 . S
O329 Zn328 2.032 . S
O329 C333 1.278 . S
C330 O331 1.203 . S
C330 O337 1.267 . S
O331 C330 1.203 . S
O332 C325 1.185 . S
O332 Zn328 2.086 . S
C333 O329 1.278 . S
C333 O334 1.211 . S
O334 C333 1.211 . S
C335 O327 1.284 . S
C335 O336 1.273 . S
O336 C335 1.273 . S
O337 Zn328 1.977 . S
O337 C330 1.267 . S
C338 O339 1.160 . S
C338 O345 1.185 . S
O339 C338 1.160 . S
O340 Zn341 1.899 . S
O340 C348 1.284 . S
Zn341 O340 1.899 . S
Zn341 O342 2.032 . S
Zn341 O345 2.086 . S
Zn341 O350 1.977 . S
O342 Zn341 2.032 . S
O342 C346 1.278 . S
C343 O344 1.216 . S
C343 O350 1.296 . S
O344 C343 1.216 . S
O345 C338 1.185 . S
O345 Zn341 2.086 . S
C346 O342 1.278 . S
C346 O347 1.211 . S
O347 C346 1.211 . S
C348 O340 1.284 . S
C348 O349 1.273 . S
O349 C348 1.273 . S
O350 Zn341 1.977 . S
O350 C343 1.296 . S
C351 O352 1.160 . S
C351 O358 1.185 . S
O352 C351 1.160 . S
O353 Zn354 1.899 . S
O353 C361 1.284 . S
Zn354 O353 1.899 . S
Zn354 O355 2.032 . S
Zn354 O358 2.086 . S
Zn354 O363 1.977 . S
O355 Zn354 2.032 . S
O355 C359 1.278 . S
C356 O357 1.203 . S
C356 O363 1.267 . S
O357 C356 1.203 . S
O358 C351 1.185 . S
O358 Zn354 2.086 . S
C359 O355 1.278 . S
C359 O360 1.211 . S
O360 C359 1.211 . S
C361 O353 1.284 . S
C361 O362 1.273 . S
O362 C361 1.273 . S
O363 Zn354 1.977 . S
O363 C356 1.267 . S
C364 O365 1.160 . S
C364 O371 1.185 . S
O365 C364 1.160 . S
O366 Zn367 1.899 . S
O366 C374 1.284 . S
Zn367 O366 1.899 . S
Zn367 O368 2.032 . S
Zn367 O371 2.086 . S
Zn367 O376 1.977 . S
O368 Zn367 2.032 . S
O368 C372 1.278 . S
C369 O370 1.203 . S
C369 O376 1.267 . S
O370 C369 1.203 . S
O371 C364 1.185 . S
O371 Zn367 2.086 . S
C372 O368 1.278 . S
C372 O373 1.211 . S
O373 C372 1.211 . S
C374 O366 1.284 . S
C374 O375 1.273 . S
O375 C374 1.273 . S
O376 Zn367 1.977 . S
O376 C369 1.267 . S
C377 O378 1.160 . S
C377 O384 1.185 . S
O378 C377 1.160 . S
O379 Zn380 1.899 . S
O379 C387 1.284 . S
Zn380 O379 1.899 . S
Zn380 O381 2.032 . S
Zn380 O384 2.086 . S
Zn380 O389 1.977 . S
O381 Zn380 2.032 . S
O381 C385 1.278 . S
C382 O383 1.203 . S
C382 O389 1.267 . S
O383 C382 1.203 . S
O384 C377 1.185 . S
O384 Zn380 2.086 . S
C385 O381 1.278 . S
C385 O386 1.211 . S
O386 C385 1.211 . S
C387 O379 1.284 . S
C387 O388 1.273 . S
O388 C387 1.273 . S
O389 Zn380 1.977 . S
O389 C382 1.267 . S
C390 O391 1.160 . S
C390 O397 1.185 . S
O391 C390 1.160 . S
O392 Zn393 1.899 . S
O392 C400 1.284 1_655 S
Zn393 O392 1.899 . S
Zn393 O394 2.032 1_655 S
Zn393 O397 2.086 1_655 S
Zn393 O402 1.977 . S
O394 Zn393 2.032 1_455 S
O394 C398 1.278 . S
C395 O396 1.203 . S
C395 O402 1.267 . S
O396 C395 1.203 . S
O397 C390 1.185 . S
O397 Zn393 2.086 1_455 S
C398 O394 1.278 . S
C398 O399 1.211 . S
O399 C398 1.211 . S
C400 O392 1.284 1_455 S
C400 O401 1.273 . S
O401 C400 1.273 . S
O402 Zn393 1.977 . S
O402 C395 1.267 . S
C403 O404 1.160 . S
C403 O410 1.185 . S
O404 C403 1.160 . S
O405 Zn406 1.899 . S
O405 C413 1.284 . S
Zn406 O405 1.899 . S
Zn406 O407 2.032 . S
Zn406 O410 2.086 . S
Zn406 O415 1.977 . S
O407 Zn406 2.032 . S
O407 C411 1.278 . S
C408 O409 1.203 . S
C408 O415 1.267 . S
O409 C408 1.203 . S
O410 C403 1.185 . S
O410 Zn406 2.086 . S
C411 O407 1.278 . S
C411 O412 1.211 . S
O412 C411 1.211 . S
C413 O405 1.284 . S
C413 O414 1.273 . S
O414 C413 1.273 . S
O415 Zn406 1.977 . S
O415 C408 1.267 . S
C416 O417 1.160 . S
C416 O423 1.185 . S
O417 C416 1.160 . S
O418 Zn419 1.899 . S
O418 C426 1.284 . S
Zn419 O418 1.899 . S
Zn419 O420 2.032 . S
Zn419 O423 2.086 . S
Zn419 O428 1.977 . S
O420 Zn419 2.032 . S
O420 C424 1.278 . S
C421 O422 1.203 . S
C421 O428 1.267 . S
O422 C421 1.203 . S
O423 C416 1.185 . S
O423 Zn419 2.086 . S
C424 O420 1.278 . S
C424 O425 1.211 . S
O425 C424 1.211 . S
C426 O418 1.284 . S
C426 O427 1.273 . S
O427 C426 1.273 . S
O428 Zn419 1.977 . S
O428 C421 1.267 . S
C429 O430 1.160 . S
C429 O436 1.185 . S
O430 C429 1.160 . S
O431 Zn432 1.899 . S
O431 C439 1.284 . S
Zn432 O431 1.899 . S
Zn432 O433 2.032 . S
Zn432 O436 2.086 . S
Zn432 O441 1.977 . S
O433 Zn432 2.032 . S
O433 C437 1.278 . S
C434 O435 1.203 . S
C434 O441 1.267 . S
O435 C434 1.203 . S
O436 C429 1.185 . S
O436 Zn432 2.086 . S
C437 O433 1.278 . S
C437 O438 1.211 . S
O438 C437 1.211 . S
C439 O431 1.284 . S
C439 O440 1.273 . S
O440 C439 1.273 . S
O441 Zn432 1.977 . S
O441 C434 1.267 . S
C442 O443 1.160 . S
C442 O449 1.185 . S
O443 C442 1.160 . S
O444 Zn445 1.899 . S
O444 C452 1.284 . S
Zn445 O444 1.899 . S
Zn445 O446 2.032 . S
Zn445 O449 2.086 . S
Zn445 O454 1.977 . S
O446 Zn445 2.032 . S
O446 C450 1.278 . S
C447 O448 1.203 . S
C447 O454 1.267 . S
O448 C447 1.203 . S
O449 C442 1.185 . S
O449 Zn445 2.086 . S
C450 O446 1.278 . S
C450 O451 1.211 . S
O451 C450 1.211 . S
C452 O444 1.284 . S
C452 O453 1.273 . S
O453 C452 1.273 . S
O454 Zn445 1.977 . S
O454 C447 1.267 . S
C455 O456 1.160 . S
C455 O462 1.185 . S
O456 C455 1.160 . S
O457 Zn458 1.899 . S
O457 C465 1.284 . S
Zn458 O457 1.899 . S
Zn458 O459 2.032 . S
Zn458 O462 2.086 . S
Zn458 O467 1.977 . S
O459 Zn458 2.032 . S
O459 C463 1.278 . S
C460 O461 1.203 . S
C460 O467 1.267 . S
O461 C460 1.203 . S
O462 C455 1.185 . S
O462 Zn458 2.086 . S
C463 O459 1.278 . S
C463 O464 1.211 . S
O464 C463 1.211 . S
C465 O457 1.284 . S
C465 O466 1.273 . S
O466 C465 1.273 . S
O467 Zn458 1.977 . S
O467 C460 1.267 . S
C468 O469 1.160 . S
C468 O475 1.185 . S
O469 C468 1.160 . S
O470 Zn471 1.899 . S
O470 C478 1.284 . S
Zn471 O470 1.899 . S
Zn471 O472 2.032 . S
Zn471 O475 2.086 . S
Zn471 O480 1.977 . S
O472 Zn471 2.032 . S
O472 C476 1.278 . S
C473 O474 1.203 . S
C473 O480 1.267 . S
O474 C473 1.203 . S
O475 C468 1.185 . S
O475 Zn471 2.086 . S
C476 O472 1.278 . S
C476 O477 1.211 . S
O477 C476 1.211 . S
C478 O470 1.284 . S
C478 O479 1.273 . S
O479 C478 1.273 . S
O480 Zn471 1.977 . S
O480 C473 1.267 . S
C481 O482 1.160 . S
C481 O488 1.185 . S
O482 C481 1.160 . S
O483 Zn484 1.899 . S
O483 C491 1.284 . S
Zn484 O483 1.899 . S
Zn484 O485 2.032 . S
Zn484 O488 2.086 . S
Zn484 O493 1.977 . S
O485 Zn484 2.032 . S
O485 C489 1.278 . S
C486 O487 1.203 . S
C486 O493 1.267 . S
O487 C486 1.203 . S
O488 C481 1.185 . S
O488 Zn484 2.086 . S
C489 O485 1.278 . S
C489 O490 1.211 . S
O490 C489 1.211 . S
C491 O483 1.284 . S
C491 O492 1.273 . S
O492 C491 1.273 . S
O493 Zn484 1.977 . S
O493 C486 1.267 . S
C494 O495 1.160 . S
C494 O501 1.185 . S
O495 C494 1.160 . S
O496 Zn497 1.899 . S
O496 C504 1.284 . S
Zn497 O496 1.899 . S
Zn497 O498 2.032 . S
Zn497 O501 2.086 . S
Zn497 O506 1.977 . S
O498 Zn497 2.032 . S
O498 C502 1.278 . S
C499 O500 1.203 . S
C499 O506 1.267 . S
O500 C499 1.203 . S
O501 C494 1.185 . S
O501 Zn497 2.086 . S
C502 O498 1.278 . S
C502 O503 1.211 . S
O503 C502 1.211 . S
C504 O496 1.284 . S
C504 O505 1.273 . S
O505 C504 1.273 . S
O506 Zn497 1.977 . S
O506 C499 1.267 . S
C507 O508 1.160 . S
C507 O514 1.185 . S
O508 C507 1.160 . S
O509 Zn510 1.899 . S
O509 C517 1.284 . S
Zn510 O509 1.899 . S
Zn510 O511 2.032 . S
Zn510 O514 2.086 . S
Zn510 O519 1.977 . S
O511 Zn510 2.032 . S
O511 C515 1.278 . S
C512 O513 1.203 . S
C512 O519 1.267 . S
O513 C512 1.203 . S
O514 C507 1.185 . S
O514 Zn510 2.086 . S
C515 O511 1.278 . S
C515 O516 1.211 . S
O516 C515 1.211 . S
C517 O509 1.284 . S
C517 O518 1.273 . S
O518 C517 1.273 . S
O519 Zn510 1.977 . S
O519 C512 1.267 . S
C520 O521 1.160 . S
C520 O527 1.185 . S
O521 C520 1.160 . S
O522 Zn523 1.899 . S
O522 C530 1.284 . S
Zn523 O522 1.899 . S
Zn523 O524 2.032 . S
Zn523 O527 2.086 . S
Zn523 O532 1.977 . S
O524 Zn523 2.032 . S
O524 C528 1.278 . S
C525 O526 1.203 . S
C525 O532 1.267 . S
O526 C525 1.203 . S
O527 C520 1.185 . S
O527 Zn523 2.086 . S
C528 O524 1.278 . S
C528 O529 1.211 . S
O529 C528 1.211 . S
C530 O522 1.284 . S
C530 O531 1.273 . S
O531 C530 1.273 . S
O532 Zn523 1.977 . S
O532 C525 1.267 . S
C533 O534 1.160 . S
C533 O540 1.185 . S
O534 C533 1.160 . S
O535 Zn536 1.899 . S
O535 C543 1.284 . S
Zn536 O535 1.899 . S
Zn536 O537 2.032 . S
Zn536 O540 2.086 . S
Zn536 O545 1.977 . S
O537 Zn536 2.032 . S
O537 C541 1.278 . S
C538 O539 1.203 . S
C538 O545 1.267 . S
O539 C538 1.203 . S
O540 C533 1.185 . S
O540 Zn536 2.086 . S
C541 O537 1.278 . S
C541 O542 1.211 . S
O542 C541 1.211 . S
C543 O535 1.284 . S
C543 O544 1.273 . S
O544 C543 1.273 . S
O545 Zn536 1.977 . S
O545 C538 1.267 . S
C546 O547 1.160 . S
C546 O553 1.185 . S
O547 C546 1.160 . S
O548 Zn549 1.899 . S
O548 C556 1.284 . S
Zn549 O548 1.899 . S
Zn549 O550 2.032 . S
Zn549 O553 2.086 . S
Zn549 O558 1.977 . S
O550 Zn549 2.032 . S
O550 C554 1.278 . S
C551 O552 1.203 . S
C551 O558 1.267 . S
O552 C551 1.203 . S
O553 C546 1.185 . S
O553 Zn549 2.086 . S
C554 O550 1.278 . S
C554 O555 1.211 . S
O555 C554 1.211 . S
C556 O548 1.284 . S
C556 O557 1.273 . S
O557 C556 1.273 . S
O558 Zn549 1.977 . S
O558 C551 1.267 . S
C559 O560 1.160 . S
C559 O566 1.185 . S
O560 C559 1.160 . S
O561 Zn562 1.899 . S
O561 C569 1.284 . S
Zn562 O561 1.899 . S
Zn562 O563 2.032 . S
Zn562 O566 2.086 . S
Zn562 O571 1.977 . S
O563 Zn562 2.032 . S
O563 C567 1.278 . S
C564 O565 1.215 . S
C564 O571 1.295 . S
O565 C564 1.215 . S
O566 C559 1.185 . S
O566 Zn562 2.086 . S
C567 O563 1.278 . S
C567 O568 1.211 . S
O568 C567 1.211 . S
C569 O561 1.284 . S
C569 O570 1.273 . S
O570 C569 1.273 . S
O571 Zn562 1.977 . S
O571 C564 1.295 . S
C572 O573 1.160 . S
C572 O579 1.185 . S
O573 C572 1.160 . S
O574 Zn575 1.899 . S
O574 C582 1.284 . S
Zn575 O574 1.899 . S
Zn575 O576 2.032 . S
Zn575 O579 2.086 . S
Zn575 O584 1.977 . S
O576 Zn575 2.032 . S
O576 C580 1.278 . S
C577 O578 1.203 . S
C577 O584 1.267 . S
O578 C577 1.203 . S
O579 C572 1.185 . S
O579 Zn575 2.086 . S
C580 O576 1.278 . S
C580 O581 1.211 . S
O581 C580 1.211 . S
C582 O574 1.284 . S
C582 O583 1.273 . S
O583 C582 1.273 . S
O584 Zn575 1.977 . S
O584 C577 1.267 . S
C585 O586 1.160 . S
C585 O592 1.185 1_556 S
O586 C585 1.160 . S
O587 Zn588 1.899 . S
O587 C595 1.284 . S
Zn588 O587 1.899 . S
Zn588 O589 2.032 1_554 S
Zn588 O592 2.086 . S
Zn588 O597 1.977 . S
O589 Zn588 2.032 1_556 S
O589 C593 1.278 . S
C590 O591 1.203 . S
C590 O597 1.267 . S
O591 C590 1.203 . S
O592 C585 1.185 1_554 S
O592 Zn588 2.086 . S
C593 O589 1.278 . S
C593 O594 1.211 . S
O594 C593 1.211 . S
C595 O587 1.284 . S
C595 O596 1.273 . S
O596 C595 1.273 . S
O597 Zn588 1.977 . S
O597 C590 1.267 . S
C598 O599 1.160 . S
C598 O605 1.185 . S
O599 C598 1.160 . S
O600 Zn601 1.899 . S
O600 C608 1.284 . S
Zn601 O600 1.899 . S
Zn601 O602 2.032 . S
Zn601 O605 2.086 . S
Zn601 O610 1.977 . S
O602 Zn601 2.032 . S
O602 C606 1.278 . S
C603 O604 1.203 . S
C603 O610 1.267 . S
O604 C603 1.203 . S
O605 C598 1.185 . S
O605 Zn601 2.086 . S
C606 O602 1.278 . S
C606 O607 1.211 . S
O607 C606 1.211 . S
C608 O600 1.284 . S
C608 O609 1.273 . S
O609 C608 1.273 . S
O610 Zn601 1.977 . S
O610 C603 1.267 . S
C611 O612 1.160 . S
C611 O618 1.185 . S
O612 C611 1.160 . S
O613 Zn614 1.899 . S
O613 C621 1.284 . S
Zn614 O613 1.899 . S
Zn614 O615 2.032 . S
Zn614 O618 2.086 . S
Zn614 O623 1.977 . S
O615 Zn614 2.032 . S
O615 C619 1.278 . S
C616 O617 1.203 . S
C616 O623 1.267 . S
O617 C616 1.203 . S
O618 C611 1.185 . S
O618 Zn614 2.086 . S
C619 O615 1.278 . S
C619 O620 1.211 . S
O620 C619 1.211 . S
C621 O613 1.284 . S
C621 O622 1.273 . S
O622 C621 1.273 . S
O623 Zn614 1.977 . S
O623 C616 1.267 . S
C624 C625 1.369 . S
C624 C626 1.419 . S
C624 H628 0.930 . S
C625 C624 1.369 . S
C625 C634 1.429 . S
C626 C624 1.419 . S
C626 C627 1.363 . S
C626 H629 0.929 . S
C627 C626 1.363 . S
C627 C633 1.428 . S
H628 C624 0.930 . S
H629 C626 0.929 . S
S630 N631 1.613 . S
S630 N632 1.610 . S
N631 S630 1.613 . S
N631 C634 1.350 . S
N632 S630 1.610 . S
N632 C633 1.351 . S
C633 C627 1.428 . S
C633 N632 1.351 . S
C633 C634 1.434 . S
C634 C625 1.429 . S
C634 N631 1.350 . S
C634 C633 1.434 . S
C635 C636 1.382 . S
C635 C637 1.419 . S
C635 H639 0.930 . S
C636 C635 1.382 . S
C636 C645 1.439 . S
C637 C635 1.419 . S
C637 C638 1.363 . S
C637 H640 0.929 . S
C638 C637 1.363 . S
C638 C644 1.428 . S
H639 C635 0.930 . S
H640 C637 0.929 . S
S641 N642 1.613 . S
S641 N643 1.610 . S
N642 S641 1.613 . S
N642 C645 1.350 . S
N643 S641 1.610 . S
N643 C644 1.351 . S
C644 C638 1.428 . S
C644 N643 1.351 . S
C644 C645 1.434 . S
C645 C636 1.439 . S
C645 N642 1.350 . S
C645 C644 1.434 . S
C646 C647 1.369 . S
C646 C648 1.419 . S
C646 H650 0.930 . S
C647 C646 1.369 . S
C647 C656 1.429 . S
C648 C646 1.419 . S
C648 C649 1.363 . S
C648 H651 0.929 . S
C649 C648 1.363 . S
C649 C655 1.428 . S
H650 C646 0.930 . S
H651 C648 0.929 . S
S652 N653 1.613 . S
S652 N654 1.610 . S
N653 S652 1.613 . S
N653 C656 1.350 . S
N654 S652 1.610 . S
N654 C655 1.351 . S
C655 C649 1.428 . S
C655 N654 1.351 . S
C655 C656 1.434 . S
C656 C647 1.429 . S
C656 N653 1.350 . S
C656 C655 1.434 . S
C657 C658 1.369 . S
C657 C659 1.419 . S
C657 H661 0.930 . S
C658 C657 1.369 . S
C658 C667 1.429 . S
C659 C657 1.419 . S
C659 C660 1.363 . S
C659 H662 0.929 . S
C660 C659 1.363 . S
C660 C666 1.428 . S
H661 C657 0.930 . S
H662 C659 0.929 . S
S663 N664 1.613 . S
S663 N665 1.610 . S
N664 S663 1.613 . S
N664 C667 1.350 . S
N665 S663 1.610 . S
N665 C666 1.351 . S
C666 C660 1.428 . S
C666 N665 1.351 . S
C666 C667 1.434 . S
C667 C658 1.429 . S
C667 N664 1.350 . S
C667 C666 1.434 . S
C668 C669 1.369 . S
C668 C670 1.419 1_455 S
C668 H672 0.930 1_455 S
C669 C668 1.369 . S
C669 C678 1.429 . S
C670 C668 1.419 1_655 S
C670 C671 1.363 1_655 S
C670 H673 0.929 . S
C671 C670 1.363 1_455 S
C671 C677 1.428 . S
H672 C668 0.930 1_655 S
H673 C670 0.929 . S
S674 N675 1.613 . S
S674 N676 1.610 . S
N675 S674 1.613 . S
N675 C678 1.350 . S
N676 S674 1.610 . S
N676 C677 1.351 . S
C677 C671 1.428 . S
C677 N676 1.351 . S
C677 C678 1.434 . S
C678 C669 1.429 . S
C678 N675 1.350 . S
C678 C677 1.434 . S
C679 C680 1.369 . S
C679 C681 1.419 . S
C679 H683 0.930 . S
C680 C679 1.369 . S
C680 C689 1.429 . S
C681 C679 1.419 . S
C681 C682 1.363 . S
C681 H684 0.929 . S
C682 C681 1.363 . S
C682 C688 1.428 . S
H683 C679 0.930 . S
H684 C681 0.929 . S
S685 N686 1.613 . S
S685 N687 1.610 . S
N686 S685 1.613 . S
N686 C689 1.350 . S
N687 S685 1.610 . S
N687 C688 1.351 . S
C688 C682 1.428 . S
C688 N687 1.351 . S
C688 C689 1.434 . S
C689 C680 1.429 . S
C689 N686 1.350 . S
C689 C688 1.434 . S
C690 C691 1.369 . S
C690 C692 1.419 . S
C690 H694 0.930 . S
C691 C690 1.369 . S
C691 C700 1.429 . S
C692 C690 1.419 . S
C692 C693 1.363 . S
C692 H695 0.929 . S
C693 C692 1.363 . S
C693 C699 1.428 . S
H694 C690 0.930 . S
H695 C692 0.929 . S
S696 N697 1.613 . S
S696 N698 1.610 . S
N697 S696 1.613 . S
N697 C700 1.350 . S
N698 S696 1.610 . S
N698 C699 1.351 . S
C699 C693 1.428 . S
C699 N698 1.351 . S
C699 C700 1.434 . S
C700 C691 1.429 . S
C700 N697 1.350 . S
C700 C699 1.434 . S
C701 C702 1.369 . S
C701 C703 1.419 1_655 S
C701 H705 0.930 . S
C702 C701 1.369 . S
C702 C711 1.429 . S
C703 C701 1.419 1_455 S
C703 C704 1.363 . S
C703 H706 0.929 . S
C704 C703 1.363 . S
C704 C710 1.428 . S
H705 C701 0.930 . S
H706 C703 0.929 . S
S707 N708 1.613 1_455 S
S707 N709 1.610 . S
N708 S707 1.613 1_655 S
N708 C711 1.350 . S
N709 S707 1.610 . S
N709 C710 1.351 . S
C710 C704 1.428 . S
C710 N709 1.351 . S
C710 C711 1.434 1_455 S
C711 C702 1.429 . S
C711 N708 1.350 . S
C711 C710 1.434 1_655 S
C712 C713 1.369 . S
C712 C714 1.419 . S
C712 H716 0.930 . S
C713 C712 1.369 . S
C713 C722 1.429 . S
C714 C712 1.419 . S
C714 C715 1.363 . S
C714 H717 0.929 . S
C715 C714 1.363 . S
C715 C721 1.428 . S
H716 C712 0.930 . S
H717 C714 0.929 . S
S718 N719 1.613 1_565 S
S718 N720 1.610 1_565 S
N719 S718 1.613 1_545 S
N719 C722 1.350 . S
N720 S718 1.610 1_545 S
N720 C721 1.351 . S
C721 C715 1.428 . S
C721 N720 1.351 . S
C721 C722 1.434 . S
C722 C713 1.429 . S
C722 N719 1.350 . S
C722 C721 1.434 . S
C723 C724 1.369 . S
C723 C725 1.419 . S
C723 H727 0.930 . S
C724 C723 1.369 . S
C724 C733 1.429 . S
C725 C723 1.419 . S
C725 C726 1.363 . S
C725 H728 0.929 . S
C726 C725 1.363 . S
C726 C732 1.428 . S
H727 C723 0.930 . S
H728 C725 0.929 . S
S729 N730 1.613 . S
S729 N731 1.610 . S
N730 S729 1.613 . S
N730 C733 1.350 . S
N731 S729 1.610 . S
N731 C732 1.351 . S
C732 C726 1.428 . S
C732 N731 1.351 . S
C732 C733 1.434 . S
C733 C724 1.429 . S
C733 N730 1.350 . S
C733 C732 1.434 . S
C734 C735 1.369 . S
C734 C736 1.429 . S
C734 H738 0.930 . S
C735 C734 1.369 . S
C735 C744 1.429 . S
C736 C734 1.429 . S
C736 C737 1.372 . S
C736 H739 0.910 1_545 S
C737 C736 1.372 . S
C737 C743 1.428 . S
H738 C734 0.930 . S
H739 C736 0.910 1_565 S
S740 N741 1.613 . S
S740 N742 1.610 . S
N741 S740 1.613 . S
N741 C744 1.350 . S
N742 S740 1.610 . S
N742 C743 1.351 . S
C743 C737 1.428 . S
C743 N742 1.351 . S
C743 C744 1.434 . S
C744 C735 1.429 . S
C744 N741 1.350 . S
C744 C743 1.434 . S
C745 C746 1.369 . S
C745 C747 1.419 1_554 S
C745 H749 0.930 . S
C746 C745 1.369 . S
C746 C755 1.391 1_554 S
C747 C745 1.419 1_556 S
C747 C748 1.363 . S
C747 H750 0.929 . S
C748 C747 1.363 . S
C748 C754 1.428 . S
H749 C745 0.930 . S
H750 C747 0.929 . S
S751 N752 1.613 . S
S751 N753 1.610 . S
N752 S751 1.613 . S
N752 C755 1.352 . S
N753 S751 1.610 . S
N753 C754 1.351 . S
C754 C748 1.428 . S
C754 N753 1.351 . S
C754 C755 1.477 . S
C755 C746 1.391 1_556 S
C755 N752 1.352 . S
C755 C754 1.477 . S
C756 C757 1.369 . S
C756 C758 1.419 . S
C756 H760 0.930 . S
C757 C756 1.369 . S
C757 C766 1.429 . S
C758 C756 1.419 . S
C758 C759 1.363 . S
C758 H761 0.929 . S
C759 C758 1.363 . S
C759 C765 1.428 . S
H760 C756 0.930 . S
H761 C758 0.929 . S
S762 N763 1.634 . S
S762 N764 1.627 . S
N763 S762 1.634 . S
N763 C766 1.350 . S
N764 S762 1.627 . S
N764 C765 1.351 . S
C765 C759 1.428 . S
C765 N764 1.351 . S
C765 C766 1.434 . S
C766 C757 1.429 . S
C766 N763 1.350 . S
C766 C765 1.434 . S
C767 C768 1.369 . S
C767 C769 1.419 . S
C767 H771 0.930 . S
C768 C767 1.369 . S
C768 C777 1.429 . S
C769 C767 1.419 . S
C769 C770 1.363 . S
C769 H772 0.929 . S
C770 C769 1.363 . S
C770 C776 1.428 1_554 S
H771 C767 0.930 . S
H772 C769 0.929 . S
S773 N774 1.613 . S
S773 N775 1.610 . S
N774 S773 1.613 . S
N774 C777 1.350 1_556 S
N775 S773 1.610 . S
N775 C776 1.351 . S
C776 C770 1.428 1_556 S
C776 N775 1.351 . S
C776 C777 1.434 1_556 S
C777 C768 1.429 . S
C777 N774 1.350 1_554 S
C777 C776 1.434 1_554 S
C778 C779 1.369 . S
C778 C780 1.419 . S
C778 H782 0.930 . S
C779 C778 1.369 . S
C779 C788 1.429 . S
C780 C778 1.419 . S
C780 C781 1.363 . S
C780 H783 0.929 . S
C781 C780 1.363 . S
C781 C787 1.428 . S
H782 C778 0.930 . S
H783 C780 0.929 . S
S784 N785 1.613 . S
S784 N786 1.610 . S
N785 S784 1.613 . S
N785 C788 1.350 . S
N786 S784 1.610 . S
N786 C787 1.351 . S
C787 C781 1.428 . S
C787 N786 1.351 . S
C787 C788 1.434 . S
C788 C779 1.429 . S
C788 N785 1.350 . S
C788 C787 1.434 . S
C789 C790 1.369 . S
C789 C791 1.419 . S
C789 H793 0.930 . S
C790 C789 1.369 . S
C790 C799 1.429 . S
C791 C789 1.419 . S
C791 C792 1.363 . S
C791 H794 0.929 . S
C792 C791 1.363 . S
C792 C798 1.428 . S
H793 C789 0.930 . S
H794 C791 0.929 . S
S795 N796 1.613 . S
S795 N797 1.610 . S
N796 S795 1.613 . S
N796 C799 1.350 . S
N797 S795 1.610 . S
N797 C798 1.351 . S
C798 C792 1.428 . S
C798 N797 1.351 . S
C798 C799 1.434 . S
C799 C790 1.429 . S
C799 N796 1.350 . S
C799 C798 1.434 . S
C800 C801 1.369 1_565 S
C800 C802 1.419 . S
C800 H804 0.930 . S
C801 C800 1.369 1_545 S
C801 C810 1.429 . S
C802 C800 1.419 . S
C802 C803 1.363 . S
C802 H805 0.929 . S
C803 C802 1.363 . S
C803 C809 1.428 . S
H804 C800 0.930 . S
H805 C802 0.929 . S
S806 N807 1.613 . S
S806 N808 1.591 1_545 S
N807 S806 1.613 . S
N807 C810 1.350 . S
N808 S806 1.591 1_565 S
N808 C809 1.353 . S
C809 C803 1.428 . S
C809 N808 1.353 . S
C809 C810 1.434 1_565 S
C810 C801 1.429 . S
C810 N807 1.350 . S
C810 C809 1.434 1_545 S
C811 C812 1.369 . S
C811 C813 1.419 . S
C811 H815 0.930 . S
C812 C811 1.369 . S
C812 C821 1.429 . S
C813 C811 1.419 . S
C813 C814 1.363 . S
C813 H816 0.929 . S
C814 C813 1.363 . S
C814 C820 1.428 . S
H815 C811 0.930 . S
H816 C813 0.929 . S
S817 N818 1.613 . S
S817 N819 1.610 . S
N818 S817 1.613 . S
N818 C821 1.350 . S
N819 S817 1.610 . S
N819 C820 1.351 . S
C820 C814 1.428 . S
C820 N819 1.351 . S
C820 C821 1.434 . S
C821 C812 1.429 . S
C821 N818 1.350 . S
C821 C820 1.434 . S
C822 C823 1.369 . S
C822 C824 1.419 . S
C822 H826 0.930 . S
C823 C822 1.369 . S
C823 C832 1.429 . S
C824 C822 1.419 . S
C824 C825 1.363 . S
C824 H827 0.929 . S
C825 C824 1.363 . S
C825 C831 1.428 . S
H826 C822 0.930 . S
H827 C824 0.929 . S
S828 N829 1.613 . S
S828 N830 1.610 . S
N829 S828 1.613 . S
N829 C832 1.350 . S
N830 S828 1.610 . S
N830 C831 1.351 . S
C831 C825 1.428 . S
C831 N830 1.351 . S
C831 C832 1.434 . S
C832 C823 1.429 . S
C832 N829 1.350 . S
C832 C831 1.434 . S
C833 C834 1.369 . S
C833 C835 1.419 . S
C833 H837 0.930 . S
C834 C833 1.369 . S
C834 C843 1.429 . S
C835 C833 1.419 . S
C835 C836 1.363 . S
C835 H838 0.929 . S
C836 C835 1.363 . S
C836 C842 1.428 . S
H837 C833 0.930 . S
H838 C835 0.929 . S
S839 N840 1.613 . S
S839 N841 1.610 . S
N840 S839 1.613 . S
N840 C843 1.350 . S
N841 S839 1.610 . S
N841 C842 1.351 . S
C842 C836 1.428 . S
C842 N841 1.351 . S
C842 C843 1.434 . S
C843 C834 1.429 . S
C843 N840 1.350 . S
C843 C842 1.434 . S
C844 C845 1.369 . S
C844 C846 1.419 . S
C844 H848 0.930 . S
C845 C844 1.369 . S
C845 C854 1.429 . S
C846 C844 1.419 . S
C846 C847 1.381 . S
C846 H849 0.929 . S
C847 C846 1.381 . S
C847 C853 1.432 . S
H848 C844 0.930 . S
H849 C846 0.929 . S
S850 N851 1.613 . S
S850 N852 1.610 1_556 S
N851 S850 1.613 . S
N851 C854 1.350 . S
N852 S850 1.610 1_554 S
N852 C853 1.351 1_554 S
C853 C847 1.432 . S
C853 N852 1.351 1_556 S
C853 C854 1.434 . S
C854 C845 1.429 . S
C854 N851 1.350 . S
C854 C853 1.434 . S
C855 C856 1.369 . S
C855 C857 1.419 . S
C855 H859 0.930 . S
C856 C855 1.369 . S
C856 C865 1.429 . S
C857 C855 1.419 . S
C857 C858 1.363 . S
C857 H860 0.929 . S
C858 C857 1.363 . S
C858 C864 1.428 . S
H859 C855 0.930 . S
H860 C857 0.929 . S
S861 N862 1.613 . S
S861 N863 1.610 . S
N862 S861 1.613 . S
N862 C865 1.350 . S
N863 S861 1.610 . S
N863 C864 1.351 . S
C864 C858 1.428 . S
C864 N863 1.351 . S
C864 C865 1.434 . S
C865 C856 1.429 . S
C865 N862 1.350 . S
C865 C864 1.434 . S
C866 C867 1.369 . S
C866 C868 1.419 . S
C866 H870 0.930 . S
C867 C866 1.369 . S
C867 C876 1.429 . S
C868 C866 1.419 . S
C868 C869 1.363 . S
C868 H871 0.929 . S
C869 C868 1.363 . S
C869 C875 1.428 . S
H870 C866 0.930 . S
H871 C868 0.929 . S
S872 N873 1.613 . S
S872 N874 1.610 . S
N873 S872 1.613 . S
N873 C876 1.350 . S
N874 S872 1.610 . S
N874 C875 1.351 . S
C875 C869 1.428 . S
C875 N874 1.351 . S
C875 C876 1.434 . S
C876 C867 1.429 . S
C876 N873 1.350 . S
C876 C875 1.434 . S
C877 C878 1.382 . S
C877 C879 1.419 . S
C877 H881 0.930 . S
C878 C877 1.382 . S
C878 C887 1.441 . S
C879 C877 1.419 . S
C879 C880 1.363 . S
C879 H882 0.929 . S
C880 C879 1.363 . S
C880 C886 1.428 . S
H881 C877 0.930 . S
H882 C879 0.929 . S
S883 N884 1.613 . S
S883 N885 1.610 . S
N884 S883 1.613 . S
N884 C887 1.350 . S
N885 S883 1.610 . S
N885 C886 1.351 . S
C886 C880 1.428 . S
C886 N885 1.351 . S
C886 C887 1.434 . S
C887 C878 1.441 . S
C887 N884 1.350 . S
C887 C886 1.434 . S
C888 C889 1.369 . S
C888 C890 1.419 . S
C888 H892 0.930 . S
C889 C888 1.369 . S
C889 C898 1.429 . S
C890 C888 1.419 . S
C890 C891 1.363 . S
C890 H893 0.929 . S
C891 C890 1.363 . S
C891 C897 1.428 . S
H892 C888 0.930 . S
H893 C890 0.929 . S
S894 N895 1.613 . S
S894 N896 1.610 . S
N895 S894 1.613 . S
N895 C898 1.350 . S
N896 S894 1.610 . S
N896 C897 1.351 . S
C897 C891 1.428 . S
C897 N896 1.351 . S
C897 C898 1.434 . S
C898 C889 1.429 . S
C898 N895 1.350 . S
C898 C897 1.434 . S
C899 C900 1.369 . S
C899 C901 1.419 . S
C899 H903 0.930 . S
C900 C899 1.369 . S
C900 C909 1.429 . S
C901 C899 1.419 . S
C901 C902 1.363 . S
C901 H904 0.929 . S
C902 C901 1.363 . S
C902 C908 1.428 . S
H903 C899 0.930 . S
H904 C901 0.929 . S
S905 N906 1.613 . S
S905 N907 1.610 . S
N906 S905 1.613 . S
N906 C909 1.350 . S
N907 S905 1.610 . S
N907 C908 1.351 . S
C908 C902 1.428 . S
C908 N907 1.351 . S
C908 C909 1.434 . S
C909 C900 1.429 . S
C909 N906 1.350 . S
C909 C908 1.434 . S
C910 C911 1.369 . S
C910 C912 1.419 . S
C910 H914 0.930 . S
C911 C910 1.369 . S
C911 C920 1.429 . S
C912 C910 1.419 . S
C912 C913 1.363 . S
C912 H915 0.929 . S
C913 C912 1.363 . S
C913 C919 1.428 . S
H914 C910 0.930 . S
H915 C912 0.929 . S
S916 N917 1.613 . S
S916 N918 1.610 . S
N917 S916 1.613 . S
N917 C920 1.350 . S
N918 S916 1.610 . S
N918 C919 1.351 . S
C919 C913 1.428 . S
C919 N918 1.351 . S
C919 C920 1.434 . S
C920 C911 1.429 . S
C920 N917 1.350 . S
C920 C919 1.434 . S
C921 C922 1.369 . S
C921 C923 1.419 . S
C921 H925 0.930 . S
C922 C921 1.369 . S
C922 C931 1.429 . S
C923 C921 1.419 . S
C923 C924 1.363 . S
C923 H926 0.929 . S
C924 C923 1.363 . S
C924 C930 1.428 . S
H925 C921 0.930 . S
H926 C923 0.929 . S
S927 N928 1.613 . S
S927 N929 1.610 . S
N928 S927 1.613 . S
N928 C931 1.350 . S
N929 S927 1.610 . S
N929 C930 1.351 . S
C930 C924 1.428 . S
C930 N929 1.351 . S
C930 C931 1.434 . S
C931 C922 1.429 . S
C931 N928 1.350 . S
C931 C930 1.434 . S
C932 C933 1.369 . S
C932 C934 1.419 . S
C932 H936 0.930 . S
C933 C932 1.369 . S
C933 C942 1.429 . S
C934 C932 1.419 . S
C934 C935 1.363 . S
C934 H937 0.929 . S
C935 C934 1.363 . S
C935 C941 1.428 . S
H936 C932 0.930 . S
H937 C934 0.929 . S
S938 N939 1.613 . S
S938 N940 1.610 . S
N939 S938 1.613 . S
N939 C942 1.350 . S
N940 S938 1.610 . S
N940 C941 1.351 . S
C941 C935 1.428 . S
C941 N940 1.351 . S
C941 C942 1.434 . S
C942 C933 1.429 . S
C942 N939 1.350 . S
C942 C941 1.434 . S
C943 C944 1.369 . S
C943 C945 1.419 . S
C943 H947 0.930 . S
C944 C943 1.369 . S
C944 C953 1.429 . S
C945 C943 1.419 . S
C945 C946 1.363 . S
C945 H948 0.929 . S
C946 C945 1.363 . S
C946 C952 1.428 . S
H947 C943 0.930 . S
H948 C945 0.929 . S
S949 N950 1.613 . S
S949 N951 1.610 . S
N950 S949 1.613 . S
N950 C953 1.350 . S
N951 S949 1.610 . S
N951 C952 1.351 . S
C952 C946 1.428 . S
C952 N951 1.351 . S
C952 C953 1.434 . S
C953 C944 1.429 . S
C953 N950 1.350 . S
C953 C952 1.434 . S
C954 C955 1.369 . S
C954 C956 1.419 . S
C954 H958 0.930 . S
C955 C954 1.369 . S
C955 C964 1.429 . S
C956 C954 1.419 . S
C956 C957 1.363 . S
C956 H959 0.929 . S
C957 C956 1.363 . S
C957 C963 1.428 . S
H958 C954 0.930 . S
H959 C956 0.929 . S
S960 N961 1.613 . S
S960 N962 1.610 1_565 S
N961 S960 1.613 . S
N961 C964 1.350 1_565 S
N962 S960 1.610 1_545 S
N962 C963 1.351 . S
C963 C957 1.428 . S
C963 N962 1.351 . S
C963 C964 1.434 . S
C964 C955 1.429 . S
C964 N961 1.350 1_545 S
C964 C963 1.434 . S
C965 C966 1.369 . S
C965 C967 1.419 . S
C965 H969 0.930 . S
C966 C965 1.369 . S
C966 C975 1.429 . S
C967 C965 1.419 . S
C967 C968 1.363 . S
C967 H970 0.929 . S
C968 C967 1.363 . S
C968 C974 1.428 . S
H969 C965 0.930 . S
H970 C967 0.929 . S
S971 N972 1.613 . S
S971 N973 1.610 . S
N972 S971 1.613 . S
N972 C975 1.350 . S
N973 S971 1.610 . S
N973 C974 1.351 . S
C974 C968 1.428 . S
C974 N973 1.351 . S
C974 C975 1.434 . S
C975 C966 1.429 . S
C975 N972 1.350 . S
C975 C974 1.434 . S
C976 C977 1.369 . S
C976 C978 1.419 . S
C976 H980 0.930 . S
C977 C976 1.369 . S
C977 C986 1.429 . S
C978 C976 1.419 . S
C978 C979 1.363 . S
C978 H981 0.929 . S
C979 C978 1.363 . S
C979 C985 1.428 . S
H980 C976 0.930 . S
H981 C978 0.929 . S
S982 N983 1.613 . S
S982 N984 1.610 . S
N983 S982 1.613 . S
N983 C986 1.350 . S
N984 S982 1.610 . S
N984 C985 1.351 . S
C985 C979 1.428 . S
C985 N984 1.351 . S
C985 C986 1.434 . S
C986 C977 1.429 . S
C986 N983 1.350 . S
C986 C985 1.434 . S
C987 C988 1.369 . S
C987 C989 1.419 . S
C987 H991 0.930 . S
C988 C987 1.369 . S
C988 C997 1.429 . S
C989 C987 1.419 . S
C989 C990 1.363 . S
C989 H992 0.929 . S
C990 C989 1.363 . S
C990 C996 1.428 . S
H991 C987 0.930 . S
H992 C989 0.929 . S
S993 N994 1.613 . S
S993 N995 1.610 . S
N994 S993 1.613 . S
N994 C997 1.350 . S
N995 S993 1.610 . S
N995 C996 1.351 . S
C996 C990 1.428 . S
C996 N995 1.351 . S
C996 C997 1.434 . S
C997 C988 1.429 . S
C997 N994 1.350 . S
C997 C996 1.434 . S
C998 C999 1.369 . S
C998 C1000 1.419 . S
C998 H1002 0.930 . S
C999 C998 1.369 . S
C999 C1008 1.429 . S
C1000 C998 1.419 . S
C1000 C1001 1.363 . S
C1000 H1003 0.929 . S
C1001 C1000 1.363 . S
C1001 C1007 1.428 . S
H1002 C998 0.930 . S
H1003 C1000 0.929 . S
S1004 N1005 1.613 . S
S1004 N1006 1.610 . S
N1005 S1004 1.613 . S
N1005 C1008 1.350 . S
N1006 S1004 1.610 . S
N1006 C1007 1.351 . S
C1007 C1001 1.428 . S
C1007 N1006 1.351 . S
C1007 C1008 1.434 . S
C1008 C999 1.429 . S
C1008 N1005 1.350 . S
C1008 C1007 1.434 . S
C1009 C1010 1.369 . S
C1009 C1011 1.419 . S
C1009 H1013 0.930 . S
C1010 C1009 1.369 . S
C1010 C1019 1.429 . S
C1011 C1009 1.419 . S
C1011 C1012 1.363 . S
C1011 H1014 0.929 . S
C1012 C1011 1.363 . S
C1012 C1018 1.428 . S
H1013 C1009 0.930 . S
H1014 C1011 0.929 . S
S1015 N1016 1.613 1_554 S
S1015 N1017 1.610 . S
N1016 S1015 1.613 1_556 S
N1016 C1019 1.350 . S
N1017 S1015 1.610 . S
N1017 C1018 1.351 1_554 S
C1018 C1012 1.428 . S
C1018 N1017 1.351 1_556 S
C1018 C1019 1.434 . S
C1019 C1010 1.429 . S
C1019 N1016 1.350 . S
C1019 C1018 1.434 . S
C1020 C1021 1.369 . S
C1020 C1022 1.419 . S
C1020 H1024 0.930 . S
C1021 C1020 1.369 . S
C1021 C1030 1.429 . S
C1022 C1020 1.419 . S
C1022 C1023 1.363 . S
C1022 H1025 0.929 . S
C1023 C1022 1.363 . S
C1023 C1029 1.428 . S
H1024 C1020 0.930 . S
H1025 C1022 0.929 . S
S1026 N1027 1.613 . S
S1026 N1028 1.610 1_556 S
N1027 S1026 1.613 . S
N1027 C1030 1.350 1_556 S
N1028 S1026 1.610 1_554 S
N1028 C1029 1.351 . S
C1029 C1023 1.428 . S
C1029 N1028 1.351 . S
C1029 C1030 1.434 . S
C1030 C1021 1.429 . S
C1030 N1027 1.350 1_554 S
C1030 C1029 1.434 . S
C1031 C1032 1.369 . S
C1031 C1033 1.419 . S
C1031 H1035 0.930 . S
C1032 C1031 1.369 . S
C1032 C1041 1.429 . S
C1033 C1031 1.419 . S
C1033 C1034 1.363 . S
C1033 H1036 0.929 . S
C1034 C1033 1.363 . S
C1034 C1040 1.428 . S
H1035 C1031 0.930 . S
H1036 C1033 0.929 . S
S1037 N1038 1.613 . S
S1037 N1039 1.610 . S
N1038 S1037 1.613 . S
N1038 C1041 1.350 . S
N1039 S1037 1.610 . S
N1039 C1040 1.351 . S
C1040 C1034 1.428 . S
C1040 N1039 1.351 . S
C1040 C1041 1.434 . S
C1041 C1032 1.429 . S
C1041 N1038 1.350 . S
C1041 C1040 1.434 . S
C1042 C1043 1.369 . S
C1042 C1044 1.419 . S
C1042 H1046 0.930 . S
C1043 C1042 1.369 . S
C1043 C1052 1.429 . S
C1044 C1042 1.419 . S
C1044 C1045 1.363 . S
C1044 H1047 0.929 . S
C1045 C1044 1.363 . S
C1045 C1051 1.428 . S
H1046 C1042 0.930 . S
H1047 C1044 0.929 . S
S1048 N1049 1.613 . S
S1048 N1050 1.610 . S
N1049 S1048 1.613 . S
N1049 C1052 1.350 . S
N1050 S1048 1.610 . S
N1050 C1051 1.351 . S
C1051 C1045 1.428 . S
C1051 N1050 1.351 . S
C1051 C1052 1.434 . S
C1052 C1043 1.429 . S
C1052 N1049 1.350 . S
C1052 C1051 1.434 . S
C1053 C1054 1.369 . S
C1053 C1055 1.419 . S
C1053 H1057 0.930 . S
C1054 C1053 1.369 . S
C1054 C1063 1.429 . S
C1055 C1053 1.419 . S
C1055 C1056 1.363 . S
C1055 H1058 0.929 . S
C1056 C1055 1.363 . S
C1056 C1062 1.428 . S
H1057 C1053 0.930 . S
H1058 C1055 0.929 . S
S1059 N1060 1.613 . S
S1059 N1061 1.610 . S
N1060 S1059 1.613 . S
N1060 C1063 1.350 . S
N1061 S1059 1.610 . S
N1061 C1062 1.351 . S
C1062 C1056 1.428 . S
C1062 N1061 1.351 . S
C1062 C1063 1.434 . S
C1063 C1054 1.429 . S
C1063 N1060 1.350 . S
C1063 C1062 1.434 . S
C1064 C1065 1.369 . S
C1064 C1066 1.419 . S
C1064 H1068 0.930 . S
C1065 C1064 1.369 . S
C1065 C1074 1.429 . S
C1066 C1064 1.419 . S
C1066 C1067 1.363 . S
C1066 H1069 0.929 . S
C1067 C1066 1.363 . S
C1067 C1073 1.428 . S
H1068 C1064 0.930 . S
H1069 C1066 0.929 . S
S1070 N1071 1.613 . S
S1070 N1072 1.610 . S
N1071 S1070 1.613 . S
N1071 C1074 1.350 . S
N1072 S1070 1.610 . S
N1072 C1073 1.351 . S
C1073 C1067 1.428 . S
C1073 N1072 1.351 . S
C1073 C1074 1.434 . S
C1074 C1065 1.429 . S
C1074 N1071 1.350 . S
C1074 C1073 1.434 . S
C1075 C1076 1.369 . S
C1075 C1077 1.419 . S
C1075 H1079 0.930 . S
C1076 C1075 1.369 . S
C1076 C1085 1.429 . S
C1077 C1075 1.419 . S
C1077 C1078 1.363 . S
C1077 H1080 0.929 . S
C1078 C1077 1.363 . S
C1078 C1084 1.428 . S
H1079 C1075 0.930 . S
H1080 C1077 0.929 . S
S1081 N1082 1.613 . S
S1081 N1083 1.610 . S
N1082 S1081 1.613 . S
N1082 C1085 1.350 . S
N1083 S1081 1.610 . S
N1083 C1084 1.351 . S
C1084 C1078 1.428 . S
C1084 N1083 1.351 . S
C1084 C1085 1.434 . S
C1085 C1076 1.429 . S
C1085 N1082 1.350 . S
C1085 C1084 1.434 . S
C1086 C1087 1.369 . S
C1086 C1088 1.419 . S
C1086 H1090 0.930 . S
C1087 C1086 1.369 . S
C1087 C1096 1.429 . S
C1088 C1086 1.419 . S
C1088 C1089 1.363 . S
C1088 H1091 0.929 . S
C1089 C1088 1.363 . S
C1089 C1095 1.428 . S
H1090 C1086 0.930 . S
H1091 C1088 0.929 . S
S1092 N1093 1.613 . S
S1092 N1094 1.610 . S
N1093 S1092 1.613 . S
N1093 C1096 1.350 . S
N1094 S1092 1.610 . S
N1094 C1095 1.351 . S
C1095 C1089 1.428 . S
C1095 N1094 1.351 . S
C1095 C1096 1.434 . S
C1096 C1087 1.429 . S
C1096 N1093 1.350 . S
C1096 C1095 1.434 . S
C1097 C1098 1.369 . S
C1097 C1099 1.419 . S
C1097 H1101 0.930 . S
C1098 C1097 1.369 . S
C1098 C1107 1.429 . S
C1099 C1097 1.419 . S
C1099 C1100 1.363 . S
C1099 H1102 0.929 . S
C1100 C1099 1.363 . S
C1100 C1106 1.428 . S
H1101 C1097 0.930 . S
H1102 C1099 0.929 . S
S1103 N1104 1.613 . S
S1103 N1105 1.610 . S
N1104 S1103 1.613 . S
N1104 C1107 1.350 . S
N1105 S1103 1.610 . S
N1105 C1106 1.351 . S
C1106 C1100 1.428 . S
C1106 N1105 1.351 . S
C1106 C1107 1.434 . S
C1107 C1098 1.429 . S
C1107 N1104 1.350 . S
C1107 C1106 1.434 . S
C1108 C1109 1.369 . S
C1108 C1110 1.419 . S
C1108 H1112 0.930 . S
C1109 C1108 1.369 . S
C1109 C1118 1.429 . S
C1110 C1108 1.419 . S
C1110 C1111 1.363 . S
C1110 H1113 0.929 . S
C1111 C1110 1.363 . S
C1111 C1117 1.428 . S
H1112 C1108 0.930 . S
H1113 C1110 0.929 . S
S1114 N1115 1.613 1_655 S
S1114 N1116 1.610 . S
N1115 S1114 1.613 1_455 S
N1115 C1118 1.350 . S
N1116 S1114 1.610 . S
N1116 C1117 1.351 1_655 S
C1117 C1111 1.428 . S
C1117 N1116 1.351 1_455 S
C1117 C1118 1.434 . S
C1118 C1109 1.429 . S
C1118 N1115 1.350 . S
C1118 C1117 1.434 . S
C1119 C1120 1.369 . S
C1119 C1121 1.419 . S
C1119 H1123 0.930 . S
C1120 C1119 1.369 . S
C1120 C1129 1.429 . S
C1121 C1119 1.419 . S
C1121 C1122 1.363 . S
C1121 H1124 0.929 . S
C1122 C1121 1.363 . S
C1122 C1128 1.428 . S
H1123 C1119 0.930 . S
H1124 C1121 0.929 . S
S1125 N1126 1.613 . S
S1125 N1127 1.610 . S
N1126 S1125 1.613 . S
N1126 C1129 1.350 . S
N1127 S1125 1.610 . S
N1127 C1128 1.351 . S
C1128 C1122 1.428 . S
C1128 N1127 1.351 . S
C1128 C1129 1.434 . S
C1129 C1120 1.429 . S
C1129 N1126 1.350 . S
C1129 C1128 1.434 . S
C1130 C1131 1.369 . S
C1130 C1132 1.419 . S
C1130 H1134 0.930 . S
C1131 C1130 1.369 . S
C1131 C1140 1.429 . S
C1132 C1130 1.419 . S
C1132 C1133 1.363 . S
C1132 H1135 0.929 . S
C1133 C1132 1.363 . S
C1133 C1139 1.428 . S
H1134 C1130 0.930 . S
H1135 C1132 0.929 . S
S1136 N1137 1.613 . S
S1136 N1138 1.610 . S
N1137 S1136 1.613 . S
N1137 C1140 1.350 . S
N1138 S1136 1.610 . S
N1138 C1139 1.351 . S
C1139 C1133 1.428 . S
C1139 N1138 1.351 . S
C1139 C1140 1.434 . S
C1140 C1131 1.429 . S
C1140 N1137 1.350 . S
C1140 C1139 1.434 . S
C1141 C1142 1.369 . S
C1141 C1143 1.419 . S
C1141 H1145 0.930 . S
C1142 C1141 1.369 . S
C1142 C1151 1.429 . S
C1143 C1141 1.419 . S
C1143 C1144 1.363 . S
C1143 H1146 0.929 . S
C1144 C1143 1.363 . S
C1144 C1150 1.428 . S
H1145 C1141 0.930 . S
H1146 C1143 0.929 . S
S1147 N1148 1.613 . S
S1147 N1149 1.610 . S
N1148 S1147 1.613 . S
N1148 C1151 1.350 . S
N1149 S1147 1.610 . S
N1149 C1150 1.351 . S
C1150 C1144 1.428 . S
C1150 N1149 1.351 . S
C1150 C1151 1.434 . S
C1151 C1142 1.429 . S
C1151 N1148 1.350 . S
C1151 C1150 1.434 . S
C1152 C1153 1.369 . S
C1152 C1154 1.419 . S
C1152 H1156 0.930 . S
C1153 C1152 1.369 . S
C1153 C1162 1.429 . S
C1154 C1152 1.419 . S
C1154 C1155 1.363 . S
C1154 H1157 0.929 . S
C1155 C1154 1.363 . S
C1155 C1161 1.428 . S
H1156 C1152 0.930 . S
H1157 C1154 0.929 . S
S1158 N1159 1.613 . S
S1158 N1160 1.610 . S
N1159 S1158 1.613 . S
N1159 C1162 1.350 . S
N1160 S1158 1.610 . S
N1160 C1161 1.351 . S
C1161 C1155 1.428 . S
C1161 N1160 1.351 . S
C1161 C1162 1.434 . S
C1162 C1153 1.429 . S
C1162 N1159 1.350 . S
C1162 C1161 1.434 . S
C1163 C1164 1.369 . S
C1163 C1165 1.419 . S
C1163 H1167 0.930 . S
C1164 C1163 1.369 . S
C1164 C1173 1.429 . S
C1165 C1163 1.419 . S
C1165 C1166 1.363 . S
C1165 H1168 0.929 . S
C1166 C1165 1.363 . S
C1166 C1172 1.428 . S
H1167 C1163 0.930 . S
H1168 C1165 0.929 . S
S1169 N1170 1.613 . S
S1169 N1171 1.610 . S
N1170 S1169 1.613 . S
N1170 C1173 1.350 . S
N1171 S1169 1.610 . S
N1171 C1172 1.351 . S
C1172 C1166 1.428 . S
C1172 N1171 1.351 . S
C1172 C1173 1.434 . S
C1173 C1164 1.429 . S
C1173 N1170 1.350 . S
C1173 C1172 1.434 . S
C1174 C1175 1.369 . S
C1174 C1176 1.419 . S
C1174 H1178 0.930 . S
C1175 C1174 1.369 . S
C1175 C1184 1.429 . S
C1176 C1174 1.419 . S
C1176 C1177 1.363 . S
C1176 H1179 0.929 . S
C1177 C1176 1.363 . S
C1177 C1183 1.428 . S
H1178 C1174 0.930 . S
H1179 C1176 0.929 . S
S1180 N1181 1.613 . S
S1180 N1182 1.610 . S
N1181 S1180 1.613 . S
N1181 C1184 1.350 . S
N1182 S1180 1.610 . S
N1182 C1183 1.351 . S
C1183 C1177 1.428 . S
C1183 N1182 1.351 . S
C1183 C1184 1.434 . S
C1184 C1175 1.429 . S
C1184 N1181 1.350 . S
C1184 C1183 1.434 . S
C1185 C1186 1.369 . S
C1185 C1187 1.419 . S
C1185 H1189 0.930 . S
C1186 C1185 1.369 . S
C1186 C1195 1.429 . S
C1187 C1185 1.419 . S
C1187 C1188 1.363 . S
C1187 H1190 0.929 . S
C1188 C1187 1.363 . S
C1188 C1194 1.428 . S
H1189 C1185 0.930 . S
H1190 C1187 0.929 . S
S1191 N1192 1.613 . S
S1191 N1193 1.610 . S
N1192 S1191 1.613 . S
N1192 C1195 1.350 . S
N1193 S1191 1.610 . S
N1193 C1194 1.351 . S
C1194 C1188 1.428 . S
C1194 N1193 1.351 . S
C1194 C1195 1.434 . S
C1195 C1186 1.429 . S
C1195 N1192 1.350 . S
C1195 C1194 1.434 . S
C1196 C1197 1.369 . S
C1196 C1198 1.419 . S
C1196 H1200 0.930 . S
C1197 C1196 1.369 . S
C1197 C1206 1.429 . S
C1198 C1196 1.419 . S
C1198 C1199 1.363 . S
C1198 H1201 0.929 . S
C1199 C1198 1.363 . S
C1199 C1205 1.428 . S
H1200 C1196 0.930 . S
H1201 C1198 0.929 . S
S1202 N1203 1.613 . S
S1202 N1204 1.610 . S
N1203 S1202 1.613 . S
N1203 C1206 1.350 . S
N1204 S1202 1.610 . S
N1204 C1205 1.351 . S
C1205 C1199 1.428 . S
C1205 N1204 1.351 . S
C1205 C1206 1.434 . S
C1206 C1197 1.429 . S
C1206 N1203 1.350 . S
C1206 C1205 1.434 . S
C1207 C1208 1.369 . S
C1207 C1209 1.419 . S
C1207 H1211 0.930 . S
C1208 C1207 1.369 . S
C1208 C1217 1.429 . S
C1209 C1207 1.419 . S
C1209 C1210 1.363 . S
C1209 H1212 0.929 . S
C1210 C1209 1.363 . S
C1210 C1216 1.428 . S
H1211 C1207 0.930 . S
H1212 C1209 0.929 . S
S1213 N1214 1.613 . S
S1213 N1215 1.610 . S
N1214 S1213 1.613 . S
N1214 C1217 1.350 . S
N1215 S1213 1.610 . S
N1215 C1216 1.351 . S
C1216 C1210 1.428 . S
C1216 N1215 1.351 . S
C1216 C1217 1.434 . S
C1217 C1208 1.429 . S
C1217 N1214 1.350 . S
C1217 C1216 1.434 . S
C1218 C1219 1.369 . S
C1218 C1220 1.419 . S
C1218 H1222 0.930 . S
C1219 C1218 1.369 . S
C1219 C1228 1.429 . S
C1220 C1218 1.419 . S
C1220 C1221 1.363 . S
C1220 H1223 0.929 . S
C1221 C1220 1.363 . S
C1221 C1227 1.428 . S
H1222 C1218 0.930 . S
H1223 C1220 0.929 . S
S1224 N1225 1.613 . S
S1224 N1226 1.610 . S
N1225 S1224 1.613 . S
N1225 C1228 1.350 . S
N1226 S1224 1.610 . S
N1226 C1227 1.351 . S
C1227 C1221 1.428 . S
C1227 N1226 1.351 . S
C1227 C1228 1.434 . S
C1228 C1219 1.429 . S
C1228 N1225 1.350 . S
C1228 C1227 1.434 . S
C1229 C1230 1.369 . S
C1229 C1231 1.419 . S
C1229 H1233 0.930 . S
C1230 C1229 1.369 . S
C1230 C1239 1.429 . S
C1231 C1229 1.419 . S
C1231 C1232 1.363 . S
C1231 H1234 0.929 . S
C1232 C1231 1.363 . S
C1232 C1238 1.428 . S
H1233 C1229 0.930 . S
H1234 C1231 0.929 . S
S1235 N1236 1.613 . S
S1235 N1237 1.610 . S
N1236 S1235 1.613 . S
N1236 C1239 1.350 . S
N1237 S1235 1.610 . S
N1237 C1238 1.351 . S
C1238 C1232 1.428 . S
C1238 N1237 1.351 . S
C1238 C1239 1.434 . S
C1239 C1230 1.429 . S
C1239 N1236 1.350 . S
C1239 C1238 1.434 . S
C1240 C1241 1.369 . S
C1240 C1242 1.419 . S
C1240 H1244 0.930 . S
C1241 C1240 1.369 . S
C1241 C1250 1.429 . S
C1242 C1240 1.419 . S
C1242 C1243 1.363 . S
C1242 H1245 0.929 . S
C1243 C1242 1.363 . S
C1243 C1249 1.428 . S
H1244 C1240 0.930 . S
H1245 C1242 0.929 . S
S1246 N1247 1.613 . S
S1246 N1248 1.610 . S
N1247 S1246 1.613 . S
N1247 C1250 1.350 . S
N1248 S1246 1.610 . S
N1248 C1249 1.351 . S
C1249 C1243 1.428 . S
C1249 N1248 1.351 . S
C1249 C1250 1.434 . S
C1250 C1241 1.429 . S
C1250 N1247 1.350 . S
C1250 C1249 1.434 . S
C1251 C1252 1.369 . S
C1251 C1253 1.419 . S
C1251 H1255 0.930 . S
C1252 C1251 1.369 . S
C1252 C1261 1.429 . S
C1253 C1251 1.419 . S
C1253 C1254 1.363 . S
C1253 H1256 0.929 . S
C1254 C1253 1.363 . S
C1254 C1260 1.428 . S
H1255 C1251 0.930 . S
H1256 C1253 0.929 . S
S1257 N1258 1.613 . S
S1257 N1259 1.610 . S
N1258 S1257 1.613 . S
N1258 C1261 1.350 . S
N1259 S1257 1.610 . S
N1259 C1260 1.351 . S
C1260 C1254 1.428 . S
C1260 N1259 1.351 . S
C1260 C1261 1.434 . S
C1261 C1252 1.429 . S
C1261 N1258 1.350 . S
C1261 C1260 1.434 . S
C1262 C1263 1.369 . S
C1262 C1264 1.419 . S
C1262 H1266 0.930 . S
C1263 C1262 1.369 . S
C1263 C1272 1.429 . S
C1264 C1262 1.419 . S
C1264 C1265 1.363 . S
C1264 H1267 0.929 . S
C1265 C1264 1.363 . S
C1265 C1271 1.428 . S
H1266 C1262 0.930 . S
H1267 C1264 0.929 . S
S1268 N1269 1.613 . S
S1268 N1270 1.610 . S
N1269 S1268 1.613 . S
N1269 C1272 1.350 . S
N1270 S1268 1.610 . S
N1270 C1271 1.351 . S
C1271 C1265 1.428 . S
C1271 N1270 1.351 . S
C1271 C1272 1.434 . S
C1272 C1263 1.429 . S
C1272 N1269 1.350 . S
C1272 C1271 1.434 . S
C1273 C1274 1.369 . S
C1273 C1275 1.419 . S
C1273 H1277 0.930 . S
C1274 C1273 1.369 . S
C1274 C1283 1.429 . S
C1275 C1273 1.419 . S
C1275 C1276 1.363 . S
C1275 H1278 0.929 . S
C1276 C1275 1.363 . S
C1276 C1282 1.428 . S
H1277 C1273 0.930 . S
H1278 C1275 0.929 . S
S1279 N1280 1.613 . S
S1279 N1281 1.610 . S
N1280 S1279 1.613 . S
N1280 C1283 1.350 . S
N1281 S1279 1.610 . S
N1281 C1282 1.351 . S
C1282 C1276 1.428 . S
C1282 N1281 1.351 . S
C1282 C1283 1.434 . S
C1283 C1274 1.429 . S
C1283 N1280 1.350 . S
C1283 C1282 1.434 . S
C1284 C1285 1.369 . S
C1284 C1286 1.419 . S
C1284 H1288 0.930 . S
C1285 C1284 1.369 . S
C1285 C1294 1.429 . S
C1286 C1284 1.419 . S
C1286 C1287 1.363 . S
C1286 H1289 0.929 . S
C1287 C1286 1.363 . S
C1287 C1293 1.428 . S
H1288 C1284 0.930 . S
H1289 C1286 0.929 . S
S1290 N1291 1.613 1_565 S
S1290 N1292 1.610 . S
N1291 S1290 1.613 1_545 S
N1291 C1294 1.350 1_545 S
N1292 S1290 1.610 . S
N1292 C1293 1.351 . S
C1293 C1287 1.428 . S
C1293 N1292 1.351 . S
C1293 C1294 1.434 . S
C1294 C1285 1.429 . S
C1294 N1291 1.350 1_565 S
C1294 C1293 1.434 . S
C1295 C1296 1.369 . S
C1295 C1297 1.419 . S
C1295 H1299 0.930 . S
C1296 C1295 1.369 . S
C1296 C1305 1.429 . S
C1297 C1295 1.419 . S
C1297 C1298 1.363 . S
C1297 H1300 0.929 . S
C1298 C1297 1.363 . S
C1298 C1304 1.428 . S
H1299 C1295 0.930 . S
H1300 C1297 0.929 . S
S1301 N1302 1.613 . S
S1301 N1303 1.610 . S
N1302 S1301 1.613 . S
N1302 C1305 1.350 . S
N1303 S1301 1.610 . S
N1303 C1304 1.351 . S
C1304 C1298 1.428 . S
C1304 N1303 1.351 . S
C1304 C1305 1.434 . S
C1305 C1296 1.429 . S
C1305 N1302 1.350 . S
C1305 C1304 1.434 . S
C1306 C1307 1.369 . S
C1306 C1308 1.419 . S
C1306 H1310 0.930 . S
C1307 C1306 1.369 . S
C1307 C1316 1.429 . S
C1308 C1306 1.419 . S
C1308 C1309 1.363 . S
C1308 H1311 0.929 . S
C1309 C1308 1.363 . S
C1309 C1315 1.428 . S
H1310 C1306 0.930 . S
H1311 C1308 0.929 . S
S1312 N1313 1.613 . S
S1312 N1314 1.610 . S
N1313 S1312 1.613 . S
N1313 C1316 1.350 . S
N1314 S1312 1.610 . S
N1314 C1315 1.351 . S
C1315 C1309 1.428 . S
C1315 N1314 1.351 . S
C1315 C1316 1.434 . S
C1316 C1307 1.429 . S
C1316 N1313 1.350 . S
C1316 C1315 1.434 . S
C1317 C1318 1.369 . S
C1317 C1319 1.419 . S
C1317 H1321 0.930 . S
C1318 C1317 1.369 . S
C1318 C1327 1.429 . S
C1319 C1317 1.419 . S
C1319 C1320 1.363 . S
C1319 H1322 0.929 . S
C1320 C1319 1.363 . S
C1320 C1326 1.428 . S
H1321 C1317 0.930 . S
H1322 C1319 0.929 . S
S1323 N1324 1.613 . S
S1323 N1325 1.610 . S
N1324 S1323 1.613 . S
N1324 C1327 1.350 . S
N1325 S1323 1.610 . S
N1325 C1326 1.351 . S
C1326 C1320 1.428 . S
C1326 N1325 1.351 . S
C1326 C1327 1.434 . S
C1327 C1318 1.429 . S
C1327 N1324 1.350 . S
C1327 C1326 1.434 . S
C1328 C1329 1.369 . S
C1328 C1330 1.419 . S
C1328 H1332 0.930 . S
C1329 C1328 1.369 . S
C1329 C1338 1.429 . S
C1330 C1328 1.419 . S
C1330 C1331 1.363 . S
C1330 H1333 0.929 . S
C1331 C1330 1.363 . S
C1331 C1337 1.428 . S
H1332 C1328 0.930 . S
H1333 C1330 0.929 . S
S1334 N1335 1.613 . S
S1334 N1336 1.610 . S
N1335 S1334 1.613 . S
N1335 C1338 1.350 . S
N1336 S1334 1.610 . S
N1336 C1337 1.351 . S
C1337 C1331 1.428 . S
C1337 N1336 1.351 . S
C1337 C1338 1.434 . S
C1338 C1329 1.429 . S
C1338 N1335 1.350 . S
C1338 C1337 1.434 . S
C1339 C1340 1.369 . S
C1339 C1341 1.419 . S
C1339 H1343 0.930 . S
C1340 C1339 1.369 . S
C1340 C1349 1.429 . S
C1341 C1339 1.419 . S
C1341 C1342 1.363 . S
C1341 H1344 0.929 . S
C1342 C1341 1.363 . S
C1342 C1348 1.428 . S
H1343 C1339 0.930 . S
H1344 C1341 0.929 . S
S1345 N1346 1.613 . S
S1345 N1347 1.610 . S
N1346 S1345 1.613 . S
N1346 C1349 1.350 . S
N1347 S1345 1.610 . S
N1347 C1348 1.351 . S
C1348 C1342 1.428 . S
C1348 N1347 1.351 . S
C1348 C1349 1.434 . S
C1349 C1340 1.429 . S
C1349 N1346 1.350 . S
C1349 C1348 1.434 . S
C1350 C1351 1.369 . S
C1350 C1352 1.419 . S
C1350 H1354 0.930 . S
C1351 C1350 1.369 . S
C1351 C1360 1.429 . S
C1352 C1350 1.419 . S
C1352 C1353 1.363 . S
C1352 H1355 0.929 . S
C1353 C1352 1.363 . S
C1353 C1359 1.428 . S
H1354 C1350 0.930 . S
H1355 C1352 0.929 . S
S1356 N1357 1.613 . S
S1356 N1358 1.610 . S
N1357 S1356 1.613 . S
N1357 C1360 1.350 . S
N1358 S1356 1.610 . S
N1358 C1359 1.351 . S
C1359 C1353 1.428 . S
C1359 N1358 1.351 . S
C1359 C1360 1.434 . S
C1360 C1351 1.429 . S
C1360 N1357 1.350 . S
C1360 C1359 1.434 . S
C1361 C1362 1.369 . S
C1361 C1363 1.419 . S
C1361 H1365 0.930 . S
C1362 C1361 1.369 . S
C1362 C1371 1.429 . S
C1363 C1361 1.419 . S
C1363 C1364 1.363 . S
C1363 H1366 0.929 . S
C1364 C1363 1.363 . S
C1364 C1370 1.428 . S
H1365 C1361 0.930 . S
H1366 C1363 0.929 . S
S1367 N1368 1.613 . S
S1367 N1369 1.610 . S
N1368 S1367 1.613 . S
N1368 C1371 1.350 . S
N1369 S1367 1.610 . S
N1369 C1370 1.351 . S
C1370 C1364 1.428 . S
C1370 N1369 1.351 . S
C1370 C1371 1.434 . S
C1371 C1362 1.429 . S
C1371 N1368 1.350 . S
C1371 C1370 1.434 . S
C1372 C1373 1.369 . S
C1372 C1374 1.419 . S
C1372 H1376 0.930 . S
C1373 C1372 1.369 . S
C1373 C1382 1.429 . S
C1374 C1372 1.419 . S
C1374 C1375 1.363 . S
C1374 H1377 0.929 . S
C1375 C1374 1.363 . S
C1375 C1381 1.428 . S
H1376 C1372 0.930 . S
H1377 C1374 0.929 . S
S1378 N1379 1.613 . S
S1378 N1380 1.610 . S
N1379 S1378 1.613 . S
N1379 C1382 1.350 . S
N1380 S1378 1.610 . S
N1380 C1381 1.351 . S
C1381 C1375 1.428 . S
C1381 N1380 1.351 . S
C1381 C1382 1.434 . S
C1382 C1373 1.429 . S
C1382 N1379 1.350 . S
C1382 C1381 1.434 . S
C1383 C1384 1.369 . S
C1383 C1385 1.419 . S
C1383 H1387 0.930 . S
C1384 C1383 1.369 . S
C1384 C1393 1.429 . S
C1385 C1383 1.419 . S
C1385 C1386 1.363 . S
C1385 H1388 0.929 . S
C1386 C1385 1.363 . S
C1386 C1392 1.428 . S
H1387 C1383 0.930 . S
H1388 C1385 0.929 . S
S1389 N1390 1.613 . S
S1389 N1391 1.610 . S
N1390 S1389 1.613 . S
N1390 C1393 1.350 . S
N1391 S1389 1.610 . S
N1391 C1392 1.351 . S
C1392 C1386 1.428 . S
C1392 N1391 1.351 . S
C1392 C1393 1.434 . S
C1393 C1384 1.429 . S
C1393 N1390 1.350 . S
C1393 C1392 1.434 . S
C1394 C1395 1.369 . S
C1394 C1396 1.419 . S
C1394 H1398 0.930 . S
C1395 C1394 1.369 . S
C1395 C1404 1.429 . S
C1396 C1394 1.419 . S
C1396 C1397 1.363 . S
C1396 H1399 0.929 . S
C1397 C1396 1.363 . S
C1397 C1403 1.428 . S
H1398 C1394 0.930 . S
H1399 C1396 0.929 . S
S1400 N1401 1.613 . S
S1400 N1402 1.610 . S
N1401 S1400 1.613 . S
N1401 C1404 1.350 . S
N1402 S1400 1.610 . S
N1402 C1403 1.351 . S
C1403 C1397 1.428 . S
C1403 N1402 1.351 . S
C1403 C1404 1.434 . S
C1404 C1395 1.429 . S
C1404 N1401 1.350 . S
C1404 C1403 1.434 . S
C1405 C1406 1.369 . S
C1405 C1407 1.419 . S
C1405 H1409 0.930 . S
C1406 C1405 1.369 . S
C1406 C1415 1.429 . S
C1407 C1405 1.419 . S
C1407 C1408 1.363 . S
C1407 H1410 0.929 . S
C1408 C1407 1.363 . S
C1408 C1414 1.428 . S
H1409 C1405 0.930 . S
H1410 C1407 0.929 . S
S1411 N1412 1.613 . S
S1411 N1413 1.610 . S
N1412 S1411 1.613 . S
N1412 C1415 1.350 . S
N1413 S1411 1.610 . S
N1413 C1414 1.351 . S
C1414 C1408 1.428 . S
C1414 N1413 1.351 . S
C1414 C1415 1.434 . S
C1415 C1406 1.429 . S
C1415 N1412 1.350 . S
C1415 C1414 1.434 . S
C1416 C1417 1.369 1_655 S
C1416 C1418 1.419 . S
C1416 H1420 0.930 . S
C1417 C1416 1.369 1_455 S
C1417 C1426 1.429 . S
C1418 C1416 1.419 . S
C1418 C1419 1.363 . S
C1418 H1421 0.929 . S
C1419 C1418 1.363 . S
C1419 C1425 1.428 1_655 S
H1420 C1416 0.930 . S
H1421 C1418 0.929 . S
S1422 N1423 1.613 . S
S1422 N1424 1.610 . S
N1423 S1422 1.613 . S
N1423 C1426 1.350 . S
N1424 S1422 1.610 . S
N1424 C1425 1.351 . S
C1425 C1419 1.428 1_455 S
C1425 N1424 1.351 . S
C1425 C1426 1.434 . S
C1426 C1417 1.429 . S
C1426 N1423 1.350 . S
C1426 C1425 1.434 . S
C1427 C1428 1.369 . S
C1427 C1429 1.419 . S
C1427 H1431 0.930 . S
C1428 C1427 1.369 . S
C1428 C1437 1.429 . S
C1429 C1427 1.419 . S
C1429 C1430 1.363 . S
C1429 H1432 0.929 . S
C1430 C1429 1.363 . S
C1430 C1436 1.428 . S
H1431 C1427 0.930 . S
H1432 C1429 0.929 . S
S1433 N1434 1.613 . S
S1433 N1435 1.610 . S
N1434 S1433 1.613 . S
N1434 C1437 1.350 . S
N1435 S1433 1.610 . S
N1435 C1436 1.351 . S
C1436 C1430 1.428 . S
C1436 N1435 1.351 . S
C1436 C1437 1.434 . S
C1437 C1428 1.429 . S
C1437 N1434 1.350 . S
C1437 C1436 1.434 . S
C1438 C1439 1.369 . S
C1438 C1440 1.419 . S
C1438 H1442 0.930 . S
C1439 C1438 1.369 . S
C1439 C1448 1.429 . S
C1440 C1438 1.419 . S
C1440 C1441 1.363 . S
C1440 H1443 0.929 . S
C1441 C1440 1.363 . S
C1441 C1447 1.428 . S
H1442 C1438 0.930 . S
H1443 C1440 0.929 . S
S1444 N1445 1.613 . S
S1444 N1446 1.610 . S
N1445 S1444 1.613 . S
N1445 C1448 1.350 . S
N1446 S1444 1.610 . S
N1446 C1447 1.351 . S
C1447 C1441 1.428 . S
C1447 N1446 1.351 . S
C1447 C1448 1.434 . S
C1448 C1439 1.429 . S
C1448 N1445 1.350 . S
C1448 C1447 1.434 . S
C1449 C1450 1.369 . S
C1449 C1451 1.419 . S
C1449 H1453 0.930 . S
C1450 C1449 1.369 . S
C1450 C1459 1.429 . S
C1451 C1449 1.419 . S
C1451 C1452 1.363 . S
C1451 H1454 0.929 . S
C1452 C1451 1.363 . S
C1452 C1458 1.428 . S
H1453 C1449 0.930 . S
H1454 C1451 0.929 . S
S1455 N1456 1.613 . S
S1455 N1457 1.610 1_554 S
N1456 S1455 1.613 . S
N1456 C1459 1.350 1_554 S
N1457 S1455 1.610 1_556 S
N1457 C1458 1.351 . S
C1458 C1452 1.428 . S
C1458 N1457 1.351 . S
C1458 C1459 1.434 . S
C1459 C1450 1.429 . S
C1459 N1456 1.350 1_556 S
C1459 C1458 1.434 . S
C1460 C1461 1.369 . S
C1460 C1462 1.419 . S
C1460 H1464 0.930 . S
C1461 C1460 1.369 . S
C1461 C1470 1.429 . S
C1462 C1460 1.419 . S
C1462 C1463 1.363 . S
C1462 H1465 0.929 1_655 S
C1463 C1462 1.363 . S
C1463 C1469 1.428 . S
H1464 C1460 0.930 . S
H1465 C1462 0.929 1_455 S
S1466 N1467 1.613 . S
S1466 N1468 1.610 . S
N1467 S1466 1.613 . S
N1467 C1470 1.350 . S
N1468 S1466 1.610 . S
N1468 C1469 1.351 . S
C1469 C1463 1.428 . S
C1469 N1468 1.351 . S
C1469 C1470 1.434 . S
C1470 C1461 1.429 . S
C1470 N1467 1.350 . S
C1470 C1469 1.434 . S
C1471 C1472 1.369 . S
C1471 C1473 1.419 . S
C1471 H1475 0.930 . S
C1472 C1471 1.369 . S
C1472 C1481 1.429 . S
C1473 C1471 1.419 . S
C1473 C1474 1.363 . S
C1473 H1476 0.929 . S
C1474 C1473 1.363 . S
C1474 C1480 1.428 . S
H1475 C1471 0.930 . S
H1476 C1473 0.929 . S
S1477 N1478 1.613 . S
S1477 N1479 1.610 . S
N1478 S1477 1.613 . S
N1478 C1481 1.350 . S
N1479 S1477 1.610 . S
N1479 C1480 1.351 . S
C1480 C1474 1.428 . S
C1480 N1479 1.351 . S
C1480 C1481 1.434 . S
C1481 C1472 1.429 . S
C1481 N1478 1.350 . S
C1481 C1480 1.434 . S
C1482 C1483 1.369 . S
C1482 C1484 1.419 . S
C1482 H1486 0.930 . S
C1483 C1482 1.369 . S
C1483 C1492 1.429 . S
C1484 C1482 1.419 . S
C1484 C1485 1.363 . S
C1484 H1487 0.929 . S
C1485 C1484 1.363 . S
C1485 C1491 1.428 . S
H1486 C1482 0.930 . S
H1487 C1484 0.929 . S
S1488 N1489 1.613 . S
S1488 N1490 1.610 . S
N1489 S1488 1.613 . S
N1489 C1492 1.350 . S
N1490 S1488 1.610 . S
N1490 C1491 1.351 . S
C1491 C1485 1.428 . S
C1491 N1490 1.351 . S
C1491 C1492 1.434 . S
C1492 C1483 1.429 . S
C1492 N1489 1.350 . S
C1492 C1491 1.434 . S
C1493 C1494 1.369 . S
C1493 C1495 1.419 . S
C1493 H1497 0.930 . S
C1494 C1493 1.369 . S
C1494 C1503 1.429 . S
C1495 C1493 1.419 . S
C1495 C1496 1.363 . S
C1495 H1498 0.929 . S
C1496 C1495 1.363 . S
C1496 C1502 1.428 . S
H1497 C1493 0.930 . S
H1498 C1495 0.929 . S
S1499 N1500 1.613 . S
S1499 N1501 1.610 . S
N1500 S1499 1.613 . S
N1500 C1503 1.350 . S
N1501 S1499 1.610 . S
N1501 C1502 1.351 . S
C1502 C1496 1.428 . S
C1502 N1501 1.351 . S
C1502 C1503 1.434 . S
C1503 C1494 1.429 . S
C1503 N1500 1.350 . S
C1503 C1502 1.434 . S
C1504 C1505 1.369 1_545 S
C1504 C1506 1.419 . S
C1504 H1508 0.930 . S
C1505 C1504 1.369 1_565 S
C1505 C1514 1.429 . S
C1506 C1504 1.419 . S
C1506 C1507 1.363 . S
C1506 H1509 0.929 . S
C1507 C1506 1.363 . S
C1507 C1513 1.428 1_545 S
H1508 C1504 0.930 . S
H1509 C1506 0.929 . S
S1510 N1511 1.613 . S
S1510 N1512 1.610 . S
N1511 S1510 1.613 . S
N1511 C1514 1.350 . S
N1512 S1510 1.610 . S
N1512 C1513 1.351 . S
C1513 C1507 1.428 1_565 S
C1513 N1512 1.351 . S
C1513 C1514 1.434 . S
C1514 C1505 1.429 . S
C1514 N1511 1.350 . S
C1514 C1513 1.434 . S
C1515 C1516 1.369 . S
C1515 C1517 1.419 . S
C1515 H1519 0.930 . S
C1516 C1515 1.369 . S
C1516 C1525 1.429 . S
C1517 C1515 1.419 . S
C1517 C1518 1.363 . S
C1517 H1520 0.929 . S
C1518 C1517 1.363 . S
C1518 C1524 1.428 . S
H1519 C1515 0.930 . S
H1520 C1517 0.929 . S
S1521 N1522 1.613 1_545 S
S1521 N1523 1.610 . S
N1522 S1521 1.613 1_565 S
N1522 C1525 1.350 . S
N1523 S1521 1.610 . S
N1523 C1524 1.351 1_545 S
C1524 C1518 1.428 . S
C1524 N1523 1.351 1_565 S
C1524 C1525 1.434 . S
C1525 C1516 1.429 . S
C1525 N1522 1.350 . S
C1525 C1524 1.434 . S
C1526 C1527 1.369 . S
C1526 C1528 1.419 . S
C1526 H1530 0.930 . S
C1527 C1526 1.369 . S
C1527 C1536 1.429 . S
C1528 C1526 1.419 . S
C1528 C1529 1.363 . S
C1528 H1531 0.929 . S
C1529 C1528 1.363 . S
C1529 C1535 1.428 . S
H1530 C1526 0.930 . S
H1531 C1528 0.929 . S
S1532 N1533 1.613 . S
S1532 N1534 1.610 . S
N1533 S1532 1.613 . S
N1533 C1536 1.350 . S
N1534 S1532 1.610 . S
N1534 C1535 1.351 . S
C1535 C1529 1.428 . S
C1535 N1534 1.351 . S
C1535 C1536 1.434 . S
C1536 C1527 1.429 . S
C1536 N1533 1.350 . S
C1536 C1535 1.434 . S
C1537 C1538 1.369 . S
C1537 C1539 1.419 . S
C1537 H1541 0.930 . S
C1538 C1537 1.369 . S
C1538 C1547 1.429 . S
C1539 C1537 1.419 . S
C1539 C1540 1.363 . S
C1539 H1542 0.929 . S
C1540 C1539 1.363 . S
C1540 C1546 1.428 . S
H1541 C1537 0.930 . S
H1542 C1539 0.929 . S
S1543 N1544 1.613 . S
S1543 N1545 1.610 . S
N1544 S1543 1.613 . S
N1544 C1547 1.350 . S
N1545 S1543 1.610 . S
N1545 C1546 1.351 . S
C1546 C1540 1.428 . S
C1546 N1545 1.351 . S
C1546 C1547 1.434 . S
C1547 C1538 1.429 . S
C1547 N1544 1.350 . S
C1547 C1546 1.434 . S
C1548 C1549 1.369 1_556 S
C1548 C1550 1.419 . S
C1548 H1552 0.930 . S
C1549 C1548 1.369 1_554 S
C1549 C1558 1.429 . S
C1550 C1548 1.419 . S
C1550 C1551 1.363 . S
C1550 H1553 0.929 . S
C1551 C1550 1.363 . S
C1551 C1557 1.428 1_556 S
H1552 C1548 0.930 . S
H1553 C1550 0.929 . S
S1554 N1555 1.613 . S
S1554 N1556 1.610 . S
N1555 S1554 1.613 . S
N1555 C1558 1.350 . S
N1556 S1554 1.610 . S
N1556 C1557 1.351 . S
C1557 C1551 1.428 1_554 S
C1557 N1556 1.351 . S
C1557 C1558 1.434 . S
C1558 C1549 1.429 . S
C1558 N1555 1.350 . S
C1558 C1557 1.434 . S
C1559 C1560 1.369 . S
C1559 C1561 1.419 . S
C1559 H1563 0.930 . S
C1560 C1559 1.369 . S
C1560 C1569 1.429 . S
C1561 C1559 1.419 . S
C1561 C1562 1.363 . S
C1561 H1564 0.929 . S
C1562 C1561 1.363 . S
C1562 C1568 1.428 . S
H1563 C1559 0.930 . S
H1564 C1561 0.929 . S
S1565 N1566 1.613 . S
S1565 N1567 1.610 . S
N1566 S1565 1.613 . S
N1566 C1569 1.350 . S
N1567 S1565 1.610 . S
N1567 C1568 1.351 . S
C1568 C1562 1.428 . S
C1568 N1567 1.351 . S
C1568 C1569 1.434 . S
C1569 C1560 1.429 . S
C1569 N1566 1.350 . S
C1569 C1568 1.434 . S
C1570 C1571 1.369 . S
C1570 C1572 1.419 . S
C1570 H1574 0.930 . S
C1571 C1570 1.369 . S
C1571 C1580 1.429 . S
C1572 C1570 1.419 . S
C1572 C1573 1.363 . S
C1572 H1575 0.929 . S
C1573 C1572 1.363 . S
C1573 C1579 1.428 . S
H1574 C1570 0.930 . S
H1575 C1572 0.929 . S
S1576 N1577 1.613 . S
S1576 N1578 1.610 . S
N1577 S1576 1.613 . S
N1577 C1580 1.350 . S
N1578 S1576 1.610 . S
N1578 C1579 1.351 . S
C1579 C1573 1.428 . S
C1579 N1578 1.351 . S
C1579 C1580 1.434 . S
C1580 C1571 1.429 . S
C1580 N1577 1.350 . S
C1580 C1579 1.434 . S
C1581 C1582 1.369 . S
C1581 C1583 1.419 . S
C1581 H1585 0.930 . S
C1582 C1581 1.369 . S
C1582 C1591 1.429 . S
C1583 C1581 1.419 . S
C1583 C1584 1.363 . S
C1583 H1586 0.929 . S
C1584 C1583 1.363 . S
C1584 C1590 1.428 . S
H1585 C1581 0.930 . S
H1586 C1583 0.929 . S
S1587 N1588 1.613 . S
S1587 N1589 1.610 . S
N1588 S1587 1.613 . S
N1588 C1591 1.350 . S
N1589 S1587 1.610 . S
N1589 C1590 1.351 . S
C1590 C1584 1.428 . S
C1590 N1589 1.351 . S
C1590 C1591 1.434 . S
C1591 C1582 1.429 . S
C1591 N1588 1.350 . S
C1591 C1590 1.434 . S
C1592 C1593 1.369 . S
C1592 C1594 1.419 . S
C1592 H1596 0.930 . S
C1593 C1592 1.369 . S
C1593 C1602 1.429 . S
C1594 C1592 1.419 . S
C1594 C1595 1.363 . S
C1594 H1597 0.929 . S
C1595 C1594 1.363 . S
C1595 C1601 1.428 . S
H1596 C1592 0.930 . S
H1597 C1594 0.929 . S
S1598 N1599 1.613 . S
S1598 N1600 1.610 . S
N1599 S1598 1.613 . S
N1599 C1602 1.350 . S
N1600 S1598 1.610 . S
N1600 C1601 1.351 . S
C1601 C1595 1.428 . S
C1601 N1600 1.351 . S
C1601 C1602 1.434 . S
C1602 C1593 1.429 . S
C1602 N1599 1.350 . S
C1602 C1601 1.434 . S
C1603 C1604 1.369 . S
C1603 C1605 1.419 . S
C1603 H1607 0.930 . S
C1604 C1603 1.369 . S
C1604 C1613 1.429 . S
C1605 C1603 1.419 . S
C1605 C1606 1.363 . S
C1605 H1608 0.929 . S
C1606 C1605 1.363 . S
C1606 C1612 1.428 . S
H1607 C1603 0.930 . S
H1608 C1605 0.929 . S
S1609 N1610 1.613 . S
S1609 N1611 1.610 . S
N1610 S1609 1.613 . S
N1610 C1613 1.350 . S
N1611 S1609 1.610 . S
N1611 C1612 1.351 . S
C1612 C1606 1.428 . S
C1612 N1611 1.351 . S
C1612 C1613 1.434 . S
C1613 C1604 1.429 . S
C1613 N1610 1.350 . S
C1613 C1612 1.434 . S
C1614 C1615 1.369 . S
C1614 C1616 1.419 . S
C1614 H1618 0.930 . S
C1615 C1614 1.369 . S
C1615 C1624 1.429 . S
C1616 C1614 1.419 . S
C1616 C1617 1.363 . S
C1616 H1619 0.929 . S
C1617 C1616 1.363 . S
C1617 C1623 1.428 . S
H1618 C1614 0.930 . S
H1619 C1616 0.929 . S
S1620 N1621 1.613 . S
S1620 N1622 1.610 . S
N1621 S1620 1.613 . S
N1621 C1624 1.350 . S
N1622 S1620 1.610 . S
N1622 C1623 1.351 . S
C1623 C1617 1.428 . S
C1623 N1622 1.351 . S
C1623 C1624 1.434 . S
C1624 C1615 1.429 . S
C1624 N1621 1.350 . S
C1624 C1623 1.434 . S
C1625 C1626 1.369 . S
C1625 C1627 1.419 . S
C1625 H1629 0.930 . S
C1626 C1625 1.369 . S
C1626 C1635 1.429 . S
C1627 C1625 1.419 . S
C1627 C1628 1.363 . S
C1627 H1630 0.929 . S
C1628 C1627 1.363 . S
C1628 C1634 1.428 . S
H1629 C1625 0.930 . S
H1630 C1627 0.929 . S
S1631 N1632 1.613 . S
S1631 N1633 1.610 . S
N1632 S1631 1.613 . S
N1632 C1635 1.350 . S
N1633 S1631 1.610 . S
N1633 C1634 1.351 . S
C1634 C1628 1.428 . S
C1634 N1633 1.351 . S
C1634 C1635 1.434 . S
C1635 C1626 1.429 . S
C1635 N1632 1.350 . S
C1635 C1634 1.434 . S
C1636 C1637 1.369 . S
C1636 C1638 1.419 . S
C1636 H1640 0.930 . S
C1637 C1636 1.369 . S
C1637 C1646 1.429 . S
C1638 C1636 1.419 . S
C1638 C1639 1.363 . S
C1638 H1641 0.929 . S
C1639 C1638 1.363 . S
C1639 C1645 1.428 . S
H1640 C1636 0.930 . S
H1641 C1638 0.929 . S
S1642 N1643 1.613 . S
S1642 N1644 1.610 . S
N1643 S1642 1.613 . S
N1643 C1646 1.350 . S
N1644 S1642 1.610 . S
N1644 C1645 1.351 . S
C1645 C1639 1.428 . S
C1645 N1644 1.351 . S
C1645 C1646 1.434 . S
C1646 C1637 1.429 . S
C1646 N1643 1.350 . S
C1646 C1645 1.434 . S
C1647 C1648 1.369 . S
C1647 C1649 1.419 . S
C1647 H1651 0.930 . S
C1648 C1647 1.369 . S
C1648 C1657 1.429 . S
C1649 C1647 1.419 . S
C1649 C1650 1.363 . S
C1649 H1652 0.929 . S
C1650 C1649 1.363 . S
C1650 C1656 1.428 . S
H1651 C1647 0.930 . S
H1652 C1649 0.929 . S
S1653 N1654 1.613 . S
S1653 N1655 1.610 . S
N1654 S1653 1.613 . S
N1654 C1657 1.350 . S
N1655 S1653 1.610 . S
N1655 C1656 1.351 . S
C1656 C1650 1.428 . S
C1656 N1655 1.351 . S
C1656 C1657 1.434 . S
C1657 C1648 1.429 . S
C1657 N1654 1.350 . S
C1657 C1656 1.434 . S
C1658 C1659 1.369 . S
C1658 C1660 1.419 . S
C1658 H1662 0.930 . S
C1659 C1658 1.369 . S
C1659 C1668 1.429 . S
C1660 C1658 1.419 . S
C1660 C1661 1.363 . S
C1660 H1663 0.929 . S
C1661 C1660 1.363 . S
C1661 C1667 1.428 . S
H1662 C1658 0.930 . S
H1663 C1660 0.929 . S
S1664 N1665 1.613 . S
S1664 N1666 1.610 . S
N1665 S1664 1.613 . S
N1665 C1668 1.350 . S
N1666 S1664 1.610 . S
N1666 C1667 1.351 . S
C1667 C1661 1.428 . S
C1667 N1666 1.351 . S
C1667 C1668 1.434 . S
C1668 C1659 1.429 . S
C1668 N1665 1.350 . S
C1668 C1667 1.434 . S
C1669 C1670 1.369 . S
C1669 C1671 1.419 . S
C1669 H1673 0.930 . S
C1670 C1669 1.369 . S
C1670 C1679 1.429 . S
C1671 C1669 1.419 . S
C1671 C1672 1.363 . S
C1671 H1674 0.929 . S
C1672 C1671 1.363 . S
C1672 C1678 1.428 . S
H1673 C1669 0.930 . S
H1674 C1671 0.929 . S
S1675 N1676 1.613 . S
S1675 N1677 1.610 . S
N1676 S1675 1.613 . S
N1676 C1679 1.350 . S
N1677 S1675 1.610 . S
N1677 C1678 1.351 . S
C1678 C1672 1.428 . S
C1678 N1677 1.351 . S
C1678 C1679 1.434 . S
C1679 C1670 1.429 . S
C1679 N1676 1.350 . S
C1679 C1678 1.434 . S
C625 C10 1.179 . S
C627 C348 0.979 . S
C636 C361 0.895 1_655 S
C638 C23 1.044 . S
C647 C36 0.972 . S
C649 C322 0.963 . S
C658 C335 0.928 . S
C660 C49 0.985 . S
C669 C62 0.976 . S
C671 C400 0.925 . S
C680 C75 0.973 . S
C682 C413 0.959 . S
C691 C88 1.060 . S
C693 C374 0.924 . S
C702 C101 1.162 . S
C704 C387 0.975 . S
C713 C166 0.965 . S
C715 C114 1.172 . S
C724 C127 0.994 . S
C726 C179 0.948 . S
C735 C192 0.990 . S
C737 C140 0.939 . S
C746 C153 0.985 . S
C748 C205 1.170 . S
C757 C569 0.970 . S
C759 C218 1.173 . S
C768 C595 0.970 . S
C770 C231 0.929 . S
C779 C296 0.940 . S
C781 C244 0.998 . S
C790 C530 0.958 . S
C792 C257 0.961 . S
C801 C621 0.966 . S
C803 C270 1.167 . S
C812 C543 1.054 . S
C814 C283 0.936 . S
C823 C309 0.955 . S
C825 C582 0.963 . S
C834 C426 0.942 . S
C836 C478 0.964 . S
C845 C491 1.046 . S
C847 C439 0.889 1_556 S
C856 C452 1.064 . S
C858 C504 0.938 . S
C867 C517 0.949 . S
C869 C465 0.962 . S
C878 C556 0.896 1_565 S
C880 C608 1.044 . S
C889 C8 0.780 . S
C891 C99 0.778 . S
C900 C60 0.805 . S
C902 C21 0.805 . S
C911 C34 0.869 . S
C913 C73 0.873 . S
C922 C47 0.809 . S
C924 C86 0.816 . S
C933 C268 0.770 . S
C935 C112 0.770 . S
C944 C541 0.827 . S
C946 C125 0.824 . S
C955 C138 0.762 . S
C957 C554 0.766 . S
C966 C151 0.748 . S
C968 C567 0.737 . S
C977 C619 0.760 . S
C979 C164 0.749 . S
C988 C177 0.761 . S
C990 C281 0.750 . S
C999 C190 0.803 . S
C1001 C606 0.804 . S
C1010 C203 0.765 . S
C1012 C216 0.767 . S
C1021 C229 0.758 . S
C1023 C437 0.760 . S
C1032 C242 0.817 . S
C1034 C450 0.824 . S
C1043 C463 0.874 . S
C1045 C255 0.874 . S
C1054 C294 0.767 . S
C1056 C502 0.759 . S
C1065 C476 0.873 . S
C1067 C307 0.876 . S
C1076 C411 0.842 . S
C1078 C320 0.840 . S
C1087 C333 0.748 . S
C1089 C372 0.747 . S
C1098 C385 0.761 . S
C1100 C346 0.753 . S
C1109 C359 0.749 . S
C1111 C398 0.758 . S
C1120 C424 0.836 . S
C1122 C580 0.836 . S
C1131 C593 0.800 . S
C1133 C489 0.803 . S
C1142 C528 0.832 . S
C1144 C515 0.833 . S
C1153 C5 0.921 . S
C1155 C382 1.172 . S
C1164 C395 1.115 . S
C1166 C18 1.080 . S
C1175 C31 0.975 . S
C1177 C408 0.998 . S
C1186 C44 0.921 . S
C1188 C369 1.226 . S
C1197 C356 1.251 . S
C1199 C57 0.916 . S
C1208 C70 0.961 . S
C1210 C317 0.988 . S
C1219 C330 1.079 . S
C1221 C83 1.039 . S
C1230 C96 0.918 . S
C1232 C343 1.135 1_655 S
C1241 C616 1.175 . S
C1243 C109 0.932 . S
C1252 C122 0.947 . S
C1254 C278 1.231 . S
C1263 C135 1.118 . S
C1265 C603 1.083 . S
C1274 C213 0.941 . S
C1276 C148 1.177 . S
C1285 C161 1.128 1_565 S
C1287 C265 0.893 . S
C1296 C174 1.096 . S
C1298 C538 1.054 . S
C1307 C551 1.250 . S
C1309 C187 0.915 . S
C1318 C564 1.131 1_556 S
C1320 C200 0.899 . S
C1329 C486 1.089 . S
C1331 C226 1.121 . S
C1340 C499 1.226 . S
C1342 C239 0.929 . S
C1351 C512 1.007 . S
C1353 C252 0.979 . S
C1362 C291 1.077 . S
C1364 C447 1.038 . S
C1373 C421 0.994 . S
C1375 C304 0.970 . S
C1384 C434 1.251 . S
C1386 C590 0.914 . S
C1395 C460 0.952 . S
C1397 C525 0.980 . S
C1406 C577 0.986 . S
C1408 C473 0.961 . S
C1417 C0 1.352 . S
C1419 C286 1.425 . S
C1428 C13 1.357 . S
C1430 C520 1.374 . S
C1439 C299 1.359 . S
C1441 C26 1.361 . S
C1450 C585 1.521 . S
C1452 C39 1.518 . S
C1461 C234 1.524 . S
C1463 C52 1.518 . S
C1472 C247 1.353 . S
C1474 C65 1.365 . S
C1483 C78 1.361 . S
C1485 C572 1.370 . S
C1494 C91 1.358 . S
C1496 C221 1.424 . S
C1505 C169 1.427 . S
C1507 C104 1.350 . S
C1516 C117 1.515 . S
C1518 C182 1.522 . S
C1527 C195 1.353 . S
C1529 C130 1.426 . S
C1538 C156 1.686 . S
C1540 C143 1.699 . S
C1549 C208 1.353 . S
C1551 C325 1.425 . S
C1560 C390 1.423 . S
C1562 C260 1.358 . S
C1571 C351 1.608 . S
C1573 C273 1.611 . S
C1582 C312 1.381 . S
C1584 C598 1.349 . S
C1593 C611 1.691 . S
C1595 C338 1.691 . S
C1604 C546 1.601 . S
C1606 C364 1.617 . S
C1615 C559 1.693 . S
C1617 C377 1.693 . S
C1626 C533 1.352 . S
C1628 C403 1.378 . S
C1637 C481 1.344 . S
C1639 C416 1.382 . S
C1648 C494 1.616 . S
C1650 C429 1.603 . S
C1659 C442 1.361 . S
C1661 C507 1.369 . S
C1670 C455 1.356 . S
C1672 C468 1.362 . S
