# Generated by pormake.
# Topology pts-e, (5)-cn, num edge types: 1
# Building blocks:
#     Node 0, Type 0, BuildingBlock: XOMCOT_clean_sbu_0, # of connection points: 5
#     Node 1, Type 0, BuildingBlock: XOMCOT_clean_sbu_0, # of connection points: 5
#     Node 2, Type 0, BuildingBlock: XOMCOT_clean_sbu_0, # of connection points: 5
#     Node 3, Type 0, BuildingBlock: XOMCOT_clean_sbu_0, # of connection points: 5
#     Node 4, Type 0, BuildingBlock: XOMCOT_clean_sbu_0, # of connection points: 5
#     Node 5, Type 0, BuildingBlock: XOMCOT_clean_sbu_0, # of connection points: 5
#     Node 6, Type 0, BuildingBlock: XOMCOT_clean_sbu_0, # of connection points: 5
#     Node 7, Type 0, BuildingBlock: XOMCOT_clean_sbu_0, # of connection points: 5
#     Edge 8, Type (0, 0), BuildingBlock: AJUNOK_clean_linker_0, # of connection points: 2
#     Edge 9, Type (0, 0), BuildingBlock: AJUNOK_clean_linker_0, # of connection points: 2
#     Edge 10, Type (0, 0), BuildingBlock: AJUNOK_clean_linker_0, # of connection points: 2
#     Edge 11, Type (0, 0), BuildingBlock: AJUNOK_clean_linker_0, # of connection points: 2
#     Edge 12, Type (0, 0), BuildingBlock: AJUNOK_clean_linker_0, # of connection points: 2
#     Edge 13, Type (0, 0), BuildingBlock: AJUNOK_clean_linker_0, # of connection points: 2
#     Edge 14, Type (0, 0), BuildingBlock: AJUNOK_clean_linker_0, # of connection points: 2
#     Edge 15, Type (0, 0), BuildingBlock: AJUNOK_clean_linker_0, # of connection points: 2
#     Edge 16, Type (0, 0), BuildingBlock: AJUNOK_clean_linker_0, # of connection points: 2
#     Edge 17, Type (0, 0), BuildingBlock: AJUNOK_clean_linker_0, # of connection points: 2
#     Edge 18, Type (0, 0), BuildingBlock: AJUNOK_clean_linker_0, # of connection points: 2
#     Edge 19, Type (0, 0), BuildingBlock: AJUNOK_clean_linker_0, # of connection points: 2
#     Edge 20, Type (0, 0), BuildingBlock: AJUNOK_clean_linker_0, # of connection points: 2
#     Edge 21, Type (0, 0), BuildingBlock: AJUNOK_clean_linker_0, # of connection points: 2
#     Edge 22, Type (0, 0), BuildingBlock: AJUNOK_clean_linker_0, # of connection points: 2
#     Edge 23, Type (0, 0), BuildingBlock: AJUNOK_clean_linker_0, # of connection points: 2
#     Edge 24, Type (0, 0), BuildingBlock: AJUNOK_clean_linker_0, # of connection points: 2
#     Edge 25, Type (0, 0), BuildingBlock: AJUNOK_clean_linker_0, # of connection points: 2
#     Edge 26, Type (0, 0), BuildingBlock: AJUNOK_clean_linker_0, # of connection points: 2
#     Edge 27, Type (0, 0), BuildingBlock: AJUNOK_clean_linker_0, # of connection points: 2
# Relax obj value: 0.557
# Max RMSD: 0.259
# Mean RMSD: 0.259
data_MOF--net-pts-e--node1-XOMCOT_clean_sbu_0--edge1-AJUNOK_clean_linker_0
_symmetry_space_group_name_H-M    P1
_symmetry_Int_Tables_number       1
_symmetry_cell_setting            triclinic
loop_
_symmetry_equiv_pos_as_xyz
'x, y, z'
_cell_length_a     26.812158
_cell_length_b     26.710722
_cell_length_c     35.310569
_cell_angle_alpha  90.071516
_cell_angle_beta   90.174224
_cell_angle_gamma 90.001261
loop_
_atom_site_label
_atom_site_type_symbol
_atom_site_fract_x
_atom_site_fract_y
_atom_site_fract_z
_atom_type_partial_charge
Co0 Co 0.25504 0.98849 0.15373 0.0
C1 C 0.36485 0.98587 0.15029 0.0
C2 C 0.33731 0.91485 0.16851 0.0
C3 C 0.3889 0.91426 0.17052 0.0
N4 N 0.3222 0.96076 0.1573 0.0
N5 N 0.40574 0.95942 0.15944 0.0
H6 H 0.36682 0.02267 0.13802 0.0
H7 H 0.3129 0.88413 0.17566 0.0
C8 C 0.23952 0.9189 0.22142 0.0
O9 O 0.27956 0.93797 0.23742 0.0
N10 N 0.18938 0.01732 0.14953 0.0
C11 C 0.1792 0.0668 0.14872 0.0
C12 C 0.1284 0.07317 0.14727 0.0
C13 C 0.14485 0.99407 0.1479 0.0
N14 N 0.10725 0.02755 0.14683 0.0
C15 C 0.30005 0.07305 0.18991 0.0
C16 C 0.23328 0.07846 0.2489 0.0
C17 C 0.26351 0.11982 0.24084 0.0
C18 C 0.29907 0.11581 0.21238 0.0
C19 C 0.23523 0.03642 0.22557 0.0
N20 N 0.26774 0.03421 0.19584 0.0
H21 H 0.32186 0.07529 0.16469 0.0
H22 H 0.20602 0.00903 0.22863 0.0
H23 H 0.20687 0.09625 0.14937 0.0
H24 H 0.14001 0.95384 0.1475 0.0
O25 O 0.27613 0.03184 0.11278 0.0
O26 O 0.2459 0.95558 0.10502 0.0
O27 O 0.22641 0.93377 0.18825 0.0
C28 C 0.26264 0.99662 0.08959 0.0
H29 H 0.41194 0.88388 0.1808 0.0
H30 H 0.10844 0.10836 0.14597 0.0
H31 H 0.20375 0.08112 0.2697 0.0
H32 H 0.32158 0.14783 0.2045 0.0
Co33 Co 0.0349 0.265 0.65079 0.0
C34 C 0.03026 0.3714 0.6636 0.0
C35 C 0.10515 0.35135 0.64874 0.0
C36 C 0.10173 0.40306 0.65093 0.0
N37 N 0.0601 0.3319 0.65695 0.0
N38 N 0.05459 0.41505 0.6607 0.0
H39 H 0.99041 0.36857 0.66773 0.0
H40 H 0.13722 0.32993 0.63977 0.0
C41 C 0.13109 0.22347 0.6813 0.0
O42 O 0.14937 0.22926 0.64714 0.0
N43 N 0.00707 0.19842 0.64419 0.0
C44 C 0.96226 0.18706 0.62868 0.0
C45 C 0.9558 0.13613 0.629 0.0
C46 C 0.02778 0.15381 0.65281 0.0
N47 N -0.003 0.1156 0.64404 0.0
C48 C 0.94028 0.27838 0.68508 0.0
C49 C 0.97369 0.28722 0.75872 0.0
C50 C 0.92289 0.27774 0.75196 0.0
C51 C 0.90603 0.27801 0.71429 0.0
C52 C 0.00705 0.28563 0.72845 0.0
N53 N 0.99006 0.27692 0.69255 0.0
H54 H 0.92653 0.27715 0.65645 0.0
H55 H 0.04643 0.28996 0.73409 0.0
H56 H 0.93621 0.21352 0.61675 0.0
H57 H 0.06457 0.14887 0.66475 0.0
O58 O 0.99323 0.28922 0.61025 0.0
O59 O 0.06871 0.25824 0.60204 0.0
O60 O 0.08615 0.23679 0.68773 0.0
C61 C 0.02807 0.2764 0.58692 0.0
H62 H 0.13095 0.42971 0.6446 0.0
H63 H 0.92427 0.11555 0.61775 0.0
H64 H 0.9881 0.29171 0.78717 0.0
H65 H 0.86718 0.27266 0.70692 0.0
Co66 Co 0.74953 0.03481 0.15148 0.0
C67 C 0.64545 0.02602 0.17191 0.0
C68 C 0.66207 0.10146 0.15571 0.0
C69 C 0.61092 0.09577 0.15728 0.0
N70 N 0.68367 0.05768 0.16528 0.0
N71 N 0.60068 0.04796 0.16679 0.0
H72 H 0.65049 0.98655 0.17743 0.0
H73 H 0.68187 0.13378 0.14508 0.0
C74 C 0.77255 0.11754 0.21082 0.0
O75 O 0.72544 0.1231 0.21984 0.0
N76 N 0.81493 0.00993 0.13589 0.0
C77 C 0.82375 0.97335 0.11024 0.0
C78 C 0.87409 0.96686 0.10632 0.0
C79 C 0.86078 0.02555 0.1468 0.0
N80 N 0.89743 6e-05 0.12891 0.0
C81 C 0.75483 0.93733 0.18191 0.0
C82 C 0.73792 0.96126 0.25671 0.0
C83 C 0.7534 0.91249 0.24751 0.0
C84 C 0.75895 0.90031 0.20911 0.0
C85 C 0.73649 0.99786 0.22851 0.0
N86 N 0.74781 0.98604 0.19193 0.0
H87 H 0.75907 0.92681 0.1527 0.0
H88 H 0.72604 0.03524 0.23626 0.0
H89 H 0.79575 0.95183 0.09539 0.0
H90 H 0.86761 0.05532 0.1669 0.0
O91 O 0.71801 0.99441 0.11314 0.0
O92 O 0.74549 0.07168 0.1042 0.0
O93 O 0.78552 0.0863 0.18502 0.0
C94 C 0.72514 0.03133 0.08999 0.0
H95 H 0.58348 0.1234 0.14892 0.0
H96 H 0.89197 0.93901 0.08872 0.0
H97 H 0.72925 0.97181 0.28553 0.0
H98 H 0.76999 0.86332 0.19985 0.0
Co99 Co 0.9904 0.75805 0.66207 0.0
C100 C 0.98656 0.64868 0.65669 0.0
C101 C 0.91717 0.67539 0.67834 0.0
C102 C 0.91623 0.62356 0.67786 0.0
N103 N 0.96239 0.69102 0.66647 0.0
N104 N 0.96034 0.60718 0.66442 0.0
H105 H 0.02312 0.64761 0.64412 0.0
H106 H 0.88672 0.69942 0.68664 0.0
C107 C 0.91833 0.77902 0.72657 0.0
O108 O 0.93715 0.74053 0.74481 0.0
N109 N 0.02015 0.82323 0.65653 0.0
C110 C 0.06964 0.83189 0.65547 0.0
C111 C 0.07746 0.88239 0.65236 0.0
C112 C -0.00169 0.86843 0.65358 0.0
N113 N 0.03269 0.90529 0.65077 0.0
C114 C 0.06964 0.71342 0.70435 0.0
C115 C 0.0763 0.78951 0.75691 0.0
C116 C 0.11708 0.75773 0.75129 0.0
C117 C 0.11246 0.71754 0.72644 0.0
C118 C 0.0346 0.78479 0.73368 0.0
N119 N 0.03232 0.7482 0.70658 0.0
H120 H 0.0707 0.68656 0.68191 0.0
H121 H 0.00781 0.81491 0.73408 0.0
H122 H 0.09815 0.80339 0.65773 0.0
H123 H 0.95836 0.8742 0.65342 0.0
O124 O 0.03675 0.73408 0.62441 0.0
O125 O 0.96148 0.76365 0.61172 0.0
O126 O 0.93375 0.78916 0.69304 0.0
C127 C 0.00353 0.74558 0.59914 0.0
H128 H 0.8855 0.59998 0.68651 0.0
H129 H 0.11339 0.90083 0.6525 0.0
H130 H 0.07944 0.82209 0.77511 0.0
H131 H 0.14396 0.69326 0.72078 0.0
Co132 Co 0.25705 0.03868 0.86168 0.0
C133 C 0.36637 0.04062 0.86602 0.0
C134 C 0.34075 0.10932 0.84221 0.0
C135 C 0.39193 0.1065 0.83784 0.0
N136 N 0.32439 0.06622 0.85778 0.0
N137 N 0.40761 0.06233 0.85197 0.0
H138 H 0.36715 0.00673 0.88247 0.0
H139 H 0.31742 0.14 0.83309 0.0
C140 C 0.2444 0.10282 0.79137 0.0
O141 O 0.28411 0.08011 0.778 0.0
N142 N 0.19181 0.00915 0.86661 0.0
C143 C 0.18378 0.95957 0.87067 0.0
C144 C 0.13349 0.95095 0.87196 0.0
C145 C 0.14628 0.03043 0.86636 0.0
N146 N 0.1102 0.99537 0.8692 0.0
C147 C 0.30194 0.95242 0.82826 0.0
C148 C 0.23121 0.94113 0.77223 0.0
C149 C 0.26063 0.90017 0.78276 0.0
C150 C 0.29868 0.90705 0.8091 0.0
C151 C 0.23558 0.9859 0.79217 0.0
N152 N 0.26954 0.9908 0.82096 0.0
H153 H 0.32511 0.95268 0.8529 0.0
H154 H 0.20668 0.01343 0.788 0.0
H155 H 0.21274 0.93159 0.87263 0.0
H156 H 0.13965 0.07029 0.86406 0.0
O157 O 0.2784 0.99696 0.90315 0.0
O158 O 0.24797 0.07311 0.91027 0.0
O159 O 0.22867 0.09146 0.82471 0.0
C160 C 0.26448 0.03206 0.92605 0.0
H161 H 0.41525 0.1337 0.82369 0.0
H162 H 0.1153 0.91508 0.87559 0.0
H163 H 0.20027 0.93648 0.7527 0.0
H164 H 0.32098 0.87562 0.81861 0.0
Co165 Co 0.9894 0.26281 0.36008 0.0
C166 C 0.98339 0.37271 0.36421 0.0
C167 C 0.92166 0.34507 0.33193 0.0
C168 C 0.9222 0.39677 0.32961 0.0
N169 N 0.96151 0.32976 0.3524 0.0
N170 N 0.96106 0.41369 0.35013 0.0
H171 H 0.01674 0.37455 0.38139 0.0
H172 H 0.8942 0.32109 0.31892 0.0
C173 C 0.92457 0.23628 0.29102 0.0
O174 O 0.94773 0.27059 0.27105 0.0
N175 N 0.01992 0.19828 0.36894 0.0
C176 C 0.06937 0.19236 0.37436 0.0
C177 C 0.07937 0.14281 0.38031 0.0
C178 C 0.00014 0.15206 0.37208 0.0
N179 N 0.03593 0.11752 0.37936 0.0
C180 C 0.07237 0.3076 0.32267 0.0
C181 C 0.08638 0.22933 0.27282 0.0
C182 C 0.12575 0.2622 0.2803 0.0
C183 C 0.1179 0.30314 0.30399 0.0
C184 C 0.04226 0.2341 0.29297 0.0
N185 N 0.03605 0.27198 0.31859 0.0
H186 H 0.06973 0.33584 0.34417 0.0
H187 H 0.01618 0.2034 0.29158 0.0
H188 H 0.09651 0.22226 0.37366 0.0
H189 H 0.96072 0.14396 0.36951 0.0
O190 O 0.03106 0.28827 0.40062 0.0
O191 O 0.95501 0.25782 0.40822 0.0
O192 O 0.93594 0.22995 0.32613 0.0
C193 C 0.99535 0.2762 0.42359 0.0
H194 H 0.89676 0.42002 0.31354 0.0
H195 H 0.116 0.12655 0.38416 0.0
H196 H 0.09203 0.19627 0.25552 0.0
H197 H 0.14823 0.32831 0.31106 0.0
Co198 Co 0.75253 0.98728 0.86741 0.0
C199 C 0.64436 0.99595 0.85593 0.0
C200 C 0.66976 0.92597 0.8339 0.0
C201 C 0.61913 0.92998 0.82739 0.0
N202 N 0.68595 0.96838 0.85063 0.0
N203 N 0.60321 0.9742 0.84149 0.0
H204 H 0.6434 0.03054 0.87168 0.0
H205 H 0.69245 0.89377 0.8273 0.0
C206 C 0.78114 0.92008 0.80109 0.0
O207 O 0.75046 0.9459 0.77955 0.0
N208 N 0.81764 0.00837 0.88511 0.0
C209 C 0.82787 0.0546 0.89843 0.0
C210 C 0.87845 0.06013 0.90138 0.0
C211 C 0.86235 0.98625 0.88032 0.0
N212 N 0.90025 0.01755 0.8894 0.0
C213 C 0.73203 0.07879 0.83015 0.0
C214 C 0.82248 0.08108 0.79357 0.0
C215 C 0.79959 0.12616 0.80384 0.0
C216 C 0.75192 0.1248 0.81942 0.0
C217 C 0.80252 0.03628 0.80629 0.0
N218 N 0.7594 0.03578 0.82684 0.0
H219 H 0.69836 0.07966 0.84643 0.0
H220 H 0.82629 0.0039 0.80464 0.0
H221 H 0.80069 0.08381 0.90317 0.0
H222 H 0.86696 0.94885 0.8693 0.0
O223 O 0.72369 0.03164 0.90415 0.0
O224 O 0.74203 0.9524 0.9152 0.0
O225 O 0.78473 0.93082 0.83648 0.0
C226 C 0.72611 0.99532 0.92823 0.0
H227 H 0.59649 0.90239 0.81301 0.0
H228 H 0.89772 0.09421 0.90927 0.0
H229 H 0.85854 0.08069 0.77979 0.0
H230 H 0.73249 0.15896 0.8269 0.0
Co231 Co 0.04347 0.75704 0.37444 0.0
C232 C 0.03609 0.64708 0.36884 0.0
C233 C 0.1018 0.67199 0.3403 0.0
C234 C 0.09679 0.62095 0.33477 0.0
N235 N 0.06241 0.68883 0.36045 0.0
N236 N 0.0555 0.60573 0.35297 0.0
H237 H 0.00275 0.64641 0.38589 0.0
H238 H 0.1323 0.69461 0.33018 0.0
C239 C 0.10503 0.78317 0.30432 0.0
O240 O 0.07795 0.75152 0.28449 0.0
N241 N 0.02226 0.82346 0.38947 0.0
C242 C 0.97585 0.83414 0.40191 0.0
C243 C 0.97058 0.88501 0.40466 0.0
C244 C 0.04489 0.8682 0.38506 0.0
N245 N 0.01378 0.9061 0.39404 0.0
C246 C 0.95127 0.72987 0.33987 0.0
C247 C 0.94378 0.81737 0.29905 0.0
C248 C 0.90046 0.79126 0.30869 0.0
C249 C 0.90456 0.74524 0.32688 0.0
C250 C 0.98935 0.80138 0.31319 0.0
N251 N 0.99247 0.75949 0.33527 0.0
H252 H 0.95217 0.69791 0.35817 0.0
H253 H 0.02014 0.82711 0.31101 0.0
H254 H 0.94671 0.8069 0.40664 0.0
H255 H 0.08196 0.87321 0.37365 0.0
O256 O 0.00238 0.73088 0.41442 0.0
O257 O 0.08167 0.75172 0.42127 0.0
O258 O 0.09707 0.78789 0.34005 0.0
C259 C 0.04025 0.73657 0.43689 0.0
H260 H 0.1215 0.59691 0.31877 0.0
H261 H 0.93718 0.9052 0.41258 0.0
H262 H 0.94174 0.85295 0.28438 0.0
H263 H 0.87161 0.72405 0.33445 0.0
C264 C 0.26637 0.05368 0.03302 0.0
C265 C 0.26378 0.00465 0.04785 0.0
C266 C 0.26602 0.06265 0.99371 0.0
C267 C 0.26411 0.02288 0.96766 0.0
H268 H 0.268 0.08558 0.05196 0.0
H269 H 0.26782 0.10092 0.9837 0.0
S270 S 0.2563 0.88751 0.99164 0.0
N271 N 0.25847 0.91601 0.03311 0.0
N272 N 0.25871 0.93243 0.95964 0.0
C273 C 0.26164 0.97367 0.98215 0.0
C274 C 0.26122 0.96467 0.02208 0.0
C275 C 0.05128 0.27747 0.48053 0.0
C276 C 0.00267 0.2791 0.46518 0.0
C277 C 0.05945 0.27679 0.51987 0.0
C278 C 0.01936 0.27878 0.54536 0.0
H279 H 0.08335 0.27539 0.462 0.0
H280 H 0.0974 0.27463 0.53035 0.0
S281 S 0.88485 0.28516 0.51954 0.0
N282 N 0.91407 0.28346 0.47849 0.0
N283 N 0.929 0.28342 0.55219 0.0
C284 C 0.97057 0.28151 0.53029 0.0
C285 C 0.96233 0.28131 0.49029 0.0
C286 C 0.71563 0.97471 0.03415 0.0
C287 C 0.71781 0.02383 0.04882 0.0
C288 C 0.71639 0.96559 0.99504 0.0
C289 C 0.71826 0.00528 0.9691 0.0
H290 H 0.71571 0.94274 0.053 0.0
H291 H 0.71692 0.92719 0.98516 0.0
S292 S 0.71851 0.1411 0.993 0.0
N293 N 0.71814 0.11259 0.03444 0.0
N294 N 0.71806 0.09605 0.96097 0.0
C295 C 0.7173 0.05474 0.98342 0.0
C296 C 0.71748 0.06388 0.02327 0.0
C297 C 0.98394 0.73432 0.493 0.0
C298 C 0.03294 0.73382 0.4785 0.0
C299 C 0.97476 0.73777 0.53197 0.0
C300 C 0.01416 0.73996 0.55816 0.0
H301 H 0.9521 0.7337 0.47406 0.0
H302 H 0.93645 0.73902 0.54159 0.0
S303 S 0.14937 0.73763 0.53528 0.0
N304 N 0.12134 0.73454 0.49363 0.0
N305 N 0.1043 0.7399 0.56701 0.0
C306 C 0.0634 0.73793 0.54423 0.0
C307 C 0.07273 0.73517 0.5044 0.0
C308 C 0.19093 0.2379 0.23461 0.0
C309 C 0.17631 0.24425 0.27235 0.0
C310 C 0.22603 0.20138 0.22503 0.0
C311 C 0.24634 0.16961 0.25291 0.0
H312 H 0.17122 0.25725 0.21214 0.0
H313 H 0.23239 0.19391 0.19525 0.0
S314 S 0.22667 0.17804 0.35629 0.0
N315 N 0.1906 0.22217 0.33825 0.0
N316 N 0.25543 0.15204 0.31993 0.0
C317 C 0.23652 0.17981 0.29104 0.0
C318 C 0.20167 0.21772 0.30087 0.0
C319 C 0.80761 0.21666 0.7864 0.0
C320 C 0.82828 0.17323 0.80224 0.0
C321 C 0.83828 0.25709 0.77678 0.0
C322 C 0.89059 0.25386 0.78094 0.0
H323 H 0.76856 0.21785 0.7785 0.0
H324 H 0.8217 0.2881 0.76153 0.0
S325 S 0.95842 0.15592 0.83553 0.0
N326 N 0.90018 0.13631 0.83364 0.0
N327 N 0.95873 0.20982 0.8128 0.0
C328 C 0.9098 0.21445 0.80316 0.0
C329 C 0.87835 0.17426 0.814 0.0
C330 C 0.77527 0.82577 0.26859 0.0
C331 C 0.77443 0.87773 0.27632 0.0
C332 C 0.81436 0.79564 0.28179 0.0
C333 C 0.852 0.81637 0.30444 0.0
H334 H 0.74914 0.8096 0.24857 0.0
H335 H 0.8175 0.75754 0.27152 0.0
S336 S 0.85495 0.94334 0.34652 0.0
N337 N 0.80699 0.94408 0.31719 0.0
N338 N 0.8778 0.88613 0.34396 0.0
C339 C 0.84575 0.86497 0.31867 0.0
C340 C 0.8071 0.89604 0.30444 0.0
C341 C 0.23159 0.83367 0.73894 0.0
C342 C 0.24037 0.84984 0.77612 0.0
C343 C 0.19558 0.79711 0.73149 0.0
C344 C 0.16672 0.77688 0.76101 0.0
H345 H 0.24902 0.85277 0.71538 0.0
H346 H 0.18621 0.78915 0.70222 0.0
S347 S 0.18109 0.80124 0.86346 0.0
N348 N 0.22297 0.8376 0.84311 0.0
N349 N 0.15354 0.77038 0.82865 0.0
C350 C 0.17888 0.78878 0.79844 0.0
C351 C 0.21634 0.82503 0.80613 0.0
C352 C 0.85091 0.84504 0.72529 0.0
C353 C 0.88258 0.8134 0.74626 0.0
C354 C 0.81778 0.87836 0.74326 0.0
C355 C 0.81516 0.88224 0.78312 0.0
H356 H 0.85157 0.84404 0.69462 0.0
H357 H 0.7945 0.90182 0.72554 0.0
S358 S 0.89185 0.8093 0.8513 0.0
N359 N 0.91003 0.7891 0.80936 0.0
N360 N 0.84829 0.85154 0.84291 0.0
C361 C 0.8469 0.85098 0.80444 0.0
C362 C 0.88035 0.81671 0.78613 0.0
C363 C 0.17209 0.85281 0.22429 0.0
C364 C 0.20703 0.88333 0.24322 0.0
C365 C 0.14035 0.82007 0.2442 0.0
C366 C 0.14133 0.8167 0.28413 0.0
H367 H 0.16918 0.85411 0.1937 0.0
H368 H 0.11414 0.79779 0.22797 0.0
S369 S 0.2251 0.88935 0.34763 0.0
N370 N 0.2403 0.90814 0.30466 0.0
N371 N 0.18053 0.84739 0.3418 0.0
C372 C 0.17605 0.84709 0.30346 0.0
C373 C 0.20883 0.88005 0.28314 0.0
C374 C 0.13781 0.17555 0.74334 0.0
C375 C 0.16105 0.19698 0.71131 0.0
C376 C 0.16496 0.14684 0.77004 0.0
C377 C 0.21658 0.13829 0.7659 0.0
H378 H 0.09796 0.17964 0.74726 0.0
H379 H 0.14499 0.12978 0.79331 0.0
S380 S 0.29654 0.19126 0.68998 0.0
N381 N 0.23991 0.21098 0.67929 0.0
N382 N 0.29044 0.15779 0.72894 0.0
C383 C 0.24052 0.16143 0.73498 0.0
C384 C 0.21299 0.19048 0.7079 0.0
C385 C 0.85397 0.16492 0.21346 0.0
C386 C 0.81151 0.14636 0.23213 0.0
C387 C 0.89003 0.19384 0.23275 0.0
C388 C 0.88611 0.20424 0.27185 0.0
H389 H 0.85883 0.15804 0.18345 0.0
H390 H 0.92152 0.20793 0.21684 0.0
S391 S 0.78394 0.16129 0.33455 0.0
N392 N 0.76858 0.13911 0.29241 0.0
N393 N 0.83704 0.19166 0.32874 0.0
C394 C 0.84466 0.1845 0.2911 0.0
C395 C 0.80726 0.15615 0.27125 0.0
C396 C 0.02269 0.02562 0.17308 0.0
C397 C 0.05522 0.01765 0.14265 0.0
C398 C 0.97104 0.01981 0.16846 0.0
C399 C 0.95051 0.00646 0.1331 0.0
H400 H 0.03742 0.03655 0.20046 0.0
H401 H 0.94709 0.02546 0.19271 0.0
S402 S 0.02117 0.98684 0.04391 0.0
N403 N 0.06445 -0.00147 0.0761 0.0
N404 N 0.96738 0.98918 0.06653 0.0
C405 C 0.98314 -0.00053 0.1023 0.0
C406 C 0.03558 0.00475 0.1073 0.0
C407 C 0.97491 0.03162 0.66642 0.0
C408 C 0.0073 0.06325 0.64651 0.0
C409 C 0.98326 0.97988 0.66763 0.0
C410 C 0.02386 0.95829 0.64844 0.0
H411 H 0.94323 0.04719 0.68131 0.0
H412 H 0.95819 0.95675 0.68402 0.0
S413 S 0.1156 0.02559 0.58855 0.0
N414 N 0.07917 0.07009 0.6055 0.0
N415 N 0.09423 0.97262 0.60631 0.0
C416 C 0.05568 0.98978 0.62757 0.0
C417 C 0.04754 0.0424 0.62696 0.0
C418 C 0.98714 0.0368 0.90694 0.0
C419 C 0.953 0.01083 0.88367 0.0
C420 C 0.03856 0.03319 0.90111 0.0
C421 C 0.05762 0.00285 0.87224 0.0
H422 H 0.97405 0.05974 0.93015 0.0
H423 H 0.06373 0.05294 0.91996 0.0
S424 S 0.98556 0.92961 0.80181 0.0
N425 N 0.9428 0.95623 0.82872 0.0
N426 N 0.03985 0.94769 0.81934 0.0
C427 C 0.02444 0.97689 0.8486 0.0
C428 C 0.97198 0.98121 0.85396 0.0
C429 C 0.99157 0.98581 0.36407 0.0
C430 C 0.02177 0.95857 0.38922 0.0
C431 C 0.99578 0.03795 0.36131 0.0
C432 C 0.03026 0.06432 0.38378 0.0
H433 H 0.96476 0.96644 0.3464 0.0
H434 H 0.97252 0.05766 0.34113 0.0
S435 S 0.1148 0.00953 0.45627 0.0
N436 N 0.08537 0.96086 0.4379 0.0
N437 N 0.09301 0.05912 0.43372 0.0
C438 C 0.0602 0.03719 0.40946 0.0
C439 C 0.05607 0.98415 0.41189 0.0
C440 C 0.46263 0.02823 0.1768 0.0
C441 C 0.45545 0.97958 0.16234 0.0
C442 C 0.51015 0.04993 0.17853 0.0
C443 C 0.55244 0.02392 0.16583 0.0
H444 H 0.4311 0.04967 0.18699 0.0
H445 H 0.51392 0.08737 0.18998 0.0
S446 S 0.55298 0.89672 0.1229 0.0
N447 N 0.49399 0.90662 0.13398 0.0
N448 N 0.58345 0.94752 0.13627 0.0
C449 C 0.54574 0.97519 0.15107 0.0
C450 C 0.49722 0.95299 0.14963 0.0
C451 C 0.0142 0.54449 0.63352 0.0
C452 C 0.98009 0.55706 0.66236 0.0
C453 C 0.03963 0.49866 0.63365 0.0
C454 C 0.03147 0.46351 0.66241 0.0
H455 H 0.02159 0.57056 0.61077 0.0
H456 H 0.06512 0.49023 0.61079 0.0
S457 S 0.94753 0.47803 0.74493 0.0
N458 N 0.94077 0.53068 0.72097 0.0
N459 N 0.98772 0.44398 0.72065 0.0
C460 C -0.00278 0.47516 0.69117 0.0
C461 C 0.97159 0.52198 0.69123 0.0
C462 C 0.49941 0.06928 0.84779 0.0
C463 C 0.4563 0.03952 0.84826 0.0
C464 C 0.54689 0.04769 0.84469 0.0
C465 C 0.55346 0.99527 0.84233 0.0
H466 H 0.49651 0.10957 0.85029 0.0
H467 H 0.57872 0.07256 0.84412 0.0
S468 S 0.45207 0.9007 0.83902 0.0
N469 N 0.42306 0.95493 0.84225 0.0
N470 N 0.51202 0.91439 0.83947 0.0
C471 C 0.51052 0.96512 0.84195 0.0
C472 C 0.46211 0.98719 0.84428 0.0
C473 C 0.99524 0.48756 0.31737 0.0
C474 C 0.98164 0.46337 0.35115 0.0
C475 C 0.02086 0.53349 0.3181 0.0
C476 C 0.0328 0.55696 0.35263 0.0
H477 H 0.98716 0.47013 0.29033 0.0
H478 H 0.03074 0.55122 0.29161 0.0
S479 S 0.005 0.50902 0.44864 0.0
N480 N 0.98232 0.46582 0.4198 0.0
N481 N 0.02885 0.55295 0.42119 0.0
C482 C 0.01881 0.53341 0.38647 0.0
C483 C 0.99371 0.48633 0.38573 0.0
loop_
_geom_bond_atom_site_label_1
_geom_bond_atom_site_label_2
_geom_bond_distance
_geom_bond_site_symmetry_2
_ccdc_geom_bond_type
Co0 N4 2.148 1_545 S
Co0 N10 2.128 . S
Co0 N20 2.194 . S
Co0 O25 2.351 . S
Co0 O26 2.155 1_545 S
Co0 O27 2.096 1_545 S
C1 N4 1.301 1_545 S
C1 N5 1.328 . S
C1 H6 0.930 . S
C2 C3 1.333 . S
C2 N4 1.317 . S
C2 H7 0.930 . S
C3 C2 1.333 . S
C3 N5 1.350 1_565 S
C3 H29 0.931 . S
N4 Co0 2.148 1_565 S
N4 C1 1.301 1_565 S
N4 C2 1.317 . S
N5 C1 1.328 . S
N5 C3 1.350 1_545 S
H6 C1 0.930 . S
H7 C2 0.930 . S
C8 O9 1.224 . S
C8 O27 1.247 . S
O9 C8 1.224 . S
N10 Co0 2.128 . S
N10 C11 1.355 . S
N10 C13 1.311 1_545 S
C11 N10 1.355 . S
C11 C12 1.363 . S
C11 H23 0.929 . S
C12 C11 1.363 . S
C12 N14 1.375 . S
C12 H30 0.931 . S
C13 N10 1.311 1_565 S
C13 N14 1.347 1_565 S
C13 H24 0.929 . S
N14 C12 1.375 . S
N14 C13 1.347 1_545 S
C15 C18 1.365 . S
C15 N20 1.328 . S
C15 H21 0.929 . S
C16 C17 1.362 . S
C16 C19 1.378 . S
C16 H31 0.929 . S
C17 C16 1.362 . S
C17 C18 1.366 . S
C18 C15 1.365 . S
C18 C17 1.366 . S
C18 H32 0.930 . S
C19 C16 1.378 . S
C19 N20 1.315 . S
C19 H22 0.930 . S
N20 Co0 2.194 . S
N20 C15 1.328 . S
N20 C19 1.315 . S
H21 C15 0.929 . S
H22 C19 0.930 . S
H23 C11 0.929 . S
H24 C13 0.929 . S
O25 Co0 2.351 . S
O25 C28 1.244 . S
O26 Co0 2.155 1_565 S
O26 C28 1.240 1_565 S
O27 Co0 2.096 1_565 S
O27 C8 1.247 . S
C28 O25 1.244 . S
C28 O26 1.240 1_545 S
H29 C3 0.931 . S
H30 C12 0.931 . S
H31 C16 0.929 . S
H32 C18 0.930 . S
Co33 N37 2.148 . S
Co33 N43 2.128 . S
Co33 N53 2.194 1_455 S
Co33 O58 2.351 1_455 S
Co33 O59 2.155 . S
Co33 O60 2.096 . S
C34 N37 1.301 . S
C34 N38 1.328 . S
C34 H39 0.930 1_455 S
C35 C36 1.333 . S
C35 N37 1.317 . S
C35 H40 0.930 . S
C36 C35 1.333 . S
C36 N38 1.350 . S
C36 H62 0.931 . S
N37 Co33 2.148 . S
N37 C34 1.301 . S
N37 C35 1.317 . S
N38 C34 1.328 . S
N38 C36 1.350 . S
H39 C34 0.930 1_655 S
H40 C35 0.930 . S
C41 O42 1.224 . S
C41 O60 1.247 . S
O42 C41 1.224 . S
N43 Co33 2.128 . S
N43 C44 1.355 1_455 S
N43 C46 1.311 . S
C44 N43 1.355 1_655 S
C44 C45 1.363 . S
C44 H56 0.929 . S
C45 C44 1.363 . S
C45 N47 1.375 1_655 S
C45 H63 0.931 . S
C46 N43 1.311 . S
C46 N47 1.347 . S
C46 H57 0.929 . S
N47 C45 1.375 1_455 S
N47 C46 1.347 . S
C48 C51 1.365 . S
C48 N53 1.328 . S
C48 H54 0.929 . S
C49 C50 1.362 . S
C49 C52 1.378 . S
C49 H64 0.929 . S
C50 C49 1.362 . S
C50 C51 1.366 . S
C51 C48 1.365 . S
C51 C50 1.366 . S
C51 H65 0.930 . S
C52 C49 1.378 . S
C52 N53 1.315 . S
C52 H55 0.930 . S
N53 Co33 2.194 1_655 S
N53 C48 1.328 . S
N53 C52 1.315 . S
H54 C48 0.929 . S
H55 C52 0.930 . S
H56 C44 0.929 . S
H57 C46 0.929 . S
O58 Co33 2.351 1_655 S
O58 C61 1.244 1_655 S
O59 Co33 2.155 . S
O59 C61 1.240 . S
O60 Co33 2.096 . S
O60 C41 1.247 . S
C61 O58 1.244 1_455 S
C61 O59 1.240 . S
H62 C36 0.931 . S
H63 C45 0.931 . S
H64 C49 0.929 . S
H65 C51 0.930 . S
Co66 N70 2.148 . S
Co66 N76 2.128 . S
Co66 N86 2.194 1_545 S
Co66 O91 2.351 1_545 S
Co66 O92 2.155 . S
Co66 O93 2.096 . S
C67 N70 1.301 . S
C67 N71 1.328 . S
C67 H72 0.930 1_545 S
C68 C69 1.333 . S
C68 N70 1.317 . S
C68 H73 0.930 . S
C69 C68 1.333 . S
C69 N71 1.350 . S
C69 H95 0.931 . S
N70 Co66 2.148 . S
N70 C67 1.301 . S
N70 C68 1.317 . S
N71 C67 1.328 . S
N71 C69 1.350 . S
H72 C67 0.930 1_565 S
H73 C68 0.930 . S
C74 O75 1.224 . S
C74 O93 1.247 . S
O75 C74 1.224 . S
N76 Co66 2.128 . S
N76 C77 1.355 1_545 S
N76 C79 1.311 . S
C77 N76 1.355 1_565 S
C77 C78 1.363 . S
C77 H89 0.929 . S
C78 C77 1.363 . S
C78 N80 1.375 1_565 S
C78 H96 0.931 . S
C79 N76 1.311 . S
C79 N80 1.347 . S
C79 H90 0.929 . S
N80 C78 1.375 1_545 S
N80 C79 1.347 . S
C81 C84 1.365 . S
C81 N86 1.328 . S
C81 H87 0.929 . S
C82 C83 1.362 . S
C82 C85 1.378 . S
C82 H97 0.929 . S
C83 C82 1.362 . S
C83 C84 1.366 . S
C84 C81 1.365 . S
C84 C83 1.366 . S
C84 H98 0.930 . S
C85 C82 1.378 . S
C85 N86 1.315 . S
C85 H88 0.930 . S
N86 Co66 2.194 1_565 S
N86 C81 1.328 . S
N86 C85 1.315 . S
H87 C81 0.929 . S
H88 C85 0.930 . S
H89 C77 0.929 . S
H90 C79 0.929 . S
O91 Co66 2.351 1_565 S
O91 C94 1.244 1_565 S
O92 Co66 2.155 . S
O92 C94 1.240 . S
O93 Co66 2.096 . S
O93 C74 1.247 . S
C94 O91 1.244 1_545 S
C94 O92 1.240 . S
H95 C69 0.931 . S
H96 C78 0.931 . S
H97 C82 0.929 . S
H98 C84 0.930 . S
Co99 N103 2.148 1_455 S
Co99 N109 2.128 . S
Co99 N119 2.194 . S
Co99 O124 2.351 . S
Co99 O125 2.155 1_455 S
Co99 O126 2.096 1_455 S
C100 N103 1.301 1_455 S
C100 N104 1.328 . S
C100 H105 0.930 . S
C101 C102 1.333 . S
C101 N103 1.317 . S
C101 H106 0.930 . S
C102 C101 1.333 . S
C102 N104 1.350 1_655 S
C102 H128 0.931 . S
N103 Co99 2.148 1_655 S
N103 C100 1.301 1_655 S
N103 C101 1.317 . S
N104 C100 1.328 . S
N104 C102 1.350 1_455 S
H105 C100 0.930 . S
H106 C101 0.930 . S
C107 O108 1.224 . S
C107 O126 1.247 . S
O108 C107 1.224 . S
N109 Co99 2.128 . S
N109 C110 1.355 . S
N109 C112 1.311 1_455 S
C110 N109 1.355 . S
C110 C111 1.363 . S
C110 H122 0.929 . S
C111 C110 1.363 . S
C111 N113 1.375 . S
C111 H129 0.931 . S
C112 N109 1.311 1_655 S
C112 N113 1.347 1_655 S
C112 H123 0.929 . S
N113 C111 1.375 . S
N113 C112 1.347 1_455 S
C114 C117 1.365 . S
C114 N119 1.328 . S
C114 H120 0.929 . S
C115 C116 1.362 . S
C115 C118 1.378 . S
C115 H130 0.929 . S
C116 C115 1.362 . S
C116 C117 1.366 . S
C117 C114 1.365 . S
C117 C116 1.366 . S
C117 H131 0.930 . S
C118 C115 1.378 . S
C118 N119 1.315 . S
C118 H121 0.930 . S
N119 Co99 2.194 . S
N119 C114 1.328 . S
N119 C118 1.315 . S
H120 C114 0.929 . S
H121 C118 0.930 . S
H122 C110 0.929 . S
H123 C112 0.929 . S
O124 Co99 2.351 . S
O124 C127 1.244 . S
O125 Co99 2.155 1_655 S
O125 C127 1.240 1_655 S
O126 Co99 2.096 1_655 S
O126 C107 1.247 . S
C127 O124 1.244 . S
C127 O125 1.240 1_455 S
H128 C102 0.931 . S
H129 C111 0.931 . S
H130 C115 0.929 . S
H131 C117 0.930 . S
Co132 N136 2.148 . S
Co132 N142 2.128 . S
Co132 N152 2.194 1_545 S
Co132 O157 2.351 1_545 S
Co132 O158 2.155 . S
Co132 O159 2.096 . S
C133 N136 1.301 . S
C133 N137 1.328 . S
C133 H138 0.930 1_545 S
C134 C135 1.333 . S
C134 N136 1.317 . S
C134 H139 0.930 . S
C135 C134 1.333 . S
C135 N137 1.350 . S
C135 H161 0.931 . S
N136 Co132 2.148 . S
N136 C133 1.301 . S
N136 C134 1.317 . S
N137 C133 1.328 . S
N137 C135 1.350 . S
H138 C133 0.930 1_565 S
H139 C134 0.930 . S
C140 O141 1.224 . S
C140 O159 1.247 . S
O141 C140 1.224 . S
N142 Co132 2.128 . S
N142 C143 1.355 1_545 S
N142 C145 1.311 . S
C143 N142 1.355 1_565 S
C143 C144 1.363 . S
C143 H155 0.929 . S
C144 C143 1.363 . S
C144 N146 1.375 1_565 S
C144 H162 0.931 . S
C145 N142 1.311 . S
C145 N146 1.347 . S
C145 H156 0.929 . S
N146 C144 1.375 1_545 S
N146 C145 1.347 . S
C147 C150 1.365 . S
C147 N152 1.328 . S
C147 H153 0.929 . S
C148 C149 1.362 . S
C148 C151 1.378 . S
C148 H163 0.929 . S
C149 C148 1.362 . S
C149 C150 1.366 . S
C150 C147 1.365 . S
C150 C149 1.366 . S
C150 H164 0.930 . S
C151 C148 1.378 . S
C151 N152 1.315 . S
C151 H154 0.930 . S
N152 Co132 2.194 1_565 S
N152 C147 1.328 . S
N152 C151 1.315 . S
H153 C147 0.929 . S
H154 C151 0.930 . S
H155 C143 0.929 . S
H156 C145 0.929 . S
O157 Co132 2.351 1_565 S
O157 C160 1.244 1_565 S
O158 Co132 2.155 . S
O158 C160 1.240 . S
O159 Co132 2.096 . S
O159 C140 1.247 . S
C160 O157 1.244 1_545 S
C160 O158 1.240 . S
H161 C135 0.931 . S
H162 C144 0.931 . S
H163 C148 0.929 . S
H164 C150 0.930 . S
Co165 N169 2.148 1_455 S
Co165 N175 2.128 . S
Co165 N185 2.194 . S
Co165 O190 2.351 . S
Co165 O191 2.155 1_455 S
Co165 O192 2.096 1_455 S
C166 N169 1.301 1_455 S
C166 N170 1.328 . S
C166 H171 0.930 . S
C167 C168 1.333 . S
C167 N169 1.317 . S
C167 H172 0.930 . S
C168 C167 1.333 . S
C168 N170 1.350 1_655 S
C168 H194 0.931 . S
N169 Co165 2.148 1_655 S
N169 C166 1.301 1_655 S
N169 C167 1.317 . S
N170 C166 1.328 . S
N170 C168 1.350 1_455 S
H171 C166 0.930 . S
H172 C167 0.930 . S
C173 O174 1.224 . S
C173 O192 1.247 . S
O174 C173 1.224 . S
N175 Co165 2.128 . S
N175 C176 1.355 . S
N175 C178 1.311 1_455 S
C176 N175 1.355 . S
C176 C177 1.363 . S
C176 H188 0.929 . S
C177 C176 1.363 . S
C177 N179 1.375 . S
C177 H195 0.931 . S
C178 N175 1.311 1_655 S
C178 N179 1.347 1_655 S
C178 H189 0.929 . S
N179 C177 1.375 . S
N179 C178 1.347 1_455 S
C180 C183 1.365 . S
C180 N185 1.328 . S
C180 H186 0.929 . S
C181 C182 1.362 . S
C181 C184 1.378 . S
C181 H196 0.929 . S
C182 C181 1.362 . S
C182 C183 1.366 . S
C183 C180 1.365 . S
C183 C182 1.366 . S
C183 H197 0.930 . S
C184 C181 1.378 . S
C184 N185 1.315 . S
C184 H187 0.930 . S
N185 Co165 2.194 . S
N185 C180 1.328 . S
N185 C184 1.315 . S
H186 C180 0.929 . S
H187 C184 0.930 . S
H188 C176 0.929 . S
H189 C178 0.929 . S
O190 Co165 2.351 . S
O190 C193 1.244 . S
O191 Co165 2.155 1_655 S
O191 C193 1.240 1_655 S
O192 Co165 2.096 1_655 S
O192 C173 1.247 . S
C193 O190 1.244 . S
C193 O191 1.240 1_455 S
H194 C168 0.931 . S
H195 C177 0.931 . S
H196 C181 0.929 . S
H197 C183 0.930 . S
Co198 N202 2.148 1_545 S
Co198 N208 2.128 . S
Co198 N218 2.194 . S
Co198 O223 2.351 . S
Co198 O224 2.155 1_545 S
Co198 O225 2.096 1_545 S
C199 N202 1.301 1_545 S
C199 N203 1.328 . S
C199 H204 0.930 . S
C200 C201 1.333 . S
C200 N202 1.317 . S
C200 H205 0.930 . S
C201 C200 1.333 . S
C201 N203 1.350 1_565 S
C201 H227 0.931 . S
N202 Co198 2.148 1_565 S
N202 C199 1.301 1_565 S
N202 C200 1.317 . S
N203 C199 1.328 . S
N203 C201 1.350 1_545 S
H204 C199 0.930 . S
H205 C200 0.930 . S
C206 O207 1.224 . S
C206 O225 1.247 . S
O207 C206 1.224 . S
N208 Co198 2.128 . S
N208 C209 1.355 . S
N208 C211 1.311 1_545 S
C209 N208 1.355 . S
C209 C210 1.363 . S
C209 H221 0.929 . S
C210 C209 1.363 . S
C210 N212 1.375 . S
C210 H228 0.931 . S
C211 N208 1.311 1_565 S
C211 N212 1.347 1_565 S
C211 H222 0.929 . S
N212 C210 1.375 . S
N212 C211 1.347 1_545 S
C213 C216 1.365 . S
C213 N218 1.328 . S
C213 H219 0.929 . S
C214 C215 1.362 . S
C214 C217 1.378 . S
C214 H229 0.929 . S
C215 C214 1.362 . S
C215 C216 1.366 . S
C216 C213 1.365 . S
C216 C215 1.366 . S
C216 H230 0.930 . S
C217 C214 1.378 . S
C217 N218 1.315 . S
C217 H220 0.930 . S
N218 Co198 2.194 . S
N218 C213 1.328 . S
N218 C217 1.315 . S
H219 C213 0.929 . S
H220 C217 0.930 . S
H221 C209 0.929 . S
H222 C211 0.929 . S
O223 Co198 2.351 . S
O223 C226 1.244 . S
O224 Co198 2.155 1_565 S
O224 C226 1.240 1_565 S
O225 Co198 2.096 1_565 S
O225 C206 1.247 . S
C226 O223 1.244 . S
C226 O224 1.240 1_545 S
H227 C201 0.931 . S
H228 C210 0.931 . S
H229 C214 0.929 . S
H230 C216 0.930 . S
Co231 N235 2.148 . S
Co231 N241 2.128 . S
Co231 N251 2.194 1_455 S
Co231 O256 2.351 1_455 S
Co231 O257 2.155 . S
Co231 O258 2.096 . S
C232 N235 1.301 . S
C232 N236 1.328 . S
C232 H237 0.930 1_455 S
C233 C234 1.333 . S
C233 N235 1.317 . S
C233 H238 0.930 . S
C234 C233 1.333 . S
C234 N236 1.350 . S
C234 H260 0.931 . S
N235 Co231 2.148 . S
N235 C232 1.301 . S
N235 C233 1.317 . S
N236 C232 1.328 . S
N236 C234 1.350 . S
H237 C232 0.930 1_655 S
H238 C233 0.930 . S
C239 O240 1.224 . S
C239 O258 1.247 . S
O240 C239 1.224 . S
N241 Co231 2.128 . S
N241 C242 1.355 1_455 S
N241 C244 1.311 . S
C242 N241 1.355 1_655 S
C242 C243 1.363 . S
C242 H254 0.929 . S
C243 C242 1.363 . S
C243 N245 1.375 1_655 S
C243 H261 0.931 . S
C244 N241 1.311 . S
C244 N245 1.347 . S
C244 H255 0.929 . S
N245 C243 1.375 1_455 S
N245 C244 1.347 . S
C246 C249 1.365 . S
C246 N251 1.328 . S
C246 H252 0.929 . S
C247 C248 1.362 . S
C247 C250 1.378 . S
C247 H262 0.929 . S
C248 C247 1.362 . S
C248 C249 1.366 . S
C249 C246 1.365 . S
C249 C248 1.366 . S
C249 H263 0.930 . S
C250 C247 1.378 . S
C250 N251 1.315 . S
C250 H253 0.930 . S
N251 Co231 2.194 1_655 S
N251 C246 1.328 . S
N251 C250 1.315 . S
H252 C246 0.929 . S
H253 C250 0.930 . S
H254 C242 0.929 . S
H255 C244 0.929 . S
O256 Co231 2.351 1_655 S
O256 C259 1.244 1_655 S
O257 Co231 2.155 . S
O257 C259 1.240 . S
O258 Co231 2.096 . S
O258 C239 1.247 . S
C259 O256 1.244 1_455 S
C259 O257 1.240 . S
H260 C234 0.931 . S
H261 C243 0.931 . S
H262 C247 0.929 . S
H263 C249 0.930 . S
C264 C265 1.369 . S
C264 C266 1.419 1_554 S
C264 H268 0.930 . S
C265 C264 1.369 . S
C265 C274 1.429 1_545 S
C266 C264 1.419 1_556 S
C266 C267 1.363 . S
C266 H269 0.929 . S
C267 C266 1.363 . S
C267 C273 1.428 1_545 S
H268 C264 0.930 . S
H269 C266 0.929 . S
S270 N271 1.627 . S
S270 N272 1.596 1_554 S
N271 S270 1.627 . S
N271 C274 1.350 . S
N272 S270 1.596 1_556 S
N272 C273 1.351 . S
C273 C267 1.428 1_565 S
C273 N272 1.351 . S
C273 C274 1.434 1_556 S
C274 C265 1.429 1_565 S
C274 N271 1.350 . S
C274 C273 1.434 1_554 S
C275 C276 1.369 . S
C275 C277 1.419 . S
C275 H279 0.930 . S
C276 C275 1.369 . S
C276 C285 1.429 1_455 S
C277 C275 1.419 . S
C277 C278 1.363 . S
C277 H280 0.929 . S
C278 C277 1.363 . S
C278 C284 1.428 1_455 S
H279 C275 0.930 . S
H280 C277 0.929 . S
S281 N282 1.613 . S
S281 N283 1.610 . S
N282 S281 1.613 . S
N282 C285 1.350 . S
N283 S281 1.610 . S
N283 C284 1.351 . S
C284 C278 1.428 1_655 S
C284 N283 1.351 . S
C284 C285 1.434 . S
C285 C276 1.429 1_655 S
C285 N282 1.350 . S
C285 C284 1.434 . S
C286 C287 1.369 1_565 S
C286 C288 1.419 1_554 S
C286 H290 0.930 . S
C287 C286 1.369 1_545 S
C287 C296 1.429 . S
C288 C286 1.419 1_556 S
C288 C289 1.363 1_565 S
C288 H291 0.929 . S
C289 C288 1.363 1_545 S
C289 C295 1.428 . S
H290 C286 0.930 . S
H291 C288 0.929 . S
S292 N293 1.613 . S
S292 N294 1.610 1_554 S
N293 S292 1.613 . S
N293 C296 1.350 . S
N294 S292 1.610 1_556 S
N294 C295 1.351 . S
C295 C289 1.428 . S
C295 N294 1.351 . S
C295 C296 1.434 1_556 S
C296 C287 1.429 . S
C296 N293 1.350 . S
C296 C295 1.434 1_554 S
C297 C298 1.369 1_655 S
C297 C299 1.419 . S
C297 H301 0.930 . S
C298 C297 1.369 1_455 S
C298 C307 1.429 . S
C299 C297 1.419 . S
C299 C300 1.363 1_655 S
C299 H302 0.929 . S
C300 C299 1.363 1_455 S
C300 C306 1.428 . S
H301 C297 0.930 . S
H302 C299 0.929 . S
S303 N304 1.613 . S
S303 N305 1.610 . S
N304 S303 1.613 . S
N304 C307 1.350 . S
N305 S303 1.610 . S
N305 C306 1.351 . S
C306 C300 1.428 . S
C306 N305 1.351 . S
C306 C307 1.434 . S
C307 C298 1.429 . S
C307 N304 1.350 . S
C307 C306 1.434 . S
C308 C309 1.369 . S
C308 C310 1.419 . S
C308 H312 0.930 . S
C309 C308 1.369 . S
C309 C318 1.429 . S
C310 C308 1.419 . S
C310 C311 1.363 . S
C310 H313 0.929 . S
C311 C310 1.363 . S
C311 C317 1.428 . S
H312 C308 0.930 . S
H313 C310 0.929 . S
S314 N315 1.613 . S
S314 N316 1.610 . S
N315 S314 1.613 . S
N315 C318 1.350 . S
N316 S314 1.610 . S
N316 C317 1.351 . S
C317 C311 1.428 . S
C317 N316 1.351 . S
C317 C318 1.434 . S
C318 C309 1.429 . S
C318 N315 1.350 . S
C318 C317 1.434 . S
C319 C320 1.369 . S
C319 C321 1.419 . S
C319 H323 0.930 . S
C320 C319 1.369 . S
C320 C329 1.429 . S
C321 C319 1.419 . S
C321 C322 1.363 . S
C321 H324 0.929 . S
C322 C321 1.363 . S
C322 C328 1.428 . S
H323 C319 0.930 . S
H324 C321 0.929 . S
S325 N326 1.613 . S
S325 N327 1.610 . S
N326 S325 1.613 . S
N326 C329 1.350 . S
N327 S325 1.610 . S
N327 C328 1.351 . S
C328 C322 1.428 . S
C328 N327 1.351 . S
C328 C329 1.434 . S
C329 C320 1.429 . S
C329 N326 1.350 . S
C329 C328 1.434 . S
C330 C331 1.369 . S
C330 C332 1.419 . S
C330 H334 0.930 . S
C331 C330 1.369 . S
C331 C340 1.429 . S
C332 C330 1.419 . S
C332 C333 1.363 . S
C332 H335 0.929 . S
C333 C332 1.363 . S
C333 C339 1.428 . S
H334 C330 0.930 . S
H335 C332 0.929 . S
S336 N337 1.613 . S
S336 N338 1.610 . S
N337 S336 1.613 . S
N337 C340 1.350 . S
N338 S336 1.610 . S
N338 C339 1.351 . S
C339 C333 1.428 . S
C339 N338 1.351 . S
C339 C340 1.434 . S
C340 C331 1.429 . S
C340 N337 1.350 . S
C340 C339 1.434 . S
C341 C342 1.369 . S
C341 C343 1.419 . S
C341 H345 0.930 . S
C342 C341 1.369 . S
C342 C351 1.429 . S
C343 C341 1.419 . S
C343 C344 1.363 . S
C343 H346 0.929 . S
C344 C343 1.363 . S
C344 C350 1.428 . S
H345 C341 0.930 . S
H346 C343 0.929 . S
S347 N348 1.613 . S
S347 N349 1.610 . S
N348 S347 1.613 . S
N348 C351 1.350 . S
N349 S347 1.610 . S
N349 C350 1.351 . S
C350 C344 1.428 . S
C350 N349 1.351 . S
C350 C351 1.434 . S
C351 C342 1.429 . S
C351 N348 1.350 . S
C351 C350 1.434 . S
C352 C353 1.369 . S
C352 C354 1.419 . S
C352 H356 0.930 . S
C353 C352 1.369 . S
C353 C362 1.429 . S
C354 C352 1.419 . S
C354 C355 1.363 . S
C354 H357 0.929 . S
C355 C354 1.363 . S
C355 C361 1.428 . S
H356 C352 0.930 . S
H357 C354 0.929 . S
S358 N359 1.613 . S
S358 N360 1.610 . S
N359 S358 1.613 . S
N359 C362 1.350 . S
N360 S358 1.610 . S
N360 C361 1.351 . S
C361 C355 1.428 . S
C361 N360 1.351 . S
C361 C362 1.434 . S
C362 C353 1.429 . S
C362 N359 1.350 . S
C362 C361 1.434 . S
C363 C364 1.369 . S
C363 C365 1.419 . S
C363 H367 0.930 . S
C364 C363 1.369 . S
C364 C373 1.429 . S
C365 C363 1.419 . S
C365 C366 1.363 . S
C365 H368 0.929 . S
C366 C365 1.363 . S
C366 C372 1.428 . S
H367 C363 0.930 . S
H368 C365 0.929 . S
S369 N370 1.613 . S
S369 N371 1.610 . S
N370 S369 1.613 . S
N370 C373 1.350 . S
N371 S369 1.610 . S
N371 C372 1.351 . S
C372 C366 1.428 . S
C372 N371 1.351 . S
C372 C373 1.434 . S
C373 C364 1.429 . S
C373 N370 1.350 . S
C373 C372 1.434 . S
C374 C375 1.369 . S
C374 C376 1.419 . S
C374 H378 0.930 . S
C375 C374 1.369 . S
C375 C384 1.429 . S
C376 C374 1.419 . S
C376 C377 1.363 . S
C376 H379 0.929 . S
C377 C376 1.363 . S
C377 C383 1.428 . S
H378 C374 0.930 . S
H379 C376 0.929 . S
S380 N381 1.613 . S
S380 N382 1.610 . S
N381 S380 1.613 . S
N381 C384 1.350 . S
N382 S380 1.610 . S
N382 C383 1.351 . S
C383 C377 1.428 . S
C383 N382 1.351 . S
C383 C384 1.434 . S
C384 C375 1.429 . S
C384 N381 1.350 . S
C384 C383 1.434 . S
C385 C386 1.369 . S
C385 C387 1.419 . S
C385 H389 0.930 . S
C386 C385 1.369 . S
C386 C395 1.429 . S
C387 C385 1.419 . S
C387 C388 1.363 . S
C387 H390 0.929 . S
C388 C387 1.363 . S
C388 C394 1.428 . S
H389 C385 0.930 . S
H390 C387 0.929 . S
S391 N392 1.613 . S
S391 N393 1.610 . S
N392 S391 1.613 . S
N392 C395 1.350 . S
N393 S391 1.610 . S
N393 C394 1.351 . S
C394 C388 1.428 . S
C394 N393 1.351 . S
C394 C395 1.434 . S
C395 C386 1.429 . S
C395 N392 1.350 . S
C395 C394 1.434 . S
C396 C397 1.369 1_545 S
C396 C398 1.419 1_455 S
C396 H400 0.930 . S
C397 C396 1.369 1_565 S
C397 C406 1.429 . S
C398 C396 1.419 1_655 S
C398 C399 1.363 . S
C398 H401 0.929 . S
C399 C398 1.363 . S
C399 C405 1.428 . S
H400 C396 0.930 . S
H401 C398 0.929 . S
S402 N403 1.613 . S
S402 N404 1.611 1_455 S
N403 S402 1.613 . S
N403 C406 1.350 . S
N404 S402 1.611 1_655 S
N404 C405 1.351 1_565 S
C405 C399 1.428 . S
C405 N404 1.351 1_545 S
C405 C406 1.434 1_645 S
C406 C397 1.429 . S
C406 N403 1.350 . S
C406 C405 1.434 1_465 S
C407 C408 1.369 . S
C407 C409 1.419 1_445 S
C407 H411 0.930 . S
C408 C407 1.369 . S
C408 C417 1.429 . S
C409 C407 1.419 1_665 S
C409 C410 1.363 . S
C409 H412 0.929 . S
C410 C409 1.363 . S
C410 C416 1.428 1_655 S
H411 C407 0.930 . S
H412 C409 0.929 . S
S413 N414 1.613 . S
S413 N415 1.610 1_545 S
N414 S413 1.613 . S
N414 C417 1.350 . S
N415 S413 1.610 1_565 S
N415 C416 1.351 . S
C416 C410 1.428 1_455 S
C416 N415 1.351 . S
C416 C417 1.434 1_565 S
C417 C408 1.429 . S
C417 N414 1.350 . S
C417 C416 1.434 1_545 S
C418 C419 1.369 1_545 S
C418 C420 1.419 1_655 S
C418 H422 0.930 . S
C419 C418 1.369 1_565 S
C419 C428 1.429 . S
C420 C418 1.419 1_455 S
C420 C421 1.363 . S
C420 H423 0.929 . S
C421 C420 1.363 . S
C421 C427 1.418 1_545 S
H422 C418 0.930 . S
H423 C420 0.929 . S
S424 N425 1.613 1_455 S
S424 N426 1.610 . S
N425 S424 1.613 1_655 S
N425 C428 1.350 . S
N426 S424 1.610 . S
N426 C427 1.358 . S
C427 C421 1.418 1_565 S
C427 N426 1.358 . S
C427 C428 1.440 1_455 S
C428 C419 1.429 . S
C428 N425 1.350 . S
C428 C427 1.440 1_655 S
C429 C430 1.369 . S
C429 C431 1.419 1_465 S
C429 H433 0.930 1_455 S
C430 C429 1.369 . S
C430 C439 1.429 . S
C431 C429 1.419 1_645 S
C431 C432 1.363 . S
C431 H434 0.929 . S
C432 C431 1.363 . S
C432 C438 1.428 1_655 S
H433 C429 0.930 1_655 S
H434 C431 0.929 . S
S435 N436 1.613 1_545 S
S435 N437 1.610 . S
N436 S435 1.613 1_565 S
N436 C439 1.350 . S
N437 S435 1.610 . S
N437 C438 1.351 . S
C438 C432 1.428 1_455 S
C438 N437 1.351 . S
C438 C439 1.434 1_545 S
C439 C430 1.429 . S
C439 N436 1.350 . S
C439 C438 1.434 1_565 S
C440 C441 1.369 . S
C440 C442 1.419 . S
C440 H444 0.930 . S
C441 C440 1.369 . S
C441 C450 1.429 1_545 S
C442 C440 1.419 . S
C442 C443 1.363 . S
C442 H445 0.929 . S
C443 C442 1.363 . S
C443 C449 1.428 1_545 S
H444 C440 0.930 . S
H445 C442 0.929 . S
S446 N447 1.613 . S
S446 N448 1.610 . S
N447 S446 1.613 . S
N447 C450 1.350 . S
N448 S446 1.610 . S
N448 C449 1.351 . S
C449 C443 1.428 1_565 S
C449 N448 1.351 . S
C449 C450 1.434 . S
C450 C441 1.429 1_565 S
C450 N447 1.350 . S
C450 C449 1.434 . S
C451 C452 1.369 . S
C451 C453 1.419 . S
C451 H455 0.930 1_455 S
C452 C451 1.369 . S
C452 C461 1.429 . S
C453 C451 1.419 . S
C453 C454 1.363 . S
C453 H456 0.929 1_455 S
C454 C453 1.363 . S
C454 C460 1.428 . S
H455 C451 0.930 1_655 S
H456 C453 0.929 1_655 S
S457 N458 1.613 . S
S457 N459 1.610 . S
N458 S457 1.613 . S
N458 C461 1.350 . S
N459 S457 1.610 . S
N459 C460 1.351 . S
C460 C454 1.428 . S
C460 N459 1.351 . S
C460 C461 1.434 . S
C461 C452 1.429 . S
C461 N458 1.350 . S
C461 C460 1.434 . S
C462 C463 1.369 . S
C462 C464 1.419 . S
C462 H466 0.930 . S
C463 C462 1.369 . S
C463 C472 1.429 1_545 S
C464 C462 1.419 . S
C464 C465 1.363 . S
C464 H467 0.929 . S
C465 C464 1.363 . S
C465 C471 1.428 1_545 S
H466 C462 0.930 . S
H467 C464 0.929 . S
S468 N469 1.613 . S
S468 N470 1.610 . S
N469 S468 1.613 . S
N469 C472 1.350 . S
N470 S468 1.610 . S
N470 C471 1.351 . S
C471 C465 1.428 1_565 S
C471 N470 1.351 . S
C471 C472 1.434 . S
C472 C463 1.429 1_565 S
C472 N469 1.350 . S
C472 C471 1.434 . S
C473 C474 1.369 . S
C473 C475 1.419 . S
C473 H477 0.930 . S
C474 C473 1.369 . S
C474 C483 1.429 . S
C475 C473 1.419 . S
C475 C476 1.363 . S
C475 H478 0.929 . S
C476 C475 1.363 . S
C476 C482 1.428 . S
H477 C473 0.930 . S
H478 C475 0.929 . S
S479 N480 1.613 . S
S479 N481 1.610 . S
N480 S479 1.613 . S
N480 C483 1.350 . S
N481 S479 1.610 . S
N481 C482 1.351 . S
C482 C476 1.428 . S
C482 N481 1.351 . S
C482 C483 1.434 . S
C483 C474 1.429 . S
C483 N480 1.350 . S
C483 C482 1.434 . S
C265 C28 1.664 . S
C267 C160 1.664 . S
C276 C193 1.663 . S
C278 C61 1.663 . S
C287 C94 1.662 . S
C289 C226 1.662 . S
C298 C259 1.664 . S
C300 C127 1.664 . S
C309 C182 0.572 . S
C311 C17 0.571 . S
C320 C215 0.552 . S
C322 C50 0.558 . S
C331 C83 0.549 . S
C333 C248 0.552 . S
C342 C149 0.563 . S
C344 C116 0.567 . S
C353 C107 1.538 . S
C355 C206 1.539 . S
C364 C8 1.542 . S
C366 C239 1.542 . S
C375 C41 1.543 . S
C377 C140 1.542 . S
C386 C74 1.542 . S
C388 C173 1.542 . S
C397 N14 0.885 1_565 S
C399 N80 0.886 . S
C408 N47 0.884 . S
C410 N113 0.886 1_655 S
C419 N212 0.896 1_565 S
C421 N146 0.883 . S
C430 N245 0.886 . S
C432 N179 0.885 1_655 S
C441 N5 1.150 . S
C443 N71 1.156 . S
C452 N104 1.154 . S
C454 N38 1.151 . S
C463 N137 1.157 . S
C465 N203 1.151 . S
C474 N170 1.153 . S
C476 N236 1.155 . S
