# Generated by pormake.
# Topology rob, (6)-cn, num edge types: 1
# Building blocks:
#     Node 0, Type 0, BuildingBlock: BETFAJ_clean_sbu_0, # of connection points: 6
#     Node 1, Type 0, BuildingBlock: BETFAJ_clean_sbu_0, # of connection points: 6
#     Node 2, Type 0, BuildingBlock: BETFAJ_clean_sbu_0, # of connection points: 6
#     Node 3, Type 0, BuildingBlock: BETFAJ_clean_sbu_0, # of connection points: 6
#     Edge 4, Type (0, 0), BuildingBlock: FUNLAD_clean_linker_0, # of connection points: 2
#     Edge 5, Type (0, 0), BuildingBlock: FUNLAD_clean_linker_0, # of connection points: 2
#     Edge 6, Type (0, 0), BuildingBlock: FUNLAD_clean_linker_0, # of connection points: 2
#     Edge 7, Type (0, 0), BuildingBlock: FUNLAD_clean_linker_0, # of connection points: 2
#     Edge 8, Type (0, 0), BuildingBlock: FUNLAD_clean_linker_0, # of connection points: 2
#     Edge 9, Type (0, 0), BuildingBlock: FUNLAD_clean_linker_0, # of connection points: 2
#     Edge 10, Type (0, 0), BuildingBlock: FUNLAD_clean_linker_0, # of connection points: 2
#     Edge 11, Type (0, 0), BuildingBlock: FUNLAD_clean_linker_0, # of connection points: 2
#     Edge 12, Type (0, 0), BuildingBlock: FUNLAD_clean_linker_0, # of connection points: 2
#     Edge 13, Type (0, 0), BuildingBlock: FUNLAD_clean_linker_0, # of connection points: 2
#     Edge 14, Type (0, 0), BuildingBlock: FUNLAD_clean_linker_0, # of connection points: 2
#     Edge 15, Type (0, 0), BuildingBlock: FUNLAD_clean_linker_0, # of connection points: 2
# Relax obj value: 0.126
# Max RMSD: 0.181
# Mean RMSD: 0.181
data_MOF--net-rob--node1-BETFAJ_clean_sbu_0--edge1-FUNLAD_clean_linker_0
_symmetry_space_group_name_H-M    P1
_symmetry_Int_Tables_number       1
_symmetry_cell_setting            triclinic
loop_
_symmetry_equiv_pos_as_xyz
'x, y, z'
_cell_length_a     18.168567
_cell_length_b     28.589812
_cell_length_c     42.13313
_cell_angle_alpha  90.290517
_cell_angle_beta   122.16229
_cell_angle_gamma 89.842522
loop_
_atom_site_label
_atom_site_type_symbol
_atom_site_fract_x
_atom_site_fract_y
_atom_site_fract_z
_atom_type_partial_charge
Sm0 Sm 0.16073 0.29112 0.99166 0.0
Sm1 Sm 0.32876 0.2539 -0.00116 0.0
C2 C 0.02876 0.30519 0.00061 0.0
C3 C 0.01707 0.29918 0.03239 0.0
C4 C 0.06377 0.26477 0.05959 0.0
C5 C 0.05594 0.26086 0.09072 0.0
C6 C 0.00122 0.29128 0.09531 0.0
C7 C 0.95417 0.32553 0.06784 0.0
C8 C 0.96212 0.32943 0.03669 0.0
C9 C 0.26846 0.35832 0.99209 0.0
C10 C 0.33255 0.26455 0.07516 0.0
C11 C 0.46024 0.23998 0.98936 0.0
C12 C 0.47167 0.2402 0.95709 0.0
C13 C 0.43235 0.27449 0.92905 0.0
C14 C 0.44199 0.27333 0.89819 0.0
C15 C 0.49086 0.23773 0.89455 0.0
C16 C 0.52984 0.20343 0.92273 0.0
C17 C 0.52043 0.20474 0.95362 0.0
C18 C 0.22116 0.18658 -0.00165 0.0
C19 C 0.15329 0.27906 0.91508 0.0
O20 O 0.03839 0.26687 0.98605 0.0
O21 O 0.08233 0.33839 0.00446 0.0
O22 O 0.29279 0.32267 0.01279 0.0
O23 O 0.18414 0.36089 0.97129 0.0
O24 O 0.24727 0.26818 0.05308 0.0
O25 O 0.38377 0.2634 0.06171 0.0
O26 O 0.44467 0.28023 -0.00036 0.0
O27 O 0.4132 0.20594 0.99006 0.0
O28 O 0.19696 0.2223 0.97771 0.0
O29 O 0.3055 0.18385 0.01892 0.0
O30 O 0.23882 0.27438 0.93634 0.0
O31 O 0.1042 0.28094 0.92942 0.0
H32 H 0.10721 0.24124 0.05705 0.0
H33 H 0.09409 0.23457 0.11158 0.0
H34 H 0.91074 0.34916 0.0703 0.0
H35 H 0.92582 0.35631 0.01607 0.0
H36 H 0.39386 0.30215 0.93087 0.0
H37 H 0.41177 0.30065 0.87739 0.0
H38 H 0.56657 0.17497 0.92069 0.0
H39 H 0.55068 0.17769 0.97471 0.0
Sm40 Sm 0.66803 0.78832 0.9934 0.0
Sm41 Sm 0.82823 0.75158 0.99443 0.0
C42 C 0.54042 0.80198 0.00532 0.0
C43 C 0.52974 0.79649 0.03745 0.0
C44 C 0.56478 0.75778 0.06148 0.0
C45 C 0.55649 0.754 0.09253 0.0
C46 C 0.51381 0.78904 0.10035 0.0
C47 C 0.47898 0.82774 0.07626 0.0
C48 C 0.48673 0.83133 0.04507 0.0
C49 C 0.77552 0.85622 0.99451 0.0
C50 C 0.84498 0.7564 0.07344 0.0
C51 C 0.95538 0.73671 0.98238 0.0
C52 C 0.96597 0.74035 0.95007 0.0
C53 C 0.93604 0.77962 0.92648 0.0
C54 C 0.94447 0.78167 0.89537 0.0
C55 C 0.98211 0.74432 0.88704 0.0
C56 C 0.01178 0.70507 0.91068 0.0
C57 C 0.00401 0.70321 0.94194 0.0
C58 C 0.71983 0.68399 0.99322 0.0
C59 C 0.65218 0.78458 0.91453 0.0
O60 O 0.54879 0.76362 0.99041 0.0
O61 O 0.59318 0.83521 0.00843 0.0
O62 O 0.80032 0.81907 0.01347 0.0
O63 O 0.69128 0.85974 0.97525 0.0
O64 O 0.75942 0.76092 0.05364 0.0
O65 O 0.89106 0.75773 0.05764 0.0
O66 O 0.94649 0.77582 -0.00368 0.0
O67 O 0.90348 0.70364 0.98035 0.0
O68 O 0.69587 0.72103 0.97418 0.0
O69 O 0.80404 0.68039 0.01281 0.0
O70 O 0.73763 0.77956 0.93438 0.0
O71 O 0.60573 0.78307 0.93016 0.0
H72 H 0.5993 0.73067 0.05649 0.0
H73 H 0.58492 0.72407 0.11082 0.0
H74 H 0.44507 0.85508 0.08136 0.0
H75 H 0.45958 0.86155 0.02698 0.0
H76 H 0.90544 0.80856 0.93183 0.0
H77 H 0.92009 0.81212 0.87744 0.0
H78 H 0.04179 0.67595 0.9052 0.0
H79 H 0.02726 0.67255 0.95968 0.0
Sm80 Sm 0.33144 0.77323 0.49551 0.0
Sm81 Sm 0.16987 0.73665 0.49328 0.0
C82 C 0.46058 0.78779 0.48478 0.0
C83 C 0.47168 0.78713 0.45255 0.0
C84 C 0.43308 0.75227 0.42476 0.0
C85 C 0.44206 0.75322 0.39378 0.0
C86 C 0.48948 0.78915 0.38985 0.0
C87 C 0.52794 0.82396 0.41783 0.0
C88 C 0.51921 0.82287 0.44885 0.0
C89 C 0.22415 0.84112 0.49515 0.0
C90 C 0.15479 0.74268 0.41457 0.0
C91 C 0.0407 0.7225 0.50408 0.0
C92 C 0.02888 0.72557 0.53604 0.0
C93 C 0.07042 0.76046 0.56362 0.0
C94 C 0.06069 0.76186 0.5944 0.0
C95 C 0.00947 0.72829 0.59831 0.0
C96 C 0.96804 0.69345 0.57052 0.0
C97 C 0.97764 0.69218 0.53972 0.0
C98 C 0.27756 0.6689 0.49367 0.0
C99 C 0.34661 0.7669 0.57417 0.0
O100 O 0.44683 0.74759 0.49549 0.0
O101 O 0.41214 0.82145 0.4851 0.0
O102 O 0.19928 0.80431 0.47553 0.0
O103 O 0.3084 0.84428 0.51478 0.0
O104 O 0.24026 0.74765 0.43454 0.0
O105 O 0.10828 0.74342 0.43019 0.0
O106 O 0.05224 0.7619 0.4916 0.0
O107 O 0.09168 0.68904 0.50563 0.0
O108 O 0.30198 0.70566 0.51334 0.0
O109 O 0.19328 0.66562 0.47397 0.0
O110 O 0.26102 0.76261 0.55414 0.0
O111 O 0.39308 0.76577 0.55853 0.0
H112 H 0.39568 0.72439 0.42687 0.0
H113 H 0.41237 0.72554 0.37307 0.0
H114 H 0.56357 0.85263 0.41549 0.0
H115 H 0.54885 0.85031 0.46981 0.0
H116 H 0.11067 0.78656 0.56147 0.0
H117 H 0.0928 0.78948 0.61497 0.0
H118 H 0.92939 0.66654 0.57286 0.0
H119 H 0.94568 0.66474 0.51892 0.0
Sm120 Sm 0.83436 0.27185 0.49572 0.0
Sm121 Sm 0.6727 0.2392 0.49546 0.0
C122 C 0.96263 0.28327 0.48383 0.0
C123 C 0.97059 0.28427 0.45081 0.0
C124 C 0.9137 0.25841 0.41842 0.0
C125 C 0.91938 0.26116 0.38666 0.0
C126 C 0.98213 0.28992 0.38666 0.0
C127 C 0.03939 0.31555 0.41932 0.0
C128 C 0.03356 0.31275 0.45107 0.0
C129 C 0.72608 0.34197 0.49161 0.0
C130 C 0.65728 0.23726 0.41647 0.0
C131 C 0.54738 0.22954 0.50943 0.0
C132 C 0.53983 0.23382 0.54267 0.0
C133 C 0.57094 0.27341 0.5662 0.0
C134 C 0.56391 0.27643 0.5977 0.0
C135 C 0.52636 0.23979 0.60656 0.0
C136 C 0.49584 0.20012 0.58308 0.0
C137 C 0.50227 0.19728 0.55144 0.0
C138 C 0.7802 0.16906 0.49917 0.0
C139 C 0.85182 0.27219 0.57463 0.0
O140 O 0.94332 0.24293 0.49216 0.0
O141 O 0.92014 0.31812 0.48693 0.0
O142 O 0.70177 0.30368 0.474 0.0
O143 O 0.81026 0.34531 0.51118 0.0
O144 O 0.74278 0.24179 0.43636 0.0
O145 O 0.61019 0.24151 0.43176 0.0
O146 O 0.56 0.26804 0.49625 0.0
O147 O 0.59365 0.19446 0.50939 0.0
O148 O 0.80488 0.20724 0.51699 0.0
O149 O 0.69591 0.16573 0.4798 0.0
O150 O 0.76597 0.2694 0.55488 0.0
O151 O 0.8976 0.267 0.55891 0.0
H152 H 0.86443 0.23637 0.41758 0.0
H153 H 0.87353 0.24143 0.36188 0.0
H154 H 0.08915 0.33757 0.42046 0.0
H155 H 0.07797 0.33304 0.47579 0.0
H156 H 0.60109 0.30199 0.56042 0.0
H157 H 0.589 0.30721 0.61543 0.0
H158 H 0.46578 0.1715 0.58886 0.0
H159 H 0.47791 0.16639 0.53379 0.0
C160 C 0.6928 0.60896 0.01542 0.0
C161 C 0.66 0.6482 0.99201 0.0
C162 C 0.6365 0.57471 0.01417 0.0
C163 C 0.54594 0.57888 0.98916 0.0
C164 C 0.51339 0.61867 0.96624 0.0
C165 C 0.56977 0.65288 0.96751 0.0
C166 C 0.48321 0.54338 0.98672 0.0
C167 C 0.50471 0.49862 -0.00204 0.0
C168 C 0.44205 0.46326 -0.00431 0.0
C169 C 0.47447 0.42442 0.01965 0.0
C170 C 0.41812 0.39035 0.01855 0.0
C171 C 0.32809 0.39412 0.99312 0.0
H172 H 0.32412 0.49504 0.94996 0.0
C173 C 0.29545 0.43242 0.96866 0.0
C174 C 0.35175 0.46663 0.96982 0.0
H175 H 0.22632 0.43591 0.94848 0.0
H176 H 0.76212 0.60478 0.03491 0.0
H177 H 0.66453 0.54563 0.03331 0.0
H178 H 0.44403 0.62311 0.94698 0.0
H179 H 0.54268 0.68285 0.94916 0.0
H180 H 0.41657 0.55487 0.97475 0.0
H181 H 0.57128 0.48703 0.00998 0.0
H182 H 0.54367 0.42066 0.03961 0.0
H183 H 0.4451 0.36117 0.03777 0.0
C184 C 0.30355 0.59392 0.47047 0.0
C185 C 0.33692 0.6331 0.49423 0.0
C186 C 0.35943 0.55975 0.47102 0.0
C187 C 0.45012 0.56398 0.49559 0.0
C188 C 0.48323 0.60366 0.51886 0.0
C189 C 0.42728 0.63776 0.51835 0.0
C190 C 0.51239 0.52864 0.49716 0.0
C191 C 0.49116 0.48365 0.48627 0.0
C192 C 0.55349 0.44814 0.48807 0.0
C193 C 0.52035 0.40774 0.46566 0.0
C194 C 0.57628 0.37329 0.46661 0.0
C195 C 0.66669 0.37834 0.49028 0.0
H196 H 0.67288 0.48243 0.53085 0.0
C197 C 0.70013 0.41834 0.51306 0.0
C198 C 0.64428 0.45282 0.51213 0.0
H199 H 0.76962 0.42285 0.53191 0.0
H200 H 0.2341 0.58974 0.45128 0.0
H201 H 0.33104 0.53069 0.45166 0.0
H202 H 0.55272 0.60811 0.53782 0.0
H203 H 0.45481 0.66765 0.53696 0.0
H204 H 0.57847 0.54048 0.50833 0.0
H205 H 0.42505 0.47189 0.47516 0.0
H206 H 0.45082 0.40292 0.44711 0.0
H207 H 0.54871 0.34275 0.44876 0.0
C208 C 0.19484 0.11189 0.02122 0.0
C209 C 0.16176 0.15046 -0.00295 0.0
C210 C 0.139 0.07718 0.01972 0.0
C211 C 0.04871 0.08028 0.9938 0.0
C212 C 0.01578 0.11943 0.97019 0.0
C213 C 0.07171 0.15403 0.97162 0.0
C214 C 0.98667 0.04425 0.99115 0.0
C215 C 0.00898 0.99935 0.00176 0.0
C216 C 0.94709 0.96312 -0.00094 0.0
C217 C 0.9806 0.92287 0.02135 0.0
C218 C 0.92501 0.88802 0.01989 0.0
C219 C 0.83462 0.89254 -0.00418 0.0
H220 H 0.8276 0.99654 0.95571 0.0
C221 C 0.80087 0.93223 0.97297 0.0
C222 C 0.85638 0.9671 0.97441 0.0
H223 H 0.7314 0.9363 0.9538 0.0
H224 H 0.264 0.10856 0.0414 0.0
H225 H 0.16696 0.04855 0.03935 0.0
H226 H 0.94654 0.12299 0.95021 0.0
H227 H 0.04443 0.18341 0.95263 0.0
H228 H 0.91998 0.05544 0.97939 0.0
H229 H 0.07574 0.98831 0.01341 0.0
H230 H 0.05011 0.91857 0.04031 0.0
H231 H 0.95281 0.85769 0.03776 0.0
C232 C 0.80508 0.09267 0.47744 0.0
C233 C 0.83913 0.1326 0.50027 0.0
C234 C 0.8604 0.05805 0.47814 0.0
C235 C 0.95127 0.06251 0.502 0.0
C236 C 0.98504 0.10286 0.52444 0.0
C237 C 0.92962 0.13747 0.52372 0.0
C238 C 0.01302 0.02683 0.50354 0.0
C239 C 0.99123 0.9819 0.49256 0.0
C240 C 0.05296 0.94641 0.49388 0.0
C241 C 0.01928 0.90688 0.47046 0.0
C242 C 0.07477 0.87265 0.47074 0.0
C243 C 0.1652 0.87703 0.49479 0.0
H244 H 0.17252 0.97928 0.53783 0.0
C245 C 0.19912 0.91606 0.51868 0.0
C246 C 0.14372 0.95035 0.51836 0.0
H247 H 0.26863 0.92003 0.53782 0.0
H248 H 0.7355 0.08832 0.45875 0.0
H249 H 0.83131 0.02851 0.45938 0.0
H250 H 0.05465 0.10751 0.54282 0.0
H251 H 0.95763 0.16799 0.54155 0.0
H252 H 0.07918 0.0384 0.51451 0.0
H253 H 0.92512 0.97024 0.48152 0.0
H254 H 0.94973 0.90265 0.45156 0.0
H255 H 0.04684 0.84288 0.45203 0.0
C256 C 0.53022 0.24411 0.35027 0.0
C257 C 0.61535 0.22894 0.37581 0.0
C258 C 0.49601 0.24155 0.31165 0.0
C259 C 0.54655 0.22365 0.29802 0.0
C260 C 0.62943 0.20582 0.32362 0.0
C261 C 0.66363 0.20863 0.36207 0.0
C262 C 0.51604 0.22353 0.25756 0.0
C263 C 0.45948 0.25525 0.23331 0.0
C264 C 0.43024 0.2567 0.19306 0.0
C265 C 0.34833 0.27581 0.16786 0.0
C266 C 0.31768 0.27838 0.1298 0.0
C267 C 0.36874 0.26252 0.11593 0.0
H268 H 0.54703 0.22767 0.1983 0.0
C269 C 0.45187 0.24442 0.14117 0.0
C270 C 0.48237 0.24134 0.17947 0.0
H271 H 0.49274 0.23216 0.13129 0.0
H272 H 0.49131 0.25951 0.3601 0.0
H273 H 0.43041 0.25392 0.29272 0.0
H274 H 0.66912 0.19108 0.31393 0.0
H275 H 0.72867 0.1955 0.38109 0.0
H276 H 0.54419 0.1978 0.24799 0.0
H277 H 0.43172 0.28113 0.24294 0.0
H278 H 0.30731 0.2884 0.17758 0.0
H279 H 0.25376 0.29319 0.11126 0.0
C280 C 0.5222 0.82441 0.1569 0.0
C281 C 0.50597 0.78539 0.13362 0.0
C282 C 0.51465 0.82105 0.18816 0.0
C283 C 0.49049 0.77851 0.19681 0.0
C284 C 0.47318 0.73973 0.17325 0.0
C285 C 0.48154 0.74297 0.14219 0.0
C286 C 0.47966 0.77387 0.22927 0.0
C287 C 0.52456 0.7998 0.26077 0.0
C288 C 0.51439 0.79524 0.29342 0.0
C289 C 0.58402 0.80801 0.32915 0.0
C290 C 0.5764 0.80544 0.36041 0.0
C291 C 0.49828 0.79066 0.35663 0.0
H292 H 0.38007 0.77165 0.26227 0.0
C293 C 0.42826 0.77813 0.32075 0.0
C294 C 0.43615 0.78039 0.2895 0.0
H295 H 0.3665 0.76758 0.31659 0.0
H296 H 0.54137 0.85754 0.15108 0.0
H297 H 0.52622 0.85208 0.20502 0.0
H298 H 0.45355 0.70669 0.17899 0.0
H299 H 0.46751 0.71246 0.1245 0.0
H300 H 0.43647 0.74654 0.22776 0.0
H301 H 0.57398 0.82388 0.2637 0.0
H302 H 0.6449 0.81977 0.33298 0.0
H303 H 0.63211 0.81477 0.38761 0.0
C304 C 0.65824 0.79739 0.8574 0.0
C305 C 0.60851 0.79126 0.87365 0.0
C306 C 0.61801 0.80117 0.81864 0.0
C307 C 0.52697 0.79838 0.79519 0.0
C308 C 0.47714 0.79411 0.81151 0.0
C309 C 0.51744 0.79045 0.85037 0.0
C310 C 0.48186 0.7993 0.75372 0.0
C311 C 0.51969 0.78519 0.73512 0.0
C312 C 0.47327 0.78244 0.69365 0.0
C313 C 0.52206 0.78271 0.67668 0.0
C314 C 0.48115 0.77815 0.63782 0.0
C315 C 0.39051 0.77282 0.61519 0.0
H316 H 0.34263 0.77484 0.68288 0.0
C317 C 0.3417 0.77241 0.6322 0.0
C318 C 0.38252 0.77697 0.67096 0.0
H319 H 0.27182 0.76789 0.61568 0.0
H320 H 0.72855 0.79902 0.87457 0.0
H321 H 0.65871 0.80642 0.80738 0.0
H322 H 0.40684 0.79243 0.79408 0.0
H323 H 0.47726 0.78607 0.86203 0.0
H324 H 0.41421 0.81008 0.73825 0.0
H325 H 0.58732 0.77439 0.75062 0.0
H326 H 0.59215 0.78639 0.69355 0.0
H327 H 0.52069 0.77848 0.62563 0.0
C328 C 0.53775 0.20439 0.66371 0.0
C329 C 0.51836 0.24304 0.63997 0.0
C330 C 0.52914 0.2073 0.69481 0.0
C331 C 0.50062 0.249 0.70286 0.0
C332 C 0.48051 0.28741 0.67891 0.0
C333 C 0.48992 0.28464 0.64804 0.0
C334 C 0.48773 0.25316 0.73494 0.0
C335 C 0.53216 0.22759 0.76657 0.0
C336 C 0.52015 0.23197 0.79888 0.0
C337 C 0.58875 0.21903 0.83475 0.0
C338 C 0.57965 0.22143 0.86569 0.0
C339 C 0.50101 0.23621 0.86154 0.0
H340 H 0.38598 0.25575 0.76727 0.0
C341 C 0.43199 0.2489 0.82551 0.0
C342 C 0.44136 0.24683 0.79458 0.0
H343 H 0.36981 0.25949 0.82096 0.0
H344 H 0.56003 0.17185 0.65835 0.0
H345 H 0.54317 0.17649 0.71193 0.0
H346 H 0.45755 0.31982 0.68412 0.0
H347 H 0.47327 0.31486 0.63006 0.0
H348 H 0.44302 0.27994 0.733 0.0
H349 H 0.58274 0.20397 0.76994 0.0
H350 H 0.65008 0.20728 0.83896 0.0
H351 H 0.63478 0.212 0.89295 0.0
C352 C 0.8407 0.74969 0.13153 0.0
C353 C 0.88932 0.75044 0.11445 0.0
C354 C 0.88202 0.7459 0.17035 0.0
C355 C 0.97314 0.74237 0.19302 0.0
C356 C 0.02166 0.74295 0.17592 0.0
C357 C 0.98026 0.74675 0.13703 0.0
C358 C 0.0201 0.74086 0.23455 0.0
C359 C 0.98343 0.72681 0.25354 0.0
C360 C 0.02905 0.72877 0.29503 0.0
C361 C 0.97944 0.73221 0.31154 0.0
C362 C 0.01995 0.73621 0.35042 0.0
C363 C 0.11106 0.73657 0.37357 0.0
H364 H 0.16096 0.72298 0.30697 0.0
C365 C 0.16067 0.73159 0.35712 0.0
C366 C 0.12024 0.72749 0.31834 0.0
H367 H 0.23102 0.73094 0.37415 0.0
H368 H 0.77052 0.75282 0.11503 0.0
H369 H 0.84211 0.74721 0.1823 0.0
H370 H 0.09197 0.7407 0.19275 0.0
H371 H 0.01966 0.74735 0.12477 0.0
H372 H 0.08717 0.75262 0.24976 0.0
H373 H 0.91635 0.71508 0.23839 0.0
H374 H 0.90905 0.73278 0.29425 0.0
H375 H 0.97982 0.73969 0.36221 0.0
C376 C 0.97768 0.25348 0.33118 0.0
C377 C 0.98729 0.29344 0.35264 0.0
C378 C 0.98231 0.25676 0.29915 0.0
C379 C 0.99597 0.30033 0.28759 0.0
C380 C 0.00629 0.34013 0.3093 0.0
C381 C 0.00184 0.33681 0.34134 0.0
C382 C 0.00228 0.30593 0.2539 0.0
C383 C 0.97467 0.2738 0.22624 0.0
C384 C 0.98207 0.27968 0.19291 0.0
C385 C 0.98272 0.23956 0.17369 0.0
C386 C 0.98902 0.2433 0.14214 0.0
C387 C 0.99384 0.28738 0.12873 0.0
H388 H 0.98291 0.35579 0.19245 0.0
C389 C 0.99184 0.32764 0.14758 0.0
C390 C 0.98589 0.3239 0.17926 0.0
H391 H 0.99575 0.36214 0.13808 0.0
H392 H 0.96808 0.21938 0.3395 0.0
H393 H 0.97673 0.22481 0.28422 0.0
H394 H 0.01728 0.37414 0.30131 0.0
H395 H 0.00864 0.3684 0.35698 0.0
H396 H 0.03089 0.33825 0.25202 0.0
H397 H 0.94673 0.24119 0.22796 0.0
H398 H 0.97888 0.20506 0.18326 0.0
H399 H 0.98903 0.21159 0.12797 0.0
C400 C 0.84815 0.29051 0.63173 0.0
C401 C 0.89665 0.28046 0.61541 0.0
C402 C 0.8894 0.29621 0.67041 0.0
C403 C 0.98018 0.29142 0.69372 0.0
C404 C 0.02895 0.28313 0.6773 0.0
C405 C 0.98763 0.27755 0.6385 0.0
C406 C 0.02588 0.29462 0.73514 0.0
C407 C 0.98737 0.28366 0.75401 0.0
C408 C 0.03251 0.28435 0.79546 0.0
C409 C 0.98209 0.28733 0.81159 0.0
C410 C 0.02126 0.2862 0.85043 0.0
C411 C 0.11186 0.28167 0.87401 0.0
H412 H 0.16446 0.27589 0.80786 0.0
C413 C 0.16248 0.27866 0.85791 0.0
C414 C 0.12331 0.27983 0.81906 0.0
H415 H 0.23241 0.27472 0.87524 0.0
H416 H 0.77804 0.29383 0.61469 0.0
H417 H 0.84971 0.30459 0.68175 0.0
H418 H 0.09906 0.27986 0.6946 0.0
H419 H 0.0269 0.27015 0.62674 0.0
H420 H 0.09389 0.30464 0.75028 0.0
H421 H 0.91949 0.27327 0.73865 0.0
H422 H 0.91198 0.29045 0.79405 0.0
H423 H 0.98029 0.28849 0.86189 0.0
C424 C 0.07067 0.74074 0.66727 0.0
C425 C 0.99981 0.72925 0.63132 0.0
C426 C 0.06194 0.74067 0.69835 0.0
C427 C 0.98194 0.72913 0.69417 0.0
C428 C 0.9114 0.71748 0.65834 0.0
C429 C 0.91993 0.71784 0.62726 0.0
C430 C 0.97064 0.72679 0.72663 0.0
C431 C 0.01848 0.75199 0.75836 0.0
C432 C 0.00672 0.7494 0.79069 0.0
C433 C 0.02938 0.78821 0.81471 0.0
C434 C 0.02051 0.78679 0.8457 0.0
C435 C 0.99017 0.74615 0.85375 0.0
H436 H 0.96067 0.67755 0.7816 0.0
C437 C 0.96846 0.70708 0.83 0.0
C438 C 0.97653 0.70864 0.7988 0.0
H439 H 0.94468 0.6753 0.83541 0.0
H440 H 0.13366 0.74873 0.67164 0.0
H441 H 0.11864 0.74843 0.72565 0.0
H442 H 0.84913 0.70826 0.6543 0.0
H443 H 0.86359 0.70941 0.59999 0.0
H444 H 0.91812 0.70504 0.7234 0.0
H445 H 0.06526 0.77719 0.76022 0.0
H446 H 0.0537 0.81986 0.80939 0.0
H447 H 0.03884 0.81725 0.86376 0.0
loop_
_geom_bond_atom_site_label_1
_geom_bond_atom_site_label_2
_geom_bond_distance
_geom_bond_site_symmetry_2
_ccdc_geom_bond_type
Sm0 C2 2.854 . S
Sm0 O20 2.550 . S
Sm0 O21 2.457 . S
Sm0 O22 2.676 1_554 S
Sm0 O23 2.462 . S
Sm0 O24 2.400 . S
Sm0 O28 2.385 . S
Sm0 O31 2.400 1_554 S
Sm1 C11 2.846 . S
Sm1 O22 2.386 . S
Sm1 O25 2.408 1_556 S
Sm1 O26 2.542 . S
Sm1 O27 2.449 . S
Sm1 O28 2.681 1_556 S
Sm1 O29 2.464 . S
Sm1 O30 2.395 . S
C2 Sm0 2.854 . S
C2 C3 1.506 . S
C2 O20 1.261 . S
C2 O21 1.242 . S
C3 C2 1.506 . S
C3 C4 1.358 . S
C3 C8 1.382 . S
C4 C3 1.358 . S
C4 C5 1.385 . S
C4 H32 0.930 . S
C5 C4 1.385 . S
C5 C6 1.395 . S
C5 H33 0.929 . S
C6 C5 1.395 . S
C6 C7 1.335 . S
C7 C6 1.335 . S
C7 C8 1.398 . S
C7 H34 0.930 . S
C8 C3 1.382 . S
C8 C7 1.398 . S
C8 H35 0.929 . S
C9 O22 1.271 1_554 S
C9 O23 1.251 . S
C10 O24 1.252 . S
C10 O25 1.272 . S
C11 Sm1 2.846 . S
C11 C12 1.506 . S
C11 O26 1.261 . S
C11 O27 1.242 . S
C12 C11 1.506 . S
C12 C13 1.358 . S
C12 C17 1.382 . S
C13 C12 1.358 . S
C13 C14 1.385 . S
C13 H36 0.930 . S
C14 C13 1.385 . S
C14 C15 1.395 . S
C14 H37 0.929 . S
C15 C14 1.395 . S
C15 C16 1.335 . S
C16 C15 1.335 . S
C16 C17 1.398 . S
C16 H38 0.930 . S
C17 C12 1.382 . S
C17 C16 1.398 . S
C17 H39 0.929 . S
C18 O28 1.271 1_556 S
C18 O29 1.251 . S
C19 O30 1.252 . S
C19 O31 1.272 . S
O20 Sm0 2.550 . S
O20 C2 1.261 . S
O21 Sm0 2.457 . S
O21 C2 1.242 . S
O22 Sm0 2.676 1_556 S
O22 Sm1 2.386 . S
O22 C9 1.271 1_556 S
O23 Sm0 2.462 . S
O23 C9 1.251 . S
O24 Sm0 2.400 . S
O24 C10 1.252 . S
O25 Sm1 2.408 1_554 S
O25 C10 1.272 . S
O26 Sm1 2.542 . S
O26 C11 1.261 . S
O27 Sm1 2.449 . S
O27 C11 1.242 . S
O28 Sm0 2.385 . S
O28 Sm1 2.681 1_554 S
O28 C18 1.271 1_554 S
O29 Sm1 2.464 . S
O29 C18 1.251 . S
O30 Sm1 2.395 . S
O30 C19 1.252 . S
O31 Sm0 2.400 1_556 S
O31 C19 1.272 . S
H32 C4 0.930 . S
H33 C5 0.929 . S
H34 C7 0.930 . S
H35 C8 0.929 . S
H36 C13 0.930 . S
H37 C14 0.929 . S
H38 C16 0.930 . S
H39 C17 0.929 . S
Sm40 C42 2.854 . S
Sm40 O60 2.550 . S
Sm40 O61 2.457 . S
Sm40 O62 2.676 1_554 S
Sm40 O63 2.462 . S
Sm40 O64 2.400 . S
Sm40 O68 2.385 . S
Sm40 O71 2.400 1_554 S
Sm41 C51 2.846 . S
Sm41 O62 2.386 . S
Sm41 O65 2.408 1_556 S
Sm41 O66 2.542 . S
Sm41 O67 2.449 . S
Sm41 O68 2.681 1_556 S
Sm41 O69 2.464 . S
Sm41 O70 2.395 . S
C42 Sm40 2.854 . S
C42 C43 1.506 . S
C42 O60 1.261 . S
C42 O61 1.242 . S
C43 C42 1.506 . S
C43 C44 1.358 . S
C43 C48 1.382 . S
C44 C43 1.358 . S
C44 C45 1.385 . S
C44 H72 0.930 . S
C45 C44 1.385 . S
C45 C46 1.395 . S
C45 H73 0.929 . S
C46 C45 1.395 . S
C46 C47 1.335 . S
C47 C46 1.335 . S
C47 C48 1.398 . S
C47 H74 0.930 . S
C48 C43 1.382 . S
C48 C47 1.398 . S
C48 H75 0.929 . S
C49 O62 1.271 1_554 S
C49 O63 1.251 . S
C50 O64 1.252 . S
C50 O65 1.272 . S
C51 Sm41 2.846 . S
C51 C52 1.506 . S
C51 O66 1.261 . S
C51 O67 1.242 . S
C52 C51 1.506 . S
C52 C53 1.358 . S
C52 C57 1.382 . S
C53 C52 1.358 . S
C53 C54 1.385 . S
C53 H76 0.930 . S
C54 C53 1.385 . S
C54 C55 1.395 . S
C54 H77 0.929 . S
C55 C54 1.395 . S
C55 C56 1.335 . S
C56 C55 1.335 . S
C56 C57 1.398 . S
C56 H78 0.930 . S
C57 C52 1.382 . S
C57 C56 1.398 . S
C57 H79 0.929 . S
C58 O68 1.271 1_556 S
C58 O69 1.251 . S
C59 O70 1.252 . S
C59 O71 1.272 . S
O60 Sm40 2.550 . S
O60 C42 1.261 . S
O61 Sm40 2.457 . S
O61 C42 1.242 . S
O62 Sm40 2.676 1_556 S
O62 Sm41 2.386 . S
O62 C49 1.271 1_556 S
O63 Sm40 2.462 . S
O63 C49 1.251 . S
O64 Sm40 2.400 . S
O64 C50 1.252 . S
O65 Sm41 2.408 1_554 S
O65 C50 1.272 . S
O66 Sm41 2.542 . S
O66 C51 1.261 . S
O67 Sm41 2.449 . S
O67 C51 1.242 . S
O68 Sm40 2.385 . S
O68 Sm41 2.681 1_554 S
O68 C58 1.271 1_554 S
O69 Sm41 2.464 . S
O69 C58 1.251 . S
O70 Sm41 2.395 . S
O70 C59 1.252 . S
O71 Sm40 2.400 1_556 S
O71 C59 1.272 . S
H72 C44 0.930 . S
H73 C45 0.929 . S
H74 C47 0.930 . S
H75 C48 0.929 . S
H76 C53 0.930 . S
H77 C54 0.929 . S
H78 C56 0.930 . S
H79 C57 0.929 . S
Sm80 C82 2.846 . S
Sm80 O100 2.543 . S
Sm80 O101 2.450 . S
Sm80 O102 2.681 . S
Sm80 O103 2.464 . S
Sm80 O104 2.396 . S
Sm80 O108 2.386 . S
Sm80 O111 2.408 . S
Sm81 C91 2.846 . S
Sm81 O102 2.386 . S
Sm81 O105 2.408 . S
Sm81 O106 2.543 . S
Sm81 O107 2.450 . S
Sm81 O108 2.681 . S
Sm81 O109 2.464 . S
Sm81 O110 2.396 . S
C82 Sm80 2.846 . S
C82 C83 1.506 . S
C82 O100 1.261 . S
C82 O101 1.242 . S
C83 C82 1.506 . S
C83 C84 1.358 . S
C83 C88 1.382 . S
C84 C83 1.358 . S
C84 C85 1.385 . S
C84 H112 0.930 . S
C85 C84 1.385 . S
C85 C86 1.395 . S
C85 H113 0.929 . S
C86 C85 1.395 . S
C86 C87 1.335 . S
C87 C86 1.335 . S
C87 C88 1.398 . S
C87 H114 0.930 . S
C88 C83 1.382 . S
C88 C87 1.398 . S
C88 H115 0.929 . S
C89 O102 1.271 . S
C89 O103 1.251 . S
C90 O104 1.252 . S
C90 O105 1.272 . S
C91 Sm81 2.846 . S
C91 C92 1.506 . S
C91 O106 1.261 . S
C91 O107 1.242 . S
C92 C91 1.506 . S
C92 C93 1.358 . S
C92 C97 1.382 . S
C93 C92 1.358 . S
C93 C94 1.385 . S
C93 H116 0.930 . S
C94 C93 1.385 . S
C94 C95 1.395 . S
C94 H117 0.929 . S
C95 C94 1.395 . S
C95 C96 1.335 . S
C96 C95 1.335 . S
C96 C97 1.398 . S
C96 H118 0.930 . S
C97 C92 1.382 . S
C97 C96 1.398 . S
C97 H119 0.929 . S
C98 O108 1.271 . S
C98 O109 1.251 . S
C99 O110 1.252 . S
C99 O111 1.272 . S
O100 Sm80 2.543 . S
O100 C82 1.261 . S
O101 Sm80 2.450 . S
O101 C82 1.242 . S
O102 Sm80 2.681 . S
O102 Sm81 2.386 . S
O102 C89 1.271 . S
O103 Sm80 2.464 . S
O103 C89 1.251 . S
O104 Sm80 2.396 . S
O104 C90 1.252 . S
O105 Sm81 2.408 . S
O105 C90 1.272 . S
O106 Sm81 2.543 . S
O106 C91 1.261 . S
O107 Sm81 2.450 . S
O107 C91 1.242 . S
O108 Sm80 2.386 . S
O108 Sm81 2.681 . S
O108 C98 1.271 . S
O109 Sm81 2.464 . S
O109 C98 1.251 . S
O110 Sm81 2.396 . S
O110 C99 1.252 . S
O111 Sm80 2.408 . S
O111 C99 1.272 . S
H112 C84 0.930 . S
H113 C85 0.929 . S
H114 C87 0.930 . S
H115 C88 0.929 . S
H116 C93 0.930 . S
H117 C94 0.929 . S
H118 C96 0.930 . S
H119 C97 0.929 . S
Sm120 C122 2.846 . S
Sm120 O140 2.543 . S
Sm120 O141 2.450 . S
Sm120 O142 2.681 . S
Sm120 O143 2.464 . S
Sm120 O144 2.396 . S
Sm120 O148 2.386 . S
Sm120 O151 2.408 . S
Sm121 C131 2.846 . S
Sm121 O142 2.386 . S
Sm121 O145 2.408 . S
Sm121 O146 2.543 . S
Sm121 O147 2.450 . S
Sm121 O148 2.681 . S
Sm121 O149 2.464 . S
Sm121 O150 2.396 . S
C122 Sm120 2.846 . S
C122 C123 1.506 . S
C122 O140 1.261 . S
C122 O141 1.242 . S
C123 C122 1.506 . S
C123 C124 1.358 . S
C123 C128 1.382 . S
C124 C123 1.358 . S
C124 C125 1.385 . S
C124 H152 0.930 . S
C125 C124 1.385 . S
C125 C126 1.395 . S
C125 H153 0.929 . S
C126 C125 1.395 . S
C126 C127 1.335 . S
C127 C126 1.335 . S
C127 C128 1.398 . S
C127 H154 0.930 . S
C128 C123 1.382 . S
C128 C127 1.398 . S
C128 H155 0.929 . S
C129 O142 1.271 . S
C129 O143 1.251 . S
C130 O144 1.252 . S
C130 O145 1.272 . S
C131 Sm121 2.846 . S
C131 C132 1.506 . S
C131 O146 1.261 . S
C131 O147 1.242 . S
C132 C131 1.506 . S
C132 C133 1.358 . S
C132 C137 1.382 . S
C133 C132 1.358 . S
C133 C134 1.385 . S
C133 H156 0.930 . S
C134 C133 1.385 . S
C134 C135 1.395 . S
C134 H157 0.929 . S
C135 C134 1.395 . S
C135 C136 1.335 . S
C136 C135 1.335 . S
C136 C137 1.398 . S
C136 H158 0.930 . S
C137 C132 1.382 . S
C137 C136 1.398 . S
C137 H159 0.929 . S
C138 O148 1.271 . S
C138 O149 1.251 . S
C139 O150 1.252 . S
C139 O151 1.272 . S
O140 Sm120 2.543 . S
O140 C122 1.261 . S
O141 Sm120 2.450 . S
O141 C122 1.242 . S
O142 Sm120 2.681 . S
O142 Sm121 2.386 . S
O142 C129 1.271 . S
O143 Sm120 2.464 . S
O143 C129 1.251 . S
O144 Sm120 2.396 . S
O144 C130 1.252 . S
O145 Sm121 2.408 . S
O145 C130 1.272 . S
O146 Sm121 2.543 . S
O146 C131 1.261 . S
O147 Sm121 2.450 . S
O147 C131 1.242 . S
O148 Sm120 2.386 . S
O148 Sm121 2.681 . S
O148 C138 1.271 . S
O149 Sm121 2.464 . S
O149 C138 1.251 . S
O150 Sm121 2.396 . S
O150 C139 1.252 . S
O151 Sm120 2.408 . S
O151 C139 1.272 . S
H152 C124 0.930 . S
H153 C125 0.929 . S
H154 C127 0.930 . S
H155 C128 0.929 . S
H156 C133 0.930 . S
H157 C134 0.929 . S
H158 C136 0.930 . S
H159 C137 0.929 . S
C160 C161 1.386 1_554 S
C160 C162 1.383 . S
C160 H176 0.951 . S
C161 C160 1.386 1_556 S
C161 C165 1.383 . S
C162 C160 1.383 . S
C162 C163 1.403 1_554 S
C162 H177 0.951 . S
C163 C162 1.403 1_556 S
C163 C164 1.378 . S
C163 C166 1.478 1_556 S
C164 C163 1.378 . S
C164 C165 1.367 . S
C164 H178 0.951 . S
C165 C161 1.383 . S
C165 C164 1.367 . S
C165 H179 0.950 . S
C166 C163 1.478 1_554 S
C166 C167 1.296 . S
C166 H180 0.950 1_554 S
C167 C166 1.296 . S
C167 C168 1.479 . S
C167 H181 0.950 . S
C168 C167 1.479 . S
C168 C169 1.375 . S
C168 C174 1.406 1_554 S
C169 C168 1.375 . S
C169 C170 1.369 . S
C169 H182 0.950 . S
C170 C169 1.369 . S
C170 C171 1.392 . S
C170 H183 0.951 . S
C171 C170 1.392 . S
C171 C173 1.384 1_554 S
H172 C174 0.950 . S
C173 C171 1.384 1_556 S
C173 C174 1.382 . S
C173 H175 0.950 . S
C174 C168 1.406 1_556 S
C174 H172 0.950 . S
C174 C173 1.382 . S
H175 C173 0.950 . S
H176 C160 0.951 . S
H177 C162 0.951 . S
H178 C164 0.951 . S
H179 C165 0.950 . S
H180 C166 0.950 1_556 S
H181 C167 0.950 . S
H182 C169 0.950 . S
H183 C170 0.951 . S
C184 C185 1.386 . S
C184 C186 1.383 . S
C184 H200 0.951 . S
C185 C184 1.386 . S
C185 C189 1.383 . S
C186 C184 1.383 . S
C186 C187 1.402 . S
C186 H201 0.951 . S
C187 C186 1.402 . S
C187 C188 1.375 . S
C187 C190 1.481 . S
C188 C187 1.375 . S
C188 C189 1.367 . S
C188 H202 0.951 . S
C189 C185 1.383 . S
C189 C188 1.367 . S
C189 H203 0.950 . S
C190 C187 1.481 . S
C190 C191 1.297 . S
C190 H204 0.950 . S
C191 C190 1.297 . S
C191 C192 1.479 . S
C191 H205 0.950 . S
C192 C191 1.479 . S
C192 C193 1.375 . S
C192 C198 1.404 . S
C193 C192 1.375 . S
C193 C194 1.369 . S
C193 H206 0.950 . S
C194 C193 1.369 . S
C194 C195 1.392 . S
C194 H207 0.951 . S
C195 C194 1.392 . S
C195 C197 1.384 . S
H196 C198 0.949 . S
C197 C195 1.384 . S
C197 C198 1.385 . S
C197 H199 0.950 . S
C198 C192 1.404 . S
C198 H196 0.949 . S
C198 C197 1.385 . S
H199 C197 0.950 . S
H200 C184 0.951 . S
H201 C186 0.951 . S
H202 C188 0.951 . S
H203 C189 0.950 . S
H204 C190 0.950 . S
H205 C191 0.950 . S
H206 C193 0.950 . S
H207 C194 0.951 . S
C208 C209 1.386 1_554 S
C208 C210 1.383 . S
C208 H224 0.951 . S
C209 C208 1.386 1_556 S
C209 C213 1.383 . S
C210 C208 1.383 . S
C210 C211 1.402 1_554 S
C210 H225 0.951 . S
C211 C210 1.402 1_556 S
C211 C212 1.375 . S
C211 C214 1.481 1_455 S
C212 C211 1.375 . S
C212 C213 1.367 . S
C212 H226 0.951 1_455 S
C213 C209 1.383 . S
C213 C212 1.367 . S
C213 H227 0.950 . S
C214 C211 1.481 1_655 S
C214 C215 1.297 1_546 S
C214 H228 0.950 . S
C215 C214 1.297 1_564 S
C215 C216 1.479 . S
C215 H229 0.950 1_665 S
C216 C215 1.479 . S
C216 C217 1.375 . S
C216 C222 1.404 1_554 S
C217 C216 1.375 . S
C217 C218 1.369 . S
C217 H230 0.950 1_655 S
C218 C217 1.369 . S
C218 C219 1.392 . S
C218 H231 0.951 . S
C219 C218 1.392 . S
C219 C221 1.384 1_554 S
H220 C222 0.949 . S
C221 C219 1.384 1_556 S
C221 C222 1.385 . S
C221 H223 0.950 . S
C222 C216 1.404 1_556 S
C222 H220 0.949 . S
C222 C221 1.385 . S
H223 C221 0.950 . S
H224 C208 0.951 . S
H225 C210 0.951 . S
H226 C212 0.951 1_655 S
H227 C213 0.950 . S
H228 C214 0.950 . S
H229 C215 0.950 1_445 S
H230 C217 0.950 1_455 S
H231 C218 0.951 . S
C232 C233 1.386 . S
C232 C234 1.383 . S
C232 H248 0.951 . S
C233 C232 1.386 . S
C233 C237 1.383 . S
C234 C232 1.383 . S
C234 C235 1.402 . S
C234 H249 0.951 . S
C235 C234 1.402 . S
C235 C236 1.375 . S
C235 C238 1.481 1_655 S
C236 C235 1.375 . S
C236 C237 1.367 . S
C236 H250 0.951 1_655 S
C237 C233 1.383 . S
C237 C236 1.367 . S
C237 H251 0.950 . S
C238 C235 1.481 1_455 S
C238 C239 1.296 . S
C238 H252 0.950 . S
C239 C238 1.296 . S
C239 C240 1.481 1_545 S
C239 H253 0.950 1_455 S
C240 C239 1.481 1_565 S
C240 C241 1.375 . S
C240 C246 1.404 . S
C241 C240 1.375 . S
C241 C242 1.369 . S
C241 H254 0.950 1_455 S
C242 C241 1.369 . S
C242 C243 1.392 . S
C242 H255 0.951 . S
C243 C242 1.392 . S
C243 C245 1.384 . S
H244 C246 0.949 . S
C245 C243 1.384 . S
C245 C246 1.385 . S
C245 H247 0.950 . S
C246 C240 1.404 . S
C246 H244 0.949 . S
C246 C245 1.385 . S
H247 C245 0.950 . S
H248 C232 0.951 . S
H249 C234 0.951 . S
H250 C236 0.951 1_455 S
H251 C237 0.950 . S
H252 C238 0.950 . S
H253 C239 0.950 1_655 S
H254 C241 0.950 1_655 S
H255 C242 0.951 . S
C256 C257 1.386 . S
C256 C258 1.383 . S
C256 H272 0.951 . S
C257 C256 1.386 . S
C257 C261 1.383 . S
C258 C256 1.383 . S
C258 C259 1.402 . S
C258 H273 0.951 . S
C259 C258 1.402 . S
C259 C260 1.375 . S
C259 C262 1.481 . S
C260 C259 1.375 . S
C260 C261 1.367 . S
C260 H274 0.951 . S
C261 C257 1.383 . S
C261 C260 1.367 . S
C261 H275 0.950 . S
C262 C259 1.481 . S
C262 C263 1.297 . S
C262 H276 0.950 . S
C263 C262 1.297 . S
C263 C264 1.479 . S
C263 H277 0.950 . S
C264 C263 1.479 . S
C264 C265 1.375 . S
C264 C270 1.404 . S
C265 C264 1.375 . S
C265 C266 1.369 . S
C265 H278 0.950 . S
C266 C265 1.369 . S
C266 C267 1.392 . S
C266 H279 0.951 . S
C267 C266 1.392 . S
C267 C269 1.384 . S
H268 C270 0.949 . S
C269 C267 1.384 . S
C269 C270 1.385 . S
C269 H271 0.950 . S
C270 C264 1.404 . S
C270 H268 0.949 . S
C270 C269 1.385 . S
H271 C269 0.950 . S
H272 C256 0.951 . S
H273 C258 0.951 . S
H274 C260 0.951 . S
H275 C261 0.950 . S
H276 C262 0.950 . S
H277 C263 0.950 . S
H278 C265 0.950 . S
H279 C266 0.951 . S
C280 C281 1.386 . S
C280 C282 1.383 . S
C280 H296 0.951 . S
C281 C280 1.386 . S
C281 C285 1.383 . S
C282 C280 1.383 . S
C282 C283 1.402 . S
C282 H297 0.951 . S
C283 C282 1.402 . S
C283 C284 1.375 . S
C283 C286 1.481 . S
C284 C283 1.375 . S
C284 C285 1.367 . S
C284 H298 0.951 . S
C285 C281 1.383 . S
C285 C284 1.367 . S
C285 H299 0.950 . S
C286 C283 1.481 . S
C286 C287 1.297 . S
C286 H300 0.950 . S
C287 C286 1.297 . S
C287 C288 1.479 . S
C287 H301 0.950 . S
C288 C287 1.479 . S
C288 C289 1.375 . S
C288 C294 1.404 . S
C289 C288 1.375 . S
C289 C290 1.369 . S
C289 H302 0.950 . S
C290 C289 1.369 . S
C290 C291 1.392 . S
C290 H303 0.951 . S
C291 C290 1.392 . S
C291 C293 1.384 . S
H292 C294 0.949 . S
C293 C291 1.384 . S
C293 C294 1.385 . S
C293 H295 0.950 . S
C294 C288 1.404 . S
C294 H292 0.949 . S
C294 C293 1.385 . S
H295 C293 0.950 . S
H296 C280 0.951 . S
H297 C282 0.951 . S
H298 C284 0.951 . S
H299 C285 0.950 . S
H300 C286 0.950 . S
H301 C287 0.950 . S
H302 C289 0.950 . S
H303 C290 0.951 . S
C304 C305 1.386 . S
C304 C306 1.383 . S
C304 H320 0.951 . S
C305 C304 1.386 . S
C305 C309 1.383 . S
C306 C304 1.383 . S
C306 C307 1.402 . S
C306 H321 0.951 . S
C307 C306 1.402 . S
C307 C308 1.375 . S
C307 C310 1.481 . S
C308 C307 1.375 . S
C308 C309 1.367 . S
C308 H322 0.951 . S
C309 C305 1.383 . S
C309 C308 1.367 . S
C309 H323 0.950 . S
C310 C307 1.481 . S
C310 C311 1.297 . S
C310 H324 0.950 . S
C311 C310 1.297 . S
C311 C312 1.479 . S
C311 H325 0.950 . S
C312 C311 1.479 . S
C312 C313 1.375 . S
C312 C318 1.404 . S
C313 C312 1.375 . S
C313 C314 1.369 . S
C313 H326 0.950 . S
C314 C313 1.369 . S
C314 C315 1.392 . S
C314 H327 0.951 . S
C315 C314 1.392 . S
C315 C317 1.384 . S
H316 C318 0.949 . S
C317 C315 1.384 . S
C317 C318 1.385 . S
C317 H319 0.950 . S
C318 C312 1.404 . S
C318 H316 0.949 . S
C318 C317 1.385 . S
H319 C317 0.950 . S
H320 C304 0.951 . S
H321 C306 0.951 . S
H322 C308 0.951 . S
H323 C309 0.950 . S
H324 C310 0.950 . S
H325 C311 0.950 . S
H326 C313 0.950 . S
H327 C314 0.951 . S
C328 C329 1.386 . S
C328 C330 1.383 . S
C328 H344 0.951 . S
C329 C328 1.386 . S
C329 C333 1.383 . S
C330 C328 1.383 . S
C330 C331 1.402 . S
C330 H345 0.951 . S
C331 C330 1.402 . S
C331 C332 1.375 . S
C331 C334 1.481 . S
C332 C331 1.375 . S
C332 C333 1.367 . S
C332 H346 0.951 . S
C333 C329 1.383 . S
C333 C332 1.367 . S
C333 H347 0.950 . S
C334 C331 1.481 . S
C334 C335 1.297 . S
C334 H348 0.950 . S
C335 C334 1.297 . S
C335 C336 1.479 . S
C335 H349 0.950 . S
C336 C335 1.479 . S
C336 C337 1.375 . S
C336 C342 1.404 . S
C337 C336 1.375 . S
C337 C338 1.369 . S
C337 H350 0.950 . S
C338 C337 1.369 . S
C338 C339 1.392 . S
C338 H351 0.951 . S
C339 C338 1.392 . S
C339 C341 1.384 . S
H340 C342 0.949 . S
C341 C339 1.384 . S
C341 C342 1.385 . S
C341 H343 0.950 . S
C342 C336 1.404 . S
C342 H340 0.949 . S
C342 C341 1.385 . S
H343 C341 0.950 . S
H344 C328 0.951 . S
H345 C330 0.951 . S
H346 C332 0.951 . S
H347 C333 0.950 . S
H348 C334 0.950 . S
H349 C335 0.950 . S
H350 C337 0.950 . S
H351 C338 0.951 . S
C352 C353 1.386 . S
C352 C354 1.383 . S
C352 H368 0.951 . S
C353 C352 1.386 . S
C353 C357 1.383 . S
C354 C352 1.383 . S
C354 C355 1.402 . S
C354 H369 0.951 . S
C355 C354 1.402 . S
C355 C356 1.375 1_655 S
C355 C358 1.481 1_655 S
C356 C355 1.375 1_455 S
C356 C357 1.367 1_455 S
C356 H370 0.951 . S
C357 C353 1.383 . S
C357 C356 1.367 1_655 S
C357 H371 0.950 . S
C358 C355 1.481 1_455 S
C358 C359 1.297 1_455 S
C358 H372 0.950 . S
C359 C358 1.297 1_655 S
C359 C360 1.479 1_655 S
C359 H373 0.950 . S
C360 C359 1.479 1_455 S
C360 C361 1.375 1_455 S
C360 C366 1.404 . S
C361 C360 1.375 1_655 S
C361 C362 1.369 1_655 S
C361 H374 0.950 . S
C362 C361 1.369 1_455 S
C362 C363 1.392 . S
C362 H375 0.951 1_455 S
C363 C362 1.392 . S
C363 C365 1.384 . S
H364 C366 0.949 . S
C365 C363 1.384 . S
C365 C366 1.385 . S
C365 H367 0.950 . S
C366 C360 1.404 . S
C366 H364 0.949 . S
C366 C365 1.385 . S
H367 C365 0.950 . S
H368 C352 0.951 . S
H369 C354 0.951 . S
H370 C356 0.951 . S
H371 C357 0.950 . S
H372 C358 0.950 . S
H373 C359 0.950 . S
H374 C361 0.950 . S
H375 C362 0.951 1_655 S
C376 C377 1.386 . S
C376 C378 1.383 . S
C376 H392 0.951 . S
C377 C376 1.386 . S
C377 C381 1.383 . S
C378 C376 1.383 . S
C378 C379 1.402 . S
C378 H393 0.951 . S
C379 C378 1.402 . S
C379 C380 1.375 . S
C379 C382 1.481 . S
C380 C379 1.375 . S
C380 C381 1.367 . S
C380 H394 0.951 . S
C381 C377 1.383 . S
C381 C380 1.367 . S
C381 H395 0.950 . S
C382 C379 1.481 . S
C382 C383 1.297 . S
C382 H396 0.950 . S
C383 C382 1.297 . S
C383 C384 1.479 . S
C383 H397 0.950 . S
C384 C383 1.479 . S
C384 C385 1.375 . S
C384 C390 1.404 . S
C385 C384 1.375 . S
C385 C386 1.369 1_655 S
C385 H398 0.950 . S
C386 C385 1.369 1_455 S
C386 C387 1.392 . S
C386 H399 0.951 . S
C387 C386 1.392 . S
C387 C389 1.384 . S
H388 C390 0.949 . S
C389 C387 1.384 . S
C389 C390 1.385 1_455 S
C389 H391 0.950 . S
C390 C384 1.404 . S
C390 H388 0.949 . S
C390 C389 1.385 1_655 S
H391 C389 0.950 . S
H392 C376 0.951 . S
H393 C378 0.951 . S
H394 C380 0.951 . S
H395 C381 0.950 . S
H396 C382 0.950 . S
H397 C383 0.950 . S
H398 C385 0.950 . S
H399 C386 0.951 . S
C400 C401 1.386 . S
C400 C402 1.383 . S
C400 H416 0.951 . S
C401 C400 1.386 . S
C401 C405 1.383 . S
C402 C400 1.383 . S
C402 C403 1.402 . S
C402 H417 0.951 . S
C403 C402 1.402 . S
C403 C404 1.375 1_655 S
C403 C406 1.481 1_655 S
C404 C403 1.375 1_455 S
C404 C405 1.367 1_455 S
C404 H418 0.951 . S
C405 C401 1.383 . S
C405 C404 1.367 1_655 S
C405 H419 0.950 1_655 S
C406 C403 1.481 1_455 S
C406 C407 1.297 1_455 S
C406 H420 0.950 . S
C407 C406 1.297 1_655 S
C407 C408 1.479 1_655 S
C407 H421 0.950 . S
C408 C407 1.479 1_455 S
C408 C409 1.375 1_455 S
C408 C414 1.404 . S
C409 C408 1.375 1_655 S
C409 C410 1.369 1_655 S
C409 H422 0.950 . S
C410 C409 1.369 1_455 S
C410 C411 1.392 . S
C410 H423 0.951 1_455 S
C411 C410 1.392 . S
C411 C413 1.384 . S
H412 C414 0.949 . S
C413 C411 1.384 . S
C413 C414 1.385 . S
C413 H415 0.950 . S
C414 C408 1.404 . S
C414 H412 0.949 . S
C414 C413 1.385 . S
H415 C413 0.950 . S
H416 C400 0.951 . S
H417 C402 0.951 . S
H418 C404 0.951 . S
H419 C405 0.950 1_455 S
H420 C406 0.950 . S
H421 C407 0.950 . S
H422 C409 0.950 . S
H423 C410 0.951 1_655 S
C424 C425 1.386 . S
C424 C426 1.383 . S
C424 H440 0.951 . S
C425 C424 1.386 . S
C425 C429 1.383 1_455 S
C426 C424 1.383 . S
C426 C427 1.402 1_455 S
C426 H441 0.951 . S
C427 C426 1.402 1_655 S
C427 C428 1.375 . S
C427 C430 1.481 . S
C428 C427 1.375 . S
C428 C429 1.367 . S
C428 H442 0.951 . S
C429 C425 1.383 1_655 S
C429 C428 1.367 . S
C429 H443 0.950 . S
C430 C427 1.481 . S
C430 C431 1.297 1_655 S
C430 H444 0.950 . S
C431 C430 1.297 1_455 S
C431 C432 1.479 1_455 S
C431 H445 0.950 . S
C432 C431 1.479 1_655 S
C432 C433 1.375 1_655 S
C432 C438 1.404 . S
C433 C432 1.375 1_455 S
C433 C434 1.369 . S
C433 H446 0.950 . S
C434 C433 1.369 . S
C434 C435 1.392 1_455 S
C434 H447 0.951 . S
C435 C434 1.392 1_655 S
C435 C437 1.384 . S
H436 C438 0.949 . S
C437 C435 1.384 . S
C437 C438 1.385 . S
C437 H439 0.950 . S
C438 C432 1.404 . S
C438 H436 0.949 . S
C438 C437 1.385 . S
H439 C437 0.950 . S
H440 C424 0.951 . S
H441 C426 0.951 . S
H442 C428 0.951 . S
H443 C429 0.950 . S
H444 C430 0.950 . S
H445 C431 0.950 . S
H446 C433 0.950 . S
H447 C434 0.951 . S
C161 C58 1.560 . S
C171 C9 1.534 . S
C185 C98 1.554 . S
C195 C129 1.550 . S
C209 C18 1.561 . S
C219 C49 1.521 . S
C233 C138 1.559 . S
C243 C89 1.517 . S
C257 C130 1.628 . S
C267 C10 1.600 . S
C281 C46 0.946 . S
C291 C86 0.934 . S
C305 C59 1.608 . S
C315 C99 1.606 . S
C329 C135 0.922 . S
C339 C15 0.921 . S
C353 C50 1.633 . S
C363 C90 1.627 . S
C377 C126 0.931 . S
C387 C6 0.947 . S
C401 C139 1.615 . S
C411 C19 1.595 . S
C425 C95 0.937 . S
C435 C55 0.899 . S
