# Generated by pormake.
# Topology wjy, (5)-cn, num edge types: 1
# Building blocks:
#     Node 0, Type 0, BuildingBlock: BEQFEK_clean_sbu_0, # of connection points: 5
#     Node 1, Type 0, BuildingBlock: BEQFEK_clean_sbu_0, # of connection points: 5
#     Node 2, Type 0, BuildingBlock: BEQFEK_clean_sbu_0, # of connection points: 5
#     Node 3, Type 0, BuildingBlock: BEQFEK_clean_sbu_0, # of connection points: 5
#     Node 4, Type 0, BuildingBlock: BEQFEK_clean_sbu_0, # of connection points: 5
#     Node 5, Type 0, BuildingBlock: BEQFEK_clean_sbu_0, # of connection points: 5
#     Node 6, Type 0, BuildingBlock: BEQFEK_clean_sbu_0, # of connection points: 5
#     Node 7, Type 0, BuildingBlock: BEQFEK_clean_sbu_0, # of connection points: 5
#     Node 8, Type 0, BuildingBlock: BEQFEK_clean_sbu_0, # of connection points: 5
#     Node 9, Type 0, BuildingBlock: BEQFEK_clean_sbu_0, # of connection points: 5
#     Node 10, Type 0, BuildingBlock: BEQFEK_clean_sbu_0, # of connection points: 5
#     Node 11, Type 0, BuildingBlock: BEQFEK_clean_sbu_0, # of connection points: 5
#     Edge 12, Type (0, 0), BuildingBlock: MIFKUJ_clean_linker_0, # of connection points: 2
#     Edge 13, Type (0, 0), BuildingBlock: MIFKUJ_clean_linker_0, # of connection points: 2
#     Edge 14, Type (0, 0), BuildingBlock: MIFKUJ_clean_linker_0, # of connection points: 2
#     Edge 15, Type (0, 0), BuildingBlock: MIFKUJ_clean_linker_0, # of connection points: 2
#     Edge 16, Type (0, 0), BuildingBlock: MIFKUJ_clean_linker_0, # of connection points: 2
#     Edge 17, Type (0, 0), BuildingBlock: MIFKUJ_clean_linker_0, # of connection points: 2
#     Edge 18, Type (0, 0), BuildingBlock: MIFKUJ_clean_linker_0, # of connection points: 2
#     Edge 19, Type (0, 0), BuildingBlock: MIFKUJ_clean_linker_0, # of connection points: 2
#     Edge 20, Type (0, 0), BuildingBlock: MIFKUJ_clean_linker_0, # of connection points: 2
#     Edge 21, Type (0, 0), BuildingBlock: MIFKUJ_clean_linker_0, # of connection points: 2
#     Edge 22, Type (0, 0), BuildingBlock: MIFKUJ_clean_linker_0, # of connection points: 2
#     Edge 23, Type (0, 0), BuildingBlock: MIFKUJ_clean_linker_0, # of connection points: 2
#     Edge 24, Type (0, 0), BuildingBlock: MIFKUJ_clean_linker_0, # of connection points: 2
#     Edge 25, Type (0, 0), BuildingBlock: MIFKUJ_clean_linker_0, # of connection points: 2
#     Edge 26, Type (0, 0), BuildingBlock: MIFKUJ_clean_linker_0, # of connection points: 2
#     Edge 27, Type (0, 0), BuildingBlock: MIFKUJ_clean_linker_0, # of connection points: 2
#     Edge 28, Type (0, 0), BuildingBlock: MIFKUJ_clean_linker_0, # of connection points: 2
#     Edge 29, Type (0, 0), BuildingBlock: MIFKUJ_clean_linker_0, # of connection points: 2
#     Edge 30, Type (0, 0), BuildingBlock: MIFKUJ_clean_linker_0, # of connection points: 2
#     Edge 31, Type (0, 0), BuildingBlock: MIFKUJ_clean_linker_0, # of connection points: 2
#     Edge 32, Type (0, 0), BuildingBlock: MIFKUJ_clean_linker_0, # of connection points: 2
#     Edge 33, Type (0, 0), BuildingBlock: MIFKUJ_clean_linker_0, # of connection points: 2
#     Edge 34, Type (0, 0), BuildingBlock: MIFKUJ_clean_linker_0, # of connection points: 2
#     Edge 35, Type (0, 0), BuildingBlock: MIFKUJ_clean_linker_0, # of connection points: 2
#     Edge 36, Type (0, 0), BuildingBlock: MIFKUJ_clean_linker_0, # of connection points: 2
#     Edge 37, Type (0, 0), BuildingBlock: MIFKUJ_clean_linker_0, # of connection points: 2
#     Edge 38, Type (0, 0), BuildingBlock: MIFKUJ_clean_linker_0, # of connection points: 2
#     Edge 39, Type (0, 0), BuildingBlock: MIFKUJ_clean_linker_0, # of connection points: 2
#     Edge 40, Type (0, 0), BuildingBlock: MIFKUJ_clean_linker_0, # of connection points: 2
#     Edge 41, Type (0, 0), BuildingBlock: MIFKUJ_clean_linker_0, # of connection points: 2
# Relax obj value: 0.123
# Max RMSD: 0.152
# Mean RMSD: 0.152
data_MOF--net-wjy--node1-BEQFEK_clean_sbu_0--edge1-MIFKUJ_clean_linker_0
_symmetry_space_group_name_H-M    P1
_symmetry_Int_Tables_number       1
_symmetry_cell_setting            triclinic
loop_
_symmetry_equiv_pos_as_xyz
'x, y, z'
_cell_length_a     94.332551
_cell_length_b     94.354869
_cell_length_c     23.284989
_cell_angle_alpha  89.994717
_cell_angle_beta   89.977806
_cell_angle_gamma 119.99767
loop_
_atom_site_label
_atom_site_type_symbol
_atom_site_fract_x
_atom_site_fract_y
_atom_site_fract_z
_atom_type_partial_charge
Co0 Co 0.45438 0.11125 0.16841 0.0
Co1 Co 0.46818 0.11748 0.044 0.0
C2 C 0.44 0.08459 0.08351 0.0
O3 O 0.43944 0.08955 0.13391 0.0
O4 O 0.45052 0.09413 0.04703 0.0
C5 C 0.43536 0.10309 0.27589 0.0
O6 O 0.42318 0.09056 0.24993 0.0
C7 C 0.46309 0.11823 0.92201 0.0
C8 C 0.48822 0.13114 0.88671 0.0
C9 C 0.47185 0.12363 0.87121 0.0
N10 N 0.47379 0.1225 0.9655 0.0
N11 N 0.48879 0.13026 0.94434 0.0
C12 C 0.44495 0.10783 0.92969 0.0
H13 H 0.44148 0.09478 0.92512 0.0
H14 H 0.44135 0.10964 0.97324 0.0
H15 H 0.43806 0.11049 0.89719 0.0
C16 C 0.45099 0.14012 0.14064 0.0
N17 N 0.45476 0.12857 0.1261 0.0
N18 N 0.46106 0.13158 0.07414 0.0
C19 C 0.46171 0.14532 0.05413 0.0
C20 C 0.4553 0.15115 0.09554 0.0
C21 C 0.4448 0.14131 0.19858 0.0
H22 H 0.45397 0.14294 0.23161 0.0
H23 H 0.43335 0.12971 0.20815 0.0
H24 H 0.44245 0.15169 0.20127 0.0
O25 O 0.47677 0.11437 0.17434 0.0
O26 O 0.48749 0.12008 0.08686 0.0
H27 H 0.48066 0.15397 0.99059 0.0
H28 H 0.46938 0.16486 0.99139 0.0
C29 C 0.46843 0.15274 0.9966 0.0
H30 H 0.4602 0.14451 0.96266 0.0
H31 H 0.4994 0.13476 0.96913 0.0
O32 O 0.44837 0.11238 0.24833 0.0
C33 C 0.48867 0.11798 0.14031 0.0
Co34 Co 0.34667 0.45791 0.3316 0.0
Co35 Co 0.35285 0.47028 0.20495 0.0
C36 C 0.35933 0.44367 0.24586 0.0
O37 O 0.3539 0.44334 0.29619 0.0
O38 O 0.35979 0.45366 0.2082 0.0
C39 C 0.34172 0.44055 0.43916 0.0
O40 O 0.34848 0.43294 0.41394 0.0
C41 C 0.34977 0.46632 0.08084 0.0
C42 C 0.35341 0.49018 0.05134 0.0
C43 C 0.34979 0.47482 0.03229 0.0
N44 N 0.35285 0.47606 0.12667 0.0
N45 N 0.35513 0.49036 0.10882 0.0
C46 C 0.3479 0.4496 0.08416 0.0
H47 H 0.35952 0.45076 0.09993 0.0
H48 H 0.33814 0.44203 0.11547 0.0
H49 H 0.34522 0.44334 0.04209 0.0
C50 C 0.31412 0.4541 0.30722 0.0
N51 N 0.32921 0.45756 0.29067 0.0
N52 N 0.33152 0.46223 0.23665 0.0
C53 C 0.31774 0.46146 0.21649 0.0
C54 C 0.30627 0.45643 0.26067 0.0
C55 C 0.30822 0.45043 0.36806 0.0
H56 H 0.31784 0.45941 0.39708 0.0
H57 H 0.30599 0.43807 0.37976 0.0
H58 H 0.29688 0.45097 0.3748 0.0
O59 O 0.36527 0.48066 0.33644 0.0
O60 O 0.36932 0.49003 0.24696 0.0
H61 H 0.32283 0.4784 0.14787 0.0
H62 H 0.30242 0.46077 0.14583 0.0
C63 C 0.31545 0.46503 0.15564 0.0
H64 H 0.31973 0.45876 0.12612 0.0
H65 H 0.35763 0.50014 0.13597 0.0
O66 O 0.33977 0.45101 0.41123 0.0
C67 C 0.37295 0.49211 0.30017 0.0
Co68 Co 0.89206 0.34148 0.49203 0.0
Co69 Co 0.88463 0.35104 0.37222 0.0
C70 C 0.91774 0.3549 0.4032 0.0
O71 O 0.9132 0.3483 0.45255 0.0
O72 O 0.90801 0.35684 0.37057 0.0
C73 C 0.90384 0.34062 0.6036 0.0
O74 O 0.91751 0.35297 0.58398 0.0
C75 C 0.88421 0.34927 0.24802 0.0
C76 C 0.86786 0.35866 0.22264 0.0
C77 C 0.87753 0.35269 0.20069 0.0
N78 N 0.8789 0.35318 0.29565 0.0
N79 N 0.86916 0.35882 0.28033 0.0
C80 C 0.89449 0.34128 0.24873 0.0
H81 H 0.89223 0.33406 0.28873 0.0
H82 H 0.89182 0.33317 0.21091 0.0
H83 H 0.90761 0.35088 0.24764 0.0
C84 C 0.86257 0.30998 0.46252 0.0
N85 N 0.87414 0.32541 0.44951 0.0
N86 N 0.87098 0.32929 0.39875 0.0
C87 C 0.85731 0.31637 0.37761 0.0
C88 C 0.85153 0.30373 0.41739 0.0
C89 C 0.86198 0.30157 0.51767 0.0
H90 H 0.87422 0.30309 0.52671 0.0
H91 H 0.85275 0.28834 0.51609 0.0
H92 H 0.85891 0.3074 0.55325 0.0
O93 O 0.88944 0.36082 0.50564 0.0
O94 O 0.88241 0.36685 0.4222 0.0
H95 H 0.84756 0.32746 0.32208 0.0
H96 H 0.83714 0.30539 0.31721 0.0
C97 C 0.84922 0.31663 0.32267 0.0
H98 H 0.85723 0.31771 0.28608 0.0
H99 H 0.86333 0.36271 0.30925 0.0
O100 O 0.89178 0.33316 0.56978 0.0
C101 C 0.88531 0.36947 0.47575 0.0
Co102 Co 0.54956 0.8911 0.66555 0.0
Co103 Co 0.53309 0.88343 0.54484 0.0
C104 C 0.56149 0.91691 0.57655 0.0
O105 O 0.56314 0.91246 0.62658 0.0
O106 O 0.55037 0.90694 0.54265 0.0
C107 C 0.56193 0.90379 0.77587 0.0
O108 O 0.56233 0.91689 0.75459 0.0
C109 C 0.53457 0.88306 0.42063 0.0
C110 C 0.50896 0.8662 0.39514 0.0
C111 C 0.52453 0.87626 0.37332 0.0
N112 N 0.52539 0.87746 0.46825 0.0
N113 N 0.51007 0.86738 0.45286 0.0
C114 C 0.55282 0.8936 0.42105 0.0
H115 H 0.55793 0.89185 0.46162 0.0
H116 H 0.55832 0.89071 0.3839 0.0
H117 H 0.55613 0.90662 0.41797 0.0
C118 C 0.5529 0.86232 0.63654 0.0
N119 N 0.54867 0.87359 0.62301 0.0
N120 N 0.54151 0.87012 0.57244 0.0
C121 C 0.54089 0.85643 0.55214 0.0
C122 C 0.5481 0.85103 0.59208 0.0
C123 C 0.55987 0.8616 0.69346 0.0
H124 H 0.55121 0.86038 0.72795 0.0
H125 H 0.57148 0.87323 0.70079 0.0
H126 H 0.56215 0.85117 0.69627 0.0
O127 O 0.52714 0.88722 0.67867 0.0
O128 O 0.51471 0.88081 0.59404 0.0
H129 H 0.52033 0.8452 0.49549 0.0
H130 H 0.53453 0.83769 0.48715 0.0
C131 C 0.53343 0.84865 0.49578 0.0
H132 H 0.53967 0.85762 0.4608 0.0
H133 H 0.50039 0.86131 0.48174 0.0
O134 O 0.5579 0.89155 0.74339 0.0
C135 C 0.5145 0.88306 0.64793 0.0
Co136 Co 0.65919 0.54528 0.81443 0.0
Co137 Co 0.65037 0.53049 0.69167 0.0
C138 C 0.64627 0.55907 0.72899 0.0
O139 O 0.65236 0.56006 0.77865 0.0
O140 O 0.6447 0.54813 0.69338 0.0
C141 C 0.66452 0.56175 0.92403 0.0
O142 O 0.6561 0.5682 0.90297 0.0
C143 C 0.6539 0.53399 0.56874 0.0
C144 C 0.64363 0.50858 0.53787 0.0
C145 C 0.65076 0.52469 0.51944 0.0
N146 N 0.64877 0.52389 0.61409 0.0
N147 N 0.64258 0.50869 0.59556 0.0
C148 C 0.6628 0.55226 0.57374 0.0
H149 H 0.66915 0.55611 0.61577 0.0
H150 H 0.67183 0.55801 0.53847 0.0
H151 H 0.65383 0.55658 0.57124 0.0
C152 C 0.69095 0.54804 0.7841 0.0
N153 N 0.67557 0.54431 0.77088 0.0
N154 N 0.67197 0.53799 0.71901 0.0
C155 C 0.68501 0.53753 0.69741 0.0
C156 C 0.69746 0.54389 0.73801 0.0
C157 C 0.6991 0.55522 0.84025 0.0
H158 H 0.69741 0.56572 0.85124 0.0
H159 H 0.71238 0.55939 0.83887 0.0
H160 H 0.69323 0.54586 0.87446 0.0
O161 O 0.63995 0.52295 0.8244 0.0
O162 O 0.63407 0.51173 0.73769 0.0
H163 H 0.67383 0.51776 0.63733 0.0
H164 H 0.69596 0.52841 0.63663 0.0
C165 C 0.68507 0.5299 0.64114 0.0
H166 H 0.68508 0.53776 0.60572 0.0
H167 H 0.63778 0.49844 0.62228 0.0
O168 O 0.66741 0.55248 0.89268 0.0
C169 C 0.63131 0.51087 0.79148 0.0
Co170 Co 0.11156 0.65709 0.99045 0.0
Co171 Co 0.11884 0.65134 0.86443 0.0
C172 C 0.08568 0.64603 0.90195 0.0
O173 O 0.09033 0.65097 0.95307 0.0
O174 O 0.09542 0.64539 0.86557 0.0
C175 C 0.1057 0.67068 0.09695 0.0
O176 O 0.10094 0.6792 0.0661 0.0
C177 C 0.12182 0.65947 0.74242 0.0
C178 C 0.13225 0.64497 0.70673 0.0
C179 C 0.12667 0.65553 0.69147 0.0
N180 N 0.12454 0.65171 0.78572 0.0
N181 N 0.1309 0.64316 0.76419 0.0
C182 C 0.11354 0.66938 0.74956 0.0
H183 H 0.10891 0.66843 0.79391 0.0
H184 H 0.12239 0.68245 0.7409 0.0
H185 H 0.10333 0.66528 0.71836 0.0
C186 C 0.14141 0.68958 0.96926 0.0
N187 N 0.12958 0.67464 0.95201 0.0
N188 N 0.13264 0.67215 0.89891 0.0
C189 C 0.14648 0.68545 0.88072 0.0
C190 C 0.1524 0.69696 0.92443 0.0
C191 C 0.14227 0.69649 0.02781 0.0
H192 H 0.14135 0.6876 0.06085 0.0
H193 H 0.13176 0.69853 0.03346 0.0
H194 H 0.15374 0.70831 0.03419 0.0
O195 O 0.11475 0.63788 0.99281 0.0
O196 O 0.12111 0.63399 0.90479 0.0
H197 H 0.15421 0.67467 0.81558 0.0
H198 H 0.1679 0.69632 0.82586 0.0
C199 C 0.15486 0.6865 0.82496 0.0
H200 H 0.14863 0.68923 0.78998 0.0
H201 H 0.13393 0.63576 0.78855 0.0
O202 O 0.11051 0.6618 0.07247 0.0
C203 C 0.11866 0.63006 0.95771 0.0
Co204 Co 0.8886 0.54184 0.66814 0.0
Co205 Co 0.88441 0.53291 0.79813 0.0
C206 C 0.91603 0.56001 0.75103 0.0
O207 O 0.91061 0.55757 0.69976 0.0
O208 O 0.90712 0.55147 0.79269 0.0
C209 C 0.8952 0.56093 0.56327 0.0
O210 O 0.9053 0.5739 0.59316 0.0
C211 C 0.8862 0.53627 0.92367 0.0
C212 C 0.86238 0.51531 0.94973 0.0
C213 C 0.87606 0.5291 0.97076 0.0
N214 N 0.87854 0.52749 0.87671 0.0
N215 N 0.86449 0.51476 0.89277 0.0
C216 C 0.90328 0.55057 0.92336 0.0
H217 H 0.91116 0.54781 0.8957 0.0
H218 H 0.90315 0.56142 0.90562 0.0
H219 H 0.90872 0.55338 0.96699 0.0
C220 C 0.85926 0.54482 0.69098 0.0
N221 N 0.87135 0.54215 0.70849 0.0
N222 N 0.86985 0.53904 0.76389 0.0
C223 C 0.85715 0.54042 0.78396 0.0
C224 C 0.84987 0.54392 0.73834 0.0
C225 C 0.85593 0.54661 0.62928 0.0
H226 H 0.85767 0.53789 0.60251 0.0
H227 H 0.86472 0.55921 0.61465 0.0
H228 H 0.84328 0.54422 0.62282 0.0
O229 O 0.88528 0.51962 0.66835 0.0
O230 O 0.88277 0.51296 0.76063 0.0
H231 H 0.84483 0.5266 0.85872 0.0
H232 H 0.84594 0.54618 0.85434 0.0
C233 C 0.85273 0.53958 0.8461 0.0
H234 H 0.86393 0.54512 0.87286 0.0
H235 H 0.85604 0.50609 0.86445 0.0
O236 O 0.88766 0.54702 0.58744 0.0
C237 C 0.88318 0.50949 0.70797 0.0
Co238 Co 0.3467 0.88871 0.83864 0.0
Co239 Co 0.35054 0.88256 0.96817 0.0
C240 C 0.35622 0.91506 0.92751 0.0
O241 O 0.35303 0.91015 0.87567 0.0
O242 O 0.35568 0.90563 0.96754 0.0
C243 C 0.33087 0.89226 0.73559 0.0
O244 O 0.31988 0.89262 0.76922 0.0
C245 C 0.34717 0.88225 0.0935 0.0
C246 C 0.34769 0.85987 0.11784 0.0
C247 C 0.3459 0.87251 0.13981 0.0
N248 N 0.34959 0.87569 0.04589 0.0
N249 N 0.35011 0.86243 0.06084 0.0
C250 C 0.34464 0.89668 0.09367 0.0
H251 H 0.33657 0.89569 0.05741 0.0
H252 H 0.33913 0.89762 0.13457 0.0
H253 H 0.35665 0.90797 0.08772 0.0
C254 C 0.31426 0.85825 0.85713 0.0
N255 N 0.3287 0.87069 0.8759 0.0
N256 N 0.33002 0.86884 0.93133 0.0
C257 C 0.31614 0.85569 0.95005 0.0
C258 C 0.30575 0.84839 0.9036 0.0
C259 C 0.30963 0.8546 0.79518 0.0
H260 H 0.32073 0.85951 0.76792 0.0
H261 H 0.3023 0.8603 0.78229 0.0
H262 H 0.30206 0.84121 0.788 0.0
O263 O 0.36549 0.88513 0.83839 0.0
O264 O 0.36863 0.88074 0.92984 0.0
H265 H 0.3186 0.84353 0.02359 0.0
H266 H 0.29919 0.84286 0.01926 0.0
C267 C 0.31254 0.8506 0.01166 0.0
H268 H 0.31727 0.86154 0.0395 0.0
H269 H 0.35161 0.85484 0.03183 0.0
O270 O 0.34229 0.89051 0.75693 0.0
C271 C 0.37299 0.88205 0.87736 0.0
Co272 Co 0.45621 0.34346 0.01351 0.0
Co273 Co 0.47176 0.35145 0.13547 0.0
C274 C 0.44372 0.35687 0.10153 0.0
O275 O 0.44205 0.35062 0.05182 0.0
O276 O 0.45482 0.35815 0.13573 0.0
C277 C 0.44272 0.34312 0.90409 0.0
O278 O 0.44084 0.35484 0.92667 0.0
C279 C 0.46865 0.34869 0.2588 0.0
C280 C 0.49366 0.35622 0.28863 0.0
C281 C 0.4779 0.35105 0.30771 0.0
N282 N 0.47847 0.35242 0.21289 0.0
N283 N 0.49343 0.35694 0.23082 0.0
C284 C 0.45052 0.34175 0.255 0.0
H285 H 0.44576 0.3347 0.21459 0.0
H286 H 0.4442 0.3337 0.29225 0.0
H287 H 0.44783 0.35194 0.25468 0.0
C288 C 0.45246 0.31109 0.0408 0.0
N289 N 0.45674 0.32655 0.05511 0.0
N290 N 0.46355 0.32991 0.10625 0.0
C291 C 0.46399 0.31669 0.12596 0.0
C292 C 0.45694 0.30431 0.08519 0.0
C293 C 0.44561 0.30362 0.9835 0.0
H294 H 0.45461 0.31086 0.94956 0.0
H295 H 0.43433 0.3042 0.97519 0.0
H296 H 0.44281 0.29074 0.98093 0.0
O297 O 0.47881 0.36237 0.0035 0.0
O298 O 0.49057 0.36749 0.08932 0.0
H299 H 0.4843 0.32574 0.18362 0.0
H300 H 0.47022 0.30394 0.18981 0.0
C301 C 0.47123 0.31603 0.18236 0.0
H302 H 0.46477 0.31842 0.21749 0.0
H303 H 0.50345 0.36046 0.20364 0.0
O304 O 0.44834 0.33597 0.935 0.0
C305 C 0.49119 0.37055 0.03581 0.0
Co306 Co 0.11443 0.45509 0.15643 0.0
Co307 Co 0.12006 0.46877 0.28111 0.0
C308 C 0.08731 0.44099 0.23973 0.0
O309 O 0.09249 0.44009 0.19007 0.0
O310 O 0.09668 0.4516 0.27618 0.0
C311 C 0.10642 0.43605 0.04942 0.0
O312 O 0.0937 0.42412 0.07554 0.0
C313 C 0.11983 0.46342 0.40334 0.0
C314 C 0.13359 0.48845 0.43893 0.0
C315 C 0.12545 0.47206 0.45427 0.0
N316 N 0.12461 0.4742 0.35995 0.0
N317 N 0.13283 0.48915 0.3813 0.0
C318 C 0.10885 0.44537 0.39524 0.0
H319 H 0.09629 0.44292 0.38585 0.0
H320 H 0.11302 0.44118 0.35764 0.0
H321 H 0.1082 0.4382 0.43372 0.0
C322 C 0.14291 0.45137 0.18661 0.0
N323 N 0.13141 0.4553 0.20007 0.0
N324 N 0.13395 0.46115 0.25265 0.0
C325 C 0.14715 0.46106 0.27448 0.0
C326 C 0.15323 0.45483 0.23336 0.0
C327 C 0.14406 0.44466 0.1297 0.0
H328 H 0.13198 0.43402 0.11852 0.0
H329 H 0.15341 0.4408 0.13008 0.0
H330 H 0.14725 0.45415 0.09619 0.0
O331 O 0.11786 0.47762 0.15011 0.0
O332 O 0.12317 0.48821 0.23783 0.0
H333 H 0.15524 0.47995 0.33804 0.0
H334 H 0.16709 0.46971 0.33564 0.0
C335 C 0.15461 0.46801 0.33172 0.0
H336 H 0.14679 0.45955 0.36601 0.0
H337 H 0.13784 0.49981 0.3566 0.0
O338 O 0.11588 0.44906 0.07669 0.0
C339 C 0.12142 0.4895 0.18419 0.0
Co340 Co 0.65876 0.11326 0.32581 0.0
Co341 Co 0.65243 0.11717 0.45451 0.0
C342 C 0.64788 0.08541 0.40735 0.0
O343 O 0.65176 0.09097 0.35644 0.0
O344 O 0.6478 0.09431 0.44823 0.0
C345 C 0.67094 0.10615 0.22101 0.0
O346 O 0.67217 0.09482 0.24965 0.0
C347 C 0.65288 0.11443 0.57972 0.0
C348 C 0.65502 0.13778 0.60785 0.0
C349 C 0.65527 0.12407 0.62772 0.0
N350 N 0.65197 0.1224 0.53332 0.0
N351 N 0.65284 0.13616 0.55058 0.0
C352 C 0.65058 0.09755 0.57797 0.0
H353 H 0.6399 0.08961 0.55064 0.0
H354 H 0.66165 0.0981 0.5591 0.0
H355 H 0.64824 0.0919 0.62122 0.0
C356 C 0.69092 0.14227 0.35305 0.0
N357 N 0.67594 0.13017 0.36864 0.0
N358 N 0.67362 0.13161 0.42351 0.0
C359 C 0.6874 0.14431 0.44523 0.0
C360 C 0.69877 0.15164 0.4012 0.0
C361 C 0.69675 0.14567 0.29209 0.0
H362 H 0.68673 0.14446 0.26392 0.0
H363 H 0.70017 0.13653 0.27817 0.0
H364 H 0.7074 0.15815 0.28669 0.0
O365 O 0.64003 0.11688 0.32294 0.0
O366 O 0.63499 0.11957 0.41409 0.0
H367 H 0.68443 0.15638 0.51796 0.0
H368 H 0.7033 0.15595 0.51789 0.0
C369 C 0.69006 0.14883 0.5075 0.0
H370 H 0.68434 0.13764 0.53435 0.0
H371 H 0.65268 0.14478 0.52293 0.0
O372 O 0.66568 0.11458 0.24596 0.0
C373 C 0.63173 0.11923 0.36081 0.0
Co374 Co 0.55025 0.66085 0.50064 0.0
Co375 Co 0.53504 0.65203 0.62325 0.0
C376 C 0.56304 0.64688 0.58467 0.0
O377 O 0.56468 0.65353 0.53569 0.0
O378 O 0.552 0.64539 0.61968 0.0
C379 C 0.56744 0.66711 0.39158 0.0
O380 O 0.57506 0.65995 0.41371 0.0
C381 C 0.53832 0.65455 0.74739 0.0
C382 C 0.51342 0.64786 0.77641 0.0
C383 C 0.52915 0.65307 0.79595 0.0
N384 N 0.52854 0.65074 0.70128 0.0
N385 N 0.51364 0.64663 0.71881 0.0
C386 C 0.55575 0.65835 0.74411 0.0
H387 H 0.55598 0.64749 0.72725 0.0
H388 H 0.56262 0.66859 0.71357 0.0
H389 H 0.56193 0.66131 0.78633 0.0
C390 C 0.554 0.69297 0.5318 0.0
N391 N 0.54985 0.67745 0.54469 0.0
N392 N 0.54312 0.67374 0.59597 0.0
C393 C 0.5426 0.68679 0.61716 0.0
C394 C 0.54951 0.6994 0.57725 0.0
C395 C 0.56068 0.70083 0.47482 0.0
H396 H 0.55142 0.69406 0.44108 0.0
H397 H 0.57173 0.69999 0.46459 0.0
H398 H 0.56382 0.71383 0.47417 0.0
O399 O 0.52768 0.64187 0.49114 0.0
O400 O 0.51603 0.63636 0.57721 0.0
H401 H 0.52225 0.67733 0.6748 0.0
H402 H 0.53626 0.69907 0.68246 0.0
C403 C 0.53531 0.68706 0.67393 0.0
H404 H 0.54179 0.68451 0.70854 0.0
H405 H 0.5037 0.64321 0.69141 0.0
O406 O 0.55733 0.66895 0.42211 0.0
C407 C 0.51534 0.63355 0.5235 0.0
H408 H 0.42981 0.27407 0.08086 0.0
H409 H 0.42872 0.24747 0.08187 0.0
H410 H 0.48144 0.27221 0.09077 0.0
H411 H 0.4825 0.29875 0.09018 0.0
H412 H 0.46781 0.24675 0.00879 0.0
H413 H 0.46074 0.25604 0.20774 0.0
H414 H 0.4476 0.262 0.28844 0.0
H415 H 0.40192 0.21874 0.25028 0.0
H416 H 0.41473 0.21266 0.16871 0.0
H417 H 0.48108 0.18201 0.0861 0.0
H418 H 0.48048 0.20767 0.08346 0.0
H419 H 0.42784 0.18053 0.09968 0.0
H420 H 0.42855 0.15485 0.10348 0.0
H421 H 0.44019 0.20673 0.16616 0.0
H422 H 0.44664 0.19655 0.97002 0.0
H423 H 0.45901 0.19023 0.88778 0.0
H424 H 0.50454 0.23453 0.91696 0.0
H425 H 0.49252 0.241 1e-05 0.0
C426 C 0.44112 0.27374 0.08307 0.0
C427 C 0.45623 0.28832 0.08576 0.0
C428 C 0.4405 0.25861 0.08374 0.0
C429 C 0.455 0.25789 0.08666 0.0
C430 C 0.47012 0.27251 0.08851 0.0
C431 C 0.47072 0.28761 0.08846 0.0
C432 C 0.45445 0.24191 0.08813 0.0
C433 C 0.46193 0.23806 0.04347 0.0
C434 C 0.44635 0.2304 0.13253 0.0
C435 C 0.43865 0.234 0.18173 0.0
C436 C 0.44786 0.24788 0.21623 0.0
C437 C 0.44048 0.25126 0.26219 0.0
C438 C 0.42393 0.24078 0.27439 0.0
C439 C 0.41473 0.22686 0.24072 0.0
C440 C 0.42205 0.22344 0.19464 0.0
C441 C 0.46941 0.18159 0.08888 0.0
C442 C 0.45484 0.16657 0.09439 0.0
C443 C 0.46905 0.19621 0.08723 0.0
C444 C 0.45408 0.19603 0.09035 0.0
C445 C 0.43952 0.18098 0.09696 0.0
C446 C 0.43991 0.16635 0.099 0.0
C447 C 0.45368 0.21156 0.08698 0.0
C448 C 0.44601 0.21535 0.13124 0.0
C449 C 0.46147 0.22295 0.04185 0.0
C450 C 0.46871 0.21918 0.99159 0.0
C451 C 0.45932 0.20489 0.95917 0.0
C452 C 0.46627 0.20128 0.91238 0.0
C453 C 0.48256 0.21195 0.89723 0.0
C454 C 0.49193 0.22627 0.92878 0.0
C455 C 0.48505 0.22992 0.9757 0.0
H456 H 0.48791 0.20914 0.86098 0.0
H457 H 0.41823 0.24342 0.31001 0.0
H458 H 0.15985 0.43633 0.30595 0.0
H459 H 0.18513 0.435 0.31162 0.0
H460 H 0.20608 0.47071 0.17531 0.0
H461 H 0.18046 0.47128 0.16783 0.0
H462 H 0.21434 0.44932 0.15817 0.0
H463 H 0.21542 0.47973 0.32433 0.0
H464 H 0.20491 0.48498 0.41405 0.0
H465 H 0.20388 0.44333 0.4928 0.0
H466 H 0.21415 0.43767 0.40319 0.0
H467 H 0.29888 0.47889 0.21835 0.0
H468 H 0.27202 0.47698 0.2147 0.0
H469 H 0.2504 0.43024 0.30035 0.0
H470 H 0.27716 0.43171 0.30153 0.0
H471 H 0.24228 0.45576 0.34489 0.0
H472 H 0.24273 0.42698 0.17344 0.0
H473 H 0.2549 0.42426 0.0833 0.0
H474 H 0.25503 0.46657 0.01471 0.0
H475 H 0.24311 0.4697 0.10489 0.0
C476 C 0.16989 0.44379 0.27717 0.0
C477 C 0.16835 0.45389 0.23648 0.0
C478 C 0.18435 0.44314 0.28063 0.0
C479 C 0.1977 0.45298 0.2446 0.0
C480 C 0.19601 0.46298 0.20358 0.0
C481 C 0.18143 0.46336 0.19936 0.0
C482 C 0.2134 0.45289 0.24933 0.0
C483 C 0.22047 0.4509 0.19904 0.0
C484 C 0.22141 0.45471 0.30268 0.0
C485 C 0.21539 0.45818 0.35683 0.0
C486 C 0.21285 0.47162 0.36065 0.0
C487 C 0.20694 0.47468 0.4115 0.0
C488 C 0.20369 0.46447 0.45905 0.0
C489 C 0.20638 0.45121 0.4559 0.0
C490 C 0.21225 0.44808 0.4051 0.0
C491 C 0.28836 0.46811 0.2357 0.0
C492 C 0.29005 0.45538 0.25977 0.0
C493 C 0.27308 0.4671 0.23401 0.0
C494 C 0.25928 0.45347 0.25722 0.0
C495 C 0.26095 0.44088 0.28243 0.0
C496 C 0.27621 0.44175 0.28316 0.0
C497 C 0.24306 0.45231 0.2539 0.0
C498 C 0.23598 0.45409 0.30432 0.0
C499 C 0.23522 0.45066 0.20064 0.0
C500 C 0.24218 0.44866 0.14613 0.0
C501 C 0.24549 0.43579 0.13933 0.0
C502 C 0.25232 0.43416 0.0882 0.0
C503 C 0.25577 0.44526 0.04336 0.0
C504 C 0.25236 0.45799 0.04951 0.0
C505 C 0.24556 0.45969 0.1006 0.0
H506 H 0.26106 0.44398 0.00381 0.0
H507 H 0.19911 0.46685 0.49837 0.0
H508 H 0.7061 0.18026 0.45434 0.0
H509 H 0.73245 0.20557 0.45785 0.0
H510 H 0.75397 0.18325 0.35433 0.0
H511 H 0.7278 0.15746 0.35446 0.0
H512 H 0.77489 0.20104 0.43107 0.0
H513 H 0.74226 0.21071 0.29812 0.0
H514 H 0.71807 0.21162 0.26303 0.0
H515 H 0.7247 0.24631 0.39454 0.0
H516 H 0.7488 0.24544 0.43096 0.0
H517 H 0.84314 0.2788 0.34182 0.0
H518 H 0.81738 0.2524 0.33893 0.0
H519 H 0.79944 0.26717 0.48419 0.0
H520 H 0.82533 0.29335 0.48801 0.0
H521 H 0.77732 0.25342 0.38241 0.0
H522 H 0.81059 0.2426 0.51384 0.0
H523 H 0.83545 0.24189 0.54158 0.0
H524 H 0.82816 0.20938 0.40132 0.0
H525 H 0.80339 0.21013 0.37215 0.0
C526 C 0.71652 0.18066 0.43319 0.0
C527 C 0.7149 0.1669 0.40396 0.0
C528 C 0.73154 0.19522 0.43447 0.0
C529 C 0.74517 0.1965 0.40519 0.0
C530 C 0.74364 0.18264 0.37691 0.0
C531 C 0.72866 0.16796 0.37654 0.0
C532 C 0.76094 0.21229 0.40401 0.0
C533 C 0.7754 0.21243 0.4196 0.0
C534 C 0.7617 0.22727 0.38951 0.0
C535 C 0.74725 0.22789 0.36758 0.0
C536 C 0.73849 0.21845 0.31981 0.0
C537 C 0.7248 0.21897 0.29965 0.0
C538 C 0.71982 0.22899 0.32662 0.0
C539 C 0.72855 0.23854 0.37373 0.0
C540 C 0.74224 0.23805 0.39412 0.0
C541 C 0.83367 0.27631 0.37309 0.0
C542 C 0.83609 0.28793 0.41525 0.0
C543 C 0.81903 0.2613 0.37147 0.0
C544 C 0.80657 0.25789 0.41142 0.0
C545 C 0.80893 0.26962 0.45304 0.0
C546 C 0.82367 0.28448 0.45532 0.0
C547 C 0.79104 0.24206 0.40988 0.0
C548 C 0.77669 0.24196 0.39365 0.0
C549 C 0.79044 0.22712 0.42266 0.0
C550 C 0.80525 0.22657 0.44043 0.0
C551 C 0.81438 0.23543 0.48857 0.0
C552 C 0.82843 0.235 0.50462 0.0
C553 C 0.83341 0.22563 0.47314 0.0
C554 C 0.82431 0.21665 0.42562 0.0
C555 C 0.81026 0.21707 0.40932 0.0
H556 H 0.84429 0.22531 0.48564 0.0
H557 H 0.70922 0.22937 0.31095 0.0
H558 H 0.57621 0.72997 0.57643 0.0
H559 H 0.57657 0.75622 0.57928 0.0
H560 H 0.52378 0.73033 0.58388 0.0
H561 H 0.52345 0.70414 0.58162 0.0
H562 H 0.53748 0.75627 0.50369 0.0
H563 H 0.5431 0.74611 0.70242 0.0
H564 H 0.55562 0.73995 0.78457 0.0
H565 H 0.60127 0.7839 0.75251 0.0
H566 H 0.58909 0.7902 0.66955 0.0
H567 H 0.52258 0.82002 0.58165 0.0
H568 H 0.52353 0.79455 0.57895 0.0
H569 H 0.5761 0.82216 0.59673 0.0
H570 H 0.57507 0.84766 0.60022 0.0
H571 H 0.56346 0.79569 0.66377 0.0
H572 H 0.55802 0.80644 0.46684 0.0
H573 H 0.54582 0.81277 0.38416 0.0
H574 H 0.50051 0.76801 0.41068 0.0
H575 H 0.51236 0.76153 0.49417 0.0
C576 C 0.56473 0.72998 0.57816 0.0
C577 C 0.54981 0.71518 0.57909 0.0
C578 C 0.56494 0.7449 0.57987 0.0
C579 C 0.5502 0.74519 0.58203 0.0
C580 C 0.53527 0.73036 0.58222 0.0
C581 C 0.53508 0.71546 0.58119 0.0
C582 C 0.55031 0.76096 0.58409 0.0
C583 C 0.54299 0.76483 0.53896 0.0
C584 C 0.55789 0.77226 0.6294 0.0
C585 C 0.56523 0.76853 0.67937 0.0
C586 C 0.55585 0.75439 0.71254 0.0
C587 C 0.56288 0.75089 0.75932 0.0
C588 C 0.57924 0.76151 0.77365 0.0
C589 C 0.5886 0.77567 0.7413 0.0
C590 C 0.58164 0.77922 0.69441 0.0
C591 C 0.53431 0.8206 0.58469 0.0
C592 C 0.54877 0.83571 0.59063 0.0
C593 C 0.53487 0.80608 0.58308 0.0
C594 C 0.54992 0.80645 0.58676 0.0
C595 C 0.56436 0.82158 0.59367 0.0
C596 C 0.56378 0.8361 0.59555 0.0
C597 C 0.55054 0.79103 0.58343 0.0
C598 C 0.558 0.7872 0.6283 0.0
C599 C 0.54317 0.77979 0.53765 0.0
C600 C 0.53604 0.78357 0.4871 0.0
C601 C 0.54542 0.798 0.45531 0.0
C602 C 0.53857 0.80161 0.40827 0.0
C603 C 0.52239 0.79082 0.39226 0.0
C604 C 0.51304 0.77637 0.42318 0.0
C605 C 0.51982 0.77271 0.47035 0.0
H606 H 0.51711 0.79364 0.35582 0.0
H607 H 0.58466 0.75878 0.8099 0.0
H608 H 0.70792 0.52803 0.80791 0.0
H609 H 0.73435 0.52906 0.80584 0.0
H610 H 0.7493 0.56232 0.66182 0.0
H611 H 0.72243 0.56061 0.66245 0.0
H612 H 0.75968 0.54204 0.64516 0.0
H613 H 0.76265 0.57529 0.80352 0.0
H614 H 0.75364 0.58227 0.89324 0.0
H615 H 0.75663 0.54394 0.98181 0.0
H616 H 0.7654 0.53654 0.89236 0.0
H617 H 0.84464 0.5668 0.68554 0.0
H618 H 0.81922 0.56797 0.68371 0.0
H619 H 0.79605 0.52552 0.79344 0.0
H620 H 0.82113 0.52385 0.7933 0.0
H621 H 0.79129 0.55271 0.82596 0.0
H622 H 0.78726 0.51933 0.66155 0.0
H623 H 0.7975 0.5141 0.57118 0.0
H624 H 0.79829 0.55576 0.49351 0.0
H625 H 0.78826 0.56138 0.58382 0.0
C626 C 0.71688 0.53552 0.77585 0.0
C627 C 0.71333 0.54436 0.73566 0.0
C628 C 0.73201 0.53619 0.77482 0.0
C629 C 0.74403 0.54609 0.73454 0.0
C630 C 0.7403 0.55467 0.69351 0.0
C631 C 0.72501 0.55375 0.69392 0.0
C632 C 0.76045 0.54744 0.73552 0.0
C633 C 0.76667 0.54464 0.68458 0.0
C634 C 0.76964 0.55074 0.78694 0.0
C635 C 0.76456 0.55528 0.84107 0.0
C636 C 0.76129 0.56828 0.84204 0.0
C637 C 0.75623 0.57232 0.89286 0.0
C638 C 0.75454 0.56353 0.94317 0.0
C639 C 0.75794 0.55072 0.94279 0.0
C640 C 0.76297 0.54661 0.89205 0.0
C641 C 0.83408 0.55766 0.70889 0.0
C642 C 0.83483 0.5452 0.7394 0.0
C643 C 0.81963 0.5584 0.70807 0.0
C644 C 0.80579 0.54681 0.73837 0.0
C645 C 0.80664 0.53462 0.77004 0.0
C646 C 0.82099 0.53373 0.77012 0.0
C647 C 0.79025 0.54709 0.73603 0.0
C648 C 0.78426 0.55024 0.78665 0.0
C649 C 0.78145 0.54441 0.68422 0.0
C650 C 0.78717 0.54087 0.62961 0.0
C651 C 0.78973 0.52745 0.62534 0.0
C652 C 0.79548 0.5244 0.57412 0.0
C653 C 0.79858 0.53462 0.52669 0.0
C654 C 0.79589 0.54787 0.53032 0.0
C655 C 0.79016 0.55098 0.5815 0.0
H656 H 0.80303 0.53223 0.48709 0.0
H657 H 0.75061 0.56667 0.98247 0.0
H658 H 0.29829 0.81967 0.95633 0.0
H659 H 0.27194 0.79434 0.95885 0.0
H660 H 0.2512 0.81621 0.84928 0.0
H661 H 0.27742 0.84197 0.84955 0.0
H662 H 0.23039 0.79973 0.93068 0.0
H663 H 0.26153 0.78771 0.7986 0.0
H664 H 0.28518 0.78578 0.76349 0.0
H665 H 0.27844 0.75216 0.89923 0.0
H666 H 0.25488 0.75407 0.93569 0.0
H667 H 0.1601 0.72273 0.85409 0.0
H668 H 0.18601 0.74889 0.85 0.0
H669 H 0.20519 0.73281 0.98772 0.0
H670 H 0.17917 0.70674 0.99237 0.0
H671 H 0.22629 0.74624 0.88878 0.0
H672 H 0.19478 0.75915 0.01987 0.0
H673 H 0.17065 0.76093 0.04997 0.0
H674 H 0.17763 0.79279 0.90784 0.0
H675 H 0.20167 0.79099 0.87636 0.0
C676 C 0.28806 0.81915 0.93336 0.0
C677 C 0.28986 0.83283 0.90312 0.0
C678 C 0.27304 0.80458 0.93415 0.0
C679 C 0.25959 0.80324 0.90358 0.0
C680 C 0.26139 0.8169 0.8731 0.0
C681 C 0.2764 0.83157 0.87285 0.0
C682 C 0.24362 0.78767 0.90437 0.0
C683 C 0.22948 0.78808 0.92061 0.0
C684 C 0.2424 0.77238 0.89208 0.0
C685 C 0.25653 0.77115 0.87018 0.0
C686 C 0.26516 0.77999 0.82123 0.0
C687 C 0.27854 0.77889 0.80104 0.0
C688 C 0.28333 0.76889 0.82919 0.0
C689 C 0.27472 0.75992 0.87751 0.0
C690 C 0.26135 0.761 0.89792 0.0
C691 C 0.16983 0.72491 0.88374 0.0
C692 C 0.1677 0.71293 0.92396 0.0
C693 C 0.18457 0.73979 0.8814 0.0
C694 C 0.19746 0.74278 0.91873 0.0
C695 C 0.19536 0.73073 0.95867 0.0
C696 C 0.18053 0.71594 0.96156 0.0
C697 C 0.21322 0.75838 0.91544 0.0
C698 C 0.22727 0.75794 0.89863 0.0
C699 C 0.21431 0.77363 0.92638 0.0
C700 C 0.19992 0.77479 0.94541 0.0
C701 C 0.19108 0.76641 0.99472 0.0
C702 C 0.17744 0.76745 0.0121 0.0
C703 C 0.17259 0.77693 0.98075 0.0
C704 C 0.18139 0.78543 0.93203 0.0
C705 C 0.19503 0.78442 0.91443 0.0
H706 H 0.16203 0.77772 0.99427 0.0
H707 H 0.29369 0.76805 0.81349 0.0
H708 H 0.48137 0.11255 0.78025 0.0
H709 H 0.47113 0.10864 0.68157 0.0
H710 H 0.43781 0.12536 0.73078 0.0
H711 H 0.44876 0.13022 0.82851 0.0
H712 H 0.44216 0.08945 0.63586 0.0
H713 H 0.4325 0.14498 0.61715 0.0
H714 H 0.44319 0.1725 0.659 0.0
H715 H 0.48912 0.17509 0.69403 0.0
H716 H 0.47876 0.14768 0.65176 0.0
H717 H 0.4112 0.08432 0.35377 0.0
H718 H 0.41253 0.08762 0.45851 0.0
H719 H 0.46011 0.13091 0.44279 0.0
H720 H 0.45865 0.12807 0.33916 0.0
H721 H 0.4442 0.13532 0.52488 0.0
H722 H 0.45496 0.092 0.46798 0.0
H723 H 0.44801 0.06564 0.42286 0.0
H724 H 0.40625 0.04071 0.53378 0.0
H725 H 0.41288 0.06698 0.5791 0.0
C726 C 0.47188 0.1154 0.7698 0.0
C727 C 0.46551 0.12123 0.81211 0.0
C728 C 0.46595 0.11304 0.71368 0.0
C729 C 0.45364 0.11662 0.69888 0.0
C730 C 0.44731 0.12252 0.7412 0.0
C731 C 0.45336 0.12502 0.79722 0.0
C732 C 0.44788 0.11459 0.63867 0.0
C733 C 0.44247 0.09944 0.61172 0.0
C734 C 0.44834 0.12764 0.60711 0.0
C735 C 0.45477 0.14421 0.63199 0.0
C736 C 0.44488 0.15145 0.63368 0.0
C737 C 0.45089 0.16702 0.65747 0.0
C738 C 0.4668 0.17551 0.67939 0.0
C739 C 0.47677 0.16847 0.67729 0.0
C740 C 0.47083 0.15291 0.65348 0.0
C741 C 0.4218 0.09468 0.37271 0.0
C742 C 0.43492 0.10578 0.33823 0.0
C743 C 0.42257 0.09652 0.43251 0.0
C744 C 0.43655 0.10937 0.45852 0.0
C745 C 0.4492 0.12091 0.4238 0.0
C746 C 0.44839 0.11917 0.36439 0.0
C747 C 0.43887 0.1103 0.52164 0.0
C748 C 0.44354 0.12522 0.54934 0.0
C749 C 0.43824 0.09721 0.55343 0.0
C750 C 0.43429 0.08144 0.52638 0.0
C751 C 0.44424 0.0809 0.48245 0.0
C752 C 0.44037 0.06598 0.45689 0.0
C753 C 0.42667 0.05152 0.47531 0.0
C754 C 0.41684 0.05193 0.51946 0.0
C755 C 0.42065 0.06682 0.5451 0.0
H756 H 0.42369 0.03998 0.45547 0.0
H757 H 0.47141 0.18755 0.69785 0.0
H758 H 0.34786 0.42239 0.51662 0.0
H759 H 0.34514 0.42233 0.62124 0.0
H760 H 0.32548 0.45481 0.60625 0.0
H761 H 0.32773 0.45459 0.5024 0.0
H762 H 0.36103 0.44733 0.68858 0.0
H763 H 0.30133 0.45121 0.71527 0.0
H764 H 0.27386 0.43894 0.67184 0.0
H765 H 0.27774 0.39769 0.61541 0.0
H766 H 0.30512 0.40957 0.65921 0.0
H767 H 0.36654 0.49113 0.9369 0.0
H768 H 0.36193 0.48089 0.83807 0.0
H769 H 0.32082 0.4352 0.89473 0.0
H770 H 0.3248 0.44584 0.99277 0.0
H771 H 0.31377 0.44295 0.79746 0.0
H772 H 0.35885 0.43893 0.86807 0.0
H773 H 0.38559 0.44838 0.91451 0.0
H774 H 0.40936 0.48411 0.78138 0.0
H775 H 0.38273 0.47503 0.73454 0.0
C776 C 0.34263 0.42923 0.53563 0.0
C777 C 0.33815 0.4386 0.5013 0.0
C778 C 0.34112 0.42921 0.59536 0.0
C779 C 0.33503 0.4385 0.62154 0.0
C780 C 0.32993 0.44731 0.58707 0.0
C781 C 0.33136 0.44727 0.52757 0.0
C782 C 0.33556 0.4405 0.6847 0.0
C783 C 0.35064 0.44619 0.71252 0.0
C784 C 0.32192 0.43867 0.71624 0.0
C785 C 0.30535 0.43136 0.69027 0.0
C786 C 0.29629 0.43948 0.69391 0.0
C787 C 0.28074 0.43259 0.66914 0.0
C788 C 0.27407 0.41756 0.64078 0.0
C789 C 0.28293 0.40936 0.63723 0.0
C790 C 0.29848 0.41618 0.66195 0.0
C791 C 0.35648 0.47896 0.92799 0.0
C792 C 0.34643 0.46899 0.9725 0.0
C793 C 0.35393 0.47306 0.87177 0.0
C794 C 0.34137 0.45707 0.85939 0.0
C795 C 0.33076 0.44746 0.90344 0.0
C796 C 0.33319 0.45344 0.95948 0.0
C797 C 0.33939 0.45038 0.80054 0.0
C798 C 0.32407 0.44383 0.77367 0.0
C799 C 0.35268 0.45095 0.77029 0.0
C800 C 0.36877 0.45635 0.79798 0.0
C801 C 0.36977 0.44886 0.84886 0.0
C802 C 0.38491 0.45415 0.87524 0.0
C803 C 0.39916 0.46685 0.85096 0.0
C804 C 0.39831 0.47427 0.80015 0.0
C805 C 0.38319 0.46905 0.77362 0.0
H806 H 0.41087 0.47094 0.87146 0.0
H807 H 0.26203 0.41226 0.62161 0.0
H808 H 0.92692 0.3529 0.68875 0.0
H809 H 0.9219 0.35194 0.79233 0.0
H810 H 0.87007 0.32147 0.76306 0.0
H811 H 0.87492 0.32208 0.65987 0.0
H812 H 0.88019 0.35169 0.82425 0.0
H813 H 0.88715 0.30457 0.82719 0.0
H814 H 0.90155 0.28931 0.80786 0.0
H815 H 0.94217 0.32349 0.91041 0.0
H816 H 0.92811 0.33911 0.92967 0.0
H817 H 0.85465 0.34087 0.11587 0.0
H818 H 0.85872 0.33682 0.01454 0.0
H819 H 0.91032 0.35655 0.04607 0.0
H820 H 0.9062 0.36032 0.14724 0.0
H821 H 0.89975 0.33066 0.98257 0.0
H822 H 0.89455 0.37845 0.97809 0.0
H823 H 0.88223 0.39584 0.99339 0.0
H824 H 0.84086 0.36329 0.89042 0.0
H825 H 0.85277 0.34551 0.87542 0.0
C826 C 0.91449 0.34569 0.70447 0.0
C827 C 0.90131 0.33769 0.66609 0.0
C828 C 0.91166 0.34514 0.76359 0.0
C829 C 0.89562 0.33671 0.78501 0.0
C830 C 0.88253 0.32806 0.74713 0.0
C831 C 0.88535 0.32839 0.68821 0.0
C832 C 0.89236 0.33828 0.84603 0.0
C833 C 0.88418 0.34685 0.85905 0.0
C834 C 0.89815 0.33248 0.89093 0.0
C835 C 0.90664 0.32311 0.87938 0.0
C836 C 0.89922 0.30893 0.84515 0.0
C837 C 0.9073 0.30019 0.83432 0.0
C838 C 0.92278 0.30545 0.85776 0.0
C839 C 0.93019 0.31944 0.89221 0.0
C840 C 0.92216 0.32823 0.90315 0.0
C841 C 0.86684 0.34434 0.10095 0.0
C842 C 0.88006 0.35063 0.1394 0.0
C843 C 0.86918 0.34209 0.04312 0.0
C844 C 0.88486 0.34646 0.02256 0.0
C845 C 0.89809 0.35295 0.06097 0.0
C846 C 0.89572 0.35503 0.11882 0.0
C847 C 0.88749 0.3441 0.96126 0.0
C848 C 0.89561 0.33543 0.94803 0.0
C849 C 0.88188 0.35008 0.91601 0.0
C850 C 0.87445 0.36051 0.92635 0.0
C851 C 0.88272 0.37487 0.95937 0.0
C852 C 0.87582 0.38482 0.96786 0.0
C853 C 0.86074 0.38063 0.94311 0.0
C854 C 0.85251 0.36648 0.90979 0.0
C855 C 0.85932 0.35646 0.90131 0.0
H856 H 0.85545 0.38839 0.94957 0.0
H857 H 0.92902 0.29867 0.84934 0.0
H858 H 0.55366 0.87582 0.83557 0.0
H859 H 0.54974 0.87179 0.93915 0.0
H860 H 0.56773 0.92335 0.96222 0.0
H861 H 0.57148 0.92753 0.8582 0.0
H862 H 0.57809 0.90677 0.04938 0.0
H863 H 0.53044 0.90337 0.95711 0.0
H864 H 0.50884 0.89323 0.88322 0.0
H865 H 0.49115 0.84386 0.93978 0.0
H866 H 0.51281 0.85372 0.01354 0.0
H867 H 0.54438 0.9055 0.32137 0.0
H868 H 0.55262 0.91037 0.22064 0.0
H869 H 0.52316 0.85862 0.18635 0.0
H870 H 0.51461 0.85377 0.28736 0.0
H871 H 0.51937 0.87527 0.10399 0.0
H872 H 0.56571 0.87814 0.19911 0.0
H873 H 0.58752 0.88763 0.27206 0.0
H874 H 0.60802 0.93692 0.21035 0.0
H875 H 0.58619 0.92776 0.13751 0.0
C876 C 0.55713 0.88639 0.86263 0.0
C877 C 0.5627 0.90198 0.83863 0.0
C878 C 0.55486 0.88404 0.92179 0.0
C879 C 0.55829 0.89725 0.95793 0.0
C880 C 0.56501 0.91303 0.93476 0.0
C881 C 0.5671 0.91537 0.8754 0.0
C882 C 0.55325 0.89426 0.01877 0.0
C883 C 0.56528 0.90005 0.06161 0.0
C884 C 0.53653 0.88519 0.03414 0.0
C885 C 0.52335 0.87926 0.99042 0.0
C886 C 0.52202 0.89034 0.95347 0.0
C887 C 0.50975 0.88465 0.91167 0.0
C888 C 0.49866 0.8679 0.90667 0.0
C889 C 0.49977 0.85683 0.94364 0.0
C890 C 0.51203 0.86246 0.98549 0.0
C891 C 0.53983 0.89515 0.29247 0.0
C892 C 0.52917 0.87921 0.31219 0.0
C893 C 0.54453 0.89794 0.23492 0.0
C894 C 0.53883 0.88481 0.19618 0.0
C895 C 0.52781 0.86892 0.21557 0.0
C896 C 0.52294 0.86615 0.27312 0.0
C897 C 0.54421 0.88774 0.13534 0.0
C898 C 0.53222 0.88195 0.0922 0.0
C899 C 0.56098 0.89674 0.1198 0.0
C900 C 0.57424 0.90227 0.16313 0.0
C901 C 0.57481 0.89102 0.20132 0.0
C902 C 0.58718 0.89634 0.24263 0.0
C903 C 0.59913 0.91287 0.24589 0.0
C904 C 0.59875 0.92412 0.20779 0.0
C905 C 0.5864 0.91887 0.16643 0.0
H906 H 0.60871 0.91694 0.27786 0.0
H907 H 0.48917 0.86349 0.87429 0.0
H908 H 0.65713 0.57743 0.00803 0.0
H909 H 0.65872 0.57448 0.11203 0.0
H910 H 0.68127 0.54501 0.08403 0.0
H911 H 0.67995 0.548 0.98057 0.0
H912 H 0.65175 0.52966 0.14768 0.0
H913 H 0.70326 0.57996 0.14363 0.0
H914 H 0.72182 0.6091 0.12155 0.0
H915 H 0.69283 0.62234 0.22661 0.0
H916 H 0.67393 0.59324 0.24866 0.0
H917 H 0.66221 0.51334 0.4347 0.0
H918 H 0.66767 0.52243 0.33456 0.0
H919 H 0.65202 0.55749 0.36861 0.0
H920 H 0.64666 0.5485 0.46867 0.0
H921 H 0.67877 0.57083 0.30202 0.0
H922 H 0.62669 0.52166 0.3028 0.0
H923 H 0.60686 0.49275 0.3239 0.0
H924 H 0.63514 0.47764 0.22328 0.0
H925 H 0.65528 0.50649 0.20223 0.0
C926 C 0.66279 0.57065 0.02405 0.0
C927 C 0.66817 0.56273 0.98607 0.0
C928 C 0.66371 0.56901 0.08341 0.0
C929 C 0.67001 0.55943 0.10538 0.0
C930 C 0.67632 0.55239 0.06769 0.0
C931 C 0.67553 0.55413 0.00857 0.0
C932 C 0.66823 0.55507 0.16685 0.0
C933 C 0.65787 0.53861 0.18147 0.0
C934 C 0.67576 0.56689 0.21059 0.0
C935 C 0.68707 0.5844 0.19729 0.0
C936 C 0.70074 0.58907 0.16155 0.0
C937 C 0.71135 0.60559 0.14915 0.0
C938 C 0.70848 0.61757 0.17252 0.0
C939 C 0.69502 0.61305 0.20846 0.0
C940 C 0.68436 0.59654 0.22097 0.0
C941 C 0.66 0.52301 0.42072 0.0
C942 C 0.65424 0.53038 0.45943 0.0
C943 C 0.66311 0.5282 0.36365 0.0
C944 C 0.66016 0.54058 0.34415 0.0
C945 C 0.65451 0.54802 0.38293 0.0
C946 C 0.65151 0.54292 0.44009 0.0
C947 C 0.66242 0.54536 0.28285 0.0
C948 C 0.67274 0.56187 0.26823 0.0
C949 C 0.65466 0.53362 0.23887 0.0
C950 C 0.64258 0.51625 0.25146 0.0
C951 C 0.62875 0.51218 0.28557 0.0
C952 C 0.61744 0.4958 0.29745 0.0
C953 C 0.61976 0.48337 0.27508 0.0
C954 C 0.63337 0.48729 0.24066 0.0
C955 C 0.64474 0.50365 0.22871 0.0
H956 H 0.61099 0.47069 0.28431 0.0
H957 H 0.71671 0.63035 0.1629 0.0
H958 H 0.10902 0.69559 0.16696 0.0
H959 H 0.11096 0.69656 0.27255 0.0
H960 H 0.10382 0.64771 0.27413 0.0
H961 H 0.10223 0.64678 0.16957 0.0
H962 H 0.08508 0.65396 0.35898 0.0
H963 H 0.14053 0.67705 0.28058 0.0
H964 H 0.16381 0.69718 0.22254 0.0
H965 H 0.16574 0.73638 0.3224 0.0
H966 H 0.14228 0.71645 0.38048 0.0
H967 H 0.11621 0.63531 0.59941 0.0
H968 H 0.11132 0.64147 0.50193 0.0
H969 H 0.12749 0.6913 0.55176 0.0
H970 H 0.13283 0.68529 0.64918 0.0
H971 H 0.13968 0.6894 0.44643 0.0
H972 H 0.08842 0.66645 0.53806 0.0
H973 H 0.06548 0.64684 0.59808 0.0
H974 H 0.05453 0.60869 0.47567 0.0
H975 H 0.07782 0.62796 0.41574 0.0
C976 C 0.1077 0.68503 0.19007 0.0
C977 C 0.10558 0.67115 0.16025 0.0
C978 C 0.10882 0.68561 0.25015 0.0
C979 C 0.10752 0.67219 0.28087 0.0
C980 C 0.10478 0.65814 0.25114 0.0
C981 C 0.10399 0.65768 0.19142 0.0
C982 C 0.10997 0.67286 0.34371 0.0
C983 C 0.09698 0.66171 0.3783 0.0
C984 C 0.12537 0.68337 0.36889 0.0
C985 C 0.13953 0.6953 0.33431 0.0
C986 C 0.14582 0.68997 0.28979 0.0
C987 C 0.15906 0.70134 0.25696 0.0
C988 C 0.16621 0.71805 0.26864 0.0
C989 C 0.16017 0.72343 0.3133 0.0
C990 C 0.1469 0.71211 0.34618 0.0
C991 C 0.11879 0.6476 0.58953 0.0
C992 C 0.12448 0.6597 0.63222 0.0
C993 C 0.1159 0.65108 0.53399 0.0
C994 C 0.11872 0.66675 0.52002 0.0
C995 C 0.12503 0.67907 0.56195 0.0
C996 C 0.12786 0.67556 0.61774 0.0
C997 C 0.11493 0.67004 0.46147 0.0
C998 C 0.12765 0.68191 0.42768 0.0
C999 C 0.0992 0.66032 0.43716 0.0
C1000 C 0.08497 0.64866 0.47249 0.0
C1001 C 0.08122 0.65385 0.52408 0.0
C1002 C 0.06813 0.64279 0.55811 0.0
C1003 C 0.05851 0.62653 0.54065 0.0
C1004 C 0.06199 0.62129 0.48913 0.0
C1005 C 0.07516 0.63229 0.45512 0.0
H1006 H 0.04835 0.61799 0.56704 0.0
H1007 H 0.17647 0.72683 0.24319 0.0
H1008 H 0.89039 0.56108 0.00641 0.0
H1009 H 0.89403 0.57112 0.10502 0.0
H1010 H 0.86758 0.52148 0.16727 0.0
H1011 H 0.86482 0.51125 0.06876 0.0
H1012 H 0.85863 0.54721 0.2113 0.0
H1013 H 0.9027 0.53476 0.18521 0.0
H1014 H 0.92685 0.53708 0.13548 0.0
H1015 H 0.95219 0.58923 0.15776 0.0
H1016 H 0.92804 0.58723 0.20695 0.0
H1017 H 0.8718 0.53733 0.49635 0.0
H1018 H 0.86851 0.53778 0.39328 0.0
H1019 H 0.90893 0.58738 0.38609 0.0
H1020 H 0.91254 0.58694 0.49046 0.0
H1021 H 0.91226 0.56826 0.30867 0.0
H1022 H 0.87045 0.57973 0.35609 0.0
H1023 H 0.84659 0.57735 0.40813 0.0
H1024 H 0.81696 0.52818 0.3465 0.0
H1025 H 0.84069 0.53016 0.29473 0.0
C1026 C 0.88585 0.55227 0.04106 0.0
C1027 C 0.87801 0.53535 0.03008 0.0
C1028 C 0.88766 0.55805 0.09722 0.0
C1029 C 0.88117 0.54701 0.14296 0.0
C1030 C 0.87268 0.53014 0.13216 0.0
C1031 C 0.87118 0.52434 0.07608 0.0
C1032 C 0.88366 0.55301 0.20245 0.0
C1033 C 0.8703 0.5518 0.23292 0.0
C1034 C 0.8991 0.55961 0.22925 0.0
C1035 C 0.91351 0.56087 0.19899 0.0
C1036 C 0.91334 0.54674 0.17882 0.0
C1037 C 0.92704 0.54799 0.15092 0.0
C1038 C 0.94103 0.56329 0.14342 0.0
C1039 C 0.94133 0.57739 0.16358 0.0
C1040 C 0.92764 0.57621 0.19146 0.0
C1041 C 0.87994 0.54843 0.47316 0.0
C1042 C 0.89254 0.56207 0.50147 0.0
C1043 C 0.87791 0.54872 0.41418 0.0
C1044 C 0.88832 0.56269 0.38213 0.0
C1045 C 0.9007 0.57652 0.41026 0.0
C1046 C 0.90274 0.57626 0.46973 0.0
C1047 C 0.88704 0.56195 0.31883 0.0
C1048 C 0.90065 0.56414 0.28714 0.0
C1049 C 0.87182 0.55636 0.29089 0.0
C1050 C 0.85741 0.55509 0.32158 0.0
C1051 C 0.85887 0.56837 0.35386 0.0
C1052 C 0.84536 0.56709 0.38331 0.0
C1053 C 0.83027 0.55262 0.38063 0.0
C1054 C 0.82866 0.5394 0.34847 0.0
C1055 C 0.84213 0.5406 0.31894 0.0
H1056 H 0.81983 0.55168 0.40339 0.0
H1057 H 0.95167 0.56419 0.12232 0.0
H1058 H 0.35563 0.90654 0.65897 0.0
H1059 H 0.35383 0.90383 0.55431 0.0
H1060 H 0.30127 0.87451 0.56591 0.0
H1061 H 0.30296 0.87768 0.6711 0.0
H1062 H 0.32257 0.86138 0.5058 0.0
H1063 H 0.30921 0.90443 0.50666 0.0
H1064 H 0.31322 0.93139 0.53455 0.0
H1065 H 0.36077 0.95504 0.45594 0.0
H1066 H 0.35716 0.92819 0.42836 0.0
H1067 H 0.31982 0.85108 0.2033 0.0
H1068 H 0.3132 0.85471 0.30205 0.0
H1069 H 0.35773 0.90162 0.30977 0.0
H1070 H 0.36367 0.89837 0.2098 0.0
H1071 H 0.33579 0.90465 0.36033 0.0
H1072 H 0.35261 0.86429 0.37229 0.0
H1073 H 0.35199 0.83846 0.34941 0.0
H1074 H 0.30231 0.81106 0.40892 0.0
H1075 H 0.30259 0.83675 0.43152 0.0
C1076 C 0.34367 0.89981 0.63906 0.0
C1077 C 0.32942 0.89233 0.67275 0.0
C1078 C 0.34267 0.8983 0.57947 0.0
C1079 C 0.32743 0.88901 0.55276 0.0
C1080 C 0.31311 0.88182 0.58606 0.0
C1081 C 0.31408 0.88368 0.64583 0.0
C1082 C 0.32689 0.88571 0.49068 0.0
C1083 C 0.32504 0.87064 0.47357 0.0
C1084 C 0.33077 0.8981 0.44953 0.0
C1085 C 0.33296 0.91427 0.46587 0.0
C1086 C 0.32059 0.91536 0.4958 0.0
C1087 C 0.32277 0.93063 0.51144 0.0
C1088 C 0.33725 0.94492 0.49714 0.0
C1089 C 0.34956 0.94396 0.46703 0.0
C1090 C 0.34744 0.92872 0.45132 0.0
C1091 C 0.32814 0.86212 0.22643 0.0
C1092 C 0.34227 0.87442 0.19971 0.0
C1093 C 0.32441 0.86418 0.2828 0.0
C1094 C 0.3351 0.87832 0.31395 0.0
C1095 C 0.34925 0.89062 0.28679 0.0
C1096 C 0.35272 0.88874 0.22995 0.0
C1097 C 0.33175 0.88032 0.37494 0.0
C1098 C 0.33297 0.89518 0.39204 0.0
C1099 C 0.32775 0.86789 0.41648 0.0
C1100 C 0.32756 0.85243 0.40292 0.0
C1101 C 0.34152 0.85275 0.38009 0.0
C1102 C 0.34123 0.83814 0.36724 0.0
C1103 C 0.3271 0.82313 0.37752 0.0
C1104 C 0.31324 0.8227 0.40085 0.0
C1105 C 0.31346 0.83728 0.41372 0.0
H1106 H 0.3269 0.81183 0.36755 0.0
H1107 H 0.33892 0.95673 0.50928 0.0
H1108 H 0.45815 0.36102 0.3567 0.0
H1109 H 0.44888 0.35743 0.4565 0.0
H1110 H 0.47636 0.33329 0.49471 0.0
H1111 H 0.48565 0.3368 0.39439 0.0
H1112 H 0.44342 0.31726 0.53988 0.0
H1113 H 0.49217 0.37061 0.53352 0.0
H1114 H 0.50963 0.39854 0.49604 0.0
H1115 H 0.47233 0.4104 0.5363 0.0
H1116 H 0.45455 0.38243 0.57329 0.0
H1117 H 0.45085 0.32369 0.842 0.0
H1118 H 0.45283 0.32273 0.73805 0.0
H1119 H 0.43286 0.35487 0.71991 0.0
H1120 H 0.43134 0.35632 0.82441 0.0
H1121 H 0.45976 0.36625 0.66132 0.0
H1122 H 0.41165 0.31404 0.67508 0.0
H1123 H 0.3936 0.28613 0.71168 0.0
H1124 H 0.42813 0.27185 0.65689 0.0
H1125 H 0.44651 0.29975 0.62066 0.0
C1126 C 0.46202 0.35475 0.38619 0.0
C1127 C 0.4724 0.34896 0.36792 0.0
C1128 C 0.45681 0.3528 0.44315 0.0
C1129 C 0.46192 0.34506 0.4827 0.0
C1130 C 0.47224 0.33921 0.46455 0.0
C1131 C 0.4776 0.34131 0.40759 0.0
C1132 C 0.45688 0.34357 0.54346 0.0
C1133 C 0.44709 0.32792 0.56682 0.0
C1134 C 0.46126 0.35754 0.5776 0.0
C1135 C 0.47196 0.37437 0.55556 0.0
C1136 C 0.48763 0.37912 0.53389 0.0
C1137 C 0.4976 0.39497 0.51284 0.0
C1138 C 0.49207 0.40622 0.51363 0.0
C1139 C 0.47658 0.40166 0.53563 0.0
C1140 C 0.46656 0.38582 0.55667 0.0
C1141 C 0.44658 0.33032 0.81597 0.0
C1142 C 0.4411 0.34023 0.84147 0.0
C1143 C 0.44762 0.32967 0.75638 0.0
C1144 C 0.44293 0.33868 0.72107 0.0
C1145 C 0.4366 0.34786 0.74636 0.0
C1146 C 0.43569 0.34864 0.80607 0.0
C1147 C 0.44629 0.33986 0.65852 0.0
C1148 C 0.45585 0.35551 0.63459 0.0
C1149 C 0.44156 0.32586 0.62385 0.0
C1150 C 0.43053 0.30904 0.64553 0.0
C1151 C 0.41546 0.30499 0.67122 0.0
C1152 C 0.40516 0.28916 0.69184 0.0
C1153 C 0.40973 0.27723 0.68672 0.0
C1154 C 0.42461 0.2811 0.66085 0.0
C1155 C 0.43497 0.29692 0.64019 0.0
H1156 H 0.40173 0.26498 0.70271 0.0
H1157 H 0.49981 0.41849 0.49732 0.0
H1158 H 0.11587 0.48244 0.54706 0.0
H1159 H 0.11221 0.47213 0.64564 0.0
H1160 H 0.12623 0.437 0.59268 0.0
H1161 H 0.13066 0.44786 0.49472 0.0
H1162 H 0.09215 0.44307 0.69145 0.0
H1163 H 0.14605 0.43087 0.70439 0.0
H1164 H 0.17302 0.44037 0.6593 0.0
H1165 H 0.1775 0.48718 0.62549 0.0
H1166 H 0.15068 0.47802 0.67098 0.0
H1167 H 0.08726 0.41188 0.97236 0.0
H1168 H 0.09035 0.41295 0.86759 0.0
H1169 H 0.13437 0.46 0.8817 0.0
H1170 H 0.1317 0.45879 0.98549 0.0
H1171 H 0.13787 0.44352 0.79836 0.0
H1172 H 0.09584 0.45595 0.85932 0.0
H1173 H 0.06992 0.44958 0.90676 0.0
H1174 H 0.04362 0.40784 0.7969 0.0
H1175 H 0.06944 0.41389 0.74927 0.0
C1176 C 0.11816 0.47252 0.55664 0.0
C1177 C 0.12313 0.46564 0.51328 0.0
C1178 C 0.11596 0.46657 0.61272 0.0
C1179 C 0.11887 0.45374 0.62643 0.0
C1180 C 0.12392 0.4469 0.58308 0.0
C1181 C 0.12623 0.45295 0.52705 0.0
C1182 C 0.11701 0.44794 0.68656 0.0
C1183 C 0.1021 0.44303 0.71469 0.0
C1184 C 0.12999 0.44792 0.71689 0.0
C1185 C 0.14628 0.45367 0.69042 0.0
C1186 C 0.15283 0.4432 0.68748 0.0
C1187 C 0.16808 0.44852 0.66183 0.0
C1188 C 0.17694 0.46434 0.63931 0.0
C1189 C 0.1706 0.4749 0.6427 0.0
C1190 C 0.15537 0.46965 0.66836 0.0
C1191 C 0.09774 0.42229 0.95309 0.0
C1192 C 0.10908 0.43537 0.98716 0.0
C1193 C 0.09947 0.42292 0.89326 0.0
C1194 C 0.11244 0.4367 0.86677 0.0
C1195 C 0.12425 0.44925 0.90107 0.0
C1196 C 0.12263 0.44859 0.96056 0.0
C1197 C 0.11313 0.439 0.80365 0.0
C1198 C 0.12779 0.4432 0.77479 0.0
C1199 C 0.10007 0.4388 0.77299 0.0
C1200 C 0.08456 0.43526 0.80124 0.0
C1201 C 0.08453 0.44537 0.84554 0.0
C1202 C 0.06987 0.44182 0.87243 0.0
C1203 C 0.05514 0.42828 0.85498 0.0
C1204 C 0.05504 0.4183 0.81046 0.0
C1205 C 0.06968 0.42178 0.7835 0.0
H1206 H 0.04379 0.42555 0.87586 0.0
H1207 H 0.18873 0.46842 0.61936 0.0
H1208 H 0.64702 0.13319 0.72727 0.0
H1209 H 0.65447 0.12989 0.82534 0.0
H1210 H 0.6805 0.10668 0.7591 0.0
H1211 H 0.67411 0.1109 0.66115 0.0
H1212 H 0.65204 0.09087 0.86141 0.0
H1213 H 0.70522 0.13516 0.79783 0.0
H1214 H 0.7229 0.16184 0.75151 0.0
H1215 H 0.70658 0.18514 0.87183 0.0
H1216 H 0.68859 0.15853 0.91828 0.0
H1217 H 0.67686 0.08711 0.1465 0.0
H1218 H 0.67927 0.08986 0.04162 0.0
H1219 H 0.67485 0.13318 0.05146 0.0
H1220 H 0.67288 0.13079 0.15527 0.0
H1221 H 0.69597 0.13702 0.97125 0.0
H1222 H 0.64143 0.09525 0.02721 0.0
H1223 H 0.62105 0.06958 0.07383 0.0
H1224 H 0.63688 0.04247 0.96993 0.0
H1225 H 0.6575 0.06805 0.92315 0.0
C1226 C 0.65433 0.12739 0.73368 0.0
C1227 C 0.65942 0.12171 0.68673 0.0
C1228 C 0.65855 0.12551 0.78947 0.0
C1229 C 0.66786 0.11791 0.79889 0.0
C1230 C 0.67312 0.11238 0.75229 0.0
C1231 C 0.66921 0.11457 0.6965 0.0
C1232 C 0.67197 0.11571 0.85782 0.0
C1233 C 0.66189 0.10078 0.8853 0.0
C1234 C 0.68456 0.12883 0.88864 0.0
C1235 C 0.69543 0.14484 0.86107 0.0
C1236 C 0.70527 0.14594 0.814 0.0
C1237 C 0.71538 0.16106 0.78782 0.0
C1238 C 0.71583 0.17517 0.8086 0.0
C1239 C 0.7062 0.1742 0.85572 0.0
C1240 C 0.69606 0.15911 0.88201 0.0
C1241 C 0.6767 0.09736 0.12624 0.0
C1242 C 0.67442 0.10858 0.15896 0.0
C1243 C 0.67802 0.09889 0.06643 0.0
C1244 C 0.67699 0.11159 0.03882 0.0
C1245 C 0.67567 0.12328 0.07184 0.0
C1246 C 0.67441 0.12181 0.13125 0.0
C1247 C 0.67589 0.11217 0.97563 0.0
C1248 C 0.68645 0.12687 0.94722 0.0
C1249 C 0.66349 0.09892 0.9442 0.0
C1250 C 0.65114 0.08356 0.9723 0.0
C1251 C 0.64065 0.08383 0.01467 0.0
C1252 C 0.62904 0.0693 0.04105 0.0
C1253 C 0.62771 0.05441 0.02501 0.0
C1254 C 0.63796 0.05402 0.98242 0.0
C1255 C 0.64961 0.06852 0.95596 0.0
H1256 H 0.61871 0.04317 0.04546 0.0
H1257 H 0.72367 0.18686 0.78829 0.0
H1258 H 0.55118 0.67959 0.33283 0.0
H1259 H 0.54829 0.68029 0.22936 0.0
H1260 H 0.58293 0.6636 0.20514 0.0
H1261 H 0.58546 0.66226 0.30939 0.0
H1262 H 0.56556 0.69417 0.13835 0.0
H1263 H 0.5699 0.63627 0.0961 0.0
H1264 H 0.5665 0.61197 0.14819 0.0
H1265 H 0.53273 0.61494 0.26445 0.0
H1266 H 0.53578 0.63912 0.21264 0.0
H1267 H 0.55695 0.67926 0.83817 0.0
H1268 H 0.56664 0.68391 0.93735 0.0
H1269 H 0.5222 0.64059 0.98999 0.0
H1270 H 0.5131 0.63522 0.88988 0.0
H1271 H 0.5464 0.64086 0.04103 0.0
H1272 H 0.52974 0.68077 0.01246 0.0
H1273 H 0.52923 0.70379 0.96417 0.0
H1274 H 0.58065 0.73463 0.99613 0.0
H1275 H 0.5815 0.71173 0.044 0.0
C1276 C 0.55839 0.67627 0.30565 0.0
C1277 C 0.56829 0.67052 0.32936 0.0
C1278 C 0.55678 0.67678 0.24635 0.0
C1279 C 0.56512 0.67167 0.20953 0.0
C1280 C 0.57611 0.66726 0.23289 0.0
C1281 C 0.57759 0.66656 0.29244 0.0
C1282 C 0.56099 0.66951 0.14756 0.0
C1283 C 0.56151 0.68256 0.11685 0.0
C1284 C 0.55532 0.65425 0.11992 0.0
C1285 C 0.55323 0.6396 0.15092 0.0
C1286 C 0.56172 0.63169 0.13269 0.0
C1287 C 0.55986 0.61795 0.16217 0.0
C1288 C 0.54945 0.61195 0.20973 0.0
C1289 C 0.54083 0.61963 0.22775 0.0
C1290 C 0.54263 0.63336 0.19838 0.0
C1291 C 0.54948 0.67049 0.87074 0.0
C1292 C 0.5346 0.65652 0.85624 0.0
C1293 C 0.55486 0.67335 0.92758 0.0
C1294 C 0.54514 0.66262 0.97125 0.0
C1295 C 0.52999 0.64895 0.95696 0.0
C1296 C 0.52475 0.64594 0.89993 0.0
C1297 C 0.5508 0.66547 0.03177 0.0
C1298 C 0.55063 0.65254 0.06216 0.0
C1299 C 0.55621 0.68067 0.05963 0.0
C1300 C 0.55571 0.69449 0.03128 0.0
C1301 C 0.54096 0.69244 0.00885 0.0
C1302 C 0.54061 0.70546 0.9816 0.0
C1303 C 0.55491 0.72065 0.97693 0.0
C1304 C 0.56959 0.72286 -0.00031 0.0
C1305 C 0.57001 0.70986 0.02693 0.0
H1306 H 0.55462 0.73071 0.95578 0.0
H1307 H 0.54805 0.60132 0.23253 0.0
H1308 H 0.49464 0.11248 0.2506 0.0
H1309 H 0.51948 0.1142 0.289 0.0
H1310 H 0.54238 0.12873 0.1225 0.0
H1311 H 0.51738 0.12674 0.08321 0.0
H1312 H 0.54736 0.10572 0.16887 0.0
H1313 H 0.55271 0.15651 0.23333 0.0
H1314 H 0.54373 0.17403 0.281 0.0
H1315 H 0.53915 0.14951 0.44112 0.0
H1316 H 0.5479 0.13169 0.39423 0.0
H1317 H 0.62701 0.12811 0.25453 0.0
H1318 H 0.60343 0.12956 0.21969 0.0
H1319 H 0.5812 0.11594 0.38751 0.0
H1320 H 0.60517 0.11499 0.4234 0.0
H1321 H 0.57588 0.13867 0.34108 0.0
H1322 H 0.56995 0.08759 0.27704 0.0
H1323 H 0.57882 0.06989 0.23005 0.0
H1324 H 0.5841 0.09456 0.06974 0.0
H1325 H 0.57547 0.11256 0.11597 0.0
C1326 C 0.50496 0.11612 0.22203 0.0
C1327 C 0.504 0.1195 0.16373 0.0
C1328 C 0.51921 0.11718 0.24423 0.0
C1329 C 0.53288 0.12181 0.20886 0.0
C1330 C 0.53198 0.12518 0.15064 0.0
C1331 C 0.51769 0.12407 0.12827 0.0
C1332 C 0.54791 0.1226 0.23227 0.0
C1333 C 0.55374 0.11313 0.20598 0.0
C1334 C 0.55596 0.13188 0.28175 0.0
C1335 C 0.55082 0.14267 0.31014 0.0
C1336 C 0.54968 0.15478 0.27862 0.0
C1337 C 0.54465 0.16478 0.30551 0.0
C1338 C 0.54083 0.16286 0.36402 0.0
C1339 C 0.54209 0.15097 0.39579 0.0
C1340 C 0.5471 0.14093 0.36909 0.0
C1341 C 0.61716 0.1255 0.28423 0.0
C1342 C 0.61787 0.12124 0.34161 0.0
C1343 C 0.60364 0.12628 0.26414 0.0
C1344 C 0.59035 0.12246 0.30056 0.0
C1345 C 0.59127 0.11882 0.35852 0.0
C1346 C 0.60496 0.11827 0.37896 0.0
C1347 C 0.57536 0.12185 0.27748 0.0
C1348 C 0.56951 0.13129 0.3039 0.0
C1349 C 0.56723 0.11249 0.22819 0.0
C1350 C 0.57219 0.10151 0.2001 0.0
C1351 C 0.57309 0.0893 0.23184 0.0
C1352 C 0.57807 0.07921 0.20533 0.0
C1353 C 0.58206 0.08113 0.14697 0.0
C1354 C 0.58102 0.0931 0.11495 0.0
C1355 C 0.57607 0.10324 0.14127 0.0
H1356 H 0.58593 0.07331 0.12654 0.0
H1357 H 0.53694 0.17061 0.38476 0.0
H1358 H 0.39743 0.51636 0.23608 0.0
H1359 H 0.4211 0.54158 0.27113 0.0
H1360 H 0.40319 0.52888 0.44469 0.0
H1361 H 0.37961 0.50359 0.41026 0.0
H1362 H 0.41492 0.56225 0.41632 0.0
H1363 H 0.4317 0.52173 0.40608 0.0
H1364 H 0.43579 0.50071 0.35841 0.0
H1365 H 0.46747 0.5361 0.23435 0.0
H1366 H 0.46337 0.55729 0.28082 0.0
H1367 H 0.48655 0.61276 0.57838 0.0
H1368 H 0.46186 0.59006 0.53671 0.0
H1369 H 0.48474 0.60124 0.36971 0.0
H1370 H 0.50956 0.62382 0.41104 0.0
H1371 H 0.47031 0.5693 0.39056 0.0
H1372 H 0.45487 0.61028 0.4024 0.0
H1373 H 0.45074 0.63146 0.44855 0.0
H1374 H 0.41664 0.59583 0.56702 0.0
H1375 H 0.42074 0.57446 0.52209 0.0
C1376 C 0.39845 0.519 0.28165 0.0
C1377 C 0.38668 0.50792 0.32042 0.0
C1378 C 0.41199 0.53339 0.30158 0.0
C1379 C 0.41392 0.53702 0.36051 0.0
C1380 C 0.40192 0.52628 0.39906 0.0
C1381 C 0.38849 0.51181 0.3793 0.0
C1382 C 0.42876 0.55166 0.38236 0.0
C1383 C 0.42703 0.56376 0.41123 0.0
C1384 C 0.44456 0.55375 0.37442 0.0
C1385 C 0.44707 0.54104 0.3465 0.0
C1386 C 0.43941 0.52499 0.3683 0.0
C1387 C 0.44176 0.51306 0.34157 0.0
C1388 C 0.45184 0.51705 0.29327 0.0
C1389 C 0.45964 0.53301 0.2717 0.0
C1390 C 0.45731 0.54499 0.29823 0.0
C1391 C 0.48633 0.61047 0.53273 0.0
C1392 C 0.50007 0.62014 0.49812 0.0
C1393 C 0.47216 0.59751 0.5089 0.0
C1394 C 0.47139 0.59404 0.44996 0.0
C1395 C 0.48505 0.6037 0.41528 0.0
C1396 C 0.49923 0.61665 0.43903 0.0
C1397 C 0.45654 0.57997 0.42483 0.0
C1398 C 0.45824 0.56792 0.3954 0.0
C1399 C 0.44074 0.57799 0.43203 0.0
C1400 C 0.43824 0.5908 0.45921 0.0
C1401 C 0.44659 0.60698 0.43861 0.0
C1402 C 0.44424 0.61902 0.46449 0.0
C1403 C 0.43347 0.615 0.51078 0.0
C1404 C 0.425 0.59893 0.5312 0.0
C1405 C 0.42732 0.58685 0.50551 0.0
H1406 H 0.43166 0.62434 0.53074 0.0
H1407 H 0.45364 0.50779 0.27265 0.0
H1408 H 0.89391 0.3807 0.58586 0.0
H1409 H 0.89286 0.40342 0.63154 0.0
H1410 H 0.87275 0.41132 0.47645 0.0
H1411 H 0.87412 0.38883 0.42986 0.0
H1412 H 0.89698 0.43928 0.5164 0.0
H1413 H 0.84926 0.39281 0.60102 0.0
H1414 H 0.83503 0.36696 0.65549 0.0
H1415 H 0.8654 0.39044 0.80213 0.0
H1416 H 0.87994 0.41639 0.7483 0.0
H1417 H 0.87242 0.49376 0.60605 0.0
H1418 H 0.87189 0.46893 0.57417 0.0
H1419 H 0.89021 0.46459 0.73913 0.0
H1420 H 0.89017 0.4893 0.77225 0.0
H1421 H 0.86861 0.43515 0.70042 0.0
H1422 H 0.91599 0.48093 0.6224 0.0
H1423 H 0.93187 0.50723 0.57166 0.0
H1424 H 0.90473 0.48562 0.41719 0.0
H1425 H 0.88853 0.45923 0.46722 0.0
C1426 C 0.88917 0.38719 0.56145 0.0
C1427 C 0.88411 0.38292 0.50406 0.0
C1428 C 0.88849 0.40015 0.58785 0.0
C1429 C 0.88253 0.40897 0.55773 0.0
C1430 C 0.87737 0.40467 0.50059 0.0
C1431 C 0.87815 0.39179 0.47401 0.0
C1432 C 0.88234 0.42317 0.58457 0.0
C1433 C 0.89057 0.4383 0.5562 0.0
C1434 C 0.87465 0.4221 0.63798 0.0
C1435 C 0.86579 0.40651 0.67042 0.0
C1436 C 0.85297 0.39244 0.64474 0.0
C1437 C 0.84484 0.37777 0.67554 0.0
C1438 C 0.84933 0.37705 0.7322 0.0
C1439 C 0.86194 0.39101 0.75824 0.0
C1440 C 0.87011 0.40571 0.72762 0.0
C1441 C 0.87623 0.48747 0.63579 0.0
C1442 C 0.88155 0.4936 0.69144 0.0
C1443 C 0.87598 0.4733 0.61741 0.0
C1444 C 0.88145 0.46513 0.65365 0.0
C1445 C 0.88607 0.47077 0.71023 0.0
C1446 C 0.88605 0.48487 0.7291 0.0
C1447 C 0.88283 0.45111 0.63124 0.0
C1448 C 0.875 0.4361 0.66059 0.0
C1449 C 0.89114 0.45231 0.57917 0.0
C1450 C 0.90096 0.46813 0.54872 0.0
C1451 C 0.91334 0.48181 0.57771 0.0
C1452 C 0.9224 0.49673 0.54906 0.0
C1453 C 0.91929 0.49811 0.49127 0.0
C1454 C 0.90713 0.48454 0.46196 0.0
C1455 C 0.89801 0.46959 0.49043 0.0
H1456 H 0.92632 0.50967 0.46918 0.0
H1457 H 0.84303 0.36568 0.75596 0.0
H1458 H 0.38117 0.87753 0.76947 0.0
H1459 H 0.40473 0.87531 0.7398 0.0
H1460 H 0.42046 0.87991 0.91606 0.0
H1461 H 0.3967 0.88214 0.94652 0.0
H1462 H 0.44554 0.90025 0.84154 0.0
H1463 H 0.40535 0.84388 0.8543 0.0
H1464 H 0.37863 0.81904 0.83859 0.0
H1465 H 0.38665 0.82372 0.65636 0.0
H1466 H 0.41334 0.84875 0.6709 0.0
H1467 H 0.50917 0.88482 0.76258 0.0
H1468 H 0.48482 0.88246 0.80833 0.0
H1469 H 0.46141 0.87454 0.6431 0.0
H1470 H 0.48567 0.87663 0.59673 0.0
H1471 H 0.4403 0.85423 0.72247 0.0
H1472 H 0.47889 0.91231 0.71017 0.0
H1473 H 0.5057 0.9371 0.72575 0.0
H1474 H 0.5006 0.92885 0.90785 0.0
H1475 H 0.47381 0.90391 0.89326 0.0
C1476 C 0.38956 0.87801 0.80217 0.0
C1477 C 0.38705 0.88004 0.86045 0.0
C1478 C 0.403 0.87664 0.78507 0.0
C1479 C 0.41427 0.8773 0.82574 0.0
C1480 C 0.41185 0.87931 0.88403 0.0
C1481 C 0.39826 0.88053 0.90135 0.0
C1482 C 0.42885 0.87652 0.80636 0.0
C1483 C 0.44442 0.89004 0.81651 0.0
C1484 C 0.42736 0.86334 0.77275 0.0
C1485 C 0.4113 0.84828 0.7637 0.0
C1486 C 0.40136 0.8397 0.81084 0.0
C1487 C 0.38623 0.82557 0.80215 0.0
C1488 C 0.38093 0.81982 0.74651 0.0
C1489 C 0.39077 0.82819 0.69944 0.0
C1490 C 0.40591 0.84234 0.70789 0.0
C1491 C 0.49885 0.88253 0.7358 0.0
C1492 C 0.49945 0.88105 0.67578 0.0
C1493 C 0.48493 0.88121 0.76214 0.0
C1494 C 0.47138 0.87854 0.72914 0.0
C1495 C 0.47175 0.87663 0.66943 0.0
C1496 C 0.48566 0.87789 0.64296 0.0
C1497 C 0.45695 0.8781 0.75668 0.0
C1498 C 0.44142 0.86436 0.74803 0.0
C1499 C 0.45847 0.89107 0.79167 0.0
C1500 C 0.47443 0.90619 0.80059 0.0
C1501 C 0.48353 0.91575 0.7535 0.0
C1502 C 0.49871 0.92983 0.76215 0.0
C1503 C 0.50486 0.93453 0.81775 0.0
C1504 C 0.49582 0.92519 0.86482 0.0
C1505 C 0.48063 0.9111 0.8564 0.0
H1506 H 0.51663 0.94543 0.82436 0.0
H1507 H 0.36921 0.80887 0.73987 0.0
H1508 H 0.51865 0.39343 0.09242 0.0
H1509 H 0.54309 0.41656 0.05084 0.0
H1510 H 0.52264 0.40166 0.8812 0.0
H1511 H 0.49817 0.37849 0.92222 0.0
H1512 H 0.55551 0.41072 0.88584 0.0
H1513 H 0.5209 0.43209 0.94477 0.0
H1514 H 0.50415 0.43741 0.01324 0.0
H1515 H 0.54604 0.46405 0.12212 0.0
H1516 H 0.563 0.45869 0.05463 0.0
H1517 H 0.60702 0.48442 0.73453 0.0
H1518 H 0.58396 0.46 0.77629 0.0
H1519 H 0.6018 0.47837 0.94643 0.0
H1520 H 0.6246 0.503 0.90509 0.0
H1521 H 0.57039 0.46718 0.94251 0.0
H1522 H 0.60533 0.44649 0.8844 0.0
H1523 H 0.62232 0.441 0.81762 0.0
H1524 H 0.58053 0.413 0.70966 0.0
H1525 H 0.56333 0.4185 0.77542 0.0
C1526 C 0.51936 0.395 0.04623 0.0
C1527 C 0.50638 0.38414 0.01071 0.0
C1528 C 0.53333 0.40826 0.02257 0.0
C1529 C 0.5346 0.4109 0.96298 0.0
C1530 C 0.52189 0.39984 0.92729 0.0
C1531 C 0.50788 0.38664 0.9509 0.0
C1532 C 0.54899 0.42544 0.93795 0.0
C1533 C 0.5587 0.42308 0.89769 0.0
C1534 C 0.55332 0.44153 0.95447 0.0
C1535 C 0.54317 0.44484 0.99494 0.0
C1536 C 0.52651 0.43897 0.98354 0.0
C1537 C 0.51698 0.44201 0.02213 0.0
C1538 C 0.52402 0.45102 0.07208 0.0
C1539 C 0.54061 0.45705 0.08345 0.0
C1540 C 0.55018 0.45402 0.04503 0.0
C1541 C 0.60609 0.48323 0.78084 0.0
C1542 C 0.61768 0.49569 0.81642 0.0
C1543 C 0.59293 0.46921 0.80469 0.0
C1544 C 0.59122 0.46723 0.86458 0.0
C1545 C 0.60283 0.4796 0.90013 0.0
C1546 C 0.6159 0.49368 0.87636 0.0
C1547 C 0.57705 0.45254 0.89033 0.0
C1548 C 0.56732 0.45484 0.93071 0.0
C1549 C 0.57278 0.4364 0.87414 0.0
C1550 C 0.58308 0.43304 0.83456 0.0
C1551 C 0.59979 0.43927 0.84619 0.0
C1552 C 0.60945 0.43614 0.80856 0.0
C1553 C 0.60252 0.4267 0.75935 0.0
C1554 C 0.58589 0.42033 0.74775 0.0
C1555 C 0.57617 0.42344 0.78522 0.0
H1556 H 0.61002 0.42429 0.73027 0.0
H1557 H 0.51662 0.45337 0.1019 0.0
H1558 H 0.12245 0.51509 0.24359 0.0
H1559 H 0.12328 0.53952 0.20378 0.0
H1560 H 0.12486 0.52311 0.03232 0.0
H1561 H 0.12396 0.49864 0.07153 0.0
H1562 H 0.14667 0.55666 0.04871 0.0
H1563 H 0.08987 0.51722 0.08007 0.0
H1564 H 0.06603 0.49752 0.13691 0.0
H1565 H 0.07339 0.53571 0.25429 0.0
H1566 H 0.09743 0.5556 0.19857 0.0
H1567 H 0.12434 0.60845 0.8964 0.0
H1568 H 0.12609 0.5851 0.93377 0.0
H1569 H 0.11859 0.59703 0.10581 0.0
H1570 H 0.11652 0.62008 0.06899 0.0
H1571 H 0.09994 0.56548 0.08781 0.0
H1572 H 0.15654 0.60505 0.05807 0.0
H1573 H 0.18074 0.62498 0.0033 0.0
H1574 H 0.17437 0.58721 0.88556 0.0
H1575 H 0.14997 0.56709 0.93921 0.0
C1576 C 0.1231 0.51673 0.19743 0.0
C1577 C 0.12303 0.50485 0.16075 0.0
C1578 C 0.12353 0.53068 0.17477 0.0
C1579 C 0.12399 0.53304 0.11509 0.0
C1580 C 0.12449 0.5215 0.07847 0.0
C1581 C 0.1239 0.50749 0.10102 0.0
C1582 C 0.12333 0.54722 0.09075 0.0
C1583 C 0.13638 0.55853 0.05665 0.0
C1584 C 0.11004 0.54977 0.10206 0.0
C1585 C 0.09555 0.53785 0.13549 0.0
C1586 C 0.08649 0.52138 0.11828 0.0
C1587 C 0.07292 0.51019 0.15024 0.0
C1588 C 0.06822 0.51535 0.19927 0.0
C1589 C 0.07706 0.53173 0.21635 0.0
C1590 C 0.09065 0.54296 0.18458 0.0
C1591 C 0.12312 0.60613 0.9422 0.0
C1592 C 0.12026 0.61615 0.97961 0.0
C1593 C 0.12419 0.59282 0.96355 0.0
C1594 C 0.12259 0.58937 0.02272 0.0
C1595 C 0.11982 0.59941 0.06002 0.0
C1596 C 0.11868 0.61263 0.03879 0.0
C1597 C 0.12336 0.5751 0.04599 0.0
C1598 C 0.11027 0.5637 0.07982 0.0
C1599 C 0.13667 0.57254 0.03466 0.0
C1600 C 0.15132 0.5846 0.0023 0.0
C1601 C 0.16021 0.60102 0.02021 0.0
C1602 C 0.17398 0.61235 0.98943 0.0
C1603 C 0.17906 0.60737 0.94089 0.0
C1604 C 0.1704 0.59105 0.92312 0.0
C1605 C 0.15661 0.57968 0.95372 0.0
H1606 H 0.18973 0.61616 0.91712 0.0
H1607 H 0.05772 0.50667 0.22395 0.0
H1608 H 0.43848 0.06986 0.98083 0.0
H1609 H 0.42129 0.04115 0.95538 0.0
H1610 H 0.39883 0.03118 0.12299 0.0
H1611 H 0.41621 0.06 0.14931 0.0
H1612 H 0.40794 0.00924 0.09443 0.0
H1613 H 0.37786 0.03156 0.00292 0.0
H1614 H 0.37436 0.05072 0.94061 0.0
H1615 H 0.39064 0.03478 0.79493 0.0
H1616 H 0.39446 0.01567 0.85651 0.0
H1617 H 0.35164 0.92712 0.02789 0.0
H1618 H 0.36261 0.95578 0.05434 0.0
H1619 H 0.38425 0.97064 0.88598 0.0
H1620 H 0.37266 0.94189 0.85862 0.0
H1621 H 0.37372 0.99006 0.91864 0.0
H1622 H 0.40638 0.97009 0.00848 0.0
H1623 H 0.41101 0.95127 0.06871 0.0
H1624 H 0.39137 0.96334 0.21503 0.0
H1625 H 0.38644 0.98208 0.15545 0.0
C1626 C 0.42978 0.06165 0.01225 0.0
C1627 C 0.42874 0.06729 0.06718 0.0
C1628 C 0.41989 0.0452 0.99746 0.0
C1629 C 0.40862 0.03402 0.037 0.0
C1630 C 0.40741 0.03961 0.09171 0.0
C1631 C 0.41733 0.05609 0.10663 0.0
C1632 C 0.39875 0.01639 0.02201 0.0
C1633 C 0.40021 0.00501 0.0566 0.0
C1634 C 0.38902 0.01091 0.97173 0.0
C1635 C 0.38655 0.02226 0.93446 0.0
C1636 C 0.38079 0.03221 0.95767 0.0
C1637 C 0.37874 0.04305 0.92246 0.0
C1638 C 0.38231 0.04399 0.86387 0.0
C1639 C 0.38789 0.03404 0.84033 0.0
C1640 C 0.38997 0.02319 0.87535 0.0
C1641 C 0.35866 0.9365 0.99644 0.0
C1642 C 0.3615 0.93229 0.94149 0.0
C1643 C 0.36496 0.95289 0.01163 0.0
C1644 C 0.37466 0.96544 0.97273 0.0
C1645 C 0.37689 0.96122 0.91691 0.0
C1646 C 0.37029 0.94478 0.90131 0.0
C1647 C 0.38301 0.98291 0.99085 0.0
C1648 C 0.38132 0.99426 0.9568 0.0
C1649 C 0.39269 0.98842 0.04132 0.0
C1650 C 0.3959 0.97736 0.07739 0.0
C1651 C 0.40298 0.96866 0.05344 0.0
C1652 C 0.40566 0.95802 0.08746 0.0
C1653 C 0.40144 0.95608 0.14562 0.0
C1654 C 0.3946 0.96484 0.16995 0.0
C1655 C 0.39188 0.97548 0.13609 0.0
H1656 H 0.40351 0.94781 0.17187 0.0
H1657 H 0.38072 0.0524 0.8367 0.0
H1658 H 0.41271 0.34768 0.06462 0.0
H1659 H 0.39584 0.35957 0.09242 0.0
H1660 H 0.43459 0.39376 0.20332 0.0
H1661 H 0.45092 0.3812 0.17863 0.0
H1662 H 0.40851 0.38602 0.25372 0.0
H1663 H 0.42635 0.40309 0.05991 0.0
H1664 H 0.42977 0.39938 0.95696 0.0
H1665 H 0.37758 0.37215 0.93574 0.0
H1666 H 0.37386 0.37553 0.03877 0.0
H1667 H 0.38123 0.44829 0.16165 0.0
H1668 H 0.39345 0.4315 0.13964 0.0
H1669 H 0.36428 0.3974 0.27256 0.0
H1670 H 0.3526 0.41472 0.29676 0.0
H1671 H 0.38382 0.40339 0.10092 0.0
H1672 H 0.38367 0.37869 0.3288 0.0
H1673 H 0.38472 0.38691 0.43006 0.0
H1674 H 0.40943 0.4375 0.38015 0.0
H1675 H 0.40871 0.42959 0.27876 0.0
C1676 C 0.41754 0.35766 0.09524 0.0
C1677 C 0.43316 0.36357 0.11921 0.0
C1678 C 0.40793 0.36453 0.11089 0.0
C1679 C 0.41402 0.37784 0.14915 0.0
C1680 C 0.42952 0.3835 0.17384 0.0
C1681 C 0.43891 0.37635 0.15949 0.0
C1682 C 0.40456 0.38624 0.16259 0.0
C1683 C 0.40308 0.38977 0.22021 0.0
C1684 C 0.39764 0.39141 0.1191 0.0
C1685 C 0.39983 0.38941 0.05713 0.0
C1686 C 0.41561 0.39623 0.03334 0.0
C1687 C 0.4176 0.39419 0.97498 0.0
C1688 C 0.4039 0.38549 0.93987 0.0
C1689 C 0.38818 0.37885 0.96302 0.0
C1690 C 0.38612 0.38083 0.02137 0.0
C1691 C 0.37736 0.43719 0.18615 0.0
C1692 C 0.36599 0.43287 0.23114 0.0
C1693 C 0.38434 0.42755 0.17339 0.0
C1694 C 0.37997 0.41322 0.20475 0.0
C1695 C 0.36818 0.40858 0.24854 0.0
C1696 C 0.36144 0.41843 0.26219 0.0
C1697 C 0.38808 0.40347 0.1919 0.0
C1698 C 0.38917 0.39956 0.13445 0.0
C1699 C 0.39532 0.39864 0.23529 0.0
C1700 C 0.39594 0.40352 0.29618 0.0
C1701 C 0.38936 0.39156 0.3395 0.0
C1702 C 0.38989 0.39617 0.39689 0.0
C1703 C 0.39707 0.41271 0.41149 0.0
C1704 C 0.40381 0.42469 0.36876 0.0
C1705 C 0.40332 0.42015 0.31133 0.0
H1706 H 0.39746 0.41624 0.45594 0.0
H1707 H 0.40547 0.38392 0.89471 0.0
H1708 H 0.06565 0.41064 0.19613 0.0
H1709 H 0.03693 0.39293 0.22368 0.0
H1710 H 0.04099 0.42964 0.3439 0.0
H1711 H 0.06973 0.44676 0.31913 0.0
H1712 H 0.02404 0.40272 0.39155 0.0
H1713 H 0.0224 0.42271 0.20284 0.0
H1714 H 0.02843 0.42735 0.09923 0.0
H1715 H 0.00413 0.37547 0.07072 0.0
H1716 H 0.99812 0.37053 0.17434 0.0
H1717 H 0.93397 0.37711 0.31849 0.0
H1718 H 0.96251 0.38894 0.29023 0.0
H1719 H 0.9686 0.35809 0.41299 0.0
H1720 H 0.94013 0.34681 0.44372 0.0
H1721 H 0.98044 0.37955 0.24362 0.0
H1722 H 0.00723 0.37666 0.46386 0.0
H1723 H 1.00117 0.37647 0.5671 0.0
H1724 H 0.97508 0.40196 0.53183 0.0
H1725 H 0.98116 0.40248 0.42856 0.0
C1726 C 0.06038 0.41484 0.22856 0.0
C1727 C 0.06993 0.43008 0.25539 0.0
C1728 C 0.04394 0.40477 0.24413 0.0
C1729 C 0.03663 0.40999 0.28543 0.0
C1730 C 0.04627 0.4252 0.31224 0.0
C1731 C 0.06273 0.43505 0.29781 0.0
C1732 C 0.01895 0.39991 0.3007 0.0
C1733 C 0.01454 0.39761 0.35906 0.0
C1734 C 0.00642 0.39333 0.25864 0.0
C1735 C 0.00999 0.39626 0.19637 0.0
C1736 C 0.01844 0.4123 0.17451 0.0
C1737 C 0.02184 0.41498 0.11579 0.0
C1738 C 0.01672 0.40171 0.07844 0.0
C1739 C 0.00813 0.38573 0.09972 0.0
C1740 C 0.00472 0.38299 0.15842 0.0
C1741 C 0.94135 0.3728 0.3395 0.0
C1742 C 0.93482 0.36114 0.38383 0.0
C1743 C 0.9577 0.37953 0.32305 0.0
C1744 C 0.96787 0.37462 0.3499 0.0
C1745 C 0.96116 0.36242 0.39251 0.0
C1746 C 0.94486 0.35592 0.40991 0.0
C1747 C 0.98556 0.38277 0.33439 0.0
C1748 C 0.98997 0.38455 0.27605 0.0
C1749 C 0.99808 0.38954 0.37641 0.0
C1750 C 0.99447 0.38941 0.43846 0.0
C1751 C 1.00023 0.38225 0.4782 0.0
C1752 C 0.99679 0.38208 0.5367 0.0
C1753 C 0.98769 0.38914 0.55598 0.0
C1754 C 0.98207 0.39644 0.51683 0.0
C1755 C 0.9855 0.39666 0.45831 0.0
H1756 H 0.98503 0.38898 0.60127 0.0
H1757 H 0.01937 0.40381 0.033 0.0
H1758 H 0.561 0.93072 0.47377 0.0
H1759 H 0.57821 0.95904 0.44335 0.0
H1760 H 0.6037 0.97049 0.6054 0.0
H1761 H 0.58648 0.94207 0.63644 0.0
H1762 H 0.59448 0.99265 0.57651 0.0
H1763 H 0.62225 0.96794 0.48428 0.0
H1764 H 0.62441 0.94769 0.42355 0.0
H1765 H 0.60699 0.96256 0.2782 0.0
H1766 H 0.60453 0.98278 0.33825 0.0
H1767 H 0.65326 0.07279 0.50439 0.0
H1768 H 0.64138 0.04399 0.53018 0.0
H1769 H 0.6178 0.02999 0.36459 0.0
H1770 H 0.6303 0.05895 0.33779 0.0
H1771 H 0.62695 0.00897 0.39629 0.0
H1772 H 0.59761 0.03233 0.48744 0.0
H1773 H 0.59511 0.05267 0.54649 0.0
H1774 H 0.6143 0.03992 0.69233 0.0
H1775 H 0.61713 0.01965 0.63389 0.0
C1776 C 0.57037 0.93917 0.50284 0.0
C1777 C 0.57239 0.93404 0.55751 0.0
C1778 C 0.58024 0.95538 0.48525 0.0
C1779 C 0.59236 0.96685 0.52182 0.0
C1780 C 0.59444 0.96182 0.57641 0.0
C1781 C 0.5846 0.94556 0.59402 0.0
C1782 C 0.60237 0.98423 0.5039 0.0
C1783 C 0.60181 0.99625 0.53763 0.0
C1784 C 0.61153 0.98886 0.45224 0.0
C1785 C 0.61309 0.97679 0.4159 0.0
C1786 C 0.61877 0.96681 0.43947 0.0
C1787 C 0.62007 0.95536 0.40515 0.0
C1788 C 0.61582 0.95383 0.3471 0.0
C1789 C 0.61027 0.96376 0.32319 0.0
C1790 C 0.60895 0.97524 0.35733 0.0
C1791 C 0.64567 0.06357 0.47332 0.0
C1792 C 0.64247 0.06808 0.4195 0.0
C1793 C 0.63885 0.0471 0.48811 0.0
C1794 C 0.62828 0.03479 0.45002 0.0
C1795 C 0.62581 0.03926 0.3949 0.0
C1796 C 0.63294 0.05579 0.37961 0.0
C1797 C 0.61908 0.01741 0.469 0.0
C1798 C 0.61971 0.00538 0.43537 0.0
C1799 C 0.60982 0.01271 0.52053 0.0
C1800 C 0.60772 0.02458 0.55616 0.0
C1801 C 0.60136 0.03391 0.53205 0.0
C1802 C 0.59989 0.04543 0.5654 0.0
C1803 C 0.60458 0.04762 0.62308 0.0
C1804 C 0.61069 0.03823 0.64762 0.0
C1805 C 0.61221 0.02671 0.61442 0.0
H1806 H 0.60347 0.05656 0.6488 0.0
H1807 H 0.61688 0.94499 0.32062 0.0
H1808 H 0.5941 0.65635 0.54723 0.0
H1809 H 0.61105 0.64441 0.57369 0.0
H1810 H 0.57208 0.60932 0.68196 0.0
H1811 H 0.55568 0.62188 0.65863 0.0
H1812 H 0.59798 0.61724 0.73352 0.0
H1813 H 0.58122 0.60103 0.53806 0.0
H1814 H 0.57838 0.60529 0.43512 0.0
H1815 H 0.63068 0.63303 0.41775 0.0
H1816 H 0.63382 0.62909 0.52079 0.0
H1817 H 0.62531 0.55517 0.64204 0.0
H1818 H 0.61362 0.57235 0.61881 0.0
H1819 H 0.64226 0.60595 0.75358 0.0
H1820 H 0.65339 0.58825 0.77905 0.0
H1821 H 0.62359 0.60077 0.58116 0.0
H1822 H 0.62257 0.62432 0.80983 0.0
H1823 H 0.62098 0.61563 0.91075 0.0
H1824 H 0.59644 0.56528 0.85808 0.0
H1825 H 0.5977 0.57367 0.75701 0.0
C1826 C 0.58924 0.64615 0.57692 0.0
C1827 C 0.57356 0.64001 0.60072 0.0
C1828 C 0.59889 0.63925 0.5918 0.0
C1829 C 0.59279 0.62572 0.62913 0.0
C1830 C 0.57717 0.61976 0.6533 0.0
C1831 C 0.56774 0.62692 0.63972 0.0
C1832 C 0.60237 0.61746 0.64254 0.0
C1833 C 0.60361 0.6137 0.70009 0.0
C1834 C 0.6096 0.61259 0.59917 0.0
C1835 C 0.60775 0.61492 0.53721 0.0
C1836 C 0.59211 0.60813 0.51234 0.0
C1837 C 0.59045 0.61047 0.45398 0.0
C1838 C 0.60434 0.61947 0.41996 0.0
C1839 C 0.61993 0.62609 0.44419 0.0
C1840 C 0.62166 0.6238 0.50254 0.0
C1841 C 0.62916 0.56623 0.66676 0.0
C1842 C 0.64016 0.57025 0.71281 0.0
C1843 C 0.62251 0.57611 0.65323 0.0
C1844 C 0.62684 0.59039 0.68484 0.0
C1845 C 0.63838 0.59481 0.72936 0.0
C1846 C 0.6448 0.58472 0.74374 0.0
C1847 C 0.61885 0.60022 0.67193 0.0
C1848 C 0.61804 0.60441 0.61457 0.0
C1849 C 0.61135 0.60482 0.71517 0.0
C1850 C 0.61043 0.59965 0.77585 0.0
C1851 C 0.61681 0.6114 0.81985 0.0
C1852 C 0.61597 0.60653 0.87706 0.0
C1853 C 0.60868 0.58992 0.89079 0.0
C1854 C 0.60215 0.57814 0.84737 0.0
C1855 C 0.60293 0.58295 0.79012 0.0
H1856 H 0.60805 0.58617 0.93509 0.0
H1857 H 0.60303 0.62127 0.37479 0.0
H1858 H 0.07088 0.63183 0.80031 0.0
H1859 H 0.04224 0.62054 0.77411 0.0
H1860 H 0.03278 0.63596 0.93713 0.0
H1861 H 0.06143 0.6469 0.96452 0.0
H1862 H 0.01023 0.60583 0.91655 0.0
H1863 H 0.03417 0.65522 0.80662 0.0
H1864 H 0.0532 0.67582 0.7378 0.0
H1865 H 0.0347 0.64001 0.60293 0.0
H1866 H 0.01586 0.61908 0.67119 0.0
H1867 H 0.9283 0.57944 0.84538 0.0
H1868 H 0.95705 0.59786 0.86918 0.0
H1869 H 0.97144 0.58605 0.70822 0.0
H1870 H 0.94259 0.56839 0.68288 0.0
H1871 H 0.99137 0.61648 0.73115 0.0
H1872 H 0.97004 0.56653 0.8443 0.0
H1873 H 0.9504 0.54605 0.91232 0.0
H1874 H 0.96383 0.58343 0.0402 0.0
H1875 H 0.98343 0.6041 0.97287 0.0
C1876 C 0.06278 0.63296 0.83055 0.0
C1877 C 0.06849 0.64026 0.88468 0.0
C1878 C 0.04638 0.62658 0.81527 0.0
C1879 C 0.03534 0.62756 0.85329 0.0
C1880 C 0.04106 0.63507 0.907 0.0
C1881 C 0.05746 0.64135 0.92256 0.0
C1882 C 0.01768 0.6199 0.83827 0.0
C1883 C 0.00612 0.6084 0.8764 0.0
C1884 C 0.01226 0.62295 0.78535 0.0
C1885 C 0.02368 0.63553 0.74424 0.0
C1886 C 0.03427 0.65168 0.76243 0.0
C1887 C 0.04503 0.66343 0.72349 0.0
C1888 C 0.0452 0.65922 0.66607 0.0
C1889 C 0.0346 0.64325 0.64745 0.0
C1890 C 0.02388 0.63144 0.68627 0.0
C1891 C 0.93761 0.58093 0.81488 0.0
C1892 C 0.93326 0.57236 0.76263 0.0
C1893 C 0.95405 0.59139 0.82861 0.0
C1894 C 0.9665 0.59297 0.79137 0.0
C1895 C 0.96211 0.58497 0.73793 0.0
C1896 C 0.94563 0.57486 0.72346 0.0
C1897 C 0.98401 0.60227 0.80902 0.0
C1898 C 0.99552 0.61404 0.77142 0.0
C1899 C 0.98944 0.59945 0.86233 0.0
C1900 C 0.97811 0.58687 0.90346 0.0
C1901 C 0.96879 0.57036 0.88696 0.0
C1902 C 0.95766 0.55872 0.92539 0.0
C1903 C 0.95584 0.56342 0.98057 0.0
C1904 C 0.96523 0.57977 0.99754 0.0
C1905 C 0.97638 0.59145 0.9593 0.0
H1906 H 0.94716 0.55441 0.01017 0.0
H1907 H 0.05353 0.66833 0.63598 0.0
loop_
_geom_bond_atom_site_label_1
_geom_bond_atom_site_label_2
_geom_bond_distance
_geom_bond_site_symmetry_2
_ccdc_geom_bond_type
Co0 O3 1.970 . S
Co0 N17 1.989 . S
Co0 O25 1.967 . S
Co0 O32 1.920 . S
Co1 O4 1.966 . S
Co1 N10 2.022 1_554 S
Co1 N18 1.993 . S
Co1 O26 1.941 . S
C2 O3 1.258 . S
C2 O4 1.263 . S
O3 Co0 1.970 . S
O3 C2 1.258 . S
O4 Co1 1.966 . S
O4 C2 1.263 . S
C5 O6 1.235 . S
C5 O32 1.289 . S
O6 C5 1.235 . S
C7 C9 1.400 . S
C7 N10 1.351 . S
C7 C12 1.501 . S
C8 C9 1.387 . S
C8 N11 1.341 . S
C9 C7 1.400 . S
C9 C8 1.387 . S
N10 Co1 2.022 1_556 S
N10 C7 1.351 . S
N10 N11 1.365 . S
N11 C8 1.341 . S
N11 N10 1.365 . S
N11 H31 0.862 . S
C12 C7 1.501 . S
C12 H13 0.961 . S
C12 H14 0.961 . S
C12 H15 0.960 . S
H13 C12 0.961 . S
H14 C12 0.961 . S
H15 C12 0.960 . S
C16 N17 1.342 . S
C16 C20 1.401 . S
C16 C21 1.499 . S
N17 Co0 1.989 . S
N17 C16 1.342 . S
N17 N18 1.388 . S
N18 Co1 1.993 . S
N18 N17 1.388 . S
N18 C19 1.346 . S
C19 N18 1.346 . S
C19 C20 1.396 . S
C19 C29 1.510 1_554 S
C20 C16 1.401 . S
C20 C19 1.396 . S
C21 C16 1.499 . S
C21 H22 0.959 . S
C21 H23 0.960 . S
C21 H24 0.961 . S
H22 C21 0.959 . S
H23 C21 0.960 . S
H24 C21 0.961 . S
O25 Co0 1.967 . S
O25 C33 1.258 . S
O26 Co1 1.941 . S
O26 C33 1.266 . S
H27 C29 0.959 . S
H28 C29 0.961 . S
C29 C19 1.510 1_556 S
C29 H27 0.959 . S
C29 H28 0.961 . S
C29 H30 0.960 . S
H30 C29 0.960 . S
H31 N11 0.862 . S
O32 Co0 1.920 . S
O32 C5 1.289 . S
C33 O25 1.258 . S
C33 O26 1.266 . S
Co34 O37 1.970 . S
Co34 N51 1.989 . S
Co34 O59 1.967 . S
Co34 O66 1.920 . S
Co35 O38 1.966 . S
Co35 N44 2.022 . S
Co35 N52 1.993 . S
Co35 O60 1.941 . S
C36 O37 1.258 . S
C36 O38 1.263 . S
O37 Co34 1.970 . S
O37 C36 1.258 . S
O38 Co35 1.966 . S
O38 C36 1.263 . S
C39 O40 1.235 . S
C39 O66 1.289 . S
O40 C39 1.235 . S
C41 C43 1.400 . S
C41 N44 1.351 . S
C41 C46 1.501 . S
C42 C43 1.387 . S
C42 N45 1.341 . S
C43 C41 1.400 . S
C43 C42 1.387 . S
N44 Co35 2.022 . S
N44 C41 1.351 . S
N44 N45 1.365 . S
N45 C42 1.341 . S
N45 N44 1.365 . S
N45 H65 0.862 . S
C46 C41 1.501 . S
C46 H47 0.961 . S
C46 H48 0.961 . S
C46 H49 0.960 . S
H47 C46 0.961 . S
H48 C46 0.961 . S
H49 C46 0.960 . S
C50 N51 1.342 . S
C50 C54 1.401 . S
C50 C55 1.499 . S
N51 Co34 1.989 . S
N51 C50 1.342 . S
N51 N52 1.388 . S
N52 Co35 1.993 . S
N52 N51 1.388 . S
N52 C53 1.346 . S
C53 N52 1.346 . S
C53 C54 1.396 . S
C53 C63 1.510 . S
C54 C50 1.401 . S
C54 C53 1.396 . S
C55 C50 1.499 . S
C55 H56 0.959 . S
C55 H57 0.960 . S
C55 H58 0.961 . S
H56 C55 0.959 . S
H57 C55 0.960 . S
H58 C55 0.961 . S
O59 Co34 1.967 . S
O59 C67 1.258 . S
O60 Co35 1.941 . S
O60 C67 1.266 . S
H61 C63 0.959 . S
H62 C63 0.961 . S
C63 C53 1.510 . S
C63 H61 0.959 . S
C63 H62 0.961 . S
C63 H64 0.960 . S
H64 C63 0.960 . S
H65 N45 0.862 . S
O66 Co34 1.920 . S
O66 C39 1.289 . S
C67 O59 1.258 . S
C67 O60 1.266 . S
Co68 O71 1.970 . S
Co68 N85 1.989 . S
Co68 O93 1.967 . S
Co68 O100 1.920 . S
Co69 O72 1.966 . S
Co69 N78 2.022 . S
Co69 N86 1.993 . S
Co69 O94 1.941 . S
C70 O71 1.258 . S
C70 O72 1.263 . S
O71 Co68 1.970 . S
O71 C70 1.258 . S
O72 Co69 1.966 . S
O72 C70 1.263 . S
C73 O74 1.235 . S
C73 O100 1.289 . S
O74 C73 1.235 . S
C75 C77 1.400 . S
C75 N78 1.351 . S
C75 C80 1.501 . S
C76 C77 1.387 . S
C76 N79 1.341 . S
C77 C75 1.400 . S
C77 C76 1.387 . S
N78 Co69 2.022 . S
N78 C75 1.351 . S
N78 N79 1.365 . S
N79 C76 1.341 . S
N79 N78 1.365 . S
N79 H99 0.862 . S
C80 C75 1.501 . S
C80 H81 0.961 . S
C80 H82 0.961 . S
C80 H83 0.960 . S
H81 C80 0.961 . S
H82 C80 0.961 . S
H83 C80 0.960 . S
C84 N85 1.342 . S
C84 C88 1.401 . S
C84 C89 1.499 . S
N85 Co68 1.989 . S
N85 C84 1.342 . S
N85 N86 1.388 . S
N86 Co69 1.993 . S
N86 N85 1.388 . S
N86 C87 1.346 . S
C87 N86 1.346 . S
C87 C88 1.396 . S
C87 C97 1.510 . S
C88 C84 1.401 . S
C88 C87 1.396 . S
C89 C84 1.499 . S
C89 H90 0.959 . S
C89 H91 0.960 . S
C89 H92 0.961 . S
H90 C89 0.959 . S
H91 C89 0.960 . S
H92 C89 0.961 . S
O93 Co68 1.967 . S
O93 C101 1.258 . S
O94 Co69 1.941 . S
O94 C101 1.266 . S
H95 C97 0.959 . S
H96 C97 0.961 . S
C97 C87 1.510 . S
C97 H95 0.959 . S
C97 H96 0.961 . S
C97 H98 0.960 . S
H98 C97 0.960 . S
H99 N79 0.862 . S
O100 Co68 1.920 . S
O100 C73 1.289 . S
C101 O93 1.258 . S
C101 O94 1.266 . S
Co102 O105 1.970 . S
Co102 N119 1.989 . S
Co102 O127 1.967 . S
Co102 O134 1.920 . S
Co103 O106 1.966 . S
Co103 N112 2.022 . S
Co103 N120 1.993 . S
Co103 O128 1.941 . S
C104 O105 1.258 . S
C104 O106 1.263 . S
O105 Co102 1.970 . S
O105 C104 1.258 . S
O106 Co103 1.966 . S
O106 C104 1.263 . S
C107 O108 1.235 . S
C107 O134 1.289 . S
O108 C107 1.235 . S
C109 C111 1.400 . S
C109 N112 1.351 . S
C109 C114 1.501 . S
C110 C111 1.387 . S
C110 N113 1.341 . S
C111 C109 1.400 . S
C111 C110 1.387 . S
N112 Co103 2.022 . S
N112 C109 1.351 . S
N112 N113 1.365 . S
N113 C110 1.341 . S
N113 N112 1.365 . S
N113 H133 0.862 . S
C114 C109 1.501 . S
C114 H115 0.961 . S
C114 H116 0.961 . S
C114 H117 0.960 . S
H115 C114 0.961 . S
H116 C114 0.961 . S
H117 C114 0.960 . S
C118 N119 1.342 . S
C118 C122 1.401 . S
C118 C123 1.499 . S
N119 Co102 1.989 . S
N119 C118 1.342 . S
N119 N120 1.388 . S
N120 Co103 1.993 . S
N120 N119 1.388 . S
N120 C121 1.346 . S
C121 N120 1.346 . S
C121 C122 1.396 . S
C121 C131 1.510 . S
C122 C118 1.401 . S
C122 C121 1.396 . S
C123 C118 1.499 . S
C123 H124 0.959 . S
C123 H125 0.960 . S
C123 H126 0.961 . S
H124 C123 0.959 . S
H125 C123 0.960 . S
H126 C123 0.961 . S
O127 Co102 1.967 . S
O127 C135 1.258 . S
O128 Co103 1.941 . S
O128 C135 1.266 . S
H129 C131 0.959 . S
H130 C131 0.961 . S
C131 C121 1.510 . S
C131 H129 0.959 . S
C131 H130 0.961 . S
C131 H132 0.960 . S
H132 C131 0.960 . S
H133 N113 0.862 . S
O134 Co102 1.920 . S
O134 C107 1.289 . S
C135 O127 1.258 . S
C135 O128 1.266 . S
Co136 O139 1.970 . S
Co136 N153 1.989 . S
Co136 O161 1.967 . S
Co136 O168 1.920 . S
Co137 O140 1.966 . S
Co137 N146 2.022 . S
Co137 N154 1.993 . S
Co137 O162 1.941 . S
C138 O139 1.258 . S
C138 O140 1.263 . S
O139 Co136 1.970 . S
O139 C138 1.258 . S
O140 Co137 1.966 . S
O140 C138 1.263 . S
C141 O142 1.235 . S
C141 O168 1.289 . S
O142 C141 1.235 . S
C143 C145 1.400 . S
C143 N146 1.351 . S
C143 C148 1.501 . S
C144 C145 1.387 . S
C144 N147 1.341 . S
C145 C143 1.400 . S
C145 C144 1.387 . S
N146 Co137 2.022 . S
N146 C143 1.351 . S
N146 N147 1.365 . S
N147 C144 1.341 . S
N147 N146 1.365 . S
N147 H167 0.862 . S
C148 C143 1.501 . S
C148 H149 0.961 . S
C148 H150 0.961 . S
C148 H151 0.960 . S
H149 C148 0.961 . S
H150 C148 0.961 . S
H151 C148 0.960 . S
C152 N153 1.342 . S
C152 C156 1.401 . S
C152 C157 1.499 . S
N153 Co136 1.989 . S
N153 C152 1.342 . S
N153 N154 1.388 . S
N154 Co137 1.993 . S
N154 N153 1.388 . S
N154 C155 1.346 . S
C155 N154 1.346 . S
C155 C156 1.396 . S
C155 C165 1.510 . S
C156 C152 1.401 . S
C156 C155 1.396 . S
C157 C152 1.499 . S
C157 H158 0.959 . S
C157 H159 0.960 . S
C157 H160 0.961 . S
H158 C157 0.959 . S
H159 C157 0.960 . S
H160 C157 0.961 . S
O161 Co136 1.967 . S
O161 C169 1.258 . S
O162 Co137 1.941 . S
O162 C169 1.266 . S
H163 C165 0.959 . S
H164 C165 0.961 . S
C165 C155 1.510 . S
C165 H163 0.959 . S
C165 H164 0.961 . S
C165 H166 0.960 . S
H166 C165 0.960 . S
H167 N147 0.862 . S
O168 Co136 1.920 . S
O168 C141 1.289 . S
C169 O161 1.258 . S
C169 O162 1.266 . S
Co170 O173 1.970 . S
Co170 N187 1.989 . S
Co170 O195 1.967 . S
Co170 O202 1.920 1_556 S
Co171 O174 1.966 . S
Co171 N180 2.022 . S
Co171 N188 1.993 . S
Co171 O196 1.941 . S
C172 O173 1.258 . S
C172 O174 1.263 . S
O173 Co170 1.970 . S
O173 C172 1.258 . S
O174 Co171 1.966 . S
O174 C172 1.263 . S
C175 O176 1.235 . S
C175 O202 1.289 . S
O176 C175 1.235 . S
C177 C179 1.400 . S
C177 N180 1.351 . S
C177 C182 1.501 . S
C178 C179 1.387 . S
C178 N181 1.341 . S
C179 C177 1.400 . S
C179 C178 1.387 . S
N180 Co171 2.022 . S
N180 C177 1.351 . S
N180 N181 1.365 . S
N181 C178 1.341 . S
N181 N180 1.365 . S
N181 H201 0.862 . S
C182 C177 1.501 . S
C182 H183 0.961 . S
C182 H184 0.961 . S
C182 H185 0.960 . S
H183 C182 0.961 . S
H184 C182 0.961 . S
H185 C182 0.960 . S
C186 N187 1.342 . S
C186 C190 1.401 . S
C186 C191 1.499 1_556 S
N187 Co170 1.989 . S
N187 C186 1.342 . S
N187 N188 1.388 . S
N188 Co171 1.993 . S
N188 N187 1.388 . S
N188 C189 1.346 . S
C189 N188 1.346 . S
C189 C190 1.396 . S
C189 C199 1.510 . S
C190 C186 1.401 . S
C190 C189 1.396 . S
C191 C186 1.499 1_554 S
C191 H192 0.959 . S
C191 H193 0.960 . S
C191 H194 0.961 . S
H192 C191 0.959 . S
H193 C191 0.960 . S
H194 C191 0.961 . S
O195 Co170 1.967 . S
O195 C203 1.258 . S
O196 Co171 1.941 . S
O196 C203 1.266 . S
H197 C199 0.959 . S
H198 C199 0.961 . S
C199 C189 1.510 . S
C199 H197 0.959 . S
C199 H198 0.961 . S
C199 H200 0.960 . S
H200 C199 0.960 . S
H201 N181 0.862 . S
O202 Co170 1.920 1_554 S
O202 C175 1.289 . S
C203 O195 1.258 . S
C203 O196 1.266 . S
Co204 O207 1.970 . S
Co204 N221 1.989 . S
Co204 O229 1.967 . S
Co204 O236 1.920 . S
Co205 O208 1.966 . S
Co205 N214 2.022 . S
Co205 N222 1.993 . S
Co205 O230 1.941 . S
C206 O207 1.258 . S
C206 O208 1.263 . S
O207 Co204 1.970 . S
O207 C206 1.258 . S
O208 Co205 1.966 . S
O208 C206 1.263 . S
C209 O210 1.235 . S
C209 O236 1.289 . S
O210 C209 1.235 . S
C211 C213 1.400 . S
C211 N214 1.351 . S
C211 C216 1.501 . S
C212 C213 1.387 . S
C212 N215 1.341 . S
C213 C211 1.400 . S
C213 C212 1.387 . S
N214 Co205 2.022 . S
N214 C211 1.351 . S
N214 N215 1.365 . S
N215 C212 1.341 . S
N215 N214 1.365 . S
N215 H235 0.862 . S
C216 C211 1.501 . S
C216 H217 0.961 . S
C216 H218 0.961 . S
C216 H219 0.960 . S
H217 C216 0.961 . S
H218 C216 0.961 . S
H219 C216 0.960 . S
C220 N221 1.342 . S
C220 C224 1.401 . S
C220 C225 1.499 . S
N221 Co204 1.989 . S
N221 C220 1.342 . S
N221 N222 1.388 . S
N222 Co205 1.993 . S
N222 N221 1.388 . S
N222 C223 1.346 . S
C223 N222 1.346 . S
C223 C224 1.396 . S
C223 C233 1.510 . S
C224 C220 1.401 . S
C224 C223 1.396 . S
C225 C220 1.499 . S
C225 H226 0.959 . S
C225 H227 0.960 . S
C225 H228 0.961 . S
H226 C225 0.959 . S
H227 C225 0.960 . S
H228 C225 0.961 . S
O229 Co204 1.967 . S
O229 C237 1.258 . S
O230 Co205 1.941 . S
O230 C237 1.266 . S
H231 C233 0.959 . S
H232 C233 0.961 . S
C233 C223 1.510 . S
C233 H231 0.959 . S
C233 H232 0.961 . S
C233 H234 0.960 . S
H234 C233 0.960 . S
H235 N215 0.862 . S
O236 Co204 1.920 . S
O236 C209 1.289 . S
C237 O229 1.258 . S
C237 O230 1.266 . S
Co238 O241 1.970 . S
Co238 N255 1.989 . S
Co238 O263 1.967 . S
Co238 O270 1.920 . S
Co239 O242 1.966 . S
Co239 N248 2.022 1_556 S
Co239 N256 1.993 . S
Co239 O264 1.941 . S
C240 O241 1.258 . S
C240 O242 1.263 . S
O241 Co238 1.970 . S
O241 C240 1.258 . S
O242 Co239 1.966 . S
O242 C240 1.263 . S
C243 O244 1.235 . S
C243 O270 1.289 . S
O244 C243 1.235 . S
C245 C247 1.400 . S
C245 N248 1.351 . S
C245 C250 1.501 . S
C246 C247 1.387 . S
C246 N249 1.341 . S
C247 C245 1.400 . S
C247 C246 1.387 . S
N248 Co239 2.022 1_554 S
N248 C245 1.351 . S
N248 N249 1.365 . S
N249 C246 1.341 . S
N249 N248 1.365 . S
N249 H269 0.862 . S
C250 C245 1.501 . S
C250 H251 0.961 . S
C250 H252 0.961 . S
C250 H253 0.960 . S
H251 C250 0.961 . S
H252 C250 0.961 . S
H253 C250 0.960 . S
C254 N255 1.342 . S
C254 C258 1.401 . S
C254 C259 1.499 . S
N255 Co238 1.989 . S
N255 C254 1.342 . S
N255 N256 1.388 . S
N256 Co239 1.993 . S
N256 N255 1.388 . S
N256 C257 1.346 . S
C257 N256 1.346 . S
C257 C258 1.396 . S
C257 C267 1.510 1_556 S
C258 C254 1.401 . S
C258 C257 1.396 . S
C259 C254 1.499 . S
C259 H260 0.959 . S
C259 H261 0.960 . S
C259 H262 0.961 . S
H260 C259 0.959 . S
H261 C259 0.960 . S
H262 C259 0.961 . S
O263 Co238 1.967 . S
O263 C271 1.258 . S
O264 Co239 1.941 . S
O264 C271 1.266 . S
H265 C267 0.959 . S
H266 C267 0.961 . S
C267 C257 1.510 1_554 S
C267 H265 0.959 . S
C267 H266 0.961 . S
C267 H268 0.960 . S
H268 C267 0.960 . S
H269 N249 0.862 . S
O270 Co238 1.920 . S
O270 C243 1.289 . S
C271 O263 1.258 . S
C271 O264 1.266 . S
Co272 O275 1.970 . S
Co272 N289 1.989 . S
Co272 O297 1.967 . S
Co272 O304 1.920 1_554 S
Co273 O276 1.966 . S
Co273 N282 2.022 . S
Co273 N290 1.993 . S
Co273 O298 1.941 . S
C274 O275 1.258 . S
C274 O276 1.263 . S
O275 Co272 1.970 . S
O275 C274 1.258 . S
O276 Co273 1.966 . S
O276 C274 1.263 . S
C277 O278 1.235 . S
C277 O304 1.289 . S
O278 C277 1.235 . S
C279 C281 1.400 . S
C279 N282 1.351 . S
C279 C284 1.501 . S
C280 C281 1.387 . S
C280 N283 1.341 . S
C281 C279 1.400 . S
C281 C280 1.387 . S
N282 Co273 2.022 . S
N282 C279 1.351 . S
N282 N283 1.365 . S
N283 C280 1.341 . S
N283 N282 1.365 . S
N283 H303 0.862 . S
C284 C279 1.501 . S
C284 H285 0.961 . S
C284 H286 0.961 . S
C284 H287 0.960 . S
H285 C284 0.961 . S
H286 C284 0.961 . S
H287 C284 0.960 . S
C288 N289 1.342 . S
C288 C292 1.401 . S
C288 C293 1.499 1_554 S
N289 Co272 1.989 . S
N289 C288 1.342 . S
N289 N290 1.388 . S
N290 Co273 1.993 . S
N290 N289 1.388 . S
N290 C291 1.346 . S
C291 N290 1.346 . S
C291 C292 1.396 . S
C291 C301 1.510 . S
C292 C288 1.401 . S
C292 C291 1.396 . S
C293 C288 1.499 1_556 S
C293 H294 0.959 . S
C293 H295 0.960 . S
C293 H296 0.961 . S
H294 C293 0.959 . S
H295 C293 0.960 . S
H296 C293 0.961 . S
O297 Co272 1.967 . S
O297 C305 1.258 . S
O298 Co273 1.941 . S
O298 C305 1.266 . S
H299 C301 0.959 . S
H300 C301 0.961 . S
C301 C291 1.510 . S
C301 H299 0.959 . S
C301 H300 0.961 . S
C301 H302 0.960 . S
H302 C301 0.960 . S
H303 N283 0.862 . S
O304 Co272 1.920 1_556 S
O304 C277 1.289 . S
C305 O297 1.258 . S
C305 O298 1.266 . S
Co306 O309 1.970 . S
Co306 N323 1.989 . S
Co306 O331 1.967 . S
Co306 O338 1.920 . S
Co307 O310 1.966 . S
Co307 N316 2.022 . S
Co307 N324 1.993 . S
Co307 O332 1.941 . S
C308 O309 1.258 . S
C308 O310 1.263 . S
O309 Co306 1.970 . S
O309 C308 1.258 . S
O310 Co307 1.966 . S
O310 C308 1.263 . S
C311 O312 1.235 . S
C311 O338 1.289 . S
O312 C311 1.235 . S
C313 C315 1.400 . S
C313 N316 1.351 . S
C313 C318 1.501 . S
C314 C315 1.387 . S
C314 N317 1.341 . S
C315 C313 1.400 . S
C315 C314 1.387 . S
N316 Co307 2.022 . S
N316 C313 1.351 . S
N316 N317 1.365 . S
N317 C314 1.341 . S
N317 N316 1.365 . S
N317 H337 0.862 . S
C318 C313 1.501 . S
C318 H319 0.961 . S
C318 H320 0.961 . S
C318 H321 0.960 . S
H319 C318 0.961 . S
H320 C318 0.961 . S
H321 C318 0.960 . S
C322 N323 1.342 . S
C322 C326 1.401 . S
C322 C327 1.499 . S
N323 Co306 1.989 . S
N323 C322 1.342 . S
N323 N324 1.388 . S
N324 Co307 1.993 . S
N324 N323 1.388 . S
N324 C325 1.346 . S
C325 N324 1.346 . S
C325 C326 1.396 . S
C325 C335 1.510 . S
C326 C322 1.401 . S
C326 C325 1.396 . S
C327 C322 1.499 . S
C327 H328 0.959 . S
C327 H329 0.960 . S
C327 H330 0.961 . S
H328 C327 0.959 . S
H329 C327 0.960 . S
H330 C327 0.961 . S
O331 Co306 1.967 . S
O331 C339 1.258 . S
O332 Co307 1.941 . S
O332 C339 1.266 . S
H333 C335 0.959 . S
H334 C335 0.961 . S
C335 C325 1.510 . S
C335 H333 0.959 . S
C335 H334 0.961 . S
C335 H336 0.960 . S
H336 C335 0.960 . S
H337 N317 0.862 . S
O338 Co306 1.920 . S
O338 C311 1.289 . S
C339 O331 1.258 . S
C339 O332 1.266 . S
Co340 O343 1.970 . S
Co340 N357 1.989 . S
Co340 O365 1.967 . S
Co340 O372 1.920 . S
Co341 O344 1.966 . S
Co341 N350 2.022 . S
Co341 N358 1.993 . S
Co341 O366 1.941 . S
C342 O343 1.258 . S
C342 O344 1.263 . S
O343 Co340 1.970 . S
O343 C342 1.258 . S
O344 Co341 1.966 . S
O344 C342 1.263 . S
C345 O346 1.235 . S
C345 O372 1.289 . S
O346 C345 1.235 . S
C347 C349 1.400 . S
C347 N350 1.351 . S
C347 C352 1.501 . S
C348 C349 1.387 . S
C348 N351 1.341 . S
C349 C347 1.400 . S
C349 C348 1.387 . S
N350 Co341 2.022 . S
N350 C347 1.351 . S
N350 N351 1.365 . S
N351 C348 1.341 . S
N351 N350 1.365 . S
N351 H371 0.862 . S
C352 C347 1.501 . S
C352 H353 0.961 . S
C352 H354 0.961 . S
C352 H355 0.960 . S
H353 C352 0.961 . S
H354 C352 0.961 . S
H355 C352 0.960 . S
C356 N357 1.342 . S
C356 C360 1.401 . S
C356 C361 1.499 . S
N357 Co340 1.989 . S
N357 C356 1.342 . S
N357 N358 1.388 . S
N358 Co341 1.993 . S
N358 N357 1.388 . S
N358 C359 1.346 . S
C359 N358 1.346 . S
C359 C360 1.396 . S
C359 C369 1.510 . S
C360 C356 1.401 . S
C360 C359 1.396 . S
C361 C356 1.499 . S
C361 H362 0.959 . S
C361 H363 0.960 . S
C361 H364 0.961 . S
H362 C361 0.959 . S
H363 C361 0.960 . S
H364 C361 0.961 . S
O365 Co340 1.967 . S
O365 C373 1.258 . S
O366 Co341 1.941 . S
O366 C373 1.266 . S
H367 C369 0.959 . S
H368 C369 0.961 . S
C369 C359 1.510 . S
C369 H367 0.959 . S
C369 H368 0.961 . S
C369 H370 0.960 . S
H370 C369 0.960 . S
H371 N351 0.862 . S
O372 Co340 1.920 . S
O372 C345 1.289 . S
C373 O365 1.258 . S
C373 O366 1.266 . S
Co374 O377 1.970 . S
Co374 N391 1.989 . S
Co374 O399 1.967 . S
Co374 O406 1.920 . S
Co375 O378 1.966 . S
Co375 N384 2.022 . S
Co375 N392 1.993 . S
Co375 O400 1.941 . S
C376 O377 1.258 . S
C376 O378 1.263 . S
O377 Co374 1.970 . S
O377 C376 1.258 . S
O378 Co375 1.966 . S
O378 C376 1.263 . S
C379 O380 1.235 . S
C379 O406 1.289 . S
O380 C379 1.235 . S
C381 C383 1.400 . S
C381 N384 1.351 . S
C381 C386 1.501 . S
C382 C383 1.387 . S
C382 N385 1.341 . S
C383 C381 1.400 . S
C383 C382 1.387 . S
N384 Co375 2.022 . S
N384 C381 1.351 . S
N384 N385 1.365 . S
N385 C382 1.341 . S
N385 N384 1.365 . S
N385 H405 0.862 . S
C386 C381 1.501 . S
C386 H387 0.961 . S
C386 H388 0.961 . S
C386 H389 0.960 . S
H387 C386 0.961 . S
H388 C386 0.961 . S
H389 C386 0.960 . S
C390 N391 1.342 . S
C390 C394 1.401 . S
C390 C395 1.499 . S
N391 Co374 1.989 . S
N391 C390 1.342 . S
N391 N392 1.388 . S
N392 Co375 1.993 . S
N392 N391 1.388 . S
N392 C393 1.346 . S
C393 N392 1.346 . S
C393 C394 1.396 . S
C393 C403 1.510 . S
C394 C390 1.401 . S
C394 C393 1.396 . S
C395 C390 1.499 . S
C395 H396 0.959 . S
C395 H397 0.960 . S
C395 H398 0.961 . S
H396 C395 0.959 . S
H397 C395 0.960 . S
H398 C395 0.961 . S
O399 Co374 1.967 . S
O399 C407 1.258 . S
O400 Co375 1.941 . S
O400 C407 1.266 . S
H401 C403 0.959 . S
H402 C403 0.961 . S
C403 C393 1.510 . S
C403 H401 0.959 . S
C403 H402 0.961 . S
C403 H404 0.960 . S
H404 C403 0.960 . S
H405 N385 0.862 . S
O406 Co374 1.920 . S
O406 C379 1.289 . S
C407 O399 1.258 . S
C407 O400 1.266 . S
H408 C426 0.951 . S
H409 C428 0.951 . S
H410 C430 0.950 . S
H411 C431 0.950 . S
H412 C433 0.950 . S
H413 C436 0.950 . S
H414 C437 0.950 . S
H415 C439 0.950 . S
H416 C440 0.950 . S
H417 C441 0.951 . S
H418 C443 0.951 . S
H419 C445 0.950 . S
H420 C446 0.950 . S
H421 C448 0.950 . S
H422 C451 0.950 . S
H423 C452 0.950 . S
H424 C454 0.950 . S
H425 C455 0.950 . S
C426 H408 0.951 . S
C426 C427 1.366 . S
C426 C428 1.388 . S
C427 C426 1.366 . S
C427 C431 1.385 . S
C428 H409 0.951 . S
C428 C426 1.388 . S
C428 C429 1.366 . S
C429 C428 1.366 . S
C429 C430 1.414 . S
C429 C432 1.499 . S
C430 H410 0.950 . S
C430 C429 1.414 . S
C430 C431 1.374 . S
C431 H411 0.950 . S
C431 C427 1.385 . S
C431 C430 1.374 . S
C432 C429 1.499 . S
C432 C433 1.373 . S
C432 C434 1.389 . S
C433 H412 0.950 . S
C433 C432 1.373 . S
C433 C449 1.377 . S
C434 C432 1.389 . S
C434 C435 1.524 . S
C434 C448 1.377 . S
C435 C434 1.524 . S
C435 C436 1.397 . S
C435 C440 1.363 . S
C436 H413 0.950 . S
C436 C435 1.397 . S
C436 C437 1.334 . S
C437 H414 0.950 . S
C437 C436 1.334 . S
C437 C438 1.287 . S
C438 C437 1.287 . S
C438 C439 1.524 . S
C438 H457 0.913 . S
C439 H415 0.950 . S
C439 C438 1.524 . S
C439 C440 1.415 . S
C440 H416 0.950 . S
C440 C435 1.363 . S
C440 C439 1.415 . S
C441 H417 0.951 . S
C441 C442 1.366 . S
C441 C443 1.388 . S
C442 C441 1.366 . S
C442 C446 1.385 . S
C443 H418 0.951 . S
C443 C441 1.388 . S
C443 C444 1.366 . S
C444 C443 1.366 . S
C444 C445 1.414 . S
C444 C447 1.499 . S
C445 H419 0.950 . S
C445 C444 1.414 . S
C445 C446 1.374 . S
C446 H420 0.950 . S
C446 C442 1.385 . S
C446 C445 1.374 . S
C447 C444 1.499 . S
C447 C448 1.373 . S
C447 C449 1.389 . S
C448 H421 0.950 . S
C448 C434 1.377 . S
C448 C447 1.373 . S
C449 C433 1.377 . S
C449 C447 1.389 . S
C449 C450 1.524 1_554 S
C450 C449 1.524 1_556 S
C450 C451 1.397 . S
C450 C455 1.363 . S
C451 H422 0.950 . S
C451 C450 1.397 . S
C451 C452 1.334 . S
C452 H423 0.950 . S
C452 C451 1.334 . S
C452 C453 1.287 . S
C453 C452 1.287 . S
C453 C454 1.524 . S
C453 H456 0.999 . S
C454 H424 0.950 . S
C454 C453 1.524 . S
C454 C455 1.415 . S
C455 H425 0.950 . S
C455 C450 1.363 . S
C455 C454 1.415 . S
H456 C453 0.999 . S
H457 C438 0.913 . S
H458 C476 0.951 . S
H459 C478 0.951 . S
H460 C480 0.950 . S
H461 C481 0.950 . S
H462 C483 0.950 . S
H463 C486 0.950 . S
H464 C487 0.950 . S
H465 C489 0.950 . S
H466 C490 0.950 . S
H467 C491 0.951 . S
H468 C493 0.951 . S
H469 C495 0.950 . S
H470 C496 0.950 . S
H471 C498 0.950 . S
H472 C501 0.950 . S
H473 C502 0.950 . S
H474 C504 0.950 . S
H475 C505 0.950 . S
C476 H458 0.951 . S
C476 C477 1.366 . S
C476 C478 1.388 . S
C477 C476 1.366 . S
C477 C481 1.385 . S
C478 H459 0.951 . S
C478 C476 1.388 . S
C478 C479 1.366 . S
C479 C478 1.366 . S
C479 C480 1.414 . S
C479 C482 1.499 . S
C480 H460 0.950 . S
C480 C479 1.414 . S
C480 C481 1.374 . S
C481 H461 0.950 . S
C481 C477 1.385 . S
C481 C480 1.374 . S
C482 C479 1.499 . S
C482 C483 1.373 . S
C482 C484 1.389 . S
C483 H462 0.950 . S
C483 C482 1.373 . S
C483 C499 1.377 . S
C484 C482 1.389 . S
C484 C485 1.524 . S
C484 C498 1.377 . S
C485 C484 1.524 . S
C485 C486 1.397 . S
C485 C490 1.363 . S
C486 H463 0.950 . S
C486 C485 1.397 . S
C486 C487 1.334 . S
C487 H464 0.950 . S
C487 C486 1.334 . S
C487 C488 1.287 . S
C488 C487 1.287 . S
C488 C489 1.524 . S
C488 H507 0.913 . S
C489 H465 0.950 . S
C489 C488 1.524 . S
C489 C490 1.415 . S
C490 H466 0.950 . S
C490 C485 1.363 . S
C490 C489 1.415 . S
C491 H467 0.951 . S
C491 C492 1.366 . S
C491 C493 1.388 . S
C492 C491 1.366 . S
C492 C496 1.385 . S
C493 H468 0.951 . S
C493 C491 1.388 . S
C493 C494 1.366 . S
C494 C493 1.366 . S
C494 C495 1.414 . S
C494 C497 1.499 . S
C495 H469 0.950 . S
C495 C494 1.414 . S
C495 C496 1.374 . S
C496 H470 0.950 . S
C496 C492 1.385 . S
C496 C495 1.374 . S
C497 C494 1.499 . S
C497 C498 1.373 . S
C497 C499 1.389 . S
C498 H471 0.950 . S
C498 C484 1.377 . S
C498 C497 1.373 . S
C499 C483 1.377 . S
C499 C497 1.389 . S
C499 C500 1.524 . S
C500 C499 1.524 . S
C500 C501 1.397 . S
C500 C505 1.363 . S
C501 H472 0.950 . S
C501 C500 1.397 . S
C501 C502 1.334 . S
C502 H473 0.950 . S
C502 C501 1.334 . S
C502 C503 1.287 . S
C503 C502 1.287 . S
C503 C504 1.524 . S
C503 H506 0.999 . S
C504 H474 0.950 . S
C504 C503 1.524 . S
C504 C505 1.415 . S
C505 H475 0.950 . S
C505 C500 1.363 . S
C505 C504 1.415 . S
H506 C503 0.999 . S
H507 C488 0.913 . S
H508 C526 0.951 . S
H509 C528 0.951 . S
H510 C530 0.950 . S
H511 C531 0.950 . S
H512 C533 0.950 . S
H513 C536 0.950 . S
H514 C537 0.950 . S
H515 C539 0.950 . S
H516 C540 0.950 . S
H517 C541 0.951 . S
H518 C543 0.951 . S
H519 C545 0.950 . S
H520 C546 0.950 . S
H521 C548 0.950 . S
H522 C551 0.950 . S
H523 C552 0.950 . S
H524 C554 0.950 . S
H525 C555 0.950 . S
C526 H508 0.951 . S
C526 C527 1.366 . S
C526 C528 1.388 . S
C527 C526 1.366 . S
C527 C531 1.385 . S
C528 H509 0.951 . S
C528 C526 1.388 . S
C528 C529 1.366 . S
C529 C528 1.366 . S
C529 C530 1.414 . S
C529 C532 1.499 . S
C530 H510 0.950 . S
C530 C529 1.414 . S
C530 C531 1.374 . S
C531 H511 0.950 . S
C531 C527 1.385 . S
C531 C530 1.374 . S
C532 C529 1.499 . S
C532 C533 1.373 . S
C532 C534 1.389 . S
C533 H512 0.950 . S
C533 C532 1.373 . S
C533 C549 1.377 . S
C534 C532 1.389 . S
C534 C535 1.524 . S
C534 C548 1.377 . S
C535 C534 1.524 . S
C535 C536 1.397 . S
C535 C540 1.363 . S
C536 H513 0.950 . S
C536 C535 1.397 . S
C536 C537 1.334 . S
C537 H514 0.950 . S
C537 C536 1.334 . S
C537 C538 1.287 . S
C538 C537 1.287 . S
C538 C539 1.524 . S
C538 H557 0.913 . S
C539 H515 0.950 . S
C539 C538 1.524 . S
C539 C540 1.415 . S
C540 H516 0.950 . S
C540 C535 1.363 . S
C540 C539 1.415 . S
C541 H517 0.951 . S
C541 C542 1.366 . S
C541 C543 1.388 . S
C542 C541 1.366 . S
C542 C546 1.385 . S
C543 H518 0.951 . S
C543 C541 1.388 . S
C543 C544 1.366 . S
C544 C543 1.366 . S
C544 C545 1.414 . S
C544 C547 1.499 . S
C545 H519 0.950 . S
C545 C544 1.414 . S
C545 C546 1.374 . S
C546 H520 0.950 . S
C546 C542 1.385 . S
C546 C545 1.374 . S
C547 C544 1.499 . S
C547 C548 1.373 . S
C547 C549 1.389 . S
C548 H521 0.950 . S
C548 C534 1.377 . S
C548 C547 1.373 . S
C549 C533 1.377 . S
C549 C547 1.389 . S
C549 C550 1.524 . S
C550 C549 1.524 . S
C550 C551 1.397 . S
C550 C555 1.363 . S
C551 H522 0.950 . S
C551 C550 1.397 . S
C551 C552 1.334 . S
C552 H523 0.950 . S
C552 C551 1.334 . S
C552 C553 1.287 . S
C553 C552 1.287 . S
C553 C554 1.524 . S
C553 H556 0.999 . S
C554 H524 0.950 . S
C554 C553 1.524 . S
C554 C555 1.415 . S
C555 H525 0.950 . S
C555 C550 1.363 . S
C555 C554 1.415 . S
H556 C553 0.999 . S
H557 C538 0.913 . S
H558 C576 0.951 . S
H559 C578 0.951 . S
H560 C580 0.950 . S
H561 C581 0.950 . S
H562 C583 0.950 . S
H563 C586 0.950 . S
H564 C587 0.950 . S
H565 C589 0.950 . S
H566 C590 0.950 . S
H567 C591 0.951 . S
H568 C593 0.951 . S
H569 C595 0.950 . S
H570 C596 0.950 . S
H571 C598 0.950 . S
H572 C601 0.950 . S
H573 C602 0.950 . S
H574 C604 0.950 . S
H575 C605 0.950 . S
C576 H558 0.951 . S
C576 C577 1.366 . S
C576 C578 1.388 . S
C577 C576 1.366 . S
C577 C581 1.385 . S
C578 H559 0.951 . S
C578 C576 1.388 . S
C578 C579 1.366 . S
C579 C578 1.366 . S
C579 C580 1.414 . S
C579 C582 1.499 . S
C580 H560 0.950 . S
C580 C579 1.414 . S
C580 C581 1.374 . S
C581 H561 0.950 . S
C581 C577 1.385 . S
C581 C580 1.374 . S
C582 C579 1.499 . S
C582 C583 1.373 . S
C582 C584 1.389 . S
C583 H562 0.950 . S
C583 C582 1.373 . S
C583 C599 1.377 . S
C584 C582 1.389 . S
C584 C585 1.524 . S
C584 C598 1.377 . S
C585 C584 1.524 . S
C585 C586 1.397 . S
C585 C590 1.363 . S
C586 H563 0.950 . S
C586 C585 1.397 . S
C586 C587 1.334 . S
C587 H564 0.950 . S
C587 C586 1.334 . S
C587 C588 1.287 . S
C588 C587 1.287 . S
C588 C589 1.524 . S
C588 H607 0.913 . S
C589 H565 0.950 . S
C589 C588 1.524 . S
C589 C590 1.415 . S
C590 H566 0.950 . S
C590 C585 1.363 . S
C590 C589 1.415 . S
C591 H567 0.951 . S
C591 C592 1.366 . S
C591 C593 1.388 . S
C592 C591 1.366 . S
C592 C596 1.385 . S
C593 H568 0.951 . S
C593 C591 1.388 . S
C593 C594 1.366 . S
C594 C593 1.366 . S
C594 C595 1.414 . S
C594 C597 1.499 . S
C595 H569 0.950 . S
C595 C594 1.414 . S
C595 C596 1.374 . S
C596 H570 0.950 . S
C596 C592 1.385 . S
C596 C595 1.374 . S
C597 C594 1.499 . S
C597 C598 1.373 . S
C597 C599 1.389 . S
C598 H571 0.950 . S
C598 C584 1.377 . S
C598 C597 1.373 . S
C599 C583 1.377 . S
C599 C597 1.389 . S
C599 C600 1.524 . S
C600 C599 1.524 . S
C600 C601 1.397 . S
C600 C605 1.363 . S
C601 H572 0.950 . S
C601 C600 1.397 . S
C601 C602 1.334 . S
C602 H573 0.950 . S
C602 C601 1.334 . S
C602 C603 1.287 . S
C603 C602 1.287 . S
C603 C604 1.524 . S
C603 H606 0.999 . S
C604 H574 0.950 . S
C604 C603 1.524 . S
C604 C605 1.415 . S
C605 H575 0.950 . S
C605 C600 1.363 . S
C605 C604 1.415 . S
H606 C603 0.999 . S
H607 C588 0.913 . S
H608 C626 0.951 . S
H609 C628 0.951 . S
H610 C630 0.950 . S
H611 C631 0.950 . S
H612 C633 0.950 . S
H613 C636 0.950 . S
H614 C637 0.950 . S
H615 C639 0.950 . S
H616 C640 0.950 . S
H617 C641 0.951 . S
H618 C643 0.951 . S
H619 C645 0.950 . S
H620 C646 0.950 . S
H621 C648 0.950 . S
H622 C651 0.950 . S
H623 C652 0.950 . S
H624 C654 0.950 . S
H625 C655 0.950 . S
C626 H608 0.951 . S
C626 C627 1.366 . S
C626 C628 1.388 . S
C627 C626 1.366 . S
C627 C631 1.385 . S
C628 H609 0.951 . S
C628 C626 1.388 . S
C628 C629 1.366 . S
C629 C628 1.366 . S
C629 C630 1.414 . S
C629 C632 1.499 . S
C630 H610 0.950 . S
C630 C629 1.414 . S
C630 C631 1.374 . S
C631 H611 0.950 . S
C631 C627 1.385 . S
C631 C630 1.374 . S
C632 C629 1.499 . S
C632 C633 1.373 . S
C632 C634 1.389 . S
C633 H612 0.950 . S
C633 C632 1.373 . S
C633 C649 1.377 . S
C634 C632 1.389 . S
C634 C635 1.524 . S
C634 C648 1.377 . S
C635 C634 1.524 . S
C635 C636 1.397 . S
C635 C640 1.363 . S
C636 H613 0.950 . S
C636 C635 1.397 . S
C636 C637 1.334 . S
C637 H614 0.950 . S
C637 C636 1.334 . S
C637 C638 1.287 . S
C638 C637 1.287 . S
C638 C639 1.524 . S
C638 H657 0.913 . S
C639 H615 0.950 . S
C639 C638 1.524 . S
C639 C640 1.415 . S
C640 H616 0.950 . S
C640 C635 1.363 . S
C640 C639 1.415 . S
C641 H617 0.951 . S
C641 C642 1.366 . S
C641 C643 1.388 . S
C642 C641 1.366 . S
C642 C646 1.385 . S
C643 H618 0.951 . S
C643 C641 1.388 . S
C643 C644 1.366 . S
C644 C643 1.366 . S
C644 C645 1.414 . S
C644 C647 1.499 . S
C645 H619 0.950 . S
C645 C644 1.414 . S
C645 C646 1.374 . S
C646 H620 0.950 . S
C646 C642 1.385 . S
C646 C645 1.374 . S
C647 C644 1.499 . S
C647 C648 1.373 . S
C647 C649 1.389 . S
C648 H621 0.950 . S
C648 C634 1.377 . S
C648 C647 1.373 . S
C649 C633 1.377 . S
C649 C647 1.389 . S
C649 C650 1.524 . S
C650 C649 1.524 . S
C650 C651 1.397 . S
C650 C655 1.363 . S
C651 H622 0.950 . S
C651 C650 1.397 . S
C651 C652 1.334 . S
C652 H623 0.950 . S
C652 C651 1.334 . S
C652 C653 1.287 . S
C653 C652 1.287 . S
C653 C654 1.524 . S
C653 H656 0.999 . S
C654 H624 0.950 . S
C654 C653 1.524 . S
C654 C655 1.415 . S
C655 H625 0.950 . S
C655 C650 1.363 . S
C655 C654 1.415 . S
H656 C653 0.999 . S
H657 C638 0.913 . S
H658 C676 0.951 . S
H659 C678 0.951 . S
H660 C680 0.950 . S
H661 C681 0.950 . S
H662 C683 0.950 . S
H663 C686 0.950 . S
H664 C687 0.950 . S
H665 C689 0.950 . S
H666 C690 0.950 . S
H667 C691 0.951 . S
H668 C693 0.951 . S
H669 C695 0.950 . S
H670 C696 0.950 . S
H671 C698 0.950 . S
H672 C701 0.950 . S
H673 C702 0.950 . S
H674 C704 0.950 . S
H675 C705 0.950 . S
C676 H658 0.951 . S
C676 C677 1.366 . S
C676 C678 1.388 . S
C677 C676 1.366 . S
C677 C681 1.385 . S
C678 H659 0.951 . S
C678 C676 1.388 . S
C678 C679 1.366 . S
C679 C678 1.366 . S
C679 C680 1.414 . S
C679 C682 1.499 . S
C680 H660 0.950 . S
C680 C679 1.414 . S
C680 C681 1.374 . S
C681 H661 0.950 . S
C681 C677 1.385 . S
C681 C680 1.374 . S
C682 C679 1.499 . S
C682 C683 1.373 . S
C682 C684 1.389 . S
C683 H662 0.950 . S
C683 C682 1.373 . S
C683 C699 1.377 . S
C684 C682 1.389 . S
C684 C685 1.524 . S
C684 C698 1.377 . S
C685 C684 1.524 . S
C685 C686 1.397 . S
C685 C690 1.363 . S
C686 H663 0.950 . S
C686 C685 1.397 . S
C686 C687 1.334 . S
C687 H664 0.950 . S
C687 C686 1.334 . S
C687 C688 1.287 . S
C688 C687 1.287 . S
C688 C689 1.524 . S
C688 H707 0.913 . S
C689 H665 0.950 . S
C689 C688 1.524 . S
C689 C690 1.415 . S
C690 H666 0.950 . S
C690 C685 1.363 . S
C690 C689 1.415 . S
C691 H667 0.951 . S
C691 C692 1.366 . S
C691 C693 1.388 . S
C692 C691 1.366 . S
C692 C696 1.385 . S
C693 H668 0.951 . S
C693 C691 1.388 . S
C693 C694 1.366 . S
C694 C693 1.366 . S
C694 C695 1.414 . S
C694 C697 1.499 . S
C695 H669 0.950 . S
C695 C694 1.414 . S
C695 C696 1.374 . S
C696 H670 0.950 . S
C696 C692 1.385 . S
C696 C695 1.374 . S
C697 C694 1.499 . S
C697 C698 1.373 . S
C697 C699 1.389 . S
C698 H671 0.950 . S
C698 C684 1.377 . S
C698 C697 1.373 . S
C699 C683 1.377 . S
C699 C697 1.389 . S
C699 C700 1.524 . S
C700 C699 1.524 . S
C700 C701 1.397 1_556 S
C700 C705 1.363 . S
C701 H672 0.950 . S
C701 C700 1.397 1_554 S
C701 C702 1.334 . S
C702 H673 0.950 . S
C702 C701 1.334 . S
C702 C703 1.287 . S
C703 C702 1.287 . S
C703 C704 1.524 1_554 S
C703 H706 0.999 . S
C704 H674 0.950 . S
C704 C703 1.524 1_556 S
C704 C705 1.415 . S
C705 H675 0.950 . S
C705 C700 1.363 . S
C705 C704 1.415 . S
H706 C703 0.999 . S
H707 C688 0.913 . S
H708 C726 0.951 . S
H709 C728 0.951 . S
H710 C730 0.950 . S
H711 C731 0.950 . S
H712 C733 0.950 . S
H713 C736 0.950 . S
H714 C737 0.950 . S
H715 C739 0.950 . S
H716 C740 0.950 . S
H717 C741 0.951 . S
H718 C743 0.951 . S
H719 C745 0.950 . S
H720 C746 0.950 . S
H721 C748 0.950 . S
H722 C751 0.950 . S
H723 C752 0.950 . S
H724 C754 0.950 . S
H725 C755 0.950 . S
C726 H708 0.951 . S
C726 C727 1.366 . S
C726 C728 1.388 . S
C727 C726 1.366 . S
C727 C731 1.385 . S
C728 H709 0.951 . S
C728 C726 1.388 . S
C728 C729 1.366 . S
C729 C728 1.366 . S
C729 C730 1.414 . S
C729 C732 1.499 . S
C730 H710 0.950 . S
C730 C729 1.414 . S
C730 C731 1.374 . S
C731 H711 0.950 . S
C731 C727 1.385 . S
C731 C730 1.374 . S
C732 C729 1.499 . S
C732 C733 1.373 . S
C732 C734 1.389 . S
C733 H712 0.950 . S
C733 C732 1.373 . S
C733 C749 1.377 . S
C734 C732 1.389 . S
C734 C735 1.524 . S
C734 C748 1.377 . S
C735 C734 1.524 . S
C735 C736 1.397 . S
C735 C740 1.363 . S
C736 H713 0.950 . S
C736 C735 1.397 . S
C736 C737 1.334 . S
C737 H714 0.950 . S
C737 C736 1.334 . S
C737 C738 1.287 . S
C738 C737 1.287 . S
C738 C739 1.524 . S
C738 H757 0.913 . S
C739 H715 0.950 . S
C739 C738 1.524 . S
C739 C740 1.415 . S
C740 H716 0.950 . S
C740 C735 1.363 . S
C740 C739 1.415 . S
C741 H717 0.951 . S
C741 C742 1.366 . S
C741 C743 1.388 . S
C742 C741 1.366 . S
C742 C746 1.385 . S
C743 H718 0.951 . S
C743 C741 1.388 . S
C743 C744 1.366 . S
C744 C743 1.366 . S
C744 C745 1.414 . S
C744 C747 1.499 . S
C745 H719 0.950 . S
C745 C744 1.414 . S
C745 C746 1.374 . S
C746 H720 0.950 . S
C746 C742 1.385 . S
C746 C745 1.374 . S
C747 C744 1.499 . S
C747 C748 1.373 . S
C747 C749 1.389 . S
C748 H721 0.950 . S
C748 C734 1.377 . S
C748 C747 1.373 . S
C749 C733 1.377 . S
C749 C747 1.389 . S
C749 C750 1.524 . S
C750 C749 1.524 . S
C750 C751 1.397 . S
C750 C755 1.363 . S
C751 H722 0.950 . S
C751 C750 1.397 . S
C751 C752 1.334 . S
C752 H723 0.950 . S
C752 C751 1.334 . S
C752 C753 1.287 . S
C753 C752 1.287 . S
C753 C754 1.524 . S
C753 H756 0.999 . S
C754 H724 0.950 . S
C754 C753 1.524 . S
C754 C755 1.415 . S
C755 H725 0.950 . S
C755 C750 1.363 . S
C755 C754 1.415 . S
H756 C753 0.999 . S
H757 C738 0.913 . S
H758 C776 0.951 . S
H759 C778 0.951 . S
H760 C780 0.950 . S
H761 C781 0.950 . S
H762 C783 0.950 . S
H763 C786 0.950 . S
H764 C787 0.950 . S
H765 C789 0.950 . S
H766 C790 0.950 . S
H767 C791 0.951 . S
H768 C793 0.951 . S
H769 C795 0.950 . S
H770 C796 0.950 . S
H771 C798 0.950 . S
H772 C801 0.950 . S
H773 C802 0.950 . S
H774 C804 0.950 . S
H775 C805 0.950 . S
C776 H758 0.951 . S
C776 C777 1.366 . S
C776 C778 1.388 . S
C777 C776 1.366 . S
C777 C781 1.385 . S
C778 H759 0.951 . S
C778 C776 1.388 . S
C778 C779 1.366 . S
C779 C778 1.366 . S
C779 C780 1.414 . S
C779 C782 1.499 . S
C780 H760 0.950 . S
C780 C779 1.414 . S
C780 C781 1.374 . S
C781 H761 0.950 . S
C781 C777 1.385 . S
C781 C780 1.374 . S
C782 C779 1.499 . S
C782 C783 1.373 . S
C782 C784 1.389 . S
C783 H762 0.950 . S
C783 C782 1.373 . S
C783 C799 1.377 . S
C784 C782 1.389 . S
C784 C785 1.524 . S
C784 C798 1.377 . S
C785 C784 1.524 . S
C785 C786 1.397 . S
C785 C790 1.363 . S
C786 H763 0.950 . S
C786 C785 1.397 . S
C786 C787 1.334 . S
C787 H764 0.950 . S
C787 C786 1.334 . S
C787 C788 1.287 . S
C788 C787 1.287 . S
C788 C789 1.524 . S
C788 H807 0.913 . S
C789 H765 0.950 . S
C789 C788 1.524 . S
C789 C790 1.415 . S
C790 H766 0.950 . S
C790 C785 1.363 . S
C790 C789 1.415 . S
C791 H767 0.951 . S
C791 C792 1.366 . S
C791 C793 1.388 . S
C792 C791 1.366 . S
C792 C796 1.385 . S
C793 H768 0.951 . S
C793 C791 1.388 . S
C793 C794 1.366 . S
C794 C793 1.366 . S
C794 C795 1.414 . S
C794 C797 1.499 . S
C795 H769 0.950 . S
C795 C794 1.414 . S
C795 C796 1.374 . S
C796 H770 0.950 . S
C796 C792 1.385 . S
C796 C795 1.374 . S
C797 C794 1.499 . S
C797 C798 1.373 . S
C797 C799 1.389 . S
C798 H771 0.950 . S
C798 C784 1.377 . S
C798 C797 1.373 . S
C799 C783 1.377 . S
C799 C797 1.389 . S
C799 C800 1.524 . S
C800 C799 1.524 . S
C800 C801 1.397 . S
C800 C805 1.363 . S
C801 H772 0.950 . S
C801 C800 1.397 . S
C801 C802 1.334 . S
C802 H773 0.950 . S
C802 C801 1.334 . S
C802 C803 1.287 . S
C803 C802 1.287 . S
C803 C804 1.524 . S
C803 H806 0.999 . S
C804 H774 0.950 . S
C804 C803 1.524 . S
C804 C805 1.415 . S
C805 H775 0.950 . S
C805 C800 1.363 . S
C805 C804 1.415 . S
H806 C803 0.999 . S
H807 C788 0.913 . S
H808 C826 0.951 . S
H809 C828 0.951 . S
H810 C830 0.950 . S
H811 C831 0.950 . S
H812 C833 0.950 . S
H813 C836 0.950 . S
H814 C837 0.950 . S
H815 C839 0.950 . S
H816 C840 0.950 . S
H817 C841 0.951 . S
H818 C843 0.951 . S
H819 C845 0.950 . S
H820 C846 0.950 . S
H821 C848 0.950 . S
H822 C851 0.950 . S
H823 C852 0.950 1_554 S
H824 C854 0.950 . S
H825 C855 0.950 . S
C826 H808 0.951 . S
C826 C827 1.366 . S
C826 C828 1.388 . S
C827 C826 1.366 . S
C827 C831 1.385 . S
C828 H809 0.951 . S
C828 C826 1.388 . S
C828 C829 1.366 . S
C829 C828 1.366 . S
C829 C830 1.414 . S
C829 C832 1.499 . S
C830 H810 0.950 . S
C830 C829 1.414 . S
C830 C831 1.374 . S
C831 H811 0.950 . S
C831 C827 1.385 . S
C831 C830 1.374 . S
C832 C829 1.499 . S
C832 C833 1.373 . S
C832 C834 1.389 . S
C833 H812 0.950 . S
C833 C832 1.373 . S
C833 C849 1.377 . S
C834 C832 1.389 . S
C834 C835 1.524 . S
C834 C848 1.377 . S
C835 C834 1.524 . S
C835 C836 1.397 . S
C835 C840 1.363 . S
C836 H813 0.950 . S
C836 C835 1.397 . S
C836 C837 1.334 . S
C837 H814 0.950 . S
C837 C836 1.334 . S
C837 C838 1.287 . S
C838 C837 1.287 . S
C838 C839 1.524 . S
C838 H857 0.913 . S
C839 H815 0.950 . S
C839 C838 1.524 . S
C839 C840 1.415 . S
C840 H816 0.950 . S
C840 C835 1.363 . S
C840 C839 1.415 . S
C841 H817 0.951 . S
C841 C842 1.366 . S
C841 C843 1.388 . S
C842 C841 1.366 . S
C842 C846 1.385 . S
C843 H818 0.951 . S
C843 C841 1.388 . S
C843 C844 1.366 . S
C844 C843 1.366 . S
C844 C845 1.414 . S
C844 C847 1.499 1_554 S
C845 H819 0.950 . S
C845 C844 1.414 . S
C845 C846 1.374 . S
C846 H820 0.950 . S
C846 C842 1.385 . S
C846 C845 1.374 . S
C847 C844 1.499 1_556 S
C847 C848 1.373 . S
C847 C849 1.389 . S
C848 H821 0.950 . S
C848 C834 1.377 . S
C848 C847 1.373 . S
C849 C833 1.377 . S
C849 C847 1.389 . S
C849 C850 1.524 . S
C850 C849 1.524 . S
C850 C851 1.397 . S
C850 C855 1.363 . S
C851 H822 0.950 . S
C851 C850 1.397 . S
C851 C852 1.334 . S
C852 H823 0.950 1_556 S
C852 C851 1.334 . S
C852 C853 1.287 . S
C853 C852 1.287 . S
C853 C854 1.524 . S
C853 H856 0.999 . S
C854 H824 0.950 . S
C854 C853 1.524 . S
C854 C855 1.415 . S
C855 H825 0.950 . S
C855 C850 1.363 . S
C855 C854 1.415 . S
H856 C853 0.999 . S
H857 C838 0.913 . S
H858 C876 0.951 . S
H859 C878 0.951 . S
H860 C880 0.950 . S
H861 C881 0.950 . S
H862 C883 0.950 . S
H863 C886 0.950 . S
H864 C887 0.950 . S
H865 C889 0.950 . S
H866 C890 0.950 . S
H867 C891 0.951 . S
H868 C893 0.951 . S
H869 C895 0.950 . S
H870 C896 0.950 . S
H871 C898 0.950 . S
H872 C901 0.950 . S
H873 C902 0.950 . S
H874 C904 0.950 . S
H875 C905 0.950 . S
C876 H858 0.951 . S
C876 C877 1.366 . S
C876 C878 1.388 . S
C877 C876 1.366 . S
C877 C881 1.385 . S
C878 H859 0.951 . S
C878 C876 1.388 . S
C878 C879 1.366 . S
C879 C878 1.366 . S
C879 C880 1.414 . S
C879 C882 1.493 1_556 S
C880 H860 0.950 . S
C880 C879 1.414 . S
C880 C881 1.374 . S
C881 H861 0.950 . S
C881 C877 1.385 . S
C881 C880 1.374 . S
C882 C879 1.493 1_554 S
C882 C883 1.377 . S
C882 C884 1.392 . S
C883 H862 0.950 . S
C883 C882 1.377 . S
C883 C899 1.377 . S
C884 C882 1.392 . S
C884 C885 1.524 1_554 S
C884 C898 1.377 . S
C885 C884 1.524 1_556 S
C885 C886 1.397 . S
C885 C890 1.363 1_556 S
C886 H863 0.950 . S
C886 C885 1.397 . S
C886 C887 1.334 . S
C887 H864 0.950 . S
C887 C886 1.334 . S
C887 C888 1.287 . S
C888 C887 1.287 . S
C888 C889 1.524 . S
C888 H907 0.913 . S
C889 H865 0.950 . S
C889 C888 1.524 . S
C889 C890 1.415 1_556 S
C890 H866 0.950 . S
C890 C885 1.363 1_554 S
C890 C889 1.415 1_554 S
C891 H867 0.951 . S
C891 C892 1.366 . S
C891 C893 1.388 . S
C892 C891 1.366 . S
C892 C896 1.385 . S
C893 H868 0.951 . S
C893 C891 1.388 . S
C893 C894 1.366 . S
C894 C893 1.366 . S
C894 C895 1.414 . S
C894 C897 1.499 . S
C895 H869 0.950 . S
C895 C894 1.414 . S
C895 C896 1.374 . S
C896 H870 0.950 . S
C896 C892 1.385 . S
C896 C895 1.374 . S
C897 C894 1.499 . S
C897 C898 1.373 . S
C897 C899 1.389 . S
C898 H871 0.950 . S
C898 C884 1.377 . S
C898 C897 1.373 . S
C899 C883 1.377 . S
C899 C897 1.389 . S
C899 C900 1.524 . S
C900 C899 1.524 . S
C900 C901 1.397 . S
C900 C905 1.363 . S
C901 H872 0.950 . S
C901 C900 1.397 . S
C901 C902 1.334 . S
C902 H873 0.950 . S
C902 C901 1.334 . S
C902 C903 1.287 . S
C903 C902 1.287 . S
C903 C904 1.524 . S
C903 H906 0.999 . S
C904 H874 0.950 . S
C904 C903 1.524 . S
C904 C905 1.415 . S
C905 H875 0.950 . S
C905 C900 1.363 . S
C905 C904 1.415 . S
H906 C903 0.999 . S
H907 C888 0.913 . S
H908 C926 0.951 . S
H909 C928 0.951 . S
H910 C930 0.950 . S
H911 C931 0.950 1_556 S
H912 C933 0.950 . S
H913 C936 0.950 . S
H914 C937 0.950 . S
H915 C939 0.950 . S
H916 C940 0.950 . S
H917 C941 0.951 . S
H918 C943 0.951 . S
H919 C945 0.950 . S
H920 C946 0.950 . S
H921 C948 0.950 . S
H922 C951 0.950 . S
H923 C952 0.950 . S
H924 C954 0.950 . S
H925 C955 0.950 . S
C926 H908 0.951 . S
C926 C927 1.366 1_554 S
C926 C928 1.388 . S
C927 C926 1.366 1_556 S
C927 C931 1.385 1_556 S
C928 H909 0.951 . S
C928 C926 1.388 . S
C928 C929 1.366 . S
C929 C928 1.366 . S
C929 C930 1.414 . S
C929 C932 1.499 . S
C930 H910 0.950 . S
C930 C929 1.414 . S
C930 C931 1.374 . S
C931 H911 0.950 1_554 S
C931 C927 1.385 1_554 S
C931 C930 1.374 . S
C932 C929 1.499 . S
C932 C933 1.373 . S
C932 C934 1.389 . S
C933 H912 0.950 . S
C933 C932 1.373 . S
C933 C949 1.377 . S
C934 C932 1.389 . S
C934 C935 1.524 . S
C934 C948 1.377 . S
C935 C934 1.524 . S
C935 C936 1.397 . S
C935 C940 1.363 . S
C936 H913 0.950 . S
C936 C935 1.397 . S
C936 C937 1.334 . S
C937 H914 0.950 . S
C937 C936 1.334 . S
C937 C938 1.287 . S
C938 C937 1.287 . S
C938 C939 1.524 . S
C938 H957 0.913 . S
C939 H915 0.950 . S
C939 C938 1.524 . S
C939 C940 1.415 . S
C940 H916 0.950 . S
C940 C935 1.363 . S
C940 C939 1.415 . S
C941 H917 0.951 . S
C941 C942 1.366 . S
C941 C943 1.388 . S
C942 C941 1.366 . S
C942 C946 1.385 . S
C943 H918 0.951 . S
C943 C941 1.388 . S
C943 C944 1.366 . S
C944 C943 1.366 . S
C944 C945 1.414 . S
C944 C947 1.499 . S
C945 H919 0.950 . S
C945 C944 1.414 . S
C945 C946 1.374 . S
C946 H920 0.950 . S
C946 C942 1.385 . S
C946 C945 1.374 . S
C947 C944 1.499 . S
C947 C948 1.373 . S
C947 C949 1.389 . S
C948 H921 0.950 . S
C948 C934 1.377 . S
C948 C947 1.373 . S
C949 C933 1.377 . S
C949 C947 1.389 . S
C949 C950 1.524 . S
C950 C949 1.524 . S
C950 C951 1.397 . S
C950 C955 1.363 . S
C951 H922 0.950 . S
C951 C950 1.397 . S
C951 C952 1.334 . S
C952 H923 0.950 . S
C952 C951 1.334 . S
C952 C953 1.287 . S
C953 C952 1.287 . S
C953 C954 1.524 . S
C953 H956 0.999 . S
C954 H924 0.950 . S
C954 C953 1.524 . S
C954 C955 1.415 . S
C955 H925 0.950 . S
C955 C950 1.363 . S
C955 C954 1.415 . S
H956 C953 0.999 . S
H957 C938 0.913 . S
H958 C976 0.951 . S
H959 C978 0.951 . S
H960 C980 0.950 . S
H961 C981 0.950 . S
H962 C983 0.950 . S
H963 C986 0.950 . S
H964 C987 0.950 . S
H965 C989 0.950 . S
H966 C990 0.950 . S
H967 C991 0.951 . S
H968 C993 0.951 . S
H969 C995 0.950 . S
H970 C996 0.950 . S
H971 C998 0.950 . S
H972 C1001 0.950 . S
H973 C1002 0.950 . S
H974 C1004 0.950 . S
H975 C1005 0.950 . S
C976 H958 0.951 . S
C976 C977 1.366 . S
C976 C978 1.388 . S
C977 C976 1.366 . S
C977 C981 1.385 . S
C978 H959 0.951 . S
C978 C976 1.388 . S
C978 C979 1.366 . S
C979 C978 1.366 . S
C979 C980 1.414 . S
C979 C982 1.499 . S
C980 H960 0.950 . S
C980 C979 1.414 . S
C980 C981 1.374 . S
C981 H961 0.950 . S
C981 C977 1.385 . S
C981 C980 1.374 . S
C982 C979 1.499 . S
C982 C983 1.373 . S
C982 C984 1.389 . S
C983 H962 0.950 . S
C983 C982 1.373 . S
C983 C999 1.377 . S
C984 C982 1.389 . S
C984 C985 1.524 . S
C984 C998 1.377 . S
C985 C984 1.524 . S
C985 C986 1.397 . S
C985 C990 1.363 . S
C986 H963 0.950 . S
C986 C985 1.397 . S
C986 C987 1.334 . S
C987 H964 0.950 . S
C987 C986 1.334 . S
C987 C988 1.287 . S
C988 C987 1.287 . S
C988 C989 1.524 . S
C988 H1007 0.913 . S
C989 H965 0.950 . S
C989 C988 1.524 . S
C989 C990 1.415 . S
C990 H966 0.950 . S
C990 C985 1.363 . S
C990 C989 1.415 . S
C991 H967 0.951 . S
C991 C992 1.366 . S
C991 C993 1.388 . S
C992 C991 1.366 . S
C992 C996 1.385 . S
C993 H968 0.951 . S
C993 C991 1.388 . S
C993 C994 1.366 . S
C994 C993 1.366 . S
C994 C995 1.414 . S
C994 C997 1.499 . S
C995 H969 0.950 . S
C995 C994 1.414 . S
C995 C996 1.374 . S
C996 H970 0.950 . S
C996 C992 1.385 . S
C996 C995 1.374 . S
C997 C994 1.499 . S
C997 C998 1.373 . S
C997 C999 1.389 . S
C998 H971 0.950 . S
C998 C984 1.377 . S
C998 C997 1.373 . S
C999 C983 1.377 . S
C999 C997 1.389 . S
C999 C1000 1.524 . S
C1000 C999 1.524 . S
C1000 C1001 1.397 . S
C1000 C1005 1.363 . S
C1001 H972 0.950 . S
C1001 C1000 1.397 . S
C1001 C1002 1.334 . S
C1002 H973 0.950 . S
C1002 C1001 1.334 . S
C1002 C1003 1.287 . S
C1003 C1002 1.287 . S
C1003 C1004 1.524 . S
C1003 H1006 0.999 . S
C1004 H974 0.950 . S
C1004 C1003 1.524 . S
C1004 C1005 1.415 . S
C1005 H975 0.950 . S
C1005 C1000 1.363 . S
C1005 C1004 1.415 . S
H1006 C1003 0.999 . S
H1007 C988 0.913 . S
H1008 C1026 0.951 . S
H1009 C1028 0.951 . S
H1010 C1030 0.950 . S
H1011 C1031 0.950 . S
H1012 C1033 0.950 . S
H1013 C1036 0.950 . S
H1014 C1037 0.950 . S
H1015 C1039 0.950 . S
H1016 C1040 0.950 . S
H1017 C1041 0.951 . S
H1018 C1043 0.951 . S
H1019 C1045 0.950 . S
H1020 C1046 0.950 . S
H1021 C1048 0.950 . S
H1022 C1051 0.950 . S
H1023 C1052 0.950 . S
H1024 C1054 0.950 . S
H1025 C1055 0.950 . S
C1026 H1008 0.951 . S
C1026 C1027 1.366 . S
C1026 C1028 1.388 . S
C1027 C1026 1.366 . S
C1027 C1031 1.385 . S
C1028 H1009 0.951 . S
C1028 C1026 1.388 . S
C1028 C1029 1.366 . S
C1029 C1028 1.366 . S
C1029 C1030 1.414 . S
C1029 C1032 1.499 . S
C1030 H1010 0.950 . S
C1030 C1029 1.414 . S
C1030 C1031 1.374 . S
C1031 H1011 0.950 . S
C1031 C1027 1.385 . S
C1031 C1030 1.374 . S
C1032 C1029 1.499 . S
C1032 C1033 1.373 . S
C1032 C1034 1.389 . S
C1033 H1012 0.950 . S
C1033 C1032 1.373 . S
C1033 C1049 1.377 . S
C1034 C1032 1.389 . S
C1034 C1035 1.524 . S
C1034 C1048 1.377 . S
C1035 C1034 1.524 . S
C1035 C1036 1.397 . S
C1035 C1040 1.363 . S
C1036 H1013 0.950 . S
C1036 C1035 1.397 . S
C1036 C1037 1.334 . S
C1037 H1014 0.950 . S
C1037 C1036 1.334 . S
C1037 C1038 1.287 . S
C1038 C1037 1.287 . S
C1038 C1039 1.524 . S
C1038 H1057 0.913 . S
C1039 H1015 0.950 . S
C1039 C1038 1.524 . S
C1039 C1040 1.415 . S
C1040 H1016 0.950 . S
C1040 C1035 1.363 . S
C1040 C1039 1.415 . S
C1041 H1017 0.951 . S
C1041 C1042 1.366 . S
C1041 C1043 1.388 . S
C1042 C1041 1.366 . S
C1042 C1046 1.385 . S
C1043 H1018 0.951 . S
C1043 C1041 1.388 . S
C1043 C1044 1.366 . S
C1044 C1043 1.366 . S
C1044 C1045 1.414 . S
C1044 C1047 1.499 . S
C1045 H1019 0.950 . S
C1045 C1044 1.414 . S
C1045 C1046 1.374 . S
C1046 H1020 0.950 . S
C1046 C1042 1.385 . S
C1046 C1045 1.374 . S
C1047 C1044 1.499 . S
C1047 C1048 1.373 . S
C1047 C1049 1.389 . S
C1048 H1021 0.950 . S
C1048 C1034 1.377 . S
C1048 C1047 1.373 . S
C1049 C1033 1.377 . S
C1049 C1047 1.389 . S
C1049 C1050 1.524 . S
C1050 C1049 1.524 . S
C1050 C1051 1.397 . S
C1050 C1055 1.363 . S
C1051 H1022 0.950 . S
C1051 C1050 1.397 . S
C1051 C1052 1.334 . S
C1052 H1023 0.950 . S
C1052 C1051 1.334 . S
C1052 C1053 1.287 . S
C1053 C1052 1.287 . S
C1053 C1054 1.524 . S
C1053 H1056 0.999 . S
C1054 H1024 0.950 . S
C1054 C1053 1.524 . S
C1054 C1055 1.415 . S
C1055 H1025 0.950 . S
C1055 C1050 1.363 . S
C1055 C1054 1.415 . S
H1056 C1053 0.999 . S
H1057 C1038 0.913 . S
H1058 C1076 0.951 . S
H1059 C1078 0.951 . S
H1060 C1080 0.950 . S
H1061 C1081 0.950 . S
H1062 C1083 0.950 . S
H1063 C1086 0.950 . S
H1064 C1087 0.950 . S
H1065 C1089 0.950 . S
H1066 C1090 0.950 . S
H1067 C1091 0.951 . S
H1068 C1093 0.951 . S
H1069 C1095 0.950 . S
H1070 C1096 0.950 . S
H1071 C1098 0.950 . S
H1072 C1101 0.950 . S
H1073 C1102 0.950 . S
H1074 C1104 0.950 . S
H1075 C1105 0.950 . S
C1076 H1058 0.951 . S
C1076 C1077 1.366 . S
C1076 C1078 1.388 . S
C1077 C1076 1.366 . S
C1077 C1081 1.385 . S
C1078 H1059 0.951 . S
C1078 C1076 1.388 . S
C1078 C1079 1.366 . S
C1079 C1078 1.366 . S
C1079 C1080 1.414 . S
C1079 C1082 1.499 . S
C1080 H1060 0.950 . S
C1080 C1079 1.414 . S
C1080 C1081 1.374 . S
C1081 H1061 0.950 . S
C1081 C1077 1.385 . S
C1081 C1080 1.374 . S
C1082 C1079 1.499 . S
C1082 C1083 1.373 . S
C1082 C1084 1.389 . S
C1083 H1062 0.950 . S
C1083 C1082 1.373 . S
C1083 C1099 1.377 . S
C1084 C1082 1.389 . S
C1084 C1085 1.524 . S
C1084 C1098 1.377 . S
C1085 C1084 1.524 . S
C1085 C1086 1.397 . S
C1085 C1090 1.363 . S
C1086 H1063 0.950 . S
C1086 C1085 1.397 . S
C1086 C1087 1.334 . S
C1087 H1064 0.950 . S
C1087 C1086 1.334 . S
C1087 C1088 1.287 . S
C1088 C1087 1.287 . S
C1088 C1089 1.524 . S
C1088 H1107 0.913 . S
C1089 H1065 0.950 . S
C1089 C1088 1.524 . S
C1089 C1090 1.415 . S
C1090 H1066 0.950 . S
C1090 C1085 1.363 . S
C1090 C1089 1.415 . S
C1091 H1067 0.951 . S
C1091 C1092 1.366 . S
C1091 C1093 1.388 . S
C1092 C1091 1.366 . S
C1092 C1096 1.385 . S
C1093 H1068 0.951 . S
C1093 C1091 1.388 . S
C1093 C1094 1.366 . S
C1094 C1093 1.366 . S
C1094 C1095 1.414 . S
C1094 C1097 1.499 . S
C1095 H1069 0.950 . S
C1095 C1094 1.414 . S
C1095 C1096 1.374 . S
C1096 H1070 0.950 . S
C1096 C1092 1.385 . S
C1096 C1095 1.374 . S
C1097 C1094 1.499 . S
C1097 C1098 1.373 . S
C1097 C1099 1.389 . S
C1098 H1071 0.950 . S
C1098 C1084 1.377 . S
C1098 C1097 1.373 . S
C1099 C1083 1.377 . S
C1099 C1097 1.389 . S
C1099 C1100 1.524 . S
C1100 C1099 1.524 . S
C1100 C1101 1.397 . S
C1100 C1105 1.363 . S
C1101 H1072 0.950 . S
C1101 C1100 1.397 . S
C1101 C1102 1.334 . S
C1102 H1073 0.950 . S
C1102 C1101 1.334 . S
C1102 C1103 1.287 . S
C1103 C1102 1.287 . S
C1103 C1104 1.524 . S
C1103 H1106 0.999 . S
C1104 H1074 0.950 . S
C1104 C1103 1.524 . S
C1104 C1105 1.415 . S
C1105 H1075 0.950 . S
C1105 C1100 1.363 . S
C1105 C1104 1.415 . S
H1106 C1103 0.999 . S
H1107 C1088 0.913 . S
H1108 C1126 0.951 . S
H1109 C1128 0.951 . S
H1110 C1130 0.950 . S
H1111 C1131 0.950 . S
H1112 C1133 0.950 . S
H1113 C1136 0.950 . S
H1114 C1137 0.950 . S
H1115 C1139 0.950 . S
H1116 C1140 0.950 . S
H1117 C1141 0.951 . S
H1118 C1143 0.951 . S
H1119 C1145 0.950 . S
H1120 C1146 0.950 . S
H1121 C1148 0.950 . S
H1122 C1151 0.950 . S
H1123 C1152 0.950 . S
H1124 C1154 0.950 . S
H1125 C1155 0.950 . S
C1126 H1108 0.951 . S
C1126 C1127 1.366 . S
C1126 C1128 1.388 . S
C1127 C1126 1.366 . S
C1127 C1131 1.385 . S
C1128 H1109 0.951 . S
C1128 C1126 1.388 . S
C1128 C1129 1.366 . S
C1129 C1128 1.366 . S
C1129 C1130 1.414 . S
C1129 C1132 1.499 . S
C1130 H1110 0.950 . S
C1130 C1129 1.414 . S
C1130 C1131 1.374 . S
C1131 H1111 0.950 . S
C1131 C1127 1.385 . S
C1131 C1130 1.374 . S
C1132 C1129 1.499 . S
C1132 C1133 1.373 . S
C1132 C1134 1.389 . S
C1133 H1112 0.950 . S
C1133 C1132 1.373 . S
C1133 C1149 1.377 . S
C1134 C1132 1.389 . S
C1134 C1135 1.524 . S
C1134 C1148 1.377 . S
C1135 C1134 1.524 . S
C1135 C1136 1.397 . S
C1135 C1140 1.363 . S
C1136 H1113 0.950 . S
C1136 C1135 1.397 . S
C1136 C1137 1.334 . S
C1137 H1114 0.950 . S
C1137 C1136 1.334 . S
C1137 C1138 1.287 . S
C1138 C1137 1.287 . S
C1138 C1139 1.524 . S
C1138 H1157 0.913 . S
C1139 H1115 0.950 . S
C1139 C1138 1.524 . S
C1139 C1140 1.415 . S
C1140 H1116 0.950 . S
C1140 C1135 1.363 . S
C1140 C1139 1.415 . S
C1141 H1117 0.951 . S
C1141 C1142 1.366 . S
C1141 C1143 1.388 . S
C1142 C1141 1.366 . S
C1142 C1146 1.385 . S
C1143 H1118 0.951 . S
C1143 C1141 1.388 . S
C1143 C1144 1.366 . S
C1144 C1143 1.366 . S
C1144 C1145 1.414 . S
C1144 C1147 1.499 . S
C1145 H1119 0.950 . S
C1145 C1144 1.414 . S
C1145 C1146 1.374 . S
C1146 H1120 0.950 . S
C1146 C1142 1.385 . S
C1146 C1145 1.374 . S
C1147 C1144 1.499 . S
C1147 C1148 1.373 . S
C1147 C1149 1.389 . S
C1148 H1121 0.950 . S
C1148 C1134 1.377 . S
C1148 C1147 1.373 . S
C1149 C1133 1.377 . S
C1149 C1147 1.389 . S
C1149 C1150 1.524 . S
C1150 C1149 1.524 . S
C1150 C1151 1.397 . S
C1150 C1155 1.363 . S
C1151 H1122 0.950 . S
C1151 C1150 1.397 . S
C1151 C1152 1.334 . S
C1152 H1123 0.950 . S
C1152 C1151 1.334 . S
C1152 C1153 1.287 . S
C1153 C1152 1.287 . S
C1153 C1154 1.524 . S
C1153 H1156 0.999 . S
C1154 H1124 0.950 . S
C1154 C1153 1.524 . S
C1154 C1155 1.415 . S
C1155 H1125 0.950 . S
C1155 C1150 1.363 . S
C1155 C1154 1.415 . S
H1156 C1153 0.999 . S
H1157 C1138 0.913 . S
H1158 C1176 0.951 . S
H1159 C1178 0.951 . S
H1160 C1180 0.950 . S
H1161 C1181 0.950 . S
H1162 C1183 0.950 . S
H1163 C1186 0.950 . S
H1164 C1187 0.950 . S
H1165 C1189 0.950 . S
H1166 C1190 0.950 . S
H1167 C1191 0.951 . S
H1168 C1193 0.951 . S
H1169 C1195 0.950 . S
H1170 C1196 0.950 1_554 S
H1171 C1198 0.950 . S
H1172 C1201 0.950 . S
H1173 C1202 0.950 . S
H1174 C1204 0.950 . S
H1175 C1205 0.950 . S
C1176 H1158 0.951 . S
C1176 C1177 1.366 . S
C1176 C1178 1.388 . S
C1177 C1176 1.366 . S
C1177 C1181 1.385 . S
C1178 H1159 0.951 . S
C1178 C1176 1.388 . S
C1178 C1179 1.366 . S
C1179 C1178 1.366 . S
C1179 C1180 1.414 . S
C1179 C1182 1.499 . S
C1180 H1160 0.950 . S
C1180 C1179 1.414 . S
C1180 C1181 1.374 . S
C1181 H1161 0.950 . S
C1181 C1177 1.385 . S
C1181 C1180 1.374 . S
C1182 C1179 1.499 . S
C1182 C1183 1.373 . S
C1182 C1184 1.389 . S
C1183 H1162 0.950 . S
C1183 C1182 1.373 . S
C1183 C1199 1.377 . S
C1184 C1182 1.389 . S
C1184 C1185 1.524 . S
C1184 C1198 1.377 . S
C1185 C1184 1.524 . S
C1185 C1186 1.397 . S
C1185 C1190 1.363 . S
C1186 H1163 0.950 . S
C1186 C1185 1.397 . S
C1186 C1187 1.334 . S
C1187 H1164 0.950 . S
C1187 C1186 1.334 . S
C1187 C1188 1.287 . S
C1188 C1187 1.287 . S
C1188 C1189 1.524 . S
C1188 H1207 0.913 . S
C1189 H1165 0.950 . S
C1189 C1188 1.524 . S
C1189 C1190 1.415 . S
C1190 H1166 0.950 . S
C1190 C1185 1.363 . S
C1190 C1189 1.415 . S
C1191 H1167 0.951 . S
C1191 C1192 1.366 1_556 S
C1191 C1193 1.388 . S
C1192 C1191 1.366 1_554 S
C1192 C1196 1.385 1_554 S
C1193 H1168 0.951 . S
C1193 C1191 1.388 . S
C1193 C1194 1.366 . S
C1194 C1193 1.366 . S
C1194 C1195 1.414 . S
C1194 C1197 1.499 . S
C1195 H1169 0.950 . S
C1195 C1194 1.414 . S
C1195 C1196 1.374 . S
C1196 H1170 0.950 1_556 S
C1196 C1192 1.385 1_556 S
C1196 C1195 1.374 . S
C1197 C1194 1.499 . S
C1197 C1198 1.373 . S
C1197 C1199 1.389 . S
C1198 H1171 0.950 . S
C1198 C1184 1.377 . S
C1198 C1197 1.373 . S
C1199 C1183 1.377 . S
C1199 C1197 1.389 . S
C1199 C1200 1.524 . S
C1200 C1199 1.524 . S
C1200 C1201 1.397 . S
C1200 C1205 1.363 . S
C1201 H1172 0.950 . S
C1201 C1200 1.397 . S
C1201 C1202 1.334 . S
C1202 H1173 0.950 . S
C1202 C1201 1.334 . S
C1202 C1203 1.287 . S
C1203 C1202 1.287 . S
C1203 C1204 1.524 . S
C1203 H1206 0.999 . S
C1204 H1174 0.950 . S
C1204 C1203 1.524 . S
C1204 C1205 1.415 . S
C1205 H1175 0.950 . S
C1205 C1200 1.363 . S
C1205 C1204 1.415 . S
H1206 C1203 0.999 . S
H1207 C1188 0.913 . S
H1208 C1226 0.951 . S
H1209 C1228 0.951 . S
H1210 C1230 0.950 . S
H1211 C1231 0.950 . S
H1212 C1233 0.950 . S
H1213 C1236 0.950 . S
H1214 C1237 0.950 . S
H1215 C1239 0.950 . S
H1216 C1240 0.950 . S
H1217 C1241 0.951 . S
H1218 C1243 0.951 . S
H1219 C1245 0.950 . S
H1220 C1246 0.950 . S
H1221 C1248 0.950 . S
H1222 C1251 0.950 . S
H1223 C1252 0.950 . S
H1224 C1254 0.950 . S
H1225 C1255 0.950 . S
C1226 H1208 0.951 . S
C1226 C1227 1.366 . S
C1226 C1228 1.388 . S
C1227 C1226 1.366 . S
C1227 C1231 1.385 . S
C1228 H1209 0.951 . S
C1228 C1226 1.388 . S
C1228 C1229 1.366 . S
C1229 C1228 1.366 . S
C1229 C1230 1.414 . S
C1229 C1232 1.499 . S
C1230 H1210 0.950 . S
C1230 C1229 1.414 . S
C1230 C1231 1.374 . S
C1231 H1211 0.950 . S
C1231 C1227 1.385 . S
C1231 C1230 1.374 . S
C1232 C1229 1.499 . S
C1232 C1233 1.373 . S
C1232 C1234 1.389 . S
C1233 H1212 0.950 . S
C1233 C1232 1.373 . S
C1233 C1249 1.377 . S
C1234 C1232 1.389 . S
C1234 C1235 1.524 . S
C1234 C1248 1.377 . S
C1235 C1234 1.524 . S
C1235 C1236 1.397 . S
C1235 C1240 1.363 . S
C1236 H1213 0.950 . S
C1236 C1235 1.397 . S
C1236 C1237 1.334 . S
C1237 H1214 0.950 . S
C1237 C1236 1.334 . S
C1237 C1238 1.287 . S
C1238 C1237 1.287 . S
C1238 C1239 1.524 . S
C1238 H1257 0.913 . S
C1239 H1215 0.950 . S
C1239 C1238 1.524 . S
C1239 C1240 1.415 . S
C1240 H1216 0.950 . S
C1240 C1235 1.363 . S
C1240 C1239 1.415 . S
C1241 H1217 0.951 . S
C1241 C1242 1.366 . S
C1241 C1243 1.388 . S
C1242 C1241 1.366 . S
C1242 C1246 1.385 . S
C1243 H1218 0.951 . S
C1243 C1241 1.388 . S
C1243 C1244 1.366 . S
C1244 C1243 1.366 . S
C1244 C1245 1.414 . S
C1244 C1247 1.497 1_554 S
C1245 H1219 0.950 . S
C1245 C1244 1.414 . S
C1245 C1246 1.374 . S
C1246 H1220 0.950 . S
C1246 C1242 1.385 . S
C1246 C1245 1.374 . S
C1247 C1244 1.497 1_556 S
C1247 C1248 1.374 . S
C1247 C1249 1.390 . S
C1248 H1221 0.950 . S
C1248 C1234 1.377 . S
C1248 C1247 1.374 . S
C1249 C1233 1.377 . S
C1249 C1247 1.390 . S
C1249 C1250 1.524 . S
C1250 C1249 1.524 . S
C1250 C1251 1.397 1_556 S
C1250 C1255 1.363 . S
C1251 H1222 0.950 . S
C1251 C1250 1.397 1_554 S
C1251 C1252 1.334 . S
C1252 H1223 0.950 . S
C1252 C1251 1.334 . S
C1252 C1253 1.287 . S
C1253 C1252 1.287 . S
C1253 C1254 1.524 1_554 S
C1253 H1256 0.999 . S
C1254 H1224 0.950 . S
C1254 C1253 1.524 1_556 S
C1254 C1255 1.415 . S
C1255 H1225 0.950 . S
C1255 C1250 1.363 . S
C1255 C1254 1.415 . S
H1256 C1253 0.999 . S
H1257 C1238 0.913 . S
H1258 C1276 0.951 . S
H1259 C1278 0.951 . S
H1260 C1280 0.950 . S
H1261 C1281 0.950 . S
H1262 C1283 0.950 . S
H1263 C1286 0.950 . S
H1264 C1287 0.950 . S
H1265 C1289 0.950 . S
H1266 C1290 0.950 . S
H1267 C1291 0.951 . S
H1268 C1293 0.951 . S
H1269 C1295 0.950 . S
H1270 C1296 0.950 . S
H1271 C1298 0.950 . S
H1272 C1301 0.950 . S
H1273 C1302 0.950 . S
H1274 C1304 0.950 . S
H1275 C1305 0.950 . S
C1276 H1258 0.951 . S
C1276 C1277 1.366 . S
C1276 C1278 1.388 . S
C1277 C1276 1.366 . S
C1277 C1281 1.385 . S
C1278 H1259 0.951 . S
C1278 C1276 1.388 . S
C1278 C1279 1.366 . S
C1279 C1278 1.366 . S
C1279 C1280 1.414 . S
C1279 C1282 1.499 . S
C1280 H1260 0.950 . S
C1280 C1279 1.414 . S
C1280 C1281 1.374 . S
C1281 H1261 0.950 . S
C1281 C1277 1.385 . S
C1281 C1280 1.374 . S
C1282 C1279 1.499 . S
C1282 C1283 1.373 . S
C1282 C1284 1.389 . S
C1283 H1262 0.950 . S
C1283 C1282 1.373 . S
C1283 C1299 1.377 . S
C1284 C1282 1.389 . S
C1284 C1285 1.524 . S
C1284 C1298 1.377 . S
C1285 C1284 1.524 . S
C1285 C1286 1.397 . S
C1285 C1290 1.363 . S
C1286 H1263 0.950 . S
C1286 C1285 1.397 . S
C1286 C1287 1.334 . S
C1287 H1264 0.950 . S
C1287 C1286 1.334 . S
C1287 C1288 1.287 . S
C1288 C1287 1.287 . S
C1288 C1289 1.524 . S
C1288 H1307 0.913 . S
C1289 H1265 0.950 . S
C1289 C1288 1.524 . S
C1289 C1290 1.415 . S
C1290 H1266 0.950 . S
C1290 C1285 1.363 . S
C1290 C1289 1.415 . S
C1291 H1267 0.951 . S
C1291 C1292 1.366 . S
C1291 C1293 1.388 . S
C1292 C1291 1.366 . S
C1292 C1296 1.385 . S
C1293 H1268 0.951 . S
C1293 C1291 1.388 . S
C1293 C1294 1.366 . S
C1294 C1293 1.366 . S
C1294 C1295 1.414 . S
C1294 C1297 1.499 1_556 S
C1295 H1269 0.950 . S
C1295 C1294 1.414 . S
C1295 C1296 1.374 . S
C1296 H1270 0.950 . S
C1296 C1292 1.385 . S
C1296 C1295 1.374 . S
C1297 C1294 1.499 1_554 S
C1297 C1298 1.373 . S
C1297 C1299 1.389 . S
C1298 H1271 0.950 . S
C1298 C1284 1.377 . S
C1298 C1297 1.373 . S
C1299 C1283 1.377 . S
C1299 C1297 1.389 . S
C1299 C1300 1.524 . S
C1300 C1299 1.524 . S
C1300 C1301 1.397 . S
C1300 C1305 1.363 . S
C1301 H1272 0.950 . S
C1301 C1300 1.397 . S
C1301 C1302 1.334 1_554 S
C1302 H1273 0.950 . S
C1302 C1301 1.334 1_556 S
C1302 C1303 1.287 1_556 S
C1303 C1302 1.287 1_554 S
C1303 C1304 1.524 . S
C1303 H1306 0.999 1_554 S
C1304 H1274 0.950 . S
C1304 C1303 1.524 . S
C1304 C1305 1.415 . S
C1305 H1275 0.950 . S
C1305 C1300 1.363 . S
C1305 C1304 1.415 . S
H1306 C1303 0.999 1_556 S
H1307 C1288 0.913 . S
H1308 C1326 0.951 . S
H1309 C1328 0.951 . S
H1310 C1330 0.950 . S
H1311 C1331 0.950 . S
H1312 C1333 0.950 . S
H1313 C1336 0.950 . S
H1314 C1337 0.950 . S
H1315 C1339 0.950 . S
H1316 C1340 0.950 . S
H1317 C1341 0.951 . S
H1318 C1343 0.951 . S
H1319 C1345 0.950 . S
H1320 C1346 0.950 . S
H1321 C1348 0.950 . S
H1322 C1351 0.950 . S
H1323 C1352 0.950 . S
H1324 C1354 0.950 . S
H1325 C1355 0.950 . S
C1326 H1308 0.951 . S
C1326 C1327 1.366 . S
C1326 C1328 1.388 . S
C1327 C1326 1.366 . S
C1327 C1331 1.385 . S
C1328 H1309 0.951 . S
C1328 C1326 1.388 . S
C1328 C1329 1.366 . S
C1329 C1328 1.366 . S
C1329 C1330 1.414 . S
C1329 C1332 1.499 . S
C1330 H1310 0.950 . S
C1330 C1329 1.414 . S
C1330 C1331 1.374 . S
C1331 H1311 0.950 . S
C1331 C1327 1.385 . S
C1331 C1330 1.374 . S
C1332 C1329 1.499 . S
C1332 C1333 1.373 . S
C1332 C1334 1.389 . S
C1333 H1312 0.950 . S
C1333 C1332 1.373 . S
C1333 C1349 1.377 . S
C1334 C1332 1.389 . S
C1334 C1335 1.524 . S
C1334 C1348 1.377 . S
C1335 C1334 1.524 . S
C1335 C1336 1.397 . S
C1335 C1340 1.363 . S
C1336 H1313 0.950 . S
C1336 C1335 1.397 . S
C1336 C1337 1.334 . S
C1337 H1314 0.950 . S
C1337 C1336 1.334 . S
C1337 C1338 1.287 . S
C1338 C1337 1.287 . S
C1338 C1339 1.524 . S
C1338 H1357 0.913 . S
C1339 H1315 0.950 . S
C1339 C1338 1.524 . S
C1339 C1340 1.415 . S
C1340 H1316 0.950 . S
C1340 C1335 1.363 . S
C1340 C1339 1.415 . S
C1341 H1317 0.951 . S
C1341 C1342 1.366 . S
C1341 C1343 1.388 . S
C1342 C1341 1.366 . S
C1342 C1346 1.385 . S
C1343 H1318 0.951 . S
C1343 C1341 1.388 . S
C1343 C1344 1.366 . S
C1344 C1343 1.366 . S
C1344 C1345 1.414 . S
C1344 C1347 1.499 . S
C1345 H1319 0.950 . S
C1345 C1344 1.414 . S
C1345 C1346 1.374 . S
C1346 H1320 0.950 . S
C1346 C1342 1.385 . S
C1346 C1345 1.374 . S
C1347 C1344 1.499 . S
C1347 C1348 1.373 . S
C1347 C1349 1.389 . S
C1348 H1321 0.950 . S
C1348 C1334 1.377 . S
C1348 C1347 1.373 . S
C1349 C1333 1.377 . S
C1349 C1347 1.389 . S
C1349 C1350 1.524 . S
C1350 C1349 1.524 . S
C1350 C1351 1.397 . S
C1350 C1355 1.363 . S
C1351 H1322 0.950 . S
C1351 C1350 1.397 . S
C1351 C1352 1.334 . S
C1352 H1323 0.950 . S
C1352 C1351 1.334 . S
C1352 C1353 1.287 . S
C1353 C1352 1.287 . S
C1353 C1354 1.524 . S
C1353 H1356 0.999 . S
C1354 H1324 0.950 . S
C1354 C1353 1.524 . S
C1354 C1355 1.415 . S
C1355 H1325 0.950 . S
C1355 C1350 1.363 . S
C1355 C1354 1.415 . S
H1356 C1353 0.999 . S
H1357 C1338 0.913 . S
H1358 C1376 0.951 . S
H1359 C1378 0.951 . S
H1360 C1380 0.950 . S
H1361 C1381 0.950 . S
H1362 C1383 0.950 . S
H1363 C1386 0.950 . S
H1364 C1387 0.950 . S
H1365 C1389 0.950 . S
H1366 C1390 0.950 . S
H1367 C1391 0.951 . S
H1368 C1393 0.951 . S
H1369 C1395 0.950 . S
H1370 C1396 0.950 . S
H1371 C1398 0.950 . S
H1372 C1401 0.950 . S
H1373 C1402 0.950 . S
H1374 C1404 0.950 . S
H1375 C1405 0.950 . S
C1376 H1358 0.951 . S
C1376 C1377 1.366 . S
C1376 C1378 1.388 . S
C1377 C1376 1.366 . S
C1377 C1381 1.385 . S
C1378 H1359 0.951 . S
C1378 C1376 1.388 . S
C1378 C1379 1.366 . S
C1379 C1378 1.366 . S
C1379 C1380 1.414 . S
C1379 C1382 1.499 . S
C1380 H1360 0.950 . S
C1380 C1379 1.414 . S
C1380 C1381 1.374 . S
C1381 H1361 0.950 . S
C1381 C1377 1.385 . S
C1381 C1380 1.374 . S
C1382 C1379 1.499 . S
C1382 C1383 1.373 . S
C1382 C1384 1.389 . S
C1383 H1362 0.950 . S
C1383 C1382 1.373 . S
C1383 C1399 1.377 . S
C1384 C1382 1.389 . S
C1384 C1385 1.524 . S
C1384 C1398 1.377 . S
C1385 C1384 1.524 . S
C1385 C1386 1.397 . S
C1385 C1390 1.363 . S
C1386 H1363 0.950 . S
C1386 C1385 1.397 . S
C1386 C1387 1.334 . S
C1387 H1364 0.950 . S
C1387 C1386 1.334 . S
C1387 C1388 1.287 . S
C1388 C1387 1.287 . S
C1388 C1389 1.524 . S
C1388 H1407 0.913 . S
C1389 H1365 0.950 . S
C1389 C1388 1.524 . S
C1389 C1390 1.415 . S
C1390 H1366 0.950 . S
C1390 C1385 1.363 . S
C1390 C1389 1.415 . S
C1391 H1367 0.951 . S
C1391 C1392 1.366 . S
C1391 C1393 1.388 . S
C1392 C1391 1.366 . S
C1392 C1396 1.385 . S
C1393 H1368 0.951 . S
C1393 C1391 1.388 . S
C1393 C1394 1.366 . S
C1394 C1393 1.366 . S
C1394 C1395 1.414 . S
C1394 C1397 1.499 . S
C1395 H1369 0.950 . S
C1395 C1394 1.414 . S
C1395 C1396 1.374 . S
C1396 H1370 0.950 . S
C1396 C1392 1.385 . S
C1396 C1395 1.374 . S
C1397 C1394 1.499 . S
C1397 C1398 1.373 . S
C1397 C1399 1.389 . S
C1398 H1371 0.950 . S
C1398 C1384 1.377 . S
C1398 C1397 1.373 . S
C1399 C1383 1.377 . S
C1399 C1397 1.389 . S
C1399 C1400 1.524 . S
C1400 C1399 1.524 . S
C1400 C1401 1.397 . S
C1400 C1405 1.363 . S
C1401 H1372 0.950 . S
C1401 C1400 1.397 . S
C1401 C1402 1.334 . S
C1402 H1373 0.950 . S
C1402 C1401 1.334 . S
C1402 C1403 1.287 . S
C1403 C1402 1.287 . S
C1403 C1404 1.524 . S
C1403 H1406 0.999 . S
C1404 H1374 0.950 . S
C1404 C1403 1.524 . S
C1404 C1405 1.415 . S
C1405 H1375 0.950 . S
C1405 C1400 1.363 . S
C1405 C1404 1.415 . S
H1406 C1403 0.999 . S
H1407 C1388 0.913 . S
H1408 C1426 0.951 . S
H1409 C1428 0.951 . S
H1410 C1430 0.950 . S
H1411 C1431 0.950 . S
H1412 C1433 0.950 . S
H1413 C1436 0.950 . S
H1414 C1437 0.950 . S
H1415 C1439 0.950 . S
H1416 C1440 0.950 . S
H1417 C1441 0.951 . S
H1418 C1443 0.951 . S
H1419 C1445 0.950 . S
H1420 C1446 0.950 . S
H1421 C1448 0.950 . S
H1422 C1451 0.950 . S
H1423 C1452 0.950 . S
H1424 C1454 0.950 . S
H1425 C1455 0.950 . S
C1426 H1408 0.951 . S
C1426 C1427 1.366 . S
C1426 C1428 1.388 . S
C1427 C1426 1.366 . S
C1427 C1431 1.385 . S
C1428 H1409 0.951 . S
C1428 C1426 1.388 . S
C1428 C1429 1.366 . S
C1429 C1428 1.366 . S
C1429 C1430 1.414 . S
C1429 C1432 1.499 . S
C1430 H1410 0.950 . S
C1430 C1429 1.414 . S
C1430 C1431 1.374 . S
C1431 H1411 0.950 . S
C1431 C1427 1.385 . S
C1431 C1430 1.374 . S
C1432 C1429 1.499 . S
C1432 C1433 1.373 . S
C1432 C1434 1.389 . S
C1433 H1412 0.950 . S
C1433 C1432 1.373 . S
C1433 C1449 1.377 . S
C1434 C1432 1.389 . S
C1434 C1435 1.524 . S
C1434 C1448 1.377 . S
C1435 C1434 1.524 . S
C1435 C1436 1.397 . S
C1435 C1440 1.363 . S
C1436 H1413 0.950 . S
C1436 C1435 1.397 . S
C1436 C1437 1.334 . S
C1437 H1414 0.950 . S
C1437 C1436 1.334 . S
C1437 C1438 1.287 . S
C1438 C1437 1.287 . S
C1438 C1439 1.524 . S
C1438 H1457 0.913 . S
C1439 H1415 0.950 . S
C1439 C1438 1.524 . S
C1439 C1440 1.415 . S
C1440 H1416 0.950 . S
C1440 C1435 1.363 . S
C1440 C1439 1.415 . S
C1441 H1417 0.951 . S
C1441 C1442 1.366 . S
C1441 C1443 1.388 . S
C1442 C1441 1.366 . S
C1442 C1446 1.385 . S
C1443 H1418 0.951 . S
C1443 C1441 1.388 . S
C1443 C1444 1.366 . S
C1444 C1443 1.366 . S
C1444 C1445 1.414 . S
C1444 C1447 1.499 . S
C1445 H1419 0.950 . S
C1445 C1444 1.414 . S
C1445 C1446 1.374 . S
C1446 H1420 0.950 . S
C1446 C1442 1.385 . S
C1446 C1445 1.374 . S
C1447 C1444 1.499 . S
C1447 C1448 1.373 . S
C1447 C1449 1.389 . S
C1448 H1421 0.950 . S
C1448 C1434 1.377 . S
C1448 C1447 1.373 . S
C1449 C1433 1.377 . S
C1449 C1447 1.389 . S
C1449 C1450 1.524 . S
C1450 C1449 1.524 . S
C1450 C1451 1.397 . S
C1450 C1455 1.363 . S
C1451 H1422 0.950 . S
C1451 C1450 1.397 . S
C1451 C1452 1.334 . S
C1452 H1423 0.950 . S
C1452 C1451 1.334 . S
C1452 C1453 1.287 . S
C1453 C1452 1.287 . S
C1453 C1454 1.524 . S
C1453 H1456 0.999 . S
C1454 H1424 0.950 . S
C1454 C1453 1.524 . S
C1454 C1455 1.415 . S
C1455 H1425 0.950 . S
C1455 C1450 1.363 . S
C1455 C1454 1.415 . S
H1456 C1453 0.999 . S
H1457 C1438 0.913 . S
H1458 C1476 0.951 . S
H1459 C1478 0.951 . S
H1460 C1480 0.950 . S
H1461 C1481 0.950 . S
H1462 C1483 0.950 . S
H1463 C1486 0.950 . S
H1464 C1487 0.950 . S
H1465 C1489 0.950 . S
H1466 C1490 0.950 . S
H1467 C1491 0.951 . S
H1468 C1493 0.951 . S
H1469 C1495 0.950 . S
H1470 C1496 0.950 . S
H1471 C1498 0.950 . S
H1472 C1501 0.950 . S
H1473 C1502 0.950 . S
H1474 C1504 0.950 . S
H1475 C1505 0.950 . S
C1476 H1458 0.951 . S
C1476 C1477 1.366 . S
C1476 C1478 1.388 . S
C1477 C1476 1.366 . S
C1477 C1481 1.385 . S
C1478 H1459 0.951 . S
C1478 C1476 1.388 . S
C1478 C1479 1.366 . S
C1479 C1478 1.366 . S
C1479 C1480 1.414 . S
C1479 C1482 1.499 . S
C1480 H1460 0.950 . S
C1480 C1479 1.414 . S
C1480 C1481 1.374 . S
C1481 H1461 0.950 . S
C1481 C1477 1.385 . S
C1481 C1480 1.374 . S
C1482 C1479 1.499 . S
C1482 C1483 1.373 . S
C1482 C1484 1.389 . S
C1483 H1462 0.950 . S
C1483 C1482 1.373 . S
C1483 C1499 1.377 . S
C1484 C1482 1.389 . S
C1484 C1485 1.524 . S
C1484 C1498 1.377 . S
C1485 C1484 1.524 . S
C1485 C1486 1.397 . S
C1485 C1490 1.363 . S
C1486 H1463 0.950 . S
C1486 C1485 1.397 . S
C1486 C1487 1.334 . S
C1487 H1464 0.950 . S
C1487 C1486 1.334 . S
C1487 C1488 1.287 . S
C1488 C1487 1.287 . S
C1488 C1489 1.524 . S
C1488 H1507 0.913 . S
C1489 H1465 0.950 . S
C1489 C1488 1.524 . S
C1489 C1490 1.415 . S
C1490 H1466 0.950 . S
C1490 C1485 1.363 . S
C1490 C1489 1.415 . S
C1491 H1467 0.951 . S
C1491 C1492 1.366 . S
C1491 C1493 1.388 . S
C1492 C1491 1.366 . S
C1492 C1496 1.385 . S
C1493 H1468 0.951 . S
C1493 C1491 1.388 . S
C1493 C1494 1.366 . S
C1494 C1493 1.366 . S
C1494 C1495 1.414 . S
C1494 C1497 1.499 . S
C1495 H1469 0.950 . S
C1495 C1494 1.414 . S
C1495 C1496 1.374 . S
C1496 H1470 0.950 . S
C1496 C1492 1.385 . S
C1496 C1495 1.374 . S
C1497 C1494 1.499 . S
C1497 C1498 1.373 . S
C1497 C1499 1.389 . S
C1498 H1471 0.950 . S
C1498 C1484 1.377 . S
C1498 C1497 1.373 . S
C1499 C1483 1.377 . S
C1499 C1497 1.389 . S
C1499 C1500 1.524 . S
C1500 C1499 1.524 . S
C1500 C1501 1.397 . S
C1500 C1505 1.363 . S
C1501 H1472 0.950 . S
C1501 C1500 1.397 . S
C1501 C1502 1.334 . S
C1502 H1473 0.950 . S
C1502 C1501 1.334 . S
C1502 C1503 1.287 . S
C1503 C1502 1.287 . S
C1503 C1504 1.524 . S
C1503 H1506 0.999 . S
C1504 H1474 0.950 . S
C1504 C1503 1.524 . S
C1504 C1505 1.415 . S
C1505 H1475 0.950 . S
C1505 C1500 1.363 . S
C1505 C1504 1.415 . S
H1506 C1503 0.999 . S
H1507 C1488 0.913 . S
H1508 C1526 0.951 . S
H1509 C1528 0.951 . S
H1510 C1530 0.950 . S
H1511 C1531 0.950 . S
H1512 C1533 0.950 . S
H1513 C1536 0.950 . S
H1514 C1537 0.950 . S
H1515 C1539 0.950 . S
H1516 C1540 0.950 . S
H1517 C1541 0.951 . S
H1518 C1543 0.951 . S
H1519 C1545 0.950 . S
H1520 C1546 0.950 . S
H1521 C1548 0.950 . S
H1522 C1551 0.950 . S
H1523 C1552 0.950 . S
H1524 C1554 0.950 . S
H1525 C1555 0.950 . S
C1526 H1508 0.951 . S
C1526 C1527 1.366 . S
C1526 C1528 1.388 . S
C1527 C1526 1.366 . S
C1527 C1531 1.385 1_554 S
C1528 H1509 0.951 . S
C1528 C1526 1.388 . S
C1528 C1529 1.366 1_554 S
C1529 C1528 1.366 1_556 S
C1529 C1530 1.414 . S
C1529 C1532 1.499 . S
C1530 H1510 0.950 . S
C1530 C1529 1.414 . S
C1530 C1531 1.374 . S
C1531 H1511 0.950 . S
C1531 C1527 1.385 1_556 S
C1531 C1530 1.374 . S
C1532 C1529 1.499 . S
C1532 C1533 1.373 . S
C1532 C1534 1.389 . S
C1533 H1512 0.950 . S
C1533 C1532 1.373 . S
C1533 C1549 1.377 . S
C1534 C1532 1.389 . S
C1534 C1535 1.524 . S
C1534 C1548 1.377 . S
C1535 C1534 1.524 . S
C1535 C1536 1.397 . S
C1535 C1540 1.363 1_556 S
C1536 H1513 0.950 . S
C1536 C1535 1.397 . S
C1536 C1537 1.334 1_556 S
C1537 H1514 0.950 . S
C1537 C1536 1.334 1_554 S
C1537 C1538 1.287 . S
C1538 C1537 1.287 . S
C1538 C1539 1.524 . S
C1538 H1557 0.913 . S
C1539 H1515 0.950 . S
C1539 C1538 1.524 . S
C1539 C1540 1.415 . S
C1540 H1516 0.950 . S
C1540 C1535 1.363 1_554 S
C1540 C1539 1.415 . S
C1541 H1517 0.951 . S
C1541 C1542 1.366 . S
C1541 C1543 1.388 . S
C1542 C1541 1.366 . S
C1542 C1546 1.385 . S
C1543 H1518 0.951 . S
C1543 C1541 1.388 . S
C1543 C1544 1.366 . S
C1544 C1543 1.366 . S
C1544 C1545 1.414 . S
C1544 C1547 1.499 . S
C1545 H1519 0.950 . S
C1545 C1544 1.414 . S
C1545 C1546 1.374 . S
C1546 H1520 0.950 . S
C1546 C1542 1.385 . S
C1546 C1545 1.374 . S
C1547 C1544 1.499 . S
C1547 C1548 1.373 . S
C1547 C1549 1.389 . S
C1548 H1521 0.950 . S
C1548 C1534 1.377 . S
C1548 C1547 1.373 . S
C1549 C1533 1.377 . S
C1549 C1547 1.389 . S
C1549 C1550 1.524 . S
C1550 C1549 1.524 . S
C1550 C1551 1.397 . S
C1550 C1555 1.363 . S
C1551 H1522 0.950 . S
C1551 C1550 1.397 . S
C1551 C1552 1.334 . S
C1552 H1523 0.950 . S
C1552 C1551 1.334 . S
C1552 C1553 1.287 . S
C1553 C1552 1.287 . S
C1553 C1554 1.524 . S
C1553 H1556 0.999 . S
C1554 H1524 0.950 . S
C1554 C1553 1.524 . S
C1554 C1555 1.415 . S
C1555 H1525 0.950 . S
C1555 C1550 1.363 . S
C1555 C1554 1.415 . S
H1556 C1553 0.999 . S
H1557 C1538 0.913 . S
H1558 C1576 0.951 . S
H1559 C1578 0.951 . S
H1560 C1580 0.950 . S
H1561 C1581 0.950 . S
H1562 C1583 0.950 . S
H1563 C1586 0.950 . S
H1564 C1587 0.950 . S
H1565 C1589 0.950 . S
H1566 C1590 0.950 . S
H1567 C1591 0.951 . S
H1568 C1593 0.951 . S
H1569 C1595 0.950 . S
H1570 C1596 0.950 . S
H1571 C1598 0.950 . S
H1572 C1601 0.950 . S
H1573 C1602 0.950 . S
H1574 C1604 0.950 . S
H1575 C1605 0.950 . S
C1576 H1558 0.951 . S
C1576 C1577 1.366 . S
C1576 C1578 1.388 . S
C1577 C1576 1.366 . S
C1577 C1581 1.385 . S
C1578 H1559 0.951 . S
C1578 C1576 1.388 . S
C1578 C1579 1.366 . S
C1579 C1578 1.366 . S
C1579 C1580 1.414 . S
C1579 C1582 1.499 . S
C1580 H1560 0.950 . S
C1580 C1579 1.414 . S
C1580 C1581 1.374 . S
C1581 H1561 0.950 . S
C1581 C1577 1.385 . S
C1581 C1580 1.374 . S
C1582 C1579 1.499 . S
C1582 C1583 1.373 . S
C1582 C1584 1.389 . S
C1583 H1562 0.950 . S
C1583 C1582 1.373 . S
C1583 C1599 1.377 . S
C1584 C1582 1.389 . S
C1584 C1585 1.524 . S
C1584 C1598 1.377 . S
C1585 C1584 1.524 . S
C1585 C1586 1.397 . S
C1585 C1590 1.363 . S
C1586 H1563 0.950 . S
C1586 C1585 1.397 . S
C1586 C1587 1.334 . S
C1587 H1564 0.950 . S
C1587 C1586 1.334 . S
C1587 C1588 1.287 . S
C1588 C1587 1.287 . S
C1588 C1589 1.524 . S
C1588 H1607 0.913 . S
C1589 H1565 0.950 . S
C1589 C1588 1.524 . S
C1589 C1590 1.415 . S
C1590 H1566 0.950 . S
C1590 C1585 1.363 . S
C1590 C1589 1.415 . S
C1591 H1567 0.951 . S
C1591 C1592 1.366 . S
C1591 C1593 1.388 . S
C1592 C1591 1.366 . S
C1592 C1596 1.385 1_556 S
C1593 H1568 0.951 . S
C1593 C1591 1.388 . S
C1593 C1594 1.366 1_556 S
C1594 C1593 1.366 1_554 S
C1594 C1595 1.414 . S
C1594 C1597 1.499 . S
C1595 H1569 0.950 . S
C1595 C1594 1.414 . S
C1595 C1596 1.374 . S
C1596 H1570 0.950 . S
C1596 C1592 1.385 1_554 S
C1596 C1595 1.374 . S
C1597 C1594 1.499 . S
C1597 C1598 1.373 . S
C1597 C1599 1.389 . S
C1598 H1571 0.950 . S
C1598 C1584 1.377 . S
C1598 C1597 1.373 . S
C1599 C1583 1.377 . S
C1599 C1597 1.389 . S
C1599 C1600 1.524 . S
C1600 C1599 1.524 . S
C1600 C1601 1.397 . S
C1600 C1605 1.363 . S
C1601 H1572 0.950 . S
C1601 C1600 1.397 . S
C1601 C1602 1.334 . S
C1602 H1573 0.950 . S
C1602 C1601 1.334 . S
C1602 C1603 1.287 . S
C1603 C1602 1.287 . S
C1603 C1604 1.524 . S
C1603 H1606 0.999 . S
C1604 H1574 0.950 . S
C1604 C1603 1.524 . S
C1604 C1605 1.415 . S
C1605 H1575 0.950 . S
C1605 C1600 1.363 . S
C1605 C1604 1.415 . S
H1606 C1603 0.999 . S
H1607 C1588 0.913 . S
H1608 C1626 0.951 . S
H1609 C1628 0.951 . S
H1610 C1630 0.950 . S
H1611 C1631 0.950 . S
H1612 C1633 0.950 . S
H1613 C1636 0.950 . S
H1614 C1637 0.950 . S
H1615 C1639 0.950 . S
H1616 C1640 0.950 . S
H1617 C1641 0.951 . S
H1618 C1643 0.951 . S
H1619 C1645 0.950 . S
H1620 C1646 0.950 . S
H1621 C1648 0.950 . S
H1622 C1651 0.950 . S
H1623 C1652 0.950 . S
H1624 C1654 0.950 . S
H1625 C1655 0.950 . S
C1626 H1608 0.951 . S
C1626 C1627 1.366 . S
C1626 C1628 1.388 . S
C1627 C1626 1.366 . S
C1627 C1631 1.385 . S
C1628 H1609 0.951 . S
C1628 C1626 1.388 . S
C1628 C1629 1.366 . S
C1629 C1628 1.366 . S
C1629 C1630 1.414 . S
C1629 C1632 1.499 . S
C1630 H1610 0.950 . S
C1630 C1629 1.414 . S
C1630 C1631 1.374 . S
C1631 H1611 0.950 . S
C1631 C1627 1.385 . S
C1631 C1630 1.374 . S
C1632 C1629 1.499 . S
C1632 C1633 1.373 . S
C1632 C1634 1.389 1_554 S
C1633 H1612 0.950 . S
C1633 C1632 1.373 . S
C1633 C1649 1.377 1_545 S
C1634 C1632 1.389 1_556 S
C1634 C1635 1.524 . S
C1634 C1648 1.377 1_545 S
C1635 C1634 1.524 . S
C1635 C1636 1.397 . S
C1635 C1640 1.363 . S
C1636 H1613 0.950 . S
C1636 C1635 1.397 . S
C1636 C1637 1.334 . S
C1637 H1614 0.950 . S
C1637 C1636 1.334 . S
C1637 C1638 1.287 . S
C1638 C1637 1.287 . S
C1638 C1639 1.524 . S
C1638 H1657 0.913 . S
C1639 H1615 0.950 . S
C1639 C1638 1.524 . S
C1639 C1640 1.415 . S
C1640 H1616 0.950 . S
C1640 C1635 1.363 . S
C1640 C1639 1.415 . S
C1641 H1617 0.951 . S
C1641 C1642 1.366 . S
C1641 C1643 1.388 . S
C1642 C1641 1.366 . S
C1642 C1646 1.385 . S
C1643 H1618 0.951 . S
C1643 C1641 1.388 . S
C1643 C1644 1.366 . S
C1644 C1643 1.366 . S
C1644 C1645 1.414 . S
C1644 C1647 1.499 . S
C1645 H1619 0.950 . S
C1645 C1644 1.414 . S
C1645 C1646 1.374 . S
C1646 H1620 0.950 . S
C1646 C1642 1.385 . S
C1646 C1645 1.374 . S
C1647 C1644 1.499 . S
C1647 C1648 1.373 . S
C1647 C1649 1.389 1_556 S
C1648 H1621 0.950 . S
C1648 C1634 1.377 1_565 S
C1648 C1647 1.373 . S
C1649 C1633 1.377 1_565 S
C1649 C1647 1.389 1_554 S
C1649 C1650 1.524 . S
C1650 C1649 1.524 . S
C1650 C1651 1.397 . S
C1650 C1655 1.363 . S
C1651 H1622 0.950 . S
C1651 C1650 1.397 . S
C1651 C1652 1.334 . S
C1652 H1623 0.950 . S
C1652 C1651 1.334 . S
C1652 C1653 1.287 . S
C1653 C1652 1.287 . S
C1653 C1654 1.524 . S
C1653 H1656 0.999 . S
C1654 H1624 0.950 . S
C1654 C1653 1.524 . S
C1654 C1655 1.415 . S
C1655 H1625 0.950 . S
C1655 C1650 1.363 . S
C1655 C1654 1.415 . S
H1656 C1653 0.999 . S
H1657 C1638 0.913 . S
H1658 C1676 0.951 . S
H1659 C1678 0.951 . S
H1660 C1680 0.950 . S
H1661 C1681 0.950 . S
H1662 C1683 0.950 . S
H1663 C1686 0.950 . S
H1664 C1687 0.950 . S
H1665 C1689 0.950 . S
H1666 C1690 0.950 . S
H1667 C1691 0.951 . S
H1668 C1693 0.951 . S
H1669 C1695 0.950 . S
H1670 C1696 0.950 . S
H1671 C1698 0.950 . S
H1672 C1701 0.950 . S
H1673 C1702 0.950 . S
H1674 C1704 0.950 . S
H1675 C1705 0.950 . S
C1676 H1658 0.951 . S
C1676 C1677 1.366 . S
C1676 C1678 1.388 . S
C1677 C1676 1.366 . S
C1677 C1681 1.385 . S
C1678 H1659 0.951 . S
C1678 C1676 1.388 . S
C1678 C1679 1.366 . S
C1679 C1678 1.366 . S
C1679 C1680 1.414 . S
C1679 C1682 1.499 . S
C1680 H1660 0.950 . S
C1680 C1679 1.414 . S
C1680 C1681 1.374 . S
C1681 H1661 0.950 . S
C1681 C1677 1.385 . S
C1681 C1680 1.374 . S
C1682 C1679 1.499 . S
C1682 C1683 1.373 . S
C1682 C1684 1.389 . S
C1683 H1662 0.950 . S
C1683 C1682 1.373 . S
C1683 C1699 1.377 . S
C1684 C1682 1.389 . S
C1684 C1685 1.524 . S
C1684 C1698 1.377 . S
C1685 C1684 1.524 . S
C1685 C1686 1.397 . S
C1685 C1690 1.363 . S
C1686 H1663 0.950 . S
C1686 C1685 1.397 . S
C1686 C1687 1.334 1_554 S
C1687 H1664 0.950 . S
C1687 C1686 1.334 1_556 S
C1687 C1688 1.287 . S
C1688 C1687 1.287 . S
C1688 C1689 1.524 1_556 S
C1688 H1707 0.913 . S
C1689 H1665 0.950 . S
C1689 C1688 1.524 1_554 S
C1689 C1690 1.415 . S
C1690 H1666 0.950 . S
C1690 C1685 1.363 . S
C1690 C1689 1.415 . S
C1691 H1667 0.951 . S
C1691 C1692 1.366 . S
C1691 C1693 1.388 . S
C1692 C1691 1.366 . S
C1692 C1696 1.385 . S
C1693 H1668 0.951 . S
C1693 C1691 1.388 . S
C1693 C1694 1.366 . S
C1694 C1693 1.366 . S
C1694 C1695 1.414 . S
C1694 C1697 1.499 . S
C1695 H1669 0.950 . S
C1695 C1694 1.414 . S
C1695 C1696 1.374 . S
C1696 H1670 0.950 . S
C1696 C1692 1.385 . S
C1696 C1695 1.374 . S
C1697 C1694 1.499 . S
C1697 C1698 1.373 . S
C1697 C1699 1.389 . S
C1698 H1671 0.950 . S
C1698 C1684 1.377 . S
C1698 C1697 1.373 . S
C1699 C1683 1.377 . S
C1699 C1697 1.389 . S
C1699 C1700 1.524 . S
C1700 C1699 1.524 . S
C1700 C1701 1.397 . S
C1700 C1705 1.363 . S
C1701 H1672 0.950 . S
C1701 C1700 1.397 . S
C1701 C1702 1.334 . S
C1702 H1673 0.950 . S
C1702 C1701 1.334 . S
C1702 C1703 1.287 . S
C1703 C1702 1.287 . S
C1703 C1704 1.524 . S
C1703 H1706 0.999 . S
C1704 H1674 0.950 . S
C1704 C1703 1.524 . S
C1704 C1705 1.415 . S
C1705 H1675 0.950 . S
C1705 C1700 1.363 . S
C1705 C1704 1.415 . S
H1706 C1703 0.999 . S
H1707 C1688 0.913 . S
H1708 C1726 0.951 . S
H1709 C1728 0.951 . S
H1710 C1730 0.950 . S
H1711 C1731 0.950 . S
H1712 C1733 0.950 . S
H1713 C1736 0.950 . S
H1714 C1737 0.950 . S
H1715 C1739 0.950 . S
H1716 C1740 0.950 1_655 S
H1717 C1741 0.951 . S
H1718 C1743 0.951 . S
H1719 C1745 0.950 . S
H1720 C1746 0.950 . S
H1721 C1748 0.950 . S
H1722 C1751 0.950 . S
H1723 C1752 0.950 . S
H1724 C1754 0.950 . S
H1725 C1755 0.950 1_455 S
C1726 H1708 0.951 . S
C1726 C1727 1.366 . S
C1726 C1728 1.388 . S
C1727 C1726 1.366 . S
C1727 C1731 1.385 . S
C1728 H1709 0.951 . S
C1728 C1726 1.388 . S
C1728 C1729 1.366 . S
C1729 C1728 1.366 . S
C1729 C1730 1.414 . S
C1729 C1732 1.499 . S
C1730 H1710 0.950 . S
C1730 C1729 1.414 . S
C1730 C1731 1.374 . S
C1731 H1711 0.950 . S
C1731 C1727 1.385 . S
C1731 C1730 1.374 . S
C1732 C1729 1.499 . S
C1732 C1733 1.373 . S
C1732 C1734 1.389 . S
C1733 H1712 0.950 . S
C1733 C1732 1.373 . S
C1733 C1749 1.377 1_455 S
C1734 C1732 1.389 . S
C1734 C1735 1.524 . S
C1734 C1748 1.377 1_455 S
C1735 C1734 1.524 . S
C1735 C1736 1.397 . S
C1735 C1740 1.363 . S
C1736 H1713 0.950 . S
C1736 C1735 1.397 . S
C1736 C1737 1.334 . S
C1737 H1714 0.950 . S
C1737 C1736 1.334 . S
C1737 C1738 1.287 . S
C1738 C1737 1.287 . S
C1738 C1739 1.524 . S
C1738 H1757 0.913 . S
C1739 H1715 0.950 . S
C1739 C1738 1.524 . S
C1739 C1740 1.415 . S
C1740 H1716 0.950 1_455 S
C1740 C1735 1.363 . S
C1740 C1739 1.415 . S
C1741 H1717 0.951 . S
C1741 C1742 1.366 . S
C1741 C1743 1.388 . S
C1742 C1741 1.366 . S
C1742 C1746 1.385 . S
C1743 H1718 0.951 . S
C1743 C1741 1.388 . S
C1743 C1744 1.366 . S
C1744 C1743 1.366 . S
C1744 C1745 1.414 . S
C1744 C1747 1.499 . S
C1745 H1719 0.950 . S
C1745 C1744 1.414 . S
C1745 C1746 1.374 . S
C1746 H1720 0.950 . S
C1746 C1742 1.385 . S
C1746 C1745 1.374 . S
C1747 C1744 1.499 . S
C1747 C1748 1.373 . S
C1747 C1749 1.389 . S
C1748 H1721 0.950 . S
C1748 C1734 1.377 1_655 S
C1748 C1747 1.373 . S
C1749 C1733 1.377 1_655 S
C1749 C1747 1.389 . S
C1749 C1750 1.524 . S
C1750 C1749 1.524 . S
C1750 C1751 1.397 . S
C1750 C1755 1.363 . S
C1751 H1722 0.950 . S
C1751 C1750 1.397 . S
C1751 C1752 1.334 . S
C1752 H1723 0.950 . S
C1752 C1751 1.334 . S
C1752 C1753 1.287 . S
C1753 C1752 1.287 . S
C1753 C1754 1.524 . S
C1753 H1756 0.999 . S
C1754 H1724 0.950 . S
C1754 C1753 1.524 . S
C1754 C1755 1.415 . S
C1755 H1725 0.950 1_655 S
C1755 C1750 1.363 . S
C1755 C1754 1.415 . S
H1756 C1753 0.999 . S
H1757 C1738 0.913 . S
H1758 C1776 0.951 . S
H1759 C1778 0.951 . S
H1760 C1780 0.950 . S
H1761 C1781 0.950 . S
H1762 C1783 0.950 . S
H1763 C1786 0.950 . S
H1764 C1787 0.950 . S
H1765 C1789 0.950 . S
H1766 C1790 0.950 . S
H1767 C1791 0.951 . S
H1768 C1793 0.951 . S
H1769 C1795 0.950 . S
H1770 C1796 0.950 . S
H1771 C1798 0.950 . S
H1772 C1801 0.950 . S
H1773 C1802 0.950 . S
H1774 C1804 0.950 . S
H1775 C1805 0.950 . S
C1776 H1758 0.951 . S
C1776 C1777 1.366 . S
C1776 C1778 1.388 . S
C1777 C1776 1.366 . S
C1777 C1781 1.385 . S
C1778 H1759 0.951 . S
C1778 C1776 1.388 . S
C1778 C1779 1.366 . S
C1779 C1778 1.366 . S
C1779 C1780 1.414 . S
C1779 C1782 1.499 . S
C1780 H1760 0.950 . S
C1780 C1779 1.414 . S
C1780 C1781 1.374 . S
C1781 H1761 0.950 . S
C1781 C1777 1.385 . S
C1781 C1780 1.374 . S
C1782 C1779 1.499 . S
C1782 C1783 1.373 . S
C1782 C1784 1.389 . S
C1783 H1762 0.950 . S
C1783 C1782 1.373 . S
C1783 C1799 1.377 1_565 S
C1784 C1782 1.389 . S
C1784 C1785 1.524 . S
C1784 C1798 1.377 1_565 S
C1785 C1784 1.524 . S
C1785 C1786 1.397 . S
C1785 C1790 1.363 . S
C1786 H1763 0.950 . S
C1786 C1785 1.397 . S
C1786 C1787 1.334 . S
C1787 H1764 0.950 . S
C1787 C1786 1.334 . S
C1787 C1788 1.287 . S
C1788 C1787 1.287 . S
C1788 C1789 1.524 . S
C1788 H1807 0.913 . S
C1789 H1765 0.950 . S
C1789 C1788 1.524 . S
C1789 C1790 1.415 . S
C1790 H1766 0.950 . S
C1790 C1785 1.363 . S
C1790 C1789 1.415 . S
C1791 H1767 0.951 . S
C1791 C1792 1.366 . S
C1791 C1793 1.388 . S
C1792 C1791 1.366 . S
C1792 C1796 1.385 . S
C1793 H1768 0.951 . S
C1793 C1791 1.388 . S
C1793 C1794 1.366 . S
C1794 C1793 1.366 . S
C1794 C1795 1.414 . S
C1794 C1797 1.499 . S
C1795 H1769 0.950 . S
C1795 C1794 1.414 . S
C1795 C1796 1.374 . S
C1796 H1770 0.950 . S
C1796 C1792 1.385 . S
C1796 C1795 1.374 . S
C1797 C1794 1.499 . S
C1797 C1798 1.373 . S
C1797 C1799 1.389 . S
C1798 H1771 0.950 . S
C1798 C1784 1.377 1_545 S
C1798 C1797 1.373 . S
C1799 C1783 1.377 1_545 S
C1799 C1797 1.389 . S
C1799 C1800 1.524 . S
C1800 C1799 1.524 . S
C1800 C1801 1.397 . S
C1800 C1805 1.363 . S
C1801 H1772 0.950 . S
C1801 C1800 1.397 . S
C1801 C1802 1.334 . S
C1802 H1773 0.950 . S
C1802 C1801 1.334 . S
C1802 C1803 1.287 . S
C1803 C1802 1.287 . S
C1803 C1804 1.524 . S
C1803 H1806 0.999 . S
C1804 H1774 0.950 . S
C1804 C1803 1.524 . S
C1804 C1805 1.415 . S
C1805 H1775 0.950 . S
C1805 C1800 1.363 . S
C1805 C1804 1.415 . S
H1806 C1803 0.999 . S
H1807 C1788 0.913 . S
H1808 C1826 0.951 . S
H1809 C1828 0.951 . S
H1810 C1830 0.950 . S
H1811 C1831 0.950 . S
H1812 C1833 0.950 . S
H1813 C1836 0.950 . S
H1814 C1837 0.950 . S
H1815 C1839 0.950 . S
H1816 C1840 0.950 . S
H1817 C1841 0.951 . S
H1818 C1843 0.951 . S
H1819 C1845 0.950 . S
H1820 C1846 0.950 . S
H1821 C1848 0.950 . S
H1822 C1851 0.950 . S
H1823 C1852 0.950 . S
H1824 C1854 0.950 . S
H1825 C1855 0.950 . S
C1826 H1808 0.951 . S
C1826 C1827 1.366 . S
C1826 C1828 1.388 . S
C1827 C1826 1.366 . S
C1827 C1831 1.385 . S
C1828 H1809 0.951 . S
C1828 C1826 1.388 . S
C1828 C1829 1.366 . S
C1829 C1828 1.366 . S
C1829 C1830 1.414 . S
C1829 C1832 1.499 . S
C1830 H1810 0.950 . S
C1830 C1829 1.414 . S
C1830 C1831 1.374 . S
C1831 H1811 0.950 . S
C1831 C1827 1.385 . S
C1831 C1830 1.374 . S
C1832 C1829 1.499 . S
C1832 C1833 1.373 . S
C1832 C1834 1.389 . S
C1833 H1812 0.950 . S
C1833 C1832 1.373 . S
C1833 C1849 1.377 . S
C1834 C1832 1.389 . S
C1834 C1835 1.524 . S
C1834 C1848 1.377 . S
C1835 C1834 1.524 . S
C1835 C1836 1.397 . S
C1835 C1840 1.363 . S
C1836 H1813 0.950 . S
C1836 C1835 1.397 . S
C1836 C1837 1.334 . S
C1837 H1814 0.950 . S
C1837 C1836 1.334 . S
C1837 C1838 1.287 . S
C1838 C1837 1.287 . S
C1838 C1839 1.524 . S
C1838 H1857 0.913 . S
C1839 H1815 0.950 . S
C1839 C1838 1.524 . S
C1839 C1840 1.415 . S
C1840 H1816 0.950 . S
C1840 C1835 1.363 . S
C1840 C1839 1.415 . S
C1841 H1817 0.951 . S
C1841 C1842 1.366 . S
C1841 C1843 1.388 . S
C1842 C1841 1.366 . S
C1842 C1846 1.385 . S
C1843 H1818 0.951 . S
C1843 C1841 1.388 . S
C1843 C1844 1.366 . S
C1844 C1843 1.366 . S
C1844 C1845 1.414 . S
C1844 C1847 1.499 . S
C1845 H1819 0.950 . S
C1845 C1844 1.414 . S
C1845 C1846 1.374 . S
C1846 H1820 0.950 . S
C1846 C1842 1.385 . S
C1846 C1845 1.374 . S
C1847 C1844 1.499 . S
C1847 C1848 1.373 . S
C1847 C1849 1.389 . S
C1848 H1821 0.950 . S
C1848 C1834 1.377 . S
C1848 C1847 1.373 . S
C1849 C1833 1.377 . S
C1849 C1847 1.389 . S
C1849 C1850 1.524 . S
C1850 C1849 1.524 . S
C1850 C1851 1.397 . S
C1850 C1855 1.363 . S
C1851 H1822 0.950 . S
C1851 C1850 1.397 . S
C1851 C1852 1.334 . S
C1852 H1823 0.950 . S
C1852 C1851 1.334 . S
C1852 C1853 1.287 . S
C1853 C1852 1.287 . S
C1853 C1854 1.524 . S
C1853 H1856 0.999 . S
C1854 H1824 0.950 . S
C1854 C1853 1.524 . S
C1854 C1855 1.415 . S
C1855 H1825 0.950 . S
C1855 C1850 1.363 . S
C1855 C1854 1.415 . S
H1856 C1853 0.999 . S
H1857 C1838 0.913 . S
H1858 C1876 0.951 . S
H1859 C1878 0.951 . S
H1860 C1880 0.950 . S
H1861 C1881 0.950 . S
H1862 C1883 0.950 . S
H1863 C1886 0.950 . S
H1864 C1887 0.950 . S
H1865 C1889 0.950 . S
H1866 C1890 0.950 . S
H1867 C1891 0.951 . S
H1868 C1893 0.951 . S
H1869 C1895 0.950 . S
H1870 C1896 0.950 . S
H1871 C1898 0.950 . S
H1872 C1901 0.950 . S
H1873 C1902 0.950 . S
H1874 C1904 0.950 . S
H1875 C1905 0.950 . S
C1876 H1858 0.951 . S
C1876 C1877 1.366 . S
C1876 C1878 1.388 . S
C1877 C1876 1.366 . S
C1877 C1881 1.385 . S
C1878 H1859 0.951 . S
C1878 C1876 1.388 . S
C1878 C1879 1.366 . S
C1879 C1878 1.366 . S
C1879 C1880 1.414 . S
C1879 C1882 1.499 . S
C1880 H1860 0.950 . S
C1880 C1879 1.414 . S
C1880 C1881 1.374 . S
C1881 H1861 0.950 . S
C1881 C1877 1.385 . S
C1881 C1880 1.374 . S
C1882 C1879 1.499 . S
C1882 C1883 1.373 . S
C1882 C1884 1.389 . S
C1883 H1862 0.950 . S
C1883 C1882 1.373 . S
C1883 C1899 1.377 1_455 S
C1884 C1882 1.389 . S
C1884 C1885 1.524 . S
C1884 C1898 1.377 1_455 S
C1885 C1884 1.524 . S
C1885 C1886 1.397 . S
C1885 C1890 1.363 . S
C1886 H1863 0.950 . S
C1886 C1885 1.397 . S
C1886 C1887 1.334 . S
C1887 H1864 0.950 . S
C1887 C1886 1.334 . S
C1887 C1888 1.287 . S
C1888 C1887 1.287 . S
C1888 C1889 1.524 . S
C1888 H1907 0.913 . S
C1889 H1865 0.950 . S
C1889 C1888 1.524 . S
C1889 C1890 1.415 . S
C1890 H1866 0.950 . S
C1890 C1885 1.363 . S
C1890 C1889 1.415 . S
C1891 H1867 0.951 . S
C1891 C1892 1.366 . S
C1891 C1893 1.388 . S
C1892 C1891 1.366 . S
C1892 C1896 1.385 . S
C1893 H1868 0.951 . S
C1893 C1891 1.388 . S
C1893 C1894 1.366 . S
C1894 C1893 1.366 . S
C1894 C1895 1.414 . S
C1894 C1897 1.499 . S
C1895 H1869 0.950 . S
C1895 C1894 1.414 . S
C1895 C1896 1.374 . S
C1896 H1870 0.950 . S
C1896 C1892 1.385 . S
C1896 C1895 1.374 . S
C1897 C1894 1.499 . S
C1897 C1898 1.373 . S
C1897 C1899 1.389 . S
C1898 H1871 0.950 . S
C1898 C1884 1.377 1_655 S
C1898 C1897 1.373 . S
C1899 C1883 1.377 1_655 S
C1899 C1897 1.389 . S
C1899 C1900 1.524 . S
C1900 C1899 1.524 . S
C1900 C1901 1.397 . S
C1900 C1905 1.363 . S
C1901 H1872 0.950 . S
C1901 C1900 1.397 . S
C1901 C1902 1.334 . S
C1902 H1873 0.950 . S
C1902 C1901 1.334 . S
C1902 C1903 1.287 1_556 S
C1903 C1902 1.287 1_554 S
C1903 C1904 1.524 . S
C1903 H1906 0.999 . S
C1904 H1874 0.950 . S
C1904 C1903 1.524 . S
C1904 C1905 1.415 1_554 S
C1905 H1875 0.950 . S
C1905 C1900 1.363 . S
C1905 C1904 1.415 1_556 S
H1906 C1903 0.999 . S
H1907 C1888 0.913 . S
C427 C292 1.514 . S
C442 C20 1.514 . S
C477 C326 1.514 . S
C492 C54 1.514 . S
C527 C360 1.513 . S
C542 C88 1.514 . S
C577 C394 1.514 . S
C592 C122 1.514 . S
C627 C156 1.514 . S
C642 C224 1.514 . S
C677 C258 1.513 . S
C692 C190 1.514 . S
C727 C9 1.122 . S
C742 C5 1.147 . S
C777 C39 1.147 . S
C792 C43 1.123 1_556 S
C827 C73 1.147 . S
C842 C77 1.123 . S
C877 C107 1.147 . S
C892 C111 1.122 . S
C927 C141 1.147 . S
C942 C145 1.123 . S
C977 C175 1.147 . S
C992 C179 1.122 . S
C1027 C213 1.122 1_554 S
C1042 C209 1.147 . S
C1077 C243 1.147 . S
C1092 C247 1.123 . S
C1127 C281 1.123 . S
C1142 C277 1.147 . S
C1177 C315 1.122 . S
C1192 C311 1.147 . S
C1227 C349 1.122 . S
C1242 C345 1.147 . S
C1277 C379 1.147 . S
C1292 C383 1.122 . S
C1327 C33 1.598 . S
C1342 C373 1.598 . S
C1377 C67 1.598 . S
C1392 C407 1.598 . S
C1427 C101 1.598 . S
C1442 C237 1.598 . S
C1477 C271 1.598 . S
C1492 C135 1.598 . S
C1527 C305 1.598 . S
C1542 C169 1.598 . S
C1577 C339 1.598 . S
C1592 C203 1.598 . S
C1627 C2 1.550 . S
C1642 C240 1.550 . S
C1677 C274 1.550 . S
C1692 C36 1.550 . S
C1727 C308 1.550 . S
C1742 C70 1.550 . S
C1777 C104 1.550 . S
C1792 C342 1.550 . S
C1827 C376 1.551 . S
C1842 C138 1.551 . S
C1877 C172 1.550 . S
C1892 C206 1.550 . S
