# Generated by pormake.
# Topology wgs, (5)-cn, num edge types: 1
# Building blocks:
#     Node 0, Type 0, BuildingBlock: BEQFEK_clean_sbu_0, # of connection points: 5
#     Node 1, Type 0, BuildingBlock: BEQFEK_clean_sbu_0, # of connection points: 5
#     Node 2, Type 0, BuildingBlock: BEQFEK_clean_sbu_0, # of connection points: 5
#     Node 3, Type 0, BuildingBlock: BEQFEK_clean_sbu_0, # of connection points: 5
#     Node 4, Type 0, BuildingBlock: BEQFEK_clean_sbu_0, # of connection points: 5
#     Node 5, Type 0, BuildingBlock: BEQFEK_clean_sbu_0, # of connection points: 5
#     Node 6, Type 0, BuildingBlock: BEQFEK_clean_sbu_0, # of connection points: 5
#     Node 7, Type 0, BuildingBlock: BEQFEK_clean_sbu_0, # of connection points: 5
#     Node 8, Type 0, BuildingBlock: BEQFEK_clean_sbu_0, # of connection points: 5
#     Node 9, Type 0, BuildingBlock: BEQFEK_clean_sbu_0, # of connection points: 5
#     Node 10, Type 0, BuildingBlock: BEQFEK_clean_sbu_0, # of connection points: 5
#     Node 11, Type 0, BuildingBlock: BEQFEK_clean_sbu_0, # of connection points: 5
#     Node 12, Type 0, BuildingBlock: BEQFEK_clean_sbu_0, # of connection points: 5
#     Node 13, Type 0, BuildingBlock: BEQFEK_clean_sbu_0, # of connection points: 5
#     Node 14, Type 0, BuildingBlock: BEQFEK_clean_sbu_0, # of connection points: 5
#     Node 15, Type 0, BuildingBlock: BEQFEK_clean_sbu_0, # of connection points: 5
#     Node 16, Type 0, BuildingBlock: BEQFEK_clean_sbu_0, # of connection points: 5
#     Node 17, Type 0, BuildingBlock: BEQFEK_clean_sbu_0, # of connection points: 5
#     Node 18, Type 0, BuildingBlock: BEQFEK_clean_sbu_0, # of connection points: 5
#     Node 19, Type 0, BuildingBlock: BEQFEK_clean_sbu_0, # of connection points: 5
#     Node 20, Type 0, BuildingBlock: BEQFEK_clean_sbu_0, # of connection points: 5
#     Node 21, Type 0, BuildingBlock: BEQFEK_clean_sbu_0, # of connection points: 5
#     Node 22, Type 0, BuildingBlock: BEQFEK_clean_sbu_0, # of connection points: 5
#     Node 23, Type 0, BuildingBlock: BEQFEK_clean_sbu_0, # of connection points: 5
#     Node 24, Type 0, BuildingBlock: BEQFEK_clean_sbu_0, # of connection points: 5
#     Node 25, Type 0, BuildingBlock: BEQFEK_clean_sbu_0, # of connection points: 5
#     Node 26, Type 0, BuildingBlock: BEQFEK_clean_sbu_0, # of connection points: 5
#     Node 27, Type 0, BuildingBlock: BEQFEK_clean_sbu_0, # of connection points: 5
#     Node 28, Type 0, BuildingBlock: BEQFEK_clean_sbu_0, # of connection points: 5
#     Node 29, Type 0, BuildingBlock: BEQFEK_clean_sbu_0, # of connection points: 5
#     Node 30, Type 0, BuildingBlock: BEQFEK_clean_sbu_0, # of connection points: 5
#     Node 31, Type 0, BuildingBlock: BEQFEK_clean_sbu_0, # of connection points: 5
#     Edge 32, Type (0, 0), BuildingBlock: CIFDUS_clean_linker_0, # of connection points: 2
#     Edge 33, Type (0, 0), BuildingBlock: CIFDUS_clean_linker_0, # of connection points: 2
#     Edge 34, Type (0, 0), BuildingBlock: CIFDUS_clean_linker_0, # of connection points: 2
#     Edge 35, Type (0, 0), BuildingBlock: CIFDUS_clean_linker_0, # of connection points: 2
#     Edge 36, Type (0, 0), BuildingBlock: CIFDUS_clean_linker_0, # of connection points: 2
#     Edge 37, Type (0, 0), BuildingBlock: CIFDUS_clean_linker_0, # of connection points: 2
#     Edge 38, Type (0, 0), BuildingBlock: CIFDUS_clean_linker_0, # of connection points: 2
#     Edge 39, Type (0, 0), BuildingBlock: CIFDUS_clean_linker_0, # of connection points: 2
#     Edge 40, Type (0, 0), BuildingBlock: CIFDUS_clean_linker_0, # of connection points: 2
#     Edge 41, Type (0, 0), BuildingBlock: CIFDUS_clean_linker_0, # of connection points: 2
#     Edge 42, Type (0, 0), BuildingBlock: CIFDUS_clean_linker_0, # of connection points: 2
#     Edge 43, Type (0, 0), BuildingBlock: CIFDUS_clean_linker_0, # of connection points: 2
#     Edge 44, Type (0, 0), BuildingBlock: CIFDUS_clean_linker_0, # of connection points: 2
#     Edge 45, Type (0, 0), BuildingBlock: CIFDUS_clean_linker_0, # of connection points: 2
#     Edge 46, Type (0, 0), BuildingBlock: CIFDUS_clean_linker_0, # of connection points: 2
#     Edge 47, Type (0, 0), BuildingBlock: CIFDUS_clean_linker_0, # of connection points: 2
#     Edge 48, Type (0, 0), BuildingBlock: CIFDUS_clean_linker_0, # of connection points: 2
#     Edge 49, Type (0, 0), BuildingBlock: CIFDUS_clean_linker_0, # of connection points: 2
#     Edge 50, Type (0, 0), BuildingBlock: CIFDUS_clean_linker_0, # of connection points: 2
#     Edge 51, Type (0, 0), BuildingBlock: CIFDUS_clean_linker_0, # of connection points: 2
#     Edge 52, Type (0, 0), BuildingBlock: CIFDUS_clean_linker_0, # of connection points: 2
#     Edge 53, Type (0, 0), BuildingBlock: CIFDUS_clean_linker_0, # of connection points: 2
#     Edge 54, Type (0, 0), BuildingBlock: CIFDUS_clean_linker_0, # of connection points: 2
#     Edge 55, Type (0, 0), BuildingBlock: CIFDUS_clean_linker_0, # of connection points: 2
#     Edge 56, Type (0, 0), BuildingBlock: CIFDUS_clean_linker_0, # of connection points: 2
#     Edge 57, Type (0, 0), BuildingBlock: CIFDUS_clean_linker_0, # of connection points: 2
#     Edge 58, Type (0, 0), BuildingBlock: CIFDUS_clean_linker_0, # of connection points: 2
#     Edge 59, Type (0, 0), BuildingBlock: CIFDUS_clean_linker_0, # of connection points: 2
#     Edge 60, Type (0, 0), BuildingBlock: CIFDUS_clean_linker_0, # of connection points: 2
#     Edge 61, Type (0, 0), BuildingBlock: CIFDUS_clean_linker_0, # of connection points: 2
#     Edge 62, Type (0, 0), BuildingBlock: CIFDUS_clean_linker_0, # of connection points: 2
#     Edge 63, Type (0, 0), BuildingBlock: CIFDUS_clean_linker_0, # of connection points: 2
#     Edge 64, Type (0, 0), BuildingBlock: CIFDUS_clean_linker_0, # of connection points: 2
#     Edge 65, Type (0, 0), BuildingBlock: CIFDUS_clean_linker_0, # of connection points: 2
#     Edge 66, Type (0, 0), BuildingBlock: CIFDUS_clean_linker_0, # of connection points: 2
#     Edge 67, Type (0, 0), BuildingBlock: CIFDUS_clean_linker_0, # of connection points: 2
#     Edge 68, Type (0, 0), BuildingBlock: CIFDUS_clean_linker_0, # of connection points: 2
#     Edge 69, Type (0, 0), BuildingBlock: CIFDUS_clean_linker_0, # of connection points: 2
#     Edge 70, Type (0, 0), BuildingBlock: CIFDUS_clean_linker_0, # of connection points: 2
#     Edge 71, Type (0, 0), BuildingBlock: CIFDUS_clean_linker_0, # of connection points: 2
#     Edge 72, Type (0, 0), BuildingBlock: CIFDUS_clean_linker_0, # of connection points: 2
#     Edge 73, Type (0, 0), BuildingBlock: CIFDUS_clean_linker_0, # of connection points: 2
#     Edge 74, Type (0, 0), BuildingBlock: CIFDUS_clean_linker_0, # of connection points: 2
#     Edge 75, Type (0, 0), BuildingBlock: CIFDUS_clean_linker_0, # of connection points: 2
#     Edge 76, Type (0, 0), BuildingBlock: CIFDUS_clean_linker_0, # of connection points: 2
#     Edge 77, Type (0, 0), BuildingBlock: CIFDUS_clean_linker_0, # of connection points: 2
#     Edge 78, Type (0, 0), BuildingBlock: CIFDUS_clean_linker_0, # of connection points: 2
#     Edge 79, Type (0, 0), BuildingBlock: CIFDUS_clean_linker_0, # of connection points: 2
#     Edge 80, Type (0, 0), BuildingBlock: CIFDUS_clean_linker_0, # of connection points: 2
#     Edge 81, Type (0, 0), BuildingBlock: CIFDUS_clean_linker_0, # of connection points: 2
#     Edge 82, Type (0, 0), BuildingBlock: CIFDUS_clean_linker_0, # of connection points: 2
#     Edge 83, Type (0, 0), BuildingBlock: CIFDUS_clean_linker_0, # of connection points: 2
#     Edge 84, Type (0, 0), BuildingBlock: CIFDUS_clean_linker_0, # of connection points: 2
#     Edge 85, Type (0, 0), BuildingBlock: CIFDUS_clean_linker_0, # of connection points: 2
#     Edge 86, Type (0, 0), BuildingBlock: CIFDUS_clean_linker_0, # of connection points: 2
#     Edge 87, Type (0, 0), BuildingBlock: CIFDUS_clean_linker_0, # of connection points: 2
#     Edge 88, Type (0, 0), BuildingBlock: CIFDUS_clean_linker_0, # of connection points: 2
#     Edge 89, Type (0, 0), BuildingBlock: CIFDUS_clean_linker_0, # of connection points: 2
#     Edge 90, Type (0, 0), BuildingBlock: CIFDUS_clean_linker_0, # of connection points: 2
#     Edge 91, Type (0, 0), BuildingBlock: CIFDUS_clean_linker_0, # of connection points: 2
#     Edge 92, Type (0, 0), BuildingBlock: CIFDUS_clean_linker_0, # of connection points: 2
#     Edge 93, Type (0, 0), BuildingBlock: CIFDUS_clean_linker_0, # of connection points: 2
#     Edge 94, Type (0, 0), BuildingBlock: CIFDUS_clean_linker_0, # of connection points: 2
#     Edge 95, Type (0, 0), BuildingBlock: CIFDUS_clean_linker_0, # of connection points: 2
#     Edge 96, Type (0, 0), BuildingBlock: CIFDUS_clean_linker_0, # of connection points: 2
#     Edge 97, Type (0, 0), BuildingBlock: CIFDUS_clean_linker_0, # of connection points: 2
#     Edge 98, Type (0, 0), BuildingBlock: CIFDUS_clean_linker_0, # of connection points: 2
#     Edge 99, Type (0, 0), BuildingBlock: CIFDUS_clean_linker_0, # of connection points: 2
#     Edge 100, Type (0, 0), BuildingBlock: CIFDUS_clean_linker_0, # of connection points: 2
#     Edge 101, Type (0, 0), BuildingBlock: CIFDUS_clean_linker_0, # of connection points: 2
#     Edge 102, Type (0, 0), BuildingBlock: CIFDUS_clean_linker_0, # of connection points: 2
#     Edge 103, Type (0, 0), BuildingBlock: CIFDUS_clean_linker_0, # of connection points: 2
#     Edge 104, Type (0, 0), BuildingBlock: CIFDUS_clean_linker_0, # of connection points: 2
#     Edge 105, Type (0, 0), BuildingBlock: CIFDUS_clean_linker_0, # of connection points: 2
#     Edge 106, Type (0, 0), BuildingBlock: CIFDUS_clean_linker_0, # of connection points: 2
#     Edge 107, Type (0, 0), BuildingBlock: CIFDUS_clean_linker_0, # of connection points: 2
#     Edge 108, Type (0, 0), BuildingBlock: CIFDUS_clean_linker_0, # of connection points: 2
#     Edge 109, Type (0, 0), BuildingBlock: CIFDUS_clean_linker_0, # of connection points: 2
#     Edge 110, Type (0, 0), BuildingBlock: CIFDUS_clean_linker_0, # of connection points: 2
#     Edge 111, Type (0, 0), BuildingBlock: CIFDUS_clean_linker_0, # of connection points: 2
# Relax obj value: 0.102
# Max RMSD: 0.159
# Mean RMSD: 0.159
data_MOF--net-wgs--node1-BEQFEK_clean_sbu_0--edge1-CIFDUS_clean_linker_0
_symmetry_space_group_name_H-M    P1
_symmetry_Int_Tables_number       1
_symmetry_cell_setting            triclinic
loop_
_symmetry_equiv_pos_as_xyz
'x, y, z'
_cell_length_a     25.572128
_cell_length_b     25.581002
_cell_length_c     139.92855
_cell_angle_alpha  89.967345
_cell_angle_beta   89.972329
_cell_angle_gamma 90.062072
loop_
_atom_site_label
_atom_site_type_symbol
_atom_site_fract_x
_atom_site_fract_y
_atom_site_fract_z
_atom_type_partial_charge
Co0 Co 0.32527 0.08632 0.32874 0.0
Co1 Co 0.32398 0.06636 0.30666 0.0
C2 C 0.40307 0.13591 0.31519 0.0
O3 O 0.38249 0.1295 0.32342 0.0
O4 O 0.38708 0.11087 0.30787 0.0
C5 C 0.36022 0.09149 0.34883 0.0
O6 O 0.40862 0.08462 0.34597 0.0
C7 C 0.34744 0.0333 0.28684 0.0
C8 C 0.26688 0.02243 0.28144 0.0
C9 C 0.31897 0.01844 0.27886 0.0
N10 N 0.31344 0.04495 0.29386 0.0
N11 N 0.26545 0.03888 0.29054 0.0
C12 C 0.40553 0.03425 0.28799 0.0
H13 H 0.42031 0.07353 0.28596 0.0
H14 H 0.41622 0.02691 0.29556 0.0
H15 H 0.42422 0.00474 0.28328 0.0
C16 C 0.33491 0.97013 0.32878 0.0
N17 N 0.32977 0.01644 0.3243 0.0
N18 N 0.32583 0.00825 0.31505 0.0
C19 C 0.32598 0.95645 0.31336 0.0
C20 C 0.33265 0.93031 0.32201 0.0
C21 C 0.34446 0.9648 0.33929 0.0
H22 H 0.37647 0.9915 0.3414 0.0
H23 H 0.35593 0.92449 0.3413 0.0
H24 H 0.30873 0.97639 0.34326 0.0
O25 O 0.25995 0.12161 0.32486 0.0
O26 O 0.26529 0.11299 0.3092 0.0
H27 H 0.30149 0.89159 0.30431 0.0
H28 H 0.34845 0.93628 0.29909 0.0
C29 C 0.31369 0.93302 0.3038 0.0
H30 H 0.28098 0.9546 0.30049 0.0
H31 H 0.23166 0.0453 0.29455 0.0
O32 O 0.32298 0.0917 0.34285 0.0
C33 C 0.24339 0.13213 0.31653 0.0
Co34 Co 0.17293 0.09657 0.5815 0.0
Co35 Co 0.17989 0.1033 0.55904 0.0
C36 C 0.11941 0.18067 0.56931 0.0
O37 O 0.12865 0.15736 0.57722 0.0
O38 O 0.13991 0.16573 0.5615 0.0
C39 C 0.19308 0.13065 0.60125 0.0
O40 O 0.21589 0.17217 0.5976 0.0
C41 C 0.2002 0.1295 0.53853 0.0
C42 C 0.20116 0.04995 0.5324 0.0
C43 C 0.20543 0.10222 0.53004 0.0
N44 N 0.19292 0.0947 0.54565 0.0
N45 N 0.19337 0.04731 0.54189 0.0
C46 C 0.19987 0.1876 0.53971 0.0
H47 H 0.16538 0.204 0.53595 0.0
H48 H 0.19829 0.19863 0.54736 0.0
H49 H 0.23533 0.20464 0.53635 0.0
C50 C 0.28935 0.09226 0.57895 0.0
N51 N 0.24012 0.09682 0.5756 0.0
N52 N 0.24203 0.10404 0.5663 0.0
C53 C 0.29211 0.10781 0.56352 0.0
C54 C 0.32427 0.09919 0.57138 0.0
C55 C 0.30201 0.07666 0.589 0.0
H56 H 0.26837 0.05605 0.59229 0.0
H57 H 0.31064 0.11223 0.59325 0.0
H58 H 0.33678 0.05077 0.58918 0.0
O59 O 0.13372 0.03367 0.57814 0.0
O60 O 0.13272 0.04463 0.56246 0.0
H61 H 0.30417 0.09044 0.54871 0.0
H62 H 0.34885 0.13903 0.55347 0.0
C63 C 0.30813 0.12408 0.55366 0.0
H64 H 0.28207 0.15568 0.55116 0.0
H65 H 0.1883 0.013 0.54582 0.0
O66 O 0.17507 0.09571 0.5957 0.0
C67 C 0.11775 0.02035 0.56991 0.0
Co68 Co 0.15662 0.92792 0.83112 0.0
Co69 Co 0.18105 0.93582 0.80911 0.0
C70 C 0.08957 0.87534 0.81644 0.0
O71 O 0.10103 0.88744 0.82501 0.0
O72 O 0.11555 0.89315 0.80935 0.0
C73 C 0.14 0.88534 0.849 0.0
O74 O 0.13659 0.84396 0.84347 0.0
C75 C 0.17062 0.96583 0.78874 0.0
C76 C 0.25318 0.96185 0.78414 0.0
C77 C 0.20326 0.97305 0.78087 0.0
N78 N 0.2002 0.95122 0.79623 0.0
N79 N 0.24941 0.94873 0.79341 0.0
C80 C 0.11308 0.97546 0.78939 0.0
H81 H 0.09188 0.93983 0.78705 0.0
H82 H 0.10176 0.98389 0.79689 0.0
H83 H 0.10155 0.00848 0.78469 0.0
C84 C 0.15731 0.04207 0.82946 0.0
N85 N 0.16224 0.99427 0.82561 0.0
N86 N 0.17483 -0.00154 0.81652 0.0
C87 C 0.18005 0.04962 0.81437 0.0
C88 C 0.16869 0.0791 0.8225 0.0
C89 C 0.14043 0.05147 0.83955 0.0
H90 H 0.10923 0.02331 0.84153 0.0
H91 H 0.12563 0.09187 0.84054 0.0
H92 H 0.17415 0.04491 0.8444 0.0
O93 O 0.22006 0.88622 0.82952 0.0
O94 O 0.23603 0.88797 0.81399 0.0
H95 H 0.2318 0.04322 0.80237 0.0
H96 H 0.2166 0.10939 0.80561 0.0
C97 C 0.20043 0.06932 0.805 0.0
H98 H 0.16823 0.06938 0.79969 0.0
H99 H 0.28054 0.93846 0.79784 0.0
O100 O 0.1463 0.92992 0.84515 0.0
C101 C 0.24626 0.87104 0.82233 0.0
Co102 Co 0.30479 0.89721 0.08134 0.0
Co103 Co 0.30147 0.90424 0.05903 0.0
C104 C 0.35961 0.8196 0.06908 0.0
O105 O 0.34625 0.83771 0.07716 0.0
O106 O 0.34415 0.84048 0.06132 0.0
C107 C 0.30045 0.84772 0.09954 0.0
O108 O 0.30057 0.80465 0.09443 0.0
C109 C 0.26951 0.87771 0.03944 0.0
C110 C 0.30613 0.94222 0.03131 0.0
C111 C 0.27734 0.89676 0.03028 0.0
N112 N 0.29279 0.91053 0.04562 0.0
N113 N 0.3146 0.94896 0.04071 0.0
C114 C 0.24438 0.82714 0.04222 0.0
H115 H 0.24797 0.82044 0.05003 0.0
H116 H 0.20246 0.82758 0.04022 0.0
H117 H 0.26313 0.79458 0.03826 0.0
C118 C 0.19032 0.89723 0.07875 0.0
N119 N 0.23905 0.89779 0.07516 0.0
N120 N 0.23692 0.90468 0.06585 0.0
C121 C 0.18657 0.91203 0.06329 0.0
C122 C 0.1551 0.90704 0.07139 0.0
C123 C 0.17827 0.88556 0.089 0.0
H124 H 0.18866 0.9199 0.09346 0.0
H125 H 0.20217 0.852 0.09141 0.0
H126 H 0.13647 0.87551 0.09006 0.0
O127 O 0.34743 0.96083 0.07873 0.0
O128 O 0.34559 0.96291 0.06291 0.0
H129 H 0.2024 0.95124 0.04998 0.0
H130 H 0.1362 0.95794 0.05421 0.0
C131 C 0.16985 0.93078 0.05363 0.0
H132 H 0.15758 0.89685 0.04924 0.0
H133 H 0.33595 0.97944 0.04376 0.0
O134 O 0.29898 0.89176 0.09534 0.0
C135 C 0.36175 0.98101 0.07084 0.0
Co136 Co 0.34815 0.92109 0.17399 0.0
Co137 Co 0.33502 0.93596 0.19598 0.0
C138 C 0.42153 0.87235 0.18832 0.0
O139 O 0.40477 0.88049 0.17987 0.0
O140 O 0.40081 0.89455 0.19555 0.0
C141 C 0.34932 0.8811 0.1554 0.0
O142 O 0.34039 0.83745 0.16009 0.0
C143 C 0.34284 0.95089 0.21684 0.0
C144 C 0.25914 0.96248 0.22026 0.0
C145 C 0.308 0.95687 0.22436 0.0
N146 N 0.31542 0.95272 0.20865 0.0
N147 N 0.26561 0.96012 0.21075 0.0
C148 C 0.39949 0.93683 0.21739 0.0
H149 H 0.40366 0.89408 0.21629 0.0
H150 H 0.42132 0.95696 0.2116 0.0
H151 H 0.41644 0.9471 0.22444 0.0
C152 C 0.34586 0.03604 0.17452 0.0
N153 N 0.34531 0.98944 0.17894 0.0
N154 N 0.33726 0.99637 0.18812 0.0
C155 C 0.33042 0.04782 0.18982 0.0
C156 C 0.3356 0.07495 0.1812 0.0
C157 C 0.35651 0.0427 0.16406 0.0
H158 H 0.39004 0.01777 0.16195 0.0
H159 H 0.36576 0.08393 0.16225 0.0
H160 H 0.3218 0.02978 0.15993 0.0
O161 O 0.28349 0.88029 0.17621 0.0
O162 O 0.28096 0.88628 0.19194 0.0
H163 H 0.27478 0.05047 0.20116 0.0
H164 H 0.30715 0.11162 0.19925 0.0
C165 C 0.31268 0.06877 0.19927 0.0
H166 H 0.34144 0.0579 0.20486 0.0
H167 H 0.23568 0.96125 0.20569 0.0
O168 O 0.35678 0.92298 0.16007 0.0
C169 C 0.2639 0.86697 0.18419 0.0
Co170 Co 0.30295 0.07249 0.42466 0.0
Co171 Co 0.29898 0.07767 0.44717 0.0
C172 C 0.35346 0.15892 0.43496 0.0
O173 O 0.3397 0.13784 0.42714 0.0
O174 O 0.33969 0.14018 0.44304 0.0
C175 C 0.30247 0.09975 0.40471 0.0
O176 O 0.30259 0.14807 0.40789 0.0
C177 C 0.26299 0.11184 0.46652 0.0
C178 C 0.30764 0.05653 0.47549 0.0
C179 C 0.27291 0.09777 0.47592 0.0
N180 N 0.29085 0.08012 0.46076 0.0
N181 N 0.31757 0.04743 0.46621 0.0
C182 C 0.23087 0.15697 0.46314 0.0
H183 H 0.22785 0.15704 0.45523 0.0
H184 H 0.19135 0.15534 0.46641 0.0
H185 H 0.24948 0.19392 0.46554 0.0
C186 C 0.18808 0.0724 0.42747 0.0
N187 N 0.23708 0.07225 0.43094 0.0
N188 N 0.23529 0.06934 0.44032 0.0
C189 C 0.18516 0.06323 0.44308 0.0
C190 C 0.15305 0.06609 0.43503 0.0
C191 C 0.17586 0.0826 0.41717 0.0
H192 H 0.17828 0.0454 0.41312 0.0
H193 H 0.20497 0.11009 0.41414 0.0
H194 H 0.1363 0.09972 0.41631 0.0
O195 O 0.35149 0.01632 0.42904 0.0
O196 O 0.34581 0.01932 0.44481 0.0
H197 H 0.20282 0.02963 0.45682 0.0
H198 H 0.13683 0.01866 0.45273 0.0
C199 C 0.16937 0.04737 0.45298 0.0
H200 H 0.15575 0.08209 0.45699 0.0
H201 H 0.34278 0.01875 0.46361 0.0
O202 O 0.29873 0.06219 0.41063 0.0
C203 C 0.36556 0.00034 0.43725 0.0
Co204 Co 0.17104 0.07832 0.67532 0.0
Co205 Co 0.17807 0.06597 0.69751 0.0
C206 C 0.10144 0.13545 0.69025 0.0
O207 O 0.1204 0.12674 0.68192 0.0
O208 O 0.11634 0.11009 0.6976 0.0
C209 C 0.12578 0.06599 0.65582 0.0
O210 O 0.08515 0.04206 0.65956 0.0
C211 C 0.17993 0.05108 0.71866 0.0
C212 C 0.2559 0.01054 0.72005 0.0
C213 C 0.21476 0.03068 0.72531 0.0
N214 N 0.19993 0.04323 0.70987 0.0
N215 N 0.24502 0.01857 0.71078 0.0
C216 C 0.13105 0.08134 0.72056 0.0
H217 H 0.13471 0.12085 0.71735 0.0
H218 H 0.09762 0.06157 0.71702 0.0
H219 H 0.12319 0.08509 0.72833 0.0
C220 C 0.16368 0.96256 0.67649 0.0
N221 N 0.16723 0.01059 0.68035 0.0
N222 N 0.16503 0.00681 0.68968 0.0
C223 C 0.15532 0.95696 0.6921 0.0
C224 C 0.15542 0.92635 0.68382 0.0
C225 C 0.17454 0.95174 0.66616 0.0
H226 H 0.19604 0.98486 0.66288 0.0
H227 H 0.13704 0.94634 0.6623 0.0
H228 H 0.19827 0.91573 0.66535 0.0
O229 O 0.23988 0.10677 0.67734 0.0
O230 O 0.23498 0.11451 0.69303 0.0
H231 H 0.1774 0.93289 0.70619 0.0
H232 H 0.11621 0.90536 0.70205 0.0
C233 C 0.14123 0.94084 0.70207 0.0
H234 H 0.12006 0.97305 0.7057 0.0
H235 H 0.26908 0.00847 0.70505 0.0
O236 O 0.16239 0.08192 0.66122 0.0
C237 C 0.25628 0.12627 0.68509 0.0
Co238 Co 0.18557 0.91462 0.92524 0.0
Co239 Co 0.18485 0.91049 0.94772 0.0
C240 C 0.1285 0.8311 0.93572 0.0
O241 O 0.14337 0.85253 0.92799 0.0
O242 O 0.14264 0.84859 0.94385 0.0
C243 C 0.18169 0.88396 0.90555 0.0
O244 O 0.16595 0.83939 0.90922 0.0
C245 C 0.21426 0.8765 0.96723 0.0
C246 C 0.17477 0.93748 0.97578 0.0
C247 C 0.20485 0.8928 0.97652 0.0
N248 N 0.1906 0.91024 0.96126 0.0
N249 N 0.16694 0.94638 0.96644 0.0
C250 C 0.24159 0.82778 0.96411 0.0
H251 H 0.22066 0.79329 0.96704 0.0
H252 H 0.24276 0.82524 0.95619 0.0
H253 H 0.28193 0.82694 0.967 0.0
C254 C 0.29969 0.90806 0.92883 0.0
N255 N 0.25011 0.91093 0.93197 0.0
N256 N 0.25023 0.91458 0.94134 0.0
C257 C 0.29999 0.91874 0.94442 0.0
C258 C 0.33361 0.91373 0.9366 0.0
C259 C 0.31313 0.89599 0.91865 0.0
H260 H 0.31388 0.93282 0.91445 0.0
H261 H 0.28283 0.87015 0.91551 0.0
H262 H 0.35164 0.87627 0.9181 0.0
O263 O 0.14122 0.97582 0.92896 0.0
O264 O 0.14225 0.97091 0.94474 0.0
H265 H 0.28103 0.95509 0.95786 0.0
H266 H 0.34837 0.96173 0.9543 0.0
C267 C 0.31425 0.9349 0.95437 0.0
H268 H 0.32463 0.89989 0.95863 0.0
H269 H 0.14532 0.97725 0.9636 0.0
O270 O 0.19513 0.92084 0.91113 0.0
C271 C 0.12644 0.99243 0.93711 0.0
Co272 Co 0.67411 0.93525 0.67382 0.0
Co273 Co 0.68433 0.93224 0.69601 0.0
C274 C 0.60132 0.87234 0.68471 0.0
O275 O 0.6135 0.89035 0.67652 0.0
O276 O 0.62587 0.88597 0.69222 0.0
C277 C 0.65185 0.94013 0.65332 0.0
O278 O 0.60269 0.93132 0.65553 0.0
C279 C 0.64048 0.95881 0.71454 0.0
C280 C 0.69964 0.92622 0.72439 0.0
C281 C 0.65202 0.95192 0.72411 0.0
N282 N 0.6796 0.93813 0.70939 0.0
N283 N 0.71469 0.91839 0.7153 0.0
C284 C 0.59146 0.98098 0.71034 0.0
H285 H 0.58834 0.97088 0.70265 0.0
H286 H 0.59162 0.02411 0.71105 0.0
H287 H 0.5569 0.96593 0.71428 0.0
C288 C 0.66345 0.04864 0.67796 0.0
N289 N 0.67051 -0.00117 0.68074 0.0
N290 N 0.68018 -0.0022 0.68995 0.0
C291 C 0.68297 0.04704 0.69327 0.0
C292 C 0.6714 0.08136 0.68583 0.0
C293 C 0.6475 0.0635 0.66804 0.0
H294 H 0.62194 0.03272 0.66498 0.0
H295 H 0.62643 0.1014 0.66799 0.0
H296 H 0.68286 0.06653 0.66347 0.0
O297 O 0.73534 0.89243 0.67746 0.0
O298 O 0.74928 0.89605 0.69303 0.0
H299 H 0.72964 0.09575 0.70251 0.0
H300 H 0.67158 0.06925 0.7079 0.0
C301 C 0.70423 0.06063 0.70294 0.0
H302 H 0.72737 0.02771 0.70587 0.0
H303 H 0.74878 0.89942 0.71312 0.0
O304 O 0.68533 0.94581 0.65993 0.0
C305 C 0.76181 0.87964 0.6848 0.0
Co306 Co 0.80202 0.87945 0.4201 0.0
Co307 Co 0.80059 0.89567 0.44228 0.0
C308 C 0.85675 0.80731 0.43455 0.0
O309 O 0.84444 0.82284 0.42616 0.0
O310 O 0.83948 0.83001 0.44202 0.0
C311 C 0.83868 0.86462 0.40174 0.0
O312 O 0.88255 0.86554 0.40662 0.0
C313 C 0.77703 0.89706 0.46328 0.0
C314 C 0.75928 0.98125 0.46473 0.0
C315 C 0.75923 0.93449 0.46972 0.0
N316 N 0.78586 0.92088 0.45482 0.0
N317 N 0.77614 0.97125 0.45584 0.0
C318 C 0.78098 0.83935 0.46484 0.0
H319 H 0.78299 0.81828 0.45793 0.0
H320 H 0.74706 0.82515 0.46907 0.0
H321 H 0.81711 0.83083 0.46894 0.0
C322 C 0.68751 0.89119 0.4228 0.0
N323 N 0.73693 0.88811 0.42607 0.0
N324 N 0.73652 0.88911 0.43545 0.0
C325 C 0.68664 0.88889 0.43849 0.0
C326 C 0.65343 0.89174 0.43059 0.0
C327 C 0.67426 0.898 0.41245 0.0
H328 H 0.70807 0.91447 0.4085 0.0
H329 H 0.66443 0.85935 0.40933 0.0
H330 H 0.64025 0.92444 0.41157 0.0
O331 O 0.84419 0.94219 0.42106 0.0
O332 O 0.85041 0.94843 0.43678 0.0
H333 H 0.67428 0.91729 0.45271 0.0
H334 H 0.63123 0.86418 0.44931 0.0
C335 C 0.6715 0.88 0.4487 0.0
H336 H 0.69859 0.85145 0.45196 0.0
H337 H 0.77886 -0.00148 0.45031 0.0
O338 O 0.79559 0.86662 0.40625 0.0
C339 C 0.86399 0.96302 0.42844 0.0
Co340 Co 0.80763 0.06534 0.17142 0.0
Co341 Co 0.83857 0.05278 0.19307 0.0
C342 C 0.90162 0.11991 0.18114 0.0
O343 O 0.87122 0.10916 0.17415 0.0
O344 O 0.89596 0.09892 0.18935 0.0
C345 C 0.83198 0.04683 0.15174 0.0
O346 O 0.87488 0.02679 0.15538 0.0
C347 C 0.85987 0.05063 0.21406 0.0
C348 C 0.81622 0.97923 0.21804 0.0
C349 C 0.8462 0.01921 0.22179 0.0
N350 N 0.83969 0.02927 0.20608 0.0
N351 N 0.81309 0.98707 0.20857 0.0
C352 C 0.88979 0.10084 0.21427 0.0
H353 H 0.86229 0.13379 0.21313 0.0
H354 H 0.91862 0.10148 0.20834 0.0
H355 H 0.91017 0.10618 0.2212 0.0
C356 C 0.81315 0.94872 0.17262 0.0
N357 N 0.81648 0.99704 0.17642 0.0
N358 N 0.83737 0.99363 0.18496 0.0
C359 C 0.85229 0.944 0.18656 0.0
C360 C 0.83587 0.91306 0.17895 0.0
C361 C 0.7857 0.9371 0.16342 0.0
H362 H 0.75916 0.96967 0.16147 0.0
H363 H 0.81505 0.93211 0.15765 0.0
H364 H 0.76272 0.90042 0.16403 0.0
O365 O 0.7488 0.1032 0.1772 0.0
O366 O 0.77611 0.09833 0.19217 0.0
H367 H 0.86775 0.91199 0.20053 0.0
H368 H 0.91696 0.89824 0.19177 0.0
C369 C 0.88937 0.92854 0.19438 0.0
H370 H 0.91167 0.96313 0.1969 0.0
H371 H 0.79132 0.96433 0.20383 0.0
O372 O 0.79719 0.0647 0.15734 0.0
C373 C 0.74459 0.11617 0.18594 0.0
Co374 Co 0.69158 0.08044 0.91935 0.0
Co375 Co 0.6907 0.08434 0.94171 0.0
C376 C 0.63636 0.16511 0.9311 0.0
O377 O 0.65064 0.1428 0.92336 0.0
O378 O 0.65041 0.1482 0.93928 0.0
C379 C 0.71992 0.11415 0.89999 0.0
O380 O 0.74506 0.15382 0.90379 0.0
C381 C 0.69517 0.09992 0.96286 0.0
C382 C 0.74932 0.03591 0.96671 0.0
C383 C 0.72159 0.07736 0.9705 0.0
N384 N 0.70762 0.07331 0.95488 0.0
N385 N 0.73943 0.03479 0.95728 0.0
C386 C 0.66094 0.14724 0.96301 0.0
H387 H 0.62177 0.13682 0.96017 0.0
H388 H 0.67773 0.17742 0.9582 0.0
H389 H 0.65705 0.16349 0.97032 0.0
C390 C 0.80551 0.0762 0.92249 0.0
N391 N 0.75581 0.07795 0.9256 0.0
N392 N 0.7552 0.08735 0.93481 0.0
C393 C 0.80447 0.0967 0.93774 0.0
C394 C 0.83866 0.08873 0.93007 0.0
C395 C 0.82026 0.05787 0.91269 0.0
H396 H 0.78769 0.03544 0.90943 0.0
H397 H 0.82902 0.09209 0.90809 0.0
H398 H 0.85544 0.03258 0.91299 0.0
O399 O 0.64855 0.02061 0.92223 0.0
O400 O 0.64097 0.02643 0.93795 0.0
H401 H 0.82541 0.08874 0.95251 0.0
H402 H 0.85204 0.14592 0.94676 0.0
C403 C 0.81717 0.12018 0.94727 0.0
H404 H 0.78351 0.14332 0.94994 0.0
H405 H 0.75533 0.00828 0.95241 0.0
O406 O 0.69761 0.08081 0.90534 0.0
C407 C 0.62765 0.006 0.93 0.0
Co408 Co 0.67766 0.06975 0.82594 0.0
Co409 Co 0.66923 0.06909 0.80372 0.0
C410 C 0.5924 0.12586 0.81621 0.0
O411 O 0.61495 0.11143 0.82385 0.0
O412 O 0.60884 0.11146 0.80804 0.0
C413 C 0.64784 0.06245 0.84553 0.0
O414 O 0.60024 0.06389 0.84201 0.0
C415 C 0.62577 0.03726 0.78525 0.0
C416 C 0.68239 0.07395 0.77536 0.0
C417 C 0.63717 0.04426 0.77567 0.0
N418 N 0.66276 0.06184 0.79038 0.0
N419 N 0.69618 0.08408 0.78443 0.0
C420 C 0.57867 0.01122 0.78946 0.0
H421 H 0.58061 0.01144 0.79738 0.0
H422 H 0.57541 0.97047 0.78684 0.0
H423 H 0.54303 0.03228 0.78709 0.0
C424 C 0.66699 0.95497 0.82259 0.0
N425 N 0.67165 0.00449 0.81945 0.0
N426 N 0.67435 0.00423 0.81008 0.0
C427 C 0.67642 0.9545 0.80696 0.0
C428 C 0.67061 0.92107 0.81477 0.0
C429 C 0.65411 0.94157 0.83273 0.0
H430 H 0.69054 0.94112 0.83704 0.0
H431 H 0.62774 0.97157 0.83574 0.0
H432 H 0.63415 0.90317 0.83328 0.0
O433 O 0.73781 0.11408 0.82154 0.0
O434 O 0.73105 0.11099 0.8058 0.0
H435 H 0.71218 0.97265 0.79342 0.0
H436 H 0.71714 0.90507 0.79696 0.0
C437 C 0.69133 0.93992 0.79696 0.0
H438 H 0.65575 0.93051 0.79279 0.0
H439 H 0.72862 0.10593 0.78655 0.0
O440 O 0.6868 0.06189 0.83989 0.0
C441 C 0.75349 0.1278 0.81326 0.0
Co442 Co 0.67478 0.93081 0.57642 0.0
Co443 Co 0.67781 0.91432 0.55412 0.0
C444 C 0.62252 0.83934 0.56574 0.0
O445 O 0.63399 0.86661 0.5731 0.0
O446 O 0.63966 0.8509 0.55745 0.0
C447 C 0.69961 0.91274 0.59713 0.0
O448 O 0.73513 0.87766 0.59495 0.0
C449 C 0.69621 0.89128 0.53326 0.0
C450 C 0.70012 0.97293 0.52811 0.0
C451 C 0.70272 0.92155 0.52509 0.0
N452 N 0.69017 0.92374 0.54078 0.0
N453 N 0.69271 0.97232 0.53759 0.0
C454 C 0.6936 0.83298 0.53382 0.0
H455 H 0.67664 0.82025 0.54073 0.0
H456 H 0.73364 0.81672 0.53318 0.0
H457 H 0.67005 0.8174 0.52779 0.0
C458 C 0.79057 0.94053 0.57301 0.0
N459 N 0.74091 0.93117 0.57022 0.0
N460 N 0.74099 0.91992 0.56104 0.0
C461 C 0.79039 0.91928 0.55781 0.0
C462 C 0.82359 0.93326 0.5652 0.0
C463 C 0.80534 0.96132 0.58262 0.0
H464 H 0.77097 0.97911 0.58619 0.0
H465 H 0.82022 0.92877 0.5871 0.0
H466 H 0.83695 0.99087 0.58195 0.0
O467 O 0.63131 0.98993 0.57243 0.0
O468 O 0.6281 0.97085 0.55707 0.0
H469 H 0.79844 0.93645 0.54291 0.0
H470 H 0.84729 0.89202 0.5475 0.0
C471 C 0.80549 0.90343 0.54789 0.0
H472 H 0.78121 0.86981 0.54562 0.0
H473 H 0.68915 0.00529 0.54193 0.0
O474 O 0.67534 0.93678 0.59055 0.0
C475 C 0.61288 -0.00211 0.56415 0.0
Co476 Co 0.84588 0.92856 0.32791 0.0
Co477 Co 0.82731 0.94586 0.30588 0.0
C478 C 0.91428 0.87812 0.31348 0.0
O479 O 0.90189 0.88843 0.32207 0.0
O480 O 0.89 0.89859 0.30644 0.0
C481 C 0.8936 0.91218 0.34632 0.0
O482 O 0.93671 0.90458 0.34141 0.0
C483 C 0.85043 0.97013 0.28567 0.0
C484 C 0.77336 0.99649 0.28045 0.0
C485 C 0.82452 0.98814 0.2776 0.0
N486 N 0.81622 0.96825 0.29297 0.0
N487 N 0.77017 0.98389 0.28977 0.0
C488 C 0.90693 0.95586 0.28649 0.0
H489 H 0.92233 0.96844 0.29354 0.0
H490 H 0.93027 0.97408 0.28069 0.0
H491 H 0.91079 0.91275 0.286 0.0
C492 C 0.84639 0.04277 0.32795 0.0
N493 N 0.84421 0.997 0.32329 0.0
N494 N 0.83427 0.00531 0.31419 0.0
C495 C 0.82864 0.05728 0.31283 0.0
C496 C 0.83605 0.08282 0.32154 0.0
C497 C 0.85728 0.04749 0.33843 0.0
H498 H 0.82263 0.03384 0.34251 0.0
H499 H 0.89077 0.02208 0.34035 0.0
H500 H 0.86654 0.08837 0.34047 0.0
O501 O 0.78186 0.89045 0.32492 0.0
O502 O 0.76695 0.90023 0.30943 0.0
H503 H 0.7708 0.06451 0.30194 0.0
H504 H 0.80635 0.12381 0.30399 0.0
C505 C 0.80986 0.08077 0.30365 0.0
H506 H 0.83705 0.07005 0.29779 0.0
H507 H 0.73637 0.98549 0.29394 0.0
O508 O 0.85195 0.92504 0.34197 0.0
C509 C 0.75525 0.88014 0.31749 0.0
Co510 Co 0.7999 0.06872 0.07718 0.0
Co511 Co 0.80248 0.07312 0.05465 0.0
C512 C 0.86088 0.15054 0.06576 0.0
O513 O 0.84424 0.12972 0.07349 0.0
O514 O 0.84674 0.13391 0.05756 0.0
C515 C 0.7712 0.10171 0.09662 0.0
O516 O 0.74887 0.14269 0.0927 0.0
C517 C 0.79467 0.09536 0.0337 0.0
C518 C 0.75227 0.02427 0.02911 0.0
C519 C 0.77212 0.07122 0.02581 0.0
N520 N 0.7876 0.06417 0.04135 0.0
N521 N 0.76284 0.02156 0.0385 0.0
C522 C 0.81968 0.14815 0.03411 0.0
H523 H 0.80545 0.16953 0.0405 0.0
H524 H 0.81131 0.17117 0.02756 0.0
H525 H 0.8626 0.14331 0.03486 0.0
C526 C 0.68548 0.0645 0.07331 0.0
N527 N 0.73584 0.06888 0.07057 0.0
N528 N 0.73774 0.07747 0.06133 0.0
C529 C 0.68875 0.08301 0.058 0.0
C530 C 0.65356 0.0734 0.06539 0.0
C531 C 0.66908 0.04672 0.08305 0.0
H532 H 0.70169 0.02626 0.08669 0.0
H533 H 0.65773 0.08121 0.08738 0.0
H534 H 0.63502 0.01993 0.0826 0.0
O535 O 0.84153 0.00761 0.07405 0.0
O536 O 0.84647 0.01153 0.05825 0.0
H537 H 0.67391 0.0693 0.04312 0.0
H538 H 0.638 0.12326 0.04811 0.0
C539 C 0.67614 0.10257 0.04817 0.0
H540 H 0.70714 0.12972 0.04568 0.0
H541 H 0.75195 0.99109 0.04305 0.0
O542 O 0.7924 0.06746 0.09131 0.0
C543 C 0.85949 0.99074 0.06617 0.0
Co544 Co 0.82697 0.56435 0.83079 0.0
Co545 Co 0.82824 0.56583 0.80821 0.0
C546 C 0.90796 0.62315 0.81831 0.0
O547 O 0.8859 0.60886 0.8261 0.0
O548 O 0.89192 0.60741 0.81016 0.0
C549 C 0.86401 0.54425 0.85061 0.0
O550 O 0.9074 0.52485 0.84706 0.0
C551 C 0.83524 0.55831 0.78666 0.0
C552 C 0.75742 0.52368 0.78394 0.0
C553 C 0.80191 0.54173 0.77938 0.0
N554 N 0.8111 0.55022 0.79512 0.0
N555 N 0.7649 0.52911 0.79339 0.0
C556 C 0.88722 0.58445 0.78563 0.0
H557 H 0.88593 0.62324 0.78917 0.0
H558 H 0.91731 0.56083 0.78937 0.0
H559 H 0.89825 0.58931 0.77801 0.0
C560 C 0.82935 0.4505 0.82748 0.0
N561 N 0.82759 0.50029 0.82443 0.0
N562 N 0.83392 0.50163 0.81513 0.0
C563 C 0.84398 0.45301 0.812 0.0
C564 C 0.84045 0.41819 0.81969 0.0
C565 C 0.81635 0.43491 0.83752 0.0
H566 H 0.79312 0.46592 0.84106 0.0
H567 H 0.85306 0.42918 0.84161 0.0
H568 H 0.79355 0.39799 0.83763 0.0
O569 O 0.7635 0.60215 0.82824 0.0
O570 O 0.77132 0.61427 0.81267 0.0
H571 H 0.82864 0.43589 0.79729 0.0
H572 H 0.88816 0.4069 0.80187 0.0
C573 C 0.86276 0.44203 0.80205 0.0
H574 H 0.88519 0.476 0.7993 0.0
H575 H 0.73792 0.51929 0.79869 0.0
O576 O 0.82828 0.55995 0.84501 0.0
C577 C 0.74942 0.62474 0.82062 0.0
Co578 Co 0.67706 0.58353 0.08096 0.0
Co579 Co 0.67945 0.56868 0.05872 0.0
C580 C 0.62092 0.65449 0.06624 0.0
O581 O 0.63278 0.63805 0.07461 0.0
O582 O 0.63989 0.63383 0.05871 0.0
C583 C 0.67832 0.64079 0.09905 0.0
O584 O 0.66886 0.68309 0.09401 0.0
C585 C 0.70487 0.5642 0.03773 0.0
C586 C 0.72464 0.48025 0.03688 0.0
C587 C 0.7241 0.52593 0.03156 0.0
N588 N 0.69591 0.54184 0.04632 0.0
N589 N 0.70694 0.49158 0.04565 0.0
C590 C 0.69905 0.62141 0.03579 0.0
H591 H 0.66369 0.62781 0.03135 0.0
H592 H 0.69436 0.64357 0.04254 0.0
H593 H 0.73348 0.63624 0.03178 0.0
C594 C 0.79175 0.57622 0.07832 0.0
N595 N 0.7423 0.57689 0.07502 0.0
N596 N 0.74286 0.57732 0.06566 0.0
C597 C 0.79262 0.58128 0.06265 0.0
C598 C 0.82595 0.57912 0.07055 0.0
C599 C 0.80502 0.5688 0.08865 0.0
H600 H 0.77184 0.55049 0.0925 0.0
H601 H 0.8132 0.60744 0.09193 0.0
H602 H 0.84 0.54358 0.08946 0.0
O603 O 0.63687 0.51968 0.08012 0.0
O604 O 0.62933 0.51621 0.06438 0.0
H605 H 0.80722 0.55763 0.04821 0.0
H606 H 0.84561 0.61337 0.05207 0.0
C607 C 0.80687 0.59397 0.05253 0.0
H608 H 0.77737 0.62084 0.0495 0.0
H609 H 0.70439 0.46533 0.05135 0.0
O610 O 0.68409 0.5973 0.09481 0.0
C611 C 0.61629 0.50027 0.07268 0.0
Co612 Co 0.65784 0.43506 0.33148 0.0
Co613 Co 0.67679 0.44138 0.30924 0.0
C614 C 0.5833 0.38695 0.31785 0.0
O615 O 0.59682 0.39973 0.32628 0.0
O616 O 0.61035 0.3999 0.31055 0.0
C617 C 0.60965 0.4313 0.35009 0.0
O618 O 0.56631 0.42463 0.3452 0.0
C619 C 0.6605 0.47137 0.28888 0.0
C620 C 0.73744 0.44921 0.28294 0.0
C621 C 0.68887 0.46863 0.28042 0.0
N622 N 0.6911 0.45401 0.29604 0.0
N623 N 0.73711 0.44134 0.29243 0.0
C624 C 0.60452 0.48684 0.29004 0.0
H625 H 0.5803 0.46786 0.28445 0.0
H626 H 0.58998 0.47611 0.29725 0.0
H627 H 0.60095 0.52976 0.28912 0.0
C628 C 0.66114 0.5494 0.32942 0.0
N629 N 0.66457 0.50118 0.32569 0.0
N630 N 0.67519 0.50455 0.31651 0.0
C631 C 0.68169 0.55537 0.3142 0.0
C632 C 0.67252 0.58576 0.32231 0.0
C633 C 0.64392 0.55984 0.33947 0.0
H634 H 0.67704 0.55248 0.34441 0.0
H635 H 0.61172 0.53278 0.3414 0.0
H636 H 0.63001 0.6006 0.34036 0.0
O637 O 0.71812 0.38858 0.32908 0.0
O638 O 0.73353 0.39501 0.31356 0.0
H639 H 0.72762 0.54409 0.30151 0.0
H640 H 0.72316 0.61103 0.30534 0.0
C641 C 0.70132 0.57372 0.30469 0.0
H642 H 0.66762 0.5797 0.29983 0.0
H643 H 0.76808 0.42624 0.29641 0.0
O644 O 0.6523 0.43902 0.34564 0.0
C645 C 0.74417 0.37587 0.3217 0.0
Co646 Co 0.80188 0.4341 0.57788 0.0
Co647 Co 0.80133 0.41778 0.55562 0.0
C648 C 0.8574 0.34536 0.56925 0.0
O649 O 0.84188 0.36947 0.57665 0.0
O650 O 0.8441 0.35972 0.56087 0.0
C651 C 0.80208 0.41587 0.59806 0.0
O652 O 0.80374 0.3665 0.5955 0.0
C653 C 0.77242 0.3717 0.53679 0.0
C654 C 0.8142 0.42642 0.52722 0.0
C655 C 0.78355 0.38198 0.52728 0.0
N656 N 0.79608 0.40844 0.54215 0.0
N657 N 0.82115 0.44074 0.53636 0.0
C658 C 0.742 0.32654 0.54066 0.0
H659 H 0.76337 0.28978 0.5391 0.0
H660 H 0.73659 0.33036 0.5485 0.0
H661 H 0.7035 0.32407 0.53703 0.0
C662 C 0.68702 0.42655 0.57452 0.0
N663 N 0.73665 0.42775 0.57134 0.0
N664 N 0.73645 0.42585 0.56195 0.0
C665 C 0.68676 0.4279 0.5588 0.0
C666 C 0.65316 0.42719 0.56666 0.0
C667 C 0.67343 0.42075 0.58487 0.0
H668 H 0.70411 0.39786 0.58857 0.0
H669 H 0.63531 0.40062 0.5858 0.0
H670 H 0.6717 0.45999 0.58824 0.0
O671 O 0.84854 0.49049 0.57275 0.0
O672 O 0.84366 0.47977 0.55712 0.0
H673 H 0.70593 0.45624 0.54473 0.0
H674 H 0.63855 0.46497 0.54814 0.0
C675 C 0.6726 0.43824 0.54858 0.0
H676 H 0.66212 0.40102 0.54502 0.0
H677 H 0.84303 0.47284 0.53862 0.0
O678 O 0.79612 0.4508 0.59169 0.0
C679 C 0.86198 0.50347 0.56432 0.0
Co680 Co 0.8595 0.43478 0.67343 0.0
Co681 Co 0.83384 0.44077 0.69557 0.0
C682 C 0.93338 0.3925 0.68743 0.0
O683 O 0.92261 0.4052 0.67885 0.0
O684 O 0.90272 0.40296 0.69441 0.0
C685 C 0.88932 0.44287 0.65247 0.0
O686 O 0.93698 0.45949 0.65419 0.0
C687 C 0.84812 0.47103 0.71611 0.0
C688 C 0.7659 0.46937 0.72093 0.0
C689 C 0.81628 0.47966 0.72405 0.0
N690 N 0.81764 0.45661 0.70869 0.0
N691 N 0.76865 0.45541 0.71169 0.0
C692 C 0.90584 0.47924 0.71536 0.0
H693 H 0.92614 0.44296 0.71762 0.0
H694 H 0.91696 0.4878 0.70785 0.0
H695 H 0.91856 0.51163 0.7201 0.0
C696 C 0.84797 0.54766 0.67494 0.0
N697 N 0.84643 0.49985 0.67885 0.0
N698 N 0.83381 0.50333 0.68795 0.0
C699 C 0.82531 0.55413 0.69004 0.0
C700 C 0.83425 0.58384 0.68185 0.0
C701 C 0.86629 0.55822 0.66496 0.0
H702 H 0.83671 0.54361 0.65981 0.0
H703 H 0.90324 0.53681 0.66373 0.0
H704 H 0.8736 0.60036 0.66368 0.0
O705 O 0.80358 0.38583 0.67618 0.0
O706 O 0.77946 0.38985 0.69129 0.0
H707 H 0.77417 0.54706 0.70208 0.0
H708 H 0.79056 0.61353 0.69909 0.0
C709 C 0.80586 0.57307 0.69951 0.0
H710 H 0.8383 0.57168 0.70477 0.0
H711 H 0.73686 0.44573 0.70736 0.0
O712 O 0.85778 0.43371 0.65927 0.0
C713 C 0.77462 0.37054 0.68297 0.0
Co714 Co 0.819 0.57412 0.92488 0.0
Co715 Co 0.81909 0.56452 0.94744 0.0
C716 C 0.87676 0.64946 0.93814 0.0
O717 O 0.86321 0.63284 0.92988 0.0
O718 O 0.86063 0.62791 0.9458 0.0
C719 C 0.79439 0.6107 0.90506 0.0
O720 O 0.76944 0.65118 0.90859 0.0
C721 C 0.80067 0.57704 0.96857 0.0
C722 C 0.79169 0.49371 0.97243 0.0
C723 C 0.79092 0.54365 0.97621 0.0
N724 N 0.80633 0.54786 0.9606 0.0
N725 N 0.80104 0.49818 0.96302 0.0
C726 C 0.80661 0.63519 0.96897 0.0
H727 H 0.82453 0.65037 0.96232 0.0
H728 H 0.76767 0.65354 0.96989 0.0
H729 H 0.83084 0.6463 0.97523 0.0
C730 C 0.70381 0.56663 0.92836 0.0
N731 N 0.75396 0.56971 0.9313 0.0
N732 N 0.75498 0.57058 0.94069 0.0
C733 C 0.70575 0.57179 0.94402 0.0
C734 C 0.67136 0.56789 0.93637 0.0
C735 C 0.68802 0.55723 0.91821 0.0
H736 H 0.72053 0.53901 0.91417 0.0
H737 H 0.67806 0.59514 0.91481 0.0
H738 H 0.6532 0.53139 0.91785 0.0
O739 O 0.85959 0.51141 0.92699 0.0
O740 O 0.86432 0.50621 0.94275 0.0
H741 H 0.69765 0.54454 0.95842 0.0
H742 H 0.65136 0.59496 0.95512 0.0
C743 C 0.6922 0.58114 0.95428 0.0
H744 H 0.71856 0.61144 0.95721 0.0
H745 H 0.80355 0.46717 0.9582 0.0
O746 O 0.81452 0.57729 0.91067 0.0
C747 C 0.8771 0.4898 0.93449 0.0
Co748 Co 0.68072 0.56187 0.17447 0.0
Co749 Co 0.6762 0.5567 0.19689 0.0
C750 C 0.59792 0.61692 0.18699 0.0
O751 O 0.62083 0.60429 0.1792 0.0
O752 O 0.61316 0.59967 0.19508 0.0
C753 C 0.6758 0.59906 0.15564 0.0
O754 O 0.6775 0.64374 0.16026 0.0
C755 C 0.66511 0.5331 0.21792 0.0
C756 C 0.74541 0.50405 0.22038 0.0
C757 C 0.69754 0.51096 0.22479 0.0
N758 N 0.69279 0.53825 0.20977 0.0
N759 N 0.74085 0.52157 0.21138 0.0
C760 C 0.60804 0.54455 0.21886 0.0
H761 H 0.58981 0.54948 0.21172 0.0
H762 H 0.58825 0.51263 0.22285 0.0
H763 H 0.60299 0.58122 0.22299 0.0
C764 C 0.6789 0.44683 0.1768 0.0
N765 N 0.6798 0.49577 0.18033 0.0
N766 N 0.67223 0.49412 0.1896 0.0
C767 C 0.6636 0.44424 0.19225 0.0
C768 C 0.66819 0.41205 0.18425 0.0
C769 C 0.69087 0.43424 0.16659 0.0
H770 H 0.71613 0.46499 0.16343 0.0
H771 H 0.65381 0.43268 0.16247 0.0
H772 H 0.71094 0.39595 0.16598 0.0
O773 O 0.74402 0.60206 0.17729 0.0
O774 O 0.73433 0.60381 0.19298 0.0
H775 H 0.68024 0.42452 0.20679 0.0
H776 H 0.62351 0.39168 0.20192 0.0
C777 C 0.64575 0.42893 0.20205 0.0
H778 H 0.62027 0.45989 0.20502 0.0
H779 H 0.77014 0.52032 0.20619 0.0
O780 O 0.67562 0.55669 0.16039 0.0
C781 C 0.75778 0.61892 0.18544 0.0
Co782 Co 0.68256 0.39403 0.42505 0.0
Co783 Co 0.67465 0.39606 0.44741 0.0
C784 C 0.62018 0.31519 0.43694 0.0
O785 O 0.6342 0.33567 0.42901 0.0
O786 O 0.63651 0.33249 0.4449 0.0
C787 C 0.65312 0.39214 0.40617 0.0
O788 O 0.60811 0.39418 0.4107 0.0
C789 C 0.67693 0.37415 0.4681 0.0
C790 C 0.67431 0.45451 0.4739 0.0
C791 C 0.67465 0.40239 0.47654 0.0
N792 N 0.67762 0.40825 0.46078 0.0
N793 N 0.67603 0.45614 0.4643 0.0
C794 C 0.67401 0.31606 0.46695 0.0
H795 H 0.63231 0.30441 0.46639 0.0
H796 H 0.69413 0.30379 0.4603 0.0
H797 H 0.69118 0.29563 0.47319 0.0
C798 C 0.79639 0.39962 0.43007 0.0
N799 N 0.74536 0.39548 0.43239 0.0
N800 N 0.74116 0.39352 0.44175 0.0
C801 C 0.78901 0.39397 0.44568 0.0
C802 C 0.82589 0.39884 0.43845 0.0
C803 C 0.81566 0.40946 0.42013 0.0
H804 H 0.78471 0.42818 0.41577 0.0
H805 H 0.82618 0.3716 0.41678 0.0
H806 H 0.85085 0.43487 0.42019 0.0
O807 O 0.64245 0.45881 0.42667 0.0
O808 O 0.63101 0.45302 0.44229 0.0
H809 H 0.78887 0.4253 0.45986 0.0
H810 H 0.84015 0.3779 0.45769 0.0
C811 C 0.79885 0.38821 0.45618 0.0
H812 H 0.77355 0.35693 0.4591 0.0
H813 H 0.67546 0.48997 0.46013 0.0
O814 O 0.6949 0.38912 0.41108 0.0
C815 C 0.62117 0.47477 0.43432 0.0
Co816 Co 0.16221 0.42237 0.1692 0.0
Co817 Co 0.16457 0.43618 0.19156 0.0
C818 C 0.0826 0.37295 0.1832 0.0
O819 O 0.10248 0.38192 0.17496 0.0
O820 O 0.10099 0.39394 0.19076 0.0
C821 C 0.12587 0.44364 0.14955 0.0
O822 O 0.09062 0.4751 0.15322 0.0
C823 C 0.15629 0.4718 0.21211 0.0
C824 C 0.23782 0.49925 0.21375 0.0
C825 C 0.19009 0.49722 0.21838 0.0
N826 N 0.18305 0.46049 0.20405 0.0
N827 N 0.23187 0.47619 0.20521 0.0
C828 C 0.09891 0.46303 0.2134 0.0
H829 H 0.0801 0.45305 0.2065 0.0
H830 H 0.08043 0.4984 0.21651 0.0
H831 H 0.09284 0.4302 0.21847 0.0
C832 C 0.17154 0.53907 0.17034 0.0
N833 N 0.16623 0.49091 0.17417 0.0
N834 N 0.15906 0.49537 0.18341 0.0
C835 C 0.1545 0.54615 0.18566 0.0
C836 C 0.16413 0.57627 0.17754 0.0
C837 C 0.18902 0.54849 0.16028 0.0
H838 H 0.20676 0.51262 0.15723 0.0
H839 H 0.15489 0.55979 0.15585 0.0
H840 H 0.21811 0.58068 0.16001 0.0
O841 O 0.22432 0.38253 0.17231 0.0
O842 O 0.22276 0.38707 0.18811 0.0
H843 H 0.16743 0.56772 0.20028 0.0
H844 H 0.11491 0.60305 0.19452 0.0
C845 C 0.13453 0.56453 0.19515 0.0
H846 H 0.10596 0.53591 0.19799 0.0
H847 H 0.26071 0.47319 0.19996 0.0
O848 O 0.1576 0.41997 0.15502 0.0
C849 C 0.24221 0.36916 0.1804 0.0
Co850 Co 0.32385 0.41136 0.91918 0.0
Co851 Co 0.31175 0.41768 0.9415 0.0
C852 C 0.37774 0.33617 0.93214 0.0
O853 O 0.36779 0.35364 0.92381 0.0
O854 O 0.35649 0.35557 0.93957 0.0
C855 C 0.32189 0.37044 0.89977 0.0
O856 O 0.31772 0.32386 0.90365 0.0
C857 C 0.2759 0.38997 0.96096 0.0
C858 C 0.30731 0.45674 0.96918 0.0
C859 C 0.28083 0.40987 0.97012 0.0
N860 N 0.29872 0.42366 0.95486 0.0
N861 N 0.31732 0.46346 0.95983 0.0
C862 C 0.25391 0.33806 0.95815 0.0
H863 H 0.25647 0.33245 0.95029 0.0
H864 H 0.21253 0.33521 0.96047 0.0
H865 H 0.27588 0.30659 0.96184 0.0
C866 C 0.20803 0.40524 0.92067 0.0
N867 N 0.25575 0.40894 0.92467 0.0
N868 N 0.25049 0.41567 0.93394 0.0
C869 C 0.19929 0.41948 0.93608 0.0
C870 C 0.1704 0.41219 0.92775 0.0
C871 C 0.19919 0.39303 0.91034 0.0
H872 H 0.22476 0.36019 0.90821 0.0
H873 H 0.15813 0.38154 0.9089 0.0
H874 H 0.20975 0.42758 0.90594 0.0
O875 O 0.36281 0.47601 0.92241 0.0
O876 O 0.35557 0.47739 0.93817 0.0
H877 H 0.14344 0.46131 0.94476 0.0
H878 H 0.16885 0.40228 0.94997 0.0
C879 C 0.17905 0.43699 0.9456 0.0
H880 H 0.209 0.46026 0.94942 0.0
H881 H 0.3377 0.49488 0.95687 0.0
O882 O 0.32296 0.41082 0.90504 0.0
C883 C 0.37407 0.49602 0.93046 0.0
Co884 Co 0.32177 0.58026 0.67134 0.0
Co885 Co 0.33583 0.56835 0.69358 0.0
C886 C 0.41344 0.62592 0.6817 0.0
O887 O 0.38674 0.61765 0.67419 0.0
O888 O 0.39965 0.60762 0.6898 0.0
C889 C 0.35277 0.58046 0.65174 0.0
O890 O 0.39995 0.57567 0.65535 0.0
C891 C 0.36852 0.5299 0.71285 0.0
C892 C 0.30788 0.56824 0.72165 0.0
C893 C 0.35147 0.53659 0.72218 0.0
N894 N 0.33624 0.55681 0.70705 0.0
N895 N 0.30029 0.57964 0.7124 0.0
C896 C 0.41627 0.50141 0.70958 0.0
H897 H 0.41875 0.50128 0.70166 0.0
H898 H 0.41572 0.46072 0.71232 0.0
H899 H 0.45145 0.52082 0.71258 0.0
C900 C 0.32026 0.46461 0.67278 0.0
N901 N 0.32345 0.51221 0.67681 0.0
N902 N 0.32542 0.507 0.68617 0.0
C903 C 0.32012 0.45601 0.68841 0.0
C904 C 0.31755 0.42718 0.67999 0.0
C905 C 0.32288 0.45563 0.66222 0.0
H906 H 0.3536 0.48085 0.65909 0.0
H907 H 0.33236 0.41444 0.66048 0.0
H908 H 0.28491 0.46645 0.65894 0.0
O909 O 0.26341 0.62417 0.67622 0.0
O910 O 0.27821 0.6166 0.6917 0.0
H911 H 0.28346 0.40224 0.69823 0.0
H912 H 0.34803 0.42329 0.70151 0.0
C913 C 0.31052 0.43618 0.69833 0.0
H914 H 0.29325 0.46719 0.70285 0.0
H915 H 0.27024 0.60303 0.70976 0.0
O916 O 0.31342 0.58007 0.65728 0.0
C917 C 0.25274 0.63622 0.68482 0.0
Co918 Co 0.17806 0.55066 0.42217 0.0
Co919 Co 0.1779 0.56979 0.44443 0.0
C920 C 0.11661 0.63786 0.43271 0.0
O921 O 0.13082 0.61072 0.42549 0.0
O922 O 0.13461 0.62928 0.44106 0.0
C923 C 0.20506 0.57065 0.40155 0.0
O924 O 0.24075 0.60516 0.40395 0.0
C925 C 0.19401 0.59339 0.4654 0.0
C926 C 0.20272 0.51203 0.47049 0.0
C927 C 0.20211 0.56337 0.47355 0.0
N928 N 0.19017 0.56085 0.45784 0.0
N929 N 0.19558 0.51244 0.46099 0.0
C930 C 0.18775 0.65141 0.46491 0.0
H931 H 0.17418 0.66366 0.45772 0.0
H932 H 0.22584 0.67042 0.46644 0.0
H933 H 0.15959 0.66452 0.47045 0.0
C934 C 0.29409 0.54949 0.42609 0.0
N935 N 0.24352 0.5568 0.42854 0.0
N936 N 0.24153 0.57044 0.4376 0.0
C937 C 0.2902 0.57546 0.44102 0.0
C938 C 0.32539 0.56094 0.43398 0.0
C939 C 0.31141 0.52584 0.41685 0.0
H940 H 0.27796 0.5073 0.41311 0.0
H941 H 0.32814 0.55692 0.41223 0.0
H942 H 0.34241 0.49631 0.41813 0.0
O943 O 0.14064 0.48721 0.42605 0.0
O944 O 0.13367 0.50908 0.44125 0.0
H945 H 0.29738 0.56316 0.4561 0.0
H946 H 0.34335 0.60989 0.45127 0.0
C947 C 0.30258 0.59516 0.45084 0.0
H948 H 0.27545 0.62732 0.45269 0.0
H949 H 0.19423 0.47942 0.45662 0.0
O950 O 0.17988 0.54623 0.40798 0.0
C951 C 0.1218 0.47936 0.43431 0.0
Co952 Co 0.18727 0.57006 0.3246 0.0
Co953 Co 0.18709 0.58392 0.30211 0.0
C954 C 0.10454 0.63211 0.31428 0.0
O955 O 0.12373 0.6122 0.32189 0.0
O956 O 0.12469 0.62377 0.30608 0.0
C957 C 0.16161 0.55489 0.34503 0.0
O958 O 0.11192 0.55917 0.34279 0.0
C959 C 0.15824 0.5739 0.2814 0.0
C960 C 0.23733 0.57631 0.27505 0.0
C961 C 0.18498 0.57086 0.27278 0.0
N962 N 0.19357 0.58016 0.28847 0.0
N963 N 0.2406 0.58199 0.28457 0.0
C964 C 0.10025 0.57312 0.28283 0.0
H965 H 0.09024 0.57663 0.29051 0.0
H966 H 0.08354 0.53633 0.27997 0.0
H967 H 0.08241 0.60591 0.27879 0.0
C968 C 0.19144 0.45872 0.31907 0.0
N969 N 0.18964 0.50991 0.31689 0.0
N970 N 0.18623 0.51547 0.30756 0.0
C971 C 0.1835 0.46776 0.30352 0.0
C972 C 0.18721 0.43006 0.31066 0.0
C973 C 0.20076 0.4384 0.32896 0.0
H974 H 0.22585 0.46594 0.333 0.0
H975 H 0.16273 0.43492 0.33273 0.0
H976 H 0.22001 0.39958 0.32882 0.0
O977 O 0.24583 0.61597 0.32206 0.0
O978 O 0.24823 0.62668 0.30639 0.0
H979 H 0.20718 0.47065 0.28885 0.0
H980 H 0.16267 0.41746 0.29159 0.0
C981 C 0.17268 0.45874 0.29314 0.0
H982 H 0.13891 0.4829 0.291 0.0
H983 H 0.27519 0.58626 0.28845 0.0
O984 O 0.19588 0.55582 0.33846 0.0
C985 C 0.26581 0.63669 0.31469 0.0
Co986 Co 0.17294 0.40165 0.07533 0.0
Co987 Co 0.18117 0.40397 0.05285 0.0
C988 C 0.12069 0.32108 0.06314 0.0
O989 O 0.13104 0.34079 0.07129 0.0
O990 O 0.14003 0.33986 0.05547 0.0
C991 C 0.17451 0.36498 0.09503 0.0
O992 O 0.17423 0.31776 0.09134 0.0
C993 C 0.21509 0.37797 0.03309 0.0
C994 C 0.17919 0.44365 0.0252 0.0
C995 C 0.20798 0.39845 0.02401 0.0
N996 N 0.19126 0.40979 0.03939 0.0
N997 N 0.16989 0.44886 0.0346 0.0
C998 C 0.24042 0.32724 0.03566 0.0
H999 H 0.24067 0.32159 0.04352 0.0
H1000 H 0.28101 0.32625 0.03287 0.0
H1001 H 0.21866 0.29472 0.03222 0.0
C1002 C 0.28903 0.39819 0.07305 0.0
N1003 N 0.24039 0.40125 0.06939 0.0
N1004 N 0.24368 0.40703 0.06007 0.0
C1005 C 0.29433 0.41145 0.05756 0.0
C1006 C 0.32524 0.40494 0.06567 0.0
C1007 C 0.29988 0.38525 0.08329 0.0
H1008 H 0.27068 0.35665 0.0859 0.0
H1009 H 0.33943 0.36822 0.0842 0.0
H1010 H 0.29644 0.42124 0.08766 0.0
O1011 O 0.12945 0.46337 0.07183 0.0
O1012 O 0.13465 0.46122 0.05607 0.0
H1013 H 0.28092 0.45078 0.04418 0.0
H1014 H 0.34747 0.45339 0.04833 0.0
C1015 C 0.3121 0.42838 0.04783 0.0
H1016 H 0.32181 0.39351 0.04349 0.0
H1017 H 0.14849 0.47903 0.03773 0.0
O1018 O 0.1764 0.40448 0.08953 0.0
C1019 C 0.11594 0.48061 0.06367 0.0
Co1020 Co 0.33574 0.43027 0.82601 0.0
Co1021 Co 0.31568 0.43124 0.80393 0.0
C1022 C 0.40508 0.37239 0.81331 0.0
O1023 O 0.39451 0.3885 0.82168 0.0
O1024 O 0.37821 0.38644 0.80609 0.0
C1025 C 0.3788 0.4368 0.84521 0.0
O1026 O 0.42506 0.43772 0.84113 0.0
C1027 C 0.34643 0.46131 0.78456 0.0
C1028 C 0.28096 0.43002 0.77599 0.0
C1029 C 0.32864 0.45543 0.77528 0.0
N1030 N 0.31083 0.44028 0.7905 0.0
N1031 N 0.27184 0.42156 0.78533 0.0
C1032 C 0.39828 0.4823 0.7877 0.0
H1033 H 0.40424 0.47565 0.79546 0.0
H1034 H 0.40042 0.52481 0.78623 0.0
H1035 H 0.42999 0.46316 0.78357 0.0
C1036 C 0.34195 0.54442 0.82266 0.0
N1037 N 0.33396 0.49526 0.81959 0.0
N1038 N 0.32079 0.49619 0.81052 0.0
C1039 C 0.31668 0.54632 0.80765 0.0
C1040 C 0.33076 0.57892 0.81522 0.0
C1041 C 0.36373 0.55711 0.83231 0.0
H1042 H 0.3935 0.52769 0.83429 0.0
H1043 H 0.38236 0.59627 0.83243 0.0
H1044 H 0.33187 0.55556 0.83769 0.0
O1045 O 0.2732 0.38685 0.82355 0.0
O1046 O 0.25485 0.38992 0.80811 0.0
H1047 H 0.26871 0.53083 0.79533 0.0
H1048 H 0.27005 0.59838 0.79904 0.0
C1049 C 0.29381 0.56237 0.79825 0.0
H1050 H 0.32574 0.57048 0.7931 0.0
H1051 H 0.23934 0.40235 0.78818 0.0
O1052 O 0.33775 0.43631 0.84011 0.0
C1053 C 0.24514 0.37316 0.81647 0.0
Co1054 Co 0.30166 0.60448 0.57867 0.0
Co1055 Co 0.29785 0.59026 0.55654 0.0
C1056 C 0.36035 0.67343 0.56398 0.0
O1057 O 0.34855 0.65708 0.57235 0.0
O1058 O 0.33956 0.65394 0.55651 0.0
C1059 C 0.27852 0.64992 0.59796 0.0
O1060 O 0.24877 0.68663 0.59429 0.0
C1061 C 0.27256 0.58835 0.53556 0.0
C1062 C 0.2488 0.5055 0.53444 0.0
C1063 C 0.25196 0.55151 0.52925 0.0
N1064 N 0.27999 0.56494 0.5441 0.0
N1065 N 0.26649 0.51531 0.54328 0.0
C1066 C 0.28097 0.6454 0.53377 0.0
H1067 H 0.28467 0.66706 0.5406 0.0
H1068 H 0.24823 0.66164 0.52949 0.0
H1069 H 0.31768 0.65072 0.52965 0.0
C1070 C 0.18646 0.60083 0.57638 0.0
N1071 N 0.23572 0.60108 0.57298 0.0
N1072 N 0.23472 0.6012 0.56361 0.0
C1073 C 0.18483 0.60594 0.56071 0.0
C1074 C 0.15195 0.60454 0.56868 0.0
C1075 C 0.1734 0.59036 0.58663 0.0
H1076 H 0.20709 0.57213 0.59034 0.0
H1077 H 0.16369 0.62768 0.59025 0.0
H1078 H 0.13917 0.56383 0.58719 0.0
O1079 O 0.33639 0.53822 0.57766 0.0
O1080 O 0.34774 0.53662 0.56202 0.0
H1081 H 0.16854 0.58054 0.54643 0.0
H1082 H 0.13173 0.63758 0.55014 0.0
C1083 C 0.17008 0.61749 0.55057 0.0
H1084 H 0.19997 0.64323 0.54732 0.0
H1085 H 0.26752 0.48853 0.54891 0.0
O1086 O 0.30016 0.61648 0.59257 0.0
C1087 C 0.35868 0.5196 0.57035 0.0
H1088 H 0.37824 0.85335 0.31145 0.0
H1089 H 0.27956 0.87898 0.33604 0.0
H1090 H 0.26335 0.78567 0.3373 0.0
H1091 H 0.26259 0.70094 0.32971 0.0
H1092 H 0.34079 0.67812 0.30271 0.0
H1093 H 0.37906 0.76603 0.30391 0.0
C1094 C 0.35327 0.83833 0.31709 0.0
C1095 C 0.33003 0.87314 0.32362 0.0
C1096 C 0.33977 0.78515 0.31719 0.0
C1097 C 0.29883 0.85317 0.33103 0.0
C1098 C 0.28884 0.79979 0.33166 0.0
C1099 C 0.28921 0.71445 0.32419 0.0
C1100 C 0.29912 0.68309 0.31614 0.0
C1101 C 0.30718 0.76594 0.32455 0.0
C1102 C 0.33281 0.70162 0.30898 0.0
C1103 C 0.3543 0.7519 0.30965 0.0
H1104 H 0.38104 0.05332 0.55744 0.0
H1105 H 0.3972 0.12641 0.58506 0.0
H1106 H 0.49086 0.10627 0.585 0.0
H1107 H 0.56634 0.06191 0.57736 0.0
H1108 H 0.54912 0.00187 0.54865 0.0
H1109 H 0.45798 0.0277 0.54854 0.0
C1110 C 0.405 0.06725 0.56329 0.0
C1111 C 0.38181 0.09139 0.57124 0.0
C1112 C 0.45885 0.05874 0.56293 0.0
C1113 C 0.41369 0.10661 0.57893 0.0
C1114 C 0.46739 0.09578 0.57884 0.0
C1115 C 0.54304 0.05583 0.57098 0.0
C1116 C 0.56435 0.02872 0.56313 0.0
C1117 C 0.49024 0.07107 0.57091 0.0
C1118 C 0.53381 0.02199 0.55486 0.0
C1119 C 0.48139 0.03625 0.5548 0.0
H1120 H 0.13531 0.15724 0.81075 0.0
H1121 H 0.21707 0.12862 0.8372 0.0
H1122 H 0.23587 0.22142 0.83879 0.0
H1123 H 0.24144 0.30721 0.83152 0.0
H1124 H 0.17229 0.33478 0.80384 0.0
H1125 H 0.13544 0.24643 0.80393 0.0
C1126 C 0.15701 0.17156 0.81687 0.0
C1127 C 0.17491 0.13616 0.82383 0.0
C1128 C 0.17008 0.22481 0.8175 0.0
C1129 C 0.20222 0.15511 0.83181 0.0
C1130 C 0.21338 0.20817 0.83269 0.0
C1131 C 0.21716 0.29462 0.8256 0.0
C1132 C 0.21017 0.32744 0.81763 0.0
C1133 C 0.19905 0.243 0.82543 0.0
C1134 C 0.17852 0.31021 0.81004 0.0
C1135 C 0.15789 0.25951 0.81005 0.0
H1136 H 0.07572 0.88003 0.05918 0.0
H1137 H 0.10764 0.96279 0.08543 0.0
H1138 H 0.0158 0.98418 0.08709 0.0
H1139 H 0.92921 0.98841 0.08037 0.0
H1140 H 0.89818 0.92316 0.05253 0.0
H1141 H 0.9867 0.88576 0.05216 0.0
C1142 C 0.06249 0.90285 0.06524 0.0
C1143 C 0.09849 0.91866 0.07229 0.0
C1144 C 0.00975 0.91818 0.06584 0.0
C1145 C 0.08071 0.94821 0.0801 0.0
C1146 C 0.02816 0.9611 0.081 0.0
C1147 C 0.94108 0.96481 0.0743 0.0
C1148 C 0.90694 0.95792 0.06654 0.0
C1149 C 0.99262 0.94705 0.07385 0.0
C1150 C 0.92364 0.92847 0.05864 0.0
C1151 C 0.97434 0.90761 0.05839 0.0
H1152 H 0.23949 0.28887 0.16826 0.0
H1153 H 0.31643 0.34272 0.19384 0.0
H1154 H 0.35813 0.25673 0.19573 0.0
H1155 H 0.36566 0.16373 0.19076 0.0
H1156 H 0.27263 0.10939 0.16701 0.0
H1157 H 0.24543 0.19827 0.16356 0.0
C1158 C 0.26645 0.28238 0.17413 0.0
C1159 C 0.2756 0.32223 0.18082 0.0
C1160 C 0.28705 0.23241 0.17551 0.0
C1161 C 0.30933 0.31267 0.18855 0.0
C1162 C 0.33276 0.26348 0.18966 0.0
C1163 C 0.33906 0.17145 0.18489 0.0
C1164 C 0.32143 0.12995 0.17912 0.0
C1165 C 0.3206 0.22255 0.18332 0.0
C1166 C 0.2878 0.14061 0.17143 0.0
C1167 C 0.27175 0.19143 0.16951 0.0
H1168 H 0.09604 0.01896 0.42105 0.0
H1169 H 0.07912 0.0989 0.44802 0.0
H1170 H 0.98607 0.07752 0.44824 0.0
H1171 H 0.91114 0.02913 0.44124 0.0
H1172 H 0.92767 0.96354 0.41294 0.0
H1173 H 0.01859 0.99019 0.41247 0.0
C1174 C 0.07208 0.03391 0.42681 0.0
C1175 C 0.09525 0.05956 0.4346 0.0
C1176 C 0.01814 0.02462 0.4266 0.0
C1177 C 0.06301 0.07702 0.4421 0.0
C1178 C 0.00951 0.06556 0.44217 0.0
C1179 C 0.93427 0.02206 0.43487 0.0
C1180 C 0.91275 0.99344 0.42724 0.0
C1181 C 0.98684 0.03825 0.43454 0.0
C1182 C 0.94306 0.98519 0.41897 0.0
C1183 C 0.99541 -6e-05 0.41871 0.0
H1184 H 0.1937 0.85844 0.69696 0.0
H1185 H 0.11985 0.86214 0.66925 0.0
H1186 H 0.13922 0.76929 0.66715 0.0
H1187 H 0.18739 0.69019 0.67269 0.0
H1188 H 0.24475 0.68694 0.70176 0.0
H1189 H 0.21664 0.77602 0.70413 0.0
C1190 C 0.17884 0.83921 0.69066 0.0
C1191 C 0.15653 0.86826 0.68319 0.0
C1192 C 0.18666 0.78549 0.68977 0.0
C1193 C 0.13957 0.8416 0.67495 0.0
C1194 C 0.14986 0.7882 0.6738 0.0
C1195 C 0.19226 0.70846 0.67962 0.0
C1196 C 0.21989 0.68234 0.6869 0.0
C1197 C 0.17515 0.76013 0.68106 0.0
C1198 C 0.22464 0.70615 0.69593 0.0
C1199 C 0.20892 0.75747 0.6973 0.0
H1200 H 0.57592 0.94824 0.94376 0.0
H1201 H 0.56495 0.00162 0.9145 0.0
H1202 H 0.47347 0.97822 0.91403 0.0
H1203 H 0.39438 0.95552 0.92256 0.0
H1204 H 0.40493 0.88368 0.9504 0.0
H1205 H 0.49825 0.90388 0.95096 0.0
C1206 C 0.55381 0.9533 0.93721 0.0
C1207 C 0.57738 0.9775 0.92926 0.0
C1208 C 0.50075 0.93833 0.93683 0.0
C1209 C 0.54822 0.98325 0.92078 0.0
C1210 C 0.49548 0.97037 0.9205 0.0
C1211 C 0.41687 0.94173 0.9286 0.0
C1212 C 0.39174 0.91897 0.93649 0.0
C1213 C 0.47101 0.94962 0.92858 0.0
C1214 C 0.4224 0.90344 0.94436 0.0
C1215 C 0.47613 0.9142 0.94463 0.0
H1216 H 0.71113 0.31793 0.69562 0.0
H1217 H 0.76635 0.3159 0.6664 0.0
H1218 H 0.73584 0.22698 0.66451 0.0
H1219 H 0.70852 0.14578 0.67195 0.0
H1220 H 0.64147 0.14786 0.70024 0.0
H1221 H 0.66316 0.24054 0.70178 0.0
C1222 C 0.71524 0.29851 0.68877 0.0
C1223 C 0.74262 0.32317 0.68129 0.0
C1224 C 0.69704 0.24695 0.68763 0.0
C1225 C 0.74655 0.29772 0.67239 0.0
C1226 C 0.7293 0.24657 0.67128 0.0
C1227 C 0.69635 0.16655 0.67831 0.0
C1228 C 0.67465 0.13931 0.68605 0.0
C1229 C 0.70668 0.22013 0.67898 0.0
C1230 C 0.66031 0.16735 0.6943 0.0
C1231 C 0.67214 0.22054 0.69515 0.0
H1232 H 0.59864 0.94703 0.44365 0.0
H1233 H 0.5782 0.85837 0.41769 0.0
H1234 H 0.48544 0.88202 0.41746 0.0
H1235 H 0.41122 0.93266 0.42444 0.0
H1236 H 0.43242 0.0046 0.45213 0.0
H1237 H 0.52327 0.97844 0.45227 0.0
C1238 C 0.57399 0.93036 0.43815 0.0
C1239 C 0.59596 0.90101 0.4307 0.0
C1240 C 0.5204 0.94042 0.43846 0.0
C1241 C 0.56295 0.88242 0.4234 0.0
C1242 C 0.50964 0.89524 0.42333 0.0
C1243 C 0.43544 0.94122 0.43061 0.0
C1244 C 0.41506 0.97114 0.43819 0.0
C1245 C 0.48803 0.92491 0.43079 0.0
C1246 C 0.44678 0.9816 0.44618 0.0
C1247 C 0.4991 0.96721 0.44624 0.0
H1248 H 0.82244 0.84614 0.19375 0.0
H1249 H 0.84778 0.84839 0.16327 0.0
H1250 H 0.83323 0.75392 0.16266 0.0
H1251 H 0.80287 0.67329 0.1707 0.0
H1252 H 0.78647 0.67234 0.20145 0.0
H1253 H 0.81278 0.76353 0.20209 0.0
C1254 C 0.82745 0.82619 0.187 0.0
C1255 C 0.83551 0.8549 0.17856 0.0
C1256 C 0.82122 0.77187 0.18677 0.0
C1257 C 0.83974 0.82775 0.16986 0.0
C1258 C 0.83212 0.77355 0.16952 0.0
C1259 C 0.80663 0.69247 0.17758 0.0
C1260 C 0.79114 0.66624 0.18599 0.0
C1261 C 0.82123 0.74546 0.17791 0.0
C1262 C 0.79718 0.69162 0.19484 0.0
C1263 C 0.81178 0.74405 0.19522 0.0
H1264 H 0.07817 0.04891 0.92289 0.0
H1265 H 0.07055 0.0145 0.95312 0.0
H1266 H 0.98098 0.04442 0.95368 0.0
H1267 H 0.90115 0.06202 0.945 0.0
H1268 H 0.90883 0.11311 0.91564 0.0
H1269 H 0.00196 0.09248 0.91524 0.0
C1270 C 0.05747 0.04952 0.92965 0.0
C1271 C 0.08065 0.02755 0.93785 0.0
C1272 C 0.00555 0.0676 0.93002 0.0
C1273 C 0.05363 0.02998 0.94662 0.0
C1274 C 0.00202 0.04676 0.94696 0.0
C1275 C 0.92293 0.07143 0.93861 0.0
C1276 C 0.89692 0.08735 0.93027 0.0
C1277 C 0.9769 0.06297 0.93861 0.0
C1278 C 0.92686 0.0979 0.92204 0.0
C1279 C 0.98049 0.087 0.92184 0.0
H1280 H 0.69183 0.67834 0.8072 0.0
H1281 H 0.74547 0.6847 0.83647 0.0
H1282 H 0.7263 0.77707 0.83717 0.0
H1283 H 0.7093 0.8577 0.82868 0.0
H1284 H 0.63565 0.85222 0.80095 0.0
H1285 H 0.6506 0.75807 0.80023 0.0
C1286 C 0.69763 0.69965 0.81381 0.0
C1287 C 0.72109 0.67468 0.82167 0.0
C1288 C 0.68514 0.75317 0.81432 0.0
C1289 C 0.72772 0.70267 0.83026 0.0
C1290 C 0.71736 0.75588 0.83067 0.0
C1291 C 0.69379 0.83626 0.82265 0.0
C1292 C 0.67237 0.86287 0.81481 0.0
C1293 C 0.69815 0.78182 0.82262 0.0
C1294 C 0.65465 0.83348 0.80694 0.0
C1295 C 0.66227 0.77932 0.80658 0.0
H1296 H 0.04731 0.01867 0.55569 0.0
H1297 H 0.0824 0.94815 0.58296 0.0
H1298 H 0.99408 0.91104 0.58364 0.0
H1299 H 0.90359 0.908 0.57728 0.0
H1300 H 0.86844 0.99031 0.55114 0.0
H1301 H 0.95991 0.01357 0.54923 0.0
C1302 C 0.0363 0.99401 0.56168 0.0
C1303 C 0.07133 0.9862 0.56926 0.0
C1304 C 0.9849 0.97579 0.5623 0.0
C1305 C 0.05607 0.95464 0.57702 0.0
C1306 C 0.00543 0.93395 0.57746 0.0
C1307 C 0.91618 0.93102 0.57119 0.0
C1308 C 0.87954 0.94677 0.56429 0.0
C1309 C 0.96888 0.94603 0.57031 0.0
C1310 C 0.89614 0.97653 0.55642 0.0
C1311 C 0.94842 0.99014 0.55534 0.0
H1312 H 0.87076 0.1718 0.31284 0.0
H1313 H 0.77173 0.11623 0.33565 0.0
H1314 H 0.74382 0.20522 0.33906 0.0
H1315 H 0.73797 0.29623 0.3342 0.0
H1316 H 0.82577 0.35104 0.30985 0.0
H1317 H 0.8679 0.2654 0.30839 0.0
C1318 C 0.84312 0.17943 0.31855 0.0
C1319 C 0.82316 0.13762 0.32395 0.0
C1320 C 0.82514 0.23058 0.32016 0.0
C1321 C 0.7881 0.14785 0.33145 0.0
C1322 C 0.77182 0.19869 0.33337 0.0
C1323 C 0.76743 0.28999 0.32874 0.0
C1324 C 0.77888 0.32988 0.32216 0.0
C1325 C 0.78894 0.24009 0.32761 0.0
C1326 C 0.81645 0.32086 0.31501 0.0
C1327 C 0.84017 0.27183 0.31413 0.0
H1328 H 0.57531 0.09528 0.07831 0.0
H1329 H 0.60309 0.02805 0.05045 0.0
H1330 H 0.51146 0.00745 0.04886 0.0
H1331 H 0.42696 0.996 0.05609 0.0
H1332 H 0.40074 0.0433 0.08529 0.0
H1333 H 0.48781 0.08384 0.08571 0.0
C1334 C 0.56135 0.07592 0.07192 0.0
C1335 C 0.59641 0.06419 0.06445 0.0
C1336 C 0.50869 0.06014 0.07134 0.0
C1337 C 0.57723 0.03972 0.05617 0.0
C1338 C 0.52465 0.02701 0.0553 0.0
C1339 C 0.4395 0.01623 0.06251 0.0
C1340 C 0.40737 0.01658 0.07065 0.0
C1341 C 0.49046 0.0357 0.06292 0.0
C1342 C 0.42477 0.04254 0.07892 0.0
C1343 C 0.47469 0.06527 0.07918 0.0
H1344 H 0.81185 0.35488 0.80497 0.0
H1345 H 0.87277 0.34878 0.83372 0.0
H1346 H 0.8562 0.25485 0.83422 0.0
H1347 H 0.81297 0.17718 0.82695 0.0
H1348 H 0.77051 0.18373 0.79706 0.0
H1349 H 0.79652 0.27451 0.79632 0.0
C1350 C 0.82444 0.33344 0.81122 0.0
C1351 C 0.84171 0.35994 0.81941 0.0
C1352 C 0.81873 0.27913 0.81122 0.0
C1353 C 0.8563 0.33028 0.82747 0.0
C1354 C 0.8478 0.27622 0.82771 0.0
C1355 C 0.8111 0.19794 0.8202 0.0
C1356 C 0.78772 0.1741 0.8122 0.0
C1357 C 0.82707 0.25053 0.81971 0.0
C1358 C 0.78706 0.20118 0.80343 0.0
C1359 C 0.80153 0.25347 0.80298 0.0
H1360 H 0.06846 0.54372 0.07709 0.0
H1361 H 0.05313 0.48572 0.04819 0.0
H1362 H 0.96206 0.51037 0.04797 0.0
H1363 H 0.88473 0.53313 0.05685 0.0
H1364 H 0.89904 0.6116 0.08402 0.0
H1365 H 0.99239 0.5908 0.08433 0.0
C1366 C 0.04555 0.53806 0.07066 0.0
C1367 C 0.06748 0.51163 0.06279 0.0
C1368 C 0.99278 0.55375 0.07041 0.0
C1369 C 0.03751 0.50542 0.05442 0.0
C1370 C 0.98502 0.51899 0.05429 0.0
C1371 C 0.90797 0.54872 0.06264 0.0
C1372 C 0.88397 0.57352 0.07043 0.0
C1373 C 0.96192 0.54108 0.06238 0.0
C1374 C 0.91562 0.5905 0.07806 0.0
C1375 C 0.96935 0.57947 0.07817 0.0
H1376 H 0.74456 0.8132 0.33223 0.0
H1377 H 0.68833 0.84219 0.30362 0.0
H1378 H 0.65067 0.75401 0.30312 0.0
H1379 H 0.64539 0.66476 0.31003 0.0
H1380 H 0.7192 0.63492 0.33724 0.0
H1381 H 0.73765 0.72728 0.33912 0.0
C1382 C 0.72317 0.80099 0.32591 0.0
C1383 C 0.71983 0.83427 0.31793 0.0
C1384 C 0.70532 0.74945 0.32541 0.0
C1385 C 0.69167 0.81739 0.30987 0.0
C1386 C 0.67064 0.76675 0.30954 0.0
C1387 C 0.66561 0.67857 0.31635 0.0
C1388 C 0.68045 0.64284 0.32352 0.0
C1389 C 0.67937 0.73168 0.31712 0.0
C1390 C 0.70596 0.66146 0.33173 0.0
C1391 C 0.7171 0.71436 0.33277 0.0
H1392 H 0.41166 0.45365 0.55815 0.0
H1393 H 0.41897 0.52459 0.58615 0.0
H1394 H 0.51042 0.50214 0.58748 0.0
H1395 H 0.59068 0.47544 0.57972 0.0
H1396 H 0.58342 0.38709 0.5535 0.0
H1397 H 0.49006 0.40553 0.55223 0.0
C1398 C 0.43295 0.46272 0.56464 0.0
C1399 C 0.40847 0.49156 0.57194 0.0
C1400 C 0.48593 0.44843 0.56554 0.0
C1401 C 0.43649 0.50253 0.58038 0.0
C1402 C 0.48921 0.49022 0.58114 0.0
C1403 C 0.5689 0.45783 0.57393 0.0
C1404 C 0.59499 0.43104 0.5666 0.0
C1405 C 0.5147 0.46494 0.57362 0.0
C1406 C 0.56521 0.41019 0.55903 0.0
C1407 C 0.51146 0.41993 0.55838 0.0
H1408 H 0.7638 0.80931 0.67058 0.0
H1409 H 0.83528 0.84557 0.69772 0.0
H1410 H 0.86974 0.75639 0.69871 0.0
H1411 H 0.86733 0.66478 0.69299 0.0
H1412 H 0.78131 0.62858 0.66731 0.0
H1413 H 0.76449 0.72095 0.66462 0.0
C1414 C 0.78815 0.79839 0.67661 0.0
C1415 C 0.79661 0.83387 0.6841 0.0
C1416 C 0.80408 0.74647 0.67748 0.0
C1417 C 0.82814 0.81884 0.69186 0.0
C1418 C 0.84723 0.76771 0.69249 0.0
C1419 C 0.84488 0.67739 0.68683 0.0
C1420 C 0.82565 0.64019 0.68034 0.0
C1421 C 0.83318 0.73055 0.68557 0.0
C1422 C 0.79711 0.65669 0.67232 0.0
C1423 C 0.78734 0.70944 0.6708 0.0
H1424 H 0.59301 0.60235 0.92443 0.0
H1425 H 0.62188 0.50752 0.94944 0.0
H1426 H 0.52942 0.49063 0.95112 0.0
H1427 H 0.44272 0.49353 0.9447 0.0
H1428 H 0.41361 0.56763 0.91753 0.0
H1429 H 0.5034 0.60235 0.91746 0.0
C1430 C 0.579 0.57778 0.9302 0.0
C1431 C 0.61441 0.55767 0.93697 0.0
C1432 C 0.5256 0.56466 0.93073 0.0
C1433 C 0.59555 0.5257 0.94438 0.0
C1434 C 0.54257 0.51538 0.9453 0.0
C1435 C 0.45529 0.51852 0.93886 0.0
C1436 C 0.42143 0.52864 0.93119 0.0
C1437 C 0.50749 0.53397 0.93845 0.0
C1438 C 0.43894 0.55989 0.92357 0.0
C1439 C 0.49036 0.57909 0.92348 0.0
H1440 H 0.6781 0.17215 0.17449 0.0
H1441 H 0.74354 0.16812 0.20295 0.0
H1442 H 0.72289 0.25996 0.2051 0.0
H1443 H 0.70327 0.34401 0.19771 0.0
H1444 H 0.62825 0.34866 0.17011 0.0
H1445 H 0.63795 0.254 0.16865 0.0
C1446 C 0.6863 0.19084 0.18128 0.0
C1447 C 0.71396 0.16348 0.18841 0.0
C1448 C 0.67471 0.24416 0.18248 0.0
C1449 C 0.72317 0.18819 0.19724 0.0
C1450 C 0.7119 0.24106 0.19846 0.0
C1451 C 0.68696 0.32449 0.19153 0.0
C1452 C 0.66631 0.35391 0.18393 0.0
C1453 C 0.69031 0.26993 0.19094 0.0
C1454 C 0.64646 0.32741 0.17591 0.0
C1455 C 0.65126 0.2731 0.17512 0.0
H1456 H 0.04834 0.48671 0.4479 0.0
H1457 H 0.08904 0.39887 0.42265 0.0
H1458 H 0.0008 0.3611 0.42227 0.0
H1459 H 0.90892 0.36236 0.42804 0.0
H1460 H 0.86845 0.46506 0.45137 0.0
H1461 H 0.95966 0.48753 0.4536 0.0
C1462 C 0.03861 0.4583 0.44242 0.0
C1463 C 0.07522 0.44564 0.43531 0.0
C1464 C 0.98729 0.44005 0.44184 0.0
C1465 C 0.06151 0.40915 0.42823 0.0
C1466 C 0.01093 0.38805 0.42795 0.0
C1467 C 0.92027 0.38962 0.43359 0.0
C1468 C 0.88203 0.41109 0.43966 0.0
C1469 C 0.97288 0.40491 0.4345 0.0
C1470 C 0.89717 0.44646 0.44682 0.0
C1471 C 0.94936 0.4598 0.44806 0.0
H1472 H 0.21065 0.81624 0.1698 0.0
H1473 H 0.24718 0.80782 0.19994 0.0
H1474 H 0.22091 0.71704 0.20031 0.0
H1475 H 0.20231 0.63786 0.19165 0.0
H1476 H 0.14634 0.64577 0.1626 0.0
H1477 H 0.16922 0.73865 0.16204 0.0
C1478 C 0.21131 0.79495 0.1765 0.0
C1479 C 0.2321 0.81872 0.18476 0.0
C1480 C 0.19494 0.74236 0.17677 0.0
C1481 C 0.23193 0.79075 0.19343 0.0
C1482 C 0.21742 0.73845 0.19366 0.0
C1483 C 0.192 0.6597 0.18532 0.0
C1484 C 0.17252 0.63399 0.1772 0.0
C1485 C 0.20089 0.71351 0.1853 0.0
C1486 C 0.16287 0.66367 0.16891 0.0
C1487 C 0.17511 0.71715 0.16862 0.0
H1488 H 0.94213 0.48627 0.91948 0.0
H1489 H 0.91697 0.41885 0.94739 0.0
H1490 H 0.00489 0.38051 0.94693 0.0
H1491 H 0.09269 0.37763 0.93954 0.0
H1492 H 0.11992 0.46351 0.91343 0.0
H1493 H 0.02717 0.4819 0.91208 0.0
C1494 C 0.9551 0.46203 0.92538 0.0
C1495 C 0.92306 0.45538 0.93346 0.0
C1496 C 0.00654 0.44383 0.92539 0.0
C1497 C 0.94095 0.42442 0.94108 0.0
C1498 C 0.99131 0.40297 0.94085 0.0
C1499 C 0.07822 0.40035 0.93356 0.0
C1500 C 0.11324 0.41868 0.92655 0.0
C1501 C 0.02519 0.41442 0.93322 0.0
C1502 C 0.09385 0.44747 0.91877 0.0
C1503 C 0.04078 0.45869 0.91806 0.0
H1504 H 0.24169 0.19863 0.67176 0.0
H1505 H 0.33101 0.16695 0.69724 0.0
H1506 H 0.36338 0.25765 0.69721 0.0
H1507 H 0.35909 0.34756 0.6906 0.0
H1508 H 0.25285 0.37918 0.66733 0.0
H1509 H 0.23506 0.28645 0.66566 0.0
C1510 C 0.26947 0.21099 0.67718 0.0
C1511 C 0.28506 0.17598 0.68437 0.0
C1512 C 0.28437 0.26339 0.67751 0.0
C1513 C 0.31935 0.19313 0.69154 0.0
C1514 C 0.33732 0.24497 0.69156 0.0
C1515 C 0.33181 0.33413 0.68521 0.0
C1516 C 0.30816 0.3703 0.67897 0.0
C1517 C 0.3188 0.28081 0.68472 0.0
C1518 C 0.27317 0.35222 0.67198 0.0
C1519 C 0.26242 0.29918 0.6711 0.0
H1520 H 0.54532 0.4835 0.44742 0.0
H1521 H 0.59044 0.53861 0.41945 0.0
H1522 H 0.50236 0.57425 0.41703 0.0
H1523 H 0.40949 0.58044 0.4223 0.0
H1524 H 0.36547 0.5092 0.4491 0.0
H1525 H 0.4559 0.48893 0.45251 0.0
C1526 C 0.53657 0.50436 0.44086 0.0
C1527 C 0.57443 0.50841 0.43364 0.0
C1528 C 0.48545 0.52108 0.43925 0.0
C1529 C 0.56195 0.53516 0.42515 0.0
C1530 C 0.51145 0.55494 0.42372 0.0
C1531 C 0.41995 0.56045 0.42885 0.0
C1532 C 0.38098 0.54777 0.43556 0.0
C1533 C 0.4723 0.54636 0.43059 0.0
C1534 C 0.39484 0.52141 0.444 0.0
C1535 C 0.4466 0.50932 0.44593 0.0
H1536 H 0.2493 0.19879 0.3019 0.0
H1537 H 0.16858 0.17299 0.32856 0.0
H1538 H 0.13663 0.26348 0.32827 0.0
H1539 H 0.14343 0.35289 0.32158 0.0
H1540 H 0.24301 0.37894 0.2971 0.0
H1541 H 0.25523 0.28543 0.29526 0.0
C1542 C 0.22336 0.21227 0.30752 0.0
C1543 C 0.21106 0.17924 0.31522 0.0
C1544 C 0.20936 0.26494 0.30773 0.0
C1545 C 0.17825 0.19773 0.32253 0.0
C1546 C 0.16061 0.24955 0.32241 0.0
C1547 C 0.16787 0.33797 0.31587 0.0
C1548 C 0.19175 0.37283 0.30941 0.0
C1549 C 0.17802 0.28412 0.31527 0.0
C1550 C 0.22289 0.35299 0.30199 0.0
C1551 C 0.23038 0.29948 0.30099 0.0
H1552 H 0.56794 0.43564 0.05978 0.0
H1553 H 0.55266 0.50006 0.08818 0.0
H1554 H 0.4613 0.47475 0.08864 0.0
H1555 H 0.38309 0.44778 0.08001 0.0
H1556 H 0.39853 0.37023 0.05279 0.0
H1557 H 0.49216 0.38905 0.05269 0.0
C1558 C 0.54497 0.44269 0.06617 0.0
C1559 C 0.56705 0.47052 0.07384 0.0
C1560 C 0.49212 0.42738 0.06648 0.0
C1561 C 0.5369 0.47885 0.08213 0.0
C1562 C 0.48429 0.4649 0.08239 0.0
C1563 C 0.40688 0.4329 0.07422 0.0
C1564 C 0.38323 0.40877 0.06632 0.0
C1565 C 0.46106 0.44105 0.07446 0.0
C1566 C 0.41518 0.39095 0.0588 0.0
C1567 C 0.46895 0.40105 0.05879 0.0
H1568 H 0.30053 0.64023 0.83008 0.0
H1569 H 0.35778 0.6487 0.80111 0.0
H1570 H 0.34333 0.74312 0.80102 0.0
H1571 H 0.30486 0.82109 0.80872 0.0
H1572 H 0.25849 0.81201 0.83839 0.0
H1573 H 0.2827 0.7204 0.83886 0.0
C1574 C 0.3121 0.66262 0.82386 0.0
C1575 C 0.32927 0.63698 0.81556 0.0
C1576 C 0.30629 0.71702 0.82401 0.0
C1577 C 0.34256 0.66706 0.80749 0.0
C1578 C 0.33503 0.72122 0.80747 0.0
C1579 C 0.30159 0.79956 0.81537 0.0
C1580 C 0.27833 0.82321 0.8234 0.0
C1581 C 0.31547 0.74641 0.81563 0.0
C1582 C 0.2754 0.79485 0.83202 0.0
C1583 C 0.28875 0.74212 0.83229 0.0
H1584 H 0.91151 0.56952 0.57697 0.0
H1585 H 0.92056 0.50825 0.54821 0.0
H1586 H 0.01099 0.53467 0.54709 0.0
H1587 H 0.0903 0.55926 0.55525 0.0
H1588 H 0.08163 0.63888 0.58239 0.0
H1589 H 0.98847 0.61812 0.58341 0.0
C1590 C 0.93282 0.56347 0.57036 0.0
C1591 C 0.90947 0.53548 0.56282 0.0
C1592 C 0.98524 0.5799 0.56961 0.0
C1593 C 0.93737 0.52895 0.55422 0.0
C1594 C 0.98951 0.5436 0.55357 0.0
C1595 C 0.06827 0.57499 0.56118 0.0
C1596 C 0.09387 0.59992 0.56879 0.0
C1597 C 0.01431 0.56687 0.56137 0.0
C1598 C 0.06378 0.61752 0.57658 0.0
C1599 C 0.01017 0.60647 0.57711 0.0
H1600 H 0.57241 0.30743 0.30507 0.0
H1601 H 0.49718 0.38277 0.329 0.0
H1602 H 0.43522 0.31073 0.33028 0.0
H1603 H 0.40733 0.22376 0.32558 0.0
H1604 H 0.48007 0.14674 0.30161 0.0
H1605 H 0.53887 0.22182 0.29943 0.0
C1606 C 0.54151 0.3086 0.31038 0.0
C1607 C 0.53928 0.35019 0.31694 0.0
C1608 C 0.50672 0.26623 0.31125 0.0
C1609 C 0.4996 0.35106 0.32388 0.0
C1610 C 0.46448 0.30972 0.32468 0.0
C1611 C 0.43638 0.22308 0.31992 0.0
C1612 C 0.44041 0.17932 0.31392 0.0
C1613 C 0.46881 0.26648 0.3186 0.0
C1614 C 0.47696 0.17976 0.30642 0.0
C1615 C 0.51025 0.22274 0.30515 0.0
H1616 H 0.03944 0.19536 0.58182 0.0
H1617 H 0.10375 0.25192 0.5552 0.0
H1618 H 0.02547 0.30396 0.55244 0.0
H1619 H 0.938 0.33109 0.55726 0.0
H1620 H 0.87408 0.27819 0.58411 0.0
H1621 H 0.95258 0.2256 0.58699 0.0
C1622 C 0.03678 0.21993 0.57552 0.0
C1623 C 0.07734 0.21983 0.56873 0.0
C1624 C 0.99121 0.24906 0.57388 0.0
C1625 C 0.07305 0.25137 0.56054 0.0
C1626 C 0.02813 0.28075 0.5589 0.0
C1627 C 0.9408 0.30719 0.56365 0.0
C1628 C 0.90005 0.30741 0.57037 0.0
C1629 C 0.98661 0.27899 0.56542 0.0
C1630 C 0.9048 0.27776 0.57877 0.0
C1631 C 0.9498 0.24825 0.58046 0.0
H1632 H 0.93965 0.6903 0.80425 0.0
H1633 H 0.96565 0.64934 0.83383 0.0
H1634 H 0.02108 0.72578 0.83586 0.0
H1635 H 0.05919 0.80506 0.82957 0.0
H1636 H 0.03778 0.84698 0.79995 0.0
H1637 H 0.98236 0.76951 0.79764 0.0
C1638 C 0.95824 0.69765 0.81108 0.0
C1639 C 0.9484 0.66421 0.81889 0.0
C1640 C 0.98973 0.74228 0.81225 0.0
C1641 C 0.97241 0.67449 0.82772 0.0
C1642 C 0.00385 0.71837 0.82891 0.0
C1643 C 0.04197 0.7979 0.82261 0.0
C1644 C 0.05183 0.83229 0.81498 0.0
C1645 C 0.01188 0.75292 0.82129 0.0
C1646 C 0.03019 0.82142 0.80597 0.0
C1647 C -0.0011 0.77698 0.80464 0.0
H1648 H 0.43395 0.80401 0.05548 0.0
H1649 H 0.37851 0.74689 0.08271 0.0
H1650 H 0.45669 0.69341 0.08443 0.0
H1651 H 0.54216 0.66665 0.0787 0.0
H1652 H 0.5985 0.72064 0.05135 0.0
H1653 H 0.51887 0.77285 0.04926 0.0
C1654 C 0.43848 0.77885 0.06167 0.0
C1655 C 0.40057 0.77926 0.06896 0.0
C1656 C 0.4842 0.74902 0.06272 0.0
C1657 C 0.4072 0.74713 0.07701 0.0
C1658 C 0.45206 0.71695 0.07804 0.0
C1659 C 0.5375 0.69045 0.07234 0.0
C1660 C 0.57656 0.69078 0.06528 0.0
C1661 C 0.49128 0.71866 0.07107 0.0
C1662 C 0.5692 0.72051 0.05694 0.0
C1663 C 0.52355 0.74989 0.05572 0.0
H1664 H 0.57166 0.68802 0.20069 0.0
H1665 H 0.53567 0.63916 0.1719 0.0
H1666 H 0.48079 0.71588 0.16969 0.0
H1667 H 0.44617 0.79769 0.17556 0.0
H1668 H 0.47891 0.84809 0.20439 0.0
H1669 H 0.53315 0.77019 0.20689 0.0
C1670 C 0.55089 0.69371 0.19402 0.0
C1671 C 0.55758 0.65793 0.18647 0.0
C1672 C 0.52006 0.73865 0.19272 0.0
C1673 C 0.5311 0.66612 0.17781 0.0
C1674 C 0.50005 0.71016 0.17651 0.0
C1675 C 0.4656 0.79226 0.18238 0.0
C1676 C 0.45913 0.82915 0.18973 0.0
C1677 C 0.49517 0.74708 0.18384 0.0
C1678 C 0.48378 0.82059 0.19857 0.0
C1679 C 0.51439 0.77588 0.20003 0.0
H1680 H 0.54078 0.30649 0.42425 0.0
H1681 H 0.60055 0.24246 0.45062 0.0
H1682 H 0.51976 0.1931 0.45289 0.0
H1683 H 0.43194 0.16955 0.44757 0.0
H1684 H 0.37225 0.23131 0.42105 0.0
H1685 H 0.4527 0.28188 0.41881 0.0
C1686 C 0.53653 0.28077 0.43038 0.0
C1687 C 0.57666 0.27758 0.43721 0.0
C1688 C 0.48947 0.25363 0.43177 0.0
C1689 C 0.57026 0.2451 0.44522 0.0
C1690 C 0.52392 0.21739 0.44658 0.0
C1691 C 0.436 0.1951 0.44142 0.0
C1692 C 0.39598 0.19759 0.43457 0.0
C1693 C 0.48297 0.22213 0.43999 0.0
C1694 C 0.40236 0.22953 0.42648 0.0
C1695 C 0.44853 0.25782 0.42514 0.0
H1696 H 0.10552 0.22552 0.68048 0.0
H1697 H 0.02334 0.14832 0.70341 0.0
H1698 H 0.96855 0.22601 0.7057 0.0
H1699 H 0.94002 0.31312 0.70021 0.0
H1700 H 0.02345 0.38905 0.67725 0.0
H1701 H 0.08335 0.31516 0.67617 0.0
C1702 C 0.0753 0.22557 0.68593 0.0
C1703 C 0.06721 0.181 0.69158 0.0
C1704 C 0.04508 0.27043 0.68731 0.0
C1705 C 0.02939 0.18206 0.69886 0.0
C1706 C -0.00158 0.22649 0.7002 0.0
C1707 C 0.97234 0.31413 0.69519 0.0
C1708 C 0.97733 0.35624 0.68879 0.0
C1709 C 0.00556 0.2707 0.69439 0.0
C1710 C 0.01893 0.35691 0.68223 0.0
C1711 C 0.05277 0.31449 0.68154 0.0
H1712 H 0.94974 0.67346 0.92484 0.0
H1713 H 0.89872 0.71226 0.95338 0.0
H1714 H 0.97504 0.76869 0.95546 0.0
H1715 H 0.05651 0.8063 0.94921 0.0
H1716 H 0.10744 0.76682 0.9207 0.0
H1717 H 0.03143 0.71016 0.91867 0.0
C1718 C 0.95483 0.69494 0.93146 0.0
C1719 C 0.91838 0.68916 0.9389 0.0
C1720 C -0.00065 0.72618 0.9327 0.0
C1721 C 0.9261 0.71639 0.94751 0.0
C1722 C 0.9699 0.7483 0.94874 0.0
C1723 C 0.05148 0.78454 0.94262 0.0
C1724 C 0.08768 0.79049 0.93514 0.0
C1725 C 0.00709 0.75298 0.94142 0.0
C1726 C 0.08016 0.76276 0.92658 0.0
C1727 C 0.03653 0.73068 0.92538 0.0
H1728 H 0.57158 0.80425 0.67092 0.0
H1729 H 0.54632 0.84391 0.70054 0.0
H1730 H 0.49025 0.76734 0.70251 0.0
H1731 H 0.44772 0.68979 0.69578 0.0
H1732 H 0.47218 0.65063 0.66612 0.0
H1733 H 0.53053 0.72561 0.66427 0.0
C1734 C 0.55318 0.79652 0.67776 0.0
C1735 C 0.56257 0.82991 0.68554 0.0
C1736 C 0.52186 0.75194 0.6789 0.0
C1737 C 0.53937 0.81887 0.69443 0.0
C1738 C 0.50764 0.77494 0.69558 0.0
C1739 C 0.46673 0.69703 0.68897 0.0
C1740 C 0.456 0.66462 0.68111 0.0
C1741 C 0.49894 0.74101 0.68789 0.0
C1742 C 0.48009 0.675 0.67228 0.0
C1743 C 0.51305 0.71808 0.6712 0.0
H1744 H 0.9231 0.77405 0.42074 0.0
H1745 H 0.88794 0.75636 0.45077 0.0
H1746 H 0.96772 0.70529 0.45294 0.0
H1747 H 0.04851 0.66825 0.44642 0.0
H1748 H 0.08331 0.68574 0.41639 0.0
H1749 H 0.00287 0.73581 0.41417 0.0
C1750 C 0.93229 0.75832 0.42774 0.0
C1751 C 0.89943 0.76887 0.43557 0.0
C1752 C 0.97873 0.73018 0.42898 0.0
C1753 C 0.91242 0.74863 0.44461 0.0
C1754 C 0.95825 0.71985 0.44587 0.0
C1755 C 0.03895 0.68373 0.43941 0.0
C1756 C 0.07211 0.67392 0.4316 0.0
C1757 C 0.99211 0.71124 0.43815 0.0
C1758 C 0.05859 0.6932 0.42253 0.0
C1759 C 0.01245 0.72142 0.42124 0.0
H1760 H 0.04687 0.3078 0.16929 0.0
H1761 H 0.03047 0.34257 0.19936 0.0
H1762 H 0.97597 0.26509 0.20145 0.0
H1763 H 0.93514 0.18621 0.19486 0.0
H1764 H 0.94948 0.15255 0.16477 0.0
H1765 H 0.0038 0.23048 0.16261 0.0
C1766 C 0.03087 0.29895 0.17629 0.0
C1767 C 0.04292 0.33107 0.18416 0.0
C1768 C 0.00018 0.25394 0.17748 0.0
C1769 C 0.02186 0.31868 0.19317 0.0
C1770 C 0.991 0.27412 0.19439 0.0
C1771 C 0.95084 0.1955 0.18786 0.0
C1772 C 0.9391 0.16331 0.18001 0.0
C1773 C 0.98067 0.24104 0.18663 0.0
C1774 C 0.9585 0.17654 0.17093 0.0
C1775 C 0.98919 0.22122 0.16969 0.0
H1776 H 0.45438 0.31571 0.91941 0.0
H1777 H 0.40081 0.2759 0.94776 0.0
H1778 H 0.4796 0.22357 0.95034 0.0
H1779 H 0.56325 0.18883 0.94444 0.0
H1780 H 0.61593 0.22929 0.91606 0.0
H1781 H 0.53835 0.28325 0.91371 0.0
C1782 C 0.45945 0.29501 0.92611 0.0
C1783 C 0.42146 0.29912 0.93334 0.0
C1784 C 0.50521 0.26622 0.92762 0.0
C1785 C 0.42928 0.27292 0.94205 0.0
C1786 C 0.47448 0.2434 0.94356 0.0
C1787 C 0.55828 0.21037 0.93782 0.0
C1788 C 0.59535 0.20536 0.93045 0.0
C1789 C 0.51289 0.24014 0.93642 0.0
C1790 C 0.58798 0.23274 0.92185 0.0
C1791 C 0.54345 0.26317 0.92047 0.0
H1792 H 0.55692 0.18899 0.802 0.0
H1793 H 0.53739 0.15431 0.83202 0.0
H1794 H 0.48034 0.22986 0.8338 0.0
H1795 H 0.43861 0.30681 0.82704 0.0
H1796 H 0.45579 0.34168 0.79701 0.0
H1797 H 0.5124 0.26523 0.79507 0.0
C1798 C 0.53949 0.19745 0.8089 0.0
C1799 C 0.5514 0.16611 0.81687 0.0
C1800 C 0.50741 0.24149 0.80992 0.0
C1801 C 0.52887 0.17785 0.82577 0.0
C1802 C 0.49655 0.22123 0.82682 0.0
C1803 C 0.45528 0.2982 0.82008 0.0
C1804 C 0.4437 0.33018 0.8122 0.0
C1805 C 0.48638 0.25375 0.81898 0.0
C1806 C 0.46462 0.31781 0.8032 0.0
C1807 C 0.4966 0.27398 0.80208 0.0
H1808 H 0.43193 0.69892 0.57746 0.0
H1809 H 0.39135 0.72592 0.54791 0.0
H1810 H 0.47246 0.77489 0.54561 0.0
H1811 H 0.55442 0.80999 0.552 0.0
H1812 H 0.59397 0.78444 0.58162 0.0
H1813 H 0.51409 0.73322 0.58381 0.0
C1814 C 0.44034 0.7161 0.57054 0.0
C1815 C 0.40536 0.70914 0.56289 0.0
C1816 C 0.48737 0.74326 0.56923 0.0
C1817 C 0.41741 0.73103 0.55394 0.0
C1818 C 0.46397 0.75862 0.55259 0.0
C1819 C 0.54615 0.79226 0.55889 0.0
C1820 C 0.58026 0.80047 0.56662 0.0
C1821 C 0.49942 0.7645 0.56017 0.0
C1822 C 0.56845 0.77825 0.57555 0.0
C1823 C 0.5226 0.74946 0.57682 0.0
H1824 H 0.06991 0.69992 0.30063 0.0
H1825 H 0.04608 0.65419 0.33006 0.0
H1826 H 0.98701 0.7277 0.33236 0.0
H1827 H 0.94536 0.80621 0.32633 0.0
H1828 H 0.9667 0.8528 0.29692 0.0
H1829 H 0.02456 0.7777 0.29435 0.0
C1830 C 0.05122 0.70554 0.30751 0.0
C1831 C 0.06262 0.67158 0.31518 0.0
C1832 C 0.01781 0.74845 0.30884 0.0
C1833 C 0.03816 0.67968 0.32405 0.0
C1834 C 0.00461 0.7219 0.32539 0.0
C1835 C 0.96299 0.80048 0.31936 0.0
C1836 C 0.95233 0.83556 0.31186 0.0
C1837 C 0.99501 0.75697 0.3179 0.0
C1838 C 0.97468 0.82665 0.30283 0.0
C1839 C 0.00748 0.7836 0.30135 0.0
H1840 H 0.04841 0.29778 0.07664 0.0
H1841 H 0.09526 0.25954 0.04783 0.0
H1842 H 0.01635 0.20661 0.04584 0.0
H1843 H 0.93339 0.17281 0.05219 0.0
H1844 H 0.88694 0.21163 0.081 0.0
H1845 H 0.96597 0.26415 0.08297 0.0
C1846 C 0.04193 0.27721 0.06997 0.0
C1847 C 0.07795 0.28232 0.06242 0.0
C1848 C 0.99596 0.24808 0.06879 0.0
C1849 C 0.06835 0.25599 0.05378 0.0
C1850 C 0.02302 0.22613 0.05261 0.0
C1851 C 0.94008 0.19349 0.05885 0.0
C1852 C 0.9041 0.1887 0.06641 0.0
C1853 C 0.9862 0.22256 0.06002 0.0
C1854 C 0.91387 0.21495 0.07505 0.0
C1855 C 0.95924 0.24461 0.07621 0.0
H1856 H 0.37659 0.02647 0.36378 0.0
H1857 H 0.31511 0.17759 0.35622 0.0
H1858 H 0.29112 0.19384 0.3729 0.0
H1859 H 0.28768 0.16479 0.38963 0.0
H1860 H 0.34269 0.01058 0.39701 0.0
H1861 H 0.36845 0.99533 0.38043 0.0
C1862 C 0.35835 0.06301 0.36586 0.0
C1863 C 0.34833 0.10127 0.35893 0.0
C1864 C 0.34301 0.0712 0.37539 0.0
C1865 C 0.32354 0.148 0.36154 0.0
C1866 C 0.3097 0.15716 0.37104 0.0
C1867 C 0.30505 0.12777 0.38759 0.0
C1868 C 0.31338 0.08898 0.39453 0.0
C1869 C 0.31913 0.11899 0.37803 0.0
C1870 C 0.33553 0.04099 0.39178 0.0
C1871 C 0.35062 0.03233 0.38232 0.0
H1872 H 0.12586 0.06626 0.61065 0.0
H1873 H 0.24567 0.18237 0.61538 0.0
H1874 H 0.23518 0.17255 0.63266 0.0
H1875 H 0.1924 0.13071 0.64639 0.0
H1876 H 0.07025 0.01702 0.64169 0.0
H1877 H 0.08107 0.02642 0.6244 0.0
C1878 C 0.14983 0.08933 0.61546 0.0
C1879 C 0.18677 0.12479 0.61172 0.0
C1880 C 0.14303 0.08404 0.62538 0.0
C1881 C 0.21699 0.15482 0.61806 0.0
C1882 C 0.21103 0.14919 0.62794 0.0
C1883 C 0.16809 0.10795 0.64159 0.0
C1884 C 0.13069 0.073 0.64534 0.0
C1885 C 0.17421 0.11389 0.63167 0.0
C1886 C 0.09921 0.04425 0.63901 0.0
C1887 C 0.10551 0.0495 0.62912 0.0
H1888 H 0.17301 0.9559 0.86233 0.0
H1889 H 0.11225 0.79929 0.85921 0.0
H1890 H 0.12112 0.78483 0.87635 0.0
H1891 H 0.14716 0.81576 0.89215 0.0
H1892 H 0.20898 0.97179 0.89547 0.0
H1893 H 0.1992 0.98708 0.87831 0.0
C1894 C 0.16128 0.9188 0.86542 0.0
C1895 C 0.14187 0.87879 0.8595 0.0
C1896 C 0.1672 0.91039 0.87529 0.0
C1897 C 0.12732 0.83076 0.8636 0.0
C1898 C 0.13251 0.82236 0.8734 0.0
C1899 C 0.15878 0.85309 0.88913 0.0
C1900 C 0.17887 0.8925 0.8951 0.0
C1901 C 0.15277 0.86171 0.8793 0.0
C1902 C 0.19352 0.94067 0.89104 0.0
C1903 C 0.18776 0.94953 0.88123 0.0
H1904 H 0.32441 0.92748 0.11147 0.0
H1905 H 0.29053 0.76213 0.11107 0.0
H1906 H 0.30441 0.75752 0.12833 0.0
H1907 H 0.32621 0.80055 0.14349 0.0
H1908 H 0.36137 0.96576 0.14374 0.0
H1909 H 0.34752 0.97009 0.12652 0.0
C1910 C 0.3197 0.89047 0.11516 0.0
C1911 C 0.30618 0.84527 0.11002 0.0
C1912 C 0.32845 0.88796 0.12503 0.0
C1913 C 0.30082 0.79751 0.11488 0.0
C1914 C 0.30887 0.79482 0.12474 0.0
C1915 C 0.33117 0.83744 0.13977 0.0
C1916 C 0.34477 0.88273 0.14489 0.0
C1917 C 0.3229 0.83977 0.12988 0.0
C1918 C 0.35098 0.93026 0.13997 0.0
C1919 C 0.34288 0.93286 0.13013 0.0
H1920 H 0.59385 0.95325 0.6372 0.0
H1921 H 0.75028 0.9193 0.64691 0.0
H1922 H 0.77908 0.90694 0.63044 0.0
H1923 H 0.75924 0.90316 0.61319 0.0
H1924 H 0.6041 0.94266 0.60351 0.0
H1925 H 0.57553 0.95532 0.61997 0.0
C1926 C 0.63427 0.94342 0.6357 0.0
C1927 C 0.6697 0.93697 0.64327 0.0
C1928 C 0.65084 0.93707 0.62619 0.0
C1929 C 0.72215 0.92471 0.64121 0.0
C1930 C 0.73867 0.91736 0.63179 0.0
C1931 C 0.71925 0.91455 0.61471 0.0
C1932 C 0.68381 0.92162 0.60716 0.0
C1933 C 0.70326 0.92295 0.62421 0.0
C1934 C 0.63223 0.93709 0.6092 0.0
C1935 C 0.61576 0.94425 0.61862 0.0
H1936 H 0.80785 0.90311 0.35763 0.0
H1937 H 0.97657 0.89851 0.35835 0.0
H1938 H 0.97423 0.88061 0.3755 0.0
H1939 H 0.92436 0.86792 0.39029 0.0
H1940 H 0.75558 0.87188 0.38952 0.0
H1941 H 0.75795 0.88763 0.37232 0.0
C1942 C 0.84417 0.89841 0.36154 0.0
C1943 C 0.89235 0.90254 0.35673 0.0
C1944 C 0.84252 0.88758 0.37136 0.0
C1945 C 0.93898 0.8957 0.36188 0.0
C1946 C 0.93767 0.88536 0.37169 0.0
C1947 C 0.88803 0.87179 0.38636 0.0
C1948 C 0.83987 0.86883 0.3912 0.0
C1949 C 0.88967 0.88129 0.37649 0.0
C1950 C 0.7932 0.87392 0.38598 0.0
C1951 C 0.79451 0.88318 0.37615 0.0
H1952 H 0.83373 0.03625 0.10671 0.0
H1953 H 0.71549 0.15497 0.1102 0.0
H1954 H 0.72225 0.14689 0.12758 0.0
H1955 H 0.76345 0.10752 0.14179 0.0
H1956 H 0.88462 0.99191 0.13813 0.0
H1957 H 0.87487 -0.00271 0.1208 0.0
C1958 C 0.80916 0.06019 0.11126 0.0
C1959 C 0.77404 0.09609 0.10715 0.0
C1960 C 0.81389 0.05597 0.12122 0.0
C1961 C 0.74291 0.12711 0.11317 0.0
C1962 C 0.74673 0.12248 0.12311 0.0
C1963 C 0.7875 0.08329 0.1372 0.0
C1964 C 0.8247 0.04931 0.14125 0.0
C1965 C 0.78232 0.08725 0.12722 0.0
C1966 C 0.85587 0.01852 0.1352 0.0
C1967 C 0.85027 0.02153 0.12529 0.0
H1968 H 0.72861 0.10765 0.85493 0.0
H1969 H 0.58434 0.02347 0.85934 0.0
H1970 H 0.59527 0.03063 0.87665 0.0
H1971 H 0.64435 0.06278 0.89042 0.0
H1972 H 0.7851 0.15298 0.88618 0.0
H1973 H 0.77699 0.14187 0.86883 0.0
C1974 C 0.69991 0.09049 0.8597 0.0
C1975 C 0.65596 0.06469 0.85592 0.0
C1976 C 0.70564 0.09622 0.86962 0.0
C1977 C 0.61846 0.04344 0.86213 0.0
C1978 C 0.62468 0.04756 0.87201 0.0
C1979 C 0.67343 0.07981 0.88571 0.0
C1980 C 0.71544 0.1084 0.88954 0.0
C1981 C 0.66787 0.07418 0.87581 0.0
C1982 C 0.75237 0.13093 0.88336 0.0
C1983 C 0.74781 0.12443 0.87347 0.0
H1984 H 0.79336 0.6054 0.85987 0.0
H1985 H 0.91909 0.49639 0.8649 0.0
H1986 H 0.90772 0.50659 0.88216 0.0
H1987 H 0.86266 0.54701 0.89579 0.0
H1988 H 0.73959 0.65903 0.89076 0.0
H1989 H 0.7494 0.64711 0.87351 0.0
C1990 C 0.81817 0.58365 0.86474 0.0
C1991 C 0.85691 0.54993 0.86109 0.0
C1992 C 0.81196 0.59036 0.87464 0.0
C1993 C 0.88905 0.52259 0.86751 0.0
C1994 C 0.88252 0.52838 0.87738 0.0
C1995 C 0.83781 0.56873 0.89093 0.0
C1996 C 0.80024 0.60375 0.89458 0.0
C1997 C 0.84418 0.56223 0.88102 0.0
C1998 C 0.76883 0.63194 0.88816 0.0
C1999 C 0.77438 0.62506 0.87829 0.0
H2000 H 0.68401 0.55842 0.11122 0.0
H2001 H 0.67328 0.72683 0.11066 0.0
H2002 H 0.67136 0.72869 0.12814 0.0
H2003 H 0.67198 0.68233 0.14354 0.0
H2004 H 0.68104 0.51376 0.14395 0.0
H2005 H 0.68408 0.51225 0.12653 0.0
C2006 C 0.68146 0.59564 0.1149 0.0
C2007 C 0.67891 0.64246 0.10963 0.0
C2008 C 0.67981 0.59638 0.12492 0.0
C2009 C 0.67534 0.69022 0.11454 0.0
C2010 C 0.67417 0.69131 0.12453 0.0
C2011 C 0.67456 0.64523 0.13982 0.0
C2012 C 0.67627 0.59823 0.14506 0.0
C2013 C 0.67619 0.6446 0.12979 0.0
C2014 C 0.67953 0.55052 0.14012 0.0
C2015 C 0.68139 0.54961 0.13015 0.0
H2016 H 0.57034 0.40088 0.39421 0.0
H2017 H 0.7391 0.39656 0.39447 0.0
H2018 H 0.74056 0.41005 0.37715 0.0
H2019 H 0.69372 0.42341 0.36197 0.0
H2020 H 0.52488 0.42668 0.36188 0.0
H2021 H 0.52379 0.41377 0.37915 0.0
C2022 C 0.60754 0.40269 0.3905 0.0
C2023 C 0.65455 0.39764 0.39564 0.0
C2024 C 0.60808 0.41066 0.38058 0.0
C2025 C 0.70232 0.40014 0.39069 0.0
C2026 C 0.70318 0.40805 0.38079 0.0
C2027 C 0.65668 0.42163 0.36574 0.0
C2028 C 0.60943 0.42616 0.36063 0.0
C2029 C 0.65628 0.41357 0.37567 0.0
C2030 C 0.56181 0.42334 0.36562 0.0
C2031 C 0.56112 0.41585 0.3755 0.0
H2032 H 0.89176 0.50572 0.63682 0.0
H2033 H 0.84693 0.35222 0.64653 0.0
H2034 H 0.81429 0.33044 0.6306 0.0
H2035 H 0.79902 0.35486 0.6139 0.0
H2036 H 0.83778 0.51053 0.60434 0.0
H2037 H 0.87119 0.5321 0.62021 0.0
C2038 C 0.87522 0.46747 0.63536 0.0
C2039 C 0.87241 0.43022 0.64271 0.0
C2040 C 0.85481 0.4559 0.62627 0.0
C2041 C 0.84979 0.38119 0.6409 0.0
C2042 C 0.83098 0.36883 0.63183 0.0
C2043 C 0.81438 0.39363 0.61531 0.0
C2044 C 0.81604 0.4309 0.60794 0.0
C2045 C 0.83319 0.40589 0.62446 0.0
C2046 C 0.83573 0.48115 0.6099 0.0
C2047 C 0.85526 0.49343 0.61896 0.0
H2048 H 0.16934 0.36192 0.14013 0.0
H2049 H 0.09221 0.50967 0.13549 0.0
H2050 H 0.10245 0.49931 0.1182 0.0
H2051 H 0.13349 0.44817 0.10441 0.0
H2052 H 0.20531 0.2978 0.10906 0.0
H2053 H 0.19725 0.30933 0.12636 0.0
C2054 C 0.1548 0.39188 0.13533 0.0
C2055 C 0.13026 0.43664 0.13908 0.0
C2056 C 0.16005 0.38523 0.12542 0.0
C2057 C 0.11106 0.4748 0.13278 0.0
C2058 C 0.11709 0.46898 0.1229 0.0
C2059 C 0.14764 0.41809 0.10922 0.0
C2060 C 0.1704 0.37238 0.10548 0.0
C2061 C 0.14163 0.42441 0.11914 0.0
C2062 C 0.18772 0.33332 0.11178 0.0
C2063 C 0.18312 0.3399 0.12166 0.0
H2064 H 0.31357 0.37274 0.85476 0.0
H2065 H 0.43449 0.48802 0.85888 0.0
H2066 H 0.42594 0.47905 0.87627 0.0
H2067 H 0.38402 0.43789 0.89024 0.0
H2068 H 0.27004 0.31578 0.88605 0.0
H2069 H 0.2758 0.32758 0.86869 0.0
C2070 C 0.33781 0.396 0.8595 0.0
C2071 C 0.3741 0.43148 0.85564 0.0
C2072 C 0.33394 0.38918 0.86942 0.0
C2073 C 0.40621 0.46064 0.86176 0.0
C2074 C 0.40127 0.45553 0.87167 0.0
C2075 C 0.36044 0.41401 0.8855 0.0
C2076 C 0.32629 0.37639 0.88934 0.0
C2077 C 0.36528 0.4199 0.87557 0.0
C2078 C 0.29657 0.34492 0.88319 0.0
C2079 C 0.29977 0.35177 0.8733 0.0
H2080 H 0.35759 0.60093 0.60697 0.0
H2081 H 0.21537 0.68673 0.6123 0.0
H2082 H 0.22491 0.67108 0.6295 0.0
H2083 H 0.27313 0.63128 0.64294 0.0
H2084 H 0.41746 0.54936 0.63744 0.0
H2085 H 0.40735 0.56477 0.6203 0.0
C2086 C 0.32866 0.61634 0.61189 0.0
C2087 C 0.28565 0.64467 0.60838 0.0
C2088 C 0.33461 0.60748 0.6217 0.0
C2089 C 0.24891 0.66497 0.61484 0.0
C2090 C 0.2542 0.65576 0.62466 0.0
C2091 C 0.30214 0.61656 0.63797 0.0
C2092 C 0.34572 0.58876 0.6414 0.0
C2093 C 0.29669 0.62666 0.62815 0.0
C2094 C 0.38357 0.57073 0.63494 0.0
C2095 C 0.37783 0.57957 0.62516 0.0
H2096 H 0.26545 0.58491 0.38567 0.0
H2097 H 0.11085 0.5388 0.39473 0.0
H2098 H 0.08375 0.52886 0.37812 0.0
H2099 H 0.10303 0.53557 0.36094 0.0
H2100 H 0.259 0.57692 0.35187 0.0
H2101 H 0.2864 0.58583 0.36847 0.0
C2102 C 0.2259 0.57262 0.38399 0.0
C2103 C 0.19021 0.56294 0.39142 0.0
C2104 C 0.21074 0.56596 0.3744 0.0
C2105 C 0.13922 0.54638 0.38914 0.0
C2106 C 0.12357 0.54079 0.37964 0.0
C2107 C 0.14307 0.54623 0.3626 0.0
C2108 C 0.1787 0.55583 0.35516 0.0
C2109 C 0.15888 0.55075 0.3722 0.0
C2110 C 0.23065 0.56917 0.35744 0.0
C2111 C 0.2464 0.57453 0.36695 0.0
H2112 H 0.37562 0.01247 0.23541 0.0
H2113 H 0.25827 0.89144 0.23633 0.0
H2114 H 0.25824 0.89396 0.25376 0.0
H2115 H 0.2813 0.93971 0.26841 0.0
H2116 H 0.39477 0.06426 0.26778 0.0
H2117 H 0.40801 0.05046 0.25061 0.0
C2118 C 0.35141 0.98564 0.23948 0.0
C2119 C 0.31695 0.95186 0.23469 0.0
C2120 C 0.35065 0.9883 0.24952 0.0
C2121 C 0.28489 0.91785 0.23994 0.0
C2122 C 0.28479 0.91934 0.24988 0.0
C2123 C 0.3098 0.96299 0.26453 0.0
C2124 C 0.33681 0.003 0.26927 0.0
C2125 C 0.31592 0.95581 0.2547 0.0
C2126 C 0.37391 0.03285 0.26426 0.0
C2127 C 0.38101 0.02534 0.25444 0.0
H2128 H 0.14739 0.09806 0.51396 0.0
H2129 H 0.29701 0.14693 0.52489 0.0
H2130 H 0.33003 0.15798 0.50857 0.0
H2131 H 0.32012 0.13901 0.49138 0.0
H2132 H 0.16999 0.09208 0.4804 0.0
H2133 H 0.13259 0.09608 0.4965 0.0
C2134 C 0.18663 0.11274 0.51271 0.0
C2135 C 0.21994 0.1217 0.52051 0.0
C2136 C 0.20517 0.11891 0.50333 0.0
C2137 C 0.27078 0.14036 0.51893 0.0
C2138 C 0.28971 0.14622 0.50962 0.0
C2139 C 0.2788 0.13153 0.49251 0.0
C2140 C 0.24764 0.11541 0.4848 0.0
C2141 C 0.25786 0.1336 0.50178 0.0
C2142 C 0.19432 0.10529 0.48626 0.0
C2143 C 0.17317 0.10696 0.49547 0.0
H2144 H 0.26438 0.02917 0.7691 0.0
H2145 H 0.11571 0.94962 0.77009 0.0
H2146 H 0.10269 0.96671 0.75307 0.0
H2147 H 0.1386 0.996 0.73744 0.0
H2148 H 0.29035 0.06938 0.73662 0.0
H2149 H 0.29726 0.06299 0.75398 0.0
C2150 C 0.2288 0.01604 0.76562 0.0
C2151 C 0.19096 0.98855 0.7709 0.0
C2152 C 0.22238 0.02459 0.7558 0.0
C2153 C 0.14501 0.97194 0.76629 0.0
C2154 C 0.13783 0.98116 0.7565 0.0
C2155 C 0.17248 0.01158 0.74113 0.0
C2156 C 0.21384 0.03338 0.73583 0.0
C2157 C 0.17682 0.00643 0.75113 0.0
C2158 C 0.25811 0.05253 0.74061 0.0
C2159 C 0.26213 0.04877 0.75051 0.0
H2160 H 0.33211 0.87955 0.01418 0.0
H2161 H 0.17647 0.87339 0.02594 0.0
H2162 H 0.13995 0.86167 0.00993 0.0
H2163 H 0.15183 0.86928 0.99254 0.0
H2164 H 0.30733 0.87769 0.98077 0.0
H2165 H 0.34475 0.87118 0.9968 0.0
C2166 C 0.29035 0.8741 0.01321 0.0
C2167 C 0.25688 0.87721 0.02114 0.0
C2168 C 0.26975 0.86816 0.00399 0.0
C2169 C 0.2029 0.87023 0.01992 0.0
C2170 C 0.18202 0.86416 0.01076 0.0
C2171 C 0.19391 0.86785 0.9935 0.0
C2172 C 0.22692 0.87363 0.98556 0.0
C2173 C 0.21495 0.86525 0.00274 0.0
C2174 C 0.28132 0.87218 0.9868 0.0
C2175 C 0.30266 0.86925 0.99597 0.0
H2176 H 0.60639 0.08929 0.75932 0.0
H2177 H 0.62325 0.94003 0.77325 0.0
H2178 H 0.6178 0.89552 0.75786 0.0
H2179 H 0.62968 0.90167 0.74047 0.0
H2180 H 0.61827 0.05164 0.72658 0.0
H2181 H 0.59898 0.09336 0.74185 0.0
C2182 C 0.60661 0.04691 0.75897 0.0
C2183 C 0.61507 0.01781 0.76731 0.0
C2184 C 0.60541 0.02189 0.75008 0.0
C2185 C 0.61572 0.96303 0.7669 0.0
C2186 C 0.61352 0.93766 0.75808 0.0
C2187 C 0.62112 0.94318 0.74079 0.0
C2188 C 0.62549 0.9737 0.7325 0.0
C2189 C 0.61153 0.96699 0.74962 0.0
C2190 C 0.61435 0.02734 0.73288 0.0
C2191 C 0.604 0.05131 0.74163 0.0
H2192 H 0.79264 0.87069 0.48437 0.0
H2193 H 0.67578 0.98523 0.47684 0.0
H2194 H 0.64362 0.98584 0.49318 0.0
H2195 H 0.65449 0.96157 0.50986 0.0
H2196 H 0.77145 0.8489 0.51793 0.0
H2197 H 0.79671 0.83837 0.50111 0.0
C2198 C 0.75934 0.89468 0.48626 0.0
C2199 C 0.73689 0.92814 0.47941 0.0
C2200 C 0.74109 0.89523 0.49577 0.0
C2201 C 0.69425 0.95969 0.48201 0.0
C2202 C 0.67566 0.95999 0.49135 0.0
C2203 C 0.68483 0.93392 0.5079 0.0
C2204 C 0.71107 0.90604 0.51506 0.0
C2205 C 0.6997 0.9291 0.49832 0.0
C2206 C 0.75018 0.87021 0.51249 0.0
C2207 C 0.76503 0.86472 0.50289 0.0
H2208 H 0.8124 0.06833 0.26517 0.0
H2209 H 0.87712 0.91345 0.26773 0.0
H2210 H 0.89573 0.91202 0.25059 0.0
H2211 H 0.88347 0.95065 0.23464 0.0
H2212 H 0.82083 0.10621 0.232 0.0
H2213 H 0.81233 0.11226 0.24942 0.0
C2214 C 0.83151 0.03479 0.26197 0.0
C2215 C 0.84343 0.99106 0.26765 0.0
C2216 C 0.84228 0.0344 0.25212 0.0
C2217 C 0.86822 0.94776 0.26349 0.0
C2218 C 0.87849 0.94679 0.25369 0.0
C2219 C 0.86931 0.98634 0.23793 0.0
C2220 C 0.85293 0.02798 0.23212 0.0
C2221 C 0.86439 0.9893 0.2479 0.0
C2222 C 0.83436 0.07402 0.23638 0.0
C2223 C 0.82897 0.0772 0.24632 0.0
H2224 H 0.80372 0.10084 0.98177 0.0
H2225 H 0.63652 0.0804 0.9821 0.0
H2226 H 0.63665 0.0822 0.99962 0.0
H2227 H 0.68629 0.07766 0.01471 0.0
H2228 H 0.85313 0.10105 0.01443 0.0
H2229 H 0.85149 0.111 0.997 0.0
C2230 C 0.76727 0.09817 0.98572 0.0
C2231 C 0.72017 0.09043 0.98074 0.0
C2232 C 0.7678 0.09935 0.99575 0.0
C2233 C 0.67306 0.08688 0.98583 0.0
C2234 C 0.67325 0.08747 0.99583 0.0
C2235 C 0.72201 0.08617 0.01082 0.0
C2236 C 0.76981 0.08842 0.01576 0.0
C2237 C 0.7206 0.09194 0.00085 0.0
C2238 C 0.81594 0.09958 0.01073 0.0
C2239 C 0.81501 0.10482 0.00078 0.0
H2240 H 0.87768 0.50052 0.76771 0.0
H2241 H 0.73493 0.58996 0.76754 0.0
H2242 H 0.73022 0.58335 0.75018 0.0
H2243 H 0.76048 0.54374 0.73534 0.0
H2244 H 0.90066 0.45045 0.73515 0.0
H2245 H 0.91322 0.46749 0.75223 0.0
C2246 C 0.8465 0.51968 0.76381 0.0
C2247 C 0.80678 0.54592 0.76887 0.0
C2248 C 0.84327 0.51451 0.75377 0.0
C2249 C 0.76594 0.56973 0.76378 0.0
C2250 C 0.76309 0.56575 0.75386 0.0
C2251 C 0.79425 0.52773 0.739 0.0
C2252 C 0.82957 0.49596 0.73396 0.0
C2253 C 0.80055 0.53687 0.74882 0.0
C2254 C 0.87327 0.47571 0.7388 0.0
C2255 C 0.88016 0.48505 0.74861 0.0
H2256 H 0.83098 0.49508 0.99149 0.0
H2257 H 0.72358 0.61708 0.9835 0.0
H2258 H 0.69537 0.6257 1.00017 0.0
H2259 H 0.69498 0.59134 0.01672 0.0
H2260 H 0.8037 0.46915 0.02436 0.0
H2261 H 0.83699 0.46734 0.00812 0.0
C2262 C 0.80202 0.52417 0.99344 0.0
C2263 C 0.7797 0.55564 0.98633 0.0
C2264 C 0.7856 0.52827 0.00296 0.0
C2265 C 0.74218 0.59317 0.9889 0.0
C2266 C 0.72557 0.59761 0.99841 0.0
C2267 C 0.72685 0.56536 0.01492 0.0
C2268 C 0.74661 0.53039 0.02181 0.0
C2269 C 0.7462 0.56449 0.00548 0.0
C2270 C 0.78717 0.49608 0.01921 0.0
C2271 C 0.8065 0.49507 0.00991 0.0
H2272 H 0.64834 0.56221 0.23946 0.0
H2273 H 0.72135 0.41623 0.23178 0.0
H2274 H 0.71856 0.38752 0.24837 0.0
H2275 H 0.70655 0.40833 0.26518 0.0
H2276 H 0.63711 0.55482 0.27344 0.0
H2277 H 0.62628 0.57871 0.25655 0.0
C2278 C 0.66223 0.52365 0.24143 0.0
C2279 C 0.68533 0.49143 0.23446 0.0
C2280 C 0.66166 0.50778 0.25109 0.0
C2281 C 0.70385 0.44178 0.23707 0.0
C2282 C 0.70236 0.42538 0.24654 0.0
C2283 C 0.6882 0.44512 0.26327 0.0
C2284 C 0.67282 0.47985 0.27049 0.0
C2285 C 0.68316 0.45877 0.25363 0.0
C2286 C 0.64874 0.52721 0.26798 0.0
C2287 C 0.64304 0.54104 0.25833 0.0
H2288 H 0.74972 0.34208 0.48437 0.0
H2289 H 0.60757 0.42485 0.49089 0.0
H2290 H 0.62316 0.41308 0.50801 0.0
H2291 H 0.68605 0.39513 0.52084 0.0
H2292 H 0.83336 0.32279 0.51413 0.0
H2293 H 0.80665 0.3125 0.49744 0.0
C2294 C 0.72123 0.35554 0.48956 0.0
C2295 C 0.67741 0.38381 0.48647 0.0
C2296 C 0.73178 0.35068 0.49936 0.0
C2297 C 0.64144 0.40275 0.49319 0.0
C2298 C 0.65047 0.39621 0.50295 0.0
C2299 C 0.71109 0.37504 0.51577 0.0
C2300 C 0.76111 0.35907 0.51862 0.0
C2301 C 0.69671 0.37241 0.50611 0.0
C2302 C 0.79432 0.33453 0.51203 0.0
C2303 C 0.7793 0.32932 0.50249 0.0
H2304 H 0.13461 0.46079 0.23383 0.0
H2305 H 0.22362 0.59275 0.22358 0.0
H2306 H 0.22268 0.63155 0.23946 0.0
H2307 H 0.20797 0.62197 0.25661 0.0
H2308 H 0.12271 0.48903 0.26731 0.0
H2309 H 0.10945 0.4573 0.25097 0.0
C2310 C 0.15239 0.49869 0.23504 0.0
C2311 C 0.17953 0.52368 0.22758 0.0
C2312 C 0.15262 0.52048 0.2443 0.0
C2313 C 0.20305 0.57249 0.22926 0.0
C2314 C 0.20256 0.59474 0.23833 0.0
C2315 C 0.18522 0.58683 0.25532 0.0
C2316 C 0.1658 0.55824 0.2631 0.0
C2317 C 0.1792 0.56819 0.24597 0.0
C2318 C 0.13683 0.51248 0.2614 0.0
C2319 C 0.12997 0.4939 0.25206 0.0
H2320 H 0.33537 0.39084 0.98619 0.0
H2321 H 0.17995 0.38631 0.97436 0.0
H2322 H 0.14309 0.37367 0.99035 0.0
H2323 H 0.15487 0.37913 0.0078 0.0
H2324 H 0.31029 0.38367 0.01963 0.0
H2325 H 0.34782 0.37994 0.00355 0.0
C2326 C 0.29359 0.38551 0.98713 0.0
C2327 C 0.26024 0.38944 0.9792 0.0
C2328 C 0.27285 0.37867 0.99633 0.0
C2329 C 0.20622 0.38267 0.9804 0.0
C2330 C 0.18518 0.37601 0.98954 0.0
C2331 C 0.19693 0.37755 0.00683 0.0
C2332 C 0.22994 0.38149 0.01481 0.0
C2333 C 0.21802 0.37606 0.99757 0.0
C2334 C 0.28432 0.37977 0.01356 0.0
C2335 C 0.3057 0.37832 0.00437 0.0
H2336 H 0.37813 0.58391 0.73855 0.0
H2337 H 0.358 0.43236 0.72568 0.0
H2338 H 0.35636 0.39154 0.74151 0.0
H2339 H 0.34384 0.402 0.7589 0.0
H2340 H 0.36191 0.55427 0.77165 0.0
H2341 H 0.38194 0.59196 0.75603 0.0
C2342 C 0.37544 0.54173 0.73925 0.0
C2343 C 0.36843 0.51099 0.73105 0.0
C2344 C 0.37322 0.51894 0.74835 0.0
C2345 C 0.36443 0.45651 0.73193 0.0
C2346 C 0.36265 0.43335 0.74097 0.0
C2347 C 0.35357 0.44314 0.75824 0.0
C2348 C 0.35152 0.47543 0.76635 0.0
C2349 C 0.36444 0.46455 0.74922 0.0
C2350 C 0.36413 0.52861 0.76551 0.0
C2351 C 0.37504 0.55024 0.75657 0.0
H2352 H 0.15198 0.52363 0.48864 0.0
H2353 H 0.27019 0.63594 0.48092 0.0
H2354 H 0.29394 0.64644 0.49782 0.0
H2355 H 0.28804 0.6143 0.51454 0.0
H2356 H 0.16888 0.50123 0.52179 0.0
H2357 H 0.13888 0.50008 0.50533 0.0
C2358 C 0.18217 0.55127 0.4907 0.0
C2359 C 0.2092 0.57908 0.48361 0.0
C2360 C 0.19603 0.55624 0.50033 0.0
C2361 C 0.24828 0.61476 0.4863 0.0
C2362 C 0.26226 0.62022 0.49594 0.0
C2363 C 0.25465 0.59057 0.51258 0.0
C2364 C 0.23101 0.55767 0.51942 0.0
C2365 C 0.23741 0.58992 0.50301 0.0
C2366 C 0.18835 0.52638 0.51667 0.0
C2367 C 0.17095 0.52577 0.50725 0.0
loop_
_geom_bond_atom_site_label_1
_geom_bond_atom_site_label_2
_geom_bond_distance
_geom_bond_site_symmetry_2
_ccdc_geom_bond_type
Co0 O3 1.970 . S
Co0 N17 1.989 . S
Co0 O25 1.967 . S
Co0 O32 1.920 . S
Co1 O4 1.966 . S
Co1 N10 2.022 . S
Co1 N18 1.993 . S
Co1 O26 1.941 . S
C2 O3 1.258 . S
C2 O4 1.263 . S
O3 Co0 1.970 . S
O3 C2 1.258 . S
O4 Co1 1.966 . S
O4 C2 1.263 . S
C5 O6 1.235 . S
C5 O32 1.289 . S
O6 C5 1.235 . S
C7 C9 1.400 . S
C7 N10 1.351 . S
C7 C12 1.501 . S
C8 C9 1.387 . S
C8 N11 1.341 . S
C9 C7 1.400 . S
C9 C8 1.387 . S
N10 Co1 2.022 . S
N10 C7 1.351 . S
N10 N11 1.365 . S
N11 C8 1.341 . S
N11 N10 1.365 . S
N11 H31 0.862 . S
C12 C7 1.501 . S
C12 H13 0.961 . S
C12 H14 0.961 . S
C12 H15 0.960 . S
H13 C12 0.961 . S
H14 C12 0.961 . S
H15 C12 0.960 . S
C16 N17 1.342 1_565 S
C16 C20 1.401 . S
C16 C21 1.499 . S
N17 Co0 1.989 . S
N17 C16 1.342 1_545 S
N17 N18 1.388 . S
N18 Co1 1.993 . S
N18 N17 1.388 . S
N18 C19 1.346 1_545 S
C19 N18 1.346 1_565 S
C19 C20 1.396 . S
C19 C29 1.510 . S
C20 C16 1.401 . S
C20 C19 1.396 . S
C21 C16 1.499 . S
C21 H22 0.959 1_565 S
C21 H23 0.960 . S
C21 H24 0.961 . S
H22 C21 0.959 1_545 S
H23 C21 0.960 . S
H24 C21 0.961 . S
O25 Co0 1.967 . S
O25 C33 1.258 . S
O26 Co1 1.941 . S
O26 C33 1.266 . S
H27 C29 0.959 . S
H28 C29 0.961 . S
C29 C19 1.510 . S
C29 H27 0.959 . S
C29 H28 0.961 . S
C29 H30 0.960 . S
H30 C29 0.960 . S
H31 N11 0.862 . S
O32 Co0 1.920 . S
O32 C5 1.289 . S
C33 O25 1.258 . S
C33 O26 1.266 . S
Co34 O37 1.970 . S
Co34 N51 1.989 . S
Co34 O59 1.967 . S
Co34 O66 1.920 . S
Co35 O38 1.966 . S
Co35 N44 2.022 . S
Co35 N52 1.993 . S
Co35 O60 1.941 . S
C36 O37 1.258 . S
C36 O38 1.263 . S
O37 Co34 1.970 . S
O37 C36 1.258 . S
O38 Co35 1.966 . S
O38 C36 1.263 . S
C39 O40 1.235 . S
C39 O66 1.289 . S
O40 C39 1.235 . S
C41 C43 1.400 . S
C41 N44 1.351 . S
C41 C46 1.501 . S
C42 C43 1.387 . S
C42 N45 1.341 . S
C43 C41 1.400 . S
C43 C42 1.387 . S
N44 Co35 2.022 . S
N44 C41 1.351 . S
N44 N45 1.365 . S
N45 C42 1.341 . S
N45 N44 1.365 . S
N45 H65 0.862 . S
C46 C41 1.501 . S
C46 H47 0.961 . S
C46 H48 0.961 . S
C46 H49 0.960 . S
H47 C46 0.961 . S
H48 C46 0.961 . S
H49 C46 0.960 . S
C50 N51 1.342 . S
C50 C54 1.401 . S
C50 C55 1.499 . S
N51 Co34 1.989 . S
N51 C50 1.342 . S
N51 N52 1.388 . S
N52 Co35 1.993 . S
N52 N51 1.388 . S
N52 C53 1.346 . S
C53 N52 1.346 . S
C53 C54 1.396 . S
C53 C63 1.510 . S
C54 C50 1.401 . S
C54 C53 1.396 . S
C55 C50 1.499 . S
C55 H56 0.959 . S
C55 H57 0.960 . S
C55 H58 0.961 . S
H56 C55 0.959 . S
H57 C55 0.960 . S
H58 C55 0.961 . S
O59 Co34 1.967 . S
O59 C67 1.258 . S
O60 Co35 1.941 . S
O60 C67 1.266 . S
H61 C63 0.959 . S
H62 C63 0.961 . S
C63 C53 1.510 . S
C63 H61 0.959 . S
C63 H62 0.961 . S
C63 H64 0.960 . S
H64 C63 0.960 . S
H65 N45 0.862 . S
O66 Co34 1.920 . S
O66 C39 1.289 . S
C67 O59 1.258 . S
C67 O60 1.266 . S
Co68 O71 1.970 . S
Co68 N85 1.989 . S
Co68 O93 1.967 . S
Co68 O100 1.920 . S
Co69 O72 1.966 . S
Co69 N78 2.022 . S
Co69 N86 1.993 . S
Co69 O94 1.941 . S
C70 O71 1.258 . S
C70 O72 1.263 . S
O71 Co68 1.970 . S
O71 C70 1.258 . S
O72 Co69 1.966 . S
O72 C70 1.263 . S
C73 O74 1.235 . S
C73 O100 1.289 . S
O74 C73 1.235 . S
C75 C77 1.400 . S
C75 N78 1.351 . S
C75 C80 1.501 . S
C76 C77 1.387 . S
C76 N79 1.341 . S
C77 C75 1.400 . S
C77 C76 1.387 . S
N78 Co69 2.022 . S
N78 C75 1.351 . S
N78 N79 1.365 . S
N79 C76 1.341 . S
N79 N78 1.365 . S
N79 H99 0.862 . S
C80 C75 1.501 . S
C80 H81 0.961 . S
C80 H82 0.961 . S
C80 H83 0.960 . S
H81 C80 0.961 . S
H82 C80 0.961 . S
H83 C80 0.960 . S
C84 N85 1.342 1_545 S
C84 C88 1.401 . S
C84 C89 1.499 . S
N85 Co68 1.989 . S
N85 C84 1.342 1_565 S
N85 N86 1.388 . S
N86 Co69 1.993 . S
N86 N85 1.388 . S
N86 C87 1.346 1_565 S
C87 N86 1.346 1_545 S
C87 C88 1.396 . S
C87 C97 1.510 . S
C88 C84 1.401 . S
C88 C87 1.396 . S
C89 C84 1.499 . S
C89 H90 0.959 1_545 S
C89 H91 0.960 . S
C89 H92 0.961 . S
H90 C89 0.959 1_565 S
H91 C89 0.960 . S
H92 C89 0.961 . S
O93 Co68 1.967 . S
O93 C101 1.258 . S
O94 Co69 1.941 . S
O94 C101 1.266 . S
H95 C97 0.959 . S
H96 C97 0.961 . S
C97 C87 1.510 . S
C97 H95 0.959 . S
C97 H96 0.961 . S
C97 H98 0.960 . S
H98 C97 0.960 . S
H99 N79 0.862 . S
O100 Co68 1.920 . S
O100 C73 1.289 . S
C101 O93 1.258 . S
C101 O94 1.266 . S
Co102 O105 1.970 . S
Co102 N119 1.989 . S
Co102 O127 1.967 . S
Co102 O134 1.920 . S
Co103 O106 1.966 . S
Co103 N112 2.022 . S
Co103 N120 1.993 . S
Co103 O128 1.941 . S
C104 O105 1.258 . S
C104 O106 1.263 . S
O105 Co102 1.970 . S
O105 C104 1.258 . S
O106 Co103 1.966 . S
O106 C104 1.263 . S
C107 O108 1.235 . S
C107 O134 1.289 . S
O108 C107 1.235 . S
C109 C111 1.400 . S
C109 N112 1.351 . S
C109 C114 1.501 . S
C110 C111 1.387 . S
C110 N113 1.341 . S
C111 C109 1.400 . S
C111 C110 1.387 . S
N112 Co103 2.022 . S
N112 C109 1.351 . S
N112 N113 1.365 . S
N113 C110 1.341 . S
N113 N112 1.365 . S
N113 H133 0.862 . S
C114 C109 1.501 . S
C114 H115 0.961 . S
C114 H116 0.961 . S
C114 H117 0.960 . S
H115 C114 0.961 . S
H116 C114 0.961 . S
H117 C114 0.960 . S
C118 N119 1.342 . S
C118 C122 1.401 . S
C118 C123 1.499 . S
N119 Co102 1.989 . S
N119 C118 1.342 . S
N119 N120 1.388 . S
N120 Co103 1.993 . S
N120 N119 1.388 . S
N120 C121 1.346 . S
C121 N120 1.346 . S
C121 C122 1.396 . S
C121 C131 1.510 . S
C122 C118 1.401 . S
C122 C121 1.396 . S
C123 C118 1.499 . S
C123 H124 0.959 . S
C123 H125 0.960 . S
C123 H126 0.961 . S
H124 C123 0.959 . S
H125 C123 0.960 . S
H126 C123 0.961 . S
O127 Co102 1.967 . S
O127 C135 1.258 . S
O128 Co103 1.941 . S
O128 C135 1.266 . S
H129 C131 0.959 . S
H130 C131 0.961 . S
C131 C121 1.510 . S
C131 H129 0.959 . S
C131 H130 0.961 . S
C131 H132 0.960 . S
H132 C131 0.960 . S
H133 N113 0.862 . S
O134 Co102 1.920 . S
O134 C107 1.289 . S
C135 O127 1.258 . S
C135 O128 1.266 . S
Co136 O139 1.970 . S
Co136 N153 1.989 . S
Co136 O161 1.967 . S
Co136 O168 1.920 . S
Co137 O140 1.966 . S
Co137 N146 2.022 . S
Co137 N154 1.993 . S
Co137 O162 1.941 . S
C138 O139 1.258 . S
C138 O140 1.263 . S
O139 Co136 1.970 . S
O139 C138 1.258 . S
O140 Co137 1.966 . S
O140 C138 1.263 . S
C141 O142 1.235 . S
C141 O168 1.289 . S
O142 C141 1.235 . S
C143 C145 1.400 . S
C143 N146 1.351 . S
C143 C148 1.501 . S
C144 C145 1.387 . S
C144 N147 1.341 . S
C145 C143 1.400 . S
C145 C144 1.387 . S
N146 Co137 2.022 . S
N146 C143 1.351 . S
N146 N147 1.365 . S
N147 C144 1.341 . S
N147 N146 1.365 . S
N147 H167 0.862 . S
C148 C143 1.501 . S
C148 H149 0.961 . S
C148 H150 0.961 . S
C148 H151 0.960 . S
H149 C148 0.961 . S
H150 C148 0.961 . S
H151 C148 0.960 . S
C152 N153 1.342 1_545 S
C152 C156 1.401 . S
C152 C157 1.499 . S
N153 Co136 1.989 . S
N153 C152 1.342 1_565 S
N153 N154 1.388 . S
N154 Co137 1.993 . S
N154 N153 1.388 . S
N154 C155 1.346 1_565 S
C155 N154 1.346 1_545 S
C155 C156 1.396 . S
C155 C165 1.510 . S
C156 C152 1.401 . S
C156 C155 1.396 . S
C157 C152 1.499 . S
C157 H158 0.959 1_545 S
C157 H159 0.960 . S
C157 H160 0.961 . S
H158 C157 0.959 1_565 S
H159 C157 0.960 . S
H160 C157 0.961 . S
O161 Co136 1.967 . S
O161 C169 1.258 . S
O162 Co137 1.941 . S
O162 C169 1.266 . S
H163 C165 0.959 . S
H164 C165 0.961 . S
C165 C155 1.510 . S
C165 H163 0.959 . S
C165 H164 0.961 . S
C165 H166 0.960 . S
H166 C165 0.960 . S
H167 N147 0.862 . S
O168 Co136 1.920 . S
O168 C141 1.289 . S
C169 O161 1.258 . S
C169 O162 1.266 . S
Co170 O173 1.970 . S
Co170 N187 1.989 . S
Co170 O195 1.967 . S
Co170 O202 1.920 . S
Co171 O174 1.966 . S
Co171 N180 2.022 . S
Co171 N188 1.993 . S
Co171 O196 1.941 . S
C172 O173 1.258 . S
C172 O174 1.263 . S
O173 Co170 1.970 . S
O173 C172 1.258 . S
O174 Co171 1.966 . S
O174 C172 1.263 . S
C175 O176 1.235 . S
C175 O202 1.289 . S
O176 C175 1.235 . S
C177 C179 1.400 . S
C177 N180 1.351 . S
C177 C182 1.501 . S
C178 C179 1.387 . S
C178 N181 1.341 . S
C179 C177 1.400 . S
C179 C178 1.387 . S
N180 Co171 2.022 . S
N180 C177 1.351 . S
N180 N181 1.365 . S
N181 C178 1.341 . S
N181 N180 1.365 . S
N181 H201 0.862 . S
C182 C177 1.501 . S
C182 H183 0.961 . S
C182 H184 0.961 . S
C182 H185 0.960 . S
H183 C182 0.961 . S
H184 C182 0.961 . S
H185 C182 0.960 . S
C186 N187 1.342 . S
C186 C190 1.401 . S
C186 C191 1.499 . S
N187 Co170 1.989 . S
N187 C186 1.342 . S
N187 N188 1.388 . S
N188 Co171 1.993 . S
N188 N187 1.388 . S
N188 C189 1.346 . S
C189 N188 1.346 . S
C189 C190 1.396 . S
C189 C199 1.510 . S
C190 C186 1.401 . S
C190 C189 1.396 . S
C191 C186 1.499 . S
C191 H192 0.959 . S
C191 H193 0.960 . S
C191 H194 0.961 . S
H192 C191 0.959 . S
H193 C191 0.960 . S
H194 C191 0.961 . S
O195 Co170 1.967 . S
O195 C203 1.258 . S
O196 Co171 1.941 . S
O196 C203 1.266 . S
H197 C199 0.959 . S
H198 C199 0.961 . S
C199 C189 1.510 . S
C199 H197 0.959 . S
C199 H198 0.961 . S
C199 H200 0.960 . S
H200 C199 0.960 . S
H201 N181 0.862 . S
O202 Co170 1.920 . S
O202 C175 1.289 . S
C203 O195 1.258 . S
C203 O196 1.266 . S
Co204 O207 1.970 . S
Co204 N221 1.989 . S
Co204 O229 1.967 . S
Co204 O236 1.920 . S
Co205 O208 1.966 . S
Co205 N214 2.022 . S
Co205 N222 1.993 . S
Co205 O230 1.941 . S
C206 O207 1.258 . S
C206 O208 1.263 . S
O207 Co204 1.970 . S
O207 C206 1.258 . S
O208 Co205 1.966 . S
O208 C206 1.263 . S
C209 O210 1.235 . S
C209 O236 1.289 . S
O210 C209 1.235 . S
C211 C213 1.400 . S
C211 N214 1.351 . S
C211 C216 1.501 . S
C212 C213 1.387 . S
C212 N215 1.341 . S
C213 C211 1.400 . S
C213 C212 1.387 . S
N214 Co205 2.022 . S
N214 C211 1.351 . S
N214 N215 1.365 . S
N215 C212 1.341 . S
N215 N214 1.365 . S
N215 H235 0.862 . S
C216 C211 1.501 . S
C216 H217 0.961 . S
C216 H218 0.961 . S
C216 H219 0.960 . S
H217 C216 0.961 . S
H218 C216 0.961 . S
H219 C216 0.960 . S
C220 N221 1.342 1_565 S
C220 C224 1.401 . S
C220 C225 1.499 . S
N221 Co204 1.989 . S
N221 C220 1.342 1_545 S
N221 N222 1.388 . S
N222 Co205 1.993 . S
N222 N221 1.388 . S
N222 C223 1.346 1_545 S
C223 N222 1.346 1_565 S
C223 C224 1.396 . S
C223 C233 1.510 . S
C224 C220 1.401 . S
C224 C223 1.396 . S
C225 C220 1.499 . S
C225 H226 0.959 1_565 S
C225 H227 0.960 . S
C225 H228 0.961 . S
H226 C225 0.959 1_545 S
H227 C225 0.960 . S
H228 C225 0.961 . S
O229 Co204 1.967 . S
O229 C237 1.258 . S
O230 Co205 1.941 . S
O230 C237 1.266 . S
H231 C233 0.959 . S
H232 C233 0.961 . S
C233 C223 1.510 . S
C233 H231 0.959 . S
C233 H232 0.961 . S
C233 H234 0.960 . S
H234 C233 0.960 . S
H235 N215 0.862 . S
O236 Co204 1.920 . S
O236 C209 1.289 . S
C237 O229 1.258 . S
C237 O230 1.266 . S
Co238 O241 1.970 . S
Co238 N255 1.989 . S
Co238 O263 1.967 . S
Co238 O270 1.920 . S
Co239 O242 1.966 . S
Co239 N248 2.022 . S
Co239 N256 1.993 . S
Co239 O264 1.941 . S
C240 O241 1.258 . S
C240 O242 1.263 . S
O241 Co238 1.970 . S
O241 C240 1.258 . S
O242 Co239 1.966 . S
O242 C240 1.263 . S
C243 O244 1.235 . S
C243 O270 1.289 . S
O244 C243 1.235 . S
C245 C247 1.400 . S
C245 N248 1.351 . S
C245 C250 1.501 . S
C246 C247 1.387 . S
C246 N249 1.341 . S
C247 C245 1.400 . S
C247 C246 1.387 . S
N248 Co239 2.022 . S
N248 C245 1.351 . S
N248 N249 1.365 . S
N249 C246 1.341 . S
N249 N248 1.365 . S
N249 H269 0.862 . S
C250 C245 1.501 . S
C250 H251 0.961 . S
C250 H252 0.961 . S
C250 H253 0.960 . S
H251 C250 0.961 . S
H252 C250 0.961 . S
H253 C250 0.960 . S
C254 N255 1.342 . S
C254 C258 1.401 . S
C254 C259 1.499 . S
N255 Co238 1.989 . S
N255 C254 1.342 . S
N255 N256 1.388 . S
N256 Co239 1.993 . S
N256 N255 1.388 . S
N256 C257 1.346 . S
C257 N256 1.346 . S
C257 C258 1.396 . S
C257 C267 1.510 . S
C258 C254 1.401 . S
C258 C257 1.396 . S
C259 C254 1.499 . S
C259 H260 0.959 . S
C259 H261 0.960 . S
C259 H262 0.961 . S
H260 C259 0.959 . S
H261 C259 0.960 . S
H262 C259 0.961 . S
O263 Co238 1.967 . S
O263 C271 1.258 . S
O264 Co239 1.941 . S
O264 C271 1.266 . S
H265 C267 0.959 . S
H266 C267 0.961 . S
C267 C257 1.510 . S
C267 H265 0.959 . S
C267 H266 0.961 . S
C267 H268 0.960 . S
H268 C267 0.960 . S
H269 N249 0.862 . S
O270 Co238 1.920 . S
O270 C243 1.289 . S
C271 O263 1.258 . S
C271 O264 1.266 . S
Co272 O275 1.970 . S
Co272 N289 1.989 . S
Co272 O297 1.967 . S
Co272 O304 1.920 . S
Co273 O276 1.966 . S
Co273 N282 2.022 . S
Co273 N290 1.993 . S
Co273 O298 1.941 . S
C274 O275 1.258 . S
C274 O276 1.263 . S
O275 Co272 1.970 . S
O275 C274 1.258 . S
O276 Co273 1.966 . S
O276 C274 1.263 . S
C277 O278 1.235 . S
C277 O304 1.289 . S
O278 C277 1.235 . S
C279 C281 1.400 . S
C279 N282 1.351 . S
C279 C284 1.501 . S
C280 C281 1.387 . S
C280 N283 1.341 . S
C281 C279 1.400 . S
C281 C280 1.387 . S
N282 Co273 2.022 . S
N282 C279 1.351 . S
N282 N283 1.365 . S
N283 C280 1.341 . S
N283 N282 1.365 . S
N283 H303 0.862 . S
C284 C279 1.501 . S
C284 H285 0.961 . S
C284 H286 0.961 . S
C284 H287 0.960 . S
H285 C284 0.961 . S
H286 C284 0.961 . S
H287 C284 0.960 . S
C288 N289 1.342 1_545 S
C288 C292 1.401 . S
C288 C293 1.499 . S
N289 Co272 1.989 . S
N289 C288 1.342 1_565 S
N289 N290 1.388 . S
N290 Co273 1.993 . S
N290 N289 1.388 . S
N290 C291 1.346 1_565 S
C291 N290 1.346 1_545 S
C291 C292 1.396 . S
C291 C301 1.510 . S
C292 C288 1.401 . S
C292 C291 1.396 . S
C293 C288 1.499 . S
C293 H294 0.959 1_545 S
C293 H295 0.960 . S
C293 H296 0.961 . S
H294 C293 0.959 1_565 S
H295 C293 0.960 . S
H296 C293 0.961 . S
O297 Co272 1.967 . S
O297 C305 1.258 . S
O298 Co273 1.941 . S
O298 C305 1.266 . S
H299 C301 0.959 . S
H300 C301 0.961 . S
C301 C291 1.510 . S
C301 H299 0.959 . S
C301 H300 0.961 . S
C301 H302 0.960 . S
H302 C301 0.960 . S
H303 N283 0.862 . S
O304 Co272 1.920 . S
O304 C277 1.289 . S
C305 O297 1.258 . S
C305 O298 1.266 . S
Co306 O309 1.970 . S
Co306 N323 1.989 . S
Co306 O331 1.967 . S
Co306 O338 1.920 . S
Co307 O310 1.966 . S
Co307 N316 2.022 . S
Co307 N324 1.993 . S
Co307 O332 1.941 . S
C308 O309 1.258 . S
C308 O310 1.263 . S
O309 Co306 1.970 . S
O309 C308 1.258 . S
O310 Co307 1.966 . S
O310 C308 1.263 . S
C311 O312 1.235 . S
C311 O338 1.289 . S
O312 C311 1.235 . S
C313 C315 1.400 . S
C313 N316 1.351 . S
C313 C318 1.501 . S
C314 C315 1.387 . S
C314 N317 1.341 . S
C315 C313 1.400 . S
C315 C314 1.387 . S
N316 Co307 2.022 . S
N316 C313 1.351 . S
N316 N317 1.365 . S
N317 C314 1.341 . S
N317 N316 1.365 . S
N317 H337 0.862 . S
C318 C313 1.501 . S
C318 H319 0.961 . S
C318 H320 0.961 . S
C318 H321 0.960 . S
H319 C318 0.961 . S
H320 C318 0.961 . S
H321 C318 0.960 . S
C322 N323 1.342 . S
C322 C326 1.401 . S
C322 C327 1.499 . S
N323 Co306 1.989 . S
N323 C322 1.342 . S
N323 N324 1.388 . S
N324 Co307 1.993 . S
N324 N323 1.388 . S
N324 C325 1.346 . S
C325 N324 1.346 . S
C325 C326 1.396 . S
C325 C335 1.510 . S
C326 C322 1.401 . S
C326 C325 1.396 . S
C327 C322 1.499 . S
C327 H328 0.959 . S
C327 H329 0.960 . S
C327 H330 0.961 . S
H328 C327 0.959 . S
H329 C327 0.960 . S
H330 C327 0.961 . S
O331 Co306 1.967 . S
O331 C339 1.258 . S
O332 Co307 1.941 . S
O332 C339 1.266 . S
H333 C335 0.959 . S
H334 C335 0.961 . S
C335 C325 1.510 . S
C335 H333 0.959 . S
C335 H334 0.961 . S
C335 H336 0.960 . S
H336 C335 0.960 . S
H337 N317 0.862 . S
O338 Co306 1.920 . S
O338 C311 1.289 . S
C339 O331 1.258 . S
C339 O332 1.266 . S
Co340 O343 1.970 . S
Co340 N357 1.989 . S
Co340 O365 1.967 . S
Co340 O372 1.920 . S
Co341 O344 1.966 . S
Co341 N350 2.022 . S
Co341 N358 1.993 . S
Co341 O366 1.941 . S
C342 O343 1.258 . S
C342 O344 1.263 . S
O343 Co340 1.970 . S
O343 C342 1.258 . S
O344 Co341 1.966 . S
O344 C342 1.263 . S
C345 O346 1.235 . S
C345 O372 1.289 . S
O346 C345 1.235 . S
C347 C349 1.400 . S
C347 N350 1.351 . S
C347 C352 1.501 . S
C348 C349 1.387 . S
C348 N351 1.341 . S
C349 C347 1.400 . S
C349 C348 1.387 . S
N350 Co341 2.022 . S
N350 C347 1.351 . S
N350 N351 1.365 . S
N351 C348 1.341 . S
N351 N350 1.365 . S
N351 H371 0.862 . S
C352 C347 1.501 . S
C352 H353 0.961 . S
C352 H354 0.961 . S
C352 H355 0.960 . S
H353 C352 0.961 . S
H354 C352 0.961 . S
H355 C352 0.960 . S
C356 N357 1.342 1_565 S
C356 C360 1.401 . S
C356 C361 1.499 . S
N357 Co340 1.989 . S
N357 C356 1.342 1_545 S
N357 N358 1.388 . S
N358 Co341 1.993 . S
N358 N357 1.388 . S
N358 C359 1.346 1_545 S
C359 N358 1.346 1_565 S
C359 C360 1.396 . S
C359 C369 1.510 . S
C360 C356 1.401 . S
C360 C359 1.396 . S
C361 C356 1.499 . S
C361 H362 0.959 1_565 S
C361 H363 0.960 . S
C361 H364 0.961 . S
H362 C361 0.959 1_545 S
H363 C361 0.960 . S
H364 C361 0.961 . S
O365 Co340 1.967 . S
O365 C373 1.258 . S
O366 Co341 1.941 . S
O366 C373 1.266 . S
H367 C369 0.959 . S
H368 C369 0.961 . S
C369 C359 1.510 . S
C369 H367 0.959 . S
C369 H368 0.961 . S
C369 H370 0.960 . S
H370 C369 0.960 . S
H371 N351 0.862 . S
O372 Co340 1.920 . S
O372 C345 1.289 . S
C373 O365 1.258 . S
C373 O366 1.266 . S
Co374 O377 1.970 . S
Co374 N391 1.989 . S
Co374 O399 1.967 . S
Co374 O406 1.920 . S
Co375 O378 1.966 . S
Co375 N384 2.022 . S
Co375 N392 1.993 . S
Co375 O400 1.941 . S
C376 O377 1.258 . S
C376 O378 1.263 . S
O377 Co374 1.970 . S
O377 C376 1.258 . S
O378 Co375 1.966 . S
O378 C376 1.263 . S
C379 O380 1.235 . S
C379 O406 1.289 . S
O380 C379 1.235 . S
C381 C383 1.400 . S
C381 N384 1.351 . S
C381 C386 1.501 . S
C382 C383 1.387 . S
C382 N385 1.341 . S
C383 C381 1.400 . S
C383 C382 1.387 . S
N384 Co375 2.022 . S
N384 C381 1.351 . S
N384 N385 1.365 . S
N385 C382 1.341 . S
N385 N384 1.365 . S
N385 H405 0.862 . S
C386 C381 1.501 . S
C386 H387 0.961 . S
C386 H388 0.961 . S
C386 H389 0.960 . S
H387 C386 0.961 . S
H388 C386 0.961 . S
H389 C386 0.960 . S
C390 N391 1.342 . S
C390 C394 1.401 . S
C390 C395 1.499 . S
N391 Co374 1.989 . S
N391 C390 1.342 . S
N391 N392 1.388 . S
N392 Co375 1.993 . S
N392 N391 1.388 . S
N392 C393 1.346 . S
C393 N392 1.346 . S
C393 C394 1.396 . S
C393 C403 1.510 . S
C394 C390 1.401 . S
C394 C393 1.396 . S
C395 C390 1.499 . S
C395 H396 0.959 . S
C395 H397 0.960 . S
C395 H398 0.961 . S
H396 C395 0.959 . S
H397 C395 0.960 . S
H398 C395 0.961 . S
O399 Co374 1.967 . S
O399 C407 1.258 . S
O400 Co375 1.941 . S
O400 C407 1.266 . S
H401 C403 0.959 . S
H402 C403 0.961 . S
C403 C393 1.510 . S
C403 H401 0.959 . S
C403 H402 0.961 . S
C403 H404 0.960 . S
H404 C403 0.960 . S
H405 N385 0.862 . S
O406 Co374 1.920 . S
O406 C379 1.289 . S
C407 O399 1.258 . S
C407 O400 1.266 . S
Co408 O411 1.970 . S
Co408 N425 1.989 . S
Co408 O433 1.967 . S
Co408 O440 1.920 . S
Co409 O412 1.966 . S
Co409 N418 2.022 . S
Co409 N426 1.993 . S
Co409 O434 1.941 . S
C410 O411 1.258 . S
C410 O412 1.263 . S
O411 Co408 1.970 . S
O411 C410 1.258 . S
O412 Co409 1.966 . S
O412 C410 1.263 . S
C413 O414 1.235 . S
C413 O440 1.289 . S
O414 C413 1.235 . S
C415 C417 1.400 . S
C415 N418 1.351 . S
C415 C420 1.501 . S
C416 C417 1.387 . S
C416 N419 1.341 . S
C417 C415 1.400 . S
C417 C416 1.387 . S
N418 Co409 2.022 . S
N418 C415 1.351 . S
N418 N419 1.365 . S
N419 C416 1.341 . S
N419 N418 1.365 . S
N419 H439 0.862 . S
C420 C415 1.501 . S
C420 H421 0.961 . S
C420 H422 0.961 . S
C420 H423 0.960 . S
H421 C420 0.961 . S
H422 C420 0.961 . S
H423 C420 0.960 . S
C424 N425 1.342 1_565 S
C424 C428 1.401 . S
C424 C429 1.499 . S
N425 Co408 1.989 . S
N425 C424 1.342 1_545 S
N425 N426 1.388 . S
N426 Co409 1.993 . S
N426 N425 1.388 . S
N426 C427 1.346 1_545 S
C427 N426 1.346 1_565 S
C427 C428 1.396 . S
C427 C437 1.510 . S
C428 C424 1.401 . S
C428 C427 1.396 . S
C429 C424 1.499 . S
C429 H430 0.959 1_565 S
C429 H431 0.960 . S
C429 H432 0.961 . S
H430 C429 0.959 1_545 S
H431 C429 0.960 . S
H432 C429 0.961 . S
O433 Co408 1.967 . S
O433 C441 1.258 . S
O434 Co409 1.941 . S
O434 C441 1.266 . S
H435 C437 0.959 . S
H436 C437 0.961 . S
C437 C427 1.510 . S
C437 H435 0.959 . S
C437 H436 0.961 . S
C437 H438 0.960 . S
H438 C437 0.960 . S
H439 N419 0.862 . S
O440 Co408 1.920 . S
O440 C413 1.289 . S
C441 O433 1.258 . S
C441 O434 1.266 . S
Co442 O445 1.970 . S
Co442 N459 1.989 . S
Co442 O467 1.967 . S
Co442 O474 1.920 . S
Co443 O446 1.966 . S
Co443 N452 2.022 . S
Co443 N460 1.993 . S
Co443 O468 1.941 . S
C444 O445 1.258 . S
C444 O446 1.263 . S
O445 Co442 1.970 . S
O445 C444 1.258 . S
O446 Co443 1.966 . S
O446 C444 1.263 . S
C447 O448 1.235 . S
C447 O474 1.289 . S
O448 C447 1.235 . S
C449 C451 1.400 . S
C449 N452 1.351 . S
C449 C454 1.501 . S
C450 C451 1.387 . S
C450 N453 1.341 . S
C451 C449 1.400 . S
C451 C450 1.387 . S
N452 Co443 2.022 . S
N452 C449 1.351 . S
N452 N453 1.365 . S
N453 C450 1.341 . S
N453 N452 1.365 . S
N453 H473 0.862 . S
C454 C449 1.501 . S
C454 H455 0.961 . S
C454 H456 0.961 . S
C454 H457 0.960 . S
H455 C454 0.961 . S
H456 C454 0.961 . S
H457 C454 0.960 . S
C458 N459 1.342 . S
C458 C462 1.401 . S
C458 C463 1.499 . S
N459 Co442 1.989 . S
N459 C458 1.342 . S
N459 N460 1.388 . S
N460 Co443 1.993 . S
N460 N459 1.388 . S
N460 C461 1.346 . S
C461 N460 1.346 . S
C461 C462 1.396 . S
C461 C471 1.510 . S
C462 C458 1.401 . S
C462 C461 1.396 . S
C463 C458 1.499 . S
C463 H464 0.959 . S
C463 H465 0.960 . S
C463 H466 0.961 . S
H464 C463 0.959 . S
H465 C463 0.960 . S
H466 C463 0.961 . S
O467 Co442 1.967 . S
O467 C475 1.258 . S
O468 Co443 1.941 . S
O468 C475 1.266 . S
H469 C471 0.959 . S
H470 C471 0.961 . S
C471 C461 1.510 . S
C471 H469 0.959 . S
C471 H470 0.961 . S
C471 H472 0.960 . S
H472 C471 0.960 . S
H473 N453 0.862 . S
O474 Co442 1.920 . S
O474 C447 1.289 . S
C475 O467 1.258 . S
C475 O468 1.266 . S
Co476 O479 1.970 . S
Co476 N493 1.989 . S
Co476 O501 1.967 . S
Co476 O508 1.920 . S
Co477 O480 1.966 . S
Co477 N486 2.022 . S
Co477 N494 1.993 . S
Co477 O502 1.941 . S
C478 O479 1.258 . S
C478 O480 1.263 . S
O479 Co476 1.970 . S
O479 C478 1.258 . S
O480 Co477 1.966 . S
O480 C478 1.263 . S
C481 O482 1.235 . S
C481 O508 1.289 . S
O482 C481 1.235 . S
C483 C485 1.400 . S
C483 N486 1.351 . S
C483 C488 1.501 . S
C484 C485 1.387 . S
C484 N487 1.341 . S
C485 C483 1.400 . S
C485 C484 1.387 . S
N486 Co477 2.022 . S
N486 C483 1.351 . S
N486 N487 1.365 . S
N487 C484 1.341 . S
N487 N486 1.365 . S
N487 H507 0.862 . S
C488 C483 1.501 . S
C488 H489 0.961 . S
C488 H490 0.961 . S
C488 H491 0.960 . S
H489 C488 0.961 . S
H490 C488 0.961 . S
H491 C488 0.960 . S
C492 N493 1.342 1_545 S
C492 C496 1.401 . S
C492 C497 1.499 . S
N493 Co476 1.989 . S
N493 C492 1.342 1_565 S
N493 N494 1.388 . S
N494 Co477 1.993 . S
N494 N493 1.388 . S
N494 C495 1.346 1_565 S
C495 N494 1.346 1_545 S
C495 C496 1.396 . S
C495 C505 1.510 . S
C496 C492 1.401 . S
C496 C495 1.396 . S
C497 C492 1.499 . S
C497 H498 0.959 1_545 S
C497 H499 0.960 . S
C497 H500 0.961 . S
H498 C497 0.959 1_565 S
H499 C497 0.960 . S
H500 C497 0.961 . S
O501 Co476 1.967 . S
O501 C509 1.258 . S
O502 Co477 1.941 . S
O502 C509 1.266 . S
H503 C505 0.959 . S
H504 C505 0.961 . S
C505 C495 1.510 . S
C505 H503 0.959 . S
C505 H504 0.961 . S
C505 H506 0.960 . S
H506 C505 0.960 . S
H507 N487 0.862 . S
O508 Co476 1.920 . S
O508 C481 1.289 . S
C509 O501 1.258 . S
C509 O502 1.266 . S
Co510 O513 1.970 . S
Co510 N527 1.989 . S
Co510 O535 1.967 . S
Co510 O542 1.920 . S
Co511 O514 1.966 . S
Co511 N520 2.022 . S
Co511 N528 1.993 . S
Co511 O536 1.941 . S
C512 O513 1.258 . S
C512 O514 1.263 . S
O513 Co510 1.970 . S
O513 C512 1.258 . S
O514 Co511 1.966 . S
O514 C512 1.263 . S
C515 O516 1.235 . S
C515 O542 1.289 . S
O516 C515 1.235 . S
C517 C519 1.400 . S
C517 N520 1.351 . S
C517 C522 1.501 . S
C518 C519 1.387 . S
C518 N521 1.341 . S
C519 C517 1.400 . S
C519 C518 1.387 . S
N520 Co511 2.022 . S
N520 C517 1.351 . S
N520 N521 1.365 . S
N521 C518 1.341 . S
N521 N520 1.365 . S
N521 H541 0.862 . S
C522 C517 1.501 . S
C522 H523 0.961 . S
C522 H524 0.961 . S
C522 H525 0.960 . S
H523 C522 0.961 . S
H524 C522 0.961 . S
H525 C522 0.960 . S
C526 N527 1.342 . S
C526 C530 1.401 . S
C526 C531 1.499 . S
N527 Co510 1.989 . S
N527 C526 1.342 . S
N527 N528 1.388 . S
N528 Co511 1.993 . S
N528 N527 1.388 . S
N528 C529 1.346 . S
C529 N528 1.346 . S
C529 C530 1.396 . S
C529 C539 1.510 . S
C530 C526 1.401 . S
C530 C529 1.396 . S
C531 C526 1.499 . S
C531 H532 0.959 . S
C531 H533 0.960 . S
C531 H534 0.961 . S
H532 C531 0.959 . S
H533 C531 0.960 . S
H534 C531 0.961 . S
O535 Co510 1.967 . S
O535 C543 1.258 . S
O536 Co511 1.941 . S
O536 C543 1.266 . S
H537 C539 0.959 . S
H538 C539 0.961 . S
C539 C529 1.510 . S
C539 H537 0.959 . S
C539 H538 0.961 . S
C539 H540 0.960 . S
H540 C539 0.960 . S
H541 N521 0.862 . S
O542 Co510 1.920 . S
O542 C515 1.289 . S
C543 O535 1.258 . S
C543 O536 1.266 . S
Co544 O547 1.970 . S
Co544 N561 1.989 . S
Co544 O569 1.967 . S
Co544 O576 1.920 . S
Co545 O548 1.966 . S
Co545 N554 2.022 . S
Co545 N562 1.993 . S
Co545 O570 1.941 . S
C546 O547 1.258 . S
C546 O548 1.263 . S
O547 Co544 1.970 . S
O547 C546 1.258 . S
O548 Co545 1.966 . S
O548 C546 1.263 . S
C549 O550 1.235 . S
C549 O576 1.289 . S
O550 C549 1.235 . S
C551 C553 1.400 . S
C551 N554 1.351 . S
C551 C556 1.501 . S
C552 C553 1.387 . S
C552 N555 1.341 . S
C553 C551 1.400 . S
C553 C552 1.387 . S
N554 Co545 2.022 . S
N554 C551 1.351 . S
N554 N555 1.365 . S
N555 C552 1.341 . S
N555 N554 1.365 . S
N555 H575 0.862 . S
C556 C551 1.501 . S
C556 H557 0.961 . S
C556 H558 0.961 . S
C556 H559 0.960 . S
H557 C556 0.961 . S
H558 C556 0.961 . S
H559 C556 0.960 . S
C560 N561 1.342 . S
C560 C564 1.401 . S
C560 C565 1.499 . S
N561 Co544 1.989 . S
N561 C560 1.342 . S
N561 N562 1.388 . S
N562 Co545 1.993 . S
N562 N561 1.388 . S
N562 C563 1.346 . S
C563 N562 1.346 . S
C563 C564 1.396 . S
C563 C573 1.510 . S
C564 C560 1.401 . S
C564 C563 1.396 . S
C565 C560 1.499 . S
C565 H566 0.959 . S
C565 H567 0.960 . S
C565 H568 0.961 . S
H566 C565 0.959 . S
H567 C565 0.960 . S
H568 C565 0.961 . S
O569 Co544 1.967 . S
O569 C577 1.258 . S
O570 Co545 1.941 . S
O570 C577 1.266 . S
H571 C573 0.959 . S
H572 C573 0.961 . S
C573 C563 1.510 . S
C573 H571 0.959 . S
C573 H572 0.961 . S
C573 H574 0.960 . S
H574 C573 0.960 . S
H575 N555 0.862 . S
O576 Co544 1.920 . S
O576 C549 1.289 . S
C577 O569 1.258 . S
C577 O570 1.266 . S
Co578 O581 1.970 . S
Co578 N595 1.989 . S
Co578 O603 1.967 . S
Co578 O610 1.920 . S
Co579 O582 1.966 . S
Co579 N588 2.022 . S
Co579 N596 1.993 . S
Co579 O604 1.941 . S
C580 O581 1.258 . S
C580 O582 1.263 . S
O581 Co578 1.970 . S
O581 C580 1.258 . S
O582 Co579 1.966 . S
O582 C580 1.263 . S
C583 O584 1.235 . S
C583 O610 1.289 . S
O584 C583 1.235 . S
C585 C587 1.400 . S
C585 N588 1.351 . S
C585 C590 1.501 . S
C586 C587 1.387 . S
C586 N589 1.341 . S
C587 C585 1.400 . S
C587 C586 1.387 . S
N588 Co579 2.022 . S
N588 C585 1.351 . S
N588 N589 1.365 . S
N589 C586 1.341 . S
N589 N588 1.365 . S
N589 H609 0.862 . S
C590 C585 1.501 . S
C590 H591 0.961 . S
C590 H592 0.961 . S
C590 H593 0.960 . S
H591 C590 0.961 . S
H592 C590 0.961 . S
H593 C590 0.960 . S
C594 N595 1.342 . S
C594 C598 1.401 . S
C594 C599 1.499 . S
N595 Co578 1.989 . S
N595 C594 1.342 . S
N595 N596 1.388 . S
N596 Co579 1.993 . S
N596 N595 1.388 . S
N596 C597 1.346 . S
C597 N596 1.346 . S
C597 C598 1.396 . S
C597 C607 1.510 . S
C598 C594 1.401 . S
C598 C597 1.396 . S
C599 C594 1.499 . S
C599 H600 0.959 . S
C599 H601 0.960 . S
C599 H602 0.961 . S
H600 C599 0.959 . S
H601 C599 0.960 . S
H602 C599 0.961 . S
O603 Co578 1.967 . S
O603 C611 1.258 . S
O604 Co579 1.941 . S
O604 C611 1.266 . S
H605 C607 0.959 . S
H606 C607 0.961 . S
C607 C597 1.510 . S
C607 H605 0.959 . S
C607 H606 0.961 . S
C607 H608 0.960 . S
H608 C607 0.960 . S
H609 N589 0.862 . S
O610 Co578 1.920 . S
O610 C583 1.289 . S
C611 O603 1.258 . S
C611 O604 1.266 . S
Co612 O615 1.970 . S
Co612 N629 1.989 . S
Co612 O637 1.967 . S
Co612 O644 1.920 . S
Co613 O616 1.966 . S
Co613 N622 2.022 . S
Co613 N630 1.993 . S
Co613 O638 1.941 . S
C614 O615 1.258 . S
C614 O616 1.263 . S
O615 Co612 1.970 . S
O615 C614 1.258 . S
O616 Co613 1.966 . S
O616 C614 1.263 . S
C617 O618 1.235 . S
C617 O644 1.289 . S
O618 C617 1.235 . S
C619 C621 1.400 . S
C619 N622 1.351 . S
C619 C624 1.501 . S
C620 C621 1.387 . S
C620 N623 1.341 . S
C621 C619 1.400 . S
C621 C620 1.387 . S
N622 Co613 2.022 . S
N622 C619 1.351 . S
N622 N623 1.365 . S
N623 C620 1.341 . S
N623 N622 1.365 . S
N623 H643 0.862 . S
C624 C619 1.501 . S
C624 H625 0.961 . S
C624 H626 0.961 . S
C624 H627 0.960 . S
H625 C624 0.961 . S
H626 C624 0.961 . S
H627 C624 0.960 . S
C628 N629 1.342 . S
C628 C632 1.401 . S
C628 C633 1.499 . S
N629 Co612 1.989 . S
N629 C628 1.342 . S
N629 N630 1.388 . S
N630 Co613 1.993 . S
N630 N629 1.388 . S
N630 C631 1.346 . S
C631 N630 1.346 . S
C631 C632 1.396 . S
C631 C641 1.510 . S
C632 C628 1.401 . S
C632 C631 1.396 . S
C633 C628 1.499 . S
C633 H634 0.959 . S
C633 H635 0.960 . S
C633 H636 0.961 . S
H634 C633 0.959 . S
H635 C633 0.960 . S
H636 C633 0.961 . S
O637 Co612 1.967 . S
O637 C645 1.258 . S
O638 Co613 1.941 . S
O638 C645 1.266 . S
H639 C641 0.959 . S
H640 C641 0.961 . S
C641 C631 1.510 . S
C641 H639 0.959 . S
C641 H640 0.961 . S
C641 H642 0.960 . S
H642 C641 0.960 . S
H643 N623 0.862 . S
O644 Co612 1.920 . S
O644 C617 1.289 . S
C645 O637 1.258 . S
C645 O638 1.266 . S
Co646 O649 1.970 . S
Co646 N663 1.989 . S
Co646 O671 1.967 . S
Co646 O678 1.920 . S
Co647 O650 1.966 . S
Co647 N656 2.022 . S
Co647 N664 1.993 . S
Co647 O672 1.941 . S
C648 O649 1.258 . S
C648 O650 1.263 . S
O649 Co646 1.970 . S
O649 C648 1.258 . S
O650 Co647 1.966 . S
O650 C648 1.263 . S
C651 O652 1.235 . S
C651 O678 1.289 . S
O652 C651 1.235 . S
C653 C655 1.400 . S
C653 N656 1.351 . S
C653 C658 1.501 . S
C654 C655 1.387 . S
C654 N657 1.341 . S
C655 C653 1.400 . S
C655 C654 1.387 . S
N656 Co647 2.022 . S
N656 C653 1.351 . S
N656 N657 1.365 . S
N657 C654 1.341 . S
N657 N656 1.365 . S
N657 H677 0.862 . S
C658 C653 1.501 . S
C658 H659 0.961 . S
C658 H660 0.961 . S
C658 H661 0.960 . S
H659 C658 0.961 . S
H660 C658 0.961 . S
H661 C658 0.960 . S
C662 N663 1.342 . S
C662 C666 1.401 . S
C662 C667 1.499 . S
N663 Co646 1.989 . S
N663 C662 1.342 . S
N663 N664 1.388 . S
N664 Co647 1.993 . S
N664 N663 1.388 . S
N664 C665 1.346 . S
C665 N664 1.346 . S
C665 C666 1.396 . S
C665 C675 1.510 . S
C666 C662 1.401 . S
C666 C665 1.396 . S
C667 C662 1.499 . S
C667 H668 0.959 . S
C667 H669 0.960 . S
C667 H670 0.961 . S
H668 C667 0.959 . S
H669 C667 0.960 . S
H670 C667 0.961 . S
O671 Co646 1.967 . S
O671 C679 1.258 . S
O672 Co647 1.941 . S
O672 C679 1.266 . S
H673 C675 0.959 . S
H674 C675 0.961 . S
C675 C665 1.510 . S
C675 H673 0.959 . S
C675 H674 0.961 . S
C675 H676 0.960 . S
H676 C675 0.960 . S
H677 N657 0.862 . S
O678 Co646 1.920 . S
O678 C651 1.289 . S
C679 O671 1.258 . S
C679 O672 1.266 . S
Co680 O683 1.970 . S
Co680 N697 1.989 . S
Co680 O705 1.967 . S
Co680 O712 1.920 . S
Co681 O684 1.966 . S
Co681 N690 2.022 . S
Co681 N698 1.993 . S
Co681 O706 1.941 . S
C682 O683 1.258 . S
C682 O684 1.263 . S
O683 Co680 1.970 . S
O683 C682 1.258 . S
O684 Co681 1.966 . S
O684 C682 1.263 . S
C685 O686 1.235 . S
C685 O712 1.289 . S
O686 C685 1.235 . S
C687 C689 1.400 . S
C687 N690 1.351 . S
C687 C692 1.501 . S
C688 C689 1.387 . S
C688 N691 1.341 . S
C689 C687 1.400 . S
C689 C688 1.387 . S
N690 Co681 2.022 . S
N690 C687 1.351 . S
N690 N691 1.365 . S
N691 C688 1.341 . S
N691 N690 1.365 . S
N691 H711 0.862 . S
C692 C687 1.501 . S
C692 H693 0.961 . S
C692 H694 0.961 . S
C692 H695 0.960 . S
H693 C692 0.961 . S
H694 C692 0.961 . S
H695 C692 0.960 . S
C696 N697 1.342 . S
C696 C700 1.401 . S
C696 C701 1.499 . S
N697 Co680 1.989 . S
N697 C696 1.342 . S
N697 N698 1.388 . S
N698 Co681 1.993 . S
N698 N697 1.388 . S
N698 C699 1.346 . S
C699 N698 1.346 . S
C699 C700 1.396 . S
C699 C709 1.510 . S
C700 C696 1.401 . S
C700 C699 1.396 . S
C701 C696 1.499 . S
C701 H702 0.959 . S
C701 H703 0.960 . S
C701 H704 0.961 . S
H702 C701 0.959 . S
H703 C701 0.960 . S
H704 C701 0.961 . S
O705 Co680 1.967 . S
O705 C713 1.258 . S
O706 Co681 1.941 . S
O706 C713 1.266 . S
H707 C709 0.959 . S
H708 C709 0.961 . S
C709 C699 1.510 . S
C709 H707 0.959 . S
C709 H708 0.961 . S
C709 H710 0.960 . S
H710 C709 0.960 . S
H711 N691 0.862 . S
O712 Co680 1.920 . S
O712 C685 1.289 . S
C713 O705 1.258 . S
C713 O706 1.266 . S
Co714 O717 1.970 . S
Co714 N731 1.989 . S
Co714 O739 1.967 . S
Co714 O746 1.920 . S
Co715 O718 1.966 . S
Co715 N724 2.022 . S
Co715 N732 1.993 . S
Co715 O740 1.941 . S
C716 O717 1.258 . S
C716 O718 1.263 . S
O717 Co714 1.970 . S
O717 C716 1.258 . S
O718 Co715 1.966 . S
O718 C716 1.263 . S
C719 O720 1.235 . S
C719 O746 1.289 . S
O720 C719 1.235 . S
C721 C723 1.400 . S
C721 N724 1.351 . S
C721 C726 1.501 . S
C722 C723 1.387 . S
C722 N725 1.341 . S
C723 C721 1.400 . S
C723 C722 1.387 . S
N724 Co715 2.022 . S
N724 C721 1.351 . S
N724 N725 1.365 . S
N725 C722 1.341 . S
N725 N724 1.365 . S
N725 H745 0.862 . S
C726 C721 1.501 . S
C726 H727 0.961 . S
C726 H728 0.961 . S
C726 H729 0.960 . S
H727 C726 0.961 . S
H728 C726 0.961 . S
H729 C726 0.960 . S
C730 N731 1.342 . S
C730 C734 1.401 . S
C730 C735 1.499 . S
N731 Co714 1.989 . S
N731 C730 1.342 . S
N731 N732 1.388 . S
N732 Co715 1.993 . S
N732 N731 1.388 . S
N732 C733 1.346 . S
C733 N732 1.346 . S
C733 C734 1.396 . S
C733 C743 1.510 . S
C734 C730 1.401 . S
C734 C733 1.396 . S
C735 C730 1.499 . S
C735 H736 0.959 . S
C735 H737 0.960 . S
C735 H738 0.961 . S
H736 C735 0.959 . S
H737 C735 0.960 . S
H738 C735 0.961 . S
O739 Co714 1.967 . S
O739 C747 1.258 . S
O740 Co715 1.941 . S
O740 C747 1.266 . S
H741 C743 0.959 . S
H742 C743 0.961 . S
C743 C733 1.510 . S
C743 H741 0.959 . S
C743 H742 0.961 . S
C743 H744 0.960 . S
H744 C743 0.960 . S
H745 N725 0.862 . S
O746 Co714 1.920 . S
O746 C719 1.289 . S
C747 O739 1.258 . S
C747 O740 1.266 . S
Co748 O751 1.970 . S
Co748 N765 1.989 . S
Co748 O773 1.967 . S
Co748 O780 1.920 . S
Co749 O752 1.966 . S
Co749 N758 2.022 . S
Co749 N766 1.993 . S
Co749 O774 1.941 . S
C750 O751 1.258 . S
C750 O752 1.263 . S
O751 Co748 1.970 . S
O751 C750 1.258 . S
O752 Co749 1.966 . S
O752 C750 1.263 . S
C753 O754 1.235 . S
C753 O780 1.289 . S
O754 C753 1.235 . S
C755 C757 1.400 . S
C755 N758 1.351 . S
C755 C760 1.501 . S
C756 C757 1.387 . S
C756 N759 1.341 . S
C757 C755 1.400 . S
C757 C756 1.387 . S
N758 Co749 2.022 . S
N758 C755 1.351 . S
N758 N759 1.365 . S
N759 C756 1.341 . S
N759 N758 1.365 . S
N759 H779 0.862 . S
C760 C755 1.501 . S
C760 H761 0.961 . S
C760 H762 0.961 . S
C760 H763 0.960 . S
H761 C760 0.961 . S
H762 C760 0.961 . S
H763 C760 0.960 . S
C764 N765 1.342 . S
C764 C768 1.401 . S
C764 C769 1.499 . S
N765 Co748 1.989 . S
N765 C764 1.342 . S
N765 N766 1.388 . S
N766 Co749 1.993 . S
N766 N765 1.388 . S
N766 C767 1.346 . S
C767 N766 1.346 . S
C767 C768 1.396 . S
C767 C777 1.510 . S
C768 C764 1.401 . S
C768 C767 1.396 . S
C769 C764 1.499 . S
C769 H770 0.959 . S
C769 H771 0.960 . S
C769 H772 0.961 . S
H770 C769 0.959 . S
H771 C769 0.960 . S
H772 C769 0.961 . S
O773 Co748 1.967 . S
O773 C781 1.258 . S
O774 Co749 1.941 . S
O774 C781 1.266 . S
H775 C777 0.959 . S
H776 C777 0.961 . S
C777 C767 1.510 . S
C777 H775 0.959 . S
C777 H776 0.961 . S
C777 H778 0.960 . S
H778 C777 0.960 . S
H779 N759 0.862 . S
O780 Co748 1.920 . S
O780 C753 1.289 . S
C781 O773 1.258 . S
C781 O774 1.266 . S
Co782 O785 1.970 . S
Co782 N799 1.989 . S
Co782 O807 1.967 . S
Co782 O814 1.920 . S
Co783 O786 1.966 . S
Co783 N792 2.022 . S
Co783 N800 1.993 . S
Co783 O808 1.941 . S
C784 O785 1.258 . S
C784 O786 1.263 . S
O785 Co782 1.970 . S
O785 C784 1.258 . S
O786 Co783 1.966 . S
O786 C784 1.263 . S
C787 O788 1.235 . S
C787 O814 1.289 . S
O788 C787 1.235 . S
C789 C791 1.400 . S
C789 N792 1.351 . S
C789 C794 1.501 . S
C790 C791 1.387 . S
C790 N793 1.341 . S
C791 C789 1.400 . S
C791 C790 1.387 . S
N792 Co783 2.022 . S
N792 C789 1.351 . S
N792 N793 1.365 . S
N793 C790 1.341 . S
N793 N792 1.365 . S
N793 H813 0.862 . S
C794 C789 1.501 . S
C794 H795 0.961 . S
C794 H796 0.961 . S
C794 H797 0.960 . S
H795 C794 0.961 . S
H796 C794 0.961 . S
H797 C794 0.960 . S
C798 N799 1.342 . S
C798 C802 1.401 . S
C798 C803 1.499 . S
N799 Co782 1.989 . S
N799 C798 1.342 . S
N799 N800 1.388 . S
N800 Co783 1.993 . S
N800 N799 1.388 . S
N800 C801 1.346 . S
C801 N800 1.346 . S
C801 C802 1.396 . S
C801 C811 1.510 . S
C802 C798 1.401 . S
C802 C801 1.396 . S
C803 C798 1.499 . S
C803 H804 0.959 . S
C803 H805 0.960 . S
C803 H806 0.961 . S
H804 C803 0.959 . S
H805 C803 0.960 . S
H806 C803 0.961 . S
O807 Co782 1.967 . S
O807 C815 1.258 . S
O808 Co783 1.941 . S
O808 C815 1.266 . S
H809 C811 0.959 . S
H810 C811 0.961 . S
C811 C801 1.510 . S
C811 H809 0.959 . S
C811 H810 0.961 . S
C811 H812 0.960 . S
H812 C811 0.960 . S
H813 N793 0.862 . S
O814 Co782 1.920 . S
O814 C787 1.289 . S
C815 O807 1.258 . S
C815 O808 1.266 . S
Co816 O819 1.970 . S
Co816 N833 1.989 . S
Co816 O841 1.967 . S
Co816 O848 1.920 . S
Co817 O820 1.966 . S
Co817 N826 2.022 . S
Co817 N834 1.993 . S
Co817 O842 1.941 . S
C818 O819 1.258 . S
C818 O820 1.263 . S
O819 Co816 1.970 . S
O819 C818 1.258 . S
O820 Co817 1.966 . S
O820 C818 1.263 . S
C821 O822 1.235 . S
C821 O848 1.289 . S
O822 C821 1.235 . S
C823 C825 1.400 . S
C823 N826 1.351 . S
C823 C828 1.501 . S
C824 C825 1.387 . S
C824 N827 1.341 . S
C825 C823 1.400 . S
C825 C824 1.387 . S
N826 Co817 2.022 . S
N826 C823 1.351 . S
N826 N827 1.365 . S
N827 C824 1.341 . S
N827 N826 1.365 . S
N827 H847 0.862 . S
C828 C823 1.501 . S
C828 H829 0.961 . S
C828 H830 0.961 . S
C828 H831 0.960 . S
H829 C828 0.961 . S
H830 C828 0.961 . S
H831 C828 0.960 . S
C832 N833 1.342 . S
C832 C836 1.401 . S
C832 C837 1.499 . S
N833 Co816 1.989 . S
N833 C832 1.342 . S
N833 N834 1.388 . S
N834 Co817 1.993 . S
N834 N833 1.388 . S
N834 C835 1.346 . S
C835 N834 1.346 . S
C835 C836 1.396 . S
C835 C845 1.510 . S
C836 C832 1.401 . S
C836 C835 1.396 . S
C837 C832 1.499 . S
C837 H838 0.959 . S
C837 H839 0.960 . S
C837 H840 0.961 . S
H838 C837 0.959 . S
H839 C837 0.960 . S
H840 C837 0.961 . S
O841 Co816 1.967 . S
O841 C849 1.258 . S
O842 Co817 1.941 . S
O842 C849 1.266 . S
H843 C845 0.959 . S
H844 C845 0.961 . S
C845 C835 1.510 . S
C845 H843 0.959 . S
C845 H844 0.961 . S
C845 H846 0.960 . S
H846 C845 0.960 . S
H847 N827 0.862 . S
O848 Co816 1.920 . S
O848 C821 1.289 . S
C849 O841 1.258 . S
C849 O842 1.266 . S
Co850 O853 1.970 . S
Co850 N867 1.989 . S
Co850 O875 1.967 . S
Co850 O882 1.920 . S
Co851 O854 1.966 . S
Co851 N860 2.022 . S
Co851 N868 1.993 . S
Co851 O876 1.941 . S
C852 O853 1.258 . S
C852 O854 1.263 . S
O853 Co850 1.970 . S
O853 C852 1.258 . S
O854 Co851 1.966 . S
O854 C852 1.263 . S
C855 O856 1.235 . S
C855 O882 1.289 . S
O856 C855 1.235 . S
C857 C859 1.400 . S
C857 N860 1.351 . S
C857 C862 1.501 . S
C858 C859 1.387 . S
C858 N861 1.341 . S
C859 C857 1.400 . S
C859 C858 1.387 . S
N860 Co851 2.022 . S
N860 C857 1.351 . S
N860 N861 1.365 . S
N861 C858 1.341 . S
N861 N860 1.365 . S
N861 H881 0.862 . S
C862 C857 1.501 . S
C862 H863 0.961 . S
C862 H864 0.961 . S
C862 H865 0.960 . S
H863 C862 0.961 . S
H864 C862 0.961 . S
H865 C862 0.960 . S
C866 N867 1.342 . S
C866 C870 1.401 . S
C866 C871 1.499 . S
N867 Co850 1.989 . S
N867 C866 1.342 . S
N867 N868 1.388 . S
N868 Co851 1.993 . S
N868 N867 1.388 . S
N868 C869 1.346 . S
C869 N868 1.346 . S
C869 C870 1.396 . S
C869 C879 1.510 . S
C870 C866 1.401 . S
C870 C869 1.396 . S
C871 C866 1.499 . S
C871 H872 0.959 . S
C871 H873 0.960 . S
C871 H874 0.961 . S
H872 C871 0.959 . S
H873 C871 0.960 . S
H874 C871 0.961 . S
O875 Co850 1.967 . S
O875 C883 1.258 . S
O876 Co851 1.941 . S
O876 C883 1.266 . S
H877 C879 0.959 . S
H878 C879 0.961 . S
C879 C869 1.510 . S
C879 H877 0.959 . S
C879 H878 0.961 . S
C879 H880 0.960 . S
H880 C879 0.960 . S
H881 N861 0.862 . S
O882 Co850 1.920 . S
O882 C855 1.289 . S
C883 O875 1.258 . S
C883 O876 1.266 . S
Co884 O887 1.970 . S
Co884 N901 1.989 . S
Co884 O909 1.967 . S
Co884 O916 1.920 . S
Co885 O888 1.966 . S
Co885 N894 2.022 . S
Co885 N902 1.993 . S
Co885 O910 1.941 . S
C886 O887 1.258 . S
C886 O888 1.263 . S
O887 Co884 1.970 . S
O887 C886 1.258 . S
O888 Co885 1.966 . S
O888 C886 1.263 . S
C889 O890 1.235 . S
C889 O916 1.289 . S
O890 C889 1.235 . S
C891 C893 1.400 . S
C891 N894 1.351 . S
C891 C896 1.501 . S
C892 C893 1.387 . S
C892 N895 1.341 . S
C893 C891 1.400 . S
C893 C892 1.387 . S
N894 Co885 2.022 . S
N894 C891 1.351 . S
N894 N895 1.365 . S
N895 C892 1.341 . S
N895 N894 1.365 . S
N895 H915 0.862 . S
C896 C891 1.501 . S
C896 H897 0.961 . S
C896 H898 0.961 . S
C896 H899 0.960 . S
H897 C896 0.961 . S
H898 C896 0.961 . S
H899 C896 0.960 . S
C900 N901 1.342 . S
C900 C904 1.401 . S
C900 C905 1.499 . S
N901 Co884 1.989 . S
N901 C900 1.342 . S
N901 N902 1.388 . S
N902 Co885 1.993 . S
N902 N901 1.388 . S
N902 C903 1.346 . S
C903 N902 1.346 . S
C903 C904 1.396 . S
C903 C913 1.510 . S
C904 C900 1.401 . S
C904 C903 1.396 . S
C905 C900 1.499 . S
C905 H906 0.959 . S
C905 H907 0.960 . S
C905 H908 0.961 . S
H906 C905 0.959 . S
H907 C905 0.960 . S
H908 C905 0.961 . S
O909 Co884 1.967 . S
O909 C917 1.258 . S
O910 Co885 1.941 . S
O910 C917 1.266 . S
H911 C913 0.959 . S
H912 C913 0.961 . S
C913 C903 1.510 . S
C913 H911 0.959 . S
C913 H912 0.961 . S
C913 H914 0.960 . S
H914 C913 0.960 . S
H915 N895 0.862 . S
O916 Co884 1.920 . S
O916 C889 1.289 . S
C917 O909 1.258 . S
C917 O910 1.266 . S
Co918 O921 1.970 . S
Co918 N935 1.989 . S
Co918 O943 1.967 . S
Co918 O950 1.920 . S
Co919 O922 1.966 . S
Co919 N928 2.022 . S
Co919 N936 1.993 . S
Co919 O944 1.941 . S
C920 O921 1.258 . S
C920 O922 1.263 . S
O921 Co918 1.970 . S
O921 C920 1.258 . S
O922 Co919 1.966 . S
O922 C920 1.263 . S
C923 O924 1.235 . S
C923 O950 1.289 . S
O924 C923 1.235 . S
C925 C927 1.400 . S
C925 N928 1.351 . S
C925 C930 1.501 . S
C926 C927 1.387 . S
C926 N929 1.341 . S
C927 C925 1.400 . S
C927 C926 1.387 . S
N928 Co919 2.022 . S
N928 C925 1.351 . S
N928 N929 1.365 . S
N929 C926 1.341 . S
N929 N928 1.365 . S
N929 H949 0.862 . S
C930 C925 1.501 . S
C930 H931 0.961 . S
C930 H932 0.961 . S
C930 H933 0.960 . S
H931 C930 0.961 . S
H932 C930 0.961 . S
H933 C930 0.960 . S
C934 N935 1.342 . S
C934 C938 1.401 . S
C934 C939 1.499 . S
N935 Co918 1.989 . S
N935 C934 1.342 . S
N935 N936 1.388 . S
N936 Co919 1.993 . S
N936 N935 1.388 . S
N936 C937 1.346 . S
C937 N936 1.346 . S
C937 C938 1.396 . S
C937 C947 1.510 . S
C938 C934 1.401 . S
C938 C937 1.396 . S
C939 C934 1.499 . S
C939 H940 0.959 . S
C939 H941 0.960 . S
C939 H942 0.961 . S
H940 C939 0.959 . S
H941 C939 0.960 . S
H942 C939 0.961 . S
O943 Co918 1.967 . S
O943 C951 1.258 . S
O944 Co919 1.941 . S
O944 C951 1.266 . S
H945 C947 0.959 . S
H946 C947 0.961 . S
C947 C937 1.510 . S
C947 H945 0.959 . S
C947 H946 0.961 . S
C947 H948 0.960 . S
H948 C947 0.960 . S
H949 N929 0.862 . S
O950 Co918 1.920 . S
O950 C923 1.289 . S
C951 O943 1.258 . S
C951 O944 1.266 . S
Co952 O955 1.970 . S
Co952 N969 1.989 . S
Co952 O977 1.967 . S
Co952 O984 1.920 . S
Co953 O956 1.966 . S
Co953 N962 2.022 . S
Co953 N970 1.993 . S
Co953 O978 1.941 . S
C954 O955 1.258 . S
C954 O956 1.263 . S
O955 Co952 1.970 . S
O955 C954 1.258 . S
O956 Co953 1.966 . S
O956 C954 1.263 . S
C957 O958 1.235 . S
C957 O984 1.289 . S
O958 C957 1.235 . S
C959 C961 1.400 . S
C959 N962 1.351 . S
C959 C964 1.501 . S
C960 C961 1.387 . S
C960 N963 1.341 . S
C961 C959 1.400 . S
C961 C960 1.387 . S
N962 Co953 2.022 . S
N962 C959 1.351 . S
N962 N963 1.365 . S
N963 C960 1.341 . S
N963 N962 1.365 . S
N963 H983 0.862 . S
C964 C959 1.501 . S
C964 H965 0.961 . S
C964 H966 0.961 . S
C964 H967 0.960 . S
H965 C964 0.961 . S
H966 C964 0.961 . S
H967 C964 0.960 . S
C968 N969 1.342 . S
C968 C972 1.401 . S
C968 C973 1.499 . S
N969 Co952 1.989 . S
N969 C968 1.342 . S
N969 N970 1.388 . S
N970 Co953 1.993 . S
N970 N969 1.388 . S
N970 C971 1.346 . S
C971 N970 1.346 . S
C971 C972 1.396 . S
C971 C981 1.510 . S
C972 C968 1.401 . S
C972 C971 1.396 . S
C973 C968 1.499 . S
C973 H974 0.959 . S
C973 H975 0.960 . S
C973 H976 0.961 . S
H974 C973 0.959 . S
H975 C973 0.960 . S
H976 C973 0.961 . S
O977 Co952 1.967 . S
O977 C985 1.258 . S
O978 Co953 1.941 . S
O978 C985 1.266 . S
H979 C981 0.959 . S
H980 C981 0.961 . S
C981 C971 1.510 . S
C981 H979 0.959 . S
C981 H980 0.961 . S
C981 H982 0.960 . S
H982 C981 0.960 . S
H983 N963 0.862 . S
O984 Co952 1.920 . S
O984 C957 1.289 . S
C985 O977 1.258 . S
C985 O978 1.266 . S
Co986 O989 1.970 . S
Co986 N1003 1.989 . S
Co986 O1011 1.967 . S
Co986 O1018 1.920 . S
Co987 O990 1.966 . S
Co987 N996 2.022 . S
Co987 N1004 1.993 . S
Co987 O1012 1.941 . S
C988 O989 1.258 . S
C988 O990 1.263 . S
O989 Co986 1.970 . S
O989 C988 1.258 . S
O990 Co987 1.966 . S
O990 C988 1.263 . S
C991 O992 1.235 . S
C991 O1018 1.289 . S
O992 C991 1.235 . S
C993 C995 1.400 . S
C993 N996 1.351 . S
C993 C998 1.501 . S
C994 C995 1.387 . S
C994 N997 1.341 . S
C995 C993 1.400 . S
C995 C994 1.387 . S
N996 Co987 2.022 . S
N996 C993 1.351 . S
N996 N997 1.365 . S
N997 C994 1.341 . S
N997 N996 1.365 . S
N997 H1017 0.862 . S
C998 C993 1.501 . S
C998 H999 0.961 . S
C998 H1000 0.961 . S
C998 H1001 0.960 . S
H999 C998 0.961 . S
H1000 C998 0.961 . S
H1001 C998 0.960 . S
C1002 N1003 1.342 . S
C1002 C1006 1.401 . S
C1002 C1007 1.499 . S
N1003 Co986 1.989 . S
N1003 C1002 1.342 . S
N1003 N1004 1.388 . S
N1004 Co987 1.993 . S
N1004 N1003 1.388 . S
N1004 C1005 1.346 . S
C1005 N1004 1.346 . S
C1005 C1006 1.396 . S
C1005 C1015 1.510 . S
C1006 C1002 1.401 . S
C1006 C1005 1.396 . S
C1007 C1002 1.499 . S
C1007 H1008 0.959 . S
C1007 H1009 0.960 . S
C1007 H1010 0.961 . S
H1008 C1007 0.959 . S
H1009 C1007 0.960 . S
H1010 C1007 0.961 . S
O1011 Co986 1.967 . S
O1011 C1019 1.258 . S
O1012 Co987 1.941 . S
O1012 C1019 1.266 . S
H1013 C1015 0.959 . S
H1014 C1015 0.961 . S
C1015 C1005 1.510 . S
C1015 H1013 0.959 . S
C1015 H1014 0.961 . S
C1015 H1016 0.960 . S
H1016 C1015 0.960 . S
H1017 N997 0.862 . S
O1018 Co986 1.920 . S
O1018 C991 1.289 . S
C1019 O1011 1.258 . S
C1019 O1012 1.266 . S
Co1020 O1023 1.970 . S
Co1020 N1037 1.989 . S
Co1020 O1045 1.967 . S
Co1020 O1052 1.920 . S
Co1021 O1024 1.966 . S
Co1021 N1030 2.022 . S
Co1021 N1038 1.993 . S
Co1021 O1046 1.941 . S
C1022 O1023 1.258 . S
C1022 O1024 1.263 . S
O1023 Co1020 1.970 . S
O1023 C1022 1.258 . S
O1024 Co1021 1.966 . S
O1024 C1022 1.263 . S
C1025 O1026 1.235 . S
C1025 O1052 1.289 . S
O1026 C1025 1.235 . S
C1027 C1029 1.400 . S
C1027 N1030 1.351 . S
C1027 C1032 1.501 . S
C1028 C1029 1.387 . S
C1028 N1031 1.341 . S
C1029 C1027 1.400 . S
C1029 C1028 1.387 . S
N1030 Co1021 2.022 . S
N1030 C1027 1.351 . S
N1030 N1031 1.365 . S
N1031 C1028 1.341 . S
N1031 N1030 1.365 . S
N1031 H1051 0.862 . S
C1032 C1027 1.501 . S
C1032 H1033 0.961 . S
C1032 H1034 0.961 . S
C1032 H1035 0.960 . S
H1033 C1032 0.961 . S
H1034 C1032 0.961 . S
H1035 C1032 0.960 . S
C1036 N1037 1.342 . S
C1036 C1040 1.401 . S
C1036 C1041 1.499 . S
N1037 Co1020 1.989 . S
N1037 C1036 1.342 . S
N1037 N1038 1.388 . S
N1038 Co1021 1.993 . S
N1038 N1037 1.388 . S
N1038 C1039 1.346 . S
C1039 N1038 1.346 . S
C1039 C1040 1.396 . S
C1039 C1049 1.510 . S
C1040 C1036 1.401 . S
C1040 C1039 1.396 . S
C1041 C1036 1.499 . S
C1041 H1042 0.959 . S
C1041 H1043 0.960 . S
C1041 H1044 0.961 . S
H1042 C1041 0.959 . S
H1043 C1041 0.960 . S
H1044 C1041 0.961 . S
O1045 Co1020 1.967 . S
O1045 C1053 1.258 . S
O1046 Co1021 1.941 . S
O1046 C1053 1.266 . S
H1047 C1049 0.959 . S
H1048 C1049 0.961 . S
C1049 C1039 1.510 . S
C1049 H1047 0.959 . S
C1049 H1048 0.961 . S
C1049 H1050 0.960 . S
H1050 C1049 0.960 . S
H1051 N1031 0.862 . S
O1052 Co1020 1.920 . S
O1052 C1025 1.289 . S
C1053 O1045 1.258 . S
C1053 O1046 1.266 . S
Co1054 O1057 1.970 . S
Co1054 N1071 1.989 . S
Co1054 O1079 1.967 . S
Co1054 O1086 1.920 . S
Co1055 O1058 1.966 . S
Co1055 N1064 2.022 . S
Co1055 N1072 1.993 . S
Co1055 O1080 1.941 . S
C1056 O1057 1.258 . S
C1056 O1058 1.263 . S
O1057 Co1054 1.970 . S
O1057 C1056 1.258 . S
O1058 Co1055 1.966 . S
O1058 C1056 1.263 . S
C1059 O1060 1.235 . S
C1059 O1086 1.289 . S
O1060 C1059 1.235 . S
C1061 C1063 1.400 . S
C1061 N1064 1.351 . S
C1061 C1066 1.501 . S
C1062 C1063 1.387 . S
C1062 N1065 1.341 . S
C1063 C1061 1.400 . S
C1063 C1062 1.387 . S
N1064 Co1055 2.022 . S
N1064 C1061 1.351 . S
N1064 N1065 1.365 . S
N1065 C1062 1.341 . S
N1065 N1064 1.365 . S
N1065 H1085 0.862 . S
C1066 C1061 1.501 . S
C1066 H1067 0.961 . S
C1066 H1068 0.961 . S
C1066 H1069 0.960 . S
H1067 C1066 0.961 . S
H1068 C1066 0.961 . S
H1069 C1066 0.960 . S
C1070 N1071 1.342 . S
C1070 C1074 1.401 . S
C1070 C1075 1.499 . S
N1071 Co1054 1.989 . S
N1071 C1070 1.342 . S
N1071 N1072 1.388 . S
N1072 Co1055 1.993 . S
N1072 N1071 1.388 . S
N1072 C1073 1.346 . S
C1073 N1072 1.346 . S
C1073 C1074 1.396 . S
C1073 C1083 1.510 . S
C1074 C1070 1.401 . S
C1074 C1073 1.396 . S
C1075 C1070 1.499 . S
C1075 H1076 0.959 . S
C1075 H1077 0.960 . S
C1075 H1078 0.961 . S
H1076 C1075 0.959 . S
H1077 C1075 0.960 . S
H1078 C1075 0.961 . S
O1079 Co1054 1.967 . S
O1079 C1087 1.258 . S
O1080 Co1055 1.941 . S
O1080 C1087 1.266 . S
H1081 C1083 0.959 . S
H1082 C1083 0.961 . S
C1083 C1073 1.510 . S
C1083 H1081 0.959 . S
C1083 H1082 0.961 . S
C1083 H1084 0.960 . S
H1084 C1083 0.960 . S
H1085 N1065 0.862 . S
O1086 Co1054 1.920 . S
O1086 C1059 1.289 . S
C1087 O1079 1.258 . S
C1087 O1080 1.266 . S
H1088 C1094 0.930 . S
H1089 C1097 0.930 . S
H1090 C1098 0.930 . S
H1091 C1099 0.930 . S
H1092 C1102 0.930 . S
H1093 C1103 0.930 . S
C1094 H1088 0.930 . S
C1094 C1095 1.355 . S
C1094 C1096 1.415 . S
C1095 C1094 1.355 . S
C1095 C1097 1.419 . S
C1096 C1094 1.415 . S
C1096 C1101 1.425 . S
C1096 C1103 1.409 . S
C1097 H1089 0.930 . S
C1097 C1095 1.419 . S
C1097 C1098 1.362 . S
C1098 H1090 0.930 . S
C1098 C1097 1.362 . S
C1098 C1101 1.409 . S
C1099 H1091 0.930 . S
C1099 C1100 1.355 . S
C1099 C1101 1.415 . S
C1100 C1099 1.355 . S
C1100 C1102 1.419 . S
C1101 C1096 1.425 . S
C1101 C1098 1.409 . S
C1101 C1099 1.415 . S
C1102 H1092 0.930 . S
C1102 C1100 1.419 . S
C1102 C1103 1.362 . S
C1103 H1093 0.930 . S
C1103 C1096 1.409 . S
C1103 C1102 1.362 . S
H1104 C1110 0.930 . S
H1105 C1113 0.930 . S
H1106 C1114 0.930 . S
H1107 C1115 0.930 . S
H1108 C1118 0.930 . S
H1109 C1119 0.930 . S
C1110 H1104 0.930 . S
C1110 C1111 1.355 1_565 S
C1110 C1112 1.415 . S
C1111 C1110 1.355 1_545 S
C1111 C1113 1.419 . S
C1112 C1110 1.415 . S
C1112 C1117 1.425 1_565 S
C1112 C1119 1.409 . S
C1113 H1105 0.930 . S
C1113 C1111 1.419 . S
C1113 C1114 1.362 . S
C1114 H1106 0.930 . S
C1114 C1113 1.362 . S
C1114 C1117 1.409 . S
C1115 H1107 0.930 . S
C1115 C1116 1.355 1_545 S
C1115 C1117 1.415 . S
C1116 C1115 1.355 1_565 S
C1116 C1118 1.419 . S
C1117 C1112 1.425 1_545 S
C1117 C1114 1.409 . S
C1117 C1115 1.415 . S
C1118 H1108 0.930 . S
C1118 C1116 1.419 . S
C1118 C1119 1.362 . S
C1119 H1109 0.930 . S
C1119 C1112 1.409 . S
C1119 C1118 1.362 . S
H1120 C1126 0.930 . S
H1121 C1129 0.930 . S
H1122 C1130 0.930 . S
H1123 C1131 0.930 . S
H1124 C1134 0.930 . S
H1125 C1135 0.930 . S
C1126 H1120 0.930 . S
C1126 C1127 1.355 . S
C1126 C1128 1.415 . S
C1127 C1126 1.355 . S
C1127 C1129 1.419 . S
C1128 C1126 1.415 . S
C1128 C1133 1.425 . S
C1128 C1135 1.409 . S
C1129 H1121 0.930 . S
C1129 C1127 1.419 . S
C1129 C1130 1.362 . S
C1130 H1122 0.930 . S
C1130 C1129 1.362 . S
C1130 C1133 1.409 . S
C1131 H1123 0.930 . S
C1131 C1132 1.355 . S
C1131 C1133 1.415 . S
C1132 C1131 1.355 . S
C1132 C1134 1.419 . S
C1133 C1128 1.425 . S
C1133 C1130 1.409 . S
C1133 C1131 1.415 . S
C1134 H1124 0.930 . S
C1134 C1132 1.419 . S
C1134 C1135 1.362 . S
C1135 H1125 0.930 . S
C1135 C1128 1.409 . S
C1135 C1134 1.362 . S
H1136 C1142 0.930 . S
H1137 C1145 0.930 . S
H1138 C1146 0.930 . S
H1139 C1147 0.930 . S
H1140 C1150 0.930 . S
H1141 C1151 0.930 . S
C1142 H1136 0.930 . S
C1142 C1143 1.355 . S
C1142 C1144 1.415 . S
C1143 C1142 1.355 . S
C1143 C1145 1.419 1_565 S
C1144 C1142 1.415 . S
C1144 C1149 1.425 1_565 S
C1144 C1151 1.409 . S
C1145 H1137 0.930 . S
C1145 C1143 1.419 1_545 S
C1145 C1146 1.362 . S
C1146 H1138 0.930 . S
C1146 C1145 1.362 . S
C1146 C1149 1.409 . S
C1147 H1139 0.930 . S
C1147 C1148 1.355 1_455 S
C1147 C1149 1.415 . S
C1148 C1147 1.355 1_655 S
C1148 C1150 1.419 1_545 S
C1149 C1144 1.425 1_545 S
C1149 C1146 1.409 . S
C1149 C1147 1.415 . S
C1150 H1140 0.930 . S
C1150 C1148 1.419 1_565 S
C1150 C1151 1.362 1_655 S
C1151 H1141 0.930 . S
C1151 C1144 1.409 . S
C1151 C1150 1.362 1_455 S
H1152 C1158 0.930 . S
H1153 C1161 0.930 . S
H1154 C1162 0.930 . S
H1155 C1163 0.930 . S
H1156 C1166 0.930 . S
H1157 C1167 0.930 . S
C1158 H1152 0.930 . S
C1158 C1159 1.355 . S
C1158 C1160 1.415 . S
C1159 C1158 1.355 . S
C1159 C1161 1.419 . S
C1160 C1158 1.415 . S
C1160 C1165 1.425 . S
C1160 C1167 1.409 . S
C1161 H1153 0.930 . S
C1161 C1159 1.419 . S
C1161 C1162 1.362 . S
C1162 H1154 0.930 . S
C1162 C1161 1.362 . S
C1162 C1165 1.409 . S
C1163 H1155 0.930 . S
C1163 C1164 1.355 . S
C1163 C1165 1.415 . S
C1164 C1163 1.355 . S
C1164 C1166 1.419 . S
C1165 C1160 1.425 . S
C1165 C1162 1.409 . S
C1165 C1163 1.415 . S
C1166 H1156 0.930 . S
C1166 C1164 1.419 . S
C1166 C1167 1.362 . S
C1167 H1157 0.930 . S
C1167 C1160 1.409 . S
C1167 C1166 1.362 . S
H1168 C1174 0.930 . S
H1169 C1177 0.930 . S
H1170 C1178 0.930 . S
H1171 C1179 0.930 . S
H1172 C1182 0.930 . S
H1173 C1183 0.930 . S
C1174 H1168 0.930 . S
C1174 C1175 1.355 1_565 S
C1174 C1176 1.415 . S
C1175 C1174 1.355 1_545 S
C1175 C1177 1.419 . S
C1176 C1174 1.415 . S
C1176 C1181 1.425 1_565 S
C1176 C1183 1.409 . S
C1177 H1169 0.930 . S
C1177 C1175 1.419 . S
C1177 C1178 1.362 . S
C1178 H1170 0.930 . S
C1178 C1177 1.362 . S
C1178 C1181 1.409 . S
C1179 H1171 0.930 . S
C1179 C1180 1.355 1_545 S
C1179 C1181 1.415 1_655 S
C1180 C1179 1.355 1_565 S
C1180 C1182 1.419 . S
C1181 C1176 1.425 1_545 S
C1181 C1178 1.409 . S
C1181 C1179 1.415 1_455 S
C1182 H1172 0.930 . S
C1182 C1180 1.419 . S
C1182 C1183 1.362 1_655 S
C1183 H1173 0.930 . S
C1183 C1176 1.409 . S
C1183 C1182 1.362 1_455 S
H1184 C1190 0.930 . S
H1185 C1193 0.930 . S
H1186 C1194 0.930 . S
H1187 C1195 0.930 . S
H1188 C1198 0.930 . S
H1189 C1199 0.930 . S
C1190 H1184 0.930 . S
C1190 C1191 1.355 . S
C1190 C1192 1.415 . S
C1191 C1190 1.355 . S
C1191 C1193 1.419 . S
C1192 C1190 1.415 . S
C1192 C1197 1.425 . S
C1192 C1199 1.409 . S
C1193 H1185 0.930 . S
C1193 C1191 1.419 . S
C1193 C1194 1.362 . S
C1194 H1186 0.930 . S
C1194 C1193 1.362 . S
C1194 C1197 1.409 . S
C1195 H1187 0.930 . S
C1195 C1196 1.355 . S
C1195 C1197 1.415 . S
C1196 C1195 1.355 . S
C1196 C1198 1.419 . S
C1197 C1192 1.425 . S
C1197 C1194 1.409 . S
C1197 C1195 1.415 . S
C1198 H1188 0.930 . S
C1198 C1196 1.419 . S
C1198 C1199 1.362 . S
C1199 H1189 0.930 . S
C1199 C1192 1.409 . S
C1199 C1198 1.362 . S
H1200 C1206 0.930 . S
H1201 C1209 0.930 . S
H1202 C1210 0.930 . S
H1203 C1211 0.930 . S
H1204 C1214 0.930 . S
H1205 C1215 0.930 . S
C1206 H1200 0.930 . S
C1206 C1207 1.355 1_565 S
C1206 C1208 1.415 . S
C1207 C1206 1.355 1_545 S
C1207 C1209 1.419 . S
C1208 C1206 1.415 . S
C1208 C1213 1.425 1_565 S
C1208 C1215 1.409 . S
C1209 H1201 0.930 . S
C1209 C1207 1.419 . S
C1209 C1210 1.362 . S
C1210 H1202 0.930 . S
C1210 C1209 1.362 . S
C1210 C1213 1.409 . S
C1211 H1203 0.930 . S
C1211 C1212 1.355 1_545 S
C1211 C1213 1.415 . S
C1212 C1211 1.355 1_565 S
C1212 C1214 1.419 . S
C1213 C1208 1.425 1_545 S
C1213 C1210 1.409 . S
C1213 C1211 1.415 . S
C1214 H1204 0.930 . S
C1214 C1212 1.419 . S
C1214 C1215 1.362 . S
C1215 H1205 0.930 . S
C1215 C1208 1.409 . S
C1215 C1214 1.362 . S
H1216 C1222 0.930 . S
H1217 C1225 0.930 . S
H1218 C1226 0.930 . S
H1219 C1227 0.930 . S
H1220 C1230 0.930 . S
H1221 C1231 0.930 . S
C1222 H1216 0.930 . S
C1222 C1223 1.355 . S
C1222 C1224 1.415 . S
C1223 C1222 1.355 . S
C1223 C1225 1.419 . S
C1224 C1222 1.415 . S
C1224 C1229 1.425 . S
C1224 C1231 1.409 . S
C1225 H1217 0.930 . S
C1225 C1223 1.419 . S
C1225 C1226 1.362 . S
C1226 H1218 0.930 . S
C1226 C1225 1.362 . S
C1226 C1229 1.409 . S
C1227 H1219 0.930 . S
C1227 C1228 1.355 . S
C1227 C1229 1.415 . S
C1228 C1227 1.355 . S
C1228 C1230 1.419 . S
C1229 C1224 1.425 . S
C1229 C1226 1.409 . S
C1229 C1227 1.415 . S
C1230 H1220 0.930 . S
C1230 C1228 1.419 . S
C1230 C1231 1.362 . S
C1231 H1221 0.930 . S
C1231 C1224 1.409 . S
C1231 C1230 1.362 . S
H1232 C1238 0.930 . S
H1233 C1241 0.930 . S
H1234 C1242 0.930 . S
H1235 C1243 0.930 . S
H1236 C1246 0.930 . S
H1237 C1247 0.930 . S
C1238 H1232 0.930 . S
C1238 C1239 1.355 1_545 S
C1238 C1240 1.415 . S
C1239 C1238 1.355 1_565 S
C1239 C1241 1.419 . S
C1240 C1238 1.415 . S
C1240 C1245 1.425 1_545 S
C1240 C1247 1.409 . S
C1241 H1233 0.930 . S
C1241 C1239 1.419 . S
C1241 C1242 1.362 . S
C1242 H1234 0.930 . S
C1242 C1241 1.362 . S
C1242 C1245 1.409 . S
C1243 H1235 0.930 . S
C1243 C1244 1.355 1_565 S
C1243 C1245 1.415 . S
C1244 C1243 1.355 1_545 S
C1244 C1246 1.419 . S
C1245 C1240 1.425 1_565 S
C1245 C1242 1.409 . S
C1245 C1243 1.415 . S
C1246 H1236 0.930 . S
C1246 C1244 1.419 . S
C1246 C1247 1.362 . S
C1247 H1237 0.930 . S
C1247 C1240 1.409 . S
C1247 C1246 1.362 . S
H1248 C1254 0.930 . S
H1249 C1257 0.930 . S
H1250 C1258 0.930 . S
H1251 C1259 0.930 . S
H1252 C1262 0.930 . S
H1253 C1263 0.930 . S
C1254 H1248 0.930 . S
C1254 C1255 1.355 . S
C1254 C1256 1.415 . S
C1255 C1254 1.355 . S
C1255 C1257 1.419 . S
C1256 C1254 1.415 . S
C1256 C1261 1.425 . S
C1256 C1263 1.409 . S
C1257 H1249 0.930 . S
C1257 C1255 1.419 . S
C1257 C1258 1.362 . S
C1258 H1250 0.930 . S
C1258 C1257 1.362 . S
C1258 C1261 1.409 . S
C1259 H1251 0.930 . S
C1259 C1260 1.355 . S
C1259 C1261 1.415 . S
C1260 C1259 1.355 . S
C1260 C1262 1.419 . S
C1261 C1256 1.425 . S
C1261 C1258 1.409 . S
C1261 C1259 1.415 . S
C1262 H1252 0.930 . S
C1262 C1260 1.419 . S
C1262 C1263 1.362 . S
C1263 H1253 0.930 . S
C1263 C1256 1.409 . S
C1263 C1262 1.362 . S
H1264 C1270 0.930 . S
H1265 C1273 0.930 . S
H1266 C1274 0.930 . S
H1267 C1275 0.930 1_565 S
H1268 C1278 0.930 . S
H1269 C1279 0.930 . S
C1270 H1264 0.930 . S
C1270 C1271 1.355 1_545 S
C1270 C1272 1.415 1_455 S
C1271 C1270 1.355 1_565 S
C1271 C1273 1.419 . S
C1272 C1270 1.415 1_655 S
C1272 C1277 1.425 1_545 S
C1272 C1279 1.409 . S
C1273 H1265 0.930 . S
C1273 C1271 1.419 . S
C1273 C1274 1.362 1_455 S
C1274 H1266 0.930 . S
C1274 C1273 1.362 1_655 S
C1274 C1277 1.409 . S
C1275 H1267 0.930 1_545 S
C1275 C1276 1.355 . S
C1275 C1277 1.415 1_545 S
C1276 C1275 1.355 . S
C1276 C1278 1.419 . S
C1277 C1272 1.425 1_565 S
C1277 C1274 1.409 . S
C1277 C1275 1.415 1_565 S
C1278 H1268 0.930 . S
C1278 C1276 1.419 . S
C1278 C1279 1.362 . S
C1279 H1269 0.930 . S
C1279 C1272 1.409 . S
C1279 C1278 1.362 . S
H1280 C1286 0.930 . S
H1281 C1289 0.930 . S
H1282 C1290 0.930 . S
H1283 C1291 0.930 . S
H1284 C1294 0.930 . S
H1285 C1295 0.930 . S
C1286 H1280 0.930 . S
C1286 C1287 1.355 . S
C1286 C1288 1.415 . S
C1287 C1286 1.355 . S
C1287 C1289 1.419 . S
C1288 C1286 1.415 . S
C1288 C1293 1.425 . S
C1288 C1295 1.409 . S
C1289 H1281 0.930 . S
C1289 C1287 1.419 . S
C1289 C1290 1.362 . S
C1290 H1282 0.930 . S
C1290 C1289 1.362 . S
C1290 C1293 1.409 . S
C1291 H1283 0.930 . S
C1291 C1292 1.355 . S
C1291 C1293 1.415 . S
C1292 C1291 1.355 . S
C1292 C1294 1.419 . S
C1293 C1288 1.425 . S
C1293 C1290 1.409 . S
C1293 C1291 1.415 . S
C1294 H1284 0.930 . S
C1294 C1292 1.419 . S
C1294 C1295 1.362 . S
C1295 H1285 0.930 . S
C1295 C1288 1.409 . S
C1295 C1294 1.362 . S
H1296 C1302 0.930 . S
H1297 C1305 0.930 . S
H1298 C1306 0.930 1_565 S
H1299 C1307 0.930 . S
H1300 C1310 0.930 . S
H1301 C1311 0.930 . S
C1302 H1296 0.930 . S
C1302 C1303 1.355 . S
C1302 C1304 1.415 1_445 S
C1303 C1302 1.355 . S
C1303 C1305 1.419 . S
C1304 C1302 1.415 1_665 S
C1304 C1309 1.425 . S
C1304 C1311 1.409 . S
C1305 H1297 0.930 . S
C1305 C1303 1.419 . S
C1305 C1306 1.362 1_455 S
C1306 H1298 0.930 1_545 S
C1306 C1305 1.362 1_655 S
C1306 C1309 1.409 1_545 S
C1307 H1299 0.930 . S
C1307 C1308 1.355 . S
C1307 C1309 1.415 . S
C1308 C1307 1.355 . S
C1308 C1310 1.419 . S
C1309 C1304 1.425 . S
C1309 C1306 1.409 1_565 S
C1309 C1307 1.415 . S
C1310 H1300 0.930 . S
C1310 C1308 1.419 . S
C1310 C1311 1.362 . S
C1311 H1301 0.930 . S
C1311 C1304 1.409 . S
C1311 C1310 1.362 . S
H1312 C1318 0.930 . S
H1313 C1321 0.930 . S
H1314 C1322 0.930 . S
H1315 C1323 0.930 . S
H1316 C1326 0.930 . S
H1317 C1327 0.930 . S
C1318 H1312 0.930 . S
C1318 C1319 1.355 . S
C1318 C1320 1.415 . S
C1319 C1318 1.355 . S
C1319 C1321 1.419 . S
C1320 C1318 1.415 . S
C1320 C1325 1.425 . S
C1320 C1327 1.409 . S
C1321 H1313 0.930 . S
C1321 C1319 1.419 . S
C1321 C1322 1.362 . S
C1322 H1314 0.930 . S
C1322 C1321 1.362 . S
C1322 C1325 1.409 . S
C1323 H1315 0.930 . S
C1323 C1324 1.355 . S
C1323 C1325 1.415 . S
C1324 C1323 1.355 . S
C1324 C1326 1.419 . S
C1325 C1320 1.425 . S
C1325 C1322 1.409 . S
C1325 C1323 1.415 . S
C1326 H1316 0.930 . S
C1326 C1324 1.419 . S
C1326 C1327 1.362 . S
C1327 H1317 0.930 . S
C1327 C1320 1.409 . S
C1327 C1326 1.362 . S
H1328 C1334 0.930 . S
H1329 C1337 0.930 . S
H1330 C1338 0.930 . S
H1331 C1339 0.930 . S
H1332 C1342 0.930 . S
H1333 C1343 0.930 . S
C1334 H1328 0.930 . S
C1334 C1335 1.355 . S
C1334 C1336 1.415 . S
C1335 C1334 1.355 . S
C1335 C1337 1.419 1_545 S
C1336 C1334 1.415 . S
C1336 C1341 1.425 1_545 S
C1336 C1343 1.409 . S
C1337 H1329 0.930 . S
C1337 C1335 1.419 1_565 S
C1337 C1338 1.362 . S
C1338 H1330 0.930 . S
C1338 C1337 1.362 . S
C1338 C1341 1.409 . S
C1339 H1331 0.930 . S
C1339 C1340 1.355 . S
C1339 C1341 1.415 . S
C1340 C1339 1.355 . S
C1340 C1342 1.419 1_565 S
C1341 C1336 1.425 1_565 S
C1341 C1338 1.409 . S
C1341 C1339 1.415 . S
C1342 H1332 0.930 . S
C1342 C1340 1.419 1_545 S
C1342 C1343 1.362 . S
C1343 H1333 0.930 . S
C1343 C1336 1.409 . S
C1343 C1342 1.362 . S
H1344 C1350 0.930 . S
H1345 C1353 0.930 . S
H1346 C1354 0.930 . S
H1347 C1355 0.930 . S
H1348 C1358 0.930 . S
H1349 C1359 0.930 . S
C1350 H1344 0.930 . S
C1350 C1351 1.355 . S
C1350 C1352 1.415 . S
C1351 C1350 1.355 . S
C1351 C1353 1.419 . S
C1352 C1350 1.415 . S
C1352 C1357 1.425 . S
C1352 C1359 1.409 . S
C1353 H1345 0.930 . S
C1353 C1351 1.419 . S
C1353 C1354 1.362 . S
C1354 H1346 0.930 . S
C1354 C1353 1.362 . S
C1354 C1357 1.409 . S
C1355 H1347 0.930 . S
C1355 C1356 1.355 . S
C1355 C1357 1.415 . S
C1356 C1355 1.355 . S
C1356 C1358 1.419 . S
C1357 C1352 1.425 . S
C1357 C1354 1.409 . S
C1357 C1355 1.415 . S
C1358 H1348 0.930 . S
C1358 C1356 1.419 . S
C1358 C1359 1.362 . S
C1359 H1349 0.930 . S
C1359 C1352 1.409 . S
C1359 C1358 1.362 . S
H1360 C1366 0.930 . S
H1361 C1369 0.930 . S
H1362 C1370 0.930 . S
H1363 C1371 0.930 . S
H1364 C1374 0.930 . S
H1365 C1375 0.930 . S
C1366 H1360 0.930 . S
C1366 C1367 1.355 . S
C1366 C1368 1.415 1_455 S
C1367 C1366 1.355 . S
C1367 C1369 1.419 . S
C1368 C1366 1.415 1_655 S
C1368 C1373 1.425 . S
C1368 C1375 1.409 . S
C1369 H1361 0.930 . S
C1369 C1367 1.419 . S
C1369 C1370 1.362 1_455 S
C1370 H1362 0.930 . S
C1370 C1369 1.362 1_655 S
C1370 C1373 1.409 . S
C1371 H1363 0.930 . S
C1371 C1372 1.355 . S
C1371 C1373 1.415 . S
C1372 C1371 1.355 . S
C1372 C1374 1.419 . S
C1373 C1368 1.425 . S
C1373 C1370 1.409 . S
C1373 C1371 1.415 . S
C1374 H1364 0.930 . S
C1374 C1372 1.419 . S
C1374 C1375 1.362 . S
C1375 H1365 0.930 . S
C1375 C1368 1.409 . S
C1375 C1374 1.362 . S
H1376 C1382 0.930 . S
H1377 C1385 0.930 . S
H1378 C1386 0.930 . S
H1379 C1387 0.930 . S
H1380 C1390 0.930 . S
H1381 C1391 0.930 . S
C1382 H1376 0.930 . S
C1382 C1383 1.355 . S
C1382 C1384 1.415 . S
C1383 C1382 1.355 . S
C1383 C1385 1.419 . S
C1384 C1382 1.415 . S
C1384 C1389 1.425 . S
C1384 C1391 1.409 . S
C1385 H1377 0.930 . S
C1385 C1383 1.419 . S
C1385 C1386 1.362 . S
C1386 H1378 0.930 . S
C1386 C1385 1.362 . S
C1386 C1389 1.409 . S
C1387 H1379 0.930 . S
C1387 C1388 1.355 . S
C1387 C1389 1.415 . S
C1388 C1387 1.355 . S
C1388 C1390 1.419 . S
C1389 C1384 1.425 . S
C1389 C1386 1.409 . S
C1389 C1387 1.415 . S
C1390 H1380 0.930 . S
C1390 C1388 1.419 . S
C1390 C1391 1.362 . S
C1391 H1381 0.930 . S
C1391 C1384 1.409 . S
C1391 C1390 1.362 . S
H1392 C1398 0.930 . S
H1393 C1401 0.930 . S
H1394 C1402 0.930 . S
H1395 C1403 0.930 . S
H1396 C1406 0.930 . S
H1397 C1407 0.930 . S
C1398 H1392 0.930 . S
C1398 C1399 1.355 . S
C1398 C1400 1.415 . S
C1399 C1398 1.355 . S
C1399 C1401 1.419 . S
C1400 C1398 1.415 . S
C1400 C1405 1.425 . S
C1400 C1407 1.409 . S
C1401 H1393 0.930 . S
C1401 C1399 1.419 . S
C1401 C1402 1.362 . S
C1402 H1394 0.930 . S
C1402 C1401 1.362 . S
C1402 C1405 1.409 . S
C1403 H1395 0.930 . S
C1403 C1404 1.355 . S
C1403 C1405 1.415 . S
C1404 C1403 1.355 . S
C1404 C1406 1.419 . S
C1405 C1400 1.425 . S
C1405 C1402 1.409 . S
C1405 C1403 1.415 . S
C1406 H1396 0.930 . S
C1406 C1404 1.419 . S
C1406 C1407 1.362 . S
C1407 H1397 0.930 . S
C1407 C1400 1.409 . S
C1407 C1406 1.362 . S
H1408 C1414 0.930 . S
H1409 C1417 0.930 . S
H1410 C1418 0.930 . S
H1411 C1419 0.930 . S
H1412 C1422 0.930 . S
H1413 C1423 0.930 . S
C1414 H1408 0.930 . S
C1414 C1415 1.355 . S
C1414 C1416 1.415 . S
C1415 C1414 1.355 . S
C1415 C1417 1.419 . S
C1416 C1414 1.415 . S
C1416 C1421 1.425 . S
C1416 C1423 1.409 . S
C1417 H1409 0.930 . S
C1417 C1415 1.419 . S
C1417 C1418 1.362 . S
C1418 H1410 0.930 . S
C1418 C1417 1.362 . S
C1418 C1421 1.409 . S
C1419 H1411 0.930 . S
C1419 C1420 1.355 . S
C1419 C1421 1.415 . S
C1420 C1419 1.355 . S
C1420 C1422 1.419 . S
C1421 C1416 1.425 . S
C1421 C1418 1.409 . S
C1421 C1419 1.415 . S
C1422 H1412 0.930 . S
C1422 C1420 1.419 . S
C1422 C1423 1.362 . S
C1423 H1413 0.930 . S
C1423 C1416 1.409 . S
C1423 C1422 1.362 . S
H1424 C1430 0.930 . S
H1425 C1433 0.930 . S
H1426 C1434 0.930 . S
H1427 C1435 0.930 . S
H1428 C1438 0.930 . S
H1429 C1439 0.930 . S
C1430 H1424 0.930 . S
C1430 C1431 1.355 . S
C1430 C1432 1.415 . S
C1431 C1430 1.355 . S
C1431 C1433 1.419 . S
C1432 C1430 1.415 . S
C1432 C1437 1.425 . S
C1432 C1439 1.409 . S
C1433 H1425 0.930 . S
C1433 C1431 1.419 . S
C1433 C1434 1.362 . S
C1434 H1426 0.930 . S
C1434 C1433 1.362 . S
C1434 C1437 1.409 . S
C1435 H1427 0.930 . S
C1435 C1436 1.355 . S
C1435 C1437 1.415 . S
C1436 C1435 1.355 . S
C1436 C1438 1.419 . S
C1437 C1432 1.425 . S
C1437 C1434 1.409 . S
C1437 C1435 1.415 . S
C1438 H1428 0.930 . S
C1438 C1436 1.419 . S
C1438 C1439 1.362 . S
C1439 H1429 0.930 . S
C1439 C1432 1.409 . S
C1439 C1438 1.362 . S
H1440 C1446 0.930 . S
H1441 C1449 0.930 . S
H1442 C1450 0.930 . S
H1443 C1451 0.930 . S
H1444 C1454 0.930 . S
H1445 C1455 0.930 . S
C1446 H1440 0.930 . S
C1446 C1447 1.355 . S
C1446 C1448 1.415 . S
C1447 C1446 1.355 . S
C1447 C1449 1.419 . S
C1448 C1446 1.415 . S
C1448 C1453 1.425 . S
C1448 C1455 1.409 . S
C1449 H1441 0.930 . S
C1449 C1447 1.419 . S
C1449 C1450 1.362 . S
C1450 H1442 0.930 . S
C1450 C1449 1.362 . S
C1450 C1453 1.409 . S
C1451 H1443 0.930 . S
C1451 C1452 1.355 . S
C1451 C1453 1.415 . S
C1452 C1451 1.355 . S
C1452 C1454 1.419 . S
C1453 C1448 1.425 . S
C1453 C1450 1.409 . S
C1453 C1451 1.415 . S
C1454 H1444 0.930 . S
C1454 C1452 1.419 . S
C1454 C1455 1.362 . S
C1455 H1445 0.930 . S
C1455 C1448 1.409 . S
C1455 C1454 1.362 . S
H1456 C1462 0.930 . S
H1457 C1465 0.930 . S
H1458 C1466 0.930 . S
H1459 C1467 0.930 . S
H1460 C1470 0.930 . S
H1461 C1471 0.930 . S
C1462 H1456 0.930 . S
C1462 C1463 1.355 1_655 S
C1462 C1464 1.415 . S
C1463 C1462 1.355 1_455 S
C1463 C1465 1.419 . S
C1464 C1462 1.415 . S
C1464 C1469 1.425 . S
C1464 C1471 1.409 . S
C1465 H1457 0.930 . S
C1465 C1463 1.419 . S
C1465 C1466 1.362 1_455 S
C1466 H1458 0.930 . S
C1466 C1465 1.362 1_655 S
C1466 C1469 1.409 . S
C1467 H1459 0.930 . S
C1467 C1468 1.355 . S
C1467 C1469 1.415 . S
C1468 C1467 1.355 . S
C1468 C1470 1.419 . S
C1469 C1464 1.425 . S
C1469 C1466 1.409 . S
C1469 C1467 1.415 . S
C1470 H1460 0.930 . S
C1470 C1468 1.419 . S
C1470 C1471 1.362 . S
C1471 H1461 0.930 . S
C1471 C1464 1.409 . S
C1471 C1470 1.362 . S
H1472 C1478 0.930 . S
H1473 C1481 0.930 . S
H1474 C1482 0.930 . S
H1475 C1483 0.930 . S
H1476 C1486 0.930 . S
H1477 C1487 0.930 . S
C1478 H1472 0.930 . S
C1478 C1479 1.355 . S
C1478 C1480 1.415 . S
C1479 C1478 1.355 . S
C1479 C1481 1.419 . S
C1480 C1478 1.415 . S
C1480 C1485 1.425 . S
C1480 C1487 1.409 . S
C1481 H1473 0.930 . S
C1481 C1479 1.419 . S
C1481 C1482 1.362 . S
C1482 H1474 0.930 . S
C1482 C1481 1.362 . S
C1482 C1485 1.409 . S
C1483 H1475 0.930 . S
C1483 C1484 1.355 . S
C1483 C1485 1.415 . S
C1484 C1483 1.355 . S
C1484 C1486 1.419 . S
C1485 C1480 1.425 . S
C1485 C1482 1.409 . S
C1485 C1483 1.415 . S
C1486 H1476 0.930 . S
C1486 C1484 1.419 . S
C1486 C1487 1.362 . S
C1487 H1477 0.930 . S
C1487 C1480 1.409 . S
C1487 C1486 1.362 . S
H1488 C1494 0.933 . S
H1489 C1497 0.930 . S
H1490 C1498 0.930 . S
H1491 C1499 0.930 . S
H1492 C1502 0.930 . S
H1493 C1503 0.930 . S
C1494 H1488 0.933 . S
C1494 C1495 1.368 . S
C1494 C1496 1.398 1_655 S
C1495 C1494 1.368 . S
C1495 C1497 1.419 . S
C1496 C1494 1.398 1_455 S
C1496 C1501 1.425 . S
C1496 C1503 1.409 . S
C1497 H1489 0.930 . S
C1497 C1495 1.419 . S
C1497 C1498 1.362 1_655 S
C1498 H1490 0.930 . S
C1498 C1497 1.362 1_455 S
C1498 C1501 1.409 . S
C1499 H1491 0.930 . S
C1499 C1500 1.355 . S
C1499 C1501 1.415 . S
C1500 C1499 1.355 . S
C1500 C1502 1.419 . S
C1501 C1496 1.425 . S
C1501 C1498 1.409 . S
C1501 C1499 1.415 . S
C1502 H1492 0.930 . S
C1502 C1500 1.419 . S
C1502 C1503 1.362 . S
C1503 H1493 0.930 . S
C1503 C1496 1.409 . S
C1503 C1502 1.362 . S
H1504 C1510 0.930 . S
H1505 C1513 0.930 . S
H1506 C1514 0.930 . S
H1507 C1515 0.930 . S
H1508 C1518 0.930 . S
H1509 C1519 0.930 . S
C1510 H1504 0.930 . S
C1510 C1511 1.355 . S
C1510 C1512 1.415 . S
C1511 C1510 1.355 . S
C1511 C1513 1.419 . S
C1512 C1510 1.415 . S
C1512 C1517 1.425 . S
C1512 C1519 1.409 . S
C1513 H1505 0.930 . S
C1513 C1511 1.419 . S
C1513 C1514 1.362 . S
C1514 H1506 0.930 . S
C1514 C1513 1.362 . S
C1514 C1517 1.409 . S
C1515 H1507 0.930 . S
C1515 C1516 1.355 . S
C1515 C1517 1.415 . S
C1516 C1515 1.355 . S
C1516 C1518 1.419 . S
C1517 C1512 1.425 . S
C1517 C1514 1.409 . S
C1517 C1515 1.415 . S
C1518 H1508 0.930 . S
C1518 C1516 1.419 . S
C1518 C1519 1.362 . S
C1519 H1509 0.930 . S
C1519 C1512 1.409 . S
C1519 C1518 1.362 . S
H1520 C1526 0.930 . S
H1521 C1529 0.930 . S
H1522 C1530 0.930 . S
H1523 C1531 0.930 . S
H1524 C1534 0.930 . S
H1525 C1535 0.930 . S
C1526 H1520 0.930 . S
C1526 C1527 1.355 . S
C1526 C1528 1.415 . S
C1527 C1526 1.355 . S
C1527 C1529 1.419 . S
C1528 C1526 1.415 . S
C1528 C1533 1.425 . S
C1528 C1535 1.409 . S
C1529 H1521 0.930 . S
C1529 C1527 1.419 . S
C1529 C1530 1.362 . S
C1530 H1522 0.930 . S
C1530 C1529 1.362 . S
C1530 C1533 1.409 . S
C1531 H1523 0.930 . S
C1531 C1532 1.355 . S
C1531 C1533 1.415 . S
C1532 C1531 1.355 . S
C1532 C1534 1.419 . S
C1533 C1528 1.425 . S
C1533 C1530 1.409 . S
C1533 C1531 1.415 . S
C1534 H1524 0.930 . S
C1534 C1532 1.419 . S
C1534 C1535 1.362 . S
C1535 H1525 0.930 . S
C1535 C1528 1.409 . S
C1535 C1534 1.362 . S
H1536 C1542 0.930 . S
H1537 C1545 0.930 . S
H1538 C1546 0.930 . S
H1539 C1547 0.930 . S
H1540 C1550 0.930 . S
H1541 C1551 0.930 . S
C1542 H1536 0.930 . S
C1542 C1543 1.355 . S
C1542 C1544 1.415 . S
C1543 C1542 1.355 . S
C1543 C1545 1.419 . S
C1544 C1542 1.415 . S
C1544 C1549 1.425 . S
C1544 C1551 1.409 . S
C1545 H1537 0.930 . S
C1545 C1543 1.419 . S
C1545 C1546 1.362 . S
C1546 H1538 0.930 . S
C1546 C1545 1.362 . S
C1546 C1549 1.409 . S
C1547 H1539 0.930 . S
C1547 C1548 1.355 . S
C1547 C1549 1.415 . S
C1548 C1547 1.355 . S
C1548 C1550 1.419 . S
C1549 C1544 1.425 . S
C1549 C1546 1.409 . S
C1549 C1547 1.415 . S
C1550 H1540 0.930 . S
C1550 C1548 1.419 . S
C1550 C1551 1.362 . S
C1551 H1541 0.930 . S
C1551 C1544 1.409 . S
C1551 C1550 1.362 . S
H1552 C1558 0.930 . S
H1553 C1561 0.930 . S
H1554 C1562 0.930 . S
H1555 C1563 0.930 . S
H1556 C1566 0.930 . S
H1557 C1567 0.930 . S
C1558 H1552 0.930 . S
C1558 C1559 1.355 . S
C1558 C1560 1.415 . S
C1559 C1558 1.355 . S
C1559 C1561 1.419 . S
C1560 C1558 1.415 . S
C1560 C1565 1.425 . S
C1560 C1567 1.409 . S
C1561 H1553 0.930 . S
C1561 C1559 1.419 . S
C1561 C1562 1.362 . S
C1562 H1554 0.930 . S
C1562 C1561 1.362 . S
C1562 C1565 1.409 . S
C1563 H1555 0.930 . S
C1563 C1564 1.355 . S
C1563 C1565 1.415 . S
C1564 C1563 1.355 . S
C1564 C1566 1.419 . S
C1565 C1560 1.425 . S
C1565 C1562 1.409 . S
C1565 C1563 1.415 . S
C1566 H1556 0.930 . S
C1566 C1564 1.419 . S
C1566 C1567 1.362 . S
C1567 H1557 0.930 . S
C1567 C1560 1.409 . S
C1567 C1566 1.362 . S
H1568 C1574 0.930 . S
H1569 C1577 0.930 . S
H1570 C1578 0.930 . S
H1571 C1579 0.930 . S
H1572 C1582 0.930 . S
H1573 C1583 0.930 . S
C1574 H1568 0.930 . S
C1574 C1575 1.355 . S
C1574 C1576 1.415 . S
C1575 C1574 1.355 . S
C1575 C1577 1.419 . S
C1576 C1574 1.415 . S
C1576 C1581 1.425 . S
C1576 C1583 1.409 . S
C1577 H1569 0.930 . S
C1577 C1575 1.419 . S
C1577 C1578 1.362 . S
C1578 H1570 0.930 . S
C1578 C1577 1.362 . S
C1578 C1581 1.409 . S
C1579 H1571 0.930 . S
C1579 C1580 1.355 . S
C1579 C1581 1.415 . S
C1580 C1579 1.355 . S
C1580 C1582 1.419 . S
C1581 C1576 1.425 . S
C1581 C1578 1.409 . S
C1581 C1579 1.415 . S
C1582 H1572 0.930 . S
C1582 C1580 1.419 . S
C1582 C1583 1.362 . S
C1583 H1573 0.930 . S
C1583 C1576 1.409 . S
C1583 C1582 1.362 . S
H1584 C1590 0.930 . S
H1585 C1593 0.930 . S
H1586 C1594 0.930 . S
H1587 C1595 0.930 . S
H1588 C1598 0.930 . S
H1589 C1599 0.930 . S
C1590 H1584 0.930 . S
C1590 C1591 1.355 . S
C1590 C1592 1.415 1_655 S
C1591 C1590 1.355 . S
C1591 C1593 1.419 . S
C1592 C1590 1.415 1_455 S
C1592 C1597 1.425 . S
C1592 C1599 1.409 . S
C1593 H1585 0.930 . S
C1593 C1591 1.419 . S
C1593 C1594 1.362 1_655 S
C1594 H1586 0.930 . S
C1594 C1593 1.362 1_455 S
C1594 C1597 1.409 . S
C1595 H1587 0.930 . S
C1595 C1596 1.355 . S
C1595 C1597 1.415 . S
C1596 C1595 1.355 . S
C1596 C1598 1.419 . S
C1597 C1592 1.425 . S
C1597 C1594 1.409 . S
C1597 C1595 1.415 . S
C1598 H1588 0.930 . S
C1598 C1596 1.419 . S
C1598 C1599 1.362 . S
C1599 H1589 0.930 . S
C1599 C1592 1.409 . S
C1599 C1598 1.362 . S
H1600 C1606 0.930 . S
H1601 C1609 0.930 . S
H1602 C1610 0.930 . S
H1603 C1611 0.930 . S
H1604 C1614 0.930 . S
H1605 C1615 0.930 . S
C1606 H1600 0.930 . S
C1606 C1607 1.355 . S
C1606 C1608 1.415 . S
C1607 C1606 1.355 . S
C1607 C1609 1.419 . S
C1608 C1606 1.415 . S
C1608 C1613 1.425 . S
C1608 C1615 1.409 . S
C1609 H1601 0.930 . S
C1609 C1607 1.419 . S
C1609 C1610 1.362 . S
C1610 H1602 0.930 . S
C1610 C1609 1.362 . S
C1610 C1613 1.409 . S
C1611 H1603 0.930 . S
C1611 C1612 1.355 . S
C1611 C1613 1.415 . S
C1612 C1611 1.355 . S
C1612 C1614 1.419 . S
C1613 C1608 1.425 . S
C1613 C1610 1.409 . S
C1613 C1611 1.415 . S
C1614 H1604 0.930 . S
C1614 C1612 1.419 . S
C1614 C1615 1.362 . S
C1615 H1605 0.930 . S
C1615 C1608 1.409 . S
C1615 C1614 1.362 . S
H1616 C1622 0.930 . S
H1617 C1625 0.930 . S
H1618 C1626 0.930 1_655 S
H1619 C1627 0.930 . S
H1620 C1630 0.930 . S
H1621 C1631 0.930 1_455 S
C1622 H1616 0.930 . S
C1622 C1623 1.355 . S
C1622 C1624 1.415 . S
C1623 C1622 1.355 . S
C1623 C1625 1.419 . S
C1624 C1622 1.415 . S
C1624 C1629 1.425 1_455 S
C1624 C1631 1.409 1_455 S
C1625 H1617 0.930 . S
C1625 C1623 1.419 . S
C1625 C1626 1.362 . S
C1626 H1618 0.930 1_455 S
C1626 C1625 1.362 . S
C1626 C1629 1.409 1_455 S
C1627 H1619 0.930 . S
C1627 C1628 1.355 . S
C1627 C1629 1.415 . S
C1628 C1627 1.355 . S
C1628 C1630 1.419 . S
C1629 C1624 1.425 1_655 S
C1629 C1626 1.409 1_655 S
C1629 C1627 1.415 . S
C1630 H1620 0.930 . S
C1630 C1628 1.419 . S
C1630 C1631 1.362 . S
C1631 H1621 0.930 1_655 S
C1631 C1624 1.409 1_655 S
C1631 C1630 1.362 . S
H1632 C1638 0.930 . S
H1633 C1641 0.930 . S
H1634 C1642 0.930 . S
H1635 C1643 0.930 . S
H1636 C1646 0.930 . S
H1637 C1647 0.930 . S
C1638 H1632 0.930 . S
C1638 C1639 1.355 1_455 S
C1638 C1640 1.415 . S
C1639 C1638 1.355 1_655 S
C1639 C1641 1.419 . S
C1640 C1638 1.415 . S
C1640 C1645 1.425 1_455 S
C1640 C1647 1.409 . S
C1641 H1633 0.930 . S
C1641 C1639 1.419 . S
C1641 C1642 1.362 . S
C1642 H1634 0.930 . S
C1642 C1641 1.362 . S
C1642 C1645 1.409 . S
C1643 H1635 0.930 . S
C1643 C1644 1.355 1_655 S
C1643 C1645 1.415 . S
C1644 C1643 1.355 1_455 S
C1644 C1646 1.419 . S
C1645 C1640 1.425 1_655 S
C1645 C1642 1.409 . S
C1645 C1643 1.415 . S
C1646 H1636 0.930 . S
C1646 C1644 1.419 . S
C1646 C1647 1.362 . S
C1647 H1637 0.930 . S
C1647 C1640 1.409 . S
C1647 C1646 1.362 . S
H1648 C1654 0.930 . S
H1649 C1657 0.930 . S
H1650 C1658 0.930 . S
H1651 C1659 0.930 . S
H1652 C1662 0.930 . S
H1653 C1663 0.930 . S
C1654 H1648 0.930 . S
C1654 C1655 1.355 . S
C1654 C1656 1.415 . S
C1655 C1654 1.355 . S
C1655 C1657 1.419 . S
C1656 C1654 1.415 . S
C1656 C1661 1.425 . S
C1656 C1663 1.409 . S
C1657 H1649 0.930 . S
C1657 C1655 1.419 . S
C1657 C1658 1.362 . S
C1658 H1650 0.930 . S
C1658 C1657 1.362 . S
C1658 C1661 1.409 . S
C1659 H1651 0.930 . S
C1659 C1660 1.355 . S
C1659 C1661 1.415 . S
C1660 C1659 1.355 . S
C1660 C1662 1.419 . S
C1661 C1656 1.425 . S
C1661 C1658 1.409 . S
C1661 C1659 1.415 . S
C1662 H1652 0.930 . S
C1662 C1660 1.419 . S
C1662 C1663 1.362 . S
C1663 H1653 0.930 . S
C1663 C1656 1.409 . S
C1663 C1662 1.362 . S
H1664 C1670 0.930 . S
H1665 C1673 0.930 . S
H1666 C1674 0.930 . S
H1667 C1675 0.930 . S
H1668 C1678 0.930 . S
H1669 C1679 0.930 . S
C1670 H1664 0.930 . S
C1670 C1671 1.355 . S
C1670 C1672 1.415 . S
C1671 C1670 1.355 . S
C1671 C1673 1.419 . S
C1672 C1670 1.415 . S
C1672 C1677 1.425 . S
C1672 C1679 1.409 . S
C1673 H1665 0.930 . S
C1673 C1671 1.419 . S
C1673 C1674 1.362 . S
C1674 H1666 0.930 . S
C1674 C1673 1.362 . S
C1674 C1677 1.409 . S
C1675 H1667 0.930 . S
C1675 C1676 1.355 . S
C1675 C1677 1.415 . S
C1676 C1675 1.355 . S
C1676 C1678 1.419 . S
C1677 C1672 1.425 . S
C1677 C1674 1.409 . S
C1677 C1675 1.415 . S
C1678 H1668 0.930 . S
C1678 C1676 1.419 . S
C1678 C1679 1.362 . S
C1679 H1669 0.930 . S
C1679 C1672 1.409 . S
C1679 C1678 1.362 . S
H1680 C1686 0.930 . S
H1681 C1689 0.930 . S
H1682 C1690 0.930 . S
H1683 C1691 0.930 . S
H1684 C1694 0.930 . S
H1685 C1695 0.930 . S
C1686 H1680 0.930 . S
C1686 C1687 1.355 . S
C1686 C1688 1.415 . S
C1687 C1686 1.355 . S
C1687 C1689 1.419 . S
C1688 C1686 1.415 . S
C1688 C1693 1.425 . S
C1688 C1695 1.409 . S
C1689 H1681 0.930 . S
C1689 C1687 1.419 . S
C1689 C1690 1.362 . S
C1690 H1682 0.930 . S
C1690 C1689 1.362 . S
C1690 C1693 1.409 . S
C1691 H1683 0.930 . S
C1691 C1692 1.355 . S
C1691 C1693 1.415 . S
C1692 C1691 1.355 . S
C1692 C1694 1.419 . S
C1693 C1688 1.425 . S
C1693 C1690 1.409 . S
C1693 C1691 1.415 . S
C1694 H1684 0.930 . S
C1694 C1692 1.419 . S
C1694 C1695 1.362 . S
C1695 H1685 0.930 . S
C1695 C1688 1.409 . S
C1695 C1694 1.362 . S
H1696 C1702 0.930 . S
H1697 C1705 0.930 . S
H1698 C1706 0.930 . S
H1699 C1707 0.930 . S
H1700 C1710 0.930 . S
H1701 C1711 0.930 . S
C1702 H1696 0.930 . S
C1702 C1703 1.355 1_655 S
C1702 C1704 1.415 . S
C1703 C1702 1.355 1_455 S
C1703 C1705 1.419 . S
C1704 C1702 1.415 . S
C1704 C1709 1.425 1_655 S
C1704 C1711 1.409 . S
C1705 H1697 0.930 . S
C1705 C1703 1.419 . S
C1705 C1706 1.362 . S
C1706 H1698 0.930 . S
C1706 C1705 1.362 . S
C1706 C1709 1.409 . S
C1707 H1699 0.930 . S
C1707 C1708 1.355 1_455 S
C1707 C1709 1.415 . S
C1708 C1707 1.355 1_655 S
C1708 C1710 1.419 . S
C1709 C1704 1.425 1_455 S
C1709 C1706 1.409 . S
C1709 C1707 1.415 . S
C1710 H1700 0.930 . S
C1710 C1708 1.419 . S
C1710 C1711 1.362 . S
C1711 H1701 0.930 . S
C1711 C1704 1.409 . S
C1711 C1710 1.362 . S
H1712 C1718 0.930 . S
H1713 C1721 0.930 . S
H1714 C1722 0.930 . S
H1715 C1723 0.930 . S
H1716 C1726 0.930 . S
H1717 C1727 0.930 . S
C1718 H1712 0.930 . S
C1718 C1719 1.355 . S
C1718 C1720 1.415 . S
C1719 C1718 1.355 . S
C1719 C1721 1.419 . S
C1720 C1718 1.415 . S
C1720 C1725 1.425 1_655 S
C1720 C1727 1.409 1_655 S
C1721 H1713 0.930 . S
C1721 C1719 1.419 . S
C1721 C1722 1.362 . S
C1722 H1714 0.930 . S
C1722 C1721 1.362 . S
C1722 C1725 1.409 1_655 S
C1723 H1715 0.930 . S
C1723 C1724 1.355 . S
C1723 C1725 1.415 . S
C1724 C1723 1.355 . S
C1724 C1726 1.419 . S
C1725 C1720 1.425 1_455 S
C1725 C1722 1.409 1_455 S
C1725 C1723 1.415 . S
C1726 H1716 0.930 . S
C1726 C1724 1.419 . S
C1726 C1727 1.362 . S
C1727 H1717 0.930 . S
C1727 C1720 1.409 1_455 S
C1727 C1726 1.362 . S
H1728 C1734 0.930 . S
H1729 C1737 0.930 . S
H1730 C1738 0.930 . S
H1731 C1739 0.930 . S
H1732 C1742 0.930 . S
H1733 C1743 0.930 . S
C1734 H1728 0.930 . S
C1734 C1735 1.355 . S
C1734 C1736 1.415 . S
C1735 C1734 1.355 . S
C1735 C1737 1.419 . S
C1736 C1734 1.415 . S
C1736 C1741 1.425 . S
C1736 C1743 1.409 . S
C1737 H1729 0.930 . S
C1737 C1735 1.419 . S
C1737 C1738 1.362 . S
C1738 H1730 0.930 . S
C1738 C1737 1.362 . S
C1738 C1741 1.409 . S
C1739 H1731 0.930 . S
C1739 C1740 1.355 . S
C1739 C1741 1.415 . S
C1740 C1739 1.355 . S
C1740 C1742 1.419 . S
C1741 C1736 1.425 . S
C1741 C1738 1.409 . S
C1741 C1739 1.415 . S
C1742 H1732 0.930 . S
C1742 C1740 1.419 . S
C1742 C1743 1.362 . S
C1743 H1733 0.930 . S
C1743 C1736 1.409 . S
C1743 C1742 1.362 . S
H1744 C1750 0.930 . S
H1745 C1753 0.930 . S
H1746 C1754 0.930 . S
H1747 C1755 0.930 . S
H1748 C1758 0.930 . S
H1749 C1759 0.930 . S
C1750 H1744 0.930 . S
C1750 C1751 1.355 . S
C1750 C1752 1.415 . S
C1751 C1750 1.355 . S
C1751 C1753 1.419 . S
C1752 C1750 1.415 . S
C1752 C1757 1.425 1_655 S
C1752 C1759 1.409 1_655 S
C1753 H1745 0.930 . S
C1753 C1751 1.419 . S
C1753 C1754 1.362 . S
C1754 H1746 0.930 . S
C1754 C1753 1.362 . S
C1754 C1757 1.409 1_655 S
C1755 H1747 0.930 . S
C1755 C1756 1.355 . S
C1755 C1757 1.415 . S
C1756 C1755 1.355 . S
C1756 C1758 1.419 . S
C1757 C1752 1.425 1_455 S
C1757 C1754 1.409 1_455 S
C1757 C1755 1.415 . S
C1758 H1748 0.930 . S
C1758 C1756 1.419 . S
C1758 C1759 1.362 . S
C1759 H1749 0.930 . S
C1759 C1752 1.409 1_455 S
C1759 C1758 1.362 . S
H1760 C1766 0.930 . S
H1761 C1769 0.930 . S
H1762 C1770 0.930 . S
H1763 C1771 0.930 . S
H1764 C1774 0.930 . S
H1765 C1775 0.930 . S
C1766 H1760 0.930 . S
C1766 C1767 1.355 . S
C1766 C1768 1.415 . S
C1767 C1766 1.355 . S
C1767 C1769 1.419 1_455 S
C1768 C1766 1.415 . S
C1768 C1773 1.425 1_455 S
C1768 C1775 1.409 . S
C1769 H1761 0.930 . S
C1769 C1767 1.419 1_655 S
C1769 C1770 1.362 . S
C1770 H1762 0.930 . S
C1770 C1769 1.362 . S
C1770 C1773 1.409 . S
C1771 H1763 0.930 . S
C1771 C1772 1.355 . S
C1771 C1773 1.415 . S
C1772 C1771 1.355 . S
C1772 C1774 1.419 1_655 S
C1773 C1768 1.425 1_655 S
C1773 C1770 1.409 . S
C1773 C1771 1.415 . S
C1774 H1764 0.930 . S
C1774 C1772 1.419 1_455 S
C1774 C1775 1.362 . S
C1775 H1765 0.930 . S
C1775 C1768 1.409 . S
C1775 C1774 1.362 . S
H1776 C1782 0.930 . S
H1777 C1785 0.930 . S
H1778 C1786 0.930 . S
H1779 C1787 0.930 . S
H1780 C1790 0.930 . S
H1781 C1791 0.930 . S
C1782 H1776 0.930 . S
C1782 C1783 1.355 . S
C1782 C1784 1.415 . S
C1783 C1782 1.355 . S
C1783 C1785 1.419 . S
C1784 C1782 1.415 . S
C1784 C1789 1.425 . S
C1784 C1791 1.409 . S
C1785 H1777 0.930 . S
C1785 C1783 1.419 . S
C1785 C1786 1.362 . S
C1786 H1778 0.930 . S
C1786 C1785 1.362 . S
C1786 C1789 1.409 . S
C1787 H1779 0.930 . S
C1787 C1788 1.355 . S
C1787 C1789 1.415 . S
C1788 C1787 1.355 . S
C1788 C1790 1.419 . S
C1789 C1784 1.425 . S
C1789 C1786 1.409 . S
C1789 C1787 1.415 . S
C1790 H1780 0.930 . S
C1790 C1788 1.419 . S
C1790 C1791 1.362 . S
C1791 H1781 0.930 . S
C1791 C1784 1.409 . S
C1791 C1790 1.362 . S
H1792 C1798 0.930 . S
H1793 C1801 0.930 . S
H1794 C1802 0.930 . S
H1795 C1803 0.930 . S
H1796 C1806 0.930 . S
H1797 C1807 0.930 . S
C1798 H1792 0.930 . S
C1798 C1799 1.355 . S
C1798 C1800 1.415 . S
C1799 C1798 1.355 . S
C1799 C1801 1.419 . S
C1800 C1798 1.415 . S
C1800 C1805 1.425 . S
C1800 C1807 1.409 . S
C1801 H1793 0.930 . S
C1801 C1799 1.419 . S
C1801 C1802 1.362 . S
C1802 H1794 0.930 . S
C1802 C1801 1.362 . S
C1802 C1805 1.409 . S
C1803 H1795 0.930 . S
C1803 C1804 1.355 . S
C1803 C1805 1.415 . S
C1804 C1803 1.355 . S
C1804 C1806 1.419 . S
C1805 C1800 1.425 . S
C1805 C1802 1.409 . S
C1805 C1803 1.415 . S
C1806 H1796 0.930 . S
C1806 C1804 1.419 . S
C1806 C1807 1.362 . S
C1807 H1797 0.930 . S
C1807 C1800 1.409 . S
C1807 C1806 1.362 . S
H1808 C1814 0.930 . S
H1809 C1817 0.930 . S
H1810 C1818 0.930 . S
H1811 C1819 0.930 . S
H1812 C1822 0.930 . S
H1813 C1823 0.930 . S
C1814 H1808 0.930 . S
C1814 C1815 1.355 . S
C1814 C1816 1.415 . S
C1815 C1814 1.355 . S
C1815 C1817 1.419 . S
C1816 C1814 1.415 . S
C1816 C1821 1.425 . S
C1816 C1823 1.409 . S
C1817 H1809 0.930 . S
C1817 C1815 1.419 . S
C1817 C1818 1.362 . S
C1818 H1810 0.930 . S
C1818 C1817 1.362 . S
C1818 C1821 1.409 . S
C1819 H1811 0.930 . S
C1819 C1820 1.355 . S
C1819 C1821 1.415 . S
C1820 C1819 1.355 . S
C1820 C1822 1.419 . S
C1821 C1816 1.425 . S
C1821 C1818 1.409 . S
C1821 C1819 1.415 . S
C1822 H1812 0.930 . S
C1822 C1820 1.419 . S
C1822 C1823 1.362 . S
C1823 H1813 0.930 . S
C1823 C1816 1.409 . S
C1823 C1822 1.362 . S
H1824 C1830 0.930 . S
H1825 C1833 0.930 . S
H1826 C1834 0.930 . S
H1827 C1835 0.930 . S
H1828 C1838 0.930 . S
H1829 C1839 0.930 . S
C1830 H1824 0.930 . S
C1830 C1831 1.355 . S
C1830 C1832 1.415 . S
C1831 C1830 1.355 . S
C1831 C1833 1.419 . S
C1832 C1830 1.415 . S
C1832 C1837 1.425 1_455 S
C1832 C1839 1.409 1_455 S
C1833 H1825 0.930 . S
C1833 C1831 1.419 . S
C1833 C1834 1.362 . S
C1834 H1826 0.930 . S
C1834 C1833 1.362 . S
C1834 C1837 1.409 1_455 S
C1835 H1827 0.930 . S
C1835 C1836 1.355 . S
C1835 C1837 1.415 . S
C1836 C1835 1.355 . S
C1836 C1838 1.419 . S
C1837 C1832 1.425 1_655 S
C1837 C1834 1.409 1_655 S
C1837 C1835 1.415 . S
C1838 H1828 0.930 . S
C1838 C1836 1.419 . S
C1838 C1839 1.362 . S
C1839 H1829 0.930 . S
C1839 C1832 1.409 1_655 S
C1839 C1838 1.362 . S
H1840 C1846 0.930 . S
H1841 C1849 0.930 . S
H1842 C1850 0.930 1_655 S
H1843 C1851 0.930 . S
H1844 C1854 0.930 . S
H1845 C1855 0.930 1_455 S
C1846 H1840 0.930 . S
C1846 C1847 1.355 . S
C1846 C1848 1.415 . S
C1847 C1846 1.355 . S
C1847 C1849 1.419 . S
C1848 C1846 1.415 . S
C1848 C1853 1.425 1_455 S
C1848 C1855 1.409 1_455 S
C1849 H1841 0.930 . S
C1849 C1847 1.419 . S
C1849 C1850 1.362 . S
C1850 H1842 0.930 1_455 S
C1850 C1849 1.362 . S
C1850 C1853 1.409 1_455 S
C1851 H1843 0.930 . S
C1851 C1852 1.355 . S
C1851 C1853 1.415 . S
C1852 C1851 1.355 . S
C1852 C1854 1.419 . S
C1853 C1848 1.425 1_655 S
C1853 C1850 1.409 1_655 S
C1853 C1851 1.415 . S
C1854 H1844 0.930 . S
C1854 C1852 1.419 . S
C1854 C1855 1.362 . S
C1855 H1845 0.930 1_655 S
C1855 C1848 1.409 1_655 S
C1855 C1854 1.362 . S
H1856 C1862 0.930 . S
H1857 C1865 0.930 . S
H1858 C1866 0.930 . S
H1859 C1867 0.930 . S
H1860 C1870 0.930 . S
H1861 C1871 0.930 . S
C1862 H1856 0.930 . S
C1862 C1863 1.355 . S
C1862 C1864 1.415 . S
C1863 C1862 1.355 . S
C1863 C1865 1.419 . S
C1864 C1862 1.415 . S
C1864 C1869 1.425 . S
C1864 C1871 1.409 . S
C1865 H1857 0.930 . S
C1865 C1863 1.419 . S
C1865 C1866 1.362 . S
C1866 H1858 0.930 . S
C1866 C1865 1.362 . S
C1866 C1869 1.409 . S
C1867 H1859 0.930 . S
C1867 C1868 1.355 . S
C1867 C1869 1.415 . S
C1868 C1867 1.355 . S
C1868 C1870 1.419 . S
C1869 C1864 1.425 . S
C1869 C1866 1.409 . S
C1869 C1867 1.415 . S
C1870 H1860 0.930 . S
C1870 C1868 1.419 . S
C1870 C1871 1.362 . S
C1871 H1861 0.930 . S
C1871 C1864 1.409 . S
C1871 C1870 1.362 . S
H1872 C1878 0.930 . S
H1873 C1881 0.930 . S
H1874 C1882 0.930 . S
H1875 C1883 0.930 . S
H1876 C1886 0.930 . S
H1877 C1887 0.930 . S
C1878 H1872 0.930 . S
C1878 C1879 1.355 . S
C1878 C1880 1.415 . S
C1879 C1878 1.355 . S
C1879 C1881 1.419 . S
C1880 C1878 1.415 . S
C1880 C1885 1.425 . S
C1880 C1887 1.409 . S
C1881 H1873 0.930 . S
C1881 C1879 1.419 . S
C1881 C1882 1.362 . S
C1882 H1874 0.930 . S
C1882 C1881 1.362 . S
C1882 C1885 1.409 . S
C1883 H1875 0.930 . S
C1883 C1884 1.355 . S
C1883 C1885 1.415 . S
C1884 C1883 1.355 . S
C1884 C1886 1.419 . S
C1885 C1880 1.425 . S
C1885 C1882 1.409 . S
C1885 C1883 1.415 . S
C1886 H1876 0.930 . S
C1886 C1884 1.419 . S
C1886 C1887 1.362 . S
C1887 H1877 0.930 . S
C1887 C1880 1.409 . S
C1887 C1886 1.362 . S
H1888 C1894 0.930 . S
H1889 C1897 0.930 . S
H1890 C1898 0.930 . S
H1891 C1899 0.930 . S
H1892 C1902 0.930 . S
H1893 C1903 0.930 . S
C1894 H1888 0.930 . S
C1894 C1895 1.355 . S
C1894 C1896 1.415 . S
C1895 C1894 1.355 . S
C1895 C1897 1.419 . S
C1896 C1894 1.415 . S
C1896 C1901 1.425 . S
C1896 C1903 1.409 . S
C1897 H1889 0.930 . S
C1897 C1895 1.419 . S
C1897 C1898 1.362 . S
C1898 H1890 0.930 . S
C1898 C1897 1.362 . S
C1898 C1901 1.409 . S
C1899 H1891 0.930 . S
C1899 C1900 1.355 . S
C1899 C1901 1.415 . S
C1900 C1899 1.355 . S
C1900 C1902 1.419 . S
C1901 C1896 1.425 . S
C1901 C1898 1.409 . S
C1901 C1899 1.415 . S
C1902 H1892 0.930 . S
C1902 C1900 1.419 . S
C1902 C1903 1.362 . S
C1903 H1893 0.930 . S
C1903 C1896 1.409 . S
C1903 C1902 1.362 . S
H1904 C1910 0.930 . S
H1905 C1913 0.930 . S
H1906 C1914 0.930 . S
H1907 C1915 0.930 . S
H1908 C1918 0.930 . S
H1909 C1919 0.930 . S
C1910 H1904 0.930 . S
C1910 C1911 1.355 . S
C1910 C1912 1.415 . S
C1911 C1910 1.355 . S
C1911 C1913 1.419 . S
C1912 C1910 1.415 . S
C1912 C1917 1.425 . S
C1912 C1919 1.409 . S
C1913 H1905 0.930 . S
C1913 C1911 1.419 . S
C1913 C1914 1.362 . S
C1914 H1906 0.930 . S
C1914 C1913 1.362 . S
C1914 C1917 1.409 . S
C1915 H1907 0.930 . S
C1915 C1916 1.355 . S
C1915 C1917 1.415 . S
C1916 C1915 1.355 . S
C1916 C1918 1.419 . S
C1917 C1912 1.425 . S
C1917 C1914 1.409 . S
C1917 C1915 1.415 . S
C1918 H1908 0.930 . S
C1918 C1916 1.419 . S
C1918 C1919 1.362 . S
C1919 H1909 0.930 . S
C1919 C1912 1.409 . S
C1919 C1918 1.362 . S
H1920 C1926 0.930 . S
H1921 C1929 0.930 . S
H1922 C1930 0.930 . S
H1923 C1931 0.930 . S
H1924 C1934 0.930 . S
H1925 C1935 0.930 . S
C1926 H1920 0.930 . S
C1926 C1927 1.355 . S
C1926 C1928 1.415 . S
C1927 C1926 1.355 . S
C1927 C1929 1.419 . S
C1928 C1926 1.415 . S
C1928 C1933 1.425 . S
C1928 C1935 1.409 . S
C1929 H1921 0.930 . S
C1929 C1927 1.419 . S
C1929 C1930 1.362 . S
C1930 H1922 0.930 . S
C1930 C1929 1.362 . S
C1930 C1933 1.409 . S
C1931 H1923 0.930 . S
C1931 C1932 1.355 . S
C1931 C1933 1.415 . S
C1932 C1931 1.355 . S
C1932 C1934 1.419 . S
C1933 C1928 1.425 . S
C1933 C1930 1.409 . S
C1933 C1931 1.415 . S
C1934 H1924 0.930 . S
C1934 C1932 1.419 . S
C1934 C1935 1.362 . S
C1935 H1925 0.930 . S
C1935 C1928 1.409 . S
C1935 C1934 1.362 . S
H1936 C1942 0.930 . S
H1937 C1945 0.930 . S
H1938 C1946 0.930 . S
H1939 C1947 0.930 . S
H1940 C1950 0.930 . S
H1941 C1951 0.930 . S
C1942 H1936 0.930 . S
C1942 C1943 1.355 . S
C1942 C1944 1.415 . S
C1943 C1942 1.355 . S
C1943 C1945 1.419 . S
C1944 C1942 1.415 . S
C1944 C1949 1.425 . S
C1944 C1951 1.409 . S
C1945 H1937 0.930 . S
C1945 C1943 1.419 . S
C1945 C1946 1.362 . S
C1946 H1938 0.930 . S
C1946 C1945 1.362 . S
C1946 C1949 1.409 . S
C1947 H1939 0.930 . S
C1947 C1948 1.355 . S
C1947 C1949 1.415 . S
C1948 C1947 1.355 . S
C1948 C1950 1.419 . S
C1949 C1944 1.425 . S
C1949 C1946 1.409 . S
C1949 C1947 1.415 . S
C1950 H1940 0.930 . S
C1950 C1948 1.419 . S
C1950 C1951 1.362 . S
C1951 H1941 0.930 . S
C1951 C1944 1.409 . S
C1951 C1950 1.362 . S
H1952 C1958 0.930 . S
H1953 C1961 0.930 . S
H1954 C1962 0.930 . S
H1955 C1963 0.930 . S
H1956 C1966 0.930 . S
H1957 C1967 0.930 . S
C1958 H1952 0.930 . S
C1958 C1959 1.355 . S
C1958 C1960 1.415 . S
C1959 C1958 1.355 . S
C1959 C1961 1.419 . S
C1960 C1958 1.415 . S
C1960 C1965 1.425 . S
C1960 C1967 1.409 . S
C1961 H1953 0.930 . S
C1961 C1959 1.419 . S
C1961 C1962 1.362 . S
C1962 H1954 0.930 . S
C1962 C1961 1.362 . S
C1962 C1965 1.409 . S
C1963 H1955 0.930 . S
C1963 C1964 1.355 . S
C1963 C1965 1.415 . S
C1964 C1963 1.355 . S
C1964 C1966 1.419 . S
C1965 C1960 1.425 . S
C1965 C1962 1.409 . S
C1965 C1963 1.415 . S
C1966 H1956 0.930 . S
C1966 C1964 1.419 . S
C1966 C1967 1.362 . S
C1967 H1957 0.930 . S
C1967 C1960 1.409 . S
C1967 C1966 1.362 . S
H1968 C1974 0.930 . S
H1969 C1977 0.929 . S
H1970 C1978 0.928 1_565 S
H1971 C1979 0.930 . S
H1972 C1982 0.930 . S
H1973 C1983 0.930 . S
C1974 H1968 0.930 . S
C1974 C1975 1.355 . S
C1974 C1976 1.415 . S
C1975 C1974 1.355 . S
C1975 C1977 1.419 . S
C1976 C1974 1.415 . S
C1976 C1981 1.425 . S
C1976 C1983 1.409 . S
C1977 H1969 0.929 . S
C1977 C1975 1.419 . S
C1977 C1978 1.362 . S
C1978 H1970 0.928 1_545 S
C1978 C1977 1.362 . S
C1978 C1981 1.409 . S
C1979 H1971 0.930 . S
C1979 C1980 1.355 . S
C1979 C1981 1.415 . S
C1980 C1979 1.355 . S
C1980 C1982 1.419 . S
C1981 C1976 1.425 . S
C1981 C1978 1.409 . S
C1981 C1979 1.415 . S
C1982 H1972 0.930 . S
C1982 C1980 1.419 . S
C1982 C1983 1.362 . S
C1983 H1973 0.930 . S
C1983 C1976 1.409 . S
C1983 C1982 1.362 . S
H1984 C1990 0.930 . S
H1985 C1993 0.930 . S
H1986 C1994 0.930 . S
H1987 C1995 0.930 . S
H1988 C1998 0.930 . S
H1989 C1999 0.930 . S
C1990 H1984 0.930 . S
C1990 C1991 1.355 . S
C1990 C1992 1.415 . S
C1991 C1990 1.355 . S
C1991 C1993 1.419 . S
C1992 C1990 1.415 . S
C1992 C1997 1.425 . S
C1992 C1999 1.409 . S
C1993 H1985 0.930 . S
C1993 C1991 1.419 . S
C1993 C1994 1.362 . S
C1994 H1986 0.930 . S
C1994 C1993 1.362 . S
C1994 C1997 1.409 . S
C1995 H1987 0.930 . S
C1995 C1996 1.355 . S
C1995 C1997 1.415 . S
C1996 C1995 1.355 . S
C1996 C1998 1.419 . S
C1997 C1992 1.425 . S
C1997 C1994 1.409 . S
C1997 C1995 1.415 . S
C1998 H1988 0.930 . S
C1998 C1996 1.419 . S
C1998 C1999 1.362 . S
C1999 H1989 0.930 . S
C1999 C1992 1.409 . S
C1999 C1998 1.362 . S
H2000 C2006 0.930 . S
H2001 C2009 0.930 . S
H2002 C2010 0.930 . S
H2003 C2011 0.930 . S
H2004 C2014 0.930 . S
H2005 C2015 0.930 . S
C2006 H2000 0.930 . S
C2006 C2007 1.355 . S
C2006 C2008 1.415 . S
C2007 C2006 1.355 . S
C2007 C2009 1.419 . S
C2008 C2006 1.415 . S
C2008 C2013 1.425 . S
C2008 C2015 1.409 . S
C2009 H2001 0.930 . S
C2009 C2007 1.419 . S
C2009 C2010 1.362 . S
C2010 H2002 0.930 . S
C2010 C2009 1.362 . S
C2010 C2013 1.409 . S
C2011 H2003 0.930 . S
C2011 C2012 1.355 . S
C2011 C2013 1.415 . S
C2012 C2011 1.355 . S
C2012 C2014 1.419 . S
C2013 C2008 1.425 . S
C2013 C2010 1.409 . S
C2013 C2011 1.415 . S
C2014 H2004 0.930 . S
C2014 C2012 1.419 . S
C2014 C2015 1.362 . S
C2015 H2005 0.930 . S
C2015 C2008 1.409 . S
C2015 C2014 1.362 . S
H2016 C2022 0.930 . S
H2017 C2025 0.930 . S
H2018 C2026 0.930 . S
H2019 C2027 0.930 . S
H2020 C2030 0.930 . S
H2021 C2031 0.930 . S
C2022 H2016 0.930 . S
C2022 C2023 1.355 . S
C2022 C2024 1.415 . S
C2023 C2022 1.355 . S
C2023 C2025 1.419 . S
C2024 C2022 1.415 . S
C2024 C2029 1.425 . S
C2024 C2031 1.409 . S
C2025 H2017 0.930 . S
C2025 C2023 1.419 . S
C2025 C2026 1.362 . S
C2026 H2018 0.930 . S
C2026 C2025 1.362 . S
C2026 C2029 1.409 . S
C2027 H2019 0.930 . S
C2027 C2028 1.355 . S
C2027 C2029 1.415 . S
C2028 C2027 1.355 . S
C2028 C2030 1.419 . S
C2029 C2024 1.425 . S
C2029 C2026 1.409 . S
C2029 C2027 1.415 . S
C2030 H2020 0.930 . S
C2030 C2028 1.419 . S
C2030 C2031 1.362 . S
C2031 H2021 0.930 . S
C2031 C2024 1.409 . S
C2031 C2030 1.362 . S
H2032 C2038 0.930 . S
H2033 C2041 0.930 . S
H2034 C2042 0.930 . S
H2035 C2043 0.930 . S
H2036 C2046 0.930 . S
H2037 C2047 0.930 . S
C2038 H2032 0.930 . S
C2038 C2039 1.355 . S
C2038 C2040 1.415 . S
C2039 C2038 1.355 . S
C2039 C2041 1.419 . S
C2040 C2038 1.415 . S
C2040 C2045 1.425 . S
C2040 C2047 1.409 . S
C2041 H2033 0.930 . S
C2041 C2039 1.419 . S
C2041 C2042 1.362 . S
C2042 H2034 0.930 . S
C2042 C2041 1.362 . S
C2042 C2045 1.409 . S
C2043 H2035 0.930 . S
C2043 C2044 1.355 . S
C2043 C2045 1.415 . S
C2044 C2043 1.355 . S
C2044 C2046 1.419 . S
C2045 C2040 1.425 . S
C2045 C2042 1.409 . S
C2045 C2043 1.415 . S
C2046 H2036 0.930 . S
C2046 C2044 1.419 . S
C2046 C2047 1.362 . S
C2047 H2037 0.930 . S
C2047 C2040 1.409 . S
C2047 C2046 1.362 . S
H2048 C2054 0.930 . S
H2049 C2057 0.930 . S
H2050 C2058 0.930 . S
H2051 C2059 0.930 . S
H2052 C2062 0.930 . S
H2053 C2063 0.930 . S
C2054 H2048 0.930 . S
C2054 C2055 1.355 . S
C2054 C2056 1.415 . S
C2055 C2054 1.355 . S
C2055 C2057 1.419 . S
C2056 C2054 1.415 . S
C2056 C2061 1.425 . S
C2056 C2063 1.409 . S
C2057 H2049 0.930 . S
C2057 C2055 1.419 . S
C2057 C2058 1.362 . S
C2058 H2050 0.930 . S
C2058 C2057 1.362 . S
C2058 C2061 1.409 . S
C2059 H2051 0.930 . S
C2059 C2060 1.355 . S
C2059 C2061 1.415 . S
C2060 C2059 1.355 . S
C2060 C2062 1.419 . S
C2061 C2056 1.425 . S
C2061 C2058 1.409 . S
C2061 C2059 1.415 . S
C2062 H2052 0.930 . S
C2062 C2060 1.419 . S
C2062 C2063 1.362 . S
C2063 H2053 0.930 . S
C2063 C2056 1.409 . S
C2063 C2062 1.362 . S
H2064 C2070 0.930 . S
H2065 C2073 0.930 . S
H2066 C2074 0.930 . S
H2067 C2075 0.930 . S
H2068 C2078 0.930 . S
H2069 C2079 0.930 . S
C2070 H2064 0.930 . S
C2070 C2071 1.355 . S
C2070 C2072 1.415 . S
C2071 C2070 1.355 . S
C2071 C2073 1.419 . S
C2072 C2070 1.415 . S
C2072 C2077 1.425 . S
C2072 C2079 1.409 . S
C2073 H2065 0.930 . S
C2073 C2071 1.419 . S
C2073 C2074 1.362 . S
C2074 H2066 0.930 . S
C2074 C2073 1.362 . S
C2074 C2077 1.409 . S
C2075 H2067 0.930 . S
C2075 C2076 1.355 . S
C2075 C2077 1.415 . S
C2076 C2075 1.355 . S
C2076 C2078 1.419 . S
C2077 C2072 1.425 . S
C2077 C2074 1.409 . S
C2077 C2075 1.415 . S
C2078 H2068 0.930 . S
C2078 C2076 1.419 . S
C2078 C2079 1.362 . S
C2079 H2069 0.930 . S
C2079 C2072 1.409 . S
C2079 C2078 1.362 . S
H2080 C2086 0.930 . S
H2081 C2089 0.930 . S
H2082 C2090 0.930 . S
H2083 C2091 0.930 . S
H2084 C2094 0.930 . S
H2085 C2095 0.930 . S
C2086 H2080 0.930 . S
C2086 C2087 1.355 . S
C2086 C2088 1.415 . S
C2087 C2086 1.355 . S
C2087 C2089 1.419 . S
C2088 C2086 1.415 . S
C2088 C2093 1.425 . S
C2088 C2095 1.409 . S
C2089 H2081 0.930 . S
C2089 C2087 1.419 . S
C2089 C2090 1.362 . S
C2090 H2082 0.930 . S
C2090 C2089 1.362 . S
C2090 C2093 1.409 . S
C2091 H2083 0.930 . S
C2091 C2092 1.355 . S
C2091 C2093 1.415 . S
C2092 C2091 1.355 . S
C2092 C2094 1.419 . S
C2093 C2088 1.425 . S
C2093 C2090 1.409 . S
C2093 C2091 1.415 . S
C2094 H2084 0.930 . S
C2094 C2092 1.419 . S
C2094 C2095 1.362 . S
C2095 H2085 0.930 . S
C2095 C2088 1.409 . S
C2095 C2094 1.362 . S
H2096 C2102 0.930 . S
H2097 C2105 0.930 . S
H2098 C2106 0.930 . S
H2099 C2107 0.930 . S
H2100 C2110 0.930 . S
H2101 C2111 0.930 . S
C2102 H2096 0.930 . S
C2102 C2103 1.355 . S
C2102 C2104 1.415 . S
C2103 C2102 1.355 . S
C2103 C2105 1.419 . S
C2104 C2102 1.415 . S
C2104 C2109 1.425 . S
C2104 C2111 1.409 . S
C2105 H2097 0.930 . S
C2105 C2103 1.419 . S
C2105 C2106 1.362 . S
C2106 H2098 0.930 . S
C2106 C2105 1.362 . S
C2106 C2109 1.409 . S
C2107 H2099 0.930 . S
C2107 C2108 1.355 . S
C2107 C2109 1.415 . S
C2108 C2107 1.355 . S
C2108 C2110 1.419 . S
C2109 C2104 1.425 . S
C2109 C2106 1.409 . S
C2109 C2107 1.415 . S
C2110 H2100 0.930 . S
C2110 C2108 1.419 . S
C2110 C2111 1.362 . S
C2111 H2101 0.930 . S
C2111 C2104 1.409 . S
C2111 C2110 1.362 . S
H2112 C2118 0.930 . S
H2113 C2121 0.930 . S
H2114 C2122 0.930 . S
H2115 C2123 0.930 . S
H2116 C2126 0.930 . S
H2117 C2127 0.930 . S
C2118 H2112 0.930 . S
C2118 C2119 1.355 1_545 S
C2118 C2120 1.415 . S
C2119 C2118 1.355 1_565 S
C2119 C2121 1.419 . S
C2120 C2118 1.415 . S
C2120 C2125 1.425 1_545 S
C2120 C2127 1.409 . S
C2121 H2113 0.930 . S
C2121 C2119 1.419 . S
C2121 C2122 1.362 . S
C2122 H2114 0.930 . S
C2122 C2121 1.362 . S
C2122 C2125 1.409 . S
C2123 H2115 0.930 . S
C2123 C2124 1.355 1_565 S
C2123 C2125 1.415 . S
C2124 C2123 1.355 1_545 S
C2124 C2126 1.419 . S
C2125 C2120 1.425 1_565 S
C2125 C2122 1.409 . S
C2125 C2123 1.415 . S
C2126 H2116 0.930 . S
C2126 C2124 1.419 . S
C2126 C2127 1.362 . S
C2127 H2117 0.930 . S
C2127 C2120 1.409 . S
C2127 C2126 1.362 . S
H2128 C2134 0.930 . S
H2129 C2137 0.930 . S
H2130 C2138 0.930 . S
H2131 C2139 0.930 . S
H2132 C2142 0.930 . S
H2133 C2143 0.930 . S
C2134 H2128 0.930 . S
C2134 C2135 1.355 . S
C2134 C2136 1.415 . S
C2135 C2134 1.355 . S
C2135 C2137 1.419 . S
C2136 C2134 1.415 . S
C2136 C2141 1.425 . S
C2136 C2143 1.409 . S
C2137 H2129 0.930 . S
C2137 C2135 1.419 . S
C2137 C2138 1.362 . S
C2138 H2130 0.930 . S
C2138 C2137 1.362 . S
C2138 C2141 1.409 . S
C2139 H2131 0.930 . S
C2139 C2140 1.355 . S
C2139 C2141 1.415 . S
C2140 C2139 1.355 . S
C2140 C2142 1.419 . S
C2141 C2136 1.425 . S
C2141 C2138 1.409 . S
C2141 C2139 1.415 . S
C2142 H2132 0.930 . S
C2142 C2140 1.419 . S
C2142 C2143 1.362 . S
C2143 H2133 0.930 . S
C2143 C2136 1.409 . S
C2143 C2142 1.362 . S
H2144 C2150 0.930 . S
H2145 C2153 0.930 . S
H2146 C2154 0.930 . S
H2147 C2155 0.930 . S
H2148 C2158 0.930 . S
H2149 C2159 0.930 . S
C2150 H2144 0.930 . S
C2150 C2151 1.355 1_545 S
C2150 C2152 1.415 . S
C2151 C2150 1.355 1_565 S
C2151 C2153 1.419 . S
C2152 C2150 1.415 . S
C2152 C2157 1.425 1_545 S
C2152 C2159 1.409 . S
C2153 H2145 0.930 . S
C2153 C2151 1.419 . S
C2153 C2154 1.362 . S
C2154 H2146 0.930 . S
C2154 C2153 1.362 . S
C2154 C2157 1.409 . S
C2155 H2147 0.930 . S
C2155 C2156 1.355 1_565 S
C2155 C2157 1.415 . S
C2156 C2155 1.355 1_545 S
C2156 C2158 1.419 . S
C2157 C2152 1.425 1_565 S
C2157 C2154 1.409 . S
C2157 C2155 1.415 . S
C2158 H2148 0.930 . S
C2158 C2156 1.419 . S
C2158 C2159 1.362 . S
C2159 H2149 0.930 . S
C2159 C2152 1.409 . S
C2159 C2158 1.362 . S
H2160 C2166 0.930 . S
H2161 C2169 0.930 . S
H2162 C2170 0.930 . S
H2163 C2171 0.930 . S
H2164 C2174 0.930 . S
H2165 C2175 0.930 . S
C2166 H2160 0.930 . S
C2166 C2167 1.355 . S
C2166 C2168 1.483 . S
C2167 C2166 1.355 . S
C2167 C2169 1.419 . S
C2168 C2166 1.483 . S
C2168 C2173 1.415 1_554 S
C2168 C2175 1.350 1_554 S
C2169 H2161 0.930 . S
C2169 C2167 1.419 . S
C2169 C2170 1.362 . S
C2170 H2162 0.930 . S
C2170 C2169 1.362 . S
C2170 C2173 1.350 1_554 S
C2171 H2163 0.930 . S
C2171 C2172 1.355 . S
C2171 C2173 1.483 . S
C2172 C2171 1.355 . S
C2172 C2174 1.419 . S
C2173 C2168 1.415 1_556 S
C2173 C2170 1.350 1_556 S
C2173 C2171 1.483 . S
C2174 H2164 0.930 . S
C2174 C2172 1.419 . S
C2174 C2175 1.362 . S
C2175 H2165 0.930 . S
C2175 C2168 1.350 1_556 S
C2175 C2174 1.362 . S
H2176 C2182 0.930 . S
H2177 C2185 0.930 . S
H2178 C2186 0.930 . S
H2179 C2187 0.930 . S
H2180 C2190 0.930 . S
H2181 C2191 0.930 . S
C2182 H2176 0.930 . S
C2182 C2183 1.355 . S
C2182 C2184 1.415 . S
C2183 C2182 1.355 . S
C2183 C2185 1.419 1_545 S
C2184 C2182 1.415 . S
C2184 C2189 1.425 1_545 S
C2184 C2191 1.409 . S
C2185 H2177 0.930 . S
C2185 C2183 1.419 1_565 S
C2185 C2186 1.362 . S
C2186 H2178 0.930 . S
C2186 C2185 1.362 . S
C2186 C2189 1.409 . S
C2187 H2179 0.930 . S
C2187 C2188 1.355 . S
C2187 C2189 1.415 . S
C2188 C2187 1.355 . S
C2188 C2190 1.419 1_565 S
C2189 C2184 1.425 1_565 S
C2189 C2186 1.409 . S
C2189 C2187 1.415 . S
C2190 H2180 0.930 . S
C2190 C2188 1.419 1_545 S
C2190 C2191 1.362 . S
C2191 H2181 0.930 . S
C2191 C2184 1.409 . S
C2191 C2190 1.362 . S
H2192 C2198 0.930 . S
H2193 C2201 0.930 . S
H2194 C2202 0.930 . S
H2195 C2203 0.930 . S
H2196 C2206 0.930 . S
H2197 C2207 0.930 . S
C2198 H2192 0.930 . S
C2198 C2199 1.355 . S
C2198 C2200 1.415 . S
C2199 C2198 1.355 . S
C2199 C2201 1.419 . S
C2200 C2198 1.415 . S
C2200 C2205 1.425 . S
C2200 C2207 1.409 . S
C2201 H2193 0.930 . S
C2201 C2199 1.419 . S
C2201 C2202 1.362 . S
C2202 H2194 0.930 . S
C2202 C2201 1.362 . S
C2202 C2205 1.409 . S
C2203 H2195 0.930 . S
C2203 C2204 1.355 . S
C2203 C2205 1.415 . S
C2204 C2203 1.355 . S
C2204 C2206 1.419 . S
C2205 C2200 1.425 . S
C2205 C2202 1.409 . S
C2205 C2203 1.415 . S
C2206 H2196 0.930 . S
C2206 C2204 1.419 . S
C2206 C2207 1.362 . S
C2207 H2197 0.930 . S
C2207 C2200 1.409 . S
C2207 C2206 1.362 . S
H2208 C2214 0.930 . S
H2209 C2217 0.930 . S
H2210 C2218 0.930 . S
H2211 C2219 0.930 . S
H2212 C2222 0.930 . S
H2213 C2223 0.930 . S
C2214 H2208 0.930 . S
C2214 C2215 1.355 1_545 S
C2214 C2216 1.415 . S
C2215 C2214 1.355 1_565 S
C2215 C2217 1.419 . S
C2216 C2214 1.415 . S
C2216 C2221 1.425 1_545 S
C2216 C2223 1.409 . S
C2217 H2209 0.930 . S
C2217 C2215 1.419 . S
C2217 C2218 1.362 . S
C2218 H2210 0.930 . S
C2218 C2217 1.362 . S
C2218 C2221 1.409 . S
C2219 H2211 0.930 . S
C2219 C2220 1.355 1_565 S
C2219 C2221 1.415 . S
C2220 C2219 1.355 1_545 S
C2220 C2222 1.419 . S
C2221 C2216 1.425 1_565 S
C2221 C2218 1.409 . S
C2221 C2219 1.415 . S
C2222 H2212 0.930 . S
C2222 C2220 1.419 . S
C2222 C2223 1.362 . S
C2223 H2213 0.930 . S
C2223 C2216 1.409 . S
C2223 C2222 1.362 . S
H2224 C2230 0.930 . S
H2225 C2233 0.930 . S
H2226 C2234 0.930 . S
H2227 C2235 0.930 . S
H2228 C2238 0.930 . S
H2229 C2239 0.930 . S
C2230 H2224 0.930 . S
C2230 C2231 1.355 . S
C2230 C2232 1.415 . S
C2231 C2230 1.355 . S
C2231 C2233 1.419 . S
C2232 C2230 1.415 . S
C2232 C2237 1.425 1_556 S
C2232 C2239 1.409 1_556 S
C2233 H2225 0.930 . S
C2233 C2231 1.419 . S
C2233 C2234 1.362 . S
C2234 H2226 0.930 . S
C2234 C2233 1.362 . S
C2234 C2237 1.409 1_556 S
C2235 H2227 0.930 . S
C2235 C2236 1.355 . S
C2235 C2237 1.415 . S
C2236 C2235 1.355 . S
C2236 C2238 1.419 . S
C2237 C2232 1.425 1_554 S
C2237 C2234 1.409 1_554 S
C2237 C2235 1.415 . S
C2238 H2228 0.930 . S
C2238 C2236 1.419 . S
C2238 C2239 1.362 . S
C2239 H2229 0.930 . S
C2239 C2232 1.409 1_554 S
C2239 C2238 1.362 . S
H2240 C2246 0.930 . S
H2241 C2249 0.930 . S
H2242 C2250 0.930 . S
H2243 C2251 0.930 . S
H2244 C2254 0.930 . S
H2245 C2255 0.930 . S
C2246 H2240 0.930 . S
C2246 C2247 1.355 . S
C2246 C2248 1.415 . S
C2247 C2246 1.355 . S
C2247 C2249 1.419 . S
C2248 C2246 1.415 . S
C2248 C2253 1.425 . S
C2248 C2255 1.409 . S
C2249 H2241 0.930 . S
C2249 C2247 1.419 . S
C2249 C2250 1.362 . S
C2250 H2242 0.930 . S
C2250 C2249 1.362 . S
C2250 C2253 1.409 . S
C2251 H2243 0.930 . S
C2251 C2252 1.355 . S
C2251 C2253 1.415 . S
C2252 C2251 1.355 . S
C2252 C2254 1.419 . S
C2253 C2248 1.425 . S
C2253 C2250 1.409 . S
C2253 C2251 1.415 . S
C2254 H2244 0.930 . S
C2254 C2252 1.419 . S
C2254 C2255 1.362 . S
C2255 H2245 0.930 . S
C2255 C2248 1.409 . S
C2255 C2254 1.362 . S
H2256 C2262 0.930 . S
H2257 C2265 0.930 . S
H2258 C2266 0.930 . S
H2259 C2267 0.930 . S
H2260 C2270 0.930 . S
H2261 C2271 0.930 . S
C2262 H2256 0.930 . S
C2262 C2263 1.355 . S
C2262 C2264 1.478 . S
C2263 C2262 1.355 . S
C2263 C2265 1.419 . S
C2264 C2262 1.478 . S
C2264 C2269 1.416 1_556 S
C2264 C2271 1.354 1_556 S
C2265 H2257 0.930 . S
C2265 C2263 1.419 . S
C2265 C2266 1.362 . S
C2266 H2258 0.930 . S
C2266 C2265 1.362 . S
C2266 C2269 1.353 1_556 S
C2267 H2259 0.930 . S
C2267 C2268 1.355 . S
C2267 C2269 1.479 . S
C2268 C2267 1.355 . S
C2268 C2270 1.419 . S
C2269 C2264 1.416 1_554 S
C2269 C2266 1.353 1_554 S
C2269 C2267 1.479 . S
C2270 H2260 0.930 . S
C2270 C2268 1.419 . S
C2270 C2271 1.362 . S
C2271 H2261 0.930 . S
C2271 C2264 1.354 1_554 S
C2271 C2270 1.362 . S
H2272 C2278 0.930 . S
H2273 C2281 0.930 . S
H2274 C2282 0.930 . S
H2275 C2283 0.930 . S
H2276 C2286 0.930 . S
H2277 C2287 0.930 . S
C2278 H2272 0.930 . S
C2278 C2279 1.355 . S
C2278 C2280 1.415 . S
C2279 C2278 1.355 . S
C2279 C2281 1.419 . S
C2280 C2278 1.415 . S
C2280 C2285 1.425 . S
C2280 C2287 1.409 . S
C2281 H2273 0.930 . S
C2281 C2279 1.419 . S
C2281 C2282 1.362 . S
C2282 H2274 0.930 . S
C2282 C2281 1.362 . S
C2282 C2285 1.409 . S
C2283 H2275 0.930 . S
C2283 C2284 1.355 . S
C2283 C2285 1.415 . S
C2284 C2283 1.355 . S
C2284 C2286 1.419 . S
C2285 C2280 1.425 . S
C2285 C2282 1.409 . S
C2285 C2283 1.415 . S
C2286 H2276 0.930 . S
C2286 C2284 1.419 . S
C2286 C2287 1.362 . S
C2287 H2277 0.930 . S
C2287 C2280 1.409 . S
C2287 C2286 1.362 . S
H2288 C2294 0.930 . S
H2289 C2297 0.930 . S
H2290 C2298 0.930 . S
H2291 C2299 0.930 . S
H2292 C2302 0.930 . S
H2293 C2303 0.930 . S
C2294 H2288 0.930 . S
C2294 C2295 1.355 . S
C2294 C2296 1.415 . S
C2295 C2294 1.355 . S
C2295 C2297 1.419 . S
C2296 C2294 1.415 . S
C2296 C2301 1.425 . S
C2296 C2303 1.409 . S
C2297 H2289 0.930 . S
C2297 C2295 1.419 . S
C2297 C2298 1.362 . S
C2298 H2290 0.930 . S
C2298 C2297 1.362 . S
C2298 C2301 1.409 . S
C2299 H2291 0.930 . S
C2299 C2300 1.355 . S
C2299 C2301 1.415 . S
C2300 C2299 1.355 . S
C2300 C2302 1.419 . S
C2301 C2296 1.425 . S
C2301 C2298 1.409 . S
C2301 C2299 1.415 . S
C2302 H2292 0.930 . S
C2302 C2300 1.419 . S
C2302 C2303 1.362 . S
C2303 H2293 0.930 . S
C2303 C2296 1.409 . S
C2303 C2302 1.362 . S
H2304 C2310 0.930 . S
H2305 C2313 0.930 . S
H2306 C2314 0.930 . S
H2307 C2315 0.930 . S
H2308 C2318 0.930 . S
H2309 C2319 0.930 . S
C2310 H2304 0.930 . S
C2310 C2311 1.355 . S
C2310 C2312 1.415 . S
C2311 C2310 1.355 . S
C2311 C2313 1.419 . S
C2312 C2310 1.415 . S
C2312 C2317 1.425 . S
C2312 C2319 1.409 . S
C2313 H2305 0.930 . S
C2313 C2311 1.419 . S
C2313 C2314 1.362 . S
C2314 H2306 0.930 . S
C2314 C2313 1.362 . S
C2314 C2317 1.409 . S
C2315 H2307 0.930 . S
C2315 C2316 1.355 . S
C2315 C2317 1.415 . S
C2316 C2315 1.355 . S
C2316 C2318 1.419 . S
C2317 C2312 1.425 . S
C2317 C2314 1.409 . S
C2317 C2315 1.415 . S
C2318 H2308 0.930 . S
C2318 C2316 1.419 . S
C2318 C2319 1.362 . S
C2319 H2309 0.930 . S
C2319 C2312 1.409 . S
C2319 C2318 1.362 . S
H2320 C2326 0.930 . S
H2321 C2329 0.930 . S
H2322 C2330 0.930 . S
H2323 C2331 0.930 . S
H2324 C2334 0.930 . S
H2325 C2335 0.930 . S
C2326 H2320 0.930 . S
C2326 C2327 1.355 . S
C2326 C2328 1.415 . S
C2327 C2326 1.355 . S
C2327 C2329 1.419 . S
C2328 C2326 1.415 . S
C2328 C2333 1.425 1_556 S
C2328 C2335 1.409 1_556 S
C2329 H2321 0.930 . S
C2329 C2327 1.419 . S
C2329 C2330 1.362 . S
C2330 H2322 0.930 . S
C2330 C2329 1.362 . S
C2330 C2333 1.409 1_556 S
C2331 H2323 0.930 . S
C2331 C2332 1.355 . S
C2331 C2333 1.415 . S
C2332 C2331 1.355 . S
C2332 C2334 1.419 . S
C2333 C2328 1.425 1_554 S
C2333 C2330 1.409 1_554 S
C2333 C2331 1.415 . S
C2334 H2324 0.930 . S
C2334 C2332 1.419 . S
C2334 C2335 1.362 . S
C2335 H2325 0.930 . S
C2335 C2328 1.409 1_554 S
C2335 C2334 1.362 . S
H2336 C2342 0.930 . S
H2337 C2345 0.930 . S
H2338 C2346 0.930 . S
H2339 C2347 0.930 . S
H2340 C2350 0.930 . S
H2341 C2351 0.930 . S
C2342 H2336 0.930 . S
C2342 C2343 1.355 . S
C2342 C2344 1.415 . S
C2343 C2342 1.355 . S
C2343 C2345 1.419 . S
C2344 C2342 1.415 . S
C2344 C2349 1.425 . S
C2344 C2351 1.409 . S
C2345 H2337 0.930 . S
C2345 C2343 1.419 . S
C2345 C2346 1.362 . S
C2346 H2338 0.930 . S
C2346 C2345 1.362 . S
C2346 C2349 1.409 . S
C2347 H2339 0.930 . S
C2347 C2348 1.355 . S
C2347 C2349 1.415 . S
C2348 C2347 1.355 . S
C2348 C2350 1.419 . S
C2349 C2344 1.425 . S
C2349 C2346 1.409 . S
C2349 C2347 1.415 . S
C2350 H2340 0.930 . S
C2350 C2348 1.419 . S
C2350 C2351 1.362 . S
C2351 H2341 0.930 . S
C2351 C2344 1.409 . S
C2351 C2350 1.362 . S
H2352 C2358 0.930 . S
H2353 C2361 0.930 . S
H2354 C2362 0.930 . S
H2355 C2363 0.930 . S
H2356 C2366 0.930 . S
H2357 C2367 0.930 . S
C2358 H2352 0.930 . S
C2358 C2359 1.355 . S
C2358 C2360 1.415 . S
C2359 C2358 1.355 . S
C2359 C2361 1.419 . S
C2360 C2358 1.415 . S
C2360 C2365 1.425 . S
C2360 C2367 1.409 . S
C2361 H2353 0.930 . S
C2361 C2359 1.419 . S
C2361 C2362 1.362 . S
C2362 H2354 0.930 . S
C2362 C2361 1.362 . S
C2362 C2365 1.409 . S
C2363 H2355 0.930 . S
C2363 C2364 1.355 . S
C2363 C2365 1.415 . S
C2364 C2363 1.355 . S
C2364 C2366 1.419 . S
C2365 C2360 1.425 . S
C2365 C2362 1.409 . S
C2365 C2363 1.415 . S
C2366 H2356 0.930 . S
C2366 C2364 1.419 . S
C2366 C2367 1.362 . S
C2367 H2357 0.930 . S
C2367 C2360 1.409 . S
C2367 C2366 1.362 . S
C1095 C20 1.337 . S
C1100 C985 1.327 . S
C1111 C54 1.315 . S
C1116 C475 1.276 . S
C1127 C88 1.338 . S
C1132 C1053 1.333 . S
C1143 C122 1.336 . S
C1148 C543 1.333 . S
C1159 C849 1.313 . S
C1164 C156 1.333 . S
C1175 C190 1.311 . S
C1180 C339 1.271 . S
C1191 C224 1.319 . S
C1196 C917 1.284 . S
C1207 C407 1.279 . S
C1212 C258 1.311 . S
C1223 C713 1.276 . S
C1228 C292 1.310 . S
C1239 C326 1.310 . S
C1244 C203 1.272 . S
C1255 C360 1.310 . S
C1260 C781 1.272 . S
C1271 C271 1.286 . S
C1276 C394 1.321 . S
C1287 C577 1.271 . S
C1292 C428 1.310 . S
C1303 C67 1.294 . S
C1308 C462 1.316 . S
C1319 C496 1.338 . S
C1324 C645 1.329 . S
C1335 C530 1.336 . S
C1340 C135 1.333 . S
C1351 C564 1.328 . S
C1356 C441 1.302 . S
C1367 C1019 1.273 . S
C1372 C598 1.310 . S
C1383 C509 1.326 . S
C1388 C632 1.337 . S
C1399 C1087 1.289 . S
C1404 C666 1.314 . S
C1415 C305 1.330 . S
C1420 C700 1.338 . S
C1431 C734 1.315 . S
C1436 C883 1.293 . S
C1447 C373 1.272 . S
C1452 C768 1.312 . S
C1463 C951 1.333 . S
C1468 C802 1.337 . S
C1479 C169 1.278 . S
C1484 C836 1.316 . S
C1495 C747 1.328 . S
C1500 C870 1.338 . S
C1511 C237 1.329 . S
C1516 C904 1.338 . S
C1527 C815 1.329 . S
C1532 C938 1.332 . S
C1543 C33 1.312 . S
C1548 C972 1.323 . S
C1559 C611 1.274 . S
C1564 C1006 1.310 . S
C1575 C1040 1.311 . S
C1580 C101 1.281 . S
C1591 C679 1.289 . S
C1596 C1074 1.322 . S
C1607 C614 1.002 . S
C1612 C2 1.010 . S
C1623 C36 0.866 . S
C1628 C648 0.872 . S
C1639 C546 0.867 . S
C1644 C70 0.874 . S
C1655 C104 0.889 . S
C1660 C580 0.903 . S
C1671 C750 0.996 . S
C1676 C138 1.006 . S
C1687 C784 0.997 . S
C1692 C172 0.985 . S
C1703 C206 0.865 . S
C1708 C682 0.869 . S
C1719 C716 0.988 . S
C1724 C240 0.975 . S
C1735 C274 0.942 . S
C1740 C886 0.925 . S
C1751 C308 1.008 . S
C1756 C920 0.999 . S
C1767 C818 1.002 . S
C1772 C342 0.991 . S
C1783 C852 1.014 . S
C1788 C376 1.015 . S
C1799 C410 0.910 . S
C1804 C1022 0.926 . S
C1815 C1056 0.985 . S
C1820 C444 0.971 . S
C1831 C954 0.911 . S
C1836 C478 0.928 . S
C1847 C988 0.884 . S
C1852 C512 0.874 . S
C1863 C5 1.551 . S
C1868 C175 1.549 . S
C1879 C39 1.554 . S
C1884 C209 1.552 . S
C1895 C73 1.551 . S
C1900 C243 1.549 . S
C1911 C107 1.550 . S
C1916 C141 1.552 . S
C1927 C277 1.550 . S
C1932 C447 1.550 . S
C1943 C481 1.552 . S
C1948 C311 1.553 . S
C1959 C515 1.554 . S
C1964 C345 1.553 . S
C1975 C413 1.553 . S
C1980 C379 1.552 . S
C1991 C549 1.551 . S
C1996 C719 1.553 . S
C2007 C583 1.550 . S
C2012 C753 1.551 . S
C2023 C787 1.553 . S
C2028 C617 1.550 . S
C2039 C685 1.550 . S
C2044 C651 1.550 . S
C2055 C821 1.553 . S
C2060 C991 1.551 . S
C2071 C1025 1.554 . S
C2076 C855 1.553 . S
C2087 C1059 1.554 . S
C2092 C889 1.552 . S
C2103 C923 1.549 . S
C2108 C957 1.551 . S
C2119 C145 1.424 . S
C2124 C9 1.434 . S
C2135 C43 1.478 . S
C2140 C179 1.425 . S
C2151 C77 1.480 . S
C2156 C213 1.398 . S
C2167 C111 1.453 . S
C2172 C247 1.457 . S
C2183 C417 1.471 . S
C2188 C281 1.435 . S
C2199 C315 1.430 . S
C2204 C451 1.475 . S
C2215 C485 1.409 . S
C2220 C349 1.452 . S
C2231 C383 1.400 . S
C2236 C519 1.483 . S
C2247 C553 1.431 . S
C2252 C689 1.427 . S
C2263 C723 1.433 . S
C2268 C587 1.473 . S
C2279 C757 1.406 . S
C2284 C621 1.485 . S
C2295 C791 1.460 . S
C2300 C655 1.404 . S
C2311 C825 1.484 . S
C2316 C961 1.410 . S
C2327 C859 1.428 . S
C2332 C995 1.476 . S
C2343 C893 1.471 . S
C2348 C1029 1.436 . S
C2359 C927 1.484 . S
C2364 C1063 1.409 . S
