# Generated by pormake.
# Topology sra, (4)-cn, num edge types: 1
# Building blocks:
#     Node 0, Type 0, BuildingBlock: QUQFOY_clean_sbu_3, # of connection points: 4
#     Node 1, Type 0, BuildingBlock: QUQFOY_clean_sbu_3, # of connection points: 4
#     Node 2, Type 0, BuildingBlock: QUQFOY_clean_sbu_3, # of connection points: 4
#     Node 3, Type 0, BuildingBlock: QUQFOY_clean_sbu_3, # of connection points: 4
#     Node 4, Type 0, BuildingBlock: QUQFOY_clean_sbu_3, # of connection points: 4
#     Node 5, Type 0, BuildingBlock: QUQFOY_clean_sbu_3, # of connection points: 4
#     Node 6, Type 0, BuildingBlock: QUQFOY_clean_sbu_3, # of connection points: 4
#     Node 7, Type 0, BuildingBlock: QUQFOY_clean_sbu_3, # of connection points: 4
#     Edge 8, Type (0, 0), BuildingBlock: EZIPEK_clean_linker_0, # of connection points: 2
#     Edge 9, Type (0, 0), BuildingBlock: EZIPEK_clean_linker_0, # of connection points: 2
#     Edge 10, Type (0, 0), BuildingBlock: EZIPEK_clean_linker_0, # of connection points: 2
#     Edge 11, Type (0, 0), BuildingBlock: EZIPEK_clean_linker_0, # of connection points: 2
#     Edge 12, Type (0, 0), BuildingBlock: EZIPEK_clean_linker_0, # of connection points: 2
#     Edge 13, Type (0, 0), BuildingBlock: EZIPEK_clean_linker_0, # of connection points: 2
#     Edge 14, Type (0, 0), BuildingBlock: EZIPEK_clean_linker_0, # of connection points: 2
#     Edge 15, Type (0, 0), BuildingBlock: EZIPEK_clean_linker_0, # of connection points: 2
#     Edge 16, Type (0, 0), BuildingBlock: EZIPEK_clean_linker_0, # of connection points: 2
#     Edge 17, Type (0, 0), BuildingBlock: EZIPEK_clean_linker_0, # of connection points: 2
#     Edge 18, Type (0, 0), BuildingBlock: EZIPEK_clean_linker_0, # of connection points: 2
#     Edge 19, Type (0, 0), BuildingBlock: EZIPEK_clean_linker_0, # of connection points: 2
#     Edge 20, Type (0, 0), BuildingBlock: EZIPEK_clean_linker_0, # of connection points: 2
#     Edge 21, Type (0, 0), BuildingBlock: EZIPEK_clean_linker_0, # of connection points: 2
#     Edge 22, Type (0, 0), BuildingBlock: EZIPEK_clean_linker_0, # of connection points: 2
#     Edge 23, Type (0, 0), BuildingBlock: EZIPEK_clean_linker_0, # of connection points: 2
# Relax obj value: 0.027
# Max RMSD: 0.061
# Mean RMSD: 0.061
data_MOF--net-sra--node1-QUQFOY_clean_sbu_3--edge1-EZIPEK_clean_linker_0
_symmetry_space_group_name_H-M    P1
_symmetry_Int_Tables_number       1
_symmetry_cell_setting            triclinic
loop_
_symmetry_equiv_pos_as_xyz
'x, y, z'
_cell_length_a     20.532985
_cell_length_b     39.842801
_cell_length_c     25.231063
_cell_angle_alpha  89.836094
_cell_angle_beta   90.044605
_cell_angle_gamma 90.070143
loop_
_atom_site_label
_atom_site_type_symbol
_atom_site_fract_x
_atom_site_fract_y
_atom_site_fract_z
_atom_type_partial_charge
C0 C 0.98123 0.08612 0.23478 0.0
O1 O 0.93379 0.0904 0.26632 0.0
Cd2 Cd 0.82896 0.10667 0.23214 0.0
O3 O 0.97274 0.08555 0.18484 0.0
Cd4 Cd 0.89256 0.08757 0.11288 0.0
C5 C 0.88582 0.16945 0.14663 0.0
O6 O 0.80274 0.06813 0.16388 0.0
O7 O 0.77667 0.08876 0.08754 0.0
O8 O 0.93889 0.03499 0.0844 0.0
C9 C 0.75841 0.07625 0.13141 0.0
O10 O 0.85705 0.15992 0.18886 0.0
C11 C 0.95055 0.04453 0.03732 0.0
O12 O 0.9063 0.14862 0.11216 0.0
O13 O 0.93509 0.07445 0.02476 0.0
C14 C 0.76723 0.39671 0.21269 0.0
O15 O 0.78879 0.38529 0.25625 0.0
Cd16 Cd 0.89853 0.36791 0.2706 0.0
O17 O 0.80476 0.40149 0.17326 0.0
Cd18 Cd 0.92294 0.39471 0.15644 0.0
C19 C 0.91055 0.31101 0.16907 0.0
O20 O 0.96996 0.41155 0.24173 0.0
O21 O 0.03165 0.38309 0.18889 0.0
O22 O 0.92824 0.45014 0.11619 0.0
C23 C 0.02626 0.40082 0.23024 0.0
O24 O 0.91009 0.31675 0.21868 0.0
C25 C 0.95543 0.44033 0.07387 0.0
O26 O 0.91145 0.33494 0.13549 0.0
O27 O 0.96422 0.40898 0.06835 0.0
C28 C 0.23617 0.8896 0.75903 0.0
O29 O 0.21195 0.87574 0.71835 0.0
Cd30 Cd 0.10024 0.86085 0.70887 0.0
O31 O 0.20079 0.89782 0.79832 0.0
Cd32 Cd 0.08275 0.89495 0.81905 0.0
C33 C 0.08907 0.81074 0.81954 0.0
O34 O 0.03575 0.90827 0.73225 0.0
O35 O 0.97199 0.8845 0.7893 0.0
O36 O 0.08438 0.95234 0.85198 0.0
C37 C 0.97855 0.89991 0.74565 0.0
O38 O 0.08721 0.81351 0.7693 0.0
C39 C 0.05638 0.94537 0.89543 0.0
O40 O 0.09145 0.83651 0.84922 0.0
O41 O 0.04394 0.91472 0.90494 0.0
C42 C 0.023 0.59417 0.73852 0.0
O43 O 0.07019 0.6018 0.70827 0.0
Cd44 Cd 0.17513 0.61511 0.74474 0.0
O45 O 0.03128 0.58963 0.788 0.0
Cd46 Cd 0.11311 0.58734 0.85909 0.0
C47 C 0.11786 0.67117 0.84005 0.0
O48 O 0.20251 0.57119 0.80455 0.0
O49 O 0.22963 0.58819 0.88269 0.0
O50 O 0.06796 0.53296 0.88147 0.0
C51 C 0.24722 0.57735 0.83769 0.0
O52 O 0.14719 0.66487 0.7967 0.0
C53 C 0.05877 0.53973 0.92998 0.0
O54 O 0.09764 0.64786 0.87065 0.0
O55 O 0.07489 0.56879 0.94612 0.0
C56 C 0.74877 0.59925 0.71029 0.0
O57 O 0.72601 0.61324 0.75136 0.0
Cd58 Cd 0.61426 0.62742 0.76368 0.0
O59 O 0.71187 0.59056 0.67218 0.0
Cd60 Cd 0.59312 0.59285 0.65503 0.0
C61 C 0.59644 0.67698 0.65328 0.0
O62 O 0.54787 0.58007 0.74284 0.0
O63 O 0.48353 0.60378 0.68606 0.0
O64 O 0.59324 0.53509 0.62384 0.0
C65 C 0.49058 0.58859 0.72985 0.0
O66 O 0.59651 0.67441 0.70356 0.0
C67 C 0.56516 0.54172 0.58028 0.0
O68 O 0.59918 0.65113 0.62379 0.0
O69 O 0.55297 0.57228 0.57004 0.0
C70 C 0.51073 0.89451 0.72824 0.0
O71 O 0.55717 0.88743 0.75961 0.0
Cd72 Cd 0.66368 0.8745 0.72639 0.0
O73 O 0.52025 0.89851 0.67879 0.0
Cd74 Cd 0.60431 0.90039 0.60934 0.0
C75 C 0.61199 0.81687 0.63096 0.0
O76 O 0.69111 0.91787 0.66577 0.0
O77 O 0.72157 0.90121 0.5884 0.0
O78 O 0.55521 0.95336 0.5847 0.0
C79 C 0.73724 0.91205 0.63388 0.0
O80 O 0.63925 0.82403 0.67491 0.0
C81 C 0.55021 0.94643 0.53582 0.0
O82 O 0.59185 0.83955 0.59918 0.0
O83 O 0.5705 0.91789 0.52057 0.0
C84 C 0.49318 0.40109 0.24104 0.0
O85 O 0.44622 0.39653 0.20903 0.0
Cd86 Cd 0.33974 0.38148 0.24099 0.0
O87 O 0.48401 0.402 0.29089 0.0
Cd88 Cd 0.40185 0.40024 0.36152 0.0
C89 C 0.3906 0.31829 0.32818 0.0
O90 O 0.31441 0.42046 0.30857 0.0
O91 O 0.28527 0.401 0.38485 0.0
O92 O 0.45052 0.45206 0.391 0.0
C93 C 0.26879 0.41316 0.34028 0.0
O94 O 0.36343 0.32811 0.28541 0.0
C95 C 0.45954 0.4425 0.43845 0.0
O96 O 0.4118 0.33892 0.36275 0.0
O97 O 0.44168 0.41288 0.45076 0.0
C98 C 0.25505 0.09197 0.26039 0.0
O99 O 0.27534 0.10403 0.21687 0.0
Cd100 Cd 0.38512 0.12132 0.20127 0.0
O101 O 0.29379 0.08657 0.29882 0.0
Cd102 Cd 0.41234 0.09304 0.31314 0.0
C103 C 0.40232 0.17677 0.30406 0.0
O104 O 0.45764 0.0773 0.22655 0.0
O105 O 0.52011 0.10523 0.27975 0.0
O106 O 0.41589 0.03697 0.35103 0.0
C107 C 0.51413 0.08798 0.23795 0.0
O108 O 0.40081 0.1717 0.25429 0.0
C109 C 0.44523 0.04575 0.39298 0.0
O110 O 0.40231 0.15242 0.33689 0.0
O111 O 0.45695 0.07678 0.39925 0.0
C112 C 0.85601 0.26187 0.12478 0.0
C113 C 0.91093 0.27562 0.15131 0.0
C114 C 0.95558 0.21931 0.16551 0.0
C115 C 0.89979 0.20558 0.14048 0.0
N116 N 0.8054 0.21274 0.08521 0.0
N117 N 0.02033 0.26893 0.18407 0.0
C118 C 0.85291 0.22662 0.11619 0.0
C119 C 0.96319 0.25472 0.1675 0.0
N120 N 0.80513 0.28214 0.1108 0.0
N121 N -0.00015 0.19846 0.18917 0.0
H122 H 0.0275 0.29486 0.18513 0.0
H123 H 0.06242 0.25529 0.19207 0.0
H124 H -0.00257 0.17237 0.1862 0.0
H125 H 0.03712 0.20681 0.21385 0.0
H126 H 0.7604 0.2732 0.09747 0.0
H127 H 0.80617 0.30811 0.1153 0.0
H128 H 0.77305 0.22675 0.06236 0.0
H129 H 0.802 0.18694 0.07872 0.0
C130 C 0.14897 0.763 0.8625 0.0
C131 C 0.08992 0.77652 0.84243 0.0
C132 C 0.04248 0.72026 0.83626 0.0
C133 C 0.10329 0.70663 0.85198 0.0
N134 N 0.20762 0.71365 0.89354 0.0
N135 N 0.97555 0.7701 0.82505 0.0
C136 C 0.15426 0.72769 0.86987 0.0
C137 C 0.03485 0.7557 0.83447 0.0
N138 N 0.20093 0.78369 0.87143 0.0
N139 N -0.00647 0.69932 0.8202 0.0
H140 H 0.96917 0.79609 0.82403 0.0
H141 H 0.93208 0.75672 0.8229 0.0
H142 H -0.00316 0.67324 0.82288 0.0
H143 H 0.95073 0.70752 0.8023 0.0
H144 H 0.24781 0.77522 0.87954 0.0
H145 H 0.19761 0.80975 0.869 0.0
H146 H 0.24472 0.72744 0.9113 0.0
H147 H 0.21195 0.6878 0.89936 0.0
C148 C 0.53697 0.73043 0.63801 0.0
C149 C 0.59388 0.71104 0.63005 0.0
C150 C 0.65325 0.76129 0.60143 0.0
C151 C 0.6005 0.78109 0.61927 0.0
N152 N 0.49044 0.78578 0.65125 0.0
N153 N 0.70519 0.70657 0.60074 0.0
C154 C 0.5412 0.766 0.6355 0.0
C155 C 0.6514 0.72595 0.60948 0.0
N156 N 0.47924 0.71454 0.64815 0.0
N157 N 0.70499 0.77655 0.57726 0.0
H158 H 0.70437 0.68049 0.6039 0.0
H159 H 0.75111 0.7162 0.59212 0.0
H160 H 0.70674 0.80244 0.5709 0.0
H161 H 0.74324 0.76364 0.5596 0.0
H162 H 0.43459 0.72677 0.65046 0.0
H163 H 0.47534 0.68842 0.64974 0.0
H164 H 0.44858 0.77665 0.66951 0.0
H165 H 0.49128 0.81188 0.64776 0.0
C166 C 0.45694 0.26696 0.31189 0.0
C167 C 0.40128 0.28194 0.33507 0.0
C168 C 0.35099 0.22676 0.34791 0.0
C169 C 0.40567 0.21184 0.32291 0.0
N170 N 0.51712 0.21581 0.29398 0.0
N171 N 0.30358 0.27684 0.3869 0.0
C172 C 0.46088 0.23142 0.30915 0.0
C173 C 0.35109 0.26197 0.35723 0.0
N174 N 0.50458 0.28682 0.29049 0.0
N175 N 0.29757 0.20766 0.35973 0.0
H176 H 0.30292 0.3026 0.39419 0.0
H177 H 0.26846 0.26355 0.40805 0.0
H178 H 0.29633 0.18174 0.35454 0.0
H179 H 0.25321 0.21758 0.37197 0.0
H180 H 0.54235 0.27774 0.2671 0.0
H181 H 0.50466 0.31291 0.29411 0.0
H182 H 0.56099 0.22833 0.28778 0.0
H183 H 0.52141 0.18973 0.29219 0.0
C184 C 0.15559 0.0578 0.24169 0.0
C185 C 0.18466 0.08586 0.26665 0.0
C186 C 0.07787 0.11133 0.28095 0.0
C187 C 0.04862 0.08356 0.25487 0.0
N188 N 0.05633 0.02676 0.22326 0.0
N189 N 0.17431 0.13434 0.32285 0.0
C190 C 0.08661 0.05552 0.23953 0.0
C191 C 0.14588 0.1108 0.291 0.0
N192 N 0.19403 0.03398 0.21861 0.0
N193 N 0.04204 0.13934 0.29219 0.0
H194 H 0.22428 0.13499 0.33011 0.0
H195 H 0.14794 0.15117 0.34589 0.0
H196 H -0.00783 0.14118 0.2853 0.0
H197 H 0.06257 0.16187 0.30473 0.0
H198 H 0.17618 0.01507 0.19418 0.0
H199 H 0.24469 0.03408 0.22206 0.0
H200 H 0.08076 0.00443 0.21551 0.0
H201 H 0.0057 0.02438 0.22224 0.0
C202 C 0.59013 0.37543 0.19647 0.0
C203 C 0.56075 0.40351 0.22143 0.0
C204 C 0.66736 0.43038 0.2317 0.0
C205 C 0.69653 0.40216 0.20741 0.0
N206 N 0.68596 0.35239 0.15406 0.0
N207 N 0.56779 0.46088 0.25062 0.0
C208 C 0.65779 0.37635 0.18516 0.0
C209 C 0.59838 0.4321 0.23503 0.0
N210 N 0.55482 0.34687 0.18743 0.0
N211 N 0.70579 0.45493 0.25298 0.0
H212 H 0.51716 0.46287 0.25258 0.0
H213 H 0.59183 0.48354 0.25695 0.0
H214 H 0.75633 0.4552 0.24858 0.0
H215 H 0.68814 0.47412 0.2769 0.0
H216 H 0.57564 0.32425 0.17577 0.0
H217 H 0.50524 0.34472 0.19549 0.0
H218 H 0.65943 0.33482 0.13246 0.0
H219 H 0.73568 0.35206 0.14587 0.0
C220 C 0.33796 0.92381 0.7496 0.0
C221 C 0.30751 0.8929 0.76232 0.0
C222 C 0.41247 0.86397 0.76119 0.0
C223 C 0.44307 0.8948 0.7477 0.0
N224 N 0.43916 0.95498 0.7402 0.0
N225 N 0.31533 0.83576 0.79298 0.0
C226 C 0.40701 0.9251 0.74559 0.0
C227 C 0.34484 0.86371 0.77249 0.0
N228 N 0.30064 0.95145 0.73918 0.0
N229 N 0.447 0.83463 0.75976 0.0
H230 H 0.2655 0.83467 0.80078 0.0
H231 H 0.34069 0.8148 0.80651 0.0
H232 H 0.49683 0.83357 0.75208 0.0
H233 H 0.42563 0.81099 0.76255 0.0
H234 H 0.31902 0.97378 0.72375 0.0
H235 H 0.25011 0.9515 0.74357 0.0
H236 H 0.41663 0.97829 0.74289 0.0
H237 H 0.4898 0.95648 0.73745 0.0
C238 C 0.85711 0.62537 0.69558 0.0
C239 C 0.81997 0.59602 0.70529 0.0
C240 C 0.91982 0.56365 0.71887 0.0
C241 C 0.95577 0.59403 0.71802 0.0
N242 N 0.95966 0.65433 0.70786 0.0
N243 N 0.81365 0.537 0.7254 0.0
C244 C 0.925 0.62501 0.70593 0.0
C245 C 0.8507 0.56489 0.71586 0.0
N246 N 0.82717 0.65355 0.67643 0.0
N247 N 0.95217 0.53376 0.72231 0.0
H248 H 0.76302 0.53696 0.72184 0.0
H249 H 0.83244 0.51437 0.73928 0.0
H250 H 0.00288 0.53236 0.72424 0.0
H251 H 0.92967 0.51046 0.71871 0.0
H252 H 0.85224 0.67475 0.66339 0.0
H253 H 0.77721 0.65462 0.6691 0.0
H254 H 0.93833 0.678 0.70609 0.0
H255 H 0.00969 0.6553 0.71472 0.0
C256 C 0.83916 0.93859 0.66758 0.0
C257 C 0.80448 0.9091 0.65391 0.0
C258 C 0.89322 0.87433 0.68847 0.0
C259 C 0.92303 0.90359 0.70905 0.0
N260 N 0.92527 0.96367 0.7202 0.0
N261 N 0.79524 0.8486 0.65408 0.0
C262 C 0.89681 0.93585 0.69854 0.0
C263 C 0.83095 0.87683 0.66443 0.0
N264 N 0.81721 0.9691 0.65027 0.0
N265 N 0.92519 0.84427 0.69106 0.0
H266 H 0.75002 0.84913 0.63542 0.0
H267 H 0.80829 0.82472 0.66713 0.0
H268 H 0.97123 0.84167 0.70811 0.0
H269 H 0.90913 0.82262 0.67203 0.0
H270 H 0.84332 0.99135 0.65444 0.0
H271 H 0.77503 0.97177 0.62755 0.0
H272 H 0.90422 0.98742 0.71961 0.0
H273 H 0.96868 0.96273 0.74163 0.0
C274 C 0.40818 0.5529 0.77671 0.0
C275 C 0.43529 0.58504 0.76664 0.0
C276 C 0.34279 0.61221 0.80977 0.0
C277 C 0.31532 0.58006 0.81967 0.0
N278 N 0.32695 0.52002 0.82384 0.0
N279 N 0.43851 0.6443 0.78496 0.0
C280 C 0.34984 0.55042 0.80677 0.0
C281 C 0.40575 0.61441 0.78694 0.0
N282 N 0.43634 0.52498 0.75527 0.0
N283 N 0.30735 0.6406 0.81931 0.0
H284 H 0.48505 0.64661 0.76875 0.0
H285 H 0.42251 0.66601 0.80374 0.0
H286 H 0.26142 0.64027 0.83677 0.0
H287 H 0.32144 0.66442 0.80667 0.0
H288 H 0.4147 0.50134 0.75555 0.0
H289 H 0.48007 0.52574 0.73431 0.0
H290 H 0.35277 0.49769 0.82016 0.0
H291 H 0.28426 0.51756 0.84596 0.0
C292 C 0.59806 0.05192 0.19409 0.0
C293 C 0.56968 0.08398 0.20161 0.0
C294 C 0.66222 0.11102 0.15802 0.0
C295 C 0.69033 0.0789 0.14958 0.0
N296 N 0.67948 0.01873 0.14839 0.0
N297 N 0.56489 0.14267 0.17887 0.0
C298 C 0.65629 0.04928 0.16399 0.0
C299 C 0.59863 0.1131 0.17958 0.0
N300 N 0.57146 0.02432 0.2181 0.0
N301 N 0.69759 0.13955 0.14878 0.0
H302 H 0.51778 0.14487 0.19395 0.0
H303 H 0.5808 0.16401 0.15874 0.0
H304 H 0.74466 0.13943 0.13348 0.0
H305 H 0.68236 0.16335 0.16034 0.0
H306 H 0.59423 0.001 0.21943 0.0
H307 H 0.52836 0.02517 0.23988 0.0
H308 H 0.65377 -0.00362 0.15319 0.0
H309 H 0.72206 0.01609 0.12621 0.0
C310 C 0.11014 0.37604 0.28964 0.0
C311 C 0.08194 0.40498 0.2665 0.0
C312 C 0.1681 0.43995 0.3046 0.0
C313 C 0.20135 0.41044 0.32052 0.0
N314 N 0.208 0.3498 0.32292 0.0
N315 N 0.08465 0.46447 0.24856 0.0
C316 C 0.17317 0.37828 0.31229 0.0
C317 C 0.11052 0.43708 0.27363 0.0
N318 N 0.07614 0.3465 0.29054 0.0
N319 N 0.19136 0.47065 0.31965 0.0
H320 H 0.04205 0.46342 0.22608 0.0
H321 H 0.10758 0.48777 0.24705 0.0
H322 H 0.23348 0.47346 0.3424 0.0
H323 H 0.16612 0.493 0.31375 0.0
H324 H 0.09138 0.32536 0.3115 0.0
H325 H 0.02941 0.34413 0.27468 0.0
H326 H 0.19293 0.3259 0.31158 0.0
H327 H 0.25457 0.35004 0.33921 0.0
C328 C 0.94549 0.01223 0.95227 0.0
C329 C 0.98018 0.02118 -0.00119 0.0
C330 C 0.06458 0.97962 0.97836 0.0
C331 C 0.03186 0.97217 0.93037 0.0
N332 N 0.94667 0.9843 0.86712 0.0
N333 N 0.07806 0.01833 0.0516 0.0
C334 C 0.97424 0.98958 0.91578 0.0
C335 C 0.04127 0.00621 0.01066 0.0
N336 N 0.88337 0.02365 0.94454 0.0
N337 N 0.11741 0.96099 -0.00668 0.0
H338 H 0.0632 0.03828 0.07538 0.0
H339 H 0.12569 0.01078 0.05918 0.0
H340 H 0.13738 0.94228 0.9695 0.0
H341 H 0.1389 0.96252 0.03062 0.0
H342 H 0.85279 0.01491 0.91467 0.0
H343 H 0.85984 0.03982 0.97066 0.0
H344 H 0.90967 -0.00077 0.85156 0.0
H345 H 0.96361 0.96638 0.84049 0.0
C346 C 0.0741 0.48954 -0.012 0.0
C347 C 0.03204 0.51422 0.96641 0.0
C348 C 0.93833 0.48768 0.00973 0.0
C349 C 0.98125 0.46485 0.03512 0.0
N350 N 0.09118 0.44782 0.05647 0.0
N351 N 0.92585 0.53963 0.96025 0.0
C352 C 0.04949 0.46662 0.02623 0.0
C353 C 0.96458 0.51417 0.97839 0.0
N354 N 0.13754 0.48786 0.97171 0.0
N355 N 0.87249 0.48322 0.01397 0.0
H356 H 0.94304 0.5588 0.93569 0.0
H357 H 0.87788 0.54312 0.97234 0.0
H358 H 0.85169 0.46381 0.03606 0.0
H359 H 0.8385 0.49685 -0.00784 0.0
H360 H 0.16838 0.46798 0.98113 0.0
H361 H 0.15824 0.50511 0.94546 0.0
H362 H 0.14154 0.45088 0.05596 0.0
H363 H 0.07558 0.4312 0.08584 0.0
C364 C 0.55227 0.47871 0.46789 0.0
C365 C 0.48908 0.4655 0.47756 0.0
C366 C 0.48083 0.49879 0.55875 0.0
C367 C 0.54071 0.51465 0.54583 0.0
N368 N 0.63155 0.52235 0.48671 0.0
N369 N 0.38904 0.46601 0.52779 0.0
C370 C 0.57599 0.50535 0.49997 0.0
C371 C 0.45241 0.47605 0.52214 0.0
N372 N 0.59036 0.46494 0.42919 0.0
N373 N 0.45105 0.50552 0.60603 0.0
H374 H 0.36595 0.44965 0.50164 0.0
H375 H 0.35744 0.47597 0.55588 0.0
H376 H 0.46851 0.52327 0.63283 0.0
H377 H 0.41164 0.49184 0.62055 0.0
H378 H 0.6391 0.47114 0.42346 0.0
H379 H 0.57498 0.44497 0.4056 0.0
H380 H 0.65556 0.51945 0.45069 0.0
H381 H 0.65157 0.54111 0.51049 0.0
C382 C 0.4564 0.98077 0.50301 0.0
C383 C 0.52268 0.97109 0.49823 0.0
C384 C 0.53617 0.00867 0.42206 0.0
C385 C 0.47162 0.02037 0.4297 0.0
N386 N 0.37208 0.02097 0.48002 0.0
N387 N 0.62881 0.97923 0.45921 0.0
C388 C 0.43216 0.00738 0.47096 0.0
C389 C 0.56344 0.98584 0.45922 0.0
N390 N 0.41617 0.96364 0.53681 0.0
N391 N 0.57091 0.01887 0.37862 0.0
H392 H 0.65079 0.96268 0.48585 0.0
H393 H 0.66224 0.99215 0.43578 0.0
H394 H 0.55337 0.0363 0.35119 0.0
H395 H 0.61511 0.00824 0.36747 0.0
H396 H 0.36596 0.96708 0.53824 0.0
H397 H 0.43216 0.94384 0.56062 0.0
H398 H 0.34363 0.0152 0.51294 0.0
H399 H 0.35242 0.03998 0.45642 0.0
loop_
_geom_bond_atom_site_label_1
_geom_bond_atom_site_label_2
_geom_bond_distance
_geom_bond_site_symmetry_2
_ccdc_geom_bond_type
C0 O1 1.306 . S
C0 O3 1.160 . S
O1 C0 1.306 . S
O1 Cd2 2.233 . S
Cd2 O1 2.233 . S
Cd2 O6 2.271 1_455 S
Cd2 O10 2.277 . S
O3 C0 1.160 . S
O3 Cd4 2.203 . S
Cd4 O3 2.203 . S
Cd4 O6 2.411 1_455 S
Cd4 O7 2.333 1_455 S
Cd4 O8 2.352 . S
Cd4 O12 2.277 . S
Cd4 O13 2.356 1_455 S
C5 O10 1.209 . S
C5 O12 1.226 . S
O6 Cd2 2.271 1_655 S
O6 Cd4 2.411 1_655 S
O6 C9 1.320 . S
O7 Cd4 2.333 1_655 S
O7 C9 1.214 . S
O8 Cd4 2.352 . S
O8 C11 1.258 . S
C9 O6 1.320 . S
C9 O7 1.214 . S
O10 Cd2 2.277 . S
O10 C5 1.209 . S
C11 O8 1.258 . S
C11 O13 1.282 1_455 S
O12 Cd4 2.277 . S
O12 C5 1.226 . S
O13 Cd4 2.356 1_655 S
O13 C11 1.282 1_655 S
C14 O15 1.306 . S
C14 O17 1.160 . S
O15 C14 1.306 . S
O15 Cd16 2.228 1_655 S
Cd16 O15 2.228 1_455 S
Cd16 O20 2.273 . S
Cd16 O24 2.277 . S
O17 C14 1.160 . S
O17 Cd18 2.203 1_655 S
Cd18 O17 2.203 1_455 S
Cd18 O20 2.411 . S
Cd18 O21 2.333 . S
Cd18 O22 2.352 . S
Cd18 O26 2.277 . S
Cd18 O27 2.356 . S
C19 O24 1.209 . S
C19 O26 1.226 . S
O20 Cd16 2.273 . S
O20 Cd18 2.411 . S
O20 C23 1.320 . S
O21 Cd18 2.333 . S
O21 C23 1.214 . S
O22 Cd18 2.352 . S
O22 C25 1.258 . S
C23 O20 1.320 . S
C23 O21 1.214 . S
O24 Cd16 2.277 . S
O24 C19 1.209 . S
C25 O22 1.258 . S
C25 O27 1.282 . S
O26 Cd18 2.277 . S
O26 C19 1.226 . S
O27 Cd18 2.356 . S
O27 C25 1.282 . S
C28 O29 1.306 . S
C28 O31 1.160 . S
O29 C28 1.306 . S
O29 Cd30 2.233 . S
Cd30 O29 2.233 . S
Cd30 O34 2.271 1_455 S
Cd30 O38 2.277 . S
O31 C28 1.160 . S
O31 Cd32 2.203 . S
Cd32 O31 2.203 . S
Cd32 O34 2.411 1_455 S
Cd32 O35 2.333 1_455 S
Cd32 O36 2.352 . S
Cd32 O40 2.277 . S
Cd32 O41 2.356 1_455 S
C33 O38 1.209 . S
C33 O40 1.226 . S
O34 Cd30 2.271 1_655 S
O34 Cd32 2.411 1_655 S
O34 C37 1.320 . S
O35 Cd32 2.333 1_655 S
O35 C37 1.214 . S
O36 Cd32 2.352 . S
O36 C39 1.258 . S
C37 O34 1.320 . S
C37 O35 1.214 . S
O38 Cd30 2.277 . S
O38 C33 1.209 . S
C39 O36 1.258 . S
C39 O41 1.282 1_455 S
O40 Cd32 2.277 . S
O40 C33 1.226 . S
O41 Cd32 2.356 1_655 S
O41 C39 1.282 1_655 S
C42 O43 1.306 . S
C42 O45 1.160 . S
O43 C42 1.306 . S
O43 Cd44 2.228 1_655 S
Cd44 O43 2.228 1_455 S
Cd44 O48 2.273 . S
Cd44 O52 2.277 . S
O45 C42 1.160 . S
O45 Cd46 2.203 1_655 S
Cd46 O45 2.203 1_455 S
Cd46 O48 2.411 . S
Cd46 O49 2.333 . S
Cd46 O50 2.352 . S
Cd46 O54 2.277 . S
Cd46 O55 2.356 . S
C47 O52 1.209 . S
C47 O54 1.226 . S
O48 Cd44 2.273 . S
O48 Cd46 2.411 . S
O48 C51 1.320 . S
O49 Cd46 2.333 . S
O49 C51 1.214 . S
O50 Cd46 2.352 . S
O50 C53 1.258 . S
C51 O48 1.320 . S
C51 O49 1.214 . S
O52 Cd44 2.277 . S
O52 C47 1.209 . S
C53 O50 1.258 . S
C53 O55 1.282 . S
O54 Cd46 2.277 . S
O54 C47 1.226 . S
O55 Cd46 2.356 . S
O55 C53 1.282 . S
C56 O57 1.306 . S
C56 O59 1.160 . S
O57 C56 1.306 . S
O57 Cd58 2.228 . S
Cd58 O57 2.228 . S
Cd58 O62 2.273 . S
Cd58 O66 2.277 . S
O59 C56 1.160 . S
O59 Cd60 2.203 . S
Cd60 O59 2.203 . S
Cd60 O62 2.411 . S
Cd60 O63 2.333 . S
Cd60 O64 2.352 . S
Cd60 O68 2.277 . S
Cd60 O69 2.356 . S
C61 O66 1.209 . S
C61 O68 1.226 . S
O62 Cd58 2.273 . S
O62 Cd60 2.411 . S
O62 C65 1.320 . S
O63 Cd60 2.333 . S
O63 C65 1.214 . S
O64 Cd60 2.352 . S
O64 C67 1.258 . S
C65 O62 1.320 . S
C65 O63 1.214 . S
O66 Cd58 2.277 . S
O66 C61 1.209 . S
C67 O64 1.258 . S
C67 O69 1.282 . S
O68 Cd60 2.277 . S
O68 C61 1.226 . S
O69 Cd60 2.356 . S
O69 C67 1.282 . S
C70 O71 1.306 . S
C70 O73 1.160 . S
O71 C70 1.306 . S
O71 Cd72 2.228 . S
Cd72 O71 2.228 . S
Cd72 O76 2.273 . S
Cd72 O80 2.277 . S
O73 C70 1.160 . S
O73 Cd74 2.203 . S
Cd74 O73 2.203 . S
Cd74 O76 2.411 . S
Cd74 O77 2.333 . S
Cd74 O78 2.352 . S
Cd74 O82 2.277 . S
Cd74 O83 2.356 . S
C75 O80 1.209 . S
C75 O82 1.226 . S
O76 Cd72 2.273 . S
O76 Cd74 2.411 . S
O76 C79 1.320 . S
O77 Cd74 2.333 . S
O77 C79 1.214 . S
O78 Cd74 2.352 . S
O78 C81 1.258 . S
C79 O76 1.320 . S
C79 O77 1.214 . S
O80 Cd72 2.277 . S
O80 C75 1.209 . S
C81 O78 1.258 . S
C81 O83 1.282 . S
O82 Cd74 2.277 . S
O82 C75 1.226 . S
O83 Cd74 2.356 . S
O83 C81 1.282 . S
C84 O85 1.306 . S
C84 O87 1.160 . S
O85 C84 1.306 . S
O85 Cd86 2.228 . S
Cd86 O85 2.228 . S
Cd86 O90 2.273 . S
Cd86 O94 2.277 . S
O87 C84 1.160 . S
O87 Cd88 2.203 . S
Cd88 O87 2.203 . S
Cd88 O90 2.411 . S
Cd88 O91 2.333 . S
Cd88 O92 2.352 . S
Cd88 O96 2.277 . S
Cd88 O97 2.356 . S
C89 O94 1.209 . S
C89 O96 1.226 . S
O90 Cd86 2.273 . S
O90 Cd88 2.411 . S
O90 C93 1.320 . S
O91 Cd88 2.333 . S
O91 C93 1.214 . S
O92 Cd88 2.352 . S
O92 C95 1.258 . S
C93 O90 1.320 . S
C93 O91 1.214 . S
O94 Cd86 2.277 . S
O94 C89 1.209 . S
C95 O92 1.258 . S
C95 O97 1.282 . S
O96 Cd88 2.277 . S
O96 C89 1.226 . S
O97 Cd88 2.356 . S
O97 C95 1.282 . S
C98 O99 1.306 . S
C98 O101 1.160 . S
O99 C98 1.306 . S
O99 Cd100 2.228 . S
Cd100 O99 2.228 . S
Cd100 O104 2.273 . S
Cd100 O108 2.277 . S
O101 C98 1.160 . S
O101 Cd102 2.203 . S
Cd102 O101 2.203 . S
Cd102 O104 2.411 . S
Cd102 O105 2.333 . S
Cd102 O106 2.352 . S
Cd102 O110 2.277 . S
Cd102 O111 2.356 . S
C103 O108 1.209 . S
C103 O110 1.226 . S
O104 Cd100 2.273 . S
O104 Cd102 2.411 . S
O104 C107 1.320 . S
O105 Cd102 2.333 . S
O105 C107 1.214 . S
O106 Cd102 2.352 . S
O106 C109 1.258 . S
C107 O104 1.320 . S
C107 O105 1.214 . S
O108 Cd100 2.277 . S
O108 C103 1.209 . S
C109 O106 1.258 . S
C109 O111 1.282 . S
O110 Cd102 2.277 . S
O110 C103 1.226 . S
O111 Cd102 2.356 . S
O111 C109 1.282 . S
C112 C113 1.363 1_655 S
C112 C118 1.379 . S
C112 N120 1.356 . S
C113 C112 1.363 1_455 S
C113 C119 1.363 . S
C114 C115 1.363 . S
C114 C119 1.379 . S
C114 N121 1.356 . S
C115 C114 1.363 . S
C115 C118 1.363 1_455 S
N116 C118 1.356 . S
N116 H128 0.984 . S
N116 H129 0.985 . S
N117 C119 1.356 . S
N117 H122 0.984 . S
N117 H123 0.985 . S
C118 C112 1.379 . S
C118 C115 1.363 1_655 S
C118 N116 1.356 . S
C119 C113 1.363 . S
C119 C114 1.379 . S
C119 N117 1.356 . S
N120 C112 1.356 . S
N120 H126 0.984 . S
N120 H127 0.984 . S
N121 C114 1.356 . S
N121 H124 0.984 . S
N121 H125 0.985 . S
H122 N117 0.984 . S
H123 N117 0.985 . S
H124 N121 0.984 . S
H125 N121 0.985 . S
H126 N120 0.984 . S
H127 N120 0.984 . S
H128 N116 0.984 . S
H129 N116 0.985 . S
C130 C131 1.363 . S
C130 C136 1.379 . S
C130 N138 1.356 . S
C131 C130 1.363 . S
C131 C137 1.363 1_455 S
C132 C133 1.363 1_655 S
C132 C137 1.379 . S
C132 N139 1.356 . S
C133 C132 1.363 1_455 S
C133 C136 1.363 . S
N134 C136 1.356 . S
N134 H146 0.984 . S
N134 H147 0.985 . S
N135 C137 1.356 . S
N135 H140 0.984 . S
N135 H141 0.985 . S
C136 C130 1.379 . S
C136 C133 1.363 . S
C136 N134 1.356 . S
C137 C131 1.363 1_655 S
C137 C132 1.379 . S
C137 N135 1.356 . S
N138 C130 1.356 . S
N138 H144 0.984 . S
N138 H145 0.984 . S
N139 C132 1.356 . S
N139 H142 0.984 . S
N139 H143 0.985 . S
H140 N135 0.984 . S
H141 N135 0.985 . S
H142 N139 0.984 . S
H143 N139 0.985 . S
H144 N138 0.984 . S
H145 N138 0.984 . S
H146 N134 0.984 . S
H147 N134 0.985 . S
C148 C149 1.363 . S
C148 C154 1.379 . S
C148 N156 1.356 . S
C149 C148 1.363 . S
C149 C155 1.363 . S
C150 C151 1.363 . S
C150 C155 1.379 . S
C150 N157 1.356 . S
C151 C150 1.363 . S
C151 C154 1.363 . S
N152 C154 1.356 . S
N152 H164 0.984 . S
N152 H165 0.985 . S
N153 C155 1.356 . S
N153 H158 0.984 . S
N153 H159 0.985 . S
C154 C148 1.379 . S
C154 C151 1.363 . S
C154 N152 1.356 . S
C155 C149 1.363 . S
C155 C150 1.379 . S
C155 N153 1.356 . S
N156 C148 1.356 . S
N156 H162 0.984 . S
N156 H163 0.984 . S
N157 C150 1.356 . S
N157 H160 0.984 . S
N157 H161 0.985 . S
H158 N153 0.984 . S
H159 N153 0.985 . S
H160 N157 0.984 . S
H161 N157 0.985 . S
H162 N156 0.984 . S
H163 N156 0.984 . S
H164 N152 0.984 . S
H165 N152 0.985 . S
C166 C167 1.363 . S
C166 C172 1.379 . S
C166 N174 1.356 . S
C167 C166 1.363 . S
C167 C173 1.363 . S
C168 C169 1.363 . S
C168 C173 1.379 . S
C168 N175 1.356 . S
C169 C168 1.363 . S
C169 C172 1.363 . S
N170 C172 1.356 . S
N170 H182 0.984 . S
N170 H183 0.985 . S
N171 C173 1.356 . S
N171 H176 0.984 . S
N171 H177 0.985 . S
C172 C166 1.379 . S
C172 C169 1.363 . S
C172 N170 1.356 . S
C173 C167 1.363 . S
C173 C168 1.379 . S
C173 N171 1.356 . S
N174 C166 1.356 . S
N174 H180 0.984 . S
N174 H181 0.984 . S
N175 C168 1.356 . S
N175 H178 0.984 . S
N175 H179 0.985 . S
H176 N171 0.984 . S
H177 N171 0.985 . S
H178 N175 0.984 . S
H179 N175 0.985 . S
H180 N174 0.984 . S
H181 N174 0.984 . S
H182 N170 0.984 . S
H183 N170 0.985 . S
C184 C185 1.363 . S
C184 C190 1.379 . S
C184 N192 1.356 . S
C185 C184 1.363 . S
C185 C191 1.363 . S
C186 C187 1.363 . S
C186 C191 1.379 . S
C186 N193 1.356 . S
C187 C186 1.363 . S
C187 C190 1.363 . S
N188 C190 1.356 . S
N188 H200 0.984 . S
N188 H201 0.985 . S
N189 C191 1.356 . S
N189 H194 0.984 . S
N189 H195 0.985 . S
C190 C184 1.379 . S
C190 C187 1.363 . S
C190 N188 1.356 . S
C191 C185 1.363 . S
C191 C186 1.379 . S
C191 N189 1.356 . S
N192 C184 1.356 . S
N192 H198 0.984 . S
N192 H199 0.984 . S
N193 C186 1.356 . S
N193 H196 0.984 . S
N193 H197 0.985 . S
H194 N189 0.984 . S
H195 N189 0.985 . S
H196 N193 0.984 . S
H197 N193 0.985 . S
H198 N192 0.984 . S
H199 N192 0.984 . S
H200 N188 0.984 . S
H201 N188 0.985 . S
C202 C203 1.363 . S
C202 C208 1.379 . S
C202 N210 1.356 . S
C203 C202 1.363 . S
C203 C209 1.363 . S
C204 C205 1.363 . S
C204 C209 1.379 . S
C204 N211 1.356 . S
C205 C204 1.363 . S
C205 C208 1.363 . S
N206 C208 1.356 . S
N206 H218 0.984 . S
N206 H219 0.985 . S
N207 C209 1.356 . S
N207 H212 0.984 . S
N207 H213 0.985 . S
C208 C202 1.379 . S
C208 C205 1.363 . S
C208 N206 1.356 . S
C209 C203 1.363 . S
C209 C204 1.379 . S
C209 N207 1.356 . S
N210 C202 1.356 . S
N210 H216 0.984 . S
N210 H217 0.984 . S
N211 C204 1.356 . S
N211 H214 0.984 . S
N211 H215 0.985 . S
H212 N207 0.984 . S
H213 N207 0.985 . S
H214 N211 0.984 . S
H215 N211 0.985 . S
H216 N210 0.984 . S
H217 N210 0.984 . S
H218 N206 0.984 . S
H219 N206 0.985 . S
C220 C221 1.363 . S
C220 C226 1.379 . S
C220 N228 1.356 . S
C221 C220 1.363 . S
C221 C227 1.363 . S
C222 C223 1.363 . S
C222 C227 1.379 . S
C222 N229 1.356 . S
C223 C222 1.363 . S
C223 C226 1.363 . S
N224 C226 1.356 . S
N224 H236 0.984 . S
N224 H237 0.985 . S
N225 C227 1.356 . S
N225 H230 0.984 . S
N225 H231 0.985 . S
C226 C220 1.379 . S
C226 C223 1.363 . S
C226 N224 1.356 . S
C227 C221 1.363 . S
C227 C222 1.379 . S
C227 N225 1.356 . S
N228 C220 1.356 . S
N228 H234 0.984 . S
N228 H235 0.984 . S
N229 C222 1.356 . S
N229 H232 0.984 . S
N229 H233 0.985 . S
H230 N225 0.984 . S
H231 N225 0.985 . S
H232 N229 0.984 . S
H233 N229 0.985 . S
H234 N228 0.984 . S
H235 N228 0.984 . S
H236 N224 0.984 . S
H237 N224 0.985 . S
C238 C239 1.363 . S
C238 C244 1.379 . S
C238 N246 1.356 . S
C239 C238 1.363 . S
C239 C245 1.363 . S
C240 C241 1.363 . S
C240 C245 1.379 . S
C240 N247 1.356 . S
C241 C240 1.363 . S
C241 C244 1.363 . S
N242 C244 1.356 . S
N242 H254 0.984 . S
N242 H255 0.985 . S
N243 C245 1.356 . S
N243 H248 0.984 . S
N243 H249 0.985 . S
C244 C238 1.379 . S
C244 C241 1.363 . S
C244 N242 1.356 . S
C245 C239 1.363 . S
C245 C240 1.379 . S
C245 N243 1.356 . S
N246 C238 1.356 . S
N246 H252 0.984 . S
N246 H253 0.984 . S
N247 C240 1.356 . S
N247 H250 0.984 . S
N247 H251 0.985 . S
H248 N243 0.984 . S
H249 N243 0.985 . S
H250 N247 0.984 . S
H251 N247 0.985 . S
H252 N246 0.984 . S
H253 N246 0.984 . S
H254 N242 0.984 . S
H255 N242 0.985 . S
C256 C257 1.363 . S
C256 C262 1.379 . S
C256 N264 1.356 . S
C257 C256 1.363 . S
C257 C263 1.363 . S
C258 C259 1.363 . S
C258 C263 1.379 . S
C258 N265 1.356 . S
C259 C258 1.363 . S
C259 C262 1.363 . S
N260 C262 1.356 . S
N260 H272 0.984 . S
N260 H273 0.985 . S
N261 C263 1.356 . S
N261 H266 0.984 . S
N261 H267 0.985 . S
C262 C256 1.379 . S
C262 C259 1.363 . S
C262 N260 1.356 . S
C263 C257 1.363 . S
C263 C258 1.379 . S
C263 N261 1.356 . S
N264 C256 1.356 . S
N264 H270 0.984 . S
N264 H271 0.984 . S
N265 C258 1.356 . S
N265 H268 0.984 . S
N265 H269 0.985 . S
H266 N261 0.984 . S
H267 N261 0.985 . S
H268 N265 0.984 . S
H269 N265 0.985 . S
H270 N264 0.984 . S
H271 N264 0.984 . S
H272 N260 0.984 . S
H273 N260 0.985 . S
C274 C275 1.363 . S
C274 C280 1.379 . S
C274 N282 1.356 . S
C275 C274 1.363 . S
C275 C281 1.363 . S
C276 C277 1.363 . S
C276 C281 1.379 . S
C276 N283 1.356 . S
C277 C276 1.363 . S
C277 C280 1.363 . S
N278 C280 1.356 . S
N278 H290 0.984 . S
N278 H291 0.985 . S
N279 C281 1.356 . S
N279 H284 0.984 . S
N279 H285 0.985 . S
C280 C274 1.379 . S
C280 C277 1.363 . S
C280 N278 1.356 . S
C281 C275 1.363 . S
C281 C276 1.379 . S
C281 N279 1.356 . S
N282 C274 1.356 . S
N282 H288 0.984 . S
N282 H289 0.984 . S
N283 C276 1.356 . S
N283 H286 0.984 . S
N283 H287 0.985 . S
H284 N279 0.984 . S
H285 N279 0.985 . S
H286 N283 0.984 . S
H287 N283 0.985 . S
H288 N282 0.984 . S
H289 N282 0.984 . S
H290 N278 0.984 . S
H291 N278 0.985 . S
C292 C293 1.363 . S
C292 C298 1.379 . S
C292 N300 1.356 . S
C293 C292 1.363 . S
C293 C299 1.363 . S
C294 C295 1.363 . S
C294 C299 1.379 . S
C294 N301 1.356 . S
C295 C294 1.363 . S
C295 C298 1.363 . S
N296 C298 1.356 . S
N296 H308 0.984 . S
N296 H309 0.985 . S
N297 C299 1.356 . S
N297 H302 0.984 . S
N297 H303 0.985 . S
C298 C292 1.379 . S
C298 C295 1.363 . S
C298 N296 1.356 . S
C299 C293 1.363 . S
C299 C294 1.379 . S
C299 N297 1.356 . S
N300 C292 1.356 . S
N300 H306 0.984 . S
N300 H307 0.984 . S
N301 C294 1.356 . S
N301 H304 0.984 . S
N301 H305 0.985 . S
H302 N297 0.984 . S
H303 N297 0.985 . S
H304 N301 0.984 . S
H305 N301 0.985 . S
H306 N300 0.984 . S
H307 N300 0.984 . S
H308 N296 0.984 . S
H309 N296 0.985 . S
C310 C311 1.363 . S
C310 C316 1.379 . S
C310 N318 1.356 . S
C311 C310 1.363 . S
C311 C317 1.363 . S
C312 C313 1.363 . S
C312 C317 1.379 . S
C312 N319 1.356 . S
C313 C312 1.363 . S
C313 C316 1.363 . S
N314 C316 1.356 . S
N314 H326 0.984 . S
N314 H327 0.985 . S
N315 C317 1.356 . S
N315 H320 0.984 . S
N315 H321 0.985 . S
C316 C310 1.379 . S
C316 C313 1.363 . S
C316 N314 1.356 . S
C317 C311 1.363 . S
C317 C312 1.379 . S
C317 N315 1.356 . S
N318 C310 1.356 . S
N318 H324 0.984 . S
N318 H325 0.984 . S
N319 C312 1.356 . S
N319 H322 0.984 . S
N319 H323 0.985 . S
H320 N315 0.984 . S
H321 N315 0.985 . S
H322 N319 0.984 . S
H323 N319 0.985 . S
H324 N318 0.984 . S
H325 N318 0.984 . S
H326 N314 0.984 . S
H327 N314 0.985 . S
C328 C329 1.363 1_655 S
C328 C334 1.379 1_544 S
C328 N336 1.356 . S
C329 C328 1.363 1_455 S
C329 C335 1.363 . S
C330 C331 1.363 . S
C330 C335 1.379 1_566 S
C330 N337 1.356 . S
C331 C330 1.363 . S
C331 C334 1.363 1_455 S
N332 C334 1.356 . S
N332 H344 0.984 . S
N332 H345 0.985 . S
N333 C335 1.356 . S
N333 H338 0.984 . S
N333 H339 0.985 . S
C334 C328 1.379 1_566 S
C334 C331 1.363 1_655 S
C334 N332 1.356 . S
C335 C329 1.363 . S
C335 C330 1.379 1_544 S
C335 N333 1.356 . S
N336 C328 1.356 . S
N336 H342 0.984 1_554 S
N336 H343 0.984 . S
N337 C330 1.356 . S
N337 H340 0.984 . S
N337 H341 0.985 1_556 S
H338 N333 0.984 . S
H339 N333 0.985 . S
H340 N337 0.984 . S
H341 N337 0.985 1_554 S
H342 N336 0.984 1_556 S
H343 N336 0.984 . S
H344 N332 0.984 . S
H345 N332 0.985 . S
C346 C347 1.363 1_554 S
C346 C352 1.379 . S
C346 N354 1.356 . S
C347 C346 1.363 1_556 S
C347 C353 1.363 1_455 S
C348 C349 1.363 1_656 S
C348 C353 1.379 . S
C348 N355 1.356 . S
C349 C348 1.363 1_454 S
C349 C352 1.363 . S
N350 C352 1.356 . S
N350 H362 0.984 . S
N350 H363 0.985 . S
N351 C353 1.356 . S
N351 H356 0.984 . S
N351 H357 0.985 . S
C352 C346 1.379 . S
C352 C349 1.363 . S
C352 N350 1.356 . S
C353 C347 1.363 1_655 S
C353 C348 1.379 . S
C353 N351 1.356 . S
N354 C346 1.356 . S
N354 H360 0.984 . S
N354 H361 0.984 1_554 S
N355 C348 1.356 . S
N355 H358 0.984 1_556 S
N355 H359 0.985 . S
H356 N351 0.984 . S
H357 N351 0.985 . S
H358 N355 0.984 1_554 S
H359 N355 0.985 . S
H360 N354 0.984 . S
H361 N354 0.984 1_556 S
H362 N350 0.984 . S
H363 N350 0.985 . S
C364 C365 1.363 . S
C364 C370 1.379 . S
C364 N372 1.356 . S
C365 C364 1.363 . S
C365 C371 1.363 . S
C366 C367 1.363 . S
C366 C371 1.379 . S
C366 N373 1.356 . S
C367 C366 1.363 . S
C367 C370 1.363 . S
N368 C370 1.356 . S
N368 H380 0.984 . S
N368 H381 0.985 . S
N369 C371 1.356 . S
N369 H374 0.984 . S
N369 H375 0.985 . S
C370 C364 1.379 . S
C370 C367 1.363 . S
C370 N368 1.356 . S
C371 C365 1.363 . S
C371 C366 1.379 . S
C371 N369 1.356 . S
N372 C364 1.356 . S
N372 H378 0.984 . S
N372 H379 0.984 . S
N373 C366 1.356 . S
N373 H376 0.984 . S
N373 H377 0.985 . S
H374 N369 0.984 . S
H375 N369 0.985 . S
H376 N373 0.984 . S
H377 N373 0.985 . S
H378 N372 0.984 . S
H379 N372 0.984 . S
H380 N368 0.984 . S
H381 N368 0.985 . S
C382 C383 1.364 1_545 S
C382 C388 1.377 . S
C382 N390 1.357 1_545 S
C383 C382 1.364 1_565 S
C383 C389 1.363 . S
C384 C385 1.364 1_565 S
C384 C389 1.377 . S
C384 N391 1.357 1_565 S
C385 C384 1.364 1_545 S
C385 C388 1.363 . S
N386 C388 1.356 . S
N386 H398 0.984 . S
N386 H399 0.985 . S
N387 C389 1.356 . S
N387 H392 0.984 . S
N387 H393 0.985 . S
C388 C382 1.377 . S
C388 C385 1.363 . S
C388 N386 1.356 . S
C389 C383 1.363 . S
C389 C384 1.377 . S
C389 N387 1.356 . S
N390 C382 1.357 1_565 S
N390 H396 0.984 1_565 S
N390 H397 0.984 . S
N391 C384 1.357 1_545 S
N391 H394 0.984 . S
N391 H395 0.985 1_545 S
H392 N387 0.984 . S
H393 N387 0.985 . S
H394 N391 0.984 . S
H395 N391 0.985 1_565 S
H396 N390 0.984 1_545 S
H397 N390 0.984 . S
H398 N386 0.984 . S
H399 N386 0.985 . S
C113 C19 1.460 . S
C115 C5 1.460 . S
C131 C33 1.460 . S
C133 C47 1.460 . S
C149 C61 1.460 . S
C151 C75 1.460 . S
C167 C89 1.460 . S
C169 C103 1.460 . S
C185 C98 1.443 . S
C187 C0 1.443 . S
C203 C84 1.443 . S
C205 C14 1.443 . S
C221 C28 1.443 . S
C223 C70 1.443 . S
C239 C56 1.443 . S
C241 C42 1.443 . S
C257 C79 1.443 . S
C259 C37 1.443 . S
C275 C65 1.443 . S
C277 C51 1.443 . S
C293 C107 1.443 . S
C295 C9 1.443 . S
C311 C23 1.443 . S
C313 C93 1.443 . S
C329 C11 1.419 . S
C331 C39 1.419 . S
C347 C53 1.419 . S
C349 C25 1.419 . S
C365 C95 1.419 . S
C367 C67 1.419 . S
C383 C81 1.419 . S
C385 C109 1.419 . S
