# Generated by pormake.
# Topology ilc, (8)-cn, num edge types: 1
# Building blocks:
#     Node 0, Type 0, BuildingBlock: EYACOX_clean_sbu_0, # of connection points: 8
#     Node 1, Type 0, BuildingBlock: EYACOX_clean_sbu_0, # of connection points: 8
#     Node 2, Type 0, BuildingBlock: EYACOX_clean_sbu_0, # of connection points: 8
#     Edge 3, Type (0, 0), BuildingBlock: FUNLAD_clean_linker_0, # of connection points: 2
#     Edge 4, Type (0, 0), BuildingBlock: FUNLAD_clean_linker_0, # of connection points: 2
#     Edge 5, Type (0, 0), BuildingBlock: FUNLAD_clean_linker_0, # of connection points: 2
#     Edge 6, Type (0, 0), BuildingBlock: FUNLAD_clean_linker_0, # of connection points: 2
#     Edge 7, Type (0, 0), BuildingBlock: FUNLAD_clean_linker_0, # of connection points: 2
#     Edge 8, Type (0, 0), BuildingBlock: FUNLAD_clean_linker_0, # of connection points: 2
#     Edge 9, Type (0, 0), BuildingBlock: FUNLAD_clean_linker_0, # of connection points: 2
#     Edge 10, Type (0, 0), BuildingBlock: FUNLAD_clean_linker_0, # of connection points: 2
#     Edge 11, Type (0, 0), BuildingBlock: FUNLAD_clean_linker_0, # of connection points: 2
#     Edge 12, Type (0, 0), BuildingBlock: FUNLAD_clean_linker_0, # of connection points: 2
#     Edge 13, Type (0, 0), BuildingBlock: FUNLAD_clean_linker_0, # of connection points: 2
#     Edge 14, Type (0, 0), BuildingBlock: FUNLAD_clean_linker_0, # of connection points: 2
# Relax obj value: 0.098
# Max RMSD: 0.169
# Mean RMSD: 0.169
data_MOF--net-ilc--node1-EYACOX_clean_sbu_0--edge1-FUNLAD_clean_linker_0
_symmetry_space_group_name_H-M    P1
_symmetry_Int_Tables_number       1
_symmetry_cell_setting            triclinic
loop_
_symmetry_equiv_pos_as_xyz
'x, y, z'
_cell_length_a     30.147208
_cell_length_b     25.06766
_cell_length_c     21.734482
_cell_angle_alpha  84.897677
_cell_angle_beta   118.70089
_cell_angle_gamma 126.60968
loop_
_atom_site_label
_atom_site_type_symbol
_atom_site_fract_x
_atom_site_fract_y
_atom_site_fract_z
_atom_type_partial_charge
Eu0 Eu 0.95907 0.94728 0.0104 0.0
Eu1 Eu 0.08361 0.03433 0.9846 0.0
O2 O 0.90529 0.9447 0.05292 0.0
O3 O 0.87027 0.84907 0.99571 0.0
O4 O 0.99705 0.93796 0.8928 0.0
O5 O 0.95911 0.87185 0.96039 0.0
O6 O 0.9216 0.97048 0.90207 0.0
O7 O 1.02064 0.06396 0.91879 0.0
C8 C 0.84905 0.84513 0.08893 0.0
C9 C 0.82238 0.78701 0.19464 0.0
C10 C 0.78866 0.80959 0.14913 0.0
C11 C 0.80168 0.83811 0.09562 0.0
C12 C 0.87209 0.79676 0.19174 0.0
C13 C 0.88536 0.82587 0.13837 0.0
C14 C 0.86289 0.87741 0.03354 0.0
C15 C 0.96722 0.87784 0.90533 0.0
O16 O 0.14825 0.11738 0.95239 0.0
O17 O 0.15499 0.03641 0.9796 0.0
C18 C 0.9566 0.02536 0.88379 0.0
O19 O 0.12066 0.10318 0.08528 0.0
O20 O 1.02056 0.06129 0.06149 0.0
O21 O 0.1013 0.97559 0.0658 0.0
O22 O 0.04105 0.95962 0.11205 0.0
C23 C 0.17447 0.08061 0.88696 0.0
C24 C 0.13397 0.00646 0.77662 0.0
C25 C 0.12924 0.01493 0.83564 0.0
C26 C 0.18172 0.06403 0.76718 0.0
C27 C 0.22633 0.12951 0.81663 0.0
C28 C 0.22343 0.13778 0.87739 0.0
C29 C 0.17323 0.08911 0.95255 0.0
C30 C 0.08466 0.10878 0.09737 0.0
C31 C 0.08638 0.96049 0.11605 0.0
H32 H 0.81499 0.76887 0.23864 0.0
H33 H 0.77648 0.85673 0.0608 0.0
H34 H 0.92487 0.83543 0.13678 0.0
H35 H 0.09195 0.97039 0.84276 0.0
H36 H 0.18503 0.05753 0.72119 0.0
H37 H 0.25917 0.18806 0.91709 0.0
Eu38 Eu 0.6523 0.32461 0.37054 0.0
Eu39 Eu 0.75527 0.35608 0.32381 0.0
O40 O 0.63627 0.34975 0.4474 0.0
O41 O 0.5532 0.26746 0.34707 0.0
O42 O 0.65281 0.28682 0.22696 0.0
O43 O 0.60546 0.22891 0.29121 0.0
O44 O 0.63799 0.37541 0.27981 0.0
O45 O 0.7342 0.42973 0.2841 0.0
C46 C 0.54475 0.25793 0.45122 0.0
C47 C 0.49759 0.18617 0.53867 0.0
C48 C 0.48243 0.22878 0.50752 0.0
C49 C 0.50611 0.26454 0.46332 0.0
C50 C 0.53686 0.1798 0.52829 0.0
C51 C 0.56053 0.21598 0.48433 0.0
C52 C 0.57321 0.30018 0.40957 0.0
C53 C 0.60554 0.23121 0.23078 0.0
O54 O 0.79358 0.31549 0.29976 0.0
O55 O 0.82694 0.41815 0.29118 0.0
C56 C 0.68073 0.42106 0.26263 0.0
O57 O 0.81881 0.42259 0.43892 0.0
O58 O 0.74594 0.43385 0.43039 0.0
O59 O 0.73585 0.27003 0.3795 0.0
O60 O 0.70369 0.28711 0.44734 0.0
C61 C 0.82442 0.35313 0.21326 0.0
C62 C 0.76965 0.27228 0.09896 0.0
C63 C 0.76863 0.29029 0.15739 0.0
C64 C 0.8254 0.31772 0.09556 0.0
C65 C 0.88015 0.38094 0.14874 0.0
C66 C 0.87969 0.399 0.20772 0.0
C67 C 0.828 0.36861 0.28048 0.0
C68 C 0.80507 0.45369 0.46291 0.0
C69 C 0.72476 0.25978 0.4328 0.0
H70 H 0.48302 0.16191 0.57645 0.0
H71 H 0.49573 0.29855 0.43965 0.0
H72 H 0.59266 0.21328 0.47778 0.0
H73 H 0.72536 0.255 0.16007 0.0
H74 H 0.82531 0.30477 0.0491 0.0
H75 H 0.92257 0.44752 0.24987 0.0
Eu76 Eu 0.34156 0.66975 0.70685 0.0
Eu77 Eu 0.46224 0.74269 0.67659 0.0
O78 O 0.27018 0.6727 0.7051 0.0
O79 O 0.2825 0.59946 0.75157 0.0
O80 O 0.39282 0.62725 0.62623 0.0
O81 O 0.29674 0.59717 0.60351 0.0
O82 O 0.33411 0.73775 0.63319 0.0
O83 O 0.38563 0.74196 0.57997 0.0
C84 C 0.25262 0.64476 0.80204 0.0
C85 C 0.24181 0.68078 0.90944 0.0
C86 C 0.19031 0.61596 0.85815 0.0
C87 C 0.19582 0.5976 0.80445 0.0
C88 C 0.2992 0.72779 0.9094 0.0
C89 C 0.30502 0.70959 0.85579 0.0
C90 C 0.2547 0.62686 0.74088 0.0
C91 C 0.32852 0.58486 0.59023 0.0
O92 O 0.50273 0.73674 0.61941 0.0
O93 O 0.55969 0.83157 0.7004 0.0
C94 C 0.34679 0.74999 0.58115 0.0
O95 O 0.47301 0.82553 0.73152 0.0
O96 O 0.43503 0.76173 0.80027 0.0
O97 O 0.49424 0.71223 0.78114 0.0
O98 O 0.39259 0.62519 0.76228 0.0
C99 C 0.57591 0.84041 0.60183 0.0
C100 C 0.56264 0.90107 0.5087 0.0
C101 C 0.54601 0.86808 0.5587 0.0
C102 C 0.60964 0.90659 0.50328 0.0
C103 C 0.63663 0.87562 0.54209 0.0
C104 C 0.62036 0.84341 0.59239 0.0
C105 C 0.55599 0.80098 0.6506 0.0
C106 C 0.46875 0.82168 0.7892 0.0
C107 C 0.45557 0.65722 0.79623 0.0
H108 H 0.23829 0.69359 0.95251 0.0
H109 H 0.1558 0.54743 0.76419 0.0
H110 H 0.34938 0.7457 0.85532 0.0
H111 H 0.50811 0.86127 0.56169 0.0
H112 H 0.61909 0.92757 0.46129 0.0
H113 H 0.64 0.81806 0.62178 0.0
C114 C 0.11882 0.91503 0.71139 0.0
C115 C 0.09062 0.93872 0.72311 0.0
C116 C 0.08382 0.86566 0.64666 0.0
C117 C 1.02002 0.83938 0.59235 0.0
C118 C 0.98934 0.85696 0.60799 0.0
C119 C 1.02458 0.90678 0.67277 0.0
C120 C 0.98752 0.80128 0.5163 0.0
C121 C 1.02133 0.8174 0.48423 0.0
C122 C 0.98923 0.801 0.40354 0.0
C123 C 0.92608 0.73872 0.3569 0.0
C124 C 0.89041 0.73272 0.28288 0.0
C125 C 0.91676 0.78949 0.25496 0.0
H126 H 0.06805 0.90144 0.40786 0.0
C127 C 0.98283 0.84791 0.29947 0.0
C128 C 1.01903 0.85326 0.37311 0.0
H129 H 1.0042 0.89277 0.28001 0.0
H130 H 0.16973 0.93884 0.74981 0.0
H131 H 0.10811 0.85134 0.63744 0.0
H132 H 0.93982 0.83663 0.56743 0.0
H133 H 1.00195 0.92445 0.68049 0.0
H134 H 0.93459 0.76927 0.48244 0.0
H135 H 0.07436 0.85515 0.5165 0.0
H136 H 0.90262 0.69669 0.37853 0.0
H137 H 0.83971 0.68669 0.24948 0.0
C138 C 0.62835 0.18309 0.62444 0.0
C139 C 0.56089 0.14502 0.57481 0.0
C140 C 0.6511 0.16482 0.68835 0.0
C141 C 0.60663 0.10912 0.70371 0.0
C142 C 0.53982 0.06495 0.64892 0.0
C143 C 0.51716 0.08255 0.58454 0.0
C144 C 0.62966 0.10705 0.78074 0.0
C145 C 0.59762 0.10119 0.81127 0.0
C146 C 0.63065 0.12815 0.89105 0.0
C147 C 0.61727 0.16425 0.9151 0.0
C148 C 0.65798 0.20472 0.98753 0.0
C149 C 0.71253 0.20942 0.03669 0.0
H150 H 0.69028 0.09674 0.92616 0.0
C151 C 0.72078 0.16625 0.01498 0.0
C152 C 0.68016 0.12589 0.94262 0.0
H153 H 0.76262 0.16906 0.05221 0.0
H154 H 0.66317 0.23144 0.61847 0.0
H155 H 0.70299 0.19902 0.72944 0.0
H156 H 0.50468 0.02042 0.65859 0.0
H157 H 0.46488 0.05161 0.54633 0.0
H158 H 0.67964 0.12618 0.8156 0.0
H159 H 0.55066 0.08964 0.77643 0.0
H160 H 0.57859 0.16581 0.8765 0.0
H161 H 0.65081 0.23775 1.00283 0.0
C162 C 0.41001 0.80217 0.02333 0.0
C163 C 0.35294 0.79199 0.97099 0.0
C164 C 0.44758 0.84341 0.09481 0.0
C165 C 0.42803 0.87411 0.11495 0.0
C166 C 0.37567 0.87081 0.06034 0.0
C167 C 0.33882 0.83057 0.98883 0.0
C168 C 0.46026 0.90487 0.19366 0.0
C169 C 0.42732 0.8994 0.22262 0.0
C170 C 0.45613 0.91247 0.3026 0.0
C171 C 0.42204 0.85969 0.32957 0.0
C172 C 0.45512 0.86073 0.40233 0.0
C173 C 0.52231 0.91538 0.44918 0.0
H174 H 0.54741 0.01384 0.33247 0.0
C175 C 0.5531 0.97371 0.42506 0.0
C176 C 0.52062 0.97169 0.3518 0.0
H177 H 0.60472 0.01695 0.46033 0.0
H178 H 0.42189 0.77294 0.01114 0.0
H179 H 0.48882 0.84663 0.1357 0.0
H180 H 0.36114 0.89639 0.0735 0.0
H181 H 0.29528 0.824 0.94913 0.0
H182 H 0.51011 0.92388 0.2302 0.0
H183 H 0.37536 0.87311 0.18756 0.0
H184 H 0.37195 0.81394 0.2926 0.0
H185 H 0.43022 0.81482 0.41882 0.0
C186 C 0.278 0.78715 0.52378 0.0
C187 C 0.31829 0.77576 0.52351 0.0
C188 C 0.25134 0.81154 0.46937 0.0
C189 C 0.26472 0.82559 0.41346 0.0
C190 C 0.30475 0.81382 0.41321 0.0
C191 C 0.33128 0.78941 0.46751 0.0
C192 C 0.23618 0.84975 0.35288 0.0
C193 C 0.21079 0.87878 0.35514 0.0
C194 C 0.18062 0.90085 0.29342 0.0
C195 C 0.13661 0.90748 0.29054 0.0
C196 C 0.10652 0.92728 0.23341 0.0
C197 C 0.12 0.94151 0.17779 0.0
H198 H 0.23047 0.9145 0.23969 0.0
C199 C 0.16516 0.93643 0.18139 0.0
C200 C 0.19526 0.91653 0.23854 0.0
H201 H 0.17723 0.94762 0.13989 0.0
H202 H 0.26661 0.77684 0.56582 0.0
H203 H 0.21935 0.81777 0.47093 0.0
H204 H 0.31567 0.8236 0.37077 0.0
H205 H 0.36182 0.78098 0.46536 0.0
H206 H 0.23627 0.84285 0.30438 0.0
H207 H 0.21033 0.88554 0.40336 0.0
H208 H 0.12479 0.89651 0.33227 0.0
H209 H 0.0725 0.93125 0.23278 0.0
C210 C 0.32541 0.50529 0.52348 0.0
C211 C 0.29176 0.52202 0.53313 0.0
C212 C 0.29187 0.44834 0.46749 0.0
C213 C 0.22373 0.40699 0.41913 0.0
C214 C 0.18978 0.42231 0.43015 0.0
C215 C 0.22341 0.4794 0.48639 0.0
C216 C 0.1867 0.34685 0.35791 0.0
C217 C 0.21365 0.34306 0.32544 0.0
C218 C 0.17863 0.28297 0.26544 0.0
C219 C 0.21582 0.27526 0.25172 0.0
C220 C 0.18546 0.21928 0.1967 0.0
C221 C 0.11697 0.16976 0.15368 0.0
H222 H 0.07924 0.23917 0.2281 0.0
C223 C 0.0796 0.17819 0.16626 0.0
C224 C 0.10998 0.23423 0.22128 0.0
H225 H 1.02668 0.1414 0.13369 0.0
H226 H 0.37796 0.5363 0.55911 0.0
H227 H 0.31962 0.43668 0.46301 0.0
H228 H 0.13718 0.39076 0.39431 0.0
H229 H 0.19593 0.49066 0.49244 0.0
H230 H 0.13572 0.3054 0.33904 0.0
H231 H 0.26448 0.38551 0.34427 0.0
H232 H 0.26876 0.31225 0.2844 0.0
H233 H 0.21583 0.21456 0.18852 0.0
C234 C 0.71335 0.91992 0.49927 0.0
C235 C 0.66973 0.86564 0.51681 0.0
C236 C 0.72699 0.90609 0.45257 0.0
C237 C 0.69784 0.83771 0.42317 0.0
C238 C 0.66042 0.78476 0.4474 0.0
C239 C 0.64606 0.79844 0.49343 0.0
C240 C 0.70403 0.81978 0.36587 0.0
C241 C 0.70815 0.85387 0.31456 0.0
C242 C 0.71591 0.83729 0.25812 0.0
C243 C 0.75112 0.89075 0.23242 0.0
C244 C 0.76863 0.87967 0.18873 0.0
C245 C 0.75052 0.81463 0.16943 0.0
H246 H 0.66159 0.72708 0.24758 0.0
C247 C 0.70862 0.75917 0.18781 0.0
C248 C 0.69159 0.77035 0.2319 0.0
H249 H 0.69337 0.70829 0.17293 0.0
H250 H 0.73305 0.97241 0.51734 0.0
H251 H 0.7586 0.94868 0.43775 0.0
H252 H 0.63859 0.73185 0.42678 0.0
H253 H 0.61202 0.75543 0.50551 0.0
H254 H 0.70276 0.77566 0.36472 0.0
H255 H 0.70924 0.89786 0.31596 0.0
H256 H 0.76919 0.94246 0.25046 0.0
H257 H 0.80121 0.92348 0.1758 0.0
C258 C 0.76326 0.18979 0.46781 0.0
C259 C 0.73613 0.2159 0.47778 0.0
C260 C 0.77721 0.15171 0.51287 0.0
C261 C 0.76462 0.13904 0.56934 0.0
C262 C 0.73451 0.16214 0.57687 0.0
C263 C 0.72078 0.20042 0.53201 0.0
C264 C 0.78419 0.10416 0.62265 0.0
C265 C 0.83678 0.10936 0.64264 0.0
C266 C 0.86442 0.08481 0.70342 0.0
C267 C 0.93084 0.11664 0.73755 0.0
C268 C 0.96022 0.0973 0.7958 0.0
C269 C 0.92384 0.04471 0.82132 0.0
H270 H 0.77556 0.00424 0.70176 0.0
C271 C 0.85678 0.01144 0.78621 0.0
C272 C 0.8273 0.03132 0.72788 0.0
H273 H 0.82709 0.97028 0.80393 0.0
H274 H 0.77472 0.19958 0.42585 0.0
H275 H 0.7981 0.13258 0.5034 0.0
H276 H 0.72335 0.15239 0.61911 0.0
H277 H 0.69897 0.21872 0.54062 0.0
H278 H 0.75883 0.08006 0.65136 0.0
H279 H 0.8651 0.13889 0.61798 0.0
H280 H 0.96064 0.15758 0.71971 0.0
H281 H 1.01174 0.12378 0.82068 0.0
C282 C 0.85981 0.49577 0.59573 0.0
C283 C 0.85547 0.51024 0.53023 0.0
C284 C 0.89488 0.54927 0.65656 0.0
C285 C 0.92523 0.61775 0.65195 0.0
C286 C 0.92554 0.6325 0.58821 0.0
C287 C 0.89018 0.57888 0.52725 0.0
C288 C 0.95008 0.67343 0.70836 0.0
C289 C 0.92167 0.66107 0.74616 0.0
C290 C 0.93348 0.71681 0.78701 0.0
C291 C 0.92516 0.70797 0.8464 0.0
C292 C 0.9342 0.75933 0.88414 0.0
C293 C 0.95093 0.81991 0.86231 0.0
H294 H 0.95133 0.78332 0.716 0.0
C295 C 0.95671 0.82729 0.80111 0.0
C296 C 0.94796 0.77636 0.76383 0.0
H297 H 0.96838 0.87275 0.78198 0.0
H298 H 0.83286 0.44274 0.59847 0.0
H299 H 0.8956 0.53646 0.70575 0.0
H300 H 0.94903 0.68493 0.58367 0.0
H301 H 0.88658 0.59062 0.47663 0.0
H302 H 0.98666 0.72643 0.71159 0.0
H303 H 0.88527 0.60834 0.74358 0.0
H304 H 0.9125 0.66171 0.86418 0.0
H305 H 0.92935 0.75219 0.93107 0.0
C306 C 0.39726 0.18394 0.53695 0.0
C307 C 0.44776 0.23991 0.52892 0.0
C308 C 0.37487 0.19525 0.57336 0.0
C309 C 0.40121 0.26261 0.60105 0.0
C310 C 0.44723 0.31817 0.5874 0.0
C311 C 0.47087 0.30702 0.55212 0.0
C312 C 0.38176 0.27391 0.64635 0.0
C313 C 0.38968 0.2515 0.70664 0.0
C314 C 0.35761 0.24293 0.74584 0.0
C315 C 0.37873 0.22996 0.81438 0.0
C316 C 0.33942 0.20173 0.84375 0.0
C317 C 0.27809 0.18561 0.80474 0.0
H318 H 0.28105 0.24262 0.65789 0.0
C319 C 0.26008 0.20543 0.74021 0.0
C320 C 0.29955 0.23409 0.71101 0.0
H321 H 0.21235 0.19219 0.70854 0.0
H322 H 0.37725 0.13144 0.51823 0.0
H323 H 0.33807 0.15139 0.58167 0.0
H324 H 0.46751 0.37045 0.60761 0.0
H325 H 0.50989 0.35128 0.54707 0.0
H326 H 0.35885 0.29773 0.62834 0.0
H327 H 0.41729 0.23278 0.72506 0.0
H328 H 0.42319 0.23621 0.84244 0.0
H329 H 0.35375 0.18567 0.8928 0.0
C330 C 0.61031 0.45441 0.19298 0.0
C331 C 0.66662 0.46233 0.21547 0.0
C332 C 0.5947 0.49026 0.1459 0.0
C333 C 0.63458 0.5346 0.11909 0.0
C334 C 0.6923 0.5448 0.14389 0.0
C335 C 0.70807 0.50891 0.19127 0.0
C336 C 0.61721 0.57066 0.06553 0.0
C337 C 0.55474 0.54493 0.01837 0.0
C338 C 0.53272 0.57661 0.96223 0.0
C339 C 0.46514 0.54066 0.91658 0.0
C340 C 0.44061 0.56683 0.86305 0.0
C341 C 0.48291 0.62994 0.85308 0.0
H342 H 0.6279 0.67021 0.98666 0.0
C343 C 0.55072 0.6663 0.89847 0.0
C344 C 0.57549 0.64016 0.95269 0.0
H345 H 0.58478 0.71529 0.89259 0.0
H346 H 0.57773 0.42006 0.21138 0.0
H347 H 0.55138 0.48314 0.13113 0.0
H348 H 0.72462 0.5795 0.1253 0.0
H349 H 0.75225 0.51701 0.20804 0.0
H350 H 0.65671 0.61738 0.06325 0.0
H351 H 0.51608 0.49581 0.01914 0.0
H352 H 0.43074 0.49175 0.9223 0.0
H353 H 0.38813 0.53717 0.82933 0.0
C354 C 0.51018 0.88513 0.90852 0.0
C355 C 0.48993 0.88117 0.83487 0.0
C356 C 0.51739 0.93221 0.94953 0.0
C357 C 0.5027 0.97495 0.91691 0.0
C358 C 0.48551 0.97332 0.84419 0.0
C359 C 0.47959 0.92697 0.80336 0.0
C360 C 0.5066 0.02265 0.95845 0.0
C361 C 0.49517 0.00851 0.01274 0.0
C362 C 0.51122 0.06048 0.06439 0.0
C363 C 0.5307 0.05646 0.13645 0.0
C364 C 0.55523 0.10932 0.19003 0.0
C365 C 0.56237 0.16799 0.17239 0.0
H366 H 0.4966 0.12045 0.99016 0.0
C367 C 0.53943 0.17054 0.09965 0.0
C368 C 0.51297 0.11656 0.0456 0.0
H369 H 0.54479 0.21575 0.08531 0.0
H370 H 0.51859 0.85026 0.93381 0.0
H371 H 0.53369 0.93424 0.00644 0.0
H372 H 0.47464 0.00636 0.81834 0.0
H373 H 0.46313 0.92407 0.74623 0.0
H374 H 0.52073 0.07087 0.94486 0.0
H375 H 0.47976 0.95936 0.0246 0.0
H376 H 0.53182 0.01508 0.15256 0.0
H377 H 0.57405 0.10716 0.2462 0.0
C378 C 0.10367 0.59165 0.87316 0.0
C379 C 0.13411 0.56827 0.86696 0.0
C380 C 0.06764 0.56031 0.90632 0.0
C381 C 0.06135 0.50486 0.93398 0.0
C382 C 0.08592 0.47696 0.92077 0.0
C383 C 0.12246 0.50871 0.88792 0.0
C384 C 1.03155 0.47666 0.97878 0.0
C385 C 0.03499 0.51577 0.02264 0.0
C386 C 1.00574 0.48794 0.06804 0.0
C387 C 0.98382 0.51789 0.08404 0.0
C388 C 0.94841 0.48727 0.11826 0.0
C389 C 0.9352 0.42675 0.13777 0.0
H390 H 1.01645 0.40854 0.08579 0.0
C391 C 0.96259 0.40084 0.12825 0.0
C392 C 0.99767 0.43116 0.09394 0.0
H393 H 0.95293 0.35409 0.14287 0.0
H394 H 0.11187 0.63748 0.85718 0.0
H395 H 0.04682 0.58123 0.91245 0.0
H396 H 0.0806 0.43334 0.94025 0.0
H397 H 0.14598 0.49019 0.88448 0.0
H398 H 1.00851 0.42275 0.97751 0.0
H399 H 0.05814 0.5697 0.02381 0.0
H400 H 0.99051 0.56249 0.06596 0.0
H401 H 0.92706 0.50763 0.12415 0.0
loop_
_geom_bond_atom_site_label_1
_geom_bond_atom_site_label_2
_geom_bond_distance
_geom_bond_site_symmetry_2
_ccdc_geom_bond_type
Eu0 O2 2.472 . S
Eu0 O3 2.507 . S
Eu0 O5 2.336 1_554 S
Eu0 O6 2.385 1_564 S
Eu0 C14 2.835 . S
Eu0 O20 2.396 1_665 S
Eu0 O22 2.323 1_655 S
Eu1 O4 2.396 1_445 S
Eu1 O7 2.323 1_455 S
Eu1 O16 2.472 . S
Eu1 O17 2.507 . S
Eu1 O19 2.336 1_556 S
Eu1 O21 2.389 1_546 S
Eu1 C29 2.835 . S
O2 Eu0 2.472 . S
O2 C14 1.258 . S
O3 Eu0 2.507 . S
O3 C14 1.246 . S
O4 Eu1 2.396 1_665 S
O4 C15 1.216 . S
O5 Eu0 2.336 1_556 S
O5 C15 1.279 . S
O6 Eu0 2.385 1_546 S
O6 C18 1.239 . S
O7 Eu1 2.323 1_655 S
O7 C18 1.249 . S
C8 C11 1.390 . S
C8 C13 1.370 . S
C8 C14 1.489 . S
C9 C10 1.344 . S
C9 C12 1.413 . S
C9 H32 0.931 . S
C10 C9 1.344 . S
C10 C11 1.423 . S
C11 C8 1.390 . S
C11 C10 1.423 . S
C11 H33 0.930 . S
C12 C9 1.413 . S
C12 C13 1.397 . S
C13 C8 1.370 . S
C13 C12 1.397 . S
C13 H34 0.932 . S
C14 Eu0 2.835 . S
C14 O2 1.258 . S
C14 O3 1.246 . S
C14 C8 1.489 . S
C15 O4 1.216 . S
C15 O5 1.279 . S
O16 Eu1 2.472 . S
O16 C29 1.258 . S
O17 Eu1 2.507 . S
O17 C29 1.246 . S
C18 O6 1.239 . S
C18 O7 1.249 . S
O19 Eu1 2.336 1_554 S
O19 C30 1.279 . S
O20 Eu0 2.396 1_445 S
O20 C30 1.216 . S
O21 Eu1 2.389 1_564 S
O21 C31 1.239 . S
O22 Eu0 2.323 1_455 S
O22 C31 1.249 . S
C23 C25 1.370 . S
C23 C28 1.390 . S
C23 C29 1.489 . S
C24 C25 1.397 . S
C24 C26 1.413 . S
C25 C23 1.370 . S
C25 C24 1.397 . S
C25 H35 0.932 . S
C26 C24 1.413 . S
C26 C27 1.344 . S
C26 H36 0.931 . S
C27 C26 1.344 . S
C27 C28 1.423 . S
C28 C23 1.390 . S
C28 C27 1.423 . S
C28 H37 0.930 . S
C29 Eu1 2.835 . S
C29 O16 1.258 . S
C29 O17 1.246 . S
C29 C23 1.489 . S
C30 O19 1.279 . S
C30 O20 1.216 . S
C31 O21 1.239 . S
C31 O22 1.249 . S
H32 C9 0.931 . S
H33 C11 0.930 . S
H34 C13 0.932 . S
H35 C25 0.932 . S
H36 C26 0.931 . S
H37 C28 0.930 . S
Eu38 O40 2.472 . S
Eu38 O41 2.507 . S
Eu38 O43 2.336 . S
Eu38 O44 2.389 . S
Eu38 C52 2.835 . S
Eu38 O58 2.396 . S
Eu38 O60 2.323 . S
Eu39 O42 2.396 . S
Eu39 O45 2.323 . S
Eu39 O54 2.472 . S
Eu39 O55 2.507 . S
Eu39 O57 2.336 . S
Eu39 O59 2.389 . S
Eu39 C67 2.835 . S
O40 Eu38 2.472 . S
O40 C52 1.258 . S
O41 Eu38 2.507 . S
O41 C52 1.246 . S
O42 Eu39 2.396 . S
O42 C53 1.216 . S
O43 Eu38 2.336 . S
O43 C53 1.279 . S
O44 Eu38 2.389 . S
O44 C56 1.239 . S
O45 Eu39 2.323 . S
O45 C56 1.249 . S
C46 C49 1.390 . S
C46 C51 1.370 . S
C46 C52 1.489 . S
C47 C48 1.344 . S
C47 C50 1.413 . S
C47 H70 0.931 . S
C48 C47 1.344 . S
C48 C49 1.423 . S
C49 C46 1.390 . S
C49 C48 1.423 . S
C49 H71 0.930 . S
C50 C47 1.413 . S
C50 C51 1.397 . S
C51 C46 1.370 . S
C51 C50 1.397 . S
C51 H72 0.932 . S
C52 Eu38 2.835 . S
C52 O40 1.258 . S
C52 O41 1.246 . S
C52 C46 1.489 . S
C53 O42 1.216 . S
C53 O43 1.279 . S
O54 Eu39 2.472 . S
O54 C67 1.258 . S
O55 Eu39 2.507 . S
O55 C67 1.246 . S
C56 O44 1.239 . S
C56 O45 1.249 . S
O57 Eu39 2.336 . S
O57 C68 1.279 . S
O58 Eu38 2.396 . S
O58 C68 1.216 . S
O59 Eu39 2.389 . S
O59 C69 1.239 . S
O60 Eu38 2.323 . S
O60 C69 1.249 . S
C61 C63 1.370 . S
C61 C66 1.390 . S
C61 C67 1.489 . S
C62 C63 1.397 . S
C62 C64 1.413 . S
C63 C61 1.370 . S
C63 C62 1.397 . S
C63 H73 0.932 . S
C64 C62 1.413 . S
C64 C65 1.344 . S
C64 H74 0.931 . S
C65 C64 1.344 . S
C65 C66 1.423 . S
C66 C61 1.390 . S
C66 C65 1.423 . S
C66 H75 0.930 . S
C67 Eu39 2.835 . S
C67 O54 1.258 . S
C67 O55 1.246 . S
C67 C61 1.489 . S
C68 O57 1.279 . S
C68 O58 1.216 . S
C69 O59 1.239 . S
C69 O60 1.249 . S
H70 C47 0.931 . S
H71 C49 0.930 . S
H72 C51 0.932 . S
H73 C63 0.932 . S
H74 C64 0.931 . S
H75 C66 0.930 . S
Eu76 O78 2.472 . S
Eu76 O79 2.507 . S
Eu76 O81 2.336 . S
Eu76 O82 2.389 . S
Eu76 C90 2.835 . S
Eu76 O96 2.396 . S
Eu76 O98 2.323 . S
Eu77 O80 2.396 . S
Eu77 O83 2.323 . S
Eu77 O92 2.472 . S
Eu77 O93 2.507 . S
Eu77 O95 2.336 . S
Eu77 O97 2.389 . S
Eu77 C105 2.835 . S
O78 Eu76 2.472 . S
O78 C90 1.258 . S
O79 Eu76 2.507 . S
O79 C90 1.246 . S
O80 Eu77 2.396 . S
O80 C91 1.216 . S
O81 Eu76 2.336 . S
O81 C91 1.279 . S
O82 Eu76 2.389 . S
O82 C94 1.239 . S
O83 Eu77 2.323 . S
O83 C94 1.249 . S
C84 C87 1.390 . S
C84 C89 1.370 . S
C84 C90 1.489 . S
C85 C86 1.344 . S
C85 C88 1.413 . S
C85 H108 0.931 . S
C86 C85 1.344 . S
C86 C87 1.423 . S
C87 C84 1.390 . S
C87 C86 1.423 . S
C87 H109 0.930 . S
C88 C85 1.413 . S
C88 C89 1.397 . S
C89 C84 1.370 . S
C89 C88 1.397 . S
C89 H110 0.932 . S
C90 Eu76 2.835 . S
C90 O78 1.258 . S
C90 O79 1.246 . S
C90 C84 1.489 . S
C91 O80 1.216 . S
C91 O81 1.279 . S
O92 Eu77 2.472 . S
O92 C105 1.258 . S
O93 Eu77 2.507 . S
O93 C105 1.246 . S
C94 O82 1.239 . S
C94 O83 1.249 . S
O95 Eu77 2.336 . S
O95 C106 1.279 . S
O96 Eu76 2.396 . S
O96 C106 1.216 . S
O97 Eu77 2.389 . S
O97 C107 1.239 . S
O98 Eu76 2.323 . S
O98 C107 1.249 . S
C99 C101 1.370 . S
C99 C104 1.390 . S
C99 C105 1.489 . S
C100 C101 1.397 . S
C100 C102 1.413 . S
C101 C99 1.370 . S
C101 C100 1.397 . S
C101 H111 0.932 . S
C102 C100 1.413 . S
C102 C103 1.344 . S
C102 H112 0.931 . S
C103 C102 1.344 . S
C103 C104 1.423 . S
C104 C99 1.390 . S
C104 C103 1.423 . S
C104 H113 0.930 . S
C105 Eu77 2.835 . S
C105 O92 1.258 . S
C105 O93 1.246 . S
C105 C99 1.489 . S
C106 O95 1.279 . S
C106 O96 1.216 . S
C107 O97 1.239 . S
C107 O98 1.249 . S
H108 C85 0.931 . S
H109 C87 0.930 . S
H110 C89 0.932 . S
H111 C101 0.932 . S
H112 C102 0.931 . S
H113 C104 0.930 . S
C114 C115 1.386 . S
C114 C116 1.383 . S
C114 H130 0.951 . S
C115 C114 1.386 . S
C115 C119 1.383 . S
C116 C114 1.383 . S
C116 C117 1.402 . S
C116 H131 0.951 1_455 S
C117 C116 1.402 . S
C117 C118 1.375 . S
C117 C120 1.481 . S
C118 C117 1.375 . S
C118 C119 1.367 . S
C118 H132 0.951 . S
C119 C115 1.383 . S
C119 C118 1.367 . S
C119 H133 0.950 . S
C120 C117 1.481 . S
C120 C121 1.297 1_455 S
C120 H134 0.950 . S
C121 C120 1.297 1_655 S
C121 C122 1.479 1_545 S
C121 H135 0.950 . S
C122 C121 1.479 1_565 S
C122 C123 1.375 . S
C122 C128 1.383 1_655 S
C123 C122 1.375 . S
C123 C124 1.369 . S
C123 H136 0.950 . S
C124 C123 1.369 . S
C124 C125 1.392 . S
C124 H137 0.951 . S
C125 C124 1.392 . S
C125 C127 1.384 . S
H126 C128 0.960 1_545 S
C127 C125 1.384 . S
C127 C128 1.395 1_655 S
C127 H129 0.950 1_655 S
C128 C122 1.383 1_455 S
C128 H126 0.960 1_565 S
C128 C127 1.395 1_455 S
H129 C127 0.950 1_455 S
H130 C114 0.951 . S
H131 C116 0.951 1_655 S
H132 C118 0.951 . S
H133 C119 0.950 . S
H134 C120 0.950 . S
H135 C121 0.950 . S
H136 C123 0.950 . S
H137 C124 0.951 . S
C138 C139 1.386 . S
C138 C140 1.383 . S
C138 H154 0.951 . S
C139 C138 1.386 . S
C139 C143 1.383 . S
C140 C138 1.383 . S
C140 C141 1.402 . S
C140 H155 0.951 . S
C141 C140 1.402 . S
C141 C142 1.375 . S
C141 C144 1.481 . S
C142 C141 1.375 . S
C142 C143 1.367 . S
C142 H156 0.951 . S
C143 C139 1.383 . S
C143 C142 1.367 . S
C143 H157 0.950 . S
C144 C141 1.481 . S
C144 C145 1.297 . S
C144 H158 0.950 . S
C145 C144 1.297 . S
C145 C146 1.479 . S
C145 H159 0.950 . S
C146 C145 1.479 . S
C146 C147 1.375 . S
C146 C152 1.404 . S
C147 C146 1.375 . S
C147 C148 1.369 1_556 S
C147 H160 0.950 . S
C148 C147 1.369 1_554 S
C148 C149 1.392 . S
C148 H161 0.951 . S
C149 C148 1.392 . S
C149 C151 1.384 . S
H150 C152 0.949 . S
C151 C149 1.384 . S
C151 C152 1.385 1_554 S
C151 H153 0.950 . S
C152 C146 1.404 . S
C152 H150 0.949 . S
C152 C151 1.385 1_556 S
H153 C151 0.950 . S
H154 C138 0.951 . S
H155 C140 0.951 . S
H156 C142 0.951 . S
H157 C143 0.950 . S
H158 C144 0.950 . S
H159 C145 0.950 . S
H160 C147 0.950 . S
H161 C148 0.951 . S
C162 C163 1.394 . S
C162 C164 1.371 1_556 S
C162 H178 0.954 . S
C163 C162 1.394 . S
C163 C167 1.383 . S
C164 C162 1.371 1_554 S
C164 C165 1.402 . S
C164 H179 0.951 . S
C165 C164 1.402 . S
C165 C166 1.375 . S
C165 C168 1.481 . S
C166 C165 1.375 . S
C166 C167 1.367 1_554 S
C166 H180 0.951 . S
C167 C163 1.383 . S
C167 C166 1.367 1_556 S
C167 H181 0.950 . S
C168 C165 1.481 . S
C168 C169 1.297 . S
C168 H182 0.950 . S
C169 C168 1.297 . S
C169 C170 1.479 . S
C169 H183 0.950 . S
C170 C169 1.479 . S
C170 C171 1.375 . S
C170 C176 1.404 . S
C171 C170 1.375 . S
C171 C172 1.369 . S
C171 H184 0.950 . S
C172 C171 1.369 . S
C172 C173 1.392 . S
C172 H185 0.951 . S
C173 C172 1.392 . S
C173 C175 1.384 . S
H174 C176 0.949 . S
C175 C173 1.384 . S
C175 C176 1.385 . S
C175 H177 0.950 . S
C176 C170 1.404 . S
C176 H174 0.949 . S
C176 C175 1.385 . S
H177 C175 0.950 . S
H178 C162 0.954 . S
H179 C164 0.951 . S
H180 C166 0.951 . S
H181 C167 0.950 . S
H182 C168 0.950 . S
H183 C169 0.950 . S
H184 C171 0.950 . S
H185 C172 0.951 . S
C186 C187 1.386 . S
C186 C188 1.383 . S
C186 H202 0.951 . S
C187 C186 1.386 . S
C187 C191 1.383 . S
C188 C186 1.383 . S
C188 C189 1.402 . S
C188 H203 0.951 . S
C189 C188 1.402 . S
C189 C190 1.375 . S
C189 C192 1.481 . S
C190 C189 1.375 . S
C190 C191 1.367 . S
C190 H204 0.951 . S
C191 C187 1.383 . S
C191 C190 1.367 . S
C191 H205 0.950 . S
C192 C189 1.481 . S
C192 C193 1.297 . S
C192 H206 0.950 . S
C193 C192 1.297 . S
C193 C194 1.479 . S
C193 H207 0.950 . S
C194 C193 1.479 . S
C194 C195 1.375 . S
C194 C200 1.404 . S
C195 C194 1.375 . S
C195 C196 1.369 . S
C195 H208 0.950 . S
C196 C195 1.369 . S
C196 C197 1.392 . S
C196 H209 0.951 . S
C197 C196 1.392 . S
C197 C199 1.384 . S
H198 C200 0.949 . S
C199 C197 1.384 . S
C199 C200 1.385 . S
C199 H201 0.950 1_565 S
C200 C194 1.404 . S
C200 H198 0.949 . S
C200 C199 1.385 . S
H201 C199 0.950 1_545 S
H202 C186 0.951 . S
H203 C188 0.951 . S
H204 C190 0.951 . S
H205 C191 0.950 . S
H206 C192 0.950 . S
H207 C193 0.950 . S
H208 C195 0.950 . S
H209 C196 0.951 . S
C210 C211 1.386 . S
C210 C212 1.383 . S
C210 H226 0.951 . S
C211 C210 1.386 . S
C211 C215 1.383 . S
C212 C210 1.383 . S
C212 C213 1.402 . S
C212 H227 0.951 . S
C213 C212 1.402 . S
C213 C214 1.375 . S
C213 C216 1.481 . S
C214 C213 1.375 . S
C214 C215 1.367 . S
C214 H228 0.951 . S
C215 C211 1.383 . S
C215 C214 1.367 . S
C215 H229 0.950 . S
C216 C213 1.481 . S
C216 C217 1.297 . S
C216 H230 0.950 . S
C217 C216 1.297 . S
C217 C218 1.479 . S
C217 H231 0.950 . S
C218 C217 1.479 . S
C218 C219 1.375 . S
C218 C224 1.404 . S
C219 C218 1.375 . S
C219 C220 1.369 . S
C219 H232 0.950 . S
C220 C219 1.369 . S
C220 C221 1.392 . S
C220 H233 0.951 . S
C221 C220 1.392 . S
C221 C223 1.384 . S
H222 C224 0.949 . S
C223 C221 1.384 . S
C223 C224 1.385 . S
C223 H225 0.950 . S
C224 C218 1.404 . S
C224 H222 0.949 . S
C224 C223 1.385 . S
H225 C223 0.950 . S
H226 C210 0.951 . S
H227 C212 0.951 . S
H228 C214 0.951 . S
H229 C215 0.950 . S
H230 C216 0.950 . S
H231 C217 0.950 . S
H232 C219 0.950 . S
H233 C220 0.951 . S
C234 C235 1.386 . S
C234 C236 1.383 . S
C234 H250 0.951 . S
C235 C234 1.386 . S
C235 C239 1.383 . S
C236 C234 1.383 . S
C236 C237 1.402 . S
C236 H251 0.951 . S
C237 C236 1.402 . S
C237 C238 1.375 . S
C237 C240 1.481 . S
C238 C237 1.375 . S
C238 C239 1.367 . S
C238 H252 0.951 . S
C239 C235 1.383 . S
C239 C238 1.367 . S
C239 H253 0.950 . S
C240 C237 1.481 . S
C240 C241 1.297 . S
C240 H254 0.950 . S
C241 C240 1.297 . S
C241 C242 1.479 . S
C241 H255 0.950 . S
C242 C241 1.479 . S
C242 C243 1.375 . S
C242 C248 1.404 . S
C243 C242 1.375 . S
C243 C244 1.369 . S
C243 H256 0.950 . S
C244 C243 1.369 . S
C244 C245 1.392 . S
C244 H257 0.951 . S
C245 C244 1.392 . S
C245 C247 1.384 . S
H246 C248 0.949 . S
C247 C245 1.384 . S
C247 C248 1.385 . S
C247 H249 0.950 . S
C248 C242 1.404 . S
C248 H246 0.949 . S
C248 C247 1.385 . S
H249 C247 0.950 . S
H250 C234 0.951 . S
H251 C236 0.951 . S
H252 C238 0.951 . S
H253 C239 0.950 . S
H254 C240 0.950 . S
H255 C241 0.950 . S
H256 C243 0.950 . S
H257 C244 0.951 . S
C258 C259 1.386 . S
C258 C260 1.383 . S
C258 H274 0.951 . S
C259 C258 1.386 . S
C259 C263 1.383 . S
C260 C258 1.383 . S
C260 C261 1.402 . S
C260 H275 0.951 . S
C261 C260 1.402 . S
C261 C262 1.375 . S
C261 C264 1.481 . S
C262 C261 1.375 . S
C262 C263 1.367 . S
C262 H276 0.951 . S
C263 C259 1.383 . S
C263 C262 1.367 . S
C263 H277 0.950 . S
C264 C261 1.481 . S
C264 C265 1.297 . S
C264 H278 0.950 . S
C265 C264 1.297 . S
C265 C266 1.479 . S
C265 H279 0.950 . S
C266 C265 1.479 . S
C266 C267 1.375 . S
C266 C272 1.404 . S
C267 C266 1.375 . S
C267 C268 1.369 . S
C267 H280 0.950 . S
C268 C267 1.369 . S
C268 C269 1.392 . S
C268 H281 0.951 . S
C269 C268 1.392 . S
C269 C271 1.384 . S
H270 C272 0.949 . S
C271 C269 1.384 . S
C271 C272 1.385 . S
C271 H273 0.950 . S
C272 C266 1.404 . S
C272 H270 0.949 . S
C272 C271 1.385 . S
H273 C271 0.950 . S
H274 C258 0.951 . S
H275 C260 0.951 . S
H276 C262 0.951 . S
H277 C263 0.950 . S
H278 C264 0.950 . S
H279 C265 0.950 . S
H280 C267 0.950 . S
H281 C268 0.951 . S
C282 C283 1.386 . S
C282 C284 1.383 . S
C282 H298 0.951 . S
C283 C282 1.386 . S
C283 C287 1.383 . S
C284 C282 1.383 . S
C284 C285 1.402 . S
C284 H299 0.951 . S
C285 C284 1.402 . S
C285 C286 1.375 . S
C285 C288 1.481 . S
C286 C285 1.375 . S
C286 C287 1.367 . S
C286 H300 0.951 . S
C287 C283 1.383 . S
C287 C286 1.367 . S
C287 H301 0.950 . S
C288 C285 1.481 . S
C288 C289 1.297 . S
C288 H302 0.950 . S
C289 C288 1.297 . S
C289 C290 1.479 . S
C289 H303 0.950 . S
C290 C289 1.479 . S
C290 C291 1.375 . S
C290 C296 1.404 . S
C291 C290 1.375 . S
C291 C292 1.369 . S
C291 H304 0.950 . S
C292 C291 1.369 . S
C292 C293 1.392 . S
C292 H305 0.951 . S
C293 C292 1.392 . S
C293 C295 1.384 . S
H294 C296 0.949 . S
C295 C293 1.384 . S
C295 C296 1.385 . S
C295 H297 0.950 . S
C296 C290 1.404 . S
C296 H294 0.949 . S
C296 C295 1.385 . S
H297 C295 0.950 . S
H298 C282 0.951 . S
H299 C284 0.951 . S
H300 C286 0.951 . S
H301 C287 0.950 . S
H302 C288 0.950 . S
H303 C289 0.950 . S
H304 C291 0.950 . S
H305 C292 0.951 . S
C306 C307 1.386 . S
C306 C308 1.383 . S
C306 H322 0.951 . S
C307 C306 1.386 . S
C307 C311 1.383 . S
C308 C306 1.383 . S
C308 C309 1.402 . S
C308 H323 0.951 . S
C309 C308 1.402 . S
C309 C310 1.375 . S
C309 C312 1.481 . S
C310 C309 1.375 . S
C310 C311 1.367 . S
C310 H324 0.951 . S
C311 C307 1.383 . S
C311 C310 1.367 . S
C311 H325 0.950 . S
C312 C309 1.481 . S
C312 C313 1.297 . S
C312 H326 0.950 . S
C313 C312 1.297 . S
C313 C314 1.479 . S
C313 H327 0.950 . S
C314 C313 1.479 . S
C314 C315 1.375 . S
C314 C320 1.404 . S
C315 C314 1.375 . S
C315 C316 1.369 . S
C315 H328 0.950 . S
C316 C315 1.369 . S
C316 C317 1.392 . S
C316 H329 0.951 . S
C317 C316 1.392 . S
C317 C319 1.384 . S
H318 C320 0.949 . S
C319 C317 1.384 . S
C319 C320 1.385 . S
C319 H321 0.950 . S
C320 C314 1.404 . S
C320 H318 0.949 . S
C320 C319 1.385 . S
H321 C319 0.950 . S
H322 C306 0.951 . S
H323 C308 0.951 . S
H324 C310 0.951 . S
H325 C311 0.950 . S
H326 C312 0.950 . S
H327 C313 0.950 . S
H328 C315 0.950 . S
H329 C316 0.951 . S
C330 C331 1.386 . S
C330 C332 1.383 . S
C330 H346 0.951 . S
C331 C330 1.386 . S
C331 C335 1.383 . S
C332 C330 1.383 . S
C332 C333 1.402 . S
C332 H347 0.951 . S
C333 C332 1.402 . S
C333 C334 1.375 . S
C333 C336 1.481 . S
C334 C333 1.375 . S
C334 C335 1.367 . S
C334 H348 0.951 . S
C335 C331 1.383 . S
C335 C334 1.367 . S
C335 H349 0.950 . S
C336 C333 1.481 . S
C336 C337 1.297 . S
C336 H350 0.950 . S
C337 C336 1.297 . S
C337 C338 1.479 1_554 S
C337 H351 0.950 . S
C338 C337 1.479 1_556 S
C338 C339 1.375 . S
C338 C344 1.404 . S
C339 C338 1.375 . S
C339 C340 1.369 . S
C339 H352 0.950 . S
C340 C339 1.369 . S
C340 C341 1.392 . S
C340 H353 0.951 . S
C341 C340 1.392 . S
C341 C343 1.384 . S
H342 C344 0.949 . S
C343 C341 1.384 . S
C343 C344 1.385 . S
C343 H345 0.950 . S
C344 C338 1.404 . S
C344 H342 0.949 . S
C344 C343 1.385 . S
H345 C343 0.950 . S
H346 C330 0.951 . S
H347 C332 0.951 . S
H348 C334 0.951 . S
H349 C335 0.950 . S
H350 C336 0.950 . S
H351 C337 0.950 . S
H352 C339 0.950 . S
H353 C340 0.951 . S
C354 C355 1.386 . S
C354 C356 1.383 . S
C354 H370 0.951 . S
C355 C354 1.386 . S
C355 C359 1.383 . S
C356 C354 1.383 . S
C356 C357 1.402 . S
C356 H371 0.951 . S
C357 C356 1.402 . S
C357 C358 1.375 . S
C357 C360 1.481 1_565 S
C358 C357 1.375 . S
C358 C359 1.367 . S
C358 H372 0.951 1_565 S
C359 C355 1.383 . S
C359 C358 1.367 . S
C359 H373 0.950 . S
C360 C357 1.481 1_545 S
C360 C361 1.297 1_556 S
C360 H374 0.950 . S
C361 C360 1.297 1_554 S
C361 C362 1.479 . S
C361 H375 0.950 1_545 S
C362 C361 1.479 . S
C362 C363 1.375 . S
C362 C368 1.404 . S
C363 C362 1.375 . S
C363 C364 1.369 . S
C363 H376 0.950 . S
C364 C363 1.369 . S
C364 C365 1.392 . S
C364 H377 0.951 . S
C365 C364 1.392 . S
C365 C367 1.384 . S
H366 C368 0.949 . S
C367 C365 1.384 . S
C367 C368 1.385 . S
C367 H369 0.950 . S
C368 C362 1.404 . S
C368 H366 0.949 . S
C368 C367 1.385 . S
H369 C367 0.950 . S
H370 C354 0.951 . S
H371 C356 0.951 . S
H372 C358 0.951 1_545 S
H373 C359 0.950 . S
H374 C360 0.950 . S
H375 C361 0.950 1_565 S
H376 C363 0.950 . S
H377 C364 0.951 . S
C378 C379 1.386 . S
C378 C380 1.383 . S
C378 H394 0.951 . S
C379 C378 1.386 . S
C379 C383 1.383 . S
C380 C378 1.383 . S
C380 C381 1.402 . S
C380 H395 0.951 1_556 S
C381 C380 1.402 . S
C381 C382 1.375 1_455 S
C381 C384 1.481 1_455 S
C382 C381 1.375 1_655 S
C382 C383 1.367 1_655 S
C382 H396 0.951 . S
C383 C379 1.383 . S
C383 C382 1.367 1_455 S
C383 H397 0.950 . S
C384 C381 1.481 1_655 S
C384 C385 1.297 1_556 S
C384 H398 0.950 . S
C385 C384 1.297 1_554 S
C385 C386 1.479 . S
C385 H399 0.950 1_655 S
C386 C385 1.479 . S
C386 C387 1.375 . S
C386 C392 1.404 1_554 S
C387 C386 1.375 . S
C387 C388 1.369 . S
C387 H400 0.950 1_655 S
C388 C387 1.369 . S
C388 C389 1.392 . S
C388 H401 0.951 . S
C389 C388 1.392 . S
C389 C391 1.384 . S
H390 C392 0.949 . S
C391 C389 1.384 . S
C391 C392 1.385 1_554 S
C391 H393 0.950 . S
C392 C386 1.404 1_556 S
C392 H390 0.949 . S
C392 C391 1.385 1_556 S
H393 C391 0.950 . S
H394 C378 0.951 . S
H395 C380 0.951 1_554 S
H396 C382 0.951 . S
H397 C383 0.950 . S
H398 C384 0.950 . S
H399 C385 0.950 1_455 S
H400 C387 0.950 1_455 S
H401 C388 0.951 . S
C115 C24 0.705 . S
C125 C12 0.492 . S
C139 C50 0.757 . S
C149 C62 0.695 . S
C163 C88 0.569 . S
C173 C100 0.714 . S
C187 C94 2.061 . S
C197 C31 2.067 . S
C211 C91 1.226 . S
C221 C30 1.249 . S
C235 C103 2.233 . S
C245 C10 2.184 . S
C259 C69 2.070 . S
C269 C18 2.060 . S
C283 C68 1.274 . S
C293 C15 1.250 . S
C307 C48 2.245 . S
C317 C27 2.250 . S
C331 C56 2.064 . S
C341 C107 2.068 . S
C355 C106 1.277 . S
C365 C53 1.237 . S
C379 C86 2.254 . S
C389 C65 2.175 . S
