# Generated by pormake.
# Topology unj, (4)-cn, num edge types: 1
# Building blocks:
#     Node 0, Type 0, BuildingBlock: CEKHIL_clean_sbu_0, # of connection points: 4
#     Node 1, Type 0, BuildingBlock: CEKHIL_clean_sbu_0, # of connection points: 4
#     Node 2, Type 0, BuildingBlock: CEKHIL_clean_sbu_0, # of connection points: 4
#     Node 3, Type 0, BuildingBlock: CEKHIL_clean_sbu_0, # of connection points: 4
#     Node 4, Type 0, BuildingBlock: CEKHIL_clean_sbu_0, # of connection points: 4
#     Node 5, Type 0, BuildingBlock: CEKHIL_clean_sbu_0, # of connection points: 4
#     Edge 6, Type (0, 0), BuildingBlock: EZIPEK_clean_linker_0, # of connection points: 2
#     Edge 7, Type (0, 0), BuildingBlock: EZIPEK_clean_linker_0, # of connection points: 2
#     Edge 8, Type (0, 0), BuildingBlock: EZIPEK_clean_linker_0, # of connection points: 2
#     Edge 9, Type (0, 0), BuildingBlock: EZIPEK_clean_linker_0, # of connection points: 2
#     Edge 10, Type (0, 0), BuildingBlock: EZIPEK_clean_linker_0, # of connection points: 2
#     Edge 11, Type (0, 0), BuildingBlock: EZIPEK_clean_linker_0, # of connection points: 2
#     Edge 12, Type (0, 0), BuildingBlock: EZIPEK_clean_linker_0, # of connection points: 2
#     Edge 13, Type (0, 0), BuildingBlock: EZIPEK_clean_linker_0, # of connection points: 2
#     Edge 14, Type (0, 0), BuildingBlock: EZIPEK_clean_linker_0, # of connection points: 2
#     Edge 15, Type (0, 0), BuildingBlock: EZIPEK_clean_linker_0, # of connection points: 2
#     Edge 16, Type (0, 0), BuildingBlock: EZIPEK_clean_linker_0, # of connection points: 2
#     Edge 17, Type (0, 0), BuildingBlock: EZIPEK_clean_linker_0, # of connection points: 2
# Relax obj value: 0.027
# Max RMSD: 0.079
# Mean RMSD: 0.079
data_MOF--net-unj--node1-CEKHIL_clean_sbu_0--edge1-EZIPEK_clean_linker_0
_symmetry_space_group_name_H-M    P1
_symmetry_Int_Tables_number       1
_symmetry_cell_setting            triclinic
loop_
_symmetry_equiv_pos_as_xyz
'x, y, z'
_cell_length_a     23.721741
_cell_length_b     23.711498
_cell_length_c     26.461861
_cell_angle_alpha  90.167028
_cell_angle_beta   90.104969
_cell_angle_gamma 120.43557
loop_
_atom_site_label
_atom_site_type_symbol
_atom_site_fract_x
_atom_site_fract_y
_atom_site_fract_z
_atom_type_partial_charge
Co0 Co 0.51529 0.27051 0.58512 0.0
O1 O 0.52995 0.35217 0.61419 0.0
O2 O 0.43793 0.25727 0.62061 0.0
C3 C 0.55778 0.31443 0.5086 0.0
O4 O 0.4775 0.17665 0.5592 0.0
Co5 Co 0.62465 0.24812 0.54504 0.0
O6 O 0.55476 0.15738 0.52911 0.0
C7 C 0.60961 0.25786 0.6543 0.0
C8 C 0.46975 0.31977 0.62949 0.0
C9 C 0.49543 0.13873 0.53908 0.0
O10 O 0.55254 0.25116 0.64753 0.0
O11 O 0.64897 0.26741 0.61801 0.0
O12 O 0.49774 0.2967 0.51948 0.0
O13 O 0.59091 0.30747 0.5442 0.0
Co14 Co 0.25964 0.50187 0.7509 0.0
O15 O 0.19469 0.51856 0.78044 0.0
O16 O 0.19404 0.42541 0.78725 0.0
C17 C 0.25664 0.54407 0.67422 0.0
O18 O 0.31479 0.46396 0.72385 0.0
Co19 Co 0.3919 0.61295 0.70882 0.0
O20 O 0.40418 0.54118 0.68343 0.0
C21 C 0.3695 0.59607 0.81916 0.0
C22 C 0.16495 0.45845 0.79591 0.0
C23 C 0.36707 0.48238 0.69765 0.0
O24 O 0.3182 0.53911 0.81254 0.0
O25 O 0.3997 0.63532 0.78271 0.0
O26 O 0.21378 0.48443 0.68618 0.0
O27 O 0.29838 0.57638 0.70947 0.0
Co28 Co 0.77167 0.25349 0.92207 0.0
O29 O 0.68979 0.18895 0.95211 0.0
O30 O 0.78288 0.18912 0.95852 0.0
C31 C 0.7255 0.25023 0.84598 0.0
O32 O 0.86524 0.3074 0.89442 0.0
Co33 Co 0.79691 0.38617 0.87881 0.0
O34 O 0.88011 0.397 0.85352 0.0
C35 C 0.7905 0.36445 0.98925 0.0
C36 C 0.72045 0.1596 0.96722 0.0
C37 C 0.90044 0.35922 0.86794 0.0
O38 O 0.79346 0.31194 0.98359 0.0
O39 O 0.78531 0.39653 0.95251 0.0
O40 O 0.74098 0.20663 0.85783 0.0
O41 O 0.73665 0.29274 0.88087 0.0
Co42 Co 0.53312 0.76513 0.0875 0.0
O43 O 0.5182 0.68563 0.12017 0.0
O44 O 0.60989 0.78129 0.12546 0.0
C45 C 0.49152 0.71548 0.01152 0.0
O46 O 0.57084 0.85742 0.05859 0.0
Co47 Co 0.42379 0.78388 0.04029 0.0
O48 O 0.49547 0.86949 0.01613 0.0
C49 C 0.43772 0.78263 0.1514 0.0
C50 C 0.57833 0.71932 0.13591 0.0
C51 C 0.55386 0.89144 0.03148 0.0
O52 O 0.49437 0.78774 0.14693 0.0
O53 O 0.39974 0.77293 0.11378 0.0
O54 O 0.55122 0.73369 0.02449 0.0
O55 O 0.45878 0.72601 0.04528 0.0
Co56 Co 0.78744 0.53348 0.25151 0.0
O57 O 0.85357 0.51703 0.27867 0.0
O58 O 0.85376 0.60997 0.28728 0.0
C59 C 0.78621 0.49098 0.17443 0.0
O60 O 0.73204 0.57244 0.22743 0.0
Co61 Co 0.65262 0.42561 0.21277 0.0
O62 O 0.63449 0.49613 0.19616 0.0
C63 C 0.68041 0.4415 0.32199 0.0
C64 C 0.88326 0.57711 0.29475 0.0
C65 C 0.67625 0.55519 0.20689 0.0
O66 O 0.73322 0.49681 0.31487 0.0
O67 O 0.64565 0.40344 0.28612 0.0
O68 O 0.82995 0.55099 0.1855 0.0
O69 O 0.74602 0.45791 0.21014 0.0
Co70 Co 0.27663 0.78177 0.42096 0.0
O71 O 0.35768 0.84608 0.45303 0.0
O72 O 0.26351 0.84357 0.45985 0.0
C73 C 0.32359 0.78916 0.34437 0.0
O74 O 0.1835 0.72761 0.3925 0.0
Co75 Co 0.2542 0.65221 0.37245 0.0
O76 O 0.16993 0.64063 0.3479 0.0
C77 C 0.25918 0.66793 0.48373 0.0
C78 C 0.32578 0.87359 0.46947 0.0
C79 C 0.14895 0.6772 0.36418 0.0
O80 O 0.25459 0.71983 0.48003 0.0
O81 O 0.26711 0.63931 0.44559 0.0
O82 O 0.3073 0.83163 0.35804 0.0
O83 O 0.31293 0.74558 0.37788 0.0
C84 C 0.43725 0.01743 0.55458 0.0
C85 C 0.4449 0.0708 0.52509 0.0
C86 C 0.36913 0.99448 0.46133 0.0
C87 C 0.36098 0.94097 0.49107 0.0
N88 N 0.37334 0.90069 0.57099 0.0
N89 N 0.40857 0.11086 0.45611 0.0
C90 C 0.39108 0.95226 0.53923 0.0
C91 C 0.40745 0.05946 0.4804 0.0
N92 N 0.47472 0.0291 0.59695 0.0
N93 N 0.3431 0.98356 0.41369 0.0
H94 H 0.43761 0.1593 0.46792 0.0
H95 H 0.37694 0.1053 0.42668 0.0
H96 H 0.31324 0.93698 0.39864 0.0
H97 H 0.35438 0.02059 0.38765 0.0
H98 H 0.47725 0.99262 0.61683 0.0
H99 H 0.50616 0.07611 0.61087 0.0
H100 H 0.3891 0.90554 0.60833 0.0
H101 H 0.3371 0.85327 0.56138 0.0
C102 C 0.40362 0.37397 0.61414 0.0
C103 C 0.4362 0.35427 0.6488 0.0
C104 C 0.41835 0.41405 0.71709 0.0
C105 C 0.38556 0.43344 0.68241 0.0
N106 N 0.33677 0.42343 0.60067 0.0
N107 N 0.46297 0.34351 0.73453 0.0
C108 C 0.37509 0.4107 0.63173 0.0
C109 C 0.43997 0.37065 0.70077 0.0
N110 N 0.40171 0.35926 0.56395 0.0
N111 N 0.43105 0.43925 0.76505 0.0
H112 H 0.47812 0.311 0.72352 0.0
H113 H 0.46187 0.34848 0.77354 0.0
H114 H 0.41454 0.46972 0.77857 0.0
H115 H 0.46111 0.43333 0.79053 0.0
H116 H 0.38691 0.37935 0.53563 0.0
H117 H 0.41795 0.3289 0.55003 0.0
H118 H 0.32067 0.40235 0.56513 0.0
H119 H 0.3168 0.45172 0.61202 0.0
C120 C 0.97901 0.37943 0.79806 0.0
C121 C 0.96671 0.37516 0.85068 0.0
C122 C 0.0831 0.41399 0.86737 0.0
C123 C 0.09646 0.42659 0.81504 0.0
N124 N 0.0575 0.42689 0.73061 0.0
N125 N 1.00727 0.39272 0.93631 0.0
C126 C 0.04446 0.41066 0.78042 0.0
C127 C 1.01869 0.39279 0.8857 0.0
N128 N 0.92769 0.35182 0.76478 0.0
N129 N 0.13206 0.42267 0.89951 0.0
H130 H 0.96098 0.37722 0.95103 0.0
H131 H 0.0441 0.41199 0.96355 0.0
H132 H 0.17994 0.44013 0.88747 0.0
H133 H 0.12445 0.40826 0.93719 0.0
H134 H 0.93295 0.34649 0.72629 0.0
H135 H 0.87902 0.32832 0.77629 0.0
H136 H 1.02301 0.42472 0.70505 0.0
H137 H 0.10397 0.44703 0.71531 0.0
C138 C 0.5988 1.01218 0.04432 0.0
C139 C 0.60306 0.96088 0.02007 0.0
C140 C 0.68657 0.04019 0.96274 0.0
C141 C 0.68399 0.09198 0.98792 0.0
N142 N 0.64798 0.1291 0.05895 0.0
N143 N 0.6621 0.9278 0.96522 0.0
C144 C 0.643 0.07845 0.03059 0.0
C145 C 0.65084 0.97558 0.98238 0.0
N146 N 0.55208 0.99742 0.08027 0.0
N147 N 0.71932 0.0515 0.91799 0.0
H148 H 0.63654 0.88001 0.97858 0.0
H149 H 0.70091 0.93696 0.94162 0.0
H150 H 0.74449 0.09726 0.90097 0.0
H151 H 0.7164 1.01431 0.8951 0.0
H152 H 0.54074 0.03125 0.09491 0.0
H153 H 0.52227 0.95015 0.09392 0.0
H154 H 0.62427 0.12297 0.09329 0.0
H155 H 0.68067 0.17803 0.05041 0.0
C156 C 0.68457 0.64127 0.14759 0.0
C157 C 0.65991 0.60593 0.19317 0.0
C158 C 0.59509 0.65897 0.20691 0.0
C159 C 0.61197 0.68641 0.15793 0.0
N160 N 0.67038 0.7016 0.07981 0.0
N161 N 0.59 0.57834 0.26595 0.0
C162 C 0.65684 0.67781 0.12801 0.0
C163 C 0.61484 0.61422 0.22291 0.0
N164 N 0.73432 0.63962 0.12289 0.0
N165 N 0.56223 0.67774 0.23867 0.0
H166 H 0.60565 0.54745 0.27995 0.0
H167 H 0.55146 0.57634 0.28622 0.0
H168 H 0.55057 0.71306 0.22846 0.0
H169 H 0.55281 0.66395 0.27642 0.0
H170 H 0.75934 0.66969 0.09251 0.0
H171 H 0.75444 0.61186 0.13529 0.0
H172 H 0.69571 0.68982 0.0538 0.0
H173 H 0.65277 0.7301 0.06438 0.0
C174 C 0.06688 0.69216 0.31456 0.0
C175 C 0.08007 0.65778 0.35203 0.0
C176 C 0.96216 0.57914 0.35945 0.0
C177 C 0.95026 0.60791 0.31685 0.0
N178 N 0.993 0.68661 0.24895 0.0
N179 N 0.04116 0.56784 0.41032 0.0
C180 C 1.00292 0.66357 0.29341 0.0
C181 C 0.02783 0.60108 0.37463 0.0
N182 N 0.11547 0.75219 0.29911 0.0
N183 N 0.91052 0.53236 0.3864 0.0
H184 H 0.08796 0.58503 0.42497 0.0
H185 H 1.00662 0.52189 0.42375 0.0
H186 H 0.86195 0.51617 0.37684 0.0
H187 H 0.91548 0.51381 0.42065 0.0
H188 H 0.10746 0.78263 0.27562 0.0
H189 H 0.16268 0.77437 0.31388 0.0
H190 H 0.03087 0.72202 0.22718 0.0
H191 H 0.94764 0.66633 0.23107 0.0
C192 C 0.60037 0.41248 0.45143 0.0
C193 C 0.58977 0.34883 0.46109 0.0
C194 C 0.65598 0.35781 0.38745 0.0
C195 C 0.65894 0.41691 0.37383 0.0
N196 N 0.62957 0.4988 0.38999 0.0
N197 N 0.59575 0.25572 0.43209 0.0
C198 C 0.63035 0.44419 0.40522 0.0
C199 C 0.61483 0.32024 0.4276 0.0
N200 N 0.58353 0.44333 0.48689 0.0
N201 N 0.6929 0.33779 0.36199 0.0
H202 H 0.56089 0.22572 0.45827 0.0
H203 H 0.60783 0.2305 0.40609 0.0
H204 H 0.72442 0.36498 0.33274 0.0
H205 H 0.69738 0.29817 0.37328 0.0
H206 H 0.59636 0.49222 0.48434 0.0
H207 H 0.56103 0.42163 0.52092 0.0
H208 H 0.60257 0.51644 0.40803 0.0
H209 H 0.65304 0.52443 0.35735 0.0
C210 C 0.29045 0.6752 0.57609 0.0
C211 C 0.25376 0.63744 0.53397 0.0
C212 C 0.22413 0.53769 0.5815 0.0
C213 C 0.25371 0.5755 0.62594 0.0
N214 N 0.2916 0.68094 0.66677 0.0
N215 N 0.16846 0.53212 0.50349 0.0
C216 C 0.28008 0.64455 0.62382 0.0
C217 C 0.21504 0.56846 0.53886 0.0
N218 N 0.3373 0.73938 0.57069 0.0
N219 N 0.20753 0.47359 0.57818 0.0
H220 H 0.15792 0.55309 0.47302 0.0
H221 H 0.13532 0.4823 0.50795 0.0
H222 H 0.21731 0.44915 0.60622 0.0
H223 H 0.19121 0.44687 0.54461 0.0
H224 H 0.36862 0.76681 0.60016 0.0
H225 H 0.34977 0.76272 0.53576 0.0
H226 H 0.30715 0.73071 0.6658 0.0
H227 H 0.27622 0.66035 0.7024 0.0
C228 C 0.70229 0.22184 0.75281 0.0
C229 C 0.69162 0.2482 0.79767 0.0
C230 C 0.62636 0.28266 0.74841 0.0
C231 C 0.63117 0.24984 0.70531 0.0
N232 N 0.65454 0.16806 0.67357 0.0
N233 N 0.62114 0.28077 0.83931 0.0
C234 C 0.66294 0.21289 0.70979 0.0
C235 C 0.64704 0.27194 0.79602 0.0
N236 N 0.75178 0.20842 0.7496 0.0
N237 N 0.60482 0.32602 0.74418 0.0
H238 H 0.62791 0.26599 0.87472 0.0
H239 H 0.58523 0.29379 0.83896 0.0
H240 H 0.5924 0.338 0.70971 0.0
H241 H 0.6061 0.35506 0.77434 0.0
H242 H 0.76383 0.19433 0.71583 0.0
H243 H 0.78594 0.21904 0.77817 0.0
H244 H 0.67274 0.13644 0.67753 0.0
H245 H 0.62284 0.15703 0.64293 0.0
C246 C 0.36063 0.61128 0.91362 0.0
C247 C 0.39895 0.61791 0.8705 0.0
C248 C 0.49806 0.69129 0.91854 0.0
C249 C 0.46055 0.67988 0.96319 0.0
N250 N 0.35768 0.60653 0.00462 0.0
N251 N 0.50538 0.64414 0.83965 0.0
C252 C 0.39219 0.63315 0.96132 0.0
C253 C 0.46809 0.65143 0.87545 0.0
N254 N 0.29487 0.58685 0.90942 0.0
N255 N 0.56099 0.74199 0.91552 0.0
H256 H 0.48501 0.61183 0.80921 0.0
H257 H 0.55564 0.66378 0.84388 0.0
H258 H 0.58405 0.77625 0.94415 0.0
H259 H 0.58745 0.75461 0.88191 0.0
H260 H 0.26662 0.5869 0.93955 0.0
H261 H 0.26977 0.57298 0.87513 0.0
H262 H 0.30891 0.56898 0.0043 0.0
H263 H 0.37966 0.61473 0.0401 0.0
C264 C 0.84438 0.4187 0.07166 0.0
C265 C 0.78789 0.38806 0.0405 0.0
C266 C 0.73433 0.43129 0.09387 0.0
C267 C 0.78863 0.45826 0.12723 0.0
N268 N 0.89048 0.46699 0.15328 0.0
N269 N 0.6736 0.35108 0.02879 0.0
C270 C 0.8424 0.44893 0.11774 0.0
C271 C 0.73103 0.38974 0.05399 0.0
N272 N 0.90056 0.42117 0.05636 0.0
N273 N 0.68783 0.44864 0.09834 0.0
H274 H 0.66935 0.31919 0.99979 0.0
H275 H 0.62907 0.34566 0.04009 0.0
H276 H 0.69203 0.48328 0.12457 0.0
H277 H 0.65003 0.43516 0.07235 0.0
H278 H 0.94548 0.44948 0.07437 0.0
H279 H 0.90315 0.3981 0.02357 0.0
H280 H 0.92701 0.45502 0.1508 0.0
H281 H 0.89102 0.48934 0.18739 0.0
C282 C 0.3998 0.76699 0.29247 0.0
C283 C 0.35683 0.79246 0.29545 0.0
C284 C 0.38362 0.82726 0.20732 0.0
C285 C 0.41426 0.78935 0.202 0.0
N286 N 0.43512 0.7085 0.23891 0.0
N287 N 0.29776 0.83491 0.2491 0.0
C288 C 0.41787 0.755 0.24437 0.0
C289 C 0.34598 0.81963 0.25113 0.0
N290 N 0.42655 0.75736 0.33497 0.0
N291 N 0.39139 0.8717 0.17123 0.0
H292 H 0.26513 0.82576 0.27832 0.0
H293 H 0.28509 0.84928 0.2158 0.0
H294 H 0.42121 0.88123 0.13975 0.0
H295 H 0.37447 0.90431 0.17582 0.0
H296 H 0.46116 0.74262 0.33343 0.0
H297 H 0.42201 0.77319 0.37069 0.0
H298 H 0.4329 0.67875 0.26872 0.0
H299 H 0.44407 0.69455 0.20384 0.0
loop_
_geom_bond_atom_site_label_1
_geom_bond_atom_site_label_2
_geom_bond_distance
_geom_bond_site_symmetry_2
_ccdc_geom_bond_type
Co0 O1 2.216 . S
Co0 O2 2.091 . S
Co0 O4 2.004 . S
Co0 O10 2.021 . S
Co0 O12 2.137 . S
Co0 O13 2.244 . S
O1 Co0 2.216 . S
O1 C8 1.247 . S
O2 Co0 2.091 . S
O2 C8 1.261 . S
C3 O12 1.247 . S
C3 O13 1.272 . S
O4 Co0 2.004 . S
O4 C9 1.259 . S
Co5 O6 2.061 . S
Co5 O11 2.052 . S
Co5 O13 2.135 . S
O6 Co5 2.061 . S
O6 C9 1.235 . S
C7 O10 1.238 . S
C7 O11 1.241 . S
C8 O1 1.247 . S
C8 O2 1.261 . S
C9 O4 1.259 . S
C9 O6 1.235 . S
O10 Co0 2.021 . S
O10 C7 1.238 . S
O11 Co5 2.052 . S
O11 C7 1.241 . S
O12 Co0 2.137 . S
O12 C3 1.247 . S
O13 Co0 2.244 . S
O13 C3 1.272 . S
O13 Co5 2.135 . S
Co14 O15 2.216 . S
Co14 O16 2.091 . S
Co14 O18 2.004 . S
Co14 O24 2.021 . S
Co14 O26 2.137 . S
Co14 O27 2.244 . S
O15 Co14 2.216 . S
O15 C22 1.247 . S
O16 Co14 2.091 . S
O16 C22 1.261 . S
C17 O26 1.247 . S
C17 O27 1.272 . S
O18 Co14 2.004 . S
O18 C23 1.259 . S
Co19 O20 2.061 . S
Co19 O25 2.052 . S
Co19 O27 2.135 . S
O20 Co19 2.061 . S
O20 C23 1.235 . S
C21 O24 1.238 . S
C21 O25 1.241 . S
C22 O15 1.247 . S
C22 O16 1.261 . S
C23 O18 1.259 . S
C23 O20 1.235 . S
O24 Co14 2.021 . S
O24 C21 1.238 . S
O25 Co19 2.052 . S
O25 C21 1.241 . S
O26 Co14 2.137 . S
O26 C17 1.247 . S
O27 Co14 2.244 . S
O27 C17 1.272 . S
O27 Co19 2.135 . S
Co28 O29 2.216 . S
Co28 O30 2.091 . S
Co28 O32 2.004 . S
Co28 O38 2.021 . S
Co28 O40 2.137 . S
Co28 O41 2.244 . S
O29 Co28 2.216 . S
O29 C36 1.247 . S
O30 Co28 2.091 . S
O30 C36 1.261 . S
C31 O40 1.247 . S
C31 O41 1.272 . S
O32 Co28 2.004 . S
O32 C37 1.259 . S
Co33 O34 2.061 . S
Co33 O39 2.052 . S
Co33 O41 2.135 . S
O34 Co33 2.061 . S
O34 C37 1.235 . S
C35 O38 1.238 . S
C35 O39 1.241 . S
C36 O29 1.247 . S
C36 O30 1.261 . S
C37 O32 1.259 . S
C37 O34 1.235 . S
O38 Co28 2.021 . S
O38 C35 1.238 . S
O39 Co33 2.052 . S
O39 C35 1.241 . S
O40 Co28 2.137 . S
O40 C31 1.247 . S
O41 Co28 2.244 . S
O41 C31 1.272 . S
O41 Co33 2.135 . S
Co42 O43 2.216 . S
Co42 O44 2.091 . S
Co42 O46 2.004 . S
Co42 O52 2.021 . S
Co42 O54 2.137 . S
Co42 O55 2.244 . S
O43 Co42 2.216 . S
O43 C50 1.247 . S
O44 Co42 2.091 . S
O44 C50 1.261 . S
C45 O54 1.247 . S
C45 O55 1.272 . S
O46 Co42 2.004 . S
O46 C51 1.259 . S
Co47 O48 2.061 . S
Co47 O53 2.052 . S
Co47 O55 2.135 . S
O48 Co47 2.061 . S
O48 C51 1.235 . S
C49 O52 1.238 . S
C49 O53 1.241 . S
C50 O43 1.247 . S
C50 O44 1.261 . S
C51 O46 1.259 . S
C51 O48 1.235 . S
O52 Co42 2.021 . S
O52 C49 1.238 . S
O53 Co47 2.052 . S
O53 C49 1.241 . S
O54 Co42 2.137 . S
O54 C45 1.247 . S
O55 Co42 2.244 . S
O55 C45 1.272 . S
O55 Co47 2.135 . S
Co56 O57 2.216 . S
Co56 O58 2.091 . S
Co56 O60 2.004 . S
Co56 O66 2.021 . S
Co56 O68 2.137 . S
Co56 O69 2.244 . S
O57 Co56 2.216 . S
O57 C64 1.247 . S
O58 Co56 2.091 . S
O58 C64 1.261 . S
C59 O68 1.247 . S
C59 O69 1.272 . S
O60 Co56 2.004 . S
O60 C65 1.259 . S
Co61 O62 2.061 . S
Co61 O67 2.052 . S
Co61 O69 2.135 . S
O62 Co61 2.061 . S
O62 C65 1.235 . S
C63 O66 1.238 . S
C63 O67 1.241 . S
C64 O57 1.247 . S
C64 O58 1.261 . S
C65 O60 1.259 . S
C65 O62 1.235 . S
O66 Co56 2.021 . S
O66 C63 1.238 . S
O67 Co61 2.052 . S
O67 C63 1.241 . S
O68 Co56 2.137 . S
O68 C59 1.247 . S
O69 Co56 2.244 . S
O69 C59 1.272 . S
O69 Co61 2.135 . S
Co70 O71 2.216 . S
Co70 O72 2.091 . S
Co70 O74 2.004 . S
Co70 O80 2.021 . S
Co70 O82 2.137 . S
Co70 O83 2.244 . S
O71 Co70 2.216 . S
O71 C78 1.247 . S
O72 Co70 2.091 . S
O72 C78 1.261 . S
C73 O82 1.247 . S
C73 O83 1.272 . S
O74 Co70 2.004 . S
O74 C79 1.259 . S
Co75 O76 2.061 . S
Co75 O81 2.052 . S
Co75 O83 2.135 . S
O76 Co75 2.061 . S
O76 C79 1.235 . S
C77 O80 1.238 . S
C77 O81 1.241 . S
C78 O71 1.247 . S
C78 O72 1.261 . S
C79 O74 1.259 . S
C79 O76 1.235 . S
O80 Co70 2.021 . S
O80 C77 1.238 . S
O81 Co75 2.052 . S
O81 C77 1.241 . S
O82 Co70 2.137 . S
O82 C73 1.247 . S
O83 Co70 2.244 . S
O83 C73 1.272 . S
O83 Co75 2.135 . S
C84 C85 1.363 . S
C84 C90 1.379 1_545 S
C84 N92 1.356 . S
C85 C84 1.363 . S
C85 C91 1.363 . S
C86 C87 1.363 . S
C86 C91 1.379 1_565 S
C86 N93 1.356 . S
C87 C86 1.363 . S
C87 C90 1.363 . S
N88 C90 1.356 . S
N88 H100 0.984 . S
N88 H101 0.985 . S
N89 C91 1.356 . S
N89 H94 0.984 . S
N89 H95 0.985 . S
C90 C84 1.379 1_565 S
C90 C87 1.363 . S
C90 N88 1.356 . S
C91 C85 1.363 . S
C91 C86 1.379 1_545 S
C91 N89 1.356 . S
N92 C84 1.356 . S
N92 H98 0.984 . S
N92 H99 0.984 . S
N93 C86 1.356 . S
N93 H96 0.984 . S
N93 H97 0.985 . S
H94 N89 0.984 . S
H95 N89 0.985 . S
H96 N93 0.984 . S
H97 N93 0.985 . S
H98 N92 0.984 . S
H99 N92 0.984 . S
H100 N88 0.984 . S
H101 N88 0.985 . S
C102 C103 1.363 . S
C102 C108 1.379 . S
C102 N110 1.356 . S
C103 C102 1.363 . S
C103 C109 1.363 . S
C104 C105 1.363 . S
C104 C109 1.379 . S
C104 N111 1.356 . S
C105 C104 1.363 . S
C105 C108 1.363 . S
N106 C108 1.356 . S
N106 H118 0.984 . S
N106 H119 0.985 . S
N107 C109 1.356 . S
N107 H112 0.984 . S
N107 H113 0.985 . S
C108 C102 1.379 . S
C108 C105 1.363 . S
C108 N106 1.356 . S
C109 C103 1.363 . S
C109 C104 1.379 . S
C109 N107 1.356 . S
N110 C102 1.356 . S
N110 H116 0.984 . S
N110 H117 0.984 . S
N111 C104 1.356 . S
N111 H114 0.984 . S
N111 H115 0.985 . S
H112 N107 0.984 . S
H113 N107 0.985 . S
H114 N111 0.984 . S
H115 N111 0.985 . S
H116 N110 0.984 . S
H117 N110 0.984 . S
H118 N106 0.984 . S
H119 N106 0.985 . S
C120 C121 1.363 . S
C120 C126 1.379 1_655 S
C120 N128 1.356 . S
C121 C120 1.363 . S
C121 C127 1.363 . S
C122 C123 1.363 . S
C122 C127 1.379 1_455 S
C122 N129 1.356 . S
C123 C122 1.363 . S
C123 C126 1.363 . S
N124 C126 1.356 . S
N124 H136 0.975 1_455 S
N124 H137 0.985 . S
N125 C127 1.356 . S
N125 H130 0.984 . S
N125 H131 0.985 . S
C126 C120 1.379 1_455 S
C126 C123 1.363 . S
C126 N124 1.356 . S
C127 C121 1.363 . S
C127 C122 1.379 1_655 S
C127 N125 1.356 . S
N128 C120 1.356 . S
N128 H134 0.984 . S
N128 H135 0.984 . S
N129 C122 1.356 . S
N129 H132 0.984 . S
N129 H133 0.985 . S
H130 N125 0.984 . S
H131 N125 0.985 . S
H132 N129 0.984 . S
H133 N129 0.985 . S
H134 N128 0.984 . S
H135 N128 0.984 . S
H136 N124 0.975 1_655 S
H137 N124 0.985 . S
C138 C139 1.363 . S
C138 C144 1.379 1_565 S
C138 N146 1.356 . S
C139 C138 1.363 . S
C139 C145 1.363 1_554 S
C140 C141 1.363 . S
C140 C145 1.379 1_545 S
C140 N147 1.356 . S
C141 C140 1.363 . S
C141 C144 1.363 1_556 S
N142 C144 1.356 . S
N142 H154 0.984 . S
N142 H155 0.985 . S
N143 C145 1.356 . S
N143 H148 0.984 . S
N143 H149 0.985 . S
C144 C138 1.379 1_545 S
C144 C141 1.363 1_554 S
C144 N142 1.356 . S
C145 C139 1.363 1_556 S
C145 C140 1.379 1_565 S
C145 N143 1.356 . S
N146 C138 1.356 . S
N146 H152 0.984 . S
N146 H153 0.984 . S
N147 C140 1.356 . S
N147 H150 0.984 . S
N147 H151 0.985 . S
H148 N143 0.984 . S
H149 N143 0.985 . S
H150 N147 0.984 . S
H151 N147 0.985 . S
H152 N146 0.984 . S
H153 N146 0.984 . S
H154 N142 0.984 . S
H155 N142 0.985 . S
C156 C157 1.363 . S
C156 C162 1.379 . S
C156 N164 1.356 . S
C157 C156 1.363 . S
C157 C163 1.363 . S
C158 C159 1.363 . S
C158 C163 1.379 . S
C158 N165 1.356 . S
C159 C158 1.363 . S
C159 C162 1.363 . S
N160 C162 1.356 . S
N160 H172 0.984 . S
N160 H173 0.985 . S
N161 C163 1.356 . S
N161 H166 0.984 . S
N161 H167 0.985 . S
C162 C156 1.379 . S
C162 C159 1.363 . S
C162 N160 1.356 . S
C163 C157 1.363 . S
C163 C158 1.379 . S
C163 N161 1.356 . S
N164 C156 1.356 . S
N164 H170 0.984 . S
N164 H171 0.984 . S
N165 C158 1.356 . S
N165 H168 0.984 . S
N165 H169 0.985 . S
H166 N161 0.984 . S
H167 N161 0.985 . S
H168 N165 0.984 . S
H169 N165 0.985 . S
H170 N164 0.984 . S
H171 N164 0.984 . S
H172 N160 0.984 . S
H173 N160 0.985 . S
C174 C175 1.363 . S
C174 C180 1.379 1_455 S
C174 N182 1.356 . S
C175 C174 1.363 . S
C175 C181 1.363 . S
C176 C177 1.363 . S
C176 C181 1.379 1_655 S
C176 N183 1.356 . S
C177 C176 1.363 . S
C177 C180 1.363 . S
N178 C180 1.356 . S
N178 H190 0.984 . S
N178 H191 0.985 . S
N179 C181 1.356 . S
N179 H184 0.984 . S
N179 H185 0.985 . S
C180 C174 1.379 1_655 S
C180 C177 1.363 . S
C180 N178 1.356 . S
C181 C175 1.363 . S
C181 C176 1.379 1_455 S
C181 N179 1.356 . S
N182 C174 1.356 . S
N182 H188 0.984 . S
N182 H189 0.984 . S
N183 C176 1.356 . S
N183 H186 0.984 . S
N183 H187 0.985 . S
H184 N179 0.984 . S
H185 N179 0.985 . S
H186 N183 0.984 . S
H187 N183 0.985 . S
H188 N182 0.984 . S
H189 N182 0.984 . S
H190 N178 0.984 . S
H191 N178 0.985 . S
C192 C193 1.363 . S
C192 C198 1.379 . S
C192 N200 1.356 . S
C193 C192 1.363 . S
C193 C199 1.363 . S
C194 C195 1.363 . S
C194 C199 1.379 . S
C194 N201 1.356 . S
C195 C194 1.363 . S
C195 C198 1.363 . S
N196 C198 1.356 . S
N196 H208 0.984 . S
N196 H209 0.985 . S
N197 C199 1.356 . S
N197 H202 0.984 . S
N197 H203 0.985 . S
C198 C192 1.379 . S
C198 C195 1.363 . S
C198 N196 1.356 . S
C199 C193 1.363 . S
C199 C194 1.379 . S
C199 N197 1.356 . S
N200 C192 1.356 . S
N200 H206 0.984 . S
N200 H207 0.984 . S
N201 C194 1.356 . S
N201 H204 0.984 . S
N201 H205 0.985 . S
H202 N197 0.984 . S
H203 N197 0.985 . S
H204 N201 0.984 . S
H205 N201 0.985 . S
H206 N200 0.984 . S
H207 N200 0.984 . S
H208 N196 0.984 . S
H209 N196 0.985 . S
C210 C211 1.363 . S
C210 C216 1.379 . S
C210 N218 1.356 . S
C211 C210 1.363 . S
C211 C217 1.363 . S
C212 C213 1.363 . S
C212 C217 1.379 . S
C212 N219 1.356 . S
C213 C212 1.363 . S
C213 C216 1.363 . S
N214 C216 1.356 . S
N214 H226 0.984 . S
N214 H227 0.985 . S
N215 C217 1.356 . S
N215 H220 0.984 . S
N215 H221 0.985 . S
C216 C210 1.379 . S
C216 C213 1.363 . S
C216 N214 1.356 . S
C217 C211 1.363 . S
C217 C212 1.379 . S
C217 N215 1.356 . S
N218 C210 1.356 . S
N218 H224 0.984 . S
N218 H225 0.984 . S
N219 C212 1.356 . S
N219 H222 0.984 . S
N219 H223 0.985 . S
H220 N215 0.984 . S
H221 N215 0.985 . S
H222 N219 0.984 . S
H223 N219 0.985 . S
H224 N218 0.984 . S
H225 N218 0.984 . S
H226 N214 0.984 . S
H227 N214 0.985 . S
C228 C229 1.363 . S
C228 C234 1.379 . S
C228 N236 1.356 . S
C229 C228 1.363 . S
C229 C235 1.363 . S
C230 C231 1.363 . S
C230 C235 1.379 . S
C230 N237 1.356 . S
C231 C230 1.363 . S
C231 C234 1.363 . S
N232 C234 1.356 . S
N232 H244 0.984 . S
N232 H245 0.985 . S
N233 C235 1.356 . S
N233 H238 0.984 . S
N233 H239 0.985 . S
C234 C228 1.379 . S
C234 C231 1.363 . S
C234 N232 1.356 . S
C235 C229 1.363 . S
C235 C230 1.379 . S
C235 N233 1.356 . S
N236 C228 1.356 . S
N236 H242 0.984 . S
N236 H243 0.984 . S
N237 C230 1.356 . S
N237 H240 0.984 . S
N237 H241 0.985 . S
H238 N233 0.984 . S
H239 N233 0.985 . S
H240 N237 0.984 . S
H241 N237 0.985 . S
H242 N236 0.984 . S
H243 N236 0.984 . S
H244 N232 0.984 . S
H245 N232 0.985 . S
C246 C247 1.363 . S
C246 C252 1.379 . S
C246 N254 1.356 . S
C247 C246 1.363 . S
C247 C253 1.363 . S
C248 C249 1.363 . S
C248 C253 1.379 . S
C248 N255 1.356 . S
C249 C248 1.363 . S
C249 C252 1.363 . S
N250 C252 1.356 1_554 S
N250 H262 0.984 . S
N250 H263 0.985 . S
N251 C253 1.356 . S
N251 H256 0.984 . S
N251 H257 0.985 . S
C252 C246 1.379 . S
C252 C249 1.363 . S
C252 N250 1.356 1_556 S
C253 C247 1.363 . S
C253 C248 1.379 . S
C253 N251 1.356 . S
N254 C246 1.356 . S
N254 H260 0.984 . S
N254 H261 0.984 . S
N255 C248 1.356 . S
N255 H258 0.984 . S
N255 H259 0.985 . S
H256 N251 0.984 . S
H257 N251 0.985 . S
H258 N255 0.984 . S
H259 N255 0.985 . S
H260 N254 0.984 . S
H261 N254 0.984 . S
H262 N250 0.984 . S
H263 N250 0.985 . S
C264 C265 1.363 . S
C264 C270 1.379 . S
C264 N272 1.356 . S
C265 C264 1.363 . S
C265 C271 1.363 . S
C266 C267 1.363 . S
C266 C271 1.379 . S
C266 N273 1.356 . S
C267 C266 1.363 . S
C267 C270 1.363 . S
N268 C270 1.356 . S
N268 H280 0.984 . S
N268 H281 0.985 . S
N269 C271 1.356 . S
N269 H274 0.984 1_554 S
N269 H275 0.985 . S
C270 C264 1.379 . S
C270 C267 1.363 . S
C270 N268 1.356 . S
C271 C265 1.363 . S
C271 C266 1.379 . S
C271 N269 1.356 . S
N272 C264 1.356 . S
N272 H278 0.984 . S
N272 H279 0.984 . S
N273 C266 1.356 . S
N273 H276 0.984 . S
N273 H277 0.985 . S
H274 N269 0.984 1_556 S
H275 N269 0.985 . S
H276 N273 0.984 . S
H277 N273 0.985 . S
H278 N272 0.984 . S
H279 N272 0.984 . S
H280 N268 0.984 . S
H281 N268 0.985 . S
C282 C283 1.363 . S
C282 C288 1.379 . S
C282 N290 1.356 . S
C283 C282 1.363 . S
C283 C289 1.363 . S
C284 C285 1.363 . S
C284 C289 1.379 . S
C284 N291 1.356 . S
C285 C284 1.363 . S
C285 C288 1.363 . S
N286 C288 1.356 . S
N286 H298 0.984 . S
N286 H299 0.985 . S
N287 C289 1.356 . S
N287 H292 0.984 . S
N287 H293 0.985 . S
C288 C282 1.379 . S
C288 C285 1.363 . S
C288 N286 1.356 . S
C289 C283 1.363 . S
C289 C284 1.379 . S
C289 N287 1.356 . S
N290 C282 1.356 . S
N290 H296 0.984 . S
N290 H297 0.984 . S
N291 C284 1.356 . S
N291 H294 0.984 . S
N291 H295 0.985 . S
H292 N287 0.984 . S
H293 N287 0.985 . S
H294 N291 0.984 . S
H295 N291 0.985 . S
H296 N290 0.984 . S
H297 N290 0.984 . S
H298 N286 0.984 . S
H299 N286 0.985 . S
C85 C9 1.579 . S
C87 C78 1.589 . S
C103 C8 1.589 . S
C105 C23 1.579 . S
C121 C37 1.579 . S
C123 C22 1.589 . S
C139 C51 1.579 . S
C141 C36 1.589 . S
C157 C65 1.579 . S
C159 C50 1.589 . S
C175 C79 1.579 . S
C177 C64 1.589 . S
C193 C3 1.472 . S
C195 C63 1.437 . S
C211 C77 1.438 . S
C213 C17 1.472 . S
C229 C31 1.472 . S
C231 C7 1.438 . S
C247 C21 1.437 . S
C249 C45 1.472 1_556 S
C265 C35 1.438 1_554 S
C267 C59 1.472 . S
C283 C73 1.472 . S
C285 C49 1.438 . S
