# Generated by pormake.
# Topology smk, (6)-cn, num edge types: 1
# Building blocks:
#     Node 0, Type 0, BuildingBlock: OJICUG_clean_sbu_0, # of connection points: 6
#     Node 1, Type 0, BuildingBlock: OJICUG_clean_sbu_0, # of connection points: 6
#     Node 2, Type 0, BuildingBlock: OJICUG_clean_sbu_0, # of connection points: 6
#     Node 3, Type 0, BuildingBlock: OJICUG_clean_sbu_0, # of connection points: 6
#     Node 4, Type 0, BuildingBlock: OJICUG_clean_sbu_0, # of connection points: 6
#     Node 5, Type 0, BuildingBlock: OJICUG_clean_sbu_0, # of connection points: 6
#     Edge 6, Type (0, 0), BuildingBlock: FUNLAD_clean_linker_1, # of connection points: 2
#     Edge 7, Type (0, 0), BuildingBlock: FUNLAD_clean_linker_1, # of connection points: 2
#     Edge 8, Type (0, 0), BuildingBlock: FUNLAD_clean_linker_1, # of connection points: 2
#     Edge 9, Type (0, 0), BuildingBlock: FUNLAD_clean_linker_1, # of connection points: 2
#     Edge 10, Type (0, 0), BuildingBlock: FUNLAD_clean_linker_1, # of connection points: 2
#     Edge 11, Type (0, 0), BuildingBlock: FUNLAD_clean_linker_1, # of connection points: 2
#     Edge 12, Type (0, 0), BuildingBlock: FUNLAD_clean_linker_1, # of connection points: 2
#     Edge 13, Type (0, 0), BuildingBlock: FUNLAD_clean_linker_1, # of connection points: 2
#     Edge 14, Type (0, 0), BuildingBlock: FUNLAD_clean_linker_1, # of connection points: 2
#     Edge 15, Type (0, 0), BuildingBlock: FUNLAD_clean_linker_1, # of connection points: 2
#     Edge 16, Type (0, 0), BuildingBlock: FUNLAD_clean_linker_1, # of connection points: 2
#     Edge 17, Type (0, 0), BuildingBlock: FUNLAD_clean_linker_1, # of connection points: 2
#     Edge 18, Type (0, 0), BuildingBlock: FUNLAD_clean_linker_1, # of connection points: 2
#     Edge 19, Type (0, 0), BuildingBlock: FUNLAD_clean_linker_1, # of connection points: 2
#     Edge 20, Type (0, 0), BuildingBlock: FUNLAD_clean_linker_1, # of connection points: 2
#     Edge 21, Type (0, 0), BuildingBlock: FUNLAD_clean_linker_1, # of connection points: 2
#     Edge 22, Type (0, 0), BuildingBlock: FUNLAD_clean_linker_1, # of connection points: 2
#     Edge 23, Type (0, 0), BuildingBlock: FUNLAD_clean_linker_1, # of connection points: 2
# Relax obj value: 0.194
# Max RMSD: 0.221
# Mean RMSD: 0.221
data_MOF--net-smk--node1-OJICUG_clean_sbu_0--edge1-FUNLAD_clean_linker_1
_symmetry_space_group_name_H-M    P1
_symmetry_Int_Tables_number       1
_symmetry_cell_setting            triclinic
loop_
_symmetry_equiv_pos_as_xyz
'x, y, z'
_cell_length_a     45.321903
_cell_length_b     45.308848
_cell_length_c     16.417692
_cell_angle_alpha  90.086945
_cell_angle_beta   89.994274
_cell_angle_gamma 119.80572
loop_
_atom_site_label
_atom_site_type_symbol
_atom_site_fract_x
_atom_site_fract_y
_atom_site_fract_z
_atom_type_partial_charge
Sc0 Sc 0.45424 0.20985 0.50471 0.0
Sc1 Sc 0.37645 0.20095 0.57331 0.0
Sc2 Sc 0.45363 0.25909 0.66945 0.0
O3 O 0.42805 0.22327 0.58266 0.0
C4 C 0.49219 0.21575 0.67053 0.0
C5 C 0.38678 0.13813 0.53594 0.0
C6 C 0.38747 0.20682 0.76749 0.0
C7 C 0.40061 0.21227 0.38593 0.0
C8 C 0.50563 0.28981 0.52311 0.0
C9 C 0.39737 0.27784 0.61223 0.0
O10 O 0.4812 0.20184 0.60149 0.0
O11 O 0.36964 0.15052 0.56697 0.0
O12 O 0.41875 0.22919 0.76347 0.0
O13 O 0.43025 0.21749 0.40122 0.0
O14 O 0.49164 0.29367 0.58606 0.0
O15 O 0.37758 0.24908 0.57988 0.0
O16 O 0.49562 0.26114 0.48946 0.0
O17 O 0.37776 0.20444 0.4403 0.0
O18 O 0.42517 0.28484 0.64703 0.0
O19 O 0.41673 0.15635 0.50827 0.0
O20 O 0.48504 0.23719 0.70169 0.0
O21 O 0.36878 0.19438 0.70461 0.0
Sc22 Sc 0.24172 0.45346 0.68821 0.0
Sc23 Sc 0.17419 0.37483 0.75707 0.0
Sc24 Sc 0.19323 0.45134 0.85676 0.0
O25 O 0.2031 0.42643 0.76752 0.0
C26 C 0.27483 0.49288 0.85149 0.0
C27 C 0.24752 0.38633 0.71607 0.0
C28 C 0.182 0.38572 0.95205 0.0
C29 C 0.18565 0.39925 0.56975 0.0
C30 C 0.20946 0.5019 0.71008 0.0
C31 C 0.11826 0.39461 0.80329 0.0
O32 O 0.27739 0.48112 0.78319 0.0
O33 O 0.21809 0.36867 0.74671 0.0
O34 O 0.1918 0.41732 0.94925 0.0
O35 O 0.20984 0.42893 0.5853 0.0
O36 O 0.1926 0.48714 0.77331 0.0
O37 O 0.12698 0.37538 0.76656 0.0
O38 O 0.22962 0.49393 0.67515 0.0
O39 O 0.17099 0.37632 0.62406 0.0
O40 O 0.13915 0.42173 0.83986 0.0
O41 O 0.25894 0.41659 0.69032 0.0
O42 O 0.24643 0.48526 0.88384 0.0
O43 O 0.17398 0.36698 0.88857 0.0
Sc44 Sc 0.7887 0.24702 0.85055 0.0
Sc45 Sc 0.80461 0.18669 0.94605 0.0
Sc46 Sc 0.73348 0.19386 0.00329 0.0
O47 O 0.77562 0.20918 0.93333 0.0
C48 C 0.76509 0.27499 0.99823 0.0
C49 C 0.86185 0.26259 0.91541 0.0
C50 C 0.78519 0.19254 0.13184 0.0
C51 C 0.80325 0.1957 0.75091 0.0
C52 C 0.70717 0.20667 0.8369 0.0
C53 C 0.73058 0.12319 0.96426 0.0
O54 O 0.78516 0.28019 0.93893 0.0
O55 O 0.85115 0.23423 0.95076 0.0
O56 O 0.7605 0.19685 0.11255 0.0
O57 O 0.7933 0.21741 0.7549 0.0
O58 O 0.70196 0.1896 0.90181 0.0
O59 O 0.7614 0.13658 0.94239 0.0
O60 O 0.73666 0.22883 0.8129 0.0
O61 O 0.80956 0.18329 0.81402 0.0
O62 O 0.71714 0.14032 0.98996 0.0
O63 O 0.84266 0.27029 0.87503 0.0
O64 O 0.74437 0.24546 0.02514 0.0
O65 O 0.80305 0.18747 0.07946 0.0
Sc66 Sc 0.54183 0.78582 0.97781 0.0
Sc67 Sc 0.62425 0.81023 0.04262 0.0
Sc68 Sc 0.55362 0.74548 0.14464 0.0
O69 O 0.57337 0.78052 0.05506 0.0
C70 C 0.50333 0.77625 0.14107 0.0
C71 C 0.6005 0.86298 0.00529 0.0
C72 C 0.61403 0.80524 0.23824 0.0
C73 C 0.59819 0.79335 0.85632 0.0
C74 C 0.50378 0.70495 0.00402 0.0
C75 C 0.61894 0.74056 0.08791 0.0
O76 O 0.51559 0.79311 0.07635 0.0
O77 O 0.62091 0.85591 0.04203 0.0
O78 O 0.58288 0.78232 0.2356 0.0
O79 O 0.56686 0.77957 0.8743 0.0
O80 O 0.52333 0.70573 0.0602 0.0
O81 O 0.63138 0.76671 0.04251 0.0
O82 O 0.50539 0.73165 0.97415 0.0
O83 O 0.62196 0.80805 0.90893 0.0
O84 O 0.5929 0.73164 0.13276 0.0
O85 O 0.57306 0.84055 0.9723 0.0
O86 O 0.51159 0.75503 0.16862 0.0
O87 O 0.63271 0.81608 0.17472 0.0
Sc88 Sc 0.75956 0.55311 0.18912 0.0
Sc89 Sc 0.82459 0.6267 0.27743 0.0
Sc90 Sc 0.80226 0.54716 0.35747 0.0
O91 O 0.79551 0.57562 0.2747 0.0
C92 C 0.72104 0.50894 0.33929 0.0
C93 C 0.75426 0.61903 0.23816 0.0
C94 C 0.81379 0.60788 0.46605 0.0
C95 C 0.81602 0.6105 0.08703 0.0
C96 C 0.78927 0.50221 0.20343 0.0
C97 C 0.87865 0.60551 0.31486 0.0
O98 O 0.72103 0.52627 0.27867 0.0
O99 O 0.78006 0.63191 0.28491 0.0
O100 O 0.79733 0.57594 0.45466 0.0
O101 O 0.79636 0.57875 0.09576 0.0
O102 O 0.80765 0.5168 0.26513 0.0
O103 O 0.87033 0.62353 0.27143 0.0
O104 O 0.76793 0.51001 0.17457 0.0
O105 O 0.82449 0.6316 0.14561 0.0
O106 O 0.85718 0.57968 0.35526 0.0
O107 O 0.74648 0.5933 0.19269 0.0
O108 O 0.74811 0.51114 0.36873 0.0
O109 O 0.8289 0.62911 0.40916 0.0
Sc110 Sc 0.20799 0.75019 0.34298 0.0
Sc111 Sc 0.204 0.82182 0.41104 0.0
Sc112 Sc 0.26754 0.80622 0.48604 0.0
O113 O 0.22655 0.79266 0.41327 0.0
C114 C 0.22716 0.72548 0.50603 0.0
C115 C 0.13907 0.74759 0.38827 0.0
C116 C 0.21653 0.81845 0.59823 0.0
C117 C 0.20619 0.80572 0.22521 0.0
C118 C 0.28806 0.77884 0.32961 0.0
C119 C 0.2821 0.87914 0.43426 0.0
O120 O 0.21057 0.71962 0.43983 0.0
O121 O 0.15319 0.77947 0.39882 0.0
O122 O 0.24331 0.81653 0.58617 0.0
O123 O 0.20377 0.77695 0.23943 0.0
O124 O 0.2955 0.79663 0.39421 0.0
O125 O 0.25081 0.86932 0.42376 0.0
O126 O 0.25791 0.76168 0.30222 0.0
O127 O 0.20948 0.82686 0.28054 0.0
O128 O 0.29295 0.85877 0.44918 0.0
O129 O 0.15569 0.73238 0.37431 0.0
O130 O 0.24789 0.75524 0.53148 0.0
O131 O 0.19736 0.81806 0.54117 0.0
H132 H 0.41482 0.2333 0.2629 0.0
C133 C 0.39344 0.21545 0.2999 0.0
H134 H 0.34339 0.17361 0.29662 0.0
H135 H 0.37428 0.25831 0.94196 0.0
H136 H 0.36537 0.29882 0.02048 0.0
H137 H 0.35345 0.29072 0.16764 0.0
H138 H 0.35118 0.2425 0.23821 0.0
C139 C 0.36414 0.19383 0.26261 0.0
C140 C 0.36262 0.1939 0.17181 0.0
C141 C 0.36246 0.22127 0.13073 0.0
C142 C 0.36886 0.2256 0.04552 0.0
C143 C 0.36969 0.2539 0.00669 0.0
C144 C 0.36438 0.27717 0.0508 0.0
C145 C 0.35777 0.27268 0.13383 0.0
C146 C 0.35671 0.24505 0.17364 0.0
H147 H 0.34608 0.17459 0.8541 0.0
C148 C 0.37204 0.19553 0.84936 0.0
H149 H 0.41475 0.23337 0.91269 0.0
H150 H 0.36107 0.13672 0.23059 0.0
H151 H 0.37118 0.09682 0.15327 0.0
H152 H 0.38198 0.10408 0.00557 0.0
H153 H 0.38361 0.15164 0.93419 0.0
C154 C 0.38937 0.21142 0.91739 0.0
C155 C 0.37495 0.20226 1.00116 0.0
C156 C 0.37271 0.17349 0.04127 0.0
C157 C 0.36638 0.16925 0.12669 0.0
C158 C 0.36574 0.14112 0.1659 0.0
C159 C 0.37135 0.11797 0.12227 0.0
C160 C 0.37754 0.12211 0.03906 0.0
C161 C 0.37833 0.14953 0.99876 0.0
H162 H 0.18167 0.41402 0.44499 0.0
C163 C 0.17564 0.39214 0.48323 0.0
H164 H 0.16144 0.34012 0.48269 0.0
H165 H 0.12412 0.38417 0.11951 0.0
H166 H 0.07782 0.38513 0.19184 0.0
H167 H 0.07001 0.3737 0.33946 0.0
H168 H 0.10856 0.36133 0.41584 0.0
C169 C 0.16495 0.36183 0.44712 0.0
C170 C 0.16393 0.3598 0.35606 0.0
C171 C 0.14082 0.36617 0.31188 0.0
C172 C 0.14525 0.37256 0.22667 0.0
C173 C 0.12211 0.37947 0.18446 0.0
C174 C 0.09535 0.37992 0.22512 0.0
C175 C 0.09095 0.37351 0.30827 0.0
C176 C 0.11333 0.36666 0.35145 0.0
H177 H 0.1682 0.34255 0.03713 0.0
C178 C 0.17743 0.3697 0.03351 0.0
H179 H 0.18984 0.41459 0.09873 0.0
H180 H 0.20857 0.34185 0.41942 0.0
H181 H 0.25282 0.33767 0.34597 0.0
H182 H 0.26143 0.35006 0.19888 0.0
H183 H 0.22534 0.366 0.12385 0.0
C184 C 0.18207 0.38775 0.10248 0.0
C185 C 0.17267 0.37239 0.18543 0.0
C186 C 0.19374 0.3627 0.22805 0.0
C187 C 0.18912 0.35607 0.31339 0.0
C188 C 0.21101 0.34722 0.35484 0.0
C189 C 0.23656 0.34482 0.31343 0.0
C190 C 0.24134 0.3517 0.23054 0.0
C191 C 0.22039 0.36075 0.18813 0.0
H192 H 0.77641 0.19909 0.26021 0.0
C193 C 0.79183 0.19304 0.22018 0.0
H194 H 0.83023 0.17927 0.21749 0.0
H195 H 0.86112 0.25361 0.5749 0.0
H196 H 0.90486 0.29999 0.49567 0.0
H197 H 0.90931 0.29416 0.3474 0.0
H198 H 0.86975 0.24197 0.27709 0.0
C199 C 0.81417 0.18548 0.2544 0.0
C200 C 0.81674 0.18579 0.34517 0.0
C201 C 0.84061 0.21583 0.3858 0.0
C202 C 0.83799 0.21912 0.47136 0.0
C203 C 0.86168 0.24989 0.50988 0.0
C204 C 0.887 0.27663 0.46522 0.0
C205 C 0.88951 0.27335 0.38171 0.0
C206 C 0.86664 0.24336 0.34211 0.0
H207 H 0.81725 0.16687 0.66394 0.0
C208 C 0.80872 0.18537 0.66878 0.0
H209 H 0.79699 0.21882 0.60566 0.0
H210 H 0.77076 0.123 0.28772 0.0
H211 H 0.7269 0.07627 0.3661 0.0
H212 H 0.7211 0.08227 0.51376 0.0
H213 H 0.75919 0.13472 0.58417 0.0
C214 C 0.80422 0.19933 0.60064 0.0
C215 C 0.8116 0.19224 0.51646 0.0
C216 C 0.78927 0.16116 0.47663 0.0
C217 C 0.7921 0.15789 0.391 0.0
C218 C 0.7693 0.12684 0.35236 0.0
C219 C 0.74411 0.09987 0.39662 0.0
C220 C 0.7409 0.10323 0.4798 0.0
C221 C 0.76303 0.13349 0.51959 0.0
H222 H 0.65649 0.8368 0.3234 0.0
C223 C 0.62967 0.81787 0.3196 0.0
H224 H 0.58529 0.78437 0.38464 0.0
H225 H 0.64245 0.76263 0.70409 0.0
H226 H 0.63503 0.71317 0.6286 0.0
H227 H 0.62417 0.70846 0.48052 0.0
H228 H 0.62086 0.75322 0.40692 0.0
C229 C 0.61173 0.80434 0.38844 0.0
C230 C 0.62693 0.81156 0.47166 0.0
C231 C 0.62915 0.78542 0.51372 0.0
C232 C 0.63504 0.78794 0.5992 0.0
C233 C 0.63723 0.7615 0.63949 0.0
C234 C 0.63325 0.73315 0.59681 0.0
C235 C 0.62716 0.7305 0.51343 0.0
C236 C 0.62514 0.75626 0.47202 0.0
H237 H 0.58532 0.775 0.73051 0.0
C238 C 0.60611 0.79279 0.7692 0.0
H239 H 0.65603 0.83488 0.77003 0.0
H240 H 0.62887 0.86822 0.40801 0.0
H241 H 0.6397 0.91903 0.48215 0.0
H242 H 0.65048 0.92366 0.6301 0.0
H243 H 0.65012 0.87739 0.70529 0.0
C244 C 0.63561 0.81528 0.73383 0.0
C245 C 0.63826 0.81641 0.64287 0.0
C246 C 0.6397 0.84417 0.59949 0.0
C247 C 0.63378 0.84164 0.51376 0.0
C248 C 0.63356 0.86897 0.47275 0.0
C249 C 0.63969 0.89825 0.51461 0.0
C250 C 0.64571 0.90084 0.598 0.0
C251 C 0.64549 0.87411 0.64039 0.0
H252 H 0.84673 0.63654 0.56813 0.0
C253 C 0.8204 0.61997 0.55037 0.0
H254 H 0.76962 0.59041 0.58657 0.0
H255 H 0.7888 0.5435 0.92751 0.0
H256 H 0.75224 0.49094 0.85761 0.0
H257 H 0.7407 0.49038 0.7107 0.0
H258 H 0.76409 0.54258 0.63437 0.0
C259 C 0.79571 0.60673 0.60649 0.0
C260 C 0.80379 0.60766 0.69467 0.0
C261 C 0.79128 0.57643 0.73728 0.0
C262 C 0.7999 0.57652 0.8205 0.0
C263 C 0.78474 0.54513 0.86323 0.0
C264 C 0.76344 0.51456 0.8239 0.0
C265 C 0.75673 0.51427 0.74145 0.0
C266 C 0.77033 0.54468 0.69838 0.0
H267 H 0.81746 0.64274 0.98616 0.0
C268 C 0.82371 0.62335 0.00345 0.0
H269 H 0.83749 0.58764 0.96641 0.0
H270 H 0.82616 0.67231 0.6379 0.0
H271 H 0.86717 0.72492 0.7037 0.0
H272 H 0.89083 0.72417 0.83857 0.0
H273 H 0.8724 0.67093 0.90984 0.0
C274 C 0.83132 0.60685 0.9468 0.0
C275 C 0.82306 0.6076 0.85936 0.0
C276 C 0.8365 0.63867 0.81587 0.0
C277 C 0.82526 0.63886 0.73512 0.0
C278 C 0.83582 0.67055 0.69683 0.0
C279 C 0.85907 0.70095 0.73429 0.0
C280 C 0.87223 0.70054 0.8104 0.0
C281 C 0.86119 0.66984 0.85098 0.0
H282 H 0.22354 0.84174 0.12238 0.0
C283 C 0.20686 0.8154 0.13973 0.0
H284 H 0.17202 0.76558 0.10198 0.0
H285 H 0.21007 0.86968 0.77728 0.0
H286 H 0.18651 0.89916 0.8531 0.0
H287 H 0.16509 0.88168 0.99306 0.0
H288 H 0.16793 0.83518 0.05863 0.0
C289 C 0.18899 0.79169 0.08321 0.0
C290 C 0.19593 0.79866 0.99492 0.0
C291 C 0.19225 0.82463 0.95617 0.0
C292 C 0.20284 0.83347 0.87404 0.0
C293 C 0.20117 0.86105 0.83846 0.0
C294 C 0.18783 0.87829 0.88144 0.0
C295 C 0.1759 0.86854 0.96034 0.0
C296 C 0.17796 0.842 0.99753 0.0
H297 H 0.17957 0.81113 0.69495 0.0
C298 C 0.20592 0.81838 0.68293 0.0
H299 H 0.25362 0.83096 0.73304 0.0
H300 H 0.20518 0.74633 0.04978 0.0
H301 H 0.22356 0.71357 0.96986 0.0
H302 H 0.23745 0.72598 0.82422 0.0
H303 H 0.23361 0.7717 0.75826 0.0
C304 C 0.22741 0.8242 0.74501 0.0
C305 C 0.21513 0.81494 0.82975 0.0
C306 C 0.21663 0.78748 0.86679 0.0
C307 C 0.20751 0.77962 0.94985 0.0
C308 C 0.21079 0.75299 0.98625 0.0
C309 C 0.22148 0.73396 0.94112 0.0
C310 C 0.22939 0.74099 0.85924 0.0
C311 C 0.22716 0.76744 0.82224 0.0
H312 H 0.34621 0.08561 0.56102 0.0
C313 C 0.3702 0.10078 0.52933 0.0
H314 H 0.40522 0.09977 0.44555 0.0
H315 H 0.3248 0.94119 0.58253 0.0
H316 H 0.36205 0.96513 0.69894 0.0
H317 H 0.4007 0.02703 0.71058 0.0
H318 H 0.40177 0.06541 0.60607 0.0
C319 C 0.38226 0.08517 0.48124 0.0
C320 C 0.36242 0.04775 0.46897 0.0
C321 C 0.36318 0.02556 0.52853 0.0
C322 C 0.34185 0.98976 0.52006 0.0
C323 C 0.34147 0.96842 0.58356 0.0
C324 C 0.36257 0.98187 0.6513 0.0
C325 C 0.38425 0.01673 0.65799 0.0
C326 C 0.38457 0.03846 0.59766 0.0
H327 H 0.33377 0.92429 0.43468 0.0
C328 C 0.30676 0.91599 0.43476 0.0
H329 H 0.26959 0.93104 0.44274 0.0
H330 H 0.35513 0.08343 0.3437 0.0
H331 H 0.31791 0.05962 0.22648 0.0
H332 H 0.28308 0.99757 0.20807 0.0
H333 H 0.28424 0.95881 0.30807 0.0
C334 C 0.29654 0.9391 0.44276 0.0
C335 C 0.3208 0.97624 0.45013 0.0
C336 C 0.32073 0.99853 0.38967 0.0
C337 C 0.34143 0.03432 0.39928 0.0
C338 C 0.34009 0.05601 0.33912 0.0
C339 C 0.31899 0.04272 0.27136 0.0
C340 C 0.29923 0.00776 0.26118 0.0
C341 C 0.30005 0.9858 0.31925 0.0
H342 H 0.40392 0.32803 0.64475 0.0
C343 C 0.38661 0.30368 0.61667 0.0
H344 H 0.33732 0.27276 0.56799 0.0
H345 H 0.31425 0.37456 0.81691 0.0
H346 H 0.32467 0.34432 0.92475 0.0
H347 H 0.34167 0.30166 0.89229 0.0
H348 H 0.34973 0.29008 0.75283 0.0
C349 C 0.35507 0.2968 0.59651 0.0
C350 C 0.3428 0.32098 0.61604 0.0
C351 C 0.33692 0.32643 0.6982 0.0
C352 C 0.32489 0.3493 0.71661 0.0
C353 C 0.32152 0.35604 0.79935 0.0
C354 C 0.32772 0.3391 0.86188 0.0
C355 C 0.33751 0.31527 0.84371 0.0
C356 C 0.3422 0.30897 0.76309 0.0
H357 H 0.25678 0.34317 0.72514 0.0
C358 C 0.26811 0.36958 0.70608 0.0
H359 H 0.31019 0.41061 0.64868 0.0
H360 H 0.35239 0.31702 0.45296 0.0
H361 H 0.3398 0.34555 0.3447 0.0
H362 H 0.3162 0.38298 0.37596 0.0
H363 H 0.30489 0.39205 0.51528 0.0
C364 C 0.29895 0.38464 0.67071 0.0
C365 C 0.31647 0.36486 0.65268 0.0
C366 C 0.32274 0.35972 0.57059 0.0
C367 C 0.33602 0.33784 0.55237 0.0
C368 C 0.34208 0.33317 0.47002 0.0
C369 C 0.335 0.34941 0.40733 0.0
C370 C 0.32171 0.37048 0.42494 0.0
C371 C 0.31543 0.37553 0.50537 0.0
H372 H 0.91419 0.27882 0.9533 0.0
C373 C 0.89894 0.28533 0.914 0.0
H374 H 0.89967 0.31476 0.81365 0.0
H375 H 0.05913 0.37254 0.95623 0.0
H376 H 0.04073 0.38927 0.07741 0.0
H377 H 0.98174 0.37783 0.09044 0.0
H378 H 0.94059 0.34868 0.98269 0.0
C379 C 0.91454 0.30945 0.85704 0.0
C380 C 0.95149 0.32356 0.84134 0.0
C381 C 0.97577 0.34273 0.90211 0.0
C382 C 0.0103 0.35131 0.89215 0.0
C383 C 0.03315 0.36734 0.95776 0.0
C384 C 0.0228 0.37673 0.02835 0.0
C385 C 0.98956 0.37015 0.03584 0.0
C386 C 0.96618 0.35326 0.97377 0.0
H387 H 0.07602 0.40499 0.8187 0.0
C388 C 0.08217 0.38502 0.80699 0.0
H389 H 0.06304 0.33223 0.79525 0.0
H390 H 0.91135 0.28613 0.71302 0.0
H391 H 0.93019 0.27107 0.58977 0.0
H392 H 0.99082 0.29035 0.56718 0.0
H393 H 0.03298 0.32368 0.6694 0.0
C394 C 0.05719 0.35245 0.806 0.0
C395 C 0.02097 0.34298 0.81839 0.0
C396 C 0.99686 0.32481 0.75646 0.0
C397 C 0.96202 0.31473 0.76828 0.0
C398 C 0.93825 0.29512 0.70691 0.0
C399 C 0.94869 0.28632 0.63558 0.0
C400 C 0.98284 0.29704 0.62304 0.0
C401 C 0.00675 0.3161 0.68242 0.0
H402 H 0.58947 0.90374 0.97317 0.0
C403 C 0.60852 0.89866 0.99944 0.0
H404 H 0.65767 0.92024 0.05074 0.0
H405 H 0.66069 0.04911 0.84729 0.0
H406 H 0.65028 0.01492 0.72527 0.0
H407 H 0.6396 0.95609 0.73433 0.0
H408 H 0.63873 0.93091 0.8648 0.0
C409 C 0.6386 0.92483 0.02267 0.0
C410 C 0.64613 0.96065 0.01548 0.0
C411 C 0.64808 0.97532 0.93783 0.0
C412 C 0.65605 0.0098 0.93213 0.0
C413 C 0.65613 0.02344 0.85452 0.0
C414 C 0.65 0.00406 0.78414 0.0
C415 C 0.64389 0.9709 0.78926 0.0
C416 C 0.64309 0.95662 0.86489 0.0
H417 H 0.72299 0.07246 0.93736 0.0
C418 C 0.71069 0.08582 0.96272 0.0
H419 H 0.66756 0.08033 0.02574 0.0
H420 H 0.64202 0.93975 0.17367 0.0
H421 H 0.65377 0.9746 0.29475 0.0
H422 H 0.67061 0.03527 0.28399 0.0
H423 H 0.67551 0.06138 0.15218 0.0
C424 C 0.67976 0.0677 0.99633 0.0
C425 C 0.66418 0.03013 0.00331 0.0
C426 C 0.66129 0.01528 0.0809 0.0
C427 C 0.65213 0.98045 0.087 0.0
C428 C 0.64937 0.96621 0.16534 0.0
C429 C 0.65597 0.98591 0.23541 0.0
C430 C 0.66543 0.02006 0.22936 0.0
C431 C 0.66815 0.03473 0.15323 0.0
H432 H 0.73683 0.65385 0.28226 0.0
C433 C 0.7334 0.6357 0.23465 0.0
H434 H 0.70857 0.61272 0.12437 0.0
H435 H 0.58514 0.63841 0.15103 0.0
H436 H 0.55719 0.57685 0.1548 0.0
H437 H 0.59057 0.54755 0.16609 0.0
H438 H 0.6521 0.57958 0.17272 0.0
C439 C 0.71224 0.63086 0.17217 0.0
C440 C 0.69233 0.64894 0.16723 0.0
C441 C 0.65629 0.62982 0.16496 0.0
C442 C 0.63699 0.64674 0.16028 0.0
C443 C 0.60107 0.62694 0.15597 0.0
C444 C 0.58467 0.59155 0.15793 0.0
C445 C 0.60346 0.57506 0.16417 0.0
C446 C 0.63882 0.5938 0.16772 0.0
H447 H 0.65548 0.7254 0.04385 0.0
C448 C 0.63687 0.7209 0.09103 0.0
H449 H 0.61474 0.69553 0.20129 0.0
H450 H 0.761 0.69358 0.1546 0.0
H451 H 0.78885 0.75502 0.16078 0.0
H452 H 0.75535 0.78418 0.17294 0.0
H453 H 0.69383 0.75206 0.1758 0.0
C454 C 0.63321 0.70023 0.15363 0.0
C455 C 0.65369 0.68278 0.1595 0.0
C456 C 0.68973 0.70194 0.16436 0.0
C457 C 0.70908 0.68503 0.16431 0.0
C458 C 0.74501 0.70491 0.16038 0.0
C459 C 0.76137 0.74028 0.163 0.0
C460 C 0.74252 0.7567 0.16933 0.0
C461 C 0.70714 0.73791 0.17007 0.0
H462 H 0.92109 0.59873 0.35715 0.0
C463 C 0.91486 0.61562 0.32371 0.0
H464 H 0.93456 0.66307 0.26427 0.0
H465 H 0.06111 0.68662 0.5099 0.0
H466 H 0.02282 0.68008 0.62056 0.0
H467 H 0.96328 0.6644 0.59289 0.0
H468 H 0.94151 0.65447 0.45496 0.0
C469 C 0.94012 0.6459 0.29851 0.0
C470 C 0.97638 0.65684 0.31583 0.0
C471 C 0.98898 0.66386 0.39694 0.0
C472 C 0.02375 0.67463 0.41265 0.0
C473 C 0.03528 0.67976 0.49438 0.0
C474 C 0.01352 0.67589 0.5585 0.0
C475 C 0.97997 0.66693 0.54294 0.0
C476 C 0.96772 0.66103 0.46331 0.0
H477 H 0.0883 0.74216 0.4017 0.0
C478 C 0.10158 0.72836 0.38716 0.0
H479 H 0.09637 0.6822 0.34284 0.0
H480 H 0.96022 0.64452 0.15413 0.0
H481 H 0.99904 0.6529 0.04329 0.0
H482 H 0.05989 0.67408 0.06993 0.0
H483 H 0.08226 0.68674 0.20744 0.0
C484 C 0.08353 0.69593 0.36171 0.0
C485 C 0.04626 0.68012 0.34706 0.0
C486 C 0.03361 0.67277 0.26616 0.0
C487 C 0.99862 0.66105 0.25061 0.0
C488 C 0.98664 0.65384 0.16928 0.0
C489 C 0.00863 0.65849 0.10508 0.0
C490 C 0.04288 0.67038 0.12009 0.0
C491 C 0.05538 0.67752 0.19946 0.0
H492 H 0.5507 0.31433 0.44396 0.0
C493 C 0.53643 0.31924 0.49006 0.0
H494 H 0.5346 0.35628 0.56466 0.0
H495 H 0.69163 0.45989 0.56894 0.0
H496 H 0.67906 0.44545 0.71175 0.0
H497 H 0.62243 0.40017 0.75501 0.0
H498 H 0.57778 0.36939 0.65625 0.0
C499 C 0.54825 0.35118 0.51734 0.0
C500 C 0.58201 0.37942 0.49078 0.0
C501 C 0.60806 0.3968 0.54946 0.0
C502 C 0.64105 0.42231 0.52431 0.0
C503 C 0.66631 0.43985 0.58441 0.0
C504 C 0.65946 0.43189 0.66666 0.0
C505 C 0.62754 0.40642 0.69105 0.0
C506 C 0.60207 0.38898 0.63353 0.0
H507 H 0.66595 0.48694 0.35773 0.0
C508 C 0.68775 0.48411 0.37324 0.0
H509 H 0.70436 0.45323 0.43048 0.0
H510 H 0.53648 0.35634 0.36404 0.0
H511 H 0.54989 0.36746 0.22048 0.0
H512 H 0.60896 0.40503 0.1753 0.0
H513 H 0.65457 0.43267 0.27342 0.0
C514 C 0.68288 0.4565 0.41468 0.0
C515 C 0.64822 0.42978 0.4404 0.0
C516 C 0.62235 0.4118 0.38153 0.0
C517 C 0.58885 0.38789 0.40709 0.0
C518 C 0.56279 0.37297 0.34767 0.0
C519 C 0.57008 0.37938 0.26506 0.0
C520 C 0.60327 0.40068 0.23967 0.0
C521 C 0.6292 0.41672 0.29687 0.0
H522 H 0.18206 0.53008 0.69375 0.0
C523 C 0.20523 0.52981 0.67789 0.0
H524 H 0.25329 0.55649 0.62131 0.0
H525 H 0.21694 0.6453 0.39136 0.0
H526 H 0.22927 0.61264 0.29442 0.0
H527 H 0.23904 0.56638 0.34018 0.0
H528 H 0.23707 0.55291 0.4835 0.0
C529 C 0.22983 0.55617 0.63701 0.0
C530 C 0.22508 0.58494 0.6103 0.0
C531 C 0.22556 0.59198 0.52613 0.0
C532 C 0.21895 0.61801 0.49968 0.0
C533 C 0.22084 0.62526 0.4152 0.0
C534 C 0.22804 0.60678 0.35866 0.0
C535 C 0.2336 0.58078 0.38442 0.0
C536 C 0.23241 0.57334 0.46701 0.0
H537 H 0.24518 0.70245 0.59699 0.0
C538 C 0.226 0.69669 0.55041 0.0
H539 H 0.18643 0.65834 0.48066 0.0
H540 H 0.22962 0.58342 0.77691 0.0
H541 H 0.21484 0.61425 0.87426 0.0
H542 H 0.19571 0.65377 0.82777 0.0
H543 H 0.19233 0.66344 0.68376 0.0
C544 C 0.20511 0.66419 0.52854 0.0
C545 C 0.21101 0.6364 0.55744 0.0
C546 C 0.21029 0.62918 0.64171 0.0
C547 C 0.21882 0.60451 0.66832 0.0
C548 C 0.22119 0.60024 0.75311 0.0
C549 C 0.21311 0.61804 0.80973 0.0
C550 C 0.20252 0.64041 0.78358 0.0
C551 C 0.201 0.64596 0.70066 0.0
H552 H 0.68202 0.2158 0.73248 0.0
C553 C 0.67762 0.20328 0.79128 0.0
H554 H 0.64173 0.17679 0.88419 0.0
H555 H 0.57832 0.26043 0.68278 0.0
H556 H 0.62836 0.31166 0.72843 0.0
H557 H 0.67331 0.30854 0.80617 0.0
H558 H 0.6689 0.25423 0.83615 0.0
C559 C 0.64655 0.18931 0.82535 0.0
C560 C 0.61801 0.1913 0.78617 0.0
C561 C 0.62004 0.22331 0.77418 0.0
C562 C 0.59299 0.225 0.73479 0.0
C563 C 0.59706 0.25743 0.71687 0.0
C564 C 0.62586 0.28715 0.74208 0.0
C565 C 0.65123 0.2854 0.78542 0.0
C566 C 0.64849 0.25397 0.80154 0.0
H567 H 0.52411 0.21878 0.77545 0.0
C568 C 0.51697 0.20929 0.71357 0.0
H569 H 0.52713 0.18647 0.61295 0.0
H570 H 0.60588 0.12602 0.80091 0.0
H571 H 0.55428 0.07451 0.76237 0.0
H572 H 0.50585 0.07728 0.70213 0.0
H573 H 0.50881 0.13158 0.67947 0.0
C574 C 0.53389 0.19601 0.67487 0.0
C575 C 0.56282 0.19457 0.71353 0.0
C576 C 0.56051 0.1626 0.72717 0.0
C577 C 0.58821 0.16098 0.7631 0.0
C578 C 0.58543 0.12872 0.77481 0.0
C579 C 0.55598 0.09894 0.75282 0.0
C580 C 0.52873 0.1005 0.71882 0.0
C581 C 0.5308 0.13187 0.70602 0.0
H582 H 0.48144 0.64988 0.9825 0.0
C583 C 0.47712 0.67131 0.97583 0.0
H584 H 0.44203 0.68721 0.94502 0.0
H585 H 0.34385 0.56485 0.72379 0.0
H586 H 0.36675 0.61171 0.62848 0.0
H587 H 0.41433 0.66792 0.66749 0.0
H588 H 0.43896 0.67767 0.80255 0.0
C589 C 0.44666 0.66595 0.95059 0.0
C590 C 0.4188 0.63145 0.92723 0.0
C591 C 0.40535 0.6259 0.84715 0.0
C592 C 0.37855 0.59324 0.824 0.0
C593 C 0.36476 0.58884 0.74443 0.0
C594 C 0.37759 0.6156 0.68897 0.0
C595 C 0.40433 0.64725 0.71097 0.0
C596 C 0.41817 0.65249 0.78892 0.0
H597 H 0.30301 0.53279 0.94311 0.0
C598 C 0.30595 0.51999 0.89026 0.0
H599 H 0.33978 0.52039 0.80135 0.0
H600 H 0.43403 0.63442 0.09034 0.0
H601 H 0.41299 0.58694 0.18377 0.0
H602 H 0.37152 0.52888 0.13842 0.0
H603 H 0.35012 0.51826 0.9998 0.0
C604 C 0.33679 0.53228 0.85587 0.0
C605 C 0.36573 0.56592 0.88042 0.0
C606 C 0.37959 0.57128 0.96003 0.0
C607 C 0.40524 0.60435 0.98448 0.0
C608 C 0.41623 0.60953 0.06671 0.0
C609 C 0.40405 0.58252 0.12139 0.0
C610 C 0.38058 0.54987 0.09599 0.0
C611 C 0.36835 0.54417 0.01638 0.0
H612 H 0.8152 0.47288 0.18111 0.0
C613 C 0.79243 0.4742 0.167 0.0
H614 H 0.74413 0.44943 0.11074 0.0
H615 H 0.77254 0.35576 0.87651 0.0
H616 H 0.76134 0.38965 0.78085 0.0
H617 H 0.7549 0.4378 0.82797 0.0
H618 H 0.75908 0.45209 0.97157 0.0
C619 C 0.76716 0.44868 0.12501 0.0
C620 C 0.77011 0.4189 0.09698 0.0
C621 C 0.76839 0.41142 0.01267 0.0
C622 C 0.77302 0.38418 0.98524 0.0
C623 C 0.77002 0.3766 0.90082 0.0
C624 C 0.76349 0.3958 0.8451 0.0
C625 C 0.75981 0.4229 0.87169 0.0
C626 C 0.76223 0.43077 0.95435 0.0
H627 H 0.74417 0.29879 0.07966 0.0
C628 C 0.7639 0.30414 0.03493 0.0
H629 H 0.80411 0.34205 0.96576 0.0
H630 H 0.76678 0.42064 0.26394 0.0
H631 H 0.78078 0.38875 0.35949 0.0
H632 H 0.79733 0.34749 0.31083 0.0
H633 H 0.79866 0.33698 0.16653 0.0
C634 C 0.78496 0.33649 0.01219 0.0
C635 C 0.78025 0.36499 0.04199 0.0
C636 C 0.78224 0.37268 0.12634 0.0
C637 C 0.77551 0.3985 0.15408 0.0
C638 C 0.77408 0.40308 0.23912 0.0
C639 C 0.78169 0.38466 0.29478 0.0
C640 C 0.79081 0.36129 0.26741 0.0
C641 C 0.79115 0.35528 0.1843 0.0
H642 H 0.47921 0.80601 0.17518 0.0
C643 C 0.47744 0.7813 0.18229 0.0
H644 H 0.44624 0.73045 0.22053 0.0
H645 H 0.35674 0.76812 0.45166 0.0
H646 H 0.38215 0.74728 0.54914 0.0
H647 H 0.42578 0.73305 0.50642 0.0
H648 H 0.4439 0.73913 0.36538 0.0
C649 C 0.44913 0.75565 0.21462 0.0
C650 C 0.42055 0.76116 0.23907 0.0
C651 C 0.41057 0.75789 0.32171 0.0
C652 C 0.38599 0.7669 0.34654 0.0
C653 C 0.37588 0.7625 0.4294 0.0
C654 C 0.39016 0.75041 0.48611 0.0
C655 C 0.4147 0.74235 0.46204 0.0
C656 C 0.42489 0.746 0.38091 0.0
H657 H 0.30723 0.75584 0.24074 0.0
C658 C 0.31481 0.77455 0.28937 0.0
H659 H 0.35452 0.80804 0.36708 0.0
H660 H 0.42719 0.76195 0.07287 0.0
H661 H 0.4035 0.7846 0.97515 0.0
H662 H 0.36712 0.80775 0.02045 0.0
H663 H 0.3533 0.80725 0.16312 0.0
C664 C 0.34709 0.79018 0.31664 0.0
C665 C 0.37197 0.77988 0.28879 0.0
C666 C 0.38162 0.78265 0.20571 0.0
C667 C 0.40471 0.77178 0.18038 0.0
C668 C 0.4115 0.77187 0.09609 0.0
C669 C 0.39781 0.7845 0.03923 0.0
C670 C 0.37718 0.79735 0.06467 0.0
C671 C 0.36917 0.79659 0.14683 0.0
loop_
_geom_bond_atom_site_label_1
_geom_bond_atom_site_label_2
_geom_bond_distance
_geom_bond_site_symmetry_2
_ccdc_geom_bond_type
Sc0 O3 2.025 . S
Sc0 O10 2.105 . S
Sc0 O13 2.105 . S
Sc0 O16 2.105 . S
Sc0 O19 2.105 . S
Sc1 O3 2.025 . S
Sc1 O11 2.105 . S
Sc1 O15 2.105 . S
Sc1 O17 2.105 . S
Sc1 O21 2.105 . S
Sc2 O3 2.025 . S
Sc2 O12 2.105 . S
Sc2 O14 2.105 . S
Sc2 O18 2.105 . S
Sc2 O20 2.105 . S
O3 Sc0 2.025 . S
O3 Sc1 2.025 . S
O3 Sc2 2.025 . S
C4 O10 1.268 . S
C4 O20 1.268 . S
C5 O11 1.268 . S
C5 O19 1.268 . S
C6 O12 1.268 . S
C6 O21 1.268 . S
C7 O13 1.268 . S
C7 O17 1.268 . S
C8 O14 1.268 . S
C8 O16 1.268 . S
C9 O15 1.268 . S
C9 O18 1.268 . S
O10 Sc0 2.105 . S
O10 C4 1.268 . S
O11 Sc1 2.105 . S
O11 C5 1.268 . S
O12 Sc2 2.105 . S
O12 C6 1.268 . S
O13 Sc0 2.105 . S
O13 C7 1.268 . S
O14 Sc2 2.105 . S
O14 C8 1.268 . S
O15 Sc1 2.105 . S
O15 C9 1.268 . S
O16 Sc0 2.105 . S
O16 C8 1.268 . S
O17 Sc1 2.105 . S
O17 C7 1.268 . S
O18 Sc2 2.105 . S
O18 C9 1.268 . S
O19 Sc0 2.105 . S
O19 C5 1.268 . S
O20 Sc2 2.105 . S
O20 C4 1.268 . S
O21 Sc1 2.105 . S
O21 C6 1.268 . S
Sc22 O25 2.025 . S
Sc22 O32 2.105 . S
Sc22 O35 2.105 . S
Sc22 O38 2.105 . S
Sc22 O41 2.105 . S
Sc23 O25 2.025 . S
Sc23 O33 2.105 . S
Sc23 O37 2.105 . S
Sc23 O39 2.105 . S
Sc23 O43 2.105 . S
Sc24 O25 2.025 . S
Sc24 O34 2.105 . S
Sc24 O36 2.105 . S
Sc24 O40 2.105 . S
Sc24 O42 2.105 . S
O25 Sc22 2.025 . S
O25 Sc23 2.025 . S
O25 Sc24 2.025 . S
C26 O32 1.268 . S
C26 O42 1.268 . S
C27 O33 1.268 . S
C27 O41 1.268 . S
C28 O34 1.268 . S
C28 O43 1.268 . S
C29 O35 1.268 . S
C29 O39 1.268 . S
C30 O36 1.268 . S
C30 O38 1.268 . S
C31 O37 1.268 . S
C31 O40 1.268 . S
O32 Sc22 2.105 . S
O32 C26 1.268 . S
O33 Sc23 2.105 . S
O33 C27 1.268 . S
O34 Sc24 2.105 . S
O34 C28 1.268 . S
O35 Sc22 2.105 . S
O35 C29 1.268 . S
O36 Sc24 2.105 . S
O36 C30 1.268 . S
O37 Sc23 2.105 . S
O37 C31 1.268 . S
O38 Sc22 2.105 . S
O38 C30 1.268 . S
O39 Sc23 2.105 . S
O39 C29 1.268 . S
O40 Sc24 2.105 . S
O40 C31 1.268 . S
O41 Sc22 2.105 . S
O41 C27 1.268 . S
O42 Sc24 2.105 . S
O42 C26 1.268 . S
O43 Sc23 2.105 . S
O43 C28 1.268 . S
Sc44 O47 2.025 . S
Sc44 O54 2.105 . S
Sc44 O57 2.105 . S
Sc44 O60 2.105 . S
Sc44 O63 2.105 . S
Sc45 O47 2.025 . S
Sc45 O55 2.105 . S
Sc45 O59 2.105 . S
Sc45 O61 2.105 . S
Sc45 O65 2.105 1_556 S
Sc46 O47 2.034 . S
Sc46 O56 2.095 1_556 S
Sc46 O58 2.113 . S
Sc46 O62 2.107 . S
Sc46 O64 2.102 1_556 S
O47 Sc44 2.025 . S
O47 Sc45 2.025 . S
O47 Sc46 2.034 . S
C48 O54 1.268 . S
C48 O64 1.268 1_556 S
C49 O55 1.268 . S
C49 O63 1.268 . S
C50 O56 1.268 . S
C50 O65 1.268 . S
C51 O57 1.268 . S
C51 O61 1.268 . S
C52 O58 1.268 . S
C52 O60 1.268 . S
C53 O59 1.268 . S
C53 O62 1.268 . S
O54 Sc44 2.105 . S
O54 C48 1.268 . S
O55 Sc45 2.105 . S
O55 C49 1.268 . S
O56 Sc46 2.095 1_554 S
O56 C50 1.268 . S
O57 Sc44 2.105 . S
O57 C51 1.268 . S
O58 Sc46 2.113 . S
O58 C52 1.268 . S
O59 Sc45 2.105 . S
O59 C53 1.268 . S
O60 Sc44 2.105 . S
O60 C52 1.268 . S
O61 Sc45 2.105 . S
O61 C51 1.268 . S
O62 Sc46 2.107 . S
O62 C53 1.268 . S
O63 Sc44 2.105 . S
O63 C49 1.268 . S
O64 Sc46 2.102 1_554 S
O64 C48 1.268 1_554 S
O65 Sc45 2.105 1_554 S
O65 C50 1.268 . S
Sc66 O69 2.034 . S
Sc66 O76 2.113 . S
Sc66 O79 2.096 1_554 S
Sc66 O82 2.102 1_554 S
Sc66 O85 2.107 . S
Sc67 O69 2.025 . S
Sc67 O77 2.105 . S
Sc67 O81 2.105 . S
Sc67 O83 2.105 1_554 S
Sc67 O87 2.105 . S
Sc68 O69 2.025 . S
Sc68 O78 2.105 . S
Sc68 O80 2.105 . S
Sc68 O84 2.105 . S
Sc68 O86 2.105 . S
O69 Sc66 2.034 . S
O69 Sc67 2.025 . S
O69 Sc68 2.025 . S
C70 O76 1.268 . S
C70 O86 1.268 . S
C71 O77 1.268 . S
C71 O85 1.268 . S
C72 O78 1.268 . S
C72 O87 1.268 . S
C73 O79 1.268 . S
C73 O83 1.268 . S
C74 O80 1.268 . S
C74 O82 1.268 1_554 S
C75 O81 1.268 . S
C75 O84 1.268 . S
O76 Sc66 2.113 . S
O76 C70 1.268 . S
O77 Sc67 2.105 . S
O77 C71 1.268 . S
O78 Sc68 2.105 . S
O78 C72 1.268 . S
O79 Sc66 2.096 1_556 S
O79 C73 1.268 . S
O80 Sc68 2.105 . S
O80 C74 1.268 . S
O81 Sc67 2.105 . S
O81 C75 1.268 . S
O82 Sc66 2.102 1_556 S
O82 C74 1.268 1_556 S
O83 Sc67 2.105 1_556 S
O83 C73 1.268 . S
O84 Sc68 2.105 . S
O84 C75 1.268 . S
O85 Sc66 2.107 . S
O85 C71 1.268 . S
O86 Sc68 2.105 . S
O86 C70 1.268 . S
O87 Sc67 2.105 . S
O87 C72 1.268 . S
Sc88 O91 2.025 . S
Sc88 O98 2.105 . S
Sc88 O101 2.105 . S
Sc88 O104 2.105 . S
Sc88 O107 2.105 . S
Sc89 O91 2.025 . S
Sc89 O99 2.105 . S
Sc89 O103 2.105 . S
Sc89 O105 2.105 . S
Sc89 O109 2.105 . S
Sc90 O91 2.025 . S
Sc90 O100 2.105 . S
Sc90 O102 2.105 . S
Sc90 O106 2.105 . S
Sc90 O108 2.105 . S
O91 Sc88 2.025 . S
O91 Sc89 2.025 . S
O91 Sc90 2.025 . S
C92 O98 1.268 . S
C92 O108 1.268 . S
C93 O99 1.268 . S
C93 O107 1.268 . S
C94 O100 1.268 . S
C94 O109 1.268 . S
C95 O101 1.268 . S
C95 O105 1.268 . S
C96 O102 1.268 . S
C96 O104 1.268 . S
C97 O103 1.268 . S
C97 O106 1.268 . S
O98 Sc88 2.105 . S
O98 C92 1.268 . S
O99 Sc89 2.105 . S
O99 C93 1.268 . S
O100 Sc90 2.105 . S
O100 C94 1.268 . S
O101 Sc88 2.105 . S
O101 C95 1.268 . S
O102 Sc90 2.105 . S
O102 C96 1.268 . S
O103 Sc89 2.105 . S
O103 C97 1.268 . S
O104 Sc88 2.105 . S
O104 C96 1.268 . S
O105 Sc89 2.105 . S
O105 C95 1.268 . S
O106 Sc90 2.105 . S
O106 C97 1.268 . S
O107 Sc88 2.105 . S
O107 C93 1.268 . S
O108 Sc90 2.105 . S
O108 C92 1.268 . S
O109 Sc89 2.105 . S
O109 C94 1.268 . S
Sc110 O113 2.025 . S
Sc110 O120 2.105 . S
Sc110 O123 2.105 . S
Sc110 O126 2.105 . S
Sc110 O129 2.105 . S
Sc111 O113 2.025 . S
Sc111 O121 2.105 . S
Sc111 O125 2.105 . S
Sc111 O127 2.105 . S
Sc111 O131 2.105 . S
Sc112 O113 2.025 . S
Sc112 O122 2.105 . S
Sc112 O124 2.105 . S
Sc112 O128 2.105 . S
Sc112 O130 2.105 . S
O113 Sc110 2.025 . S
O113 Sc111 2.025 . S
O113 Sc112 2.025 . S
C114 O120 1.268 . S
C114 O130 1.268 . S
C115 O121 1.268 . S
C115 O129 1.268 . S
C116 O122 1.268 . S
C116 O131 1.268 . S
C117 O123 1.268 . S
C117 O127 1.268 . S
C118 O124 1.268 . S
C118 O126 1.268 . S
C119 O125 1.268 . S
C119 O128 1.268 . S
O120 Sc110 2.105 . S
O120 C114 1.268 . S
O121 Sc111 2.105 . S
O121 C115 1.268 . S
O122 Sc112 2.105 . S
O122 C116 1.268 . S
O123 Sc110 2.105 . S
O123 C117 1.268 . S
O124 Sc112 2.105 . S
O124 C118 1.268 . S
O125 Sc111 2.105 . S
O125 C119 1.268 . S
O126 Sc110 2.105 . S
O126 C118 1.268 . S
O127 Sc111 2.105 . S
O127 C117 1.268 . S
O128 Sc112 2.105 . S
O128 C119 1.268 . S
O129 Sc110 2.105 . S
O129 C115 1.268 . S
O130 Sc112 2.105 . S
O130 C114 1.268 . S
O131 Sc111 2.105 . S
O131 C116 1.268 . S
H132 C133 0.951 . S
C133 H132 0.951 . S
C133 C139 1.265 . S
H134 C139 0.950 . S
H135 C143 0.949 . S
H136 C144 0.944 1_556 S
H137 C145 0.951 . S
H138 C146 0.951 . S
C139 C133 1.265 . S
C139 H134 0.950 . S
C139 C140 1.478 . S
C140 C139 1.478 . S
C140 C141 1.397 . S
C140 C157 1.394 . S
C141 C140 1.397 . S
C141 C142 1.438 . S
C141 C146 1.429 . S
C142 C141 1.438 . S
C142 C143 1.428 1_554 S
C142 C155 1.396 . S
C143 H135 0.949 . S
C143 C142 1.428 1_556 S
C143 C144 1.342 1_556 S
C144 H136 0.944 1_554 S
C144 C143 1.342 1_554 S
C144 C145 1.432 . S
C145 H137 0.951 . S
C145 C144 1.432 . S
C145 C146 1.347 . S
C146 H138 0.951 . S
C146 C141 1.429 . S
C146 C145 1.347 . S
H147 C148 0.951 . S
C148 H147 0.951 . S
C148 C154 1.265 . S
H149 C154 0.950 . S
H150 C158 0.949 . S
H151 C159 0.950 . S
H152 C160 0.951 . S
H153 C161 0.951 1_556 S
C154 C148 1.265 . S
C154 H149 0.950 . S
C154 C155 1.471 1_556 S
C155 C142 1.396 . S
C155 C154 1.471 1_554 S
C155 C156 1.401 . S
C156 C155 1.401 . S
C156 C157 1.438 . S
C156 C161 1.429 . S
C157 C140 1.394 . S
C157 C156 1.438 . S
C157 C158 1.428 . S
C158 H150 0.949 . S
C158 C157 1.428 . S
C158 C159 1.345 . S
C159 H151 0.950 . S
C159 C158 1.345 . S
C159 C160 1.424 . S
C160 H152 0.951 . S
C160 C159 1.424 . S
C160 C161 1.347 . S
C161 H153 0.951 1_554 S
C161 C156 1.429 . S
C161 C160 1.347 . S
H162 C163 0.951 . S
C163 H162 0.951 . S
C163 C169 1.265 . S
H164 C169 0.950 . S
H165 C173 0.949 . S
H166 C174 0.950 . S
H167 C175 0.951 . S
H168 C176 0.951 . S
C169 C163 1.265 . S
C169 H164 0.950 . S
C169 C170 1.478 . S
C170 C169 1.478 . S
C170 C171 1.397 . S
C170 C187 1.394 . S
C171 C170 1.397 . S
C171 C172 1.438 . S
C171 C176 1.429 . S
C172 C171 1.438 . S
C172 C173 1.428 . S
C172 C185 1.394 . S
C173 H165 0.949 . S
C173 C172 1.428 . S
C173 C174 1.345 . S
C174 H166 0.950 . S
C174 C173 1.345 . S
C174 C175 1.424 . S
C175 H167 0.951 . S
C175 C174 1.424 . S
C175 C176 1.347 . S
C176 H168 0.951 . S
C176 C171 1.429 . S
C176 C175 1.347 . S
H177 C178 0.951 . S
C178 H177 0.951 . S
C178 C184 1.265 . S
H179 C184 0.950 . S
H180 C188 0.949 . S
H181 C189 0.950 . S
H182 C190 0.951 . S
H183 C191 0.951 . S
C184 C178 1.265 . S
C184 H179 0.950 . S
C184 C185 1.478 . S
C185 C172 1.394 . S
C185 C184 1.478 . S
C185 C186 1.397 . S
C186 C185 1.397 . S
C186 C187 1.438 . S
C186 C191 1.429 . S
C187 C170 1.394 . S
C187 C186 1.438 . S
C187 C188 1.428 . S
C188 H180 0.949 . S
C188 C187 1.428 . S
C188 C189 1.345 . S
C189 H181 0.950 . S
C189 C188 1.345 . S
C189 C190 1.424 . S
C190 H182 0.951 . S
C190 C189 1.424 . S
C190 C191 1.347 . S
C191 H183 0.951 . S
C191 C186 1.429 . S
C191 C190 1.347 . S
H192 C193 0.951 . S
C193 H192 0.951 . S
C193 C199 1.265 . S
H194 C199 0.950 . S
H195 C203 0.949 . S
H196 C204 0.950 . S
H197 C205 0.951 . S
H198 C206 0.951 . S
C199 C193 1.265 . S
C199 H194 0.950 . S
C199 C200 1.478 . S
C200 C199 1.478 . S
C200 C201 1.397 . S
C200 C217 1.394 . S
C201 C200 1.397 . S
C201 C202 1.438 . S
C201 C206 1.429 . S
C202 C201 1.438 . S
C202 C203 1.428 . S
C202 C215 1.394 . S
C203 H195 0.949 . S
C203 C202 1.428 . S
C203 C204 1.345 . S
C204 H196 0.950 . S
C204 C203 1.345 . S
C204 C205 1.424 . S
C205 H197 0.951 . S
C205 C204 1.424 . S
C205 C206 1.347 . S
C206 H198 0.951 . S
C206 C201 1.429 . S
C206 C205 1.347 . S
H207 C208 0.951 . S
C208 H207 0.951 . S
C208 C214 1.265 . S
H209 C214 0.950 . S
H210 C218 0.949 . S
H211 C219 0.950 . S
H212 C220 0.951 . S
H213 C221 0.951 . S
C214 C208 1.265 . S
C214 H209 0.950 . S
C214 C215 1.478 . S
C215 C202 1.394 . S
C215 C214 1.478 . S
C215 C216 1.397 . S
C216 C215 1.397 . S
C216 C217 1.438 . S
C216 C221 1.429 . S
C217 C200 1.394 . S
C217 C216 1.438 . S
C217 C218 1.428 . S
C218 H210 0.949 . S
C218 C217 1.428 . S
C218 C219 1.345 . S
C219 H211 0.950 . S
C219 C218 1.345 . S
C219 C220 1.424 . S
C220 H212 0.951 . S
C220 C219 1.424 . S
C220 C221 1.347 . S
C221 H213 0.951 . S
C221 C216 1.429 . S
C221 C220 1.347 . S
H222 C223 0.951 . S
C223 H222 0.951 . S
C223 C229 1.265 . S
H224 C229 0.950 . S
H225 C233 0.949 . S
H226 C234 0.950 . S
H227 C235 0.951 . S
H228 C236 0.951 . S
C229 C223 1.265 . S
C229 H224 0.950 . S
C229 C230 1.478 . S
C230 C229 1.478 . S
C230 C231 1.397 . S
C230 C247 1.394 . S
C231 C230 1.397 . S
C231 C232 1.438 . S
C231 C236 1.429 . S
C232 C231 1.438 . S
C232 C233 1.428 . S
C232 C245 1.394 . S
C233 H225 0.949 . S
C233 C232 1.428 . S
C233 C234 1.345 . S
C234 H226 0.950 . S
C234 C233 1.345 . S
C234 C235 1.424 . S
C235 H227 0.951 . S
C235 C234 1.424 . S
C235 C236 1.347 . S
C236 H228 0.951 . S
C236 C231 1.429 . S
C236 C235 1.347 . S
H237 C238 0.951 . S
C238 H237 0.951 . S
C238 C244 1.265 . S
H239 C244 0.950 . S
H240 C248 0.949 . S
H241 C249 0.950 . S
H242 C250 0.951 . S
H243 C251 0.951 . S
C244 C238 1.265 . S
C244 H239 0.950 . S
C244 C245 1.478 . S
C245 C232 1.394 . S
C245 C244 1.478 . S
C245 C246 1.397 . S
C246 C245 1.397 . S
C246 C247 1.438 . S
C246 C251 1.429 . S
C247 C230 1.394 . S
C247 C246 1.438 . S
C247 C248 1.428 . S
C248 H240 0.949 . S
C248 C247 1.428 . S
C248 C249 1.345 . S
C249 H241 0.950 . S
C249 C248 1.345 . S
C249 C250 1.424 . S
C250 H242 0.951 . S
C250 C249 1.424 . S
C250 C251 1.347 . S
C251 H243 0.951 . S
C251 C246 1.429 . S
C251 C250 1.347 . S
H252 C253 0.951 . S
C253 H252 0.951 . S
C253 C259 1.265 . S
H254 C259 0.950 . S
H255 C263 0.949 . S
H256 C264 0.950 . S
H257 C265 0.951 . S
H258 C266 0.951 . S
C259 C253 1.265 . S
C259 H254 0.950 . S
C259 C260 1.478 . S
C260 C259 1.478 . S
C260 C261 1.397 . S
C260 C277 1.394 . S
C261 C260 1.397 . S
C261 C262 1.438 . S
C261 C266 1.429 . S
C262 C261 1.438 . S
C262 C263 1.428 . S
C262 C275 1.394 . S
C263 H255 0.949 . S
C263 C262 1.428 . S
C263 C264 1.345 . S
C264 H256 0.950 . S
C264 C263 1.345 . S
C264 C265 1.424 . S
C265 H257 0.951 . S
C265 C264 1.424 . S
C265 C266 1.347 . S
C266 H258 0.951 . S
C266 C261 1.429 . S
C266 C265 1.347 . S
H267 C268 0.951 . S
C268 H267 0.951 . S
C268 C274 1.265 . S
H269 C274 0.950 . S
H270 C278 0.949 . S
H271 C279 0.950 . S
H272 C280 0.951 . S
H273 C281 0.951 . S
C274 C268 1.265 . S
C274 H269 0.950 . S
C274 C275 1.478 . S
C275 C262 1.394 . S
C275 C274 1.478 . S
C275 C276 1.397 . S
C276 C275 1.397 . S
C276 C277 1.438 . S
C276 C281 1.429 . S
C277 C260 1.394 . S
C277 C276 1.438 . S
C277 C278 1.428 . S
C278 H270 0.949 . S
C278 C277 1.428 . S
C278 C279 1.345 . S
C279 H271 0.950 . S
C279 C278 1.345 . S
C279 C280 1.424 . S
C280 H272 0.951 . S
C280 C279 1.424 . S
C280 C281 1.347 . S
C281 H273 0.951 . S
C281 C276 1.429 . S
C281 C280 1.347 . S
H282 C283 0.951 . S
C283 H282 0.951 . S
C283 C289 1.265 . S
H284 C289 0.950 . S
H285 C293 0.949 . S
H286 C294 0.950 . S
H287 C295 0.951 . S
H288 C296 0.951 1_554 S
C289 C283 1.265 . S
C289 H284 0.950 . S
C289 C290 1.492 . S
C290 C289 1.492 . S
C290 C291 1.388 1_554 S
C290 C307 1.389 1_554 S
C291 C290 1.388 1_556 S
C291 C292 1.438 . S
C291 C296 1.429 . S
C292 C291 1.438 . S
C292 C293 1.428 . S
C292 C305 1.394 . S
C293 H285 0.949 . S
C293 C292 1.428 . S
C293 C294 1.345 . S
C294 H286 0.950 . S
C294 C293 1.345 . S
C294 C295 1.424 . S
C295 H287 0.951 . S
C295 C294 1.424 . S
C295 C296 1.347 . S
C296 H288 0.951 1_556 S
C296 C291 1.429 . S
C296 C295 1.347 . S
H297 C298 0.951 . S
C298 H297 0.951 . S
C298 C304 1.265 . S
H299 C304 0.950 . S
H300 C308 0.949 . S
H301 C309 0.950 1_554 S
H302 C310 0.951 . S
H303 C311 0.951 . S
C304 C298 1.265 . S
C304 H299 0.950 . S
C304 C305 1.478 . S
C305 C292 1.394 . S
C305 C304 1.478 . S
C305 C306 1.397 . S
C306 C305 1.397 . S
C306 C307 1.438 . S
C306 C311 1.429 . S
C307 C290 1.389 1_556 S
C307 C306 1.438 . S
C307 C308 1.428 1_556 S
C308 H300 0.949 . S
C308 C307 1.428 1_554 S
C308 C309 1.345 1_554 S
C309 H301 0.950 1_556 S
C309 C308 1.345 1_556 S
C309 C310 1.424 . S
C310 H302 0.951 . S
C310 C309 1.424 . S
C310 C311 1.347 . S
C311 H303 0.951 . S
C311 C306 1.429 . S
C311 C310 1.347 . S
H312 C313 0.951 . S
C313 H312 0.951 . S
C313 C319 1.265 . S
H314 C319 0.950 . S
H315 C323 0.949 . S
H316 C324 0.950 . S
H317 C325 0.951 . S
H318 C326 0.951 . S
C319 C313 1.265 . S
C319 H314 0.950 . S
C319 C320 1.478 . S
C320 C319 1.478 . S
C320 C321 1.397 . S
C320 C337 1.394 . S
C321 C320 1.397 . S
C321 C322 1.438 1_545 S
C321 C326 1.429 . S
C322 C321 1.438 1_565 S
C322 C323 1.428 . S
C322 C335 1.394 . S
C323 H315 0.949 . S
C323 C322 1.428 . S
C323 C324 1.345 . S
C324 H316 0.950 . S
C324 C323 1.345 . S
C324 C325 1.424 . S
C325 H317 0.951 . S
C325 C324 1.424 . S
C325 C326 1.347 1_565 S
C326 H318 0.951 . S
C326 C321 1.429 . S
C326 C325 1.347 1_545 S
H327 C328 0.951 . S
C328 H327 0.951 . S
C328 C334 1.265 . S
H329 C334 0.950 . S
H330 C338 0.949 . S
H331 C339 0.950 . S
H332 C340 0.951 . S
H333 C341 0.951 . S
C334 C328 1.265 . S
C334 H329 0.950 . S
C334 C335 1.478 . S
C335 C322 1.394 . S
C335 C334 1.478 . S
C335 C336 1.397 . S
C336 C335 1.397 . S
C336 C337 1.438 1_565 S
C336 C341 1.429 . S
C337 C320 1.394 . S
C337 C336 1.438 1_545 S
C337 C338 1.428 . S
C338 H330 0.949 . S
C338 C337 1.428 . S
C338 C339 1.345 . S
C339 H331 0.950 . S
C339 C338 1.345 . S
C339 C340 1.424 . S
C340 H332 0.951 . S
C340 C339 1.424 . S
C340 C341 1.347 1_545 S
C341 H333 0.951 . S
C341 C336 1.429 . S
C341 C340 1.347 1_565 S
H342 C343 0.951 . S
C343 H342 0.951 . S
C343 C349 1.265 . S
H344 C349 0.950 . S
H345 C353 0.949 . S
H346 C354 0.950 . S
H347 C355 0.951 . S
H348 C356 0.951 . S
C349 C343 1.265 . S
C349 H344 0.950 . S
C349 C350 1.478 . S
C350 C349 1.478 . S
C350 C351 1.397 . S
C350 C367 1.394 . S
C351 C350 1.397 . S
C351 C352 1.438 . S
C351 C356 1.429 . S
C352 C351 1.438 . S
C352 C353 1.428 . S
C352 C365 1.394 . S
C353 H345 0.949 . S
C353 C352 1.428 . S
C353 C354 1.345 . S
C354 H346 0.950 . S
C354 C353 1.345 . S
C354 C355 1.424 . S
C355 H347 0.951 . S
C355 C354 1.424 . S
C355 C356 1.347 . S
C356 H348 0.951 . S
C356 C351 1.429 . S
C356 C355 1.347 . S
H357 C358 0.951 . S
C358 H357 0.951 . S
C358 C364 1.265 . S
H359 C364 0.950 . S
H360 C368 0.949 . S
H361 C369 0.950 . S
H362 C370 0.951 . S
H363 C371 0.951 . S
C364 C358 1.265 . S
C364 H359 0.950 . S
C364 C365 1.478 . S
C365 C352 1.394 . S
C365 C364 1.478 . S
C365 C366 1.397 . S
C366 C365 1.397 . S
C366 C367 1.438 . S
C366 C371 1.429 . S
C367 C350 1.394 . S
C367 C366 1.438 . S
C367 C368 1.428 . S
C368 H360 0.949 . S
C368 C367 1.428 . S
C368 C369 1.345 . S
C369 H361 0.950 . S
C369 C368 1.345 . S
C369 C370 1.424 . S
C370 H362 0.951 . S
C370 C369 1.424 . S
C370 C371 1.347 . S
C371 H363 0.951 . S
C371 C366 1.429 . S
C371 C370 1.347 . S
H372 C373 0.951 . S
C373 H372 0.951 . S
C373 C379 1.265 . S
H374 C379 0.950 . S
H375 C383 0.949 . S
H376 C384 0.950 1_554 S
H377 C385 0.951 1_554 S
H378 C386 0.951 . S
C379 C373 1.265 . S
C379 H374 0.950 . S
C379 C380 1.478 . S
C380 C379 1.478 . S
C380 C381 1.397 . S
C380 C397 1.394 . S
C381 C380 1.397 . S
C381 C382 1.438 1_655 S
C381 C386 1.429 . S
C382 C381 1.438 1_455 S
C382 C383 1.428 . S
C382 C395 1.394 . S
C383 H375 0.949 . S
C383 C382 1.428 . S
C383 C384 1.345 . S
C384 H376 0.950 1_556 S
C384 C383 1.345 . S
C384 C385 1.424 . S
C385 H377 0.951 1_556 S
C385 C384 1.424 . S
C385 C386 1.347 1_455 S
C386 H378 0.951 . S
C386 C381 1.429 . S
C386 C385 1.347 1_655 S
H387 C388 0.951 . S
C388 H387 0.951 . S
C388 C394 1.265 . S
H389 C394 0.950 . S
H390 C398 0.949 . S
H391 C399 0.950 . S
H392 C400 0.951 . S
H393 C401 0.951 . S
C394 C388 1.265 . S
C394 H389 0.950 . S
C394 C395 1.478 . S
C395 C382 1.394 . S
C395 C394 1.478 . S
C395 C396 1.397 . S
C396 C395 1.397 . S
C396 C397 1.438 1_455 S
C396 C401 1.429 . S
C397 C380 1.394 . S
C397 C396 1.438 1_655 S
C397 C398 1.428 . S
C398 H390 0.949 . S
C398 C397 1.428 . S
C398 C399 1.345 . S
C399 H391 0.950 . S
C399 C398 1.345 . S
C399 C400 1.424 . S
C400 H392 0.951 . S
C400 C399 1.424 . S
C400 C401 1.347 1_655 S
C401 H393 0.951 . S
C401 C396 1.429 . S
C401 C400 1.347 1_455 S
H402 C403 0.951 . S
C403 H402 0.951 . S
C403 C409 1.265 . S
H404 C409 0.950 . S
H405 C413 0.949 . S
H406 C414 0.950 . S
H407 C415 0.951 . S
H408 C416 0.951 . S
C409 C403 1.265 . S
C409 H404 0.950 . S
C409 C410 1.478 . S
C410 C409 1.478 . S
C410 C411 1.397 1_554 S
C410 C427 1.394 . S
C411 C410 1.397 1_556 S
C411 C412 1.438 1_565 S
C411 C416 1.429 . S
C412 C411 1.438 1_545 S
C412 C413 1.428 . S
C412 C425 1.394 . S
C413 H405 0.949 . S
C413 C412 1.428 . S
C413 C414 1.345 . S
C414 H406 0.950 . S
C414 C413 1.345 . S
C414 C415 1.424 1_545 S
C415 H407 0.951 . S
C415 C414 1.424 1_565 S
C415 C416 1.347 . S
C416 H408 0.951 . S
C416 C411 1.429 . S
C416 C415 1.347 . S
H417 C418 0.951 . S
C418 H417 0.951 . S
C418 C424 1.265 . S
H419 C424 0.950 . S
H420 C428 0.949 . S
H421 C429 0.950 . S
H422 C430 0.951 . S
H423 C431 0.951 . S
C424 C418 1.265 . S
C424 H419 0.950 . S
C424 C425 1.478 . S
C425 C412 1.394 . S
C425 C424 1.478 . S
C425 C426 1.397 1_556 S
C426 C425 1.397 1_554 S
C426 C427 1.438 1_545 S
C426 C431 1.429 . S
C427 C410 1.394 . S
C427 C426 1.438 1_565 S
C427 C428 1.428 . S
C428 H420 0.949 . S
C428 C427 1.428 . S
C428 C429 1.345 . S
C429 H421 0.950 . S
C429 C428 1.345 . S
C429 C430 1.424 1_565 S
C430 H422 0.951 . S
C430 C429 1.424 1_545 S
C430 C431 1.347 . S
C431 H423 0.951 . S
C431 C426 1.429 . S
C431 C430 1.347 . S
H432 C433 0.951 . S
C433 H432 0.951 . S
C433 C439 1.265 . S
H434 C439 0.950 . S
H435 C443 0.949 . S
H436 C444 0.950 . S
H437 C445 0.951 . S
H438 C446 0.951 . S
C439 C433 1.265 . S
C439 H434 0.950 . S
C439 C440 1.478 . S
C440 C439 1.478 . S
C440 C441 1.397 . S
C440 C457 1.394 . S
C441 C440 1.397 . S
C441 C442 1.438 . S
C441 C446 1.429 . S
C442 C441 1.438 . S
C442 C443 1.428 . S
C442 C455 1.394 . S
C443 H435 0.949 . S
C443 C442 1.428 . S
C443 C444 1.345 . S
C444 H436 0.950 . S
C444 C443 1.345 . S
C444 C445 1.424 . S
C445 H437 0.951 . S
C445 C444 1.424 . S
C445 C446 1.347 . S
C446 H438 0.951 . S
C446 C441 1.429 . S
C446 C445 1.347 . S
H447 C448 0.951 . S
C448 H447 0.951 . S
C448 C454 1.265 . S
H449 C454 0.950 . S
H450 C458 0.949 . S
H451 C459 0.950 . S
H452 C460 0.951 . S
H453 C461 0.951 . S
C454 C448 1.265 . S
C454 H449 0.950 . S
C454 C455 1.478 . S
C455 C442 1.394 . S
C455 C454 1.478 . S
C455 C456 1.397 . S
C456 C455 1.397 . S
C456 C457 1.438 . S
C456 C461 1.429 . S
C457 C440 1.394 . S
C457 C456 1.438 . S
C457 C458 1.428 . S
C458 H450 0.949 . S
C458 C457 1.428 . S
C458 C459 1.345 . S
C459 H451 0.950 . S
C459 C458 1.345 . S
C459 C460 1.424 . S
C460 H452 0.951 . S
C460 C459 1.424 . S
C460 C461 1.347 . S
C461 H453 0.951 . S
C461 C456 1.429 . S
C461 C460 1.347 . S
H462 C463 0.951 . S
C463 H462 0.951 . S
C463 C469 1.265 . S
H464 C469 0.950 . S
H465 C473 0.949 . S
H466 C474 0.950 . S
H467 C475 0.951 . S
H468 C476 0.951 . S
C469 C463 1.265 . S
C469 H464 0.950 . S
C469 C470 1.478 . S
C470 C469 1.478 . S
C470 C471 1.397 . S
C470 C487 1.394 . S
C471 C470 1.397 . S
C471 C472 1.438 1_655 S
C471 C476 1.429 . S
C472 C471 1.438 1_455 S
C472 C473 1.428 . S
C472 C485 1.394 . S
C473 H465 0.949 . S
C473 C472 1.428 . S
C473 C474 1.345 . S
C474 H466 0.950 . S
C474 C473 1.345 . S
C474 C475 1.424 1_455 S
C475 H467 0.951 . S
C475 C474 1.424 1_655 S
C475 C476 1.347 . S
C476 H468 0.951 . S
C476 C471 1.429 . S
C476 C475 1.347 . S
H477 C478 0.951 . S
C478 H477 0.951 . S
C478 C484 1.265 . S
H479 C484 0.950 . S
H480 C488 0.949 . S
H481 C489 0.950 . S
H482 C490 0.951 . S
H483 C491 0.951 . S
C484 C478 1.265 . S
C484 H479 0.950 . S
C484 C485 1.478 . S
C485 C472 1.394 . S
C485 C484 1.478 . S
C485 C486 1.397 . S
C486 C485 1.397 . S
C486 C487 1.438 1_455 S
C486 C491 1.429 . S
C487 C470 1.394 . S
C487 C486 1.438 1_655 S
C487 C488 1.428 . S
C488 H480 0.949 . S
C488 C487 1.428 . S
C488 C489 1.345 . S
C489 H481 0.950 . S
C489 C488 1.345 . S
C489 C490 1.424 1_655 S
C490 H482 0.951 . S
C490 C489 1.424 1_455 S
C490 C491 1.347 . S
C491 H483 0.951 . S
C491 C486 1.429 . S
C491 C490 1.347 . S
H492 C493 0.951 . S
C493 H492 0.951 . S
C493 C499 1.265 . S
H494 C499 0.950 . S
H495 C503 0.949 . S
H496 C504 0.950 . S
H497 C505 0.951 . S
H498 C506 0.951 . S
C499 C493 1.265 . S
C499 H494 0.950 . S
C499 C500 1.478 . S
C500 C499 1.478 . S
C500 C501 1.397 . S
C500 C517 1.394 . S
C501 C500 1.397 . S
C501 C502 1.438 . S
C501 C506 1.429 . S
C502 C501 1.438 . S
C502 C503 1.428 . S
C502 C515 1.394 . S
C503 H495 0.949 . S
C503 C502 1.428 . S
C503 C504 1.345 . S
C504 H496 0.950 . S
C504 C503 1.345 . S
C504 C505 1.424 . S
C505 H497 0.951 . S
C505 C504 1.424 . S
C505 C506 1.347 . S
C506 H498 0.951 . S
C506 C501 1.429 . S
C506 C505 1.347 . S
H507 C508 0.951 . S
C508 H507 0.951 . S
C508 C514 1.265 . S
H509 C514 0.950 . S
H510 C518 0.949 . S
H511 C519 0.950 . S
H512 C520 0.951 . S
H513 C521 0.951 . S
C514 C508 1.265 . S
C514 H509 0.950 . S
C514 C515 1.478 . S
C515 C502 1.394 . S
C515 C514 1.478 . S
C515 C516 1.397 . S
C516 C515 1.397 . S
C516 C517 1.438 . S
C516 C521 1.429 . S
C517 C500 1.394 . S
C517 C516 1.438 . S
C517 C518 1.428 . S
C518 H510 0.949 . S
C518 C517 1.428 . S
C518 C519 1.345 . S
C519 H511 0.950 . S
C519 C518 1.345 . S
C519 C520 1.424 . S
C520 H512 0.951 . S
C520 C519 1.424 . S
C520 C521 1.347 . S
C521 H513 0.951 . S
C521 C516 1.429 . S
C521 C520 1.347 . S
H522 C523 0.951 . S
C523 H522 0.951 . S
C523 C529 1.265 . S
H524 C529 0.950 . S
H525 C533 0.949 . S
H526 C534 0.950 . S
H527 C535 0.951 . S
H528 C536 0.951 . S
C529 C523 1.265 . S
C529 H524 0.950 . S
C529 C530 1.478 . S
C530 C529 1.478 . S
C530 C531 1.397 . S
C530 C547 1.394 . S
C531 C530 1.397 . S
C531 C532 1.438 . S
C531 C536 1.429 . S
C532 C531 1.438 . S
C532 C533 1.428 . S
C532 C545 1.394 . S
C533 H525 0.949 . S
C533 C532 1.428 . S
C533 C534 1.345 . S
C534 H526 0.950 . S
C534 C533 1.345 . S
C534 C535 1.424 . S
C535 H527 0.951 . S
C535 C534 1.424 . S
C535 C536 1.347 . S
C536 H528 0.951 . S
C536 C531 1.429 . S
C536 C535 1.347 . S
H537 C538 0.951 . S
C538 H537 0.951 . S
C538 C544 1.265 . S
H539 C544 0.950 . S
H540 C548 0.949 . S
H541 C549 0.950 . S
H542 C550 0.951 . S
H543 C551 0.951 . S
C544 C538 1.265 . S
C544 H539 0.950 . S
C544 C545 1.478 . S
C545 C532 1.394 . S
C545 C544 1.478 . S
C545 C546 1.397 . S
C546 C545 1.397 . S
C546 C547 1.438 . S
C546 C551 1.429 . S
C547 C530 1.394 . S
C547 C546 1.438 . S
C547 C548 1.428 . S
C548 H540 0.949 . S
C548 C547 1.428 . S
C548 C549 1.345 . S
C549 H541 0.950 . S
C549 C548 1.345 . S
C549 C550 1.424 . S
C550 H542 0.951 . S
C550 C549 1.424 . S
C550 C551 1.347 . S
C551 H543 0.951 . S
C551 C546 1.429 . S
C551 C550 1.347 . S
H552 C553 0.951 . S
C553 H552 0.951 . S
C553 C559 1.265 . S
H554 C559 0.950 . S
H555 C563 0.949 . S
H556 C564 0.950 . S
H557 C565 0.951 . S
H558 C566 0.951 . S
C559 C553 1.265 . S
C559 H554 0.950 . S
C559 C560 1.478 . S
C560 C559 1.478 . S
C560 C561 1.397 . S
C560 C577 1.394 . S
C561 C560 1.397 . S
C561 C562 1.438 . S
C561 C566 1.429 . S
C562 C561 1.438 . S
C562 C563 1.428 . S
C562 C575 1.394 . S
C563 H555 0.949 . S
C563 C562 1.428 . S
C563 C564 1.345 . S
C564 H556 0.950 . S
C564 C563 1.345 . S
C564 C565 1.424 . S
C565 H557 0.951 . S
C565 C564 1.424 . S
C565 C566 1.347 . S
C566 H558 0.951 . S
C566 C561 1.429 . S
C566 C565 1.347 . S
H567 C568 0.951 . S
C568 H567 0.951 . S
C568 C574 1.265 . S
H569 C574 0.950 . S
H570 C578 0.949 . S
H571 C579 0.950 . S
H572 C580 0.951 . S
H573 C581 0.951 . S
C574 C568 1.265 . S
C574 H569 0.950 . S
C574 C575 1.478 . S
C575 C562 1.394 . S
C575 C574 1.478 . S
C575 C576 1.397 . S
C576 C575 1.397 . S
C576 C577 1.438 . S
C576 C581 1.429 . S
C577 C560 1.394 . S
C577 C576 1.438 . S
C577 C578 1.428 . S
C578 H570 0.949 . S
C578 C577 1.428 . S
C578 C579 1.345 . S
C579 H571 0.950 . S
C579 C578 1.345 . S
C579 C580 1.424 . S
C580 H572 0.951 . S
C580 C579 1.424 . S
C580 C581 1.347 . S
C581 H573 0.951 . S
C581 C576 1.429 . S
C581 C580 1.347 . S
H582 C583 0.951 . S
C583 H582 0.951 . S
C583 C589 1.265 . S
H584 C589 0.950 1_554 S
H585 C593 0.949 . S
H586 C594 0.950 . S
H587 C595 0.951 . S
H588 C596 0.951 . S
C589 C583 1.265 . S
C589 H584 0.950 1_556 S
C589 C590 1.478 . S
C590 C589 1.478 . S
C590 C591 1.397 . S
C590 C607 1.394 . S
C591 C590 1.397 . S
C591 C592 1.438 . S
C591 C596 1.429 . S
C592 C591 1.438 . S
C592 C593 1.428 . S
C592 C605 1.394 . S
C593 H585 0.949 . S
C593 C592 1.428 . S
C593 C594 1.345 . S
C594 H586 0.950 . S
C594 C593 1.345 . S
C594 C595 1.424 . S
C595 H587 0.951 . S
C595 C594 1.424 . S
C595 C596 1.347 . S
C596 H588 0.951 . S
C596 C591 1.429 . S
C596 C595 1.347 . S
H597 C598 0.951 . S
C598 H597 0.951 . S
C598 C604 1.265 . S
H599 C604 0.950 . S
H600 C608 0.949 . S
H601 C609 0.950 . S
H602 C610 0.951 . S
H603 C611 0.951 . S
C604 C598 1.265 . S
C604 H599 0.950 . S
C604 C605 1.478 . S
C605 C592 1.394 . S
C605 C604 1.478 . S
C605 C606 1.397 . S
C606 C605 1.397 . S
C606 C607 1.438 . S
C606 C611 1.429 . S
C607 C590 1.394 . S
C607 C606 1.438 . S
C607 C608 1.428 1_556 S
C608 H600 0.949 . S
C608 C607 1.428 1_554 S
C608 C609 1.345 . S
C609 H601 0.950 . S
C609 C608 1.345 . S
C609 C610 1.424 . S
C610 H602 0.951 . S
C610 C609 1.424 . S
C610 C611 1.347 1_554 S
C611 H603 0.951 . S
C611 C606 1.429 . S
C611 C610 1.347 1_556 S
H612 C613 0.951 . S
C613 H612 0.951 . S
C613 C619 1.265 . S
H614 C619 0.950 . S
H615 C623 0.949 . S
H616 C624 0.950 . S
H617 C625 0.951 . S
H618 C626 0.951 . S
C619 C613 1.265 . S
C619 H614 0.950 . S
C619 C620 1.478 . S
C620 C619 1.478 . S
C620 C621 1.397 . S
C620 C637 1.394 . S
C621 C620 1.397 . S
C621 C622 1.438 . S
C621 C626 1.429 1_554 S
C622 C621 1.438 . S
C622 C623 1.428 1_554 S
C622 C635 1.394 . S
C623 H615 0.949 . S
C623 C622 1.428 1_556 S
C623 C624 1.345 . S
C624 H616 0.950 . S
C624 C623 1.345 . S
C624 C625 1.424 . S
C625 H617 0.951 . S
C625 C624 1.424 . S
C625 C626 1.347 . S
C626 H618 0.951 . S
C626 C621 1.429 1_556 S
C626 C625 1.347 . S
H627 C628 0.950 1_556 S
C628 H627 0.950 1_554 S
C628 C634 1.265 . S
H629 C634 0.950 . S
H630 C638 0.949 . S
H631 C639 0.950 . S
H632 C640 0.951 . S
H633 C641 0.951 . S
C634 C628 1.265 . S
C634 H629 0.950 . S
C634 C635 1.478 . S
C635 C622 1.394 . S
C635 C634 1.478 . S
C635 C636 1.397 . S
C636 C635 1.397 . S
C636 C637 1.438 . S
C636 C641 1.429 . S
C637 C620 1.394 . S
C637 C636 1.438 . S
C637 C638 1.428 . S
C638 H630 0.949 . S
C638 C637 1.428 . S
C638 C639 1.345 . S
C639 H631 0.950 . S
C639 C638 1.345 . S
C639 C640 1.424 . S
C640 H632 0.951 . S
C640 C639 1.424 . S
C640 C641 1.347 . S
C641 H633 0.951 . S
C641 C636 1.429 . S
C641 C640 1.347 . S
H642 C643 0.951 . S
C643 H642 0.951 . S
C643 C649 1.265 . S
H644 C649 0.950 . S
H645 C653 0.949 . S
H646 C654 0.950 . S
H647 C655 0.951 . S
H648 C656 0.951 . S
C649 C643 1.265 . S
C649 H644 0.950 . S
C649 C650 1.478 . S
C650 C649 1.478 . S
C650 C651 1.397 . S
C650 C667 1.394 . S
C651 C650 1.397 . S
C651 C652 1.438 . S
C651 C656 1.429 . S
C652 C651 1.438 . S
C652 C653 1.428 . S
C652 C665 1.394 . S
C653 H645 0.949 . S
C653 C652 1.428 . S
C653 C654 1.345 . S
C654 H646 0.950 . S
C654 C653 1.345 . S
C654 C655 1.424 . S
C655 H647 0.951 . S
C655 C654 1.424 . S
C655 C656 1.347 . S
C656 H648 0.951 . S
C656 C651 1.429 . S
C656 C655 1.347 . S
H657 C658 0.951 . S
C658 H657 0.951 . S
C658 C664 1.265 . S
H659 C664 0.950 . S
H660 C668 0.949 . S
H661 C669 0.950 . S
H662 C670 0.951 . S
H663 C671 0.951 . S
C664 C658 1.265 . S
C664 H659 0.950 . S
C664 C665 1.478 . S
C665 C652 1.394 . S
C665 C664 1.478 . S
C665 C666 1.397 . S
C666 C665 1.397 . S
C666 C667 1.438 . S
C666 C671 1.429 . S
C667 C650 1.394 . S
C667 C666 1.438 . S
C667 C668 1.428 . S
C668 H660 0.949 . S
C668 C667 1.428 . S
C668 C669 1.345 . S
C669 H661 0.950 . S
C669 C668 1.345 . S
C669 C670 1.424 . S
C670 H662 0.951 . S
C670 C669 1.424 . S
C670 C671 1.347 . S
C671 H663 0.951 . S
C671 C666 1.429 . S
C671 C670 1.347 . S
C133 C7 1.421 . S
C148 C6 1.461 . S
C163 C29 1.419 . S
C178 C28 1.419 1_554 S
C193 C50 1.433 . S
C208 C51 1.477 . S
C223 C72 1.466 . S
C238 C73 1.424 . S
C253 C94 1.420 . S
C268 C95 1.418 1_556 S
C283 C117 1.462 . S
C298 C116 1.502 . S
C313 C5 1.626 . S
C328 C119 1.668 . S
C343 C9 1.654 . S
C358 C27 1.616 . S
C373 C49 1.639 . S
C388 C31 1.678 . S
C403 C71 1.673 . S
C418 C53 1.632 . S
C433 C93 1.685 . S
C448 C75 1.677 . S
C463 C97 1.672 . S
C478 C115 1.631 . S
C493 C8 1.199 . S
C508 C92 1.271 . S
C523 C30 1.260 . S
C538 C114 1.192 . S
C553 C52 1.278 . S
C568 C4 1.271 . S
C583 C74 1.288 1_556 S
C598 C26 1.231 . S
C613 C96 1.255 . S
C628 C48 1.189 1_554 S
C643 C70 1.232 . S
C658 C118 1.186 . S
