# Generated by pormake.
# Topology sou, (8)-cn, num edge types: 1
# Building blocks:
#     Node 0, Type 0, BuildingBlock: EBIMEJ_clean_sbu_0, # of connection points: 8
#     Node 1, Type 0, BuildingBlock: EBIMEJ_clean_sbu_0, # of connection points: 8
#     Node 2, Type 0, BuildingBlock: EBIMEJ_clean_sbu_0, # of connection points: 8
#     Node 3, Type 0, BuildingBlock: EBIMEJ_clean_sbu_0, # of connection points: 8
#     Node 4, Type 0, BuildingBlock: EBIMEJ_clean_sbu_0, # of connection points: 8
#     Node 5, Type 0, BuildingBlock: EBIMEJ_clean_sbu_0, # of connection points: 8
#     Node 6, Type 0, BuildingBlock: EBIMEJ_clean_sbu_0, # of connection points: 8
#     Node 7, Type 0, BuildingBlock: EBIMEJ_clean_sbu_0, # of connection points: 8
#     Node 8, Type 0, BuildingBlock: EBIMEJ_clean_sbu_0, # of connection points: 8
#     Node 9, Type 0, BuildingBlock: EBIMEJ_clean_sbu_0, # of connection points: 8
#     Node 10, Type 0, BuildingBlock: EBIMEJ_clean_sbu_0, # of connection points: 8
#     Node 11, Type 0, BuildingBlock: EBIMEJ_clean_sbu_0, # of connection points: 8
#     Node 12, Type 0, BuildingBlock: EBIMEJ_clean_sbu_0, # of connection points: 8
#     Node 13, Type 0, BuildingBlock: EBIMEJ_clean_sbu_0, # of connection points: 8
#     Node 14, Type 0, BuildingBlock: EBIMEJ_clean_sbu_0, # of connection points: 8
#     Node 15, Type 0, BuildingBlock: EBIMEJ_clean_sbu_0, # of connection points: 8
#     Node 16, Type 0, BuildingBlock: EBIMEJ_clean_sbu_0, # of connection points: 8
#     Node 17, Type 0, BuildingBlock: EBIMEJ_clean_sbu_0, # of connection points: 8
#     Node 18, Type 0, BuildingBlock: EBIMEJ_clean_sbu_0, # of connection points: 8
#     Node 19, Type 0, BuildingBlock: EBIMEJ_clean_sbu_0, # of connection points: 8
#     Node 20, Type 0, BuildingBlock: EBIMEJ_clean_sbu_0, # of connection points: 8
#     Node 21, Type 0, BuildingBlock: EBIMEJ_clean_sbu_0, # of connection points: 8
#     Node 22, Type 0, BuildingBlock: EBIMEJ_clean_sbu_0, # of connection points: 8
#     Node 23, Type 0, BuildingBlock: EBIMEJ_clean_sbu_0, # of connection points: 8
#     Node 24, Type 0, BuildingBlock: EBIMEJ_clean_sbu_0, # of connection points: 8
#     Node 25, Type 0, BuildingBlock: EBIMEJ_clean_sbu_0, # of connection points: 8
#     Node 26, Type 0, BuildingBlock: EBIMEJ_clean_sbu_0, # of connection points: 8
#     Node 27, Type 0, BuildingBlock: EBIMEJ_clean_sbu_0, # of connection points: 8
#     Node 28, Type 0, BuildingBlock: EBIMEJ_clean_sbu_0, # of connection points: 8
#     Node 29, Type 0, BuildingBlock: EBIMEJ_clean_sbu_0, # of connection points: 8
#     Node 30, Type 0, BuildingBlock: EBIMEJ_clean_sbu_0, # of connection points: 8
#     Node 31, Type 0, BuildingBlock: EBIMEJ_clean_sbu_0, # of connection points: 8
#     Edge 32, Type (0, 0), BuildingBlock: XIVTED_clean_linker_0, # of connection points: 2
#     Edge 33, Type (0, 0), BuildingBlock: XIVTED_clean_linker_0, # of connection points: 2
#     Edge 34, Type (0, 0), BuildingBlock: XIVTED_clean_linker_0, # of connection points: 2
#     Edge 35, Type (0, 0), BuildingBlock: XIVTED_clean_linker_0, # of connection points: 2
#     Edge 36, Type (0, 0), BuildingBlock: XIVTED_clean_linker_0, # of connection points: 2
#     Edge 37, Type (0, 0), BuildingBlock: XIVTED_clean_linker_0, # of connection points: 2
#     Edge 38, Type (0, 0), BuildingBlock: XIVTED_clean_linker_0, # of connection points: 2
#     Edge 39, Type (0, 0), BuildingBlock: XIVTED_clean_linker_0, # of connection points: 2
#     Edge 40, Type (0, 0), BuildingBlock: XIVTED_clean_linker_0, # of connection points: 2
#     Edge 41, Type (0, 0), BuildingBlock: XIVTED_clean_linker_0, # of connection points: 2
#     Edge 42, Type (0, 0), BuildingBlock: XIVTED_clean_linker_0, # of connection points: 2
#     Edge 43, Type (0, 0), BuildingBlock: XIVTED_clean_linker_0, # of connection points: 2
#     Edge 44, Type (0, 0), BuildingBlock: XIVTED_clean_linker_0, # of connection points: 2
#     Edge 45, Type (0, 0), BuildingBlock: XIVTED_clean_linker_0, # of connection points: 2
#     Edge 46, Type (0, 0), BuildingBlock: XIVTED_clean_linker_0, # of connection points: 2
#     Edge 47, Type (0, 0), BuildingBlock: XIVTED_clean_linker_0, # of connection points: 2
#     Edge 48, Type (0, 0), BuildingBlock: XIVTED_clean_linker_0, # of connection points: 2
#     Edge 49, Type (0, 0), BuildingBlock: XIVTED_clean_linker_0, # of connection points: 2
#     Edge 50, Type (0, 0), BuildingBlock: XIVTED_clean_linker_0, # of connection points: 2
#     Edge 51, Type (0, 0), BuildingBlock: XIVTED_clean_linker_0, # of connection points: 2
#     Edge 52, Type (0, 0), BuildingBlock: XIVTED_clean_linker_0, # of connection points: 2
#     Edge 53, Type (0, 0), BuildingBlock: XIVTED_clean_linker_0, # of connection points: 2
#     Edge 54, Type (0, 0), BuildingBlock: XIVTED_clean_linker_0, # of connection points: 2
#     Edge 55, Type (0, 0), BuildingBlock: XIVTED_clean_linker_0, # of connection points: 2
#     Edge 56, Type (0, 0), BuildingBlock: XIVTED_clean_linker_0, # of connection points: 2
#     Edge 57, Type (0, 0), BuildingBlock: XIVTED_clean_linker_0, # of connection points: 2
#     Edge 58, Type (0, 0), BuildingBlock: XIVTED_clean_linker_0, # of connection points: 2
#     Edge 59, Type (0, 0), BuildingBlock: XIVTED_clean_linker_0, # of connection points: 2
#     Edge 60, Type (0, 0), BuildingBlock: XIVTED_clean_linker_0, # of connection points: 2
#     Edge 61, Type (0, 0), BuildingBlock: XIVTED_clean_linker_0, # of connection points: 2
#     Edge 62, Type (0, 0), BuildingBlock: XIVTED_clean_linker_0, # of connection points: 2
#     Edge 63, Type (0, 0), BuildingBlock: XIVTED_clean_linker_0, # of connection points: 2
#     Edge 64, Type (0, 0), BuildingBlock: XIVTED_clean_linker_0, # of connection points: 2
#     Edge 65, Type (0, 0), BuildingBlock: XIVTED_clean_linker_0, # of connection points: 2
#     Edge 66, Type (0, 0), BuildingBlock: XIVTED_clean_linker_0, # of connection points: 2
#     Edge 67, Type (0, 0), BuildingBlock: XIVTED_clean_linker_0, # of connection points: 2
#     Edge 68, Type (0, 0), BuildingBlock: XIVTED_clean_linker_0, # of connection points: 2
#     Edge 69, Type (0, 0), BuildingBlock: XIVTED_clean_linker_0, # of connection points: 2
#     Edge 70, Type (0, 0), BuildingBlock: XIVTED_clean_linker_0, # of connection points: 2
#     Edge 71, Type (0, 0), BuildingBlock: XIVTED_clean_linker_0, # of connection points: 2
#     Edge 72, Type (0, 0), BuildingBlock: XIVTED_clean_linker_0, # of connection points: 2
#     Edge 73, Type (0, 0), BuildingBlock: XIVTED_clean_linker_0, # of connection points: 2
#     Edge 74, Type (0, 0), BuildingBlock: XIVTED_clean_linker_0, # of connection points: 2
#     Edge 75, Type (0, 0), BuildingBlock: XIVTED_clean_linker_0, # of connection points: 2
#     Edge 76, Type (0, 0), BuildingBlock: XIVTED_clean_linker_0, # of connection points: 2
#     Edge 77, Type (0, 0), BuildingBlock: XIVTED_clean_linker_0, # of connection points: 2
#     Edge 78, Type (0, 0), BuildingBlock: XIVTED_clean_linker_0, # of connection points: 2
#     Edge 79, Type (0, 0), BuildingBlock: XIVTED_clean_linker_0, # of connection points: 2
#     Edge 80, Type (0, 0), BuildingBlock: XIVTED_clean_linker_0, # of connection points: 2
#     Edge 81, Type (0, 0), BuildingBlock: XIVTED_clean_linker_0, # of connection points: 2
#     Edge 82, Type (0, 0), BuildingBlock: XIVTED_clean_linker_0, # of connection points: 2
#     Edge 83, Type (0, 0), BuildingBlock: XIVTED_clean_linker_0, # of connection points: 2
#     Edge 84, Type (0, 0), BuildingBlock: XIVTED_clean_linker_0, # of connection points: 2
#     Edge 85, Type (0, 0), BuildingBlock: XIVTED_clean_linker_0, # of connection points: 2
#     Edge 86, Type (0, 0), BuildingBlock: XIVTED_clean_linker_0, # of connection points: 2
#     Edge 87, Type (0, 0), BuildingBlock: XIVTED_clean_linker_0, # of connection points: 2
#     Edge 88, Type (0, 0), BuildingBlock: XIVTED_clean_linker_0, # of connection points: 2
#     Edge 89, Type (0, 0), BuildingBlock: XIVTED_clean_linker_0, # of connection points: 2
#     Edge 90, Type (0, 0), BuildingBlock: XIVTED_clean_linker_0, # of connection points: 2
#     Edge 91, Type (0, 0), BuildingBlock: XIVTED_clean_linker_0, # of connection points: 2
#     Edge 92, Type (0, 0), BuildingBlock: XIVTED_clean_linker_0, # of connection points: 2
#     Edge 93, Type (0, 0), BuildingBlock: XIVTED_clean_linker_0, # of connection points: 2
#     Edge 94, Type (0, 0), BuildingBlock: XIVTED_clean_linker_0, # of connection points: 2
#     Edge 95, Type (0, 0), BuildingBlock: XIVTED_clean_linker_0, # of connection points: 2
#     Edge 96, Type (0, 0), BuildingBlock: XIVTED_clean_linker_0, # of connection points: 2
#     Edge 97, Type (0, 0), BuildingBlock: XIVTED_clean_linker_0, # of connection points: 2
#     Edge 98, Type (0, 0), BuildingBlock: XIVTED_clean_linker_0, # of connection points: 2
#     Edge 99, Type (0, 0), BuildingBlock: XIVTED_clean_linker_0, # of connection points: 2
#     Edge 100, Type (0, 0), BuildingBlock: XIVTED_clean_linker_0, # of connection points: 2
#     Edge 101, Type (0, 0), BuildingBlock: XIVTED_clean_linker_0, # of connection points: 2
#     Edge 102, Type (0, 0), BuildingBlock: XIVTED_clean_linker_0, # of connection points: 2
#     Edge 103, Type (0, 0), BuildingBlock: XIVTED_clean_linker_0, # of connection points: 2
#     Edge 104, Type (0, 0), BuildingBlock: XIVTED_clean_linker_0, # of connection points: 2
#     Edge 105, Type (0, 0), BuildingBlock: XIVTED_clean_linker_0, # of connection points: 2
#     Edge 106, Type (0, 0), BuildingBlock: XIVTED_clean_linker_0, # of connection points: 2
#     Edge 107, Type (0, 0), BuildingBlock: XIVTED_clean_linker_0, # of connection points: 2
#     Edge 108, Type (0, 0), BuildingBlock: XIVTED_clean_linker_0, # of connection points: 2
#     Edge 109, Type (0, 0), BuildingBlock: XIVTED_clean_linker_0, # of connection points: 2
#     Edge 110, Type (0, 0), BuildingBlock: XIVTED_clean_linker_0, # of connection points: 2
#     Edge 111, Type (0, 0), BuildingBlock: XIVTED_clean_linker_0, # of connection points: 2
#     Edge 112, Type (0, 0), BuildingBlock: XIVTED_clean_linker_0, # of connection points: 2
#     Edge 113, Type (0, 0), BuildingBlock: XIVTED_clean_linker_0, # of connection points: 2
#     Edge 114, Type (0, 0), BuildingBlock: XIVTED_clean_linker_0, # of connection points: 2
#     Edge 115, Type (0, 0), BuildingBlock: XIVTED_clean_linker_0, # of connection points: 2
#     Edge 116, Type (0, 0), BuildingBlock: XIVTED_clean_linker_0, # of connection points: 2
#     Edge 117, Type (0, 0), BuildingBlock: XIVTED_clean_linker_0, # of connection points: 2
#     Edge 118, Type (0, 0), BuildingBlock: XIVTED_clean_linker_0, # of connection points: 2
#     Edge 119, Type (0, 0), BuildingBlock: XIVTED_clean_linker_0, # of connection points: 2
#     Edge 120, Type (0, 0), BuildingBlock: XIVTED_clean_linker_0, # of connection points: 2
#     Edge 121, Type (0, 0), BuildingBlock: XIVTED_clean_linker_0, # of connection points: 2
#     Edge 122, Type (0, 0), BuildingBlock: XIVTED_clean_linker_0, # of connection points: 2
#     Edge 123, Type (0, 0), BuildingBlock: XIVTED_clean_linker_0, # of connection points: 2
#     Edge 124, Type (0, 0), BuildingBlock: XIVTED_clean_linker_0, # of connection points: 2
#     Edge 125, Type (0, 0), BuildingBlock: XIVTED_clean_linker_0, # of connection points: 2
#     Edge 126, Type (0, 0), BuildingBlock: XIVTED_clean_linker_0, # of connection points: 2
#     Edge 127, Type (0, 0), BuildingBlock: XIVTED_clean_linker_0, # of connection points: 2
#     Edge 128, Type (0, 0), BuildingBlock: XIVTED_clean_linker_0, # of connection points: 2
#     Edge 129, Type (0, 0), BuildingBlock: XIVTED_clean_linker_0, # of connection points: 2
#     Edge 130, Type (0, 0), BuildingBlock: XIVTED_clean_linker_0, # of connection points: 2
#     Edge 131, Type (0, 0), BuildingBlock: XIVTED_clean_linker_0, # of connection points: 2
#     Edge 132, Type (0, 0), BuildingBlock: XIVTED_clean_linker_0, # of connection points: 2
#     Edge 133, Type (0, 0), BuildingBlock: XIVTED_clean_linker_0, # of connection points: 2
#     Edge 134, Type (0, 0), BuildingBlock: XIVTED_clean_linker_0, # of connection points: 2
#     Edge 135, Type (0, 0), BuildingBlock: XIVTED_clean_linker_0, # of connection points: 2
#     Edge 136, Type (0, 0), BuildingBlock: XIVTED_clean_linker_0, # of connection points: 2
#     Edge 137, Type (0, 0), BuildingBlock: XIVTED_clean_linker_0, # of connection points: 2
#     Edge 138, Type (0, 0), BuildingBlock: XIVTED_clean_linker_0, # of connection points: 2
#     Edge 139, Type (0, 0), BuildingBlock: XIVTED_clean_linker_0, # of connection points: 2
#     Edge 140, Type (0, 0), BuildingBlock: XIVTED_clean_linker_0, # of connection points: 2
#     Edge 141, Type (0, 0), BuildingBlock: XIVTED_clean_linker_0, # of connection points: 2
#     Edge 142, Type (0, 0), BuildingBlock: XIVTED_clean_linker_0, # of connection points: 2
#     Edge 143, Type (0, 0), BuildingBlock: XIVTED_clean_linker_0, # of connection points: 2
#     Edge 144, Type (0, 0), BuildingBlock: XIVTED_clean_linker_0, # of connection points: 2
#     Edge 145, Type (0, 0), BuildingBlock: XIVTED_clean_linker_0, # of connection points: 2
#     Edge 146, Type (0, 0), BuildingBlock: XIVTED_clean_linker_0, # of connection points: 2
#     Edge 147, Type (0, 0), BuildingBlock: XIVTED_clean_linker_0, # of connection points: 2
#     Edge 148, Type (0, 0), BuildingBlock: XIVTED_clean_linker_0, # of connection points: 2
#     Edge 149, Type (0, 0), BuildingBlock: XIVTED_clean_linker_0, # of connection points: 2
#     Edge 150, Type (0, 0), BuildingBlock: XIVTED_clean_linker_0, # of connection points: 2
#     Edge 151, Type (0, 0), BuildingBlock: XIVTED_clean_linker_0, # of connection points: 2
#     Edge 152, Type (0, 0), BuildingBlock: XIVTED_clean_linker_0, # of connection points: 2
#     Edge 153, Type (0, 0), BuildingBlock: XIVTED_clean_linker_0, # of connection points: 2
#     Edge 154, Type (0, 0), BuildingBlock: XIVTED_clean_linker_0, # of connection points: 2
#     Edge 155, Type (0, 0), BuildingBlock: XIVTED_clean_linker_0, # of connection points: 2
#     Edge 156, Type (0, 0), BuildingBlock: XIVTED_clean_linker_0, # of connection points: 2
#     Edge 157, Type (0, 0), BuildingBlock: XIVTED_clean_linker_0, # of connection points: 2
#     Edge 158, Type (0, 0), BuildingBlock: XIVTED_clean_linker_0, # of connection points: 2
#     Edge 159, Type (0, 0), BuildingBlock: XIVTED_clean_linker_0, # of connection points: 2
# Relax obj value: 0.100
# Max RMSD: 0.247
# Mean RMSD: 0.187
data_MOF--net-sou--node1-EBIMEJ_clean_sbu_0--edge1-XIVTED_clean_linker_0
_symmetry_space_group_name_H-M    P1
_symmetry_Int_Tables_number       1
_symmetry_cell_setting            triclinic
loop_
_symmetry_equiv_pos_as_xyz
'x, y, z'
_cell_length_a     66.445632
_cell_length_b     43.462368
_cell_length_c     44.2376
_cell_angle_alpha  88.600842
_cell_angle_beta   96.81271
_cell_angle_gamma 94.413132
loop_
_atom_site_label
_atom_site_type_symbol
_atom_site_fract_x
_atom_site_fract_y
_atom_site_fract_z
_atom_type_partial_charge
Co0 Co 0.98067 0.26527 0.00731 0.0
Co1 Co 1.00371 0.33424 -7e-05 0.0
Co2 Co 0.02642 0.28506 0.03431 0.0
H3 H 1.00282 0.28342 0.023 0.0
O4 O 0.99783 0.29994 0.02797 0.0
H5 H 0.02784 0.33403 0.00688 0.0
O6 O 0.03189 0.3165 0.00265 0.0
Co7 Co 0.05159 0.35148 0.017 0.0
O8 O 0.03972 0.38938 -0.00222 0.0
O9 O 1.00991 0.37101 0.97365 0.0
O10 O 0.06818 0.32687 0.04912 0.0
O11 O 0.05559 0.27759 0.04434 0.0
O12 O 0.96718 0.22345 0.99049 0.0
O13 O 0.94977 0.25493 0.00754 0.0
O14 O 0.0403 0.37014 0.05172 0.0
O15 O 1.00716 0.3606 0.03673 0.0
C16 C 1.00526 0.23041 0.05882 0.0
C17 C 0.95894 0.3262 -0.00265 0.0
C18 C 0.08489 0.37527 0.00248 0.0
C19 C 0.01435 0.25219 0.97676 0.0
C20 C 0.02352 0.39305 0.98008 0.0
C21 C 0.06937 0.29804 0.05451 0.0
C22 C 0.94965 0.22888 -0.00416 0.0
C23 C 0.02176 0.37246 0.05502 0.0
O24 O 0.99109 0.23121 0.03653 0.0
O25 O 0.01918 0.25228 0.06415 0.0
O26 O 0.97491 0.34413 -0.00462 0.0
O27 O 0.95924 0.29699 0.00191 0.0
O28 O 0.08126 0.36841 0.02912 0.0
O29 O 0.0697 0.36777 0.98364 0.0
O30 O 0.99739 0.26403 0.97245 0.0
O31 O 0.02495 0.25309 0.00258 0.0
Co32 Co 0.28907 0.92627 0.00655 0.0
Co33 Co 0.24257 0.9181 0.02535 0.0
Co34 Co 0.26857 0.97583 0.0421 0.0
H35 H 0.27571 0.94535 0.0295 0.0
O36 O 0.27142 0.92922 0.0391 0.0
H37 H 0.23598 0.94658 0.04205 0.0
O38 O 0.23932 0.96355 0.03305 0.0
Co39 Co 0.22423 0.96184 0.06944 0.0
O40 O 0.20106 0.93008 0.05222 0.0
O41 O 0.21317 0.90794 0.01356 0.0
O42 O 0.23381 0.00809 0.07362 0.0
O43 O 0.26247 0.01797 0.05106 0.0
O44 O 0.30678 0.89929 0.98435 0.0
O45 O 0.31915 0.92316 0.02308 0.0
O46 O 0.24638 0.941 0.09591 0.0
O47 O 0.24017 0.90054 0.06654 0.0
C48 C 0.31072 0.98693 0.02677 0.0
C49 C 0.26322 0.86465 0.00505 0.0
C50 C 0.19608 0.9718 0.09966 0.0
C51 C 0.26318 0.97066 0.97456 0.0
C52 C 0.19869 0.91209 0.02926 0.0
C53 C 0.24822 0.02663 0.06518 0.0
C54 C 0.32248 0.90552 0.00254 0.0
C55 C 0.24867 0.91295 0.09088 0.0
O56 O 0.30703 0.96624 0.00646 0.0
O57 O 0.29864 0.98971 0.04699 0.0
O58 O 0.24778 0.87602 0.01376 0.0
O59 O 0.27967 0.88077 0.00122 0.0
O60 O 0.20862 0.95182 0.1065 0.0
O61 O 0.19957 0.98624 0.07568 0.0
O62 O 0.26893 0.94347 0.97424 0.0
O63 O 0.26624 0.98721 -0.00173 0.0
Co64 Co 0.98168 0.99038 0.22053 0.0
Co65 Co 1.00034 0.92268 0.22694 0.0
Co66 Co 0.02546 0.97676 0.20302 0.0
H67 H 1.00215 0.97544 0.2081 0.0
O68 O 0.99564 0.95913 0.20033 0.0
H69 H 0.02366 0.92439 0.22265 0.0
O70 O 0.03019 0.94078 0.23031 0.0
Co71 Co 0.04431 0.9094 0.21126 0.0
O72 O 0.03187 0.87002 0.22822 0.0
O73 O 1.00583 0.8841 0.25135 0.0
O74 O 0.0652 0.9395 0.19527 0.0
O75 O 0.05532 0.98721 0.20099 0.0
O76 O 0.96056 0.00206 0.24834 0.0
O77 O 0.96284 0.02564 0.20759 0.0
O78 O 0.02731 0.91131 0.1706 0.0
O79 O 0.99837 0.89804 0.18931 0.0
C80 C 1.00638 0.03328 0.18037 0.0
C81 C 0.95577 0.92906 0.22458 0.0
C82 C 0.075 0.87934 0.22313 0.0
C83 C 0.01669 0.99376 0.26259 0.0
C84 C 0.01802 0.86415 0.24549 0.0
C85 C 0.06845 0.96875 0.19497 0.0
C86 C 0.95366 0.02293 0.23087 0.0
C87 C 1.00908 0.89981 0.16731 0.0
O88 O 0.99251 0.02868 0.1981 0.0
O89 O 0.01923 0.01354 0.17693 0.0
O90 O 0.97071 0.91191 0.22688 0.0
O91 O 0.95784 0.9584 0.22161 0.0
O92 O 0.05955 0.87063 0.20536 0.0
O93 O 0.07298 0.90506 0.23431 0.0
O94 O 1.00024 0.97724 0.25678 0.0
O95 O 0.027 0.00194 0.24086 0.0
Co96 Co 0.28808 0.26819 0.21001 0.0
Co97 Co 0.26925 0.33368 0.22158 0.0
Co98 Co 0.24273 0.28342 0.18728 0.0
H99 H 0.26646 0.28451 0.19647 0.0
O100 O 0.27209 0.30207 0.1916 0.0
H101 H 0.24491 0.33068 0.21671 0.0
O102 O 0.24012 0.31221 0.22051 0.0
Co103 Co 0.2216 0.3457 0.21007 0.0
O104 O 0.23562 0.38322 0.23078 0.0
O105 O 0.2662 0.36851 0.24961 0.0
O106 O 0.1994 0.31393 0.19317 0.0
O107 O 0.2132 0.27159 0.17945 0.0
O108 O 0.31336 0.25669 0.23869 0.0
O109 O 0.3051 0.23332 0.19832 0.0
O110 O 0.23339 0.37391 0.1792 0.0
O111 O 0.26593 0.36286 0.18637 0.0
C112 C 0.26119 0.23499 0.15725 0.0
C113 C 0.31359 0.3303 0.22074 0.0
C114 C 0.19082 0.37074 0.22194 0.0
C115 C 0.25532 0.24846 0.24343 0.0
C116 C 0.25274 0.38832 0.24654 0.0
C117 C 0.19794 0.28681 0.18236 0.0
C118 C 0.31771 0.23599 0.22177 0.0
C119 C 0.25162 0.37783 0.17312 0.0
O120 O 0.27679 0.23696 0.1773 0.0
O121 O 0.24712 0.25364 0.15586 0.0
O122 O 0.29881 0.34656 0.22432 0.0
O123 O 0.31129 0.30151 0.21494 0.0
O124 O 0.20773 0.38475 0.21918 0.0
O125 O 0.19131 0.34223 0.21811 0.0
O126 O 0.27278 0.26264 0.24646 0.0
O127 O 0.24396 0.24922 0.21828 0.0
Co128 Co 0.96756 0.65227 0.96997 0.0
Co129 Co 0.99368 0.71709 0.94937 0.0
Co130 Co 0.01592 0.66806 0.98515 0.0
H131 H 0.99175 0.66904 0.97867 0.0
O132 O 0.98805 0.68699 0.98223 0.0
H133 H 0.01717 0.71813 0.96053 0.0
O134 O 0.02201 0.7013 0.9561 0.0
Co135 Co 0.03941 0.73613 0.97564 0.0
O136 O 0.03089 0.76772 0.94255 0.0
O137 O 1.00103 0.74853 0.91846 0.0
O138 O 0.06025 0.70396 0.98099 0.0
O139 O 0.04471 0.65725 0.98965 0.0
O140 O 0.94025 0.62773 0.95664 0.0
O141 O 0.9479 0.63837 0.00206 0.0
O142 O 0.02302 0.73909 0.01064 0.0
O143 O 0.99574 0.75028 0.98007 0.0
C144 C 0.9959 0.60993 0.00502 0.0
C145 C 0.94834 0.70928 0.93994 0.0
C146 C 0.07028 0.77246 0.98724 0.0
C147 C 0.9966 0.63218 0.92972 0.0
C148 C 0.01615 0.76877 0.92119 0.0
C149 C 0.06067 0.67497 0.98654 0.0
C150 C 0.93482 0.62503 0.98287 0.0
C151 C 1.00617 0.7512 0.00604 0.0
O152 O 0.97986 0.61379 0.98704 0.0
O153 O 1.00932 0.63206 0.01215 0.0
O154 O 0.96491 0.72595 0.93913 0.0
O155 O 0.9473 0.68177 0.95068 0.0
O156 O 0.05718 0.76629 0.00522 0.0
O157 O 0.06582 0.75803 0.96284 0.0
O158 O 0.9783 0.63667 0.93302 0.0
O159 O 0.01159 0.64119 0.94886 0.0
Co160 Co 0.79729 0.03523 0.91611 0.0
Co161 Co 0.75204 0.02184 0.94303 0.0
Co162 Co 0.776 0.08271 0.95331 0.0
H163 H 0.78396 0.05299 0.94022 0.0
O164 O 0.78098 0.03692 0.95092 0.0
H165 H 0.74434 0.05248 0.95452 0.0
O166 O 0.74742 0.06798 0.9431 0.0
Co167 Co 0.73155 0.07216 0.97768 0.0
O168 O 0.71434 0.03138 0.9796 0.0
O169 O 0.72228 0.00629 0.93963 0.0
O170 O 0.74122 0.11768 0.98487 0.0
O171 O 0.7691 0.12506 0.96071 0.0
O172 O 0.81056 0.03792 0.87617 0.0
O173 O 0.82491 0.01684 0.91453 0.0
O174 O 0.75164 0.05596 0.01074 0.0
O175 O 0.75515 0.01219 0.98734 0.0
C176 C 0.82091 0.08957 0.95156 0.0
C177 C 0.77399 0.97043 0.92341 0.0
C178 C 0.69782 0.09217 0.98021 0.0
C179 C 0.77118 0.07941 0.88598 0.0
C180 C 0.71068 0.00951 0.96046 0.0
C181 C 0.75554 0.13522 0.97514 0.0
C182 C 0.82583 0.02426 0.88708 0.0
C183 C 0.75775 0.02896 0.01091 0.0
O184 O 0.82035 0.06693 0.93338 0.0
O185 O 0.80509 0.09718 0.96247 0.0
O186 O 0.75929 0.97959 0.93623 0.0
O187 O 0.78839 0.98872 0.91465 0.0
O188 O 0.71326 0.09906 -0.00127 0.0
O189 O 0.70161 0.07434 0.96011 0.0
O190 O 0.77621 0.05194 0.88484 0.0
O191 O 0.77562 0.09546 0.90983 0.0
Co192 Co 0.97493 0.09048 0.77195 0.0
Co193 Co 0.99532 0.02414 0.78044 0.0
Co194 Co 0.01951 0.07969 0.75709 0.0
H195 H 0.9961 0.07668 0.76095 0.0
O196 O 0.99 0.06004 0.75317 0.0
H197 H 0.0187 0.02676 0.77561 0.0
O198 O 0.0248 0.04331 0.78354 0.0
Co199 Co 0.0398 0.01329 0.76366 0.0
O200 O 0.03136 0.9765 0.7898 0.0
O201 O 1.00203 0.98733 0.8064 0.0
O202 O 0.06235 0.04627 0.75781 0.0
O203 O 0.049 0.09226 0.75776 0.0
O204 O 0.94756 0.1034 0.78357 0.0
O205 O 0.95701 0.11724 0.74204 0.0
O206 O 0.02123 0.02359 0.72632 0.0
O207 O 0.9944 0.99912 0.74269 0.0
C208 C 1.00097 0.13758 0.73907 0.0
C209 C 0.95217 0.03003 0.78871 0.0
C210 C 0.06914 0.98188 0.75721 0.0
C211 C 1.00973 0.10174 0.81656 0.0
C212 C 0.01674 0.97006 0.8058 0.0
C213 C 0.06401 0.07572 0.75682 0.0
C214 C 0.94336 0.11829 0.75925 0.0
C215 C 1.00471 0.00711 0.72091 0.0
O216 O 0.98695 0.13081 0.75592 0.0
O217 O 0.01339 0.11814 0.73292 0.0
O218 O 0.96562 0.01234 0.78229 0.0
O219 O 0.95477 0.05937 0.78841 0.0
O220 O 0.0509 0.97375 0.74807 0.0
O221 O 0.07055 0.00744 0.77013 0.0
O222 O 0.99158 0.0899 0.81296 0.0
O223 O 0.02067 0.10375 0.79485 0.0
Co224 Co 0.79836 0.65558 0.77381 0.0
Co225 Co 0.77682 0.71621 0.79837 0.0
Co226 Co 0.75034 0.66685 0.76299 0.0
H227 H 0.77481 0.67011 0.76757 0.0
O228 O 0.77931 0.6888 0.76403 0.0
H229 H 0.75296 0.71487 0.79026 0.0
O230 O 0.74764 0.6969 0.79455 0.0
Co231 Co 0.7309 0.73117 0.77921 0.0
O232 O 0.74215 0.76017 0.81374 0.0
O233 O 0.77285 0.7445 0.83147 0.0
O234 O 0.70833 0.69694 0.77445 0.0
O235 O 0.72077 0.65338 0.76049 0.0
O236 O 0.81202 0.61983 0.75635 0.0
O237 O 0.82944 0.65948 0.77047 0.0
O238 O 0.7445 0.7458 0.74328 0.0
O239 O 0.77525 0.75192 0.76888 0.0
C240 C 0.76707 0.61436 0.73514 0.0
C241 C 0.82127 0.71175 0.80717 0.0
C242 C 0.70126 0.76321 0.76739 0.0
C243 C 0.76881 0.62179 0.81037 0.0
C244 C 0.75837 0.76207 0.83254 0.0
C245 C 0.70605 0.66874 0.76644 0.0
C246 C 0.82957 0.63303 0.75962 0.0
C247 C 0.76241 0.75831 0.7464 0.0
O248 O 0.78427 0.6192 0.75087 0.0
O249 O 0.7534 0.63378 0.73323 0.0
O250 O 0.80619 0.72826 0.8057 0.0
O251 O 0.82006 0.68413 0.79757 0.0
O252 O 0.70441 0.74036 0.75223 0.0
O253 O 0.715 0.768 0.78917 0.0
O254 O 0.78711 0.62708 0.80494 0.0
O255 O 0.75422 0.63599 0.79677 0.0
Co256 Co 0.98053 0.76639 0.50844 0.0
Co257 Co 1.00337 0.83463 0.49782 0.0
Co258 Co 0.02598 0.78658 0.53439 0.0
H259 H 1.00254 0.78507 0.52327 0.0
O260 O 0.99757 0.80187 0.52743 0.0
H261 H 0.02762 0.83408 0.50404 0.0
O262 O 0.03137 0.81606 0.50089 0.0
Co263 Co 0.05185 0.85115 0.51192 0.0
O264 O 0.03932 0.88904 0.49386 0.0
O265 O 1.00956 0.8702 0.47005 0.0
O266 O 0.07227 0.82175 0.53119 0.0
O267 O 0.05482 0.77816 0.54471 0.0
O268 O 0.96664 0.72578 0.4896 0.0
O269 O 0.94998 0.75547 0.51074 0.0
O270 O 0.04122 0.86948 0.54768 0.0
O271 O 1.00779 0.86217 0.53355 0.0
C272 C 1.00506 0.73308 0.56071 0.0
C273 C 0.95908 0.82769 0.50024 0.0
C274 C 0.08462 0.87739 0.49795 0.0
C275 C 0.01376 0.75113 0.4783 0.0
C276 C 0.02307 0.89243 0.4762 0.0
C277 C 0.07136 0.79458 0.54281 0.0
C278 C 0.94948 0.73042 0.49708 0.0
C279 C 0.02288 0.87302 0.55154 0.0
O280 O 0.9911 0.73289 0.53809 0.0
O281 O 0.01862 0.75549 0.56572 0.0
O282 O 0.97449 0.84503 0.49371 0.0
O283 O 0.95995 0.79899 0.50718 0.0
O284 O 0.08153 0.86813 0.52424 0.0
O285 O 0.06918 0.87112 0.4792 0.0
O286 O 0.99679 0.76285 0.4734 0.0
O287 O 0.02426 0.75294 0.50418 0.0
Co288 Co 0.28816 0.42665 0.50279 0.0
Co289 Co 0.2415 0.41813 0.52102 0.0
Co290 Co 0.26857 0.47372 0.54211 0.0
H291 H 0.27506 0.44411 0.52717 0.0
O292 O 0.27043 0.42739 0.5355 0.0
H293 H 0.23534 0.44579 0.53938 0.0
O294 O 0.23919 0.46318 0.53157 0.0
Co295 Co 0.22353 0.45987 0.56733 0.0
O296 O 0.20048 0.42838 0.54962 0.0
O297 O 0.21194 0.40945 0.50876 0.0
O298 O 0.23334 0.50578 0.57308 0.0
O299 O 0.26329 0.5154 0.55396 0.0
O300 O 0.31414 0.42535 0.48168 0.0
O301 O 0.31025 0.3985 0.52039 0.0
O302 O 0.24469 0.43625 0.59304 0.0
O303 O 0.23863 0.39791 0.56096 0.0
C304 C 0.3112 0.48406 0.52847 0.0
C305 C 0.26158 0.36537 0.49838 0.0
C306 C 0.19472 0.47215 0.59525 0.0
C307 C 0.26413 0.47497 0.47426 0.0
C308 C 0.19775 0.41213 0.52543 0.0
C309 C 0.24844 0.5241 0.56671 0.0
C310 C 0.32182 0.40625 0.5006 0.0
C311 C 0.24657 0.40844 0.58643 0.0
O312 O 0.30731 0.4655 0.50628 0.0
O313 O 0.29884 0.48587 0.54852 0.0
O314 O 0.24608 0.37673 0.50693 0.0
O315 O 0.27828 0.38136 0.49563 0.0
O316 O 0.21062 0.46094 0.60758 0.0
O317 O 0.19524 0.47636 0.56718 0.0
O318 O 0.26898 0.44753 0.47149 0.0
O319 O 0.26737 0.48892 0.49953 0.0
Co320 Co 0.98207 0.49119 0.7181 0.0
Co321 Co 1.00114 0.42349 0.72439 0.0
Co322 Co 0.02638 0.47856 0.70269 0.0
H323 H 1.00295 0.47668 0.70673 0.0
O324 O 0.99672 0.46041 0.69844 0.0
H325 H 0.0249 0.42621 0.72255 0.0
O326 O 0.03078 0.44286 0.73058 0.0
Co327 Co 0.04669 0.41241 0.71342 0.0
O328 O 0.03433 0.37227 0.72903 0.0
O329 O 1.00628 0.38444 0.74827 0.0
O330 O 0.06716 0.44268 0.69653 0.0
O331 O 0.05623 0.4898 0.70175 0.0
O332 O 0.97029 0.52867 0.73648 0.0
O333 O 0.95189 0.49964 0.70679 0.0
O334 O 0.03108 0.4184 0.67232 0.0
O335 O 1.0015 0.40042 0.68612 0.0
C336 C 1.00728 0.53446 0.67904 0.0
C337 C 0.95668 0.42893 0.72211 0.0
C338 C 0.07768 0.38306 0.72607 0.0
C339 C 0.0164 0.49649 0.76155 0.0
C340 C 0.01934 0.36527 0.74395 0.0
C341 C 0.0697 0.47202 0.69567 0.0
C342 C 0.95266 0.52298 0.72314 0.0
C343 C 0.01363 0.40462 0.66599 0.0
O344 O 0.99321 0.52977 0.69641 0.0
O345 O 0.02028 0.51487 0.676 0.0
O346 O 0.97141 0.41167 0.72167 0.0
O347 O 0.95896 0.45839 0.72167 0.0
O348 O 0.06038 0.37102 0.7165 0.0
O349 O 0.07733 0.41167 0.72883 0.0
O350 O 1.0 0.47984 0.75568 0.0
O351 O 0.02702 0.50419 0.74006 0.0
Co352 Co 0.2884 0.76574 0.70989 0.0
Co353 Co 0.26942 0.83132 0.72024 0.0
Co354 Co 0.24302 0.7811 0.68661 0.0
H355 H 0.26674 0.78184 0.69606 0.0
O356 O 0.27242 0.79928 0.69096 0.0
H357 H 0.24508 0.82803 0.71608 0.0
O358 O 0.24056 0.8095 0.72005 0.0
Co359 Co 0.22152 0.84242 0.71033 0.0
O360 O 0.23279 0.86247 0.7502 0.0
O361 O 0.26597 0.86675 0.74668 0.0
O362 O 0.20071 0.81632 0.68278 0.0
O363 O 0.21339 0.77033 0.67835 0.0
O364 O 0.3146 0.75653 0.73765 0.0
O365 O 0.30432 0.72851 0.70095 0.0
O366 O 0.23203 0.86707 0.67607 0.0
O367 O 0.26513 0.85944 0.68439 0.0
C368 C 0.26171 0.73338 0.65616 0.0
C369 C 0.31364 0.82854 0.71846 0.0
C370 C 0.19061 0.86879 0.71948 0.0
C371 C 0.25514 0.7457 0.74252 0.0
C372 C 0.25021 0.87672 0.75581 0.0
C373 C 0.19897 0.78828 0.67436 0.0
C374 C 0.31792 0.73351 0.72286 0.0
C375 C 0.25017 0.87202 0.66981 0.0
O376 O 0.2773 0.73543 0.67625 0.0
O377 O 0.24735 0.75152 0.65504 0.0
O378 O 0.29883 0.84475 0.72206 0.0
O379 O 0.31144 0.79955 0.71349 0.0
O380 O 0.20751 0.88245 0.71594 0.0
O381 O 0.19119 0.84006 0.71782 0.0
O382 O 0.27269 0.75966 0.74589 0.0
O383 O 0.24394 0.74662 0.71724 0.0
Co384 Co 0.96706 0.15063 0.4692 0.0
Co385 Co 0.99245 0.217 0.45113 0.0
Co386 Co 0.01554 0.16691 0.48362 0.0
H387 H 0.99127 0.16743 0.4779 0.0
O388 O 0.98755 0.18503 0.48259 0.0
H389 H 0.01613 0.21744 0.45998 0.0
O390 O 0.02064 0.20068 0.45468 0.0
Co391 Co 0.03887 0.23505 0.47349 0.0
O392 O 0.0282 0.27047 0.44666 0.0
O393 O 0.99908 0.25026 0.42129 0.0
O394 O 0.05946 0.20274 0.47426 0.0
O395 O 0.04448 0.15663 0.48655 0.0
O396 O 0.93991 0.12523 0.45671 0.0
O397 O 0.94732 0.13814 0.50157 0.0
O398 O 0.02406 0.23236 0.51037 0.0
O399 O 0.99602 0.24754 0.48474 0.0
C400 C 0.996 0.10853 0.50401 0.0
C401 C 0.94742 0.20865 0.4417 0.0
C402 C 0.07001 0.27124 0.483 0.0
C403 C 0.99584 0.13059 0.42854 0.0
C404 C 0.01332 0.27179 0.42561 0.0
C405 C 0.06006 0.17393 0.48058 0.0
C406 C 0.9344 0.12376 0.48293 0.0
C407 C 1.00779 0.2459 0.5095 0.0
O408 O 0.97968 0.11247 0.48665 0.0
O409 O 1.00974 0.13042 0.51037 0.0
O410 O 0.96365 0.22651 0.4439 0.0
O411 O 0.94688 0.18004 0.44912 0.0
O412 O 0.0556 0.26956 0.49911 0.0
O413 O 0.06671 0.25244 0.46157 0.0
O414 O 0.97748 0.13392 0.43241 0.0
O415 O 0.01085 0.14061 0.4471 0.0
Co416 Co 0.79829 0.5359 0.42037 0.0
Co417 Co 0.75366 0.52054 0.44725 0.0
Co418 Co 0.77647 0.58242 0.457 0.0
H419 H 0.78491 0.55295 0.44461 0.0
O420 O 0.7823 0.53692 0.4556 0.0
H421 H 0.74495 0.55131 0.45699 0.0
O422 O 0.7482 0.56655 0.44535 0.0
Co423 Co 0.73106 0.57167 0.47823 0.0
O424 O 0.71211 0.53252 0.47614 0.0
O425 O 0.72421 0.50362 0.44217 0.0
O426 O 0.74002 0.61744 0.48495 0.0
O427 O 0.76898 0.62458 0.46347 0.0
O428 O 0.81179 0.53781 0.3807 0.0
O429 O 0.82634 0.51855 0.41999 0.0
O430 O 0.75211 0.55883 0.5115 0.0
O431 O 0.75561 0.51301 0.49198 0.0
C432 C 0.82124 0.59029 0.45645 0.0
C433 C 0.77539 0.47082 0.42569 0.0
C434 C 0.69735 0.59137 0.48194 0.0
C435 C 0.77236 0.57927 0.38979 0.0
C436 C 0.71028 0.50936 0.45857 0.0
C437 C 0.75477 0.63486 0.47636 0.0
C438 C 0.82727 0.52507 0.39234 0.0
C439 C 0.75827 0.53186 0.514 0.0
O440 O 0.82087 0.56787 0.43807 0.0
O441 O 0.80534 0.59759 0.46732 0.0
O442 O 0.76203 0.47832 0.44223 0.0
O443 O 0.78833 0.49038 0.41508 0.0
O444 O 0.70353 0.56762 0.49564 0.0
O445 O 0.71035 0.60401 0.4663 0.0
O446 O 0.77719 0.55173 0.38877 0.0
O447 O 0.77696 0.59525 0.41363 0.0
Co448 Co 0.97559 0.59214 0.27317 0.0
Co449 Co 0.99548 0.52585 0.28271 0.0
Co450 Co 0.01971 0.57994 0.25711 0.0
H451 H 0.99641 0.57762 0.26173 0.0
O452 O 0.99007 0.56091 0.25452 0.0
H453 H 0.01861 0.52752 0.27705 0.0
O454 O 0.02508 0.54412 0.28427 0.0
Co455 Co 0.03898 0.51241 0.26471 0.0
O456 O 0.02844 0.47419 0.28771 0.0
O457 O 1.00236 0.49013 0.30976 0.0
O458 O 0.062 0.54492 0.25885 0.0
O459 O 0.04926 0.59154 0.25655 0.0
O460 O 0.96005 0.63028 0.28003 0.0
O461 O 0.947 0.59659 0.24991 0.0
O462 O 0.02024 0.5226 0.22755 0.0
O463 O 0.99358 0.49951 0.2456 0.0
C464 C 1.00117 0.63767 0.23812 0.0
C465 C 0.95234 0.53259 0.29098 0.0
C466 C 0.06797 0.48014 0.25922 0.0
C467 C 0.01098 0.6029 0.31662 0.0
C468 C 0.01501 0.47016 0.30621 0.0
C469 C 0.06405 0.57434 0.25653 0.0
C470 C 0.94476 0.62187 0.26183 0.0
C471 C 1.0034 0.50677 0.22311 0.0
O472 O 0.9875 0.63161 0.25568 0.0
O473 O 0.01352 0.61799 0.23224 0.0
O474 O 0.96589 0.51462 0.28572 0.0
O475 O 0.95485 0.5619 0.28941 0.0
O476 O 0.04977 0.47261 0.24939 0.0
O477 O 0.06955 0.5056 0.27238 0.0
O478 O 0.9929 0.59075 0.31361 0.0
O479 O 0.02154 0.60499 0.29443 0.0
Co480 Co 0.79922 0.15771 0.27888 0.0
Co481 Co 0.77554 0.21714 0.29889 0.0
Co482 Co 0.75135 0.16596 0.26305 0.0
H483 H 0.77556 0.17075 0.26944 0.0
O484 O 0.77989 0.18946 0.26572 0.0
H485 H 0.75188 0.21416 0.2892 0.0
O486 O 0.74676 0.19606 0.29348 0.0
Co487 Co 0.72977 0.22913 0.27574 0.0
O488 O 0.74144 0.26373 0.30445 0.0
O489 O 0.76943 0.24596 0.33036 0.0
O490 O 0.70777 0.19427 0.26771 0.0
O491 O 0.72206 0.15051 0.25888 0.0
O492 O 0.82029 0.12562 0.29033 0.0
O493 O 0.82282 0.15388 0.25242 0.0
O494 O 0.74536 0.23465 0.23984 0.0
O495 O 0.77349 0.25136 0.26771 0.0
C496 C 0.77027 0.11388 0.23958 0.0
C497 C 0.8205 0.21568 0.30982 0.0
C498 C 0.69936 0.26013 0.26789 0.0
C499 C 0.76992 0.13112 0.31803 0.0
C500 C 0.75605 0.26576 0.32609 0.0
C501 C 0.70654 0.16558 0.26146 0.0
C502 C 0.83037 0.13242 0.26854 0.0
C503 C 0.76158 0.25207 0.24301 0.0
O504 O 0.78643 0.11949 0.25761 0.0
O505 O 0.75656 0.13312 0.23455 0.0
O506 O 0.80473 0.23088 0.30817 0.0
O507 O 0.82038 0.1881 0.3006 0.0
O508 O 0.71704 0.27044 0.26388 0.0
O509 O 0.69902 0.23242 0.27658 0.0
O510 O 0.78786 0.14312 0.31704 0.0
O511 O 0.75543 0.13594 0.29742 0.0
Co512 Co 0.4798 0.26731 0.5127 0.0
Co513 Co 0.50442 0.33351 0.49809 0.0
Co514 Co 0.52686 0.2843 0.53351 0.0
H515 H 0.50307 0.28442 0.52473 0.0
O516 O 0.49894 0.30183 0.52904 0.0
H517 H 0.52852 0.33229 0.50452 0.0
O518 O 0.53215 0.31438 0.5006 0.0
Co519 Co 0.55257 0.34889 0.51399 0.0
O520 O 0.54005 0.38669 0.49491 0.0
O521 O 0.51088 0.36786 0.46929 0.0
O522 O 0.57277 0.32016 0.53507 0.0
O523 O 0.55559 0.27419 0.54149 0.0
O524 O 0.46154 0.23803 0.48283 0.0
O525 O 0.45375 0.24442 0.52604 0.0
O526 O 0.54146 0.35875 0.55303 0.0
O527 O 0.5095 0.36277 0.53244 0.0
C528 C 0.50419 0.23465 0.56546 0.0
C529 C 0.46021 0.32939 0.50302 0.0
C530 C 0.58396 0.37776 0.49782 0.0
C531 C 0.51029 0.24924 0.47798 0.0
C532 C 0.5243 0.39008 0.47605 0.0
C533 C 0.57196 0.29177 0.54334 0.0
C534 C 0.44888 0.23084 0.50123 0.0
C535 C 0.52373 0.36756 0.55404 0.0
O536 O 0.48828 0.23671 0.54641 0.0
O537 O 0.52014 0.25307 0.56514 0.0
O538 O 0.47568 0.34488 0.49415 0.0
O539 O 0.46044 0.30126 0.51215 0.0
O540 O 0.56908 0.39003 0.50613 0.0
O541 O 0.58107 0.34883 0.49852 0.0
O542 O 0.49379 0.26237 0.47576 0.0
O543 O 0.52286 0.25143 0.50202 0.0
Co544 Co 0.78787 0.92742 0.50529 0.0
Co545 Co 0.74255 0.91676 0.52714 0.0
Co546 Co 0.76599 0.97806 0.53766 0.0
H547 H 0.77425 0.94733 0.52722 0.0
O548 O 0.77099 0.93186 0.53856 0.0
H549 H 0.73454 0.94599 0.54068 0.0
O550 O 0.73718 0.96228 0.53008 0.0
Co551 Co 0.72159 0.96265 0.56578 0.0
O552 O 0.69884 0.93047 0.54878 0.0
O553 O 0.71354 0.90245 0.51696 0.0
O554 O 0.73171 0.00816 0.57091 0.0
O555 O 0.75804 0.02035 0.54376 0.0
O556 O 0.81547 0.93146 0.48821 0.0
O557 O 0.80927 0.89678 0.51972 0.0
O558 O 0.74376 0.94648 0.59544 0.0
O559 O 0.74218 0.90295 0.57025 0.0
C560 C 0.80765 0.99078 0.52076 0.0
C561 C 0.76416 0.86418 0.5074 0.0
C562 C 0.69271 0.9744 0.59379 0.0
C563 C 0.76118 0.96854 0.47011 0.0
C564 C 0.69799 0.90903 0.52918 0.0
C565 C 0.74466 0.02775 0.56034 0.0
C566 C 0.82213 0.90899 0.50358 0.0
C567 C 0.74801 0.91869 0.59396 0.0
O568 O 0.80442 0.96837 0.50226 0.0
O569 O 0.79569 0.99444 0.54103 0.0
O570 O 0.7496 0.87463 0.51935 0.0
O571 O 0.77927 0.88142 0.49969 0.0
O572 O 0.70862 0.96315 0.60593 0.0
O573 O 0.69315 0.97883 0.56571 0.0
O574 O 0.76777 0.94182 0.4715 0.0
O575 O 0.76296 0.98619 0.49302 0.0
Co576 Co 0.48068 0.98821 0.71974 0.0
Co577 Co 0.50035 0.92162 0.72238 0.0
Co578 Co 0.52549 0.97832 0.70393 0.0
H579 H 0.50195 0.97557 0.70768 0.0
O580 O 0.4959 0.95974 0.69836 0.0
H581 H 0.52405 0.92508 0.72101 0.0
O582 O 0.52986 0.94131 0.72999 0.0
Co583 Co 0.54578 0.91206 0.71114 0.0
O584 O 0.53338 0.87071 0.72372 0.0
O585 O 0.50563 0.8816 0.74435 0.0
O586 O 0.56627 0.9433 0.69586 0.0
O587 O 0.55539 0.98993 0.70377 0.0
O588 O 0.46443 0.02733 0.71403 0.0
O589 O 0.4564 0.99267 0.74415 0.0
O590 O 0.53069 0.92068 0.67014 0.0
O591 O 0.50116 0.90115 0.68279 0.0
C592 C 0.50471 0.03313 0.67986 0.0
C593 C 0.45554 0.92559 0.71739 0.0
C594 C 0.57632 0.88179 0.72353 0.0
C595 C 0.51489 0.99379 0.76341 0.0
C596 C 0.51857 0.86278 0.73869 0.0
C597 C 0.56887 0.97261 0.69671 0.0
C598 C 0.45224 0.01842 0.73264 0.0
C599 C 0.51312 0.90764 0.66277 0.0
O600 O 0.48972 0.02594 0.69503 0.0
O601 O 0.51946 0.01597 0.67913 0.0
O602 O 0.47072 0.90899 0.7185 0.0
O603 O 0.45736 0.95506 0.71761 0.0
O604 O 0.56175 0.87458 0.70361 0.0
O605 O 0.57347 0.90608 0.73674 0.0
O606 O 0.49879 0.97659 0.75705 0.0
O607 O 0.52567 0.00221 0.74228 0.0
Co608 Co 0.78936 0.27036 0.70747 0.0
Co609 Co 0.76978 0.33496 0.71968 0.0
Co610 Co 0.74393 0.28425 0.68493 0.0
H611 H 0.76761 0.28624 0.69402 0.0
O612 O 0.77308 0.30398 0.68933 0.0
H613 H 0.7454 0.33164 0.71393 0.0
O614 O 0.74071 0.31312 0.71776 0.0
Co615 Co 0.72192 0.34604 0.7063 0.0
O616 O 0.73508 0.38248 0.72995 0.0
O617 O 0.76607 0.36885 0.74827 0.0
O618 O 0.70044 0.3159 0.68451 0.0
O619 O 0.71453 0.27179 0.6768 0.0
O620 O 0.80422 0.236 0.73198 0.0
O621 O 0.81703 0.25849 0.69625 0.0
O622 O 0.73425 0.37623 0.67763 0.0
O623 O 0.76674 0.36507 0.68513 0.0
C624 C 0.76219 0.23395 0.65794 0.0
C625 C 0.81436 0.33246 0.71912 0.0
C626 C 0.69007 0.36937 0.71597 0.0
C627 C 0.75768 0.24993 0.74131 0.0
C628 C 0.75209 0.38781 0.74599 0.0
C629 C 0.69931 0.2881 0.67552 0.0
C630 C 0.81909 0.23815 0.7168 0.0
C631 C 0.75261 0.38065 0.67225 0.0
O632 O 0.77706 0.23597 0.67914 0.0
O633 O 0.749 0.25409 0.6538 0.0
O634 O 0.79946 0.34827 0.72338 0.0
O635 O 0.81219 0.30394 0.71235 0.0
O636 O 0.7038 0.3826 0.70212 0.0
O637 O 0.69425 0.3424 0.72418 0.0
O638 O 0.77407 0.26698 0.74381 0.0
O639 O 0.74566 0.25049 0.71672 0.0
Co640 Co 0.46761 0.64748 0.47329 0.0
Co641 Co 0.49223 0.714 0.45352 0.0
Co642 Co 0.51594 0.66485 0.48644 0.0
H643 H 0.49166 0.66501 0.48127 0.0
O644 O 0.48781 0.68261 0.4857 0.0
H645 H 0.51596 0.7153 0.46265 0.0
O646 O 0.5207 0.69868 0.45744 0.0
Co647 Co 0.5385 0.73354 0.47613 0.0
O648 O 0.52733 0.768 0.44839 0.0
O649 O 0.49848 0.74678 0.42299 0.0
O650 O 0.55953 0.70173 0.47768 0.0
O651 O 0.54489 0.65507 0.48899 0.0
O652 O 0.45148 0.60579 0.47962 0.0
O653 O 0.44 0.64596 0.49181 0.0
O654 O 0.52357 0.73374 0.51275 0.0
O655 O 0.49515 0.74586 0.48589 0.0
C656 C 0.49738 0.60579 0.50642 0.0
C657 C 0.44712 0.70433 0.44488 0.0
C658 C 0.56945 0.77 0.4863 0.0
C659 C 0.49592 0.62926 0.43114 0.0
C660 C 0.51247 0.76872 0.42722 0.0
C661 C 0.56039 0.67287 0.48366 0.0
C662 C 0.43712 0.61703 0.49049 0.0
C663 C 0.50721 0.74715 0.51047 0.0
O664 O 0.48098 0.60937 0.48917 0.0
O665 O 0.51062 0.6282 0.5133 0.0
O666 O 0.46325 0.72235 0.44587 0.0
O667 O 0.44681 0.67605 0.45354 0.0
O668 O 0.5533 0.77194 0.49804 0.0
O669 O 0.568 0.74743 0.46881 0.0
O670 O 0.47765 0.63305 0.43523 0.0
O671 O 0.51109 0.63847 0.44986 0.0
Co672 Co 0.29676 0.0374 0.41832 0.0
Co673 Co 0.25213 0.02358 0.44492 0.0
Co674 Co 0.27815 0.08112 0.46217 0.0
H675 H 0.28482 0.05269 0.44549 0.0
O676 O 0.28138 0.03568 0.45437 0.0
H677 H 0.24498 0.05405 0.45731 0.0
O678 O 0.2494 0.07021 0.44787 0.0
Co679 Co 0.23131 0.07288 0.4799 0.0
O680 O 0.21422 0.03219 0.48144 0.0
O681 O 0.22197 0.01017 0.43971 0.0
O682 O 0.2403 0.11884 0.48358 0.0
O683 O 0.27283 0.12313 0.47379 0.0
O684 O 0.30986 0.04048 0.37825 0.0
O685 O 0.32395 0.01807 0.41603 0.0
O686 O 0.25156 0.05625 0.51232 0.0
O687 O 0.25432 0.01219 0.48891 0.0
C688 C 0.32205 0.08736 0.45875 0.0
C689 C 0.27241 0.97264 0.42185 0.0
C690 C 0.19727 0.09204 0.48195 0.0
C691 C 0.27307 0.08713 0.39634 0.0
C692 C 0.21039 0.01188 0.4608 0.0
C693 C 0.25699 0.13482 0.48075 0.0
C694 C 0.32491 0.02609 0.38874 0.0
C695 C 0.25722 0.02898 0.51249 0.0
O696 O 0.31978 0.06953 0.43565 0.0
O697 O 0.30751 0.09115 0.47446 0.0
O698 O 0.25814 0.98134 0.43595 0.0
O699 O 0.28692 0.99118 0.41366 0.0
O700 O 0.20361 0.06906 0.49683 0.0
O701 O 0.21033 0.10433 0.46623 0.0
O702 O 0.27531 0.05908 0.3912 0.0
O703 O 0.28092 0.09913 0.42124 0.0
Co704 Co 0.47431 0.08866 0.27142 0.0
Co705 Co 0.49459 0.02274 0.28416 0.0
Co706 Co 0.51968 0.07719 0.26093 0.0
H707 H 0.49597 0.07439 0.26257 0.0
O708 O 0.49006 0.0575 0.25504 0.0
H709 H 0.51779 0.02417 0.2789 0.0
O710 O 0.52429 0.04038 0.28688 0.0
Co711 Co 0.5382 0.00926 0.26663 0.0
O712 O 0.52748 0.97174 0.29066 0.0
O713 O 0.50104 0.98756 0.31208 0.0
O714 O 0.56174 0.04204 0.2656 0.0
O715 O 0.54938 0.08895 0.26357 0.0
O716 O 0.4571 0.12395 0.28136 0.0
O717 O 0.448 0.09726 0.24333 0.0
O718 O 0.51955 0.01587 0.22829 0.0
O719 O 0.49315 0.99464 0.24847 0.0
C720 C 0.50166 0.13581 0.24178 0.0
C721 C 0.45067 0.02972 0.28931 0.0
C722 C 0.567 0.97751 0.25878 0.0
C723 C 0.50719 0.0943 0.31961 0.0
C724 C 0.51388 0.96772 0.30896 0.0
C725 C 0.56414 0.07151 0.26461 0.0
C726 C 0.44385 0.11918 0.25895 0.0
C727 C 0.50279 0.99978 0.22546 0.0
O728 O 0.48682 0.12902 0.25696 0.0
O729 O 0.5145 0.1164 0.23714 0.0
O730 O 0.46478 0.01184 0.28638 0.0
O731 O 0.45282 0.0589 0.28609 0.0
O732 O 0.55167 0.98032 0.23964 0.0
O733 O 0.56585 0.9925 0.28235 0.0
O734 O 0.48964 0.08109 0.31249 0.0
O735 O 0.51929 0.09979 0.29957 0.0
Co736 Co 0.29794 0.65543 0.27748 0.0
Co737 Co 0.27662 0.71647 0.29744 0.0
Co738 Co 0.25098 0.66796 0.25931 0.0
H739 H 0.27511 0.67061 0.26684 0.0
O740 O 0.28028 0.689 0.26371 0.0
H741 H 0.25309 0.71582 0.28688 0.0
O742 O 0.24719 0.69803 0.29043 0.0
Co743 Co 0.23185 0.733 0.27315 0.0
O744 O 0.24292 0.76412 0.30611 0.0
O745 O 0.27143 0.7453 0.32935 0.0
O746 O 0.20914 0.69882 0.26847 0.0
O747 O 0.22123 0.65521 0.25394 0.0
O748 O 0.31393 0.61643 0.27874 0.0
O749 O 0.32537 0.65678 0.25906 0.0
O750 O 0.24807 0.7407 0.23788 0.0
O751 O 0.27666 0.75169 0.26768 0.0
C752 C 0.26857 0.61461 0.23549 0.0
C753 C 0.3212 0.71081 0.30997 0.0
C754 C 0.20207 0.76492 0.26147 0.0
C755 C 0.26684 0.63269 0.31481 0.0
C756 C 0.25793 0.76495 0.32719 0.0
C757 C 0.2066 0.67071 0.26006 0.0
C758 C 0.32827 0.62904 0.26569 0.0
C759 C 0.26579 0.75397 0.24225 0.0
O760 O 0.28434 0.61858 0.25467 0.0
O761 O 0.25548 0.63489 0.23036 0.0
O762 O 0.30611 0.7275 0.30782 0.0
O763 O 0.32004 0.68314 0.30068 0.0
O764 O 0.21699 0.77175 0.28092 0.0
O765 O 0.20422 0.74031 0.24836 0.0
O766 O 0.28488 0.6448 0.31551 0.0
O767 O 0.25336 0.63656 0.29252 0.0
Co768 Co 0.48059 0.76592 0.00855 0.0
Co769 Co 0.50426 0.83389 -0.00257 0.0
Co770 Co 0.52715 0.78493 0.03238 0.0
H771 H 0.50335 0.7838 0.0223 0.0
O772 O 0.49869 0.80072 0.02694 0.0
H773 H 0.52827 0.83345 0.00465 0.0
O774 O 0.53239 0.81599 0.00033 0.0
Co775 Co 0.55177 0.8507 0.01608 0.0
O776 O 0.53989 0.88813 -0.00453 0.0
O777 O 0.51061 0.86943 0.96991 0.0
O778 O 0.56868 0.8264 0.04791 0.0
O779 O 0.55641 0.77715 0.04178 0.0
O780 O 0.45663 0.73945 0.02431 0.0
O781 O 0.45934 0.74187 0.97815 0.0
O782 O 0.53977 0.85853 0.05469 0.0
O783 O 0.50813 0.86224 0.03269 0.0
C784 C 0.50585 0.73138 0.05931 0.0
C785 C 0.45936 0.82675 -0.00383 0.0
C786 C 0.58451 0.87703 0.00192 0.0
C787 C 0.5126 0.7485 0.97656 0.0
C788 C 0.52416 0.89151 0.9766 0.0
C789 C 0.57008 0.79751 0.05261 0.0
C790 C 0.44908 0.73051 -0.00166 0.0
C791 C 0.52185 0.86669 0.05507 0.0
O792 O 0.49105 0.73225 0.03803 0.0
O793 O 0.52025 0.75273 0.06312 0.0
O794 O 0.4754 0.84413 0.99281 0.0
O795 O 0.45951 0.79787 0.00246 0.0
O796 O 0.57999 0.87304 0.02854 0.0
O797 O 0.57047 0.86565 0.98297 0.0
O798 O 0.49589 0.76106 0.97299 0.0
O799 O 0.5249 0.75229 0.00073 0.0
Co800 Co 0.78902 0.42801 0.0061 0.0
Co801 Co 0.74428 0.41664 0.02931 0.0
Co802 Co 0.76684 0.47878 0.03828 0.0
H803 H 0.77545 0.44816 0.02798 0.0
O804 O 0.77255 0.43288 0.03979 0.0
H805 H 0.73586 0.44593 0.04207 0.0
O806 O 0.73821 0.46203 0.03105 0.0
Co807 Co 0.7227 0.46266 0.06685 0.0
O808 O 0.70017 0.43012 0.0501 0.0
O809 O 0.71544 0.40113 0.01985 0.0
O810 O 0.73285 0.50799 0.07264 0.0
O811 O 0.7584 0.52087 0.04422 0.0
O812 O 0.80641 0.39768 0.9877 0.0
O813 O 0.81966 0.42859 0.02066 0.0
O814 O 0.74477 0.4478 0.09739 0.0
O815 O 0.74458 0.40404 0.07285 0.0
C816 C 0.80847 0.49203 0.02174 0.0
C817 C 0.76593 0.36438 0.00931 0.0
C818 C 0.69373 0.47359 0.09498 0.0
C819 C 0.76213 0.46901 0.97066 0.0
C820 C 0.69968 0.40798 0.03139 0.0
C821 C 0.74544 0.52788 0.06169 0.0
C822 C 0.82257 0.40742 0.00329 0.0
C823 C 0.74976 0.42035 0.09635 0.0
O824 O 0.80572 0.46913 0.00373 0.0
O825 O 0.79628 0.49588 0.04158 0.0
O826 O 0.75191 0.37455 0.0227 0.0
O827 O 0.7803 0.38201 -0.0001 0.0
O828 O 0.70947 0.46163 0.10678 0.0
O829 O 0.69438 0.47921 0.0671 0.0
O830 O 0.76884 0.44236 0.97232 0.0
O831 O 0.76371 0.48674 -0.00649 0.0
Co832 Co 0.48109 0.49028 0.21999 0.0
Co833 Co 0.49993 0.42242 0.22526 0.0
Co834 Co 0.52495 0.4774 0.20289 0.0
H835 H 0.50168 0.47572 0.20778 0.0
O836 O 0.49526 0.45952 0.19965 0.0
H837 H 0.52352 0.42494 0.22238 0.0
O838 O 0.52965 0.44146 0.23036 0.0
Co839 Co 0.54483 0.41091 0.21194 0.0
O840 O 0.53256 0.37065 0.2275 0.0
O841 O 0.50528 0.38309 0.2486 0.0
O842 O 0.56509 0.44115 0.19439 0.0
O843 O 0.55469 0.48836 0.20097 0.0
O844 O 0.46557 0.53013 0.2134 0.0
O845 O 0.4561 0.49551 0.24257 0.0
O846 O 0.52864 0.41727 0.17119 0.0
O847 O 0.49929 0.40003 0.18647 0.0
C848 C 0.50553 0.53333 0.17947 0.0
C849 C 0.45532 0.42804 0.22074 0.0
C850 C 0.57569 0.38139 0.2252 0.0
C851 C 0.51603 0.49515 0.26238 0.0
C852 C 0.51805 0.36379 0.24341 0.0
C853 C 0.56785 0.47049 0.19398 0.0
C854 C 0.45266 0.5215 0.23103 0.0
C855 C 0.51052 0.40564 0.16538 0.0
O856 O 0.49157 0.52863 0.19707 0.0
O857 O 0.51863 0.51386 0.17651 0.0
O858 O 0.47026 0.41085 0.22345 0.0
O859 O 0.4575 0.45747 0.21872 0.0
O860 O 0.55823 0.36928 0.2168 0.0
O861 O 0.57562 0.41019 0.22629 0.0
O862 O 0.49951 0.47872 0.257 0.0
O863 O 0.52628 0.50291 0.24047 0.0
Co864 Co 0.78903 0.77009 0.20965 0.0
Co865 Co 0.76905 0.83395 0.22181 0.0
Co866 Co 0.74319 0.78301 0.18749 0.0
H867 H 0.76697 0.78532 0.19621 0.0
O868 O 0.77227 0.8031 0.19135 0.0
H869 H 0.74476 0.83047 0.21646 0.0
O870 O 0.7401 0.81194 0.22036 0.0
Co871 Co 0.72141 0.84512 0.20916 0.0
O872 O 0.73506 0.88245 0.23075 0.0
O873 O 0.7654 0.8676 0.25055 0.0
O874 O 0.69981 0.81319 0.19113 0.0
O875 O 0.71371 0.76991 0.18018 0.0
O876 O 0.81619 0.76202 0.23537 0.0
O877 O 0.80426 0.73208 0.20093 0.0
O878 O 0.73293 0.8732 0.17793 0.0
O879 O 0.76568 0.86353 0.18688 0.0
C880 C 0.76204 0.73401 0.15926 0.0
C881 C 0.81359 0.83256 0.22059 0.0
C882 C 0.68943 0.86733 0.22007 0.0
C883 C 0.75781 0.7495 0.24368 0.0
C884 C 0.7519 0.88728 0.24738 0.0
C885 C 0.69841 0.78558 0.18161 0.0
C886 C 0.81869 0.73805 0.22144 0.0
C887 C 0.75126 0.87738 0.17247 0.0
O888 O 0.77726 0.7365 0.17992 0.0
O889 O 0.7482 0.75314 0.15618 0.0
O890 O 0.79852 0.8478 0.22512 0.0
O891 O 0.81176 0.80402 0.2138 0.0
O892 O 0.69192 0.85584 0.19509 0.0
O893 O 0.7049 0.86541 0.23912 0.0
O894 O 0.77372 0.76757 0.2459 0.0
O895 O 0.74562 0.74934 0.21924 0.0
Co896 Co 0.46871 0.14833 0.97314 0.0
Co897 Co 0.49293 0.2144 0.95561 0.0
Co898 Co 0.51657 0.16482 0.98803 0.0
H899 H 0.49247 0.16558 0.98282 0.0
O900 O 0.48863 0.18305 0.98778 0.0
H901 H 0.51698 0.21551 0.96429 0.0
O902 O 0.52134 0.19861 0.95894 0.0
Co903 Co 0.54037 0.23278 0.97615 0.0
O904 O 0.53123 0.26147 0.94103 0.0
O905 O 0.4987 0.24657 0.92441 0.0
O906 O 0.56124 0.20066 0.98252 0.0
O907 O 0.54527 0.1541 0.99034 0.0
O908 O 0.45047 0.10804 0.97474 0.0
O909 O 0.4426 0.14669 -0.0044 0.0
O910 O 0.52738 0.24931 0.00986 0.0
O911 O 0.49559 0.24735 0.98691 0.0
C912 C 0.4974 0.10639 0.00857 0.0
C913 C 0.44986 0.20182 0.93762 0.0
C914 C 0.57207 0.26711 0.9884 0.0
C915 C 0.49678 0.13144 0.93122 0.0
C916 C 0.51492 0.26417 0.92298 0.0
C917 C 0.56133 0.17163 0.98771 0.0
C918 C 0.43773 0.11874 0.98957 0.0
C919 C 0.50934 0.25734 0.00754 0.0
O920 O 0.48111 0.11027 0.9912 0.0
O921 O 0.51105 0.12837 0.01496 0.0
O922 O 0.46364 0.22208 0.94812 0.0
O923 O 0.45125 0.17292 0.9422 0.0
O924 O 0.55692 0.26636 0.00296 0.0
O925 O 0.56936 0.24796 0.96721 0.0
O926 O 0.47865 0.13711 0.93409 0.0
O927 O 0.51159 0.13823 0.95148 0.0
Co928 Co 0.29619 0.53847 0.91949 0.0
Co929 Co 0.25175 0.52356 0.94714 0.0
Co930 Co 0.27734 0.58174 0.96351 0.0
H931 H 0.28417 0.5535 0.94671 0.0
O932 O 0.28096 0.53646 0.95571 0.0
H933 H 0.24444 0.55378 0.95975 0.0
O934 O 0.24853 0.57002 0.95012 0.0
Co935 Co 0.23097 0.57224 0.98288 0.0
O936 O 0.21409 0.53137 0.98454 0.0
O937 O 0.2217 0.50924 0.9428 0.0
O938 O 0.23973 0.61814 0.98743 0.0
O939 O 0.27173 0.62351 0.97531 0.0
O940 O 0.30873 0.5324 0.87958 0.0
O941 O 0.3259 0.52714 0.92143 0.0
O942 O 0.25244 0.55684 0.01414 0.0
O943 O 0.25468 0.51236 0.99122 0.0
C944 C 0.32102 0.58958 0.95855 0.0
C945 C 0.27196 0.47369 0.92255 0.0
C946 C 0.19708 0.59137 0.98627 0.0
C947 C 0.27156 0.58716 0.89746 0.0
C948 C 0.21024 0.51086 0.96408 0.0
C949 C 0.25609 0.63458 0.98368 0.0
C950 C 0.32573 0.52632 0.89305 0.0
C951 C 0.25827 0.52967 0.01441 0.0
O952 O 0.31861 0.57196 0.93532 0.0
O953 O 0.30675 0.59265 0.97497 0.0
O954 O 0.25813 0.48167 0.93792 0.0
O955 O 0.28602 0.49263 0.91371 0.0
O956 O 0.20278 0.56655 -0.00176 0.0
O957 O 0.21068 0.60543 0.97271 0.0
O958 O 0.27431 0.55925 0.89253 0.0
O959 O 0.27917 0.59966 0.92226 0.0
Co960 Co 0.47451 0.58617 0.77551 0.0
Co961 Co 0.49499 0.52048 0.78511 0.0
Co962 Co 0.5195 0.5757 0.76223 0.0
H963 H 0.49591 0.57255 0.76498 0.0
O964 O 0.48994 0.55586 0.75709 0.0
H965 H 0.51814 0.5225 0.77934 0.0
O966 O 0.52461 0.53862 0.78757 0.0
Co967 Co 0.53857 0.50865 0.76599 0.0
O968 O 0.5299 0.47213 0.7927 0.0
O969 O 0.50173 0.48451 0.81187 0.0
O970 O 0.56202 0.54152 0.76662 0.0
O971 O 0.54916 0.58804 0.76404 0.0
O972 O 0.45778 0.62278 0.78324 0.0
O973 O 0.44693 0.5917 0.74933 0.0
O974 O 0.5192 0.51655 0.72879 0.0
O975 O 0.49351 0.49317 0.74885 0.0
C976 C 0.50074 0.63383 0.74397 0.0
C977 C 0.45239 0.52725 0.79584 0.0
C978 C 0.56645 0.47775 0.75248 0.0
C979 C 0.50847 0.59214 0.82217 0.0
C980 C 0.51585 0.46643 0.80999 0.0
C981 C 0.56414 0.57098 0.76553 0.0
C982 C 0.44351 0.61551 0.76286 0.0
C983 C 0.50301 0.49913 0.72583 0.0
O984 O 0.48627 0.62667 0.75983 0.0
O985 O 0.5137 0.61479 0.73887 0.0
O986 O 0.4653 0.50946 0.78787 0.0
O987 O 0.45509 0.55657 0.79545 0.0
O988 O 0.55396 0.46864 0.77056 0.0
O989 O 0.56289 0.50405 0.74181 0.0
O990 O 0.49067 0.5794 0.81615 0.0
O991 O 0.51981 0.59796 0.8012 0.0
Co992 Co 0.29881 0.15348 0.78302 0.0
Co993 Co 0.27786 0.21706 0.79887 0.0
Co994 Co 0.25171 0.1646 0.76796 0.0
H995 H 0.2758 0.16808 0.77318 0.0
O996 O 0.28069 0.18605 0.76789 0.0
H997 H 0.25415 0.21592 0.78897 0.0
O998 O 0.24839 0.19881 0.79476 0.0
Co999 Co 0.23243 0.2316 0.77431 0.0
O1000 O 0.24362 0.26451 0.80544 0.0
O1001 O 0.27324 0.24872 0.82818 0.0
O1002 O 0.20974 0.19706 0.7722 0.0
O1003 O 0.22231 0.15134 0.76552 0.0
O1004 O 0.31543 0.11504 0.78526 0.0
O1005 O 0.32457 0.15367 0.76062 0.0
O1006 O 0.24808 0.23596 0.73812 0.0
O1007 O 0.27714 0.24929 0.76595 0.0
C1008 C 0.26723 0.10596 0.75589 0.0
C1009 C 0.32294 0.21285 0.80595 0.0
C1010 C 0.20236 0.26289 0.76167 0.0
C1011 C 0.26998 0.13678 0.82693 0.0
C1012 C 0.25912 0.26734 0.82563 0.0
C1013 C 0.20753 0.16783 0.76837 0.0
C1014 C 0.32845 0.12674 0.76918 0.0
C1015 C 0.26574 0.24958 0.74079 0.0
O1016 O 0.28348 0.11261 0.77344 0.0
O1017 O 0.25582 0.12684 0.74452 0.0
O1018 O 0.3076 0.22854 0.80712 0.0
O1019 O 0.3216 0.18498 0.79722 0.0
O1020 O 0.2203 0.27432 0.7678 0.0
O1021 O 0.20166 0.234 0.7623 0.0
O1022 O 0.28811 0.14649 0.82345 0.0
O1023 O 0.25527 0.13978 0.80618 0.0
H1024 H 0.83071 0.35564 0.97484 0.0
H1025 H 0.95147 0.38598 0.00795 0.0
H1026 H 0.85982 0.43296 0.02667 0.0
H1027 H 0.92116 0.29717 0.9831 0.0
H1028 H 0.91822 0.40667 0.00839 0.0
H1029 H 0.86412 0.33671 0.97148 0.0
C1030 C 0.84416 0.36863 0.98545 0.0
C1031 C 0.84258 0.39578 0.00114 0.0
C1032 C 0.9189 0.38268 0.00276 0.0
C1033 C 0.88075 0.3745 -0.00283 0.0
C1034 C 0.93785 0.37092 0.00231 0.0
C1035 C 0.93909 0.33975 -0.00438 0.0
C1036 C 0.90112 0.36325 -0.00396 0.0
C1037 C 0.92094 0.32125 0.98867 0.0
C1038 C 0.8632 0.35781 0.98358 0.0
C1039 C 0.86044 0.41179 0.01451 0.0
N1040 N 0.90272 0.33329 0.98902 0.0
N1041 N 0.87883 0.40095 0.01214 0.0
H1042 H 0.33128 0.85793 0.96836 0.0
H1043 H 0.45176 0.88655 0.00667 0.0
H1044 H 0.35931 0.92836 0.03005 0.0
H1045 H 0.42184 0.79786 0.98055 0.0
H1046 H 0.4183 0.907 0.00663 0.0
H1047 H 0.36496 0.84003 0.96422 0.0
C1048 C 0.34454 0.86967 0.98091 0.0
C1049 C 0.34258 0.89452 -0.00035 0.0
C1050 C 0.41914 0.88313 0.00075 0.0
C1051 C 0.381 0.87457 -0.00528 0.0
C1052 C 0.43818 0.87152 0.00057 0.0
C1053 C 0.43954 0.84044 -0.00626 0.0
C1054 C 0.40143 0.86364 -0.00651 0.0
C1055 C 0.42147 0.8219 0.98619 0.0
C1056 C 0.3637 0.85945 0.97859 0.0
C1057 C 0.36021 0.90896 0.01548 0.0
N1058 N 0.40317 0.8338 0.9862 0.0
N1059 N 0.37873 0.89886 0.01256 0.0
H1060 H 0.82557 0.8945 0.22763 0.0
H1061 H 0.94342 0.86736 0.22586 0.0
H1062 H 0.84916 0.80542 0.21985 0.0
H1063 H 0.9206 0.95786 0.22575 0.0
H1064 H 0.90886 0.84435 0.2269 0.0
H1065 H 0.8604 0.91842 0.23031 0.0
C1066 C 0.83801 0.87998 0.22656 0.0
C1067 C 0.83436 0.84793 0.22327 0.0
C1068 C 0.91142 0.86926 0.22666 0.0
C1069 C 0.8741 0.87504 0.22636 0.0
C1070 C 0.93118 0.88241 0.22608 0.0
C1071 C 0.93496 0.9146 0.22552 0.0
C1072 C 0.8953 0.88838 0.22676 0.0
C1073 C 0.91843 0.93292 0.22593 0.0
C1074 C 0.85786 0.89363 0.22805 0.0
C1075 C 0.8511 0.83024 0.22211 0.0
N1076 N 0.89933 0.91955 0.22648 0.0
N1077 N 0.87016 0.84403 0.2236 0.0
H1078 H 0.3489 0.30147 0.22518 0.0
H1079 H 0.41996 0.45715 0.216 0.0
H1080 H 0.32621 0.39221 0.22095 0.0
H1081 H 0.44272 0.36647 0.22589 0.0
H1082 H 0.38564 0.43385 0.21755 0.0
H1083 H 0.38328 0.32505 0.22574 0.0
C1084 C 0.35112 0.32642 0.2244 0.0
C1085 C 0.33455 0.34491 0.22281 0.0
C1086 C 0.39812 0.41904 0.2194 0.0
C1087 C 0.37412 0.37208 0.22341 0.0
C1088 C 0.4178 0.4323 0.21845 0.0
C1089 C 0.43437 0.41374 0.22079 0.0
C1090 C 0.39488 0.38695 0.22264 0.0
C1091 C 0.43047 0.38171 0.22393 0.0
C1092 C 0.37082 0.33986 0.22476 0.0
C1093 C 0.33849 0.37708 0.22218 0.0
N1094 N 0.41112 0.36934 0.22475 0.0
N1095 N 0.35789 0.38965 0.22232 0.0
H1096 H 0.16347 0.55982 0.00541 0.0
H1097 H 0.09724 0.706 0.98046 0.0
H1098 H 0.18467 0.64806 0.96953 0.0
H1099 H 0.07014 0.61431 -0.00347 0.0
H1100 H 0.12999 0.6851 0.98119 0.0
H1101 H 0.12978 0.57923 0.00651 0.0
C1102 C 0.16103 0.5833 -0.0021 0.0
C1103 C 0.17682 0.60248 0.98746 0.0
C1104 C 0.11693 0.66946 0.98455 0.0
C1105 C 0.13858 0.62471 0.98875 0.0
C1106 C 0.09811 0.68139 0.98423 0.0
C1107 C 0.08074 0.66189 0.98833 0.0
C1108 C 0.11864 0.6377 0.98914 0.0
C1109 C 0.08307 0.63022 -0.00678 0.0
C1110 C 0.14183 0.59428 -0.00157 0.0
C1111 C 0.1729 0.63255 0.97775 0.0
N1112 N 0.10171 0.61906 -0.00651 0.0
N1113 N 0.15421 0.64275 0.97874 0.0
H1114 H 0.66166 0.06982 0.95003 0.0
H1115 H 0.59838 0.19993 0.00694 0.0
H1116 H 0.6878 0.13792 0.01556 0.0
H1117 H 0.56948 0.11308 0.97327 0.0
H1118 H 0.63151 0.17939 0.00677 0.0
H1119 H 0.6279 0.08729 0.95425 0.0
C1120 C 0.66027 0.08848 0.96527 0.0
C1121 C 0.67748 0.10258 0.98242 0.0
C1122 C 0.61793 0.16472 -0.00035 0.0
C1123 C 0.63908 0.12261 0.98726 0.0
C1124 C 0.59902 0.17643 -0.00034 0.0
C1125 C 0.58118 0.15816 0.99004 0.0
C1126 C 0.61909 0.1347 0.98939 0.0
C1127 C 0.58289 0.12784 0.98099 0.0
C1128 C 0.64102 0.09827 0.9678 0.0
C1129 C 0.67488 0.12649 0.00195 0.0
N1130 N 0.60157 0.11714 0.98053 0.0
N1131 N 0.65604 0.13593 0.00367 0.0
H1132 H 0.19327 0.10984 0.74821 0.0
H1133 H 0.07769 0.1357 0.77015 0.0
H1134 H 0.17392 0.19259 0.78464 0.0
H1135 H 0.09735 0.0499 0.74101 0.0
H1136 H 0.11273 0.15818 0.77229 0.0
H1137 H 0.15797 0.08796 0.74336 0.0
C1138 C 0.18166 0.12336 0.75528 0.0
C1139 C 0.18658 0.1532 0.7666 0.0
C1140 C 0.10934 0.13443 0.76538 0.0
C1141 C 0.14623 0.12847 0.76093 0.0
C1142 C 0.08932 0.12167 0.764 0.0
C1143 C 0.08462 0.09078 0.75576 0.0
C1144 C 0.1247 0.1162 0.75834 0.0
C1145 C 0.10032 0.07366 0.74801 0.0
C1146 C 0.16151 0.11093 0.75238 0.0
C1147 C 0.17087 0.16969 0.77535 0.0
N1148 N 0.11966 0.08656 0.7496 0.0
N1149 N 0.15145 0.15714 0.77227 0.0
H1150 H 0.67086 0.69743 0.76443 0.0
H1151 H 0.59935 0.54175 0.76783 0.0
H1152 H 0.69326 0.60679 0.76314 0.0
H1153 H 0.57693 0.63273 0.76232 0.0
H1154 H 0.63366 0.56498 0.76629 0.0
H1155 H 0.63649 0.6739 0.76334 0.0
C1156 C 0.66859 0.67249 0.76391 0.0
C1157 C 0.68509 0.65403 0.76413 0.0
C1158 C 0.62126 0.57988 0.76538 0.0
C1159 C 0.64545 0.62689 0.7629 0.0
C1160 C 0.60158 0.56667 0.76633 0.0
C1161 C 0.5851 0.58532 0.76527 0.0
C1162 C 0.62464 0.61204 0.76343 0.0
C1163 C 0.58911 0.61742 0.76329 0.0
C1164 C 0.64886 0.65909 0.76323 0.0
C1165 C 0.68103 0.6219 0.76304 0.0
N1166 N 0.60848 0.62975 0.76248 0.0
N1167 N 0.6616 0.60932 0.76266 0.0
H1168 H 0.92566 0.80067 0.52325 0.0
H1169 H 0.85349 0.93671 0.47544 0.0
H1170 H 0.94706 0.88477 0.47929 0.0
H1171 H 0.8374 0.85751 0.53071 0.0
H1172 H 0.88746 0.9183 0.47487 0.0
H1173 H 0.89297 0.82124 0.52427 0.0
C1174 C 0.92352 0.8235 0.51364 0.0
C1175 C 0.93922 0.84089 0.50092 0.0
C1176 C 0.87649 0.90502 0.48714 0.0
C1177 C 0.90141 0.86481 0.50223 0.0
C1178 C 0.85712 0.91543 0.4874 0.0
C1179 C 0.84264 0.89847 0.50305 0.0
C1180 C 0.88129 0.87738 0.50248 0.0
C1181 C 0.84811 0.87124 0.51835 0.0
C1182 C 0.90475 0.83531 0.51439 0.0
C1183 C 0.93541 0.87051 0.48925 0.0
N1184 N 0.86696 0.86151 0.51758 0.0
N1185 N 0.91682 0.88153 0.49007 0.0
H1186 H 0.34051 0.36643 0.54094 0.0
H1187 H 0.44656 0.38028 0.47028 0.0
H1188 H 0.35025 0.42345 0.46203 0.0
H1189 H 0.42979 0.31179 0.53698 0.0
H1190 H 0.41304 0.40093 0.46989 0.0
H1191 H 0.37498 0.35045 0.54274 0.0
C1192 C 0.34991 0.37546 0.52387 0.0
C1193 C 0.34249 0.39602 0.50113 0.0
C1194 C 0.41682 0.38145 0.48463 0.0
C1195 C 0.38208 0.37796 0.50307 0.0
C1196 C 0.43594 0.36978 0.48497 0.0
C1197 C 0.4409 0.3441 0.50346 0.0
C1198 C 0.40281 0.36751 0.50321 0.0
C1199 C 0.42657 0.33135 0.52203 0.0
C1200 C 0.36962 0.36638 0.52491 0.0
C1201 C 0.35539 0.4073 0.47977 0.0
N1202 N 0.40826 0.34315 0.5214 0.0
N1203 N 0.37461 0.39809 0.48122 0.0
H1204 H 0.84934 0.30365 0.71864 0.0
H1205 H 0.92255 0.45808 0.72945 0.0
H1206 H 0.82759 0.39416 0.72544 0.0
H1207 H 0.94295 0.36757 0.71764 0.0
H1208 H 0.88807 0.43518 0.73006 0.0
H1209 H 0.88374 0.32683 0.72054 0.0
C1210 C 0.85173 0.3285 0.72054 0.0
C1211 C 0.83538 0.34701 0.72166 0.0
C1212 C 0.90006 0.42032 0.72733 0.0
C1213 C 0.87518 0.37376 0.72394 0.0
C1214 C 0.91983 0.43336 0.72686 0.0
C1215 C 0.93577 0.41477 0.72317 0.0
C1216 C 0.89609 0.38837 0.7242 0.0
C1217 C 0.9312 0.38285 0.72043 0.0
C1218 C 0.87151 0.3417 0.72166 0.0
C1219 C 0.83967 0.379 0.72446 0.0
N1220 N 0.91177 0.37068 0.72094 0.0
N1221 N 0.85919 0.39139 0.7254 0.0
H1222 H 0.32574 0.89057 0.71994 0.0
H1223 H 0.4437 0.86347 0.7189 0.0
H1224 H 0.34915 0.80055 0.71926 0.0
H1225 H 0.41985 0.95344 0.71517 0.0
H1226 H 0.40916 0.83988 0.71998 0.0
H1227 H 0.36037 0.91412 0.7197 0.0
C1228 C 0.33813 0.87576 0.71987 0.0
C1229 C 0.33447 0.84355 0.7195 0.0
C1230 C 0.41153 0.86479 0.71885 0.0
C1231 C 0.3741 0.8703 0.71911 0.0
C1232 C 0.43125 0.87826 0.71816 0.0
C1233 C 0.43475 0.91049 0.71687 0.0
C1234 C 0.39522 0.88368 0.7183 0.0
C1235 C 0.41797 0.92849 0.71612 0.0
C1236 C 0.35789 0.88921 0.71964 0.0
C1237 C 0.35115 0.82551 0.71935 0.0
N1238 N 0.39899 0.91484 0.71688 0.0
N1239 N 0.3702 0.83913 0.71913 0.0
H1240 H 0.0942 0.20146 0.46007 0.0
H1241 H 0.16534 0.06436 0.50893 0.0
H1242 H 0.07143 0.11618 0.50047 0.0
H1243 H 0.1826 0.144 0.45505 0.0
H1244 H 0.1313 0.08294 0.5083 0.0
H1245 H 0.12701 0.1808 0.46031 0.0
C1246 C 0.09605 0.17831 0.46906 0.0
C1247 C 0.07992 0.16059 0.48039 0.0
C1248 C 0.14255 0.09628 0.49661 0.0
C1249 C 0.11788 0.13666 0.48069 0.0
C1250 C 0.16196 0.08578 0.49705 0.0
C1251 C 0.17678 0.1028 0.48213 0.0
C1252 C 0.13805 0.12406 0.48129 0.0
C1253 C 0.17163 0.13022 0.46689 0.0
C1254 C 0.11489 0.16647 0.46909 0.0
C1255 C 0.0834 0.13066 0.49151 0.0
N1256 N 0.15274 0.14002 0.46696 0.0
N1257 N 0.10206 0.11965 0.49151 0.0
H1258 H 0.59554 0.70297 0.4689 0.0
H1259 H 0.66522 0.56237 0.50737 0.0
H1260 H 0.57124 0.61373 0.49874 0.0
H1261 H 0.68337 0.64533 0.45893 0.0
H1262 H 0.63136 0.58114 0.50792 0.0
H1263 H 0.62843 0.68268 0.46894 0.0
C1264 C 0.59705 0.67904 0.47551 0.0
C1265 C 0.58045 0.66006 0.48384 0.0
C1266 C 0.64276 0.59518 0.49717 0.0
C1267 C 0.61849 0.63656 0.48387 0.0
C1268 C 0.66207 0.58456 0.49693 0.0
C1269 C 0.67705 0.6024 0.48309 0.0
C1270 C 0.63858 0.62397 0.48379 0.0
C1271 C 0.67224 0.63087 0.46981 0.0
C1272 C 0.61594 0.66743 0.47543 0.0
C1273 C 0.58357 0.62921 0.49212 0.0
N1274 N 0.65345 0.6408 0.47059 0.0
N1275 N 0.60227 0.61841 0.49199 0.0
H1276 H 0.17228 0.69823 0.26911 0.0
H1277 H 0.0974 0.54622 0.24348 0.0
H1278 H 0.19247 0.61059 0.24571 0.0
H1279 H 0.07815 0.63512 0.26449 0.0
H1280 H 0.13199 0.56921 0.24296 0.0
H1281 H 0.13779 0.67528 0.26638 0.0
C1282 C 0.16953 0.67408 0.2633 0.0
C1283 C 0.18549 0.65632 0.25766 0.0
C1284 C 0.12021 0.58371 0.24762 0.0
C1285 C 0.14553 0.62978 0.25452 0.0
C1286 C 0.10042 0.57059 0.24806 0.0
C1287 C 0.08481 0.58869 0.2544 0.0
C1288 C 0.12452 0.61521 0.25357 0.0
C1289 C 0.08965 0.62025 0.25954 0.0
C1290 C 0.14968 0.661 0.26173 0.0
C1291 C 0.18072 0.62518 0.25024 0.0
N1292 N 0.10909 0.63245 0.25917 0.0
N1293 N 0.16115 0.61287 0.24896 0.0
H1294 H 0.57679 0.13277 0.25762 0.0
H1295 H 0.6952 0.1035 0.26797 0.0
H1296 H 0.5995 0.04218 0.26959 0.0
H1297 H 0.67067 0.19179 0.2476 0.0
H1298 H 0.66037 0.07995 0.26806 0.0
H1299 H 0.61146 0.15469 0.25463 0.0
C1300 C 0.58903 0.11749 0.25973 0.0
C1301 C 0.58514 0.08558 0.26387 0.0
C1302 C 0.66268 0.10448 0.26347 0.0
C1303 C 0.62494 0.11051 0.26029 0.0
C1304 C 0.68253 0.11785 0.26324 0.0
C1305 C 0.68588 0.14973 0.25822 0.0
C1306 C 0.64617 0.12317 0.25861 0.0
C1307 C 0.66889 0.16725 0.25225 0.0
C1308 C 0.60885 0.12999 0.25789 0.0
C1309 C 0.6017 0.06693 0.26635 0.0
N1310 N 0.64985 0.15381 0.2528 0.0
N1311 N 0.62084 0.07967 0.26455 0.0
H1312 H 0.18625 0.47497 0.91976 0.0
H1313 H 0.11701 0.39656 0.04227 0.0
H1314 H 0.19339 0.49493 0.01565 0.0
H1315 H 0.09657 0.39368 0.94611 0.0
H1316 H 0.14764 0.42722 0.03145 0.0
H1317 H 0.15586 0.44023 0.92734 0.0
C1318 C 0.18159 0.47193 0.94234 0.0
C1319 C 0.19244 0.48813 0.96704 0.0
C1320 C 0.13656 0.41987 0.01257 0.0
C1321 C 0.15788 0.44832 0.97591 0.0
C1322 C 0.11902 0.40219 0.01877 0.0
C1323 C 0.1041 0.39245 -0.00489 0.0
C1324 C 0.13952 0.428 0.98236 0.0
C1325 C 0.10766 0.40066 0.96508 0.0
C1326 C 0.16419 0.45224 0.94663 0.0
C1327 C 0.18555 0.48331 -0.00422 0.0
N1328 N 0.12499 0.41796 0.95953 0.0
N1329 N 0.16892 0.46397 -0.00066 0.0
H1330 H 0.18655 0.87594 0.97937 0.0
H1331 H 0.0826 0.80636 0.03867 0.0
H1332 H 0.16588 0.90504 0.06232 0.0
H1333 H 0.10018 0.78708 0.95072 0.0
H1334 H 0.11334 0.84142 0.04864 0.0
H1335 H 0.15532 0.84263 0.96919 0.0
C1336 C 0.1754 0.87555 -0.0046 0.0
C1337 C 0.17895 0.89355 0.02176 0.0
C1338 C 0.11044 0.8296 0.02712 0.0
C1339 C 0.14299 0.85488 0.01026 0.0
C1340 C 0.09291 0.80954 0.02144 0.0
C1341 C 0.08878 0.79381 -0.0062 0.0
C1342 C 0.12403 0.83392 0.00502 0.0
C1343 C 0.10272 0.79875 0.97234 0.0
C1344 C 0.15753 0.8564 0.98955 0.0
C1345 C 0.16384 0.89181 0.04162 0.0
N1346 N 0.11968 0.81828 0.97841 0.0
N1347 N 0.14661 0.87274 0.03555 0.0
H1348 H 0.08117 0.82248 0.20225 0.0
H1349 H 0.19521 0.82 0.28598 0.0
H1350 H 0.11069 0.89636 0.25841 0.0
H1351 H 0.16673 0.74926 0.22506 0.0
H1352 H 0.16418 0.84769 0.27744 0.0
H1353 H 0.11198 0.79454 0.21182 0.0
C1354 C 0.09415 0.83281 0.21663 0.0
C1355 C 0.09339 0.86184 0.22947 0.0
C1356 C 0.16472 0.82615 0.26589 0.0
C1357 C 0.1288 0.82998 0.24054 0.0
C1358 C 0.18245 0.81036 0.27073 0.0
C1359 C 0.18361 0.7824 0.25605 0.0
C1360 C 0.14795 0.81382 0.24633 0.0
C1361 C 0.16656 0.77087 0.23666 0.0
C1362 C 0.11176 0.81686 0.22207 0.0
C1363 C 0.11063 0.87405 0.24803 0.0
N1364 N 0.14947 0.78658 0.23241 0.0
N1365 N 0.12761 0.8581 0.25296 0.0
H1366 H 0.18906 0.43084 0.23704 0.0
H1367 H 0.06797 0.42236 0.23508 0.0
H1368 H 0.15132 0.34624 0.22106 0.0
H1369 H 0.10824 0.49807 0.27257 0.0
H1370 H 0.09775 0.39488 0.22649 0.0
H1371 H 0.15913 0.45682 0.2466 0.0
C1372 C 0.17445 0.4177 0.23559 0.0
C1373 C 0.17269 0.38629 0.2283 0.0
C1374 C 0.10003 0.41748 0.23666 0.0
C1375 C 0.13822 0.416 0.23907 0.0
C1376 C 0.08305 0.43316 0.24153 0.0
C1377 C 0.08561 0.46255 0.25454 0.0
C1378 C 0.11971 0.43145 0.24452 0.0
C1379 C 0.10552 0.47547 0.26247 0.0
C1380 C 0.15735 0.43254 0.24111 0.0
C1381 C 0.15336 0.37045 0.22671 0.0
N1382 N 0.12174 0.45996 0.2572 0.0
N1383 N 0.13686 0.38549 0.23192 0.0
H1384 H 0.82944 0.53466 0.06277 0.0
H1385 H 0.90672 0.59375 0.94304 0.0
H1386 H 0.82858 0.50029 0.9719 0.0
H1387 H 0.91915 0.6161 0.03817 0.0
H1388 H 0.87581 0.56369 0.95349 0.0
H1389 H 0.86006 0.5686 0.05469 0.0
C1390 C 0.83553 0.53435 0.04114 0.0
C1391 C 0.82636 0.51437 0.01807 0.0
C1392 C 0.8852 0.57513 0.97222 0.0
C1393 C 0.86124 0.55316 0.00864 0.0
C1394 C 0.90291 0.59242 0.96621 0.0
C1395 C 0.91564 0.6075 0.98973 0.0
C1396 C 0.87988 0.57271 0.00207 0.0
C1397 C 0.90979 0.60484 0.01932 0.0
C1398 C 0.85306 0.5536 0.0366 0.0
C1399 C 0.83507 0.51495 0.99055 0.0
N1400 N 0.89234 0.58778 0.02469 0.0
N1401 N 0.85182 0.53389 0.98669 0.0
H1402 H 0.9465 0.17041 0.97243 0.0
H1403 H 0.82646 0.14416 0.98229 0.0
H1404 H 0.91056 0.2384 0.0048 0.0
H1405 H 0.85973 0.07998 0.93853 0.0
H1406 H 0.85764 0.17719 -0.00674 0.0
H1407 H 0.9156 0.13561 0.9623 0.0
C1408 C 0.93211 0.17804 0.97736 0.0
C1409 C 0.93114 0.20742 0.98944 0.0
C1410 C 0.85821 0.15586 0.98135 0.0
C1411 C 0.89567 0.16763 0.97797 0.0
C1412 C 0.84034 0.13679 0.97513 0.0
C1413 C 0.84032 0.109 0.95944 0.0
C1414 C 0.87644 0.14726 0.97204 0.0
C1415 C 0.85891 0.1011 0.95066 0.0
C1416 C 0.91447 0.15816 0.97157 0.0
C1417 C 0.91207 0.21599 -0.0045 0.0
N1418 N 0.87618 0.12008 0.95709 0.0
N1419 N 0.89517 0.19626 0.98973 0.0
H1420 H 0.82622 0.19372 0.76087 0.0
H1421 H 0.93442 0.15805 0.71141 0.0
H1422 H 0.85296 0.24104 0.68685 0.0
H1423 H 0.91046 0.11789 0.79106 0.0
H1424 H 0.90416 0.18716 0.70079 0.0
H1425 H 0.85632 0.1642 0.77105 0.0
C1426 C 0.83842 0.19784 0.74673 0.0
C1427 C 0.83707 0.21981 0.72294 0.0
C1428 C 0.90549 0.17196 0.72057 0.0
C1429 C 0.87162 0.18612 0.73444 0.0
C1430 C 0.92275 0.1553 0.72662 0.0
C1431 C 0.92496 0.13556 0.75218 0.0
C1432 C 0.89021 0.1687 0.74011 0.0
C1433 C 0.90939 0.13293 0.77114 0.0
C1434 C 0.85562 0.18102 0.75256 0.0
C1435 C 0.85335 0.22426 0.70536 0.0
N1436 N 0.89268 0.14925 0.76471 0.0
N1437 N 0.86991 0.20757 0.71144 0.0
H1438 H 0.86959 0.65515 0.77119 0.0
H1439 H 0.91297 0.50829 0.70132 0.0
H1440 H 0.83166 0.57706 0.73367 0.0
H1441 H 0.95125 0.57647 0.75474 0.0
H1442 H 0.88322 0.53541 0.70958 0.0
H1443 H 0.89977 0.62914 0.76195 0.0
C1444 C 0.8676 0.63263 0.76086 0.0
C1445 C 0.84805 0.61832 0.75313 0.0
C1446 C 0.89811 0.54454 0.71948 0.0
C1447 C 0.88255 0.58836 0.74248 0.0
C1448 C 0.91514 0.52907 0.71472 0.0
C1449 C 0.93467 0.5401 0.72737 0.0
C1450 C 0.90053 0.57153 0.73682 0.0
C1451 C 0.93649 0.56714 0.74456 0.0
C1452 C 0.88485 0.61773 0.75569 0.0
C1453 C 0.84642 0.58902 0.73993 0.0
N1454 N 0.91967 0.58196 0.74872 0.0
N1455 N 0.86339 0.57508 0.735 0.0
H1456 H 0.18453 0.98037 0.4155 0.0
H1457 H 0.11829 0.89346 0.53724 0.0
H1458 H 0.19561 0.99172 0.51277 0.0
H1459 H 0.09472 0.90099 0.44247 0.0
H1460 H 0.14917 0.92374 0.52665 0.0
H1461 H 0.15397 0.94596 0.42283 0.0
C1462 C 0.1807 0.97541 0.43832 0.0
C1463 C 0.19265 0.98911 0.46353 0.0
C1464 C 0.13731 0.91879 0.50805 0.0
C1465 C 0.15793 0.94972 0.47209 0.0
C1466 C 0.11963 0.90138 0.5141 0.0
C1467 C 0.1038 0.89468 0.49077 0.0
C1468 C 0.13944 0.92969 0.47831 0.0
C1469 C 0.10654 0.90561 0.46118 0.0
C1470 C 0.1632 0.95595 0.44249 0.0
C1471 C 0.18683 0.982 0.49259 0.0
N1472 N 0.124 0.92259 0.45577 0.0
N1473 N 0.17006 0.9629 0.496 0.0
H1474 H 0.1027 0.27695 0.45047 0.0
H1475 H 0.16357 0.40995 0.55536 0.0
H1476 H 0.07963 0.31425 0.52785 0.0
H1477 H 0.18679 0.37154 0.4785 0.0
H1478 H 0.13234 0.37645 0.5447 0.0
H1479 H 0.13322 0.31232 0.45966 0.0
C1480 C 0.10405 0.29263 0.46939 0.0
C1481 C 0.08857 0.29265 0.48841 0.0
C1482 C 0.14423 0.37546 0.53008 0.0
C1483 C 0.12355 0.33334 0.49912 0.0
C1484 C 0.16209 0.39469 0.53609 0.0
C1485 C 0.17796 0.39372 0.51782 0.0
C1486 C 0.1421 0.35496 0.5056 0.0
C1487 C 0.17504 0.37328 0.49323 0.0
C1488 C 0.12149 0.31285 0.47463 0.0
C1489 C 0.09117 0.31345 0.51261 0.0
N1490 N 0.15756 0.35473 0.48794 0.0
N1491 N 0.1083 0.33291 0.51727 0.0
H1492 H 0.11717 0.40657 0.73802 0.0
H1493 H 0.16271 0.24031 0.75235 0.0
H1494 H 0.08038 0.32048 0.72782 0.0
H1495 H 0.20023 0.32592 0.75845 0.0
H1496 H 0.13246 0.26942 0.74439 0.0
H1497 H 0.1477 0.37777 0.74663 0.0
C1498 C 0.11552 0.38159 0.73776 0.0
C1499 C 0.09621 0.36589 0.7322 0.0
C1500 C 0.14728 0.28192 0.74735 0.0
C1501 C 0.1311 0.33271 0.74202 0.0
C1502 C 0.16459 0.26529 0.75189 0.0
C1503 C 0.18406 0.2807 0.75601 0.0
C1504 C 0.14934 0.31435 0.74685 0.0
C1505 C 0.18553 0.31311 0.75533 0.0
C1506 C 0.13296 0.36515 0.74259 0.0
C1507 C 0.09497 0.33351 0.73193 0.0
N1508 N 0.16841 0.32885 0.75083 0.0
N1509 N 0.11215 0.31803 0.73679 0.0
H1510 H 0.10931 0.00116 0.76903 0.0
H1511 H 0.15141 0.84398 0.72023 0.0
H1512 H 0.06968 0.92359 0.73426 0.0
H1513 H 0.1884 0.92979 0.73171 0.0
H1514 H 0.12163 0.87094 0.72953 0.0
H1515 H 0.13869 0.97367 0.75987 0.0
C1516 C 0.10677 0.97828 0.75951 0.0
C1517 C 0.08696 0.9647 0.75232 0.0
C1518 C 0.13625 0.88387 0.72997 0.0
C1519 C 0.1207 0.93285 0.74196 0.0
C1520 C 0.15327 0.86848 0.72473 0.0
C1521 C 0.17242 0.88466 0.72514 0.0
C1522 C 0.13842 0.91564 0.73602 0.0
C1523 C 0.17392 0.91641 0.73109 0.0
C1524 C 0.12359 0.9626 0.75422 0.0
C1525 C 0.08467 0.93495 0.74008 0.0
N1526 N 0.1572 0.93079 0.7364 0.0
N1527 N 0.10132 0.91998 0.73539 0.0
H1528 H 0.8268 0.99916 0.47007 0.0
H1529 H 0.91874 0.11719 0.53841 0.0
H1530 H 0.82962 0.03317 0.56144 0.0
H1531 H 0.90648 0.09034 0.44447 0.0
H1532 H 0.88734 0.08676 0.54912 0.0
H1533 H 0.85675 0.03213 0.46225 0.0
C1534 C 0.83371 0.01362 0.48867 0.0
C1535 C 0.82553 0.01305 0.51661 0.0
C1536 C 0.89152 0.0877 0.52618 0.0
C1537 C 0.86055 0.05161 0.50755 0.0
C1538 C 0.90944 0.10504 0.52003 0.0
C1539 C 0.9153 0.10638 0.49044 0.0
C1540 C 0.87945 0.07145 0.50258 0.0
C1541 C 0.90267 0.0901 0.4676 0.0
C1542 C 0.85093 0.03267 0.48407 0.0
C1543 C 0.83529 0.03281 0.53951 0.0
N1544 N 0.88553 0.07338 0.47416 0.0
N1545 N 0.85238 0.05114 0.53456 0.0
H1546 H 0.82717 0.64337 0.48974 0.0
H1547 H 0.94559 0.67397 0.46954 0.0
H1548 H 0.85947 0.58222 0.44067 0.0
H1549 H 0.91125 0.73798 0.51135 0.0
H1550 H 0.91478 0.63891 0.46059 0.0
H1551 H 0.85831 0.67677 0.49996 0.0
C1552 C 0.84083 0.63675 0.48128 0.0
C1553 C 0.84058 0.60975 0.4643 0.0
C1554 C 0.91398 0.66064 0.47169 0.0
C1555 C 0.87654 0.64835 0.47591 0.0
C1556 C 0.93156 0.68067 0.47679 0.0
C1557 C 0.93099 0.70897 0.49117 0.0
C1558 C 0.89566 0.66891 0.48109 0.0
C1559 C 0.91241 0.7164 0.50018 0.0
C1560 C 0.85865 0.656 0.48706 0.0
C1561 C 0.85886 0.60272 0.45385 0.0
N1562 N 0.89554 0.69655 0.49501 0.0
N1563 N 0.87605 0.62187 0.4598 0.0
H1564 H 0.93797 0.6773 0.28516 0.0
H1565 H 0.8262 0.68453 0.19472 0.0
H1566 H 0.90979 0.60637 0.22423 0.0
H1567 H 0.85282 0.75127 0.26125 0.0
H1568 H 0.85694 0.65625 0.20401 0.0
H1569 H 0.90732 0.70553 0.27535 0.0
C1570 C 0.92531 0.66767 0.2697 0.0
C1571 C 0.9264 0.6394 0.25556 0.0
C1572 C 0.85605 0.67704 0.21664 0.0
C1573 C 0.8912 0.67163 0.24416 0.0
C1574 C 0.8385 0.69317 0.21135 0.0
C1575 C 0.83693 0.72022 0.22733 0.0
C1576 C 0.87222 0.68809 0.23798 0.0
C1577 C 0.85335 0.73043 0.24854 0.0
C1578 C 0.9078 0.6838 0.26411 0.0
C1579 C 0.90958 0.62808 0.23563 0.0
N1580 N 0.87029 0.71441 0.2532 0.0
N1581 N 0.89268 0.6442 0.23054 0.0
H1582 H 0.84762 0.08542 0.30162 0.0
H1583 H 0.93645 0.06926 0.19563 0.0
H1584 H 0.85455 0.14295 0.2222 0.0
H1585 H 0.93016 0.01563 0.2777 0.0
H1586 H 0.90646 0.09617 0.20417 0.0
H1587 H 0.87752 0.05923 0.2924 0.0
C1588 C 0.85547 0.0926 0.28222 0.0
C1589 C 0.84858 0.11654 0.26273 0.0
C1590 C 0.91167 0.07858 0.22036 0.0
C1591 C 0.88303 0.08645 0.25192 0.0
C1592 C 0.92882 0.06323 0.21551 0.0
C1593 C 0.93591 0.04024 0.23606 0.0
C1594 C 0.90146 0.07084 0.24592 0.0
C1595 C 0.92534 0.0333 0.26134 0.0
C1596 C 0.87258 0.07759 0.27696 0.0
C1597 C 0.85935 0.12469 0.23787 0.0
N1598 N 0.9087 0.04845 0.26551 0.0
N1599 N 0.87602 0.10971 0.23319 0.0
H1600 H 0.61968 0.3561 0.48335 0.0
H1601 H 0.67265 0.5269 0.46431 0.0
H1602 H 0.59057 0.44022 0.49191 0.0
H1603 H 0.70406 0.44558 0.45297 0.0
H1604 H 0.64205 0.49448 0.4715 0.0
H1605 H 0.65018 0.387 0.47006 0.0
C1606 C 0.61965 0.38102 0.48229 0.0
C1607 C 0.6025 0.39556 0.48884 0.0
C1608 C 0.65551 0.4835 0.46727 0.0
C1609 C 0.63735 0.43108 0.47358 0.0
C1610 C 0.67308 0.50211 0.46314 0.0
C1611 C 0.69108 0.48904 0.45822 0.0
C1612 C 0.65572 0.45122 0.46681 0.0
C1613 C 0.69052 0.4567 0.45654 0.0
C1614 C 0.63707 0.39864 0.4747 0.0
C1615 C 0.60338 0.42793 0.48717 0.0
N1616 N 0.6732 0.43887 0.46113 0.0
N1617 N 0.62042 0.44445 0.47981 0.0
H1618 H 0.57523 0.82058 0.5231 0.0
H1619 H 0.69058 0.86059 0.48973 0.0
H1620 H 0.60579 0.76816 0.46329 0.0
H1621 H 0.66093 0.91327 0.55068 0.0
H1622 H 0.65933 0.8276 0.47889 0.0
H1623 H 0.60605 0.85545 0.53279 0.0
C1624 C 0.58842 0.81643 0.51198 0.0
C1625 C 0.58793 0.79143 0.49234 0.0
C1626 C 0.65959 0.84642 0.49456 0.0
C1627 C 0.62329 0.83127 0.5033 0.0
C1628 C 0.67748 0.86543 0.50075 0.0
C1629 C 0.67852 0.88993 0.52121 0.0
C1630 C 0.64244 0.85175 0.50887 0.0
C1631 C 0.66093 0.89476 0.53475 0.0
C1632 C 0.60602 0.83636 0.51751 0.0
C1633 C 0.60547 0.78716 0.47856 0.0
N1634 N 0.64367 0.87583 0.5284 0.0
N1635 N 0.62239 0.80682 0.48431 0.0
H1636 H 0.69258 0.81463 0.79659 0.0
H1637 H 0.58422 0.82843 0.69727 0.0
H1638 H 0.6685 0.75265 0.72427 0.0
H1639 H 0.60979 0.8944 0.76519 0.0
H1640 H 0.61455 0.7996 0.70794 0.0
H1641 H 0.66213 0.84347 0.78645 0.0
C1642 C 0.6809 0.80714 0.77853 0.0
C1643 C 0.68311 0.78126 0.76117 0.0
C1644 C 0.61357 0.82037 0.72054 0.0
C1645 C 0.64814 0.81407 0.74951 0.0
C1646 C 0.59623 0.83684 0.71446 0.0
C1647 C 0.5945 0.86391 0.73032 0.0
C1648 C 0.62935 0.83096 0.74271 0.0
C1649 C 0.61051 0.87366 0.75241 0.0
C1650 C 0.66351 0.8236 0.77275 0.0
C1651 C 0.66747 0.77254 0.73811 0.0
N1652 N 0.62725 0.85723 0.75794 0.0
N1653 N 0.65067 0.78885 0.73299 0.0
H1654 H 0.59739 0.49848 0.72009 0.0
H1655 H 0.65775 0.34476 0.74467 0.0
H1656 H 0.57623 0.4194 0.77149 0.0
H1657 H 0.68017 0.42786 0.70053 0.0
H1658 H 0.62734 0.3705 0.75366 0.0
H1659 H 0.62725 0.4719 0.71149 0.0
C1660 C 0.59896 0.47539 0.7294 0.0
C1661 C 0.58422 0.46108 0.74639 0.0
C1662 C 0.63893 0.38308 0.74202 0.0
C1663 C 0.61855 0.43035 0.73669 0.0
C1664 C 0.65627 0.36839 0.73687 0.0
C1665 C 0.6715 0.38415 0.72176 0.0
C1666 C 0.63678 0.41374 0.73191 0.0
C1667 C 0.6688 0.41475 0.71217 0.0
C1668 C 0.61608 0.46022 0.72457 0.0
C1669 C 0.58719 0.43124 0.75816 0.0
N1670 N 0.65183 0.42847 0.71736 0.0
N1671 N 0.60399 0.41684 0.75305 0.0
H1672 H 0.43077 0.55445 0.49055 0.0
H1673 H 0.31957 0.54484 0.54709 0.0
H1674 H 0.40244 0.63598 0.51173 0.0
H1675 H 0.34692 0.46902 0.51098 0.0
H1676 H 0.35065 0.57827 0.54058 0.0
H1677 H 0.40119 0.52272 0.50387 0.0
C1678 C 0.41831 0.56574 0.49808 0.0
C1679 C 0.41913 0.59802 0.49983 0.0
C1680 C 0.34987 0.55422 0.5344 0.0
C1681 C 0.3848 0.56146 0.5153 0.0
C1682 C 0.33221 0.53507 0.53839 0.0
C1683 C 0.33059 0.50403 0.52955 0.0
C1684 C 0.36606 0.54208 0.52184 0.0
C1685 C 0.34736 0.49278 0.51795 0.0
C1686 C 0.40134 0.54753 0.50573 0.0
C1687 C 0.40246 0.61119 0.50997 0.0
N1688 N 0.36422 0.51168 0.51444 0.0
N1689 N 0.38596 0.5929 0.51723 0.0
H1690 H 0.33385 0.12329 0.50892 0.0
H1691 H 0.4367 0.19738 0.4495 0.0
H1692 H 0.35491 0.09563 0.42576 0.0
H1693 H 0.41935 0.21443 0.53811 0.0
H1694 H 0.40647 0.1613 0.43951 0.0
H1695 H 0.36468 0.15746 0.51928 0.0
C1696 C 0.345 0.12416 0.49288 0.0
C1697 C 0.34166 0.10631 0.4664 0.0
C1698 C 0.40929 0.17286 0.46117 0.0
C1699 C 0.37719 0.14603 0.47811 0.0
C1700 C 0.42654 0.19353 0.46687 0.0
C1701 C 0.43059 0.20897 0.4947 0.0
C1702 C 0.39589 0.16762 0.48342 0.0
C1703 C 0.41686 0.20306 0.51634 0.0
C1704 C 0.36266 0.14381 0.49884 0.0
C1705 C 0.35679 0.10872 0.44654 0.0
N1706 N 0.40016 0.18297 0.51023 0.0
N1707 N 0.37378 0.12828 0.45272 0.0
H1708 H 0.41325 0.11165 0.21174 0.0
H1709 H 0.34813 0.24247 0.26911 0.0
H1710 H 0.43252 0.16643 0.29138 0.0
H1711 H 0.32953 0.19024 0.1876 0.0
H1712 H 0.37898 0.21456 0.27777 0.0
H1713 H 0.38253 0.13998 0.20238 0.0
C1714 C 0.41104 0.12969 0.22721 0.0
C1715 C 0.42545 0.13666 0.25241 0.0
C1716 C 0.36816 0.20912 0.258 0.0
C1717 C 0.39027 0.16914 0.24194 0.0
C1718 C 0.3505 0.225 0.25311 0.0
C1719 C 0.33618 0.21857 0.22768 0.0
C1720 C 0.37159 0.18654 0.23734 0.0
C1721 C 0.34012 0.19586 0.20756 0.0
C1722 C 0.39348 0.14585 0.22189 0.0
C1723 C 0.4218 0.16027 0.27171 0.0
N1724 N 0.35742 0.18067 0.21283 0.0
N1725 N 0.40458 0.17558 0.26612 0.0
H1726 H 0.33624 0.56921 0.27906 0.0
H1727 H 0.44339 0.57963 0.21066 0.0
H1728 H 0.36151 0.65251 0.23859 0.0
H1729 H 0.42086 0.50153 0.26212 0.0
H1730 H 0.41304 0.60612 0.21827 0.0
H1731 H 0.3664 0.54336 0.27038 0.0
C1732 C 0.34815 0.58208 0.2683 0.0
C1733 C 0.34637 0.61313 0.25964 0.0
C1734 C 0.41476 0.58322 0.22796 0.0
C1735 C 0.38111 0.58356 0.24956 0.0
C1736 C 0.43209 0.56811 0.22364 0.0
C1737 C 0.43473 0.5384 0.23592 0.0
C1738 C 0.39986 0.56842 0.24449 0.0
C1739 C 0.41955 0.5245 0.25241 0.0
C1740 C 0.36541 0.5673 0.26338 0.0
C1741 C 0.36227 0.62856 0.24567 0.0
N1742 N 0.40281 0.53956 0.25613 0.0
N1743 N 0.37896 0.61365 0.24107 0.0
H1744 H 0.68775 0.96992 0.91826 0.0
H1745 H 0.6145 0.90481 0.04142 0.0
H1746 H 0.69219 0.99882 0.01158 0.0
H1747 H 0.59809 0.88937 0.94547 0.0
H1748 H 0.64521 0.93489 0.0301 0.0
H1749 H 0.65707 0.93627 0.92675 0.0
C1750 C 0.68243 0.96909 0.94049 0.0
C1751 C 0.69264 0.98745 0.96416 0.0
C1752 C 0.63499 0.92497 0.01137 0.0
C1753 C 0.6577 0.94892 0.97408 0.0
C1754 C 0.61739 0.90764 0.01788 0.0
C1755 C 0.6036 0.89448 -0.00559 0.0
C1756 C 0.63915 0.92933 0.98105 0.0
C1757 C 0.60829 0.89908 0.96431 0.0
C1758 C 0.66486 0.95 0.94528 0.0
C1759 C 0.68489 0.98544 0.99246 0.0
N1760 N 0.62566 0.91611 0.95846 0.0
N1761 N 0.6681 0.96667 -0.00346 0.0
H1762 H 0.57911 0.31341 0.03012 0.0
H1763 H 0.69232 0.36055 0.99077 0.0
H1764 H 0.60727 0.26891 0.96168 0.0
H1765 H 0.66301 0.4102 0.05453 0.0
H1766 H 0.6614 0.32675 0.98025 0.0
H1767 H 0.60975 0.34857 0.04005 0.0
C1768 C 0.59177 0.31099 0.01724 0.0
C1769 C 0.59064 0.28818 -0.00496 0.0
C1770 C 0.66166 0.34509 -0.00354 0.0
C1771 C 0.62578 0.32841 0.00625 0.0
C1772 C 0.67937 0.36452 0.0025 0.0
C1773 C 0.68039 0.38843 0.02362 0.0
C1774 C 0.64472 0.34931 0.01169 0.0
C1775 C 0.663 0.3922 0.03803 0.0
C1776 C 0.60924 0.33113 0.02286 0.0
C1777 C 0.60747 0.28618 0.97897 0.0
N1778 N 0.64594 0.37281 0.03188 0.0
N1779 N 0.62432 0.30596 0.98491 0.0
H1780 H 0.65983 0.23972 0.27221 0.0
H1781 H 0.61543 0.40429 0.23347 0.0
H1782 H 0.69726 0.32112 0.25118 0.0
H1783 H 0.57774 0.31894 0.23303 0.0
H1784 H 0.64565 0.37508 0.24427 0.0
H1785 H 0.6297 0.26914 0.2623 0.0
C1786 C 0.66171 0.26381 0.26552 0.0
C1787 C 0.68109 0.27798 0.26246 0.0
C1788 C 0.63078 0.36273 0.24185 0.0
C1789 C 0.64663 0.3119 0.25123 0.0
C1790 C 0.61352 0.3794 0.23578 0.0
C1791 C 0.59405 0.36401 0.23233 0.0
C1792 C 0.62857 0.33041 0.24486 0.0
C1793 C 0.59247 0.33172 0.23544 0.0
C1794 C 0.64449 0.28059 0.25982 0.0
C1795 C 0.68261 0.30929 0.25381 0.0
N1796 N 0.60948 0.31601 0.24163 0.0
N1797 N 0.66562 0.32521 0.24857 0.0
H1798 H 0.654 0.87122 0.18211 0.0
H1799 H 0.60216 0.97242 0.29692 0.0
H1800 H 0.68289 0.89811 0.27097 0.0
H1801 H 0.57258 0.94414 0.20887 0.0
H1802 H 0.63177 0.94529 0.28784 0.0
H1803 H 0.62406 0.89758 0.19142 0.0
C1804 C 0.65401 0.88259 0.20363 0.0
C1805 C 0.67095 0.88236 0.22583 0.0
C1806 C 0.61881 0.9449 0.27051 0.0
C1807 C 0.6367 0.91274 0.23666 0.0
C1808 C 0.60186 0.96036 0.27571 0.0
C1809 C 0.58481 0.96044 0.25368 0.0
C1810 C 0.6188 0.92933 0.24301 0.0
C1811 C 0.58535 0.9446 0.22652 0.0
C1812 C 0.63691 0.89767 0.20894 0.0
C1813 C 0.67013 0.89755 0.25328 0.0
N1814 N 0.60205 0.92972 0.22196 0.0
N1815 N 0.65334 0.91212 0.25789 0.0
H1816 H 0.42692 0.05861 0.97703 0.0
H1817 H 0.32215 0.04468 0.05275 0.0
H1818 H 0.40676 0.13589 0.02152 0.0
H1819 H 0.34334 0.97553 -0.00171 0.0
H1820 H 0.35337 0.07784 0.0461 0.0
H1821 H 0.39693 0.0274 0.98897 0.0
C1822 C 0.41616 0.06907 0.98942 0.0
C1823 C 0.41941 0.10005 -0.00189 0.0
C1824 C 0.35112 0.0553 0.03581 0.0
C1825 C 0.38452 0.064 0.0121 0.0
C1826 C 0.33337 0.0363 0.03974 0.0
C1827 C 0.32995 0.00717 0.02603 0.0
C1828 C 0.36559 0.04493 0.01828 0.0
C1829 C 0.34504 0.99772 0.00924 0.0
C1830 C 0.39892 0.05115 -0.00372 0.0
C1831 C 0.40484 0.11214 0.01427 0.0
N1832 N 0.36197 0.01641 0.00589 0.0
N1833 N 0.38799 0.09412 0.0207 0.0
H1834 H 0.33464 0.62218 0.01044 0.0
H1835 H 0.43226 0.70549 0.94401 0.0
H1836 H 0.35192 0.60141 0.92257 0.0
H1837 H 0.4233 0.70751 0.03887 0.0
H1838 H 0.40153 0.67042 0.93459 0.0
H1839 H 0.36576 0.65607 0.02028 0.0
C1840 C 0.345 0.62458 -0.00677 0.0
C1841 C 0.34058 0.60872 0.96562 0.0
C1842 C 0.40631 0.67845 0.95749 0.0
C1843 C 0.37628 0.64803 0.9767 0.0
C1844 C 0.42383 0.69855 0.96286 0.0
C1845 C 0.4304 0.70941 0.99229 0.0
C1846 C 0.39512 0.66927 0.98166 0.0
C1847 C 0.41883 0.69967 0.01583 0.0
C1848 C 0.3628 0.64399 -0.00109 0.0
C1849 C 0.35468 0.61293 0.94426 0.0
N1850 N 0.40175 0.68028 0.01001 0.0
N1851 N 0.37177 0.63228 0.95015 0.0
H1852 H 0.41083 0.60311 0.7197 0.0
H1853 H 0.35025 0.74439 0.76663 0.0
H1854 H 0.43413 0.66733 0.79043 0.0
H1855 H 0.32761 0.68288 0.69325 0.0
H1856 H 0.38088 0.71604 0.77595 0.0
H1857 H 0.38021 0.63163 0.70969 0.0
C1858 C 0.40951 0.62324 0.7331 0.0
C1859 C 0.42504 0.6328 0.75599 0.0
C1860 C 0.36922 0.70865 0.75784 0.0
C1861 C 0.38999 0.66556 0.74474 0.0
C1862 C 0.35168 0.7248 0.75257 0.0
C1863 C 0.33629 0.7159 0.72923 0.0
C1864 C 0.37145 0.6833 0.73967 0.0
C1865 C 0.33906 0.69047 0.71157 0.0
C1866 C 0.39202 0.63952 0.72739 0.0
C1867 C 0.42253 0.65908 0.77261 0.0
N1868 N 0.35626 0.67507 0.71716 0.0
N1869 N 0.40536 0.67446 0.76671 0.0
H1870 H 0.35943 0.1493 0.7369 0.0
H1871 H 0.42216 0.99837 0.7671 0.0
H1872 H 0.33889 0.06877 0.7868 0.0
H1873 H 0.44114 0.07537 0.7112 0.0
H1874 H 0.39202 0.02453 0.77544 0.0
H1875 H 0.38969 0.1234 0.72785 0.0
C1876 C 0.36125 0.12613 0.74584 0.0
C1877 C 0.34658 0.11118 0.7626 0.0
C1878 C 0.40277 0.03582 0.7614 0.0
C1879 C 0.38126 0.0814 0.7525 0.0
C1880 C 0.42005 0.0209 0.75672 0.0
C1881 C 0.43427 0.03476 0.73854 0.0
C1882 C 0.39961 0.06495 0.74791 0.0
C1883 C 0.43061 0.06388 0.72546 0.0
C1884 C 0.37854 0.11135 0.74071 0.0
C1885 C 0.34978 0.08119 0.77376 0.0
N1886 N 0.41368 0.07801 0.73042 0.0
N1887 N 0.36673 0.06737 0.76856 0.0
H1888 H 0.99953 0.09191 0.87428 0.0
H1889 H 0.01037 0.26014 0.91528 0.0
H1890 H 0.03477 0.15401 0.81963 0.0
H1891 H 0.02882 0.19601 0.98745 0.0
H1892 H 0.01512 0.22126 0.87786 0.0
H1893 H 1.00633 0.1288 0.91617 0.0
C1894 C 1.009 0.11296 0.87139 0.0
C1895 C 0.01652 0.12014 0.84362 0.0
C1896 C 0.01848 0.21609 0.90194 0.0
C1897 C 0.02377 0.16211 0.89046 0.0
C1898 C 0.0157 0.23804 0.9231 0.0
C1899 C 0.01932 0.23105 0.95417 0.0
C1900 C 0.02417 0.18687 0.91219 0.0
C1901 C 0.02608 0.20215 0.96351 0.0
C1902 C 0.01291 0.13379 0.89516 0.0
C1903 C 0.02873 0.14765 0.84079 0.0
N1904 N 0.02787 0.18067 0.9425 0.0
N1905 N 0.03155 0.16814 0.86373 0.0
H1906 H 0.27691 0.96433 0.91972 0.0
H1907 H 0.29861 0.10533 0.86125 0.0
H1908 H 0.23525 0.0131 0.96515 0.0
H1909 H 0.23385 0.11476 0.84611 0.0
H1910 H 0.2922 0.05816 0.89049 0.0
H1911 H 0.2756 0.00411 0.87946 0.0
C1912 C 0.26687 0.98272 0.92054 0.0
C1913 C 0.25662 0.98623 0.94595 0.0
C1914 C 0.27944 0.07059 0.88055 0.0
C1915 C 0.25546 0.03141 0.90104 0.0
C1916 C 0.28308 0.09788 0.86457 0.0
C1917 C 0.26671 0.11385 0.85106 0.0
C1918 C 0.25939 0.05954 0.88343 0.0
C1919 C 0.24688 0.10297 0.85607 0.0
C1920 C 0.26634 0.00548 0.8979 0.0
C1921 C 0.24374 0.01029 0.94608 0.0
N1922 N 0.24372 0.07637 0.8721 0.0
N1923 N 0.2438 0.03254 0.92413 0.0
H1924 H 0.02937 0.13618 0.39839 0.0
H1925 H 1.00074 0.97658 0.31455 0.0
H1926 H 0.97287 0.08121 0.40314 0.0
H1927 H 0.03846 0.04906 0.276 0.0
H1928 H 0.99736 0.01003 0.35678 0.0
H1929 H 0.03834 0.1006 0.36076 0.0
C1930 C 0.01881 0.11676 0.39127 0.0
C1931 C 1.00027 0.11166 0.40352 0.0
C1932 C 1.00658 0.01843 0.33926 0.0
C1933 C 0.01072 0.07072 0.36167 0.0
C1934 C 1.00867 0.99934 0.31532 0.0
C1935 C 0.01954 0.01038 0.29147 0.0
C1936 C 0.01555 0.04866 0.33944 0.0
C1937 C 0.02981 0.03981 0.29384 0.0
C1938 C 0.02398 0.09652 0.37001 0.0
C1939 C 0.98715 0.08616 0.39384 0.0
N1940 N 0.02733 0.05823 0.31731 0.0
N1941 N 0.99272 0.06643 0.37361 0.0
H1942 H 0.26441 0.07863 0.33439 0.0
H1943 H 0.26406 0.25372 0.3046 0.0
H1944 H 0.25813 0.14163 0.40613 0.0
H1945 H 0.23584 0.19136 0.23493 0.0
H1946 H 0.26115 0.21229 0.34246 0.0
H1947 H 0.25264 0.1179 0.2968 0.0
C1948 C 0.26023 0.10042 0.3422 0.0
C1949 C 0.26288 0.10737 0.37324 0.0
C1950 C 0.25518 0.20782 0.31899 0.0
C1951 C 0.24958 0.15189 0.33088 0.0
C1952 C 0.25691 0.2314 0.29747 0.0
C1953 C 0.25031 0.2257 0.26681 0.0
C1954 C 0.24742 0.17818 0.30951 0.0
C1955 C 0.2411 0.19649 0.25851 0.0
C1956 C 0.25345 0.1227 0.32084 0.0
C1957 C 0.25697 0.13574 0.3823 0.0
N1958 N 0.24037 0.17344 0.27972 0.0
N1959 N 0.25098 0.1572 0.36119 0.0
H1960 H 0.01771 0.91072 0.109 0.0
H1961 H 0.0108 0.74298 0.06751 0.0
H1962 H 0.98524 0.84632 0.1651 0.0
H1963 H 0.98986 0.80633 -0.00394 0.0
H1964 H 1.0052 0.78088 0.10536 0.0
H1965 H 0.01099 0.87393 0.06703 0.0
C1966 C 1.00882 0.88916 0.11219 0.0
C1967 C 1.00207 0.88135 0.14036 0.0
C1968 C 1.00149 0.78609 0.08135 0.0
C1969 C 0.99495 0.83944 0.09339 0.0
C1970 C 1.00478 0.7647 0.05992 0.0
C1971 C 1.00078 0.77179 0.0289 0.0
C1972 C 0.99488 0.8149 0.07144 0.0
C1973 C 0.99302 0.80014 0.01992 0.0
C1974 C 1.00495 0.86838 0.08837 0.0
C1975 C 0.99064 0.85317 0.14359 0.0
N1976 N 0.99075 0.82114 0.04119 0.0
N1977 N 0.98789 0.83275 0.12056 0.0
H1978 H 0.78296 0.98261 0.01881 0.0
H1979 H 0.74682 0.93765 0.17996 0.0
H1980 H 0.74914 0.04114 0.06826 0.0
H1981 H 0.76901 0.87428 0.12053 0.0
H1982 H 0.75607 0.98055 0.14603 0.0
H1983 H 0.78738 0.94866 0.06335 0.0
C1984 C 0.77685 0.98864 0.03935 0.0
C1985 C 0.76519 0.01413 0.03975 0.0
C1986 C 0.75891 0.95729 0.1404 0.0
C1987 C 0.76985 0.97524 0.09036 0.0
C1988 C 0.75346 0.93292 0.15948 0.0
C1989 C 0.75666 0.90268 0.15216 0.0
C1990 C 0.76737 0.95107 0.1138 0.0
C1991 C 0.76605 0.89743 0.12637 0.0
C1992 C 0.77933 0.96923 0.06469 0.0
C1993 C 0.75799 0.02141 0.06699 0.0
N1994 N 0.77082 0.92145 0.10774 0.0
N1995 N 0.76004 0.00157 0.09114 0.0
H1996 H 0.04666 0.92219 0.57555 0.0
H1997 H 0.9814 0.95326 0.70688 0.0
H1998 H 0.98931 0.86997 0.58181 0.0
H1999 H 0.0205 0.02416 0.66873 0.0
H2000 H 0.98357 0.92108 0.66277 0.0
H2001 H 0.03828 0.95785 0.61317 0.0
C2002 C 0.03242 0.91806 0.58517 0.0
C2003 C 0.01873 0.89306 0.57591 0.0
C2004 C 0.9913 0.94397 0.66387 0.0
C2005 C 1.00896 0.93374 0.61853 0.0
C2006 C 0.98997 0.96237 0.68887 0.0
C2007 C 1.00115 0.99108 0.69168 0.0
C2008 C 1.00404 0.9544 0.642 0.0
C2009 C 0.01201 0.00185 0.66773 0.0
C2010 C 0.02751 0.9386 0.60626 0.0
C2011 C 1.00028 0.88902 0.58855 0.0
N2012 N 0.01352 0.98324 0.64416 0.0
N2013 N 0.99598 0.90905 0.60954 0.0
H2014 H 0.79201 0.7712 0.70887 0.0
H2015 H 0.74532 0.92989 0.6539 0.0
H2016 H 0.74185 0.80903 0.74489 0.0
H2017 H 0.7722 0.87122 0.59494 0.0
H2018 H 0.75553 0.89571 0.69705 0.0
H2019 H 0.79546 0.81768 0.67613 0.0
C2020 C 0.78198 0.78953 0.71007 0.0
C2021 C 0.76632 0.78637 0.72867 0.0
C2022 C 0.75958 0.89083 0.67474 0.0
C2023 C 0.77048 0.83915 0.6927 0.0
C2024 C 0.75381 0.91028 0.65024 0.0
C2025 C 0.7575 0.90273 0.62091 0.0
C2026 C 0.7692 0.86405 0.66967 0.0
C2027 C 0.76866 0.87725 0.61724 0.0
C2028 C 0.78397 0.8159 0.69166 0.0
C2029 C 0.75379 0.8106 0.7301 0.0
N2030 N 0.77391 0.8585 0.64133 0.0
N2031 N 0.75605 0.83598 0.71215 0.0
H2032 H 0.02709 0.69435 0.49042 0.0
H2033 H 0.03571 0.65561 0.31912 0.0
H2034 H 0.01172 0.75858 0.4169 0.0
H2035 H 1.00158 0.59292 0.37471 0.0
H2036 H 0.04157 0.69193 0.36117 0.0
H2037 H 0.03184 0.65553 0.45292 0.0
C2038 C 0.0252 0.70042 0.46639 0.0
C2039 C 0.01898 0.72943 0.4564 0.0
C2040 C 0.03326 0.66985 0.36425 0.0
C2041 C 0.0248 0.68595 0.41421 0.0
C2042 C 0.02998 0.64909 0.34049 0.0
C2043 C 0.01796 0.62144 0.34355 0.0
C2044 C 0.0249 0.66245 0.39128 0.0
C2045 C 0.01074 0.61419 0.37153 0.0
C2046 C 0.02784 0.67837 0.44523 0.0
C2047 C 0.01644 0.7363 0.42522 0.0
N2048 N 0.01425 0.63478 0.39447 0.0
N2049 N 0.01941 0.7146 0.40505 0.0
H2050 H 0.27749 0.63486 0.37599 0.0
H2051 H 0.26689 0.46371 0.41395 0.0
H2052 H 0.24638 0.57708 0.30446 0.0
H2053 H 0.24564 0.5283 0.47358 0.0
H2054 H 0.26269 0.50193 0.37219 0.0
H2055 H 0.27088 0.5934 0.41303 0.0
C2056 C 0.26916 0.61352 0.36827 0.0
C2057 C 0.26226 0.6092 0.33752 0.0
C2058 C 0.25852 0.50718 0.39434 0.0
C2059 C 0.25516 0.56211 0.37898 0.0
C2060 C 0.26088 0.48551 0.41805 0.0
C2061 C 0.25719 0.49334 0.44735 0.0
C2062 C 0.2528 0.53657 0.40051 0.0
C2063 C 0.24928 0.52176 0.4515 0.0
C2064 C 0.26532 0.59011 0.38921 0.0
C2065 C 0.25165 0.58117 0.32824 0.0
N2066 N 0.24787 0.54276 0.42849 0.0
N2067 N 0.24868 0.55826 0.34894 0.0
H2068 H 0.03984 0.55031 0.77566 0.0
H2069 H 0.97129 0.58701 0.90109 0.0
H2070 H 0.99857 0.48158 0.81249 0.0
H2071 H 0.03135 0.63298 0.90226 0.0
H2072 H 0.97947 0.55176 0.86295 0.0
H2073 H 0.03676 0.58372 0.81862 0.0
C2074 C 0.03057 0.54195 0.79312 0.0
C2075 C 0.01913 0.51344 0.79028 0.0
C2076 C 0.99084 0.56959 0.87158 0.0
C2077 C 0.01521 0.55153 0.83851 0.0
C2078 C 0.9861 0.58992 0.89299 0.0
C2079 C 1.00065 0.61293 0.90464 0.0
C2080 C 0.01013 0.57267 0.86141 0.0
C2081 C 0.01973 0.61544 0.89375 0.0
C2082 C 0.02873 0.56105 0.81744 0.0
C2083 C 1.00734 0.50368 0.81351 0.0
N2084 N 0.02392 0.59561 0.87248 0.0
N2085 N 1.00536 0.52295 0.83634 0.0
H2086 H 0.26345 0.57769 0.83566 0.0
H2087 H 0.26281 0.75187 0.80366 0.0
H2088 H 0.25575 0.64126 0.90623 0.0
H2089 H 0.23569 0.68863 0.7341 0.0
H2090 H 0.25914 0.71104 0.84193 0.0
H2091 H 0.25164 0.61621 0.79734 0.0
C2092 C 0.25892 0.59944 0.84305 0.0
C2093 C 0.26122 0.60681 0.87399 0.0
C2094 C 0.25356 0.70624 0.81838 0.0
C2095 C 0.24787 0.65048 0.83079 0.0
C2096 C 0.25574 0.72948 0.79664 0.0
C2097 C 0.24969 0.72332 0.76592 0.0
C2098 C 0.24592 0.6765 0.80908 0.0
C2099 C 0.24054 0.69407 0.75773 0.0
C2100 C 0.25212 0.62129 0.82128 0.0
C2101 C 0.25488 0.63509 0.8825 0.0
N2102 N 0.23939 0.67133 0.77918 0.0
N2103 N 0.24889 0.65617 0.861 0.0
H2104 H 0.03382 0.25579 0.56124 0.0
H2105 H 0.97739 0.37708 0.63996 0.0
H2106 H 0.97635 0.2819 0.51537 0.0
H2107 H 0.04154 0.38827 0.63039 0.0
H2108 H 0.97338 0.33636 0.60156 0.0
H2109 H 0.03306 0.29646 0.5978 0.0
C2110 C 0.02088 0.26974 0.55908 0.0
C2111 C 1.00533 0.26595 0.53484 0.0
C2112 C 0.98819 0.34823 0.60772 0.0
C2113 C 1.0045 0.31233 0.57651 0.0
C2114 C 0.9905 0.37143 0.62938 0.0
C2115 C 1.00986 0.38584 0.63849 0.0
C2116 C 1.00545 0.33917 0.59601 0.0
C2117 C 0.02635 0.37777 0.62412 0.0
C2118 C 0.02057 0.29304 0.5798 0.0
C2119 C 0.98879 0.28445 0.53351 0.0
N2120 N 0.02383 0.35449 0.60401 0.0
N2121 N 0.98885 0.30718 0.55406 0.0
H2122 H 0.78622 0.39066 0.64214 0.0
H2123 H 0.74777 0.54753 0.56911 0.0
H2124 H 0.73264 0.43283 0.6622 0.0
H2125 H 0.78556 0.48883 0.52697 0.0
H2126 H 0.75262 0.51636 0.61589 0.0
H2127 H 0.79517 0.43638 0.61159 0.0
C2128 C 0.77637 0.40952 0.64008 0.0
C2129 C 0.75827 0.40758 0.65363 0.0
C2130 C 0.76029 0.51089 0.59663 0.0
C2131 C 0.76872 0.45993 0.61985 0.0
C2132 C 0.75762 0.52871 0.57007 0.0
C2133 C 0.76577 0.51992 0.54409 0.0
C2134 C 0.77117 0.48442 0.59687 0.0
C2135 C 0.77856 0.49562 0.54643 0.0
C2136 C 0.78158 0.43563 0.62299 0.0
C2137 C 0.74631 0.43293 0.65107 0.0
N2138 N 0.78057 0.47824 0.57226 0.0
N2139 N 0.75167 0.45801 0.63423 0.0
H2140 H 0.98097 0.45167 0.21133 0.0
H2141 H 0.04441 0.42267 0.07862 0.0
H2142 H 0.01621 0.52467 0.16912 0.0
H2143 H 0.98769 0.36858 0.08454 0.0
H2144 H 0.03522 0.4582 0.1156 0.0
H2145 H 0.98248 0.41935 0.16701 0.0
C2146 C 0.98847 0.46121 0.19238 0.0
C2147 C 0.99887 0.49057 0.19406 0.0
C2148 C 0.02475 0.4386 0.10875 0.0
C2149 C 1.00102 0.4538 0.14419 0.0
C2150 C 0.03011 0.41811 0.08801 0.0
C2151 C 0.01686 0.39257 0.07887 0.0
C2152 C 1.00619 0.43318 0.12086 0.0
C2153 C 0.99833 0.38802 0.09124 0.0
C2154 C 0.98942 0.44273 0.16725 0.0
C2155 C 1.00838 0.50187 0.16896 0.0
N2156 N 0.99359 0.40802 0.11199 0.0
N2157 N 1.0096 0.48322 0.14532 0.0
H2158 H 0.78087 0.38328 0.10192 0.0
H2159 H 0.7308 0.27753 0.20765 0.0
H2160 H 0.73704 0.42074 0.15247 0.0
H2161 H 0.79579 0.28858 0.23269 0.0
H2162 H 0.73262 0.32582 0.17881 0.0
H2163 H 0.78828 0.34585 0.14349 0.0
C2164 C 0.77336 0.38422 0.12229 0.0
C2165 C 0.75827 0.40474 0.124 0.0
C2166 C 0.74644 0.31764 0.19077 0.0
C2167 C 0.76613 0.36194 0.17043 0.0
C2168 C 0.74551 0.28992 0.20685 0.0
C2169 C 0.76322 0.27906 0.22256 0.0
C2170 C 0.76524 0.33415 0.1896 0.0
C2171 C 0.78183 0.29627 0.22079 0.0
C2172 C 0.77762 0.36305 0.14586 0.0
C2173 C 0.74878 0.40519 0.15053 0.0
N2174 N 0.78246 0.32296 0.20408 0.0
N2175 N 0.75238 0.38326 0.17244 0.0
H2176 H 0.54493 0.222 0.46852 0.0
H2177 H 0.48233 0.09449 0.36437 0.0
H2178 H 0.481 0.22327 0.43618 0.0
H2179 H 0.54145 0.12985 0.34197 0.0
H2180 H 0.48561 0.13052 0.40624 0.0
H2181 H 0.5471 0.17899 0.43403 0.0
C2182 C 0.53143 0.21338 0.45414 0.0
C2183 C 0.51274 0.22612 0.45525 0.0
C2184 C 0.49799 0.1299 0.39242 0.0
C2185 C 0.51503 0.17683 0.41726 0.0
C2186 C 0.49621 0.10931 0.36863 0.0
C2187 C 0.5114 0.10983 0.34912 0.0
C2188 C 0.51514 0.15082 0.39692 0.0
C2189 C 0.5292 0.12919 0.35613 0.0
C2190 C 0.5327 0.18891 0.43473 0.0
C2191 C 0.49571 0.2142 0.43619 0.0
N2192 N 0.53049 0.14942 0.37935 0.0
N2193 N 0.49723 0.18996 0.41825 0.0
H2194 H 0.7309 0.00628 0.45462 0.0
H2195 H 0.79821 0.09548 0.34723 0.0
H2196 H 0.77985 0.96426 0.4194 0.0
H2197 H 0.73395 0.10868 0.33715 0.0
H2198 H 0.7918 0.04886 0.37735 0.0
H2199 H 0.73008 0.04367 0.41228 0.0
C2200 C 0.74093 0.00431 0.43727 0.0
C2201 C 0.75561 0.98264 0.4404 0.0
C2202 C 0.77911 0.06192 0.36839 0.0
C2203 C 0.75535 0.02559 0.39327 0.0
C2204 C 0.78279 0.08883 0.35177 0.0
C2205 C 0.76659 0.10604 0.34 0.0
C2206 C 0.75916 0.05254 0.37371 0.0
C2207 C 0.74685 0.09606 0.34606 0.0
C2208 C 0.74054 0.02563 0.41331 0.0
C2209 C 0.76835 0.98078 0.41762 0.0
N2210 N 0.74367 0.06998 0.36284 0.0
N2211 N 0.76836 0.00272 0.39535 0.0
H2212 H 0.53173 0.13226 0.9044 0.0
H2213 H 0.49538 0.97944 0.81304 0.0
H2214 H 0.47113 0.08783 0.9008 0.0
H2215 H 0.53872 0.04691 0.77903 0.0
H2216 H 0.49234 0.01345 0.85491 0.0
H2217 H 0.53926 0.09674 0.86557 0.0
C2218 C 0.51999 0.11521 0.89521 0.0
C2219 C 0.50074 0.11299 0.90553 0.0
C2220 C 0.50266 0.02064 0.83842 0.0
C2221 C 0.50946 0.07207 0.86234 0.0
C2222 C 0.50454 0.00119 0.81466 0.0
C2223 C 0.51702 0.01068 0.79218 0.0
C2224 C 0.51346 0.04961 0.8399 0.0
C2225 C 0.52879 0.03887 0.79575 0.0
C2226 C 0.52432 0.09501 0.87325 0.0
C2227 C 0.48606 0.09051 0.89313 0.0
N2228 N 0.52657 0.05763 0.81909 0.0
N2229 N 0.4908 0.07066 0.87237 0.0
H2230 H 0.78705 0.23037 0.78413 0.0
H2231 H 0.73824 0.11281 0.87917 0.0
H2232 H 0.7247 0.2085 0.74624 0.0
H2233 H 0.78622 0.08357 0.83145 0.0
H2234 H 0.73066 0.15143 0.83874 0.0
H2235 H 0.78623 0.18181 0.81261 0.0
C2236 C 0.7731 0.21558 0.78197 0.0
C2237 C 0.75596 0.22336 0.76243 0.0
C2238 C 0.7423 0.13572 0.83666 0.0
C2239 C 0.75505 0.16809 0.79532 0.0
C2240 C 0.74665 0.11386 0.85956 0.0
C2241 C 0.76286 0.09528 0.85836 0.0
C2242 C 0.75478 0.13948 0.81332 0.0
C2243 C 0.77355 0.0975 0.83291 0.0
C2244 C 0.77278 0.18779 0.79799 0.0
C2245 C 0.73826 0.20324 0.76094 0.0
N2246 N 0.76975 0.12008 0.81173 0.0
N2247 N 0.73815 0.17643 0.7775 0.0
H2248 H 0.53879 0.90457 0.61931 0.0
H2249 H 0.4733 0.7769 0.51823 0.0
H2250 H 0.47785 0.87586 0.63878 0.0
H2251 H 0.53679 0.77268 0.55212 0.0
H2252 H 0.47216 0.82223 0.55016 0.0
H2253 H 0.53498 0.86738 0.57835 0.0
C2254 C 0.52442 0.89106 0.61451 0.0
C2255 C 0.50884 0.89255 0.63308 0.0
C2256 C 0.48624 0.81117 0.55037 0.0
C2257 C 0.50453 0.85021 0.58647 0.0
C2258 C 0.4869 0.78533 0.53249 0.0
C2259 C 0.50518 0.7711 0.53252 0.0
C2260 C 0.50411 0.82306 0.56747 0.0
C2261 C 0.52238 0.78286 0.55132 0.0
C2262 C 0.52234 0.86976 0.59128 0.0
C2263 C 0.49041 0.87483 0.62542 0.0
N2264 N 0.52147 0.80841 0.56776 0.0
N2265 N 0.48885 0.85385 0.60287 0.0
H2266 H 0.24658 0.04088 0.56842 0.0
H2267 H 0.28379 0.88214 0.63957 0.0
H2268 H 0.28264 0.98287 0.52214 0.0
H2269 H 0.22708 0.91967 0.65233 0.0
H2270 H 0.29188 0.92709 0.60728 0.0
H2271 H 0.24961 0.00567 0.61245 0.0
C2272 C 0.25569 0.0213 0.56795 0.0
C2273 C 0.2639 0.01408 0.54152 0.0
C2274 C 0.27776 0.92537 0.61742 0.0
C2275 C 0.26722 0.97405 0.59116 0.0
C2276 C 0.27304 0.89971 0.63546 0.0
C2277 C 0.25457 0.89697 0.64809 0.0
C2278 C 0.26411 0.94852 0.61269 0.0
C2279 C 0.24128 0.92054 0.6425 0.0
C2280 C 0.25727 0.00117 0.59289 0.0
C2281 C 0.27566 0.98861 0.54199 0.0
N2282 N 0.24635 0.9454 0.62524 0.0
N2283 N 0.2767 0.96906 0.56633 0.0
H2284 H 0.53832 0.86369 0.11475 0.0
H2285 H 0.49631 0.01444 0.1653 0.0
H2286 H 0.49435 0.90993 0.05366 0.0
H2287 H 0.50356 0.93781 0.22833 0.0
H2288 H 0.49855 0.97957 0.12308 0.0
H2289 H 0.52975 0.89426 0.15685 0.0
C2290 C 0.52687 0.8802 0.11027 0.0
C2291 C 0.51696 0.88428 0.08086 0.0
C2292 C 0.4992 0.97033 0.14612 0.0
C2293 C 0.50736 0.91922 0.12836 0.0
C2294 C 0.4978 0.99008 0.17001 0.0
C2295 C 0.49935 0.97862 0.19994 0.0
C2296 C 0.50298 0.93939 0.15258 0.0
C2297 C 0.50184 0.94716 0.20531 0.0
C2298 C 0.5219 0.89737 0.13421 0.0
C2299 C 0.50221 0.90593 0.07612 0.0
N2300 N 0.50399 0.92862 0.18183 0.0
N2301 N 0.49803 0.92292 0.0996 0.0
H2302 H 0.28633 0.80994 0.25339 0.0
H2303 H 0.2654 0.86036 0.07953 0.0
H2304 H 0.25879 0.75056 0.18076 0.0
H2305 H 0.25818 0.92106 0.15272 0.0
H2306 H 0.27828 0.82237 0.11674 0.0
H2307 H 0.29036 0.85209 0.21602 0.0
C2308 C 0.28169 0.80559 0.22947 0.0
C2309 C 0.27197 0.77707 0.21992 0.0
C2310 C 0.27424 0.84425 0.12459 0.0
C2311 C 0.27683 0.82448 0.17766 0.0
C2312 C 0.26678 0.86587 0.10348 0.0
C2313 C 0.26002 0.89335 0.11326 0.0
C2314 C 0.27491 0.85013 0.15564 0.0
C2315 C 0.26282 0.89979 0.14441 0.0
C2316 C 0.28393 0.82957 0.20835 0.0
C2317 C 0.26612 0.77243 0.18889 0.0
N2318 N 0.26971 0.87791 0.16473 0.0
N2319 N 0.26854 0.79603 0.1688 0.0
H2320 H 0.48766 0.58627 0.87184 0.0
H2321 H 0.54803 0.7286 0.96045 0.0
H2322 H 0.54197 0.63101 0.84062 0.0
H2323 H 0.48284 0.7099 0.94832 0.0
H2324 H 0.55107 0.68356 0.92874 0.0
H2325 H 0.49211 0.62062 0.91522 0.0
C2326 C 0.50076 0.60285 0.87442 0.0
C2327 C 0.51406 0.60656 0.85205 0.0
C2328 C 0.53619 0.68946 0.93332 0.0
C2329 C 0.51911 0.64578 0.9014 0.0
C2330 C 0.53444 0.71509 0.95106 0.0
C2331 C 0.51514 0.72322 0.95635 0.0
C2332 C 0.51856 0.67159 0.92194 0.0
C2333 C 0.49797 0.70489 0.94422 0.0
C2334 C 0.50324 0.62244 0.89912 0.0
C2335 C 0.53107 0.62792 0.85699 0.0
N2336 N 0.5001 0.67986 0.9277 0.0
N2337 N 0.53291 0.64731 0.88094 0.0
H2338 H 0.77402 0.45516 0.9159 0.0
H2339 H 0.73541 0.61162 0.8409 0.0
H2340 H 0.73565 0.51337 0.95757 0.0
H2341 H 0.79018 0.57126 0.82324 0.0
H2342 H 0.72727 0.56671 0.87302 0.0
H2343 H 0.77058 0.48777 0.86999 0.0
C2344 C 0.76435 0.47421 0.91501 0.0
C2345 C 0.75553 0.48225 0.94068 0.0
C2346 C 0.74097 0.5677 0.86187 0.0
C2347 C 0.75175 0.51945 0.88879 0.0
C2348 C 0.74571 0.59334 0.84383 0.0
C2349 C 0.76382 0.59552 0.83029 0.0
C2350 C 0.75429 0.54403 0.86589 0.0
C2351 C 0.77641 0.57094 0.83415 0.0
C2352 C 0.76252 0.49289 0.88895 0.0
C2353 C 0.74308 0.50699 0.93839 0.0
N2354 N 0.77146 0.54624 0.85177 0.0
N2355 N 0.74182 0.52513 0.91301 0.0
H2356 H 0.53819 0.55029 0.27515 0.0
H2357 H 0.47216 0.58061 0.40604 0.0
H2358 H 0.50058 0.47848 0.31486 0.0
H2359 H 0.52914 0.63396 0.40015 0.0
H2360 H 0.48085 0.54553 0.36806 0.0
H2361 H 0.53516 0.58324 0.31841 0.0
C2362 C 0.52979 0.54116 0.29333 0.0
C2363 C 0.51928 0.5119 0.29122 0.0
C2364 C 0.49143 0.56497 0.37506 0.0
C2365 C 0.51536 0.54945 0.33985 0.0
C2366 C 0.48634 0.58519 0.39632 0.0
C2367 C 0.49989 0.61026 0.40587 0.0
C2368 C 0.51002 0.57022 0.36294 0.0
C2369 C 0.51829 0.61485 0.39316 0.0
C2370 C 0.52794 0.56002 0.31783 0.0
C2371 C 0.50857 0.50117 0.31534 0.0
N2372 N 0.52279 0.59509 0.37206 0.0
N2373 N 0.50654 0.52018 0.33838 0.0
H2374 H 0.79004 0.72505 0.27647 0.0
H2375 H 0.73953 0.61285 0.3817 0.0
H2376 H 0.72474 0.71169 0.25638 0.0
H2377 H 0.78857 0.58367 0.33625 0.0
H2378 H 0.73252 0.65127 0.34089 0.0
H2379 H 0.78991 0.67697 0.30582 0.0
C2380 C 0.77562 0.71221 0.27854 0.0
C2381 C 0.75731 0.72243 0.26418 0.0
C2382 C 0.74434 0.63572 0.33942 0.0
C2383 C 0.75723 0.6674 0.29747 0.0
C2384 C 0.74834 0.61394 0.36253 0.0
C2385 C 0.76461 0.59535 0.36201 0.0
C2386 C 0.75727 0.63946 0.31661 0.0
C2387 C 0.77582 0.59759 0.33714 0.0
C2388 C 0.77565 0.68457 0.29485 0.0
C2389 C 0.73913 0.70456 0.26731 0.0
N2390 N 0.77232 0.62004 0.31573 0.0
N2391 N 0.73948 0.67792 0.28411 0.0
H2392 H 0.47758 0.36544 0.14829 0.0
H2393 H 0.5337 0.30924 0.0168 0.0
H2394 H 0.52853 0.41645 0.1135 0.0
H2395 H 0.47602 0.26606 0.03668 0.0
H2396 H 0.52866 0.35305 0.04703 0.0
H2397 H 0.47251 0.33447 0.1024 0.0
C2398 C 0.4874 0.37064 0.13067 0.0
C2399 C 0.50401 0.39273 0.13512 0.0
C2400 C 0.51696 0.3342 0.04477 0.0
C2401 C 0.49833 0.35739 0.08292 0.0
C2402 C 0.52001 0.30895 0.02788 0.0
C2403 C 0.50557 0.28369 0.02534 0.0
C2404 C 0.49953 0.33393 0.05986 0.0
C2405 C 0.48767 0.28497 0.03887 0.0
C2406 C 0.48448 0.35293 0.10449 0.0
C2407 C 0.51597 0.39894 0.11139 0.0
N2408 N 0.48531 0.30953 0.05624 0.0
N2409 N 0.51314 0.38089 0.08653 0.0
H2410 H 0.28336 0.48304 0.02279 0.0
H2411 H 0.2346 0.43257 0.168 0.0
H2412 H 0.25121 0.54453 0.0716 0.0
H2413 H 0.2822 0.38377 0.13677 0.0
H2414 H 0.24421 0.47708 0.13696 0.0
H2415 H 0.28844 0.45081 0.06849 0.0
C2416 C 0.27779 0.49007 0.04342 0.0
C2417 C 0.26627 0.51573 0.04334 0.0
C2418 C 0.25268 0.45676 0.13699 0.0
C2419 C 0.27156 0.47885 0.09519 0.0
C2420 C 0.24693 0.43116 0.15423 0.0
C2421 C 0.25712 0.40417 0.15381 0.0
C2422 C 0.26843 0.45503 0.11872 0.0
C2423 C 0.27363 0.40396 0.13689 0.0
C2424 C 0.28072 0.47175 0.0695 0.0
C2425 C 0.25981 0.52447 0.07066 0.0
N2426 N 0.27854 0.42887 0.11944 0.0
N2427 N 0.26204 0.50549 0.0954 0.0
H2428 H 0.49538 0.40939 0.55314 0.0
H2429 H 0.51215 0.43983 0.73102 0.0
H2430 H 0.54215 0.36763 0.61305 0.0
H2431 H 0.49164 0.50908 0.66557 0.0
H2432 H 0.51649 0.40588 0.68908 0.0
H2433 H 0.48764 0.43953 0.59553 0.0
C2434 C 0.50397 0.40645 0.5753 0.0
C2435 C 0.51943 0.38595 0.5797 0.0
C2436 C 0.51068 0.42827 0.68396 0.0
C2437 C 0.51043 0.42013 0.62816 0.0
C2438 C 0.50794 0.44736 0.70774 0.0
C2439 C 0.50115 0.47682 0.7014 0.0
C2440 C 0.50635 0.43872 0.65383 0.0
C2441 C 0.49656 0.48622 0.6711 0.0
C2442 C 0.49955 0.42373 0.59937 0.0
C2443 C 0.53018 0.38328 0.60875 0.0
N2444 N 0.49918 0.46712 0.64828 0.0
N2445 N 0.52538 0.4001 0.63206 0.0
H2446 H 0.28787 0.3049 0.74759 0.0
H2447 H 0.25812 0.35201 0.57437 0.0
H2448 H 0.25516 0.24421 0.67981 0.0
H2449 H 0.25872 0.41591 0.64786 0.0
H2450 H 0.27044 0.31311 0.61089 0.0
H2451 H 0.29016 0.34561 0.70845 0.0
C2452 C 0.28169 0.2999 0.7243 0.0
C2453 C 0.27104 0.27145 0.71678 0.0
C2454 C 0.26814 0.33579 0.61893 0.0
C2455 C 0.27381 0.3174 0.67245 0.0
C2456 C 0.26098 0.35799 0.59821 0.0
C2457 C 0.25671 0.38692 0.60831 0.0
C2458 C 0.27112 0.34253 0.64994 0.0
C2459 C 0.26139 0.39365 0.63928 0.0
C2460 C 0.28292 0.32312 0.70217 0.0
C2461 C 0.26325 0.26604 0.68646 0.0
N2462 N 0.26808 0.37132 0.65923 0.0
N2463 N 0.26466 0.28896 0.66535 0.0
H2464 H 0.18755 0.25236 0.13101 0.0
H2465 H 0.08527 0.32832 0.10503 0.0
H2466 H 0.162 0.29523 0.20316 0.0
H2467 H 0.09206 0.24759 0.0534 0.0
H2468 H 0.11456 0.31616 0.14028 0.0
H2469 H 0.15361 0.24748 0.10185 0.0
C2470 C 0.17468 0.25969 0.14117 0.0
C2471 C 0.17755 0.2748 0.16922 0.0
C2472 C 0.10956 0.30077 0.12152 0.0
C2473 C 0.13915 0.26983 0.13603 0.0
C2474 C 0.09296 0.30788 0.10124 0.0
C2475 C 0.08641 0.28899 0.07628 0.0
C2476 C 0.12007 0.27496 0.11649 0.0
C2477 C 0.09675 0.26264 0.0725 0.0
C2478 C 0.15539 0.25705 0.12447 0.0
C2479 C 0.16048 0.28412 0.18129 0.0
N2480 N 0.11343 0.25662 0.09218 0.0
N2481 N 0.14208 0.28205 0.16437 0.0
H2482 H 0.07775 0.00964 0.14931 0.0
H2483 H 0.18589 0.94074 0.15054 0.0
H2484 H 0.10456 0.95085 0.22035 0.0
H2485 H 0.16604 0.01181 0.08658 0.0
H2486 H 0.15614 0.94594 0.17688 0.0
H2487 H 0.11024 0.01422 0.12723 0.0
C2488 C 0.0907 0.99877 0.1609 0.0
C2489 C 0.08861 0.98016 0.18685 0.0
C2490 C 0.15833 0.96071 0.15729 0.0
C2491 C 0.12538 0.98425 0.16133 0.0
C2492 C 0.17534 0.95768 0.14221 0.0
C2493 C 0.1785 0.97596 0.11643 0.0
C2494 C 0.1442 0.9821 0.1465 0.0
C2495 C 0.16419 0.99733 0.10647 0.0
C2496 C 0.10913 0.00098 0.14809 0.0
C2497 C 0.10563 0.96565 0.20046 0.0
N2498 N 0.14759 0.99972 0.12142 0.0
N2499 N 0.12315 0.96772 0.18739 0.0
H2500 H 0.90982 0.70036 0.95563 0.0
H2501 H 0.82571 0.7438 0.8597 0.0
H2502 H 0.94453 0.74196 0.8868 0.0
H2503 H 0.86002 0.70433 0.79539 0.0
H2504 H 0.85705 0.75196 0.89488 0.0
H2505 H 0.87841 0.71087 0.92322 0.0
C2506 C 0.91077 0.71242 0.93406 0.0
C2507 C 0.92966 0.7206 0.92388 0.0
C2508 C 0.85768 0.74216 0.87276 0.0
C2509 C 0.89413 0.73188 0.88672 0.0
C2510 C 0.83995 0.73776 0.85263 0.0
C2511 C 0.84039 0.72317 0.82479 0.0
C2512 C 0.87589 0.73248 0.86458 0.0
C2513 C 0.85911 0.71537 0.8168 0.0
C2514 C 0.89294 0.71848 0.9157 0.0
C2515 C 0.9302 0.73573 0.89556 0.0
N2516 N 0.87621 0.72007 0.83671 0.0
N2517 N 0.91262 0.74015 0.87751 0.0
H2518 H 0.94524 0.99232 0.83753 0.0
H2519 H 0.8307 0.04135 0.82852 0.0
H2520 H 0.91495 0.04272 0.76272 0.0
H2521 H 0.86096 0.99699 0.90762 0.0
H2522 H 0.86028 0.03592 0.80176 0.0
H2523 H 0.91324 0.9865 0.86078 0.0
C2524 C 0.93163 0.00096 0.82541 0.0
C2525 C 0.93255 0.01747 0.79792 0.0
C2526 C 0.86045 0.0271 0.82488 0.0
C2527 C 0.89623 0.01193 0.82466 0.0
C2528 C 0.84353 0.03022 0.84018 0.0
C2529 C 0.84336 0.0196 0.87032 0.0
C2530 C 0.87744 0.01326 0.83978 0.0
C2531 C 0.86046 0.00547 0.88435 0.0
C2532 C 0.91347 0.99811 0.83888 0.0
C2533 C 0.91473 0.02934 0.78368 0.0
N2534 N 0.87686 0.00283 0.86902 0.0
N2535 N 0.8974 0.02655 0.79728 0.0
H2536 H 0.19449 0.75752 0.62093 0.0
H2537 H 0.10978 0.80447 0.52659 0.0
H2538 H 0.16051 0.79665 0.68585 0.0
H2539 H 0.07578 0.76073 0.59524 0.0
H2540 H 0.14145 0.79316 0.55801 0.0
H2541 H 0.16308 0.75081 0.58539 0.0
C2542 C 0.1803 0.76374 0.62802 0.0
C2543 C 0.17992 0.77766 0.65619 0.0
C2544 C 0.12701 0.7853 0.56566 0.0
C2545 C 0.14443 0.77 0.61616 0.0
C2546 C 0.10902 0.79184 0.5479 0.0
C2547 C 0.09024 0.78331 0.55834 0.0
C2548 C 0.12608 0.77103 0.59431 0.0
C2549 C 0.08999 0.76735 0.58628 0.0
C2550 C 0.16255 0.76019 0.60772 0.0
C2551 C 0.16131 0.78588 0.66425 0.0
N2552 N 0.1077 0.76245 0.60375 0.0
N2553 N 0.14422 0.78192 0.64426 0.0
H2554 H 0.15848 0.49344 0.571 0.0
H2555 H 0.10723 0.46529 0.7246 0.0
H2556 H 0.19062 0.4637 0.65581 0.0
H2557 H 0.07596 0.50298 0.64285 0.0
H2558 H 0.13883 0.46973 0.70116 0.0
H2559 H 0.12886 0.50077 0.59744 0.0
C2560 C 0.15936 0.48872 0.59526 0.0
C2561 C 0.17705 0.47796 0.61126 0.0
C2562 C 0.12524 0.47783 0.68851 0.0
C2563 C 0.1432 0.48633 0.6417 0.0
C2564 C 0.10726 0.47568 0.70208 0.0
C2565 C 0.08914 0.4845 0.68587 0.0
C2566 C 0.12504 0.48828 0.65817 0.0
C2567 C 0.08977 0.49677 0.65637 0.0
C2568 C 0.14246 0.49296 0.61035 0.0
C2569 C 0.17731 0.47204 0.6426 0.0
N2570 N 0.10739 0.49791 0.64327 0.0
N2571 N 0.16063 0.47616 0.65674 0.0
H2572 H 0.82353 0.23513 0.36772 0.0
H2573 H 0.94428 0.24812 0.39311 0.0
H2574 H 0.85925 0.22095 0.29473 0.0
H2575 H 0.90831 0.19462 0.45354 0.0
H2576 H 0.91295 0.25918 0.36075 0.0
H2577 H 0.85496 0.24153 0.40304 0.0
C2578 C 0.83806 0.23471 0.35894 0.0
C2579 C 0.83899 0.22786 0.32836 0.0
C2580 C 0.912 0.24571 0.38154 0.0
C2581 C 0.8746 0.23529 0.36824 0.0
C2582 C 0.92975 0.23956 0.40007 0.0
C2583 C 0.92876 0.22044 0.42596 0.0
C2584 C 0.89322 0.23336 0.38951 0.0
C2585 C 0.90963 0.20942 0.43371 0.0
C2586 C 0.85586 0.23804 0.37908 0.0
C2587 C 0.85805 0.22651 0.31814 0.0
N2588 N 0.89253 0.21603 0.41548 0.0
N2589 N 0.87521 0.23016 0.33812 0.0
H2590 H 0.91509 0.54442 0.2644 0.0
H2591 H 0.86275 0.49961 0.4143 0.0
H2592 H 0.94549 0.49618 0.34067 0.0
H2593 H 0.83204 0.53998 0.33326 0.0
H2594 H 0.89239 0.49437 0.38707 0.0
H2595 H 0.88352 0.53791 0.28765 0.0
C2596 C 0.91487 0.53146 0.28562 0.0
C2597 C 0.93275 0.52031 0.30041 0.0
C2598 C 0.87909 0.50407 0.37517 0.0
C2599 C 0.89686 0.51395 0.32802 0.0
C2600 C 0.86219 0.50712 0.3907 0.0
C2601 C 0.84492 0.52026 0.37599 0.0
C2602 C 0.87871 0.51434 0.34473 0.0
C2603 C 0.84502 0.52971 0.34548 0.0
C2604 C 0.89691 0.52805 0.29911 0.0
C2605 C 0.93186 0.50447 0.32827 0.0
N2606 N 0.86166 0.52671 0.33096 0.0
N2607 N 0.91425 0.50214 0.34146 0.0
H2608 H 0.61074 0.30103 0.52875 0.0
H2609 H 0.66121 0.29181 0.69136 0.0
H2610 H 0.57518 0.258 0.59583 0.0
H2611 H 0.69372 0.26019 0.62071 0.0
H2612 H 0.62926 0.28305 0.65761 0.0
H2613 H 0.64187 0.29004 0.56172 0.0
C2614 C 0.60955 0.28864 0.55009 0.0
C2615 C 0.5905 0.28016 0.55961 0.0
C2616 C 0.64335 0.27726 0.64987 0.0
C2617 C 0.62571 0.26867 0.59757 0.0
C2618 C 0.66149 0.2822 0.66905 0.0
C2619 C 0.67996 0.27636 0.65878 0.0
C2620 C 0.64391 0.26765 0.61996 0.0
C2621 C 0.67968 0.26449 0.62952 0.0
C2622 C 0.62723 0.28237 0.56879 0.0
C2623 C 0.58965 0.26452 0.58761 0.0
N2624 N 0.66195 0.26127 0.61073 0.0
N2625 N 0.60706 0.25995 0.60605 0.0
H2626 H 0.60641 0.96437 0.72465 0.0
H2627 H 0.65651 0.99697 0.5707 0.0
H2628 H 0.57498 0.00623 0.6453 0.0
H2629 H 0.68898 0.96455 0.65417 0.0
H2630 H 0.62726 0.00419 0.59812 0.0
H2631 H 0.63779 0.96949 0.70067 0.0
C2632 C 0.60639 0.97589 0.70264 0.0
C2633 C 0.58828 0.98568 0.68725 0.0
C2634 C 0.64085 0.99581 0.61051 0.0
C2635 C 0.62388 0.99009 0.65877 0.0
C2636 C 0.65753 0.9916 0.59485 0.0
C2637 C 0.6752 0.98012 0.6102 0.0
C2638 C 0.64181 0.98837 0.64173 0.0
C2639 C 0.67567 0.97345 0.64144 0.0
C2640 C 0.62422 0.97839 0.68871 0.0
C2641 C 0.5888 0.99926 0.65824 0.0
N2642 N 0.65922 0.97751 0.6561 0.0
N2643 N 0.60626 0.00066 0.64471 0.0
H2644 H 0.40817 0.6887 0.4567 0.0
H2645 H 0.32538 0.74328 0.36235 0.0
H2646 H 0.44332 0.74353 0.39612 0.0
H2647 H 0.35989 0.70189 0.29948 0.0
H2648 H 0.35636 0.74976 0.3987 0.0
H2649 H 0.37701 0.70025 0.42406 0.0
C2650 C 0.40926 0.70375 0.43698 0.0
C2651 C 0.42823 0.71542 0.42914 0.0
C2652 C 0.35712 0.7401 0.37655 0.0
C2653 C 0.39304 0.72791 0.39175 0.0
C2654 C 0.33962 0.73664 0.35578 0.0
C2655 C 0.34021 0.722 0.32801 0.0
C2656 C 0.37525 0.72958 0.36898 0.0
C2657 C 0.35891 0.71324 0.32073 0.0
C2658 C 0.39157 0.71037 0.41854 0.0
C2659 C 0.42892 0.73445 0.4031 0.0
N2660 N 0.37577 0.7171 0.34121 0.0
N2661 N 0.41155 0.73944 0.38478 0.0
H2662 H 0.44364 0.99229 0.33832 0.0
H2663 H 0.32981 0.04379 0.33034 0.0
H2664 H 0.41342 0.04283 0.2635 0.0
H2665 H 0.35955 0.99741 0.40859 0.0
H2666 H 0.35916 0.03776 0.30327 0.0
H2667 H 0.4117 0.98685 0.36171 0.0
C2668 C 0.43006 0.00109 0.32626 0.0
C2669 C 0.43101 0.01764 0.29879 0.0
C2670 C 0.35926 0.02863 0.32627 0.0
C2671 C 0.39476 0.01244 0.32563 0.0
C2672 C 0.34248 0.0321 0.34174 0.0
C2673 C 0.34224 0.02109 0.37174 0.0
C2674 C 0.37605 0.01408 0.34087 0.0
C2675 C 0.35912 0.00622 0.38544 0.0
C2676 C 0.41194 0.99844 0.33979 0.0
C2677 C 0.41321 0.02958 0.28455 0.0
N2678 N 0.37541 0.00327 0.36996 0.0
N2679 N 0.39592 0.02697 0.29822 0.0
H2680 H 0.68798 0.74972 0.13105 0.0
H2681 H 0.58677 0.82871 0.1022 0.0
H2682 H 0.66255 0.79581 0.20135 0.0
H2683 H 0.59218 0.74603 0.05264 0.0
H2684 H 0.61601 0.81666 0.1374 0.0
H2685 H 0.65413 0.74525 0.10139 0.0
C2686 C 0.67514 0.75774 0.14077 0.0
C2687 C 0.67802 0.7735 0.16847 0.0
C2688 C 0.61072 0.80082 0.11912 0.0
C2689 C 0.63977 0.76906 0.13468 0.0
C2690 C 0.59413 0.80785 0.09882 0.0
C2691 C 0.58717 0.7884 0.07442 0.0
C2692 C 0.62083 0.77441 0.11479 0.0
C2693 C 0.59716 0.76154 0.07127 0.0
C2694 C 0.65591 0.75536 0.12377 0.0
C2695 C 0.661 0.78385 0.1799 0.0
N2696 N 0.61383 0.75552 0.09102 0.0
N2697 N 0.6427 0.78198 0.16271 0.0
H2698 H 0.68959 0.4606 0.15465 0.0
H2699 H 0.57381 0.50426 0.14252 0.0
H2700 H 0.65782 0.49771 0.07277 0.0
H2701 H 0.60552 0.46146 0.22112 0.0
H2702 H 0.60563 0.50949 0.11886 0.0
H2703 H 0.66001 0.46688 0.1812 0.0
C2704 C 0.67641 0.47029 0.14231 0.0
C2705 C 0.67616 0.47862 0.11147 0.0
C2706 C 0.60575 0.49968 0.14161 0.0
C2707 C 0.64212 0.48595 0.14176 0.0
C2708 C 0.58768 0.49718 0.15527 0.0
C2709 C 0.58724 0.48295 0.18399 0.0
C2710 C 0.62336 0.48774 0.15684 0.0
C2711 C 0.60538 0.47299 0.19912 0.0
C2712 C 0.65951 0.47391 0.15749 0.0
C2713 C 0.65864 0.49099 0.09659 0.0
N2714 N 0.62263 0.47536 0.18531 0.0
N2715 N 0.64228 0.49416 0.11183 0.0
H2716 H 0.43617 0.17378 0.88504 0.0
H2717 H 0.33291 0.24937 0.85596 0.0
H2718 H 0.42578 0.25066 0.93954 0.0
H2719 H 0.35902 0.20262 0.7868 0.0
H2720 H 0.36648 0.25425 0.88616 0.0
H2721 H 0.40753 0.18601 0.84868 0.0
C2722 C 0.4278 0.19338 0.88925 0.0
C2723 C 0.43312 0.21109 0.91537 0.0
C2724 C 0.36495 0.24388 0.86391 0.0
C2725 C 0.40013 0.22526 0.8738 0.0
C2726 C 0.34586 0.24131 0.84658 0.0
C2727 C 0.34324 0.22526 0.81906 0.0
C2728 C 0.38126 0.23015 0.8535 0.0
C2729 C 0.36039 0.21483 0.80809 0.0
C2730 C 0.41154 0.20056 0.86833 0.0
C2731 C 0.422 0.23648 0.9196 0.0
N2732 N 0.37858 0.21698 0.82558 0.0
N2733 N 0.40567 0.24255 0.89921 0.0
H2734 H 0.3284 0.52422 0.83183 0.0
H2735 H 0.44854 0.50608 0.85313 0.0
H2736 H 0.36412 0.51644 0.9193 0.0
H2737 H 0.41405 0.52444 0.76682 0.0
H2738 H 0.41693 0.50167 0.87706 0.0
H2739 H 0.35878 0.51738 0.80701 0.0
C2740 C 0.34261 0.52087 0.8458 0.0
C2741 C 0.34373 0.52088 0.87766 0.0
C2742 C 0.41616 0.50579 0.85273 0.0
C2743 C 0.3786 0.513 0.84943 0.0
C2744 C 0.43416 0.50776 0.83902 0.0
C2745 C 0.43372 0.51463 0.80785 0.0
C2746 C 0.39764 0.51094 0.8351 0.0
C2747 C 0.41488 0.51822 0.79077 0.0
C2748 C 0.35996 0.51695 0.83163 0.0
C2749 C 0.36256 0.51649 0.89466 0.0
N2750 N 0.3976 0.51649 0.80462 0.0
N2751 N 0.37924 0.51284 0.88036 0.0
H2752 H 0.98597 0.41555 0.97465 0.0
H2753 H 0.03352 0.58765 0.00947 0.0
H2754 H 0.04974 0.44383 0.97557 0.0
H2755 H 0.96985 0.55899 0.00899 0.0
H2756 H 0.04007 0.53457 -0.00088 0.0
H2757 H 0.97948 0.46873 0.98447 0.0
C2758 C 0.9985 0.43314 0.97578 0.0
C2759 C 0.01845 0.42526 0.97445 0.0
C2760 C 0.0247 0.5398 0.00174 0.0
C2761 C 0.01128 0.48583 0.98695 0.0
C2762 C 0.02103 0.56999 0.0083 0.0
C2763 C 1.00109 0.57772 0.00999 0.0
C2764 C 1.00832 0.51731 -0.0031 0.0
C2765 C 0.98544 0.55398 0.00772 0.0
C2766 C 0.99486 0.46341 0.98205 0.0
C2767 C 0.03414 0.44895 0.97662 0.0
N2768 N 0.98934 0.52492 0.0009 0.0
N2769 N 0.03027 0.47809 0.98319 0.0
H2770 H 0.22506 0.66972 -0.00548 0.0
H2771 H 0.29375 0.8294 0.99265 0.0
H2772 H 0.28878 0.67667 0.98201 0.0
H2773 H 0.23038 0.82278 0.00724 0.0
H2774 H 0.29197 0.77343 0.9877 0.0
H2775 H 0.22657 0.72581 -0.00111 0.0
C2776 C 0.23939 0.68295 0.99288 0.0
C2777 C 0.25682 0.66836 0.98793 0.0
C2778 C 0.27844 0.78425 0.9919 0.0
C2779 C 0.25861 0.73262 0.99273 0.0
C2780 C 0.27943 0.81626 -0.00537 0.0
C2781 C 0.2622 0.83092 0.0004 0.0
C2782 C 0.2601 0.76671 -0.00508 0.0
C2783 C 0.24408 0.81256 0.00288 0.0
C2784 C 0.24023 0.71501 -0.00472 0.0
C2785 C 0.27493 0.68682 0.98579 0.0
N2786 N 0.24352 0.78144 0.00016 0.0
N2787 N 0.27534 0.71793 0.98818 0.0
H2788 H 0.97265 0.67648 0.21677 0.0
H2789 H 0.04611 0.82506 0.26774 0.0
H2790 H 0.03685 0.6735 0.24473 0.0
H2791 H 0.98218 0.8287 0.23793 0.0
H2792 H 0.04258 0.76908 0.26217 0.0
H2793 H 0.97601 0.73247 0.22242 0.0
C2794 C 0.98761 0.68786 0.223 0.0
C2795 C 1.00455 0.67048 0.22999 0.0
C2796 C 0.02922 0.78196 0.25733 0.0
C2797 C 1.00834 0.73428 0.23807 0.0
C2798 C 0.03115 0.81382 0.2611 0.0
C2799 C 0.01436 0.83138 0.25356 0.0
C2800 C 0.01039 0.76757 0.24557 0.0
C2801 C 0.99541 0.81589 0.24448 0.0
C2802 C 0.98945 0.71973 0.22681 0.0
C2803 C 0.02351 0.68615 0.23858 0.0
N2804 N 0.99398 0.78484 0.24029 0.0
N2805 N 0.02485 0.71718 0.24283 0.0
H2806 H 0.29369 0.57673 0.21323 0.0
H2807 H 0.22937 0.42798 0.27011 0.0
H2808 H 0.23354 0.57893 0.2399 0.0
H2809 H 0.28689 0.4234 0.23516 0.0
H2810 H 0.23172 0.48384 0.26184 0.0
H2811 H 0.29112 0.52052 0.21894 0.0
C2812 C 0.27957 0.56518 0.21902 0.0
C2813 C 0.26371 0.58245 0.22579 0.0
C2814 C 0.24403 0.47078 0.25646 0.0
C2815 C 0.26112 0.5183 0.23416 0.0
C2816 C 0.24292 0.43897 0.26186 0.0
C2817 C 0.25811 0.42108 0.25376 0.0
C2818 C 0.26041 0.48491 0.24267 0.0
C2819 C 0.27508 0.43638 0.24239 0.0
C2820 C 0.27829 0.53315 0.22292 0.0
C2821 C 0.24596 0.56646 0.23392 0.0
N2822 N 0.27565 0.46739 0.23681 0.0
N2823 N 0.24529 0.53531 0.23845 0.0
H2824 H 0.79261 0.33111 0.98251 0.0
H2825 H 0.7294 0.16841 0.00307 0.0
H2826 H 0.73723 0.32024 0.02519 0.0
H2827 H 0.78459 0.17917 0.95988 0.0
H2828 H 0.73219 0.22403 0.01178 0.0
H2829 H 0.79018 0.27536 0.9745 0.0
C2830 C 0.77996 0.3171 0.9902 0.0
C2831 C 0.7651 0.33057 0.00447 0.0
C2832 C 0.74368 0.21418 0.00041 0.0
C2833 C 0.76221 0.26664 -0.00463 0.0
C2834 C 0.7421 0.18238 -0.00456 0.0
C2835 C 0.75677 0.16893 0.98073 0.0
C2836 C 0.76005 0.23274 0.99061 0.0
C2837 C 0.77287 0.18836 0.9713 0.0
C2838 C 0.77857 0.28523 0.98562 0.0
C2839 C 0.74907 0.31107 0.01403 0.0
N2840 N 0.77406 0.21918 0.9764 0.0
N2841 N 0.74806 0.28021 0.00928 0.0
H2842 H 0.04765 0.3255 0.76414 0.0
H2843 H 0.9724 0.17701 0.71929 0.0
H2844 H 0.98338 0.32966 0.73727 0.0
H2845 H 0.03682 0.17324 0.74468 0.0
H2846 H 0.97629 0.23311 0.72374 0.0
H2847 H 0.0437 0.26948 0.75932 0.0
C2848 C 0.03257 0.31444 0.75811 0.0
C2849 C 0.01579 0.33218 0.7512 0.0
C2850 C 0.98965 0.22015 0.7279 0.0
C2851 C 0.01127 0.26816 0.74441 0.0
C2852 C 0.98748 0.18819 0.72489 0.0
C2853 C 1.00434 0.17057 0.73144 0.0
C2854 C 1.0088 0.23461 0.73793 0.0
C2855 C 0.0235 0.18605 0.73897 0.0
C2856 C 0.03038 0.28251 0.75488 0.0
C2857 C 0.99665 0.31679 0.7432 0.0
N2858 N 0.02518 0.21721 0.74243 0.0
N2859 N 0.99495 0.28564 0.73962 0.0
H2860 H 0.79057 0.57564 0.71025 0.0
H2861 H 0.72762 0.42628 0.76914 0.0
H2862 H 0.73282 0.57883 0.74487 0.0
H2863 H 0.78635 0.42389 0.73744 0.0
H2864 H 0.72972 0.48234 0.76217 0.0
H2865 H 0.78824 0.51957 0.71706 0.0
C2866 C 0.77699 0.56434 0.71814 0.0
C2867 C 0.76178 0.58188 0.72674 0.0
C2868 C 0.74235 0.4697 0.75727 0.0
C2869 C 0.75948 0.51784 0.73614 0.0
C2870 C 0.74134 0.43776 0.76189 0.0
C2871 C 0.75694 0.42044 0.7542 0.0
C2872 C 0.75897 0.48445 0.74453 0.0
C2873 C 0.77417 0.43638 0.74421 0.0
C2874 C 0.77587 0.53239 0.72265 0.0
C2875 C 0.74471 0.56616 0.73742 0.0
N2876 N 0.77458 0.46744 0.73919 0.0
N2877 N 0.74418 0.53507 0.74229 0.0
H2878 H 0.9699 0.05847 0.512 0.0
H2879 H 0.04875 0.94259 0.46694 0.0
H2880 H 0.03299 0.08527 0.50434 0.0
H2881 H 0.98596 0.91519 0.47619 0.0
H2882 H 0.04273 0.9957 0.47776 0.0
H2883 H 0.97578 0.00535 0.50097 0.0
C2884 C 0.98516 0.05292 0.50897 0.0
C2885 C 1.00098 0.07627 0.50902 0.0
C2886 C 0.03017 0.9782 0.47696 0.0
C2887 C 1.00762 0.01589 0.49509 0.0
C2888 C 0.03351 0.94801 0.47023 0.0
C2889 C 0.01783 0.92451 0.4707 0.0
C2890 C 0.01105 0.98488 0.48443 0.0
C2891 C 0.99843 0.93266 0.47533 0.0
C2892 C 0.98843 0.02272 0.50214 0.0
C2893 C 0.02041 0.06794 0.50477 0.0
N2894 N 0.99565 0.96214 0.48252 0.0
N2895 N 0.02311 0.03847 0.49746 0.0
H2896 H 0.22844 0.32396 0.49986 0.0
H2897 H 0.28985 0.17648 0.47783 0.0
H2898 H 0.29198 0.32949 0.48637 0.0
H2899 H 0.22625 0.17089 0.49095 0.0
H2900 H 0.29083 0.23245 0.48081 0.0
H2901 H 0.22725 0.26805 0.4958 0.0
C2902 C 0.24214 0.3135 0.49582 0.0
C2903 C 0.26037 0.33162 0.49343 0.0
C2904 C 0.27666 0.21901 0.4831 0.0
C2905 C 0.25907 0.26729 0.489 0.0
C2906 C 0.27608 0.18695 0.48148 0.0
C2907 C 0.25792 0.16878 0.48419 0.0
C2908 C 0.25898 0.23319 0.48743 0.0
C2909 C 0.2406 0.18385 0.48884 0.0
C2910 C 0.24143 0.28148 0.49359 0.0
C2911 C 0.27758 0.31657 0.48825 0.0
N2912 N 0.24157 0.21516 0.49026 0.0
N2913 N 0.27651 0.2853 0.48631 0.0
H2914 H 0.25743 0.913 0.80724 0.0
H2915 H 0.24813 0.07035 0.70802 0.0
H2916 H 0.24301 0.91668 0.70984 0.0
H2917 H 0.26975 0.06673 0.80382 0.0
H2918 H 0.24097 0.01383 0.70939 0.0
H2919 H 0.25761 0.9698 0.80792 0.0
C2920 C 0.25426 0.92578 0.7861 0.0
C2921 C 0.25032 0.9104 0.7584 0.0
C2922 C 0.24711 0.02557 0.73016 0.0
C2923 C 0.25032 0.9747 0.75876 0.0
C2924 C 0.25107 0.05775 0.72932 0.0
C2925 C 0.25988 0.07303 0.75565 0.0
C2926 C 0.25187 0.00893 0.75757 0.0
C2927 C 0.26335 0.05571 0.78281 0.0
C2928 C 0.25429 0.95806 0.78639 0.0
C2929 C 0.24619 0.9278 0.73157 0.0
N2930 N 0.25949 0.02467 0.78303 0.0
N2931 N 0.24634 0.95894 0.73235 0.0
H2932 H 0.72539 0.66932 0.4947 0.0
H2933 H 0.79372 0.82959 0.48984 0.0
H2934 H 0.78641 0.6775 0.46927 0.0
H2935 H 0.73236 0.82163 0.51389 0.0
H2936 H 0.79141 0.77374 0.48243 0.0
H2937 H 0.72772 0.72516 0.50219 0.0
C2938 C 0.73928 0.68277 0.49079 0.0
C2939 C 0.75571 0.66859 0.48136 0.0
C2940 C 0.77845 0.78427 0.48929 0.0
C2941 C 0.75848 0.73254 0.48985 0.0
C2942 C 0.77975 0.81618 0.49347 0.0
C2943 C 0.76322 0.83044 0.50248 0.0
C2944 C 0.76047 0.76647 0.49408 0.0
C2945 C 0.74555 0.81176 0.50703 0.0
C2946 C 0.74059 0.71468 0.49501 0.0
C2947 C 0.77329 0.68733 0.47645 0.0
N2948 N 0.74465 0.78083 0.50276 0.0
N2949 N 0.7742 0.71824 0.48078 0.0
H2950 H 0.78827 0.92068 0.24587 0.0
H2951 H 0.73411 0.07958 0.23941 0.0
H2952 H 0.72671 0.9279 0.26516 0.0
H2953 H 0.79675 0.07358 0.22504 0.0
H2954 H 0.73052 0.02342 0.24581 0.0
H2955 H 0.79223 0.97687 0.23991 0.0
C2956 C 0.77588 0.93418 0.25012 0.0
C2957 C 0.75714 0.91966 0.25604 0.0
C2958 C 0.74496 0.03432 0.2407 0.0
C2959 C 0.76119 0.98369 0.24782 0.0
C2960 C 0.74686 0.06633 0.23632 0.0
C2961 C 0.76572 0.08119 0.23154 0.0
C2962 C 0.76205 0.01718 0.24023 0.0
C2963 C 0.78191 0.06293 0.2286 0.0
C2964 C 0.77797 0.96622 0.24601 0.0
C2965 C 0.74142 0.93826 0.26059 0.0
N2966 N 0.77979 0.03194 0.23335 0.0
N2967 N 0.74369 0.96925 0.25594 0.0
H2968 H 0.53494 0.58444 0.50612 0.0
H2969 H 0.48682 0.4124 0.47269 0.0
H2970 H 0.47222 0.55437 0.513 0.0
H2971 H 0.55022 0.44074 0.46954 0.0
H2972 H 0.48071 0.46546 0.48362 0.0
H2973 H 0.5412 0.53174 0.49377 0.0
C2974 C 0.52268 0.56651 0.50618 0.0
C2975 C 0.50303 0.57374 0.51054 0.0
C2976 C 0.49591 0.4602 0.48002 0.0
C2977 C 0.50982 0.51382 0.49513 0.0
C2978 C 0.4993 0.43001 0.47308 0.0
C2979 C 0.51908 0.42217 0.47035 0.0
C2980 C 0.5124 0.48258 0.48417 0.0
C2981 C 0.53476 0.44586 0.47167 0.0
C2982 C 0.52614 0.53656 0.49847 0.0
C2983 C 0.48759 0.54972 0.50969 0.0
N2984 N 0.53115 0.47493 0.47893 0.0
N2985 N 0.49125 0.52092 0.5017 0.0
H2986 H 0.53665 0.66874 0.74105 0.0
H2987 H 0.48246 0.82774 0.73938 0.0
H2988 H 0.47162 0.67412 0.73039 0.0
H2989 H 0.54747 0.82197 0.75108 0.0
H2990 H 0.47803 0.77127 0.73707 0.0
H2991 H 0.54096 0.72524 0.742 0.0
C2992 C 0.5233 0.68184 0.73797 0.0
C2993 C 0.50377 0.66681 0.73575 0.0
C2994 C 0.49327 0.78237 0.7405 0.0
C2995 C 0.50851 0.73121 0.73785 0.0
C2996 C 0.49576 0.81455 0.74234 0.0
C2997 C 0.51534 0.82948 0.74539 0.0
C2998 C 0.51047 0.76516 0.74176 0.0
C2999 C 0.53209 0.81131 0.74854 0.0
C3000 C 0.52573 0.71406 0.73904 0.0
C3001 C 0.48697 0.68487 0.73235 0.0
N3002 N 0.52928 0.78017 0.7464 0.0
N3003 N 0.48971 0.71608 0.73381 0.0
H3004 H 0.47327 0.17474 0.22013 0.0
H3005 H 0.54675 0.32515 0.26487 0.0
H3006 H 0.5374 0.17203 0.249 0.0
H3007 H 0.48247 0.32733 0.23705 0.0
H3008 H 0.54347 0.26897 0.2611 0.0
H3009 H 0.47671 0.23087 0.22397 0.0
C3010 C 0.48822 0.18615 0.22637 0.0
C3011 C 0.50511 0.16881 0.23408 0.0
C3012 C 0.53 0.2816 0.25624 0.0
C3013 C 0.50901 0.23297 0.23985 0.0
C3014 C 0.53181 0.31362 0.25883 0.0
C3015 C 0.51483 0.33082 0.25134 0.0
C3016 C 0.51108 0.26664 0.24579 0.0
C3017 C 0.49587 0.31487 0.24341 0.0
C3018 C 0.49011 0.21815 0.22905 0.0
C3019 C 0.52407 0.18461 0.24242 0.0
N3020 N 0.49455 0.28365 0.24044 0.0
N3021 N 0.52547 0.21583 0.24548 0.0
H3022 H 0.47157 0.05596 0.01625 0.0
H3023 H 0.55022 0.94146 0.96801 0.0
H3024 H 0.53444 0.0836 0.00776 0.0
H3025 H 0.48707 0.91452 0.97495 0.0
H3026 H 0.54431 0.99444 0.97958 0.0
H3027 H 0.47739 0.00336 0.00332 0.0
C3028 C 0.48679 0.05067 0.0127 0.0
C3029 C 0.50255 0.07415 0.01306 0.0
C3030 C 0.53165 0.97709 0.97806 0.0
C3031 C 0.5091 0.01438 -0.00308 0.0
C3032 C 0.53493 0.94699 0.97087 0.0
C3033 C 0.51912 0.92361 0.97061 0.0
C3034 C 0.51246 0.98374 0.98528 0.0
C3035 C 0.49965 0.93188 0.9747 0.0
C3036 C 0.49001 0.02078 0.00474 0.0
C3037 C 0.52191 0.06615 0.00802 0.0
N3038 N 0.49694 0.96121 0.98244 0.0
N3039 N 0.52457 0.03699 -0.00033 0.0
H3040 H 0.99778 0.08961 0.19911 0.0
H3041 H 0.99569 0.17191 0.03921 0.0
H3042 H 0.01763 0.04433 0.12335 0.0
H3043 H 0.01737 0.22365 0.12011 0.0
H3044 H 0.99756 0.124 0.06937 0.0
H3045 H 0.99904 0.13861 0.17028 0.0
C3046 C 1.00239 0.09002 0.17641 0.0
C3047 C 1.00759 0.06295 0.1635 0.0
C3048 C 1.00193 0.14586 0.08046 0.0
C3049 C 1.00867 0.11852 0.13047 0.0
C3050 C 1.00074 0.17316 0.06339 0.0
C3051 C 1.00633 0.20172 0.07729 0.0
C3052 C 1.00821 0.14715 0.1118 0.0
C3053 C 0.01297 0.20205 0.1086 0.0
C3054 C 1.00321 0.11793 0.16014 0.0
C3055 C 0.01358 0.06472 0.13412 0.0
N3056 N 0.01347 0.17511 0.12498 0.0
N3057 N 0.01367 0.09199 0.11837 0.0
H3058 H 0.22559 0.20656 0.13014 0.0
H3059 H 0.2802 0.06992 0.06347 0.0
H3060 H 0.29065 0.20135 0.13937 0.0
H3061 H 0.21858 0.05856 0.0863 0.0
H3062 H 0.28268 0.12297 0.08092 0.0
H3063 H 0.22145 0.15721 0.10351 0.0
C3064 C 0.23901 0.19538 0.12602 0.0
C3065 C 0.25851 0.20801 0.13707 0.0
C3066 C 0.26857 0.10893 0.08189 0.0
C3067 C 0.25384 0.15173 0.10677 0.0
C3068 C 0.26708 0.07862 0.07183 0.0
C3069 C 0.24916 0.05958 0.07356 0.0
C3070 C 0.25199 0.12054 0.0935 0.0
C3071 C 0.23273 0.07229 0.08473 0.0
C3072 C 0.23661 0.16713 0.11108 0.0
C3073 C 0.27534 0.19235 0.1314 0.0
N3074 N 0.23455 0.102 0.09434 0.0
N3075 N 0.27262 0.16502 0.11669 0.0
H3076 H 0.98333 0.79288 0.88789 0.0
H3077 H 0.04898 0.9357 0.82285 0.0
H3078 H 0.04847 0.80761 0.90858 0.0
H3079 H 0.98458 0.93696 0.82818 0.0
H3080 H 0.04867 0.88555 0.84876 0.0
H3081 H 0.98316 0.84203 0.85943 0.0
C3082 C 0.99761 0.80619 0.88606 0.0
C3083 C 0.01594 0.79617 0.90069 0.0
C3084 C 0.03461 0.89682 0.84436 0.0
C3085 C 0.0158 0.85233 0.86841 0.0
C3086 C 0.03476 0.92548 0.82955 0.0
C3087 C 0.01677 0.94062 0.82335 0.0
C3088 C 0.0163 0.88287 0.85274 0.0
C3089 C 0.99882 0.92621 0.83267 0.0
C3090 C 0.99747 0.83435 0.87009 0.0
C3091 C 0.03397 0.8145 0.89781 0.0
N3092 N 0.99901 0.89801 0.84674 0.0
N3093 N 0.03344 0.84166 0.88201 0.0
H3094 H 0.80384 0.93865 0.90272 0.0
H3095 H 0.72909 0.79321 0.85438 0.0
H3096 H 0.74285 0.92604 0.9279 0.0
H3097 H 0.79418 0.79119 0.8582 0.0
H3098 H 0.73398 0.84168 0.88198 0.0
H3099 H 0.80101 0.88481 0.88662 0.0
C3100 C 0.78994 0.92455 0.90517 0.0
C3101 C 0.77351 0.93708 0.91651 0.0
C3102 C 0.74722 0.83041 0.87723 0.0
C3103 C 0.77014 0.87553 0.89785 0.0
C3104 C 0.74443 0.80271 0.86148 0.0
C3105 C 0.76125 0.78816 0.8539 0.0
C3106 C 0.76695 0.84408 0.88493 0.0
C3107 C 0.78079 0.80156 0.86369 0.0
C3108 C 0.78837 0.89378 0.89605 0.0
C3109 C 0.75592 0.91756 0.91924 0.0
N3110 N 0.78311 0.82905 0.87826 0.0
N3111 N 0.75462 0.88795 0.90962 0.0
H3112 H 0.0187 0.54512 0.62219 0.0
H3113 H 0.01765 0.72745 0.62199 0.0
H3114 H 0.99891 0.59093 0.69769 0.0
H3115 H 0.99627 0.67425 0.54189 0.0
H3116 H 0.01952 0.67897 0.65205 0.0
H3117 H 0.01944 0.59447 0.59389 0.0
C3118 C 0.01471 0.56563 0.63287 0.0
C3119 C 1.0086 0.56405 0.66215 0.0
C3120 C 0.01446 0.67813 0.62787 0.0
C3121 C 1.00985 0.62026 0.63037 0.0
C3122 C 0.01343 0.70562 0.61079 0.0
C3123 C 1.00658 0.70474 0.57958 0.0
C3124 C 1.00921 0.6498 0.6133 0.0
C3125 C 1.00135 0.67591 0.56602 0.0
C3126 C 0.01507 0.59362 0.61674 0.0
C3127 C 1.00351 0.59123 0.675 0.0
N3128 N 1.00293 0.64955 0.58291 0.0
N3129 N 1.00437 0.61835 0.65908 0.0
H3130 H 0.29173 0.702 0.63698 0.0
H3131 H 0.21832 0.55526 0.58732 0.0
H3132 H 0.22646 0.70325 0.62999 0.0
H3133 H 0.28015 0.56804 0.56557 0.0
H3134 H 0.22075 0.60898 0.60365 0.0
H3135 H 0.28771 0.65279 0.61073 0.0
C3136 C 0.27654 0.69212 0.62948 0.0
C3137 C 0.2594 0.70666 0.63574 0.0
C3138 C 0.23368 0.60004 0.59499 0.0
C3139 C 0.25468 0.64998 0.60629 0.0
C3140 C 0.23235 0.56934 0.5858 0.0
C3141 C 0.24909 0.55697 0.57521 0.0
C3142 C 0.25195 0.61836 0.59395 0.0
C3143 C 0.26685 0.57643 0.57363 0.0
C3144 C 0.27425 0.66401 0.61451 0.0
C3145 C 0.24007 0.69285 0.62548 0.0
N3146 N 0.26786 0.60601 0.58318 0.0
N3147 N 0.23822 0.66498 0.61168 0.0
H3148 H 1.00001 0.27821 0.36473 0.0
H3149 H 1.00442 0.46081 0.3637 0.0
H3150 H 0.02402 0.33026 0.44448 0.0
H3151 H 0.02264 0.41296 0.28824 0.0
H3152 H 1.00289 0.41179 0.39247 0.0
H3153 H 0.99963 0.32676 0.33463 0.0
C3154 C 1.00504 0.29984 0.37587 0.0
C3155 C 0.01218 0.30036 0.407 0.0
C3156 C 1.00714 0.41213 0.36956 0.0
C3157 C 0.01134 0.35543 0.37319 0.0
C3158 C 1.00797 0.43995 0.35316 0.0
C3159 C 0.0138 0.44086 0.32369 0.0
C3160 C 0.01159 0.38497 0.35603 0.0
C3161 C 0.01828 0.41321 0.31105 0.0
C3162 C 1.00491 0.32735 0.35875 0.0
C3163 C 0.01859 0.32891 0.42045 0.0
N3164 N 0.01692 0.38626 0.32722 0.0
N3165 N 0.01785 0.35536 0.40352 0.0
H3166 H 0.74882 0.32291 0.30452 0.0
H3167 H 0.75955 0.41758 0.45238 0.0
H3168 H 0.77031 0.2742 0.38681 0.0
H3169 H 0.78932 0.45074 0.37493 0.0
H3170 H 0.75594 0.3653 0.43081 0.0
H3171 H 0.75512 0.37151 0.33176 0.0
C3172 C 0.75463 0.32242 0.32848 0.0
C3173 C 0.75902 0.29455 0.34354 0.0
C3174 C 0.76349 0.38413 0.41898 0.0
C3175 C 0.76595 0.35001 0.37474 0.0
C3176 C 0.76548 0.41385 0.4311 0.0
C3177 C 0.77471 0.43857 0.4154 0.0
C3178 C 0.77021 0.37957 0.39066 0.0
C3179 C 0.78216 0.43245 0.38791 0.0
C3180 C 0.75832 0.35014 0.34386 0.0
C3181 C 0.76679 0.2953 0.37448 0.0
N3182 N 0.77941 0.40372 0.37617 0.0
N3183 N 0.76985 0.32272 0.38931 0.0
H3184 H 0.53665 0.06398 0.65487 0.0
H3185 H 0.47172 0.20101 0.58509 0.0
H3186 H 0.47377 0.07132 0.66781 0.0
H3187 H 0.5373 0.20691 0.59362 0.0
H3188 H 0.47214 0.15265 0.61421 0.0
H3189 H 0.53709 0.11498 0.63001 0.0
C3190 C 0.52292 0.07619 0.65239 0.0
C3191 C 0.50514 0.06327 0.66347 0.0
C3192 C 0.48646 0.16464 0.60999 0.0
C3193 C 0.50561 0.12162 0.6352 0.0
C3194 C 0.48623 0.19229 0.5934 0.0
C3195 C 0.5045 0.20797 0.58683 0.0
C3196 C 0.50508 0.15223 0.61973 0.0
C3197 C 0.52286 0.19563 0.59827 0.0
C3198 C 0.52324 0.10539 0.63841 0.0
C3199 C 0.48785 0.0803 0.65975 0.0
N3200 N 0.52268 0.16825 0.61386 0.0
N3201 N 0.48851 0.10848 0.64586 0.0
H3202 H 0.75837 0.08143 0.53197 0.0
H3203 H 0.77177 0.17747 0.67879 0.0
H3204 H 0.73234 0.04737 0.61239 0.0
H3205 H 0.74539 0.22433 0.5982 0.0
H3206 H 0.76598 0.12872 0.65197 0.0
H3207 H 0.76119 0.13404 0.55282 0.0
C3208 C 0.75313 0.08503 0.55379 0.0
C3209 C 0.74516 0.06001 0.57052 0.0
C3210 C 0.76156 0.14972 0.64014 0.0
C3211 C 0.7487 0.11937 0.59437 0.0
C3212 C 0.76494 0.17756 0.65529 0.0
C3213 C 0.75906 0.205 0.64064 0.0
C3214 C 0.75268 0.14921 0.60984 0.0
C3215 C 0.75006 0.20361 0.61026 0.0
C3216 C 0.75463 0.11493 0.56549 0.0
C3217 C 0.73851 0.06592 0.59864 0.0
N3218 N 0.74728 0.17605 0.59561 0.0
N3219 N 0.74078 0.09486 0.6099 0.0
H3220 H 0.50212 0.9578 0.36578 0.0
H3221 H 0.50051 0.77501 0.36585 0.0
H3222 H 0.52227 0.91082 0.29128 0.0
H3223 H 0.52086 0.8273 0.44684 0.0
H3224 H 0.49981 0.82373 0.33602 0.0
H3225 H 0.5003 0.90857 0.39418 0.0
C3226 C 0.50605 0.93711 0.35538 0.0
C3227 C 0.51252 0.93834 0.32631 0.0
C3228 C 0.50433 0.82435 0.36036 0.0
C3229 C 0.50998 0.88218 0.35819 0.0
C3230 C 0.50464 0.79672 0.37731 0.0
C3231 C 0.51091 0.79728 0.4087 0.0
C3232 C 0.5097 0.85253 0.3752 0.0
C3233 C 0.51616 0.82594 0.42259 0.0
C3234 C 0.50504 0.90915 0.37156 0.0
C3235 C 0.51744 0.91086 0.31381 0.0
N3236 N 0.51529 0.85246 0.40579 0.0
N3237 N 0.51593 0.88379 0.32975 0.0
H3238 H 0.24042 0.9293 0.42383 0.0
H3239 H 0.29364 0.79222 0.35524 0.0
H3240 H 0.30169 0.94067 0.39959 0.0
H3241 H 0.22877 0.79949 0.3447 0.0
H3242 H 0.29821 0.84139 0.38233 0.0
H3243 H 0.23758 0.87649 0.40562 0.0
C3244 C 0.25339 0.92067 0.41499 0.0
C3245 C 0.27131 0.93969 0.41309 0.0
C3246 C 0.28299 0.83195 0.37438 0.0
C3247 C 0.26806 0.87891 0.39226 0.0
C3248 C 0.28035 0.8038 0.35919 0.0
C3249 C 0.26078 0.79179 0.34765 0.0
C3250 C 0.26593 0.84785 0.37854 0.0
C3251 C 0.24412 0.80798 0.35308 0.0
C3252 C 0.25169 0.89048 0.40449 0.0
C3253 C 0.28754 0.92699 0.40133 0.0
N3254 N 0.24707 0.83515 0.36811 0.0
N3255 N 0.28552 0.89738 0.39131 0.0
H3256 H 0.51821 0.72578 0.12068 0.0
H3257 H 0.51731 0.5435 0.12276 0.0
H3258 H 0.49608 0.67265 0.04086 0.0
H3259 H 0.49644 0.59001 0.19695 0.0
H3260 H 0.51837 0.59257 0.09402 0.0
H3261 H 0.51889 0.67742 0.15116 0.0
C3262 C 0.51363 0.70397 0.10962 0.0
C3263 C 0.50694 0.70307 0.07835 0.0
C3264 C 0.51366 0.59193 0.11666 0.0
C3265 C 0.50819 0.64824 0.11256 0.0
C3266 C 0.5131 0.56408 0.13305 0.0
C3267 C 0.50666 0.56276 0.16214 0.0
C3268 C 0.50831 0.61874 0.12983 0.0
C3269 C 0.50131 0.59007 0.17444 0.0
C3270 C 0.51394 0.67656 0.12694 0.0
C3271 C 0.50113 0.67429 0.065 0.0
N3272 N 0.50241 0.61709 0.15831 0.0
N3273 N 0.50207 0.64798 0.08211 0.0
H3274 H 0.73435 0.54606 0.11508 0.0
H3275 H 0.74355 0.7252 0.10036 0.0
H3276 H 0.75821 0.58241 0.03371 0.0
H3277 H 0.77443 0.67802 0.17728 0.0
H3278 H 0.73879 0.67582 0.07271 0.0
H3279 H 0.73784 0.59792 0.13576 0.0
C3280 C 0.74002 0.56501 0.1013 0.0
C3281 C 0.74609 0.55987 0.07263 0.0
C3282 C 0.74673 0.67667 0.09554 0.0
C3283 C 0.74975 0.61928 0.09617 0.0
C3284 C 0.74936 0.70459 0.11131 0.0
C3285 C 0.75948 0.70565 0.14105 0.0
C3286 C 0.75367 0.64983 0.11019 0.0
C3287 C 0.76672 0.67835 0.1543 0.0
C3288 C 0.74204 0.59451 0.11322 0.0
C3289 C 0.7535 0.58541 0.05599 0.0
N3290 N 0.76341 0.6515 0.13896 0.0
N3291 N 0.7551 0.61424 0.068 0.0
H3292 H 0.4847 0.43804 0.83858 0.0
H3293 H 0.5472 0.2955 0.90048 0.0
H3294 H 0.54598 0.42658 0.81971 0.0
H3295 H 0.48202 0.2945 0.89816 0.0
H3296 H 0.54722 0.34441 0.87226 0.0
H3297 H 0.48379 0.38699 0.8633 0.0
C3298 C 0.498 0.42494 0.83979 0.0
C3299 C 0.51544 0.43667 0.827 0.0
C3300 C 0.53287 0.33337 0.87762 0.0
C3301 C 0.51442 0.37822 0.85503 0.0
C3302 C 0.53284 0.30539 0.89367 0.0
C3303 C 0.51457 0.29093 0.90172 0.0
C3304 C 0.51455 0.34731 0.86993 0.0
C3305 C 0.49643 0.30478 0.89226 0.0
C3306 C 0.4974 0.3957 0.85367 0.0
C3307 C 0.53217 0.41852 0.82912 0.0
N3308 N 0.4969 0.33244 0.87716 0.0
N3309 N 0.53125 0.39029 0.8429 0.0
H3310 H 0.29428 0.29488 0.855 0.0
H3311 H 0.23945 0.43106 0.92142 0.0
H3312 H 0.22946 0.30279 0.83994 0.0
H3313 H 0.30168 0.44223 0.9013 0.0
H3314 H 0.23674 0.37879 0.90175 0.0
H3315 H 0.29817 0.34383 0.88224 0.0
C3316 C 0.28084 0.30664 0.85784 0.0
C3317 C 0.26151 0.29481 0.84512 0.0
C3318 C 0.25102 0.39263 0.90186 0.0
C3319 C 0.2659 0.35055 0.87621 0.0
C3320 C 0.25265 0.42243 0.91322 0.0
C3321 C 0.27082 0.44117 0.91291 0.0
C3322 C 0.26774 0.38122 0.89046 0.0
C3323 C 0.28734 0.42868 0.9018 0.0
C3324 C 0.28312 0.33463 0.87317 0.0
C3325 C 0.24465 0.31115 0.84925 0.0
N3326 N 0.28541 0.39943 0.891 0.0
N3327 N 0.24725 0.33819 0.86446 0.0
loop_
_geom_bond_atom_site_label_1
_geom_bond_atom_site_label_2
_geom_bond_distance
_geom_bond_site_symmetry_2
_ccdc_geom_bond_type
Co0 H3 2.400 . S
Co0 O4 2.009 . S
Co0 O12 2.115 . S
Co0 O13 2.315 . S
Co0 O24 2.053 . S
Co0 O27 2.083 1_554 S
Co0 O30 2.122 1_554 S
Co1 O4 2.126 . S
Co1 H5 2.388 1_655 S
Co1 O6 2.053 1_655 S
Co1 O9 2.047 1_554 S
Co1 O15 2.113 . S
Co1 O26 2.063 . S
Co2 H3 2.388 1_455 S
Co2 O4 2.053 1_455 S
Co2 O6 2.126 . S
Co2 O11 2.063 . S
Co2 O25 2.047 . S
Co2 O31 2.113 1_554 S
H3 Co0 2.400 . S
H3 Co2 2.388 1_655 S
H3 O4 0.760 . S
O4 Co0 2.009 . S
O4 Co1 2.126 . S
O4 Co2 2.053 1_655 S
O4 H3 0.760 . S
H5 Co1 2.388 1_455 S
H5 O6 0.760 . S
H5 Co7 2.400 . S
O6 Co1 2.053 1_455 S
O6 Co2 2.126 . S
O6 H5 0.760 . S
O6 Co7 2.009 . S
Co7 H5 2.400 . S
Co7 O6 2.009 . S
Co7 O8 2.053 . S
Co7 O10 2.094 . S
Co7 O14 2.122 . S
Co7 O28 2.115 . S
Co7 O29 2.315 . S
O8 Co7 2.053 . S
O8 C20 1.259 . S
O9 Co1 2.047 1_556 S
O9 C20 1.257 1_656 S
O10 Co7 2.094 . S
O10 C21 1.253 . S
O11 Co2 2.063 . S
O11 C21 1.268 . S
O12 Co0 2.115 . S
O12 C22 1.281 . S
O13 Co0 2.315 . S
O13 C22 1.252 . S
O14 Co7 2.122 . S
O14 C23 1.272 . S
O15 Co1 2.113 . S
O15 C23 1.245 1_655 S
C16 O24 1.236 1_455 S
C16 O25 1.275 . S
C17 O26 1.268 . S
C17 O27 1.246 1_554 S
C18 O28 1.281 . S
C18 O29 1.252 . S
C19 O30 1.318 . S
C19 O31 1.217 1_655 S
C20 O8 1.259 . S
C20 O9 1.257 1_454 S
C21 O10 1.253 . S
C21 O11 1.268 . S
C22 O12 1.281 . S
C22 O13 1.252 . S
C23 O14 1.272 . S
C23 O15 1.245 1_455 S
O24 Co0 2.053 . S
O24 C16 1.236 1_655 S
O25 Co2 2.047 . S
O25 C16 1.275 . S
O26 Co1 2.063 . S
O26 C17 1.268 . S
O27 Co0 2.083 1_556 S
O27 C17 1.246 1_556 S
O28 Co7 2.115 . S
O28 C18 1.281 . S
O29 Co7 2.315 . S
O29 C18 1.252 . S
O30 Co0 2.122 1_556 S
O30 C19 1.318 . S
O31 Co2 2.113 1_556 S
O31 C19 1.217 1_455 S
Co32 H35 2.400 . S
Co32 O36 2.009 . S
Co32 O44 2.115 1_554 S
Co32 O45 2.315 . S
Co32 O56 2.053 . S
Co32 O59 2.094 1_554 S
Co32 O62 2.122 1_554 S
Co33 O36 2.126 . S
Co33 H37 2.388 . S
Co33 O38 2.053 . S
Co33 O41 2.047 . S
Co33 O47 2.113 . S
Co33 O58 2.063 . S
Co34 H35 2.388 . S
Co34 O36 2.053 . S
Co34 O38 2.126 . S
Co34 O43 2.063 1_565 S
Co34 O57 2.047 . S
Co34 O63 2.113 . S
H35 Co32 2.400 . S
H35 Co34 2.388 . S
H35 O36 0.760 . S
O36 Co32 2.009 . S
O36 Co33 2.126 . S
O36 Co34 2.053 . S
O36 H35 0.760 . S
H37 Co33 2.388 . S
H37 O38 0.760 . S
H37 Co39 2.400 . S
O38 Co33 2.053 . S
O38 Co34 2.126 . S
O38 H37 0.760 . S
O38 Co39 2.009 . S
Co39 H37 2.400 . S
Co39 O38 2.009 . S
Co39 O40 2.053 . S
Co39 O42 2.094 . S
Co39 O46 2.122 . S
Co39 O60 2.115 . S
Co39 O61 2.315 . S
O40 Co39 2.053 . S
O40 C52 1.259 . S
O41 Co33 2.047 . S
O41 C52 1.257 . S
O42 Co39 2.094 . S
O42 C53 1.253 1_565 S
O43 Co34 2.063 1_545 S
O43 C53 1.268 . S
O44 Co32 2.115 1_556 S
O44 C54 1.281 1_556 S
O45 Co32 2.315 . S
O45 C54 1.252 . S
O46 Co39 2.122 . S
O46 C55 1.272 . S
O47 Co33 2.113 . S
O47 C55 1.245 . S
C48 O56 1.259 . S
C48 O57 1.257 . S
C49 O58 1.268 . S
C49 O59 1.253 1_554 S
C50 O60 1.281 . S
C50 O61 1.252 . S
C51 O62 1.272 . S
C51 O63 1.245 1_556 S
C52 O40 1.259 . S
C52 O41 1.257 . S
C53 O42 1.253 1_545 S
C53 O43 1.268 . S
C54 O44 1.281 1_554 S
C54 O45 1.252 . S
C55 O46 1.272 . S
C55 O47 1.245 . S
O56 Co32 2.053 . S
O56 C48 1.259 . S
O57 Co34 2.047 . S
O57 C48 1.257 . S
O58 Co33 2.063 . S
O58 C49 1.268 . S
O59 Co32 2.094 1_556 S
O59 C49 1.253 1_556 S
O60 Co39 2.115 . S
O60 C50 1.281 . S
O61 Co39 2.315 . S
O61 C50 1.252 . S
O62 Co32 2.122 1_556 S
O62 C51 1.272 . S
O63 Co34 2.113 . S
O63 C51 1.245 1_554 S
Co64 H67 2.400 . S
Co64 O68 2.009 . S
Co64 O76 2.115 1_565 S
Co64 O77 2.315 . S
Co64 O88 2.053 1_565 S
Co64 O91 2.094 . S
Co64 O94 2.122 . S
Co65 O68 2.126 . S
Co65 H69 2.388 1_655 S
Co65 O70 2.053 1_655 S
Co65 O73 2.047 . S
Co65 O79 2.113 . S
Co65 O90 2.063 . S
Co66 H67 2.388 1_455 S
Co66 O68 2.053 1_455 S
Co66 O70 2.126 . S
Co66 O75 2.063 . S
Co66 O89 2.047 1_565 S
Co66 O95 2.113 . S
H67 Co64 2.400 . S
H67 Co66 2.388 1_655 S
H67 O68 0.760 . S
O68 Co64 2.009 . S
O68 Co65 2.126 . S
O68 Co66 2.053 1_655 S
O68 H67 0.760 . S
H69 Co65 2.388 1_455 S
H69 O70 0.760 . S
H69 Co71 2.400 . S
O70 Co65 2.053 1_455 S
O70 Co66 2.126 . S
O70 H69 0.760 . S
O70 Co71 2.009 . S
Co71 H69 2.400 . S
Co71 O70 2.009 . S
Co71 O72 2.053 . S
Co71 O74 2.094 . S
Co71 O78 2.122 . S
Co71 O92 2.115 . S
Co71 O93 2.315 . S
O72 Co71 2.053 . S
O72 C84 1.259 . S
O73 Co65 2.047 . S
O73 C84 1.257 1_655 S
O74 Co71 2.094 . S
O74 C85 1.253 . S
O75 Co66 2.063 . S
O75 C85 1.268 . S
O76 Co64 2.115 1_545 S
O76 C86 1.281 . S
O77 Co64 2.315 . S
O77 C86 1.252 1_565 S
O78 Co71 2.122 . S
O78 C87 1.272 1_455 S
O79 Co65 2.113 . S
O79 C87 1.245 . S
C80 O88 1.259 1_455 S
C80 O89 1.257 . S
C81 O90 1.268 . S
C81 O91 1.253 . S
C82 O92 1.281 . S
C82 O93 1.252 . S
C83 O94 1.272 1_455 S
C83 O95 1.245 . S
C84 O72 1.259 . S
C84 O73 1.257 1_455 S
C85 O74 1.253 . S
C85 O75 1.268 . S
C86 O76 1.281 . S
C86 O77 1.252 1_545 S
C87 O78 1.272 1_655 S
C87 O79 1.245 . S
O88 Co64 2.053 1_545 S
O88 C80 1.259 1_655 S
O89 Co66 2.047 1_545 S
O89 C80 1.257 . S
O90 Co65 2.063 . S
O90 C81 1.268 . S
O91 Co64 2.094 . S
O91 C81 1.253 . S
O92 Co71 2.115 . S
O92 C82 1.281 . S
O93 Co71 2.315 . S
O93 C82 1.252 . S
O94 Co64 2.122 . S
O94 C83 1.272 1_655 S
O95 Co66 2.113 . S
O95 C83 1.245 . S
Co96 H99 2.400 . S
Co96 O100 2.009 . S
Co96 O108 2.115 . S
Co96 O109 2.315 . S
Co96 O120 2.053 . S
Co96 O123 2.094 . S
Co96 O126 2.122 . S
Co97 O100 2.126 . S
Co97 H101 2.388 . S
Co97 O102 2.053 . S
Co97 O105 2.047 . S
Co97 O111 2.113 . S
Co97 O122 2.063 . S
Co98 H99 2.388 . S
Co98 O100 2.053 . S
Co98 O102 2.126 . S
Co98 O107 2.063 . S
Co98 O121 2.047 . S
Co98 O127 2.113 . S
H99 Co96 2.400 . S
H99 Co98 2.388 . S
H99 O100 0.760 . S
O100 Co96 2.009 . S
O100 Co97 2.126 . S
O100 Co98 2.053 . S
O100 H99 0.760 . S
H101 Co97 2.388 . S
H101 O102 0.760 . S
H101 Co103 2.400 . S
O102 Co97 2.053 . S
O102 Co98 2.126 . S
O102 H101 0.760 . S
O102 Co103 2.009 . S
Co103 H101 2.400 . S
Co103 O102 2.009 . S
Co103 O104 2.053 . S
Co103 O106 2.094 . S
Co103 O110 2.122 . S
Co103 O124 2.115 . S
Co103 O125 2.315 . S
O104 Co103 2.053 . S
O104 C116 1.259 . S
O105 Co97 2.047 . S
O105 C116 1.257 . S
O106 Co103 2.094 . S
O106 C117 1.253 . S
O107 Co98 2.063 . S
O107 C117 1.268 . S
O108 Co96 2.115 . S
O108 C118 1.281 . S
O109 Co96 2.315 . S
O109 C118 1.252 . S
O110 Co103 2.122 . S
O110 C119 1.272 . S
O111 Co97 2.113 . S
O111 C119 1.245 . S
C112 O120 1.259 . S
C112 O121 1.257 . S
C113 O122 1.268 . S
C113 O123 1.253 . S
C114 O124 1.281 . S
C114 O125 1.252 . S
C115 O126 1.272 . S
C115 O127 1.245 . S
C116 O104 1.259 . S
C116 O105 1.257 . S
C117 O106 1.253 . S
C117 O107 1.268 . S
C118 O108 1.281 . S
C118 O109 1.252 . S
C119 O110 1.272 . S
C119 O111 1.245 . S
O120 Co96 2.053 . S
O120 C112 1.259 . S
O121 Co98 2.047 . S
O121 C112 1.257 . S
O122 Co97 2.063 . S
O122 C113 1.268 . S
O123 Co96 2.094 . S
O123 C113 1.253 . S
O124 Co103 2.115 . S
O124 C114 1.281 . S
O125 Co103 2.315 . S
O125 C114 1.252 . S
O126 Co96 2.122 . S
O126 C115 1.272 . S
O127 Co98 2.113 . S
O127 C115 1.245 . S
Co128 H131 2.400 . S
Co128 O132 2.009 . S
Co128 O140 2.115 . S
Co128 O141 2.315 . S
Co128 O152 2.053 . S
Co128 O155 2.094 . S
Co128 O158 2.122 . S
Co129 O132 2.126 . S
Co129 H133 2.388 1_655 S
Co129 O134 2.053 1_655 S
Co129 O137 2.047 . S
Co129 O143 2.113 1_556 S
Co129 O154 2.063 . S
Co130 H131 2.388 1_455 S
Co130 O132 2.053 1_455 S
Co130 O134 2.126 . S
Co130 O139 2.063 . S
Co130 O153 2.047 1_556 S
Co130 O159 2.113 . S
H131 Co128 2.400 . S
H131 Co130 2.388 1_655 S
H131 O132 0.760 . S
O132 Co128 2.009 . S
O132 Co129 2.126 . S
O132 Co130 2.053 1_655 S
O132 H131 0.760 . S
H133 Co129 2.388 1_455 S
H133 O134 0.760 . S
H133 Co135 2.400 . S
O134 Co129 2.053 1_455 S
O134 Co130 2.126 . S
O134 H133 0.760 . S
O134 Co135 2.009 . S
Co135 H133 2.400 . S
Co135 O134 2.009 . S
Co135 O136 2.053 . S
Co135 O138 2.083 1_556 S
Co135 O142 2.122 1_556 S
Co135 O156 2.115 . S
Co135 O157 2.315 . S
O136 Co135 2.053 . S
O136 C148 1.236 1_455 S
O137 Co129 2.047 . S
O137 C148 1.275 . S
O138 Co135 2.083 1_554 S
O138 C149 1.246 1_554 S
O139 Co130 2.063 . S
O139 C149 1.268 . S
O140 Co128 2.115 . S
O140 C150 1.281 . S
O141 Co128 2.315 . S
O141 C150 1.252 . S
O142 Co135 2.122 1_554 S
O142 C151 1.318 . S
O143 Co129 2.113 1_554 S
O143 C151 1.217 1_655 S
C144 O152 1.259 . S
C144 O153 1.257 1_656 S
C145 O154 1.268 . S
C145 O155 1.253 . S
C146 O156 1.281 . S
C146 O157 1.252 . S
C147 O158 1.272 . S
C147 O159 1.245 1_655 S
C148 O136 1.236 1_655 S
C148 O137 1.275 . S
C149 O138 1.246 1_556 S
C149 O139 1.268 . S
C150 O140 1.281 . S
C150 O141 1.252 . S
C151 O142 1.318 . S
C151 O143 1.217 1_455 S
O152 Co128 2.053 . S
O152 C144 1.259 . S
O153 Co130 2.047 1_554 S
O153 C144 1.257 1_454 S
O154 Co129 2.063 . S
O154 C145 1.268 . S
O155 Co128 2.094 . S
O155 C145 1.253 . S
O156 Co135 2.115 . S
O156 C146 1.281 . S
O157 Co135 2.315 . S
O157 C146 1.252 . S
O158 Co128 2.122 . S
O158 C147 1.272 . S
O159 Co130 2.113 . S
O159 C147 1.245 1_455 S
Co160 H163 2.400 . S
Co160 O164 2.009 . S
Co160 O172 2.115 . S
Co160 O173 2.315 . S
Co160 O184 2.053 . S
Co160 O187 2.094 . S
Co160 O190 2.122 . S
Co161 O164 2.126 . S
Co161 H165 2.388 . S
Co161 O166 2.053 . S
Co161 O169 2.047 . S
Co161 O175 2.113 . S
Co161 O186 2.063 1_545 S
Co162 H163 2.388 . S
Co162 O164 2.053 . S
Co162 O166 2.126 . S
Co162 O171 2.063 . S
Co162 O185 2.047 . S
Co162 O191 2.113 . S
H163 Co160 2.400 . S
H163 Co162 2.388 . S
H163 O164 0.760 . S
O164 Co160 2.009 . S
O164 Co161 2.126 . S
O164 Co162 2.053 . S
O164 H163 0.760 . S
H165 Co161 2.388 . S
H165 O166 0.760 . S
H165 Co167 2.400 . S
O166 Co161 2.053 . S
O166 Co162 2.126 . S
O166 H165 0.760 . S
O166 Co167 2.009 . S
Co167 H165 2.400 . S
Co167 O166 2.009 . S
Co167 O168 2.053 . S
Co167 O170 2.094 1_556 S
Co167 O174 2.122 1_556 S
Co167 O188 2.115 1_556 S
Co167 O189 2.315 . S
O168 Co167 2.053 . S
O168 C180 1.259 . S
O169 Co161 2.047 . S
O169 C180 1.257 . S
O170 Co167 2.094 1_554 S
O170 C181 1.253 1_554 S
O171 Co162 2.063 . S
O171 C181 1.268 . S
O172 Co160 2.115 . S
O172 C182 1.281 . S
O173 Co160 2.315 . S
O173 C182 1.252 . S
O174 Co167 2.122 1_554 S
O174 C183 1.272 . S
O175 Co161 2.113 . S
O175 C183 1.245 1_556 S
C176 O184 1.259 . S
C176 O185 1.257 . S
C177 O186 1.268 . S
C177 O187 1.253 1_565 S
C178 O188 1.281 1_556 S
C178 O189 1.252 . S
C179 O190 1.272 . S
C179 O191 1.245 . S
C180 O168 1.259 . S
C180 O169 1.257 . S
C181 O170 1.253 1_556 S
C181 O171 1.268 . S
C182 O172 1.281 . S
C182 O173 1.252 . S
C183 O174 1.272 . S
C183 O175 1.245 1_554 S
O184 Co160 2.053 . S
O184 C176 1.259 . S
O185 Co162 2.047 . S
O185 C176 1.257 . S
O186 Co161 2.063 1_565 S
O186 C177 1.268 . S
O187 Co160 2.094 . S
O187 C177 1.253 1_545 S
O188 Co167 2.115 1_554 S
O188 C178 1.281 1_554 S
O189 Co167 2.315 . S
O189 C178 1.252 . S
O190 Co160 2.122 . S
O190 C179 1.272 . S
O191 Co162 2.113 . S
O191 C179 1.245 . S
Co192 H195 2.400 . S
Co192 O196 2.009 . S
Co192 O204 2.115 . S
Co192 O205 2.315 . S
Co192 O216 2.053 . S
Co192 O219 2.094 . S
Co192 O222 2.122 . S
Co193 O196 2.126 . S
Co193 H197 2.388 1_655 S
Co193 O198 2.053 1_655 S
Co193 O201 2.047 1_545 S
Co193 O207 2.113 . S
Co193 O218 2.063 . S
Co194 H195 2.388 1_455 S
Co194 O196 2.053 1_455 S
Co194 O198 2.126 . S
Co194 O203 2.063 . S
Co194 O217 2.047 . S
Co194 O223 2.113 . S
H195 Co192 2.400 . S
H195 Co194 2.388 1_655 S
H195 O196 0.760 . S
O196 Co192 2.009 . S
O196 Co193 2.126 . S
O196 Co194 2.053 1_655 S
O196 H195 0.760 . S
H197 Co193 2.388 1_455 S
H197 O198 0.760 . S
H197 Co199 2.400 . S
O198 Co193 2.053 1_455 S
O198 Co194 2.126 . S
O198 H197 0.760 . S
O198 Co199 2.009 . S
Co199 H197 2.400 . S
Co199 O198 2.009 . S
Co199 O200 2.053 1_545 S
Co199 O202 2.094 . S
Co199 O206 2.122 . S
Co199 O220 2.115 1_545 S
Co199 O221 2.315 . S
O200 Co199 2.053 1_565 S
O200 C212 1.259 1_455 S
O201 Co193 2.047 1_565 S
O201 C212 1.257 . S
O202 Co199 2.094 . S
O202 C213 1.253 . S
O203 Co194 2.063 . S
O203 C213 1.268 . S
O204 Co192 2.115 . S
O204 C214 1.281 . S
O205 Co192 2.315 . S
O205 C214 1.252 . S
O206 Co199 2.122 . S
O206 C215 1.272 1_455 S
O207 Co193 2.113 . S
O207 C215 1.245 . S
C208 O216 1.259 . S
C208 O217 1.257 1_655 S
C209 O218 1.268 . S
C209 O219 1.253 . S
C210 O220 1.281 . S
C210 O221 1.252 1_565 S
C211 O222 1.272 1_455 S
C211 O223 1.245 . S
C212 O200 1.259 1_655 S
C212 O201 1.257 . S
C213 O202 1.253 . S
C213 O203 1.268 . S
C214 O204 1.281 . S
C214 O205 1.252 . S
C215 O206 1.272 1_655 S
C215 O207 1.245 . S
O216 Co192 2.053 . S
O216 C208 1.259 . S
O217 Co194 2.047 . S
O217 C208 1.257 1_455 S
O218 Co193 2.063 . S
O218 C209 1.268 . S
O219 Co192 2.094 . S
O219 C209 1.253 . S
O220 Co199 2.115 1_565 S
O220 C210 1.281 . S
O221 Co199 2.315 . S
O221 C210 1.252 1_545 S
O222 Co192 2.122 . S
O222 C211 1.272 1_655 S
O223 Co194 2.113 . S
O223 C211 1.245 . S
Co224 H227 2.400 . S
Co224 O228 2.009 . S
Co224 O236 2.115 . S
Co224 O237 2.315 . S
Co224 O248 2.053 . S
Co224 O251 2.094 . S
Co224 O254 2.122 . S
Co225 O228 2.126 . S
Co225 H229 2.388 . S
Co225 O230 2.053 . S
Co225 O233 2.047 . S
Co225 O239 2.113 . S
Co225 O250 2.063 . S
Co226 H227 2.388 . S
Co226 O228 2.053 . S
Co226 O230 2.126 . S
Co226 O235 2.063 . S
Co226 O249 2.047 . S
Co226 O255 2.113 . S
H227 Co224 2.400 . S
H227 Co226 2.388 . S
H227 O228 0.760 . S
O228 Co224 2.009 . S
O228 Co225 2.126 . S
O228 Co226 2.053 . S
O228 H227 0.760 . S
H229 Co225 2.388 . S
H229 O230 0.760 . S
H229 Co231 2.400 . S
O230 Co225 2.053 . S
O230 Co226 2.126 . S
O230 H229 0.760 . S
O230 Co231 2.009 . S
Co231 H229 2.400 . S
Co231 O230 2.009 . S
Co231 O232 2.053 . S
Co231 O234 2.094 . S
Co231 O238 2.122 . S
Co231 O252 2.115 . S
Co231 O253 2.315 . S
O232 Co231 2.053 . S
O232 C244 1.259 . S
O233 Co225 2.047 . S
O233 C244 1.257 . S
O234 Co231 2.094 . S
O234 C245 1.253 . S
O235 Co226 2.063 . S
O235 C245 1.268 . S
O236 Co224 2.115 . S
O236 C246 1.281 . S
O237 Co224 2.315 . S
O237 C246 1.252 . S
O238 Co231 2.122 . S
O238 C247 1.272 . S
O239 Co225 2.113 . S
O239 C247 1.245 . S
C240 O248 1.259 . S
C240 O249 1.257 . S
C241 O250 1.268 . S
C241 O251 1.253 . S
C242 O252 1.281 . S
C242 O253 1.252 . S
C243 O254 1.272 . S
C243 O255 1.245 . S
C244 O232 1.259 . S
C244 O233 1.257 . S
C245 O234 1.253 . S
C245 O235 1.268 . S
C246 O236 1.281 . S
C246 O237 1.252 . S
C247 O238 1.272 . S
C247 O239 1.245 . S
O248 Co224 2.053 . S
O248 C240 1.259 . S
O249 Co226 2.047 . S
O249 C240 1.257 . S
O250 Co225 2.063 . S
O250 C241 1.268 . S
O251 Co224 2.094 . S
O251 C241 1.253 . S
O252 Co231 2.115 . S
O252 C242 1.281 . S
O253 Co231 2.315 . S
O253 C242 1.252 . S
O254 Co224 2.122 . S
O254 C243 1.272 . S
O255 Co226 2.113 . S
O255 C243 1.245 . S
Co256 H259 2.400 . S
Co256 O260 2.009 . S
Co256 O268 2.115 . S
Co256 O269 2.315 . S
Co256 O280 2.053 . S
Co256 O283 2.094 . S
Co256 O286 2.122 . S
Co257 O260 2.126 . S
Co257 H261 2.388 1_655 S
Co257 O262 2.053 1_655 S
Co257 O265 2.047 . S
Co257 O271 2.113 . S
Co257 O282 2.063 . S
Co258 H259 2.388 1_455 S
Co258 O260 2.053 1_455 S
Co258 O262 2.126 . S
Co258 O267 2.063 . S
Co258 O281 2.047 . S
Co258 O287 2.113 . S
H259 Co256 2.400 . S
H259 Co258 2.388 1_655 S
H259 O260 0.760 . S
O260 Co256 2.009 . S
O260 Co257 2.126 . S
O260 Co258 2.053 1_655 S
O260 H259 0.760 . S
H261 Co257 2.388 1_455 S
H261 O262 0.760 . S
H261 Co263 2.400 . S
O262 Co257 2.053 1_455 S
O262 Co258 2.126 . S
O262 H261 0.760 . S
O262 Co263 2.009 . S
Co263 H261 2.400 . S
Co263 O262 2.009 . S
Co263 O264 2.053 . S
Co263 O266 2.094 . S
Co263 O270 2.122 . S
Co263 O284 2.115 . S
Co263 O285 2.315 . S
O264 Co263 2.053 . S
O264 C276 1.259 . S
O265 Co257 2.047 . S
O265 C276 1.257 1_655 S
O266 Co263 2.094 . S
O266 C277 1.253 . S
O267 Co258 2.063 . S
O267 C277 1.268 . S
O268 Co256 2.115 . S
O268 C278 1.281 . S
O269 Co256 2.315 . S
O269 C278 1.252 . S
O270 Co263 2.122 . S
O270 C279 1.272 . S
O271 Co257 2.113 . S
O271 C279 1.245 1_655 S
C272 O280 1.236 1_455 S
C272 O281 1.275 . S
C273 O282 1.268 . S
C273 O283 1.253 . S
C274 O284 1.281 . S
C274 O285 1.252 . S
C275 O286 1.318 . S
C275 O287 1.217 1_655 S
C276 O264 1.259 . S
C276 O265 1.257 1_455 S
C277 O266 1.253 . S
C277 O267 1.268 . S
C278 O268 1.281 . S
C278 O269 1.252 . S
C279 O270 1.272 . S
C279 O271 1.245 1_455 S
O280 Co256 2.053 . S
O280 C272 1.236 1_655 S
O281 Co258 2.047 . S
O281 C272 1.275 . S
O282 Co257 2.063 . S
O282 C273 1.268 . S
O283 Co256 2.094 . S
O283 C273 1.253 . S
O284 Co263 2.115 . S
O284 C274 1.281 . S
O285 Co263 2.315 . S
O285 C274 1.252 . S
O286 Co256 2.122 . S
O286 C275 1.318 . S
O287 Co258 2.113 . S
O287 C275 1.217 1_455 S
Co288 H291 2.400 . S
Co288 O292 2.009 . S
Co288 O300 2.115 . S
Co288 O301 2.315 . S
Co288 O312 2.053 . S
Co288 O315 2.094 . S
Co288 O318 2.122 . S
Co289 O292 2.126 . S
Co289 H293 2.388 . S
Co289 O294 2.053 . S
Co289 O297 2.047 . S
Co289 O303 2.113 . S
Co289 O314 2.063 . S
Co290 H291 2.388 . S
Co290 O292 2.053 . S
Co290 O294 2.126 . S
Co290 O299 2.063 . S
Co290 O313 2.047 . S
Co290 O319 2.113 . S
H291 Co288 2.400 . S
H291 Co290 2.388 . S
H291 O292 0.760 . S
O292 Co288 2.009 . S
O292 Co289 2.126 . S
O292 Co290 2.053 . S
O292 H291 0.760 . S
H293 Co289 2.388 . S
H293 O294 0.760 . S
H293 Co295 2.400 . S
O294 Co289 2.053 . S
O294 Co290 2.126 . S
O294 H293 0.760 . S
O294 Co295 2.009 . S
Co295 H293 2.400 . S
Co295 O294 2.009 . S
Co295 O296 2.053 . S
Co295 O298 2.094 . S
Co295 O302 2.122 . S
Co295 O316 2.115 . S
Co295 O317 2.315 . S
O296 Co295 2.053 . S
O296 C308 1.259 . S
O297 Co289 2.047 . S
O297 C308 1.257 . S
O298 Co295 2.094 . S
O298 C309 1.253 . S
O299 Co290 2.063 . S
O299 C309 1.268 . S
O300 Co288 2.115 . S
O300 C310 1.281 . S
O301 Co288 2.315 . S
O301 C310 1.252 . S
O302 Co295 2.122 . S
O302 C311 1.272 . S
O303 Co289 2.113 . S
O303 C311 1.245 . S
C304 O312 1.259 . S
C304 O313 1.257 . S
C305 O314 1.268 . S
C305 O315 1.253 . S
C306 O316 1.281 . S
C306 O317 1.252 . S
C307 O318 1.272 . S
C307 O319 1.245 . S
C308 O296 1.259 . S
C308 O297 1.257 . S
C309 O298 1.253 . S
C309 O299 1.268 . S
C310 O300 1.281 . S
C310 O301 1.252 . S
C311 O302 1.272 . S
C311 O303 1.245 . S
O312 Co288 2.053 . S
O312 C304 1.259 . S
O313 Co290 2.047 . S
O313 C304 1.257 . S
O314 Co289 2.063 . S
O314 C305 1.268 . S
O315 Co288 2.094 . S
O315 C305 1.253 . S
O316 Co295 2.115 . S
O316 C306 1.281 . S
O317 Co295 2.315 . S
O317 C306 1.252 . S
O318 Co288 2.122 . S
O318 C307 1.272 . S
O319 Co290 2.113 . S
O319 C307 1.245 . S
Co320 H323 2.400 . S
Co320 O324 2.009 . S
Co320 O332 2.115 . S
Co320 O333 2.315 . S
Co320 O344 2.053 . S
Co320 O347 2.094 . S
Co320 O350 2.122 . S
Co321 O324 2.126 . S
Co321 H325 2.388 1_655 S
Co321 O326 2.053 1_655 S
Co321 O329 2.047 . S
Co321 O335 2.113 . S
Co321 O346 2.063 . S
Co322 H323 2.388 1_455 S
Co322 O324 2.053 1_455 S
Co322 O326 2.126 . S
Co322 O331 2.063 . S
Co322 O345 2.047 . S
Co322 O351 2.113 . S
H323 Co320 2.400 . S
H323 Co322 2.388 1_655 S
H323 O324 0.760 . S
O324 Co320 2.009 . S
O324 Co321 2.126 . S
O324 Co322 2.053 1_655 S
O324 H323 0.760 . S
H325 Co321 2.388 1_455 S
H325 O326 0.760 . S
H325 Co327 2.400 . S
O326 Co321 2.053 1_455 S
O326 Co322 2.126 . S
O326 H325 0.760 . S
O326 Co327 2.009 . S
Co327 H325 2.400 . S
Co327 O326 2.009 . S
Co327 O328 2.053 . S
Co327 O330 2.094 . S
Co327 O334 2.122 . S
Co327 O348 2.115 . S
Co327 O349 2.315 . S
O328 Co327 2.053 . S
O328 C340 1.259 . S
O329 Co321 2.047 . S
O329 C340 1.257 1_655 S
O330 Co327 2.094 . S
O330 C341 1.253 . S
O331 Co322 2.063 . S
O331 C341 1.268 . S
O332 Co320 2.115 . S
O332 C342 1.281 . S
O333 Co320 2.315 . S
O333 C342 1.252 . S
O334 Co327 2.122 . S
O334 C343 1.272 1_455 S
O335 Co321 2.113 . S
O335 C343 1.245 . S
C336 O344 1.259 1_455 S
C336 O345 1.257 . S
C337 O346 1.268 . S
C337 O347 1.253 . S
C338 O348 1.281 . S
C338 O349 1.252 . S
C339 O350 1.272 1_455 S
C339 O351 1.245 . S
C340 O328 1.259 . S
C340 O329 1.257 1_455 S
C341 O330 1.253 . S
C341 O331 1.268 . S
C342 O332 1.281 . S
C342 O333 1.252 . S
C343 O334 1.272 1_655 S
C343 O335 1.245 . S
O344 Co320 2.053 . S
O344 C336 1.259 1_655 S
O345 Co322 2.047 . S
O345 C336 1.257 . S
O346 Co321 2.063 . S
O346 C337 1.268 . S
O347 Co320 2.094 . S
O347 C337 1.253 . S
O348 Co327 2.115 . S
O348 C338 1.281 . S
O349 Co327 2.315 . S
O349 C338 1.252 . S
O350 Co320 2.122 . S
O350 C339 1.272 1_655 S
O351 Co322 2.113 . S
O351 C339 1.245 . S
Co352 H355 2.400 . S
Co352 O356 2.009 . S
Co352 O364 2.115 . S
Co352 O365 2.315 . S
Co352 O376 2.053 . S
Co352 O379 2.094 . S
Co352 O382 2.122 . S
Co353 O356 2.126 . S
Co353 H357 2.388 . S
Co353 O358 2.053 . S
Co353 O361 2.047 . S
Co353 O367 2.113 . S
Co353 O378 2.063 . S
Co354 H355 2.388 . S
Co354 O356 2.053 . S
Co354 O358 2.126 . S
Co354 O363 2.063 . S
Co354 O377 2.047 . S
Co354 O383 2.113 . S
H355 Co352 2.400 . S
H355 Co354 2.388 . S
H355 O356 0.760 . S
O356 Co352 2.009 . S
O356 Co353 2.126 . S
O356 Co354 2.053 . S
O356 H355 0.760 . S
H357 Co353 2.388 . S
H357 O358 0.760 . S
H357 Co359 2.400 . S
O358 Co353 2.053 . S
O358 Co354 2.126 . S
O358 H357 0.760 . S
O358 Co359 2.009 . S
Co359 H357 2.400 . S
Co359 O358 2.009 . S
Co359 O360 2.053 . S
Co359 O362 2.094 . S
Co359 O366 2.122 . S
Co359 O380 2.115 . S
Co359 O381 2.315 . S
O360 Co359 2.053 . S
O360 C372 1.259 . S
O361 Co353 2.047 . S
O361 C372 1.257 . S
O362 Co359 2.094 . S
O362 C373 1.253 . S
O363 Co354 2.063 . S
O363 C373 1.268 . S
O364 Co352 2.115 . S
O364 C374 1.281 . S
O365 Co352 2.315 . S
O365 C374 1.252 . S
O366 Co359 2.122 . S
O366 C375 1.272 . S
O367 Co353 2.113 . S
O367 C375 1.245 . S
C368 O376 1.259 . S
C368 O377 1.257 . S
C369 O378 1.268 . S
C369 O379 1.253 . S
C370 O380 1.281 . S
C370 O381 1.252 . S
C371 O382 1.272 . S
C371 O383 1.245 . S
C372 O360 1.259 . S
C372 O361 1.257 . S
C373 O362 1.253 . S
C373 O363 1.268 . S
C374 O364 1.281 . S
C374 O365 1.252 . S
C375 O366 1.272 . S
C375 O367 1.245 . S
O376 Co352 2.053 . S
O376 C368 1.259 . S
O377 Co354 2.047 . S
O377 C368 1.257 . S
O378 Co353 2.063 . S
O378 C369 1.268 . S
O379 Co352 2.094 . S
O379 C369 1.253 . S
O380 Co359 2.115 . S
O380 C370 1.281 . S
O381 Co359 2.315 . S
O381 C370 1.252 . S
O382 Co352 2.122 . S
O382 C371 1.272 . S
O383 Co354 2.113 . S
O383 C371 1.245 . S
Co384 H387 2.400 . S
Co384 O388 2.009 . S
Co384 O396 2.115 . S
Co384 O397 2.315 . S
Co384 O408 2.053 . S
Co384 O411 2.094 . S
Co384 O414 2.122 . S
Co385 O388 2.126 . S
Co385 H389 2.388 1_655 S
Co385 O390 2.053 1_655 S
Co385 O393 2.047 . S
Co385 O399 2.113 . S
Co385 O410 2.063 . S
Co386 H387 2.388 1_455 S
Co386 O388 2.053 1_455 S
Co386 O390 2.126 . S
Co386 O395 2.063 . S
Co386 O409 2.047 . S
Co386 O415 2.113 . S
H387 Co384 2.400 . S
H387 Co386 2.388 1_655 S
H387 O388 0.760 . S
O388 Co384 2.009 . S
O388 Co385 2.126 . S
O388 Co386 2.053 1_655 S
O388 H387 0.760 . S
H389 Co385 2.388 1_455 S
H389 O390 0.760 . S
H389 Co391 2.400 . S
O390 Co385 2.053 1_455 S
O390 Co386 2.126 . S
O390 H389 0.760 . S
O390 Co391 2.009 . S
Co391 H389 2.400 . S
Co391 O390 2.009 . S
Co391 O392 2.053 . S
Co391 O394 2.094 . S
Co391 O398 2.122 . S
Co391 O412 2.115 . S
Co391 O413 2.315 . S
O392 Co391 2.053 . S
O392 C404 1.236 1_455 S
O393 Co385 2.047 . S
O393 C404 1.275 . S
O394 Co391 2.094 . S
O394 C405 1.253 . S
O395 Co386 2.063 . S
O395 C405 1.268 . S
O396 Co384 2.115 . S
O396 C406 1.281 . S
O397 Co384 2.315 . S
O397 C406 1.252 . S
O398 Co391 2.122 . S
O398 C407 1.318 . S
O399 Co385 2.113 . S
O399 C407 1.217 1_655 S
C400 O408 1.259 . S
C400 O409 1.257 1_655 S
C401 O410 1.268 . S
C401 O411 1.253 . S
C402 O412 1.281 . S
C402 O413 1.252 . S
C403 O414 1.272 . S
C403 O415 1.245 1_655 S
C404 O392 1.236 1_655 S
C404 O393 1.275 . S
C405 O394 1.253 . S
C405 O395 1.268 . S
C406 O396 1.281 . S
C406 O397 1.252 . S
C407 O398 1.318 . S
C407 O399 1.217 1_455 S
O408 Co384 2.053 . S
O408 C400 1.259 . S
O409 Co386 2.047 . S
O409 C400 1.257 1_455 S
O410 Co385 2.063 . S
O410 C401 1.268 . S
O411 Co384 2.094 . S
O411 C401 1.253 . S
O412 Co391 2.115 . S
O412 C402 1.281 . S
O413 Co391 2.315 . S
O413 C402 1.252 . S
O414 Co384 2.122 . S
O414 C403 1.272 . S
O415 Co386 2.113 . S
O415 C403 1.245 1_455 S
Co416 H419 2.400 . S
Co416 O420 2.009 . S
Co416 O428 2.115 . S
Co416 O429 2.315 . S
Co416 O440 2.053 . S
Co416 O443 2.094 . S
Co416 O446 2.122 . S
Co417 O420 2.126 . S
Co417 H421 2.388 . S
Co417 O422 2.053 . S
Co417 O425 2.047 . S
Co417 O431 2.113 . S
Co417 O442 2.063 . S
Co418 H419 2.388 . S
Co418 O420 2.053 . S
Co418 O422 2.126 . S
Co418 O427 2.063 . S
Co418 O441 2.047 . S
Co418 O447 2.113 . S
H419 Co416 2.400 . S
H419 Co418 2.388 . S
H419 O420 0.760 . S
O420 Co416 2.009 . S
O420 Co417 2.126 . S
O420 Co418 2.053 . S
O420 H419 0.760 . S
H421 Co417 2.388 . S
H421 O422 0.760 . S
H421 Co423 2.400 . S
O422 Co417 2.053 . S
O422 Co418 2.126 . S
O422 H421 0.760 . S
O422 Co423 2.009 . S
Co423 H421 2.400 . S
Co423 O422 2.009 . S
Co423 O424 2.053 . S
Co423 O426 2.094 . S
Co423 O430 2.122 . S
Co423 O444 2.115 . S
Co423 O445 2.315 . S
O424 Co423 2.053 . S
O424 C436 1.259 . S
O425 Co417 2.047 . S
O425 C436 1.257 . S
O426 Co423 2.094 . S
O426 C437 1.253 . S
O427 Co418 2.063 . S
O427 C437 1.268 . S
O428 Co416 2.115 . S
O428 C438 1.281 . S
O429 Co416 2.315 . S
O429 C438 1.252 . S
O430 Co423 2.122 . S
O430 C439 1.272 . S
O431 Co417 2.113 . S
O431 C439 1.245 . S
C432 O440 1.259 . S
C432 O441 1.257 . S
C433 O442 1.268 . S
C433 O443 1.253 . S
C434 O444 1.281 . S
C434 O445 1.252 . S
C435 O446 1.272 . S
C435 O447 1.245 . S
C436 O424 1.259 . S
C436 O425 1.257 . S
C437 O426 1.253 . S
C437 O427 1.268 . S
C438 O428 1.281 . S
C438 O429 1.252 . S
C439 O430 1.272 . S
C439 O431 1.245 . S
O440 Co416 2.053 . S
O440 C432 1.259 . S
O441 Co418 2.047 . S
O441 C432 1.257 . S
O442 Co417 2.063 . S
O442 C433 1.268 . S
O443 Co416 2.094 . S
O443 C433 1.253 . S
O444 Co423 2.115 . S
O444 C434 1.281 . S
O445 Co423 2.315 . S
O445 C434 1.252 . S
O446 Co416 2.122 . S
O446 C435 1.272 . S
O447 Co418 2.113 . S
O447 C435 1.245 . S
Co448 H451 2.400 . S
Co448 O452 2.009 . S
Co448 O460 2.115 . S
Co448 O461 2.315 . S
Co448 O472 2.053 . S
Co448 O475 2.094 . S
Co448 O478 2.122 . S
Co449 O452 2.126 . S
Co449 H453 2.388 1_655 S
Co449 O454 2.053 1_655 S
Co449 O457 2.047 . S
Co449 O463 2.113 . S
Co449 O474 2.063 . S
Co450 H451 2.388 1_455 S
Co450 O452 2.053 1_455 S
Co450 O454 2.126 . S
Co450 O459 2.063 . S
Co450 O473 2.047 . S
Co450 O479 2.113 . S
H451 Co448 2.400 . S
H451 Co450 2.388 1_655 S
H451 O452 0.760 . S
O452 Co448 2.009 . S
O452 Co449 2.126 . S
O452 Co450 2.053 1_655 S
O452 H451 0.760 . S
H453 Co449 2.388 1_455 S
H453 O454 0.760 . S
H453 Co455 2.400 . S
O454 Co449 2.053 1_455 S
O454 Co450 2.126 . S
O454 H453 0.760 . S
O454 Co455 2.009 . S
Co455 H453 2.400 . S
Co455 O454 2.009 . S
Co455 O456 2.053 . S
Co455 O458 2.094 . S
Co455 O462 2.122 . S
Co455 O476 2.115 . S
Co455 O477 2.315 . S
O456 Co455 2.053 . S
O456 C468 1.259 1_455 S
O457 Co449 2.047 . S
O457 C468 1.257 . S
O458 Co455 2.094 . S
O458 C469 1.253 . S
O459 Co450 2.063 . S
O459 C469 1.268 . S
O460 Co448 2.115 . S
O460 C470 1.281 . S
O461 Co448 2.315 . S
O461 C470 1.252 . S
O462 Co455 2.122 . S
O462 C471 1.272 1_455 S
O463 Co449 2.113 . S
O463 C471 1.245 . S
C464 O472 1.259 . S
C464 O473 1.257 1_655 S
C465 O474 1.268 . S
C465 O475 1.253 . S
C466 O476 1.281 . S
C466 O477 1.252 . S
C467 O478 1.272 1_455 S
C467 O479 1.245 . S
C468 O456 1.259 1_655 S
C468 O457 1.257 . S
C469 O458 1.253 . S
C469 O459 1.268 . S
C470 O460 1.281 . S
C470 O461 1.252 . S
C471 O462 1.272 1_655 S
C471 O463 1.245 . S
O472 Co448 2.053 . S
O472 C464 1.259 . S
O473 Co450 2.047 . S
O473 C464 1.257 1_455 S
O474 Co449 2.063 . S
O474 C465 1.268 . S
O475 Co448 2.094 . S
O475 C465 1.253 . S
O476 Co455 2.115 . S
O476 C466 1.281 . S
O477 Co455 2.315 . S
O477 C466 1.252 . S
O478 Co448 2.122 . S
O478 C467 1.272 1_655 S
O479 Co450 2.113 . S
O479 C467 1.245 . S
Co480 H483 2.400 . S
Co480 O484 2.009 . S
Co480 O492 2.115 . S
Co480 O493 2.315 . S
Co480 O504 2.053 . S
Co480 O507 2.094 . S
Co480 O510 2.122 . S
Co481 O484 2.126 . S
Co481 H485 2.388 . S
Co481 O486 2.053 . S
Co481 O489 2.047 . S
Co481 O495 2.113 . S
Co481 O506 2.063 . S
Co482 H483 2.388 . S
Co482 O484 2.053 . S
Co482 O486 2.126 . S
Co482 O491 2.063 . S
Co482 O505 2.047 . S
Co482 O511 2.113 . S
H483 Co480 2.400 . S
H483 Co482 2.388 . S
H483 O484 0.760 . S
O484 Co480 2.009 . S
O484 Co481 2.126 . S
O484 Co482 2.053 . S
O484 H483 0.760 . S
H485 Co481 2.388 . S
H485 O486 0.760 . S
H485 Co487 2.400 . S
O486 Co481 2.053 . S
O486 Co482 2.126 . S
O486 H485 0.760 . S
O486 Co487 2.009 . S
Co487 H485 2.400 . S
Co487 O486 2.009 . S
Co487 O488 2.053 . S
Co487 O490 2.094 . S
Co487 O494 2.122 . S
Co487 O508 2.115 . S
Co487 O509 2.315 . S
O488 Co487 2.053 . S
O488 C500 1.259 . S
O489 Co481 2.047 . S
O489 C500 1.257 . S
O490 Co487 2.094 . S
O490 C501 1.253 . S
O491 Co482 2.063 . S
O491 C501 1.268 . S
O492 Co480 2.115 . S
O492 C502 1.281 . S
O493 Co480 2.315 . S
O493 C502 1.252 . S
O494 Co487 2.122 . S
O494 C503 1.272 . S
O495 Co481 2.113 . S
O495 C503 1.245 . S
C496 O504 1.259 . S
C496 O505 1.257 . S
C497 O506 1.268 . S
C497 O507 1.253 . S
C498 O508 1.281 . S
C498 O509 1.252 . S
C499 O510 1.272 . S
C499 O511 1.245 . S
C500 O488 1.259 . S
C500 O489 1.257 . S
C501 O490 1.253 . S
C501 O491 1.268 . S
C502 O492 1.281 . S
C502 O493 1.252 . S
C503 O494 1.272 . S
C503 O495 1.245 . S
O504 Co480 2.053 . S
O504 C496 1.259 . S
O505 Co482 2.047 . S
O505 C496 1.257 . S
O506 Co481 2.063 . S
O506 C497 1.268 . S
O507 Co480 2.094 . S
O507 C497 1.253 . S
O508 Co487 2.115 . S
O508 C498 1.281 . S
O509 Co487 2.315 . S
O509 C498 1.252 . S
O510 Co480 2.122 . S
O510 C499 1.272 . S
O511 Co482 2.113 . S
O511 C499 1.245 . S
Co512 H515 2.400 . S
Co512 O516 2.009 . S
Co512 O524 2.115 . S
Co512 O525 2.315 . S
Co512 O536 2.053 . S
Co512 O539 2.094 . S
Co512 O542 2.122 . S
Co513 O516 2.126 . S
Co513 H517 2.388 . S
Co513 O518 2.053 . S
Co513 O521 2.047 . S
Co513 O527 2.113 . S
Co513 O538 2.063 . S
Co514 H515 2.388 . S
Co514 O516 2.053 . S
Co514 O518 2.126 . S
Co514 O523 2.063 . S
Co514 O537 2.047 . S
Co514 O543 2.113 . S
H515 Co512 2.400 . S
H515 Co514 2.388 . S
H515 O516 0.760 . S
O516 Co512 2.009 . S
O516 Co513 2.126 . S
O516 Co514 2.053 . S
O516 H515 0.760 . S
H517 Co513 2.388 . S
H517 O518 0.760 . S
H517 Co519 2.400 . S
O518 Co513 2.053 . S
O518 Co514 2.126 . S
O518 H517 0.760 . S
O518 Co519 2.009 . S
Co519 H517 2.400 . S
Co519 O518 2.009 . S
Co519 O520 2.053 . S
Co519 O522 2.094 . S
Co519 O526 2.122 . S
Co519 O540 2.115 . S
Co519 O541 2.315 . S
O520 Co519 2.053 . S
O520 C532 1.259 . S
O521 Co513 2.047 . S
O521 C532 1.257 . S
O522 Co519 2.094 . S
O522 C533 1.253 . S
O523 Co514 2.063 . S
O523 C533 1.268 . S
O524 Co512 2.115 . S
O524 C534 1.281 . S
O525 Co512 2.315 . S
O525 C534 1.252 . S
O526 Co519 2.122 . S
O526 C535 1.272 . S
O527 Co513 2.113 . S
O527 C535 1.245 . S
C528 O536 1.259 . S
C528 O537 1.257 . S
C529 O538 1.268 . S
C529 O539 1.253 . S
C530 O540 1.281 . S
C530 O541 1.252 . S
C531 O542 1.272 . S
C531 O543 1.245 . S
C532 O520 1.259 . S
C532 O521 1.257 . S
C533 O522 1.253 . S
C533 O523 1.268 . S
C534 O524 1.281 . S
C534 O525 1.252 . S
C535 O526 1.272 . S
C535 O527 1.245 . S
O536 Co512 2.053 . S
O536 C528 1.259 . S
O537 Co514 2.047 . S
O537 C528 1.257 . S
O538 Co513 2.063 . S
O538 C529 1.268 . S
O539 Co512 2.094 . S
O539 C529 1.253 . S
O540 Co519 2.115 . S
O540 C530 1.281 . S
O541 Co519 2.315 . S
O541 C530 1.252 . S
O542 Co512 2.122 . S
O542 C531 1.272 . S
O543 Co514 2.113 . S
O543 C531 1.245 . S
Co544 H547 2.400 . S
Co544 O548 2.009 . S
Co544 O556 2.115 . S
Co544 O557 2.315 . S
Co544 O568 2.053 . S
Co544 O571 2.094 . S
Co544 O574 2.122 . S
Co545 O548 2.126 . S
Co545 H549 2.388 . S
Co545 O550 2.053 . S
Co545 O553 2.047 . S
Co545 O559 2.113 . S
Co545 O570 2.063 . S
Co546 H547 2.388 . S
Co546 O548 2.053 . S
Co546 O550 2.126 . S
Co546 O555 2.063 1_565 S
Co546 O569 2.047 . S
Co546 O575 2.113 . S
H547 Co544 2.400 . S
H547 Co546 2.388 . S
H547 O548 0.760 . S
O548 Co544 2.009 . S
O548 Co545 2.126 . S
O548 Co546 2.053 . S
O548 H547 0.760 . S
H549 Co545 2.388 . S
H549 O550 0.760 . S
H549 Co551 2.400 . S
O550 Co545 2.053 . S
O550 Co546 2.126 . S
O550 H549 0.760 . S
O550 Co551 2.009 . S
Co551 H549 2.400 . S
Co551 O550 2.009 . S
Co551 O552 2.053 . S
Co551 O554 2.094 . S
Co551 O558 2.122 . S
Co551 O572 2.115 . S
Co551 O573 2.315 . S
O552 Co551 2.053 . S
O552 C564 1.259 . S
O553 Co545 2.047 . S
O553 C564 1.257 . S
O554 Co551 2.094 . S
O554 C565 1.253 1_565 S
O555 Co546 2.063 1_545 S
O555 C565 1.268 . S
O556 Co544 2.115 . S
O556 C566 1.281 . S
O557 Co544 2.315 . S
O557 C566 1.252 . S
O558 Co551 2.122 . S
O558 C567 1.272 . S
O559 Co545 2.113 . S
O559 C567 1.245 . S
C560 O568 1.259 . S
C560 O569 1.257 . S
C561 O570 1.268 . S
C561 O571 1.253 . S
C562 O572 1.281 . S
C562 O573 1.252 . S
C563 O574 1.272 . S
C563 O575 1.245 . S
C564 O552 1.259 . S
C564 O553 1.257 . S
C565 O554 1.253 1_545 S
C565 O555 1.268 . S
C566 O556 1.281 . S
C566 O557 1.252 . S
C567 O558 1.272 . S
C567 O559 1.245 . S
O568 Co544 2.053 . S
O568 C560 1.259 . S
O569 Co546 2.047 . S
O569 C560 1.257 . S
O570 Co545 2.063 . S
O570 C561 1.268 . S
O571 Co544 2.094 . S
O571 C561 1.253 . S
O572 Co551 2.115 . S
O572 C562 1.281 . S
O573 Co551 2.315 . S
O573 C562 1.252 . S
O574 Co544 2.122 . S
O574 C563 1.272 . S
O575 Co546 2.113 . S
O575 C563 1.245 . S
Co576 H579 2.400 . S
Co576 O580 2.009 . S
Co576 O588 2.115 1_565 S
Co576 O589 2.315 . S
Co576 O600 2.053 1_565 S
Co576 O603 2.094 . S
Co576 O606 2.122 . S
Co577 O580 2.126 . S
Co577 H581 2.388 . S
Co577 O582 2.053 . S
Co577 O585 2.047 . S
Co577 O591 2.113 . S
Co577 O602 2.063 . S
Co578 H579 2.388 . S
Co578 O580 2.053 . S
Co578 O582 2.126 . S
Co578 O587 2.063 . S
Co578 O601 2.047 1_565 S
Co578 O607 2.113 . S
H579 Co576 2.400 . S
H579 Co578 2.388 . S
H579 O580 0.760 . S
O580 Co576 2.009 . S
O580 Co577 2.126 . S
O580 Co578 2.053 . S
O580 H579 0.760 . S
H581 Co577 2.388 . S
H581 O582 0.760 . S
H581 Co583 2.400 . S
O582 Co577 2.053 . S
O582 Co578 2.126 . S
O582 H581 0.760 . S
O582 Co583 2.009 . S
Co583 H581 2.400 . S
Co583 O582 2.009 . S
Co583 O584 2.053 . S
Co583 O586 2.094 . S
Co583 O590 2.122 . S
Co583 O604 2.115 . S
Co583 O605 2.315 . S
O584 Co583 2.053 . S
O584 C596 1.259 . S
O585 Co577 2.047 . S
O585 C596 1.257 . S
O586 Co583 2.094 . S
O586 C597 1.253 . S
O587 Co578 2.063 . S
O587 C597 1.268 . S
O588 Co576 2.115 1_545 S
O588 C598 1.281 . S
O589 Co576 2.315 . S
O589 C598 1.252 1_565 S
O590 Co583 2.122 . S
O590 C599 1.272 . S
O591 Co577 2.113 . S
O591 C599 1.245 . S
C592 O600 1.259 . S
C592 O601 1.257 . S
C593 O602 1.268 . S
C593 O603 1.253 . S
C594 O604 1.281 . S
C594 O605 1.252 . S
C595 O606 1.272 . S
C595 O607 1.245 . S
C596 O584 1.259 . S
C596 O585 1.257 . S
C597 O586 1.253 . S
C597 O587 1.268 . S
C598 O588 1.281 . S
C598 O589 1.252 1_545 S
C599 O590 1.272 . S
C599 O591 1.245 . S
O600 Co576 2.053 1_545 S
O600 C592 1.259 . S
O601 Co578 2.047 1_545 S
O601 C592 1.257 . S
O602 Co577 2.063 . S
O602 C593 1.268 . S
O603 Co576 2.094 . S
O603 C593 1.253 . S
O604 Co583 2.115 . S
O604 C594 1.281 . S
O605 Co583 2.315 . S
O605 C594 1.252 . S
O606 Co576 2.122 . S
O606 C595 1.272 . S
O607 Co578 2.113 . S
O607 C595 1.245 . S
Co608 H611 2.400 . S
Co608 O612 2.009 . S
Co608 O620 2.115 . S
Co608 O621 2.315 . S
Co608 O632 2.053 . S
Co608 O635 2.094 . S
Co608 O638 2.122 . S
Co609 O612 2.126 . S
Co609 H613 2.388 . S
Co609 O614 2.053 . S
Co609 O617 2.047 . S
Co609 O623 2.113 . S
Co609 O634 2.063 . S
Co610 H611 2.388 . S
Co610 O612 2.053 . S
Co610 O614 2.126 . S
Co610 O619 2.063 . S
Co610 O633 2.047 . S
Co610 O639 2.113 . S
H611 Co608 2.400 . S
H611 Co610 2.388 . S
H611 O612 0.760 . S
O612 Co608 2.009 . S
O612 Co609 2.126 . S
O612 Co610 2.053 . S
O612 H611 0.760 . S
H613 Co609 2.388 . S
H613 O614 0.760 . S
H613 Co615 2.400 . S
O614 Co609 2.053 . S
O614 Co610 2.126 . S
O614 H613 0.760 . S
O614 Co615 2.009 . S
Co615 H613 2.400 . S
Co615 O614 2.009 . S
Co615 O616 2.053 . S
Co615 O618 2.094 . S
Co615 O622 2.122 . S
Co615 O636 2.115 . S
Co615 O637 2.315 . S
O616 Co615 2.053 . S
O616 C628 1.259 . S
O617 Co609 2.047 . S
O617 C628 1.257 . S
O618 Co615 2.094 . S
O618 C629 1.253 . S
O619 Co610 2.063 . S
O619 C629 1.268 . S
O620 Co608 2.115 . S
O620 C630 1.281 . S
O621 Co608 2.315 . S
O621 C630 1.252 . S
O622 Co615 2.122 . S
O622 C631 1.272 . S
O623 Co609 2.113 . S
O623 C631 1.245 . S
C624 O632 1.259 . S
C624 O633 1.257 . S
C625 O634 1.268 . S
C625 O635 1.253 . S
C626 O636 1.281 . S
C626 O637 1.252 . S
C627 O638 1.272 . S
C627 O639 1.245 . S
C628 O616 1.259 . S
C628 O617 1.257 . S
C629 O618 1.253 . S
C629 O619 1.268 . S
C630 O620 1.281 . S
C630 O621 1.252 . S
C631 O622 1.272 . S
C631 O623 1.245 . S
O632 Co608 2.053 . S
O632 C624 1.259 . S
O633 Co610 2.047 . S
O633 C624 1.257 . S
O634 Co609 2.063 . S
O634 C625 1.268 . S
O635 Co608 2.094 . S
O635 C625 1.253 . S
O636 Co615 2.115 . S
O636 C626 1.281 . S
O637 Co615 2.315 . S
O637 C626 1.252 . S
O638 Co608 2.122 . S
O638 C627 1.272 . S
O639 Co610 2.113 . S
O639 C627 1.245 . S
Co640 H643 2.400 . S
Co640 O644 2.009 . S
Co640 O652 2.115 . S
Co640 O653 2.315 . S
Co640 O664 2.053 . S
Co640 O667 2.094 . S
Co640 O670 2.122 . S
Co641 O644 2.126 . S
Co641 H645 2.388 . S
Co641 O646 2.053 . S
Co641 O649 2.047 . S
Co641 O655 2.113 . S
Co641 O666 2.063 . S
Co642 H643 2.388 . S
Co642 O644 2.053 . S
Co642 O646 2.126 . S
Co642 O651 2.063 . S
Co642 O665 2.047 . S
Co642 O671 2.113 . S
H643 Co640 2.400 . S
H643 Co642 2.388 . S
H643 O644 0.760 . S
O644 Co640 2.009 . S
O644 Co641 2.126 . S
O644 Co642 2.053 . S
O644 H643 0.760 . S
H645 Co641 2.388 . S
H645 O646 0.760 . S
H645 Co647 2.400 . S
O646 Co641 2.053 . S
O646 Co642 2.126 . S
O646 H645 0.760 . S
O646 Co647 2.009 . S
Co647 H645 2.400 . S
Co647 O646 2.009 . S
Co647 O648 2.053 . S
Co647 O650 2.094 . S
Co647 O654 2.122 . S
Co647 O668 2.115 . S
Co647 O669 2.315 . S
O648 Co647 2.053 . S
O648 C660 1.259 . S
O649 Co641 2.047 . S
O649 C660 1.257 . S
O650 Co647 2.094 . S
O650 C661 1.253 . S
O651 Co642 2.063 . S
O651 C661 1.268 . S
O652 Co640 2.115 . S
O652 C662 1.281 . S
O653 Co640 2.315 . S
O653 C662 1.252 . S
O654 Co647 2.122 . S
O654 C663 1.272 . S
O655 Co641 2.113 . S
O655 C663 1.245 . S
C656 O664 1.259 . S
C656 O665 1.257 . S
C657 O666 1.268 . S
C657 O667 1.253 . S
C658 O668 1.281 . S
C658 O669 1.252 . S
C659 O670 1.272 . S
C659 O671 1.245 . S
C660 O648 1.259 . S
C660 O649 1.257 . S
C661 O650 1.253 . S
C661 O651 1.268 . S
C662 O652 1.281 . S
C662 O653 1.252 . S
C663 O654 1.272 . S
C663 O655 1.245 . S
O664 Co640 2.053 . S
O664 C656 1.259 . S
O665 Co642 2.047 . S
O665 C656 1.257 . S
O666 Co641 2.063 . S
O666 C657 1.268 . S
O667 Co640 2.094 . S
O667 C657 1.253 . S
O668 Co647 2.115 . S
O668 C658 1.281 . S
O669 Co647 2.315 . S
O669 C658 1.252 . S
O670 Co640 2.122 . S
O670 C659 1.272 . S
O671 Co642 2.113 . S
O671 C659 1.245 . S
Co672 H675 2.400 . S
Co672 O676 2.009 . S
Co672 O684 2.115 . S
Co672 O685 2.315 . S
Co672 O696 2.053 . S
Co672 O699 2.094 . S
Co672 O702 2.122 . S
Co673 O676 2.126 . S
Co673 H677 2.388 . S
Co673 O678 2.053 . S
Co673 O681 2.047 . S
Co673 O687 2.113 . S
Co673 O698 2.063 1_545 S
Co674 H675 2.388 . S
Co674 O676 2.053 . S
Co674 O678 2.126 . S
Co674 O683 2.063 . S
Co674 O697 2.047 . S
Co674 O703 2.113 . S
H675 Co672 2.400 . S
H675 Co674 2.388 . S
H675 O676 0.760 . S
O676 Co672 2.009 . S
O676 Co673 2.126 . S
O676 Co674 2.053 . S
O676 H675 0.760 . S
H677 Co673 2.388 . S
H677 O678 0.760 . S
H677 Co679 2.400 . S
O678 Co673 2.053 . S
O678 Co674 2.126 . S
O678 H677 0.760 . S
O678 Co679 2.009 . S
Co679 H677 2.400 . S
Co679 O678 2.009 . S
Co679 O680 2.053 . S
Co679 O682 2.094 . S
Co679 O686 2.122 . S
Co679 O700 2.115 . S
Co679 O701 2.315 . S
O680 Co679 2.053 . S
O680 C692 1.259 . S
O681 Co673 2.047 . S
O681 C692 1.257 . S
O682 Co679 2.094 . S
O682 C693 1.253 . S
O683 Co674 2.063 . S
O683 C693 1.268 . S
O684 Co672 2.115 . S
O684 C694 1.281 . S
O685 Co672 2.315 . S
O685 C694 1.252 . S
O686 Co679 2.122 . S
O686 C695 1.272 . S
O687 Co673 2.113 . S
O687 C695 1.245 . S
C688 O696 1.259 . S
C688 O697 1.257 . S
C689 O698 1.268 . S
C689 O699 1.253 1_565 S
C690 O700 1.281 . S
C690 O701 1.252 . S
C691 O702 1.272 . S
C691 O703 1.245 . S
C692 O680 1.259 . S
C692 O681 1.257 . S
C693 O682 1.253 . S
C693 O683 1.268 . S
C694 O684 1.281 . S
C694 O685 1.252 . S
C695 O686 1.272 . S
C695 O687 1.245 . S
O696 Co672 2.053 . S
O696 C688 1.259 . S
O697 Co674 2.047 . S
O697 C688 1.257 . S
O698 Co673 2.063 1_565 S
O698 C689 1.268 . S
O699 Co672 2.094 . S
O699 C689 1.253 1_545 S
O700 Co679 2.115 . S
O700 C690 1.281 . S
O701 Co679 2.315 . S
O701 C690 1.252 . S
O702 Co672 2.122 . S
O702 C691 1.272 . S
O703 Co674 2.113 . S
O703 C691 1.245 . S
Co704 H707 2.400 . S
Co704 O708 2.009 . S
Co704 O716 2.115 . S
Co704 O717 2.315 . S
Co704 O728 2.053 . S
Co704 O731 2.094 . S
Co704 O734 2.122 . S
Co705 O708 2.126 . S
Co705 H709 2.388 . S
Co705 O710 2.053 . S
Co705 O713 2.047 1_545 S
Co705 O719 2.113 . S
Co705 O730 2.063 . S
Co706 H707 2.388 . S
Co706 O708 2.053 . S
Co706 O710 2.126 . S
Co706 O715 2.063 . S
Co706 O729 2.047 . S
Co706 O735 2.113 . S
H707 Co704 2.400 . S
H707 Co706 2.388 . S
H707 O708 0.760 . S
O708 Co704 2.009 . S
O708 Co705 2.126 . S
O708 Co706 2.053 . S
O708 H707 0.760 . S
H709 Co705 2.388 . S
H709 O710 0.760 . S
H709 Co711 2.400 . S
O710 Co705 2.053 . S
O710 Co706 2.126 . S
O710 H709 0.760 . S
O710 Co711 2.009 . S
Co711 H709 2.400 . S
Co711 O710 2.009 . S
Co711 O712 2.053 1_545 S
Co711 O714 2.094 . S
Co711 O718 2.122 . S
Co711 O732 2.115 1_545 S
Co711 O733 2.315 . S
O712 Co711 2.053 1_565 S
O712 C724 1.259 . S
O713 Co705 2.047 1_565 S
O713 C724 1.257 . S
O714 Co711 2.094 . S
O714 C725 1.253 . S
O715 Co706 2.063 . S
O715 C725 1.268 . S
O716 Co704 2.115 . S
O716 C726 1.281 . S
O717 Co704 2.315 . S
O717 C726 1.252 . S
O718 Co711 2.122 . S
O718 C727 1.272 . S
O719 Co705 2.113 . S
O719 C727 1.245 . S
C720 O728 1.259 . S
C720 O729 1.257 . S
C721 O730 1.268 . S
C721 O731 1.253 . S
C722 O732 1.281 . S
C722 O733 1.252 1_565 S
C723 O734 1.272 . S
C723 O735 1.245 . S
C724 O712 1.259 . S
C724 O713 1.257 . S
C725 O714 1.253 . S
C725 O715 1.268 . S
C726 O716 1.281 . S
C726 O717 1.252 . S
C727 O718 1.272 . S
C727 O719 1.245 . S
O728 Co704 2.053 . S
O728 C720 1.259 . S
O729 Co706 2.047 . S
O729 C720 1.257 . S
O730 Co705 2.063 . S
O730 C721 1.268 . S
O731 Co704 2.094 . S
O731 C721 1.253 . S
O732 Co711 2.115 1_565 S
O732 C722 1.281 . S
O733 Co711 2.315 . S
O733 C722 1.252 1_545 S
O734 Co704 2.122 . S
O734 C723 1.272 . S
O735 Co706 2.113 . S
O735 C723 1.245 . S
Co736 H739 2.400 . S
Co736 O740 2.009 . S
Co736 O748 2.115 . S
Co736 O749 2.315 . S
Co736 O760 2.053 . S
Co736 O763 2.094 . S
Co736 O766 2.122 . S
Co737 O740 2.126 . S
Co737 H741 2.388 . S
Co737 O742 2.053 . S
Co737 O745 2.047 . S
Co737 O751 2.113 . S
Co737 O762 2.063 . S
Co738 H739 2.388 . S
Co738 O740 2.053 . S
Co738 O742 2.126 . S
Co738 O747 2.063 . S
Co738 O761 2.047 . S
Co738 O767 2.113 . S
H739 Co736 2.400 . S
H739 Co738 2.388 . S
H739 O740 0.760 . S
O740 Co736 2.009 . S
O740 Co737 2.126 . S
O740 Co738 2.053 . S
O740 H739 0.760 . S
H741 Co737 2.388 . S
H741 O742 0.760 . S
H741 Co743 2.400 . S
O742 Co737 2.053 . S
O742 Co738 2.126 . S
O742 H741 0.760 . S
O742 Co743 2.009 . S
Co743 H741 2.400 . S
Co743 O742 2.009 . S
Co743 O744 2.053 . S
Co743 O746 2.094 . S
Co743 O750 2.122 . S
Co743 O764 2.115 . S
Co743 O765 2.315 . S
O744 Co743 2.053 . S
O744 C756 1.259 . S
O745 Co737 2.047 . S
O745 C756 1.257 . S
O746 Co743 2.094 . S
O746 C757 1.253 . S
O747 Co738 2.063 . S
O747 C757 1.268 . S
O748 Co736 2.115 . S
O748 C758 1.281 . S
O749 Co736 2.315 . S
O749 C758 1.252 . S
O750 Co743 2.122 . S
O750 C759 1.272 . S
O751 Co737 2.113 . S
O751 C759 1.245 . S
C752 O760 1.259 . S
C752 O761 1.257 . S
C753 O762 1.268 . S
C753 O763 1.253 . S
C754 O764 1.281 . S
C754 O765 1.252 . S
C755 O766 1.272 . S
C755 O767 1.245 . S
C756 O744 1.259 . S
C756 O745 1.257 . S
C757 O746 1.253 . S
C757 O747 1.268 . S
C758 O748 1.281 . S
C758 O749 1.252 . S
C759 O750 1.272 . S
C759 O751 1.245 . S
O760 Co736 2.053 . S
O760 C752 1.259 . S
O761 Co738 2.047 . S
O761 C752 1.257 . S
O762 Co737 2.063 . S
O762 C753 1.268 . S
O763 Co736 2.094 . S
O763 C753 1.253 . S
O764 Co743 2.115 . S
O764 C754 1.281 . S
O765 Co743 2.315 . S
O765 C754 1.252 . S
O766 Co736 2.122 . S
O766 C755 1.272 . S
O767 Co738 2.113 . S
O767 C755 1.245 . S
Co768 H771 2.400 . S
Co768 O772 2.009 . S
Co768 O780 2.115 . S
Co768 O781 2.315 . S
Co768 O792 2.053 . S
Co768 O795 2.083 1_554 S
Co768 O798 2.122 1_554 S
Co769 O772 2.126 . S
Co769 H773 2.388 . S
Co769 O774 2.053 . S
Co769 O777 2.047 1_554 S
Co769 O783 2.113 . S
Co769 O794 2.063 . S
Co770 H771 2.388 . S
Co770 O772 2.053 . S
Co770 O774 2.126 . S
Co770 O779 2.063 . S
Co770 O793 2.047 . S
Co770 O799 2.113 1_554 S
H771 Co768 2.400 . S
H771 Co770 2.388 . S
H771 O772 0.760 . S
O772 Co768 2.009 . S
O772 Co769 2.126 . S
O772 Co770 2.053 . S
O772 H771 0.760 . S
H773 Co769 2.388 . S
H773 O774 0.760 . S
H773 Co775 2.400 . S
O774 Co769 2.053 . S
O774 Co770 2.126 . S
O774 H773 0.760 . S
O774 Co775 2.009 . S
Co775 H773 2.400 . S
Co775 O774 2.009 . S
Co775 O776 2.053 . S
Co775 O778 2.094 . S
Co775 O782 2.122 . S
Co775 O796 2.115 . S
Co775 O797 2.315 . S
O776 Co775 2.053 . S
O776 C788 1.259 . S
O777 Co769 2.047 1_556 S
O777 C788 1.257 1_556 S
O778 Co775 2.094 . S
O778 C789 1.253 . S
O779 Co770 2.063 . S
O779 C789 1.268 . S
O780 Co768 2.115 . S
O780 C790 1.281 . S
O781 Co768 2.315 . S
O781 C790 1.252 . S
O782 Co775 2.122 . S
O782 C791 1.272 . S
O783 Co769 2.113 . S
O783 C791 1.245 . S
C784 O792 1.259 . S
C784 O793 1.257 . S
C785 O794 1.268 . S
C785 O795 1.246 1_554 S
C786 O796 1.281 . S
C786 O797 1.252 . S
C787 O798 1.272 . S
C787 O799 1.245 . S
C788 O776 1.259 . S
C788 O777 1.257 1_554 S
C789 O778 1.253 . S
C789 O779 1.268 . S
C790 O780 1.281 . S
C790 O781 1.252 . S
C791 O782 1.272 . S
C791 O783 1.245 . S
O792 Co768 2.053 . S
O792 C784 1.259 . S
O793 Co770 2.047 . S
O793 C784 1.257 . S
O794 Co769 2.063 . S
O794 C785 1.268 . S
O795 Co768 2.083 1_556 S
O795 C785 1.246 1_556 S
O796 Co775 2.115 . S
O796 C786 1.281 . S
O797 Co775 2.315 . S
O797 C786 1.252 . S
O798 Co768 2.122 1_556 S
O798 C787 1.272 . S
O799 Co770 2.113 1_556 S
O799 C787 1.245 . S
Co800 H803 2.400 . S
Co800 O804 2.009 . S
Co800 O812 2.115 1_554 S
Co800 O813 2.315 . S
Co800 O824 2.053 . S
Co800 O827 2.094 1_554 S
Co800 O830 2.122 1_554 S
Co801 O804 2.126 . S
Co801 H805 2.388 . S
Co801 O806 2.053 . S
Co801 O809 2.047 . S
Co801 O815 2.113 . S
Co801 O826 2.063 . S
Co802 H803 2.388 . S
Co802 O804 2.053 . S
Co802 O806 2.126 . S
Co802 O811 2.063 . S
Co802 O825 2.047 . S
Co802 O831 2.113 . S
H803 Co800 2.400 . S
H803 Co802 2.388 . S
H803 O804 0.760 . S
O804 Co800 2.009 . S
O804 Co801 2.126 . S
O804 Co802 2.053 . S
O804 H803 0.760 . S
H805 Co801 2.388 . S
H805 O806 0.760 . S
H805 Co807 2.400 . S
O806 Co801 2.053 . S
O806 Co802 2.126 . S
O806 H805 0.760 . S
O806 Co807 2.009 . S
Co807 H805 2.400 . S
Co807 O806 2.009 . S
Co807 O808 2.053 . S
Co807 O810 2.094 . S
Co807 O814 2.122 . S
Co807 O828 2.115 . S
Co807 O829 2.315 . S
O808 Co807 2.053 . S
O808 C820 1.259 . S
O809 Co801 2.047 . S
O809 C820 1.257 . S
O810 Co807 2.094 . S
O810 C821 1.253 . S
O811 Co802 2.063 . S
O811 C821 1.268 . S
O812 Co800 2.115 1_556 S
O812 C822 1.281 1_556 S
O813 Co800 2.315 . S
O813 C822 1.252 . S
O814 Co807 2.122 . S
O814 C823 1.272 . S
O815 Co801 2.113 . S
O815 C823 1.245 . S
C816 O824 1.259 . S
C816 O825 1.257 . S
C817 O826 1.268 . S
C817 O827 1.253 1_554 S
C818 O828 1.281 . S
C818 O829 1.252 . S
C819 O830 1.272 . S
C819 O831 1.245 1_556 S
C820 O808 1.259 . S
C820 O809 1.257 . S
C821 O810 1.253 . S
C821 O811 1.268 . S
C822 O812 1.281 1_554 S
C822 O813 1.252 . S
C823 O814 1.272 . S
C823 O815 1.245 . S
O824 Co800 2.053 . S
O824 C816 1.259 . S
O825 Co802 2.047 . S
O825 C816 1.257 . S
O826 Co801 2.063 . S
O826 C817 1.268 . S
O827 Co800 2.094 1_556 S
O827 C817 1.253 1_556 S
O828 Co807 2.115 . S
O828 C818 1.281 . S
O829 Co807 2.315 . S
O829 C818 1.252 . S
O830 Co800 2.122 1_556 S
O830 C819 1.272 . S
O831 Co802 2.113 . S
O831 C819 1.245 1_554 S
Co832 H835 2.400 . S
Co832 O836 2.009 . S
Co832 O844 2.115 . S
Co832 O845 2.315 . S
Co832 O856 2.053 . S
Co832 O859 2.094 . S
Co832 O862 2.122 . S
Co833 O836 2.126 . S
Co833 H837 2.388 . S
Co833 O838 2.053 . S
Co833 O841 2.047 . S
Co833 O847 2.113 . S
Co833 O858 2.063 . S
Co834 H835 2.388 . S
Co834 O836 2.053 . S
Co834 O838 2.126 . S
Co834 O843 2.063 . S
Co834 O857 2.047 . S
Co834 O863 2.113 . S
H835 Co832 2.400 . S
H835 Co834 2.388 . S
H835 O836 0.760 . S
O836 Co832 2.009 . S
O836 Co833 2.126 . S
O836 Co834 2.053 . S
O836 H835 0.760 . S
H837 Co833 2.388 . S
H837 O838 0.760 . S
H837 Co839 2.400 . S
O838 Co833 2.053 . S
O838 Co834 2.126 . S
O838 H837 0.760 . S
O838 Co839 2.009 . S
Co839 H837 2.400 . S
Co839 O838 2.009 . S
Co839 O840 2.053 . S
Co839 O842 2.094 . S
Co839 O846 2.122 . S
Co839 O860 2.115 . S
Co839 O861 2.315 . S
O840 Co839 2.053 . S
O840 C852 1.259 . S
O841 Co833 2.047 . S
O841 C852 1.257 . S
O842 Co839 2.094 . S
O842 C853 1.253 . S
O843 Co834 2.063 . S
O843 C853 1.268 . S
O844 Co832 2.115 . S
O844 C854 1.281 . S
O845 Co832 2.315 . S
O845 C854 1.252 . S
O846 Co839 2.122 . S
O846 C855 1.272 . S
O847 Co833 2.113 . S
O847 C855 1.245 . S
C848 O856 1.259 . S
C848 O857 1.257 . S
C849 O858 1.268 . S
C849 O859 1.253 . S
C850 O860 1.281 . S
C850 O861 1.252 . S
C851 O862 1.272 . S
C851 O863 1.245 . S
C852 O840 1.259 . S
C852 O841 1.257 . S
C853 O842 1.253 . S
C853 O843 1.268 . S
C854 O844 1.281 . S
C854 O845 1.252 . S
C855 O846 1.272 . S
C855 O847 1.245 . S
O856 Co832 2.053 . S
O856 C848 1.259 . S
O857 Co834 2.047 . S
O857 C848 1.257 . S
O858 Co833 2.063 . S
O858 C849 1.268 . S
O859 Co832 2.094 . S
O859 C849 1.253 . S
O860 Co839 2.115 . S
O860 C850 1.281 . S
O861 Co839 2.315 . S
O861 C850 1.252 . S
O862 Co832 2.122 . S
O862 C851 1.272 . S
O863 Co834 2.113 . S
O863 C851 1.245 . S
Co864 H867 2.400 . S
Co864 O868 2.009 . S
Co864 O876 2.115 . S
Co864 O877 2.315 . S
Co864 O888 2.053 . S
Co864 O891 2.094 . S
Co864 O894 2.122 . S
Co865 O868 2.126 . S
Co865 H869 2.388 . S
Co865 O870 2.053 . S
Co865 O873 2.047 . S
Co865 O879 2.113 . S
Co865 O890 2.063 . S
Co866 H867 2.388 . S
Co866 O868 2.053 . S
Co866 O870 2.126 . S
Co866 O875 2.063 . S
Co866 O889 2.047 . S
Co866 O895 2.113 . S
H867 Co864 2.400 . S
H867 Co866 2.388 . S
H867 O868 0.760 . S
O868 Co864 2.009 . S
O868 Co865 2.126 . S
O868 Co866 2.053 . S
O868 H867 0.760 . S
H869 Co865 2.388 . S
H869 O870 0.760 . S
H869 Co871 2.400 . S
O870 Co865 2.053 . S
O870 Co866 2.126 . S
O870 H869 0.760 . S
O870 Co871 2.009 . S
Co871 H869 2.400 . S
Co871 O870 2.009 . S
Co871 O872 2.053 . S
Co871 O874 2.094 . S
Co871 O878 2.122 . S
Co871 O892 2.115 . S
Co871 O893 2.315 . S
O872 Co871 2.053 . S
O872 C884 1.259 . S
O873 Co865 2.047 . S
O873 C884 1.257 . S
O874 Co871 2.094 . S
O874 C885 1.253 . S
O875 Co866 2.063 . S
O875 C885 1.268 . S
O876 Co864 2.115 . S
O876 C886 1.281 . S
O877 Co864 2.315 . S
O877 C886 1.252 . S
O878 Co871 2.122 . S
O878 C887 1.272 . S
O879 Co865 2.113 . S
O879 C887 1.245 . S
C880 O888 1.259 . S
C880 O889 1.257 . S
C881 O890 1.268 . S
C881 O891 1.253 . S
C882 O892 1.281 . S
C882 O893 1.252 . S
C883 O894 1.272 . S
C883 O895 1.245 . S
C884 O872 1.259 . S
C884 O873 1.257 . S
C885 O874 1.253 . S
C885 O875 1.268 . S
C886 O876 1.281 . S
C886 O877 1.252 . S
C887 O878 1.272 . S
C887 O879 1.245 . S
O888 Co864 2.053 . S
O888 C880 1.259 . S
O889 Co866 2.047 . S
O889 C880 1.257 . S
O890 Co865 2.063 . S
O890 C881 1.268 . S
O891 Co864 2.094 . S
O891 C881 1.253 . S
O892 Co871 2.115 . S
O892 C882 1.281 . S
O893 Co871 2.315 . S
O893 C882 1.252 . S
O894 Co864 2.122 . S
O894 C883 1.272 . S
O895 Co866 2.113 . S
O895 C883 1.245 . S
Co896 H899 2.400 . S
Co896 O900 2.009 . S
Co896 O908 2.115 . S
Co896 O909 2.315 . S
Co896 O920 2.053 . S
Co896 O923 2.094 . S
Co896 O926 2.122 . S
Co897 O900 2.126 . S
Co897 H901 2.388 . S
Co897 O902 2.053 . S
Co897 O905 2.047 . S
Co897 O911 2.113 1_556 S
Co897 O922 2.063 . S
Co898 H899 2.388 . S
Co898 O900 2.053 . S
Co898 O902 2.126 . S
Co898 O907 2.063 . S
Co898 O921 2.047 1_556 S
Co898 O927 2.113 . S
H899 Co896 2.400 . S
H899 Co898 2.388 . S
H899 O900 0.760 . S
O900 Co896 2.009 . S
O900 Co897 2.126 . S
O900 Co898 2.053 . S
O900 H899 0.760 . S
H901 Co897 2.388 . S
H901 O902 0.760 . S
H901 Co903 2.400 . S
O902 Co897 2.053 . S
O902 Co898 2.126 . S
O902 H901 0.760 . S
O902 Co903 2.009 . S
Co903 H901 2.400 . S
Co903 O902 2.009 . S
Co903 O904 2.053 . S
Co903 O906 2.083 1_556 S
Co903 O910 2.122 1_556 S
Co903 O924 2.115 . S
Co903 O925 2.315 . S
O904 Co903 2.053 . S
O904 C916 1.259 . S
O905 Co897 2.047 . S
O905 C916 1.257 . S
O906 Co903 2.083 1_554 S
O906 C917 1.246 1_554 S
O907 Co898 2.063 . S
O907 C917 1.268 . S
O908 Co896 2.115 . S
O908 C918 1.281 . S
O909 Co896 2.315 . S
O909 C918 1.252 . S
O910 Co903 2.122 1_554 S
O910 C919 1.272 . S
O911 Co897 2.113 1_554 S
O911 C919 1.245 . S
C912 O920 1.259 . S
C912 O921 1.257 1_556 S
C913 O922 1.268 . S
C913 O923 1.253 . S
C914 O924 1.281 . S
C914 O925 1.252 . S
C915 O926 1.272 . S
C915 O927 1.245 . S
C916 O904 1.259 . S
C916 O905 1.257 . S
C917 O906 1.246 1_556 S
C917 O907 1.268 . S
C918 O908 1.281 . S
C918 O909 1.252 . S
C919 O910 1.272 . S
C919 O911 1.245 . S
O920 Co896 2.053 . S
O920 C912 1.259 . S
O921 Co898 2.047 1_554 S
O921 C912 1.257 1_554 S
O922 Co897 2.063 . S
O922 C913 1.268 . S
O923 Co896 2.094 . S
O923 C913 1.253 . S
O924 Co903 2.115 . S
O924 C914 1.281 . S
O925 Co903 2.315 . S
O925 C914 1.252 . S
O926 Co896 2.122 . S
O926 C915 1.272 . S
O927 Co898 2.113 . S
O927 C915 1.245 . S
Co928 H931 2.400 . S
Co928 O932 2.009 . S
Co928 O940 2.115 . S
Co928 O941 2.315 . S
Co928 O952 2.053 . S
Co928 O955 2.094 . S
Co928 O958 2.122 . S
Co929 O932 2.126 . S
Co929 H933 2.388 . S
Co929 O934 2.053 . S
Co929 O937 2.047 . S
Co929 O943 2.113 . S
Co929 O954 2.063 . S
Co930 H931 2.388 . S
Co930 O932 2.053 . S
Co930 O934 2.126 . S
Co930 O939 2.063 . S
Co930 O953 2.047 . S
Co930 O959 2.113 . S
H931 Co928 2.400 . S
H931 Co930 2.388 . S
H931 O932 0.760 . S
O932 Co928 2.009 . S
O932 Co929 2.126 . S
O932 Co930 2.053 . S
O932 H931 0.760 . S
H933 Co929 2.388 . S
H933 O934 0.760 . S
H933 Co935 2.400 . S
O934 Co929 2.053 . S
O934 Co930 2.126 . S
O934 H933 0.760 . S
O934 Co935 2.009 . S
Co935 H933 2.400 . S
Co935 O934 2.009 . S
Co935 O936 2.053 . S
Co935 O938 2.094 1_556 S
Co935 O942 2.122 1_556 S
Co935 O956 2.115 1_556 S
Co935 O957 2.315 . S
O936 Co935 2.053 . S
O936 C948 1.259 . S
O937 Co929 2.047 . S
O937 C948 1.257 . S
O938 Co935 2.094 1_554 S
O938 C949 1.253 1_554 S
O939 Co930 2.063 . S
O939 C949 1.268 . S
O940 Co928 2.115 . S
O940 C950 1.281 . S
O941 Co928 2.315 . S
O941 C950 1.252 . S
O942 Co935 2.122 1_554 S
O942 C951 1.272 . S
O943 Co929 2.113 . S
O943 C951 1.245 1_556 S
C944 O952 1.259 . S
C944 O953 1.257 . S
C945 O954 1.268 . S
C945 O955 1.253 . S
C946 O956 1.281 1_556 S
C946 O957 1.252 . S
C947 O958 1.272 . S
C947 O959 1.245 . S
C948 O936 1.259 . S
C948 O937 1.257 . S
C949 O938 1.253 1_556 S
C949 O939 1.268 . S
C950 O940 1.281 . S
C950 O941 1.252 . S
C951 O942 1.272 . S
C951 O943 1.245 1_554 S
O952 Co928 2.053 . S
O952 C944 1.259 . S
O953 Co930 2.047 . S
O953 C944 1.257 . S
O954 Co929 2.063 . S
O954 C945 1.268 . S
O955 Co928 2.094 . S
O955 C945 1.253 . S
O956 Co935 2.115 1_554 S
O956 C946 1.281 1_554 S
O957 Co935 2.315 . S
O957 C946 1.252 . S
O958 Co928 2.122 . S
O958 C947 1.272 . S
O959 Co930 2.113 . S
O959 C947 1.245 . S
Co960 H963 2.400 . S
Co960 O964 2.009 . S
Co960 O972 2.115 . S
Co960 O973 2.315 . S
Co960 O984 2.053 . S
Co960 O987 2.094 . S
Co960 O990 2.122 . S
Co961 O964 2.126 . S
Co961 H965 2.388 . S
Co961 O966 2.053 . S
Co961 O969 2.047 . S
Co961 O975 2.113 . S
Co961 O986 2.063 . S
Co962 H963 2.388 . S
Co962 O964 2.053 . S
Co962 O966 2.126 . S
Co962 O971 2.063 . S
Co962 O985 2.047 . S
Co962 O991 2.113 . S
H963 Co960 2.400 . S
H963 Co962 2.388 . S
H963 O964 0.760 . S
O964 Co960 2.009 . S
O964 Co961 2.126 . S
O964 Co962 2.053 . S
O964 H963 0.760 . S
H965 Co961 2.388 . S
H965 O966 0.760 . S
H965 Co967 2.400 . S
O966 Co961 2.053 . S
O966 Co962 2.126 . S
O966 H965 0.760 . S
O966 Co967 2.009 . S
Co967 H965 2.400 . S
Co967 O966 2.009 . S
Co967 O968 2.053 . S
Co967 O970 2.094 . S
Co967 O974 2.122 . S
Co967 O988 2.115 . S
Co967 O989 2.315 . S
O968 Co967 2.053 . S
O968 C980 1.259 . S
O969 Co961 2.047 . S
O969 C980 1.257 . S
O970 Co967 2.094 . S
O970 C981 1.253 . S
O971 Co962 2.063 . S
O971 C981 1.268 . S
O972 Co960 2.115 . S
O972 C982 1.281 . S
O973 Co960 2.315 . S
O973 C982 1.252 . S
O974 Co967 2.122 . S
O974 C983 1.272 . S
O975 Co961 2.113 . S
O975 C983 1.245 . S
C976 O984 1.259 . S
C976 O985 1.257 . S
C977 O986 1.268 . S
C977 O987 1.253 . S
C978 O988 1.281 . S
C978 O989 1.252 . S
C979 O990 1.272 . S
C979 O991 1.245 . S
C980 O968 1.259 . S
C980 O969 1.257 . S
C981 O970 1.253 . S
C981 O971 1.268 . S
C982 O972 1.281 . S
C982 O973 1.252 . S
C983 O974 1.272 . S
C983 O975 1.245 . S
O984 Co960 2.053 . S
O984 C976 1.259 . S
O985 Co962 2.047 . S
O985 C976 1.257 . S
O986 Co961 2.063 . S
O986 C977 1.268 . S
O987 Co960 2.094 . S
O987 C977 1.253 . S
O988 Co967 2.115 . S
O988 C978 1.281 . S
O989 Co967 2.315 . S
O989 C978 1.252 . S
O990 Co960 2.122 . S
O990 C979 1.272 . S
O991 Co962 2.113 . S
O991 C979 1.245 . S
Co992 H995 2.400 . S
Co992 O996 2.009 . S
Co992 O1004 2.115 . S
Co992 O1005 2.315 . S
Co992 O1016 2.053 . S
Co992 O1019 2.094 . S
Co992 O1022 2.122 . S
Co993 O996 2.126 . S
Co993 H997 2.388 . S
Co993 O998 2.053 . S
Co993 O1001 2.047 . S
Co993 O1007 2.113 . S
Co993 O1018 2.063 . S
Co994 H995 2.388 . S
Co994 O996 2.053 . S
Co994 O998 2.126 . S
Co994 O1003 2.063 . S
Co994 O1017 2.047 . S
Co994 O1023 2.113 . S
H995 Co992 2.400 . S
H995 Co994 2.388 . S
H995 O996 0.760 . S
O996 Co992 2.009 . S
O996 Co993 2.126 . S
O996 Co994 2.053 . S
O996 H995 0.760 . S
H997 Co993 2.388 . S
H997 O998 0.760 . S
H997 Co999 2.400 . S
O998 Co993 2.053 . S
O998 Co994 2.126 . S
O998 H997 0.760 . S
O998 Co999 2.009 . S
Co999 H997 2.400 . S
Co999 O998 2.009 . S
Co999 O1000 2.053 . S
Co999 O1002 2.094 . S
Co999 O1006 2.122 . S
Co999 O1020 2.115 . S
Co999 O1021 2.315 . S
O1000 Co999 2.053 . S
O1000 C1012 1.259 . S
O1001 Co993 2.047 . S
O1001 C1012 1.257 . S
O1002 Co999 2.094 . S
O1002 C1013 1.253 . S
O1003 Co994 2.063 . S
O1003 C1013 1.268 . S
O1004 Co992 2.115 . S
O1004 C1014 1.281 . S
O1005 Co992 2.315 . S
O1005 C1014 1.252 . S
O1006 Co999 2.122 . S
O1006 C1015 1.272 . S
O1007 Co993 2.113 . S
O1007 C1015 1.245 . S
C1008 O1016 1.259 . S
C1008 O1017 1.257 . S
C1009 O1018 1.268 . S
C1009 O1019 1.253 . S
C1010 O1020 1.281 . S
C1010 O1021 1.252 . S
C1011 O1022 1.272 . S
C1011 O1023 1.245 . S
C1012 O1000 1.259 . S
C1012 O1001 1.257 . S
C1013 O1002 1.253 . S
C1013 O1003 1.268 . S
C1014 O1004 1.281 . S
C1014 O1005 1.252 . S
C1015 O1006 1.272 . S
C1015 O1007 1.245 . S
O1016 Co992 2.053 . S
O1016 C1008 1.259 . S
O1017 Co994 2.047 . S
O1017 C1008 1.257 . S
O1018 Co993 2.063 . S
O1018 C1009 1.268 . S
O1019 Co992 2.094 . S
O1019 C1009 1.253 . S
O1020 Co999 2.115 . S
O1020 C1010 1.281 . S
O1021 Co999 2.315 . S
O1021 C1010 1.252 . S
O1022 Co992 2.122 . S
O1022 C1011 1.272 . S
O1023 Co994 2.113 . S
O1023 C1011 1.245 . S
H1024 C1030 0.930 . S
H1025 C1034 0.930 . S
H1026 C1039 0.929 . S
H1027 C1037 0.929 . S
H1028 C1032 0.929 . S
H1029 C1038 0.929 . S
C1030 H1024 0.930 . S
C1030 C1031 1.367 1_556 S
C1030 C1038 1.378 . S
C1031 C1030 1.367 1_554 S
C1031 C1039 1.433 . S
C1032 H1028 0.929 . S
C1032 C1034 1.378 . S
C1032 C1036 1.350 . S
C1033 C1036 1.460 . S
C1033 C1038 1.330 1_554 S
C1033 N1041 1.452 . S
C1034 H1025 0.930 . S
C1034 C1032 1.378 . S
C1034 C1035 1.367 . S
C1035 C1034 1.367 . S
C1035 C1037 1.433 1_554 S
C1036 C1032 1.350 . S
C1036 C1033 1.460 . S
C1036 N1040 1.427 1_554 S
C1037 H1027 0.929 . S
C1037 C1035 1.433 1_556 S
C1037 N1040 1.384 . S
C1038 H1029 0.929 . S
C1038 C1030 1.378 . S
C1038 C1033 1.330 1_556 S
C1039 H1026 0.929 . S
C1039 C1031 1.433 . S
C1039 N1041 1.384 . S
N1040 C1036 1.427 1_556 S
N1040 C1037 1.384 . S
N1041 C1033 1.452 . S
N1041 C1039 1.384 . S
H1042 C1048 0.930 . S
H1043 C1052 0.930 . S
H1044 C1057 0.929 . S
H1045 C1055 0.929 . S
H1046 C1050 0.929 . S
H1047 C1056 0.929 . S
C1048 H1042 0.930 . S
C1048 C1049 1.367 1_556 S
C1048 C1056 1.378 . S
C1049 C1048 1.367 1_554 S
C1049 C1057 1.433 . S
C1050 H1046 0.929 . S
C1050 C1052 1.378 . S
C1050 C1054 1.350 . S
C1051 C1054 1.460 . S
C1051 C1056 1.330 1_554 S
C1051 N1059 1.452 . S
C1052 H1043 0.930 . S
C1052 C1050 1.378 . S
C1052 C1053 1.367 . S
C1053 C1052 1.367 . S
C1053 C1055 1.433 1_554 S
C1054 C1050 1.350 . S
C1054 C1051 1.460 . S
C1054 N1058 1.427 1_554 S
C1055 H1045 0.929 . S
C1055 C1053 1.433 1_556 S
C1055 N1058 1.384 . S
C1056 H1047 0.929 . S
C1056 C1048 1.378 . S
C1056 C1051 1.330 1_556 S
C1057 H1044 0.929 . S
C1057 C1049 1.433 . S
C1057 N1059 1.384 . S
N1058 C1054 1.427 1_556 S
N1058 C1055 1.384 . S
N1059 C1051 1.452 . S
N1059 C1057 1.384 . S
H1060 C1066 0.930 . S
H1061 C1070 0.930 . S
H1062 C1075 0.929 . S
H1063 C1073 0.929 . S
H1064 C1068 0.929 . S
H1065 C1074 0.929 . S
C1066 H1060 0.930 . S
C1066 C1067 1.367 . S
C1066 C1074 1.378 . S
C1067 C1066 1.367 . S
C1067 C1075 1.433 . S
C1068 H1064 0.929 . S
C1068 C1070 1.378 . S
C1068 C1072 1.350 . S
C1069 C1072 1.463 . S
C1069 C1074 1.350 . S
C1069 N1077 1.427 . S
C1070 H1061 0.930 . S
C1070 C1068 1.378 . S
C1070 C1071 1.367 . S
C1071 C1070 1.367 . S
C1071 C1073 1.433 . S
C1072 C1068 1.350 . S
C1072 C1069 1.463 . S
C1072 N1076 1.427 . S
C1073 H1063 0.929 . S
C1073 C1071 1.433 . S
C1073 N1076 1.384 . S
C1074 H1065 0.929 . S
C1074 C1066 1.378 . S
C1074 C1069 1.350 . S
C1075 H1062 0.929 . S
C1075 C1067 1.433 . S
C1075 N1077 1.384 . S
N1076 C1072 1.427 . S
N1076 C1073 1.384 . S
N1077 C1069 1.427 . S
N1077 C1075 1.384 . S
H1078 C1084 0.930 . S
H1079 C1088 0.930 . S
H1080 C1093 0.929 . S
H1081 C1091 0.929 . S
H1082 C1086 0.929 . S
H1083 C1092 0.929 . S
C1084 H1078 0.930 . S
C1084 C1085 1.367 . S
C1084 C1092 1.378 . S
C1085 C1084 1.367 . S
C1085 C1093 1.433 . S
C1086 H1082 0.929 . S
C1086 C1088 1.378 . S
C1086 C1090 1.350 . S
C1087 C1090 1.463 . S
C1087 C1092 1.350 . S
C1087 N1095 1.427 . S
C1088 H1079 0.930 . S
C1088 C1086 1.378 . S
C1088 C1089 1.367 . S
C1089 C1088 1.367 . S
C1089 C1091 1.433 . S
C1090 C1086 1.350 . S
C1090 C1087 1.463 . S
C1090 N1094 1.427 . S
C1091 H1081 0.929 . S
C1091 C1089 1.433 . S
C1091 N1094 1.384 . S
C1092 H1083 0.929 . S
C1092 C1084 1.378 . S
C1092 C1087 1.350 . S
C1093 H1080 0.929 . S
C1093 C1085 1.433 . S
C1093 N1095 1.384 . S
N1094 C1090 1.427 . S
N1094 C1091 1.384 . S
N1095 C1087 1.427 . S
N1095 C1093 1.384 . S
H1096 C1102 0.930 . S
H1097 C1106 0.930 . S
H1098 C1111 0.929 . S
H1099 C1109 0.929 . S
H1100 C1104 0.929 . S
H1101 C1110 0.929 . S
C1102 H1096 0.930 . S
C1102 C1103 1.367 . S
C1102 C1110 1.378 . S
C1103 C1102 1.367 . S
C1103 C1111 1.433 1_556 S
C1104 H1100 0.929 . S
C1104 C1106 1.378 . S
C1104 C1108 1.350 1_554 S
C1105 C1108 1.463 . S
C1105 C1110 1.350 . S
C1105 N1113 1.427 1_556 S
C1106 H1097 0.930 . S
C1106 C1104 1.378 . S
C1106 C1107 1.362 1_554 S
C1107 C1106 1.362 1_556 S
C1107 C1109 1.444 . S
C1108 C1104 1.350 1_556 S
C1108 C1105 1.463 . S
C1108 N1112 1.427 . S
C1109 H1099 0.929 . S
C1109 C1107 1.444 . S
C1109 N1112 1.384 . S
C1110 H1101 0.929 . S
C1110 C1102 1.378 . S
C1110 C1105 1.350 . S
C1111 H1098 0.929 . S
C1111 C1103 1.433 1_554 S
C1111 N1113 1.384 . S
N1112 C1108 1.427 . S
N1112 C1109 1.384 . S
N1113 C1105 1.427 1_554 S
N1113 C1111 1.384 . S
H1114 C1120 0.930 . S
H1115 C1124 0.930 . S
H1116 C1129 0.929 . S
H1117 C1127 0.929 . S
H1118 C1122 0.929 . S
H1119 C1128 0.929 . S
C1120 H1114 0.930 . S
C1120 C1121 1.367 . S
C1120 C1128 1.378 . S
C1121 C1120 1.367 . S
C1121 C1129 1.433 1_556 S
C1122 H1118 0.929 . S
C1122 C1124 1.378 . S
C1122 C1126 1.334 1_554 S
C1123 C1126 1.466 . S
C1123 C1128 1.350 . S
C1123 N1131 1.427 1_556 S
C1124 H1115 0.930 . S
C1124 C1122 1.378 . S
C1124 C1125 1.355 1_554 S
C1125 C1124 1.355 1_556 S
C1125 C1127 1.447 . S
C1126 C1122 1.334 1_556 S
C1126 C1123 1.466 . S
C1126 N1130 1.441 . S
C1127 H1117 0.929 . S
C1127 C1125 1.447 . S
C1127 N1130 1.384 . S
C1128 H1119 0.929 . S
C1128 C1120 1.378 . S
C1128 C1123 1.350 . S
C1129 H1116 0.929 . S
C1129 C1121 1.433 1_554 S
C1129 N1131 1.384 . S
N1130 C1126 1.441 . S
N1130 C1127 1.384 . S
N1131 C1123 1.427 1_554 S
N1131 C1129 1.384 . S
H1132 C1138 0.930 . S
H1133 C1142 0.930 . S
H1134 C1147 0.929 . S
H1135 C1145 0.929 . S
H1136 C1140 0.929 . S
H1137 C1146 0.929 . S
C1138 H1132 0.930 . S
C1138 C1139 1.367 . S
C1138 C1146 1.378 . S
C1139 C1138 1.367 . S
C1139 C1147 1.433 . S
C1140 H1136 0.929 . S
C1140 C1142 1.378 . S
C1140 C1144 1.350 . S
C1141 C1144 1.463 . S
C1141 C1146 1.350 . S
C1141 N1149 1.427 . S
C1142 H1133 0.930 . S
C1142 C1140 1.378 . S
C1142 C1143 1.367 . S
C1143 C1142 1.367 . S
C1143 C1145 1.433 . S
C1144 C1140 1.350 . S
C1144 C1141 1.463 . S
C1144 N1148 1.427 . S
C1145 H1135 0.929 . S
C1145 C1143 1.433 . S
C1145 N1148 1.384 . S
C1146 H1137 0.929 . S
C1146 C1138 1.378 . S
C1146 C1141 1.350 . S
C1147 H1134 0.929 . S
C1147 C1139 1.433 . S
C1147 N1149 1.384 . S
N1148 C1144 1.427 . S
N1148 C1145 1.384 . S
N1149 C1141 1.427 . S
N1149 C1147 1.384 . S
H1150 C1156 0.930 . S
H1151 C1160 0.930 . S
H1152 C1165 0.929 . S
H1153 C1163 0.929 . S
H1154 C1158 0.929 . S
H1155 C1164 0.929 . S
C1156 H1150 0.930 . S
C1156 C1157 1.367 . S
C1156 C1164 1.378 . S
C1157 C1156 1.367 . S
C1157 C1165 1.433 . S
C1158 H1154 0.929 . S
C1158 C1160 1.378 . S
C1158 C1162 1.350 . S
C1159 C1162 1.463 . S
C1159 C1164 1.350 . S
C1159 N1167 1.427 . S
C1160 H1151 0.930 . S
C1160 C1158 1.378 . S
C1160 C1161 1.367 . S
C1161 C1160 1.367 . S
C1161 C1163 1.433 . S
C1162 C1158 1.350 . S
C1162 C1159 1.463 . S
C1162 N1166 1.427 . S
C1163 H1153 0.929 . S
C1163 C1161 1.433 . S
C1163 N1166 1.384 . S
C1164 H1155 0.929 . S
C1164 C1156 1.378 . S
C1164 C1159 1.350 . S
C1165 H1152 0.929 . S
C1165 C1157 1.433 . S
C1165 N1167 1.384 . S
N1166 C1162 1.427 . S
N1166 C1163 1.384 . S
N1167 C1159 1.427 . S
N1167 C1165 1.384 . S
H1168 C1174 0.930 . S
H1169 C1178 0.930 . S
H1170 C1183 0.929 . S
H1171 C1181 0.929 . S
H1172 C1176 0.929 . S
H1173 C1182 0.929 . S
C1174 H1168 0.930 . S
C1174 C1175 1.367 . S
C1174 C1182 1.378 . S
C1175 C1174 1.367 . S
C1175 C1183 1.433 . S
C1176 H1172 0.929 . S
C1176 C1178 1.378 . S
C1176 C1180 1.350 . S
C1177 C1180 1.463 . S
C1177 C1182 1.350 . S
C1177 N1185 1.427 . S
C1178 H1169 0.930 . S
C1178 C1176 1.378 . S
C1178 C1179 1.367 . S
C1179 C1178 1.367 . S
C1179 C1181 1.433 . S
C1180 C1176 1.350 . S
C1180 C1177 1.463 . S
C1180 N1184 1.427 . S
C1181 H1171 0.929 . S
C1181 C1179 1.433 . S
C1181 N1184 1.384 . S
C1182 H1173 0.929 . S
C1182 C1174 1.378 . S
C1182 C1177 1.350 . S
C1183 H1170 0.929 . S
C1183 C1175 1.433 . S
C1183 N1185 1.384 . S
N1184 C1180 1.427 . S
N1184 C1181 1.384 . S
N1185 C1177 1.427 . S
N1185 C1183 1.384 . S
H1186 C1192 0.930 . S
H1187 C1196 0.930 . S
H1188 C1201 0.929 . S
H1189 C1199 0.929 . S
H1190 C1194 0.929 . S
H1191 C1200 0.929 . S
C1192 H1186 0.930 . S
C1192 C1193 1.367 . S
C1192 C1200 1.378 . S
C1193 C1192 1.367 . S
C1193 C1201 1.433 . S
C1194 H1190 0.929 . S
C1194 C1196 1.378 . S
C1194 C1198 1.350 . S
C1195 C1198 1.463 . S
C1195 C1200 1.350 . S
C1195 N1203 1.427 . S
C1196 H1187 0.930 . S
C1196 C1194 1.378 . S
C1196 C1197 1.367 . S
C1197 C1196 1.367 . S
C1197 C1199 1.433 . S
C1198 C1194 1.350 . S
C1198 C1195 1.463 . S
C1198 N1202 1.427 . S
C1199 H1189 0.929 . S
C1199 C1197 1.433 . S
C1199 N1202 1.384 . S
C1200 H1191 0.929 . S
C1200 C1192 1.378 . S
C1200 C1195 1.350 . S
C1201 H1188 0.929 . S
C1201 C1193 1.433 . S
C1201 N1203 1.384 . S
N1202 C1198 1.427 . S
N1202 C1199 1.384 . S
N1203 C1195 1.427 . S
N1203 C1201 1.384 . S
H1204 C1210 0.930 . S
H1205 C1214 0.930 . S
H1206 C1219 0.929 . S
H1207 C1217 0.929 . S
H1208 C1212 0.929 . S
H1209 C1218 0.929 . S
C1210 H1204 0.930 . S
C1210 C1211 1.367 . S
C1210 C1218 1.378 . S
C1211 C1210 1.367 . S
C1211 C1219 1.433 . S
C1212 H1208 0.929 . S
C1212 C1214 1.378 . S
C1212 C1216 1.350 . S
C1213 C1216 1.463 . S
C1213 C1218 1.350 . S
C1213 N1221 1.427 . S
C1214 H1205 0.930 . S
C1214 C1212 1.378 . S
C1214 C1215 1.367 . S
C1215 C1214 1.367 . S
C1215 C1217 1.433 . S
C1216 C1212 1.350 . S
C1216 C1213 1.463 . S
C1216 N1220 1.427 . S
C1217 H1207 0.929 . S
C1217 C1215 1.433 . S
C1217 N1220 1.384 . S
C1218 H1209 0.929 . S
C1218 C1210 1.378 . S
C1218 C1213 1.350 . S
C1219 H1206 0.929 . S
C1219 C1211 1.433 . S
C1219 N1221 1.384 . S
N1220 C1216 1.427 . S
N1220 C1217 1.384 . S
N1221 C1213 1.427 . S
N1221 C1219 1.384 . S
H1222 C1228 0.930 . S
H1223 C1232 0.930 . S
H1224 C1237 0.929 . S
H1225 C1235 0.929 . S
H1226 C1230 0.929 . S
H1227 C1236 0.929 . S
C1228 H1222 0.930 . S
C1228 C1229 1.367 . S
C1228 C1236 1.378 . S
C1229 C1228 1.367 . S
C1229 C1237 1.433 . S
C1230 H1226 0.929 . S
C1230 C1232 1.378 . S
C1230 C1234 1.350 . S
C1231 C1234 1.463 . S
C1231 C1236 1.350 . S
C1231 N1239 1.427 . S
C1232 H1223 0.930 . S
C1232 C1230 1.378 . S
C1232 C1233 1.367 . S
C1233 C1232 1.367 . S
C1233 C1235 1.433 . S
C1234 C1230 1.350 . S
C1234 C1231 1.463 . S
C1234 N1238 1.427 . S
C1235 H1225 0.929 . S
C1235 C1233 1.433 . S
C1235 N1238 1.384 . S
C1236 H1227 0.929 . S
C1236 C1228 1.378 . S
C1236 C1231 1.350 . S
C1237 H1224 0.929 . S
C1237 C1229 1.433 . S
C1237 N1239 1.384 . S
N1238 C1234 1.427 . S
N1238 C1235 1.384 . S
N1239 C1231 1.427 . S
N1239 C1237 1.384 . S
H1240 C1246 0.930 . S
H1241 C1250 0.930 . S
H1242 C1255 0.929 . S
H1243 C1253 0.929 . S
H1244 C1248 0.929 . S
H1245 C1254 0.929 . S
C1246 H1240 0.930 . S
C1246 C1247 1.367 . S
C1246 C1254 1.378 . S
C1247 C1246 1.367 . S
C1247 C1255 1.433 . S
C1248 H1244 0.929 . S
C1248 C1250 1.378 . S
C1248 C1252 1.350 . S
C1249 C1252 1.463 . S
C1249 C1254 1.350 . S
C1249 N1257 1.427 . S
C1250 H1241 0.930 . S
C1250 C1248 1.378 . S
C1250 C1251 1.367 . S
C1251 C1250 1.367 . S
C1251 C1253 1.433 . S
C1252 C1248 1.350 . S
C1252 C1249 1.463 . S
C1252 N1256 1.427 . S
C1253 H1243 0.929 . S
C1253 C1251 1.433 . S
C1253 N1256 1.384 . S
C1254 H1245 0.929 . S
C1254 C1246 1.378 . S
C1254 C1249 1.350 . S
C1255 H1242 0.929 . S
C1255 C1247 1.433 . S
C1255 N1257 1.384 . S
N1256 C1252 1.427 . S
N1256 C1253 1.384 . S
N1257 C1249 1.427 . S
N1257 C1255 1.384 . S
H1258 C1264 0.930 . S
H1259 C1268 0.930 . S
H1260 C1273 0.929 . S
H1261 C1271 0.929 . S
H1262 C1266 0.929 . S
H1263 C1272 0.929 . S
C1264 H1258 0.930 . S
C1264 C1265 1.367 . S
C1264 C1272 1.378 . S
C1265 C1264 1.367 . S
C1265 C1273 1.433 . S
C1266 H1262 0.929 . S
C1266 C1268 1.378 . S
C1266 C1270 1.350 . S
C1267 C1270 1.463 . S
C1267 C1272 1.350 . S
C1267 N1275 1.427 . S
C1268 H1259 0.930 . S
C1268 C1266 1.378 . S
C1268 C1269 1.367 . S
C1269 C1268 1.367 . S
C1269 C1271 1.433 . S
C1270 C1266 1.350 . S
C1270 C1267 1.463 . S
C1270 N1274 1.427 . S
C1271 H1261 0.929 . S
C1271 C1269 1.433 . S
C1271 N1274 1.384 . S
C1272 H1263 0.929 . S
C1272 C1264 1.378 . S
C1272 C1267 1.350 . S
C1273 H1260 0.929 . S
C1273 C1265 1.433 . S
C1273 N1275 1.384 . S
N1274 C1270 1.427 . S
N1274 C1271 1.384 . S
N1275 C1267 1.427 . S
N1275 C1273 1.384 . S
H1276 C1282 0.930 . S
H1277 C1286 0.930 . S
H1278 C1291 0.929 . S
H1279 C1289 0.929 . S
H1280 C1284 0.929 . S
H1281 C1290 0.929 . S
C1282 H1276 0.930 . S
C1282 C1283 1.367 . S
C1282 C1290 1.378 . S
C1283 C1282 1.367 . S
C1283 C1291 1.433 . S
C1284 H1280 0.929 . S
C1284 C1286 1.378 . S
C1284 C1288 1.350 . S
C1285 C1288 1.463 . S
C1285 C1290 1.350 . S
C1285 N1293 1.427 . S
C1286 H1277 0.930 . S
C1286 C1284 1.378 . S
C1286 C1287 1.367 . S
C1287 C1286 1.367 . S
C1287 C1289 1.433 . S
C1288 C1284 1.350 . S
C1288 C1285 1.463 . S
C1288 N1292 1.427 . S
C1289 H1279 0.929 . S
C1289 C1287 1.433 . S
C1289 N1292 1.384 . S
C1290 H1281 0.929 . S
C1290 C1282 1.378 . S
C1290 C1285 1.350 . S
C1291 H1278 0.929 . S
C1291 C1283 1.433 . S
C1291 N1293 1.384 . S
N1292 C1288 1.427 . S
N1292 C1289 1.384 . S
N1293 C1285 1.427 . S
N1293 C1291 1.384 . S
H1294 C1300 0.930 . S
H1295 C1304 0.930 . S
H1296 C1309 0.929 . S
H1297 C1307 0.929 . S
H1298 C1302 0.929 . S
H1299 C1308 0.929 . S
C1300 H1294 0.930 . S
C1300 C1301 1.367 . S
C1300 C1308 1.378 . S
C1301 C1300 1.367 . S
C1301 C1309 1.433 . S
C1302 H1298 0.929 . S
C1302 C1304 1.378 . S
C1302 C1306 1.350 . S
C1303 C1306 1.463 . S
C1303 C1308 1.350 . S
C1303 N1311 1.427 . S
C1304 H1295 0.930 . S
C1304 C1302 1.378 . S
C1304 C1305 1.367 . S
C1305 C1304 1.367 . S
C1305 C1307 1.433 . S
C1306 C1302 1.350 . S
C1306 C1303 1.463 . S
C1306 N1310 1.427 . S
C1307 H1297 0.929 . S
C1307 C1305 1.433 . S
C1307 N1310 1.384 . S
C1308 H1299 0.929 . S
C1308 C1300 1.378 . S
C1308 C1303 1.350 . S
C1309 H1296 0.929 . S
C1309 C1301 1.433 . S
C1309 N1311 1.384 . S
N1310 C1306 1.427 . S
N1310 C1307 1.384 . S
N1311 C1303 1.427 . S
N1311 C1309 1.384 . S
H1312 C1318 0.930 . S
H1313 C1322 0.930 . S
H1314 C1327 0.929 1_554 S
H1315 C1325 0.929 . S
H1316 C1320 0.929 . S
H1317 C1326 0.929 . S
C1318 H1312 0.930 . S
C1318 C1319 1.367 . S
C1318 C1326 1.378 . S
C1319 C1318 1.367 . S
C1319 C1327 1.433 . S
C1320 H1316 0.929 . S
C1320 C1322 1.378 . S
C1320 C1324 1.350 1_554 S
C1321 C1324 1.463 . S
C1321 C1326 1.350 . S
C1321 N1329 1.429 1_556 S
C1322 H1313 0.930 . S
C1322 C1320 1.378 . S
C1322 C1323 1.367 . S
C1323 C1322 1.367 . S
C1323 C1325 1.433 1_554 S
C1324 C1320 1.350 1_556 S
C1324 C1321 1.463 . S
C1324 N1328 1.427 . S
C1325 H1315 0.929 . S
C1325 C1323 1.433 1_556 S
C1325 N1328 1.384 . S
C1326 H1317 0.929 . S
C1326 C1318 1.378 . S
C1326 C1321 1.350 . S
C1327 H1314 0.929 1_556 S
C1327 C1319 1.433 . S
C1327 N1329 1.385 1_556 S
N1328 C1324 1.427 . S
N1328 C1325 1.384 . S
N1329 C1321 1.429 1_554 S
N1329 C1327 1.385 1_554 S
H1330 C1336 0.930 . S
H1331 C1340 0.930 . S
H1332 C1345 0.929 . S
H1333 C1343 0.929 . S
H1334 C1338 0.929 . S
H1335 C1344 0.957 . S
C1336 H1330 0.930 . S
C1336 C1337 1.367 . S
C1336 C1344 1.367 1_554 S
C1337 C1336 1.367 . S
C1337 C1345 1.433 . S
C1338 H1334 0.929 . S
C1338 C1340 1.378 . S
C1338 C1342 1.350 . S
C1339 C1342 1.463 . S
C1339 C1344 1.333 1_554 S
C1339 N1347 1.427 . S
C1340 H1331 0.930 . S
C1340 C1338 1.378 . S
C1340 C1341 1.367 1_554 S
C1341 C1340 1.367 1_556 S
C1341 C1343 1.433 . S
C1342 C1338 1.350 . S
C1342 C1339 1.463 . S
C1342 N1346 1.427 1_554 S
C1343 H1333 0.929 . S
C1343 C1341 1.433 . S
C1343 N1346 1.384 . S
C1344 H1335 0.957 . S
C1344 C1336 1.367 1_556 S
C1344 C1339 1.333 1_556 S
C1345 H1332 0.929 . S
C1345 C1337 1.433 . S
C1345 N1347 1.384 . S
N1346 C1342 1.427 1_556 S
N1346 C1343 1.384 . S
N1347 C1339 1.427 . S
N1347 C1345 1.384 . S
H1348 C1354 0.930 . S
H1349 C1358 0.930 . S
H1350 C1363 0.929 . S
H1351 C1361 0.929 . S
H1352 C1356 0.929 . S
H1353 C1362 0.929 . S
C1354 H1348 0.930 . S
C1354 C1355 1.367 . S
C1354 C1362 1.378 . S
C1355 C1354 1.367 . S
C1355 C1363 1.433 . S
C1356 H1352 0.929 . S
C1356 C1358 1.378 . S
C1356 C1360 1.350 . S
C1357 C1360 1.463 . S
C1357 C1362 1.350 . S
C1357 N1365 1.427 . S
C1358 H1349 0.930 . S
C1358 C1356 1.378 . S
C1358 C1359 1.367 . S
C1359 C1358 1.367 . S
C1359 C1361 1.433 . S
C1360 C1356 1.350 . S
C1360 C1357 1.463 . S
C1360 N1364 1.427 . S
C1361 H1351 0.929 . S
C1361 C1359 1.433 . S
C1361 N1364 1.384 . S
C1362 H1353 0.929 . S
C1362 C1354 1.378 . S
C1362 C1357 1.350 . S
C1363 H1350 0.929 . S
C1363 C1355 1.433 . S
C1363 N1365 1.384 . S
N1364 C1360 1.427 . S
N1364 C1361 1.384 . S
N1365 C1357 1.427 . S
N1365 C1363 1.384 . S
H1366 C1372 0.930 . S
H1367 C1376 0.930 . S
H1368 C1381 0.929 . S
H1369 C1379 0.929 . S
H1370 C1374 0.929 . S
H1371 C1380 0.929 . S
C1372 H1366 0.930 . S
C1372 C1373 1.367 . S
C1372 C1380 1.378 . S
C1373 C1372 1.367 . S
C1373 C1381 1.433 . S
C1374 H1370 0.929 . S
C1374 C1376 1.378 . S
C1374 C1378 1.350 . S
C1375 C1378 1.463 . S
C1375 C1380 1.350 . S
C1375 N1383 1.427 . S
C1376 H1367 0.930 . S
C1376 C1374 1.378 . S
C1376 C1377 1.367 . S
C1377 C1376 1.367 . S
C1377 C1379 1.433 . S
C1378 C1374 1.350 . S
C1378 C1375 1.463 . S
C1378 N1382 1.427 . S
C1379 H1369 0.929 . S
C1379 C1377 1.433 . S
C1379 N1382 1.384 . S
C1380 H1371 0.929 . S
C1380 C1372 1.378 . S
C1380 C1375 1.350 . S
C1381 H1368 0.929 . S
C1381 C1373 1.433 . S
C1381 N1383 1.384 . S
N1382 C1378 1.427 . S
N1382 C1379 1.384 . S
N1383 C1375 1.427 . S
N1383 C1381 1.384 . S
H1384 C1390 0.930 . S
H1385 C1394 0.930 . S
H1386 C1399 0.929 1_556 S
H1387 C1397 0.929 . S
H1388 C1392 0.929 . S
H1389 C1398 0.929 . S
C1390 H1384 0.930 . S
C1390 C1391 1.367 . S
C1390 C1398 1.378 . S
C1391 C1390 1.367 . S
C1391 C1399 1.433 . S
C1392 H1388 0.929 . S
C1392 C1394 1.378 . S
C1392 C1396 1.350 1_556 S
C1393 C1396 1.463 . S
C1393 C1398 1.350 . S
C1393 N1401 1.427 1_554 S
C1394 H1385 0.930 . S
C1394 C1392 1.378 . S
C1394 C1395 1.367 . S
C1395 C1394 1.367 . S
C1395 C1397 1.433 1_556 S
C1396 C1392 1.350 1_554 S
C1396 C1393 1.463 . S
C1396 N1400 1.427 . S
C1397 H1387 0.929 . S
C1397 C1395 1.433 1_554 S
C1397 N1400 1.384 . S
C1398 H1389 0.929 . S
C1398 C1390 1.378 . S
C1398 C1393 1.350 . S
C1399 H1386 0.929 1_554 S
C1399 C1391 1.433 . S
C1399 N1401 1.384 1_554 S
N1400 C1396 1.427 . S
N1400 C1397 1.384 . S
N1401 C1393 1.427 1_556 S
N1401 C1399 1.384 1_556 S
H1402 C1408 0.930 . S
H1403 C1412 0.930 . S
H1404 C1417 0.925 1_556 S
H1405 C1415 0.929 . S
H1406 C1410 0.929 . S
H1407 C1416 0.929 . S
C1408 H1402 0.930 . S
C1408 C1409 1.367 . S
C1408 C1416 1.378 . S
C1409 C1408 1.367 . S
C1409 C1417 1.433 . S
C1410 H1406 0.929 . S
C1410 C1412 1.378 . S
C1410 C1414 1.350 . S
C1411 C1414 1.463 1_554 S
C1411 C1416 1.349 . S
C1411 N1419 1.428 1_554 S
C1412 H1403 0.930 . S
C1412 C1410 1.378 . S
C1412 C1413 1.367 . S
C1413 C1412 1.367 . S
C1413 C1415 1.433 . S
C1414 C1410 1.350 . S
C1414 C1411 1.463 1_556 S
C1414 N1418 1.427 . S
C1415 H1405 0.929 . S
C1415 C1413 1.433 . S
C1415 N1418 1.384 . S
C1416 H1407 0.929 . S
C1416 C1408 1.378 . S
C1416 C1411 1.349 . S
C1417 H1404 0.925 1_554 S
C1417 C1409 1.433 . S
C1417 N1419 1.384 1_554 S
N1418 C1414 1.427 . S
N1418 C1415 1.384 . S
N1419 C1411 1.428 1_556 S
N1419 C1417 1.384 1_556 S
H1420 C1426 0.930 . S
H1421 C1430 0.930 . S
H1422 C1435 0.929 . S
H1423 C1433 0.929 . S
H1424 C1428 0.929 . S
H1425 C1434 0.929 . S
C1426 H1420 0.930 . S
C1426 C1427 1.367 . S
C1426 C1434 1.378 . S
C1427 C1426 1.367 . S
C1427 C1435 1.433 . S
C1428 H1424 0.929 . S
C1428 C1430 1.378 . S
C1428 C1432 1.350 . S
C1429 C1432 1.463 . S
C1429 C1434 1.350 . S
C1429 N1437 1.427 . S
C1430 H1421 0.930 . S
C1430 C1428 1.378 . S
C1430 C1431 1.367 . S
C1431 C1430 1.367 . S
C1431 C1433 1.433 . S
C1432 C1428 1.350 . S
C1432 C1429 1.463 . S
C1432 N1436 1.427 . S
C1433 H1423 0.929 . S
C1433 C1431 1.433 . S
C1433 N1436 1.384 . S
C1434 H1425 0.929 . S
C1434 C1426 1.378 . S
C1434 C1429 1.350 . S
C1435 H1422 0.929 . S
C1435 C1427 1.433 . S
C1435 N1437 1.384 . S
N1436 C1432 1.427 . S
N1436 C1433 1.384 . S
N1437 C1429 1.427 . S
N1437 C1435 1.384 . S
H1438 C1444 0.930 . S
H1439 C1448 0.930 . S
H1440 C1453 0.929 . S
H1441 C1451 0.929 . S
H1442 C1446 0.929 . S
H1443 C1452 0.929 . S
C1444 H1438 0.930 . S
C1444 C1445 1.367 . S
C1444 C1452 1.378 . S
C1445 C1444 1.367 . S
C1445 C1453 1.433 . S
C1446 H1442 0.929 . S
C1446 C1448 1.378 . S
C1446 C1450 1.350 . S
C1447 C1450 1.463 . S
C1447 C1452 1.350 . S
C1447 N1455 1.427 . S
C1448 H1439 0.930 . S
C1448 C1446 1.378 . S
C1448 C1449 1.367 . S
C1449 C1448 1.367 . S
C1449 C1451 1.433 . S
C1450 C1446 1.350 . S
C1450 C1447 1.463 . S
C1450 N1454 1.427 . S
C1451 H1441 0.929 . S
C1451 C1449 1.433 . S
C1451 N1454 1.384 . S
C1452 H1443 0.929 . S
C1452 C1444 1.378 . S
C1452 C1447 1.350 . S
C1453 H1440 0.929 . S
C1453 C1445 1.433 . S
C1453 N1455 1.384 . S
N1454 C1450 1.427 . S
N1454 C1451 1.384 . S
N1455 C1447 1.427 . S
N1455 C1453 1.384 . S
H1456 C1462 0.930 1_545 S
H1457 C1466 0.930 . S
H1458 C1471 0.929 . S
H1459 C1469 0.929 . S
H1460 C1464 0.929 . S
H1461 C1470 0.929 . S
C1462 H1456 0.930 1_565 S
C1462 C1463 1.367 . S
C1462 C1470 1.378 . S
C1463 C1462 1.367 . S
C1463 C1471 1.433 . S
C1464 H1460 0.929 . S
C1464 C1466 1.378 . S
C1464 C1468 1.350 . S
C1465 C1468 1.463 . S
C1465 C1470 1.350 . S
C1465 N1473 1.427 . S
C1466 H1457 0.930 . S
C1466 C1464 1.378 . S
C1466 C1467 1.367 . S
C1467 C1466 1.367 . S
C1467 C1469 1.433 . S
C1468 C1464 1.350 . S
C1468 C1465 1.463 . S
C1468 N1472 1.427 . S
C1469 H1459 0.929 . S
C1469 C1467 1.433 . S
C1469 N1472 1.384 . S
C1470 H1461 0.929 . S
C1470 C1462 1.378 . S
C1470 C1465 1.350 . S
C1471 H1458 0.929 . S
C1471 C1463 1.433 . S
C1471 N1473 1.384 . S
N1472 C1468 1.427 . S
N1472 C1469 1.384 . S
N1473 C1465 1.427 . S
N1473 C1471 1.384 . S
H1474 C1480 0.930 . S
H1475 C1484 0.930 . S
H1476 C1489 0.929 . S
H1477 C1487 0.929 . S
H1478 C1482 0.929 . S
H1479 C1488 0.929 . S
C1480 H1474 0.930 . S
C1480 C1481 1.367 . S
C1480 C1488 1.378 . S
C1481 C1480 1.367 . S
C1481 C1489 1.433 . S
C1482 H1478 0.929 . S
C1482 C1484 1.378 . S
C1482 C1486 1.350 . S
C1483 C1486 1.463 . S
C1483 C1488 1.350 . S
C1483 N1491 1.427 . S
C1484 H1475 0.930 . S
C1484 C1482 1.378 . S
C1484 C1485 1.367 . S
C1485 C1484 1.367 . S
C1485 C1487 1.433 . S
C1486 C1482 1.350 . S
C1486 C1483 1.463 . S
C1486 N1490 1.427 . S
C1487 H1477 0.929 . S
C1487 C1485 1.433 . S
C1487 N1490 1.384 . S
C1488 H1479 0.929 . S
C1488 C1480 1.378 . S
C1488 C1483 1.350 . S
C1489 H1476 0.929 . S
C1489 C1481 1.433 . S
C1489 N1491 1.384 . S
N1490 C1486 1.427 . S
N1490 C1487 1.384 . S
N1491 C1483 1.427 . S
N1491 C1489 1.384 . S
H1492 C1498 0.930 . S
H1493 C1502 0.930 . S
H1494 C1507 0.929 . S
H1495 C1505 0.929 . S
H1496 C1500 0.929 . S
H1497 C1506 0.929 . S
C1498 H1492 0.930 . S
C1498 C1499 1.367 . S
C1498 C1506 1.378 . S
C1499 C1498 1.367 . S
C1499 C1507 1.433 . S
C1500 H1496 0.929 . S
C1500 C1502 1.378 . S
C1500 C1504 1.350 . S
C1501 C1504 1.463 . S
C1501 C1506 1.350 . S
C1501 N1509 1.427 . S
C1502 H1493 0.930 . S
C1502 C1500 1.378 . S
C1502 C1503 1.367 . S
C1503 C1502 1.367 . S
C1503 C1505 1.433 . S
C1504 C1500 1.350 . S
C1504 C1501 1.463 . S
C1504 N1508 1.427 . S
C1505 H1495 0.929 . S
C1505 C1503 1.433 . S
C1505 N1508 1.384 . S
C1506 H1497 0.929 . S
C1506 C1498 1.378 . S
C1506 C1501 1.350 . S
C1507 H1494 0.929 . S
C1507 C1499 1.433 . S
C1507 N1509 1.384 . S
N1508 C1504 1.427 . S
N1508 C1505 1.384 . S
N1509 C1501 1.427 . S
N1509 C1507 1.384 . S
H1510 C1516 0.930 1_545 S
H1511 C1520 0.930 . S
H1512 C1525 0.929 . S
H1513 C1523 0.929 . S
H1514 C1518 0.929 . S
H1515 C1524 0.929 . S
C1516 H1510 0.930 1_565 S
C1516 C1517 1.367 . S
C1516 C1524 1.378 . S
C1517 C1516 1.367 . S
C1517 C1525 1.433 . S
C1518 H1514 0.929 . S
C1518 C1520 1.378 . S
C1518 C1522 1.350 . S
C1519 C1522 1.463 . S
C1519 C1524 1.350 . S
C1519 N1527 1.427 . S
C1520 H1511 0.930 . S
C1520 C1518 1.378 . S
C1520 C1521 1.367 . S
C1521 C1520 1.367 . S
C1521 C1523 1.433 . S
C1522 C1518 1.350 . S
C1522 C1519 1.463 . S
C1522 N1526 1.427 . S
C1523 H1513 0.929 . S
C1523 C1521 1.433 . S
C1523 N1526 1.384 . S
C1524 H1515 0.929 . S
C1524 C1516 1.378 . S
C1524 C1519 1.350 . S
C1525 H1512 0.929 . S
C1525 C1517 1.433 . S
C1525 N1527 1.384 . S
N1526 C1522 1.427 . S
N1526 C1523 1.384 . S
N1527 C1519 1.427 . S
N1527 C1525 1.384 . S
H1528 C1534 0.930 . S
H1529 C1538 0.930 . S
H1530 C1543 0.929 . S
H1531 C1541 0.929 . S
H1532 C1536 0.929 . S
H1533 C1542 0.929 . S
C1534 H1528 0.930 . S
C1534 C1535 1.367 . S
C1534 C1542 1.378 . S
C1535 C1534 1.367 . S
C1535 C1543 1.433 . S
C1536 H1532 0.929 . S
C1536 C1538 1.378 . S
C1536 C1540 1.350 . S
C1537 C1540 1.463 . S
C1537 C1542 1.350 . S
C1537 N1545 1.427 . S
C1538 H1529 0.930 . S
C1538 C1536 1.378 . S
C1538 C1539 1.367 . S
C1539 C1538 1.367 . S
C1539 C1541 1.433 . S
C1540 C1536 1.350 . S
C1540 C1537 1.463 . S
C1540 N1544 1.427 . S
C1541 H1531 0.929 . S
C1541 C1539 1.433 . S
C1541 N1544 1.384 . S
C1542 H1533 0.929 . S
C1542 C1534 1.378 . S
C1542 C1537 1.350 . S
C1543 H1530 0.929 . S
C1543 C1535 1.433 . S
C1543 N1545 1.384 . S
N1544 C1540 1.427 . S
N1544 C1541 1.384 . S
N1545 C1537 1.427 . S
N1545 C1543 1.384 . S
H1546 C1552 0.930 . S
H1547 C1556 0.930 . S
H1548 C1561 0.929 . S
H1549 C1559 0.929 . S
H1550 C1554 0.929 . S
H1551 C1560 0.929 . S
C1552 H1546 0.930 . S
C1552 C1553 1.367 . S
C1552 C1560 1.378 . S
C1553 C1552 1.367 . S
C1553 C1561 1.433 . S
C1554 H1550 0.929 . S
C1554 C1556 1.378 . S
C1554 C1558 1.350 . S
C1555 C1558 1.463 . S
C1555 C1560 1.350 . S
C1555 N1563 1.427 . S
C1556 H1547 0.930 . S
C1556 C1554 1.378 . S
C1556 C1557 1.367 . S
C1557 C1556 1.367 . S
C1557 C1559 1.433 . S
C1558 C1554 1.350 . S
C1558 C1555 1.463 . S
C1558 N1562 1.427 . S
C1559 H1549 0.929 . S
C1559 C1557 1.433 . S
C1559 N1562 1.384 . S
C1560 H1551 0.929 . S
C1560 C1552 1.378 . S
C1560 C1555 1.350 . S
C1561 H1548 0.929 . S
C1561 C1553 1.433 . S
C1561 N1563 1.384 . S
N1562 C1558 1.427 . S
N1562 C1559 1.384 . S
N1563 C1555 1.427 . S
N1563 C1561 1.384 . S
H1564 C1570 0.930 . S
H1565 C1574 0.930 . S
H1566 C1579 0.929 . S
H1567 C1577 0.929 . S
H1568 C1572 0.929 . S
H1569 C1578 0.929 . S
C1570 H1564 0.930 . S
C1570 C1571 1.367 . S
C1570 C1578 1.378 . S
C1571 C1570 1.367 . S
C1571 C1579 1.433 . S
C1572 H1568 0.929 . S
C1572 C1574 1.378 . S
C1572 C1576 1.350 . S
C1573 C1576 1.463 . S
C1573 C1578 1.350 . S
C1573 N1581 1.427 . S
C1574 H1565 0.930 . S
C1574 C1572 1.378 . S
C1574 C1575 1.367 . S
C1575 C1574 1.367 . S
C1575 C1577 1.433 . S
C1576 C1572 1.350 . S
C1576 C1573 1.463 . S
C1576 N1580 1.427 . S
C1577 H1567 0.929 . S
C1577 C1575 1.433 . S
C1577 N1580 1.384 . S
C1578 H1569 0.929 . S
C1578 C1570 1.378 . S
C1578 C1573 1.350 . S
C1579 H1566 0.929 . S
C1579 C1571 1.433 . S
C1579 N1581 1.384 . S
N1580 C1576 1.427 . S
N1580 C1577 1.384 . S
N1581 C1573 1.427 . S
N1581 C1579 1.384 . S
H1582 C1588 0.930 . S
H1583 C1592 0.930 . S
H1584 C1597 0.929 . S
H1585 C1595 0.929 1_565 S
H1586 C1590 0.929 . S
H1587 C1596 0.929 . S
C1588 H1582 0.930 . S
C1588 C1589 1.367 . S
C1588 C1596 1.378 . S
C1589 C1588 1.367 . S
C1589 C1597 1.433 . S
C1590 H1586 0.929 . S
C1590 C1592 1.378 . S
C1590 C1594 1.350 . S
C1591 C1594 1.463 . S
C1591 C1596 1.350 . S
C1591 N1599 1.427 . S
C1592 H1583 0.930 . S
C1592 C1590 1.378 . S
C1592 C1593 1.367 . S
C1593 C1592 1.367 . S
C1593 C1595 1.433 . S
C1594 C1590 1.350 . S
C1594 C1591 1.463 . S
C1594 N1598 1.427 . S
C1595 H1585 0.929 1_545 S
C1595 C1593 1.433 . S
C1595 N1598 1.384 . S
C1596 H1587 0.929 . S
C1596 C1588 1.378 . S
C1596 C1591 1.350 . S
C1597 H1584 0.929 . S
C1597 C1589 1.433 . S
C1597 N1599 1.384 . S
N1598 C1594 1.427 . S
N1598 C1595 1.384 . S
N1599 C1591 1.427 . S
N1599 C1597 1.384 . S
H1600 C1606 0.930 . S
H1601 C1610 0.930 . S
H1602 C1615 0.929 . S
H1603 C1613 0.929 . S
H1604 C1608 0.929 . S
H1605 C1614 0.929 . S
C1606 H1600 0.930 . S
C1606 C1607 1.367 . S
C1606 C1614 1.378 . S
C1607 C1606 1.367 . S
C1607 C1615 1.433 . S
C1608 H1604 0.929 . S
C1608 C1610 1.378 . S
C1608 C1612 1.350 . S
C1609 C1612 1.463 . S
C1609 C1614 1.350 . S
C1609 N1617 1.427 . S
C1610 H1601 0.930 . S
C1610 C1608 1.378 . S
C1610 C1611 1.367 . S
C1611 C1610 1.367 . S
C1611 C1613 1.433 . S
C1612 C1608 1.350 . S
C1612 C1609 1.463 . S
C1612 N1616 1.427 . S
C1613 H1603 0.929 . S
C1613 C1611 1.433 . S
C1613 N1616 1.384 . S
C1614 H1605 0.929 . S
C1614 C1606 1.378 . S
C1614 C1609 1.350 . S
C1615 H1602 0.929 . S
C1615 C1607 1.433 . S
C1615 N1617 1.384 . S
N1616 C1612 1.427 . S
N1616 C1613 1.384 . S
N1617 C1609 1.427 . S
N1617 C1615 1.384 . S
H1618 C1624 0.930 . S
H1619 C1628 0.930 . S
H1620 C1633 0.929 . S
H1621 C1631 0.929 . S
H1622 C1626 0.929 . S
H1623 C1632 0.929 . S
C1624 H1618 0.930 . S
C1624 C1625 1.367 . S
C1624 C1632 1.378 . S
C1625 C1624 1.367 . S
C1625 C1633 1.433 . S
C1626 H1622 0.929 . S
C1626 C1628 1.378 . S
C1626 C1630 1.350 . S
C1627 C1630 1.463 . S
C1627 C1632 1.350 . S
C1627 N1635 1.427 . S
C1628 H1619 0.930 . S
C1628 C1626 1.378 . S
C1628 C1629 1.367 . S
C1629 C1628 1.367 . S
C1629 C1631 1.433 . S
C1630 C1626 1.350 . S
C1630 C1627 1.463 . S
C1630 N1634 1.427 . S
C1631 H1621 0.929 . S
C1631 C1629 1.433 . S
C1631 N1634 1.384 . S
C1632 H1623 0.929 . S
C1632 C1624 1.378 . S
C1632 C1627 1.350 . S
C1633 H1620 0.929 . S
C1633 C1625 1.433 . S
C1633 N1635 1.384 . S
N1634 C1630 1.427 . S
N1634 C1631 1.384 . S
N1635 C1627 1.427 . S
N1635 C1633 1.384 . S
H1636 C1642 0.930 . S
H1637 C1646 0.930 . S
H1638 C1651 0.929 . S
H1639 C1649 0.929 . S
H1640 C1644 0.929 . S
H1641 C1650 0.929 . S
C1642 H1636 0.930 . S
C1642 C1643 1.367 . S
C1642 C1650 1.378 . S
C1643 C1642 1.367 . S
C1643 C1651 1.433 . S
C1644 H1640 0.929 . S
C1644 C1646 1.378 . S
C1644 C1648 1.350 . S
C1645 C1648 1.463 . S
C1645 C1650 1.350 . S
C1645 N1653 1.427 . S
C1646 H1637 0.930 . S
C1646 C1644 1.378 . S
C1646 C1647 1.367 . S
C1647 C1646 1.367 . S
C1647 C1649 1.433 . S
C1648 C1644 1.350 . S
C1648 C1645 1.463 . S
C1648 N1652 1.427 . S
C1649 H1639 0.929 . S
C1649 C1647 1.433 . S
C1649 N1652 1.384 . S
C1650 H1641 0.929 . S
C1650 C1642 1.378 . S
C1650 C1645 1.350 . S
C1651 H1638 0.929 . S
C1651 C1643 1.433 . S
C1651 N1653 1.384 . S
N1652 C1648 1.427 . S
N1652 C1649 1.384 . S
N1653 C1645 1.427 . S
N1653 C1651 1.384 . S
H1654 C1660 0.930 . S
H1655 C1664 0.930 . S
H1656 C1669 0.929 . S
H1657 C1667 0.929 . S
H1658 C1662 0.929 . S
H1659 C1668 0.929 . S
C1660 H1654 0.930 . S
C1660 C1661 1.367 . S
C1660 C1668 1.378 . S
C1661 C1660 1.367 . S
C1661 C1669 1.433 . S
C1662 H1658 0.929 . S
C1662 C1664 1.378 . S
C1662 C1666 1.350 . S
C1663 C1666 1.463 . S
C1663 C1668 1.350 . S
C1663 N1671 1.427 . S
C1664 H1655 0.930 . S
C1664 C1662 1.378 . S
C1664 C1665 1.367 . S
C1665 C1664 1.367 . S
C1665 C1667 1.433 . S
C1666 C1662 1.350 . S
C1666 C1663 1.463 . S
C1666 N1670 1.427 . S
C1667 H1657 0.929 . S
C1667 C1665 1.433 . S
C1667 N1670 1.384 . S
C1668 H1659 0.929 . S
C1668 C1660 1.378 . S
C1668 C1663 1.350 . S
C1669 H1656 0.929 . S
C1669 C1661 1.433 . S
C1669 N1671 1.384 . S
N1670 C1666 1.427 . S
N1670 C1667 1.384 . S
N1671 C1663 1.427 . S
N1671 C1669 1.384 . S
H1672 C1678 0.930 . S
H1673 C1682 0.930 . S
H1674 C1687 0.929 . S
H1675 C1685 0.929 . S
H1676 C1680 0.929 . S
H1677 C1686 0.929 . S
C1678 H1672 0.930 . S
C1678 C1679 1.367 . S
C1678 C1686 1.378 . S
C1679 C1678 1.367 . S
C1679 C1687 1.433 . S
C1680 H1676 0.929 . S
C1680 C1682 1.378 . S
C1680 C1684 1.350 . S
C1681 C1684 1.463 . S
C1681 C1686 1.350 . S
C1681 N1689 1.427 . S
C1682 H1673 0.930 . S
C1682 C1680 1.378 . S
C1682 C1683 1.367 . S
C1683 C1682 1.367 . S
C1683 C1685 1.433 . S
C1684 C1680 1.350 . S
C1684 C1681 1.463 . S
C1684 N1688 1.427 . S
C1685 H1675 0.929 . S
C1685 C1683 1.433 . S
C1685 N1688 1.384 . S
C1686 H1677 0.929 . S
C1686 C1678 1.378 . S
C1686 C1681 1.350 . S
C1687 H1674 0.929 . S
C1687 C1679 1.433 . S
C1687 N1689 1.384 . S
N1688 C1684 1.427 . S
N1688 C1685 1.384 . S
N1689 C1681 1.427 . S
N1689 C1687 1.384 . S
H1690 C1696 0.930 . S
H1691 C1700 0.930 . S
H1692 C1705 0.929 . S
H1693 C1703 0.929 . S
H1694 C1698 0.929 . S
H1695 C1704 0.929 . S
C1696 H1690 0.930 . S
C1696 C1697 1.367 . S
C1696 C1704 1.378 . S
C1697 C1696 1.367 . S
C1697 C1705 1.433 . S
C1698 H1694 0.929 . S
C1698 C1700 1.378 . S
C1698 C1702 1.350 . S
C1699 C1702 1.463 . S
C1699 C1704 1.350 . S
C1699 N1707 1.427 . S
C1700 H1691 0.930 . S
C1700 C1698 1.378 . S
C1700 C1701 1.367 . S
C1701 C1700 1.367 . S
C1701 C1703 1.433 . S
C1702 C1698 1.350 . S
C1702 C1699 1.463 . S
C1702 N1706 1.427 . S
C1703 H1693 0.929 . S
C1703 C1701 1.433 . S
C1703 N1706 1.384 . S
C1704 H1695 0.929 . S
C1704 C1696 1.378 . S
C1704 C1699 1.350 . S
C1705 H1692 0.929 . S
C1705 C1697 1.433 . S
C1705 N1707 1.384 . S
N1706 C1702 1.427 . S
N1706 C1703 1.384 . S
N1707 C1699 1.427 . S
N1707 C1705 1.384 . S
H1708 C1714 0.930 . S
H1709 C1718 0.930 . S
H1710 C1723 0.929 . S
H1711 C1721 0.929 . S
H1712 C1716 0.929 . S
H1713 C1722 0.929 . S
C1714 H1708 0.930 . S
C1714 C1715 1.367 . S
C1714 C1722 1.378 . S
C1715 C1714 1.367 . S
C1715 C1723 1.433 . S
C1716 H1712 0.929 . S
C1716 C1718 1.378 . S
C1716 C1720 1.350 . S
C1717 C1720 1.463 . S
C1717 C1722 1.350 . S
C1717 N1725 1.427 . S
C1718 H1709 0.930 . S
C1718 C1716 1.378 . S
C1718 C1719 1.367 . S
C1719 C1718 1.367 . S
C1719 C1721 1.433 . S
C1720 C1716 1.350 . S
C1720 C1717 1.463 . S
C1720 N1724 1.427 . S
C1721 H1711 0.929 . S
C1721 C1719 1.433 . S
C1721 N1724 1.384 . S
C1722 H1713 0.929 . S
C1722 C1714 1.378 . S
C1722 C1717 1.350 . S
C1723 H1710 0.929 . S
C1723 C1715 1.433 . S
C1723 N1725 1.384 . S
N1724 C1720 1.427 . S
N1724 C1721 1.384 . S
N1725 C1717 1.427 . S
N1725 C1723 1.384 . S
H1726 C1732 0.930 . S
H1727 C1736 0.930 . S
H1728 C1741 0.929 . S
H1729 C1739 0.929 . S
H1730 C1734 0.929 . S
H1731 C1740 0.929 . S
C1732 H1726 0.930 . S
C1732 C1733 1.367 . S
C1732 C1740 1.378 . S
C1733 C1732 1.367 . S
C1733 C1741 1.433 . S
C1734 H1730 0.929 . S
C1734 C1736 1.378 . S
C1734 C1738 1.350 . S
C1735 C1738 1.463 . S
C1735 C1740 1.350 . S
C1735 N1743 1.427 . S
C1736 H1727 0.930 . S
C1736 C1734 1.378 . S
C1736 C1737 1.367 . S
C1737 C1736 1.367 . S
C1737 C1739 1.433 . S
C1738 C1734 1.350 . S
C1738 C1735 1.463 . S
C1738 N1742 1.427 . S
C1739 H1729 0.929 . S
C1739 C1737 1.433 . S
C1739 N1742 1.384 . S
C1740 H1731 0.929 . S
C1740 C1732 1.378 . S
C1740 C1735 1.350 . S
C1741 H1728 0.929 . S
C1741 C1733 1.433 . S
C1741 N1743 1.384 . S
N1742 C1738 1.427 . S
N1742 C1739 1.384 . S
N1743 C1735 1.427 . S
N1743 C1741 1.384 . S
H1744 C1750 0.930 . S
H1745 C1754 0.930 . S
H1746 C1759 0.929 1_554 S
H1747 C1757 0.929 . S
H1748 C1752 0.929 . S
H1749 C1758 0.929 . S
C1750 H1744 0.930 . S
C1750 C1751 1.367 . S
C1750 C1758 1.378 . S
C1751 C1750 1.367 . S
C1751 C1759 1.433 . S
C1752 H1748 0.929 . S
C1752 C1754 1.378 . S
C1752 C1756 1.350 1_554 S
C1753 C1756 1.463 . S
C1753 C1758 1.350 . S
C1753 N1761 1.412 1_556 S
C1754 H1745 0.930 . S
C1754 C1752 1.378 . S
C1754 C1755 1.367 . S
C1755 C1754 1.367 . S
C1755 C1757 1.433 1_554 S
C1756 C1752 1.350 1_556 S
C1756 C1753 1.463 . S
C1756 N1760 1.427 . S
C1757 H1747 0.929 . S
C1757 C1755 1.433 1_556 S
C1757 N1760 1.384 . S
C1758 H1749 0.929 . S
C1758 C1750 1.378 . S
C1758 C1753 1.350 . S
C1759 H1746 0.929 1_556 S
C1759 C1751 1.433 . S
C1759 N1761 1.372 1_556 S
N1760 C1756 1.427 . S
N1760 C1757 1.384 . S
N1761 C1753 1.412 1_554 S
N1761 C1759 1.372 1_554 S
H1762 C1768 0.920 1_554 S
H1763 C1772 0.930 . S
H1764 C1777 0.929 . S
H1765 C1775 0.929 . S
H1766 C1770 0.929 1_556 S
H1767 C1776 0.929 . S
C1768 H1762 0.920 1_556 S
C1768 C1769 1.384 . S
C1768 C1776 1.371 1_556 S
C1769 C1768 1.384 . S
C1769 C1777 1.433 . S
C1770 H1766 0.929 1_554 S
C1770 C1772 1.378 . S
C1770 C1774 1.350 . S
C1771 C1774 1.463 . S
C1771 C1776 1.350 . S
C1771 N1779 1.427 1_554 S
C1772 H1763 0.930 . S
C1772 C1770 1.378 . S
C1772 C1773 1.367 . S
C1773 C1772 1.367 . S
C1773 C1775 1.433 . S
C1774 C1770 1.350 . S
C1774 C1771 1.463 . S
C1774 N1778 1.427 . S
C1775 H1765 0.929 . S
C1775 C1773 1.433 . S
C1775 N1778 1.384 . S
C1776 H1767 0.929 . S
C1776 C1768 1.371 1_554 S
C1776 C1771 1.350 . S
C1777 H1764 0.929 . S
C1777 C1769 1.433 . S
C1777 N1779 1.384 . S
N1778 C1774 1.427 . S
N1778 C1775 1.384 . S
N1779 C1771 1.427 1_556 S
N1779 C1777 1.384 . S
H1780 C1786 0.930 . S
H1781 C1790 0.930 . S
H1782 C1795 0.929 . S
H1783 C1793 0.929 . S
H1784 C1788 0.929 . S
H1785 C1794 0.929 . S
C1786 H1780 0.930 . S
C1786 C1787 1.367 . S
C1786 C1794 1.378 . S
C1787 C1786 1.367 . S
C1787 C1795 1.433 . S
C1788 H1784 0.929 . S
C1788 C1790 1.378 . S
C1788 C1792 1.350 . S
C1789 C1792 1.463 . S
C1789 C1794 1.350 . S
C1789 N1797 1.427 . S
C1790 H1781 0.930 . S
C1790 C1788 1.378 . S
C1790 C1791 1.367 . S
C1791 C1790 1.367 . S
C1791 C1793 1.433 . S
C1792 C1788 1.350 . S
C1792 C1789 1.463 . S
C1792 N1796 1.427 . S
C1793 H1783 0.929 . S
C1793 C1791 1.433 . S
C1793 N1796 1.384 . S
C1794 H1785 0.929 . S
C1794 C1786 1.378 . S
C1794 C1789 1.350 . S
C1795 H1782 0.929 . S
C1795 C1787 1.433 . S
C1795 N1797 1.384 . S
N1796 C1792 1.427 . S
N1796 C1793 1.384 . S
N1797 C1789 1.427 . S
N1797 C1795 1.384 . S
H1798 C1804 0.930 . S
H1799 C1808 0.930 . S
H1800 C1813 0.929 . S
H1801 C1811 0.929 . S
H1802 C1806 0.929 . S
H1803 C1812 0.929 . S
C1804 H1798 0.930 . S
C1804 C1805 1.367 . S
C1804 C1812 1.378 . S
C1805 C1804 1.367 . S
C1805 C1813 1.433 . S
C1806 H1802 0.929 . S
C1806 C1808 1.378 . S
C1806 C1810 1.350 . S
C1807 C1810 1.463 . S
C1807 C1812 1.350 . S
C1807 N1815 1.427 . S
C1808 H1799 0.930 . S
C1808 C1806 1.378 . S
C1808 C1809 1.367 . S
C1809 C1808 1.367 . S
C1809 C1811 1.433 . S
C1810 C1806 1.350 . S
C1810 C1807 1.463 . S
C1810 N1814 1.427 . S
C1811 H1801 0.929 . S
C1811 C1809 1.433 . S
C1811 N1814 1.384 . S
C1812 H1803 0.929 . S
C1812 C1804 1.378 . S
C1812 C1807 1.350 . S
C1813 H1800 0.929 . S
C1813 C1805 1.433 . S
C1813 N1815 1.384 . S
N1814 C1810 1.427 . S
N1814 C1811 1.384 . S
N1815 C1807 1.427 . S
N1815 C1813 1.384 . S
H1816 C1822 0.930 . S
H1817 C1826 0.930 . S
H1818 C1831 0.929 . S
H1819 C1829 0.920 1_565 S
H1820 C1824 0.929 . S
H1821 C1830 0.929 . S
C1822 H1816 0.930 . S
C1822 C1823 1.367 . S
C1822 C1830 1.378 . S
C1823 C1822 1.367 . S
C1823 C1831 1.433 1_556 S
C1824 H1820 0.929 . S
C1824 C1826 1.378 . S
C1824 C1828 1.350 . S
C1825 C1828 1.463 . S
C1825 C1830 1.350 1_554 S
C1825 N1833 1.427 . S
C1826 H1817 0.930 . S
C1826 C1824 1.378 . S
C1826 C1827 1.367 . S
C1827 C1826 1.367 . S
C1827 C1829 1.438 . S
C1828 C1824 1.350 . S
C1828 C1825 1.463 . S
C1828 N1832 1.427 . S
C1829 H1819 0.920 1_545 S
C1829 C1827 1.438 . S
C1829 N1832 1.388 . S
C1830 H1821 0.929 . S
C1830 C1822 1.378 . S
C1830 C1825 1.350 1_556 S
C1831 H1818 0.929 . S
C1831 C1823 1.433 1_554 S
C1831 N1833 1.384 . S
N1832 C1828 1.427 . S
N1832 C1829 1.388 . S
N1833 C1825 1.427 . S
N1833 C1831 1.384 . S
H1834 C1840 0.930 . S
H1835 C1844 0.930 1_556 S
H1836 C1849 0.929 . S
H1837 C1847 0.929 . S
H1838 C1842 0.929 . S
H1839 C1848 0.929 1_554 S
C1840 H1834 0.930 . S
C1840 C1841 1.367 . S
C1840 C1848 1.378 . S
C1841 C1840 1.367 . S
C1841 C1849 1.433 . S
C1842 H1838 0.929 . S
C1842 C1844 1.378 1_556 S
C1842 C1846 1.350 . S
C1843 C1846 1.463 . S
C1843 C1848 1.350 . S
C1843 N1851 1.427 . S
C1844 H1835 0.930 1_554 S
C1844 C1842 1.378 1_554 S
C1844 C1845 1.367 . S
C1845 C1844 1.367 . S
C1845 C1847 1.433 . S
C1846 C1842 1.350 . S
C1846 C1843 1.463 . S
C1846 N1850 1.427 1_556 S
C1847 H1837 0.929 . S
C1847 C1845 1.433 . S
C1847 N1850 1.384 . S
C1848 H1839 0.929 1_556 S
C1848 C1840 1.378 . S
C1848 C1843 1.350 . S
C1849 H1836 0.929 . S
C1849 C1841 1.433 . S
C1849 N1851 1.384 . S
N1850 C1846 1.427 1_554 S
N1850 C1847 1.384 . S
N1851 C1843 1.427 . S
N1851 C1849 1.384 . S
H1852 C1858 0.930 . S
H1853 C1862 0.930 . S
H1854 C1867 0.929 . S
H1855 C1865 0.929 . S
H1856 C1860 0.929 . S
H1857 C1866 0.929 . S
C1858 H1852 0.930 . S
C1858 C1859 1.367 . S
C1858 C1866 1.378 . S
C1859 C1858 1.367 . S
C1859 C1867 1.433 . S
C1860 H1856 0.929 . S
C1860 C1862 1.378 . S
C1860 C1864 1.350 . S
C1861 C1864 1.463 . S
C1861 C1866 1.350 . S
C1861 N1869 1.427 . S
C1862 H1853 0.930 . S
C1862 C1860 1.378 . S
C1862 C1863 1.367 . S
C1863 C1862 1.367 . S
C1863 C1865 1.433 . S
C1864 C1860 1.350 . S
C1864 C1861 1.463 . S
C1864 N1868 1.427 . S
C1865 H1855 0.929 . S
C1865 C1863 1.433 . S
C1865 N1868 1.384 . S
C1866 H1857 0.929 . S
C1866 C1858 1.378 . S
C1866 C1861 1.350 . S
C1867 H1854 0.929 . S
C1867 C1859 1.433 . S
C1867 N1869 1.384 . S
N1868 C1864 1.427 . S
N1868 C1865 1.384 . S
N1869 C1861 1.427 . S
N1869 C1867 1.384 . S
H1870 C1876 0.930 . S
H1871 C1880 0.930 1_565 S
H1872 C1885 0.929 . S
H1873 C1883 0.929 . S
H1874 C1878 0.929 . S
H1875 C1884 0.929 . S
C1876 H1870 0.930 . S
C1876 C1877 1.367 . S
C1876 C1884 1.378 . S
C1877 C1876 1.367 . S
C1877 C1885 1.433 . S
C1878 H1874 0.929 . S
C1878 C1880 1.378 . S
C1878 C1882 1.350 . S
C1879 C1882 1.463 . S
C1879 C1884 1.350 . S
C1879 N1887 1.427 . S
C1880 H1871 0.930 1_545 S
C1880 C1878 1.378 . S
C1880 C1881 1.367 . S
C1881 C1880 1.367 . S
C1881 C1883 1.433 . S
C1882 C1878 1.350 . S
C1882 C1879 1.463 . S
C1882 N1886 1.427 . S
C1883 H1873 0.929 . S
C1883 C1881 1.433 . S
C1883 N1886 1.384 . S
C1884 H1875 0.929 . S
C1884 C1876 1.378 . S
C1884 C1879 1.350 . S
C1885 H1872 0.929 . S
C1885 C1877 1.433 . S
C1885 N1887 1.384 . S
N1886 C1882 1.427 . S
N1886 C1883 1.384 . S
N1887 C1879 1.427 . S
N1887 C1885 1.384 . S
H1888 C1894 0.930 . S
H1889 C1898 0.930 . S
H1890 C1903 0.928 1_655 S
H1891 C1901 0.929 . S
H1892 C1896 0.929 . S
H1893 C1902 0.929 . S
C1894 H1888 0.930 . S
C1894 C1895 1.367 . S
C1894 C1902 1.378 . S
C1895 C1894 1.367 . S
C1895 C1903 1.438 . S
C1896 H1892 0.929 . S
C1896 C1898 1.378 . S
C1896 C1900 1.350 1_655 S
C1897 C1900 1.463 . S
C1897 C1902 1.350 . S
C1897 N1905 1.428 1_455 S
C1898 H1889 0.930 . S
C1898 C1896 1.378 . S
C1898 C1899 1.367 1_655 S
C1899 C1898 1.367 1_455 S
C1899 C1901 1.433 . S
C1900 C1896 1.350 1_455 S
C1900 C1897 1.463 . S
C1900 N1904 1.427 . S
C1901 H1891 0.929 . S
C1901 C1899 1.433 . S
C1901 N1904 1.384 . S
C1902 H1893 0.929 . S
C1902 C1894 1.378 . S
C1902 C1897 1.350 . S
C1903 H1890 0.928 1_455 S
C1903 C1895 1.438 . S
C1903 N1905 1.381 1_455 S
N1904 C1900 1.427 . S
N1904 C1901 1.384 . S
N1905 C1897 1.428 1_655 S
N1905 C1903 1.381 1_655 S
H1906 C1912 0.930 . S
H1907 C1916 0.930 . S
H1908 C1921 0.928 . S
H1909 C1919 0.929 . S
H1910 C1914 0.929 . S
H1911 C1920 0.929 . S
C1912 H1906 0.930 . S
C1912 C1913 1.367 . S
C1912 C1920 1.378 1_565 S
C1913 C1912 1.367 . S
C1913 C1921 1.433 1_565 S
C1914 H1910 0.929 . S
C1914 C1916 1.378 . S
C1914 C1918 1.350 . S
C1915 C1918 1.463 . S
C1915 C1920 1.350 . S
C1915 N1923 1.427 . S
C1916 H1907 0.930 . S
C1916 C1914 1.378 . S
C1916 C1917 1.367 . S
C1917 C1916 1.367 . S
C1917 C1919 1.433 . S
C1918 C1914 1.350 . S
C1918 C1915 1.463 . S
C1918 N1922 1.427 . S
C1919 H1909 0.929 . S
C1919 C1917 1.433 . S
C1919 N1922 1.384 . S
C1920 H1911 0.929 . S
C1920 C1912 1.378 1_545 S
C1920 C1915 1.350 . S
C1921 H1908 0.928 . S
C1921 C1913 1.433 1_545 S
C1921 N1923 1.384 . S
N1922 C1918 1.427 . S
N1922 C1919 1.384 . S
N1923 C1915 1.427 . S
N1923 C1921 1.384 . S
H1924 C1930 0.930 . S
H1925 C1934 0.930 1_565 S
H1926 C1939 0.929 . S
H1927 C1937 0.929 . S
H1928 C1932 0.929 . S
H1929 C1938 0.929 . S
C1930 H1924 0.930 . S
C1930 C1931 1.367 1_455 S
C1930 C1938 1.378 . S
C1931 C1930 1.367 1_655 S
C1931 C1939 1.433 . S
C1932 H1928 0.929 . S
C1932 C1934 1.378 . S
C1932 C1936 1.350 1_655 S
C1933 C1936 1.463 . S
C1933 C1938 1.350 . S
C1933 N1941 1.427 1_455 S
C1934 H1925 0.930 1_545 S
C1934 C1932 1.378 . S
C1934 C1935 1.367 1_655 S
C1935 C1934 1.367 1_455 S
C1935 C1937 1.433 . S
C1936 C1932 1.350 1_455 S
C1936 C1933 1.463 . S
C1936 N1940 1.427 . S
C1937 H1927 0.929 . S
C1937 C1935 1.433 . S
C1937 N1940 1.384 . S
C1938 H1929 0.929 . S
C1938 C1930 1.378 . S
C1938 C1933 1.350 . S
C1939 H1926 0.929 . S
C1939 C1931 1.433 . S
C1939 N1941 1.384 . S
N1940 C1936 1.427 . S
N1940 C1937 1.384 . S
N1941 C1933 1.427 1_655 S
N1941 C1939 1.384 . S
H1942 C1948 0.930 . S
H1943 C1952 0.930 . S
H1944 C1957 0.929 . S
H1945 C1955 0.929 . S
H1946 C1950 0.929 . S
H1947 C1956 0.929 . S
C1948 H1942 0.930 . S
C1948 C1949 1.367 . S
C1948 C1956 1.378 . S
C1949 C1948 1.367 . S
C1949 C1957 1.433 . S
C1950 H1946 0.929 . S
C1950 C1952 1.378 . S
C1950 C1954 1.350 . S
C1951 C1954 1.463 . S
C1951 C1956 1.350 . S
C1951 N1959 1.427 . S
C1952 H1943 0.930 . S
C1952 C1950 1.378 . S
C1952 C1953 1.367 . S
C1953 C1952 1.367 . S
C1953 C1955 1.433 . S
C1954 C1950 1.350 . S
C1954 C1951 1.463 . S
C1954 N1958 1.427 . S
C1955 H1945 0.929 . S
C1955 C1953 1.433 . S
C1955 N1958 1.384 . S
C1956 H1947 0.929 . S
C1956 C1948 1.378 . S
C1956 C1951 1.350 . S
C1957 H1944 0.929 . S
C1957 C1949 1.433 . S
C1957 N1959 1.384 . S
N1958 C1954 1.427 . S
N1958 C1955 1.384 . S
N1959 C1951 1.427 . S
N1959 C1957 1.384 . S
H1960 C1966 0.930 . S
H1961 C1970 0.934 . S
H1962 C1975 0.928 1_455 S
H1963 C1973 0.929 . S
H1964 C1968 0.928 1_455 S
H1965 C1974 0.929 . S
C1966 H1960 0.930 . S
C1966 C1967 1.367 . S
C1966 C1974 1.378 . S
C1967 C1966 1.367 . S
C1967 C1975 1.433 . S
C1968 H1964 0.928 1_655 S
C1968 C1970 1.375 1_655 S
C1968 C1972 1.351 . S
C1969 C1972 1.463 . S
C1969 C1974 1.350 . S
C1969 N1977 1.427 . S
C1970 H1961 0.934 . S
C1970 C1968 1.375 1_455 S
C1970 C1971 1.366 1_455 S
C1971 C1970 1.366 1_655 S
C1971 C1973 1.433 . S
C1972 C1968 1.351 . S
C1972 C1969 1.463 . S
C1972 N1976 1.427 . S
C1973 H1963 0.929 . S
C1973 C1971 1.433 . S
C1973 N1976 1.384 . S
C1974 H1965 0.929 . S
C1974 C1966 1.378 . S
C1974 C1969 1.350 . S
C1975 H1962 0.928 1_655 S
C1975 C1967 1.433 . S
C1975 N1977 1.384 . S
N1976 C1972 1.427 . S
N1976 C1973 1.384 . S
N1977 C1969 1.427 . S
N1977 C1975 1.384 . S
H1978 C1984 0.953 . S
H1979 C1988 0.930 . S
H1980 C1993 0.929 . S
H1981 C1991 0.929 . S
H1982 C1986 0.929 . S
H1983 C1992 0.929 . S
C1984 H1978 0.953 . S
C1984 C1985 1.367 1_565 S
C1984 C1992 1.378 . S
C1985 C1984 1.367 1_545 S
C1985 C1993 1.433 . S
C1986 H1982 0.929 . S
C1986 C1988 1.378 . S
C1986 C1990 1.350 . S
C1987 C1990 1.463 . S
C1987 C1992 1.350 . S
C1987 N1995 1.427 . S
C1988 H1979 0.930 . S
C1988 C1986 1.378 . S
C1988 C1989 1.367 . S
C1989 C1988 1.367 . S
C1989 C1991 1.433 . S
C1990 C1986 1.350 . S
C1990 C1987 1.463 . S
C1990 N1994 1.427 . S
C1991 H1981 0.929 . S
C1991 C1989 1.433 . S
C1991 N1994 1.384 . S
C1992 H1983 0.929 . S
C1992 C1984 1.378 . S
C1992 C1987 1.350 . S
C1993 H1980 0.929 . S
C1993 C1985 1.433 . S
C1993 N1995 1.384 1_545 S
N1994 C1990 1.427 . S
N1994 C1991 1.384 . S
N1995 C1987 1.427 . S
N1995 C1993 1.384 1_565 S
H1996 C2002 0.930 . S
H1997 C2006 0.930 . S
H1998 C2011 0.929 . S
H1999 C2009 0.929 . S
H2000 C2004 0.929 . S
H2001 C2010 0.929 . S
C2002 H1996 0.930 . S
C2002 C2003 1.367 . S
C2002 C2010 1.378 . S
C2003 C2002 1.367 . S
C2003 C2011 1.433 1_455 S
C2004 H2000 0.929 . S
C2004 C2006 1.378 . S
C2004 C2008 1.350 . S
C2005 C2008 1.463 . S
C2005 C2010 1.350 1_655 S
C2005 N2013 1.427 . S
C2006 H1997 0.930 . S
C2006 C2004 1.378 . S
C2006 C2007 1.367 . S
C2007 C2006 1.367 . S
C2007 C2009 1.433 1_565 S
C2008 C2004 1.350 . S
C2008 C2005 1.463 . S
C2008 N2012 1.427 . S
C2009 H1999 0.929 . S
C2009 C2007 1.433 1_545 S
C2009 N2012 1.384 1_545 S
C2010 H2001 0.929 . S
C2010 C2002 1.378 . S
C2010 C2005 1.350 1_455 S
C2011 H1998 0.929 . S
C2011 C2003 1.433 1_655 S
C2011 N2013 1.384 . S
N2012 C2008 1.427 . S
N2012 C2009 1.384 1_565 S
N2013 C2005 1.427 . S
N2013 C2011 1.384 . S
H2014 C2020 0.930 . S
H2015 C2024 0.930 . S
H2016 C2029 0.929 . S
H2017 C2027 0.929 . S
H2018 C2022 0.929 . S
H2019 C2028 0.929 . S
C2020 H2014 0.930 . S
C2020 C2021 1.367 . S
C2020 C2028 1.378 . S
C2021 C2020 1.367 . S
C2021 C2029 1.433 . S
C2022 H2018 0.929 . S
C2022 C2024 1.378 . S
C2022 C2026 1.350 . S
C2023 C2026 1.463 . S
C2023 C2028 1.350 . S
C2023 N2031 1.427 . S
C2024 H2015 0.930 . S
C2024 C2022 1.378 . S
C2024 C2025 1.367 . S
C2025 C2024 1.367 . S
C2025 C2027 1.433 . S
C2026 C2022 1.350 . S
C2026 C2023 1.463 . S
C2026 N2030 1.427 . S
C2027 H2017 0.929 . S
C2027 C2025 1.433 . S
C2027 N2030 1.384 . S
C2028 H2019 0.929 . S
C2028 C2020 1.378 . S
C2028 C2023 1.350 . S
C2029 H2016 0.929 . S
C2029 C2021 1.433 . S
C2029 N2031 1.384 . S
N2030 C2026 1.427 . S
N2030 C2027 1.384 . S
N2031 C2023 1.427 . S
N2031 C2029 1.384 . S
H2032 C2038 0.927 1_655 S
H2033 C2042 0.930 . S
H2034 C2047 0.929 . S
H2035 C2045 0.929 . S
H2036 C2040 0.929 . S
H2037 C2046 0.930 . S
C2038 H2032 0.927 1_455 S
C2038 C2039 1.367 . S
C2038 C2046 1.378 . S
C2039 C2038 1.367 . S
C2039 C2047 1.433 . S
C2040 H2036 0.929 . S
C2040 C2042 1.378 . S
C2040 C2044 1.350 . S
C2041 C2044 1.463 . S
C2041 C2046 1.350 . S
C2041 N2049 1.427 . S
C2042 H2033 0.930 . S
C2042 C2040 1.378 . S
C2042 C2043 1.367 . S
C2043 C2042 1.367 . S
C2043 C2045 1.433 . S
C2044 C2040 1.350 . S
C2044 C2041 1.463 . S
C2044 N2048 1.427 . S
C2045 H2035 0.929 . S
C2045 C2043 1.433 . S
C2045 N2048 1.384 . S
C2046 H2037 0.930 . S
C2046 C2038 1.378 . S
C2046 C2041 1.350 . S
C2047 H2034 0.929 . S
C2047 C2039 1.433 . S
C2047 N2049 1.384 . S
N2048 C2044 1.427 . S
N2048 C2045 1.384 . S
N2049 C2041 1.427 . S
N2049 C2047 1.384 . S
H2050 C2056 0.930 . S
H2051 C2060 0.930 . S
H2052 C2065 0.929 . S
H2053 C2063 0.929 . S
H2054 C2058 0.929 . S
H2055 C2064 0.929 . S
C2056 H2050 0.930 . S
C2056 C2057 1.367 . S
C2056 C2064 1.378 . S
C2057 C2056 1.367 . S
C2057 C2065 1.433 . S
C2058 H2054 0.929 . S
C2058 C2060 1.378 . S
C2058 C2062 1.350 . S
C2059 C2062 1.463 . S
C2059 C2064 1.350 . S
C2059 N2067 1.427 . S
C2060 H2051 0.930 . S
C2060 C2058 1.378 . S
C2060 C2061 1.367 . S
C2061 C2060 1.367 . S
C2061 C2063 1.433 . S
C2062 C2058 1.350 . S
C2062 C2059 1.463 . S
C2062 N2066 1.427 . S
C2063 H2053 0.929 . S
C2063 C2061 1.433 . S
C2063 N2066 1.384 . S
C2064 H2055 0.929 . S
C2064 C2056 1.378 . S
C2064 C2059 1.350 . S
C2065 H2052 0.929 . S
C2065 C2057 1.433 . S
C2065 N2067 1.384 . S
N2066 C2062 1.427 . S
N2066 C2063 1.384 . S
N2067 C2059 1.427 . S
N2067 C2065 1.384 . S
H2068 C2074 0.930 . S
H2069 C2078 0.930 . S
H2070 C2083 0.929 . S
H2071 C2081 0.929 . S
H2072 C2076 0.929 . S
H2073 C2082 0.929 . S
C2074 H2068 0.930 . S
C2074 C2075 1.367 . S
C2074 C2082 1.378 . S
C2075 C2074 1.367 . S
C2075 C2083 1.433 1_455 S
C2076 H2072 0.929 . S
C2076 C2078 1.378 . S
C2076 C2080 1.350 1_655 S
C2077 C2080 1.463 . S
C2077 C2082 1.350 . S
C2077 N2085 1.427 1_455 S
C2078 H2069 0.930 . S
C2078 C2076 1.378 . S
C2078 C2079 1.367 . S
C2079 C2078 1.367 . S
C2079 C2081 1.433 1_655 S
C2080 C2076 1.350 1_455 S
C2080 C2077 1.463 . S
C2080 N2084 1.427 . S
C2081 H2071 0.929 . S
C2081 C2079 1.433 1_455 S
C2081 N2084 1.384 . S
C2082 H2073 0.929 . S
C2082 C2074 1.378 . S
C2082 C2077 1.350 . S
C2083 H2070 0.929 . S
C2083 C2075 1.433 1_655 S
C2083 N2085 1.384 . S
N2084 C2080 1.427 . S
N2084 C2081 1.384 . S
N2085 C2077 1.427 1_655 S
N2085 C2083 1.384 . S
H2086 C2092 0.930 . S
H2087 C2096 0.930 . S
H2088 C2101 0.929 . S
H2089 C2099 0.929 . S
H2090 C2094 0.929 . S
H2091 C2100 0.929 . S
C2092 H2086 0.930 . S
C2092 C2093 1.367 . S
C2092 C2100 1.378 . S
C2093 C2092 1.367 . S
C2093 C2101 1.433 . S
C2094 H2090 0.929 . S
C2094 C2096 1.378 . S
C2094 C2098 1.350 . S
C2095 C2098 1.463 . S
C2095 C2100 1.350 . S
C2095 N2103 1.427 . S
C2096 H2087 0.930 . S
C2096 C2094 1.378 . S
C2096 C2097 1.367 . S
C2097 C2096 1.367 . S
C2097 C2099 1.433 . S
C2098 C2094 1.350 . S
C2098 C2095 1.463 . S
C2098 N2102 1.427 . S
C2099 H2089 0.929 . S
C2099 C2097 1.433 . S
C2099 N2102 1.384 . S
C2100 H2091 0.929 . S
C2100 C2092 1.378 . S
C2100 C2095 1.350 . S
C2101 H2088 0.929 . S
C2101 C2093 1.433 . S
C2101 N2103 1.384 . S
N2102 C2098 1.427 . S
N2102 C2099 1.384 . S
N2103 C2095 1.427 . S
N2103 C2101 1.384 . S
H2104 C2110 0.930 . S
H2105 C2114 0.930 . S
H2106 C2119 0.929 . S
H2107 C2117 0.929 . S
H2108 C2112 0.929 . S
H2109 C2118 0.929 . S
C2110 H2104 0.930 . S
C2110 C2111 1.367 1_455 S
C2110 C2118 1.378 . S
C2111 C2110 1.367 1_655 S
C2111 C2119 1.433 . S
C2112 H2108 0.929 . S
C2112 C2114 1.378 . S
C2112 C2116 1.350 . S
C2113 C2116 1.463 . S
C2113 C2118 1.350 1_655 S
C2113 N2121 1.427 . S
C2114 H2105 0.930 . S
C2114 C2112 1.378 . S
C2114 C2115 1.367 . S
C2115 C2114 1.367 . S
C2115 C2117 1.433 1_655 S
C2116 C2112 1.350 . S
C2116 C2113 1.463 . S
C2116 N2120 1.427 1_655 S
C2117 H2107 0.929 . S
C2117 C2115 1.433 1_455 S
C2117 N2120 1.384 . S
C2118 H2109 0.929 . S
C2118 C2110 1.378 . S
C2118 C2113 1.350 1_455 S
C2119 H2106 0.929 . S
C2119 C2111 1.433 . S
C2119 N2121 1.384 . S
N2120 C2116 1.427 1_455 S
N2120 C2117 1.384 . S
N2121 C2113 1.427 . S
N2121 C2119 1.384 . S
H2122 C2128 0.930 . S
H2123 C2132 0.930 . S
H2124 C2137 0.929 . S
H2125 C2135 0.929 . S
H2126 C2130 0.929 . S
H2127 C2136 0.929 . S
C2128 H2122 0.930 . S
C2128 C2129 1.367 . S
C2128 C2136 1.378 . S
C2129 C2128 1.367 . S
C2129 C2137 1.433 . S
C2130 H2126 0.929 . S
C2130 C2132 1.378 . S
C2130 C2134 1.350 . S
C2131 C2134 1.463 . S
C2131 C2136 1.350 . S
C2131 N2139 1.427 . S
C2132 H2123 0.930 . S
C2132 C2130 1.378 . S
C2132 C2133 1.367 . S
C2133 C2132 1.367 . S
C2133 C2135 1.433 . S
C2134 C2130 1.350 . S
C2134 C2131 1.463 . S
C2134 N2138 1.427 . S
C2135 H2125 0.929 . S
C2135 C2133 1.433 . S
C2135 N2138 1.384 . S
C2136 H2127 0.929 . S
C2136 C2128 1.378 . S
C2136 C2131 1.350 . S
C2137 H2124 0.929 . S
C2137 C2129 1.433 . S
C2137 N2139 1.384 . S
N2138 C2134 1.427 . S
N2138 C2135 1.384 . S
N2139 C2131 1.427 . S
N2139 C2137 1.384 . S
H2140 C2146 0.930 . S
H2141 C2150 0.930 . S
H2142 C2155 0.929 . S
H2143 C2153 0.929 . S
H2144 C2148 0.929 . S
H2145 C2154 0.929 . S
C2146 H2140 0.930 . S
C2146 C2147 1.367 . S
C2146 C2154 1.378 . S
C2147 C2146 1.367 . S
C2147 C2155 1.433 . S
C2148 H2144 0.929 . S
C2148 C2150 1.378 . S
C2148 C2152 1.350 1_455 S
C2149 C2152 1.463 . S
C2149 C2154 1.350 . S
C2149 N2157 1.427 . S
C2150 H2141 0.930 . S
C2150 C2148 1.378 . S
C2150 C2151 1.367 . S
C2151 C2150 1.367 . S
C2151 C2153 1.433 1_455 S
C2152 C2148 1.350 1_655 S
C2152 C2149 1.463 . S
C2152 N2156 1.427 . S
C2153 H2143 0.929 . S
C2153 C2151 1.433 1_655 S
C2153 N2156 1.384 . S
C2154 H2145 0.929 . S
C2154 C2146 1.378 . S
C2154 C2149 1.350 . S
C2155 H2142 0.929 . S
C2155 C2147 1.433 . S
C2155 N2157 1.384 . S
N2156 C2152 1.427 . S
N2156 C2153 1.384 . S
N2157 C2149 1.427 . S
N2157 C2155 1.384 . S
H2158 C2164 0.930 . S
H2159 C2168 0.930 . S
H2160 C2173 0.929 . S
H2161 C2171 0.929 . S
H2162 C2166 0.929 . S
H2163 C2172 0.929 . S
C2164 H2158 0.930 . S
C2164 C2165 1.367 . S
C2164 C2172 1.378 . S
C2165 C2164 1.367 . S
C2165 C2173 1.433 . S
C2166 H2162 0.929 . S
C2166 C2168 1.378 . S
C2166 C2170 1.350 . S
C2167 C2170 1.463 . S
C2167 C2172 1.350 . S
C2167 N2175 1.427 . S
C2168 H2159 0.930 . S
C2168 C2166 1.378 . S
C2168 C2169 1.367 . S
C2169 C2168 1.367 . S
C2169 C2171 1.433 . S
C2170 C2166 1.350 . S
C2170 C2167 1.463 . S
C2170 N2174 1.427 . S
C2171 H2161 0.929 . S
C2171 C2169 1.433 . S
C2171 N2174 1.384 . S
C2172 H2163 0.929 . S
C2172 C2164 1.378 . S
C2172 C2167 1.350 . S
C2173 H2160 0.929 . S
C2173 C2165 1.433 . S
C2173 N2175 1.384 . S
N2174 C2170 1.427 . S
N2174 C2171 1.384 . S
N2175 C2167 1.427 . S
N2175 C2173 1.384 . S
H2176 C2182 0.930 . S
H2177 C2186 0.930 . S
H2178 C2191 0.929 . S
H2179 C2189 0.929 . S
H2180 C2184 0.929 . S
H2181 C2190 0.929 . S
C2182 H2176 0.930 . S
C2182 C2183 1.367 . S
C2182 C2190 1.378 . S
C2183 C2182 1.367 . S
C2183 C2191 1.433 . S
C2184 H2180 0.929 . S
C2184 C2186 1.378 . S
C2184 C2188 1.350 . S
C2185 C2188 1.463 . S
C2185 C2190 1.350 . S
C2185 N2193 1.427 . S
C2186 H2177 0.930 . S
C2186 C2184 1.378 . S
C2186 C2187 1.367 . S
C2187 C2186 1.367 . S
C2187 C2189 1.433 . S
C2188 C2184 1.350 . S
C2188 C2185 1.463 . S
C2188 N2192 1.427 . S
C2189 H2179 0.929 . S
C2189 C2187 1.433 . S
C2189 N2192 1.384 . S
C2190 H2181 0.929 . S
C2190 C2182 1.378 . S
C2190 C2185 1.350 . S
C2191 H2178 0.929 . S
C2191 C2183 1.433 . S
C2191 N2193 1.384 . S
N2192 C2188 1.427 . S
N2192 C2189 1.384 . S
N2193 C2185 1.427 . S
N2193 C2191 1.384 . S
H2194 C2200 0.930 1_565 S
H2195 C2204 0.930 . S
H2196 C2209 0.929 . S
H2197 C2207 0.929 . S
H2198 C2202 0.929 . S
H2199 C2208 0.929 . S
C2200 H2194 0.930 1_545 S
C2200 C2201 1.367 1_545 S
C2200 C2208 1.378 . S
C2201 C2200 1.367 1_565 S
C2201 C2209 1.433 1_565 S
C2202 H2198 0.929 . S
C2202 C2204 1.378 . S
C2202 C2206 1.350 . S
C2203 C2206 1.463 . S
C2203 C2208 1.350 . S
C2203 N2211 1.427 . S
C2204 H2195 0.930 . S
C2204 C2202 1.378 . S
C2204 C2205 1.367 . S
C2205 C2204 1.367 . S
C2205 C2207 1.433 . S
C2206 C2202 1.350 . S
C2206 C2203 1.463 . S
C2206 N2210 1.427 . S
C2207 H2197 0.929 . S
C2207 C2205 1.433 . S
C2207 N2210 1.384 . S
C2208 H2199 0.929 . S
C2208 C2200 1.378 . S
C2208 C2203 1.350 . S
C2209 H2196 0.929 . S
C2209 C2201 1.433 1_545 S
C2209 N2211 1.384 . S
N2210 C2206 1.427 . S
N2210 C2207 1.384 . S
N2211 C2203 1.427 . S
N2211 C2209 1.384 . S
H2212 C2218 0.930 . S
H2213 C2222 0.930 1_565 S
H2214 C2227 0.929 . S
H2215 C2225 0.929 . S
H2216 C2220 0.929 . S
H2217 C2226 0.929 . S
C2218 H2212 0.930 . S
C2218 C2219 1.367 . S
C2218 C2226 1.378 . S
C2219 C2218 1.367 . S
C2219 C2227 1.433 . S
C2220 H2216 0.929 . S
C2220 C2222 1.378 . S
C2220 C2224 1.350 . S
C2221 C2224 1.463 . S
C2221 C2226 1.350 . S
C2221 N2229 1.427 . S
C2222 H2213 0.930 1_545 S
C2222 C2220 1.378 . S
C2222 C2223 1.367 . S
C2223 C2222 1.367 . S
C2223 C2225 1.433 . S
C2224 C2220 1.350 . S
C2224 C2221 1.463 . S
C2224 N2228 1.427 . S
C2225 H2215 0.929 . S
C2225 C2223 1.433 . S
C2225 N2228 1.384 . S
C2226 H2217 0.929 . S
C2226 C2218 1.378 . S
C2226 C2221 1.350 . S
C2227 H2214 0.929 . S
C2227 C2219 1.433 . S
C2227 N2229 1.384 . S
N2228 C2224 1.427 . S
N2228 C2225 1.384 . S
N2229 C2221 1.427 . S
N2229 C2227 1.384 . S
H2230 C2236 0.930 . S
H2231 C2240 0.930 . S
H2232 C2245 0.929 . S
H2233 C2243 0.929 . S
H2234 C2238 0.929 . S
H2235 C2244 0.929 . S
C2236 H2230 0.930 . S
C2236 C2237 1.367 . S
C2236 C2244 1.378 . S
C2237 C2236 1.367 . S
C2237 C2245 1.433 . S
C2238 H2234 0.929 . S
C2238 C2240 1.378 . S
C2238 C2242 1.350 . S
C2239 C2242 1.463 . S
C2239 C2244 1.350 . S
C2239 N2247 1.427 . S
C2240 H2231 0.930 . S
C2240 C2238 1.378 . S
C2240 C2241 1.367 . S
C2241 C2240 1.367 . S
C2241 C2243 1.433 . S
C2242 C2238 1.350 . S
C2242 C2239 1.463 . S
C2242 N2246 1.427 . S
C2243 H2233 0.929 . S
C2243 C2241 1.433 . S
C2243 N2246 1.384 . S
C2244 H2235 0.929 . S
C2244 C2236 1.378 . S
C2244 C2239 1.350 . S
C2245 H2232 0.929 . S
C2245 C2237 1.433 . S
C2245 N2247 1.384 . S
N2246 C2242 1.427 . S
N2246 C2243 1.384 . S
N2247 C2239 1.427 . S
N2247 C2245 1.384 . S
H2248 C2254 0.930 . S
H2249 C2258 0.930 . S
H2250 C2263 0.929 . S
H2251 C2261 0.929 . S
H2252 C2256 0.929 . S
H2253 C2262 0.929 . S
C2254 H2248 0.930 . S
C2254 C2255 1.367 . S
C2254 C2262 1.378 . S
C2255 C2254 1.367 . S
C2255 C2263 1.433 . S
C2256 H2252 0.929 . S
C2256 C2258 1.378 . S
C2256 C2260 1.350 . S
C2257 C2260 1.463 . S
C2257 C2262 1.350 . S
C2257 N2265 1.427 . S
C2258 H2249 0.930 . S
C2258 C2256 1.378 . S
C2258 C2259 1.367 . S
C2259 C2258 1.367 . S
C2259 C2261 1.433 . S
C2260 C2256 1.350 . S
C2260 C2257 1.463 . S
C2260 N2264 1.427 . S
C2261 H2251 0.929 . S
C2261 C2259 1.433 . S
C2261 N2264 1.384 . S
C2262 H2253 0.929 . S
C2262 C2254 1.378 . S
C2262 C2257 1.350 . S
C2263 H2250 0.929 . S
C2263 C2255 1.433 . S
C2263 N2265 1.384 . S
N2264 C2260 1.427 . S
N2264 C2261 1.384 . S
N2265 C2257 1.427 . S
N2265 C2263 1.384 . S
H2266 C2272 0.930 . S
H2267 C2276 0.930 . S
H2268 C2281 0.929 . S
H2269 C2279 0.929 . S
H2270 C2274 0.929 . S
H2271 C2280 0.929 . S
C2272 H2266 0.930 . S
C2272 C2273 1.367 . S
C2272 C2280 1.378 1_545 S
C2273 C2272 1.367 . S
C2273 C2281 1.433 1_545 S
C2274 H2270 0.929 . S
C2274 C2276 1.378 . S
C2274 C2278 1.350 . S
C2275 C2278 1.463 . S
C2275 C2280 1.350 . S
C2275 N2283 1.427 . S
C2276 H2267 0.930 . S
C2276 C2274 1.378 . S
C2276 C2277 1.367 . S
C2277 C2276 1.367 . S
C2277 C2279 1.433 . S
C2278 C2274 1.350 . S
C2278 C2275 1.463 . S
C2278 N2282 1.427 . S
C2279 H2269 0.929 . S
C2279 C2277 1.433 . S
C2279 N2282 1.384 . S
C2280 H2271 0.929 . S
C2280 C2272 1.378 1_565 S
C2280 C2275 1.350 . S
C2281 H2268 0.929 . S
C2281 C2273 1.433 1_565 S
C2281 N2283 1.384 . S
N2282 C2278 1.427 . S
N2282 C2279 1.384 . S
N2283 C2275 1.427 . S
N2283 C2281 1.384 . S
H2284 C2290 0.930 . S
H2285 C2294 0.930 1_545 S
H2286 C2299 0.929 . S
H2287 C2297 0.929 . S
H2288 C2292 0.929 . S
H2289 C2298 0.929 . S
C2290 H2284 0.930 . S
C2290 C2291 1.367 . S
C2290 C2298 1.378 . S
C2291 C2290 1.367 . S
C2291 C2299 1.433 . S
C2292 H2288 0.929 . S
C2292 C2294 1.378 . S
C2292 C2296 1.350 . S
C2293 C2296 1.463 . S
C2293 C2298 1.350 . S
C2293 N2301 1.427 . S
C2294 H2285 0.930 1_565 S
C2294 C2292 1.378 . S
C2294 C2295 1.367 . S
C2295 C2294 1.367 . S
C2295 C2297 1.433 . S
C2296 C2292 1.350 . S
C2296 C2293 1.463 . S
C2296 N2300 1.427 . S
C2297 H2287 0.929 . S
C2297 C2295 1.433 . S
C2297 N2300 1.384 . S
C2298 H2289 0.929 . S
C2298 C2290 1.378 . S
C2298 C2293 1.350 . S
C2299 H2286 0.929 . S
C2299 C2291 1.433 . S
C2299 N2301 1.384 . S
N2300 C2296 1.427 . S
N2300 C2297 1.384 . S
N2301 C2293 1.427 . S
N2301 C2299 1.384 . S
H2302 C2308 0.930 . S
H2303 C2312 0.930 . S
H2304 C2317 0.929 . S
H2305 C2315 0.929 . S
H2306 C2310 0.929 . S
H2307 C2316 0.929 . S
C2308 H2302 0.930 . S
C2308 C2309 1.367 . S
C2308 C2316 1.378 . S
C2309 C2308 1.367 . S
C2309 C2317 1.433 . S
C2310 H2306 0.929 . S
C2310 C2312 1.378 . S
C2310 C2314 1.350 . S
C2311 C2314 1.463 . S
C2311 C2316 1.350 . S
C2311 N2319 1.427 . S
C2312 H2303 0.930 . S
C2312 C2310 1.378 . S
C2312 C2313 1.367 . S
C2313 C2312 1.367 . S
C2313 C2315 1.433 . S
C2314 C2310 1.350 . S
C2314 C2311 1.463 . S
C2314 N2318 1.427 . S
C2315 H2305 0.929 . S
C2315 C2313 1.433 . S
C2315 N2318 1.384 . S
C2316 H2307 0.929 . S
C2316 C2308 1.378 . S
C2316 C2311 1.350 . S
C2317 H2304 0.929 . S
C2317 C2309 1.433 . S
C2317 N2319 1.384 . S
N2318 C2314 1.427 . S
N2318 C2315 1.384 . S
N2319 C2311 1.427 . S
N2319 C2317 1.384 . S
H2320 C2326 0.930 . S
H2321 C2330 0.930 . S
H2322 C2335 0.929 . S
H2323 C2333 0.929 . S
H2324 C2328 0.929 . S
H2325 C2334 0.929 . S
C2326 H2320 0.930 . S
C2326 C2327 1.367 . S
C2326 C2334 1.378 . S
C2327 C2326 1.367 . S
C2327 C2335 1.433 . S
C2328 H2324 0.929 . S
C2328 C2330 1.378 . S
C2328 C2332 1.350 . S
C2329 C2332 1.463 . S
C2329 C2334 1.350 . S
C2329 N2337 1.427 . S
C2330 H2321 0.930 . S
C2330 C2328 1.378 . S
C2330 C2331 1.367 . S
C2331 C2330 1.367 . S
C2331 C2333 1.433 . S
C2332 C2328 1.350 . S
C2332 C2329 1.463 . S
C2332 N2336 1.427 . S
C2333 H2323 0.929 . S
C2333 C2331 1.433 . S
C2333 N2336 1.384 . S
C2334 H2325 0.929 . S
C2334 C2326 1.378 . S
C2334 C2329 1.350 . S
C2335 H2322 0.929 . S
C2335 C2327 1.433 . S
C2335 N2337 1.384 . S
N2336 C2332 1.427 . S
N2336 C2333 1.384 . S
N2337 C2329 1.427 . S
N2337 C2335 1.384 . S
H2338 C2344 0.930 . S
H2339 C2348 0.930 . S
H2340 C2353 0.929 . S
H2341 C2351 0.929 . S
H2342 C2346 0.929 . S
H2343 C2352 0.929 . S
C2344 H2338 0.930 . S
C2344 C2345 1.367 . S
C2344 C2352 1.378 . S
C2345 C2344 1.367 . S
C2345 C2353 1.433 . S
C2346 H2342 0.929 . S
C2346 C2348 1.378 . S
C2346 C2350 1.350 . S
C2347 C2350 1.463 . S
C2347 C2352 1.350 . S
C2347 N2355 1.427 . S
C2348 H2339 0.930 . S
C2348 C2346 1.378 . S
C2348 C2349 1.367 . S
C2349 C2348 1.367 . S
C2349 C2351 1.433 . S
C2350 C2346 1.350 . S
C2350 C2347 1.463 . S
C2350 N2354 1.427 . S
C2351 H2341 0.929 . S
C2351 C2349 1.433 . S
C2351 N2354 1.384 . S
C2352 H2343 0.929 . S
C2352 C2344 1.378 . S
C2352 C2347 1.350 . S
C2353 H2340 0.929 . S
C2353 C2345 1.433 . S
C2353 N2355 1.384 . S
N2354 C2350 1.427 . S
N2354 C2351 1.384 . S
N2355 C2347 1.427 . S
N2355 C2353 1.384 . S
H2356 C2362 0.930 . S
H2357 C2366 0.930 . S
H2358 C2371 0.929 . S
H2359 C2369 0.929 . S
H2360 C2364 0.929 . S
H2361 C2370 0.929 . S
C2362 H2356 0.930 . S
C2362 C2363 1.367 . S
C2362 C2370 1.378 . S
C2363 C2362 1.367 . S
C2363 C2371 1.433 . S
C2364 H2360 0.929 . S
C2364 C2366 1.378 . S
C2364 C2368 1.350 . S
C2365 C2368 1.463 . S
C2365 C2370 1.350 . S
C2365 N2373 1.427 . S
C2366 H2357 0.930 . S
C2366 C2364 1.378 . S
C2366 C2367 1.367 . S
C2367 C2366 1.367 . S
C2367 C2369 1.433 . S
C2368 C2364 1.350 . S
C2368 C2365 1.463 . S
C2368 N2372 1.427 . S
C2369 H2359 0.929 . S
C2369 C2367 1.433 . S
C2369 N2372 1.384 . S
C2370 H2361 0.929 . S
C2370 C2362 1.378 . S
C2370 C2365 1.350 . S
C2371 H2358 0.929 . S
C2371 C2363 1.433 . S
C2371 N2373 1.384 . S
N2372 C2368 1.427 . S
N2372 C2369 1.384 . S
N2373 C2365 1.427 . S
N2373 C2371 1.384 . S
H2374 C2380 0.930 . S
H2375 C2384 0.930 . S
H2376 C2389 0.929 . S
H2377 C2387 0.929 . S
H2378 C2382 0.929 . S
H2379 C2388 0.929 . S
C2380 H2374 0.930 . S
C2380 C2381 1.367 . S
C2380 C2388 1.378 . S
C2381 C2380 1.367 . S
C2381 C2389 1.433 . S
C2382 H2378 0.929 . S
C2382 C2384 1.378 . S
C2382 C2386 1.350 . S
C2383 C2386 1.463 . S
C2383 C2388 1.350 . S
C2383 N2391 1.427 . S
C2384 H2375 0.930 . S
C2384 C2382 1.378 . S
C2384 C2385 1.367 . S
C2385 C2384 1.367 . S
C2385 C2387 1.433 . S
C2386 C2382 1.350 . S
C2386 C2383 1.463 . S
C2386 N2390 1.427 . S
C2387 H2377 0.929 . S
C2387 C2385 1.433 . S
C2387 N2390 1.384 . S
C2388 H2379 0.929 . S
C2388 C2380 1.378 . S
C2388 C2383 1.350 . S
C2389 H2376 0.929 . S
C2389 C2381 1.433 . S
C2389 N2391 1.384 . S
N2390 C2386 1.427 . S
N2390 C2387 1.384 . S
N2391 C2383 1.427 . S
N2391 C2389 1.384 . S
H2392 C2398 0.930 . S
H2393 C2402 0.930 . S
H2394 C2407 0.929 . S
H2395 C2405 0.929 . S
H2396 C2400 0.929 . S
H2397 C2406 0.929 . S
C2398 H2392 0.930 . S
C2398 C2399 1.367 . S
C2398 C2406 1.378 . S
C2399 C2398 1.367 . S
C2399 C2407 1.433 . S
C2400 H2396 0.929 . S
C2400 C2402 1.378 . S
C2400 C2404 1.350 . S
C2401 C2404 1.463 . S
C2401 C2406 1.350 . S
C2401 N2409 1.427 . S
C2402 H2393 0.930 . S
C2402 C2400 1.378 . S
C2402 C2403 1.367 . S
C2403 C2402 1.367 . S
C2403 C2405 1.433 . S
C2404 C2400 1.350 . S
C2404 C2401 1.463 . S
C2404 N2408 1.427 . S
C2405 H2395 0.929 . S
C2405 C2403 1.433 . S
C2405 N2408 1.384 . S
C2406 H2397 0.929 . S
C2406 C2398 1.378 . S
C2406 C2401 1.350 . S
C2407 H2394 0.929 . S
C2407 C2399 1.433 . S
C2407 N2409 1.384 . S
N2408 C2404 1.427 . S
N2408 C2405 1.384 . S
N2409 C2401 1.427 . S
N2409 C2407 1.384 . S
H2410 C2416 0.930 . S
H2411 C2420 0.930 . S
H2412 C2425 0.929 . S
H2413 C2423 0.929 . S
H2414 C2418 0.929 . S
H2415 C2424 0.929 . S
C2416 H2410 0.930 . S
C2416 C2417 1.367 . S
C2416 C2424 1.378 . S
C2417 C2416 1.367 . S
C2417 C2425 1.433 . S
C2418 H2414 0.929 . S
C2418 C2420 1.378 . S
C2418 C2422 1.350 . S
C2419 C2422 1.463 . S
C2419 C2424 1.350 . S
C2419 N2427 1.427 . S
C2420 H2411 0.930 . S
C2420 C2418 1.378 . S
C2420 C2421 1.367 . S
C2421 C2420 1.367 . S
C2421 C2423 1.433 . S
C2422 C2418 1.350 . S
C2422 C2419 1.463 . S
C2422 N2426 1.427 . S
C2423 H2413 0.929 . S
C2423 C2421 1.433 . S
C2423 N2426 1.384 . S
C2424 H2415 0.929 . S
C2424 C2416 1.378 . S
C2424 C2419 1.350 . S
C2425 H2412 0.929 . S
C2425 C2417 1.433 . S
C2425 N2427 1.384 . S
N2426 C2422 1.427 . S
N2426 C2423 1.384 . S
N2427 C2419 1.427 . S
N2427 C2425 1.384 . S
H2428 C2434 0.930 . S
H2429 C2438 0.930 . S
H2430 C2443 0.929 . S
H2431 C2441 0.929 . S
H2432 C2436 0.929 . S
H2433 C2442 0.929 . S
C2434 H2428 0.930 . S
C2434 C2435 1.367 . S
C2434 C2442 1.378 . S
C2435 C2434 1.367 . S
C2435 C2443 1.433 . S
C2436 H2432 0.929 . S
C2436 C2438 1.378 . S
C2436 C2440 1.350 . S
C2437 C2440 1.463 . S
C2437 C2442 1.350 . S
C2437 N2445 1.427 . S
C2438 H2429 0.930 . S
C2438 C2436 1.378 . S
C2438 C2439 1.367 . S
C2439 C2438 1.367 . S
C2439 C2441 1.433 . S
C2440 C2436 1.350 . S
C2440 C2437 1.463 . S
C2440 N2444 1.427 . S
C2441 H2431 0.929 . S
C2441 C2439 1.433 . S
C2441 N2444 1.384 . S
C2442 H2433 0.929 . S
C2442 C2434 1.378 . S
C2442 C2437 1.350 . S
C2443 H2430 0.929 . S
C2443 C2435 1.433 . S
C2443 N2445 1.384 . S
N2444 C2440 1.427 . S
N2444 C2441 1.384 . S
N2445 C2437 1.427 . S
N2445 C2443 1.384 . S
H2446 C2452 0.930 . S
H2447 C2456 0.930 . S
H2448 C2461 0.929 . S
H2449 C2459 0.929 . S
H2450 C2454 0.929 . S
H2451 C2460 0.929 . S
C2452 H2446 0.930 . S
C2452 C2453 1.367 . S
C2452 C2460 1.378 . S
C2453 C2452 1.367 . S
C2453 C2461 1.433 . S
C2454 H2450 0.929 . S
C2454 C2456 1.378 . S
C2454 C2458 1.350 . S
C2455 C2458 1.463 . S
C2455 C2460 1.350 . S
C2455 N2463 1.427 . S
C2456 H2447 0.930 . S
C2456 C2454 1.378 . S
C2456 C2457 1.367 . S
C2457 C2456 1.367 . S
C2457 C2459 1.433 . S
C2458 C2454 1.350 . S
C2458 C2455 1.463 . S
C2458 N2462 1.427 . S
C2459 H2449 0.929 . S
C2459 C2457 1.433 . S
C2459 N2462 1.384 . S
C2460 H2451 0.929 . S
C2460 C2452 1.378 . S
C2460 C2455 1.350 . S
C2461 H2448 0.929 . S
C2461 C2453 1.433 . S
C2461 N2463 1.384 . S
N2462 C2458 1.427 . S
N2462 C2459 1.384 . S
N2463 C2455 1.427 . S
N2463 C2461 1.384 . S
H2464 C2470 0.930 . S
H2465 C2474 0.930 . S
H2466 C2479 0.929 . S
H2467 C2477 0.929 . S
H2468 C2472 0.929 . S
H2469 C2478 0.929 . S
C2470 H2464 0.930 . S
C2470 C2471 1.367 . S
C2470 C2478 1.378 . S
C2471 C2470 1.367 . S
C2471 C2479 1.433 . S
C2472 H2468 0.929 . S
C2472 C2474 1.378 . S
C2472 C2476 1.350 . S
C2473 C2476 1.463 . S
C2473 C2478 1.350 . S
C2473 N2481 1.427 . S
C2474 H2465 0.930 . S
C2474 C2472 1.378 . S
C2474 C2475 1.367 . S
C2475 C2474 1.367 . S
C2475 C2477 1.433 . S
C2476 C2472 1.350 . S
C2476 C2473 1.463 . S
C2476 N2480 1.427 . S
C2477 H2467 0.929 . S
C2477 C2475 1.433 . S
C2477 N2480 1.384 . S
C2478 H2469 0.929 . S
C2478 C2470 1.378 . S
C2478 C2473 1.350 . S
C2479 H2466 0.929 . S
C2479 C2471 1.433 . S
C2479 N2481 1.384 . S
N2480 C2476 1.427 . S
N2480 C2477 1.384 . S
N2481 C2473 1.427 . S
N2481 C2479 1.384 . S
H2482 C2488 0.930 1_545 S
H2483 C2492 0.930 . S
H2484 C2497 0.929 . S
H2485 C2495 0.945 . S
H2486 C2490 0.929 . S
H2487 C2496 0.929 1_545 S
C2488 H2482 0.930 1_565 S
C2488 C2489 1.367 . S
C2488 C2496 1.378 . S
C2489 C2488 1.367 . S
C2489 C2497 1.433 . S
C2490 H2486 0.929 . S
C2490 C2492 1.378 . S
C2490 C2494 1.350 . S
C2491 C2494 1.463 . S
C2491 C2496 1.350 . S
C2491 N2499 1.427 . S
C2492 H2483 0.930 . S
C2492 C2490 1.378 . S
C2492 C2493 1.367 . S
C2493 C2492 1.367 . S
C2493 C2495 1.417 1_565 S
C2494 C2490 1.350 . S
C2494 C2491 1.463 . S
C2494 N2498 1.427 . S
C2495 H2485 0.945 . S
C2495 C2493 1.417 1_545 S
C2495 N2498 1.383 1_545 S
C2496 H2487 0.929 1_565 S
C2496 C2488 1.378 . S
C2496 C2491 1.350 . S
C2497 H2484 0.929 . S
C2497 C2489 1.433 . S
C2497 N2499 1.384 . S
N2498 C2494 1.427 . S
N2498 C2495 1.383 1_565 S
N2499 C2491 1.427 . S
N2499 C2497 1.384 . S
H2500 C2506 0.930 . S
H2501 C2510 0.930 . S
H2502 C2515 0.929 . S
H2503 C2513 0.929 . S
H2504 C2508 0.929 . S
H2505 C2514 0.929 . S
C2506 H2500 0.930 . S
C2506 C2507 1.367 . S
C2506 C2514 1.378 . S
C2507 C2506 1.367 . S
C2507 C2515 1.433 . S
C2508 H2504 0.929 . S
C2508 C2510 1.378 . S
C2508 C2512 1.350 . S
C2509 C2512 1.463 . S
C2509 C2514 1.350 . S
C2509 N2517 1.427 . S
C2510 H2501 0.930 . S
C2510 C2508 1.378 . S
C2510 C2511 1.367 . S
C2511 C2510 1.367 . S
C2511 C2513 1.433 . S
C2512 C2508 1.350 . S
C2512 C2509 1.463 . S
C2512 N2516 1.427 . S
C2513 H2503 0.929 . S
C2513 C2511 1.433 . S
C2513 N2516 1.384 . S
C2514 H2505 0.929 . S
C2514 C2506 1.378 . S
C2514 C2509 1.350 . S
C2515 H2502 0.929 . S
C2515 C2507 1.433 . S
C2515 N2517 1.384 . S
N2516 C2512 1.427 . S
N2516 C2513 1.384 . S
N2517 C2509 1.427 . S
N2517 C2515 1.384 . S
H2518 C2524 0.930 . S
H2519 C2528 0.930 . S
H2520 C2533 0.929 . S
H2521 C2531 0.929 . S
H2522 C2526 0.929 . S
H2523 C2532 0.929 . S
C2524 H2518 0.930 . S
C2524 C2525 1.367 . S
C2524 C2532 1.378 . S
C2525 C2524 1.367 . S
C2525 C2533 1.433 . S
C2526 H2522 0.929 . S
C2526 C2528 1.378 . S
C2526 C2530 1.350 . S
C2527 C2530 1.463 . S
C2527 C2532 1.350 . S
C2527 N2535 1.427 . S
C2528 H2519 0.930 . S
C2528 C2526 1.378 . S
C2528 C2529 1.367 . S
C2529 C2528 1.367 . S
C2529 C2531 1.433 . S
C2530 C2526 1.350 . S
C2530 C2527 1.463 . S
C2530 N2534 1.427 . S
C2531 H2521 0.929 . S
C2531 C2529 1.433 . S
C2531 N2534 1.384 . S
C2532 H2523 0.929 . S
C2532 C2524 1.378 . S
C2532 C2527 1.350 . S
C2533 H2520 0.929 . S
C2533 C2525 1.433 . S
C2533 N2535 1.384 . S
N2534 C2530 1.427 . S
N2534 C2531 1.384 . S
N2535 C2527 1.427 . S
N2535 C2533 1.384 . S
H2536 C2542 0.930 . S
H2537 C2546 0.930 . S
H2538 C2551 0.929 . S
H2539 C2549 0.929 . S
H2540 C2544 0.929 . S
H2541 C2550 0.929 . S
C2542 H2536 0.930 . S
C2542 C2543 1.367 . S
C2542 C2550 1.378 . S
C2543 C2542 1.367 . S
C2543 C2551 1.433 . S
C2544 H2540 0.929 . S
C2544 C2546 1.378 . S
C2544 C2548 1.350 . S
C2545 C2548 1.463 . S
C2545 C2550 1.350 . S
C2545 N2553 1.427 . S
C2546 H2537 0.930 . S
C2546 C2544 1.378 . S
C2546 C2547 1.367 . S
C2547 C2546 1.367 . S
C2547 C2549 1.433 . S
C2548 C2544 1.350 . S
C2548 C2545 1.463 . S
C2548 N2552 1.427 . S
C2549 H2539 0.929 . S
C2549 C2547 1.433 . S
C2549 N2552 1.384 . S
C2550 H2541 0.929 . S
C2550 C2542 1.378 . S
C2550 C2545 1.350 . S
C2551 H2538 0.929 . S
C2551 C2543 1.433 . S
C2551 N2553 1.384 . S
N2552 C2548 1.427 . S
N2552 C2549 1.384 . S
N2553 C2545 1.427 . S
N2553 C2551 1.384 . S
H2554 C2560 0.930 . S
H2555 C2564 0.930 . S
H2556 C2569 0.929 . S
H2557 C2567 0.929 . S
H2558 C2562 0.929 . S
H2559 C2568 0.929 . S
C2560 H2554 0.930 . S
C2560 C2561 1.367 . S
C2560 C2568 1.378 . S
C2561 C2560 1.367 . S
C2561 C2569 1.433 . S
C2562 H2558 0.929 . S
C2562 C2564 1.378 . S
C2562 C2566 1.350 . S
C2563 C2566 1.463 . S
C2563 C2568 1.350 . S
C2563 N2571 1.427 . S
C2564 H2555 0.930 . S
C2564 C2562 1.378 . S
C2564 C2565 1.367 . S
C2565 C2564 1.367 . S
C2565 C2567 1.433 . S
C2566 C2562 1.350 . S
C2566 C2563 1.463 . S
C2566 N2570 1.427 . S
C2567 H2557 0.929 . S
C2567 C2565 1.433 . S
C2567 N2570 1.384 . S
C2568 H2559 0.929 . S
C2568 C2560 1.378 . S
C2568 C2563 1.350 . S
C2569 H2556 0.929 . S
C2569 C2561 1.433 . S
C2569 N2571 1.384 . S
N2570 C2566 1.427 . S
N2570 C2567 1.384 . S
N2571 C2563 1.427 . S
N2571 C2569 1.384 . S
H2572 C2578 0.930 . S
H2573 C2582 0.930 . S
H2574 C2587 0.929 . S
H2575 C2585 0.929 . S
H2576 C2580 0.929 . S
H2577 C2586 0.929 . S
C2578 H2572 0.930 . S
C2578 C2579 1.367 . S
C2578 C2586 1.378 . S
C2579 C2578 1.367 . S
C2579 C2587 1.433 . S
C2580 H2576 0.929 . S
C2580 C2582 1.378 . S
C2580 C2584 1.350 . S
C2581 C2584 1.463 . S
C2581 C2586 1.350 . S
C2581 N2589 1.427 . S
C2582 H2573 0.930 . S
C2582 C2580 1.378 . S
C2582 C2583 1.367 . S
C2583 C2582 1.367 . S
C2583 C2585 1.433 . S
C2584 C2580 1.350 . S
C2584 C2581 1.463 . S
C2584 N2588 1.427 . S
C2585 H2575 0.929 . S
C2585 C2583 1.433 . S
C2585 N2588 1.384 . S
C2586 H2577 0.929 . S
C2586 C2578 1.378 . S
C2586 C2581 1.350 . S
C2587 H2574 0.929 . S
C2587 C2579 1.433 . S
C2587 N2589 1.384 . S
N2588 C2584 1.427 . S
N2588 C2585 1.384 . S
N2589 C2581 1.427 . S
N2589 C2587 1.384 . S
H2590 C2596 0.930 . S
H2591 C2600 0.930 . S
H2592 C2605 0.929 . S
H2593 C2603 0.929 . S
H2594 C2598 0.929 . S
H2595 C2604 0.929 . S
C2596 H2590 0.930 . S
C2596 C2597 1.367 . S
C2596 C2604 1.378 . S
C2597 C2596 1.367 . S
C2597 C2605 1.433 . S
C2598 H2594 0.929 . S
C2598 C2600 1.378 . S
C2598 C2602 1.350 . S
C2599 C2602 1.463 . S
C2599 C2604 1.350 . S
C2599 N2607 1.427 . S
C2600 H2591 0.930 . S
C2600 C2598 1.378 . S
C2600 C2601 1.367 . S
C2601 C2600 1.367 . S
C2601 C2603 1.433 . S
C2602 C2598 1.350 . S
C2602 C2599 1.463 . S
C2602 N2606 1.427 . S
C2603 H2593 0.929 . S
C2603 C2601 1.433 . S
C2603 N2606 1.384 . S
C2604 H2595 0.929 . S
C2604 C2596 1.378 . S
C2604 C2599 1.350 . S
C2605 H2592 0.929 . S
C2605 C2597 1.433 . S
C2605 N2607 1.384 . S
N2606 C2602 1.427 . S
N2606 C2603 1.384 . S
N2607 C2599 1.427 . S
N2607 C2605 1.384 . S
H2608 C2614 0.930 . S
H2609 C2618 0.930 . S
H2610 C2623 0.929 . S
H2611 C2621 0.929 . S
H2612 C2616 0.929 . S
H2613 C2622 0.929 . S
C2614 H2608 0.930 . S
C2614 C2615 1.367 . S
C2614 C2622 1.378 . S
C2615 C2614 1.367 . S
C2615 C2623 1.433 . S
C2616 H2612 0.929 . S
C2616 C2618 1.378 . S
C2616 C2620 1.350 . S
C2617 C2620 1.463 . S
C2617 C2622 1.350 . S
C2617 N2625 1.427 . S
C2618 H2609 0.930 . S
C2618 C2616 1.378 . S
C2618 C2619 1.367 . S
C2619 C2618 1.367 . S
C2619 C2621 1.433 . S
C2620 C2616 1.350 . S
C2620 C2617 1.463 . S
C2620 N2624 1.427 . S
C2621 H2611 0.929 . S
C2621 C2619 1.433 . S
C2621 N2624 1.384 . S
C2622 H2613 0.929 . S
C2622 C2614 1.378 . S
C2622 C2617 1.350 . S
C2623 H2610 0.929 . S
C2623 C2615 1.433 . S
C2623 N2625 1.384 . S
N2624 C2620 1.427 . S
N2624 C2621 1.384 . S
N2625 C2617 1.427 . S
N2625 C2623 1.384 . S
H2626 C2632 0.930 . S
H2627 C2636 0.930 . S
H2628 C2641 0.929 . S
H2629 C2639 0.929 . S
H2630 C2634 0.929 . S
H2631 C2640 0.929 . S
C2632 H2626 0.930 . S
C2632 C2633 1.367 . S
C2632 C2640 1.378 . S
C2633 C2632 1.367 . S
C2633 C2641 1.433 . S
C2634 H2630 0.929 . S
C2634 C2636 1.378 . S
C2634 C2638 1.350 . S
C2635 C2638 1.463 . S
C2635 C2640 1.350 . S
C2635 N2643 1.427 . S
C2636 H2627 0.930 . S
C2636 C2634 1.378 . S
C2636 C2637 1.367 . S
C2637 C2636 1.367 . S
C2637 C2639 1.433 . S
C2638 C2634 1.350 . S
C2638 C2635 1.463 . S
C2638 N2642 1.427 . S
C2639 H2629 0.929 . S
C2639 C2637 1.433 . S
C2639 N2642 1.384 . S
C2640 H2631 0.929 . S
C2640 C2632 1.378 . S
C2640 C2635 1.350 . S
C2641 H2628 0.929 . S
C2641 C2633 1.433 . S
C2641 N2643 1.384 . S
N2642 C2638 1.427 . S
N2642 C2639 1.384 . S
N2643 C2635 1.427 . S
N2643 C2641 1.384 . S
H2644 C2650 0.930 . S
H2645 C2654 0.930 . S
H2646 C2659 0.929 . S
H2647 C2657 0.929 . S
H2648 C2652 0.929 . S
H2649 C2658 0.929 . S
C2650 H2644 0.930 . S
C2650 C2651 1.367 . S
C2650 C2658 1.378 . S
C2651 C2650 1.367 . S
C2651 C2659 1.433 . S
C2652 H2648 0.929 . S
C2652 C2654 1.378 . S
C2652 C2656 1.350 . S
C2653 C2656 1.463 . S
C2653 C2658 1.350 . S
C2653 N2661 1.427 . S
C2654 H2645 0.930 . S
C2654 C2652 1.378 . S
C2654 C2655 1.367 . S
C2655 C2654 1.367 . S
C2655 C2657 1.433 . S
C2656 C2652 1.350 . S
C2656 C2653 1.463 . S
C2656 N2660 1.427 . S
C2657 H2647 0.929 . S
C2657 C2655 1.433 . S
C2657 N2660 1.384 . S
C2658 H2649 0.929 . S
C2658 C2650 1.378 . S
C2658 C2653 1.350 . S
C2659 H2646 0.929 . S
C2659 C2651 1.433 . S
C2659 N2661 1.384 . S
N2660 C2656 1.427 . S
N2660 C2657 1.384 . S
N2661 C2653 1.427 . S
N2661 C2659 1.384 . S
H2662 C2668 0.930 . S
H2663 C2672 0.930 . S
H2664 C2677 0.929 . S
H2665 C2675 0.929 1_565 S
H2666 C2670 0.929 . S
H2667 C2676 0.929 . S
C2668 H2662 0.930 . S
C2668 C2669 1.367 . S
C2668 C2676 1.378 . S
C2669 C2668 1.367 . S
C2669 C2677 1.433 . S
C2670 H2666 0.929 . S
C2670 C2672 1.378 . S
C2670 C2674 1.350 . S
C2671 C2674 1.463 . S
C2671 C2676 1.350 . S
C2671 N2679 1.427 . S
C2672 H2663 0.930 . S
C2672 C2670 1.378 . S
C2672 C2673 1.367 . S
C2673 C2672 1.367 . S
C2673 C2675 1.433 . S
C2674 C2670 1.350 . S
C2674 C2671 1.463 . S
C2674 N2678 1.427 . S
C2675 H2665 0.929 1_545 S
C2675 C2673 1.433 . S
C2675 N2678 1.384 . S
C2676 H2667 0.929 . S
C2676 C2668 1.378 . S
C2676 C2671 1.350 . S
C2677 H2664 0.929 . S
C2677 C2669 1.433 . S
C2677 N2679 1.384 . S
N2678 C2674 1.427 . S
N2678 C2675 1.384 . S
N2679 C2671 1.427 . S
N2679 C2677 1.384 . S
H2680 C2686 0.930 . S
H2681 C2690 0.930 . S
H2682 C2695 0.929 . S
H2683 C2693 0.929 . S
H2684 C2688 0.929 . S
H2685 C2694 0.929 . S
C2686 H2680 0.930 . S
C2686 C2687 1.367 . S
C2686 C2694 1.378 . S
C2687 C2686 1.367 . S
C2687 C2695 1.433 . S
C2688 H2684 0.929 . S
C2688 C2690 1.378 . S
C2688 C2692 1.350 . S
C2689 C2692 1.463 . S
C2689 C2694 1.350 . S
C2689 N2697 1.427 . S
C2690 H2681 0.930 . S
C2690 C2688 1.378 . S
C2690 C2691 1.367 . S
C2691 C2690 1.367 . S
C2691 C2693 1.433 . S
C2692 C2688 1.350 . S
C2692 C2689 1.463 . S
C2692 N2696 1.427 . S
C2693 H2683 0.929 . S
C2693 C2691 1.433 . S
C2693 N2696 1.384 . S
C2694 H2685 0.929 . S
C2694 C2686 1.378 . S
C2694 C2689 1.350 . S
C2695 H2682 0.929 . S
C2695 C2687 1.433 . S
C2695 N2697 1.384 . S
N2696 C2692 1.427 . S
N2696 C2693 1.384 . S
N2697 C2689 1.427 . S
N2697 C2695 1.384 . S
H2698 C2704 0.930 . S
H2699 C2708 0.930 . S
H2700 C2713 0.929 . S
H2701 C2711 0.929 . S
H2702 C2706 0.929 . S
H2703 C2712 0.929 . S
C2704 H2698 0.930 . S
C2704 C2705 1.367 . S
C2704 C2712 1.378 . S
C2705 C2704 1.367 . S
C2705 C2713 1.433 . S
C2706 H2702 0.929 . S
C2706 C2708 1.378 . S
C2706 C2710 1.350 . S
C2707 C2710 1.463 . S
C2707 C2712 1.350 . S
C2707 N2715 1.427 . S
C2708 H2699 0.930 . S
C2708 C2706 1.378 . S
C2708 C2709 1.367 . S
C2709 C2708 1.367 . S
C2709 C2711 1.433 . S
C2710 C2706 1.350 . S
C2710 C2707 1.463 . S
C2710 N2714 1.427 . S
C2711 H2701 0.929 . S
C2711 C2709 1.433 . S
C2711 N2714 1.384 . S
C2712 H2703 0.929 . S
C2712 C2704 1.378 . S
C2712 C2707 1.350 . S
C2713 H2700 0.929 . S
C2713 C2705 1.433 . S
C2713 N2715 1.384 . S
N2714 C2710 1.427 . S
N2714 C2711 1.384 . S
N2715 C2707 1.427 . S
N2715 C2713 1.384 . S
H2716 C2722 0.930 . S
H2717 C2726 0.930 . S
H2718 C2731 0.929 . S
H2719 C2729 0.929 . S
H2720 C2724 0.929 . S
H2721 C2730 0.929 . S
C2722 H2716 0.930 . S
C2722 C2723 1.367 . S
C2722 C2730 1.378 . S
C2723 C2722 1.367 . S
C2723 C2731 1.433 . S
C2724 H2720 0.929 . S
C2724 C2726 1.378 . S
C2724 C2728 1.350 . S
C2725 C2728 1.463 . S
C2725 C2730 1.350 . S
C2725 N2733 1.427 . S
C2726 H2717 0.930 . S
C2726 C2724 1.378 . S
C2726 C2727 1.367 . S
C2727 C2726 1.367 . S
C2727 C2729 1.433 . S
C2728 C2724 1.350 . S
C2728 C2725 1.463 . S
C2728 N2732 1.427 . S
C2729 H2719 0.929 . S
C2729 C2727 1.433 . S
C2729 N2732 1.384 . S
C2730 H2721 0.929 . S
C2730 C2722 1.378 . S
C2730 C2725 1.350 . S
C2731 H2718 0.929 . S
C2731 C2723 1.433 . S
C2731 N2733 1.384 . S
N2732 C2728 1.427 . S
N2732 C2729 1.384 . S
N2733 C2725 1.427 . S
N2733 C2731 1.384 . S
H2734 C2740 0.930 . S
H2735 C2744 0.930 . S
H2736 C2749 0.929 . S
H2737 C2747 0.929 . S
H2738 C2742 0.929 . S
H2739 C2748 0.929 . S
C2740 H2734 0.930 . S
C2740 C2741 1.367 . S
C2740 C2748 1.378 . S
C2741 C2740 1.367 . S
C2741 C2749 1.433 . S
C2742 H2738 0.929 . S
C2742 C2744 1.378 . S
C2742 C2746 1.350 . S
C2743 C2746 1.463 . S
C2743 C2748 1.350 . S
C2743 N2751 1.427 . S
C2744 H2735 0.930 . S
C2744 C2742 1.378 . S
C2744 C2745 1.367 . S
C2745 C2744 1.367 . S
C2745 C2747 1.433 . S
C2746 C2742 1.350 . S
C2746 C2743 1.463 . S
C2746 N2750 1.427 . S
C2747 H2737 0.929 . S
C2747 C2745 1.433 . S
C2747 N2750 1.384 . S
C2748 H2739 0.929 . S
C2748 C2740 1.378 . S
C2748 C2743 1.350 . S
C2749 H2736 0.929 . S
C2749 C2741 1.433 . S
C2749 N2751 1.384 . S
N2750 C2746 1.427 . S
N2750 C2747 1.384 . S
N2751 C2743 1.427 . S
N2751 C2749 1.384 . S
H2752 C2758 0.930 . S
H2753 C2762 0.930 . S
H2754 C2767 0.929 . S
H2755 C2765 0.929 . S
H2756 C2760 0.929 . S
H2757 C2766 0.929 . S
C2758 H2752 0.930 . S
C2758 C2759 1.367 1_655 S
C2758 C2766 1.378 . S
C2759 C2758 1.367 1_455 S
C2759 C2767 1.433 1_556 S
C2760 H2756 0.929 . S
C2760 C2762 1.378 . S
C2760 C2764 1.340 1_455 S
C2761 C2764 1.457 1_456 S
C2761 C2766 1.340 1_455 S
C2761 N2769 1.442 1_556 S
C2762 H2753 0.930 . S
C2762 C2760 1.378 . S
C2762 C2763 1.367 1_455 S
C2763 C2762 1.367 1_655 S
C2763 C2765 1.433 1_554 S
C2764 C2760 1.340 1_655 S
C2764 C2761 1.457 1_654 S
C2764 N2768 1.442 1_554 S
C2765 H2755 0.929 . S
C2765 C2763 1.433 1_556 S
C2765 N2768 1.384 . S
C2766 H2757 0.929 . S
C2766 C2758 1.378 . S
C2766 C2761 1.340 1_655 S
C2767 H2754 0.929 . S
C2767 C2759 1.433 1_554 S
C2767 N2769 1.384 . S
N2768 C2764 1.442 1_556 S
N2768 C2765 1.384 . S
N2769 C2761 1.442 1_554 S
N2769 C2767 1.384 . S
H2770 C2776 0.930 . S
H2771 C2780 0.930 . S
H2772 C2785 0.929 . S
H2773 C2783 0.929 . S
H2774 C2778 0.929 . S
H2775 C2784 0.929 . S
C2776 H2770 0.930 . S
C2776 C2777 1.369 . S
C2776 C2784 1.378 . S
C2777 C2776 1.369 . S
C2777 C2785 1.431 1_556 S
C2778 H2774 0.929 . S
C2778 C2780 1.378 . S
C2778 C2782 1.352 . S
C2779 C2782 1.462 1_556 S
C2779 C2784 1.353 . S
C2779 N2787 1.425 1_556 S
C2780 H2771 0.930 . S
C2780 C2778 1.378 . S
C2780 C2781 1.369 . S
C2781 C2780 1.369 . S
C2781 C2783 1.431 1_554 S
C2782 C2778 1.352 . S
C2782 C2779 1.462 1_554 S
C2782 N2786 1.425 1_554 S
C2783 H2773 0.929 . S
C2783 C2781 1.431 1_556 S
C2783 N2786 1.384 . S
C2784 H2775 0.929 . S
C2784 C2776 1.378 . S
C2784 C2779 1.353 . S
C2785 H2772 0.929 . S
C2785 C2777 1.431 1_554 S
C2785 N2787 1.384 . S
N2786 C2782 1.425 1_556 S
N2786 C2783 1.384 . S
N2787 C2779 1.425 1_554 S
N2787 C2785 1.384 . S
H2788 C2794 0.930 . S
H2789 C2798 0.930 . S
H2790 C2803 0.929 . S
H2791 C2801 0.929 . S
H2792 C2796 0.929 . S
H2793 C2802 0.929 . S
C2794 H2788 0.930 . S
C2794 C2795 1.367 . S
C2794 C2802 1.378 . S
C2795 C2794 1.367 . S
C2795 C2803 1.433 1_655 S
C2796 H2792 0.929 . S
C2796 C2798 1.378 . S
C2796 C2800 1.350 . S
C2797 C2800 1.463 1_655 S
C2797 C2802 1.350 . S
C2797 N2805 1.427 1_655 S
C2798 H2789 0.930 . S
C2798 C2796 1.378 . S
C2798 C2799 1.367 . S
C2799 C2798 1.367 . S
C2799 C2801 1.433 1_455 S
C2800 C2796 1.350 . S
C2800 C2797 1.463 1_455 S
C2800 N2804 1.427 1_455 S
C2801 H2791 0.929 . S
C2801 C2799 1.433 1_655 S
C2801 N2804 1.384 . S
C2802 H2793 0.929 . S
C2802 C2794 1.378 . S
C2802 C2797 1.350 . S
C2803 H2790 0.929 . S
C2803 C2795 1.433 1_455 S
C2803 N2805 1.384 . S
N2804 C2800 1.427 1_655 S
N2804 C2801 1.384 . S
N2805 C2797 1.427 1_455 S
N2805 C2803 1.384 . S
H2806 C2812 0.930 . S
H2807 C2816 0.930 . S
H2808 C2821 0.929 . S
H2809 C2819 0.929 . S
H2810 C2814 0.929 . S
H2811 C2820 0.929 . S
C2812 H2806 0.930 . S
C2812 C2813 1.367 . S
C2812 C2820 1.378 . S
C2813 C2812 1.367 . S
C2813 C2821 1.433 . S
C2814 H2810 0.929 . S
C2814 C2816 1.378 . S
C2814 C2818 1.350 . S
C2815 C2818 1.463 . S
C2815 C2820 1.350 . S
C2815 N2823 1.427 . S
C2816 H2807 0.930 . S
C2816 C2814 1.378 . S
C2816 C2817 1.367 . S
C2817 C2816 1.367 . S
C2817 C2819 1.433 . S
C2818 C2814 1.350 . S
C2818 C2815 1.463 . S
C2818 N2822 1.427 . S
C2819 H2809 0.929 . S
C2819 C2817 1.433 . S
C2819 N2822 1.384 . S
C2820 H2811 0.929 . S
C2820 C2812 1.378 . S
C2820 C2815 1.350 . S
C2821 H2808 0.929 . S
C2821 C2813 1.433 . S
C2821 N2823 1.384 . S
N2822 C2818 1.427 . S
N2822 C2819 1.384 . S
N2823 C2815 1.427 . S
N2823 C2821 1.384 . S
H2824 C2830 0.930 . S
H2825 C2834 0.930 . S
H2826 C2839 0.929 . S
H2827 C2837 0.929 . S
H2828 C2832 0.929 . S
H2829 C2838 0.929 . S
C2830 H2824 0.930 . S
C2830 C2831 1.384 . S
C2830 C2838 1.378 . S
C2831 C2830 1.384 . S
C2831 C2839 1.416 1_556 S
C2832 H2828 0.929 . S
C2832 C2834 1.378 . S
C2832 C2836 1.381 . S
C2833 C2836 1.461 1_556 S
C2833 C2838 1.381 . S
C2833 N2841 1.396 1_556 S
C2834 H2825 0.930 . S
C2834 C2832 1.378 . S
C2834 C2835 1.384 . S
C2835 C2834 1.384 . S
C2835 C2837 1.416 1_554 S
C2836 C2832 1.381 . S
C2836 C2833 1.461 1_554 S
C2836 N2840 1.396 1_554 S
C2837 H2827 0.929 . S
C2837 C2835 1.416 1_556 S
C2837 N2840 1.384 . S
C2838 H2829 0.929 . S
C2838 C2830 1.378 . S
C2838 C2833 1.381 . S
C2839 H2826 0.929 . S
C2839 C2831 1.416 1_554 S
C2839 N2841 1.384 . S
N2840 C2836 1.396 1_556 S
N2840 C2837 1.384 . S
N2841 C2833 1.396 1_554 S
N2841 C2839 1.384 . S
H2842 C2848 0.930 . S
H2843 C2852 0.930 . S
H2844 C2857 0.929 . S
H2845 C2855 0.929 . S
H2846 C2850 0.929 . S
H2847 C2856 0.929 . S
C2848 H2842 0.930 . S
C2848 C2849 1.367 . S
C2848 C2856 1.378 . S
C2849 C2848 1.367 . S
C2849 C2857 1.433 1_455 S
C2850 H2846 0.929 . S
C2850 C2852 1.378 . S
C2850 C2854 1.350 . S
C2851 C2854 1.463 1_455 S
C2851 C2856 1.350 . S
C2851 N2859 1.427 1_455 S
C2852 H2843 0.930 . S
C2852 C2850 1.378 . S
C2852 C2853 1.367 . S
C2853 C2852 1.367 . S
C2853 C2855 1.433 1_655 S
C2854 C2850 1.350 . S
C2854 C2851 1.463 1_655 S
C2854 N2858 1.427 1_655 S
C2855 H2845 0.929 . S
C2855 C2853 1.433 1_455 S
C2855 N2858 1.384 . S
C2856 H2847 0.929 . S
C2856 C2848 1.378 . S
C2856 C2851 1.350 . S
C2857 H2844 0.929 . S
C2857 C2849 1.433 1_655 S
C2857 N2859 1.384 . S
N2858 C2854 1.427 1_455 S
N2858 C2855 1.384 . S
N2859 C2851 1.427 1_655 S
N2859 C2857 1.384 . S
H2860 C2866 0.930 . S
H2861 C2870 0.930 . S
H2862 C2875 0.929 . S
H2863 C2873 0.929 . S
H2864 C2868 0.929 . S
H2865 C2874 0.929 . S
C2866 H2860 0.930 . S
C2866 C2867 1.367 . S
C2866 C2874 1.378 . S
C2867 C2866 1.367 . S
C2867 C2875 1.433 . S
C2868 H2864 0.929 . S
C2868 C2870 1.378 . S
C2868 C2872 1.350 . S
C2869 C2872 1.463 . S
C2869 C2874 1.350 . S
C2869 N2877 1.427 . S
C2870 H2861 0.930 . S
C2870 C2868 1.378 . S
C2870 C2871 1.367 . S
C2871 C2870 1.367 . S
C2871 C2873 1.433 . S
C2872 C2868 1.350 . S
C2872 C2869 1.463 . S
C2872 N2876 1.427 . S
C2873 H2863 0.929 . S
C2873 C2871 1.433 . S
C2873 N2876 1.384 . S
C2874 H2865 0.929 . S
C2874 C2866 1.378 . S
C2874 C2869 1.350 . S
C2875 H2862 0.929 . S
C2875 C2867 1.433 . S
C2875 N2877 1.384 . S
N2876 C2872 1.427 . S
N2876 C2873 1.384 . S
N2877 C2869 1.427 . S
N2877 C2875 1.384 . S
H2878 C2884 0.930 . S
H2879 C2888 0.930 . S
H2880 C2893 0.929 . S
H2881 C2891 0.929 . S
H2882 C2886 0.929 . S
H2883 C2892 0.929 . S
C2884 H2878 0.930 . S
C2884 C2885 1.367 . S
C2884 C2892 1.378 . S
C2885 C2884 1.367 . S
C2885 C2893 1.433 1_655 S
C2886 H2882 0.929 . S
C2886 C2888 1.378 . S
C2886 C2890 1.350 . S
C2887 C2890 1.463 1_645 S
C2887 C2892 1.350 . S
C2887 N2895 1.427 1_655 S
C2888 H2879 0.930 . S
C2888 C2886 1.378 . S
C2888 C2889 1.367 . S
C2889 C2888 1.367 . S
C2889 C2891 1.433 1_455 S
C2890 C2886 1.350 . S
C2890 C2887 1.463 1_465 S
C2890 N2894 1.427 1_455 S
C2891 H2881 0.929 . S
C2891 C2889 1.433 1_655 S
C2891 N2894 1.384 . S
C2892 H2883 0.929 . S
C2892 C2884 1.378 . S
C2892 C2887 1.350 . S
C2893 H2880 0.929 . S
C2893 C2885 1.433 1_455 S
C2893 N2895 1.384 . S
N2894 C2890 1.427 1_655 S
N2894 C2891 1.384 . S
N2895 C2887 1.427 1_455 S
N2895 C2893 1.384 . S
H2896 C2902 0.930 . S
H2897 C2906 0.930 . S
H2898 C2911 0.929 . S
H2899 C2909 0.929 . S
H2900 C2904 0.929 . S
H2901 C2910 0.929 . S
C2902 H2896 0.930 . S
C2902 C2903 1.367 . S
C2902 C2910 1.378 . S
C2903 C2902 1.367 . S
C2903 C2911 1.433 . S
C2904 H2900 0.929 . S
C2904 C2906 1.378 . S
C2904 C2908 1.350 . S
C2905 C2908 1.463 . S
C2905 C2910 1.350 . S
C2905 N2913 1.427 . S
C2906 H2897 0.930 . S
C2906 C2904 1.378 . S
C2906 C2907 1.367 . S
C2907 C2906 1.367 . S
C2907 C2909 1.433 . S
C2908 C2904 1.350 . S
C2908 C2905 1.463 . S
C2908 N2912 1.427 . S
C2909 H2899 0.929 . S
C2909 C2907 1.433 . S
C2909 N2912 1.384 . S
C2910 H2901 0.929 . S
C2910 C2902 1.378 . S
C2910 C2905 1.350 . S
C2911 H2898 0.929 . S
C2911 C2903 1.433 . S
C2911 N2913 1.384 . S
N2912 C2908 1.427 . S
N2912 C2909 1.384 . S
N2913 C2905 1.427 . S
N2913 C2911 1.384 . S
H2914 C2920 0.930 . S
H2915 C2924 0.930 . S
H2916 C2929 0.929 . S
H2917 C2927 0.929 . S
H2918 C2922 0.929 . S
H2919 C2928 0.929 . S
C2920 H2914 0.930 . S
C2920 C2921 1.367 . S
C2920 C2928 1.378 . S
C2921 C2920 1.367 . S
C2921 C2929 1.433 . S
C2922 H2918 0.929 . S
C2922 C2924 1.378 . S
C2922 C2926 1.350 . S
C2923 C2926 1.463 1_565 S
C2923 C2928 1.350 . S
C2923 N2931 1.427 . S
C2924 H2915 0.930 . S
C2924 C2922 1.378 . S
C2924 C2925 1.367 . S
C2925 C2924 1.367 . S
C2925 C2927 1.433 . S
C2926 C2922 1.350 . S
C2926 C2923 1.463 1_545 S
C2926 N2930 1.427 . S
C2927 H2917 0.929 . S
C2927 C2925 1.433 . S
C2927 N2930 1.384 . S
C2928 H2919 0.929 . S
C2928 C2920 1.378 . S
C2928 C2923 1.350 . S
C2929 H2916 0.929 . S
C2929 C2921 1.433 . S
C2929 N2931 1.384 . S
N2930 C2926 1.427 . S
N2930 C2927 1.384 . S
N2931 C2923 1.427 . S
N2931 C2929 1.384 . S
H2932 C2938 0.930 . S
H2933 C2942 0.930 . S
H2934 C2947 0.929 . S
H2935 C2945 0.929 . S
H2936 C2940 0.929 . S
H2937 C2946 0.929 . S
C2938 H2932 0.930 . S
C2938 C2939 1.367 . S
C2938 C2946 1.378 . S
C2939 C2938 1.367 . S
C2939 C2947 1.433 . S
C2940 H2936 0.929 . S
C2940 C2942 1.378 . S
C2940 C2944 1.350 . S
C2941 C2944 1.463 . S
C2941 C2946 1.350 . S
C2941 N2949 1.427 . S
C2942 H2933 0.930 . S
C2942 C2940 1.378 . S
C2942 C2943 1.367 . S
C2943 C2942 1.367 . S
C2943 C2945 1.433 . S
C2944 C2940 1.350 . S
C2944 C2941 1.463 . S
C2944 N2948 1.427 . S
C2945 H2935 0.929 . S
C2945 C2943 1.433 . S
C2945 N2948 1.384 . S
C2946 H2937 0.929 . S
C2946 C2938 1.378 . S
C2946 C2941 1.350 . S
C2947 H2934 0.929 . S
C2947 C2939 1.433 . S
C2947 N2949 1.384 . S
N2948 C2944 1.427 . S
N2948 C2945 1.384 . S
N2949 C2941 1.427 . S
N2949 C2947 1.384 . S
H2950 C2956 0.930 . S
H2951 C2960 0.930 . S
H2952 C2965 0.929 . S
H2953 C2963 0.929 . S
H2954 C2958 0.929 . S
H2955 C2964 0.929 . S
C2956 H2950 0.930 . S
C2956 C2957 1.367 . S
C2956 C2964 1.378 . S
C2957 C2956 1.367 . S
C2957 C2965 1.433 . S
C2958 H2954 0.929 . S
C2958 C2960 1.378 . S
C2958 C2962 1.350 . S
C2959 C2962 1.463 1_565 S
C2959 C2964 1.350 . S
C2959 N2967 1.427 . S
C2960 H2951 0.930 . S
C2960 C2958 1.378 . S
C2960 C2961 1.367 . S
C2961 C2960 1.367 . S
C2961 C2963 1.433 . S
C2962 C2958 1.350 . S
C2962 C2959 1.463 1_545 S
C2962 N2966 1.427 . S
C2963 H2953 0.929 . S
C2963 C2961 1.433 . S
C2963 N2966 1.384 . S
C2964 H2955 0.929 . S
C2964 C2956 1.378 . S
C2964 C2959 1.350 . S
C2965 H2952 0.929 . S
C2965 C2957 1.433 . S
C2965 N2967 1.384 . S
N2966 C2962 1.427 . S
N2966 C2963 1.384 . S
N2967 C2959 1.427 . S
N2967 C2965 1.384 . S
H2968 C2974 0.930 . S
H2969 C2978 0.930 . S
H2970 C2983 0.929 . S
H2971 C2981 0.929 . S
H2972 C2976 0.929 . S
H2973 C2982 0.929 . S
C2974 H2968 0.930 . S
C2974 C2975 1.367 . S
C2974 C2982 1.378 . S
C2975 C2974 1.367 . S
C2975 C2983 1.433 . S
C2976 H2972 0.929 . S
C2976 C2978 1.378 . S
C2976 C2980 1.350 . S
C2977 C2980 1.463 . S
C2977 C2982 1.350 . S
C2977 N2985 1.427 . S
C2978 H2969 0.930 . S
C2978 C2976 1.378 . S
C2978 C2979 1.367 . S
C2979 C2978 1.367 . S
C2979 C2981 1.433 . S
C2980 C2976 1.350 . S
C2980 C2977 1.463 . S
C2980 N2984 1.427 . S
C2981 H2971 0.929 . S
C2981 C2979 1.433 . S
C2981 N2984 1.384 . S
C2982 H2973 0.929 . S
C2982 C2974 1.378 . S
C2982 C2977 1.350 . S
C2983 H2970 0.929 . S
C2983 C2975 1.433 . S
C2983 N2985 1.384 . S
N2984 C2980 1.427 . S
N2984 C2981 1.384 . S
N2985 C2977 1.427 . S
N2985 C2983 1.384 . S
H2986 C2992 0.930 . S
H2987 C2996 0.930 . S
H2988 C3001 0.929 . S
H2989 C2999 0.929 . S
H2990 C2994 0.929 . S
H2991 C3000 0.929 . S
C2992 H2986 0.930 . S
C2992 C2993 1.367 . S
C2992 C3000 1.378 . S
C2993 C2992 1.367 . S
C2993 C3001 1.433 . S
C2994 H2990 0.929 . S
C2994 C2996 1.378 . S
C2994 C2998 1.350 . S
C2995 C2998 1.463 . S
C2995 C3000 1.350 . S
C2995 N3003 1.427 . S
C2996 H2987 0.930 . S
C2996 C2994 1.378 . S
C2996 C2997 1.367 . S
C2997 C2996 1.367 . S
C2997 C2999 1.433 . S
C2998 C2994 1.350 . S
C2998 C2995 1.463 . S
C2998 N3002 1.427 . S
C2999 H2989 0.929 . S
C2999 C2997 1.433 . S
C2999 N3002 1.384 . S
C3000 H2991 0.929 . S
C3000 C2992 1.378 . S
C3000 C2995 1.350 . S
C3001 H2988 0.929 . S
C3001 C2993 1.433 . S
C3001 N3003 1.384 . S
N3002 C2998 1.427 . S
N3002 C2999 1.384 . S
N3003 C2995 1.427 . S
N3003 C3001 1.384 . S
H3004 C3010 0.930 . S
H3005 C3014 0.930 . S
H3006 C3019 0.929 . S
H3007 C3017 0.929 . S
H3008 C3012 0.929 . S
H3009 C3018 0.929 . S
C3010 H3004 0.930 . S
C3010 C3011 1.367 . S
C3010 C3018 1.378 . S
C3011 C3010 1.367 . S
C3011 C3019 1.433 . S
C3012 H3008 0.929 . S
C3012 C3014 1.378 . S
C3012 C3016 1.350 . S
C3013 C3016 1.463 . S
C3013 C3018 1.350 . S
C3013 N3021 1.427 . S
C3014 H3005 0.930 . S
C3014 C3012 1.378 . S
C3014 C3015 1.367 . S
C3015 C3014 1.367 . S
C3015 C3017 1.433 . S
C3016 C3012 1.350 . S
C3016 C3013 1.463 . S
C3016 N3020 1.427 . S
C3017 H3007 0.929 . S
C3017 C3015 1.433 . S
C3017 N3020 1.384 . S
C3018 H3009 0.929 . S
C3018 C3010 1.378 . S
C3018 C3013 1.350 . S
C3019 H3006 0.929 . S
C3019 C3011 1.433 . S
C3019 N3021 1.384 . S
N3020 C3016 1.427 . S
N3020 C3017 1.384 . S
N3021 C3013 1.427 . S
N3021 C3019 1.384 . S
H3022 C3028 0.930 . S
H3023 C3032 0.930 . S
H3024 C3037 0.929 . S
H3025 C3035 0.929 . S
H3026 C3030 0.929 . S
H3027 C3036 0.929 . S
C3028 H3022 0.930 . S
C3028 C3029 1.367 . S
C3028 C3036 1.378 . S
C3029 C3028 1.367 . S
C3029 C3037 1.433 1_554 S
C3030 H3026 0.929 . S
C3030 C3032 1.378 . S
C3030 C3034 1.350 . S
C3031 C3034 1.463 1_544 S
C3031 C3036 1.350 . S
C3031 N3039 1.427 1_554 S
C3032 H3023 0.930 . S
C3032 C3030 1.378 . S
C3032 C3033 1.367 . S
C3033 C3032 1.367 . S
C3033 C3035 1.433 1_556 S
C3034 C3030 1.350 . S
C3034 C3031 1.463 1_566 S
C3034 N3038 1.427 1_556 S
C3035 H3025 0.929 . S
C3035 C3033 1.433 1_554 S
C3035 N3038 1.384 . S
C3036 H3027 0.929 . S
C3036 C3028 1.378 . S
C3036 C3031 1.350 . S
C3037 H3024 0.929 . S
C3037 C3029 1.433 1_556 S
C3037 N3039 1.384 . S
N3038 C3034 1.427 1_554 S
N3038 C3035 1.384 . S
N3039 C3031 1.427 1_556 S
N3039 C3037 1.384 . S
H3040 C3046 0.930 . S
H3041 C3050 0.929 . S
H3042 C3055 0.929 . S
H3043 C3053 0.929 . S
H3044 C3048 0.927 . S
H3045 C3054 0.929 . S
C3046 H3040 0.930 . S
C3046 C3047 1.367 . S
C3046 C3054 1.378 . S
C3047 C3046 1.367 . S
C3047 C3055 1.433 . S
C3048 H3044 0.927 . S
C3048 C3050 1.378 . S
C3048 C3052 1.350 . S
C3049 C3052 1.463 . S
C3049 C3054 1.350 . S
C3049 N3057 1.427 . S
C3050 H3041 0.929 . S
C3050 C3048 1.378 . S
C3050 C3051 1.367 . S
C3051 C3050 1.367 . S
C3051 C3053 1.433 . S
C3052 C3048 1.350 . S
C3052 C3049 1.463 . S
C3052 N3056 1.427 . S
C3053 H3043 0.929 . S
C3053 C3051 1.433 . S
C3053 N3056 1.384 . S
C3054 H3045 0.929 . S
C3054 C3046 1.378 . S
C3054 C3049 1.350 . S
C3055 H3042 0.929 . S
C3055 C3047 1.433 . S
C3055 N3057 1.384 . S
N3056 C3052 1.427 . S
N3056 C3053 1.384 . S
N3057 C3049 1.427 . S
N3057 C3055 1.384 . S
H3058 C3064 0.930 . S
H3059 C3068 0.930 . S
H3060 C3073 0.929 . S
H3061 C3071 0.929 . S
H3062 C3066 0.929 . S
H3063 C3072 0.929 . S
C3064 H3058 0.930 . S
C3064 C3065 1.367 . S
C3064 C3072 1.378 . S
C3065 C3064 1.367 . S
C3065 C3073 1.433 . S
C3066 H3062 0.929 . S
C3066 C3068 1.378 . S
C3066 C3070 1.350 . S
C3067 C3070 1.463 . S
C3067 C3072 1.350 . S
C3067 N3075 1.427 . S
C3068 H3059 0.930 . S
C3068 C3066 1.378 . S
C3068 C3069 1.367 . S
C3069 C3068 1.367 . S
C3069 C3071 1.433 . S
C3070 C3066 1.350 . S
C3070 C3067 1.463 . S
C3070 N3074 1.427 . S
C3071 H3061 0.929 . S
C3071 C3069 1.433 . S
C3071 N3074 1.384 . S
C3072 H3063 0.929 . S
C3072 C3064 1.378 . S
C3072 C3067 1.350 . S
C3073 H3060 0.929 . S
C3073 C3065 1.433 . S
C3073 N3075 1.384 . S
N3074 C3070 1.427 . S
N3074 C3071 1.384 . S
N3075 C3067 1.427 . S
N3075 C3073 1.384 . S
H3076 C3082 0.930 . S
H3077 C3086 0.930 . S
H3078 C3091 0.929 . S
H3079 C3089 0.929 . S
H3080 C3084 0.929 . S
H3081 C3090 0.929 . S
C3082 H3076 0.930 . S
C3082 C3083 1.367 . S
C3082 C3090 1.378 . S
C3083 C3082 1.367 . S
C3083 C3091 1.433 1_655 S
C3084 H3080 0.929 . S
C3084 C3086 1.378 . S
C3084 C3088 1.350 1_455 S
C3085 C3088 1.463 . S
C3085 C3090 1.350 . S
C3085 N3093 1.427 1_655 S
C3086 H3077 0.930 . S
C3086 C3084 1.378 . S
C3086 C3087 1.367 1_455 S
C3087 C3086 1.367 1_655 S
C3087 C3089 1.433 . S
C3088 C3084 1.350 1_655 S
C3088 C3085 1.463 . S
C3088 N3092 1.427 . S
C3089 H3079 0.929 . S
C3089 C3087 1.433 . S
C3089 N3092 1.384 . S
C3090 H3081 0.929 . S
C3090 C3082 1.378 . S
C3090 C3085 1.350 . S
C3091 H3078 0.929 . S
C3091 C3083 1.433 1_455 S
C3091 N3093 1.384 . S
N3092 C3088 1.427 . S
N3092 C3089 1.384 . S
N3093 C3085 1.427 1_455 S
N3093 C3091 1.384 . S
H3094 C3100 0.930 . S
H3095 C3104 0.930 . S
H3096 C3109 0.929 . S
H3097 C3107 0.929 . S
H3098 C3102 0.929 . S
H3099 C3108 0.929 . S
C3100 H3094 0.930 . S
C3100 C3101 1.367 . S
C3100 C3108 1.378 . S
C3101 C3100 1.367 . S
C3101 C3109 1.433 . S
C3102 H3098 0.929 . S
C3102 C3104 1.378 . S
C3102 C3106 1.350 . S
C3103 C3106 1.463 . S
C3103 C3108 1.350 . S
C3103 N3111 1.427 . S
C3104 H3095 0.930 . S
C3104 C3102 1.378 . S
C3104 C3105 1.367 . S
C3105 C3104 1.367 . S
C3105 C3107 1.433 . S
C3106 C3102 1.350 . S
C3106 C3103 1.463 . S
C3106 N3110 1.427 . S
C3107 H3097 0.929 . S
C3107 C3105 1.433 . S
C3107 N3110 1.384 . S
C3108 H3099 0.929 . S
C3108 C3100 1.378 . S
C3108 C3103 1.350 . S
C3109 H3096 0.929 . S
C3109 C3101 1.433 . S
C3109 N3111 1.384 . S
N3110 C3106 1.427 . S
N3110 C3107 1.384 . S
N3111 C3103 1.427 . S
N3111 C3109 1.384 . S
H3112 C3118 0.930 . S
H3113 C3122 0.930 . S
H3114 C3127 0.929 . S
H3115 C3125 0.929 . S
H3116 C3120 0.929 . S
H3117 C3126 0.929 . S
C3118 H3112 0.930 . S
C3118 C3119 1.367 1_655 S
C3118 C3126 1.378 . S
C3119 C3118 1.367 1_455 S
C3119 C3127 1.433 . S
C3120 H3116 0.929 . S
C3120 C3122 1.378 . S
C3120 C3124 1.350 . S
C3121 C3124 1.463 . S
C3121 C3126 1.350 1_455 S
C3121 N3129 1.427 . S
C3122 H3113 0.930 . S
C3122 C3120 1.378 . S
C3122 C3123 1.367 . S
C3123 C3122 1.367 . S
C3123 C3125 1.433 1_455 S
C3124 C3120 1.350 . S
C3124 C3121 1.463 . S
C3124 N3128 1.427 1_455 S
C3125 H3115 0.929 . S
C3125 C3123 1.433 1_655 S
C3125 N3128 1.384 . S
C3126 H3117 0.929 . S
C3126 C3118 1.378 . S
C3126 C3121 1.350 1_655 S
C3127 H3114 0.929 . S
C3127 C3119 1.433 . S
C3127 N3129 1.384 . S
N3128 C3124 1.427 1_655 S
N3128 C3125 1.384 . S
N3129 C3121 1.427 . S
N3129 C3127 1.384 . S
H3130 C3136 0.930 . S
H3131 C3140 0.930 . S
H3132 C3145 0.929 . S
H3133 C3143 0.929 . S
H3134 C3138 0.929 . S
H3135 C3144 0.929 . S
C3136 H3130 0.930 . S
C3136 C3137 1.367 . S
C3136 C3144 1.378 . S
C3137 C3136 1.367 . S
C3137 C3145 1.433 . S
C3138 H3134 0.929 . S
C3138 C3140 1.378 . S
C3138 C3142 1.350 . S
C3139 C3142 1.463 . S
C3139 C3144 1.350 . S
C3139 N3147 1.427 . S
C3140 H3131 0.930 . S
C3140 C3138 1.378 . S
C3140 C3141 1.367 . S
C3141 C3140 1.367 . S
C3141 C3143 1.433 . S
C3142 C3138 1.350 . S
C3142 C3139 1.463 . S
C3142 N3146 1.427 . S
C3143 H3133 0.929 . S
C3143 C3141 1.433 . S
C3143 N3146 1.384 . S
C3144 H3135 0.929 . S
C3144 C3136 1.378 . S
C3144 C3139 1.350 . S
C3145 H3132 0.929 . S
C3145 C3137 1.433 . S
C3145 N3147 1.384 . S
N3146 C3142 1.427 . S
N3146 C3143 1.384 . S
N3147 C3139 1.427 . S
N3147 C3145 1.384 . S
H3148 C3154 0.930 . S
H3149 C3158 0.930 . S
H3150 C3163 0.929 . S
H3151 C3161 0.929 . S
H3152 C3156 0.929 . S
H3153 C3162 0.929 . S
C3154 H3148 0.930 . S
C3154 C3155 1.367 . S
C3154 C3162 1.378 . S
C3155 C3154 1.367 . S
C3155 C3163 1.433 1_655 S
C3156 H3152 0.929 . S
C3156 C3158 1.378 . S
C3156 C3160 1.350 1_455 S
C3157 C3160 1.463 . S
C3157 C3162 1.350 . S
C3157 N3165 1.427 1_655 S
C3158 H3149 0.930 . S
C3158 C3156 1.378 . S
C3158 C3159 1.367 1_455 S
C3159 C3158 1.367 1_655 S
C3159 C3161 1.433 . S
C3160 C3156 1.350 1_655 S
C3160 C3157 1.463 . S
C3160 N3164 1.427 . S
C3161 H3151 0.929 . S
C3161 C3159 1.433 . S
C3161 N3164 1.384 . S
C3162 H3153 0.929 . S
C3162 C3154 1.378 . S
C3162 C3157 1.350 . S
C3163 H3150 0.929 . S
C3163 C3155 1.433 1_455 S
C3163 N3165 1.384 . S
N3164 C3160 1.427 . S
N3164 C3161 1.384 . S
N3165 C3157 1.427 1_455 S
N3165 C3163 1.384 . S
H3166 C3172 0.930 . S
H3167 C3176 0.930 . S
H3168 C3181 0.929 . S
H3169 C3179 0.929 . S
H3170 C3174 0.929 . S
H3171 C3180 0.929 . S
C3172 H3166 0.930 . S
C3172 C3173 1.367 . S
C3172 C3180 1.378 . S
C3173 C3172 1.367 . S
C3173 C3181 1.433 . S
C3174 H3170 0.929 . S
C3174 C3176 1.378 . S
C3174 C3178 1.350 . S
C3175 C3178 1.463 . S
C3175 C3180 1.350 . S
C3175 N3183 1.427 . S
C3176 H3167 0.930 . S
C3176 C3174 1.378 . S
C3176 C3177 1.367 . S
C3177 C3176 1.367 . S
C3177 C3179 1.433 . S
C3178 C3174 1.350 . S
C3178 C3175 1.463 . S
C3178 N3182 1.427 . S
C3179 H3169 0.929 . S
C3179 C3177 1.433 . S
C3179 N3182 1.384 . S
C3180 H3171 0.929 . S
C3180 C3172 1.378 . S
C3180 C3175 1.350 . S
C3181 H3168 0.929 . S
C3181 C3173 1.433 . S
C3181 N3183 1.384 . S
N3182 C3178 1.427 . S
N3182 C3179 1.384 . S
N3183 C3175 1.427 . S
N3183 C3181 1.384 . S
H3184 C3190 0.930 . S
H3185 C3194 0.930 . S
H3186 C3199 0.929 . S
H3187 C3197 0.929 . S
H3188 C3192 0.929 . S
H3189 C3198 0.929 . S
C3190 H3184 0.930 . S
C3190 C3191 1.367 . S
C3190 C3198 1.378 . S
C3191 C3190 1.367 . S
C3191 C3199 1.433 . S
C3192 H3188 0.929 . S
C3192 C3194 1.378 . S
C3192 C3196 1.350 . S
C3193 C3196 1.463 . S
C3193 C3198 1.350 . S
C3193 N3201 1.427 . S
C3194 H3185 0.930 . S
C3194 C3192 1.378 . S
C3194 C3195 1.367 . S
C3195 C3194 1.367 . S
C3195 C3197 1.433 . S
C3196 C3192 1.350 . S
C3196 C3193 1.463 . S
C3196 N3200 1.427 . S
C3197 H3187 0.929 . S
C3197 C3195 1.433 . S
C3197 N3200 1.384 . S
C3198 H3189 0.929 . S
C3198 C3190 1.378 . S
C3198 C3193 1.350 . S
C3199 H3186 0.929 . S
C3199 C3191 1.433 . S
C3199 N3201 1.384 . S
N3200 C3196 1.427 . S
N3200 C3197 1.384 . S
N3201 C3193 1.427 . S
N3201 C3199 1.384 . S
H3202 C3208 0.930 . S
H3203 C3212 0.930 . S
H3204 C3217 0.929 . S
H3205 C3215 0.929 . S
H3206 C3210 0.929 . S
H3207 C3216 0.929 . S
C3208 H3202 0.930 . S
C3208 C3209 1.367 . S
C3208 C3216 1.378 . S
C3209 C3208 1.367 . S
C3209 C3217 1.433 . S
C3210 H3206 0.929 . S
C3210 C3212 1.378 . S
C3210 C3214 1.350 . S
C3211 C3214 1.463 . S
C3211 C3216 1.350 . S
C3211 N3219 1.427 . S
C3212 H3203 0.930 . S
C3212 C3210 1.378 . S
C3212 C3213 1.367 . S
C3213 C3212 1.367 . S
C3213 C3215 1.433 . S
C3214 C3210 1.350 . S
C3214 C3211 1.463 . S
C3214 N3218 1.427 . S
C3215 H3205 0.929 . S
C3215 C3213 1.433 . S
C3215 N3218 1.384 . S
C3216 H3207 0.929 . S
C3216 C3208 1.378 . S
C3216 C3211 1.350 . S
C3217 H3204 0.929 . S
C3217 C3209 1.433 . S
C3217 N3219 1.384 . S
N3218 C3214 1.427 . S
N3218 C3215 1.384 . S
N3219 C3211 1.427 . S
N3219 C3217 1.384 . S
H3220 C3226 0.930 . S
H3221 C3230 0.930 . S
H3222 C3235 0.929 . S
H3223 C3233 0.929 . S
H3224 C3228 0.929 . S
H3225 C3234 0.929 . S
C3226 H3220 0.930 . S
C3226 C3227 1.367 . S
C3226 C3234 1.378 . S
C3227 C3226 1.367 . S
C3227 C3235 1.433 . S
C3228 H3224 0.929 . S
C3228 C3230 1.378 . S
C3228 C3232 1.350 . S
C3229 C3232 1.463 . S
C3229 C3234 1.350 . S
C3229 N3237 1.427 . S
C3230 H3221 0.930 . S
C3230 C3228 1.378 . S
C3230 C3231 1.367 . S
C3231 C3230 1.367 . S
C3231 C3233 1.433 . S
C3232 C3228 1.350 . S
C3232 C3229 1.463 . S
C3232 N3236 1.427 . S
C3233 H3223 0.929 . S
C3233 C3231 1.433 . S
C3233 N3236 1.384 . S
C3234 H3225 0.929 . S
C3234 C3226 1.378 . S
C3234 C3229 1.350 . S
C3235 H3222 0.929 . S
C3235 C3227 1.433 . S
C3235 N3237 1.384 . S
N3236 C3232 1.427 . S
N3236 C3233 1.384 . S
N3237 C3229 1.427 . S
N3237 C3235 1.384 . S
H3238 C3244 0.930 . S
H3239 C3248 0.930 . S
H3240 C3253 0.929 . S
H3241 C3251 0.929 . S
H3242 C3246 0.929 . S
H3243 C3252 0.929 . S
C3244 H3238 0.930 . S
C3244 C3245 1.367 . S
C3244 C3252 1.378 . S
C3245 C3244 1.367 . S
C3245 C3253 1.433 . S
C3246 H3242 0.929 . S
C3246 C3248 1.378 . S
C3246 C3250 1.350 . S
C3247 C3250 1.463 . S
C3247 C3252 1.350 . S
C3247 N3255 1.427 . S
C3248 H3239 0.930 . S
C3248 C3246 1.378 . S
C3248 C3249 1.367 . S
C3249 C3248 1.367 . S
C3249 C3251 1.433 . S
C3250 C3246 1.350 . S
C3250 C3247 1.463 . S
C3250 N3254 1.427 . S
C3251 H3241 0.929 . S
C3251 C3249 1.433 . S
C3251 N3254 1.384 . S
C3252 H3243 0.929 . S
C3252 C3244 1.378 . S
C3252 C3247 1.350 . S
C3253 H3240 0.929 . S
C3253 C3245 1.433 . S
C3253 N3255 1.384 . S
N3254 C3250 1.427 . S
N3254 C3251 1.384 . S
N3255 C3247 1.427 . S
N3255 C3253 1.384 . S
H3256 C3262 0.930 . S
H3257 C3266 0.930 . S
H3258 C3271 0.929 . S
H3259 C3269 0.929 . S
H3260 C3264 0.929 . S
H3261 C3270 0.929 . S
C3262 H3256 0.930 . S
C3262 C3263 1.367 . S
C3262 C3270 1.378 . S
C3263 C3262 1.367 . S
C3263 C3271 1.433 . S
C3264 H3260 0.929 . S
C3264 C3266 1.378 . S
C3264 C3268 1.350 . S
C3265 C3268 1.463 . S
C3265 C3270 1.350 . S
C3265 N3273 1.427 . S
C3266 H3257 0.930 . S
C3266 C3264 1.378 . S
C3266 C3267 1.367 . S
C3267 C3266 1.367 . S
C3267 C3269 1.433 . S
C3268 C3264 1.350 . S
C3268 C3265 1.463 . S
C3268 N3272 1.427 . S
C3269 H3259 0.929 . S
C3269 C3267 1.433 . S
C3269 N3272 1.384 . S
C3270 H3261 0.929 . S
C3270 C3262 1.378 . S
C3270 C3265 1.350 . S
C3271 H3258 0.929 . S
C3271 C3263 1.433 . S
C3271 N3273 1.384 . S
N3272 C3268 1.427 . S
N3272 C3269 1.384 . S
N3273 C3265 1.427 . S
N3273 C3271 1.384 . S
H3274 C3280 0.930 . S
H3275 C3284 0.930 . S
H3276 C3289 0.929 . S
H3277 C3287 0.929 . S
H3278 C3282 0.929 . S
H3279 C3288 0.929 . S
C3280 H3274 0.930 . S
C3280 C3281 1.367 . S
C3280 C3288 1.378 . S
C3281 C3280 1.367 . S
C3281 C3289 1.433 . S
C3282 H3278 0.929 . S
C3282 C3284 1.378 . S
C3282 C3286 1.350 . S
C3283 C3286 1.463 . S
C3283 C3288 1.350 . S
C3283 N3291 1.427 . S
C3284 H3275 0.930 . S
C3284 C3282 1.378 . S
C3284 C3285 1.367 . S
C3285 C3284 1.367 . S
C3285 C3287 1.433 . S
C3286 C3282 1.350 . S
C3286 C3283 1.463 . S
C3286 N3290 1.427 . S
C3287 H3277 0.929 . S
C3287 C3285 1.433 . S
C3287 N3290 1.384 . S
C3288 H3279 0.929 . S
C3288 C3280 1.378 . S
C3288 C3283 1.350 . S
C3289 H3276 0.929 . S
C3289 C3281 1.433 . S
C3289 N3291 1.384 . S
N3290 C3286 1.427 . S
N3290 C3287 1.384 . S
N3291 C3283 1.427 . S
N3291 C3289 1.384 . S
H3292 C3298 0.930 . S
H3293 C3302 0.930 . S
H3294 C3307 0.929 . S
H3295 C3305 0.929 . S
H3296 C3300 0.929 . S
H3297 C3306 0.929 . S
C3298 H3292 0.930 . S
C3298 C3299 1.367 . S
C3298 C3306 1.378 . S
C3299 C3298 1.367 . S
C3299 C3307 1.433 . S
C3300 H3296 0.929 . S
C3300 C3302 1.378 . S
C3300 C3304 1.350 . S
C3301 C3304 1.463 . S
C3301 C3306 1.350 . S
C3301 N3309 1.427 . S
C3302 H3293 0.930 . S
C3302 C3300 1.378 . S
C3302 C3303 1.367 . S
C3303 C3302 1.367 . S
C3303 C3305 1.433 . S
C3304 C3300 1.350 . S
C3304 C3301 1.463 . S
C3304 N3308 1.427 . S
C3305 H3295 0.929 . S
C3305 C3303 1.433 . S
C3305 N3308 1.384 . S
C3306 H3297 0.929 . S
C3306 C3298 1.378 . S
C3306 C3301 1.350 . S
C3307 H3294 0.929 . S
C3307 C3299 1.433 . S
C3307 N3309 1.384 . S
N3308 C3304 1.427 . S
N3308 C3305 1.384 . S
N3309 C3301 1.427 . S
N3309 C3307 1.384 . S
H3310 C3316 0.930 . S
H3311 C3320 0.930 . S
H3312 C3325 0.929 . S
H3313 C3323 0.929 . S
H3314 C3318 0.929 . S
H3315 C3324 0.929 . S
C3316 H3310 0.930 . S
C3316 C3317 1.367 . S
C3316 C3324 1.378 . S
C3317 C3316 1.367 . S
C3317 C3325 1.433 . S
C3318 H3314 0.929 . S
C3318 C3320 1.378 . S
C3318 C3322 1.350 . S
C3319 C3322 1.463 . S
C3319 C3324 1.350 . S
C3319 N3327 1.427 . S
C3320 H3311 0.930 . S
C3320 C3318 1.378 . S
C3320 C3321 1.367 . S
C3321 C3320 1.367 . S
C3321 C3323 1.433 . S
C3322 C3318 1.350 . S
C3322 C3319 1.463 . S
C3322 N3326 1.427 . S
C3323 H3313 0.929 . S
C3323 C3321 1.433 . S
C3323 N3326 1.384 . S
C3324 H3315 0.929 . S
C3324 C3316 1.378 . S
C3324 C3319 1.350 . S
C3325 H3312 0.929 . S
C3325 C3317 1.433 . S
C3325 N3327 1.384 . S
N3326 C3322 1.427 . S
N3326 C3323 1.384 . S
N3327 C3319 1.427 . S
N3327 C3325 1.384 . S
C1031 C822 1.637 . S
C1035 C17 1.654 . S
C1049 C54 1.637 . S
C1053 C785 1.655 . S
C1067 C881 1.874 . S
C1071 C81 1.879 . S
C1085 C113 1.875 . S
C1089 C849 1.880 . S
C1103 C946 1.627 . S
C1107 C149 1.658 . S
C1121 C178 1.627 . S
C1125 C917 1.660 . S
C1139 C1013 1.876 . S
C1143 C213 1.879 . S
C1157 C245 1.875 . S
C1161 C981 1.880 . S
C1175 C273 1.656 . S
C1179 C566 1.631 . S
C1193 C310 1.627 . S
C1197 C529 1.660 . S
C1211 C625 1.874 . S
C1215 C337 1.881 . S
C1229 C369 1.871 . S
C1233 C593 1.881 . S
C1247 C405 1.655 . S
C1251 C690 1.632 . S
C1265 C661 1.659 . S
C1269 C434 1.627 . S
C1283 C757 1.871 . S
C1287 C469 1.882 . S
C1301 C725 1.879 . S
C1305 C501 1.873 . S
C1319 C948 2.080 . S
C1323 C18 2.116 . S
C1337 C52 1.604 . S
C1341 C146 1.571 . S
C1355 C82 1.686 . S
C1359 C754 1.667 . S
C1373 C114 1.904 . S
C1377 C466 1.863 . S
C1391 C816 2.081 . S
C1395 C150 2.115 . S
C1409 C22 1.576 . S
C1413 C176 1.614 . S
C1427 C630 1.664 . S
C1431 C214 1.685 . S
C1445 C246 1.912 . S
C1449 C342 1.872 . S
C1463 C692 2.078 1_565 S
C1467 C274 2.116 . S
C1481 C402 1.582 . S
C1485 C308 1.612 . S
C1499 C338 1.694 . S
C1503 C1010 1.675 . S
C1517 C210 1.872 . S
C1521 C370 1.912 . S
C1535 C560 2.073 1_545 S
C1539 C406 2.110 . S
C1553 C432 1.613 . S
C1557 C278 1.574 . S
C1571 C470 1.687 . S
C1575 C886 1.668 . S
C1589 C502 1.908 . S
C1593 C86 1.869 . S
C1607 C530 2.114 . S
C1611 C436 2.074 . S
C1625 C658 1.569 . S
C1629 C564 1.609 . S
C1643 C242 1.669 . S
C1647 C594 1.687 . S
C1661 C978 1.869 . S
C1665 C626 1.910 . S
C1679 C662 2.109 . S
C1683 C304 2.078 . S
C1697 C688 1.604 . S
C1701 C534 1.571 . S
C1715 C726 1.691 . S
C1719 C118 1.669 . S
C1733 C758 1.905 . S
C1737 C854 1.865 . S
C1751 C180 2.081 1_565 S
C1755 C786 2.115 . S
C1769 C914 1.568 . S
C1773 C820 1.607 . S
C1787 C498 1.674 . S
C1791 C850 1.694 . S
C1805 C882 1.912 . S
C1809 C722 1.874 . S
C1823 C918 2.113 . S
C1827 C48 2.082 1_545 S
C1841 C944 1.604 . S
C1845 C790 1.573 . S
C1859 C982 1.692 . S
C1863 C374 1.670 . S
C1877 C1014 1.909 . S
C1881 C598 1.868 . S
C1895 C211 1.040 . S
C1899 C19 1.039 1_455 S
C1913 C51 1.205 . S
C1917 C1011 1.193 . S
C1931 C403 1.133 . S
C1935 C83 1.074 1_545 S
C1949 C691 0.717 . S
C1953 C115 0.723 . S
C1967 C87 1.039 . S
C1971 C151 1.040 1_655 S
C1985 C183 1.200 . S
C1989 C887 1.183 . S
C2003 C279 1.121 . S
C2007 C215 1.077 1_565 S
C2021 C247 0.742 . S
C2025 C567 0.715 . S
C2039 C275 1.027 1_455 S
C2043 C467 1.026 . S
C2057 C755 1.191 . S
C2061 C307 1.206 . S
C2075 C339 1.088 . S
C2079 C147 1.121 . S
C2093 C947 0.717 . S
C2097 C371 0.732 . S
C2111 C407 1.037 1_655 S
C2115 C343 1.042 . S
C2129 C631 1.196 . S
C2133 C439 1.202 . S
C2147 C471 1.076 . S
C2151 C23 1.121 . S
C2165 C823 0.712 . S
C2169 C503 0.704 . S
C2183 C531 1.057 . S
C2187 C723 1.022 . S
C2201 C563 1.208 . S
C2205 C499 1.184 . S
C2219 C915 1.133 . S
C2223 C595 1.075 1_545 S
C2237 C627 0.702 . S
C2241 C179 0.711 . S
C2255 C599 1.026 . S
C2259 C663 1.059 . S
C2273 C695 1.200 . S
C2277 C375 1.196 . S
C2291 C791 1.131 . S
C2295 C727 1.090 1_565 S
C2309 C759 0.715 . S
C2313 C55 0.706 . S
C2327 C979 1.031 . S
C2331 C787 1.059 . S
C2345 C819 1.202 . S
C2349 C243 1.195 . S
C2363 C851 1.076 . S
C2367 C659 1.121 . S
C2381 C883 0.705 . S
C2385 C435 0.713 . S
C2399 C855 1.030 . S
C2403 C919 1.042 . S
C2417 C951 1.202 . S
C2421 C119 1.181 . S
C2435 C535 1.126 . S
C2439 C983 1.067 . S
C2453 C1015 0.726 . S
C2457 C311 0.706 . S
C2471 C117 1.463 . S
C2475 C21 1.470 . S
C2489 C85 1.506 . S
C2493 C50 1.450 . S
C2507 C145 1.471 . S
C2511 C241 1.465 . S
C2525 C209 1.500 . S
C2529 C182 1.453 . S
C2543 C373 1.466 . S
C2547 C277 1.473 . S
C2561 C306 1.460 . S
C2565 C341 1.508 . S
C2579 C497 1.452 . S
C2583 C401 1.473 . S
C2597 C465 1.503 . S
C2601 C438 1.467 . S
C2615 C533 1.482 . S
C2619 C629 1.467 . S
C2633 C597 1.507 . S
C2637 C562 1.463 . S
C2651 C657 1.473 . S
C2655 C753 1.466 . S
C2669 C721 1.501 . S
C2673 C694 1.451 . S
C2687 C885 1.464 . S
C2691 C789 1.471 . S
C2705 C818 1.453 . S
C2709 C853 1.500 . S
C2723 C913 1.469 . S
C2727 C1009 1.461 . S
C2741 C950 1.463 . S
C2745 C977 1.496 . S
C2759 C20 0.802 1_556 S
C2763 C144 0.802 1_554 S
C2777 C949 1.412 . S
C2781 C49 1.412 . S
C2795 C464 0.811 . S
C2799 C84 0.811 . S
C2813 C752 0.855 . S
C2817 C116 0.855 . S
C2831 C817 1.408 1_556 S
C2835 C181 1.408 1_554 S
C2849 C340 0.800 . S
C2853 C208 0.800 . S
C2867 C240 0.861 . S
C2871 C628 0.861 . S
C2885 C400 0.796 . S
C2889 C276 0.796 . S
C2903 C305 1.401 . S
C2907 C693 1.401 . S
C2921 C372 0.864 . S
C2925 C1008 0.864 . S
C2939 C437 1.409 . S
C2943 C561 1.409 . S
C2957 C884 0.862 . S
C2961 C496 0.862 . S
C2975 C656 0.800 . S
C2979 C532 0.800 . S
C2993 C976 0.818 . S
C2997 C596 0.818 . S
C3011 C720 0.812 . S
C3015 C852 0.812 . S
C3029 C912 0.799 1_554 S
C3033 C788 0.799 1_556 S
C3047 C80 1.709 . S
C3051 C16 1.710 . S
C3065 C112 1.782 . S
C3069 C53 1.776 . S
C3083 C148 1.704 . S
C3087 C212 1.701 . S
C3101 C177 1.781 . S
C3105 C244 1.777 . S
C3119 C336 1.700 . S
C3123 C272 1.703 . S
C3137 C368 1.777 . S
C3141 C309 1.780 . S
C3155 C404 1.702 . S
C3159 C468 1.701 . S
C3173 C500 1.780 . S
C3177 C433 1.778 . S
C3191 C592 1.704 . S
C3195 C528 1.698 . S
C3209 C565 1.779 . S
C3213 C624 1.780 . S
C3227 C724 1.702 . S
C3231 C660 1.698 . S
C3245 C689 1.776 . S
C3249 C756 1.782 . S
C3263 C784 1.699 . S
C3267 C848 1.701 . S
C3281 C821 1.777 . S
C3285 C880 1.780 . S
C3299 C980 1.703 . S
C3303 C916 1.698 . S
C3317 C1012 1.781 . S
C3321 C945 1.776 . S
