# Generated by pormake.
# Topology fns, (5)-cn, num edge types: 1
# Building blocks:
#     Node 0, Type 0, BuildingBlock: XOMCOT_clean_sbu_0, # of connection points: 5
#     Node 1, Type 0, BuildingBlock: XOMCOT_clean_sbu_0, # of connection points: 5
#     Node 2, Type 0, BuildingBlock: XOMCOT_clean_sbu_0, # of connection points: 5
#     Node 3, Type 0, BuildingBlock: XOMCOT_clean_sbu_0, # of connection points: 5
#     Node 4, Type 0, BuildingBlock: XOMCOT_clean_sbu_0, # of connection points: 5
#     Node 5, Type 0, BuildingBlock: XOMCOT_clean_sbu_0, # of connection points: 5
#     Edge 6, Type (0, 0), BuildingBlock: CIFDUS_clean_linker_0, # of connection points: 2
#     Edge 7, Type (0, 0), BuildingBlock: CIFDUS_clean_linker_0, # of connection points: 2
#     Edge 8, Type (0, 0), BuildingBlock: CIFDUS_clean_linker_0, # of connection points: 2
#     Edge 9, Type (0, 0), BuildingBlock: CIFDUS_clean_linker_0, # of connection points: 2
#     Edge 10, Type (0, 0), BuildingBlock: CIFDUS_clean_linker_0, # of connection points: 2
#     Edge 11, Type (0, 0), BuildingBlock: CIFDUS_clean_linker_0, # of connection points: 2
#     Edge 12, Type (0, 0), BuildingBlock: CIFDUS_clean_linker_0, # of connection points: 2
#     Edge 13, Type (0, 0), BuildingBlock: CIFDUS_clean_linker_0, # of connection points: 2
#     Edge 14, Type (0, 0), BuildingBlock: CIFDUS_clean_linker_0, # of connection points: 2
#     Edge 15, Type (0, 0), BuildingBlock: CIFDUS_clean_linker_0, # of connection points: 2
#     Edge 16, Type (0, 0), BuildingBlock: CIFDUS_clean_linker_0, # of connection points: 2
#     Edge 17, Type (0, 0), BuildingBlock: CIFDUS_clean_linker_0, # of connection points: 2
#     Edge 18, Type (0, 0), BuildingBlock: CIFDUS_clean_linker_0, # of connection points: 2
#     Edge 19, Type (0, 0), BuildingBlock: CIFDUS_clean_linker_0, # of connection points: 2
#     Edge 20, Type (0, 0), BuildingBlock: CIFDUS_clean_linker_0, # of connection points: 2
# Relax obj value: 0.186
# Max RMSD: 0.298
# Mean RMSD: 0.298
data_MOF--net-fns--node1-XOMCOT_clean_sbu_0--edge1-CIFDUS_clean_linker_0
_symmetry_space_group_name_H-M    P1
_symmetry_Int_Tables_number       1
_symmetry_cell_setting            triclinic
loop_
_symmetry_equiv_pos_as_xyz
'x, y, z'
_cell_length_a     49.644206
_cell_length_b     49.713113
_cell_length_c     15.74792
_cell_angle_alpha  90.020535
_cell_angle_beta   90.035774
_cell_angle_gamma 119.74851
loop_
_atom_site_label
_atom_site_type_symbol
_atom_site_fract_x
_atom_site_fract_y
_atom_site_fract_z
_atom_type_partial_charge
Co0 Co 0.19196 0.62827 0.19161 0.0
C1 C 0.19287 0.62411 0.38241 0.0
C2 C 0.21147 0.59827 0.32157 0.0
C3 C 0.21457 0.59693 0.40814 0.0
N4 N 0.19781 0.61527 0.30474 0.0
N5 N 0.20321 0.61343 0.44714 0.0
H6 H 0.18304 0.63906 0.39114 0.0
H7 H 0.21957 0.58816 0.27441 0.0
C8 C 0.18336 0.57481 0.07994 0.0
O9 O 0.15776 0.57226 0.04774 0.0
N10 N 0.18693 0.64228 0.0777 0.0
C11 C 0.17517 0.66107 0.06132 0.0
C12 C 0.17415 0.66472 0.97498 0.0
C13 C 0.19487 0.63666 0.99937 0.0
N14 N 0.18602 0.6489 0.93517 0.0
C15 C 0.12863 0.61381 0.20371 0.0
C16 C 0.1029 0.55046 0.22081 0.0
C17 C 0.08314 0.56295 0.21215 0.0
C18 C 0.09649 0.5952 0.20664 0.0
C19 C 0.13507 0.57008 0.21811 0.0
N20 N 0.14744 0.60109 0.20347 0.0
H21 H 0.1383 0.63852 0.20247 0.0
H22 H 0.14998 0.5602 0.22601 0.0
H23 H 0.16828 0.67222 0.10847 0.0
H24 H 0.20706 0.62409 0.98894 0.0
O25 O 0.19573 0.66537 0.24302 0.0
O26 O 0.23467 0.66037 0.19164 0.0
O27 O 0.19827 0.59487 0.13766 0.0
C28 C 0.22543 0.67741 0.23071 0.0
H29 H 0.22485 0.58484 0.43951 0.0
H30 H 0.16555 0.67843 0.94425 0.0
H31 H 0.09369 0.52574 0.22731 0.0
H32 H 0.08221 0.60605 0.20465 0.0
Co33 Co 0.57894 0.19488 0.50429 0.0
C34 C 0.57951 0.19263 0.68904 0.0
C35 C 0.62462 0.2253 0.64129 0.0
C36 C 0.62586 0.22544 0.72878 0.0
N37 N 0.59555 0.20461 0.61717 0.0
N38 N 0.59744 0.20482 0.75843 0.0
H39 H 0.555 0.17581 0.69006 0.0
H40 H 0.64343 0.23941 0.5985 0.0
C41 C 0.62656 0.18645 0.40903 0.0
O42 O 0.60437 0.16104 0.37428 0.0
N43 N 0.56245 0.18637 0.38964 0.0
C44 C 0.53263 0.17068 0.36334 0.0
C45 C 0.53179 0.17325 0.27656 0.0
C46 C 0.57892 0.20005 0.31901 0.0
N47 N 0.561 0.19164 0.24905 0.0
C48 C 0.53445 0.12936 0.52022 0.0
C49 C 0.57738 0.11196 0.56538 0.0
C50 C 0.54688 0.08869 0.54767 0.0
C51 C 0.52504 0.09789 0.52748 0.0
C52 C 0.58586 0.14303 0.55511 0.0
N53 N 0.56496 0.15133 0.52702 0.0
H54 H 0.51711 0.1359 0.50958 0.0
H55 H 0.60952 0.16047 0.5688 0.0
H56 H 0.51248 0.15974 0.40359 0.0
H57 H 0.60357 0.21619 0.31879 0.0
O58 O 0.54323 0.19766 0.54253 0.0
O59 O 0.5869 0.23647 0.49056 0.0
O60 O 0.62018 0.20193 0.462 0.0
C61 C 0.5594 0.22686 0.52181 0.0
H62 H 0.64614 0.23953 0.76731 0.0
H63 H 0.51121 0.16326 0.23711 0.0
H64 H 0.59479 0.10637 0.58632 0.0
H65 H 0.50097 0.08111 0.51541 0.0
Co66 Co 0.37437 0.58002 0.88176 0.0
C67 C 0.37716 0.58097 0.0686 0.0
C68 C 0.39061 0.62581 0.01843 0.0
C69 C 0.38782 0.62676 0.10524 0.0
N70 N 0.38463 0.5972 0.99548 0.0
N71 N 0.37905 0.59835 0.13637 0.0
H72 H 0.36787 0.55636 0.07198 0.0
H73 H 0.39427 0.64408 0.97468 0.0
C74 C 0.43402 0.64037 0.85537 0.0
O75 O 0.44607 0.63619 0.92496 0.0
N76 N 0.36329 0.56355 0.76907 0.0
C77 C 0.35601 0.53519 0.74085 0.0
C78 C 0.35381 0.5351 0.65349 0.0
C79 C 0.36488 0.58005 0.69991 0.0
N80 N 0.35967 0.56347 0.62808 0.0
C81 C 0.40001 0.54259 0.94397 0.0
C82 C 0.4474 0.56279 0.82672 0.0
C83 C 0.44531 0.54169 0.88925 0.0
C84 C 0.42094 0.53153 0.9482 0.0
C85 C 0.42657 0.57398 0.82663 0.0
N86 N 0.40394 0.56491 0.88701 0.0
H87 H 0.38007 0.53221 0.98469 0.0
H88 H 0.42809 0.58918 0.77564 0.0
H89 H 0.354 0.51651 0.78047 0.0
H90 H 0.37065 0.60407 0.70229 0.0
O91 O 0.3375 0.54444 0.92671 0.0
O92 O 0.34023 0.58802 0.88143 0.0
O93 O 0.40658 0.62064 0.83166 0.0
C94 C 0.3238 0.56073 0.91498 0.0
H95 H 0.38981 0.64616 0.14156 0.0
H96 H 0.34995 0.51617 0.6119 0.0
H97 H 0.46444 0.57016 0.77644 0.0
H98 H 0.41764 0.51493 0.9972 0.0
Co99 Co 0.79564 0.37178 0.16012 0.0
C100 C 0.79804 0.37506 0.34515 0.0
C101 C 0.76362 0.38521 0.29676 0.0
C102 C 0.76326 0.38623 0.38429 0.0
N103 N 0.78552 0.3783 0.27297 0.0
N104 N 0.78501 0.37991 0.41423 0.0
H105 H 0.81577 0.36844 0.34689 0.0
H106 H 0.74877 0.38888 0.25368 0.0
C107 C 0.80138 0.4262 0.05992 0.0
O108 O 0.82521 0.42856 0.01739 0.0
N109 N 0.805 0.36456 0.04593 0.0
C110 C 0.8265 0.35746 0.01893 0.0
C111 C 0.8243 0.35404 0.93216 0.0
C112 C 0.78915 0.36389 0.97567 0.0
N113 N 0.80099 0.35841 0.90505 0.0
C114 C 0.85804 0.38706 0.20003 0.0
C115 C 0.88218 0.45021 0.21587 0.0
C116 C 0.90218 0.43801 0.22313 0.0
C117 C 0.88958 0.40588 0.21731 0.0
C118 C 0.85072 0.43048 0.19916 0.0
N119 N 0.83935 0.39952 0.18592 0.0
H120 H 0.84869 0.36232 0.19793 0.0
H121 H 0.83562 0.44027 0.19855 0.0
H122 H 0.84253 0.35444 0.05825 0.0
H123 H 0.77001 0.36849 0.97615 0.0
O124 O 0.79165 0.33272 0.19653 0.0
O125 O 0.75368 0.33906 0.14378 0.0
O126 O 0.78889 0.40634 0.11929 0.0
C127 C 0.7626 0.32057 0.17494 0.0
H128 H 0.7483 0.39136 0.42272 0.0
H129 H 0.83874 0.34866 0.89223 0.0
H130 H 0.89072 0.47478 0.22394 0.0
H131 H 0.90405 0.39537 0.22435 0.0
Co132 Co 0.44067 0.79836 0.49694 0.0
C133 C 0.43427 0.79861 0.68868 0.0
C134 C 0.39228 0.76555 0.6272 0.0
C135 C 0.38783 0.76245 0.71383 0.0
N136 N 0.42114 0.78886 0.61038 0.0
N137 N 0.41423 0.78319 0.75307 0.0
H138 H 0.45823 0.81573 0.69908 0.0
H139 H 0.37585 0.75077 0.57968 0.0
C140 C 0.37839 0.79392 0.45878 0.0
O141 O 0.37804 0.80727 0.53045 0.0
N142 N 0.45991 0.80705 0.38439 0.0
C143 C 0.4896 0.82795 0.36685 0.0
C144 C 0.4939 0.82925 0.28006 0.0
C145 C 0.44653 0.79585 0.30737 0.0
N146 N 0.46683 0.80914 0.24201 0.0
C147 C 0.47717 0.85946 0.56732 0.0
C148 C 0.45165 0.88751 0.47019 0.0
C149 C 0.47346 0.90483 0.53257 0.0
C150 C 0.48697 0.89081 0.57998 0.0
C151 C 0.44308 0.85647 0.45827 0.0
N152 N 0.45432 0.84225 0.51014 0.0
H153 H 0.4884 0.84921 0.6026 0.0
H154 H 0.42785 0.84425 0.40603 0.0
H155 H 0.5068 0.8419 0.41389 0.0
H156 H 0.4225 0.77827 0.29932 0.0
O157 O 0.47562 0.79682 0.54696 0.0
O158 O 0.43378 0.75696 0.49094 0.0
O159 O 0.40093 0.78956 0.44004 0.0
C160 C 0.45994 0.7672 0.53101 0.0
H161 H 0.36705 0.74519 0.74548 0.0
H162 H 0.51528 0.84466 0.24747 0.0
H163 H 0.44184 0.89809 0.42969 0.0
H164 H 0.50476 0.90392 0.62671 0.0
Co165 Co 0.6077 0.40916 0.84669 0.0
C166 C 0.60427 0.40824 0.03165 0.0
C167 C 0.59342 0.36358 0.9833 0.0
C168 C 0.5924 0.36224 0.07087 0.0
N169 N 0.60078 0.39243 0.95945 0.0
N170 N 0.59916 0.39037 0.1008 0.0
H171 H 0.61129 0.4326 0.03338 0.0
H172 H 0.58947 0.34502 0.94024 0.0
C173 C 0.55347 0.36206 0.74376 0.0
O174 O 0.55164 0.38414 0.70289 0.0
N175 N 0.61537 0.42591 0.73272 0.0
C176 C 0.62218 0.45434 0.7059 0.0
C177 C 0.62565 0.45561 0.6191 0.0
C178 C 0.61626 0.41087 0.66241 0.0
N179 N 0.62156 0.42811 0.5918 0.0
C180 C 0.59291 0.45678 0.88794 0.0
C181 C 0.52936 0.41885 0.89519 0.0
C182 C 0.54164 0.45094 0.90459 0.0
C183 C 0.57408 0.46981 0.90368 0.0
C184 C 0.54909 0.40678 0.88191 0.0
N185 N 0.5803 0.42585 0.87212 0.0
H186 H 0.61777 0.47171 0.8884 0.0
H187 H 0.53894 0.38197 0.88018 0.0
H188 H 0.62479 0.47316 0.74545 0.0
H189 H 0.61176 0.38723 0.66284 0.0
O190 O 0.64739 0.44343 0.88348 0.0
O191 O 0.63981 0.39886 0.83022 0.0
O192 O 0.57275 0.36849 0.80454 0.0
C193 C 0.65894 0.426 0.86091 0.0
H194 H 0.587 0.34215 0.10934 0.0
H195 H 0.63075 0.47532 0.57929 0.0
H196 H 0.50463 0.40292 0.89671 0.0
H197 H 0.58504 0.49448 0.91528 0.0
H198 H 0.21774 0.55127 0.14597 0.0
H199 H 0.18812 0.57159 0.90896 0.0
H200 H 0.22783 0.56579 0.83295 0.0
H201 H 0.27634 0.56333 0.83842 0.0
H202 H 0.30356 0.53911 0.07307 0.0
H203 H 0.2592 0.53748 0.14569 0.0
C204 C 0.21939 0.5534 0.07735 0.0
C205 C 0.2004 0.56222 0.03317 0.0
C206 C 0.24204 0.54965 0.03396 0.0
C207 C 0.20249 0.56475 0.94426 0.0
C208 C 0.22538 0.56172 0.90085 0.0
C209 C 0.27188 0.55674 0.90479 0.0
C210 C 0.29311 0.55156 0.95085 0.0
C211 C 0.24608 0.55541 0.94559 0.0
C212 C 0.28731 0.54299 0.03661 0.0
C213 C 0.26211 0.54232 0.07819 0.0
H214 H 0.63936 0.19842 0.24347 0.0
H215 H 0.68204 0.21242 0.48979 0.0
H216 H 0.73176 0.25198 0.43119 0.0
H217 H 0.75953 0.2893 0.31725 0.0
H218 H 0.71351 0.28103 0.07869 0.0
H219 H 0.66877 0.23246 0.12553 0.0
C220 C 0.65992 0.20935 0.28326 0.0
C221 C 0.65744 0.20251 0.37027 0.0
C222 C 0.68762 0.23356 0.25047 0.0
C223 C 0.68378 0.21728 0.42231 0.0
C224 C 0.71203 0.24005 0.389 0.0
C225 C 0.7401 0.2762 0.27476 0.0
C226 C 0.73962 0.28836 0.1948 0.0
C227 C 0.71379 0.24942 0.30419 0.0
C228 C 0.71417 0.27184 0.14056 0.0
C229 C 0.68861 0.24422 0.16746 0.0
H230 H 0.48171 0.77025 0.69033 0.0
H231 H 0.45153 0.7133 0.46537 0.0
H232 H 0.44624 0.66911 0.54661 0.0
H233 H 0.4389 0.64428 0.68573 0.0
H234 H 0.46638 0.69993 0.91279 0.0
H235 H 0.4836 0.74696 0.8274 0.0
C236 C 0.47512 0.74845 0.65871 0.0
C237 C 0.46696 0.74486 0.57222 0.0
C238 C 0.47047 0.72266 0.70688 0.0
C239 C 0.4579 0.71645 0.53196 0.0
C240 C 0.45443 0.69109 0.57859 0.0
C241 C 0.44941 0.66686 0.71606 0.0
C242 C 0.45108 0.66885 0.80495 0.0
C243 C 0.45886 0.69351 0.66674 0.0
C244 C 0.46496 0.69804 0.8442 0.0
C245 C 0.4746 0.72483 0.79543 0.0
H246 H 0.69412 0.4543 0.999 0.0
H247 H 0.69574 0.41568 0.75539 0.0
H248 H 0.74547 0.41934 0.78995 0.0
H249 H 0.78323 0.42478 0.89855 0.0
H250 H 0.77722 0.45581 0.14953 0.0
H251 H 0.73521 0.46475 0.10327 0.0
C252 C 0.70599 0.4477 0.95274 0.0
C253 C 0.69158 0.43486 0.87487 0.0
C254 C 0.73375 0.44836 0.97494 0.0
C255 C 0.7066 0.42564 0.81578 0.0
C256 C 0.73493 0.42764 0.83562 0.0
C257 C 0.77349 0.43468 0.94191 0.0
C258 C 0.78339 0.44007 0.02678 0.0
C259 C 0.74807 0.43776 0.91628 0.0
C260 C 0.77005 0.4519 0.08355 0.0
C261 C 0.74587 0.45669 0.05732 0.0
H262 H 0.31707 0.77209 0.49431 0.0
H263 H 0.38074 0.78871 0.28851 0.0
H264 H 0.33776 0.75711 0.19376 0.0
H265 H 0.28314 0.71769 0.17684 0.0
H266 H 0.21866 0.70096 0.38017 0.0
H267 H 0.26056 0.74008 0.46773 0.0
C268 C 0.32138 0.76947 0.42814 0.0
C269 C 0.35201 0.78178 0.39907 0.0
C270 C 0.29639 0.75099 0.37377 0.0
C271 C 0.35735 0.7785 0.31301 0.0
C272 C 0.33278 0.76053 0.25863 0.0
C273 C 0.27818 0.7233 0.23943 0.0
C274 C 0.24814 0.70634 0.27261 0.0
C275 C 0.30236 0.74549 0.28946 0.0
C276 C 0.24174 0.71385 0.35335 0.0
C277 C 0.26574 0.736 0.40374 0.0
H278 H 0.52993 0.22996 0.66237 0.0
H279 H 0.56743 0.27466 0.42268 0.0
H280 H 0.56156 0.31879 0.46507 0.0
H281 H 0.55495 0.34835 0.57954 0.0
H282 H 0.52526 0.30698 0.82667 0.0
H283 H 0.51797 0.25764 0.77241 0.0
C284 C 0.53577 0.24894 0.61865 0.0
C285 C 0.54896 0.24923 0.53968 0.0
C286 C 0.53391 0.27495 0.64539 0.0
C287 C 0.5572 0.27413 0.48387 0.0
C288 C 0.55396 0.29937 0.5082 0.0
C289 C 0.54568 0.32812 0.62039 0.0
C290 C 0.54028 0.33097 0.70649 0.0
C291 C 0.5436 0.3006 0.59014 0.0
C292 C 0.52922 0.30502 0.75986 0.0
C293 C 0.52537 0.27697 0.72905 0.0
H294 H 0.222 0.63122 0.84569 0.0
H295 H 0.15018 0.65539 0.81515 0.0
H296 H 0.14966 0.64748 0.66294 0.0
H297 H 0.16849 0.63255 0.53628 0.0
H298 H 0.24044 0.60856 0.56652 0.0
H299 H 0.24129 0.61685 0.71866 0.0
C300 C 0.20615 0.63471 0.80613 0.0
C301 C 0.18642 0.64431 0.84362 0.0
C302 C 0.20567 0.62984 0.71721 0.0
C303 C 0.16622 0.64872 0.7896 0.0
C304 C 0.16566 0.64393 0.70175 0.0
C305 C 0.18455 0.62933 0.57571 0.0
C306 C 0.20407 0.6195 0.53821 0.0
C307 C 0.18524 0.63446 0.6645 0.0
C308 C 0.22454 0.61541 0.59204 0.0
C309 C 0.22527 0.6204 0.67988 0.0
H310 H 0.6232 0.24175 0.89494 0.0
H311 H 0.54941 0.15163 0.81843 0.0
H312 H 0.53078 0.1403 0.96394 0.0
H313 H 0.53556 0.15562 0.11298 0.0
H314 H 0.61022 0.24465 0.19191 0.0
H315 H 0.62886 0.25656 0.04557 0.0
C316 C 0.60328 0.21951 0.91016 0.0
C317 C 0.5876 0.19774 0.84545 0.0
C318 C 0.59285 0.21294 0.99438 0.0
C319 C 0.56159 0.16911 0.86643 0.0
C320 C 0.55098 0.1625 0.94981 0.0
C321 C 0.55563 0.17779 0.09786 0.0
C322 C 0.57129 0.19931 0.16275 0.0
C323 C 0.56631 0.1843 0.01409 0.0
C324 C 0.59781 0.22766 0.14288 0.0
C325 C 0.60842 0.2345 0.05929 0.0
H326 H 0.33404 0.53035 0.48603 0.0
H327 H 0.39511 0.6231 0.57688 0.0
H328 H 0.4052 0.64243 0.43196 0.0
H329 H 0.39958 0.63251 0.27882 0.0
H330 H 0.33816 0.53975 0.18809 0.0
H331 H 0.326 0.52097 0.33298 0.0
C332 C 0.34963 0.55475 0.47414 0.0
C333 C 0.36395 0.57508 0.54248 0.0
C334 C 0.35566 0.56574 0.3904 0.0
C335 C 0.38359 0.60683 0.52587 0.0
C336 C 0.38959 0.61795 0.4428 0.0
C337 C 0.38324 0.60829 0.29071 0.0
C338 C 0.37029 0.58764 0.2223 0.0
C339 C 0.37611 0.59754 0.37453 0.0
C340 C 0.34922 0.5562 0.23904 0.0
C341 C 0.342 0.54537 0.32217 0.0
H342 H 0.83853 0.37476 0.76941 0.0
H343 H 0.74491 0.34702 0.84607 0.0
H344 H 0.7317 0.35223 0.69976 0.0
H345 H 0.74674 0.36383 0.54938 0.0
H346 H 0.84069 0.39188 0.47503 0.0
H347 H 0.85362 0.38673 0.62107 0.0
C348 C 0.8151 0.36936 0.75409 0.0
C349 C 0.79271 0.36024 0.81851 0.0
C350 C 0.80771 0.3724 0.67018 0.0
C351 C 0.76265 0.3542 0.79774 0.0
C352 C 0.75505 0.35709 0.71406 0.0
C353 C 0.77009 0.36911 0.56538 0.0
C354 C 0.79265 0.37803 0.50131 0.0
C355 C 0.77743 0.3662 0.64975 0.0
C356 C 0.82276 0.38446 0.52285 0.0
C357 C 0.83022 0.38167 0.60642 0.0
H358 H 0.41242 0.78919 0.15519 0.0
H359 H 0.50921 0.81817 0.12018 0.0
H360 H 0.50198 0.8136 0.96676 0.0
H361 H 0.46831 0.8017 0.83994 0.0
H362 H 0.37148 0.77235 0.87479 0.0
H363 H 0.37856 0.77644 0.02855 0.0
C364 C 0.4319 0.79425 0.11426 0.0
C365 C 0.46145 0.80433 0.15062 0.0
C366 C 0.42761 0.79157 0.02482 0.0
C367 C 0.48631 0.81092 0.0952 0.0
C368 C 0.48218 0.80818 1.0068 0.0
C369 C 0.44881 0.79646 0.88101 0.0
C370 C 0.41934 0.78671 0.84467 0.0
C371 C 0.45301 0.79879 0.97049 0.0
C372 C 0.39435 0.77959 0.90004 0.0
C373 C 0.3984 0.78203 0.9885 0.0
H374 H 0.61492 0.36783 0.23621 0.0
H375 H 0.58795 0.43463 0.16145 0.0
H376 H 0.59349 0.45286 0.3074 0.0
H377 H 0.60549 0.44964 0.45578 0.0
H378 H 0.63234 0.38298 0.53276 0.0
H379 H 0.62666 0.36436 0.38666 0.0
C380 C 0.60996 0.38614 0.25211 0.0
C381 C 0.60123 0.39997 0.1879 0.0
C382 C 0.61313 0.3965 0.33643 0.0
C383 C 0.59522 0.42394 0.20934 0.0
C384 C 0.59823 0.43429 0.29287 0.0
C385 C 0.61062 0.4314 0.44062 0.0
C386 C 0.6196 0.41797 0.50518 0.0
C387 C 0.60734 0.42087 0.35674 0.0
C388 C 0.62528 0.39369 0.48444 0.0
C389 C 0.62211 0.38308 0.40083 0.0
H390 H 0.93909 0.49141 0.13962 0.0
H391 H 0.94121 0.43073 0.33185 0.0
H392 H 0.99741 0.46403 0.34608 0.0
H393 H 0.04599 0.51041 0.30308 0.0
H394 H 0.04332 0.56998 0.10772 0.0
H395 H 0.98724 0.53745 0.09693 0.0
C396 C 0.9518 0.48569 0.18539 0.0
C397 C 0.93603 0.45873 0.23474 0.0
C398 C 0.98401 0.50478 0.19284 0.0
C399 C 0.95289 0.45127 0.29264 0.0
C400 C 0.98499 0.47033 0.30098 0.0
C401 C 0.03317 0.51615 0.25776 0.0
C402 C 0.04891 0.54275 0.20673 0.0
C403 C 0.00083 0.49708 0.25102 0.0
C404 C 0.03181 0.55 0.14896 0.0
C405 C -0.00028 0.53128 0.14225 0.0
H406 H 0.49091 0.03791 0.58931 0.0
H407 H 0.58349 0.0638 0.50452 0.0
H408 H 0.56968 0.00964 0.5 0.0
H409 H 0.5306 0.95444 0.51211 0.0
H410 H 0.43676 0.92829 0.58042 0.0
H411 H 0.45153 0.98293 0.59722 0.0
C412 C 0.50807 0.03188 0.56879 0.0
C413 C 0.53833 0.05533 0.54782 0.0
C414 C 0.49966 0.00048 0.56272 0.0
C415 C 0.56024 0.04662 0.52321 0.0
C416 C 0.55229 0.0155 0.51956 0.0
C417 C 0.51356 0.96087 0.5313 0.0
C418 C 0.48278 0.93769 0.54558 0.0
C419 C 0.52202 0.99224 0.53838 0.0
C420 C 0.46062 0.94598 0.56923 0.0
C421 C 0.46906 0.97713 0.57881 0.0
H422 H 0.43532 0.4849 0.9448 0.0
H423 H 0.50638 0.57124 0.83739 0.0
H424 H 0.54164 0.55068 0.83091 0.0
H425 H 0.55204 0.50792 0.85187 0.0
H426 H 0.4838 0.42482 0.97945 0.0
H427 H 0.44805 0.44485 0.98245 0.0
C428 C 0.45867 0.49973 0.92172 0.0
C429 C 0.46763 0.52962 0.89053 0.0
C430 C 0.47949 0.48829 0.92129 0.0
C431 C 0.4981 0.54783 0.85946 0.0
C432 C 0.51857 0.53621 0.85653 0.0
C433 C 0.52968 0.4943 0.88221 0.0
C434 C 0.52077 0.46449 0.91393 0.0
C435 C 0.50945 0.50639 0.88674 0.0
C436 C 0.49127 0.44734 0.95171 0.0
C437 C 0.47076 0.45892 0.95434 0.0
loop_
_geom_bond_atom_site_label_1
_geom_bond_atom_site_label_2
_geom_bond_distance
_geom_bond_site_symmetry_2
_ccdc_geom_bond_type
Co0 N4 2.148 . S
Co0 N10 2.128 . S
Co0 N20 2.194 . S
Co0 O25 2.351 . S
Co0 O26 2.155 . S
Co0 O27 2.096 . S
C1 N4 1.301 . S
C1 N5 1.328 . S
C1 H6 0.930 . S
C2 C3 1.333 . S
C2 N4 1.317 . S
C2 H7 0.930 . S
C3 C2 1.333 . S
C3 N5 1.350 . S
C3 H29 0.931 . S
N4 Co0 2.148 . S
N4 C1 1.301 . S
N4 C2 1.317 . S
N5 C1 1.328 . S
N5 C3 1.350 . S
H6 C1 0.930 . S
H7 C2 0.930 . S
C8 O9 1.224 . S
C8 O27 1.247 . S
O9 C8 1.224 . S
N10 Co0 2.128 . S
N10 C11 1.355 . S
N10 C13 1.311 1_554 S
C11 N10 1.355 . S
C11 C12 1.363 1_554 S
C11 H23 0.929 . S
C12 C11 1.363 1_556 S
C12 N14 1.375 . S
C12 H30 0.931 . S
C13 N10 1.311 1_556 S
C13 N14 1.347 . S
C13 H24 0.929 . S
N14 C12 1.375 . S
N14 C13 1.347 . S
C15 C18 1.365 . S
C15 N20 1.328 . S
C15 H21 0.929 . S
C16 C17 1.362 . S
C16 C19 1.378 . S
C16 H31 0.929 . S
C17 C16 1.362 . S
C17 C18 1.366 . S
C18 C15 1.365 . S
C18 C17 1.366 . S
C18 H32 0.930 . S
C19 C16 1.378 . S
C19 N20 1.315 . S
C19 H22 0.930 . S
N20 Co0 2.194 . S
N20 C15 1.328 . S
N20 C19 1.315 . S
H21 C15 0.929 . S
H22 C19 0.930 . S
H23 C11 0.929 . S
H24 C13 0.929 . S
O25 Co0 2.351 . S
O25 C28 1.244 . S
O26 Co0 2.155 . S
O26 C28 1.240 . S
O27 Co0 2.096 . S
O27 C8 1.247 . S
C28 O25 1.244 . S
C28 O26 1.240 . S
H29 C3 0.931 . S
H30 C12 0.931 . S
H31 C16 0.929 . S
H32 C18 0.930 . S
Co33 N37 2.148 . S
Co33 N43 2.128 . S
Co33 N53 2.194 . S
Co33 O58 2.351 . S
Co33 O59 2.155 . S
Co33 O60 2.096 . S
C34 N37 1.301 . S
C34 N38 1.328 . S
C34 H39 0.930 . S
C35 C36 1.333 . S
C35 N37 1.317 . S
C35 H40 0.930 . S
C36 C35 1.333 . S
C36 N38 1.350 . S
C36 H62 0.931 . S
N37 Co33 2.148 . S
N37 C34 1.301 . S
N37 C35 1.317 . S
N38 C34 1.328 . S
N38 C36 1.350 . S
H39 C34 0.930 . S
H40 C35 0.930 . S
C41 O42 1.224 . S
C41 O60 1.247 . S
O42 C41 1.224 . S
N43 Co33 2.128 . S
N43 C44 1.355 . S
N43 C46 1.311 . S
C44 N43 1.355 . S
C44 C45 1.363 . S
C44 H56 0.929 . S
C45 C44 1.363 . S
C45 N47 1.375 . S
C45 H63 0.931 . S
C46 N43 1.311 . S
C46 N47 1.347 . S
C46 H57 0.929 . S
N47 C45 1.375 . S
N47 C46 1.347 . S
C48 C51 1.365 . S
C48 N53 1.328 . S
C48 H54 0.929 . S
C49 C50 1.362 . S
C49 C52 1.378 . S
C49 H64 0.929 . S
C50 C49 1.362 . S
C50 C51 1.366 . S
C51 C48 1.365 . S
C51 C50 1.366 . S
C51 H65 0.930 . S
C52 C49 1.378 . S
C52 N53 1.315 . S
C52 H55 0.930 . S
N53 Co33 2.194 . S
N53 C48 1.328 . S
N53 C52 1.315 . S
H54 C48 0.929 . S
H55 C52 0.930 . S
H56 C44 0.929 . S
H57 C46 0.929 . S
O58 Co33 2.351 . S
O58 C61 1.244 . S
O59 Co33 2.155 . S
O59 C61 1.240 . S
O60 Co33 2.096 . S
O60 C41 1.247 . S
C61 O58 1.244 . S
C61 O59 1.240 . S
H62 C36 0.931 . S
H63 C45 0.931 . S
H64 C49 0.929 . S
H65 C51 0.930 . S
Co66 N70 2.148 . S
Co66 N76 2.128 . S
Co66 N86 2.194 . S
Co66 O91 2.351 . S
Co66 O92 2.155 . S
Co66 O93 2.096 . S
C67 N70 1.301 1_554 S
C67 N71 1.328 . S
C67 H72 0.930 . S
C68 C69 1.333 1_556 S
C68 N70 1.317 . S
C68 H73 0.930 . S
C69 C68 1.333 1_554 S
C69 N71 1.350 . S
C69 H95 0.931 . S
N70 Co66 2.148 . S
N70 C67 1.301 1_556 S
N70 C68 1.317 . S
N71 C67 1.328 . S
N71 C69 1.350 . S
H72 C67 0.930 . S
H73 C68 0.930 . S
C74 O75 1.224 . S
C74 O93 1.247 . S
O75 C74 1.224 . S
N76 Co66 2.128 . S
N76 C77 1.355 . S
N76 C79 1.311 . S
C77 N76 1.355 . S
C77 C78 1.363 . S
C77 H89 0.929 . S
C78 C77 1.363 . S
C78 N80 1.375 . S
C78 H96 0.931 . S
C79 N76 1.311 . S
C79 N80 1.347 . S
C79 H90 0.929 . S
N80 C78 1.375 . S
N80 C79 1.347 . S
C81 C84 1.365 . S
C81 N86 1.328 . S
C81 H87 0.929 . S
C82 C83 1.362 . S
C82 C85 1.378 . S
C82 H97 0.929 . S
C83 C82 1.362 . S
C83 C84 1.366 . S
C84 C81 1.365 . S
C84 C83 1.366 . S
C84 H98 0.930 . S
C85 C82 1.378 . S
C85 N86 1.315 . S
C85 H88 0.930 . S
N86 Co66 2.194 . S
N86 C81 1.328 . S
N86 C85 1.315 . S
H87 C81 0.929 . S
H88 C85 0.930 . S
H89 C77 0.929 . S
H90 C79 0.929 . S
O91 Co66 2.351 . S
O91 C94 1.244 . S
O92 Co66 2.155 . S
O92 C94 1.240 . S
O93 Co66 2.096 . S
O93 C74 1.247 . S
C94 O91 1.244 . S
C94 O92 1.240 . S
H95 C69 0.931 . S
H96 C78 0.931 . S
H97 C82 0.929 . S
H98 C84 0.930 . S
Co99 N103 2.148 . S
Co99 N109 2.128 . S
Co99 N119 2.194 . S
Co99 O124 2.351 . S
Co99 O125 2.155 . S
Co99 O126 2.096 . S
C100 N103 1.301 . S
C100 N104 1.328 . S
C100 H105 0.930 . S
C101 C102 1.333 . S
C101 N103 1.317 . S
C101 H106 0.930 . S
C102 C101 1.333 . S
C102 N104 1.350 . S
C102 H128 0.931 . S
N103 Co99 2.148 . S
N103 C100 1.301 . S
N103 C101 1.317 . S
N104 C100 1.328 . S
N104 C102 1.350 . S
H105 C100 0.930 . S
H106 C101 0.930 . S
C107 O108 1.224 . S
C107 O126 1.247 . S
O108 C107 1.224 . S
N109 Co99 2.128 . S
N109 C110 1.355 . S
N109 C112 1.311 1_554 S
C110 N109 1.355 . S
C110 C111 1.363 1_554 S
C110 H122 0.929 . S
C111 C110 1.363 1_556 S
C111 N113 1.375 . S
C111 H129 0.931 . S
C112 N109 1.311 1_556 S
C112 N113 1.347 . S
C112 H123 0.929 . S
N113 C111 1.375 . S
N113 C112 1.347 . S
C114 C117 1.365 . S
C114 N119 1.328 . S
C114 H120 0.929 . S
C115 C116 1.362 . S
C115 C118 1.378 . S
C115 H130 0.929 . S
C116 C115 1.362 . S
C116 C117 1.366 . S
C117 C114 1.365 . S
C117 C116 1.366 . S
C117 H131 0.930 . S
C118 C115 1.378 . S
C118 N119 1.315 . S
C118 H121 0.930 . S
N119 Co99 2.194 . S
N119 C114 1.328 . S
N119 C118 1.315 . S
H120 C114 0.929 . S
H121 C118 0.930 . S
H122 C110 0.929 . S
H123 C112 0.929 . S
O124 Co99 2.351 . S
O124 C127 1.244 . S
O125 Co99 2.155 . S
O125 C127 1.240 . S
O126 Co99 2.096 . S
O126 C107 1.247 . S
C127 O124 1.244 . S
C127 O125 1.240 . S
H128 C102 0.931 . S
H129 C111 0.931 . S
H130 C115 0.929 . S
H131 C117 0.930 . S
Co132 N136 2.148 . S
Co132 N142 2.128 . S
Co132 N152 2.194 . S
Co132 O157 2.351 . S
Co132 O158 2.155 . S
Co132 O159 2.096 . S
C133 N136 1.301 . S
C133 N137 1.328 . S
C133 H138 0.930 . S
C134 C135 1.333 . S
C134 N136 1.317 . S
C134 H139 0.930 . S
C135 C134 1.333 . S
C135 N137 1.350 . S
C135 H161 0.931 . S
N136 Co132 2.148 . S
N136 C133 1.301 . S
N136 C134 1.317 . S
N137 C133 1.328 . S
N137 C135 1.350 . S
H138 C133 0.930 . S
H139 C134 0.930 . S
C140 O141 1.224 . S
C140 O159 1.247 . S
O141 C140 1.224 . S
N142 Co132 2.128 . S
N142 C143 1.355 . S
N142 C145 1.311 . S
C143 N142 1.355 . S
C143 C144 1.363 . S
C143 H155 0.929 . S
C144 C143 1.363 . S
C144 N146 1.375 . S
C144 H162 0.931 . S
C145 N142 1.311 . S
C145 N146 1.347 . S
C145 H156 0.929 . S
N146 C144 1.375 . S
N146 C145 1.347 . S
C147 C150 1.365 . S
C147 N152 1.328 . S
C147 H153 0.929 . S
C148 C149 1.362 . S
C148 C151 1.378 . S
C148 H163 0.929 . S
C149 C148 1.362 . S
C149 C150 1.366 . S
C150 C147 1.365 . S
C150 C149 1.366 . S
C150 H164 0.930 . S
C151 C148 1.378 . S
C151 N152 1.315 . S
C151 H154 0.930 . S
N152 Co132 2.194 . S
N152 C147 1.328 . S
N152 C151 1.315 . S
H153 C147 0.929 . S
H154 C151 0.930 . S
H155 C143 0.929 . S
H156 C145 0.929 . S
O157 Co132 2.351 . S
O157 C160 1.244 . S
O158 Co132 2.155 . S
O158 C160 1.240 . S
O159 Co132 2.096 . S
O159 C140 1.247 . S
C160 O157 1.244 . S
C160 O158 1.240 . S
H161 C135 0.931 . S
H162 C144 0.931 . S
H163 C148 0.929 . S
H164 C150 0.930 . S
Co165 N169 2.148 . S
Co165 N175 2.128 . S
Co165 N185 2.194 . S
Co165 O190 2.351 . S
Co165 O191 2.155 . S
Co165 O192 2.096 . S
C166 N169 1.301 1_554 S
C166 N170 1.328 . S
C166 H171 0.930 . S
C167 C168 1.333 1_556 S
C167 N169 1.317 . S
C167 H172 0.930 . S
C168 C167 1.333 1_554 S
C168 N170 1.350 . S
C168 H194 0.931 . S
N169 Co165 2.148 . S
N169 C166 1.301 1_556 S
N169 C167 1.317 . S
N170 C166 1.328 . S
N170 C168 1.350 . S
H171 C166 0.930 . S
H172 C167 0.930 . S
C173 O174 1.224 . S
C173 O192 1.247 . S
O174 C173 1.224 . S
N175 Co165 2.128 . S
N175 C176 1.355 . S
N175 C178 1.311 . S
C176 N175 1.355 . S
C176 C177 1.363 . S
C176 H188 0.929 . S
C177 C176 1.363 . S
C177 N179 1.375 . S
C177 H195 0.931 . S
C178 N175 1.311 . S
C178 N179 1.347 . S
C178 H189 0.929 . S
N179 C177 1.375 . S
N179 C178 1.347 . S
C180 C183 1.365 . S
C180 N185 1.328 . S
C180 H186 0.929 . S
C181 C182 1.362 . S
C181 C184 1.378 . S
C181 H196 0.929 . S
C182 C181 1.362 . S
C182 C183 1.366 . S
C183 C180 1.365 . S
C183 C182 1.366 . S
C183 H197 0.930 . S
C184 C181 1.378 . S
C184 N185 1.315 . S
C184 H187 0.930 . S
N185 Co165 2.194 . S
N185 C180 1.328 . S
N185 C184 1.315 . S
H186 C180 0.929 . S
H187 C184 0.930 . S
H188 C176 0.929 . S
H189 C178 0.929 . S
O190 Co165 2.351 . S
O190 C193 1.244 . S
O191 Co165 2.155 . S
O191 C193 1.240 . S
O192 Co165 2.096 . S
O192 C173 1.247 . S
C193 O190 1.244 . S
C193 O191 1.240 . S
H194 C168 0.931 . S
H195 C177 0.931 . S
H196 C181 0.929 . S
H197 C183 0.930 . S
H198 C204 0.930 . S
H199 C207 0.930 . S
H200 C208 0.930 . S
H201 C209 0.930 . S
H202 C212 0.930 . S
H203 C213 0.930 . S
C204 H198 0.930 . S
C204 C205 1.355 . S
C204 C206 1.415 . S
C205 C204 1.355 . S
C205 C207 1.419 . S
C206 C204 1.415 . S
C206 C211 1.425 1_554 S
C206 C213 1.409 . S
C207 H199 0.930 . S
C207 C205 1.419 . S
C207 C208 1.362 1_554 S
C208 H200 0.930 . S
C208 C207 1.362 1_556 S
C208 C211 1.409 . S
C209 H201 0.930 . S
C209 C210 1.355 . S
C209 C211 1.415 . S
C210 C209 1.355 . S
C210 C212 1.419 . S
C211 C206 1.425 1_556 S
C211 C208 1.409 . S
C211 C209 1.415 . S
C212 H202 0.930 . S
C212 C210 1.419 . S
C212 C213 1.362 1_556 S
C213 H203 0.930 . S
C213 C206 1.409 . S
C213 C212 1.362 1_554 S
H214 C220 0.930 . S
H215 C223 0.930 . S
H216 C224 0.930 . S
H217 C225 0.930 . S
H218 C228 0.930 . S
H219 C229 0.930 . S
C220 H214 0.930 . S
C220 C221 1.355 . S
C220 C222 1.415 . S
C221 C220 1.355 . S
C221 C223 1.419 . S
C222 C220 1.415 . S
C222 C227 1.425 . S
C222 C229 1.409 . S
C223 H215 0.930 . S
C223 C221 1.419 . S
C223 C224 1.362 . S
C224 H216 0.930 . S
C224 C223 1.362 . S
C224 C227 1.409 . S
C225 H217 0.930 . S
C225 C226 1.355 . S
C225 C227 1.415 . S
C226 C225 1.355 . S
C226 C228 1.419 . S
C227 C222 1.425 . S
C227 C224 1.409 . S
C227 C225 1.415 . S
C228 H218 0.930 . S
C228 C226 1.419 . S
C228 C229 1.362 . S
C229 H219 0.930 . S
C229 C222 1.409 . S
C229 C228 1.362 . S
H230 C236 0.930 . S
H231 C239 0.930 . S
H232 C240 0.930 . S
H233 C241 0.930 . S
H234 C244 0.930 . S
H235 C245 0.930 . S
C236 H230 0.930 . S
C236 C237 1.355 . S
C236 C238 1.415 . S
C237 C236 1.355 . S
C237 C239 1.419 . S
C238 C236 1.415 . S
C238 C243 1.425 . S
C238 C245 1.409 . S
C239 H231 0.930 . S
C239 C237 1.419 . S
C239 C240 1.362 . S
C240 H232 0.930 . S
C240 C239 1.362 . S
C240 C243 1.409 . S
C241 H233 0.930 . S
C241 C242 1.355 . S
C241 C243 1.415 . S
C242 C241 1.355 . S
C242 C244 1.419 . S
C243 C238 1.425 . S
C243 C240 1.409 . S
C243 C241 1.415 . S
C244 H234 0.930 . S
C244 C242 1.419 . S
C244 C245 1.362 . S
C245 H235 0.930 . S
C245 C238 1.409 . S
C245 C244 1.362 . S
H246 C252 0.930 . S
H247 C255 0.930 . S
H248 C256 0.930 . S
H249 C257 0.930 . S
H250 C260 0.930 . S
H251 C261 0.930 . S
C252 H246 0.930 . S
C252 C253 1.355 . S
C252 C254 1.415 . S
C253 C252 1.355 . S
C253 C255 1.419 . S
C254 C252 1.415 . S
C254 C259 1.425 1_556 S
C254 C261 1.409 1_556 S
C255 H247 0.930 . S
C255 C253 1.419 . S
C255 C256 1.362 . S
C256 H248 0.930 . S
C256 C255 1.362 . S
C256 C259 1.409 1_556 S
C257 H249 0.930 . S
C257 C258 1.355 . S
C257 C259 1.415 . S
C258 C257 1.355 . S
C258 C260 1.419 . S
C259 C254 1.425 1_554 S
C259 C256 1.409 1_554 S
C259 C257 1.415 . S
C260 H250 0.930 . S
C260 C258 1.419 . S
C260 C261 1.362 . S
C261 H251 0.930 . S
C261 C254 1.409 1_554 S
C261 C260 1.362 . S
H262 C268 0.930 . S
H263 C271 0.930 . S
H264 C272 0.930 . S
H265 C273 0.930 . S
H266 C276 0.930 . S
H267 C277 0.930 . S
C268 H262 0.930 . S
C268 C269 1.355 . S
C268 C270 1.415 . S
C269 C268 1.355 . S
C269 C271 1.419 . S
C270 C268 1.415 . S
C270 C275 1.425 . S
C270 C277 1.409 . S
C271 H263 0.930 . S
C271 C269 1.419 . S
C271 C272 1.362 . S
C272 H264 0.930 . S
C272 C271 1.362 . S
C272 C275 1.409 . S
C273 H265 0.930 . S
C273 C274 1.355 . S
C273 C275 1.415 . S
C274 C273 1.355 . S
C274 C276 1.419 . S
C275 C270 1.425 . S
C275 C272 1.409 . S
C275 C273 1.415 . S
C276 H266 0.930 . S
C276 C274 1.419 . S
C276 C277 1.362 . S
C277 H267 0.930 . S
C277 C270 1.409 . S
C277 C276 1.362 . S
H278 C284 0.930 . S
H279 C287 0.930 . S
H280 C288 0.930 . S
H281 C289 0.930 . S
H282 C292 0.930 . S
H283 C293 0.930 . S
C284 H278 0.930 . S
C284 C285 1.355 . S
C284 C286 1.415 . S
C285 C284 1.355 . S
C285 C287 1.419 . S
C286 C284 1.415 . S
C286 C291 1.425 . S
C286 C293 1.409 . S
C287 H279 0.930 . S
C287 C285 1.419 . S
C287 C288 1.362 . S
C288 H280 0.930 . S
C288 C287 1.362 . S
C288 C291 1.409 . S
C289 H281 0.930 . S
C289 C290 1.355 . S
C289 C291 1.415 . S
C290 C289 1.355 . S
C290 C292 1.419 . S
C291 C286 1.425 . S
C291 C288 1.409 . S
C291 C289 1.415 . S
C292 H282 0.930 . S
C292 C290 1.419 . S
C292 C293 1.362 . S
C293 H283 0.930 . S
C293 C286 1.409 . S
C293 C292 1.362 . S
H294 C300 0.930 . S
H295 C303 0.930 . S
H296 C304 0.930 . S
H297 C305 0.930 . S
H298 C308 0.930 . S
H299 C309 0.930 . S
C300 H294 0.930 . S
C300 C301 1.355 . S
C300 C302 1.415 . S
C301 C300 1.355 . S
C301 C303 1.419 . S
C302 C300 1.415 . S
C302 C307 1.425 . S
C302 C309 1.409 . S
C303 H295 0.930 . S
C303 C301 1.419 . S
C303 C304 1.362 . S
C304 H296 0.930 . S
C304 C303 1.362 . S
C304 C307 1.409 . S
C305 H297 0.930 . S
C305 C306 1.355 . S
C305 C307 1.415 . S
C306 C305 1.355 . S
C306 C308 1.419 . S
C307 C302 1.425 . S
C307 C304 1.409 . S
C307 C305 1.415 . S
C308 H298 0.930 . S
C308 C306 1.419 . S
C308 C309 1.362 . S
C309 H299 0.930 . S
C309 C302 1.409 . S
C309 C308 1.362 . S
H310 C316 0.930 . S
H311 C319 0.930 . S
H312 C320 0.930 1_554 S
H313 C321 0.930 . S
H314 C324 0.930 . S
H315 C325 0.930 1_556 S
C316 H310 0.930 . S
C316 C317 1.355 . S
C316 C318 1.415 . S
C317 C316 1.355 . S
C317 C319 1.419 . S
C318 C316 1.415 . S
C318 C323 1.425 1_556 S
C318 C325 1.409 1_556 S
C319 H311 0.930 . S
C319 C317 1.419 . S
C319 C320 1.362 . S
C320 H312 0.930 1_556 S
C320 C319 1.362 . S
C320 C323 1.409 1_556 S
C321 H313 0.930 . S
C321 C322 1.355 . S
C321 C323 1.415 . S
C322 C321 1.355 . S
C322 C324 1.419 . S
C323 C318 1.425 1_554 S
C323 C320 1.409 1_554 S
C323 C321 1.415 . S
C324 H314 0.930 . S
C324 C322 1.419 . S
C324 C325 1.362 . S
C325 H315 0.930 1_554 S
C325 C318 1.409 1_554 S
C325 C324 1.362 . S
H326 C332 0.930 . S
H327 C335 0.930 . S
H328 C336 0.930 . S
H329 C337 0.930 . S
H330 C340 0.930 . S
H331 C341 0.930 . S
C332 H326 0.930 . S
C332 C333 1.355 . S
C332 C334 1.415 . S
C333 C332 1.355 . S
C333 C335 1.419 . S
C334 C332 1.415 . S
C334 C339 1.425 . S
C334 C341 1.409 . S
C335 H327 0.930 . S
C335 C333 1.419 . S
C335 C336 1.362 . S
C336 H328 0.930 . S
C336 C335 1.362 . S
C336 C339 1.409 . S
C337 H329 0.930 . S
C337 C338 1.355 . S
C337 C339 1.415 . S
C338 C337 1.355 . S
C338 C340 1.419 . S
C339 C334 1.425 . S
C339 C336 1.409 . S
C339 C337 1.415 . S
C340 H330 0.930 . S
C340 C338 1.419 . S
C340 C341 1.362 . S
C341 H331 0.930 . S
C341 C334 1.409 . S
C341 C340 1.362 . S
H342 C348 0.930 . S
H343 C351 0.930 . S
H344 C352 0.930 . S
H345 C353 0.930 . S
H346 C356 0.930 . S
H347 C357 0.930 . S
C348 H342 0.930 . S
C348 C349 1.355 . S
C348 C350 1.415 . S
C349 C348 1.355 . S
C349 C351 1.419 . S
C350 C348 1.415 . S
C350 C355 1.425 . S
C350 C357 1.409 . S
C351 H343 0.930 . S
C351 C349 1.419 . S
C351 C352 1.362 . S
C352 H344 0.930 . S
C352 C351 1.362 . S
C352 C355 1.409 . S
C353 H345 0.930 . S
C353 C354 1.355 . S
C353 C355 1.415 . S
C354 C353 1.355 . S
C354 C356 1.419 . S
C355 C350 1.425 . S
C355 C352 1.409 . S
C355 C353 1.415 . S
C356 H346 0.930 . S
C356 C354 1.419 . S
C356 C357 1.362 . S
C357 H347 0.930 . S
C357 C350 1.409 . S
C357 C356 1.362 . S
H358 C364 0.930 . S
H359 C367 0.930 . S
H360 C368 0.930 1_556 S
H361 C369 0.930 . S
H362 C372 0.930 . S
H363 C373 0.930 1_554 S
C364 H358 0.930 . S
C364 C365 1.355 . S
C364 C366 1.415 . S
C365 C364 1.355 . S
C365 C367 1.419 . S
C366 C364 1.415 . S
C366 C371 1.425 1_554 S
C366 C373 1.409 1_554 S
C367 H359 0.930 . S
C367 C365 1.419 . S
C367 C368 1.362 . S
C368 H360 0.930 1_554 S
C368 C367 1.362 . S
C368 C371 1.409 1_554 S
C369 H361 0.930 . S
C369 C370 1.355 . S
C369 C371 1.415 . S
C370 C369 1.355 . S
C370 C372 1.419 . S
C371 C366 1.425 1_556 S
C371 C368 1.409 1_556 S
C371 C369 1.415 . S
C372 H362 0.930 . S
C372 C370 1.419 . S
C372 C373 1.362 . S
C373 H363 0.930 1_556 S
C373 C366 1.409 1_556 S
C373 C372 1.362 . S
H374 C380 0.930 . S
H375 C383 0.930 . S
H376 C384 0.930 . S
H377 C385 0.930 . S
H378 C388 0.930 . S
H379 C389 0.930 . S
C380 H374 0.930 . S
C380 C381 1.355 . S
C380 C382 1.415 . S
C381 C380 1.355 . S
C381 C383 1.419 . S
C382 C380 1.415 . S
C382 C387 1.425 . S
C382 C389 1.409 . S
C383 H375 0.930 . S
C383 C381 1.419 . S
C383 C384 1.362 . S
C384 H376 0.930 . S
C384 C383 1.362 . S
C384 C387 1.409 . S
C385 H377 0.930 . S
C385 C386 1.355 . S
C385 C387 1.415 . S
C386 C385 1.355 . S
C386 C388 1.419 . S
C387 C382 1.425 . S
C387 C384 1.409 . S
C387 C385 1.415 . S
C388 H378 0.930 . S
C388 C386 1.419 . S
C388 C389 1.362 . S
C389 H379 0.930 . S
C389 C382 1.409 . S
C389 C388 1.362 . S
H390 C396 0.930 . S
H391 C399 0.930 . S
H392 C400 0.930 . S
H393 C401 0.930 . S
H394 C404 0.930 . S
H395 C405 0.930 . S
C396 H390 0.930 . S
C396 C397 1.355 . S
C396 C398 1.415 . S
C397 C396 1.355 . S
C397 C399 1.419 . S
C398 C396 1.415 . S
C398 C403 1.425 1_655 S
C398 C405 1.409 1_655 S
C399 H391 0.930 . S
C399 C397 1.419 . S
C399 C400 1.362 . S
C400 H392 0.930 . S
C400 C399 1.362 . S
C400 C403 1.409 1_655 S
C401 H393 0.930 . S
C401 C402 1.355 . S
C401 C403 1.415 . S
C402 C401 1.355 . S
C402 C404 1.419 . S
C403 C398 1.425 1_455 S
C403 C400 1.409 1_455 S
C403 C401 1.415 . S
C404 H394 0.930 . S
C404 C402 1.419 . S
C404 C405 1.362 . S
C405 H395 0.930 . S
C405 C398 1.409 1_455 S
C405 C404 1.362 . S
H406 C412 0.930 . S
H407 C415 0.930 . S
H408 C416 0.930 . S
H409 C417 0.930 . S
H410 C420 0.930 . S
H411 C421 0.930 . S
C412 H406 0.930 . S
C412 C413 1.355 . S
C412 C414 1.415 . S
C413 C412 1.355 . S
C413 C415 1.419 . S
C414 C412 1.415 . S
C414 C419 1.425 1_545 S
C414 C421 1.409 1_545 S
C415 H407 0.930 . S
C415 C413 1.419 . S
C415 C416 1.362 . S
C416 H408 0.930 . S
C416 C415 1.362 . S
C416 C419 1.409 1_545 S
C417 H409 0.930 . S
C417 C418 1.355 . S
C417 C419 1.415 . S
C418 C417 1.355 . S
C418 C420 1.419 . S
C419 C414 1.425 1_565 S
C419 C416 1.409 1_565 S
C419 C417 1.415 . S
C420 H410 0.930 . S
C420 C418 1.419 . S
C420 C421 1.362 . S
C421 H411 0.930 . S
C421 C414 1.409 1_565 S
C421 C420 1.362 . S
H422 C428 0.930 . S
H423 C431 0.930 . S
H424 C432 0.930 . S
H425 C433 0.930 . S
H426 C436 0.930 . S
H427 C437 0.930 . S
C428 H422 0.930 . S
C428 C429 1.355 . S
C428 C430 1.415 . S
C429 C428 1.355 . S
C429 C431 1.419 . S
C430 C428 1.415 . S
C430 C435 1.425 . S
C430 C437 1.409 . S
C431 H423 0.930 . S
C431 C429 1.419 . S
C431 C432 1.362 . S
C432 H424 0.930 . S
C432 C431 1.362 . S
C432 C435 1.409 . S
C433 H425 0.930 . S
C433 C434 1.355 . S
C433 C435 1.415 . S
C434 C433 1.355 . S
C434 C436 1.419 . S
C435 C430 1.425 . S
C435 C432 1.409 . S
C435 C433 1.415 . S
C436 H426 0.930 . S
C436 C434 1.419 . S
C436 C437 1.362 . S
C437 H427 0.930 . S
C437 C430 1.409 . S
C437 C436 1.362 . S
C205 C8 0.931 . S
C210 C94 0.854 . S
C221 C41 0.905 . S
C226 C127 0.946 . S
C237 C160 0.847 . S
C242 C74 0.940 . S
C253 C193 0.958 . S
C258 C107 0.872 . S
C269 C140 0.890 . S
C274 C28 0.910 . S
C285 C61 0.889 . S
C290 C173 0.944 . S
C301 N14 1.538 . S
C306 N5 1.545 . S
C317 N38 1.563 . S
C322 N47 1.559 . S
C333 N80 1.536 . S
C338 N71 1.539 . S
C349 N113 1.564 . S
C354 N104 1.566 . S
C365 N146 1.564 . S
C370 N137 1.566 . S
C381 N170 1.565 . S
C386 N179 1.563 . S
C397 C116 1.246 . S
C402 C17 1.247 . S
C413 C50 1.232 . S
C418 C149 1.229 . S
C429 C83 1.227 . S
C434 C182 1.234 . S
