# Generated by pormake.
# Topology pcu-i, (5)-cn, num edge types: 1
# Building blocks:
#     Node 0, Type 0, BuildingBlock: XOMCOT_clean_sbu_0, # of connection points: 5
#     Node 1, Type 0, BuildingBlock: XOMCOT_clean_sbu_0, # of connection points: 5
#     Node 2, Type 0, BuildingBlock: XOMCOT_clean_sbu_0, # of connection points: 5
#     Node 3, Type 0, BuildingBlock: XOMCOT_clean_sbu_0, # of connection points: 5
#     Node 4, Type 0, BuildingBlock: XOMCOT_clean_sbu_0, # of connection points: 5
#     Node 5, Type 0, BuildingBlock: XOMCOT_clean_sbu_0, # of connection points: 5
#     Node 6, Type 0, BuildingBlock: XOMCOT_clean_sbu_0, # of connection points: 5
#     Node 7, Type 0, BuildingBlock: XOMCOT_clean_sbu_0, # of connection points: 5
#     Node 8, Type 0, BuildingBlock: XOMCOT_clean_sbu_0, # of connection points: 5
#     Node 9, Type 0, BuildingBlock: XOMCOT_clean_sbu_0, # of connection points: 5
#     Node 10, Type 0, BuildingBlock: XOMCOT_clean_sbu_0, # of connection points: 5
#     Node 11, Type 0, BuildingBlock: XOMCOT_clean_sbu_0, # of connection points: 5
#     Node 12, Type 0, BuildingBlock: XOMCOT_clean_sbu_0, # of connection points: 5
#     Node 13, Type 0, BuildingBlock: XOMCOT_clean_sbu_0, # of connection points: 5
#     Node 14, Type 0, BuildingBlock: XOMCOT_clean_sbu_0, # of connection points: 5
#     Node 15, Type 0, BuildingBlock: XOMCOT_clean_sbu_0, # of connection points: 5
#     Node 16, Type 0, BuildingBlock: XOMCOT_clean_sbu_0, # of connection points: 5
#     Node 17, Type 0, BuildingBlock: XOMCOT_clean_sbu_0, # of connection points: 5
#     Node 18, Type 0, BuildingBlock: XOMCOT_clean_sbu_0, # of connection points: 5
#     Node 19, Type 0, BuildingBlock: XOMCOT_clean_sbu_0, # of connection points: 5
#     Node 20, Type 0, BuildingBlock: XOMCOT_clean_sbu_0, # of connection points: 5
#     Node 21, Type 0, BuildingBlock: XOMCOT_clean_sbu_0, # of connection points: 5
#     Node 22, Type 0, BuildingBlock: XOMCOT_clean_sbu_0, # of connection points: 5
#     Node 23, Type 0, BuildingBlock: XOMCOT_clean_sbu_0, # of connection points: 5
#     Edge 24, Type (0, 0), BuildingBlock: XUDNAN_clean_linker_2, # of connection points: 2
#     Edge 25, Type (0, 0), BuildingBlock: XUDNAN_clean_linker_2, # of connection points: 2
#     Edge 26, Type (0, 0), BuildingBlock: XUDNAN_clean_linker_2, # of connection points: 2
#     Edge 27, Type (0, 0), BuildingBlock: XUDNAN_clean_linker_2, # of connection points: 2
#     Edge 28, Type (0, 0), BuildingBlock: XUDNAN_clean_linker_2, # of connection points: 2
#     Edge 29, Type (0, 0), BuildingBlock: XUDNAN_clean_linker_2, # of connection points: 2
#     Edge 30, Type (0, 0), BuildingBlock: XUDNAN_clean_linker_2, # of connection points: 2
#     Edge 31, Type (0, 0), BuildingBlock: XUDNAN_clean_linker_2, # of connection points: 2
#     Edge 32, Type (0, 0), BuildingBlock: XUDNAN_clean_linker_2, # of connection points: 2
#     Edge 33, Type (0, 0), BuildingBlock: XUDNAN_clean_linker_2, # of connection points: 2
#     Edge 34, Type (0, 0), BuildingBlock: XUDNAN_clean_linker_2, # of connection points: 2
#     Edge 35, Type (0, 0), BuildingBlock: XUDNAN_clean_linker_2, # of connection points: 2
#     Edge 36, Type (0, 0), BuildingBlock: XUDNAN_clean_linker_2, # of connection points: 2
#     Edge 37, Type (0, 0), BuildingBlock: XUDNAN_clean_linker_2, # of connection points: 2
#     Edge 38, Type (0, 0), BuildingBlock: XUDNAN_clean_linker_2, # of connection points: 2
#     Edge 39, Type (0, 0), BuildingBlock: XUDNAN_clean_linker_2, # of connection points: 2
#     Edge 40, Type (0, 0), BuildingBlock: XUDNAN_clean_linker_2, # of connection points: 2
#     Edge 41, Type (0, 0), BuildingBlock: XUDNAN_clean_linker_2, # of connection points: 2
#     Edge 42, Type (0, 0), BuildingBlock: XUDNAN_clean_linker_2, # of connection points: 2
#     Edge 43, Type (0, 0), BuildingBlock: XUDNAN_clean_linker_2, # of connection points: 2
#     Edge 44, Type (0, 0), BuildingBlock: XUDNAN_clean_linker_2, # of connection points: 2
#     Edge 45, Type (0, 0), BuildingBlock: XUDNAN_clean_linker_2, # of connection points: 2
#     Edge 46, Type (0, 0), BuildingBlock: XUDNAN_clean_linker_2, # of connection points: 2
#     Edge 47, Type (0, 0), BuildingBlock: XUDNAN_clean_linker_2, # of connection points: 2
#     Edge 48, Type (0, 0), BuildingBlock: XUDNAN_clean_linker_2, # of connection points: 2
#     Edge 49, Type (0, 0), BuildingBlock: XUDNAN_clean_linker_2, # of connection points: 2
#     Edge 50, Type (0, 0), BuildingBlock: XUDNAN_clean_linker_2, # of connection points: 2
#     Edge 51, Type (0, 0), BuildingBlock: XUDNAN_clean_linker_2, # of connection points: 2
#     Edge 52, Type (0, 0), BuildingBlock: XUDNAN_clean_linker_2, # of connection points: 2
#     Edge 53, Type (0, 0), BuildingBlock: XUDNAN_clean_linker_2, # of connection points: 2
#     Edge 54, Type (0, 0), BuildingBlock: XUDNAN_clean_linker_2, # of connection points: 2
#     Edge 55, Type (0, 0), BuildingBlock: XUDNAN_clean_linker_2, # of connection points: 2
#     Edge 56, Type (0, 0), BuildingBlock: XUDNAN_clean_linker_2, # of connection points: 2
#     Edge 57, Type (0, 0), BuildingBlock: XUDNAN_clean_linker_2, # of connection points: 2
#     Edge 58, Type (0, 0), BuildingBlock: XUDNAN_clean_linker_2, # of connection points: 2
#     Edge 59, Type (0, 0), BuildingBlock: XUDNAN_clean_linker_2, # of connection points: 2
#     Edge 60, Type (0, 0), BuildingBlock: XUDNAN_clean_linker_2, # of connection points: 2
#     Edge 61, Type (0, 0), BuildingBlock: XUDNAN_clean_linker_2, # of connection points: 2
#     Edge 62, Type (0, 0), BuildingBlock: XUDNAN_clean_linker_2, # of connection points: 2
#     Edge 63, Type (0, 0), BuildingBlock: XUDNAN_clean_linker_2, # of connection points: 2
#     Edge 64, Type (0, 0), BuildingBlock: XUDNAN_clean_linker_2, # of connection points: 2
#     Edge 65, Type (0, 0), BuildingBlock: XUDNAN_clean_linker_2, # of connection points: 2
#     Edge 66, Type (0, 0), BuildingBlock: XUDNAN_clean_linker_2, # of connection points: 2
#     Edge 67, Type (0, 0), BuildingBlock: XUDNAN_clean_linker_2, # of connection points: 2
#     Edge 68, Type (0, 0), BuildingBlock: XUDNAN_clean_linker_2, # of connection points: 2
#     Edge 69, Type (0, 0), BuildingBlock: XUDNAN_clean_linker_2, # of connection points: 2
#     Edge 70, Type (0, 0), BuildingBlock: XUDNAN_clean_linker_2, # of connection points: 2
#     Edge 71, Type (0, 0), BuildingBlock: XUDNAN_clean_linker_2, # of connection points: 2
#     Edge 72, Type (0, 0), BuildingBlock: XUDNAN_clean_linker_2, # of connection points: 2
#     Edge 73, Type (0, 0), BuildingBlock: XUDNAN_clean_linker_2, # of connection points: 2
#     Edge 74, Type (0, 0), BuildingBlock: XUDNAN_clean_linker_2, # of connection points: 2
#     Edge 75, Type (0, 0), BuildingBlock: XUDNAN_clean_linker_2, # of connection points: 2
#     Edge 76, Type (0, 0), BuildingBlock: XUDNAN_clean_linker_2, # of connection points: 2
#     Edge 77, Type (0, 0), BuildingBlock: XUDNAN_clean_linker_2, # of connection points: 2
#     Edge 78, Type (0, 0), BuildingBlock: XUDNAN_clean_linker_2, # of connection points: 2
#     Edge 79, Type (0, 0), BuildingBlock: XUDNAN_clean_linker_2, # of connection points: 2
#     Edge 80, Type (0, 0), BuildingBlock: XUDNAN_clean_linker_2, # of connection points: 2
#     Edge 81, Type (0, 0), BuildingBlock: XUDNAN_clean_linker_2, # of connection points: 2
#     Edge 82, Type (0, 0), BuildingBlock: XUDNAN_clean_linker_2, # of connection points: 2
#     Edge 83, Type (0, 0), BuildingBlock: XUDNAN_clean_linker_2, # of connection points: 2
# Relax obj value: 0.306
# Max RMSD: 0.282
# Mean RMSD: 0.282
data_MOF--net-pcu-i--node1-XOMCOT_clean_sbu_0--edge1-XUDNAN_clean_linker_2
_symmetry_space_group_name_H-M    P1
_symmetry_Int_Tables_number       1
_symmetry_cell_setting            triclinic
loop_
_symmetry_equiv_pos_as_xyz
'x, y, z'
_cell_length_a     56.373903
_cell_length_b     56.357493
_cell_length_c     56.421288
_cell_angle_alpha  89.99619
_cell_angle_beta   89.997585
_cell_angle_gamma 89.965354
loop_
_atom_site_label
_atom_site_type_symbol
_atom_site_fract_x
_atom_site_fract_y
_atom_site_fract_z
_atom_type_partial_charge
Co0 Co 0.13568 0.15193 0.34673 0.0
C1 C 0.08296 0.15293 0.3414 0.0
C2 C 0.09731 0.18616 0.35315 0.0
C3 C 0.07366 0.18938 0.34804 0.0
N4 N 0.10325 0.16335 0.34886 0.0
N5 N 0.06479 0.16847 0.34074 0.0
H6 H 0.08162 0.13488 0.33507 0.0
H7 H 0.10969 0.1999 0.35826 0.0
C8 C 0.16177 0.19291 0.32182 0.0
O9 O 0.18282 0.18495 0.32775 0.0
N10 N 0.16788 0.14058 0.34343 0.0
C11 C 0.18368 0.13324 0.35983 0.0
C12 C 0.2043 0.12645 0.34826 0.0
C13 C 0.17853 0.13712 0.32237 0.0
N14 N 0.20093 0.12927 0.32476 0.0
C15 C 0.12918 0.15903 0.39577 0.0
C16 C 0.16766 0.18803 0.40463 0.0
C17 C 0.15494 0.17866 0.42377 0.0
C18 C 0.13506 0.1646 0.41909 0.0
C19 C 0.16129 0.18178 0.38144 0.0
N20 N 0.14267 0.16682 0.37723 0.0
H21 H 0.1142 0.14751 0.39264 0.0
H22 H 0.17223 0.18808 0.36737 0.0
H23 H 0.18066 0.13323 0.37876 0.0
H24 H 0.17039 0.14153 0.30555 0.0
O25 O 0.12693 0.12151 0.35931 0.0
O26 O 0.12697 0.13039 0.32102 0.0
O27 O 0.1428 0.18195 0.32786 0.0
C28 C 0.12383 0.11458 0.33767 0.0
H29 H 0.0639 0.20591 0.34878 0.0
H30 H 0.22076 0.12096 0.35649 0.0
H31 H 0.18316 0.19899 0.40758 0.0
H32 H 0.12451 0.15734 0.43341 0.0
Co33 Co 0.85849 0.14359 0.33727 0.0
C34 C 0.85733 0.09238 0.32668 0.0
C35 C 0.87151 0.09933 0.36136 0.0
C36 C 0.87325 0.07539 0.35689 0.0
N37 N 0.86155 0.10992 0.34243 0.0
N38 N 0.86442 0.07107 0.33508 0.0
H39 H 0.8503 0.09531 0.30907 0.0
H40 H 0.87787 0.10846 0.37697 0.0
C41 C 0.809 0.15098 0.31865 0.0
O42 O 0.80741 0.17088 0.33065 0.0
N43 N 0.85572 0.17745 0.33128 0.0
C44 C 0.85492 0.19574 0.34675 0.0
C45 C 0.84904 0.21609 0.33464 0.0
C46 C 0.85125 0.18723 0.30986 0.0
N47 N 0.84668 0.21064 0.31155 0.0
C48 C 0.8581 0.15466 0.38655 0.0
C49 C 0.81223 0.14143 0.3971 0.0
C50 C 0.82655 0.15066 0.41536 0.0
C51 C 0.84994 0.15675 0.40968 0.0
C52 C 0.82137 0.13911 0.374 0.0
N53 N 0.84381 0.14669 0.36868 0.0
H54 H 0.87614 0.15989 0.38316 0.0
H55 H 0.81043 0.1308 0.36074 0.0
H56 H 0.85728 0.19466 0.36564 0.0
H57 H 0.8493 0.17703 0.29372 0.0
O58 O 0.89095 0.14768 0.3468 0.0
O59 O 0.87951 0.14115 0.30985 0.0
O60 O 0.82732 0.13771 0.32052 0.0
C61 C 0.89674 0.14463 0.32483 0.0
H62 H 0.88075 0.06222 0.36867 0.0
H63 H 0.84572 0.23338 0.34233 0.0
H64 H 0.79417 0.13591 0.40055 0.0
H65 H 0.86233 0.16273 0.42306 0.0
Co66 Co 0.86516 0.86923 0.33223 0.0
C67 C 0.91918 0.86234 0.33058 0.0
C68 C 0.89901 0.84925 0.30104 0.0
C69 C 0.92229 0.8448 0.29674 0.0
N70 N 0.8967 0.86002 0.3222 0.0
N71 N 0.93518 0.85273 0.31522 0.0
H72 H 0.92367 0.87064 0.34728 0.0
H73 H 0.88449 0.84527 0.28916 0.0
C74 C 0.84331 0.82003 0.33411 0.0
O75 O 0.83323 0.82457 0.35462 0.0
N76 N 0.83232 0.87768 0.33934 0.0
C77 C 0.82334 0.89822 0.348 0.0
C78 C 0.79963 0.89992 0.34187 0.0
C79 C 0.81393 0.86779 0.32759 0.0
N80 N 0.79384 0.8806 0.3291 0.0
C81 C 0.86741 0.87803 0.38135 0.0
C82 C 0.88076 0.83371 0.39735 0.0
C83 C 0.87559 0.85162 0.41394 0.0
C84 C 0.86922 0.87401 0.4055 0.0
C85 C 0.87905 0.8387 0.37286 0.0
N86 N 0.87122 0.86041 0.36523 0.0
H87 H 0.86282 0.89562 0.37571 0.0
H88 H 0.8836 0.82506 0.36018 0.0
H89 H 0.83358 0.91239 0.3558 0.0
H90 H 0.81582 0.85314 0.3154 0.0
O91 O 0.87503 0.90154 0.335 0.0
O92 O 0.86096 0.88578 0.30193 0.0
O93 O 0.85512 0.83605 0.32328 0.0
C94 C 0.8691 0.9044 0.31305 0.0
H95 H 0.92929 0.8368 0.28075 0.0
H96 H 0.78811 0.91496 0.34504 0.0
H97 H 0.88632 0.81628 0.40322 0.0
H98 H 0.86533 0.88845 0.41757 0.0
Co99 Co 0.14579 0.87071 0.32344 0.0
C100 C 0.14007 0.92403 0.33045 0.0
C101 C 0.1574 0.91366 0.29833 0.0
C102 C 0.15438 0.93768 0.29784 0.0
N103 N 0.14914 0.90488 0.31898 0.0
N104 N 0.14353 0.94441 0.31801 0.0
H105 H 0.13018 0.92312 0.34676 0.0
H106 H 0.16399 0.90307 0.28377 0.0
C107 C 0.19626 0.87783 0.31236 0.0
O108 O 0.19557 0.89314 0.32991 0.0
N109 N 0.14196 0.83668 0.32552 0.0
C110 C 0.13206 0.82436 0.34334 0.0
C111 C 0.1287 0.80133 0.33593 0.0
C112 C 0.14432 0.82112 0.30747 0.0
N113 N 0.13631 0.7992 0.31325 0.0
C114 C 0.15115 0.88168 0.37311 0.0
C115 C 0.18663 0.84882 0.38155 0.0
C116 C 0.17593 0.86005 0.40094 0.0
C117 C 0.15833 0.87711 0.39642 0.0
C118 C 0.17889 0.85384 0.35858 0.0
N119 N 0.16135 0.87016 0.35444 0.0
H120 H 0.13606 0.89303 0.37039 0.0
H121 H 0.18603 0.84338 0.34421 0.0
H122 H 0.12658 0.83187 0.36012 0.0
H123 H 0.15081 0.82622 0.29019 0.0
O124 O 0.11381 0.87493 0.33456 0.0
O125 O 0.12388 0.87037 0.29683 0.0
O126 O 0.17745 0.86634 0.3066 0.0
C127 C 0.10717 0.87295 0.31267 0.0
H128 H 0.15858 0.94907 0.28298 0.0
H129 H 0.12016 0.78766 0.34629 0.0
H130 H 0.20023 0.83548 0.3841 0.0
H131 H 0.149 0.88572 0.41083 0.0
Co132 Co 0.13714 0.86213 0.64537 0.0
C133 C 0.08428 0.86262 0.6494 0.0
C134 C 0.0966 0.83675 0.62446 0.0
C135 C 0.07264 0.83418 0.62686 0.0
N136 N 0.10411 0.85482 0.63828 0.0
N137 N 0.06479 0.85038 0.64256 0.0
H138 H 0.08413 0.87634 0.66278 0.0
H139 H 0.10776 0.82517 0.61408 0.0
C140 C 0.13675 0.81014 0.66184 0.0
O141 O 0.13534 0.80112 0.64045 0.0
N142 N 0.1698 0.8684 0.65339 0.0
C143 C 0.18663 0.87948 0.64057 0.0
C144 C 0.20787 0.87798 0.65274 0.0
C145 C 0.18076 0.86066 0.67311 0.0
N146 N 0.20407 0.86592 0.67309 0.0
C147 C 0.13733 0.85773 0.59602 0.0
C148 C 0.17612 0.82823 0.5908 0.0
C149 C 0.1662 0.83911 0.57067 0.0
C150 C 0.14614 0.85336 0.57356 0.0
C151 C 0.16652 0.83305 0.61338 0.0
N152 N 0.14734 0.84776 0.61568 0.0
H153 H 0.12264 0.86993 0.59774 0.0
H154 H 0.17518 0.82601 0.62897 0.0
H155 H 0.18382 0.88741 0.62333 0.0
H156 H 0.1718 0.85128 0.68723 0.0
O157 O 0.13408 0.89372 0.63304 0.0
O158 O 0.12761 0.88389 0.67048 0.0
O159 O 0.13834 0.83247 0.66506 0.0
C160 C 0.12886 0.90046 0.65437 0.0
H161 H 0.06208 0.82041 0.61867 0.0
H162 H 0.22487 0.88455 0.64673 0.0
H163 H 0.19175 0.81715 0.58924 0.0
H164 H 0.13766 0.86179 0.55851 0.0
Co165 Co 0.14913 0.14428 0.67175 0.0
C166 C 0.14155 0.09162 0.67051 0.0
C167 C 0.17503 0.10219 0.65577 0.0
C168 C 0.1733 0.07791 0.65436 0.0
N169 N 0.15502 0.11088 0.6656 0.0
N170 N 0.15231 0.07133 0.66368 0.0
H171 H 0.12425 0.09222 0.67872 0.0
H172 H 0.18995 0.11281 0.65007 0.0
C173 C 0.1948 0.16154 0.69583 0.0
O174 O 0.18902 0.18397 0.69374 0.0
N175 N 0.14301 0.17742 0.67826 0.0
C176 C 0.13588 0.19438 0.66296 0.0
C177 C 0.1315 0.21495 0.67551 0.0
C178 C 0.14177 0.1875 0.69989 0.0
N179 N 0.13554 0.21053 0.69864 0.0
C180 C 0.15097 0.14132 0.62203 0.0
C181 C 0.18597 0.17448 0.61338 0.0
C182 C 0.17431 0.16389 0.59408 0.0
C183 C 0.15675 0.14697 0.59878 0.0
C184 C 0.17965 0.16819 0.63662 0.0
N185 N 0.16211 0.15194 0.64067 0.0
H186 H 0.13705 0.12852 0.62511 0.0
H187 H 0.18827 0.17705 0.65108 0.0
H188 H 0.13385 0.19198 0.64406 0.0
H189 H 0.14602 0.1783 0.7162 0.0
O190 O 0.1168 0.14169 0.6619 0.0
O191 O 0.12911 0.13599 0.69885 0.0
O192 O 0.18149 0.14504 0.68764 0.0
C193 C 0.11154 0.13734 0.68381 0.0
H194 H 0.18664 0.06595 0.64743 0.0
H195 H 0.12639 0.23195 0.66819 0.0
H196 H 0.19965 0.18767 0.61056 0.0
H197 H 0.1468 0.13866 0.58461 0.0
Co198 Co 0.872 0.1216 0.65354 0.0
C199 C 0.9238 0.12079 0.6612 0.0
C200 C 0.91568 0.13999 0.62947 0.0
C201 C 0.93962 0.14165 0.63362 0.0
N202 N 0.90559 0.12664 0.64665 0.0
N203 N 0.9447 0.1297 0.65365 0.0
H204 H 0.92168 0.11145 0.6778 0.0
H205 H 0.90651 0.1495 0.61567 0.0
C206 C 0.87992 0.17131 0.67253 0.0
O207 O 0.88879 0.1787 0.65232 0.0
N208 N 0.83914 0.11708 0.66182 0.0
C209 C 0.8205 0.11044 0.6484 0.0
C210 C 0.79999 0.11351 0.66161 0.0
C211 C 0.82994 0.12353 0.68282 0.0
N212 N 0.80615 0.12209 0.68309 0.0
C213 C 0.86795 0.12867 0.60424 0.0
C214 C 0.83389 0.16395 0.60511 0.0
C215 C 0.83963 0.15299 0.58354 0.0
C216 C 0.85728 0.13567 0.5832 0.0
C217 C 0.84544 0.15665 0.626 0.0
N218 N 0.86209 0.13897 0.62536 0.0
H219 H 0.88062 0.11429 0.60365 0.0
H220 H 0.83977 0.16393 0.64279 0.0
H221 H 0.82161 0.10498 0.63006 0.0
H222 H 0.84049 0.12981 0.69753 0.0
O223 O 0.87294 0.09075 0.63917 0.0
O224 O 0.88023 0.09776 0.67708 0.0
O225 O 0.87245 0.15012 0.67477 0.0
C226 C 0.87825 0.08241 0.65992 0.0
H227 H 0.95217 0.15159 0.62304 0.0
H228 H 0.78198 0.11087 0.6555 0.0
H229 H 0.81994 0.17714 0.60597 0.0
H230 H 0.86195 0.12669 0.56685 0.0
Co231 Co 0.8559 0.84037 0.66076 0.0
C232 C 0.86277 0.892 0.66 0.0
C233 C 0.87448 0.87609 0.62744 0.0
C234 C 0.87939 0.9 0.62663 0.0
N235 N 0.86383 0.87123 0.64825 0.0
N236 N 0.87211 0.90993 0.64717 0.0
H237 H 0.85567 0.89381 0.67772 0.0
H238 H 0.87891 0.86305 0.61408 0.0
C239 C 0.8063 0.84838 0.67883 0.0
O240 O 0.79832 0.83193 0.66444 0.0
N241 N 0.84827 0.80942 0.67438 0.0
C242 C 0.83243 0.79295 0.66708 0.0
C243 C 0.8318 0.77467 0.68328 0.0
C244 C 0.85679 0.80081 0.69508 0.0
N245 N 0.8472 0.77967 0.70082 0.0
C246 C 0.84724 0.81559 0.61807 0.0
C247 C 0.82367 0.85274 0.59655 0.0
C248 C 0.83527 0.83585 0.58236 0.0
C249 C 0.84555 0.81618 0.59339 0.0
C250 C 0.82507 0.85105 0.62132 0.0
N251 N 0.83844 0.83365 0.63167 0.0
H252 H 0.85829 0.80208 0.62602 0.0
H253 H 0.81858 0.8657 0.63187 0.0
H254 H 0.82147 0.79413 0.65144 0.0
H255 H 0.86921 0.81013 0.70629 0.0
O256 O 0.88596 0.82875 0.65001 0.0
O257 O 0.87992 0.84568 0.68494 0.0
O258 O 0.82808 0.85456 0.67814 0.0
C259 C 0.89481 0.83662 0.66973 0.0
H260 H 0.88839 0.90918 0.61238 0.0
H261 H 0.8208 0.75898 0.68222 0.0
H262 H 0.81572 0.86833 0.58861 0.0
H263 H 0.85493 0.80295 0.58307 0.0
Co264 Co 0.32845 0.14472 0.1401 0.0
C265 C 0.33247 0.09275 0.1303 0.0
C266 C 0.34487 0.10203 0.165 0.0
C267 C 0.34483 0.07768 0.16304 0.0
N268 N 0.33719 0.11157 0.14445 0.0
N269 N 0.33694 0.0719 0.14125 0.0
H270 H 0.32458 0.09399 0.11291 0.0
H271 H 0.34913 0.11206 0.18077 0.0
C272 C 0.29925 0.15578 0.18473 0.0
O273 O 0.29978 0.17874 0.18101 0.0
N274 N 0.31847 0.17734 0.13559 0.0
C275 C 0.33138 0.19726 0.13272 0.0
C276 C 0.31599 0.21626 0.13059 0.0
C277 C 0.29567 0.18427 0.13362 0.0
N278 N 0.29351 0.20801 0.13153 0.0
C279 C 0.35795 0.17165 0.17395 0.0
C280 C 0.39977 0.15442 0.15486 0.0
C281 C 0.40078 0.17315 0.17099 0.0
C282 C 0.37968 0.18155 0.18103 0.0
C283 C 0.37785 0.1455 0.1479 0.0
N284 N 0.35718 0.15445 0.15686 0.0
H285 H 0.34197 0.1792 0.18094 0.0
H286 H 0.37743 0.13206 0.13424 0.0
H287 H 0.35054 0.19806 0.13264 0.0
H288 H 0.28092 0.17206 0.1349 0.0
O289 O 0.34212 0.14532 0.10914 0.0
O290 O 0.30471 0.13559 0.11644 0.0
O291 O 0.30946 0.14128 0.17055 0.0
C292 C 0.32161 0.13907 0.10094 0.0
H293 H 0.34966 0.06521 0.17681 0.0
H294 H 0.32103 0.23474 0.12941 0.0
H295 H 0.41578 0.14764 0.14665 0.0
H296 H 0.37992 0.1962 0.19345 0.0
Co297 Co 0.83715 0.33655 0.13701 0.0
C298 C 0.88972 0.34312 0.14488 0.0
C299 C 0.87714 0.30743 0.14917 0.0
C300 C 0.90107 0.30754 0.15313 0.0
N301 N 0.86992 0.32963 0.14405 0.0
N302 N 0.90905 0.3299 0.15039 0.0
H303 H 0.89016 0.36193 0.14124 0.0
H304 H 0.86565 0.29209 0.14994 0.0
C305 C 0.81012 0.31544 0.17889 0.0
O306 O 0.79227 0.33007 0.17574 0.0
N307 N 0.80401 0.34145 0.12986 0.0
C308 C 0.79063 0.36132 0.12939 0.0
C309 C 0.76709 0.35472 0.12663 0.0
C310 C 0.78875 0.32338 0.12669 0.0
N311 N 0.76621 0.33088 0.12508 0.0
C312 C 0.84752 0.38575 0.14185 0.0
C313 C 0.82663 0.39406 0.18521 0.0
C314 C 0.83328 0.41356 0.17119 0.0
C315 C 0.84501 0.40894 0.14985 0.0
C316 C 0.82993 0.37084 0.17665 0.0
N317 N 0.83882 0.36688 0.15439 0.0
H318 H 0.85611 0.38335 0.125 0.0
H319 H 0.82495 0.3565 0.18803 0.0
H320 H 0.79717 0.37913 0.13216 0.0
H321 H 0.79383 0.30487 0.12767 0.0
O322 O 0.84525 0.34886 0.1064 0.0
O323 O 0.83783 0.3111 0.11313 0.0
O324 O 0.82876 0.31701 0.16604 0.0
C325 C 0.84333 0.32767 0.09797 0.0
H326 H 0.91171 0.29232 0.15805 0.0
H327 H 0.75179 0.36633 0.12724 0.0
H328 H 0.81823 0.39665 0.20227 0.0
H329 H 0.85181 0.42322 0.13895 0.0
Co330 Co 0.6693 0.86599 0.14963 0.0
C331 C 0.66358 0.91948 0.14338 0.0
C332 C 0.69788 0.90771 0.15478 0.0
C333 C 0.69869 0.93177 0.15209 0.0
N334 N 0.67591 0.89981 0.14958 0.0
N335 N 0.67717 0.93928 0.14496 0.0
H336 H 0.64531 0.9196 0.13782 0.0
H337 H 0.71257 0.89648 0.15993 0.0
C338 C 0.6803 0.87857 0.2 0.0
O339 O 0.66691 0.89753 0.19776 0.0
N340 N 0.66516 0.83205 0.15006 0.0
C341 C 0.6507 0.81805 0.13716 0.0
C342 C 0.65722 0.79463 0.14095 0.0
C343 C 0.68002 0.81722 0.16136 0.0
N344 N 0.67555 0.79433 0.15634 0.0
C345 C 0.62058 0.87882 0.1457 0.0
C346 C 0.60485 0.8549 0.18539 0.0
C347 C 0.58797 0.86343 0.16911 0.0
C348 C 0.59628 0.87608 0.1494 0.0
C349 C 0.62917 0.85802 0.18098 0.0
N350 N 0.63684 0.86973 0.16117 0.0
H351 H 0.62619 0.8866 0.12918 0.0
H352 H 0.64171 0.8494 0.19261 0.0
H353 H 0.6372 0.82441 0.1251 0.0
H354 H 0.695 0.82313 0.17179 0.0
O355 O 0.66211 0.86671 0.1164 0.0
O356 O 0.69826 0.86163 0.13104 0.0
O357 O 0.68276 0.86409 0.18275 0.0
C358 C 0.6845 0.86347 0.11255 0.0
H359 H 0.71422 0.94278 0.15451 0.0
H360 H 0.64956 0.77914 0.13258 0.0
H361 H 0.59942 0.845 0.20091 0.0
H362 H 0.58423 0.88239 0.13585 0.0
Co363 Co 0.13592 0.66738 0.13748 0.0
C364 C 0.08317 0.67332 0.14459 0.0
C365 C 0.09133 0.64905 0.1166 0.0
C366 C 0.06722 0.65115 0.11804 0.0
N367 N 0.10165 0.66218 0.13384 0.0
N368 N 0.06201 0.6663 0.13569 0.0
H369 H 0.08492 0.68663 0.15824 0.0
H370 H 0.10053 0.63907 0.10308 0.0
C371 C 0.12108 0.67955 0.18687 0.0
O372 O 0.11065 0.65873 0.18779 0.0
N373 N 0.1695 0.67334 0.14019 0.0
C374 C 0.18733 0.65875 0.13381 0.0
C375 C 0.20851 0.67046 0.13712 0.0
C376 C 0.17993 0.69369 0.14711 0.0
N377 N 0.20381 0.69242 0.14547 0.0
C378 C 0.13158 0.61744 0.14465 0.0
C379 C 0.16095 0.61356 0.18364 0.0
C380 C 0.15177 0.59288 0.17327 0.0
C381 C 0.13672 0.59515 0.15374 0.0
C382 C 0.15479 0.63584 0.17423 0.0
N383 N 0.14015 0.63761 0.1549 0.0
H384 H 0.12192 0.61809 0.12835 0.0
H385 H 0.16255 0.65161 0.1819 0.0
H386 H 0.18504 0.64097 0.12697 0.0
H387 H 0.17016 0.70936 0.15238 0.0
O388 O 0.14136 0.65459 0.10656 0.0
O389 O 0.13359 0.69247 0.11363 0.0
O390 O 0.13089 0.68641 0.16761 0.0
C391 C 0.13815 0.67577 0.0982 0.0
H392 H 0.05444 0.64273 0.10644 0.0
H393 H 0.22599 0.66338 0.13353 0.0
H394 H 0.17301 0.61248 0.19854 0.0
H395 H 0.12999 0.57963 0.1446 0.0
Co396 Co 0.3395 0.85888 0.84682 0.0
C397 C 0.34424 0.91231 0.83558 0.0
C398 C 0.30962 0.89683 0.83276 0.0
C399 C 0.30779 0.92018 0.827 0.0
N400 N 0.33238 0.89146 0.83783 0.0
N401 N 0.32944 0.93002 0.82861 0.0
H402 H 0.36293 0.91477 0.83879 0.0
H403 H 0.29508 0.88433 0.83329 0.0
C404 C 0.32433 0.85736 0.79672 0.0
O405 O 0.34074 0.87345 0.79284 0.0
N406 N 0.34327 0.82599 0.85567 0.0
C407 C 0.35759 0.81579 0.87188 0.0
C408 C 0.34918 0.79311 0.8765 0.0
C409 C 0.32662 0.80961 0.85075 0.0
N410 N 0.32973 0.78938 0.86302 0.0
C411 C 0.38789 0.87159 0.83942 0.0
C412 C 0.39892 0.83424 0.80965 0.0
C413 C 0.41752 0.84762 0.81942 0.0
C414 C 0.41158 0.86696 0.83391 0.0
C415 C 0.37535 0.83948 0.81564 0.0
N416 N 0.37003 0.85785 0.83059 0.0
H417 H 0.38421 0.88492 0.85259 0.0
H418 H 0.36155 0.82762 0.80963 0.0
H419 H 0.37201 0.82468 0.88087 0.0
H420 H 0.31108 0.81321 0.84012 0.0
O421 O 0.35131 0.86919 0.87695 0.0
O422 O 0.31355 0.86079 0.86969 0.0
O423 O 0.3218 0.84855 0.81745 0.0
C424 C 0.32975 0.86777 0.88467 0.0
H425 H 0.29154 0.92944 0.82259 0.0
H426 H 0.35615 0.78082 0.88948 0.0
H427 H 0.40253 0.81913 0.79837 0.0
H428 H 0.42517 0.87742 0.84255 0.0
Co429 Co 0.16388 0.34815 0.87349 0.0
C430 C 0.11152 0.34308 0.88015 0.0
C431 C 0.12007 0.36822 0.853 0.0
C432 C 0.09605 0.36466 0.85285 0.0
N433 N 0.13002 0.35506 0.8704 0.0
N434 N 0.09062 0.3486 0.86967 0.0
H435 H 0.1134 0.32929 0.89334 0.0
H436 H 0.12949 0.37838 0.83981 0.0
C437 C 0.17339 0.31549 0.83106 0.0
O438 O 0.19646 0.31578 0.83399 0.0
N439 N 0.19733 0.34053 0.87659 0.0
C440 C 0.21584 0.35565 0.8768 0.0
C441 C 0.2364 0.34284 0.88011 0.0
C442 C 0.20679 0.31892 0.88094 0.0
N443 N 0.2307 0.31969 0.88247 0.0
C444 C 0.16505 0.39744 0.86459 0.0
C445 C 0.19025 0.39725 0.82256 0.0
C446 C 0.18308 0.41895 0.83238 0.0
C447 C 0.1703 0.41883 0.85358 0.0
C448 C 0.18409 0.37595 0.83398 0.0
N449 N 0.17159 0.37627 0.85478 0.0
H450 H 0.15507 0.39789 0.88092 0.0
H451 H 0.18999 0.35948 0.8264 0.0
H452 H 0.21461 0.37467 0.87468 0.0
H453 H 0.19632 0.30289 0.88227 0.0
O454 O 0.16561 0.36318 0.90383 0.0
O455 O 0.15703 0.32516 0.8986 0.0
O456 O 0.15962 0.3275 0.84449 0.0
C457 C 0.16076 0.34279 0.91315 0.0
H458 H 0.0837 0.37252 0.84044 0.0
H459 H 0.25419 0.35002 0.88011 0.0
H460 H 0.20038 0.39679 0.80626 0.0
H461 H 0.16464 0.43527 0.86179 0.0
Co462 Co 0.68239 0.14655 0.86615 0.0
C463 C 0.6766 0.09267 0.87184 0.0
C464 C 0.70897 0.10411 0.85584 0.0
C465 C 0.70995 0.08006 0.8583 0.0
N466 N 0.68776 0.11231 0.86338 0.0
N467 N 0.68957 0.07265 0.86822 0.0
H468 H 0.66016 0.09288 0.88156 0.0
H469 H 0.72361 0.11507 0.8501 0.0
C470 C 0.69857 0.14073 0.81676 0.0
O471 O 0.68123 0.12529 0.8147 0.0
N472 N 0.68022 0.18069 0.86913 0.0
C473 C 0.66472 0.19408 0.88149 0.0
C474 C 0.67367 0.21693 0.883 0.0
C475 C 0.69811 0.19544 0.8633 0.0
N476 N 0.69461 0.21762 0.87141 0.0
C477 C 0.63466 0.13314 0.85626 0.0
C478 C 0.62505 0.16978 0.82518 0.0
C479 C 0.60608 0.15726 0.83533 0.0
C480 C 0.61131 0.13787 0.84991 0.0
C481 C 0.64843 0.16409 0.83169 0.0
N482 N 0.65296 0.14649 0.84783 0.0
H483 H 0.63748 0.12043 0.87005 0.0
H484 H 0.66267 0.1753 0.82543 0.0
H485 H 0.64888 0.18742 0.89002 0.0
H486 H 0.71443 0.1896 0.85505 0.0
O487 O 0.66759 0.14267 0.89615 0.0
O488 O 0.70632 0.14709 0.89148 0.0
O489 O 0.70207 0.15121 0.83658 0.0
C490 C 0.68821 0.14495 0.90585 0.0
H491 H 0.72518 0.06909 0.85429 0.0
H492 H 0.66591 0.23157 0.89269 0.0
H493 H 0.62184 0.18495 0.81384 0.0
H494 H 0.59728 0.12743 0.85788 0.0
Co495 Co 0.86239 0.64963 0.88363 0.0
C496 C 0.91391 0.65571 0.87592 0.0
C497 C 0.90481 0.61922 0.88209 0.0
C498 C 0.92904 0.62092 0.87971 0.0
N499 N 0.89534 0.64099 0.87954 0.0
N500 N 0.93482 0.64386 0.87585 0.0
H501 H 0.91211 0.6747 0.87367 0.0
H502 H 0.89489 0.6033 0.88608 0.0
C503 C 0.84904 0.67495 0.83929 0.0
O504 O 0.82916 0.66283 0.83951 0.0
N505 N 0.82943 0.65943 0.88797 0.0
C506 C 0.80902 0.64699 0.88574 0.0
C507 C 0.79014 0.66252 0.88589 0.0
C508 C 0.82241 0.68232 0.89007 0.0
N509 N 0.79864 0.68464 0.88859 0.0
C510 C 0.84427 0.60308 0.87673 0.0
C511 C 0.85554 0.59759 0.82954 0.0
C512 C 0.84625 0.57791 0.84192 0.0
C513 C 0.8408 0.5812 0.86597 0.0
C514 C 0.85969 0.61913 0.84139 0.0
N515 N 0.85335 0.62197 0.86461 0.0
H516 H 0.83994 0.60453 0.89528 0.0
H517 H 0.86882 0.63307 0.832 0.0
H518 H 0.80746 0.6282 0.88283 0.0
H519 H 0.83458 0.69714 0.89092 0.0
O520 O 0.86246 0.63406 0.91378 0.0
O521 O 0.87175 0.67183 0.90866 0.0
O522 O 0.86477 0.67131 0.85523 0.0
C523 C 0.86949 0.65382 0.92301 0.0
H524 H 0.94148 0.6064 0.88154 0.0
H525 H 0.77162 0.65801 0.8835 0.0
H526 H 0.86024 0.59645 0.81101 0.0
H527 H 0.83477 0.56687 0.87715 0.0
Co528 Co 0.12002 0.35036 0.1537 0.0
C529 C 0.12925 0.35233 0.10141 0.0
C530 C 0.09261 0.346 0.10869 0.0
C531 C 0.09596 0.34468 0.08464 0.0
N532 N 0.11354 0.3507 0.11948 0.0
N533 N 0.11906 0.34847 0.08004 0.0
H534 H 0.1478 0.35591 0.10369 0.0
H535 H 0.07585 0.34291 0.11733 0.0
C536 C 0.16698 0.327 0.14064 0.0
O537 O 0.17582 0.34728 0.1335 0.0
N538 N 0.12581 0.34845 0.18743 0.0
C539 C 0.12439 0.36569 0.20396 0.0
C540 C 0.12948 0.35587 0.22581 0.0
C541 C 0.13084 0.32839 0.19941 0.0
N542 N 0.13331 0.33244 0.2228 0.0
C543 C 0.13256 0.39651 0.13883 0.0
C544 C 0.16966 0.40333 0.17019 0.0
C545 C 0.15928 0.42308 0.1592 0.0
C546 C 0.1414 0.41927 0.14243 0.0
C547 C 0.16031 0.38065 0.16599 0.0
N548 N 0.14131 0.37758 0.15114 0.0
H549 H 0.11703 0.39457 0.12781 0.0
H550 H 0.16716 0.36585 0.1761 0.0
H551 H 0.12013 0.38405 0.20035 0.0
H552 H 0.1328 0.31117 0.19115 0.0
O553 O 0.09209 0.36873 0.15989 0.0
O554 O 0.09296 0.32942 0.15836 0.0
O555 O 0.14571 0.32568 0.14849 0.0
C556 C 0.08075 0.34883 0.16194 0.0
H557 H 0.08237 0.34097 0.07162 0.0
H558 H 0.13 0.36511 0.24263 0.0
H559 H 0.18353 0.40557 0.18328 0.0
H560 H 0.13307 0.43405 0.13337 0.0
Co561 Co 0.14551 0.66089 0.85334 0.0
C562 C 0.13907 0.66279 0.90608 0.0
C563 C 0.17022 0.64359 0.89564 0.0
C564 C 0.16995 0.64516 0.91989 0.0
N565 N 0.15066 0.65422 0.88682 0.0
N566 N 0.15044 0.6573 0.92649 0.0
H567 H 0.12311 0.6734 0.90529 0.0
H568 H 0.18452 0.63629 0.88516 0.0
C569 C 0.18967 0.69005 0.84001 0.0
O570 O 0.18524 0.68871 0.81723 0.0
N571 N 0.14046 0.66822 0.82014 0.0
C572 C 0.13747 0.65316 0.80183 0.0
C573 C 0.13325 0.66623 0.78157 0.0
C574 C 0.13696 0.69006 0.81101 0.0
N575 N 0.13307 0.68948 0.78737 0.0
C576 C 0.15221 0.61139 0.85368 0.0
C577 C 0.18997 0.60805 0.82266 0.0
C578 C 0.17895 0.58718 0.83062 0.0
C579 C 0.16027 0.58915 0.84682 0.0
C580 C 0.18126 0.63022 0.83005 0.0
N581 N 0.16224 0.63166 0.84506 0.0
H582 H 0.13749 0.61234 0.8659 0.0
H583 H 0.18921 0.64593 0.82284 0.0
H584 H 0.13805 0.63402 0.80307 0.0
H585 H 0.13826 0.70608 0.82148 0.0
O586 O 0.11443 0.64721 0.85413 0.0
O587 O 0.12164 0.68501 0.86153 0.0
O588 O 0.17591 0.6802 0.85515 0.0
C589 C 0.10607 0.66793 0.85937 0.0
H590 H 0.18379 0.63901 0.93168 0.0
H591 H 0.1303 0.65909 0.76402 0.0
H592 H 0.20454 0.60726 0.81017 0.0
H593 H 0.15168 0.57354 0.854 0.0
Co594 Co 0.35941 0.13743 0.85943 0.0
C595 C 0.34987 0.13918 0.91163 0.0
C596 C 0.37274 0.1103 0.90223 0.0
C597 C 0.36814 0.10895 0.92602 0.0
N598 N 0.36161 0.12945 0.89305 0.0
N599 N 0.35372 0.12703 0.93196 0.0
H600 H 0.33847 0.15454 0.91045 0.0
H601 H 0.38282 0.09735 0.89233 0.0
C602 C 0.32039 0.1712 0.86876 0.0
O603 O 0.30587 0.15324 0.86584 0.0
N604 N 0.35666 0.14476 0.82607 0.0
C605 C 0.3731 0.1406 0.80923 0.0
C606 C 0.36243 0.14231 0.7873 0.0
C607 C 0.33632 0.14899 0.81422 0.0
N608 N 0.33933 0.14758 0.79057 0.0
C609 C 0.40929 0.14015 0.86666 0.0
C610 C 0.41586 0.18482 0.8475 0.0
C611 C 0.43578 0.17113 0.85352 0.0
C612 C 0.43219 0.14879 0.86371 0.0
C613 C 0.393 0.17566 0.85135 0.0
N614 N 0.39 0.15335 0.86041 0.0
H615 H 0.40728 0.12216 0.87262 0.0
H616 H 0.37781 0.1859 0.84567 0.0
H617 H 0.39113 0.135 0.81268 0.0
H618 H 0.3192 0.15076 0.82263 0.0
O619 O 0.37065 0.10626 0.85109 0.0
O620 O 0.33282 0.1157 0.8563 0.0
O621 O 0.34277 0.16801 0.86741 0.0
C622 C 0.34865 0.09967 0.85114 0.0
H623 H 0.37412 0.09506 0.93786 0.0
H624 H 0.37067 0.13869 0.77035 0.0
H625 H 0.41795 0.2021 0.83938 0.0
H626 H 0.44703 0.13736 0.86804 0.0
Co627 Co 0.88514 0.33285 0.85725 0.0
C628 C 0.87449 0.33135 0.90809 0.0
C629 C 0.88941 0.36499 0.8982 0.0
C630 C 0.88562 0.36488 0.92232 0.0
N631 N 0.88229 0.344 0.88937 0.0
N632 N 0.87626 0.34369 0.92856 0.0
H633 H 0.86784 0.3134 0.90669 0.0
H634 H 0.89731 0.37913 0.88793 0.0
C635 C 0.83611 0.31437 0.84569 0.0
O636 O 0.83823 0.32205 0.82381 0.0
N637 N 0.88843 0.32089 0.82503 0.0
C638 C 0.89926 0.33137 0.80647 0.0
C639 C 0.89953 0.31593 0.78768 0.0
C640 C 0.88308 0.29881 0.81736 0.0
N641 N 0.88919 0.29541 0.79436 0.0
C642 C 0.8877 0.3788 0.83633 0.0
C643 C 0.84104 0.39244 0.84177 0.0
C644 C 0.85693 0.40809 0.83061 0.0
C645 C 0.88059 0.40099 0.82843 0.0
C646 C 0.84902 0.37008 0.8496 0.0
N647 N 0.87198 0.36302 0.84586 0.0
H648 H 0.90631 0.37478 0.83518 0.0
H649 H 0.83683 0.35899 0.85925 0.0
H650 H 0.90746 0.34858 0.80645 0.0
H651 H 0.8749 0.28561 0.82858 0.0
O652 O 0.91802 0.34171 0.85694 0.0
O653 O 0.90495 0.3066 0.86861 0.0
O654 O 0.85278 0.31762 0.86072 0.0
C655 C 0.92285 0.32077 0.86496 0.0
H656 H 0.89015 0.3791 0.93438 0.0
H657 H 0.90749 0.31957 0.77063 0.0
H658 H 0.82273 0.39746 0.84465 0.0
H659 H 0.89396 0.41283 0.82135 0.0
Co660 Co 0.66264 0.86244 0.87113 0.0
C661 C 0.66895 0.86554 0.92369 0.0
C662 C 0.64454 0.83824 0.9137 0.0
C663 C 0.64808 0.83698 0.93769 0.0
N664 N 0.65721 0.85646 0.90477 0.0
N665 N 0.66367 0.85397 0.9441 0.0
H666 H 0.68208 0.87942 0.92239 0.0
H667 H 0.63432 0.82569 0.90347 0.0
C668 C 0.69175 0.8183 0.8566 0.0
O669 O 0.68769 0.82053 0.8338 0.0
N670 N 0.6689 0.86806 0.83777 0.0
C671 C 0.65314 0.87119 0.82004 0.0
C672 C 0.66539 0.87421 0.7991 0.0
C673 C 0.69045 0.87034 0.82755 0.0
N674 N 0.68881 0.87365 0.8039 0.0
C675 C 0.61301 0.85744 0.87237 0.0
C676 C 0.60754 0.82166 0.83943 0.0
C677 C 0.5874 0.83409 0.84729 0.0
C678 C 0.59039 0.85152 0.86465 0.0
C679 C 0.63018 0.82819 0.84776 0.0
N680 N 0.63273 0.84653 0.86344 0.0
H681 H 0.61472 0.87148 0.88529 0.0
H682 H 0.64543 0.81941 0.84051 0.0
H683 H 0.63407 0.87122 0.82209 0.0
H684 H 0.70701 0.86861 0.83712 0.0
O685 O 0.64944 0.89376 0.87363 0.0
O686 O 0.68749 0.88537 0.87884 0.0
O687 O 0.68236 0.83244 0.87165 0.0
C688 C 0.67057 0.90119 0.87854 0.0
H689 H 0.64015 0.8239 0.94924 0.0
H690 H 0.65771 0.87673 0.78169 0.0
H691 H 0.60595 0.80788 0.82615 0.0
H692 H 0.57532 0.86104 0.87184 0.0
Co693 Co 0.85237 0.66454 0.1661 0.0
C694 C 0.86017 0.65901 0.11345 0.0
C695 C 0.83669 0.68737 0.12243 0.0
C696 C 0.84057 0.68811 0.09855 0.0
N697 N 0.84811 0.66857 0.13195 0.0
N698 N 0.85549 0.67038 0.09277 0.0
H699 H 0.87351 0.64538 0.11521 0.0
H700 H 0.82739 0.70093 0.13226 0.0
C701 C 0.80119 0.67737 0.16285 0.0
O702 O 0.7989 0.66031 0.14713 0.0
N703 N 0.85673 0.66317 0.19994 0.0
C704 C 0.86399 0.64564 0.2145 0.0
C705 C 0.86437 0.65442 0.23749 0.0
C706 C 0.85326 0.68215 0.21389 0.0
N707 N 0.85778 0.67745 0.23682 0.0
C708 C 0.84546 0.61603 0.15283 0.0
C709 C 0.81325 0.60476 0.18798 0.0
C710 C 0.82287 0.58643 0.17416 0.0
C711 C 0.83868 0.59246 0.156 0.0
C712 C 0.82021 0.62831 0.18391 0.0
N713 N 0.83649 0.6337 0.16671 0.0
H714 H 0.85934 0.61963 0.14034 0.0
H715 H 0.81365 0.64201 0.19561 0.0
H716 H 0.86867 0.62789 0.20887 0.0
H717 H 0.84744 0.69921 0.20726 0.0
O718 O 0.88383 0.65286 0.16137 0.0
O719 O 0.87487 0.69094 0.16515 0.0
O720 O 0.82148 0.68183 0.17199 0.0
C721 C 0.8911 0.67466 0.16211 0.0
H722 H 0.8334 0.70126 0.08657 0.0
H723 H 0.86955 0.64484 0.25329 0.0
H724 H 0.80106 0.60087 0.2023 0.0
H725 H 0.84709 0.57888 0.14531 0.0
Co726 Co 0.33722 0.86642 0.12826 0.0
C727 C 0.34131 0.86415 0.0751 0.0
C728 C 0.31524 0.84056 0.08921 0.0
C729 C 0.31349 0.84013 0.06508 0.0
N730 N 0.33321 0.85497 0.09582 0.0
N731 N 0.32977 0.85503 0.05606 0.0
H732 H 0.35407 0.8784 0.07399 0.0
H733 H 0.30231 0.83272 0.10091 0.0
C734 C 0.3248 0.81534 0.13717 0.0
O735 O 0.34247 0.8089 0.12339 0.0
N736 N 0.33874 0.87773 0.16044 0.0
C737 C 0.35511 0.89081 0.17188 0.0
C738 C 0.34688 0.89509 0.19465 0.0
C739 C 0.32093 0.87461 0.17594 0.0
N740 N 0.3253 0.88486 0.19703 0.0
C741 C 0.386 0.85874 0.11654 0.0
C742 C 0.39807 0.83535 0.15789 0.0
C743 C 0.41628 0.84346 0.14298 0.0
C744 C 0.40988 0.8546 0.1217 0.0
C745 C 0.37432 0.83992 0.15208 0.0
N746 N 0.3685 0.85192 0.1318 0.0
H747 H 0.38181 0.86906 0.10107 0.0
H748 H 0.36073 0.8353 0.16477 0.0
H749 H 0.37162 0.89688 0.16424 0.0
H750 H 0.30498 0.86491 0.17167 0.0
O751 O 0.34776 0.89674 0.11691 0.0
O752 O 0.3101 0.8872 0.12359 0.0
O753 O 0.32049 0.83731 0.14067 0.0
C754 C 0.32566 0.9031 0.11722 0.0
H755 H 0.29972 0.83122 0.05512 0.0
H756 H 0.35595 0.90524 0.20817 0.0
H757 H 0.40213 0.82691 0.17465 0.0
H758 H 0.42329 0.86096 0.10951 0.0
Co759 Co 0.64416 0.14799 0.1447 0.0
C760 C 0.654 0.15486 0.09445 0.0
C761 C 0.6168 0.14879 0.10001 0.0
C762 C 0.62111 0.14985 0.07596 0.0
N763 N 0.63746 0.15204 0.11148 0.0
N764 N 0.64456 0.1535 0.07251 0.0
H765 H 0.6727 0.15704 0.09816 0.0
H766 H 0.60004 0.14479 0.10841 0.0
C767 C 0.66586 0.19514 0.15851 0.0
O768 O 0.65726 0.19356 0.18008 0.0
N769 N 0.6521 0.14341 0.17792 0.0
C770 C 0.6392 0.13235 0.19482 0.0
C771 C 0.65334 0.12833 0.21429 0.0
C772 C 0.67407 0.14555 0.18735 0.0
N773 N 0.67512 0.1368 0.20956 0.0
C774 C 0.59609 0.1495 0.16014 0.0
C775 C 0.58753 0.19729 0.15414 0.0
C776 C 0.56909 0.18277 0.16262 0.0
C777 C 0.57373 0.15851 0.16514 0.0
C778 C 0.60983 0.18736 0.14889 0.0
N779 N 0.61422 0.16378 0.15279 0.0
H780 H 0.59832 0.13061 0.16157 0.0
H781 H 0.62306 0.19863 0.14099 0.0
H782 H 0.62131 0.12599 0.19292 0.0
H783 H 0.68929 0.15208 0.17766 0.0
O784 O 0.6322 0.11621 0.14288 0.0
O785 O 0.66969 0.12603 0.13641 0.0
O786 O 0.66229 0.17872 0.14334 0.0
C787 C 0.6534 0.10964 0.13714 0.0
H788 H 0.60815 0.14687 0.06214 0.0
H789 H 0.64833 0.11905 0.23033 0.0
H790 H 0.58477 0.21608 0.15126 0.0
H791 H 0.55996 0.1461 0.17015 0.0
H792 H 0.17646 0.13507 0.55518 0.0
H793 H 0.1817 0.20885 0.57638 0.0
H794 H 0.18223 0.22082 0.53417 0.0
H795 H 0.21131 0.13906 0.4994 0.0
H796 H 0.19163 0.11878 0.48446 0.0
H797 H 0.19647 0.11605 0.51592 0.0
H798 H 0.15112 0.1189 0.52301 0.0
H799 H 0.14614 0.1219 0.49169 0.0
H800 H 0.13504 0.14417 0.51176 0.0
H801 H 0.17695 0.22478 0.48932 0.0
H802 H 0.1662 0.22018 0.44686 0.0
H803 H 0.16207 0.14401 0.45637 0.0
C804 C 0.17817 0.15374 0.551 0.0
C805 C 0.17903 0.17101 0.56912 0.0
C806 C 0.18138 0.19525 0.56283 0.0
C807 C 0.18157 0.20222 0.53888 0.0
C808 C 0.17953 0.18473 0.52148 0.0
C809 C 0.17806 0.16095 0.52734 0.0
C810 C 0.1735 0.14571 0.50578 0.0
C811 C 0.19448 0.12891 0.50112 0.0
C812 C 0.15006 0.13187 0.50822 0.0
C813 C 0.17179 0.16463 0.4869 0.0
C814 C 0.17576 0.18702 0.49609 0.0
C815 C 0.17408 0.2073 0.48194 0.0
C816 C 0.16796 0.20456 0.4579 0.0
C817 C 0.16317 0.18178 0.44851 0.0
C818 C 0.16548 0.16165 0.46318 0.0
H819 H 0.84001 0.18385 0.44867 0.0
H820 H 0.79474 0.12216 0.43962 0.0
H821 H 0.78606 0.12259 0.48242 0.0
H822 H 0.86828 0.16194 0.49734 0.0
H823 H 0.8722 0.19008 0.512 0.0
H824 H 0.86967 0.18898 0.48031 0.0
H825 H 0.83444 0.21852 0.48209 0.0
H826 H 0.8368 0.21956 0.51395 0.0
H827 H 0.80901 0.21171 0.50023 0.0
H828 H 0.78762 0.12533 0.52676 0.0
H829 H 0.80197 0.12779 0.56811 0.0
H830 H 0.8492 0.18498 0.5486 0.0
C831 C 0.82802 0.17051 0.45548 0.0
C832 C 0.81816 0.15291 0.44047 0.0
C833 C 0.80226 0.13614 0.4504 0.0
C834 C 0.79726 0.1362 0.47482 0.0
C835 C 0.80825 0.15311 0.48918 0.0
C836 C 0.82339 0.16993 0.47982 0.0
C837 C 0.836 0.18368 0.49917 0.0
C838 C 0.86313 0.18098 0.49708 0.0
C839 C 0.82861 0.20992 0.49884 0.0
C840 C 0.82648 0.17124 0.52097 0.0
C841 C 0.80987 0.15419 0.51487 0.0
C842 C 0.80015 0.13898 0.53177 0.0
C843 C 0.80826 0.14058 0.55523 0.0
C844 C 0.82611 0.15704 0.56151 0.0
C845 C 0.83486 0.17294 0.54433 0.0
H846 H 0.85248 0.81829 0.44169 0.0
H847 H 0.90032 0.87842 0.44512 0.0
H848 H 0.89471 0.88059 0.48834 0.0
H849 H 0.81168 0.83782 0.4834 0.0
H850 H 0.80632 0.80967 0.49758 0.0
H851 H 0.81575 0.8106 0.4671 0.0
H852 H 0.85167 0.78365 0.47674 0.0
H853 H 0.84202 0.78212 0.50716 0.0
H854 H 0.87166 0.79192 0.50027 0.0
H855 H 0.87944 0.88061 0.52939 0.0
H856 H 0.86173 0.87312 0.56865 0.0
H857 H 0.82594 0.81095 0.5409 0.0
C858 C 0.86244 0.83127 0.45173 0.0
C859 C 0.87684 0.84823 0.44006 0.0
C860 C 0.88921 0.86531 0.45372 0.0
C861 C 0.88604 0.86676 0.47826 0.0
C862 C 0.87075 0.85071 0.48908 0.0
C863 C 0.85971 0.83279 0.47651 0.0
C864 C 0.84391 0.81816 0.4928 0.0
C865 C 0.81787 0.81913 0.48473 0.0
C866 C 0.85286 0.79243 0.49433 0.0
C867 C 0.84735 0.83114 0.51619 0.0
C868 C 0.86271 0.85003 0.51343 0.0
C869 C 0.8677 0.86563 0.53191 0.0
C870 C 0.85732 0.86143 0.55405 0.0
C871 C 0.84234 0.84163 0.55771 0.0
C872 C 0.83724 0.82629 0.53849 0.0
H873 H 0.17618 0.87518 0.54047 0.0
H874 H 0.17813 0.79856 0.54619 0.0
H875 H 0.18664 0.79574 0.50311 0.0
H876 H 0.14403 0.87731 0.48986 0.0
H877 H 0.1585 0.90278 0.47706 0.0
H878 H 0.15802 0.89904 0.50868 0.0
H879 H 0.2039 0.90136 0.51012 0.0
H880 H 0.20456 0.90549 0.47844 0.0
H881 H 0.2213 0.88175 0.49181 0.0
H882 H 0.18804 0.80144 0.45854 0.0
H883 H 0.18327 0.81467 0.41716 0.0
H884 H 0.17968 0.88782 0.44089 0.0
C885 C 0.17914 0.85782 0.53277 0.0
C886 C 0.17658 0.83705 0.54658 0.0
C887 C 0.18036 0.81465 0.53595 0.0
C888 C 0.18508 0.81294 0.5115 0.0
C889 C 0.18623 0.83381 0.49813 0.0
C890 C 0.18366 0.85586 0.50853 0.0
C891 C 0.18294 0.87547 0.49019 0.0
C892 C 0.15948 0.88945 0.49154 0.0
C893 C 0.20446 0.89199 0.4928 0.0
C894 C 0.18447 0.86102 0.46768 0.0
C895 C 0.18678 0.83707 0.47257 0.0
C896 C 0.18679 0.82018 0.45455 0.0
C897 C 0.18414 0.82792 0.43103 0.0
C898 C 0.18131 0.85236 0.42566 0.0
C899 C 0.18186 0.86905 0.44433 0.0
H900 H 0.43716 0.159 0.19942 0.0
H901 H 0.41635 0.21263 0.14869 0.0
H902 H 0.45792 0.22651 0.14614 0.0
H903 H 0.48687 0.19559 0.22862 0.0
H904 H 0.50475 0.1693 0.23218 0.0
H905 H 0.47287 0.16732 0.23388 0.0
H906 H 0.47332 0.13525 0.201 0.0
H907 H 0.50502 0.13733 0.19892 0.0
H908 H 0.48704 0.14188 0.17289 0.0
H909 H 0.50226 0.2278 0.14206 0.0
H910 H 0.54486 0.21841 0.13908 0.0
H911 H 0.53709 0.16699 0.19589 0.0
C912 C 0.44129 0.17445 0.18878 0.0
C913 C 0.42369 0.18519 0.17467 0.0
C914 C 0.42964 0.20468 0.16007 0.0
C915 C 0.45319 0.2126 0.15847 0.0
C916 C 0.47044 0.20108 0.17195 0.0
C917 C 0.46467 0.18279 0.18732 0.0
C918 C 0.48673 0.17172 0.19792 0.0
C919 C 0.48787 0.17626 0.22474 0.0
C920 C 0.48809 0.14498 0.19233 0.0
C921 C 0.50578 0.1855 0.18494 0.0
C922 C 0.49612 0.20253 0.17022 0.0
C923 C 0.51011 0.2151 0.15412 0.0
C924 C 0.53442 0.20969 0.15261 0.0
C925 C 0.54457 0.19186 0.16717 0.0
C926 C 0.53004 0.18052 0.18424 0.0
H927 H 0.81368 0.55022 0.14311 0.0
H928 H 0.82386 0.56499 0.21782 0.0
H929 H 0.82374 0.52189 0.22629 0.0
H930 H 0.77575 0.49664 0.15079 0.0
H931 H 0.78917 0.48211 0.12568 0.0
H932 H 0.78672 0.514 0.12629 0.0
H933 H 0.83206 0.51746 0.11949 0.0
H934 H 0.83471 0.48567 0.11912 0.0
H935 H 0.85211 0.50287 0.13968 0.0
H936 H 0.82803 0.4767 0.22552 0.0
H937 H 0.83436 0.43431 0.21572 0.0
H938 H 0.81987 0.44979 0.14176 0.0
C939 C 0.81534 0.5444 0.16133 0.0
C940 C 0.81866 0.56097 0.17982 0.0
C941 C 0.82089 0.55264 0.20342 0.0
C942 C 0.82098 0.52817 0.20838 0.0
C943 C 0.81849 0.51227 0.18959 0.0
C944 C 0.81532 0.52013 0.16657 0.0
C945 C 0.81452 0.49962 0.1493 0.0
C946 C 0.79009 0.498 0.13731 0.0
C947 C 0.83454 0.50153 0.13082 0.0
C948 C 0.81857 0.47902 0.16601 0.0
C949 C 0.82066 0.48652 0.18921 0.0
C950 C 0.826 0.47061 0.20745 0.0
C951 C 0.82951 0.44652 0.20173 0.0
C952 C 0.82779 0.4386 0.17795 0.0
C953 C 0.82171 0.45517 0.16009 0.0
H954 H 0.54921 0.89061 0.15633 0.0
H955 H 0.56812 0.82171 0.1852 0.0
H956 H 0.52608 0.80971 0.18371 0.0
H957 H 0.49121 0.89624 0.18491 0.0
H958 H 0.47796 0.9099 0.15923 0.0
H959 H 0.5091 0.91389 0.16516 0.0
H960 H 0.51907 0.89783 0.12328 0.0
H961 H 0.488 0.89358 0.11731 0.0
H962 H 0.5083 0.86901 0.11455 0.0
H963 H 0.48182 0.80418 0.1763 0.0
H964 H 0.43964 0.80605 0.16413 0.0
H965 H 0.45041 0.8779 0.13872 0.0
C966 C 0.5446 0.87303 0.16252 0.0
C967 C 0.56221 0.85721 0.17101 0.0
C968 C 0.5551 0.83444 0.17909 0.0
C969 C 0.5312 0.82734 0.17812 0.0
C970 C 0.5145 0.84316 0.169 0.0
C971 C 0.52091 0.86558 0.16146 0.0
C972 C 0.49986 0.87881 0.15123 0.0
C973 C 0.4942 0.90102 0.16602 0.0
C974 C 0.50407 0.88517 0.12504 0.0
C975 C 0.48066 0.8602 0.15381 0.0
C976 C 0.48934 0.83982 0.16429 0.0
C977 C 0.47484 0.82013 0.1682 0.0
C978 C 0.45089 0.82135 0.16127 0.0
C979 C 0.44169 0.84203 0.1503 0.0
C980 C 0.45691 0.86167 0.14669 0.0
H981 H 0.1272 0.45655 0.17178 0.0
H982 H 0.20282 0.44502 0.1644 0.0
H983 H 0.21004 0.48738 0.17441 0.0
H984 H 0.12497 0.51052 0.14389 0.0
H985 H 0.10238 0.52297 0.16278 0.0
H986 H 0.10406 0.49142 0.15873 0.0
H987 H 0.10719 0.48574 0.20425 0.0
H988 H 0.10572 0.51742 0.20842 0.0
H989 H 0.13024 0.50081 0.22048 0.0
H990 H 0.20795 0.53256 0.17975 0.0
H991 H 0.19683 0.57513 0.17828 0.0
H992 H 0.12266 0.55584 0.18295 0.0
C993 C 0.14533 0.46286 0.17256 0.0
C994 C 0.16447 0.44766 0.16712 0.0
C995 C 0.18794 0.45645 0.16856 0.0
C996 C 0.19215 0.48043 0.17428 0.0
C997 C 0.17272 0.49513 0.17897 0.0
C998 C 0.14977 0.4865 0.17834 0.0
C999 C 0.13171 0.50598 0.18196 0.0
C1000 C 0.11481 0.50783 0.16057 0.0
C1001 C 0.11791 0.50226 0.20516 0.0
C1002 C 0.14791 0.52724 0.18364 0.0
C1003 C 0.17155 0.52074 0.18234 0.0
C1004 C 0.18953 0.53776 0.18131 0.0
C1005 C 0.1831 0.56191 0.18065 0.0
C1006 C 0.15892 0.56869 0.18076 0.0
C1007 C 0.14129 0.55111 0.18322 0.0
H1008 H 0.45713 0.87601 0.81568 0.0
H1009 H 0.43554 0.80217 0.81894 0.0
H1010 H 0.47754 0.79004 0.82104 0.0
H1011 H 0.51342 0.86703 0.78252 0.0
H1012 H 0.52849 0.88943 0.79962 0.0
H1013 H 0.49708 0.89194 0.79418 0.0
H1014 H 0.48947 0.89487 0.83939 0.0
H1015 H 0.52075 0.89227 0.84497 0.0
H1016 H 0.50039 0.87176 0.85862 0.0
H1017 H 0.5221 0.78626 0.82804 0.0
H1018 H 0.56423 0.79166 0.83967 0.0
H1019 H 0.55597 0.86782 0.83277 0.0
C1020 C 0.46117 0.85724 0.81642 0.0
C1021 C 0.44285 0.84011 0.81698 0.0
C1022 C 0.44911 0.81572 0.81795 0.0
C1023 C 0.473 0.80862 0.8193 0.0
C1024 C 0.49053 0.82606 0.81953 0.0
C1025 C 0.48485 0.84988 0.81795 0.0
C1026 C 0.50665 0.86529 0.82076 0.0
C1027 C 0.5117 0.87924 0.7979 0.0
C1028 C 0.50415 0.88202 0.84221 0.0
C1029 C 0.52536 0.8465 0.82504 0.0
C1030 C 0.5159 0.82392 0.82389 0.0
C1031 C 0.52972 0.80387 0.82864 0.0
C1032 C 0.55364 0.80706 0.83517 0.0
C1033 C 0.56333 0.83013 0.83721 0.0
C1034 C 0.54903 0.84995 0.83147 0.0
H1035 H 0.15198 0.45192 0.81685 0.0
H1036 H 0.22697 0.43855 0.82595 0.0
H1037 H 0.2354 0.48114 0.81878 0.0
H1038 H 0.1579 0.50248 0.77177 0.0
H1039 H 0.13312 0.51768 0.7851 0.0
H1040 H 0.13397 0.48569 0.78473 0.0
H1041 H 0.12862 0.48524 0.83033 0.0
H1042 H 0.12813 0.51706 0.83096 0.0
H1043 H 0.14945 0.50112 0.84868 0.0
H1044 H 0.23433 0.52622 0.81955 0.0
H1045 H 0.22397 0.56839 0.8268 0.0
H1046 H 0.14971 0.5517 0.81623 0.0
C1047 C 0.17025 0.45785 0.81613 0.0
C1048 C 0.18889 0.44209 0.82151 0.0
C1049 C 0.21255 0.45037 0.82128 0.0
C1050 C 0.21744 0.47453 0.81732 0.0
C1051 C 0.19846 0.48997 0.81325 0.0
C1052 C 0.17534 0.48178 0.81213 0.0
C1053 C 0.15779 0.50202 0.81065 0.0
C1054 C 0.14494 0.50196 0.78663 0.0
C1055 C 0.13998 0.50131 0.83139 0.0
C1056 C 0.17443 0.52293 0.81266 0.0
C1057 C 0.19788 0.5158 0.81367 0.0
C1058 C 0.21609 0.53203 0.81814 0.0
C1059 C 0.21008 0.55595 0.82222 0.0
C1060 C 0.18605 0.56326 0.82211 0.0
C1061 C 0.16824 0.54661 0.81642 0.0
H1062 H 0.47455 0.17003 0.88227 0.0
H1063 H 0.4525 0.18704 0.81072 0.0
H1064 H 0.49464 0.19006 0.79853 0.0
H1065 H 0.5299 0.20727 0.88293 0.0
H1066 H 0.54543 0.18522 0.9001 0.0
H1067 H 0.51389 0.18904 0.90375 0.0
H1068 H 0.50771 0.14438 0.89475 0.0
H1069 H 0.53907 0.14047 0.89065 0.0
H1070 H 0.51882 0.13223 0.86735 0.0
H1071 H 0.53952 0.18462 0.79308 0.0
H1072 H 0.58204 0.1733 0.79561 0.0
H1073 H 0.57363 0.16039 0.87092 0.0
C1074 C 0.47862 0.17518 0.86422 0.0
C1075 C 0.46034 0.17848 0.84747 0.0
C1076 C 0.46628 0.18487 0.82393 0.0
C1077 C 0.49016 0.18647 0.81683 0.0
C1078 C 0.50783 0.18196 0.83359 0.0
C1079 C 0.50225 0.17688 0.85694 0.0
C1080 C 0.52411 0.17064 0.87113 0.0
C1081 C 0.5286 0.18915 0.89063 0.0
C1082 C 0.52231 0.14544 0.88156 0.0
C1083 C 0.54279 0.17198 0.85198 0.0
C1084 C 0.53328 0.1788 0.83047 0.0
C1085 C 0.54718 0.17965 0.80995 0.0
C1086 C 0.57129 0.17318 0.81152 0.0
C1087 C 0.58111 0.16568 0.83338 0.0
C1088 C 0.56663 0.16565 0.85384 0.0
H1089 H 0.81778 0.53997 0.85608 0.0
H1090 H 0.87023 0.55951 0.80285 0.0
H1091 H 0.87058 0.51851 0.78871 0.0
H1092 H 0.84903 0.491 0.87371 0.0
H1093 H 0.8235 0.47313 0.88087 0.0
H1094 H 0.82152 0.50491 0.88228 0.0
H1095 H 0.78587 0.504 0.85327 0.0
H1096 H 0.78788 0.4721 0.85168 0.0
H1097 H 0.78897 0.48956 0.82493 0.0
H1098 H 0.86959 0.47462 0.78339 0.0
H1099 H 0.87224 0.43176 0.79107 0.0
H1100 H 0.82678 0.43993 0.85263 0.0
C1101 C 0.82946 0.53603 0.84143 0.0
C1102 C 0.84405 0.55368 0.83087 0.0
C1103 C 0.85833 0.54703 0.8112 0.0
C1104 C 0.85877 0.52352 0.80297 0.0
C1105 C 0.84514 0.50657 0.8147 0.0
C1106 C 0.83098 0.51249 0.83373 0.0
C1107 C 0.82158 0.49051 0.84611 0.0
C1108 C 0.82939 0.48986 0.87227 0.0
C1109 C 0.79446 0.48896 0.84386 0.0
C1110 C 0.8336 0.47124 0.83173 0.0
C1111 C 0.84625 0.48092 0.81309 0.0
C1112 C 0.85974 0.46688 0.79793 0.0
C1113 C 0.86128 0.44253 0.80259 0.0
C1114 C 0.85013 0.43245 0.82278 0.0
C1115 C 0.83532 0.44694 0.83695 0.0
H1116 H 0.16165 0.98535 0.29999 0.0
H1117 H 0.10817 0.95823 0.34829 0.0
H1118 H 0.09454 0.99929 0.35574 0.0
H1119 H 0.17623 0.03711 0.3319 0.0
H1120 H 0.18021 0.05517 0.30584 0.0
H1121 H 0.18524 0.02368 0.30433 0.0
H1122 H 0.15499 0.02062 0.26985 0.0
H1123 H 0.14966 0.05211 0.27147 0.0
H1124 H 0.12524 0.03162 0.27397 0.0
H1125 H 0.08837 0.04366 0.35936 0.0
H1126 H 0.09116 0.08748 0.36002 0.0
H1127 H 0.14653 0.08501 0.30691 0.0
C1128 C 0.1468 0.98782 0.31186 0.0
C1129 C 0.13588 0.96832 0.32338 0.0
C1130 C 0.11698 0.97273 0.33935 0.0
C1131 C 0.10896 0.99601 0.3435 0.0
C1132 C 0.11988 0.01467 0.33141 0.0
C1133 C 0.13842 0.01078 0.31594 0.0
C1134 C 0.14769 0.03382 0.30564 0.0
C1135 C 0.17389 0.03767 0.31234 0.0
C1136 C 0.14418 0.03458 0.27863 0.0
C1137 C 0.13169 0.05147 0.31799 0.0
C1138 C 0.11572 0.04006 0.33277 0.0
C1139 C 0.10046 0.05271 0.34752 0.0
C1140 C 0.10207 0.07755 0.3477 0.0
C1141 C 0.11855 0.08947 0.333 0.0
C1142 C 0.13313 0.0763 0.31756 0.0
H1143 H 0.93299 0.12343 0.34765 0.0
H1144 H 0.91685 0.1688 0.28786 0.0
H1145 H 0.95982 0.17696 0.2826 0.0
H1146 H 0.97584 0.15712 0.37269 0.0
H1147 H 0.99511 0.13327 0.38179 0.0
H1148 H 0.96386 0.12801 0.3784 0.0
H1149 H 0.97232 0.09395 0.34875 0.0
H1150 H 0.00372 0.0988 0.35233 0.0
H1151 H 0.99067 0.0995 0.32318 0.0
H1152 H 0.00327 0.18607 0.28936 0.0
H1153 H 0.04447 0.19125 0.30403 0.0
H1154 H 0.03258 0.1374 0.35728 0.0
C1155 C 0.93865 0.13442 0.33295 0.0
C1156 C 0.92187 0.1454 0.31801 0.0
C1157 C 0.92962 0.15996 0.29916 0.0
C1158 C 0.95393 0.16474 0.29618 0.0
C1159 C 0.97007 0.15429 0.31183 0.0
C1160 C 0.96276 0.13888 0.32944 0.0
C1161 C 0.98332 0.13099 0.34482 0.0
C1162 C 0.97928 0.13777 0.37096 0.0
C1163 C 0.98777 0.10422 0.3421 0.0
C1164 C 0.00321 0.14529 0.33394 0.0
C1165 C 0.99526 0.15862 0.31491 0.0
C1166 C 0.00984 0.1752 0.30374 0.0
C1167 C 0.03306 0.17815 0.31222 0.0
C1168 C 0.04149 0.16441 0.33143 0.0
C1169 C 0.02652 0.14759 0.34217 0.0
H1170 H 0.9015 0.93792 0.32217 0.0
H1171 H 0.83579 0.92574 0.2845 0.0
H1172 H 0.83026 0.96925 0.28033 0.0
H1173 H 0.88127 0.98038 0.35709 0.0
H1174 H 0.90766 0.99841 0.35814 0.0
H1175 H 0.91003 0.96723 0.35219 0.0
H1176 H 0.93221 0.97566 0.31289 0.0
H1177 H 0.93051 0.00702 0.31896 0.0
H1178 H 0.91927 0.99546 0.29137 0.0
H1179 H 0.82831 0.01407 0.28775 0.0
H1180 H 0.83072 0.05463 0.30474 0.0
H1181 H 0.89711 0.03623 0.33868 0.0
C1182 C 0.88657 0.94444 0.31197 0.0
C1183 C 0.8693 0.92863 0.30325 0.0
C1184 C 0.84956 0.93763 0.29067 0.0
C1185 C 0.84622 0.96233 0.28843 0.0
C1186 C 0.86295 0.97757 0.29863 0.0
C1187 C 0.883 0.96884 0.30977 0.0
C1188 C 0.89668 0.98827 0.32221 0.0
C1189 C 0.89902 0.98326 0.34898 0.0
C1190 C 0.92112 0.99181 0.31066 0.0
C1191 C 0.88061 0.00918 0.31751 0.0
C1192 C 0.8615 0.00294 0.30345 0.0
C1193 C 0.84347 0.01917 0.29835 0.0
C1194 C 0.84494 0.04215 0.30807 0.0
C1195 C 0.86405 0.04848 0.32309 0.0
C1196 C 0.88224 0.03184 0.32738 0.0
H1197 H 0.96703 0.88408 0.33507 0.0
H1198 H 0.96156 0.81709 0.29752 0.0
H1199 H 0.00439 0.81739 0.29012 0.0
H1200 H 0.01191 0.91055 0.30025 0.0
H1201 H 0.02852 0.92322 0.32444 0.0
H1202 H 0.99709 0.91827 0.32751 0.0
H1203 H 0.00421 0.89275 0.36502 0.0
H1204 H 0.0356 0.89816 0.36242 0.0
H1205 H 0.02463 0.86815 0.36367 0.0
H1206 H 0.04651 0.82683 0.28226 0.0
H1207 H 0.08849 0.83936 0.284 0.0
H1208 H 0.06913 0.89729 0.33076 0.0
C1209 C 0.97499 0.86926 0.32581 0.0
C1210 C 0.96074 0.85094 0.31622 0.0
C1211 C 0.97192 0.83175 0.30433 0.0
C1212 C 0.99628 0.83171 0.3 0.0
C1213 C 0.00961 0.85063 0.30833 0.0
C1214 C 0.99968 0.86858 0.32181 0.0
C1215 C 0.01871 0.88601 0.32964 0.0
C1216 C 0.01375 0.91099 0.31987 0.0
C1217 C 0.02092 0.88628 0.3568 0.0
C1218 C 0.04055 0.87515 0.31808 0.0
C1219 C 0.03468 0.85506 0.3054 0.0
C1220 C 0.05147 0.84237 0.29237 0.0
C1221 C 0.07518 0.84978 0.29317 0.0
C1222 C 0.08188 0.86933 0.3073 0.0
C1223 C 0.06432 0.88237 0.31966 0.0
H1224 H 0.15783 0.03602 0.63196 0.0
H1225 H 0.12746 0.05262 0.70046 0.0
H1226 H 0.11563 0.01045 0.70538 0.0
H1227 H 0.11287 0.99269 0.6144 0.0
H1228 H 0.13422 0.9742 0.59941 0.0
H1229 H 0.13888 0.00578 0.60119 0.0
H1230 H 0.18007 0.99862 0.62039 0.0
H1231 H 0.17552 0.96708 0.61871 0.0
H1232 H 0.18216 0.98075 0.64681 0.0
H1233 H 0.11095 0.96498 0.70392 0.0
H1234 H 0.11131 0.9218 0.69489 0.0
H1235 H 0.14297 0.93685 0.62647 0.0
C1236 C 0.14854 0.03078 0.64792 0.0
C1237 C 0.14364 0.04742 0.6659 0.0
C1238 C 0.13122 0.04006 0.68644 0.0
C1239 C 0.12454 0.01618 0.68939 0.0
C1240 C 0.13006 1.00007 0.67141 0.0
C1241 C 0.14148 0.00724 0.65092 0.0
C1242 C 0.14576 0.98668 0.63431 0.0
C1243 C 0.13211 0.99005 0.61095 0.0
C1244 C 0.17246 0.98308 0.62981 0.0
C1245 C 0.13548 0.96664 0.64881 0.0
C1246 C 0.12653 0.97453 0.6702 0.0
C1247 C 0.11756 0.9587 0.68704 0.0
C1248 C 0.11785 0.93425 0.68181 0.0
C1249 C 0.12686 0.92603 0.65988 0.0
C1250 C 0.13552 0.94257 0.64322 0.0
H1251 H 0.07733 0.16768 0.67169 0.0
H1252 H 0.08943 0.10155 0.70873 0.0
H1253 H 0.04592 0.09423 0.70956 0.0
H1254 H 0.01868 0.1829 0.70052 0.0
H1255 H 0.0078 0.19512 0.67306 0.0
H1256 H 0.03892 0.19697 0.68017 0.0
H1257 H 0.04895 0.17644 0.64031 0.0
H1258 H 0.01799 0.174 0.63328 0.0
H1259 H 0.03631 0.14778 0.63382 0.0
H1260 H 1.00157 0.0914 0.69956 0.0
H1261 H 0.9614 0.09422 0.68189 0.0
H1262 H 0.97959 0.16265 0.65195 0.0
C1263 C 0.07068 0.15213 0.68084 0.0
C1264 C 0.08644 0.1353 0.69042 0.0
C1265 C 0.07744 0.11486 0.70178 0.0
C1266 C 0.05281 0.11056 0.70218 0.0
C1267 C 0.03768 0.12711 0.69149 0.0
C1268 C 0.04638 0.14776 0.68148 0.0
C1269 C 0.02716 0.16167 0.66903 0.0
C1270 C 0.02289 0.18558 0.68144 0.0
C1271 C 0.03296 0.16515 0.64256 0.0
C1272 C 0.00642 0.14512 0.67243 0.0
C1273 C 0.01257 0.12544 0.68572 0.0
C1274 C 0.9965 0.10699 0.68957 0.0
C1275 C 0.97373 0.10872 0.67947 0.0
C1276 C 0.96738 0.1286 0.66544 0.0
C1277 C 0.98392 0.14711 0.66235 0.0
H1278 H 0.87327 0.94822 0.61817 0.0
H1279 H 0.87651 0.92719 0.69204 0.0
H1280 H 0.88046 0.96927 0.70377 0.0
H1281 H 0.91596 0.99615 0.62188 0.0
H1282 H 0.89988 0.01464 0.60135 0.0
H1283 H 0.89812 0.98282 0.59896 0.0
H1284 H 0.85225 0.98506 0.60181 0.0
H1285 H 0.85388 0.01686 0.60413 0.0
H1286 H 0.83877 0.99997 0.62667 0.0
H1287 H 0.8833 0.01431 0.70723 0.0
H1288 H 0.88299 0.05802 0.70197 0.0
H1289 H 0.87818 0.04843 0.62581 0.0
C1290 C 0.87514 0.95239 0.63679 0.0
C1291 C 0.87462 0.93439 0.65416 0.0
C1292 C 0.8766 0.94069 0.67841 0.0
C1293 C 0.87905 0.96453 0.68524 0.0
C1294 C 0.87949 0.98184 0.6676 0.0
C1295 C 0.87753 0.976 0.64388 0.0
C1296 C 0.87762 0.99784 0.62836 0.0
C1297 C 0.89918 0.99786 0.61166 0.0
C1298 C 0.85424 1.00006 0.61443 0.0
C1299 C 0.87973 0.01693 0.64703 0.0
C1300 C 0.88097 0.00746 0.66958 0.0
C1301 C 0.88245 0.0219 0.68963 0.0
C1302 C 0.88232 0.04667 0.6865 0.0
C1303 C 0.88058 0.05658 0.66352 0.0
C1304 C 0.87958 0.04142 0.64363 0.0
H1305 H 0.02507 0.8371 0.61938 0.0
H1306 H 0.04992 0.86718 0.68564 0.0
H1307 H 0.00879 0.86625 0.70121 0.0
H1308 H 0.96899 0.8665 0.61688 0.0
H1309 H 0.95415 0.84101 0.60456 0.0
H1310 H 0.98521 0.84565 0.59885 0.0
H1311 H 0.9944 0.80369 0.61546 0.0
H1312 H 0.96339 0.79907 0.62153 0.0
H1313 H 0.98488 0.79608 0.64501 0.0
H1314 H 0.96378 0.86121 0.70915 0.0
H1315 H 0.92033 0.85387 0.70789 0.0
H1316 H 0.92786 0.82431 0.63729 0.0
C1317 C 0.02204 0.8434 0.63724 0.0
C1318 C 0.04082 0.85204 0.65131 0.0
C1319 C 0.03582 0.86066 0.6744 0.0
C1320 C 0.01254 0.86 0.68346 0.0
C1321 C 0.99459 0.85061 0.66922 0.0
C1322 C 0.99923 0.84255 0.64656 0.0
C1323 C 0.97732 0.83287 0.6347 0.0
C1324 C 0.97105 0.84738 0.61244 0.0
C1325 C 0.98018 0.80636 0.62884 0.0
C1326 C 0.95945 0.83667 0.65419 0.0
C1327 C 0.9695 0.84702 0.67399 0.0
C1328 C 0.95582 0.85295 0.69378 0.0
C1329 C 0.93122 0.84861 0.69297 0.0
C1330 C 0.92077 0.8383 0.6726 0.0
C1331 C 0.93527 0.83192 0.65328 0.0
H1332 H 0.37516 0.11819 0.97368 0.0
H1333 H 0.31003 0.14492 0.94288 0.0
H1334 H 0.29264 0.1487 0.98319 0.0
H1335 H 0.34875 0.08351 0.01982 0.0
H1336 H 0.37164 0.09043 0.04102 0.0
H1337 H 0.37845 0.08988 0.00984 0.0
H1338 H 0.39434 0.13302 0.01218 0.0
H1339 H 0.38793 0.13355 0.0434 0.0
H1340 H 0.37564 0.156 0.02424 0.0
H1341 H 0.28256 0.14854 0.02822 0.0
H1342 H 0.28288 0.14872 0.0724 0.0
H1343 H 0.35497 0.1221 0.0716 0.0
C1344 C 0.35718 0.12472 0.97536 0.0
C1345 C 0.34388 0.13109 0.95519 0.0
C1346 C 0.32058 0.14008 0.95816 0.0
C1347 C 0.31051 0.14205 0.98096 0.0
C1348 C 0.32406 0.13507 1.0005 0.0
C1349 C 0.34702 0.12685 0.99778 0.0
C1350 C 0.35842 0.1212 0.02129 0.0
C1351 C 0.36467 0.09468 0.02309 0.0
C1352 C 0.38037 0.13689 0.02552 0.0
C1353 C 0.33841 0.12761 0.03784 0.0
C1354 C 0.31854 0.13533 0.02573 0.0
C1355 C 0.29805 0.14248 0.0378 0.0
C1356 C 0.29827 0.14235 0.06282 0.0
C1357 C 0.31893 0.13541 0.07523 0.0
C1358 C 0.33893 0.12752 0.0625 0.0
H1359 H 0.8475 0.36161 0.0644 0.0
H1360 H 0.84706 0.28516 0.07335 0.0
H1361 H 0.85441 0.2804 0.03009 0.0
H1362 H 0.81791 0.3631 0.00784 0.0
H1363 H 0.83536 0.38778 0.99741 0.0
H1364 H 0.82939 0.38453 0.0286 0.0
H1365 H 0.87453 0.38557 0.03737 0.0
H1366 H 0.88066 0.38873 0.00623 0.0
H1367 H 0.89388 0.36473 0.02272 0.0
H1368 H 0.86353 0.285 0.98537 0.0
H1369 H 0.87288 0.29799 0.94458 0.0
H1370 H 0.86596 0.37146 0.96655 0.0
C1371 C 0.84886 0.34377 0.05739 0.0
C1372 C 0.8468 0.32371 0.07226 0.0
C1373 C 0.84857 0.30075 0.06224 0.0
C1374 C 0.85275 0.29793 0.03773 0.0
C1375 C 0.85491 0.31825 0.02364 0.0
C1376 C 0.85286 0.3407 0.03324 0.0
C1377 C 0.85608 0.35985 0.01477 0.0
C1378 C 0.83333 0.37468 0.01199 0.0
C1379 C 0.87756 0.37564 0.02063 0.0
C1380 C 0.86063 0.3448 0.99313 0.0
C1381 C 0.85983 0.32085 0.99843 0.0
C1382 C 0.864 0.30372 0.98109 0.0
C1383 C 0.86919 0.3113 0.95789 0.0
C1384 C 0.87021 0.33583 0.9522 0.0
C1385 C 0.86566 0.35262 0.97019 0.0
H1386 H 0.66033 0.82436 0.98242 0.0
H1387 H 0.68951 0.89207 0.95991 0.0
H1388 H 0.70483 0.89854 1.00032 0.0
H1389 H 0.63845 0.84463 0.03597 0.0
H1390 H 0.64424 0.81742 0.05174 0.0
H1391 H 0.63912 0.81674 0.02033 0.0
H1392 H 0.67937 0.79519 0.01442 0.0
H1393 H 0.68475 0.79616 0.0459 0.0
H1394 H 0.70618 0.8085 0.02565 0.0
H1395 H 0.71349 0.89936 0.04469 0.0
H1396 H 0.71075 0.89613 0.08851 0.0
H1397 H 0.67423 0.82907 0.08129 0.0
C1398 C 0.67001 0.84056 0.98561 0.0
C1399 C 0.67363 0.85762 0.96753 0.0
C1400 C 0.68665 0.87845 0.97309 0.0
C1401 C 0.6955 0.8823 0.9961 0.0
C1402 C 0.69129 0.86517 0.01344 0.0
C1403 C 0.6787 0.84477 0.0084 0.0
C1404 C 0.67422 0.8302 0.03047 0.0
C1405 C 0.64743 0.82709 0.03489 0.0
C1406 C 0.6869 0.80609 0.02901 0.0
C1407 C 0.68553 0.84596 0.04896 0.0
C1408 C 0.69585 0.86579 0.03882 0.0
C1409 C 0.70589 0.88368 0.05273 0.0
C1410 C 0.70449 0.88163 0.07756 0.0
C1411 C 0.69293 0.86202 0.08802 0.0
C1412 C 0.68388 0.84379 0.07357 0.0
H1413 H 0.15544 0.64519 0.06565 0.0
H1414 H 0.12193 0.71418 0.072 0.0
H1415 H 0.12038 0.71714 0.028 0.0
H1416 H 0.19153 0.65836 0.01489 0.0
H1417 H 0.18803 0.62904 0.00262 0.0
H1418 H 0.1868 0.63332 0.03421 0.0
H1419 H 0.14552 0.61307 0.03525 0.0
H1420 H 0.14649 0.60896 0.00363 0.0
H1421 H 0.12193 0.62451 0.01695 0.0
H1422 H 0.12154 0.71092 0.98233 0.0
H1423 H 0.12797 0.69781 0.94081 0.0
H1424 H 0.16021 0.63289 0.96645 0.0
C1425 C 0.14787 0.66106 0.0579 0.0
C1426 C 0.13877 0.67947 0.07223 0.0
C1427 C 0.12913 0.69993 0.06131 0.0
C1428 C 0.12807 0.70166 0.03637 0.0
C1429 C 0.13682 0.68283 0.02278 0.0
C1430 C 0.14673 0.66304 0.03333 0.0
C1431 C 0.15494 0.64507 0.01526 0.0
C1432 C 0.18192 0.64124 0.01684 0.0
C1433 C 0.1414 0.62152 0.01794 0.0
C1434 C 0.14815 0.65769 0.99268 0.0
C1435 C 0.1376 0.67939 0.99718 0.0
C1436 C 0.12984 0.69397 0.97872 0.0
C1437 C 0.13338 0.68632 0.95519 0.0
C1438 C 0.14471 0.66436 0.95039 0.0
C1439 C 0.1518 0.64988 0.96951 0.0
H1440 H 0.31714 0.82847 0.01802 0.0
H1441 H 0.34536 0.89726 0.03803 0.0
H1442 H 0.34471 0.90953 0.99596 0.0
H1443 H 0.34847 0.82217 0.96382 0.0
H1444 H 0.32414 0.80806 0.94864 0.0
H1445 H 0.32702 0.80508 0.98025 0.0
H1446 H 0.28436 0.82149 0.98547 0.0
H1447 H 0.28153 0.82489 0.95384 0.0
H1448 H 0.27681 0.85 0.97307 0.0
H1449 H 0.3424 0.9135 0.95148 0.0
H1450 H 0.34069 0.90806 0.90799 0.0
H1451 H 0.31109 0.83786 0.91759 0.0
C1452 C 0.32299 0.84623 0.01368 0.0
C1453 C 0.3312 0.86193 0.03146 0.0
C1454 C 0.33923 0.8848 0.02481 0.0
C1455 C 0.33865 0.89202 1.00097 0.0
C1456 C 0.32984 0.87624 0.98406 0.0
C1457 C 0.32226 0.85377 0.99014 0.0
C1458 C 0.31413 0.8399 0.96862 0.0
C1459 C 0.32936 0.81749 0.96513 0.0
C1460 C 0.28763 0.83372 0.97037 0.0
C1461 C 0.31862 0.85796 0.94931 0.0
C1462 C 0.32762 0.87885 0.9586 0.0
C1463 C 0.33495 0.89744 0.94407 0.0
C1464 C 0.33377 0.89428 0.91946 0.0
C1465 C 0.32502 0.87289 0.90969 0.0
C1466 C 0.31685 0.85474 0.92475 0.0
H1467 H 0.12899 0.31946 0.94217 0.0
H1468 H 0.19278 0.36236 0.94233 0.0
H1469 H 0.19089 0.36546 0.98583 0.0
H1470 H 0.09901 0.35223 0.98435 0.0
H1471 H 0.08479 0.32771 0.99913 0.0
H1472 H 0.09306 0.32514 0.96844 0.0
H1473 H 0.11781 0.28755 0.97784 0.0
H1474 H 0.10934 0.28982 0.00858 0.0
H1475 H 0.14027 0.28875 1.00055 0.0
H1476 H 0.17973 0.36833 0.02813 0.0
H1477 H 0.16045 0.36966 0.06727 0.0
H1478 H 0.10369 0.32493 0.04057 0.0
C1479 C 0.14296 0.3287 0.95156 0.0
C1480 C 0.16121 0.34041 0.9391 0.0
C1481 C 0.17877 0.35314 0.95172 0.0
C1482 C 0.17787 0.35498 0.9764 0.0
C1483 C 0.15924 0.34402 0.98824 0.0
C1484 C 0.14217 0.33094 0.97636 0.0
C1485 C 0.12291 0.32282 0.99328 0.0
C1486 C 0.09851 0.33257 0.98585 0.0
C1487 C 0.12257 0.29562 0.99518 0.0
C1488 C 0.13144 0.33409 0.01618 0.0
C1489 C 0.15258 0.34595 0.0129 0.0
C1490 C 0.16337 0.35873 0.03109 0.0
C1491 C 0.15229 0.35935 0.05331 0.0
C1492 C 0.13056 0.34737 0.05719 0.0
C1493 C 0.12017 0.33446 0.03828 0.0
H1494 H 0.62664 0.16553 0.02962 0.0
H1495 H 0.69078 0.14119 0.06439 0.0
H1496 H 0.71106 0.13915 0.02558 0.0
H1497 H 0.63046 0.12753 0.98065 0.0
H1498 H 0.61877 0.14886 0.9599 0.0
H1499 H 0.61048 0.15044 0.99063 0.0
H1500 H 0.62522 0.19402 0.99243 0.0
H1501 H 0.63361 0.19252 0.96166 0.0
H1502 H 0.65521 0.20085 0.98368 0.0
H1503 H 0.72346 0.13743 0.98121 0.0
H1504 H 0.7255 0.13558 0.93705 0.0
H1505 H 0.65279 0.16048 0.93345 0.0
C1506 C 0.64497 0.15986 0.02917 0.0
C1507 C 0.65704 0.15358 0.05013 0.0
C1508 C 0.68117 0.14645 0.04866 0.0
C1509 C 0.69285 0.14514 0.02664 0.0
C1510 C 0.68023 0.15115 0.00624 0.0
C1511 C 0.65681 0.15846 0.00747 0.0
C1512 C 0.6466 0.16289 0.98317 0.0
C1513 C 0.62534 0.14644 0.97831 0.0
C1514 C 0.63976 0.18913 0.98006 0.0
C1515 C 0.66768 0.15644 0.96799 0.0
C1516 C 0.68712 0.14993 0.98136 0.0
C1517 C 0.70833 0.14264 0.97061 0.0
C1518 C 0.70941 0.14167 0.94559 0.0
C1519 C 0.68928 0.14765 0.93189 0.0
C1520 C 0.66847 0.15551 0.9434 0.0
H1521 H 0.86474 0.69122 0.9543 0.0
H1522 H 0.88608 0.61746 0.94919 0.0
H1523 H 0.8901 0.61535 0.99255 0.0
H1524 H 0.90251 0.7063 0.00774 0.0
H1525 H 0.87967 0.725 0.02003 0.0
H1526 H 0.88264 0.72216 0.98833 0.0
H1527 H 0.83864 0.70921 0.98545 0.0
H1528 H 0.83558 0.71183 0.01706 0.0
H1529 H 0.82852 0.68419 0.00261 0.0
H1530 H 0.88605 0.61907 0.03615 0.0
H1531 H 0.87451 0.62881 0.07715 0.0
H1532 H 0.85682 0.70041 0.05468 0.0
C1533 C 0.87105 0.67495 0.96234 0.0
C1534 C 0.87523 0.65456 0.94848 0.0
C1535 C 0.88278 0.6333 0.95957 0.0
C1536 C 0.88525 0.63193 0.98418 0.0
C1537 C 0.88018 0.65202 0.99754 0.0
C1538 C 0.87344 0.67322 0.98707 0.0
C1539 C 0.86666 0.69134 0.00573 0.0
C1540 C 0.88391 0.71245 0.00544 0.0
C1541 C 0.84082 0.69961 0.00251 0.0
C1542 C 0.86963 0.67664 0.02806 0.0
C1543 C 0.87781 0.65415 0.02298 0.0
C1544 C 0.88012 0.63682 0.04048 0.0
C1545 C 0.87356 0.64253 0.06378 0.0
C1546 C 0.86465 0.66536 0.06938 0.0
C1547 C 0.86329 0.6827 0.05122 0.0
H1548 H 0.94858 0.3035 0.14286 0.0
H1549 H 0.92454 0.37329 0.16472 0.0
H1550 H 0.96618 0.38503 0.17224 0.0
H1551 H 0.99492 0.29731 0.18621 0.0
H1552 H 0.01484 0.28226 0.16624 0.0
H1553 H 0.98323 0.27947 0.1624 0.0
H1554 H 0.98687 0.29442 0.1191 0.0
H1555 H 0.01849 0.29701 0.12272 0.0
H1556 H 1.00137 0.32233 0.1133 0.0
H1557 H 0.01031 0.38885 0.17749 0.0
H1558 H 0.05392 0.38576 0.17736 0.0
H1559 H 0.04896 0.31295 0.15284 0.0
C1560 C 0.952 0.32121 0.14941 0.0
C1561 C 0.93327 0.33746 0.15337 0.0
C1562 C 0.9386 0.36064 0.1614 0.0
C1563 C 0.96216 0.36736 0.16592 0.0
C1564 C 0.9801 0.35068 0.16228 0.0
C1565 C 0.9753 0.32814 0.15402 0.0
C1566 C 0.99777 0.31369 0.15105 0.0
C1567 C 0.99767 0.2919 0.16746 0.0
C1568 C 1.00133 0.30645 0.12499 0.0
C1569 C 0.01609 0.33166 0.15883 0.0
C1570 C 0.00549 0.35283 0.16535 0.0
C1571 C 0.01877 0.37235 0.1725 0.0
C1572 C 0.04353 0.37038 0.17239 0.0
C1573 C 0.05478 0.34907 0.16518 0.0
C1574 C 0.04083 0.32932 0.15877 0.0
H1575 H 0.97376 0.62041 0.86003 0.0
H1576 H 0.95006 0.68884 0.88599 0.0
H1577 H 0.9913 0.70387 0.88355 0.0
H1578 H 0.02752 0.61846 0.89229 0.0
H1579 H 0.04381 0.60393 0.86895 0.0
H1580 H 0.01231 0.59948 0.87155 0.0
H1581 H 0.00659 0.61355 0.82815 0.0
H1582 H 0.0381 0.618 0.82541 0.0
H1583 H 0.01797 0.64207 0.81923 0.0
H1584 H 0.03692 0.71048 0.87961 0.0
H1585 H 0.08068 0.70766 0.87411 0.0
H1586 H 0.07249 0.63454 0.85157 0.0
C1587 C 0.97712 0.63855 0.86529 0.0
C1588 C 0.95855 0.65335 0.87331 0.0
C1589 C 0.96387 0.67716 0.87958 0.0
C1590 C 0.9873 0.68582 0.87836 0.0
C1591 C 0.00524 0.67052 0.87072 0.0
C1592 C 1.00024 0.6474 0.8642 0.0
C1593 C 0.0224 0.63415 0.85705 0.0
C1594 C 0.02676 0.61275 0.87344 0.0
C1595 C 0.02118 0.6265 0.83091 0.0
C1596 C 0.04081 0.65326 0.86079 0.0
C1597 C 0.0308 0.67422 0.86857 0.0
C1598 C 0.04485 0.69412 0.87343 0.0
C1599 C 0.06967 0.6924 0.87027 0.0
C1600 C 0.08007 0.67091 0.86245 0.0
C1601 C 0.06525 0.65128 0.85762 0.0
H1602 H 0.36877 0.05927 0.86801 0.0
H1603 H 0.31513 0.0855 0.81961 0.0
H1604 H 0.30811 0.04449 0.80532 0.0
H1605 H 0.39251 0.01251 0.83164 0.0
H1606 H 0.39583 0.99172 0.8557 0.0
H1607 H 0.39766 0.02315 0.86133 0.0
H1608 H 0.36413 0.01997 0.8926 0.0
H1609 H 0.36257 0.98849 0.88743 0.0
H1610 H 0.3363 0.0065 0.88445 0.0
H1611 H 0.30827 1.00147 0.79535 0.0
H1612 H 0.30876 0.95782 0.79584 0.0
H1613 H 0.35962 0.95858 0.85348 0.0
C1614 C 0.35548 0.05624 0.85449 0.0
C1615 C 0.34244 0.07528 0.84476 0.0
C1616 C 0.32505 0.07094 0.8273 0.0
C1617 C 0.3212 0.04783 0.81894 0.0
C1618 C 0.33465 0.0294 0.82859 0.0
C1619 C 0.35097 0.03322 0.84643 0.0
C1620 C 0.3616 0.01006 0.85512 0.0
C1621 C 0.3885 0.00933 0.85068 0.0
C1622 C 0.35579 0.00602 0.88146 0.0
C1623 C 0.34867 0.99255 0.83937 0.0
C1624 C 0.33367 0.00425 0.82384 0.0
C1625 C 0.31972 0.99211 0.80759 0.0
C1626 C 0.32015 0.96734 0.80801 0.0
C1627 C 0.33397 0.95487 0.82492 0.0
C1628 C 0.34908 0.96765 0.84025 0.0
H1629 H 0.95817 0.32502 0.83355 0.0
H1630 H 0.94359 0.30447 0.90594 0.0
H1631 H 0.98686 0.30474 0.91463 0.0
H1632 H 0.01627 0.29199 0.82732 0.0
H1633 H 0.02827 0.31551 0.8093 0.0
H1634 H 0.99698 0.30899 0.80829 0.0
H1635 H 0.98779 0.35285 0.81856 0.0
H1636 H 0.01891 0.35944 0.82012 0.0
H1637 H 1.00005 0.36561 0.84518 0.0
H1638 H 0.03166 0.31442 0.91642 0.0
H1639 H 0.07249 0.32989 0.9105 0.0
H1640 H 0.05642 0.34263 0.83646 0.0
C1641 C 0.96422 0.31956 0.85094 0.0
C1642 C 0.94781 0.31427 0.86898 0.0
C1643 C 0.95608 0.30792 0.89176 0.0
C1644 C 0.98058 0.30822 0.89684 0.0
C1645 C 0.99639 0.31453 0.87879 0.0
C1646 C 0.98843 0.31954 0.85613 0.0
C1647 C 0.00835 0.32785 0.84026 0.0
C1648 C 0.01273 0.31002 0.82011 0.0
C1649 C 0.00347 0.35292 0.83048 0.0
C1650 C 0.02865 0.32791 0.85771 0.0
C1651 C 0.02168 0.31993 0.87981 0.0
C1652 C 0.03733 0.32022 0.89904 0.0
C1653 C 0.0605 0.32904 0.89555 0.0
C1654 C 0.06766 0.33769 0.87308 0.0
C1655 C 0.05153 0.33652 0.85396 0.0
H1656 H 0.70866 0.03286 0.84865 0.0
H1657 H 0.65804 0.05677 0.90155 0.0
H1658 H 0.65004 0.01498 0.91224 0.0
H1659 H 0.67726 0.9823 0.82951 0.0
H1660 H 0.70343 0.96434 0.8255 0.0
H1661 H 0.70525 0.99607 0.8225 0.0
H1662 H 0.73846 0.99711 0.85426 0.0
H1663 H 0.73659 0.96535 0.8575 0.0
H1664 H 0.73311 0.98426 0.88303 0.0
H1665 H 0.64625 0.97043 0.91558 0.0
H1666 H 0.64616 0.92681 0.91065 0.0
H1667 H 0.70139 0.93232 0.8576 0.0
C1668 C 0.69618 0.02952 0.86281 0.0
C1669 C 0.68417 0.04834 0.8744 0.0
C1670 C 0.6674 0.04283 0.89227 0.0
C1671 C 0.6629 0.01911 0.89862 0.0
C1672 C 0.67541 1.00113 0.88704 0.0
C1673 C 0.6917 0.0061 0.8695 0.0
C1674 C 0.70236 0.98363 0.85922 0.0
C1675 C 0.69673 0.98146 0.83261 0.0
C1676 C 0.72922 0.98253 0.86378 0.0
C1677 C 0.6893 0.96507 0.87354 0.0
C1678 C 0.67384 0.97555 0.88951 0.0
C1679 C 0.65856 0.96208 0.90346 0.0
C1680 C 0.65869 0.93737 0.90061 0.0
C1681 C 0.67419 0.92638 0.88421 0.0
C1682 C 0.69001 0.94033 0.87084 0.0
H1683 H 0.02391 0.63772 0.13619 0.0
H1684 H 0.04662 0.70942 0.15176 0.0
H1685 H 0.00485 0.7205 0.16092 0.0
H1686 H 0.97069 0.65232 0.10697 0.0
H1687 H 0.95451 0.62737 0.11873 0.0
H1688 H 0.98613 0.62541 0.11481 0.0
H1689 H 0.99123 0.61441 0.15918 0.0
H1690 H 0.9596 0.61614 0.16319 0.0
H1691 H 0.97899 0.63362 0.18161 0.0
H1692 H 0.95881 0.72344 0.16609 0.0
H1693 H 0.91518 0.71712 0.16909 0.0
H1694 H 0.92515 0.64332 0.14967 0.0
C1695 C 0.02014 0.65577 0.14154 0.0
C1696 C 0.0384 0.67277 0.14307 0.0
C1697 C 0.03284 0.69611 0.15059 0.0
C1698 C 0.00918 0.70254 0.15567 0.0
C1699 C 0.99146 0.68534 0.15337 0.0
C1700 C 0.9969 0.66235 0.14671 0.0
C1701 C 0.97509 0.64695 0.14526 0.0
C1702 C 0.9714 0.63747 0.11994 0.0
C1703 C 0.97631 0.62659 0.16339 0.0
C1704 C 0.9563 0.66482 0.15184 0.0
C1705 C 0.96581 0.68692 0.1565 0.0
C1706 C 0.95129 0.70612 0.1626 0.0
C1707 C 0.92655 0.70244 0.16417 0.0
C1708 C 0.91676 0.67974 0.1597 0.0
C1709 C 0.93198 0.6609 0.15336 0.0
H1710 H 0.32333 0.0332 0.1666 0.0
H1711 H 0.33998 0.05732 0.09555 0.0
H1712 H 0.33309 0.01676 0.08026 0.0
H1713 H 0.35215 0.9782 0.16296 0.0
H1714 H 0.33039 0.96232 0.18015 0.0
H1715 H 0.33461 0.99359 0.18482 0.0
H1716 H 0.28986 1.00073 0.17688 0.0
H1717 H 0.28561 0.96943 0.17189 0.0
H1718 H 0.27691 0.99053 0.1495 0.0
H1719 H 0.32955 0.97268 0.07377 0.0
H1720 H 0.32917 0.92879 0.0767 0.0
H1721 H 0.31231 0.9338 0.15133 0.0
C1722 C 0.32543 0.02998 0.14781 0.0
C1723 C 0.33225 0.04842 0.13225 0.0
C1724 C 0.33457 0.04351 0.10773 0.0
C1725 C 0.33068 0.02054 0.09891 0.0
C1726 C 0.3241 0.00274 0.11477 0.0
C1727 C 0.32133 0.00725 0.1387 0.0
C1728 C 0.3153 0.98482 0.15221 0.0
C1729 C 0.33424 0.97942 0.17114 0.0
C1730 C 0.29044 0.98648 0.16327 0.0
C1731 C 0.31588 0.96681 0.1323 0.0
C1732 C 0.32086 0.97751 0.11079 0.0
C1733 C 0.32493 0.96419 0.09033 0.0
C1734 C 0.32454 0.93934 0.09208 0.0
C1735 C 0.31969 0.92819 0.11397 0.0
C1736 C 0.31482 0.94207 0.13416 0.0
H1737 H 0.68707 0.0796 0.1551 0.0
H1738 H 0.62767 0.08372 0.10658 0.0
H1739 H 0.62871 0.04022 0.10129 0.0
H1740 H 0.71803 0.02833 0.12637 0.0
H1741 H 0.72625 0.01575 0.15457 0.0
H1742 H 0.72331 0.04744 0.15144 0.0
H1743 H 0.69332 0.04792 0.18624 0.0
H1744 H 0.69586 0.01624 0.18924 0.0
H1745 H 0.66716 0.02959 0.18466 0.0
H1746 H 0.63337 0.99619 0.10452 0.0
H1747 H 0.64271 0.95456 0.11472 0.0
H1748 H 0.69752 0.97912 0.16287 0.0
C1749 C 0.67498 0.07131 0.14268 0.0
C1750 C 0.65763 0.08479 0.13082 0.0
C1751 C 0.64131 0.07349 0.11549 0.0
C1752 C 0.64173 0.04886 0.11242 0.0
C1753 C 0.65849 0.03582 0.125 0.0
C1754 C 0.67494 0.04662 0.13971 0.0
C1755 C 0.68954 0.02832 0.15285 0.0
C1756 C 0.71584 0.03007 0.14588 0.0
C1757 C 0.68626 0.03067 0.17984 0.0
C1758 C 0.67843 0.00569 0.14355 0.0
C1759 C 0.6607 0.01036 0.12737 0.0
C1760 C 0.64739 0.99226 0.11701 0.0
C1761 C 0.65264 0.96868 0.1231 0.0
C1762 C 0.67094 0.96347 0.13948 0.0
C1763 C 0.68377 0.98237 0.1499 0.0
H1764 H 0.13071 0.20659 0.28691 0.0
H1765 H 0.18941 0.23147 0.32989 0.0
H1766 H 0.18711 0.27072 0.31049 0.0
H1767 H 0.15016 0.23568 0.23367 0.0
H1768 H 0.12062 0.24239 0.22343 0.0
H1769 H 0.12568 0.21683 0.24191 0.0
H1770 H 0.09442 0.23225 0.27187 0.0
H1771 H 0.08928 0.2579 0.25349 0.0
H1772 H 0.09754 0.26163 0.28413 0.0
H1773 H 0.17783 0.30753 0.28712 0.0
H1774 H 0.16529 0.33794 0.25793 0.0
H1775 H 0.11526 0.2882 0.2276 0.0
C1776 C 0.1429 0.22042 0.29231 0.0
C1777 C 0.1601 0.21619 0.31 0.0
C1778 C 0.17611 0.23445 0.31635 0.0
C1779 C 0.17486 0.2568 0.30552 0.0
C1780 C 0.15777 0.26045 0.28808 0.0
C1781 C 0.14232 0.24268 0.28121 0.0
C1782 C 0.12675 0.25077 0.26084 0.0
C1783 C 0.13107 0.23551 0.23865 0.0
C1784 C 0.10044 0.25063 0.26802 0.0
C1785 C 0.13582 0.27586 0.25742 0.0
C1786 C 0.15343 0.28122 0.27359 0.0
C1787 C 0.16415 0.3035 0.27428 0.0
C1788 C 0.1569 0.32067 0.25777 0.0
C1789 C 0.13947 0.31527 0.24058 0.0
C1790 C 0.12878 0.2926 0.24049 0.0
H1791 H 0.70316 0.17186 0.22638 0.0
H1792 H 0.69286 0.09579 0.22615 0.0
H1793 H 0.72722 0.09087 0.25315 0.0
H1794 H 0.76806 0.172 0.2302 0.0
H1795 H 0.76895 0.19689 0.25024 0.0
H1796 H 0.74501 0.19416 0.22926 0.0
H1797 H 0.7146 0.1966 0.2636 0.0
H1798 H 0.73845 0.19921 0.28467 0.0
H1799 H 0.71673 0.17597 0.28794 0.0
H1800 H 0.76261 0.09435 0.28001 0.0
H1801 H 0.79486 0.10608 0.30737 0.0
H1802 H 0.78 0.18023 0.29302 0.0
C1803 C 0.70851 0.15422 0.23183 0.0
C1804 C 0.69577 0.13411 0.22416 0.0
C1805 C 0.70266 0.11128 0.2319 0.0
C1806 C 0.7221 0.10837 0.24713 0.0
C1807 C 0.7342 0.12856 0.25469 0.0
C1808 C 0.72759 0.15108 0.24748 0.0
C1809 C 0.74258 0.16989 0.25951 0.0
C1810 C 0.75701 0.18407 0.24121 0.0
C1811 C 0.72716 0.18639 0.27484 0.0
C1812 C 0.75853 0.15443 0.27468 0.0
C1813 C 0.75366 0.13064 0.27133 0.0
C1814 C 0.76648 0.11293 0.28291 0.0
C1815 C 0.78474 0.11973 0.29839 0.0
C1816 C 0.78962 0.14401 0.3025 0.0
C1817 C 0.77631 0.16153 0.2905 0.0
H1818 H 0.85778 0.80684 0.28997 0.0
H1819 H 0.82759 0.77852 0.35481 0.0
H1820 H 0.82944 0.73799 0.33776 0.0
H1821 H 0.82728 0.76829 0.24986 0.0
H1822 H 0.85219 0.76607 0.22996 0.0
H1823 H 0.84817 0.79239 0.24757 0.0
H1824 H 0.89055 0.78725 0.26477 0.0
H1825 H 0.89461 0.76078 0.24736 0.0
H1826 H 0.89849 0.75976 0.27906 0.0
H1827 H 0.8357 0.69999 0.31297 0.0
H1828 H 0.84268 0.66939 0.28196 0.0
H1829 H 0.86879 0.72389 0.23457 0.0
C1830 C 0.85146 0.7922 0.30066 0.0
C1831 C 0.84257 0.79588 0.32376 0.0
C1832 C 0.83439 0.77615 0.33702 0.0
C1833 C 0.8355 0.75306 0.32753 0.0
C1834 C 0.84478 0.75007 0.30478 0.0
C1835 C 0.8524 0.76923 0.29152 0.0
C1836 C 0.86137 0.76167 0.26746 0.0
C1837 C 0.84635 0.77276 0.24755 0.0
C1838 C 0.88782 0.76773 0.2645 0.0
C1839 C 0.85754 0.73522 0.26908 0.0
C1840 C 0.84813 0.72868 0.29074 0.0
C1841 C 0.84305 0.70498 0.29597 0.0
C1842 C 0.8472 0.68771 0.27839 0.0
C1843 C 0.85611 0.69435 0.25588 0.0
C1844 C 0.86169 0.71835 0.25151 0.0
H1845 H 0.27754 0.87671 0.19745 0.0
H1846 H 0.33763 0.89161 0.24329 0.0
H1847 H 0.31128 0.88873 0.27817 0.0
H1848 H 0.2343 0.90868 0.22954 0.0
H1849 H 0.21099 0.88741 0.22439 0.0
H1850 H 0.23469 0.89049 0.20325 0.0
H1851 H 0.24392 0.84558 0.20697 0.0
H1852 H 0.22031 0.84237 0.22826 0.0
H1853 H 0.24998 0.83309 0.23576 0.0
H1854 H 0.27818 0.88529 0.30777 0.0
H1855 H 0.24058 0.88319 0.33 0.0
H1856 H 0.20251 0.86829 0.26489 0.0
C1857 C 0.28543 0.87903 0.21475 0.0
C1858 C 0.30989 0.88422 0.21749 0.0
C1859 C 0.31902 0.88781 0.2406 0.0
C1860 C 0.30421 0.88598 0.26055 0.0
C1861 C 0.28035 0.8804 0.2571 0.0
C1862 C 0.27102 0.87701 0.23477 0.0
C1863 C 0.24468 0.87167 0.23577 0.0
C1864 C 0.23033 0.8907 0.22246 0.0
C1865 C 0.23942 0.84669 0.22612 0.0
C1866 C 0.24047 0.87295 0.26223 0.0
C1867 C 0.26134 0.87791 0.27419 0.0
C1868 C 0.26181 0.8812 0.29862 0.0
C1869 C 0.24036 0.87996 0.31107 0.0
C1870 C 0.21872 0.87537 0.29915 0.0
C1871 C 0.21887 0.87131 0.27448 0.0
H1872 H 0.14299 0.76141 0.6655 0.0
H1873 H 0.12571 0.82434 0.70653 0.0
H1874 H 0.1214 0.79992 0.7423 0.0
H1875 H 0.10319 0.72098 0.69589 0.0
H1876 H 0.12364 0.69638 0.6954 0.0
H1877 H 0.12473 0.71853 0.67239 0.0
H1878 H 0.16912 0.72609 0.68152 0.0
H1879 H 0.16819 0.70388 0.70446 0.0
H1880 H 0.17796 0.73354 0.71131 0.0
H1881 H 0.11841 0.76929 0.77359 0.0
H1882 H 0.11967 0.73425 0.79943 0.0
H1883 H 0.1409 0.6908 0.73943 0.0
C1884 C 0.13821 0.76999 0.682 0.0
C1885 C 0.13463 0.79482 0.68311 0.0
C1886 C 0.12864 0.80539 0.70514 0.0
C1887 C 0.12602 0.79166 0.72561 0.0
C1888 C 0.12962 0.76732 0.72395 0.0
C1889 C 0.1358 0.75651 0.70283 0.0
C1890 C 0.13953 0.73006 0.70639 0.0
C1891 C 0.12171 0.71564 0.69164 0.0
C1892 C 0.16523 0.72298 0.70058 0.0
C1893 C 0.13445 0.72783 0.73274 0.0
C1894 C 0.12859 0.74955 0.74239 0.0
C1895 C 0.12316 0.75217 0.7663 0.0
C1896 C 0.12408 0.73211 0.7809 0.0
C1897 C 0.13063 0.70963 0.77168 0.0
C1898 C 0.13563 0.70756 0.74713 0.0
H1899 H 0.21679 0.18529 0.7318 0.0
H1900 H 0.22381 0.12397 0.68585 0.0
H1901 H 0.26262 0.11468 0.70421 0.0
H1902 H 0.27799 0.20262 0.73309 0.0
H1903 H 0.27778 0.21054 0.76405 0.0
H1904 H 0.25096 0.21283 0.74684 0.0
H1905 H 0.22918 0.18571 0.77671 0.0
H1906 H 0.25585 0.18341 0.79412 0.0
H1907 H 0.24134 0.15692 0.78363 0.0
H1908 H 0.30129 0.1131 0.7265 0.0
H1909 H 0.33495 0.11638 0.75447 0.0
H1910 H 0.30138 0.17692 0.78786 0.0
C1911 C 0.22658 0.16996 0.72557 0.0
C1912 C 0.21752 0.15544 0.70727 0.0
C1913 C 0.23052 0.13529 0.69985 0.0
C1914 C 0.25258 0.12996 0.71008 0.0
C1915 C 0.26112 0.14474 0.72798 0.0
C1916 C 0.24834 0.16409 0.73596 0.0
C1917 C 0.26093 0.17643 0.75625 0.0
C1918 C 0.26729 0.20213 0.74964 0.0
C1919 C 0.24593 0.17555 0.77902 0.0
C1920 C 0.28291 0.16109 0.75832 0.0
C1921 C 0.28283 0.14312 0.74163 0.0
C1922 C 0.3015 0.12701 0.73971 0.0
C1923 C 0.3206 0.12911 0.75551 0.0
C1924 C 0.3207 0.14693 0.77318 0.0
C1925 C 0.30162 0.16312 0.77451 0.0
H1926 H 0.89624 0.29102 0.74639 0.0
H1927 H 0.87394 0.25153 0.80882 0.0
H1928 H 0.86797 0.21624 0.78405 0.0
H1929 H 0.85596 0.26413 0.70515 0.0
H1930 H 0.87717 0.26368 0.68125 0.0
H1931 H 0.87896 0.2863 0.70373 0.0
H1932 H 0.92246 0.2743 0.71251 0.0
H1933 H 0.92085 0.25169 0.69003 0.0
H1934 H 0.92922 0.24391 0.71987 0.0
H1935 H 0.86488 0.18496 0.75273 0.0
H1936 H 0.86599 0.15955 0.71739 0.0
H1937 H 0.89142 0.21893 0.67536 0.0
C1938 C 0.89025 0.27508 0.75515 0.0
C1939 C 0.88566 0.27445 0.77988 0.0
C1940 C 0.87751 0.25291 0.79006 0.0
C1941 C 0.87408 0.23261 0.77609 0.0
C1942 C 0.87891 0.23398 0.75192 0.0
C1943 C 0.88689 0.25462 0.74154 0.0
C1944 C 0.89128 0.25125 0.71522 0.0
C1945 C 0.87486 0.26729 0.70047 0.0
C1946 C 0.91751 0.25554 0.70905 0.0
C1947 C 0.88469 0.22535 0.71246 0.0
C1948 C 0.87744 0.21582 0.73385 0.0
C1949 C 0.87051 0.19224 0.73589 0.0
C1950 C 0.87117 0.17795 0.71561 0.0
C1951 C 0.87877 0.18719 0.69347 0.0
C1952 C 0.88553 0.2113 0.69196 0.0
H1953 H 0.69017 0.85397 0.76005 0.0
H1954 H 0.73119 0.89526 0.81015 0.0
H1955 H 0.7649 0.89598 0.78199 0.0
H1956 H 0.73781 0.81745 0.74133 0.0
H1957 H 0.72825 0.81563 0.7109 0.0
H1958 H 0.70679 0.82023 0.73407 0.0
H1959 H 0.69188 0.85822 0.71289 0.0
H1960 H 0.71336 0.85376 0.68966 0.0
H1961 H 0.71268 0.88141 0.7057 0.0
H1962 H 0.7944 0.89119 0.74878 0.0
H1963 H 0.81869 0.87881 0.71462 0.0
H1964 H 0.75891 0.83914 0.68663 0.0
C1965 C 0.70611 0.86351 0.76485 0.0
C1966 C 0.70806 0.87479 0.78714 0.0
C1967 C 0.72941 0.88654 0.79315 0.0
C1968 C 0.74855 0.88714 0.77722 0.0
C1969 C 0.74611 0.87571 0.75542 0.0
C1970 C 0.72549 0.86396 0.7493 0.0
C1971 C 0.72804 0.85166 0.72552 0.0
C1972 C 0.72505 0.82464 0.72812 0.0
C1973 C 0.71044 0.86188 0.70737 0.0
C1974 C 0.75337 0.85816 0.71929 0.0
C1975 C 0.76336 0.87231 0.73663 0.0
C1976 C 0.78673 0.88018 0.73507 0.0
C1977 C 0.80039 0.87306 0.71553 0.0
C1978 C 0.79077 0.85797 0.69785 0.0
C1979 C 0.7668 0.85076 0.69971 0.0
H1980 H 0.20697 0.16223 0.29088 0.0
H1981 H 0.23421 0.09527 0.31683 0.0
H1982 H 0.26273 0.09395 0.28313 0.0
H1983 H 0.21021 0.14985 0.22926 0.0
H1984 H 0.2193 0.17945 0.2213 0.0
H1985 H 0.20144 0.17474 0.24733 0.0
H1986 H 0.23289 0.19615 0.27306 0.0
H1987 H 0.25081 0.20109 0.24711 0.0
H1988 H 0.26324 0.18607 0.27245 0.0
H1989 H 0.28673 0.09969 0.24476 0.0
H1990 H 0.30654 0.11352 0.20802 0.0
H1991 H 0.26412 0.17775 0.20953 0.0
C1992 C 0.21891 0.14726 0.28943 0.0
C1993 C 0.21835 0.12869 0.30618 0.0
C1994 C 0.2345 0.10961 0.30407 0.0
C1995 C 0.2506 0.10872 0.28499 0.0
C1996 C 0.25044 0.12727 0.26854 0.0
C1997 C 0.23519 0.14634 0.27087 0.0
C1998 C 0.23872 0.16439 0.25139 0.0
C1999 C 0.21607 0.16726 0.23644 0.0
C2000 C 0.24691 0.18834 0.26162 0.0
C2001 C 0.25825 0.15249 0.23745 0.0
C2002 C 0.2647 0.131 0.24739 0.0
C2003 C 0.28194 0.11659 0.23699 0.0
C2004 C 0.29302 0.12452 0.2161 0.0
C2005 C 0.28699 0.14678 0.20607 0.0
C2006 C 0.26932 0.16079 0.21694 0.0
H2007 H 0.84277 0.28091 0.18983 0.0
H2008 H 0.77705 0.31283 0.21435 0.0
H2009 H 0.77829 0.28765 0.25008 0.0
H2010 H 0.8297 0.22069 0.21203 0.0
H2011 H 0.86019 0.21516 0.21993 0.0
H2012 H 0.85328 0.23456 0.19548 0.0
H2013 H 0.878 0.26801 0.215 0.0
H2014 H 0.88487 0.24881 0.23955 0.0
H2015 H 0.87114 0.27721 0.24483 0.0
H2016 H 0.78881 0.26231 0.28493 0.0
H2017 H 0.80644 0.23596 0.31533 0.0
H2018 H 0.864 0.21873 0.26754 0.0
C2019 C 0.8285 0.28244 0.20258 0.0
C2020 C 0.80993 0.29903 0.19937 0.0
C2021 C 0.79153 0.30037 0.21644 0.0
C2022 C 0.79205 0.28611 0.23679 0.0
C2023 C 0.81088 0.27034 0.23965 0.0
C2024 C 0.82859 0.26815 0.22286 0.0
C2025 C 0.8471 0.25018 0.23049 0.0
C2026 C 0.84758 0.22888 0.21347 0.0
C2027 C 0.87173 0.26175 0.23259 0.0
C2028 C 0.83743 0.24317 0.25454 0.0
C2029 C 0.8165 0.25502 0.25945 0.0
C2030 C 0.80498 0.25268 0.28116 0.0
C2031 C 0.81515 0.23787 0.29833 0.0
C2032 C 0.83644 0.22546 0.29359 0.0
C2033 C 0.84755 0.22791 0.27134 0.0
H2034 H 0.69875 0.91172 0.23035 0.0
H2035 H 0.69237 0.83587 0.21912 0.0
H2036 H 0.71668 0.82851 0.25481 0.0
H2037 H 0.75881 0.91018 0.24592 0.0
H2038 H 0.75717 0.93355 0.26766 0.0
H2039 H 0.7364 0.93289 0.24347 0.0
H2040 H 0.70147 0.93337 0.27332 0.0
H2041 H 0.72219 0.93394 0.29765 0.0
H2042 H 0.69996 0.91102 0.29613 0.0
H2043 H 0.74382 0.82926 0.28959 0.0
H2044 H 0.77501 0.8379 0.31901 0.0
H2045 H 0.76582 0.91329 0.30684 0.0
C2046 C 0.702 0.89358 0.23581 0.0
C2047 C 0.69342 0.87432 0.22226 0.0
C2048 C 0.69867 0.85083 0.22939 0.0
C2049 C 0.71234 0.8465 0.2497 0.0
C2050 C 0.7208 0.86586 0.26256 0.0
C2051 C 0.71602 0.88895 0.25582 0.0
C2052 C 0.72946 0.9065 0.27119 0.0
C2053 C 0.74647 0.92166 0.25616 0.0
C2054 C 0.71224 0.92213 0.28542 0.0
C2055 C 0.74291 0.88965 0.2873 0.0
C2056 C 0.73726 0.86631 0.28226 0.0
C2057 C 0.74824 0.84746 0.29382 0.0
C2058 C 0.76596 0.85253 0.31045 0.0
C2059 C 0.77279 0.87623 0.31525 0.0
C2060 C 0.76064 0.89504 0.30392 0.0
H2061 H 0.1352 0.72646 0.1911 0.0
H2062 H 0.10941 0.66641 0.23189 0.0
H2063 H 0.11187 0.69018 0.26839 0.0
H2064 H 0.17633 0.74868 0.23505 0.0
H2065 H 0.17013 0.77948 0.22904 0.0
H2066 H 0.16691 0.7577 0.20588 0.0
H2067 H 0.1234 0.77096 0.19928 0.0
H2068 H 0.12652 0.79284 0.22234 0.0
H2069 H 0.1031 0.77114 0.22397 0.0
H2070 H 0.1177 0.7198 0.30061 0.0
H2071 H 0.12383 0.75416 0.32635 0.0
H2072 H 0.14405 0.79633 0.26497 0.0
C2073 C 0.13006 0.71833 0.20771 0.0
C2074 C 0.12209 0.6945 0.20855 0.0
C2075 C 0.11547 0.6846 0.23068 0.0
C2076 C 0.1169 0.69794 0.25159 0.0
C2077 C 0.12485 0.72128 0.25018 0.0
C2078 C 0.13115 0.73152 0.22884 0.0
C2079 C 0.13846 0.75723 0.23236 0.0
C2080 C 0.16451 0.76098 0.22515 0.0
C2081 C 0.12188 0.77403 0.21868 0.0
C2082 C 0.13519 0.75978 0.25898 0.0
C2083 C 0.12755 0.73873 0.26885 0.0
C2084 C 0.12347 0.73648 0.29306 0.0
C2085 C 0.12692 0.75634 0.3076 0.0
C2086 C 0.13413 0.77851 0.29801 0.0
C2087 C 0.13853 0.77996 0.27323 0.0
H2088 H 0.3163 0.88243 0.7561 0.0
H2089 H 0.29218 0.82085 0.79555 0.0
H2090 H 0.26033 0.81461 0.76607 0.0
H2091 H 0.26001 0.90444 0.743 0.0
H2092 H 0.26749 0.91516 0.71384 0.0
H2093 H 0.29005 0.91309 0.7363 0.0
H2094 H 0.31551 0.88658 0.70868 0.0
H2095 H 0.29306 0.88867 0.68604 0.0
H2096 H 0.30282 0.85998 0.69628 0.0
H2097 H 0.22957 0.81686 0.73399 0.0
H2098 H 0.20178 0.82748 0.70204 0.0
H2099 H 0.24521 0.88855 0.6844 0.0
C2100 C 0.30469 0.86729 0.75827 0.0
C2101 C 0.30683 0.85199 0.778 0.0
C2102 C 0.29091 0.83272 0.7805 0.0
C2103 C 0.27281 0.82901 0.76382 0.0
C2104 C 0.27091 0.84475 0.74484 0.0
C2105 C 0.28644 0.86348 0.74196 0.0
C2106 C 0.27951 0.87887 0.72105 0.0
C2107 C 0.27393 0.90439 0.72904 0.0
C2108 C 0.29888 0.87849 0.70188 0.0
C2109 C 0.25738 0.86612 0.71283 0.0
C2110 C 0.25287 0.84637 0.72664 0.0
C2111 C 0.23298 0.83224 0.72301 0.0
C2112 C 0.21716 0.83857 0.70493 0.0
C2113 C 0.22118 0.859 0.69078 0.0
C2114 C 0.24177 0.87272 0.69469 0.0
H2115 H 0.19235 0.27665 0.80895 0.0
H2116 H 0.13126 0.32356 0.8085 0.0
H2117 H 0.11448 0.30132 0.77466 0.0
H2118 H 0.19774 0.26893 0.74634 0.0
H2119 H 0.20553 0.23795 0.7482 0.0
H2120 H 0.21275 0.25767 0.77223 0.0
H2121 H 0.19007 0.23045 0.80141 0.0
H2122 H 0.18277 0.21068 0.77742 0.0
H2123 H 0.15951 0.22305 0.79554 0.0
H2124 H 0.10562 0.27543 0.73929 0.0
H2125 H 0.10384 0.24554 0.70702 0.0
H2126 H 0.16913 0.21408 0.73254 0.0
C2127 C 0.17547 0.28226 0.80168 0.0
C2128 C 0.16317 0.30192 0.81116 0.0
C2129 C 0.14096 0.30853 0.80145 0.0
C2130 C 0.13132 0.29605 0.78222 0.0
C2131 C 0.14394 0.27679 0.77321 0.0
C2132 C 0.16539 0.26973 0.78279 0.0
C2133 C 0.17512 0.24809 0.77018 0.0
C2134 C 0.1992 0.2535 0.75854 0.0
C2135 C 0.17696 0.22681 0.78715 0.0
C2136 C 0.15594 0.24431 0.75178 0.0
C2137 C 0.13821 0.26116 0.75367 0.0
C2138 C 0.11923 0.26196 0.73782 0.0
C2139 C 0.11837 0.24506 0.71956 0.0
C2140 C 0.13614 0.22746 0.71763 0.0
C2141 C 0.15506 0.22708 0.73402 0.0
H2142 H 0.70079 0.11508 0.77568 0.0
H2143 H 0.73427 0.1736 0.81295 0.0
H2144 H 0.76359 0.17723 0.78059 0.0
H2145 H 0.75314 0.08806 0.7564 0.0
H2146 H 0.74166 0.07888 0.72803 0.0
H2147 H 0.72185 0.0825 0.75278 0.0
H2148 H 0.69639 0.11199 0.72838 0.0
H2149 H 0.71611 0.10843 0.70349 0.0
H2150 H 0.71025 0.13761 0.7152 0.0
H2151 H 0.79079 0.17255 0.74593 0.0
H2152 H 0.81451 0.15972 0.71159 0.0
H2153 H 0.76373 0.10382 0.69699 0.0
C2154 C 0.71403 0.12894 0.7769 0.0
C2155 C 0.71521 0.14412 0.79682 0.0
C2156 C 0.73303 0.16179 0.79785 0.0
C2157 C 0.74969 0.16403 0.77953 0.0
C2158 C 0.74822 0.14852 0.76032 0.0
C2159 C 0.73082 0.13136 0.75885 0.0
C2160 C 0.73404 0.11594 0.73707 0.0
C2161 C 0.73791 0.0898 0.744 0.0
C2162 C 0.71294 0.11867 0.72003 0.0
C2163 C 0.75634 0.12675 0.72677 0.0
C2164 C 0.76406 0.14568 0.74036 0.0
C2165 C 0.78484 0.15786 0.7351 0.0
C2166 C 0.79828 0.15031 0.71567 0.0
C2167 C 0.79101 0.13064 0.70176 0.0
C2168 C 0.76952 0.11903 0.70717 0.0
H2169 H 0.81818 0.68879 0.80446 0.0
H2170 H 0.88986 0.69997 0.83035 0.0
H2171 H 0.8971 0.72828 0.79768 0.0
H2172 H 0.83189 0.69061 0.74269 0.0
H2173 H 0.80506 0.70604 0.73465 0.0
H2174 H 0.80544 0.687 0.76028 0.0
H2175 H 0.79081 0.72179 0.78647 0.0
H2176 H 0.79034 0.741 0.76097 0.0
H2177 H 0.80721 0.74922 0.78684 0.0
H2178 H 0.8966 0.75498 0.76184 0.0
H2179 H 0.88839 0.77821 0.72565 0.0
H2180 H 0.81696 0.74967 0.72355 0.0
C2181 C 0.83543 0.69715 0.8033 0.0
C2182 C 0.85348 0.6921 0.81995 0.0
C2183 C 0.87575 0.70356 0.81782 0.0
C2184 C 0.88004 0.71965 0.79932 0.0
C2185 C 0.86186 0.72413 0.78317 0.0
C2186 C 0.83999 0.71325 0.78502 0.0
C2187 C 0.82344 0.72108 0.76537 0.0
C2188 C 0.81603 0.69992 0.74983 0.0
C2189 C 0.80167 0.73405 0.77552 0.0
C2190 C 0.83951 0.73791 0.752 0.0
C2191 C 0.86155 0.7395 0.7626 0.0
C2192 C 0.87937 0.75395 0.75344 0.0
C2193 C 0.8745 0.76716 0.73295 0.0
C2194 C 0.85202 0.76581 0.72176 0.0
C2195 C 0.83438 0.7509 0.73149 0.0
H2196 H 0.28551 0.25318 0.11584 0.0
H2197 H 0.25226 0.19413 0.15248 0.0
H2198 H 0.21578 0.21748 0.15707 0.0
H2199 H 0.26108 0.29841 0.15267 0.0
H2200 H 0.25701 0.31941 0.12892 0.0
H2201 H 0.28021 0.29751 0.12707 0.0
H2202 H 0.26338 0.28293 0.08688 0.0
H2203 H 0.24012 0.3048 0.08861 0.0
H2204 H 0.23277 0.27389 0.085 0.0
H2205 H 0.18311 0.24766 0.15909 0.0
H2206 H 0.15699 0.28286 0.15867 0.0
H2207 H 0.21161 0.32264 0.12169 0.0
C2208 C 0.27057 0.24511 0.12475 0.0
C2209 C 0.27184 0.22161 0.13344 0.0
C2210 C 0.25174 0.21181 0.14504 0.0
C2211 C 0.23088 0.22502 0.14794 0.0
C2212 C 0.23027 0.24809 0.1392 0.0
C2213 C 0.24956 0.25809 0.12785 0.0
C2214 C 0.24447 0.28353 0.1208 0.0
C2215 C 0.26172 0.30072 0.13311 0.0
C2216 C 0.24523 0.28645 0.09371 0.0
C2217 C 0.21945 0.28631 0.13022 0.0
C2218 C 0.21153 0.26561 0.14064 0.0
C2219 C 0.18907 0.26396 0.15088 0.0
C2220 C 0.17435 0.28405 0.15054 0.0
C2221 C 0.18219 0.30554 0.14014 0.0
C2222 C 0.20503 0.30652 0.12978 0.0
H2223 H 0.22009 0.71736 0.81367 0.0
H2224 H 0.20902 0.69019 0.88481 0.0
H2225 H 0.24583 0.71009 0.89799 0.0
H2226 H 0.28419 0.71236 0.81299 0.0
H2227 H 0.28817 0.73955 0.79664 0.0
H2228 H 0.26159 0.72226 0.79265 0.0
H2229 H 0.23591 0.75891 0.80337 0.0
H2230 H 0.26239 0.77631 0.80718 0.0
H2231 H 0.24114 0.77418 0.83096 0.0
H2232 H 0.28378 0.7343 0.90355 0.0
H2233 H 0.31733 0.76268 0.90134 0.0
H2234 H 0.30311 0.77331 0.82662 0.0
C2235 C 0.22543 0.71542 0.832 0.0
C2236 C 0.21165 0.7021 0.84816 0.0
C2237 C 0.21924 0.70029 0.87206 0.0
C2238 C 0.2402 0.71145 0.87971 0.0
C2239 C 0.2534 0.72438 0.86326 0.0
C2240 C 0.24619 0.7265 0.83993 0.0
C2241 C 0.26285 0.74222 0.82595 0.0
C2242 C 0.27491 0.72826 0.80587 0.0
C2243 C 0.24979 0.7642 0.81631 0.0
C2244 C 0.28044 0.74887 0.84509 0.0
C2245 C 0.27491 0.73827 0.86646 0.0
C2246 C 0.28834 0.74254 0.88683 0.0
C2247 C 0.30749 0.75852 0.88541 0.0
C2248 C 0.31285 0.77015 0.86381 0.0
C2249 C 0.2994 0.76472 0.84338 0.0
H2250 H 0.27514 0.18727 0.86076 0.0
H2251 H 0.34394 0.20944 0.88722 0.0
H2252 H 0.32795 0.24955 0.89494 0.0
H2253 H 0.26177 0.24177 0.83064 0.0
H2254 H 0.23055 0.2408 0.83742 0.0
H2255 H 0.24718 0.21364 0.83484 0.0
H2256 H 0.23368 0.2013 0.87699 0.0
H2257 H 0.21707 0.22848 0.87973 0.0
H2258 H 0.23912 0.22095 0.90161 0.0
H2259 H 0.30446 0.28725 0.89974 0.0
H2260 H 0.27579 0.32033 0.89958 0.0
H2261 H 0.22274 0.27399 0.8685 0.0
C2262 C 0.2868 0.20051 0.86836 0.0
C2263 C 0.31076 0.19518 0.87357 0.0
C2264 C 0.32553 0.21311 0.88312 0.0
C2265 C 0.31659 0.23592 0.88762 0.0
C2266 C 0.2929 0.24059 0.88228 0.0
C2267 C 0.27824 0.22344 0.87269 0.0
C2268 C 0.2537 0.2333 0.86774 0.0
C2269 C 0.24797 0.23232 0.84108 0.0
C2270 C 0.23478 0.22023 0.8824 0.0
C2271 C 0.25681 0.25864 0.87618 0.0
C2272 C 0.27951 0.26244 0.88458 0.0
C2273 C 0.28665 0.2845 0.89314 0.0
C2274 C 0.27024 0.30323 0.89288 0.0
C2275 C 0.24694 0.2999 0.88403 0.0
C2276 C 0.24022 0.27715 0.87574 0.0
H2277 H 0.7234 0.22918 0.83484 0.0
H2278 H 0.70581 0.24765 0.90725 0.0
H2279 H 0.73955 0.27582 0.90822 0.0
H2280 H 0.78523 0.2299 0.8408 0.0
H2281 H 0.79116 0.2429 0.81222 0.0
H2282 H 0.76472 0.22558 0.81667 0.0
H2283 H 0.73887 0.26083 0.80246 0.0
H2284 H 0.76526 0.27821 0.79772 0.0
H2285 H 0.74196 0.28936 0.81657 0.0
H2286 H 0.77812 0.2982 0.90262 0.0
H2287 H 0.81557 0.31693 0.88942 0.0
H2288 H 0.80645 0.28598 0.81966 0.0
C2289 C 0.72647 0.2395 0.85073 0.0
C2290 C 0.71201 0.23635 0.87097 0.0
C2291 C 0.71649 0.25007 0.89149 0.0
C2292 C 0.7357 0.26596 0.89222 0.0
C2293 C 0.74998 0.26821 0.87213 0.0
C2294 C 0.74528 0.2557 0.85159 0.0
C2295 C 0.76345 0.26111 0.83252 0.0
C2296 C 0.77693 0.23853 0.82513 0.0
C2297 C 0.75168 0.2731 0.81105 0.0
C2298 C 0.77946 0.27822 0.84568 0.0
C2299 C 0.7715 0.28194 0.86857 0.0
C2300 C 0.78426 0.29577 0.88461 0.0
C2301 C 0.80555 0.30622 0.87701 0.0
C2302 C 0.8137 0.30311 0.85346 0.0
C2303 C 0.80038 0.28901 0.83762 0.0
H2304 H 0.70504 0.77627 0.83516 0.0
H2305 H 0.71718 0.81948 0.89767 0.0
H2306 H 0.74672 0.79053 0.91195 0.0
H2307 H 0.70852 0.72015 0.86568 0.0
H2308 H 0.72298 0.70497 0.84155 0.0
H2309 H 0.70353 0.72962 0.83557 0.0
H2310 H 0.73734 0.75082 0.81269 0.0
H2311 H 0.75681 0.72618 0.81865 0.0
H2312 H 0.76541 0.75576 0.82718 0.0
H2313 H 0.77637 0.75777 0.91872 0.0
H2314 H 0.80053 0.72092 0.91961 0.0
H2315 H 0.76691 0.69727 0.85483 0.0
C2316 C 0.71397 0.77964 0.85181 0.0
C2317 C 0.70886 0.80023 0.86522 0.0
C2318 C 0.72072 0.80383 0.88709 0.0
C2319 C 0.73765 0.78755 0.89531 0.0
C2320 C 0.74234 0.7675 0.88167 0.0
C2321 C 0.73063 0.76328 0.86055 0.0
C2322 C 0.73821 0.73972 0.84992 0.0
C2323 C 0.71705 0.72261 0.84808 0.0
C2324 C 0.75015 0.74336 0.82568 0.0
C2325 C 0.75596 0.73142 0.86836 0.0
C2326 C 0.7584 0.74791 0.88631 0.0
C2327 C 0.77443 0.74462 0.90489 0.0
C2328 C 0.7881 0.72377 0.90526 0.0
C2329 C 0.78526 0.70634 0.8875 0.0
C2330 C 0.76905 0.71027 0.8688 0.0
H2331 H 0.68841 0.75576 0.13029 0.0
H2332 H 0.69639 0.78919 0.19899 0.0
H2333 H 0.72715 0.75997 0.20975 0.0
H2334 H 0.69996 0.69319 0.15101 0.0
H2335 H 0.71603 0.68603 0.12433 0.0
H2336 H 0.69215 0.7073 0.1234 0.0
H2337 H 0.72061 0.73827 0.10494 0.0
H2338 H 0.74461 0.71727 0.10607 0.0
H2339 H 0.74768 0.74577 0.12023 0.0
H2340 H 0.76104 0.73167 0.21066 0.0
H2341 H 0.79385 0.70361 0.20284 0.0
H2342 H 0.76322 0.68712 0.13425 0.0
C2343 C 0.69602 0.75631 0.14789 0.0
C2344 C 0.69003 0.77467 0.16385 0.0
C2345 C 0.70084 0.77529 0.1865 0.0
C2346 C 0.71826 0.75874 0.19279 0.0
C2347 C 0.72452 0.74146 0.17633 0.0
C2348 C 0.7135 0.73984 0.15447 0.0
C2349 C 0.72489 0.7207 0.13939 0.0
C2350 C 0.7072 0.70061 0.13423 0.0
C2351 C 0.73505 0.73114 0.1163 0.0
C2352 C 0.74447 0.71244 0.15587 0.0
C2353 C 0.74387 0.72459 0.17712 0.0
C2354 C 0.76139 0.72161 0.19433 0.0
C2355 C 0.78001 0.70577 0.18969 0.0
C2356 C 0.78086 0.69301 0.16811 0.0
C2357 C 0.76269 0.69623 0.15115 0.0
H2358 H 0.24687 0.69867 0.12466 0.0
H2359 H 0.19874 0.72893 0.17653 0.0
H2360 H 0.22653 0.76221 0.18279 0.0
H2361 H 0.30237 0.7158 0.15454 0.0
H2362 H 0.31719 0.72216 0.12696 0.0
H2363 H 0.29442 0.69976 0.12807 0.0
H2364 H 0.27145 0.72134 0.09461 0.0
H2365 H 0.29411 0.74376 0.09339 0.0
H2366 H 0.26364 0.75216 0.09827 0.0
H2367 H 0.25816 0.79363 0.18114 0.0
H2368 H 0.29069 0.82114 0.17115 0.0
H2369 H 0.31853 0.7699 0.12087 0.0
C2370 C 0.24239 0.71198 0.13774 0.0
C2371 C 0.22062 0.71113 0.15015 0.0
C2372 C 0.21519 0.7293 0.16665 0.0
C2373 C 0.23096 0.74817 0.17047 0.0
C2374 C 0.25215 0.74857 0.15773 0.0
C2375 C 0.2579 0.73092 0.14173 0.0
C2376 C 0.28106 0.73624 0.12922 0.0
C2377 C 0.29987 0.71736 0.13506 0.0
C2378 C 0.27733 0.73852 0.10228 0.0
C2379 C 0.28722 0.75991 0.1403 0.0
C2380 C 0.27043 0.76661 0.15686 0.0
C2381 C 0.27156 0.78842 0.16842 0.0
C2382 C 0.29009 0.80395 0.16259 0.0
C2383 C 0.30724 0.79762 0.14532 0.0
C2384 C 0.30596 0.7751 0.13443 0.0
H2385 H 0.69537 0.22488 0.18339 0.0
H2386 H 0.66162 0.21525 0.11499 0.0
H2387 H 0.6802 0.25215 0.10049 0.0
H2388 H 0.69352 0.29002 0.18523 0.0
H2389 H 0.72268 0.29247 0.19813 0.0
H2390 H 0.70466 0.26676 0.20416 0.0
H2391 H 0.73838 0.23939 0.18903 0.0
H2392 H 0.75647 0.26502 0.1832 0.0
H2393 H 0.75043 0.24409 0.15981 0.0
H2394 H 0.70364 0.28923 0.09275 0.0
H2395 H 0.73401 0.32118 0.09122 0.0
H2396 H 0.75411 0.30541 0.16347 0.0
C2397 C 0.69165 0.23081 0.16551 0.0
C2398 C 0.6769 0.21743 0.15036 0.0
C2399 C 0.67287 0.22532 0.12686 0.0
C2400 C 0.68319 0.24633 0.11853 0.0
C2401 C 0.69776 0.25912 0.13381 0.0
C2402 C 0.70228 0.25152 0.1567 0.0
C2403 C 0.72043 0.2673 0.16869 0.0
C2404 C 0.70967 0.27988 0.19033 0.0
C2405 C 0.74275 0.2531 0.17557 0.0
C2406 C 0.72555 0.28472 0.14887 0.0
C2407 C 0.71196 0.28001 0.12905 0.0
C2408 C 0.71423 0.29325 0.10824 0.0
C2409 C 0.73131 0.31138 0.1075 0.0
C2410 C 0.74592 0.31578 0.12731 0.0
C2411 C 0.74274 0.30254 0.1483 0.0
loop_
_geom_bond_atom_site_label_1
_geom_bond_atom_site_label_2
_geom_bond_distance
_geom_bond_site_symmetry_2
_ccdc_geom_bond_type
Co0 N4 2.148 . S
Co0 N10 2.128 . S
Co0 N20 2.194 . S
Co0 O25 2.351 . S
Co0 O26 2.155 . S
Co0 O27 2.096 . S
C1 N4 1.301 . S
C1 N5 1.328 . S
C1 H6 0.930 . S
C2 C3 1.333 . S
C2 N4 1.317 . S
C2 H7 0.930 . S
C3 C2 1.333 . S
C3 N5 1.350 . S
C3 H29 0.931 . S
N4 Co0 2.148 . S
N4 C1 1.301 . S
N4 C2 1.317 . S
N5 C1 1.328 . S
N5 C3 1.350 . S
H6 C1 0.930 . S
H7 C2 0.930 . S
C8 O9 1.224 . S
C8 O27 1.247 . S
O9 C8 1.224 . S
N10 Co0 2.128 . S
N10 C11 1.355 . S
N10 C13 1.311 . S
C11 N10 1.355 . S
C11 C12 1.363 . S
C11 H23 0.929 . S
C12 C11 1.363 . S
C12 N14 1.375 . S
C12 H30 0.931 . S
C13 N10 1.311 . S
C13 N14 1.347 . S
C13 H24 0.929 . S
N14 C12 1.375 . S
N14 C13 1.347 . S
C15 C18 1.365 . S
C15 N20 1.328 . S
C15 H21 0.929 . S
C16 C17 1.362 . S
C16 C19 1.378 . S
C16 H31 0.929 . S
C17 C16 1.362 . S
C17 C18 1.366 . S
C18 C15 1.365 . S
C18 C17 1.366 . S
C18 H32 0.930 . S
C19 C16 1.378 . S
C19 N20 1.315 . S
C19 H22 0.930 . S
N20 Co0 2.194 . S
N20 C15 1.328 . S
N20 C19 1.315 . S
H21 C15 0.929 . S
H22 C19 0.930 . S
H23 C11 0.929 . S
H24 C13 0.929 . S
O25 Co0 2.351 . S
O25 C28 1.244 . S
O26 Co0 2.155 . S
O26 C28 1.240 . S
O27 Co0 2.096 . S
O27 C8 1.247 . S
C28 O25 1.244 . S
C28 O26 1.240 . S
H29 C3 0.931 . S
H30 C12 0.931 . S
H31 C16 0.929 . S
H32 C18 0.930 . S
Co33 N37 2.148 . S
Co33 N43 2.128 . S
Co33 N53 2.194 . S
Co33 O58 2.351 . S
Co33 O59 2.155 . S
Co33 O60 2.096 . S
C34 N37 1.301 . S
C34 N38 1.328 . S
C34 H39 0.930 . S
C35 C36 1.333 . S
C35 N37 1.317 . S
C35 H40 0.930 . S
C36 C35 1.333 . S
C36 N38 1.350 . S
C36 H62 0.931 . S
N37 Co33 2.148 . S
N37 C34 1.301 . S
N37 C35 1.317 . S
N38 C34 1.328 . S
N38 C36 1.350 . S
H39 C34 0.930 . S
H40 C35 0.930 . S
C41 O42 1.224 . S
C41 O60 1.247 . S
O42 C41 1.224 . S
N43 Co33 2.128 . S
N43 C44 1.355 . S
N43 C46 1.311 . S
C44 N43 1.355 . S
C44 C45 1.363 . S
C44 H56 0.929 . S
C45 C44 1.363 . S
C45 N47 1.375 . S
C45 H63 0.931 . S
C46 N43 1.311 . S
C46 N47 1.347 . S
C46 H57 0.929 . S
N47 C45 1.375 . S
N47 C46 1.347 . S
C48 C51 1.365 . S
C48 N53 1.328 . S
C48 H54 0.929 . S
C49 C50 1.362 . S
C49 C52 1.378 . S
C49 H64 0.929 . S
C50 C49 1.362 . S
C50 C51 1.366 . S
C51 C48 1.365 . S
C51 C50 1.366 . S
C51 H65 0.930 . S
C52 C49 1.378 . S
C52 N53 1.315 . S
C52 H55 0.930 . S
N53 Co33 2.194 . S
N53 C48 1.328 . S
N53 C52 1.315 . S
H54 C48 0.929 . S
H55 C52 0.930 . S
H56 C44 0.929 . S
H57 C46 0.929 . S
O58 Co33 2.351 . S
O58 C61 1.244 . S
O59 Co33 2.155 . S
O59 C61 1.240 . S
O60 Co33 2.096 . S
O60 C41 1.247 . S
C61 O58 1.244 . S
C61 O59 1.240 . S
H62 C36 0.931 . S
H63 C45 0.931 . S
H64 C49 0.929 . S
H65 C51 0.930 . S
Co66 N70 2.148 . S
Co66 N76 2.128 . S
Co66 N86 2.194 . S
Co66 O91 2.351 . S
Co66 O92 2.155 . S
Co66 O93 2.096 . S
C67 N70 1.301 . S
C67 N71 1.328 . S
C67 H72 0.930 . S
C68 C69 1.333 . S
C68 N70 1.317 . S
C68 H73 0.930 . S
C69 C68 1.333 . S
C69 N71 1.350 . S
C69 H95 0.931 . S
N70 Co66 2.148 . S
N70 C67 1.301 . S
N70 C68 1.317 . S
N71 C67 1.328 . S
N71 C69 1.350 . S
H72 C67 0.930 . S
H73 C68 0.930 . S
C74 O75 1.224 . S
C74 O93 1.247 . S
O75 C74 1.224 . S
N76 Co66 2.128 . S
N76 C77 1.355 . S
N76 C79 1.311 . S
C77 N76 1.355 . S
C77 C78 1.363 . S
C77 H89 0.929 . S
C78 C77 1.363 . S
C78 N80 1.375 . S
C78 H96 0.931 . S
C79 N76 1.311 . S
C79 N80 1.347 . S
C79 H90 0.929 . S
N80 C78 1.375 . S
N80 C79 1.347 . S
C81 C84 1.365 . S
C81 N86 1.328 . S
C81 H87 0.929 . S
C82 C83 1.362 . S
C82 C85 1.378 . S
C82 H97 0.929 . S
C83 C82 1.362 . S
C83 C84 1.366 . S
C84 C81 1.365 . S
C84 C83 1.366 . S
C84 H98 0.930 . S
C85 C82 1.378 . S
C85 N86 1.315 . S
C85 H88 0.930 . S
N86 Co66 2.194 . S
N86 C81 1.328 . S
N86 C85 1.315 . S
H87 C81 0.929 . S
H88 C85 0.930 . S
H89 C77 0.929 . S
H90 C79 0.929 . S
O91 Co66 2.351 . S
O91 C94 1.244 . S
O92 Co66 2.155 . S
O92 C94 1.240 . S
O93 Co66 2.096 . S
O93 C74 1.247 . S
C94 O91 1.244 . S
C94 O92 1.240 . S
H95 C69 0.931 . S
H96 C78 0.931 . S
H97 C82 0.929 . S
H98 C84 0.930 . S
Co99 N103 2.148 . S
Co99 N109 2.128 . S
Co99 N119 2.194 . S
Co99 O124 2.351 . S
Co99 O125 2.155 . S
Co99 O126 2.096 . S
C100 N103 1.301 . S
C100 N104 1.328 . S
C100 H105 0.930 . S
C101 C102 1.333 . S
C101 N103 1.317 . S
C101 H106 0.930 . S
C102 C101 1.333 . S
C102 N104 1.350 . S
C102 H128 0.931 . S
N103 Co99 2.148 . S
N103 C100 1.301 . S
N103 C101 1.317 . S
N104 C100 1.328 . S
N104 C102 1.350 . S
H105 C100 0.930 . S
H106 C101 0.930 . S
C107 O108 1.224 . S
C107 O126 1.247 . S
O108 C107 1.224 . S
N109 Co99 2.128 . S
N109 C110 1.355 . S
N109 C112 1.311 . S
C110 N109 1.355 . S
C110 C111 1.363 . S
C110 H122 0.929 . S
C111 C110 1.363 . S
C111 N113 1.375 . S
C111 H129 0.931 . S
C112 N109 1.311 . S
C112 N113 1.347 . S
C112 H123 0.929 . S
N113 C111 1.375 . S
N113 C112 1.347 . S
C114 C117 1.365 . S
C114 N119 1.328 . S
C114 H120 0.929 . S
C115 C116 1.362 . S
C115 C118 1.378 . S
C115 H130 0.929 . S
C116 C115 1.362 . S
C116 C117 1.366 . S
C117 C114 1.365 . S
C117 C116 1.366 . S
C117 H131 0.930 . S
C118 C115 1.378 . S
C118 N119 1.315 . S
C118 H121 0.930 . S
N119 Co99 2.194 . S
N119 C114 1.328 . S
N119 C118 1.315 . S
H120 C114 0.929 . S
H121 C118 0.930 . S
H122 C110 0.929 . S
H123 C112 0.929 . S
O124 Co99 2.351 . S
O124 C127 1.244 . S
O125 Co99 2.155 . S
O125 C127 1.240 . S
O126 Co99 2.096 . S
O126 C107 1.247 . S
C127 O124 1.244 . S
C127 O125 1.240 . S
H128 C102 0.931 . S
H129 C111 0.931 . S
H130 C115 0.929 . S
H131 C117 0.930 . S
Co132 N136 2.148 . S
Co132 N142 2.128 . S
Co132 N152 2.194 . S
Co132 O157 2.351 . S
Co132 O158 2.155 . S
Co132 O159 2.096 . S
C133 N136 1.301 . S
C133 N137 1.328 . S
C133 H138 0.930 . S
C134 C135 1.333 . S
C134 N136 1.317 . S
C134 H139 0.930 . S
C135 C134 1.333 . S
C135 N137 1.350 . S
C135 H161 0.931 . S
N136 Co132 2.148 . S
N136 C133 1.301 . S
N136 C134 1.317 . S
N137 C133 1.328 . S
N137 C135 1.350 . S
H138 C133 0.930 . S
H139 C134 0.930 . S
C140 O141 1.224 . S
C140 O159 1.247 . S
O141 C140 1.224 . S
N142 Co132 2.128 . S
N142 C143 1.355 . S
N142 C145 1.311 . S
C143 N142 1.355 . S
C143 C144 1.363 . S
C143 H155 0.929 . S
C144 C143 1.363 . S
C144 N146 1.375 . S
C144 H162 0.931 . S
C145 N142 1.311 . S
C145 N146 1.347 . S
C145 H156 0.929 . S
N146 C144 1.375 . S
N146 C145 1.347 . S
C147 C150 1.365 . S
C147 N152 1.328 . S
C147 H153 0.929 . S
C148 C149 1.362 . S
C148 C151 1.378 . S
C148 H163 0.929 . S
C149 C148 1.362 . S
C149 C150 1.366 . S
C150 C147 1.365 . S
C150 C149 1.366 . S
C150 H164 0.930 . S
C151 C148 1.378 . S
C151 N152 1.315 . S
C151 H154 0.930 . S
N152 Co132 2.194 . S
N152 C147 1.328 . S
N152 C151 1.315 . S
H153 C147 0.929 . S
H154 C151 0.930 . S
H155 C143 0.929 . S
H156 C145 0.929 . S
O157 Co132 2.351 . S
O157 C160 1.244 . S
O158 Co132 2.155 . S
O158 C160 1.240 . S
O159 Co132 2.096 . S
O159 C140 1.247 . S
C160 O157 1.244 . S
C160 O158 1.240 . S
H161 C135 0.931 . S
H162 C144 0.931 . S
H163 C148 0.929 . S
H164 C150 0.930 . S
Co165 N169 2.148 . S
Co165 N175 2.128 . S
Co165 N185 2.194 . S
Co165 O190 2.351 . S
Co165 O191 2.155 . S
Co165 O192 2.096 . S
C166 N169 1.301 . S
C166 N170 1.328 . S
C166 H171 0.930 . S
C167 C168 1.333 . S
C167 N169 1.317 . S
C167 H172 0.930 . S
C168 C167 1.333 . S
C168 N170 1.350 . S
C168 H194 0.931 . S
N169 Co165 2.148 . S
N169 C166 1.301 . S
N169 C167 1.317 . S
N170 C166 1.328 . S
N170 C168 1.350 . S
H171 C166 0.930 . S
H172 C167 0.930 . S
C173 O174 1.224 . S
C173 O192 1.247 . S
O174 C173 1.224 . S
N175 Co165 2.128 . S
N175 C176 1.355 . S
N175 C178 1.311 . S
C176 N175 1.355 . S
C176 C177 1.363 . S
C176 H188 0.929 . S
C177 C176 1.363 . S
C177 N179 1.375 . S
C177 H195 0.931 . S
C178 N175 1.311 . S
C178 N179 1.347 . S
C178 H189 0.929 . S
N179 C177 1.375 . S
N179 C178 1.347 . S
C180 C183 1.365 . S
C180 N185 1.328 . S
C180 H186 0.929 . S
C181 C182 1.362 . S
C181 C184 1.378 . S
C181 H196 0.929 . S
C182 C181 1.362 . S
C182 C183 1.366 . S
C183 C180 1.365 . S
C183 C182 1.366 . S
C183 H197 0.930 . S
C184 C181 1.378 . S
C184 N185 1.315 . S
C184 H187 0.930 . S
N185 Co165 2.194 . S
N185 C180 1.328 . S
N185 C184 1.315 . S
H186 C180 0.929 . S
H187 C184 0.930 . S
H188 C176 0.929 . S
H189 C178 0.929 . S
O190 Co165 2.351 . S
O190 C193 1.244 . S
O191 Co165 2.155 . S
O191 C193 1.240 . S
O192 Co165 2.096 . S
O192 C173 1.247 . S
C193 O190 1.244 . S
C193 O191 1.240 . S
H194 C168 0.931 . S
H195 C177 0.931 . S
H196 C181 0.929 . S
H197 C183 0.930 . S
Co198 N202 2.148 . S
Co198 N208 2.128 . S
Co198 N218 2.194 . S
Co198 O223 2.351 . S
Co198 O224 2.155 . S
Co198 O225 2.096 . S
C199 N202 1.301 . S
C199 N203 1.328 . S
C199 H204 0.930 . S
C200 C201 1.333 . S
C200 N202 1.317 . S
C200 H205 0.930 . S
C201 C200 1.333 . S
C201 N203 1.350 . S
C201 H227 0.931 . S
N202 Co198 2.148 . S
N202 C199 1.301 . S
N202 C200 1.317 . S
N203 C199 1.328 . S
N203 C201 1.350 . S
H204 C199 0.930 . S
H205 C200 0.930 . S
C206 O207 1.224 . S
C206 O225 1.247 . S
O207 C206 1.224 . S
N208 Co198 2.128 . S
N208 C209 1.355 . S
N208 C211 1.311 . S
C209 N208 1.355 . S
C209 C210 1.363 . S
C209 H221 0.929 . S
C210 C209 1.363 . S
C210 N212 1.375 . S
C210 H228 0.931 . S
C211 N208 1.311 . S
C211 N212 1.347 . S
C211 H222 0.929 . S
N212 C210 1.375 . S
N212 C211 1.347 . S
C213 C216 1.365 . S
C213 N218 1.328 . S
C213 H219 0.929 . S
C214 C215 1.362 . S
C214 C217 1.378 . S
C214 H229 0.929 . S
C215 C214 1.362 . S
C215 C216 1.366 . S
C216 C213 1.365 . S
C216 C215 1.366 . S
C216 H230 0.930 . S
C217 C214 1.378 . S
C217 N218 1.315 . S
C217 H220 0.930 . S
N218 Co198 2.194 . S
N218 C213 1.328 . S
N218 C217 1.315 . S
H219 C213 0.929 . S
H220 C217 0.930 . S
H221 C209 0.929 . S
H222 C211 0.929 . S
O223 Co198 2.351 . S
O223 C226 1.244 . S
O224 Co198 2.155 . S
O224 C226 1.240 . S
O225 Co198 2.096 . S
O225 C206 1.247 . S
C226 O223 1.244 . S
C226 O224 1.240 . S
H227 C201 0.931 . S
H228 C210 0.931 . S
H229 C214 0.929 . S
H230 C216 0.930 . S
Co231 N235 2.148 . S
Co231 N241 2.128 . S
Co231 N251 2.194 . S
Co231 O256 2.351 . S
Co231 O257 2.155 . S
Co231 O258 2.096 . S
C232 N235 1.301 . S
C232 N236 1.328 . S
C232 H237 0.930 . S
C233 C234 1.333 . S
C233 N235 1.317 . S
C233 H238 0.930 . S
C234 C233 1.333 . S
C234 N236 1.350 . S
C234 H260 0.931 . S
N235 Co231 2.148 . S
N235 C232 1.301 . S
N235 C233 1.317 . S
N236 C232 1.328 . S
N236 C234 1.350 . S
H237 C232 0.930 . S
H238 C233 0.930 . S
C239 O240 1.224 . S
C239 O258 1.247 . S
O240 C239 1.224 . S
N241 Co231 2.128 . S
N241 C242 1.355 . S
N241 C244 1.311 . S
C242 N241 1.355 . S
C242 C243 1.363 . S
C242 H254 0.929 . S
C243 C242 1.363 . S
C243 N245 1.375 . S
C243 H261 0.931 . S
C244 N241 1.311 . S
C244 N245 1.347 . S
C244 H255 0.929 . S
N245 C243 1.375 . S
N245 C244 1.347 . S
C246 C249 1.365 . S
C246 N251 1.328 . S
C246 H252 0.929 . S
C247 C248 1.362 . S
C247 C250 1.378 . S
C247 H262 0.929 . S
C248 C247 1.362 . S
C248 C249 1.366 . S
C249 C246 1.365 . S
C249 C248 1.366 . S
C249 H263 0.930 . S
C250 C247 1.378 . S
C250 N251 1.315 . S
C250 H253 0.930 . S
N251 Co231 2.194 . S
N251 C246 1.328 . S
N251 C250 1.315 . S
H252 C246 0.929 . S
H253 C250 0.930 . S
H254 C242 0.929 . S
H255 C244 0.929 . S
O256 Co231 2.351 . S
O256 C259 1.244 . S
O257 Co231 2.155 . S
O257 C259 1.240 . S
O258 Co231 2.096 . S
O258 C239 1.247 . S
C259 O256 1.244 . S
C259 O257 1.240 . S
H260 C234 0.931 . S
H261 C243 0.931 . S
H262 C247 0.929 . S
H263 C249 0.930 . S
Co264 N268 2.148 . S
Co264 N274 2.128 . S
Co264 N284 2.194 . S
Co264 O289 2.351 . S
Co264 O290 2.155 . S
Co264 O291 2.096 . S
C265 N268 1.301 . S
C265 N269 1.328 . S
C265 H270 0.930 . S
C266 C267 1.333 . S
C266 N268 1.317 . S
C266 H271 0.930 . S
C267 C266 1.333 . S
C267 N269 1.350 . S
C267 H293 0.931 . S
N268 Co264 2.148 . S
N268 C265 1.301 . S
N268 C266 1.317 . S
N269 C265 1.328 . S
N269 C267 1.350 . S
H270 C265 0.930 . S
H271 C266 0.930 . S
C272 O273 1.224 . S
C272 O291 1.247 . S
O273 C272 1.224 . S
N274 Co264 2.128 . S
N274 C275 1.355 . S
N274 C277 1.311 . S
C275 N274 1.355 . S
C275 C276 1.363 . S
C275 H287 0.929 . S
C276 C275 1.363 . S
C276 N278 1.375 . S
C276 H294 0.931 . S
C277 N274 1.311 . S
C277 N278 1.347 . S
C277 H288 0.929 . S
N278 C276 1.375 . S
N278 C277 1.347 . S
C279 C282 1.365 . S
C279 N284 1.328 . S
C279 H285 0.929 . S
C280 C281 1.362 . S
C280 C283 1.378 . S
C280 H295 0.929 . S
C281 C280 1.362 . S
C281 C282 1.366 . S
C282 C279 1.365 . S
C282 C281 1.366 . S
C282 H296 0.930 . S
C283 C280 1.378 . S
C283 N284 1.315 . S
C283 H286 0.930 . S
N284 Co264 2.194 . S
N284 C279 1.328 . S
N284 C283 1.315 . S
H285 C279 0.929 . S
H286 C283 0.930 . S
H287 C275 0.929 . S
H288 C277 0.929 . S
O289 Co264 2.351 . S
O289 C292 1.244 . S
O290 Co264 2.155 . S
O290 C292 1.240 . S
O291 Co264 2.096 . S
O291 C272 1.247 . S
C292 O289 1.244 . S
C292 O290 1.240 . S
H293 C267 0.931 . S
H294 C276 0.931 . S
H295 C280 0.929 . S
H296 C282 0.930 . S
Co297 N301 2.148 . S
Co297 N307 2.128 . S
Co297 N317 2.194 . S
Co297 O322 2.351 . S
Co297 O323 2.155 . S
Co297 O324 2.096 . S
C298 N301 1.301 . S
C298 N302 1.328 . S
C298 H303 0.930 . S
C299 C300 1.333 . S
C299 N301 1.317 . S
C299 H304 0.930 . S
C300 C299 1.333 . S
C300 N302 1.350 . S
C300 H326 0.931 . S
N301 Co297 2.148 . S
N301 C298 1.301 . S
N301 C299 1.317 . S
N302 C298 1.328 . S
N302 C300 1.350 . S
H303 C298 0.930 . S
H304 C299 0.930 . S
C305 O306 1.224 . S
C305 O324 1.247 . S
O306 C305 1.224 . S
N307 Co297 2.128 . S
N307 C308 1.355 . S
N307 C310 1.311 . S
C308 N307 1.355 . S
C308 C309 1.363 . S
C308 H320 0.929 . S
C309 C308 1.363 . S
C309 N311 1.375 . S
C309 H327 0.931 . S
C310 N307 1.311 . S
C310 N311 1.347 . S
C310 H321 0.929 . S
N311 C309 1.375 . S
N311 C310 1.347 . S
C312 C315 1.365 . S
C312 N317 1.328 . S
C312 H318 0.929 . S
C313 C314 1.362 . S
C313 C316 1.378 . S
C313 H328 0.929 . S
C314 C313 1.362 . S
C314 C315 1.366 . S
C315 C312 1.365 . S
C315 C314 1.366 . S
C315 H329 0.930 . S
C316 C313 1.378 . S
C316 N317 1.315 . S
C316 H319 0.930 . S
N317 Co297 2.194 . S
N317 C312 1.328 . S
N317 C316 1.315 . S
H318 C312 0.929 . S
H319 C316 0.930 . S
H320 C308 0.929 . S
H321 C310 0.929 . S
O322 Co297 2.351 . S
O322 C325 1.244 . S
O323 Co297 2.155 . S
O323 C325 1.240 . S
O324 Co297 2.096 . S
O324 C305 1.247 . S
C325 O322 1.244 . S
C325 O323 1.240 . S
H326 C300 0.931 . S
H327 C309 0.931 . S
H328 C313 0.929 . S
H329 C315 0.930 . S
Co330 N334 2.148 . S
Co330 N340 2.128 . S
Co330 N350 2.194 . S
Co330 O355 2.351 . S
Co330 O356 2.155 . S
Co330 O357 2.096 . S
C331 N334 1.301 . S
C331 N335 1.328 . S
C331 H336 0.930 . S
C332 C333 1.333 . S
C332 N334 1.317 . S
C332 H337 0.930 . S
C333 C332 1.333 . S
C333 N335 1.350 . S
C333 H359 0.931 . S
N334 Co330 2.148 . S
N334 C331 1.301 . S
N334 C332 1.317 . S
N335 C331 1.328 . S
N335 C333 1.350 . S
H336 C331 0.930 . S
H337 C332 0.930 . S
C338 O339 1.224 . S
C338 O357 1.247 . S
O339 C338 1.224 . S
N340 Co330 2.128 . S
N340 C341 1.355 . S
N340 C343 1.311 . S
C341 N340 1.355 . S
C341 C342 1.363 . S
C341 H353 0.929 . S
C342 C341 1.363 . S
C342 N344 1.375 . S
C342 H360 0.931 . S
C343 N340 1.311 . S
C343 N344 1.347 . S
C343 H354 0.929 . S
N344 C342 1.375 . S
N344 C343 1.347 . S
C345 C348 1.365 . S
C345 N350 1.328 . S
C345 H351 0.929 . S
C346 C347 1.362 . S
C346 C349 1.378 . S
C346 H361 0.929 . S
C347 C346 1.362 . S
C347 C348 1.366 . S
C348 C345 1.365 . S
C348 C347 1.366 . S
C348 H362 0.930 . S
C349 C346 1.378 . S
C349 N350 1.315 . S
C349 H352 0.930 . S
N350 Co330 2.194 . S
N350 C345 1.328 . S
N350 C349 1.315 . S
H351 C345 0.929 . S
H352 C349 0.930 . S
H353 C341 0.929 . S
H354 C343 0.929 . S
O355 Co330 2.351 . S
O355 C358 1.244 . S
O356 Co330 2.155 . S
O356 C358 1.240 . S
O357 Co330 2.096 . S
O357 C338 1.247 . S
C358 O355 1.244 . S
C358 O356 1.240 . S
H359 C333 0.931 . S
H360 C342 0.931 . S
H361 C346 0.929 . S
H362 C348 0.930 . S
Co363 N367 2.148 . S
Co363 N373 2.128 . S
Co363 N383 2.194 . S
Co363 O388 2.351 . S
Co363 O389 2.155 . S
Co363 O390 2.096 . S
C364 N367 1.301 . S
C364 N368 1.328 . S
C364 H369 0.930 . S
C365 C366 1.333 . S
C365 N367 1.317 . S
C365 H370 0.930 . S
C366 C365 1.333 . S
C366 N368 1.350 . S
C366 H392 0.931 . S
N367 Co363 2.148 . S
N367 C364 1.301 . S
N367 C365 1.317 . S
N368 C364 1.328 . S
N368 C366 1.350 . S
H369 C364 0.930 . S
H370 C365 0.930 . S
C371 O372 1.224 . S
C371 O390 1.247 . S
O372 C371 1.224 . S
N373 Co363 2.128 . S
N373 C374 1.355 . S
N373 C376 1.311 . S
C374 N373 1.355 . S
C374 C375 1.363 . S
C374 H386 0.929 . S
C375 C374 1.363 . S
C375 N377 1.375 . S
C375 H393 0.931 . S
C376 N373 1.311 . S
C376 N377 1.347 . S
C376 H387 0.929 . S
N377 C375 1.375 . S
N377 C376 1.347 . S
C378 C381 1.365 . S
C378 N383 1.328 . S
C378 H384 0.929 . S
C379 C380 1.362 . S
C379 C382 1.378 . S
C379 H394 0.929 . S
C380 C379 1.362 . S
C380 C381 1.366 . S
C381 C378 1.365 . S
C381 C380 1.366 . S
C381 H395 0.930 . S
C382 C379 1.378 . S
C382 N383 1.315 . S
C382 H385 0.930 . S
N383 Co363 2.194 . S
N383 C378 1.328 . S
N383 C382 1.315 . S
H384 C378 0.929 . S
H385 C382 0.930 . S
H386 C374 0.929 . S
H387 C376 0.929 . S
O388 Co363 2.351 . S
O388 C391 1.244 . S
O389 Co363 2.155 . S
O389 C391 1.240 . S
O390 Co363 2.096 . S
O390 C371 1.247 . S
C391 O388 1.244 . S
C391 O389 1.240 . S
H392 C366 0.931 . S
H393 C375 0.931 . S
H394 C379 0.929 . S
H395 C381 0.930 . S
Co396 N400 2.148 . S
Co396 N406 2.128 . S
Co396 N416 2.194 . S
Co396 O421 2.351 . S
Co396 O422 2.155 . S
Co396 O423 2.096 . S
C397 N400 1.301 . S
C397 N401 1.328 . S
C397 H402 0.930 . S
C398 C399 1.333 . S
C398 N400 1.317 . S
C398 H403 0.930 . S
C399 C398 1.333 . S
C399 N401 1.350 . S
C399 H425 0.931 . S
N400 Co396 2.148 . S
N400 C397 1.301 . S
N400 C398 1.317 . S
N401 C397 1.328 . S
N401 C399 1.350 . S
H402 C397 0.930 . S
H403 C398 0.930 . S
C404 O405 1.224 . S
C404 O423 1.247 . S
O405 C404 1.224 . S
N406 Co396 2.128 . S
N406 C407 1.355 . S
N406 C409 1.311 . S
C407 N406 1.355 . S
C407 C408 1.363 . S
C407 H419 0.929 . S
C408 C407 1.363 . S
C408 N410 1.375 . S
C408 H426 0.931 . S
C409 N406 1.311 . S
C409 N410 1.347 . S
C409 H420 0.929 . S
N410 C408 1.375 . S
N410 C409 1.347 . S
C411 C414 1.365 . S
C411 N416 1.328 . S
C411 H417 0.929 . S
C412 C413 1.362 . S
C412 C415 1.378 . S
C412 H427 0.929 . S
C413 C412 1.362 . S
C413 C414 1.366 . S
C414 C411 1.365 . S
C414 C413 1.366 . S
C414 H428 0.930 . S
C415 C412 1.378 . S
C415 N416 1.315 . S
C415 H418 0.930 . S
N416 Co396 2.194 . S
N416 C411 1.328 . S
N416 C415 1.315 . S
H417 C411 0.929 . S
H418 C415 0.930 . S
H419 C407 0.929 . S
H420 C409 0.929 . S
O421 Co396 2.351 . S
O421 C424 1.244 . S
O422 Co396 2.155 . S
O422 C424 1.240 . S
O423 Co396 2.096 . S
O423 C404 1.247 . S
C424 O421 1.244 . S
C424 O422 1.240 . S
H425 C399 0.931 . S
H426 C408 0.931 . S
H427 C412 0.929 . S
H428 C414 0.930 . S
Co429 N433 2.148 . S
Co429 N439 2.128 . S
Co429 N449 2.194 . S
Co429 O454 2.351 . S
Co429 O455 2.155 . S
Co429 O456 2.096 . S
C430 N433 1.301 . S
C430 N434 1.328 . S
C430 H435 0.930 . S
C431 C432 1.333 . S
C431 N433 1.317 . S
C431 H436 0.930 . S
C432 C431 1.333 . S
C432 N434 1.350 . S
C432 H458 0.931 . S
N433 Co429 2.148 . S
N433 C430 1.301 . S
N433 C431 1.317 . S
N434 C430 1.328 . S
N434 C432 1.350 . S
H435 C430 0.930 . S
H436 C431 0.930 . S
C437 O438 1.224 . S
C437 O456 1.247 . S
O438 C437 1.224 . S
N439 Co429 2.128 . S
N439 C440 1.355 . S
N439 C442 1.311 . S
C440 N439 1.355 . S
C440 C441 1.363 . S
C440 H452 0.929 . S
C441 C440 1.363 . S
C441 N443 1.375 . S
C441 H459 0.931 . S
C442 N439 1.311 . S
C442 N443 1.347 . S
C442 H453 0.929 . S
N443 C441 1.375 . S
N443 C442 1.347 . S
C444 C447 1.365 . S
C444 N449 1.328 . S
C444 H450 0.929 . S
C445 C446 1.362 . S
C445 C448 1.378 . S
C445 H460 0.929 . S
C446 C445 1.362 . S
C446 C447 1.366 . S
C447 C444 1.365 . S
C447 C446 1.366 . S
C447 H461 0.930 . S
C448 C445 1.378 . S
C448 N449 1.315 . S
C448 H451 0.930 . S
N449 Co429 2.194 . S
N449 C444 1.328 . S
N449 C448 1.315 . S
H450 C444 0.929 . S
H451 C448 0.930 . S
H452 C440 0.929 . S
H453 C442 0.929 . S
O454 Co429 2.351 . S
O454 C457 1.244 . S
O455 Co429 2.155 . S
O455 C457 1.240 . S
O456 Co429 2.096 . S
O456 C437 1.247 . S
C457 O454 1.244 . S
C457 O455 1.240 . S
H458 C432 0.931 . S
H459 C441 0.931 . S
H460 C445 0.929 . S
H461 C447 0.930 . S
Co462 N466 2.148 . S
Co462 N472 2.128 . S
Co462 N482 2.194 . S
Co462 O487 2.351 . S
Co462 O488 2.155 . S
Co462 O489 2.096 . S
C463 N466 1.301 . S
C463 N467 1.328 . S
C463 H468 0.930 . S
C464 C465 1.333 . S
C464 N466 1.317 . S
C464 H469 0.930 . S
C465 C464 1.333 . S
C465 N467 1.350 . S
C465 H491 0.931 . S
N466 Co462 2.148 . S
N466 C463 1.301 . S
N466 C464 1.317 . S
N467 C463 1.328 . S
N467 C465 1.350 . S
H468 C463 0.930 . S
H469 C464 0.930 . S
C470 O471 1.224 . S
C470 O489 1.247 . S
O471 C470 1.224 . S
N472 Co462 2.128 . S
N472 C473 1.355 . S
N472 C475 1.311 . S
C473 N472 1.355 . S
C473 C474 1.363 . S
C473 H485 0.929 . S
C474 C473 1.363 . S
C474 N476 1.375 . S
C474 H492 0.931 . S
C475 N472 1.311 . S
C475 N476 1.347 . S
C475 H486 0.929 . S
N476 C474 1.375 . S
N476 C475 1.347 . S
C477 C480 1.365 . S
C477 N482 1.328 . S
C477 H483 0.929 . S
C478 C479 1.362 . S
C478 C481 1.378 . S
C478 H493 0.929 . S
C479 C478 1.362 . S
C479 C480 1.366 . S
C480 C477 1.365 . S
C480 C479 1.366 . S
C480 H494 0.930 . S
C481 C478 1.378 . S
C481 N482 1.315 . S
C481 H484 0.930 . S
N482 Co462 2.194 . S
N482 C477 1.328 . S
N482 C481 1.315 . S
H483 C477 0.929 . S
H484 C481 0.930 . S
H485 C473 0.929 . S
H486 C475 0.929 . S
O487 Co462 2.351 . S
O487 C490 1.244 . S
O488 Co462 2.155 . S
O488 C490 1.240 . S
O489 Co462 2.096 . S
O489 C470 1.247 . S
C490 O487 1.244 . S
C490 O488 1.240 . S
H491 C465 0.931 . S
H492 C474 0.931 . S
H493 C478 0.929 . S
H494 C480 0.930 . S
Co495 N499 2.148 . S
Co495 N505 2.128 . S
Co495 N515 2.194 . S
Co495 O520 2.351 . S
Co495 O521 2.155 . S
Co495 O522 2.096 . S
C496 N499 1.301 . S
C496 N500 1.328 . S
C496 H501 0.930 . S
C497 C498 1.333 . S
C497 N499 1.317 . S
C497 H502 0.930 . S
C498 C497 1.333 . S
C498 N500 1.350 . S
C498 H524 0.931 . S
N499 Co495 2.148 . S
N499 C496 1.301 . S
N499 C497 1.317 . S
N500 C496 1.328 . S
N500 C498 1.350 . S
H501 C496 0.930 . S
H502 C497 0.930 . S
C503 O504 1.224 . S
C503 O522 1.247 . S
O504 C503 1.224 . S
N505 Co495 2.128 . S
N505 C506 1.355 . S
N505 C508 1.311 . S
C506 N505 1.355 . S
C506 C507 1.363 . S
C506 H518 0.929 . S
C507 C506 1.363 . S
C507 N509 1.375 . S
C507 H525 0.931 . S
C508 N505 1.311 . S
C508 N509 1.347 . S
C508 H519 0.929 . S
N509 C507 1.375 . S
N509 C508 1.347 . S
C510 C513 1.365 . S
C510 N515 1.328 . S
C510 H516 0.929 . S
C511 C512 1.362 . S
C511 C514 1.378 . S
C511 H526 0.929 . S
C512 C511 1.362 . S
C512 C513 1.366 . S
C513 C510 1.365 . S
C513 C512 1.366 . S
C513 H527 0.930 . S
C514 C511 1.378 . S
C514 N515 1.315 . S
C514 H517 0.930 . S
N515 Co495 2.194 . S
N515 C510 1.328 . S
N515 C514 1.315 . S
H516 C510 0.929 . S
H517 C514 0.930 . S
H518 C506 0.929 . S
H519 C508 0.929 . S
O520 Co495 2.351 . S
O520 C523 1.244 . S
O521 Co495 2.155 . S
O521 C523 1.240 . S
O522 Co495 2.096 . S
O522 C503 1.247 . S
C523 O520 1.244 . S
C523 O521 1.240 . S
H524 C498 0.931 . S
H525 C507 0.931 . S
H526 C511 0.929 . S
H527 C513 0.930 . S
Co528 N532 2.148 . S
Co528 N538 2.128 . S
Co528 N548 2.194 . S
Co528 O553 2.351 . S
Co528 O554 2.155 . S
Co528 O555 2.096 . S
C529 N532 1.301 . S
C529 N533 1.328 . S
C529 H534 0.930 . S
C530 C531 1.333 . S
C530 N532 1.317 . S
C530 H535 0.930 . S
C531 C530 1.333 . S
C531 N533 1.350 . S
C531 H557 0.931 . S
N532 Co528 2.148 . S
N532 C529 1.301 . S
N532 C530 1.317 . S
N533 C529 1.328 . S
N533 C531 1.350 . S
H534 C529 0.930 . S
H535 C530 0.930 . S
C536 O537 1.224 . S
C536 O555 1.247 . S
O537 C536 1.224 . S
N538 Co528 2.128 . S
N538 C539 1.355 . S
N538 C541 1.311 . S
C539 N538 1.355 . S
C539 C540 1.363 . S
C539 H551 0.929 . S
C540 C539 1.363 . S
C540 N542 1.375 . S
C540 H558 0.931 . S
C541 N538 1.311 . S
C541 N542 1.347 . S
C541 H552 0.929 . S
N542 C540 1.375 . S
N542 C541 1.347 . S
C543 C546 1.365 . S
C543 N548 1.328 . S
C543 H549 0.929 . S
C544 C545 1.362 . S
C544 C547 1.378 . S
C544 H559 0.929 . S
C545 C544 1.362 . S
C545 C546 1.366 . S
C546 C543 1.365 . S
C546 C545 1.366 . S
C546 H560 0.930 . S
C547 C544 1.378 . S
C547 N548 1.315 . S
C547 H550 0.930 . S
N548 Co528 2.194 . S
N548 C543 1.328 . S
N548 C547 1.315 . S
H549 C543 0.929 . S
H550 C547 0.930 . S
H551 C539 0.929 . S
H552 C541 0.929 . S
O553 Co528 2.351 . S
O553 C556 1.244 . S
O554 Co528 2.155 . S
O554 C556 1.240 . S
O555 Co528 2.096 . S
O555 C536 1.247 . S
C556 O553 1.244 . S
C556 O554 1.240 . S
H557 C531 0.931 . S
H558 C540 0.931 . S
H559 C544 0.929 . S
H560 C546 0.930 . S
Co561 N565 2.148 . S
Co561 N571 2.128 . S
Co561 N581 2.194 . S
Co561 O586 2.351 . S
Co561 O587 2.155 . S
Co561 O588 2.096 . S
C562 N565 1.301 . S
C562 N566 1.328 . S
C562 H567 0.930 . S
C563 C564 1.333 . S
C563 N565 1.317 . S
C563 H568 0.930 . S
C564 C563 1.333 . S
C564 N566 1.350 . S
C564 H590 0.931 . S
N565 Co561 2.148 . S
N565 C562 1.301 . S
N565 C563 1.317 . S
N566 C562 1.328 . S
N566 C564 1.350 . S
H567 C562 0.930 . S
H568 C563 0.930 . S
C569 O570 1.224 . S
C569 O588 1.247 . S
O570 C569 1.224 . S
N571 Co561 2.128 . S
N571 C572 1.355 . S
N571 C574 1.311 . S
C572 N571 1.355 . S
C572 C573 1.363 . S
C572 H584 0.929 . S
C573 C572 1.363 . S
C573 N575 1.375 . S
C573 H591 0.931 . S
C574 N571 1.311 . S
C574 N575 1.347 . S
C574 H585 0.929 . S
N575 C573 1.375 . S
N575 C574 1.347 . S
C576 C579 1.365 . S
C576 N581 1.328 . S
C576 H582 0.929 . S
C577 C578 1.362 . S
C577 C580 1.378 . S
C577 H592 0.929 . S
C578 C577 1.362 . S
C578 C579 1.366 . S
C579 C576 1.365 . S
C579 C578 1.366 . S
C579 H593 0.930 . S
C580 C577 1.378 . S
C580 N581 1.315 . S
C580 H583 0.930 . S
N581 Co561 2.194 . S
N581 C576 1.328 . S
N581 C580 1.315 . S
H582 C576 0.929 . S
H583 C580 0.930 . S
H584 C572 0.929 . S
H585 C574 0.929 . S
O586 Co561 2.351 . S
O586 C589 1.244 . S
O587 Co561 2.155 . S
O587 C589 1.240 . S
O588 Co561 2.096 . S
O588 C569 1.247 . S
C589 O586 1.244 . S
C589 O587 1.240 . S
H590 C564 0.931 . S
H591 C573 0.931 . S
H592 C577 0.929 . S
H593 C579 0.930 . S
Co594 N598 2.148 . S
Co594 N604 2.128 . S
Co594 N614 2.194 . S
Co594 O619 2.351 . S
Co594 O620 2.155 . S
Co594 O621 2.096 . S
C595 N598 1.301 . S
C595 N599 1.328 . S
C595 H600 0.930 . S
C596 C597 1.333 . S
C596 N598 1.317 . S
C596 H601 0.930 . S
C597 C596 1.333 . S
C597 N599 1.350 . S
C597 H623 0.931 . S
N598 Co594 2.148 . S
N598 C595 1.301 . S
N598 C596 1.317 . S
N599 C595 1.328 . S
N599 C597 1.350 . S
H600 C595 0.930 . S
H601 C596 0.930 . S
C602 O603 1.224 . S
C602 O621 1.247 . S
O603 C602 1.224 . S
N604 Co594 2.128 . S
N604 C605 1.355 . S
N604 C607 1.311 . S
C605 N604 1.355 . S
C605 C606 1.363 . S
C605 H617 0.929 . S
C606 C605 1.363 . S
C606 N608 1.375 . S
C606 H624 0.931 . S
C607 N604 1.311 . S
C607 N608 1.347 . S
C607 H618 0.929 . S
N608 C606 1.375 . S
N608 C607 1.347 . S
C609 C612 1.365 . S
C609 N614 1.328 . S
C609 H615 0.929 . S
C610 C611 1.362 . S
C610 C613 1.378 . S
C610 H625 0.929 . S
C611 C610 1.362 . S
C611 C612 1.366 . S
C612 C609 1.365 . S
C612 C611 1.366 . S
C612 H626 0.930 . S
C613 C610 1.378 . S
C613 N614 1.315 . S
C613 H616 0.930 . S
N614 Co594 2.194 . S
N614 C609 1.328 . S
N614 C613 1.315 . S
H615 C609 0.929 . S
H616 C613 0.930 . S
H617 C605 0.929 . S
H618 C607 0.929 . S
O619 Co594 2.351 . S
O619 C622 1.244 . S
O620 Co594 2.155 . S
O620 C622 1.240 . S
O621 Co594 2.096 . S
O621 C602 1.247 . S
C622 O619 1.244 . S
C622 O620 1.240 . S
H623 C597 0.931 . S
H624 C606 0.931 . S
H625 C610 0.929 . S
H626 C612 0.930 . S
Co627 N631 2.148 . S
Co627 N637 2.128 . S
Co627 N647 2.194 . S
Co627 O652 2.351 . S
Co627 O653 2.155 . S
Co627 O654 2.096 . S
C628 N631 1.301 . S
C628 N632 1.328 . S
C628 H633 0.930 . S
C629 C630 1.333 . S
C629 N631 1.317 . S
C629 H634 0.930 . S
C630 C629 1.333 . S
C630 N632 1.350 . S
C630 H656 0.931 . S
N631 Co627 2.148 . S
N631 C628 1.301 . S
N631 C629 1.317 . S
N632 C628 1.328 . S
N632 C630 1.350 . S
H633 C628 0.930 . S
H634 C629 0.930 . S
C635 O636 1.224 . S
C635 O654 1.247 . S
O636 C635 1.224 . S
N637 Co627 2.128 . S
N637 C638 1.355 . S
N637 C640 1.311 . S
C638 N637 1.355 . S
C638 C639 1.363 . S
C638 H650 0.929 . S
C639 C638 1.363 . S
C639 N641 1.375 . S
C639 H657 0.931 . S
C640 N637 1.311 . S
C640 N641 1.347 . S
C640 H651 0.929 . S
N641 C639 1.375 . S
N641 C640 1.347 . S
C642 C645 1.365 . S
C642 N647 1.328 . S
C642 H648 0.929 . S
C643 C644 1.362 . S
C643 C646 1.378 . S
C643 H658 0.929 . S
C644 C643 1.362 . S
C644 C645 1.366 . S
C645 C642 1.365 . S
C645 C644 1.366 . S
C645 H659 0.930 . S
C646 C643 1.378 . S
C646 N647 1.315 . S
C646 H649 0.930 . S
N647 Co627 2.194 . S
N647 C642 1.328 . S
N647 C646 1.315 . S
H648 C642 0.929 . S
H649 C646 0.930 . S
H650 C638 0.929 . S
H651 C640 0.929 . S
O652 Co627 2.351 . S
O652 C655 1.244 . S
O653 Co627 2.155 . S
O653 C655 1.240 . S
O654 Co627 2.096 . S
O654 C635 1.247 . S
C655 O652 1.244 . S
C655 O653 1.240 . S
H656 C630 0.931 . S
H657 C639 0.931 . S
H658 C643 0.929 . S
H659 C645 0.930 . S
Co660 N664 2.148 . S
Co660 N670 2.128 . S
Co660 N680 2.194 . S
Co660 O685 2.351 . S
Co660 O686 2.155 . S
Co660 O687 2.096 . S
C661 N664 1.301 . S
C661 N665 1.328 . S
C661 H666 0.930 . S
C662 C663 1.333 . S
C662 N664 1.317 . S
C662 H667 0.930 . S
C663 C662 1.333 . S
C663 N665 1.350 . S
C663 H689 0.931 . S
N664 Co660 2.148 . S
N664 C661 1.301 . S
N664 C662 1.317 . S
N665 C661 1.328 . S
N665 C663 1.350 . S
H666 C661 0.930 . S
H667 C662 0.930 . S
C668 O669 1.224 . S
C668 O687 1.247 . S
O669 C668 1.224 . S
N670 Co660 2.128 . S
N670 C671 1.355 . S
N670 C673 1.311 . S
C671 N670 1.355 . S
C671 C672 1.363 . S
C671 H683 0.929 . S
C672 C671 1.363 . S
C672 N674 1.375 . S
C672 H690 0.931 . S
C673 N670 1.311 . S
C673 N674 1.347 . S
C673 H684 0.929 . S
N674 C672 1.375 . S
N674 C673 1.347 . S
C675 C678 1.365 . S
C675 N680 1.328 . S
C675 H681 0.929 . S
C676 C677 1.362 . S
C676 C679 1.378 . S
C676 H691 0.929 . S
C677 C676 1.362 . S
C677 C678 1.366 . S
C678 C675 1.365 . S
C678 C677 1.366 . S
C678 H692 0.930 . S
C679 C676 1.378 . S
C679 N680 1.315 . S
C679 H682 0.930 . S
N680 Co660 2.194 . S
N680 C675 1.328 . S
N680 C679 1.315 . S
H681 C675 0.929 . S
H682 C679 0.930 . S
H683 C671 0.929 . S
H684 C673 0.929 . S
O685 Co660 2.351 . S
O685 C688 1.244 . S
O686 Co660 2.155 . S
O686 C688 1.240 . S
O687 Co660 2.096 . S
O687 C668 1.247 . S
C688 O685 1.244 . S
C688 O686 1.240 . S
H689 C663 0.931 . S
H690 C672 0.931 . S
H691 C676 0.929 . S
H692 C678 0.930 . S
Co693 N697 2.148 . S
Co693 N703 2.128 . S
Co693 N713 2.194 . S
Co693 O718 2.351 . S
Co693 O719 2.155 . S
Co693 O720 2.096 . S
C694 N697 1.301 . S
C694 N698 1.328 . S
C694 H699 0.930 . S
C695 C696 1.333 . S
C695 N697 1.317 . S
C695 H700 0.930 . S
C696 C695 1.333 . S
C696 N698 1.350 . S
C696 H722 0.931 . S
N697 Co693 2.148 . S
N697 C694 1.301 . S
N697 C695 1.317 . S
N698 C694 1.328 . S
N698 C696 1.350 . S
H699 C694 0.930 . S
H700 C695 0.930 . S
C701 O702 1.224 . S
C701 O720 1.247 . S
O702 C701 1.224 . S
N703 Co693 2.128 . S
N703 C704 1.355 . S
N703 C706 1.311 . S
C704 N703 1.355 . S
C704 C705 1.363 . S
C704 H716 0.929 . S
C705 C704 1.363 . S
C705 N707 1.375 . S
C705 H723 0.931 . S
C706 N703 1.311 . S
C706 N707 1.347 . S
C706 H717 0.929 . S
N707 C705 1.375 . S
N707 C706 1.347 . S
C708 C711 1.365 . S
C708 N713 1.328 . S
C708 H714 0.929 . S
C709 C710 1.362 . S
C709 C712 1.378 . S
C709 H724 0.929 . S
C710 C709 1.362 . S
C710 C711 1.366 . S
C711 C708 1.365 . S
C711 C710 1.366 . S
C711 H725 0.930 . S
C712 C709 1.378 . S
C712 N713 1.315 . S
C712 H715 0.930 . S
N713 Co693 2.194 . S
N713 C708 1.328 . S
N713 C712 1.315 . S
H714 C708 0.929 . S
H715 C712 0.930 . S
H716 C704 0.929 . S
H717 C706 0.929 . S
O718 Co693 2.351 . S
O718 C721 1.244 . S
O719 Co693 2.155 . S
O719 C721 1.240 . S
O720 Co693 2.096 . S
O720 C701 1.247 . S
C721 O718 1.244 . S
C721 O719 1.240 . S
H722 C696 0.931 . S
H723 C705 0.931 . S
H724 C709 0.929 . S
H725 C711 0.930 . S
Co726 N730 2.148 . S
Co726 N736 2.128 . S
Co726 N746 2.194 . S
Co726 O751 2.351 . S
Co726 O752 2.155 . S
Co726 O753 2.096 . S
C727 N730 1.301 . S
C727 N731 1.328 . S
C727 H732 0.930 . S
C728 C729 1.333 . S
C728 N730 1.317 . S
C728 H733 0.930 . S
C729 C728 1.333 . S
C729 N731 1.350 . S
C729 H755 0.931 . S
N730 Co726 2.148 . S
N730 C727 1.301 . S
N730 C728 1.317 . S
N731 C727 1.328 . S
N731 C729 1.350 . S
H732 C727 0.930 . S
H733 C728 0.930 . S
C734 O735 1.224 . S
C734 O753 1.247 . S
O735 C734 1.224 . S
N736 Co726 2.128 . S
N736 C737 1.355 . S
N736 C739 1.311 . S
C737 N736 1.355 . S
C737 C738 1.363 . S
C737 H749 0.929 . S
C738 C737 1.363 . S
C738 N740 1.375 . S
C738 H756 0.931 . S
C739 N736 1.311 . S
C739 N740 1.347 . S
C739 H750 0.929 . S
N740 C738 1.375 . S
N740 C739 1.347 . S
C741 C744 1.365 . S
C741 N746 1.328 . S
C741 H747 0.929 . S
C742 C743 1.362 . S
C742 C745 1.378 . S
C742 H757 0.929 . S
C743 C742 1.362 . S
C743 C744 1.366 . S
C744 C741 1.365 . S
C744 C743 1.366 . S
C744 H758 0.930 . S
C745 C742 1.378 . S
C745 N746 1.315 . S
C745 H748 0.930 . S
N746 Co726 2.194 . S
N746 C741 1.328 . S
N746 C745 1.315 . S
H747 C741 0.929 . S
H748 C745 0.930 . S
H749 C737 0.929 . S
H750 C739 0.929 . S
O751 Co726 2.351 . S
O751 C754 1.244 . S
O752 Co726 2.155 . S
O752 C754 1.240 . S
O753 Co726 2.096 . S
O753 C734 1.247 . S
C754 O751 1.244 . S
C754 O752 1.240 . S
H755 C729 0.931 . S
H756 C738 0.931 . S
H757 C742 0.929 . S
H758 C744 0.930 . S
Co759 N763 2.148 . S
Co759 N769 2.128 . S
Co759 N779 2.194 . S
Co759 O784 2.351 . S
Co759 O785 2.155 . S
Co759 O786 2.096 . S
C760 N763 1.301 . S
C760 N764 1.328 . S
C760 H765 0.930 . S
C761 C762 1.333 . S
C761 N763 1.317 . S
C761 H766 0.930 . S
C762 C761 1.333 . S
C762 N764 1.350 . S
C762 H788 0.931 . S
N763 Co759 2.148 . S
N763 C760 1.301 . S
N763 C761 1.317 . S
N764 C760 1.328 . S
N764 C762 1.350 . S
H765 C760 0.930 . S
H766 C761 0.930 . S
C767 O768 1.224 . S
C767 O786 1.247 . S
O768 C767 1.224 . S
N769 Co759 2.128 . S
N769 C770 1.355 . S
N769 C772 1.311 . S
C770 N769 1.355 . S
C770 C771 1.363 . S
C770 H782 0.929 . S
C771 C770 1.363 . S
C771 N773 1.375 . S
C771 H789 0.931 . S
C772 N769 1.311 . S
C772 N773 1.347 . S
C772 H783 0.929 . S
N773 C771 1.375 . S
N773 C772 1.347 . S
C774 C777 1.365 . S
C774 N779 1.328 . S
C774 H780 0.929 . S
C775 C776 1.362 . S
C775 C778 1.378 . S
C775 H790 0.929 . S
C776 C775 1.362 . S
C776 C777 1.366 . S
C777 C774 1.365 . S
C777 C776 1.366 . S
C777 H791 0.930 . S
C778 C775 1.378 . S
C778 N779 1.315 . S
C778 H781 0.930 . S
N779 Co759 2.194 . S
N779 C774 1.328 . S
N779 C778 1.315 . S
H780 C774 0.929 . S
H781 C778 0.930 . S
H782 C770 0.929 . S
H783 C772 0.929 . S
O784 Co759 2.351 . S
O784 C787 1.244 . S
O785 Co759 2.155 . S
O785 C787 1.240 . S
O786 Co759 2.096 . S
O786 C767 1.247 . S
C787 O784 1.244 . S
C787 O785 1.240 . S
H788 C762 0.931 . S
H789 C771 0.931 . S
H790 C775 0.929 . S
H791 C777 0.930 . S
H792 C804 0.930 . S
H793 C806 0.930 . S
H794 C807 0.930 . S
H795 C811 0.959 . S
H796 C811 0.959 . S
H797 C811 0.961 . S
H798 C812 0.960 . S
H799 C812 0.961 . S
H800 C812 0.959 . S
H801 C815 0.929 . S
H802 C816 0.931 . S
H803 C818 0.930 . S
C804 H792 0.930 . S
C804 C805 1.399 . S
C804 C809 1.399 . S
C805 C804 1.399 . S
C805 C806 1.376 . S
C806 H793 0.930 . S
C806 C805 1.376 . S
C806 C807 1.388 . S
C807 H794 0.930 . S
C807 C806 1.388 . S
C807 C808 1.390 . S
C808 C807 1.390 . S
C808 C809 1.394 . S
C808 C814 1.465 . S
C809 C804 1.399 . S
C809 C808 1.394 . S
C809 C810 1.516 . S
C810 C809 1.516 . S
C810 C811 1.502 . S
C810 C812 1.561 . S
C810 C813 1.526 . S
C811 H795 0.959 . S
C811 H796 0.959 . S
C811 H797 0.961 . S
C811 C810 1.502 . S
C812 H798 0.960 . S
C812 H799 0.961 . S
C812 H800 0.959 . S
C812 C810 1.561 . S
C813 C810 1.526 . S
C813 C814 1.396 . S
C813 C818 1.390 . S
C814 C808 1.465 . S
C814 C813 1.396 . S
C814 C815 1.399 . S
C815 H801 0.929 . S
C815 C814 1.399 . S
C815 C816 1.385 . S
C816 H802 0.931 . S
C816 C815 1.385 . S
C816 C817 1.389 . S
C817 C816 1.389 . S
C817 C818 1.387 . S
C818 H803 0.930 . S
C818 C813 1.390 . S
C818 C817 1.387 . S
H819 C831 0.930 . S
H820 C833 0.930 . S
H821 C834 0.930 . S
H822 C838 0.959 . S
H823 C838 0.959 . S
H824 C838 0.961 . S
H825 C839 0.960 . S
H826 C839 0.961 . S
H827 C839 0.959 . S
H828 C842 0.929 . S
H829 C843 0.931 . S
H830 C845 0.930 . S
C831 H819 0.930 . S
C831 C832 1.399 . S
C831 C836 1.399 . S
C832 C831 1.399 . S
C832 C833 1.376 . S
C833 H820 0.930 . S
C833 C832 1.376 . S
C833 C834 1.388 . S
C834 H821 0.930 . S
C834 C833 1.388 . S
C834 C835 1.390 . S
C835 C834 1.390 . S
C835 C836 1.394 . S
C835 C841 1.465 . S
C836 C831 1.399 . S
C836 C835 1.394 . S
C836 C837 1.516 . S
C837 C836 1.516 . S
C837 C838 1.502 . S
C837 C839 1.561 . S
C837 C840 1.526 . S
C838 H822 0.959 . S
C838 H823 0.959 . S
C838 H824 0.961 . S
C838 C837 1.502 . S
C839 H825 0.960 . S
C839 H826 0.961 . S
C839 H827 0.959 . S
C839 C837 1.561 . S
C840 C837 1.526 . S
C840 C841 1.396 . S
C840 C845 1.390 . S
C841 C835 1.465 . S
C841 C840 1.396 . S
C841 C842 1.399 . S
C842 H828 0.929 . S
C842 C841 1.399 . S
C842 C843 1.385 . S
C843 H829 0.931 . S
C843 C842 1.385 . S
C843 C844 1.389 . S
C844 C843 1.389 . S
C844 C845 1.387 . S
C845 H830 0.930 . S
C845 C840 1.390 . S
C845 C844 1.387 . S
H846 C858 0.930 . S
H847 C860 0.930 . S
H848 C861 0.930 . S
H849 C865 0.959 . S
H850 C865 0.959 . S
H851 C865 0.961 . S
H852 C866 0.960 . S
H853 C866 0.961 . S
H854 C866 0.959 . S
H855 C869 0.929 . S
H856 C870 0.931 . S
H857 C872 0.930 . S
C858 H846 0.930 . S
C858 C859 1.399 . S
C858 C863 1.399 . S
C859 C858 1.399 . S
C859 C860 1.376 . S
C860 H847 0.930 . S
C860 C859 1.376 . S
C860 C861 1.388 . S
C861 H848 0.930 . S
C861 C860 1.388 . S
C861 C862 1.390 . S
C862 C861 1.390 . S
C862 C863 1.394 . S
C862 C868 1.465 . S
C863 C858 1.399 . S
C863 C862 1.394 . S
C863 C864 1.516 . S
C864 C863 1.516 . S
C864 C865 1.502 . S
C864 C866 1.561 . S
C864 C867 1.526 . S
C865 H849 0.959 . S
C865 H850 0.959 . S
C865 H851 0.961 . S
C865 C864 1.502 . S
C866 H852 0.960 . S
C866 H853 0.961 . S
C866 H854 0.959 . S
C866 C864 1.561 . S
C867 C864 1.526 . S
C867 C868 1.396 . S
C867 C872 1.390 . S
C868 C862 1.465 . S
C868 C867 1.396 . S
C868 C869 1.399 . S
C869 H855 0.929 . S
C869 C868 1.399 . S
C869 C870 1.385 . S
C870 H856 0.931 . S
C870 C869 1.385 . S
C870 C871 1.389 . S
C871 C870 1.389 . S
C871 C872 1.387 . S
C872 H857 0.930 . S
C872 C867 1.390 . S
C872 C871 1.387 . S
H873 C885 0.930 . S
H874 C887 0.930 . S
H875 C888 0.930 . S
H876 C892 0.959 . S
H877 C892 0.959 . S
H878 C892 0.961 . S
H879 C893 0.960 . S
H880 C893 0.961 . S
H881 C893 0.959 . S
H882 C896 0.929 . S
H883 C897 0.931 . S
H884 C899 0.930 . S
C885 H873 0.930 . S
C885 C886 1.399 . S
C885 C890 1.399 . S
C886 C885 1.399 . S
C886 C887 1.376 . S
C887 H874 0.930 . S
C887 C886 1.376 . S
C887 C888 1.388 . S
C888 H875 0.930 . S
C888 C887 1.388 . S
C888 C889 1.390 . S
C889 C888 1.390 . S
C889 C890 1.394 . S
C889 C895 1.465 . S
C890 C885 1.399 . S
C890 C889 1.394 . S
C890 C891 1.516 . S
C891 C890 1.516 . S
C891 C892 1.502 . S
C891 C893 1.561 . S
C891 C894 1.526 . S
C892 H876 0.959 . S
C892 H877 0.959 . S
C892 H878 0.961 . S
C892 C891 1.502 . S
C893 H879 0.960 . S
C893 H880 0.961 . S
C893 H881 0.959 . S
C893 C891 1.561 . S
C894 C891 1.526 . S
C894 C895 1.396 . S
C894 C899 1.390 . S
C895 C889 1.465 . S
C895 C894 1.396 . S
C895 C896 1.399 . S
C896 H882 0.929 . S
C896 C895 1.399 . S
C896 C897 1.385 . S
C897 H883 0.931 . S
C897 C896 1.385 . S
C897 C898 1.389 . S
C898 C897 1.389 . S
C898 C899 1.387 . S
C899 H884 0.930 . S
C899 C894 1.390 . S
C899 C898 1.387 . S
H900 C912 0.930 . S
H901 C914 0.930 . S
H902 C915 0.930 . S
H903 C919 0.959 . S
H904 C919 0.959 . S
H905 C919 0.961 . S
H906 C920 0.960 . S
H907 C920 0.961 . S
H908 C920 0.959 . S
H909 C923 0.929 . S
H910 C924 0.931 . S
H911 C926 0.930 . S
C912 H900 0.930 . S
C912 C913 1.399 . S
C912 C917 1.399 . S
C913 C912 1.399 . S
C913 C914 1.376 . S
C914 H901 0.930 . S
C914 C913 1.376 . S
C914 C915 1.388 . S
C915 H902 0.930 . S
C915 C914 1.388 . S
C915 C916 1.390 . S
C916 C915 1.390 . S
C916 C917 1.394 . S
C916 C922 1.465 . S
C917 C912 1.399 . S
C917 C916 1.394 . S
C917 C918 1.516 . S
C918 C917 1.516 . S
C918 C919 1.502 . S
C918 C920 1.561 . S
C918 C921 1.526 . S
C919 H903 0.959 . S
C919 H904 0.959 . S
C919 H905 0.961 . S
C919 C918 1.502 . S
C920 H906 0.960 . S
C920 H907 0.961 . S
C920 H908 0.959 . S
C920 C918 1.561 . S
C921 C918 1.526 . S
C921 C922 1.396 . S
C921 C926 1.390 . S
C922 C916 1.465 . S
C922 C921 1.396 . S
C922 C923 1.399 . S
C923 H909 0.929 . S
C923 C922 1.399 . S
C923 C924 1.385 . S
C924 H910 0.931 . S
C924 C923 1.385 . S
C924 C925 1.389 . S
C925 C924 1.389 . S
C925 C926 1.387 . S
C926 H911 0.930 . S
C926 C921 1.390 . S
C926 C925 1.387 . S
H927 C939 0.930 . S
H928 C941 0.930 . S
H929 C942 0.930 . S
H930 C946 0.959 . S
H931 C946 0.959 . S
H932 C946 0.961 . S
H933 C947 0.960 . S
H934 C947 0.961 . S
H935 C947 0.959 . S
H936 C950 0.929 . S
H937 C951 0.931 . S
H938 C953 0.930 . S
C939 H927 0.930 . S
C939 C940 1.399 . S
C939 C944 1.399 . S
C940 C939 1.399 . S
C940 C941 1.376 . S
C941 H928 0.930 . S
C941 C940 1.376 . S
C941 C942 1.388 . S
C942 H929 0.930 . S
C942 C941 1.388 . S
C942 C943 1.390 . S
C943 C942 1.390 . S
C943 C944 1.394 . S
C943 C949 1.465 . S
C944 C939 1.399 . S
C944 C943 1.394 . S
C944 C945 1.516 . S
C945 C944 1.516 . S
C945 C946 1.502 . S
C945 C947 1.561 . S
C945 C948 1.526 . S
C946 H930 0.959 . S
C946 H931 0.959 . S
C946 H932 0.961 . S
C946 C945 1.502 . S
C947 H933 0.960 . S
C947 H934 0.961 . S
C947 H935 0.959 . S
C947 C945 1.561 . S
C948 C945 1.526 . S
C948 C949 1.396 . S
C948 C953 1.390 . S
C949 C943 1.465 . S
C949 C948 1.396 . S
C949 C950 1.399 . S
C950 H936 0.929 . S
C950 C949 1.399 . S
C950 C951 1.385 . S
C951 H937 0.931 . S
C951 C950 1.385 . S
C951 C952 1.389 . S
C952 C951 1.389 . S
C952 C953 1.387 . S
C953 H938 0.930 . S
C953 C948 1.390 . S
C953 C952 1.387 . S
H954 C966 0.930 . S
H955 C968 0.930 . S
H956 C969 0.930 . S
H957 C973 0.959 . S
H958 C973 0.959 . S
H959 C973 0.961 . S
H960 C974 0.960 . S
H961 C974 0.961 . S
H962 C974 0.959 . S
H963 C977 0.929 . S
H964 C978 0.931 . S
H965 C980 0.930 . S
C966 H954 0.930 . S
C966 C967 1.399 . S
C966 C971 1.399 . S
C967 C966 1.399 . S
C967 C968 1.376 . S
C968 H955 0.930 . S
C968 C967 1.376 . S
C968 C969 1.388 . S
C969 H956 0.930 . S
C969 C968 1.388 . S
C969 C970 1.390 . S
C970 C969 1.390 . S
C970 C971 1.394 . S
C970 C976 1.465 . S
C971 C966 1.399 . S
C971 C970 1.394 . S
C971 C972 1.516 . S
C972 C971 1.516 . S
C972 C973 1.502 . S
C972 C974 1.561 . S
C972 C975 1.526 . S
C973 H957 0.959 . S
C973 H958 0.959 . S
C973 H959 0.961 . S
C973 C972 1.502 . S
C974 H960 0.960 . S
C974 H961 0.961 . S
C974 H962 0.959 . S
C974 C972 1.561 . S
C975 C972 1.526 . S
C975 C976 1.396 . S
C975 C980 1.390 . S
C976 C970 1.465 . S
C976 C975 1.396 . S
C976 C977 1.399 . S
C977 H963 0.929 . S
C977 C976 1.399 . S
C977 C978 1.385 . S
C978 H964 0.931 . S
C978 C977 1.385 . S
C978 C979 1.389 . S
C979 C978 1.389 . S
C979 C980 1.387 . S
C980 H965 0.930 . S
C980 C975 1.390 . S
C980 C979 1.387 . S
H981 C993 0.930 . S
H982 C995 0.930 . S
H983 C996 0.930 . S
H984 C1000 0.959 . S
H985 C1000 0.959 . S
H986 C1000 0.961 . S
H987 C1001 0.960 . S
H988 C1001 0.961 . S
H989 C1001 0.959 . S
H990 C1004 0.929 . S
H991 C1005 0.931 . S
H992 C1007 0.930 . S
C993 H981 0.930 . S
C993 C994 1.399 . S
C993 C998 1.399 . S
C994 C993 1.399 . S
C994 C995 1.376 . S
C995 H982 0.930 . S
C995 C994 1.376 . S
C995 C996 1.388 . S
C996 H983 0.930 . S
C996 C995 1.388 . S
C996 C997 1.390 . S
C997 C996 1.390 . S
C997 C998 1.394 . S
C997 C1003 1.465 . S
C998 C993 1.399 . S
C998 C997 1.394 . S
C998 C999 1.516 . S
C999 C998 1.516 . S
C999 C1000 1.502 . S
C999 C1001 1.561 . S
C999 C1002 1.526 . S
C1000 H984 0.959 . S
C1000 H985 0.959 . S
C1000 H986 0.961 . S
C1000 C999 1.502 . S
C1001 H987 0.960 . S
C1001 H988 0.961 . S
C1001 H989 0.959 . S
C1001 C999 1.561 . S
C1002 C999 1.526 . S
C1002 C1003 1.396 . S
C1002 C1007 1.390 . S
C1003 C997 1.465 . S
C1003 C1002 1.396 . S
C1003 C1004 1.399 . S
C1004 H990 0.929 . S
C1004 C1003 1.399 . S
C1004 C1005 1.385 . S
C1005 H991 0.931 . S
C1005 C1004 1.385 . S
C1005 C1006 1.389 . S
C1006 C1005 1.389 . S
C1006 C1007 1.387 . S
C1007 H992 0.930 . S
C1007 C1002 1.390 . S
C1007 C1006 1.387 . S
H1008 C1020 0.930 . S
H1009 C1022 0.930 . S
H1010 C1023 0.930 . S
H1011 C1027 0.959 . S
H1012 C1027 0.959 . S
H1013 C1027 0.961 . S
H1014 C1028 0.960 . S
H1015 C1028 0.961 . S
H1016 C1028 0.959 . S
H1017 C1031 0.929 . S
H1018 C1032 0.931 . S
H1019 C1034 0.930 . S
C1020 H1008 0.930 . S
C1020 C1021 1.399 . S
C1020 C1025 1.399 . S
C1021 C1020 1.399 . S
C1021 C1022 1.376 . S
C1022 H1009 0.930 . S
C1022 C1021 1.376 . S
C1022 C1023 1.388 . S
C1023 H1010 0.930 . S
C1023 C1022 1.388 . S
C1023 C1024 1.390 . S
C1024 C1023 1.390 . S
C1024 C1025 1.394 . S
C1024 C1030 1.465 . S
C1025 C1020 1.399 . S
C1025 C1024 1.394 . S
C1025 C1026 1.516 . S
C1026 C1025 1.516 . S
C1026 C1027 1.502 . S
C1026 C1028 1.561 . S
C1026 C1029 1.526 . S
C1027 H1011 0.959 . S
C1027 H1012 0.959 . S
C1027 H1013 0.961 . S
C1027 C1026 1.502 . S
C1028 H1014 0.960 . S
C1028 H1015 0.961 . S
C1028 H1016 0.959 . S
C1028 C1026 1.561 . S
C1029 C1026 1.526 . S
C1029 C1030 1.396 . S
C1029 C1034 1.390 . S
C1030 C1024 1.465 . S
C1030 C1029 1.396 . S
C1030 C1031 1.399 . S
C1031 H1017 0.929 . S
C1031 C1030 1.399 . S
C1031 C1032 1.385 . S
C1032 H1018 0.931 . S
C1032 C1031 1.385 . S
C1032 C1033 1.389 . S
C1033 C1032 1.389 . S
C1033 C1034 1.387 . S
C1034 H1019 0.930 . S
C1034 C1029 1.390 . S
C1034 C1033 1.387 . S
H1035 C1047 0.930 . S
H1036 C1049 0.930 . S
H1037 C1050 0.930 . S
H1038 C1054 0.959 . S
H1039 C1054 0.959 . S
H1040 C1054 0.961 . S
H1041 C1055 0.960 . S
H1042 C1055 0.961 . S
H1043 C1055 0.959 . S
H1044 C1058 0.929 . S
H1045 C1059 0.931 . S
H1046 C1061 0.930 . S
C1047 H1035 0.930 . S
C1047 C1048 1.399 . S
C1047 C1052 1.399 . S
C1048 C1047 1.399 . S
C1048 C1049 1.376 . S
C1049 H1036 0.930 . S
C1049 C1048 1.376 . S
C1049 C1050 1.388 . S
C1050 H1037 0.930 . S
C1050 C1049 1.388 . S
C1050 C1051 1.390 . S
C1051 C1050 1.390 . S
C1051 C1052 1.394 . S
C1051 C1057 1.465 . S
C1052 C1047 1.399 . S
C1052 C1051 1.394 . S
C1052 C1053 1.516 . S
C1053 C1052 1.516 . S
C1053 C1054 1.502 . S
C1053 C1055 1.561 . S
C1053 C1056 1.526 . S
C1054 H1038 0.959 . S
C1054 H1039 0.959 . S
C1054 H1040 0.961 . S
C1054 C1053 1.502 . S
C1055 H1041 0.960 . S
C1055 H1042 0.961 . S
C1055 H1043 0.959 . S
C1055 C1053 1.561 . S
C1056 C1053 1.526 . S
C1056 C1057 1.396 . S
C1056 C1061 1.390 . S
C1057 C1051 1.465 . S
C1057 C1056 1.396 . S
C1057 C1058 1.399 . S
C1058 H1044 0.929 . S
C1058 C1057 1.399 . S
C1058 C1059 1.385 . S
C1059 H1045 0.931 . S
C1059 C1058 1.385 . S
C1059 C1060 1.389 . S
C1060 C1059 1.389 . S
C1060 C1061 1.387 . S
C1061 H1046 0.930 . S
C1061 C1056 1.390 . S
C1061 C1060 1.387 . S
H1062 C1074 0.930 . S
H1063 C1076 0.930 . S
H1064 C1077 0.930 . S
H1065 C1081 0.959 . S
H1066 C1081 0.959 . S
H1067 C1081 0.961 . S
H1068 C1082 0.960 . S
H1069 C1082 0.961 . S
H1070 C1082 0.959 . S
H1071 C1085 0.929 . S
H1072 C1086 0.931 . S
H1073 C1088 0.930 . S
C1074 H1062 0.930 . S
C1074 C1075 1.399 . S
C1074 C1079 1.399 . S
C1075 C1074 1.399 . S
C1075 C1076 1.376 . S
C1076 H1063 0.930 . S
C1076 C1075 1.376 . S
C1076 C1077 1.388 . S
C1077 H1064 0.930 . S
C1077 C1076 1.388 . S
C1077 C1078 1.390 . S
C1078 C1077 1.390 . S
C1078 C1079 1.394 . S
C1078 C1084 1.465 . S
C1079 C1074 1.399 . S
C1079 C1078 1.394 . S
C1079 C1080 1.516 . S
C1080 C1079 1.516 . S
C1080 C1081 1.502 . S
C1080 C1082 1.561 . S
C1080 C1083 1.526 . S
C1081 H1065 0.959 . S
C1081 H1066 0.959 . S
C1081 H1067 0.961 . S
C1081 C1080 1.502 . S
C1082 H1068 0.960 . S
C1082 H1069 0.961 . S
C1082 H1070 0.959 . S
C1082 C1080 1.561 . S
C1083 C1080 1.526 . S
C1083 C1084 1.396 . S
C1083 C1088 1.390 . S
C1084 C1078 1.465 . S
C1084 C1083 1.396 . S
C1084 C1085 1.399 . S
C1085 H1071 0.929 . S
C1085 C1084 1.399 . S
C1085 C1086 1.385 . S
C1086 H1072 0.931 . S
C1086 C1085 1.385 . S
C1086 C1087 1.389 . S
C1087 C1086 1.389 . S
C1087 C1088 1.387 . S
C1088 H1073 0.930 . S
C1088 C1083 1.390 . S
C1088 C1087 1.387 . S
H1089 C1101 0.930 . S
H1090 C1103 0.930 . S
H1091 C1104 0.930 . S
H1092 C1108 0.959 . S
H1093 C1108 0.959 . S
H1094 C1108 0.961 . S
H1095 C1109 0.960 . S
H1096 C1109 0.961 . S
H1097 C1109 0.959 . S
H1098 C1112 0.929 . S
H1099 C1113 0.931 . S
H1100 C1115 0.930 . S
C1101 H1089 0.930 . S
C1101 C1102 1.399 . S
C1101 C1106 1.399 . S
C1102 C1101 1.399 . S
C1102 C1103 1.376 . S
C1103 H1090 0.930 . S
C1103 C1102 1.376 . S
C1103 C1104 1.388 . S
C1104 H1091 0.930 . S
C1104 C1103 1.388 . S
C1104 C1105 1.390 . S
C1105 C1104 1.390 . S
C1105 C1106 1.394 . S
C1105 C1111 1.465 . S
C1106 C1101 1.399 . S
C1106 C1105 1.394 . S
C1106 C1107 1.516 . S
C1107 C1106 1.516 . S
C1107 C1108 1.502 . S
C1107 C1109 1.561 . S
C1107 C1110 1.526 . S
C1108 H1092 0.959 . S
C1108 H1093 0.959 . S
C1108 H1094 0.961 . S
C1108 C1107 1.502 . S
C1109 H1095 0.960 . S
C1109 H1096 0.961 . S
C1109 H1097 0.959 . S
C1109 C1107 1.561 . S
C1110 C1107 1.526 . S
C1110 C1111 1.396 . S
C1110 C1115 1.390 . S
C1111 C1105 1.465 . S
C1111 C1110 1.396 . S
C1111 C1112 1.399 . S
C1112 H1098 0.929 . S
C1112 C1111 1.399 . S
C1112 C1113 1.385 . S
C1113 H1099 0.931 . S
C1113 C1112 1.385 . S
C1113 C1114 1.389 . S
C1114 C1113 1.389 . S
C1114 C1115 1.387 . S
C1115 H1100 0.930 . S
C1115 C1110 1.390 . S
C1115 C1114 1.387 . S
H1116 C1128 0.930 . S
H1117 C1130 0.930 . S
H1118 C1131 0.930 . S
H1119 C1135 0.959 . S
H1120 C1135 0.959 . S
H1121 C1135 0.962 . S
H1122 C1136 0.960 1_565 S
H1123 C1136 0.961 . S
H1124 C1136 0.959 . S
H1125 C1139 0.929 . S
H1126 C1140 0.931 . S
H1127 C1142 0.930 . S
C1128 H1116 0.930 . S
C1128 C1129 1.399 . S
C1128 C1133 1.399 . S
C1129 C1128 1.399 . S
C1129 C1130 1.376 . S
C1130 H1117 0.930 . S
C1130 C1129 1.376 . S
C1130 C1131 1.388 . S
C1131 H1118 0.930 . S
C1131 C1130 1.388 . S
C1131 C1132 1.390 1_565 S
C1132 C1131 1.390 1_545 S
C1132 C1133 1.394 1_545 S
C1132 C1138 1.465 . S
C1133 C1128 1.399 . S
C1133 C1132 1.394 1_565 S
C1133 C1134 1.516 1_565 S
C1134 C1133 1.516 1_545 S
C1134 C1135 1.502 . S
C1134 C1136 1.561 . S
C1134 C1137 1.526 . S
C1135 H1119 0.959 . S
C1135 H1120 0.959 . S
C1135 H1121 0.962 . S
C1135 C1134 1.502 . S
C1136 H1122 0.960 1_545 S
C1136 H1123 0.961 . S
C1136 H1124 0.959 . S
C1136 C1134 1.561 . S
C1137 C1134 1.526 . S
C1137 C1138 1.396 . S
C1137 C1142 1.390 . S
C1138 C1132 1.465 . S
C1138 C1137 1.396 . S
C1138 C1139 1.399 . S
C1139 H1125 0.929 . S
C1139 C1138 1.399 . S
C1139 C1140 1.385 . S
C1140 H1126 0.931 . S
C1140 C1139 1.385 . S
C1140 C1141 1.389 . S
C1141 C1140 1.389 . S
C1141 C1142 1.387 . S
C1142 H1127 0.930 . S
C1142 C1137 1.390 . S
C1142 C1141 1.387 . S
H1143 C1155 0.930 . S
H1144 C1157 0.930 . S
H1145 C1158 0.930 . S
H1146 C1162 0.959 . S
H1147 C1162 0.959 1_455 S
H1148 C1162 0.961 . S
H1149 C1163 0.960 . S
H1150 C1163 0.961 1_455 S
H1151 C1163 0.959 . S
H1152 C1166 0.929 1_655 S
H1153 C1167 0.931 . S
H1154 C1169 0.930 . S
C1155 H1143 0.930 . S
C1155 C1156 1.399 . S
C1155 C1160 1.399 . S
C1156 C1155 1.399 . S
C1156 C1157 1.376 . S
C1157 H1144 0.930 . S
C1157 C1156 1.376 . S
C1157 C1158 1.388 . S
C1158 H1145 0.930 . S
C1158 C1157 1.388 . S
C1158 C1159 1.390 . S
C1159 C1158 1.390 . S
C1159 C1160 1.394 . S
C1159 C1165 1.465 . S
C1160 C1155 1.399 . S
C1160 C1159 1.394 . S
C1160 C1161 1.516 . S
C1161 C1160 1.516 . S
C1161 C1162 1.502 . S
C1161 C1163 1.561 . S
C1161 C1164 1.526 1_655 S
C1162 H1146 0.959 . S
C1162 H1147 0.959 1_655 S
C1162 H1148 0.961 . S
C1162 C1161 1.502 . S
C1163 H1149 0.960 . S
C1163 H1150 0.961 1_655 S
C1163 H1151 0.959 . S
C1163 C1161 1.561 . S
C1164 C1161 1.526 1_455 S
C1164 C1165 1.396 1_455 S
C1164 C1169 1.390 . S
C1165 C1159 1.465 . S
C1165 C1164 1.396 1_655 S
C1165 C1166 1.399 1_655 S
C1166 H1152 0.929 1_455 S
C1166 C1165 1.399 1_455 S
C1166 C1167 1.385 . S
C1167 H1153 0.931 . S
C1167 C1166 1.385 . S
C1167 C1168 1.389 . S
C1168 C1167 1.389 . S
C1168 C1169 1.387 . S
C1169 H1154 0.930 . S
C1169 C1164 1.390 . S
C1169 C1168 1.387 . S
H1170 C1182 0.930 . S
H1171 C1184 0.930 . S
H1172 C1185 0.930 . S
H1173 C1189 0.959 . S
H1174 C1189 0.959 . S
H1175 C1189 0.961 . S
H1176 C1190 0.960 . S
H1177 C1190 0.961 1_545 S
H1178 C1190 0.959 . S
H1179 C1193 0.929 . S
H1180 C1194 0.931 . S
H1181 C1196 0.930 . S
C1182 H1170 0.930 . S
C1182 C1183 1.399 . S
C1182 C1187 1.399 . S
C1183 C1182 1.399 . S
C1183 C1184 1.376 . S
C1184 H1171 0.930 . S
C1184 C1183 1.376 . S
C1184 C1185 1.388 . S
C1185 H1172 0.930 . S
C1185 C1184 1.388 . S
C1185 C1186 1.390 . S
C1186 C1185 1.390 . S
C1186 C1187 1.394 . S
C1186 C1192 1.465 . S
C1187 C1182 1.399 . S
C1187 C1186 1.394 . S
C1187 C1188 1.516 . S
C1188 C1187 1.516 . S
C1188 C1189 1.502 . S
C1188 C1190 1.561 . S
C1188 C1191 1.526 1_565 S
C1189 H1173 0.959 . S
C1189 H1174 0.959 . S
C1189 H1175 0.961 . S
C1189 C1188 1.502 . S
C1190 H1176 0.960 . S
C1190 H1177 0.961 1_565 S
C1190 H1178 0.959 . S
C1190 C1188 1.561 . S
C1191 C1188 1.526 1_545 S
C1191 C1192 1.396 1_545 S
C1191 C1196 1.390 . S
C1192 C1186 1.465 . S
C1192 C1191 1.396 1_565 S
C1192 C1193 1.399 1_565 S
C1193 H1179 0.929 . S
C1193 C1192 1.399 1_545 S
C1193 C1194 1.385 . S
C1194 H1180 0.931 . S
C1194 C1193 1.385 . S
C1194 C1195 1.389 . S
C1195 C1194 1.389 . S
C1195 C1196 1.387 . S
C1196 H1181 0.930 . S
C1196 C1191 1.390 . S
C1196 C1195 1.387 . S
H1197 C1209 0.930 . S
H1198 C1211 0.930 . S
H1199 C1212 0.930 . S
H1200 C1216 0.959 . S
H1201 C1216 0.959 . S
H1202 C1216 0.961 1_655 S
H1203 C1217 0.960 . S
H1204 C1217 0.961 . S
H1205 C1217 0.959 . S
H1206 C1220 0.929 . S
H1207 C1221 0.931 . S
H1208 C1223 0.930 . S
C1209 H1197 0.930 . S
C1209 C1210 1.399 . S
C1209 C1214 1.399 . S
C1210 C1209 1.399 . S
C1210 C1211 1.376 . S
C1211 H1198 0.930 . S
C1211 C1210 1.376 . S
C1211 C1212 1.388 . S
C1212 H1199 0.930 . S
C1212 C1211 1.388 . S
C1212 C1213 1.390 1_655 S
C1213 C1212 1.390 1_455 S
C1213 C1214 1.394 1_455 S
C1213 C1219 1.465 . S
C1214 C1209 1.399 . S
C1214 C1213 1.394 1_655 S
C1214 C1215 1.516 1_655 S
C1215 C1214 1.516 1_455 S
C1215 C1216 1.502 . S
C1215 C1217 1.561 . S
C1215 C1218 1.526 . S
C1216 H1200 0.959 . S
C1216 H1201 0.959 . S
C1216 H1202 0.961 1_455 S
C1216 C1215 1.502 . S
C1217 H1203 0.960 . S
C1217 H1204 0.961 . S
C1217 H1205 0.959 . S
C1217 C1215 1.561 . S
C1218 C1215 1.526 . S
C1218 C1219 1.396 . S
C1218 C1223 1.390 . S
C1219 C1213 1.465 . S
C1219 C1218 1.396 . S
C1219 C1220 1.399 . S
C1220 H1206 0.929 . S
C1220 C1219 1.399 . S
C1220 C1221 1.385 . S
C1221 H1207 0.931 . S
C1221 C1220 1.385 . S
C1221 C1222 1.389 . S
C1222 C1221 1.389 . S
C1222 C1223 1.387 . S
C1223 H1208 0.930 . S
C1223 C1218 1.390 . S
C1223 C1222 1.387 . S
H1224 C1236 0.930 . S
H1225 C1238 0.930 . S
H1226 C1239 0.930 1_565 S
H1227 C1243 0.959 . S
H1228 C1243 0.959 . S
H1229 C1243 0.961 1_545 S
H1230 C1244 0.960 1_545 S
H1231 C1244 0.961 . S
H1232 C1244 0.959 . S
H1233 C1247 0.929 . S
H1234 C1248 0.931 . S
H1235 C1250 0.930 . S
C1236 H1224 0.930 . S
C1236 C1237 1.399 . S
C1236 C1241 1.399 . S
C1237 C1236 1.399 . S
C1237 C1238 1.376 . S
C1238 H1225 0.930 . S
C1238 C1237 1.376 . S
C1238 C1239 1.388 . S
C1239 H1226 0.930 1_545 S
C1239 C1238 1.388 . S
C1239 C1240 1.390 1_545 S
C1240 C1239 1.390 1_565 S
C1240 C1241 1.394 1_565 S
C1240 C1246 1.465 . S
C1241 C1236 1.399 . S
C1241 C1240 1.394 1_545 S
C1241 C1242 1.516 1_545 S
C1242 C1241 1.516 1_565 S
C1242 C1243 1.502 . S
C1242 C1244 1.561 . S
C1242 C1245 1.526 . S
C1243 H1227 0.959 . S
C1243 H1228 0.959 . S
C1243 H1229 0.961 1_565 S
C1243 C1242 1.502 . S
C1244 H1230 0.960 1_565 S
C1244 H1231 0.961 . S
C1244 H1232 0.959 . S
C1244 C1242 1.561 . S
C1245 C1242 1.526 . S
C1245 C1246 1.396 . S
C1245 C1250 1.390 . S
C1246 C1240 1.465 . S
C1246 C1245 1.396 . S
C1246 C1247 1.399 . S
C1247 H1233 0.929 . S
C1247 C1246 1.399 . S
C1247 C1248 1.385 . S
C1248 H1234 0.931 . S
C1248 C1247 1.385 . S
C1248 C1249 1.389 . S
C1249 C1248 1.389 . S
C1249 C1250 1.387 . S
C1250 H1235 0.930 . S
C1250 C1245 1.390 . S
C1250 C1249 1.387 . S
H1251 C1263 0.930 . S
H1252 C1265 0.930 . S
H1253 C1266 0.930 . S
H1254 C1270 0.959 . S
H1255 C1270 0.957 1_655 S
H1256 C1270 0.961 . S
H1257 C1271 0.960 . S
H1258 C1271 0.961 . S
H1259 C1271 0.959 . S
H1260 C1274 0.929 . S
H1261 C1275 0.931 . S
H1262 C1277 0.930 . S
C1263 H1251 0.930 . S
C1263 C1264 1.399 . S
C1263 C1268 1.399 . S
C1264 C1263 1.399 . S
C1264 C1265 1.376 . S
C1265 H1252 0.930 . S
C1265 C1264 1.376 . S
C1265 C1266 1.388 . S
C1266 H1253 0.930 . S
C1266 C1265 1.388 . S
C1266 C1267 1.390 . S
C1267 C1266 1.390 . S
C1267 C1268 1.394 . S
C1267 C1273 1.465 . S
C1268 C1263 1.399 . S
C1268 C1267 1.394 . S
C1268 C1269 1.516 . S
C1269 C1268 1.516 . S
C1269 C1270 1.502 . S
C1269 C1271 1.561 . S
C1269 C1272 1.526 1_455 S
C1270 H1254 0.959 . S
C1270 H1255 0.957 1_455 S
C1270 H1256 0.961 . S
C1270 C1269 1.502 . S
C1271 H1257 0.960 . S
C1271 H1258 0.961 . S
C1271 H1259 0.959 . S
C1271 C1269 1.561 . S
C1272 C1269 1.526 1_655 S
C1272 C1273 1.396 1_655 S
C1272 C1277 1.390 . S
C1273 C1267 1.465 . S
C1273 C1272 1.396 1_455 S
C1273 C1274 1.399 1_455 S
C1274 H1260 0.929 . S
C1274 C1273 1.399 1_655 S
C1274 C1275 1.385 . S
C1275 H1261 0.931 . S
C1275 C1274 1.385 . S
C1275 C1276 1.389 . S
C1276 C1275 1.389 . S
C1276 C1277 1.387 . S
C1277 H1262 0.930 . S
C1277 C1272 1.390 . S
C1277 C1276 1.387 . S
H1278 C1290 0.930 . S
H1279 C1292 0.930 . S
H1280 C1293 0.930 . S
H1281 C1297 0.959 . S
H1282 C1297 0.959 . S
H1283 C1297 0.961 . S
H1284 C1298 0.960 . S
H1285 C1298 0.961 . S
H1286 C1298 0.959 . S
H1287 C1301 0.929 . S
H1288 C1302 0.931 . S
H1289 C1304 0.930 . S
C1290 H1278 0.930 . S
C1290 C1291 1.399 . S
C1290 C1295 1.399 . S
C1291 C1290 1.399 . S
C1291 C1292 1.376 . S
C1292 H1279 0.930 . S
C1292 C1291 1.376 . S
C1292 C1293 1.388 . S
C1293 H1280 0.930 . S
C1293 C1292 1.388 . S
C1293 C1294 1.390 1_565 S
C1294 C1293 1.390 1_545 S
C1294 C1295 1.394 1_545 S
C1294 C1300 1.465 . S
C1295 C1290 1.399 . S
C1295 C1294 1.394 1_565 S
C1295 C1296 1.516 1_565 S
C1296 C1295 1.516 1_545 S
C1296 C1297 1.502 . S
C1296 C1298 1.561 . S
C1296 C1299 1.526 . S
C1297 H1281 0.959 . S
C1297 H1282 0.959 . S
C1297 H1283 0.961 . S
C1297 C1296 1.502 . S
C1298 H1284 0.960 . S
C1298 H1285 0.961 . S
C1298 H1286 0.959 . S
C1298 C1296 1.561 . S
C1299 C1296 1.526 . S
C1299 C1300 1.396 . S
C1299 C1304 1.390 . S
C1300 C1294 1.465 . S
C1300 C1299 1.396 . S
C1300 C1301 1.399 . S
C1301 H1287 0.929 . S
C1301 C1300 1.399 . S
C1301 C1302 1.385 . S
C1302 H1288 0.931 . S
C1302 C1301 1.385 . S
C1302 C1303 1.389 . S
C1303 C1302 1.389 . S
C1303 C1304 1.387 . S
C1304 H1289 0.930 . S
C1304 C1299 1.390 . S
C1304 C1303 1.387 . S
H1305 C1317 0.930 . S
H1306 C1319 0.930 . S
H1307 C1320 0.930 . S
H1308 C1324 0.959 . S
H1309 C1324 0.959 . S
H1310 C1324 0.961 . S
H1311 C1325 0.960 . S
H1312 C1325 0.961 . S
H1313 C1325 0.959 . S
H1314 C1328 0.929 . S
H1315 C1329 0.931 . S
H1316 C1331 0.930 . S
C1317 H1305 0.930 . S
C1317 C1318 1.399 . S
C1317 C1322 1.399 . S
C1318 C1317 1.399 . S
C1318 C1319 1.376 . S
C1319 H1306 0.930 . S
C1319 C1318 1.376 . S
C1319 C1320 1.388 . S
C1320 H1307 0.930 . S
C1320 C1319 1.388 . S
C1320 C1321 1.390 1_455 S
C1321 C1320 1.390 1_655 S
C1321 C1322 1.394 1_655 S
C1321 C1327 1.465 . S
C1322 C1317 1.399 . S
C1322 C1321 1.394 1_455 S
C1322 C1323 1.516 1_455 S
C1323 C1322 1.516 1_655 S
C1323 C1324 1.502 . S
C1323 C1325 1.561 . S
C1323 C1326 1.526 . S
C1324 H1308 0.959 . S
C1324 H1309 0.959 . S
C1324 H1310 0.961 . S
C1324 C1323 1.502 . S
C1325 H1311 0.960 . S
C1325 H1312 0.961 . S
C1325 H1313 0.959 . S
C1325 C1323 1.561 . S
C1326 C1323 1.526 . S
C1326 C1327 1.396 . S
C1326 C1331 1.390 . S
C1327 C1321 1.465 . S
C1327 C1326 1.396 . S
C1327 C1328 1.399 . S
C1328 H1314 0.929 . S
C1328 C1327 1.399 . S
C1328 C1329 1.385 . S
C1329 H1315 0.931 . S
C1329 C1328 1.385 . S
C1329 C1330 1.389 . S
C1330 C1329 1.389 . S
C1330 C1331 1.387 . S
C1331 H1316 0.930 . S
C1331 C1326 1.390 . S
C1331 C1330 1.387 . S
H1332 C1344 0.930 . S
H1333 C1346 0.930 . S
H1334 C1347 0.930 . S
H1335 C1351 0.959 . S
H1336 C1351 0.959 . S
H1337 C1351 0.961 1_556 S
H1338 C1352 0.960 . S
H1339 C1352 0.961 . S
H1340 C1352 0.959 . S
H1341 C1355 0.929 . S
H1342 C1356 0.931 . S
H1343 C1358 0.930 . S
C1344 H1332 0.930 . S
C1344 C1345 1.399 . S
C1344 C1349 1.399 . S
C1345 C1344 1.399 . S
C1345 C1346 1.376 . S
C1346 H1333 0.930 . S
C1346 C1345 1.376 . S
C1346 C1347 1.388 . S
C1347 H1334 0.930 . S
C1347 C1346 1.388 . S
C1347 C1348 1.390 1_556 S
C1348 C1347 1.390 1_554 S
C1348 C1349 1.394 1_554 S
C1348 C1354 1.465 . S
C1349 C1344 1.399 . S
C1349 C1348 1.394 1_556 S
C1349 C1350 1.516 1_556 S
C1350 C1349 1.516 1_554 S
C1350 C1351 1.502 . S
C1350 C1352 1.561 . S
C1350 C1353 1.526 . S
C1351 H1335 0.959 . S
C1351 H1336 0.959 . S
C1351 H1337 0.961 1_554 S
C1351 C1350 1.502 . S
C1352 H1338 0.960 . S
C1352 H1339 0.961 . S
C1352 H1340 0.959 . S
C1352 C1350 1.561 . S
C1353 C1350 1.526 . S
C1353 C1354 1.396 . S
C1353 C1358 1.390 . S
C1354 C1348 1.465 . S
C1354 C1353 1.396 . S
C1354 C1355 1.399 . S
C1355 H1341 0.929 . S
C1355 C1354 1.399 . S
C1355 C1356 1.385 . S
C1356 H1342 0.931 . S
C1356 C1355 1.385 . S
C1356 C1357 1.389 . S
C1357 C1356 1.389 . S
C1357 C1358 1.387 . S
C1358 H1343 0.930 . S
C1358 C1353 1.390 . S
C1358 C1357 1.387 . S
H1359 C1371 0.930 . S
H1360 C1373 0.930 . S
H1361 C1374 0.930 . S
H1362 C1378 0.959 . S
H1363 C1378 0.997 . S
H1364 C1378 0.961 . S
H1365 C1379 0.960 . S
H1366 C1379 0.961 . S
H1367 C1379 0.959 . S
H1368 C1382 0.929 . S
H1369 C1383 0.931 . S
H1370 C1385 0.930 . S
C1371 H1359 0.930 . S
C1371 C1372 1.399 . S
C1371 C1376 1.399 . S
C1372 C1371 1.399 . S
C1372 C1373 1.376 . S
C1373 H1360 0.930 . S
C1373 C1372 1.376 . S
C1373 C1374 1.388 . S
C1374 H1361 0.930 . S
C1374 C1373 1.388 . S
C1374 C1375 1.390 . S
C1375 C1374 1.390 . S
C1375 C1376 1.394 . S
C1375 C1381 1.465 . S
C1376 C1371 1.399 . S
C1376 C1375 1.394 . S
C1376 C1377 1.516 . S
C1377 C1376 1.516 . S
C1377 C1378 1.502 . S
C1377 C1379 1.561 . S
C1377 C1380 1.526 1_554 S
C1378 H1362 0.959 . S
C1378 H1363 0.997 . S
C1378 H1364 0.961 . S
C1378 C1377 1.502 . S
C1379 H1365 0.960 . S
C1379 H1366 0.961 . S
C1379 H1367 0.959 . S
C1379 C1377 1.561 . S
C1380 C1377 1.526 1_556 S
C1380 C1381 1.396 1_556 S
C1380 C1385 1.390 . S
C1381 C1375 1.465 . S
C1381 C1380 1.396 1_554 S
C1381 C1382 1.399 1_554 S
C1382 H1368 0.929 . S
C1382 C1381 1.399 1_556 S
C1382 C1383 1.385 . S
C1383 H1369 0.931 . S
C1383 C1382 1.385 . S
C1383 C1384 1.389 . S
C1384 C1383 1.389 . S
C1384 C1385 1.387 . S
C1385 H1370 0.930 . S
C1385 C1380 1.390 . S
C1385 C1384 1.387 . S
H1386 C1398 0.930 . S
H1387 C1400 0.930 . S
H1388 C1401 0.930 1_554 S
H1389 C1405 0.959 . S
H1390 C1405 0.959 . S
H1391 C1405 0.961 1_556 S
H1392 C1406 0.960 1_556 S
H1393 C1406 0.961 . S
H1394 C1406 0.959 . S
H1395 C1409 0.929 . S
H1396 C1410 0.931 . S
H1397 C1412 0.930 . S
C1398 H1386 0.930 . S
C1398 C1399 1.399 . S
C1398 C1403 1.399 . S
C1399 C1398 1.399 . S
C1399 C1400 1.376 . S
C1400 H1387 0.930 . S
C1400 C1399 1.376 . S
C1400 C1401 1.388 . S
C1401 H1388 0.930 1_556 S
C1401 C1400 1.388 . S
C1401 C1402 1.390 1_556 S
C1402 C1401 1.390 1_554 S
C1402 C1403 1.394 1_554 S
C1402 C1408 1.465 . S
C1403 C1398 1.399 . S
C1403 C1402 1.394 1_556 S
C1403 C1404 1.516 1_556 S
C1404 C1403 1.516 1_554 S
C1404 C1405 1.502 . S
C1404 C1406 1.561 . S
C1404 C1407 1.526 . S
C1405 H1389 0.959 . S
C1405 H1390 0.959 . S
C1405 H1391 0.961 1_554 S
C1405 C1404 1.502 . S
C1406 H1392 0.960 1_554 S
C1406 H1393 0.961 . S
C1406 H1394 0.959 . S
C1406 C1404 1.561 . S
C1407 C1404 1.526 . S
C1407 C1408 1.396 . S
C1407 C1412 1.390 . S
C1408 C1402 1.465 . S
C1408 C1407 1.396 . S
C1408 C1409 1.399 . S
C1409 H1395 0.929 . S
C1409 C1408 1.399 . S
C1409 C1410 1.385 . S
C1410 H1396 0.931 . S
C1410 C1409 1.385 . S
C1410 C1411 1.389 . S
C1411 C1410 1.389 . S
C1411 C1412 1.387 . S
C1412 H1397 0.930 . S
C1412 C1407 1.390 . S
C1412 C1411 1.387 . S
H1413 C1425 0.930 . S
H1414 C1427 0.930 . S
H1415 C1428 0.930 . S
H1416 C1432 0.959 . S
H1417 C1432 0.959 1_556 S
H1418 C1432 0.961 . S
H1419 C1433 0.960 . S
H1420 C1433 0.961 1_556 S
H1421 C1433 0.959 . S
H1422 C1436 0.929 1_554 S
H1423 C1437 0.931 . S
H1424 C1439 0.930 . S
C1425 H1413 0.930 . S
C1425 C1426 1.399 . S
C1425 C1430 1.399 . S
C1426 C1425 1.399 . S
C1426 C1427 1.376 . S
C1427 H1414 0.930 . S
C1427 C1426 1.376 . S
C1427 C1428 1.388 . S
C1428 H1415 0.930 . S
C1428 C1427 1.388 . S
C1428 C1429 1.390 . S
C1429 C1428 1.390 . S
C1429 C1430 1.394 . S
C1429 C1435 1.465 . S
C1430 C1425 1.399 . S
C1430 C1429 1.394 . S
C1430 C1431 1.516 . S
C1431 C1430 1.516 . S
C1431 C1432 1.502 . S
C1431 C1433 1.561 . S
C1431 C1434 1.526 1_554 S
C1432 H1416 0.959 . S
C1432 H1417 0.959 1_554 S
C1432 H1418 0.961 . S
C1432 C1431 1.502 . S
C1433 H1419 0.960 . S
C1433 H1420 0.961 1_554 S
C1433 H1421 0.959 . S
C1433 C1431 1.561 . S
C1434 C1431 1.526 1_556 S
C1434 C1435 1.396 1_556 S
C1434 C1439 1.390 . S
C1435 C1429 1.465 . S
C1435 C1434 1.396 1_554 S
C1435 C1436 1.399 1_554 S
C1436 H1422 0.929 1_556 S
C1436 C1435 1.399 1_556 S
C1436 C1437 1.385 . S
C1437 H1423 0.931 . S
C1437 C1436 1.385 . S
C1437 C1438 1.389 . S
C1438 C1437 1.389 . S
C1438 C1439 1.387 . S
C1439 H1424 0.930 . S
C1439 C1434 1.390 . S
C1439 C1438 1.387 . S
H1440 C1452 0.930 . S
H1441 C1454 0.930 . S
H1442 C1455 0.930 . S
H1443 C1459 0.959 . S
H1444 C1459 0.959 . S
H1445 C1459 0.961 . S
H1446 C1460 0.960 . S
H1447 C1460 0.961 . S
H1448 C1460 0.959 . S
H1449 C1463 0.929 . S
H1450 C1464 0.931 . S
H1451 C1466 0.930 . S
C1452 H1440 0.930 . S
C1452 C1453 1.399 . S
C1452 C1457 1.399 . S
C1453 C1452 1.399 . S
C1453 C1454 1.376 . S
C1454 H1441 0.930 . S
C1454 C1453 1.376 . S
C1454 C1455 1.388 . S
C1455 H1442 0.930 . S
C1455 C1454 1.388 . S
C1455 C1456 1.390 1_554 S
C1456 C1455 1.390 1_556 S
C1456 C1457 1.394 1_556 S
C1456 C1462 1.465 . S
C1457 C1452 1.399 . S
C1457 C1456 1.394 1_554 S
C1457 C1458 1.516 1_554 S
C1458 C1457 1.516 1_556 S
C1458 C1459 1.502 . S
C1458 C1460 1.561 . S
C1458 C1461 1.526 . S
C1459 H1443 0.959 . S
C1459 H1444 0.959 . S
C1459 H1445 0.961 . S
C1459 C1458 1.502 . S
C1460 H1446 0.960 . S
C1460 H1447 0.961 . S
C1460 H1448 0.959 . S
C1460 C1458 1.561 . S
C1461 C1458 1.526 . S
C1461 C1462 1.396 . S
C1461 C1466 1.390 . S
C1462 C1456 1.465 . S
C1462 C1461 1.396 . S
C1462 C1463 1.399 . S
C1463 H1449 0.929 . S
C1463 C1462 1.399 . S
C1463 C1464 1.385 . S
C1464 H1450 0.931 . S
C1464 C1463 1.385 . S
C1464 C1465 1.389 . S
C1465 C1464 1.389 . S
C1465 C1466 1.387 . S
C1466 H1451 0.930 . S
C1466 C1461 1.390 . S
C1466 C1465 1.387 . S
H1467 C1479 0.930 . S
H1468 C1481 0.930 . S
H1469 C1482 0.930 . S
H1470 C1486 0.959 . S
H1471 C1486 0.959 1_554 S
H1472 C1486 0.961 . S
H1473 C1487 0.960 . S
H1474 C1487 0.961 1_554 S
H1475 C1487 0.959 . S
H1476 C1490 0.929 1_556 S
H1477 C1491 0.931 . S
H1478 C1493 0.930 . S
C1479 H1467 0.930 . S
C1479 C1480 1.399 . S
C1479 C1484 1.399 . S
C1480 C1479 1.399 . S
C1480 C1481 1.376 . S
C1481 H1468 0.930 . S
C1481 C1480 1.376 . S
C1481 C1482 1.388 . S
C1482 H1469 0.930 . S
C1482 C1481 1.388 . S
C1482 C1483 1.390 . S
C1483 C1482 1.390 . S
C1483 C1484 1.394 . S
C1483 C1489 1.465 . S
C1484 C1479 1.399 . S
C1484 C1483 1.394 . S
C1484 C1485 1.516 . S
C1485 C1484 1.516 . S
C1485 C1486 1.502 . S
C1485 C1487 1.561 . S
C1485 C1488 1.526 1_556 S
C1486 H1470 0.959 . S
C1486 H1471 0.959 1_556 S
C1486 H1472 0.961 . S
C1486 C1485 1.502 . S
C1487 H1473 0.960 . S
C1487 H1474 0.961 1_556 S
C1487 H1475 0.959 . S
C1487 C1485 1.561 . S
C1488 C1485 1.526 1_554 S
C1488 C1489 1.396 1_554 S
C1488 C1493 1.390 . S
C1489 C1483 1.465 . S
C1489 C1488 1.396 1_556 S
C1489 C1490 1.399 1_556 S
C1490 H1476 0.929 1_554 S
C1490 C1489 1.399 1_554 S
C1490 C1491 1.385 . S
C1491 H1477 0.931 . S
C1491 C1490 1.385 . S
C1491 C1492 1.389 . S
C1492 C1491 1.389 . S
C1492 C1493 1.387 . S
C1493 H1478 0.930 . S
C1493 C1488 1.390 . S
C1493 C1492 1.387 . S
H1494 C1506 0.930 . S
H1495 C1508 0.930 . S
H1496 C1509 0.930 . S
H1497 C1513 0.959 . S
H1498 C1513 0.959 . S
H1499 C1513 0.961 . S
H1500 C1514 0.960 . S
H1501 C1514 0.961 . S
H1502 C1514 0.959 . S
H1503 C1517 0.929 . S
H1504 C1518 0.931 . S
H1505 C1520 0.930 . S
C1506 H1494 0.930 . S
C1506 C1507 1.399 . S
C1506 C1511 1.399 . S
C1507 C1506 1.399 . S
C1507 C1508 1.376 . S
C1508 H1495 0.930 . S
C1508 C1507 1.376 . S
C1508 C1509 1.388 . S
C1509 H1496 0.930 . S
C1509 C1508 1.388 . S
C1509 C1510 1.390 1_554 S
C1510 C1509 1.390 1_556 S
C1510 C1511 1.394 1_556 S
C1510 C1516 1.465 . S
C1511 C1506 1.399 . S
C1511 C1510 1.394 1_554 S
C1511 C1512 1.516 1_554 S
C1512 C1511 1.516 1_556 S
C1512 C1513 1.502 . S
C1512 C1514 1.561 . S
C1512 C1515 1.526 . S
C1513 H1497 0.959 . S
C1513 H1498 0.959 . S
C1513 H1499 0.961 . S
C1513 C1512 1.502 . S
C1514 H1500 0.960 . S
C1514 H1501 0.961 . S
C1514 H1502 0.959 . S
C1514 C1512 1.561 . S
C1515 C1512 1.526 . S
C1515 C1516 1.396 . S
C1515 C1520 1.390 . S
C1516 C1510 1.465 . S
C1516 C1515 1.396 . S
C1516 C1517 1.399 . S
C1517 H1503 0.929 . S
C1517 C1516 1.399 . S
C1517 C1518 1.385 . S
C1518 H1504 0.931 . S
C1518 C1517 1.385 . S
C1518 C1519 1.389 . S
C1519 C1518 1.389 . S
C1519 C1520 1.387 . S
C1520 H1505 0.930 . S
C1520 C1515 1.390 . S
C1520 C1519 1.387 . S
H1521 C1533 0.930 . S
H1522 C1535 0.930 . S
H1523 C1536 0.930 . S
H1524 C1540 0.959 . S
H1525 C1540 0.959 1_554 S
H1526 C1540 0.961 . S
H1527 C1541 0.960 . S
H1528 C1541 0.961 1_554 S
H1529 C1541 0.959 . S
H1530 C1544 0.929 1_556 S
H1531 C1545 0.931 . S
H1532 C1547 0.930 . S
C1533 H1521 0.930 . S
C1533 C1534 1.399 . S
C1533 C1538 1.399 . S
C1534 C1533 1.399 . S
C1534 C1535 1.376 . S
C1535 H1522 0.930 . S
C1535 C1534 1.376 . S
C1535 C1536 1.388 . S
C1536 H1523 0.930 . S
C1536 C1535 1.388 . S
C1536 C1537 1.390 . S
C1537 C1536 1.390 . S
C1537 C1538 1.394 . S
C1537 C1543 1.465 . S
C1538 C1533 1.399 . S
C1538 C1537 1.394 . S
C1538 C1539 1.516 . S
C1539 C1538 1.516 . S
C1539 C1540 1.502 . S
C1539 C1541 1.561 . S
C1539 C1542 1.526 1_556 S
C1540 H1524 0.959 . S
C1540 H1525 0.959 1_556 S
C1540 H1526 0.961 . S
C1540 C1539 1.502 . S
C1541 H1527 0.960 . S
C1541 H1528 0.961 1_556 S
C1541 H1529 0.959 . S
C1541 C1539 1.561 . S
C1542 C1539 1.526 1_554 S
C1542 C1543 1.396 1_554 S
C1542 C1547 1.390 . S
C1543 C1537 1.465 . S
C1543 C1542 1.396 1_556 S
C1543 C1544 1.399 1_556 S
C1544 H1530 0.929 1_554 S
C1544 C1543 1.399 1_554 S
C1544 C1545 1.385 . S
C1545 H1531 0.931 . S
C1545 C1544 1.385 . S
C1545 C1546 1.389 . S
C1546 C1545 1.389 . S
C1546 C1547 1.387 . S
C1547 H1532 0.930 . S
C1547 C1542 1.390 . S
C1547 C1546 1.387 . S
H1548 C1560 0.930 . S
H1549 C1562 0.930 . S
H1550 C1563 0.930 . S
H1551 C1567 0.959 . S
H1552 C1567 0.959 . S
H1553 C1567 0.961 1_655 S
H1554 C1568 0.960 . S
H1555 C1568 0.961 . S
H1556 C1568 0.959 . S
H1557 C1571 0.929 . S
H1558 C1572 0.931 . S
H1559 C1574 0.930 . S
C1560 H1548 0.930 . S
C1560 C1561 1.399 . S
C1560 C1565 1.399 . S
C1561 C1560 1.399 . S
C1561 C1562 1.376 . S
C1562 H1549 0.930 . S
C1562 C1561 1.376 . S
C1562 C1563 1.388 . S
C1563 H1550 0.930 . S
C1563 C1562 1.388 . S
C1563 C1564 1.390 1_655 S
C1564 C1563 1.390 1_455 S
C1564 C1565 1.394 1_455 S
C1564 C1570 1.465 . S
C1565 C1560 1.399 . S
C1565 C1564 1.394 1_655 S
C1565 C1566 1.516 1_655 S
C1566 C1565 1.516 1_455 S
C1566 C1567 1.502 . S
C1566 C1568 1.561 . S
C1566 C1569 1.526 . S
C1567 H1551 0.959 . S
C1567 H1552 0.959 . S
C1567 H1553 0.961 1_455 S
C1567 C1566 1.502 . S
C1568 H1554 0.960 . S
C1568 H1555 0.961 . S
C1568 H1556 0.959 . S
C1568 C1566 1.561 . S
C1569 C1566 1.526 . S
C1569 C1570 1.396 . S
C1569 C1574 1.390 . S
C1570 C1564 1.465 . S
C1570 C1569 1.396 . S
C1570 C1571 1.399 . S
C1571 H1557 0.929 . S
C1571 C1570 1.399 . S
C1571 C1572 1.385 . S
C1572 H1558 0.931 . S
C1572 C1571 1.385 . S
C1572 C1573 1.389 . S
C1573 C1572 1.389 . S
C1573 C1574 1.387 . S
C1574 H1559 0.930 . S
C1574 C1569 1.390 . S
C1574 C1573 1.387 . S
H1575 C1587 0.930 . S
H1576 C1589 0.930 . S
H1577 C1590 0.930 . S
H1578 C1594 0.959 . S
H1579 C1594 0.959 . S
H1580 C1594 0.961 1_655 S
H1581 C1595 0.960 . S
H1582 C1595 0.961 . S
H1583 C1595 0.959 . S
H1584 C1598 0.929 . S
H1585 C1599 0.931 . S
H1586 C1601 0.930 . S
C1587 H1575 0.930 . S
C1587 C1588 1.399 . S
C1587 C1592 1.399 . S
C1588 C1587 1.399 . S
C1588 C1589 1.376 . S
C1589 H1576 0.930 . S
C1589 C1588 1.376 . S
C1589 C1590 1.388 . S
C1590 H1577 0.930 . S
C1590 C1589 1.388 . S
C1590 C1591 1.390 1_655 S
C1591 C1590 1.390 1_455 S
C1591 C1592 1.394 1_455 S
C1591 C1597 1.465 . S
C1592 C1587 1.399 . S
C1592 C1591 1.394 1_655 S
C1592 C1593 1.516 1_655 S
C1593 C1592 1.516 1_455 S
C1593 C1594 1.502 . S
C1593 C1595 1.561 . S
C1593 C1596 1.526 . S
C1594 H1578 0.959 . S
C1594 H1579 0.959 . S
C1594 H1580 0.961 1_455 S
C1594 C1593 1.502 . S
C1595 H1581 0.960 . S
C1595 H1582 0.961 . S
C1595 H1583 0.959 . S
C1595 C1593 1.561 . S
C1596 C1593 1.526 . S
C1596 C1597 1.396 . S
C1596 C1601 1.390 . S
C1597 C1591 1.465 . S
C1597 C1596 1.396 . S
C1597 C1598 1.399 . S
C1598 H1584 0.929 . S
C1598 C1597 1.399 . S
C1598 C1599 1.385 . S
C1599 H1585 0.931 . S
C1599 C1598 1.385 . S
C1599 C1600 1.389 . S
C1600 C1599 1.389 . S
C1600 C1601 1.387 . S
C1601 H1586 0.930 . S
C1601 C1596 1.390 . S
C1601 C1600 1.387 . S
H1602 C1614 0.930 . S
H1603 C1616 0.930 . S
H1604 C1617 0.930 . S
H1605 C1621 0.959 . S
H1606 C1621 0.959 . S
H1607 C1621 0.961 . S
H1608 C1622 0.960 . S
H1609 C1622 0.924 1_565 S
H1610 C1622 0.959 . S
H1611 C1625 0.929 . S
H1612 C1626 0.931 . S
H1613 C1628 0.930 . S
C1614 H1602 0.930 . S
C1614 C1615 1.399 . S
C1614 C1619 1.399 . S
C1615 C1614 1.399 . S
C1615 C1616 1.376 . S
C1616 H1603 0.930 . S
C1616 C1615 1.376 . S
C1616 C1617 1.388 . S
C1617 H1604 0.930 . S
C1617 C1616 1.388 . S
C1617 C1618 1.390 . S
C1618 C1617 1.390 . S
C1618 C1619 1.394 . S
C1618 C1624 1.465 . S
C1619 C1614 1.399 . S
C1619 C1618 1.394 . S
C1619 C1620 1.516 . S
C1620 C1619 1.516 . S
C1620 C1621 1.502 . S
C1620 C1622 1.561 . S
C1620 C1623 1.526 1_545 S
C1621 H1605 0.959 . S
C1621 H1606 0.959 . S
C1621 H1607 0.961 . S
C1621 C1620 1.502 . S
C1622 H1608 0.960 . S
C1622 H1609 0.924 1_545 S
C1622 H1610 0.959 . S
C1622 C1620 1.561 . S
C1623 C1620 1.526 1_565 S
C1623 C1624 1.396 1_565 S
C1623 C1628 1.390 . S
C1624 C1618 1.465 . S
C1624 C1623 1.396 1_545 S
C1624 C1625 1.399 1_545 S
C1625 H1611 0.929 . S
C1625 C1624 1.399 1_565 S
C1625 C1626 1.385 . S
C1626 H1612 0.931 . S
C1626 C1625 1.385 . S
C1626 C1627 1.389 . S
C1627 C1626 1.389 . S
C1627 C1628 1.387 . S
C1628 H1613 0.930 . S
C1628 C1623 1.390 . S
C1628 C1627 1.387 . S
H1629 C1641 0.930 . S
H1630 C1643 0.930 . S
H1631 C1644 0.930 . S
H1632 C1648 0.959 . S
H1633 C1648 0.973 . S
H1634 C1648 0.961 . S
H1635 C1649 0.960 . S
H1636 C1649 0.961 . S
H1637 C1649 0.959 . S
H1638 C1652 0.929 . S
H1639 C1653 0.931 . S
H1640 C1655 0.930 . S
C1641 H1629 0.930 . S
C1641 C1642 1.399 . S
C1641 C1646 1.399 . S
C1642 C1641 1.399 . S
C1642 C1643 1.376 . S
C1643 H1630 0.930 . S
C1643 C1642 1.376 . S
C1643 C1644 1.388 . S
C1644 H1631 0.930 . S
C1644 C1643 1.388 . S
C1644 C1645 1.390 . S
C1645 C1644 1.390 . S
C1645 C1646 1.394 . S
C1645 C1651 1.465 . S
C1646 C1641 1.399 . S
C1646 C1645 1.394 . S
C1646 C1647 1.516 . S
C1647 C1646 1.516 . S
C1647 C1648 1.502 . S
C1647 C1649 1.561 . S
C1647 C1650 1.526 1_655 S
C1648 H1632 0.959 . S
C1648 H1633 0.973 . S
C1648 H1634 0.961 . S
C1648 C1647 1.502 . S
C1649 H1635 0.960 . S
C1649 H1636 0.961 . S
C1649 H1637 0.959 . S
C1649 C1647 1.561 . S
C1650 C1647 1.526 1_455 S
C1650 C1651 1.396 1_455 S
C1650 C1655 1.390 . S
C1651 C1645 1.465 . S
C1651 C1650 1.396 1_655 S
C1651 C1652 1.399 1_655 S
C1652 H1638 0.929 . S
C1652 C1651 1.399 1_455 S
C1652 C1653 1.385 . S
C1653 H1639 0.931 . S
C1653 C1652 1.385 . S
C1653 C1654 1.389 . S
C1654 C1653 1.389 . S
C1654 C1655 1.387 . S
C1655 H1640 0.930 . S
C1655 C1650 1.390 . S
C1655 C1654 1.387 . S
H1656 C1668 0.930 . S
H1657 C1670 0.930 . S
H1658 C1671 0.928 . S
H1659 C1675 0.959 . S
H1660 C1675 0.959 . S
H1661 C1675 0.961 1_545 S
H1662 C1676 0.960 1_545 S
H1663 C1676 0.961 . S
H1664 C1676 0.959 . S
H1665 C1679 0.929 . S
H1666 C1680 0.931 . S
H1667 C1682 0.930 . S
C1668 H1656 0.930 . S
C1668 C1669 1.399 . S
C1668 C1673 1.399 . S
C1669 C1668 1.399 . S
C1669 C1670 1.376 . S
C1670 H1657 0.930 . S
C1670 C1669 1.376 . S
C1670 C1671 1.388 . S
C1671 H1658 0.928 . S
C1671 C1670 1.388 . S
C1671 C1672 1.390 1_545 S
C1672 C1671 1.390 1_565 S
C1672 C1673 1.394 1_565 S
C1672 C1678 1.465 . S
C1673 C1668 1.399 . S
C1673 C1672 1.394 1_545 S
C1673 C1674 1.516 1_545 S
C1674 C1673 1.516 1_565 S
C1674 C1675 1.502 . S
C1674 C1676 1.561 . S
C1674 C1677 1.526 . S
C1675 H1659 0.959 . S
C1675 H1660 0.959 . S
C1675 H1661 0.961 1_565 S
C1675 C1674 1.502 . S
C1676 H1662 0.960 1_565 S
C1676 H1663 0.961 . S
C1676 H1664 0.959 . S
C1676 C1674 1.561 . S
C1677 C1674 1.526 . S
C1677 C1678 1.396 . S
C1677 C1682 1.390 . S
C1678 C1672 1.465 . S
C1678 C1677 1.396 . S
C1678 C1679 1.399 . S
C1679 H1665 0.929 . S
C1679 C1678 1.399 . S
C1679 C1680 1.385 . S
C1680 H1666 0.931 . S
C1680 C1679 1.385 . S
C1680 C1681 1.389 . S
C1681 C1680 1.389 . S
C1681 C1682 1.387 . S
C1682 H1667 0.930 . S
C1682 C1677 1.390 . S
C1682 C1681 1.387 . S
H1683 C1695 0.930 . S
H1684 C1697 0.930 . S
H1685 C1698 0.930 . S
H1686 C1702 0.959 . S
H1687 C1702 0.959 . S
H1688 C1702 0.961 . S
H1689 C1703 0.960 . S
H1690 C1703 0.961 . S
H1691 C1703 0.959 . S
H1692 C1706 0.929 . S
H1693 C1707 0.931 . S
H1694 C1709 0.930 . S
C1695 H1683 0.930 . S
C1695 C1696 1.399 . S
C1695 C1700 1.399 . S
C1696 C1695 1.399 . S
C1696 C1697 1.376 . S
C1697 H1684 0.930 . S
C1697 C1696 1.376 . S
C1697 C1698 1.388 . S
C1698 H1685 0.930 . S
C1698 C1697 1.388 . S
C1698 C1699 1.390 1_455 S
C1699 C1698 1.390 1_655 S
C1699 C1700 1.394 1_655 S
C1699 C1705 1.465 . S
C1700 C1695 1.399 . S
C1700 C1699 1.394 1_455 S
C1700 C1701 1.516 1_455 S
C1701 C1700 1.516 1_655 S
C1701 C1702 1.502 . S
C1701 C1703 1.561 . S
C1701 C1704 1.526 . S
C1702 H1686 0.959 . S
C1702 H1687 0.959 . S
C1702 H1688 0.961 . S
C1702 C1701 1.502 . S
C1703 H1689 0.960 . S
C1703 H1690 0.961 . S
C1703 H1691 0.959 . S
C1703 C1701 1.561 . S
C1704 C1701 1.526 . S
C1704 C1705 1.396 . S
C1704 C1709 1.390 . S
C1705 C1699 1.465 . S
C1705 C1704 1.396 . S
C1705 C1706 1.399 . S
C1706 H1692 0.929 . S
C1706 C1705 1.399 . S
C1706 C1707 1.385 . S
C1707 H1693 0.931 . S
C1707 C1706 1.385 . S
C1707 C1708 1.389 . S
C1708 C1707 1.389 . S
C1708 C1709 1.387 . S
C1709 H1694 0.930 . S
C1709 C1704 1.390 . S
C1709 C1708 1.387 . S
H1710 C1722 0.930 . S
H1711 C1724 0.930 . S
H1712 C1725 0.924 1_565 S
H1713 C1729 0.959 . S
H1714 C1729 0.959 . S
H1715 C1729 0.961 1_545 S
H1716 C1730 0.993 . S
H1717 C1730 0.961 . S
H1718 C1730 0.959 . S
H1719 C1733 0.929 . S
H1720 C1734 0.931 . S
H1721 C1736 0.930 . S
C1722 H1710 0.930 . S
C1722 C1723 1.399 . S
C1722 C1727 1.399 . S
C1723 C1722 1.399 . S
C1723 C1724 1.376 . S
C1724 H1711 0.930 . S
C1724 C1723 1.376 . S
C1724 C1725 1.388 . S
C1725 H1712 0.924 1_545 S
C1725 C1724 1.388 . S
C1725 C1726 1.390 1_545 S
C1726 C1725 1.390 1_565 S
C1726 C1727 1.394 1_565 S
C1726 C1732 1.465 . S
C1727 C1722 1.399 . S
C1727 C1726 1.394 1_545 S
C1727 C1728 1.516 1_545 S
C1728 C1727 1.516 1_565 S
C1728 C1729 1.502 . S
C1728 C1730 1.561 . S
C1728 C1731 1.526 . S
C1729 H1713 0.959 . S
C1729 H1714 0.959 . S
C1729 H1715 0.961 1_565 S
C1729 C1728 1.502 . S
C1730 H1716 0.993 . S
C1730 H1717 0.961 . S
C1730 H1718 0.959 . S
C1730 C1728 1.561 . S
C1731 C1728 1.526 . S
C1731 C1732 1.396 . S
C1731 C1736 1.390 . S
C1732 C1726 1.465 . S
C1732 C1731 1.396 . S
C1732 C1733 1.399 . S
C1733 H1719 0.929 . S
C1733 C1732 1.399 . S
C1733 C1734 1.385 . S
C1734 H1720 0.931 . S
C1734 C1733 1.385 . S
C1734 C1735 1.389 . S
C1735 C1734 1.389 . S
C1735 C1736 1.387 . S
C1736 H1721 0.930 . S
C1736 C1731 1.390 . S
C1736 C1735 1.387 . S
H1737 C1749 0.930 . S
H1738 C1751 0.930 . S
H1739 C1752 0.930 . S
H1740 C1756 0.959 . S
H1741 C1756 0.959 1_565 S
H1742 C1756 0.961 . S
H1743 C1757 0.960 . S
H1744 C1757 0.961 . S
H1745 C1757 0.959 . S
H1746 C1760 0.929 . S
H1747 C1761 0.931 . S
H1748 C1763 0.930 . S
C1749 H1737 0.930 . S
C1749 C1750 1.399 . S
C1749 C1754 1.399 . S
C1750 C1749 1.399 . S
C1750 C1751 1.376 . S
C1751 H1738 0.930 . S
C1751 C1750 1.376 . S
C1751 C1752 1.388 . S
C1752 H1739 0.930 . S
C1752 C1751 1.388 . S
C1752 C1753 1.390 . S
C1753 C1752 1.390 . S
C1753 C1754 1.394 . S
C1753 C1759 1.465 . S
C1754 C1749 1.399 . S
C1754 C1753 1.394 . S
C1754 C1755 1.516 . S
C1755 C1754 1.516 . S
C1755 C1756 1.502 . S
C1755 C1757 1.561 . S
C1755 C1758 1.526 1_545 S
C1756 H1740 0.959 . S
C1756 H1741 0.959 1_545 S
C1756 H1742 0.961 . S
C1756 C1755 1.502 . S
C1757 H1743 0.960 . S
C1757 H1744 0.961 . S
C1757 H1745 0.959 . S
C1757 C1755 1.561 . S
C1758 C1755 1.526 1_565 S
C1758 C1759 1.396 1_565 S
C1758 C1763 1.390 . S
C1759 C1753 1.465 . S
C1759 C1758 1.396 1_545 S
C1759 C1760 1.399 1_545 S
C1760 H1746 0.929 . S
C1760 C1759 1.399 1_565 S
C1760 C1761 1.385 . S
C1761 H1747 0.931 . S
C1761 C1760 1.385 . S
C1761 C1762 1.389 . S
C1762 C1761 1.389 . S
C1762 C1763 1.387 . S
C1763 H1748 0.930 . S
C1763 C1758 1.390 . S
C1763 C1762 1.387 . S
H1764 C1776 0.930 . S
H1765 C1778 0.930 . S
H1766 C1779 0.930 . S
H1767 C1783 0.959 . S
H1768 C1783 0.959 . S
H1769 C1783 0.961 . S
H1770 C1784 0.960 . S
H1771 C1784 0.961 . S
H1772 C1784 0.959 . S
H1773 C1787 0.929 . S
H1774 C1788 0.931 . S
H1775 C1790 0.930 . S
C1776 H1764 0.930 . S
C1776 C1777 1.399 . S
C1776 C1781 1.399 . S
C1777 C1776 1.399 . S
C1777 C1778 1.376 . S
C1778 H1765 0.930 . S
C1778 C1777 1.376 . S
C1778 C1779 1.388 . S
C1779 H1766 0.930 . S
C1779 C1778 1.388 . S
C1779 C1780 1.390 . S
C1780 C1779 1.390 . S
C1780 C1781 1.394 . S
C1780 C1786 1.465 . S
C1781 C1776 1.399 . S
C1781 C1780 1.394 . S
C1781 C1782 1.516 . S
C1782 C1781 1.516 . S
C1782 C1783 1.502 . S
C1782 C1784 1.561 . S
C1782 C1785 1.526 . S
C1783 H1767 0.959 . S
C1783 H1768 0.959 . S
C1783 H1769 0.961 . S
C1783 C1782 1.502 . S
C1784 H1770 0.960 . S
C1784 H1771 0.961 . S
C1784 H1772 0.959 . S
C1784 C1782 1.561 . S
C1785 C1782 1.526 . S
C1785 C1786 1.396 . S
C1785 C1790 1.390 . S
C1786 C1780 1.465 . S
C1786 C1785 1.396 . S
C1786 C1787 1.399 . S
C1787 H1773 0.929 . S
C1787 C1786 1.399 . S
C1787 C1788 1.385 . S
C1788 H1774 0.931 . S
C1788 C1787 1.385 . S
C1788 C1789 1.389 . S
C1789 C1788 1.389 . S
C1789 C1790 1.387 . S
C1790 H1775 0.930 . S
C1790 C1785 1.390 . S
C1790 C1789 1.387 . S
H1791 C1803 0.930 . S
H1792 C1805 0.930 . S
H1793 C1806 0.930 . S
H1794 C1810 0.959 . S
H1795 C1810 0.959 . S
H1796 C1810 0.961 . S
H1797 C1811 0.960 . S
H1798 C1811 0.961 . S
H1799 C1811 0.959 . S
H1800 C1814 0.929 . S
H1801 C1815 0.931 . S
H1802 C1817 0.930 . S
C1803 H1791 0.930 . S
C1803 C1804 1.399 . S
C1803 C1808 1.399 . S
C1804 C1803 1.399 . S
C1804 C1805 1.376 . S
C1805 H1792 0.930 . S
C1805 C1804 1.376 . S
C1805 C1806 1.388 . S
C1806 H1793 0.930 . S
C1806 C1805 1.388 . S
C1806 C1807 1.390 . S
C1807 C1806 1.390 . S
C1807 C1808 1.394 . S
C1807 C1813 1.465 . S
C1808 C1803 1.399 . S
C1808 C1807 1.394 . S
C1808 C1809 1.516 . S
C1809 C1808 1.516 . S
C1809 C1810 1.502 . S
C1809 C1811 1.561 . S
C1809 C1812 1.526 . S
C1810 H1794 0.959 . S
C1810 H1795 0.959 . S
C1810 H1796 0.961 . S
C1810 C1809 1.502 . S
C1811 H1797 0.960 . S
C1811 H1798 0.961 . S
C1811 H1799 0.959 . S
C1811 C1809 1.561 . S
C1812 C1809 1.526 . S
C1812 C1813 1.396 . S
C1812 C1817 1.390 . S
C1813 C1807 1.465 . S
C1813 C1812 1.396 . S
C1813 C1814 1.399 . S
C1814 H1800 0.929 . S
C1814 C1813 1.399 . S
C1814 C1815 1.385 . S
C1815 H1801 0.931 . S
C1815 C1814 1.385 . S
C1815 C1816 1.389 . S
C1816 C1815 1.389 . S
C1816 C1817 1.387 . S
C1817 H1802 0.930 . S
C1817 C1812 1.390 . S
C1817 C1816 1.387 . S
H1818 C1830 0.930 . S
H1819 C1832 0.930 . S
H1820 C1833 0.930 . S
H1821 C1837 0.959 . S
H1822 C1837 0.959 . S
H1823 C1837 0.961 . S
H1824 C1838 0.960 . S
H1825 C1838 0.961 . S
H1826 C1838 0.959 . S
H1827 C1841 0.929 . S
H1828 C1842 0.931 . S
H1829 C1844 0.930 . S
C1830 H1818 0.930 . S
C1830 C1831 1.399 . S
C1830 C1835 1.399 . S
C1831 C1830 1.399 . S
C1831 C1832 1.376 . S
C1832 H1819 0.930 . S
C1832 C1831 1.376 . S
C1832 C1833 1.388 . S
C1833 H1820 0.930 . S
C1833 C1832 1.388 . S
C1833 C1834 1.390 . S
C1834 C1833 1.390 . S
C1834 C1835 1.394 . S
C1834 C1840 1.465 . S
C1835 C1830 1.399 . S
C1835 C1834 1.394 . S
C1835 C1836 1.516 . S
C1836 C1835 1.516 . S
C1836 C1837 1.502 . S
C1836 C1838 1.561 . S
C1836 C1839 1.526 . S
C1837 H1821 0.959 . S
C1837 H1822 0.959 . S
C1837 H1823 0.961 . S
C1837 C1836 1.502 . S
C1838 H1824 0.960 . S
C1838 H1825 0.961 . S
C1838 H1826 0.959 . S
C1838 C1836 1.561 . S
C1839 C1836 1.526 . S
C1839 C1840 1.396 . S
C1839 C1844 1.390 . S
C1840 C1834 1.465 . S
C1840 C1839 1.396 . S
C1840 C1841 1.399 . S
C1841 H1827 0.929 . S
C1841 C1840 1.399 . S
C1841 C1842 1.385 . S
C1842 H1828 0.931 . S
C1842 C1841 1.385 . S
C1842 C1843 1.389 . S
C1843 C1842 1.389 . S
C1843 C1844 1.387 . S
C1844 H1829 0.930 . S
C1844 C1839 1.390 . S
C1844 C1843 1.387 . S
H1845 C1857 0.930 . S
H1846 C1859 0.930 . S
H1847 C1860 0.930 . S
H1848 C1864 0.959 . S
H1849 C1864 0.959 . S
H1850 C1864 0.961 . S
H1851 C1865 0.960 . S
H1852 C1865 0.961 . S
H1853 C1865 0.959 . S
H1854 C1868 0.929 . S
H1855 C1869 0.931 . S
H1856 C1871 0.930 . S
C1857 H1845 0.930 . S
C1857 C1858 1.399 . S
C1857 C1862 1.399 . S
C1858 C1857 1.399 . S
C1858 C1859 1.376 . S
C1859 H1846 0.930 . S
C1859 C1858 1.376 . S
C1859 C1860 1.388 . S
C1860 H1847 0.930 . S
C1860 C1859 1.388 . S
C1860 C1861 1.390 . S
C1861 C1860 1.390 . S
C1861 C1862 1.394 . S
C1861 C1867 1.465 . S
C1862 C1857 1.399 . S
C1862 C1861 1.394 . S
C1862 C1863 1.516 . S
C1863 C1862 1.516 . S
C1863 C1864 1.502 . S
C1863 C1865 1.561 . S
C1863 C1866 1.526 . S
C1864 H1848 0.959 . S
C1864 H1849 0.959 . S
C1864 H1850 0.961 . S
C1864 C1863 1.502 . S
C1865 H1851 0.960 . S
C1865 H1852 0.961 . S
C1865 H1853 0.959 . S
C1865 C1863 1.561 . S
C1866 C1863 1.526 . S
C1866 C1867 1.396 . S
C1866 C1871 1.390 . S
C1867 C1861 1.465 . S
C1867 C1866 1.396 . S
C1867 C1868 1.399 . S
C1868 H1854 0.929 . S
C1868 C1867 1.399 . S
C1868 C1869 1.385 . S
C1869 H1855 0.931 . S
C1869 C1868 1.385 . S
C1869 C1870 1.389 . S
C1870 C1869 1.389 . S
C1870 C1871 1.387 . S
C1871 H1856 0.930 . S
C1871 C1866 1.390 . S
C1871 C1870 1.387 . S
H1872 C1884 0.930 . S
H1873 C1886 0.930 . S
H1874 C1887 0.930 . S
H1875 C1891 0.959 . S
H1876 C1891 0.959 . S
H1877 C1891 0.961 . S
H1878 C1892 0.960 . S
H1879 C1892 0.961 . S
H1880 C1892 0.959 . S
H1881 C1895 0.929 . S
H1882 C1896 0.931 . S
H1883 C1898 0.930 . S
C1884 H1872 0.930 . S
C1884 C1885 1.399 . S
C1884 C1889 1.399 . S
C1885 C1884 1.399 . S
C1885 C1886 1.376 . S
C1886 H1873 0.930 . S
C1886 C1885 1.376 . S
C1886 C1887 1.388 . S
C1887 H1874 0.930 . S
C1887 C1886 1.388 . S
C1887 C1888 1.390 . S
C1888 C1887 1.390 . S
C1888 C1889 1.394 . S
C1888 C1894 1.465 . S
C1889 C1884 1.399 . S
C1889 C1888 1.394 . S
C1889 C1890 1.516 . S
C1890 C1889 1.516 . S
C1890 C1891 1.502 . S
C1890 C1892 1.561 . S
C1890 C1893 1.526 . S
C1891 H1875 0.959 . S
C1891 H1876 0.959 . S
C1891 H1877 0.961 . S
C1891 C1890 1.502 . S
C1892 H1878 0.960 . S
C1892 H1879 0.961 . S
C1892 H1880 0.959 . S
C1892 C1890 1.561 . S
C1893 C1890 1.526 . S
C1893 C1894 1.396 . S
C1893 C1898 1.390 . S
C1894 C1888 1.465 . S
C1894 C1893 1.396 . S
C1894 C1895 1.399 . S
C1895 H1881 0.929 . S
C1895 C1894 1.399 . S
C1895 C1896 1.385 . S
C1896 H1882 0.931 . S
C1896 C1895 1.385 . S
C1896 C1897 1.389 . S
C1897 C1896 1.389 . S
C1897 C1898 1.387 . S
C1898 H1883 0.930 . S
C1898 C1893 1.390 . S
C1898 C1897 1.387 . S
H1899 C1911 0.930 . S
H1900 C1913 0.930 . S
H1901 C1914 0.930 . S
H1902 C1918 0.959 . S
H1903 C1918 0.959 . S
H1904 C1918 0.961 . S
H1905 C1919 0.960 . S
H1906 C1919 0.961 . S
H1907 C1919 0.959 . S
H1908 C1922 0.929 . S
H1909 C1923 0.931 . S
H1910 C1925 0.930 . S
C1911 H1899 0.930 . S
C1911 C1912 1.399 . S
C1911 C1916 1.399 . S
C1912 C1911 1.399 . S
C1912 C1913 1.376 . S
C1913 H1900 0.930 . S
C1913 C1912 1.376 . S
C1913 C1914 1.388 . S
C1914 H1901 0.930 . S
C1914 C1913 1.388 . S
C1914 C1915 1.390 . S
C1915 C1914 1.390 . S
C1915 C1916 1.394 . S
C1915 C1921 1.465 . S
C1916 C1911 1.399 . S
C1916 C1915 1.394 . S
C1916 C1917 1.516 . S
C1917 C1916 1.516 . S
C1917 C1918 1.502 . S
C1917 C1919 1.561 . S
C1917 C1920 1.526 . S
C1918 H1902 0.959 . S
C1918 H1903 0.959 . S
C1918 H1904 0.961 . S
C1918 C1917 1.502 . S
C1919 H1905 0.960 . S
C1919 H1906 0.961 . S
C1919 H1907 0.959 . S
C1919 C1917 1.561 . S
C1920 C1917 1.526 . S
C1920 C1921 1.396 . S
C1920 C1925 1.390 . S
C1921 C1915 1.465 . S
C1921 C1920 1.396 . S
C1921 C1922 1.399 . S
C1922 H1908 0.929 . S
C1922 C1921 1.399 . S
C1922 C1923 1.385 . S
C1923 H1909 0.931 . S
C1923 C1922 1.385 . S
C1923 C1924 1.389 . S
C1924 C1923 1.389 . S
C1924 C1925 1.387 . S
C1925 H1910 0.930 . S
C1925 C1920 1.390 . S
C1925 C1924 1.387 . S
H1926 C1938 0.930 . S
H1927 C1940 0.930 . S
H1928 C1941 0.930 . S
H1929 C1945 0.959 . S
H1930 C1945 0.959 . S
H1931 C1945 0.961 . S
H1932 C1946 0.960 . S
H1933 C1946 0.961 . S
H1934 C1946 0.959 . S
H1935 C1949 0.929 . S
H1936 C1950 0.931 . S
H1937 C1952 0.930 . S
C1938 H1926 0.930 . S
C1938 C1939 1.399 . S
C1938 C1943 1.399 . S
C1939 C1938 1.399 . S
C1939 C1940 1.376 . S
C1940 H1927 0.930 . S
C1940 C1939 1.376 . S
C1940 C1941 1.388 . S
C1941 H1928 0.930 . S
C1941 C1940 1.388 . S
C1941 C1942 1.390 . S
C1942 C1941 1.390 . S
C1942 C1943 1.394 . S
C1942 C1948 1.465 . S
C1943 C1938 1.399 . S
C1943 C1942 1.394 . S
C1943 C1944 1.516 . S
C1944 C1943 1.516 . S
C1944 C1945 1.502 . S
C1944 C1946 1.561 . S
C1944 C1947 1.526 . S
C1945 H1929 0.959 . S
C1945 H1930 0.959 . S
C1945 H1931 0.961 . S
C1945 C1944 1.502 . S
C1946 H1932 0.960 . S
C1946 H1933 0.961 . S
C1946 H1934 0.959 . S
C1946 C1944 1.561 . S
C1947 C1944 1.526 . S
C1947 C1948 1.396 . S
C1947 C1952 1.390 . S
C1948 C1942 1.465 . S
C1948 C1947 1.396 . S
C1948 C1949 1.399 . S
C1949 H1935 0.929 . S
C1949 C1948 1.399 . S
C1949 C1950 1.385 . S
C1950 H1936 0.931 . S
C1950 C1949 1.385 . S
C1950 C1951 1.389 . S
C1951 C1950 1.389 . S
C1951 C1952 1.387 . S
C1952 H1937 0.930 . S
C1952 C1947 1.390 . S
C1952 C1951 1.387 . S
H1953 C1965 0.930 . S
H1954 C1967 0.930 . S
H1955 C1968 0.930 . S
H1956 C1972 0.959 . S
H1957 C1972 0.959 . S
H1958 C1972 0.961 . S
H1959 C1973 0.960 . S
H1960 C1973 0.961 . S
H1961 C1973 0.959 . S
H1962 C1976 0.929 . S
H1963 C1977 0.931 . S
H1964 C1979 0.930 . S
C1965 H1953 0.930 . S
C1965 C1966 1.399 . S
C1965 C1970 1.399 . S
C1966 C1965 1.399 . S
C1966 C1967 1.376 . S
C1967 H1954 0.930 . S
C1967 C1966 1.376 . S
C1967 C1968 1.388 . S
C1968 H1955 0.930 . S
C1968 C1967 1.388 . S
C1968 C1969 1.390 . S
C1969 C1968 1.390 . S
C1969 C1970 1.394 . S
C1969 C1975 1.465 . S
C1970 C1965 1.399 . S
C1970 C1969 1.394 . S
C1970 C1971 1.516 . S
C1971 C1970 1.516 . S
C1971 C1972 1.502 . S
C1971 C1973 1.561 . S
C1971 C1974 1.526 . S
C1972 H1956 0.959 . S
C1972 H1957 0.959 . S
C1972 H1958 0.961 . S
C1972 C1971 1.502 . S
C1973 H1959 0.960 . S
C1973 H1960 0.961 . S
C1973 H1961 0.959 . S
C1973 C1971 1.561 . S
C1974 C1971 1.526 . S
C1974 C1975 1.396 . S
C1974 C1979 1.390 . S
C1975 C1969 1.465 . S
C1975 C1974 1.396 . S
C1975 C1976 1.399 . S
C1976 H1962 0.929 . S
C1976 C1975 1.399 . S
C1976 C1977 1.385 . S
C1977 H1963 0.931 . S
C1977 C1976 1.385 . S
C1977 C1978 1.389 . S
C1978 C1977 1.389 . S
C1978 C1979 1.387 . S
C1979 H1964 0.930 . S
C1979 C1974 1.390 . S
C1979 C1978 1.387 . S
H1980 C1992 0.930 . S
H1981 C1994 0.930 . S
H1982 C1995 0.930 . S
H1983 C1999 0.959 . S
H1984 C1999 0.959 . S
H1985 C1999 0.961 . S
H1986 C2000 0.960 . S
H1987 C2000 0.961 . S
H1988 C2000 0.959 . S
H1989 C2003 0.929 . S
H1990 C2004 0.931 . S
H1991 C2006 0.930 . S
C1992 H1980 0.930 . S
C1992 C1993 1.399 . S
C1992 C1997 1.399 . S
C1993 C1992 1.399 . S
C1993 C1994 1.376 . S
C1994 H1981 0.930 . S
C1994 C1993 1.376 . S
C1994 C1995 1.388 . S
C1995 H1982 0.930 . S
C1995 C1994 1.388 . S
C1995 C1996 1.390 . S
C1996 C1995 1.390 . S
C1996 C1997 1.394 . S
C1996 C2002 1.465 . S
C1997 C1992 1.399 . S
C1997 C1996 1.394 . S
C1997 C1998 1.516 . S
C1998 C1997 1.516 . S
C1998 C1999 1.502 . S
C1998 C2000 1.561 . S
C1998 C2001 1.526 . S
C1999 H1983 0.959 . S
C1999 H1984 0.959 . S
C1999 H1985 0.961 . S
C1999 C1998 1.502 . S
C2000 H1986 0.960 . S
C2000 H1987 0.961 . S
C2000 H1988 0.959 . S
C2000 C1998 1.561 . S
C2001 C1998 1.526 . S
C2001 C2002 1.396 . S
C2001 C2006 1.390 . S
C2002 C1996 1.465 . S
C2002 C2001 1.396 . S
C2002 C2003 1.399 . S
C2003 H1989 0.929 . S
C2003 C2002 1.399 . S
C2003 C2004 1.385 . S
C2004 H1990 0.931 . S
C2004 C2003 1.385 . S
C2004 C2005 1.389 . S
C2005 C2004 1.389 . S
C2005 C2006 1.387 . S
C2006 H1991 0.930 . S
C2006 C2001 1.390 . S
C2006 C2005 1.387 . S
H2007 C2019 0.930 . S
H2008 C2021 0.930 . S
H2009 C2022 0.930 . S
H2010 C2026 0.959 . S
H2011 C2026 0.959 . S
H2012 C2026 0.961 . S
H2013 C2027 0.960 . S
H2014 C2027 0.961 . S
H2015 C2027 0.959 . S
H2016 C2030 0.929 . S
H2017 C2031 0.931 . S
H2018 C2033 0.930 . S
C2019 H2007 0.930 . S
C2019 C2020 1.399 . S
C2019 C2024 1.399 . S
C2020 C2019 1.399 . S
C2020 C2021 1.376 . S
C2021 H2008 0.930 . S
C2021 C2020 1.376 . S
C2021 C2022 1.388 . S
C2022 H2009 0.930 . S
C2022 C2021 1.388 . S
C2022 C2023 1.390 . S
C2023 C2022 1.390 . S
C2023 C2024 1.394 . S
C2023 C2029 1.465 . S
C2024 C2019 1.399 . S
C2024 C2023 1.394 . S
C2024 C2025 1.516 . S
C2025 C2024 1.516 . S
C2025 C2026 1.502 . S
C2025 C2027 1.561 . S
C2025 C2028 1.526 . S
C2026 H2010 0.959 . S
C2026 H2011 0.959 . S
C2026 H2012 0.961 . S
C2026 C2025 1.502 . S
C2027 H2013 0.960 . S
C2027 H2014 0.961 . S
C2027 H2015 0.959 . S
C2027 C2025 1.561 . S
C2028 C2025 1.526 . S
C2028 C2029 1.396 . S
C2028 C2033 1.390 . S
C2029 C2023 1.465 . S
C2029 C2028 1.396 . S
C2029 C2030 1.399 . S
C2030 H2016 0.929 . S
C2030 C2029 1.399 . S
C2030 C2031 1.385 . S
C2031 H2017 0.931 . S
C2031 C2030 1.385 . S
C2031 C2032 1.389 . S
C2032 C2031 1.389 . S
C2032 C2033 1.387 . S
C2033 H2018 0.930 . S
C2033 C2028 1.390 . S
C2033 C2032 1.387 . S
H2034 C2046 0.930 . S
H2035 C2048 0.930 . S
H2036 C2049 0.930 . S
H2037 C2053 0.959 . S
H2038 C2053 0.959 . S
H2039 C2053 0.961 . S
H2040 C2054 0.960 . S
H2041 C2054 0.961 . S
H2042 C2054 0.959 . S
H2043 C2057 0.929 . S
H2044 C2058 0.931 . S
H2045 C2060 0.930 . S
C2046 H2034 0.930 . S
C2046 C2047 1.399 . S
C2046 C2051 1.399 . S
C2047 C2046 1.399 . S
C2047 C2048 1.376 . S
C2048 H2035 0.930 . S
C2048 C2047 1.376 . S
C2048 C2049 1.388 . S
C2049 H2036 0.930 . S
C2049 C2048 1.388 . S
C2049 C2050 1.390 . S
C2050 C2049 1.390 . S
C2050 C2051 1.394 . S
C2050 C2056 1.465 . S
C2051 C2046 1.399 . S
C2051 C2050 1.394 . S
C2051 C2052 1.516 . S
C2052 C2051 1.516 . S
C2052 C2053 1.502 . S
C2052 C2054 1.561 . S
C2052 C2055 1.526 . S
C2053 H2037 0.959 . S
C2053 H2038 0.959 . S
C2053 H2039 0.961 . S
C2053 C2052 1.502 . S
C2054 H2040 0.960 . S
C2054 H2041 0.961 . S
C2054 H2042 0.959 . S
C2054 C2052 1.561 . S
C2055 C2052 1.526 . S
C2055 C2056 1.396 . S
C2055 C2060 1.390 . S
C2056 C2050 1.465 . S
C2056 C2055 1.396 . S
C2056 C2057 1.399 . S
C2057 H2043 0.929 . S
C2057 C2056 1.399 . S
C2057 C2058 1.385 . S
C2058 H2044 0.931 . S
C2058 C2057 1.385 . S
C2058 C2059 1.389 . S
C2059 C2058 1.389 . S
C2059 C2060 1.387 . S
C2060 H2045 0.930 . S
C2060 C2055 1.390 . S
C2060 C2059 1.387 . S
H2061 C2073 0.930 . S
H2062 C2075 0.930 . S
H2063 C2076 0.930 . S
H2064 C2080 0.959 . S
H2065 C2080 0.959 . S
H2066 C2080 0.961 . S
H2067 C2081 0.960 . S
H2068 C2081 0.961 . S
H2069 C2081 0.959 . S
H2070 C2084 0.929 . S
H2071 C2085 0.931 . S
H2072 C2087 0.930 . S
C2073 H2061 0.930 . S
C2073 C2074 1.399 . S
C2073 C2078 1.399 . S
C2074 C2073 1.399 . S
C2074 C2075 1.376 . S
C2075 H2062 0.930 . S
C2075 C2074 1.376 . S
C2075 C2076 1.388 . S
C2076 H2063 0.930 . S
C2076 C2075 1.388 . S
C2076 C2077 1.390 . S
C2077 C2076 1.390 . S
C2077 C2078 1.394 . S
C2077 C2083 1.465 . S
C2078 C2073 1.399 . S
C2078 C2077 1.394 . S
C2078 C2079 1.516 . S
C2079 C2078 1.516 . S
C2079 C2080 1.502 . S
C2079 C2081 1.561 . S
C2079 C2082 1.526 . S
C2080 H2064 0.959 . S
C2080 H2065 0.959 . S
C2080 H2066 0.961 . S
C2080 C2079 1.502 . S
C2081 H2067 0.960 . S
C2081 H2068 0.961 . S
C2081 H2069 0.959 . S
C2081 C2079 1.561 . S
C2082 C2079 1.526 . S
C2082 C2083 1.396 . S
C2082 C2087 1.390 . S
C2083 C2077 1.465 . S
C2083 C2082 1.396 . S
C2083 C2084 1.399 . S
C2084 H2070 0.929 . S
C2084 C2083 1.399 . S
C2084 C2085 1.385 . S
C2085 H2071 0.931 . S
C2085 C2084 1.385 . S
C2085 C2086 1.389 . S
C2086 C2085 1.389 . S
C2086 C2087 1.387 . S
C2087 H2072 0.930 . S
C2087 C2082 1.390 . S
C2087 C2086 1.387 . S
H2088 C2100 0.930 . S
H2089 C2102 0.930 . S
H2090 C2103 0.930 . S
H2091 C2107 0.959 . S
H2092 C2107 0.959 . S
H2093 C2107 0.961 . S
H2094 C2108 0.960 . S
H2095 C2108 0.961 . S
H2096 C2108 0.959 . S
H2097 C2111 0.929 . S
H2098 C2112 0.931 . S
H2099 C2114 0.930 . S
C2100 H2088 0.930 . S
C2100 C2101 1.399 . S
C2100 C2105 1.399 . S
C2101 C2100 1.399 . S
C2101 C2102 1.376 . S
C2102 H2089 0.930 . S
C2102 C2101 1.376 . S
C2102 C2103 1.388 . S
C2103 H2090 0.930 . S
C2103 C2102 1.388 . S
C2103 C2104 1.390 . S
C2104 C2103 1.390 . S
C2104 C2105 1.394 . S
C2104 C2110 1.465 . S
C2105 C2100 1.399 . S
C2105 C2104 1.394 . S
C2105 C2106 1.516 . S
C2106 C2105 1.516 . S
C2106 C2107 1.502 . S
C2106 C2108 1.561 . S
C2106 C2109 1.526 . S
C2107 H2091 0.959 . S
C2107 H2092 0.959 . S
C2107 H2093 0.961 . S
C2107 C2106 1.502 . S
C2108 H2094 0.960 . S
C2108 H2095 0.961 . S
C2108 H2096 0.959 . S
C2108 C2106 1.561 . S
C2109 C2106 1.526 . S
C2109 C2110 1.396 . S
C2109 C2114 1.390 . S
C2110 C2104 1.465 . S
C2110 C2109 1.396 . S
C2110 C2111 1.399 . S
C2111 H2097 0.929 . S
C2111 C2110 1.399 . S
C2111 C2112 1.385 . S
C2112 H2098 0.931 . S
C2112 C2111 1.385 . S
C2112 C2113 1.389 . S
C2113 C2112 1.389 . S
C2113 C2114 1.387 . S
C2114 H2099 0.930 . S
C2114 C2109 1.390 . S
C2114 C2113 1.387 . S
H2115 C2127 0.930 . S
H2116 C2129 0.930 . S
H2117 C2130 0.930 . S
H2118 C2134 0.959 . S
H2119 C2134 0.959 . S
H2120 C2134 0.961 . S
H2121 C2135 0.960 . S
H2122 C2135 0.961 . S
H2123 C2135 0.959 . S
H2124 C2138 0.929 . S
H2125 C2139 0.931 . S
H2126 C2141 0.930 . S
C2127 H2115 0.930 . S
C2127 C2128 1.399 . S
C2127 C2132 1.399 . S
C2128 C2127 1.399 . S
C2128 C2129 1.376 . S
C2129 H2116 0.930 . S
C2129 C2128 1.376 . S
C2129 C2130 1.388 . S
C2130 H2117 0.930 . S
C2130 C2129 1.388 . S
C2130 C2131 1.390 . S
C2131 C2130 1.390 . S
C2131 C2132 1.394 . S
C2131 C2137 1.465 . S
C2132 C2127 1.399 . S
C2132 C2131 1.394 . S
C2132 C2133 1.516 . S
C2133 C2132 1.516 . S
C2133 C2134 1.502 . S
C2133 C2135 1.561 . S
C2133 C2136 1.526 . S
C2134 H2118 0.959 . S
C2134 H2119 0.959 . S
C2134 H2120 0.961 . S
C2134 C2133 1.502 . S
C2135 H2121 0.960 . S
C2135 H2122 0.961 . S
C2135 H2123 0.959 . S
C2135 C2133 1.561 . S
C2136 C2133 1.526 . S
C2136 C2137 1.396 . S
C2136 C2141 1.390 . S
C2137 C2131 1.465 . S
C2137 C2136 1.396 . S
C2137 C2138 1.399 . S
C2138 H2124 0.929 . S
C2138 C2137 1.399 . S
C2138 C2139 1.385 . S
C2139 H2125 0.931 . S
C2139 C2138 1.385 . S
C2139 C2140 1.389 . S
C2140 C2139 1.389 . S
C2140 C2141 1.387 . S
C2141 H2126 0.930 . S
C2141 C2136 1.390 . S
C2141 C2140 1.387 . S
H2142 C2154 0.930 . S
H2143 C2156 0.930 . S
H2144 C2157 0.930 . S
H2145 C2161 0.959 . S
H2146 C2161 0.959 . S
H2147 C2161 0.961 . S
H2148 C2162 0.960 . S
H2149 C2162 0.961 . S
H2150 C2162 0.959 . S
H2151 C2165 0.929 . S
H2152 C2166 0.931 . S
H2153 C2168 0.930 . S
C2154 H2142 0.930 . S
C2154 C2155 1.399 . S
C2154 C2159 1.399 . S
C2155 C2154 1.399 . S
C2155 C2156 1.376 . S
C2156 H2143 0.930 . S
C2156 C2155 1.376 . S
C2156 C2157 1.388 . S
C2157 H2144 0.930 . S
C2157 C2156 1.388 . S
C2157 C2158 1.390 . S
C2158 C2157 1.390 . S
C2158 C2159 1.394 . S
C2158 C2164 1.465 . S
C2159 C2154 1.399 . S
C2159 C2158 1.394 . S
C2159 C2160 1.516 . S
C2160 C2159 1.516 . S
C2160 C2161 1.502 . S
C2160 C2162 1.561 . S
C2160 C2163 1.526 . S
C2161 H2145 0.959 . S
C2161 H2146 0.959 . S
C2161 H2147 0.961 . S
C2161 C2160 1.502 . S
C2162 H2148 0.960 . S
C2162 H2149 0.961 . S
C2162 H2150 0.959 . S
C2162 C2160 1.561 . S
C2163 C2160 1.526 . S
C2163 C2164 1.396 . S
C2163 C2168 1.390 . S
C2164 C2158 1.465 . S
C2164 C2163 1.396 . S
C2164 C2165 1.399 . S
C2165 H2151 0.929 . S
C2165 C2164 1.399 . S
C2165 C2166 1.385 . S
C2166 H2152 0.931 . S
C2166 C2165 1.385 . S
C2166 C2167 1.389 . S
C2167 C2166 1.389 . S
C2167 C2168 1.387 . S
C2168 H2153 0.930 . S
C2168 C2163 1.390 . S
C2168 C2167 1.387 . S
H2169 C2181 0.930 . S
H2170 C2183 0.930 . S
H2171 C2184 0.930 . S
H2172 C2188 0.959 . S
H2173 C2188 0.959 . S
H2174 C2188 0.961 . S
H2175 C2189 0.960 . S
H2176 C2189 0.961 . S
H2177 C2189 0.959 . S
H2178 C2192 0.929 . S
H2179 C2193 0.931 . S
H2180 C2195 0.930 . S
C2181 H2169 0.930 . S
C2181 C2182 1.399 . S
C2181 C2186 1.399 . S
C2182 C2181 1.399 . S
C2182 C2183 1.376 . S
C2183 H2170 0.930 . S
C2183 C2182 1.376 . S
C2183 C2184 1.388 . S
C2184 H2171 0.930 . S
C2184 C2183 1.388 . S
C2184 C2185 1.390 . S
C2185 C2184 1.390 . S
C2185 C2186 1.394 . S
C2185 C2191 1.465 . S
C2186 C2181 1.399 . S
C2186 C2185 1.394 . S
C2186 C2187 1.516 . S
C2187 C2186 1.516 . S
C2187 C2188 1.502 . S
C2187 C2189 1.561 . S
C2187 C2190 1.526 . S
C2188 H2172 0.959 . S
C2188 H2173 0.959 . S
C2188 H2174 0.961 . S
C2188 C2187 1.502 . S
C2189 H2175 0.960 . S
C2189 H2176 0.961 . S
C2189 H2177 0.959 . S
C2189 C2187 1.561 . S
C2190 C2187 1.526 . S
C2190 C2191 1.396 . S
C2190 C2195 1.390 . S
C2191 C2185 1.465 . S
C2191 C2190 1.396 . S
C2191 C2192 1.399 . S
C2192 H2178 0.929 . S
C2192 C2191 1.399 . S
C2192 C2193 1.385 . S
C2193 H2179 0.931 . S
C2193 C2192 1.385 . S
C2193 C2194 1.389 . S
C2194 C2193 1.389 . S
C2194 C2195 1.387 . S
C2195 H2180 0.930 . S
C2195 C2190 1.390 . S
C2195 C2194 1.387 . S
H2196 C2208 0.930 . S
H2197 C2210 0.930 . S
H2198 C2211 0.930 . S
H2199 C2215 0.959 . S
H2200 C2215 0.959 . S
H2201 C2215 0.961 . S
H2202 C2216 0.960 . S
H2203 C2216 0.961 . S
H2204 C2216 0.959 . S
H2205 C2219 0.929 . S
H2206 C2220 0.931 . S
H2207 C2222 0.930 . S
C2208 H2196 0.930 . S
C2208 C2209 1.399 . S
C2208 C2213 1.399 . S
C2209 C2208 1.399 . S
C2209 C2210 1.376 . S
C2210 H2197 0.930 . S
C2210 C2209 1.376 . S
C2210 C2211 1.388 . S
C2211 H2198 0.930 . S
C2211 C2210 1.388 . S
C2211 C2212 1.390 . S
C2212 C2211 1.390 . S
C2212 C2213 1.394 . S
C2212 C2218 1.465 . S
C2213 C2208 1.399 . S
C2213 C2212 1.394 . S
C2213 C2214 1.516 . S
C2214 C2213 1.516 . S
C2214 C2215 1.502 . S
C2214 C2216 1.561 . S
C2214 C2217 1.526 . S
C2215 H2199 0.959 . S
C2215 H2200 0.959 . S
C2215 H2201 0.961 . S
C2215 C2214 1.502 . S
C2216 H2202 0.960 . S
C2216 H2203 0.961 . S
C2216 H2204 0.959 . S
C2216 C2214 1.561 . S
C2217 C2214 1.526 . S
C2217 C2218 1.396 . S
C2217 C2222 1.390 . S
C2218 C2212 1.465 . S
C2218 C2217 1.396 . S
C2218 C2219 1.399 . S
C2219 H2205 0.929 . S
C2219 C2218 1.399 . S
C2219 C2220 1.385 . S
C2220 H2206 0.931 . S
C2220 C2219 1.385 . S
C2220 C2221 1.389 . S
C2221 C2220 1.389 . S
C2221 C2222 1.387 . S
C2222 H2207 0.930 . S
C2222 C2217 1.390 . S
C2222 C2221 1.387 . S
H2223 C2235 0.930 . S
H2224 C2237 0.930 . S
H2225 C2238 0.930 . S
H2226 C2242 0.959 . S
H2227 C2242 0.959 . S
H2228 C2242 0.961 . S
H2229 C2243 0.960 . S
H2230 C2243 0.961 . S
H2231 C2243 0.959 . S
H2232 C2246 0.929 . S
H2233 C2247 0.931 . S
H2234 C2249 0.930 . S
C2235 H2223 0.930 . S
C2235 C2236 1.399 . S
C2235 C2240 1.399 . S
C2236 C2235 1.399 . S
C2236 C2237 1.376 . S
C2237 H2224 0.930 . S
C2237 C2236 1.376 . S
C2237 C2238 1.388 . S
C2238 H2225 0.930 . S
C2238 C2237 1.388 . S
C2238 C2239 1.390 . S
C2239 C2238 1.390 . S
C2239 C2240 1.394 . S
C2239 C2245 1.465 . S
C2240 C2235 1.399 . S
C2240 C2239 1.394 . S
C2240 C2241 1.516 . S
C2241 C2240 1.516 . S
C2241 C2242 1.502 . S
C2241 C2243 1.561 . S
C2241 C2244 1.526 . S
C2242 H2226 0.959 . S
C2242 H2227 0.959 . S
C2242 H2228 0.961 . S
C2242 C2241 1.502 . S
C2243 H2229 0.960 . S
C2243 H2230 0.961 . S
C2243 H2231 0.959 . S
C2243 C2241 1.561 . S
C2244 C2241 1.526 . S
C2244 C2245 1.396 . S
C2244 C2249 1.390 . S
C2245 C2239 1.465 . S
C2245 C2244 1.396 . S
C2245 C2246 1.399 . S
C2246 H2232 0.929 . S
C2246 C2245 1.399 . S
C2246 C2247 1.385 . S
C2247 H2233 0.931 . S
C2247 C2246 1.385 . S
C2247 C2248 1.389 . S
C2248 C2247 1.389 . S
C2248 C2249 1.387 . S
C2249 H2234 0.930 . S
C2249 C2244 1.390 . S
C2249 C2248 1.387 . S
H2250 C2262 0.930 . S
H2251 C2264 0.930 . S
H2252 C2265 0.930 . S
H2253 C2269 0.959 . S
H2254 C2269 0.959 . S
H2255 C2269 0.961 . S
H2256 C2270 0.960 . S
H2257 C2270 0.961 . S
H2258 C2270 0.959 . S
H2259 C2273 0.929 . S
H2260 C2274 0.931 . S
H2261 C2276 0.930 . S
C2262 H2250 0.930 . S
C2262 C2263 1.399 . S
C2262 C2267 1.399 . S
C2263 C2262 1.399 . S
C2263 C2264 1.376 . S
C2264 H2251 0.930 . S
C2264 C2263 1.376 . S
C2264 C2265 1.388 . S
C2265 H2252 0.930 . S
C2265 C2264 1.388 . S
C2265 C2266 1.390 . S
C2266 C2265 1.390 . S
C2266 C2267 1.394 . S
C2266 C2272 1.465 . S
C2267 C2262 1.399 . S
C2267 C2266 1.394 . S
C2267 C2268 1.516 . S
C2268 C2267 1.516 . S
C2268 C2269 1.502 . S
C2268 C2270 1.561 . S
C2268 C2271 1.526 . S
C2269 H2253 0.959 . S
C2269 H2254 0.959 . S
C2269 H2255 0.961 . S
C2269 C2268 1.502 . S
C2270 H2256 0.960 . S
C2270 H2257 0.961 . S
C2270 H2258 0.959 . S
C2270 C2268 1.561 . S
C2271 C2268 1.526 . S
C2271 C2272 1.396 . S
C2271 C2276 1.390 . S
C2272 C2266 1.465 . S
C2272 C2271 1.396 . S
C2272 C2273 1.399 . S
C2273 H2259 0.929 . S
C2273 C2272 1.399 . S
C2273 C2274 1.385 . S
C2274 H2260 0.931 . S
C2274 C2273 1.385 . S
C2274 C2275 1.389 . S
C2275 C2274 1.389 . S
C2275 C2276 1.387 . S
C2276 H2261 0.930 . S
C2276 C2271 1.390 . S
C2276 C2275 1.387 . S
H2277 C2289 0.930 . S
H2278 C2291 0.930 . S
H2279 C2292 0.930 . S
H2280 C2296 0.959 . S
H2281 C2296 0.959 . S
H2282 C2296 0.961 . S
H2283 C2297 0.960 . S
H2284 C2297 0.961 . S
H2285 C2297 0.959 . S
H2286 C2300 0.929 . S
H2287 C2301 0.931 . S
H2288 C2303 0.930 . S
C2289 H2277 0.930 . S
C2289 C2290 1.399 . S
C2289 C2294 1.399 . S
C2290 C2289 1.399 . S
C2290 C2291 1.376 . S
C2291 H2278 0.930 . S
C2291 C2290 1.376 . S
C2291 C2292 1.388 . S
C2292 H2279 0.930 . S
C2292 C2291 1.388 . S
C2292 C2293 1.390 . S
C2293 C2292 1.390 . S
C2293 C2294 1.394 . S
C2293 C2299 1.465 . S
C2294 C2289 1.399 . S
C2294 C2293 1.394 . S
C2294 C2295 1.516 . S
C2295 C2294 1.516 . S
C2295 C2296 1.502 . S
C2295 C2297 1.561 . S
C2295 C2298 1.526 . S
C2296 H2280 0.959 . S
C2296 H2281 0.959 . S
C2296 H2282 0.961 . S
C2296 C2295 1.502 . S
C2297 H2283 0.960 . S
C2297 H2284 0.961 . S
C2297 H2285 0.959 . S
C2297 C2295 1.561 . S
C2298 C2295 1.526 . S
C2298 C2299 1.396 . S
C2298 C2303 1.390 . S
C2299 C2293 1.465 . S
C2299 C2298 1.396 . S
C2299 C2300 1.399 . S
C2300 H2286 0.929 . S
C2300 C2299 1.399 . S
C2300 C2301 1.385 . S
C2301 H2287 0.931 . S
C2301 C2300 1.385 . S
C2301 C2302 1.389 . S
C2302 C2301 1.389 . S
C2302 C2303 1.387 . S
C2303 H2288 0.930 . S
C2303 C2298 1.390 . S
C2303 C2302 1.387 . S
H2304 C2316 0.930 . S
H2305 C2318 0.930 . S
H2306 C2319 0.930 . S
H2307 C2323 0.959 . S
H2308 C2323 0.959 . S
H2309 C2323 0.961 . S
H2310 C2324 0.960 . S
H2311 C2324 0.961 . S
H2312 C2324 0.959 . S
H2313 C2327 0.929 . S
H2314 C2328 0.931 . S
H2315 C2330 0.930 . S
C2316 H2304 0.930 . S
C2316 C2317 1.399 . S
C2316 C2321 1.399 . S
C2317 C2316 1.399 . S
C2317 C2318 1.376 . S
C2318 H2305 0.930 . S
C2318 C2317 1.376 . S
C2318 C2319 1.388 . S
C2319 H2306 0.930 . S
C2319 C2318 1.388 . S
C2319 C2320 1.390 . S
C2320 C2319 1.390 . S
C2320 C2321 1.394 . S
C2320 C2326 1.465 . S
C2321 C2316 1.399 . S
C2321 C2320 1.394 . S
C2321 C2322 1.516 . S
C2322 C2321 1.516 . S
C2322 C2323 1.502 . S
C2322 C2324 1.561 . S
C2322 C2325 1.526 . S
C2323 H2307 0.959 . S
C2323 H2308 0.959 . S
C2323 H2309 0.961 . S
C2323 C2322 1.502 . S
C2324 H2310 0.960 . S
C2324 H2311 0.961 . S
C2324 H2312 0.959 . S
C2324 C2322 1.561 . S
C2325 C2322 1.526 . S
C2325 C2326 1.396 . S
C2325 C2330 1.390 . S
C2326 C2320 1.465 . S
C2326 C2325 1.396 . S
C2326 C2327 1.399 . S
C2327 H2313 0.929 . S
C2327 C2326 1.399 . S
C2327 C2328 1.385 . S
C2328 H2314 0.931 . S
C2328 C2327 1.385 . S
C2328 C2329 1.389 . S
C2329 C2328 1.389 . S
C2329 C2330 1.387 . S
C2330 H2315 0.930 . S
C2330 C2325 1.390 . S
C2330 C2329 1.387 . S
H2331 C2343 0.930 . S
H2332 C2345 0.930 . S
H2333 C2346 0.930 . S
H2334 C2350 0.959 . S
H2335 C2350 0.959 . S
H2336 C2350 0.961 . S
H2337 C2351 0.960 . S
H2338 C2351 0.961 . S
H2339 C2351 0.959 . S
H2340 C2354 0.929 . S
H2341 C2355 0.931 . S
H2342 C2357 0.930 . S
C2343 H2331 0.930 . S
C2343 C2344 1.399 . S
C2343 C2348 1.399 . S
C2344 C2343 1.399 . S
C2344 C2345 1.376 . S
C2345 H2332 0.930 . S
C2345 C2344 1.376 . S
C2345 C2346 1.388 . S
C2346 H2333 0.930 . S
C2346 C2345 1.388 . S
C2346 C2347 1.390 . S
C2347 C2346 1.390 . S
C2347 C2348 1.394 . S
C2347 C2353 1.465 . S
C2348 C2343 1.399 . S
C2348 C2347 1.394 . S
C2348 C2349 1.516 . S
C2349 C2348 1.516 . S
C2349 C2350 1.502 . S
C2349 C2351 1.561 . S
C2349 C2352 1.526 . S
C2350 H2334 0.959 . S
C2350 H2335 0.959 . S
C2350 H2336 0.961 . S
C2350 C2349 1.502 . S
C2351 H2337 0.960 . S
C2351 H2338 0.961 . S
C2351 H2339 0.959 . S
C2351 C2349 1.561 . S
C2352 C2349 1.526 . S
C2352 C2353 1.396 . S
C2352 C2357 1.390 . S
C2353 C2347 1.465 . S
C2353 C2352 1.396 . S
C2353 C2354 1.399 . S
C2354 H2340 0.929 . S
C2354 C2353 1.399 . S
C2354 C2355 1.385 . S
C2355 H2341 0.931 . S
C2355 C2354 1.385 . S
C2355 C2356 1.389 . S
C2356 C2355 1.389 . S
C2356 C2357 1.387 . S
C2357 H2342 0.930 . S
C2357 C2352 1.390 . S
C2357 C2356 1.387 . S
H2358 C2370 0.930 . S
H2359 C2372 0.930 . S
H2360 C2373 0.930 . S
H2361 C2377 0.959 . S
H2362 C2377 0.959 . S
H2363 C2377 0.961 . S
H2364 C2378 0.960 . S
H2365 C2378 0.961 . S
H2366 C2378 0.959 . S
H2367 C2381 0.929 . S
H2368 C2382 0.931 . S
H2369 C2384 0.930 . S
C2370 H2358 0.930 . S
C2370 C2371 1.399 . S
C2370 C2375 1.399 . S
C2371 C2370 1.399 . S
C2371 C2372 1.376 . S
C2372 H2359 0.930 . S
C2372 C2371 1.376 . S
C2372 C2373 1.388 . S
C2373 H2360 0.930 . S
C2373 C2372 1.388 . S
C2373 C2374 1.390 . S
C2374 C2373 1.390 . S
C2374 C2375 1.394 . S
C2374 C2380 1.465 . S
C2375 C2370 1.399 . S
C2375 C2374 1.394 . S
C2375 C2376 1.516 . S
C2376 C2375 1.516 . S
C2376 C2377 1.502 . S
C2376 C2378 1.561 . S
C2376 C2379 1.526 . S
C2377 H2361 0.959 . S
C2377 H2362 0.959 . S
C2377 H2363 0.961 . S
C2377 C2376 1.502 . S
C2378 H2364 0.960 . S
C2378 H2365 0.961 . S
C2378 H2366 0.959 . S
C2378 C2376 1.561 . S
C2379 C2376 1.526 . S
C2379 C2380 1.396 . S
C2379 C2384 1.390 . S
C2380 C2374 1.465 . S
C2380 C2379 1.396 . S
C2380 C2381 1.399 . S
C2381 H2367 0.929 . S
C2381 C2380 1.399 . S
C2381 C2382 1.385 . S
C2382 H2368 0.931 . S
C2382 C2381 1.385 . S
C2382 C2383 1.389 . S
C2383 C2382 1.389 . S
C2383 C2384 1.387 . S
C2384 H2369 0.930 . S
C2384 C2379 1.390 . S
C2384 C2383 1.387 . S
H2385 C2397 0.930 . S
H2386 C2399 0.930 . S
H2387 C2400 0.930 . S
H2388 C2404 0.959 . S
H2389 C2404 0.959 . S
H2390 C2404 0.961 . S
H2391 C2405 0.960 . S
H2392 C2405 0.961 . S
H2393 C2405 0.959 . S
H2394 C2408 0.929 . S
H2395 C2409 0.931 . S
H2396 C2411 0.930 . S
C2397 H2385 0.930 . S
C2397 C2398 1.399 . S
C2397 C2402 1.399 . S
C2398 C2397 1.399 . S
C2398 C2399 1.376 . S
C2399 H2386 0.930 . S
C2399 C2398 1.376 . S
C2399 C2400 1.388 . S
C2400 H2387 0.930 . S
C2400 C2399 1.388 . S
C2400 C2401 1.390 . S
C2401 C2400 1.390 . S
C2401 C2402 1.394 . S
C2401 C2407 1.465 . S
C2402 C2397 1.399 . S
C2402 C2401 1.394 . S
C2402 C2403 1.516 . S
C2403 C2402 1.516 . S
C2403 C2404 1.502 . S
C2403 C2405 1.561 . S
C2403 C2406 1.526 . S
C2404 H2388 0.959 . S
C2404 H2389 0.959 . S
C2404 H2390 0.961 . S
C2404 C2403 1.502 . S
C2405 H2391 0.960 . S
C2405 H2392 0.961 . S
C2405 H2393 0.959 . S
C2405 C2403 1.561 . S
C2406 C2403 1.526 . S
C2406 C2407 1.396 . S
C2406 C2411 1.390 . S
C2407 C2401 1.465 . S
C2407 C2406 1.396 . S
C2407 C2408 1.399 . S
C2408 H2394 0.929 . S
C2408 C2407 1.399 . S
C2408 C2409 1.385 . S
C2409 H2395 0.931 . S
C2409 C2408 1.385 . S
C2409 C2410 1.389 . S
C2410 C2409 1.389 . S
C2410 C2411 1.387 . S
C2411 H2396 0.930 . S
C2411 C2406 1.390 . S
C2411 C2410 1.387 . S
C805 C182 1.003 . S
C817 C17 1.049 . S
C832 C50 1.030 . S
C844 C215 0.987 . S
C859 C83 0.982 . S
C871 C248 0.984 . S
C886 C149 1.066 . S
C898 C116 1.027 . S
C913 C281 0.983 . S
C925 C776 0.983 . S
C940 C710 0.989 . S
C952 C314 1.034 . S
C967 C347 0.988 . S
C979 C743 1.033 . S
C994 C545 1.033 . S
C1006 C380 0.989 . S
C1021 C413 0.977 . S
C1033 C677 0.994 . S
C1048 C446 0.976 . S
C1060 C578 0.995 . S
C1075 C611 1.060 . S
C1087 C479 1.069 . S
C1102 C512 1.070 . S
C1114 C644 1.059 . S
C1129 N104 1.684 . S
C1141 C28 1.727 . S
C1156 C61 1.703 . S
C1168 N5 1.671 . S
C1183 C94 1.724 . S
C1195 N38 1.623 . S
C1210 N71 1.649 . S
C1222 C127 1.710 . S
C1237 N170 1.692 . S
C1249 C160 1.706 . S
C1264 C193 1.724 . S
C1276 N203 1.686 . S
C1291 N236 1.610 . S
C1303 C226 1.734 . S
C1318 N137 1.641 . S
C1330 C259 1.752 . S
C1345 N599 1.650 . S
C1357 C292 1.710 . S
C1372 C325 1.727 . S
C1384 N632 1.684 . S
C1399 N665 1.685 . S
C1411 C358 1.703 . S
C1426 C391 1.702 . S
C1438 N566 1.684 . S
C1453 N731 1.638 . S
C1465 C424 1.753 . S
C1480 C457 1.702 . S
C1492 N533 1.676 . S
C1507 N764 1.634 . S
C1519 C490 1.754 . S
C1534 C523 1.704 . S
C1546 N698 1.664 . S
C1561 N302 1.653 . S
C1573 C556 1.709 . S
C1588 N500 1.646 . S
C1600 C589 1.712 . S
C1615 C622 1.735 . S
C1627 N401 1.610 . S
C1642 C655 1.726 . S
C1654 N434 1.685 . S
C1669 N467 1.690 . S
C1681 C688 1.720 . S
C1696 N368 1.629 . S
C1708 C721 1.755 . S
C1723 N269 1.664 . S
C1735 C754 1.705 . S
C1750 C787 1.720 . S
C1762 N335 1.689 . S
C1777 C8 1.256 . S
C1789 N542 1.176 . S
C1804 N773 1.184 . S
C1816 C41 1.253 . S
C1831 C74 1.231 . S
C1843 N707 1.224 . S
C1858 N740 1.252 . S
C1870 C107 1.216 . S
C1885 C140 1.260 . S
C1897 N575 1.168 . S
C1912 C173 1.271 . S
C1924 N608 1.149 . S
C1939 N641 1.144 . S
C1951 C206 1.272 . S
C1966 N674 1.151 . S
C1978 C239 1.268 . S
C1993 N14 1.191 . S
C2005 C272 1.249 . S
C2020 C305 1.221 . S
C2032 N47 1.241 . S
C2047 C338 1.216 . S
C2059 N80 1.249 . S
C2074 C371 1.218 . S
C2086 N113 1.247 . S
C2101 C404 1.216 . S
C2113 N146 1.250 . S
C2128 C437 1.247 . S
C2140 N179 1.195 . S
C2155 C470 1.214 . S
C2167 N212 1.252 . S
C2182 C503 1.242 . S
C2194 N245 1.204 . S
C2209 N278 1.218 . S
C2221 C536 1.233 . S
C2236 C569 1.272 . S
C2248 N410 1.147 . S
C2263 C602 1.250 . S
C2275 N443 1.190 . S
C2290 N476 1.192 . S
C2302 C635 1.249 . S
C2317 C668 1.270 . S
C2329 N509 1.150 . S
C2344 N344 1.199 . S
C2356 C701 1.243 . S
C2371 N377 1.187 . S
C2383 C734 1.250 . S
C2398 C767 1.272 . S
C2410 N311 1.146 . S
