# Generated by pormake.
# Topology sod, (4)-cn, num edge types: 1
# Building blocks:
#     Node 0, Type 0, BuildingBlock: CEKHIL_clean_sbu_0, # of connection points: 4
#     Node 1, Type 0, BuildingBlock: CEKHIL_clean_sbu_0, # of connection points: 4
#     Node 2, Type 0, BuildingBlock: CEKHIL_clean_sbu_0, # of connection points: 4
#     Node 3, Type 0, BuildingBlock: CEKHIL_clean_sbu_0, # of connection points: 4
#     Node 4, Type 0, BuildingBlock: CEKHIL_clean_sbu_0, # of connection points: 4
#     Node 5, Type 0, BuildingBlock: CEKHIL_clean_sbu_0, # of connection points: 4
#     Node 6, Type 0, BuildingBlock: CEKHIL_clean_sbu_0, # of connection points: 4
#     Node 7, Type 0, BuildingBlock: CEKHIL_clean_sbu_0, # of connection points: 4
#     Node 8, Type 0, BuildingBlock: CEKHIL_clean_sbu_0, # of connection points: 4
#     Node 9, Type 0, BuildingBlock: CEKHIL_clean_sbu_0, # of connection points: 4
#     Node 10, Type 0, BuildingBlock: CEKHIL_clean_sbu_0, # of connection points: 4
#     Node 11, Type 0, BuildingBlock: CEKHIL_clean_sbu_0, # of connection points: 4
#     Edge 12, Type (0, 0), BuildingBlock: AJUNOK_clean_linker_0, # of connection points: 2
#     Edge 13, Type (0, 0), BuildingBlock: AJUNOK_clean_linker_0, # of connection points: 2
#     Edge 14, Type (0, 0), BuildingBlock: AJUNOK_clean_linker_0, # of connection points: 2
#     Edge 15, Type (0, 0), BuildingBlock: AJUNOK_clean_linker_0, # of connection points: 2
#     Edge 16, Type (0, 0), BuildingBlock: AJUNOK_clean_linker_0, # of connection points: 2
#     Edge 17, Type (0, 0), BuildingBlock: AJUNOK_clean_linker_0, # of connection points: 2
#     Edge 18, Type (0, 0), BuildingBlock: AJUNOK_clean_linker_0, # of connection points: 2
#     Edge 19, Type (0, 0), BuildingBlock: AJUNOK_clean_linker_0, # of connection points: 2
#     Edge 20, Type (0, 0), BuildingBlock: AJUNOK_clean_linker_0, # of connection points: 2
#     Edge 21, Type (0, 0), BuildingBlock: AJUNOK_clean_linker_0, # of connection points: 2
#     Edge 22, Type (0, 0), BuildingBlock: AJUNOK_clean_linker_0, # of connection points: 2
#     Edge 23, Type (0, 0), BuildingBlock: AJUNOK_clean_linker_0, # of connection points: 2
#     Edge 24, Type (0, 0), BuildingBlock: AJUNOK_clean_linker_0, # of connection points: 2
#     Edge 25, Type (0, 0), BuildingBlock: AJUNOK_clean_linker_0, # of connection points: 2
#     Edge 26, Type (0, 0), BuildingBlock: AJUNOK_clean_linker_0, # of connection points: 2
#     Edge 27, Type (0, 0), BuildingBlock: AJUNOK_clean_linker_0, # of connection points: 2
#     Edge 28, Type (0, 0), BuildingBlock: AJUNOK_clean_linker_0, # of connection points: 2
#     Edge 29, Type (0, 0), BuildingBlock: AJUNOK_clean_linker_0, # of connection points: 2
#     Edge 30, Type (0, 0), BuildingBlock: AJUNOK_clean_linker_0, # of connection points: 2
#     Edge 31, Type (0, 0), BuildingBlock: AJUNOK_clean_linker_0, # of connection points: 2
#     Edge 32, Type (0, 0), BuildingBlock: AJUNOK_clean_linker_0, # of connection points: 2
#     Edge 33, Type (0, 0), BuildingBlock: AJUNOK_clean_linker_0, # of connection points: 2
#     Edge 34, Type (0, 0), BuildingBlock: AJUNOK_clean_linker_0, # of connection points: 2
#     Edge 35, Type (0, 0), BuildingBlock: AJUNOK_clean_linker_0, # of connection points: 2
# Relax obj value: 0.140
# Max RMSD: 0.179
# Mean RMSD: 0.169
data_MOF--net-sod--node1-CEKHIL_clean_sbu_0--edge1-AJUNOK_clean_linker_0
_symmetry_space_group_name_H-M    P1
_symmetry_Int_Tables_number       1
_symmetry_cell_setting            triclinic
loop_
_symmetry_equiv_pos_as_xyz
'x, y, z'
_cell_length_a     30.459833
_cell_length_b     30.556687
_cell_length_c     30.51107
_cell_angle_alpha  91.68247
_cell_angle_beta   90.112174
_cell_angle_gamma 90.87337
loop_
_atom_site_label
_atom_site_type_symbol
_atom_site_fract_x
_atom_site_fract_y
_atom_site_fract_z
_atom_type_partial_charge
Co0 Co 0.01391 0.27636 0.51061 0.0
O1 O 0.98238 0.32148 0.48061 0.0
O2 O 0.05073 0.30193 0.46678 0.0
C3 C 0.95887 0.22565 0.51142 0.0
O4 O 0.05798 0.23133 0.52967 0.0
Co5 Co 0.98851 0.23714 0.6 0.0
O6 O 0.03513 0.19379 0.58752 0.0
C7 C 0.01363 0.33008 0.59273 0.0
C8 C 0.01831 0.32731 0.45823 0.0
C9 C 0.06223 0.20005 0.55649 0.0
O10 O 0.03379 0.32157 0.55642 0.0
O11 O 0.98975 0.30191 0.61219 0.0
O12 O 0.98246 0.22992 0.47609 0.0
O13 O 0.96773 0.25329 0.5427 0.0
Co14 Co 0.76414 0.0201 0.51927 0.0
O15 O 0.80892 0.99066 0.48384 0.0
O16 O 0.79212 0.9761 0.55239 0.0
C17 C 0.71057 0.02232 0.46714 0.0
O18 O 0.72184 0.03627 0.56816 0.0
Co19 Co 0.71708 0.10722 0.5069 0.0
O20 O 0.67099 0.0823 0.54572 0.0
C21 C 0.81254 0.10526 0.52558 0.0
C22 C 0.81651 0.96801 0.51866 0.0
C23 C 0.68391 0.05348 0.57182 0.0
O24 O 0.80932 0.06563 0.53867 0.0
O25 O 0.78047 0.12609 0.50946 0.0
O26 O 0.71703 0.98637 0.48822 0.0
O27 O 0.73715 0.05406 0.47702 0.0
Co28 Co 0.99528 0.77586 0.54128 0.0
O29 O 0.96154 0.73168 0.57202 0.0
O30 O 0.03072 0.7504 0.58557 0.0
C31 C 0.94337 0.8286 0.53913 0.0
O32 O 0.04246 0.81844 0.5221 0.0
Co33 Co 0.97537 0.81567 0.45168 0.0
O34 O 0.02424 0.8582 0.46465 0.0
C35 C 0.99495 0.72186 0.45919 0.0
C36 C 0.99737 0.72554 0.59446 0.0
C37 C 0.05031 0.84943 0.49572 0.0
O38 O 0.01343 0.72968 0.49664 0.0
O39 O 0.97409 0.75085 0.43843 0.0
O40 O 0.96635 0.8235 0.57473 0.0
O41 O 0.95059 0.80044 0.50799 0.0
Co42 Co 0.26299 0.03274 0.51845 0.0
O43 O 0.21796 0.06532 0.48883 0.0
O44 O 0.23389 0.07094 0.55961 0.0
C45 C 0.31605 0.04041 0.46761 0.0
O46 O 0.30652 1.00926 0.56234 0.0
Co47 Co 0.30902 0.94914 0.48491 0.0
O48 O 0.35661 0.9704 0.52563 0.0
C49 C 0.21569 0.94527 0.51236 0.0
C50 C 0.2093 0.08254 0.52738 0.0
C51 C 0.34535 0.99388 0.55874 0.0
O52 O 0.21848 0.98454 0.5288 0.0
O53 O 0.24728 0.92643 0.49198 0.0
O54 O 0.30942 0.0718 0.4966 0.0
O55 O 0.28979 1.00711 0.46923 0.0
Co56 Co 0.52177 0.04241 0.28193 0.0
O57 O 0.55571 0.06962 0.23559 0.0
O58 O 0.48698 0.08447 0.25251 0.0
C59 C 0.57425 0.04457 0.33495 0.0
O60 O 0.47458 0.02708 0.32605 0.0
Co61 Co 0.54087 0.95687 0.33012 0.0
O62 O 0.49733 0.97831 0.37417 0.0
C63 C 0.52109 0.95646 0.2349 0.0
C64 C 0.52038 0.0917 0.2275 0.0
C65 C 0.47043 1.0071 0.3622 0.0
O66 O 0.50293 0.99416 0.23906 0.0
O67 O 0.54129 0.9384 0.26632 0.0
O68 O 0.55192 0.07958 0.32694 0.0
O69 O 0.56599 1.01125 0.30952 0.0
Co70 Co 0.02963 0.5112 0.27299 0.0
O71 O 0.06465 0.486 0.31903 0.0
O72 O 0.99872 0.46268 0.29759 0.0
C73 C 0.08286 0.52011 0.22206 0.0
O74 O 0.98355 0.52312 0.22692 0.0
Co75 Co 0.04108 0.60339 0.23509 0.0
O76 O 0.99586 0.58504 0.19099 0.0
C77 C 0.01863 0.5919 0.32745 0.0
C78 C 0.03171 0.45878 0.32392 0.0
C79 C 0.97483 0.54922 0.196 0.0
O80 O 1.00365 0.55312 0.31803 0.0
O81 O 0.03929 0.61519 0.29991 0.0
O82 O 0.06465 0.48165 0.22709 0.0
O83 O 0.07104 0.54995 0.25001 0.0
Co84 Co 0.52226 0.01179 0.77124 0.0
O85 O 0.55654 0.98476 0.81621 0.0
O86 O 0.48678 0.9695 0.80167 0.0
C87 C 0.57356 1.00793 0.71807 0.0
O88 O 0.47573 0.02877 0.72704 0.0
Co89 Co 0.548 0.09773 0.72553 0.0
O90 O 0.50533 0.0758 0.68002 0.0
C91 C 0.5241 0.09835 0.81948 0.0
C92 C 0.52128 0.96221 0.82526 0.0
C93 C 0.4756 0.04815 0.69021 0.0
O94 O 0.50592 0.06012 0.81465 0.0
O95 O 0.54562 0.11698 0.78902 0.0
O96 O 0.54873 0.97386 0.72547 0.0
O97 O 0.56827 0.04134 0.74396 0.0
Co98 Co 0.02464 0.54246 0.77927 0.0
O99 O 0.05617 0.57224 0.73278 0.0
O100 O 0.9877 0.58443 0.75292 0.0
C101 C 0.07785 0.54374 0.83113 0.0
O102 O 0.97972 0.52508 0.8245 0.0
Co103 Co 0.04614 0.45481 0.82205 0.0
O104 O 0.99741 0.4673 0.86379 0.0
C105 C 0.02651 0.45964 0.72784 0.0
C106 C 0.01972 0.5933 0.72679 0.0
C107 C 0.97263 0.49941 0.85622 0.0
O108 O 1.00554 0.49537 0.73526 0.0
O109 O 0.04867 0.44096 0.75743 0.0
O110 O 0.05498 0.57874 0.82454 0.0
O111 O 0.07017 0.51113 0.80452 0.0
Co112 Co 0.26672 0.51932 0.01588 0.0
O113 O 0.31342 0.48877 0.98383 0.0
O114 O 0.29267 0.47628 0.05166 0.0
C115 C 0.21491 0.52078 0.96212 0.0
O116 O 0.22124 0.53606 0.0615 0.0
Co117 Co 0.2238 0.6078 0.99896 0.0
O118 O 0.18255 0.59561 0.04755 0.0
C119 C 0.31824 0.60145 0.01527 0.0
C120 C 0.3191 0.46728 0.01979 0.0
C121 C 0.19006 0.56244 0.07046 0.0
O122 O 0.31129 0.56567 0.03584 0.0
O123 O 0.28813 0.62048 0.99415 0.0
O124 O 0.22083 0.485 0.98369 0.0
O125 O 0.24188 0.55229 0.97171 0.0
Co126 Co 0.49712 0.27526 0.0423 0.0
O127 O 0.46523 0.22762 0.07021 0.0
O128 O 0.53363 0.24836 0.08472 0.0
C129 C 0.44377 0.32646 0.04367 0.0
O130 O 0.54232 0.32122 0.02684 0.0
Co131 Co 0.47603 0.32107 0.95585 0.0
O132 O 0.52348 0.3643 0.97239 0.0
C133 C 0.50121 0.2281 0.95561 0.0
C134 C 0.50137 0.22169 0.09225 0.0
C135 C 0.5494 0.35455 1.00329 0.0
O136 O 0.51743 0.23312 0.9945 0.0
O137 O 0.47945 0.25771 0.93672 0.0
O138 O 0.46658 0.3193 0.07893 0.0
O139 O 0.45168 0.30069 0.01066 0.0
Co140 Co 0.76444 0.53539 0.01424 0.0
O141 O 0.71808 0.56121 0.98012 0.0
O142 O 0.73733 0.5813 0.04797 0.0
C143 C 0.81748 0.53235 0.9628 0.0
O144 O 0.80992 0.52128 0.06049 0.0
Co145 Co 0.80606 0.44493 0.99549 0.0
O146 O 0.8511 0.46444 0.03915 0.0
C147 C 0.71353 0.45094 0.0222 0.0
C148 C 0.71155 0.58628 0.01477 0.0
C149 C 0.8436 0.49696 0.06492 0.0
O150 O 0.71978 0.49106 0.0351 0.0
O151 O 0.74288 0.42797 1.00293 0.0
O152 O 0.80972 0.56904 0.98402 0.0
O153 O 0.79053 0.50048 0.97033 0.0
Co154 Co 0.5142 0.77788 0.0112 0.0
O155 O 0.47879 0.82135 0.98247 0.0
O156 O 0.54859 0.80802 0.96869 0.0
C157 C 0.46475 0.72171 1.0091 0.0
O158 O 0.56241 0.73635 0.0283 0.0
Co159 Co 0.49397 0.73333 0.09851 0.0
O160 O 0.53775 0.68962 0.07822 0.0
C161 C 0.51374 0.82771 0.09696 0.0
C162 C 0.51419 0.83076 0.96044 0.0
C163 C 0.5654 0.70078 0.0493 0.0
O164 O 0.5308 0.82297 0.05854 0.0
O165 O 0.49399 0.79679 0.11666 0.0
O166 O 0.48758 0.73077 0.97434 0.0
O167 O 0.46997 0.74858 0.04206 0.0
C168 C 0.98524 0.37707 0.40386 0.0
C169 C 0.02269 0.3615 0.42488 0.0
C170 C 0.98878 0.40832 0.37122 0.0
C171 C 0.02984 0.42595 0.35884 0.0
H172 H 0.95295 0.36449 0.41211 0.0
H173 H 0.95888 0.41892 0.35576 0.0
S174 S 0.1379 0.39756 0.40536 0.0
N175 N 0.10227 0.36678 0.43174 0.0
N176 N 0.10865 0.42618 0.37106 0.0
C177 C 0.06751 0.41134 0.38022 0.0
C178 C 0.064 0.37892 0.413 0.0
C179 C 0.6481 0.99341 0.41986 0.0
C180 C 0.67343 0.02907 0.4361 0.0
C181 C 0.61532 0.99906 0.38809 0.0
C182 C 0.60577 0.04073 0.37188 0.0
H183 H 0.65445 0.96068 0.43074 0.0
H184 H 0.59777 0.97023 0.37574 0.0
S185 S 0.66133 0.14524 0.40432 0.0
N186 N 0.68607 0.10811 0.43334 0.0
N187 N 0.62345 0.11826 0.37527 0.0
C188 C 0.62967 0.07683 0.38884 0.0
C189 C 0.66375 0.07111 0.42044 0.0
C190 C 0.04734 0.63118 0.3937 0.0
C191 C 0.01108 0.61272 0.3707 0.0
C192 C 0.04171 0.66359 0.42659 0.0
C193 C 0.9997 0.67904 0.43659 0.0
H194 H 0.08042 0.62292 0.38381 0.0
H195 H 0.07052 0.67945 0.44114 0.0
S196 S 0.89408 0.63676 0.39049 0.0
N197 N 0.93181 0.60807 0.3641 0.0
N198 N 0.92105 0.66986 0.42525 0.0
C199 C 0.96306 0.65803 0.41666 0.0
C200 C 0.9688 0.62451 0.3838 0.0
C201 C 0.39754 0.04576 0.45629 0.0
C202 C 0.35517 0.03764 0.43922 0.0
C203 C 0.43509 0.03474 0.43166 0.0
C204 C 0.43119 0.01646 0.3889 0.0
H205 H 0.40163 0.05899 0.48937 0.0
H206 H 0.46727 0.04082 0.44595 0.0
S207 S 0.32778 0.99172 0.3285 0.0
N208 N 0.31168 0.01137 0.37675 0.0
N209 N 0.382 0.99285 0.32993 0.0
C210 C 0.3891 1.0099 0.37103 0.0
C211 C 0.35112 0.01996 0.39634 0.0
C212 C 0.04978 0.64738 0.67364 0.0
C213 C 0.01361 0.6255 0.69177 0.0
C214 C 0.04397 0.67966 0.64237 0.0
C215 C 1.00179 0.69092 0.62743 0.0
H216 H 0.08278 0.64021 0.68431 0.0
H217 H 0.07298 0.69588 0.62977 0.0
S218 S 0.89632 0.64141 0.66283 0.0
N219 N 0.93398 0.61628 0.69135 0.0
N220 N 0.92341 0.67639 0.63232 0.0
C221 C 0.96542 0.66855 0.64455 0.0
C222 C 0.97125 0.63604 0.67677 0.0
C223 C 0.45216 0.03178 0.61275 0.0
C224 C 0.4412 0.03557 0.65749 0.0
C225 C 0.42147 0.01631 0.58139 0.0
C226 C 0.37812 1.00559 0.59328 0.0
H227 H 0.48498 0.04004 0.60187 0.0
H228 H 0.43154 0.01372 0.54741 0.0
S229 S 0.3323 1.01075 0.70584 0.0
N230 N 0.38397 0.02696 0.71211 0.0
N231 N 0.3256 1.00022 0.65281 0.0
C232 C 0.36647 1.00986 0.63777 0.0
C233 C 0.39815 0.02426 0.66993 0.0
C234 C 0.98105 0.39378 0.63184 0.0
C235 C 0.01886 0.3728 0.61565 0.0
C236 C 0.98388 0.42592 0.66552 0.0
C237 C 0.02457 0.43718 0.68453 0.0
H238 H 0.9488 0.38291 0.62062 0.0
H239 H 0.95387 0.43893 0.67935 0.0
S240 S 0.13359 0.39673 0.64938 0.0
N241 N 0.09833 0.36959 0.61714 0.0
N242 N 0.10386 0.42941 0.68114 0.0
C243 C 0.06286 0.41937 0.6659 0.0
C244 C 0.05998 0.38726 0.63114 0.0
C245 C 0.58492 0.01594 0.63763 0.0
C246 C 0.60263 0.01196 0.67987 0.0
C247 C 0.61112 0.03047 0.6028 0.0
C248 C 0.65604 0.04037 0.60904 0.0
H249 H 0.55034 1.00949 0.63194 0.0
H250 H 0.59624 0.03369 0.5708 0.0
S251 S 0.71815 0.03306 0.71322 0.0
N252 N 0.66745 0.0184 0.72596 0.0
N253 N 0.71723 0.04338 0.66039 0.0
C254 C 0.67429 0.03483 0.65085 0.0
C255 C 0.64742 0.02122 0.68631 0.0
C256 C 0.39851 0.37451 0.99641 0.0
C257 C 0.41417 0.3644 0.03856 0.0
C258 C 0.36924 0.40892 0.99009 0.0
C259 C 0.35377 0.43417 0.02576 0.0
H260 H 0.40847 0.35536 0.96783 0.0
H261 H 0.35754 0.41476 0.95726 0.0
S262 S 0.38637 0.4233 0.14248 0.0
N263 N 0.41346 0.38427 0.11614 0.0
N264 N 0.35808 0.44834 0.10467 0.0
C265 C 0.36992 0.42518 0.06797 0.0
C266 C 0.40017 0.3905 0.07428 0.0
C267 C 0.37824 0.63748 0.97423 0.0
C268 C 0.36193 0.62276 0.0145 0.0
C269 C 0.41374 0.66715 0.97255 0.0
C270 C 0.43346 0.68405 0.01119 0.0
H271 H 0.36198 0.62759 0.94382 0.0
H272 H 0.4238 0.67903 0.94095 0.0
S273 S 0.40587 0.65162 0.12469 0.0
N274 N 0.37066 0.62347 0.09334 0.0
N275 N 0.43658 0.68008 0.0909 0.0
C276 C 0.41911 0.66729 0.05155 0.0
C277 C 0.38354 0.63635 0.05304 0.0
C278 C 0.59529 0.42322 0.99501 0.0
C279 C 0.58992 0.38127 0.01244 0.0
C280 C 0.63441 0.4476 1.00158 0.0
C281 C 0.66955 0.43071 0.02541 0.0
H282 H 0.56956 0.43696 0.97537 0.0
H283 H 0.63814 0.47871 0.98577 0.0
S284 S 0.67191 0.32454 0.08053 0.0
N285 N 0.62297 0.3255 0.05728 0.0
N286 N 0.69623 0.37122 0.06828 0.0
C287 C 0.66419 0.38985 0.04434 0.0
C288 C 0.62442 0.36519 0.03826 0.0
C289 C 0.68025 0.65582 0.04447 0.0
C290 C 0.67475 0.61705 0.01876 0.0
C291 C 0.64472 0.68316 0.05389 0.0
C292 C 0.60234 0.67192 0.03899 0.0
H293 H 0.71223 0.66485 0.0578 0.0
H294 H 0.65023 0.71278 0.07366 0.0
S295 S 0.57023 0.57457 0.97044 0.0
N296 N 0.62368 0.5696 0.97773 0.0
N297 N 0.55657 0.62042 0.99673 0.0
C298 C 0.59633 0.63369 0.01292 0.0
C299 C 0.63268 0.60636 1.00242 0.0
C300 C 0.4778 0.88014 0.90716 0.0
C301 C 0.51618 0.86565 0.92749 0.0
C302 C 0.47976 0.91136 0.8742 0.0
C303 C 0.52012 0.92978 0.86072 0.0
H304 H 0.44609 0.86662 0.91608 0.0
H305 H 0.44933 0.92105 0.85914 0.0
S306 S 0.63 0.90471 0.90555 0.0
N307 N 0.5957 0.87337 0.93286 0.0
N308 N 0.59923 0.93205 0.87156 0.0
C309 C 0.55861 0.91627 0.88157 0.0
C310 C 0.55668 0.88423 0.91473 0.0
C311 C 0.15176 0.49214 0.91555 0.0
C312 C 0.17797 0.52758 0.93092 0.0
C313 C 0.1187 0.49794 0.88409 0.0
C314 C 0.10979 0.53955 0.86749 0.0
H315 H 0.15753 0.4595 0.92699 0.0
H316 H 0.10027 0.46937 0.87243 0.0
S317 S 0.1679 0.6434 0.89724 0.0
N318 N 0.19231 0.60625 0.92651 0.0
N319 N 0.12904 0.61672 0.86928 0.0
C320 C 0.13463 0.57542 0.88349 0.0
C321 C 0.16902 0.56952 0.91463 0.0
C322 C 0.47781 0.132 0.87846 0.0
C323 C 0.51958 0.12347 0.86119 0.0
C324 C 0.47241 0.16409 0.91183 0.0
C325 C 0.5087 0.18755 0.92971 0.0
H326 H 0.44894 0.11627 0.86394 0.0
H327 H 0.43943 0.17222 0.92216 0.0
S328 S 0.62525 0.17312 0.89955 0.0
N329 N 0.59811 0.1381 0.86685 0.0
N330 N 0.58783 0.19733 0.93056 0.0
C331 C 0.55082 0.17671 0.91521 0.0
C332 C 0.55628 0.14487 0.88062 0.0
C333 C 0.91067 0.47412 0.90361 0.0
C334 C 0.93426 0.50853 0.8847 0.0
C335 C 0.87279 0.48223 0.92845 0.0
C336 C 0.85766 0.52515 0.93633 0.0
H337 H 0.92088 0.44058 0.89829 0.0
H338 H 0.8554 0.45445 0.94161 0.0
S339 S 0.90883 0.62695 0.89556 0.0
N340 N 0.94033 0.58741 0.87618 0.0
N341 N 0.86983 0.6025 0.9238 0.0
C342 C 0.88149 0.55993 0.91839 0.0
C343 C 0.91958 0.55166 0.89236 0.0
C344 C 0.47499 0.1378 0.17862 0.0
C345 C 0.5168 0.1232 0.19134 0.0
C346 C 0.47 0.16858 0.1457 0.0
C347 C 0.50666 0.18658 0.12457 0.0
H348 H 0.44565 0.1255 0.19438 0.0
H349 H 0.43726 0.17916 0.13759 0.0
S350 S 0.62326 0.15808 0.14399 0.0
N351 N 0.59537 0.128 0.1787 0.0
N352 N 0.58631 0.18614 0.11741 0.0
C353 C 0.54864 0.17171 0.13637 0.0
C354 C 0.55364 0.13996 0.16953 0.0
C355 C 0.9118 0.56581 0.14651 0.0
C356 C 0.94069 0.53531 0.16376 0.0
C357 C 0.87963 0.55277 0.11559 0.0
C358 C 0.87585 0.50894 0.09998 0.0
H359 H 0.91389 0.59991 0.15719 0.0
H360 H 0.85826 0.57753 0.10303 0.0
S361 S 0.94459 0.41668 0.13434 0.0
N362 N 0.96376 0.45946 0.16306 0.0
N363 N 0.90407 0.43516 0.10437 0.0
C364 C 0.90474 0.4782 0.11697 0.0
C365 C 0.93691 0.49133 0.14901 0.0
C366 C 0.55748 0.87953 0.14363 0.0
C367 C 0.51804 0.86949 0.12166 0.0
C368 C 0.55859 0.91027 0.1786 0.0
C369 C 0.52041 0.93222 0.19236 0.0
H370 H 0.58674 0.86102 0.13616 0.0
H371 H 0.58909 0.91519 0.19655 0.0
S372 S 0.41025 0.92102 0.14155 0.0
N373 N 0.44084 0.88614 0.11319 0.0
N374 N 0.44326 0.94501 0.17833 0.0
C375 C 0.48168 0.9252 0.16813 0.0
C376 C 0.48041 0.89337 0.13294 0.0
C377 C 0.1488 0.50921 0.11632 0.0
C378 C 0.162 0.55271 0.10858 0.0
C379 C 0.12313 0.4988 0.15292 0.0
C380 C 0.11063 0.53137 0.18373 0.0
H381 H 0.15802 0.48304 0.09361 0.0
H382 H 0.11323 0.46499 0.15715 0.0
S383 S 0.14025 0.64997 0.17985 0.0
N384 N 0.16206 0.62821 0.13497 0.0
N385 N 0.116 0.609 0.20482 0.0
C386 C 0.12474 0.57495 0.17671 0.0
C387 C 0.1498 0.58554 0.13885 0.0
C388 C 0.87081 0.92708 0.56267 0.0
C389 C 0.85138 0.93481 0.52163 0.0
C390 C 0.90126 0.89352 0.56793 0.0
C391 C 0.91289 0.86567 0.53253 0.0
H392 H 0.86216 0.94703 0.59121 0.0
H393 H 0.91499 0.88881 0.6002 0.0
S394 S 0.87066 0.87196 0.41815 0.0
N395 N 0.84627 0.91245 0.44498 0.0
N396 N 0.90192 0.84838 0.45456 0.0
C397 C 0.89374 0.87333 0.49114 0.0
C398 C 0.86348 0.90816 0.48573 0.0
C399 C 0.91688 0.15803 0.48529 0.0
C400 C 0.9249 0.19091 0.51766 0.0
C401 C 0.8823 0.12744 0.48986 0.0
C402 C 0.85501 0.12857 0.52704 0.0
H403 H 0.93639 0.15679 0.45566 0.0
H404 H 0.87546 0.10415 0.46316 0.0
S405 S 0.86263 0.20624 0.62192 0.0
N406 N 0.90295 0.22117 0.58927 0.0
N407 N 0.83852 0.16368 0.59694 0.0
C408 C 0.86357 0.15992 0.56022 0.0
C409 C 0.89847 0.19105 0.5558 0.0
C410 C 0.09435 0.91965 0.49637 0.0
C411 C 0.09224 0.87406 0.50137 0.0
C412 C 0.13406 0.94312 0.50272 0.0
C413 C 0.17307 0.92154 0.51322 0.0
H414 H 0.06514 0.93728 0.48772 0.0
H415 H 0.13459 0.97807 0.49765 0.0
S416 S 0.18479 0.80273 0.5306 0.0
N417 N 0.13234 0.80849 0.51868 0.0
N418 N 0.20687 0.85234 0.52924 0.0
C419 C 0.17118 0.87611 0.51875 0.0
C420 C 0.13079 0.85244 0.51318 0.0
C421 C 0.12062 0.16641 0.50885 0.0
C422 C 0.09977 0.16992 0.55006 0.0
C423 C 0.15569 0.1378 0.50147 0.0
C424 C 0.17186 0.11221 0.53524 0.0
H425 H 0.10947 0.18556 0.48178 0.0
H426 H 0.17056 0.13613 0.46925 0.0
S427 S 0.12868 0.10834 0.64888 0.0
N428 N 0.09772 0.14446 0.62482 0.0
N429 N 0.16384 0.09138 0.61121 0.0
C430 C 0.15139 0.11532 0.57656 0.0
C431 C 0.11531 0.14393 0.5839 0.0
loop_
_geom_bond_atom_site_label_1
_geom_bond_atom_site_label_2
_geom_bond_distance
_geom_bond_site_symmetry_2
_ccdc_geom_bond_type
Co0 O1 2.216 1_455 S
Co0 O2 2.091 . S
Co0 O4 2.004 . S
Co0 O10 2.021 . S
Co0 O12 2.137 1_455 S
Co0 O13 2.244 1_455 S
O1 Co0 2.216 1_655 S
O1 C8 1.247 . S
O2 Co0 2.091 . S
O2 C8 1.261 1_455 S
C3 O12 1.247 . S
C3 O13 1.272 . S
O4 Co0 2.004 . S
O4 C9 1.259 . S
Co5 O6 2.061 1_655 S
Co5 O11 2.052 . S
Co5 O13 2.135 . S
O6 Co5 2.061 1_455 S
O6 C9 1.235 . S
C7 O10 1.238 . S
C7 O11 1.241 1_455 S
C8 O1 1.247 . S
C8 O2 1.261 1_655 S
C9 O4 1.259 . S
C9 O6 1.235 . S
O10 Co0 2.021 . S
O10 C7 1.238 . S
O11 Co5 2.052 . S
O11 C7 1.241 1_655 S
O12 Co0 2.137 1_655 S
O12 C3 1.247 . S
O13 Co0 2.244 1_655 S
O13 C3 1.272 . S
O13 Co5 2.135 . S
Co14 O15 2.216 . S
Co14 O16 2.091 . S
Co14 O18 2.004 1_565 S
Co14 O24 2.021 1_565 S
Co14 O26 2.137 . S
Co14 O27 2.244 1_565 S
O15 Co14 2.216 . S
O15 C22 1.247 . S
O16 Co14 2.091 . S
O16 C22 1.261 . S
C17 O26 1.247 . S
C17 O27 1.272 1_565 S
O18 Co14 2.004 1_545 S
O18 C23 1.259 . S
Co19 O20 2.061 . S
Co19 O25 2.052 . S
Co19 O27 2.135 . S
O20 Co19 2.061 . S
O20 C23 1.235 . S
C21 O24 1.238 . S
C21 O25 1.241 . S
C22 O15 1.247 . S
C22 O16 1.261 . S
C23 O18 1.259 . S
C23 O20 1.235 . S
O24 Co14 2.021 1_545 S
O24 C21 1.238 . S
O25 Co19 2.052 . S
O25 C21 1.241 . S
O26 Co14 2.137 . S
O26 C17 1.247 . S
O27 Co14 2.244 1_545 S
O27 C17 1.272 1_545 S
O27 Co19 2.135 . S
Co28 O29 2.216 1_455 S
Co28 O30 2.091 . S
Co28 O32 2.004 . S
Co28 O38 2.021 . S
Co28 O40 2.137 1_455 S
Co28 O41 2.244 1_455 S
O29 Co28 2.216 1_655 S
O29 C36 1.247 . S
O30 Co28 2.091 . S
O30 C36 1.261 1_455 S
C31 O40 1.247 . S
C31 O41 1.272 . S
O32 Co28 2.004 . S
O32 C37 1.259 . S
Co33 O34 2.061 1_655 S
Co33 O39 2.052 1_655 S
Co33 O41 2.135 . S
O34 Co33 2.061 1_455 S
O34 C37 1.235 . S
C35 O38 1.238 . S
C35 O39 1.241 . S
C36 O29 1.247 . S
C36 O30 1.261 1_655 S
C37 O32 1.259 . S
C37 O34 1.235 . S
O38 Co28 2.021 . S
O38 C35 1.238 . S
O39 Co33 2.052 1_455 S
O39 C35 1.241 . S
O40 Co28 2.137 1_655 S
O40 C31 1.247 . S
O41 Co28 2.244 1_655 S
O41 C31 1.272 . S
O41 Co33 2.135 . S
Co42 O43 2.216 . S
Co42 O44 2.091 . S
Co42 O46 2.004 . S
Co42 O52 2.021 1_545 S
Co42 O54 2.137 . S
Co42 O55 2.244 1_545 S
O43 Co42 2.216 . S
O43 C50 1.247 . S
O44 Co42 2.091 . S
O44 C50 1.261 . S
C45 O54 1.247 . S
C45 O55 1.272 1_545 S
O46 Co42 2.004 . S
O46 C51 1.255 1_545 S
Co47 O48 2.061 . S
Co47 O53 2.052 . S
Co47 O55 2.135 . S
O48 Co47 2.061 . S
O48 C51 1.239 . S
C49 O52 1.238 . S
C49 O53 1.241 . S
C50 O43 1.247 . S
C50 O44 1.261 . S
C51 O46 1.255 1_565 S
C51 O48 1.239 . S
O52 Co42 2.021 1_565 S
O52 C49 1.238 . S
O53 Co47 2.052 . S
O53 C49 1.241 . S
O54 Co42 2.137 . S
O54 C45 1.247 . S
O55 Co42 2.244 1_565 S
O55 C45 1.272 1_565 S
O55 Co47 2.135 . S
Co56 O57 2.216 . S
Co56 O58 2.091 . S
Co56 O60 2.004 . S
Co56 O66 2.021 1_545 S
Co56 O68 2.137 . S
Co56 O69 2.244 1_545 S
O57 Co56 2.216 . S
O57 C64 1.247 . S
O58 Co56 2.091 . S
O58 C64 1.261 . S
C59 O68 1.247 . S
C59 O69 1.272 1_545 S
O60 Co56 2.004 . S
O60 C65 1.259 1_545 S
Co61 O62 2.061 . S
Co61 O67 2.052 . S
Co61 O69 2.135 . S
O62 Co61 2.061 . S
O62 C65 1.235 . S
C63 O66 1.238 . S
C63 O67 1.241 . S
C64 O57 1.247 . S
C64 O58 1.261 . S
C65 O60 1.259 1_565 S
C65 O62 1.235 . S
O66 Co56 2.021 1_565 S
O66 C63 1.238 . S
O67 Co61 2.052 . S
O67 C63 1.241 . S
O68 Co56 2.137 . S
O68 C59 1.247 . S
O69 Co56 2.244 1_565 S
O69 C59 1.272 1_565 S
O69 Co61 2.135 . S
Co70 O71 2.216 . S
Co70 O72 2.091 1_455 S
Co70 O74 2.004 1_455 S
Co70 O80 2.021 1_455 S
Co70 O82 2.137 . S
Co70 O83 2.244 . S
O71 Co70 2.216 . S
O71 C78 1.247 . S
O72 Co70 2.091 1_655 S
O72 C78 1.261 1_655 S
C73 O82 1.247 . S
C73 O83 1.272 . S
O74 Co70 2.004 1_655 S
O74 C79 1.259 . S
Co75 O76 2.061 1_455 S
Co75 O81 2.052 . S
Co75 O83 2.135 . S
O76 Co75 2.061 1_655 S
O76 C79 1.235 . S
C77 O80 1.236 1_455 S
C77 O81 1.243 . S
C78 O71 1.247 . S
C78 O72 1.261 1_455 S
C79 O74 1.259 . S
C79 O76 1.235 . S
O80 Co70 2.021 1_655 S
O80 C77 1.236 1_655 S
O81 Co75 2.052 . S
O81 C77 1.243 . S
O82 Co70 2.137 . S
O82 C73 1.247 . S
O83 Co70 2.244 . S
O83 C73 1.272 . S
O83 Co75 2.135 . S
Co84 O85 2.216 1_545 S
Co84 O86 2.091 1_545 S
Co84 O88 2.004 . S
Co84 O94 2.021 . S
Co84 O96 2.137 1_545 S
Co84 O97 2.244 . S
O85 Co84 2.216 1_565 S
O85 C92 1.247 . S
O86 Co84 2.091 1_565 S
O86 C92 1.261 . S
C87 O96 1.247 1_545 S
C87 O97 1.272 . S
O88 Co84 2.004 . S
O88 C93 1.259 . S
Co89 O90 2.061 . S
Co89 O95 2.052 . S
Co89 O97 2.135 . S
O90 Co89 2.061 . S
O90 C93 1.235 . S
C91 O94 1.238 . S
C91 O95 1.241 . S
C92 O85 1.247 . S
C92 O86 1.261 . S
C93 O88 1.259 . S
C93 O90 1.235 . S
O94 Co84 2.021 . S
O94 C91 1.238 . S
O95 Co89 2.052 . S
O95 C91 1.241 . S
O96 Co84 2.137 1_565 S
O96 C87 1.247 1_565 S
O97 Co84 2.244 . S
O97 C87 1.272 . S
O97 Co89 2.135 . S
Co98 O99 2.216 . S
Co98 O100 2.091 1_455 S
Co98 O102 2.004 1_455 S
Co98 O108 2.021 1_455 S
Co98 O110 2.137 . S
Co98 O111 2.244 . S
O99 Co98 2.216 . S
O99 C106 1.247 . S
O100 Co98 2.091 1_655 S
O100 C106 1.261 1_655 S
C101 O110 1.247 . S
C101 O111 1.272 . S
O102 Co98 2.004 1_655 S
O102 C107 1.259 . S
Co103 O104 2.061 1_455 S
Co103 O109 2.052 . S
Co103 O111 2.135 . S
O104 Co103 2.061 1_655 S
O104 C107 1.235 . S
C105 O108 1.238 . S
C105 O109 1.241 1_655 S
C106 O99 1.247 . S
C106 O100 1.261 1_455 S
C107 O102 1.259 . S
C107 O104 1.235 . S
O108 Co98 2.021 1_655 S
O108 C105 1.238 . S
O109 Co103 2.052 . S
O109 C105 1.241 1_455 S
O110 Co98 2.137 . S
O110 C101 1.247 . S
O111 Co98 2.244 . S
O111 C101 1.272 . S
O111 Co103 2.135 . S
Co112 O113 2.216 1_554 S
Co112 O114 2.091 . S
Co112 O116 2.004 . S
Co112 O122 2.021 . S
Co112 O124 2.137 1_554 S
Co112 O125 2.244 1_554 S
O113 Co112 2.216 1_556 S
O113 C120 1.247 . S
O114 Co112 2.091 . S
O114 C120 1.261 1_554 S
C115 O124 1.247 . S
C115 O125 1.272 . S
O116 Co112 2.004 . S
O116 C121 1.259 . S
Co117 O118 2.061 1_556 S
Co117 O123 2.052 1_556 S
Co117 O125 2.135 . S
O118 Co117 2.061 1_554 S
O118 C121 1.235 . S
C119 O122 1.238 . S
C119 O123 1.241 . S
C120 O113 1.247 . S
C120 O114 1.261 1_556 S
C121 O116 1.259 . S
C121 O118 1.235 . S
O122 Co112 2.021 . S
O122 C119 1.238 . S
O123 Co117 2.052 1_554 S
O123 C119 1.241 . S
O124 Co112 2.137 1_556 S
O124 C115 1.247 . S
O125 Co112 2.244 1_556 S
O125 C115 1.272 . S
O125 Co117 2.135 . S
Co126 O127 2.216 . S
Co126 O128 2.091 . S
Co126 O130 2.004 . S
Co126 O136 2.021 1_554 S
Co126 O138 2.137 . S
Co126 O139 2.244 1_554 S
O127 Co126 2.216 . S
O127 C134 1.247 . S
O128 Co126 2.091 . S
O128 C134 1.261 . S
C129 O138 1.247 . S
C129 O139 1.272 1_554 S
O130 Co126 2.004 . S
O130 C135 1.259 1_554 S
Co131 O132 2.061 . S
Co131 O137 2.052 . S
Co131 O139 2.135 . S
O132 Co131 2.061 . S
O132 C135 1.235 . S
C133 O136 1.238 . S
C133 O137 1.241 . S
C134 O127 1.247 . S
C134 O128 1.261 . S
C135 O130 1.259 1_556 S
C135 O132 1.235 . S
O136 Co126 2.021 1_556 S
O136 C133 1.238 . S
O137 Co131 2.052 . S
O137 C133 1.241 . S
O138 Co126 2.137 . S
O138 C129 1.247 . S
O139 Co126 2.244 1_556 S
O139 C129 1.272 1_556 S
O139 Co131 2.135 . S
Co140 O141 2.216 1_554 S
Co140 O142 2.091 . S
Co140 O144 2.004 . S
Co140 O150 2.021 . S
Co140 O152 2.137 1_554 S
Co140 O153 2.244 1_554 S
O141 Co140 2.216 1_556 S
O141 C148 1.247 1_556 S
O142 Co140 2.091 . S
O142 C148 1.261 . S
C143 O152 1.247 . S
C143 O153 1.272 . S
O144 Co140 2.004 . S
O144 C149 1.259 . S
Co145 O146 2.061 1_556 S
Co145 O151 2.052 1_556 S
Co145 O153 2.135 . S
O146 Co145 2.061 1_554 S
O146 C149 1.235 . S
C147 O150 1.238 . S
C147 O151 1.241 . S
C148 O141 1.247 1_554 S
C148 O142 1.261 . S
C149 O144 1.259 . S
C149 O146 1.235 . S
O150 Co140 2.021 . S
O150 C147 1.238 . S
O151 Co145 2.052 1_554 S
O151 C147 1.241 . S
O152 Co140 2.137 1_556 S
O152 C143 1.247 . S
O153 Co140 2.244 1_556 S
O153 C143 1.272 . S
O153 Co145 2.135 . S
Co154 O155 2.216 1_554 S
Co154 O156 2.091 1_554 S
Co154 O158 2.004 . S
Co154 O164 2.021 . S
Co154 O166 2.137 1_554 S
Co154 O167 2.244 . S
O155 Co154 2.216 1_556 S
O155 C162 1.247 . S
O156 Co154 2.091 1_556 S
O156 C162 1.261 . S
C157 O166 1.247 1_554 S
C157 O167 1.272 . S
O158 Co154 2.004 . S
O158 C163 1.259 . S
Co159 O160 2.061 . S
Co159 O165 2.052 . S
Co159 O167 2.135 . S
O160 Co159 2.061 . S
O160 C163 1.235 . S
C161 O164 1.238 . S
C161 O165 1.241 . S
C162 O155 1.247 . S
C162 O156 1.261 . S
C163 O158 1.259 . S
C163 O160 1.235 . S
O164 Co154 2.021 . S
O164 C161 1.238 . S
O165 Co159 2.052 . S
O165 C161 1.241 . S
O166 Co154 2.137 1_556 S
O166 C157 1.247 1_556 S
O167 Co154 2.244 . S
O167 C157 1.272 . S
O167 Co159 2.135 . S
C168 C169 1.369 . S
C168 C170 1.419 1_655 S
C168 H172 0.930 . S
C169 C168 1.369 . S
C169 C178 1.429 1_655 S
C170 C168 1.419 1_455 S
C170 C171 1.363 . S
C170 H173 0.929 . S
C171 C170 1.363 . S
C171 C177 1.428 . S
H172 C168 0.930 . S
H173 C170 0.929 . S
S174 N175 1.613 . S
S174 N176 1.610 . S
N175 S174 1.613 . S
N175 C178 1.350 . S
N176 S174 1.610 . S
N176 C177 1.351 . S
C177 C171 1.428 . S
C177 N176 1.351 . S
C177 C178 1.434 . S
C178 C169 1.429 1_455 S
C178 N175 1.350 . S
C178 C177 1.434 . S
C179 C180 1.369 1_565 S
C179 C181 1.419 . S
C179 H183 0.930 . S
C180 C179 1.369 1_545 S
C180 C189 1.429 . S
C181 C179 1.419 . S
C181 C182 1.363 1_565 S
C181 H184 0.929 . S
C182 C181 1.363 1_545 S
C182 C188 1.428 . S
H183 C179 0.930 . S
H184 C181 0.929 . S
S185 N186 1.613 . S
S185 N187 1.610 . S
N186 S185 1.613 . S
N186 C189 1.350 . S
N187 S185 1.610 . S
N187 C188 1.351 . S
C188 C182 1.428 . S
C188 N187 1.351 . S
C188 C189 1.434 . S
C189 C180 1.429 . S
C189 N186 1.350 . S
C189 C188 1.434 . S
C190 C191 1.369 . S
C190 C192 1.419 . S
C190 H194 0.930 . S
C191 C190 1.369 . S
C191 C200 1.429 1_455 S
C192 C190 1.419 . S
C192 C193 1.363 . S
C192 H195 0.929 . S
C193 C192 1.363 . S
C193 C199 1.428 1_455 S
H194 C190 0.930 . S
H195 C192 0.929 . S
S196 N197 1.613 . S
S196 N198 1.610 . S
N197 S196 1.613 . S
N197 C200 1.350 . S
N198 S196 1.610 . S
N198 C199 1.351 . S
C199 C193 1.428 1_655 S
C199 N198 1.351 . S
C199 C200 1.434 . S
C200 C191 1.429 1_655 S
C200 N197 1.350 . S
C200 C199 1.434 . S
C201 C202 1.369 . S
C201 C203 1.419 . S
C201 H205 0.930 . S
C202 C201 1.369 . S
C202 C211 1.429 . S
C203 C201 1.419 . S
C203 C204 1.374 . S
C203 H206 0.929 . S
C204 C203 1.374 . S
C204 C210 1.424 1_545 S
H205 C201 0.930 . S
H206 C203 0.929 . S
S207 N208 1.613 . S
S207 N209 1.610 . S
N208 S207 1.613 . S
N208 C211 1.350 1_565 S
N209 S207 1.610 . S
N209 C210 1.351 . S
C210 C204 1.424 1_565 S
C210 N209 1.351 . S
C210 C211 1.434 1_565 S
C211 C202 1.429 . S
C211 N208 1.350 1_545 S
C211 C210 1.434 1_545 S
C212 C213 1.369 . S
C212 C214 1.419 . S
C212 H216 0.930 . S
C213 C212 1.369 . S
C213 C222 1.429 1_455 S
C214 C212 1.419 . S
C214 C215 1.367 . S
C214 H217 0.929 . S
C215 C214 1.367 . S
C215 C221 1.426 1_455 S
H216 C212 0.930 . S
H217 C214 0.929 . S
S218 N219 1.613 . S
S218 N220 1.610 . S
N219 S218 1.613 . S
N219 C222 1.350 . S
N220 S218 1.610 . S
N220 C221 1.351 . S
C221 C215 1.426 1_655 S
C221 N220 1.351 . S
C221 C222 1.434 . S
C222 C213 1.429 1_655 S
C222 N219 1.350 . S
C222 C221 1.434 . S
C223 C224 1.369 . S
C223 C225 1.419 . S
C223 H227 0.930 . S
C224 C223 1.369 . S
C224 C233 1.429 . S
C225 C223 1.419 . S
C225 C226 1.363 . S
C225 H228 0.929 . S
C226 C225 1.363 . S
C226 C232 1.428 . S
H227 C223 0.930 . S
H228 C225 0.929 . S
S229 N230 1.613 . S
S229 N231 1.610 . S
N230 S229 1.613 . S
N230 C233 1.350 . S
N231 S229 1.610 . S
N231 C232 1.351 . S
C232 C226 1.428 . S
C232 N231 1.351 . S
C232 C233 1.434 . S
C233 C224 1.429 . S
C233 N230 1.350 . S
C233 C232 1.434 . S
C234 C235 1.369 . S
C234 C236 1.419 1_455 S
C234 H238 0.930 . S
C235 C234 1.369 . S
C235 C244 1.429 . S
C236 C234 1.419 1_655 S
C236 C237 1.363 . S
C236 H239 0.929 . S
C237 C236 1.363 . S
C237 C243 1.428 1_655 S
H238 C234 0.930 . S
H239 C236 0.929 . S
S240 N241 1.613 . S
S240 N242 1.610 . S
N241 S240 1.613 . S
N241 C244 1.350 . S
N242 S240 1.610 . S
N242 C243 1.351 . S
C243 C237 1.428 1_455 S
C243 N242 1.351 . S
C243 C244 1.434 . S
C244 C235 1.429 . S
C244 N241 1.350 . S
C244 C243 1.434 . S
C245 C246 1.369 . S
C245 C247 1.419 . S
C245 H249 0.930 . S
C246 C245 1.369 . S
C246 C255 1.429 1_545 S
C247 C245 1.419 . S
C247 C248 1.363 . S
C247 H250 0.929 . S
C248 C247 1.363 . S
C248 C254 1.428 . S
H249 C245 0.930 . S
H250 C247 0.929 . S
S251 N252 1.613 . S
S251 N253 1.610 . S
N252 S251 1.613 . S
N252 C255 1.350 . S
N253 S251 1.610 . S
N253 C254 1.351 1_565 S
C254 C248 1.428 . S
C254 N253 1.351 1_545 S
C254 C255 1.434 1_545 S
C255 C246 1.429 1_565 S
C255 N252 1.350 . S
C255 C254 1.434 1_565 S
C256 C257 1.369 1_556 S
C256 C258 1.419 . S
C256 H260 0.930 . S
C257 C256 1.369 1_554 S
C257 C266 1.429 . S
C258 C256 1.419 . S
C258 C259 1.366 . S
C258 H261 0.929 . S
C259 C258 1.366 . S
C259 C265 1.423 1_556 S
H260 C256 0.930 . S
H261 C258 0.929 . S
S262 N263 1.613 . S
S262 N264 1.610 . S
N263 S262 1.613 . S
N263 C266 1.350 . S
N264 S262 1.610 . S
N264 C265 1.351 . S
C265 C259 1.423 1_554 S
C265 N264 1.351 . S
C265 C266 1.434 . S
C266 C257 1.429 . S
C266 N263 1.350 . S
C266 C265 1.434 . S
C267 C268 1.369 . S
C267 C269 1.419 1_554 S
C267 H271 0.930 1_554 S
C268 C267 1.369 . S
C268 C277 1.429 . S
C269 C267 1.419 1_556 S
C269 C270 1.363 1_556 S
C269 H272 0.929 . S
C270 C269 1.363 1_554 S
C270 C276 1.428 . S
H271 C267 0.930 1_556 S
H272 C269 0.929 . S
S273 N274 1.613 . S
S273 N275 1.610 . S
N274 S273 1.613 . S
N274 C277 1.350 . S
N275 S273 1.610 . S
N275 C276 1.351 . S
C276 C270 1.428 . S
C276 N275 1.351 . S
C276 C277 1.434 . S
C277 C268 1.429 . S
C277 N274 1.350 . S
C277 C276 1.434 . S
C278 C279 1.368 1_556 S
C278 C280 1.419 . S
C278 H282 0.930 . S
C279 C278 1.368 1_554 S
C279 C288 1.430 . S
C280 C278 1.419 . S
C280 C281 1.363 1_556 S
C280 H283 0.929 . S
C281 C280 1.363 1_554 S
C281 C287 1.428 . S
H282 C278 0.930 . S
H283 C280 0.929 . S
S284 N285 1.613 . S
S284 N286 1.610 . S
N285 S284 1.613 . S
N285 C288 1.350 . S
N286 S284 1.610 . S
N286 C287 1.351 . S
C287 C281 1.428 . S
C287 N286 1.351 . S
C287 C288 1.434 . S
C288 C279 1.430 . S
C288 N285 1.350 . S
C288 C287 1.434 . S
C289 C290 1.369 . S
C289 C291 1.419 . S
C289 H293 0.930 . S
C290 C289 1.369 . S
C290 C299 1.429 . S
C291 C289 1.419 . S
C291 C292 1.363 . S
C291 H294 0.929 . S
C292 C291 1.363 . S
C292 C298 1.428 . S
H293 C289 0.930 . S
H294 C291 0.929 . S
S295 N296 1.613 . S
S295 N297 1.610 1_556 S
N296 S295 1.613 . S
N296 C299 1.350 1_556 S
N297 S295 1.610 1_554 S
N297 C298 1.351 . S
C298 C292 1.428 . S
C298 N297 1.351 . S
C298 C299 1.434 . S
C299 C290 1.429 . S
C299 N296 1.350 1_554 S
C299 C298 1.434 . S
C300 C301 1.369 . S
C300 C302 1.419 . S
C300 H304 0.930 . S
C301 C300 1.369 . S
C301 C310 1.429 . S
C302 C300 1.419 . S
C302 C303 1.363 . S
C302 H305 0.929 . S
C303 C302 1.363 . S
C303 C309 1.428 . S
H304 C300 0.930 . S
H305 C302 0.929 . S
S306 N307 1.613 . S
S306 N308 1.610 . S
N307 S306 1.613 . S
N307 C310 1.350 . S
N308 S306 1.610 . S
N308 C309 1.351 . S
C309 C303 1.428 . S
C309 N308 1.351 . S
C309 C310 1.434 . S
C310 C301 1.429 . S
C310 N307 1.350 . S
C310 C309 1.434 . S
C311 C312 1.369 . S
C311 C313 1.419 . S
C311 H315 0.930 . S
C312 C311 1.369 . S
C312 C321 1.429 . S
C313 C311 1.419 . S
C313 C314 1.363 . S
C313 H316 0.929 . S
C314 C313 1.363 . S
C314 C320 1.428 . S
H315 C311 0.930 . S
H316 C313 0.929 . S
S317 N318 1.613 . S
S317 N319 1.610 . S
N318 S317 1.613 . S
N318 C321 1.350 . S
N319 S317 1.610 . S
N319 C320 1.351 . S
C320 C314 1.428 . S
C320 N319 1.351 . S
C320 C321 1.434 . S
C321 C312 1.429 . S
C321 N318 1.350 . S
C321 C320 1.434 . S
C322 C323 1.369 . S
C322 C324 1.419 . S
C322 H326 0.930 . S
C323 C322 1.369 . S
C323 C332 1.429 . S
C324 C322 1.419 . S
C324 C325 1.363 . S
C324 H327 0.929 . S
C325 C324 1.363 . S
C325 C331 1.428 . S
H326 C322 0.930 . S
H327 C324 0.929 . S
S328 N329 1.613 . S
S328 N330 1.610 . S
N329 S328 1.613 . S
N329 C332 1.350 . S
N330 S328 1.610 . S
N330 C331 1.351 . S
C331 C325 1.428 . S
C331 N330 1.351 . S
C331 C332 1.434 . S
C332 C323 1.429 . S
C332 N329 1.350 . S
C332 C331 1.434 . S
C333 C334 1.369 . S
C333 C335 1.419 . S
C333 H337 0.930 . S
C334 C333 1.369 . S
C334 C343 1.429 . S
C335 C333 1.419 . S
C335 C336 1.363 . S
C335 H338 0.929 . S
C336 C335 1.363 . S
C336 C342 1.428 . S
H337 C333 0.930 . S
H338 C335 0.929 . S
S339 N340 1.613 . S
S339 N341 1.610 . S
N340 S339 1.613 . S
N340 C343 1.350 . S
N341 S339 1.610 . S
N341 C342 1.351 . S
C342 C336 1.428 . S
C342 N341 1.351 . S
C342 C343 1.434 . S
C343 C334 1.429 . S
C343 N340 1.350 . S
C343 C342 1.434 . S
C344 C345 1.369 . S
C344 C346 1.419 . S
C344 H348 0.930 . S
C345 C344 1.369 . S
C345 C354 1.429 . S
C346 C344 1.419 . S
C346 C347 1.363 . S
C346 H349 0.929 . S
C347 C346 1.363 . S
C347 C353 1.428 . S
H348 C344 0.930 . S
H349 C346 0.929 . S
S350 N351 1.613 . S
S350 N352 1.610 . S
N351 S350 1.613 . S
N351 C354 1.350 . S
N352 S350 1.610 . S
N352 C353 1.351 . S
C353 C347 1.428 . S
C353 N352 1.351 . S
C353 C354 1.434 . S
C354 C345 1.429 . S
C354 N351 1.350 . S
C354 C353 1.434 . S
C355 C356 1.369 . S
C355 C357 1.419 . S
C355 H359 0.930 . S
C356 C355 1.369 . S
C356 C365 1.429 . S
C357 C355 1.419 . S
C357 C358 1.363 . S
C357 H360 0.929 . S
C358 C357 1.363 . S
C358 C364 1.428 . S
H359 C355 0.930 . S
H360 C357 0.929 . S
S361 N362 1.613 . S
S361 N363 1.610 . S
N362 S361 1.613 . S
N362 C365 1.350 . S
N363 S361 1.610 . S
N363 C364 1.351 . S
C364 C358 1.428 . S
C364 N363 1.351 . S
C364 C365 1.434 . S
C365 C356 1.429 . S
C365 N362 1.350 . S
C365 C364 1.434 . S
C366 C367 1.369 . S
C366 C368 1.419 . S
C366 H370 0.930 . S
C367 C366 1.369 . S
C367 C376 1.429 . S
C368 C366 1.419 . S
C368 C369 1.363 . S
C368 H371 0.929 . S
C369 C368 1.363 . S
C369 C375 1.428 . S
H370 C366 0.930 . S
H371 C368 0.929 . S
S372 N373 1.613 . S
S372 N374 1.610 . S
N373 S372 1.613 . S
N373 C376 1.350 . S
N374 S372 1.610 . S
N374 C375 1.351 . S
C375 C369 1.428 . S
C375 N374 1.351 . S
C375 C376 1.434 . S
C376 C367 1.429 . S
C376 N373 1.350 . S
C376 C375 1.434 . S
C377 C378 1.369 . S
C377 C379 1.419 . S
C377 H381 0.930 . S
C378 C377 1.369 . S
C378 C387 1.429 . S
C379 C377 1.419 . S
C379 C380 1.363 . S
C379 H382 0.929 . S
C380 C379 1.363 . S
C380 C386 1.428 . S
H381 C377 0.930 . S
H382 C379 0.929 . S
S383 N384 1.613 . S
S383 N385 1.610 . S
N384 S383 1.613 . S
N384 C387 1.350 . S
N385 S383 1.610 . S
N385 C386 1.351 . S
C386 C380 1.428 . S
C386 N385 1.351 . S
C386 C387 1.434 . S
C387 C378 1.429 . S
C387 N384 1.350 . S
C387 C386 1.434 . S
C388 C389 1.369 . S
C388 C390 1.419 . S
C388 H392 0.930 . S
C389 C388 1.369 . S
C389 C398 1.429 . S
C390 C388 1.419 . S
C390 C391 1.363 . S
C390 H393 0.929 . S
C391 C390 1.363 . S
C391 C397 1.428 . S
H392 C388 0.930 . S
H393 C390 0.929 . S
S394 N395 1.613 . S
S394 N396 1.610 . S
N395 S394 1.613 . S
N395 C398 1.350 . S
N396 S394 1.610 . S
N396 C397 1.351 . S
C397 C391 1.428 . S
C397 N396 1.351 . S
C397 C398 1.434 . S
C398 C389 1.429 . S
C398 N395 1.350 . S
C398 C397 1.434 . S
C399 C400 1.369 . S
C399 C401 1.419 . S
C399 H403 0.930 . S
C400 C399 1.369 . S
C400 C409 1.429 . S
C401 C399 1.419 . S
C401 C402 1.363 . S
C401 H404 0.929 . S
C402 C401 1.363 . S
C402 C408 1.428 . S
H403 C399 0.930 . S
H404 C401 0.929 . S
S405 N406 1.613 . S
S405 N407 1.610 . S
N406 S405 1.613 . S
N406 C409 1.350 . S
N407 S405 1.610 . S
N407 C408 1.351 . S
C408 C402 1.428 . S
C408 N407 1.351 . S
C408 C409 1.434 . S
C409 C400 1.429 . S
C409 N406 1.350 . S
C409 C408 1.434 . S
C410 C411 1.369 . S
C410 C412 1.419 . S
C410 H414 0.930 . S
C411 C410 1.369 . S
C411 C420 1.429 . S
C412 C410 1.419 . S
C412 C413 1.363 . S
C412 H415 0.929 . S
C413 C412 1.363 . S
C413 C419 1.428 . S
H414 C410 0.930 . S
H415 C412 0.929 . S
S416 N417 1.613 . S
S416 N418 1.610 . S
N417 S416 1.613 . S
N417 C420 1.350 . S
N418 S416 1.610 . S
N418 C419 1.351 . S
C419 C413 1.428 . S
C419 N418 1.351 . S
C419 C420 1.434 . S
C420 C411 1.429 . S
C420 N417 1.350 . S
C420 C419 1.434 . S
C421 C422 1.369 . S
C421 C423 1.419 . S
C421 H425 0.930 . S
C422 C421 1.369 . S
C422 C431 1.429 . S
C423 C421 1.419 . S
C423 C424 1.363 . S
C423 H426 0.929 . S
C424 C423 1.363 . S
C424 C430 1.428 . S
H425 C421 0.930 . S
H426 C423 0.929 . S
S427 N428 1.613 . S
S427 N429 1.610 . S
N428 S427 1.613 . S
N428 C431 1.350 . S
N429 S427 1.610 . S
N429 C430 1.351 . S
C430 C424 1.428 . S
C430 N429 1.351 . S
C430 C431 1.434 . S
C431 C422 1.429 . S
C431 N428 1.350 . S
C431 C430 1.434 . S
C169 C8 1.516 . S
C171 C78 1.518 . S
C180 C17 1.582 1_545 S
C182 C59 1.588 . S
C191 C77 1.424 . S
C193 C35 1.420 . S
C202 C45 1.496 . S
C204 C65 1.496 1_545 S
C213 C106 1.545 . S
C215 C36 1.553 1_455 S
C224 C93 1.439 . S
C226 C51 1.440 1_545 S
C235 C7 1.455 . S
C237 C105 1.456 . S
C246 C87 1.531 . S
C248 C23 1.530 . S
C257 C129 1.581 . S
C259 C120 1.559 . S
C268 C119 1.504 . S
C270 C157 1.536 . S
C279 C135 1.444 1_554 S
C281 C147 1.419 . S
C290 C148 1.473 . S
C292 C163 1.486 . S
C301 C162 1.516 . S
C303 C92 1.518 . S
C312 C115 1.583 . S
C314 C101 1.588 . S
C323 C91 1.420 . S
C325 C133 1.423 . S
C334 C107 1.497 . S
C336 C143 1.499 . S
C345 C64 1.550 . S
C347 C134 1.550 . S
C356 C79 1.435 . S
C358 C149 1.437 . S
C367 C161 1.459 . S
C369 C63 1.461 . S
C378 C121 1.531 . S
C380 C73 1.529 . S
C389 C22 1.558 . S
C391 C31 1.581 . S
C400 C3 1.537 . S
C402 C21 1.500 . S
C411 C37 1.449 . S
C413 C49 1.413 . S
C422 C9 1.488 . S
C424 C50 1.469 . S
