# Generated by pormake.
# Topology lcs-e, (6)-cn, num edge types: 1
# Building blocks:
#     Node 0, Type 0, BuildingBlock: BETDEL_clean_sbu_0, # of connection points: 6
#     Node 1, Type 0, BuildingBlock: BETDEL_clean_sbu_0, # of connection points: 6
#     Node 2, Type 0, BuildingBlock: BETDEL_clean_sbu_0, # of connection points: 6
#     Node 3, Type 0, BuildingBlock: BETDEL_clean_sbu_0, # of connection points: 6
#     Node 4, Type 0, BuildingBlock: BETDEL_clean_sbu_0, # of connection points: 6
#     Node 5, Type 0, BuildingBlock: BETDEL_clean_sbu_0, # of connection points: 6
#     Node 6, Type 0, BuildingBlock: BETDEL_clean_sbu_0, # of connection points: 6
#     Node 7, Type 0, BuildingBlock: BETDEL_clean_sbu_0, # of connection points: 6
#     Node 8, Type 0, BuildingBlock: BETDEL_clean_sbu_0, # of connection points: 6
#     Node 9, Type 0, BuildingBlock: BETDEL_clean_sbu_0, # of connection points: 6
#     Node 10, Type 0, BuildingBlock: BETDEL_clean_sbu_0, # of connection points: 6
#     Node 11, Type 0, BuildingBlock: BETDEL_clean_sbu_0, # of connection points: 6
#     Node 12, Type 0, BuildingBlock: BETDEL_clean_sbu_0, # of connection points: 6
#     Node 13, Type 0, BuildingBlock: BETDEL_clean_sbu_0, # of connection points: 6
#     Node 14, Type 0, BuildingBlock: BETDEL_clean_sbu_0, # of connection points: 6
#     Node 15, Type 0, BuildingBlock: BETDEL_clean_sbu_0, # of connection points: 6
#     Node 16, Type 0, BuildingBlock: BETDEL_clean_sbu_0, # of connection points: 6
#     Node 17, Type 0, BuildingBlock: BETDEL_clean_sbu_0, # of connection points: 6
#     Node 18, Type 0, BuildingBlock: BETDEL_clean_sbu_0, # of connection points: 6
#     Node 19, Type 0, BuildingBlock: BETDEL_clean_sbu_0, # of connection points: 6
#     Node 20, Type 0, BuildingBlock: BETDEL_clean_sbu_0, # of connection points: 6
#     Node 21, Type 0, BuildingBlock: BETDEL_clean_sbu_0, # of connection points: 6
#     Node 22, Type 0, BuildingBlock: BETDEL_clean_sbu_0, # of connection points: 6
#     Node 23, Type 0, BuildingBlock: BETDEL_clean_sbu_0, # of connection points: 6
#     Node 24, Type 0, BuildingBlock: BETDEL_clean_sbu_0, # of connection points: 6
#     Node 25, Type 0, BuildingBlock: BETDEL_clean_sbu_0, # of connection points: 6
#     Node 26, Type 0, BuildingBlock: BETDEL_clean_sbu_0, # of connection points: 6
#     Node 27, Type 0, BuildingBlock: BETDEL_clean_sbu_0, # of connection points: 6
#     Node 28, Type 0, BuildingBlock: BETDEL_clean_sbu_0, # of connection points: 6
#     Node 29, Type 0, BuildingBlock: BETDEL_clean_sbu_0, # of connection points: 6
#     Node 30, Type 0, BuildingBlock: BETDEL_clean_sbu_0, # of connection points: 6
#     Node 31, Type 0, BuildingBlock: BETDEL_clean_sbu_0, # of connection points: 6
#     Node 32, Type 0, BuildingBlock: BETDEL_clean_sbu_0, # of connection points: 6
#     Node 33, Type 0, BuildingBlock: BETDEL_clean_sbu_0, # of connection points: 6
#     Node 34, Type 0, BuildingBlock: BETDEL_clean_sbu_0, # of connection points: 6
#     Node 35, Type 0, BuildingBlock: BETDEL_clean_sbu_0, # of connection points: 6
#     Node 36, Type 0, BuildingBlock: BETDEL_clean_sbu_0, # of connection points: 6
#     Node 37, Type 0, BuildingBlock: BETDEL_clean_sbu_0, # of connection points: 6
#     Node 38, Type 0, BuildingBlock: BETDEL_clean_sbu_0, # of connection points: 6
#     Node 39, Type 0, BuildingBlock: BETDEL_clean_sbu_0, # of connection points: 6
#     Node 40, Type 0, BuildingBlock: BETDEL_clean_sbu_0, # of connection points: 6
#     Node 41, Type 0, BuildingBlock: BETDEL_clean_sbu_0, # of connection points: 6
#     Node 42, Type 0, BuildingBlock: BETDEL_clean_sbu_0, # of connection points: 6
#     Node 43, Type 0, BuildingBlock: BETDEL_clean_sbu_0, # of connection points: 6
#     Node 44, Type 0, BuildingBlock: BETDEL_clean_sbu_0, # of connection points: 6
#     Node 45, Type 0, BuildingBlock: BETDEL_clean_sbu_0, # of connection points: 6
#     Node 46, Type 0, BuildingBlock: BETDEL_clean_sbu_0, # of connection points: 6
#     Node 47, Type 0, BuildingBlock: BETDEL_clean_sbu_0, # of connection points: 6
#     Edge 48, Type (0, 0), BuildingBlock: OJICUG_clean_linker_0, # of connection points: 2
#     Edge 49, Type (0, 0), BuildingBlock: OJICUG_clean_linker_0, # of connection points: 2
#     Edge 50, Type (0, 0), BuildingBlock: OJICUG_clean_linker_0, # of connection points: 2
#     Edge 51, Type (0, 0), BuildingBlock: OJICUG_clean_linker_0, # of connection points: 2
#     Edge 52, Type (0, 0), BuildingBlock: OJICUG_clean_linker_0, # of connection points: 2
#     Edge 53, Type (0, 0), BuildingBlock: OJICUG_clean_linker_0, # of connection points: 2
#     Edge 54, Type (0, 0), BuildingBlock: OJICUG_clean_linker_0, # of connection points: 2
#     Edge 55, Type (0, 0), BuildingBlock: OJICUG_clean_linker_0, # of connection points: 2
#     Edge 56, Type (0, 0), BuildingBlock: OJICUG_clean_linker_0, # of connection points: 2
#     Edge 57, Type (0, 0), BuildingBlock: OJICUG_clean_linker_0, # of connection points: 2
#     Edge 58, Type (0, 0), BuildingBlock: OJICUG_clean_linker_0, # of connection points: 2
#     Edge 59, Type (0, 0), BuildingBlock: OJICUG_clean_linker_0, # of connection points: 2
#     Edge 60, Type (0, 0), BuildingBlock: OJICUG_clean_linker_0, # of connection points: 2
#     Edge 61, Type (0, 0), BuildingBlock: OJICUG_clean_linker_0, # of connection points: 2
#     Edge 62, Type (0, 0), BuildingBlock: OJICUG_clean_linker_0, # of connection points: 2
#     Edge 63, Type (0, 0), BuildingBlock: OJICUG_clean_linker_0, # of connection points: 2
#     Edge 64, Type (0, 0), BuildingBlock: OJICUG_clean_linker_0, # of connection points: 2
#     Edge 65, Type (0, 0), BuildingBlock: OJICUG_clean_linker_0, # of connection points: 2
#     Edge 66, Type (0, 0), BuildingBlock: OJICUG_clean_linker_0, # of connection points: 2
#     Edge 67, Type (0, 0), BuildingBlock: OJICUG_clean_linker_0, # of connection points: 2
#     Edge 68, Type (0, 0), BuildingBlock: OJICUG_clean_linker_0, # of connection points: 2
#     Edge 69, Type (0, 0), BuildingBlock: OJICUG_clean_linker_0, # of connection points: 2
#     Edge 70, Type (0, 0), BuildingBlock: OJICUG_clean_linker_0, # of connection points: 2
#     Edge 71, Type (0, 0), BuildingBlock: OJICUG_clean_linker_0, # of connection points: 2
#     Edge 72, Type (0, 0), BuildingBlock: OJICUG_clean_linker_0, # of connection points: 2
#     Edge 73, Type (0, 0), BuildingBlock: OJICUG_clean_linker_0, # of connection points: 2
#     Edge 74, Type (0, 0), BuildingBlock: OJICUG_clean_linker_0, # of connection points: 2
#     Edge 75, Type (0, 0), BuildingBlock: OJICUG_clean_linker_0, # of connection points: 2
#     Edge 76, Type (0, 0), BuildingBlock: OJICUG_clean_linker_0, # of connection points: 2
#     Edge 77, Type (0, 0), BuildingBlock: OJICUG_clean_linker_0, # of connection points: 2
#     Edge 78, Type (0, 0), BuildingBlock: OJICUG_clean_linker_0, # of connection points: 2
#     Edge 79, Type (0, 0), BuildingBlock: OJICUG_clean_linker_0, # of connection points: 2
#     Edge 80, Type (0, 0), BuildingBlock: OJICUG_clean_linker_0, # of connection points: 2
#     Edge 81, Type (0, 0), BuildingBlock: OJICUG_clean_linker_0, # of connection points: 2
#     Edge 82, Type (0, 0), BuildingBlock: OJICUG_clean_linker_0, # of connection points: 2
#     Edge 83, Type (0, 0), BuildingBlock: OJICUG_clean_linker_0, # of connection points: 2
#     Edge 84, Type (0, 0), BuildingBlock: OJICUG_clean_linker_0, # of connection points: 2
#     Edge 85, Type (0, 0), BuildingBlock: OJICUG_clean_linker_0, # of connection points: 2
#     Edge 86, Type (0, 0), BuildingBlock: OJICUG_clean_linker_0, # of connection points: 2
#     Edge 87, Type (0, 0), BuildingBlock: OJICUG_clean_linker_0, # of connection points: 2
#     Edge 88, Type (0, 0), BuildingBlock: OJICUG_clean_linker_0, # of connection points: 2
#     Edge 89, Type (0, 0), BuildingBlock: OJICUG_clean_linker_0, # of connection points: 2
#     Edge 90, Type (0, 0), BuildingBlock: OJICUG_clean_linker_0, # of connection points: 2
#     Edge 91, Type (0, 0), BuildingBlock: OJICUG_clean_linker_0, # of connection points: 2
#     Edge 92, Type (0, 0), BuildingBlock: OJICUG_clean_linker_0, # of connection points: 2
#     Edge 93, Type (0, 0), BuildingBlock: OJICUG_clean_linker_0, # of connection points: 2
#     Edge 94, Type (0, 0), BuildingBlock: OJICUG_clean_linker_0, # of connection points: 2
#     Edge 95, Type (0, 0), BuildingBlock: OJICUG_clean_linker_0, # of connection points: 2
#     Edge 96, Type (0, 0), BuildingBlock: OJICUG_clean_linker_0, # of connection points: 2
#     Edge 97, Type (0, 0), BuildingBlock: OJICUG_clean_linker_0, # of connection points: 2
#     Edge 98, Type (0, 0), BuildingBlock: OJICUG_clean_linker_0, # of connection points: 2
#     Edge 99, Type (0, 0), BuildingBlock: OJICUG_clean_linker_0, # of connection points: 2
#     Edge 100, Type (0, 0), BuildingBlock: OJICUG_clean_linker_0, # of connection points: 2
#     Edge 101, Type (0, 0), BuildingBlock: OJICUG_clean_linker_0, # of connection points: 2
#     Edge 102, Type (0, 0), BuildingBlock: OJICUG_clean_linker_0, # of connection points: 2
#     Edge 103, Type (0, 0), BuildingBlock: OJICUG_clean_linker_0, # of connection points: 2
#     Edge 104, Type (0, 0), BuildingBlock: OJICUG_clean_linker_0, # of connection points: 2
#     Edge 105, Type (0, 0), BuildingBlock: OJICUG_clean_linker_0, # of connection points: 2
#     Edge 106, Type (0, 0), BuildingBlock: OJICUG_clean_linker_0, # of connection points: 2
#     Edge 107, Type (0, 0), BuildingBlock: OJICUG_clean_linker_0, # of connection points: 2
#     Edge 108, Type (0, 0), BuildingBlock: OJICUG_clean_linker_0, # of connection points: 2
#     Edge 109, Type (0, 0), BuildingBlock: OJICUG_clean_linker_0, # of connection points: 2
#     Edge 110, Type (0, 0), BuildingBlock: OJICUG_clean_linker_0, # of connection points: 2
#     Edge 111, Type (0, 0), BuildingBlock: OJICUG_clean_linker_0, # of connection points: 2
#     Edge 112, Type (0, 0), BuildingBlock: OJICUG_clean_linker_0, # of connection points: 2
#     Edge 113, Type (0, 0), BuildingBlock: OJICUG_clean_linker_0, # of connection points: 2
#     Edge 114, Type (0, 0), BuildingBlock: OJICUG_clean_linker_0, # of connection points: 2
#     Edge 115, Type (0, 0), BuildingBlock: OJICUG_clean_linker_0, # of connection points: 2
#     Edge 116, Type (0, 0), BuildingBlock: OJICUG_clean_linker_0, # of connection points: 2
#     Edge 117, Type (0, 0), BuildingBlock: OJICUG_clean_linker_0, # of connection points: 2
#     Edge 118, Type (0, 0), BuildingBlock: OJICUG_clean_linker_0, # of connection points: 2
#     Edge 119, Type (0, 0), BuildingBlock: OJICUG_clean_linker_0, # of connection points: 2
#     Edge 120, Type (0, 0), BuildingBlock: OJICUG_clean_linker_0, # of connection points: 2
#     Edge 121, Type (0, 0), BuildingBlock: OJICUG_clean_linker_0, # of connection points: 2
#     Edge 122, Type (0, 0), BuildingBlock: OJICUG_clean_linker_0, # of connection points: 2
#     Edge 123, Type (0, 0), BuildingBlock: OJICUG_clean_linker_0, # of connection points: 2
#     Edge 124, Type (0, 0), BuildingBlock: OJICUG_clean_linker_0, # of connection points: 2
#     Edge 125, Type (0, 0), BuildingBlock: OJICUG_clean_linker_0, # of connection points: 2
#     Edge 126, Type (0, 0), BuildingBlock: OJICUG_clean_linker_0, # of connection points: 2
#     Edge 127, Type (0, 0), BuildingBlock: OJICUG_clean_linker_0, # of connection points: 2
#     Edge 128, Type (0, 0), BuildingBlock: OJICUG_clean_linker_0, # of connection points: 2
#     Edge 129, Type (0, 0), BuildingBlock: OJICUG_clean_linker_0, # of connection points: 2
#     Edge 130, Type (0, 0), BuildingBlock: OJICUG_clean_linker_0, # of connection points: 2
#     Edge 131, Type (0, 0), BuildingBlock: OJICUG_clean_linker_0, # of connection points: 2
#     Edge 132, Type (0, 0), BuildingBlock: OJICUG_clean_linker_0, # of connection points: 2
#     Edge 133, Type (0, 0), BuildingBlock: OJICUG_clean_linker_0, # of connection points: 2
#     Edge 134, Type (0, 0), BuildingBlock: OJICUG_clean_linker_0, # of connection points: 2
#     Edge 135, Type (0, 0), BuildingBlock: OJICUG_clean_linker_0, # of connection points: 2
#     Edge 136, Type (0, 0), BuildingBlock: OJICUG_clean_linker_0, # of connection points: 2
#     Edge 137, Type (0, 0), BuildingBlock: OJICUG_clean_linker_0, # of connection points: 2
#     Edge 138, Type (0, 0), BuildingBlock: OJICUG_clean_linker_0, # of connection points: 2
#     Edge 139, Type (0, 0), BuildingBlock: OJICUG_clean_linker_0, # of connection points: 2
#     Edge 140, Type (0, 0), BuildingBlock: OJICUG_clean_linker_0, # of connection points: 2
#     Edge 141, Type (0, 0), BuildingBlock: OJICUG_clean_linker_0, # of connection points: 2
#     Edge 142, Type (0, 0), BuildingBlock: OJICUG_clean_linker_0, # of connection points: 2
#     Edge 143, Type (0, 0), BuildingBlock: OJICUG_clean_linker_0, # of connection points: 2
#     Edge 144, Type (0, 0), BuildingBlock: OJICUG_clean_linker_0, # of connection points: 2
#     Edge 145, Type (0, 0), BuildingBlock: OJICUG_clean_linker_0, # of connection points: 2
#     Edge 146, Type (0, 0), BuildingBlock: OJICUG_clean_linker_0, # of connection points: 2
#     Edge 147, Type (0, 0), BuildingBlock: OJICUG_clean_linker_0, # of connection points: 2
#     Edge 148, Type (0, 0), BuildingBlock: OJICUG_clean_linker_0, # of connection points: 2
#     Edge 149, Type (0, 0), BuildingBlock: OJICUG_clean_linker_0, # of connection points: 2
#     Edge 150, Type (0, 0), BuildingBlock: OJICUG_clean_linker_0, # of connection points: 2
#     Edge 151, Type (0, 0), BuildingBlock: OJICUG_clean_linker_0, # of connection points: 2
#     Edge 152, Type (0, 0), BuildingBlock: OJICUG_clean_linker_0, # of connection points: 2
#     Edge 153, Type (0, 0), BuildingBlock: OJICUG_clean_linker_0, # of connection points: 2
#     Edge 154, Type (0, 0), BuildingBlock: OJICUG_clean_linker_0, # of connection points: 2
#     Edge 155, Type (0, 0), BuildingBlock: OJICUG_clean_linker_0, # of connection points: 2
#     Edge 156, Type (0, 0), BuildingBlock: OJICUG_clean_linker_0, # of connection points: 2
#     Edge 157, Type (0, 0), BuildingBlock: OJICUG_clean_linker_0, # of connection points: 2
#     Edge 158, Type (0, 0), BuildingBlock: OJICUG_clean_linker_0, # of connection points: 2
#     Edge 159, Type (0, 0), BuildingBlock: OJICUG_clean_linker_0, # of connection points: 2
#     Edge 160, Type (0, 0), BuildingBlock: OJICUG_clean_linker_0, # of connection points: 2
#     Edge 161, Type (0, 0), BuildingBlock: OJICUG_clean_linker_0, # of connection points: 2
#     Edge 162, Type (0, 0), BuildingBlock: OJICUG_clean_linker_0, # of connection points: 2
#     Edge 163, Type (0, 0), BuildingBlock: OJICUG_clean_linker_0, # of connection points: 2
#     Edge 164, Type (0, 0), BuildingBlock: OJICUG_clean_linker_0, # of connection points: 2
#     Edge 165, Type (0, 0), BuildingBlock: OJICUG_clean_linker_0, # of connection points: 2
#     Edge 166, Type (0, 0), BuildingBlock: OJICUG_clean_linker_0, # of connection points: 2
#     Edge 167, Type (0, 0), BuildingBlock: OJICUG_clean_linker_0, # of connection points: 2
#     Edge 168, Type (0, 0), BuildingBlock: OJICUG_clean_linker_0, # of connection points: 2
#     Edge 169, Type (0, 0), BuildingBlock: OJICUG_clean_linker_0, # of connection points: 2
#     Edge 170, Type (0, 0), BuildingBlock: OJICUG_clean_linker_0, # of connection points: 2
#     Edge 171, Type (0, 0), BuildingBlock: OJICUG_clean_linker_0, # of connection points: 2
#     Edge 172, Type (0, 0), BuildingBlock: OJICUG_clean_linker_0, # of connection points: 2
#     Edge 173, Type (0, 0), BuildingBlock: OJICUG_clean_linker_0, # of connection points: 2
#     Edge 174, Type (0, 0), BuildingBlock: OJICUG_clean_linker_0, # of connection points: 2
#     Edge 175, Type (0, 0), BuildingBlock: OJICUG_clean_linker_0, # of connection points: 2
#     Edge 176, Type (0, 0), BuildingBlock: OJICUG_clean_linker_0, # of connection points: 2
#     Edge 177, Type (0, 0), BuildingBlock: OJICUG_clean_linker_0, # of connection points: 2
#     Edge 178, Type (0, 0), BuildingBlock: OJICUG_clean_linker_0, # of connection points: 2
#     Edge 179, Type (0, 0), BuildingBlock: OJICUG_clean_linker_0, # of connection points: 2
#     Edge 180, Type (0, 0), BuildingBlock: OJICUG_clean_linker_0, # of connection points: 2
#     Edge 181, Type (0, 0), BuildingBlock: OJICUG_clean_linker_0, # of connection points: 2
#     Edge 182, Type (0, 0), BuildingBlock: OJICUG_clean_linker_0, # of connection points: 2
#     Edge 183, Type (0, 0), BuildingBlock: OJICUG_clean_linker_0, # of connection points: 2
#     Edge 184, Type (0, 0), BuildingBlock: OJICUG_clean_linker_0, # of connection points: 2
#     Edge 185, Type (0, 0), BuildingBlock: OJICUG_clean_linker_0, # of connection points: 2
#     Edge 186, Type (0, 0), BuildingBlock: OJICUG_clean_linker_0, # of connection points: 2
#     Edge 187, Type (0, 0), BuildingBlock: OJICUG_clean_linker_0, # of connection points: 2
#     Edge 188, Type (0, 0), BuildingBlock: OJICUG_clean_linker_0, # of connection points: 2
#     Edge 189, Type (0, 0), BuildingBlock: OJICUG_clean_linker_0, # of connection points: 2
#     Edge 190, Type (0, 0), BuildingBlock: OJICUG_clean_linker_0, # of connection points: 2
#     Edge 191, Type (0, 0), BuildingBlock: OJICUG_clean_linker_0, # of connection points: 2
# Relax obj value: 0.445
# Max RMSD: 0.320
# Mean RMSD: 0.285
data_MOF--net-lcs-e--node1-BETDEL_clean_sbu_0--edge1-OJICUG_clean_linker_0
_symmetry_space_group_name_H-M    P1
_symmetry_Int_Tables_number       1
_symmetry_cell_setting            triclinic
loop_
_symmetry_equiv_pos_as_xyz
'x, y, z'
_cell_length_a     42.365111
_cell_length_b     43.508652
_cell_length_c     41.999419
_cell_angle_alpha  88.251522
_cell_angle_beta   89.26234
_cell_angle_gamma 88.617376
loop_
_atom_site_label
_atom_site_type_symbol
_atom_site_fract_x
_atom_site_fract_y
_atom_site_fract_z
_atom_type_partial_charge
Dy0 Dy 0.99614 0.3827 0.25775 0.0
C1 C 0.01281 0.47813 0.34824 0.0
C2 C 0.99845 0.32194 0.23544 0.0
Dy3 Dy 1.00046 0.43112 0.30906 0.0
O4 O 0.97569 0.34244 0.22993 0.0
O5 O 0.01996 0.33572 0.25116 0.0
O6 O 0.98937 0.42444 0.22287 0.0
O7 O 0.97141 0.42723 0.26843 0.0
C8 C 0.976 0.44309 0.24329 0.0
C9 C 0.02512 0.37624 0.32671 0.0
O10 O 0.95186 0.41497 0.31794 0.0
O11 O 0.96307 0.36775 0.29718 0.0
O12 O 1.00256 0.45139 0.35705 0.0
O13 O 0.01276 0.48022 0.31727 0.0
O14 O 0.00954 0.3944 0.34527 0.0
O15 O 0.02696 0.38872 0.29916 0.0
O16 O 0.04407 0.39845 0.24458 0.0
O17 O 0.04239 0.4413 0.27657 0.0
C18 C 0.94773 0.38494 0.31803 0.0
C19 C 0.05618 0.42428 0.25425 0.0
Dy20 Dy 0.85435 0.75012 0.57716 0.0
C21 C 0.83406 0.85164 0.49319 0.0
C22 C 0.87873 0.70412 0.61486 0.0
Dy23 Dy 0.8488 0.80197 0.52983 0.0
O24 O 0.86957 0.73087 0.6245 0.0
O25 O 0.87328 0.70196 0.58458 0.0
O26 O 0.81142 0.7656 0.60519 0.0
O27 O 0.83952 0.79755 0.58056 0.0
C28 C 0.81455 0.79436 0.59665 0.0
C29 C 0.8998 0.76698 0.5159 0.0
O30 O 0.87938 0.82449 0.56441 0.0
O31 O 0.8955 0.77893 0.58938 0.0
O32 O 0.824 0.82428 0.48802 0.0
O33 O 0.85162 0.85184 0.51815 0.0
O34 O 0.89427 0.79432 0.50426 0.0
O35 O 0.8741 0.75659 0.52846 0.0
O36 O 0.80741 0.73734 0.55576 0.0
O37 O 0.79893 0.78474 0.53058 0.0
C38 C 0.89851 0.80882 0.58386 0.0
C39 C 0.78815 0.75808 0.54156 0.0
Dy40 Dy 0.45783 0.62471 0.72665 0.0
C41 C 0.53418 0.64037 0.83533 0.0
C42 C 0.4137 0.60381 0.68632 0.0
Dy43 Dy 0.50139 0.6246 0.78376 0.0
O44 O 0.41428 0.63103 0.69773 0.0
O45 O 0.43981 0.58916 0.69371 0.0
O46 O 0.43504 0.67067 0.73985 0.0
O47 O 0.45471 0.64022 0.77358 0.0
C48 C 0.44298 0.66649 0.76941 0.0
C49 C 0.50754 0.57156 0.75292 0.0
O50 O 0.46067 0.60088 0.80812 0.0
O51 O 0.43265 0.59345 0.7621 0.0
O52 O 0.54702 0.62974 0.80943 0.0
O53 O 0.50369 0.64193 0.83311 0.0
O54 O 0.51454 0.57521 0.78247 0.0
O55 O 0.50243 0.59817 0.73873 0.0
O56 O 0.48556 0.66708 0.71074 0.0
O57 O 0.51121 0.67099 0.75889 0.0
C58 C 0.43638 0.58914 0.79329 0.0
C59 C 0.50152 0.68366 0.7313 0.0
Dy60 Dy 0.59934 0.22115 0.00593 0.0
C61 C 0.60359 0.28937 0.11715 0.0
C62 C 0.61294 0.19727 0.94849 0.0
Dy63 Dy 0.60412 0.25957 0.06184 0.0
O64 O 0.59079 0.18809 0.96792 0.0
O65 O 0.62571 0.22161 0.95951 0.0
O66 O 0.57906 0.18048 0.03122 0.0
O67 O 0.57095 0.22498 0.04881 0.0
C68 C 0.5686 0.19639 0.05513 0.0
C69 C 0.65304 0.26958 0.01851 0.0
O70 O 0.62831 0.21768 0.08228 0.0
O71 O 0.63424 0.19253 0.03447 0.0
O72 O 0.60275 0.30282 0.0892 0.0
O73 O 0.60475 0.2597 0.11508 0.0
O74 O 0.63745 0.29104 0.03327 0.0
O75 O 0.63948 0.24491 0.02621 0.0
O76 O 0.55752 0.25332 0.99494 0.0
O77 O 0.55336 0.27064 0.04587 0.0
C78 C 0.63849 0.19393 0.06569 0.0
C79 C 0.54032 0.26643 0.01766 0.0
Dy80 Dy 0.98776 0.64028 0.20008 0.0
C81 C 0.0932 0.62562 0.28369 0.0
C82 C 0.93779 0.66 0.16416 0.0
Dy83 Dy 0.04024 0.63659 0.2489 0.0
O84 O 0.9503 0.63249 0.16458 0.0
O85 O 0.95137 0.67624 0.18528 0.0
O86 O 0.01556 0.61688 0.16185 0.0
O87 O 0.026 0.60868 0.2101 0.0
C88 C 0.03554 0.6042 0.18195 0.0
C89 C 1.00091 0.68814 0.25566 0.0
O90 O 0.06735 0.65683 0.20784 0.0
O91 O 0.02486 0.66853 0.17449 0.0
O92 O 0.09214 0.64176 0.25722 0.0
O93 O 0.06532 0.61594 0.29152 0.0
O94 O 0.01325 0.67181 0.2791 0.0
O95 O 0.00922 0.67439 0.23074 0.0
O96 O 0.9697 0.59945 0.23104 0.0
O97 O 0.0174 0.589 0.25525 0.0
C98 C 0.05557 0.66881 0.18098 0.0
C99 C 0.98878 0.57973 0.24717 0.0
Dy100 Dy 0.60529 0.81342 0.53371 0.0
C101 C 0.60323 0.72522 0.43316 0.0
C102 C 0.6173 0.8523 0.58165 0.0
Dy103 Dy 0.60764 0.75982 0.48447 0.0
O104 O 0.59284 0.85429 0.56326 0.0
O105 O 0.63373 0.82753 0.57543 0.0
O106 O 0.59969 0.84927 0.49449 0.0
O107 O 0.58425 0.80441 0.48863 0.0
C108 C 0.58866 0.83001 0.47456 0.0
C109 C 0.65091 0.74777 0.53135 0.0
O110 O 0.64253 0.79159 0.46229 0.0
O111 O 0.65044 0.82124 0.50657 0.0
O112 O 0.59233 0.71752 0.46137 0.0
O113 O 0.61632 0.75191 0.43297 0.0
O114 O 0.64404 0.7289 0.5093 0.0
O115 O 0.62937 0.76869 0.52978 0.0
O116 O 0.55596 0.79291 0.5426 0.0
O117 O 0.55586 0.75998 0.49962 0.0
C118 C 0.65775 0.81304 0.47713 0.0
C119 C 0.54066 0.77458 0.523 0.0
Dy120 Dy 0.50827 0.38052 0.70002 0.0
C121 C 0.40974 0.38246 0.79418 0.0
C122 C 0.55473 0.36709 0.65817 0.0
Dy123 Dy 0.45812 0.37453 0.75227 0.0
O124 O 0.52832 0.38107 0.65102 0.0
O125 O 0.55619 0.36064 0.68864 0.0
O126 O 0.48745 0.42446 0.67749 0.0
O127 O 0.46067 0.39517 0.70544 0.0
C128 C 0.45996 0.4208 0.69115 0.0
C129 C 0.5024 0.32652 0.75626 0.0
O130 O 0.43216 0.34983 0.71476 0.0
O131 O 0.47469 0.34815 0.6784 0.0
O132 O 0.40731 0.3691 0.76705 0.0
O133 O 0.43872 0.39007 0.79869 0.0
O134 O 0.48929 0.3402 0.78036 0.0
O135 O 0.49277 0.3417 0.732 0.0
O136 O 0.52319 0.41948 0.73082 0.0
O137 O 0.4746 0.42421 0.75514 0.0
C138 C 0.44545 0.34097 0.6875 0.0
C139 C 0.5015 0.43678 0.74543 0.0
Dy140 Dy 0.85319 0.27624 0.96132 0.0
C141 C 0.85206 0.17637 0.05473 0.0
C142 C 0.87104 0.31795 0.91552 0.0
Dy143 Dy 0.86041 0.22592 0.01636 0.0
O144 O 0.85206 0.29556 0.91148 0.0
O145 O 0.87834 0.31897 0.94547 0.0
O146 O 0.81438 0.24972 0.93747 0.0
O147 O 0.84495 0.22851 0.96854 0.0
C148 C 0.82066 0.224 0.9531 0.0
C149 C 0.90526 0.26884 0.02476 0.0
O150 O 0.88865 0.20369 0.97676 0.0
O151 O 0.89472 0.24778 0.94481 0.0
O152 O 0.87132 0.17695 0.0304 0.0
O153 O 0.8381 0.20299 0.05832 0.0
O154 O 0.89922 0.24632 0.04466 0.0
O155 O 0.88315 0.26918 0.00416 0.0
O156 O 0.80904 0.28917 0.98956 0.0
O157 O 0.80874 0.24314 0.0192 0.0
C158 C 0.90115 0.21828 0.95134 0.0
C159 C 0.79372 0.26838 0.00755 0.0
Dy160 Dy 0.31768 0.99789 0.36884 0.0
C161 C 0.24826 0.11008 0.36378 0.0
C162 C 0.35023 0.94406 0.36211 0.0
Dy163 Dy 0.27788 0.05469 0.36056 0.0
O164 O 0.35112 0.96141 0.38663 0.0
O165 O 0.32865 0.9547 0.34273 0.0
O166 O 0.35954 0.02366 0.38515 0.0
O167 O 0.3137 0.04057 0.39443 0.0
C168 C 0.34267 0.04674 0.39538 0.0
C169 C 0.26348 0.01213 0.31593 0.0
O170 O 0.32133 0.07046 0.33404 0.0
O171 O 0.34297 0.02138 0.32859 0.0
O172 O 0.23675 0.08429 0.3742 0.0
O173 O 0.27579 0.10568 0.35051 0.0
O174 O 0.24303 0.03019 0.32976 0.0
O175 O 0.28961 0.01712 0.32865 0.0
O176 O 0.2832 0.98736 0.40914 0.0
O177 O 0.26671 0.03785 0.41156 0.0
C178 C 0.34299 0.05134 0.32211 0.0
C179 C 0.26965 0.00991 0.4253 0.0
Dy180 Dy 0.21528 1.00876 0.62417 0.0
C181 C 0.30172 0.10769 0.60996 0.0
C182 C 0.17508 0.96331 0.64088 0.0
Dy183 Dy 0.26605 0.05799 0.62417 0.0
O184 O 0.17139 0.98266 0.61708 0.0
O185 O 0.20228 0.96734 0.65416 0.0
O186 O 0.18047 0.03908 0.59796 0.0
O187 O 0.22952 0.04519 0.59235 0.0
C188 C 0.20259 0.05648 0.58626 0.0
C189 C 0.2693 0.01897 0.67691 0.0
O190 O 0.22603 0.08541 0.6451 0.0
O191 O 0.19307 0.04398 0.65588 0.0
O192 O 0.31109 0.07917 0.60775 0.0
O193 O 0.27327 0.10904 0.62181 0.0
O194 O 0.29359 0.03102 0.66236 0.0
O195 O 0.24546 0.02782 0.66104 0.0
O196 O 0.24629 0.98992 0.58361 0.0
O197 O 0.27628 0.03344 0.57771 0.0
C198 C 0.20001 0.07349 0.65754 0.0
C199 C 0.2662 1.00716 0.56625 0.0
Dy200 Dy 0.25662 0.97187 0.87154 0.0
C201 C 0.1648 0.06905 0.87203 0.0
C202 C 0.29704 0.9248 0.88305 0.0
Dy203 Dy 0.21326 0.02805 0.87998 0.0
O204 O 0.27066 0.92264 0.86811 0.0
O205 O 0.30174 0.95286 0.89143 0.0
O206 O 0.23431 0.95997 0.82508 0.0
O207 O 0.20919 0.98415 0.85855 0.0
C208 C 0.20747 0.97398 0.83111 0.0
C209 C 0.25915 0.02325 0.92595 0.0
O210 O 0.18295 0.99235 0.90443 0.0
O211 O 0.22177 0.95325 0.90738 0.0
O212 O 0.16774 0.04998 0.8963 0.0
O213 O 0.1893 0.0669 0.85338 0.0
O214 O 0.24765 0.04923 0.9141 0.0
O215 O 0.246 1.00261 0.91094 0.0
O216 O 0.27897 1.00348 0.83505 0.0
O217 O 0.23416 0.03369 0.82985 0.0
C218 C 0.19342 0.96485 0.91499 0.0
C219 C 0.26067 0.02204 0.81744 0.0
Dy220 Dy 0.25623 0.95264 0.12157 0.0
C221 C 0.37283 1.00876 0.10738 0.0
C222 C 0.2045 0.91902 0.10875 0.0
Dy223 Dy 0.31192 0.9919 0.11395 0.0
O224 O 0.21895 0.91908 0.13584 0.0
O225 O 0.21593 0.94066 0.09028 0.0
O226 O 0.28288 0.91475 0.14844 0.0
O227 O 0.29642 0.9606 0.15113 0.0
C228 C 0.30406 0.93318 0.15845 0.0
C229 C 0.27029 1.00447 0.06597 0.0
O230 O 0.33221 0.94821 0.09577 0.0
O231 O 0.28635 0.921 0.09287 0.0
O232 O 0.36314 0.98091 0.10726 0.0
O233 O 0.34923 0.02797 0.11182 0.0
O234 O 0.2854 0.02489 0.08126 0.0
O235 O 0.27659 0.97829 0.07911 0.0
O236 O 0.2431 0.9874 0.16013 0.0
O237 O 0.29295 1.00778 0.16192 0.0
C238 C 0.31715 0.92319 0.08895 0.0
C239 C 0.26452 1.00352 0.17535 0.0
Dy240 Dy 0.35837 0.25559 0.07346 0.0
C241 C 0.33391 0.35958 0.99361 0.0
C242 C 0.38344 0.20997 0.11157 0.0
Dy243 Dy 0.35192 0.30947 0.02792 0.0
O244 O 0.36297 0.23053 0.12047 0.0
O245 O 0.38916 0.21315 0.08119 0.0
O246 O 0.31544 0.27084 0.10194 0.0
O247 O 0.3442 0.30295 0.07848 0.0
C248 C 0.31919 0.29971 0.09437 0.0
C249 C 0.40237 0.27514 0.01134 0.0
O250 O 0.38478 0.33075 0.06141 0.0
O251 O 0.39806 0.2851 0.08823 0.0
O252 O 0.35144 0.35995 0.01862 0.0
O253 O 0.32602 0.33183 0.98705 0.0
O254 O 0.3963 0.30266 1.00039 0.0
O255 O 0.37709 0.26435 0.02453 0.0
O256 O 0.31229 0.24246 0.05044 0.0
O257 O 0.30239 0.29131 0.02918 0.0
C258 C 0.40283 0.31456 0.0815 0.0
C259 C 0.29229 0.2638 0.03823 0.0
Dy260 Dy 0.00792 0.88112 0.20327 0.0
C261 C 0.90575 0.88308 0.29062 0.0
C262 C 0.06165 0.86894 0.1701 0.0
Dy263 Dy 0.95531 0.87647 0.24983 0.0
O264 O 0.0402 0.88929 0.16193 0.0
O265 O 0.05451 0.85621 0.19763 0.0
O266 O 0.98051 0.90424 0.16416 0.0
O267 O 0.96707 0.90998 0.21251 0.0
C268 C 0.959 0.91456 0.18379 0.0
C269 C 0.99654 0.826 0.25562 0.0
O270 O 0.93006 0.85702 0.20914 0.0
O271 O 0.97605 0.84912 0.17909 0.0
O272 O 0.90329 0.8752 0.26112 0.0
O273 O 0.93519 0.88597 0.29782 0.0
O274 O 0.98353 0.84048 0.27919 0.0
O275 O 0.98854 0.8413 0.23083 0.0
O276 O 0.02191 0.92169 0.23303 0.0
O277 O 0.97378 0.92496 0.25831 0.0
C278 C 0.94514 0.84657 0.18375 0.0
C279 C 1.00097 0.93799 0.24981 0.0
Dy280 Dy 0.10427 0.7206 0.509 0.0
C281 C 0.08739 0.78434 0.62212 0.0
C282 C 0.11906 0.7001 0.45023 0.0
Dy283 Dy 0.10113 0.75601 0.56802 0.0
O284 O 0.09446 0.69229 0.46706 0.0
O285 O 0.13395 0.72113 0.46478 0.0
O286 O 0.09751 0.67511 0.5353 0.0
O287 O 0.07728 0.71579 0.55261 0.0
C288 C 0.0819 0.68747 0.55874 0.0
C289 C 0.1531 0.77063 0.53271 0.0
O290 O 0.13143 0.71727 0.58548 0.0
O291 O 0.1468 0.7025 0.53505 0.0
O292 O 0.09775 0.75609 0.62092 0.0
O293 O 0.08486 0.79725 0.59383 0.0
O294 O 0.14976 0.77432 0.56291 0.0
O295 O 0.12598 0.76435 0.52124 0.0
O296 O 0.05527 0.74186 0.50104 0.0
O297 O 0.05021 0.76235 0.55102 0.0
C298 C 0.14966 0.70088 0.56641 0.0
C299 C 0.03744 0.75456 0.52367 0.0
Dy300 Dy 0.00868 0.58609 0.69176 0.0
C301 C 0.00848 0.69564 0.76468 0.0
C302 C 0.99682 0.53989 0.6515 0.0
Dy303 Dy 0.01295 0.63451 0.7432 0.0
O304 O 0.00779 0.56652 0.64334 0.0
O305 O 0.99549 0.53759 0.68241 0.0
O306 O 0.99907 0.6232 0.65618 0.0
O307 O 0.98145 0.62799 0.70232 0.0
C308 C 0.98227 0.64035 0.67468 0.0
C309 C 0.03464 0.57451 0.75719 0.0
O310 O 0.96539 0.61775 0.75668 0.0
O311 O 0.96731 0.57494 0.72461 0.0
O312 O 0.03099 0.67537 0.77203 0.0
O313 O 0.98855 0.68153 0.74735 0.0
O314 O 0.02198 0.59298 0.77826 0.0
O315 O 0.038 0.59054 0.73199 0.0
O316 O 0.05748 0.60147 0.68286 0.0
O317 O 0.04642 0.64878 0.70366 0.0
C318 C 0.95338 0.5919 0.74689 0.0
C319 C 0.06199 0.63138 0.68306 0.0
Dy320 Dy 0.16362 0.21448 0.47448 0.0
C321 C 0.12983 0.31863 0.39047 0.0
C322 C 0.17873 0.16332 0.50828 0.0
Dy323 Dy 0.15834 0.27093 0.42191 0.0
O324 O 0.15921 0.16438 0.48464 0.0
O325 O 0.19009 0.19018 0.51365 0.0
O326 O 0.12223 0.2292 0.50553 0.0
O327 O 0.13439 0.25564 0.46632 0.0
C328 C 0.1123 0.25153 0.48678 0.0
C329 C 0.19581 0.22486 0.40303 0.0
O330 O 0.20473 0.2826 0.44536 0.0
O331 O 0.21181 0.23611 0.47473 0.0
O332 O 0.14642 0.29705 0.37708 0.0
O333 O 0.13089 0.31536 0.4214 0.0
O334 O 0.19085 0.2493 0.38479 0.0
O335 O 0.18118 0.22838 0.42882 0.0
O336 O 0.1375 0.19263 0.43589 0.0
O337 O 0.1225 0.2375 0.40685 0.0
C338 C 0.22293 0.26224 0.46192 0.0
C339 C 0.12125 0.20743 0.41316 0.0
Dy340 Dy 0.50931 0.38963 0.22374 0.0
C341 C 0.60119 0.40856 0.32004 0.0
C342 C 0.47265 0.37401 0.17551 0.0
Dy343 Dy 0.55908 0.39175 0.27621 0.0
O344 O 0.46415 0.37315 0.20538 0.0
O345 O 0.50127 0.38385 0.17175 0.0
O346 O 0.48088 0.43325 0.23342 0.0
O347 O 0.51943 0.42236 0.26121 0.0
C348 C 0.4991 0.44382 0.25483 0.0
C349 C 0.57672 0.35834 0.22733 0.0
O350 O 0.534 0.34812 0.29444 0.0
O351 O 0.49996 0.34454 0.25182 0.0
O352 O 0.6013 0.38239 0.30613 0.0
O353 O 0.57499 0.42353 0.31353 0.0
O354 O 0.5969 0.37311 0.24371 0.0
O355 O 0.54932 0.36109 0.23894 0.0
O356 O 0.54941 0.40994 0.19569 0.0
O357 O 0.57522 0.42678 0.23998 0.0
C358 C 0.51337 0.33207 0.27799 0.0
C359 C 0.57239 0.42522 0.20873 0.0
Dy360 Dy 0.40692 0.76384 0.9342 0.0
C361 C 0.38963 0.81932 0.05242 0.0
C362 C 0.41843 0.73474 0.8801 0.0
Dy363 Dy 0.40445 0.79851 0.99376 0.0
O364 O 0.41203 0.76399 0.88139 0.0
O365 O 0.41895 0.72147 0.90834 0.0
O366 O 0.35777 0.74698 0.93887 0.0
O367 O 0.38182 0.75535 0.98092 0.0
C368 C 0.35459 0.74978 0.9692 0.0
C369 C 0.42681 0.8319 0.94408 0.0
O370 O 0.45304 0.77626 1.00135 0.0
O371 O 0.45768 0.75606 0.95116 0.0
O372 O 0.41428 0.82699 0.03559 0.0
O373 O 0.37485 0.79809 0.03805 0.0
O374 O 0.41134 0.84412 0.96768 0.0
O375 O 0.43132 0.80355 0.95008 0.0
O376 O 0.37655 0.80283 0.91741 0.0
O377 O 0.36188 0.81705 0.96825 0.0
C378 C 0.47058 0.7634 0.9786 0.0
C379 C 0.35855 0.8189 0.93697 0.0
Dy380 Dy 0.97327 0.38407 0.74965 0.0
C381 C 0.07364 0.35094 0.83547 0.0
C382 C 0.92502 0.40378 0.71203 0.0
Dy383 Dy 0.02495 0.3718 0.79786 0.0
O384 O 0.92408 0.40205 0.74287 0.0
O385 O 0.95258 0.39474 0.70114 0.0
O386 O 0.97059 0.33465 0.73758 0.0
O387 O 0.01457 0.35003 0.75215 0.0
C388 C 0.99854 0.32594 0.74641 0.0
C389 C 0.97846 0.40679 0.82093 0.0
O390 O 0.04187 0.41834 0.77709 0.0
O391 O 1.00165 0.42803 0.74084 0.0
O392 O 0.05456 0.33377 0.82043 0.0
O393 O 0.06777 0.37948 0.82728 0.0
O394 O 0.99641 0.38926 0.83905 0.0
O395 O 0.98827 0.40601 0.79247 0.0
O396 O 0.94441 0.36337 0.78885 0.0
O397 O 0.98654 0.34053 0.81602 0.0
C398 C 0.02687 0.43745 0.75635 0.0
C399 C 0.95572 0.34478 0.81164 0.0
Dy400 Dy 0.40356 0.25676 0.52149 0.0
C401 C 0.39463 0.16371 0.4241 0.0
C402 C 0.40501 0.28697 0.57638 0.0
Dy403 Dy 0.40682 0.20382 0.47095 0.0
O404 O 0.41475 0.29825 0.54893 0.0
O405 O 0.39503 0.25923 0.57381 0.0
O406 O 0.36694 0.28782 0.49751 0.0
O407 O 0.38096 0.24772 0.47642 0.0
C408 C 0.35988 0.26911 0.47537 0.0
C409 C 0.42602 0.1878 0.5295 0.0
O410 O 0.45529 0.22595 0.4614 0.0
O411 O 0.4548 0.25904 0.50442 0.0
O412 O 0.41976 0.16296 0.4416 0.0
O413 O 0.37779 0.18828 0.43021 0.0
O414 O 0.41514 0.16806 0.51002 0.0
O415 O 0.42854 0.21349 0.51523 0.0
O416 O 0.3697 0.22323 0.54299 0.0
O417 O 0.3628 0.19326 0.49876 0.0
C418 C 0.47021 0.24488 0.48075 0.0
C419 C 0.35566 0.20088 0.52838 0.0
Dy420 Dy 0.5508 0.64166 0.25627 0.0
C421 C 0.44283 0.65156 0.33598 0.0
C422 C 0.60256 0.63488 0.2184 0.0
Dy423 Dy 0.49519 0.63772 0.30097 0.0
O424 O 0.60336 0.64222 0.24819 0.0
O425 O 0.57357 0.63234 0.20936 0.0
O426 O 0.52456 0.678 0.22559 0.0
O427 O 0.51647 0.67683 0.27359 0.0
C428 C 0.51028 0.6925 0.24845 0.0
C429 C 0.54401 0.60475 0.32239 0.0
O430 O 0.48262 0.5973 0.26999 0.0
O431 O 0.53245 0.59299 0.24807 0.0
O432 O 0.46248 0.62891 0.34196 0.0
O433 O 0.45034 0.66508 0.30892 0.0
O434 O 0.52182 0.61509 0.3412 0.0
O435 O 0.53651 0.60933 0.29356 0.0
O436 O 0.57395 0.66182 0.29776 0.0
O437 O 0.52648 0.67016 0.32529 0.0
C438 C 0.50456 0.58047 0.25489 0.0
C439 C 0.55757 0.67259 0.32221 0.0
Dy440 Dy 0.15286 0.80062 0.99956 0.0
C441 C 0.14317 0.69544 0.07913 0.0
C442 C 0.14824 0.85709 0.97078 0.0
Dy443 Dy 0.15918 0.747 0.04529 0.0
O444 O 0.14421 0.85144 1.00095 0.0
O445 O 0.15522 0.83186 0.95614 0.0
O446 O 0.12227 0.77251 0.96759 0.0
O447 O 0.11933 0.7655 0.01602 0.0
C448 C 0.1071 0.75779 0.99017 0.0
C449 C 0.18772 0.79668 0.06551 0.0
O450 O 0.20196 0.73543 0.01358 0.0
O451 O 0.20404 0.78395 0.98969 0.0
O452 O 0.16534 0.71396 0.08658 0.0
O453 O 0.13299 0.70308 0.05078 0.0
O454 O 0.17805 0.77467 0.08467 0.0
O455 O 0.18565 0.78837 0.03699 0.0
O456 O 0.12735 0.8203 0.04132 0.0
O457 O 0.12194 0.77461 0.07037 0.0
C458 C 0.21787 0.75662 0.9967 0.0
C459 C 0.11681 0.8046 0.06655 0.0
Dy460 Dy 0.73343 0.95737 0.65599 0.0
C461 C 0.66373 0.06924 0.6515 0.0
C462 C 0.76144 0.90079 0.65417 0.0
Dy463 Dy 0.69439 0.01396 0.64863 0.0
O464 O 0.77579 0.92664 0.65004 0.0
O465 O 0.7317 0.90579 0.66031 0.0
O466 O 0.76902 0.98187 0.68567 0.0
O467 O 0.72245 0.99468 0.68887 0.0
C468 C 0.74909 0.99952 0.70067 0.0
C469 C 0.66915 0.96573 0.62146 0.0
O470 O 0.72966 0.02476 0.60914 0.0
O471 O 0.74522 0.97425 0.60519 0.0
O472 O 0.66218 0.05036 0.62837 0.0
O473 O 0.68414 0.0587 0.67219 0.0
O474 O 0.65232 0.98822 0.63296 0.0
O475 O 0.6981 0.97201 0.62184 0.0
O476 O 0.69073 0.9425 0.68437 0.0
O477 O 0.66872 0.99148 0.68939 0.0
C478 C 0.74275 1.00254 0.59223 0.0
C479 C 0.66908 0.96159 0.69638 0.0
Dy480 Dy 0.74304 0.96236 0.39109 0.0
C481 C 0.8291 0.06189 0.3753 0.0
C482 C 0.71133 0.9095 0.40174 0.0
Dy483 Dy 0.79235 0.0134 0.39142 0.0
O484 O 0.70026 0.93697 0.40723 0.0
O485 O 0.73949 0.91108 0.38943 0.0
O486 O 0.71316 0.98984 0.35547 0.0
O487 O 0.76132 0.99473 0.35498 0.0
C488 C 0.73649 1.00301 0.34038 0.0
C489 C 0.80764 0.96436 0.42645 0.0
O490 O 0.76226 0.02875 0.43436 0.0
O491 O 0.73343 0.98426 0.43902 0.0
O492 O 0.8351 0.04149 0.39769 0.0
O493 O 0.80162 0.05691 0.36303 0.0
O494 O 0.82899 0.98284 0.41501 0.0
O495 O 0.78036 0.97534 0.42166 0.0
O496 O 0.78319 0.93753 0.36752 0.0
O497 O 0.81494 0.98007 0.35768 0.0
C498 C 0.74329 0.0102 0.45143 0.0
C499 C 0.80857 0.95048 0.35491 0.0
Dy500 Dy 0.78799 1.00279 0.13634 0.0
C501 C 0.68224 0.08597 0.13302 0.0
C502 C 0.84179 0.96848 0.14188 0.0
Dy503 Dy 0.73403 0.04982 0.14337 0.0
O504 O 0.83988 0.99535 0.1276 0.0
O505 O 0.81422 0.95993 0.15208 0.0
O506 O 0.75951 0.97594 0.10119 0.0
O507 O 0.75231 0.02232 0.10376 0.0
C508 C 0.7441 0.99944 0.08851 0.0
C509 C 0.78656 0.06532 0.17263 0.0
O510 O 0.71935 0.01747 0.18363 0.0
O511 O 0.76819 0.99323 0.18667 0.0
O512 O 0.70381 0.09083 0.1538 0.0
O513 O 0.68794 0.05989 0.11939 0.0
O514 O 0.76496 0.08535 0.16345 0.0
O515 O 0.77641 0.0385 0.16949 0.0
O516 O 0.81058 0.04346 0.11266 0.0
O517 O 0.76303 0.06993 0.10368 0.0
C518 C 0.74039 1.00069 0.20006 0.0
C519 C 0.79415 0.06713 0.10036 0.0
Dy520 Dy 0.69651 0.02411 0.89726 0.0
C521 C 0.8008 0.10348 0.90426 0.0
C522 C 0.63498 1.008 0.89744 0.0
Dy523 Dy 0.75257 0.06501 0.8922 0.0
O524 O 0.64502 0.03565 0.89889 0.0
O525 O 0.65869 0.98841 0.89584 0.0
O526 O 0.72065 0.99272 0.93326 0.0
O527 O 0.7298 0.03948 0.9335 0.0
C528 C 0.73554 0.01375 0.94792 0.0
C529 C 0.70663 0.08159 0.85196 0.0
O530 O 0.76841 0.02944 0.85535 0.0
O531 O 0.7197 1.00653 0.85197 0.0
O532 O 0.78653 0.10147 0.8773 0.0
O533 O 0.79165 0.08108 0.92324 0.0
O534 O 0.72633 0.10108 0.86266 0.0
O535 O 0.7147 0.05472 0.86084 0.0
O536 O 0.67455 0.06807 0.91278 0.0
O537 O 0.71972 0.09571 0.91911 0.0
C538 C 0.74867 0.01135 0.84012 0.0
C539 C 0.68875 0.09335 0.92036 0.0
Dy540 Dy 0.65909 0.71398 0.97577 0.0
C541 C 0.6235 0.80888 0.88798 0.0
C542 C 0.67539 0.66582 0.01376 0.0
Dy543 Dy 0.65108 0.76416 0.9247 0.0
O544 O 0.65525 0.66505 0.99092 0.0
O545 O 0.68712 0.69297 0.01609 0.0
O546 O 0.61481 0.72404 0.0031 0.0
O547 O 0.63365 0.75902 0.97424 0.0
C548 C 0.60848 0.7502 0.98897 0.0
C549 C 0.69098 0.71925 0.90788 0.0
O550 O 0.69871 0.77824 0.94434 0.0
O551 O 0.70835 0.73248 0.97276 0.0
O552 O 0.63524 0.78331 0.8775 0.0
O553 O 0.62842 0.81072 0.91837 0.0
O554 O 0.69287 0.74701 0.89558 0.0
O555 O 0.66661 0.71732 0.925 0.0
O556 O 0.62899 0.68922 0.94235 0.0
O557 O 0.61014 0.73313 0.91586 0.0
C558 C 0.71849 0.75861 0.95971 0.0
C559 C 0.60827 0.70339 0.92338 0.0
Dy560 Dy 0.0471 0.1388 0.76091 0.0
C561 C 0.94122 0.14944 0.84353 0.0
C562 C 0.09878 0.13307 0.7226 0.0
Dy563 Dy 0.99257 0.13597 0.80693 0.0
O564 O 0.09957 0.14047 0.75234 0.0
O565 O 0.06984 0.12942 0.7139 0.0
O566 O 0.01968 0.17395 0.73005 0.0
O567 O 0.01349 0.17452 0.77834 0.0
C568 C 0.00661 0.18936 0.75293 0.0
C569 C 0.04166 0.1033 0.82807 0.0
O570 O 0.97877 0.09566 0.77682 0.0
O571 O 0.02816 0.09025 0.7541 0.0
O572 O 0.96165 0.12746 0.84939 0.0
O573 O 0.94741 0.16239 0.81582 0.0
O574 O 0.01978 0.11402 0.84696 0.0
O575 O 0.03367 0.10722 0.79929 0.0
O576 O 0.0711 0.1596 0.80143 0.0
O577 O 0.02418 0.16935 0.82929 0.0
C578 C 1.00022 0.07828 0.76182 0.0
C579 C 0.05527 0.17115 0.8258 0.0
Dy580 Dy 0.90744 0.26173 0.43844 0.0
C581 C 0.90229 0.32634 0.55115 0.0
C582 C 0.90899 0.23088 0.3839 0.0
Dy583 Dy 0.91412 0.30047 0.49437 0.0
O584 O 0.89644 0.25823 0.38655 0.0
O585 O 0.92015 0.22049 0.41085 0.0
O586 O 0.8764 0.22866 0.46765 0.0
O587 O 0.87434 0.27436 0.47679 0.0
C588 C 0.86141 0.24929 0.48414 0.0
C589 C 0.9397 0.32687 0.44261 0.0
O590 O 0.95678 0.26921 0.50341 0.0
O591 O 0.95953 0.25372 0.45176 0.0
O592 O 0.92367 0.33505 0.5306 0.0
O593 O 0.88997 0.30106 0.5419 0.0
O594 O 0.93025 0.34223 0.46725 0.0
O595 O 0.93937 0.29822 0.44935 0.0
O596 O 0.88086 0.30266 0.41946 0.0
O597 O 0.87503 0.32564 0.46853 0.0
C598 C 0.97344 0.25734 0.47963 0.0
C599 C 0.86936 0.32473 0.43756 0.0
Dy600 Dy 0.49305 0.88207 0.75961 0.0
C601 C 0.51596 0.97322 0.85486 0.0
C602 C 0.49725 0.82052 0.73925 0.0
Dy603 Dy 0.49987 0.9297 0.81303 0.0
O604 O 0.4756 0.84118 0.73034 0.0
O605 O 0.51645 0.83441 0.75761 0.0
O606 O 0.48621 0.92406 0.72485 0.0
O607 O 0.47141 0.92745 0.77166 0.0
C608 C 0.47559 0.94322 0.74635 0.0
C609 C 0.52062 0.87274 0.82816 0.0
O610 O 0.44985 0.91753 0.8202 0.0
O611 O 0.45703 0.87017 0.79775 0.0
O612 O 0.50441 0.94666 0.86228 0.0
O613 O 0.51572 0.97712 0.82404 0.0
O614 O 0.50608 0.89089 0.84751 0.0
O615 O 0.52343 0.88637 0.80134 0.0
O616 O 0.54137 0.89731 0.7469 0.0
O617 O 0.5419 0.93882 0.78081 0.0
C618 C 0.44322 0.88803 0.81921 0.0
C619 C 0.55474 0.92205 0.75781 0.0
Dy620 Dy 0.95433 0.12454 0.22818 0.0
C621 C 0.0465 0.1429 0.32672 0.0
C622 C 0.91559 0.09938 0.18529 0.0
Dy623 Dy 1.00293 0.12753 0.28437 0.0
O624 O 0.92285 0.12829 0.18561 0.0
O625 O 0.93226 0.08408 0.20637 0.0
O626 O 0.91805 0.15937 0.24805 0.0
O627 O 0.96119 0.14954 0.26835 0.0
C628 C 0.9368 0.16592 0.27109 0.0
C629 C 1.00436 0.0727 0.25577 0.0
O630 O 0.95973 0.11415 0.31238 0.0
O631 O 0.93101 0.09855 0.26882 0.0
O632 O 0.05125 0.14255 0.29603 0.0
O633 O 0.01809 0.13439 0.33434 0.0
O634 O 0.01314 0.07733 0.28452 0.0
O635 O 0.99929 0.09885 0.241 0.0
O636 O 0.97983 0.1685 0.21154 0.0
O637 O 0.00925 0.17364 0.2577 0.0
C638 C 0.93471 0.10125 0.3 0.0
C639 C 0.99755 0.18546 0.23043 0.0
Dy640 Dy 0.48997 0.14323 0.69952 0.0
C641 C 0.59392 0.11743 0.78516 0.0
C642 C 0.44123 0.16216 0.66162 0.0
Dy643 Dy 0.54193 0.1345 0.75178 0.0
O644 O 0.45051 0.13384 0.66671 0.0
O645 O 0.45709 0.17987 0.67958 0.0
O646 O 0.52079 0.12313 0.66121 0.0
O647 O 0.52794 0.11144 0.70938 0.0
C648 C 0.53913 0.10859 0.68161 0.0
C649 C 0.50879 0.18893 0.76181 0.0
O650 O 0.56944 0.15696 0.71179 0.0
O651 O 0.52748 0.17468 0.68028 0.0
O652 O 0.59401 0.13474 0.75943 0.0
O653 O 0.56535 0.10948 0.79302 0.0
O654 O 0.52928 0.1763 0.78118 0.0
O655 O 0.50379 0.16852 0.74139 0.0
O656 O 0.47248 0.09891 0.72455 0.0
O657 O 0.51501 0.0891 0.75831 0.0
C658 C 0.55817 0.17257 0.68657 0.0
C659 C 0.48864 0.07989 0.74449 0.0
Dy660 Dy 0.10942 0.31684 0.02834 0.0
C661 C 0.10595 0.22321 0.93434 0.0
C662 C 0.11928 0.35709 0.07526 0.0
Dy663 Dy 0.11063 0.26049 0.98332 0.0
O664 O 0.09575 0.35863 0.0557 0.0
O665 O 0.1363 0.33241 0.07033 0.0
O666 O 0.10469 0.35035 0.98674 0.0
O667 O 0.08774 0.30557 0.98427 0.0
C668 C 0.09271 0.33013 0.96842 0.0
C669 C 0.15463 0.25106 0.03002 0.0
O670 O 0.1457 0.29076 0.95892 0.0
O671 O 0.15483 0.32243 1.0013 0.0
O672 O 0.11948 0.24967 0.93263 0.0
O673 O 0.09474 0.21717 0.96284 0.0
O674 O 0.14755 0.23101 0.00921 0.0
O675 O 0.13253 0.27143 0.02786 0.0
O676 O 0.0598 0.29809 0.0387 0.0
O677 O 0.05871 0.26226 0.99851 0.0
C678 C 0.16156 0.31271 0.97229 0.0
C679 C 0.0439 0.27891 0.02064 0.0
Dy680 Dy 0.35127 0.77318 0.45868 0.0
C681 C 0.35254 0.66273 0.53562 0.0
C682 C 0.36732 0.82401 0.42362 0.0
Dy683 Dy 0.35454 0.71894 0.50781 0.0
O684 O 0.34516 0.80534 0.41654 0.0
O685 O 0.37764 0.81679 0.45197 0.0
O686 O 0.33832 0.74216 0.41923 0.0
O687 O 0.32629 0.7309 0.46659 0.0
C688 C 0.32688 0.72113 0.43852 0.0
C689 C 0.4027 0.75727 0.52099 0.0
O690 O 0.38335 0.70018 0.46769 0.0
O691 O 0.39343 0.74652 0.44147 0.0
O692 O 0.36079 0.66812 0.5062 0.0
O693 O 0.34457 0.68803 0.54986 0.0
O694 O 0.39408 0.73422 0.539 0.0
O695 O 0.38176 0.76096 0.49949 0.0
O696 O 0.30515 0.78373 0.48566 0.0
O697 O 0.30392 0.73783 0.51588 0.0
C698 C 0.39736 0.71635 0.44465 0.0
C699 C 0.2897 0.76378 0.50471 0.0
Dy700 Dy 0.81916 0.50019 0.86488 0.0
C701 C 0.74349 0.60864 0.85731 0.0
C702 C 0.85784 0.45022 0.85968 0.0
Dy703 Dy 0.77622 0.55499 0.85226 0.0
O704 O 0.86197 0.47277 0.87834 0.0
O705 O 0.83192 0.45465 0.84383 0.0
O706 O 0.84125 0.52223 0.90773 0.0
O707 O 0.82241 0.54887 0.87129 0.0
C708 C 0.83398 0.55017 0.89829 0.0
C709 C 0.76256 0.50898 0.8114 0.0
O710 O 0.81659 0.56958 0.81978 0.0
O711 O 0.84578 0.52337 0.82467 0.0
O712 O 0.7693 0.60558 0.8405 0.0
O713 O 0.73523 0.58237 0.86964 0.0
O714 O 0.74192 0.5279 0.82363 0.0
O715 O 0.78846 0.51489 0.82431 0.0
O716 O 0.78234 0.48957 0.90225 0.0
O717 O 0.76955 0.54068 0.90491 0.0
C718 C 0.84105 0.55134 0.81161 0.0
C719 C 0.77152 0.51289 0.91895 0.0
Dy720 Dy 0.71967 0.50735 0.1197 0.0
C721 C 0.80056 0.61073 0.10781 0.0
C722 C 0.6818 0.45981 0.13591 0.0
Dy723 Dy 0.7685 0.55842 0.12023 0.0
O724 O 0.67704 0.47939 0.1125 0.0
O725 O 0.7089 0.46482 0.14898 0.0
O726 O 0.68319 0.53721 0.09549 0.0
O727 O 0.73189 0.54508 0.08886 0.0
C728 C 0.70446 0.55565 0.08384 0.0
C729 C 0.77366 0.51893 0.17241 0.0
O730 O 0.72802 0.58379 0.1426 0.0
O731 O 0.69628 0.54125 0.15241 0.0
O732 O 0.81185 0.58297 0.10437 0.0
O733 O 0.77214 0.60978 0.11963 0.0
O734 O 0.79736 0.53195 0.15774 0.0
O735 O 0.74943 0.52686 0.15667 0.0
O736 O 0.7503 0.49138 0.07731 0.0
O737 O 0.77929 0.5357 0.07281 0.0
C738 C 0.70251 0.57089 0.15498 0.0
C739 C 0.76968 0.50965 0.0604 0.0
Dy740 Dy 0.76652 0.47375 0.36752 0.0
C741 C 0.66556 0.56394 0.36667 0.0
C742 C 0.81085 0.43003 0.37891 0.0
Dy743 Dy 0.71703 0.52685 0.3758 0.0
O744 O 0.78504 0.42602 0.36352 0.0
O745 O 0.81285 0.45828 0.38792 0.0
O746 O 0.74424 0.45838 0.32191 0.0
O747 O 0.71902 0.48304 0.35453 0.0
C748 C 0.71704 0.47189 0.32765 0.0
C749 C 0.76302 0.5259 0.42172 0.0
O750 O 0.69057 0.48782 0.3998 0.0
O751 O 0.73293 0.45217 0.40287 0.0
O752 O 0.669 0.54455 0.39065 0.0
O753 O 0.69081 0.56409 0.34892 0.0
O754 O 0.74888 0.55082 0.4103 0.0
O755 O 0.75215 0.50423 0.40631 0.0
O756 O 0.78522 0.50705 0.33056 0.0
O757 O 0.73775 0.53341 0.32551 0.0
C758 C 0.70343 0.46105 0.40999 0.0
C759 C 0.76513 0.52374 0.31297 0.0
Dy760 Dy 0.75975 0.45282 0.61431 0.0
C761 C 0.87707 0.50736 0.61246 0.0
C762 C 0.70907 0.41819 0.60056 0.0
Dy763 Dy 0.81489 0.49479 0.6108 0.0
O764 O 0.72307 0.41848 0.62788 0.0
O765 O 0.72065 0.43969 0.58197 0.0
O766 O 0.78924 0.41509 0.63854 0.0
O767 O 0.79812 0.46155 0.6452 0.0
C768 C 0.80801 0.43455 0.65093 0.0
C769 C 0.7746 0.50755 0.56168 0.0
O770 O 0.83569 0.45384 0.58718 0.0
O771 O 0.79174 0.42354 0.58494 0.0
O772 O 0.86525 0.48041 0.61551 0.0
O773 O 0.85477 0.52838 0.60892 0.0
O774 O 0.78964 0.52801 0.5772 0.0
O775 O 0.78102 0.48129 0.57456 0.0
O776 O 0.74497 0.48522 0.65481 0.0
O777 O 0.79272 0.50991 0.65751 0.0
C778 C 0.82214 0.42803 0.58005 0.0
C779 C 0.76476 0.50287 0.67052 0.0
Dy780 Dy 0.49698 0.08821 0.19674 0.0
C781 C 0.51381 0.19589 0.27105 0.0
C782 C 0.48682 0.05065 0.14768 0.0
Dy783 Dy 0.51403 0.13642 0.24625 0.0
O784 O 0.491 0.08003 0.14526 0.0
O785 O 0.49024 0.04139 0.17728 0.0
O786 O 0.44886 0.10943 0.19483 0.0
O787 O 0.48711 0.13728 0.2016 0.0
C788 C 0.45748 0.13731 0.19862 0.0
C789 C 0.53628 0.0756 0.25565 0.0
O790 O 0.46768 0.11896 0.26448 0.0
O791 O 0.47111 0.07172 0.24019 0.0
O792 O 0.53859 0.17718 0.26906 0.0
O793 O 0.48955 0.18084 0.2617 0.0
O794 O 0.52931 0.09438 0.27871 0.0
O795 O 0.534 0.09163 0.23034 0.0
O796 O 0.53919 0.10847 0.17334 0.0
O797 O 0.54157 0.15249 0.20292 0.0
C798 C 0.45769 0.09063 0.26081 0.0
C799 C 0.54873 0.1368 0.17712 0.0
Dy800 Dy 0.99943 0.8932 0.72358 0.0
C801 C 0.09135 0.91165 0.81758 0.0
C802 C 0.96023 0.87702 0.67734 0.0
Dy803 Dy 0.04613 0.89159 0.77823 0.0
O804 O 0.95476 0.87301 0.70767 0.0
O805 O 0.98668 0.89088 0.6722 0.0
O806 O 0.98213 0.94099 0.72837 0.0
O807 O 1.00045 0.91766 0.76952 0.0
C808 C 0.9925 0.94427 0.75684 0.0
C809 C 0.05886 0.85105 0.73335 0.0
O810 O 0.01938 0.84879 0.79443 0.0
O811 O 0.99362 0.84506 0.74634 0.0
O812 O 0.09154 0.88542 0.80395 0.0
O813 O 0.06423 0.92551 0.81284 0.0
O814 O 0.06927 0.84662 0.76209 0.0
O815 O 0.04642 0.87717 0.7308 0.0
O816 O 0.04043 0.91568 0.69765 0.0
O817 O 0.0684 0.92504 0.74315 0.0
C818 C 1.00354 0.83222 0.77379 0.0
C819 C 0.06444 0.92857 0.71197 0.0
Dy820 Dy 0.47245 0.8832 0.25506 0.0
C821 C 0.57218 0.86091 0.34384 0.0
C822 C 0.41969 0.89451 0.2197 0.0
Dy823 Dy 0.52353 0.87879 0.3051 0.0
O824 O 0.42055 0.87843 0.24621 0.0
O825 O 0.44772 0.90397 0.21211 0.0
O826 O 0.49888 0.84719 0.22551 0.0
O827 O 0.50238 0.84463 0.27402 0.0
C828 C 0.51043 0.83057 0.24915 0.0
C829 C 0.47579 0.91538 0.32249 0.0
O830 O 0.54293 0.91927 0.27523 0.0
O831 O 0.49723 0.92975 0.24721 0.0
O832 O 0.55933 0.8882 0.34185 0.0
O833 O 0.55975 0.84376 0.32274 0.0
O834 O 0.49531 0.90226 0.34271 0.0
O835 O 0.4858 0.91112 0.29437 0.0
O836 O 0.44413 0.86357 0.29564 0.0
O837 O 0.48591 0.85044 0.32933 0.0
C838 C 0.52532 0.9387 0.25728 0.0
C839 C 0.45531 0.85091 0.32245 0.0
Dy840 Dy 0.89897 0.7607 0.02033 0.0
C841 C 0.89743 0.65976 0.93247 0.0
C842 C 0.90004 0.79472 0.07258 0.0
Dy843 Dy 0.90491 0.70545 0.97443 0.0
O844 O 0.88926 0.7671 0.07193 0.0
O845 O 0.91045 0.80383 0.04459 0.0
O846 O 0.86251 0.79003 0.99395 0.0
O847 O 0.87679 0.74856 0.97577 0.0
C848 C 0.85558 0.76983 0.97321 0.0
C849 C 0.91995 0.6921 0.03469 0.0
O850 O 0.95334 0.72702 0.96462 0.0
O851 O 0.95072 0.763 0.00475 0.0
O852 O 0.91751 0.65923 0.95552 0.0
O853 O 0.88365 0.68685 0.93027 0.0
O854 O 0.90942 0.67198 0.01557 0.0
O855 O 0.92472 0.71712 0.01952 0.0
O856 O 0.86456 0.7285 0.04275 0.0
O857 O 0.858 0.69886 0.99848 0.0
C858 C 0.96724 0.74748 0.98285 0.0
C859 C 0.85013 0.7066 0.02788 0.0
Dy860 Dy 0.65569 0.29618 0.49418 0.0
C861 C 0.64488 0.19587 0.58228 0.0
C862 C 0.65418 0.35169 0.4629 0.0
Dy863 Dy 0.66144 0.2441 0.54332 0.0
O864 O 0.64755 0.34723 0.49282 0.0
O865 O 0.66155 0.3257 0.44985 0.0
O866 O 0.62505 0.26726 0.46317 0.0
O867 O 0.62261 0.26118 0.51175 0.0
C868 C 0.61029 0.25273 0.4862 0.0
C869 C 0.68859 0.29542 0.56113 0.0
O870 O 0.70537 0.23144 0.51359 0.0
O871 O 0.70646 0.27818 0.4857 0.0
O872 O 0.66717 0.21492 0.58778 0.0
O873 O 0.63491 0.20084 0.5533 0.0
O874 O 0.67893 0.27425 0.58127 0.0
O875 O 0.68723 0.28561 0.53312 0.0
O876 O 0.6286 0.31749 0.53397 0.0
O877 O 0.62289 0.27278 0.56481 0.0
C878 C 0.72089 0.25179 0.49517 0.0
C879 C 0.61737 0.30251 0.55933 0.0
Dy880 Dy 0.23169 0.46293 0.14719 0.0
C881 C 0.16118 0.57487 0.14478 0.0
C882 C 0.26101 0.40698 0.14558 0.0
Dy883 Dy 0.19241 0.52009 0.14014 0.0
O884 O 0.27462 0.43314 0.14083 0.0
O885 O 0.23119 0.41128 0.15202 0.0
O886 O 0.26723 0.48761 0.17678 0.0
O887 O 0.22067 0.50025 0.17994 0.0
C888 C 0.24721 0.50501 0.19197 0.0
C889 C 0.16733 0.47193 0.11316 0.0
O890 O 0.22657 0.53011 0.09915 0.0
O891 O 0.24219 0.47947 0.09583 0.0
O892 O 0.16 0.55673 0.12095 0.0
O893 O 0.18222 0.56424 0.16479 0.0
O894 O 0.15026 0.49441 0.12437 0.0
O895 O 0.19617 0.47827 0.11378 0.0
O896 O 0.1891 0.44802 0.17592 0.0
O897 O 0.16636 0.49685 0.18037 0.0
C898 C 0.23925 0.50755 0.08229 0.0
C899 C 0.16712 0.46699 0.18767 0.0
Dy900 Dy 0.24007 0.46196 0.88182 0.0
C901 C 0.32425 0.56178 0.86513 0.0
C902 C 0.21027 0.40788 0.89214 0.0
Dy903 Dy 0.28702 0.51426 0.88248 0.0
O904 O 0.1979 0.43501 0.89692 0.0
O905 O 0.23867 0.41056 0.88074 0.0
O906 O 0.21099 0.48733 0.84382 0.0
O907 O 0.25892 0.49336 0.845 0.0
C908 C 0.23456 0.50049 0.82909 0.0
C909 C 0.30309 0.46732 0.92001 0.0
O910 O 0.25501 0.53034 0.92366 0.0
O911 O 0.22801 0.48488 0.92894 0.0
O912 O 0.32814 0.54392 0.89009 0.0
O913 O 0.29783 0.55551 0.8514 0.0
O914 O 0.32392 0.48633 0.90859 0.0
O915 O 0.2755 0.47676 0.91379 0.0
O916 O 0.28209 0.43715 0.86182 0.0
O917 O 0.31266 0.4803 0.85165 0.0
C918 C 0.23657 0.51151 0.94098 0.0
C919 C 0.30767 0.45035 0.85004 0.0
Dy920 Dy 0.29078 0.49066 0.62543 0.0
C921 C 0.20398 0.59272 0.62348 0.0
C922 C 0.34311 0.45421 0.63174 0.0
Dy923 Dy 0.24483 0.54578 0.63461 0.0
O924 O 0.34038 0.4775 0.6119 0.0
O925 O 0.31628 0.44938 0.64613 0.0
O926 O 0.25806 0.46862 0.59044 0.0
O927 O 0.25676 0.51529 0.59498 0.0
C928 C 0.24501 0.49421 0.57933 0.0
C929 C 0.29505 0.545 0.67402 0.0
O930 O 0.22427 0.51294 0.67093 0.0
O931 O 0.27078 0.4851 0.67614 0.0
O932 O 0.22973 0.59454 0.6395 0.0
O933 O 0.19997 0.56489 0.61399 0.0
O934 O 0.26841 0.55932 0.68025 0.0
O935 O 0.29229 0.53446 0.64692 0.0
O936 O 0.3187 0.52718 0.59984 0.0
O937 O 0.27867 0.56522 0.59833 0.0
C938 C 0.24369 0.49557 0.68862 0.0
C939 C 0.30715 0.55444 0.59001 0.0
Dy940 Dy 0.19464 0.52715 0.38885 0.0
C941 C 0.30459 0.59801 0.40011 0.0
C942 C 0.13236 0.51376 0.38775 0.0
Dy943 Dy 0.25283 0.56517 0.38528 0.0
O944 O 0.14363 0.54104 0.38712 0.0
O945 O 0.15518 0.49313 0.38874 0.0
O946 O 0.21708 0.49363 0.42403 0.0
O947 O 0.22867 0.53972 0.42569 0.0
C948 C 0.23312 0.51341 0.43933 0.0
C949 C 0.20778 0.58523 0.34534 0.0
O950 O 0.26692 0.52986 0.34761 0.0
O951 O 0.21712 0.50944 0.34333 0.0
O952 O 0.29187 0.59727 0.37219 0.0
O953 O 0.29126 0.57756 0.41873 0.0
O954 O 0.22842 0.60342 0.35678 0.0
O955 O 0.21461 0.5578 0.35341 0.0
O956 O 0.17521 0.57105 0.40722 0.0
O957 O 0.22152 0.5975 0.41182 0.0
C958 C 0.24637 0.5132 0.33178 0.0
C959 C 0.19053 0.59582 0.41442 0.0
C960 C 1.00188 0.49407 0.22589 0.0
C961 C 0.97779 0.47835 0.24269 0.0
H962 H 0.02442 0.53715 0.21488 0.0
C963 C 0.95675 0.49675 0.26105 0.0
H964 H 0.01899 0.4812 0.21192 0.0
C965 C 0.95938 0.52937 0.26215 0.0
C966 C 0.98392 0.54493 0.24583 0.0
H967 H 0.93805 0.48584 0.27473 0.0
H968 H 0.9426 0.5423 0.27644 0.0
C969 C 0.0051 0.52643 0.22781 0.0
C970 C 0.73851 0.7259 0.53978 0.0
C971 C 0.75275 0.75451 0.54239 0.0
H972 H 0.69541 0.70158 0.53458 0.0
C973 C 0.73255 0.78058 0.54628 0.0
H974 H 0.75302 0.70527 0.53725 0.0
C975 C 0.69932 0.77835 0.54606 0.0
C976 C 0.68506 0.75013 0.54088 0.0
H977 H 0.74249 0.80298 0.54937 0.0
H978 H 0.68505 0.79901 0.54868 0.0
C979 C 0.7053 0.72384 0.5386 0.0
C980 C 0.47585 0.49062 0.74801 0.0
C981 C 0.5035 0.47196 0.74461 0.0
H982 H 0.45499 0.53608 0.75114 0.0
C983 C 0.53184 0.48765 0.7383 0.0
H984 H 0.45327 0.48001 0.75233 0.0
C985 C 0.53266 0.52039 0.73737 0.0
C986 C 0.50505 0.53899 0.74133 0.0
H987 H 0.5537 0.47463 0.73516 0.0
H988 H 0.55536 0.53123 0.73506 0.0
C989 C 0.47663 0.52321 0.74643 0.0
C990 C 0.73939 0.29749 0.00599 0.0
C991 C 0.75768 0.27013 0.01102 0.0
H992 H 0.69278 0.31921 0.00475 0.0
C993 C 0.74075 0.24297 0.01741 0.0
H994 H 0.75109 0.31892 1.00067 0.0
C995 C 0.70738 0.24297 0.01867 0.0
C996 C 0.68897 0.27025 0.01431 0.0
H997 H 0.75333 0.22119 0.02093 0.0
H998 H 0.69598 0.22131 0.02363 0.0
C999 C 0.70572 0.29762 0.00811 0.0
C1000 C 0.26366 0.03418 0.47884 0.0
C1001 C 0.26588 1.00712 0.46131 0.0
H1002 H 0.26289 0.05519 0.52402 0.0
C1003 C 0.26804 0.97888 0.47903 0.0
H1004 H 0.2622 0.05651 0.46675 0.0
C1005 C 0.26791 0.97806 0.51302 0.0
C1006 C 0.26693 1.00551 0.53018 0.0
H1007 H 0.27007 0.95744 0.46665 0.0
H1008 H 0.26927 0.95607 0.52576 0.0
C1009 C 0.26453 0.03341 0.51221 0.0
C1010 C 0.29448 0.01186 0.73209 0.0
C1011 C 0.26767 0.01799 0.71303 0.0
H1012 H 0.31368 1.0081 0.77956 0.0
C1013 C 0.23938 0.02648 0.72889 0.0
H1014 H 0.31681 1.00557 0.72095 0.0
C1015 C 0.23792 0.02917 0.7622 0.0
C1016 C 0.26449 0.0228 0.78145 0.0
H1017 H 0.21816 0.03168 0.7155 0.0
H1018 H 0.21541 0.03555 0.77293 0.0
C1019 C 0.29279 0.01373 0.76579 0.0
C1020 C 0.26663 0.03895 0.01569 0.0
C1021 C 0.26607 1.00917 0.03019 0.0
H1022 H 0.26551 0.06689 0.97234 0.0
C1023 C 0.26464 0.98417 0.00967 0.0
H1024 H 0.26803 0.0589 0.03036 0.0
C1025 C 0.26376 0.98879 0.97614 0.0
C1026 C 0.26416 0.0186 0.96163 0.0
H1027 H 0.26456 0.96087 0.01951 0.0
H1028 H 0.26231 0.96882 0.96151 0.0
C1029 C 0.26559 0.04358 0.98216 0.0
C1030 C 0.29061 1.00659 0.22883 0.0
C1031 C 0.26236 1.00695 0.21126 0.0
H1032 H 0.31308 1.00633 0.2741 0.0
C1033 C 0.23376 1.00726 0.22899 0.0
H1034 H 0.31333 1.00551 0.21675 0.0
C1035 C 0.23368 1.0083 0.26288 0.0
C1036 C 0.26219 1.00791 0.28017 0.0
H1037 H 0.21146 1.00696 0.2167 0.0
H1038 H 0.21128 0.00949 0.27555 0.0
C1039 C 0.29052 1.00665 0.26228 0.0
C1040 C 0.45237 0.2575 0.04094 0.0
C1041 C 0.43658 0.26443 0.01222 0.0
H1042 H 0.49676 0.254 0.06543 0.0
C1043 C 0.45566 0.2709 0.98501 0.0
H1044 H 0.43909 0.25245 0.06248 0.0
C1045 C 0.48895 0.2714 0.9865 0.0
C1046 C 0.50459 0.26663 0.0156 0.0
H1047 H 0.44459 0.27704 0.96251 0.0
H1048 H 0.50239 0.27661 0.96498 0.0
C1049 C 0.48571 0.25898 0.04267 0.0
C1050 C 0.95638 0.28597 0.04857 0.0
C1051 C 0.93931 0.27867 0.02112 0.0
H1052 H 1.0017 0.29231 0.07026 0.0
C1053 C 0.95726 0.27257 0.99344 0.0
H1054 H 0.94374 0.28991 0.07071 0.0
C1055 C 0.99075 0.27253 0.99362 0.0
C1056 C 0.00785 0.27912 0.02131 0.0
H1057 H 0.94559 0.26602 0.97204 0.0
H1058 H 1.00335 0.26702 0.97185 0.0
C1059 C 0.98987 0.28681 0.04852 0.0
C1060 C 0.99851 0.74153 0.22754 0.0
C1061 C 0.99856 0.72346 0.25616 0.0
H1062 H 0.99854 0.78667 0.20476 0.0
C1063 C 0.99888 0.73985 0.28477 0.0
H1064 H 0.99856 0.73035 0.20485 0.0
C1065 C 0.99891 0.77264 0.28472 0.0
C1066 C 0.99899 0.79066 0.25604 0.0
H1067 H 0.99923 0.72728 0.30742 0.0
H1068 H 0.99874 0.78392 0.30734 0.0
C1069 C 0.99881 0.77421 0.22748 0.0
C1070 C 0.48626 0.77255 0.55133 0.0
C1071 C 0.50469 0.77346 0.52317 0.0
H1072 H 0.44008 0.76668 0.57263 0.0
C1073 C 0.48819 0.77291 0.49403 0.0
H1074 H 0.49767 0.773 0.57423 0.0
C1075 C 0.45487 0.77065 0.49302 0.0
C1076 C 0.4366 0.76802 0.52118 0.0
H1077 H 0.50121 0.77394 0.47166 0.0
H1078 H 0.4437 0.76923 0.47011 0.0
C1079 C 0.453 0.76924 0.55032 0.0
C1080 C 0.95324 0.76115 0.49004 0.0
C1081 C 0.93368 0.7552 0.51701 0.0
H1082 H 1.00036 0.76538 0.47054 0.0
C1083 C 0.94897 0.74727 0.54581 0.0
H1084 H 0.94261 0.76792 0.46749 0.0
C1085 C 0.98237 0.74757 0.54791 0.0
C1086 C 1.00175 0.75477 0.52108 0.0
H1087 H 0.93528 0.74242 0.56717 0.0
H1088 H 0.9931 0.74218 0.57074 0.0
C1089 C 0.98655 0.76031 0.49185 0.0
C1090 C 0.97529 0.23908 0.21213 0.0
C1091 C 0.99994 0.22042 0.22552 0.0
H1092 H 0.95491 0.28497 0.20468 0.0
C1093 C 0.02451 0.23615 0.24 0.0
H1094 H 0.9554 0.22829 0.20148 0.0
C1095 C 0.02425 0.26861 0.24175 0.0
C1096 C 0.99916 0.28729 0.22959 0.0
H1097 H 0.04376 0.22317 0.25112 0.0
H1098 H 0.0435 0.27907 0.25385 0.0
C1099 C 0.97483 0.27184 0.21425 0.0
C1100 C 0.47816 0.77003 0.71417 0.0
C1101 C 0.4994 0.78581 0.73328 0.0
H1102 H 0.46242 0.72627 0.69761 0.0
C1103 C 0.52296 0.76743 0.74869 0.0
H1104 H 0.45951 0.78285 0.70193 0.0
C1105 C 0.52464 0.735 0.74626 0.0
C1106 C 0.50315 0.71891 0.72785 0.0
H1107 H 0.53988 0.77809 0.76373 0.0
H1108 H 0.5425 0.72232 0.75982 0.0
C1109 C 0.48009 0.7373 0.71141 0.0
C1110 C 0.04203 0.48972 0.73017 0.0
C1111 C 0.03243 0.47211 0.75719 0.0
H1112 H 0.05201 0.53457 0.7096 0.0
C1113 C 0.02476 0.48872 0.78489 0.0
H1114 H 0.04782 0.4783 0.70823 0.0
C1115 C 0.02584 0.52144 0.78534 0.0
C1116 C 0.03527 0.53911 0.75824 0.0
H1117 H 0.01672 0.47637 0.80614 0.0
H1118 H 0.01876 0.53292 0.80689 0.0
C1119 C 0.04415 0.52231 0.73097 0.0
C1120 C 0.2779 0.23832 0.45963 0.0
C1121 C 0.25837 0.26508 0.46189 0.0
H1122 H 0.32487 0.21846 0.45969 0.0
C1123 C 0.27334 0.29341 0.46369 0.0
H1124 H 0.2674 0.21605 0.45729 0.0
C1125 C 0.30658 0.29461 0.46564 0.0
C1126 C 0.32604 0.26768 0.46487 0.0
H1127 H 0.25935 0.3145 0.46502 0.0
H1128 H 0.31707 0.31671 0.46906 0.0
C1129 C 0.31112 0.23964 0.46067 0.0
C1130 C 0.52967 0.49392 0.25965 0.0
C1131 C 0.50084 0.47843 0.25931 0.0
H1132 H 0.55344 0.53717 0.25751 0.0
C1133 C 0.47302 0.49716 0.25725 0.0
H1134 H 0.55171 0.48085 0.26056 0.0
C1135 C 0.47388 0.52981 0.25579 0.0
C1136 C 0.50273 0.54532 0.25503 0.0
H1137 H 0.45028 0.4864 0.25631 0.0
H1138 H 0.45184 0.54291 0.25464 0.0
C1139 C 0.53059 0.52656 0.25726 0.0
C1140 C 0.30164 0.72449 0.97629 0.0
C1141 C 0.32171 0.74865 0.98422 0.0
H1142 H 0.25421 0.70729 0.97442 0.0
C1143 C 0.30693 0.7747 0.99767 0.0
H1144 H 0.31163 0.70434 0.96502 0.0
C1145 C 0.27359 0.77708 1.00133 0.0
C1146 C 0.25358 0.75319 0.99263 0.0
H1147 H 0.32076 0.79412 0.0038 0.0
H1148 H 0.26336 0.79795 0.01093 0.0
C1149 C 0.26842 0.72635 0.98113 0.0
C1150 C 0.74553 0.98192 0.50443 0.0
C1151 C 0.74323 0.01045 0.48756 0.0
H1152 H 0.74848 0.95723 0.54904 0.0
C1153 C 0.74322 0.03724 0.50573 0.0
H1154 H 0.7465 0.96058 0.49179 0.0
C1155 C 0.74391 0.03521 0.53967 0.0
C1156 C 0.74595 1.00638 0.55629 0.0
H1157 H 0.742 0.05966 0.49384 0.0
H1158 H 0.74258 0.0562 0.55287 0.0
C1159 C 0.7472 0.97994 0.53776 0.0
C1160 C 0.76513 0.99826 0.28745 0.0
C1161 C 0.73678 1.00429 0.30434 0.0
H1162 H 0.78822 0.99106 0.24262 0.0
C1163 C 0.70887 1.00776 0.28641 0.0
H1164 H 0.78719 0.99515 0.29998 0.0
C1165 C 0.7095 1.00572 0.25276 0.0
C1166 C 0.73793 0.9992 0.23605 0.0
H1167 H 0.68648 0.01203 0.29841 0.0
H1168 H 0.68772 1.00935 0.23982 0.0
C1169 C 0.76563 0.99542 0.25419 0.0
C1170 C 0.74229 0.98095 0.999 0.0
C1171 C 0.73918 0.01034 0.98384 0.0
H1172 H 0.74598 0.95424 0.04302 0.0
C1173 C 0.73622 0.03579 0.00376 0.0
H1174 H 0.74424 0.96065 0.98474 0.0
C1175 C 0.73636 0.03199 0.03737 0.0
C1176 C 0.7399 1.00264 0.05259 0.0
H1177 H 0.73319 0.05875 0.99338 0.0
H1178 H 0.73403 0.05234 0.05147 0.0
C1179 C 0.74288 0.97719 0.03264 0.0
C1180 C 0.72979 0.98594 0.75632 0.0
C1181 C 0.75165 1.00151 0.73651 0.0
H1182 H 0.71271 0.97542 0.80341 0.0
C1183 C 0.77556 0.01756 0.75164 0.0
H1184 H 0.71148 0.97262 0.74602 0.0
C1185 C 0.77627 0.01936 0.78543 0.0
C1186 C 0.75348 1.00456 0.8051 0.0
H1187 H 0.79312 0.02953 0.73736 0.0
H1188 H 0.7939 0.03333 0.796 0.0
C1189 C 0.7308 0.98723 0.78968 0.0
C1190 C 0.52612 0.76891 0.95483 0.0
C1191 C 0.50625 0.76221 0.98144 0.0
H1192 H 0.5736 0.77338 0.93631 0.0
C1193 C 0.52096 0.75645 0.01088 0.0
H1194 H 0.5158 0.77444 0.93183 0.0
C1195 C 0.5542 0.75517 0.0132 0.0
C1196 C 0.57424 0.76077 0.98652 0.0
H1197 H 0.50678 0.75177 0.03203 0.0
H1198 H 0.56438 0.74861 0.03602 0.0
C1199 C 0.55951 0.7687 0.95742 0.0
C1200 C 0.01818 0.75807 0.01162 0.0
C1201 C 1.00322 0.74995 0.98326 0.0
H1202 H 0.06123 0.76575 0.03636 0.0
C1203 C 0.02331 0.74295 0.95715 0.0
H1204 H 1.00413 0.76316 0.03262 0.0
C1205 C 0.0568 0.74505 0.9592 0.0
C1206 C 0.07155 0.75312 0.98777 0.0
H1207 H 0.01315 0.73631 0.93494 0.0
H1208 H 0.07118 0.74032 0.93834 0.0
C1209 C 0.05139 0.75925 0.01394 0.0
C1210 C 0.01259 0.24241 0.77814 0.0
C1211 C 0.00607 0.22468 0.75126 0.0
H1212 H 0.01697 0.28749 0.7978 0.0
C1213 C 1.00107 0.2413 0.72232 0.0
H1214 H 0.01689 0.23095 0.80097 0.0
C1215 C 1.00129 0.27396 0.72057 0.0
C1216 C 0.00762 0.29175 0.74734 0.0
H1217 H 0.9962 0.22903 0.70094 0.0
H1218 H 0.99547 0.28549 0.69811 0.0
C1219 C 0.0134 0.27516 0.77621 0.0
C1220 C 0.52574 0.24066 0.45377 0.0
C1221 C 0.50625 0.24645 0.48064 0.0
H1222 H 0.57323 0.23842 0.43401 0.0
C1223 C 0.52187 0.25247 0.50929 0.0
H1224 H 0.51506 0.23561 0.4313 0.0
C1225 C 0.55512 0.25296 0.51114 0.0
C1226 C 0.57471 0.24817 0.48424 0.0
H1227 H 0.50831 0.25648 0.53087 0.0
H1228 H 0.56544 0.25791 0.53381 0.0
C1229 C 0.55931 0.24203 0.45543 0.0
C1230 C 0.02816 0.26041 0.45344 0.0
C1231 C 0.0092 0.25622 0.48122 0.0
H1232 H 0.07498 0.26434 0.43305 0.0
C1233 C 0.02487 0.25414 0.51056 0.0
H1234 H 0.01717 0.26302 0.43035 0.0
C1235 C 0.05813 0.25469 0.51199 0.0
C1236 C 0.07719 0.25826 0.48429 0.0
H1237 H 0.01143 0.25149 0.53254 0.0
H1238 H 0.06912 0.25152 0.53505 0.0
C1239 C 0.06154 0.26172 0.45496 0.0
C1240 C 0.98197 0.74851 0.7566 0.0
C1241 C 0.00627 0.73024 0.77091 0.0
H1242 H 0.96177 0.79357 0.74653 0.0
C1243 C 0.02824 0.74604 0.78915 0.0
H1244 H 0.96452 0.7378 0.74223 0.0
C1245 C 0.02624 0.7787 0.79218 0.0
C1246 C 1.00239 0.79698 0.77685 0.0
H1247 H 0.04747 0.73327 0.8005 0.0
H1248 H 0.04438 0.78978 0.80531 0.0
C1249 C 0.98024 0.7809 0.75924 0.0
C1250 C 0.53839 0.27877 0.29164 0.0
C1251 C 0.5117 0.29708 0.28245 0.0
H1252 H 0.56057 0.23338 0.29502 0.0
C1253 C 0.48551 0.28113 0.27149 0.0
H1254 H 0.5595 0.28981 0.29935 0.0
C1255 C 0.48602 0.24865 0.26938 0.0
C1256 C 0.51306 0.23042 0.27728 0.0
H1257 H 0.46469 0.29393 0.2635 0.0
H1258 H 0.46539 0.23788 0.26018 0.0
C1259 C 0.53917 0.24617 0.28884 0.0
C1260 C 0.48818 0.02811 0.71702 0.0
C1261 C 0.48224 0.04535 0.74466 0.0
H1262 H 0.49145 0.98347 0.69559 0.0
C1263 C 0.47306 0.0285 0.77234 0.0
H1264 H 0.49577 0.03988 0.69525 0.0
C1265 C 0.46963 0.99601 0.77222 0.0
C1266 C 0.47667 0.97856 0.74492 0.0
H1267 H 0.46847 0.04045 0.79423 0.0
H1268 H 0.46199 0.98436 0.79402 0.0
C1269 C 0.48577 0.99549 0.7172 0.0
C1270 C 0.20298 0.2828 0.04321 0.0
C1271 C 0.18909 0.25432 0.03837 0.0
H1272 H 0.24577 0.30808 0.04609 0.0
C1273 C 0.20978 0.22835 0.03595 0.0
H1274 H 0.1884 0.30324 0.046 0.0
C1275 C 0.24298 0.2309 0.03672 0.0
C1276 C 0.25685 0.2597 0.03917 0.0
H1277 H 0.20023 0.20588 0.03228 0.0
H1278 H 0.25776 0.21044 0.03415 0.0
C1279 C 0.2362 0.28549 0.04311 0.0
C1280 C 0.97461 0.02346 0.25557 0.0
C1281 C 1.00131 0.03996 0.24535 0.0
H1282 H 0.95368 0.97972 0.26573 0.0
C1283 C 0.02851 0.02227 0.23712 0.0
H1284 H 0.95371 0.03584 0.26378 0.0
C1285 C 0.02883 0.98954 0.23872 0.0
C1286 C 1.00224 0.9731 0.24974 0.0
H1287 H 0.05018 0.03382 0.23083 0.0
H1288 H 0.05022 0.97714 0.23196 0.0
C1289 C 0.975 0.99092 0.2576 0.0
C1290 C 0.23408 0.74307 0.50059 0.0
C1291 C 0.25401 0.76721 0.50869 0.0
H1292 H 0.18699 0.72576 0.49882 0.0
C1293 C 0.23916 0.79417 0.51987 0.0
H1294 H 0.24437 0.72207 0.49135 0.0
C1295 C 0.20598 0.79596 0.52496 0.0
C1296 C 0.18596 0.77156 0.51763 0.0
H1297 H 0.25335 0.81339 0.52617 0.0
H1298 H 0.19597 0.81626 0.53594 0.0
C1299 C 0.20076 0.74536 0.50449 0.0
C1300 C 0.76427 0.48287 0.97282 0.0
C1301 C 0.77017 0.51045 0.95517 0.0
H1302 H 0.75886 0.46055 0.01943 0.0
C1303 C 0.77744 0.53637 0.97273 0.0
H1304 H 0.75893 0.46223 0.96039 0.0
C1305 C 0.77878 0.53507 0.00618 0.0
C1306 C 0.77214 0.50795 0.02421 0.0
H1307 H 0.78276 0.55796 0.96053 0.0
H1308 H 0.78425 0.55607 0.01792 0.0
C1309 C 0.76459 0.4818 0.00682 0.0
C1310 C 0.74328 0.52475 0.22449 0.0
C1311 C 0.77212 0.51831 0.20858 0.0
H1312 H 0.71875 0.53267 0.26853 0.0
C1313 C 0.79933 0.51477 0.22759 0.0
H1314 H 0.72169 0.52789 0.21117 0.0
C1315 C 0.79756 0.51719 0.26123 0.0
C1316 C 0.76868 0.52422 0.27693 0.0
H1317 H 0.82207 0.51013 0.21644 0.0
H1318 H 0.81887 0.51357 0.27494 0.0
C1319 C 0.74166 0.52798 0.25775 0.0
C1320 C 0.7697 0.54203 0.51145 0.0
C1321 C 0.77034 0.51224 0.52593 0.0
H1322 H 0.76739 0.56986 0.46806 0.0
C1323 C 0.77003 0.48717 0.50542 0.0
H1324 H 0.77023 0.56204 0.52614 0.0
C1325 C 0.7691 0.49169 0.4719 0.0
C1326 C 0.76819 0.52149 0.45739 0.0
H1327 H 0.77092 0.46386 0.51524 0.0
H1328 H 0.76859 0.47163 0.4573 0.0
C1329 C 0.76848 0.54657 0.47791 0.0
C1330 C 0.78984 0.50902 0.75744 0.0
C1331 C 0.76196 0.50494 0.77555 0.0
H1332 H 0.81208 0.51371 0.71187 0.0
C1333 C 0.73382 0.50108 0.75838 0.0
H1334 H 0.81208 0.5122 0.76907 0.0
C1335 C 0.73394 0.5008 0.72442 0.0
C1336 C 0.76196 0.50579 0.70652 0.0
H1337 H 0.7117 0.49826 0.7712 0.0
H1338 H 0.7121 0.49687 0.71225 0.0
C1339 C 0.78972 0.51011 0.724 0.0
C1340 C 0.50981 0.27415 0.78537 0.0
C1341 C 0.5047 0.29118 0.7567 0.0
H1342 H 0.51456 0.22985 0.80929 0.0
C1343 C 0.49892 0.27374 0.72937 0.0
H1344 H 0.51399 0.28613 0.80709 0.0
C1345 C 0.49852 0.24088 0.73076 0.0
C1346 C 0.50401 0.224 0.75955 0.0
H1347 H 0.49442 0.28553 0.70675 0.0
H1348 H 0.49469 0.22874 0.70908 0.0
C1349 C 0.50973 0.24153 0.78667 0.0
C1350 C 0.53611 0.9908 0.22842 0.0
C1351 C 0.53184 0.97325 0.25688 0.0
H1352 H 0.54306 0.03551 0.20606 0.0
C1353 C 0.53043 0.98989 0.28542 0.0
H1354 H 0.53709 0.97937 0.20587 0.0
C1355 C 0.53233 0.02258 0.28543 0.0
C1356 C 0.5364 0.04018 0.25689 0.0
H1357 H 0.52661 0.9776 0.30791 0.0
H1358 H 0.53007 0.03412 0.30785 0.0
C1359 C 0.53912 0.02333 0.22856 0.0
C1360 C 0.80109 0.79363 0.96429 0.0
C1361 C 0.82159 0.76743 0.96281 0.0
H1362 H 0.75319 0.81196 0.96412 0.0
C1363 C 0.80764 0.73912 0.95722 0.0
H1364 H 0.8107 0.81595 0.96859 0.0
C1365 C 0.77444 0.73675 0.95584 0.0
C1366 C 0.75391 0.76272 0.95893 0.0
H1367 H 0.82213 0.71847 0.95525 0.0
H1368 H 0.76474 0.71426 0.95265 0.0
C1369 C 0.76791 0.79141 0.96197 0.0
C1370 C 0.0255 0.02431 0.7616 0.0
C1371 C 0.99788 0.04329 0.76307 0.0
H1372 H 0.04596 0.97855 0.76094 0.0
C1373 C 0.96913 0.02821 0.76864 0.0
H1374 H 0.04836 0.03457 0.75806 0.0
C1375 C 0.96794 0.99561 0.77058 0.0
C1376 C 0.99547 0.97663 0.76835 0.0
H1377 H 0.94732 0.04157 0.77044 0.0
H1378 H 0.94503 0.98511 0.77216 0.0
C1379 C 0.02431 0.99181 0.76424 0.0
C1380 C 0.7747 0.22163 0.49459 0.0
C1381 C 0.75683 0.24948 0.49145 0.0
H1382 H 0.82104 0.19926 0.49435 0.0
C1383 C 0.77415 0.27668 0.48725 0.0
H1384 H 0.76265 0.20013 0.49829 0.0
C1385 C 0.80746 0.27629 0.48629 0.0
C1386 C 0.82552 0.24861 0.48862 0.0
H1387 H 0.76193 0.2988 0.48537 0.0
H1388 H 0.81907 0.29808 0.48314 0.0
C1389 C 0.80839 0.22116 0.49264 0.0
C1390 C 0.23705 0.48356 0.02844 0.0
C1391 C 0.24047 0.51029 0.04607 0.0
H1392 H 0.23202 0.46319 0.98335 0.0
C1393 C 0.24149 0.5386 0.02851 0.0
H1394 H 0.23558 0.46126 0.04048 0.0
C1395 C 0.23991 0.53975 0.99455 0.0
C1396 C 0.23581 0.51278 0.97721 0.0
H1397 H 0.24369 0.55985 0.04097 0.0
H1398 H 0.24166 0.56174 0.98195 0.0
C1399 C 0.23441 0.4848 0.99513 0.0
C1400 C 0.20915 0.50484 0.77381 0.0
C1401 C 0.23623 0.50097 0.79295 0.0
H1402 H 0.18988 0.50637 0.72633 0.0
C1403 C 0.2651 0.49425 0.7772 0.0
H1404 H 0.18641 0.50972 0.78484 0.0
C1405 C 0.26685 0.4911 0.74394 0.0
C1406 C 0.23997 0.49519 0.72462 0.0
H1407 H 0.28657 0.49082 0.79067 0.0
H1408 H 0.28976 0.48618 0.73326 0.0
C1409 C 0.21108 0.5025 0.74017 0.0
C1410 C 0.24042 0.52896 0.5292 0.0
C1411 C 0.23979 0.49914 0.54368 0.0
H1412 H 0.23967 0.55694 0.48584 0.0
C1413 C 0.23782 0.47424 0.52311 0.0
H1414 H 0.24225 0.54889 0.54383 0.0
C1415 C 0.23648 0.47893 0.4896 0.0
C1416 C 0.23735 0.5087 0.47512 0.0
H1417 H 0.23768 0.45092 0.53289 0.0
H1418 H 0.23468 0.45903 0.47492 0.0
C1419 C 0.23933 0.53364 0.49566 0.0
C1420 C 0.22766 0.4914 0.28054 0.0
C1421 C 0.25107 0.50718 0.2966 0.0
H1422 H 0.20795 0.47887 0.23639 0.0
C1423 C 0.27468 0.52145 0.27752 0.0
H1424 H 0.20895 0.48005 0.29381 0.0
C1425 C 0.27409 0.52063 0.24366 0.0
C1426 C 0.2495 0.50615 0.2279 0.0
H1427 H 0.29292 0.53427 0.28864 0.0
H1428 H 0.29232 0.53211 0.22984 0.0
C1429 C 0.2268 0.49108 0.24714 0.0
C1430 C 0.51192 0.77888 0.21989 0.0
C1431 C 0.51155 0.79515 0.2486 0.0
H1432 H 0.51163 0.73495 0.19702 0.0
C1433 C 0.50973 0.77694 0.27708 0.0
H1434 H 0.51298 0.79152 0.19731 0.0
C1435 C 0.50833 0.74428 0.2769 0.0
C1436 C 0.50889 0.72794 0.24823 0.0
H1437 H 0.50905 0.78801 0.29984 0.0
H1438 H 0.50719 0.73174 0.29954 0.0
C1439 C 0.51082 0.74611 0.21971 0.0
C1440 C 0.04915 0.35105 0.37401 0.0
C1441 C 0.05084 0.35778 0.34111 0.0
H1442 H 0.07354 0.33512 0.41563 0.0
C1443 C 0.07908 0.35181 0.32435 0.0
H1444 H 0.02756 0.35532 0.38747 0.0
C1445 C 0.10551 0.34001 0.34063 0.0
C1446 C 0.10404 0.33477 0.37378 0.0
H1447 H 0.08102 0.3571 0.29904 0.0
H1448 H 0.12709 0.3351 0.32741 0.0
C1449 C 0.07562 0.34014 0.39027 0.0
C1450 C 0.9457 0.87026 0.6208 0.0
C1451 C 0.94357 0.86094 0.65301 0.0
H1452 H 0.93243 0.86074 0.57294 0.0
C1453 C 0.92784 0.83403 0.66191 0.0
H1454 H 0.95811 0.89086 0.6136 0.0
C1455 C 0.91466 0.81636 0.63889 0.0
C1456 C 0.91625 0.82577 0.60671 0.0
H1457 H 0.92636 0.82621 0.68662 0.0
H1458 H 0.90232 0.79579 0.64643 0.0
C1459 C 0.93147 0.85299 0.59769 0.0
C1460 C 0.43242 0.71725 0.79382 0.0
C1461 C 0.43314 0.68509 0.79601 0.0
H1462 H 0.42734 0.75885 0.81981 0.0
C1463 C 0.42716 0.66985 0.82526 0.0
H1464 H 0.4371 0.72926 0.77134 0.0
C1465 C 0.42222 0.68628 0.85246 0.0
C1466 C 0.42273 0.71831 0.85081 0.0
H1467 H 0.42675 0.64509 0.82739 0.0
H1468 H 0.41821 0.6738 0.87483 0.0
C1469 C 0.42715 0.73395 0.82136 0.0
C1470 C 0.57172 0.15059 0.09161 0.0
C1471 C 0.56504 0.18221 0.08729 0.0
H1472 H 0.57395 0.11182 0.12385 0.0
C1473 C 0.55713 0.19967 0.11389 0.0
H1474 H 0.57845 0.13656 0.07165 0.0
C1475 C 0.55468 0.18537 0.14416 0.0
C1476 C 0.5601 0.1534 0.14815 0.0
H1477 H 0.5521 0.22413 0.11118 0.0
H1478 H 0.54676 0.19903 0.16399 0.0
C1479 C 0.56963 0.13644 0.12167 0.0
C1480 C 0.06777 0.67832 0.12317 0.0
C1481 C 0.07811 0.67615 0.15485 0.0
H1482 H 0.08062 0.68416 0.07403 0.0
C1483 C 0.11071 0.67653 0.16075 0.0
H1484 H 0.04293 0.67726 0.11766 0.0
C1485 C 0.13237 0.68006 0.13563 0.0
C1486 C 0.12193 0.68299 0.10409 0.0
H1487 H 0.11956 0.67421 0.1848 0.0
H1488 H 0.15722 0.68168 0.14098 0.0
C1489 C 0.08947 0.68141 0.09806 0.0
C1490 C 0.60122 0.86289 0.42689 0.0
C1491 C 0.58885 0.83553 0.43983 0.0
H1492 H 0.60678 0.8919 0.38524 0.0
C1493 C 0.57678 0.81389 0.41941 0.0
H1494 H 0.61133 0.87967 0.44208 0.0
C1495 C 0.57515 0.82049 0.38667 0.0
C1496 C 0.58501 0.84907 0.37419 0.0
H1497 H 0.56723 0.79258 0.42888 0.0
H1498 H 0.56358 0.80444 0.3717 0.0
C1499 C 0.59924 0.86964 0.39433 0.0
C1500 C 0.42283 0.34694 0.6347 0.0
C1501 C 0.42616 0.32892 0.66275 0.0
H1502 H 0.4135 0.34741 0.58483 0.0
C1503 C 0.41781 0.29802 0.66349 0.0
H1504 H 0.42944 0.37088 0.63392 0.0
C1505 C 0.40847 0.28463 0.63542 0.0
C1506 C 0.40814 0.30208 0.60666 0.0
H1507 H 0.42085 0.28382 0.68493 0.0
H1508 H 0.40382 0.26025 0.63577 0.0
C1509 C 0.41401 0.33355 0.6067 0.0
C1510 C 0.92177 0.15093 0.89956 0.0
C1511 C 0.9262 0.16594 0.86979 0.0
H1512 H 0.911 0.15575 0.94919 0.0
C1513 C 0.92335 0.19803 0.86737 0.0
H1514 H 0.92451 0.12615 0.90204 0.0
C1515 C 0.91723 0.21496 0.89439 0.0
C1516 C 0.91293 0.20015 0.92438 0.0
H1517 H 0.92744 0.21025 0.84489 0.0
H1518 H 0.91544 0.23977 0.89147 0.0
C1519 C 0.91488 0.16789 0.92663 0.0
C1520 C 0.38826 0.04263 0.28544 0.0
C1521 C 0.3703 0.06301 0.30406 0.0
H1522 H 0.4301 0.03506 0.25792 0.0
C1523 C 0.38119 0.09275 0.30853 0.0
H1524 H 0.38046 0.01949 0.28167 0.0
C1525 C 0.41003 0.10169 0.29503 0.0
C1526 C 0.42824 0.08101 0.27685 0.0
H1527 H 0.36804 0.10868 0.3233 0.0
H1528 H 0.418 0.12474 0.29887 0.0
C1529 C 0.4169 0.05149 0.27204 0.0
C1530 C 0.16695 0.08886 0.55275 0.0
C1531 C 0.19692 0.08347 0.56573 0.0
H1532 H 0.13804 0.11861 0.52331 0.0
C1533 C 0.22124 0.10407 0.55912 0.0
H1534 H 0.14795 0.07306 0.55748 0.0
C1535 C 0.21529 0.13054 0.54055 0.0
C1536 C 0.18534 0.13578 0.52752 0.0
H1537 H 0.24465 0.09989 0.5685 0.0
H1538 H 0.2341 0.14661 0.53599 0.0
C1539 C 0.16133 0.1147 0.53325 0.0
C1540 C 0.17741 0.93026 0.81181 0.0
C1541 C 0.17749 0.96054 0.82223 0.0
H1542 H 0.15036 0.89058 0.80417 0.0
C1543 C 0.14881 0.97479 0.8316 0.0
H1544 H 0.19917 0.91844 0.80507 0.0
C1545 C 0.12063 0.95869 0.83125 0.0
C1546 C 0.12089 0.92795 0.82209 0.0
H1547 H 0.14843 0.998 0.8403 0.0
H1548 H 0.09876 0.97017 0.83824 0.0
C1549 C 0.1495 0.91404 0.81212 0.0
C1550 C 0.38724 0.86969 0.07757 0.0
C1551 C 0.37245 0.84215 0.07113 0.0
H1552 H 0.38127 0.91731 0.08699 0.0
C1553 C 0.33944 0.84057 0.07369 0.0
H1554 H 0.41268 0.87144 0.07574 0.0
C1555 C 0.32133 0.86702 0.07924 0.0
C1556 C 0.33603 0.89527 0.08272 0.0
H1557 H 0.32744 0.81955 0.06877 0.0
H1558 H 0.29584 0.86544 0.07989 0.0
C1559 C 0.36917 0.89611 0.08318 0.0
C1560 C 0.36545 0.88363 0.2015 0.0
C1561 C 0.39055 0.90392 0.20312 0.0
H1562 H 0.31843 0.87686 0.18514 0.0
C1563 C 0.38698 0.93398 0.19044 0.0
H1564 H 0.36772 0.8604 0.21138 0.0
C1565 C 0.35843 0.94379 0.17678 0.0
C1566 C 0.33353 0.9233 0.17439 0.0
H1567 H 0.40591 0.95016 0.19197 0.0
H1568 H 0.35591 0.96734 0.16798 0.0
C1569 C 0.33733 0.89307 0.18666 0.0
C1570 C 0.34849 0.13205 0.41043 0.0
C1571 C 0.38141 0.1356 0.4111 0.0
H1572 H 0.31035 0.10085 0.40614 0.0
C1573 C 0.40127 0.11008 0.40517 0.0
H1574 H 0.33256 0.15119 0.41547 0.0
C1575 C 0.38853 0.08137 0.39968 0.0
C1576 C 0.35568 0.07745 0.40059 0.0
H1577 H 0.42669 0.11207 0.40589 0.0
H1578 H 0.40448 0.06204 0.39552 0.0
C1579 C 0.33574 0.10316 0.40551 0.0
C1580 C 0.14611 0.09533 0.65829 0.0
C1581 C 0.17618 0.09371 0.67171 0.0
H1582 H 0.09806 0.1102 0.66363 0.0
C1583 C 0.18186 0.10862 0.7001 0.0
H1584 H 0.1415 0.08396 0.63627 0.0
C1585 C 0.15687 0.12334 0.71611 0.0
C1586 C 0.12629 0.12346 0.70349 0.0
H1587 H 0.20503 0.1073 0.71076 0.0
H1588 H 0.16111 0.13321 0.73899 0.0
C1589 C 0.12139 0.11038 0.67389 0.0
C1590 C 0.1573 0.91279 0.97587 0.0
C1591 C 0.15075 0.88797 0.95653 0.0
H1592 H 0.17634 0.95802 0.97721 0.0
C1593 C 0.15139 0.89196 0.92335 0.0
H1594 H 0.15693 0.91007 1.0016 0.0
C1595 C 0.1616 0.9195 0.90962 0.0
C1596 C 0.1715 0.94303 0.92896 0.0
H1597 H 0.14623 0.87313 0.90809 0.0
H1598 H 0.16471 0.92127 0.884 0.0
C1599 C 0.16808 0.94023 0.96206 0.0
C1600 C 0.30834 0.37706 0.1299 0.0
C1601 C 0.27616 0.37752 0.13786 0.0
H1602 H 0.34695 0.352 0.10976 0.0
C1603 C 0.25841 0.35099 0.13417 0.0
H1604 H 0.32256 0.39716 0.13267 0.0
C1605 C 0.27257 0.32477 0.12104 0.0
C1606 C 0.30433 0.32526 0.11126 0.0
H1607 H 0.23342 0.35101 0.13999 0.0
H1608 H 0.25848 0.3048 0.11718 0.0
C1609 C 0.32224 0.35126 0.11654 0.0
C1610 C 0.80591 0.16024 0.89625 0.0
C1611 C 0.81027 0.13371 0.91593 0.0
H1612 H 0.8044 0.20954 0.89284 0.0
C1613 C 0.81761 0.1373 0.94811 0.0
H1614 H 0.79985 0.15836 0.87142 0.0
C1615 C 0.82005 0.16676 0.96038 0.0
C1616 C 0.81464 0.19319 0.94089 0.0
H1617 H 0.82058 0.11739 0.964 0.0
H1618 H 0.8259 0.16892 0.98521 0.0
C1619 C 0.80781 0.18962 0.90865 0.0
C1620 C 0.09138 0.59168 0.19625 0.0
C1621 C 0.06852 0.59788 0.17294 0.0
H1622 H 0.14008 0.5817 0.20562 0.0
C1623 C 0.0778 0.60147 0.14089 0.0
H1624 H 0.08472 0.58914 0.22115 0.0
C1625 C 0.10938 0.5981 0.1321 0.0
C1626 C 0.1321 0.59043 0.15514 0.0
H1627 H 0.06064 0.60683 0.12252 0.0
H1628 H 0.11574 0.59942 0.10703 0.0
C1629 C 0.12309 0.5883 0.18744 0.0
C1630 C 0.67983 0.83163 0.42461 0.0
C1631 C 0.6779 0.83386 0.458 0.0
H1632 H 0.69197 0.85448 0.38011 0.0
C1633 C 0.69014 0.85972 0.47228 0.0
H1634 H 0.67056 0.81201 0.41287 0.0
C1635 C 0.70123 0.88407 0.45353 0.0
C1636 C 0.70107 0.88268 0.42029 0.0
H1637 H 0.68937 0.86212 0.49788 0.0
H1638 H 0.70934 0.90436 0.46503 0.0
C1639 C 0.69163 0.85595 0.40581 0.0
C1640 C 0.92671 0.94159 0.14226 0.0
C1641 C 0.92929 0.92917 0.1734 0.0
H1642 H 0.89655 0.96447 0.10789 0.0
C1643 C 0.90286 0.92931 0.19376 0.0
H1644 H 0.94691 0.94167 0.12617 0.0
C1645 C 0.87393 0.94098 0.18283 0.0
C1646 C 0.87146 0.95368 0.15184 0.0
H1647 H 0.90443 0.91998 0.21786 0.0
H1648 H 0.85371 0.94088 0.19891 0.0
C1649 C 0.89805 0.95437 0.13174 0.0
C1650 C 0.18704 0.64711 0.62689 0.0
C1651 C 0.18805 0.61981 0.61004 0.0
H1652 H 0.17407 0.69497 0.62582 0.0
C1653 C 0.17848 0.61977 0.57832 0.0
H1654 H 0.19501 0.64743 0.65129 0.0
C1655 C 0.1682 0.64697 0.56337 0.0
C1656 C 0.16642 0.67428 0.58034 0.0
H1657 H 0.17992 0.59896 0.56478 0.0
H1658 H 0.16049 0.64628 0.53891 0.0
C1659 C 0.17575 0.67421 0.61224 0.0
C1660 C 0.04996 0.52048 0.35611 0.0
C1661 C 0.03785 0.49213 0.36631 0.0
H1662 H 0.08966 0.54998 0.35614 0.0
C1663 C 0.05528 0.47317 0.38785 0.0
H1664 H 0.03711 0.53529 0.33932 0.0
C1665 C 0.08592 0.48061 0.39579 0.0
C1666 C 0.09888 0.50778 0.38357 0.0
H1667 H 0.04662 0.45103 0.39602 0.0
H1668 H 0.09989 0.46459 0.41037 0.0
C1669 C 0.08013 0.52857 0.36532 0.0
C1670 C 0.40862 0.57968 0.84551 0.0
C1671 C 0.40805 0.58079 0.81207 0.0
H1672 H 0.38186 0.57396 0.88882 0.0
C1673 C 0.37888 0.57878 0.79664 0.0
H1674 H 0.43058 0.58178 0.85811 0.0
C1675 C 0.351 0.57556 0.81419 0.0
C1676 C 0.35171 0.57363 0.84752 0.0
H1677 H 0.37735 0.58011 0.77091 0.0
H1678 H 0.32912 0.5731 0.80154 0.0
C1679 C 0.38068 0.57598 0.86308 0.0
C1680 C 0.91885 0.66231 0.61604 0.0
C1681 C 0.90131 0.68445 0.63247 0.0
H1682 H 0.95866 0.63184 0.61613 0.0
C1683 C 0.90946 0.69122 0.66384 0.0
H1684 H 0.91314 0.65679 0.59183 0.0
C1685 C 0.93578 0.67677 0.67808 0.0
C1686 C 0.95441 0.65599 0.66078 0.0
H1687 H 0.89625 0.70848 0.67687 0.0
H1688 H 0.942 0.68243 0.70209 0.0
C1689 C 0.9453 0.64844 0.6299 0.0
C1690 C 0.10634 0.19528 0.3586 0.0
C1691 C 0.10328 0.18936 0.39146 0.0
H1692 H 0.09127 0.18411 0.31212 0.0
C1693 C 0.08323 0.16632 0.40301 0.0
H1694 H 0.12211 0.21275 0.34934 0.0
C1695 C 0.06512 0.15036 0.38177 0.0
C1696 C 0.06785 0.15668 0.3489 0.0
H1697 H 0.08081 0.16146 0.42837 0.0
H1698 H 0.04873 0.13345 0.39099 0.0
C1699 C 0.08904 0.17873 0.3374 0.0
C1700 C 0.60878 0.34916 0.17886 0.0
C1701 C 0.58492 0.33977 0.20013 0.0
H1702 H 0.63283 0.34052 0.1347 0.0
C1703 C 0.5686 0.31276 0.19505 0.0
H1704 H 0.62169 0.36988 0.18267 0.0
C1705 C 0.57603 0.2953 0.16865 0.0
C1706 C 0.59888 0.30548 0.14664 0.0
H1707 H 0.55024 0.30517 0.21148 0.0
H1708 H 0.56305 0.27461 0.16472 0.0
C1709 C 0.61522 0.33244 0.15171 0.0
C1710 C 0.44238 0.82942 0.8869 0.0
C1711 C 0.42955 0.84642 0.91191 0.0
H1712 H 0.45458 0.82827 0.83771 0.0
C1713 C 0.41773 0.8764 0.90542 0.0
H1714 H 0.45203 0.80643 0.89129 0.0
C1715 C 0.41972 0.88946 0.87452 0.0
C1716 C 0.43309 0.87253 0.84949 0.0
H1717 H 0.40744 0.88994 0.9243 0.0
H1718 H 0.41188 0.91312 0.87048 0.0
C1719 C 0.44352 0.842 0.85601 0.0
C1720 C 0.8803 0.33207 0.85848 0.0
C1721 C 0.89185 0.32846 0.88954 0.0
H1722 H 0.89167 0.3398 0.80908 0.0
C1723 C 0.92452 0.32846 0.89452 0.0
H1724 H 0.85519 0.3313 0.85411 0.0
C1725 C 0.94539 0.3316 0.86879 0.0
C1726 C 0.93393 0.33574 0.83767 0.0
H1727 H 0.93403 0.32475 0.9182 0.0
H1728 H 0.97047 0.33181 0.87348 0.0
C1729 C 0.90116 0.3362 0.83277 0.0
C1730 C 0.44022 0.20005 0.61651 0.0
C1731 C 0.4294 0.17238 0.63033 0.0
H1732 H 0.4492 0.22581 0.57321 0.0
C1733 C 0.41503 0.15106 0.61111 0.0
H1734 H 0.4519 0.21666 0.63071 0.0
C1735 C 0.41357 0.15632 0.57826 0.0
C1736 C 0.42642 0.18297 0.56422 0.0
H1737 H 0.40683 0.12942 0.62121 0.0
H1738 H 0.40327 0.13908 0.56378 0.0
C1739 C 0.43912 0.20511 0.58359 0.0
C1740 C 0.60709 0.71968 0.37451 0.0
C1741 C 0.59678 0.70857 0.40457 0.0
H1742 H 0.6027 0.7163 0.3238 0.0
C1743 C 0.57689 0.68344 0.40698 0.0
H1744 H 0.62258 0.7391 0.37233 0.0
C1745 C 0.56526 0.67113 0.37967 0.0
C1746 C 0.5739 0.68336 0.34966 0.0
H1747 H 0.56881 0.67441 0.42992 0.0
H1748 H 0.54857 0.65271 0.38207 0.0
C1749 C 0.59584 0.70682 0.34694 0.0
C1750 C 0.0977 0.85337 0.09058 0.0
C1751 C 0.10379 0.82157 0.09359 0.0
H1752 H 0.08046 0.8938 0.11341 0.0
C1753 C 0.10038 0.80666 0.12357 0.0
H1754 H 0.10091 0.86564 0.06798 0.0
C1755 C 0.08964 0.82298 0.14972 0.0
C1756 C 0.08176 0.85434 0.14616 0.0
H1757 H 0.10576 0.78231 0.12687 0.0
H1758 H 0.08568 0.81065 0.17216 0.0
C1759 C 0.08664 0.86961 0.11667 0.0
C1760 C 0.62584 0.96928 0.73604 0.0
C1761 C 0.6427 0.94962 0.71569 0.0
H1762 H 0.58485 0.97598 0.76537 0.0
C1763 C 0.63157 0.92005 0.71083 0.0
H1764 H 0.63398 0.99222 0.74019 0.0
C1765 C 0.60314 0.91087 0.72492 0.0
C1766 C 0.58561 0.93101 0.74433 0.0
H1767 H 0.64396 0.90462 0.69493 0.0
H1768 H 0.59465 0.88821 0.72009 0.0
C1769 C 0.59765 0.96001 0.75038 0.0
C1770 C 0.85187 0.89906 0.46653 0.0
C1771 C 0.82736 0.8789 0.47372 0.0
H1772 H 0.86471 0.9421 0.44489 0.0
C1773 C 0.79639 0.88638 0.46478 0.0
H1774 H 0.8759 0.89343 0.47356 0.0
C1775 C 0.78982 0.91464 0.44963 0.0
C1776 C 0.81437 0.93485 0.44232 0.0
H1777 H 0.77724 0.87109 0.47076 0.0
H1778 H 0.76562 0.92086 0.44404 0.0
C1779 C 0.84548 0.92676 0.45038 0.0
C1780 C 0.84349 0.05063 0.18163 0.0
C1781 C 0.82016 0.07317 0.17462 0.0
H1782 H 0.89275 0.04115 0.18954 0.0
C1783 C 0.82924 0.10343 0.16728 0.0
H1784 H 0.8371 0.02707 0.18708 0.0
C1785 C 0.86095 0.11122 0.16744 0.0
C1786 C 0.88422 0.08912 0.17596 0.0
H1787 H 0.81179 0.12128 0.16157 0.0
H1788 H 0.86697 0.13501 0.16275 0.0
C1789 C 0.87531 0.05858 0.18246 0.0
C1790 C 0.61745 0.14638 0.92496 0.0
C1791 C 0.6314 0.17445 0.93099 0.0
H1792 H 0.62462 0.0984 0.91826 0.0
C1793 C 0.66442 0.17645 0.93021 0.0
H1794 H 0.592 0.14433 0.92552 0.0
C1795 C 0.6832 0.14998 0.92702 0.0
C1796 C 0.66916 0.12131 0.92414 0.0
H1797 H 0.67578 0.19785 0.93496 0.0
H1798 H 0.70863 0.15193 0.92777 0.0
C1799 C 0.63617 0.11997 0.92169 0.0
C1800 C 0.62644 0.07778 0.81437 0.0
C1801 C 0.62244 0.10803 0.80243 0.0
H1802 H 0.65746 0.0451 0.83802 0.0
C1803 C 0.64646 0.12918 0.80596 0.0
H1804 H 0.60828 0.06105 0.81126 0.0
C1805 C 0.67388 0.12046 0.82219 0.0
C1806 C 0.67808 0.09018 0.83408 0.0
H1807 H 0.64376 0.15259 0.79667 0.0
H1808 H 0.69185 0.13738 0.8253 0.0
C1809 C 0.65444 0.06873 0.82958 0.0
C1810 C 0.67603 0.91075 0.60587 0.0
C1811 C 0.65609 0.93581 0.61334 0.0
H1812 H 0.67922 0.86396 0.59137 0.0
C1813 C 0.62323 0.93198 0.61359 0.0
H1814 H 0.70141 0.91309 0.60538 0.0
C1815 C 0.61049 0.90407 0.60509 0.0
C1816 C 0.63038 0.87923 0.59694 0.0
H1817 H 0.60729 0.95085 0.61954 0.0
H1818 H 0.58507 0.90221 0.60397 0.0
C1819 C 0.66329 0.88257 0.59815 0.0
C1820 C 0.8245 0.91077 0.31586 0.0
C1821 C 0.83241 0.93083 0.33986 0.0
H1822 H 0.84215 0.87958 0.28079 0.0
C1823 C 0.8637 0.93226 0.34983 0.0
H1824 H 0.80028 0.90932 0.30816 0.0
C1825 C 0.88717 0.91464 0.33523 0.0
C1826 C 0.87982 0.89598 0.3098 0.0
H1827 H 0.87004 0.94724 0.36877 0.0
H1828 H 0.91133 0.91691 0.34281 0.0
C1829 C 0.84826 0.89371 0.30049 0.0
C1830 C 0.81114 0.14978 0.08532 0.0
C1831 C 0.8404 0.14827 0.06967 0.0
H1832 H 0.7732 0.12512 0.10593 0.0
C1833 C 0.85539 0.11966 0.06461 0.0
H1834 H 0.79909 0.17158 0.08944 0.0
C1835 C 0.84061 0.09262 0.07465 0.0
C1836 C 0.81044 0.09434 0.08866 0.0
H1837 H 0.878 0.11822 0.05234 0.0
H1838 H 0.85224 0.07058 0.07081 0.0
C1839 C 0.79606 0.12309 0.0942 0.0
C1840 C 0.69757 0.66313 0.90764 0.0
C1841 C 0.70651 0.69184 0.89508 0.0
H1842 H 0.70113 0.61465 0.90447 0.0
C1843 C 0.72788 0.69344 0.86927 0.0
H1844 H 0.68155 0.66113 0.92782 0.0
C1845 C 0.73982 0.66629 0.85603 0.0
C1846 C 0.72991 0.63767 0.86827 0.0
H1847 H 0.73505 0.71546 0.85926 0.0
H1848 H 0.75664 0.66764 0.83643 0.0
C1849 C 0.7087 0.6364 0.89409 0.0
C1850 C 0.18493 0.86603 0.11778 0.0
C1851 C 0.19318 0.88991 0.09629 0.0
H1852 H 0.17738 0.8179 0.12493 0.0
C1853 C 0.19812 0.8832 0.06398 0.0
H1854 H 0.18136 0.87042 0.14284 0.0
C1855 C 0.19669 0.85287 0.05382 0.0
C1856 C 0.18985 0.82884 0.07568 0.0
H1857 H 0.2051 0.90101 0.04692 0.0
H1858 H 0.20167 0.84813 0.02907 0.0
C1859 C 0.1833 0.83585 0.10759 0.0
C1860 C 0.89589 0.43957 0.81715 0.0
C1861 C 0.88502 0.43294 0.8482 0.0
H1862 H 0.93557 0.43907 0.78518 0.0
C1863 C 0.90497 0.41809 0.87034 0.0
H1864 H 0.88121 0.45254 0.8003 0.0
C1865 C 0.93574 0.41002 0.86155 0.0
C1866 C 0.94689 0.41719 0.83067 0.0
H1867 H 0.8972 0.41399 0.89475 0.0
H1868 H 0.95088 0.39855 0.87901 0.0
C1869 C 0.92694 0.43229 0.80865 0.0
C1870 C 0.33652 0.14809 0.53842 0.0
C1871 C 0.3376 0.17868 0.54805 0.0
H1872 H 0.32566 0.10172 0.55126 0.0
C1873 C 0.32608 0.18607 0.57853 0.0
H1874 H 0.34549 0.14142 0.5153 0.0
C1875 C 0.31417 0.16305 0.59911 0.0
C1876 C 0.31489 0.13237 0.58982 0.0
H1877 H 0.32688 0.20942 0.58666 0.0
H1878 H 0.30518 0.16904 0.62243 0.0
C1879 C 0.32577 0.12516 0.55926 0.0
C1880 C 0.079 0.09182 0.87198 0.0
C1881 C 0.07332 0.09464 0.83913 0.0
H1882 H 0.11306 0.0819 0.90835 0.0
C1883 C 0.09836 0.09112 0.81741 0.0
H1884 H 0.05995 0.09457 0.8892 0.0
C1885 C 0.12881 0.08508 0.82841 0.0
C1886 C 0.13435 0.08155 0.86125 0.0
H1887 H 0.09441 0.09297 0.79201 0.0
H1888 H 0.14772 0.08174 0.81114 0.0
C1889 C 0.10931 0.08504 0.88298 0.0
C1890 C 0.84376 0.40654 0.42124 0.0
C1891 C 0.8297 0.40434 0.3915 0.0
H1892 H 0.86632 0.38239 0.45985 0.0
C1893 C 0.82897 0.37599 0.3766 0.0
H1894 H 0.8441 0.42824 0.43322 0.0
C1895 C 0.84162 0.34975 0.39174 0.0
C1896 C 0.8544 0.35164 0.42219 0.0
H1897 H 0.81789 0.374 0.35367 0.0
H1898 H 0.84091 0.32799 0.37993 0.0
C1899 C 0.85573 0.38023 0.4367 0.0
C1900 C 0.95959 0.49828 0.64271 0.0
C1901 C 0.97234 0.52634 0.63254 0.0
H1902 H 0.91891 0.47019 0.64368 0.0
C1903 C 0.95536 0.54578 0.61108 0.0
H1904 H 0.97213 0.48316 0.65947 0.0
C1905 C 0.92437 0.53926 0.60349 0.0
C1906 C 0.9107 0.5126 0.61612 0.0
H1907 H 0.9646 0.5677 0.60296 0.0
H1908 H 0.91072 0.55565 0.58905 0.0
C1909 C 0.92903 0.49122 0.63411 0.0
C1910 C 0.65686 0.44144 0.1862 0.0
C1911 C 0.65523 0.44561 0.15309 0.0
H1912 H 0.63182 0.43324 0.22969 0.0
C1913 C 0.62608 0.44266 0.13795 0.0
H1914 H 0.67889 0.44404 0.19855 0.0
C1915 C 0.59877 0.43641 0.15587 0.0
C1916 C 0.60016 0.43383 0.18921 0.0
H1917 H 0.62423 0.44622 0.11239 0.0
H1918 H 0.57657 0.43415 0.14374 0.0
C1919 C 0.6296 0.436 0.20409 0.0
C1920 C 0.59768 0.82908 0.83843 0.0
C1921 C 0.59787 0.82547 0.87175 0.0
H1922 H 0.57231 0.84721 0.79781 0.0
C1923 C 0.57111 0.83377 0.88963 0.0
H1924 H 0.61792 0.82182 0.82427 0.0
C1925 C 0.54469 0.84628 0.8746 0.0
C1926 C 0.54507 0.85206 0.84152 0.0
H1927 H 0.57031 0.83006 0.91526 0.0
H1928 H 0.52448 0.85283 0.88918 0.0
C1929 C 0.57149 0.84285 0.82333 0.0
C1930 C 0.41284 0.32682 0.1366 0.0
C1931 C 0.42091 0.33088 0.10437 0.0
H1932 H 0.42256 0.33817 0.18432 0.0
C1933 C 0.44509 0.3507 0.09497 0.0
H1934 H 0.39375 0.31197 0.14409 0.0
C1935 C 0.46205 0.36543 0.11817 0.0
C1936 C 0.45407 0.36098 0.15053 0.0
H1937 H 0.45124 0.35412 0.07002 0.0
H1938 H 0.48138 0.38003 0.11093 0.0
C1939 C 0.42906 0.34201 0.1595 0.0
C1940 C 0.89373 0.21686 0.32917 0.0
C1941 C 0.91557 0.21603 0.354 0.0
H1942 H 0.88317 0.20053 0.28277 0.0
C1943 C 0.94468 0.20067 0.35046 0.0
H1944 H 0.87125 0.22901 0.33162 0.0
C1945 C 0.95181 0.18569 0.32265 0.0
C1946 C 0.92949 0.18474 0.29845 0.0
H1947 H 0.9621 0.20043 0.36917 0.0
H1948 H 0.97465 0.17431 0.32039 0.0
C1949 C 0.90052 0.20077 0.30147 0.0
C1950 C 0.08954 0.64281 0.59747 0.0
C1951 C 0.07852 0.67304 0.59087 0.0
H1952 H 0.09391 0.6059 0.63234 0.0
C1953 C 0.0657 0.69027 0.61573 0.0
H1954 H 0.09987 0.62911 0.57874 0.0
C1955 C 0.0635 0.67756 0.64652 0.0
C1956 C 0.073 0.64679 0.65306 0.0
H1957 H 0.05683 0.71354 0.6113 0.0
H1958 H 0.05246 0.69146 0.66471 0.0
C1959 C 0.08664 0.62972 0.62827 0.0
C1960 C 0.56974 0.18327 0.62886 0.0
C1961 C 0.58067 0.18015 0.66031 0.0
H1962 H 0.58158 0.18865 0.57944 0.0
C1963 C 0.61345 0.17932 0.66542 0.0
H1964 H 0.54473 0.18322 0.62382 0.0
C1965 C 0.6347 0.18235 0.63973 0.0
C1966 C 0.62363 0.18552 0.60839 0.0
H1967 H 0.6227 0.17629 0.68926 0.0
H1968 H 0.65976 0.1829 0.64442 0.0
C1969 C 0.59095 0.18553 0.60323 0.0
C1970 C 0.07643 0.31456 0.88222 0.0
C1971 C 0.08618 0.34205 0.86706 0.0
H1972 H 0.06965 0.28981 0.92661 0.0
C1973 C 0.10102 0.36409 0.88504 0.0
H1974 H 0.06466 0.29725 0.86902 0.0
C1975 C 0.10378 0.35981 0.91798 0.0
C1976 C 0.09173 0.33345 0.93344 0.0
H1977 H 0.10866 0.38551 0.87397 0.0
H1978 H 0.11441 0.37762 0.93145 0.0
C1979 C 0.07893 0.31043 0.91523 0.0
C1980 C 0.93123 0.85173 0.12761 0.0
C1981 C 0.92734 0.83619 0.15705 0.0
H1982 H 0.9247 0.85085 0.07741 0.0
C1983 C 0.91004 0.80926 0.15935 0.0
H1984 H 0.94438 0.87274 0.12562 0.0
C1985 C 0.89896 0.79653 0.13163 0.0
C1986 C 0.90507 0.81095 0.10183 0.0
H1987 H 0.90703 0.7971 0.18204 0.0
H1988 H 0.8874 0.77459 0.13334 0.0
C1989 C 0.91998 0.83927 0.10012 0.0
C1990 C 0.42154 0.65145 0.39122 0.0
C1991 C 0.42647 0.66729 0.36204 0.0
H1992 H 0.40943 0.65461 0.44061 0.0
C1993 C 0.42243 0.69937 0.36036 0.0
H1994 H 0.425 0.62671 0.39318 0.0
C1995 C 0.41462 0.71546 0.38767 0.0
C1996 C 0.41023 0.69973 0.41711 0.0
H1997 H 0.42673 0.71221 0.33828 0.0
H1998 H 0.41163 0.74023 0.38551 0.0
C1999 C 0.41337 0.66749 0.4185 0.0
C2000 C 0.88534 0.54221 0.77336 0.0
C2001 C 0.86642 0.56304 0.79061 0.0
H2002 H 0.92762 0.53502 0.74588 0.0
C2003 C 0.87501 0.59391 0.79137 0.0
H2004 H 0.87919 0.51822 0.77243 0.0
C2005 C 0.90308 0.6034 0.77667 0.0
C2006 C 0.92276 0.58226 0.76059 0.0
H2007 H 0.86102 0.6103 0.80481 0.0
H2008 H 0.90966 0.62718 0.77847 0.0
C2009 C 0.91312 0.55178 0.75827 0.0
C2010 C 0.66598 0.59194 0.05924 0.0
C2011 C 0.6973 0.58458 0.06709 0.0
H2012 H 0.63468 0.62403 0.03558 0.0
C2013 C 0.72146 0.60494 0.05878 0.0
H2014 H 0.64704 0.57651 0.06554 0.0
C2015 C 0.71422 0.63261 0.0427 0.0
C2016 C 0.68299 0.63928 0.03397 0.0
H2017 H 0.74583 0.59932 0.06432 0.0
H2018 H 0.73303 0.64802 0.0359 0.0
C2019 C 0.65892 0.619 0.04232 0.0
C2020 C 0.65868 0.47222 0.32945 0.0
C2021 C 0.68716 0.45774 0.31995 0.0
H2022 H 0.60903 0.46757 0.33822 0.0
C2023 C 0.68713 0.42687 0.31143 0.0
H2024 H 0.65831 0.49592 0.3367 0.0
C2025 C 0.65938 0.41037 0.31374 0.0
C2026 C 0.63097 0.42461 0.32387 0.0
H2027 H 0.70883 0.41491 0.30477 0.0
H2028 H 0.66018 0.3865 0.3071 0.0
C2029 C 0.63076 0.45582 0.33125 0.0
C2030 C 0.8504 0.34617 0.56967 0.0
C2031 C 0.88319 0.34978 0.56713 0.0
H2032 H 0.80514 0.36839 0.57394 0.0
C2033 C 0.89578 0.379 0.57028 0.0
H2034 H 0.84003 0.32389 0.56695 0.0
C2035 C 0.87582 0.40459 0.57334 0.0
C2036 C 0.84288 0.40135 0.57366 0.0
H2037 H 0.921 0.38236 0.56813 0.0
H2038 H 0.88631 0.42692 0.57511 0.0
C2039 C 0.83038 0.37179 0.57267 0.0
C2040 C 0.88107 0.4404 0.7002 0.0
C2041 C 0.89752 0.4131 0.69307 0.0
H2042 H 0.84 0.46884 0.69162 0.0
C2043 C 0.88481 0.39292 0.6715 0.0
H2044 H 0.8904 0.45602 0.71717 0.0
C2045 C 0.85523 0.39952 0.65812 0.0
C2046 C 0.83874 0.42687 0.66533 0.0
H2047 H 0.89695 0.37143 0.66627 0.0
H2048 H 0.84529 0.38329 0.64223 0.0
C2049 C 0.8522 0.44754 0.68591 0.0
C2050 C 0.87649 0.57611 0.92774 0.0
C2051 C 0.85007 0.57801 0.90798 0.0
H2052 H 0.91312 0.60058 0.94989 0.0
C2053 C 0.84079 0.60675 0.89445 0.0
H2054 H 0.88444 0.55419 0.93804 0.0
C2055 C 0.85727 0.63323 0.90092 0.0
C2056 C 0.88356 0.63145 0.92087 0.0
H2057 H 0.82065 0.60879 0.87886 0.0
H2058 H 0.84897 0.65517 0.89094 0.0
C2059 C 0.8932 0.60259 0.93399 0.0
C2060 C 0.62424 0.6089 0.17115 0.0
C2061 C 0.6297 0.62332 0.19994 0.0
H2062 H 0.64343 0.58035 0.13475 0.0
C2063 C 0.66024 0.62259 0.21264 0.0
H2064 H 0.60092 0.6091 0.16087 0.0
C2065 C 0.68471 0.60643 0.19731 0.0
C2066 C 0.67847 0.59049 0.16968 0.0
H2067 H 0.66489 0.63339 0.23495 0.0
H2068 H 0.70797 0.60518 0.20776 0.0
C2069 C 0.64839 0.5923 0.15634 0.0
C2070 C 0.67235 0.43564 0.45358 0.0
C2071 C 0.6831 0.4367 0.42196 0.0
H2072 H 0.65404 0.40707 0.49163 0.0
C2073 C 0.67956 0.41126 0.40276 0.0
H2074 H 0.67539 0.45504 0.46874 0.0
C2075 C 0.66755 0.38409 0.41556 0.0
C2076 C 0.65922 0.382 0.44787 0.0
H2077 H 0.68819 0.41171 0.37839 0.0
H2078 H 0.66681 0.36419 0.40071 0.0
C2079 C 0.66031 0.40828 0.46654 0.0
C2080 C 0.82006 0.84462 0.62127 0.0
C2081 C 0.80099 0.8197 0.61482 0.0
H2082 H 0.82252 0.88942 0.63999 0.0
C2083 C 0.76942 0.81983 0.62526 0.0
H2084 H 0.84469 0.84479 0.61415 0.0
C2085 C 0.75658 0.84571 0.64017 0.0
C2086 C 0.77545 0.87126 0.64501 0.0
H2087 H 0.75448 0.80065 0.62063 0.0
H2088 H 0.7317 0.84632 0.64647 0.0
C2089 C 0.80746 0.87007 0.6364 0.0
C2090 C 0.30961 0.63586 0.44317 0.0
C2091 C 0.31688 0.62702 0.4119 0.0
H2092 H 0.30563 0.67293 0.47571 0.0
C2093 C 0.32895 0.64901 0.39014 0.0
H2094 H 0.29956 0.61963 0.46031 0.0
C2095 C 0.33237 0.67947 0.39899 0.0
C2096 C 0.32363 0.68865 0.42975 0.0
H2097 H 0.33433 0.64299 0.36579 0.0
H2098 H 0.34128 0.69598 0.38148 0.0
C2099 C 0.31267 0.66647 0.45191 0.0
C2100 C 0.59255 0.09056 0.69869 0.0
C2101 C 0.57209 0.10042 0.67431 0.0
H2102 H 0.6392 0.07512 0.71079 0.0
C2103 C 0.58384 0.10472 0.64315 0.0
H2104 H 0.58386 0.08698 0.72284 0.0
C2105 C 0.61543 0.0981 0.63624 0.0
C2106 C 0.63561 0.08707 0.66039 0.0
H2107 H 0.56852 0.11269 0.62401 0.0
H2108 H 0.62361 0.09972 0.6117 0.0
C2109 C 0.62429 0.08443 0.69189 0.0
C2110 C 0.19411 0.35893 0.9646 0.0
C2111 C 0.18106 0.33279 0.95164 0.0
H2112 H 0.21221 0.40371 0.95536 0.0
C2113 C 0.18095 0.33001 0.91828 0.0
H2114 H 0.19492 0.36175 0.99012 0.0
C2115 C 0.1913 0.35416 0.89833 0.0
C2116 C 0.2014 0.38122 0.91169 0.0
H2117 H 0.17098 0.31017 0.90754 0.0
H2118 H 0.18999 0.35231 0.87272 0.0
C2119 C 0.20373 0.38311 0.94477 0.0
C2120 C 0.37368 0.42695 0.674 0.0
C2121 C 0.37342 0.44393 0.64514 0.0
H2122 H 0.40137 0.40807 0.71214 0.0
C2123 C 0.40182 0.45533 0.63242 0.0
H2124 H 0.35202 0.41852 0.68471 0.0
C2125 C 0.43021 0.44944 0.64828 0.0
C2126 C 0.43036 0.43228 0.67709 0.0
H2127 H 0.40203 0.4691 0.6105 0.0
H2128 H 0.452 0.45765 0.63768 0.0
C2129 C 0.40184 0.42146 0.68998 0.0
C2130 C 0.65891 0.11081 0.08492 0.0
C2131 C 0.66503 0.11167 0.11759 0.0
H2132 H 0.64716 0.13653 0.0425 0.0
C2133 C 0.66183 0.13958 0.13328 0.0
H2134 H 0.66172 0.0896 0.07219 0.0
C2135 C 0.65395 0.16656 0.11624 0.0
C2136 C 0.6494 0.16604 0.0832 0.0
H2137 H 0.66681 0.14076 0.15845 0.0
H2138 H 0.65177 0.18783 0.12893 0.0
C2139 C 0.65143 0.13783 0.06779 0.0
C2140 C 0.55958 0.96496 0.89271 0.0
C2141 C 0.54128 0.98562 0.8737 0.0
H2142 H 0.60462 0.9555 0.91412 0.0
C2143 C 0.55236 0.01511 0.86663 0.0
H2144 H 0.55173 0.94186 0.8982 0.0
C2145 C 0.58226 0.0231 0.87665 0.0
C2146 C 0.60179 1.00121 0.89259 0.0
H2147 H 0.53884 0.03118 0.85168 0.0
H2148 H 0.59097 0.0456 0.86984 0.0
C2149 C 0.58998 0.97249 0.9015 0.0
C2150 C 0.85073 0.087 0.32629 0.0
C2151 C 0.85446 0.07844 0.35845 0.0
H2152 H 0.87337 0.10018 0.28251 0.0
C2153 C 0.88452 0.07973 0.37214 0.0
H2154 H 0.8279 0.08602 0.31508 0.0
C2155 C 0.91078 0.08779 0.35342 0.0
C2156 C 0.90734 0.09407 0.32068 0.0
H2157 H 0.88799 0.07302 0.39692 0.0
H2158 H 0.93384 0.08787 0.36425 0.0
C2159 C 0.87694 0.09451 0.30753 0.0
C2160 C 0.39021 0.18362 0.16431 0.0
C2161 C 0.40266 0.19171 0.13417 0.0
H2162 H 0.39854 0.15988 0.20906 0.0
C2163 C 0.4345 0.18514 0.12715 0.0
H2164 H 0.36578 0.18897 0.17029 0.0
C2165 C 0.45352 0.17001 0.14982 0.0
C2166 C 0.44069 0.16076 0.17947 0.0
H2167 H 0.44472 0.19187 0.10427 0.0
H2168 H 0.47773 0.16399 0.1435 0.0
C2169 C 0.40899 0.16769 0.18664 0.0
C2170 C 0.6 0.65834 0.89028 0.0
C2171 C 0.58762 0.68484 0.9046 0.0
H2172 H 0.59265 0.62364 0.85615 0.0
C2173 C 0.55673 0.69504 0.89804 0.0
H2174 H 0.624 0.65038 0.89482 0.0
C2175 C 0.53856 0.67922 0.87678 0.0
C2176 C 0.55162 0.6538 0.86104 0.0
H2177 H 0.54694 0.71555 0.90881 0.0
H2178 H 0.51496 0.68785 0.87138 0.0
C2179 C 0.58225 0.64319 0.86815 0.0
C2180 C 0.08826 0.78742 0.68118 0.0
C2181 C 0.07886 0.79959 0.6513 0.0
H2182 H 0.08922 0.79468 0.73157 0.0
C2183 C 0.06131 0.82704 0.64908 0.0
H2184 H 0.10166 0.76594 0.68316 0.0
C2185 C 0.05402 0.84284 0.67625 0.0
C2186 C 0.06451 0.83177 0.70607 0.0
H2187 H 0.05341 0.83653 0.6263 0.0
H2188 H 0.0408 0.86419 0.67354 0.0
C2189 C 0.0812 0.80366 0.70866 0.0
C2190 C 0.93311 0.37271 0.40604 0.0
C2191 C 0.93983 0.34103 0.41014 0.0
H2192 H 0.92845 0.41131 0.3736 0.0
C2193 C 0.94428 0.32323 0.38313 0.0
H2194 H 0.9289 0.38698 0.42643 0.0
C2195 C 0.94346 0.33715 0.35264 0.0
C2196 C 0.93852 0.36924 0.34855 0.0
H2197 H 0.94891 0.29869 0.38559 0.0
H2198 H 0.94848 0.32291 0.33239 0.0
C2199 C 0.93223 0.38662 0.37564 0.0
C2200 C 0.39997 0.84292 0.34202 0.0
C2201 C 0.43248 0.84362 0.34825 0.0
H2202 H 0.35337 0.83717 0.36147 0.0
C2203 C 0.44257 0.84169 0.38 0.0
H2204 H 0.39137 0.84506 0.31786 0.0
C2205 C 0.42074 0.83856 0.40491 0.0
C2206 C 0.3884 0.83651 0.39861 0.0
H2207 H 0.46734 0.84304 0.38575 0.0
H2208 H 0.42945 0.83611 0.42901 0.0
C2209 C 0.37814 0.83916 0.36698 0.0
C2210 C 0.93454 0.7015 0.12243 0.0
C2211 C 0.92394 0.67311 0.13484 0.0
H2212 H 0.9426 0.7295 0.0802 0.0
C2213 C 0.90809 0.65351 0.11499 0.0
H2214 H 0.94724 0.71684 0.13726 0.0
C2215 C 0.90571 0.66062 0.08259 0.0
C2216 C 0.91916 0.68745 0.0695 0.0
H2217 H 0.89987 0.63148 0.12403 0.0
H2218 H 0.89469 0.64427 0.06756 0.0
C2219 C 0.93236 0.70855 0.08978 0.0
C2220 C 0.0761 0.18285 0.90998 0.0
C2221 C 0.09834 0.20593 0.90661 0.0
H2222 H 0.04443 0.15443 0.88632 0.0
C2223 C 0.10938 0.21524 0.8762 0.0
H2224 H 0.06741 0.17526 0.93322 0.0
C2225 C 0.09655 0.20282 0.84918 0.0
C2226 C 0.07228 0.18176 0.85282 0.0
H2227 H 0.12667 0.23309 0.87332 0.0
H2228 H 0.10416 0.21088 0.82572 0.0
C2229 C 0.06283 0.17114 0.8832 0.0
C2230 C 0.59094 0.32555 0.64091 0.0
C2231 C 0.57503 0.35343 0.63401 0.0
H2232 H 0.61597 0.28694 0.62213 0.0
C2233 C 0.57399 0.36525 0.60257 0.0
H2234 H 0.59167 0.31594 0.665 0.0
C2235 C 0.5879 0.34875 0.578 0.0
C2236 C 0.60224 0.31998 0.58465 0.0
H2237 H 0.56157 0.38674 0.59689 0.0
H2238 H 0.58668 0.35806 0.55381 0.0
C2239 C 0.60418 0.30873 0.61631 0.0
C2240 C 0.09611 0.4647 0.24283 0.0
C2241 C 0.08624 0.4344 0.23961 0.0
H2242 H 0.12972 0.49866 0.22911 0.0
C2243 C 0.10487 0.41409 0.22138 0.0
H2244 H 0.08235 0.48089 0.25674 0.0
C2245 C 0.13224 0.42419 0.20578 0.0
C2246 C 0.14127 0.45486 0.20787 0.0
H2247 H 0.09804 0.39049 0.21867 0.0
H2248 H 0.14551 0.40836 0.19101 0.0
C2249 C 0.12326 0.47487 0.22698 0.0
C2250 C 0.28793 0.41736 0.9444 0.0
C2251 C 0.31065 0.43987 0.93909 0.0
H2252 H 0.27806 0.37306 0.96539 0.0
C2253 C 0.34087 0.4359 0.95186 0.0
H2254 H 0.2644 0.42045 0.93505 0.0
C2255 C 0.34824 0.40964 0.97008 0.0
C2256 C 0.32577 0.38682 0.97466 0.0
H2257 H 0.35864 0.45317 0.94806 0.0
H2258 H 0.37161 0.40691 0.98013 0.0
C2259 C 0.29567 0.39051 0.96163 0.0
C2260 C 0.38264 0.55748 0.67356 0.0
C2261 C 0.38352 0.58839 0.682 0.0
H2262 H 0.35336 0.51902 0.66522 0.0
C2263 C 0.35533 0.60353 0.69136 0.0
H2264 H 0.40411 0.54507 0.66704 0.0
C2265 C 0.32677 0.58831 0.69185 0.0
C2266 C 0.3256 0.55783 0.68221 0.0
H2267 H 0.35529 0.62716 0.69875 0.0
H2268 H 0.3054 0.601 0.69817 0.0
C2269 C 0.3538 0.54242 0.6733 0.0
C2270 C 0.16909 0.67871 0.42895 0.0
C2271 C 0.13604 0.67748 0.43114 0.0
H2272 H 0.21245 0.65333 0.42344 0.0
C2273 C 0.12098 0.65021 0.42426 0.0
H2274 H 0.18129 0.69955 0.43415 0.0
C2275 C 0.13879 0.6236 0.41888 0.0
C2276 C 0.17192 0.62401 0.42001 0.0
H2277 H 0.0955 0.64877 0.42574 0.0
H2278 H 0.12647 0.60256 0.41487 0.0
C2279 C 0.18694 0.65206 0.42366 0.0
C2280 C 0.12756 0.58438 0.30741 0.0
C2281 C 0.12243 0.61561 0.29955 0.0
H2282 H 0.15954 0.54999 0.32662 0.0
C2283 C 0.14592 0.63673 0.30559 0.0
H2284 H 0.10996 0.56767 0.30211 0.0
C2285 C 0.17383 0.62681 0.32051 0.0
C2286 C 0.17896 0.59552 0.32855 0.0
H2287 H 0.14242 0.6609 0.29931 0.0
H2288 H 0.19136 0.64359 0.32574 0.0
C2289 C 0.15587 0.57431 0.32131 0.0
C2290 C 0.16393 0.38848 0.09181 0.0
C2291 C 0.13121 0.3843 0.09054 0.0
H2292 H 0.20099 0.42021 0.0982 0.0
C2293 C 0.11047 0.40865 0.0982 0.0
H2294 H 0.18043 0.37023 0.08534 0.0
C2295 C 0.12229 0.43705 0.10622 0.0
C2296 C 0.15498 0.44169 0.10584 0.0
H2297 H 0.08515 0.40601 0.09696 0.0
H2298 H 0.10583 0.45562 0.11177 0.0
C2299 C 0.17571 0.41712 0.09889 0.0
C2300 C 0.36426 0.43679 0.84557 0.0
C2301 C 0.33311 0.43084 0.83743 0.0
H2302 H 0.41295 0.42492 0.83928 0.0
C2303 C 0.32683 0.40621 0.81785 0.0
H2304 H 0.36948 0.45528 0.86126 0.0
C2305 C 0.35184 0.38898 0.80478 0.0
C2306 C 0.38312 0.39578 0.81205 0.0
H2307 H 0.3028 0.40116 0.81166 0.0
H2308 H 0.3468 0.37115 0.78826 0.0
C2309 C 0.38904 0.41915 0.83333 0.0
C2310 C 0.34708 0.62829 0.58277 0.0
C2311 C 0.34895 0.63208 0.54965 0.0
H2312 H 0.3331 0.59887 0.62167 0.0
C2313 C 0.34356 0.60718 0.53006 0.0
H2314 H 0.35151 0.64721 0.59818 0.0
C2315 C 0.33277 0.57964 0.5435 0.0
C2316 C 0.32827 0.57698 0.57647 0.0
H2317 H 0.34506 0.60984 0.50435 0.0
H2318 H 0.32552 0.56158 0.52815 0.0
C2319 C 0.33694 0.60069 0.59615 0.0
C2320 C 0.22 0.14177 0.40264 0.0
C2321 C 0.23553 0.13985 0.37312 0.0
H2322 H 0.19692 0.17082 0.43594 0.0
C2323 C 0.23989 0.16643 0.35406 0.0
H2324 H 0.21714 0.12156 0.41806 0.0
C2325 C 0.22736 0.19461 0.36397 0.0
C2326 C 0.2114 0.19632 0.39338 0.0
H2327 H 0.25228 0.16526 0.33139 0.0
H2328 H 0.2299 0.21489 0.34863 0.0
C2329 C 0.20855 0.16991 0.41294 0.0
C2330 C 0.68417 0.33617 0.60138 0.0
C2331 C 0.69102 0.32796 0.56988 0.0
H2332 H 0.6832 0.37173 0.6355 0.0
C2333 C 0.69907 0.35104 0.54736 0.0
H2334 H 0.67739 0.31898 0.61921 0.0
C2335 C 0.70167 0.38158 0.55662 0.0
C2336 C 0.69663 0.38935 0.58864 0.0
H2337 H 0.70429 0.34535 0.52289 0.0
H2338 H 0.7097 0.39862 0.5392 0.0
C2339 C 0.68694 0.3665 0.61065 0.0
C2340 C 0.43409 0.91838 0.36394 0.0
C2341 C 0.44283 0.92192 0.3317 0.0
H2342 H 0.39686 0.92015 0.39857 0.0
C2343 C 0.41953 0.92825 0.30887 0.0
H2344 H 0.45153 0.91301 0.38204 0.0
C2345 C 0.38795 0.93177 0.3184 0.0
C2346 C 0.37953 0.92937 0.35089 0.0
H2347 H 0.42575 0.93074 0.28385 0.0
H2348 H 0.37057 0.93842 0.30062 0.0
C2349 C 0.40271 0.92168 0.37338 0.0
C2350 C 0.81369 0.66611 0.09955 0.0
C2351 C 0.81111 0.63654 0.08777 0.0
H2352 H 0.82813 0.71229 0.08935 0.0
C2353 C 0.8166 0.63155 0.05539 0.0
H2354 H 0.80872 0.67037 0.12441 0.0
C2355 C 0.82619 0.65544 0.03515 0.0
C2356 C 0.8314 0.68465 0.04715 0.0
H2357 H 0.81361 0.609 0.04568 0.0
H2358 H 0.83135 0.65036 0.01051 0.0
C2359 C 0.82427 0.69003 0.0794 0.0
C2360 C 0.57999 0.58886 0.36641 0.0
C2361 C 0.57504 0.594 0.33365 0.0
H2362 H 0.61304 0.57527 0.40276 0.0
C2363 C 0.60027 0.5904 0.31215 0.0
H2364 H 0.56079 0.59157 0.38345 0.0
C2365 C 0.63023 0.58224 0.32328 0.0
C2366 C 0.63509 0.57665 0.35599 0.0
H2367 H 0.59688 0.59397 0.2868 0.0
H2368 H 0.64932 0.57923 0.30616 0.0
C2369 C 0.6098 0.57987 0.3775 0.0
C2370 C 0.32861 0.84423 0.89283 0.0
C2371 C 0.34054 0.84496 0.92373 0.0
H2372 H 0.30502 0.86981 0.8554 0.0
C2373 C 0.33918 0.87238 0.94049 0.0
H2374 H 0.32991 0.82331 0.87946 0.0
C2375 C 0.32658 0.89898 0.92627 0.0
C2376 C 0.31428 0.89814 0.89562 0.0
H2377 H 0.34888 0.87362 0.96415 0.0
H2378 H 0.32559 0.91993 0.9396 0.0
C2379 C 0.31495 0.8707 0.879 0.0
C2380 C 0.42731 0.99545 0.12377 0.0
C2381 C 0.40608 0.01628 0.10868 0.0
H2382 H 0.47128 0.99029 0.14814 0.0
C2383 C 0.41611 0.04533 0.09852 0.0
H2384 H 0.41997 0.97266 0.13136 0.0
C2385 C 0.44604 0.05477 0.10658 0.0
C2386 C 0.46529 0.03577 0.12637 0.0
H2387 H 0.40016 0.06138 0.08624 0.0
H2388 H 0.45223 0.07832 0.10079 0.0
C2389 C 0.45677 1.00532 0.13301 0.0
C2390 C 0.1492 0.94498 0.6907 0.0
C2391 C 0.14786 0.94994 0.65768 0.0
H2392 H 0.12383 0.93598 0.73379 0.0
C2393 C 0.11872 0.94813 0.64226 0.0
H2394 H 0.17122 0.94683 0.70328 0.0
C2395 C 0.09118 0.94186 0.6598 0.0
C2396 C 0.09237 0.938 0.69307 0.0
H2397 H 0.11709 0.95238 0.61678 0.0
H2398 H 0.06904 0.9403 0.64742 0.0
C2399 C 0.12175 0.93944 0.70824 0.0
loop_
_geom_bond_atom_site_label_1
_geom_bond_atom_site_label_2
_geom_bond_distance
_geom_bond_site_symmetry_2
_ccdc_geom_bond_type
Dy0 O4 2.398 1_455 S
Dy0 O5 2.491 1_455 S
Dy0 O6 2.403 1_455 S
Dy0 O7 2.664 . S
Dy0 O11 2.326 1_455 S
Dy0 O15 2.310 . S
Dy0 O16 2.351 . S
C1 O12 1.185 . S
C1 O13 1.355 . S
C2 O4 1.185 . S
C2 O5 1.355 . S
Dy3 O7 2.310 . S
Dy3 O10 2.351 1_455 S
Dy3 O12 2.398 . S
Dy3 O13 2.491 . S
Dy3 O14 2.403 . S
Dy3 O15 2.664 . S
Dy3 O17 2.326 . S
O4 Dy0 2.398 1_655 S
O4 C2 1.185 . S
O5 Dy0 2.491 1_655 S
O5 C2 1.355 . S
O6 Dy0 2.403 1_655 S
O6 C8 1.254 . S
O7 Dy0 2.664 . S
O7 Dy3 2.310 . S
O7 C8 1.268 1_455 S
C8 O6 1.254 . S
C8 O7 1.268 1_655 S
C9 O14 1.254 . S
C9 O15 1.268 . S
O10 Dy3 2.351 1_655 S
O10 C18 1.249 . S
O11 Dy0 2.326 1_655 S
O11 C18 1.267 . S
O12 C1 1.185 . S
O12 Dy3 2.398 . S
O13 C1 1.355 . S
O13 Dy3 2.491 . S
O14 Dy3 2.403 . S
O14 C9 1.254 . S
O15 Dy0 2.310 . S
O15 Dy3 2.664 . S
O15 C9 1.268 . S
O16 Dy0 2.351 . S
O16 C19 1.249 . S
O17 Dy3 2.326 . S
O17 C19 1.267 . S
C18 O10 1.249 . S
C18 O11 1.267 . S
C19 O16 1.249 . S
C19 O17 1.267 . S
Dy20 O24 2.398 . S
Dy20 O25 2.491 . S
Dy20 O26 2.403 . S
Dy20 O27 2.664 . S
Dy20 O31 2.326 . S
Dy20 O35 2.310 . S
Dy20 O36 2.351 . S
C21 O32 1.185 . S
C21 O33 1.355 . S
C22 O24 1.185 . S
C22 O25 1.355 . S
Dy23 O27 2.310 . S
Dy23 O30 2.351 . S
Dy23 O32 2.398 . S
Dy23 O33 2.491 . S
Dy23 O34 2.403 . S
Dy23 O35 2.664 . S
Dy23 O37 2.326 . S
O24 Dy20 2.398 . S
O24 C22 1.185 . S
O25 Dy20 2.491 . S
O25 C22 1.355 . S
O26 Dy20 2.403 . S
O26 C28 1.254 . S
O27 Dy20 2.664 . S
O27 Dy23 2.310 . S
O27 C28 1.268 . S
C28 O26 1.254 . S
C28 O27 1.268 . S
C29 O34 1.254 . S
C29 O35 1.268 . S
O30 Dy23 2.351 . S
O30 C38 1.249 . S
O31 Dy20 2.326 . S
O31 C38 1.267 . S
O32 C21 1.185 . S
O32 Dy23 2.398 . S
O33 C21 1.355 . S
O33 Dy23 2.491 . S
O34 Dy23 2.403 . S
O34 C29 1.254 . S
O35 Dy20 2.310 . S
O35 Dy23 2.664 . S
O35 C29 1.268 . S
O36 Dy20 2.351 . S
O36 C39 1.249 . S
O37 Dy23 2.326 . S
O37 C39 1.267 . S
C38 O30 1.249 . S
C38 O31 1.267 . S
C39 O36 1.249 . S
C39 O37 1.267 . S
Dy40 O44 2.398 . S
Dy40 O45 2.491 . S
Dy40 O46 2.403 . S
Dy40 O47 2.664 . S
Dy40 O51 2.326 . S
Dy40 O55 2.310 . S
Dy40 O56 2.351 . S
C41 O52 1.185 . S
C41 O53 1.355 . S
C42 O44 1.185 . S
C42 O45 1.355 . S
Dy43 O47 2.310 . S
Dy43 O50 2.351 . S
Dy43 O52 2.398 . S
Dy43 O53 2.491 . S
Dy43 O54 2.403 . S
Dy43 O55 2.664 . S
Dy43 O57 2.326 . S
O44 Dy40 2.398 . S
O44 C42 1.185 . S
O45 Dy40 2.491 . S
O45 C42 1.355 . S
O46 Dy40 2.403 . S
O46 C48 1.254 . S
O47 Dy40 2.664 . S
O47 Dy43 2.310 . S
O47 C48 1.268 . S
C48 O46 1.254 . S
C48 O47 1.268 . S
C49 O54 1.254 . S
C49 O55 1.268 . S
O50 Dy43 2.351 . S
O50 C58 1.249 . S
O51 Dy40 2.326 . S
O51 C58 1.267 . S
O52 C41 1.185 . S
O52 Dy43 2.398 . S
O53 C41 1.355 . S
O53 Dy43 2.491 . S
O54 Dy43 2.403 . S
O54 C49 1.254 . S
O55 Dy40 2.310 . S
O55 Dy43 2.664 . S
O55 C49 1.268 . S
O56 Dy40 2.351 . S
O56 C59 1.249 . S
O57 Dy43 2.326 . S
O57 C59 1.267 . S
C58 O50 1.249 . S
C58 O51 1.267 . S
C59 O56 1.249 . S
C59 O57 1.267 . S
Dy60 O64 2.398 . S
Dy60 O65 2.491 1_554 S
Dy60 O66 2.403 . S
Dy60 O67 2.664 . S
Dy60 O71 2.326 . S
Dy60 O75 2.310 . S
Dy60 O76 2.351 . S
C61 O72 1.185 . S
C61 O73 1.355 . S
C62 O64 1.185 1_556 S
C62 O65 1.355 . S
Dy63 O67 2.310 . S
Dy63 O70 2.351 . S
Dy63 O72 2.398 . S
Dy63 O73 2.491 . S
Dy63 O74 2.403 . S
Dy63 O75 2.664 . S
Dy63 O77 2.326 . S
O64 Dy60 2.398 . S
O64 C62 1.185 1_554 S
O65 Dy60 2.491 1_556 S
O65 C62 1.355 . S
O66 Dy60 2.403 . S
O66 C68 1.254 . S
O67 Dy60 2.664 . S
O67 Dy63 2.310 . S
O67 C68 1.268 . S
C68 O66 1.254 . S
C68 O67 1.268 . S
C69 O74 1.254 . S
C69 O75 1.268 . S
O70 Dy63 2.351 . S
O70 C78 1.249 . S
O71 Dy60 2.326 . S
O71 C78 1.267 . S
O72 C61 1.185 . S
O72 Dy63 2.398 . S
O73 C61 1.355 . S
O73 Dy63 2.491 . S
O74 Dy63 2.403 . S
O74 C69 1.254 . S
O75 Dy60 2.310 . S
O75 Dy63 2.664 . S
O75 C69 1.268 . S
O76 Dy60 2.351 . S
O76 C79 1.249 . S
O77 Dy63 2.326 . S
O77 C79 1.267 . S
C78 O70 1.249 . S
C78 O71 1.267 . S
C79 O76 1.249 . S
C79 O77 1.267 . S
Dy80 O84 2.398 . S
Dy80 O85 2.491 . S
Dy80 O86 2.403 1_655 S
Dy80 O87 2.664 1_655 S
Dy80 O91 2.326 1_655 S
Dy80 O95 2.310 . S
Dy80 O96 2.351 . S
C81 O92 1.185 . S
C81 O93 1.355 . S
C82 O84 1.185 . S
C82 O85 1.355 . S
Dy83 O87 2.310 . S
Dy83 O90 2.351 . S
Dy83 O92 2.398 . S
Dy83 O93 2.491 . S
Dy83 O94 2.403 . S
Dy83 O95 2.662 1_455 S
Dy83 O97 2.326 . S
O84 Dy80 2.398 . S
O84 C82 1.185 . S
O85 Dy80 2.491 . S
O85 C82 1.355 . S
O86 Dy80 2.403 1_455 S
O86 C88 1.254 . S
O87 Dy80 2.664 1_455 S
O87 Dy83 2.310 . S
O87 C88 1.268 . S
C88 O86 1.254 . S
C88 O87 1.268 . S
C89 O94 1.254 1_655 S
C89 O95 1.268 . S
O90 Dy83 2.351 . S
O90 C98 1.249 . S
O91 Dy80 2.326 1_455 S
O91 C98 1.267 . S
O92 C81 1.185 . S
O92 Dy83 2.398 . S
O93 C81 1.355 . S
O93 Dy83 2.491 . S
O94 Dy83 2.403 . S
O94 C89 1.254 1_455 S
O95 Dy80 2.310 . S
O95 Dy83 2.662 1_655 S
O95 C89 1.268 . S
O96 Dy80 2.351 . S
O96 C99 1.249 . S
O97 Dy83 2.326 . S
O97 C99 1.267 1_455 S
C98 O90 1.249 . S
C98 O91 1.267 . S
C99 O96 1.249 . S
C99 O97 1.267 1_655 S
Dy100 O104 2.398 . S
Dy100 O105 2.491 . S
Dy100 O106 2.403 . S
Dy100 O107 2.664 . S
Dy100 O111 2.326 . S
Dy100 O115 2.310 . S
Dy100 O116 2.351 . S
C101 O112 1.185 . S
C101 O113 1.355 . S
C102 O104 1.185 . S
C102 O105 1.355 . S
Dy103 O107 2.310 . S
Dy103 O110 2.351 . S
Dy103 O112 2.398 . S
Dy103 O113 2.491 . S
Dy103 O114 2.403 . S
Dy103 O115 2.664 . S
Dy103 O117 2.326 . S
O104 Dy100 2.398 . S
O104 C102 1.185 . S
O105 Dy100 2.491 . S
O105 C102 1.355 . S
O106 Dy100 2.403 . S
O106 C108 1.254 . S
O107 Dy100 2.664 . S
O107 Dy103 2.310 . S
O107 C108 1.268 . S
C108 O106 1.254 . S
C108 O107 1.268 . S
C109 O114 1.254 . S
C109 O115 1.268 . S
O110 Dy103 2.351 . S
O110 C118 1.249 . S
O111 Dy100 2.326 . S
O111 C118 1.267 . S
O112 C101 1.185 . S
O112 Dy103 2.398 . S
O113 C101 1.355 . S
O113 Dy103 2.491 . S
O114 Dy103 2.403 . S
O114 C109 1.254 . S
O115 Dy100 2.310 . S
O115 Dy103 2.664 . S
O115 C109 1.268 . S
O116 Dy100 2.351 . S
O116 C119 1.249 . S
O117 Dy103 2.326 . S
O117 C119 1.267 . S
C118 O110 1.249 . S
C118 O111 1.267 . S
C119 O116 1.249 . S
C119 O117 1.267 . S
Dy120 O124 2.398 . S
Dy120 O125 2.491 . S
Dy120 O126 2.403 . S
Dy120 O127 2.664 . S
Dy120 O131 2.326 . S
Dy120 O135 2.310 . S
Dy120 O136 2.351 . S
C121 O132 1.185 . S
C121 O133 1.355 . S
C122 O124 1.185 . S
C122 O125 1.355 . S
Dy123 O127 2.310 . S
Dy123 O130 2.351 . S
Dy123 O132 2.398 . S
Dy123 O133 2.491 . S
Dy123 O134 2.403 . S
Dy123 O135 2.664 . S
Dy123 O137 2.326 . S
O124 Dy120 2.398 . S
O124 C122 1.185 . S
O125 Dy120 2.491 . S
O125 C122 1.355 . S
O126 Dy120 2.403 . S
O126 C128 1.254 . S
O127 Dy120 2.664 . S
O127 Dy123 2.310 . S
O127 C128 1.268 . S
C128 O126 1.254 . S
C128 O127 1.268 . S
C129 O134 1.254 . S
C129 O135 1.268 . S
O130 Dy123 2.351 . S
O130 C138 1.249 . S
O131 Dy120 2.326 . S
O131 C138 1.267 . S
O132 C121 1.185 . S
O132 Dy123 2.398 . S
O133 C121 1.355 . S
O133 Dy123 2.491 . S
O134 Dy123 2.403 . S
O134 C129 1.254 . S
O135 Dy120 2.310 . S
O135 Dy123 2.664 . S
O135 C129 1.268 . S
O136 Dy120 2.351 . S
O136 C139 1.249 . S
O137 Dy123 2.326 . S
O137 C139 1.267 . S
C138 O130 1.249 . S
C138 O131 1.267 . S
C139 O136 1.249 . S
C139 O137 1.267 . S
Dy140 O144 2.398 . S
Dy140 O145 2.491 . S
Dy140 O146 2.403 . S
Dy140 O147 2.664 . S
Dy140 O151 2.326 . S
Dy140 O155 2.310 . S
Dy140 O156 2.351 1_556 S
C141 O152 1.185 . S
C141 O153 1.355 . S
C142 O144 1.185 . S
C142 O145 1.355 . S
Dy143 O147 2.310 1_554 S
Dy143 O150 2.351 1_554 S
Dy143 O152 2.398 . S
Dy143 O153 2.491 . S
Dy143 O154 2.403 . S
Dy143 O155 2.664 1_554 S
Dy143 O157 2.326 . S
O144 Dy140 2.398 . S
O144 C142 1.185 . S
O145 Dy140 2.491 . S
O145 C142 1.355 . S
O146 Dy140 2.403 . S
O146 C148 1.254 . S
O147 Dy140 2.664 . S
O147 Dy143 2.310 1_556 S
O147 C148 1.268 . S
C148 O146 1.254 . S
C148 O147 1.268 . S
C149 O154 1.254 . S
C149 O155 1.268 1_554 S
O150 Dy143 2.351 1_556 S
O150 C158 1.249 . S
O151 Dy140 2.326 . S
O151 C158 1.267 . S
O152 C141 1.185 . S
O152 Dy143 2.398 . S
O153 C141 1.355 . S
O153 Dy143 2.491 . S
O154 Dy143 2.403 . S
O154 C149 1.254 . S
O155 Dy140 2.310 . S
O155 Dy143 2.664 1_556 S
O155 C149 1.268 1_556 S
O156 Dy140 2.351 1_554 S
O156 C159 1.249 . S
O157 Dy143 2.326 . S
O157 C159 1.267 . S
C158 O150 1.249 . S
C158 O151 1.267 . S
C159 O156 1.249 . S
C159 O157 1.267 . S
Dy160 O164 2.398 1_545 S
Dy160 O165 2.491 1_545 S
Dy160 O166 2.403 . S
Dy160 O167 2.664 . S
Dy160 O171 2.326 . S
Dy160 O175 2.310 . S
Dy160 O176 2.351 . S
C161 O172 1.185 . S
C161 O173 1.355 . S
C162 O164 1.185 . S
C162 O165 1.355 . S
Dy163 O167 2.310 . S
Dy163 O170 2.351 . S
Dy163 O172 2.398 . S
Dy163 O173 2.491 . S
Dy163 O174 2.403 . S
Dy163 O175 2.664 . S
Dy163 O177 2.326 . S
O164 Dy160 2.398 1_565 S
O164 C162 1.185 . S
O165 Dy160 2.491 1_565 S
O165 C162 1.355 . S
O166 Dy160 2.403 . S
O166 C168 1.254 . S
O167 Dy160 2.664 . S
O167 Dy163 2.310 . S
O167 C168 1.268 . S
C168 O166 1.254 . S
C168 O167 1.268 . S
C169 O174 1.254 . S
C169 O175 1.268 . S
O170 Dy163 2.351 . S
O170 C178 1.249 . S
O171 Dy160 2.326 . S
O171 C178 1.267 . S
O172 C161 1.185 . S
O172 Dy163 2.398 . S
O173 C161 1.355 . S
O173 Dy163 2.491 . S
O174 Dy163 2.403 . S
O174 C169 1.254 . S
O175 Dy160 2.310 . S
O175 Dy163 2.664 . S
O175 C169 1.268 . S
O176 Dy160 2.351 . S
O176 C179 1.249 . S
O177 Dy163 2.326 . S
O177 C179 1.267 . S
C178 O170 1.249 . S
C178 O171 1.267 . S
C179 O176 1.249 . S
C179 O177 1.267 . S
Dy180 O184 2.398 . S
Dy180 O185 2.491 1_545 S
Dy180 O186 2.403 . S
Dy180 O187 2.664 . S
Dy180 O191 2.326 . S
Dy180 O195 2.310 . S
Dy180 O196 2.351 . S
C181 O192 1.185 . S
C181 O193 1.355 . S
C182 O184 1.185 1_565 S
C182 O185 1.355 . S
Dy183 O187 2.310 . S
Dy183 O190 2.351 . S
Dy183 O192 2.398 . S
Dy183 O193 2.491 . S
Dy183 O194 2.403 . S
Dy183 O195 2.664 . S
Dy183 O197 2.326 . S
O184 Dy180 2.398 . S
O184 C182 1.185 1_545 S
O185 Dy180 2.491 1_565 S
O185 C182 1.355 . S
O186 Dy180 2.403 . S
O186 C188 1.254 . S
O187 Dy180 2.664 . S
O187 Dy183 2.310 . S
O187 C188 1.268 . S
C188 O186 1.254 . S
C188 O187 1.268 . S
C189 O194 1.254 . S
C189 O195 1.268 . S
O190 Dy183 2.351 . S
O190 C198 1.249 . S
O191 Dy180 2.326 . S
O191 C198 1.267 . S
O192 C181 1.185 . S
O192 Dy183 2.398 . S
O193 C181 1.355 . S
O193 Dy183 2.491 . S
O194 Dy183 2.403 . S
O194 C189 1.254 . S
O195 Dy180 2.310 . S
O195 Dy183 2.664 . S
O195 C189 1.268 . S
O196 Dy180 2.351 . S
O196 C199 1.249 . S
O197 Dy183 2.326 . S
O197 C199 1.267 . S
C198 O190 1.249 . S
C198 O191 1.267 . S
C199 O196 1.249 . S
C199 O197 1.267 . S
Dy200 O204 2.398 . S
Dy200 O205 2.491 . S
Dy200 O206 2.403 . S
Dy200 O207 2.664 . S
Dy200 O211 2.326 . S
Dy200 O215 2.310 . S
Dy200 O216 2.351 1_565 S
C201 O212 1.185 . S
C201 O213 1.355 . S
C202 O204 1.185 . S
C202 O205 1.355 . S
Dy203 O207 2.310 1_545 S
Dy203 O210 2.351 1_545 S
Dy203 O212 2.398 . S
Dy203 O213 2.491 . S
Dy203 O214 2.403 . S
Dy203 O215 2.664 1_545 S
Dy203 O217 2.326 . S
O204 Dy200 2.398 . S
O204 C202 1.185 . S
O205 Dy200 2.491 . S
O205 C202 1.355 . S
O206 Dy200 2.403 . S
O206 C208 1.254 . S
O207 Dy200 2.664 . S
O207 Dy203 2.310 1_565 S
O207 C208 1.268 . S
C208 O206 1.254 . S
C208 O207 1.268 . S
C209 O214 1.254 . S
C209 O215 1.268 1_545 S
O210 Dy203 2.351 1_565 S
O210 C218 1.249 . S
O211 Dy200 2.326 . S
O211 C218 1.267 . S
O212 C201 1.185 . S
O212 Dy203 2.398 . S
O213 C201 1.355 . S
O213 Dy203 2.491 . S
O214 Dy203 2.403 . S
O214 C209 1.254 . S
O215 Dy200 2.310 . S
O215 Dy203 2.664 1_565 S
O215 C209 1.268 1_565 S
O216 Dy200 2.351 1_545 S
O216 C219 1.249 . S
O217 Dy203 2.326 . S
O217 C219 1.267 . S
C218 O210 1.249 . S
C218 O211 1.267 . S
C219 O216 1.249 . S
C219 O217 1.267 . S
Dy220 O224 2.398 . S
Dy220 O225 2.491 . S
Dy220 O226 2.403 . S
Dy220 O227 2.664 . S
Dy220 O231 2.326 . S
Dy220 O235 2.310 . S
Dy220 O236 2.351 . S
C221 O232 1.185 . S
C221 O233 1.355 . S
C222 O224 1.185 . S
C222 O225 1.355 . S
Dy223 O227 2.310 . S
Dy223 O230 2.351 . S
Dy223 O232 2.398 1_565 S
Dy223 O233 2.491 1_565 S
Dy223 O234 2.403 1_565 S
Dy223 O235 2.664 . S
Dy223 O237 2.326 1_565 S
O224 Dy220 2.398 . S
O224 C222 1.185 . S
O225 Dy220 2.491 . S
O225 C222 1.355 . S
O226 Dy220 2.403 . S
O226 C228 1.254 . S
O227 Dy220 2.664 . S
O227 Dy223 2.310 . S
O227 C228 1.268 . S
C228 O226 1.254 . S
C228 O227 1.268 . S
C229 O234 1.254 1_565 S
C229 O235 1.268 . S
O230 Dy223 2.351 . S
O230 C238 1.249 . S
O231 Dy220 2.326 . S
O231 C238 1.267 . S
O232 C221 1.185 . S
O232 Dy223 2.398 1_545 S
O233 C221 1.355 . S
O233 Dy223 2.491 1_545 S
O234 Dy223 2.403 1_545 S
O234 C229 1.254 1_545 S
O235 Dy220 2.310 . S
O235 Dy223 2.664 . S
O235 C229 1.268 . S
O236 Dy220 2.351 . S
O236 C239 1.249 1_565 S
O237 Dy223 2.326 1_545 S
O237 C239 1.267 . S
C238 O230 1.249 . S
C238 O231 1.267 . S
C239 O236 1.249 1_545 S
C239 O237 1.267 . S
Dy240 O244 2.398 . S
Dy240 O245 2.491 . S
Dy240 O246 2.403 . S
Dy240 O247 2.664 . S
Dy240 O251 2.326 . S
Dy240 O255 2.310 . S
Dy240 O256 2.351 . S
C241 O252 1.185 . S
C241 O253 1.355 . S
C242 O244 1.185 . S
C242 O245 1.355 . S
Dy243 O247 2.310 . S
Dy243 O250 2.351 . S
Dy243 O252 2.398 1_554 S
Dy243 O253 2.491 1_554 S
Dy243 O254 2.403 1_554 S
Dy243 O255 2.664 . S
Dy243 O257 2.335 . S
O244 Dy240 2.398 . S
O244 C242 1.185 . S
O245 Dy240 2.491 . S
O245 C242 1.355 . S
O246 Dy240 2.403 . S
O246 C248 1.254 . S
O247 Dy240 2.664 . S
O247 Dy243 2.310 . S
O247 C248 1.268 . S
C248 O246 1.254 . S
C248 O247 1.268 . S
C249 O254 1.254 1_554 S
C249 O255 1.268 . S
O250 Dy243 2.351 . S
O250 C258 1.249 . S
O251 Dy240 2.326 . S
O251 C258 1.267 . S
O252 C241 1.185 . S
O252 Dy243 2.398 1_556 S
O253 C241 1.355 . S
O253 Dy243 2.491 1_556 S
O254 Dy243 2.403 1_556 S
O254 C249 1.254 1_556 S
O255 Dy240 2.310 . S
O255 Dy243 2.664 . S
O255 C249 1.268 . S
O256 Dy240 2.351 . S
O256 C259 1.249 . S
O257 Dy243 2.335 . S
O257 C259 1.276 . S
C258 O250 1.249 . S
C258 O251 1.267 . S
C259 O256 1.249 . S
C259 O257 1.276 . S
Dy260 O264 2.398 . S
Dy260 O265 2.491 . S
Dy260 O266 2.403 1_455 S
Dy260 O267 2.664 1_455 S
Dy260 O271 2.326 1_455 S
Dy260 O275 2.310 . S
Dy260 O276 2.351 . S
C261 O272 1.185 . S
C261 O273 1.355 . S
C262 O264 1.185 . S
C262 O265 1.355 . S
Dy263 O267 2.310 . S
Dy263 O270 2.351 . S
Dy263 O272 2.398 . S
Dy263 O273 2.491 . S
Dy263 O274 2.403 . S
Dy263 O275 2.663 1_655 S
Dy263 O277 2.326 . S
O264 Dy260 2.398 . S
O264 C262 1.185 . S
O265 Dy260 2.491 . S
O265 C262 1.355 . S
O266 Dy260 2.403 1_655 S
O266 C268 1.254 . S
O267 Dy260 2.664 1_655 S
O267 Dy263 2.310 . S
O267 C268 1.268 . S
C268 O266 1.254 . S
C268 O267 1.268 . S
C269 O274 1.254 1_455 S
C269 O275 1.268 . S
O270 Dy263 2.351 . S
O270 C278 1.249 . S
O271 Dy260 2.326 1_655 S
O271 C278 1.267 . S
O272 C261 1.185 . S
O272 Dy263 2.398 . S
O273 C261 1.355 . S
O273 Dy263 2.491 . S
O274 Dy263 2.403 . S
O274 C269 1.254 1_655 S
O275 Dy260 2.310 . S
O275 Dy263 2.663 1_455 S
O275 C269 1.268 . S
O276 Dy260 2.351 . S
O276 C279 1.249 1_455 S
O277 Dy263 2.326 . S
O277 C279 1.267 . S
C278 O270 1.249 . S
C278 O271 1.267 . S
C279 O276 1.249 1_655 S
C279 O277 1.267 . S
Dy280 O284 2.398 . S
Dy280 O285 2.491 . S
Dy280 O286 2.403 . S
Dy280 O287 2.664 . S
Dy280 O291 2.326 . S
Dy280 O295 2.310 . S
Dy280 O296 2.351 . S
C281 O292 1.185 . S
C281 O293 1.355 . S
C282 O284 1.185 . S
C282 O285 1.355 . S
Dy283 O287 2.310 . S
Dy283 O290 2.351 . S
Dy283 O292 2.398 . S
Dy283 O293 2.491 . S
Dy283 O294 2.403 . S
Dy283 O295 2.664 . S
Dy283 O297 2.326 . S
O284 Dy280 2.398 . S
O284 C282 1.185 . S
O285 Dy280 2.491 . S
O285 C282 1.355 . S
O286 Dy280 2.403 . S
O286 C288 1.254 . S
O287 Dy280 2.664 . S
O287 Dy283 2.310 . S
O287 C288 1.268 . S
C288 O286 1.254 . S
C288 O287 1.268 . S
C289 O294 1.254 . S
C289 O295 1.268 . S
O290 Dy283 2.351 . S
O290 C298 1.249 . S
O291 Dy280 2.326 . S
O291 C298 1.267 . S
O292 C281 1.185 . S
O292 Dy283 2.398 . S
O293 C281 1.355 . S
O293 Dy283 2.491 . S
O294 Dy283 2.403 . S
O294 C289 1.254 . S
O295 Dy280 2.310 . S
O295 Dy283 2.664 . S
O295 C289 1.268 . S
O296 Dy280 2.351 . S
O296 C299 1.249 . S
O297 Dy283 2.326 . S
O297 C299 1.267 . S
C298 O290 1.249 . S
C298 O291 1.267 . S
C299 O296 1.249 . S
C299 O297 1.267 . S
Dy300 O304 2.398 . S
Dy300 O305 2.491 . S
Dy300 O306 2.403 . S
Dy300 O307 2.664 . S
Dy300 O311 2.326 . S
Dy300 O315 2.310 . S
Dy300 O316 2.351 1_655 S
C301 O312 1.185 . S
C301 O313 1.355 . S
C302 O304 1.185 . S
C302 O305 1.355 . S
Dy303 O307 2.310 . S
Dy303 O310 2.351 . S
Dy303 O312 2.398 1_655 S
Dy303 O313 2.491 1_655 S
Dy303 O314 2.403 1_655 S
Dy303 O315 2.664 . S
Dy303 O317 2.326 1_655 S
O304 Dy300 2.398 . S
O304 C302 1.185 . S
O305 Dy300 2.491 . S
O305 C302 1.355 . S
O306 Dy300 2.403 . S
O306 C308 1.254 . S
O307 Dy300 2.664 . S
O307 Dy303 2.310 . S
O307 C308 1.268 . S
C308 O306 1.254 . S
C308 O307 1.268 . S
C309 O314 1.254 . S
C309 O315 1.268 1_455 S
O310 Dy303 2.351 . S
O310 C318 1.249 . S
O311 Dy300 2.326 . S
O311 C318 1.267 . S
O312 C301 1.185 . S
O312 Dy303 2.398 1_455 S
O313 C301 1.355 . S
O313 Dy303 2.491 1_455 S
O314 Dy303 2.403 1_455 S
O314 C309 1.254 . S
O315 Dy300 2.310 . S
O315 Dy303 2.664 . S
O315 C309 1.268 1_655 S
O316 Dy300 2.351 1_455 S
O316 C319 1.249 . S
O317 Dy303 2.326 1_455 S
O317 C319 1.267 . S
C318 O310 1.249 . S
C318 O311 1.267 . S
C319 O316 1.249 . S
C319 O317 1.267 . S
Dy320 O324 2.398 . S
Dy320 O325 2.491 . S
Dy320 O326 2.403 . S
Dy320 O327 2.664 . S
Dy320 O331 2.326 . S
Dy320 O335 2.310 . S
Dy320 O336 2.351 . S
C321 O332 1.185 . S
C321 O333 1.355 . S
C322 O324 1.185 . S
C322 O325 1.355 . S
Dy323 O327 2.310 . S
Dy323 O330 2.351 . S
Dy323 O332 2.398 . S
Dy323 O333 2.491 . S
Dy323 O334 2.403 . S
Dy323 O335 2.664 . S
Dy323 O337 2.326 . S
O324 Dy320 2.398 . S
O324 C322 1.185 . S
O325 Dy320 2.491 . S
O325 C322 1.355 . S
O326 Dy320 2.403 . S
O326 C328 1.254 . S
O327 Dy320 2.664 . S
O327 Dy323 2.310 . S
O327 C328 1.268 . S
C328 O326 1.254 . S
C328 O327 1.268 . S
C329 O334 1.254 . S
C329 O335 1.268 . S
O330 Dy323 2.351 . S
O330 C338 1.249 . S
O331 Dy320 2.326 . S
O331 C338 1.267 . S
O332 C321 1.185 . S
O332 Dy323 2.398 . S
O333 C321 1.355 . S
O333 Dy323 2.491 . S
O334 Dy323 2.403 . S
O334 C329 1.254 . S
O335 Dy320 2.310 . S
O335 Dy323 2.664 . S
O335 C329 1.268 . S
O336 Dy320 2.351 . S
O336 C339 1.249 . S
O337 Dy323 2.326 . S
O337 C339 1.267 . S
C338 O330 1.249 . S
C338 O331 1.267 . S
C339 O336 1.249 . S
C339 O337 1.267 . S
Dy340 O344 2.398 . S
Dy340 O345 2.491 . S
Dy340 O346 2.403 . S
Dy340 O347 2.664 . S
Dy340 O351 2.326 . S
Dy340 O355 2.310 . S
Dy340 O356 2.351 . S
C341 O352 1.185 . S
C341 O353 1.355 . S
C342 O344 1.185 . S
C342 O345 1.355 . S
Dy343 O347 2.310 . S
Dy343 O350 2.351 . S
Dy343 O352 2.398 . S
Dy343 O353 2.491 . S
Dy343 O354 2.403 . S
Dy343 O355 2.664 . S
Dy343 O357 2.326 . S
O344 Dy340 2.398 . S
O344 C342 1.185 . S
O345 Dy340 2.491 . S
O345 C342 1.355 . S
O346 Dy340 2.403 . S
O346 C348 1.254 . S
O347 Dy340 2.664 . S
O347 Dy343 2.310 . S
O347 C348 1.268 . S
C348 O346 1.254 . S
C348 O347 1.268 . S
C349 O354 1.254 . S
C349 O355 1.268 . S
O350 Dy343 2.351 . S
O350 C358 1.249 . S
O351 Dy340 2.326 . S
O351 C358 1.267 . S
O352 C341 1.185 . S
O352 Dy343 2.398 . S
O353 C341 1.355 . S
O353 Dy343 2.491 . S
O354 Dy343 2.403 . S
O354 C349 1.254 . S
O355 Dy340 2.310 . S
O355 Dy343 2.664 . S
O355 C349 1.268 . S
O356 Dy340 2.351 . S
O356 C359 1.249 . S
O357 Dy343 2.326 . S
O357 C359 1.267 . S
C358 O350 1.249 . S
C358 O351 1.267 . S
C359 O356 1.249 . S
C359 O357 1.267 . S
Dy360 O364 2.398 . S
Dy360 O365 2.491 . S
Dy360 O366 2.403 . S
Dy360 O367 2.664 . S
Dy360 O371 2.326 . S
Dy360 O375 2.310 . S
Dy360 O376 2.351 . S
C361 O372 1.185 1_554 S
C361 O373 1.355 . S
C362 O364 1.185 . S
C362 O365 1.355 . S
Dy363 O367 2.310 . S
Dy363 O370 2.351 . S
Dy363 O372 2.398 . S
Dy363 O373 2.491 1_556 S
Dy363 O374 2.403 . S
Dy363 O375 2.664 . S
Dy363 O377 2.326 . S
O364 Dy360 2.398 . S
O364 C362 1.185 . S
O365 Dy360 2.491 . S
O365 C362 1.355 . S
O366 Dy360 2.403 . S
O366 C368 1.254 . S
O367 Dy360 2.664 . S
O367 Dy363 2.310 . S
O367 C368 1.268 . S
C368 O366 1.254 . S
C368 O367 1.268 . S
C369 O374 1.254 . S
C369 O375 1.268 . S
O370 Dy363 2.351 . S
O370 C378 1.249 . S
O371 Dy360 2.326 . S
O371 C378 1.267 . S
O372 C361 1.185 1_556 S
O372 Dy363 2.398 . S
O373 C361 1.355 . S
O373 Dy363 2.491 1_554 S
O374 Dy363 2.403 . S
O374 C369 1.254 . S
O375 Dy360 2.310 . S
O375 Dy363 2.664 . S
O375 C369 1.268 . S
O376 Dy360 2.351 . S
O376 C379 1.249 . S
O377 Dy363 2.326 . S
O377 C379 1.267 . S
C378 O370 1.249 . S
C378 O371 1.267 . S
C379 O376 1.249 . S
C379 O377 1.267 . S
Dy380 O384 2.398 . S
Dy380 O385 2.491 . S
Dy380 O386 2.403 . S
Dy380 O387 2.662 1_655 S
Dy380 O391 2.326 . S
Dy380 O395 2.310 . S
Dy380 O396 2.351 . S
C381 O392 1.185 . S
C381 O393 1.355 . S
C382 O384 1.185 . S
C382 O385 1.355 . S
Dy383 O387 2.310 . S
Dy383 O390 2.351 . S
Dy383 O392 2.398 . S
Dy383 O393 2.491 . S
Dy383 O394 2.403 1_455 S
Dy383 O395 2.664 1_455 S
Dy383 O397 2.326 1_455 S
O384 Dy380 2.398 . S
O384 C382 1.185 . S
O385 Dy380 2.491 . S
O385 C382 1.355 . S
O386 Dy380 2.403 . S
O386 C388 1.254 1_655 S
O387 Dy380 2.662 1_455 S
O387 Dy383 2.310 . S
O387 C388 1.268 . S
C388 O386 1.254 1_455 S
C388 O387 1.268 . S
C389 O394 1.254 . S
C389 O395 1.268 . S
O390 Dy383 2.351 . S
O390 C398 1.249 . S
O391 Dy380 2.326 . S
O391 C398 1.267 1_655 S
O392 C381 1.185 . S
O392 Dy383 2.398 . S
O393 C381 1.355 . S
O393 Dy383 2.491 . S
O394 Dy383 2.403 1_655 S
O394 C389 1.254 . S
O395 Dy380 2.310 . S
O395 Dy383 2.664 1_655 S
O395 C389 1.268 . S
O396 Dy380 2.351 . S
O396 C399 1.249 . S
O397 Dy383 2.326 1_655 S
O397 C399 1.267 . S
C398 O390 1.249 . S
C398 O391 1.267 1_455 S
C399 O396 1.249 . S
C399 O397 1.267 . S
Dy400 O404 2.398 . S
Dy400 O405 2.491 . S
Dy400 O406 2.403 . S
Dy400 O407 2.664 . S
Dy400 O411 2.326 . S
Dy400 O415 2.310 . S
Dy400 O416 2.351 . S
C401 O412 1.185 . S
C401 O413 1.355 . S
C402 O404 1.185 . S
C402 O405 1.355 . S
Dy403 O407 2.310 . S
Dy403 O410 2.351 . S
Dy403 O412 2.398 . S
Dy403 O413 2.491 . S
Dy403 O414 2.403 . S
Dy403 O415 2.664 . S
Dy403 O417 2.326 . S
O404 Dy400 2.398 . S
O404 C402 1.185 . S
O405 Dy400 2.491 . S
O405 C402 1.355 . S
O406 Dy400 2.403 . S
O406 C408 1.254 . S
O407 Dy400 2.664 . S
O407 Dy403 2.310 . S
O407 C408 1.268 . S
C408 O406 1.254 . S
C408 O407 1.268 . S
C409 O414 1.254 . S
C409 O415 1.268 . S
O410 Dy403 2.351 . S
O410 C418 1.249 . S
O411 Dy400 2.326 . S
O411 C418 1.267 . S
O412 C401 1.185 . S
O412 Dy403 2.398 . S
O413 C401 1.355 . S
O413 Dy403 2.491 . S
O414 Dy403 2.403 . S
O414 C409 1.254 . S
O415 Dy400 2.310 . S
O415 Dy403 2.664 . S
O415 C409 1.268 . S
O416 Dy400 2.351 . S
O416 C419 1.249 . S
O417 Dy403 2.326 . S
O417 C419 1.267 . S
C418 O410 1.249 . S
C418 O411 1.267 . S
C419 O416 1.249 . S
C419 O417 1.267 . S
Dy420 O424 2.398 . S
Dy420 O425 2.491 . S
Dy420 O426 2.403 . S
Dy420 O427 2.664 . S
Dy420 O431 2.326 . S
Dy420 O435 2.310 . S
Dy420 O436 2.351 . S
C421 O432 1.185 . S
C421 O433 1.355 . S
C422 O424 1.185 . S
C422 O425 1.355 . S
Dy423 O427 2.310 . S
Dy423 O430 2.351 . S
Dy423 O432 2.398 . S
Dy423 O433 2.491 . S
Dy423 O434 2.403 . S
Dy423 O435 2.664 . S
Dy423 O437 2.326 . S
O424 Dy420 2.398 . S
O424 C422 1.185 . S
O425 Dy420 2.491 . S
O425 C422 1.355 . S
O426 Dy420 2.403 . S
O426 C428 1.254 . S
O427 Dy420 2.664 . S
O427 Dy423 2.310 . S
O427 C428 1.268 . S
C428 O426 1.254 . S
C428 O427 1.268 . S
C429 O434 1.254 . S
C429 O435 1.268 . S
O430 Dy423 2.351 . S
O430 C438 1.249 . S
O431 Dy420 2.326 . S
O431 C438 1.267 . S
O432 C421 1.185 . S
O432 Dy423 2.398 . S
O433 C421 1.355 . S
O433 Dy423 2.491 . S
O434 Dy423 2.403 . S
O434 C429 1.254 . S
O435 Dy420 2.310 . S
O435 Dy423 2.664 . S
O435 C429 1.268 . S
O436 Dy420 2.351 . S
O436 C439 1.249 . S
O437 Dy423 2.326 . S
O437 C439 1.267 . S
C438 O430 1.249 . S
C438 O431 1.267 . S
C439 O436 1.249 . S
C439 O437 1.267 . S
Dy440 O444 2.398 . S
Dy440 O445 2.491 . S
Dy440 O446 2.403 . S
Dy440 O447 2.664 1_556 S
Dy440 O451 2.326 . S
Dy440 O455 2.310 1_556 S
Dy440 O456 2.351 1_556 S
C441 O452 1.185 . S
C441 O453 1.355 . S
C442 O444 1.185 . S
C442 O445 1.355 . S
Dy443 O447 2.310 . S
Dy443 O450 2.351 1_554 S
Dy443 O452 2.398 . S
Dy443 O453 2.491 . S
Dy443 O454 2.403 . S
Dy443 O455 2.664 . S
Dy443 O457 2.326 . S
O444 Dy440 2.398 . S
O444 C442 1.185 . S
O445 Dy440 2.491 . S
O445 C442 1.355 . S
O446 Dy440 2.403 . S
O446 C448 1.254 . S
O447 Dy440 2.664 1_554 S
O447 Dy443 2.310 . S
O447 C448 1.268 1_554 S
C448 O446 1.254 . S
C448 O447 1.268 1_556 S
C449 O454 1.254 . S
C449 O455 1.268 . S
O450 Dy443 2.351 1_556 S
O450 C458 1.249 . S
O451 Dy440 2.326 . S
O451 C458 1.267 . S
O452 C441 1.185 . S
O452 Dy443 2.398 . S
O453 C441 1.355 . S
O453 Dy443 2.491 . S
O454 Dy443 2.403 . S
O454 C449 1.254 . S
O455 Dy440 2.310 1_554 S
O455 Dy443 2.664 . S
O455 C449 1.268 . S
O456 Dy440 2.351 1_554 S
O456 C459 1.249 . S
O457 Dy443 2.326 . S
O457 C459 1.267 . S
C458 O450 1.249 . S
C458 O451 1.267 . S
C459 O456 1.249 . S
C459 O457 1.267 . S
Dy460 O464 2.398 . S
Dy460 O465 2.491 . S
Dy460 O466 2.403 . S
Dy460 O467 2.664 . S
Dy460 O471 2.326 . S
Dy460 O475 2.310 . S
Dy460 O476 2.351 . S
C461 O472 1.185 . S
C461 O473 1.355 . S
C462 O464 1.185 . S
C462 O465 1.355 . S
Dy463 O467 2.310 . S
Dy463 O470 2.351 . S
Dy463 O472 2.398 1_565 S
Dy463 O473 2.491 1_565 S
Dy463 O474 2.403 . S
Dy463 O475 2.664 . S
Dy463 O477 2.326 . S
O464 Dy460 2.398 . S
O464 C462 1.185 . S
O465 Dy460 2.491 . S
O465 C462 1.355 . S
O466 Dy460 2.403 . S
O466 C468 1.254 . S
O467 Dy460 2.664 . S
O467 Dy463 2.310 . S
O467 C468 1.268 . S
C468 O466 1.254 . S
C468 O467 1.268 . S
C469 O474 1.254 . S
C469 O475 1.268 . S
O470 Dy463 2.351 . S
O470 C478 1.249 . S
O471 Dy460 2.326 . S
O471 C478 1.267 . S
O472 C461 1.185 . S
O472 Dy463 2.398 1_545 S
O473 C461 1.355 . S
O473 Dy463 2.491 1_545 S
O474 Dy463 2.403 . S
O474 C469 1.254 . S
O475 Dy460 2.310 . S
O475 Dy463 2.664 . S
O475 C469 1.268 . S
O476 Dy460 2.351 . S
O476 C479 1.249 . S
O477 Dy463 2.326 . S
O477 C479 1.267 . S
C478 O470 1.249 . S
C478 O471 1.267 . S
C479 O476 1.249 . S
C479 O477 1.267 . S
Dy480 O484 2.398 . S
Dy480 O485 2.491 . S
Dy480 O486 2.403 . S
Dy480 O487 2.664 . S
Dy480 O491 2.326 . S
Dy480 O495 2.310 . S
Dy480 O496 2.351 . S
C481 O492 1.185 1_545 S
C481 O493 1.355 . S
C482 O484 1.185 . S
C482 O485 1.355 . S
Dy483 O487 2.310 . S
Dy483 O490 2.351 . S
Dy483 O492 2.398 . S
Dy483 O493 2.491 1_565 S
Dy483 O494 2.403 . S
Dy483 O495 2.664 . S
Dy483 O497 2.326 . S
O484 Dy480 2.398 . S
O484 C482 1.185 . S
O485 Dy480 2.491 . S
O485 C482 1.355 . S
O486 Dy480 2.403 . S
O486 C488 1.254 . S
O487 Dy480 2.664 . S
O487 Dy483 2.310 . S
O487 C488 1.268 . S
C488 O486 1.254 . S
C488 O487 1.268 . S
C489 O494 1.254 . S
C489 O495 1.268 . S
O490 Dy483 2.351 . S
O490 C498 1.249 . S
O491 Dy480 2.326 . S
O491 C498 1.267 . S
O492 C481 1.185 1_565 S
O492 Dy483 2.398 . S
O493 C481 1.355 . S
O493 Dy483 2.491 1_545 S
O494 Dy483 2.403 . S
O494 C489 1.254 . S
O495 Dy480 2.310 . S
O495 Dy483 2.664 . S
O495 C489 1.268 . S
O496 Dy480 2.351 . S
O496 C499 1.249 . S
O497 Dy483 2.326 . S
O497 C499 1.267 . S
C498 O490 1.249 . S
C498 O491 1.267 . S
C499 O496 1.249 . S
C499 O497 1.267 . S
Dy500 O504 2.398 . S
Dy500 O505 2.491 . S
Dy500 O506 2.403 . S
Dy500 O507 2.664 1_565 S
Dy500 O511 2.326 . S
Dy500 O515 2.310 1_565 S
Dy500 O516 2.351 1_565 S
C501 O512 1.185 . S
C501 O513 1.355 . S
C502 O504 1.185 . S
C502 O505 1.355 . S
Dy503 O507 2.310 . S
Dy503 O510 2.351 1_545 S
Dy503 O512 2.398 . S
Dy503 O513 2.491 . S
Dy503 O514 2.403 . S
Dy503 O515 2.664 . S
Dy503 O517 2.326 . S
O504 Dy500 2.398 . S
O504 C502 1.185 . S
O505 Dy500 2.491 . S
O505 C502 1.355 . S
O506 Dy500 2.403 . S
O506 C508 1.254 . S
O507 Dy500 2.664 1_545 S
O507 Dy503 2.310 . S
O507 C508 1.268 1_545 S
C508 O506 1.254 . S
C508 O507 1.268 1_565 S
C509 O514 1.254 . S
C509 O515 1.268 . S
O510 Dy503 2.351 1_565 S
O510 C518 1.249 . S
O511 Dy500 2.326 . S
O511 C518 1.267 . S
O512 C501 1.185 . S
O512 Dy503 2.398 . S
O513 C501 1.355 . S
O513 Dy503 2.491 . S
O514 Dy503 2.403 . S
O514 C509 1.254 . S
O515 Dy500 2.310 1_545 S
O515 Dy503 2.664 . S
O515 C509 1.268 . S
O516 Dy500 2.351 1_545 S
O516 C519 1.249 . S
O517 Dy503 2.326 . S
O517 C519 1.267 . S
C518 O510 1.249 . S
C518 O511 1.267 . S
C519 O516 1.249 . S
C519 O517 1.267 . S
Dy520 O524 2.398 1_545 S
Dy520 O525 2.491 1_545 S
Dy520 O526 2.403 1_545 S
Dy520 O527 2.664 . S
Dy520 O531 2.326 1_545 S
Dy520 O535 2.310 . S
Dy520 O536 2.351 . S
C521 O532 1.185 . S
C521 O533 1.355 . S
C522 O524 1.185 . S
C522 O525 1.355 . S
Dy523 O527 2.310 . S
Dy523 O530 2.351 . S
Dy523 O532 2.398 . S
Dy523 O533 2.491 . S
Dy523 O534 2.403 . S
Dy523 O535 2.664 . S
Dy523 O537 2.326 . S
O524 Dy520 2.398 1_565 S
O524 C522 1.185 . S
O525 Dy520 2.491 1_565 S
O525 C522 1.355 . S
O526 Dy520 2.403 1_565 S
O526 C528 1.254 1_565 S
O527 Dy520 2.664 . S
O527 Dy523 2.310 . S
O527 C528 1.268 . S
C528 O526 1.254 1_545 S
C528 O527 1.268 . S
C529 O534 1.254 . S
C529 O535 1.268 . S
O530 Dy523 2.351 . S
O530 C538 1.249 1_545 S
O531 Dy520 2.326 1_565 S
O531 C538 1.267 . S
O532 C521 1.185 . S
O532 Dy523 2.398 . S
O533 C521 1.355 . S
O533 Dy523 2.491 . S
O534 Dy523 2.403 . S
O534 C529 1.254 . S
O535 Dy520 2.310 . S
O535 Dy523 2.664 . S
O535 C529 1.268 . S
O536 Dy520 2.351 . S
O536 C539 1.249 . S
O537 Dy523 2.326 . S
O537 C539 1.267 . S
C538 O530 1.249 1_565 S
C538 O531 1.267 . S
C539 O536 1.249 . S
C539 O537 1.267 . S
Dy540 O544 2.398 1_556 S
Dy540 O545 2.491 1_556 S
Dy540 O546 2.403 1_556 S
Dy540 O547 2.664 . S
Dy540 O551 2.335 . S
Dy540 O555 2.310 . S
Dy540 O556 2.351 . S
C541 O552 1.185 . S
C541 O553 1.355 . S
C542 O544 1.185 . S
C542 O545 1.355 . S
Dy543 O547 2.310 . S
Dy543 O550 2.351 . S
Dy543 O552 2.398 . S
Dy543 O553 2.491 . S
Dy543 O554 2.403 . S
Dy543 O555 2.664 . S
Dy543 O557 2.326 . S
O544 Dy540 2.398 1_554 S
O544 C542 1.185 . S
O545 Dy540 2.491 1_554 S
O545 C542 1.355 . S
O546 Dy540 2.403 1_554 S
O546 C548 1.254 1_554 S
O547 Dy540 2.664 . S
O547 Dy543 2.310 . S
O547 C548 1.268 . S
C548 O546 1.254 1_556 S
C548 O547 1.268 . S
C549 O554 1.254 . S
C549 O555 1.268 . S
O550 Dy543 2.351 . S
O550 C558 1.249 . S
O551 Dy540 2.335 . S
O551 C558 1.276 . S
O552 C541 1.185 . S
O552 Dy543 2.398 . S
O553 C541 1.355 . S
O553 Dy543 2.491 . S
O554 Dy543 2.403 . S
O554 C549 1.254 . S
O555 Dy540 2.310 . S
O555 Dy543 2.664 . S
O555 C549 1.268 . S
O556 Dy540 2.351 . S
O556 C559 1.249 . S
O557 Dy543 2.326 . S
O557 C559 1.267 . S
C558 O550 1.249 . S
C558 O551 1.276 . S
C559 O556 1.249 . S
C559 O557 1.267 . S
Dy560 O564 2.398 . S
Dy560 O565 2.491 . S
Dy560 O566 2.403 . S
Dy560 O567 2.663 1_455 S
Dy560 O571 2.326 . S
Dy560 O575 2.310 . S
Dy560 O576 2.351 . S
C561 O572 1.185 . S
C561 O573 1.355 . S
C562 O564 1.185 . S
C562 O565 1.355 . S
Dy563 O567 2.310 . S
Dy563 O570 2.351 . S
Dy563 O572 2.398 . S
Dy563 O573 2.491 . S
Dy563 O574 2.403 1_655 S
Dy563 O575 2.664 1_655 S
Dy563 O577 2.326 1_655 S
O564 Dy560 2.398 . S
O564 C562 1.185 . S
O565 Dy560 2.491 . S
O565 C562 1.355 . S
O566 Dy560 2.403 . S
O566 C568 1.254 1_455 S
O567 Dy560 2.663 1_655 S
O567 Dy563 2.310 . S
O567 C568 1.268 . S
C568 O566 1.254 1_655 S
C568 O567 1.268 . S
C569 O574 1.254 . S
C569 O575 1.268 . S
O570 Dy563 2.351 . S
O570 C578 1.249 1_655 S
O571 Dy560 2.326 . S
O571 C578 1.267 . S
O572 C561 1.185 . S
O572 Dy563 2.398 . S
O573 C561 1.355 . S
O573 Dy563 2.491 . S
O574 Dy563 2.403 1_455 S
O574 C569 1.254 . S
O575 Dy560 2.310 . S
O575 Dy563 2.664 1_455 S
O575 C569 1.268 . S
O576 Dy560 2.351 . S
O576 C579 1.249 . S
O577 Dy563 2.326 1_455 S
O577 C579 1.267 . S
C578 O570 1.249 1_455 S
C578 O571 1.267 . S
C579 O576 1.249 . S
C579 O577 1.267 . S
Dy580 O584 2.398 . S
Dy580 O585 2.491 . S
Dy580 O586 2.403 . S
Dy580 O587 2.664 . S
Dy580 O591 2.326 . S
Dy580 O595 2.310 . S
Dy580 O596 2.351 . S
C581 O592 1.185 . S
C581 O593 1.355 . S
C582 O584 1.185 . S
C582 O585 1.355 . S
Dy583 O587 2.310 . S
Dy583 O590 2.351 . S
Dy583 O592 2.398 . S
Dy583 O593 2.491 . S
Dy583 O594 2.403 . S
Dy583 O595 2.664 . S
Dy583 O597 2.326 . S
O584 Dy580 2.398 . S
O584 C582 1.185 . S
O585 Dy580 2.491 . S
O585 C582 1.355 . S
O586 Dy580 2.403 . S
O586 C588 1.254 . S
O587 Dy580 2.664 . S
O587 Dy583 2.310 . S
O587 C588 1.268 . S
C588 O586 1.254 . S
C588 O587 1.268 . S
C589 O594 1.254 . S
C589 O595 1.268 . S
O590 Dy583 2.351 . S
O590 C598 1.249 . S
O591 Dy580 2.326 . S
O591 C598 1.267 . S
O592 C581 1.185 . S
O592 Dy583 2.398 . S
O593 C581 1.355 . S
O593 Dy583 2.491 . S
O594 Dy583 2.403 . S
O594 C589 1.254 . S
O595 Dy580 2.310 . S
O595 Dy583 2.664 . S
O595 C589 1.268 . S
O596 Dy580 2.351 . S
O596 C599 1.249 . S
O597 Dy583 2.326 . S
O597 C599 1.267 . S
C598 O590 1.249 . S
C598 O591 1.267 . S
C599 O596 1.249 . S
C599 O597 1.267 . S
Dy600 O604 2.398 . S
Dy600 O605 2.491 . S
Dy600 O606 2.403 . S
Dy600 O607 2.664 . S
Dy600 O611 2.326 . S
Dy600 O615 2.310 . S
Dy600 O616 2.351 . S
C601 O612 1.185 . S
C601 O613 1.355 . S
C602 O604 1.185 . S
C602 O605 1.355 . S
Dy603 O607 2.310 . S
Dy603 O610 2.351 . S
Dy603 O612 2.398 . S
Dy603 O613 2.491 . S
Dy603 O614 2.403 . S
Dy603 O615 2.664 . S
Dy603 O617 2.326 . S
O604 Dy600 2.398 . S
O604 C602 1.185 . S
O605 Dy600 2.491 . S
O605 C602 1.355 . S
O606 Dy600 2.403 . S
O606 C608 1.254 . S
O607 Dy600 2.664 . S
O607 Dy603 2.310 . S
O607 C608 1.268 . S
C608 O606 1.254 . S
C608 O607 1.268 . S
C609 O614 1.254 . S
C609 O615 1.268 . S
O610 Dy603 2.351 . S
O610 C618 1.249 . S
O611 Dy600 2.326 . S
O611 C618 1.267 . S
O612 C601 1.185 . S
O612 Dy603 2.398 . S
O613 C601 1.355 . S
O613 Dy603 2.491 . S
O614 Dy603 2.403 . S
O614 C609 1.254 . S
O615 Dy600 2.310 . S
O615 Dy603 2.664 . S
O615 C609 1.268 . S
O616 Dy600 2.351 . S
O616 C619 1.249 . S
O617 Dy603 2.326 . S
O617 C619 1.267 . S
C618 O610 1.249 . S
C618 O611 1.267 . S
C619 O616 1.249 . S
C619 O617 1.267 . S
Dy620 O624 2.398 . S
Dy620 O625 2.491 . S
Dy620 O626 2.403 . S
Dy620 O627 2.664 . S
Dy620 O631 2.326 . S
Dy620 O635 2.310 . S
Dy620 O636 2.351 . S
C621 O632 1.185 . S
C621 O633 1.355 . S
C622 O624 1.185 . S
C622 O625 1.355 . S
Dy623 O627 2.310 . S
Dy623 O630 2.351 . S
Dy623 O632 2.398 1_655 S
Dy623 O633 2.491 1_655 S
Dy623 O634 2.403 1_655 S
Dy623 O635 2.664 . S
Dy623 O637 2.326 1_655 S
O624 Dy620 2.398 . S
O624 C622 1.185 . S
O625 Dy620 2.491 . S
O625 C622 1.355 . S
O626 Dy620 2.403 . S
O626 C628 1.254 . S
O627 Dy620 2.664 . S
O627 Dy623 2.310 . S
O627 C628 1.268 . S
C628 O626 1.254 . S
C628 O627 1.268 . S
C629 O634 1.254 1_655 S
C629 O635 1.268 . S
O630 Dy623 2.351 . S
O630 C638 1.249 . S
O631 Dy620 2.326 . S
O631 C638 1.267 . S
O632 C621 1.185 . S
O632 Dy623 2.398 1_455 S
O633 C621 1.355 . S
O633 Dy623 2.491 1_455 S
O634 Dy623 2.403 1_455 S
O634 C629 1.254 1_455 S
O635 Dy620 2.310 . S
O635 Dy623 2.664 . S
O635 C629 1.268 . S
O636 Dy620 2.351 . S
O636 C639 1.249 . S
O637 Dy623 2.326 1_455 S
O637 C639 1.267 1_455 S
C638 O630 1.249 . S
C638 O631 1.267 . S
C639 O636 1.249 . S
C639 O637 1.267 1_655 S
Dy640 O644 2.398 . S
Dy640 O645 2.491 . S
Dy640 O646 2.403 . S
Dy640 O647 2.664 . S
Dy640 O651 2.326 . S
Dy640 O655 2.310 . S
Dy640 O656 2.351 . S
C641 O652 1.185 . S
C641 O653 1.355 . S
C642 O644 1.185 . S
C642 O645 1.355 . S
Dy643 O647 2.310 . S
Dy643 O650 2.351 . S
Dy643 O652 2.398 . S
Dy643 O653 2.491 . S
Dy643 O654 2.403 . S
Dy643 O655 2.664 . S
Dy643 O657 2.326 . S
O644 Dy640 2.398 . S
O644 C642 1.185 . S
O645 Dy640 2.491 . S
O645 C642 1.355 . S
O646 Dy640 2.403 . S
O646 C648 1.254 . S
O647 Dy640 2.664 . S
O647 Dy643 2.310 . S
O647 C648 1.268 . S
C648 O646 1.254 . S
C648 O647 1.268 . S
C649 O654 1.254 . S
C649 O655 1.268 . S
O650 Dy643 2.351 . S
O650 C658 1.249 . S
O651 Dy640 2.326 . S
O651 C658 1.267 . S
O652 C641 1.185 . S
O652 Dy643 2.398 . S
O653 C641 1.355 . S
O653 Dy643 2.491 . S
O654 Dy643 2.403 . S
O654 C649 1.254 . S
O655 Dy640 2.310 . S
O655 Dy643 2.664 . S
O655 C649 1.268 . S
O656 Dy640 2.351 . S
O656 C659 1.249 . S
O657 Dy643 2.326 . S
O657 C659 1.267 . S
C658 O650 1.249 . S
C658 O651 1.267 . S
C659 O656 1.249 . S
C659 O657 1.267 . S
Dy660 O664 2.398 . S
Dy660 O665 2.491 . S
Dy660 O666 2.403 1_554 S
Dy660 O667 2.664 1_554 S
Dy660 O671 2.326 1_554 S
Dy660 O675 2.310 . S
Dy660 O676 2.351 . S
C661 O672 1.185 . S
C661 O673 1.355 . S
C662 O664 1.185 . S
C662 O665 1.355 . S
Dy663 O667 2.310 . S
Dy663 O670 2.351 . S
Dy663 O672 2.398 . S
Dy663 O673 2.491 . S
Dy663 O674 2.387 1_556 S
Dy663 O675 2.664 1_556 S
Dy663 O677 2.326 . S
O664 Dy660 2.398 . S
O664 C662 1.185 . S
O665 Dy660 2.491 . S
O665 C662 1.355 . S
O666 Dy660 2.403 1_556 S
O666 C668 1.254 . S
O667 Dy660 2.664 1_556 S
O667 Dy663 2.310 . S
O667 C668 1.268 . S
C668 O666 1.254 . S
C668 O667 1.268 . S
C669 O674 1.271 . S
C669 O675 1.268 . S
O670 Dy663 2.351 . S
O670 C678 1.249 . S
O671 Dy660 2.326 1_556 S
O671 C678 1.267 . S
O672 C661 1.185 . S
O672 Dy663 2.398 . S
O673 C661 1.355 . S
O673 Dy663 2.491 . S
O674 Dy663 2.387 1_554 S
O674 C669 1.271 . S
O675 Dy660 2.310 . S
O675 Dy663 2.664 1_554 S
O675 C669 1.268 . S
O676 Dy660 2.351 . S
O676 C679 1.249 . S
O677 Dy663 2.326 . S
O677 C679 1.267 1_556 S
C678 O670 1.249 . S
C678 O671 1.267 . S
C679 O676 1.249 . S
C679 O677 1.267 1_554 S
Dy680 O684 2.398 . S
Dy680 O685 2.491 . S
Dy680 O686 2.403 . S
Dy680 O687 2.664 . S
Dy680 O691 2.326 . S
Dy680 O695 2.310 . S
Dy680 O696 2.351 . S
C681 O692 1.185 . S
C681 O693 1.355 . S
C682 O684 1.185 . S
C682 O685 1.355 . S
Dy683 O687 2.310 . S
Dy683 O690 2.351 . S
Dy683 O692 2.398 . S
Dy683 O693 2.491 . S
Dy683 O694 2.403 . S
Dy683 O695 2.664 . S
Dy683 O697 2.326 . S
O684 Dy680 2.398 . S
O684 C682 1.185 . S
O685 Dy680 2.491 . S
O685 C682 1.355 . S
O686 Dy680 2.403 . S
O686 C688 1.254 . S
O687 Dy680 2.664 . S
O687 Dy683 2.310 . S
O687 C688 1.268 . S
C688 O686 1.254 . S
C688 O687 1.268 . S
C689 O694 1.254 . S
C689 O695 1.268 . S
O690 Dy683 2.351 . S
O690 C698 1.249 . S
O691 Dy680 2.326 . S
O691 C698 1.267 . S
O692 C681 1.185 . S
O692 Dy683 2.398 . S
O693 C681 1.355 . S
O693 Dy683 2.491 . S
O694 Dy683 2.403 . S
O694 C689 1.254 . S
O695 Dy680 2.310 . S
O695 Dy683 2.664 . S
O695 C689 1.268 . S
O696 Dy680 2.351 . S
O696 C699 1.249 . S
O697 Dy683 2.326 . S
O697 C699 1.267 . S
C698 O690 1.249 . S
C698 O691 1.267 . S
C699 O696 1.249 . S
C699 O697 1.267 . S
Dy700 O704 2.398 . S
Dy700 O705 2.491 . S
Dy700 O706 2.403 . S
Dy700 O707 2.664 . S
Dy700 O711 2.326 . S
Dy700 O715 2.310 . S
Dy700 O716 2.351 . S
C701 O712 1.185 . S
C701 O713 1.355 . S
C702 O704 1.185 . S
C702 O705 1.355 . S
Dy703 O707 2.310 . S
Dy703 O710 2.351 . S
Dy703 O712 2.398 . S
Dy703 O713 2.491 . S
Dy703 O714 2.403 . S
Dy703 O715 2.664 . S
Dy703 O717 2.326 . S
O704 Dy700 2.398 . S
O704 C702 1.185 . S
O705 Dy700 2.491 . S
O705 C702 1.355 . S
O706 Dy700 2.403 . S
O706 C708 1.254 . S
O707 Dy700 2.664 . S
O707 Dy703 2.310 . S
O707 C708 1.268 . S
C708 O706 1.254 . S
C708 O707 1.268 . S
C709 O714 1.254 . S
C709 O715 1.268 . S
O710 Dy703 2.351 . S
O710 C718 1.249 . S
O711 Dy700 2.326 . S
O711 C718 1.267 . S
O712 C701 1.185 . S
O712 Dy703 2.398 . S
O713 C701 1.355 . S
O713 Dy703 2.491 . S
O714 Dy703 2.403 . S
O714 C709 1.254 . S
O715 Dy700 2.310 . S
O715 Dy703 2.664 . S
O715 C709 1.268 . S
O716 Dy700 2.351 . S
O716 C719 1.249 . S
O717 Dy703 2.326 . S
O717 C719 1.267 . S
C718 O710 1.249 . S
C718 O711 1.267 . S
C719 O716 1.249 . S
C719 O717 1.267 . S
Dy720 O724 2.398 . S
Dy720 O725 2.491 . S
Dy720 O726 2.403 . S
Dy720 O727 2.664 . S
Dy720 O731 2.326 . S
Dy720 O735 2.310 . S
Dy720 O736 2.351 . S
C721 O732 1.185 . S
C721 O733 1.355 . S
C722 O724 1.185 . S
C722 O725 1.355 . S
Dy723 O727 2.310 . S
Dy723 O730 2.351 . S
Dy723 O732 2.398 . S
Dy723 O733 2.491 . S
Dy723 O734 2.403 . S
Dy723 O735 2.664 . S
Dy723 O737 2.326 . S
O724 Dy720 2.398 . S
O724 C722 1.185 . S
O725 Dy720 2.491 . S
O725 C722 1.355 . S
O726 Dy720 2.403 . S
O726 C728 1.254 . S
O727 Dy720 2.664 . S
O727 Dy723 2.310 . S
O727 C728 1.268 . S
C728 O726 1.254 . S
C728 O727 1.268 . S
C729 O734 1.254 . S
C729 O735 1.268 . S
O730 Dy723 2.351 . S
O730 C738 1.249 . S
O731 Dy720 2.326 . S
O731 C738 1.267 . S
O732 C721 1.185 . S
O732 Dy723 2.398 . S
O733 C721 1.355 . S
O733 Dy723 2.491 . S
O734 Dy723 2.403 . S
O734 C729 1.254 . S
O735 Dy720 2.310 . S
O735 Dy723 2.664 . S
O735 C729 1.268 . S
O736 Dy720 2.351 . S
O736 C739 1.249 . S
O737 Dy723 2.326 . S
O737 C739 1.267 . S
C738 O730 1.249 . S
C738 O731 1.267 . S
C739 O736 1.249 . S
C739 O737 1.267 . S
Dy740 O744 2.398 . S
Dy740 O745 2.491 . S
Dy740 O746 2.403 . S
Dy740 O747 2.664 . S
Dy740 O751 2.326 . S
Dy740 O755 2.310 . S
Dy740 O756 2.351 . S
C741 O752 1.185 . S
C741 O753 1.355 . S
C742 O744 1.185 . S
C742 O745 1.355 . S
Dy743 O747 2.310 . S
Dy743 O750 2.351 . S
Dy743 O752 2.398 . S
Dy743 O753 2.491 . S
Dy743 O754 2.403 . S
Dy743 O755 2.664 . S
Dy743 O757 2.326 . S
O744 Dy740 2.398 . S
O744 C742 1.185 . S
O745 Dy740 2.491 . S
O745 C742 1.355 . S
O746 Dy740 2.403 . S
O746 C748 1.254 . S
O747 Dy740 2.664 . S
O747 Dy743 2.310 . S
O747 C748 1.268 . S
C748 O746 1.254 . S
C748 O747 1.268 . S
C749 O754 1.254 . S
C749 O755 1.268 . S
O750 Dy743 2.351 . S
O750 C758 1.249 . S
O751 Dy740 2.326 . S
O751 C758 1.267 . S
O752 C741 1.185 . S
O752 Dy743 2.398 . S
O753 C741 1.355 . S
O753 Dy743 2.491 . S
O754 Dy743 2.403 . S
O754 C749 1.254 . S
O755 Dy740 2.310 . S
O755 Dy743 2.664 . S
O755 C749 1.268 . S
O756 Dy740 2.351 . S
O756 C759 1.249 . S
O757 Dy743 2.326 . S
O757 C759 1.267 . S
C758 O750 1.249 . S
C758 O751 1.267 . S
C759 O756 1.249 . S
C759 O757 1.267 . S
Dy760 O764 2.398 . S
Dy760 O765 2.491 . S
Dy760 O766 2.403 . S
Dy760 O767 2.664 . S
Dy760 O771 2.326 . S
Dy760 O775 2.310 . S
Dy760 O776 2.351 . S
C761 O772 1.185 . S
C761 O773 1.355 . S
C762 O764 1.185 . S
C762 O765 1.355 . S
Dy763 O767 2.310 . S
Dy763 O770 2.351 . S
Dy763 O772 2.398 . S
Dy763 O773 2.491 . S
Dy763 O774 2.403 . S
Dy763 O775 2.664 . S
Dy763 O777 2.326 . S
O764 Dy760 2.398 . S
O764 C762 1.185 . S
O765 Dy760 2.491 . S
O765 C762 1.355 . S
O766 Dy760 2.403 . S
O766 C768 1.254 . S
O767 Dy760 2.664 . S
O767 Dy763 2.310 . S
O767 C768 1.268 . S
C768 O766 1.254 . S
C768 O767 1.268 . S
C769 O774 1.254 . S
C769 O775 1.268 . S
O770 Dy763 2.351 . S
O770 C778 1.249 . S
O771 Dy760 2.326 . S
O771 C778 1.267 . S
O772 C761 1.185 . S
O772 Dy763 2.398 . S
O773 C761 1.355 . S
O773 Dy763 2.491 . S
O774 Dy763 2.403 . S
O774 C769 1.254 . S
O775 Dy760 2.310 . S
O775 Dy763 2.664 . S
O775 C769 1.268 . S
O776 Dy760 2.351 . S
O776 C779 1.249 . S
O777 Dy763 2.326 . S
O777 C779 1.267 . S
C778 O770 1.249 . S
C778 O771 1.267 . S
C779 O776 1.249 . S
C779 O777 1.267 . S
Dy780 O784 2.398 . S
Dy780 O785 2.491 . S
Dy780 O786 2.403 . S
Dy780 O787 2.664 . S
Dy780 O791 2.326 . S
Dy780 O795 2.310 . S
Dy780 O796 2.351 . S
C781 O792 1.185 . S
C781 O793 1.355 . S
C782 O784 1.185 . S
C782 O785 1.355 . S
Dy783 O787 2.310 . S
Dy783 O790 2.351 . S
Dy783 O792 2.398 . S
Dy783 O793 2.491 . S
Dy783 O794 2.403 . S
Dy783 O795 2.664 . S
Dy783 O797 2.326 . S
O784 Dy780 2.398 . S
O784 C782 1.185 . S
O785 Dy780 2.491 . S
O785 C782 1.355 . S
O786 Dy780 2.403 . S
O786 C788 1.254 . S
O787 Dy780 2.664 . S
O787 Dy783 2.310 . S
O787 C788 1.268 . S
C788 O786 1.254 . S
C788 O787 1.268 . S
C789 O794 1.254 . S
C789 O795 1.268 . S
O790 Dy783 2.351 . S
O790 C798 1.249 . S
O791 Dy780 2.326 . S
O791 C798 1.267 . S
O792 C781 1.185 . S
O792 Dy783 2.398 . S
O793 C781 1.355 . S
O793 Dy783 2.491 . S
O794 Dy783 2.403 . S
O794 C789 1.254 . S
O795 Dy780 2.310 . S
O795 Dy783 2.664 . S
O795 C789 1.268 . S
O796 Dy780 2.351 . S
O796 C799 1.249 . S
O797 Dy783 2.326 . S
O797 C799 1.267 . S
C798 O790 1.249 . S
C798 O791 1.267 . S
C799 O796 1.249 . S
C799 O797 1.267 . S
Dy800 O804 2.398 1_455 S
Dy800 O805 2.491 1_455 S
Dy800 O806 2.403 1_455 S
Dy800 O807 2.664 . S
Dy800 O811 2.326 1_455 S
Dy800 O815 2.310 . S
Dy800 O816 2.351 . S
C801 O812 1.185 . S
C801 O813 1.355 . S
C802 O804 1.185 . S
C802 O805 1.355 . S
Dy803 O807 2.310 . S
Dy803 O810 2.351 . S
Dy803 O812 2.398 . S
Dy803 O813 2.491 . S
Dy803 O814 2.403 . S
Dy803 O815 2.664 . S
Dy803 O817 2.326 . S
O804 Dy800 2.398 1_655 S
O804 C802 1.185 . S
O805 Dy800 2.491 1_655 S
O805 C802 1.355 . S
O806 Dy800 2.403 1_655 S
O806 C808 1.254 1_655 S
O807 Dy800 2.664 . S
O807 Dy803 2.310 . S
O807 C808 1.268 . S
C808 O806 1.254 1_455 S
C808 O807 1.268 . S
C809 O814 1.254 . S
C809 O815 1.268 . S
O810 Dy803 2.351 . S
O810 C818 1.249 . S
O811 Dy800 2.326 1_655 S
O811 C818 1.267 1_655 S
O812 C801 1.185 . S
O812 Dy803 2.398 . S
O813 C801 1.355 . S
O813 Dy803 2.491 . S
O814 Dy803 2.403 . S
O814 C809 1.254 . S
O815 Dy800 2.310 . S
O815 Dy803 2.664 . S
O815 C809 1.268 . S
O816 Dy800 2.351 . S
O816 C819 1.249 . S
O817 Dy803 2.326 . S
O817 C819 1.267 . S
C818 O810 1.249 . S
C818 O811 1.267 1_455 S
C819 O816 1.249 . S
C819 O817 1.267 . S
Dy820 O824 2.398 . S
Dy820 O825 2.491 . S
Dy820 O826 2.403 . S
Dy820 O827 2.664 . S
Dy820 O831 2.326 . S
Dy820 O835 2.310 . S
Dy820 O836 2.351 . S
C821 O832 1.185 . S
C821 O833 1.355 . S
C822 O824 1.185 . S
C822 O825 1.355 . S
Dy823 O827 2.310 . S
Dy823 O830 2.351 . S
Dy823 O832 2.398 . S
Dy823 O833 2.491 . S
Dy823 O834 2.403 . S
Dy823 O835 2.664 . S
Dy823 O837 2.326 . S
O824 Dy820 2.398 . S
O824 C822 1.185 . S
O825 Dy820 2.491 . S
O825 C822 1.355 . S
O826 Dy820 2.403 . S
O826 C828 1.254 . S
O827 Dy820 2.664 . S
O827 Dy823 2.310 . S
O827 C828 1.268 . S
C828 O826 1.254 . S
C828 O827 1.268 . S
C829 O834 1.254 . S
C829 O835 1.268 . S
O830 Dy823 2.351 . S
O830 C838 1.249 . S
O831 Dy820 2.326 . S
O831 C838 1.267 . S
O832 C821 1.185 . S
O832 Dy823 2.398 . S
O833 C821 1.355 . S
O833 Dy823 2.491 . S
O834 Dy823 2.403 . S
O834 C829 1.254 . S
O835 Dy820 2.310 . S
O835 Dy823 2.664 . S
O835 C829 1.268 . S
O836 Dy820 2.351 . S
O836 C839 1.249 . S
O837 Dy823 2.326 . S
O837 C839 1.267 . S
C838 O830 1.249 . S
C838 O831 1.267 . S
C839 O836 1.249 . S
C839 O837 1.267 . S
Dy840 O844 2.398 . S
Dy840 O845 2.491 . S
Dy840 O846 2.387 1_554 S
Dy840 O847 2.664 1_554 S
Dy840 O851 2.326 . S
Dy840 O855 2.310 . S
Dy840 O856 2.351 . S
C841 O852 1.185 . S
C841 O853 1.355 . S
C842 O844 1.185 . S
C842 O845 1.355 . S
Dy843 O847 2.310 . S
Dy843 O850 2.351 . S
Dy843 O852 2.398 . S
Dy843 O853 2.491 . S
Dy843 O854 2.403 1_556 S
Dy843 O855 2.664 1_556 S
Dy843 O857 2.326 1_556 S
O844 Dy840 2.398 . S
O844 C842 1.185 . S
O845 Dy840 2.491 . S
O845 C842 1.355 . S
O846 Dy840 2.387 1_556 S
O846 C848 1.271 . S
O847 Dy840 2.664 1_556 S
O847 Dy843 2.310 . S
O847 C848 1.268 . S
C848 O846 1.271 . S
C848 O847 1.268 . S
C849 O854 1.254 . S
C849 O855 1.268 . S
O850 Dy843 2.351 . S
O850 C858 1.249 . S
O851 Dy840 2.326 . S
O851 C858 1.267 1_554 S
O852 C841 1.185 . S
O852 Dy843 2.398 . S
O853 C841 1.355 . S
O853 Dy843 2.491 . S
O854 Dy843 2.403 1_554 S
O854 C849 1.254 . S
O855 Dy840 2.310 . S
O855 Dy843 2.664 1_554 S
O855 C849 1.268 . S
O856 Dy840 2.351 . S
O856 C859 1.249 . S
O857 Dy843 2.326 1_554 S
O857 C859 1.267 . S
C858 O850 1.249 . S
C858 O851 1.267 1_556 S
C859 O856 1.249 . S
C859 O857 1.267 . S
Dy860 O864 2.398 . S
Dy860 O865 2.491 . S
Dy860 O866 2.403 . S
Dy860 O867 2.664 . S
Dy860 O871 2.326 . S
Dy860 O875 2.310 . S
Dy860 O876 2.351 . S
C861 O872 1.185 . S
C861 O873 1.355 . S
C862 O864 1.185 . S
C862 O865 1.355 . S
Dy863 O867 2.310 . S
Dy863 O870 2.351 . S
Dy863 O872 2.398 . S
Dy863 O873 2.491 . S
Dy863 O874 2.403 . S
Dy863 O875 2.664 . S
Dy863 O877 2.326 . S
O864 Dy860 2.398 . S
O864 C862 1.185 . S
O865 Dy860 2.491 . S
O865 C862 1.355 . S
O866 Dy860 2.403 . S
O866 C868 1.254 . S
O867 Dy860 2.664 . S
O867 Dy863 2.310 . S
O867 C868 1.268 . S
C868 O866 1.254 . S
C868 O867 1.268 . S
C869 O874 1.254 . S
C869 O875 1.268 . S
O870 Dy863 2.351 . S
O870 C878 1.249 . S
O871 Dy860 2.326 . S
O871 C878 1.267 . S
O872 C861 1.185 . S
O872 Dy863 2.398 . S
O873 C861 1.355 . S
O873 Dy863 2.491 . S
O874 Dy863 2.403 . S
O874 C869 1.254 . S
O875 Dy860 2.310 . S
O875 Dy863 2.664 . S
O875 C869 1.268 . S
O876 Dy860 2.351 . S
O876 C879 1.249 . S
O877 Dy863 2.326 . S
O877 C879 1.267 . S
C878 O870 1.249 . S
C878 O871 1.267 . S
C879 O876 1.249 . S
C879 O877 1.267 . S
Dy880 O884 2.398 . S
Dy880 O885 2.491 . S
Dy880 O886 2.403 . S
Dy880 O887 2.664 . S
Dy880 O891 2.326 . S
Dy880 O895 2.310 . S
Dy880 O896 2.351 . S
C881 O892 1.185 . S
C881 O893 1.355 . S
C882 O884 1.185 . S
C882 O885 1.355 . S
Dy883 O887 2.310 . S
Dy883 O890 2.351 . S
Dy883 O892 2.398 . S
Dy883 O893 2.491 . S
Dy883 O894 2.403 . S
Dy883 O895 2.664 . S
Dy883 O897 2.326 . S
O884 Dy880 2.398 . S
O884 C882 1.185 . S
O885 Dy880 2.491 . S
O885 C882 1.355 . S
O886 Dy880 2.403 . S
O886 C888 1.254 . S
O887 Dy880 2.664 . S
O887 Dy883 2.310 . S
O887 C888 1.268 . S
C888 O886 1.254 . S
C888 O887 1.268 . S
C889 O894 1.254 . S
C889 O895 1.268 . S
O890 Dy883 2.351 . S
O890 C898 1.249 . S
O891 Dy880 2.326 . S
O891 C898 1.267 . S
O892 C881 1.185 . S
O892 Dy883 2.398 . S
O893 C881 1.355 . S
O893 Dy883 2.491 . S
O894 Dy883 2.403 . S
O894 C889 1.254 . S
O895 Dy880 2.310 . S
O895 Dy883 2.664 . S
O895 C889 1.268 . S
O896 Dy880 2.351 . S
O896 C899 1.249 . S
O897 Dy883 2.326 . S
O897 C899 1.267 . S
C898 O890 1.249 . S
C898 O891 1.267 . S
C899 O896 1.249 . S
C899 O897 1.267 . S
Dy900 O904 2.398 . S
Dy900 O905 2.491 . S
Dy900 O906 2.403 . S
Dy900 O907 2.664 . S
Dy900 O911 2.326 . S
Dy900 O915 2.310 . S
Dy900 O916 2.351 . S
C901 O912 1.185 . S
C901 O913 1.355 . S
C902 O904 1.185 . S
C902 O905 1.355 . S
Dy903 O907 2.310 . S
Dy903 O910 2.351 . S
Dy903 O912 2.398 . S
Dy903 O913 2.491 . S
Dy903 O914 2.403 . S
Dy903 O915 2.664 . S
Dy903 O917 2.326 . S
O904 Dy900 2.398 . S
O904 C902 1.185 . S
O905 Dy900 2.491 . S
O905 C902 1.355 . S
O906 Dy900 2.403 . S
O906 C908 1.254 . S
O907 Dy900 2.664 . S
O907 Dy903 2.310 . S
O907 C908 1.268 . S
C908 O906 1.254 . S
C908 O907 1.268 . S
C909 O914 1.254 . S
C909 O915 1.268 . S
O910 Dy903 2.351 . S
O910 C918 1.249 . S
O911 Dy900 2.326 . S
O911 C918 1.267 . S
O912 C901 1.185 . S
O912 Dy903 2.398 . S
O913 C901 1.355 . S
O913 Dy903 2.491 . S
O914 Dy903 2.403 . S
O914 C909 1.254 . S
O915 Dy900 2.310 . S
O915 Dy903 2.664 . S
O915 C909 1.268 . S
O916 Dy900 2.351 . S
O916 C919 1.249 . S
O917 Dy903 2.326 . S
O917 C919 1.267 . S
C918 O910 1.249 . S
C918 O911 1.267 . S
C919 O916 1.249 . S
C919 O917 1.267 . S
Dy920 O924 2.398 . S
Dy920 O925 2.491 . S
Dy920 O926 2.403 . S
Dy920 O927 2.664 . S
Dy920 O931 2.326 . S
Dy920 O935 2.310 . S
Dy920 O936 2.351 . S
C921 O932 1.185 . S
C921 O933 1.355 . S
C922 O924 1.185 . S
C922 O925 1.355 . S
Dy923 O927 2.310 . S
Dy923 O930 2.351 . S
Dy923 O932 2.398 . S
Dy923 O933 2.491 . S
Dy923 O934 2.403 . S
Dy923 O935 2.664 . S
Dy923 O937 2.326 . S
O924 Dy920 2.398 . S
O924 C922 1.185 . S
O925 Dy920 2.491 . S
O925 C922 1.355 . S
O926 Dy920 2.403 . S
O926 C928 1.254 . S
O927 Dy920 2.664 . S
O927 Dy923 2.310 . S
O927 C928 1.268 . S
C928 O926 1.254 . S
C928 O927 1.268 . S
C929 O934 1.254 . S
C929 O935 1.268 . S
O930 Dy923 2.351 . S
O930 C938 1.249 . S
O931 Dy920 2.326 . S
O931 C938 1.267 . S
O932 C921 1.185 . S
O932 Dy923 2.398 . S
O933 C921 1.355 . S
O933 Dy923 2.491 . S
O934 Dy923 2.403 . S
O934 C929 1.254 . S
O935 Dy920 2.310 . S
O935 Dy923 2.664 . S
O935 C929 1.268 . S
O936 Dy920 2.351 . S
O936 C939 1.249 . S
O937 Dy923 2.326 . S
O937 C939 1.267 . S
C938 O930 1.249 . S
C938 O931 1.267 . S
C939 O936 1.249 . S
C939 O937 1.267 . S
Dy940 O944 2.398 . S
Dy940 O945 2.491 . S
Dy940 O946 2.403 . S
Dy940 O947 2.664 . S
Dy940 O951 2.326 . S
Dy940 O955 2.310 . S
Dy940 O956 2.351 . S
C941 O952 1.185 . S
C941 O953 1.355 . S
C942 O944 1.185 . S
C942 O945 1.355 . S
Dy943 O947 2.310 . S
Dy943 O950 2.351 . S
Dy943 O952 2.398 . S
Dy943 O953 2.491 . S
Dy943 O954 2.403 . S
Dy943 O955 2.664 . S
Dy943 O957 2.326 . S
O944 Dy940 2.398 . S
O944 C942 1.185 . S
O945 Dy940 2.491 . S
O945 C942 1.355 . S
O946 Dy940 2.403 . S
O946 C948 1.254 . S
O947 Dy940 2.664 . S
O947 Dy943 2.310 . S
O947 C948 1.268 . S
C948 O946 1.254 . S
C948 O947 1.268 . S
C949 O954 1.254 . S
C949 O955 1.268 . S
O950 Dy943 2.351 . S
O950 C958 1.249 . S
O951 Dy940 2.326 . S
O951 C958 1.267 . S
O952 C941 1.185 . S
O952 Dy943 2.398 . S
O953 C941 1.355 . S
O953 Dy943 2.491 . S
O954 Dy943 2.403 . S
O954 C949 1.254 . S
O955 Dy940 2.310 . S
O955 Dy943 2.664 . S
O955 C949 1.268 . S
O956 Dy940 2.351 . S
O956 C959 1.249 . S
O957 Dy943 2.326 . S
O957 C959 1.267 . S
C958 O950 1.249 . S
C958 O951 1.267 . S
C959 O956 1.249 . S
C959 O957 1.267 . S
C960 C961 1.387 1_455 S
C960 H964 0.950 . S
C960 C969 1.390 . S
C961 C960 1.387 1_655 S
C961 C963 1.387 . S
H962 C969 0.950 . S
C963 C961 1.387 . S
C963 C965 1.390 . S
C963 H967 0.950 . S
H964 C960 0.950 . S
C965 C963 1.390 . S
C965 C966 1.387 . S
C965 H968 0.950 . S
C966 C965 1.387 . S
C966 C969 1.387 1_655 S
H967 C963 0.950 . S
H968 C965 0.950 . S
C969 C960 1.390 . S
C969 H962 0.950 . S
C969 C966 1.387 1_455 S
C970 C971 1.387 . S
C970 H974 0.950 . S
C970 C979 1.390 . S
C971 C970 1.387 . S
C971 C973 1.387 . S
H972 C979 0.950 . S
C973 C971 1.387 . S
C973 C975 1.390 . S
C973 H977 0.950 . S
H974 C970 0.950 . S
C975 C973 1.390 . S
C975 C976 1.387 . S
C975 H978 0.950 . S
C976 C975 1.387 . S
C976 C979 1.387 . S
H977 C973 0.950 . S
H978 C975 0.950 . S
C979 C970 1.390 . S
C979 H972 0.950 . S
C979 C976 1.387 . S
C980 C981 1.387 . S
C980 H984 0.950 . S
C980 C989 1.390 . S
C981 C980 1.387 . S
C981 C983 1.387 . S
H982 C989 0.950 . S
C983 C981 1.387 . S
C983 C985 1.390 . S
C983 H987 0.950 . S
H984 C980 0.950 . S
C985 C983 1.390 . S
C985 C986 1.387 . S
C985 H988 0.950 . S
C986 C985 1.387 . S
C986 C989 1.387 . S
H987 C983 0.950 . S
H988 C985 0.950 . S
C989 C980 1.390 . S
C989 H982 0.950 . S
C989 C986 1.387 . S
C990 C991 1.387 . S
C990 H994 0.950 . S
C990 C999 1.390 . S
C991 C990 1.387 . S
C991 C993 1.387 . S
H992 C999 0.950 . S
C993 C991 1.387 . S
C993 C995 1.390 . S
C993 H997 0.950 . S
H994 C990 0.950 . S
C995 C993 1.390 . S
C995 C996 1.387 . S
C995 H998 0.962 . S
C996 C995 1.387 . S
C996 C999 1.387 . S
H997 C993 0.950 . S
H998 C995 0.962 . S
C999 C990 1.390 . S
C999 H992 0.950 . S
C999 C996 1.387 . S
C1000 C1001 1.387 . S
C1000 H1004 0.950 . S
C1000 C1009 1.390 . S
C1001 C1000 1.387 . S
C1001 C1003 1.387 1_545 S
H1002 C1009 0.950 . S
C1003 C1001 1.387 1_565 S
C1003 C1005 1.390 . S
C1003 H1007 0.950 . S
H1004 C1000 0.950 . S
C1005 C1003 1.390 . S
C1005 C1006 1.387 1_565 S
C1005 H1008 0.950 . S
C1006 C1005 1.387 1_545 S
C1006 C1009 1.387 . S
H1007 C1003 0.950 . S
H1008 C1005 0.950 . S
C1009 C1000 1.390 . S
C1009 H1002 0.950 . S
C1009 C1006 1.387 . S
C1010 C1011 1.387 . S
C1010 H1014 0.950 1_545 S
C1010 C1019 1.390 . S
C1011 C1010 1.387 . S
C1011 C1013 1.387 . S
H1012 C1019 0.950 1_565 S
C1013 C1011 1.387 . S
C1013 C1015 1.390 . S
C1013 H1017 0.950 . S
H1014 C1010 0.950 1_565 S
C1015 C1013 1.390 . S
C1015 C1016 1.387 . S
C1015 H1018 0.950 . S
C1016 C1015 1.387 . S
C1016 C1019 1.387 . S
H1017 C1013 0.950 . S
H1018 C1015 0.950 . S
C1019 C1010 1.390 . S
C1019 H1012 0.950 1_545 S
C1019 C1016 1.387 . S
C1020 C1021 1.387 . S
C1020 H1024 0.950 . S
C1020 C1029 1.390 1_554 S
C1021 C1020 1.387 . S
C1021 C1023 1.387 1_544 S
H1022 C1029 0.950 . S
C1023 C1021 1.387 1_566 S
C1023 C1025 1.390 . S
C1023 H1027 0.950 1_556 S
H1024 C1020 0.950 . S
C1025 C1023 1.390 . S
C1025 C1026 1.387 1_565 S
C1025 H1028 0.950 . S
C1026 C1025 1.387 1_545 S
C1026 C1029 1.387 . S
H1027 C1023 0.950 1_554 S
H1028 C1025 0.950 . S
C1029 C1020 1.390 1_556 S
C1029 H1022 0.950 . S
C1029 C1026 1.387 . S
C1030 C1031 1.387 . S
C1030 H1034 0.950 . S
C1030 C1039 1.390 . S
C1031 C1030 1.387 . S
C1031 C1033 1.387 1_545 S
H1032 C1039 0.950 . S
C1033 C1031 1.387 1_565 S
C1033 C1035 1.390 . S
C1033 H1037 0.950 . S
H1034 C1030 0.950 . S
C1035 C1033 1.390 . S
C1035 C1036 1.387 1_565 S
C1035 H1038 0.950 . S
C1036 C1035 1.387 1_545 S
C1036 C1039 1.387 . S
H1037 C1033 0.950 . S
H1038 C1035 0.950 . S
C1039 C1030 1.390 . S
C1039 H1032 0.950 . S
C1039 C1036 1.387 . S
C1040 C1041 1.387 . S
C1040 H1044 0.950 . S
C1040 C1049 1.390 . S
C1041 C1040 1.387 . S
C1041 C1043 1.387 . S
H1042 C1049 0.950 . S
C1043 C1041 1.387 . S
C1043 C1045 1.390 . S
C1043 H1047 0.950 1_554 S
H1044 C1040 0.950 . S
C1045 C1043 1.390 . S
C1045 C1046 1.387 . S
C1045 H1048 0.950 . S
C1046 C1045 1.387 . S
C1046 C1049 1.387 . S
H1047 C1043 0.950 1_556 S
H1048 C1045 0.950 . S
C1049 C1040 1.390 . S
C1049 H1042 0.950 . S
C1049 C1046 1.387 . S
C1050 C1051 1.387 . S
C1050 H1054 0.950 . S
C1050 C1059 1.390 . S
C1051 C1050 1.387 . S
C1051 C1053 1.387 1_554 S
H1052 C1059 0.950 1_455 S
C1053 C1051 1.387 1_556 S
C1053 C1055 1.390 . S
C1053 H1057 0.950 . S
H1054 C1050 0.950 . S
C1055 C1053 1.390 . S
C1055 C1056 1.387 1_656 S
C1055 H1058 0.950 1_655 S
C1056 C1055 1.387 1_454 S
C1056 C1059 1.387 1_455 S
H1057 C1053 0.950 . S
H1058 C1055 0.950 1_455 S
C1059 C1050 1.390 . S
C1059 H1052 0.950 1_655 S
C1059 C1056 1.387 1_655 S
C1060 C1061 1.387 . S
C1060 H1064 0.950 . S
C1060 C1069 1.390 1_655 S
C1061 C1060 1.387 . S
C1061 C1063 1.387 . S
H1062 C1069 0.950 . S
C1063 C1061 1.387 . S
C1063 C1065 1.390 1_655 S
C1063 H1067 0.950 . S
H1064 C1060 0.950 . S
C1065 C1063 1.390 1_455 S
C1065 C1066 1.387 . S
C1065 H1068 0.950 . S
C1066 C1065 1.387 . S
C1066 C1069 1.387 . S
H1067 C1063 0.950 . S
H1068 C1065 0.950 . S
C1069 C1060 1.390 1_455 S
C1069 H1062 0.950 . S
C1069 C1066 1.387 . S
C1070 C1071 1.387 . S
C1070 H1074 0.950 . S
C1070 C1079 1.390 . S
C1071 C1070 1.387 . S
C1071 C1073 1.387 . S
H1072 C1079 0.950 . S
C1073 C1071 1.387 . S
C1073 C1075 1.390 . S
C1073 H1077 0.950 . S
H1074 C1070 0.950 . S
C1075 C1073 1.390 . S
C1075 C1076 1.387 . S
C1075 H1078 0.950 . S
C1076 C1075 1.387 . S
C1076 C1079 1.387 . S
H1077 C1073 0.950 . S
H1078 C1075 0.950 . S
C1079 C1070 1.390 . S
C1079 H1072 0.950 . S
C1079 C1076 1.387 . S
C1080 C1081 1.387 . S
C1080 H1084 0.950 . S
C1080 C1089 1.390 1_655 S
C1081 C1080 1.387 . S
C1081 C1083 1.387 . S
H1082 C1089 0.950 . S
C1083 C1081 1.387 . S
C1083 C1085 1.390 1_655 S
C1083 H1087 0.950 . S
H1084 C1080 0.950 . S
C1085 C1083 1.390 1_455 S
C1085 C1086 1.387 . S
C1085 H1088 0.950 . S
C1086 C1085 1.387 . S
C1086 C1089 1.387 . S
H1087 C1083 0.950 . S
H1088 C1085 0.950 . S
C1089 C1080 1.390 1_455 S
C1089 H1082 0.950 . S
C1089 C1086 1.387 . S
C1090 C1091 1.387 . S
C1090 H1094 0.950 . S
C1090 C1099 1.390 . S
C1091 C1090 1.387 . S
C1091 C1093 1.387 . S
H1092 C1099 0.950 . S
C1093 C1091 1.387 . S
C1093 C1095 1.390 . S
C1093 H1097 0.950 . S
H1094 C1090 0.950 . S
C1095 C1093 1.390 . S
C1095 C1096 1.387 . S
C1095 H1098 0.950 . S
C1096 C1095 1.387 . S
C1096 C1099 1.387 . S
H1097 C1093 0.950 . S
H1098 C1095 0.950 . S
C1099 C1090 1.390 . S
C1099 H1092 0.950 . S
C1099 C1096 1.387 . S
C1100 C1101 1.387 . S
C1100 H1104 0.950 . S
C1100 C1109 1.390 . S
C1101 C1100 1.387 . S
C1101 C1103 1.387 . S
H1102 C1109 0.950 . S
C1103 C1101 1.387 . S
C1103 C1105 1.390 . S
C1103 H1107 0.950 . S
H1104 C1100 0.950 . S
C1105 C1103 1.390 . S
C1105 C1106 1.387 . S
C1105 H1108 0.950 . S
C1106 C1105 1.387 . S
C1106 C1109 1.387 . S
H1107 C1103 0.950 . S
H1108 C1105 0.950 . S
C1109 C1100 1.390 . S
C1109 H1102 0.950 . S
C1109 C1106 1.387 . S
C1110 C1111 1.387 1_655 S
C1110 H1114 0.950 . S
C1110 C1119 1.390 . S
C1111 C1110 1.387 1_455 S
C1111 C1113 1.387 . S
H1112 C1119 0.950 . S
C1113 C1111 1.387 . S
C1113 C1115 1.390 . S
C1113 H1117 0.950 . S
H1114 C1110 0.950 . S
C1115 C1113 1.390 . S
C1115 C1116 1.387 . S
C1115 H1118 0.950 . S
C1116 C1115 1.387 . S
C1116 C1119 1.387 1_455 S
H1117 C1113 0.950 . S
H1118 C1115 0.950 . S
C1119 C1110 1.390 . S
C1119 H1112 0.950 . S
C1119 C1116 1.387 1_655 S
C1120 C1121 1.387 . S
C1120 H1124 0.950 . S
C1120 C1129 1.390 . S
C1121 C1120 1.387 . S
C1121 C1123 1.387 . S
H1122 C1129 0.950 . S
C1123 C1121 1.387 . S
C1123 C1125 1.390 . S
C1123 H1127 0.950 . S
H1124 C1120 0.950 . S
C1125 C1123 1.390 . S
C1125 C1126 1.387 . S
C1125 H1128 0.950 . S
C1126 C1125 1.387 . S
C1126 C1129 1.387 . S
H1127 C1123 0.950 . S
H1128 C1125 0.950 . S
C1129 C1120 1.390 . S
C1129 H1122 0.950 . S
C1129 C1126 1.387 . S
C1130 C1131 1.387 . S
C1130 H1134 0.950 . S
C1130 C1139 1.390 . S
C1131 C1130 1.387 . S
C1131 C1133 1.387 . S
H1132 C1139 0.950 . S
C1133 C1131 1.387 . S
C1133 C1135 1.390 . S
C1133 H1137 0.950 . S
H1134 C1130 0.950 . S
C1135 C1133 1.390 . S
C1135 C1136 1.387 . S
C1135 H1138 0.950 . S
C1136 C1135 1.387 . S
C1136 C1139 1.387 . S
H1137 C1133 0.950 . S
H1138 C1135 0.950 . S
C1139 C1130 1.390 . S
C1139 H1132 0.950 . S
C1139 C1136 1.387 . S
C1140 C1141 1.387 . S
C1140 H1144 0.950 . S
C1140 C1149 1.390 . S
C1141 C1140 1.387 . S
C1141 C1143 1.387 . S
H1142 C1149 0.950 . S
C1143 C1141 1.387 . S
C1143 C1145 1.390 . S
C1143 H1147 0.950 . S
H1144 C1140 0.950 . S
C1145 C1143 1.390 . S
C1145 C1146 1.387 . S
C1145 H1148 0.950 . S
C1146 C1145 1.387 . S
C1146 C1149 1.387 . S
H1147 C1143 0.950 . S
H1148 C1145 0.950 . S
C1149 C1140 1.390 . S
C1149 H1142 0.950 . S
C1149 C1146 1.387 . S
C1150 C1151 1.387 . S
C1150 H1154 0.950 . S
C1150 C1159 1.390 . S
C1151 C1150 1.387 . S
C1151 C1153 1.387 1_565 S
H1152 C1159 0.950 . S
C1153 C1151 1.387 1_545 S
C1153 C1155 1.390 . S
C1153 H1157 0.950 . S
H1154 C1150 0.950 . S
C1155 C1153 1.390 . S
C1155 C1156 1.387 1_545 S
C1155 H1158 0.950 . S
C1156 C1155 1.387 1_565 S
C1156 C1159 1.387 . S
H1157 C1153 0.950 . S
H1158 C1155 0.950 . S
C1159 C1150 1.390 . S
C1159 H1152 0.950 . S
C1159 C1156 1.387 . S
C1160 C1161 1.387 . S
C1160 H1164 0.950 1_565 S
C1160 C1169 1.390 . S
C1161 C1160 1.387 . S
C1161 C1163 1.387 . S
H1162 C1169 0.950 1_545 S
C1163 C1161 1.387 . S
C1163 C1165 1.390 . S
C1163 H1167 0.950 . S
H1164 C1160 0.950 1_545 S
C1165 C1163 1.390 . S
C1165 C1166 1.387 . S
C1165 H1168 0.950 . S
C1166 C1165 1.387 . S
C1166 C1169 1.387 . S
H1167 C1163 0.950 . S
H1168 C1165 0.950 . S
C1169 C1160 1.390 . S
C1169 H1162 0.950 1_565 S
C1169 C1166 1.387 . S
C1170 C1171 1.387 . S
C1170 H1174 0.950 . S
C1170 C1179 1.390 1_556 S
C1171 C1170 1.387 . S
C1171 C1173 1.387 1_565 S
H1172 C1179 0.950 . S
C1173 C1171 1.387 1_545 S
C1173 C1175 1.390 1_556 S
C1173 H1177 0.950 . S
H1174 C1170 0.950 . S
C1175 C1173 1.390 1_554 S
C1175 C1176 1.387 1_545 S
C1175 H1178 0.950 . S
C1176 C1175 1.387 1_565 S
C1176 C1179 1.387 . S
H1177 C1173 0.950 . S
H1178 C1175 0.950 . S
C1179 C1170 1.390 1_554 S
C1179 H1172 0.950 . S
C1179 C1176 1.387 . S
C1180 C1181 1.387 . S
C1180 H1184 0.950 . S
C1180 C1189 1.390 . S
C1181 C1180 1.387 . S
C1181 C1183 1.387 1_565 S
H1182 C1189 0.950 . S
C1183 C1181 1.387 1_545 S
C1183 C1185 1.390 . S
C1183 H1187 0.950 . S
H1184 C1180 0.950 . S
C1185 C1183 1.390 . S
C1185 C1186 1.387 1_545 S
C1185 H1188 0.950 . S
C1186 C1185 1.387 1_565 S
C1186 C1189 1.387 . S
H1187 C1183 0.950 . S
H1188 C1185 0.950 . S
C1189 C1180 1.390 . S
C1189 H1182 0.950 . S
C1189 C1186 1.387 . S
C1190 C1191 1.387 . S
C1190 H1194 0.950 . S
C1190 C1199 1.390 . S
C1191 C1190 1.387 . S
C1191 C1193 1.387 1_556 S
H1192 C1199 0.950 . S
C1193 C1191 1.387 1_554 S
C1193 C1195 1.390 . S
C1193 H1197 0.950 . S
H1194 C1190 0.950 . S
C1195 C1193 1.390 . S
C1195 C1196 1.387 1_554 S
C1195 H1198 0.950 . S
C1196 C1195 1.387 1_556 S
C1196 C1199 1.387 . S
H1197 C1193 0.950 . S
H1198 C1195 0.950 . S
C1199 C1190 1.390 . S
C1199 H1192 0.950 . S
C1199 C1196 1.387 . S
C1200 C1201 1.387 1_454 S
C1200 H1204 0.950 1_455 S
C1200 C1209 1.390 . S
C1201 C1200 1.387 1_656 S
C1201 C1203 1.387 1_655 S
H1202 C1209 0.950 . S
C1203 C1201 1.387 1_455 S
C1203 C1205 1.390 . S
C1203 H1207 0.950 1_455 S
H1204 C1200 0.950 1_655 S
C1205 C1203 1.390 . S
C1205 C1206 1.387 . S
C1205 H1208 0.950 . S
C1206 C1205 1.387 . S
C1206 C1209 1.387 1_556 S
H1207 C1203 0.950 1_655 S
H1208 C1205 0.950 . S
C1209 C1200 1.390 . S
C1209 H1202 0.950 . S
C1209 C1206 1.387 1_554 S
C1210 C1211 1.387 . S
C1210 H1214 0.950 . S
C1210 C1219 1.390 1_655 S
C1211 C1210 1.387 . S
C1211 C1213 1.387 . S
H1212 C1219 0.950 . S
C1213 C1211 1.387 . S
C1213 C1215 1.390 1_655 S
C1213 H1217 0.950 . S
H1214 C1210 0.950 . S
C1215 C1213 1.390 1_455 S
C1215 C1216 1.387 . S
C1215 H1218 0.950 . S
C1216 C1215 1.387 . S
C1216 C1219 1.387 . S
H1217 C1213 0.950 . S
H1218 C1215 0.950 . S
C1219 C1210 1.390 1_455 S
C1219 H1212 0.950 . S
C1219 C1216 1.387 . S
C1220 C1221 1.387 . S
C1220 H1224 0.950 . S
C1220 C1229 1.390 . S
C1221 C1220 1.387 . S
C1221 C1223 1.387 . S
H1222 C1229 0.950 . S
C1223 C1221 1.387 . S
C1223 C1225 1.390 . S
C1223 H1227 0.950 . S
H1224 C1220 0.950 . S
C1225 C1223 1.390 . S
C1225 C1226 1.387 . S
C1225 H1228 0.950 . S
C1226 C1225 1.387 . S
C1226 C1229 1.387 . S
H1227 C1223 0.950 . S
H1228 C1225 0.950 . S
C1229 C1220 1.390 . S
C1229 H1222 0.950 . S
C1229 C1226 1.387 . S
C1230 C1231 1.387 . S
C1230 H1234 0.950 . S
C1230 C1239 1.390 1_655 S
C1231 C1230 1.387 . S
C1231 C1233 1.387 . S
H1232 C1239 0.950 . S
C1233 C1231 1.387 . S
C1233 C1235 1.390 1_655 S
C1233 H1237 0.950 . S
H1234 C1230 0.950 . S
C1235 C1233 1.390 1_455 S
C1235 C1236 1.387 . S
C1235 H1238 0.950 . S
C1236 C1235 1.387 . S
C1236 C1239 1.387 . S
H1237 C1233 0.950 . S
H1238 C1235 0.950 . S
C1239 C1230 1.390 1_455 S
C1239 H1232 0.950 . S
C1239 C1236 1.387 . S
C1240 C1241 1.387 . S
C1240 H1244 0.950 . S
C1240 C1249 1.390 . S
C1241 C1240 1.387 . S
C1241 C1243 1.387 . S
H1242 C1249 0.950 . S
C1243 C1241 1.387 . S
C1243 C1245 1.390 . S
C1243 H1247 0.950 . S
H1244 C1240 0.950 . S
C1245 C1243 1.390 . S
C1245 C1246 1.387 . S
C1245 H1248 0.950 . S
C1246 C1245 1.387 . S
C1246 C1249 1.387 . S
H1247 C1243 0.950 . S
H1248 C1245 0.950 . S
C1249 C1240 1.390 . S
C1249 H1242 0.950 . S
C1249 C1246 1.387 . S
C1250 C1251 1.387 . S
C1250 H1254 0.950 . S
C1250 C1259 1.390 . S
C1251 C1250 1.387 . S
C1251 C1253 1.387 . S
H1252 C1259 0.950 . S
C1253 C1251 1.387 . S
C1253 C1255 1.390 . S
C1253 H1257 0.950 . S
H1254 C1250 0.950 . S
C1255 C1253 1.390 . S
C1255 C1256 1.387 . S
C1255 H1258 0.950 . S
C1256 C1255 1.387 . S
C1256 C1259 1.387 . S
H1257 C1253 0.950 . S
H1258 C1255 0.950 . S
C1259 C1250 1.390 . S
C1259 H1252 0.950 . S
C1259 C1256 1.387 . S
C1260 C1261 1.387 . S
C1260 H1264 0.950 . S
C1260 C1269 1.390 1_545 S
C1261 C1260 1.387 . S
C1261 C1263 1.387 . S
H1262 C1269 0.950 . S
C1263 C1261 1.387 . S
C1263 C1265 1.390 1_545 S
C1263 H1267 0.950 . S
H1264 C1260 0.950 . S
C1265 C1263 1.390 1_565 S
C1265 C1266 1.387 . S
C1265 H1268 0.950 . S
C1266 C1265 1.387 . S
C1266 C1269 1.387 . S
H1267 C1263 0.950 . S
H1268 C1265 0.950 . S
C1269 C1260 1.390 1_565 S
C1269 H1262 0.950 . S
C1269 C1266 1.387 . S
C1270 C1271 1.387 . S
C1270 H1274 0.950 . S
C1270 C1279 1.390 . S
C1271 C1270 1.387 . S
C1271 C1273 1.387 . S
H1272 C1279 0.950 . S
C1273 C1271 1.387 . S
C1273 C1275 1.390 1_554 S
C1273 H1277 0.950 1_554 S
H1274 C1270 0.950 . S
C1275 C1273 1.390 1_556 S
C1275 C1276 1.387 1_556 S
C1275 H1278 0.950 . S
C1276 C1275 1.387 1_554 S
C1276 C1279 1.387 . S
H1277 C1273 0.950 1_556 S
H1278 C1275 0.950 . S
C1279 C1270 1.390 . S
C1279 H1272 0.950 . S
C1279 C1276 1.387 . S
C1280 C1281 1.387 1_565 S
C1280 H1284 0.950 1_565 S
C1280 C1289 1.390 . S
C1281 C1280 1.387 1_545 S
C1281 C1283 1.387 1_645 S
H1282 C1289 0.950 . S
C1283 C1281 1.387 1_465 S
C1283 C1285 1.390 . S
C1283 H1287 0.950 1_565 S
H1284 C1280 0.950 1_545 S
C1285 C1283 1.390 . S
C1285 C1286 1.387 1_455 S
C1285 H1288 0.950 . S
C1286 C1285 1.387 1_655 S
C1286 C1289 1.387 . S
H1287 C1283 0.950 1_545 S
H1288 C1285 0.950 . S
C1289 C1280 1.390 . S
C1289 H1282 0.950 . S
C1289 C1286 1.387 . S
C1290 C1291 1.387 . S
C1290 H1294 0.950 . S
C1290 C1299 1.390 . S
C1291 C1290 1.387 . S
C1291 C1293 1.387 . S
H1292 C1299 0.950 . S
C1293 C1291 1.387 . S
C1293 C1295 1.390 . S
C1293 H1297 0.950 . S
H1294 C1290 0.950 . S
C1295 C1293 1.390 . S
C1295 C1296 1.387 . S
C1295 H1298 0.950 . S
C1296 C1295 1.387 . S
C1296 C1299 1.387 . S
H1297 C1293 0.950 . S
H1298 C1295 0.950 . S
C1299 C1290 1.390 . S
C1299 H1292 0.950 . S
C1299 C1296 1.387 . S
C1300 C1301 1.387 . S
C1300 H1304 0.950 . S
C1300 C1309 1.361 1_556 S
C1301 C1300 1.387 . S
C1301 C1303 1.387 . S
H1302 C1309 0.965 . S
C1303 C1301 1.387 . S
C1303 C1305 1.390 . S
C1303 H1307 0.950 . S
H1304 C1300 0.950 . S
C1305 C1303 1.390 . S
C1305 C1306 1.387 1_556 S
C1305 H1308 0.950 1_556 S
C1306 C1305 1.387 1_554 S
C1306 C1309 1.402 . S
H1307 C1303 0.950 . S
H1308 C1305 0.950 1_554 S
C1309 C1300 1.361 1_554 S
C1309 H1302 0.965 . S
C1309 C1306 1.402 . S
C1310 C1311 1.387 . S
C1310 H1314 0.950 . S
C1310 C1319 1.390 . S
C1311 C1310 1.387 . S
C1311 C1313 1.387 . S
H1312 C1319 0.950 . S
C1313 C1311 1.387 . S
C1313 C1315 1.390 . S
C1313 H1317 0.950 . S
H1314 C1310 0.950 . S
C1315 C1313 1.390 . S
C1315 C1316 1.387 . S
C1315 H1318 0.950 . S
C1316 C1315 1.387 . S
C1316 C1319 1.387 . S
H1317 C1313 0.950 . S
H1318 C1315 0.950 . S
C1319 C1310 1.390 . S
C1319 H1312 0.950 . S
C1319 C1316 1.387 . S
C1320 C1321 1.387 . S
C1320 H1324 0.950 . S
C1320 C1329 1.390 . S
C1321 C1320 1.387 . S
C1321 C1323 1.387 . S
H1322 C1329 0.950 . S
C1323 C1321 1.387 . S
C1323 C1325 1.390 . S
C1323 H1327 0.950 . S
H1324 C1320 0.950 . S
C1325 C1323 1.390 . S
C1325 C1326 1.387 . S
C1325 H1328 0.950 . S
C1326 C1325 1.387 . S
C1326 C1329 1.387 . S
H1327 C1323 0.950 . S
H1328 C1325 0.950 . S
C1329 C1320 1.390 . S
C1329 H1322 0.950 . S
C1329 C1326 1.387 . S
C1330 C1331 1.387 . S
C1330 H1334 0.950 . S
C1330 C1339 1.390 . S
C1331 C1330 1.387 . S
C1331 C1333 1.387 . S
H1332 C1339 0.950 . S
C1333 C1331 1.387 . S
C1333 C1335 1.390 . S
C1333 H1337 0.950 . S
H1334 C1330 0.950 . S
C1335 C1333 1.390 . S
C1335 C1336 1.387 . S
C1335 H1338 0.950 . S
C1336 C1335 1.387 . S
C1336 C1339 1.387 . S
H1337 C1333 0.950 . S
H1338 C1335 0.950 . S
C1339 C1330 1.390 . S
C1339 H1332 0.950 . S
C1339 C1336 1.387 . S
C1340 C1341 1.387 . S
C1340 H1344 0.950 . S
C1340 C1349 1.390 . S
C1341 C1340 1.387 . S
C1341 C1343 1.387 . S
H1342 C1349 0.950 . S
C1343 C1341 1.387 . S
C1343 C1345 1.390 . S
C1343 H1347 0.950 . S
H1344 C1340 0.950 . S
C1345 C1343 1.390 . S
C1345 C1346 1.387 . S
C1345 H1348 0.950 . S
C1346 C1345 1.387 . S
C1346 C1349 1.387 . S
H1347 C1343 0.950 . S
H1348 C1345 0.950 . S
C1349 C1340 1.390 . S
C1349 H1342 0.950 . S
C1349 C1346 1.387 . S
C1350 C1351 1.387 . S
C1350 H1354 0.950 . S
C1350 C1359 1.390 1_565 S
C1351 C1350 1.387 . S
C1351 C1353 1.387 . S
H1352 C1359 0.950 . S
C1353 C1351 1.387 . S
C1353 C1355 1.390 1_565 S
C1353 H1357 0.950 . S
H1354 C1350 0.950 . S
C1355 C1353 1.390 1_545 S
C1355 C1356 1.387 . S
C1355 H1358 0.950 . S
C1356 C1355 1.387 . S
C1356 C1359 1.387 . S
H1357 C1353 0.950 . S
H1358 C1355 0.950 . S
C1359 C1350 1.390 1_545 S
C1359 H1352 0.950 . S
C1359 C1356 1.387 . S
C1360 C1361 1.387 . S
C1360 H1364 0.950 1_556 S
C1360 C1369 1.392 . S
C1361 C1360 1.387 . S
C1361 C1363 1.387 . S
H1362 C1369 0.943 1_554 S
C1363 C1361 1.387 . S
C1363 C1365 1.390 . S
C1363 H1367 0.950 . S
H1364 C1360 0.950 1_554 S
C1365 C1363 1.390 . S
C1365 C1366 1.387 . S
C1365 H1368 0.950 . S
C1366 C1365 1.387 . S
C1366 C1369 1.392 . S
H1367 C1363 0.950 . S
H1368 C1365 0.950 . S
C1369 C1360 1.392 . S
C1369 H1362 0.943 1_556 S
C1369 C1366 1.392 . S
C1370 C1371 1.387 . S
C1370 H1374 0.950 . S
C1370 C1379 1.390 . S
C1371 C1370 1.387 . S
C1371 C1373 1.387 1_455 S
H1372 C1379 0.950 1_565 S
C1373 C1371 1.387 1_655 S
C1373 C1375 1.390 . S
C1373 H1377 0.950 . S
H1374 C1370 0.950 . S
C1375 C1373 1.390 . S
C1375 C1376 1.387 1_645 S
C1375 H1378 0.948 1_545 S
C1376 C1375 1.387 1_465 S
C1376 C1379 1.387 1_565 S
H1377 C1373 0.950 . S
H1378 C1375 0.948 1_565 S
C1379 C1370 1.390 . S
C1379 H1372 0.950 1_545 S
C1379 C1376 1.387 1_545 S
C1380 C1381 1.387 . S
C1380 H1384 0.950 . S
C1380 C1389 1.390 . S
C1381 C1380 1.387 . S
C1381 C1383 1.387 . S
H1382 C1389 0.950 . S
C1383 C1381 1.387 . S
C1383 C1385 1.390 . S
C1383 H1387 0.950 . S
H1384 C1380 0.950 . S
C1385 C1383 1.390 . S
C1385 C1386 1.387 . S
C1385 H1388 0.950 . S
C1386 C1385 1.387 . S
C1386 C1389 1.387 . S
H1387 C1383 0.950 . S
H1388 C1385 0.950 . S
C1389 C1380 1.390 . S
C1389 H1382 0.950 . S
C1389 C1386 1.387 . S
C1390 C1391 1.387 . S
C1390 H1394 0.950 . S
C1390 C1399 1.390 . S
C1391 C1390 1.387 . S
C1391 C1393 1.387 . S
H1392 C1399 0.950 1_556 S
C1393 C1391 1.387 . S
C1393 C1395 1.360 1_554 S
C1393 H1397 0.950 . S
H1394 C1390 0.950 . S
C1395 C1393 1.360 1_556 S
C1395 C1396 1.402 . S
C1395 H1398 0.966 . S
C1396 C1395 1.402 . S
C1396 C1399 1.387 1_556 S
H1397 C1393 0.950 . S
H1398 C1395 0.966 . S
C1399 C1390 1.390 . S
C1399 H1392 0.950 1_554 S
C1399 C1396 1.387 1_554 S
C1400 C1401 1.387 . S
C1400 H1404 0.950 . S
C1400 C1409 1.390 . S
C1401 C1400 1.387 . S
C1401 C1403 1.387 . S
H1402 C1409 0.950 . S
C1403 C1401 1.387 . S
C1403 C1405 1.390 . S
C1403 H1407 0.950 . S
H1404 C1400 0.950 . S
C1405 C1403 1.390 . S
C1405 C1406 1.387 . S
C1405 H1408 0.950 . S
C1406 C1405 1.387 . S
C1406 C1409 1.387 . S
H1407 C1403 0.950 . S
H1408 C1405 0.950 . S
C1409 C1400 1.390 . S
C1409 H1402 0.950 . S
C1409 C1406 1.387 . S
C1410 C1411 1.387 . S
C1410 H1414 0.950 . S
C1410 C1419 1.390 . S
C1411 C1410 1.387 . S
C1411 C1413 1.387 . S
H1412 C1419 0.950 . S
C1413 C1411 1.387 . S
C1413 C1415 1.390 . S
C1413 H1417 0.950 . S
H1414 C1410 0.950 . S
C1415 C1413 1.390 . S
C1415 C1416 1.387 . S
C1415 H1418 0.950 . S
C1416 C1415 1.387 . S
C1416 C1419 1.387 . S
H1417 C1413 0.950 . S
H1418 C1415 0.950 . S
C1419 C1410 1.390 . S
C1419 H1412 0.950 . S
C1419 C1416 1.387 . S
C1420 C1421 1.387 . S
C1420 H1424 0.950 . S
C1420 C1429 1.390 . S
C1421 C1420 1.387 . S
C1421 C1423 1.387 . S
H1422 C1429 0.950 . S
C1423 C1421 1.387 . S
C1423 C1425 1.390 . S
C1423 H1427 0.950 . S
H1424 C1420 0.950 . S
C1425 C1423 1.390 . S
C1425 C1426 1.387 . S
C1425 H1428 0.950 . S
C1426 C1425 1.387 . S
C1426 C1429 1.387 . S
H1427 C1423 0.950 . S
H1428 C1425 0.950 . S
C1429 C1420 1.390 . S
C1429 H1422 0.950 . S
C1429 C1426 1.387 . S
C1430 C1431 1.387 . S
C1430 H1434 0.950 . S
C1430 C1439 1.390 . S
C1431 C1430 1.387 . S
C1431 C1433 1.387 . S
H1432 C1439 0.950 . S
C1433 C1431 1.387 . S
C1433 C1435 1.390 . S
C1433 H1437 0.950 . S
H1434 C1430 0.950 . S
C1435 C1433 1.390 . S
C1435 C1436 1.387 . S
C1435 H1438 0.950 . S
C1436 C1435 1.387 . S
C1436 C1439 1.387 . S
H1437 C1433 0.950 . S
H1438 C1435 0.950 . S
C1439 C1430 1.390 . S
C1439 H1432 0.950 . S
C1439 C1436 1.387 . S
C1440 C1441 1.387 . S
C1440 H1444 0.950 . S
C1440 C1449 1.390 . S
C1441 C1440 1.387 . S
C1441 C1443 1.387 . S
H1442 C1449 0.950 . S
C1443 C1441 1.387 . S
C1443 C1445 1.390 . S
C1443 H1447 0.950 . S
H1444 C1440 0.950 . S
C1445 C1443 1.390 . S
C1445 C1446 1.387 . S
C1445 H1448 0.950 . S
C1446 C1445 1.387 . S
C1446 C1449 1.387 . S
H1447 C1443 0.950 . S
H1448 C1445 0.950 . S
C1449 C1440 1.390 . S
C1449 H1442 0.950 . S
C1449 C1446 1.387 . S
C1450 C1451 1.387 . S
C1450 H1454 0.950 . S
C1450 C1459 1.390 . S
C1451 C1450 1.387 . S
C1451 C1453 1.387 . S
H1452 C1459 0.950 . S
C1453 C1451 1.387 . S
C1453 C1455 1.390 . S
C1453 H1457 0.950 . S
H1454 C1450 0.950 . S
C1455 C1453 1.390 . S
C1455 C1456 1.387 . S
C1455 H1458 0.950 . S
C1456 C1455 1.387 . S
C1456 C1459 1.387 . S
H1457 C1453 0.950 . S
H1458 C1455 0.950 . S
C1459 C1450 1.390 . S
C1459 H1452 0.950 . S
C1459 C1456 1.387 . S
C1460 C1461 1.387 . S
C1460 H1464 0.950 . S
C1460 C1469 1.390 . S
C1461 C1460 1.387 . S
C1461 C1463 1.387 . S
H1462 C1469 0.950 . S
C1463 C1461 1.387 . S
C1463 C1465 1.390 . S
C1463 H1467 0.950 . S
H1464 C1460 0.950 . S
C1465 C1463 1.390 . S
C1465 C1466 1.387 . S
C1465 H1468 0.950 . S
C1466 C1465 1.387 . S
C1466 C1469 1.387 . S
H1467 C1463 0.950 . S
H1468 C1465 0.950 . S
C1469 C1460 1.390 . S
C1469 H1462 0.950 . S
C1469 C1466 1.387 . S
C1470 C1471 1.387 . S
C1470 H1474 0.950 . S
C1470 C1479 1.390 . S
C1471 C1470 1.387 . S
C1471 C1473 1.387 . S
H1472 C1479 0.950 . S
C1473 C1471 1.387 . S
C1473 C1475 1.390 . S
C1473 H1477 0.950 . S
H1474 C1470 0.950 . S
C1475 C1473 1.390 . S
C1475 C1476 1.387 . S
C1475 H1478 0.950 . S
C1476 C1475 1.387 . S
C1476 C1479 1.387 . S
H1477 C1473 0.950 . S
H1478 C1475 0.950 . S
C1479 C1470 1.390 . S
C1479 H1472 0.950 . S
C1479 C1476 1.387 . S
C1480 C1481 1.387 . S
C1480 H1484 0.950 . S
C1480 C1489 1.390 . S
C1481 C1480 1.387 . S
C1481 C1483 1.387 . S
H1482 C1489 0.950 . S
C1483 C1481 1.387 . S
C1483 C1485 1.390 . S
C1483 H1487 0.950 . S
H1484 C1480 0.950 . S
C1485 C1483 1.390 . S
C1485 C1486 1.387 . S
C1485 H1488 0.950 . S
C1486 C1485 1.387 . S
C1486 C1489 1.387 . S
H1487 C1483 0.950 . S
H1488 C1485 0.950 . S
C1489 C1480 1.390 . S
C1489 H1482 0.950 . S
C1489 C1486 1.387 . S
C1490 C1491 1.387 . S
C1490 H1494 0.950 . S
C1490 C1499 1.390 . S
C1491 C1490 1.387 . S
C1491 C1493 1.387 . S
H1492 C1499 0.950 . S
C1493 C1491 1.387 . S
C1493 C1495 1.390 . S
C1493 H1497 0.950 . S
H1494 C1490 0.950 . S
C1495 C1493 1.390 . S
C1495 C1496 1.387 . S
C1495 H1498 0.950 . S
C1496 C1495 1.387 . S
C1496 C1499 1.387 . S
H1497 C1493 0.950 . S
H1498 C1495 0.950 . S
C1499 C1490 1.390 . S
C1499 H1492 0.950 . S
C1499 C1496 1.387 . S
C1500 C1501 1.387 . S
C1500 H1504 0.950 . S
C1500 C1509 1.390 . S
C1501 C1500 1.387 . S
C1501 C1503 1.387 . S
H1502 C1509 0.950 . S
C1503 C1501 1.387 . S
C1503 C1505 1.390 . S
C1503 H1507 0.950 . S
H1504 C1500 0.950 . S
C1505 C1503 1.390 . S
C1505 C1506 1.387 . S
C1505 H1508 0.950 . S
C1506 C1505 1.387 . S
C1506 C1509 1.387 . S
H1507 C1503 0.950 . S
H1508 C1505 0.950 . S
C1509 C1500 1.390 . S
C1509 H1502 0.950 . S
C1509 C1506 1.387 . S
C1510 C1511 1.387 . S
C1510 H1514 0.950 . S
C1510 C1519 1.390 . S
C1511 C1510 1.387 . S
C1511 C1513 1.387 . S
H1512 C1519 0.950 . S
C1513 C1511 1.387 . S
C1513 C1515 1.390 . S
C1513 H1517 0.950 . S
H1514 C1510 0.950 . S
C1515 C1513 1.390 . S
C1515 C1516 1.387 . S
C1515 H1518 0.950 . S
C1516 C1515 1.387 . S
C1516 C1519 1.387 . S
H1517 C1513 0.950 . S
H1518 C1515 0.950 . S
C1519 C1510 1.390 . S
C1519 H1512 0.950 . S
C1519 C1516 1.387 . S
C1520 C1521 1.387 . S
C1520 H1524 0.950 . S
C1520 C1529 1.390 . S
C1521 C1520 1.387 . S
C1521 C1523 1.387 . S
H1522 C1529 0.950 . S
C1523 C1521 1.387 . S
C1523 C1525 1.390 . S
C1523 H1527 0.950 . S
H1524 C1520 0.950 . S
C1525 C1523 1.390 . S
C1525 C1526 1.387 . S
C1525 H1528 0.950 . S
C1526 C1525 1.387 . S
C1526 C1529 1.387 . S
H1527 C1523 0.950 . S
H1528 C1525 0.950 . S
C1529 C1520 1.390 . S
C1529 H1522 0.950 . S
C1529 C1526 1.387 . S
C1530 C1531 1.387 . S
C1530 H1534 0.950 . S
C1530 C1539 1.390 . S
C1531 C1530 1.387 . S
C1531 C1533 1.387 . S
H1532 C1539 0.950 . S
C1533 C1531 1.387 . S
C1533 C1535 1.390 . S
C1533 H1537 0.950 . S
H1534 C1530 0.950 . S
C1535 C1533 1.390 . S
C1535 C1536 1.387 . S
C1535 H1538 0.950 . S
C1536 C1535 1.387 . S
C1536 C1539 1.387 . S
H1537 C1533 0.950 . S
H1538 C1535 0.950 . S
C1539 C1530 1.390 . S
C1539 H1532 0.950 . S
C1539 C1536 1.387 . S
C1540 C1541 1.387 . S
C1540 H1544 0.950 . S
C1540 C1549 1.390 . S
C1541 C1540 1.387 . S
C1541 C1543 1.387 . S
H1542 C1549 0.950 . S
C1543 C1541 1.387 . S
C1543 C1545 1.390 . S
C1543 H1547 0.950 . S
H1544 C1540 0.950 . S
C1545 C1543 1.390 . S
C1545 C1546 1.387 . S
C1545 H1548 0.950 . S
C1546 C1545 1.387 . S
C1546 C1549 1.387 . S
H1547 C1543 0.950 . S
H1548 C1545 0.950 . S
C1549 C1540 1.390 . S
C1549 H1542 0.950 . S
C1549 C1546 1.387 . S
C1550 C1551 1.387 . S
C1550 H1554 0.950 . S
C1550 C1559 1.390 . S
C1551 C1550 1.387 . S
C1551 C1553 1.387 . S
H1552 C1559 0.950 . S
C1553 C1551 1.387 . S
C1553 C1555 1.390 . S
C1553 H1557 0.950 . S
H1554 C1550 0.950 . S
C1555 C1553 1.390 . S
C1555 C1556 1.387 . S
C1555 H1558 0.950 . S
C1556 C1555 1.387 . S
C1556 C1559 1.387 . S
H1557 C1553 0.950 . S
H1558 C1555 0.950 . S
C1559 C1550 1.390 . S
C1559 H1552 0.950 . S
C1559 C1556 1.387 . S
C1560 C1561 1.387 . S
C1560 H1564 0.950 . S
C1560 C1569 1.390 . S
C1561 C1560 1.387 . S
C1561 C1563 1.387 . S
H1562 C1569 0.950 . S
C1563 C1561 1.387 . S
C1563 C1565 1.390 . S
C1563 H1567 0.950 . S
H1564 C1560 0.950 . S
C1565 C1563 1.390 . S
C1565 C1566 1.387 . S
C1565 H1568 0.950 . S
C1566 C1565 1.387 . S
C1566 C1569 1.387 . S
H1567 C1563 0.950 . S
H1568 C1565 0.950 . S
C1569 C1560 1.390 . S
C1569 H1562 0.950 . S
C1569 C1566 1.387 . S
C1570 C1571 1.387 . S
C1570 H1574 0.950 . S
C1570 C1579 1.390 . S
C1571 C1570 1.387 . S
C1571 C1573 1.387 . S
H1572 C1579 0.950 . S
C1573 C1571 1.387 . S
C1573 C1575 1.390 . S
C1573 H1577 0.950 . S
H1574 C1570 0.950 . S
C1575 C1573 1.390 . S
C1575 C1576 1.387 . S
C1575 H1578 0.950 . S
C1576 C1575 1.387 . S
C1576 C1579 1.387 . S
H1577 C1573 0.950 . S
H1578 C1575 0.950 . S
C1579 C1570 1.390 . S
C1579 H1572 0.950 . S
C1579 C1576 1.387 . S
C1580 C1581 1.387 . S
C1580 H1584 0.950 . S
C1580 C1589 1.390 . S
C1581 C1580 1.387 . S
C1581 C1583 1.387 . S
H1582 C1589 0.950 . S
C1583 C1581 1.387 . S
C1583 C1585 1.390 . S
C1583 H1587 0.950 . S
H1584 C1580 0.950 . S
C1585 C1583 1.390 . S
C1585 C1586 1.387 . S
C1585 H1588 0.950 . S
C1586 C1585 1.387 . S
C1586 C1589 1.387 . S
H1587 C1583 0.950 . S
H1588 C1585 0.950 . S
C1589 C1580 1.390 . S
C1589 H1582 0.950 . S
C1589 C1586 1.387 . S
C1590 C1591 1.387 . S
C1590 H1594 0.950 . S
C1590 C1599 1.390 . S
C1591 C1590 1.387 . S
C1591 C1593 1.387 . S
H1592 C1599 0.950 . S
C1593 C1591 1.387 . S
C1593 C1595 1.390 . S
C1593 H1597 0.950 . S
H1594 C1590 0.950 . S
C1595 C1593 1.390 . S
C1595 C1596 1.387 . S
C1595 H1598 0.950 . S
C1596 C1595 1.387 . S
C1596 C1599 1.387 . S
H1597 C1593 0.950 . S
H1598 C1595 0.950 . S
C1599 C1590 1.390 . S
C1599 H1592 0.950 . S
C1599 C1596 1.387 . S
C1600 C1601 1.387 . S
C1600 H1604 0.950 . S
C1600 C1609 1.390 . S
C1601 C1600 1.387 . S
C1601 C1603 1.387 . S
H1602 C1609 0.950 . S
C1603 C1601 1.387 . S
C1603 C1605 1.390 . S
C1603 H1607 0.950 . S
H1604 C1600 0.950 . S
C1605 C1603 1.390 . S
C1605 C1606 1.387 . S
C1605 H1608 0.950 . S
C1606 C1605 1.387 . S
C1606 C1609 1.387 . S
H1607 C1603 0.950 . S
H1608 C1605 0.950 . S
C1609 C1600 1.390 . S
C1609 H1602 0.950 . S
C1609 C1606 1.387 . S
C1610 C1611 1.387 . S
C1610 H1614 0.950 . S
C1610 C1619 1.390 . S
C1611 C1610 1.387 . S
C1611 C1613 1.387 . S
H1612 C1619 0.950 . S
C1613 C1611 1.387 . S
C1613 C1615 1.390 . S
C1613 H1617 0.950 . S
H1614 C1610 0.950 . S
C1615 C1613 1.390 . S
C1615 C1616 1.387 . S
C1615 H1618 0.950 . S
C1616 C1615 1.387 . S
C1616 C1619 1.387 . S
H1617 C1613 0.950 . S
H1618 C1615 0.950 . S
C1619 C1610 1.390 . S
C1619 H1612 0.950 . S
C1619 C1616 1.387 . S
C1620 C1621 1.387 . S
C1620 H1624 0.950 . S
C1620 C1629 1.390 . S
C1621 C1620 1.387 . S
C1621 C1623 1.387 . S
H1622 C1629 0.950 . S
C1623 C1621 1.387 . S
C1623 C1625 1.390 . S
C1623 H1627 0.950 . S
H1624 C1620 0.950 . S
C1625 C1623 1.390 . S
C1625 C1626 1.387 . S
C1625 H1628 0.950 . S
C1626 C1625 1.387 . S
C1626 C1629 1.387 . S
H1627 C1623 0.950 . S
H1628 C1625 0.950 . S
C1629 C1620 1.390 . S
C1629 H1622 0.950 . S
C1629 C1626 1.387 . S
C1630 C1631 1.387 . S
C1630 H1634 0.950 . S
C1630 C1639 1.390 . S
C1631 C1630 1.387 . S
C1631 C1633 1.387 . S
H1632 C1639 0.950 . S
C1633 C1631 1.387 . S
C1633 C1635 1.390 . S
C1633 H1637 0.950 . S
H1634 C1630 0.950 . S
C1635 C1633 1.390 . S
C1635 C1636 1.387 . S
C1635 H1638 0.950 . S
C1636 C1635 1.387 . S
C1636 C1639 1.387 . S
H1637 C1633 0.950 . S
H1638 C1635 0.950 . S
C1639 C1630 1.390 . S
C1639 H1632 0.950 . S
C1639 C1636 1.387 . S
C1640 C1641 1.387 . S
C1640 H1644 0.950 . S
C1640 C1649 1.390 . S
C1641 C1640 1.387 . S
C1641 C1643 1.387 . S
H1642 C1649 0.950 . S
C1643 C1641 1.387 . S
C1643 C1645 1.390 . S
C1643 H1647 0.950 . S
H1644 C1640 0.950 . S
C1645 C1643 1.390 . S
C1645 C1646 1.387 . S
C1645 H1648 0.950 . S
C1646 C1645 1.387 . S
C1646 C1649 1.387 . S
H1647 C1643 0.950 . S
H1648 C1645 0.950 . S
C1649 C1640 1.390 . S
C1649 H1642 0.950 . S
C1649 C1646 1.387 . S
C1650 C1651 1.387 . S
C1650 H1654 0.950 . S
C1650 C1659 1.390 . S
C1651 C1650 1.387 . S
C1651 C1653 1.387 . S
H1652 C1659 0.950 . S
C1653 C1651 1.387 . S
C1653 C1655 1.390 . S
C1653 H1657 0.950 . S
H1654 C1650 0.950 . S
C1655 C1653 1.390 . S
C1655 C1656 1.387 . S
C1655 H1658 0.950 . S
C1656 C1655 1.387 . S
C1656 C1659 1.387 . S
H1657 C1653 0.950 . S
H1658 C1655 0.950 . S
C1659 C1650 1.390 . S
C1659 H1652 0.950 . S
C1659 C1656 1.387 . S
C1660 C1661 1.387 . S
C1660 H1664 0.950 . S
C1660 C1669 1.390 . S
C1661 C1660 1.387 . S
C1661 C1663 1.387 . S
H1662 C1669 0.950 . S
C1663 C1661 1.387 . S
C1663 C1665 1.390 . S
C1663 H1667 0.950 . S
H1664 C1660 0.950 . S
C1665 C1663 1.390 . S
C1665 C1666 1.387 . S
C1665 H1668 0.950 . S
C1666 C1665 1.387 . S
C1666 C1669 1.387 . S
H1667 C1663 0.950 . S
H1668 C1665 0.950 . S
C1669 C1660 1.390 . S
C1669 H1662 0.950 . S
C1669 C1666 1.387 . S
C1670 C1671 1.387 . S
C1670 H1674 0.950 . S
C1670 C1679 1.390 . S
C1671 C1670 1.387 . S
C1671 C1673 1.387 . S
H1672 C1679 0.950 . S
C1673 C1671 1.387 . S
C1673 C1675 1.390 . S
C1673 H1677 0.950 . S
H1674 C1670 0.950 . S
C1675 C1673 1.390 . S
C1675 C1676 1.387 . S
C1675 H1678 0.950 . S
C1676 C1675 1.387 . S
C1676 C1679 1.387 . S
H1677 C1673 0.950 . S
H1678 C1675 0.950 . S
C1679 C1670 1.390 . S
C1679 H1672 0.950 . S
C1679 C1676 1.387 . S
C1680 C1681 1.387 . S
C1680 H1684 0.950 . S
C1680 C1689 1.390 . S
C1681 C1680 1.387 . S
C1681 C1683 1.387 . S
H1682 C1689 0.950 . S
C1683 C1681 1.387 . S
C1683 C1685 1.390 . S
C1683 H1687 0.950 . S
H1684 C1680 0.950 . S
C1685 C1683 1.390 . S
C1685 C1686 1.387 . S
C1685 H1688 0.950 . S
C1686 C1685 1.387 . S
C1686 C1689 1.387 . S
H1687 C1683 0.950 . S
H1688 C1685 0.950 . S
C1689 C1680 1.390 . S
C1689 H1682 0.950 . S
C1689 C1686 1.387 . S
C1690 C1691 1.387 . S
C1690 H1694 0.950 . S
C1690 C1699 1.390 . S
C1691 C1690 1.387 . S
C1691 C1693 1.387 . S
H1692 C1699 0.950 . S
C1693 C1691 1.387 . S
C1693 C1695 1.390 . S
C1693 H1697 0.950 . S
H1694 C1690 0.950 . S
C1695 C1693 1.390 . S
C1695 C1696 1.387 . S
C1695 H1698 0.950 . S
C1696 C1695 1.387 . S
C1696 C1699 1.387 . S
H1697 C1693 0.950 . S
H1698 C1695 0.950 . S
C1699 C1690 1.390 . S
C1699 H1692 0.950 . S
C1699 C1696 1.387 . S
C1700 C1701 1.387 . S
C1700 H1704 0.950 . S
C1700 C1709 1.390 . S
C1701 C1700 1.387 . S
C1701 C1703 1.387 . S
H1702 C1709 0.950 . S
C1703 C1701 1.387 . S
C1703 C1705 1.390 . S
C1703 H1707 0.950 . S
H1704 C1700 0.950 . S
C1705 C1703 1.390 . S
C1705 C1706 1.387 . S
C1705 H1708 0.950 . S
C1706 C1705 1.387 . S
C1706 C1709 1.387 . S
H1707 C1703 0.950 . S
H1708 C1705 0.950 . S
C1709 C1700 1.390 . S
C1709 H1702 0.950 . S
C1709 C1706 1.387 . S
C1710 C1711 1.387 . S
C1710 H1714 0.950 . S
C1710 C1719 1.390 . S
C1711 C1710 1.387 . S
C1711 C1713 1.387 . S
H1712 C1719 0.950 . S
C1713 C1711 1.387 . S
C1713 C1715 1.390 . S
C1713 H1717 0.950 . S
H1714 C1710 0.950 . S
C1715 C1713 1.390 . S
C1715 C1716 1.387 . S
C1715 H1718 0.950 . S
C1716 C1715 1.387 . S
C1716 C1719 1.387 . S
H1717 C1713 0.950 . S
H1718 C1715 0.950 . S
C1719 C1710 1.390 . S
C1719 H1712 0.950 . S
C1719 C1716 1.387 . S
C1720 C1721 1.387 . S
C1720 H1724 0.950 . S
C1720 C1729 1.390 . S
C1721 C1720 1.387 . S
C1721 C1723 1.387 . S
H1722 C1729 0.950 . S
C1723 C1721 1.387 . S
C1723 C1725 1.390 . S
C1723 H1727 0.950 . S
H1724 C1720 0.950 . S
C1725 C1723 1.390 . S
C1725 C1726 1.387 . S
C1725 H1728 0.950 . S
C1726 C1725 1.387 . S
C1726 C1729 1.387 . S
H1727 C1723 0.950 . S
H1728 C1725 0.950 . S
C1729 C1720 1.390 . S
C1729 H1722 0.950 . S
C1729 C1726 1.387 . S
C1730 C1731 1.387 . S
C1730 H1734 0.950 . S
C1730 C1739 1.390 . S
C1731 C1730 1.387 . S
C1731 C1733 1.387 . S
H1732 C1739 0.950 . S
C1733 C1731 1.387 . S
C1733 C1735 1.390 . S
C1733 H1737 0.950 . S
H1734 C1730 0.950 . S
C1735 C1733 1.390 . S
C1735 C1736 1.387 . S
C1735 H1738 0.950 . S
C1736 C1735 1.387 . S
C1736 C1739 1.387 . S
H1737 C1733 0.950 . S
H1738 C1735 0.950 . S
C1739 C1730 1.390 . S
C1739 H1732 0.950 . S
C1739 C1736 1.387 . S
C1740 C1741 1.387 . S
C1740 H1744 0.950 . S
C1740 C1749 1.390 . S
C1741 C1740 1.387 . S
C1741 C1743 1.387 . S
H1742 C1749 0.950 . S
C1743 C1741 1.387 . S
C1743 C1745 1.390 . S
C1743 H1747 0.950 . S
H1744 C1740 0.950 . S
C1745 C1743 1.390 . S
C1745 C1746 1.387 . S
C1745 H1748 0.950 . S
C1746 C1745 1.387 . S
C1746 C1749 1.387 . S
H1747 C1743 0.950 . S
H1748 C1745 0.950 . S
C1749 C1740 1.390 . S
C1749 H1742 0.950 . S
C1749 C1746 1.387 . S
C1750 C1751 1.387 . S
C1750 H1754 0.950 . S
C1750 C1759 1.390 . S
C1751 C1750 1.387 . S
C1751 C1753 1.387 . S
H1752 C1759 0.950 . S
C1753 C1751 1.387 . S
C1753 C1755 1.390 . S
C1753 H1757 0.950 . S
H1754 C1750 0.950 . S
C1755 C1753 1.390 . S
C1755 C1756 1.387 . S
C1755 H1758 0.950 . S
C1756 C1755 1.387 . S
C1756 C1759 1.387 . S
H1757 C1753 0.950 . S
H1758 C1755 0.950 . S
C1759 C1750 1.390 . S
C1759 H1752 0.950 . S
C1759 C1756 1.387 . S
C1760 C1761 1.387 . S
C1760 H1764 0.950 . S
C1760 C1769 1.390 . S
C1761 C1760 1.387 . S
C1761 C1763 1.387 . S
H1762 C1769 0.950 . S
C1763 C1761 1.387 . S
C1763 C1765 1.390 . S
C1763 H1767 0.950 . S
H1764 C1760 0.950 . S
C1765 C1763 1.390 . S
C1765 C1766 1.387 . S
C1765 H1768 0.950 . S
C1766 C1765 1.387 . S
C1766 C1769 1.387 . S
H1767 C1763 0.950 . S
H1768 C1765 0.950 . S
C1769 C1760 1.390 . S
C1769 H1762 0.950 . S
C1769 C1766 1.387 . S
C1770 C1771 1.387 . S
C1770 H1774 0.950 . S
C1770 C1779 1.390 . S
C1771 C1770 1.387 . S
C1771 C1773 1.387 . S
H1772 C1779 0.950 . S
C1773 C1771 1.387 . S
C1773 C1775 1.390 . S
C1773 H1777 0.950 . S
H1774 C1770 0.950 . S
C1775 C1773 1.390 . S
C1775 C1776 1.387 . S
C1775 H1778 0.950 . S
C1776 C1775 1.387 . S
C1776 C1779 1.387 . S
H1777 C1773 0.950 . S
H1778 C1775 0.950 . S
C1779 C1770 1.390 . S
C1779 H1772 0.950 . S
C1779 C1776 1.387 . S
C1780 C1781 1.387 . S
C1780 H1784 0.950 . S
C1780 C1789 1.390 . S
C1781 C1780 1.387 . S
C1781 C1783 1.387 . S
H1782 C1789 0.950 . S
C1783 C1781 1.387 . S
C1783 C1785 1.390 . S
C1783 H1787 0.950 . S
H1784 C1780 0.950 . S
C1785 C1783 1.390 . S
C1785 C1786 1.387 . S
C1785 H1788 0.950 . S
C1786 C1785 1.387 . S
C1786 C1789 1.387 . S
H1787 C1783 0.950 . S
H1788 C1785 0.950 . S
C1789 C1780 1.390 . S
C1789 H1782 0.950 . S
C1789 C1786 1.387 . S
C1790 C1791 1.387 . S
C1790 H1794 0.950 1_556 S
C1790 C1799 1.390 . S
C1791 C1790 1.387 . S
C1791 C1793 1.387 . S
H1792 C1799 0.950 . S
C1793 C1791 1.387 . S
C1793 C1795 1.390 . S
C1793 H1797 0.950 . S
H1794 C1790 0.950 1_554 S
C1795 C1793 1.390 . S
C1795 C1796 1.387 . S
C1795 H1798 0.950 . S
C1796 C1795 1.387 . S
C1796 C1799 1.387 . S
H1797 C1793 0.950 . S
H1798 C1795 0.950 . S
C1799 C1790 1.390 . S
C1799 H1792 0.950 . S
C1799 C1796 1.387 . S
C1800 C1801 1.387 . S
C1800 H1804 0.950 . S
C1800 C1809 1.390 . S
C1801 C1800 1.387 . S
C1801 C1803 1.387 . S
H1802 C1809 0.950 . S
C1803 C1801 1.387 . S
C1803 C1805 1.390 . S
C1803 H1807 0.950 . S
H1804 C1800 0.950 . S
C1805 C1803 1.390 . S
C1805 C1806 1.387 . S
C1805 H1808 0.950 . S
C1806 C1805 1.387 . S
C1806 C1809 1.387 . S
H1807 C1803 0.950 . S
H1808 C1805 0.950 . S
C1809 C1800 1.390 . S
C1809 H1802 0.950 . S
C1809 C1806 1.387 . S
C1810 C1811 1.387 . S
C1810 H1814 0.950 . S
C1810 C1819 1.390 . S
C1811 C1810 1.387 . S
C1811 C1813 1.387 . S
H1812 C1819 0.950 . S
C1813 C1811 1.387 . S
C1813 C1815 1.390 . S
C1813 H1817 0.950 . S
H1814 C1810 0.950 . S
C1815 C1813 1.390 . S
C1815 C1816 1.387 . S
C1815 H1818 0.950 . S
C1816 C1815 1.387 . S
C1816 C1819 1.387 . S
H1817 C1813 0.950 . S
H1818 C1815 0.950 . S
C1819 C1810 1.390 . S
C1819 H1812 0.950 . S
C1819 C1816 1.387 . S
C1820 C1821 1.387 . S
C1820 H1824 0.950 . S
C1820 C1829 1.390 . S
C1821 C1820 1.387 . S
C1821 C1823 1.387 . S
H1822 C1829 0.950 . S
C1823 C1821 1.387 . S
C1823 C1825 1.390 . S
C1823 H1827 0.950 . S
H1824 C1820 0.950 . S
C1825 C1823 1.390 . S
C1825 C1826 1.387 . S
C1825 H1828 0.950 . S
C1826 C1825 1.387 . S
C1826 C1829 1.387 . S
H1827 C1823 0.950 . S
H1828 C1825 0.950 . S
C1829 C1820 1.390 . S
C1829 H1822 0.950 . S
C1829 C1826 1.387 . S
C1830 C1831 1.387 . S
C1830 H1834 0.950 . S
C1830 C1839 1.390 . S
C1831 C1830 1.387 . S
C1831 C1833 1.387 . S
H1832 C1839 0.950 . S
C1833 C1831 1.387 . S
C1833 C1835 1.390 . S
C1833 H1837 0.950 . S
H1834 C1830 0.950 . S
C1835 C1833 1.390 . S
C1835 C1836 1.387 . S
C1835 H1838 0.950 . S
C1836 C1835 1.387 . S
C1836 C1839 1.387 . S
H1837 C1833 0.950 . S
H1838 C1835 0.950 . S
C1839 C1830 1.390 . S
C1839 H1832 0.950 . S
C1839 C1836 1.387 . S
C1840 C1841 1.387 . S
C1840 H1844 0.950 . S
C1840 C1849 1.390 . S
C1841 C1840 1.387 . S
C1841 C1843 1.387 . S
H1842 C1849 0.950 . S
C1843 C1841 1.387 . S
C1843 C1845 1.390 . S
C1843 H1847 0.950 . S
H1844 C1840 0.950 . S
C1845 C1843 1.390 . S
C1845 C1846 1.387 . S
C1845 H1848 0.950 . S
C1846 C1845 1.387 . S
C1846 C1849 1.387 . S
H1847 C1843 0.950 . S
H1848 C1845 0.950 . S
C1849 C1840 1.390 . S
C1849 H1842 0.950 . S
C1849 C1846 1.387 . S
C1850 C1851 1.387 . S
C1850 H1854 0.950 . S
C1850 C1859 1.390 . S
C1851 C1850 1.387 . S
C1851 C1853 1.387 . S
H1852 C1859 0.950 . S
C1853 C1851 1.387 . S
C1853 C1855 1.390 . S
C1853 H1857 0.950 . S
H1854 C1850 0.950 . S
C1855 C1853 1.390 . S
C1855 C1856 1.387 . S
C1855 H1858 0.950 . S
C1856 C1855 1.387 . S
C1856 C1859 1.387 . S
H1857 C1853 0.950 . S
H1858 C1855 0.950 . S
C1859 C1850 1.390 . S
C1859 H1852 0.950 . S
C1859 C1856 1.387 . S
C1860 C1861 1.387 . S
C1860 H1864 0.950 . S
C1860 C1869 1.390 . S
C1861 C1860 1.387 . S
C1861 C1863 1.387 . S
H1862 C1869 0.950 . S
C1863 C1861 1.387 . S
C1863 C1865 1.390 . S
C1863 H1867 0.950 . S
H1864 C1860 0.950 . S
C1865 C1863 1.390 . S
C1865 C1866 1.387 . S
C1865 H1868 0.950 . S
C1866 C1865 1.387 . S
C1866 C1869 1.387 . S
H1867 C1863 0.950 . S
H1868 C1865 0.950 . S
C1869 C1860 1.390 . S
C1869 H1862 0.950 . S
C1869 C1866 1.387 . S
C1870 C1871 1.387 . S
C1870 H1874 0.950 . S
C1870 C1879 1.390 . S
C1871 C1870 1.387 . S
C1871 C1873 1.387 . S
H1872 C1879 0.950 . S
C1873 C1871 1.387 . S
C1873 C1875 1.390 . S
C1873 H1877 0.950 . S
H1874 C1870 0.950 . S
C1875 C1873 1.390 . S
C1875 C1876 1.387 . S
C1875 H1878 0.950 . S
C1876 C1875 1.387 . S
C1876 C1879 1.387 . S
H1877 C1873 0.950 . S
H1878 C1875 0.950 . S
C1879 C1870 1.390 . S
C1879 H1872 0.950 . S
C1879 C1876 1.387 . S
C1880 C1881 1.387 . S
C1880 H1884 0.950 . S
C1880 C1889 1.390 . S
C1881 C1880 1.387 . S
C1881 C1883 1.387 . S
H1882 C1889 0.950 . S
C1883 C1881 1.387 . S
C1883 C1885 1.390 . S
C1883 H1887 0.950 . S
H1884 C1880 0.950 . S
C1885 C1883 1.390 . S
C1885 C1886 1.387 . S
C1885 H1888 0.950 . S
C1886 C1885 1.387 . S
C1886 C1889 1.387 . S
H1887 C1883 0.950 . S
H1888 C1885 0.950 . S
C1889 C1880 1.390 . S
C1889 H1882 0.950 . S
C1889 C1886 1.387 . S
C1890 C1891 1.387 . S
C1890 H1894 0.950 . S
C1890 C1899 1.390 . S
C1891 C1890 1.387 . S
C1891 C1893 1.387 . S
H1892 C1899 0.950 . S
C1893 C1891 1.387 . S
C1893 C1895 1.390 . S
C1893 H1897 0.950 . S
H1894 C1890 0.950 . S
C1895 C1893 1.390 . S
C1895 C1896 1.387 . S
C1895 H1898 0.950 . S
C1896 C1895 1.387 . S
C1896 C1899 1.387 . S
H1897 C1893 0.950 . S
H1898 C1895 0.950 . S
C1899 C1890 1.390 . S
C1899 H1892 0.950 . S
C1899 C1896 1.387 . S
C1900 C1901 1.387 . S
C1900 H1904 0.950 . S
C1900 C1909 1.390 . S
C1901 C1900 1.387 . S
C1901 C1903 1.387 . S
H1902 C1909 0.950 . S
C1903 C1901 1.387 . S
C1903 C1905 1.390 . S
C1903 H1907 0.950 . S
H1904 C1900 0.950 . S
C1905 C1903 1.390 . S
C1905 C1906 1.387 . S
C1905 H1908 0.950 . S
C1906 C1905 1.387 . S
C1906 C1909 1.387 . S
H1907 C1903 0.950 . S
H1908 C1905 0.950 . S
C1909 C1900 1.390 . S
C1909 H1902 0.950 . S
C1909 C1906 1.387 . S
C1910 C1911 1.387 . S
C1910 H1914 0.950 . S
C1910 C1919 1.390 . S
C1911 C1910 1.387 . S
C1911 C1913 1.387 . S
H1912 C1919 0.950 . S
C1913 C1911 1.387 . S
C1913 C1915 1.390 . S
C1913 H1917 0.950 . S
H1914 C1910 0.950 . S
C1915 C1913 1.390 . S
C1915 C1916 1.387 . S
C1915 H1918 0.950 . S
C1916 C1915 1.387 . S
C1916 C1919 1.387 . S
H1917 C1913 0.950 . S
H1918 C1915 0.950 . S
C1919 C1910 1.390 . S
C1919 H1912 0.950 . S
C1919 C1916 1.387 . S
C1920 C1921 1.387 . S
C1920 H1924 0.950 . S
C1920 C1929 1.390 . S
C1921 C1920 1.387 . S
C1921 C1923 1.387 . S
H1922 C1929 0.950 . S
C1923 C1921 1.387 . S
C1923 C1925 1.390 . S
C1923 H1927 0.950 . S
H1924 C1920 0.950 . S
C1925 C1923 1.390 . S
C1925 C1926 1.387 . S
C1925 H1928 0.950 . S
C1926 C1925 1.387 . S
C1926 C1929 1.387 . S
H1927 C1923 0.950 . S
H1928 C1925 0.950 . S
C1929 C1920 1.390 . S
C1929 H1922 0.950 . S
C1929 C1926 1.387 . S
C1930 C1931 1.387 . S
C1930 H1934 0.950 . S
C1930 C1939 1.390 . S
C1931 C1930 1.387 . S
C1931 C1933 1.387 . S
H1932 C1939 0.950 . S
C1933 C1931 1.387 . S
C1933 C1935 1.390 . S
C1933 H1937 0.950 . S
H1934 C1930 0.950 . S
C1935 C1933 1.390 . S
C1935 C1936 1.387 . S
C1935 H1938 0.950 . S
C1936 C1935 1.387 . S
C1936 C1939 1.387 . S
H1937 C1933 0.950 . S
H1938 C1935 0.950 . S
C1939 C1930 1.390 . S
C1939 H1932 0.950 . S
C1939 C1936 1.387 . S
C1940 C1941 1.387 . S
C1940 H1944 0.950 . S
C1940 C1949 1.390 . S
C1941 C1940 1.387 . S
C1941 C1943 1.387 . S
H1942 C1949 0.950 . S
C1943 C1941 1.387 . S
C1943 C1945 1.390 . S
C1943 H1947 0.950 . S
H1944 C1940 0.950 . S
C1945 C1943 1.390 . S
C1945 C1946 1.387 . S
C1945 H1948 0.950 . S
C1946 C1945 1.387 . S
C1946 C1949 1.387 . S
H1947 C1943 0.950 . S
H1948 C1945 0.950 . S
C1949 C1940 1.390 . S
C1949 H1942 0.950 . S
C1949 C1946 1.387 . S
C1950 C1951 1.387 . S
C1950 H1954 0.950 . S
C1950 C1959 1.390 . S
C1951 C1950 1.387 . S
C1951 C1953 1.387 . S
H1952 C1959 0.950 . S
C1953 C1951 1.387 . S
C1953 C1955 1.390 . S
C1953 H1957 0.950 . S
H1954 C1950 0.950 . S
C1955 C1953 1.390 . S
C1955 C1956 1.387 . S
C1955 H1958 0.950 . S
C1956 C1955 1.387 . S
C1956 C1959 1.387 . S
H1957 C1953 0.950 . S
H1958 C1955 0.950 . S
C1959 C1950 1.390 . S
C1959 H1952 0.950 . S
C1959 C1956 1.387 . S
C1960 C1961 1.387 . S
C1960 H1964 0.950 . S
C1960 C1969 1.390 . S
C1961 C1960 1.387 . S
C1961 C1963 1.387 . S
H1962 C1969 0.950 . S
C1963 C1961 1.387 . S
C1963 C1965 1.390 . S
C1963 H1967 0.950 . S
H1964 C1960 0.950 . S
C1965 C1963 1.390 . S
C1965 C1966 1.387 . S
C1965 H1968 0.950 . S
C1966 C1965 1.387 . S
C1966 C1969 1.387 . S
H1967 C1963 0.950 . S
H1968 C1965 0.950 . S
C1969 C1960 1.390 . S
C1969 H1962 0.950 . S
C1969 C1966 1.387 . S
C1970 C1971 1.387 . S
C1970 H1974 0.950 . S
C1970 C1979 1.390 . S
C1971 C1970 1.387 . S
C1971 C1973 1.387 . S
H1972 C1979 0.950 . S
C1973 C1971 1.387 . S
C1973 C1975 1.390 . S
C1973 H1977 0.950 . S
H1974 C1970 0.950 . S
C1975 C1973 1.390 . S
C1975 C1976 1.387 . S
C1975 H1978 0.950 . S
C1976 C1975 1.387 . S
C1976 C1979 1.387 . S
H1977 C1973 0.950 . S
H1978 C1975 0.950 . S
C1979 C1970 1.390 . S
C1979 H1972 0.950 . S
C1979 C1976 1.387 . S
C1980 C1981 1.387 . S
C1980 H1984 0.950 . S
C1980 C1989 1.390 . S
C1981 C1980 1.387 . S
C1981 C1983 1.387 . S
H1982 C1989 0.950 . S
C1983 C1981 1.387 . S
C1983 C1985 1.390 . S
C1983 H1987 0.950 . S
H1984 C1980 0.950 . S
C1985 C1983 1.390 . S
C1985 C1986 1.387 . S
C1985 H1988 0.950 . S
C1986 C1985 1.387 . S
C1986 C1989 1.387 . S
H1987 C1983 0.950 . S
H1988 C1985 0.950 . S
C1989 C1980 1.390 . S
C1989 H1982 0.950 . S
C1989 C1986 1.387 . S
C1990 C1991 1.387 . S
C1990 H1994 0.950 . S
C1990 C1999 1.390 . S
C1991 C1990 1.387 . S
C1991 C1993 1.387 . S
H1992 C1999 0.950 . S
C1993 C1991 1.387 . S
C1993 C1995 1.390 . S
C1993 H1997 0.950 . S
H1994 C1990 0.950 . S
C1995 C1993 1.390 . S
C1995 C1996 1.387 . S
C1995 H1998 0.950 . S
C1996 C1995 1.387 . S
C1996 C1999 1.387 . S
H1997 C1993 0.950 . S
H1998 C1995 0.950 . S
C1999 C1990 1.390 . S
C1999 H1992 0.950 . S
C1999 C1996 1.387 . S
C2000 C2001 1.387 . S
C2000 H2004 0.950 . S
C2000 C2009 1.390 . S
C2001 C2000 1.387 . S
C2001 C2003 1.387 . S
H2002 C2009 0.950 . S
C2003 C2001 1.387 . S
C2003 C2005 1.390 . S
C2003 H2007 0.950 . S
H2004 C2000 0.950 . S
C2005 C2003 1.390 . S
C2005 C2006 1.387 . S
C2005 H2008 0.950 . S
C2006 C2005 1.387 . S
C2006 C2009 1.387 . S
H2007 C2003 0.950 . S
H2008 C2005 0.950 . S
C2009 C2000 1.390 . S
C2009 H2002 0.950 . S
C2009 C2006 1.387 . S
C2010 C2011 1.387 . S
C2010 H2014 0.950 . S
C2010 C2019 1.390 . S
C2011 C2010 1.387 . S
C2011 C2013 1.387 . S
H2012 C2019 0.950 1_556 S
C2013 C2011 1.387 . S
C2013 C2015 1.390 . S
C2013 H2017 0.950 . S
H2014 C2010 0.950 . S
C2015 C2013 1.390 . S
C2015 C2016 1.387 . S
C2015 H2018 0.950 . S
C2016 C2015 1.387 . S
C2016 C2019 1.387 . S
H2017 C2013 0.950 . S
H2018 C2015 0.950 . S
C2019 C2010 1.390 . S
C2019 H2012 0.950 1_554 S
C2019 C2016 1.387 . S
C2020 C2021 1.387 . S
C2020 H2024 0.950 . S
C2020 C2029 1.390 . S
C2021 C2020 1.387 . S
C2021 C2023 1.387 . S
H2022 C2029 0.950 . S
C2023 C2021 1.387 . S
C2023 C2025 1.390 . S
C2023 H2027 0.950 . S
H2024 C2020 0.950 . S
C2025 C2023 1.390 . S
C2025 C2026 1.387 . S
C2025 H2028 0.950 . S
C2026 C2025 1.387 . S
C2026 C2029 1.387 . S
H2027 C2023 0.950 . S
H2028 C2025 0.950 . S
C2029 C2020 1.390 . S
C2029 H2022 0.950 . S
C2029 C2026 1.387 . S
C2030 C2031 1.387 . S
C2030 H2034 0.950 . S
C2030 C2039 1.390 . S
C2031 C2030 1.387 . S
C2031 C2033 1.387 . S
H2032 C2039 0.950 . S
C2033 C2031 1.387 . S
C2033 C2035 1.390 . S
C2033 H2037 0.950 . S
H2034 C2030 0.950 . S
C2035 C2033 1.390 . S
C2035 C2036 1.387 . S
C2035 H2038 0.950 . S
C2036 C2035 1.387 . S
C2036 C2039 1.387 . S
H2037 C2033 0.950 . S
H2038 C2035 0.950 . S
C2039 C2030 1.390 . S
C2039 H2032 0.950 . S
C2039 C2036 1.387 . S
C2040 C2041 1.387 . S
C2040 H2044 0.950 . S
C2040 C2049 1.390 . S
C2041 C2040 1.387 . S
C2041 C2043 1.387 . S
H2042 C2049 0.950 . S
C2043 C2041 1.387 . S
C2043 C2045 1.390 . S
C2043 H2047 0.950 . S
H2044 C2040 0.950 . S
C2045 C2043 1.390 . S
C2045 C2046 1.387 . S
C2045 H2048 0.950 . S
C2046 C2045 1.387 . S
C2046 C2049 1.387 . S
H2047 C2043 0.950 . S
H2048 C2045 0.950 . S
C2049 C2040 1.390 . S
C2049 H2042 0.950 . S
C2049 C2046 1.387 . S
C2050 C2051 1.387 . S
C2050 H2054 0.950 . S
C2050 C2059 1.390 . S
C2051 C2050 1.387 . S
C2051 C2053 1.387 . S
H2052 C2059 0.950 . S
C2053 C2051 1.387 . S
C2053 C2055 1.390 . S
C2053 H2057 0.950 . S
H2054 C2050 0.950 . S
C2055 C2053 1.390 . S
C2055 C2056 1.387 . S
C2055 H2058 0.950 . S
C2056 C2055 1.387 . S
C2056 C2059 1.387 . S
H2057 C2053 0.950 . S
H2058 C2055 0.950 . S
C2059 C2050 1.390 . S
C2059 H2052 0.950 . S
C2059 C2056 1.387 . S
C2060 C2061 1.387 . S
C2060 H2064 0.950 . S
C2060 C2069 1.390 . S
C2061 C2060 1.387 . S
C2061 C2063 1.387 . S
H2062 C2069 0.950 . S
C2063 C2061 1.387 . S
C2063 C2065 1.390 . S
C2063 H2067 0.950 . S
H2064 C2060 0.950 . S
C2065 C2063 1.390 . S
C2065 C2066 1.387 . S
C2065 H2068 0.950 . S
C2066 C2065 1.387 . S
C2066 C2069 1.387 . S
H2067 C2063 0.950 . S
H2068 C2065 0.950 . S
C2069 C2060 1.390 . S
C2069 H2062 0.950 . S
C2069 C2066 1.387 . S
C2070 C2071 1.387 . S
C2070 H2074 0.950 . S
C2070 C2079 1.390 . S
C2071 C2070 1.387 . S
C2071 C2073 1.387 . S
H2072 C2079 0.950 . S
C2073 C2071 1.387 . S
C2073 C2075 1.390 . S
C2073 H2077 0.950 . S
H2074 C2070 0.950 . S
C2075 C2073 1.390 . S
C2075 C2076 1.387 . S
C2075 H2078 0.950 . S
C2076 C2075 1.387 . S
C2076 C2079 1.387 . S
H2077 C2073 0.950 . S
H2078 C2075 0.950 . S
C2079 C2070 1.390 . S
C2079 H2072 0.950 . S
C2079 C2076 1.387 . S
C2080 C2081 1.387 . S
C2080 H2084 0.950 . S
C2080 C2089 1.390 . S
C2081 C2080 1.387 . S
C2081 C2083 1.387 . S
H2082 C2089 0.950 . S
C2083 C2081 1.387 . S
C2083 C2085 1.390 . S
C2083 H2087 0.950 . S
H2084 C2080 0.950 . S
C2085 C2083 1.390 . S
C2085 C2086 1.387 . S
C2085 H2088 0.950 . S
C2086 C2085 1.387 . S
C2086 C2089 1.387 . S
H2087 C2083 0.950 . S
H2088 C2085 0.950 . S
C2089 C2080 1.390 . S
C2089 H2082 0.950 . S
C2089 C2086 1.387 . S
C2090 C2091 1.387 . S
C2090 H2094 0.950 . S
C2090 C2099 1.390 . S
C2091 C2090 1.387 . S
C2091 C2093 1.387 . S
H2092 C2099 0.950 . S
C2093 C2091 1.387 . S
C2093 C2095 1.390 . S
C2093 H2097 0.950 . S
H2094 C2090 0.950 . S
C2095 C2093 1.390 . S
C2095 C2096 1.387 . S
C2095 H2098 0.950 . S
C2096 C2095 1.387 . S
C2096 C2099 1.387 . S
H2097 C2093 0.950 . S
H2098 C2095 0.950 . S
C2099 C2090 1.390 . S
C2099 H2092 0.950 . S
C2099 C2096 1.387 . S
C2100 C2101 1.387 . S
C2100 H2104 0.950 . S
C2100 C2109 1.390 . S
C2101 C2100 1.387 . S
C2101 C2103 1.387 . S
H2102 C2109 0.950 . S
C2103 C2101 1.387 . S
C2103 C2105 1.390 . S
C2103 H2107 0.950 . S
H2104 C2100 0.950 . S
C2105 C2103 1.390 . S
C2105 C2106 1.387 . S
C2105 H2108 0.950 . S
C2106 C2105 1.387 . S
C2106 C2109 1.387 . S
H2107 C2103 0.950 . S
H2108 C2105 0.950 . S
C2109 C2100 1.390 . S
C2109 H2102 0.950 . S
C2109 C2106 1.387 . S
C2110 C2111 1.387 . S
C2110 H2114 0.950 . S
C2110 C2119 1.390 . S
C2111 C2110 1.387 . S
C2111 C2113 1.387 . S
H2112 C2119 0.950 . S
C2113 C2111 1.387 . S
C2113 C2115 1.390 . S
C2113 H2117 0.950 . S
H2114 C2110 0.950 . S
C2115 C2113 1.390 . S
C2115 C2116 1.387 . S
C2115 H2118 0.950 . S
C2116 C2115 1.387 . S
C2116 C2119 1.387 . S
H2117 C2113 0.950 . S
H2118 C2115 0.950 . S
C2119 C2110 1.390 . S
C2119 H2112 0.950 . S
C2119 C2116 1.387 . S
C2120 C2121 1.387 . S
C2120 H2124 0.950 . S
C2120 C2129 1.390 . S
C2121 C2120 1.387 . S
C2121 C2123 1.387 . S
H2122 C2129 0.950 . S
C2123 C2121 1.387 . S
C2123 C2125 1.390 . S
C2123 H2127 0.950 . S
H2124 C2120 0.950 . S
C2125 C2123 1.390 . S
C2125 C2126 1.387 . S
C2125 H2128 0.950 . S
C2126 C2125 1.387 . S
C2126 C2129 1.387 . S
H2127 C2123 0.950 . S
H2128 C2125 0.950 . S
C2129 C2120 1.390 . S
C2129 H2122 0.950 . S
C2129 C2126 1.387 . S
C2130 C2131 1.387 . S
C2130 H2134 0.950 . S
C2130 C2139 1.390 . S
C2131 C2130 1.387 . S
C2131 C2133 1.387 . S
H2132 C2139 0.950 . S
C2133 C2131 1.387 . S
C2133 C2135 1.390 . S
C2133 H2137 0.950 . S
H2134 C2130 0.950 . S
C2135 C2133 1.390 . S
C2135 C2136 1.387 . S
C2135 H2138 0.950 . S
C2136 C2135 1.387 . S
C2136 C2139 1.387 . S
H2137 C2133 0.950 . S
H2138 C2135 0.950 . S
C2139 C2130 1.390 . S
C2139 H2132 0.950 . S
C2139 C2136 1.387 . S
C2140 C2141 1.387 . S
C2140 H2144 0.950 . S
C2140 C2149 1.390 . S
C2141 C2140 1.387 . S
C2141 C2143 1.387 . S
H2142 C2149 0.950 . S
C2143 C2141 1.387 . S
C2143 C2145 1.390 . S
C2143 H2147 0.950 . S
H2144 C2140 0.950 . S
C2145 C2143 1.390 . S
C2145 C2146 1.387 . S
C2145 H2148 0.950 . S
C2146 C2145 1.387 . S
C2146 C2149 1.387 . S
H2147 C2143 0.950 . S
H2148 C2145 0.950 . S
C2149 C2140 1.390 . S
C2149 H2142 0.950 . S
C2149 C2146 1.387 . S
C2150 C2151 1.387 . S
C2150 H2154 0.950 1_545 S
C2150 C2159 1.390 . S
C2151 C2150 1.387 . S
C2151 C2153 1.387 . S
H2152 C2159 0.950 . S
C2153 C2151 1.387 . S
C2153 C2155 1.390 . S
C2153 H2157 0.950 . S
H2154 C2150 0.950 1_565 S
C2155 C2153 1.390 . S
C2155 C2156 1.387 . S
C2155 H2158 0.950 . S
C2156 C2155 1.387 . S
C2156 C2159 1.387 . S
H2157 C2153 0.950 . S
H2158 C2155 0.950 . S
C2159 C2150 1.390 . S
C2159 H2152 0.950 . S
C2159 C2156 1.387 . S
C2160 C2161 1.387 . S
C2160 H2164 0.950 . S
C2160 C2169 1.390 . S
C2161 C2160 1.387 . S
C2161 C2163 1.387 . S
H2162 C2169 0.950 . S
C2163 C2161 1.387 . S
C2163 C2165 1.390 . S
C2163 H2167 0.950 . S
H2164 C2160 0.950 . S
C2165 C2163 1.390 . S
C2165 C2166 1.387 . S
C2165 H2168 0.950 . S
C2166 C2165 1.387 . S
C2166 C2169 1.387 . S
H2167 C2163 0.950 . S
H2168 C2165 0.950 . S
C2169 C2160 1.390 . S
C2169 H2162 0.950 . S
C2169 C2166 1.387 . S
C2170 C2171 1.387 . S
C2170 H2174 0.950 . S
C2170 C2179 1.390 . S
C2171 C2170 1.387 . S
C2171 C2173 1.387 . S
H2172 C2179 0.950 . S
C2173 C2171 1.387 . S
C2173 C2175 1.390 . S
C2173 H2177 0.950 . S
H2174 C2170 0.950 . S
C2175 C2173 1.390 . S
C2175 C2176 1.387 . S
C2175 H2178 0.950 . S
C2176 C2175 1.387 . S
C2176 C2179 1.387 . S
H2177 C2173 0.950 . S
H2178 C2175 0.950 . S
C2179 C2170 1.390 . S
C2179 H2172 0.950 . S
C2179 C2176 1.387 . S
C2180 C2181 1.387 . S
C2180 H2184 0.950 . S
C2180 C2189 1.390 . S
C2181 C2180 1.387 . S
C2181 C2183 1.387 . S
H2182 C2189 0.950 . S
C2183 C2181 1.387 . S
C2183 C2185 1.390 . S
C2183 H2187 0.950 . S
H2184 C2180 0.950 . S
C2185 C2183 1.390 . S
C2185 C2186 1.387 . S
C2185 H2188 0.950 . S
C2186 C2185 1.387 . S
C2186 C2189 1.387 . S
H2187 C2183 0.950 . S
H2188 C2185 0.950 . S
C2189 C2180 1.390 . S
C2189 H2182 0.950 . S
C2189 C2186 1.387 . S
C2190 C2191 1.387 . S
C2190 H2194 0.950 . S
C2190 C2199 1.390 . S
C2191 C2190 1.387 . S
C2191 C2193 1.387 . S
H2192 C2199 0.950 . S
C2193 C2191 1.387 . S
C2193 C2195 1.390 . S
C2193 H2197 0.950 . S
H2194 C2190 0.950 . S
C2195 C2193 1.390 . S
C2195 C2196 1.387 . S
C2195 H2198 0.950 . S
C2196 C2195 1.387 . S
C2196 C2199 1.387 . S
H2197 C2193 0.950 . S
H2198 C2195 0.950 . S
C2199 C2190 1.390 . S
C2199 H2192 0.950 . S
C2199 C2196 1.387 . S
C2200 C2201 1.387 . S
C2200 H2204 0.950 . S
C2200 C2209 1.390 . S
C2201 C2200 1.387 . S
C2201 C2203 1.387 . S
H2202 C2209 0.950 . S
C2203 C2201 1.387 . S
C2203 C2205 1.390 . S
C2203 H2207 0.950 . S
H2204 C2200 0.950 . S
C2205 C2203 1.390 . S
C2205 C2206 1.387 . S
C2205 H2208 0.950 . S
C2206 C2205 1.387 . S
C2206 C2209 1.387 . S
H2207 C2203 0.950 . S
H2208 C2205 0.950 . S
C2209 C2200 1.390 . S
C2209 H2202 0.950 . S
C2209 C2206 1.387 . S
C2210 C2211 1.387 . S
C2210 H2214 0.950 . S
C2210 C2219 1.390 . S
C2211 C2210 1.387 . S
C2211 C2213 1.387 . S
H2212 C2219 0.950 . S
C2213 C2211 1.387 . S
C2213 C2215 1.390 . S
C2213 H2217 0.950 . S
H2214 C2210 0.950 . S
C2215 C2213 1.390 . S
C2215 C2216 1.387 . S
C2215 H2218 0.950 . S
C2216 C2215 1.387 . S
C2216 C2219 1.387 . S
H2217 C2213 0.950 . S
H2218 C2215 0.950 . S
C2219 C2210 1.390 . S
C2219 H2212 0.950 . S
C2219 C2216 1.387 . S
C2220 C2221 1.387 . S
C2220 H2224 0.950 . S
C2220 C2229 1.390 . S
C2221 C2220 1.387 . S
C2221 C2223 1.387 . S
H2222 C2229 0.950 . S
C2223 C2221 1.387 . S
C2223 C2225 1.390 . S
C2223 H2227 0.950 . S
H2224 C2220 0.950 . S
C2225 C2223 1.390 . S
C2225 C2226 1.387 . S
C2225 H2228 0.950 . S
C2226 C2225 1.387 . S
C2226 C2229 1.387 . S
H2227 C2223 0.950 . S
H2228 C2225 0.950 . S
C2229 C2220 1.390 . S
C2229 H2222 0.950 . S
C2229 C2226 1.387 . S
C2230 C2231 1.387 . S
C2230 H2234 0.950 . S
C2230 C2239 1.390 . S
C2231 C2230 1.387 . S
C2231 C2233 1.387 . S
H2232 C2239 0.950 . S
C2233 C2231 1.387 . S
C2233 C2235 1.390 . S
C2233 H2237 0.950 . S
H2234 C2230 0.950 . S
C2235 C2233 1.390 . S
C2235 C2236 1.387 . S
C2235 H2238 0.950 . S
C2236 C2235 1.387 . S
C2236 C2239 1.387 . S
H2237 C2233 0.950 . S
H2238 C2235 0.950 . S
C2239 C2230 1.390 . S
C2239 H2232 0.950 . S
C2239 C2236 1.387 . S
C2240 C2241 1.387 . S
C2240 H2244 0.950 . S
C2240 C2249 1.390 . S
C2241 C2240 1.387 . S
C2241 C2243 1.387 . S
H2242 C2249 0.950 . S
C2243 C2241 1.387 . S
C2243 C2245 1.390 . S
C2243 H2247 0.950 . S
H2244 C2240 0.950 . S
C2245 C2243 1.390 . S
C2245 C2246 1.387 . S
C2245 H2248 0.950 . S
C2246 C2245 1.387 . S
C2246 C2249 1.387 . S
H2247 C2243 0.950 . S
H2248 C2245 0.950 . S
C2249 C2240 1.390 . S
C2249 H2242 0.950 . S
C2249 C2246 1.387 . S
C2250 C2251 1.387 . S
C2250 H2254 0.950 . S
C2250 C2259 1.390 . S
C2251 C2250 1.387 . S
C2251 C2253 1.387 . S
H2252 C2259 0.950 . S
C2253 C2251 1.387 . S
C2253 C2255 1.390 . S
C2253 H2257 0.950 . S
H2254 C2250 0.950 . S
C2255 C2253 1.390 . S
C2255 C2256 1.387 . S
C2255 H2258 0.922 1_556 S
C2256 C2255 1.387 . S
C2256 C2259 1.387 . S
H2257 C2253 0.950 . S
H2258 C2255 0.922 1_554 S
C2259 C2250 1.390 . S
C2259 H2252 0.950 . S
C2259 C2256 1.387 . S
C2260 C2261 1.387 . S
C2260 H2264 0.950 . S
C2260 C2269 1.390 . S
C2261 C2260 1.387 . S
C2261 C2263 1.387 . S
H2262 C2269 0.950 . S
C2263 C2261 1.387 . S
C2263 C2265 1.390 . S
C2263 H2267 0.950 . S
H2264 C2260 0.950 . S
C2265 C2263 1.390 . S
C2265 C2266 1.387 . S
C2265 H2268 0.950 . S
C2266 C2265 1.387 . S
C2266 C2269 1.387 . S
H2267 C2263 0.950 . S
H2268 C2265 0.950 . S
C2269 C2260 1.390 . S
C2269 H2262 0.950 . S
C2269 C2266 1.387 . S
C2270 C2271 1.387 . S
C2270 H2274 0.950 . S
C2270 C2279 1.390 . S
C2271 C2270 1.387 . S
C2271 C2273 1.387 . S
H2272 C2279 0.950 . S
C2273 C2271 1.387 . S
C2273 C2275 1.390 . S
C2273 H2277 0.950 . S
H2274 C2270 0.950 . S
C2275 C2273 1.390 . S
C2275 C2276 1.387 . S
C2275 H2278 0.950 . S
C2276 C2275 1.387 . S
C2276 C2279 1.387 . S
H2277 C2273 0.950 . S
H2278 C2275 0.950 . S
C2279 C2270 1.390 . S
C2279 H2272 0.950 . S
C2279 C2276 1.387 . S
C2280 C2281 1.387 . S
C2280 H2284 0.950 . S
C2280 C2289 1.390 . S
C2281 C2280 1.387 . S
C2281 C2283 1.387 . S
H2282 C2289 0.950 . S
C2283 C2281 1.387 . S
C2283 C2285 1.390 . S
C2283 H2287 0.950 . S
H2284 C2280 0.950 . S
C2285 C2283 1.390 . S
C2285 C2286 1.387 . S
C2285 H2288 0.950 . S
C2286 C2285 1.387 . S
C2286 C2289 1.387 . S
H2287 C2283 0.950 . S
H2288 C2285 0.950 . S
C2289 C2280 1.390 . S
C2289 H2282 0.950 . S
C2289 C2286 1.387 . S
C2290 C2291 1.387 . S
C2290 H2294 0.950 . S
C2290 C2299 1.390 . S
C2291 C2290 1.387 . S
C2291 C2293 1.387 . S
H2292 C2299 0.950 . S
C2293 C2291 1.387 . S
C2293 C2295 1.390 . S
C2293 H2297 0.950 . S
H2294 C2290 0.950 . S
C2295 C2293 1.390 . S
C2295 C2296 1.387 . S
C2295 H2298 0.950 . S
C2296 C2295 1.387 . S
C2296 C2299 1.387 . S
H2297 C2293 0.950 . S
H2298 C2295 0.950 . S
C2299 C2290 1.390 . S
C2299 H2292 0.950 . S
C2299 C2296 1.387 . S
C2300 C2301 1.387 . S
C2300 H2304 0.950 . S
C2300 C2309 1.390 . S
C2301 C2300 1.387 . S
C2301 C2303 1.387 . S
H2302 C2309 0.950 . S
C2303 C2301 1.387 . S
C2303 C2305 1.390 . S
C2303 H2307 0.950 . S
H2304 C2300 0.950 . S
C2305 C2303 1.390 . S
C2305 C2306 1.387 . S
C2305 H2308 0.950 . S
C2306 C2305 1.387 . S
C2306 C2309 1.387 . S
H2307 C2303 0.950 . S
H2308 C2305 0.950 . S
C2309 C2300 1.390 . S
C2309 H2302 0.950 . S
C2309 C2306 1.387 . S
C2310 C2311 1.387 . S
C2310 H2314 0.950 . S
C2310 C2319 1.390 . S
C2311 C2310 1.387 . S
C2311 C2313 1.387 . S
H2312 C2319 0.950 . S
C2313 C2311 1.387 . S
C2313 C2315 1.390 . S
C2313 H2317 0.950 . S
H2314 C2310 0.950 . S
C2315 C2313 1.390 . S
C2315 C2316 1.387 . S
C2315 H2318 0.950 . S
C2316 C2315 1.387 . S
C2316 C2319 1.387 . S
H2317 C2313 0.950 . S
H2318 C2315 0.950 . S
C2319 C2310 1.390 . S
C2319 H2312 0.950 . S
C2319 C2316 1.387 . S
C2320 C2321 1.387 . S
C2320 H2324 0.950 . S
C2320 C2329 1.390 . S
C2321 C2320 1.387 . S
C2321 C2323 1.387 . S
H2322 C2329 0.950 . S
C2323 C2321 1.387 . S
C2323 C2325 1.390 . S
C2323 H2327 0.950 . S
H2324 C2320 0.950 . S
C2325 C2323 1.390 . S
C2325 C2326 1.387 . S
C2325 H2328 0.950 . S
C2326 C2325 1.387 . S
C2326 C2329 1.387 . S
H2327 C2323 0.950 . S
H2328 C2325 0.950 . S
C2329 C2320 1.390 . S
C2329 H2322 0.950 . S
C2329 C2326 1.387 . S
C2330 C2331 1.387 . S
C2330 H2334 0.950 . S
C2330 C2339 1.390 . S
C2331 C2330 1.387 . S
C2331 C2333 1.387 . S
H2332 C2339 0.950 . S
C2333 C2331 1.387 . S
C2333 C2335 1.390 . S
C2333 H2337 0.950 . S
H2334 C2330 0.950 . S
C2335 C2333 1.390 . S
C2335 C2336 1.387 . S
C2335 H2338 0.950 . S
C2336 C2335 1.387 . S
C2336 C2339 1.387 . S
H2337 C2333 0.950 . S
H2338 C2335 0.950 . S
C2339 C2330 1.390 . S
C2339 H2332 0.950 . S
C2339 C2336 1.387 . S
C2340 C2341 1.387 . S
C2340 H2344 0.950 . S
C2340 C2349 1.390 . S
C2341 C2340 1.387 . S
C2341 C2343 1.387 . S
H2342 C2349 0.950 . S
C2343 C2341 1.387 . S
C2343 C2345 1.390 . S
C2343 H2347 0.950 . S
H2344 C2340 0.950 . S
C2345 C2343 1.390 . S
C2345 C2346 1.387 . S
C2345 H2348 0.950 . S
C2346 C2345 1.387 . S
C2346 C2349 1.387 . S
H2347 C2343 0.950 . S
H2348 C2345 0.950 . S
C2349 C2340 1.390 . S
C2349 H2342 0.950 . S
C2349 C2346 1.387 . S
C2350 C2351 1.387 . S
C2350 H2354 0.950 . S
C2350 C2359 1.390 . S
C2351 C2350 1.387 . S
C2351 C2353 1.387 . S
H2352 C2359 0.950 . S
C2353 C2351 1.387 . S
C2353 C2355 1.390 . S
C2353 H2357 0.950 . S
H2354 C2350 0.950 . S
C2355 C2353 1.390 . S
C2355 C2356 1.387 . S
C2355 H2358 0.950 . S
C2356 C2355 1.387 . S
C2356 C2359 1.387 . S
H2357 C2353 0.950 . S
H2358 C2355 0.950 . S
C2359 C2350 1.390 . S
C2359 H2352 0.950 . S
C2359 C2356 1.387 . S
C2360 C2361 1.387 . S
C2360 H2364 0.950 . S
C2360 C2369 1.390 . S
C2361 C2360 1.387 . S
C2361 C2363 1.387 . S
H2362 C2369 0.950 . S
C2363 C2361 1.387 . S
C2363 C2365 1.390 . S
C2363 H2367 0.950 . S
H2364 C2360 0.950 . S
C2365 C2363 1.390 . S
C2365 C2366 1.387 . S
C2365 H2368 0.950 . S
C2366 C2365 1.387 . S
C2366 C2369 1.387 . S
H2367 C2363 0.950 . S
H2368 C2365 0.950 . S
C2369 C2360 1.390 . S
C2369 H2362 0.950 . S
C2369 C2366 1.387 . S
C2370 C2371 1.387 . S
C2370 H2374 0.950 . S
C2370 C2379 1.390 . S
C2371 C2370 1.387 . S
C2371 C2373 1.387 . S
H2372 C2379 0.950 . S
C2373 C2371 1.387 . S
C2373 C2375 1.390 . S
C2373 H2377 0.950 . S
H2374 C2370 0.950 . S
C2375 C2373 1.390 . S
C2375 C2376 1.387 . S
C2375 H2378 0.950 . S
C2376 C2375 1.387 . S
C2376 C2379 1.387 . S
H2377 C2373 0.950 . S
H2378 C2375 0.950 . S
C2379 C2370 1.390 . S
C2379 H2372 0.950 . S
C2379 C2376 1.387 . S
C2380 C2381 1.387 . S
C2380 H2384 0.950 . S
C2380 C2389 1.390 . S
C2381 C2380 1.387 . S
C2381 C2383 1.387 . S
H2382 C2389 0.950 . S
C2383 C2381 1.387 . S
C2383 C2385 1.390 . S
C2383 H2387 0.950 . S
H2384 C2380 0.950 . S
C2385 C2383 1.390 . S
C2385 C2386 1.387 . S
C2385 H2388 0.950 . S
C2386 C2385 1.387 . S
C2386 C2389 1.387 . S
H2387 C2383 0.950 . S
H2388 C2385 0.950 . S
C2389 C2380 1.390 . S
C2389 H2382 0.950 . S
C2389 C2386 1.387 . S
C2390 C2391 1.387 . S
C2390 H2394 0.950 1_565 S
C2390 C2399 1.390 . S
C2391 C2390 1.387 . S
C2391 C2393 1.387 . S
H2392 C2399 0.950 . S
C2393 C2391 1.387 . S
C2393 C2395 1.390 . S
C2393 H2397 0.950 . S
H2394 C2390 0.950 1_545 S
C2395 C2393 1.390 . S
C2395 C2396 1.387 . S
C2395 H2398 0.950 . S
C2396 C2395 1.387 . S
C2396 C2399 1.387 . S
H2397 C2393 0.950 . S
H2398 C2395 0.950 . S
C2399 C2390 1.390 . S
C2399 H2392 0.950 . S
C2399 C2396 1.387 . S
C961 C8 2.624 . S
C966 C99 2.496 . S
C971 C39 2.706 . S
C976 C109 2.418 . S
C981 C139 2.241 . S
C986 C49 2.069 . S
C991 C159 1.940 . S
C996 C69 1.755 . S
C1001 C179 2.236 . S
C1006 C199 2.223 . S
C1011 C189 2.066 . S
C1016 C219 2.232 . S
C1021 C229 1.988 1_545 S
C1026 C209 1.971 . S
C1031 C239 2.142 . S
C1036 C169 1.993 . S
C1041 C249 2.305 . S
C1046 C79 2.510 . S
C1051 C149 1.735 . S
C1056 C679 1.951 . S
C1061 C89 2.033 . S
C1066 C269 2.003 . S
C1071 C119 1.951 . S
C1076 C689 1.735 . S
C1081 C29 2.308 . S
C1086 C299 2.512 . S
C1091 C639 2.248 . S
C1096 C2 2.146 . S
C1101 C602 2.146 . S
C1106 C59 2.248 . S
C1111 C398 2.498 . S
C1116 C309 2.624 . S
C1121 C338 2.706 . S
C1126 C408 2.417 . S
C1131 C348 2.073 . S
C1136 C438 2.244 . S
C1141 C368 1.750 . S
C1146 C458 1.937 . S
C1151 C498 2.226 . S
C1156 C478 2.239 . S
C1161 C488 2.067 . S
C1166 C518 2.232 . S
C1171 C528 1.984 1_565 S
C1176 C508 1.967 . S
C1181 C468 1.992 . S
C1186 C538 2.142 . S
C1191 C378 2.512 . S
C1196 C548 2.308 . S
C1201 C858 1.951 . S
C1206 C448 1.735 . S
C1211 C568 2.007 . S
C1216 C388 2.037 . S
C1221 C418 1.948 . S
C1226 C868 1.730 . S
C1231 C598 2.512 . S
C1236 C328 2.308 . S
C1241 C301 2.146 . S
C1246 C818 2.248 . S
C1251 C358 2.245 . S
C1256 C781 2.142 . S
C1261 C659 2.496 . S
C1266 C608 2.624 . S
C1271 C669 2.414 . S
C1276 C259 2.705 . S
C1281 C629 2.069 . S
C1286 C279 2.241 . S
C1291 C699 1.937 . S
C1296 C289 1.750 . S
C1301 C719 2.239 . S
C1306 C739 2.226 . S
C1311 C729 2.064 . S
C1316 C759 2.231 . S
C1321 C769 1.987 . S
C1326 C749 1.970 . S
C1331 C709 1.991 . S
C1336 C779 2.141 . S
C1341 C129 2.007 . S
C1346 C649 2.037 . S
C1351 C838 2.497 . S
C1356 C789 2.624 . S
C1361 C848 2.414 . S
C1366 C558 2.705 . S
C1371 C578 2.243 . S
C1376 C808 2.072 . S
C1381 C878 1.938 . S
C1386 C588 1.751 . S
C1391 C898 2.239 . S
C1396 C918 2.226 . S
C1401 C908 2.064 . S
C1406 C938 2.230 . S
C1411 C928 1.972 . S
C1416 C948 1.988 . S
C1421 C958 2.143 . S
C1426 C888 1.992 . S
C1431 C828 2.033 . S
C1436 C428 2.003 . S
C1441 C9 0.660 . S
C1446 C321 0.650 . S
C1451 C802 1.119 . S
C1456 C38 1.083 . S
C1461 C48 0.689 . S
C1466 C362 0.699 . S
C1471 C68 1.305 . S
C1476 C799 1.306 . S
C1481 C98 1.335 . S
C1486 C441 1.418 . S
C1491 C108 1.252 . S
C1496 C821 1.261 . S
C1501 C138 1.409 . S
C1506 C402 1.392 . S
C1511 C561 1.133 . S
C1516 C158 1.066 . S
C1521 C178 1.102 . S
C1526 C798 1.165 . S
C1531 C188 0.705 . S
C1536 C322 0.721 . S
C1541 C208 0.846 . S
C1546 C801 0.851 . S
C1551 C361 1.187 . S
C1556 C238 1.139 . S
C1561 C822 1.387 . S
C1566 C228 1.567 . S
C1571 C401 0.808 . S
C1576 C168 0.803 . S
C1581 C198 1.132 . S
C1586 C562 1.141 . S
C1591 C442 1.489 . S
C1596 C218 1.494 . S
C1601 C882 0.829 . S
C1606 C248 0.849 . S
C1611 C521 1.073 . S
C1616 C148 1.064 . S
C1621 C88 0.717 . S
C1626 C881 0.718 . S
C1631 C118 0.940 . S
C1636 C482 0.968 . S
C1641 C268 1.478 . S
C1646 C502 1.337 . S
C1651 C921 1.081 . S
C1656 C298 1.021 . S
C1661 C1 0.903 . S
C1666 C942 0.902 . S
C1671 C58 0.855 . S
C1676 C901 0.870 . S
C1681 C22 0.650 . S
C1686 C308 0.662 . S
C1691 C339 1.083 . S
C1696 C621 1.118 . S
C1701 C349 0.688 . S
C1706 C61 0.698 . S
C1711 C369 1.305 . S
C1716 C618 1.306 . S
C1721 C142 1.418 . S
C1726 C399 1.335 . S
C1731 C642 1.261 . S
C1736 C409 1.253 . S
C1741 C101 1.391 . S
C1746 C439 1.408 . S
C1751 C459 1.062 . S
C1756 C262 1.132 . S
C1761 C479 1.100 . S
C1766 C619 1.164 . S
C1771 C21 0.717 . S
C1776 C489 0.701 . S
C1781 C509 0.846 . S
C1786 C622 0.851 . S
C1791 C62 1.187 . S
C1796 C539 1.134 . S
C1801 C641 1.387 . S
C1806 C529 1.567 . S
C1811 C469 0.807 . S
C1816 C102 0.810 . S
C1821 C499 1.133 . S
C1826 C261 1.142 . S
C1831 C141 1.489 . S
C1836 C519 1.494 . S
C1841 C549 0.852 . S
C1846 C701 0.836 . S
C1851 C222 1.071 . S
C1856 C449 1.061 . S
C1861 C702 0.716 . S
C1866 C389 0.715 . S
C1871 C419 0.940 . S
C1876 C181 0.969 . S
C1881 C569 1.478 . S
C1886 C201 1.340 . S
C1891 C742 1.081 . S
C1896 C599 1.021 . S
C1901 C302 0.899 . S
C1906 C761 0.903 . S
C1911 C722 0.871 . S
C1916 C359 0.858 . S
C1921 C541 0.647 . S
C1926 C609 0.667 . S
C1931 C258 1.078 . S
C1936 C342 1.115 . S
C1941 C582 0.700 . S
C1946 C628 0.689 . S
C1951 C288 1.304 . S
C1956 C319 1.306 . S
C1961 C658 1.335 . S
C1966 C861 1.419 . S
C1971 C381 1.260 . S
C1976 C668 1.252 . S
C1981 C278 1.408 . S
C1986 C842 1.391 . S
C1991 C421 1.133 . S
C1996 C698 1.067 . S
C2001 C718 1.102 . S
C2006 C318 1.164 . S
C2011 C728 0.703 . S
C2016 C542 0.719 . S
C2021 C748 0.846 . S
C2026 C341 0.851 . S
C2031 C581 1.188 . S
C2036 C778 1.136 . S
C2041 C382 1.386 . S
C2046 C768 1.567 . S
C2051 C708 0.806 . S
C2056 C841 0.809 . S
C2061 C422 1.142 . S
C2066 C738 1.134 . S
C2071 C758 1.494 . S
C2076 C862 1.488 . S
C2081 C28 0.849 . S
C2086 C462 0.829 . S
C2091 C941 1.072 . S
C2096 C688 1.061 . S
C2101 C648 0.717 . S
C2106 C461 0.718 . S
C2111 C678 0.934 . S
C2116 C902 0.965 . S
C2121 C922 1.340 . S
C2126 C128 1.479 . S
C2131 C501 1.080 . S
C2136 C78 1.016 . S
C2141 C601 0.900 . S
C2146 C522 0.903 . S
C2151 C481 0.872 . S
C2156 C638 0.855 . S
C2161 C242 0.650 . S
C2166 C788 0.661 . S
C2171 C559 1.080 . S
C2176 C41 1.115 . S
C2181 C281 0.702 . S
C2186 C809 0.688 . S
C2191 C589 1.303 . S
C2196 C18 1.304 . S
C2201 C839 1.336 . S
C2206 C682 1.419 . S
C2211 C82 1.261 . S
C2216 C849 1.254 . S
C2221 C661 1.389 . S
C2226 C579 1.409 . S
C2231 C122 1.133 . S
C2236 C879 1.067 . S
C2241 C19 1.164 . S
C2246 C899 1.101 . S
C2251 C909 0.703 . S
C2256 C241 0.718 . S
C2261 C42 0.851 . S
C2266 C929 0.847 . S
C2271 C282 1.188 . S
C2276 C959 1.139 . S
C2281 C81 1.387 . S
C2286 C949 1.567 . S
C2291 C662 0.809 . S
C2296 C889 0.807 . S
C2301 C919 1.133 . S
C2306 C121 1.139 . S
C2311 C681 1.488 . S
C2316 C939 1.494 . S
C2321 C161 0.836 . S
C2326 C329 0.852 . S
C2331 C869 1.062 . S
C2336 C762 1.071 . S
C2341 C829 0.717 . S
C2346 C162 0.718 . S
C2351 C721 0.964 . S
C2356 C859 0.936 . S
C2361 C429 1.478 . S
C2366 C741 1.340 . S
C2371 C379 1.015 . S
C2376 C202 1.080 . S
C2381 C221 0.903 . S
C2386 C782 0.900 . S
C2391 C182 0.870 . S
C2396 C819 0.855 . S
