# Generated by pormake.
# Topology rho, (4)-cn, num edge types: 1
# Building blocks:
#     Node 0, Type 0, BuildingBlock: AZAVOO_clean_sbu_0, # of connection points: 4
#     Node 1, Type 0, BuildingBlock: AZAVOO_clean_sbu_0, # of connection points: 4
#     Node 2, Type 0, BuildingBlock: AZAVOO_clean_sbu_0, # of connection points: 4
#     Node 3, Type 0, BuildingBlock: AZAVOO_clean_sbu_0, # of connection points: 4
#     Node 4, Type 0, BuildingBlock: AZAVOO_clean_sbu_0, # of connection points: 4
#     Node 5, Type 0, BuildingBlock: AZAVOO_clean_sbu_0, # of connection points: 4
#     Node 6, Type 0, BuildingBlock: AZAVOO_clean_sbu_0, # of connection points: 4
#     Node 7, Type 0, BuildingBlock: AZAVOO_clean_sbu_0, # of connection points: 4
#     Node 8, Type 0, BuildingBlock: AZAVOO_clean_sbu_0, # of connection points: 4
#     Node 9, Type 0, BuildingBlock: AZAVOO_clean_sbu_0, # of connection points: 4
#     Node 10, Type 0, BuildingBlock: AZAVOO_clean_sbu_0, # of connection points: 4
#     Node 11, Type 0, BuildingBlock: AZAVOO_clean_sbu_0, # of connection points: 4
#     Node 12, Type 0, BuildingBlock: AZAVOO_clean_sbu_0, # of connection points: 4
#     Node 13, Type 0, BuildingBlock: AZAVOO_clean_sbu_0, # of connection points: 4
#     Node 14, Type 0, BuildingBlock: AZAVOO_clean_sbu_0, # of connection points: 4
#     Node 15, Type 0, BuildingBlock: AZAVOO_clean_sbu_0, # of connection points: 4
#     Node 16, Type 0, BuildingBlock: AZAVOO_clean_sbu_0, # of connection points: 4
#     Node 17, Type 0, BuildingBlock: AZAVOO_clean_sbu_0, # of connection points: 4
#     Node 18, Type 0, BuildingBlock: AZAVOO_clean_sbu_0, # of connection points: 4
#     Node 19, Type 0, BuildingBlock: AZAVOO_clean_sbu_0, # of connection points: 4
#     Node 20, Type 0, BuildingBlock: AZAVOO_clean_sbu_0, # of connection points: 4
#     Node 21, Type 0, BuildingBlock: AZAVOO_clean_sbu_0, # of connection points: 4
#     Node 22, Type 0, BuildingBlock: AZAVOO_clean_sbu_0, # of connection points: 4
#     Node 23, Type 0, BuildingBlock: AZAVOO_clean_sbu_0, # of connection points: 4
#     Node 24, Type 0, BuildingBlock: AZAVOO_clean_sbu_0, # of connection points: 4
#     Node 25, Type 0, BuildingBlock: AZAVOO_clean_sbu_0, # of connection points: 4
#     Node 26, Type 0, BuildingBlock: AZAVOO_clean_sbu_0, # of connection points: 4
#     Node 27, Type 0, BuildingBlock: AZAVOO_clean_sbu_0, # of connection points: 4
#     Node 28, Type 0, BuildingBlock: AZAVOO_clean_sbu_0, # of connection points: 4
#     Node 29, Type 0, BuildingBlock: AZAVOO_clean_sbu_0, # of connection points: 4
#     Node 30, Type 0, BuildingBlock: AZAVOO_clean_sbu_0, # of connection points: 4
#     Node 31, Type 0, BuildingBlock: AZAVOO_clean_sbu_0, # of connection points: 4
#     Node 32, Type 0, BuildingBlock: AZAVOO_clean_sbu_0, # of connection points: 4
#     Node 33, Type 0, BuildingBlock: AZAVOO_clean_sbu_0, # of connection points: 4
#     Node 34, Type 0, BuildingBlock: AZAVOO_clean_sbu_0, # of connection points: 4
#     Node 35, Type 0, BuildingBlock: AZAVOO_clean_sbu_0, # of connection points: 4
#     Node 36, Type 0, BuildingBlock: AZAVOO_clean_sbu_0, # of connection points: 4
#     Node 37, Type 0, BuildingBlock: AZAVOO_clean_sbu_0, # of connection points: 4
#     Node 38, Type 0, BuildingBlock: AZAVOO_clean_sbu_0, # of connection points: 4
#     Node 39, Type 0, BuildingBlock: AZAVOO_clean_sbu_0, # of connection points: 4
#     Node 40, Type 0, BuildingBlock: AZAVOO_clean_sbu_0, # of connection points: 4
#     Node 41, Type 0, BuildingBlock: AZAVOO_clean_sbu_0, # of connection points: 4
#     Node 42, Type 0, BuildingBlock: AZAVOO_clean_sbu_0, # of connection points: 4
#     Node 43, Type 0, BuildingBlock: AZAVOO_clean_sbu_0, # of connection points: 4
#     Node 44, Type 0, BuildingBlock: AZAVOO_clean_sbu_0, # of connection points: 4
#     Node 45, Type 0, BuildingBlock: AZAVOO_clean_sbu_0, # of connection points: 4
#     Node 46, Type 0, BuildingBlock: AZAVOO_clean_sbu_0, # of connection points: 4
#     Node 47, Type 0, BuildingBlock: AZAVOO_clean_sbu_0, # of connection points: 4
#     Edge 48, Type (0, 0), BuildingBlock: CIFDUS_clean_linker_0, # of connection points: 2
#     Edge 49, Type (0, 0), BuildingBlock: CIFDUS_clean_linker_0, # of connection points: 2
#     Edge 50, Type (0, 0), BuildingBlock: CIFDUS_clean_linker_0, # of connection points: 2
#     Edge 51, Type (0, 0), BuildingBlock: CIFDUS_clean_linker_0, # of connection points: 2
#     Edge 52, Type (0, 0), BuildingBlock: CIFDUS_clean_linker_0, # of connection points: 2
#     Edge 53, Type (0, 0), BuildingBlock: CIFDUS_clean_linker_0, # of connection points: 2
#     Edge 54, Type (0, 0), BuildingBlock: CIFDUS_clean_linker_0, # of connection points: 2
#     Edge 55, Type (0, 0), BuildingBlock: CIFDUS_clean_linker_0, # of connection points: 2
#     Edge 56, Type (0, 0), BuildingBlock: CIFDUS_clean_linker_0, # of connection points: 2
#     Edge 57, Type (0, 0), BuildingBlock: CIFDUS_clean_linker_0, # of connection points: 2
#     Edge 58, Type (0, 0), BuildingBlock: CIFDUS_clean_linker_0, # of connection points: 2
#     Edge 59, Type (0, 0), BuildingBlock: CIFDUS_clean_linker_0, # of connection points: 2
#     Edge 60, Type (0, 0), BuildingBlock: CIFDUS_clean_linker_0, # of connection points: 2
#     Edge 61, Type (0, 0), BuildingBlock: CIFDUS_clean_linker_0, # of connection points: 2
#     Edge 62, Type (0, 0), BuildingBlock: CIFDUS_clean_linker_0, # of connection points: 2
#     Edge 63, Type (0, 0), BuildingBlock: CIFDUS_clean_linker_0, # of connection points: 2
#     Edge 64, Type (0, 0), BuildingBlock: CIFDUS_clean_linker_0, # of connection points: 2
#     Edge 65, Type (0, 0), BuildingBlock: CIFDUS_clean_linker_0, # of connection points: 2
#     Edge 66, Type (0, 0), BuildingBlock: CIFDUS_clean_linker_0, # of connection points: 2
#     Edge 67, Type (0, 0), BuildingBlock: CIFDUS_clean_linker_0, # of connection points: 2
#     Edge 68, Type (0, 0), BuildingBlock: CIFDUS_clean_linker_0, # of connection points: 2
#     Edge 69, Type (0, 0), BuildingBlock: CIFDUS_clean_linker_0, # of connection points: 2
#     Edge 70, Type (0, 0), BuildingBlock: CIFDUS_clean_linker_0, # of connection points: 2
#     Edge 71, Type (0, 0), BuildingBlock: CIFDUS_clean_linker_0, # of connection points: 2
#     Edge 72, Type (0, 0), BuildingBlock: CIFDUS_clean_linker_0, # of connection points: 2
#     Edge 73, Type (0, 0), BuildingBlock: CIFDUS_clean_linker_0, # of connection points: 2
#     Edge 74, Type (0, 0), BuildingBlock: CIFDUS_clean_linker_0, # of connection points: 2
#     Edge 75, Type (0, 0), BuildingBlock: CIFDUS_clean_linker_0, # of connection points: 2
#     Edge 76, Type (0, 0), BuildingBlock: CIFDUS_clean_linker_0, # of connection points: 2
#     Edge 77, Type (0, 0), BuildingBlock: CIFDUS_clean_linker_0, # of connection points: 2
#     Edge 78, Type (0, 0), BuildingBlock: CIFDUS_clean_linker_0, # of connection points: 2
#     Edge 79, Type (0, 0), BuildingBlock: CIFDUS_clean_linker_0, # of connection points: 2
#     Edge 80, Type (0, 0), BuildingBlock: CIFDUS_clean_linker_0, # of connection points: 2
#     Edge 81, Type (0, 0), BuildingBlock: CIFDUS_clean_linker_0, # of connection points: 2
#     Edge 82, Type (0, 0), BuildingBlock: CIFDUS_clean_linker_0, # of connection points: 2
#     Edge 83, Type (0, 0), BuildingBlock: CIFDUS_clean_linker_0, # of connection points: 2
#     Edge 84, Type (0, 0), BuildingBlock: CIFDUS_clean_linker_0, # of connection points: 2
#     Edge 85, Type (0, 0), BuildingBlock: CIFDUS_clean_linker_0, # of connection points: 2
#     Edge 86, Type (0, 0), BuildingBlock: CIFDUS_clean_linker_0, # of connection points: 2
#     Edge 87, Type (0, 0), BuildingBlock: CIFDUS_clean_linker_0, # of connection points: 2
#     Edge 88, Type (0, 0), BuildingBlock: CIFDUS_clean_linker_0, # of connection points: 2
#     Edge 89, Type (0, 0), BuildingBlock: CIFDUS_clean_linker_0, # of connection points: 2
#     Edge 90, Type (0, 0), BuildingBlock: CIFDUS_clean_linker_0, # of connection points: 2
#     Edge 91, Type (0, 0), BuildingBlock: CIFDUS_clean_linker_0, # of connection points: 2
#     Edge 92, Type (0, 0), BuildingBlock: CIFDUS_clean_linker_0, # of connection points: 2
#     Edge 93, Type (0, 0), BuildingBlock: CIFDUS_clean_linker_0, # of connection points: 2
#     Edge 94, Type (0, 0), BuildingBlock: CIFDUS_clean_linker_0, # of connection points: 2
#     Edge 95, Type (0, 0), BuildingBlock: CIFDUS_clean_linker_0, # of connection points: 2
#     Edge 96, Type (0, 0), BuildingBlock: CIFDUS_clean_linker_0, # of connection points: 2
#     Edge 97, Type (0, 0), BuildingBlock: CIFDUS_clean_linker_0, # of connection points: 2
#     Edge 98, Type (0, 0), BuildingBlock: CIFDUS_clean_linker_0, # of connection points: 2
#     Edge 99, Type (0, 0), BuildingBlock: CIFDUS_clean_linker_0, # of connection points: 2
#     Edge 100, Type (0, 0), BuildingBlock: CIFDUS_clean_linker_0, # of connection points: 2
#     Edge 101, Type (0, 0), BuildingBlock: CIFDUS_clean_linker_0, # of connection points: 2
#     Edge 102, Type (0, 0), BuildingBlock: CIFDUS_clean_linker_0, # of connection points: 2
#     Edge 103, Type (0, 0), BuildingBlock: CIFDUS_clean_linker_0, # of connection points: 2
#     Edge 104, Type (0, 0), BuildingBlock: CIFDUS_clean_linker_0, # of connection points: 2
#     Edge 105, Type (0, 0), BuildingBlock: CIFDUS_clean_linker_0, # of connection points: 2
#     Edge 106, Type (0, 0), BuildingBlock: CIFDUS_clean_linker_0, # of connection points: 2
#     Edge 107, Type (0, 0), BuildingBlock: CIFDUS_clean_linker_0, # of connection points: 2
#     Edge 108, Type (0, 0), BuildingBlock: CIFDUS_clean_linker_0, # of connection points: 2
#     Edge 109, Type (0, 0), BuildingBlock: CIFDUS_clean_linker_0, # of connection points: 2
#     Edge 110, Type (0, 0), BuildingBlock: CIFDUS_clean_linker_0, # of connection points: 2
#     Edge 111, Type (0, 0), BuildingBlock: CIFDUS_clean_linker_0, # of connection points: 2
#     Edge 112, Type (0, 0), BuildingBlock: CIFDUS_clean_linker_0, # of connection points: 2
#     Edge 113, Type (0, 0), BuildingBlock: CIFDUS_clean_linker_0, # of connection points: 2
#     Edge 114, Type (0, 0), BuildingBlock: CIFDUS_clean_linker_0, # of connection points: 2
#     Edge 115, Type (0, 0), BuildingBlock: CIFDUS_clean_linker_0, # of connection points: 2
#     Edge 116, Type (0, 0), BuildingBlock: CIFDUS_clean_linker_0, # of connection points: 2
#     Edge 117, Type (0, 0), BuildingBlock: CIFDUS_clean_linker_0, # of connection points: 2
#     Edge 118, Type (0, 0), BuildingBlock: CIFDUS_clean_linker_0, # of connection points: 2
#     Edge 119, Type (0, 0), BuildingBlock: CIFDUS_clean_linker_0, # of connection points: 2
#     Edge 120, Type (0, 0), BuildingBlock: CIFDUS_clean_linker_0, # of connection points: 2
#     Edge 121, Type (0, 0), BuildingBlock: CIFDUS_clean_linker_0, # of connection points: 2
#     Edge 122, Type (0, 0), BuildingBlock: CIFDUS_clean_linker_0, # of connection points: 2
#     Edge 123, Type (0, 0), BuildingBlock: CIFDUS_clean_linker_0, # of connection points: 2
#     Edge 124, Type (0, 0), BuildingBlock: CIFDUS_clean_linker_0, # of connection points: 2
#     Edge 125, Type (0, 0), BuildingBlock: CIFDUS_clean_linker_0, # of connection points: 2
#     Edge 126, Type (0, 0), BuildingBlock: CIFDUS_clean_linker_0, # of connection points: 2
#     Edge 127, Type (0, 0), BuildingBlock: CIFDUS_clean_linker_0, # of connection points: 2
#     Edge 128, Type (0, 0), BuildingBlock: CIFDUS_clean_linker_0, # of connection points: 2
#     Edge 129, Type (0, 0), BuildingBlock: CIFDUS_clean_linker_0, # of connection points: 2
#     Edge 130, Type (0, 0), BuildingBlock: CIFDUS_clean_linker_0, # of connection points: 2
#     Edge 131, Type (0, 0), BuildingBlock: CIFDUS_clean_linker_0, # of connection points: 2
#     Edge 132, Type (0, 0), BuildingBlock: CIFDUS_clean_linker_0, # of connection points: 2
#     Edge 133, Type (0, 0), BuildingBlock: CIFDUS_clean_linker_0, # of connection points: 2
#     Edge 134, Type (0, 0), BuildingBlock: CIFDUS_clean_linker_0, # of connection points: 2
#     Edge 135, Type (0, 0), BuildingBlock: CIFDUS_clean_linker_0, # of connection points: 2
#     Edge 136, Type (0, 0), BuildingBlock: CIFDUS_clean_linker_0, # of connection points: 2
#     Edge 137, Type (0, 0), BuildingBlock: CIFDUS_clean_linker_0, # of connection points: 2
#     Edge 138, Type (0, 0), BuildingBlock: CIFDUS_clean_linker_0, # of connection points: 2
#     Edge 139, Type (0, 0), BuildingBlock: CIFDUS_clean_linker_0, # of connection points: 2
#     Edge 140, Type (0, 0), BuildingBlock: CIFDUS_clean_linker_0, # of connection points: 2
#     Edge 141, Type (0, 0), BuildingBlock: CIFDUS_clean_linker_0, # of connection points: 2
#     Edge 142, Type (0, 0), BuildingBlock: CIFDUS_clean_linker_0, # of connection points: 2
#     Edge 143, Type (0, 0), BuildingBlock: CIFDUS_clean_linker_0, # of connection points: 2
# Relax obj value: 0.211
# Max RMSD: 0.251
# Mean RMSD: 0.232
data_MOF--net-rho--node1-AZAVOO_clean_sbu_0--edge1-CIFDUS_clean_linker_0
_symmetry_space_group_name_H-M    P1
_symmetry_Int_Tables_number       1
_symmetry_cell_setting            triclinic
loop_
_symmetry_equiv_pos_as_xyz
'x, y, z'
_cell_length_a     63.832518
_cell_length_b     62.847975
_cell_length_c     62.5101
_cell_angle_alpha  89.738645
_cell_angle_beta   90.11046
_cell_angle_gamma 90.249161
loop_
_atom_site_label
_atom_site_type_symbol
_atom_site_fract_x
_atom_site_fract_y
_atom_site_fract_z
_atom_type_partial_charge
Mg0 Mg 0.10565 0.25066 0.43204 0.0
O1 O 0.07023 0.24663 0.4259 0.0
O2 O 0.05896 0.21853 0.44468 0.0
Mg3 Mg 0.08689 0.20432 0.4624 0.0
C4 C 0.05559 0.23401 0.43187 0.0
C5 C 0.12043 0.27597 0.38966 0.0
O6 O 0.13428 0.26075 0.38744 0.0
O7 O 0.11262 0.2228 0.40972 0.0
O8 O 0.10144 0.19567 0.43 0.0
O9 O 0.09865 0.27021 0.46084 0.0
O10 O 0.10283 0.23535 0.46171 0.0
C11 C 0.10964 0.2029 0.41278 0.0
C12 C 0.09824 0.2526 0.47166 0.0
O13 O 0.10748 0.27522 0.4051 0.0
Mg14 Mg 0.75517 0.08655 0.36878 0.0
O15 O 0.73799 0.08043 0.40086 0.0
O16 O 0.7171 0.05218 0.3962 0.0
Mg17 Mg 0.71989 0.04086 0.36183 0.0
C18 C 0.72466 0.0669 0.40795 0.0
C19 C 0.77752 0.11856 0.39852 0.0
O20 O 0.77816 0.10108 0.41012 0.0
O21 O 0.72577 0.10147 0.35407 0.0
O22 O 0.70577 0.07231 0.35059 0.0
O23 O 0.77977 0.06343 0.37884 0.0
O24 O 0.75136 0.05482 0.36051 0.0
C25 C 0.70872 0.09231 0.34851 0.0
C26 C 0.76794 0.04885 0.37055 0.0
O27 O 0.76775 0.11828 0.38078 0.0
Mg28 Mg 0.86435 0.72095 0.40395 0.0
O29 O 0.89932 0.72932 0.39917 0.0
O30 O 0.9074 0.75627 0.4209 0.0
Mg31 Mg 0.8777 0.76575 0.43855 0.0
C32 C 0.91256 0.7426 0.40686 0.0
C33 C 0.8601 0.68078 0.37609 0.0
O34 O 0.85506 0.67309 0.39497 0.0
O35 O 0.85459 0.74966 0.38431 0.0
O36 O 0.86296 0.77618 0.40649 0.0
O37 O 0.87316 0.6992 0.4305 0.0
O38 O 0.86541 0.73317 0.43487 0.0
C39 C 0.85564 0.76942 0.3887 0.0
C40 C 0.87184 0.71549 0.44301 0.0
O41 O 0.86479 0.70037 0.37431 0.0
Mg42 Mg 0.21723 0.90894 0.37901 0.0
O43 O 0.23351 0.91039 0.4123 0.0
O44 O 0.26004 0.93349 0.40868 0.0
Mg45 Mg 0.2615 0.94648 0.37472 0.0
C46 C 0.24921 0.92058 0.42 0.0
C47 C 0.19459 0.8664 0.37277 0.0
O48 O 0.2027 0.87086 0.35396 0.0
O49 O 0.2439 0.88871 0.36532 0.0
O50 O 0.26937 0.91327 0.36305 0.0
O51 O 0.19776 0.9379 0.38759 0.0
O52 O 0.22831 0.93903 0.37133 0.0
C53 C 0.26258 0.89433 0.36048 0.0
C54 C 0.21289 0.94909 0.37948 0.0
O55 O 0.19801 0.8792 0.38814 0.0
Mg56 Mg 0.09395 0.7615 0.59026 0.0
O57 O 0.09525 0.74909 0.55537 0.0
O58 O 0.0695 0.72502 0.55258 0.0
Mg59 Mg 0.05116 0.72284 0.58368 0.0
C60 C 0.08481 0.73543 0.54452 0.0
C61 C 0.13213 0.78692 0.60383 0.0
O62 O 0.12144 0.78447 0.62163 0.0
O63 O 0.10752 0.73065 0.60479 0.0
O64 O 0.07935 0.70963 0.60155 0.0
O65 O 0.07117 0.78723 0.58071 0.0
O66 O 0.06234 0.75484 0.59129 0.0
C67 C 0.09805 0.71294 0.60802 0.0
C68 C 0.05672 0.77317 0.58429 0.0
O69 O 0.12564 0.77762 0.58706 0.0
Mg70 Mg 0.26685 0.13471 0.58396 0.0
O71 O 0.25733 0.10025 0.57816 0.0
O72 O 0.23134 0.09786 0.55433 0.0
Mg73 Mg 0.22323 0.13224 0.54562 0.0
C74 C 0.24451 0.08926 0.56705 0.0
C75 C 0.28933 0.13392 0.62903 0.0
O76 O 0.2793 0.15199 0.63126 0.0
O77 O 0.2379 0.13931 0.60518 0.0
O78 O 0.21283 0.13703 0.58012 0.0
O79 O 0.28785 0.13312 0.55507 0.0
O80 O 0.25473 0.14331 0.55457 0.0
C81 C 0.21863 0.13926 0.59954 0.0
C82 C 0.27157 0.13912 0.54426 0.0
O83 O 0.28708 0.12345 0.61184 0.0
Mg84 Mg 0.88244 0.21993 0.60405 0.0
O85 O 0.88891 0.23571 0.57111 0.0
O86 O 0.91111 0.26258 0.57723 0.0
Mg87 Mg 0.91944 0.26419 0.61245 0.0
C88 C 0.8999 0.2515 0.56452 0.0
C89 C 0.83998 0.19708 0.60256 0.0
O90 O 0.83951 0.20659 0.62123 0.0
O91 O 0.86085 0.24753 0.61416 0.0
O92 O 0.88567 0.27214 0.61982 0.0
O93 O 0.91152 0.19903 0.60187 0.0
O94 O 0.91045 0.23093 0.61603 0.0
C95 C 0.86652 0.26621 0.61988 0.0
C96 C 0.92116 0.21442 0.6115 0.0
O97 O 0.85565 0.20019 0.59043 0.0
Mg98 Mg 0.7191 0.85351 0.58065 0.0
O99 O 0.73276 0.88767 0.57996 0.0
O100 O 0.75769 0.88901 0.55479 0.0
Mg101 Mg 0.75928 0.85658 0.53879 0.0
C102 C 0.74685 0.89778 0.5694 0.0
C103 C 0.69819 0.84333 0.62408 0.0
O104 O 0.70296 0.82419 0.61733 0.0
O105 O 0.74859 0.84055 0.59689 0.0
O106 O 0.77175 0.84268 0.57011 0.0
O107 O 0.69513 0.86332 0.55637 0.0
O108 O 0.72666 0.85094 0.54866 0.0
C109 C 0.76694 0.83786 0.58934 0.0
C110 C 0.7094 0.8594 0.54227 0.0
O111 O 0.70335 0.85933 0.61271 0.0
Mg112 Mg 0.38237 0.08397 0.22488 0.0
O113 O 0.38025 0.04839 0.21597 0.0
O114 O 0.3995 0.04431 0.18653 0.0
Mg115 Mg 0.4157 0.0755 0.17792 0.0
C116 C 0.38739 0.03682 0.20094 0.0
C117 C 0.35437 0.06561 0.26151 0.0
O118 O 0.37031 0.0525 0.26276 0.0
O119 O 0.36155 0.09438 0.19666 0.0
O120 O 0.38436 0.09074 0.16981 0.0
O121 O 0.41148 0.07891 0.24508 0.0
O122 O 0.41166 0.08685 0.21079 0.0
C123 C 0.36652 0.09643 0.17694 0.0
C124 C 0.4221 0.08303 0.22791 0.0
O125 O 0.35448 0.08008 0.24724 0.0
Mg126 Mg 0.89084 0.37396 0.23155 0.0
O127 O 0.89716 0.40759 0.24559 0.0
O128 O 0.92256 0.40362 0.26993 0.0
Mg129 Mg 0.9323 0.36906 0.27197 0.0
C130 C 0.9096 0.41524 0.2597 0.0
C131 C 0.85101 0.37388 0.20269 0.0
O132 O 0.85661 0.3539 0.20065 0.0
O133 O 0.87274 0.36349 0.26187 0.0
O134 O 0.89987 0.36095 0.28446 0.0
O135 O 0.91677 0.37938 0.20749 0.0
O136 O 0.92095 0.36457 0.23924 0.0
C137 C 0.88032 0.35954 0.28042 0.0
C138 C 0.92922 0.37151 0.22183 0.0
O139 O 0.86153 0.38597 0.215 0.0
Mg140 Mg 0.57842 0.89843 0.24613 0.0
O141 O 0.57955 0.93343 0.23478 0.0
O142 O 0.55754 0.93519 0.20695 0.0
Mg143 Mg 0.54101 0.90361 0.2018 0.0
C144 C 0.57084 0.94377 0.21954 0.0
C145 C 0.61988 0.88583 0.26619 0.0
O146 O 0.61338 0.86846 0.25655 0.0
O147 O 0.59676 0.88734 0.21682 0.0
O148 O 0.57203 0.88905 0.19151 0.0
O149 O 0.55137 0.90512 0.26852 0.0
O150 O 0.54811 0.89506 0.23501 0.0
C151 C 0.59056 0.88442 0.19762 0.0
C152 C 0.53925 0.90038 0.25257 0.0
O153 O 0.60859 0.90242 0.26509 0.0
Mg154 Mg 0.1248 0.5731 0.25026 0.0
O155 O 0.09006 0.57242 0.23976 0.0
O156 O 0.08594 0.54698 0.21513 0.0
Mg157 Mg 0.11772 0.53205 0.20913 0.0
C158 C 0.07859 0.56175 0.22683 0.0
C159 C 0.12789 0.62215 0.26684 0.0
O160 O 0.14097 0.62561 0.25099 0.0
O161 O 0.13381 0.5906 0.21922 0.0
O162 O 0.12867 0.56428 0.19575 0.0
O163 O 0.11754 0.54826 0.27463 0.0
O164 O 0.12737 0.5409 0.24166 0.0
C165 C 0.13368 0.58348 0.20011 0.0
C166 C 0.12051 0.53422 0.25989 0.0
O167 O 0.11949 0.60387 0.2691 0.0
Mg168 Mg 0.38062 0.87525 0.7422 0.0
O169 O 0.38077 0.90976 0.75713 0.0
O170 O 0.40268 0.90891 0.78531 0.0
Mg171 Mg 0.40486 0.87434 0.79455 0.0
C172 C 0.39142 0.91915 0.77186 0.0
C173 C 0.3641 0.88498 0.6974 0.0
O174 O 0.3841 0.88128 0.6944 0.0
O175 O 0.35582 0.85974 0.7643 0.0
O176 O 0.36967 0.87755 0.79043 0.0
O177 O 0.41165 0.88346 0.72824 0.0
O178 O 0.40791 0.86791 0.7598 0.0
C179 C 0.35786 0.86252 0.78433 0.0
C180 C 0.4201 0.87636 0.74567 0.0
O181 O 0.35681 0.88428 0.71632 0.0
Mg182 Mg 0.09925 0.42116 0.71891 0.0
O183 O 0.06632 0.40972 0.72844 0.0
O184 O 0.05508 0.42866 0.75622 0.0
Mg185 Mg 0.08111 0.45238 0.76458 0.0
C186 C 0.05237 0.41406 0.74235 0.0
C187 C 0.1142 0.37596 0.70031 0.0
O188 O 0.1275 0.37555 0.71637 0.0
O189 O 0.11337 0.40446 0.74777 0.0
O190 O 0.10223 0.42456 0.77491 0.0
O191 O 0.08508 0.44567 0.69762 0.0
O192 O 0.0933 0.45104 0.73158 0.0
C193 C 0.11254 0.40877 0.76767 0.0
C194 C 0.08509 0.45809 0.71411 0.0
O195 O 0.10211 0.39183 0.69789 0.0
Mg196 Mg 0.62378 0.06803 0.74456 0.0
O197 O 0.58801 0.06673 0.74085 0.0
O198 O 0.57867 0.03861 0.72121 0.0
Mg199 Mg 0.609 0.02243 0.71126 0.0
C200 C 0.57403 0.05505 0.73209 0.0
C201 C 0.63238 0.10996 0.77188 0.0
O202 O 0.64842 0.09919 0.77935 0.0
O203 O 0.62696 0.08101 0.71042 0.0
O204 O 0.61718 0.05232 0.69179 0.0
O205 O 0.6208 0.04623 0.77281 0.0
O206 O 0.62521 0.03528 0.73958 0.0
C207 C 0.62308 0.07174 0.6927 0.0
C208 C 0.6216 0.03068 0.75931 0.0
O209 O 0.62053 0.10153 0.75787 0.0
Mg210 Mg 0.8542 0.55905 0.71236 0.0
O211 O 0.8871 0.57064 0.72189 0.0
O212 O 0.89822 0.55248 0.75044 0.0
Mg213 Mg 0.87206 0.52903 0.75936 0.0
C214 C 0.90099 0.5667 0.73607 0.0
C215 C 0.84088 0.60481 0.69371 0.0
O216 O 0.82832 0.60575 0.71029 0.0
O217 O 0.8398 0.57632 0.74043 0.0
O218 O 0.851 0.55711 0.76842 0.0
O219 O 0.86848 0.5336 0.69233 0.0
O220 O 0.85976 0.52958 0.72633 0.0
C221 C 0.84064 0.5726 0.76047 0.0
C222 C 0.86803 0.52177 0.70936 0.0
O223 O 0.85182 0.58822 0.69066 0.0
Mg224 Mg 0.22742 0.36586 0.07238 0.0
O225 O 0.2379 0.40101 0.07146 0.0
O226 O 0.26479 0.40395 0.04873 0.0
Mg227 Mg 0.27144 0.37122 0.03514 0.0
C228 C 0.25181 0.41214 0.06177 0.0
C229 C 0.2063 0.35582 0.11529 0.0
O230 O 0.21545 0.33774 0.11063 0.0
O231 O 0.25594 0.35613 0.09221 0.0
O232 O 0.28157 0.35923 0.06804 0.0
O233 O 0.20577 0.37216 0.0447 0.0
O234 O 0.23871 0.36193 0.04176 0.0
C235 C 0.27514 0.3546 0.08682 0.0
C236 C 0.22166 0.36795 0.0326 0.0
O237 O 0.2083 0.37144 0.10246 0.0
Mg238 Mg 0.23438 0.58184 0.85797 0.0
O239 O 0.22059 0.57862 0.89221 0.0
O240 O 0.1995 0.55012 0.89141 0.0
Mg241 Mg 0.19969 0.53517 0.85826 0.0
C242 C 0.20782 0.56573 0.90136 0.0
C243 C 0.25074 0.6274 0.84952 0.0
O244 O 0.24382 0.62176 0.83055 0.0
O245 O 0.20321 0.5951 0.84498 0.0
O246 O 0.18411 0.56517 0.84497 0.0
O247 O 0.26049 0.55976 0.86702 0.0
O248 O 0.23056 0.54927 0.85285 0.0
C249 C 0.18616 0.58505 0.8411 0.0
C250 C 0.2484 0.54432 0.86098 0.0
O251 O 0.24783 0.61481 0.86523 0.0
Mg252 Mg 0.37876 0.23439 0.89768 0.0
O253 O 0.4138 0.2441 0.89916 0.0
O254 O 0.4172 0.2694 0.92399 0.0
Mg255 Mg 0.38491 0.27693 0.93713 0.0
C256 C 0.42506 0.25714 0.90994 0.0
C257 C 0.37779 0.19578 0.86793 0.0
O258 O 0.36928 0.18841 0.88561 0.0
O259 O 0.37157 0.26432 0.87839 0.0
O260 O 0.37586 0.28916 0.90356 0.0
O261 O 0.38385 0.21105 0.92394 0.0
O262 O 0.37477 0.24444 0.92934 0.0
C263 C 0.37176 0.28373 0.8843 0.0
C264 C 0.38028 0.22633 0.93723 0.0
O265 O 0.38389 0.21507 0.8673 0.0
Mg266 Mg 0.73817 0.40249 0.87593 0.0
O267 O 0.74396 0.40197 0.91256 0.0
O268 O 0.77078 0.42402 0.91885 0.0
Mg269 Mg 0.78238 0.43834 0.88743 0.0
C270 C 0.75665 0.41115 0.92545 0.0
C271 C 0.70267 0.36987 0.89174 0.0
O272 O 0.69945 0.38442 0.90638 0.0
O273 O 0.76723 0.38231 0.86912 0.0
O274 O 0.79304 0.40565 0.87575 0.0
O275 O 0.71733 0.4312 0.87973 0.0
O276 O 0.75126 0.43278 0.87353 0.0
C277 C 0.78665 0.3873 0.8699 0.0
C278 C 0.73409 0.44263 0.87717 0.0
O279 O 0.71713 0.37278 0.87804 0.0
Mg280 Mg 0.59535 0.73718 0.93057 0.0
O281 O 0.56029 0.73172 0.92382 0.0
O282 O 0.54975 0.70266 0.94146 0.0
Mg283 Mg 0.57801 0.68952 0.9596 0.0
C284 C 0.54603 0.71835 0.92901 0.0
C285 C 0.60913 0.76484 0.88933 0.0
O286 O 0.62405 0.75078 0.8866 0.0
O287 O 0.60406 0.71022 0.90788 0.0
O288 O 0.59414 0.68221 0.92767 0.0
O289 O 0.58765 0.75576 0.95976 0.0
O290 O 0.59304 0.72107 0.95975 0.0
C291 C 0.60236 0.69014 0.91076 0.0
C292 C 0.58822 0.73794 0.97021 0.0
O293 O 0.5961 0.76248 0.90452 0.0
Mg294 Mg 0.76358 0.62004 0.09408 0.0
O295 O 0.74491 0.58904 0.09657 0.0
O296 O 0.71766 0.58967 0.07404 0.0
Mg297 Mg 0.71874 0.62185 0.05675 0.0
C298 C 0.72877 0.58031 0.0882 0.0
C299 C 0.79185 0.59292 0.12306 0.0
O300 O 0.78831 0.5804 0.10666 0.0
O301 O 0.73817 0.63707 0.11375 0.0
O302 O 0.71355 0.63869 0.08825 0.0
O303 O 0.78237 0.6063 0.06701 0.0
O304 O 0.75239 0.6233 0.06296 0.0
C305 C 0.72027 0.64318 0.10693 0.0
C306 C 0.7671 0.61213 0.05475 0.0
O307 O 0.78295 0.611 0.12355 0.0
Mg308 Mg 0.37782 0.73231 0.1035 0.0
O309 O 0.38265 0.74345 0.06839 0.0
O310 O 0.40297 0.77242 0.07013 0.0
Mg311 Mg 0.41116 0.78006 0.10462 0.0
C312 C 0.39255 0.75879 0.05937 0.0
C313 C 0.35555 0.69053 0.10295 0.0
O314 O 0.37173 0.68852 0.11582 0.0
O315 O 0.35415 0.75911 0.10996 0.0
O316 O 0.3767 0.78647 0.11125 0.0
O317 O 0.408 0.7135 0.10298 0.0
O318 O 0.4055 0.74686 0.11311 0.0
C319 C 0.35815 0.77889 0.11257 0.0
C320 C 0.41706 0.73052 0.11007 0.0
O321 O 0.35261 0.70838 0.0938 0.0
Mg322 Mg 0.59574 0.23663 0.08466 0.0
O323 O 0.59946 0.22729 0.04938 0.0
O324 O 0.58256 0.19652 0.04481 0.0
Mg325 Mg 0.56736 0.1866 0.07639 0.0
C326 C 0.59345 0.21197 0.03747 0.0
C327 C 0.61777 0.27895 0.09042 0.0
O328 O 0.60014 0.28087 0.10106 0.0
O329 O 0.61873 0.21156 0.09692 0.0
O330 O 0.59869 0.1825 0.09388 0.0
O331 O 0.56584 0.25371 0.07708 0.0
O332 O 0.56745 0.22 0.0868 0.0
C333 C 0.61548 0.19173 0.10015 0.0
C334 C 0.5562 0.23598 0.08117 0.0
O335 O 0.62145 0.2615 0.08102 0.0
Mg336 Mg 0.90184 0.74579 0.61592 0.0
O337 O 0.89499 0.73841 0.58048 0.0
O338 O 0.9182 0.71399 0.56992 0.0
Mg339 Mg 0.93944 0.70557 0.59796 0.0
C340 C 0.90273 0.72628 0.56615 0.0
C341 C 0.87259 0.78338 0.62333 0.0
O342 O 0.89121 0.79147 0.62718 0.0
O343 O 0.88655 0.71413 0.62577 0.0
O344 O 0.91086 0.69132 0.61449 0.0
O345 O 0.92464 0.77101 0.60552 0.0
O346 O 0.9328 0.73722 0.61069 0.0
C347 C 0.89332 0.69518 0.62337 0.0
C348 C 0.93814 0.75584 0.60391 0.0
O349 O 0.87105 0.76374 0.61877 0.0
Mg350 Mg 0.2305 0.92625 0.59493 0.0
O351 O 0.23946 0.9182 0.56034 0.0
O352 O 0.26733 0.93795 0.55175 0.0
Mg353 Mg 0.27595 0.95884 0.58039 0.0
C354 C 0.25335 0.92418 0.54692 0.0
C355 C 0.20711 0.88781 0.61444 0.0
O356 O 0.21481 0.89689 0.63165 0.0
O357 O 0.25826 0.90841 0.60931 0.0
O358 O 0.28483 0.93038 0.60157 0.0
O359 O 0.21022 0.95286 0.58248 0.0
O360 O 0.24341 0.95634 0.59177 0.0
C361 C 0.27756 0.91369 0.61069 0.0
C362 C 0.22674 0.96481 0.58407 0.0
O363 O 0.21045 0.89635 0.5963 0.0
Mg364 Mg 0.08012 0.21268 0.64444 0.0
O365 O 0.08234 0.22114 0.60854 0.0
O366 O 0.05705 0.24449 0.60081 0.0
Mg367 Mg 0.03897 0.25124 0.63144 0.0
C368 C 0.07258 0.23306 0.59525 0.0
C369 C 0.12777 0.20098 0.65418 0.0
O370 O 0.12688 0.21679 0.66782 0.0
O371 O 0.09488 0.24492 0.65321 0.0
O372 O 0.06844 0.26674 0.64502 0.0
O373 O 0.05639 0.18715 0.63634 0.0
O374 O 0.04884 0.22042 0.64435 0.0
C375 C 0.08699 0.26354 0.65195 0.0
C376 C 0.04252 0.20199 0.63827 0.0
O377 O 0.11178 0.1963 0.64294 0.0
Mg378 Mg 0.73581 0.06386 0.58442 0.0
O379 O 0.72946 0.06877 0.5486 0.0
O380 O 0.70054 0.05059 0.54028 0.0
Mg381 Mg 0.68902 0.03306 0.57021 0.0
C382 C 0.71574 0.06277 0.53501 0.0
C383 C 0.77229 0.09543 0.5702 0.0
O384 O 0.77494 0.08161 0.55474 0.0
O385 O 0.70878 0.08536 0.59413 0.0
O386 O 0.68143 0.06406 0.58771 0.0
O387 O 0.75461 0.03425 0.57784 0.0
O388 O 0.72068 0.03456 0.58412 0.0
C389 C 0.68918 0.08131 0.59513 0.0
C390 C 0.73718 0.0238 0.57993 0.0
O391 O 0.75815 0.09211 0.58413 0.0
Mg392 Mg 0.89758 0.24304 0.38752 0.0
O393 O 0.89289 0.25012 0.42331 0.0
O394 O 0.91647 0.27475 0.43254 0.0
Mg395 Mg 0.93519 0.28431 0.403 0.0
C396 C 0.90158 0.26198 0.43732 0.0
C397 C 0.86226 0.21122 0.40105 0.0
O398 O 0.87573 0.20791 0.41663 0.0
O399 O 0.88149 0.27383 0.3773 0.0
O400 O 0.9058 0.29778 0.38646 0.0
O401 O 0.92149 0.21888 0.39667 0.0
O402 O 0.929 0.25254 0.3897 0.0
C403 C 0.88804 0.29302 0.37826 0.0
C404 C 0.9352 0.23412 0.39616 0.0
O405 O 0.8666 0.22494 0.38672 0.0
Mg406 Mg 0.74078 0.87545 0.38275 0.0
O407 O 0.74994 0.91056 0.37979 0.0
O408 O 0.77384 0.91835 0.40473 0.0
Mg409 Mg 0.78013 0.88814 0.42378 0.0
C410 C 0.76223 0.92374 0.38899 0.0
C411 C 0.71829 0.8615 0.34045 0.0
O412 O 0.72483 0.8427 0.34678 0.0
O413 O 0.77159 0.8654 0.36711 0.0
O414 O 0.79368 0.87284 0.39389 0.0
O415 O 0.71601 0.88307 0.40685 0.0
O416 O 0.74902 0.87601 0.41485 0.0
C417 C 0.79002 0.86577 0.37513 0.0
C418 C 0.73065 0.88151 0.4211 0.0
O419 O 0.7234 0.87781 0.35119 0.0
Mg420 Mg 0.07346 0.74583 0.37383 0.0
O421 O 0.07755 0.73322 0.40843 0.0
O422 O 0.05416 0.70703 0.41278 0.0
Mg423 Mg 0.03549 0.70243 0.38197 0.0
C424 C 0.06886 0.71885 0.41997 0.0
C425 C 0.11501 0.76866 0.36041 0.0
O426 O 0.10961 0.75949 0.34236 0.0
O427 O 0.09006 0.71658 0.35943 0.0
O428 O 0.06514 0.69192 0.36456 0.0
O429 O 0.04831 0.76788 0.38539 0.0
O430 O 0.04221 0.73555 0.37332 0.0
C431 C 0.08309 0.69754 0.35749 0.0
C432 C 0.03507 0.75265 0.38175 0.0
O433 O 0.10381 0.76536 0.3769 0.0
Mg434 Mg 0.24466 0.11571 0.38317 0.0
O435 O 0.23027 0.08272 0.38966 0.0
O436 O 0.21098 0.08367 0.41938 0.0
Mg437 Mg 0.21246 0.11779 0.43171 0.0
C438 C 0.21847 0.07363 0.40346 0.0
C439 C 0.26769 0.0891 0.34915 0.0
O440 O 0.27162 0.07815 0.36665 0.0
O441 O 0.21319 0.12834 0.37051 0.0
O442 O 0.19572 0.12922 0.40155 0.0
O443 O 0.27188 0.10865 0.40536 0.0
O444 O 0.24212 0.12345 0.41502 0.0
C445 C 0.1967 0.13227 0.38137 0.0
C446 C 0.26036 0.11673 0.42025 0.0
O447 O 0.25579 0.10522 0.35031 0.0
Mg448 Mg 0.58158 0.85983 0.74641 0.0
O449 O 0.59133 0.89415 0.75335 0.0
O450 O 0.57234 0.90662 0.7804 0.0
Mg451 Mg 0.54959 0.88008 0.79042 0.0
C452 C 0.58653 0.90903 0.76623 0.0
C453 C 0.61787 0.83785 0.72146 0.0
O454 O 0.6092 0.82101 0.73035 0.0
O455 O 0.59848 0.84745 0.77624 0.0
O456 O 0.57652 0.85871 0.80154 0.0
O457 O 0.55639 0.87131 0.72416 0.0
O458 O 0.55187 0.86539 0.75865 0.0
C459 C 0.59272 0.84832 0.79579 0.0
C460 C 0.54417 0.87153 0.74067 0.0
O461 O 0.61042 0.85612 0.72546 0.0
Mg462 Mg 0.05271 0.62851 0.74334 0.0
O463 O 0.05649 0.59302 0.73596 0.0
O464 O 0.03443 0.58324 0.71 0.0
Mg465 Mg 0.01736 0.61324 0.69937 0.0
C466 C 0.04863 0.57888 0.7237 0.0
C467 C 0.08036 0.61284 0.77967 0.0
O468 O 0.06258 0.60241 0.78157 0.0
O469 O 0.07178 0.63709 0.7133 0.0
O470 O 0.04891 0.62698 0.68814 0.0
O471 O 0.02663 0.62028 0.7657 0.0
O472 O 0.0217 0.62696 0.73142 0.0
C473 C 0.06669 0.63465 0.69367 0.0
C474 C 0.01416 0.62041 0.74939 0.0
O475 O 0.08218 0.62633 0.76453 0.0
Mg476 Mg 0.41467 0.09169 0.73609 0.0
O477 O 0.40509 0.0572 0.74494 0.0
O478 O 0.42617 0.04723 0.7717 0.0
Mg479 Mg 0.44912 0.07405 0.77952 0.0
C480 C 0.41125 0.0434 0.75862 0.0
C481 C 0.3798 0.08386 0.70148 0.0
O482 O 0.39197 0.06762 0.69722 0.0
O483 O 0.39975 0.10546 0.76623 0.0
O484 O 0.42218 0.0948 0.79168 0.0
O485 O 0.43844 0.07895 0.71312 0.0
O486 O 0.44495 0.08656 0.74694 0.0
C487 C 0.40581 0.10483 0.78571 0.0
C488 C 0.45151 0.07928 0.72899 0.0
O489 O 0.38461 0.09611 0.71686 0.0
Mg490 Mg 0.90069 0.35249 0.74889 0.0
O491 O 0.8958 0.38784 0.74033 0.0
O492 O 0.91831 0.39681 0.71438 0.0
Mg493 Mg 0.93618 0.36711 0.70513 0.0
C494 C 0.90376 0.40155 0.72748 0.0
C495 C 0.87143 0.34847 0.78863 0.0
O496 O 0.88962 0.34417 0.79749 0.0
O497 O 0.88234 0.34292 0.719 0.0
O498 O 0.90485 0.35306 0.69353 0.0
O499 O 0.92584 0.36225 0.77166 0.0
O500 O 0.93155 0.35469 0.73771 0.0
C501 C 0.8872 0.34529 0.69934 0.0
C502 C 0.93862 0.36187 0.75561 0.0
O503 O 0.87067 0.35246 0.76868 0.0
Mg504 Mg 0.58143 0.1192 0.24234 0.0
O505 O 0.58448 0.08281 0.23724 0.0
O506 O 0.5635 0.07497 0.20961 0.0
Mg507 Mg 0.54809 0.10469 0.19672 0.0
C508 C 0.57641 0.06943 0.2242 0.0
C509 C 0.60559 0.11947 0.28506 0.0
O510 O 0.58606 0.12051 0.29149 0.0
O511 O 0.60264 0.12588 0.21317 0.0
O512 O 0.58061 0.11625 0.18707 0.0
O513 O 0.5537 0.11292 0.26351 0.0
O514 O 0.55134 0.11835 0.22876 0.0
C515 C 0.59844 0.12302 0.19338 0.0
C516 C 0.54227 0.11315 0.24643 0.0
O517 O 0.60944 0.11891 0.26512 0.0
Mg518 Mg 0.91795 0.59222 0.24529 0.0
O519 O 0.91295 0.55596 0.24952 0.0
O520 O 0.93276 0.54611 0.27731 0.0
Mg521 Mg 0.95045 0.57476 0.2905 0.0
C522 C 0.91981 0.54171 0.26237 0.0
C523 C 0.88331 0.58162 0.20969 0.0
O524 O 0.89428 0.56423 0.20682 0.0
O525 O 0.89822 0.59928 0.27466 0.0
O526 O 0.91943 0.58933 0.30144 0.0
O527 O 0.94595 0.58651 0.22421 0.0
O528 O 0.94734 0.59038 0.25922 0.0
C529 C 0.90225 0.59718 0.29457 0.0
C530 C 0.957 0.58687 0.24162 0.0
O531 O 0.88919 0.59498 0.22369 0.0
Mg532 Mg 0.37854 0.86562 0.24581 0.0
O533 O 0.373 0.90072 0.23535 0.0
O534 O 0.39092 0.90479 0.20489 0.0
Mg535 Mg 0.40709 0.87413 0.19578 0.0
C536 C 0.3792 0.91219 0.21958 0.0
C537 C 0.35744 0.86233 0.28953 0.0
O538 O 0.37698 0.85752 0.29395 0.0
O539 O 0.35602 0.85276 0.22029 0.0
O540 O 0.37518 0.85806 0.19085 0.0
O541 O 0.40737 0.87615 0.26343 0.0
O542 O 0.4071 0.86554 0.22983 0.0
C543 C 0.35851 0.85149 0.20007 0.0
C544 C 0.41742 0.87331 0.24572 0.0
O545 O 0.35245 0.86702 0.27039 0.0
Mg546 Mg 0.09215 0.36043 0.24091 0.0
O547 O 0.09714 0.39612 0.24643 0.0
O548 O 0.07678 0.40644 0.27337 0.0
Mg549 Mg 0.0576 0.37747 0.2843 0.0
C550 C 0.09044 0.41048 0.25901 0.0
C551 C 0.13106 0.34328 0.21625 0.0
O552 O 0.12552 0.32577 0.22637 0.0
O553 O 0.11066 0.35145 0.27133 0.0
O554 O 0.08704 0.36056 0.29601 0.0
O555 O 0.0647 0.36681 0.21872 0.0
O556 O 0.06244 0.3617 0.25354 0.0
C557 C 0.10454 0.35227 0.29081 0.0
C558 C 0.05317 0.3652 0.23568 0.0
O559 O 0.12084 0.36024 0.21952 0.0
Mg560 Mg 0.74688 0.61338 0.8927 0.0
O561 O 0.73582 0.5782 0.89173 0.0
O562 O 0.71359 0.57337 0.919 0.0
Mg563 Mg 0.7109 0.60434 0.93743 0.0
C564 C 0.72344 0.56641 0.90274 0.0
C565 C 0.78023 0.61859 0.85999 0.0
O566 O 0.78732 0.62775 0.87742 0.0
O567 O 0.71548 0.62501 0.8794 0.0
O568 O 0.69537 0.61959 0.9082 0.0
O569 O 0.7735 0.60464 0.91419 0.0
O570 O 0.74195 0.6136 0.92546 0.0
C571 C 0.69783 0.62591 0.88892 0.0
C572 C 0.76061 0.60716 0.92987 0.0
O573 O 0.76171 0.61107 0.85995 0.0
Mg574 Mg 0.72026 0.41651 0.09433 0.0
O575 O 0.73567 0.41548 0.0609 0.0
O576 O 0.76088 0.44025 0.06163 0.0
Mg577 Mg 0.76072 0.45806 0.09347 0.0
C578 C 0.75079 0.42554 0.05197 0.0
C579 C 0.68546 0.38578 0.09892 0.0
O580 O 0.68079 0.40294 0.10984 0.0
O581 O 0.74863 0.40018 0.11029 0.0
O582 O 0.77033 0.42823 0.11162 0.0
O583 O 0.69779 0.44219 0.08316 0.0
O584 O 0.72849 0.44791 0.09823 0.0
C585 C 0.76569 0.40903 0.11647 0.0
C586 C 0.71179 0.45553 0.08991 0.0
O587 O 0.70279 0.38539 0.08894 0.0
Mg588 Mg 0.57682 0.72884 0.14099 0.0
O589 O 0.57452 0.73954 0.10579 0.0
O590 O 0.54925 0.76385 0.10231 0.0
Mg591 Mg 0.53645 0.76966 0.13565 0.0
C592 C 0.56351 0.75218 0.09435 0.0
C593 C 0.62129 0.70618 0.1463 0.0
O594 O 0.61709 0.70565 0.16686 0.0
O595 O 0.59405 0.75942 0.14987 0.0
O596 O 0.56849 0.78318 0.14512 0.0
O597 O 0.55209 0.7045 0.13397 0.0
O598 O 0.54561 0.7371 0.14525 0.0
C599 C 0.58744 0.77852 0.14964 0.0
C600 C 0.5386 0.71928 0.13798 0.0
O601 O 0.6079 0.71363 0.13322 0.0
Mg602 Mg 0.22649 0.57654 0.07715 0.0
O603 O 0.21828 0.58005 0.04136 0.0
O604 O 0.19074 0.55902 0.03514 0.0
Mg605 Mg 0.18171 0.54164 0.06597 0.0
C606 C 0.2046 0.57223 0.02865 0.0
C607 C 0.26532 0.6042 0.08378 0.0
O608 O 0.27034 0.58601 0.09286 0.0
O609 O 0.19837 0.59599 0.08848 0.0
O610 O 0.1727 0.57226 0.08333 0.0
O611 O 0.24718 0.54858 0.06986 0.0
O612 O 0.21374 0.54599 0.07817 0.0
C613 C 0.17925 0.59017 0.09035 0.0
C614 C 0.23084 0.53668 0.07299 0.0
O615 O 0.24741 0.60592 0.07508 0.0
Mg616 Mg 0.39657 0.24697 0.11398 0.0
O617 O 0.39014 0.24117 0.07795 0.0
O618 O 0.40951 0.21317 0.06857 0.0
Mg619 Mg 0.42693 0.20057 0.09758 0.0
C620 C 0.39666 0.22799 0.06392 0.0
C621 C 0.37379 0.28936 0.12017 0.0
O622 O 0.3934 0.29471 0.12371 0.0
O623 O 0.3756 0.21891 0.12353 0.0
O624 O 0.39544 0.19167 0.11307 0.0
O625 O 0.4237 0.26742 0.10494 0.0
O626 O 0.42602 0.23286 0.11089 0.0
C627 C 0.3787 0.19898 0.12139 0.0
C628 C 0.43487 0.25031 0.10473 0.0
O629 O 0.36937 0.27012 0.11582 0.0
Mg630 Mg 0.24432 0.36772 0.86664 0.0
O631 O 0.24887 0.4039 0.86368 0.0
O632 O 0.27489 0.41386 0.88533 0.0
Mg633 Mg 0.28708 0.38426 0.90239 0.0
C634 C 0.26065 0.41828 0.87171 0.0
C635 C 0.20378 0.36447 0.8406 0.0
O636 O 0.19755 0.35916 0.85992 0.0
O637 O 0.27372 0.36062 0.84687 0.0
O638 O 0.29795 0.36947 0.87114 0.0
O639 O 0.22295 0.37229 0.89503 0.0
O640 O 0.25712 0.3679 0.89703 0.0
C641 C 0.29285 0.3619 0.85291 0.0
C642 C 0.23968 0.37087 0.90666 0.0
O643 O 0.22306 0.36848 0.83746 0.0
Mg644 Mg 0.58493 0.24758 0.87013 0.0
O645 O 0.58735 0.23039 0.90263 0.0
O646 O 0.56594 0.20221 0.90123 0.0
Mg647 Mg 0.54917 0.20149 0.86885 0.0
C648 C 0.57921 0.21381 0.91118 0.0
C649 C 0.61321 0.28025 0.89434 0.0
O650 O 0.59676 0.2794 0.90693 0.0
O651 O 0.60461 0.22151 0.85385 0.0
O652 O 0.58003 0.196 0.85156 0.0
O653 O 0.55719 0.26626 0.88224 0.0
O654 O 0.55466 0.23561 0.86557 0.0
C655 C 0.5983 0.20324 0.84747 0.0
C656 C 0.54553 0.25083 0.87538 0.0
O657 O 0.61371 0.26822 0.87803 0.0
Mg658 Mg 0.38833 0.72699 0.88398 0.0
O659 O 0.38529 0.73694 0.91939 0.0
O660 O 0.4104 0.76097 0.92573 0.0
Mg661 Mg 0.42867 0.76723 0.89507 0.0
C662 C 0.39505 0.74949 0.93203 0.0
C663 C 0.34403 0.70924 0.87032 0.0
O664 O 0.34891 0.7195 0.85264 0.0
O665 O 0.37343 0.75809 0.87196 0.0
O666 O 0.39932 0.7811 0.87915 0.0
O667 O 0.41164 0.70246 0.89418 0.0
O668 O 0.42023 0.7351 0.88433 0.0
C669 C 0.38109 0.77691 0.87178 0.0
C670 C 0.42593 0.717 0.89204 0.0
O671 O 0.35665 0.7099 0.88607 0.0
H672 H 0.09954 0.35601 0.33347 0.0
H673 H 0.13376 0.32047 0.28621 0.0
H674 H 0.14368 0.29434 0.31358 0.0
H675 H 0.13797 0.27891 0.34974 0.0
H676 H 0.10107 0.31383 0.39546 0.0
H677 H 0.09666 0.34266 0.36981 0.0
C678 C 0.10951 0.34277 0.32915 0.0
C679 C 0.11561 0.34005 0.30773 0.0
C680 C 0.11425 0.32737 0.34465 0.0
C681 C 0.12881 0.32298 0.30256 0.0
C682 C 0.13426 0.30787 0.31817 0.0
C683 C 0.12918 0.29295 0.35413 0.0
C684 C 0.11958 0.29403 0.37438 0.0
C685 C 0.1263 0.30943 0.33906 0.0
C686 C 0.10833 0.31238 0.37988 0.0
C687 C 0.10586 0.32896 0.36525 0.0
H688 H 0.6677 0.09061 0.35728 0.0
H689 H 0.71264 0.12001 0.31507 0.0
H690 H 0.68421 0.13227 0.29164 0.0
H691 H 0.64677 0.13053 0.28115 0.0
H692 H 0.60213 0.1021 0.3246 0.0
H693 H 0.6302 0.09359 0.34965 0.0
C694 C 0.67116 0.10019 0.34323 0.0
C695 C 0.69207 0.10437 0.33774 0.0
C696 C 0.65484 0.107 0.32992 0.0
C697 C 0.69656 0.1168 0.31961 0.0
C698 C 0.68034 0.12357 0.30612 0.0
C699 C 0.64324 0.12267 0.29621 0.0
C700 C 0.62251 0.11661 0.30089 0.0
C701 C 0.65946 0.11809 0.31075 0.0
C702 C 0.618 0.10681 0.3206 0.0
C703 C 0.63403 0.1019 0.33493 0.0
H704 H 0.86575 0.63811 0.37704 0.0
H705 H 0.86021 0.6915 0.3338 0.0
H706 H 0.86883 0.66863 0.30359 0.0
H707 H 0.88271 0.63483 0.29039 0.0
H708 H 0.89229 0.58273 0.33435 0.0
H709 H 0.87683 0.60347 0.36331 0.0
C710 C 0.86606 0.64464 0.36095 0.0
C711 C 0.86256 0.66647 0.35764 0.0
C712 C 0.87178 0.63159 0.34381 0.0
C713 C 0.8631 0.67477 0.33674 0.0
C714 C 0.86799 0.66171 0.31948 0.0
C715 C 0.88079 0.62783 0.30617 0.0
C716 C 0.88849 0.60733 0.31032 0.0
C717 C 0.87302 0.64027 0.32292 0.0
C718 C 0.88638 0.59851 0.33088 0.0
C719 C 0.8777 0.61041 0.34743 0.0
H720 H 0.31531 0.85621 0.28709 0.0
H721 H 0.36514 0.87221 0.33097 0.0
H722 H 0.33957 0.87986 0.35883 0.0
H723 H 0.30316 0.88709 0.36873 0.0
H724 H 0.25309 0.87053 0.32554 0.0
H725 H 0.27857 0.85727 0.29957 0.0
C726 C 0.3205 0.86111 0.30285 0.0
C727 C 0.34199 0.86413 0.30689 0.0
C728 C 0.30571 0.86523 0.3189 0.0
C729 C 0.34865 0.86999 0.32746 0.0
C730 C 0.33405 0.87437 0.34339 0.0
C731 C 0.29786 0.87985 0.35393 0.0
C732 C 0.27644 0.87983 0.34888 0.0
C733 C 0.31256 0.8727 0.33905 0.0
C734 C 0.26957 0.87048 0.32976 0.0
C735 C 0.28414 0.86323 0.3148 0.0
H736 H 0.09404 0.66836 0.69447 0.0
H737 H 0.07006 0.61862 0.65374 0.0
H738 H 0.08432 0.63659 0.62238 0.0
H739 H 0.09529 0.67026 0.60625 0.0
H740 H 0.11686 0.72148 0.64626 0.0
H741 H 0.11283 0.69894 0.67801 0.0
C742 C 0.0926 0.66113 0.67881 0.0
C743 C 0.08054 0.64248 0.67634 0.0
C744 C 0.1003 0.67197 0.66063 0.0
C745 C 0.07888 0.63322 0.65598 0.0
C746 C 0.08702 0.64349 0.63801 0.0
C747 C 0.10007 0.67611 0.62184 0.0
C748 C 0.10598 0.69755 0.62399 0.0
C749 C 0.09659 0.66347 0.64004 0.0
C750 C 0.11227 0.705 0.64419 0.0
C751 C 0.10956 0.69221 0.66242 0.0
H752 H 0.31206 0.09739 0.62917 0.0
H753 H 0.29984 0.15361 0.6665 0.0
H754 H 0.32587 0.14241 0.69286 0.0
H755 H 0.35341 0.11768 0.70431 0.0
H756 H 0.36594 0.06173 0.66666 0.0
H757 H 0.33835 0.07178 0.64154 0.0
C758 C 0.31498 0.10717 0.64312 0.0
C759 C 0.3041 0.12641 0.64573 0.0
C760 C 0.33007 0.10071 0.65816 0.0
C761 C 0.30803 0.13878 0.66401 0.0
C762 C 0.32294 0.13239 0.6791 0.0
C763 C 0.35002 0.10757 0.6907 0.0
C764 C 0.36186 0.08904 0.68732 0.0
C765 C 0.33425 0.11354 0.67618 0.0
C766 C 0.35716 0.07612 0.66963 0.0
C767 C 0.34139 0.08187 0.65521 0.0
H768 H 0.86009 0.30789 0.61333 0.0
H769 H 0.84309 0.2558 0.65467 0.0
H770 H 0.84348 0.27946 0.68554 0.0
H771 H 0.86075 0.31112 0.7012 0.0
H772 H 0.88232 0.36136 0.65936 0.0
H773 H 0.86813 0.34265 0.62847 0.0
C774 C 0.85519 0.30209 0.62894 0.0
C775 C 0.8524 0.28011 0.63196 0.0
C776 C 0.85738 0.31538 0.64675 0.0
C777 C 0.84564 0.27266 0.65202 0.0
C778 C 0.84643 0.28612 0.66981 0.0
C779 C 0.86161 0.3183 0.68541 0.0
C780 C 0.87311 0.33722 0.68241 0.0
C781 C 0.85423 0.30695 0.66754 0.0
C782 C 0.87401 0.34649 0.66193 0.0
C783 C 0.86587 0.33582 0.64426 0.0
H784 H 0.68289 0.81235 0.65033 0.0
H785 H 0.68444 0.88054 0.64159 0.0
H786 H 0.66075 0.88489 0.67184 0.0
H787 H 0.63789 0.86926 0.69928 0.0
H788 H 0.63586 0.80104 0.7076 0.0
H789 H 0.66155 0.79685 0.67908 0.0
C790 C 0.6782 0.82819 0.65513 0.0
C791 C 0.68533 0.84607 0.64357 0.0
C792 C 0.6644 0.83059 0.67241 0.0
C793 C 0.67913 0.86647 0.65011 0.0
C794 C 0.66554 0.86899 0.6674 0.0
C795 C 0.64317 0.85347 0.69499 0.0
C796 C 0.63481 0.83549 0.70548 0.0
C797 C 0.65781 0.85114 0.67843 0.0
C798 C 0.64194 0.81516 0.69976 0.0
C799 C 0.65662 0.81274 0.68341 0.0
H800 H 0.31989 0.09083 0.26389 0.0
H801 H 0.35112 0.03879 0.29586 0.0
H802 H 0.32563 0.04011 0.32485 0.0
H803 H 0.29648 0.05808 0.34263 0.0
H804 H 0.26573 0.11065 0.31108 0.0
H805 H 0.28886 0.10684 0.2803 0.0
C806 C 0.32102 0.07963 0.27709 0.0
C807 C 0.33757 0.06492 0.27781 0.0
C808 C 0.30643 0.08061 0.29384 0.0
C809 C 0.33865 0.0504 0.29495 0.0
C810 C 0.32409 0.05115 0.31157 0.0
C811 C 0.29464 0.06855 0.32893 0.0
C812 C 0.27955 0.08479 0.32931 0.0
C813 C 0.30821 0.0665 0.31142 0.0
C814 C 0.2773 0.0981 0.3113 0.0
C815 C 0.29057 0.09598 0.29371 0.0
H816 H 0.8629 0.28843 0.34325 0.0
H817 H 0.88905 0.33562 0.38565 0.0
H818 H 0.88213 0.36341 0.35931 0.0
H819 H 0.87831 0.37191 0.3213 0.0
H820 H 0.85542 0.32438 0.27768 0.0
H821 H 0.85057 0.29935 0.30739 0.0
C822 C 0.86629 0.30491 0.34706 0.0
C823 C 0.87701 0.3099 0.36613 0.0
C824 C 0.86309 0.32073 0.33139 0.0
C825 C 0.88119 0.33133 0.3709 0.0
C826 C 0.87731 0.34723 0.35579 0.0
C827 C 0.87122 0.35643 0.31853 0.0
C828 C 0.86751 0.34981 0.29743 0.0
C829 C 0.86968 0.34184 0.33549 0.0
C830 C 0.85833 0.32981 0.29384 0.0
C831 C 0.85594 0.31536 0.31082 0.0
H832 H 0.69661 0.89683 0.32877 0.0
H833 H 0.70429 0.83038 0.31349 0.0
H834 H 0.67524 0.83251 0.2881 0.0
H835 H 0.6461 0.85248 0.27236 0.0
H836 H 0.63763 0.91858 0.28862 0.0
H837 H 0.66865 0.91731 0.31153 0.0
C838 C 0.69212 0.88285 0.31971 0.0
C839 C 0.70254 0.86342 0.32315 0.0
C840 C 0.67515 0.88407 0.30548 0.0
C841 C 0.69649 0.8455 0.31124 0.0
C842 C 0.67984 0.84669 0.29676 0.0
C843 C 0.65108 0.86667 0.2808 0.0
C844 C 0.63943 0.88555 0.27893 0.0
C845 C 0.66878 0.86576 0.29411 0.0
C846 C 0.64622 0.90381 0.28988 0.0
C847 C 0.66396 0.9031 0.30298 0.0
H848 H 0.11084 0.6172 0.30615 0.0
H849 H 0.13489 0.66517 0.26307 0.0
H850 H 0.12558 0.693 0.28866 0.0
H851 H 0.10785 0.70378 0.32224 0.0
H852 H 0.08366 0.65511 0.3645 0.0
H853 H 0.09618 0.62752 0.34051 0.0
C854 C 0.11411 0.63373 0.30233 0.0
C855 C 0.12326 0.6391 0.28257 0.0
C856 C 0.1088 0.64956 0.31709 0.0
C857 C 0.12772 0.6606 0.2781 0.0
C858 C 0.12241 0.67652 0.29274 0.0
C859 C 0.10583 0.68712 0.32641 0.0
C860 C 0.09479 0.68149 0.34509 0.0
C861 C 0.11264 0.67122 0.31219 0.0
C862 C 0.09203 0.65985 0.35017 0.0
C863 C 0.09908 0.64405 0.3364 0.0
H864 H 0.3222 0.87748 0.69285 0.0
H865 H 0.37614 0.90316 0.66005 0.0
H866 H 0.35447 0.91208 0.62915 0.0
H867 H 0.31997 0.91468 0.61238 0.0
H868 H 0.26586 0.88832 0.6444 0.0
H869 H 0.2879 0.87695 0.67432 0.0
C870 C 0.32913 0.88504 0.67892 0.0
C871 C 0.35064 0.88997 0.67883 0.0
C872 C 0.31663 0.88976 0.66097 0.0
C873 C 0.35958 0.89934 0.66054 0.0
C874 C 0.34722 0.90441 0.64284 0.0
C875 C 0.31302 0.90613 0.62574 0.0
C876 C 0.29127 0.90256 0.62622 0.0
C877 C 0.32571 0.89991 0.64298 0.0
C878 C 0.28257 0.89124 0.64355 0.0
C879 C 0.29514 0.88495 0.66081 0.0
H880 H 0.12961 0.33576 0.70612 0.0
H881 H 0.09242 0.37411 0.66302 0.0
H882 H 0.08316 0.34266 0.64252 0.0
H883 H 0.08207 0.30415 0.63934 0.0
H884 H 0.1179 0.26491 0.68262 0.0
H885 H 0.13166 0.29687 0.70024 0.0
C886 C 0.11977 0.33726 0.69204 0.0
C887 C 0.11143 0.35723 0.68634 0.0
C888 C 0.11418 0.31896 0.68042 0.0
C889 C 0.0988 0.35892 0.66797 0.0
C890 C 0.09348 0.34093 0.65621 0.0
C891 C 0.09311 0.30256 0.65247 0.0
C892 C 0.09868 0.28224 0.65993 0.0
C893 C 0.10052 0.32085 0.6627 0.0
C894 C 0.11332 0.28042 0.67664 0.0
C895 C 0.12105 0.29867 0.68681 0.0
H896 H 0.64683 0.08085 0.59823 0.0
H897 H 0.70209 0.10829 0.62701 0.0
H898 H 0.68333 0.11289 0.66059 0.0
H899 H 0.6552 0.09897 0.68394 0.0
H900 H 0.60173 0.06788 0.65545 0.0
H901 H 0.61555 0.07503 0.6198 0.0
C902 C 0.65455 0.08859 0.6116 0.0
C903 C 0.67606 0.09334 0.61039 0.0
C904 C 0.64407 0.08995 0.63123 0.0
C905 C 0.68565 0.10401 0.6276 0.0
C906 C 0.67499 0.10638 0.64698 0.0
C907 C 0.64622 0.09456 0.66988 0.0
C908 C 0.62777 0.08247 0.67222 0.0
C909 C 0.65479 0.09782 0.6494 0.0
C910 C 0.6162 0.07685 0.65395 0.0
C911 C 0.62412 0.08088 0.63357 0.0
H912 H 0.86345 0.69458 0.65479 0.0
H913 H 0.89622 0.65428 0.6103 0.0
H914 H 0.88083 0.62282 0.62676 0.0
H915 H 0.86141 0.60652 0.65602 0.0
H916 H 0.82919 0.64599 0.70154 0.0
H917 H 0.84069 0.67792 0.68225 0.0
C918 C 0.8669 0.67893 0.6485 0.0
C919 C 0.88123 0.67678 0.63159 0.0
C920 C 0.85823 0.66072 0.65831 0.0
C921 C 0.88552 0.65638 0.62356 0.0
C922 C 0.87671 0.63834 0.63293 0.0
C923 C 0.85667 0.62209 0.6616 0.0
C924 C 0.84475 0.62388 0.68035 0.0
C925 C 0.8636 0.64029 0.6507 0.0
C926 C 0.83847 0.64416 0.68718 0.0
C927 C 0.84513 0.66245 0.67622 0.0
H928 H 0.31585 0.36455 0.09246 0.0
H929 H 0.26799 0.32009 0.11222 0.0
H930 H 0.29478 0.29607 0.12639 0.0
H931 H 0.332 0.2854 0.12753 0.0
H932 H 0.37963 0.33059 0.10864 0.0
H933 H 0.35278 0.35673 0.09985 0.0
C934 C 0.31131 0.34989 0.10048 0.0
C935 C 0.29012 0.3439 0.10112 0.0
C936 C 0.32676 0.33613 0.10832 0.0
C937 C 0.28427 0.32501 0.11165 0.0
C938 C 0.29959 0.31117 0.11949 0.0
C939 C 0.33644 0.3011 0.12181 0.0
C940 C 0.35766 0.30596 0.11829 0.0
C941 C 0.32091 0.31615 0.117 0.0
C942 C 0.36335 0.32645 0.11131 0.0
C943 C 0.34802 0.34139 0.10623 0.0
H944 H 0.31484 0.70316 0.83909 0.0
H945 H 0.33086 0.6839 0.90343 0.0
H946 H 0.30202 0.65828 0.90346 0.0
H947 H 0.27416 0.63918 0.88413 0.0
H948 H 0.2588 0.65794 0.81947 0.0
H949 H 0.28526 0.68601 0.82081 0.0
C950 C 0.31192 0.69352 0.85321 0.0
C951 C 0.32519 0.69534 0.87113 0.0
C952 C 0.29543 0.67863 0.85306 0.0
C953 C 0.32102 0.68278 0.88934 0.0
C954 C 0.30452 0.66808 0.88938 0.0
C955 C 0.27636 0.64961 0.87044 0.0
C956 C 0.2646 0.64629 0.85166 0.0
C957 C 0.2919 0.66554 0.87117 0.0
C958 C 0.2677 0.66 0.83409 0.0
C959 C 0.28289 0.67605 0.83481 0.0
H960 H 0.33468 0.36827 0.85335 0.0
H961 H 0.28727 0.32516 0.83013 0.0
H962 H 0.31164 0.29551 0.83322 0.0
H963 H 0.34152 0.28102 0.85374 0.0
H964 H 0.38627 0.32426 0.88188 0.0
H965 H 0.36816 0.35446 0.86581 0.0
C966 C 0.33003 0.35253 0.848 0.0
C967 C 0.30899 0.34873 0.84246 0.0
C968 C 0.34351 0.33534 0.85163 0.0
C969 C 0.30327 0.32848 0.8349 0.0
C970 C 0.31711 0.31138 0.83711 0.0
C971 C 0.34771 0.29701 0.85564 0.0
C972 C 0.36485 0.30054 0.86937 0.0
C973 C 0.33654 0.31441 0.84727 0.0
C974 C 0.37282 0.32126 0.87171 0.0
C975 C 0.36246 0.33853 0.86254 0.0
H976 H 0.64768 0.28881 0.86977 0.0
H977 H 0.61591 0.30855 0.92723 0.0
H978 H 0.64115 0.33738 0.93194 0.0
H979 H 0.67117 0.35822 0.91885 0.0
H980 H 0.70294 0.33866 0.86135 0.0
H981 H 0.67888 0.30861 0.85768 0.0
C982 C 0.64636 0.2993 0.88343 0.0
C983 C 0.62978 0.29652 0.89803 0.0
C984 C 0.6609 0.31602 0.88601 0.0
C985 C 0.62842 0.31029 0.91566 0.0
C986 C 0.64285 0.32685 0.91837 0.0
C987 C 0.67292 0.34734 0.90557 0.0
C988 C 0.6888 0.35086 0.89033 0.0
C989 C 0.65897 0.33007 0.90349 0.0
C990 C 0.69086 0.33645 0.8733 0.0
C991 C 0.67707 0.31923 0.87116 0.0
H992 H 0.6573 0.61423 0.88817 0.0
H993 H 0.69933 0.66485 0.86983 0.0
H994 H 0.67026 0.6901 0.86968 0.0
H995 H 0.6357 0.69884 0.88484 0.0
H996 H 0.59454 0.64797 0.9051 0.0
H997 H 0.62012 0.62173 0.89377 0.0
C998 C 0.65984 0.6306 0.88316 0.0
C999 C 0.68033 0.63785 0.87942 0.0
C1000 C 0.64324 0.64509 0.88394 0.0
C1001 C 0.68361 0.65898 0.8728 0.0
C1002 C 0.66703 0.67348 0.87303 0.0
C1003 C 0.63197 0.68202 0.88595 0.0
C1004 C 0.61359 0.67535 0.8965 0.0
C1005 C 0.64712 0.66695 0.8801 0.0
C1006 C 0.60884 0.6535 0.89755 0.0
C1007 C 0.62351 0.63846 0.89117 0.0
H1008 H 0.6501 0.68039 0.16613 0.0
H1009 H 0.63813 0.71541 0.10773 0.0
H1010 H 0.6698 0.70126 0.09195 0.0
H1011 H 0.69855 0.67637 0.09303 0.0
H1012 H 0.71076 0.63938 0.14984 0.0
H1013 H 0.68169 0.65727 0.16824 0.0
C1014 C 0.65459 0.68505 0.15005 0.0
C1015 C 0.64156 0.69863 0.13799 0.0
C1016 C 0.67284 0.67655 0.14083 0.0
C1017 C 0.64763 0.70467 0.11723 0.0
C1018 C 0.6658 0.69667 0.10819 0.0
C1019 C 0.69505 0.67246 0.10959 0.0
C1020 C 0.70649 0.65651 0.12006 0.0
C1021 C 0.67815 0.68222 0.11961 0.0
C1022 C 0.70211 0.65171 0.14154 0.0
C1023 C 0.68538 0.66177 0.15192 0.0
H1024 H 0.31779 0.68992 0.08199 0.0
H1025 H 0.36093 0.65005 0.11709 0.0
H1026 H 0.33714 0.61995 0.1137 0.0
H1027 H 0.30388 0.60502 0.10179 0.0
H1028 H 0.26002 0.64432 0.06712 0.0
H1029 H 0.28431 0.67448 0.06928 0.0
C1030 C 0.322 0.67461 0.08879 0.0
C1031 C 0.3411 0.67231 0.09984 0.0
C1032 C 0.30811 0.65725 0.08693 0.0
C1033 C 0.34631 0.65236 0.10859 0.0
C1034 C 0.33271 0.63508 0.10667 0.0
C1035 C 0.2996 0.62015 0.09463 0.0
C1036 C 0.28013 0.6224 0.08437 0.0
C1037 C 0.31353 0.63738 0.09604 0.0
C1038 C 0.2749 0.64214 0.07516 0.0
C1039 C 0.28879 0.65941 0.0764 0.0
H1040 H 0.6903 0.34712 0.0795 0.0
H1041 H 0.64739 0.38349 0.11805 0.0
H1042 H 0.62289 0.3538 0.11865 0.0
H1043 H 0.61357 0.31761 0.10864 0.0
H1044 H 0.6559 0.28057 0.07021 0.0
H1045 H 0.68066 0.31041 0.06917 0.0
C1046 C 0.67558 0.34853 0.08799 0.0
C1047 C 0.67075 0.36753 0.09872 0.0
C1048 C 0.66144 0.33129 0.08833 0.0
C1049 C 0.65158 0.36909 0.10966 0.0
C1050 C 0.63751 0.3521 0.11003 0.0
C1051 C 0.6282 0.316 0.10001 0.0
C1052 C 0.63287 0.29687 0.08955 0.0
C1053 C 0.64229 0.33314 0.09949 0.0
C1054 C 0.65191 0.29513 0.07843 0.0
C1055 C 0.66608 0.31219 0.07782 0.0
H1056 H 0.58499 0.84728 0.83828 0.0
H1057 H 0.62248 0.81731 0.78964 0.0
H1058 H 0.63252 0.78945 0.81512 0.0
H1059 H 0.62697 0.77129 0.84997 0.0
H1060 H 0.58725 0.80084 0.89705 0.0
H1061 H 0.58165 0.831 0.87331 0.0
C1062 C 0.59562 0.83486 0.83323 0.0
C1063 C 0.6027 0.83428 0.81195 0.0
C1064 C 0.60063 0.81853 0.84762 0.0
C1065 C 0.6167 0.81816 0.80589 0.0
C1066 C 0.6223 0.80209 0.82041 0.0
C1067 C 0.61727 0.78444 0.85507 0.0
C1068 C 0.60731 0.78364 0.87514 0.0
C1069 C 0.61375 0.80171 0.8411 0.0
C1070 C 0.59485 0.80085 0.88157 0.0
C1071 C 0.59168 0.81819 0.86804 0.0
H1072 H 0.14555 0.57406 0.84422 0.0
H1073 H 0.18652 0.62018 0.81455 0.0
H1074 H 0.15704 0.63389 0.79332 0.0
H1075 H 0.12002 0.6304 0.78108 0.0
H1076 H 0.08012 0.58356 0.81156 0.0
H1077 H 0.1088 0.57252 0.83444 0.0
C1078 C 0.14804 0.58726 0.83325 0.0
C1079 C 0.16822 0.59593 0.83078 0.0
C1080 C 0.13122 0.59479 0.82104 0.0
C1081 C 0.1711 0.61325 0.81677 0.0
C1082 C 0.15429 0.62096 0.80451 0.0
C1083 C 0.1176 0.6179 0.79284 0.0
C1084 C 0.09793 0.6077 0.79435 0.0
C1085 C 0.13434 0.61149 0.80614 0.0
C1086 C 0.09505 0.59164 0.80983 0.0
C1087 C 0.11147 0.58526 0.823 0.0
H1088 H 0.39785 0.14679 0.7824 0.0
H1089 H 0.39231 0.09311 0.82514 0.0
H1090 H 0.38133 0.11665 0.85412 0.0
H1091 H 0.37666 0.15269 0.86804 0.0
H1092 H 0.38582 0.20682 0.82634 0.0
H1093 H 0.39217 0.18301 0.7962 0.0
C1094 C 0.39369 0.14028 0.79794 0.0
C1095 C 0.39549 0.1183 0.80167 0.0
C1096 C 0.38847 0.15404 0.81475 0.0
C1097 C 0.39074 0.10999 0.82196 0.0
C1098 C 0.38464 0.12345 0.83852 0.0
C1099 C 0.37985 0.1593 0.85232 0.0
C1100 C 0.38083 0.18149 0.84945 0.0
C1101 C 0.384 0.14554 0.83524 0.0
C1102 C 0.38514 0.18979 0.829 0.0
C1103 C 0.3887 0.17619 0.81175 0.0
H1104 H 0.86956 0.35215 0.83184 0.0
H1105 H 0.83064 0.34972 0.77537 0.0
H1106 H 0.7997 0.35728 0.79696 0.0
H1107 H 0.7846 0.36935 0.83096 0.0
H1108 H 0.82432 0.37576 0.88636 0.0
H1109 H 0.85393 0.3613 0.86638 0.0
C1110 C 0.85427 0.35293 0.8243 0.0
C1111 C 0.85244 0.35059 0.802 0.0
C1112 C 0.83666 0.35794 0.8367 0.0
C1113 C 0.83251 0.3517 0.79248 0.0
C1114 C 0.8148 0.35599 0.80482 0.0
C1115 C 0.79957 0.36683 0.8388 0.0
C1116 C 0.80232 0.37329 0.86011 0.0
C1117 C 0.81678 0.35974 0.82684 0.0
C1118 C 0.82189 0.37062 0.87002 0.0
C1119 C 0.83883 0.36259 0.85853 0.0
H1120 H 0.62293 0.14947 0.10332 0.0
H1121 H 0.63376 0.20891 0.13564 0.0
H1122 H 0.63492 0.19045 0.17001 0.0
H1123 H 0.62134 0.15962 0.19067 0.0
H1124 H 0.60786 0.10102 0.15777 0.0
H1125 H 0.61966 0.1166 0.12411 0.0
C1126 C 0.62661 0.15821 0.11779 0.0
C1127 C 0.62749 0.18054 0.11703 0.0
C1128 C 0.62613 0.14762 0.13759 0.0
C1129 C 0.63271 0.1917 0.13578 0.0
C1130 C 0.633 0.18116 0.15556 0.0
C1131 C 0.62199 0.15001 0.17632 0.0
C1132 C 0.61333 0.12941 0.1765 0.0
C1133 C 0.62797 0.15943 0.15674 0.0
C1134 C 0.61419 0.11706 0.15785 0.0
C1135 C 0.6208 0.126 0.13856 0.0
H1136 H 0.86545 0.55617 0.17949 0.0
H1137 H 0.85921 0.61745 0.2097 0.0
H1138 H 0.82961 0.62588 0.18651 0.0
H1139 H 0.80649 0.61661 0.15644 0.0
H1140 H 0.81289 0.55538 0.12616 0.0
H1141 H 0.84121 0.54619 0.15067 0.0
C1142 C 0.85757 0.57134 0.18107 0.0
C1143 C 0.86469 0.58618 0.19623 0.0
C1144 C 0.84054 0.57614 0.16764 0.0
C1145 C 0.85417 0.60572 0.19813 0.0
C1146 C 0.8372 0.61058 0.18485 0.0
C1147 C 0.81394 0.60118 0.15533 0.0
C1148 C 0.80763 0.58679 0.13937 0.0
C1149 C 0.83039 0.59602 0.16939 0.0
C1150 C 0.81747 0.56684 0.1382 0.0
C1151 C 0.83372 0.56156 0.1522 0.0
H1152 H 0.33716 0.77277 0.14942 0.0
H1153 H 0.34636 0.81769 0.09808 0.0
H1154 H 0.34068 0.84719 0.12254 0.0
H1155 H 0.3459 0.85901 0.15951 0.0
H1156 H 0.33993 0.814 0.21133 0.0
H1157 H 0.33107 0.78587 0.186 0.0
C1158 C 0.33656 0.78897 0.14338 0.0
C1159 C 0.34263 0.79317 0.12217 0.0
C1160 C 0.3347 0.80588 0.15792 0.0
C1161 C 0.34186 0.81417 0.11443 0.0
C1162 C 0.33902 0.83106 0.12853 0.0
C1163 C 0.34164 0.84326 0.16528 0.0
C1164 C 0.34413 0.83836 0.18709 0.0
C1165 C 0.33739 0.82703 0.15054 0.0
C1166 C 0.3383 0.81808 0.19455 0.0
C1167 C 0.33349 0.8019 0.18001 0.0
H1168 H 0.19778 0.32488 0.14454 0.0
H1169 H 0.18502 0.39069 0.12946 0.0
H1170 H 0.16163 0.39292 0.16022 0.0
H1171 H 0.14347 0.37573 0.19023 0.0
H1172 H 0.15565 0.30971 0.20484 0.0
H1173 H 0.18076 0.30812 0.17548 0.0
C1174 C 0.18999 0.33976 0.14802 0.0
C1175 C 0.19306 0.35754 0.13461 0.0
C1176 C 0.17643 0.3409 0.16563 0.0
C1177 C 0.18287 0.37672 0.13944 0.0
C1178 C 0.16948 0.37802 0.15703 0.0
C1179 C 0.15173 0.36102 0.18713 0.0
C1180 C 0.14758 0.34283 0.19967 0.0
C1181 C 0.16595 0.36014 0.17006 0.0
C1182 C 0.15847 0.32393 0.19541 0.0
C1183 C 0.17281 0.32299 0.17859 0.0
H1184 H 0.77087 0.61263 0.81796 0.0
H1185 H 0.82223 0.61376 0.86294 0.0
H1186 H 0.84606 0.60109 0.83543 0.0
H1187 H 0.85152 0.58632 0.79967 0.0
H1188 H 0.80107 0.58705 0.75377 0.0
H1189 H 0.77768 0.60267 0.78041 0.0
C1190 C 0.78733 0.61034 0.82158 0.0
C1191 C 0.79476 0.6138 0.84243 0.0
C1192 C 0.80106 0.60334 0.80558 0.0
C1193 C 0.81616 0.61114 0.84696 0.0
C1194 C 0.82979 0.60381 0.83129 0.0
C1195 C 0.83548 0.59025 0.79547 0.0
C1196 C 0.82785 0.58538 0.77503 0.0
C1197 C 0.82229 0.59937 0.81072 0.0
C1198 C 0.8072 0.59073 0.7695 0.0
C1199 C 0.79381 0.5995 0.78474 0.0
H1200 H 0.3612 0.86318 0.82741 0.0
H1201 H 0.34634 0.82124 0.77503 0.0
H1202 H 0.34834 0.79053 0.79913 0.0
H1203 H 0.3605 0.77536 0.83363 0.0
H1204 H 0.37809 0.81775 0.8847 0.0
H1205 H 0.36853 0.84845 0.86277 0.0
C1206 C 0.35799 0.84736 0.8213 0.0
C1207 C 0.35407 0.84452 0.79934 0.0
C1208 C 0.35984 0.82978 0.83507 0.0
C1209 C 0.3496 0.82393 0.79181 0.0
C1210 C 0.35087 0.80631 0.80558 0.0
C1211 C 0.36154 0.7913 0.84014 0.0
C1212 C 0.37003 0.79436 0.8607 0.0
C1213 C 0.35686 0.80898 0.82704 0.0
C1214 C 0.37164 0.81508 0.86888 0.0
C1215 C 0.36629 0.83262 0.85631 0.0
H1216 H 0.16232 0.37136 0.84561 0.0
H1217 H 0.21046 0.36701 0.79748 0.0
H1218 H 0.18528 0.37757 0.76989 0.0
H1219 H 0.15058 0.39155 0.76019 0.0
H1220 H 0.10374 0.39928 0.80915 0.0
H1221 H 0.12731 0.3836 0.83569 0.0
C1222 C 0.16724 0.3724 0.82904 0.0
C1223 C 0.18822 0.36849 0.82358 0.0
C1224 C 0.15291 0.37918 0.81345 0.0
C1225 C 0.19441 0.37008 0.80207 0.0
C1226 C 0.18003 0.37612 0.78631 0.0
C1227 C 0.14543 0.38938 0.77659 0.0
C1228 C 0.12551 0.3965 0.78278 0.0
C1229 C 0.15938 0.3812 0.79191 0.0
C1230 C 0.11907 0.39394 0.8041 0.0
C1231 C 0.13254 0.38505 0.81926 0.0
H1232 H 0.6511 0.13104 0.80522 0.0
H1233 H 0.60042 0.1357 0.75951 0.0
H1234 H 0.58736 0.16715 0.77749 0.0
H1235 H 0.58756 0.19046 0.80854 0.0
H1236 H 0.63721 0.18629 0.85504 0.0
H1237 H 0.65375 0.15778 0.83423 0.0
C1238 C 0.63739 0.13913 0.79902 0.0
C1239 C 0.62655 0.13074 0.78125 0.0
C1240 C 0.62977 0.15726 0.8096 0.0
C1241 C 0.60892 0.14157 0.7733 0.0
C1242 C 0.60141 0.1596 0.78357 0.0
C1243 C 0.60231 0.18363 0.81379 0.0
C1244 C 0.61123 0.19028 0.83317 0.0
C1245 C 0.61132 0.16715 0.80205 0.0
C1246 C 0.63025 0.18145 0.84 0.0
C1247 C 0.63953 0.16504 0.82823 0.0
H1248 H 0.82495 0.35287 0.17496 0.0
H1249 H 0.83933 0.41531 0.19989 0.0
H1250 H 0.81407 0.43115 0.17552 0.0
H1251 H 0.78924 0.42777 0.14642 0.0
H1252 H 0.7732 0.36599 0.12135 0.0
H1253 H 0.79781 0.3493 0.14664 0.0
C1254 C 0.82244 0.36992 0.17514 0.0
C1255 C 0.83419 0.38289 0.18914 0.0
C1256 C 0.80776 0.37903 0.16102 0.0
C1257 C 0.83061 0.40493 0.18929 0.0
C1258 C 0.8162 0.41405 0.1753 0.0
C1259 C 0.79116 0.41063 0.14634 0.0
C1260 C 0.77975 0.39813 0.13176 0.0
C1261 C 0.80497 0.4013 0.16094 0.0
C1262 C 0.78196 0.37592 0.13232 0.0
C1263 C 0.79602 0.36643 0.14675 0.0
H1264 H 0.61393 0.85031 0.20884 0.0
H1265 H 0.59299 0.88671 0.1543 0.0
H1266 H 0.59589 0.85543 0.13162 0.0
H1267 H 0.59299 0.81655 0.13075 0.0
H1268 H 0.61116 0.77955 0.18583 0.0
H1269 H 0.62107 0.81207 0.20481 0.0
C1270 C 0.61111 0.85164 0.19176 0.0
C1271 C 0.60261 0.87052 0.18332 0.0
C1272 C 0.61162 0.83324 0.1791 0.0
C1273 C 0.59918 0.87217 0.16116 0.0
C1274 C 0.60056 0.85421 0.14826 0.0
C1275 C 0.6 0.81564 0.14657 0.0
C1276 C 0.60093 0.79595 0.15717 0.0
C1277 C 0.60497 0.83438 0.15752 0.0
C1278 C 0.61021 0.79467 0.17749 0.0
C1279 C 0.61567 0.81328 0.1884 0.0
H1280 H 0.11526 0.58905 0.1618 0.0
H1281 H 0.16997 0.60639 0.19826 0.0
H1282 H 0.18824 0.61657 0.1653 0.0
H1283 H 0.1912 0.61108 0.12638 0.0
H1284 H 0.13667 0.59186 0.09037 0.0
H1285 H 0.11545 0.59289 0.12272 0.0
C1286 C 0.13089 0.59588 0.16253 0.0
C1287 C 0.14146 0.59666 0.18223 0.0
C1288 C 0.14137 0.60118 0.14352 0.0
C1289 C 0.1616 0.60564 0.18319 0.0
C1290 C 0.17209 0.61126 0.16431 0.0
C1291 C 0.17447 0.60817 0.1254 0.0
C1292 C 0.16562 0.60083 0.10611 0.0
C1293 C 0.16256 0.60779 0.14433 0.0
C1294 C 0.14389 0.59722 0.1051 0.0
C1295 C 0.1318 0.59754 0.12367 0.0
H1296 H 0.36698 0.16063 0.1061 0.0
H1297 H 0.35902 0.20247 0.15984 0.0
H1298 H 0.34687 0.1726 0.18182 0.0
H1299 H 0.34889 0.13389 0.18786 0.0
H1300 H 0.35916 0.09225 0.13436 0.0
H1301 H 0.35887 0.1226 0.10994 0.0
C1302 C 0.36178 0.1633 0.12238 0.0
C1303 C 0.36437 0.1835 0.13156 0.0
C1304 C 0.35533 0.14597 0.13501 0.0
C1305 C 0.3573 0.18697 0.15251 0.0
C1306 C 0.35053 0.16984 0.16514 0.0
C1307 C 0.34984 0.13136 0.17074 0.0
C1308 C 0.35462 0.11098 0.16294 0.0
C1309 C 0.3509 0.14907 0.15694 0.0
C1310 C 0.35574 0.10787 0.14072 0.0
C1311 C 0.35593 0.12528 0.12679 0.0
H1312 H 0.8312 0.7734 0.62783 0.0
H1313 H 0.87335 0.82532 0.61317 0.0
H1314 H 0.84378 0.8479 0.60372 0.0
H1315 H 0.80642 0.8514 0.59534 0.0
H1316 H 0.76372 0.80057 0.61137 0.0
H1317 H 0.79292 0.77912 0.625 0.0
C1318 C 0.83382 0.78976 0.62287 0.0
C1319 C 0.8544 0.79759 0.62084 0.0
C1320 C 0.81669 0.8028 0.6177 0.0
C1321 C 0.85765 0.81889 0.61476 0.0
C1322 C 0.84076 0.83181 0.60928 0.0
C1323 C 0.80352 0.83583 0.60235 0.0
C1324 C 0.78315 0.82741 0.60231 0.0
C1325 C 0.8203 0.82373 0.6101 0.0
C1326 C 0.77936 0.80733 0.61144 0.0
C1327 C 0.79606 0.79502 0.619 0.0
H1328 H 0.84829 0.18125 0.42914 0.0
H1329 H 0.83343 0.21104 0.36865 0.0
H1330 H 0.80425 0.18634 0.36366 0.0
H1331 H 0.78513 0.15422 0.37482 0.0
H1332 H 0.80059 0.12393 0.43491 0.0
H1333 H 0.82713 0.15109 0.44181 0.0
C1334 C 0.83857 0.18248 0.41495 0.0
C1335 C 0.84325 0.19779 0.39916 0.0
C1336 C 0.82193 0.16809 0.41206 0.0
C1337 C 0.83031 0.1993 0.38099 0.0
C1338 C 0.81361 0.18516 0.37809 0.0
C1339 C 0.79407 0.15373 0.38958 0.0
C1340 C 0.79104 0.13689 0.40419 0.0
C1341 C 0.80959 0.16918 0.39329 0.0
C1342 C 0.80271 0.13659 0.42329 0.0
C1343 C 0.81795 0.15209 0.42723 0.0
H1344 H 0.78657 0.82811 0.35456 0.0
H1345 H 0.83152 0.87519 0.37507 0.0
H1346 H 0.85889 0.84829 0.37631 0.0
H1347 H 0.86655 0.81052 0.38214 0.0
H1348 H 0.82107 0.76304 0.36383 0.0
H1349 H 0.79755 0.79081 0.35083 0.0
C1350 C 0.8026 0.83266 0.35818 0.0
C1351 C 0.80697 0.85339 0.3653 0.0
C1352 C 0.81799 0.81685 0.35999 0.0
C1353 C 0.82779 0.85918 0.36986 0.0
C1354 C 0.84338 0.84375 0.37086 0.0
C1355 C 0.85178 0.80627 0.37462 0.0
C1356 C 0.84522 0.78493 0.37452 0.0
C1357 C 0.83817 0.82232 0.36768 0.0
C1358 C 0.82632 0.77945 0.36432 0.0
C1359 C 0.81279 0.79534 0.35702 0.0
H1360 H 0.12655 0.79546 0.39291 0.0
H1361 H 0.14294 0.77713 0.3286 0.0
H1362 H 0.16966 0.80488 0.32737 0.0
H1363 H 0.18692 0.83565 0.34348 0.0
H1364 H 0.17063 0.85485 0.40749 0.0
H1365 H 0.14548 0.82538 0.40994 0.0
C1366 C 0.13612 0.79739 0.37872 0.0
C1367 C 0.13258 0.78425 0.36082 0.0
C1368 C 0.15142 0.81362 0.378 0.0
C1369 C 0.14517 0.78703 0.34257 0.0
C1370 C 0.16048 0.80294 0.34182 0.0
C1371 C 0.17799 0.83338 0.35806 0.0
C1372 C 0.18058 0.8476 0.37521 0.0
C1373 C 0.16348 0.81655 0.35928 0.0
C1374 C 0.16894 0.84421 0.39401 0.0
C1375 C 0.15451 0.82737 0.3954 0.0
H1376 H 0.15572 0.12287 0.38336 0.0
H1377 H 0.19929 0.17019 0.36058 0.0
H1378 H 0.17255 0.19771 0.36396 0.0
H1379 H 0.14095 0.20904 0.38355 0.0
H1380 H 0.09858 0.16132 0.40844 0.0
H1381 H 0.1203 0.13329 0.39369 0.0
C1382 C 0.15892 0.13901 0.37801 0.0
C1383 C 0.17941 0.14465 0.37209 0.0
C1384 C 0.14383 0.15483 0.38109 0.0
C1385 C 0.18356 0.16552 0.36516 0.0
C1386 C 0.16837 0.18134 0.36751 0.0
C1387 C 0.13606 0.19255 0.38504 0.0
C1388 C 0.1186 0.18724 0.39776 0.0
C1389 C 0.14903 0.17638 0.37705 0.0
C1390 C 0.1123 0.16581 0.39926 0.0
C1391 C 0.12473 0.14973 0.39085 0.0
H1392 H 0.21806 0.17039 0.62953 0.0
H1393 H 0.18164 0.11885 0.60316 0.0
H1394 H 0.15016 0.13229 0.62044 0.0
H1395 H 0.13217 0.16174 0.63762 0.0
H1396 H 0.16774 0.21447 0.66287 0.0
H1397 H 0.20039 0.19754 0.65163 0.0
C1398 C 0.20336 0.16176 0.62828 0.0
C1399 C 0.20202 0.14377 0.61509 0.0
C1400 C 0.18511 0.17008 0.63758 0.0
C1401 C 0.1829 0.13278 0.61324 0.0
C1402 C 0.1649 0.14055 0.62295 0.0
C1403 C 0.14709 0.1694 0.64091 0.0
C1404 C 0.14757 0.1895 0.6506 0.0
C1405 C 0.16566 0.15972 0.63425 0.0
C1406 C 0.16699 0.19905 0.65522 0.0
C1407 C 0.18565 0.18941 0.64876 0.0
H1408 H 0.7688 0.12776 0.59852 0.0
H1409 H 0.80626 0.10604 0.54558 0.0
H1410 H 0.82966 0.13665 0.54979 0.0
H1411 H 0.84062 0.1684 0.56995 0.0
H1412 H 0.80326 0.18938 0.62331 0.0
H1413 H 0.77855 0.16033 0.61729 0.0
C1414 C 0.78203 0.12972 0.58782 0.0
C1415 C 0.78588 0.11449 0.5719 0.0
C1416 C 0.79544 0.14724 0.5904 0.0
C1417 C 0.80299 0.11744 0.55806 0.0
C1418 C 0.81639 0.13495 0.56046 0.0
C1419 C 0.82693 0.16677 0.5801 0.0
C1420 C 0.82388 0.18097 0.59715 0.0
C1421 C 0.81292 0.1498 0.57676 0.0
C1422 C 0.80607 0.17861 0.61016 0.0
C1423 C 0.79194 0.16197 0.60676 0.0
H1424 H 0.19512 0.86133 0.58231 0.0
H1425 H 0.19099 0.86988 0.65066 0.0
H1426 H 0.16884 0.83826 0.65359 0.0
H1427 H 0.14897 0.80953 0.63654 0.0
H1428 H 0.15305 0.80083 0.5682 0.0
H1429 H 0.17721 0.83096 0.56556 0.0
C1430 C 0.18941 0.85624 0.59786 0.0
C1431 C 0.19449 0.86809 0.6162 0.0
C1432 C 0.17675 0.83799 0.59945 0.0
C1433 C 0.18722 0.86112 0.63626 0.0
C1434 C 0.17456 0.84303 0.63797 0.0
C1435 C 0.15531 0.81405 0.62108 0.0
C1436 C 0.14904 0.80306 0.60258 0.0
C1437 C 0.169 0.83152 0.61964 0.0
C1438 C 0.15756 0.80905 0.58271 0.0
C1439 C 0.1713 0.82635 0.58116 0.0
H1440 H 0.10588 0.22152 0.50087 0.0
H1441 H 0.07625 0.28268 0.49334 0.0
H1442 H 0.06552 0.28188 0.53086 0.0
H1443 H 0.06459 0.26385 0.56574 0.0
H1444 H 0.09575 0.20352 0.57383 0.0
H1445 H 0.10594 0.20401 0.53615 0.0
C1446 C 0.097 0.23463 0.50744 0.0
C1447 C 0.09174 0.25208 0.49433 0.0
C1448 C 0.09123 0.23425 0.52911 0.0
C1449 C 0.08049 0.26908 0.50311 0.0
C1450 C 0.07434 0.26862 0.52455 0.0
C1451 C 0.07358 0.25077 0.55927 0.0
C1452 C 0.07929 0.23361 0.57257 0.0
C1453 C 0.07963 0.2513 0.53769 0.0
C1454 C 0.09118 0.21694 0.56397 0.0
C1455 C 0.09697 0.21718 0.54241 0.0
H1456 H 0.69165 0.05038 0.50134 0.0
H1457 H 0.74616 0.08816 0.51703 0.0
H1458 H 0.75276 0.09438 0.47903 0.0
H1459 H 0.74466 0.08662 0.44122 0.0
H1460 H 0.69075 0.04769 0.42612 0.0
H1461 H 0.68231 0.04458 0.46396 0.0
C1462 C 0.70487 0.06018 0.49654 0.0
C1463 C 0.71846 0.06861 0.51212 0.0
C1464 C 0.70878 0.06341 0.47467 0.0
C1465 C 0.73547 0.08133 0.50545 0.0
C1466 C 0.73929 0.08488 0.48368 0.0
C1467 C 0.73091 0.07771 0.4462 0.0
C1468 C 0.71848 0.06727 0.43081 0.0
C1469 C 0.72629 0.07563 0.46813 0.0
C1470 C 0.70074 0.05573 0.43758 0.0
C1471 C 0.69587 0.05392 0.45925 0.0
H1472 H 0.86375 0.74354 0.47483 0.0
H1473 H 0.89518 0.68435 0.4617 0.0
H1474 H 0.90706 0.68231 0.49879 0.0
H1475 H 0.90907 0.69758 0.53461 0.0
H1476 H 0.87701 0.75632 0.54827 0.0
H1477 H 0.86465 0.75818 0.51127 0.0
C1478 C 0.87324 0.73023 0.48009 0.0
C1479 C 0.87872 0.7142 0.46552 0.0
C1480 C 0.87983 0.72903 0.5015 0.0
C1481 C 0.89077 0.6969 0.47261 0.0
C1482 C 0.89758 0.69572 0.4938 0.0
C1483 C 0.89935 0.7108 0.52955 0.0
C1484 C 0.89409 0.72685 0.54418 0.0
C1485 C 0.89227 0.71173 0.50834 0.0
C1486 C 0.88128 0.74372 0.53736 0.0
C1487 C 0.87427 0.74484 0.51619 0.0
H1488 H 0.22586 0.90284 0.45243 0.0
H1489 H 0.28494 0.9341 0.43956 0.0
H1490 H 0.29245 0.93569 0.47763 0.0
H1491 H 0.28086 0.93172 0.51458 0.0
H1492 H 0.2216 0.90125 0.52815 0.0
H1493 H 0.21585 0.8955 0.48996 0.0
C1494 C 0.24051 0.9097 0.45793 0.0
C1495 C 0.25462 0.91863 0.44306 0.0
C1496 C 0.24472 0.91082 0.48005 0.0
C1497 C 0.27359 0.92738 0.45056 0.0
C1498 C 0.27796 0.92829 0.47239 0.0
C1499 C 0.2668 0.92354 0.50927 0.0
C1500 C 0.25159 0.91721 0.52429 0.0
C1501 C 0.2634 0.92062 0.48729 0.0
C1502 C 0.23358 0.90641 0.51701 0.0
C1503 C 0.2302 0.90321 0.49511 0.0
H1504 H 0.07233 0.70294 0.51915 0.0
H1505 H 0.1055 0.76288 0.51738 0.0
H1506 H 0.10554 0.76199 0.47822 0.0
H1507 H 0.09218 0.74626 0.44458 0.0
H1508 H 0.05819 0.6867 0.44725 0.0
H1509 H 0.06256 0.68541 0.48587 0.0
C1510 C 0.07985 0.7157 0.51024 0.0
C1511 C 0.08863 0.73309 0.52123 0.0
C1512 C 0.07946 0.71528 0.48782 0.0
C1513 C 0.09858 0.7493 0.50938 0.0
C1514 C 0.09847 0.74888 0.48696 0.0
C1515 C 0.08604 0.73282 0.45356 0.0
C1516 C 0.07457 0.71678 0.44295 0.0
C1517 C 0.08835 0.73227 0.47599 0.0
C1518 C 0.06682 0.69944 0.45492 0.0
C1519 C 0.06931 0.69866 0.47707 0.0
H1520 H 0.24641 0.14517 0.44811 0.0
H1521 H 0.29042 0.09372 0.44223 0.0
H1522 H 0.29967 0.09731 0.48033 0.0
H1523 H 0.29289 0.11379 0.51599 0.0
H1524 H 0.24818 0.16497 0.52004 0.0
H1525 H 0.24174 0.16296 0.48181 0.0
C1526 C 0.25805 0.13468 0.45511 0.0
C1527 C 0.26744 0.11895 0.44259 0.0
C1528 C 0.2632 0.1369 0.47667 0.0
C1529 C 0.28286 0.10585 0.45171 0.0
C1530 C 0.28811 0.10791 0.47344 0.0
C1531 C 0.28209 0.12471 0.50832 0.0
C1532 C 0.2709 0.13942 0.52075 0.0
C1533 C 0.27812 0.12322 0.48618 0.0
C1534 C 0.25682 0.15342 0.51078 0.0
C1535 C 0.25307 0.15226 0.48895 0.0
H1536 H 0.87946 0.23185 0.53122 0.0
H1537 H 0.92094 0.2844 0.54579 0.0
H1538 H 0.92341 0.29329 0.50808 0.0
H1539 H 0.91584 0.28509 0.4709 0.0
H1540 H 0.87495 0.23246 0.45539 0.0
H1541 H 0.86997 0.22501 0.49347 0.0
C1542 C 0.88894 0.24531 0.52616 0.0
C1543 C 0.90016 0.25724 0.54144 0.0
C1544 C 0.89042 0.25041 0.50424 0.0
C1545 C 0.91225 0.27474 0.53451 0.0
C1546 C 0.91368 0.27992 0.51288 0.0
C1547 C 0.90565 0.2721 0.47576 0.0
C1548 C 0.89598 0.25926 0.46021 0.0
C1549 C 0.90311 0.26769 0.4976 0.0
C1550 C 0.88268 0.24261 0.46695 0.0
C1551 C 0.8799 0.23825 0.48876 0.0
H1552 H 0.69614 0.86955 0.44337 0.0
H1553 H 0.75608 0.90076 0.44998 0.0
H1554 H 0.75354 0.89852 0.48878 0.0
H1555 H 0.73666 0.88335 0.52026 0.0
H1556 H 0.67707 0.85157 0.51473 0.0
H1557 H 0.67669 0.8587 0.47601 0.0
C1558 C 0.70834 0.87633 0.45339 0.0
C1559 C 0.72655 0.88478 0.44396 0.0
C1560 C 0.70691 0.87462 0.47576 0.0
C1561 C 0.74227 0.89356 0.45694 0.0
C1562 C 0.74078 0.89236 0.47912 0.0
C1563 C 0.72356 0.87811 0.5106 0.0
C1564 C 0.70721 0.86652 0.52001 0.0
C1565 C 0.72363 0.8821 0.4886 0.0
C1566 C 0.68991 0.86039 0.50759 0.0
C1567 C 0.68976 0.86439 0.48552 0.0
H1568 H 0.44912 0.08146 0.26211 0.0
H1569 H 0.44697 0.09159 0.19373 0.0
H1570 H 0.48358 0.1017 0.19363 0.0
H1571 H 0.51537 0.11048 0.21293 0.0
H1572 H 0.51925 0.09956 0.28097 0.0
H1573 H 0.48268 0.08759 0.2813 0.0
C1574 C 0.45678 0.08551 0.24716 0.0
C1575 C 0.44518 0.0857 0.22797 0.0
C1576 C 0.47805 0.09163 0.24718 0.0
C1577 C 0.45537 0.09113 0.20876 0.0
C1578 C 0.47637 0.09713 0.20866 0.0
C1579 C 0.50849 0.10511 0.2278 0.0
C1580 C 0.52018 0.1058 0.24682 0.0
C1581 C 0.48772 0.09785 0.22779 0.0
C1582 C 0.51062 0.09923 0.26604 0.0
C1583 C 0.48972 0.0923 0.26623 0.0
H1584 H 0.92689 0.50895 0.28966 0.0
H1585 H 0.89843 0.52355 0.22869 0.0
H1586 H 0.89112 0.48569 0.22304 0.0
H1587 H 0.89529 0.44804 0.23443 0.0
H1588 H 0.92467 0.43452 0.29528 0.0
H1589 H 0.929 0.47233 0.30191 0.0
C1590 C 0.91899 0.50396 0.27514 0.0
C1591 C 0.91345 0.51912 0.25953 0.0
C1592 C 0.91505 0.48226 0.27191 0.0
C1593 C 0.90296 0.51226 0.24097 0.0
C1594 C 0.89882 0.49058 0.2377 0.0
C1595 C 0.90238 0.45341 0.24924 0.0
C1596 C 0.90983 0.43839 0.26421 0.0
C1597 C 0.90514 0.47537 0.25291 0.0
C1598 C 0.91902 0.44565 0.28333 0.0
C1599 C 0.92151 0.46731 0.28718 0.0
H1600 H 0.51208 0.88701 0.22245 0.0
H1601 H 0.51448 0.91129 0.28686 0.0
H1602 H 0.47649 0.90599 0.29022 0.0
H1603 H 0.443 0.89239 0.27525 0.0
H1604 H 0.44227 0.86707 0.2111 0.0
H1605 H 0.47926 0.87514 0.20722 0.0
C1606 C 0.50437 0.89156 0.23715 0.0
C1607 C 0.51613 0.89965 0.25433 0.0
C1608 C 0.48279 0.88817 0.23904 0.0
C1609 C 0.50577 0.90509 0.27334 0.0
C1610 C 0.48408 0.90198 0.27529 0.0
C1611 C 0.45093 0.88878 0.26039 0.0
C1612 C 0.43977 0.87922 0.24345 0.0
C1613 C 0.47248 0.89319 0.25832 0.0
C1614 C 0.4503 0.87461 0.22432 0.0
C1615 C 0.47154 0.87913 0.22209 0.0
H1616 H 0.12869 0.50029 0.23428 0.0
H1617 H 0.09798 0.51767 0.29308 0.0
H1618 H 0.0862 0.48101 0.29811 0.0
H1619 H 0.08394 0.44417 0.2855 0.0
H1620 H 0.11501 0.4266 0.2269 0.0
H1621 H 0.12726 0.46314 0.22216 0.0
C1622 C 0.11939 0.49607 0.24817 0.0
C1623 C 0.11412 0.51176 0.26319 0.0
C1624 C 0.1127 0.4749 0.25102 0.0
C1625 C 0.10228 0.50594 0.28125 0.0
C1626 C 0.09549 0.48496 0.28414 0.0
C1627 C 0.09341 0.44828 0.27169 0.0
C1628 C 0.09843 0.43259 0.25656 0.0
C1629 C 0.1005 0.46934 0.26907 0.0
C1630 C 0.11087 0.43828 0.23884 0.0
C1631 C 0.11787 0.45921 0.23608 0.0
H1632 H 0.44978 0.88856 0.71693 0.0
H1633 H 0.44187 0.86656 0.78197 0.0
H1634 H 0.47973 0.86545 0.78668 0.0
H1635 H 0.5148 0.86769 0.77151 0.0
H1636 H 0.5232 0.88771 0.70594 0.0
H1637 H 0.48535 0.8928 0.70229 0.0
C1638 C 0.45634 0.88376 0.73221 0.0
C1639 C 0.44299 0.87758 0.74905 0.0
C1640 C 0.47818 0.88269 0.73467 0.0
C1641 C 0.45174 0.87136 0.76873 0.0
C1642 C 0.47341 0.87067 0.77143 0.0
C1643 C 0.50845 0.87351 0.7565 0.0
C1644 C 0.5218 0.87727 0.739 0.0
C1645 C 0.48675 0.87589 0.75439 0.0
C1646 C 0.51325 0.88466 0.71963 0.0
C1647 C 0.49161 0.8875 0.71753 0.0
H1648 H 0.08951 0.48968 0.74307 0.0
H1649 H 0.05984 0.4746 0.68289 0.0
H1650 H 0.04538 0.51052 0.68088 0.0
H1651 H 0.04195 0.5464 0.69581 0.0
H1652 H 0.07277 0.56166 0.75543 0.0
H1653 H 0.08598 0.5254 0.75804 0.0
C1654 C 0.07974 0.49418 0.72958 0.0
C1655 C 0.07568 0.47949 0.71318 0.0
C1656 C 0.07177 0.5149 0.72839 0.0
C1657 C 0.0632 0.48564 0.69571 0.0
C1658 C 0.05494 0.50617 0.69455 0.0
C1659 C 0.05148 0.54179 0.70944 0.0
C1660 C 0.05634 0.55677 0.72539 0.0
C1661 C 0.05924 0.52097 0.71074 0.0
C1662 C 0.06884 0.55052 0.74286 0.0
C1663 C 0.07638 0.52976 0.7444 0.0
H1664 H 0.48394 0.08834 0.75515 0.0
H1665 H 0.46799 0.05379 0.69787 0.0
H1666 H 0.50452 0.04255 0.69417 0.0
H1667 H 0.54111 0.04333 0.7069 0.0
H1668 H 0.55691 0.07976 0.76311 0.0
H1669 H 0.52024 0.08951 0.76753 0.0
C1670 C 0.4884 0.0782 0.74193 0.0
C1671 C 0.47329 0.07177 0.72687 0.0
C1672 C 0.5094 0.07225 0.73967 0.0
C1673 C 0.47936 0.05892 0.70967 0.0
C1674 C 0.50023 0.05251 0.70756 0.0
C1675 C 0.5365 0.05332 0.72017 0.0
C1676 C 0.55172 0.06076 0.73468 0.0
C1677 C 0.5154 0.05919 0.72241 0.0
C1678 C 0.54554 0.07389 0.75166 0.0
C1679 C 0.52456 0.07943 0.75424 0.0
H1680 H 0.86243 0.49159 0.7398 0.0
H1681 H 0.89362 0.50342 0.67968 0.0
H1682 H 0.90782 0.46731 0.6803 0.0
H1683 H 0.91084 0.43237 0.69766 0.0
H1684 H 0.87864 0.42035 0.75726 0.0
H1685 H 0.86534 0.45671 0.75707 0.0
C1686 C 0.87246 0.48635 0.72689 0.0
C1687 C 0.87707 0.50019 0.70977 0.0
C1688 C 0.8803 0.46556 0.72722 0.0
C1689 C 0.88985 0.49305 0.69303 0.0
C1690 C 0.89797 0.47243 0.69339 0.0
C1691 C 0.90098 0.43769 0.71068 0.0
C1692 C 0.89578 0.42363 0.72748 0.0
C1693 C 0.89322 0.45854 0.71037 0.0
C1694 C 0.88285 0.43079 0.7441 0.0
C1695 C 0.87526 0.45159 0.74403 0.0
H1696 H 0.26383 0.51197 0.06095 0.0
H1697 H 0.19959 0.50861 0.08228 0.0
H1698 H 0.20082 0.46997 0.08185 0.0
H1699 H 0.21989 0.437 0.07531 0.0
H1700 H 0.28383 0.43986 0.05315 0.0
H1701 H 0.28302 0.4787 0.05432 0.0
C1702 C 0.25008 0.50277 0.06539 0.0
C1703 C 0.23162 0.51323 0.07145 0.0
C1704 C 0.25088 0.48041 0.06519 0.0
C1705 C 0.21396 0.50105 0.07728 0.0
C1706 C 0.21466 0.47889 0.07719 0.0
C1707 C 0.23373 0.44609 0.07098 0.0
C1708 C 0.2519 0.43553 0.06427 0.0
C1709 C 0.23303 0.4684 0.07124 0.0
C1710 C 0.26961 0.4476 0.05839 0.0
C1711 C 0.26916 0.46982 0.05899 0.0
H1712 H 0.22925 0.50954 0.84435 0.0
H1713 H 0.28073 0.5285 0.88494 0.0
H1714 H 0.28963 0.49115 0.89109 0.0
H1715 H 0.28205 0.45319 0.88582 0.0
H1716 H 0.23044 0.43441 0.84515 0.0
H1717 H 0.22242 0.47168 0.83809 0.0
C1718 C 0.24238 0.50552 0.85461 0.0
C1719 C 0.25417 0.52178 0.86436 0.0
C1720 C 0.24741 0.48406 0.85802 0.0
C1721 C 0.27135 0.5163 0.87731 0.0
C1722 C 0.27644 0.49494 0.88083 0.0
C1723 C 0.26911 0.45719 0.8753 0.0
C1724 C 0.25683 0.44092 0.86612 0.0
C1725 C 0.26448 0.47869 0.87138 0.0
C1726 C 0.24017 0.44652 0.85248 0.0
C1727 C 0.23552 0.46786 0.84846 0.0
H1728 H 0.44836 0.23338 0.88242 0.0
H1729 H 0.45343 0.28411 0.92854 0.0
H1730 H 0.49092 0.28689 0.92185 0.0
H1731 H 0.52252 0.27498 0.90287 0.0
H1732 H 0.51724 0.22418 0.85691 0.0
H1733 H 0.47978 0.22144 0.86362 0.0
C1734 C 0.45763 0.24504 0.89103 0.0
C1735 C 0.44796 0.25849 0.90594 0.0
C1736 C 0.47926 0.24659 0.88716 0.0
C1737 C 0.46035 0.2735 0.91696 0.0
C1738 C 0.48185 0.27515 0.91315 0.0
C1739 C 0.51314 0.26336 0.89431 0.0
C1740 C 0.52273 0.24974 0.87953 0.0
C1741 C 0.49149 0.2618 0.89826 0.0
C1742 C 0.51035 0.23472 0.86858 0.0
C1743 C 0.48887 0.23317 0.87233 0.0
H1744 H 0.75064 0.54156 0.88076 0.0
H1745 H 0.69111 0.53985 0.91331 0.0
H1746 H 0.68852 0.50153 0.90749 0.0
H1747 H 0.70405 0.46805 0.8947 0.0
H1748 H 0.76439 0.46989 0.86371 0.0
H1749 H 0.76574 0.50842 0.86739 0.0
C1750 C 0.73698 0.53285 0.88634 0.0
C1751 C 0.72112 0.54357 0.89744 0.0
C1752 C 0.73581 0.51073 0.8834 0.0
C1753 C 0.70362 0.53198 0.90479 0.0
C1754 C 0.70212 0.51004 0.90149 0.0
C1755 C 0.71742 0.47693 0.88867 0.0
C1756 C 0.73413 0.46608 0.87909 0.0
C1757 C 0.71826 0.49917 0.89109 0.0
C1758 C 0.75139 0.4778 0.87139 0.0
C1759 C 0.75217 0.49988 0.8734 0.0
H1760 H 0.45965 0.74291 0.88612 0.0
H1761 H 0.44091 0.68364 0.91567 0.0
H1762 H 0.47636 0.67883 0.92965 0.0
H1763 H 0.51249 0.69171 0.93393 0.0
H1764 H 0.53113 0.75106 0.90431 0.0
H1765 H 0.49582 0.75561 0.89007 0.0
C1766 C 0.46326 0.72898 0.8957 0.0
C1767 C 0.44757 0.71374 0.89997 0.0
C1768 C 0.48366 0.72634 0.90373 0.0
C1769 C 0.45266 0.69562 0.91214 0.0
C1770 C 0.47293 0.69289 0.92019 0.0
C1771 C 0.50888 0.70567 0.92438 0.0
C1772 C 0.52453 0.72103 0.92029 0.0
C1773 C 0.48853 0.70819 0.91617 0.0
C1774 C 0.51948 0.73895 0.90776 0.0
C1775 C 0.49926 0.74159 0.8996 0.0
H1776 H 0.70245 0.55285 0.06741 0.0
H1777 H 0.74525 0.55711 0.12094 0.0
H1778 H 0.74233 0.51895 0.12676 0.0
H1779 H 0.73038 0.48427 0.1149 0.0
H1780 H 0.68801 0.47878 0.06139 0.0
H1781 H 0.68783 0.51773 0.0574 0.0
C1782 C 0.71086 0.54548 0.08057 0.0
C1783 C 0.72425 0.55783 0.09356 0.0
C1784 C 0.70936 0.52337 0.08368 0.0
C1785 C 0.73501 0.54801 0.11056 0.0
C1786 C 0.73339 0.52617 0.1139 0.0
C1787 C 0.72103 0.49158 0.10237 0.0
C1788 C 0.70953 0.47878 0.08819 0.0
C1789 C 0.7211 0.51369 0.10021 0.0
C1790 C 0.69709 0.4884 0.07239 0.0
C1791 C 0.69704 0.5106 0.07011 0.0
H1792 H 0.50749 0.74704 0.14601 0.0
H1793 H 0.5194 0.68645 0.11641 0.0
H1794 H 0.48275 0.68444 0.10472 0.0
H1795 H 0.44731 0.70055 0.1025 0.0
H1796 H 0.43728 0.76224 0.13084 0.0
H1797 H 0.47342 0.76347 0.14271 0.0
C1798 C 0.50226 0.7335 0.13674 0.0
C1799 C 0.51627 0.71709 0.13187 0.0
C1800 C 0.4815 0.73277 0.1296 0.0
C1801 C 0.50894 0.69935 0.12038 0.0
C1802 C 0.48801 0.69825 0.11359 0.0
C1803 C 0.45313 0.7143 0.11112 0.0
C1804 C 0.43958 0.73132 0.11561 0.0
C1805 C 0.47416 0.71498 0.11798 0.0
C1806 C 0.44733 0.74901 0.12689 0.0
C1807 C 0.46801 0.74969 0.13387 0.0
H1808 H 0.52813 0.26818 0.07641 0.0
H1809 H 0.53231 0.20056 0.08804 0.0
H1810 H 0.4949 0.19888 0.09519 0.0
H1811 H 0.46179 0.21705 0.10163 0.0
H1812 H 0.45723 0.2847 0.0905 0.0
H1813 H 0.49401 0.28592 0.07989 0.0
C1814 C 0.52079 0.25302 0.08012 0.0
C1815 C 0.53307 0.23456 0.08176 0.0
C1816 C 0.49924 0.2522 0.08467 0.0
C1817 C 0.5233 0.21504 0.08665 0.0
C1818 C 0.50188 0.21406 0.09089 0.0
C1819 C 0.46869 0.23202 0.09659 0.0
C1820 C 0.45675 0.25074 0.09696 0.0
C1821 C 0.48982 0.23263 0.09051 0.0
C1822 C 0.46608 0.27003 0.09048 0.0
C1823 C 0.48712 0.27076 0.08438 0.0
H1824 H 0.57972 0.72118 0.06934 0.0
H1825 H 0.55461 0.78478 0.06693 0.0
H1826 H 0.5597 0.78591 0.02822 0.0
H1827 H 0.57153 0.76891 -0.00492 0.0
H1828 H 0.59532 0.70475 -0.00261 0.0
H1829 H 0.59031 0.7037 0.03606 0.0
C1830 C 0.57547 0.73532 0.06034 0.0
C1831 C 0.56696 0.75292 0.07099 0.0
C1832 C 0.57806 0.73571 0.03806 0.0
C1833 C 0.5612 0.77102 0.05909 0.0
C1834 C 0.5641 0.77168 0.03696 0.0
C1835 C 0.57553 0.75467 0.00404 0.0
C1836 C 0.58381 0.73696 -0.00662 0.0
C1837 C 0.57251 0.75412 0.02628 0.0
C1838 C 0.58882 0.71858 0.00519 0.0
C1839 C 0.58606 0.71799 0.02733 0.0
H1840 H 0.22949 0.58817 0.93192 0.0
H1841 H 0.17478 0.54853 0.92276 0.0
H1842 H 0.16792 0.5489 0.96099 0.0
H1843 H 0.17881 0.55782 -0.00279 0.0
H1844 H 0.23408 0.59633 0.00733 0.0
H1845 H 0.23909 0.5993 0.96865 0.0
C1846 C 0.21592 0.57985 0.93827 0.0
C1847 C 0.20282 0.56816 0.92442 0.0
C1848 C 0.21217 0.57983 0.96051 0.0
C1849 C 0.18531 0.55746 0.93299 0.0
C1850 C 0.18132 0.55766 0.9549 0.0
C1851 C 0.19185 0.56709 -0.00895 0.0
C1852 C 0.20612 0.57666 0.00529 0.0
C1853 C 0.19488 0.56839 0.96885 0.0
C1854 C 0.22284 0.58871 -0.00317 0.0
C1855 C 0.22578 0.59035 0.97467 0.0
H1856 H 0.40354 0.20029 0.03163 0.0
H1857 H 0.37545 0.26115 0.04503 0.0
H1858 H 0.36765 0.26598 0.00696 0.0
H1859 H 0.37005 0.25336 0.96965 0.0
H1860 H 0.39828 0.19239 0.95699 0.0
H1861 H 0.40484 0.18725 -0.00495 0.0
C1862 C 0.39564 0.21462 0.02632 0.0
C1863 C 0.39022 0.23039 0.04122 0.0
C1864 C 0.39135 0.21734 0.00449 0.0
C1865 C 0.3798 0.24873 0.03396 0.0
C1866 C 0.37542 0.25155 0.01216 0.0
C1867 C 0.37768 0.23898 0.97523 0.0
C1868 C 0.38382 0.22336 0.96045 0.0
C1869 C 0.38135 0.23605 -0.00275 0.0
C1870 C 0.39344 0.2047 0.96797 0.0
C1871 C 0.3972 0.20173 0.98976 0.0
H1872 H 0.72791 0.40352 0.02203 0.0
H1873 H 0.78598 0.43799 0.03074 0.0
H1874 H 0.79362 0.43483 -0.00719 0.0
H1875 H 0.78274 0.42503 0.95681 0.0
H1876 H 0.72443 0.39136 0.94711 0.0
H1877 H 0.7182 0.3912 0.98573 0.0
C1878 C 0.74236 0.41008 0.01568 0.0
C1879 C 0.75621 0.42118 0.02929 0.0
C1880 C 0.74661 0.40847 -0.00639 0.0
C1881 C 0.77488 0.42957 0.02071 0.0
C1882 C 0.77931 0.42778 -0.00104 0.0
C1883 C 0.76872 0.41746 0.96307 0.0
C1884 C 0.75399 0.40843 0.94895 0.0
C1885 C 0.76509 0.4177 0.9852 0.0
C1886 C 0.73605 0.3985 0.95753 0.0
C1887 C 0.73242 0.39848 0.97964 0.0
H1888 H 0.60063 0.23802 0.94027 0.0
H1889 H 0.56839 0.17786 0.93328 0.0
H1890 H 0.57221 0.17096 0.97143 0.0
H1891 H 0.58146 0.18342 0.00717 0.0
H1892 H 0.61264 0.24405 0.01474 0.0
H1893 H 0.61277 0.24908 0.97598 0.0
C1894 C 0.59469 0.22326 0.94702 0.0
C1895 C 0.584 0.20862 0.93387 0.0
C1896 C 0.59665 0.21947 0.96914 0.0
C1897 C 0.57648 0.18955 0.94297 0.0
C1898 C 0.57865 0.18556 0.96484 0.0
C1899 C 0.58858 0.19763 0.00041 0.0
C1900 C 0.5968 0.21343 0.01398 0.0
C1901 C 0.58822 0.20064 0.97814 0.0
C1902 C 0.60608 0.23164 0.00477 0.0
C1903 C 0.60608 0.23459 0.98257 0.0
H1904 H 0.79611 0.61456 0.02309 0.0
H1905 H 0.73364 0.59244 0.03713 0.0
H1906 H 0.72686 0.58651 -0.00061 0.0
H1907 H 0.73705 0.59199 0.96227 0.0
H1908 H 0.79912 0.61452 0.94716 0.0
H1909 H 0.80805 0.61532 0.98531 0.0
C1910 C 0.78123 0.60802 0.01781 0.0
C1911 C 0.76512 0.60456 0.03267 0.0
C1912 C 0.77737 0.60486 -0.00411 0.0
C1913 C 0.74595 0.59595 0.02585 0.0
C1914 C 0.74211 0.59241 0.00427 0.0
C1915 C 0.75254 0.59696 0.96733 0.0
C1916 C 0.76721 0.60373 0.95213 0.0
C1917 C 0.75739 0.59764 0.98912 0.0
C1918 C 0.78753 0.60938 0.95874 0.0
C1919 C 0.79259 0.60996 0.98051 0.0
H1920 H 0.40782 0.77807 0.96166 0.0
H1921 H 0.37047 0.72114 0.95449 0.0
H1922 H 0.36547 0.71937 -0.00672 0.0
H1923 H 0.37388 0.73276 0.02953 0.0
H1924 H 0.4116 0.78971 0.03567 0.0
H1925 H 0.41424 0.79255 -0.00293 0.0
C1926 C 0.39844 0.76532 0.9685 0.0
C1927 C 0.38971 0.74967 0.95514 0.0
C1928 C 0.39583 0.76427 -0.00926 0.0
C1929 C 0.3774 0.73343 0.96436 0.0
C1930 C 0.37462 0.73234 0.98657 0.0
C1931 C 0.38256 0.74586 0.02243 0.0
C1932 C 0.39269 0.76083 0.03566 0.0
C1933 C 0.38411 0.74746 -2e-05 0.0
C1934 C 0.40375 0.77779 0.02606 0.0
C1935 C 0.40529 0.77949 0.0039 0.0
H1936 H 0.25266 0.35956 0.00497 0.0
H1937 H 0.18898 0.38204 0.00731 0.0
H1938 H 0.18876 0.38563 0.96814 0.0
H1939 H 0.207 0.38153 0.93313 0.0
H1940 H 0.27152 0.36085 0.93315 0.0
H1941 H 0.27125 0.35821 0.97172 0.0
C1942 C 0.23883 0.36577 -0.00284 0.0
C1943 C 0.221 0.3708 0.00913 0.0
C1944 C 0.23901 0.36822 0.975 0.0
C1945 C 0.20299 0.37811 -0.00156 0.0
C1946 C 0.20287 0.3802 0.97607 0.0
C1947 C 0.221 0.37667 0.94166 0.0
C1948 C 0.23924 0.37143 0.93022 0.0
C1949 C 0.22084 0.37521 0.96416 0.0
C1950 C 0.2573 0.36515 0.94146 0.0
C1951 C 0.25717 0.36348 0.96358 0.0
H1952 H 0.98289 0.62142 0.71959 0.0
H1953 H -0.00191 0.59691 0.78231 0.0
H1954 H 0.96447 0.57837 0.78381 0.0
H1955 H 0.93123 0.5681 0.76691 0.0
H1956 H 0.91574 0.59289 0.70434 0.0
H1957 H 0.94898 0.61219 0.7032 0.0
C1958 C 0.97885 0.61202 0.73358 0.0
C1959 C -0.0069 0.61045 0.75072 0.0
C1960 C 0.95945 0.60134 0.73435 0.0
C1961 C 0.98745 0.59844 0.76887 0.0
C1962 C 0.96824 0.58774 0.76972 0.0
C1963 C 0.93509 0.57771 0.753 0.0
C1964 C 0.92099 0.57888 0.73569 0.0
C1965 C 0.9542 0.5889 0.75248 0.0
C1966 C 0.92625 0.59163 0.71791 0.0
C1967 C 0.94529 0.60269 0.71722 0.0
H1968 H 0.38171 0.94894 0.7409 0.0
H1969 H 0.40196 0.9425 0.80659 0.0
H1970 H 0.40796 0.98057 0.80873 0.0
H1971 H 0.41098 0.0151 0.79126 0.0
H1972 H 0.39119 0.02273 0.7257 0.0
H1973 H 0.38121 0.98503 0.72434 0.0
C1974 C 0.38708 0.95595 0.75576 0.0
C1975 C 0.39169 0.94273 0.77343 0.0
C1976 C 0.39076 0.97809 0.75691 0.0
C1977 C 0.3986 0.95214 0.7926 0.0
C1978 C 0.40204 0.97398 0.79389 0.0
C1979 C 0.40427 0.0086 0.77671 0.0
C1980 C 0.40211 0.02165 0.75854 0.0
C1981 C 0.39877 0.98699 0.77601 0.0
C1982 C 0.39307 0.01303 0.73993 0.0
C1983 C 0.38747 -0.00857 0.73911 0.0
H1984 H 0.02166 0.41408 0.77263 0.0
H1985 H 0.03796 0.38674 0.71165 0.0
H1986 H 0.00457 0.36774 0.7107 0.0
H1987 H 0.97034 0.35953 0.72671 0.0
H1988 H 0.95418 0.38655 0.78781 0.0
H1989 H 0.98799 0.40482 0.78924 0.0
C1990 C 0.01795 0.40396 0.75912 0.0
C1991 C 0.03232 0.402 0.74218 0.0
C1992 C -0.00127 0.39297 0.75869 0.0
C1993 C 0.02725 0.38862 0.72492 0.0
C1994 C 0.00812 0.37774 0.72433 0.0
C1995 C 0.9742 0.36942 0.74034 0.0
C1996 C 0.95966 0.37181 0.75703 0.0
C1997 C -0.00632 0.37991 0.74106 0.0
C1998 C 0.96506 0.38443 0.77473 0.0
C1999 C 0.98438 0.39496 0.77553 0.0
H2000 H 0.58317 0.94386 0.79209 0.0
H2001 H 0.61301 0.92174 0.73436 0.0
H2002 H 0.62739 0.95711 0.72797 0.0
H2003 H 0.62977 -0.00524 0.73738 0.0
H2004 H 0.60038 0.01731 0.79501 0.0
H2005 H 0.58776 0.98127 0.80293 0.0
C2006 C 0.59294 0.94672 0.77819 0.0
C2007 C 0.59678 0.93012 0.76364 0.0
C2008 C 0.60121 0.96719 0.77454 0.0
C2009 C 0.60967 0.93414 0.74583 0.0
C2010 C 0.6179 0.95442 0.74209 0.0
C2011 C 0.62069 -0.00822 0.75174 0.0
C2012 C 0.61581 0.00869 0.76546 0.0
C2013 C 0.61348 0.97111 0.75613 0.0
C2014 C 0.60432 0.00454 0.78418 0.0
C2015 C 0.59703 0.98396 0.78866 0.0
H2016 H 0.95682 0.35286 0.24814 0.0
H2017 H 0.95355 0.39031 0.19028 0.0
H2018 H -0.00793 0.39146 0.18877 0.0
H2019 H 0.02683 0.38239 0.20507 0.0
H2020 H 0.02768 0.34783 0.26501 0.0
H2021 H -0.01014 0.34566 0.26487 0.0
C2022 C 0.96436 0.36171 0.23537 0.0
C2023 C 0.95229 0.37185 0.21962 0.0
C2024 C 0.98616 0.36296 0.2351 0.0
C2025 C 0.96251 0.38245 0.20272 0.0
C2026 C 0.98451 0.38318 0.20191 0.0
C2027 C 0.01864 0.37451 0.21807 0.0
C2028 C 0.03008 0.36537 0.23505 0.0
C2029 C -0.00346 0.37363 0.21819 0.0
C2030 C 0.01931 0.35521 0.25185 0.0
C2031 C -0.00236 0.35381 0.25177 0.0
H2032 H 0.57295 0.03996 0.19334 0.0
H2033 H 0.5902 0.04735 0.25964 0.0
H2034 H 0.59229 0.00855 0.26368 0.0
H2035 H 0.58517 0.97252 0.24909 0.0
H2036 H 0.56663 0.96644 0.1829 0.0
H2037 H 0.56917 0.00475 0.17812 0.0
C2038 C 0.57735 0.03314 0.20867 0.0
C2039 C 0.58107 0.04647 0.22625 0.0
C2040 C 0.57813 0.01101 0.21093 0.0
C2041 C 0.58719 0.03739 0.24587 0.0
C2042 C 0.58826 0.01522 0.2482 0.0
C2043 C 0.58204 0.97959 0.23356 0.0
C2044 C 0.57542 0.96666 0.21646 0.0
C2045 C 0.58316 0.00185 0.23097 0.0
C2046 C 0.57143 0.97604 0.19642 0.0
C2047 C 0.5729 -0.00204 0.19363 0.0
H2048 H 0.05426 0.57954 0.25739 0.0
H2049 H 0.05183 0.55317 0.19383 0.0
H2050 H 0.01401 0.55883 0.19248 0.0
H2051 H 0.98138 0.57078 0.2097 0.0
H2052 H 0.98405 0.59559 0.27393 0.0
H2053 H 0.02187 0.59095 0.27467 0.0
C2054 C 0.04548 0.57519 0.24318 0.0
C2055 C 0.05585 0.56605 0.22573 0.0
C2056 C 0.0237 0.57806 0.24268 0.0
C2057 C 0.0442 0.56021 0.20753 0.0
C2058 C 0.02257 0.56344 0.20673 0.0
C2059 C -0.00973 0.57514 0.22383 0.0
C2060 C 0.97989 0.58343 0.24173 0.0
C2061 C 0.01211 0.57223 0.22427 0.0
C2062 C -0.0084 0.58897 0.25998 0.0
C2063 C 0.01328 0.58643 0.26041 0.0
H2064 H 0.37305 0.01132 0.23362 0.0
H2065 H 0.39072 0.01035 0.16695 0.0
H2066 H 0.38704 0.97185 0.16639 0.0
H2067 H 0.38242 0.93838 0.18538 0.0
H2068 H 0.36623 0.93815 0.25235 0.0
H2069 H 0.36522 0.97715 0.2521 0.0
C2070 C 0.37578 0.00269 0.21891 0.0
C2071 C 0.38245 0.01374 0.20043 0.0
C2072 C 0.37397 0.98032 0.21874 0.0
C2073 C 0.38589 0.00229 0.18149 0.0
C2074 C 0.38375 0.98024 0.18112 0.0
C2075 C 0.37842 0.94679 0.19992 0.0
C2076 C 0.37469 0.93533 0.21892 0.0
C2077 C 0.37838 0.96907 0.19976 0.0
C2078 C 0.3692 0.94655 0.23749 0.0
C2079 C 0.36878 0.96887 0.23739 0.0
H2080 H 0.76822 -0.004 0.56898 0.0
H2081 H 0.70348 -0.00124 0.58866 0.0
H2082 H 0.70132 0.96016 0.58879 0.0
H2083 H 0.71743 0.92548 0.58292 0.0
H2084 H 0.78159 0.92213 0.56174 0.0
H2085 H 0.78444 0.96094 0.56295 0.0
C2086 C 0.75363 -0.01186 0.57318 0.0
C2087 C 0.73602 0.00032 0.57862 0.0
C2088 C 0.75243 0.96577 0.57322 0.0
C2089 C 0.71724 -0.01014 0.58414 0.0
C2090 C 0.71599 0.96772 0.58438 0.0
C2091 C 0.73213 0.93323 0.57888 0.0
C2092 C 0.7493 0.92097 0.57244 0.0
C2093 C 0.73347 0.95551 0.57899 0.0
C2094 C 0.76814 0.93125 0.56683 0.0
C2095 C 0.76976 0.95344 0.56742 0.0
H2096 H 0.74933 0.0156 0.35085 0.0
H2097 H 0.79474 0.031 0.39968 0.0
H2098 H 0.7978 -0.00672 0.40897 0.0
H2099 H 0.78575 0.95639 0.40477 0.0
H2100 H 0.73954 0.94146 0.35642 0.0
H2101 H 0.73854 0.9787 0.34552 0.0
C2102 C 0.7599 0.01073 0.36354 0.0
C2103 C 0.77156 0.02606 0.37478 0.0
C2104 C 0.76133 -0.01084 0.36898 0.0
C2105 C 0.78555 0.01947 0.39084 0.0
C2106 C 0.78723 -0.00206 0.39622 0.0
C2107 C 0.77552 0.96122 0.39177 0.0
C2108 C 0.7626 0.94612 0.38158 0.0
C2109 C 0.7749 0.9827 0.38565 0.0
C2110 C 0.74957 0.95271 0.36466 0.0
C2111 C 0.74897 0.97402 0.35839 0.0
H2112 H 0.94417 0.77007 0.41714 0.0
H2113 H 0.93093 0.7135 0.38042 0.0
H2114 H 0.96756 0.71177 0.3695 0.0
H2115 H 0.00336 0.72603 0.3706 0.0
H2116 H 0.01667 0.78271 0.40699 0.0
H2117 H 0.9799 0.78469 0.41775 0.0
C2118 C 0.94923 0.75735 0.40673 0.0
C2119 C 0.93472 0.7419 0.39968 0.0
C2120 C 0.97034 0.75644 0.40046 0.0
C2121 C 0.94167 0.72562 0.3861 0.0
C2122 C 0.96265 0.72459 0.37986 0.0
C2123 C -0.00173 0.73877 0.38098 0.0
C2124 C 0.01279 0.75411 0.38813 0.0
C2125 C 0.97712 0.73985 0.38702 0.0
C2126 C 0.00583 0.77069 0.40129 0.0
C2127 C 0.98481 0.77181 0.40746 0.0
H2128 H 0.23331 0.04675 0.37327 0.0
H2129 H 0.19288 0.04862 0.4285 0.0
H2130 H 0.18628 0.01042 0.42531 0.0
H2131 H 0.19334 0.97593 0.40761 0.0
H2132 H 0.23473 0.97487 0.35311 0.0
H2133 H 0.23942 0.0132 0.35519 0.0
C2134 C 0.22296 0.0389 0.38459 0.0
C2135 C 0.21371 0.05061 0.40114 0.0
C2136 C 0.21939 0.01695 0.38281 0.0
C2137 C 0.20032 0.04003 0.41562 0.0
C2138 C 0.19651 0.01815 0.41382 0.0
C2139 C 0.20317 0.98418 0.3961 0.0
C2140 C 0.21375 0.97256 0.38032 0.0
C2141 C 0.20612 0.00638 0.39757 0.0
C2142 C 0.22656 0.98342 0.36555 0.0
C2143 C 0.22926 0.00536 0.3667 0.0
H2144 H 0.02213 0.20732 0.43595 0.0
H2145 H 0.04042 0.26811 0.40926 0.0
H2146 H 0.00481 0.27352 0.39602 0.0
H2147 H 0.96847 0.261 0.392 0.0
H2148 H 0.9505 0.19992 0.41812 0.0
H2149 H 0.98605 0.19464 0.43156 0.0
C2150 C 0.01837 0.2218 0.42728 0.0
C2151 C 0.03399 0.2373 0.42369 0.0
C2152 C -0.00209 0.22476 0.41959 0.0
C2153 C 0.02877 0.25588 0.41226 0.0
C2154 C 0.00839 0.25901 0.4047 0.0
C2155 C 0.97231 0.24656 0.4007 0.0
C2156 C 0.95681 0.23092 0.40413 0.0
C2157 C -0.00717 0.24356 0.40828 0.0
C2158 C 0.96211 0.21221 0.41523 0.0
C2159 C 0.98244 0.20918 0.42296 0.0
H2160 H 0.21409 0.06061 0.55566 0.0
H2161 H 0.27556 0.06533 0.58441 0.0
H2162 H 0.2756 0.02721 0.59112 0.0
H2163 H 0.25778 -0.00687 0.59068 0.0
H2164 H 0.19605 0.98738 0.563 0.0
H2165 H 0.1965 0.02544 0.55406 0.0
C2166 C 0.22756 0.05325 0.5632 0.0
C2167 C 0.24475 0.06586 0.56961 0.0
C2168 C 0.2274 0.03122 0.56733 0.0
C2169 C 0.26204 0.05607 0.57946 0.0
C2170 C 0.26211 0.03425 0.58331 0.0
C2171 C 0.24449 4e-05 0.58241 0.0
C2172 C 0.22695 0.98741 0.57742 0.0
C2173 C 0.2448 0.02177 0.57757 0.0
C2174 C 0.20975 -0.00322 0.56702 0.0
C2175 C 0.21001 0.01852 0.56192 0.0
H2176 H 0.95162 0.18516 0.60057 0.0
H2177 H 0.94056 0.24168 0.63806 0.0
H2178 H 0.97645 0.24182 0.65004 0.0
H2179 H 0.0109 0.22678 0.65003 0.0
H2180 H 0.02437 0.17083 0.61299 0.0
H2181 H 0.98756 0.16923 0.60118 0.0
C2182 C 0.95717 0.19748 0.61129 0.0
C2183 C 0.94342 0.21362 0.61801 0.0
C2184 C 0.97818 0.19749 0.61841 0.0
C2185 C 0.95078 0.22935 0.63213 0.0
C2186 C 0.97134 0.22939 0.63922 0.0
C2187 C 0.0059 0.21423 0.63927 0.0
C2188 C 0.02034 0.19913 0.63217 0.0
C2189 C 0.98514 0.21368 0.6324 0.0
C2190 C 0.01347 0.18268 0.61867 0.0
C2191 C -0.00751 0.18185 0.61183 0.0
H2192 H 0.02787 0.74837 0.56565 0.0
H2193 H 0.03567 0.80797 0.59841 0.0
H2194 H -0.00217 0.80951 0.60507 0.0
H2195 H 0.96393 0.79014 0.60742 0.0
H2196 H 0.95746 0.72963 0.57586 0.0
H2197 H -0.00668 0.73192 0.56311 0.0
C2198 C 0.02117 0.76187 0.57388 0.0
C2199 C 0.03435 0.77779 0.58193 0.0
C2200 C -0.00026 0.76213 0.57835 0.0
C2201 C 0.02565 0.79555 0.59206 0.0
C2202 C 0.00409 0.79626 0.59612 0.0
C2203 C 0.97034 0.7777 0.59744 0.0
C2204 C 0.95845 0.75928 0.59335 0.0
C2205 C -0.00882 0.77907 0.59029 0.0
C2206 C 0.96667 0.7434 0.58014 0.0
C2207 C 0.98711 0.74484 0.57258 0.0
loop_
_geom_bond_atom_site_label_1
_geom_bond_atom_site_label_2
_geom_bond_distance
_geom_bond_site_symmetry_2
_ccdc_geom_bond_type
Mg0 O1 2.028 . S
Mg0 O7 1.986 . S
Mg0 O9 2.114 . S
Mg0 O10 2.251 . S
Mg0 O13 2.010 . S
O1 Mg0 2.028 . S
O1 C4 1.250 . S
O2 Mg3 2.028 . S
O2 C4 1.248 . S
Mg3 O2 2.028 . S
Mg3 O8 2.032 . S
Mg3 O10 2.079 . S
C4 O1 1.250 . S
C4 O2 1.248 . S
C5 O6 1.264 . S
C5 O13 1.249 . S
O6 C5 1.264 . S
O7 Mg0 1.986 . S
O7 C11 1.246 . S
O8 Mg3 2.032 . S
O8 C11 1.259 . S
O9 Mg0 2.114 . S
O9 C12 1.252 . S
O10 Mg0 2.251 . S
O10 Mg3 2.079 . S
O10 C12 1.273 . S
C11 O7 1.246 . S
C11 O8 1.259 . S
C12 O9 1.252 . S
C12 O10 1.273 . S
O13 Mg0 2.010 . S
O13 C5 1.249 . S
Mg14 O15 2.028 . S
Mg14 O21 1.986 . S
Mg14 O23 2.114 . S
Mg14 O24 2.251 . S
Mg14 O27 2.010 . S
O15 Mg14 2.028 . S
O15 C18 1.250 . S
O16 Mg17 2.028 . S
O16 C18 1.248 . S
Mg17 O16 2.028 . S
Mg17 O22 2.032 . S
Mg17 O24 2.079 . S
C18 O15 1.250 . S
C18 O16 1.248 . S
C19 O20 1.264 . S
C19 O27 1.249 . S
O20 C19 1.264 . S
O21 Mg14 1.986 . S
O21 C25 1.246 . S
O22 Mg17 2.032 . S
O22 C25 1.259 . S
O23 Mg14 2.114 . S
O23 C26 1.252 . S
O24 Mg14 2.251 . S
O24 Mg17 2.079 . S
O24 C26 1.273 . S
C25 O21 1.246 . S
C25 O22 1.259 . S
C26 O23 1.252 . S
C26 O24 1.273 . S
O27 Mg14 2.010 . S
O27 C19 1.249 . S
Mg28 O29 2.028 . S
Mg28 O35 1.986 . S
Mg28 O37 2.114 . S
Mg28 O38 2.251 . S
Mg28 O41 2.010 . S
O29 Mg28 2.028 . S
O29 C32 1.250 . S
O30 Mg31 2.028 . S
O30 C32 1.248 . S
Mg31 O30 2.028 . S
Mg31 O36 2.032 . S
Mg31 O38 2.079 . S
C32 O29 1.250 . S
C32 O30 1.248 . S
C33 O34 1.264 . S
C33 O41 1.249 . S
O34 C33 1.264 . S
O35 Mg28 1.986 . S
O35 C39 1.246 . S
O36 Mg31 2.032 . S
O36 C39 1.259 . S
O37 Mg28 2.114 . S
O37 C40 1.252 . S
O38 Mg28 2.251 . S
O38 Mg31 2.079 . S
O38 C40 1.273 . S
C39 O35 1.246 . S
C39 O36 1.259 . S
C40 O37 1.252 . S
C40 O38 1.273 . S
O41 Mg28 2.010 . S
O41 C33 1.249 . S
Mg42 O43 2.028 . S
Mg42 O49 1.986 . S
Mg42 O51 2.114 . S
Mg42 O52 2.251 . S
Mg42 O55 2.010 . S
O43 Mg42 2.028 . S
O43 C46 1.250 . S
O44 Mg45 2.028 . S
O44 C46 1.248 . S
Mg45 O44 2.028 . S
Mg45 O50 2.032 . S
Mg45 O52 2.079 . S
C46 O43 1.250 . S
C46 O44 1.248 . S
C47 O48 1.264 . S
C47 O55 1.249 . S
O48 C47 1.264 . S
O49 Mg42 1.986 . S
O49 C53 1.246 . S
O50 Mg45 2.032 . S
O50 C53 1.259 . S
O51 Mg42 2.114 . S
O51 C54 1.252 . S
O52 Mg42 2.251 . S
O52 Mg45 2.079 . S
O52 C54 1.273 . S
C53 O49 1.246 . S
C53 O50 1.259 . S
C54 O51 1.252 . S
C54 O52 1.273 . S
O55 Mg42 2.010 . S
O55 C47 1.249 . S
Mg56 O57 2.028 . S
Mg56 O63 1.986 . S
Mg56 O65 2.114 . S
Mg56 O66 2.251 . S
Mg56 O69 2.010 . S
O57 Mg56 2.028 . S
O57 C60 1.250 . S
O58 Mg59 2.028 . S
O58 C60 1.248 . S
Mg59 O58 2.028 . S
Mg59 O64 2.032 . S
Mg59 O66 2.079 . S
C60 O57 1.250 . S
C60 O58 1.248 . S
C61 O62 1.264 . S
C61 O69 1.249 . S
O62 C61 1.264 . S
O63 Mg56 1.986 . S
O63 C67 1.246 . S
O64 Mg59 2.032 . S
O64 C67 1.259 . S
O65 Mg56 2.114 . S
O65 C68 1.252 . S
O66 Mg56 2.251 . S
O66 Mg59 2.079 . S
O66 C68 1.273 . S
C67 O63 1.246 . S
C67 O64 1.259 . S
C68 O65 1.252 . S
C68 O66 1.273 . S
O69 Mg56 2.010 . S
O69 C61 1.249 . S
Mg70 O71 2.028 . S
Mg70 O77 1.986 . S
Mg70 O79 2.114 . S
Mg70 O80 2.251 . S
Mg70 O83 2.010 . S
O71 Mg70 2.028 . S
O71 C74 1.250 . S
O72 Mg73 2.028 . S
O72 C74 1.248 . S
Mg73 O72 2.028 . S
Mg73 O78 2.032 . S
Mg73 O80 2.079 . S
C74 O71 1.250 . S
C74 O72 1.248 . S
C75 O76 1.264 . S
C75 O83 1.249 . S
O76 C75 1.264 . S
O77 Mg70 1.986 . S
O77 C81 1.246 . S
O78 Mg73 2.032 . S
O78 C81 1.259 . S
O79 Mg70 2.114 . S
O79 C82 1.252 . S
O80 Mg70 2.251 . S
O80 Mg73 2.079 . S
O80 C82 1.273 . S
C81 O77 1.246 . S
C81 O78 1.259 . S
C82 O79 1.252 . S
C82 O80 1.273 . S
O83 Mg70 2.010 . S
O83 C75 1.249 . S
Mg84 O85 2.028 . S
Mg84 O91 1.986 . S
Mg84 O93 2.114 . S
Mg84 O94 2.251 . S
Mg84 O97 2.010 . S
O85 Mg84 2.028 . S
O85 C88 1.250 . S
O86 Mg87 2.028 . S
O86 C88 1.248 . S
Mg87 O86 2.028 . S
Mg87 O92 2.032 . S
Mg87 O94 2.079 . S
C88 O85 1.250 . S
C88 O86 1.248 . S
C89 O90 1.264 . S
C89 O97 1.249 . S
O90 C89 1.264 . S
O91 Mg84 1.986 . S
O91 C95 1.246 . S
O92 Mg87 2.032 . S
O92 C95 1.259 . S
O93 Mg84 2.114 . S
O93 C96 1.252 . S
O94 Mg84 2.251 . S
O94 Mg87 2.079 . S
O94 C96 1.273 . S
C95 O91 1.246 . S
C95 O92 1.259 . S
C96 O93 1.252 . S
C96 O94 1.273 . S
O97 Mg84 2.010 . S
O97 C89 1.249 . S
Mg98 O99 2.028 . S
Mg98 O105 1.986 . S
Mg98 O107 2.114 . S
Mg98 O108 2.251 . S
Mg98 O111 2.010 . S
O99 Mg98 2.028 . S
O99 C102 1.250 . S
O100 Mg101 2.028 . S
O100 C102 1.248 . S
Mg101 O100 2.028 . S
Mg101 O106 2.032 . S
Mg101 O108 2.079 . S
C102 O99 1.250 . S
C102 O100 1.248 . S
C103 O104 1.264 . S
C103 O111 1.249 . S
O104 C103 1.264 . S
O105 Mg98 1.986 . S
O105 C109 1.246 . S
O106 Mg101 2.032 . S
O106 C109 1.259 . S
O107 Mg98 2.114 . S
O107 C110 1.252 . S
O108 Mg98 2.251 . S
O108 Mg101 2.079 . S
O108 C110 1.273 . S
C109 O105 1.246 . S
C109 O106 1.259 . S
C110 O107 1.252 . S
C110 O108 1.273 . S
O111 Mg98 2.010 . S
O111 C103 1.249 . S
Mg112 O113 2.028 . S
Mg112 O119 1.986 . S
Mg112 O121 2.114 . S
Mg112 O122 2.251 . S
Mg112 O125 2.010 . S
O113 Mg112 2.028 . S
O113 C116 1.250 . S
O114 Mg115 2.028 . S
O114 C116 1.248 . S
Mg115 O114 2.028 . S
Mg115 O120 2.032 . S
Mg115 O122 2.079 . S
C116 O113 1.250 . S
C116 O114 1.248 . S
C117 O118 1.264 . S
C117 O125 1.249 . S
O118 C117 1.264 . S
O119 Mg112 1.986 . S
O119 C123 1.246 . S
O120 Mg115 2.032 . S
O120 C123 1.259 . S
O121 Mg112 2.114 . S
O121 C124 1.252 . S
O122 Mg112 2.251 . S
O122 Mg115 2.079 . S
O122 C124 1.273 . S
C123 O119 1.246 . S
C123 O120 1.259 . S
C124 O121 1.252 . S
C124 O122 1.273 . S
O125 Mg112 2.010 . S
O125 C117 1.249 . S
Mg126 O127 2.028 . S
Mg126 O133 1.986 . S
Mg126 O135 2.114 . S
Mg126 O136 2.251 . S
Mg126 O139 2.010 . S
O127 Mg126 2.028 . S
O127 C130 1.250 . S
O128 Mg129 2.028 . S
O128 C130 1.248 . S
Mg129 O128 2.028 . S
Mg129 O134 2.032 . S
Mg129 O136 2.079 . S
C130 O127 1.250 . S
C130 O128 1.248 . S
C131 O132 1.264 . S
C131 O139 1.249 . S
O132 C131 1.264 . S
O133 Mg126 1.986 . S
O133 C137 1.246 . S
O134 Mg129 2.032 . S
O134 C137 1.259 . S
O135 Mg126 2.114 . S
O135 C138 1.252 . S
O136 Mg126 2.251 . S
O136 Mg129 2.079 . S
O136 C138 1.273 . S
C137 O133 1.246 . S
C137 O134 1.259 . S
C138 O135 1.252 . S
C138 O136 1.273 . S
O139 Mg126 2.010 . S
O139 C131 1.249 . S
Mg140 O141 2.028 . S
Mg140 O147 1.986 . S
Mg140 O149 2.114 . S
Mg140 O150 2.251 . S
Mg140 O153 2.010 . S
O141 Mg140 2.028 . S
O141 C144 1.250 . S
O142 Mg143 2.028 . S
O142 C144 1.248 . S
Mg143 O142 2.028 . S
Mg143 O148 2.032 . S
Mg143 O150 2.079 . S
C144 O141 1.250 . S
C144 O142 1.248 . S
C145 O146 1.264 . S
C145 O153 1.249 . S
O146 C145 1.264 . S
O147 Mg140 1.986 . S
O147 C151 1.246 . S
O148 Mg143 2.032 . S
O148 C151 1.259 . S
O149 Mg140 2.114 . S
O149 C152 1.252 . S
O150 Mg140 2.251 . S
O150 Mg143 2.079 . S
O150 C152 1.273 . S
C151 O147 1.246 . S
C151 O148 1.259 . S
C152 O149 1.252 . S
C152 O150 1.273 . S
O153 Mg140 2.010 . S
O153 C145 1.249 . S
Mg154 O155 2.028 . S
Mg154 O161 1.986 . S
Mg154 O163 2.114 . S
Mg154 O164 2.251 . S
Mg154 O167 2.010 . S
O155 Mg154 2.028 . S
O155 C158 1.250 . S
O156 Mg157 2.028 . S
O156 C158 1.248 . S
Mg157 O156 2.028 . S
Mg157 O162 2.032 . S
Mg157 O164 2.079 . S
C158 O155 1.250 . S
C158 O156 1.248 . S
C159 O160 1.264 . S
C159 O167 1.249 . S
O160 C159 1.264 . S
O161 Mg154 1.986 . S
O161 C165 1.246 . S
O162 Mg157 2.032 . S
O162 C165 1.259 . S
O163 Mg154 2.114 . S
O163 C166 1.252 . S
O164 Mg154 2.251 . S
O164 Mg157 2.079 . S
O164 C166 1.273 . S
C165 O161 1.246 . S
C165 O162 1.259 . S
C166 O163 1.252 . S
C166 O164 1.273 . S
O167 Mg154 2.010 . S
O167 C159 1.249 . S
Mg168 O169 2.028 . S
Mg168 O175 1.986 . S
Mg168 O177 2.114 . S
Mg168 O178 2.251 . S
Mg168 O181 2.010 . S
O169 Mg168 2.028 . S
O169 C172 1.250 . S
O170 Mg171 2.028 . S
O170 C172 1.248 . S
Mg171 O170 2.028 . S
Mg171 O176 2.032 . S
Mg171 O178 2.079 . S
C172 O169 1.250 . S
C172 O170 1.248 . S
C173 O174 1.264 . S
C173 O181 1.249 . S
O174 C173 1.264 . S
O175 Mg168 1.986 . S
O175 C179 1.246 . S
O176 Mg171 2.032 . S
O176 C179 1.259 . S
O177 Mg168 2.114 . S
O177 C180 1.252 . S
O178 Mg168 2.251 . S
O178 Mg171 2.079 . S
O178 C180 1.273 . S
C179 O175 1.246 . S
C179 O176 1.259 . S
C180 O177 1.252 . S
C180 O178 1.273 . S
O181 Mg168 2.010 . S
O181 C173 1.249 . S
Mg182 O183 2.028 . S
Mg182 O189 1.986 . S
Mg182 O191 2.114 . S
Mg182 O192 2.251 . S
Mg182 O195 2.010 . S
O183 Mg182 2.028 . S
O183 C186 1.250 . S
O184 Mg185 2.028 . S
O184 C186 1.248 . S
Mg185 O184 2.028 . S
Mg185 O190 2.032 . S
Mg185 O192 2.079 . S
C186 O183 1.250 . S
C186 O184 1.248 . S
C187 O188 1.264 . S
C187 O195 1.249 . S
O188 C187 1.264 . S
O189 Mg182 1.986 . S
O189 C193 1.246 . S
O190 Mg185 2.032 . S
O190 C193 1.259 . S
O191 Mg182 2.114 . S
O191 C194 1.252 . S
O192 Mg182 2.251 . S
O192 Mg185 2.079 . S
O192 C194 1.273 . S
C193 O189 1.246 . S
C193 O190 1.259 . S
C194 O191 1.252 . S
C194 O192 1.273 . S
O195 Mg182 2.010 . S
O195 C187 1.249 . S
Mg196 O197 2.028 . S
Mg196 O203 1.986 . S
Mg196 O205 2.114 . S
Mg196 O206 2.251 . S
Mg196 O209 2.010 . S
O197 Mg196 2.028 . S
O197 C200 1.250 . S
O198 Mg199 2.028 . S
O198 C200 1.248 . S
Mg199 O198 2.028 . S
Mg199 O204 2.032 . S
Mg199 O206 2.079 . S
C200 O197 1.250 . S
C200 O198 1.248 . S
C201 O202 1.264 . S
C201 O209 1.249 . S
O202 C201 1.264 . S
O203 Mg196 1.986 . S
O203 C207 1.246 . S
O204 Mg199 2.032 . S
O204 C207 1.259 . S
O205 Mg196 2.114 . S
O205 C208 1.252 . S
O206 Mg196 2.251 . S
O206 Mg199 2.079 . S
O206 C208 1.273 . S
C207 O203 1.246 . S
C207 O204 1.259 . S
C208 O205 1.252 . S
C208 O206 1.273 . S
O209 Mg196 2.010 . S
O209 C201 1.249 . S
Mg210 O211 2.028 . S
Mg210 O217 1.986 . S
Mg210 O219 2.114 . S
Mg210 O220 2.251 . S
Mg210 O223 2.010 . S
O211 Mg210 2.028 . S
O211 C214 1.250 . S
O212 Mg213 2.028 . S
O212 C214 1.248 . S
Mg213 O212 2.028 . S
Mg213 O218 2.032 . S
Mg213 O220 2.079 . S
C214 O211 1.250 . S
C214 O212 1.248 . S
C215 O216 1.264 . S
C215 O223 1.249 . S
O216 C215 1.264 . S
O217 Mg210 1.986 . S
O217 C221 1.246 . S
O218 Mg213 2.032 . S
O218 C221 1.259 . S
O219 Mg210 2.114 . S
O219 C222 1.252 . S
O220 Mg210 2.251 . S
O220 Mg213 2.079 . S
O220 C222 1.273 . S
C221 O217 1.246 . S
C221 O218 1.259 . S
C222 O219 1.252 . S
C222 O220 1.273 . S
O223 Mg210 2.010 . S
O223 C215 1.249 . S
Mg224 O225 2.028 . S
Mg224 O231 1.986 . S
Mg224 O233 2.114 . S
Mg224 O234 2.251 . S
Mg224 O237 2.010 . S
O225 Mg224 2.028 . S
O225 C228 1.250 . S
O226 Mg227 2.028 . S
O226 C228 1.248 . S
Mg227 O226 2.028 . S
Mg227 O232 2.032 . S
Mg227 O234 2.079 . S
C228 O225 1.250 . S
C228 O226 1.248 . S
C229 O230 1.264 . S
C229 O237 1.249 . S
O230 C229 1.264 . S
O231 Mg224 1.986 . S
O231 C235 1.246 . S
O232 Mg227 2.032 . S
O232 C235 1.259 . S
O233 Mg224 2.114 . S
O233 C236 1.252 . S
O234 Mg224 2.251 . S
O234 Mg227 2.079 . S
O234 C236 1.273 . S
C235 O231 1.246 . S
C235 O232 1.259 . S
C236 O233 1.252 . S
C236 O234 1.273 . S
O237 Mg224 2.010 . S
O237 C229 1.249 . S
Mg238 O239 2.028 . S
Mg238 O245 1.986 . S
Mg238 O247 2.114 . S
Mg238 O248 2.251 . S
Mg238 O251 2.010 . S
O239 Mg238 2.028 . S
O239 C242 1.250 . S
O240 Mg241 2.028 . S
O240 C242 1.248 . S
Mg241 O240 2.028 . S
Mg241 O246 2.032 . S
Mg241 O248 2.079 . S
C242 O239 1.250 . S
C242 O240 1.248 . S
C243 O244 1.264 . S
C243 O251 1.249 . S
O244 C243 1.264 . S
O245 Mg238 1.986 . S
O245 C249 1.246 . S
O246 Mg241 2.032 . S
O246 C249 1.259 . S
O247 Mg238 2.114 . S
O247 C250 1.252 . S
O248 Mg238 2.251 . S
O248 Mg241 2.079 . S
O248 C250 1.273 . S
C249 O245 1.246 . S
C249 O246 1.259 . S
C250 O247 1.252 . S
C250 O248 1.273 . S
O251 Mg238 2.010 . S
O251 C243 1.249 . S
Mg252 O253 2.028 . S
Mg252 O259 1.986 . S
Mg252 O261 2.114 . S
Mg252 O262 2.251 . S
Mg252 O265 2.010 . S
O253 Mg252 2.028 . S
O253 C256 1.250 . S
O254 Mg255 2.028 . S
O254 C256 1.248 . S
Mg255 O254 2.028 . S
Mg255 O260 2.032 . S
Mg255 O262 2.079 . S
C256 O253 1.250 . S
C256 O254 1.248 . S
C257 O258 1.264 . S
C257 O265 1.249 . S
O258 C257 1.264 . S
O259 Mg252 1.986 . S
O259 C263 1.246 . S
O260 Mg255 2.032 . S
O260 C263 1.259 . S
O261 Mg252 2.114 . S
O261 C264 1.252 . S
O262 Mg252 2.251 . S
O262 Mg255 2.079 . S
O262 C264 1.273 . S
C263 O259 1.246 . S
C263 O260 1.259 . S
C264 O261 1.252 . S
C264 O262 1.273 . S
O265 Mg252 2.010 . S
O265 C257 1.249 . S
Mg266 O267 2.028 . S
Mg266 O273 1.986 . S
Mg266 O275 2.114 . S
Mg266 O276 2.251 . S
Mg266 O279 2.010 . S
O267 Mg266 2.028 . S
O267 C270 1.250 . S
O268 Mg269 2.028 . S
O268 C270 1.248 . S
Mg269 O268 2.028 . S
Mg269 O274 2.032 . S
Mg269 O276 2.079 . S
C270 O267 1.250 . S
C270 O268 1.248 . S
C271 O272 1.264 . S
C271 O279 1.249 . S
O272 C271 1.264 . S
O273 Mg266 1.986 . S
O273 C277 1.246 . S
O274 Mg269 2.032 . S
O274 C277 1.259 . S
O275 Mg266 2.114 . S
O275 C278 1.252 . S
O276 Mg266 2.251 . S
O276 Mg269 2.079 . S
O276 C278 1.273 . S
C277 O273 1.246 . S
C277 O274 1.259 . S
C278 O275 1.252 . S
C278 O276 1.273 . S
O279 Mg266 2.010 . S
O279 C271 1.249 . S
Mg280 O281 2.028 . S
Mg280 O287 1.986 . S
Mg280 O289 2.114 . S
Mg280 O290 2.251 . S
Mg280 O293 2.010 . S
O281 Mg280 2.028 . S
O281 C284 1.250 . S
O282 Mg283 2.028 . S
O282 C284 1.248 . S
Mg283 O282 2.028 . S
Mg283 O288 2.032 . S
Mg283 O290 2.079 . S
C284 O281 1.250 . S
C284 O282 1.248 . S
C285 O286 1.264 . S
C285 O293 1.249 . S
O286 C285 1.264 . S
O287 Mg280 1.986 . S
O287 C291 1.246 . S
O288 Mg283 2.032 . S
O288 C291 1.259 . S
O289 Mg280 2.114 . S
O289 C292 1.252 . S
O290 Mg280 2.251 . S
O290 Mg283 2.079 . S
O290 C292 1.273 . S
C291 O287 1.246 . S
C291 O288 1.259 . S
C292 O289 1.252 . S
C292 O290 1.273 . S
O293 Mg280 2.010 . S
O293 C285 1.249 . S
Mg294 O295 2.028 . S
Mg294 O301 1.986 . S
Mg294 O303 2.114 . S
Mg294 O304 2.251 . S
Mg294 O307 2.010 . S
O295 Mg294 2.028 . S
O295 C298 1.250 . S
O296 Mg297 2.028 . S
O296 C298 1.248 . S
Mg297 O296 2.028 . S
Mg297 O302 2.032 . S
Mg297 O304 2.079 . S
C298 O295 1.250 . S
C298 O296 1.248 . S
C299 O300 1.264 . S
C299 O307 1.249 . S
O300 C299 1.264 . S
O301 Mg294 1.986 . S
O301 C305 1.246 . S
O302 Mg297 2.032 . S
O302 C305 1.259 . S
O303 Mg294 2.114 . S
O303 C306 1.252 . S
O304 Mg294 2.251 . S
O304 Mg297 2.079 . S
O304 C306 1.273 . S
C305 O301 1.246 . S
C305 O302 1.259 . S
C306 O303 1.252 . S
C306 O304 1.273 . S
O307 Mg294 2.010 . S
O307 C299 1.249 . S
Mg308 O309 2.028 . S
Mg308 O315 1.986 . S
Mg308 O317 2.114 . S
Mg308 O318 2.251 . S
Mg308 O321 2.010 . S
O309 Mg308 2.028 . S
O309 C312 1.250 . S
O310 Mg311 2.028 . S
O310 C312 1.248 . S
Mg311 O310 2.028 . S
Mg311 O316 2.032 . S
Mg311 O318 2.079 . S
C312 O309 1.250 . S
C312 O310 1.248 . S
C313 O314 1.264 . S
C313 O321 1.249 . S
O314 C313 1.264 . S
O315 Mg308 1.986 . S
O315 C319 1.246 . S
O316 Mg311 2.032 . S
O316 C319 1.259 . S
O317 Mg308 2.114 . S
O317 C320 1.252 . S
O318 Mg308 2.251 . S
O318 Mg311 2.079 . S
O318 C320 1.273 . S
C319 O315 1.246 . S
C319 O316 1.259 . S
C320 O317 1.252 . S
C320 O318 1.273 . S
O321 Mg308 2.010 . S
O321 C313 1.249 . S
Mg322 O323 2.028 . S
Mg322 O329 1.986 . S
Mg322 O331 2.114 . S
Mg322 O332 2.251 . S
Mg322 O335 2.010 . S
O323 Mg322 2.028 . S
O323 C326 1.250 . S
O324 Mg325 2.028 . S
O324 C326 1.248 . S
Mg325 O324 2.028 . S
Mg325 O330 2.032 . S
Mg325 O332 2.079 . S
C326 O323 1.250 . S
C326 O324 1.248 . S
C327 O328 1.264 . S
C327 O335 1.249 . S
O328 C327 1.264 . S
O329 Mg322 1.986 . S
O329 C333 1.246 . S
O330 Mg325 2.032 . S
O330 C333 1.259 . S
O331 Mg322 2.114 . S
O331 C334 1.252 . S
O332 Mg322 2.251 . S
O332 Mg325 2.079 . S
O332 C334 1.273 . S
C333 O329 1.246 . S
C333 O330 1.259 . S
C334 O331 1.252 . S
C334 O332 1.273 . S
O335 Mg322 2.010 . S
O335 C327 1.249 . S
Mg336 O337 2.028 . S
Mg336 O343 1.986 . S
Mg336 O345 2.114 . S
Mg336 O346 2.251 . S
Mg336 O349 2.010 . S
O337 Mg336 2.028 . S
O337 C340 1.250 . S
O338 Mg339 2.028 . S
O338 C340 1.248 . S
Mg339 O338 2.028 . S
Mg339 O344 2.032 . S
Mg339 O346 2.079 . S
C340 O337 1.250 . S
C340 O338 1.248 . S
C341 O342 1.264 . S
C341 O349 1.249 . S
O342 C341 1.264 . S
O343 Mg336 1.986 . S
O343 C347 1.246 . S
O344 Mg339 2.032 . S
O344 C347 1.259 . S
O345 Mg336 2.114 . S
O345 C348 1.252 . S
O346 Mg336 2.251 . S
O346 Mg339 2.079 . S
O346 C348 1.273 . S
C347 O343 1.246 . S
C347 O344 1.259 . S
C348 O345 1.252 . S
C348 O346 1.273 . S
O349 Mg336 2.010 . S
O349 C341 1.249 . S
Mg350 O351 2.028 . S
Mg350 O357 1.986 . S
Mg350 O359 2.114 . S
Mg350 O360 2.251 . S
Mg350 O363 2.010 . S
O351 Mg350 2.028 . S
O351 C354 1.250 . S
O352 Mg353 2.028 . S
O352 C354 1.248 . S
Mg353 O352 2.028 . S
Mg353 O358 2.032 . S
Mg353 O360 2.079 . S
C354 O351 1.250 . S
C354 O352 1.248 . S
C355 O356 1.264 . S
C355 O363 1.249 . S
O356 C355 1.264 . S
O357 Mg350 1.986 . S
O357 C361 1.246 . S
O358 Mg353 2.032 . S
O358 C361 1.259 . S
O359 Mg350 2.114 . S
O359 C362 1.252 . S
O360 Mg350 2.251 . S
O360 Mg353 2.079 . S
O360 C362 1.273 . S
C361 O357 1.246 . S
C361 O358 1.259 . S
C362 O359 1.252 . S
C362 O360 1.273 . S
O363 Mg350 2.010 . S
O363 C355 1.249 . S
Mg364 O365 2.028 . S
Mg364 O371 1.986 . S
Mg364 O373 2.114 . S
Mg364 O374 2.251 . S
Mg364 O377 2.010 . S
O365 Mg364 2.028 . S
O365 C368 1.250 . S
O366 Mg367 2.028 . S
O366 C368 1.248 . S
Mg367 O366 2.028 . S
Mg367 O372 2.032 . S
Mg367 O374 2.079 . S
C368 O365 1.250 . S
C368 O366 1.248 . S
C369 O370 1.264 . S
C369 O377 1.249 . S
O370 C369 1.264 . S
O371 Mg364 1.986 . S
O371 C375 1.246 . S
O372 Mg367 2.032 . S
O372 C375 1.259 . S
O373 Mg364 2.114 . S
O373 C376 1.252 . S
O374 Mg364 2.251 . S
O374 Mg367 2.079 . S
O374 C376 1.273 . S
C375 O371 1.246 . S
C375 O372 1.259 . S
C376 O373 1.252 . S
C376 O374 1.273 . S
O377 Mg364 2.010 . S
O377 C369 1.249 . S
Mg378 O379 2.028 . S
Mg378 O385 1.986 . S
Mg378 O387 2.114 . S
Mg378 O388 2.251 . S
Mg378 O391 2.010 . S
O379 Mg378 2.028 . S
O379 C382 1.250 . S
O380 Mg381 2.028 . S
O380 C382 1.248 . S
Mg381 O380 2.028 . S
Mg381 O386 2.032 . S
Mg381 O388 2.079 . S
C382 O379 1.250 . S
C382 O380 1.248 . S
C383 O384 1.264 . S
C383 O391 1.249 . S
O384 C383 1.264 . S
O385 Mg378 1.986 . S
O385 C389 1.246 . S
O386 Mg381 2.032 . S
O386 C389 1.259 . S
O387 Mg378 2.114 . S
O387 C390 1.252 . S
O388 Mg378 2.251 . S
O388 Mg381 2.079 . S
O388 C390 1.273 . S
C389 O385 1.246 . S
C389 O386 1.259 . S
C390 O387 1.252 . S
C390 O388 1.273 . S
O391 Mg378 2.010 . S
O391 C383 1.249 . S
Mg392 O393 2.028 . S
Mg392 O399 1.986 . S
Mg392 O401 2.114 . S
Mg392 O402 2.251 . S
Mg392 O405 2.010 . S
O393 Mg392 2.028 . S
O393 C396 1.250 . S
O394 Mg395 2.028 . S
O394 C396 1.248 . S
Mg395 O394 2.028 . S
Mg395 O400 2.032 . S
Mg395 O402 2.079 . S
C396 O393 1.250 . S
C396 O394 1.248 . S
C397 O398 1.264 . S
C397 O405 1.249 . S
O398 C397 1.264 . S
O399 Mg392 1.986 . S
O399 C403 1.246 . S
O400 Mg395 2.032 . S
O400 C403 1.259 . S
O401 Mg392 2.114 . S
O401 C404 1.252 . S
O402 Mg392 2.251 . S
O402 Mg395 2.079 . S
O402 C404 1.273 . S
C403 O399 1.246 . S
C403 O400 1.259 . S
C404 O401 1.252 . S
C404 O402 1.273 . S
O405 Mg392 2.010 . S
O405 C397 1.249 . S
Mg406 O407 2.028 . S
Mg406 O413 1.986 . S
Mg406 O415 2.114 . S
Mg406 O416 2.251 . S
Mg406 O419 2.010 . S
O407 Mg406 2.028 . S
O407 C410 1.250 . S
O408 Mg409 2.028 . S
O408 C410 1.248 . S
Mg409 O408 2.028 . S
Mg409 O414 2.032 . S
Mg409 O416 2.079 . S
C410 O407 1.250 . S
C410 O408 1.248 . S
C411 O412 1.264 . S
C411 O419 1.249 . S
O412 C411 1.264 . S
O413 Mg406 1.986 . S
O413 C417 1.246 . S
O414 Mg409 2.032 . S
O414 C417 1.259 . S
O415 Mg406 2.114 . S
O415 C418 1.252 . S
O416 Mg406 2.251 . S
O416 Mg409 2.079 . S
O416 C418 1.273 . S
C417 O413 1.246 . S
C417 O414 1.259 . S
C418 O415 1.252 . S
C418 O416 1.273 . S
O419 Mg406 2.010 . S
O419 C411 1.249 . S
Mg420 O421 2.028 . S
Mg420 O427 1.986 . S
Mg420 O429 2.114 . S
Mg420 O430 2.251 . S
Mg420 O433 2.010 . S
O421 Mg420 2.028 . S
O421 C424 1.250 . S
O422 Mg423 2.028 . S
O422 C424 1.248 . S
Mg423 O422 2.028 . S
Mg423 O428 2.032 . S
Mg423 O430 2.079 . S
C424 O421 1.250 . S
C424 O422 1.248 . S
C425 O426 1.264 . S
C425 O433 1.249 . S
O426 C425 1.264 . S
O427 Mg420 1.986 . S
O427 C431 1.246 . S
O428 Mg423 2.032 . S
O428 C431 1.259 . S
O429 Mg420 2.114 . S
O429 C432 1.252 . S
O430 Mg420 2.251 . S
O430 Mg423 2.079 . S
O430 C432 1.273 . S
C431 O427 1.246 . S
C431 O428 1.259 . S
C432 O429 1.252 . S
C432 O430 1.273 . S
O433 Mg420 2.010 . S
O433 C425 1.249 . S
Mg434 O435 2.028 . S
Mg434 O441 1.986 . S
Mg434 O443 2.114 . S
Mg434 O444 2.251 . S
Mg434 O447 2.010 . S
O435 Mg434 2.028 . S
O435 C438 1.250 . S
O436 Mg437 2.028 . S
O436 C438 1.248 . S
Mg437 O436 2.028 . S
Mg437 O442 2.032 . S
Mg437 O444 2.079 . S
C438 O435 1.250 . S
C438 O436 1.248 . S
C439 O440 1.264 . S
C439 O447 1.249 . S
O440 C439 1.264 . S
O441 Mg434 1.986 . S
O441 C445 1.246 . S
O442 Mg437 2.032 . S
O442 C445 1.259 . S
O443 Mg434 2.114 . S
O443 C446 1.252 . S
O444 Mg434 2.251 . S
O444 Mg437 2.079 . S
O444 C446 1.273 . S
C445 O441 1.246 . S
C445 O442 1.259 . S
C446 O443 1.252 . S
C446 O444 1.273 . S
O447 Mg434 2.010 . S
O447 C439 1.249 . S
Mg448 O449 2.028 . S
Mg448 O455 1.986 . S
Mg448 O457 2.114 . S
Mg448 O458 2.251 . S
Mg448 O461 2.010 . S
O449 Mg448 2.028 . S
O449 C452 1.250 . S
O450 Mg451 2.028 . S
O450 C452 1.248 . S
Mg451 O450 2.028 . S
Mg451 O456 2.032 . S
Mg451 O458 2.079 . S
C452 O449 1.250 . S
C452 O450 1.248 . S
C453 O454 1.264 . S
C453 O461 1.249 . S
O454 C453 1.264 . S
O455 Mg448 1.986 . S
O455 C459 1.246 . S
O456 Mg451 2.032 . S
O456 C459 1.259 . S
O457 Mg448 2.114 . S
O457 C460 1.252 . S
O458 Mg448 2.251 . S
O458 Mg451 2.079 . S
O458 C460 1.273 . S
C459 O455 1.246 . S
C459 O456 1.259 . S
C460 O457 1.252 . S
C460 O458 1.273 . S
O461 Mg448 2.010 . S
O461 C453 1.249 . S
Mg462 O463 2.028 . S
Mg462 O469 1.986 . S
Mg462 O471 2.114 . S
Mg462 O472 2.251 . S
Mg462 O475 2.010 . S
O463 Mg462 2.028 . S
O463 C466 1.250 . S
O464 Mg465 2.028 . S
O464 C466 1.248 . S
Mg465 O464 2.028 . S
Mg465 O470 2.032 . S
Mg465 O472 2.079 . S
C466 O463 1.250 . S
C466 O464 1.248 . S
C467 O468 1.264 . S
C467 O475 1.249 . S
O468 C467 1.264 . S
O469 Mg462 1.986 . S
O469 C473 1.246 . S
O470 Mg465 2.032 . S
O470 C473 1.259 . S
O471 Mg462 2.114 . S
O471 C474 1.252 . S
O472 Mg462 2.251 . S
O472 Mg465 2.079 . S
O472 C474 1.273 . S
C473 O469 1.246 . S
C473 O470 1.259 . S
C474 O471 1.252 . S
C474 O472 1.273 . S
O475 Mg462 2.010 . S
O475 C467 1.249 . S
Mg476 O477 2.028 . S
Mg476 O483 1.986 . S
Mg476 O485 2.114 . S
Mg476 O486 2.251 . S
Mg476 O489 2.010 . S
O477 Mg476 2.028 . S
O477 C480 1.250 . S
O478 Mg479 2.028 . S
O478 C480 1.248 . S
Mg479 O478 2.028 . S
Mg479 O484 2.032 . S
Mg479 O486 2.079 . S
C480 O477 1.250 . S
C480 O478 1.248 . S
C481 O482 1.264 . S
C481 O489 1.249 . S
O482 C481 1.264 . S
O483 Mg476 1.986 . S
O483 C487 1.246 . S
O484 Mg479 2.032 . S
O484 C487 1.259 . S
O485 Mg476 2.114 . S
O485 C488 1.252 . S
O486 Mg476 2.251 . S
O486 Mg479 2.079 . S
O486 C488 1.273 . S
C487 O483 1.246 . S
C487 O484 1.259 . S
C488 O485 1.252 . S
C488 O486 1.273 . S
O489 Mg476 2.010 . S
O489 C481 1.249 . S
Mg490 O491 2.028 . S
Mg490 O497 1.986 . S
Mg490 O499 2.114 . S
Mg490 O500 2.251 . S
Mg490 O503 2.010 . S
O491 Mg490 2.028 . S
O491 C494 1.250 . S
O492 Mg493 2.028 . S
O492 C494 1.248 . S
Mg493 O492 2.028 . S
Mg493 O498 2.032 . S
Mg493 O500 2.079 . S
C494 O491 1.250 . S
C494 O492 1.248 . S
C495 O496 1.264 . S
C495 O503 1.249 . S
O496 C495 1.264 . S
O497 Mg490 1.986 . S
O497 C501 1.246 . S
O498 Mg493 2.032 . S
O498 C501 1.259 . S
O499 Mg490 2.114 . S
O499 C502 1.252 . S
O500 Mg490 2.251 . S
O500 Mg493 2.079 . S
O500 C502 1.273 . S
C501 O497 1.246 . S
C501 O498 1.259 . S
C502 O499 1.252 . S
C502 O500 1.273 . S
O503 Mg490 2.010 . S
O503 C495 1.249 . S
Mg504 O505 2.028 . S
Mg504 O511 1.986 . S
Mg504 O513 2.114 . S
Mg504 O514 2.251 . S
Mg504 O517 2.010 . S
O505 Mg504 2.028 . S
O505 C508 1.250 . S
O506 Mg507 2.028 . S
O506 C508 1.248 . S
Mg507 O506 2.028 . S
Mg507 O512 2.032 . S
Mg507 O514 2.079 . S
C508 O505 1.250 . S
C508 O506 1.248 . S
C509 O510 1.264 . S
C509 O517 1.249 . S
O510 C509 1.264 . S
O511 Mg504 1.986 . S
O511 C515 1.246 . S
O512 Mg507 2.032 . S
O512 C515 1.259 . S
O513 Mg504 2.114 . S
O513 C516 1.252 . S
O514 Mg504 2.251 . S
O514 Mg507 2.079 . S
O514 C516 1.273 . S
C515 O511 1.246 . S
C515 O512 1.259 . S
C516 O513 1.252 . S
C516 O514 1.273 . S
O517 Mg504 2.010 . S
O517 C509 1.249 . S
Mg518 O519 2.028 . S
Mg518 O525 1.986 . S
Mg518 O527 2.114 . S
Mg518 O528 2.251 . S
Mg518 O531 2.010 . S
O519 Mg518 2.028 . S
O519 C522 1.250 . S
O520 Mg521 2.028 . S
O520 C522 1.248 . S
Mg521 O520 2.028 . S
Mg521 O526 2.032 . S
Mg521 O528 2.079 . S
C522 O519 1.250 . S
C522 O520 1.248 . S
C523 O524 1.264 . S
C523 O531 1.249 . S
O524 C523 1.264 . S
O525 Mg518 1.986 . S
O525 C529 1.246 . S
O526 Mg521 2.032 . S
O526 C529 1.259 . S
O527 Mg518 2.114 . S
O527 C530 1.252 . S
O528 Mg518 2.251 . S
O528 Mg521 2.079 . S
O528 C530 1.273 . S
C529 O525 1.246 . S
C529 O526 1.259 . S
C530 O527 1.252 . S
C530 O528 1.273 . S
O531 Mg518 2.010 . S
O531 C523 1.249 . S
Mg532 O533 2.028 . S
Mg532 O539 1.986 . S
Mg532 O541 2.114 . S
Mg532 O542 2.251 . S
Mg532 O545 2.010 . S
O533 Mg532 2.028 . S
O533 C536 1.250 . S
O534 Mg535 2.028 . S
O534 C536 1.248 . S
Mg535 O534 2.028 . S
Mg535 O540 2.032 . S
Mg535 O542 2.079 . S
C536 O533 1.250 . S
C536 O534 1.248 . S
C537 O538 1.264 . S
C537 O545 1.249 . S
O538 C537 1.264 . S
O539 Mg532 1.986 . S
O539 C543 1.246 . S
O540 Mg535 2.032 . S
O540 C543 1.259 . S
O541 Mg532 2.114 . S
O541 C544 1.252 . S
O542 Mg532 2.251 . S
O542 Mg535 2.079 . S
O542 C544 1.273 . S
C543 O539 1.246 . S
C543 O540 1.259 . S
C544 O541 1.252 . S
C544 O542 1.273 . S
O545 Mg532 2.010 . S
O545 C537 1.249 . S
Mg546 O547 2.028 . S
Mg546 O553 1.986 . S
Mg546 O555 2.114 . S
Mg546 O556 2.251 . S
Mg546 O559 2.010 . S
O547 Mg546 2.028 . S
O547 C550 1.250 . S
O548 Mg549 2.028 . S
O548 C550 1.248 . S
Mg549 O548 2.028 . S
Mg549 O554 2.032 . S
Mg549 O556 2.079 . S
C550 O547 1.250 . S
C550 O548 1.248 . S
C551 O552 1.264 . S
C551 O559 1.249 . S
O552 C551 1.264 . S
O553 Mg546 1.986 . S
O553 C557 1.246 . S
O554 Mg549 2.032 . S
O554 C557 1.259 . S
O555 Mg546 2.114 . S
O555 C558 1.252 . S
O556 Mg546 2.251 . S
O556 Mg549 2.079 . S
O556 C558 1.273 . S
C557 O553 1.246 . S
C557 O554 1.259 . S
C558 O555 1.252 . S
C558 O556 1.273 . S
O559 Mg546 2.010 . S
O559 C551 1.249 . S
Mg560 O561 2.028 . S
Mg560 O567 1.986 . S
Mg560 O569 2.114 . S
Mg560 O570 2.251 . S
Mg560 O573 2.010 . S
O561 Mg560 2.028 . S
O561 C564 1.250 . S
O562 Mg563 2.028 . S
O562 C564 1.248 . S
Mg563 O562 2.028 . S
Mg563 O568 2.032 . S
Mg563 O570 2.079 . S
C564 O561 1.250 . S
C564 O562 1.248 . S
C565 O566 1.264 . S
C565 O573 1.249 . S
O566 C565 1.264 . S
O567 Mg560 1.986 . S
O567 C571 1.246 . S
O568 Mg563 2.032 . S
O568 C571 1.259 . S
O569 Mg560 2.114 . S
O569 C572 1.252 . S
O570 Mg560 2.251 . S
O570 Mg563 2.079 . S
O570 C572 1.273 . S
C571 O567 1.246 . S
C571 O568 1.259 . S
C572 O569 1.252 . S
C572 O570 1.273 . S
O573 Mg560 2.010 . S
O573 C565 1.249 . S
Mg574 O575 2.028 . S
Mg574 O581 1.986 . S
Mg574 O583 2.114 . S
Mg574 O584 2.251 . S
Mg574 O587 2.010 . S
O575 Mg574 2.028 . S
O575 C578 1.250 . S
O576 Mg577 2.028 . S
O576 C578 1.248 . S
Mg577 O576 2.028 . S
Mg577 O582 2.032 . S
Mg577 O584 2.079 . S
C578 O575 1.250 . S
C578 O576 1.248 . S
C579 O580 1.264 . S
C579 O587 1.249 . S
O580 C579 1.264 . S
O581 Mg574 1.986 . S
O581 C585 1.246 . S
O582 Mg577 2.032 . S
O582 C585 1.259 . S
O583 Mg574 2.114 . S
O583 C586 1.252 . S
O584 Mg574 2.251 . S
O584 Mg577 2.079 . S
O584 C586 1.273 . S
C585 O581 1.246 . S
C585 O582 1.259 . S
C586 O583 1.252 . S
C586 O584 1.273 . S
O587 Mg574 2.010 . S
O587 C579 1.249 . S
Mg588 O589 2.028 . S
Mg588 O595 1.986 . S
Mg588 O597 2.114 . S
Mg588 O598 2.251 . S
Mg588 O601 2.010 . S
O589 Mg588 2.028 . S
O589 C592 1.250 . S
O590 Mg591 2.028 . S
O590 C592 1.248 . S
Mg591 O590 2.028 . S
Mg591 O596 2.032 . S
Mg591 O598 2.079 . S
C592 O589 1.250 . S
C592 O590 1.248 . S
C593 O594 1.264 . S
C593 O601 1.249 . S
O594 C593 1.264 . S
O595 Mg588 1.986 . S
O595 C599 1.246 . S
O596 Mg591 2.032 . S
O596 C599 1.259 . S
O597 Mg588 2.114 . S
O597 C600 1.252 . S
O598 Mg588 2.251 . S
O598 Mg591 2.079 . S
O598 C600 1.273 . S
C599 O595 1.246 . S
C599 O596 1.259 . S
C600 O597 1.252 . S
C600 O598 1.273 . S
O601 Mg588 2.010 . S
O601 C593 1.249 . S
Mg602 O603 2.028 . S
Mg602 O609 1.986 . S
Mg602 O611 2.114 . S
Mg602 O612 2.251 . S
Mg602 O615 2.010 . S
O603 Mg602 2.028 . S
O603 C606 1.250 . S
O604 Mg605 2.028 . S
O604 C606 1.248 . S
Mg605 O604 2.028 . S
Mg605 O610 2.032 . S
Mg605 O612 2.079 . S
C606 O603 1.250 . S
C606 O604 1.248 . S
C607 O608 1.264 . S
C607 O615 1.249 . S
O608 C607 1.264 . S
O609 Mg602 1.986 . S
O609 C613 1.246 . S
O610 Mg605 2.032 . S
O610 C613 1.259 . S
O611 Mg602 2.114 . S
O611 C614 1.252 . S
O612 Mg602 2.251 . S
O612 Mg605 2.079 . S
O612 C614 1.273 . S
C613 O609 1.246 . S
C613 O610 1.259 . S
C614 O611 1.252 . S
C614 O612 1.273 . S
O615 Mg602 2.010 . S
O615 C607 1.249 . S
Mg616 O617 2.028 . S
Mg616 O623 1.986 . S
Mg616 O625 2.114 . S
Mg616 O626 2.251 . S
Mg616 O629 2.010 . S
O617 Mg616 2.028 . S
O617 C620 1.250 . S
O618 Mg619 2.028 . S
O618 C620 1.248 . S
Mg619 O618 2.028 . S
Mg619 O624 2.032 . S
Mg619 O626 2.079 . S
C620 O617 1.250 . S
C620 O618 1.248 . S
C621 O622 1.264 . S
C621 O629 1.249 . S
O622 C621 1.264 . S
O623 Mg616 1.986 . S
O623 C627 1.246 . S
O624 Mg619 2.032 . S
O624 C627 1.259 . S
O625 Mg616 2.114 . S
O625 C628 1.252 . S
O626 Mg616 2.251 . S
O626 Mg619 2.079 . S
O626 C628 1.273 . S
C627 O623 1.246 . S
C627 O624 1.259 . S
C628 O625 1.252 . S
C628 O626 1.273 . S
O629 Mg616 2.010 . S
O629 C621 1.249 . S
Mg630 O631 2.028 . S
Mg630 O637 1.986 . S
Mg630 O639 2.114 . S
Mg630 O640 2.251 . S
Mg630 O643 2.010 . S
O631 Mg630 2.028 . S
O631 C634 1.250 . S
O632 Mg633 2.028 . S
O632 C634 1.248 . S
Mg633 O632 2.028 . S
Mg633 O638 2.032 . S
Mg633 O640 2.079 . S
C634 O631 1.250 . S
C634 O632 1.248 . S
C635 O636 1.264 . S
C635 O643 1.249 . S
O636 C635 1.264 . S
O637 Mg630 1.986 . S
O637 C641 1.246 . S
O638 Mg633 2.032 . S
O638 C641 1.259 . S
O639 Mg630 2.114 . S
O639 C642 1.252 . S
O640 Mg630 2.251 . S
O640 Mg633 2.079 . S
O640 C642 1.273 . S
C641 O637 1.246 . S
C641 O638 1.259 . S
C642 O639 1.252 . S
C642 O640 1.273 . S
O643 Mg630 2.010 . S
O643 C635 1.249 . S
Mg644 O645 2.028 . S
Mg644 O651 1.986 . S
Mg644 O653 2.114 . S
Mg644 O654 2.251 . S
Mg644 O657 2.010 . S
O645 Mg644 2.028 . S
O645 C648 1.250 . S
O646 Mg647 2.028 . S
O646 C648 1.248 . S
Mg647 O646 2.028 . S
Mg647 O652 2.032 . S
Mg647 O654 2.079 . S
C648 O645 1.250 . S
C648 O646 1.248 . S
C649 O650 1.264 . S
C649 O657 1.249 . S
O650 C649 1.264 . S
O651 Mg644 1.986 . S
O651 C655 1.246 . S
O652 Mg647 2.032 . S
O652 C655 1.259 . S
O653 Mg644 2.114 . S
O653 C656 1.252 . S
O654 Mg644 2.251 . S
O654 Mg647 2.079 . S
O654 C656 1.273 . S
C655 O651 1.246 . S
C655 O652 1.259 . S
C656 O653 1.252 . S
C656 O654 1.273 . S
O657 Mg644 2.010 . S
O657 C649 1.249 . S
Mg658 O659 2.028 . S
Mg658 O665 1.986 . S
Mg658 O667 2.114 . S
Mg658 O668 2.251 . S
Mg658 O671 2.010 . S
O659 Mg658 2.028 . S
O659 C662 1.250 . S
O660 Mg661 2.028 . S
O660 C662 1.248 . S
Mg661 O660 2.028 . S
Mg661 O666 2.032 . S
Mg661 O668 2.079 . S
C662 O659 1.250 . S
C662 O660 1.248 . S
C663 O664 1.264 . S
C663 O671 1.249 . S
O664 C663 1.264 . S
O665 Mg658 1.986 . S
O665 C669 1.246 . S
O666 Mg661 2.032 . S
O666 C669 1.259 . S
O667 Mg658 2.114 . S
O667 C670 1.252 . S
O668 Mg658 2.251 . S
O668 Mg661 2.079 . S
O668 C670 1.273 . S
C669 O665 1.246 . S
C669 O666 1.259 . S
C670 O667 1.252 . S
C670 O668 1.273 . S
O671 Mg658 2.010 . S
O671 C663 1.249 . S
H672 C678 0.930 . S
H673 C681 0.930 . S
H674 C682 0.930 . S
H675 C683 0.930 . S
H676 C686 0.930 . S
H677 C687 0.930 . S
C678 H672 0.930 . S
C678 C679 1.355 . S
C678 C680 1.415 . S
C679 C678 1.355 . S
C679 C681 1.419 . S
C680 C678 1.415 . S
C680 C685 1.425 . S
C680 C687 1.409 . S
C681 H673 0.930 . S
C681 C679 1.419 . S
C681 C682 1.362 . S
C682 H674 0.930 . S
C682 C681 1.362 . S
C682 C685 1.409 . S
C683 H675 0.930 . S
C683 C684 1.355 . S
C683 C685 1.415 . S
C684 C683 1.355 . S
C684 C686 1.419 . S
C685 C680 1.425 . S
C685 C682 1.409 . S
C685 C683 1.415 . S
C686 H676 0.930 . S
C686 C684 1.419 . S
C686 C687 1.362 . S
C687 H677 0.930 . S
C687 C680 1.409 . S
C687 C686 1.362 . S
H688 C694 0.930 . S
H689 C697 0.930 . S
H690 C698 0.930 . S
H691 C699 0.930 . S
H692 C702 0.930 . S
H693 C703 0.930 . S
C694 H688 0.930 . S
C694 C695 1.355 . S
C694 C696 1.415 . S
C695 C694 1.355 . S
C695 C697 1.419 . S
C696 C694 1.415 . S
C696 C701 1.425 . S
C696 C703 1.409 . S
C697 H689 0.930 . S
C697 C695 1.419 . S
C697 C698 1.362 . S
C698 H690 0.930 . S
C698 C697 1.362 . S
C698 C701 1.409 . S
C699 H691 0.930 . S
C699 C700 1.355 . S
C699 C701 1.415 . S
C700 C699 1.355 . S
C700 C702 1.419 . S
C701 C696 1.425 . S
C701 C698 1.409 . S
C701 C699 1.415 . S
C702 H692 0.930 . S
C702 C700 1.419 . S
C702 C703 1.362 . S
C703 H693 0.930 . S
C703 C696 1.409 . S
C703 C702 1.362 . S
H704 C710 0.930 . S
H705 C713 0.930 . S
H706 C714 0.930 . S
H707 C715 0.930 . S
H708 C718 0.930 . S
H709 C719 0.930 . S
C710 H704 0.930 . S
C710 C711 1.355 . S
C710 C712 1.415 . S
C711 C710 1.355 . S
C711 C713 1.419 . S
C712 C710 1.415 . S
C712 C717 1.425 . S
C712 C719 1.409 . S
C713 H705 0.930 . S
C713 C711 1.419 . S
C713 C714 1.362 . S
C714 H706 0.930 . S
C714 C713 1.362 . S
C714 C717 1.409 . S
C715 H707 0.930 . S
C715 C716 1.355 . S
C715 C717 1.415 . S
C716 C715 1.355 . S
C716 C718 1.419 . S
C717 C712 1.425 . S
C717 C714 1.409 . S
C717 C715 1.415 . S
C718 H708 0.930 . S
C718 C716 1.419 . S
C718 C719 1.362 . S
C719 H709 0.930 . S
C719 C712 1.409 . S
C719 C718 1.362 . S
H720 C726 0.930 . S
H721 C729 0.930 . S
H722 C730 0.930 . S
H723 C731 0.930 . S
H724 C734 0.930 . S
H725 C735 0.930 . S
C726 H720 0.930 . S
C726 C727 1.355 . S
C726 C728 1.415 . S
C727 C726 1.355 . S
C727 C729 1.419 . S
C728 C726 1.415 . S
C728 C733 1.425 . S
C728 C735 1.409 . S
C729 H721 0.930 . S
C729 C727 1.419 . S
C729 C730 1.362 . S
C730 H722 0.930 . S
C730 C729 1.362 . S
C730 C733 1.409 . S
C731 H723 0.930 . S
C731 C732 1.355 . S
C731 C733 1.415 . S
C732 C731 1.355 . S
C732 C734 1.419 . S
C733 C728 1.425 . S
C733 C730 1.409 . S
C733 C731 1.415 . S
C734 H724 0.930 . S
C734 C732 1.419 . S
C734 C735 1.362 . S
C735 H725 0.930 . S
C735 C728 1.409 . S
C735 C734 1.362 . S
H736 C742 0.930 . S
H737 C745 0.930 . S
H738 C746 0.930 . S
H739 C747 0.930 . S
H740 C750 0.930 . S
H741 C751 0.930 . S
C742 H736 0.930 . S
C742 C743 1.355 . S
C742 C744 1.415 . S
C743 C742 1.355 . S
C743 C745 1.419 . S
C744 C742 1.415 . S
C744 C749 1.425 . S
C744 C751 1.409 . S
C745 H737 0.930 . S
C745 C743 1.419 . S
C745 C746 1.362 . S
C746 H738 0.930 . S
C746 C745 1.362 . S
C746 C749 1.409 . S
C747 H739 0.930 . S
C747 C748 1.355 . S
C747 C749 1.415 . S
C748 C747 1.355 . S
C748 C750 1.419 . S
C749 C744 1.425 . S
C749 C746 1.409 . S
C749 C747 1.415 . S
C750 H740 0.930 . S
C750 C748 1.419 . S
C750 C751 1.362 . S
C751 H741 0.930 . S
C751 C744 1.409 . S
C751 C750 1.362 . S
H752 C758 0.930 . S
H753 C761 0.930 . S
H754 C762 0.930 . S
H755 C763 0.930 . S
H756 C766 0.930 . S
H757 C767 0.930 . S
C758 H752 0.930 . S
C758 C759 1.355 . S
C758 C760 1.415 . S
C759 C758 1.355 . S
C759 C761 1.419 . S
C760 C758 1.415 . S
C760 C765 1.425 . S
C760 C767 1.409 . S
C761 H753 0.930 . S
C761 C759 1.419 . S
C761 C762 1.362 . S
C762 H754 0.930 . S
C762 C761 1.362 . S
C762 C765 1.409 . S
C763 H755 0.930 . S
C763 C764 1.355 . S
C763 C765 1.415 . S
C764 C763 1.355 . S
C764 C766 1.419 . S
C765 C760 1.425 . S
C765 C762 1.409 . S
C765 C763 1.415 . S
C766 H756 0.930 . S
C766 C764 1.419 . S
C766 C767 1.362 . S
C767 H757 0.930 . S
C767 C760 1.409 . S
C767 C766 1.362 . S
H768 C774 0.930 . S
H769 C777 0.930 . S
H770 C778 0.930 . S
H771 C779 0.930 . S
H772 C782 0.930 . S
H773 C783 0.930 . S
C774 H768 0.930 . S
C774 C775 1.355 . S
C774 C776 1.415 . S
C775 C774 1.355 . S
C775 C777 1.419 . S
C776 C774 1.415 . S
C776 C781 1.425 . S
C776 C783 1.409 . S
C777 H769 0.930 . S
C777 C775 1.419 . S
C777 C778 1.362 . S
C778 H770 0.930 . S
C778 C777 1.362 . S
C778 C781 1.409 . S
C779 H771 0.930 . S
C779 C780 1.355 . S
C779 C781 1.415 . S
C780 C779 1.355 . S
C780 C782 1.419 . S
C781 C776 1.425 . S
C781 C778 1.409 . S
C781 C779 1.415 . S
C782 H772 0.930 . S
C782 C780 1.419 . S
C782 C783 1.362 . S
C783 H773 0.930 . S
C783 C776 1.409 . S
C783 C782 1.362 . S
H784 C790 0.930 . S
H785 C793 0.930 . S
H786 C794 0.930 . S
H787 C795 0.930 . S
H788 C798 0.930 . S
H789 C799 0.930 . S
C790 H784 0.930 . S
C790 C791 1.355 . S
C790 C792 1.415 . S
C791 C790 1.355 . S
C791 C793 1.419 . S
C792 C790 1.415 . S
C792 C797 1.425 . S
C792 C799 1.409 . S
C793 H785 0.930 . S
C793 C791 1.419 . S
C793 C794 1.362 . S
C794 H786 0.930 . S
C794 C793 1.362 . S
C794 C797 1.409 . S
C795 H787 0.930 . S
C795 C796 1.355 . S
C795 C797 1.415 . S
C796 C795 1.355 . S
C796 C798 1.419 . S
C797 C792 1.425 . S
C797 C794 1.409 . S
C797 C795 1.415 . S
C798 H788 0.930 . S
C798 C796 1.419 . S
C798 C799 1.362 . S
C799 H789 0.930 . S
C799 C792 1.409 . S
C799 C798 1.362 . S
H800 C806 0.930 . S
H801 C809 0.930 . S
H802 C810 0.930 . S
H803 C811 0.930 . S
H804 C814 0.930 . S
H805 C815 0.930 . S
C806 H800 0.930 . S
C806 C807 1.355 . S
C806 C808 1.415 . S
C807 C806 1.355 . S
C807 C809 1.419 . S
C808 C806 1.415 . S
C808 C813 1.425 . S
C808 C815 1.409 . S
C809 H801 0.930 . S
C809 C807 1.419 . S
C809 C810 1.362 . S
C810 H802 0.930 . S
C810 C809 1.362 . S
C810 C813 1.409 . S
C811 H803 0.930 . S
C811 C812 1.355 . S
C811 C813 1.415 . S
C812 C811 1.355 . S
C812 C814 1.419 . S
C813 C808 1.425 . S
C813 C810 1.409 . S
C813 C811 1.415 . S
C814 H804 0.930 . S
C814 C812 1.419 . S
C814 C815 1.362 . S
C815 H805 0.930 . S
C815 C808 1.409 . S
C815 C814 1.362 . S
H816 C822 0.930 . S
H817 C825 0.930 . S
H818 C826 0.930 . S
H819 C827 0.930 . S
H820 C830 0.930 . S
H821 C831 0.930 . S
C822 H816 0.930 . S
C822 C823 1.355 . S
C822 C824 1.415 . S
C823 C822 1.355 . S
C823 C825 1.419 . S
C824 C822 1.415 . S
C824 C829 1.425 . S
C824 C831 1.409 . S
C825 H817 0.930 . S
C825 C823 1.419 . S
C825 C826 1.362 . S
C826 H818 0.930 . S
C826 C825 1.362 . S
C826 C829 1.409 . S
C827 H819 0.930 . S
C827 C828 1.355 . S
C827 C829 1.415 . S
C828 C827 1.355 . S
C828 C830 1.419 . S
C829 C824 1.425 . S
C829 C826 1.409 . S
C829 C827 1.415 . S
C830 H820 0.930 . S
C830 C828 1.419 . S
C830 C831 1.362 . S
C831 H821 0.930 . S
C831 C824 1.409 . S
C831 C830 1.362 . S
H832 C838 0.930 . S
H833 C841 0.930 . S
H834 C842 0.930 . S
H835 C843 0.930 . S
H836 C846 0.930 . S
H837 C847 0.930 . S
C838 H832 0.930 . S
C838 C839 1.355 . S
C838 C840 1.415 . S
C839 C838 1.355 . S
C839 C841 1.419 . S
C840 C838 1.415 . S
C840 C845 1.425 . S
C840 C847 1.409 . S
C841 H833 0.930 . S
C841 C839 1.419 . S
C841 C842 1.362 . S
C842 H834 0.930 . S
C842 C841 1.362 . S
C842 C845 1.409 . S
C843 H835 0.930 . S
C843 C844 1.355 . S
C843 C845 1.415 . S
C844 C843 1.355 . S
C844 C846 1.419 . S
C845 C840 1.425 . S
C845 C842 1.409 . S
C845 C843 1.415 . S
C846 H836 0.930 . S
C846 C844 1.419 . S
C846 C847 1.362 . S
C847 H837 0.930 . S
C847 C840 1.409 . S
C847 C846 1.362 . S
H848 C854 0.930 . S
H849 C857 0.930 . S
H850 C858 0.930 . S
H851 C859 0.930 . S
H852 C862 0.930 . S
H853 C863 0.930 . S
C854 H848 0.930 . S
C854 C855 1.355 . S
C854 C856 1.415 . S
C855 C854 1.355 . S
C855 C857 1.419 . S
C856 C854 1.415 . S
C856 C861 1.425 . S
C856 C863 1.409 . S
C857 H849 0.930 . S
C857 C855 1.419 . S
C857 C858 1.362 . S
C858 H850 0.930 . S
C858 C857 1.362 . S
C858 C861 1.409 . S
C859 H851 0.930 . S
C859 C860 1.355 . S
C859 C861 1.415 . S
C860 C859 1.355 . S
C860 C862 1.419 . S
C861 C856 1.425 . S
C861 C858 1.409 . S
C861 C859 1.415 . S
C862 H852 0.930 . S
C862 C860 1.419 . S
C862 C863 1.362 . S
C863 H853 0.930 . S
C863 C856 1.409 . S
C863 C862 1.362 . S
H864 C870 0.930 . S
H865 C873 0.930 . S
H866 C874 0.930 . S
H867 C875 0.930 . S
H868 C878 0.930 . S
H869 C879 0.930 . S
C870 H864 0.930 . S
C870 C871 1.355 . S
C870 C872 1.415 . S
C871 C870 1.355 . S
C871 C873 1.419 . S
C872 C870 1.415 . S
C872 C877 1.425 . S
C872 C879 1.409 . S
C873 H865 0.930 . S
C873 C871 1.419 . S
C873 C874 1.362 . S
C874 H866 0.930 . S
C874 C873 1.362 . S
C874 C877 1.409 . S
C875 H867 0.930 . S
C875 C876 1.355 . S
C875 C877 1.415 . S
C876 C875 1.355 . S
C876 C878 1.419 . S
C877 C872 1.425 . S
C877 C874 1.409 . S
C877 C875 1.415 . S
C878 H868 0.930 . S
C878 C876 1.419 . S
C878 C879 1.362 . S
C879 H869 0.930 . S
C879 C872 1.409 . S
C879 C878 1.362 . S
H880 C886 0.930 . S
H881 C889 0.930 . S
H882 C890 0.930 . S
H883 C891 0.930 . S
H884 C894 0.930 . S
H885 C895 0.930 . S
C886 H880 0.930 . S
C886 C887 1.355 . S
C886 C888 1.415 . S
C887 C886 1.355 . S
C887 C889 1.419 . S
C888 C886 1.415 . S
C888 C893 1.425 . S
C888 C895 1.409 . S
C889 H881 0.930 . S
C889 C887 1.419 . S
C889 C890 1.362 . S
C890 H882 0.930 . S
C890 C889 1.362 . S
C890 C893 1.409 . S
C891 H883 0.930 . S
C891 C892 1.355 . S
C891 C893 1.415 . S
C892 C891 1.355 . S
C892 C894 1.419 . S
C893 C888 1.425 . S
C893 C890 1.409 . S
C893 C891 1.415 . S
C894 H884 0.930 . S
C894 C892 1.419 . S
C894 C895 1.362 . S
C895 H885 0.930 . S
C895 C888 1.409 . S
C895 C894 1.362 . S
H896 C902 0.930 . S
H897 C905 0.930 . S
H898 C906 0.930 . S
H899 C907 0.930 . S
H900 C910 0.930 . S
H901 C911 0.930 . S
C902 H896 0.930 . S
C902 C903 1.355 . S
C902 C904 1.415 . S
C903 C902 1.355 . S
C903 C905 1.419 . S
C904 C902 1.415 . S
C904 C909 1.425 . S
C904 C911 1.409 . S
C905 H897 0.930 . S
C905 C903 1.419 . S
C905 C906 1.362 . S
C906 H898 0.930 . S
C906 C905 1.362 . S
C906 C909 1.409 . S
C907 H899 0.930 . S
C907 C908 1.355 . S
C907 C909 1.415 . S
C908 C907 1.355 . S
C908 C910 1.419 . S
C909 C904 1.425 . S
C909 C906 1.409 . S
C909 C907 1.415 . S
C910 H900 0.930 . S
C910 C908 1.419 . S
C910 C911 1.362 . S
C911 H901 0.930 . S
C911 C904 1.409 . S
C911 C910 1.362 . S
H912 C918 0.930 . S
H913 C921 0.930 . S
H914 C922 0.930 . S
H915 C923 0.930 . S
H916 C926 0.930 . S
H917 C927 0.930 . S
C918 H912 0.930 . S
C918 C919 1.355 . S
C918 C920 1.415 . S
C919 C918 1.355 . S
C919 C921 1.419 . S
C920 C918 1.415 . S
C920 C925 1.425 . S
C920 C927 1.409 . S
C921 H913 0.930 . S
C921 C919 1.419 . S
C921 C922 1.362 . S
C922 H914 0.930 . S
C922 C921 1.362 . S
C922 C925 1.409 . S
C923 H915 0.930 . S
C923 C924 1.355 . S
C923 C925 1.415 . S
C924 C923 1.355 . S
C924 C926 1.419 . S
C925 C920 1.425 . S
C925 C922 1.409 . S
C925 C923 1.415 . S
C926 H916 0.930 . S
C926 C924 1.419 . S
C926 C927 1.362 . S
C927 H917 0.930 . S
C927 C920 1.409 . S
C927 C926 1.362 . S
H928 C934 0.930 . S
H929 C937 0.930 . S
H930 C938 0.930 . S
H931 C939 0.930 . S
H932 C942 0.930 . S
H933 C943 0.930 . S
C934 H928 0.930 . S
C934 C935 1.355 . S
C934 C936 1.415 . S
C935 C934 1.355 . S
C935 C937 1.419 . S
C936 C934 1.415 . S
C936 C941 1.425 . S
C936 C943 1.409 . S
C937 H929 0.930 . S
C937 C935 1.419 . S
C937 C938 1.362 . S
C938 H930 0.930 . S
C938 C937 1.362 . S
C938 C941 1.409 . S
C939 H931 0.930 . S
C939 C940 1.355 . S
C939 C941 1.415 . S
C940 C939 1.355 . S
C940 C942 1.419 . S
C941 C936 1.425 . S
C941 C938 1.409 . S
C941 C939 1.415 . S
C942 H932 0.930 . S
C942 C940 1.419 . S
C942 C943 1.362 . S
C943 H933 0.930 . S
C943 C936 1.409 . S
C943 C942 1.362 . S
H944 C950 0.930 . S
H945 C953 0.930 . S
H946 C954 0.930 . S
H947 C955 0.930 . S
H948 C958 0.930 . S
H949 C959 0.930 . S
C950 H944 0.930 . S
C950 C951 1.355 . S
C950 C952 1.415 . S
C951 C950 1.355 . S
C951 C953 1.419 . S
C952 C950 1.415 . S
C952 C957 1.425 . S
C952 C959 1.409 . S
C953 H945 0.930 . S
C953 C951 1.419 . S
C953 C954 1.362 . S
C954 H946 0.930 . S
C954 C953 1.362 . S
C954 C957 1.409 . S
C955 H947 0.930 . S
C955 C956 1.355 . S
C955 C957 1.415 . S
C956 C955 1.355 . S
C956 C958 1.419 . S
C957 C952 1.425 . S
C957 C954 1.409 . S
C957 C955 1.415 . S
C958 H948 0.930 . S
C958 C956 1.419 . S
C958 C959 1.362 . S
C959 H949 0.930 . S
C959 C952 1.409 . S
C959 C958 1.362 . S
H960 C966 0.930 . S
H961 C969 0.930 . S
H962 C970 0.930 . S
H963 C971 0.930 . S
H964 C974 0.930 . S
H965 C975 0.930 . S
C966 H960 0.930 . S
C966 C967 1.355 . S
C966 C968 1.415 . S
C967 C966 1.355 . S
C967 C969 1.419 . S
C968 C966 1.415 . S
C968 C973 1.425 . S
C968 C975 1.409 . S
C969 H961 0.930 . S
C969 C967 1.419 . S
C969 C970 1.362 . S
C970 H962 0.930 . S
C970 C969 1.362 . S
C970 C973 1.409 . S
C971 H963 0.930 . S
C971 C972 1.355 . S
C971 C973 1.415 . S
C972 C971 1.355 . S
C972 C974 1.419 . S
C973 C968 1.425 . S
C973 C970 1.409 . S
C973 C971 1.415 . S
C974 H964 0.930 . S
C974 C972 1.419 . S
C974 C975 1.362 . S
C975 H965 0.930 . S
C975 C968 1.409 . S
C975 C974 1.362 . S
H976 C982 0.930 . S
H977 C985 0.930 . S
H978 C986 0.930 . S
H979 C987 0.930 . S
H980 C990 0.930 . S
H981 C991 0.930 . S
C982 H976 0.930 . S
C982 C983 1.355 . S
C982 C984 1.415 . S
C983 C982 1.355 . S
C983 C985 1.419 . S
C984 C982 1.415 . S
C984 C989 1.425 . S
C984 C991 1.409 . S
C985 H977 0.930 . S
C985 C983 1.419 . S
C985 C986 1.362 . S
C986 H978 0.930 . S
C986 C985 1.362 . S
C986 C989 1.409 . S
C987 H979 0.930 . S
C987 C988 1.355 . S
C987 C989 1.415 . S
C988 C987 1.355 . S
C988 C990 1.419 . S
C989 C984 1.425 . S
C989 C986 1.409 . S
C989 C987 1.415 . S
C990 H980 0.930 . S
C990 C988 1.419 . S
C990 C991 1.362 . S
C991 H981 0.930 . S
C991 C984 1.409 . S
C991 C990 1.362 . S
H992 C998 0.930 . S
H993 C1001 0.930 . S
H994 C1002 0.930 . S
H995 C1003 0.930 . S
H996 C1006 0.930 . S
H997 C1007 0.930 . S
C998 H992 0.930 . S
C998 C999 1.355 . S
C998 C1000 1.415 . S
C999 C998 1.355 . S
C999 C1001 1.419 . S
C1000 C998 1.415 . S
C1000 C1005 1.425 . S
C1000 C1007 1.409 . S
C1001 H993 0.930 . S
C1001 C999 1.419 . S
C1001 C1002 1.362 . S
C1002 H994 0.930 . S
C1002 C1001 1.362 . S
C1002 C1005 1.409 . S
C1003 H995 0.930 . S
C1003 C1004 1.355 . S
C1003 C1005 1.415 . S
C1004 C1003 1.355 . S
C1004 C1006 1.419 . S
C1005 C1000 1.425 . S
C1005 C1002 1.409 . S
C1005 C1003 1.415 . S
C1006 H996 0.930 . S
C1006 C1004 1.419 . S
C1006 C1007 1.362 . S
C1007 H997 0.930 . S
C1007 C1000 1.409 . S
C1007 C1006 1.362 . S
H1008 C1014 0.930 . S
H1009 C1017 0.930 . S
H1010 C1018 0.930 . S
H1011 C1019 0.930 . S
H1012 C1022 0.930 . S
H1013 C1023 0.930 . S
C1014 H1008 0.930 . S
C1014 C1015 1.355 . S
C1014 C1016 1.415 . S
C1015 C1014 1.355 . S
C1015 C1017 1.419 . S
C1016 C1014 1.415 . S
C1016 C1021 1.425 . S
C1016 C1023 1.409 . S
C1017 H1009 0.930 . S
C1017 C1015 1.419 . S
C1017 C1018 1.362 . S
C1018 H1010 0.930 . S
C1018 C1017 1.362 . S
C1018 C1021 1.409 . S
C1019 H1011 0.930 . S
C1019 C1020 1.355 . S
C1019 C1021 1.415 . S
C1020 C1019 1.355 . S
C1020 C1022 1.419 . S
C1021 C1016 1.425 . S
C1021 C1018 1.409 . S
C1021 C1019 1.415 . S
C1022 H1012 0.930 . S
C1022 C1020 1.419 . S
C1022 C1023 1.362 . S
C1023 H1013 0.930 . S
C1023 C1016 1.409 . S
C1023 C1022 1.362 . S
H1024 C1030 0.930 . S
H1025 C1033 0.930 . S
H1026 C1034 0.930 . S
H1027 C1035 0.930 . S
H1028 C1038 0.930 . S
H1029 C1039 0.930 . S
C1030 H1024 0.930 . S
C1030 C1031 1.355 . S
C1030 C1032 1.415 . S
C1031 C1030 1.355 . S
C1031 C1033 1.419 . S
C1032 C1030 1.415 . S
C1032 C1037 1.425 . S
C1032 C1039 1.409 . S
C1033 H1025 0.930 . S
C1033 C1031 1.419 . S
C1033 C1034 1.362 . S
C1034 H1026 0.930 . S
C1034 C1033 1.362 . S
C1034 C1037 1.409 . S
C1035 H1027 0.930 . S
C1035 C1036 1.355 . S
C1035 C1037 1.415 . S
C1036 C1035 1.355 . S
C1036 C1038 1.419 . S
C1037 C1032 1.425 . S
C1037 C1034 1.409 . S
C1037 C1035 1.415 . S
C1038 H1028 0.930 . S
C1038 C1036 1.419 . S
C1038 C1039 1.362 . S
C1039 H1029 0.930 . S
C1039 C1032 1.409 . S
C1039 C1038 1.362 . S
H1040 C1046 0.930 . S
H1041 C1049 0.930 . S
H1042 C1050 0.930 . S
H1043 C1051 0.930 . S
H1044 C1054 0.930 . S
H1045 C1055 0.930 . S
C1046 H1040 0.930 . S
C1046 C1047 1.355 . S
C1046 C1048 1.415 . S
C1047 C1046 1.355 . S
C1047 C1049 1.419 . S
C1048 C1046 1.415 . S
C1048 C1053 1.425 . S
C1048 C1055 1.409 . S
C1049 H1041 0.930 . S
C1049 C1047 1.419 . S
C1049 C1050 1.362 . S
C1050 H1042 0.930 . S
C1050 C1049 1.362 . S
C1050 C1053 1.409 . S
C1051 H1043 0.930 . S
C1051 C1052 1.355 . S
C1051 C1053 1.415 . S
C1052 C1051 1.355 . S
C1052 C1054 1.419 . S
C1053 C1048 1.425 . S
C1053 C1050 1.409 . S
C1053 C1051 1.415 . S
C1054 H1044 0.930 . S
C1054 C1052 1.419 . S
C1054 C1055 1.362 . S
C1055 H1045 0.930 . S
C1055 C1048 1.409 . S
C1055 C1054 1.362 . S
H1056 C1062 0.930 . S
H1057 C1065 0.930 . S
H1058 C1066 0.930 . S
H1059 C1067 0.930 . S
H1060 C1070 0.930 . S
H1061 C1071 0.930 . S
C1062 H1056 0.930 . S
C1062 C1063 1.355 . S
C1062 C1064 1.415 . S
C1063 C1062 1.355 . S
C1063 C1065 1.419 . S
C1064 C1062 1.415 . S
C1064 C1069 1.425 . S
C1064 C1071 1.409 . S
C1065 H1057 0.930 . S
C1065 C1063 1.419 . S
C1065 C1066 1.362 . S
C1066 H1058 0.930 . S
C1066 C1065 1.362 . S
C1066 C1069 1.409 . S
C1067 H1059 0.930 . S
C1067 C1068 1.355 . S
C1067 C1069 1.415 . S
C1068 C1067 1.355 . S
C1068 C1070 1.419 . S
C1069 C1064 1.425 . S
C1069 C1066 1.409 . S
C1069 C1067 1.415 . S
C1070 H1060 0.930 . S
C1070 C1068 1.419 . S
C1070 C1071 1.362 . S
C1071 H1061 0.930 . S
C1071 C1064 1.409 . S
C1071 C1070 1.362 . S
H1072 C1078 0.930 . S
H1073 C1081 0.930 . S
H1074 C1082 0.930 . S
H1075 C1083 0.930 . S
H1076 C1086 0.930 . S
H1077 C1087 0.930 . S
C1078 H1072 0.930 . S
C1078 C1079 1.355 . S
C1078 C1080 1.415 . S
C1079 C1078 1.355 . S
C1079 C1081 1.419 . S
C1080 C1078 1.415 . S
C1080 C1085 1.425 . S
C1080 C1087 1.409 . S
C1081 H1073 0.930 . S
C1081 C1079 1.419 . S
C1081 C1082 1.362 . S
C1082 H1074 0.930 . S
C1082 C1081 1.362 . S
C1082 C1085 1.409 . S
C1083 H1075 0.930 . S
C1083 C1084 1.355 . S
C1083 C1085 1.415 . S
C1084 C1083 1.355 . S
C1084 C1086 1.419 . S
C1085 C1080 1.425 . S
C1085 C1082 1.409 . S
C1085 C1083 1.415 . S
C1086 H1076 0.930 . S
C1086 C1084 1.419 . S
C1086 C1087 1.362 . S
C1087 H1077 0.930 . S
C1087 C1080 1.409 . S
C1087 C1086 1.362 . S
H1088 C1094 0.930 . S
H1089 C1097 0.930 . S
H1090 C1098 0.930 . S
H1091 C1099 0.930 . S
H1092 C1102 0.930 . S
H1093 C1103 0.930 . S
C1094 H1088 0.930 . S
C1094 C1095 1.355 . S
C1094 C1096 1.415 . S
C1095 C1094 1.355 . S
C1095 C1097 1.419 . S
C1096 C1094 1.415 . S
C1096 C1101 1.425 . S
C1096 C1103 1.409 . S
C1097 H1089 0.930 . S
C1097 C1095 1.419 . S
C1097 C1098 1.362 . S
C1098 H1090 0.930 . S
C1098 C1097 1.362 . S
C1098 C1101 1.409 . S
C1099 H1091 0.930 . S
C1099 C1100 1.355 . S
C1099 C1101 1.415 . S
C1100 C1099 1.355 . S
C1100 C1102 1.419 . S
C1101 C1096 1.425 . S
C1101 C1098 1.409 . S
C1101 C1099 1.415 . S
C1102 H1092 0.930 . S
C1102 C1100 1.419 . S
C1102 C1103 1.362 . S
C1103 H1093 0.930 . S
C1103 C1096 1.409 . S
C1103 C1102 1.362 . S
H1104 C1110 0.930 . S
H1105 C1113 0.930 . S
H1106 C1114 0.930 . S
H1107 C1115 0.930 . S
H1108 C1118 0.930 . S
H1109 C1119 0.930 . S
C1110 H1104 0.930 . S
C1110 C1111 1.355 . S
C1110 C1112 1.415 . S
C1111 C1110 1.355 . S
C1111 C1113 1.419 . S
C1112 C1110 1.415 . S
C1112 C1117 1.425 . S
C1112 C1119 1.409 . S
C1113 H1105 0.930 . S
C1113 C1111 1.419 . S
C1113 C1114 1.362 . S
C1114 H1106 0.930 . S
C1114 C1113 1.362 . S
C1114 C1117 1.409 . S
C1115 H1107 0.930 . S
C1115 C1116 1.355 . S
C1115 C1117 1.415 . S
C1116 C1115 1.355 . S
C1116 C1118 1.419 . S
C1117 C1112 1.425 . S
C1117 C1114 1.409 . S
C1117 C1115 1.415 . S
C1118 H1108 0.930 . S
C1118 C1116 1.419 . S
C1118 C1119 1.362 . S
C1119 H1109 0.930 . S
C1119 C1112 1.409 . S
C1119 C1118 1.362 . S
H1120 C1126 0.930 . S
H1121 C1129 0.930 . S
H1122 C1130 0.930 . S
H1123 C1131 0.930 . S
H1124 C1134 0.930 . S
H1125 C1135 0.930 . S
C1126 H1120 0.930 . S
C1126 C1127 1.355 . S
C1126 C1128 1.415 . S
C1127 C1126 1.355 . S
C1127 C1129 1.419 . S
C1128 C1126 1.415 . S
C1128 C1133 1.425 . S
C1128 C1135 1.409 . S
C1129 H1121 0.930 . S
C1129 C1127 1.419 . S
C1129 C1130 1.362 . S
C1130 H1122 0.930 . S
C1130 C1129 1.362 . S
C1130 C1133 1.409 . S
C1131 H1123 0.930 . S
C1131 C1132 1.355 . S
C1131 C1133 1.415 . S
C1132 C1131 1.355 . S
C1132 C1134 1.419 . S
C1133 C1128 1.425 . S
C1133 C1130 1.409 . S
C1133 C1131 1.415 . S
C1134 H1124 0.930 . S
C1134 C1132 1.419 . S
C1134 C1135 1.362 . S
C1135 H1125 0.930 . S
C1135 C1128 1.409 . S
C1135 C1134 1.362 . S
H1136 C1142 0.930 . S
H1137 C1145 0.930 . S
H1138 C1146 0.930 . S
H1139 C1147 0.930 . S
H1140 C1150 0.930 . S
H1141 C1151 0.930 . S
C1142 H1136 0.930 . S
C1142 C1143 1.355 . S
C1142 C1144 1.415 . S
C1143 C1142 1.355 . S
C1143 C1145 1.419 . S
C1144 C1142 1.415 . S
C1144 C1149 1.425 . S
C1144 C1151 1.409 . S
C1145 H1137 0.930 . S
C1145 C1143 1.419 . S
C1145 C1146 1.362 . S
C1146 H1138 0.930 . S
C1146 C1145 1.362 . S
C1146 C1149 1.409 . S
C1147 H1139 0.930 . S
C1147 C1148 1.355 . S
C1147 C1149 1.415 . S
C1148 C1147 1.355 . S
C1148 C1150 1.419 . S
C1149 C1144 1.425 . S
C1149 C1146 1.409 . S
C1149 C1147 1.415 . S
C1150 H1140 0.930 . S
C1150 C1148 1.419 . S
C1150 C1151 1.362 . S
C1151 H1141 0.930 . S
C1151 C1144 1.409 . S
C1151 C1150 1.362 . S
H1152 C1158 0.930 . S
H1153 C1161 0.930 . S
H1154 C1162 0.930 . S
H1155 C1163 0.930 . S
H1156 C1166 0.930 . S
H1157 C1167 0.930 . S
C1158 H1152 0.930 . S
C1158 C1159 1.355 . S
C1158 C1160 1.415 . S
C1159 C1158 1.355 . S
C1159 C1161 1.419 . S
C1160 C1158 1.415 . S
C1160 C1165 1.425 . S
C1160 C1167 1.409 . S
C1161 H1153 0.930 . S
C1161 C1159 1.419 . S
C1161 C1162 1.362 . S
C1162 H1154 0.930 . S
C1162 C1161 1.362 . S
C1162 C1165 1.409 . S
C1163 H1155 0.930 . S
C1163 C1164 1.355 . S
C1163 C1165 1.415 . S
C1164 C1163 1.355 . S
C1164 C1166 1.419 . S
C1165 C1160 1.425 . S
C1165 C1162 1.409 . S
C1165 C1163 1.415 . S
C1166 H1156 0.930 . S
C1166 C1164 1.419 . S
C1166 C1167 1.362 . S
C1167 H1157 0.930 . S
C1167 C1160 1.409 . S
C1167 C1166 1.362 . S
H1168 C1174 0.930 . S
H1169 C1177 0.930 . S
H1170 C1178 0.930 . S
H1171 C1179 0.930 . S
H1172 C1182 0.930 . S
H1173 C1183 0.930 . S
C1174 H1168 0.930 . S
C1174 C1175 1.355 . S
C1174 C1176 1.415 . S
C1175 C1174 1.355 . S
C1175 C1177 1.419 . S
C1176 C1174 1.415 . S
C1176 C1181 1.425 . S
C1176 C1183 1.409 . S
C1177 H1169 0.930 . S
C1177 C1175 1.419 . S
C1177 C1178 1.362 . S
C1178 H1170 0.930 . S
C1178 C1177 1.362 . S
C1178 C1181 1.409 . S
C1179 H1171 0.930 . S
C1179 C1180 1.355 . S
C1179 C1181 1.415 . S
C1180 C1179 1.355 . S
C1180 C1182 1.419 . S
C1181 C1176 1.425 . S
C1181 C1178 1.409 . S
C1181 C1179 1.415 . S
C1182 H1172 0.930 . S
C1182 C1180 1.419 . S
C1182 C1183 1.362 . S
C1183 H1173 0.930 . S
C1183 C1176 1.409 . S
C1183 C1182 1.362 . S
H1184 C1190 0.930 . S
H1185 C1193 0.930 . S
H1186 C1194 0.930 . S
H1187 C1195 0.930 . S
H1188 C1198 0.930 . S
H1189 C1199 0.930 . S
C1190 H1184 0.930 . S
C1190 C1191 1.355 . S
C1190 C1192 1.415 . S
C1191 C1190 1.355 . S
C1191 C1193 1.419 . S
C1192 C1190 1.415 . S
C1192 C1197 1.425 . S
C1192 C1199 1.409 . S
C1193 H1185 0.930 . S
C1193 C1191 1.419 . S
C1193 C1194 1.362 . S
C1194 H1186 0.930 . S
C1194 C1193 1.362 . S
C1194 C1197 1.409 . S
C1195 H1187 0.930 . S
C1195 C1196 1.355 . S
C1195 C1197 1.415 . S
C1196 C1195 1.355 . S
C1196 C1198 1.419 . S
C1197 C1192 1.425 . S
C1197 C1194 1.409 . S
C1197 C1195 1.415 . S
C1198 H1188 0.930 . S
C1198 C1196 1.419 . S
C1198 C1199 1.362 . S
C1199 H1189 0.930 . S
C1199 C1192 1.409 . S
C1199 C1198 1.362 . S
H1200 C1206 0.930 . S
H1201 C1209 0.930 . S
H1202 C1210 0.930 . S
H1203 C1211 0.930 . S
H1204 C1214 0.930 . S
H1205 C1215 0.930 . S
C1206 H1200 0.930 . S
C1206 C1207 1.355 . S
C1206 C1208 1.415 . S
C1207 C1206 1.355 . S
C1207 C1209 1.419 . S
C1208 C1206 1.415 . S
C1208 C1213 1.425 . S
C1208 C1215 1.409 . S
C1209 H1201 0.930 . S
C1209 C1207 1.419 . S
C1209 C1210 1.362 . S
C1210 H1202 0.930 . S
C1210 C1209 1.362 . S
C1210 C1213 1.409 . S
C1211 H1203 0.930 . S
C1211 C1212 1.355 . S
C1211 C1213 1.415 . S
C1212 C1211 1.355 . S
C1212 C1214 1.419 . S
C1213 C1208 1.425 . S
C1213 C1210 1.409 . S
C1213 C1211 1.415 . S
C1214 H1204 0.930 . S
C1214 C1212 1.419 . S
C1214 C1215 1.362 . S
C1215 H1205 0.930 . S
C1215 C1208 1.409 . S
C1215 C1214 1.362 . S
H1216 C1222 0.930 . S
H1217 C1225 0.930 . S
H1218 C1226 0.930 . S
H1219 C1227 0.930 . S
H1220 C1230 0.930 . S
H1221 C1231 0.930 . S
C1222 H1216 0.930 . S
C1222 C1223 1.355 . S
C1222 C1224 1.415 . S
C1223 C1222 1.355 . S
C1223 C1225 1.419 . S
C1224 C1222 1.415 . S
C1224 C1229 1.425 . S
C1224 C1231 1.409 . S
C1225 H1217 0.930 . S
C1225 C1223 1.419 . S
C1225 C1226 1.362 . S
C1226 H1218 0.930 . S
C1226 C1225 1.362 . S
C1226 C1229 1.409 . S
C1227 H1219 0.930 . S
C1227 C1228 1.355 . S
C1227 C1229 1.415 . S
C1228 C1227 1.355 . S
C1228 C1230 1.419 . S
C1229 C1224 1.425 . S
C1229 C1226 1.409 . S
C1229 C1227 1.415 . S
C1230 H1220 0.930 . S
C1230 C1228 1.419 . S
C1230 C1231 1.362 . S
C1231 H1221 0.930 . S
C1231 C1224 1.409 . S
C1231 C1230 1.362 . S
H1232 C1238 0.930 . S
H1233 C1241 0.930 . S
H1234 C1242 0.930 . S
H1235 C1243 0.930 . S
H1236 C1246 0.930 . S
H1237 C1247 0.930 . S
C1238 H1232 0.930 . S
C1238 C1239 1.355 . S
C1238 C1240 1.415 . S
C1239 C1238 1.355 . S
C1239 C1241 1.419 . S
C1240 C1238 1.415 . S
C1240 C1245 1.425 . S
C1240 C1247 1.409 . S
C1241 H1233 0.930 . S
C1241 C1239 1.419 . S
C1241 C1242 1.362 . S
C1242 H1234 0.930 . S
C1242 C1241 1.362 . S
C1242 C1245 1.409 . S
C1243 H1235 0.930 . S
C1243 C1244 1.355 . S
C1243 C1245 1.415 . S
C1244 C1243 1.355 . S
C1244 C1246 1.419 . S
C1245 C1240 1.425 . S
C1245 C1242 1.409 . S
C1245 C1243 1.415 . S
C1246 H1236 0.930 . S
C1246 C1244 1.419 . S
C1246 C1247 1.362 . S
C1247 H1237 0.930 . S
C1247 C1240 1.409 . S
C1247 C1246 1.362 . S
H1248 C1254 0.930 . S
H1249 C1257 0.930 . S
H1250 C1258 0.930 . S
H1251 C1259 0.930 . S
H1252 C1262 0.930 . S
H1253 C1263 0.930 . S
C1254 H1248 0.930 . S
C1254 C1255 1.355 . S
C1254 C1256 1.415 . S
C1255 C1254 1.355 . S
C1255 C1257 1.419 . S
C1256 C1254 1.415 . S
C1256 C1261 1.425 . S
C1256 C1263 1.409 . S
C1257 H1249 0.930 . S
C1257 C1255 1.419 . S
C1257 C1258 1.362 . S
C1258 H1250 0.930 . S
C1258 C1257 1.362 . S
C1258 C1261 1.409 . S
C1259 H1251 0.930 . S
C1259 C1260 1.355 . S
C1259 C1261 1.415 . S
C1260 C1259 1.355 . S
C1260 C1262 1.419 . S
C1261 C1256 1.425 . S
C1261 C1258 1.409 . S
C1261 C1259 1.415 . S
C1262 H1252 0.930 . S
C1262 C1260 1.419 . S
C1262 C1263 1.362 . S
C1263 H1253 0.930 . S
C1263 C1256 1.409 . S
C1263 C1262 1.362 . S
H1264 C1270 0.930 . S
H1265 C1273 0.930 . S
H1266 C1274 0.930 . S
H1267 C1275 0.930 . S
H1268 C1278 0.930 . S
H1269 C1279 0.930 . S
C1270 H1264 0.930 . S
C1270 C1271 1.355 . S
C1270 C1272 1.415 . S
C1271 C1270 1.355 . S
C1271 C1273 1.419 . S
C1272 C1270 1.415 . S
C1272 C1277 1.425 . S
C1272 C1279 1.409 . S
C1273 H1265 0.930 . S
C1273 C1271 1.419 . S
C1273 C1274 1.362 . S
C1274 H1266 0.930 . S
C1274 C1273 1.362 . S
C1274 C1277 1.409 . S
C1275 H1267 0.930 . S
C1275 C1276 1.355 . S
C1275 C1277 1.415 . S
C1276 C1275 1.355 . S
C1276 C1278 1.419 . S
C1277 C1272 1.425 . S
C1277 C1274 1.409 . S
C1277 C1275 1.415 . S
C1278 H1268 0.930 . S
C1278 C1276 1.419 . S
C1278 C1279 1.362 . S
C1279 H1269 0.930 . S
C1279 C1272 1.409 . S
C1279 C1278 1.362 . S
H1280 C1286 0.930 . S
H1281 C1289 0.930 . S
H1282 C1290 0.930 . S
H1283 C1291 0.930 . S
H1284 C1294 0.930 . S
H1285 C1295 0.930 . S
C1286 H1280 0.930 . S
C1286 C1287 1.355 . S
C1286 C1288 1.415 . S
C1287 C1286 1.355 . S
C1287 C1289 1.419 . S
C1288 C1286 1.415 . S
C1288 C1293 1.425 . S
C1288 C1295 1.409 . S
C1289 H1281 0.930 . S
C1289 C1287 1.419 . S
C1289 C1290 1.362 . S
C1290 H1282 0.930 . S
C1290 C1289 1.362 . S
C1290 C1293 1.409 . S
C1291 H1283 0.930 . S
C1291 C1292 1.355 . S
C1291 C1293 1.415 . S
C1292 C1291 1.355 . S
C1292 C1294 1.419 . S
C1293 C1288 1.425 . S
C1293 C1290 1.409 . S
C1293 C1291 1.415 . S
C1294 H1284 0.930 . S
C1294 C1292 1.419 . S
C1294 C1295 1.362 . S
C1295 H1285 0.930 . S
C1295 C1288 1.409 . S
C1295 C1294 1.362 . S
H1296 C1302 0.930 . S
H1297 C1305 0.930 . S
H1298 C1306 0.930 . S
H1299 C1307 0.930 . S
H1300 C1310 0.930 . S
H1301 C1311 0.930 . S
C1302 H1296 0.930 . S
C1302 C1303 1.355 . S
C1302 C1304 1.415 . S
C1303 C1302 1.355 . S
C1303 C1305 1.419 . S
C1304 C1302 1.415 . S
C1304 C1309 1.425 . S
C1304 C1311 1.409 . S
C1305 H1297 0.930 . S
C1305 C1303 1.419 . S
C1305 C1306 1.362 . S
C1306 H1298 0.930 . S
C1306 C1305 1.362 . S
C1306 C1309 1.409 . S
C1307 H1299 0.930 . S
C1307 C1308 1.355 . S
C1307 C1309 1.415 . S
C1308 C1307 1.355 . S
C1308 C1310 1.419 . S
C1309 C1304 1.425 . S
C1309 C1306 1.409 . S
C1309 C1307 1.415 . S
C1310 H1300 0.930 . S
C1310 C1308 1.419 . S
C1310 C1311 1.362 . S
C1311 H1301 0.930 . S
C1311 C1304 1.409 . S
C1311 C1310 1.362 . S
H1312 C1318 0.930 . S
H1313 C1321 0.930 . S
H1314 C1322 0.930 . S
H1315 C1323 0.930 . S
H1316 C1326 0.930 . S
H1317 C1327 0.930 . S
C1318 H1312 0.930 . S
C1318 C1319 1.355 . S
C1318 C1320 1.415 . S
C1319 C1318 1.355 . S
C1319 C1321 1.419 . S
C1320 C1318 1.415 . S
C1320 C1325 1.425 . S
C1320 C1327 1.409 . S
C1321 H1313 0.930 . S
C1321 C1319 1.419 . S
C1321 C1322 1.362 . S
C1322 H1314 0.930 . S
C1322 C1321 1.362 . S
C1322 C1325 1.409 . S
C1323 H1315 0.930 . S
C1323 C1324 1.355 . S
C1323 C1325 1.415 . S
C1324 C1323 1.355 . S
C1324 C1326 1.419 . S
C1325 C1320 1.425 . S
C1325 C1322 1.409 . S
C1325 C1323 1.415 . S
C1326 H1316 0.930 . S
C1326 C1324 1.419 . S
C1326 C1327 1.362 . S
C1327 H1317 0.930 . S
C1327 C1320 1.409 . S
C1327 C1326 1.362 . S
H1328 C1334 0.930 . S
H1329 C1337 0.930 . S
H1330 C1338 0.930 . S
H1331 C1339 0.930 . S
H1332 C1342 0.930 . S
H1333 C1343 0.930 . S
C1334 H1328 0.930 . S
C1334 C1335 1.355 . S
C1334 C1336 1.415 . S
C1335 C1334 1.355 . S
C1335 C1337 1.419 . S
C1336 C1334 1.415 . S
C1336 C1341 1.425 . S
C1336 C1343 1.409 . S
C1337 H1329 0.930 . S
C1337 C1335 1.419 . S
C1337 C1338 1.362 . S
C1338 H1330 0.930 . S
C1338 C1337 1.362 . S
C1338 C1341 1.409 . S
C1339 H1331 0.930 . S
C1339 C1340 1.355 . S
C1339 C1341 1.415 . S
C1340 C1339 1.355 . S
C1340 C1342 1.419 . S
C1341 C1336 1.425 . S
C1341 C1338 1.409 . S
C1341 C1339 1.415 . S
C1342 H1332 0.930 . S
C1342 C1340 1.419 . S
C1342 C1343 1.362 . S
C1343 H1333 0.930 . S
C1343 C1336 1.409 . S
C1343 C1342 1.362 . S
H1344 C1350 0.930 . S
H1345 C1353 0.930 . S
H1346 C1354 0.930 . S
H1347 C1355 0.930 . S
H1348 C1358 0.930 . S
H1349 C1359 0.930 . S
C1350 H1344 0.930 . S
C1350 C1351 1.355 . S
C1350 C1352 1.415 . S
C1351 C1350 1.355 . S
C1351 C1353 1.419 . S
C1352 C1350 1.415 . S
C1352 C1357 1.425 . S
C1352 C1359 1.409 . S
C1353 H1345 0.930 . S
C1353 C1351 1.419 . S
C1353 C1354 1.362 . S
C1354 H1346 0.930 . S
C1354 C1353 1.362 . S
C1354 C1357 1.409 . S
C1355 H1347 0.930 . S
C1355 C1356 1.355 . S
C1355 C1357 1.415 . S
C1356 C1355 1.355 . S
C1356 C1358 1.419 . S
C1357 C1352 1.425 . S
C1357 C1354 1.409 . S
C1357 C1355 1.415 . S
C1358 H1348 0.930 . S
C1358 C1356 1.419 . S
C1358 C1359 1.362 . S
C1359 H1349 0.930 . S
C1359 C1352 1.409 . S
C1359 C1358 1.362 . S
H1360 C1366 0.930 . S
H1361 C1369 0.930 . S
H1362 C1370 0.930 . S
H1363 C1371 0.930 . S
H1364 C1374 0.930 . S
H1365 C1375 0.930 . S
C1366 H1360 0.930 . S
C1366 C1367 1.355 . S
C1366 C1368 1.415 . S
C1367 C1366 1.355 . S
C1367 C1369 1.419 . S
C1368 C1366 1.415 . S
C1368 C1373 1.425 . S
C1368 C1375 1.409 . S
C1369 H1361 0.930 . S
C1369 C1367 1.419 . S
C1369 C1370 1.362 . S
C1370 H1362 0.930 . S
C1370 C1369 1.362 . S
C1370 C1373 1.409 . S
C1371 H1363 0.930 . S
C1371 C1372 1.355 . S
C1371 C1373 1.415 . S
C1372 C1371 1.355 . S
C1372 C1374 1.419 . S
C1373 C1368 1.425 . S
C1373 C1370 1.409 . S
C1373 C1371 1.415 . S
C1374 H1364 0.930 . S
C1374 C1372 1.419 . S
C1374 C1375 1.362 . S
C1375 H1365 0.930 . S
C1375 C1368 1.409 . S
C1375 C1374 1.362 . S
H1376 C1382 0.930 . S
H1377 C1385 0.930 . S
H1378 C1386 0.930 . S
H1379 C1387 0.930 . S
H1380 C1390 0.930 . S
H1381 C1391 0.930 . S
C1382 H1376 0.930 . S
C1382 C1383 1.355 . S
C1382 C1384 1.415 . S
C1383 C1382 1.355 . S
C1383 C1385 1.419 . S
C1384 C1382 1.415 . S
C1384 C1389 1.425 . S
C1384 C1391 1.409 . S
C1385 H1377 0.930 . S
C1385 C1383 1.419 . S
C1385 C1386 1.362 . S
C1386 H1378 0.930 . S
C1386 C1385 1.362 . S
C1386 C1389 1.409 . S
C1387 H1379 0.930 . S
C1387 C1388 1.355 . S
C1387 C1389 1.415 . S
C1388 C1387 1.355 . S
C1388 C1390 1.419 . S
C1389 C1384 1.425 . S
C1389 C1386 1.409 . S
C1389 C1387 1.415 . S
C1390 H1380 0.930 . S
C1390 C1388 1.419 . S
C1390 C1391 1.362 . S
C1391 H1381 0.930 . S
C1391 C1384 1.409 . S
C1391 C1390 1.362 . S
H1392 C1398 0.930 . S
H1393 C1401 0.930 . S
H1394 C1402 0.930 . S
H1395 C1403 0.930 . S
H1396 C1406 0.930 . S
H1397 C1407 0.930 . S
C1398 H1392 0.930 . S
C1398 C1399 1.355 . S
C1398 C1400 1.415 . S
C1399 C1398 1.355 . S
C1399 C1401 1.419 . S
C1400 C1398 1.415 . S
C1400 C1405 1.425 . S
C1400 C1407 1.409 . S
C1401 H1393 0.930 . S
C1401 C1399 1.419 . S
C1401 C1402 1.362 . S
C1402 H1394 0.930 . S
C1402 C1401 1.362 . S
C1402 C1405 1.409 . S
C1403 H1395 0.930 . S
C1403 C1404 1.355 . S
C1403 C1405 1.415 . S
C1404 C1403 1.355 . S
C1404 C1406 1.419 . S
C1405 C1400 1.425 . S
C1405 C1402 1.409 . S
C1405 C1403 1.415 . S
C1406 H1396 0.930 . S
C1406 C1404 1.419 . S
C1406 C1407 1.362 . S
C1407 H1397 0.930 . S
C1407 C1400 1.409 . S
C1407 C1406 1.362 . S
H1408 C1414 0.930 . S
H1409 C1417 0.930 . S
H1410 C1418 0.930 . S
H1411 C1419 0.930 . S
H1412 C1422 0.930 . S
H1413 C1423 0.930 . S
C1414 H1408 0.930 . S
C1414 C1415 1.355 . S
C1414 C1416 1.415 . S
C1415 C1414 1.355 . S
C1415 C1417 1.419 . S
C1416 C1414 1.415 . S
C1416 C1421 1.425 . S
C1416 C1423 1.409 . S
C1417 H1409 0.930 . S
C1417 C1415 1.419 . S
C1417 C1418 1.362 . S
C1418 H1410 0.930 . S
C1418 C1417 1.362 . S
C1418 C1421 1.409 . S
C1419 H1411 0.930 . S
C1419 C1420 1.355 . S
C1419 C1421 1.415 . S
C1420 C1419 1.355 . S
C1420 C1422 1.419 . S
C1421 C1416 1.425 . S
C1421 C1418 1.409 . S
C1421 C1419 1.415 . S
C1422 H1412 0.930 . S
C1422 C1420 1.419 . S
C1422 C1423 1.362 . S
C1423 H1413 0.930 . S
C1423 C1416 1.409 . S
C1423 C1422 1.362 . S
H1424 C1430 0.930 . S
H1425 C1433 0.930 . S
H1426 C1434 0.930 . S
H1427 C1435 0.930 . S
H1428 C1438 0.930 . S
H1429 C1439 0.930 . S
C1430 H1424 0.930 . S
C1430 C1431 1.355 . S
C1430 C1432 1.415 . S
C1431 C1430 1.355 . S
C1431 C1433 1.419 . S
C1432 C1430 1.415 . S
C1432 C1437 1.425 . S
C1432 C1439 1.409 . S
C1433 H1425 0.930 . S
C1433 C1431 1.419 . S
C1433 C1434 1.362 . S
C1434 H1426 0.930 . S
C1434 C1433 1.362 . S
C1434 C1437 1.409 . S
C1435 H1427 0.930 . S
C1435 C1436 1.355 . S
C1435 C1437 1.415 . S
C1436 C1435 1.355 . S
C1436 C1438 1.419 . S
C1437 C1432 1.425 . S
C1437 C1434 1.409 . S
C1437 C1435 1.415 . S
C1438 H1428 0.930 . S
C1438 C1436 1.419 . S
C1438 C1439 1.362 . S
C1439 H1429 0.930 . S
C1439 C1432 1.409 . S
C1439 C1438 1.362 . S
H1440 C1446 0.930 . S
H1441 C1449 0.930 . S
H1442 C1450 0.930 . S
H1443 C1451 0.930 . S
H1444 C1454 0.930 . S
H1445 C1455 0.930 . S
C1446 H1440 0.930 . S
C1446 C1447 1.355 . S
C1446 C1448 1.415 . S
C1447 C1446 1.355 . S
C1447 C1449 1.419 . S
C1448 C1446 1.415 . S
C1448 C1453 1.425 . S
C1448 C1455 1.409 . S
C1449 H1441 0.930 . S
C1449 C1447 1.419 . S
C1449 C1450 1.362 . S
C1450 H1442 0.930 . S
C1450 C1449 1.362 . S
C1450 C1453 1.409 . S
C1451 H1443 0.930 . S
C1451 C1452 1.355 . S
C1451 C1453 1.415 . S
C1452 C1451 1.355 . S
C1452 C1454 1.419 . S
C1453 C1448 1.425 . S
C1453 C1450 1.409 . S
C1453 C1451 1.415 . S
C1454 H1444 0.930 . S
C1454 C1452 1.419 . S
C1454 C1455 1.362 . S
C1455 H1445 0.930 . S
C1455 C1448 1.409 . S
C1455 C1454 1.362 . S
H1456 C1462 0.930 . S
H1457 C1465 0.930 . S
H1458 C1466 0.930 . S
H1459 C1467 0.930 . S
H1460 C1470 0.930 . S
H1461 C1471 0.930 . S
C1462 H1456 0.930 . S
C1462 C1463 1.355 . S
C1462 C1464 1.415 . S
C1463 C1462 1.355 . S
C1463 C1465 1.419 . S
C1464 C1462 1.415 . S
C1464 C1469 1.425 . S
C1464 C1471 1.409 . S
C1465 H1457 0.930 . S
C1465 C1463 1.419 . S
C1465 C1466 1.362 . S
C1466 H1458 0.930 . S
C1466 C1465 1.362 . S
C1466 C1469 1.409 . S
C1467 H1459 0.930 . S
C1467 C1468 1.355 . S
C1467 C1469 1.415 . S
C1468 C1467 1.355 . S
C1468 C1470 1.419 . S
C1469 C1464 1.425 . S
C1469 C1466 1.409 . S
C1469 C1467 1.415 . S
C1470 H1460 0.930 . S
C1470 C1468 1.419 . S
C1470 C1471 1.362 . S
C1471 H1461 0.930 . S
C1471 C1464 1.409 . S
C1471 C1470 1.362 . S
H1472 C1478 0.930 . S
H1473 C1481 0.930 . S
H1474 C1482 0.930 . S
H1475 C1483 0.930 . S
H1476 C1486 0.930 . S
H1477 C1487 0.930 . S
C1478 H1472 0.930 . S
C1478 C1479 1.355 . S
C1478 C1480 1.415 . S
C1479 C1478 1.355 . S
C1479 C1481 1.419 . S
C1480 C1478 1.415 . S
C1480 C1485 1.425 . S
C1480 C1487 1.409 . S
C1481 H1473 0.930 . S
C1481 C1479 1.419 . S
C1481 C1482 1.362 . S
C1482 H1474 0.930 . S
C1482 C1481 1.362 . S
C1482 C1485 1.409 . S
C1483 H1475 0.930 . S
C1483 C1484 1.355 . S
C1483 C1485 1.415 . S
C1484 C1483 1.355 . S
C1484 C1486 1.419 . S
C1485 C1480 1.425 . S
C1485 C1482 1.409 . S
C1485 C1483 1.415 . S
C1486 H1476 0.930 . S
C1486 C1484 1.419 . S
C1486 C1487 1.362 . S
C1487 H1477 0.930 . S
C1487 C1480 1.409 . S
C1487 C1486 1.362 . S
H1488 C1494 0.930 . S
H1489 C1497 0.930 . S
H1490 C1498 0.930 . S
H1491 C1499 0.930 . S
H1492 C1502 0.930 . S
H1493 C1503 0.930 . S
C1494 H1488 0.930 . S
C1494 C1495 1.355 . S
C1494 C1496 1.415 . S
C1495 C1494 1.355 . S
C1495 C1497 1.419 . S
C1496 C1494 1.415 . S
C1496 C1501 1.425 . S
C1496 C1503 1.409 . S
C1497 H1489 0.930 . S
C1497 C1495 1.419 . S
C1497 C1498 1.362 . S
C1498 H1490 0.930 . S
C1498 C1497 1.362 . S
C1498 C1501 1.409 . S
C1499 H1491 0.930 . S
C1499 C1500 1.355 . S
C1499 C1501 1.415 . S
C1500 C1499 1.355 . S
C1500 C1502 1.419 . S
C1501 C1496 1.425 . S
C1501 C1498 1.409 . S
C1501 C1499 1.415 . S
C1502 H1492 0.930 . S
C1502 C1500 1.419 . S
C1502 C1503 1.362 . S
C1503 H1493 0.930 . S
C1503 C1496 1.409 . S
C1503 C1502 1.362 . S
H1504 C1510 0.930 . S
H1505 C1513 0.930 . S
H1506 C1514 0.930 . S
H1507 C1515 0.930 . S
H1508 C1518 0.930 . S
H1509 C1519 0.930 . S
C1510 H1504 0.930 . S
C1510 C1511 1.355 . S
C1510 C1512 1.415 . S
C1511 C1510 1.355 . S
C1511 C1513 1.419 . S
C1512 C1510 1.415 . S
C1512 C1517 1.425 . S
C1512 C1519 1.409 . S
C1513 H1505 0.930 . S
C1513 C1511 1.419 . S
C1513 C1514 1.362 . S
C1514 H1506 0.930 . S
C1514 C1513 1.362 . S
C1514 C1517 1.409 . S
C1515 H1507 0.930 . S
C1515 C1516 1.355 . S
C1515 C1517 1.415 . S
C1516 C1515 1.355 . S
C1516 C1518 1.419 . S
C1517 C1512 1.425 . S
C1517 C1514 1.409 . S
C1517 C1515 1.415 . S
C1518 H1508 0.930 . S
C1518 C1516 1.419 . S
C1518 C1519 1.362 . S
C1519 H1509 0.930 . S
C1519 C1512 1.409 . S
C1519 C1518 1.362 . S
H1520 C1526 0.930 . S
H1521 C1529 0.930 . S
H1522 C1530 0.930 . S
H1523 C1531 0.930 . S
H1524 C1534 0.930 . S
H1525 C1535 0.930 . S
C1526 H1520 0.930 . S
C1526 C1527 1.355 . S
C1526 C1528 1.415 . S
C1527 C1526 1.355 . S
C1527 C1529 1.419 . S
C1528 C1526 1.415 . S
C1528 C1533 1.425 . S
C1528 C1535 1.409 . S
C1529 H1521 0.930 . S
C1529 C1527 1.419 . S
C1529 C1530 1.362 . S
C1530 H1522 0.930 . S
C1530 C1529 1.362 . S
C1530 C1533 1.409 . S
C1531 H1523 0.930 . S
C1531 C1532 1.355 . S
C1531 C1533 1.415 . S
C1532 C1531 1.355 . S
C1532 C1534 1.419 . S
C1533 C1528 1.425 . S
C1533 C1530 1.409 . S
C1533 C1531 1.415 . S
C1534 H1524 0.930 . S
C1534 C1532 1.419 . S
C1534 C1535 1.362 . S
C1535 H1525 0.930 . S
C1535 C1528 1.409 . S
C1535 C1534 1.362 . S
H1536 C1542 0.930 . S
H1537 C1545 0.930 . S
H1538 C1546 0.930 . S
H1539 C1547 0.930 . S
H1540 C1550 0.930 . S
H1541 C1551 0.930 . S
C1542 H1536 0.930 . S
C1542 C1543 1.355 . S
C1542 C1544 1.415 . S
C1543 C1542 1.355 . S
C1543 C1545 1.419 . S
C1544 C1542 1.415 . S
C1544 C1549 1.425 . S
C1544 C1551 1.409 . S
C1545 H1537 0.930 . S
C1545 C1543 1.419 . S
C1545 C1546 1.362 . S
C1546 H1538 0.930 . S
C1546 C1545 1.362 . S
C1546 C1549 1.409 . S
C1547 H1539 0.930 . S
C1547 C1548 1.355 . S
C1547 C1549 1.415 . S
C1548 C1547 1.355 . S
C1548 C1550 1.419 . S
C1549 C1544 1.425 . S
C1549 C1546 1.409 . S
C1549 C1547 1.415 . S
C1550 H1540 0.930 . S
C1550 C1548 1.419 . S
C1550 C1551 1.362 . S
C1551 H1541 0.930 . S
C1551 C1544 1.409 . S
C1551 C1550 1.362 . S
H1552 C1558 0.930 . S
H1553 C1561 0.930 . S
H1554 C1562 0.930 . S
H1555 C1563 0.930 . S
H1556 C1566 0.930 . S
H1557 C1567 0.930 . S
C1558 H1552 0.930 . S
C1558 C1559 1.355 . S
C1558 C1560 1.415 . S
C1559 C1558 1.355 . S
C1559 C1561 1.419 . S
C1560 C1558 1.415 . S
C1560 C1565 1.425 . S
C1560 C1567 1.409 . S
C1561 H1553 0.930 . S
C1561 C1559 1.419 . S
C1561 C1562 1.362 . S
C1562 H1554 0.930 . S
C1562 C1561 1.362 . S
C1562 C1565 1.409 . S
C1563 H1555 0.930 . S
C1563 C1564 1.355 . S
C1563 C1565 1.415 . S
C1564 C1563 1.355 . S
C1564 C1566 1.419 . S
C1565 C1560 1.425 . S
C1565 C1562 1.409 . S
C1565 C1563 1.415 . S
C1566 H1556 0.930 . S
C1566 C1564 1.419 . S
C1566 C1567 1.362 . S
C1567 H1557 0.930 . S
C1567 C1560 1.409 . S
C1567 C1566 1.362 . S
H1568 C1574 0.930 . S
H1569 C1577 0.930 . S
H1570 C1578 0.930 . S
H1571 C1579 0.930 . S
H1572 C1582 0.930 . S
H1573 C1583 0.930 . S
C1574 H1568 0.930 . S
C1574 C1575 1.355 . S
C1574 C1576 1.415 . S
C1575 C1574 1.355 . S
C1575 C1577 1.419 . S
C1576 C1574 1.415 . S
C1576 C1581 1.425 . S
C1576 C1583 1.409 . S
C1577 H1569 0.930 . S
C1577 C1575 1.419 . S
C1577 C1578 1.362 . S
C1578 H1570 0.930 . S
C1578 C1577 1.362 . S
C1578 C1581 1.409 . S
C1579 H1571 0.930 . S
C1579 C1580 1.355 . S
C1579 C1581 1.415 . S
C1580 C1579 1.355 . S
C1580 C1582 1.419 . S
C1581 C1576 1.425 . S
C1581 C1578 1.409 . S
C1581 C1579 1.415 . S
C1582 H1572 0.930 . S
C1582 C1580 1.419 . S
C1582 C1583 1.362 . S
C1583 H1573 0.930 . S
C1583 C1576 1.409 . S
C1583 C1582 1.362 . S
H1584 C1590 0.930 . S
H1585 C1593 0.930 . S
H1586 C1594 0.930 . S
H1587 C1595 0.930 . S
H1588 C1598 0.930 . S
H1589 C1599 0.930 . S
C1590 H1584 0.930 . S
C1590 C1591 1.355 . S
C1590 C1592 1.415 . S
C1591 C1590 1.355 . S
C1591 C1593 1.419 . S
C1592 C1590 1.415 . S
C1592 C1597 1.425 . S
C1592 C1599 1.409 . S
C1593 H1585 0.930 . S
C1593 C1591 1.419 . S
C1593 C1594 1.362 . S
C1594 H1586 0.930 . S
C1594 C1593 1.362 . S
C1594 C1597 1.409 . S
C1595 H1587 0.930 . S
C1595 C1596 1.355 . S
C1595 C1597 1.415 . S
C1596 C1595 1.355 . S
C1596 C1598 1.419 . S
C1597 C1592 1.425 . S
C1597 C1594 1.409 . S
C1597 C1595 1.415 . S
C1598 H1588 0.930 . S
C1598 C1596 1.419 . S
C1598 C1599 1.362 . S
C1599 H1589 0.930 . S
C1599 C1592 1.409 . S
C1599 C1598 1.362 . S
H1600 C1606 0.930 . S
H1601 C1609 0.930 . S
H1602 C1610 0.930 . S
H1603 C1611 0.930 . S
H1604 C1614 0.930 . S
H1605 C1615 0.930 . S
C1606 H1600 0.930 . S
C1606 C1607 1.355 . S
C1606 C1608 1.415 . S
C1607 C1606 1.355 . S
C1607 C1609 1.419 . S
C1608 C1606 1.415 . S
C1608 C1613 1.425 . S
C1608 C1615 1.409 . S
C1609 H1601 0.930 . S
C1609 C1607 1.419 . S
C1609 C1610 1.362 . S
C1610 H1602 0.930 . S
C1610 C1609 1.362 . S
C1610 C1613 1.409 . S
C1611 H1603 0.930 . S
C1611 C1612 1.355 . S
C1611 C1613 1.415 . S
C1612 C1611 1.355 . S
C1612 C1614 1.419 . S
C1613 C1608 1.425 . S
C1613 C1610 1.409 . S
C1613 C1611 1.415 . S
C1614 H1604 0.930 . S
C1614 C1612 1.419 . S
C1614 C1615 1.362 . S
C1615 H1605 0.930 . S
C1615 C1608 1.409 . S
C1615 C1614 1.362 . S
H1616 C1622 0.930 . S
H1617 C1625 0.930 . S
H1618 C1626 0.930 . S
H1619 C1627 0.930 . S
H1620 C1630 0.930 . S
H1621 C1631 0.930 . S
C1622 H1616 0.930 . S
C1622 C1623 1.355 . S
C1622 C1624 1.415 . S
C1623 C1622 1.355 . S
C1623 C1625 1.419 . S
C1624 C1622 1.415 . S
C1624 C1629 1.425 . S
C1624 C1631 1.409 . S
C1625 H1617 0.930 . S
C1625 C1623 1.419 . S
C1625 C1626 1.362 . S
C1626 H1618 0.930 . S
C1626 C1625 1.362 . S
C1626 C1629 1.409 . S
C1627 H1619 0.930 . S
C1627 C1628 1.355 . S
C1627 C1629 1.415 . S
C1628 C1627 1.355 . S
C1628 C1630 1.419 . S
C1629 C1624 1.425 . S
C1629 C1626 1.409 . S
C1629 C1627 1.415 . S
C1630 H1620 0.930 . S
C1630 C1628 1.419 . S
C1630 C1631 1.362 . S
C1631 H1621 0.930 . S
C1631 C1624 1.409 . S
C1631 C1630 1.362 . S
H1632 C1638 0.930 . S
H1633 C1641 0.930 . S
H1634 C1642 0.930 . S
H1635 C1643 0.930 . S
H1636 C1646 0.930 . S
H1637 C1647 0.930 . S
C1638 H1632 0.930 . S
C1638 C1639 1.355 . S
C1638 C1640 1.415 . S
C1639 C1638 1.355 . S
C1639 C1641 1.419 . S
C1640 C1638 1.415 . S
C1640 C1645 1.425 . S
C1640 C1647 1.409 . S
C1641 H1633 0.930 . S
C1641 C1639 1.419 . S
C1641 C1642 1.362 . S
C1642 H1634 0.930 . S
C1642 C1641 1.362 . S
C1642 C1645 1.409 . S
C1643 H1635 0.930 . S
C1643 C1644 1.355 . S
C1643 C1645 1.415 . S
C1644 C1643 1.355 . S
C1644 C1646 1.419 . S
C1645 C1640 1.425 . S
C1645 C1642 1.409 . S
C1645 C1643 1.415 . S
C1646 H1636 0.930 . S
C1646 C1644 1.419 . S
C1646 C1647 1.362 . S
C1647 H1637 0.930 . S
C1647 C1640 1.409 . S
C1647 C1646 1.362 . S
H1648 C1654 0.930 . S
H1649 C1657 0.930 . S
H1650 C1658 0.930 . S
H1651 C1659 0.930 . S
H1652 C1662 0.930 . S
H1653 C1663 0.930 . S
C1654 H1648 0.930 . S
C1654 C1655 1.355 . S
C1654 C1656 1.415 . S
C1655 C1654 1.355 . S
C1655 C1657 1.419 . S
C1656 C1654 1.415 . S
C1656 C1661 1.425 . S
C1656 C1663 1.409 . S
C1657 H1649 0.930 . S
C1657 C1655 1.419 . S
C1657 C1658 1.362 . S
C1658 H1650 0.930 . S
C1658 C1657 1.362 . S
C1658 C1661 1.409 . S
C1659 H1651 0.930 . S
C1659 C1660 1.355 . S
C1659 C1661 1.415 . S
C1660 C1659 1.355 . S
C1660 C1662 1.419 . S
C1661 C1656 1.425 . S
C1661 C1658 1.409 . S
C1661 C1659 1.415 . S
C1662 H1652 0.930 . S
C1662 C1660 1.419 . S
C1662 C1663 1.362 . S
C1663 H1653 0.930 . S
C1663 C1656 1.409 . S
C1663 C1662 1.362 . S
H1664 C1670 0.930 . S
H1665 C1673 0.930 . S
H1666 C1674 0.930 . S
H1667 C1675 0.930 . S
H1668 C1678 0.930 . S
H1669 C1679 0.930 . S
C1670 H1664 0.930 . S
C1670 C1671 1.355 . S
C1670 C1672 1.415 . S
C1671 C1670 1.355 . S
C1671 C1673 1.419 . S
C1672 C1670 1.415 . S
C1672 C1677 1.425 . S
C1672 C1679 1.409 . S
C1673 H1665 0.930 . S
C1673 C1671 1.419 . S
C1673 C1674 1.362 . S
C1674 H1666 0.930 . S
C1674 C1673 1.362 . S
C1674 C1677 1.409 . S
C1675 H1667 0.930 . S
C1675 C1676 1.355 . S
C1675 C1677 1.415 . S
C1676 C1675 1.355 . S
C1676 C1678 1.419 . S
C1677 C1672 1.425 . S
C1677 C1674 1.409 . S
C1677 C1675 1.415 . S
C1678 H1668 0.930 . S
C1678 C1676 1.419 . S
C1678 C1679 1.362 . S
C1679 H1669 0.930 . S
C1679 C1672 1.409 . S
C1679 C1678 1.362 . S
H1680 C1686 0.930 . S
H1681 C1689 0.930 . S
H1682 C1690 0.930 . S
H1683 C1691 0.930 . S
H1684 C1694 0.930 . S
H1685 C1695 0.930 . S
C1686 H1680 0.930 . S
C1686 C1687 1.355 . S
C1686 C1688 1.415 . S
C1687 C1686 1.355 . S
C1687 C1689 1.419 . S
C1688 C1686 1.415 . S
C1688 C1693 1.425 . S
C1688 C1695 1.409 . S
C1689 H1681 0.930 . S
C1689 C1687 1.419 . S
C1689 C1690 1.362 . S
C1690 H1682 0.930 . S
C1690 C1689 1.362 . S
C1690 C1693 1.409 . S
C1691 H1683 0.930 . S
C1691 C1692 1.355 . S
C1691 C1693 1.415 . S
C1692 C1691 1.355 . S
C1692 C1694 1.419 . S
C1693 C1688 1.425 . S
C1693 C1690 1.409 . S
C1693 C1691 1.415 . S
C1694 H1684 0.930 . S
C1694 C1692 1.419 . S
C1694 C1695 1.362 . S
C1695 H1685 0.930 . S
C1695 C1688 1.409 . S
C1695 C1694 1.362 . S
H1696 C1702 0.930 . S
H1697 C1705 0.930 . S
H1698 C1706 0.930 . S
H1699 C1707 0.930 . S
H1700 C1710 0.930 . S
H1701 C1711 0.930 . S
C1702 H1696 0.930 . S
C1702 C1703 1.355 . S
C1702 C1704 1.415 . S
C1703 C1702 1.355 . S
C1703 C1705 1.419 . S
C1704 C1702 1.415 . S
C1704 C1709 1.425 . S
C1704 C1711 1.409 . S
C1705 H1697 0.930 . S
C1705 C1703 1.419 . S
C1705 C1706 1.362 . S
C1706 H1698 0.930 . S
C1706 C1705 1.362 . S
C1706 C1709 1.409 . S
C1707 H1699 0.930 . S
C1707 C1708 1.355 . S
C1707 C1709 1.415 . S
C1708 C1707 1.355 . S
C1708 C1710 1.419 . S
C1709 C1704 1.425 . S
C1709 C1706 1.409 . S
C1709 C1707 1.415 . S
C1710 H1700 0.930 . S
C1710 C1708 1.419 . S
C1710 C1711 1.362 . S
C1711 H1701 0.930 . S
C1711 C1704 1.409 . S
C1711 C1710 1.362 . S
H1712 C1718 0.930 . S
H1713 C1721 0.930 . S
H1714 C1722 0.930 . S
H1715 C1723 0.930 . S
H1716 C1726 0.930 . S
H1717 C1727 0.930 . S
C1718 H1712 0.930 . S
C1718 C1719 1.355 . S
C1718 C1720 1.415 . S
C1719 C1718 1.355 . S
C1719 C1721 1.419 . S
C1720 C1718 1.415 . S
C1720 C1725 1.425 . S
C1720 C1727 1.409 . S
C1721 H1713 0.930 . S
C1721 C1719 1.419 . S
C1721 C1722 1.362 . S
C1722 H1714 0.930 . S
C1722 C1721 1.362 . S
C1722 C1725 1.409 . S
C1723 H1715 0.930 . S
C1723 C1724 1.355 . S
C1723 C1725 1.415 . S
C1724 C1723 1.355 . S
C1724 C1726 1.419 . S
C1725 C1720 1.425 . S
C1725 C1722 1.409 . S
C1725 C1723 1.415 . S
C1726 H1716 0.930 . S
C1726 C1724 1.419 . S
C1726 C1727 1.362 . S
C1727 H1717 0.930 . S
C1727 C1720 1.409 . S
C1727 C1726 1.362 . S
H1728 C1734 0.930 . S
H1729 C1737 0.930 . S
H1730 C1738 0.930 . S
H1731 C1739 0.930 . S
H1732 C1742 0.930 . S
H1733 C1743 0.930 . S
C1734 H1728 0.930 . S
C1734 C1735 1.355 . S
C1734 C1736 1.415 . S
C1735 C1734 1.355 . S
C1735 C1737 1.419 . S
C1736 C1734 1.415 . S
C1736 C1741 1.425 . S
C1736 C1743 1.409 . S
C1737 H1729 0.930 . S
C1737 C1735 1.419 . S
C1737 C1738 1.362 . S
C1738 H1730 0.930 . S
C1738 C1737 1.362 . S
C1738 C1741 1.409 . S
C1739 H1731 0.930 . S
C1739 C1740 1.355 . S
C1739 C1741 1.415 . S
C1740 C1739 1.355 . S
C1740 C1742 1.419 . S
C1741 C1736 1.425 . S
C1741 C1738 1.409 . S
C1741 C1739 1.415 . S
C1742 H1732 0.930 . S
C1742 C1740 1.419 . S
C1742 C1743 1.362 . S
C1743 H1733 0.930 . S
C1743 C1736 1.409 . S
C1743 C1742 1.362 . S
H1744 C1750 0.930 . S
H1745 C1753 0.930 . S
H1746 C1754 0.930 . S
H1747 C1755 0.930 . S
H1748 C1758 0.930 . S
H1749 C1759 0.930 . S
C1750 H1744 0.930 . S
C1750 C1751 1.355 . S
C1750 C1752 1.415 . S
C1751 C1750 1.355 . S
C1751 C1753 1.419 . S
C1752 C1750 1.415 . S
C1752 C1757 1.425 . S
C1752 C1759 1.409 . S
C1753 H1745 0.930 . S
C1753 C1751 1.419 . S
C1753 C1754 1.362 . S
C1754 H1746 0.930 . S
C1754 C1753 1.362 . S
C1754 C1757 1.409 . S
C1755 H1747 0.930 . S
C1755 C1756 1.355 . S
C1755 C1757 1.415 . S
C1756 C1755 1.355 . S
C1756 C1758 1.419 . S
C1757 C1752 1.425 . S
C1757 C1754 1.409 . S
C1757 C1755 1.415 . S
C1758 H1748 0.930 . S
C1758 C1756 1.419 . S
C1758 C1759 1.362 . S
C1759 H1749 0.930 . S
C1759 C1752 1.409 . S
C1759 C1758 1.362 . S
H1760 C1766 0.930 . S
H1761 C1769 0.930 . S
H1762 C1770 0.930 . S
H1763 C1771 0.930 . S
H1764 C1774 0.930 . S
H1765 C1775 0.930 . S
C1766 H1760 0.930 . S
C1766 C1767 1.355 . S
C1766 C1768 1.415 . S
C1767 C1766 1.355 . S
C1767 C1769 1.419 . S
C1768 C1766 1.415 . S
C1768 C1773 1.425 . S
C1768 C1775 1.409 . S
C1769 H1761 0.930 . S
C1769 C1767 1.419 . S
C1769 C1770 1.362 . S
C1770 H1762 0.930 . S
C1770 C1769 1.362 . S
C1770 C1773 1.409 . S
C1771 H1763 0.930 . S
C1771 C1772 1.355 . S
C1771 C1773 1.415 . S
C1772 C1771 1.355 . S
C1772 C1774 1.419 . S
C1773 C1768 1.425 . S
C1773 C1770 1.409 . S
C1773 C1771 1.415 . S
C1774 H1764 0.930 . S
C1774 C1772 1.419 . S
C1774 C1775 1.362 . S
C1775 H1765 0.930 . S
C1775 C1768 1.409 . S
C1775 C1774 1.362 . S
H1776 C1782 0.930 . S
H1777 C1785 0.930 . S
H1778 C1786 0.930 . S
H1779 C1787 0.930 . S
H1780 C1790 0.930 . S
H1781 C1791 0.930 . S
C1782 H1776 0.930 . S
C1782 C1783 1.355 . S
C1782 C1784 1.415 . S
C1783 C1782 1.355 . S
C1783 C1785 1.419 . S
C1784 C1782 1.415 . S
C1784 C1789 1.425 . S
C1784 C1791 1.409 . S
C1785 H1777 0.930 . S
C1785 C1783 1.419 . S
C1785 C1786 1.362 . S
C1786 H1778 0.930 . S
C1786 C1785 1.362 . S
C1786 C1789 1.409 . S
C1787 H1779 0.930 . S
C1787 C1788 1.355 . S
C1787 C1789 1.415 . S
C1788 C1787 1.355 . S
C1788 C1790 1.419 . S
C1789 C1784 1.425 . S
C1789 C1786 1.409 . S
C1789 C1787 1.415 . S
C1790 H1780 0.930 . S
C1790 C1788 1.419 . S
C1790 C1791 1.362 . S
C1791 H1781 0.930 . S
C1791 C1784 1.409 . S
C1791 C1790 1.362 . S
H1792 C1798 0.930 . S
H1793 C1801 0.930 . S
H1794 C1802 0.930 . S
H1795 C1803 0.930 . S
H1796 C1806 0.930 . S
H1797 C1807 0.930 . S
C1798 H1792 0.930 . S
C1798 C1799 1.355 . S
C1798 C1800 1.415 . S
C1799 C1798 1.355 . S
C1799 C1801 1.419 . S
C1800 C1798 1.415 . S
C1800 C1805 1.425 . S
C1800 C1807 1.409 . S
C1801 H1793 0.930 . S
C1801 C1799 1.419 . S
C1801 C1802 1.362 . S
C1802 H1794 0.930 . S
C1802 C1801 1.362 . S
C1802 C1805 1.409 . S
C1803 H1795 0.930 . S
C1803 C1804 1.355 . S
C1803 C1805 1.415 . S
C1804 C1803 1.355 . S
C1804 C1806 1.419 . S
C1805 C1800 1.425 . S
C1805 C1802 1.409 . S
C1805 C1803 1.415 . S
C1806 H1796 0.930 . S
C1806 C1804 1.419 . S
C1806 C1807 1.362 . S
C1807 H1797 0.930 . S
C1807 C1800 1.409 . S
C1807 C1806 1.362 . S
H1808 C1814 0.930 . S
H1809 C1817 0.930 . S
H1810 C1818 0.930 . S
H1811 C1819 0.930 . S
H1812 C1822 0.930 . S
H1813 C1823 0.930 . S
C1814 H1808 0.930 . S
C1814 C1815 1.355 . S
C1814 C1816 1.415 . S
C1815 C1814 1.355 . S
C1815 C1817 1.419 . S
C1816 C1814 1.415 . S
C1816 C1821 1.425 . S
C1816 C1823 1.409 . S
C1817 H1809 0.930 . S
C1817 C1815 1.419 . S
C1817 C1818 1.362 . S
C1818 H1810 0.930 . S
C1818 C1817 1.362 . S
C1818 C1821 1.409 . S
C1819 H1811 0.930 . S
C1819 C1820 1.355 . S
C1819 C1821 1.415 . S
C1820 C1819 1.355 . S
C1820 C1822 1.419 . S
C1821 C1816 1.425 . S
C1821 C1818 1.409 . S
C1821 C1819 1.415 . S
C1822 H1812 0.930 . S
C1822 C1820 1.419 . S
C1822 C1823 1.362 . S
C1823 H1813 0.930 . S
C1823 C1816 1.409 . S
C1823 C1822 1.362 . S
H1824 C1830 0.930 . S
H1825 C1833 0.930 . S
H1826 C1834 0.930 . S
H1827 C1835 0.930 . S
H1828 C1838 0.930 . S
H1829 C1839 0.930 1_554 S
C1830 H1824 0.930 . S
C1830 C1831 1.355 . S
C1830 C1832 1.415 . S
C1831 C1830 1.355 . S
C1831 C1833 1.419 . S
C1832 C1830 1.415 . S
C1832 C1837 1.425 . S
C1832 C1839 1.409 1_554 S
C1833 H1825 0.930 . S
C1833 C1831 1.419 . S
C1833 C1834 1.362 . S
C1834 H1826 0.930 . S
C1834 C1833 1.362 . S
C1834 C1837 1.409 . S
C1835 H1827 0.930 . S
C1835 C1836 1.355 . S
C1835 C1837 1.415 1_556 S
C1836 C1835 1.355 . S
C1836 C1838 1.419 . S
C1837 C1832 1.425 . S
C1837 C1834 1.409 . S
C1837 C1835 1.415 1_554 S
C1838 H1828 0.930 . S
C1838 C1836 1.419 . S
C1838 C1839 1.362 . S
C1839 H1829 0.930 1_556 S
C1839 C1832 1.409 1_556 S
C1839 C1838 1.362 . S
H1840 C1846 0.930 . S
H1841 C1849 0.930 . S
H1842 C1850 0.930 . S
H1843 C1851 0.930 . S
H1844 C1854 0.930 . S
H1845 C1855 0.930 . S
C1846 H1840 0.930 . S
C1846 C1847 1.355 . S
C1846 C1848 1.415 . S
C1847 C1846 1.355 . S
C1847 C1849 1.419 . S
C1848 C1846 1.415 . S
C1848 C1853 1.425 1_556 S
C1848 C1855 1.409 1_556 S
C1849 H1841 0.930 . S
C1849 C1847 1.419 . S
C1849 C1850 1.362 . S
C1850 H1842 0.930 . S
C1850 C1849 1.362 . S
C1850 C1853 1.409 1_556 S
C1851 H1843 0.930 . S
C1851 C1852 1.355 . S
C1851 C1853 1.415 . S
C1852 C1851 1.355 . S
C1852 C1854 1.419 . S
C1853 C1848 1.425 1_554 S
C1853 C1850 1.409 1_554 S
C1853 C1851 1.415 . S
C1854 H1844 0.930 . S
C1854 C1852 1.419 . S
C1854 C1855 1.362 . S
C1855 H1845 0.930 . S
C1855 C1848 1.409 1_554 S
C1855 C1854 1.362 . S
H1856 C1862 0.930 . S
H1857 C1865 0.930 . S
H1858 C1866 0.930 . S
H1859 C1867 0.930 . S
H1860 C1870 0.930 . S
H1861 C1871 0.930 1_554 S
C1862 H1856 0.930 . S
C1862 C1863 1.355 . S
C1862 C1864 1.415 . S
C1863 C1862 1.355 . S
C1863 C1865 1.419 . S
C1864 C1862 1.415 . S
C1864 C1869 1.425 . S
C1864 C1871 1.409 1_554 S
C1865 H1857 0.930 . S
C1865 C1863 1.419 . S
C1865 C1866 1.362 . S
C1866 H1858 0.930 . S
C1866 C1865 1.362 . S
C1866 C1869 1.409 . S
C1867 H1859 0.930 . S
C1867 C1868 1.355 . S
C1867 C1869 1.415 1_556 S
C1868 C1867 1.355 . S
C1868 C1870 1.419 . S
C1869 C1864 1.425 . S
C1869 C1866 1.409 . S
C1869 C1867 1.415 1_554 S
C1870 H1860 0.930 . S
C1870 C1868 1.419 . S
C1870 C1871 1.362 . S
C1871 H1861 0.930 1_556 S
C1871 C1864 1.409 1_556 S
C1871 C1870 1.362 . S
H1872 C1878 0.930 . S
H1873 C1881 0.930 . S
H1874 C1882 0.930 . S
H1875 C1883 0.930 . S
H1876 C1886 0.930 . S
H1877 C1887 0.930 . S
C1878 H1872 0.930 . S
C1878 C1879 1.355 . S
C1878 C1880 1.415 . S
C1879 C1878 1.355 . S
C1879 C1881 1.419 . S
C1880 C1878 1.415 . S
C1880 C1885 1.425 1_554 S
C1880 C1887 1.409 1_554 S
C1881 H1873 0.930 . S
C1881 C1879 1.419 . S
C1881 C1882 1.362 . S
C1882 H1874 0.930 . S
C1882 C1881 1.362 . S
C1882 C1885 1.409 1_554 S
C1883 H1875 0.930 . S
C1883 C1884 1.355 . S
C1883 C1885 1.415 . S
C1884 C1883 1.355 . S
C1884 C1886 1.419 . S
C1885 C1880 1.425 1_556 S
C1885 C1882 1.409 1_556 S
C1885 C1883 1.415 . S
C1886 H1876 0.930 . S
C1886 C1884 1.419 . S
C1886 C1887 1.362 . S
C1887 H1877 0.930 . S
C1887 C1880 1.409 1_556 S
C1887 C1886 1.362 . S
H1888 C1894 0.930 . S
H1889 C1897 0.930 . S
H1890 C1898 0.930 . S
H1891 C1899 0.930 . S
H1892 C1902 0.930 . S
H1893 C1903 0.930 . S
C1894 H1888 0.930 . S
C1894 C1895 1.355 . S
C1894 C1896 1.415 . S
C1895 C1894 1.355 . S
C1895 C1897 1.419 . S
C1896 C1894 1.415 . S
C1896 C1901 1.425 1_556 S
C1896 C1903 1.409 1_556 S
C1897 H1889 0.930 . S
C1897 C1895 1.419 . S
C1897 C1898 1.362 . S
C1898 H1890 0.930 . S
C1898 C1897 1.362 . S
C1898 C1901 1.409 1_556 S
C1899 H1891 0.930 . S
C1899 C1900 1.355 . S
C1899 C1901 1.415 . S
C1900 C1899 1.355 . S
C1900 C1902 1.419 . S
C1901 C1896 1.425 1_554 S
C1901 C1898 1.409 1_554 S
C1901 C1899 1.415 . S
C1902 H1892 0.930 . S
C1902 C1900 1.419 . S
C1902 C1903 1.362 . S
C1903 H1893 0.930 . S
C1903 C1896 1.409 1_554 S
C1903 C1902 1.362 . S
H1904 C1910 0.930 . S
H1905 C1913 0.930 . S
H1906 C1914 0.930 . S
H1907 C1915 0.930 . S
H1908 C1918 0.930 . S
H1909 C1919 0.930 . S
C1910 H1904 0.930 . S
C1910 C1911 1.355 . S
C1910 C1912 1.415 . S
C1911 C1910 1.355 . S
C1911 C1913 1.419 . S
C1912 C1910 1.415 . S
C1912 C1917 1.425 1_554 S
C1912 C1919 1.409 1_554 S
C1913 H1905 0.930 . S
C1913 C1911 1.419 . S
C1913 C1914 1.362 . S
C1914 H1906 0.930 . S
C1914 C1913 1.362 . S
C1914 C1917 1.409 1_554 S
C1915 H1907 0.930 . S
C1915 C1916 1.355 . S
C1915 C1917 1.415 . S
C1916 C1915 1.355 . S
C1916 C1918 1.419 . S
C1917 C1912 1.425 1_556 S
C1917 C1914 1.409 1_556 S
C1917 C1915 1.415 . S
C1918 H1908 0.930 . S
C1918 C1916 1.419 . S
C1918 C1919 1.362 . S
C1919 H1909 0.930 . S
C1919 C1912 1.409 1_556 S
C1919 C1918 1.362 . S
H1920 C1926 0.930 . S
H1921 C1929 0.930 . S
H1922 C1930 0.930 . S
H1923 C1931 0.930 . S
H1924 C1934 0.930 . S
H1925 C1935 0.930 . S
C1926 H1920 0.930 . S
C1926 C1927 1.355 . S
C1926 C1928 1.415 . S
C1927 C1926 1.355 . S
C1927 C1929 1.419 . S
C1928 C1926 1.415 . S
C1928 C1933 1.425 1_556 S
C1928 C1935 1.409 1_556 S
C1929 H1921 0.930 . S
C1929 C1927 1.419 . S
C1929 C1930 1.362 . S
C1930 H1922 0.930 . S
C1930 C1929 1.362 . S
C1930 C1933 1.409 1_556 S
C1931 H1923 0.930 . S
C1931 C1932 1.355 . S
C1931 C1933 1.415 . S
C1932 C1931 1.355 . S
C1932 C1934 1.419 . S
C1933 C1928 1.425 1_554 S
C1933 C1930 1.409 1_554 S
C1933 C1931 1.415 . S
C1934 H1924 0.930 . S
C1934 C1932 1.419 . S
C1934 C1935 1.362 . S
C1935 H1925 0.930 . S
C1935 C1928 1.409 1_554 S
C1935 C1934 1.362 . S
H1936 C1942 0.930 . S
H1937 C1945 0.930 . S
H1938 C1946 0.930 . S
H1939 C1947 0.930 . S
H1940 C1950 0.930 . S
H1941 C1951 0.930 . S
C1942 H1936 0.930 . S
C1942 C1943 1.355 . S
C1942 C1944 1.459 . S
C1943 C1942 1.355 . S
C1943 C1945 1.419 . S
C1944 C1942 1.459 . S
C1944 C1949 1.410 1_554 S
C1944 C1951 1.380 1_554 S
C1945 H1937 0.930 . S
C1945 C1943 1.419 . S
C1945 C1946 1.362 . S
C1946 H1938 0.930 . S
C1946 C1945 1.362 . S
C1946 C1949 1.409 1_554 S
C1947 H1939 0.930 . S
C1947 C1948 1.355 . S
C1947 C1949 1.415 . S
C1948 C1947 1.355 . S
C1948 C1950 1.419 . S
C1949 C1944 1.410 1_556 S
C1949 C1946 1.409 1_556 S
C1949 C1947 1.415 . S
C1950 H1940 0.930 . S
C1950 C1948 1.419 . S
C1950 C1951 1.362 . S
C1951 H1941 0.930 . S
C1951 C1944 1.380 1_556 S
C1951 C1950 1.362 . S
H1952 C1958 0.930 . S
H1953 C1961 0.930 . S
H1954 C1962 0.930 1_655 S
H1955 C1963 0.930 . S
H1956 C1966 0.930 . S
H1957 C1967 0.930 . S
C1958 H1952 0.930 . S
C1958 C1959 1.355 . S
C1958 C1960 1.415 1_455 S
C1959 C1958 1.355 . S
C1959 C1961 1.419 . S
C1960 C1958 1.415 1_655 S
C1960 C1965 1.425 . S
C1960 C1967 1.409 . S
C1961 H1953 0.930 . S
C1961 C1959 1.419 . S
C1961 C1962 1.362 . S
C1962 H1954 0.930 1_455 S
C1962 C1961 1.362 . S
C1962 C1965 1.409 1_455 S
C1963 H1955 0.930 . S
C1963 C1964 1.355 . S
C1963 C1965 1.415 . S
C1964 C1963 1.355 . S
C1964 C1966 1.419 . S
C1965 C1960 1.425 . S
C1965 C1962 1.409 1_655 S
C1965 C1963 1.415 . S
C1966 H1956 0.930 . S
C1966 C1964 1.419 . S
C1966 C1967 1.362 . S
C1967 H1957 0.930 . S
C1967 C1960 1.409 . S
C1967 C1966 1.362 . S
H1968 C1974 0.930 . S
H1969 C1977 0.930 . S
H1970 C1978 0.930 . S
H1971 C1979 0.930 . S
H1972 C1982 0.930 . S
H1973 C1983 0.930 . S
C1974 H1968 0.930 . S
C1974 C1975 1.355 . S
C1974 C1976 1.415 . S
C1975 C1974 1.355 . S
C1975 C1977 1.419 . S
C1976 C1974 1.415 . S
C1976 C1981 1.425 1_565 S
C1976 C1983 1.409 1_565 S
C1977 H1969 0.930 . S
C1977 C1975 1.419 . S
C1977 C1978 1.362 . S
C1978 H1970 0.930 . S
C1978 C1977 1.362 . S
C1978 C1981 1.409 1_565 S
C1979 H1971 0.930 . S
C1979 C1980 1.355 . S
C1979 C1981 1.415 . S
C1980 C1979 1.355 . S
C1980 C1982 1.419 . S
C1981 C1976 1.425 1_545 S
C1981 C1978 1.409 1_545 S
C1981 C1979 1.415 . S
C1982 H1972 0.930 . S
C1982 C1980 1.419 . S
C1982 C1983 1.362 . S
C1983 H1973 0.930 . S
C1983 C1976 1.409 1_545 S
C1983 C1982 1.362 . S
H1984 C1990 0.930 . S
H1985 C1993 0.930 . S
H1986 C1994 0.930 . S
H1987 C1995 0.930 . S
H1988 C1998 0.930 . S
H1989 C1999 0.937 . S
C1990 H1984 0.930 . S
C1990 C1991 1.355 . S
C1990 C1992 1.415 . S
C1991 C1990 1.355 . S
C1991 C1993 1.419 . S
C1992 C1990 1.415 . S
C1992 C1997 1.425 . S
C1992 C1999 1.419 . S
C1993 H1985 0.930 . S
C1993 C1991 1.419 . S
C1993 C1994 1.362 . S
C1994 H1986 0.930 . S
C1994 C1993 1.362 . S
C1994 C1997 1.409 . S
C1995 H1987 0.930 . S
C1995 C1996 1.355 . S
C1995 C1997 1.415 1_655 S
C1996 C1995 1.355 . S
C1996 C1998 1.419 . S
C1997 C1992 1.425 . S
C1997 C1994 1.409 . S
C1997 C1995 1.415 1_455 S
C1998 H1988 0.930 . S
C1998 C1996 1.419 . S
C1998 C1999 1.346 1_655 S
C1999 H1989 0.937 . S
C1999 C1992 1.419 . S
C1999 C1998 1.346 1_455 S
H2000 C2006 0.930 . S
H2001 C2009 0.930 . S
H2002 C2010 0.930 . S
H2003 C2011 0.930 . S
H2004 C2014 0.930 . S
H2005 C2015 0.930 1_565 S
C2006 H2000 0.930 . S
C2006 C2007 1.355 . S
C2006 C2008 1.415 . S
C2007 C2006 1.355 . S
C2007 C2009 1.419 . S
C2008 C2006 1.415 . S
C2008 C2013 1.425 . S
C2008 C2015 1.409 1_565 S
C2009 H2001 0.930 . S
C2009 C2007 1.419 . S
C2009 C2010 1.362 . S
C2010 H2002 0.930 . S
C2010 C2009 1.362 . S
C2010 C2013 1.409 . S
C2011 H2003 0.930 . S
C2011 C2012 1.355 . S
C2011 C2013 1.415 1_545 S
C2012 C2011 1.355 . S
C2012 C2014 1.419 . S
C2013 C2008 1.425 . S
C2013 C2010 1.409 . S
C2013 C2011 1.415 1_565 S
C2014 H2004 0.930 . S
C2014 C2012 1.419 . S
C2014 C2015 1.362 . S
C2015 H2005 0.930 1_545 S
C2015 C2008 1.409 1_545 S
C2015 C2014 1.362 . S
H2016 C2022 0.930 . S
H2017 C2025 0.930 . S
H2018 C2026 0.930 . S
H2019 C2027 0.930 . S
H2020 C2030 0.930 . S
H2021 C2031 0.930 . S
C2022 H2016 0.930 . S
C2022 C2023 1.355 . S
C2022 C2024 1.415 . S
C2023 C2022 1.355 . S
C2023 C2025 1.419 . S
C2024 C2022 1.415 . S
C2024 C2029 1.425 1_655 S
C2024 C2031 1.409 1_655 S
C2025 H2017 0.930 . S
C2025 C2023 1.419 . S
C2025 C2026 1.362 . S
C2026 H2018 0.930 . S
C2026 C2025 1.362 . S
C2026 C2029 1.409 1_655 S
C2027 H2019 0.930 . S
C2027 C2028 1.355 . S
C2027 C2029 1.415 . S
C2028 C2027 1.355 . S
C2028 C2030 1.419 . S
C2029 C2024 1.425 1_455 S
C2029 C2026 1.409 1_455 S
C2029 C2027 1.415 . S
C2030 H2020 0.930 . S
C2030 C2028 1.419 . S
C2030 C2031 1.362 . S
C2031 H2021 0.930 . S
C2031 C2024 1.409 1_455 S
C2031 C2030 1.362 . S
H2032 C2038 0.930 . S
H2033 C2041 0.930 . S
H2034 C2042 0.930 . S
H2035 C2043 0.930 . S
H2036 C2046 0.930 . S
H2037 C2047 0.930 . S
C2038 H2032 0.930 . S
C2038 C2039 1.355 . S
C2038 C2040 1.415 . S
C2039 C2038 1.355 . S
C2039 C2041 1.419 . S
C2040 C2038 1.415 . S
C2040 C2045 1.425 1_545 S
C2040 C2047 1.409 1_545 S
C2041 H2033 0.930 . S
C2041 C2039 1.419 . S
C2041 C2042 1.362 . S
C2042 H2034 0.930 . S
C2042 C2041 1.362 . S
C2042 C2045 1.409 1_545 S
C2043 H2035 0.930 . S
C2043 C2044 1.355 . S
C2043 C2045 1.415 . S
C2044 C2043 1.355 . S
C2044 C2046 1.419 . S
C2045 C2040 1.425 1_565 S
C2045 C2042 1.409 1_565 S
C2045 C2043 1.415 . S
C2046 H2036 0.930 . S
C2046 C2044 1.419 . S
C2046 C2047 1.362 . S
C2047 H2037 0.930 . S
C2047 C2040 1.409 1_565 S
C2047 C2046 1.362 . S
H2048 C2054 0.930 . S
H2049 C2057 0.930 . S
H2050 C2058 0.930 . S
H2051 C2059 0.930 . S
H2052 C2062 0.930 . S
H2053 C2063 0.930 1_455 S
C2054 H2048 0.930 . S
C2054 C2055 1.355 . S
C2054 C2056 1.415 . S
C2055 C2054 1.355 . S
C2055 C2057 1.419 . S
C2056 C2054 1.415 . S
C2056 C2061 1.425 . S
C2056 C2063 1.409 1_455 S
C2057 H2049 0.930 . S
C2057 C2055 1.419 . S
C2057 C2058 1.362 . S
C2058 H2050 0.930 . S
C2058 C2057 1.362 . S
C2058 C2061 1.409 . S
C2059 H2051 0.930 . S
C2059 C2060 1.355 . S
C2059 C2061 1.415 1_655 S
C2060 C2059 1.355 . S
C2060 C2062 1.419 . S
C2061 C2056 1.425 . S
C2061 C2058 1.409 . S
C2061 C2059 1.415 1_455 S
C2062 H2052 0.930 . S
C2062 C2060 1.419 . S
C2062 C2063 1.362 . S
C2063 H2053 0.930 1_655 S
C2063 C2056 1.409 1_655 S
C2063 C2062 1.362 . S
H2064 C2070 0.930 . S
H2065 C2073 0.930 . S
H2066 C2074 0.930 . S
H2067 C2075 0.930 . S
H2068 C2078 0.930 . S
H2069 C2079 0.930 . S
C2070 H2064 0.930 . S
C2070 C2071 1.355 . S
C2070 C2072 1.415 . S
C2071 C2070 1.355 . S
C2071 C2073 1.419 . S
C2072 C2070 1.415 . S
C2072 C2077 1.425 1_545 S
C2072 C2079 1.409 1_545 S
C2073 H2065 0.930 . S
C2073 C2071 1.419 . S
C2073 C2074 1.362 . S
C2074 H2066 0.930 . S
C2074 C2073 1.362 . S
C2074 C2077 1.409 1_545 S
C2075 H2067 0.930 . S
C2075 C2076 1.355 . S
C2075 C2077 1.415 . S
C2076 C2075 1.355 . S
C2076 C2078 1.419 . S
C2077 C2072 1.425 1_565 S
C2077 C2074 1.409 1_565 S
C2077 C2075 1.415 . S
C2078 H2068 0.930 . S
C2078 C2076 1.419 . S
C2078 C2079 1.362 . S
C2079 H2069 0.930 . S
C2079 C2072 1.409 1_565 S
C2079 C2078 1.362 . S
H2080 C2086 0.930 . S
H2081 C2089 0.930 . S
H2082 C2090 0.930 . S
H2083 C2091 0.930 . S
H2084 C2094 0.930 . S
H2085 C2095 0.930 . S
C2086 H2080 0.930 . S
C2086 C2087 1.355 . S
C2086 C2088 1.415 1_545 S
C2087 C2086 1.355 . S
C2087 C2089 1.419 . S
C2088 C2086 1.415 1_565 S
C2088 C2093 1.425 . S
C2088 C2095 1.409 . S
C2089 H2081 0.930 . S
C2089 C2087 1.419 . S
C2089 C2090 1.362 . S
C2090 H2082 0.930 . S
C2090 C2089 1.362 . S
C2090 C2093 1.409 1_545 S
C2091 H2083 0.930 . S
C2091 C2092 1.355 . S
C2091 C2093 1.415 . S
C2092 C2091 1.355 . S
C2092 C2094 1.419 . S
C2093 C2088 1.425 . S
C2093 C2090 1.409 1_565 S
C2093 C2091 1.415 . S
C2094 H2084 0.930 . S
C2094 C2092 1.419 . S
C2094 C2095 1.362 . S
C2095 H2085 0.930 . S
C2095 C2088 1.409 . S
C2095 C2094 1.362 . S
H2096 C2102 0.930 . S
H2097 C2105 0.930 . S
H2098 C2106 0.930 1_565 S
H2099 C2107 0.930 . S
H2100 C2110 0.930 . S
H2101 C2111 0.930 . S
C2102 H2096 0.930 . S
C2102 C2103 1.355 . S
C2102 C2104 1.415 1_545 S
C2103 C2102 1.355 . S
C2103 C2105 1.419 . S
C2104 C2102 1.415 1_565 S
C2104 C2109 1.425 . S
C2104 C2111 1.409 . S
C2105 H2097 0.930 . S
C2105 C2103 1.419 . S
C2105 C2106 1.362 . S
C2106 H2098 0.930 1_545 S
C2106 C2105 1.362 . S
C2106 C2109 1.409 1_545 S
C2107 H2099 0.930 . S
C2107 C2108 1.355 . S
C2107 C2109 1.415 . S
C2108 C2107 1.355 . S
C2108 C2110 1.419 . S
C2109 C2104 1.425 . S
C2109 C2106 1.409 1_565 S
C2109 C2107 1.415 . S
C2110 H2100 0.930 . S
C2110 C2108 1.419 . S
C2110 C2111 1.362 . S
C2111 H2101 0.930 . S
C2111 C2104 1.409 . S
C2111 C2110 1.362 . S
H2112 C2118 0.930 . S
H2113 C2121 0.930 . S
H2114 C2122 0.930 . S
H2115 C2123 0.930 . S
H2116 C2126 0.930 . S
H2117 C2127 0.930 1_655 S
C2118 H2112 0.930 . S
C2118 C2119 1.355 . S
C2118 C2120 1.415 . S
C2119 C2118 1.355 . S
C2119 C2121 1.419 . S
C2120 C2118 1.415 . S
C2120 C2125 1.425 . S
C2120 C2127 1.409 1_655 S
C2121 H2113 0.930 . S
C2121 C2119 1.419 . S
C2121 C2122 1.362 . S
C2122 H2114 0.930 . S
C2122 C2121 1.362 . S
C2122 C2125 1.409 . S
C2123 H2115 0.930 . S
C2123 C2124 1.355 . S
C2123 C2125 1.415 1_455 S
C2124 C2123 1.355 . S
C2124 C2126 1.419 . S
C2125 C2120 1.425 . S
C2125 C2122 1.409 . S
C2125 C2123 1.415 1_655 S
C2126 H2116 0.930 . S
C2126 C2124 1.419 . S
C2126 C2127 1.362 . S
C2127 H2117 0.930 1_455 S
C2127 C2120 1.409 1_455 S
C2127 C2126 1.362 . S
H2128 C2134 0.930 . S
H2129 C2137 0.930 . S
H2130 C2138 0.930 . S
H2131 C2139 0.930 . S
H2132 C2142 0.930 . S
H2133 C2143 0.928 1_545 S
C2134 H2128 0.930 . S
C2134 C2135 1.355 . S
C2134 C2136 1.415 . S
C2135 C2134 1.355 . S
C2135 C2137 1.419 . S
C2136 C2134 1.415 . S
C2136 C2141 1.425 . S
C2136 C2143 1.409 1_545 S
C2137 H2129 0.930 . S
C2137 C2135 1.419 . S
C2137 C2138 1.362 . S
C2138 H2130 0.930 . S
C2138 C2137 1.362 . S
C2138 C2141 1.409 . S
C2139 H2131 0.930 . S
C2139 C2140 1.355 . S
C2139 C2141 1.415 1_565 S
C2140 C2139 1.355 . S
C2140 C2142 1.419 . S
C2141 C2136 1.425 . S
C2141 C2138 1.409 . S
C2141 C2139 1.415 1_545 S
C2142 H2132 0.930 . S
C2142 C2140 1.419 . S
C2142 C2143 1.362 . S
C2143 H2133 0.928 1_565 S
C2143 C2136 1.409 1_565 S
C2143 C2142 1.362 . S
H2144 C2150 0.930 . S
H2145 C2153 0.930 . S
H2146 C2154 0.930 . S
H2147 C2155 0.930 . S
H2148 C2158 0.930 . S
H2149 C2159 0.928 1_455 S
C2150 H2144 0.930 . S
C2150 C2151 1.355 . S
C2150 C2152 1.415 . S
C2151 C2150 1.355 . S
C2151 C2153 1.419 . S
C2152 C2150 1.415 . S
C2152 C2157 1.425 . S
C2152 C2159 1.409 1_455 S
C2153 H2145 0.930 . S
C2153 C2151 1.419 . S
C2153 C2154 1.362 . S
C2154 H2146 0.930 . S
C2154 C2153 1.362 . S
C2154 C2157 1.409 . S
C2155 H2147 0.930 . S
C2155 C2156 1.355 . S
C2155 C2157 1.415 1_655 S
C2156 C2155 1.355 . S
C2156 C2158 1.419 . S
C2157 C2152 1.425 . S
C2157 C2154 1.409 . S
C2157 C2155 1.415 1_455 S
C2158 H2148 0.930 . S
C2158 C2156 1.419 . S
C2158 C2159 1.362 . S
C2159 H2149 0.928 1_655 S
C2159 C2152 1.409 1_655 S
C2159 C2158 1.362 . S
H2160 C2166 0.930 . S
H2161 C2169 0.930 . S
H2162 C2170 0.930 . S
H2163 C2171 0.930 . S
H2164 C2174 0.930 . S
H2165 C2175 0.930 1_545 S
C2166 H2160 0.930 . S
C2166 C2167 1.355 . S
C2166 C2168 1.415 . S
C2167 C2166 1.355 . S
C2167 C2169 1.419 . S
C2168 C2166 1.415 . S
C2168 C2173 1.425 . S
C2168 C2175 1.409 1_545 S
C2169 H2161 0.930 . S
C2169 C2167 1.419 . S
C2169 C2170 1.362 . S
C2170 H2162 0.930 . S
C2170 C2169 1.362 . S
C2170 C2173 1.409 . S
C2171 H2163 0.930 . S
C2171 C2172 1.355 . S
C2171 C2173 1.415 1_565 S
C2172 C2171 1.355 . S
C2172 C2174 1.419 . S
C2173 C2168 1.425 . S
C2173 C2170 1.409 . S
C2173 C2171 1.415 1_545 S
C2174 H2164 0.930 . S
C2174 C2172 1.419 . S
C2174 C2175 1.362 . S
C2175 H2165 0.930 1_565 S
C2175 C2168 1.409 1_565 S
C2175 C2174 1.362 . S
H2176 C2182 0.930 . S
H2177 C2185 0.930 . S
H2178 C2186 0.930 . S
H2179 C2187 0.930 . S
H2180 C2190 0.930 . S
H2181 C2191 0.930 . S
C2182 H2176 0.930 . S
C2182 C2183 1.355 . S
C2182 C2184 1.415 . S
C2183 C2182 1.355 . S
C2183 C2185 1.419 . S
C2184 C2182 1.415 . S
C2184 C2189 1.424 . S
C2184 C2191 1.409 1_655 S
C2185 H2177 0.930 . S
C2185 C2183 1.419 . S
C2185 C2186 1.362 . S
C2186 H2178 0.930 . S
C2186 C2185 1.362 . S
C2186 C2189 1.407 . S
C2187 H2179 0.930 . S
C2187 C2188 1.355 . S
C2187 C2189 1.418 1_455 S
C2188 C2187 1.355 . S
C2188 C2190 1.419 . S
C2189 C2184 1.424 . S
C2189 C2186 1.407 . S
C2189 C2187 1.418 1_655 S
C2190 H2180 0.930 . S
C2190 C2188 1.419 . S
C2190 C2191 1.362 . S
C2191 H2181 0.930 . S
C2191 C2184 1.409 1_455 S
C2191 C2190 1.362 . S
H2192 C2198 0.930 . S
H2193 C2201 0.930 . S
H2194 C2202 0.930 . S
H2195 C2203 0.930 . S
H2196 C2206 0.930 . S
H2197 C2207 0.930 . S
C2198 H2192 0.930 . S
C2198 C2199 1.355 . S
C2198 C2200 1.415 . S
C2199 C2198 1.355 . S
C2199 C2201 1.419 . S
C2200 C2198 1.415 . S
C2200 C2205 1.424 1_455 S
C2200 C2207 1.409 1_455 S
C2201 H2193 0.930 . S
C2201 C2199 1.419 . S
C2201 C2202 1.362 . S
C2202 H2194 0.930 . S
C2202 C2201 1.362 . S
C2202 C2205 1.405 1_455 S
C2203 H2195 0.930 . S
C2203 C2204 1.355 . S
C2203 C2205 1.420 . S
C2204 C2203 1.355 . S
C2204 C2206 1.419 . S
C2205 C2200 1.424 1_655 S
C2205 C2202 1.405 1_655 S
C2205 C2203 1.420 . S
C2206 H2196 0.930 . S
C2206 C2204 1.419 . S
C2206 C2207 1.362 . S
C2207 H2197 0.930 . S
C2207 C2200 1.409 1_655 S
C2207 C2206 1.362 . S
C679 C557 1.198 . S
C684 C5 1.152 . S
C695 C25 1.323 . S
C700 C509 1.178 . S
C711 C33 1.161 . S
C716 C529 1.233 . S
C727 C537 1.199 . S
C732 C53 1.331 . S
C743 C473 1.272 . S
C748 C67 1.268 . S
C759 C75 1.071 . S
C764 C481 1.150 . S
C775 C95 1.275 . S
C780 C501 1.265 . S
C791 C103 1.120 . S
C796 C453 0.986 . S
C807 C117 1.058 . S
C812 C439 1.130 . S
C823 C403 1.289 . S
C828 C137 1.306 . S
C839 C411 1.032 . S
C844 C145 1.155 . S
C855 C159 1.141 . S
C860 C431 1.247 . S
C871 C173 1.144 . S
C876 C361 1.274 . S
C887 C187 1.182 . S
C892 C375 1.232 . S
C903 C389 1.323 . S
C908 C207 1.258 . S
C919 C347 1.160 . S
C924 C215 1.051 . S
C935 C235 1.187 . S
C940 C621 1.055 . S
C951 C663 1.256 . S
C956 C243 1.137 . S
C967 C641 1.244 . S
C972 C263 1.235 . S
C983 C649 1.228 . S
C988 C271 1.121 . S
C999 C571 1.255 . S
C1004 C291 1.199 . S
C1015 C593 1.125 . S
C1020 C305 1.194 . S
C1031 C313 1.110 . S
C1036 C607 1.182 . S
C1047 C579 1.128 . S
C1052 C327 1.127 . S
C1063 C459 1.215 . S
C1068 C285 1.149 . S
C1079 C249 1.326 . S
C1084 C467 1.189 . S
C1095 C487 1.255 . S
C1100 C257 1.190 . S
C1111 C495 1.172 . S
C1116 C277 1.305 . S
C1127 C333 1.256 . S
C1132 C515 1.293 . S
C1143 C523 1.049 . S
C1148 C299 1.172 . S
C1159 C319 1.291 . S
C1164 C543 1.265 . S
C1175 C229 1.100 . S
C1180 C551 1.017 . S
C1191 C565 1.160 . S
C1196 C221 1.239 . S
C1207 C179 1.256 . S
C1212 C669 1.342 . S
C1223 C635 1.085 . S
C1228 C193 1.182 . S
C1239 C201 1.249 . S
C1244 C655 1.310 . S
C1255 C131 1.111 . S
C1260 C585 1.259 . S
C1271 C151 1.188 . S
C1276 C599 1.224 . S
C1287 C165 1.286 . S
C1292 C613 1.302 . S
C1303 C627 1.232 . S
C1308 C123 1.172 . S
C1319 C341 1.158 . S
C1324 C109 1.220 . S
C1335 C397 1.121 . S
C1340 C19 1.241 . S
C1351 C417 1.210 . S
C1356 C39 1.243 . S
C1367 C425 1.098 . S
C1372 C47 1.220 . S
C1383 C445 1.177 . S
C1388 C11 1.224 . S
C1399 C81 1.161 . S
C1404 C369 1.060 . S
C1415 C383 1.201 . S
C1420 C89 1.067 . S
C1431 C355 1.145 . S
C1436 C61 1.081 . S
C1447 C12 1.167 . S
C1452 C368 1.197 . S
C1463 C382 1.320 . S
C1468 C18 1.270 . S
C1479 C40 1.170 . S
C1484 C340 1.200 . S
C1495 C46 1.271 . S
C1500 C354 1.317 . S
C1511 C60 1.293 . S
C1516 C424 1.238 . S
C1527 C446 1.053 . S
C1532 C82 1.034 . S
C1543 C88 1.218 . S
C1548 C396 1.296 . S
C1559 C418 1.038 . S
C1564 C110 1.064 . S
C1575 C124 1.280 . S
C1580 C516 1.289 . S
C1591 C522 1.316 . S
C1596 C130 1.233 . S
C1607 C152 1.307 . S
C1612 C544 1.273 . S
C1623 C166 1.134 . S
C1628 C550 1.156 . S
C1639 C180 1.128 . S
C1644 C460 1.165 . S
C1655 C194 1.254 . S
C1660 C466 1.251 . S
C1671 C488 1.275 . S
C1676 C200 1.287 . S
C1687 C222 1.254 . S
C1692 C494 1.238 . S
C1703 C614 1.227 . S
C1708 C228 1.170 . S
C1719 C250 1.246 . S
C1724 C634 1.220 . S
C1735 C256 1.281 . S
C1740 C656 1.284 . S
C1751 C564 1.200 . S
C1756 C278 1.191 . S
C1767 C670 1.374 . S
C1772 C284 1.348 . S
C1783 C298 1.161 . S
C1788 C586 1.149 . S
C1799 C600 1.260 . S
C1804 C320 1.235 . S
C1815 C334 1.205 . S
C1820 C628 1.226 . S
C1831 C592 1.154 . S
C1836 C292 1.195 . S
C1847 C242 1.267 . S
C1852 C606 1.325 . S
C1863 C620 1.152 . S
C1868 C264 1.213 . S
C1879 C578 1.273 . S
C1884 C270 1.314 . S
C1895 C648 1.244 . S
C1900 C326 1.285 . S
C1911 C306 1.045 . S
C1916 C572 1.077 . S
C1927 C662 1.243 . S
C1932 C312 1.286 . S
C1943 C236 1.071 . S
C1948 C642 1.061 . S
C1959 C474 1.328 . S
C1964 C214 1.333 . S
C1975 C172 1.252 . S
C1980 C480 1.299 . S
C1991 C186 1.342 . S
C1996 C502 1.335 . S
C2007 C452 1.135 . S
C2012 C208 1.180 . S
C2023 C138 1.139 . S
C2028 C558 1.147 . S
C2039 C508 1.197 . S
C2044 C144 1.246 . S
C2055 C158 1.229 . S
C2060 C530 1.273 . S
C2071 C116 1.182 . S
C2076 C536 1.240 . S
C2087 C390 1.200 . S
C2092 C102 1.160 . S
C2103 C26 1.165 . S
C2108 C410 1.180 . S
C2119 C32 1.262 . S
C2124 C432 1.298 . S
C2135 C438 1.088 . S
C2140 C54 1.120 . S
C2151 C4 1.344 . S
C2156 C404 1.335 . S
C2167 C74 1.169 . S
C2172 C362 1.147 . S
C2183 C96 1.174 . S
C2188 C376 1.175 . S
C2199 C68 1.165 . S
C2204 C348 1.118 . S
