# Generated by pormake.
# Topology smt, (6)-cn, num edge types: 1
# Building blocks:
#     Node 0, Type 0, BuildingBlock: UKALOJ_clean_sbu_0, # of connection points: 6
#     Node 1, Type 0, BuildingBlock: UKALOJ_clean_sbu_0, # of connection points: 6
#     Node 2, Type 0, BuildingBlock: UKALOJ_clean_sbu_0, # of connection points: 6
#     Node 3, Type 0, BuildingBlock: UKALOJ_clean_sbu_0, # of connection points: 6
#     Node 4, Type 0, BuildingBlock: UKALOJ_clean_sbu_0, # of connection points: 6
#     Node 5, Type 0, BuildingBlock: UKALOJ_clean_sbu_0, # of connection points: 6
#     Edge 6, Type (0, 0), BuildingBlock: CIFDUS_clean_linker_0, # of connection points: 2
#     Edge 7, Type (0, 0), BuildingBlock: CIFDUS_clean_linker_0, # of connection points: 2
#     Edge 8, Type (0, 0), BuildingBlock: CIFDUS_clean_linker_0, # of connection points: 2
#     Edge 9, Type (0, 0), BuildingBlock: CIFDUS_clean_linker_0, # of connection points: 2
#     Edge 10, Type (0, 0), BuildingBlock: CIFDUS_clean_linker_0, # of connection points: 2
#     Edge 11, Type (0, 0), BuildingBlock: CIFDUS_clean_linker_0, # of connection points: 2
#     Edge 12, Type (0, 0), BuildingBlock: CIFDUS_clean_linker_0, # of connection points: 2
#     Edge 13, Type (0, 0), BuildingBlock: CIFDUS_clean_linker_0, # of connection points: 2
#     Edge 14, Type (0, 0), BuildingBlock: CIFDUS_clean_linker_0, # of connection points: 2
#     Edge 15, Type (0, 0), BuildingBlock: CIFDUS_clean_linker_0, # of connection points: 2
#     Edge 16, Type (0, 0), BuildingBlock: CIFDUS_clean_linker_0, # of connection points: 2
#     Edge 17, Type (0, 0), BuildingBlock: CIFDUS_clean_linker_0, # of connection points: 2
#     Edge 18, Type (0, 0), BuildingBlock: CIFDUS_clean_linker_0, # of connection points: 2
#     Edge 19, Type (0, 0), BuildingBlock: CIFDUS_clean_linker_0, # of connection points: 2
#     Edge 20, Type (0, 0), BuildingBlock: CIFDUS_clean_linker_0, # of connection points: 2
#     Edge 21, Type (0, 0), BuildingBlock: CIFDUS_clean_linker_0, # of connection points: 2
#     Edge 22, Type (0, 0), BuildingBlock: CIFDUS_clean_linker_0, # of connection points: 2
#     Edge 23, Type (0, 0), BuildingBlock: CIFDUS_clean_linker_0, # of connection points: 2
# Relax obj value: 0.358
# Max RMSD: 0.285
# Mean RMSD: 0.285
data_MOF--net-smt--node1-UKALOJ_clean_sbu_0--edge1-CIFDUS_clean_linker_0
_symmetry_space_group_name_H-M    P1
_symmetry_Int_Tables_number       1
_symmetry_cell_setting            triclinic
loop_
_symmetry_equiv_pos_as_xyz
'x, y, z'
_cell_length_a     33.950716
_cell_length_b     33.970102
_cell_length_c     22.728658
_cell_angle_alpha  89.883403
_cell_angle_beta   90.412324
_cell_angle_gamma 120.29527
loop_
_atom_site_label
_atom_site_type_symbol
_atom_site_fract_x
_atom_site_fract_y
_atom_site_fract_z
_atom_type_partial_charge
Zn0 Zn 0.5015 0.12421 0.00535 0.0
O1 O 0.48221 0.08159 0.08066 0.0
C2 C 0.40366 0.07333 0.97335 0.0
Zn3 Zn 0.46541 0.15738 0.0434 0.0
C4 C 0.46124 0.08722 0.12316 0.0
O5 O 0.45044 0.11794 0.11988 0.0
C6 C 0.50704 0.19597 0.92711 0.0
O7 O 0.52776 0.20931 0.08406 0.0
O8 O 0.55987 0.17205 0.04967 0.0
N9 N 0.42821 0.18547 0.07247 0.0
C10 C 0.43261 0.22672 0.06314 0.0
C11 C 0.3673 0.1843 0.10113 0.0
N12 N 0.38768 0.15925 0.09623 0.0
N13 N 0.39437 0.22671 0.07993 0.0
C14 C 0.52503 0.05513 0.94897 0.0
C15 C 0.59539 0.09808 0.92991 0.0
N16 N 0.53788 0.09626 0.97248 0.0
N17 N 0.58191 0.12271 0.9614 0.0
N18 N 0.56032 0.05539 0.92185 0.0
H19 H 0.45977 0.01503 0.99067 0.0
H20 H 0.47856 0.98273 0.94782 0.0
H21 H 0.45863 0.01613 0.91093 0.0
C22 C 0.47763 0.01489 0.95006 0.0
C23 C 0.47514 0.26704 0.03993 0.0
H24 H 0.50538 0.26372 0.04882 0.0
H25 H 0.48061 0.29906 0.06037 0.0
H26 H 0.47203 0.26917 0.99156 0.0
O27 O 0.48066 0.19638 0.96598 0.0
O28 O 0.52196 0.16858 0.93186 0.0
C29 C 0.56279 0.20501 0.07931 0.0
O30 O 0.44112 0.07541 0.96138 0.0
O31 O 0.40423 0.10415 0.00546 0.0
Zn32 Zn 0.38202 0.51076 0.17019 0.0
O33 O 0.40275 0.48589 0.24309 0.0
C34 C 0.32936 0.41526 0.13326 0.0
Zn35 Zn 0.31208 0.47838 0.20601 0.0
C36 C 0.37531 0.46745 0.28579 0.0
O37 O 0.33533 0.46154 0.28231 0.0
C38 C 0.31875 0.52308 0.09231 0.0
O39 O 0.32579 0.54065 0.24717 0.0
O40 O 0.39683 0.56837 0.21912 0.0
N41 N 0.24675 0.44261 0.23609 0.0
C42 C 0.20987 0.44721 0.22811 0.0
C43 C 0.18715 0.38245 0.26779 0.0
N44 N 0.23252 0.40245 0.26093 0.0
N45 N 0.17164 0.40939 0.24696 0.0
C46 C 0.47167 0.52893 0.11053 0.0
C47 C 0.50343 0.59978 0.09169 0.0
N48 N 0.44661 0.54445 0.13658 0.0
N49 N 0.46688 0.58872 0.12557 0.0
N50 N 0.50718 0.56278 0.08165 0.0
H51 H 0.44326 0.46357 0.15339 0.0
H52 H 0.49381 0.47978 0.11019 0.0
H53 H 0.44051 0.46193 0.07375 0.0
C54 C 0.46161 0.48065 0.11249 0.0
C55 C 0.21237 0.48961 0.20437 0.0
H56 H 0.24672 0.5196 0.21174 0.0
H57 H 0.18667 0.49576 0.22572 0.0
H58 H 0.20583 0.48587 0.15623 0.0
O59 O 0.28977 0.4961 0.12916 0.0
O60 O 0.36067 0.53611 0.0991 0.0
C61 C 0.36715 0.57307 0.24689 0.0
O62 O 0.36607 0.45186 0.12196 0.0
O63 O 0.30054 0.41668 0.16708 0.0
Zn64 Zn 0.86852 0.38386 0.33893 0.0
O65 O 0.91529 0.40733 0.41213 0.0
C66 C 0.91486 0.33455 0.30469 0.0
Zn67 Zn 0.83359 0.31475 0.37722 0.0
C68 C 0.90694 0.38054 0.45563 0.0
O69 O 0.87328 0.34019 0.45293 0.0
C70 C 0.79306 0.3165 0.26283 0.0
O71 O 0.783 0.32671 0.41662 0.0
O72 O 0.82503 0.39749 0.38639 0.0
N73 N 0.80599 0.25027 0.41005 0.0
C74 C 0.7651 0.21214 0.40261 0.0
C75 C 0.80859 0.19307 0.44658 0.0
N76 N 0.83286 0.23832 0.43752 0.0
N77 N 0.766 0.17544 0.42453 0.0
C78 C 0.93979 0.47418 0.28008 0.0
C79 C 0.89911 0.50249 0.25354 0.0
N80 N 0.89802 0.44768 0.303 0.0
N81 N 0.87295 0.46579 0.2872 0.0
N82 N 0.94126 0.50847 0.24837 0.0
H83 H 0.97629 0.44823 0.32976 0.0
H84 H 0.01182 0.50014 0.28909 0.0
H85 H 0.98102 0.44701 0.2508 0.0
C86 C 0.97947 0.46686 0.28835 0.0
C87 C 0.7243 0.21187 0.37645 0.0
H88 H 0.727 0.24552 0.38205 0.0
H89 H 0.69246 0.18533 0.39741 0.0
H90 H 0.72253 0.20471 0.32859 0.0
O91 O 0.79383 0.28952 0.30081 0.0
O92 O 0.82012 0.35916 0.26805 0.0
C93 C 0.79088 0.36761 0.41467 0.0
O94 O 0.91264 0.36963 0.29153 0.0
O95 O 0.88579 0.3056 0.33992 0.0
Zn96 Zn 0.48613 0.86929 0.51214 0.0
O97 O 0.50046 0.91753 0.57961 0.0
C98 C 0.58522 0.91899 0.49049 0.0
Zn99 Zn 0.52075 0.84004 0.56397 0.0
C100 C 0.51776 0.91446 0.62804 0.0
O101 O 0.52853 0.88385 0.63414 0.0
C102 C 0.48711 0.79357 0.44942 0.0
O103 O 0.45617 0.78945 0.59934 0.0
O104 O 0.42566 0.82496 0.55386 0.0
N105 N 0.55625 0.81599 0.61031 0.0
C106 C 0.55563 0.77599 0.60851 0.0
C107 C 0.61237 0.82146 0.66187 0.0
N108 N 0.59143 0.84408 0.64367 0.0
N109 N 0.59096 0.77873 0.63994 0.0
C110 C 0.46797 0.93402 0.43582 0.0
C111 C 0.40222 0.88855 0.40025 0.0
N112 N 0.45258 0.89367 0.46298 0.0
N113 N 0.41131 0.86562 0.4415 0.0
N114 N 0.43729 0.93163 0.39594 0.0
H115 H 0.52645 0.97526 0.49148 0.0
H116 H 0.51041 0.00675 0.44199 0.0
H117 H 0.53793 0.97785 0.41352 0.0
C118 C 0.51337 0.97582 0.44686 0.0
C119 C 0.51899 0.73389 0.57872 0.0
H120 H 0.48653 0.73423 0.57717 0.0
H121 H 0.51347 0.70284 0.60216 0.0
H122 H 0.52932 0.73262 0.5329 0.0
O123 O 0.51238 0.79678 0.49271 0.0
O124 O 0.47066 0.81975 0.44652 0.0
C125 C 0.42161 0.79367 0.58818 0.0
O126 O 0.54806 0.91441 0.47093 0.0
O127 O 0.58397 0.89193 0.53002 0.0
Zn128 Zn 0.60785 0.48349 0.66729 0.0
O129 O 0.5741 0.49659 0.73645 0.0
C130 C 0.64898 0.58079 0.64003 0.0
Zn131 Zn 0.67355 0.52352 0.71516 0.0
C132 C 0.59612 0.51604 0.78341 0.0
O133 O 0.63853 0.52978 0.78686 0.0
C134 C 0.6849 0.48874 0.60089 0.0
O135 O 0.6663 0.46191 0.75397 0.0
O136 O 0.59857 0.4266 0.71223 0.0
N137 N 0.7353 0.56476 0.75595 0.0
C138 C 0.77409 0.56297 0.75938 0.0
C139 C 0.7898 0.62869 0.78983 0.0
N140 N 0.74517 0.6055 0.77534 0.0
N141 N 0.80888 0.60286 0.78019 0.0
C142 C 0.52069 0.45303 0.59077 0.0
C143 C 0.50608 0.38686 0.56468 0.0
N144 N 0.54838 0.44319 0.62231 0.0
N145 N 0.53856 0.40164 0.60677 0.0
N146 N 0.49411 0.41843 0.55392 0.0
H147 H 0.53465 0.51475 0.63537 0.0
H148 H 0.48799 0.49309 0.58317 0.0
H149 H 0.54541 0.52017 0.55684 0.0
C150 C 0.52233 0.49794 0.59195 0.0
C151 C 0.77863 0.52357 0.73848 0.0
H152 H 0.74805 0.49809 0.71424 0.0
H153 H 0.78294 0.50601 0.77701 0.0
H154 H 0.80921 0.53599 0.71033 0.0
O155 O 0.70763 0.51665 0.6417 0.0
O156 O 0.64177 0.46928 0.60083 0.0
C157 C 0.62812 0.42547 0.74546 0.0
O158 O 0.6179 0.54194 0.62252 0.0
O159 O 0.67743 0.58332 0.67862 0.0
Zn160 Zn 0.12416 0.60914 0.83643 0.0
O161 O 0.08469 0.57645 0.91154 0.0
C162 C 0.05979 0.64296 0.81435 0.0
Zn163 Zn 0.14742 0.6767 0.87922 0.0
C164 C 0.08481 0.59972 0.95563 0.0
O165 O 0.10851 0.64314 0.95425 0.0
C166 C 0.18895 0.68569 0.7619 0.0
O167 O 0.20376 0.6723 0.91667 0.0
O168 O 0.17804 0.60617 0.87339 0.0
N169 N 0.17028 0.74089 0.91395 0.0
C170 C 0.21291 0.77749 0.91548 0.0
C171 C 0.16695 0.80163 0.93128 0.0
N172 N 0.14184 0.75603 0.92412 0.0
N173 N 0.2117 0.81618 0.9252 0.0
C174 C 0.06848 0.52043 0.76147 0.0
C175 C 0.12249 0.51079 0.73262 0.0
N176 N 0.10588 0.54917 0.79301 0.0
N177 N 0.13914 0.54233 0.77568 0.0
N178 N 0.0781 0.49639 0.7228 0.0
H179 H 0.01812 0.5262 0.81046 0.0
H180 H -0.00484 0.4839 0.75312 0.0
H181 H 0.02283 0.54309 0.73374 0.0
C182 C 0.02348 0.51831 0.76502 0.0
C183 C 0.25546 0.77444 0.91217 0.0
H184 H 0.25441 0.75102 0.94686 0.0
H185 H 0.28682 0.80759 0.92023 0.0
H186 H 0.25746 0.7607 0.86881 0.0
O187 O 0.18623 0.70898 0.80352 0.0
O188 O 0.16521 0.64262 0.76356 0.0
C189 C 0.20717 0.63727 0.90655 0.0
O190 O 0.06873 0.61203 0.80138 0.0
O191 O 0.0886 0.67725 0.84413 0.0
H192 H 0.38601 0.00861 0.89001 0.0
H193 H 0.32317 0.04195 0.03072 0.0
H194 H 0.25716 0.96503 0.02733 0.0
H195 H 0.22095 0.88558 0.99174 0.0
H196 H 0.28106 0.85356 0.84686 0.0
H197 H 0.34482 0.932 0.84544 0.0
C198 C 0.35764 -0.00081 0.91942 0.0
C199 C 0.35996 0.03084 0.96111 0.0
C200 C 0.31984 0.95464 0.91768 0.0
C201 C 0.32238 0.01838 -0.00195 0.0
C202 C 0.28473 0.97416 -0.00336 0.0
C203 C 0.24802 0.89596 0.95986 0.0
C204 C 0.24782 0.86319 0.922 0.0
C205 C 0.28376 0.94159 0.95793 0.0
C206 C 0.28205 0.87741 0.87916 0.0
C207 C 0.31811 0.92247 0.87763 0.0
H208 H 0.36983 0.3963 0.04357 0.0
H209 H 0.28204 0.33572 0.1932 0.0
H210 H 0.29364 0.27058 0.18857 0.0
H211 H 0.33693 0.23624 0.15054 0.0
H212 H 0.41962 0.29321 -0.00399 0.0
H213 H 0.40335 0.35515 -0.0045 0.0
C214 C 0.35268 0.36845 0.07449 0.0
C215 C 0.32586 0.37123 0.11926 0.0
C216 C 0.36002 0.33136 0.07218 0.0
C217 C 0.30287 0.33442 0.15821 0.0
C218 C 0.30996 0.2974 0.15612 0.0
C219 C 0.35122 0.26207 0.11653 0.0
C220 C 0.38213 0.26166 0.07598 0.0
C221 C 0.33988 0.29645 0.11475 0.0
C222 C 0.39886 0.29445 0.03082 0.0
C223 C 0.3886 0.32942 0.02955 0.0
H224 H 0.97366 0.37766 0.2148 0.0
H225 H 0.95068 0.29019 0.36416 0.0
H226 H 0.0289 0.30559 0.35857 0.0
H227 H 0.1061 0.3513 0.31932 0.0
H228 H 0.1282 0.43481 0.16596 0.0
H229 H 0.04881 0.4154 0.16691 0.0
C230 C 0.98566 0.36153 0.2456 0.0
C231 C 0.95671 0.33355 0.29046 0.0
C232 C 0.03101 0.37128 0.24295 0.0
C233 C 0.97223 0.31185 0.32912 0.0
C234 C 0.01718 0.32114 0.32649 0.0
C235 C 0.09359 0.3652 0.28592 0.0
C236 C 0.12415 0.39684 0.24498 0.0
C237 C 0.04728 0.35212 0.285 0.0
C238 C 0.10681 0.41323 0.20085 0.0
C239 C 0.06088 0.40117 0.20042 0.0
H240 H 0.75727 0.11353 0.50425 0.0
H241 H 0.70082 0.12793 0.34053 0.0
H242 H 0.6421 0.04771 0.34329 0.0
H243 H 0.6042 0.9742 0.39534 0.0
H244 H 0.66286 0.95924 0.55689 0.0
H245 H 0.72511 0.03799 0.54963 0.0
C246 C 0.73219 0.09909 0.46906 0.0
C247 C 0.73198 0.12756 0.42413 0.0
C248 C 0.69959 0.05245 0.46974 0.0
C249 C 0.70009 0.10792 0.37789 0.0
C250 C 0.66702 0.06162 0.3787 0.0
C251 C 0.63087 0.98809 0.4286 0.0
C252 C 0.62837 0.96123 0.47716 0.0
C253 C 0.66595 0.03378 0.42501 0.0
C254 C 0.66391 0.97916 0.51901 0.0
C255 C 0.69923 0.02441 0.51535 0.0
H256 H 0.59072 0.72088 0.55769 0.0
H257 H 0.62881 0.76607 0.73693 0.0
H258 H 0.65702 0.71306 0.74986 0.0
H259 H 0.66579 0.65024 0.71247 0.0
H260 H 0.62044 0.59944 0.53664 0.0
H261 H 0.59982 0.65809 0.51987 0.0
C262 C 0.60399 0.71828 0.60003 0.0
C263 C 0.60618 0.74629 0.64699 0.0
C264 C 0.61933 0.6871 0.60739 0.0
C265 C 0.62612 0.74434 0.70049 0.0
C266 C 0.64233 0.71414 0.70782 0.0
C267 C 0.65248 0.65279 0.66998 0.0
C268 C 0.64526 0.62112 0.62548 0.0
C269 C 0.63869 0.68505 0.66178 0.0
C270 C 0.62674 0.62387 0.57123 0.0
C271 C 0.61461 0.6571 0.56187 0.0
H272 H 0.02311 0.69406 0.77212 0.0
H273 H 0.9888 0.56625 0.85416 0.0
H274 H 0.90832 0.54235 0.85156 0.0
H275 H 0.84725 0.55754 0.82733 0.0
H276 H 0.87849 0.68367 0.7438 0.0
H277 H 0.96022 0.70925 0.74734 0.0
C278 C -0.00219 0.66099 0.78895 0.0
C279 C 0.01164 0.63119 0.81118 0.0
C280 C 0.95101 0.64736 0.78768 0.0
C281 C 0.97875 0.5888 0.83414 0.0
C282 C 0.93271 0.57533 0.83354 0.0
C283 C 0.87181 0.59008 0.80862 0.0
C284 C 0.85686 0.61809 0.7839 0.0
C285 C 0.91837 0.60409 0.81002 0.0
C286 C 0.88936 0.66139 0.76272 0.0
C287 C 0.93601 0.67592 0.76453 0.0
H288 H 0.49994 0.03851 0.15918 0.0
H289 H 0.39858 0.0734 0.20731 0.0
H290 H 0.38166 0.02774 0.29685 0.0
H291 H 0.39613 0.97765 0.36199 0.0
H292 H 0.49936 0.94578 0.31459 0.0
H293 H 0.51543 0.99054 0.22435 0.0
C294 C 0.474 0.03594 0.18913 0.0
C295 C 0.45042 0.05905 0.17661 0.0
C296 C 0.46506 0.01041 0.24084 0.0
C297 C 0.41726 0.05589 0.21612 0.0
C298 C 0.40754 0.02981 0.26728 0.0
C299 C 0.42217 0.98096 0.33173 0.0
C300 C 0.44706 0.95934 0.34458 0.0
C301 C 0.43132 0.007 0.2802 0.0
C302 C 0.48058 0.96311 0.30547 0.0
C303 C 0.4895 0.98835 0.25394 0.0
H304 H 0.44852 0.45623 0.30081 0.0
H305 H 0.33439 0.44921 0.39287 0.0
H306 H 0.35995 0.43128 0.48436 0.0
H307 H 0.41701 0.42083 0.53958 0.0
H308 H 0.52983 0.4264 0.44731 0.0
H309 H 0.50257 0.44122 0.35444 0.0
C310 C 0.42921 0.45065 0.34087 0.0
C311 C 0.38989 0.45439 0.34014 0.0
C312 C 0.44385 0.43997 0.39326 0.0
C313 C 0.36486 0.44654 0.39225 0.0
C314 C 0.37946 0.43636 0.44467 0.0
C315 C 0.43503 0.42485 0.49879 0.0
C316 C 0.47504 0.42256 0.4995 0.0
C317 C 0.41913 0.43341 0.44584 0.0
C318 C 0.49863 0.42776 0.44696 0.0
C319 C 0.48324 0.43647 0.39421 0.0
H320 H -0.00109 0.41856 0.7074 0.0
H321 H 0.10516 0.53422 0.61658 0.0
H322 H 0.06185 0.5086 0.52413 0.0
H323 H 0.99163 0.45508 0.4706 0.0
H324 H 0.88538 0.33888 0.56224 0.0
H325 H 0.93031 0.36285 0.65272 0.0
C326 C 0.01245 0.43761 0.66702 0.0
C327 C 0.05479 0.47794 0.66813 0.0
C328 C 0.98713 0.42288 0.61447 0.0
C329 C 0.07259 0.50275 0.61601 0.0
C330 C 0.04774 0.48834 0.56349 0.0
C331 C 0.97839 0.43508 0.51039 0.0
C332 C 0.93515 0.39551 0.50972 0.0
C333 C 0.0046 0.4488 0.56238 0.0
C334 C 0.9186 0.36958 0.56149 0.0
C335 C 0.94424 0.3832 0.61337 0.0
H336 H 0.55941 0.92106 0.7333 0.0
H337 H 0.4897 0.97669 0.63412 0.0
H338 H 0.49664 0.02502 0.71736 0.0
H339 H 0.52145 0.05072 0.81882 0.0
H340 H 0.59244 0.99738 0.91784 0.0
H341 H 0.58615 0.9485 0.83415 0.0
C342 C 0.54582 0.94383 0.72983 0.0
C343 C 0.5239 0.94512 0.67763 0.0
C344 C 0.55002 0.97164 0.77782 0.0
C345 C 0.50671 0.975 0.67374 0.0
C346 C 0.51056 0.00259 0.72133 0.0
C347 C 0.53529 0.02814 0.82165 0.0
C348 C 0.55687 0.02677 0.87375 0.0
C349 C 0.53187 0.00095 0.77355 0.0
C350 C 0.5755 -0.00169 0.87776 0.0
C351 C 0.57188 0.97063 0.83011 0.0
H352 H 0.46847 0.5144 0.98485 0.0
H353 H 0.598 0.60219 0.06815 0.0
H354 H 0.63784 0.59581 0.98184 0.0
H355 H 0.63491 0.56497 0.88301 0.0
H356 H 0.50443 0.47881 0.79893 0.0
H357 H 0.46547 0.48474 0.88542 0.0
C358 C 0.50541 0.53149 0.98409 0.0
C359 C 0.53062 0.55785 0.03264 0.0
C360 C 0.5276 0.52817 0.9343 0.0
C361 C 0.57835 0.58129 0.03116 0.0
C362 C 0.60087 0.57768 0.98197 0.0
C363 C 0.59794 0.54751 0.88353 0.0
C364 C 0.57259 0.52135 0.83462 0.0
C365 C 0.57578 0.55122 0.93327 0.0
C366 C 0.52474 0.49922 0.83589 0.0
C367 C 0.50243 0.50247 0.88538 0.0
H368 H 0.06756 0.63797 0.05002 0.0
H369 H 0.04122 0.5088 0.97957 0.0
H370 H -0.0037 0.46966 0.06601 0.0
H371 H 0.96234 0.47162 0.15975 0.0
H372 H 0.9857 0.59917 0.22995 0.0
H373 H 0.03392 0.63985 0.1451 0.0
C374 C 0.05213 0.60128 0.05367 0.0
C375 C 0.05776 0.57636 0.00834 0.0
C376 C 0.02593 0.57886 0.10334 0.0
C377 C 0.03732 0.5288 0.01364 0.0
C378 C 0.01168 0.50636 0.0631 0.0
C379 C 0.97898 0.50844 0.15695 0.0
C380 C 0.97186 0.53282 0.20129 0.0
C381 C 0.00567 0.53102 0.10799 0.0
C382 C 0.99162 0.58019 0.1964 0.0
C383 C 0.01891 0.6032 0.14801 0.0
H384 H 0.59481 0.25879 0.90533 0.0
H385 H 0.45659 0.21273 0.84992 0.0
H386 H 0.48337 0.27819 0.78395 0.0
H387 H 0.54443 0.35095 0.74953 0.0
H388 H 0.68247 0.40304 0.81178 0.0
H389 H 0.65755 0.33257 0.86795 0.0
C390 C 0.57092 0.26279 0.87759 0.0
C391 C 0.52398 0.23092 0.88116 0.0
C392 C 0.58645 0.30171 0.84203 0.0
C393 C 0.49287 0.23672 0.84687 0.0
C394 C 0.50816 0.27419 0.80962 0.0
C395 C 0.56943 0.34696 0.77481 0.0
C396 C 0.61533 0.38232 0.77651 0.0
C397 C 0.55467 0.30733 0.80797 0.0
C398 C 0.64694 0.37642 0.80989 0.0
C399 C 0.63268 0.33616 0.84194 0.0
H400 H 0.21935 0.5654 0.89191 0.0
H401 H 0.26913 0.68942 -0.00734 0.0
H402 H 0.31335 0.66684 0.05545 0.0
H403 H 0.32987 0.60711 0.08878 0.0
H404 H 0.27301 0.48051 -0.0069 0.0
H405 H 0.23924 0.5087 0.92083 0.0
C406 C 0.24031 0.58796 0.92708 0.0
C407 C 0.24053 0.62886 0.93798 0.0
C408 C 0.26395 0.57394 0.96413 0.0
C409 C 0.26826 0.65773 0.98342 0.0
C410 C 0.29329 0.64467 0.01954 0.0
C411 C 0.31078 0.58631 0.05129 0.0
C412 C 0.30392 0.54214 0.04531 0.0
C413 C 0.2902 0.6022 0.01138 0.0
C414 C 0.27867 0.51473 -0.00225 0.0
C415 C 0.25937 0.5308 0.95677 0.0
H416 H 0.63616 0.19451 0.08765 0.0
H417 H 0.58735 0.28435 0.14031 0.0
H418 H 0.65828 0.33112 0.19596 0.0
H419 H 0.73152 0.34231 0.23607 0.0
H420 H 0.77472 0.24701 0.18956 0.0
H421 H 0.70879 0.20674 0.12398 0.0
C422 C 0.64097 0.22456 0.11076 0.0
C423 C 0.60634 0.2358 0.11001 0.0
C424 C 0.68099 0.25033 0.14353 0.0
C425 C 0.61336 0.27482 0.14043 0.0
C426 C 0.6539 0.30154 0.17218 0.0
C427 C 0.72684 0.31339 0.2103 0.0
C428 C 0.75798 0.29782 0.21651 0.0
C429 C 0.68765 0.28915 0.17482 0.0
C430 C 0.75126 0.25964 0.18462 0.0
C431 C 0.71351 0.23654 0.14756 0.0
H432 H 0.40496 0.7455 0.39579 0.0
H433 H 0.53743 0.75761 0.40958 0.0
H434 H 0.51205 0.69148 0.34504 0.0
H435 H 0.45155 0.62863 0.28917 0.0
H436 H 0.31663 0.61122 0.28225 0.0
H437 H 0.34347 0.68119 0.34024 0.0
C438 C 0.42837 0.73397 0.38379 0.0
C439 C 0.47314 0.75652 0.40648 0.0
C440 C 0.41295 0.69491 0.34868 0.0
C441 C 0.50294 0.7408 0.39213 0.0
C442 C 0.4884 0.70301 0.3555 0.0
C443 C 0.42802 0.6403 0.29992 0.0
C444 C 0.38226 0.61511 0.28123 0.0
C445 C 0.44338 0.67955 0.33421 0.0
C446 C 0.35199 0.63013 0.29631 0.0
C447 C 0.36737 0.6701 0.32924 0.0
H448 H 0.81624 0.45324 0.44698 0.0
H449 H 0.70316 0.31509 0.45526 0.0
H450 H 0.65836 0.3417 0.50887 0.0
H451 H 0.65306 0.4042 0.55647 0.0
H452 H 0.76938 0.54063 0.55472 0.0
H453 H 0.81131 0.5148 0.49417 0.0
C454 C 0.78164 0.42884 0.46006 0.0
C455 C 0.76287 0.38226 0.44696 0.0
C456 C 0.75678 0.44421 0.4916 0.0
C457 C 0.71831 0.35108 0.46502 0.0
C458 C 0.69274 0.36633 0.49542 0.0
C459 C 0.68731 0.42833 0.54183 0.0
C460 C 0.70806 0.47437 0.55905 0.0
C461 C 0.71178 0.41281 0.50918 0.0
C462 C 0.75277 0.50517 0.5414 0.0
C463 C 0.77672 0.49037 0.50713 0.0
H464 H 0.35714 0.81577 0.60768 0.0
H465 H 0.38733 0.70788 0.63428 0.0
H466 H 0.31392 0.6621 0.68388 0.0
H467 H 0.24363 0.65518 0.72446 0.0
H468 H 0.21859 0.76715 0.70735 0.0
H469 H 0.28748 0.80898 0.64783 0.0
C470 C 0.34751 0.78202 0.62381 0.0
C471 C 0.37739 0.765 0.61718 0.0
C472 C 0.30619 0.75675 0.65348 0.0
C473 C 0.36486 0.72163 0.63911 0.0
C474 C 0.32293 0.6955 0.66721 0.0
C475 C 0.25281 0.68832 0.70644 0.0
C476 C 0.22589 0.70793 0.71898 0.0
C477 C 0.29357 0.71296 0.67509 0.0
C478 C 0.23867 0.75138 0.69735 0.0
C479 C 0.27809 0.77529 0.6638 0.0
loop_
_geom_bond_atom_site_label_1
_geom_bond_atom_site_label_2
_geom_bond_distance
_geom_bond_site_symmetry_2
_ccdc_geom_bond_type
Zn0 O1 2.055 1_556 S
Zn0 O8 2.046 1_556 S
Zn0 N16 2.036 . S
Zn0 O28 2.053 . S
Zn0 O30 2.066 . S
O1 Zn0 2.055 1_554 S
O1 C4 1.259 . S
C2 O30 1.256 . S
C2 O31 1.244 1_556 S
Zn3 O5 2.046 . S
Zn3 O7 2.055 . S
Zn3 N9 2.036 . S
Zn3 O27 2.066 1_554 S
Zn3 O31 2.053 . S
C4 O1 1.259 . S
C4 O5 1.254 . S
O5 Zn3 2.046 . S
O5 C4 1.254 . S
C6 O27 1.256 . S
C6 O28 1.244 . S
O7 Zn3 2.055 . S
O7 C29 1.259 . S
O8 Zn0 2.046 1_554 S
O8 C29 1.254 . S
N9 Zn3 2.036 . S
N9 C10 1.298 . S
N9 N12 1.398 . S
C10 N9 1.298 . S
C10 N13 1.367 . S
C10 C23 1.481 . S
C11 N12 1.299 . S
C11 N13 1.379 . S
N12 N9 1.398 . S
N12 C11 1.299 . S
N13 C10 1.367 . S
N13 C11 1.379 . S
C14 N16 1.298 . S
C14 N18 1.367 . S
C14 C22 1.481 . S
C15 N17 1.299 . S
C15 N18 1.379 . S
N16 Zn0 2.036 . S
N16 C14 1.298 . S
N16 N17 1.398 . S
N17 C15 1.299 . S
N17 N16 1.398 . S
N18 C14 1.367 . S
N18 C15 1.379 . S
H19 C22 0.980 1_554 S
H20 C22 0.981 1_565 S
H21 C22 0.981 1_565 S
C22 C14 1.481 . S
C22 H19 0.980 1_556 S
C22 H20 0.981 1_545 S
C22 H21 0.981 1_545 S
C23 C10 1.481 . S
C23 H24 0.980 . S
C23 H25 0.981 . S
C23 H26 0.981 . S
H24 C23 0.980 . S
H25 C23 0.981 . S
H26 C23 0.981 . S
O27 Zn3 2.066 1_556 S
O27 C6 1.256 . S
O28 Zn0 2.053 . S
O28 C6 1.244 . S
C29 O7 1.259 . S
C29 O8 1.254 . S
O30 Zn0 2.066 . S
O30 C2 1.256 . S
O31 C2 1.244 1_554 S
O31 Zn3 2.053 . S
Zn32 O33 2.055 . S
Zn32 O40 2.046 . S
Zn32 N48 2.036 . S
Zn32 O60 2.053 . S
Zn32 O62 2.066 . S
O33 Zn32 2.055 . S
O33 C36 1.259 . S
C34 O62 1.256 . S
C34 O63 1.244 . S
Zn35 O37 2.046 . S
Zn35 O39 2.055 . S
Zn35 N41 2.036 . S
Zn35 O59 2.066 . S
Zn35 O63 2.053 . S
C36 O33 1.259 . S
C36 O37 1.254 . S
O37 Zn35 2.046 . S
O37 C36 1.254 . S
C38 O59 1.256 . S
C38 O60 1.244 . S
O39 Zn35 2.055 . S
O39 C61 1.259 . S
O40 Zn32 2.046 . S
O40 C61 1.254 . S
N41 Zn35 2.036 . S
N41 C42 1.298 . S
N41 N44 1.398 . S
C42 N41 1.298 . S
C42 N45 1.367 . S
C42 C55 1.481 . S
C43 N44 1.299 . S
C43 N45 1.379 . S
N44 N41 1.398 . S
N44 C43 1.299 . S
N45 C42 1.367 . S
N45 C43 1.379 . S
C46 N48 1.298 . S
C46 N50 1.367 . S
C46 C54 1.481 . S
C47 N49 1.299 . S
C47 N50 1.379 . S
N48 Zn32 2.036 . S
N48 C46 1.298 . S
N48 N49 1.398 . S
N49 C47 1.299 . S
N49 N48 1.398 . S
N50 C46 1.367 . S
N50 C47 1.379 . S
H51 C54 0.980 . S
H52 C54 0.981 . S
H53 C54 0.981 . S
C54 C46 1.481 . S
C54 H51 0.980 . S
C54 H52 0.981 . S
C54 H53 0.981 . S
C55 C42 1.481 . S
C55 H56 0.980 . S
C55 H57 0.981 . S
C55 H58 0.981 . S
H56 C55 0.980 . S
H57 C55 0.981 . S
H58 C55 0.981 . S
O59 Zn35 2.066 . S
O59 C38 1.256 . S
O60 Zn32 2.053 . S
O60 C38 1.244 . S
C61 O39 1.259 . S
C61 O40 1.254 . S
O62 Zn32 2.066 . S
O62 C34 1.256 . S
O63 C34 1.244 . S
O63 Zn35 2.053 . S
Zn64 O65 2.055 . S
Zn64 O72 2.046 . S
Zn64 N80 2.036 . S
Zn64 O92 2.053 . S
Zn64 O94 2.066 . S
O65 Zn64 2.055 . S
O65 C68 1.259 . S
C66 O94 1.256 . S
C66 O95 1.244 . S
Zn67 O69 2.046 . S
Zn67 O71 2.055 . S
Zn67 N73 2.036 . S
Zn67 O91 2.066 . S
Zn67 O95 2.053 . S
C68 O65 1.259 . S
C68 O69 1.254 . S
O69 Zn67 2.046 . S
O69 C68 1.254 . S
C70 O91 1.256 . S
C70 O92 1.244 . S
O71 Zn67 2.055 . S
O71 C93 1.259 . S
O72 Zn64 2.046 . S
O72 C93 1.254 . S
N73 Zn67 2.036 . S
N73 C74 1.298 . S
N73 N76 1.398 . S
C74 N73 1.298 . S
C74 N77 1.367 . S
C74 C87 1.481 . S
C75 N76 1.299 . S
C75 N77 1.379 . S
N76 N73 1.398 . S
N76 C75 1.299 . S
N77 C74 1.367 . S
N77 C75 1.379 . S
C78 N80 1.298 . S
C78 N82 1.367 . S
C78 C86 1.481 . S
C79 N81 1.299 . S
C79 N82 1.379 . S
N80 Zn64 2.036 . S
N80 C78 1.298 . S
N80 N81 1.398 . S
N81 C79 1.299 . S
N81 N80 1.398 . S
N82 C78 1.367 . S
N82 C79 1.379 . S
H83 C86 0.980 . S
H84 C86 0.981 1_455 S
H85 C86 0.981 1_455 S
C86 C78 1.481 . S
C86 H83 0.980 . S
C86 H84 0.981 1_655 S
C86 H85 0.981 1_655 S
C87 C74 1.481 . S
C87 H88 0.980 . S
C87 H89 0.981 . S
C87 H90 0.981 . S
H88 C87 0.980 . S
H89 C87 0.981 . S
H90 C87 0.981 . S
O91 Zn67 2.066 . S
O91 C70 1.256 . S
O92 Zn64 2.053 . S
O92 C70 1.244 . S
C93 O71 1.259 . S
C93 O72 1.254 . S
O94 Zn64 2.066 . S
O94 C66 1.256 . S
O95 C66 1.244 . S
O95 Zn67 2.053 . S
Zn96 O97 2.055 . S
Zn96 O104 2.046 . S
Zn96 N112 2.036 . S
Zn96 O124 2.053 . S
Zn96 O126 2.066 . S
O97 Zn96 2.055 . S
O97 C100 1.259 . S
C98 O126 1.256 . S
C98 O127 1.244 . S
Zn99 O101 2.046 . S
Zn99 O103 2.055 . S
Zn99 N105 2.036 . S
Zn99 O123 2.066 . S
Zn99 O127 2.053 . S
C100 O97 1.259 . S
C100 O101 1.254 . S
O101 Zn99 2.046 . S
O101 C100 1.254 . S
C102 O123 1.256 . S
C102 O124 1.244 . S
O103 Zn99 2.055 . S
O103 C125 1.259 . S
O104 Zn96 2.046 . S
O104 C125 1.254 . S
N105 Zn99 2.036 . S
N105 C106 1.298 . S
N105 N108 1.398 . S
C106 N105 1.298 . S
C106 N109 1.367 . S
C106 C119 1.481 . S
C107 N108 1.299 . S
C107 N109 1.379 . S
N108 N105 1.398 . S
N108 C107 1.299 . S
N109 C106 1.367 . S
N109 C107 1.379 . S
C110 N112 1.298 . S
C110 N114 1.367 . S
C110 C118 1.481 . S
C111 N113 1.299 . S
C111 N114 1.379 . S
N112 Zn96 2.036 . S
N112 C110 1.298 . S
N112 N113 1.398 . S
N113 C111 1.299 . S
N113 N112 1.398 . S
N114 C110 1.367 . S
N114 C111 1.379 . S
H115 C118 0.980 . S
H116 C118 0.981 1_545 S
H117 C118 0.981 1_545 S
C118 C110 1.481 . S
C118 H115 0.980 . S
C118 H116 0.981 1_565 S
C118 H117 0.981 1_565 S
C119 C106 1.481 . S
C119 H120 0.980 . S
C119 H121 0.981 . S
C119 H122 0.981 . S
H120 C119 0.980 . S
H121 C119 0.981 . S
H122 C119 0.981 . S
O123 Zn99 2.066 . S
O123 C102 1.256 . S
O124 Zn96 2.053 . S
O124 C102 1.244 . S
C125 O103 1.259 . S
C125 O104 1.254 . S
O126 Zn96 2.066 . S
O126 C98 1.256 . S
O127 C98 1.244 . S
O127 Zn99 2.053 . S
Zn128 O129 2.055 . S
Zn128 O136 2.046 . S
Zn128 N144 2.036 . S
Zn128 O156 2.053 . S
Zn128 O158 2.066 . S
O129 Zn128 2.055 . S
O129 C132 1.259 . S
C130 O158 1.256 . S
C130 O159 1.244 . S
Zn131 O133 2.046 . S
Zn131 O135 2.055 . S
Zn131 N137 2.036 . S
Zn131 O155 2.066 . S
Zn131 O159 2.053 . S
C132 O129 1.259 . S
C132 O133 1.254 . S
O133 Zn131 2.046 . S
O133 C132 1.254 . S
C134 O155 1.256 . S
C134 O156 1.244 . S
O135 Zn131 2.055 . S
O135 C157 1.259 . S
O136 Zn128 2.046 . S
O136 C157 1.254 . S
N137 Zn131 2.036 . S
N137 C138 1.298 . S
N137 N140 1.398 . S
C138 N137 1.298 . S
C138 N141 1.367 . S
C138 C151 1.481 . S
C139 N140 1.299 . S
C139 N141 1.379 . S
N140 N137 1.398 . S
N140 C139 1.299 . S
N141 C138 1.367 . S
N141 C139 1.379 . S
C142 N144 1.298 . S
C142 N146 1.367 . S
C142 C150 1.481 . S
C143 N145 1.299 . S
C143 N146 1.379 . S
N144 Zn128 2.036 . S
N144 C142 1.298 . S
N144 N145 1.398 . S
N145 C143 1.299 . S
N145 N144 1.398 . S
N146 C142 1.367 . S
N146 C143 1.379 . S
H147 C150 0.980 . S
H148 C150 0.981 . S
H149 C150 0.981 . S
C150 C142 1.481 . S
C150 H147 0.980 . S
C150 H148 0.981 . S
C150 H149 0.981 . S
C151 C138 1.481 . S
C151 H152 0.980 . S
C151 H153 0.981 . S
C151 H154 0.981 . S
H152 C151 0.980 . S
H153 C151 0.981 . S
H154 C151 0.981 . S
O155 Zn131 2.066 . S
O155 C134 1.256 . S
O156 Zn128 2.053 . S
O156 C134 1.244 . S
C157 O135 1.259 . S
C157 O136 1.254 . S
O158 Zn128 2.066 . S
O158 C130 1.256 . S
O159 C130 1.244 . S
O159 Zn131 2.053 . S
Zn160 O161 2.055 . S
Zn160 O168 2.046 . S
Zn160 N176 2.036 . S
Zn160 O188 2.053 . S
Zn160 O190 2.066 . S
O161 Zn160 2.055 . S
O161 C164 1.259 . S
C162 O190 1.256 . S
C162 O191 1.244 . S
Zn163 O165 2.046 . S
Zn163 O167 2.055 . S
Zn163 N169 2.036 . S
Zn163 O187 2.066 . S
Zn163 O191 2.053 . S
C164 O161 1.259 . S
C164 O165 1.254 . S
O165 Zn163 2.046 . S
O165 C164 1.254 . S
C166 O187 1.256 . S
C166 O188 1.244 . S
O167 Zn163 2.055 . S
O167 C189 1.259 . S
O168 Zn160 2.046 . S
O168 C189 1.254 . S
N169 Zn163 2.036 . S
N169 C170 1.298 . S
N169 N172 1.398 . S
C170 N169 1.298 . S
C170 N173 1.367 . S
C170 C183 1.481 . S
C171 N172 1.299 . S
C171 N173 1.379 . S
N172 N169 1.398 . S
N172 C171 1.299 . S
N173 C170 1.367 . S
N173 C171 1.379 . S
C174 N176 1.298 . S
C174 N178 1.367 . S
C174 C182 1.481 . S
C175 N177 1.299 . S
C175 N178 1.379 . S
N176 Zn160 2.036 . S
N176 C174 1.298 . S
N176 N177 1.398 . S
N177 C175 1.299 . S
N177 N176 1.398 . S
N178 C174 1.367 . S
N178 C175 1.379 . S
H179 C182 0.980 . S
H180 C182 0.981 1_655 S
H181 C182 0.981 1_655 S
C182 C174 1.481 . S
C182 H179 0.980 . S
C182 H180 0.981 1_455 S
C182 H181 0.981 1_455 S
C183 C170 1.481 . S
C183 H184 0.980 . S
C183 H185 0.981 . S
C183 H186 0.981 . S
H184 C183 0.980 . S
H185 C183 0.981 . S
H186 C183 0.981 . S
O187 Zn163 2.066 . S
O187 C166 1.256 . S
O188 Zn160 2.053 . S
O188 C166 1.244 . S
C189 O167 1.259 . S
C189 O168 1.254 . S
O190 Zn160 2.066 . S
O190 C162 1.256 . S
O191 C162 1.244 . S
O191 Zn163 2.053 . S
H192 C198 0.930 . S
H193 C201 0.930 1_554 S
H194 C202 0.929 1_554 S
H195 C203 0.930 1_554 S
H196 C206 0.930 . S
H197 C207 0.930 . S
C198 H192 0.930 . S
C198 C199 1.355 . S
C198 C200 1.415 1_545 S
C199 C198 1.355 . S
C199 C201 1.419 . S
C200 C198 1.415 1_565 S
C200 C205 1.425 . S
C200 C207 1.409 . S
C201 H193 0.930 1_556 S
C201 C199 1.419 . S
C201 C202 1.363 1_545 S
C202 H194 0.929 1_556 S
C202 C201 1.363 1_565 S
C202 C205 1.410 . S
C203 H195 0.930 1_556 S
C203 C204 1.355 . S
C203 C205 1.415 . S
C204 C203 1.355 . S
C204 C206 1.419 . S
C205 C200 1.425 . S
C205 C202 1.410 . S
C205 C203 1.415 . S
C206 H196 0.930 . S
C206 C204 1.419 . S
C206 C207 1.362 . S
C207 H197 0.930 . S
C207 C200 1.409 . S
C207 C206 1.362 . S
H208 C214 0.930 . S
H209 C217 0.930 . S
H210 C218 0.930 . S
H211 C219 0.930 . S
H212 C222 0.930 . S
H213 C223 0.930 . S
C214 H208 0.930 . S
C214 C215 1.355 . S
C214 C216 1.415 . S
C215 C214 1.355 . S
C215 C217 1.419 . S
C216 C214 1.415 . S
C216 C221 1.425 . S
C216 C223 1.409 . S
C217 H209 0.930 . S
C217 C215 1.419 . S
C217 C218 1.362 . S
C218 H210 0.930 . S
C218 C217 1.362 . S
C218 C221 1.409 . S
C219 H211 0.930 . S
C219 C220 1.355 . S
C219 C221 1.415 . S
C220 C219 1.355 . S
C220 C222 1.419 . S
C221 C216 1.425 . S
C221 C218 1.409 . S
C221 C219 1.415 . S
C222 H212 0.930 . S
C222 C220 1.419 . S
C222 C223 1.362 . S
C223 H213 0.930 . S
C223 C216 1.409 . S
C223 C222 1.362 . S
H224 C230 0.930 . S
H225 C233 0.930 . S
H226 C234 0.930 . S
H227 C235 0.930 . S
H228 C238 0.930 . S
H229 C239 0.930 . S
C230 H224 0.930 . S
C230 C231 1.355 . S
C230 C232 1.415 1_655 S
C231 C230 1.355 . S
C231 C233 1.419 . S
C232 C230 1.415 1_455 S
C232 C237 1.425 . S
C232 C239 1.409 . S
C233 H225 0.930 . S
C233 C231 1.419 . S
C233 C234 1.362 1_655 S
C234 H226 0.930 . S
C234 C233 1.362 1_455 S
C234 C237 1.409 . S
C235 H227 0.930 . S
C235 C236 1.355 . S
C235 C237 1.415 . S
C236 C235 1.355 . S
C236 C238 1.419 . S
C237 C232 1.425 . S
C237 C234 1.409 . S
C237 C235 1.415 . S
C238 H228 0.930 . S
C238 C236 1.419 . S
C238 C239 1.362 . S
C239 H229 0.930 . S
C239 C232 1.409 . S
C239 C238 1.362 . S
H240 C246 0.930 . S
H241 C249 0.930 . S
H242 C250 0.930 . S
H243 C251 0.930 . S
H244 C254 0.930 . S
H245 C255 0.930 . S
C246 H240 0.930 . S
C246 C247 1.355 . S
C246 C248 1.415 . S
C247 C246 1.355 . S
C247 C249 1.419 . S
C248 C246 1.415 . S
C248 C253 1.425 . S
C248 C255 1.409 . S
C249 H241 0.930 . S
C249 C247 1.419 . S
C249 C250 1.362 . S
C250 H242 0.930 . S
C250 C249 1.362 . S
C250 C253 1.409 . S
C251 H243 0.930 . S
C251 C252 1.355 . S
C251 C253 1.415 1_565 S
C252 C251 1.355 . S
C252 C254 1.419 . S
C253 C248 1.425 . S
C253 C250 1.409 . S
C253 C251 1.415 1_545 S
C254 H244 0.930 . S
C254 C252 1.419 . S
C254 C255 1.362 1_565 S
C255 H245 0.930 . S
C255 C248 1.409 . S
C255 C254 1.362 1_545 S
H256 C262 0.930 . S
H257 C265 0.930 . S
H258 C266 0.930 . S
H259 C267 0.930 . S
H260 C270 0.930 . S
H261 C271 0.930 . S
C262 H256 0.930 . S
C262 C263 1.355 . S
C262 C264 1.415 . S
C263 C262 1.355 . S
C263 C265 1.419 . S
C264 C262 1.415 . S
C264 C269 1.425 . S
C264 C271 1.409 . S
C265 H257 0.930 . S
C265 C263 1.419 . S
C265 C266 1.362 . S
C266 H258 0.930 . S
C266 C265 1.362 . S
C266 C269 1.409 . S
C267 H259 0.930 . S
C267 C268 1.355 . S
C267 C269 1.415 . S
C268 C267 1.355 . S
C268 C270 1.419 . S
C269 C264 1.425 . S
C269 C266 1.409 . S
C269 C267 1.415 . S
C270 H260 0.930 . S
C270 C268 1.419 . S
C270 C271 1.362 . S
C271 H261 0.930 . S
C271 C264 1.409 . S
C271 C270 1.362 . S
H272 C278 0.930 . S
H273 C281 0.930 . S
H274 C282 0.930 . S
H275 C283 0.930 . S
H276 C286 0.930 . S
H277 C287 0.930 . S
C278 H272 0.930 . S
C278 C279 1.355 . S
C278 C280 1.415 1_455 S
C279 C278 1.355 . S
C279 C281 1.419 . S
C280 C278 1.415 1_655 S
C280 C285 1.425 . S
C280 C287 1.409 . S
C281 H273 0.930 . S
C281 C279 1.419 . S
C281 C282 1.362 1_455 S
C282 H274 0.930 . S
C282 C281 1.362 1_655 S
C282 C285 1.409 . S
C283 H275 0.930 . S
C283 C284 1.355 . S
C283 C285 1.415 . S
C284 C283 1.355 . S
C284 C286 1.419 . S
C285 C280 1.425 . S
C285 C282 1.409 . S
C285 C283 1.415 . S
C286 H276 0.930 . S
C286 C284 1.419 . S
C286 C287 1.362 . S
C287 H277 0.930 . S
C287 C280 1.409 . S
C287 C286 1.362 . S
H288 C294 0.930 . S
H289 C297 0.930 . S
H290 C298 0.930 . S
H291 C299 0.930 . S
H292 C302 0.930 . S
H293 C303 0.930 . S
C294 H288 0.930 . S
C294 C295 1.355 . S
C294 C296 1.415 . S
C295 C294 1.355 . S
C295 C297 1.419 . S
C296 C294 1.415 . S
C296 C301 1.425 1_545 S
C296 C303 1.409 . S
C297 H289 0.930 . S
C297 C295 1.419 . S
C297 C298 1.362 1_545 S
C298 H290 0.930 . S
C298 C297 1.362 1_565 S
C298 C301 1.409 . S
C299 H291 0.930 . S
C299 C300 1.355 . S
C299 C301 1.415 . S
C300 C299 1.355 . S
C300 C302 1.419 1_565 S
C301 C296 1.425 1_565 S
C301 C298 1.409 . S
C301 C299 1.415 . S
C302 H292 0.930 . S
C302 C300 1.419 1_545 S
C302 C303 1.362 . S
C303 H293 0.930 . S
C303 C296 1.409 . S
C303 C302 1.362 . S
H304 C310 0.930 . S
H305 C313 0.930 . S
H306 C314 0.930 . S
H307 C315 0.930 . S
H308 C318 0.930 . S
H309 C319 0.930 . S
C310 H304 0.930 . S
C310 C311 1.355 . S
C310 C312 1.415 . S
C311 C310 1.355 . S
C311 C313 1.419 . S
C312 C310 1.415 . S
C312 C317 1.425 . S
C312 C319 1.409 . S
C313 H305 0.930 . S
C313 C311 1.419 . S
C313 C314 1.362 . S
C314 H306 0.930 . S
C314 C313 1.362 . S
C314 C317 1.409 . S
C315 H307 0.930 . S
C315 C316 1.355 . S
C315 C317 1.415 . S
C316 C315 1.355 . S
C316 C318 1.419 . S
C317 C312 1.425 . S
C317 C314 1.409 . S
C317 C315 1.415 . S
C318 H308 0.930 . S
C318 C316 1.419 . S
C318 C319 1.362 . S
C319 H309 0.930 . S
C319 C312 1.409 . S
C319 C318 1.362 . S
H320 C326 0.930 . S
H321 C329 0.930 . S
H322 C330 0.930 . S
H323 C331 0.930 1_455 S
H324 C334 0.930 . S
H325 C335 0.930 . S
C326 H320 0.930 . S
C326 C327 1.355 1_655 S
C326 C328 1.415 . S
C327 C326 1.355 1_455 S
C327 C329 1.419 . S
C328 C326 1.415 . S
C328 C333 1.425 1_655 S
C328 C335 1.409 . S
C329 H321 0.930 . S
C329 C327 1.419 . S
C329 C330 1.362 . S
C330 H322 0.930 . S
C330 C329 1.362 . S
C330 C333 1.409 . S
C331 H323 0.930 1_655 S
C331 C332 1.355 . S
C331 C333 1.415 1_655 S
C332 C331 1.355 . S
C332 C334 1.419 . S
C333 C328 1.425 1_455 S
C333 C330 1.409 . S
C333 C331 1.415 1_455 S
C334 H324 0.930 . S
C334 C332 1.419 . S
C334 C335 1.362 . S
C335 H325 0.930 . S
C335 C328 1.409 . S
C335 C334 1.362 . S
H336 C342 0.930 . S
H337 C345 0.930 1_545 S
H338 C346 0.930 . S
H339 C347 0.930 . S
H340 C350 0.930 . S
H341 C351 0.930 . S
C342 H336 0.930 . S
C342 C343 1.355 . S
C342 C344 1.415 . S
C343 C342 1.355 . S
C343 C345 1.419 . S
C344 C342 1.415 . S
C344 C349 1.425 1_565 S
C344 C351 1.409 . S
C345 H337 0.930 1_565 S
C345 C343 1.419 . S
C345 C346 1.362 1_565 S
C346 H338 0.930 . S
C346 C345 1.362 1_545 S
C346 C349 1.409 . S
C347 H339 0.930 . S
C347 C348 1.355 . S
C347 C349 1.415 . S
C348 C347 1.355 . S
C348 C350 1.419 1_545 S
C349 C344 1.425 1_545 S
C349 C346 1.409 . S
C349 C347 1.415 . S
C350 H340 0.930 . S
C350 C348 1.419 1_565 S
C350 C351 1.362 . S
C351 H341 0.930 . S
C351 C344 1.409 . S
C351 C350 1.362 . S
H352 C358 0.930 . S
H353 C361 0.930 . S
H354 C362 0.930 . S
H355 C363 0.930 . S
H356 C366 0.930 . S
H357 C367 0.930 . S
C358 H352 0.930 . S
C358 C359 1.355 1_556 S
C358 C360 1.415 . S
C359 C358 1.355 1_554 S
C359 C361 1.419 . S
C360 C358 1.415 . S
C360 C365 1.425 . S
C360 C367 1.409 . S
C361 H353 0.930 . S
C361 C359 1.419 . S
C361 C362 1.362 1_554 S
C362 H354 0.930 . S
C362 C361 1.362 1_556 S
C362 C365 1.409 . S
C363 H355 0.930 . S
C363 C364 1.355 . S
C363 C365 1.415 . S
C364 C363 1.355 . S
C364 C366 1.419 . S
C365 C360 1.425 . S
C365 C362 1.409 . S
C365 C363 1.415 . S
C366 H356 0.930 . S
C366 C364 1.419 . S
C366 C367 1.362 . S
C367 H357 0.930 . S
C367 C360 1.409 . S
C367 C366 1.362 . S
H368 C374 0.930 . S
H369 C377 0.930 . S
H370 C378 0.930 1_655 S
H371 C379 0.930 . S
H372 C382 0.930 . S
H373 C383 0.930 . S
C374 H368 0.930 . S
C374 C375 1.355 1_554 S
C374 C376 1.415 . S
C375 C374 1.355 1_556 S
C375 C377 1.419 . S
C376 C374 1.415 . S
C376 C381 1.425 . S
C376 C383 1.409 . S
C377 H369 0.930 . S
C377 C375 1.419 . S
C377 C378 1.362 1_556 S
C378 H370 0.930 1_455 S
C378 C377 1.362 1_554 S
C378 C381 1.409 . S
C379 H371 0.930 . S
C379 C380 1.355 . S
C379 C381 1.415 1_655 S
C380 C379 1.355 . S
C380 C382 1.419 . S
C381 C376 1.425 . S
C381 C378 1.409 . S
C381 C379 1.415 1_455 S
C382 H372 0.930 . S
C382 C380 1.419 . S
C382 C383 1.362 1_655 S
C383 H373 0.930 . S
C383 C376 1.409 . S
C383 C382 1.362 1_455 S
H384 C390 0.930 . S
H385 C393 0.930 . S
H386 C394 0.930 . S
H387 C395 0.930 . S
H388 C398 0.930 . S
H389 C399 0.930 . S
C390 H384 0.930 . S
C390 C391 1.355 . S
C390 C392 1.415 . S
C391 C390 1.355 . S
C391 C393 1.419 . S
C392 C390 1.415 . S
C392 C397 1.425 . S
C392 C399 1.409 . S
C393 H385 0.930 . S
C393 C391 1.419 . S
C393 C394 1.362 . S
C394 H386 0.930 . S
C394 C393 1.362 . S
C394 C397 1.409 . S
C395 H387 0.930 . S
C395 C396 1.355 . S
C395 C397 1.415 . S
C396 C395 1.355 . S
C396 C398 1.419 . S
C397 C392 1.425 . S
C397 C394 1.409 . S
C397 C395 1.415 . S
C398 H388 0.930 . S
C398 C396 1.419 . S
C398 C399 1.362 . S
C399 H389 0.930 . S
C399 C392 1.409 . S
C399 C398 1.362 . S
H400 C406 0.930 . S
H401 C409 0.930 . S
H402 C410 0.930 1_554 S
H403 C411 0.930 . S
H404 C414 0.930 . S
H405 C415 0.930 1_556 S
C406 H400 0.930 . S
C406 C407 1.355 . S
C406 C408 1.415 . S
C407 C406 1.355 . S
C407 C409 1.419 . S
C408 C406 1.415 . S
C408 C413 1.425 1_556 S
C408 C415 1.409 1_556 S
C409 H401 0.930 . S
C409 C407 1.419 . S
C409 C410 1.362 . S
C410 H402 0.930 1_556 S
C410 C409 1.362 . S
C410 C413 1.409 1_556 S
C411 H403 0.930 . S
C411 C412 1.355 . S
C411 C413 1.415 . S
C412 C411 1.355 . S
C412 C414 1.419 . S
C413 C408 1.425 1_554 S
C413 C410 1.409 1_554 S
C413 C411 1.415 . S
C414 H404 0.930 . S
C414 C412 1.419 . S
C414 C415 1.362 . S
C415 H405 0.930 1_554 S
C415 C408 1.409 1_554 S
C415 C414 1.362 . S
H416 C422 0.930 . S
H417 C425 0.930 . S
H418 C426 0.930 . S
H419 C427 0.930 . S
H420 C430 0.930 . S
H421 C431 0.930 . S
C422 H416 0.930 . S
C422 C423 1.355 . S
C422 C424 1.415 . S
C423 C422 1.355 . S
C423 C425 1.419 . S
C424 C422 1.415 . S
C424 C429 1.425 . S
C424 C431 1.409 . S
C425 H417 0.930 . S
C425 C423 1.419 . S
C425 C426 1.362 . S
C426 H418 0.930 . S
C426 C425 1.362 . S
C426 C429 1.409 . S
C427 H419 0.930 . S
C427 C428 1.355 . S
C427 C429 1.415 . S
C428 C427 1.355 . S
C428 C430 1.419 . S
C429 C424 1.425 . S
C429 C426 1.409 . S
C429 C427 1.415 . S
C430 H420 0.930 . S
C430 C428 1.419 . S
C430 C431 1.362 . S
C431 H421 0.930 . S
C431 C424 1.409 . S
C431 C430 1.362 . S
H432 C438 0.930 . S
H433 C441 0.930 . S
H434 C442 0.930 . S
H435 C443 0.930 . S
H436 C446 0.930 . S
H437 C447 0.930 . S
C438 H432 0.930 . S
C438 C439 1.355 . S
C438 C440 1.415 . S
C439 C438 1.355 . S
C439 C441 1.419 . S
C440 C438 1.415 . S
C440 C445 1.425 . S
C440 C447 1.409 . S
C441 H433 0.930 . S
C441 C439 1.419 . S
C441 C442 1.362 . S
C442 H434 0.930 . S
C442 C441 1.362 . S
C442 C445 1.409 . S
C443 H435 0.930 . S
C443 C444 1.355 . S
C443 C445 1.415 . S
C444 C443 1.355 . S
C444 C446 1.419 . S
C445 C440 1.425 . S
C445 C442 1.409 . S
C445 C443 1.415 . S
C446 H436 0.930 . S
C446 C444 1.419 . S
C446 C447 1.362 . S
C447 H437 0.930 . S
C447 C440 1.409 . S
C447 C446 1.362 . S
H448 C454 0.930 . S
H449 C457 0.930 . S
H450 C458 0.930 . S
H451 C459 0.930 . S
H452 C462 0.930 . S
H453 C463 0.930 . S
C454 H448 0.930 . S
C454 C455 1.355 . S
C454 C456 1.415 . S
C455 C454 1.355 . S
C455 C457 1.419 . S
C456 C454 1.415 . S
C456 C461 1.425 . S
C456 C463 1.409 . S
C457 H449 0.930 . S
C457 C455 1.419 . S
C457 C458 1.362 . S
C458 H450 0.930 . S
C458 C457 1.362 . S
C458 C461 1.409 . S
C459 H451 0.930 . S
C459 C460 1.355 . S
C459 C461 1.415 . S
C460 C459 1.355 . S
C460 C462 1.419 . S
C461 C456 1.425 . S
C461 C458 1.409 . S
C461 C459 1.415 . S
C462 H452 0.930 . S
C462 C460 1.419 . S
C462 C463 1.362 . S
C463 H453 0.930 . S
C463 C456 1.409 . S
C463 C462 1.362 . S
H464 C470 0.930 . S
H465 C473 0.930 . S
H466 C474 0.930 . S
H467 C475 0.930 . S
H468 C478 0.930 . S
H469 C479 0.930 . S
C470 H464 0.930 . S
C470 C471 1.355 . S
C470 C472 1.415 . S
C471 C470 1.355 . S
C471 C473 1.419 . S
C472 C470 1.415 . S
C472 C477 1.425 . S
C472 C479 1.409 . S
C473 H465 0.930 . S
C473 C471 1.419 . S
C473 C474 1.362 . S
C474 H466 0.930 . S
C474 C473 1.362 . S
C474 C477 1.409 . S
C475 H467 0.930 . S
C475 C476 1.355 . S
C475 C477 1.415 . S
C476 C475 1.355 . S
C476 C478 1.419 . S
C477 C472 1.425 . S
C477 C474 1.409 . S
C477 C475 1.415 . S
C478 H468 0.930 . S
C478 C476 1.419 . S
C478 C479 1.362 . S
C479 H469 0.930 . S
C479 C472 1.409 . S
C479 C478 1.362 . S
C199 C2 1.399 . S
C204 N173 1.420 . S
C215 C34 1.356 . S
C220 N13 1.386 . S
C231 C66 1.328 . S
C236 N45 1.368 . S
C247 N77 1.408 . S
C252 C98 1.384 . S
C263 N109 1.391 . S
C268 C130 1.348 . S
C279 C162 1.316 . S
C284 N141 1.363 . S
C295 C4 1.196 . S
C300 N114 1.165 . S
C311 C36 1.193 . S
C316 N146 1.155 . S
C327 N178 1.105 . S
C332 C68 1.127 . S
C343 C100 1.184 . S
C348 N18 1.185 . S
C359 N50 1.178 . S
C364 C132 1.198 . S
C375 C164 1.159 . S
C380 N82 1.163 . S
C391 C6 1.686 . S
C396 C157 1.570 . S
C407 C189 1.576 . S
C412 C38 1.673 . S
C423 C29 1.573 . S
C428 C70 1.674 . S
C439 C102 1.706 . S
C444 C61 1.625 . S
C455 C93 1.572 . S
C460 C134 1.674 . S
C471 C125 1.621 . S
C476 C166 1.679 . S
