# Generated by pormake.
# Topology nfb, (4)-cn, num edge types: 1
# Building blocks:
#     Node 0, Type 0, BuildingBlock: QUQFOY_clean_sbu_1, # of connection points: 4
#     Node 1, Type 0, BuildingBlock: QUQFOY_clean_sbu_1, # of connection points: 4
#     Node 2, Type 0, BuildingBlock: QUQFOY_clean_sbu_1, # of connection points: 4
#     Node 3, Type 0, BuildingBlock: QUQFOY_clean_sbu_1, # of connection points: 4
#     Node 4, Type 0, BuildingBlock: QUQFOY_clean_sbu_1, # of connection points: 4
#     Node 5, Type 0, BuildingBlock: QUQFOY_clean_sbu_1, # of connection points: 4
#     Node 6, Type 0, BuildingBlock: QUQFOY_clean_sbu_1, # of connection points: 4
#     Node 7, Type 0, BuildingBlock: QUQFOY_clean_sbu_1, # of connection points: 4
#     Node 8, Type 0, BuildingBlock: QUQFOY_clean_sbu_1, # of connection points: 4
#     Node 9, Type 0, BuildingBlock: QUQFOY_clean_sbu_1, # of connection points: 4
#     Node 10, Type 0, BuildingBlock: QUQFOY_clean_sbu_1, # of connection points: 4
#     Node 11, Type 0, BuildingBlock: QUQFOY_clean_sbu_1, # of connection points: 4
#     Node 12, Type 0, BuildingBlock: QUQFOY_clean_sbu_1, # of connection points: 4
#     Node 13, Type 0, BuildingBlock: QUQFOY_clean_sbu_1, # of connection points: 4
#     Node 14, Type 0, BuildingBlock: QUQFOY_clean_sbu_1, # of connection points: 4
#     Node 15, Type 0, BuildingBlock: QUQFOY_clean_sbu_1, # of connection points: 4
#     Node 16, Type 0, BuildingBlock: QUQFOY_clean_sbu_1, # of connection points: 4
#     Node 17, Type 0, BuildingBlock: QUQFOY_clean_sbu_1, # of connection points: 4
#     Node 18, Type 0, BuildingBlock: QUQFOY_clean_sbu_1, # of connection points: 4
#     Node 19, Type 0, BuildingBlock: QUQFOY_clean_sbu_1, # of connection points: 4
#     Node 20, Type 0, BuildingBlock: QUQFOY_clean_sbu_1, # of connection points: 4
#     Node 21, Type 0, BuildingBlock: QUQFOY_clean_sbu_1, # of connection points: 4
#     Node 22, Type 0, BuildingBlock: QUQFOY_clean_sbu_1, # of connection points: 4
#     Node 23, Type 0, BuildingBlock: QUQFOY_clean_sbu_1, # of connection points: 4
#     Node 24, Type 0, BuildingBlock: QUQFOY_clean_sbu_1, # of connection points: 4
#     Node 25, Type 0, BuildingBlock: QUQFOY_clean_sbu_1, # of connection points: 4
#     Node 26, Type 0, BuildingBlock: QUQFOY_clean_sbu_1, # of connection points: 4
#     Node 27, Type 0, BuildingBlock: QUQFOY_clean_sbu_1, # of connection points: 4
#     Node 28, Type 0, BuildingBlock: QUQFOY_clean_sbu_1, # of connection points: 4
#     Node 29, Type 0, BuildingBlock: QUQFOY_clean_sbu_1, # of connection points: 4
#     Node 30, Type 0, BuildingBlock: QUQFOY_clean_sbu_1, # of connection points: 4
#     Node 31, Type 0, BuildingBlock: QUQFOY_clean_sbu_1, # of connection points: 4
#     Node 32, Type 0, BuildingBlock: QUQFOY_clean_sbu_1, # of connection points: 4
#     Node 33, Type 0, BuildingBlock: QUQFOY_clean_sbu_1, # of connection points: 4
#     Node 34, Type 0, BuildingBlock: QUQFOY_clean_sbu_1, # of connection points: 4
#     Node 35, Type 0, BuildingBlock: QUQFOY_clean_sbu_1, # of connection points: 4
#     Node 36, Type 0, BuildingBlock: QUQFOY_clean_sbu_1, # of connection points: 4
#     Node 37, Type 0, BuildingBlock: QUQFOY_clean_sbu_1, # of connection points: 4
#     Node 38, Type 0, BuildingBlock: QUQFOY_clean_sbu_1, # of connection points: 4
#     Node 39, Type 0, BuildingBlock: QUQFOY_clean_sbu_1, # of connection points: 4
#     Node 40, Type 0, BuildingBlock: QUQFOY_clean_sbu_1, # of connection points: 4
#     Node 41, Type 0, BuildingBlock: QUQFOY_clean_sbu_1, # of connection points: 4
#     Node 42, Type 0, BuildingBlock: QUQFOY_clean_sbu_1, # of connection points: 4
#     Node 43, Type 0, BuildingBlock: QUQFOY_clean_sbu_1, # of connection points: 4
#     Node 44, Type 0, BuildingBlock: QUQFOY_clean_sbu_1, # of connection points: 4
#     Node 45, Type 0, BuildingBlock: QUQFOY_clean_sbu_1, # of connection points: 4
#     Node 46, Type 0, BuildingBlock: QUQFOY_clean_sbu_1, # of connection points: 4
#     Node 47, Type 0, BuildingBlock: QUQFOY_clean_sbu_1, # of connection points: 4
#     Edge 48, Type (0, 0), None
#     Edge 49, Type (0, 0), None
#     Edge 50, Type (0, 0), None
#     Edge 51, Type (0, 0), None
#     Edge 52, Type (0, 0), None
#     Edge 53, Type (0, 0), None
#     Edge 54, Type (0, 0), None
#     Edge 55, Type (0, 0), None
#     Edge 56, Type (0, 0), None
#     Edge 57, Type (0, 0), None
#     Edge 58, Type (0, 0), None
#     Edge 59, Type (0, 0), None
#     Edge 60, Type (0, 0), None
#     Edge 61, Type (0, 0), None
#     Edge 62, Type (0, 0), None
#     Edge 63, Type (0, 0), None
#     Edge 64, Type (0, 0), None
#     Edge 65, Type (0, 0), None
#     Edge 66, Type (0, 0), None
#     Edge 67, Type (0, 0), None
#     Edge 68, Type (0, 0), None
#     Edge 69, Type (0, 0), None
#     Edge 70, Type (0, 0), None
#     Edge 71, Type (0, 0), None
#     Edge 72, Type (0, 0), None
#     Edge 73, Type (0, 0), None
#     Edge 74, Type (0, 0), None
#     Edge 75, Type (0, 0), None
#     Edge 76, Type (0, 0), None
#     Edge 77, Type (0, 0), None
#     Edge 78, Type (0, 0), None
#     Edge 79, Type (0, 0), None
#     Edge 80, Type (0, 0), None
#     Edge 81, Type (0, 0), None
#     Edge 82, Type (0, 0), None
#     Edge 83, Type (0, 0), None
#     Edge 84, Type (0, 0), None
#     Edge 85, Type (0, 0), None
#     Edge 86, Type (0, 0), None
#     Edge 87, Type (0, 0), None
#     Edge 88, Type (0, 0), None
#     Edge 89, Type (0, 0), None
#     Edge 90, Type (0, 0), None
#     Edge 91, Type (0, 0), None
#     Edge 92, Type (0, 0), None
#     Edge 93, Type (0, 0), None
#     Edge 94, Type (0, 0), None
#     Edge 95, Type (0, 0), None
#     Edge 96, Type (0, 0), None
#     Edge 97, Type (0, 0), None
#     Edge 98, Type (0, 0), None
#     Edge 99, Type (0, 0), None
#     Edge 100, Type (0, 0), None
#     Edge 101, Type (0, 0), None
#     Edge 102, Type (0, 0), None
#     Edge 103, Type (0, 0), None
#     Edge 104, Type (0, 0), None
#     Edge 105, Type (0, 0), None
#     Edge 106, Type (0, 0), None
#     Edge 107, Type (0, 0), None
#     Edge 108, Type (0, 0), None
#     Edge 109, Type (0, 0), None
#     Edge 110, Type (0, 0), None
#     Edge 111, Type (0, 0), None
#     Edge 112, Type (0, 0), None
#     Edge 113, Type (0, 0), None
#     Edge 114, Type (0, 0), None
#     Edge 115, Type (0, 0), None
#     Edge 116, Type (0, 0), None
#     Edge 117, Type (0, 0), None
#     Edge 118, Type (0, 0), None
#     Edge 119, Type (0, 0), None
#     Edge 120, Type (0, 0), None
#     Edge 121, Type (0, 0), None
#     Edge 122, Type (0, 0), None
#     Edge 123, Type (0, 0), None
#     Edge 124, Type (0, 0), None
#     Edge 125, Type (0, 0), None
#     Edge 126, Type (0, 0), None
#     Edge 127, Type (0, 0), None
#     Edge 128, Type (0, 0), None
#     Edge 129, Type (0, 0), None
#     Edge 130, Type (0, 0), None
#     Edge 131, Type (0, 0), None
#     Edge 132, Type (0, 0), None
#     Edge 133, Type (0, 0), None
#     Edge 134, Type (0, 0), None
#     Edge 135, Type (0, 0), None
#     Edge 136, Type (0, 0), None
#     Edge 137, Type (0, 0), None
#     Edge 138, Type (0, 0), None
#     Edge 139, Type (0, 0), None
#     Edge 140, Type (0, 0), None
#     Edge 141, Type (0, 0), None
#     Edge 142, Type (0, 0), None
#     Edge 143, Type (0, 0), None
# Relax obj value: 0.345
# Max RMSD: 0.143
# Mean RMSD: 0.110
data_MOF--net-nfb--node1-QUQFOY_clean_sbu_1--edge1-none
_symmetry_space_group_name_H-M    P1
_symmetry_Int_Tables_number       1
_symmetry_cell_setting            triclinic
loop_
_symmetry_equiv_pos_as_xyz
'x, y, z'
_cell_length_a     26.369655
_cell_length_b     26.305425
_cell_length_c     25.797627
_cell_angle_alpha  91.016212
_cell_angle_beta   91.422573
_cell_angle_gamma 90.986916
loop_
_atom_site_label
_atom_site_type_symbol
_atom_site_fract_x
_atom_site_fract_y
_atom_site_fract_z
_atom_type_partial_charge
O0 O 0.09558 0.17275 0.54745 0.0
Cd1 Cd 0.16503 0.20464 0.56199 0.0
Cd2 Cd 0.19962 0.16331 0.48733 0.0
O3 O 0.12 0.18522 0.46794 0.0
O4 O 0.16653 0.27232 0.59706 0.0
O5 O 0.1768 0.26146 0.51255 0.0
C6 C 0.1766 0.29112 0.55264 0.0
C7 C 0.28348 0.20804 0.48284 0.0
C8 C 0.08368 0.17802 0.50006 0.0
C9 C 0.217 0.11165 0.5803 0.0
O10 O 0.19922 0.09897 0.53567 0.0
O11 O 0.2217 0.15854 0.59047 0.0
O12 O 0.26617 0.17873 0.44538 0.0
O13 O 0.25391 0.21384 0.52077 0.0
O14 O 0.32644 0.78344 0.94159 0.0
Cd15 Cd 0.32336 0.71294 0.9737 0.0
Cd16 Cd 0.33533 0.66982 0.87264 0.0
O17 O 0.33901 0.75356 0.86165 0.0
O18 O 0.35045 0.70778 1.04583 0.0
O19 O 0.38242 0.66692 0.97911 0.0
C20 C 0.3814 0.67454 1.02825 0.0
C21 C 0.38812 0.59683 0.85575 0.0
C22 C 0.33175 0.79144 0.89359 0.0
C23 C 0.23968 0.64864 0.93657 0.0
O24 O 0.26656 0.64084 0.89716 0.0
O25 O 0.25376 0.67964 0.97224 0.0
O26 O 0.35443 0.61021 0.82165 0.0
O27 O 0.39649 0.62808 0.89392 0.0
O28 O 0.9953 0.9802 0.5166 0.0
Cd29 Cd 0.92696 0.96014 0.54069 0.0
Cd30 Cd 0.88924 1.03885 0.51403 0.0
O31 O 0.95563 1.03152 0.4633 0.0
O32 O 0.91793 0.88664 0.53653 0.0
O33 O 0.88454 0.9385 0.47803 0.0
C34 C 0.89248 0.89313 0.49393 0.0
C35 C 0.79941 1.01093 0.51724 0.0
C36 C 0.99672 1.00933 0.47827 0.0
C37 C 0.92497 1.03947 0.61711 0.0
O38 O 0.9212 0.0714 0.58098 0.0
O39 O 0.90409 0.99613 0.60875 0.0
O40 O 0.81367 1.0499 0.49085 0.0
O41 O 0.83478 0.9868 0.54036 0.0
O42 O 0.715 0.2427 0.97987 0.0
Cd43 Cd 0.76274 0.30594 0.97397 0.0
Cd44 Cd 0.67733 0.34244 0.90229 0.0
O45 O 0.65747 0.26484 0.91979 0.0
O46 O 0.78769 0.34742 1.03689 0.0
O47 O 0.72889 0.37077 0.98104 0.0
C48 C 0.75618 0.38127 1.02137 0.0
C49 C 0.62769 0.41714 0.91577 0.0
C50 C 0.67493 0.2326 0.9527 0.0
C51 C 0.79802 0.34923 0.88368 0.0
O52 O 0.75223 0.36453 0.88013 0.0
O53 O 0.80954 0.31295 0.91324 0.0
O54 O 0.63241 0.39875 0.86948 0.0
O55 O 0.64334 0.38947 0.95307 0.0
O56 O 0.31153 0.89246 0.6297 0.0
Cd57 Cd 0.2362 0.88713 0.63732 0.0
Cd58 Cd 0.23793 0.88075 0.74275 0.0
O59 O 0.31406 0.90601 0.71489 0.0
O60 O 0.19493 0.89501 0.57431 0.0
O61 O 0.20008 0.95537 0.63484 0.0
C62 C 0.17852 0.93695 0.59331 0.0
C63 C 0.15434 0.92014 0.74385 0.0
C64 C 0.33682 0.90366 0.67077 0.0
C65 C 0.20424 0.78919 0.69616 0.0
O66 O 0.22453 0.80315 0.73948 0.0
O67 O 0.20519 0.81825 0.65746 0.0
O68 O 0.18168 0.92047 0.78612 0.0
O69 O 0.17506 0.9011 0.70421 0.0
O70 O 0.55706 0.66362 0.10852 0.0
Cd71 Cd 0.6229 0.68725 0.14766 0.0
Cd72 Cd 0.67669 0.65523 0.06613 0.0
O73 O 0.60466 0.68232 1.04601 0.0
O74 O 0.63709 0.75783 0.18595 0.0
O75 O 0.6483 0.74734 0.10301 0.0
C76 C 0.65133 0.77704 0.14269 0.0
C77 C 0.74528 0.70617 0.08315 0.0
C78 C 0.5671 0.65672 1.06122 0.0
C79 C 0.67522 0.57796 0.14302 0.0
O80 O 0.68542 0.58564 0.09597 0.0
O81 O 0.65675 0.61413 0.17107 0.0
O82 O 0.73553 0.69053 1.03628 0.0
O83 O 0.71714 0.69168 0.12009 0.0
O84 O 0.94595 0.29206 0.79803 0.0
Cd85 Cd 0.98622 0.31929 0.74046 0.0
Cd86 Cd 0.05906 0.22578 0.7646 0.0
O87 O 0.9772 0.21529 0.78167 0.0
O88 O 0.95194 0.34894 0.6784 0.0
O89 O 0.97583 0.26882 0.68235 0.0
C90 C 0.95798 0.30558 0.65569 0.0
C91 C 0.13841 0.19007 0.79354 0.0
C92 C 0.93992 0.2443 0.79463 0.0
C93 C 0.07702 0.31459 0.70641 0.0
O94 O 0.0742 0.26693 0.69883 0.0
O95 O 0.06143 0.33213 0.74895 0.0
O96 O 0.12207 0.23201 0.81358 0.0
O97 O 0.10712 0.16525 0.76254 0.0
O98 O 0.5464 0.42291 1.06407 0.0
Cd99 Cd 0.51285 0.40194 0.1344 0.0
Cd100 Cd 0.44968 0.45314 0.09381 0.0
O101 O 0.4713 0.40328 1.03585 0.0
O102 O 0.51672 0.32583 0.15874 0.0
O103 O 0.45203 0.35147 0.11296 0.0
C104 C 0.47439 0.31428 0.13446 0.0
C105 C 0.38277 0.45208 0.14869 0.0
C106 C 0.51566 0.41791 1.02549 0.0
C107 C 0.50191 0.5162 0.15693 0.0
O108 O 0.4961 0.51333 0.1083 0.0
O109 O 0.50317 0.47386 0.18164 0.0
O110 O 0.37922 0.47455 0.10477 0.0
O111 O 0.42264 0.42707 0.15993 0.0
O112 O 0.39878 0.07891 0.18535 0.0
Cd113 Cd 0.44353 0.14024 0.19548 0.0
Cd114 Cd 0.44126 0.17082 0.10418 0.0
O115 O 0.40057 0.09568 0.10248 0.0
O116 O 0.46698 0.13442 0.26743 0.0
O117 O 0.42042 0.19873 0.24107 0.0
C118 C 0.44572 0.17685 0.27733 0.0
C119 C 0.45495 0.26026 0.12629 0.0
C120 C 0.39044 0.0645 0.13903 0.0
C121 C 0.53421 0.13354 0.11973 0.0
O122 O 0.50948 0.14981 0.08099 0.0
O123 O 0.51409 0.13074 0.16395 0.0
O124 O 0.42957 0.24582 0.08458 0.0
O125 O 0.46677 0.225 0.1582 0.0
O126 O 0.3942 0.96097 0.63184 0.0
Cd127 Cd 0.42862 1.02454 0.66317 0.0
Cd128 Cd 0.49511 0.95844 0.71176 0.0
O129 O 0.42525 0.91606 0.69716 0.0
O130 O 0.44359 0.09495 0.64104 0.0
O131 O 0.50162 1.03811 0.66349 0.0
C132 C 0.48974 0.08479 0.65572 0.0
C133 C 0.58581 0.9373 0.71563 0.0
C134 C 0.38914 0.92523 0.66437 0.0
C135 C 0.42735 1.01853 0.77438 0.0
O136 O 0.47434 1.00884 0.76989 0.0
O137 O 0.40009 1.02663 0.7346 0.0
O138 O 0.55267 0.92126 0.74759 0.0
O139 O 0.56786 0.96277 0.67731 0.0
O140 O 0.71012 1.01451 0.18442 0.0
Cd141 Cd 0.67086 0.95694 0.21695 0.0
Cd142 Cd 0.66814 0.91905 0.11892 0.0
O143 O 0.71361 0.98509 0.10419 0.0
O144 O 0.64695 1.00007 0.27375 0.0
O145 O 0.68987 0.9305 0.28872 0.0
C146 C 0.66495 0.96856 0.30616 0.0
C147 C 0.66686 0.83139 0.13587 0.0
C148 C 0.72116 1.02121 0.13758 0.0
C149 C 0.57268 0.94284 0.14889 0.0
O150 O 0.59492 0.93715 0.10648 0.0
O151 O 0.59753 0.94566 0.19152 0.0
O152 O 0.67441 0.84831 0.08966 0.0
O153 O 0.66856 0.86405 0.17404 0.0
O154 O 0.87849 0.17895 0.77876 0.0
Cd155 Cd 0.81476 0.13399 0.76326 0.0
Cd156 Cd 0.7694 0.24115 0.80507 0.0
O157 O 0.84932 0.256 0.79884 0.0
O158 O 0.82408 0.07936 0.81219 0.0
O159 O 0.817 0.06854 0.72614 0.0
C160 C 0.8134 1.05066 0.77237 0.0
C161 C 0.68882 0.26511 0.76911 0.0
C162 C 0.88637 0.22513 0.79246 0.0
C163 C 0.73558 0.14461 0.82586 0.0
O164 O 0.75614 0.18089 0.85195 0.0
O165 O 0.73977 0.14497 0.77728 0.0
O166 O 0.70733 0.28758 0.81061 0.0
O167 O 0.71954 0.23654 0.74381 0.0
O168 O 0.35611 0.98258 0.81476 0.0
Cd169 Cd 0.32767 0.96359 0.88592 0.0
Cd170 Cd 0.41907 0.90592 0.8606 0.0
O171 O 0.42802 0.98324 0.85631 0.0
O172 O 0.29199 1.02905 0.91006 0.0
O173 O 0.36783 1.00685 0.93812 0.0
C174 C 0.33378 1.04142 0.93473 0.0
C175 C 0.49444 0.8682 0.86009 0.0
C176 C 0.40128 0.99991 0.81965 0.0
C177 C 0.33415 0.84612 0.87692 0.0
O178 O 0.36079 0.85696 0.83865 0.0
O179 O 0.32019 0.88312 0.90656 0.0
O180 O 0.47326 0.88237 0.81734 0.0
O181 O 0.47162 0.87432 0.90347 0.0
O182 O 0.56235 0.95552 0.46375 0.0
Cd183 Cd 0.62733 0.99032 0.44464 0.0
Cd184 Cd 0.65587 0.99669 0.54186 0.0
O185 O 0.58243 0.95654 0.54702 0.0
O186 O 0.6138 1.00239 0.37095 0.0
O187 O 0.67702 0.95448 0.39762 0.0
C188 C 0.65204 0.97501 0.3602 0.0
C189 C 0.74475 0.99696 0.52487 0.0
C190 C 0.54976 0.94777 0.50988 0.0
C191 C 0.63538 0.09196 0.50897 0.0
O192 O 0.64128 0.07099 0.55238 0.0
O193 O 0.63262 0.06574 0.46703 0.0
O194 O 0.72807 0.98455 0.56997 0.0
O195 O 0.71149 1.00109 0.48783 0.0
O196 O 0.742 0.08939 0.89482 0.0
Cd197 Cd 0.69587 0.06628 0.94978 0.0
Cd198 Cd 0.61957 0.09284 0.90084 0.0
O199 O 0.67377 0.08227 0.8441 0.0
O200 O 0.70502 0.99433 0.98232 0.0
O201 O 0.65823 1.00778 0.91227 0.0
C202 C 0.67685 0.97576 0.94438 0.0
C203 C 0.55969 1.04569 0.9457 0.0
C204 C 0.71924 0.0985 0.85218 0.0
C205 C 0.65471 0.17913 0.95103 0.0
O206 O 0.62277 0.16736 0.91526 0.0
O207 O 0.67732 0.14353 0.97641 0.0
O208 O 0.55325 0.05565 0.89695 0.0
O209 O 0.60163 0.06019 0.96864 0.0
O210 O 0.52032 0.26269 0.43568 0.0
Cd211 Cd 0.46037 0.21769 0.41589 0.0
Cd212 Cd 0.42571 0.23001 0.50931 0.0
O213 O 0.4977 0.27176 0.51671 0.0
O214 O 0.49092 0.18566 0.3559 0.0
O215 O 0.41852 0.22669 0.34994 0.0
C216 C 0.45215 0.19864 0.32884 0.0
C217 C 0.33743 0.22719 0.48813 0.0
C218 C 0.53118 0.27677 0.4817 0.0
C219 C 0.44903 0.13053 0.49538 0.0
O220 O 0.43916 0.15886 0.53369 0.0
O221 O 0.4553 0.14912 0.45103 0.0
O222 O 0.35471 0.2455 0.53237 0.0
O223 O 0.37021 0.21893 0.45257 0.0
O224 O 0.17117 0.38776 0.21545 0.0
Cd225 Cd 0.22638 0.33382 0.23288 0.0
Cd226 Cd 0.26587 0.41527 0.20333 0.0
O227 O 0.21703 0.44807 0.25172 0.0
O228 O 0.22351 0.30529 0.30659 0.0
O229 O 0.28254 0.35975 0.28315 0.0
C230 C 0.2621 0.33427 0.31968 0.0
C231 C 0.33958 0.44704 0.1808 0.0
C232 C 0.1763 0.43436 0.22867 0.0
C233 C 0.24335 0.33323 0.12406 0.0
O234 O 0.24051 0.37981 0.13659 0.0
O235 O 0.24613 0.30017 0.15993 0.0
O236 O 0.29897 0.47117 0.16891 0.0
O237 O 0.33865 0.41087 0.21403 0.0
O238 O 0.08369 0.53625 0.85116 0.0
Cd239 Cd 0.12151 0.53211 0.91999 0.0
Cd240 Cd 0.07931 0.62489 0.94418 0.0
O241 O 0.06708 0.61808 0.86169 0.0
O242 O 0.14808 0.46158 0.91741 0.0
O243 O 0.10496 0.49141 0.98292 0.0
C244 C 0.1296 0.45512 0.96251 0.0
C245 C 1.0464 0.60378 1.02565 0.0
C246 C 0.07315 0.57894 0.83208 0.0
C247 C 0.19067 0.62303 0.93921 0.0
O248 O 0.15313 0.64769 0.95525 0.0
O249 O 0.18563 0.57773 0.92185 0.0
O250 O 1.04413 0.65029 1.01023 0.0
O251 O 0.05796 0.57012 0.99137 0.0
O252 O 0.83862 0.85147 0.43154 0.0
Cd253 Cd 0.80256 0.78297 0.41763 0.0
Cd254 Cd 0.90034 0.75115 0.41468 0.0
O255 O 0.89969 0.8085 0.46885 0.0
O256 O 0.76048 0.77447 0.48547 0.0
O257 O 0.8277 0.73076 0.46743 0.0
C258 C 0.7954 0.74419 0.50127 0.0
C259 C 0.95454 0.68862 0.44237 0.0
C260 C 0.87588 0.84933 0.46324 0.0
C261 C 0.85089 0.7666 0.31197 0.0
O262 O 0.89281 0.76821 0.33721 0.0
O263 O 0.80895 0.76221 0.3364 0.0
O264 O 0.9706 0.73156 0.42554 0.0
O265 O 0.90665 0.67827 0.43948 0.0
O266 O 0.89959 0.47458 0.75306 0.0
Cd267 Cd 0.87526 0.4829 0.82417 0.0
Cd268 Cd 0.94667 0.42132 0.86999 0.0
O269 O 0.97059 0.45005 0.79328 0.0
O270 O 0.85754 0.55369 0.84257 0.0
O271 O 0.9294 0.51723 0.86666 0.0
C272 C 0.90041 0.55571 0.8681 0.0
C273 C 0.97878 0.43888 0.95924 0.0
C274 C 0.94635 0.46545 0.75211 0.0
C275 C 0.83892 0.38256 0.86484 0.0
O276 O 0.88525 0.36955 0.86911 0.0
O277 O 0.82764 0.42759 0.85221 0.0
O278 O 1.00158 0.40732 0.92909 0.0
O279 O 0.9405 0.46129 0.93896 0.0
O280 O 0.29007 0.45355 0.55876 0.0
Cd281 Cd 0.21862 0.4282 0.539 0.0
Cd282 Cd 0.28153 0.39386 0.45496 0.0
O283 O 0.31131 0.37806 0.53464 0.0
O284 O 0.1858 0.37649 0.58453 0.0
O285 O 0.21373 0.35864 0.50691 0.0
C286 C 0.19166 0.34397 0.54775 0.0
C287 C 0.27598 0.34646 0.37517 0.0
C288 C 0.31366 0.41379 0.5695 0.0
C289 C 0.1976 0.47394 0.44492 0.0
O290 O 0.24348 0.4615 0.43737 0.0
O291 O 0.17893 0.46876 0.48925 0.0
O292 O 0.31545 0.37452 0.38738 0.0
O293 O 0.24372 0.33877 0.41116 0.0
O294 O 0.83987 0.71886 0.23381 0.0
Cd295 Cd 0.86615 0.69108 0.16336 0.0
Cd296 Cd 0.86592 0.79205 0.14416 0.0
O297 O 0.87582 0.79492 0.22687 0.0
O298 O 0.85561 0.61727 0.16567 0.0
O299 O 0.93168 0.65412 0.15914 0.0
C300 C 0.90356 0.61344 0.15878 0.0
C301 C 0.90619 0.77669 1.06382 0.0
C302 C 0.85315 0.76145 0.25438 0.0
C303 C 0.79223 0.73055 0.09689 0.0
O304 O 0.7934 0.76651 0.13005 0.0
O305 O 0.83006 0.70259 0.09382 0.0
O306 O 0.8828 0.81882 0.07164 0.0
O307 O 0.91602 0.75004 0.10436 0.0
O308 O 1.02635 0.41678 0.53659 0.0
Cd309 Cd 0.07722 0.40759 0.59662 0.0
Cd310 Cd 1.02915 0.49119 0.63632 0.0
O311 O 1.01981 0.49877 0.55313 0.0
O312 O 0.09165 0.33512 0.61698 0.0
O313 O 0.05938 0.3932 0.66852 0.0
C314 C 0.07632 0.34834 0.66224 0.0
C315 C 0.97262 0.47686 0.70374 0.0
C316 C 1.01847 0.46138 0.52038 0.0
C317 C 0.1421 0.47372 0.64626 0.0
O318 O 0.10233 0.48531 0.66993 0.0
O319 O 0.13641 0.45843 0.59978 0.0
O320 O 0.98535 0.52269 0.69206 0.0
O321 O 0.98244 0.44152 0.67093 0.0
O322 O 0.12329 0.65146 0.59571 0.0
Cd323 Cd 0.11361 0.67782 0.67032 0.0
Cd324 Cd 0.08249 0.58893 0.684 0.0
O325 O 0.12051 0.57082 0.61438 0.0
O326 O 0.13373 0.7479 0.65623 0.0
O327 O 0.17357 0.70433 0.71656 0.0
C328 C 0.16969 0.74538 0.6904 0.0
C329 C 0.07733 0.58339 0.7751 0.0
C330 C 0.1257 0.60551 0.58084 0.0
C331 C 1.00462 0.65626 0.66719 0.0
O332 O 1.01655 0.61161 0.65539 0.0
O333 O 1.03768 0.68741 0.68641 0.0
O334 O 0.07007 0.54388 0.74518 0.0
O335 O 0.09441 0.6245 0.75428 0.0
O336 O 0.09055 0.95393 0.69117 0.0
Cd337 Cd 1.01993 0.96396 0.65799 0.0
Cd338 Cd 0.99252 0.90208 0.7295 0.0
O339 O 0.0648 0.92393 0.76552 0.0
O340 O 1.01115 1.02462 0.61406 0.0
O341 O 0.97362 1.01524 0.68879 0.0
C342 C 0.97419 1.03605 0.64393 0.0
C343 C 0.90105 0.90561 0.73093 0.0
C344 C 0.10115 0.93835 0.73654 0.0
C345 C 0.98636 0.85546 0.63501 0.0
O346 O 1.00936 0.84737 0.67749 0.0
O347 O 0.98248 0.90126 0.62059 0.0
O348 O 0.92656 0.88077 0.76558 0.0
O349 O 0.92695 0.93298 0.70005 0.0
O350 O 0.7015 0.44238 1.04972 0.0
Cd351 Cd 0.68242 0.43853 0.12614 0.0
Cd352 Cd 0.79391 0.38256 0.13464 0.0
O353 O 0.77311 0.44011 0.09043 0.0
O354 O 0.63483 0.49611 0.14114 0.0
O355 O 0.7159 0.4995 0.16411 0.0
C356 C 0.67365 0.52332 0.15763 0.0
C357 C 0.87521 0.37475 0.1574 0.0
C358 C 0.7471 0.42874 1.04992 0.0
C359 C 0.69993 0.31919 0.13663 0.0
O360 O 0.74723 0.32407 0.13269 0.0
O361 O 0.6705 0.35772 0.1431 0.0
O362 O 0.85845 0.35704 0.1132 0.0
O363 O 0.84414 0.39388 0.19031 0.0
O364 O 0.20805 0.1343 0.77615 0.0
Cd365 Cd 0.18337 0.11886 0.70025 0.0
Cd366 Cd 0.29099 0.21366 0.76591 0.0
O367 O 0.22674 0.20706 0.81584 0.0
O368 O 0.16648 0.07158 0.64017 0.0
O369 O 0.24429 0.09283 0.66306 0.0
C370 C 0.21256 0.07978 0.62629 0.0
C371 C 0.37797 0.24178 0.76802 0.0
C372 C 0.19272 0.1736 0.80107 0.0
C373 C 0.22079 0.21423 0.6829 0.0
O374 O 0.25963 0.18952 0.69659 0.0
O375 O 0.17886 0.19065 0.67487 0.0
O376 O 0.34178 0.27431 0.76429 0.0
O377 O 0.36476 0.19459 0.77434 0.0
O378 O 0.45554 0.6527 0.0731 0.0
Cd379 Cd 0.46197 0.6503 0.15329 0.0
Cd380 Cd 0.33714 0.6658 0.13417 0.0
O381 O 0.38609 0.62051 0.09936 0.0
O382 O 0.52077 0.60405 0.17549 0.0
O383 O 0.44134 0.57923 0.17814 0.0
C384 C 0.4887 0.56678 0.17979 0.0
C385 C 0.25664 0.63826 0.1439 0.0
C386 C 0.40967 0.64158 1.06329 0.0
C387 C 0.40364 0.75631 0.16515 0.0
O388 O 0.3621 0.73935 0.14496 0.0
O389 O 0.44015 0.72651 0.17942 0.0
O390 O 0.27021 0.65673 0.1002 0.0
O391 O 0.28871 0.63703 0.18265 0.0
O392 O 0.84462 0.3018 0.49155 0.0
Cd393 Cd 0.91616 0.32805 0.49634 0.0
Cd394 Cd 0.94703 0.22732 0.50607 0.0
O395 O 0.86726 0.22107 0.48036 0.0
O396 O 0.93759 0.38113 0.4465 0.0
O397 O 0.96036 0.30045 0.44315 0.0
C398 C 0.9638 0.34551 0.42533 0.0
C399 C 1.02907 0.18926 0.48855 0.0
C400 C 0.83273 0.25546 0.48369 0.0
C401 C 0.9484 0.29845 0.60027 0.0
O402 O 0.94963 0.25363 0.58142 0.0
O403 O 0.94174 0.33656 0.57151 0.0
O404 O 0.9932 0.16486 0.51145 0.0
O405 O 1.01701 0.23241 0.46987 0.0
O406 O 0.45811 0.54618 0.8746 0.0
Cd407 Cd 0.46634 0.52071 0.94818 0.0
Cd408 Cd 0.3982 0.43558 0.90929 0.0
O409 O 0.38329 0.50612 0.86624 0.0
O410 O 0.52283 0.5032 0.99875 0.0
O411 O 0.48828 0.4472 0.94406 0.0
C412 C 0.51622 0.45619 0.98485 0.0
C413 C 0.3829 0.345 0.90301 0.0
C414 C 0.41217 0.54549 0.85765 0.0
C415 C 0.37954 0.49087 0.99824 0.0
O416 O 0.40505 0.45277 0.98664 0.0
O417 O 0.39695 0.53317 0.98408 0.0
O418 O 0.34852 0.37636 0.91638 0.0
O419 O 0.42499 0.36493 0.8875 0.0
O420 O 0.22915 0.93136 0.48386 0.0
Cd421 Cd 0.15689 0.90315 0.48327 0.0
Cd422 Cd 0.13559 1.01922 0.48402 0.0
O423 O 0.21416 1.0116 0.46171 0.0
O424 O 0.16038 0.82996 0.49506 0.0
O425 O 0.12472 0.86474 0.42486 0.0
C426 C 0.1359 0.82497 0.45134 0.0
C427 C 1.04834 1.01829 0.45731 0.0
C428 C 0.24512 0.97566 0.47375 0.0
C429 C 0.13481 0.96121 0.5693 0.0
O430 O 0.13903 1.00829 0.5624 0.0
O431 O 0.11062 0.93597 0.5345 0.0
O432 O 0.07205 0.06084 0.46827 0.0
O433 O 0.07647 0.97878 0.45177 0.0
O434 O 0.62624 0.48473 0.97514 0.0
Cd435 Cd 0.63127 0.5573 0.99925 0.0
Cd436 Cd 0.64124 0.58505 0.90364 0.0
O437 O 0.61663 0.50608 0.8932 0.0
O438 O 0.59602 0.57359 0.06642 0.0
O439 O 0.56508 0.59788 0.99199 0.0
C440 C 0.56721 0.60405 1.04153 0.0
C441 C 0.6221 0.67117 0.92342 0.0
C442 C 0.61926 0.47176 0.92796 0.0
C443 C 0.73484 0.59803 0.95196 0.0
O444 O 0.71671 0.58765 0.90683 0.0
O445 O 0.708 0.59058 0.99232 0.0
O446 O 0.61333 0.65311 0.87682 0.0
O447 O 0.63594 0.63996 0.9577 0.0
O448 O 0.72804 0.80122 0.88846 0.0
Cd449 Cd 0.66827 0.8065 0.93659 0.0
Cd450 Cd 0.63098 0.84358 0.86089 0.0
O451 O 0.66981 0.78322 0.83074 0.0
O452 O 0.6602 0.74052 0.97304 0.0
O453 O 0.61352 0.75909 0.90388 0.0
C454 C 0.62924 0.72571 0.93565 0.0
C455 C 0.54619 0.85222 0.85986 0.0
C456 C 0.71601 0.79225 0.84117 0.0
C457 C 0.67062 0.92043 0.93116 0.0
O458 O 0.66794 0.90903 0.88315 0.0
O459 O 0.66327 0.88507 0.9642 0.0
O460 O 0.57162 0.85603 0.81805 0.0
O461 O 0.56878 0.84023 0.90259 0.0
O462 O 0.76243 0.2058 0.45132 0.0
Cd463 Cd 0.68907 0.19931 0.4219 0.0
Cd464 Cd 0.66897 0.24934 0.5154 0.0
O465 O 0.74537 0.27199 0.50176 0.0
O466 O 0.69759 0.15803 0.35787 0.0
O467 O 0.6662 0.23601 0.3592 0.0
C468 C 0.6778 0.19541 0.3336 0.0
C469 C 0.58674 0.28004 0.49444 0.0
C470 C 0.77763 0.24322 0.47943 0.0
C471 C 0.6397 0.14643 0.50347 0.0
O472 O 0.66418 0.17413 0.53633 0.0
O473 O 0.63218 0.16241 0.4582 0.0
O474 O 0.60489 0.28524 0.54132 0.0
O475 O 0.61757 0.2645 0.45957 0.0
O476 O 0.46702 0.1898 0.94373 0.0
Cd477 Cd 0.38915 0.20144 0.93658 0.0
Cd478 Cd 0.4472 0.07822 0.96247 0.0
O479 O 0.46829 0.11815 0.90005 0.0
O480 O 0.38887 0.25491 0.87961 0.0
O481 O 0.36739 0.2732 0.95931 0.0
C482 C 0.37761 0.28916 0.91352 0.0
C483 C 0.51527 1.0346 0.97653 0.0
C484 C 0.48515 0.16293 0.90744 0.0
C485 C 0.34518 0.09356 0.95668 0.0
O486 O 0.37906 0.09574 0.99223 0.0
O487 O 0.34083 0.13269 0.92746 0.0
O488 O 0.47756 1.01164 0.95214 0.0
O489 O 0.50573 0.07105 1.00909 0.0
O490 O 0.32 1.01742 0.44747 0.0
Cd491 Cd 0.39243 1.00424 0.42727 0.0
Cd492 Cd 0.40917 0.97756 0.52384 0.0
O493 O 0.33074 0.9562 0.50382 0.0
O494 O 0.39021 1.00727 0.351 0.0
O495 O 0.40886 0.93756 0.39482 0.0
C496 C 0.40245 0.96006 0.35126 0.0
C497 C 0.49363 0.94511 0.51754 0.0
C498 C 0.30105 0.98404 0.47598 0.0
C499 C 0.44205 0.07596 0.49654 0.0
O500 O 0.41641 0.05521 0.53155 0.0
O501 O 0.44854 0.05233 0.45411 0.0
O502 O 0.47285 0.94808 0.5623 0.0
O503 O 0.46442 0.95296 0.47782 0.0
O504 O 0.64242 0.25281 0.15687 0.0
Cd505 Cd 0.64558 0.18407 0.19234 0.0
Cd506 Cd 0.68987 0.15529 0.09905 0.0
O507 O 0.71152 0.23176 0.11528 0.0
O508 O 0.62031 0.19944 0.26193 0.0
O509 O 0.69939 0.17562 0.24651 0.0
C510 C 0.66567 0.19041 0.2787 0.0
C511 C 0.72327 0.07546 0.12228 0.0
C512 C 0.68217 0.26584 0.13396 0.0
C513 C 0.58852 0.12796 0.11849 0.0
O514 O 0.61328 0.1497 0.08354 0.0
O515 O 0.61026 0.1205 0.16177 0.0
O516 O 0.72438 0.08946 0.07454 0.0
O517 O 0.71006 0.10905 0.15619 0.0
O518 O 0.62013 0.20985 0.74969 0.0
Cd519 Cd 0.54948 0.17749 0.75105 0.0
Cd520 Cd 0.52024 0.26647 0.79593 0.0
O521 O 0.59871 0.28624 0.77751 0.0
O522 O 0.55473 0.10989 0.71609 0.0
O523 O 0.50571 0.17019 0.68541 0.0
C524 C 0.52072 0.12393 0.68284 0.0
C525 C 0.43316 0.25701 0.76896 0.0
C526 C 0.63279 0.2552 0.76225 0.0
C527 C 0.51072 0.18723 0.86459 0.0
O528 O 0.51964 0.23471 0.86631 0.0
O529 O 0.51772 0.1611 0.82318 0.0
O530 O 0.45015 0.30038 0.78753 0.0
O531 O 0.46649 0.22368 0.75765 0.0
O532 O 0.43811 0.83025 0.20672 0.0
Cd533 Cd 0.44093 0.90568 0.2243 0.0
Cd534 Cd 0.41368 0.92083 0.12379 0.0
O535 O 0.38828 0.8431 0.13804 0.0
O536 O 0.45402 0.90758 0.30018 0.0
O537 O 0.38729 0.94269 0.26172 0.0
C538 C 0.41386 0.93444 0.30313 0.0
C539 C 0.38668 1.00774 0.13088 0.0
C540 C 0.40981 0.8126 0.17032 0.0
C541 C 0.51816 0.93914 0.1521 0.0
O542 O 0.49068 0.92155 0.11478 0.0
O543 O 0.50032 0.94527 0.19686 0.0
O544 O 0.38615 0.98509 0.0859 0.0
O545 O 0.39571 0.97951 0.17031 0.0
O546 O 0.65423 0.93849 0.77692 0.0
Cd547 Cd 0.72977 0.93683 0.79254 0.0
Cd548 Cd 0.751 0.88627 0.71905 0.0
O549 O 0.67689 0.92234 0.69686 0.0
O550 O 0.76655 0.9951 0.82566 0.0
O551 O 0.76634 0.97889 0.74066 0.0
C552 C 0.78297 1.00537 0.78011 0.0
C553 C 0.84445 0.90095 0.72509 0.0
C554 C 0.64174 0.93316 0.72938 0.0
C555 C 0.73896 0.82735 0.80588 0.0
O556 O 0.72929 0.82314 0.75751 0.0
O557 O 0.75254 0.87017 0.82549 0.0
O558 O 0.82085 0.89072 0.68136 0.0
O559 O 0.81653 0.90489 0.76462 0.0
O560 O 0.92132 0.70449 1.01255 0.0
Cd561 Cd 0.88638 0.64588 0.9724 0.0
Cd562 Cd 0.8447 0.71978 0.90664 0.0
O563 O 0.87341 0.76258 0.97544 0.0
O564 O 0.92449 0.58453 0.95283 0.0
O565 O 0.89073 0.63941 0.89771 0.0
C566 C 0.91003 0.59587 0.90616 0.0
C567 C 0.84499 0.74081 0.81463 0.0
C568 C 0.90428 0.74936 1.01224 0.0
C569 C 0.78195 0.62902 0.95506 0.0
O570 O 0.78938 0.66182 0.91976 0.0
O571 O 0.81473 0.62304 0.99116 0.0
O572 O 0.81711 0.76392 0.8474 0.0
O573 O 0.87739 0.71007 0.83417 0.0
O574 O 0.95525 0.46615 1.04343 0.0
Cd575 Cd 0.95277 0.48508 0.12303 0.0
Cd576 Cd 1.01945 0.41646 0.12046 0.0
O577 O 1.0287 0.42759 1.03988 0.0
O578 O 0.89321 0.52847 0.12891 0.0
O579 O 0.97176 0.55552 0.14819 0.0
C580 C 0.92379 0.56404 0.14569 0.0
C581 C 0.05025 0.43052 0.20512 0.0
C582 C 0.98954 0.44539 1.01656 0.0
C583 C 0.92778 0.38896 0.16135 0.0
O584 O 0.95617 0.3728 0.12628 0.0
O585 O 0.93654 0.43299 0.17947 0.0
O586 O 0.06402 0.39168 0.17735 0.0
O587 O 1.02745 0.46698 0.18172 0.0
O588 O 0.21588 0.3561 0.79894 0.0
Cd589 Cd 0.2147 0.34936 0.72258 0.0
Cd590 Cd 0.27857 0.4193 0.70999 0.0
O591 O 0.28634 0.40175 0.79319 0.0
O592 O 0.17737 0.28599 0.71129 0.0
O593 O 0.25925 0.29549 0.69528 0.0
C594 C 0.2191 0.26718 0.69629 0.0
C595 C 0.3159 0.40361 0.62653 0.0
C596 C 0.25377 0.37762 0.82076 0.0
C597 C 0.18022 0.44748 0.67688 0.0
O598 O 0.22067 0.46908 0.69403 0.0
O599 O 0.1736 0.40006 0.68161 0.0
O600 O 0.33366 0.43853 0.65848 0.0
O601 O 0.28268 0.37294 0.6451 0.0
O602 O 0.06925 0.54609 0.09073 0.0
Cd603 Cd 0.13184 0.5368 0.13888 0.0
Cd604 Cd 0.10171 0.61594 0.18839 0.0
O605 O 0.06236 0.62602 0.11574 0.0
O606 O 0.15297 0.46442 0.14449 0.0
O607 O 0.13927 0.51479 0.21227 0.0
C608 C 0.15373 0.47175 0.19421 0.0
C609 C 0.07905 0.62132 0.27589 0.0
C610 C 0.0542 0.59085 0.08144 0.0
C611 C 0.20635 0.61661 0.14861 0.0
O612 O 0.1781 0.63253 0.18419 0.0
O613 O 0.19211 0.58036 0.11849 0.0
O614 O 0.08111 0.66123 0.24743 0.0
O615 O 0.08205 0.57762 0.25314 0.0
O616 O 0.91349 0.81222 0.65987 0.0
Cd617 Cd 0.84836 0.76758 0.66603 0.0
Cd618 Cd 0.90709 0.72537 0.59798 0.0
O619 O 0.94185 0.79301 0.58251 0.0
O620 O 0.82215 0.78947 0.73747 0.0
O621 O 0.85602 0.71511 0.72443 0.0
C622 C 0.84027 0.74861 0.75706 0.0
C623 C 0.9611 0.67647 0.64147 0.0
C624 C 0.94398 0.82041 0.62336 0.0
C625 C 0.80758 0.73254 0.55685 0.0
O626 O 0.84203 0.70021 0.56236 0.0
O627 O 0.80177 0.76525 0.59388 0.0
O628 O 0.95795 0.67335 0.59148 0.0
O629 O 0.93039 0.70435 0.66669 0.0
O630 O 0.14671 0.371 0.97544 0.0
Cd631 Cd 0.2135 0.3322 0.97957 0.0
Cd632 Cd 0.24653 0.45174 0.97411 0.0
O633 O 0.18868 0.42824 1.0207 0.0
O634 O 0.21683 0.28594 1.04469 0.0
O635 O 0.25619 0.35972 1.03825 0.0
C636 C 0.24227 0.32291 0.06715 0.0
C637 C 0.32521 0.48079 1.00032 0.0
C638 C 0.14893 0.41547 0.99499 0.0
C639 C 0.25246 0.38145 0.87804 0.0
O640 O 0.24784 0.42576 0.89797 0.0
O641 O 0.2466 0.34082 0.90495 0.0
O642 O 0.29188 0.51369 0.98636 0.0
O643 O 0.31125 0.43399 1.00489 0.0
O644 O 0.06677 0.67019 0.35122 0.0
Cd645 Cd 0.07587 0.6989 0.42523 0.0
Cd646 Cd 0.07206 0.59159 0.4429 0.0
O647 O 0.08962 0.59047 0.36317 0.0
O648 O 0.06934 0.77254 0.41774 0.0
O649 O 0.13923 0.73484 0.44736 0.0
C650 C 0.11508 0.77574 0.4363 0.0
C651 C 0.1181 0.59519 0.52405 0.0
C652 C 0.07702 0.62663 0.33295 0.0
C653 C 0.99098 0.65503 0.46662 0.0
O654 O 0.99596 0.61136 0.44655 0.0
O655 O 1.03082 0.67677 0.48406 0.0
O656 O 0.09863 0.55273 0.50641 0.0
O657 O 0.11754 0.63306 0.49289 0.0
O658 O 0.08386 0.39389 0.28013 0.0
Cd659 Cd 0.07917 0.38927 0.35558 0.0
Cd660 Cd 0.06061 0.48196 0.37704 0.0
O661 O 1.04202 0.46516 0.29347 0.0
O662 O 1.04343 0.32974 0.38665 0.0
O663 O 1.00514 0.40204 0.36912 0.0
C664 C 1.00369 0.35775 0.3893 0.0
C665 C 1.02763 0.46889 0.46402 0.0
C666 C 0.05994 0.43117 0.26216 0.0
C667 C 0.16034 0.46512 0.40315 0.0
O668 O 0.13463 0.50227 0.38736 0.0
O669 O 0.14222 0.41977 0.39841 0.0
O670 O 1.01434 0.50793 0.43746 0.0
O671 O 0.05573 0.43686 0.44096 0.0
loop_
_geom_bond_atom_site_label_1
_geom_bond_atom_site_label_2
_geom_bond_distance
_geom_bond_site_symmetry_2
_ccdc_geom_bond_type
O0 Cd1 2.223 . S
O0 C8 1.315 . S
Cd1 O0 2.223 . S
Cd1 O4 2.297 . S
Cd1 O5 2.439 . S
Cd1 O11 2.240 . S
Cd2 O3 2.240 . S
Cd2 O10 2.223 . S
Cd2 O12 2.297 . S
Cd2 O13 2.439 . S
O3 Cd2 2.240 . S
O3 C8 1.279 . S
O4 Cd1 2.297 . S
O4 C6 1.247 . S
O5 Cd1 2.439 . S
O5 C6 1.208 . S
C6 O4 1.247 . S
C6 O5 1.208 . S
C7 O12 1.247 . S
C7 O13 1.208 . S
C8 O0 1.315 . S
C8 O3 1.279 . S
C9 O10 1.315 . S
C9 O11 1.279 . S
O10 Cd2 2.223 . S
O10 C9 1.315 . S
O11 Cd1 2.240 . S
O11 C9 1.279 . S
O12 Cd2 2.297 . S
O12 C7 1.247 . S
O13 Cd2 2.439 . S
O13 C7 1.208 . S
O14 Cd15 2.223 . S
O14 C22 1.315 . S
Cd15 O14 2.223 . S
Cd15 O18 2.297 . S
Cd15 O19 2.439 . S
Cd15 O25 2.240 . S
Cd16 O17 2.240 . S
Cd16 O24 2.223 . S
Cd16 O26 2.297 . S
Cd16 O27 2.439 . S
O17 Cd16 2.240 . S
O17 C22 1.279 . S
O18 Cd15 2.297 . S
O18 C20 1.247 . S
O19 Cd15 2.439 . S
O19 C20 1.208 . S
C20 O18 1.247 . S
C20 O19 1.208 . S
C21 O26 1.247 . S
C21 O27 1.208 . S
C22 O14 1.315 . S
C22 O17 1.279 . S
C23 O24 1.315 . S
C23 O25 1.279 . S
O24 Cd16 2.223 . S
O24 C23 1.315 . S
O25 Cd15 2.240 . S
O25 C23 1.279 . S
O26 Cd16 2.297 . S
O26 C21 1.247 . S
O27 Cd16 2.439 . S
O27 C21 1.208 . S
O28 Cd29 2.223 1_455 S
O28 C36 1.315 . S
Cd29 O28 2.223 1_655 S
Cd29 O32 2.297 . S
Cd29 O33 2.439 . S
Cd29 O39 2.240 . S
Cd30 O31 2.240 . S
Cd30 O38 2.223 . S
Cd30 O40 2.297 . S
Cd30 O41 2.439 . S
O31 Cd30 2.240 . S
O31 C36 1.279 1_655 S
O32 Cd29 2.297 . S
O32 C34 1.247 . S
O33 Cd29 2.439 . S
O33 C34 1.208 . S
C34 O32 1.247 . S
C34 O33 1.208 . S
C35 O40 1.247 . S
C35 O41 1.208 . S
C36 O28 1.315 . S
C36 O31 1.279 1_455 S
C37 O38 1.315 . S
C37 O39 1.279 . S
O38 Cd30 2.223 . S
O38 C37 1.315 . S
O39 Cd29 2.240 . S
O39 C37 1.279 . S
O40 Cd30 2.297 . S
O40 C35 1.247 . S
O41 Cd30 2.439 . S
O41 C35 1.208 . S
O42 Cd43 2.223 . S
O42 C50 1.315 . S
Cd43 O42 2.223 . S
Cd43 O46 2.297 1_556 S
Cd43 O47 2.439 . S
Cd43 O53 2.240 . S
Cd44 O45 2.240 . S
Cd44 O52 2.223 . S
Cd44 O54 2.297 . S
Cd44 O55 2.439 . S
O45 Cd44 2.240 . S
O45 C50 1.279 . S
O46 Cd43 2.297 1_554 S
O46 C48 1.247 . S
O47 Cd43 2.439 . S
O47 C48 1.208 1_556 S
C48 O46 1.247 . S
C48 O47 1.208 1_554 S
C49 O54 1.247 . S
C49 O55 1.208 . S
C50 O42 1.315 . S
C50 O45 1.279 . S
C51 O52 1.315 . S
C51 O53 1.279 . S
O52 Cd44 2.223 . S
O52 C51 1.315 . S
O53 Cd43 2.240 . S
O53 C51 1.279 . S
O54 Cd44 2.297 . S
O54 C49 1.247 . S
O55 Cd44 2.439 . S
O55 C49 1.208 . S
O56 Cd57 2.223 . S
O56 C64 1.315 . S
Cd57 O56 2.223 . S
Cd57 O60 2.297 . S
Cd57 O61 2.439 . S
Cd57 O67 2.240 . S
Cd58 O59 2.240 . S
Cd58 O66 2.223 . S
Cd58 O68 2.297 . S
Cd58 O69 2.439 . S
O59 Cd58 2.240 . S
O59 C64 1.279 . S
O60 Cd57 2.297 . S
O60 C62 1.247 . S
O61 Cd57 2.439 . S
O61 C62 1.208 . S
C62 O60 1.247 . S
C62 O61 1.208 . S
C63 O68 1.247 . S
C63 O69 1.208 . S
C64 O56 1.315 . S
C64 O59 1.279 . S
C65 O66 1.315 . S
C65 O67 1.279 . S
O66 Cd58 2.223 . S
O66 C65 1.315 . S
O67 Cd57 2.240 . S
O67 C65 1.279 . S
O68 Cd58 2.297 . S
O68 C63 1.247 . S
O69 Cd58 2.439 . S
O69 C63 1.208 . S
O70 Cd71 2.223 . S
O70 C78 1.315 . S
Cd71 O70 2.223 . S
Cd71 O74 2.297 . S
Cd71 O75 2.439 . S
Cd71 O81 2.240 . S
Cd72 O73 2.240 . S
Cd72 O80 2.223 . S
Cd72 O82 2.297 . S
Cd72 O83 2.439 . S
O73 Cd72 2.240 . S
O73 C78 1.279 . S
O74 Cd71 2.297 . S
O74 C76 1.247 . S
O75 Cd71 2.439 . S
O75 C76 1.208 . S
C76 O74 1.247 . S
C76 O75 1.208 . S
C77 O82 1.247 . S
C77 O83 1.208 . S
C78 O70 1.315 . S
C78 O73 1.279 . S
C79 O80 1.315 . S
C79 O81 1.279 . S
O80 Cd72 2.223 . S
O80 C79 1.315 . S
O81 Cd71 2.240 . S
O81 C79 1.279 . S
O82 Cd72 2.297 . S
O82 C77 1.247 . S
O83 Cd72 2.439 . S
O83 C77 1.208 . S
O84 Cd85 2.223 . S
O84 C92 1.315 . S
Cd85 O84 2.223 . S
Cd85 O88 2.297 . S
Cd85 O89 2.439 . S
Cd85 O95 2.240 . S
Cd86 O87 2.240 . S
Cd86 O94 2.223 . S
Cd86 O96 2.297 . S
Cd86 O97 2.439 . S
O87 Cd86 2.240 . S
O87 C92 1.279 . S
O88 Cd85 2.297 . S
O88 C90 1.247 . S
O89 Cd85 2.439 . S
O89 C90 1.208 . S
C90 O88 1.247 . S
C90 O89 1.208 . S
C91 O96 1.247 . S
C91 O97 1.208 . S
C92 O84 1.315 . S
C92 O87 1.279 . S
C93 O94 1.315 . S
C93 O95 1.279 . S
O94 Cd86 2.223 . S
O94 C93 1.315 . S
O95 Cd85 2.240 . S
O95 C93 1.279 . S
O96 Cd86 2.297 . S
O96 C91 1.247 . S
O97 Cd86 2.439 . S
O97 C91 1.208 . S
O98 Cd99 2.223 . S
O98 C106 1.315 . S
Cd99 O98 2.223 . S
Cd99 O102 2.297 . S
Cd99 O103 2.439 . S
Cd99 O109 2.240 . S
Cd100 O101 2.240 . S
Cd100 O108 2.223 . S
Cd100 O110 2.297 . S
Cd100 O111 2.439 . S
O101 Cd100 2.240 . S
O101 C106 1.279 . S
O102 Cd99 2.297 . S
O102 C104 1.247 . S
O103 Cd99 2.439 . S
O103 C104 1.208 . S
C104 O102 1.247 . S
C104 O103 1.208 . S
C105 O110 1.247 . S
C105 O111 1.208 . S
C106 O98 1.315 . S
C106 O101 1.279 . S
C107 O108 1.315 . S
C107 O109 1.279 . S
O108 Cd100 2.223 . S
O108 C107 1.315 . S
O109 Cd99 2.240 . S
O109 C107 1.279 . S
O110 Cd100 2.297 . S
O110 C105 1.247 . S
O111 Cd100 2.439 . S
O111 C105 1.208 . S
O112 Cd113 2.223 . S
O112 C120 1.315 . S
Cd113 O112 2.223 . S
Cd113 O116 2.297 . S
Cd113 O117 2.439 . S
Cd113 O123 2.240 . S
Cd114 O115 2.240 . S
Cd114 O122 2.223 . S
Cd114 O124 2.297 . S
Cd114 O125 2.439 . S
O115 Cd114 2.240 . S
O115 C120 1.279 . S
O116 Cd113 2.297 . S
O116 C118 1.247 . S
O117 Cd113 2.439 . S
O117 C118 1.208 . S
C118 O116 1.247 . S
C118 O117 1.208 . S
C119 O124 1.247 . S
C119 O125 1.208 . S
C120 O112 1.315 . S
C120 O115 1.279 . S
C121 O122 1.315 . S
C121 O123 1.279 . S
O122 Cd114 2.223 . S
O122 C121 1.315 . S
O123 Cd113 2.240 . S
O123 C121 1.279 . S
O124 Cd114 2.297 . S
O124 C119 1.247 . S
O125 Cd114 2.439 . S
O125 C119 1.208 . S
O126 Cd127 2.223 . S
O126 C134 1.315 . S
Cd127 O126 2.223 . S
Cd127 O130 2.297 . S
Cd127 O131 2.439 . S
Cd127 O137 2.240 . S
Cd128 O129 2.240 . S
Cd128 O136 2.223 . S
Cd128 O138 2.297 . S
Cd128 O139 2.439 . S
O129 Cd128 2.240 . S
O129 C134 1.279 . S
O130 Cd127 2.297 . S
O130 C132 1.247 . S
O131 Cd127 2.439 . S
O131 C132 1.208 . S
C132 O130 1.247 . S
C132 O131 1.208 . S
C133 O138 1.247 . S
C133 O139 1.208 . S
C134 O126 1.315 . S
C134 O129 1.279 . S
C135 O136 1.315 . S
C135 O137 1.279 . S
O136 Cd128 2.223 . S
O136 C135 1.315 . S
O137 Cd127 2.240 . S
O137 C135 1.279 . S
O138 Cd128 2.297 . S
O138 C133 1.247 . S
O139 Cd128 2.439 . S
O139 C133 1.208 . S
O140 Cd141 2.223 . S
O140 C148 1.315 . S
Cd141 O140 2.223 . S
Cd141 O144 2.297 . S
Cd141 O145 2.439 . S
Cd141 O151 2.240 . S
Cd142 O143 2.240 . S
Cd142 O150 2.223 . S
Cd142 O152 2.297 . S
Cd142 O153 2.439 . S
O143 Cd142 2.240 . S
O143 C148 1.279 . S
O144 Cd141 2.297 . S
O144 C146 1.247 . S
O145 Cd141 2.439 . S
O145 C146 1.208 . S
C146 O144 1.247 . S
C146 O145 1.208 . S
C147 O152 1.247 . S
C147 O153 1.208 . S
C148 O140 1.315 . S
C148 O143 1.279 . S
C149 O150 1.315 . S
C149 O151 1.279 . S
O150 Cd142 2.223 . S
O150 C149 1.315 . S
O151 Cd141 2.240 . S
O151 C149 1.279 . S
O152 Cd142 2.297 . S
O152 C147 1.247 . S
O153 Cd142 2.439 . S
O153 C147 1.208 . S
O154 Cd155 2.223 . S
O154 C162 1.315 . S
Cd155 O154 2.223 . S
Cd155 O158 2.297 . S
Cd155 O159 2.439 . S
Cd155 O165 2.240 . S
Cd156 O157 2.240 . S
Cd156 O164 2.223 . S
Cd156 O166 2.297 . S
Cd156 O167 2.439 . S
O157 Cd156 2.240 . S
O157 C162 1.279 . S
O158 Cd155 2.297 . S
O158 C160 1.247 . S
O159 Cd155 2.439 . S
O159 C160 1.208 . S
C160 O158 1.247 . S
C160 O159 1.208 . S
C161 O166 1.247 . S
C161 O167 1.208 . S
C162 O154 1.315 . S
C162 O157 1.279 . S
C163 O164 1.315 . S
C163 O165 1.279 . S
O164 Cd156 2.223 . S
O164 C163 1.315 . S
O165 Cd155 2.240 . S
O165 C163 1.279 . S
O166 Cd156 2.297 . S
O166 C161 1.247 . S
O167 Cd156 2.439 . S
O167 C161 1.208 . S
O168 Cd169 2.223 . S
O168 C176 1.315 . S
Cd169 O168 2.223 . S
Cd169 O172 2.297 . S
Cd169 O173 2.439 . S
Cd169 O179 2.240 . S
Cd170 O171 2.240 . S
Cd170 O178 2.223 . S
Cd170 O180 2.297 . S
Cd170 O181 2.439 . S
O171 Cd170 2.240 . S
O171 C176 1.279 . S
O172 Cd169 2.297 . S
O172 C174 1.247 . S
O173 Cd169 2.439 . S
O173 C174 1.208 . S
C174 O172 1.247 . S
C174 O173 1.208 . S
C175 O180 1.247 . S
C175 O181 1.208 . S
C176 O168 1.315 . S
C176 O171 1.279 . S
C177 O178 1.315 . S
C177 O179 1.279 . S
O178 Cd170 2.223 . S
O178 C177 1.315 . S
O179 Cd169 2.240 . S
O179 C177 1.279 . S
O180 Cd170 2.297 . S
O180 C175 1.247 . S
O181 Cd170 2.439 . S
O181 C175 1.208 . S
O182 Cd183 2.223 . S
O182 C190 1.315 . S
Cd183 O182 2.223 . S
Cd183 O186 2.297 . S
Cd183 O187 2.439 . S
Cd183 O193 2.240 . S
Cd184 O185 2.240 . S
Cd184 O192 2.223 . S
Cd184 O194 2.297 . S
Cd184 O195 2.439 . S
O185 Cd184 2.240 . S
O185 C190 1.279 . S
O186 Cd183 2.297 . S
O186 C188 1.247 . S
O187 Cd183 2.439 . S
O187 C188 1.208 . S
C188 O186 1.247 . S
C188 O187 1.208 . S
C189 O194 1.247 . S
C189 O195 1.208 . S
C190 O182 1.315 . S
C190 O185 1.279 . S
C191 O192 1.315 . S
C191 O193 1.279 . S
O192 Cd184 2.223 . S
O192 C191 1.315 . S
O193 Cd183 2.240 . S
O193 C191 1.279 . S
O194 Cd184 2.297 . S
O194 C189 1.247 . S
O195 Cd184 2.439 . S
O195 C189 1.208 . S
O196 Cd197 2.223 . S
O196 C204 1.315 . S
Cd197 O196 2.223 . S
Cd197 O200 2.297 . S
Cd197 O201 2.439 . S
Cd197 O207 2.240 . S
Cd198 O199 2.240 . S
Cd198 O206 2.223 . S
Cd198 O208 2.297 . S
Cd198 O209 2.439 . S
O199 Cd198 2.240 . S
O199 C204 1.279 . S
O200 Cd197 2.297 . S
O200 C202 1.247 . S
O201 Cd197 2.439 . S
O201 C202 1.208 . S
C202 O200 1.247 . S
C202 O201 1.208 . S
C203 O208 1.247 . S
C203 O209 1.208 . S
C204 O196 1.315 . S
C204 O199 1.279 . S
C205 O206 1.315 . S
C205 O207 1.279 . S
O206 Cd198 2.223 . S
O206 C205 1.315 . S
O207 Cd197 2.240 . S
O207 C205 1.279 . S
O208 Cd198 2.297 . S
O208 C203 1.247 . S
O209 Cd198 2.439 . S
O209 C203 1.208 . S
O210 Cd211 2.223 . S
O210 C218 1.315 . S
Cd211 O210 2.223 . S
Cd211 O214 2.297 . S
Cd211 O215 2.439 . S
Cd211 O221 2.240 . S
Cd212 O213 2.240 . S
Cd212 O220 2.223 . S
Cd212 O222 2.297 . S
Cd212 O223 2.439 . S
O213 Cd212 2.240 . S
O213 C218 1.279 . S
O214 Cd211 2.297 . S
O214 C216 1.247 . S
O215 Cd211 2.439 . S
O215 C216 1.208 . S
C216 O214 1.247 . S
C216 O215 1.208 . S
C217 O222 1.247 . S
C217 O223 1.208 . S
C218 O210 1.315 . S
C218 O213 1.279 . S
C219 O220 1.315 . S
C219 O221 1.279 . S
O220 Cd212 2.223 . S
O220 C219 1.315 . S
O221 Cd211 2.240 . S
O221 C219 1.279 . S
O222 Cd212 2.297 . S
O222 C217 1.247 . S
O223 Cd212 2.439 . S
O223 C217 1.208 . S
O224 Cd225 2.223 . S
O224 C232 1.315 . S
Cd225 O224 2.223 . S
Cd225 O228 2.297 . S
Cd225 O229 2.439 . S
Cd225 O235 2.240 . S
Cd226 O227 2.240 . S
Cd226 O234 2.223 . S
Cd226 O236 2.297 . S
Cd226 O237 2.439 . S
O227 Cd226 2.240 . S
O227 C232 1.279 . S
O228 Cd225 2.297 . S
O228 C230 1.247 . S
O229 Cd225 2.439 . S
O229 C230 1.208 . S
C230 O228 1.247 . S
C230 O229 1.208 . S
C231 O236 1.247 . S
C231 O237 1.208 . S
C232 O224 1.315 . S
C232 O227 1.279 . S
C233 O234 1.315 . S
C233 O235 1.279 . S
O234 Cd226 2.223 . S
O234 C233 1.315 . S
O235 Cd225 2.240 . S
O235 C233 1.279 . S
O236 Cd226 2.297 . S
O236 C231 1.247 . S
O237 Cd226 2.439 . S
O237 C231 1.208 . S
O238 Cd239 2.223 . S
O238 C246 1.315 . S
Cd239 O238 2.223 . S
Cd239 O242 2.297 . S
Cd239 O243 2.439 . S
Cd239 O249 2.240 . S
Cd240 O241 2.240 . S
Cd240 O248 2.223 . S
Cd240 O250 2.297 . S
Cd240 O251 2.439 . S
O241 Cd240 2.240 . S
O241 C246 1.279 . S
O242 Cd239 2.297 . S
O242 C244 1.247 . S
O243 Cd239 2.439 . S
O243 C244 1.208 . S
C244 O242 1.247 . S
C244 O243 1.208 . S
C245 O250 1.247 . S
C245 O251 1.208 . S
C246 O238 1.315 . S
C246 O241 1.279 . S
C247 O248 1.315 . S
C247 O249 1.279 . S
O248 Cd240 2.223 . S
O248 C247 1.315 . S
O249 Cd239 2.240 . S
O249 C247 1.279 . S
O250 Cd240 2.297 . S
O250 C245 1.247 . S
O251 Cd240 2.439 . S
O251 C245 1.208 . S
O252 Cd253 2.223 . S
O252 C260 1.315 . S
Cd253 O252 2.223 . S
Cd253 O256 2.297 . S
Cd253 O257 2.439 . S
Cd253 O263 2.240 . S
Cd254 O255 2.240 . S
Cd254 O262 2.223 . S
Cd254 O264 2.297 1_655 S
Cd254 O265 2.439 . S
O255 Cd254 2.240 . S
O255 C260 1.279 . S
O256 Cd253 2.297 . S
O256 C258 1.247 . S
O257 Cd253 2.439 . S
O257 C258 1.208 . S
C258 O256 1.247 . S
C258 O257 1.208 . S
C259 O264 1.247 . S
C259 O265 1.208 1_455 S
C260 O252 1.315 . S
C260 O255 1.279 . S
C261 O262 1.315 . S
C261 O263 1.279 . S
O262 Cd254 2.223 . S
O262 C261 1.315 . S
O263 Cd253 2.240 . S
O263 C261 1.279 . S
O264 Cd254 2.297 1_455 S
O264 C259 1.247 . S
O265 Cd254 2.439 . S
O265 C259 1.208 1_655 S
O266 Cd267 2.223 . S
O266 C274 1.315 . S
Cd267 O266 2.223 . S
Cd267 O270 2.297 . S
Cd267 O271 2.439 . S
Cd267 O277 2.240 . S
Cd268 O269 2.240 . S
Cd268 O276 2.223 . S
Cd268 O278 2.297 1_556 S
Cd268 O279 2.419 1_556 S
O269 Cd268 2.240 . S
O269 C274 1.279 . S
O270 Cd267 2.297 . S
O270 C272 1.247 . S
O271 Cd267 2.439 . S
O271 C272 1.208 . S
C272 O270 1.247 . S
C272 O271 1.208 . S
C273 O278 1.247 . S
C273 O279 1.224 . S
C274 O266 1.315 . S
C274 O269 1.279 . S
C275 O276 1.315 . S
C275 O277 1.279 . S
O276 Cd268 2.223 . S
O276 C275 1.315 . S
O277 Cd267 2.240 . S
O277 C275 1.279 . S
O278 Cd268 2.297 1_554 S
O278 C273 1.247 . S
O279 Cd268 2.419 1_554 S
O279 C273 1.224 . S
O280 Cd281 2.223 . S
O280 C288 1.315 . S
Cd281 O280 2.223 . S
Cd281 O284 2.297 . S
Cd281 O285 2.439 . S
Cd281 O291 2.240 . S
Cd282 O283 2.240 . S
Cd282 O290 2.223 . S
Cd282 O292 2.297 . S
Cd282 O293 2.439 . S
O283 Cd282 2.240 . S
O283 C288 1.279 . S
O284 Cd281 2.297 . S
O284 C286 1.247 . S
O285 Cd281 2.439 . S
O285 C286 1.208 . S
C286 O284 1.247 . S
C286 O285 1.208 . S
C287 O292 1.247 . S
C287 O293 1.208 . S
C288 O280 1.315 . S
C288 O283 1.279 . S
C289 O290 1.326 . S
C289 O291 1.289 . S
O290 Cd282 2.223 . S
O290 C289 1.326 . S
O291 Cd281 2.240 . S
O291 C289 1.289 . S
O292 Cd282 2.297 . S
O292 C287 1.247 . S
O293 Cd282 2.439 . S
O293 C287 1.208 . S
O294 Cd295 2.223 . S
O294 C302 1.315 . S
Cd295 O294 2.223 . S
Cd295 O298 2.297 . S
Cd295 O299 2.439 . S
Cd295 O305 2.240 . S
Cd296 O297 2.240 . S
Cd296 O304 2.223 . S
Cd296 O306 2.297 . S
Cd296 O307 2.439 . S
O297 Cd296 2.240 . S
O297 C302 1.279 . S
O298 Cd295 2.297 . S
O298 C300 1.247 . S
O299 Cd295 2.439 . S
O299 C300 1.208 . S
C300 O298 1.247 . S
C300 O299 1.208 . S
C301 O306 1.247 . S
C301 O307 1.208 . S
C302 O294 1.315 . S
C302 O297 1.279 . S
C303 O304 1.315 . S
C303 O305 1.279 . S
O304 Cd296 2.223 . S
O304 C303 1.315 . S
O305 Cd295 2.240 . S
O305 C303 1.279 . S
O306 Cd296 2.297 . S
O306 C301 1.247 . S
O307 Cd296 2.439 . S
O307 C301 1.208 . S
O308 Cd309 2.223 . S
O308 C316 1.315 . S
Cd309 O308 2.223 . S
Cd309 O312 2.297 . S
Cd309 O313 2.439 . S
Cd309 O319 2.240 . S
Cd310 O311 2.240 . S
Cd310 O318 2.223 . S
Cd310 O320 2.297 . S
Cd310 O321 2.439 . S
O311 Cd310 2.240 . S
O311 C316 1.279 . S
O312 Cd309 2.297 . S
O312 C314 1.247 . S
O313 Cd309 2.439 . S
O313 C314 1.208 . S
C314 O312 1.247 . S
C314 O313 1.208 . S
C315 O320 1.247 . S
C315 O321 1.208 . S
C316 O308 1.315 . S
C316 O311 1.279 . S
C317 O318 1.315 . S
C317 O319 1.279 . S
O318 Cd310 2.223 . S
O318 C317 1.315 . S
O319 Cd309 2.240 . S
O319 C317 1.279 . S
O320 Cd310 2.297 . S
O320 C315 1.247 . S
O321 Cd310 2.439 . S
O321 C315 1.208 . S
O322 Cd323 2.223 . S
O322 C330 1.315 . S
Cd323 O322 2.223 . S
Cd323 O326 2.297 . S
Cd323 O327 2.439 . S
Cd323 O333 2.240 . S
Cd324 O325 2.240 . S
Cd324 O332 2.223 . S
Cd324 O334 2.297 . S
Cd324 O335 2.439 . S
O325 Cd324 2.240 . S
O325 C330 1.279 . S
O326 Cd323 2.297 . S
O326 C328 1.247 . S
O327 Cd323 2.439 . S
O327 C328 1.208 . S
C328 O326 1.247 . S
C328 O327 1.208 . S
C329 O334 1.247 . S
C329 O335 1.208 . S
C330 O322 1.315 . S
C330 O325 1.279 . S
C331 O332 1.315 . S
C331 O333 1.279 . S
O332 Cd324 2.223 . S
O332 C331 1.315 . S
O333 Cd323 2.240 . S
O333 C331 1.279 . S
O334 Cd324 2.297 . S
O334 C329 1.247 . S
O335 Cd324 2.439 . S
O335 C329 1.208 . S
O336 Cd337 2.223 1_455 S
O336 C344 1.315 . S
Cd337 O336 2.223 1_655 S
Cd337 O340 2.297 . S
Cd337 O341 2.439 . S
Cd337 O347 2.240 . S
Cd338 O339 2.240 . S
Cd338 O346 2.223 . S
Cd338 O348 2.297 . S
Cd338 O349 2.439 . S
O339 Cd338 2.240 . S
O339 C344 1.279 1_655 S
O340 Cd337 2.297 . S
O340 C342 1.247 . S
O341 Cd337 2.439 . S
O341 C342 1.208 . S
C342 O340 1.247 . S
C342 O341 1.208 . S
C343 O348 1.247 . S
C343 O349 1.208 . S
C344 O336 1.315 . S
C344 O339 1.279 1_455 S
C345 O346 1.315 . S
C345 O347 1.279 . S
O346 Cd338 2.223 . S
O346 C345 1.315 . S
O347 Cd337 2.240 . S
O347 C345 1.279 . S
O348 Cd338 2.297 . S
O348 C343 1.247 . S
O349 Cd338 2.439 . S
O349 C343 1.208 . S
O350 Cd351 2.223 . S
O350 C358 1.315 . S
Cd351 O350 2.223 . S
Cd351 O354 2.297 . S
Cd351 O355 2.439 . S
Cd351 O361 2.240 . S
Cd352 O353 2.240 . S
Cd352 O360 2.223 . S
Cd352 O362 2.297 . S
Cd352 O363 2.439 . S
O353 Cd352 2.240 . S
O353 C358 1.279 . S
O354 Cd351 2.297 . S
O354 C356 1.247 . S
O355 Cd351 2.439 . S
O355 C356 1.208 . S
C356 O354 1.247 . S
C356 O355 1.208 . S
C357 O362 1.247 . S
C357 O363 1.208 . S
C358 O350 1.315 . S
C358 O353 1.279 . S
C359 O360 1.315 . S
C359 O361 1.279 . S
O360 Cd352 2.223 . S
O360 C359 1.315 . S
O361 Cd351 2.240 . S
O361 C359 1.279 . S
O362 Cd352 2.297 . S
O362 C357 1.247 . S
O363 Cd352 2.439 . S
O363 C357 1.208 . S
O364 Cd365 2.223 . S
O364 C372 1.315 . S
Cd365 O364 2.223 . S
Cd365 O368 2.297 . S
Cd365 O369 2.439 . S
Cd365 O375 2.240 . S
Cd366 O367 2.240 . S
Cd366 O374 2.223 . S
Cd366 O376 2.297 . S
Cd366 O377 2.439 . S
O367 Cd366 2.240 . S
O367 C372 1.279 . S
O368 Cd365 2.297 . S
O368 C370 1.247 . S
O369 Cd365 2.439 . S
O369 C370 1.208 . S
C370 O368 1.247 . S
C370 O369 1.208 . S
C371 O376 1.247 . S
C371 O377 1.208 . S
C372 O364 1.315 . S
C372 O367 1.279 . S
C373 O374 1.315 . S
C373 O375 1.279 . S
O374 Cd366 2.223 . S
O374 C373 1.315 . S
O375 Cd365 2.240 . S
O375 C373 1.279 . S
O376 Cd366 2.297 . S
O376 C371 1.247 . S
O377 Cd366 2.439 . S
O377 C371 1.208 . S
O378 Cd379 2.223 . S
O378 C386 1.315 . S
Cd379 O378 2.223 . S
Cd379 O382 2.297 . S
Cd379 O383 2.439 . S
Cd379 O389 2.240 . S
Cd380 O381 2.240 . S
Cd380 O388 2.223 . S
Cd380 O390 2.297 . S
Cd380 O391 2.439 . S
O381 Cd380 2.240 . S
O381 C386 1.279 . S
O382 Cd379 2.297 . S
O382 C384 1.247 . S
O383 Cd379 2.439 . S
O383 C384 1.208 . S
C384 O382 1.247 . S
C384 O383 1.208 . S
C385 O390 1.247 . S
C385 O391 1.208 . S
C386 O378 1.315 . S
C386 O381 1.279 . S
C387 O388 1.315 . S
C387 O389 1.279 . S
O388 Cd380 2.223 . S
O388 C387 1.315 . S
O389 Cd379 2.240 . S
O389 C387 1.279 . S
O390 Cd380 2.297 . S
O390 C385 1.247 . S
O391 Cd380 2.439 . S
O391 C385 1.208 . S
O392 Cd393 2.223 . S
O392 C400 1.315 . S
Cd393 O392 2.223 . S
Cd393 O396 2.297 . S
Cd393 O397 2.439 . S
Cd393 O403 2.240 . S
Cd394 O395 2.240 . S
Cd394 O402 2.223 . S
Cd394 O404 2.297 1_545 S
Cd394 O405 2.439 . S
O395 Cd394 2.240 . S
O395 C400 1.279 . S
O396 Cd393 2.297 . S
O396 C398 1.247 . S
O397 Cd393 2.439 . S
O397 C398 1.208 . S
C398 O396 1.247 . S
C398 O397 1.208 . S
C399 O404 1.247 1_545 S
C399 O405 1.208 . S
C400 O392 1.315 . S
C400 O395 1.279 . S
C401 O402 1.315 . S
C401 O403 1.279 . S
O402 Cd394 2.223 . S
O402 C401 1.315 . S
O403 Cd393 2.240 . S
O403 C401 1.279 . S
O404 Cd394 2.297 1_565 S
O404 C399 1.247 1_565 S
O405 Cd394 2.439 . S
O405 C399 1.208 . S
O406 Cd407 2.223 . S
O406 C414 1.315 . S
Cd407 O406 2.223 . S
Cd407 O410 2.297 . S
Cd407 O411 2.439 . S
Cd407 O417 2.240 . S
Cd408 O409 2.240 . S
Cd408 O416 2.223 . S
Cd408 O418 2.297 . S
Cd408 O419 2.439 . S
O409 Cd408 2.240 . S
O409 C414 1.279 . S
O410 Cd407 2.297 . S
O410 C412 1.247 . S
O411 Cd407 2.439 . S
O411 C412 1.208 . S
C412 O410 1.247 . S
C412 O411 1.208 . S
C413 O418 1.247 . S
C413 O419 1.208 . S
C414 O406 1.315 . S
C414 O409 1.279 . S
C415 O416 1.315 . S
C415 O417 1.279 . S
O416 Cd408 2.223 . S
O416 C415 1.315 . S
O417 Cd407 2.240 . S
O417 C415 1.279 . S
O418 Cd408 2.297 . S
O418 C413 1.247 . S
O419 Cd408 2.439 . S
O419 C413 1.208 . S
O420 Cd421 2.223 . S
O420 C428 1.315 . S
Cd421 O420 2.223 . S
Cd421 O424 2.297 . S
Cd421 O425 2.439 . S
Cd421 O431 2.240 . S
Cd422 O423 2.240 . S
Cd422 O430 2.223 . S
Cd422 O432 2.309 . S
Cd422 O433 2.439 . S
O423 Cd422 2.240 . S
O423 C428 1.279 . S
O424 Cd421 2.297 . S
O424 C426 1.247 . S
O425 Cd421 2.439 . S
O425 C426 1.208 . S
C426 O424 1.247 . S
C426 O425 1.208 . S
C427 O432 1.268 . S
C427 O433 1.208 . S
C428 O420 1.315 . S
C428 O423 1.279 . S
C429 O430 1.315 . S
C429 O431 1.279 . S
O430 Cd422 2.223 . S
O430 C429 1.315 . S
O431 Cd421 2.240 . S
O431 C429 1.279 . S
O432 Cd422 2.309 . S
O432 C427 1.268 . S
O433 Cd422 2.439 . S
O433 C427 1.208 . S
O434 Cd435 2.223 . S
O434 C442 1.315 . S
Cd435 O434 2.223 . S
Cd435 O438 2.297 . S
Cd435 O439 2.439 . S
Cd435 O445 2.240 . S
Cd436 O437 2.240 . S
Cd436 O444 2.223 . S
Cd436 O446 2.297 . S
Cd436 O447 2.439 . S
O437 Cd436 2.240 . S
O437 C442 1.279 . S
O438 Cd435 2.297 . S
O438 C440 1.247 . S
O439 Cd435 2.439 . S
O439 C440 1.208 . S
C440 O438 1.247 . S
C440 O439 1.208 . S
C441 O446 1.247 . S
C441 O447 1.208 . S
C442 O434 1.315 . S
C442 O437 1.279 . S
C443 O444 1.315 . S
C443 O445 1.279 . S
O444 Cd436 2.223 . S
O444 C443 1.315 . S
O445 Cd435 2.240 . S
O445 C443 1.279 . S
O446 Cd436 2.297 . S
O446 C441 1.247 . S
O447 Cd436 2.439 . S
O447 C441 1.208 . S
O448 Cd449 2.223 . S
O448 C456 1.315 . S
Cd449 O448 2.223 . S
Cd449 O452 2.297 . S
Cd449 O453 2.439 . S
Cd449 O459 2.240 . S
Cd450 O451 2.240 . S
Cd450 O458 2.223 . S
Cd450 O460 2.297 . S
Cd450 O461 2.439 . S
O451 Cd450 2.240 . S
O451 C456 1.279 . S
O452 Cd449 2.297 . S
O452 C454 1.247 . S
O453 Cd449 2.439 . S
O453 C454 1.208 . S
C454 O452 1.247 . S
C454 O453 1.208 . S
C455 O460 1.247 . S
C455 O461 1.208 . S
C456 O448 1.315 . S
C456 O451 1.279 . S
C457 O458 1.315 . S
C457 O459 1.279 . S
O458 Cd450 2.223 . S
O458 C457 1.315 . S
O459 Cd449 2.240 . S
O459 C457 1.279 . S
O460 Cd450 2.297 . S
O460 C455 1.247 . S
O461 Cd450 2.439 . S
O461 C455 1.208 . S
O462 Cd463 2.223 . S
O462 C470 1.315 . S
Cd463 O462 2.223 . S
Cd463 O466 2.297 . S
Cd463 O467 2.439 . S
Cd463 O473 2.240 . S
Cd464 O465 2.240 . S
Cd464 O472 2.223 . S
Cd464 O474 2.297 . S
Cd464 O475 2.439 . S
O465 Cd464 2.240 . S
O465 C470 1.279 . S
O466 Cd463 2.297 . S
O466 C468 1.247 . S
O467 Cd463 2.439 . S
O467 C468 1.208 . S
C468 O466 1.247 . S
C468 O467 1.208 . S
C469 O474 1.247 . S
C469 O475 1.208 . S
C470 O462 1.315 . S
C470 O465 1.279 . S
C471 O472 1.315 . S
C471 O473 1.279 . S
O472 Cd464 2.223 . S
O472 C471 1.315 . S
O473 Cd463 2.240 . S
O473 C471 1.279 . S
O474 Cd464 2.297 . S
O474 C469 1.247 . S
O475 Cd464 2.439 . S
O475 C469 1.208 . S
O476 Cd477 2.223 . S
O476 C484 1.315 . S
Cd477 O476 2.223 . S
Cd477 O480 2.297 . S
Cd477 O481 2.439 . S
Cd477 O487 2.240 . S
Cd478 O479 2.240 . S
Cd478 O486 2.223 . S
Cd478 O488 2.297 . S
Cd478 O489 2.439 . S
O479 Cd478 2.240 . S
O479 C484 1.279 . S
O480 Cd477 2.297 . S
O480 C482 1.247 . S
O481 Cd477 2.439 . S
O481 C482 1.208 . S
C482 O480 1.247 . S
C482 O481 1.208 . S
C483 O488 1.247 . S
C483 O489 1.208 . S
C484 O476 1.315 . S
C484 O479 1.279 . S
C485 O486 1.315 . S
C485 O487 1.279 . S
O486 Cd478 2.223 . S
O486 C485 1.315 . S
O487 Cd477 2.240 . S
O487 C485 1.279 . S
O488 Cd478 2.297 . S
O488 C483 1.247 . S
O489 Cd478 2.439 . S
O489 C483 1.208 . S
O490 Cd491 2.223 . S
O490 C498 1.315 . S
Cd491 O490 2.223 . S
Cd491 O494 2.297 . S
Cd491 O495 2.439 . S
Cd491 O501 2.240 . S
Cd492 O493 2.240 . S
Cd492 O500 2.223 . S
Cd492 O502 2.297 . S
Cd492 O503 2.439 . S
O493 Cd492 2.240 . S
O493 C498 1.279 . S
O494 Cd491 2.297 . S
O494 C496 1.247 . S
O495 Cd491 2.439 . S
O495 C496 1.208 . S
C496 O494 1.247 . S
C496 O495 1.208 . S
C497 O502 1.247 . S
C497 O503 1.208 . S
C498 O490 1.315 . S
C498 O493 1.279 . S
C499 O500 1.315 . S
C499 O501 1.279 . S
O500 Cd492 2.223 . S
O500 C499 1.315 . S
O501 Cd491 2.240 . S
O501 C499 1.279 . S
O502 Cd492 2.297 . S
O502 C497 1.247 . S
O503 Cd492 2.439 . S
O503 C497 1.208 . S
O504 Cd505 2.223 . S
O504 C512 1.315 . S
Cd505 O504 2.223 . S
Cd505 O508 2.297 . S
Cd505 O509 2.439 . S
Cd505 O515 2.240 . S
Cd506 O507 2.240 . S
Cd506 O514 2.223 . S
Cd506 O516 2.297 . S
Cd506 O517 2.439 . S
O507 Cd506 2.240 . S
O507 C512 1.279 . S
O508 Cd505 2.297 . S
O508 C510 1.247 . S
O509 Cd505 2.439 . S
O509 C510 1.208 . S
C510 O508 1.247 . S
C510 O509 1.208 . S
C511 O516 1.247 . S
C511 O517 1.208 . S
C512 O504 1.315 . S
C512 O507 1.279 . S
C513 O514 1.315 . S
C513 O515 1.279 . S
O514 Cd506 2.223 . S
O514 C513 1.315 . S
O515 Cd505 2.240 . S
O515 C513 1.279 . S
O516 Cd506 2.297 . S
O516 C511 1.247 . S
O517 Cd506 2.439 . S
O517 C511 1.208 . S
O518 Cd519 2.223 . S
O518 C526 1.315 . S
Cd519 O518 2.223 . S
Cd519 O522 2.297 . S
Cd519 O523 2.439 . S
Cd519 O529 2.240 . S
Cd520 O521 2.240 . S
Cd520 O528 2.223 . S
Cd520 O530 2.297 . S
Cd520 O531 2.439 . S
O521 Cd520 2.240 . S
O521 C526 1.279 . S
O522 Cd519 2.297 . S
O522 C524 1.247 . S
O523 Cd519 2.439 . S
O523 C524 1.208 . S
C524 O522 1.247 . S
C524 O523 1.208 . S
C525 O530 1.247 . S
C525 O531 1.208 . S
C526 O518 1.315 . S
C526 O521 1.279 . S
C527 O528 1.315 . S
C527 O529 1.279 . S
O528 Cd520 2.223 . S
O528 C527 1.315 . S
O529 Cd519 2.240 . S
O529 C527 1.279 . S
O530 Cd520 2.297 . S
O530 C525 1.247 . S
O531 Cd520 2.439 . S
O531 C525 1.208 . S
O532 Cd533 2.223 . S
O532 C540 1.315 . S
Cd533 O532 2.223 . S
Cd533 O536 2.297 . S
Cd533 O537 2.439 . S
Cd533 O543 2.240 . S
Cd534 O535 2.240 . S
Cd534 O542 2.223 . S
Cd534 O544 2.297 . S
Cd534 O545 2.439 . S
O535 Cd534 2.240 . S
O535 C540 1.279 . S
O536 Cd533 2.297 . S
O536 C538 1.247 . S
O537 Cd533 2.439 . S
O537 C538 1.208 . S
C538 O536 1.247 . S
C538 O537 1.208 . S
C539 O544 1.247 . S
C539 O545 1.208 . S
C540 O532 1.315 . S
C540 O535 1.279 . S
C541 O542 1.315 . S
C541 O543 1.279 . S
O542 Cd534 2.223 . S
O542 C541 1.315 . S
O543 Cd533 2.240 . S
O543 C541 1.279 . S
O544 Cd534 2.297 . S
O544 C539 1.247 . S
O545 Cd534 2.439 . S
O545 C539 1.208 . S
O546 Cd547 2.223 . S
O546 C554 1.315 . S
Cd547 O546 2.223 . S
Cd547 O550 2.297 . S
Cd547 O551 2.439 . S
Cd547 O557 2.240 . S
Cd548 O549 2.240 . S
Cd548 O556 2.223 . S
Cd548 O558 2.297 . S
Cd548 O559 2.439 . S
O549 Cd548 2.240 . S
O549 C554 1.279 . S
O550 Cd547 2.297 . S
O550 C552 1.247 . S
O551 Cd547 2.439 . S
O551 C552 1.208 . S
C552 O550 1.247 . S
C552 O551 1.208 . S
C553 O558 1.247 . S
C553 O559 1.208 . S
C554 O546 1.315 . S
C554 O549 1.279 . S
C555 O556 1.315 . S
C555 O557 1.279 . S
O556 Cd548 2.223 . S
O556 C555 1.315 . S
O557 Cd547 2.240 . S
O557 C555 1.279 . S
O558 Cd548 2.297 . S
O558 C553 1.247 . S
O559 Cd548 2.439 . S
O559 C553 1.208 . S
O560 Cd561 2.223 . S
O560 C568 1.315 . S
Cd561 O560 2.223 . S
Cd561 O564 2.297 . S
Cd561 O565 2.439 . S
Cd561 O571 2.240 . S
Cd562 O563 2.240 . S
Cd562 O570 2.223 . S
Cd562 O572 2.297 . S
Cd562 O573 2.439 . S
O563 Cd562 2.240 . S
O563 C568 1.279 . S
O564 Cd561 2.297 . S
O564 C566 1.247 . S
O565 Cd561 2.439 . S
O565 C566 1.208 . S
C566 O564 1.247 . S
C566 O565 1.208 . S
C567 O572 1.247 . S
C567 O573 1.208 . S
C568 O560 1.315 . S
C568 O563 1.279 . S
C569 O570 1.315 . S
C569 O571 1.279 . S
O570 Cd562 2.223 . S
O570 C569 1.315 . S
O571 Cd561 2.240 . S
O571 C569 1.279 . S
O572 Cd562 2.297 . S
O572 C567 1.247 . S
O573 Cd562 2.439 . S
O573 C567 1.208 . S
O574 Cd575 2.223 . S
O574 C582 1.315 . S
Cd575 O574 2.223 . S
Cd575 O578 2.297 . S
Cd575 O579 2.439 . S
Cd575 O585 2.240 . S
Cd576 O577 2.240 . S
Cd576 O584 2.223 . S
Cd576 O586 2.297 . S
Cd576 O587 2.439 . S
O577 Cd576 2.240 . S
O577 C582 1.279 . S
O578 Cd575 2.297 . S
O578 C580 1.247 . S
O579 Cd575 2.439 . S
O579 C580 1.208 . S
C580 O578 1.247 . S
C580 O579 1.208 . S
C581 O586 1.247 . S
C581 O587 1.208 . S
C582 O574 1.315 . S
C582 O577 1.279 . S
C583 O584 1.315 . S
C583 O585 1.279 . S
O584 Cd576 2.223 . S
O584 C583 1.315 . S
O585 Cd575 2.240 . S
O585 C583 1.279 . S
O586 Cd576 2.297 . S
O586 C581 1.247 . S
O587 Cd576 2.439 . S
O587 C581 1.208 . S
O588 Cd589 2.223 . S
O588 C596 1.315 . S
Cd589 O588 2.223 . S
Cd589 O592 2.297 . S
Cd589 O593 2.439 . S
Cd589 O599 2.240 . S
Cd590 O591 2.240 . S
Cd590 O598 2.223 . S
Cd590 O600 2.297 . S
Cd590 O601 2.439 . S
O591 Cd590 2.240 . S
O591 C596 1.279 . S
O592 Cd589 2.297 . S
O592 C594 1.247 . S
O593 Cd589 2.439 . S
O593 C594 1.208 . S
C594 O592 1.247 . S
C594 O593 1.208 . S
C595 O600 1.247 . S
C595 O601 1.208 . S
C596 O588 1.315 . S
C596 O591 1.279 . S
C597 O598 1.315 . S
C597 O599 1.279 . S
O598 Cd590 2.223 . S
O598 C597 1.315 . S
O599 Cd589 2.240 . S
O599 C597 1.279 . S
O600 Cd590 2.297 . S
O600 C595 1.247 . S
O601 Cd590 2.439 . S
O601 C595 1.208 . S
O602 Cd603 2.223 . S
O602 C610 1.315 . S
Cd603 O602 2.223 . S
Cd603 O606 2.297 . S
Cd603 O607 2.439 . S
Cd603 O613 2.240 . S
Cd604 O605 2.240 . S
Cd604 O612 2.223 . S
Cd604 O614 2.297 . S
Cd604 O615 2.439 . S
O605 Cd604 2.240 . S
O605 C610 1.279 . S
O606 Cd603 2.297 . S
O606 C608 1.247 . S
O607 Cd603 2.439 . S
O607 C608 1.208 . S
C608 O606 1.247 . S
C608 O607 1.208 . S
C609 O614 1.247 . S
C609 O615 1.208 . S
C610 O602 1.315 . S
C610 O605 1.279 . S
C611 O612 1.315 . S
C611 O613 1.279 . S
O612 Cd604 2.223 . S
O612 C611 1.315 . S
O613 Cd603 2.240 . S
O613 C611 1.279 . S
O614 Cd604 2.297 . S
O614 C609 1.247 . S
O615 Cd604 2.439 . S
O615 C609 1.208 . S
O616 Cd617 2.223 . S
O616 C624 1.315 . S
Cd617 O616 2.223 . S
Cd617 O620 2.297 . S
Cd617 O621 2.439 . S
Cd617 O627 2.240 . S
Cd618 O619 2.240 . S
Cd618 O626 2.223 . S
Cd618 O628 2.297 1_655 S
Cd618 O629 2.439 . S
O619 Cd618 2.240 . S
O619 C624 1.279 . S
O620 Cd617 2.297 . S
O620 C622 1.247 . S
O621 Cd617 2.439 . S
O621 C622 1.208 . S
C622 O620 1.247 . S
C622 O621 1.208 . S
C623 O628 1.247 . S
C623 O629 1.208 1_455 S
C624 O616 1.315 . S
C624 O619 1.279 . S
C625 O626 1.315 . S
C625 O627 1.279 . S
O626 Cd618 2.223 . S
O626 C625 1.315 . S
O627 Cd617 2.240 . S
O627 C625 1.279 . S
O628 Cd618 2.297 1_455 S
O628 C623 1.247 . S
O629 Cd618 2.439 . S
O629 C623 1.208 1_655 S
O630 Cd631 2.223 . S
O630 C638 1.315 . S
Cd631 O630 2.223 . S
Cd631 O634 2.297 . S
Cd631 O635 2.439 . S
Cd631 O641 2.240 . S
Cd632 O633 2.240 . S
Cd632 O640 2.223 . S
Cd632 O642 2.297 . S
Cd632 O643 2.439 . S
O633 Cd632 2.240 . S
O633 C638 1.279 . S
O634 Cd631 2.297 . S
O634 C636 1.247 . S
O635 Cd631 2.439 . S
O635 C636 1.208 . S
C636 O634 1.247 . S
C636 O635 1.208 . S
C637 O642 1.247 . S
C637 O643 1.208 . S
C638 O630 1.315 . S
C638 O633 1.279 . S
C639 O640 1.315 . S
C639 O641 1.279 . S
O640 Cd632 2.223 . S
O640 C639 1.315 . S
O641 Cd631 2.240 . S
O641 C639 1.279 . S
O642 Cd632 2.297 . S
O642 C637 1.247 . S
O643 Cd632 2.439 . S
O643 C637 1.208 . S
O644 Cd645 2.223 . S
O644 C652 1.315 . S
Cd645 O644 2.223 . S
Cd645 O648 2.297 . S
Cd645 O649 2.439 . S
Cd645 O655 2.240 . S
Cd646 O647 2.240 . S
Cd646 O654 2.223 . S
Cd646 O656 2.297 . S
Cd646 O657 2.439 . S
O647 Cd646 2.240 . S
O647 C652 1.279 . S
O648 Cd645 2.297 . S
O648 C650 1.247 . S
O649 Cd645 2.439 . S
O649 C650 1.208 . S
C650 O648 1.247 . S
C650 O649 1.208 . S
C651 O656 1.247 . S
C651 O657 1.208 . S
C652 O644 1.315 . S
C652 O647 1.279 . S
C653 O654 1.315 . S
C653 O655 1.279 . S
O654 Cd646 2.223 . S
O654 C653 1.315 . S
O655 Cd645 2.240 . S
O655 C653 1.279 . S
O656 Cd646 2.297 . S
O656 C651 1.247 . S
O657 Cd646 2.439 . S
O657 C651 1.208 . S
O658 Cd659 2.223 . S
O658 C666 1.315 . S
Cd659 O658 2.223 . S
Cd659 O662 2.297 . S
Cd659 O663 2.439 . S
Cd659 O669 2.240 . S
Cd660 O661 2.240 . S
Cd660 O668 2.223 . S
Cd660 O670 2.297 . S
Cd660 O671 2.439 . S
O661 Cd660 2.240 . S
O661 C666 1.279 . S
O662 Cd659 2.297 . S
O662 C664 1.247 . S
O663 Cd659 2.439 . S
O663 C664 1.208 . S
C664 O662 1.247 . S
C664 O663 1.208 . S
C665 O670 1.247 . S
C665 O671 1.208 . S
C666 O658 1.315 . S
C666 O661 1.279 . S
C667 O668 1.315 . S
C667 O669 1.279 . S
O668 Cd660 2.223 . S
O668 C667 1.315 . S
O669 Cd659 2.240 . S
O669 C667 1.279 . S
O670 Cd660 2.297 . S
O670 C665 1.247 . S
O671 Cd660 2.439 . S
O671 C665 1.208 . S
C286 C6 1.873 . S
C23 C247 2.794 . S
C34 C260 2.517 . S
C275 C51 2.844 . S
C328 C65 2.341 . S
C77 C303 2.572 . S
C93 C314 2.227 . S
C105 C231 1.922 . S
C118 C216 1.863 . S
C135 C176 2.971 . S
C146 C188 1.695 . S
C204 C163 2.948 . S
C345 C624 2.832 . S
C583 C357 2.132 . S
C373 C594 2.204 . S
C611 C385 2.162 . S
C398 C664 1.303 . S
C637 C415 2.220 . S
C426 C650 1.248 . S
C569 C443 2.890 . S
C456 C555 2.757 . S
C510 C468 1.562 . S
C527 C484 2.643 . S
C538 C496 1.552 . S
C370 C9 1.465 . S
C20 C386 1.372 1_556 S
C37 C342 1.431 . S
C48 C358 1.398 . S
C62 C429 1.666 . S
C440 C78 1.401 1_556 S
C401 C90 1.636 . S
C412 C106 1.436 1_556 S
C513 C121 1.885 . S
C132 C524 0.934 1_565 S
C541 C149 1.840 . S
C160 C552 0.900 1_545 S
C175 C455 1.152 . S
C191 C471 1.623 1_565 S
C483 C203 1.177 . S
C499 C219 1.676 1_565 S
C232 C608 1.445 . S
C244 C638 1.387 . S
C653 C259 1.503 . S
C566 C272 1.063 . S
C289 C667 1.647 1_455 S
C580 C300 1.160 . S
C317 C597 1.744 1_655 S
C331 C623 1.434 . S
C399 C8 2.244 1_655 S
C414 C21 2.023 . S
C427 C36 2.503 . S
C49 C442 2.105 . S
C344 C63 2.141 . S
C356 C79 2.375 . S
C91 C372 2.020 1_655 S
C384 C107 2.123 . S
C120 C539 2.306 1_545 S
C133 C554 2.263 . S
C511 C148 2.271 1_545 S
C161 C526 2.204 . S
C485 C174 2.190 1_545 S
C190 C497 2.231 . S
C202 C457 2.246 1_545 S
C218 C469 2.277 . S
C636 C233 2.183 1_556 S
C245 C610 2.110 1_556 S
C258 C625 2.115 . S
C273 C582 2.107 . S
C595 C288 2.173 . S
C568 C301 2.131 1_556 S
C665 C316 2.452 . S
C330 C651 2.298 . S
C217 C7 2.831 . S
C22 C177 1.575 . S
C189 C35 2.940 . S
C205 C50 1.579 . S
C134 C64 2.091 . S
C76 C147 2.897 . S
C92 C162 2.070 . S
C119 C104 2.781 . S
C230 C287 2.721 . S
C329 C246 2.489 . S
C302 C261 1.726 . S
C274 C315 2.456 . S
C553 C343 2.973 . S
C512 C359 1.786 . S
C371 C525 3.363 . S
C540 C387 1.763 . S
C470 C400 2.335 . S
C413 C482 3.375 . S
C428 C498 2.290 . S
C441 C454 2.985 . S
C567 C622 3.036 . S
C666 C581 2.748 . S
C639 C596 1.706 . S
C652 C609 2.883 . S
